# Generated by pormake.
# Topology son, (6)-cn, num edge types: 1
# Building blocks:
#     Node 0, Type 0, BuildingBlock: CUKXOW_clean_sbu_0, # of connection points: 6
#     Node 1, Type 0, BuildingBlock: CUKXOW_clean_sbu_0, # of connection points: 6
#     Node 2, Type 0, BuildingBlock: CUKXOW_clean_sbu_0, # of connection points: 6
#     Node 3, Type 0, BuildingBlock: CUKXOW_clean_sbu_0, # of connection points: 6
#     Node 4, Type 0, BuildingBlock: CUKXOW_clean_sbu_0, # of connection points: 6
#     Node 5, Type 0, BuildingBlock: CUKXOW_clean_sbu_0, # of connection points: 6
#     Node 6, Type 0, BuildingBlock: CUKXOW_clean_sbu_0, # of connection points: 6
#     Node 7, Type 0, BuildingBlock: CUKXOW_clean_sbu_0, # of connection points: 6
#     Node 8, Type 0, BuildingBlock: CUKXOW_clean_sbu_0, # of connection points: 6
#     Node 9, Type 0, BuildingBlock: CUKXOW_clean_sbu_0, # of connection points: 6
#     Node 10, Type 0, BuildingBlock: CUKXOW_clean_sbu_0, # of connection points: 6
#     Node 11, Type 0, BuildingBlock: CUKXOW_clean_sbu_0, # of connection points: 6
#     Node 12, Type 0, BuildingBlock: CUKXOW_clean_sbu_0, # of connection points: 6
#     Node 13, Type 0, BuildingBlock: CUKXOW_clean_sbu_0, # of connection points: 6
#     Node 14, Type 0, BuildingBlock: CUKXOW_clean_sbu_0, # of connection points: 6
#     Node 15, Type 0, BuildingBlock: CUKXOW_clean_sbu_0, # of connection points: 6
#     Node 16, Type 0, BuildingBlock: CUKXOW_clean_sbu_0, # of connection points: 6
#     Node 17, Type 0, BuildingBlock: CUKXOW_clean_sbu_0, # of connection points: 6
#     Node 18, Type 0, BuildingBlock: CUKXOW_clean_sbu_0, # of connection points: 6
#     Node 19, Type 0, BuildingBlock: CUKXOW_clean_sbu_0, # of connection points: 6
#     Node 20, Type 0, BuildingBlock: CUKXOW_clean_sbu_0, # of connection points: 6
#     Node 21, Type 0, BuildingBlock: CUKXOW_clean_sbu_0, # of connection points: 6
#     Node 22, Type 0, BuildingBlock: CUKXOW_clean_sbu_0, # of connection points: 6
#     Node 23, Type 0, BuildingBlock: CUKXOW_clean_sbu_0, # of connection points: 6
#     Node 24, Type 0, BuildingBlock: CUKXOW_clean_sbu_0, # of connection points: 6
#     Node 25, Type 0, BuildingBlock: CUKXOW_clean_sbu_0, # of connection points: 6
#     Node 26, Type 0, BuildingBlock: CUKXOW_clean_sbu_0, # of connection points: 6
#     Node 27, Type 0, BuildingBlock: CUKXOW_clean_sbu_0, # of connection points: 6
#     Node 28, Type 0, BuildingBlock: CUKXOW_clean_sbu_0, # of connection points: 6
#     Node 29, Type 0, BuildingBlock: CUKXOW_clean_sbu_0, # of connection points: 6
#     Node 30, Type 0, BuildingBlock: CUKXOW_clean_sbu_0, # of connection points: 6
#     Node 31, Type 0, BuildingBlock: CUKXOW_clean_sbu_0, # of connection points: 6
#     Edge 32, Type (0, 0), BuildingBlock: XIVTED_clean_linker_0, # of connection points: 2
#     Edge 33, Type (0, 0), BuildingBlock: XIVTED_clean_linker_0, # of connection points: 2
#     Edge 34, Type (0, 0), BuildingBlock: XIVTED_clean_linker_0, # of connection points: 2
#     Edge 35, Type (0, 0), BuildingBlock: XIVTED_clean_linker_0, # of connection points: 2
#     Edge 36, Type (0, 0), BuildingBlock: XIVTED_clean_linker_0, # of connection points: 2
#     Edge 37, Type (0, 0), BuildingBlock: XIVTED_clean_linker_0, # of connection points: 2
#     Edge 38, Type (0, 0), BuildingBlock: XIVTED_clean_linker_0, # of connection points: 2
#     Edge 39, Type (0, 0), BuildingBlock: XIVTED_clean_linker_0, # of connection points: 2
#     Edge 40, Type (0, 0), BuildingBlock: XIVTED_clean_linker_0, # of connection points: 2
#     Edge 41, Type (0, 0), BuildingBlock: XIVTED_clean_linker_0, # of connection points: 2
#     Edge 42, Type (0, 0), BuildingBlock: XIVTED_clean_linker_0, # of connection points: 2
#     Edge 43, Type (0, 0), BuildingBlock: XIVTED_clean_linker_0, # of connection points: 2
#     Edge 44, Type (0, 0), BuildingBlock: XIVTED_clean_linker_0, # of connection points: 2
#     Edge 45, Type (0, 0), BuildingBlock: XIVTED_clean_linker_0, # of connection points: 2
#     Edge 46, Type (0, 0), BuildingBlock: XIVTED_clean_linker_0, # of connection points: 2
#     Edge 47, Type (0, 0), BuildingBlock: XIVTED_clean_linker_0, # of connection points: 2
#     Edge 48, Type (0, 0), BuildingBlock: XIVTED_clean_linker_0, # of connection points: 2
#     Edge 49, Type (0, 0), BuildingBlock: XIVTED_clean_linker_0, # of connection points: 2
#     Edge 50, Type (0, 0), BuildingBlock: XIVTED_clean_linker_0, # of connection points: 2
#     Edge 51, Type (0, 0), BuildingBlock: XIVTED_clean_linker_0, # of connection points: 2
#     Edge 52, Type (0, 0), BuildingBlock: XIVTED_clean_linker_0, # of connection points: 2
#     Edge 53, Type (0, 0), BuildingBlock: XIVTED_clean_linker_0, # of connection points: 2
#     Edge 54, Type (0, 0), BuildingBlock: XIVTED_clean_linker_0, # of connection points: 2
#     Edge 55, Type (0, 0), BuildingBlock: XIVTED_clean_linker_0, # of connection points: 2
#     Edge 56, Type (0, 0), BuildingBlock: XIVTED_clean_linker_0, # of connection points: 2
#     Edge 57, Type (0, 0), BuildingBlock: XIVTED_clean_linker_0, # of connection points: 2
#     Edge 58, Type (0, 0), BuildingBlock: XIVTED_clean_linker_0, # of connection points: 2
#     Edge 59, Type (0, 0), BuildingBlock: XIVTED_clean_linker_0, # of connection points: 2
#     Edge 60, Type (0, 0), BuildingBlock: XIVTED_clean_linker_0, # of connection points: 2
#     Edge 61, Type (0, 0), BuildingBlock: XIVTED_clean_linker_0, # of connection points: 2
#     Edge 62, Type (0, 0), BuildingBlock: XIVTED_clean_linker_0, # of connection points: 2
#     Edge 63, Type (0, 0), BuildingBlock: XIVTED_clean_linker_0, # of connection points: 2
#     Edge 64, Type (0, 0), BuildingBlock: XIVTED_clean_linker_0, # of connection points: 2
#     Edge 65, Type (0, 0), BuildingBlock: XIVTED_clean_linker_0, # of connection points: 2
#     Edge 66, Type (0, 0), BuildingBlock: XIVTED_clean_linker_0, # of connection points: 2
#     Edge 67, Type (0, 0), BuildingBlock: XIVTED_clean_linker_0, # of connection points: 2
#     Edge 68, Type (0, 0), BuildingBlock: XIVTED_clean_linker_0, # of connection points: 2
#     Edge 69, Type (0, 0), BuildingBlock: XIVTED_clean_linker_0, # of connection points: 2
#     Edge 70, Type (0, 0), BuildingBlock: XIVTED_clean_linker_0, # of connection points: 2
#     Edge 71, Type (0, 0), BuildingBlock: XIVTED_clean_linker_0, # of connection points: 2
#     Edge 72, Type (0, 0), BuildingBlock: XIVTED_clean_linker_0, # of connection points: 2
#     Edge 73, Type (0, 0), BuildingBlock: XIVTED_clean_linker_0, # of connection points: 2
#     Edge 74, Type (0, 0), BuildingBlock: XIVTED_clean_linker_0, # of connection points: 2
#     Edge 75, Type (0, 0), BuildingBlock: XIVTED_clean_linker_0, # of connection points: 2
#     Edge 76, Type (0, 0), BuildingBlock: XIVTED_clean_linker_0, # of connection points: 2
#     Edge 77, Type (0, 0), BuildingBlock: XIVTED_clean_linker_0, # of connection points: 2
#     Edge 78, Type (0, 0), BuildingBlock: XIVTED_clean_linker_0, # of connection points: 2
#     Edge 79, Type (0, 0), BuildingBlock: XIVTED_clean_linker_0, # of connection points: 2
#     Edge 80, Type (0, 0), BuildingBlock: XIVTED_clean_linker_0, # of connection points: 2
#     Edge 81, Type (0, 0), BuildingBlock: XIVTED_clean_linker_0, # of connection points: 2
#     Edge 82, Type (0, 0), BuildingBlock: XIVTED_clean_linker_0, # of connection points: 2
#     Edge 83, Type (0, 0), BuildingBlock: XIVTED_clean_linker_0, # of connection points: 2
#     Edge 84, Type (0, 0), BuildingBlock: XIVTED_clean_linker_0, # of connection points: 2
#     Edge 85, Type (0, 0), BuildingBlock: XIVTED_clean_linker_0, # of connection points: 2
#     Edge 86, Type (0, 0), BuildingBlock: XIVTED_clean_linker_0, # of connection points: 2
#     Edge 87, Type (0, 0), BuildingBlock: XIVTED_clean_linker_0, # of connection points: 2
#     Edge 88, Type (0, 0), BuildingBlock: XIVTED_clean_linker_0, # of connection points: 2
#     Edge 89, Type (0, 0), BuildingBlock: XIVTED_clean_linker_0, # of connection points: 2
#     Edge 90, Type (0, 0), BuildingBlock: XIVTED_clean_linker_0, # of connection points: 2
#     Edge 91, Type (0, 0), BuildingBlock: XIVTED_clean_linker_0, # of connection points: 2
#     Edge 92, Type (0, 0), BuildingBlock: XIVTED_clean_linker_0, # of connection points: 2
#     Edge 93, Type (0, 0), BuildingBlock: XIVTED_clean_linker_0, # of connection points: 2
#     Edge 94, Type (0, 0), BuildingBlock: XIVTED_clean_linker_0, # of connection points: 2
#     Edge 95, Type (0, 0), BuildingBlock: XIVTED_clean_linker_0, # of connection points: 2
#     Edge 96, Type (0, 0), BuildingBlock: XIVTED_clean_linker_0, # of connection points: 2
#     Edge 97, Type (0, 0), BuildingBlock: XIVTED_clean_linker_0, # of connection points: 2
#     Edge 98, Type (0, 0), BuildingBlock: XIVTED_clean_linker_0, # of connection points: 2
#     Edge 99, Type (0, 0), BuildingBlock: XIVTED_clean_linker_0, # of connection points: 2
#     Edge 100, Type (0, 0), BuildingBlock: XIVTED_clean_linker_0, # of connection points: 2
#     Edge 101, Type (0, 0), BuildingBlock: XIVTED_clean_linker_0, # of connection points: 2
#     Edge 102, Type (0, 0), BuildingBlock: XIVTED_clean_linker_0, # of connection points: 2
#     Edge 103, Type (0, 0), BuildingBlock: XIVTED_clean_linker_0, # of connection points: 2
#     Edge 104, Type (0, 0), BuildingBlock: XIVTED_clean_linker_0, # of connection points: 2
#     Edge 105, Type (0, 0), BuildingBlock: XIVTED_clean_linker_0, # of connection points: 2
#     Edge 106, Type (0, 0), BuildingBlock: XIVTED_clean_linker_0, # of connection points: 2
#     Edge 107, Type (0, 0), BuildingBlock: XIVTED_clean_linker_0, # of connection points: 2
#     Edge 108, Type (0, 0), BuildingBlock: XIVTED_clean_linker_0, # of connection points: 2
#     Edge 109, Type (0, 0), BuildingBlock: XIVTED_clean_linker_0, # of connection points: 2
#     Edge 110, Type (0, 0), BuildingBlock: XIVTED_clean_linker_0, # of connection points: 2
#     Edge 111, Type (0, 0), BuildingBlock: XIVTED_clean_linker_0, # of connection points: 2
#     Edge 112, Type (0, 0), BuildingBlock: XIVTED_clean_linker_0, # of connection points: 2
#     Edge 113, Type (0, 0), BuildingBlock: XIVTED_clean_linker_0, # of connection points: 2
#     Edge 114, Type (0, 0), BuildingBlock: XIVTED_clean_linker_0, # of connection points: 2
#     Edge 115, Type (0, 0), BuildingBlock: XIVTED_clean_linker_0, # of connection points: 2
#     Edge 116, Type (0, 0), BuildingBlock: XIVTED_clean_linker_0, # of connection points: 2
#     Edge 117, Type (0, 0), BuildingBlock: XIVTED_clean_linker_0, # of connection points: 2
#     Edge 118, Type (0, 0), BuildingBlock: XIVTED_clean_linker_0, # of connection points: 2
#     Edge 119, Type (0, 0), BuildingBlock: XIVTED_clean_linker_0, # of connection points: 2
#     Edge 120, Type (0, 0), BuildingBlock: XIVTED_clean_linker_0, # of connection points: 2
#     Edge 121, Type (0, 0), BuildingBlock: XIVTED_clean_linker_0, # of connection points: 2
#     Edge 122, Type (0, 0), BuildingBlock: XIVTED_clean_linker_0, # of connection points: 2
#     Edge 123, Type (0, 0), BuildingBlock: XIVTED_clean_linker_0, # of connection points: 2
#     Edge 124, Type (0, 0), BuildingBlock: XIVTED_clean_linker_0, # of connection points: 2
#     Edge 125, Type (0, 0), BuildingBlock: XIVTED_clean_linker_0, # of connection points: 2
#     Edge 126, Type (0, 0), BuildingBlock: XIVTED_clean_linker_0, # of connection points: 2
#     Edge 127, Type (0, 0), BuildingBlock: XIVTED_clean_linker_0, # of connection points: 2
# Relax obj value: 0.055
# Max RMSD: 0.126
# Mean RMSD: 0.126
data_MOF--net-son--node1-CUKXOW_clean_sbu_0--edge1-XIVTED_clean_linker_0
_symmetry_space_group_name_H-M    P1
_symmetry_Int_Tables_number       1
_symmetry_cell_setting            triclinic
loop_
_symmetry_equiv_pos_as_xyz
'x, y, z'
_cell_length_a     139.61955
_cell_length_b     60.077961
_cell_length_c     14.534583
_cell_angle_alpha  89.993707
_cell_angle_beta   89.993786
_cell_angle_gamma 89.975025
loop_
_atom_site_label
_atom_site_type_symbol
_atom_site_fract_x
_atom_site_fract_y
_atom_site_fract_z
_atom_type_partial_charge
Tb0 Tb 0.29068 0.24138 0.25935 0.0
C1 C 0.30106 0.28538 0.31919 0.0
Tb2 Tb 0.31333 0.24095 0.29609 0.0
O3 O 0.28626 0.23912 0.40547 0.0
O4 O 0.30036 0.23809 0.36858 0.0
O5 O 0.29356 0.27674 0.27557 0.0
C6 C 0.33079 0.24175 0.36713 0.0
O7 O 0.30873 0.27365 0.34378 0.0
C8 C 0.30908 0.24475 0.11765 0.0
C9 C 0.30275 0.1966 0.24511 0.0
O10 O 0.3264 0.25861 0.33067 0.0
O11 O 0.32526 0.22434 0.3654 0.0
O12 O 0.31773 0.24396 0.14998 0.0
O13 O 0.30367 0.24387 0.18655 0.0
O14 O 0.3102 0.20555 0.28854 0.0
O15 O 0.29517 0.2082 0.21722 0.0
C16 C 0.27366 0.24101 0.17957 0.0
O17 O 0.27686 0.22583 0.23516 0.0
O18 O 0.28006 0.25652 0.16852 0.0
C19 C 0.29493 0.23782 0.43759 0.0
Tb20 Tb 0.94136 0.99144 0.25937 0.0
C21 C 0.93118 0.94714 0.32107 0.0
Tb22 Tb 0.91874 0.99139 0.29772 0.0
O23 O 0.94583 -0.00549 0.40544 0.0
O24 O 0.93174 -0.0053 0.36919 0.0
O25 O 0.93864 0.95596 0.27714 0.0
C26 C 0.9013 0.99093 0.36961 0.0
O27 O 0.92344 0.95872 0.34545 0.0
C28 C 0.92295 0.98771 0.11874 0.0
C29 C 0.92903 0.03563 0.24252 0.0
O30 O 0.90563 0.97394 0.33344 0.0
O31 O 0.90688 0.00824 0.36714 0.0
O32 O 0.9143 0.9886 0.15136 0.0
O33 O 0.92834 0.98837 0.18776 0.0
O34 O 0.92196 0.02682 0.29176 0.0
O35 O 0.93646 0.02399 0.21141 0.0
C36 C 0.9584 -0.00793 0.1799 0.0
O37 O 0.95505 0.00748 0.23364 0.0
O38 O 0.95214 0.9762 0.1705 0.0
C39 C 0.93717 -0.00455 0.43802 0.0
Tb40 Tb 0.2907 0.99014 0.06824 0.0
C41 C 0.30087 0.94589 1.00709 0.0
Tb42 Tb 0.31336 0.98992 1.03137 0.0
O43 O 0.2863 -0.00731 0.92214 0.0
O44 O 0.3004 -0.00675 0.95907 0.0
O45 O 0.29341 0.9547 0.05094 0.0
C46 C 0.33083 0.98922 0.96018 0.0
O47 O 0.30861 0.95742 0.98293 0.0
C48 C 0.30908 0.98613 0.20979 0.0
C49 C 0.30304 0.03451 0.08408 0.0
O50 O 0.32654 0.97243 0.99827 0.0
O51 O 0.3252 0.00647 0.96032 0.0
O52 O 0.31774 0.98667 0.17749 0.0
O53 O 0.30368 0.98719 0.14084 0.0
O54 O 0.31044 0.02538 0.04056 0.0
O55 O 0.29536 0.02314 0.1112 0.0
C56 C 0.27367 0.99096 0.14806 0.0
O57 O 0.27694 0.00603 0.09236 0.0
O58 O 0.28 0.9753 0.15916 0.0
C59 C 0.29498 -0.00626 0.89003 0.0
Tb60 Tb 0.94159 0.24115 0.06449 0.0
C61 C 0.93158 0.2857 1.00283 0.0
Tb62 Tb 0.91897 0.24174 1.02606 0.0
O63 O 0.94606 0.23794 0.91845 0.0
O64 O 0.93196 0.23815 0.9546 0.0
O65 O 0.939 0.27667 0.04676 0.0
C66 C 0.90152 0.24252 0.95428 0.0
O67 O 0.9238 0.27434 0.97844 0.0
C68 C 0.92318 0.24532 0.20506 0.0
C69 C 0.92913 0.19724 0.08076 0.0
O70 O 0.90598 0.25952 0.98867 0.0
O71 O 0.90698 0.22501 0.95842 0.0
O72 O 0.91454 0.2447 0.17244 0.0
O73 O 0.92858 0.2445 0.13605 0.0
O74 O 0.9221 0.20623 1.03143 0.0
O75 O 0.93659 0.20871 0.11218 0.0
C76 C 0.95857 0.24055 0.1451 0.0
O77 O 0.95528 0.22512 0.09119 0.0
O78 O 0.95229 0.25641 0.15393 0.0
C79 C 0.93739 0.23724 0.88582 0.0
Tb80 Tb 0.66923 0.74281 0.78387 0.0
C81 C 0.67952 0.7874 0.83683 0.0
Tb82 Tb 0.69188 0.74307 0.82064 0.0
O83 O 0.66486 0.73975 0.93008 0.0
O84 O 0.67892 0.74007 0.89327 0.0
O85 O 0.67213 0.77827 0.79322 0.0
C86 C 0.70888 0.7434 0.90093 0.0
O87 O 0.6872 0.77604 0.86388 0.0
C88 C 0.68762 0.7468 0.64247 0.0
C89 C 0.68174 0.6988 0.75952 0.0
O90 O 0.70568 0.75868 0.84581 0.0
O91 O 0.7025 0.72783 0.9112 0.0
O92 O 0.6963 0.74595 0.67468 0.0
O93 O 0.68219 0.74595 0.71134 0.0
O94 O 0.68921 0.70764 0.80308 0.0
O95 O 0.67397 0.71028 0.73563 0.0
C96 C 0.65177 0.74205 0.71281 0.0
O97 O 0.65601 0.72539 0.75238 0.0
O98 O 0.65745 0.7592 0.71142 0.0
C99 C 0.67352 0.73917 0.96231 0.0
Tb100 Tb 0.06347 -0.00803 0.78689 0.0
C101 C 0.05295 0.94761 0.83815 0.0
Tb102 Tb 0.04089 -0.00759 0.82512 0.0
O103 O 0.06802 -0.00521 0.93256 0.0
O104 O 0.05391 -0.00521 0.89759 0.0
O105 O 0.06035 0.95657 0.79407 0.0
C106 C 0.0239 -0.00809 0.90575 0.0
O107 O 0.04541 0.95921 0.86683 0.0
C108 C 0.04492 0.98878 0.6463 0.0
C109 C 0.05122 0.03646 0.76492 0.0
O110 O 0.02711 0.97675 0.85019 0.0
O111 O 0.03027 0.00749 0.91636 0.0
O112 O 0.0363 0.98985 0.67967 0.0
O113 O 0.05046 0.98944 0.7145 0.0
O114 O 0.04372 0.0278 0.80866 0.0
O115 O 0.05888 0.02474 0.7401 0.0
C116 C 0.08088 -0.00718 0.71465 0.0
O117 O 0.07655 0.0096 0.7524 0.0
O118 O 0.07532 0.97546 0.7158 0.0
C119 C 0.0594 -0.00445 0.96595 0.0
Tb120 Tb 0.66894 -0.0064 0.05197 0.0
C121 C 0.67956 0.94932 1.00011 0.0
Tb122 Tb 0.69153 -0.00581 1.01367 0.0
O123 O 0.6644 -0.00355 0.90623 0.0
O124 O 0.67851 -0.00355 0.94132 0.0
O125 O 0.67212 0.95822 0.04379 0.0
C126 C 0.70849 -0.00586 0.9323 0.0
O127 O 0.68711 0.96097 0.97193 0.0
C128 C 0.6875 0.99048 0.19247 0.0
C129 C 0.68114 0.03813 0.07472 0.0
O130 O 0.7054 0.97896 0.98849 0.0
O131 O 0.702 0.00948 0.92154 0.0
O132 O 0.69612 0.99157 0.15909 0.0
O133 O 0.68195 0.99116 0.12428 0.0
O134 O 0.68863 0.02951 1.03069 0.0
O135 O 0.67346 0.02641 0.09919 0.0
C136 C 0.65146 -0.00633 0.12319 0.0
O137 O 0.6556 0.01053 0.08417 0.0
O138 O 0.65726 0.97673 0.12418 0.0
C139 C 0.67302 -0.00279 0.87289 0.0
Tb140 Tb 0.0637 0.74073 0.04929 0.0
C141 C 0.05341 0.78542 0.99735 0.0
Tb142 Tb 0.04112 0.74102 1.01097 0.0
O143 O 0.06822 0.73765 0.90356 0.0
O144 O 0.05412 0.7382 0.93864 0.0
O145 O 0.06077 0.77623 0.04131 0.0
C146 C 0.02417 0.74154 0.92941 0.0
O147 O 0.04579 0.77406 0.96902 0.0
C148 C 0.04517 0.74463 0.18976 0.0
C149 C 0.05119 0.69669 0.0723 0.0
O150 O 0.02734 0.75672 0.98507 0.0
O151 O 0.03055 0.72595 0.91928 0.0
O152 O 0.03653 0.74387 0.15638 0.0
O153 O 0.05071 0.74371 0.12157 0.0
O154 O 0.04376 0.70558 1.02829 0.0
O155 O 0.05894 0.70814 0.09675 0.0
C156 C 0.08115 0.73989 0.12112 0.0
O157 O 0.07685 0.72314 0.08295 0.0
O158 O 0.07554 0.75718 0.12075 0.0
C159 C 0.05961 0.73721 0.87021 0.0
Tb160 Tb 0.29158 0.74143 0.75444 0.0
C161 C 0.30175 0.7856 0.81569 0.0
Tb162 Tb 0.31417 0.74139 0.7927 0.0
O163 O 0.28701 0.73885 0.89996 0.0
O164 O 0.30116 0.73844 0.86492 0.0
O165 O 0.2943 0.77685 0.77156 0.0
C166 C 0.33161 0.74223 0.86471 0.0
O167 O 0.30946 0.774 0.84033 0.0
C168 C 0.31008 0.74513 0.61369 0.0
C169 C 0.3038 0.69686 0.74047 0.0
O170 O 0.32726 0.75903 0.82723 0.0
O171 O 0.32604 0.72488 0.86351 0.0
O172 O 0.31869 0.74456 0.64706 0.0
O173 O 0.30459 0.74408 0.68206 0.0
O174 O 0.31118 0.70593 0.78445 0.0
O175 O 0.29619 0.70833 0.71237 0.0
C176 C 0.27458 0.74088 0.67371 0.0
O177 O 0.27779 0.72576 0.72952 0.0
O178 O 0.28096 0.75643 0.66289 0.0
C179 C 0.29564 0.73785 0.93326 0.0
Tb180 Tb 0.9419 0.49149 0.76409 0.0
C181 C 0.93157 0.44733 0.82508 0.0
Tb182 Tb 0.91928 0.49182 0.80253 0.0
O183 O 0.94638 0.49442 0.91017 0.0
O184 O 0.93229 0.49489 0.87397 0.0
O185 O 0.93906 0.45605 0.78127 0.0
C186 C 0.90185 0.49145 0.87459 0.0
O187 O 0.92388 0.45903 0.84981 0.0
C188 C 0.92346 0.48811 0.62352 0.0
C189 C 0.9297 0.53589 0.74739 0.0
O190 O 0.90617 0.47443 0.8387 0.0
O191 O 0.90743 0.50876 0.87172 0.0
O192 O 0.91482 0.48915 0.65616 0.0
O193 O 0.92887 0.48866 0.69253 0.0
O194 O 0.92261 0.5272 0.79675 0.0
O195 O 0.93709 0.52412 0.71622 0.0
C196 C 0.95892 0.49189 0.68427 0.0
O197 O 0.95562 0.50733 0.73814 0.0
O198 O 0.95261 0.47611 0.67498 0.0
C199 C 0.93772 0.49551 0.94279 0.0
Tb200 Tb 0.29068 0.49033 0.56539 0.0
C201 C 0.30076 0.446 0.50499 0.0
Tb202 Tb 0.31326 0.49011 0.52677 0.0
O203 O 0.28609 0.49288 0.41986 0.0
O204 O 0.30025 0.49315 0.45477 0.0
O205 O 0.29334 0.45489 0.54902 0.0
C206 C 0.33059 0.48891 0.45259 0.0
O207 O 0.30848 0.45748 0.47999 0.0
C208 C 0.3092 0.48652 0.70587 0.0
C209 C 0.30295 0.53479 0.57874 0.0
O210 O 0.32624 0.47218 0.49037 0.0
O211 O 0.32511 0.50642 0.45512 0.0
O212 O 0.31782 0.48696 0.67236 0.0
O213 O 0.3037 0.48759 0.63757 0.0
O214 O 0.31032 0.52563 0.53491 0.0
O215 O 0.29533 0.5234 0.607 0.0
C216 C 0.27374 0.49094 0.64711 0.0
O217 O 0.27691 0.50604 0.59096 0.0
O218 O 0.28013 0.47538 0.65761 0.0
C219 C 0.29472 0.49377 0.38647 0.0
Tb220 Tb 0.94206 0.74154 0.56615 0.0
C221 C 0.9319 0.78586 0.5042 0.0
Tb222 Tb 0.91951 0.74153 0.52629 0.0
O223 O 0.94669 0.7384 0.42065 0.0
O224 O 0.93255 0.73847 0.45503 0.0
O225 O 0.93932 0.77702 0.5486 0.0
C226 C 0.9021 0.74176 0.4535 0.0
O227 O 0.92419 0.77429 0.47925 0.0
C228 C 0.92351 0.74516 0.70587 0.0
C229 C 0.9298 0.6973 0.58189 0.0
O230 O 0.90637 0.75881 0.48968 0.0
O231 O 0.90773 0.72452 0.45639 0.0
O232 O 0.91491 0.74439 0.67214 0.0
O233 O 0.929 0.74439 0.63747 0.0
O234 O 0.92276 0.7061 0.53219 0.0
O235 O 0.93719 0.70896 0.61355 0.0
C236 C 0.95903 0.74112 0.64719 0.0
O237 O 0.95578 0.7257 0.59304 0.0
O238 O 0.95271 0.7569 0.65612 0.0
C239 C 0.93808 0.73759 0.38689 0.0
Tb240 Tb 0.66826 0.24262 0.29204 0.0
C241 C 0.67884 0.28705 0.34192 0.0
Tb242 Tb 0.69091 0.24225 0.32888 0.0
O243 O 0.66386 0.2399 0.4383 0.0
O244 O 0.67792 0.23977 0.40155 0.0
O245 O 0.67141 0.27801 0.29851 0.0
C246 C 0.7079 0.24209 0.40941 0.0
O247 O 0.68642 0.27551 0.37031 0.0
C248 C 0.68668 0.2459 0.15066 0.0
C249 C 0.68053 0.19822 0.26846 0.0
O250 O 0.70481 0.25738 0.35375 0.0
O251 O 0.70141 0.22679 0.42014 0.0
O252 O 0.69535 0.24484 0.18291 0.0
O253 O 0.68123 0.24525 0.21947 0.0
O254 O 0.68806 0.20689 0.31165 0.0
O255 O 0.67282 0.2099 0.24456 0.0
C256 C 0.65081 0.24179 0.22058 0.0
O257 O 0.65514 0.22502 0.25838 0.0
O258 O 0.65638 0.25914 0.22134 0.0
C259 C 0.67252 0.2391 0.47056 0.0
Tb260 Tb 0.06373 0.492 0.28569 0.0
C261 C 0.05329 0.44754 0.33739 0.0
Tb262 Tb 0.04108 0.49216 0.32255 0.0
O263 O 0.06812 0.4948 0.43193 0.0
O264 O 0.05406 0.49482 0.39517 0.0
O265 O 0.0607 0.45658 0.29391 0.0
C266 C 0.02408 0.49177 0.40292 0.0
O267 O 0.04565 0.45902 0.36492 0.0
C268 C 0.04532 0.48849 0.14435 0.0
C269 C 0.05139 0.5363 0.26226 0.0
O270 O 0.02728 0.47656 0.34749 0.0
O271 O 0.03046 0.50734 0.41342 0.0
O272 O 0.03664 0.4895 0.17659 0.0
O273 O 0.05076 0.48919 0.21318 0.0
O274 O 0.04387 0.52757 0.30546 0.0
O275 O 0.05911 0.52467 0.23819 0.0
C276 C 0.08118 0.49268 0.21434 0.0
O277 O 0.07696 0.50936 0.25404 0.0
O278 O 0.07549 0.47555 0.21305 0.0
C279 C 0.05946 0.49554 0.46419 0.0
Tb280 Tb 0.66905 0.49396 0.54759 0.0
C281 C 0.67961 0.44955 0.49597 0.0
Tb282 Tb 0.69174 0.49434 0.51066 0.0
O283 O 0.66471 0.49621 0.4011 0.0
O284 O 0.67875 0.49666 0.43825 0.0
O285 O 0.67209 0.45856 0.53814 0.0
C286 C 0.70875 0.49419 0.43011 0.0
O287 O 0.68727 0.46105 0.46938 0.0
C288 C 0.6875 0.49086 0.68885 0.0
C289 C 0.6813 0.53845 0.56976 0.0
O290 O 0.70563 0.47906 0.48633 0.0
O291 O 0.70227 0.50954 0.41891 0.0
O292 O 0.69618 0.49182 0.6566 0.0
O293 O 0.68205 0.49154 0.62007 0.0
O294 O 0.68885 0.52971 0.52705 0.0
O295 O 0.67357 0.52683 0.59372 0.0
C296 C 0.65152 0.49453 0.61742 0.0
O297 O 0.65541 0.51047 0.5702 0.0
O298 O 0.6576 0.47826 0.62726 0.0
C299 C 0.67337 0.49709 0.36905 0.0
Tb300 Tb 0.06326 0.24074 0.5463 0.0
C301 C 0.05277 0.28524 0.49497 0.0
Tb302 Tb 0.0406 0.24065 0.50952 0.0
O303 O 0.06764 0.2378 0.40005 0.0
O304 O 0.05358 0.23788 0.43689 0.0
O305 O 0.0602 0.27619 0.53831 0.0
C306 C 0.02361 0.24089 0.42888 0.0
O307 O 0.04516 0.27374 0.46715 0.0
C308 C 0.04485 0.24441 0.68767 0.0
C309 C 0.05085 0.19655 0.57096 0.0
O310 O 0.02678 0.25614 0.4843 0.0
O311 O 0.03003 0.22538 0.41854 0.0
O312 O 0.03617 0.24341 0.65548 0.0
O313 O 0.05029 0.24367 0.61882 0.0
O314 O 0.04336 0.20528 0.52726 0.0
O315 O 0.0586 0.20813 0.59463 0.0
C316 C 0.08075 0.23995 0.61702 0.0
O317 O 0.07644 0.2232 0.57897 0.0
O318 O 0.07513 0.25723 0.61709 0.0
C319 C 0.05898 0.2371 0.36783 0.0
Tb320 Tb 0.79065 0.24203 0.75793 0.0
C321 C 0.80097 0.28601 0.81926 0.0
Tb322 Tb 0.81332 0.24171 0.79479 0.0
O323 O 0.78623 0.23949 0.90397 0.0
O324 O 0.80034 0.2388 0.86716 0.0
O325 O 0.79349 0.27735 0.77531 0.0
C326 C 0.8308 0.24221 0.86557 0.0
O327 O 0.80869 0.27436 0.8432 0.0
C328 C 0.80904 0.2455 0.61634 0.0
C329 C 0.80277 0.19733 0.74232 0.0
O330 O 0.82661 0.25891 0.82585 0.0
O331 O 0.82507 0.22516 0.86729 0.0
O332 O 0.8177 0.24474 0.64859 0.0
O333 O 0.80364 0.24462 0.68536 0.0
O334 O 0.81025 0.20628 0.78529 0.0
O335 O 0.79514 0.20889 0.71536 0.0
C336 C 0.77365 0.24216 0.67755 0.0
O337 O 0.77676 0.22686 0.73313 0.0
O338 O 0.78014 0.25748 0.66684 0.0
C339 C 0.79491 0.23833 0.93613 0.0
Tb340 Tb 0.44158 0.99072 0.75811 0.0
C341 C 0.43109 0.94687 0.81849 0.0
Tb342 Tb 0.41892 0.99148 0.79507 0.0
O343 O 0.44602 -0.00693 0.90414 0.0
O344 O 0.43191 -0.00592 0.86742 0.0
O345 O 0.43861 0.95543 0.77495 0.0
C346 C 0.40146 0.99102 0.86635 0.0
O347 O 0.42341 0.95866 0.84268 0.0
C348 C 0.42318 0.98772 0.61659 0.0
C349 C 0.42962 0.03568 0.74318 0.0
O350 O 0.40567 0.97427 0.82721 0.0
O351 O 0.40717 0.00813 0.86712 0.0
O352 O 0.41452 0.98864 0.64887 0.0
O353 O 0.42858 0.98845 0.68558 0.0
O354 O 0.42212 0.02685 0.78623 0.0
O355 O 0.43721 0.02399 0.71603 0.0
C356 C 0.45855 0.99043 0.67713 0.0
O357 O 0.45551 0.0057 0.73312 0.0
O358 O 0.45202 0.9752 0.66644 0.0
C359 C 0.43735 -0.0056 0.93635 0.0
Tb360 Tb 0.79065 0.99059 0.57067 0.0
C361 C 0.8008 0.94627 0.51027 0.0
Tb362 Tb 0.81323 0.99042 0.53214 0.0
O363 O 0.78606 -0.00688 0.42519 0.0
O364 O 0.80023 -0.00668 0.46 0.0
O365 O 0.79336 0.95514 0.55412 0.0
C366 C 0.83064 0.98949 0.45976 0.0
O367 O 0.80852 0.95778 0.48528 0.0
C368 C 0.80916 0.98695 0.71128 0.0
C369 C 0.80292 0.03511 0.58337 0.0
O370 O 0.82635 0.97279 0.49842 0.0
O371 O 0.82504 0.0068 0.46006 0.0
O372 O 0.81778 0.9874 0.67783 0.0
O373 O 0.80367 0.98799 0.64294 0.0
O374 O 0.81029 0.0259 0.53965 0.0
O375 O 0.79529 0.02376 0.61169 0.0
C376 C 0.77373 0.99106 0.65265 0.0
O377 O 0.77684 0.00615 0.59621 0.0
O378 O 0.78016 0.9756 0.66328 0.0
C379 C 0.79469 -0.00603 0.39177 0.0
Tb380 Tb 0.44169 0.24163 0.55217 0.0
C381 C 0.43134 0.28559 0.49004 0.0
Tb382 Tb 0.41904 0.24136 0.51548 0.0
O383 O 0.44611 0.23899 0.40616 0.0
O384 O 0.43201 0.23818 0.4431 0.0
O385 O 0.43885 0.27699 0.5339 0.0
C386 C 0.40157 0.24174 0.44473 0.0
O387 O 0.42364 0.27388 0.46624 0.0
C388 C 0.42332 0.24543 0.69381 0.0
C389 C 0.42947 0.19706 0.56999 0.0
O390 O 0.40576 0.25853 0.48368 0.0
O391 O 0.4073 0.22466 0.44374 0.0
O392 O 0.41466 0.24466 0.66161 0.0
O393 O 0.42872 0.24444 0.62478 0.0
O394 O 0.42204 0.20597 0.52631 0.0
O395 O 0.43714 0.20859 0.59611 0.0
C396 C 0.45868 0.24127 0.6327 0.0
O397 O 0.4555 0.22607 0.57707 0.0
O398 O 0.45228 0.25681 0.6432 0.0
C399 C 0.43743 0.23775 0.37407 0.0
Tb400 Tb 0.16933 0.74185 0.28325 0.0
C401 C 0.17993 0.78614 0.33479 0.0
Tb402 Tb 0.192 0.74136 0.31999 0.0
O403 O 0.16495 0.73914 0.42952 0.0
O404 O 0.17901 0.7389 0.39265 0.0
O405 O 0.17247 0.77723 0.29144 0.0
C406 C 0.20907 0.74165 0.39934 0.0
O407 O 0.18752 0.77453 0.3624 0.0
C408 C 0.18775 0.74504 0.14179 0.0
C409 C 0.18158 0.69736 0.26035 0.0
O410 O 0.20585 0.75686 0.34401 0.0
O411 O 0.20266 0.72616 0.41044 0.0
O412 O 0.19642 0.74388 0.17394 0.0
O413 O 0.18231 0.74446 0.21068 0.0
O414 O 0.18911 0.70601 0.30367 0.0
O415 O 0.17389 0.70908 0.236 0.0
C416 C 0.15184 0.74125 0.21257 0.0
O417 O 0.15606 0.72457 0.25207 0.0
O418 O 0.15755 0.75835 0.21099 0.0
C419 C 0.17361 0.73827 0.46171 0.0
Tb420 Tb 0.56318 0.99134 0.27501 0.0
C421 C 0.5527 0.94682 0.32681 0.0
Tb422 Tb 0.5406 0.99156 0.31322 0.0
O423 O 0.56771 -0.00571 0.42071 0.0
O424 O 0.55361 -0.00592 0.38561 0.0
O425 O 0.56012 0.95584 0.28317 0.0
C426 C 0.52369 -0.00835 0.39543 0.0
O427 O 0.54511 0.95837 0.35482 0.0
C428 C 0.54463 0.98789 0.13444 0.0
C429 C 0.55082 0.03573 0.25238 0.0
O430 O 0.52672 0.97641 0.33924 0.0
O431 O 0.53019 0.00695 0.40566 0.0
O432 O 0.536 0.98884 0.16785 0.0
O433 O 0.55018 0.98867 0.20258 0.0
O434 O 0.54336 0.02694 0.29605 0.0
O435 O 0.55855 0.02414 0.22803 0.0
C436 C 0.58065 -0.00761 0.20364 0.0
O437 O 0.57624 0.00912 0.24091 0.0
O438 O 0.57512 0.97495 0.20463 0.0
C439 C 0.5591 -0.00506 0.45404 0.0
Tb440 Tb 0.16889 -0.00749 0.54823 0.0
C441 C 0.1794 0.94814 0.49664 0.0
Tb442 Tb 0.19148 -0.00706 0.50985 0.0
O443 O 0.16434 -0.00478 0.40252 0.0
O444 O 0.17845 -0.00478 0.43748 0.0
O445 O 0.172 0.95713 0.54055 0.0
C446 C 0.20847 -0.00764 0.42923 0.0
O447 O 0.18697 0.9597 0.46835 0.0
C448 C 0.18745 0.98943 0.68872 0.0
C449 C 0.18109 0.03704 0.56933 0.0
O450 O 0.20528 0.97729 0.4853 0.0
O451 O 0.20208 0.0079 0.41812 0.0
O452 O 0.19607 0.99047 0.65533 0.0
O453 O 0.18191 0.99007 0.62051 0.0
O454 O 0.1886 0.02835 0.52586 0.0
O455 O 0.17343 0.02534 0.59437 0.0
C456 C 0.15149 -0.00713 0.62071 0.0
O457 O 0.15561 0.00961 0.5807 0.0
O458 O 0.15725 0.97586 0.62174 0.0
C459 C 0.17295 -0.00405 0.36911 0.0
Tb460 Tb 0.56355 0.74144 0.56096 0.0
C461 C 0.5531 0.78561 0.50494 0.0
Tb462 Tb 0.5409 0.74102 0.5246 0.0
O463 O 0.5679 0.73805 0.4148 0.0
O464 O 0.55386 0.73789 0.45198 0.0
O465 O 0.56053 0.77683 0.54924 0.0
C466 C 0.5239 0.74114 0.44412 0.0
O467 O 0.54545 0.77397 0.47918 0.0
C468 C 0.54516 0.74551 0.70246 0.0
C469 C 0.55124 0.69728 0.59006 0.0
O470 O 0.52706 0.75643 0.49936 0.0
O471 O 0.53032 0.72562 0.43397 0.0
O472 O 0.53649 0.74423 0.67043 0.0
O473 O 0.55059 0.74473 0.63347 0.0
O474 O 0.5437 0.7057 0.54589 0.0
O475 O 0.55896 0.70909 0.61232 0.0
C476 C 0.58104 0.74079 0.63118 0.0
O477 O 0.57673 0.72398 0.59355 0.0
O478 O 0.57542 0.75807 0.63108 0.0
C479 C 0.55924 0.73707 0.38277 0.0
Tb480 Tb 0.79121 0.74206 0.25858 0.0
C481 C 0.80157 0.78597 0.31973 0.0
Tb482 Tb 0.81387 0.74159 0.29528 0.0
O483 O 0.78679 0.73964 0.40464 0.0
O484 O 0.8009 0.73871 0.36776 0.0
O485 O 0.79408 0.77738 0.27582 0.0
C486 C 0.83138 0.74239 0.36565 0.0
O487 O 0.80927 0.77424 0.34376 0.0
C488 C 0.8096 0.74543 0.11685 0.0
C489 C 0.80326 0.69726 0.24396 0.0
O490 O 0.82702 0.75917 0.32823 0.0
O491 O 0.82579 0.72506 0.36532 0.0
O492 O 0.81825 0.74461 0.14908 0.0
O493 O 0.8042 0.74459 0.18586 0.0
O494 O 0.81073 0.70618 0.28717 0.0
O495 O 0.79568 0.70888 0.21629 0.0
C496 C 0.77419 0.74191 0.17859 0.0
O497 O 0.77736 0.72668 0.23416 0.0
O498 O 0.78063 0.75734 0.16767 0.0
C499 C 0.79547 0.73835 0.43675 0.0
Tb500 Tb 0.44081 0.48971 0.24678 0.0
C501 C 0.43012 0.44584 0.29927 0.0
Tb502 Tb 0.41889 0.49133 0.28211 0.0
O503 O 0.44576 0.49415 0.39051 0.0
O504 O 0.43153 0.49422 0.358 0.0
O505 O 0.43742 0.45442 0.25274 0.0
C506 C 0.40091 0.48836 0.33943 0.0
O507 O 0.4227 0.45792 0.32717 0.0
C508 C 0.4241 0.49316 0.10755 0.0
C509 C 0.42985 0.536 0.25144 0.0
O510 O 0.40496 0.47506 0.28083 0.0
O511 O 0.40702 0.50322 0.36696 0.0
O512 O 0.41627 0.50157 0.14033 0.0
O513 O 0.42816 0.48211 0.17061 0.0
O514 O 0.42226 0.52652 0.28997 0.0
O515 O 0.4374 0.52458 0.22202 0.0
C516 C 0.45769 0.48871 0.16287 0.0
O517 O 0.45065 0.50183 0.14123 0.0
O518 O 0.45519 0.47607 0.23113 0.0
C519 C 0.43719 0.49539 0.42498 0.0
Tb520 Tb 0.79105 0.49046 0.07089 0.0
C521 C 0.80135 0.44628 1.01053 0.0
Tb522 Tb 0.81371 0.49049 1.03389 0.0
O523 O 0.78662 0.49289 0.92483 0.0
O524 O 0.80074 0.4935 0.96157 0.0
O525 O 0.79385 0.45503 0.05393 0.0
C526 C 0.83117 0.48972 0.96263 0.0
O527 O 0.80906 0.45788 0.98617 0.0
C528 C 0.80944 0.48687 0.2124 0.0
C529 C 0.80329 0.53504 0.08514 0.0
O530 O 0.82688 0.47296 1.00092 0.0
O531 O 0.82555 0.50699 0.96268 0.0
O532 O 0.8181 0.48748 0.18008 0.0
O533 O 0.80404 0.4878 0.14345 0.0
O534 O 0.8107 0.52591 0.04175 0.0
O535 O 0.79564 0.52363 0.11269 0.0
C536 C 0.77406 0.49082 0.15163 0.0
O537 O 0.77721 0.50594 0.0955 0.0
O538 O 0.78049 0.47537 0.1626 0.0
C539 C 0.7953 0.49396 0.89263 0.0
Tb540 Tb 0.44238 0.74261 0.06882 0.0
C541 C 0.43191 0.78646 1.00809 0.0
Tb542 Tb 0.41971 0.74193 1.03189 0.0
O543 O 0.44679 0.74024 0.92267 0.0
O544 O 0.4327 0.73904 0.95969 0.0
O545 O 0.43942 0.77791 0.05202 0.0
C546 C 0.40224 0.74216 0.96061 0.0
O547 O 0.42424 0.77468 0.98376 0.0
C548 C 0.42397 0.74596 0.21026 0.0
C549 C 0.43035 0.69782 0.08674 0.0
O550 O 0.40637 0.75892 1.00044 0.0
O551 O 0.40803 0.7252 0.95907 0.0
O552 O 0.41531 0.74502 0.17801 0.0
O553 O 0.42937 0.74513 0.14125 0.0
O554 O 0.42285 0.70655 0.04319 0.0
O555 O 0.43795 0.70955 0.11287 0.0
C556 C 0.45939 0.74237 0.14897 0.0
O557 O 0.45623 0.72718 0.09323 0.0
O558 O 0.45297 0.75784 0.15979 0.0
C559 C 0.43812 0.73882 0.89059 0.0
Tb560 Tb 0.16881 0.2417 0.78278 0.0
C561 C 0.17929 0.2861 0.83549 0.0
Tb562 Tb 0.19139 0.24143 0.82101 0.0
O563 O 0.16427 0.23876 0.92847 0.0
O564 O 0.17838 0.23891 0.8934 0.0
O565 O 0.17186 0.27715 0.79178 0.0
C566 C 0.20836 0.24178 0.90184 0.0
O567 O 0.18686 0.27452 0.86339 0.0
C568 C 0.18735 0.24511 0.64222 0.0
C569 C 0.18117 0.19734 0.7601 0.0
O570 O 0.20519 0.25697 0.84618 0.0
O571 O 0.20196 0.22626 0.91241 0.0
O572 O 0.19598 0.24413 0.67557 0.0
O573 O 0.18181 0.24437 0.71044 0.0
O574 O 0.18862 0.20607 0.80422 0.0
O575 O 0.17346 0.20895 0.73558 0.0
C576 C 0.15139 0.24113 0.71062 0.0
O577 O 0.15558 0.22443 0.75039 0.0
O578 O 0.1571 0.25823 0.70963 0.0
C579 C 0.17289 0.23807 0.96182 0.0
Tb580 Tb 0.56349 0.4912 0.78839 0.0
C581 C 0.55162 0.44688 0.81754 0.0
Tb582 Tb 0.54089 0.4932 0.82484 0.0
O583 O 0.56792 0.49474 0.93424 0.0
O584 O 0.55388 0.49582 0.89758 0.0
O585 O 0.55928 0.4563 0.77939 0.0
C586 C 0.52398 0.4945 0.90801 0.0
O587 O 0.54406 0.45823 0.84725 0.0
C588 C 0.54503 0.48805 0.64697 0.0
C589 C 0.55249 0.53717 0.7843 0.0
O590 O 0.53071 0.4802 0.92526 0.0
O591 O 0.52679 0.50818 0.84436 0.0
O592 O 0.53637 0.48934 0.6795 0.0
O593 O 0.5505 0.48886 0.71556 0.0
O594 O 0.54503 0.5282 0.8276 0.0
O595 O 0.55995 0.52545 0.75438 0.0
C596 C 0.58095 0.48854 0.71677 0.0
O597 O 0.57519 0.50536 0.70737 0.0
O598 O 0.5768 0.47313 0.7648 0.0
C599 C 0.55929 0.49633 0.96662 0.0
Tb600 Tb 0.16925 0.49276 0.05234 0.0
C601 C 0.17943 0.448 0.99968 0.0
Tb602 Tb 0.1919 0.49216 1.01543 0.0
O603 O 0.16487 0.49585 0.90614 0.0
O604 O 0.17893 0.49531 0.94289 0.0
O605 O 0.17206 0.45725 0.04335 0.0
C606 C 0.20887 0.49155 0.93462 0.0
O607 O 0.18713 0.45924 0.97247 0.0
C608 C 0.18763 0.48855 0.19365 0.0
C609 C 0.18185 0.53662 0.07595 0.0
O610 O 0.20565 0.47635 0.99002 0.0
O611 O 0.20252 0.5072 0.92442 0.0
O612 O 0.19632 0.48927 0.16139 0.0
O613 O 0.1822 0.48946 0.12481 0.0
O614 O 0.1893 0.52764 1.03259 0.0
O615 O 0.17406 0.52527 0.10007 0.0
C616 C 0.15181 0.49384 0.12386 0.0
O617 O 0.15611 0.51047 0.0848 0.0
O618 O 0.15741 0.47653 0.12442 0.0
C619 C 0.17354 0.49627 0.87387 0.0
Tb620 Tb 0.563 0.24115 0.04079 0.0
C621 C 0.55235 0.28508 0.98383 0.0
Tb622 Tb 0.54035 0.24026 1.0041 0.0
O623 O 0.56741 0.23816 0.89469 0.0
O624 O 0.55335 0.23767 0.9316 0.0
O625 O 0.55984 0.27648 1.0279 0.0
C626 C 0.52331 0.24029 0.92464 0.0
O627 O 0.54474 0.27327 0.95851 0.0
C628 C 0.5446 0.24441 0.18223 0.0
C629 C 0.5509 0.19646 0.06509 0.0
O630 O 0.52649 0.2556 0.9797 0.0
O631 O 0.52974 0.22481 0.91404 0.0
O632 O 0.53593 0.24304 0.15012 0.0
O633 O 0.55003 0.24385 0.11324 0.0
O634 O 0.54333 0.20495 1.02181 0.0
O635 O 0.55857 0.20832 0.08873 0.0
C636 C 0.58041 0.24116 0.11315 0.0
O637 O 0.57641 0.22444 0.07181 0.0
O638 O 0.57453 0.25796 0.11539 0.0
C639 C 0.55875 0.23705 0.86252 0.0
H640 H 0.22216 0.27317 0.88095 0.0
H641 H 0.25985 0.20968 0.20128 0.0
H642 H 0.21616 0.21093 1.01735 0.0
H643 H 0.26585 0.27179 0.06393 0.0
H644 H 0.24381 0.20977 0.13439 0.0
H645 H 0.23818 0.27307 0.94808 0.0
C646 C 0.22423 0.2595 0.9253 0.0
C647 C 0.2179 0.242 0.94384 0.0
C648 C 0.24862 0.22338 0.11874 0.0
C649 C 0.23616 0.24173 1.02052 0.0
C650 C 0.25777 0.22332 0.15679 0.0
C651 C 0.26411 0.24078 0.13789 0.0
C652 C 0.24584 0.24105 0.06149 0.0
C653 C 0.26112 0.25805 0.08003 0.0
C654 C 0.23337 0.25943 0.96348 0.0
C655 C 0.22088 0.2247 1.00154 0.0
N656 N 0.25217 0.25777 0.04381 0.0
N657 N 0.22984 0.22497 1.03791 0.0
H658 H 0.01022 0.96025 0.88539 0.0
H659 H 0.97202 0.02397 0.19947 0.0
H660 H 0.01593 0.02285 1.01999 0.0
H661 H 0.96648 0.96095 0.06752 0.0
H662 H 0.98811 0.02403 0.1336 0.0
H663 H -0.00585 0.96021 0.95165 0.0
C664 C 0.00807 0.97397 0.92918 0.0
C665 C 0.01435 0.9916 0.94744 0.0
C666 C 0.98338 0.01019 0.11892 0.0
C667 C -0.00397 -0.00828 1.02314 0.0
C668 C 0.97421 0.01016 0.15637 0.0
C669 C 0.96798 -0.00759 0.1387 0.0
C670 C 0.98632 -0.00769 0.06348 0.0
C671 C 0.97111 0.97493 0.08264 0.0
C672 C -0.00109 0.97395 0.96688 0.0
C673 C 0.01127 0.00897 1.00441 0.0
N674 N 0.9801 0.9753 0.04694 0.0
N675 N 0.00229 0.00861 0.04029 0.0
H676 H 0.2222 0.96082 0.45107 0.0
H677 H 0.25998 0.02263 0.1261 0.0
H678 H 0.21635 0.02283 0.31224 0.0
H679 H 0.26575 0.96057 0.26482 0.0
H680 H 0.24398 0.02312 0.19399 0.0
H681 H 0.23818 0.96041 0.38315 0.0
C682 C 0.2243 0.97434 0.40604 0.0
C683 C 0.21801 -0.00809 0.38703 0.0
C684 C 0.24873 0.00939 0.2097 0.0
C685 C 0.23624 0.99159 0.30935 0.0
C686 C 0.25786 0.00912 0.17108 0.0
C687 C 0.26413 0.99151 0.19008 0.0
C688 C 0.24589 -0.00809 0.26767 0.0
C689 C 0.26108 0.97442 0.24859 0.0
C690 C 0.23342 0.97411 0.36739 0.0
C691 C 0.22103 0.00901 0.32845 0.0
N692 N 0.25215 0.97503 0.28539 0.0
N693 N 0.22996 0.00844 0.2916 0.0
H694 H 0.00982 0.27236 0.44832 0.0
H695 H 0.97226 0.20872 0.1271 0.0
H696 H 0.01587 0.20995 0.31348 0.0
H697 H 0.96643 0.27163 0.25882 0.0
H698 H 0.98823 0.20866 0.19568 0.0
H699 H -0.00614 0.27234 0.37969 0.0
C700 C 0.00777 0.25867 0.40403 0.0
C701 C 0.0141 0.24111 0.38634 0.0
C702 C 0.98347 0.22248 0.20969 0.0
C703 C -0.00409 0.24092 0.30789 0.0
C704 C 0.97436 0.2225 0.17069 0.0
C705 C 0.96809 0.24022 0.18753 0.0
C706 C 0.98628 0.24032 0.26587 0.0
C707 C 0.9711 0.25768 0.24429 0.0
C708 C -0.00133 0.25865 0.36496 0.0
C709 C 0.01115 0.22377 0.32867 0.0
N710 N 0.98002 0.2573 0.28151 0.0
N711 N 0.00223 0.22409 0.29142 0.0
H712 H 0.72271 0.77475 0.88031 0.0
H713 H 0.76031 0.71074 0.20002 0.0
H714 H 0.71666 0.71244 1.01595 0.0
H715 H 0.76645 0.77284 0.06312 0.0
H716 H 0.74427 0.71105 0.13311 0.0
H717 H 0.73875 0.7745 0.94741 0.0
C718 C 0.72478 0.76104 0.92447 0.0
C719 C 0.71842 0.74357 0.94281 0.0
C720 C 0.74912 0.72461 0.11756 0.0
C721 C 0.73669 0.74312 1.01945 0.0
C722 C 0.75826 0.72442 0.15562 0.0
C723 C 0.76465 0.74181 0.13686 0.0
C724 C 0.74637 0.74233 0.06042 0.0
C725 C 0.76169 0.75914 0.07911 0.0
C726 C 0.73392 0.76088 0.96263 0.0
C727 C 0.7214 0.7262 1.00027 0.0
N728 N 0.75273 0.75898 0.04286 0.0
N729 N 0.73035 0.72639 1.03662 0.0
H730 H 0.76616 0.96059 0.77109 0.0
H731 H 0.71604 0.02477 0.81425 0.0
H732 H 0.75982 0.02223 0.6315 0.0
H733 H 0.72244 0.96312 0.95361 0.0
H734 H 0.73208 0.0242 0.74605 0.0
H735 H 0.75014 0.96127 0.83951 0.0
C736 C 0.76138 0.97426 0.75509 0.0
C737 C 0.76424 0.99136 0.69579 0.0
C738 C 0.72997 0.01079 0.79153 0.0
C739 C 0.746 -0.00771 0.77308 0.0
C740 C 0.72084 0.01113 0.83026 0.0
C741 C 0.71798 -0.00601 0.88941 0.0
C742 C 0.73625 -0.00682 0.81238 0.0
C743 C 0.72441 0.97666 0.90822 0.0
C744 C 0.75225 0.97466 0.79396 0.0
C745 C 0.75784 0.00873 0.67702 0.0
N746 N 0.73326 0.9767 0.86983 0.0
N747 N 0.74899 0.00875 0.71552 0.0
H748 H 0.97274 0.70936 0.6291 0.0
H749 H 0.01041 0.77315 0.94854 0.0
H750 H 0.96691 0.7723 0.7606 0.0
H751 H 0.01637 0.71062 0.81427 0.0
H752 H -0.00557 0.77317 0.88025 0.0
H753 H 0.98873 0.70939 0.69707 0.0
C754 C 0.97484 0.72317 0.67254 0.0
C755 C 0.96856 0.74087 0.68948 0.0
C756 C -0.00077 0.75945 0.86556 0.0
C757 C 0.98679 0.74107 0.76714 0.0
C758 C 0.00834 0.75944 0.90442 0.0
C759 C 0.01466 0.74184 0.88681 0.0
C760 C -0.00356 0.74169 0.80881 0.0
C761 C 0.01167 0.72448 0.82938 0.0
C762 C 0.98396 0.7232 0.71119 0.0
C763 C 0.97159 0.75836 0.74602 0.0
N764 N 0.00274 0.72483 0.79238 0.0
N765 N 0.98052 0.75804 0.78291 0.0
H766 H 0.22289 0.77296 0.3771 0.0
H767 H 0.2608 0.70946 0.69532 0.0
H768 H 0.21696 0.7108 0.5144 0.0
H769 H 0.2667 0.77166 0.55823 0.0
H770 H 0.24473 0.70953 0.629 0.0
H771 H 0.23897 0.77282 0.44299 0.0
C772 C 0.22499 0.75929 0.42138 0.0
C773 C 0.21865 0.74184 0.44053 0.0
C774 C 0.24953 0.72316 0.61326 0.0
C775 C 0.23699 0.74152 0.51584 0.0
C776 C 0.25869 0.72311 0.65097 0.0
C777 C 0.26502 0.7406 0.63203 0.0
C778 C 0.2467 0.74084 0.55627 0.0
C779 C 0.26199 0.75788 0.57437 0.0
C780 C 0.23416 0.75921 0.45885 0.0
C781 C 0.22168 0.72454 0.4981 0.0
N782 N 0.25302 0.75759 0.53847 0.0
N783 N 0.23067 0.7248 0.53379 0.0
H784 H 0.9726 0.52363 0.70328 0.0
H785 H 0.01034 0.46021 0.38296 0.0
H786 H 0.96684 0.46081 0.57064 0.0
H787 H 0.01625 0.52261 0.51836 0.0
H788 H -0.00565 0.46012 0.45114 0.0
H789 H 0.98861 0.52369 0.63548 0.0
C790 C 0.97473 0.50986 0.65965 0.0
C791 C 0.96846 0.49217 0.64231 0.0
C792 C -0.00086 0.47383 0.46609 0.0
C793 C 0.98669 0.49208 0.56483 0.0
C794 C 0.00825 0.47388 0.42728 0.0
C795 C 0.01456 0.49147 0.44524 0.0
C796 C -0.00366 0.49152 0.52317 0.0
C797 C 0.01156 0.50877 0.50295 0.0
C798 C 0.98385 0.50989 0.62109 0.0
C799 C 0.9715 0.47474 0.58554 0.0
N800 N 0.00263 0.50838 0.53993 0.0
N801 N 0.98044 0.47512 0.54872 0.0
H802 H 0.25996 0.52242 0.62684 0.0
H803 H 0.22263 0.45998 0.95465 0.0
H804 H 0.26604 0.46037 0.76441 0.0
H805 H 0.21662 0.52217 0.81791 0.0
H806 H 0.23856 0.45971 0.88513 0.0
H807 H 0.24404 0.52266 0.69641 0.0
C808 C 0.25792 0.50886 0.67193 0.0
C809 C 0.26426 0.49133 0.69013 0.0
C810 C 0.23377 0.47342 0.87021 0.0
C811 C 0.24611 0.49145 0.76965 0.0
C812 C 0.22469 0.47356 0.90977 0.0
C813 C 0.21837 0.49114 0.89179 0.0
C814 C 0.23651 0.491 0.81233 0.0
C815 C 0.22132 0.50833 0.83336 0.0
C816 C 0.24885 0.50899 0.71152 0.0
C817 C 0.26132 0.47417 0.74881 0.0
N818 N 0.23021 0.50785 0.79563 0.0
N819 N 0.25243 0.47464 0.78657 0.0
H820 H 0.76608 0.27318 0.56154 0.0
H821 H 0.71547 0.21105 0.5254 0.0
H822 H 0.7596 0.21142 0.69955 0.0
H823 H 0.72197 0.27279 0.38731 0.0
H824 H 0.73163 0.21089 0.59068 0.0
H825 H 0.74993 0.27331 0.49618 0.0
C826 C 0.76124 0.25965 0.5778 0.0
C827 C 0.76411 0.24229 0.63582 0.0
C828 C 0.72952 0.22449 0.54616 0.0
C829 C 0.7457 0.24229 0.56207 0.0
C830 C 0.72031 0.22457 0.50911 0.0
C831 C 0.71745 0.24194 0.4511 0.0
C832 C 0.73586 0.2419 0.52476 0.0
C833 C 0.72394 0.2591 0.43187 0.0
C834 C 0.75204 0.25972 0.54071 0.0
C835 C 0.75762 0.22512 0.655 0.0
N836 N 0.73287 0.25864 0.46858 0.0
N837 N 0.7487 0.22556 0.61824 0.0
H838 H 0.71633 0.52464 0.31145 0.0
H839 H 0.76646 0.46042 0.27025 0.0
H840 H 0.7227 0.46321 0.45248 0.0
H841 H 0.76013 0.52192 0.1295 0.0
H842 H 0.75042 0.46116 0.33836 0.0
H843 H 0.73237 0.52397 0.24342 0.0
C844 C 0.72112 0.51103 0.32789 0.0
C845 C 0.71826 0.49398 0.38745 0.0
C846 C 0.75254 0.4745 0.2926 0.0
C847 C 0.73653 0.49305 0.31057 0.0
C848 C 0.76168 0.47407 0.2539 0.0
C849 C 0.76455 0.49111 0.19438 0.0
C850 C 0.74629 0.49211 0.27135 0.0
C851 C 0.75815 0.50846 0.17519 0.0
C852 C 0.73026 0.51063 0.28923 0.0
C853 C 0.72468 0.47668 0.40676 0.0
N854 N 0.74929 0.50851 0.21355 0.0
N855 N 0.73353 0.47666 0.36843 0.0
H856 H 0.46593 0.95964 0.55892 0.0
H857 H 0.51631 0.02243 0.51365 0.0
H858 H 0.47265 0.02109 0.6982 0.0
H859 H 0.50963 0.96087 0.37507 0.0
H860 H 0.50032 0.02224 0.58264 0.0
H861 H 0.48193 0.95978 0.49019 0.0
C862 C 0.47079 0.97315 0.57482 0.0
C863 C 0.46804 0.99035 0.63409 0.0
C864 C 0.50235 0.00876 0.53718 0.0
C865 C 0.48627 0.99068 0.55643 0.0
C866 C 0.51146 0.00888 0.49799 0.0
C867 C 0.51422 -0.00834 0.43882 0.0
C868 C 0.496 0.99129 0.51675 0.0
C869 C 0.50773 0.97446 0.42048 0.0
C870 C 0.47991 0.97324 0.53577 0.0
C871 C 0.47454 0.00751 0.65272 0.0
N872 N 0.4989 0.97471 0.4593 0.0
N873 N 0.48338 0.00724 0.61401 0.0
H874 H 0.47246 0.20978 0.61274 0.0
H875 H 0.50949 0.27164 0.9452 0.0
H876 H 0.46632 0.27173 0.75074 0.0
H877 H 0.51564 0.20966 0.8074 0.0
H878 H 0.49362 0.27196 0.87471 0.0
H879 H 0.4883 0.20933 0.6839 0.0
C880 C 0.47447 0.22328 0.6582 0.0
C881 C 0.46814 0.24084 0.67609 0.0
C882 C 0.49843 0.25828 0.85979 0.0
C883 C 0.48619 0.24048 0.75749 0.0
C884 C 0.50747 0.2581 0.89994 0.0
C885 C 0.51382 0.24058 0.88185 0.0
C886 C 0.49574 0.2408 0.80118 0.0
C887 C 0.51091 0.22344 0.82293 0.0
C888 C 0.4835 0.22302 0.69873 0.0
C889 C 0.47104 0.25792 0.73532 0.0
N890 N 0.50205 0.22397 0.78455 0.0
N891 N 0.47988 0.25733 0.774 0.0
H892 H 0.47322 0.711 0.12851 0.0
H893 H 0.51008 0.77255 0.46382 0.0
H894 H 0.467 0.77277 0.26756 0.0
H895 H 0.51629 0.71061 0.326 0.0
H896 H 0.49427 0.77299 0.39214 0.0
H897 H 0.48905 0.71053 0.2001 0.0
C898 C 0.47521 0.72446 0.17427 0.0
C899 C 0.46886 0.74197 0.19236 0.0
C900 C 0.49908 0.75929 0.37747 0.0
C901 C 0.48689 0.74158 0.27429 0.0
C902 C 0.50809 0.75904 0.41831 0.0
C903 C 0.51443 0.74149 0.4006 0.0
C904 C 0.49641 0.74185 0.31854 0.0
C905 C 0.51156 0.72441 0.34129 0.0
C906 C 0.48423 0.72419 0.21505 0.0
C907 C 0.47173 0.759 0.25197 0.0
N908 N 0.50273 0.725 0.30225 0.0
N909 N 0.48056 0.75839 0.29092 0.0
H910 H 0.51727 0.4661 1.03857 0.0
H911 H 0.46417 0.51641 1.02818 0.0
H912 H 0.50896 0.52189 0.86954 0.0
H913 H 0.47291 0.46243 0.20509 0.0
H914 H 0.48047 0.51831 0.96663 0.0
H915 H 0.50099 0.46439 0.1 0.0
C916 C 0.51201 0.47805 1.01485 0.0
C917 C 0.51439 0.49413 0.94907 0.0
C918 C 0.47882 0.50601 1.01876 0.0
C919 C 0.49581 0.49224 1.01818 0.0
C920 C 0.46953 0.50489 0.05357 0.0
C921 C 0.46726 0.48926 0.1216 0.0
C922 C 0.48584 0.49136 0.05237 0.0
C923 C 0.47441 0.47473 0.15258 0.0
C924 C 0.50272 0.47705 0.04969 0.0
C925 C 0.50736 0.50924 0.92032 0.0
N926 N 0.4834 0.47615 0.11776 0.0
N927 N 0.49835 0.50789 0.95495 0.0
H928 H 0.39045 0.20553 0.40528 0.0
H929 H 0.34238 0.2776 0.38308 0.0
H930 H 0.38947 0.27688 0.4374 0.0
H931 H 0.34241 0.20589 0.39764 0.0
H932 H 0.35977 0.2775 0.39727 0.0
H933 H 0.37294 0.20509 0.39083 0.0
C934 C 0.38655 0.2211 0.40785 0.0
C935 C 0.39134 0.24127 0.42253 0.0
C936 C 0.35599 0.26176 0.39814 0.0
C937 C 0.37146 0.2409 0.40761 0.0
C938 C 0.34607 0.26184 0.39053 0.0
C939 C 0.34102 0.24173 0.38932 0.0
C940 C 0.36089 0.2414 0.40373 0.0
C941 C 0.34609 0.22174 0.39879 0.0
C942 C 0.37658 0.22083 0.40056 0.0
C943 C 0.38601 0.26098 0.42621 0.0
N944 N 0.3558 0.22205 0.40491 0.0
N945 N 0.37634 0.2603 0.41907 0.0
H946 H 0.84242 0.95382 0.44746 0.0
H947 H 0.89002 0.02701 0.40633 0.0
H948 H 0.84202 0.02536 0.42233 0.0
H949 H 0.88942 0.95545 0.38227 0.0
H950 H 0.87254 0.02702 0.42395 0.0
H951 H 0.85978 0.95426 0.4298 0.0
C952 C 0.84601 0.96961 0.43701 0.0
C953 C 0.84085 0.98958 0.43619 0.0
C954 C 0.87625 0.01133 0.41525 0.0
C955 C 0.86069 0.99031 0.41774 0.0
C956 C 0.8862 0.01131 0.40611 0.0
C957 C 0.89109 0.9912 0.39287 0.0
C958 C 0.87124 0.99107 0.41152 0.0
C959 C 0.88588 0.97131 0.3923 0.0
C960 C 0.85591 0.96988 0.42738 0.0
C961 C 0.84579 0.00961 0.42285 0.0
N962 N 0.87622 0.97175 0.40124 0.0
N963 N 0.85549 0.0095 0.41481 0.0
H964 H 0.39023 0.02703 0.90683 0.0
H965 H 0.34267 0.95367 0.9475 0.0
H966 H 0.38956 0.95561 0.87704 0.0
H967 H 0.34218 0.02523 0.92384 0.0
H968 H 0.36002 0.95425 0.92941 0.0
H969 H 0.37276 0.02699 0.92605 0.0
C970 C 0.3864 0.01135 0.90569 0.0
C971 C 0.39127 0.99129 0.89036 0.0
C972 C 0.35614 0.96984 0.92743 0.0
C973 C 0.37143 0.99112 0.9109 0.0
C974 C 0.34623 0.96949 0.93733 0.0
C975 C 0.34104 0.98943 0.93694 0.0
C976 C 0.36088 0.99031 0.91795 0.0
C977 C 0.34597 0.0095 0.92398 0.0
C978 C 0.37646 0.01135 0.91574 0.0
C979 C 0.38604 0.97142 0.88864 0.0
N980 N 0.35566 0.00947 0.91564 0.0
N981 N 0.37639 0.97184 0.89856 0.0
H982 H 0.8419 0.20619 0.90891 0.0
H983 H 0.88991 0.27839 0.93621 0.0
H984 H 0.84289 0.27739 0.87163 0.0
H985 H 0.88992 0.20664 0.92417 0.0
H986 H 0.87254 0.27825 0.91916 0.0
H987 H 0.85938 0.20587 0.92666 0.0
C988 C 0.8458 0.22176 0.90581 0.0
C989 C 0.84102 0.24184 0.88882 0.0
C990 C 0.87632 0.26251 0.91952 0.0
C991 C 0.86087 0.24161 0.90762 0.0
C992 C 0.88624 0.26261 0.92879 0.0
C993 C 0.89129 0.2425 0.93141 0.0
C994 C 0.87144 0.24214 0.9137 0.0
C995 C 0.88623 0.2225 0.92197 0.0
C996 C 0.85575 0.22155 0.91504 0.0
C997 C 0.84635 0.26155 0.8846 0.0
N998 N 0.87654 0.2228 0.91417 0.0
N999 N 0.856 0.26094 0.89371 0.0
H1000 H 0.59278 0.70513 0.64509 0.0
H1001 H 0.64056 0.77802 0.67216 0.0
H1002 H 0.59251 0.77678 0.66388 0.0
H1003 H 0.63981 0.70668 0.70525 0.0
H1004 H 0.62306 0.77813 0.65634 0.0
H1005 H 0.61016 0.70553 0.66006 0.0
C1006 C 0.5964 0.72094 0.6536 0.0
C1007 C 0.59127 0.74095 0.65343 0.0
C1008 C 0.62674 0.76246 0.66659 0.0
C1009 C 0.61113 0.74162 0.66876 0.0
C1010 C 0.63671 0.76238 0.67467 0.0
C1011 C 0.64156 0.74231 0.69002 0.0
C1012 C 0.62169 0.74231 0.67347 0.0
C1013 C 0.6363 0.7225 0.69357 0.0
C1014 C 0.60632 0.72118 0.66169 0.0
C1015 C 0.59626 0.761 0.66424 0.0
N1016 N 0.62664 0.723 0.68561 0.0
N1017 N 0.60597 0.76086 0.67079 0.0
H1018 H 0.09247 0.02868 0.69848 0.0
H1019 H 0.14048 0.95669 0.66331 0.0
H1020 H 0.09243 0.95701 0.68052 0.0
H1021 H 0.13937 0.02798 0.62925 0.0
H1022 H 0.12301 0.95624 0.68215 0.0
H1023 H 0.10982 0.02859 0.68015 0.0
C1024 C 0.09613 0.01292 0.68948 0.0
C1025 C 0.09108 -0.00718 0.69082 0.0
C1026 C 0.12661 0.97197 0.671 0.0
C1027 C 0.11091 -0.00749 0.67161 0.0
C1028 C 0.13656 0.97224 0.66118 0.0
C1029 C 0.1413 -0.0076 0.64476 0.0
C1030 C 0.12146 -0.00798 0.66479 0.0
C1031 C 0.13595 0.01209 0.64175 0.0
C1032 C 0.10603 0.01286 0.67945 0.0
C1033 C 0.09612 0.97285 0.6793 0.0
N1034 N 0.1263 0.0114 0.65144 0.0
N1035 N 0.10581 0.97317 0.67084 0.0
H1036 H 0.64047 0.95723 0.16279 0.0
H1037 H 0.59214 0.0284 0.18764 0.0
H1038 H 0.63921 0.02855 0.13045 0.0
H1039 H 0.59238 0.9567 0.17242 0.0
H1040 H 0.60952 0.02859 0.1725 0.0
H1041 H 0.62296 0.95644 0.17783 0.0
C1042 C 0.63651 0.97273 0.16027 0.0
C1043 C 0.64122 -0.00701 0.14543 0.0
C1044 C 0.6058 0.01279 0.17169 0.0
C1045 C 0.62134 -0.00778 0.16107 0.0
C1046 C 0.59588 0.0127 0.17987 0.0
C1047 C 0.59088 -0.00749 0.18111 0.0
C1048 C 0.61076 -0.00748 0.1656 0.0
C1049 C 0.59602 0.97261 0.17122 0.0
C1050 C 0.62654 0.97225 0.16791 0.0
C1051 C 0.63581 0.01259 0.14181 0.0
N1052 N 0.60573 0.97308 0.16457 0.0
N1053 N 0.62615 0.01171 0.14933 0.0
H1054 H 0.09292 0.70423 0.13481 0.0
H1055 H 0.14063 0.77723 0.17112 0.0
H1056 H 0.09257 0.77583 0.15654 0.0
H1057 H 0.13986 0.7059 0.20433 0.0
H1058 H 0.12315 0.77729 0.15287 0.0
H1059 H 0.11029 0.70467 0.15267 0.0
C1060 C 0.09652 0.72004 0.14452 0.0
C1061 C 0.09137 0.74002 0.14443 0.0
C1062 C 0.12683 0.76164 0.16372 0.0
C1063 C 0.11121 0.74074 0.16309 0.0
C1064 C 0.13678 0.76158 0.17323 0.0
C1065 C 0.14162 0.74153 0.1892 0.0
C1066 C 0.12177 0.74147 0.16975 0.0
C1067 C 0.13636 0.72171 0.19218 0.0
C1068 C 0.10643 0.7203 0.15429 0.0
C1069 C 0.09633 0.76007 0.1568 0.0
N1070 N 0.12671 0.72218 0.18274 0.0
N1071 N 0.10602 0.75995 0.16497 0.0
H1072 H 0.34322 0.77807 0.88074 0.0
H1073 H 0.39121 0.70599 0.91764 0.0
H1074 H 0.34315 0.7064 0.89895 0.0
H1075 H 0.39011 0.77725 0.95254 0.0
H1076 H 0.37375 0.70558 0.89817 0.0
H1077 H 0.36057 0.77794 0.8997 0.0
C1078 C 0.34688 0.76231 0.88989 0.0
C1079 C 0.34181 0.74222 0.8885 0.0
C1080 C 0.37735 0.72129 0.90967 0.0
C1081 C 0.36165 0.74186 0.90845 0.0
C1082 C 0.38729 0.72155 0.91988 0.0
C1083 C 0.39204 0.74169 0.93666 0.0
C1084 C 0.3722 0.74134 0.91584 0.0
C1085 C 0.38668 0.76138 0.93977 0.0
C1086 C 0.35678 0.76222 0.9003 0.0
C1087 C 0.34684 0.72224 0.90021 0.0
N1088 N 0.37704 0.76071 0.92966 0.0
N1089 N 0.35654 0.72253 0.90904 0.0
H1090 H 0.89053 0.52756 0.91025 0.0
H1091 H 0.84299 0.45413 0.9509 0.0
H1092 H 0.89 0.45596 0.8884 0.0
H1093 H 0.84253 0.52567 0.92581 0.0
H1094 H 0.86036 0.45467 0.93405 0.0
H1095 H 0.87305 0.52751 0.92757 0.0
C1096 C 0.88673 0.51184 0.91047 0.0
C1097 C 0.89164 0.49173 0.8979 0.0
C1098 C 0.85648 0.47027 0.93148 0.0
C1099 C 0.87179 0.49154 0.91619 0.0
C1100 C 0.84657 0.46994 0.94064 0.0
C1101 C 0.84138 0.48988 0.93959 0.0
C1102 C 0.86123 0.49072 0.92205 0.0
C1103 C 0.84631 0.50993 0.9265 0.0
C1104 C 0.87678 0.51183 0.91944 0.0
C1105 C 0.88645 0.47182 0.89789 0.0
N1106 N 0.85602 0.50988 0.91889 0.0
N1107 N 0.87679 0.47222 0.90661 0.0
H1108 H 0.34183 0.45268 0.42579 0.0
H1109 H 0.39038 0.52162 0.41702 0.0
H1110 H 0.34231 0.52447 0.42181 0.0
H1111 H 0.38824 0.4549 0.30936 0.0
H1112 H 0.37296 0.52206 0.43947 0.0
H1113 H 0.35913 0.45231 0.39935 0.0
C1114 C 0.34558 0.46836 0.41821 0.0
C1115 C 0.3407 0.48864 0.4256 0.0
C1116 C 0.37633 0.50734 0.41112 0.0
C1117 C 0.36041 0.48835 0.3975 0.0
C1118 C 0.38624 0.507 0.39913 0.0
C1119 C 0.39067 0.48819 0.36138 0.0
C1120 C 0.37091 0.48859 0.38641 0.0
C1121 C 0.38504 0.46972 0.33854 0.0
C1122 C 0.35543 0.46814 0.40337 0.0
C1123 C 0.34585 0.5085 0.4159 0.0
N1124 N 0.37542 0.47034 0.35172 0.0
N1125 N 0.35549 0.50789 0.40321 0.0
H1126 H 0.84309 0.77813 0.37792 0.0
H1127 H 0.89091 0.70549 0.41709 0.0
H1128 H 0.84288 0.70655 0.40099 0.0
H1129 H 0.89011 0.77705 0.44022 0.0
H1130 H 0.87343 0.70524 0.39953 0.0
H1131 H 0.86046 0.77786 0.39451 0.0
C1132 C 0.84672 0.76236 0.38766 0.0
C1133 C 0.84161 0.74233 0.38827 0.0
C1134 C 0.8771 0.72099 0.40798 0.0
C1135 C 0.86147 0.74181 0.40556 0.0
C1136 C 0.88706 0.72114 0.4171 0.0
C1137 C 0.89189 0.74133 0.43009 0.0
C1138 C 0.87203 0.74118 0.41151 0.0
C1139 C 0.88662 0.76114 0.43039 0.0
C1140 C 0.85664 0.76219 0.39668 0.0
C1141 C 0.84661 0.72234 0.40068 0.0
N1142 N 0.87696 0.76057 0.42152 0.0
N1143 N 0.85632 0.72255 0.40821 0.0
H1144 H 0.63927 0.20588 0.20403 0.0
H1145 H 0.59123 0.27741 0.1594 0.0
H1146 H 0.63927 0.27753 0.18475 0.0
H1147 H 0.5926 0.20624 0.12197 0.0
H1148 H 0.60865 0.27802 0.1823 0.0
H1149 H 0.62196 0.20585 0.18254 0.0
C1150 C 0.63561 0.2216 0.19417 0.0
C1151 C 0.64064 0.24173 0.19592 0.0
C1152 C 0.60512 0.26229 0.16947 0.0
C1153 C 0.62085 0.24191 0.17299 0.0
C1154 C 0.5952 0.26191 0.1573 0.0
C1155 C 0.59055 0.24175 0.13881 0.0
C1156 C 0.61032 0.24232 0.16359 0.0
C1157 C 0.59595 0.22214 0.13598 0.0
C1158 C 0.62573 0.2216 0.18228 0.0
C1159 C 0.6356 0.26166 0.18324 0.0
N1160 N 0.60557 0.22291 0.14806 0.0
N1161 N 0.62593 0.26129 0.17292 0.0
H1162 H 0.09237 0.45672 0.17298 0.0
H1163 H 0.14007 0.52957 0.1361 0.0
H1164 H 0.09312 0.52807 0.20552 0.0
H1165 H 0.14039 0.45802 0.16071 0.0
H1166 H 0.1227 0.52922 0.15351 0.0
H1167 H 0.10984 0.45664 0.15495 0.0
C1168 C 0.09621 0.47236 0.17495 0.0
C1169 C 0.09137 0.49243 0.19073 0.0
C1170 C 0.12656 0.51358 0.15588 0.0
C1171 C 0.11121 0.49247 0.17158 0.0
C1172 C 0.13646 0.5138 0.14637 0.0
C1173 C 0.1416 0.4938 0.14716 0.0
C1174 C 0.12176 0.49317 0.16529 0.0
C1175 C 0.13664 0.47379 0.16025 0.0
C1176 C 0.10616 0.4723 0.1656 0.0
C1177 C 0.09663 0.51225 0.19353 0.0
N1178 N 0.12694 0.47395 0.16812 0.0
N1179 N 0.10628 0.51177 0.18427 0.0
H1180 H 0.64155 0.46004 0.69408 0.0
H1181 H 0.59104 0.52167 0.63343 0.0
H1182 H 0.63832 0.52697 0.59102 0.0
H1183 H 0.59401 0.45578 0.74797 0.0
H1184 H 0.60839 0.52325 0.61197 0.0
H1185 H 0.62414 0.45785 0.71439 0.0
C1186 C 0.63717 0.47434 0.67686 0.0
C1187 C 0.64131 0.4937 0.6409 0.0
C1188 C 0.60525 0.50839 0.64136 0.0
C1189 C 0.6215 0.49126 0.66229 0.0
C1190 C 0.59536 0.50744 0.65297 0.0
C1191 C 0.59115 0.48859 0.69255 0.0
C1192 C 0.61095 0.49035 0.66977 0.0
C1193 C 0.59702 0.47062 0.71714 0.0
C1194 C 0.62725 0.47306 0.68782 0.0
C1195 C 0.63537 0.51174 0.619 0.0
N1196 N 0.60665 0.47197 0.70576 0.0
N1197 N 0.62576 0.51005 0.62966 0.0
H1198 H 0.14023 0.27715 0.66885 0.0
H1199 H 0.09251 0.20428 0.63006 0.0
H1200 H 0.13942 0.20579 0.70112 0.0
H1201 H 0.09217 0.27586 0.65279 0.0
H1202 H 0.10987 0.20467 0.64808 0.0
H1203 H 0.12276 0.27726 0.64968 0.0
C1204 C 0.13637 0.26151 0.67053 0.0
C1205 C 0.1412 0.24143 0.68653 0.0
C1206 C 0.10602 0.22031 0.64986 0.0
C1207 C 0.12136 0.24143 0.66606 0.0
C1208 C 0.09611 0.22007 0.64 0.0
C1209 C 0.09097 0.24006 0.64017 0.0
C1210 C 0.11081 0.24073 0.65905 0.0
C1211 C 0.09593 0.26009 0.65284 0.0
C1212 C 0.12642 0.26159 0.66051 0.0
C1213 C 0.13593 0.22162 0.68896 0.0
N1214 N 0.10563 0.25995 0.66113 0.0
N1215 N 0.12628 0.22212 0.67904 0.0
H1216 H 0.3128 0.24056 0.51959 0.0
H1217 H 0.29132 0.24046 1.035 0.0
H1218 H 0.28265 0.23683 0.58158 0.0
H1219 H 0.32136 0.24763 0.97376 0.0
H1220 H 0.28797 0.23875 0.86903 0.0
H1221 H 0.31619 0.24253 0.68573 0.0
C1222 C 0.30691 0.24007 0.56811 0.0
C1223 C 0.29744 0.2385 0.53682 0.0
C1224 C 0.2953 0.24078 0.8919 0.0
C1225 C 0.30121 0.24081 0.7267 0.0
C1226 C 0.29718 0.24186 0.98671 0.0
C1227 C 0.3066 0.24435 1.01825 0.0
C1228 C 0.3029 0.24212 0.82821 0.0
C1229 C 0.31397 0.24575 0.95248 0.0
C1230 C 0.30883 0.24125 0.66291 0.0
C1231 C 0.29007 0.23803 0.60267 0.0
N1232 N 0.31197 0.2446 0.86096 0.0
N1233 N 0.2921 0.23917 0.69408 0.0
H1234 H 0.91933 -0.00771 0.52026 0.0
H1235 H 0.94073 -0.00784 1.03625 0.0
H1236 H 0.94944 -0.00299 0.58236 0.0
H1237 H 0.91069 0.98546 0.97438 0.0
H1238 H 0.9441 -0.00577 0.87032 0.0
H1239 H 0.91593 0.9903 0.68635 0.0
C1240 C 0.92521 -0.007 0.56879 0.0
C1241 C 0.93467 -0.00515 0.53746 0.0
C1242 C 0.93677 -0.00775 0.89304 0.0
C1243 C 0.93089 -0.0075 0.72753 0.0
C1244 C 0.93486 0.99097 0.98784 0.0
C1245 C 0.92543 0.98848 1.01925 0.0
C1246 C 0.92918 0.99109 0.82914 0.0
C1247 C 0.91808 0.98733 0.95328 0.0
C1248 C 0.92329 -0.00819 0.66361 0.0
C1249 C 0.94203 -0.00441 0.60344 0.0
N1250 N 0.9201 0.98864 0.86179 0.0
N1251 N 0.94 -0.00559 0.6949 0.0
H1252 H 0.29134 0.99112 0.29248 0.0
H1253 H 0.31282 0.9903 0.80791 0.0
H1254 H 0.32133 0.9828 0.35373 0.0
H1255 H 0.28271 -0.00472 0.74603 0.0
H1256 H 0.3162 0.98818 0.64175 0.0
H1257 H 0.28801 -0.00697 0.45847 0.0
C1258 C 0.2972 0.98951 0.34077 0.0
C1259 C 0.3066 0.98663 0.30921 0.0
C1260 C 0.30885 0.98977 0.6646 0.0
C1261 C 0.30291 0.9891 0.49929 0.0
C1262 C 0.30694 0.99104 0.75942 0.0
C1263 C 0.29748 -0.007 0.79076 0.0
C1264 C 0.30123 0.99052 0.60082 0.0
C1265 C 0.29012 -0.00623 0.72491 0.0
C1266 C 0.29532 0.9907 0.43559 0.0
C1267 C 0.31396 0.98497 0.375 0.0
N1268 N 0.29213 -0.00746 0.63349 0.0
N1269 N 0.31197 0.98624 0.46652 0.0
H1270 H 0.94094 0.24025 0.28747 0.0
H1271 H 0.91957 0.24087 0.80362 0.0
H1272 H 0.91095 0.24806 0.34954 0.0
H1273 H 0.94966 0.23531 0.74139 0.0
H1274 H 0.91618 0.24294 0.63754 0.0
H1275 H 0.94431 0.23809 0.45337 0.0
C1276 C 0.93509 0.24168 0.33592 0.0
C1277 C 0.92567 0.2445 0.30456 0.0
C1278 C 0.92353 0.24123 0.66025 0.0
C1279 C 0.92941 0.24178 0.49467 0.0
C1280 C 0.92544 0.23999 0.75506 0.0
C1281 C 0.9349 0.23788 0.78636 0.0
C1282 C 0.93112 0.24032 0.59629 0.0
C1283 C 0.94225 0.23693 0.72034 0.0
C1284 C 0.93699 0.24034 0.43071 0.0
C1285 C 0.91833 0.24593 0.3706 0.0
N1286 N 0.94022 0.23816 0.62888 0.0
N1287 N 0.92034 0.24456 0.46208 0.0
H1288 H 0.69126 0.74419 0.04479 0.0
H1289 H 0.66981 0.74306 0.56033 0.0
H1290 H 0.66128 0.73598 0.10635 0.0
H1291 H 0.69989 0.7489 0.49844 0.0
H1292 H 0.66644 0.74099 0.39421 0.0
H1293 H 0.69461 0.74618 0.21076 0.0
C1294 C 0.68541 0.74263 0.09315 0.0
C1295 C 0.67601 0.73976 0.06169 0.0
C1296 C 0.67378 0.74277 0.41703 0.0
C1297 C 0.67971 0.7423 0.25171 0.0
C1298 C 0.67568 0.74401 0.51184 0.0
C1299 C 0.68513 0.7462 0.54317 0.0
C1300 C 0.68139 0.74374 0.35323 0.0
C1301 C 0.69249 0.74722 0.47731 0.0
C1302 C 0.6873 0.74386 0.18794 0.0
C1303 C 0.66866 0.73815 0.12754 0.0
N1304 N 0.69048 0.74599 0.38588 0.0
N1305 N 0.67065 0.73945 0.21902 0.0
H1306 H 0.07193 -0.00162 0.10762 0.0
H1307 H 0.03237 0.98699 0.50463 0.0
H1308 H 0.04176 0.9914 0.05238 0.0
H1309 H 0.06262 -0.00813 0.56015 0.0
H1310 H 0.03567 0.98885 0.3399 0.0
H1311 H 0.06865 -0.00349 0.27246 0.0
C1312 C 0.06458 -0.00345 0.13024 0.0
C1313 C 0.05709 -0.00484 0.06585 0.0
C1314 C 0.04161 0.98947 0.38771 0.0
C1315 C 0.05328 -0.00711 0.25582 0.0
C1316 C 0.03974 0.98839 0.48206 0.0
C1317 C 0.04724 0.98923 0.54645 0.0
C1318 C 0.05108 0.99148 0.35658 0.0
C1319 C 0.05663 0.99108 0.51299 0.0
C1320 C 0.06273 -0.00456 0.22465 0.0
C1321 C 0.04773 -0.00728 0.09942 0.0
N1322 N 0.05828 -0.00782 0.42039 0.0
N1323 N 0.0461 -0.00835 0.19202 0.0
H1324 H 0.6605 0.00023 0.73118 0.0
H1325 H 0.70005 0.98853 0.33414 0.0
H1326 H 0.69066 -0.00712 0.78646 0.0
H1327 H 0.66981 -0.00637 0.27867 0.0
H1328 H 0.69675 0.99037 0.49889 0.0
H1329 H 0.66378 -0.00166 0.56635 0.0
C1330 C 0.66785 -0.00169 0.70857 0.0
C1331 C 0.67533 -0.00316 0.77298 0.0
C1332 C 0.69081 0.99104 0.45109 0.0
C1333 C 0.67915 -0.00546 0.583 0.0
C1334 C 0.69268 0.98997 0.35672 0.0
C1335 C 0.68519 0.99088 0.29233 0.0
C1336 C 0.68134 -0.00688 0.48223 0.0
C1337 C 0.6758 -0.00721 0.32581 0.0
C1338 C 0.6697 -0.00281 0.61416 0.0
C1339 C 0.68469 -0.0057 0.73942 0.0
N1340 N 0.67415 -0.00612 0.41842 0.0
N1341 N 0.68633 -0.00678 0.64682 0.0
H1342 H 0.03263 0.74706 0.33151 0.0
H1343 H 0.0721 0.73372 0.72843 0.0
H1344 H 0.06283 0.74076 0.27593 0.0
H1345 H 0.042 0.74222 0.78384 0.0
H1346 H 0.06883 0.73576 0.5636 0.0
H1347 H 0.03592 0.74505 0.49626 0.0
C1348 C 0.03999 0.74532 0.35407 0.0
C1349 C 0.04748 0.74412 0.28964 0.0
C1350 C 0.06291 0.73713 0.61145 0.0
C1351 C 0.0513 0.74169 0.47954 0.0
C1352 C 0.06476 0.73592 0.70585 0.0
C1353 C 0.05729 0.73768 0.7703 0.0
C1354 C 0.05349 0.74016 0.58031 0.0
C1355 C 0.04796 0.74059 0.73677 0.0
C1356 C 0.04185 0.74415 0.44843 0.0
C1357 C 0.05685 0.74183 0.3231 0.0
N1358 N 0.04632 0.74175 0.64417 0.0
N1359 N 0.05849 0.74065 0.4157 0.0
H1360 H 0.28309 0.73605 0.07498 0.0
H1361 H 0.32259 0.74851 0.47198 0.0
H1362 H 0.31333 0.74128 1.01939 0.0
H1363 H 0.29246 0.74046 0.52721 0.0
H1364 H 0.31932 0.74656 0.30712 0.0
H1365 H 0.28638 0.73809 0.23967 0.0
C1366 C 0.29045 0.73758 0.09752 0.0
C1367 C 0.29795 0.73846 1.0331 0.0
C1368 C 0.3134 0.74528 0.35494 0.0
C1369 C 0.30178 0.74091 0.22298 0.0
C1370 C 0.31525 0.74643 0.44936 0.0
C1371 C 0.30777 0.74476 0.51376 0.0
C1372 C 0.30397 0.7424 0.32375 0.0
C1373 C 0.29843 0.74202 0.48018 0.0
C1374 C 0.29232 0.73875 0.19186 0.0
C1375 C 0.30734 0.74046 0.06656 0.0
N1376 N 0.2968 0.74091 0.38757 0.0
N1377 N 0.30898 0.74166 0.15916 0.0
H1378 H 0.94126 0.49225 0.54105 0.0
H1379 H 0.91987 0.49272 1.02502 0.0
H1380 H 0.9112 0.48608 0.47914 0.0
H1381 H 0.95001 0.49681 0.08715 0.0
H1382 H 0.91647 0.49082 0.19112 0.0
H1383 H 0.94465 0.49424 0.37513 0.0
C1384 C 0.93539 0.49116 0.49263 0.0
C1385 C 0.92595 0.48884 0.52403 0.0
C1386 C 0.92383 0.49217 0.16838 0.0
C1387 C 0.92971 0.49135 0.33392 0.0
C1388 C 0.92575 0.49331 0.07356 0.0
C1389 C 0.93523 0.49496 0.04223 0.0
C1390 C 0.93143 0.49271 0.23231 0.0
C1391 C 0.94259 0.49555 0.10822 0.0
C1392 C 0.93731 0.49239 0.39784 0.0
C1393 C 0.9186 0.48781 0.45804 0.0
N1394 N 0.94055 0.49443 0.19969 0.0
N1395 N 0.92062 0.48907 0.36655 0.0
H1396 H 0.32171 0.48306 0.84767 0.0
H1397 H 0.28219 0.49572 0.24465 0.0
H1398 H 0.2916 0.4914 0.79238 0.0
H1399 H 0.31241 0.49022 0.30034 0.0
H1400 H 0.28549 0.49374 0.07993 0.0
H1401 H 0.31843 0.48502 1.01256 0.0
C1402 C 0.31437 0.48521 0.87028 0.0
C1403 C 0.3069 0.48694 0.80584 0.0
C1404 C 0.29142 0.49301 0.12777 0.0
C1405 C 0.30309 0.48932 0.99588 0.0
C1406 C 0.28955 0.49415 0.22212 0.0
C1407 C 0.29704 0.49317 0.28659 0.0
C1408 C 0.30089 0.49079 0.09667 0.0
C1409 C 0.30643 0.49111 0.25315 0.0
C1410 C 0.31252 0.48637 0.96471 0.0
C1411 C 0.29756 0.48978 0.83942 0.0
N1412 N 0.30808 0.48995 0.16055 0.0
N1413 N 0.29592 0.49089 0.93203 0.0
H1414 H 0.911 0.74774 0.84804 0.0
H1415 H 0.95062 0.73554 0.24475 0.0
H1416 H 0.94116 0.74068 0.79222 0.0
H1417 H 0.9204 0.74101 0.30069 0.0
H1418 H 0.94729 0.7375 0.07995 0.0
H1419 H 0.9143 0.74561 1.01286 0.0
C1420 C 0.91835 0.74583 0.87051 0.0
C1421 C 0.92582 0.74452 0.80591 0.0
C1422 C 0.94136 0.73823 0.12788 0.0
C1423 C 0.92967 0.74194 0.99598 0.0
C1424 C 0.94325 0.73709 0.22228 0.0
C1425 C 0.93577 0.73807 0.28687 0.0
C1426 C 0.93189 0.74044 0.09683 0.0
C1427 C 0.92638 0.74012 0.25345 0.0
C1428 C 0.92022 0.74457 0.96493 0.0
C1429 C 0.93519 0.74196 0.83937 0.0
N1430 N 0.92471 0.74126 0.16085 0.0
N1431 N 0.93684 0.74075 0.93197 0.0
H1432 H 0.69029 0.24351 0.55301 0.0
H1433 H 0.66884 0.24288 0.06855 0.0
H1434 H 0.66026 0.23632 0.61459 0.0
H1435 H 0.69897 0.24754 1.00665 0.0
H1436 H 0.66546 0.24103 0.90242 0.0
H1437 H 0.69366 0.24527 0.71897 0.0
C1438 C 0.68443 0.24212 0.60137 0.0
C1439 C 0.67501 0.2396 0.56993 0.0
C1440 C 0.67281 0.24249 0.92524 0.0
C1441 C 0.67873 0.2419 0.75994 0.0
C1442 C 0.67472 0.24361 1.02004 0.0
C1443 C 0.68419 0.2454 0.05137 0.0
C1444 C 0.68043 0.2432 0.86144 0.0
C1445 C 0.69156 0.24617 0.98552 0.0
C1446 C 0.68633 0.24324 0.69616 0.0
C1447 C 0.66765 0.23822 0.63577 0.0
N1448 N 0.68953 0.24506 0.89408 0.0
N1449 N 0.66966 0.2394 0.72726 0.0
H1450 H 0.06315 0.49174 0.06216 0.0
H1451 H 0.04169 0.49097 0.54669 0.0
H1452 H 0.03303 0.48669 1.00037 0.0
H1453 H 0.07171 0.49839 0.60818 0.0
H1454 H 0.03833 0.48912 0.71266 0.0
H1455 H 0.06652 0.49365 0.89603 0.0
C1456 C 0.05727 0.49093 1.01368 0.0
C1457 C 0.04781 0.48901 0.04504 0.0
C1458 C 0.04566 0.49123 0.68983 0.0
C1459 C 0.05156 0.49128 0.8551 0.0
C1460 C 0.04755 0.49239 0.59503 0.0
C1461 C 0.05697 0.495 0.56356 0.0
C1462 C 0.05325 0.49262 0.75358 0.0
C1463 C 0.06433 0.49642 0.62938 0.0
C1464 C 0.05917 0.49208 0.91887 0.0
C1465 C 0.04044 0.48816 0.97921 0.0
N1466 N 0.06232 0.49521 0.72088 0.0
N1467 N 0.04246 0.48929 0.88777 0.0
H1468 H 0.69116 0.49274 0.28663 0.0
H1469 H 0.66969 0.49403 0.77128 0.0
H1470 H 0.66112 0.49974 0.22511 0.0
H1471 H 0.69981 0.48879 0.83267 0.0
H1472 H 0.66632 0.49564 0.93743 0.0
H1473 H 0.69453 0.49106 0.12061 0.0
C1474 C 0.6853 0.4941 0.23828 0.0
C1475 C 0.67587 0.49655 0.26974 0.0
C1476 C 0.67367 0.4941 0.91451 0.0
C1477 C 0.6796 0.49437 0.07972 0.0
C1478 C 0.67557 0.49311 0.81967 0.0
C1479 C 0.68502 0.49122 0.78818 0.0
C1480 C 0.68129 0.49317 0.97819 0.0
C1481 C 0.6924 0.49024 0.85393 0.0
C1482 C 0.6872 0.49303 0.14347 0.0
C1483 C 0.66851 0.49789 0.20392 0.0
N1484 N 0.69039 0.49123 0.94542 0.0
N1485 N 0.67052 0.49678 0.11244 0.0
H1486 H 0.06268 0.24105 0.76982 0.0
H1487 H 0.04122 0.24186 0.28534 0.0
H1488 H 0.03257 0.24626 0.83169 0.0
H1489 H 0.07122 0.2341 0.22381 0.0
H1490 H 0.03786 0.24378 0.11938 0.0
H1491 H 0.06605 0.23907 0.93595 0.0
C1492 C 0.0568 0.24188 0.81831 0.0
C1493 C 0.04734 0.24386 0.78697 0.0
C1494 C 0.04519 0.24158 0.1422 0.0
C1495 C 0.05109 0.24151 0.97691 0.0
C1496 C 0.04707 0.24038 0.237 0.0
C1497 C 0.05649 0.23766 0.26846 0.0
C1498 C 0.05278 0.24012 0.07843 0.0
C1499 C 0.06384 0.23616 0.20261 0.0
C1500 C 0.05871 0.24069 0.91312 0.0
C1501 C 0.03998 0.24474 0.85282 0.0
N1502 N 0.06184 0.23742 0.11112 0.0
N1503 N 0.042 0.24357 0.94426 0.0
H1504 H 0.81275 0.24144 1.01826 0.0
H1505 H 0.79128 0.24088 0.53377 0.0
H1506 H 0.78262 0.23689 0.08015 0.0
H1507 H 0.82129 0.24856 0.47235 0.0
H1508 H 0.78793 0.23906 0.36779 0.0
H1509 H 0.81613 0.24343 0.1844 0.0
C1510 C 0.80687 0.24076 0.06676 0.0
C1511 C 0.7974 0.23896 1.03542 0.0
C1512 C 0.79525 0.24123 0.39063 0.0
C1513 C 0.80116 0.24131 0.22536 0.0
C1514 C 0.79714 0.24237 0.48544 0.0
C1515 C 0.80656 0.24504 0.51695 0.0
C1516 C 0.80285 0.24268 0.32689 0.0
C1517 C 0.81391 0.24654 0.45112 0.0
C1518 C 0.80878 0.24196 0.16157 0.0
C1519 C 0.79003 0.23827 0.10127 0.0
N1520 N 0.81191 0.24533 0.35962 0.0
N1521 N 0.79206 0.23944 0.1927 0.0
H1522 H 0.44095 -0.00798 0.53399 0.0
H1523 H 0.41949 -0.00824 1.0185 0.0
H1524 H 0.41091 0.98491 0.4726 0.0
H1525 H 0.44964 -0.00441 0.08035 0.0
H1526 H 0.4161 0.98991 0.18466 0.0
H1527 H 0.44431 -0.00627 0.36803 0.0
C1528 C 0.43509 0.99063 0.48568 0.0
C1529 C 0.42566 0.98814 0.51719 0.0
C1530 C 0.42346 0.99119 0.16181 0.0
C1531 C 0.42938 0.99039 0.32713 0.0
C1532 C 0.42538 -0.0077 0.06699 0.0
C1533 C 0.43485 -0.00614 1.03564 0.0
C1534 C 0.43108 -0.00832 0.22559 0.0
C1535 C 0.44222 -0.00561 0.10149 0.0
C1536 C 0.43698 -0.00829 0.39087 0.0
C1537 C 0.4183 0.98677 0.45137 0.0
N1538 N 0.44019 -0.00669 0.19293 0.0
N1539 N 0.42031 0.98793 0.35986 0.0
H1540 H 0.82166 0.9834 0.85302 0.0
H1541 H 0.78214 -0.00404 0.25002 0.0
H1542 H 0.79156 -0.00818 0.79776 0.0
H1543 H 0.81237 0.99044 0.30564 0.0
H1544 H 0.78545 -0.00598 0.08529 0.0
H1545 H 0.81839 0.98529 1.0179 0.0
C1546 C 0.81432 0.98555 0.87564 0.0
C1547 C 0.80685 0.98733 0.81122 0.0
C1548 C 0.79138 -0.00673 0.13312 0.0
C1549 C 0.80304 0.98962 1.00124 0.0
C1550 C 0.78951 -0.00561 0.22747 0.0
C1551 C 0.797 -0.0066 0.29191 0.0
C1552 C 0.80085 0.99106 0.10201 0.0
C1553 C 0.80639 0.99134 0.25846 0.0
C1554 C 0.81247 0.98667 0.97007 0.0
C1555 C 0.79751 0.99017 0.84479 0.0
N1556 N 0.80804 0.9902 0.16586 0.0
N1557 N 0.79588 0.99123 0.9374 0.0
H1558 H 0.44107 0.24055 0.77642 0.0
H1559 H 0.41959 0.2411 0.29192 0.0
H1560 H 0.41108 0.24876 0.83783 0.0
H1561 H 0.44971 0.23629 0.23004 0.0
H1562 H 0.41622 0.24328 0.12577 0.0
H1563 H 0.44441 0.23864 0.94239 0.0
C1564 C 0.43522 0.24215 0.82474 0.0
C1565 C 0.42581 0.24498 0.79322 0.0
C1566 C 0.42357 0.24171 0.14862 0.0
C1567 C 0.42951 0.2425 0.9833 0.0
C1568 C 0.42547 0.24041 0.24343 0.0
C1569 C 0.43493 0.23847 0.27478 0.0
C1570 C 0.43119 0.24104 0.08483 0.0
C1571 C 0.4423 0.23777 0.20892 0.0
C1572 C 0.4371 0.24094 0.91955 0.0
C1573 C 0.41846 0.24661 0.85906 0.0
N1574 N 0.44029 0.23904 0.1175 0.0
N1575 N 0.42045 0.24533 0.95057 0.0
H1576 H 0.16991 0.74215 0.05962 0.0
H1577 H 0.1914 0.74243 0.54421 0.0
H1578 H 0.20004 0.74655 0.99786 0.0
H1579 H 0.16134 0.7357 0.60563 0.0
H1580 H 0.19475 0.74421 0.7102 0.0
H1581 H 0.16653 0.74032 0.89347 0.0
C1582 C 0.17579 0.74283 1.01115 0.0
C1583 C 0.18525 0.74454 0.04251 0.0
C1584 C 0.18742 0.74228 0.68734 0.0
C1585 C 0.1815 0.74236 0.85258 0.0
C1586 C 0.18553 0.74116 0.59254 0.0
C1587 C 0.1761 0.73877 0.56106 0.0
C1588 C 0.17981 0.74106 0.75107 0.0
C1589 C 0.16873 0.73751 0.62685 0.0
C1590 C 0.17388 0.74172 0.91633 0.0
C1591 C 0.19263 0.74524 0.9767 0.0
N1592 N 0.17073 0.73868 0.71834 0.0
N1593 N 0.19061 0.74415 0.88526 0.0
H1594 H 0.57159 -0.00177 0.59578 0.0
H1595 H 0.53208 0.98571 0.99275 0.0
H1596 H 0.54147 0.99021 0.54042 0.0
H1597 H 0.56231 0.99134 0.04823 0.0
H1598 H 0.53538 0.98762 0.82799 0.0
H1599 H 0.56832 -0.00374 0.7606 0.0
C1600 C 0.56425 -0.00385 0.61837 0.0
C1601 C 0.55678 -0.00549 0.55394 0.0
C1602 C 0.54131 0.9884 0.8758 0.0
C1603 C 0.55297 -0.00788 0.74391 0.0
C1604 C 0.53945 0.98729 0.97017 0.0
C1605 C 0.54694 0.98833 1.03457 0.0
C1606 C 0.55078 0.99065 0.84467 0.0
C1607 C 0.55632 0.9904 1.00108 0.0
C1608 C 0.5624 -0.00501 0.71277 0.0
C1609 C 0.54743 -0.00824 0.58747 0.0
N1610 N 0.55797 0.99153 0.90848 0.0
N1611 N 0.5458 0.99064 0.68007 0.0
H1612 H 0.2 0.98761 0.8304 0.0
H1613 H 0.16042 -0.0012 0.22744 0.0
H1614 H 0.16975 -0.0075 0.77488 0.0
H1615 H 0.1906 -0.00818 0.28267 0.0
H1616 H 0.1637 -0.00301 0.06259 0.0
H1617 H 0.1967 0.98939 0.99514 0.0
C1618 C 0.19263 0.989 0.85297 0.0
C1619 C 0.18513 0.98986 0.78857 0.0
C1620 C 0.16963 -0.00409 0.1104 0.0
C1621 C 0.18128 -0.00798 0.97846 0.0
C1622 C 0.16777 -0.00302 0.20481 0.0
C1623 C 0.17526 -0.00442 0.26921 0.0
C1624 C 0.17908 -0.00662 0.07922 0.0
C1625 C 0.18462 -0.00684 0.23564 0.0
C1626 C 0.19076 0.99004 0.94733 0.0
C1627 C 0.17574 -0.00831 0.82203 0.0
N1628 N 0.18626 -0.00787 0.14303 0.0
N1629 N 0.17408 -0.00725 0.91464 0.0
H1630 H 0.56299 0.7419 0.78475 0.0
H1631 H 0.54147 0.74203 0.30023 0.0
H1632 H 0.53289 0.74738 0.84648 0.0
H1633 H 0.57147 0.73406 0.23868 0.0
H1634 H 0.53814 0.74425 0.13426 0.0
H1635 H 0.56634 0.73959 0.95089 0.0
C1636 C 0.55711 0.74273 0.83321 0.0
C1637 C 0.54766 0.74488 0.8018 0.0
C1638 C 0.54545 0.74193 0.15708 0.0
C1639 C 0.55138 0.74214 0.99178 0.0
C1640 C 0.54733 0.74055 0.25189 0.0
C1641 C 0.55674 0.7377 0.28337 0.0
C1642 C 0.55305 0.74052 0.09331 0.0
C1643 C 0.56409 0.73622 0.2175 0.0
C1644 C 0.559 0.74135 0.92802 0.0
C1645 C 0.54029 0.74574 0.86764 0.0
N1646 N 0.56211 0.73766 0.12603 0.0
N1647 N 0.54229 0.74437 0.95907 0.0
H1648 H 0.81332 0.74122 0.51885 0.0
H1649 H 0.79183 0.74103 1.03426 0.0
H1650 H 0.78318 0.73717 0.5807 0.0
H1651 H 0.82186 0.74835 0.97293 0.0
H1652 H 0.78848 0.73925 0.86828 0.0
H1653 H 0.8167 0.74321 0.68501 0.0
C1654 C 0.80743 0.74066 0.56734 0.0
C1655 C 0.79797 0.73899 0.536 0.0
C1656 C 0.79581 0.74132 0.89114 0.0
C1657 C 0.80172 0.74133 0.72592 0.0
C1658 C 0.79769 0.74245 0.98595 0.0
C1659 C 0.80711 0.745 1.01747 0.0
C1660 C 0.80341 0.74268 0.82743 0.0
C1661 C 0.81447 0.74642 0.95168 0.0
C1662 C 0.80934 0.74185 0.66215 0.0
C1663 C 0.79059 0.73844 0.60183 0.0
N1664 N 0.81248 0.74523 0.86017 0.0
N1665 N 0.79261 0.7396 0.69325 0.0
H1666 H 0.44021 0.47683 1.01895 0.0
H1667 H 0.41963 0.49929 0.51087 0.0
H1668 H 0.41294 0.50823 0.96785 0.0
H1669 H 0.4497 0.49026 0.56653 0.0
H1670 H 0.41646 0.4981 0.67744 0.0
H1671 H 0.44336 0.47715 0.85213 0.0
C1672 C 0.4349 0.48379 0.97282 0.0
C1673 C 0.42634 0.49266 1.00752 0.0
C1674 C 0.42376 0.49641 0.65308 0.0
C1675 C 0.42979 0.49269 0.81679 0.0
C1676 C 0.42555 0.49709 0.55806 0.0
C1677 C 0.43493 0.495 0.52485 0.0
C1678 C 0.43139 0.49331 0.7152 0.0
C1679 C 0.44235 0.49205 0.58917 0.0
C1680 C 0.43669 0.48396 0.87767 0.0
C1681 C 0.41967 0.5013 0.94434 0.0
N1682 N 0.44043 0.4912 0.68094 0.0
N1683 N 0.42151 0.501 0.85241 0.0
H1684 H 0.7917 0.49167 0.29502 0.0
H1685 H 0.81315 0.49079 0.8105 0.0
H1686 H 0.82169 0.48365 0.35637 0.0
H1687 H 0.78302 0.49542 0.74861 0.0
H1688 H 0.81653 0.48882 0.64435 0.0
H1689 H 0.78834 0.49345 0.46098 0.0
C1690 C 0.79755 0.49009 0.34332 0.0
C1691 C 0.80696 0.48734 0.3118 0.0
C1692 C 0.80918 0.4903 0.66719 0.0
C1693 C 0.80325 0.48966 0.50187 0.0
C1694 C 0.80727 0.49148 0.762 0.0
C1695 C 0.7978 0.49331 0.79334 0.0
C1696 C 0.80156 0.49099 0.6034 0.0
C1697 C 0.79043 0.49402 0.72749 0.0
C1698 C 0.79566 0.49122 0.43813 0.0
C1699 C 0.81431 0.48573 0.37761 0.0
N1700 N 0.79246 0.49288 0.63606 0.0
N1701 N 0.81232 0.48693 0.46913 0.0
H1702 H 0.42025 0.74162 0.80845 0.0
H1703 H 0.44174 0.74163 0.29294 0.0
H1704 H 0.4504 0.73777 0.74653 0.0
H1705 H 0.4117 0.74885 0.35423 0.0
H1706 H 0.44509 0.73984 0.45892 0.0
H1707 H 0.41687 0.74364 0.64229 0.0
C1708 C 0.42614 0.74111 0.75995 0.0
C1709 C 0.43561 0.73949 0.7913 0.0
C1710 C 0.43776 0.7419 0.43606 0.0
C1711 C 0.43184 0.74186 0.60133 0.0
C1712 C 0.43587 0.74303 0.34123 0.0
C1713 C 0.42645 0.74555 0.30968 0.0
C1714 C 0.43015 0.74323 0.49978 0.0
C1715 C 0.41909 0.74694 0.37549 0.0
C1716 C 0.42423 0.74232 0.66513 0.0
C1717 C 0.44298 0.73901 0.72543 0.0
N1718 N 0.42108 0.74574 0.46701 0.0
N1719 N 0.44095 0.74018 0.634 0.0
H1720 H 0.16037 0.23498 0.10356 0.0
H1721 H 0.1999 0.24716 0.5005 0.0
H1722 H 0.19052 0.24253 0.04822 0.0
H1723 H 0.16967 0.24172 0.55607 0.0
H1724 H 0.19661 0.24522 0.33577 0.0
H1725 H 0.16365 0.23693 0.26839 0.0
C1726 C 0.16772 0.23696 0.12616 0.0
C1727 C 0.1752 0.23848 0.06173 0.0
C1728 C 0.19067 0.24449 0.38359 0.0
C1729 C 0.17901 0.24083 0.25171 0.0
C1730 C 0.19253 0.24562 0.47794 0.0
C1731 C 0.18504 0.24464 0.54236 0.0
C1732 C 0.1812 0.2423 0.35247 0.0
C1733 C 0.17566 0.24261 0.5089 0.0
C1734 C 0.16957 0.2381 0.22056 0.0
C1735 C 0.18455 0.24109 0.09527 0.0
N1736 N 0.17401 0.24147 0.41631 0.0
N1737 N 0.18619 0.24219 0.18788 0.0
H1738 H 0.56289 0.48853 0.56438 0.0
H1739 H 0.54147 0.49845 0.05037 0.0
H1740 H 0.5327 0.48905 0.50294 0.0
H1741 H 0.57161 0.49315 0.11011 0.0
H1742 H 0.53807 0.49596 0.21613 0.0
H1743 H 0.56631 0.49091 0.39844 0.0
C1744 C 0.557 0.48906 0.51602 0.0
C1745 C 0.54751 0.48857 0.54751 0.0
C1746 C 0.54543 0.49532 0.19294 0.0
C1747 C 0.55131 0.49144 0.35764 0.0
C1748 C 0.54735 0.49669 0.09819 0.0
C1749 C 0.55682 0.49579 0.06617 0.0
C1750 C 0.55304 0.49315 0.25619 0.0
C1751 C 0.56419 0.49385 0.13161 0.0
C1752 C 0.55893 0.49046 0.42129 0.0
C1753 C 0.54013 0.48936 0.48175 0.0
N1754 N 0.56216 0.49258 0.22305 0.0
N1755 N 0.54217 0.49079 0.39037 0.0
H1756 H 0.16983 0.49248 0.27582 0.0
H1757 H 0.19126 0.49094 0.79137 0.0
H1758 H 0.1999 0.48628 0.33769 0.0
H1759 H 0.16131 0.49967 0.72982 0.0
H1760 H 0.19461 0.48893 0.62541 0.0
H1761 H 0.16646 0.49455 0.44195 0.0
C1762 C 0.1757 0.49146 0.32432 0.0
C1763 C 0.18514 0.48917 0.29297 0.0
C1764 C 0.1873 0.49136 0.64822 0.0
C1765 C 0.1814 0.49162 0.48292 0.0
C1766 C 0.18542 0.49262 0.74302 0.0
C1767 C 0.17602 0.49564 0.77448 0.0
C1768 C 0.17972 0.49306 0.58445 0.0
C1769 C 0.16868 0.49738 0.70863 0.0
C1770 C 0.1738 0.4927 0.41913 0.0
C1771 C 0.1925 0.48804 0.35882 0.0
N1772 N 0.17067 0.49605 0.61714 0.0
N1773 N 0.19049 0.48928 0.45027 0.0
H1774 H 0.56245 0.24142 0.26445 0.0
H1775 H 0.54096 0.24122 0.77999 0.0
H1776 H 0.53232 0.24596 0.3263 0.0
H1777 H 0.57102 0.23457 0.71848 0.0
H1778 H 0.53761 0.24319 0.61401 0.0
H1779 H 0.56583 0.23942 0.43058 0.0
C1780 C 0.55657 0.24211 0.31293 0.0
C1781 C 0.5471 0.2439 0.28156 0.0
C1782 C 0.54494 0.24122 0.63684 0.0
C1783 C 0.55086 0.24152 0.47154 0.0
C1784 C 0.54683 0.24 0.73165 0.0
C1785 C 0.55626 0.23758 0.76313 0.0
C1786 C 0.55255 0.24008 0.57308 0.0
C1787 C 0.56363 0.23639 0.69728 0.0
C1788 C 0.55847 0.2409 0.40775 0.0
C1789 C 0.53973 0.24459 0.34743 0.0
N1790 N 0.56162 0.23766 0.6058 0.0
N1791 N 0.54175 0.2434 0.43887 0.0
H1792 H 0.28512 0.41819 0.49898 0.0
H1793 H 0.3162 0.31134 0.36856 0.0
H1794 H 0.31566 0.41961 0.45232 0.0
H1795 H 0.28556 0.31359 0.32873 0.0
H1796 H 0.31592 0.35025 0.41485 0.0
H1797 H 0.28493 0.37894 0.45223 0.0
C1798 C 0.29178 0.41026 0.47933 0.0
C1799 C 0.30042 0.42221 0.47949 0.0
C1800 C 0.30925 0.34228 0.39575 0.0
C1801 C 0.30024 0.37749 0.42641 0.0
C1802 C 0.3094 0.32001 0.36954 0.0
C1803 C 0.30088 0.30917 0.34468 0.0
C1804 C 0.30052 0.35383 0.3982 0.0
C1805 C 0.2923 0.32135 0.34691 0.0
C1806 C 0.29165 0.38793 0.45222 0.0
C1807 C 0.30882 0.41113 0.45288 0.0
N1808 N 0.29232 0.34305 0.37375 0.0
N1809 N 0.30852 0.38941 0.4278 0.0
H1810 H 0.94747 0.814 0.49875 0.0
H1811 H 0.91614 0.92081 0.3709 0.0
H1812 H 0.91695 0.8122 0.45121 0.0
H1813 H 0.94676 0.91903 0.33024 0.0
H1814 H 0.91653 0.88182 0.41625 0.0
H1815 H 0.94757 0.85335 0.45286 0.0
C1816 C 0.9408 0.82186 0.47906 0.0
C1817 C 0.93219 0.80974 0.47879 0.0
C1818 C 0.92317 0.8899 0.39721 0.0
C1819 C 0.93226 0.85465 0.42674 0.0
C1820 C 0.92296 0.91224 0.37153 0.0
C1821 C 0.93144 0.92326 0.34659 0.0
C1822 C 0.93193 0.87843 0.39918 0.0
C1823 C 0.94005 0.91117 0.34845 0.0
C1824 C 0.94087 0.84426 0.45246 0.0
C1825 C 0.92377 0.82078 0.45215 0.0
N1826 N 0.94009 0.8894 0.37482 0.0
N1827 N 0.92402 0.84257 0.42765 0.0
H1828 H 0.28527 0.91794 0.99875 0.0
H1829 H 0.31675 0.81176 0.86697 0.0
H1830 H 0.31586 0.9197 0.95533 0.0
H1831 H 0.28614 0.81353 0.82521 0.0
H1832 H 0.3163 0.85053 0.91485 0.0
H1833 H 0.2852 0.87875 0.95068 0.0
C1834 C 0.29196 0.9101 0.97954 0.0
C1835 C 0.30058 0.92213 0.98096 0.0
C1836 C 0.30968 0.8425 0.89497 0.0
C1837 C 0.30054 0.87749 0.92639 0.0
C1838 C 0.30992 0.8203 0.86782 0.0
C1839 C 0.30146 0.80936 0.84194 0.0
C1840 C 0.30091 0.85389 0.89732 0.0
C1841 C 0.29283 0.82137 0.84413 0.0
C1842 C 0.2919 0.88781 0.95168 0.0
C1843 C 0.30903 0.91116 0.9549 0.0
N1844 N 0.29276 0.84301 0.87187 0.0
N1845 N 0.3088 0.88949 0.92907 0.0
H1846 H 0.91642 0.42128 0.87442 0.0
H1847 H 0.94728 0.31345 0.99759 0.0
H1848 H 0.94703 0.41882 0.83288 0.0
H1849 H 0.91675 0.31245 0.95018 0.0
H1850 H 0.94755 0.35286 0.95291 0.0
H1851 H 0.91664 0.38216 0.91808 0.0
C1852 C 0.92321 0.41253 0.87452 0.0
C1853 C 0.93172 0.4234 0.84983 0.0
C1854 C 0.94081 0.34393 0.95224 0.0
C1855 C 0.93201 0.37843 0.90043 0.0
C1856 C 0.94064 0.32149 0.97813 0.0
C1857 C 0.93198 0.30958 0.97761 0.0
C1858 C 0.93225 0.35458 0.92698 0.0
C1859 C 0.92361 0.32086 0.9513 0.0
C1860 C 0.92331 0.39013 0.89921 0.0
C1861 C 0.94028 0.41109 0.85095 0.0
N1862 N 0.92395 0.34269 0.92752 0.0
N1863 N 0.94022 0.38925 0.87637 0.0
H1864 H 0.69737 0.67092 0.75244 0.0
H1865 H 0.66616 0.5646 0.61778 0.0
H1866 H 0.66682 0.67257 0.70639 0.0
H1867 H 0.69685 0.56646 0.5809 0.0
H1868 H 0.66648 0.60343 0.66499 0.0
H1869 H 0.69753 0.63175 0.7045 0.0
C1870 C 0.6907 0.66305 0.73266 0.0
C1871 C 0.68207 0.67505 0.73333 0.0
C1872 C 0.67315 0.5954 0.6463 0.0
C1873 C 0.68221 0.63042 0.67886 0.0
C1874 C 0.67298 0.57318 0.61955 0.0
C1875 C 0.6815 0.56224 0.59529 0.0
C1876 C 0.68191 0.60682 0.64989 0.0
C1877 C 0.69011 0.57429 0.59856 0.0
C1878 C 0.69081 0.64077 0.70488 0.0
C1879 C 0.67365 0.66406 0.70656 0.0
N1880 N 0.69011 0.59595 0.62592 0.0
N1881 N 0.67394 0.64238 0.68078 0.0
H1882 H 0.06636 0.06246 0.71626 0.0
H1883 H 0.03523 0.16871 0.57888 0.0
H1884 H 0.03569 0.0646 0.75395 0.0
H1885 H 0.06578 0.17038 0.62512 0.0
H1886 H 0.03506 0.12965 0.62822 0.0
H1887 H 0.06607 0.10124 0.66835 0.0
C1888 C 0.05955 0.07109 0.71452 0.0
C1889 C 0.05103 0.06024 0.73917 0.0
C1890 C 0.04178 0.13865 0.62758 0.0
C1891 C 0.05066 0.10477 0.68374 0.0
C1892 C 0.04189 0.16087 0.59898 0.0
C1893 C 0.05053 0.17284 0.59791 0.0
C1894 C 0.05037 0.12833 0.65404 0.0
C1895 C 0.05894 0.16188 0.62517 0.0
C1896 C 0.0594 0.09328 0.68737 0.0
C1897 C 0.04243 0.07236 0.73597 0.0
N1898 N 0.05865 0.14026 0.65174 0.0
N1899 N 0.04245 0.094 0.70816 0.0
H1900 H 0.69669 0.0662 0.08157 0.0
H1901 H 0.6654 0.17215 0.21983 0.0
H1902 H 0.66616 0.06413 0.12895 0.0
H1903 H 0.69608 0.17021 0.2566 0.0
H1904 H 0.66573 0.13337 0.17166 0.0
H1905 H 0.69678 0.10527 0.1305 0.0
C1906 C 0.69001 0.07395 0.10181 0.0
C1907 C 0.6814 0.06187 0.10122 0.0
C1908 C 0.6724 0.14138 0.19053 0.0
C1909 C 0.68147 0.10641 0.1569 0.0
C1910 C 0.67222 0.16357 0.21783 0.0
C1911 C 0.68074 0.17446 0.24232 0.0
C1912 C 0.68115 0.12996 0.18659 0.0
C1913 C 0.68935 0.16241 0.23875 0.0
C1914 C 0.69008 0.09619 0.13018 0.0
C1915 C 0.67297 0.07273 0.12866 0.0
N1916 N 0.68935 0.14079 0.21083 0.0
N1917 N 0.67322 0.09437 0.15501 0.0
H1918 H 0.03552 0.66893 0.07863 0.0
H1919 H 0.06654 0.56236 0.2144 0.0
H1920 H 0.06604 0.67033 0.12638 0.0
H1921 H 0.03585 0.56442 0.25078 0.0
H1922 H 0.06626 0.60118 0.16728 0.0
H1923 H 0.03528 0.62977 0.12671 0.0
C1924 C 0.04216 0.66102 0.0988 0.0
C1925 C 0.05081 0.67294 0.09853 0.0
C1926 C 0.05958 0.5932 0.18581 0.0
C1927 C 0.05058 0.62831 0.15318 0.0
C1928 C 0.05972 0.57098 0.21251 0.0
C1929 C 0.0512 0.56009 0.2366 0.0
C1930 C 0.05084 0.60469 0.18211 0.0
C1931 C 0.0426 0.5722 0.23322 0.0
C1932 C 0.04201 0.63873 0.12667 0.0
C1933 C 0.0592 0.66187 0.12584 0.0
N1934 N 0.04262 0.59388 0.2059 0.0
N1935 N 0.05887 0.6402 0.15167 0.0
H1936 H 0.8165 0.42013 0.96326 0.0
H1937 H 0.78538 0.31399 0.8256 0.0
H1938 H 0.7858 0.41826 0.99882 0.0
H1939 H 0.81588 0.31207 0.8747 0.0
H1940 H 0.78521 0.35308 0.87427 0.0
H1941 H 0.81621 0.38129 0.91622 0.0
C1942 C 0.80968 0.41155 0.96121 0.0
C1943 C 0.80116 0.42248 0.98501 0.0
C1944 C 0.79192 0.34402 0.87442 0.0
C1945 C 0.80079 0.37789 0.93061 0.0
C1946 C 0.79204 0.32178 0.84621 0.0
C1947 C 0.80066 0.30973 0.84608 0.0
C1948 C 0.8005 0.35429 0.90145 0.0
C1949 C 0.80906 0.32063 0.87399 0.0
C1950 C 0.80953 0.38932 0.93457 0.0
C1951 C 0.79255 0.41043 0.98146 0.0
N1952 N 0.80877 0.34229 0.90015 0.0
N1953 N 0.79257 0.38875 0.95417 0.0
H1954 H 0.41597 0.92087 0.86922 0.0
H1955 H 0.4474 0.81464 1.00077 0.0
H1956 H 0.4466 0.91876 0.82811 0.0
H1957 H 0.41685 0.81243 0.95535 0.0
H1958 H 0.44741 0.85381 0.95326 0.0
H1959 H 0.41633 0.88198 0.91639 0.0
C1960 C 0.42279 0.91224 0.87008 0.0
C1961 C 0.43127 0.9231 0.84458 0.0
C1962 C 0.44072 0.84468 0.95368 0.0
C1963 C 0.43172 0.87851 0.89914 0.0
C1964 C 0.4407 0.82238 0.98122 0.0
C1965 C 0.43211 0.81023 0.98196 0.0
C1966 C 0.43208 0.8549 0.92798 0.0
C1967 C 0.42365 0.82108 0.95546 0.0
C1968 C 0.42297 0.88999 0.89679 0.0
C1969 C 0.43988 0.91099 0.84674 0.0
N1970 N 0.42384 0.8428 0.92993 0.0
N1971 N 0.43989 0.88933 0.87409 0.0
H1972 H 0.81661 0.81191 0.37226 0.0
H1973 H 0.7852 0.91835 0.50236 0.0
H1974 H 0.78602 0.81402 0.32921 0.0
H1975 H 0.81581 0.91997 0.45999 0.0
H1976 H 0.78512 0.87911 0.4551 0.0
H1977 H 0.81621 0.85067 0.42055 0.0
C1978 C 0.80979 0.82052 0.37293 0.0
C1979 C 0.80133 0.80969 0.34652 0.0
C1980 C 0.79183 0.88814 0.45619 0.0
C1981 C 0.80082 0.85418 0.40235 0.0
C1982 C 0.79189 0.91046 0.48359 0.0
C1983 C 0.80052 0.92246 0.48497 0.0
C1984 C 0.80048 0.87778 0.43134 0.0
C1985 C 0.80898 0.91144 0.4595 0.0
C1986 C 0.80958 0.8427 0.40032 0.0
C1987 C 0.79272 0.82177 0.34852 0.0
N1988 N 0.80874 0.88974 0.43409 0.0
N1989 N 0.79267 0.84339 0.37646 0.0
H1990 H 0.44686 0.31368 0.47814 0.0
H1991 H 0.41512 0.41997 0.35411 0.0
H1992 H 0.41618 0.31155 0.44089 0.0
H1993 H 0.44554 0.4175 0.30156 0.0
H1994 H 0.4156 0.38105 0.40129 0.0
H1995 H 0.44675 0.35279 0.42922 0.0
C1996 C 0.44011 0.32144 0.46013 0.0
C1997 C 0.43152 0.30933 0.46349 0.0
C1998 C 0.42217 0.38898 0.37907 0.0
C1999 C 0.43135 0.35388 0.40796 0.0
C2000 C 0.42191 0.41122 0.35227 0.0
C2001 C 0.4303 0.42199 0.32368 0.0
C2002 C 0.43091 0.37743 0.37848 0.0
C2003 C 0.43889 0.40979 0.32255 0.0
C2004 C 0.44006 0.34368 0.43175 0.0
C2005 C 0.42299 0.32017 0.43889 0.0
N2006 N 0.43899 0.38815 0.35019 0.0
N2007 N 0.42312 0.34182 0.41257 0.0
H2008 H 0.19753 0.56432 0.08303 0.0
H2009 H 0.16645 0.67142 0.21029 0.0
H2010 H 0.16695 0.56316 0.12724 0.0
H2011 H 0.19707 0.66909 0.25153 0.0
H2012 H 0.16674 0.63251 0.16427 0.0
H2013 H 0.19773 0.60361 0.12925 0.0
C2014 C 0.19087 0.57231 0.10206 0.0
C2015 C 0.18221 0.56042 0.10137 0.0
C2016 C 0.1734 0.64046 0.18363 0.0
C2017 C 0.1824 0.60519 0.15381 0.0
C2018 C 0.17325 0.66273 0.20968 0.0
C2019 C 0.18176 0.67356 0.23489 0.0
C2020 C 0.18212 0.62887 0.1817 0.0
C2021 C 0.19034 0.66136 0.23309 0.0
C2022 C 0.191 0.59467 0.12885 0.0
C2023 C 0.1738 0.57159 0.12714 0.0
N2024 N 0.19032 0.63964 0.20643 0.0
N2025 N 0.1741 0.59333 0.15193 0.0
H2026 H 0.5352 0.0636 0.24615 0.0
H2027 H 0.56612 0.17067 0.11496 0.0
H2028 H 0.56574 0.06212 0.19923 0.0
H2029 H 0.53548 0.16803 0.0754 0.0
H2030 H 0.56593 0.13174 0.16151 0.0
H2031 H 0.535 0.10283 0.19935 0.0
C2032 C 0.54186 0.07152 0.22641 0.0
C2033 C 0.5505 0.05954 0.22656 0.0
C2034 C 0.55925 0.13963 0.14241 0.0
C2035 C 0.55031 0.1043 0.17338 0.0
C2036 C 0.55934 0.16191 0.11606 0.0
C2037 C 0.55079 0.17266 0.09113 0.0
C2038 C 0.55055 0.12797 0.145 0.0
C2039 C 0.54224 0.16038 0.09359 0.0
C2040 C 0.54173 0.09384 0.19928 0.0
C2041 C 0.5589 0.07062 0.19983 0.0
N2042 N 0.54232 0.13868 0.12058 0.0
N2043 N 0.5586 0.09236 0.17472 0.0
H2044 H 0.16588 0.06307 0.61588 0.0
H2045 H 0.1968 0.16948 0.75422 0.0
H2046 H 0.19658 0.06524 0.58082 0.0
H2047 H 0.16631 0.17115 0.70471 0.0
H2048 H 0.19704 0.13039 0.70548 0.0
H2049 H 0.16609 0.10192 0.66285 0.0
C2050 C 0.17268 0.07172 0.618 0.0
C2051 C 0.18123 0.06087 0.5944 0.0
C2052 C 0.19032 0.13939 0.70526 0.0
C2053 C 0.18151 0.10547 0.64875 0.0
C2054 C 0.19016 0.16163 0.73353 0.0
C2055 C 0.18152 0.17361 0.73352 0.0
C2056 C 0.18176 0.12906 0.67804 0.0
C2057 C 0.17314 0.16264 0.70551 0.0
C2058 C 0.17279 0.09396 0.6446 0.0
C2059 C 0.18982 0.07301 0.59801 0.0
N2060 N 0.17347 0.14099 0.67929 0.0
N2061 N 0.18975 0.09468 0.6253 0.0
H2062 H 0.56764 0.5638 0.7397 0.0
H2063 H 0.53577 0.66896 0.60233 0.0
H2064 H 0.53701 0.56533 0.7803 0.0
H2065 H 0.56637 0.67181 0.64469 0.0
H2066 H 0.53591 0.63014 0.65512 0.0
H2067 H 0.56716 0.60281 0.69381 0.0
C2068 C 0.56081 0.57238 0.73948 0.0
C2069 C 0.55235 0.56128 0.76396 0.0
C2070 C 0.54257 0.63935 0.65295 0.0
C2071 C 0.55174 0.60596 0.71028 0.0
C2072 C 0.54251 0.66144 0.62232 0.0
C2073 C 0.55107 0.67368 0.61908 0.0
C2074 C 0.55127 0.62943 0.67926 0.0
C2075 C 0.55958 0.66311 0.64635 0.0
C2076 C 0.56055 0.59468 0.71332 0.0
C2077 C 0.54371 0.57329 0.76252 0.0
N2078 N 0.55946 0.64161 0.67485 0.0
N2079 N 0.54361 0.59496 0.73532 0.0
H2080 H 0.28759 0.17031 0.19954 0.0
H2081 H 0.31864 0.06242 0.08534 0.0
H2082 H 0.3182 0.16821 0.24143 0.0
H2083 H 0.28812 0.06121 0.13359 0.0
H2084 H 0.31881 0.10203 0.12644 0.0
H2085 H 0.28785 0.13099 0.15946 0.0
C2086 C 0.29438 0.16157 0.20037 0.0
C2087 C 0.30289 0.17257 0.22393 0.0
C2088 C 0.3121 0.09301 0.12806 0.0
C2089 C 0.30323 0.12747 0.17749 0.0
C2090 C 0.31198 0.07048 0.10414 0.0
C2091 C 0.30335 0.05849 0.10608 0.0
C2092 C 0.30351 0.10361 0.15275 0.0
C2093 C 0.29494 0.06973 0.1315 0.0
C2094 C 0.29451 0.13908 0.17771 0.0
C2095 C 0.31147 0.16034 0.22418 0.0
N2096 N 0.29523 0.09165 0.15344 0.0
N2097 N 0.31143 0.13841 0.20071 0.0
H2098 H 0.93378 0.17826 0.24447 0.0
H2099 H 0.93392 0.05457 0.07924 0.0
H2100 H 0.92306 0.16253 0.97393 0.0
H2101 H 0.92287 0.07039 0.34852 0.0
H2102 H 0.93317 0.09424 1.03853 0.0
H2103 H 0.93301 0.1386 0.2849 0.0
C2104 C 0.93129 0.16641 0.19364 0.0
C2105 C 0.92849 0.17353 0.10577 0.0
C2106 C 0.93089 0.08893 0.10631 0.0
C2107 C 0.92778 0.12844 0.15086 0.0
C2108 C 0.93136 0.06644 0.12975 0.0
C2109 C 0.92846 0.05934 0.21735 0.0
C2110 C 0.92778 0.10442 0.17194 0.0
C2111 C 0.92513 0.07527 0.2802 0.0
C2112 C 0.9308 0.14391 0.21691 0.0
C2113 C 0.92524 0.15762 0.04248 0.0
N2114 N 0.92502 0.0972 0.25677 0.0
N2115 N 0.92511 0.13568 0.06577 0.0
H2116 H 0.69476 0.92316 0.95423 0.0
H2117 H 0.66388 0.81519 0.83873 0.0
H2118 H 0.66416 0.92083 0.99657 0.0
H2119 H 0.69441 0.81415 0.8865 0.0
H2120 H 0.66364 0.85475 0.88057 0.0
H2121 H 0.69456 0.88387 0.91365 0.0
C2122 C 0.68798 0.91438 0.95507 0.0
C2123 C 0.67945 0.9253 0.97886 0.0
C2124 C 0.67037 0.84578 0.88192 0.0
C2125 C 0.67919 0.88024 0.93186 0.0
C2126 C 0.67053 0.82328 0.85757 0.0
C2127 C 0.67918 0.81135 0.85916 0.0
C2128 C 0.67895 0.85641 0.9067 0.0
C2129 C 0.68757 0.82262 0.88466 0.0
C2130 C 0.68789 0.89191 0.93213 0.0
C2131 C 0.6709 0.91301 0.97912 0.0
N2132 N 0.68724 0.84451 0.90703 0.0
N2133 N 0.67097 0.8911 0.95537 0.0
H2134 H 0.03784 0.9213 0.88506 0.0
H2135 H 0.069 0.81339 0.99664 0.0
H2136 H 0.06841 0.91925 0.84061 0.0
H2137 H 0.03846 0.81215 0.94928 0.0
H2138 H 0.06913 0.85306 0.9563 0.0
H2139 H 0.03815 0.88197 0.92522 0.0
C2140 C 0.04463 0.91257 0.88368 0.0
C2141 C 0.05312 0.92358 0.85936 0.0
C2142 C 0.06242 0.84402 0.95474 0.0
C2143 C 0.05352 0.87849 0.90591 0.0
C2144 C 0.06233 0.82146 0.97823 0.0
C2145 C 0.05371 0.80944 0.97622 0.0
C2146 C 0.05382 0.85462 0.93045 0.0
C2147 C 0.04528 0.82069 0.95135 0.0
C2148 C 0.04479 0.89009 0.90639 0.0
C2149 C 0.0617 0.91137 0.85845 0.0
N2150 N 0.04555 0.84263 0.92981 0.0
N2151 N 0.06169 0.88944 0.88197 0.0
H2152 H 0.31932 0.66865 0.73959 0.0
H2153 H 0.2879 0.56142 0.6246 0.0
H2154 H 0.2888 0.67038 0.69159 0.0
H2155 H 0.31852 0.56282 0.58244 0.0
H2156 H 0.28832 0.60069 0.66529 0.0
H2157 H 0.31938 0.62903 0.69841 0.0
C2158 C 0.31264 0.6607 0.72086 0.0
C2159 C 0.30404 0.67284 0.71892 0.0
C2160 C 0.29495 0.59246 0.64685 0.0
C2161 C 0.30407 0.62772 0.67217 0.0
C2162 C 0.29473 0.56999 0.62383 0.0
C2163 C 0.3032 0.55881 0.60002 0.0
C2164 C 0.30371 0.60387 0.64718 0.0
C2165 C 0.31182 0.57085 0.59987 0.0
C2166 C 0.31269 0.63817 0.69689 0.0
C2167 C 0.29561 0.66174 0.69363 0.0
N2168 N 0.31187 0.59276 0.62369 0.0
N2169 N 0.29583 0.63982 0.67162 0.0
H2170 H 0.9345 0.67858 0.746 0.0
H2171 H 0.93462 0.55459 0.58378 0.0
H2172 H 0.92382 0.66238 0.47578 0.0
H2173 H 0.9236 0.57083 0.85275 0.0
H2174 H 0.93392 0.5942 0.54218 0.0
H2175 H 0.93376 0.63897 0.78744 0.0
C2176 C 0.93203 0.66664 0.69543 0.0
C2177 C 0.92923 0.67361 0.60736 0.0
C2178 C 0.93164 0.589 0.61009 0.0
C2179 C 0.92855 0.62858 0.65362 0.0
C2180 C 0.93209 0.56654 0.63405 0.0
C2181 C 0.92918 0.55958 0.72182 0.0
C2182 C 0.92855 0.6046 0.67537 0.0
C2183 C 0.92587 0.57561 0.78432 0.0
C2184 C 0.93156 0.64417 0.71928 0.0
C2185 C 0.926 0.65759 0.54445 0.0
N2186 N 0.92578 0.59751 0.76037 0.0
N2187 N 0.92589 0.63568 0.56833 0.0
H2188 H 0.69474 0.42301 0.45076 0.0
H2189 H 0.66338 0.31537 0.34069 0.0
H2190 H 0.66411 0.42138 0.4919 0.0
H2191 H 0.69388 0.31355 0.38999 0.0
H2192 H 0.66337 0.35511 0.37915 0.0
H2193 H 0.6944 0.38359 0.41174 0.0
C2194 C 0.68793 0.41437 0.4516 0.0
C2195 C 0.67944 0.42552 0.47474 0.0
C2196 C 0.67005 0.34594 0.38156 0.0
C2197 C 0.67901 0.38034 0.42954 0.0
C2198 C 0.67007 0.32332 0.35916 0.0
C2199 C 0.67865 0.31112 0.36225 0.0
C2200 C 0.67867 0.35642 0.40589 0.0
C2201 C 0.68709 0.32224 0.38712 0.0
C2202 C 0.68776 0.39183 0.42957 0.0
C2203 C 0.67084 0.4134 0.47499 0.0
N2204 N 0.68689 0.34426 0.40762 0.0
N2205 N 0.67083 0.39144 0.45219 0.0
H2206 H 0.03764 0.3117 0.44972 0.0
H2207 H 0.06882 0.41943 0.33768 0.0
H2208 H 0.06825 0.31349 0.49165 0.0
H2209 H 0.03832 0.42096 0.38677 0.0
H2210 H 0.06893 0.37977 0.37781 0.0
H2211 H 0.03794 0.35108 0.41051 0.0
C2212 C 0.04444 0.32038 0.45072 0.0
C2213 C 0.05294 0.30928 0.47405 0.0
C2214 C 0.06223 0.38887 0.37983 0.0
C2215 C 0.05333 0.35444 0.42863 0.0
C2216 C 0.06215 0.41143 0.35647 0.0
C2217 C 0.05355 0.42352 0.35892 0.0
C2218 C 0.05363 0.37834 0.40448 0.0
C2219 C 0.04513 0.41236 0.3843 0.0
C2220 C 0.04459 0.3429 0.42857 0.0
C2221 C 0.06153 0.32144 0.47454 0.0
N2222 N 0.04538 0.39039 0.40569 0.0
N2223 N 0.06151 0.3434 0.45158 0.0
H2224 H 0.81852 0.06301 0.58275 0.0
H2225 H 0.78758 0.17106 0.69725 0.0
H2226 H 0.78803 0.06193 0.63262 0.0
H2227 H 0.81822 0.16893 0.73749 0.0
H2228 H 0.78781 0.13175 0.65716 0.0
H2229 H 0.81873 0.10267 0.62284 0.0
C2230 C 0.81188 0.07111 0.60166 0.0
C2231 C 0.80324 0.05914 0.60442 0.0
C2232 C 0.79448 0.13984 0.67502 0.0
C2233 C 0.80345 0.10432 0.64995 0.0
C2234 C 0.79437 0.16233 0.69768 0.0
C2235 C 0.8029 0.17331 0.72083 0.0
C2236 C 0.8032 0.12821 0.6744 0.0
C2237 C 0.81147 0.16107 0.72057 0.0
C2238 C 0.81202 0.09367 0.62501 0.0
C2239 C 0.79486 0.07043 0.62994 0.0
N2240 N 0.81142 0.13914 0.69715 0.0
N2241 N 0.79517 0.09239 0.65134 0.0
H2242 H 0.41389 0.16913 0.57321 0.0
H2243 H 0.44486 0.06183 0.69852 0.0
H2244 H 0.4444 0.17061 0.62208 0.0
H2245 H 0.4142 0.0641 0.73668 0.0
H2246 H 0.44466 0.10101 0.65591 0.0
H2247 H 0.41371 0.12977 0.61797 0.0
C2248 C 0.42055 0.16118 0.59288 0.0
C2249 C 0.42918 0.17317 0.59389 0.0
C2250 C 0.43797 0.09299 0.67394 0.0
C2251 C 0.429 0.12832 0.64488 0.0
C2252 C 0.43807 0.07058 0.69805 0.0
C2253 C 0.42952 0.05966 0.72118 0.0
C2254 C 0.42926 0.10459 0.67179 0.0
C2255 C 0.42096 0.07191 0.71977 0.0
C2256 C 0.42042 0.13879 0.61892 0.0
C2257 C 0.43757 0.16207 0.62057 0.0
N2258 N 0.42103 0.09374 0.69484 0.0
N2259 N 0.43728 0.14028 0.64462 0.0
H2260 H 0.1639 0.91998 0.49666 0.0
H2261 H 0.19509 0.81246 0.38041 0.0
H2262 H 0.19439 0.92166 0.44689 0.0
H2263 H 0.16447 0.81444 0.33925 0.0
H2264 H 0.19481 0.85176 0.42109 0.0
H2265 H 0.16382 0.88039 0.45565 0.0
C2266 C 0.17058 0.91202 0.47759 0.0
C2267 C 0.17917 0.92414 0.47512 0.0
C2268 C 0.18815 0.84363 0.40286 0.0
C2269 C 0.17911 0.87903 0.42851 0.0
C2270 C 0.1883 0.82116 0.37987 0.0
C2271 C 0.17979 0.81014 0.35634 0.0
C2272 C 0.17942 0.85519 0.40347 0.0
C2273 C 0.1712 0.82233 0.35647 0.0
C2274 C 0.17051 0.8895 0.45371 0.0
C2275 C 0.18759 0.91303 0.44937 0.0
N2276 N 0.17122 0.84423 0.38026 0.0
N2277 N 0.18735 0.8911 0.42743 0.0
H2278 H 0.56865 0.81371 0.50125 0.0
H2279 H 0.53752 0.92038 0.37018 0.0
H2280 H 0.53818 0.81182 0.45054 0.0
H2281 H 0.56822 0.91861 0.33428 0.0
H2282 H 0.5378 0.88126 0.41347 0.0
H2283 H 0.5688 0.85295 0.45458 0.0
C2284 C 0.562 0.82154 0.48077 0.0
C2285 C 0.55339 0.80945 0.47986 0.0
C2286 C 0.54448 0.88937 0.39577 0.0
C2287 C 0.55353 0.8542 0.42667 0.0
C2288 C 0.54434 0.91175 0.37125 0.0
C2289 C 0.55287 0.9228 0.34861 0.0
C2290 C 0.55323 0.8779 0.39888 0.0
C2291 C 0.56147 0.91069 0.35079 0.0
C2292 C 0.5621 0.84387 0.45364 0.0
C2293 C 0.54499 0.82042 0.45207 0.0
N2294 N 0.56145 0.88887 0.37618 0.0
N2295 N 0.54527 0.84215 0.427 0.0
H2296 H 0.78804 0.67108 0.19931 0.0
H2297 H 0.81889 0.56292 0.08512 0.0
H2298 H 0.81866 0.66874 0.23987 0.0
H2299 H 0.78839 0.56183 0.13492 0.0
H2300 H 0.81911 0.60253 0.12556 0.0
H2301 H 0.78821 0.63172 0.15973 0.0
C2302 C 0.79481 0.66228 0.19993 0.0
C2303 C 0.80336 0.67322 0.22297 0.0
C2304 C 0.81239 0.59355 0.12767 0.0
C2305 C 0.80359 0.62809 0.17712 0.0
C2306 C 0.81224 0.571 0.10412 0.0
C2307 C 0.80361 0.55904 0.10669 0.0
C2308 C 0.80382 0.6042 0.15266 0.0
C2309 C 0.79522 0.57033 0.13234 0.0
C2310 C 0.79489 0.63977 0.17758 0.0
C2311 C 0.81191 0.66091 0.223 0.0
N2312 N 0.79554 0.59228 0.15394 0.0
N2313 N 0.81182 0.63897 0.19983 0.0
H2314 H 0.41435 0.56408 0.25034 0.0
H2315 H 0.4455 0.67203 0.13815 0.0
H2316 H 0.44504 0.56306 0.21342 0.0
H2317 H 0.41498 0.66922 0.091 0.0
H2318 H 0.44526 0.63302 0.18309 0.0
H2319 H 0.41428 0.60372 0.21064 0.0
C2320 C 0.42108 0.57222 0.23489 0.0
C2321 C 0.42972 0.56025 0.23516 0.0
C2322 C 0.43862 0.6409 0.1627 0.0
C2323 C 0.42967 0.60543 0.18954 0.0
C2324 C 0.43873 0.66322 0.13716 0.0
C2325 C 0.43023 0.67393 0.11066 0.0
C2326 C 0.42993 0.62918 0.16275 0.0
C2327 C 0.4217 0.66158 0.11046 0.0
C2328 C 0.42102 0.59478 0.21156 0.0
C2329 C 0.43821 0.5716 0.21374 0.0
N2330 N 0.42175 0.63983 0.1366 0.0
N2331 N 0.43797 0.59355 0.19196 0.0
H2332 H 0.19448 0.31224 0.88074 0.0
H2333 H 0.16373 0.42035 0.99835 0.0
H2334 H 0.16386 0.3146 0.84015 0.0
H2335 H 0.19425 0.42108 0.94954 0.0
H2336 H 0.16342 0.3808 0.95635 0.0
H2337 H 0.1943 0.35148 0.92171 0.0
C2338 C 0.1877 0.32102 0.88037 0.0
C2339 C 0.17916 0.31012 0.85695 0.0
C2340 C 0.17016 0.3897 0.95481 0.0
C2341 C 0.17892 0.35515 0.90439 0.0
C2342 C 0.17036 0.4122 0.97926 0.0
C2343 C 0.17903 0.42404 0.97741 0.0
C2344 C 0.17871 0.37899 0.92967 0.0
C2345 C 0.18739 0.41268 0.95159 0.0
C2346 C 0.18762 0.34347 0.90354 0.0
C2347 C 0.17061 0.32242 0.85729 0.0
N2348 N 0.18702 0.3908 0.92913 0.0
N2349 N 0.17069 0.34431 0.88125 0.0
H2350 H 0.56774 0.31364 0.98046 0.0
H2351 H 0.53628 0.41982 0.8501 0.0
H2352 H 0.53731 0.31078 0.92799 0.0
H2353 H 0.56704 0.41859 0.82025 0.0
H2354 H 0.53656 0.38029 0.88816 0.0
H2355 H 0.56769 0.35281 0.93321 0.0
C2356 C 0.56105 0.32124 0.95943 0.0
C2357 C 0.55251 0.3089 0.9583 0.0
C2358 C 0.54325 0.38862 0.87263 0.0
C2359 C 0.55243 0.35358 0.90425 0.0
C2360 C 0.54309 0.4112 0.85093 0.0
C2361 C 0.55165 0.42254 0.83201 0.0
C2362 C 0.55204 0.3773 0.87678 0.0
C2363 C 0.56027 0.41048 0.8339 0.0
C2364 C 0.56105 0.34353 0.93192 0.0
C2365 C 0.54407 0.31958 0.92976 0.0
N2366 N 0.56026 0.38853 0.85679 0.0
N2367 N 0.54424 0.3413 0.90431 0.0
loop_
_geom_bond_atom_site_label_1
_geom_bond_atom_site_label_2
_geom_bond_distance
_geom_bond_site_symmetry_2
_ccdc_geom_bond_type
Tb0 O3 2.453 . S
Tb0 O4 2.596 . S
Tb0 O5 2.374 . S
Tb0 O13 2.343 . S
Tb0 O15 2.353 . S
Tb0 O17 2.427 . S
Tb0 O18 2.513 . S
C1 O5 1.251 . S
C1 O7 1.263 . S
Tb2 O4 2.343 . S
Tb2 O7 2.353 . S
Tb2 O10 2.427 . S
Tb2 O11 2.513 . S
Tb2 O12 2.453 . S
Tb2 O13 2.596 . S
Tb2 O14 2.374 . S
O3 Tb0 2.453 . S
O3 C19 1.245 . S
O4 Tb0 2.596 . S
O4 Tb2 2.343 . S
O4 C19 1.259 . S
O5 Tb0 2.374 . S
O5 C1 1.251 . S
C6 O10 1.275 . S
C6 O11 1.246 . S
O7 C1 1.263 . S
O7 Tb2 2.353 . S
C8 O12 1.245 . S
C8 O13 1.259 . S
C9 O14 1.250 . S
C9 O15 1.263 . S
O10 Tb2 2.427 . S
O10 C6 1.275 . S
O11 Tb2 2.513 . S
O11 C6 1.246 . S
O12 Tb2 2.453 . S
O12 C8 1.245 . S
O13 Tb0 2.343 . S
O13 Tb2 2.596 . S
O13 C8 1.259 . S
O14 Tb2 2.374 . S
O14 C9 1.250 . S
O15 Tb0 2.353 . S
O15 C9 1.263 . S
C16 O17 1.275 . S
C16 O18 1.246 . S
O17 Tb0 2.427 . S
O17 C16 1.275 . S
O18 Tb0 2.513 . S
O18 C16 1.246 . S
C19 O3 1.245 . S
C19 O4 1.259 . S
Tb20 O23 2.453 . S
Tb20 O24 2.594 1_545 S
Tb20 O25 2.374 1_545 S
Tb20 O33 2.343 1_545 S
Tb20 O35 2.353 . S
Tb20 O37 2.427 . S
Tb20 O38 2.513 1_545 S
C21 O25 1.251 . S
C21 O27 1.263 . S
Tb22 O24 2.348 . S
Tb22 O27 2.353 . S
Tb22 O30 2.427 . S
Tb22 O31 2.513 1_565 S
Tb22 O32 2.453 . S
Tb22 O33 2.596 . S
Tb22 O34 2.374 1_565 S
O23 Tb20 2.453 . S
O23 C39 1.251 . S
O24 Tb20 2.594 1_565 S
O24 Tb22 2.348 . S
O24 C39 1.257 1_565 S
O25 Tb20 2.374 1_565 S
O25 C21 1.251 . S
C26 O30 1.275 . S
C26 O31 1.246 1_565 S
O27 C21 1.263 . S
O27 Tb22 2.353 . S
C28 O32 1.245 . S
C28 O33 1.259 . S
C29 O34 1.250 . S
C29 O35 1.263 . S
O30 Tb22 2.427 . S
O30 C26 1.275 . S
O31 Tb22 2.513 1_545 S
O31 C26 1.246 1_545 S
O32 Tb22 2.453 . S
O32 C28 1.245 . S
O33 Tb20 2.343 1_565 S
O33 Tb22 2.596 . S
O33 C28 1.259 . S
O34 Tb22 2.374 1_545 S
O34 C29 1.250 . S
O35 Tb20 2.353 . S
O35 C29 1.263 . S
C36 O37 1.275 1_565 S
C36 O38 1.246 . S
O37 Tb20 2.427 . S
O37 C36 1.275 1_545 S
O38 Tb20 2.513 1_565 S
O38 C36 1.246 . S
C39 O23 1.251 . S
C39 O24 1.257 1_545 S
Tb40 O43 2.453 1_554 S
Tb40 O44 2.594 1_544 S
Tb40 O45 2.374 1_544 S
Tb40 O53 2.343 1_545 S
Tb40 O55 2.353 . S
Tb40 O57 2.427 . S
Tb40 O58 2.513 1_545 S
C41 O45 1.251 . S
C41 O47 1.263 1_556 S
Tb42 O44 2.348 1_554 S
Tb42 O47 2.353 . S
Tb42 O50 2.427 1_554 S
Tb42 O51 2.513 1_564 S
Tb42 O52 2.453 . S
Tb42 O53 2.596 . S
Tb42 O54 2.374 1_565 S
O43 Tb40 2.453 1_556 S
O43 C59 1.251 . S
O44 Tb40 2.594 1_566 S
O44 Tb42 2.348 1_556 S
O44 C59 1.257 1_565 S
O45 Tb40 2.374 1_566 S
O45 C41 1.251 . S
C46 O50 1.275 . S
C46 O51 1.246 1_565 S
O47 C41 1.263 1_554 S
O47 Tb42 2.353 . S
C48 O52 1.245 . S
C48 O53 1.259 . S
C49 O54 1.250 . S
C49 O55 1.263 . S
O50 Tb42 2.427 1_556 S
O50 C46 1.275 . S
O51 Tb42 2.513 1_546 S
O51 C46 1.246 1_545 S
O52 Tb42 2.453 . S
O52 C48 1.245 . S
O53 Tb40 2.343 1_565 S
O53 Tb42 2.596 . S
O53 C48 1.259 . S
O54 Tb42 2.374 1_545 S
O54 C49 1.250 . S
O55 Tb40 2.353 . S
O55 C49 1.263 . S
C56 O57 1.275 1_565 S
C56 O58 1.246 . S
O57 Tb40 2.427 . S
O57 C56 1.275 1_545 S
O58 Tb40 2.513 1_565 S
O58 C56 1.246 . S
C59 O43 1.251 . S
C59 O44 1.257 1_545 S
Tb60 O63 2.453 1_554 S
Tb60 O64 2.596 1_554 S
Tb60 O65 2.374 1_554 S
Tb60 O73 2.343 . S
Tb60 O75 2.353 . S
Tb60 O77 2.427 . S
Tb60 O78 2.513 . S
C61 O65 1.251 . S
C61 O67 1.263 1_556 S
Tb62 O64 2.343 1_554 S
Tb62 O67 2.353 . S
Tb62 O70 2.427 1_554 S
Tb62 O71 2.513 1_554 S
Tb62 O72 2.453 . S
Tb62 O73 2.596 . S
Tb62 O74 2.374 . S
O63 Tb60 2.453 1_556 S
O63 C79 1.245 . S
O64 Tb60 2.596 1_556 S
O64 Tb62 2.343 1_556 S
O64 C79 1.259 . S
O65 Tb60 2.374 1_556 S
O65 C61 1.251 . S
C66 O70 1.275 . S
C66 O71 1.246 . S
O67 C61 1.263 1_554 S
O67 Tb62 2.353 . S
C68 O72 1.245 . S
C68 O73 1.259 . S
C69 O74 1.250 . S
C69 O75 1.263 . S
O70 Tb62 2.427 1_556 S
O70 C66 1.275 . S
O71 Tb62 2.513 1_556 S
O71 C66 1.246 . S
O72 Tb62 2.453 . S
O72 C68 1.245 . S
O73 Tb60 2.343 . S
O73 Tb62 2.596 . S
O73 C68 1.259 . S
O74 Tb62 2.374 . S
O74 C69 1.250 . S
O75 Tb60 2.353 . S
O75 C69 1.263 . S
C76 O77 1.275 . S
C76 O78 1.246 . S
O77 Tb60 2.427 . S
O77 C76 1.275 . S
O78 Tb60 2.513 . S
O78 C76 1.246 . S
C79 O63 1.245 . S
C79 O64 1.259 . S
Tb80 O83 2.453 . S
Tb80 O84 2.596 . S
Tb80 O85 2.374 . S
Tb80 O93 2.343 . S
Tb80 O95 2.353 . S
Tb80 O97 2.427 . S
Tb80 O98 2.513 . S
C81 O85 1.251 . S
C81 O87 1.263 . S
Tb82 O84 2.343 . S
Tb82 O87 2.353 . S
Tb82 O90 2.427 . S
Tb82 O91 2.513 . S
Tb82 O92 2.453 . S
Tb82 O93 2.596 . S
Tb82 O94 2.374 . S
O83 Tb80 2.453 . S
O83 C99 1.245 . S
O84 Tb80 2.596 . S
O84 Tb82 2.343 . S
O84 C99 1.259 . S
O85 Tb80 2.374 . S
O85 C81 1.251 . S
C86 O90 1.275 . S
C86 O91 1.246 . S
O87 C81 1.263 . S
O87 Tb82 2.353 . S
C88 O92 1.245 . S
C88 O93 1.259 . S
C89 O94 1.250 . S
C89 O95 1.263 . S
O90 Tb82 2.427 . S
O90 C86 1.275 . S
O91 Tb82 2.513 . S
O91 C86 1.246 . S
O92 Tb82 2.453 . S
O92 C88 1.245 . S
O93 Tb80 2.343 . S
O93 Tb82 2.596 . S
O93 C88 1.259 . S
O94 Tb82 2.374 . S
O94 C89 1.250 . S
O95 Tb80 2.353 . S
O95 C89 1.263 . S
C96 O97 1.275 . S
C96 O98 1.246 . S
O97 Tb80 2.427 . S
O97 C96 1.275 . S
O98 Tb80 2.513 . S
O98 C96 1.246 . S
C99 O83 1.245 . S
C99 O84 1.259 . S
Tb100 O103 2.453 . S
Tb100 O104 2.596 . S
Tb100 O105 2.374 1_545 S
Tb100 O113 2.348 . S
Tb100 O115 2.353 . S
Tb100 O117 2.427 . S
Tb100 O118 2.513 1_545 S
C101 O105 1.251 . S
C101 O107 1.263 . S
Tb102 O104 2.343 1_565 S
Tb102 O107 2.353 . S
Tb102 O110 2.427 . S
Tb102 O111 2.513 1_565 S
Tb102 O112 2.453 . S
Tb102 O113 2.594 1_565 S
Tb102 O114 2.374 1_565 S
O103 Tb100 2.453 . S
O103 C119 1.245 . S
O104 Tb100 2.596 . S
O104 Tb102 2.343 1_545 S
O104 C119 1.259 . S
O105 Tb100 2.374 1_565 S
O105 C101 1.251 . S
C106 O110 1.275 1_545 S
C106 O111 1.246 . S
O107 C101 1.263 . S
O107 Tb102 2.353 . S
C108 O112 1.251 . S
C108 O113 1.257 1_565 S
C109 O114 1.250 . S
C109 O115 1.263 . S
O110 Tb102 2.427 . S
O110 C106 1.275 1_565 S
O111 Tb102 2.513 1_545 S
O111 C106 1.246 . S
O112 Tb102 2.453 . S
O112 C108 1.251 . S
O113 Tb100 2.348 . S
O113 Tb102 2.594 1_545 S
O113 C108 1.257 1_545 S
O114 Tb102 2.374 1_545 S
O114 C109 1.250 . S
O115 Tb100 2.353 . S
O115 C109 1.263 . S
C116 O117 1.275 . S
C116 O118 1.246 1_545 S
O117 Tb100 2.427 . S
O117 C116 1.275 . S
O118 Tb100 2.513 1_565 S
O118 C116 1.246 1_565 S
C119 O103 1.245 . S
C119 O104 1.259 . S
Tb120 O123 2.453 . S
Tb120 O124 2.596 . S
Tb120 O125 2.374 1_545 S
Tb120 O133 2.348 1_556 S
Tb120 O135 2.353 . S
Tb120 O137 2.427 1_556 S
Tb120 O138 2.513 1_546 S
C121 O125 1.251 . S
C121 O127 1.263 . S
Tb122 O124 2.343 1_565 S
Tb122 O127 2.353 . S
Tb122 O130 2.427 . S
Tb122 O131 2.513 1_565 S
Tb122 O132 2.453 1_556 S
Tb122 O133 2.594 1_566 S
Tb122 O134 2.374 1_566 S
O123 Tb120 2.453 . S
O123 C139 1.245 . S
O124 Tb120 2.596 . S
O124 Tb122 2.343 1_545 S
O124 C139 1.259 . S
O125 Tb120 2.374 1_565 S
O125 C121 1.251 . S
C126 O130 1.275 1_545 S
C126 O131 1.246 . S
O127 C121 1.263 . S
O127 Tb122 2.353 . S
C128 O132 1.251 . S
C128 O133 1.257 1_565 S
C129 O134 1.250 . S
C129 O135 1.263 1_554 S
O130 Tb122 2.427 . S
O130 C126 1.275 1_565 S
O131 Tb122 2.513 1_545 S
O131 C126 1.246 . S
O132 Tb122 2.453 1_554 S
O132 C128 1.251 . S
O133 Tb120 2.348 1_554 S
O133 Tb122 2.594 1_544 S
O133 C128 1.257 1_545 S
O134 Tb122 2.374 1_544 S
O134 C129 1.250 . S
O135 Tb120 2.353 . S
O135 C129 1.263 1_556 S
C136 O137 1.275 . S
C136 O138 1.246 1_545 S
O137 Tb120 2.427 1_554 S
O137 C136 1.275 . S
O138 Tb120 2.513 1_564 S
O138 C136 1.246 1_565 S
C139 O123 1.245 . S
C139 O124 1.259 . S
Tb140 O143 2.453 . S
Tb140 O144 2.596 . S
Tb140 O145 2.374 . S
Tb140 O153 2.343 1_556 S
Tb140 O155 2.353 . S
Tb140 O157 2.427 1_556 S
Tb140 O158 2.513 1_556 S
C141 O145 1.251 . S
C141 O147 1.263 . S
Tb142 O144 2.343 . S
Tb142 O147 2.353 . S
Tb142 O150 2.427 . S
Tb142 O151 2.513 . S
Tb142 O152 2.453 1_556 S
Tb142 O153 2.596 1_556 S
Tb142 O154 2.374 1_556 S
O143 Tb140 2.453 . S
O143 C159 1.245 . S
O144 Tb140 2.596 . S
O144 Tb142 2.343 . S
O144 C159 1.259 . S
O145 Tb140 2.374 . S
O145 C141 1.251 . S
C146 O150 1.275 . S
C146 O151 1.246 . S
O147 C141 1.263 . S
O147 Tb142 2.353 . S
C148 O152 1.245 . S
C148 O153 1.259 . S
C149 O154 1.250 . S
C149 O155 1.263 1_554 S
O150 Tb142 2.427 . S
O150 C146 1.275 . S
O151 Tb142 2.513 . S
O151 C146 1.246 . S
O152 Tb142 2.453 1_554 S
O152 C148 1.245 . S
O153 Tb140 2.343 1_554 S
O153 Tb142 2.596 1_554 S
O153 C148 1.259 . S
O154 Tb142 2.374 1_554 S
O154 C149 1.250 . S
O155 Tb140 2.353 . S
O155 C149 1.263 1_556 S
C156 O157 1.275 . S
C156 O158 1.246 . S
O157 Tb140 2.427 1_554 S
O157 C156 1.275 . S
O158 Tb140 2.513 1_554 S
O158 C156 1.246 . S
C159 O143 1.245 . S
C159 O144 1.259 . S
Tb160 O163 2.453 . S
Tb160 O164 2.596 . S
Tb160 O165 2.374 . S
Tb160 O173 2.343 . S
Tb160 O175 2.353 . S
Tb160 O177 2.427 . S
Tb160 O178 2.513 . S
C161 O165 1.251 . S
C161 O167 1.263 . S
Tb162 O164 2.343 . S
Tb162 O167 2.353 . S
Tb162 O170 2.427 . S
Tb162 O171 2.513 . S
Tb162 O172 2.453 . S
Tb162 O173 2.596 . S
Tb162 O174 2.374 . S
O163 Tb160 2.453 . S
O163 C179 1.245 . S
O164 Tb160 2.596 . S
O164 Tb162 2.343 . S
O164 C179 1.259 . S
O165 Tb160 2.374 . S
O165 C161 1.251 . S
C166 O170 1.275 . S
C166 O171 1.246 . S
O167 C161 1.263 . S
O167 Tb162 2.353 . S
C168 O172 1.245 . S
C168 O173 1.259 . S
C169 O174 1.250 . S
C169 O175 1.263 . S
O170 Tb162 2.427 . S
O170 C166 1.275 . S
O171 Tb162 2.513 . S
O171 C166 1.246 . S
O172 Tb162 2.453 . S
O172 C168 1.245 . S
O173 Tb160 2.343 . S
O173 Tb162 2.596 . S
O173 C168 1.259 . S
O174 Tb162 2.374 . S
O174 C169 1.250 . S
O175 Tb160 2.353 . S
O175 C169 1.263 . S
C176 O177 1.275 . S
C176 O178 1.246 . S
O177 Tb160 2.427 . S
O177 C176 1.275 . S
O178 Tb160 2.513 . S
O178 C176 1.246 . S
C179 O163 1.245 . S
C179 O164 1.259 . S
Tb180 O183 2.453 . S
Tb180 O184 2.596 . S
Tb180 O185 2.374 . S
Tb180 O193 2.343 . S
Tb180 O195 2.353 . S
Tb180 O197 2.427 . S
Tb180 O198 2.513 . S
C181 O185 1.251 . S
C181 O187 1.263 . S
Tb182 O184 2.343 . S
Tb182 O187 2.353 . S
Tb182 O190 2.427 . S
Tb182 O191 2.513 . S
Tb182 O192 2.453 . S
Tb182 O193 2.596 . S
Tb182 O194 2.374 . S
O183 Tb180 2.453 . S
O183 C199 1.245 . S
O184 Tb180 2.596 . S
O184 Tb182 2.343 . S
O184 C199 1.259 . S
O185 Tb180 2.374 . S
O185 C181 1.251 . S
C186 O190 1.275 . S
C186 O191 1.246 . S
O187 C181 1.263 . S
O187 Tb182 2.353 . S
C188 O192 1.245 . S
C188 O193 1.259 . S
C189 O194 1.250 . S
C189 O195 1.263 . S
O190 Tb182 2.427 . S
O190 C186 1.275 . S
O191 Tb182 2.513 . S
O191 C186 1.246 . S
O192 Tb182 2.453 . S
O192 C188 1.245 . S
O193 Tb180 2.343 . S
O193 Tb182 2.596 . S
O193 C188 1.259 . S
O194 Tb182 2.374 . S
O194 C189 1.250 . S
O195 Tb180 2.353 . S
O195 C189 1.263 . S
C196 O197 1.275 . S
C196 O198 1.246 . S
O197 Tb180 2.427 . S
O197 C196 1.275 . S
O198 Tb180 2.513 . S
O198 C196 1.246 . S
C199 O183 1.245 . S
C199 O184 1.259 . S
Tb200 O203 2.453 . S
Tb200 O204 2.596 . S
Tb200 O205 2.374 . S
Tb200 O213 2.343 . S
Tb200 O215 2.353 . S
Tb200 O217 2.427 . S
Tb200 O218 2.513 . S
C201 O205 1.251 . S
C201 O207 1.263 . S
Tb202 O204 2.343 . S
Tb202 O207 2.353 . S
Tb202 O210 2.427 . S
Tb202 O211 2.513 . S
Tb202 O212 2.453 . S
Tb202 O213 2.596 . S
Tb202 O214 2.374 . S
O203 Tb200 2.453 . S
O203 C219 1.245 . S
O204 Tb200 2.596 . S
O204 Tb202 2.343 . S
O204 C219 1.259 . S
O205 Tb200 2.374 . S
O205 C201 1.251 . S
C206 O210 1.275 . S
C206 O211 1.246 . S
O207 C201 1.263 . S
O207 Tb202 2.353 . S
C208 O212 1.245 . S
C208 O213 1.259 . S
C209 O214 1.250 . S
C209 O215 1.263 . S
O210 Tb202 2.427 . S
O210 C206 1.275 . S
O211 Tb202 2.513 . S
O211 C206 1.246 . S
O212 Tb202 2.453 . S
O212 C208 1.245 . S
O213 Tb200 2.343 . S
O213 Tb202 2.596 . S
O213 C208 1.259 . S
O214 Tb202 2.374 . S
O214 C209 1.250 . S
O215 Tb200 2.353 . S
O215 C209 1.263 . S
C216 O217 1.275 . S
C216 O218 1.246 . S
O217 Tb200 2.427 . S
O217 C216 1.275 . S
O218 Tb200 2.513 . S
O218 C216 1.246 . S
C219 O203 1.245 . S
C219 O204 1.259 . S
Tb220 O223 2.453 . S
Tb220 O224 2.596 . S
Tb220 O225 2.374 . S
Tb220 O233 2.343 . S
Tb220 O235 2.353 . S
Tb220 O237 2.427 . S
Tb220 O238 2.513 . S
C221 O225 1.251 . S
C221 O227 1.263 . S
Tb222 O224 2.343 . S
Tb222 O227 2.353 . S
Tb222 O230 2.427 . S
Tb222 O231 2.513 . S
Tb222 O232 2.453 . S
Tb222 O233 2.596 . S
Tb222 O234 2.374 . S
O223 Tb220 2.453 . S
O223 C239 1.245 . S
O224 Tb220 2.596 . S
O224 Tb222 2.343 . S
O224 C239 1.259 . S
O225 Tb220 2.374 . S
O225 C221 1.251 . S
C226 O230 1.275 . S
C226 O231 1.246 . S
O227 C221 1.263 . S
O227 Tb222 2.353 . S
C228 O232 1.245 . S
C228 O233 1.259 . S
C229 O234 1.250 . S
C229 O235 1.263 . S
O230 Tb222 2.427 . S
O230 C226 1.275 . S
O231 Tb222 2.513 . S
O231 C226 1.246 . S
O232 Tb222 2.453 . S
O232 C228 1.245 . S
O233 Tb220 2.343 . S
O233 Tb222 2.596 . S
O233 C228 1.259 . S
O234 Tb222 2.374 . S
O234 C229 1.250 . S
O235 Tb220 2.353 . S
O235 C229 1.263 . S
C236 O237 1.275 . S
C236 O238 1.246 . S
O237 Tb220 2.427 . S
O237 C236 1.275 . S
O238 Tb220 2.513 . S
O238 C236 1.246 . S
C239 O223 1.245 . S
C239 O224 1.259 . S
Tb240 O243 2.453 . S
Tb240 O244 2.596 . S
Tb240 O245 2.374 . S
Tb240 O253 2.343 . S
Tb240 O255 2.353 . S
Tb240 O257 2.427 . S
Tb240 O258 2.513 . S
C241 O245 1.251 . S
C241 O247 1.263 . S
Tb242 O244 2.343 . S
Tb242 O247 2.353 . S
Tb242 O250 2.427 . S
Tb242 O251 2.513 . S
Tb242 O252 2.453 . S
Tb242 O253 2.596 . S
Tb242 O254 2.374 . S
O243 Tb240 2.453 . S
O243 C259 1.245 . S
O244 Tb240 2.596 . S
O244 Tb242 2.343 . S
O244 C259 1.259 . S
O245 Tb240 2.374 . S
O245 C241 1.251 . S
C246 O250 1.275 . S
C246 O251 1.246 . S
O247 C241 1.263 . S
O247 Tb242 2.353 . S
C248 O252 1.245 . S
C248 O253 1.259 . S
C249 O254 1.250 . S
C249 O255 1.263 . S
O250 Tb242 2.427 . S
O250 C246 1.275 . S
O251 Tb242 2.513 . S
O251 C246 1.246 . S
O252 Tb242 2.453 . S
O252 C248 1.245 . S
O253 Tb240 2.343 . S
O253 Tb242 2.596 . S
O253 C248 1.259 . S
O254 Tb242 2.374 . S
O254 C249 1.250 . S
O255 Tb240 2.353 . S
O255 C249 1.263 . S
C256 O257 1.275 . S
C256 O258 1.246 . S
O257 Tb240 2.427 . S
O257 C256 1.275 . S
O258 Tb240 2.513 . S
O258 C256 1.246 . S
C259 O243 1.245 . S
C259 O244 1.259 . S
Tb260 O263 2.453 . S
Tb260 O264 2.596 . S
Tb260 O265 2.374 . S
Tb260 O273 2.343 . S
Tb260 O275 2.353 . S
Tb260 O277 2.427 . S
Tb260 O278 2.513 . S
C261 O265 1.251 . S
C261 O267 1.263 . S
Tb262 O264 2.343 . S
Tb262 O267 2.353 . S
Tb262 O270 2.427 . S
Tb262 O271 2.513 . S
Tb262 O272 2.453 . S
Tb262 O273 2.596 . S
Tb262 O274 2.374 . S
O263 Tb260 2.453 . S
O263 C279 1.245 . S
O264 Tb260 2.596 . S
O264 Tb262 2.343 . S
O264 C279 1.259 . S
O265 Tb260 2.374 . S
O265 C261 1.251 . S
C266 O270 1.275 . S
C266 O271 1.246 . S
O267 C261 1.263 . S
O267 Tb262 2.353 . S
C268 O272 1.245 . S
C268 O273 1.259 . S
C269 O274 1.250 . S
C269 O275 1.263 . S
O270 Tb262 2.427 . S
O270 C266 1.275 . S
O271 Tb262 2.513 . S
O271 C266 1.246 . S
O272 Tb262 2.453 . S
O272 C268 1.245 . S
O273 Tb260 2.343 . S
O273 Tb262 2.596 . S
O273 C268 1.259 . S
O274 Tb262 2.374 . S
O274 C269 1.250 . S
O275 Tb260 2.353 . S
O275 C269 1.263 . S
C276 O277 1.275 . S
C276 O278 1.246 . S
O277 Tb260 2.427 . S
O277 C276 1.275 . S
O278 Tb260 2.513 . S
O278 C276 1.246 . S
C279 O263 1.245 . S
C279 O264 1.259 . S
Tb280 O283 2.453 . S
Tb280 O284 2.596 . S
Tb280 O285 2.374 . S
Tb280 O293 2.343 . S
Tb280 O295 2.353 . S
Tb280 O297 2.427 . S
Tb280 O298 2.513 . S
C281 O285 1.251 . S
C281 O287 1.263 . S
Tb282 O284 2.343 . S
Tb282 O287 2.353 . S
Tb282 O290 2.427 . S
Tb282 O291 2.513 . S
Tb282 O292 2.453 . S
Tb282 O293 2.596 . S
Tb282 O294 2.374 . S
O283 Tb280 2.453 . S
O283 C299 1.245 . S
O284 Tb280 2.596 . S
O284 Tb282 2.343 . S
O284 C299 1.259 . S
O285 Tb280 2.374 . S
O285 C281 1.251 . S
C286 O290 1.275 . S
C286 O291 1.246 . S
O287 C281 1.263 . S
O287 Tb282 2.353 . S
C288 O292 1.245 . S
C288 O293 1.259 . S
C289 O294 1.250 . S
C289 O295 1.263 . S
O290 Tb282 2.427 . S
O290 C286 1.275 . S
O291 Tb282 2.513 . S
O291 C286 1.246 . S
O292 Tb282 2.453 . S
O292 C288 1.245 . S
O293 Tb280 2.343 . S
O293 Tb282 2.596 . S
O293 C288 1.259 . S
O294 Tb282 2.374 . S
O294 C289 1.250 . S
O295 Tb280 2.353 . S
O295 C289 1.263 . S
C296 O297 1.275 . S
C296 O298 1.246 . S
O297 Tb280 2.427 . S
O297 C296 1.275 . S
O298 Tb280 2.513 . S
O298 C296 1.246 . S
C299 O283 1.245 . S
C299 O284 1.259 . S
Tb300 O303 2.453 . S
Tb300 O304 2.596 . S
Tb300 O305 2.374 . S
Tb300 O313 2.343 . S
Tb300 O315 2.353 . S
Tb300 O317 2.427 . S
Tb300 O318 2.513 . S
C301 O305 1.251 . S
C301 O307 1.263 . S
Tb302 O304 2.343 . S
Tb302 O307 2.353 . S
Tb302 O310 2.427 . S
Tb302 O311 2.513 . S
Tb302 O312 2.453 . S
Tb302 O313 2.596 . S
Tb302 O314 2.374 . S
O303 Tb300 2.453 . S
O303 C319 1.245 . S
O304 Tb300 2.596 . S
O304 Tb302 2.343 . S
O304 C319 1.259 . S
O305 Tb300 2.374 . S
O305 C301 1.251 . S
C306 O310 1.275 . S
C306 O311 1.246 . S
O307 C301 1.263 . S
O307 Tb302 2.353 . S
C308 O312 1.245 . S
C308 O313 1.259 . S
C309 O314 1.250 . S
C309 O315 1.263 . S
O310 Tb302 2.427 . S
O310 C306 1.275 . S
O311 Tb302 2.513 . S
O311 C306 1.246 . S
O312 Tb302 2.453 . S
O312 C308 1.245 . S
O313 Tb300 2.343 . S
O313 Tb302 2.596 . S
O313 C308 1.259 . S
O314 Tb302 2.374 . S
O314 C309 1.250 . S
O315 Tb300 2.353 . S
O315 C309 1.263 . S
C316 O317 1.275 . S
C316 O318 1.246 . S
O317 Tb300 2.427 . S
O317 C316 1.275 . S
O318 Tb300 2.513 . S
O318 C316 1.246 . S
C319 O303 1.245 . S
C319 O304 1.259 . S
Tb320 O323 2.453 . S
Tb320 O324 2.596 . S
Tb320 O325 2.374 . S
Tb320 O333 2.343 . S
Tb320 O335 2.353 . S
Tb320 O337 2.427 . S
Tb320 O338 2.513 . S
C321 O325 1.251 . S
C321 O327 1.263 . S
Tb322 O324 2.343 . S
Tb322 O327 2.353 . S
Tb322 O330 2.427 . S
Tb322 O331 2.513 . S
Tb322 O332 2.453 . S
Tb322 O333 2.596 . S
Tb322 O334 2.374 . S
O323 Tb320 2.453 . S
O323 C339 1.245 . S
O324 Tb320 2.596 . S
O324 Tb322 2.343 . S
O324 C339 1.259 . S
O325 Tb320 2.374 . S
O325 C321 1.251 . S
C326 O330 1.275 . S
C326 O331 1.246 . S
O327 C321 1.263 . S
O327 Tb322 2.353 . S
C328 O332 1.245 . S
C328 O333 1.259 . S
C329 O334 1.250 . S
C329 O335 1.263 . S
O330 Tb322 2.427 . S
O330 C326 1.275 . S
O331 Tb322 2.513 . S
O331 C326 1.246 . S
O332 Tb322 2.453 . S
O332 C328 1.245 . S
O333 Tb320 2.343 . S
O333 Tb322 2.596 . S
O333 C328 1.259 . S
O334 Tb322 2.374 . S
O334 C329 1.250 . S
O335 Tb320 2.353 . S
O335 C329 1.263 . S
C336 O337 1.275 . S
C336 O338 1.246 . S
O337 Tb320 2.427 . S
O337 C336 1.275 . S
O338 Tb320 2.513 . S
O338 C336 1.246 . S
C339 O323 1.245 . S
C339 O324 1.259 . S
Tb340 O343 2.453 . S
Tb340 O344 2.594 1_545 S
Tb340 O345 2.374 1_545 S
Tb340 O353 2.343 1_545 S
Tb340 O355 2.353 . S
Tb340 O357 2.427 . S
Tb340 O358 2.513 1_545 S
C341 O345 1.251 . S
C341 O347 1.263 . S
Tb342 O344 2.348 . S
Tb342 O347 2.353 . S
Tb342 O350 2.427 . S
Tb342 O351 2.513 1_565 S
Tb342 O352 2.453 . S
Tb342 O353 2.596 . S
Tb342 O354 2.374 1_565 S
O343 Tb340 2.453 . S
O343 C359 1.251 . S
O344 Tb340 2.594 1_565 S
O344 Tb342 2.348 . S
O344 C359 1.257 1_565 S
O345 Tb340 2.374 1_565 S
O345 C341 1.251 . S
C346 O350 1.275 . S
C346 O351 1.246 1_565 S
O347 C341 1.263 . S
O347 Tb342 2.353 . S
C348 O352 1.245 . S
C348 O353 1.259 . S
C349 O354 1.250 . S
C349 O355 1.263 . S
O350 Tb342 2.427 . S
O350 C346 1.275 . S
O351 Tb342 2.513 1_545 S
O351 C346 1.246 1_545 S
O352 Tb342 2.453 . S
O352 C348 1.245 . S
O353 Tb340 2.343 1_565 S
O353 Tb342 2.596 . S
O353 C348 1.259 . S
O354 Tb342 2.374 1_545 S
O354 C349 1.250 . S
O355 Tb340 2.353 . S
O355 C349 1.263 . S
C356 O357 1.275 1_565 S
C356 O358 1.246 . S
O357 Tb340 2.427 . S
O357 C356 1.275 1_545 S
O358 Tb340 2.513 1_565 S
O358 C356 1.246 . S
C359 O343 1.251 . S
C359 O344 1.257 1_545 S
Tb360 O363 2.453 . S
Tb360 O364 2.594 1_545 S
Tb360 O365 2.374 1_545 S
Tb360 O373 2.343 1_545 S
Tb360 O375 2.353 . S
Tb360 O377 2.427 . S
Tb360 O378 2.513 1_545 S
C361 O365 1.251 . S
C361 O367 1.263 . S
Tb362 O364 2.348 . S
Tb362 O367 2.353 . S
Tb362 O370 2.427 . S
Tb362 O371 2.513 1_565 S
Tb362 O372 2.453 . S
Tb362 O373 2.596 . S
Tb362 O374 2.374 1_565 S
O363 Tb360 2.453 . S
O363 C379 1.251 . S
O364 Tb360 2.594 1_565 S
O364 Tb362 2.348 . S
O364 C379 1.257 1_565 S
O365 Tb360 2.374 1_565 S
O365 C361 1.251 . S
C366 O370 1.275 . S
C366 O371 1.246 1_565 S
O367 C361 1.263 . S
O367 Tb362 2.353 . S
C368 O372 1.245 . S
C368 O373 1.259 . S
C369 O374 1.250 . S
C369 O375 1.263 . S
O370 Tb362 2.427 . S
O370 C366 1.275 . S
O371 Tb362 2.513 1_545 S
O371 C366 1.246 1_545 S
O372 Tb362 2.453 . S
O372 C368 1.245 . S
O373 Tb360 2.343 1_565 S
O373 Tb362 2.596 . S
O373 C368 1.259 . S
O374 Tb362 2.374 1_545 S
O374 C369 1.250 . S
O375 Tb360 2.353 . S
O375 C369 1.263 . S
C376 O377 1.275 1_565 S
C376 O378 1.246 . S
O377 Tb360 2.427 . S
O377 C376 1.275 1_545 S
O378 Tb360 2.513 1_565 S
O378 C376 1.246 . S
C379 O363 1.251 . S
C379 O364 1.257 1_545 S
Tb380 O383 2.453 . S
Tb380 O384 2.596 . S
Tb380 O385 2.374 . S
Tb380 O393 2.343 . S
Tb380 O395 2.353 . S
Tb380 O397 2.427 . S
Tb380 O398 2.513 . S
C381 O385 1.251 . S
C381 O387 1.263 . S
Tb382 O384 2.343 . S
Tb382 O387 2.353 . S
Tb382 O390 2.427 . S
Tb382 O391 2.513 . S
Tb382 O392 2.453 . S
Tb382 O393 2.596 . S
Tb382 O394 2.374 . S
O383 Tb380 2.453 . S
O383 C399 1.245 . S
O384 Tb380 2.596 . S
O384 Tb382 2.343 . S
O384 C399 1.259 . S
O385 Tb380 2.374 . S
O385 C381 1.251 . S
C386 O390 1.275 . S
C386 O391 1.246 . S
O387 C381 1.263 . S
O387 Tb382 2.353 . S
C388 O392 1.245 . S
C388 O393 1.259 . S
C389 O394 1.250 . S
C389 O395 1.263 . S
O390 Tb382 2.427 . S
O390 C386 1.275 . S
O391 Tb382 2.513 . S
O391 C386 1.246 . S
O392 Tb382 2.453 . S
O392 C388 1.245 . S
O393 Tb380 2.343 . S
O393 Tb382 2.596 . S
O393 C388 1.259 . S
O394 Tb382 2.374 . S
O394 C389 1.250 . S
O395 Tb380 2.353 . S
O395 C389 1.263 . S
C396 O397 1.275 . S
C396 O398 1.246 . S
O397 Tb380 2.427 . S
O397 C396 1.275 . S
O398 Tb380 2.513 . S
O398 C396 1.246 . S
C399 O383 1.245 . S
C399 O384 1.259 . S
Tb400 O403 2.453 . S
Tb400 O404 2.596 . S
Tb400 O405 2.374 . S
Tb400 O413 2.343 . S
Tb400 O415 2.353 . S
Tb400 O417 2.427 . S
Tb400 O418 2.513 . S
C401 O405 1.251 . S
C401 O407 1.263 . S
Tb402 O404 2.343 . S
Tb402 O407 2.353 . S
Tb402 O410 2.427 . S
Tb402 O411 2.513 . S
Tb402 O412 2.453 . S
Tb402 O413 2.596 . S
Tb402 O414 2.374 . S
O403 Tb400 2.453 . S
O403 C419 1.245 . S
O404 Tb400 2.596 . S
O404 Tb402 2.343 . S
O404 C419 1.259 . S
O405 Tb400 2.374 . S
O405 C401 1.251 . S
C406 O410 1.275 . S
C406 O411 1.246 . S
O407 C401 1.263 . S
O407 Tb402 2.353 . S
C408 O412 1.245 . S
C408 O413 1.259 . S
C409 O414 1.250 . S
C409 O415 1.263 . S
O410 Tb402 2.427 . S
O410 C406 1.275 . S
O411 Tb402 2.513 . S
O411 C406 1.246 . S
O412 Tb402 2.453 . S
O412 C408 1.245 . S
O413 Tb400 2.343 . S
O413 Tb402 2.596 . S
O413 C408 1.259 . S
O414 Tb402 2.374 . S
O414 C409 1.250 . S
O415 Tb400 2.353 . S
O415 C409 1.263 . S
C416 O417 1.275 . S
C416 O418 1.246 . S
O417 Tb400 2.427 . S
O417 C416 1.275 . S
O418 Tb400 2.513 . S
O418 C416 1.246 . S
C419 O403 1.245 . S
C419 O404 1.259 . S
Tb420 O423 2.453 . S
Tb420 O424 2.596 . S
Tb420 O425 2.374 1_545 S
Tb420 O433 2.348 . S
Tb420 O435 2.353 . S
Tb420 O437 2.427 . S
Tb420 O438 2.513 1_545 S
C421 O425 1.251 . S
C421 O427 1.263 . S
Tb422 O424 2.343 1_565 S
Tb422 O427 2.353 . S
Tb422 O430 2.427 . S
Tb422 O431 2.513 1_565 S
Tb422 O432 2.453 . S
Tb422 O433 2.594 1_565 S
Tb422 O434 2.374 1_565 S
O423 Tb420 2.453 . S
O423 C439 1.245 . S
O424 Tb420 2.596 . S
O424 Tb422 2.343 1_545 S
O424 C439 1.259 . S
O425 Tb420 2.374 1_565 S
O425 C421 1.251 . S
C426 O430 1.275 1_545 S
C426 O431 1.246 . S
O427 C421 1.263 . S
O427 Tb422 2.353 . S
C428 O432 1.251 . S
C428 O433 1.257 1_565 S
C429 O434 1.250 . S
C429 O435 1.263 . S
O430 Tb422 2.427 . S
O430 C426 1.275 1_565 S
O431 Tb422 2.513 1_545 S
O431 C426 1.246 . S
O432 Tb422 2.453 . S
O432 C428 1.251 . S
O433 Tb420 2.348 . S
O433 Tb422 2.594 1_545 S
O433 C428 1.257 1_545 S
O434 Tb422 2.374 1_545 S
O434 C429 1.250 . S
O435 Tb420 2.353 . S
O435 C429 1.263 . S
C436 O437 1.275 . S
C436 O438 1.246 1_545 S
O437 Tb420 2.427 . S
O437 C436 1.275 . S
O438 Tb420 2.513 1_565 S
O438 C436 1.246 1_565 S
C439 O423 1.245 . S
C439 O424 1.259 . S
Tb440 O443 2.453 . S
Tb440 O444 2.596 . S
Tb440 O445 2.374 1_545 S
Tb440 O453 2.348 . S
Tb440 O455 2.353 . S
Tb440 O457 2.427 . S
Tb440 O458 2.513 1_545 S
C441 O445 1.251 . S
C441 O447 1.263 . S
Tb442 O444 2.343 1_565 S
Tb442 O447 2.353 . S
Tb442 O450 2.427 . S
Tb442 O451 2.513 1_565 S
Tb442 O452 2.453 . S
Tb442 O453 2.594 1_565 S
Tb442 O454 2.374 1_565 S
O443 Tb440 2.453 . S
O443 C459 1.245 . S
O444 Tb440 2.596 . S
O444 Tb442 2.343 1_545 S
O444 C459 1.259 . S
O445 Tb440 2.374 1_565 S
O445 C441 1.251 . S
C446 O450 1.275 1_545 S
C446 O451 1.246 . S
O447 C441 1.263 . S
O447 Tb442 2.353 . S
C448 O452 1.251 . S
C448 O453 1.257 1_565 S
C449 O454 1.250 . S
C449 O455 1.263 . S
O450 Tb442 2.427 . S
O450 C446 1.275 1_565 S
O451 Tb442 2.513 1_545 S
O451 C446 1.246 . S
O452 Tb442 2.453 . S
O452 C448 1.251 . S
O453 Tb440 2.348 . S
O453 Tb442 2.594 1_545 S
O453 C448 1.257 1_545 S
O454 Tb442 2.374 1_545 S
O454 C449 1.250 . S
O455 Tb440 2.353 . S
O455 C449 1.263 . S
C456 O457 1.275 . S
C456 O458 1.246 1_545 S
O457 Tb440 2.427 . S
O457 C456 1.275 . S
O458 Tb440 2.513 1_565 S
O458 C456 1.246 1_565 S
C459 O443 1.245 . S
C459 O444 1.259 . S
Tb460 O463 2.453 . S
Tb460 O464 2.596 . S
Tb460 O465 2.374 . S
Tb460 O473 2.343 . S
Tb460 O475 2.353 . S
Tb460 O477 2.427 . S
Tb460 O478 2.513 . S
C461 O465 1.251 . S
C461 O467 1.263 . S
Tb462 O464 2.343 . S
Tb462 O467 2.353 . S
Tb462 O470 2.427 . S
Tb462 O471 2.513 . S
Tb462 O472 2.453 . S
Tb462 O473 2.596 . S
Tb462 O474 2.374 . S
O463 Tb460 2.453 . S
O463 C479 1.245 . S
O464 Tb460 2.596 . S
O464 Tb462 2.343 . S
O464 C479 1.259 . S
O465 Tb460 2.374 . S
O465 C461 1.251 . S
C466 O470 1.275 . S
C466 O471 1.246 . S
O467 C461 1.263 . S
O467 Tb462 2.353 . S
C468 O472 1.245 . S
C468 O473 1.259 . S
C469 O474 1.250 . S
C469 O475 1.263 . S
O470 Tb462 2.427 . S
O470 C466 1.275 . S
O471 Tb462 2.513 . S
O471 C466 1.246 . S
O472 Tb462 2.453 . S
O472 C468 1.245 . S
O473 Tb460 2.343 . S
O473 Tb462 2.596 . S
O473 C468 1.259 . S
O474 Tb462 2.374 . S
O474 C469 1.250 . S
O475 Tb460 2.353 . S
O475 C469 1.263 . S
C476 O477 1.275 . S
C476 O478 1.246 . S
O477 Tb460 2.427 . S
O477 C476 1.275 . S
O478 Tb460 2.513 . S
O478 C476 1.246 . S
C479 O463 1.245 . S
C479 O464 1.259 . S
Tb480 O483 2.453 . S
Tb480 O484 2.596 . S
Tb480 O485 2.374 . S
Tb480 O493 2.343 . S
Tb480 O495 2.353 . S
Tb480 O497 2.427 . S
Tb480 O498 2.513 . S
C481 O485 1.251 . S
C481 O487 1.263 . S
Tb482 O484 2.343 . S
Tb482 O487 2.353 . S
Tb482 O490 2.427 . S
Tb482 O491 2.513 . S
Tb482 O492 2.453 . S
Tb482 O493 2.596 . S
Tb482 O494 2.374 . S
O483 Tb480 2.453 . S
O483 C499 1.245 . S
O484 Tb480 2.596 . S
O484 Tb482 2.343 . S
O484 C499 1.259 . S
O485 Tb480 2.374 . S
O485 C481 1.251 . S
C486 O490 1.275 . S
C486 O491 1.246 . S
O487 C481 1.263 . S
O487 Tb482 2.353 . S
C488 O492 1.245 . S
C488 O493 1.259 . S
C489 O494 1.250 . S
C489 O495 1.263 . S
O490 Tb482 2.427 . S
O490 C486 1.275 . S
O491 Tb482 2.513 . S
O491 C486 1.246 . S
O492 Tb482 2.453 . S
O492 C488 1.245 . S
O493 Tb480 2.343 . S
O493 Tb482 2.596 . S
O493 C488 1.259 . S
O494 Tb482 2.374 . S
O494 C489 1.250 . S
O495 Tb480 2.353 . S
O495 C489 1.263 . S
C496 O497 1.275 . S
C496 O498 1.246 . S
O497 Tb480 2.427 . S
O497 C496 1.275 . S
O498 Tb480 2.513 . S
O498 C496 1.246 . S
C499 O483 1.245 . S
C499 O484 1.259 . S
Tb500 O503 2.453 . S
Tb500 O504 2.596 . S
Tb500 O505 2.374 . S
Tb500 O513 2.343 . S
Tb500 O515 2.353 . S
Tb500 O517 2.427 . S
Tb500 O518 2.513 . S
C501 O505 1.251 . S
C501 O507 1.263 . S
Tb502 O504 2.343 . S
Tb502 O507 2.353 . S
Tb502 O510 2.427 . S
Tb502 O511 2.513 . S
Tb502 O512 2.453 . S
Tb502 O513 2.596 . S
Tb502 O514 2.374 . S
O503 Tb500 2.453 . S
O503 C519 1.245 . S
O504 Tb500 2.596 . S
O504 Tb502 2.343 . S
O504 C519 1.259 . S
O505 Tb500 2.374 . S
O505 C501 1.251 . S
C506 O510 1.275 . S
C506 O511 1.246 . S
O507 C501 1.263 . S
O507 Tb502 2.353 . S
C508 O512 1.245 . S
C508 O513 1.259 . S
C509 O514 1.250 . S
C509 O515 1.263 . S
O510 Tb502 2.427 . S
O510 C506 1.275 . S
O511 Tb502 2.513 . S
O511 C506 1.246 . S
O512 Tb502 2.453 . S
O512 C508 1.245 . S
O513 Tb500 2.343 . S
O513 Tb502 2.596 . S
O513 C508 1.259 . S
O514 Tb502 2.374 . S
O514 C509 1.250 . S
O515 Tb500 2.353 . S
O515 C509 1.263 . S
C516 O517 1.275 . S
C516 O518 1.246 . S
O517 Tb500 2.427 . S
O517 C516 1.275 . S
O518 Tb500 2.513 . S
O518 C516 1.246 . S
C519 O503 1.245 . S
C519 O504 1.259 . S
Tb520 O523 2.453 1_554 S
Tb520 O524 2.596 1_554 S
Tb520 O525 2.374 1_554 S
Tb520 O533 2.343 . S
Tb520 O535 2.353 . S
Tb520 O537 2.427 . S
Tb520 O538 2.513 . S
C521 O525 1.251 . S
C521 O527 1.263 1_556 S
Tb522 O524 2.343 1_554 S
Tb522 O527 2.353 . S
Tb522 O530 2.427 1_554 S
Tb522 O531 2.513 1_554 S
Tb522 O532 2.453 . S
Tb522 O533 2.596 . S
Tb522 O534 2.374 . S
O523 Tb520 2.453 1_556 S
O523 C539 1.245 . S
O524 Tb520 2.596 1_556 S
O524 Tb522 2.343 1_556 S
O524 C539 1.259 . S
O525 Tb520 2.374 1_556 S
O525 C521 1.251 . S
C526 O530 1.275 . S
C526 O531 1.246 . S
O527 C521 1.263 1_554 S
O527 Tb522 2.353 . S
C528 O532 1.245 . S
C528 O533 1.259 . S
C529 O534 1.250 . S
C529 O535 1.263 . S
O530 Tb522 2.427 1_556 S
O530 C526 1.275 . S
O531 Tb522 2.513 1_556 S
O531 C526 1.246 . S
O532 Tb522 2.453 . S
O532 C528 1.245 . S
O533 Tb520 2.343 . S
O533 Tb522 2.596 . S
O533 C528 1.259 . S
O534 Tb522 2.374 . S
O534 C529 1.250 . S
O535 Tb520 2.353 . S
O535 C529 1.263 . S
C536 O537 1.275 . S
C536 O538 1.246 . S
O537 Tb520 2.427 . S
O537 C536 1.275 . S
O538 Tb520 2.513 . S
O538 C536 1.246 . S
C539 O523 1.245 . S
C539 O524 1.259 . S
Tb540 O543 2.453 1_554 S
Tb540 O544 2.596 1_554 S
Tb540 O545 2.374 1_554 S
Tb540 O553 2.343 . S
Tb540 O555 2.353 . S
Tb540 O557 2.427 . S
Tb540 O558 2.513 . S
C541 O545 1.251 . S
C541 O547 1.263 1_556 S
Tb542 O544 2.343 1_554 S
Tb542 O547 2.353 . S
Tb542 O550 2.427 1_554 S
Tb542 O551 2.513 1_554 S
Tb542 O552 2.453 . S
Tb542 O553 2.596 . S
Tb542 O554 2.374 . S
O543 Tb540 2.453 1_556 S
O543 C559 1.245 . S
O544 Tb540 2.596 1_556 S
O544 Tb542 2.343 1_556 S
O544 C559 1.259 . S
O545 Tb540 2.374 1_556 S
O545 C541 1.251 . S
C546 O550 1.275 . S
C546 O551 1.246 . S
O547 C541 1.263 1_554 S
O547 Tb542 2.353 . S
C548 O552 1.245 . S
C548 O553 1.259 . S
C549 O554 1.250 . S
C549 O555 1.263 . S
O550 Tb542 2.427 1_556 S
O550 C546 1.275 . S
O551 Tb542 2.513 1_556 S
O551 C546 1.246 . S
O552 Tb542 2.453 . S
O552 C548 1.245 . S
O553 Tb540 2.343 . S
O553 Tb542 2.596 . S
O553 C548 1.259 . S
O554 Tb542 2.374 . S
O554 C549 1.250 . S
O555 Tb540 2.353 . S
O555 C549 1.263 . S
C556 O557 1.275 . S
C556 O558 1.246 . S
O557 Tb540 2.427 . S
O557 C556 1.275 . S
O558 Tb540 2.513 . S
O558 C556 1.246 . S
C559 O543 1.245 . S
C559 O544 1.259 . S
Tb560 O563 2.453 . S
Tb560 O564 2.596 . S
Tb560 O565 2.374 . S
Tb560 O573 2.343 . S
Tb560 O575 2.353 . S
Tb560 O577 2.427 . S
Tb560 O578 2.513 . S
C561 O565 1.251 . S
C561 O567 1.263 . S
Tb562 O564 2.343 . S
Tb562 O567 2.353 . S
Tb562 O570 2.427 . S
Tb562 O571 2.513 . S
Tb562 O572 2.453 . S
Tb562 O573 2.596 . S
Tb562 O574 2.374 . S
O563 Tb560 2.453 . S
O563 C579 1.245 . S
O564 Tb560 2.596 . S
O564 Tb562 2.343 . S
O564 C579 1.259 . S
O565 Tb560 2.374 . S
O565 C561 1.251 . S
C566 O570 1.275 . S
C566 O571 1.246 . S
O567 C561 1.263 . S
O567 Tb562 2.353 . S
C568 O572 1.245 . S
C568 O573 1.259 . S
C569 O574 1.250 . S
C569 O575 1.263 . S
O570 Tb562 2.427 . S
O570 C566 1.275 . S
O571 Tb562 2.513 . S
O571 C566 1.246 . S
O572 Tb562 2.453 . S
O572 C568 1.245 . S
O573 Tb560 2.343 . S
O573 Tb562 2.596 . S
O573 C568 1.259 . S
O574 Tb562 2.374 . S
O574 C569 1.250 . S
O575 Tb560 2.353 . S
O575 C569 1.263 . S
C576 O577 1.275 . S
C576 O578 1.246 . S
O577 Tb560 2.427 . S
O577 C576 1.275 . S
O578 Tb560 2.513 . S
O578 C576 1.246 . S
C579 O563 1.245 . S
C579 O564 1.259 . S
Tb580 O583 2.453 . S
Tb580 O584 2.596 . S
Tb580 O585 2.374 . S
Tb580 O593 2.343 . S
Tb580 O595 2.353 . S
Tb580 O597 2.427 . S
Tb580 O598 2.513 . S
C581 O585 1.251 . S
C581 O587 1.263 . S
Tb582 O584 2.343 . S
Tb582 O587 2.353 . S
Tb582 O590 2.427 . S
Tb582 O591 2.513 . S
Tb582 O592 2.453 . S
Tb582 O593 2.596 . S
Tb582 O594 2.374 . S
O583 Tb580 2.453 . S
O583 C599 1.245 . S
O584 Tb580 2.596 . S
O584 Tb582 2.343 . S
O584 C599 1.259 . S
O585 Tb580 2.374 . S
O585 C581 1.251 . S
C586 O590 1.275 . S
C586 O591 1.246 . S
O587 C581 1.263 . S
O587 Tb582 2.353 . S
C588 O592 1.245 . S
C588 O593 1.259 . S
C589 O594 1.250 . S
C589 O595 1.263 . S
O590 Tb582 2.427 . S
O590 C586 1.275 . S
O591 Tb582 2.513 . S
O591 C586 1.246 . S
O592 Tb582 2.453 . S
O592 C588 1.245 . S
O593 Tb580 2.343 . S
O593 Tb582 2.596 . S
O593 C588 1.259 . S
O594 Tb582 2.374 . S
O594 C589 1.250 . S
O595 Tb580 2.353 . S
O595 C589 1.263 . S
C596 O597 1.275 . S
C596 O598 1.246 . S
O597 Tb580 2.427 . S
O597 C596 1.275 . S
O598 Tb580 2.513 . S
O598 C596 1.246 . S
C599 O583 1.245 . S
C599 O584 1.259 . S
Tb600 O603 2.453 . S
Tb600 O604 2.596 . S
Tb600 O605 2.374 . S
Tb600 O613 2.343 1_556 S
Tb600 O615 2.353 . S
Tb600 O617 2.427 1_556 S
Tb600 O618 2.513 1_556 S
C601 O605 1.251 . S
C601 O607 1.263 . S
Tb602 O604 2.343 . S
Tb602 O607 2.353 . S
Tb602 O610 2.427 . S
Tb602 O611 2.513 . S
Tb602 O612 2.453 1_556 S
Tb602 O613 2.596 1_556 S
Tb602 O614 2.374 1_556 S
O603 Tb600 2.453 . S
O603 C619 1.245 . S
O604 Tb600 2.596 . S
O604 Tb602 2.343 . S
O604 C619 1.259 . S
O605 Tb600 2.374 . S
O605 C601 1.251 . S
C606 O610 1.275 . S
C606 O611 1.246 . S
O607 C601 1.263 . S
O607 Tb602 2.353 . S
C608 O612 1.245 . S
C608 O613 1.259 . S
C609 O614 1.250 . S
C609 O615 1.263 1_554 S
O610 Tb602 2.427 . S
O610 C606 1.275 . S
O611 Tb602 2.513 . S
O611 C606 1.246 . S
O612 Tb602 2.453 1_554 S
O612 C608 1.245 . S
O613 Tb600 2.343 1_554 S
O613 Tb602 2.596 1_554 S
O613 C608 1.259 . S
O614 Tb602 2.374 1_554 S
O614 C609 1.250 . S
O615 Tb600 2.353 . S
O615 C609 1.263 1_556 S
C616 O617 1.275 . S
C616 O618 1.246 . S
O617 Tb600 2.427 1_554 S
O617 C616 1.275 . S
O618 Tb600 2.513 1_554 S
O618 C616 1.246 . S
C619 O603 1.245 . S
C619 O604 1.259 . S
Tb620 O623 2.453 . S
Tb620 O624 2.596 . S
Tb620 O625 2.374 . S
Tb620 O633 2.343 1_556 S
Tb620 O635 2.353 . S
Tb620 O637 2.427 1_556 S
Tb620 O638 2.513 1_556 S
C621 O625 1.251 . S
C621 O627 1.263 . S
Tb622 O624 2.343 . S
Tb622 O627 2.353 . S
Tb622 O630 2.427 . S
Tb622 O631 2.513 . S
Tb622 O632 2.453 1_556 S
Tb622 O633 2.596 1_556 S
Tb622 O634 2.374 1_556 S
O623 Tb620 2.453 . S
O623 C639 1.245 . S
O624 Tb620 2.596 . S
O624 Tb622 2.343 . S
O624 C639 1.259 . S
O625 Tb620 2.374 . S
O625 C621 1.251 . S
C626 O630 1.275 . S
C626 O631 1.246 . S
O627 C621 1.263 . S
O627 Tb622 2.353 . S
C628 O632 1.245 . S
C628 O633 1.259 . S
C629 O634 1.250 . S
C629 O635 1.263 1_554 S
O630 Tb622 2.427 . S
O630 C626 1.275 . S
O631 Tb622 2.513 . S
O631 C626 1.246 . S
O632 Tb622 2.453 1_554 S
O632 C628 1.245 . S
O633 Tb620 2.343 1_554 S
O633 Tb622 2.596 1_554 S
O633 C628 1.259 . S
O634 Tb622 2.374 1_554 S
O634 C629 1.250 . S
O635 Tb620 2.353 . S
O635 C629 1.263 1_556 S
C636 O637 1.275 . S
C636 O638 1.246 . S
O637 Tb620 2.427 1_554 S
O637 C636 1.275 . S
O638 Tb620 2.513 1_554 S
O638 C636 1.246 . S
C639 O623 1.245 . S
C639 O624 1.259 . S
H640 C646 0.930 . S
H641 C650 0.930 . S
H642 C655 0.929 . S
H643 C653 0.929 . S
H644 C648 0.929 . S
H645 C654 0.929 . S
C646 H640 0.930 . S
C646 C647 1.367 1_554 S
C646 C654 1.378 . S
C647 C646 1.367 1_556 S
C647 C655 1.433 . S
C648 H644 0.929 . S
C648 C650 1.378 . S
C648 C652 1.350 1_556 S
C649 C652 1.463 1_556 S
C649 C654 1.350 1_556 S
C649 N657 1.427 . S
C650 H641 0.930 . S
C650 C648 1.378 . S
C650 C651 1.367 1_556 S
C651 C650 1.367 1_554 S
C651 C653 1.433 . S
C652 C648 1.350 1_554 S
C652 C649 1.463 1_554 S
C652 N656 1.427 . S
C653 H643 0.929 . S
C653 C651 1.433 . S
C653 N656 1.384 . S
C654 H645 0.929 . S
C654 C646 1.378 . S
C654 C649 1.350 1_554 S
C655 H642 0.929 . S
C655 C647 1.433 . S
C655 N657 1.384 . S
N656 C652 1.427 . S
N656 C653 1.384 . S
N657 C649 1.427 . S
N657 C655 1.384 . S
H658 C664 0.930 . S
H659 C668 0.930 . S
H660 C673 0.929 . S
H661 C671 0.929 . S
H662 C666 0.929 . S
H663 C672 0.929 . S
C664 H658 0.930 . S
C664 C665 1.367 . S
C664 C672 1.378 . S
C665 C664 1.367 . S
C665 C673 1.433 1_546 S
C666 H662 0.929 . S
C666 C668 1.378 . S
C666 C670 1.357 . S
C667 C670 1.461 1_446 S
C667 C672 1.357 . S
C667 N675 1.421 1_546 S
C668 H659 0.930 . S
C668 C666 1.378 . S
C668 C669 1.367 . S
C669 C668 1.367 . S
C669 C671 1.433 1_564 S
C670 C666 1.357 . S
C670 C667 1.461 1_664 S
C670 N674 1.421 1_564 S
C671 H661 0.929 . S
C671 C669 1.433 1_546 S
C671 N674 1.384 . S
C672 H663 0.929 . S
C672 C664 1.378 . S
C672 C667 1.357 . S
C673 H660 0.929 . S
C673 C665 1.433 1_564 S
C673 N675 1.384 . S
N674 C670 1.421 1_546 S
N674 C671 1.384 . S
N675 C667 1.421 1_564 S
N675 C673 1.384 . S
H676 C682 0.930 . S
H677 C686 0.930 . S
H678 C691 0.929 . S
H679 C689 0.929 . S
H680 C684 0.929 . S
H681 C690 0.929 . S
C682 H676 0.930 . S
C682 C683 1.367 1_565 S
C682 C690 1.378 . S
C683 C682 1.367 1_545 S
C683 C691 1.433 . S
C684 H680 0.929 . S
C684 C686 1.378 . S
C684 C688 1.347 . S
C685 C688 1.463 1_565 S
C685 C690 1.347 . S
C685 N693 1.431 1_565 S
C686 H677 0.930 . S
C686 C684 1.378 . S
C686 C687 1.367 1_545 S
C687 C686 1.367 1_565 S
C687 C689 1.433 . S
C688 C684 1.347 . S
C688 C685 1.463 1_545 S
C688 N692 1.431 1_545 S
C689 H679 0.929 . S
C689 C687 1.433 . S
C689 N692 1.384 . S
C690 H681 0.929 . S
C690 C682 1.378 . S
C690 C685 1.347 . S
C691 H678 0.929 . S
C691 C683 1.433 . S
C691 N693 1.384 . S
N692 C688 1.431 1_565 S
N692 C689 1.384 . S
N693 C685 1.431 1_545 S
N693 C691 1.384 . S
H694 C700 0.930 . S
H695 C704 0.930 . S
H696 C709 0.929 . S
H697 C707 0.929 . S
H698 C702 0.929 . S
H699 C708 0.929 . S
C700 H694 0.930 . S
C700 C701 1.367 . S
C700 C708 1.378 . S
C701 C700 1.367 . S
C701 C709 1.433 . S
C702 H698 0.929 . S
C702 C704 1.378 . S
C702 C706 1.350 . S
C703 C706 1.463 1_455 S
C703 C708 1.350 . S
C703 N711 1.427 . S
C704 H695 0.930 . S
C704 C702 1.378 . S
C704 C705 1.367 . S
C705 C704 1.367 . S
C705 C707 1.433 . S
C706 C702 1.350 . S
C706 C703 1.463 1_655 S
C706 N710 1.427 . S
C707 H697 0.929 . S
C707 C705 1.433 . S
C707 N710 1.384 . S
C708 H699 0.929 . S
C708 C700 1.378 . S
C708 C703 1.350 . S
C709 H696 0.929 . S
C709 C701 1.433 . S
C709 N711 1.384 . S
N710 C706 1.427 . S
N710 C707 1.384 . S
N711 C703 1.427 . S
N711 C709 1.384 . S
H712 C718 0.930 . S
H713 C722 0.930 . S
H714 C727 0.927 1_554 S
H715 C725 0.927 1_556 S
H716 C720 0.929 . S
H717 C726 0.929 . S
C718 H712 0.930 . S
C718 C719 1.367 . S
C718 C726 1.378 . S
C719 C718 1.367 . S
C719 C727 1.433 . S
C720 H716 0.929 . S
C720 C722 1.378 . S
C720 C724 1.350 . S
C721 C724 1.463 1_556 S
C721 C726 1.350 . S
C721 N729 1.427 1_556 S
C722 H713 0.930 . S
C722 C720 1.378 . S
C722 C723 1.367 . S
C723 C722 1.367 . S
C723 C725 1.433 . S
C724 C720 1.350 . S
C724 C721 1.463 1_554 S
C724 N728 1.427 1_554 S
C725 H715 0.927 1_554 S
C725 C723 1.433 . S
C725 N728 1.384 1_554 S
C726 H717 0.929 . S
C726 C718 1.378 . S
C726 C721 1.350 . S
C727 H714 0.927 1_556 S
C727 C719 1.433 . S
C727 N729 1.384 1_556 S
N728 C724 1.427 1_556 S
N728 C725 1.384 1_556 S
N729 C721 1.427 1_554 S
N729 C727 1.384 1_554 S
H730 C736 0.930 . S
H731 C740 0.930 . S
H732 C745 0.929 . S
H733 C743 0.929 . S
H734 C738 0.929 . S
H735 C744 0.929 . S
C736 H730 0.930 . S
C736 C737 1.367 . S
C736 C744 1.378 . S
C737 C736 1.367 . S
C737 C745 1.433 1_565 S
C738 H734 0.929 . S
C738 C740 1.378 . S
C738 C742 1.350 . S
C739 C742 1.463 1_565 S
C739 C744 1.350 . S
C739 N747 1.427 1_565 S
C740 H731 0.930 . S
C740 C738 1.378 . S
C740 C741 1.367 . S
C741 C740 1.367 . S
C741 C743 1.433 1_545 S
C742 C738 1.350 . S
C742 C739 1.463 1_545 S
C742 N746 1.427 1_545 S
C743 H733 0.929 . S
C743 C741 1.433 1_565 S
C743 N746 1.384 . S
C744 H735 0.929 . S
C744 C736 1.378 . S
C744 C739 1.350 . S
C745 H732 0.929 . S
C745 C737 1.433 1_545 S
C745 N747 1.384 . S
N746 C742 1.427 1_565 S
N746 C743 1.384 . S
N747 C739 1.427 1_545 S
N747 C745 1.384 . S
H748 C754 0.930 . S
H749 C758 0.930 . S
H750 C763 0.929 . S
H751 C761 0.929 . S
H752 C756 0.929 . S
H753 C762 0.929 . S
C754 H748 0.930 . S
C754 C755 1.367 . S
C754 C762 1.378 . S
C755 C754 1.367 . S
C755 C763 1.433 . S
C756 H752 0.929 . S
C756 C758 1.378 . S
C756 C760 1.350 . S
C757 C760 1.463 1_655 S
C757 C762 1.350 . S
C757 N765 1.427 . S
C758 H749 0.930 . S
C758 C756 1.378 . S
C758 C759 1.367 . S
C759 C758 1.367 . S
C759 C761 1.433 . S
C760 C756 1.350 . S
C760 C757 1.463 1_455 S
C760 N764 1.427 . S
C761 H751 0.929 . S
C761 C759 1.433 . S
C761 N764 1.384 . S
C762 H753 0.929 . S
C762 C754 1.378 . S
C762 C757 1.350 . S
C763 H750 0.929 . S
C763 C755 1.433 . S
C763 N765 1.384 . S
N764 C760 1.427 . S
N764 C761 1.384 . S
N765 C757 1.427 . S
N765 C763 1.384 . S
H766 C772 0.930 . S
H767 C776 0.930 . S
H768 C781 0.929 . S
H769 C779 0.929 . S
H770 C774 0.929 . S
H771 C780 0.929 . S
C772 H766 0.930 . S
C772 C773 1.367 . S
C772 C780 1.378 . S
C773 C772 1.367 . S
C773 C781 1.433 . S
C774 H770 0.929 . S
C774 C776 1.378 . S
C774 C778 1.350 . S
C775 C778 1.463 . S
C775 C780 1.350 . S
C775 N783 1.427 . S
C776 H767 0.930 . S
C776 C774 1.378 . S
C776 C777 1.367 . S
C777 C776 1.367 . S
C777 C779 1.433 . S
C778 C774 1.350 . S
C778 C775 1.463 . S
C778 N782 1.427 . S
C779 H769 0.929 . S
C779 C777 1.433 . S
C779 N782 1.384 . S
C780 H771 0.929 . S
C780 C772 1.378 . S
C780 C775 1.350 . S
C781 H768 0.929 . S
C781 C773 1.433 . S
C781 N783 1.384 . S
N782 C778 1.427 . S
N782 C779 1.384 . S
N783 C775 1.427 . S
N783 C781 1.384 . S
H784 C790 0.930 . S
H785 C794 0.930 . S
H786 C799 0.929 . S
H787 C797 0.929 . S
H788 C792 0.929 . S
H789 C798 0.929 . S
C790 H784 0.930 . S
C790 C791 1.367 . S
C790 C798 1.378 . S
C791 C790 1.367 . S
C791 C799 1.433 . S
C792 H788 0.929 . S
C792 C794 1.378 . S
C792 C796 1.350 . S
C793 C796 1.463 1_655 S
C793 C798 1.350 . S
C793 N801 1.427 . S
C794 H785 0.930 . S
C794 C792 1.378 . S
C794 C795 1.367 . S
C795 C794 1.367 . S
C795 C797 1.433 . S
C796 C792 1.350 . S
C796 C793 1.463 1_455 S
C796 N800 1.427 . S
C797 H787 0.929 . S
C797 C795 1.433 . S
C797 N800 1.384 . S
C798 H789 0.929 . S
C798 C790 1.378 . S
C798 C793 1.350 . S
C799 H786 0.929 . S
C799 C791 1.433 . S
C799 N801 1.384 . S
N800 C796 1.427 . S
N800 C797 1.384 . S
N801 C793 1.427 . S
N801 C799 1.384 . S
H802 C808 0.930 . S
H803 C812 0.930 . S
H804 C817 0.929 . S
H805 C815 0.929 . S
H806 C810 0.929 . S
H807 C816 0.929 . S
C808 H802 0.930 . S
C808 C809 1.367 . S
C808 C816 1.378 . S
C809 C808 1.367 . S
C809 C817 1.433 . S
C810 H806 0.929 . S
C810 C812 1.378 . S
C810 C814 1.350 . S
C811 C814 1.463 . S
C811 C816 1.350 . S
C811 N819 1.427 . S
C812 H803 0.930 . S
C812 C810 1.378 . S
C812 C813 1.367 . S
C813 C812 1.367 . S
C813 C815 1.433 . S
C814 C810 1.350 . S
C814 C811 1.463 . S
C814 N818 1.427 . S
C815 H805 0.929 . S
C815 C813 1.433 . S
C815 N818 1.384 . S
C816 H807 0.929 . S
C816 C808 1.378 . S
C816 C811 1.350 . S
C817 H804 0.929 . S
C817 C809 1.433 . S
C817 N819 1.384 . S
N818 C814 1.427 . S
N818 C815 1.384 . S
N819 C811 1.427 . S
N819 C817 1.384 . S
H820 C826 0.930 . S
H821 C830 0.930 . S
H822 C835 0.929 . S
H823 C833 0.929 . S
H824 C828 0.929 . S
H825 C834 0.929 . S
C826 H820 0.930 . S
C826 C827 1.367 . S
C826 C834 1.378 . S
C827 C826 1.367 . S
C827 C835 1.433 . S
C828 H824 0.929 . S
C828 C830 1.378 . S
C828 C832 1.350 . S
C829 C832 1.463 . S
C829 C834 1.350 . S
C829 N837 1.427 . S
C830 H821 0.930 . S
C830 C828 1.378 . S
C830 C831 1.367 . S
C831 C830 1.367 . S
C831 C833 1.433 . S
C832 C828 1.350 . S
C832 C829 1.463 . S
C832 N836 1.427 . S
C833 H823 0.929 . S
C833 C831 1.433 . S
C833 N836 1.384 . S
C834 H825 0.929 . S
C834 C826 1.378 . S
C834 C829 1.350 . S
C835 H822 0.929 . S
C835 C827 1.433 . S
C835 N837 1.384 . S
N836 C832 1.427 . S
N836 C833 1.384 . S
N837 C829 1.427 . S
N837 C835 1.384 . S
H838 C844 0.930 . S
H839 C848 0.930 . S
H840 C853 0.929 . S
H841 C851 0.929 . S
H842 C846 0.929 . S
H843 C852 0.929 . S
C844 H838 0.930 . S
C844 C845 1.367 . S
C844 C852 1.378 . S
C845 C844 1.367 . S
C845 C853 1.433 . S
C846 H842 0.929 . S
C846 C848 1.378 . S
C846 C850 1.350 . S
C847 C850 1.463 . S
C847 C852 1.350 . S
C847 N855 1.427 . S
C848 H839 0.930 . S
C848 C846 1.378 . S
C848 C849 1.367 . S
C849 C848 1.367 . S
C849 C851 1.433 . S
C850 C846 1.350 . S
C850 C847 1.463 . S
C850 N854 1.427 . S
C851 H841 0.929 . S
C851 C849 1.433 . S
C851 N854 1.384 . S
C852 H843 0.929 . S
C852 C844 1.378 . S
C852 C847 1.350 . S
C853 H840 0.929 . S
C853 C845 1.433 . S
C853 N855 1.384 . S
N854 C850 1.427 . S
N854 C851 1.384 . S
N855 C847 1.427 . S
N855 C853 1.384 . S
H856 C862 0.930 . S
H857 C866 0.930 . S
H858 C871 0.929 . S
H859 C869 0.929 . S
H860 C864 0.929 . S
H861 C870 0.929 . S
C862 H856 0.930 . S
C862 C863 1.367 . S
C862 C870 1.378 . S
C863 C862 1.367 . S
C863 C871 1.433 1_565 S
C864 H860 0.929 . S
C864 C866 1.378 . S
C864 C868 1.350 . S
C865 C868 1.463 1_565 S
C865 C870 1.350 . S
C865 N873 1.427 1_565 S
C866 H857 0.930 . S
C866 C864 1.378 . S
C866 C867 1.367 . S
C867 C866 1.367 . S
C867 C869 1.433 1_545 S
C868 C864 1.350 . S
C868 C865 1.463 1_545 S
C868 N872 1.427 1_545 S
C869 H859 0.929 . S
C869 C867 1.433 1_565 S
C869 N872 1.384 . S
C870 H861 0.929 . S
C870 C862 1.378 . S
C870 C865 1.350 . S
C871 H858 0.929 . S
C871 C863 1.433 1_545 S
C871 N873 1.384 . S
N872 C868 1.427 1_565 S
N872 C869 1.384 . S
N873 C865 1.427 1_545 S
N873 C871 1.384 . S
H874 C880 0.930 . S
H875 C884 0.930 . S
H876 C889 0.929 . S
H877 C887 0.929 . S
H878 C882 0.929 . S
H879 C888 0.929 . S
C880 H874 0.930 . S
C880 C881 1.367 . S
C880 C888 1.378 . S
C881 C880 1.367 . S
C881 C889 1.433 . S
C882 H878 0.929 . S
C882 C884 1.378 . S
C882 C886 1.350 . S
C883 C886 1.463 . S
C883 C888 1.350 . S
C883 N891 1.427 . S
C884 H875 0.930 . S
C884 C882 1.378 . S
C884 C885 1.367 . S
C885 C884 1.367 . S
C885 C887 1.433 . S
C886 C882 1.350 . S
C886 C883 1.463 . S
C886 N890 1.427 . S
C887 H877 0.929 . S
C887 C885 1.433 . S
C887 N890 1.384 . S
C888 H879 0.929 . S
C888 C880 1.378 . S
C888 C883 1.350 . S
C889 H876 0.929 . S
C889 C881 1.433 . S
C889 N891 1.384 . S
N890 C886 1.427 . S
N890 C887 1.384 . S
N891 C883 1.427 . S
N891 C889 1.384 . S
H892 C898 0.930 . S
H893 C902 0.930 . S
H894 C907 0.929 . S
H895 C905 0.929 . S
H896 C900 0.929 . S
H897 C906 0.929 . S
C898 H892 0.930 . S
C898 C899 1.367 . S
C898 C906 1.378 . S
C899 C898 1.367 . S
C899 C907 1.433 . S
C900 H896 0.929 . S
C900 C902 1.378 . S
C900 C904 1.350 . S
C901 C904 1.463 . S
C901 C906 1.350 . S
C901 N909 1.427 . S
C902 H893 0.930 . S
C902 C900 1.378 . S
C902 C903 1.367 . S
C903 C902 1.367 . S
C903 C905 1.433 . S
C904 C900 1.350 . S
C904 C901 1.463 . S
C904 N908 1.427 . S
C905 H895 0.929 . S
C905 C903 1.433 . S
C905 N908 1.384 . S
C906 H897 0.929 . S
C906 C898 1.378 . S
C906 C901 1.350 . S
C907 H894 0.929 . S
C907 C899 1.433 . S
C907 N909 1.384 . S
N908 C904 1.427 . S
N908 C905 1.384 . S
N909 C901 1.427 . S
N909 C907 1.384 . S
H910 C916 0.927 1_554 S
H911 C920 0.927 1_556 S
H912 C925 0.929 . S
H913 C923 0.929 . S
H914 C918 0.929 . S
H915 C924 0.929 . S
C916 H910 0.927 1_556 S
C916 C917 1.372 . S
C916 C924 1.376 1_556 S
C917 C916 1.372 . S
C917 C925 1.433 . S
C918 H914 0.929 . S
C918 C920 1.376 1_556 S
C918 C922 1.350 1_556 S
C919 C922 1.463 1_556 S
C919 C924 1.350 1_556 S
C919 N927 1.427 . S
C920 H911 0.927 1_554 S
C920 C918 1.376 1_554 S
C920 C921 1.372 . S
C921 C920 1.372 . S
C921 C923 1.433 . S
C922 C918 1.350 1_554 S
C922 C919 1.463 1_554 S
C922 N926 1.427 . S
C923 H913 0.929 . S
C923 C921 1.433 . S
C923 N926 1.384 . S
C924 H915 0.929 . S
C924 C916 1.376 1_554 S
C924 C919 1.350 1_554 S
C925 H912 0.929 . S
C925 C917 1.433 . S
C925 N927 1.384 . S
N926 C922 1.427 . S
N926 C923 1.384 . S
N927 C919 1.427 . S
N927 C925 1.384 . S
H928 C934 0.930 . S
H929 C938 0.930 . S
H930 C943 0.929 . S
H931 C941 0.929 . S
H932 C936 0.929 . S
H933 C942 0.929 . S
C934 H928 0.930 . S
C934 C935 1.367 . S
C934 C942 1.378 . S
C935 C934 1.367 . S
C935 C943 1.433 . S
C936 H932 0.929 . S
C936 C938 1.378 . S
C936 C940 1.350 . S
C937 C940 1.463 . S
C937 C942 1.350 . S
C937 N945 1.427 . S
C938 H929 0.930 . S
C938 C936 1.378 . S
C938 C939 1.367 . S
C939 C938 1.367 . S
C939 C941 1.433 . S
C940 C936 1.350 . S
C940 C937 1.463 . S
C940 N944 1.427 . S
C941 H931 0.929 . S
C941 C939 1.433 . S
C941 N944 1.384 . S
C942 H933 0.929 . S
C942 C934 1.378 . S
C942 C937 1.350 . S
C943 H930 0.929 . S
C943 C935 1.433 . S
C943 N945 1.384 . S
N944 C940 1.427 . S
N944 C941 1.384 . S
N945 C937 1.427 . S
N945 C943 1.384 . S
H946 C952 0.930 . S
H947 C956 0.930 . S
H948 C961 0.929 . S
H949 C959 0.929 . S
H950 C954 0.929 . S
H951 C960 0.929 . S
C952 H946 0.930 . S
C952 C953 1.367 . S
C952 C960 1.378 . S
C953 C952 1.367 . S
C953 C961 1.433 1_565 S
C954 H950 0.929 . S
C954 C956 1.378 . S
C954 C958 1.336 1_545 S
C955 C958 1.463 . S
C955 C960 1.350 . S
C955 N963 1.427 1_565 S
C956 H947 0.930 . S
C956 C954 1.378 . S
C956 C957 1.342 1_545 S
C957 C956 1.342 1_565 S
C957 C959 1.459 . S
C958 C954 1.336 1_565 S
C958 C955 1.463 . S
C958 N962 1.441 . S
C959 H949 0.929 . S
C959 C957 1.459 . S
C959 N962 1.384 . S
C960 H951 0.929 . S
C960 C952 1.378 . S
C960 C955 1.350 . S
C961 H948 0.929 . S
C961 C953 1.433 1_545 S
C961 N963 1.384 . S
N962 C958 1.441 . S
N962 C959 1.384 . S
N963 C955 1.427 1_545 S
N963 C961 1.384 . S
H964 C970 0.930 . S
H965 C974 0.930 . S
H966 C979 0.929 . S
H967 C977 0.929 . S
H968 C972 0.929 . S
H969 C978 0.929 . S
C970 H964 0.930 . S
C970 C971 1.342 1_545 S
C970 C978 1.378 . S
C971 C970 1.342 1_565 S
C971 C979 1.459 . S
C972 H968 0.929 . S
C972 C974 1.378 . S
C972 C976 1.350 . S
C973 C976 1.463 . S
C973 C978 1.336 1_565 S
C973 N981 1.441 . S
C974 H965 0.930 . S
C974 C972 1.378 . S
C974 C975 1.367 . S
C975 C974 1.367 . S
C975 C977 1.433 1_565 S
C976 C972 1.350 . S
C976 C973 1.463 . S
C976 N980 1.427 1_565 S
C977 H967 0.929 . S
C977 C975 1.433 1_545 S
C977 N980 1.384 . S
C978 H969 0.929 . S
C978 C970 1.378 . S
C978 C973 1.336 1_545 S
C979 H966 0.929 . S
C979 C971 1.459 . S
C979 N981 1.384 . S
N980 C976 1.427 1_545 S
N980 C977 1.384 . S
N981 C973 1.441 . S
N981 C979 1.384 . S
H982 C988 0.930 . S
H983 C992 0.930 . S
H984 C997 0.929 . S
H985 C995 0.929 . S
H986 C990 0.929 . S
H987 C996 0.929 . S
C988 H982 0.930 . S
C988 C989 1.367 . S
C988 C996 1.378 . S
C989 C988 1.367 . S
C989 C997 1.433 . S
C990 H986 0.929 . S
C990 C992 1.378 . S
C990 C994 1.350 . S
C991 C994 1.463 . S
C991 C996 1.350 . S
C991 N999 1.427 . S
C992 H983 0.930 . S
C992 C990 1.378 . S
C992 C993 1.367 . S
C993 C992 1.367 . S
C993 C995 1.433 . S
C994 C990 1.350 . S
C994 C991 1.463 . S
C994 N998 1.427 . S
C995 H985 0.929 . S
C995 C993 1.433 . S
C995 N998 1.384 . S
C996 H987 0.929 . S
C996 C988 1.378 . S
C996 C991 1.350 . S
C997 H984 0.929 . S
C997 C989 1.433 . S
C997 N999 1.384 . S
N998 C994 1.427 . S
N998 C995 1.384 . S
N999 C991 1.427 . S
N999 C997 1.384 . S
H1000 C1006 0.930 . S
H1001 C1010 0.930 . S
H1002 C1015 0.929 . S
H1003 C1013 0.929 . S
H1004 C1008 0.929 . S
H1005 C1014 0.929 . S
C1006 H1000 0.930 . S
C1006 C1007 1.367 . S
C1006 C1014 1.378 . S
C1007 C1006 1.367 . S
C1007 C1015 1.433 . S
C1008 H1004 0.929 . S
C1008 C1010 1.378 . S
C1008 C1012 1.350 . S
C1009 C1012 1.463 . S
C1009 C1014 1.350 . S
C1009 N1017 1.427 . S
C1010 H1001 0.930 . S
C1010 C1008 1.378 . S
C1010 C1011 1.367 . S
C1011 C1010 1.367 . S
C1011 C1013 1.433 . S
C1012 C1008 1.350 . S
C1012 C1009 1.463 . S
C1012 N1016 1.427 . S
C1013 H1003 0.929 . S
C1013 C1011 1.433 . S
C1013 N1016 1.384 . S
C1014 H1005 0.929 . S
C1014 C1006 1.378 . S
C1014 C1009 1.350 . S
C1015 H1002 0.929 . S
C1015 C1007 1.433 . S
C1015 N1017 1.384 . S
N1016 C1012 1.427 . S
N1016 C1013 1.384 . S
N1017 C1009 1.427 . S
N1017 C1015 1.384 . S
H1018 C1024 0.930 . S
H1019 C1028 0.930 . S
H1020 C1033 0.929 . S
H1021 C1031 0.929 . S
H1022 C1026 0.929 . S
H1023 C1032 0.929 . S
C1024 H1018 0.930 . S
C1024 C1025 1.367 . S
C1024 C1032 1.378 . S
C1025 C1024 1.367 . S
C1025 C1033 1.433 1_545 S
C1026 H1022 0.929 . S
C1026 C1028 1.378 . S
C1026 C1030 1.336 1_565 S
C1027 C1030 1.463 . S
C1027 C1032 1.350 . S
C1027 N1035 1.427 1_545 S
C1028 H1019 0.930 . S
C1028 C1026 1.378 . S
C1028 C1029 1.342 1_565 S
C1029 C1028 1.342 1_545 S
C1029 C1031 1.459 . S
C1030 C1026 1.336 1_545 S
C1030 C1027 1.463 . S
C1030 N1034 1.441 . S
C1031 H1021 0.929 . S
C1031 C1029 1.459 . S
C1031 N1034 1.384 . S
C1032 H1023 0.929 . S
C1032 C1024 1.378 . S
C1032 C1027 1.350 . S
C1033 H1020 0.929 . S
C1033 C1025 1.433 1_565 S
C1033 N1035 1.384 . S
N1034 C1030 1.441 . S
N1034 C1031 1.384 . S
N1035 C1027 1.427 1_565 S
N1035 C1033 1.384 . S
H1036 C1042 0.930 . S
H1037 C1046 0.930 . S
H1038 C1051 0.929 1_556 S
H1039 C1049 0.929 . S
H1040 C1044 0.929 . S
H1041 C1050 0.929 . S
C1042 H1036 0.930 . S
C1042 C1043 1.350 1_565 S
C1042 C1050 1.378 . S
C1043 C1042 1.350 1_545 S
C1043 C1051 1.451 . S
C1044 H1040 0.929 . S
C1044 C1046 1.378 . S
C1044 C1048 1.350 . S
C1045 C1048 1.464 . S
C1045 C1050 1.336 1_545 S
C1045 N1053 1.443 . S
C1046 H1037 0.930 . S
C1046 C1044 1.378 . S
C1046 C1047 1.367 . S
C1047 C1046 1.367 . S
C1047 C1049 1.433 1_545 S
C1048 C1044 1.350 . S
C1048 C1045 1.464 . S
C1048 N1052 1.427 1_545 S
C1049 H1039 0.929 . S
C1049 C1047 1.433 1_565 S
C1049 N1052 1.384 . S
C1050 H1041 0.929 . S
C1050 C1042 1.378 . S
C1050 C1045 1.336 1_565 S
C1051 H1038 0.929 1_554 S
C1051 C1043 1.451 . S
C1051 N1053 1.384 . S
N1052 C1048 1.427 1_565 S
N1052 C1049 1.384 . S
N1053 C1045 1.443 . S
N1053 C1051 1.384 . S
H1054 C1060 0.930 . S
H1055 C1064 0.930 . S
H1056 C1069 0.929 . S
H1057 C1067 0.929 . S
H1058 C1062 0.929 . S
H1059 C1068 0.929 . S
C1060 H1054 0.930 . S
C1060 C1061 1.367 . S
C1060 C1068 1.378 . S
C1061 C1060 1.367 . S
C1061 C1069 1.433 . S
C1062 H1058 0.929 . S
C1062 C1064 1.378 . S
C1062 C1066 1.350 . S
C1063 C1066 1.463 . S
C1063 C1068 1.350 . S
C1063 N1071 1.427 . S
C1064 H1055 0.930 . S
C1064 C1062 1.378 . S
C1064 C1065 1.367 . S
C1065 C1064 1.367 . S
C1065 C1067 1.433 . S
C1066 C1062 1.350 . S
C1066 C1063 1.463 . S
C1066 N1070 1.427 . S
C1067 H1057 0.929 . S
C1067 C1065 1.433 . S
C1067 N1070 1.384 . S
C1068 H1059 0.929 . S
C1068 C1060 1.378 . S
C1068 C1063 1.350 . S
C1069 H1056 0.929 . S
C1069 C1061 1.433 . S
C1069 N1071 1.384 . S
N1070 C1066 1.427 . S
N1070 C1067 1.384 . S
N1071 C1063 1.427 . S
N1071 C1069 1.384 . S
H1072 C1078 0.930 . S
H1073 C1082 0.930 . S
H1074 C1087 0.929 . S
H1075 C1085 0.929 . S
H1076 C1080 0.929 . S
H1077 C1086 0.929 . S
C1078 H1072 0.930 . S
C1078 C1079 1.367 . S
C1078 C1086 1.378 . S
C1079 C1078 1.367 . S
C1079 C1087 1.433 . S
C1080 H1076 0.929 . S
C1080 C1082 1.378 . S
C1080 C1084 1.350 . S
C1081 C1084 1.463 . S
C1081 C1086 1.350 . S
C1081 N1089 1.427 . S
C1082 H1073 0.930 . S
C1082 C1080 1.378 . S
C1082 C1083 1.367 . S
C1083 C1082 1.367 . S
C1083 C1085 1.433 . S
C1084 C1080 1.350 . S
C1084 C1081 1.463 . S
C1084 N1088 1.427 . S
C1085 H1075 0.929 . S
C1085 C1083 1.433 . S
C1085 N1088 1.384 . S
C1086 H1077 0.929 . S
C1086 C1078 1.378 . S
C1086 C1081 1.350 . S
C1087 H1074 0.929 . S
C1087 C1079 1.433 . S
C1087 N1089 1.384 . S
N1088 C1084 1.427 . S
N1088 C1085 1.384 . S
N1089 C1081 1.427 . S
N1089 C1087 1.384 . S
H1090 C1096 0.930 . S
H1091 C1100 0.930 . S
H1092 C1105 0.929 . S
H1093 C1103 0.929 . S
H1094 C1098 0.929 . S
H1095 C1104 0.929 . S
C1096 H1090 0.930 . S
C1096 C1097 1.367 . S
C1096 C1104 1.378 . S
C1097 C1096 1.367 . S
C1097 C1105 1.433 . S
C1098 H1094 0.929 . S
C1098 C1100 1.378 . S
C1098 C1102 1.350 . S
C1099 C1102 1.463 . S
C1099 C1104 1.350 . S
C1099 N1107 1.427 . S
C1100 H1091 0.930 . S
C1100 C1098 1.378 . S
C1100 C1101 1.367 . S
C1101 C1100 1.367 . S
C1101 C1103 1.433 . S
C1102 C1098 1.350 . S
C1102 C1099 1.463 . S
C1102 N1106 1.427 . S
C1103 H1093 0.929 . S
C1103 C1101 1.433 . S
C1103 N1106 1.384 . S
C1104 H1095 0.929 . S
C1104 C1096 1.378 . S
C1104 C1099 1.350 . S
C1105 H1092 0.929 . S
C1105 C1097 1.433 . S
C1105 N1107 1.384 . S
N1106 C1102 1.427 . S
N1106 C1103 1.384 . S
N1107 C1099 1.427 . S
N1107 C1105 1.384 . S
H1108 C1114 0.930 . S
H1109 C1118 0.930 . S
H1110 C1123 0.929 . S
H1111 C1121 0.929 . S
H1112 C1116 0.929 . S
H1113 C1122 0.929 . S
C1114 H1108 0.930 . S
C1114 C1115 1.367 . S
C1114 C1122 1.378 . S
C1115 C1114 1.367 . S
C1115 C1123 1.433 . S
C1116 H1112 0.929 . S
C1116 C1118 1.378 . S
C1116 C1120 1.350 . S
C1117 C1120 1.463 . S
C1117 C1122 1.350 . S
C1117 N1125 1.427 . S
C1118 H1109 0.930 . S
C1118 C1116 1.378 . S
C1118 C1119 1.367 . S
C1119 C1118 1.367 . S
C1119 C1121 1.433 . S
C1120 C1116 1.350 . S
C1120 C1117 1.463 . S
C1120 N1124 1.427 . S
C1121 H1111 0.929 . S
C1121 C1119 1.433 . S
C1121 N1124 1.384 . S
C1122 H1113 0.929 . S
C1122 C1114 1.378 . S
C1122 C1117 1.350 . S
C1123 H1110 0.929 . S
C1123 C1115 1.433 . S
C1123 N1125 1.384 . S
N1124 C1120 1.427 . S
N1124 C1121 1.384 . S
N1125 C1117 1.427 . S
N1125 C1123 1.384 . S
H1126 C1132 0.930 . S
H1127 C1136 0.930 . S
H1128 C1141 0.929 . S
H1129 C1139 0.929 . S
H1130 C1134 0.929 . S
H1131 C1140 0.929 . S
C1132 H1126 0.930 . S
C1132 C1133 1.367 . S
C1132 C1140 1.378 . S
C1133 C1132 1.367 . S
C1133 C1141 1.433 . S
C1134 H1130 0.929 . S
C1134 C1136 1.378 . S
C1134 C1138 1.350 . S
C1135 C1138 1.463 . S
C1135 C1140 1.350 . S
C1135 N1143 1.427 . S
C1136 H1127 0.930 . S
C1136 C1134 1.378 . S
C1136 C1137 1.367 . S
C1137 C1136 1.367 . S
C1137 C1139 1.433 . S
C1138 C1134 1.350 . S
C1138 C1135 1.463 . S
C1138 N1142 1.427 . S
C1139 H1129 0.929 . S
C1139 C1137 1.433 . S
C1139 N1142 1.384 . S
C1140 H1131 0.929 . S
C1140 C1132 1.378 . S
C1140 C1135 1.350 . S
C1141 H1128 0.929 . S
C1141 C1133 1.433 . S
C1141 N1143 1.384 . S
N1142 C1138 1.427 . S
N1142 C1139 1.384 . S
N1143 C1135 1.427 . S
N1143 C1141 1.384 . S
H1144 C1150 0.930 . S
H1145 C1154 0.930 . S
H1146 C1159 0.929 . S
H1147 C1157 0.929 . S
H1148 C1152 0.929 . S
H1149 C1158 0.929 . S
C1150 H1144 0.930 . S
C1150 C1151 1.367 . S
C1150 C1158 1.378 . S
C1151 C1150 1.367 . S
C1151 C1159 1.433 . S
C1152 H1148 0.929 . S
C1152 C1154 1.378 . S
C1152 C1156 1.350 . S
C1153 C1156 1.463 . S
C1153 C1158 1.350 . S
C1153 N1161 1.427 . S
C1154 H1145 0.930 . S
C1154 C1152 1.378 . S
C1154 C1155 1.367 . S
C1155 C1154 1.367 . S
C1155 C1157 1.433 . S
C1156 C1152 1.350 . S
C1156 C1153 1.463 . S
C1156 N1160 1.427 . S
C1157 H1147 0.929 . S
C1157 C1155 1.433 . S
C1157 N1160 1.384 . S
C1158 H1149 0.929 . S
C1158 C1150 1.378 . S
C1158 C1153 1.350 . S
C1159 H1146 0.929 . S
C1159 C1151 1.433 . S
C1159 N1161 1.384 . S
N1160 C1156 1.427 . S
N1160 C1157 1.384 . S
N1161 C1153 1.427 . S
N1161 C1159 1.384 . S
H1162 C1168 0.930 . S
H1163 C1172 0.930 . S
H1164 C1177 0.929 . S
H1165 C1175 0.929 . S
H1166 C1170 0.929 . S
H1167 C1176 0.929 . S
C1168 H1162 0.930 . S
C1168 C1169 1.367 . S
C1168 C1176 1.378 . S
C1169 C1168 1.367 . S
C1169 C1177 1.433 . S
C1170 H1166 0.929 . S
C1170 C1172 1.378 . S
C1170 C1174 1.350 . S
C1171 C1174 1.463 . S
C1171 C1176 1.350 . S
C1171 N1179 1.427 . S
C1172 H1163 0.930 . S
C1172 C1170 1.378 . S
C1172 C1173 1.367 . S
C1173 C1172 1.367 . S
C1173 C1175 1.433 . S
C1174 C1170 1.350 . S
C1174 C1171 1.463 . S
C1174 N1178 1.427 . S
C1175 H1165 0.929 . S
C1175 C1173 1.433 . S
C1175 N1178 1.384 . S
C1176 H1167 0.929 . S
C1176 C1168 1.378 . S
C1176 C1171 1.350 . S
C1177 H1164 0.929 . S
C1177 C1169 1.433 . S
C1177 N1179 1.384 . S
N1178 C1174 1.427 . S
N1178 C1175 1.384 . S
N1179 C1171 1.427 . S
N1179 C1177 1.384 . S
H1180 C1186 0.930 . S
H1181 C1190 0.930 . S
H1182 C1195 0.929 . S
H1183 C1193 0.929 . S
H1184 C1188 0.929 . S
H1185 C1194 0.929 . S
C1186 H1180 0.930 . S
C1186 C1187 1.367 . S
C1186 C1194 1.378 . S
C1187 C1186 1.367 . S
C1187 C1195 1.433 . S
C1188 H1184 0.929 . S
C1188 C1190 1.378 . S
C1188 C1192 1.350 . S
C1189 C1192 1.463 . S
C1189 C1194 1.350 . S
C1189 N1197 1.427 . S
C1190 H1181 0.930 . S
C1190 C1188 1.378 . S
C1190 C1191 1.367 . S
C1191 C1190 1.367 . S
C1191 C1193 1.433 . S
C1192 C1188 1.350 . S
C1192 C1189 1.463 . S
C1192 N1196 1.427 . S
C1193 H1183 0.929 . S
C1193 C1191 1.433 . S
C1193 N1196 1.384 . S
C1194 H1185 0.929 . S
C1194 C1186 1.378 . S
C1194 C1189 1.350 . S
C1195 H1182 0.929 . S
C1195 C1187 1.433 . S
C1195 N1197 1.384 . S
N1196 C1192 1.427 . S
N1196 C1193 1.384 . S
N1197 C1189 1.427 . S
N1197 C1195 1.384 . S
H1198 C1204 0.930 . S
H1199 C1208 0.930 . S
H1200 C1213 0.929 . S
H1201 C1211 0.929 . S
H1202 C1206 0.929 . S
H1203 C1212 0.929 . S
C1204 H1198 0.930 . S
C1204 C1205 1.367 . S
C1204 C1212 1.378 . S
C1205 C1204 1.367 . S
C1205 C1213 1.433 . S
C1206 H1202 0.929 . S
C1206 C1208 1.378 . S
C1206 C1210 1.350 . S
C1207 C1210 1.463 . S
C1207 C1212 1.350 . S
C1207 N1215 1.427 . S
C1208 H1199 0.930 . S
C1208 C1206 1.378 . S
C1208 C1209 1.367 . S
C1209 C1208 1.367 . S
C1209 C1211 1.433 . S
C1210 C1206 1.350 . S
C1210 C1207 1.463 . S
C1210 N1214 1.427 . S
C1211 H1201 0.929 . S
C1211 C1209 1.433 . S
C1211 N1214 1.384 . S
C1212 H1203 0.929 . S
C1212 C1204 1.378 . S
C1212 C1207 1.350 . S
C1213 H1200 0.929 . S
C1213 C1205 1.433 . S
C1213 N1215 1.384 . S
N1214 C1210 1.427 . S
N1214 C1211 1.384 . S
N1215 C1207 1.427 . S
N1215 C1213 1.384 . S
H1216 C1222 0.930 . S
H1217 C1226 0.930 . S
H1218 C1231 0.929 . S
H1219 C1229 0.929 . S
H1220 C1224 0.929 . S
H1221 C1230 0.929 . S
C1222 H1216 0.930 . S
C1222 C1223 1.367 . S
C1222 C1230 1.378 . S
C1223 C1222 1.367 . S
C1223 C1231 1.433 . S
C1224 H1220 0.929 . S
C1224 C1226 1.378 . S
C1224 C1228 1.350 . S
C1225 C1228 1.463 . S
C1225 C1230 1.350 . S
C1225 N1233 1.427 . S
C1226 H1217 0.930 . S
C1226 C1224 1.378 . S
C1226 C1227 1.367 . S
C1227 C1226 1.367 . S
C1227 C1229 1.433 . S
C1228 C1224 1.350 . S
C1228 C1225 1.463 . S
C1228 N1232 1.427 . S
C1229 H1219 0.929 . S
C1229 C1227 1.433 . S
C1229 N1232 1.384 . S
C1230 H1221 0.929 . S
C1230 C1222 1.378 . S
C1230 C1225 1.350 . S
C1231 H1218 0.929 . S
C1231 C1223 1.433 . S
C1231 N1233 1.384 . S
N1232 C1228 1.427 . S
N1232 C1229 1.384 . S
N1233 C1225 1.427 . S
N1233 C1231 1.384 . S
H1234 C1240 0.930 . S
H1235 C1244 0.930 . S
H1236 C1249 0.929 . S
H1237 C1247 0.929 . S
H1238 C1242 0.929 . S
H1239 C1248 0.929 . S
C1240 H1234 0.930 . S
C1240 C1241 1.367 . S
C1240 C1248 1.378 . S
C1241 C1240 1.367 . S
C1241 C1249 1.433 1_565 S
C1242 H1238 0.929 . S
C1242 C1244 1.378 . S
C1242 C1246 1.306 1_545 S
C1243 C1246 1.467 . S
C1243 C1248 1.350 . S
C1243 N1251 1.427 1_565 S
C1244 H1235 0.930 . S
C1244 C1242 1.378 . S
C1244 C1245 1.331 1_545 S
C1245 C1244 1.331 1_565 S
C1245 C1247 1.470 . S
C1246 C1242 1.306 1_565 S
C1246 C1243 1.467 . S
C1246 N1250 1.472 . S
C1247 H1237 0.929 . S
C1247 C1245 1.470 . S
C1247 N1250 1.384 . S
C1248 H1239 0.929 . S
C1248 C1240 1.378 . S
C1248 C1243 1.350 . S
C1249 H1236 0.929 . S
C1249 C1241 1.433 1_545 S
C1249 N1251 1.384 . S
N1250 C1246 1.472 . S
N1250 C1247 1.384 . S
N1251 C1243 1.427 1_545 S
N1251 C1249 1.384 . S
H1252 C1258 0.930 . S
H1253 C1262 0.930 . S
H1254 C1267 0.929 . S
H1255 C1265 0.929 . S
H1256 C1260 0.929 . S
H1257 C1266 0.929 . S
C1258 H1252 0.930 . S
C1258 C1259 1.335 1_545 S
C1258 C1266 1.378 . S
C1259 C1258 1.335 1_565 S
C1259 C1267 1.467 . S
C1260 H1256 0.929 . S
C1260 C1262 1.378 . S
C1260 C1264 1.350 . S
C1261 C1264 1.463 . S
C1261 C1266 1.350 1_565 S
C1261 N1269 1.427 . S
C1262 H1253 0.930 . S
C1262 C1260 1.378 . S
C1262 C1263 1.367 . S
C1263 C1262 1.367 . S
C1263 C1265 1.433 1_565 S
C1264 C1260 1.350 . S
C1264 C1261 1.463 . S
C1264 N1268 1.427 1_565 S
C1265 H1255 0.929 . S
C1265 C1263 1.433 1_545 S
C1265 N1268 1.384 . S
C1266 H1257 0.929 . S
C1266 C1258 1.378 . S
C1266 C1261 1.350 1_545 S
C1267 H1254 0.929 . S
C1267 C1259 1.467 . S
C1267 N1269 1.384 . S
N1268 C1264 1.427 1_545 S
N1268 C1265 1.384 . S
N1269 C1261 1.427 . S
N1269 C1267 1.384 . S
H1270 C1276 0.930 . S
H1271 C1280 0.930 . S
H1272 C1285 0.929 . S
H1273 C1283 0.929 . S
H1274 C1278 0.929 . S
H1275 C1284 0.929 . S
C1276 H1270 0.930 . S
C1276 C1277 1.367 . S
C1276 C1284 1.378 . S
C1277 C1276 1.367 . S
C1277 C1285 1.433 . S
C1278 H1274 0.929 . S
C1278 C1280 1.378 . S
C1278 C1282 1.350 . S
C1279 C1282 1.463 . S
C1279 C1284 1.350 . S
C1279 N1287 1.427 . S
C1280 H1271 0.930 . S
C1280 C1278 1.378 . S
C1280 C1281 1.367 . S
C1281 C1280 1.367 . S
C1281 C1283 1.433 . S
C1282 C1278 1.350 . S
C1282 C1279 1.463 . S
C1282 N1286 1.427 . S
C1283 H1273 0.929 . S
C1283 C1281 1.433 . S
C1283 N1286 1.384 . S
C1284 H1275 0.929 . S
C1284 C1276 1.378 . S
C1284 C1279 1.350 . S
C1285 H1272 0.929 . S
C1285 C1277 1.433 . S
C1285 N1287 1.384 . S
N1286 C1282 1.427 . S
N1286 C1283 1.384 . S
N1287 C1279 1.427 . S
N1287 C1285 1.384 . S
H1288 C1294 0.930 . S
H1289 C1298 0.930 . S
H1290 C1303 0.929 . S
H1291 C1301 0.929 . S
H1292 C1296 0.929 . S
H1293 C1302 0.929 . S
C1294 H1288 0.930 . S
C1294 C1295 1.367 . S
C1294 C1302 1.378 . S
C1295 C1294 1.367 . S
C1295 C1303 1.433 . S
C1296 H1292 0.929 . S
C1296 C1298 1.378 . S
C1296 C1300 1.350 . S
C1297 C1300 1.463 . S
C1297 C1302 1.350 . S
C1297 N1305 1.427 . S
C1298 H1289 0.930 . S
C1298 C1296 1.378 . S
C1298 C1299 1.367 . S
C1299 C1298 1.367 . S
C1299 C1301 1.433 . S
C1300 C1296 1.350 . S
C1300 C1297 1.463 . S
C1300 N1304 1.427 . S
C1301 H1291 0.929 . S
C1301 C1299 1.433 . S
C1301 N1304 1.384 . S
C1302 H1293 0.929 . S
C1302 C1294 1.378 . S
C1302 C1297 1.350 . S
C1303 H1290 0.929 . S
C1303 C1295 1.433 . S
C1303 N1305 1.384 . S
N1304 C1300 1.427 . S
N1304 C1301 1.384 . S
N1305 C1297 1.427 . S
N1305 C1303 1.384 . S
H1306 C1312 0.930 . S
H1307 C1316 0.930 . S
H1308 C1321 0.929 . S
H1309 C1319 0.929 . S
H1310 C1314 0.929 . S
H1311 C1320 0.929 . S
C1312 H1306 0.930 . S
C1312 C1313 1.367 1_565 S
C1312 C1320 1.378 . S
C1313 C1312 1.367 1_545 S
C1313 C1321 1.433 . S
C1314 H1310 0.929 . S
C1314 C1316 1.378 . S
C1314 C1318 1.350 . S
C1315 C1318 1.463 . S
C1315 C1320 1.350 1_545 S
C1315 N1323 1.427 . S
C1316 H1307 0.930 . S
C1316 C1314 1.378 . S
C1316 C1317 1.367 . S
C1317 C1316 1.367 . S
C1317 C1319 1.433 1_545 S
C1318 C1314 1.350 . S
C1318 C1315 1.463 . S
C1318 N1322 1.427 1_545 S
C1319 H1309 0.929 . S
C1319 C1317 1.433 1_565 S
C1319 N1322 1.384 . S
C1320 H1311 0.929 . S
C1320 C1312 1.378 . S
C1320 C1315 1.350 1_565 S
C1321 H1308 0.929 . S
C1321 C1313 1.433 . S
C1321 N1323 1.384 . S
N1322 C1318 1.427 1_565 S
N1322 C1319 1.384 . S
N1323 C1315 1.427 . S
N1323 C1321 1.384 . S
H1324 C1330 0.930 . S
H1325 C1334 0.930 . S
H1326 C1339 0.929 . S
H1327 C1337 0.929 . S
H1328 C1332 0.929 . S
H1329 C1338 0.929 . S
C1330 H1324 0.930 . S
C1330 C1331 1.367 1_565 S
C1330 C1338 1.378 . S
C1331 C1330 1.367 1_545 S
C1331 C1339 1.433 . S
C1332 H1328 0.929 . S
C1332 C1334 1.378 . S
C1332 C1336 1.350 . S
C1333 C1336 1.463 . S
C1333 C1338 1.350 1_545 S
C1333 N1341 1.427 . S
C1334 H1325 0.930 . S
C1334 C1332 1.378 . S
C1334 C1335 1.367 . S
C1335 C1334 1.367 . S
C1335 C1337 1.433 1_545 S
C1336 C1332 1.350 . S
C1336 C1333 1.463 . S
C1336 N1340 1.427 1_545 S
C1337 H1327 0.929 . S
C1337 C1335 1.433 1_565 S
C1337 N1340 1.384 . S
C1338 H1329 0.929 . S
C1338 C1330 1.378 . S
C1338 C1333 1.350 1_565 S
C1339 H1326 0.929 . S
C1339 C1331 1.433 . S
C1339 N1341 1.384 . S
N1340 C1336 1.427 1_565 S
N1340 C1337 1.384 . S
N1341 C1333 1.427 . S
N1341 C1339 1.384 . S
H1342 C1348 0.930 . S
H1343 C1352 0.930 . S
H1344 C1357 0.929 . S
H1345 C1355 0.929 . S
H1346 C1350 0.929 . S
H1347 C1356 0.929 . S
C1348 H1342 0.930 . S
C1348 C1349 1.367 . S
C1348 C1356 1.378 . S
C1349 C1348 1.367 . S
C1349 C1357 1.433 . S
C1350 H1346 0.929 . S
C1350 C1352 1.378 . S
C1350 C1354 1.350 . S
C1351 C1354 1.463 . S
C1351 C1356 1.350 . S
C1351 N1359 1.427 . S
C1352 H1343 0.930 . S
C1352 C1350 1.378 . S
C1352 C1353 1.367 . S
C1353 C1352 1.367 . S
C1353 C1355 1.433 . S
C1354 C1350 1.350 . S
C1354 C1351 1.463 . S
C1354 N1358 1.427 . S
C1355 H1345 0.929 . S
C1355 C1353 1.433 . S
C1355 N1358 1.384 . S
C1356 H1347 0.929 . S
C1356 C1348 1.378 . S
C1356 C1351 1.350 . S
C1357 H1344 0.929 . S
C1357 C1349 1.433 . S
C1357 N1359 1.384 . S
N1358 C1354 1.427 . S
N1358 C1355 1.384 . S
N1359 C1351 1.427 . S
N1359 C1357 1.384 . S
H1360 C1366 0.930 . S
H1361 C1370 0.930 . S
H1362 C1375 0.929 . S
H1363 C1373 0.929 . S
H1364 C1368 0.929 . S
H1365 C1374 0.929 . S
C1366 H1360 0.930 . S
C1366 C1367 1.373 . S
C1366 C1374 1.378 . S
C1367 C1366 1.373 . S
C1367 C1375 1.441 . S
C1368 H1364 0.929 . S
C1368 C1370 1.378 . S
C1368 C1372 1.350 . S
C1369 C1372 1.463 . S
C1369 C1374 1.350 . S
C1369 N1377 1.427 . S
C1370 H1361 0.930 . S
C1370 C1368 1.378 . S
C1370 C1371 1.367 . S
C1371 C1370 1.367 . S
C1371 C1373 1.433 . S
C1372 C1368 1.350 . S
C1372 C1369 1.463 . S
C1372 N1376 1.427 . S
C1373 H1363 0.929 . S
C1373 C1371 1.433 . S
C1373 N1376 1.384 . S
C1374 H1365 0.929 . S
C1374 C1366 1.378 . S
C1374 C1369 1.350 . S
C1375 H1362 0.929 . S
C1375 C1367 1.441 . S
C1375 N1377 1.384 . S
N1376 C1372 1.427 . S
N1376 C1373 1.384 . S
N1377 C1369 1.427 . S
N1377 C1375 1.384 . S
H1378 C1384 0.930 . S
H1379 C1388 0.930 . S
H1380 C1393 0.929 . S
H1381 C1391 0.929 . S
H1382 C1386 0.929 . S
H1383 C1392 0.929 . S
C1384 H1378 0.930 . S
C1384 C1385 1.367 . S
C1384 C1392 1.378 . S
C1385 C1384 1.367 . S
C1385 C1393 1.433 . S
C1386 H1382 0.929 . S
C1386 C1388 1.378 . S
C1386 C1390 1.350 . S
C1387 C1390 1.463 . S
C1387 C1392 1.350 . S
C1387 N1395 1.427 . S
C1388 H1379 0.930 . S
C1388 C1386 1.378 . S
C1388 C1389 1.367 . S
C1389 C1388 1.367 . S
C1389 C1391 1.433 . S
C1390 C1386 1.350 . S
C1390 C1387 1.463 . S
C1390 N1394 1.427 . S
C1391 H1381 0.929 . S
C1391 C1389 1.433 . S
C1391 N1394 1.384 . S
C1392 H1383 0.929 . S
C1392 C1384 1.378 . S
C1392 C1387 1.350 . S
C1393 H1380 0.929 . S
C1393 C1385 1.433 . S
C1393 N1395 1.384 . S
N1394 C1390 1.427 . S
N1394 C1391 1.384 . S
N1395 C1387 1.427 . S
N1395 C1393 1.384 . S
H1396 C1402 0.930 . S
H1397 C1406 0.930 . S
H1398 C1411 0.929 . S
H1399 C1409 0.929 . S
H1400 C1404 0.929 . S
H1401 C1410 0.929 . S
C1402 H1396 0.930 . S
C1402 C1403 1.367 . S
C1402 C1410 1.378 . S
C1403 C1402 1.367 . S
C1403 C1411 1.433 . S
C1404 H1400 0.929 . S
C1404 C1406 1.378 . S
C1404 C1408 1.350 . S
C1405 C1408 1.463 1_556 S
C1405 C1410 1.350 . S
C1405 N1413 1.427 . S
C1406 H1397 0.930 . S
C1406 C1404 1.378 . S
C1406 C1407 1.367 . S
C1407 C1406 1.367 . S
C1407 C1409 1.433 . S
C1408 C1404 1.350 . S
C1408 C1405 1.463 1_554 S
C1408 N1412 1.427 . S
C1409 H1399 0.929 . S
C1409 C1407 1.433 . S
C1409 N1412 1.384 . S
C1410 H1401 0.929 . S
C1410 C1402 1.378 . S
C1410 C1405 1.350 . S
C1411 H1398 0.929 . S
C1411 C1403 1.433 . S
C1411 N1413 1.384 . S
N1412 C1408 1.427 . S
N1412 C1409 1.384 . S
N1413 C1405 1.427 . S
N1413 C1411 1.384 . S
H1414 C1420 0.930 . S
H1415 C1424 0.930 . S
H1416 C1429 0.929 . S
H1417 C1427 0.929 . S
H1418 C1422 0.929 . S
H1419 C1428 0.929 . S
C1420 H1414 0.930 . S
C1420 C1421 1.367 . S
C1420 C1428 1.378 . S
C1421 C1420 1.367 . S
C1421 C1429 1.433 . S
C1422 H1418 0.929 . S
C1422 C1424 1.378 . S
C1422 C1426 1.350 . S
C1423 C1426 1.463 1_556 S
C1423 C1428 1.350 . S
C1423 N1431 1.427 . S
C1424 H1415 0.930 . S
C1424 C1422 1.378 . S
C1424 C1425 1.367 . S
C1425 C1424 1.367 . S
C1425 C1427 1.433 . S
C1426 C1422 1.350 . S
C1426 C1423 1.463 1_554 S
C1426 N1430 1.427 . S
C1427 H1417 0.929 . S
C1427 C1425 1.433 . S
C1427 N1430 1.384 . S
C1428 H1419 0.929 . S
C1428 C1420 1.378 . S
C1428 C1423 1.350 . S
C1429 H1416 0.929 . S
C1429 C1421 1.433 . S
C1429 N1431 1.384 . S
N1430 C1426 1.427 . S
N1430 C1427 1.384 . S
N1431 C1423 1.427 . S
N1431 C1429 1.384 . S
H1432 C1438 0.930 . S
H1433 C1442 0.930 . S
H1434 C1447 0.929 . S
H1435 C1445 0.929 . S
H1436 C1440 0.929 . S
H1437 C1446 0.929 . S
C1438 H1432 0.930 . S
C1438 C1439 1.367 . S
C1438 C1446 1.378 . S
C1439 C1438 1.367 . S
C1439 C1447 1.433 . S
C1440 H1436 0.929 . S
C1440 C1442 1.378 . S
C1440 C1444 1.350 . S
C1441 C1444 1.463 . S
C1441 C1446 1.350 . S
C1441 N1449 1.427 . S
C1442 H1433 0.930 . S
C1442 C1440 1.378 . S
C1442 C1443 1.367 . S
C1443 C1442 1.367 . S
C1443 C1445 1.433 . S
C1444 C1440 1.350 . S
C1444 C1441 1.463 . S
C1444 N1448 1.427 . S
C1445 H1435 0.929 . S
C1445 C1443 1.433 . S
C1445 N1448 1.384 . S
C1446 H1437 0.929 . S
C1446 C1438 1.378 . S
C1446 C1441 1.350 . S
C1447 H1434 0.929 . S
C1447 C1439 1.433 . S
C1447 N1449 1.384 . S
N1448 C1444 1.427 . S
N1448 C1445 1.384 . S
N1449 C1441 1.427 . S
N1449 C1447 1.384 . S
H1450 C1456 0.930 . S
H1451 C1460 0.930 . S
H1452 C1465 0.929 . S
H1453 C1463 0.929 . S
H1454 C1458 0.929 . S
H1455 C1464 0.929 . S
C1456 H1450 0.930 . S
C1456 C1457 1.367 . S
C1456 C1464 1.378 . S
C1457 C1456 1.367 . S
C1457 C1465 1.433 . S
C1458 H1454 0.929 . S
C1458 C1460 1.378 . S
C1458 C1462 1.350 . S
C1459 C1462 1.463 . S
C1459 C1464 1.350 . S
C1459 N1467 1.427 . S
C1460 H1451 0.930 . S
C1460 C1458 1.378 . S
C1460 C1461 1.367 . S
C1461 C1460 1.367 . S
C1461 C1463 1.433 . S
C1462 C1458 1.350 . S
C1462 C1459 1.463 . S
C1462 N1466 1.427 . S
C1463 H1453 0.929 . S
C1463 C1461 1.433 . S
C1463 N1466 1.384 . S
C1464 H1455 0.929 . S
C1464 C1456 1.378 . S
C1464 C1459 1.350 . S
C1465 H1452 0.929 . S
C1465 C1457 1.433 . S
C1465 N1467 1.384 . S
N1466 C1462 1.427 . S
N1466 C1463 1.384 . S
N1467 C1459 1.427 . S
N1467 C1465 1.384 . S
H1468 C1474 0.930 . S
H1469 C1478 0.930 . S
H1470 C1483 0.929 . S
H1471 C1481 0.929 . S
H1472 C1476 0.929 . S
H1473 C1482 0.929 . S
C1474 H1468 0.930 . S
C1474 C1475 1.367 . S
C1474 C1482 1.378 . S
C1475 C1474 1.367 . S
C1475 C1483 1.433 . S
C1476 H1472 0.929 . S
C1476 C1478 1.378 . S
C1476 C1480 1.350 . S
C1477 C1480 1.463 1_554 S
C1477 C1482 1.350 . S
C1477 N1485 1.427 . S
C1478 H1469 0.930 . S
C1478 C1476 1.378 . S
C1478 C1479 1.367 . S
C1479 C1478 1.367 . S
C1479 C1481 1.433 . S
C1480 C1476 1.350 . S
C1480 C1477 1.463 1_556 S
C1480 N1484 1.427 . S
C1481 H1471 0.929 . S
C1481 C1479 1.433 . S
C1481 N1484 1.384 . S
C1482 H1473 0.929 . S
C1482 C1474 1.378 . S
C1482 C1477 1.350 . S
C1483 H1470 0.929 . S
C1483 C1475 1.433 . S
C1483 N1485 1.384 . S
N1484 C1480 1.427 . S
N1484 C1481 1.384 . S
N1485 C1477 1.427 . S
N1485 C1483 1.384 . S
H1486 C1492 0.930 . S
H1487 C1496 0.930 . S
H1488 C1501 0.929 . S
H1489 C1499 0.929 . S
H1490 C1494 0.929 . S
H1491 C1500 0.929 . S
C1492 H1486 0.930 . S
C1492 C1493 1.367 . S
C1492 C1500 1.378 . S
C1493 C1492 1.367 . S
C1493 C1501 1.433 . S
C1494 H1490 0.929 . S
C1494 C1496 1.378 . S
C1494 C1498 1.350 . S
C1495 C1498 1.463 1_556 S
C1495 C1500 1.350 . S
C1495 N1503 1.427 . S
C1496 H1487 0.930 . S
C1496 C1494 1.378 . S
C1496 C1497 1.367 . S
C1497 C1496 1.367 . S
C1497 C1499 1.433 . S
C1498 C1494 1.350 . S
C1498 C1495 1.463 1_554 S
C1498 N1502 1.427 . S
C1499 H1489 0.929 . S
C1499 C1497 1.433 . S
C1499 N1502 1.384 . S
C1500 H1491 0.929 . S
C1500 C1492 1.378 . S
C1500 C1495 1.350 . S
C1501 H1488 0.929 . S
C1501 C1493 1.433 . S
C1501 N1503 1.384 . S
N1502 C1498 1.427 . S
N1502 C1499 1.384 . S
N1503 C1495 1.427 . S
N1503 C1501 1.384 . S
H1504 C1510 0.930 . S
H1505 C1514 0.930 . S
H1506 C1519 0.936 . S
H1507 C1517 0.929 . S
H1508 C1512 0.929 . S
H1509 C1518 0.929 . S
C1510 H1504 0.930 . S
C1510 C1511 1.367 . S
C1510 C1518 1.378 . S
C1511 C1510 1.367 . S
C1511 C1519 1.433 . S
C1512 H1508 0.929 . S
C1512 C1514 1.378 . S
C1512 C1516 1.350 . S
C1513 C1516 1.463 . S
C1513 C1518 1.350 . S
C1513 N1521 1.427 . S
C1514 H1505 0.930 . S
C1514 C1512 1.378 . S
C1514 C1515 1.367 . S
C1515 C1514 1.367 . S
C1515 C1517 1.433 . S
C1516 C1512 1.350 . S
C1516 C1513 1.463 . S
C1516 N1520 1.427 . S
C1517 H1507 0.929 . S
C1517 C1515 1.433 . S
C1517 N1520 1.384 . S
C1518 H1509 0.929 . S
C1518 C1510 1.378 . S
C1518 C1513 1.350 . S
C1519 H1506 0.936 . S
C1519 C1511 1.433 . S
C1519 N1521 1.384 . S
N1520 C1516 1.427 . S
N1520 C1517 1.384 . S
N1521 C1513 1.427 . S
N1521 C1519 1.384 . S
H1522 C1528 0.930 . S
H1523 C1532 0.930 . S
H1524 C1537 0.929 . S
H1525 C1535 0.929 . S
H1526 C1530 0.929 . S
H1527 C1536 0.929 . S
C1528 H1522 0.930 . S
C1528 C1529 1.332 1_545 S
C1528 C1536 1.378 . S
C1529 C1528 1.332 1_565 S
C1529 C1537 1.469 . S
C1530 H1526 0.929 . S
C1530 C1532 1.378 . S
C1530 C1534 1.350 . S
C1531 C1534 1.463 . S
C1531 C1536 1.350 1_565 S
C1531 N1539 1.427 . S
C1532 H1523 0.930 . S
C1532 C1530 1.378 . S
C1532 C1533 1.367 . S
C1533 C1532 1.367 . S
C1533 C1535 1.433 1_565 S
C1534 C1530 1.350 . S
C1534 C1531 1.463 . S
C1534 N1538 1.427 1_565 S
C1535 H1525 0.929 . S
C1535 C1533 1.433 1_545 S
C1535 N1538 1.384 . S
C1536 H1527 0.929 . S
C1536 C1528 1.378 . S
C1536 C1531 1.350 1_545 S
C1537 H1524 0.929 . S
C1537 C1529 1.469 . S
C1537 N1539 1.384 . S
N1538 C1534 1.427 1_545 S
N1538 C1535 1.384 . S
N1539 C1531 1.427 . S
N1539 C1537 1.384 . S
H1540 C1546 0.930 . S
H1541 C1550 0.930 . S
H1542 C1555 0.929 . S
H1543 C1553 0.929 . S
H1544 C1548 0.929 . S
H1545 C1554 0.929 . S
C1546 H1540 0.930 . S
C1546 C1547 1.367 . S
C1546 C1554 1.378 . S
C1547 C1546 1.367 . S
C1547 C1555 1.433 1_565 S
C1548 H1544 0.929 . S
C1548 C1550 1.378 . S
C1548 C1552 1.350 1_545 S
C1549 C1552 1.463 1_556 S
C1549 C1554 1.350 . S
C1549 N1557 1.427 1_565 S
C1550 H1541 0.930 . S
C1550 C1548 1.378 . S
C1550 C1551 1.367 1_545 S
C1551 C1550 1.367 1_565 S
C1551 C1553 1.433 . S
C1552 C1548 1.350 1_565 S
C1552 C1549 1.463 1_554 S
C1552 N1556 1.427 . S
C1553 H1543 0.929 . S
C1553 C1551 1.433 . S
C1553 N1556 1.384 . S
C1554 H1545 0.929 . S
C1554 C1546 1.378 . S
C1554 C1549 1.350 . S
C1555 H1542 0.929 . S
C1555 C1547 1.433 1_545 S
C1555 N1557 1.384 . S
N1556 C1552 1.427 . S
N1556 C1553 1.384 . S
N1557 C1549 1.427 1_545 S
N1557 C1555 1.384 . S
H1558 C1564 0.930 . S
H1559 C1568 0.930 . S
H1560 C1573 0.929 . S
H1561 C1571 0.929 . S
H1562 C1566 0.929 . S
H1563 C1572 0.929 . S
C1564 H1558 0.930 . S
C1564 C1565 1.367 . S
C1564 C1572 1.378 . S
C1565 C1564 1.367 . S
C1565 C1573 1.433 . S
C1566 H1562 0.929 . S
C1566 C1568 1.378 . S
C1566 C1570 1.350 . S
C1567 C1570 1.463 1_556 S
C1567 C1572 1.350 . S
C1567 N1575 1.427 . S
C1568 H1559 0.930 . S
C1568 C1566 1.378 . S
C1568 C1569 1.367 . S
C1569 C1568 1.367 . S
C1569 C1571 1.433 . S
C1570 C1566 1.350 . S
C1570 C1567 1.463 1_554 S
C1570 N1574 1.427 . S
C1571 H1561 0.929 . S
C1571 C1569 1.433 . S
C1571 N1574 1.384 . S
C1572 H1563 0.929 . S
C1572 C1564 1.378 . S
C1572 C1567 1.350 . S
C1573 H1560 0.929 . S
C1573 C1565 1.433 . S
C1573 N1575 1.384 . S
N1574 C1570 1.427 . S
N1574 C1571 1.384 . S
N1575 C1567 1.427 . S
N1575 C1573 1.384 . S
H1576 C1582 0.930 . S
H1577 C1586 0.930 . S
H1578 C1591 0.929 . S
H1579 C1589 0.929 . S
H1580 C1584 0.929 . S
H1581 C1590 0.929 . S
C1582 H1576 0.930 . S
C1582 C1583 1.367 . S
C1582 C1590 1.378 . S
C1583 C1582 1.367 . S
C1583 C1591 1.433 . S
C1584 H1580 0.929 . S
C1584 C1586 1.378 . S
C1584 C1588 1.350 . S
C1585 C1588 1.463 . S
C1585 C1590 1.350 . S
C1585 N1593 1.427 . S
C1586 H1577 0.930 . S
C1586 C1584 1.378 . S
C1586 C1587 1.367 . S
C1587 C1586 1.367 . S
C1587 C1589 1.433 . S
C1588 C1584 1.350 . S
C1588 C1585 1.463 . S
C1588 N1592 1.427 . S
C1589 H1579 0.929 . S
C1589 C1587 1.433 . S
C1589 N1592 1.384 . S
C1590 H1581 0.929 . S
C1590 C1582 1.378 . S
C1590 C1585 1.350 . S
C1591 H1578 0.929 . S
C1591 C1583 1.433 . S
C1591 N1593 1.384 . S
N1592 C1588 1.427 . S
N1592 C1589 1.384 . S
N1593 C1585 1.427 . S
N1593 C1591 1.384 . S
H1594 C1600 0.930 . S
H1595 C1604 0.933 . S
H1596 C1609 0.928 . S
H1597 C1607 0.929 . S
H1598 C1602 0.930 . S
H1599 C1608 0.929 . S
C1600 H1594 0.930 . S
C1600 C1601 1.367 . S
C1600 C1608 1.378 . S
C1601 C1600 1.367 . S
C1601 C1609 1.434 . S
C1602 H1598 0.930 . S
C1602 C1604 1.378 . S
C1602 C1606 1.350 . S
C1603 C1606 1.463 . S
C1603 C1608 1.350 . S
C1603 N1611 1.429 . S
C1604 H1595 0.933 . S
C1604 C1602 1.378 . S
C1604 C1605 1.372 . S
C1605 C1604 1.372 . S
C1605 C1607 1.441 . S
C1606 C1602 1.350 . S
C1606 C1603 1.463 . S
C1606 N1610 1.427 . S
C1607 H1597 0.929 . S
C1607 C1605 1.441 . S
C1607 N1610 1.384 . S
C1608 H1599 0.929 . S
C1608 C1600 1.378 . S
C1608 C1603 1.350 . S
C1609 H1596 0.928 . S
C1609 C1601 1.434 . S
C1609 N1611 1.384 . S
N1610 C1606 1.427 . S
N1610 C1607 1.384 . S
N1611 C1603 1.429 . S
N1611 C1609 1.384 . S
H1612 C1618 0.930 . S
H1613 C1622 0.929 1_565 S
H1614 C1627 0.928 . S
H1615 C1625 0.929 . S
H1616 C1620 0.927 1_565 S
H1617 C1626 0.929 . S
C1618 H1612 0.930 . S
C1618 C1619 1.367 . S
C1618 C1626 1.378 . S
C1619 C1618 1.367 . S
C1619 C1627 1.437 . S
C1620 H1616 0.927 1_545 S
C1620 C1622 1.378 . S
C1620 C1624 1.351 . S
C1621 C1624 1.463 1_556 S
C1621 C1626 1.350 . S
C1621 N1629 1.429 . S
C1622 H1613 0.929 1_545 S
C1622 C1620 1.378 . S
C1622 C1623 1.367 . S
C1623 C1622 1.367 . S
C1623 C1625 1.433 . S
C1624 C1620 1.351 . S
C1624 C1621 1.463 1_554 S
C1624 N1628 1.427 . S
C1625 H1615 0.929 . S
C1625 C1623 1.433 . S
C1625 N1628 1.384 . S
C1626 H1617 0.929 . S
C1626 C1618 1.378 . S
C1626 C1621 1.350 . S
C1627 H1614 0.928 . S
C1627 C1619 1.437 . S
C1627 N1629 1.384 . S
N1628 C1624 1.427 . S
N1628 C1625 1.384 . S
N1629 C1621 1.429 . S
N1629 C1627 1.384 . S
H1630 C1636 0.930 . S
H1631 C1640 0.930 . S
H1632 C1645 0.929 . S
H1633 C1643 0.929 . S
H1634 C1638 0.929 . S
H1635 C1644 0.929 . S
C1636 H1630 0.930 . S
C1636 C1637 1.367 . S
C1636 C1644 1.378 . S
C1637 C1636 1.367 . S
C1637 C1645 1.433 . S
C1638 H1634 0.929 . S
C1638 C1640 1.378 . S
C1638 C1642 1.350 . S
C1639 C1642 1.463 1_556 S
C1639 C1644 1.350 . S
C1639 N1647 1.427 . S
C1640 H1631 0.930 . S
C1640 C1638 1.378 . S
C1640 C1641 1.367 . S
C1641 C1640 1.367 . S
C1641 C1643 1.433 . S
C1642 C1638 1.350 . S
C1642 C1639 1.463 1_554 S
C1642 N1646 1.427 . S
C1643 H1633 0.929 . S
C1643 C1641 1.433 . S
C1643 N1646 1.384 . S
C1644 H1635 0.929 . S
C1644 C1636 1.378 . S
C1644 C1639 1.350 . S
C1645 H1632 0.929 . S
C1645 C1637 1.433 . S
C1645 N1647 1.384 . S
N1646 C1642 1.427 . S
N1646 C1643 1.384 . S
N1647 C1639 1.427 . S
N1647 C1645 1.384 . S
H1648 C1654 0.930 . S
H1649 C1658 0.930 . S
H1650 C1663 0.929 . S
H1651 C1661 0.929 . S
H1652 C1656 0.929 . S
H1653 C1662 0.929 . S
C1654 H1648 0.930 . S
C1654 C1655 1.367 . S
C1654 C1662 1.378 . S
C1655 C1654 1.367 . S
C1655 C1663 1.433 . S
C1656 H1652 0.929 . S
C1656 C1658 1.378 . S
C1656 C1660 1.350 . S
C1657 C1660 1.463 . S
C1657 C1662 1.350 . S
C1657 N1665 1.427 . S
C1658 H1649 0.930 . S
C1658 C1656 1.378 . S
C1658 C1659 1.367 . S
C1659 C1658 1.367 . S
C1659 C1661 1.433 . S
C1660 C1656 1.350 . S
C1660 C1657 1.463 . S
C1660 N1664 1.427 . S
C1661 H1651 0.929 . S
C1661 C1659 1.433 . S
C1661 N1664 1.384 . S
C1662 H1653 0.929 . S
C1662 C1654 1.378 . S
C1662 C1657 1.350 . S
C1663 H1650 0.929 . S
C1663 C1655 1.433 . S
C1663 N1665 1.384 . S
N1664 C1660 1.427 . S
N1664 C1661 1.384 . S
N1665 C1657 1.427 . S
N1665 C1663 1.384 . S
H1666 C1672 0.930 . S
H1667 C1676 0.930 . S
H1668 C1681 0.929 . S
H1669 C1679 0.929 . S
H1670 C1674 0.929 . S
H1671 C1680 0.929 . S
C1672 H1666 0.930 . S
C1672 C1673 1.367 . S
C1672 C1680 1.378 . S
C1673 C1672 1.367 . S
C1673 C1681 1.433 . S
C1674 H1670 0.929 . S
C1674 C1676 1.378 . S
C1674 C1678 1.350 . S
C1675 C1678 1.463 . S
C1675 C1680 1.350 . S
C1675 N1683 1.427 . S
C1676 H1667 0.930 . S
C1676 C1674 1.378 . S
C1676 C1677 1.367 . S
C1677 C1676 1.367 . S
C1677 C1679 1.433 . S
C1678 C1674 1.350 . S
C1678 C1675 1.463 . S
C1678 N1682 1.427 . S
C1679 H1669 0.929 . S
C1679 C1677 1.433 . S
C1679 N1682 1.384 . S
C1680 H1671 0.929 . S
C1680 C1672 1.378 . S
C1680 C1675 1.350 . S
C1681 H1668 0.929 . S
C1681 C1673 1.433 . S
C1681 N1683 1.384 . S
N1682 C1678 1.427 . S
N1682 C1679 1.384 . S
N1683 C1675 1.427 . S
N1683 C1681 1.384 . S
H1684 C1690 0.930 . S
H1685 C1694 0.930 . S
H1686 C1699 0.929 . S
H1687 C1697 0.929 . S
H1688 C1692 0.929 . S
H1689 C1698 0.929 . S
C1690 H1684 0.930 . S
C1690 C1691 1.367 . S
C1690 C1698 1.378 . S
C1691 C1690 1.367 . S
C1691 C1699 1.433 . S
C1692 H1688 0.929 . S
C1692 C1694 1.378 . S
C1692 C1696 1.350 . S
C1693 C1696 1.463 . S
C1693 C1698 1.350 . S
C1693 N1701 1.427 . S
C1694 H1685 0.930 . S
C1694 C1692 1.378 . S
C1694 C1695 1.367 . S
C1695 C1694 1.367 . S
C1695 C1697 1.433 . S
C1696 C1692 1.350 . S
C1696 C1693 1.463 . S
C1696 N1700 1.427 . S
C1697 H1687 0.929 . S
C1697 C1695 1.433 . S
C1697 N1700 1.384 . S
C1698 H1689 0.929 . S
C1698 C1690 1.378 . S
C1698 C1693 1.350 . S
C1699 H1686 0.929 . S
C1699 C1691 1.433 . S
C1699 N1701 1.384 . S
N1700 C1696 1.427 . S
N1700 C1697 1.384 . S
N1701 C1693 1.427 . S
N1701 C1699 1.384 . S
H1702 C1708 0.930 . S
H1703 C1712 0.930 . S
H1704 C1717 0.929 . S
H1705 C1715 0.929 . S
H1706 C1710 0.929 . S
H1707 C1716 0.929 . S
C1708 H1702 0.930 . S
C1708 C1709 1.367 . S
C1708 C1716 1.378 . S
C1709 C1708 1.367 . S
C1709 C1717 1.433 . S
C1710 H1706 0.929 . S
C1710 C1712 1.378 . S
C1710 C1714 1.350 . S
C1711 C1714 1.463 . S
C1711 C1716 1.350 . S
C1711 N1719 1.427 . S
C1712 H1703 0.930 . S
C1712 C1710 1.378 . S
C1712 C1713 1.367 . S
C1713 C1712 1.367 . S
C1713 C1715 1.433 . S
C1714 C1710 1.350 . S
C1714 C1711 1.463 . S
C1714 N1718 1.427 . S
C1715 H1705 0.929 . S
C1715 C1713 1.433 . S
C1715 N1718 1.384 . S
C1716 H1707 0.929 . S
C1716 C1708 1.378 . S
C1716 C1711 1.350 . S
C1717 H1704 0.929 . S
C1717 C1709 1.433 . S
C1717 N1719 1.384 . S
N1718 C1714 1.427 . S
N1718 C1715 1.384 . S
N1719 C1711 1.427 . S
N1719 C1717 1.384 . S
H1720 C1726 0.930 . S
H1721 C1730 0.930 . S
H1722 C1735 0.929 . S
H1723 C1733 0.929 . S
H1724 C1728 0.929 . S
H1725 C1734 0.929 . S
C1726 H1720 0.930 . S
C1726 C1727 1.367 . S
C1726 C1734 1.378 . S
C1727 C1726 1.367 . S
C1727 C1735 1.433 . S
C1728 H1724 0.929 . S
C1728 C1730 1.378 . S
C1728 C1732 1.350 . S
C1729 C1732 1.463 . S
C1729 C1734 1.350 . S
C1729 N1737 1.427 . S
C1730 H1721 0.930 . S
C1730 C1728 1.378 . S
C1730 C1731 1.367 . S
C1731 C1730 1.367 . S
C1731 C1733 1.433 . S
C1732 C1728 1.350 . S
C1732 C1729 1.463 . S
C1732 N1736 1.427 . S
C1733 H1723 0.929 . S
C1733 C1731 1.433 . S
C1733 N1736 1.384 . S
C1734 H1725 0.929 . S
C1734 C1726 1.378 . S
C1734 C1729 1.350 . S
C1735 H1722 0.929 . S
C1735 C1727 1.433 . S
C1735 N1737 1.384 . S
N1736 C1732 1.427 . S
N1736 C1733 1.384 . S
N1737 C1729 1.427 . S
N1737 C1735 1.384 . S
H1738 C1744 0.930 . S
H1739 C1748 0.930 . S
H1740 C1753 0.929 . S
H1741 C1751 0.929 . S
H1742 C1746 0.929 . S
H1743 C1752 0.929 . S
C1744 H1738 0.930 . S
C1744 C1745 1.367 . S
C1744 C1752 1.378 . S
C1745 C1744 1.367 . S
C1745 C1753 1.433 . S
C1746 H1742 0.929 . S
C1746 C1748 1.378 . S
C1746 C1750 1.350 . S
C1747 C1750 1.463 . S
C1747 C1752 1.350 . S
C1747 N1755 1.427 . S
C1748 H1739 0.930 . S
C1748 C1746 1.378 . S
C1748 C1749 1.367 . S
C1749 C1748 1.367 . S
C1749 C1751 1.433 . S
C1750 C1746 1.350 . S
C1750 C1747 1.463 . S
C1750 N1754 1.427 . S
C1751 H1741 0.929 . S
C1751 C1749 1.433 . S
C1751 N1754 1.384 . S
C1752 H1743 0.929 . S
C1752 C1744 1.378 . S
C1752 C1747 1.350 . S
C1753 H1740 0.929 . S
C1753 C1745 1.433 . S
C1753 N1755 1.384 . S
N1754 C1750 1.427 . S
N1754 C1751 1.384 . S
N1755 C1747 1.427 . S
N1755 C1753 1.384 . S
H1756 C1762 0.930 . S
H1757 C1766 0.930 . S
H1758 C1771 0.929 . S
H1759 C1769 0.929 . S
H1760 C1764 0.929 . S
H1761 C1770 0.929 . S
C1762 H1756 0.930 . S
C1762 C1763 1.367 . S
C1762 C1770 1.378 . S
C1763 C1762 1.367 . S
C1763 C1771 1.433 . S
C1764 H1760 0.929 . S
C1764 C1766 1.378 . S
C1764 C1768 1.350 . S
C1765 C1768 1.463 . S
C1765 C1770 1.350 . S
C1765 N1773 1.427 . S
C1766 H1757 0.930 . S
C1766 C1764 1.378 . S
C1766 C1767 1.367 . S
C1767 C1766 1.367 . S
C1767 C1769 1.433 . S
C1768 C1764 1.350 . S
C1768 C1765 1.463 . S
C1768 N1772 1.427 . S
C1769 H1759 0.929 . S
C1769 C1767 1.433 . S
C1769 N1772 1.384 . S
C1770 H1761 0.929 . S
C1770 C1762 1.378 . S
C1770 C1765 1.350 . S
C1771 H1758 0.929 . S
C1771 C1763 1.433 . S
C1771 N1773 1.384 . S
N1772 C1768 1.427 . S
N1772 C1769 1.384 . S
N1773 C1765 1.427 . S
N1773 C1771 1.384 . S
H1774 C1780 0.930 . S
H1775 C1784 0.930 . S
H1776 C1789 0.929 . S
H1777 C1787 0.929 . S
H1778 C1782 0.929 . S
H1779 C1788 0.929 . S
C1780 H1774 0.930 . S
C1780 C1781 1.367 . S
C1780 C1788 1.378 . S
C1781 C1780 1.367 . S
C1781 C1789 1.433 . S
C1782 H1778 0.929 . S
C1782 C1784 1.378 . S
C1782 C1786 1.350 . S
C1783 C1786 1.463 . S
C1783 C1788 1.350 . S
C1783 N1791 1.427 . S
C1784 H1775 0.930 . S
C1784 C1782 1.378 . S
C1784 C1785 1.367 . S
C1785 C1784 1.367 . S
C1785 C1787 1.433 . S
C1786 C1782 1.350 . S
C1786 C1783 1.463 . S
C1786 N1790 1.427 . S
C1787 H1777 0.929 . S
C1787 C1785 1.433 . S
C1787 N1790 1.384 . S
C1788 H1779 0.929 . S
C1788 C1780 1.378 . S
C1788 C1783 1.350 . S
C1789 H1776 0.929 . S
C1789 C1781 1.433 . S
C1789 N1791 1.384 . S
N1790 C1786 1.427 . S
N1790 C1787 1.384 . S
N1791 C1783 1.427 . S
N1791 C1789 1.384 . S
H1792 C1798 0.930 . S
H1793 C1802 0.930 . S
H1794 C1807 0.929 . S
H1795 C1805 0.929 . S
H1796 C1800 0.929 . S
H1797 C1806 0.929 . S
C1798 H1792 0.930 . S
C1798 C1799 1.367 . S
C1798 C1806 1.378 . S
C1799 C1798 1.367 . S
C1799 C1807 1.433 . S
C1800 H1796 0.929 . S
C1800 C1802 1.378 . S
C1800 C1804 1.350 . S
C1801 C1804 1.463 . S
C1801 C1806 1.350 . S
C1801 N1809 1.427 . S
C1802 H1793 0.930 . S
C1802 C1800 1.378 . S
C1802 C1803 1.367 . S
C1803 C1802 1.367 . S
C1803 C1805 1.433 . S
C1804 C1800 1.350 . S
C1804 C1801 1.463 . S
C1804 N1808 1.427 . S
C1805 H1795 0.929 . S
C1805 C1803 1.433 . S
C1805 N1808 1.384 . S
C1806 H1797 0.929 . S
C1806 C1798 1.378 . S
C1806 C1801 1.350 . S
C1807 H1794 0.929 . S
C1807 C1799 1.433 . S
C1807 N1809 1.384 . S
N1808 C1804 1.427 . S
N1808 C1805 1.384 . S
N1809 C1801 1.427 . S
N1809 C1807 1.384 . S
H1810 C1816 0.930 . S
H1811 C1820 0.930 . S
H1812 C1825 0.929 . S
H1813 C1823 0.929 . S
H1814 C1818 0.929 . S
H1815 C1824 0.929 . S
C1816 H1810 0.930 . S
C1816 C1817 1.367 . S
C1816 C1824 1.378 . S
C1817 C1816 1.367 . S
C1817 C1825 1.433 . S
C1818 H1814 0.929 . S
C1818 C1820 1.378 . S
C1818 C1822 1.350 . S
C1819 C1822 1.463 . S
C1819 C1824 1.350 . S
C1819 N1827 1.427 . S
C1820 H1811 0.930 . S
C1820 C1818 1.378 . S
C1820 C1821 1.367 . S
C1821 C1820 1.367 . S
C1821 C1823 1.433 . S
C1822 C1818 1.350 . S
C1822 C1819 1.463 . S
C1822 N1826 1.427 . S
C1823 H1813 0.929 . S
C1823 C1821 1.433 . S
C1823 N1826 1.384 . S
C1824 H1815 0.929 . S
C1824 C1816 1.378 . S
C1824 C1819 1.350 . S
C1825 H1812 0.929 . S
C1825 C1817 1.433 . S
C1825 N1827 1.384 . S
N1826 C1822 1.427 . S
N1826 C1823 1.384 . S
N1827 C1819 1.427 . S
N1827 C1825 1.384 . S
H1828 C1834 0.930 1_554 S
H1829 C1838 0.930 . S
H1830 C1843 0.929 . S
H1831 C1841 0.929 . S
H1832 C1836 0.929 . S
H1833 C1842 0.929 . S
C1834 H1828 0.930 1_556 S
C1834 C1835 1.367 . S
C1834 C1842 1.378 . S
C1835 C1834 1.367 . S
C1835 C1843 1.433 . S
C1836 H1832 0.929 . S
C1836 C1838 1.378 . S
C1836 C1840 1.350 . S
C1837 C1840 1.463 . S
C1837 C1842 1.350 . S
C1837 N1845 1.427 . S
C1838 H1829 0.930 . S
C1838 C1836 1.378 . S
C1838 C1839 1.367 . S
C1839 C1838 1.367 . S
C1839 C1841 1.433 . S
C1840 C1836 1.350 . S
C1840 C1837 1.463 . S
C1840 N1844 1.427 . S
C1841 H1831 0.929 . S
C1841 C1839 1.433 . S
C1841 N1844 1.384 . S
C1842 H1833 0.929 . S
C1842 C1834 1.378 . S
C1842 C1837 1.350 . S
C1843 H1830 0.929 . S
C1843 C1835 1.433 . S
C1843 N1845 1.384 . S
N1844 C1840 1.427 . S
N1844 C1841 1.384 . S
N1845 C1837 1.427 . S
N1845 C1843 1.384 . S
H1846 C1852 0.930 . S
H1847 C1856 0.930 . S
H1848 C1861 0.929 . S
H1849 C1859 0.929 . S
H1850 C1854 0.929 . S
H1851 C1860 0.929 . S
C1852 H1846 0.930 . S
C1852 C1853 1.367 . S
C1852 C1860 1.378 . S
C1853 C1852 1.367 . S
C1853 C1861 1.433 . S
C1854 H1850 0.929 . S
C1854 C1856 1.378 . S
C1854 C1858 1.350 . S
C1855 C1858 1.463 . S
C1855 C1860 1.350 . S
C1855 N1863 1.427 . S
C1856 H1847 0.930 . S
C1856 C1854 1.378 . S
C1856 C1857 1.367 . S
C1857 C1856 1.367 . S
C1857 C1859 1.433 1_556 S
C1858 C1854 1.350 . S
C1858 C1855 1.463 . S
C1858 N1862 1.427 . S
C1859 H1849 0.929 . S
C1859 C1857 1.433 1_554 S
C1859 N1862 1.384 1_554 S
C1860 H1851 0.929 . S
C1860 C1852 1.378 . S
C1860 C1855 1.350 . S
C1861 H1848 0.929 . S
C1861 C1853 1.433 . S
C1861 N1863 1.384 . S
N1862 C1858 1.427 . S
N1862 C1859 1.384 1_556 S
N1863 C1855 1.427 . S
N1863 C1861 1.384 . S
H1864 C1870 0.930 . S
H1865 C1874 0.930 . S
H1866 C1879 0.929 . S
H1867 C1877 0.929 . S
H1868 C1872 0.929 . S
H1869 C1878 0.929 . S
C1870 H1864 0.930 . S
C1870 C1871 1.367 . S
C1870 C1878 1.378 . S
C1871 C1870 1.367 . S
C1871 C1879 1.433 . S
C1872 H1868 0.929 . S
C1872 C1874 1.378 . S
C1872 C1876 1.350 . S
C1873 C1876 1.463 . S
C1873 C1878 1.350 . S
C1873 N1881 1.427 . S
C1874 H1865 0.930 . S
C1874 C1872 1.378 . S
C1874 C1875 1.367 . S
C1875 C1874 1.367 . S
C1875 C1877 1.433 . S
C1876 C1872 1.350 . S
C1876 C1873 1.463 . S
C1876 N1880 1.427 . S
C1877 H1867 0.929 . S
C1877 C1875 1.433 . S
C1877 N1880 1.384 . S
C1878 H1869 0.929 . S
C1878 C1870 1.378 . S
C1878 C1873 1.350 . S
C1879 H1866 0.929 . S
C1879 C1871 1.433 . S
C1879 N1881 1.384 . S
N1880 C1876 1.427 . S
N1880 C1877 1.384 . S
N1881 C1873 1.427 . S
N1881 C1879 1.384 . S
H1882 C1888 0.930 . S
H1883 C1892 0.930 . S
H1884 C1897 0.929 . S
H1885 C1895 0.929 . S
H1886 C1890 0.929 . S
H1887 C1896 0.929 . S
C1888 H1882 0.930 . S
C1888 C1889 1.367 . S
C1888 C1896 1.378 . S
C1889 C1888 1.367 . S
C1889 C1897 1.433 . S
C1890 H1886 0.929 . S
C1890 C1892 1.378 . S
C1890 C1894 1.350 . S
C1891 C1894 1.463 . S
C1891 C1896 1.350 . S
C1891 N1899 1.427 . S
C1892 H1883 0.930 . S
C1892 C1890 1.378 . S
C1892 C1893 1.367 . S
C1893 C1892 1.367 . S
C1893 C1895 1.433 . S
C1894 C1890 1.350 . S
C1894 C1891 1.463 . S
C1894 N1898 1.427 . S
C1895 H1885 0.929 . S
C1895 C1893 1.433 . S
C1895 N1898 1.384 . S
C1896 H1887 0.929 . S
C1896 C1888 1.378 . S
C1896 C1891 1.350 . S
C1897 H1884 0.929 . S
C1897 C1889 1.433 . S
C1897 N1899 1.384 . S
N1898 C1894 1.427 . S
N1898 C1895 1.384 . S
N1899 C1891 1.427 . S
N1899 C1897 1.384 . S
H1900 C1906 0.930 . S
H1901 C1910 0.930 . S
H1902 C1915 0.929 1_556 S
H1903 C1913 0.929 . S
H1904 C1908 0.929 . S
H1905 C1914 0.929 . S
C1906 H1900 0.930 . S
C1906 C1907 1.367 . S
C1906 C1914 1.378 . S
C1907 C1906 1.367 . S
C1907 C1915 1.433 . S
C1908 H1904 0.929 . S
C1908 C1910 1.378 . S
C1908 C1912 1.350 . S
C1909 C1912 1.463 . S
C1909 C1914 1.350 . S
C1909 N1917 1.427 . S
C1910 H1901 0.930 . S
C1910 C1908 1.378 . S
C1910 C1911 1.367 . S
C1911 C1910 1.367 . S
C1911 C1913 1.433 . S
C1912 C1908 1.350 . S
C1912 C1909 1.463 . S
C1912 N1916 1.427 . S
C1913 H1903 0.929 . S
C1913 C1911 1.433 . S
C1913 N1916 1.384 . S
C1914 H1905 0.929 . S
C1914 C1906 1.378 . S
C1914 C1909 1.350 . S
C1915 H1902 0.929 1_554 S
C1915 C1907 1.433 . S
C1915 N1917 1.384 . S
N1916 C1912 1.427 . S
N1916 C1913 1.384 . S
N1917 C1909 1.427 . S
N1917 C1915 1.384 . S
H1918 C1924 0.930 . S
H1919 C1928 0.930 . S
H1920 C1933 0.929 . S
H1921 C1931 0.929 . S
H1922 C1926 0.929 . S
H1923 C1932 0.929 . S
C1924 H1918 0.930 . S
C1924 C1925 1.367 . S
C1924 C1932 1.378 . S
C1925 C1924 1.367 . S
C1925 C1933 1.433 1_554 S
C1926 H1922 0.929 . S
C1926 C1928 1.378 . S
C1926 C1930 1.350 . S
C1927 C1930 1.463 . S
C1927 C1932 1.350 . S
C1927 N1935 1.427 . S
C1928 H1919 0.930 . S
C1928 C1926 1.378 . S
C1928 C1929 1.367 . S
C1929 C1928 1.367 . S
C1929 C1931 1.433 . S
C1930 C1926 1.350 . S
C1930 C1927 1.463 . S
C1930 N1934 1.427 . S
C1931 H1921 0.929 . S
C1931 C1929 1.433 . S
C1931 N1934 1.384 . S
C1932 H1923 0.929 . S
C1932 C1924 1.378 . S
C1932 C1927 1.350 . S
C1933 H1920 0.929 . S
C1933 C1925 1.433 1_556 S
C1933 N1935 1.384 1_556 S
N1934 C1930 1.427 . S
N1934 C1931 1.384 . S
N1935 C1927 1.427 . S
N1935 C1933 1.384 1_554 S
H1936 C1942 0.930 . S
H1937 C1946 0.930 . S
H1938 C1951 0.929 . S
H1939 C1949 0.929 . S
H1940 C1944 0.929 . S
H1941 C1950 0.929 1_554 S
C1942 H1936 0.930 . S
C1942 C1943 1.367 1_554 S
C1942 C1950 1.378 1_554 S
C1943 C1942 1.367 1_556 S
C1943 C1951 1.433 . S
C1944 H1940 0.929 . S
C1944 C1946 1.378 . S
C1944 C1948 1.350 . S
C1945 C1948 1.463 . S
C1945 C1950 1.350 . S
C1945 N1953 1.427 . S
C1946 H1937 0.930 . S
C1946 C1944 1.378 . S
C1946 C1947 1.367 . S
C1947 C1946 1.367 . S
C1947 C1949 1.433 . S
C1948 C1944 1.350 . S
C1948 C1945 1.463 . S
C1948 N1952 1.427 . S
C1949 H1939 0.929 . S
C1949 C1947 1.433 . S
C1949 N1952 1.384 . S
C1950 H1941 0.929 1_556 S
C1950 C1942 1.378 1_556 S
C1950 C1945 1.350 . S
C1951 H1938 0.929 . S
C1951 C1943 1.433 . S
C1951 N1953 1.384 . S
N1952 C1948 1.427 . S
N1952 C1949 1.384 . S
N1953 C1945 1.427 . S
N1953 C1951 1.384 . S
H1954 C1960 0.930 . S
H1955 C1964 0.930 . S
H1956 C1969 0.929 . S
H1957 C1967 0.929 1_554 S
H1958 C1962 0.929 . S
H1959 C1968 0.929 . S
C1960 H1954 0.930 . S
C1960 C1961 1.367 . S
C1960 C1968 1.378 . S
C1961 C1960 1.367 . S
C1961 C1969 1.433 . S
C1962 H1958 0.929 . S
C1962 C1964 1.378 . S
C1962 C1966 1.350 . S
C1963 C1966 1.463 . S
C1963 C1968 1.350 . S
C1963 N1971 1.427 . S
C1964 H1955 0.930 . S
C1964 C1962 1.378 . S
C1964 C1965 1.367 . S
C1965 C1964 1.367 . S
C1965 C1967 1.433 . S
C1966 C1962 1.350 . S
C1966 C1963 1.463 . S
C1966 N1970 1.427 . S
C1967 H1957 0.929 1_556 S
C1967 C1965 1.433 . S
C1967 N1970 1.384 . S
C1968 H1959 0.929 . S
C1968 C1960 1.378 . S
C1968 C1963 1.350 . S
C1969 H1956 0.929 . S
C1969 C1961 1.433 . S
C1969 N1971 1.384 . S
N1970 C1966 1.427 . S
N1970 C1967 1.384 . S
N1971 C1963 1.427 . S
N1971 C1969 1.384 . S
H1972 C1978 0.930 . S
H1973 C1982 0.930 . S
H1974 C1987 0.929 . S
H1975 C1985 0.929 . S
H1976 C1980 0.929 . S
H1977 C1986 0.929 . S
C1978 H1972 0.930 . S
C1978 C1979 1.367 . S
C1978 C1986 1.378 . S
C1979 C1978 1.367 . S
C1979 C1987 1.433 . S
C1980 H1976 0.929 . S
C1980 C1982 1.378 . S
C1980 C1984 1.350 . S
C1981 C1984 1.463 . S
C1981 C1986 1.350 . S
C1981 N1989 1.427 . S
C1982 H1973 0.930 . S
C1982 C1980 1.378 . S
C1982 C1983 1.367 . S
C1983 C1982 1.367 . S
C1983 C1985 1.433 . S
C1984 C1980 1.350 . S
C1984 C1981 1.463 . S
C1984 N1988 1.427 . S
C1985 H1975 0.929 . S
C1985 C1983 1.433 . S
C1985 N1988 1.384 . S
C1986 H1977 0.929 . S
C1986 C1978 1.378 . S
C1986 C1981 1.350 . S
C1987 H1974 0.929 . S
C1987 C1979 1.433 . S
C1987 N1989 1.384 . S
N1988 C1984 1.427 . S
N1988 C1985 1.384 . S
N1989 C1981 1.427 . S
N1989 C1987 1.384 . S
H1990 C1996 0.930 . S
H1991 C2000 0.930 . S
H1992 C2005 0.929 . S
H1993 C2003 0.929 . S
H1994 C1998 0.929 . S
H1995 C2004 0.929 . S
C1996 H1990 0.930 . S
C1996 C1997 1.367 . S
C1996 C2004 1.378 . S
C1997 C1996 1.367 . S
C1997 C2005 1.433 . S
C1998 H1994 0.929 . S
C1998 C2000 1.378 . S
C1998 C2002 1.350 . S
C1999 C2002 1.463 . S
C1999 C2004 1.350 . S
C1999 N2007 1.427 . S
C2000 H1991 0.930 . S
C2000 C1998 1.378 . S
C2000 C2001 1.367 . S
C2001 C2000 1.367 . S
C2001 C2003 1.433 . S
C2002 C1998 1.350 . S
C2002 C1999 1.463 . S
C2002 N2006 1.427 . S
C2003 H1993 0.929 . S
C2003 C2001 1.433 . S
C2003 N2006 1.384 . S
C2004 H1995 0.929 . S
C2004 C1996 1.378 . S
C2004 C1999 1.350 . S
C2005 H1992 0.929 . S
C2005 C1997 1.433 . S
C2005 N2007 1.384 . S
N2006 C2002 1.427 . S
N2006 C2003 1.384 . S
N2007 C1999 1.427 . S
N2007 C2005 1.384 . S
H2008 C2014 0.930 . S
H2009 C2018 0.930 . S
H2010 C2023 0.929 . S
H2011 C2021 0.929 . S
H2012 C2016 0.929 . S
H2013 C2022 0.929 . S
C2014 H2008 0.930 . S
C2014 C2015 1.367 . S
C2014 C2022 1.378 . S
C2015 C2014 1.367 . S
C2015 C2023 1.433 1_554 S
C2016 H2012 0.929 . S
C2016 C2018 1.378 . S
C2016 C2020 1.350 . S
C2017 C2020 1.463 . S
C2017 C2022 1.350 . S
C2017 N2025 1.427 . S
C2018 H2009 0.930 . S
C2018 C2016 1.378 . S
C2018 C2019 1.367 . S
C2019 C2018 1.367 . S
C2019 C2021 1.433 . S
C2020 C2016 1.350 . S
C2020 C2017 1.463 . S
C2020 N2024 1.427 . S
C2021 H2011 0.929 . S
C2021 C2019 1.433 . S
C2021 N2024 1.384 . S
C2022 H2013 0.929 . S
C2022 C2014 1.378 . S
C2022 C2017 1.350 . S
C2023 H2010 0.929 . S
C2023 C2015 1.433 1_556 S
C2023 N2025 1.384 1_556 S
N2024 C2020 1.427 . S
N2024 C2021 1.384 . S
N2025 C2017 1.427 . S
N2025 C2023 1.384 1_554 S
H2026 C2032 0.930 . S
H2027 C2036 0.930 . S
H2028 C2041 0.929 . S
H2029 C2039 0.929 . S
H2030 C2034 0.929 . S
H2031 C2040 0.929 . S
C2032 H2026 0.930 . S
C2032 C2033 1.367 . S
C2032 C2040 1.378 . S
C2033 C2032 1.367 . S
C2033 C2041 1.433 . S
C2034 H2030 0.929 . S
C2034 C2036 1.378 . S
C2034 C2038 1.350 . S
C2035 C2038 1.463 . S
C2035 C2040 1.350 . S
C2035 N2043 1.427 . S
C2036 H2027 0.930 . S
C2036 C2034 1.378 . S
C2036 C2037 1.367 . S
C2037 C2036 1.367 . S
C2037 C2039 1.433 1_554 S
C2038 C2034 1.350 . S
C2038 C2035 1.463 . S
C2038 N2042 1.427 . S
C2039 H2029 0.929 . S
C2039 C2037 1.433 1_556 S
C2039 N2042 1.384 1_556 S
C2040 H2031 0.929 . S
C2040 C2032 1.378 . S
C2040 C2035 1.350 . S
C2041 H2028 0.929 . S
C2041 C2033 1.433 . S
C2041 N2043 1.384 . S
N2042 C2038 1.427 . S
N2042 C2039 1.384 1_554 S
N2043 C2035 1.427 . S
N2043 C2041 1.384 . S
H2044 C2050 0.930 . S
H2045 C2054 0.930 . S
H2046 C2059 0.929 . S
H2047 C2057 0.929 . S
H2048 C2052 0.929 . S
H2049 C2058 0.929 . S
C2050 H2044 0.930 . S
C2050 C2051 1.367 . S
C2050 C2058 1.378 . S
C2051 C2050 1.367 . S
C2051 C2059 1.433 . S
C2052 H2048 0.929 . S
C2052 C2054 1.378 . S
C2052 C2056 1.350 . S
C2053 C2056 1.463 . S
C2053 C2058 1.350 . S
C2053 N2061 1.427 . S
C2054 H2045 0.930 . S
C2054 C2052 1.378 . S
C2054 C2055 1.367 . S
C2055 C2054 1.367 . S
C2055 C2057 1.433 . S
C2056 C2052 1.350 . S
C2056 C2053 1.463 . S
C2056 N2060 1.427 . S
C2057 H2047 0.929 . S
C2057 C2055 1.433 . S
C2057 N2060 1.384 . S
C2058 H2049 0.929 . S
C2058 C2050 1.378 . S
C2058 C2053 1.350 . S
C2059 H2046 0.929 . S
C2059 C2051 1.433 . S
C2059 N2061 1.384 . S
N2060 C2056 1.427 . S
N2060 C2057 1.384 . S
N2061 C2053 1.427 . S
N2061 C2059 1.384 . S
H2062 C2068 0.930 . S
H2063 C2072 0.930 . S
H2064 C2077 0.929 . S
H2065 C2075 0.929 . S
H2066 C2070 0.929 . S
H2067 C2076 0.929 . S
C2068 H2062 0.930 . S
C2068 C2069 1.367 . S
C2068 C2076 1.378 . S
C2069 C2068 1.367 . S
C2069 C2077 1.433 . S
C2070 H2066 0.929 . S
C2070 C2072 1.378 . S
C2070 C2074 1.350 . S
C2071 C2074 1.463 . S
C2071 C2076 1.350 . S
C2071 N2079 1.427 . S
C2072 H2063 0.930 . S
C2072 C2070 1.378 . S
C2072 C2073 1.367 . S
C2073 C2072 1.367 . S
C2073 C2075 1.433 . S
C2074 C2070 1.350 . S
C2074 C2071 1.463 . S
C2074 N2078 1.427 . S
C2075 H2065 0.929 . S
C2075 C2073 1.433 . S
C2075 N2078 1.384 . S
C2076 H2067 0.929 . S
C2076 C2068 1.378 . S
C2076 C2071 1.350 . S
C2077 H2064 0.929 . S
C2077 C2069 1.433 . S
C2077 N2079 1.384 . S
N2078 C2074 1.427 . S
N2078 C2075 1.384 . S
N2079 C2071 1.427 . S
N2079 C2077 1.384 . S
H2080 C2086 0.930 . S
H2081 C2090 0.930 1_556 S
H2082 C2095 0.929 . S
H2083 C2093 0.929 . S
H2084 C2088 0.929 . S
H2085 C2094 0.929 . S
C2086 H2080 0.930 . S
C2086 C2087 1.367 . S
C2086 C2094 1.378 . S
C2087 C2086 1.367 . S
C2087 C2095 1.433 . S
C2088 H2084 0.929 . S
C2088 C2090 1.378 . S
C2088 C2092 1.350 . S
C2089 C2092 1.463 . S
C2089 C2094 1.350 . S
C2089 N2097 1.427 . S
C2090 H2081 0.930 1_554 S
C2090 C2088 1.378 . S
C2090 C2091 1.367 . S
C2091 C2090 1.367 . S
C2091 C2093 1.433 . S
C2092 C2088 1.350 . S
C2092 C2089 1.463 . S
C2092 N2096 1.427 . S
C2093 H2083 0.929 . S
C2093 C2091 1.433 . S
C2093 N2096 1.384 . S
C2094 H2085 0.929 . S
C2094 C2086 1.378 . S
C2094 C2089 1.350 . S
C2095 H2082 0.929 . S
C2095 C2087 1.433 . S
C2095 N2097 1.384 . S
N2096 C2092 1.427 . S
N2096 C2093 1.384 . S
N2097 C2089 1.427 . S
N2097 C2095 1.384 . S
H2098 C2104 0.930 . S
H2099 C2108 0.930 . S
H2100 C2113 0.929 1_556 S
H2101 C2111 0.929 . S
H2102 C2106 0.929 . S
H2103 C2112 0.929 . S
C2104 H2098 0.930 . S
C2104 C2105 1.367 . S
C2104 C2112 1.378 . S
C2105 C2104 1.367 . S
C2105 C2113 1.433 . S
C2106 H2102 0.929 . S
C2106 C2108 1.378 . S
C2106 C2110 1.350 . S
C2107 C2110 1.463 . S
C2107 C2112 1.350 . S
C2107 N2115 1.427 . S
C2108 H2099 0.930 . S
C2108 C2106 1.378 . S
C2108 C2109 1.367 . S
C2109 C2108 1.367 . S
C2109 C2111 1.433 . S
C2110 C2106 1.350 . S
C2110 C2107 1.463 . S
C2110 N2114 1.427 . S
C2111 H2101 0.929 . S
C2111 C2109 1.433 . S
C2111 N2114 1.384 . S
C2112 H2103 0.929 . S
C2112 C2104 1.378 . S
C2112 C2107 1.350 . S
C2113 H2100 0.929 1_554 S
C2113 C2105 1.433 . S
C2113 N2115 1.384 . S
N2114 C2110 1.427 . S
N2114 C2111 1.384 . S
N2115 C2107 1.427 . S
N2115 C2113 1.384 . S
H2116 C2122 0.930 . S
H2117 C2126 0.930 . S
H2118 C2131 0.929 1_554 S
H2119 C2129 0.929 . S
H2120 C2124 0.929 . S
H2121 C2130 0.929 . S
C2122 H2116 0.930 . S
C2122 C2123 1.367 . S
C2122 C2130 1.378 . S
C2123 C2122 1.367 . S
C2123 C2131 1.433 . S
C2124 H2120 0.929 . S
C2124 C2126 1.378 . S
C2124 C2128 1.350 . S
C2125 C2128 1.463 . S
C2125 C2130 1.350 . S
C2125 N2133 1.427 . S
C2126 H2117 0.930 . S
C2126 C2124 1.378 . S
C2126 C2127 1.367 . S
C2127 C2126 1.367 . S
C2127 C2129 1.433 . S
C2128 C2124 1.350 . S
C2128 C2125 1.463 . S
C2128 N2132 1.427 . S
C2129 H2119 0.929 . S
C2129 C2127 1.433 . S
C2129 N2132 1.384 . S
C2130 H2121 0.929 . S
C2130 C2122 1.378 . S
C2130 C2125 1.350 . S
C2131 H2118 0.929 1_556 S
C2131 C2123 1.433 . S
C2131 N2133 1.384 . S
N2132 C2128 1.427 . S
N2132 C2129 1.384 . S
N2133 C2125 1.427 . S
N2133 C2131 1.384 . S
H2134 C2140 0.930 . S
H2135 C2144 0.930 . S
H2136 C2149 0.929 . S
H2137 C2147 0.929 . S
H2138 C2142 0.929 . S
H2139 C2148 0.929 . S
C2140 H2134 0.930 . S
C2140 C2141 1.367 . S
C2140 C2148 1.378 . S
C2141 C2140 1.367 . S
C2141 C2149 1.433 . S
C2142 H2138 0.929 . S
C2142 C2144 1.378 . S
C2142 C2146 1.350 . S
C2143 C2146 1.463 . S
C2143 C2148 1.350 . S
C2143 N2151 1.427 . S
C2144 H2135 0.930 . S
C2144 C2142 1.378 . S
C2144 C2145 1.367 . S
C2145 C2144 1.367 . S
C2145 C2147 1.433 . S
C2146 C2142 1.350 . S
C2146 C2143 1.463 . S
C2146 N2150 1.427 . S
C2147 H2137 0.929 . S
C2147 C2145 1.433 . S
C2147 N2150 1.384 . S
C2148 H2139 0.929 . S
C2148 C2140 1.378 . S
C2148 C2143 1.350 . S
C2149 H2136 0.929 . S
C2149 C2141 1.433 . S
C2149 N2151 1.384 . S
N2150 C2146 1.427 . S
N2150 C2147 1.384 . S
N2151 C2143 1.427 . S
N2151 C2149 1.384 . S
H2152 C2158 0.930 . S
H2153 C2162 0.930 . S
H2154 C2167 0.929 . S
H2155 C2165 0.929 . S
H2156 C2160 0.929 . S
H2157 C2166 0.929 . S
C2158 H2152 0.930 . S
C2158 C2159 1.367 . S
C2158 C2166 1.378 . S
C2159 C2158 1.367 . S
C2159 C2167 1.433 . S
C2160 H2156 0.929 . S
C2160 C2162 1.378 . S
C2160 C2164 1.350 . S
C2161 C2164 1.463 . S
C2161 C2166 1.350 . S
C2161 N2169 1.427 . S
C2162 H2153 0.930 . S
C2162 C2160 1.378 . S
C2162 C2163 1.367 . S
C2163 C2162 1.367 . S
C2163 C2165 1.433 . S
C2164 C2160 1.350 . S
C2164 C2161 1.463 . S
C2164 N2168 1.427 . S
C2165 H2155 0.929 . S
C2165 C2163 1.433 . S
C2165 N2168 1.384 . S
C2166 H2157 0.929 . S
C2166 C2158 1.378 . S
C2166 C2161 1.350 . S
C2167 H2154 0.929 . S
C2167 C2159 1.433 . S
C2167 N2169 1.384 . S
N2168 C2164 1.427 . S
N2168 C2165 1.384 . S
N2169 C2161 1.427 . S
N2169 C2167 1.384 . S
H2170 C2176 0.930 . S
H2171 C2180 0.930 . S
H2172 C2185 0.929 . S
H2173 C2183 0.929 . S
H2174 C2178 0.929 . S
H2175 C2184 0.929 . S
C2176 H2170 0.930 . S
C2176 C2177 1.367 . S
C2176 C2184 1.378 . S
C2177 C2176 1.367 . S
C2177 C2185 1.433 . S
C2178 H2174 0.929 . S
C2178 C2180 1.378 . S
C2178 C2182 1.350 . S
C2179 C2182 1.463 . S
C2179 C2184 1.350 . S
C2179 N2187 1.427 . S
C2180 H2171 0.930 . S
C2180 C2178 1.378 . S
C2180 C2181 1.367 . S
C2181 C2180 1.367 . S
C2181 C2183 1.433 . S
C2182 C2178 1.350 . S
C2182 C2179 1.463 . S
C2182 N2186 1.427 . S
C2183 H2173 0.929 . S
C2183 C2181 1.433 . S
C2183 N2186 1.384 . S
C2184 H2175 0.929 . S
C2184 C2176 1.378 . S
C2184 C2179 1.350 . S
C2185 H2172 0.929 . S
C2185 C2177 1.433 . S
C2185 N2187 1.384 . S
N2186 C2182 1.427 . S
N2186 C2183 1.384 . S
N2187 C2179 1.427 . S
N2187 C2185 1.384 . S
H2188 C2194 0.930 . S
H2189 C2198 0.930 . S
H2190 C2203 0.929 . S
H2191 C2201 0.929 . S
H2192 C2196 0.929 . S
H2193 C2202 0.929 . S
C2194 H2188 0.930 . S
C2194 C2195 1.367 . S
C2194 C2202 1.378 . S
C2195 C2194 1.367 . S
C2195 C2203 1.433 . S
C2196 H2192 0.929 . S
C2196 C2198 1.378 . S
C2196 C2200 1.350 . S
C2197 C2200 1.463 . S
C2197 C2202 1.350 . S
C2197 N2205 1.427 . S
C2198 H2189 0.930 . S
C2198 C2196 1.378 . S
C2198 C2199 1.367 . S
C2199 C2198 1.367 . S
C2199 C2201 1.433 . S
C2200 C2196 1.350 . S
C2200 C2197 1.463 . S
C2200 N2204 1.427 . S
C2201 H2191 0.929 . S
C2201 C2199 1.433 . S
C2201 N2204 1.384 . S
C2202 H2193 0.929 . S
C2202 C2194 1.378 . S
C2202 C2197 1.350 . S
C2203 H2190 0.929 . S
C2203 C2195 1.433 . S
C2203 N2205 1.384 . S
N2204 C2200 1.427 . S
N2204 C2201 1.384 . S
N2205 C2197 1.427 . S
N2205 C2203 1.384 . S
H2206 C2212 0.930 . S
H2207 C2216 0.930 . S
H2208 C2221 0.929 . S
H2209 C2219 0.929 . S
H2210 C2214 0.929 . S
H2211 C2220 0.929 . S
C2212 H2206 0.930 . S
C2212 C2213 1.367 . S
C2212 C2220 1.378 . S
C2213 C2212 1.367 . S
C2213 C2221 1.433 . S
C2214 H2210 0.929 . S
C2214 C2216 1.378 . S
C2214 C2218 1.350 . S
C2215 C2218 1.463 . S
C2215 C2220 1.350 . S
C2215 N2223 1.427 . S
C2216 H2207 0.930 . S
C2216 C2214 1.378 . S
C2216 C2217 1.367 . S
C2217 C2216 1.367 . S
C2217 C2219 1.433 . S
C2218 C2214 1.350 . S
C2218 C2215 1.463 . S
C2218 N2222 1.427 . S
C2219 H2209 0.929 . S
C2219 C2217 1.433 . S
C2219 N2222 1.384 . S
C2220 H2211 0.929 . S
C2220 C2212 1.378 . S
C2220 C2215 1.350 . S
C2221 H2208 0.929 . S
C2221 C2213 1.433 . S
C2221 N2223 1.384 . S
N2222 C2218 1.427 . S
N2222 C2219 1.384 . S
N2223 C2215 1.427 . S
N2223 C2221 1.384 . S
H2224 C2230 0.930 . S
H2225 C2234 0.930 . S
H2226 C2239 0.929 . S
H2227 C2237 0.929 . S
H2228 C2232 0.929 . S
H2229 C2238 0.929 . S
C2230 H2224 0.930 . S
C2230 C2231 1.367 . S
C2230 C2238 1.378 . S
C2231 C2230 1.367 . S
C2231 C2239 1.433 . S
C2232 H2228 0.929 . S
C2232 C2234 1.378 . S
C2232 C2236 1.350 . S
C2233 C2236 1.463 . S
C2233 C2238 1.350 . S
C2233 N2241 1.427 . S
C2234 H2225 0.930 . S
C2234 C2232 1.378 . S
C2234 C2235 1.367 . S
C2235 C2234 1.367 . S
C2235 C2237 1.433 . S
C2236 C2232 1.350 . S
C2236 C2233 1.463 . S
C2236 N2240 1.427 . S
C2237 H2227 0.929 . S
C2237 C2235 1.433 . S
C2237 N2240 1.384 . S
C2238 H2229 0.929 . S
C2238 C2230 1.378 . S
C2238 C2233 1.350 . S
C2239 H2226 0.929 . S
C2239 C2231 1.433 . S
C2239 N2241 1.384 . S
N2240 C2236 1.427 . S
N2240 C2237 1.384 . S
N2241 C2233 1.427 . S
N2241 C2239 1.384 . S
H2242 C2248 0.930 . S
H2243 C2252 0.930 . S
H2244 C2257 0.929 . S
H2245 C2255 0.929 . S
H2246 C2250 0.929 . S
H2247 C2256 0.929 . S
C2248 H2242 0.930 . S
C2248 C2249 1.367 . S
C2248 C2256 1.378 . S
C2249 C2248 1.367 . S
C2249 C2257 1.433 . S
C2250 H2246 0.929 . S
C2250 C2252 1.378 . S
C2250 C2254 1.350 . S
C2251 C2254 1.463 . S
C2251 C2256 1.350 . S
C2251 N2259 1.427 . S
C2252 H2243 0.930 . S
C2252 C2250 1.378 . S
C2252 C2253 1.367 . S
C2253 C2252 1.367 . S
C2253 C2255 1.433 . S
C2254 C2250 1.350 . S
C2254 C2251 1.463 . S
C2254 N2258 1.427 . S
C2255 H2245 0.929 . S
C2255 C2253 1.433 . S
C2255 N2258 1.384 . S
C2256 H2247 0.929 . S
C2256 C2248 1.378 . S
C2256 C2251 1.350 . S
C2257 H2244 0.929 . S
C2257 C2249 1.433 . S
C2257 N2259 1.384 . S
N2258 C2254 1.427 . S
N2258 C2255 1.384 . S
N2259 C2251 1.427 . S
N2259 C2257 1.384 . S
H2260 C2266 0.930 . S
H2261 C2270 0.930 . S
H2262 C2275 0.929 . S
H2263 C2273 0.929 . S
H2264 C2268 0.929 . S
H2265 C2274 0.929 . S
C2266 H2260 0.930 . S
C2266 C2267 1.367 . S
C2266 C2274 1.378 . S
C2267 C2266 1.367 . S
C2267 C2275 1.433 . S
C2268 H2264 0.929 . S
C2268 C2270 1.378 . S
C2268 C2272 1.350 . S
C2269 C2272 1.463 . S
C2269 C2274 1.350 . S
C2269 N2277 1.427 . S
C2270 H2261 0.930 . S
C2270 C2268 1.378 . S
C2270 C2271 1.367 . S
C2271 C2270 1.367 . S
C2271 C2273 1.433 . S
C2272 C2268 1.350 . S
C2272 C2269 1.463 . S
C2272 N2276 1.427 . S
C2273 H2263 0.929 . S
C2273 C2271 1.433 . S
C2273 N2276 1.384 . S
C2274 H2265 0.929 . S
C2274 C2266 1.378 . S
C2274 C2269 1.350 . S
C2275 H2262 0.929 . S
C2275 C2267 1.433 . S
C2275 N2277 1.384 . S
N2276 C2272 1.427 . S
N2276 C2273 1.384 . S
N2277 C2269 1.427 . S
N2277 C2275 1.384 . S
H2278 C2284 0.930 . S
H2279 C2288 0.930 . S
H2280 C2293 0.929 . S
H2281 C2291 0.929 . S
H2282 C2286 0.929 . S
H2283 C2292 0.929 . S
C2284 H2278 0.930 . S
C2284 C2285 1.367 . S
C2284 C2292 1.378 . S
C2285 C2284 1.367 . S
C2285 C2293 1.433 . S
C2286 H2282 0.929 . S
C2286 C2288 1.378 . S
C2286 C2290 1.350 . S
C2287 C2290 1.463 . S
C2287 C2292 1.350 . S
C2287 N2295 1.427 . S
C2288 H2279 0.930 . S
C2288 C2286 1.378 . S
C2288 C2289 1.367 . S
C2289 C2288 1.367 . S
C2289 C2291 1.433 . S
C2290 C2286 1.350 . S
C2290 C2287 1.463 . S
C2290 N2294 1.427 . S
C2291 H2281 0.929 . S
C2291 C2289 1.433 . S
C2291 N2294 1.384 . S
C2292 H2283 0.929 . S
C2292 C2284 1.378 . S
C2292 C2287 1.350 . S
C2293 H2280 0.929 . S
C2293 C2285 1.433 . S
C2293 N2295 1.384 . S
N2294 C2290 1.427 . S
N2294 C2291 1.384 . S
N2295 C2287 1.427 . S
N2295 C2293 1.384 . S
H2296 C2302 0.930 . S
H2297 C2306 0.930 . S
H2298 C2311 0.929 . S
H2299 C2309 0.929 . S
H2300 C2304 0.929 . S
H2301 C2310 0.929 . S
C2302 H2296 0.930 . S
C2302 C2303 1.367 . S
C2302 C2310 1.378 . S
C2303 C2302 1.367 . S
C2303 C2311 1.433 . S
C2304 H2300 0.929 . S
C2304 C2306 1.378 . S
C2304 C2308 1.350 . S
C2305 C2308 1.463 . S
C2305 C2310 1.350 . S
C2305 N2313 1.427 . S
C2306 H2297 0.930 . S
C2306 C2304 1.378 . S
C2306 C2307 1.367 . S
C2307 C2306 1.367 . S
C2307 C2309 1.433 . S
C2308 C2304 1.350 . S
C2308 C2305 1.463 . S
C2308 N2312 1.427 . S
C2309 H2299 0.929 . S
C2309 C2307 1.433 . S
C2309 N2312 1.384 . S
C2310 H2301 0.929 . S
C2310 C2302 1.378 . S
C2310 C2305 1.350 . S
C2311 H2298 0.929 . S
C2311 C2303 1.433 . S
C2311 N2313 1.384 . S
N2312 C2308 1.427 . S
N2312 C2309 1.384 . S
N2313 C2305 1.427 . S
N2313 C2311 1.384 . S
H2314 C2320 0.930 . S
H2315 C2324 0.930 . S
H2316 C2329 0.929 . S
H2317 C2327 0.929 . S
H2318 C2322 0.929 . S
H2319 C2328 0.929 . S
C2320 H2314 0.930 . S
C2320 C2321 1.367 . S
C2320 C2328 1.378 . S
C2321 C2320 1.367 . S
C2321 C2329 1.433 . S
C2322 H2318 0.929 . S
C2322 C2324 1.378 . S
C2322 C2326 1.350 . S
C2323 C2326 1.463 . S
C2323 C2328 1.350 . S
C2323 N2331 1.427 . S
C2324 H2315 0.930 . S
C2324 C2322 1.378 . S
C2324 C2325 1.367 . S
C2325 C2324 1.367 . S
C2325 C2327 1.433 . S
C2326 C2322 1.350 . S
C2326 C2323 1.463 . S
C2326 N2330 1.427 . S
C2327 H2317 0.929 . S
C2327 C2325 1.433 . S
C2327 N2330 1.384 . S
C2328 H2319 0.929 . S
C2328 C2320 1.378 . S
C2328 C2323 1.350 . S
C2329 H2316 0.929 . S
C2329 C2321 1.433 . S
C2329 N2331 1.384 . S
N2330 C2326 1.427 . S
N2330 C2327 1.384 . S
N2331 C2323 1.427 . S
N2331 C2329 1.384 . S
H2332 C2338 0.930 . S
H2333 C2342 0.930 . S
H2334 C2347 0.929 . S
H2335 C2345 0.929 1_554 S
H2336 C2340 0.929 . S
H2337 C2346 0.929 . S
C2338 H2332 0.930 . S
C2338 C2339 1.367 . S
C2338 C2346 1.378 . S
C2339 C2338 1.367 . S
C2339 C2347 1.433 . S
C2340 H2336 0.929 . S
C2340 C2342 1.378 . S
C2340 C2344 1.350 . S
C2341 C2344 1.463 . S
C2341 C2346 1.350 . S
C2341 N2349 1.427 . S
C2342 H2333 0.930 . S
C2342 C2340 1.378 . S
C2342 C2343 1.367 . S
C2343 C2342 1.367 . S
C2343 C2345 1.433 . S
C2344 C2340 1.350 . S
C2344 C2341 1.463 . S
C2344 N2348 1.427 . S
C2345 H2335 0.929 1_556 S
C2345 C2343 1.433 . S
C2345 N2348 1.384 . S
C2346 H2337 0.929 . S
C2346 C2338 1.378 . S
C2346 C2341 1.350 . S
C2347 H2334 0.929 . S
C2347 C2339 1.433 . S
C2347 N2349 1.384 . S
N2348 C2344 1.427 . S
N2348 C2345 1.384 . S
N2349 C2341 1.427 . S
N2349 C2347 1.384 . S
H2350 C2356 0.930 1_554 S
H2351 C2360 0.930 . S
H2352 C2365 0.929 . S
H2353 C2363 0.929 . S
H2354 C2358 0.929 . S
H2355 C2364 0.929 1_554 S
C2356 H2350 0.930 1_556 S
C2356 C2357 1.367 . S
C2356 C2364 1.378 . S
C2357 C2356 1.367 . S
C2357 C2365 1.433 . S
C2358 H2354 0.929 . S
C2358 C2360 1.378 . S
C2358 C2362 1.350 . S
C2359 C2362 1.463 . S
C2359 C2364 1.350 . S
C2359 N2367 1.427 . S
C2360 H2351 0.930 . S
C2360 C2358 1.378 . S
C2360 C2361 1.367 . S
C2361 C2360 1.367 . S
C2361 C2363 1.433 . S
C2362 C2358 1.350 . S
C2362 C2359 1.463 . S
C2362 N2366 1.427 . S
C2363 H2353 0.929 . S
C2363 C2361 1.433 . S
C2363 N2366 1.384 . S
C2364 H2355 0.929 1_556 S
C2364 C2356 1.378 . S
C2364 C2359 1.350 . S
C2365 H2352 0.929 . S
C2365 C2357 1.433 . S
C2365 N2367 1.384 . S
N2366 C2362 1.427 . S
N2366 C2363 1.384 . S
N2367 C2359 1.427 . S
N2367 C2365 1.384 . S
C647 C566 1.500 . S
C651 C16 1.500 . S
C665 C106 1.487 . S
C669 C36 1.487 . S
C683 C446 1.488 . S
C687 C56 1.488 . S
C701 C306 1.499 . S
C705 C76 1.499 . S
C719 C86 1.490 . S
C723 C496 1.490 . S
C737 C376 1.494 . S
C741 C126 1.494 . S
C755 C236 1.490 . S
C759 C146 1.490 . S
C773 C406 1.495 . S
C777 C176 1.495 . S
C791 C196 1.492 . S
C795 C266 1.492 . S
C809 C216 1.486 . S
C813 C606 1.486 . S
C827 C336 1.501 . S
C831 C246 1.501 . S
C845 C286 1.496 . S
C849 C536 1.496 . S
C863 C356 1.494 . S
C867 C426 1.494 . S
C881 C396 1.487 . S
C885 C626 1.487 . S
C899 C556 1.492 . S
C903 C466 1.492 . S
C917 C586 1.498 . S
C921 C516 1.498 . S
C935 C386 1.587 . S
C939 C6 1.587 . S
C953 C366 1.588 . S
C957 C26 1.589 . S
C971 C346 1.588 . S
C975 C46 1.587 . S
C989 C326 1.590 . S
C993 C66 1.590 . S
C1007 C476 1.595 . S
C1011 C96 1.595 . S
C1025 C116 1.587 . S
C1029 C456 1.587 . S
C1043 C136 1.597 . S
C1047 C436 1.596 . S
C1061 C156 1.585 . S
C1065 C416 1.585 . S
C1079 C166 1.592 . S
C1083 C546 1.592 . S
C1097 C186 1.596 . S
C1101 C526 1.596 . S
C1115 C206 1.594 . S
C1119 C506 1.594 . S
C1133 C486 1.585 . S
C1137 C226 1.585 . S
C1151 C256 1.581 . S
C1155 C636 1.581 . S
C1169 C276 1.589 . S
C1173 C616 1.590 . S
C1187 C296 1.595 . S
C1191 C596 1.595 . S
C1205 C576 1.586 . S
C1209 C316 1.586 . S
C1223 C19 1.877 . S
C1227 C8 1.877 1_556 S
C1241 C39 1.875 1_565 S
C1245 C28 1.882 1_556 S
C1259 C48 1.887 . S
C1263 C59 1.880 1_565 S
C1277 C68 1.881 . S
C1281 C79 1.881 . S
C1295 C99 1.883 1_554 S
C1299 C88 1.883 . S
C1313 C119 1.870 1_554 S
C1317 C108 1.869 1_545 S
C1331 C139 1.869 . S
C1335 C128 1.867 1_545 S
C1349 C148 1.869 . S
C1353 C159 1.869 . S
C1367 C179 1.858 1_554 S
C1371 C168 1.872 . S
C1385 C188 1.872 . S
C1389 C199 1.872 1_554 S
C1403 C208 1.868 . S
C1407 C219 1.868 . S
C1421 C228 1.869 . S
C1425 C239 1.869 . S
C1439 C259 1.875 . S
C1443 C248 1.875 1_556 S
C1457 C268 1.873 1_556 S
C1461 C279 1.873 . S
C1475 C299 1.878 . S
C1479 C288 1.878 . S
C1493 C308 1.880 . S
C1497 C319 1.880 . S
C1511 C339 1.883 1_554 S
C1515 C328 1.883 . S
C1529 C348 1.885 . S
C1533 C359 1.879 1_564 S
C1547 C368 1.868 . S
C1551 C379 1.866 1_565 S
C1565 C388 1.878 . S
C1569 C399 1.878 . S
C1583 C408 1.880 1_556 S
C1587 C419 1.880 . S
C1601 C439 1.868 . S
C1605 C428 1.853 1_546 S
C1619 C448 1.866 1_545 S
C1623 C459 1.868 . S
C1637 C468 1.883 . S
C1641 C479 1.883 . S
C1655 C499 1.882 . S
C1659 C488 1.882 1_556 S
C1673 C508 1.881 1_556 S
C1677 C519 1.881 . S
C1691 C528 1.881 . S
C1695 C539 1.881 . S
C1709 C559 1.879 . S
C1713 C548 1.879 . S
C1727 C579 1.876 1_554 S
C1731 C568 1.876 . S
C1745 C588 1.879 . S
C1749 C599 1.879 1_554 S
C1763 C608 1.881 . S
C1767 C619 1.881 . S
C1781 C628 1.883 . S
C1785 C639 1.883 . S
C1799 C201 1.535 . S
C1803 C1 1.536 . S
C1817 C221 1.535 . S
C1821 C21 1.536 . S
C1835 C41 1.535 . S
C1839 C161 1.536 . S
C1853 C181 1.539 . S
C1857 C61 1.539 . S
C1871 C89 1.535 . S
C1875 C289 1.536 . S
C1889 C109 1.537 . S
C1893 C309 1.535 . S
C1907 C129 1.538 . S
C1911 C249 1.539 . S
C1925 C149 1.538 . S
C1929 C269 1.539 . S
C1943 C521 1.536 . S
C1947 C321 1.535 . S
C1961 C341 1.539 . S
C1965 C541 1.537 . S
C1979 C481 1.539 . S
C1983 C361 1.538 . S
C1997 C381 1.535 . S
C2001 C501 1.536 . S
C2015 C609 1.539 . S
C2019 C409 1.539 . S
C2033 C429 1.539 . S
C2037 C629 1.539 . S
C2051 C449 1.537 . S
C2055 C569 1.535 . S
C2069 C589 1.536 . S
C2073 C469 1.535 . S
C2087 C9 1.474 . S
C2091 C49 1.473 . S
C2105 C69 1.483 . S
C2109 C29 1.483 . S
C2123 C121 1.483 . S
C2127 C81 1.482 . S
C2141 C101 1.481 . S
C2145 C141 1.479 . S
C2159 C169 1.481 . S
C2163 C209 1.482 . S
C2177 C229 1.483 . S
C2181 C189 1.483 . S
C2195 C281 1.483 . S
C2199 C241 1.483 . S
C2213 C301 1.483 . S
C2217 C261 1.482 . S
C2231 C369 1.482 . S
C2235 C329 1.483 . S
C2249 C389 1.478 . S
C2253 C349 1.480 . S
C2267 C441 1.473 . S
C2271 C401 1.474 . S
C2285 C461 1.473 . S
C2289 C421 1.475 . S
C2303 C489 1.477 . S
C2307 C529 1.476 . S
C2321 C509 1.480 . S
C2325 C549 1.482 . S
C2339 C561 1.483 . S
C2343 C601 1.482 . S
C2357 C621 1.473 . S
C2361 C581 1.474 . S
