# Generated by pormake.
# Topology vma, (5)-cn, num edge types: 1
# Building blocks:
#     Node 0, Type 0, BuildingBlock: XOMCOT_clean_sbu_0, # of connection points: 5
#     Node 1, Type 0, BuildingBlock: XOMCOT_clean_sbu_0, # of connection points: 5
#     Node 2, Type 0, BuildingBlock: XOMCOT_clean_sbu_0, # of connection points: 5
#     Node 3, Type 0, BuildingBlock: XOMCOT_clean_sbu_0, # of connection points: 5
#     Node 4, Type 0, BuildingBlock: XOMCOT_clean_sbu_0, # of connection points: 5
#     Node 5, Type 0, BuildingBlock: XOMCOT_clean_sbu_0, # of connection points: 5
#     Node 6, Type 0, BuildingBlock: XOMCOT_clean_sbu_0, # of connection points: 5
#     Node 7, Type 0, BuildingBlock: XOMCOT_clean_sbu_0, # of connection points: 5
#     Edge 8, Type (0, 0), BuildingBlock: KIFKEQ_clean_linker_1, # of connection points: 2
#     Edge 9, Type (0, 0), BuildingBlock: KIFKEQ_clean_linker_1, # of connection points: 2
#     Edge 10, Type (0, 0), BuildingBlock: KIFKEQ_clean_linker_1, # of connection points: 2
#     Edge 11, Type (0, 0), BuildingBlock: KIFKEQ_clean_linker_1, # of connection points: 2
#     Edge 12, Type (0, 0), BuildingBlock: KIFKEQ_clean_linker_1, # of connection points: 2
#     Edge 13, Type (0, 0), BuildingBlock: KIFKEQ_clean_linker_1, # of connection points: 2
#     Edge 14, Type (0, 0), BuildingBlock: KIFKEQ_clean_linker_1, # of connection points: 2
#     Edge 15, Type (0, 0), BuildingBlock: KIFKEQ_clean_linker_1, # of connection points: 2
#     Edge 16, Type (0, 0), BuildingBlock: KIFKEQ_clean_linker_1, # of connection points: 2
#     Edge 17, Type (0, 0), BuildingBlock: KIFKEQ_clean_linker_1, # of connection points: 2
#     Edge 18, Type (0, 0), BuildingBlock: KIFKEQ_clean_linker_1, # of connection points: 2
#     Edge 19, Type (0, 0), BuildingBlock: KIFKEQ_clean_linker_1, # of connection points: 2
#     Edge 20, Type (0, 0), BuildingBlock: KIFKEQ_clean_linker_1, # of connection points: 2
#     Edge 21, Type (0, 0), BuildingBlock: KIFKEQ_clean_linker_1, # of connection points: 2
#     Edge 22, Type (0, 0), BuildingBlock: KIFKEQ_clean_linker_1, # of connection points: 2
#     Edge 23, Type (0, 0), BuildingBlock: KIFKEQ_clean_linker_1, # of connection points: 2
#     Edge 24, Type (0, 0), BuildingBlock: KIFKEQ_clean_linker_1, # of connection points: 2
#     Edge 25, Type (0, 0), BuildingBlock: KIFKEQ_clean_linker_1, # of connection points: 2
#     Edge 26, Type (0, 0), BuildingBlock: KIFKEQ_clean_linker_1, # of connection points: 2
#     Edge 27, Type (0, 0), BuildingBlock: KIFKEQ_clean_linker_1, # of connection points: 2
# Relax obj value: 0.099
# Max RMSD: 0.194
# Mean RMSD: 0.194
data_MOF--net-vma--node1-XOMCOT_clean_sbu_0--edge1-KIFKEQ_clean_linker_1
_symmetry_space_group_name_H-M    P1
_symmetry_Int_Tables_number       1
_symmetry_cell_setting            triclinic
loop_
_symmetry_equiv_pos_as_xyz
'x, y, z'
_cell_length_a     44.70997
_cell_length_b     25.423128
_cell_length_c     39.314789
_cell_angle_alpha  89.585089
_cell_angle_beta   108.00651
_cell_angle_gamma 90.038128
loop_
_atom_site_label
_atom_site_type_symbol
_atom_site_fract_x
_atom_site_fract_y
_atom_site_fract_z
_atom_type_partial_charge
Co0 Co 0.37489 0.12269 0.38389 0.0
C1 C 0.41724 0.09782 0.33981 0.0
C2 C 0.4193 0.17819 0.35712 0.0
C3 C 0.44144 0.1713 0.34004 0.0
N4 N 0.40418 0.13238 0.35714 0.0
N5 N 0.44021 0.121 0.32924 0.0
H6 H 0.411 0.05663 0.33623 0.0
H7 H 0.41523 0.21382 0.3699 0.0
C8 C 0.32611 0.20379 0.35242 0.0
O9 O 0.30514 0.16736 0.35208 0.0
N10 N 0.34629 0.11668 0.41273 0.0
C11 C 0.33432 0.07402 0.42458 0.0
C12 C 0.31526 0.09036 0.44417 0.0
C13 C 0.33588 0.15793 0.42756 0.0
N14 N 0.316 0.14332 0.4457 0.0
C15 C 0.34019 0.03368 0.349 0.0
C16 C 0.31658 0.07692 0.28133 0.0
C17 C 0.3078 0.02567 0.28761 0.0
C18 C 0.32036 1.00393 0.32179 0.0
C19 C 0.33629 0.10588 0.30979 0.0
N20 N 0.34645 0.08503 0.34366 0.0
H21 H 0.35145 1.01433 0.37404 0.0
H22 H 0.34363 0.14475 0.30446 0.0
H23 H 0.33948 0.03359 0.42068 0.0
H24 H 0.34223 0.19826 0.42434 0.0
O25 O 0.39827 0.06285 0.40791 0.0
O26 O 0.40788 0.14498 0.42663 0.0
O27 O 0.35546 0.19302 0.36454 0.0
C28 C 0.41536 0.09519 0.43119 0.0
H29 H 0.45755 0.20084 0.33611 0.0
H30 H 0.30225 0.065 0.45673 0.0
H31 H 0.30828 0.09436 0.25485 0.0
H32 H 0.31571 0.9634 0.32724 0.0
Co33 Co 0.64654 0.14785 0.13228 0.0
C34 C 0.60233 0.12126 0.17541 0.0
C35 C 0.59705 0.19892 0.15277 0.0
C36 C 0.57376 0.19104 0.16814 0.0
N37 N 0.61539 0.15563 0.15749 0.0
N38 N 0.57701 0.14226 0.18228 0.0
H39 H 0.60957 0.08107 0.1817 0.0
H40 H 0.59975 0.23348 0.13779 0.0
C41 C 0.66725 0.24104 0.17824 0.0
O42 O 0.66232 0.2125 0.204 0.0
N43 N 0.67615 0.14314 0.10547 0.0
C44 C 0.69267 0.10102 0.10091 0.0
C45 C 0.71128 0.11603 0.08026 0.0
C46 C 0.68464 0.18289 0.08744 0.0
N47 N 0.70623 0.16762 0.0718 0.0
C48 C 0.67175 0.06747 0.18423 0.0
C49 C 0.73147 0.10861 0.21192 0.0
C50 C 0.72509 0.05866 0.22346 0.0
C51 C 0.69462 0.03865 0.20953 0.0
C52 C 0.7076 0.13665 0.18669 0.0
N53 N 0.6779 0.11637 0.17352 0.0
H54 H 0.6498 0.04826 0.17133 0.0
H55 H 0.71358 0.17326 0.1763 0.0
H56 H 0.69139 0.06229 0.11194 0.0
H57 H 0.67546 0.22243 0.08633 0.0
O58 O 0.62678 0.08391 0.11141 0.0
O59 O 0.61295 0.16317 0.08815 0.0
O60 O 0.66218 0.22136 0.14713 0.0
C61 C 0.60781 0.11254 0.08666 0.0
H62 H 0.55553 0.21885 0.16849 0.0
H63 H 0.72705 0.09059 0.0719 0.0
H64 H 0.75492 0.12506 0.22132 0.0
H65 H 0.68893 0.99923 0.21616 0.0
Co66 Co 0.66448 0.91132 0.62946 0.0
C67 C 0.61851 0.92084 0.67151 0.0
C68 C 0.65882 0.87349 0.69776 0.0
C69 C 0.63925 0.87371 0.7185 0.0
N70 N 0.64603 0.90281 0.66811 0.0
N71 N 0.61374 0.90304 0.70198 0.0
H72 H 0.60191 0.94524 0.65197 0.0
H73 H 0.68077 0.85239 0.70404 0.0
C74 C 0.70959 0.81955 0.6392 0.0
O75 O 0.72968 0.84937 0.62964 0.0
N76 N 0.68284 0.91845 0.59068 0.0
C77 C 0.70058 0.95794 0.58442 0.0
C78 C 0.71295 0.94283 0.55799 0.0
C79 C 0.68362 0.88084 0.56676 0.0
N80 N 0.7028 0.89381 0.54719 0.0
C81 C 0.69847 1.0019 0.66243 0.0
C82 C 0.74601 0.95325 0.71538 0.0
C83 C 0.7437 1.00815 0.71494 0.0
C84 C 0.71983 0.03231 0.68782 0.0
C85 C 0.72364 0.92383 0.68953 0.0
N86 N 0.70011 0.94813 0.66311 0.0
H87 H 0.68046 1.02262 0.64223 0.0
H88 H 0.72499 0.8818 0.69222 0.0
H89 H 0.70564 0.99436 0.59891 0.0
H90 H 0.67209 0.84322 0.56571 0.0
O91 O 0.63853 0.97184 0.61166 0.0
O92 O 0.62474 0.89055 0.5944 0.0
O93 O 0.68393 0.83884 0.64163 0.0
C94 C 0.6177 0.9405 0.59179 0.0
H95 H 0.64357 0.85362 0.74393 0.0
H96 H 0.72983 0.96529 0.54927 0.0
H97 H 0.76415 0.93323 0.73625 0.0
H98 H 0.71754 0.07478 0.6863 0.0
Co99 Co 0.37816 0.91999 0.86765 0.0
C100 C 0.42637 0.93798 0.82763 0.0
C101 C 0.43288 0.86812 0.86009 0.0
C102 C 0.45705 0.87131 0.84577 0.0
N103 N 0.41353 0.90981 0.84914 0.0
N104 N 0.45304 0.91507 0.82545 0.0
H105 H 0.4173 0.9745 0.81439 0.0
H106 H 0.42968 0.83732 0.87776 0.0
C107 C 0.36163 0.82757 0.81979 0.0
O108 O 0.3718 0.85425 0.79683 0.0
N109 N 0.34395 0.92649 0.88769 0.0
C110 C 0.32873 0.97006 0.89264 0.0
C111 C 0.30666 0.95558 0.90906 0.0
C112 C 0.33115 0.88646 0.90107 0.0
N113 N 0.30818 0.90291 0.91413 0.0
C114 C 0.36158 1.00401 0.81733 0.0
C115 C 0.30333 0.96698 0.7773 0.0
C116 C 0.31287 1.01712 0.76955 0.0
C117 C 0.3425 0.03524 0.79008 0.0
C118 C 0.32335 0.93674 0.80509 0.0
N119 N 0.35245 0.95495 0.82422 0.0
H120 H 0.38337 1.02058 0.83392 0.0
H121 H 0.31478 0.89982 0.81213 0.0
H122 H 0.33341 1.00943 0.88501 0.0
H123 H 0.33905 0.8461 0.90204 0.0
O124 O 0.39776 0.98169 0.89276 0.0
O125 O 0.40626 0.90059 0.91462 0.0
O126 O 0.362 0.8483 0.8494 0.0
C127 C 0.41288 0.95058 0.91857 0.0
H128 H 0.47619 0.8435 0.84986 0.0
H129 H 0.29058 0.98167 0.91639 0.0
H130 H 0.28041 0.95167 0.7626 0.0
H131 H 0.35046 0.07448 0.78638 0.0
Co132 Co 0.87648 0.64593 0.36056 0.0
C133 C 0.9194 0.62364 0.31507 0.0
C134 C 0.9236 0.70105 0.33731 0.0
C135 C 0.9438 0.69724 0.31739 0.0
N136 N 0.9074 0.65568 0.33514 0.0
N137 N 0.94116 0.64872 0.30346 0.0
H138 H 0.91304 0.58313 0.3091 0.0
H139 H 0.92087 0.73494 0.35256 0.0
C140 C 0.85403 0.73939 0.31389 0.0
O141 O 0.85848 0.71132 0.28792 0.0
N142 N 0.84669 0.63929 0.38718 0.0
C143 C 0.83439 0.59506 0.39642 0.0
C144 C 0.81415 0.60888 0.4153 0.0
C145 C 0.83382 0.67919 0.4004 0.0
N146 N 0.81373 0.66182 0.41751 0.0
C147 C 0.8521 0.56557 0.30911 0.0
C148 C 0.79194 0.60553 0.28161 0.0
C149 C 0.79867 0.55593 0.27031 0.0
C150 C 0.82937 0.53647 0.28415 0.0
C151 C 0.81559 0.63368 0.30659 0.0
N152 N 0.84553 0.61412 0.31956 0.0
H153 H 0.87437 0.54693 0.32192 0.0
H154 H 0.80926 0.66985 0.31689 0.0
H155 H 0.83961 0.55564 0.38973 0.0
H156 H 0.83931 0.72022 0.39802 0.0
O157 O 0.89718 0.58224 0.38199 0.0
O158 O 0.90959 0.66155 0.40489 0.0
O159 O 0.85992 0.71932 0.34522 0.0
C160 C 0.91511 0.61099 0.4072 0.0
H161 H 0.95981 0.72736 0.31402 0.0
H162 H 0.8004 0.58216 0.42599 0.0
H163 H 0.76836 0.62164 0.27223 0.0
H164 H 0.83536 0.49732 0.27769 0.0
Co165 Co 0.15957 0.63195 0.12315 0.0
C166 C 0.11687 0.60513 0.16679 0.0
C167 C 0.15016 0.66506 0.19119 0.0
C168 C 0.13128 0.65618 0.21229 0.0
N169 N 0.14162 0.63262 0.16273 0.0
N170 N 0.11028 0.61879 0.1969 0.0
H171 H 0.10344 0.57652 0.148 0.0
H172 H 0.16824 0.69475 0.19617 0.0
C173 C 0.20909 0.71513 0.14478 0.0
O174 O 0.22892 0.68154 0.13819 0.0
N175 N 0.17669 0.63335 0.08277 0.0
C176 C 0.18123 0.59287 0.06282 0.0
C177 C 0.19353 0.61171 0.03707 0.0
C178 C 0.18434 0.67663 0.06684 0.0
N179 N 0.19582 0.66443 0.03984 0.0
C180 C 0.19769 0.54014 0.14331 0.0
C181 C 0.23256 0.57109 0.2111 0.0
C182 C 0.2338 0.51844 0.20135 0.0
C183 C 0.21712 0.50391 0.16643 0.0
C184 C 0.21299 0.60664 0.18675 0.0
N185 N 0.19526 0.59089 0.15329 0.0
H186 H 0.18263 0.52532 0.11848 0.0
H187 H 0.21103 0.64585 0.19592 0.0
H188 H 0.17501 0.55243 0.06531 0.0
H189 H 0.1819 0.71647 0.075 0.0
O190 O 0.1336 0.57342 0.10215 0.0
O191 O 0.11941 0.65681 0.09087 0.0
O192 O 0.1805 0.70173 0.13996 0.0
C193 C 0.11249 0.60707 0.08505 0.0
H194 H 0.13183 0.67763 0.23617 0.0
H195 H 0.19979 0.58834 0.01737 0.0
H196 H 0.24492 0.58392 0.238 0.0
H197 H 0.21748 0.4637 0.1576 0.0
Co198 Co 0.15192 0.42054 0.62655 0.0
C199 C 0.10715 0.44056 0.66848 0.0
C200 C 0.14484 0.38866 0.69583 0.0
C201 C 0.12617 0.39633 0.71726 0.0
N202 N 0.1333 0.41679 0.6653 0.0
N203 N 0.10251 0.42877 0.70006 0.0
H204 H 0.0918 0.46602 0.64847 0.0
H205 H 0.1652 0.36337 0.70226 0.0
C206 C 0.1988 0.33228 0.64089 0.0
O207 O 0.21829 0.36432 0.63203 0.0
N208 N 0.17013 0.42301 0.58742 0.0
C209 C 0.18671 0.46175 0.57806 0.0
C210 C 0.19948 0.44279 0.55285 0.0
C211 C 0.17178 0.38201 0.56633 0.0
N212 N 0.19065 0.39218 0.54599 0.0
C213 C 0.1874 0.51242 0.65451 0.0
C214 C 0.23244 0.46716 0.71182 0.0
C215 C 0.232 0.52177 0.70739 0.0
C216 C 0.20927 0.54426 0.67827 0.0
C217 C 0.20961 0.4365 0.68761 0.0
N218 N 0.18761 0.45893 0.65872 0.0
H219 H 0.17004 0.53173 0.63279 0.0
H220 H 0.20943 0.39519 0.69337 0.0
H221 H 0.19082 0.50035 0.58965 0.0
H222 H 0.16131 0.34411 0.56805 0.0
O223 O 0.12642 0.48046 0.6062 0.0
O224 O 0.11205 0.39828 0.59224 0.0
O225 O 0.17191 0.34878 0.64154 0.0
C226 C 0.10563 0.44834 0.58709 0.0
H227 H 0.12912 0.37807 0.74307 0.0
H228 H 0.21596 0.46366 0.54253 0.0
H229 H 0.24948 0.44858 0.73452 0.0
H230 H 0.20826 0.58647 0.67396 0.0
Co231 Co 0.87751 0.4141 0.87788 0.0
C232 C 0.92195 0.4343 0.83359 0.0
C233 C 0.93198 0.36502 0.86665 0.0
C234 C 0.95253 0.36676 0.84704 0.0
N235 N 0.91232 0.40673 0.85802 0.0
N236 N 0.94622 0.41019 0.82638 0.0
H237 H 0.91129 0.46981 0.8202 0.0
H238 H 0.93065 0.33413 0.88519 0.0
C239 C 0.86218 0.32105 0.83048 0.0
O240 O 0.87046 0.34951 0.80685 0.0
N241 N 0.84395 0.41789 0.89913 0.0
C242 C 0.82552 0.45903 0.90068 0.0
C243 C 0.8052 0.4435 0.91916 0.0
C244 C 0.83483 0.37823 0.91666 0.0
N245 N 0.81107 0.39257 0.92918 0.0
C246 C 0.85832 0.49719 0.82728 0.0
C247 C 0.80218 0.45521 0.78538 0.0
C248 C 0.81141 0.50503 0.77658 0.0
C249 C 0.83969 0.52599 0.79842 0.0
C250 C 0.82187 0.42726 0.81483 0.0
N251 N 0.85027 0.44756 0.8345 0.0
H252 H 0.87946 0.5155 0.84402 0.0
H253 H 0.81388 0.39004 0.8222 0.0
H254 H 0.82675 0.49748 0.88924 0.0
H255 H 0.84592 0.3399 0.92072 0.0
O256 O 0.8957 0.47722 0.90189 0.0
O257 O 0.90719 0.39742 0.92483 0.0
O258 O 0.86288 0.34103 0.86048 0.0
C259 C 0.91223 0.44802 0.92798 0.0
H260 H 0.97057 0.33808 0.84756 0.0
H261 H 0.78731 0.46783 0.92443 0.0
H262 H 0.78 0.43818 0.76986 0.0
H263 H 0.84714 0.56528 0.79392 0.0
H264 H 0.19656 0.28624 0.55741 0.0
H265 H 0.21725 0.41204 0.49375 0.0
H266 H 0.22631 0.22534 0.53302 0.0
H267 H 0.2469 0.35081 0.46909 0.0
H268 H 0.32901 0.24436 0.46774 0.0
H269 H 0.29643 0.30342 0.48966 0.0
H270 H 0.22803 0.17979 0.47966 0.0
H271 H 0.26059 0.12065 0.4576 0.0
C272 C 0.20691 0.30091 0.53774 0.0
C273 C 0.20466 0.35451 0.52793 0.0
C274 C 0.22409 0.26578 0.52373 0.0
C275 C 0.2394 0.28319 0.49938 0.0
C276 C 0.23606 0.33625 0.48843 0.0
C277 C 0.21892 0.37139 0.50248 0.0
C278 C 0.30698 0.2297 0.46998 0.0
C279 C 0.29754 0.17753 0.46075 0.0
C280 C 0.28819 0.26372 0.4825 0.0
C281 C 0.25942 0.2466 0.4862 0.0
C282 C 0.25017 0.19423 0.4775 0.0
C283 C 0.26895 0.16018 0.46492 0.0
H284 H 0.6843 0.25913 0.03636 0.0
H285 H 0.76208 0.14986 0.05956 0.0
H286 H 0.70937 0.31345 0.00177 0.0
H287 H 0.78709 0.20417 0.02491 0.0
H288 H 0.8073 0.28572 0.93003 0.0
H289 H 0.78186 0.23145 0.96425 0.0
H290 H 0.75384 0.37126 0.00834 0.0
H291 H 0.77934 0.42561 0.97413 0.0
C292 C 0.70684 0.24675 0.03441 0.0
C293 C 0.72104 0.19982 0.05094 0.0
C294 C 0.72128 0.27805 0.01449 0.0
C295 C 0.75033 0.26336 0.01044 0.0
C296 C 0.7645 0.21641 0.0269 0.0
C297 C 0.7501 0.18514 0.04686 0.0
C298 C 0.796 0.30504 0.94723 0.0
C299 C 0.79557 0.3603 0.94925 0.0
C300 C 0.78135 0.27378 0.96693 0.0
C301 C 0.76578 0.29681 0.98922 0.0
C302 C 0.76519 0.35206 0.99111 0.0
C303 C 0.77987 0.38334 0.97142 0.0
H304 H 0.69865 0.78646 0.54191 0.0
H305 H 0.73489 0.92274 0.50131 0.0
H306 H 0.72241 0.72973 0.50814 0.0
H307 H 0.76067 0.86601 0.46998 0.0
H308 H 0.78698 0.75624 0.39475 0.0
H309 H 0.75668 0.81074 0.42287 0.0
H310 H 0.77 0.69464 0.50729 0.0
H311 H 0.7989 0.63925 0.47777 0.0
C312 C 0.71149 0.80467 0.52576 0.0
C313 C 0.71478 0.85977 0.52483 0.0
C314 C 0.72568 0.77178 0.5067 0.0
C315 C 0.74395 0.79278 0.48638 0.0
C316 C 0.74658 0.84788 0.4848 0.0
C317 C 0.73204 0.88074 0.50339 0.0
C318 C 0.78335 0.74248 0.41931 0.0
C319 C 0.79543 0.69357 0.43413 0.0
C320 C 0.76607 0.77386 0.43565 0.0
C321 C 0.76086 0.75771 0.46774 0.0
C322 C 0.77285 0.70836 0.48235 0.0
C323 C 0.78964 0.67656 0.46558 0.0
H324 H 0.2841 0.92983 0.96711 0.0
H325 H 0.29011 0.80231 0.89775 0.0
H326 H 0.25549 0.87297 0.99671 0.0
H327 H 0.26085 0.74588 0.92636 0.0
H328 H 0.24182 0.64081 0.01108 0.0
H329 H 0.26749 0.69962 0.98 0.0
H330 H 0.20801 0.8273 0.99241 0.0
H331 H 0.18274 0.76813 0.02441 0.0
C332 C 0.27892 0.88986 0.95787 0.0
C333 C 0.28967 0.87045 0.93033 0.0
C334 C 0.26241 0.85719 0.97476 0.0
C335 C 0.25598 0.80442 0.96427 0.0
C336 C 0.26599 0.78573 0.93592 0.0
C337 C 0.28273 0.81816 0.91937 0.0
C338 C 0.23388 0.68123 0.00681 0.0
C339 C 0.21002 0.69952 0.02011 0.0
C340 C 0.24863 0.71515 0.98887 0.0
C341 C 0.23981 0.76844 0.98332 0.0
C342 C 0.2158 0.78677 0.99651 0.0
C343 C 0.20118 0.75279 0.01479 0.0
H344 H 0.51407 0.15189 0.16422 0.0
H345 H 0.59416 0.07986 0.24129 0.0
H346 H 0.48078 0.12641 0.20024 0.0
H347 H 0.56071 0.05364 0.27767 0.0
H348 H 0.50306 0.12443 0.35053 0.0
H349 H 0.53671 0.11066 0.31301 0.0
H350 H 0.45628 0.05721 0.22748 0.0
H351 H 0.42264 0.07131 0.26567 0.0
C352 C 0.52437 0.1296 0.18862 0.0
C353 C 0.55675 0.11855 0.2003 0.0
C354 C 0.50523 0.11442 0.20909 0.0
C355 C 0.51808 0.08821 0.24198 0.0
C356 C 0.55015 0.07411 0.25256 0.0
C357 C 0.56927 0.08883 0.23174 0.0
C358 C 0.49291 0.10789 0.32416 0.0
C359 C 0.4604 0.09899 0.31083 0.0
C360 C 0.51214 0.09981 0.30265 0.0
C361 C 0.49916 0.08331 0.26708 0.0
C362 C 0.46693 0.07037 0.25469 0.0
C363 C 0.44772 0.0779 0.27652 0.0
H364 H 0.59213 0.83538 0.74195 0.0
H365 H 0.57405 0.98766 0.69019 0.0
H366 H 0.55154 0.85115 0.76971 0.0
H367 H 0.5322 1.00293 0.71781 0.0
H368 H 0.43826 0.94473 0.75572 0.0
H369 H 0.47573 0.9504 0.72099 0.0
H370 H 0.55268 0.9269 0.81808 0.0
H371 H 0.51557 0.92121 0.85222 0.0
C372 C 0.5795 0.87234 0.73648 0.0
C373 C 0.58696 0.91082 0.71457 0.0
C374 C 0.5561 0.8812 0.75226 0.0
C375 C 0.53919 0.92859 0.74638 0.0
C376 C 0.54509 0.96615 0.72283 0.0
C377 C 0.56893 0.95736 0.70705 0.0
C378 C 0.46327 0.94278 0.76956 0.0
C379 C 0.47418 0.93202 0.80648 0.0
C380 C 0.48462 0.94589 0.74979 0.0
C381 C 0.51697 0.93833 0.7669 0.0
C382 C 0.52783 0.9323 0.80423 0.0
C383 C 0.50667 0.92912 0.82375 0.0
H384 H 0.11101 0.59733 0.26418 0.0
H385 H 0.04971 0.6088 0.1556 0.0
H386 H 0.06538 0.59008 0.28571 0.0
H387 H 1.00374 0.60222 0.17708 0.0
H388 H 0.94763 0.69433 0.24456 0.0
H389 H 0.98591 0.67149 0.21411 0.0
H390 H 1.01569 0.53757 0.28467 0.0
H391 H 0.97662 0.56039 0.31469 0.0
C392 C 0.08769 0.59694 0.24491 0.0
C393 C 0.08381 0.6038 0.20832 0.0
C394 C 0.06158 0.5925 0.25716 0.0
C395 C 0.03097 0.59579 0.2331 0.0
C396 C 0.02707 0.59966 0.19623 0.0
C397 C 0.0533 0.6031 0.18391 0.0
C398 C 0.96178 0.65918 0.25276 0.0
C399 C 0.9593 0.62903 0.28181 0.0
C400 C 0.98356 0.64592 0.2353 0.0
C401 C 1.00384 0.60276 0.24702 0.0
C402 C 1.00035 0.57104 0.27508 0.0
C403 C 0.97797 0.5838 0.29209 0.0
H404 H 0.04066 0.42488 0.66286 0.0
H405 H 0.10606 0.46259 0.7657 0.0
H406 H 0.99684 0.43174 0.68805 0.0
H407 H 0.06254 0.4706 0.79077 0.0
H408 H 0.97496 0.50241 0.82258 0.0
H409 H 1.00988 0.5205 0.78615 0.0
H410 H 0.98744 0.36834 0.73676 0.0
H411 H 0.95343 0.35025 0.77373 0.0
C412 C 0.04546 0.43633 0.69051 0.0
C413 C 0.07659 0.44303 0.71248 0.0
C414 C 0.02052 0.44002 0.70494 0.0
C415 C 0.02634 0.4517 0.74136 0.0
C416 C 0.05732 0.4621 0.76257 0.0
C417 C 0.0822 0.45727 0.74834 0.0
C418 C 0.97701 0.47369 0.80321 0.0
C419 C 0.96176 0.425 0.8008 0.0
C420 C 0.99697 0.48382 0.78255 0.0
C421 C 1.00128 0.44583 0.7586 0.0
C422 C 0.98429 0.39858 0.75464 0.0
C423 C 0.965 0.38807 0.77583 0.0
H424 H 0.17531 0.79332 0.16363 0.0
H425 H 0.26784 0.7568 0.15733 0.0
H426 H 0.19467 0.87773 0.19074 0.0
H427 H 0.28727 0.84056 0.18505 0.0
H428 H 0.25653 0.97054 0.28981 0.0
H429 H 0.22937 0.9019 0.24911 0.0
H430 H 0.28567 0.93669 0.18004 0.0
H431 H 0.31338 1.00511 0.22155 0.0
C432 C 0.19971 0.80341 0.16778 0.0
C433 C 0.22012 0.76802 0.1587 0.0
C434 C 0.21081 0.85177 0.18337 0.0
C435 C 0.24255 0.86584 0.19022 0.0
C436 C 0.2626 0.83133 0.17975 0.0
C437 C 0.25152 0.78299 0.16418 0.0
C438 C 0.26262 0.96421 0.26553 0.0
C439 C 0.28721 0.9927 0.25894 0.0
C440 C 0.24694 0.92509 0.24206 0.0
C441 C 0.25555 0.91342 0.21146 0.0
C442 C 0.2788 0.9443 0.20365 0.0
C443 C 0.29443 0.9838 0.22715 0.0
H444 H 0.72275 0.99415 0.27856 0.0
H445 H 0.78424 0.04346 0.21859 0.0
H446 H 0.75871 0.92264 0.3053 0.0
H447 H 0.82093 0.9732 0.24647 0.0
H448 H 0.83471 0.80527 0.35816 0.0
H449 H 0.80934 0.8912 0.34309 0.0
H450 H 0.8171 0.87964 0.23653 0.0
H451 H 0.84286 0.7949 0.25171 0.0
C452 C 0.74437 0.9905 0.27179 0.0
C453 C 0.75037 1.02398 0.24601 0.0
C454 C 0.76515 0.94973 0.28736 0.0
C455 C 0.79248 0.94158 0.27758 0.0
C456 C 0.79976 0.97776 0.25404 0.0
C457 C 0.77892 1.01851 0.2384 0.0
C458 C 0.83133 0.82145 0.33168 0.0
C459 C 0.84062 0.79302 0.30606 0.0
C460 C 0.81671 0.87061 0.32301 0.0
C461 C 0.81119 0.89244 0.2886 0.0
C462 C 0.82142 0.86459 0.26346 0.0
C463 C 0.83593 0.81558 0.27208 0.0
H464 H 0.80778 1.01319 0.73307 0.0
H465 H 0.72803 0.07936 0.75743 0.0
H466 H 0.84161 0.08186 0.76878 0.0
H467 H 0.76142 0.14785 0.79272 0.0
H468 H 0.83034 0.25819 0.86463 0.0
H469 H 0.80631 0.17262 0.84504 0.0
H470 H 0.8427 0.17717 0.75528 0.0
H471 H 0.8668 0.26198 0.77486 0.0
C472 C 0.79775 0.04152 0.74694 0.0
C473 C 0.76538 0.04143 0.7424 0.0
C474 C 0.81697 0.08099 0.76709 0.0
C475 C 0.80411 0.12058 0.78328 0.0
C476 C 0.77214 0.11781 0.78088 0.0
C477 C 0.75297 0.07879 0.76052 0.0
C478 C 0.83358 0.24049 0.84103 0.0
C479 C 0.85014 0.26713 0.82104 0.0
C480 C 0.81979 0.19156 0.8298 0.0
C481 C 0.82258 0.16814 0.79859 0.0
C482 C 0.84044 0.19374 0.77967 0.0
C483 C 0.85397 0.24271 0.7907 0.0
H484 H 0.18419 0.27227 0.69157 0.0
H485 H 0.23778 0.2712 0.61726 0.0
H486 H 0.20815 0.18897 0.71693 0.0
H487 H 0.25971 0.18598 0.64014 0.0
H488 H 0.329 0.0846 0.72383 0.0
H489 H 0.2978 0.15491 0.68884 0.0
H490 H 0.2165 0.09912 0.71597 0.0
H491 H 0.24891 0.03106 0.75386 0.0
C492 C 0.20046 0.25339 0.68003 0.0
C493 C 0.20949 0.27843 0.65284 0.0
C494 C 0.21408 0.20529 0.69435 0.0
C495 C 0.23643 0.18061 0.6811 0.0
C496 C 0.24353 0.20429 0.65202 0.0
C497 C 0.23069 0.25301 0.63856 0.0
C498 C 0.30446 0.08724 0.72239 0.0
C499 C 0.29173 0.05278 0.74238 0.0
C500 C 0.28625 0.12731 0.7017 0.0
C501 C 0.25443 0.1335 0.69958 0.0
C502 C 0.24106 0.09658 0.71753 0.0
C503 C 0.25953 0.05685 0.73884 0.0
H504 H 0.80135 0.49103 0.21605 0.0
H505 H 0.73933 0.54124 0.2748 0.0
H506 H 0.7649 0.42076 0.18902 0.0
H507 H 0.70219 0.47243 0.24654 0.0
H508 H 0.68772 0.30731 0.13461 0.0
H509 H 0.71407 0.39208 0.15035 0.0
H510 H 0.7047 0.37867 0.25622 0.0
H511 H 0.67795 0.29515 0.24037 0.0
C512 C 0.77958 0.4878 0.22257 0.0
C513 C 0.77351 0.52124 0.24802 0.0
C514 C 0.75851 0.4478 0.20679 0.0
C515 C 0.73082 0.44042 0.21602 0.0
C516 C 0.72361 0.47643 0.23937 0.0
C517 C 0.74473 0.51636 0.25523 0.0
C518 C 0.69093 0.32289 0.16107 0.0
C519 C 0.68093 0.29428 0.18632 0.0
C520 C 0.70613 0.37134 0.17012 0.0
C521 C 0.71152 0.39223 0.20455 0.0
C522 C 0.70052 0.36431 0.22928 0.0
C523 C 0.68542 0.31601 0.22028 0.0
H524 H 0.29195 0.51987 0.25306 0.0
H525 H 0.20936 0.42371 0.21018 0.0
H526 H 0.31625 0.44884 0.29536 0.0
H527 H 0.23365 0.35312 0.25084 0.0
H528 H 0.26915 0.24848 0.34384 0.0
H529 H 0.24864 0.33017 0.31289 0.0
H530 H 0.33773 0.35908 0.29466 0.0
H531 H 0.35867 0.27765 0.3269 0.0
C532 C 0.27903 0.48373 0.25273 0.0
C533 C 0.24894 0.4771 0.22799 0.0
C534 C 0.29297 0.44301 0.27671 0.0
C535 C 0.27684 0.39535 0.27659 0.0
C536 C 0.24659 0.38947 0.25217 0.0
C537 C 0.23282 0.42976 0.22839 0.0
C538 C 0.28449 0.27252 0.33357 0.0
C539 C 0.31532 0.25629 0.33724 0.0
C540 C 0.27272 0.3193 0.31575 0.0
C541 C 0.29134 0.35065 0.30065 0.0
C542 C 0.32281 0.33593 0.30606 0.0
C543 C 0.33475 0.2892 0.32435 0.0
H544 H 0.21778 0.6019 0.74461 0.0
H545 H 0.29612 0.52027 0.72684 0.0
H546 H 0.25332 0.66921 0.77848 0.0
H547 H 0.33204 0.588 0.76087 0.0
H548 H 0.36467 0.76572 0.76456 0.0
H549 H 0.33704 0.68337 0.74482 0.0
H550 H 0.29875 0.68835 0.83303 0.0
H551 H 0.32632 0.77097 0.85283 0.0
C552 C 0.24278 0.59793 0.74871 0.0
C553 C 0.25433 0.55633 0.73307 0.0
C554 C 0.26314 0.63621 0.76824 0.0
C555 C 0.29542 0.63397 0.77213 0.0
C556 C 0.30721 0.59079 0.75803 0.0
C557 C 0.2868 0.55198 0.73883 0.0
C558 C 0.35066 0.74897 0.78001 0.0
C559 C 0.34738 0.77517 0.81 0.0
C560 C 0.33509 0.70151 0.76889 0.0
C561 C 0.31572 0.6795 0.78737 0.0
C562 C 0.31341 0.70462 0.81819 0.0
C563 C 0.32923 0.75187 0.82952 0.0
H564 H 0.7474 0.75336 0.61681 0.0
H565 H 0.69175 0.76257 0.68876 0.0
H566 H 0.76611 0.66656 0.64059 0.0
H567 H 0.71209 0.6779 0.71458 0.0
H568 H 0.7473 0.5204 0.75589 0.0
H569 H 0.7174 0.58748 0.71446 0.0
H570 H 0.80205 0.63323 0.69057 0.0
H571 H 0.83077 0.56407 0.72937 0.0
C572 C 0.73927 0.73676 0.63784 0.0
C573 C 0.71857 0.76505 0.65137 0.0
C574 C 0.75011 0.68707 0.65169 0.0
C575 C 0.74125 0.66512 0.68019 0.0
C576 C 0.71931 0.69271 0.69246 0.0
C577 C 0.70783 0.74177 0.67791 0.0
C578 C 0.75914 0.54369 0.74077 0.0
C579 C 0.79155 0.53763 0.74647 0.0
C580 C 0.74214 0.58283 0.71741 0.0
C581 C 0.75729 0.61704 0.69956 0.0
C582 C 0.78921 0.60794 0.70339 0.0
C583 C 0.80595 0.5685 0.72617 0.0
H584 H 0.46941 0.14798 0.46622 0.0
H585 H 0.4244 0.99639 0.45846 0.0
H586 H 0.51814 0.10971 0.50541 0.0
H587 H 0.47239 0.95846 0.49862 0.0
H588 H 0.57273 0.89337 0.53619 0.0
H589 H 0.52316 0.93214 0.49909 0.0
H590 H 0.54382 0.07388 0.5622 0.0
H591 H 0.59347 0.03615 0.59784 0.0
C592 C 0.46975 0.10682 0.47367 0.0
C593 C 0.44322 0.07517 0.45934 0.0
C594 C 0.49765 0.08472 0.49609 0.0
C595 C 0.4994 0.03066 0.50497 0.0
C596 C 0.47227 0.99978 0.49172 0.0
C597 C 0.44462 1.02169 0.46901 0.0
C598 C 0.56654 0.93275 0.54199 0.0
C599 C 0.58706 0.9618 0.56967 0.0
C600 C 0.53808 0.95498 0.52093 0.0
C601 C 0.52943 1.00642 0.52751 0.0
C602 C 0.54987 0.03478 0.55573 0.0
C603 C 0.57834 1.01291 0.57635 0.0
H604 H 0.56551 0.1565 0.02685 0.0
H605 H 0.58644 1.01359 0.08989 0.0
H606 H 0.51781 0.11571 0.98767 0.0
H607 H 0.53847 0.97408 0.0524 0.0
H608 H 0.46603 0.89874 0.95702 0.0
H609 H 0.51382 0.93786 0.99663 0.0
H610 H 0.46694 0.08875 0.98549 0.0
H611 H 0.41985 0.04983 0.94453 0.0
C612 C 0.55992 0.11647 0.03229 0.0
C613 C 0.57982 0.08821 0.06124 0.0
C614 C 0.53243 0.09318 0.01014 0.0
C615 C 0.52408 0.04148 0.01689 0.0
C616 C 0.54425 1.01345 0.04584 0.0
C617 C 0.57182 0.03634 0.06751 0.0
C618 C 0.46584 0.93998 0.96372 0.0
C619 C 0.4393 0.97124 0.94791 0.0
C620 C 0.49326 0.9626 0.98634 0.0
C621 C 0.49449 1.01681 0.99405 0.0
C622 C 0.46724 0.04731 0.97948 0.0
C623 C 0.44007 1.02486 0.95643 0.0
H624 H 0.09554 0.54841 0.56274 0.0
H625 H 0.05007 0.39695 0.5534 0.0
H626 H 0.04865 0.58643 0.52139 0.0
H627 H 1.00201 0.43576 0.51257 0.0
H628 H 0.93613 0.51044 0.40976 0.0
H629 H 0.98063 0.4699 0.45399 0.0
H630 H 0.9971 0.61426 0.51442 0.0
H631 H 0.95309 0.65564 0.46895 0.0
C632 C 0.0753 0.52322 0.55205 0.0
C633 C 0.07652 0.46957 0.56133 0.0
C634 C 0.04818 0.54528 0.52851 0.0
C635 C 0.02124 0.51454 0.51378 0.0
C636 C 0.0224 0.46064 0.52309 0.0
C637 C 0.04986 0.4383 0.54652 0.0
C638 C 0.94915 0.53357 0.43258 0.0
C639 C 0.94121 0.58646 0.43574 0.0
C640 C 0.9746 0.51005 0.45817 0.0
C641 C 0.99268 0.53862 0.48788 0.0
C642 C 0.98413 0.59123 0.49156 0.0
C643 C 0.9588 0.61499 0.46564 0.0
H644 H 0.10118 0.5133 0.05208 0.0
H645 H 0.05477 0.6559 0.0674 0.0
H646 H 0.05101 0.47551 0.01869 0.0
H647 H 1.00379 0.61721 0.03485 0.0
H648 H 0.92564 0.55191 0.93774 0.0
H649 H 0.97262 0.59183 0.97723 0.0
H650 H 1.00411 0.43943 0.02415 0.0
H651 H 0.95733 0.39888 0.98301 0.0
C652 C 0.08008 0.53658 0.04829 0.0
C653 C 0.08184 0.58767 0.06212 0.0
C654 C 0.0512 0.51458 0.02954 0.0
C655 C 0.02314 0.54278 0.02447 0.0
C656 C 0.02492 0.59438 0.038 0.0
C657 C 0.05407 0.61674 0.05651 0.0
C658 C 0.94236 0.52682 0.95679 0.0
C659 C 0.93795 0.47201 0.95692 0.0
C660 C 0.96931 0.54995 0.97969 0.0
C661 C 0.99252 0.51895 0.00362 0.0
C662 C 0.9871 0.46443 0.00541 0.0
C663 C 0.96015 0.44114 0.98215 0.0
loop_
_geom_bond_atom_site_label_1
_geom_bond_atom_site_label_2
_geom_bond_distance
_geom_bond_site_symmetry_2
_ccdc_geom_bond_type
Co0 N4 2.148 . S
Co0 N10 2.128 . S
Co0 N20 2.194 . S
Co0 O25 2.351 . S
Co0 O26 2.155 . S
Co0 O27 2.096 . S
C1 N4 1.301 . S
C1 N5 1.328 . S
C1 H6 0.930 . S
C2 C3 1.333 . S
C2 N4 1.317 . S
C2 H7 0.930 . S
C3 C2 1.333 . S
C3 N5 1.350 . S
C3 H29 0.931 . S
N4 Co0 2.148 . S
N4 C1 1.301 . S
N4 C2 1.317 . S
N5 C1 1.328 . S
N5 C3 1.350 . S
H6 C1 0.930 . S
H7 C2 0.930 . S
C8 O9 1.224 . S
C8 O27 1.247 . S
O9 C8 1.224 . S
N10 Co0 2.128 . S
N10 C11 1.355 . S
N10 C13 1.311 . S
C11 N10 1.355 . S
C11 C12 1.363 . S
C11 H23 0.929 . S
C12 C11 1.363 . S
C12 N14 1.375 . S
C12 H30 0.931 . S
C13 N10 1.311 . S
C13 N14 1.347 . S
C13 H24 0.929 . S
N14 C12 1.375 . S
N14 C13 1.347 . S
C15 C18 1.365 . S
C15 N20 1.328 1_565 S
C15 H21 0.929 . S
C16 C17 1.362 1_545 S
C16 C19 1.378 . S
C16 H31 0.929 . S
C17 C16 1.362 1_565 S
C17 C18 1.366 . S
C18 C15 1.365 . S
C18 C17 1.366 . S
C18 H32 0.930 . S
C19 C16 1.378 . S
C19 N20 1.315 . S
C19 H22 0.930 . S
N20 Co0 2.194 . S
N20 C15 1.328 1_545 S
N20 C19 1.315 . S
H21 C15 0.929 . S
H22 C19 0.930 . S
H23 C11 0.929 . S
H24 C13 0.929 . S
O25 Co0 2.351 . S
O25 C28 1.244 . S
O26 Co0 2.155 . S
O26 C28 1.240 . S
O27 Co0 2.096 . S
O27 C8 1.247 . S
C28 O25 1.244 . S
C28 O26 1.240 . S
H29 C3 0.931 . S
H30 C12 0.931 . S
H31 C16 0.929 . S
H32 C18 0.930 . S
Co33 N37 2.148 . S
Co33 N43 2.128 . S
Co33 N53 2.194 . S
Co33 O58 2.351 . S
Co33 O59 2.155 . S
Co33 O60 2.096 . S
C34 N37 1.301 . S
C34 N38 1.328 . S
C34 H39 0.930 . S
C35 C36 1.333 . S
C35 N37 1.317 . S
C35 H40 0.930 . S
C36 C35 1.333 . S
C36 N38 1.350 . S
C36 H62 0.931 . S
N37 Co33 2.148 . S
N37 C34 1.301 . S
N37 C35 1.317 . S
N38 C34 1.328 . S
N38 C36 1.350 . S
H39 C34 0.930 . S
H40 C35 0.930 . S
C41 O42 1.224 . S
C41 O60 1.247 . S
O42 C41 1.224 . S
N43 Co33 2.128 . S
N43 C44 1.355 . S
N43 C46 1.311 . S
C44 N43 1.355 . S
C44 C45 1.363 . S
C44 H56 0.929 . S
C45 C44 1.363 . S
C45 N47 1.375 . S
C45 H63 0.931 . S
C46 N43 1.311 . S
C46 N47 1.347 . S
C46 H57 0.929 . S
N47 C45 1.375 . S
N47 C46 1.347 . S
C48 C51 1.365 . S
C48 N53 1.328 1_565 S
C48 H54 0.929 . S
C49 C50 1.362 1_545 S
C49 C52 1.378 . S
C49 H64 0.929 . S
C50 C49 1.362 1_565 S
C50 C51 1.366 . S
C51 C48 1.365 . S
C51 C50 1.366 . S
C51 H65 0.930 . S
C52 C49 1.378 . S
C52 N53 1.315 . S
C52 H55 0.930 . S
N53 Co33 2.194 . S
N53 C48 1.328 1_545 S
N53 C52 1.315 . S
H54 C48 0.929 . S
H55 C52 0.930 . S
H56 C44 0.929 . S
H57 C46 0.929 . S
O58 Co33 2.351 . S
O58 C61 1.244 . S
O59 Co33 2.155 . S
O59 C61 1.240 . S
O60 Co33 2.096 . S
O60 C41 1.247 . S
C61 O58 1.244 . S
C61 O59 1.240 . S
H62 C36 0.931 . S
H63 C45 0.931 . S
H64 C49 0.929 . S
H65 C51 0.930 . S
Co66 N70 2.148 . S
Co66 N76 2.128 . S
Co66 N86 2.194 . S
Co66 O91 2.351 . S
Co66 O92 2.155 . S
Co66 O93 2.096 . S
C67 N70 1.301 . S
C67 N71 1.328 . S
C67 H72 0.930 . S
C68 C69 1.333 . S
C68 N70 1.317 . S
C68 H73 0.930 . S
C69 C68 1.333 . S
C69 N71 1.350 . S
C69 H95 0.931 . S
N70 Co66 2.148 . S
N70 C67 1.301 . S
N70 C68 1.317 . S
N71 C67 1.328 . S
N71 C69 1.350 . S
H72 C67 0.930 . S
H73 C68 0.930 . S
C74 O75 1.224 . S
C74 O93 1.247 . S
O75 C74 1.224 . S
N76 Co66 2.128 . S
N76 C77 1.355 . S
N76 C79 1.311 . S
C77 N76 1.355 . S
C77 C78 1.363 . S
C77 H89 0.929 . S
C78 C77 1.363 . S
C78 N80 1.375 . S
C78 H96 0.931 . S
C79 N76 1.311 . S
C79 N80 1.347 . S
C79 H90 0.929 . S
N80 C78 1.375 . S
N80 C79 1.347 . S
C81 C84 1.365 . S
C81 N86 1.328 1_545 S
C81 H87 0.929 . S
C82 C83 1.362 1_565 S
C82 C85 1.378 . S
C82 H97 0.929 . S
C83 C82 1.362 1_545 S
C83 C84 1.366 . S
C84 C81 1.365 . S
C84 C83 1.366 . S
C84 H98 0.930 . S
C85 C82 1.378 . S
C85 N86 1.315 . S
C85 H88 0.930 . S
N86 Co66 2.194 . S
N86 C81 1.328 1_565 S
N86 C85 1.315 . S
H87 C81 0.929 . S
H88 C85 0.930 . S
H89 C77 0.929 . S
H90 C79 0.929 . S
O91 Co66 2.351 . S
O91 C94 1.244 . S
O92 Co66 2.155 . S
O92 C94 1.240 . S
O93 Co66 2.096 . S
O93 C74 1.247 . S
C94 O91 1.244 . S
C94 O92 1.240 . S
H95 C69 0.931 . S
H96 C78 0.931 . S
H97 C82 0.929 . S
H98 C84 0.930 . S
Co99 N103 2.148 . S
Co99 N109 2.128 . S
Co99 N119 2.194 . S
Co99 O124 2.351 . S
Co99 O125 2.155 . S
Co99 O126 2.096 . S
C100 N103 1.301 . S
C100 N104 1.328 . S
C100 H105 0.930 . S
C101 C102 1.333 . S
C101 N103 1.317 . S
C101 H106 0.930 . S
C102 C101 1.333 . S
C102 N104 1.350 . S
C102 H128 0.931 . S
N103 Co99 2.148 . S
N103 C100 1.301 . S
N103 C101 1.317 . S
N104 C100 1.328 . S
N104 C102 1.350 . S
H105 C100 0.930 . S
H106 C101 0.930 . S
C107 O108 1.224 . S
C107 O126 1.247 . S
O108 C107 1.224 . S
N109 Co99 2.128 . S
N109 C110 1.355 . S
N109 C112 1.311 . S
C110 N109 1.355 . S
C110 C111 1.363 . S
C110 H122 0.929 . S
C111 C110 1.363 . S
C111 N113 1.375 . S
C111 H129 0.931 . S
C112 N109 1.311 . S
C112 N113 1.347 . S
C112 H123 0.929 . S
N113 C111 1.375 . S
N113 C112 1.347 . S
C114 C117 1.365 . S
C114 N119 1.328 1_545 S
C114 H120 0.929 . S
C115 C116 1.362 1_565 S
C115 C118 1.378 . S
C115 H130 0.929 . S
C116 C115 1.362 1_545 S
C116 C117 1.366 . S
C117 C114 1.365 . S
C117 C116 1.366 . S
C117 H131 0.930 . S
C118 C115 1.378 . S
C118 N119 1.315 . S
C118 H121 0.930 . S
N119 Co99 2.194 . S
N119 C114 1.328 1_565 S
N119 C118 1.315 . S
H120 C114 0.929 . S
H121 C118 0.930 . S
H122 C110 0.929 . S
H123 C112 0.929 . S
O124 Co99 2.351 . S
O124 C127 1.244 . S
O125 Co99 2.155 . S
O125 C127 1.240 . S
O126 Co99 2.096 . S
O126 C107 1.247 . S
C127 O124 1.244 . S
C127 O125 1.240 . S
H128 C102 0.931 . S
H129 C111 0.931 . S
H130 C115 0.929 . S
H131 C117 0.930 . S
Co132 N136 2.148 . S
Co132 N142 2.128 . S
Co132 N152 2.194 . S
Co132 O157 2.351 . S
Co132 O158 2.155 . S
Co132 O159 2.096 . S
C133 N136 1.301 . S
C133 N137 1.328 . S
C133 H138 0.930 . S
C134 C135 1.333 . S
C134 N136 1.317 . S
C134 H139 0.930 . S
C135 C134 1.333 . S
C135 N137 1.350 . S
C135 H161 0.931 . S
N136 Co132 2.148 . S
N136 C133 1.301 . S
N136 C134 1.317 . S
N137 C133 1.328 . S
N137 C135 1.350 . S
H138 C133 0.930 . S
H139 C134 0.930 . S
C140 O141 1.224 . S
C140 O159 1.247 . S
O141 C140 1.224 . S
N142 Co132 2.128 . S
N142 C143 1.355 . S
N142 C145 1.311 . S
C143 N142 1.355 . S
C143 C144 1.363 . S
C143 H155 0.929 . S
C144 C143 1.363 . S
C144 N146 1.375 . S
C144 H162 0.931 . S
C145 N142 1.311 . S
C145 N146 1.347 . S
C145 H156 0.929 . S
N146 C144 1.375 . S
N146 C145 1.347 . S
C147 C150 1.365 . S
C147 N152 1.328 . S
C147 H153 0.929 . S
C148 C149 1.362 . S
C148 C151 1.378 . S
C148 H163 0.929 . S
C149 C148 1.362 . S
C149 C150 1.366 . S
C150 C147 1.365 . S
C150 C149 1.366 . S
C150 H164 0.930 . S
C151 C148 1.378 . S
C151 N152 1.315 . S
C151 H154 0.930 . S
N152 Co132 2.194 . S
N152 C147 1.328 . S
N152 C151 1.315 . S
H153 C147 0.929 . S
H154 C151 0.930 . S
H155 C143 0.929 . S
H156 C145 0.929 . S
O157 Co132 2.351 . S
O157 C160 1.244 . S
O158 Co132 2.155 . S
O158 C160 1.240 . S
O159 Co132 2.096 . S
O159 C140 1.247 . S
C160 O157 1.244 . S
C160 O158 1.240 . S
H161 C135 0.931 . S
H162 C144 0.931 . S
H163 C148 0.929 . S
H164 C150 0.930 . S
Co165 N169 2.148 . S
Co165 N175 2.128 . S
Co165 N185 2.194 . S
Co165 O190 2.351 . S
Co165 O191 2.155 . S
Co165 O192 2.096 . S
C166 N169 1.301 . S
C166 N170 1.328 . S
C166 H171 0.930 . S
C167 C168 1.333 . S
C167 N169 1.317 . S
C167 H172 0.930 . S
C168 C167 1.333 . S
C168 N170 1.350 . S
C168 H194 0.931 . S
N169 Co165 2.148 . S
N169 C166 1.301 . S
N169 C167 1.317 . S
N170 C166 1.328 . S
N170 C168 1.350 . S
H171 C166 0.930 . S
H172 C167 0.930 . S
C173 O174 1.224 . S
C173 O192 1.247 . S
O174 C173 1.224 . S
N175 Co165 2.128 . S
N175 C176 1.355 . S
N175 C178 1.311 . S
C176 N175 1.355 . S
C176 C177 1.363 . S
C176 H188 0.929 . S
C177 C176 1.363 . S
C177 N179 1.375 . S
C177 H195 0.931 . S
C178 N175 1.311 . S
C178 N179 1.347 . S
C178 H189 0.929 . S
N179 C177 1.375 . S
N179 C178 1.347 . S
C180 C183 1.365 . S
C180 N185 1.328 . S
C180 H186 0.929 . S
C181 C182 1.362 . S
C181 C184 1.378 . S
C181 H196 0.929 . S
C182 C181 1.362 . S
C182 C183 1.366 . S
C183 C180 1.365 . S
C183 C182 1.366 . S
C183 H197 0.930 . S
C184 C181 1.378 . S
C184 N185 1.315 . S
C184 H187 0.930 . S
N185 Co165 2.194 . S
N185 C180 1.328 . S
N185 C184 1.315 . S
H186 C180 0.929 . S
H187 C184 0.930 . S
H188 C176 0.929 . S
H189 C178 0.929 . S
O190 Co165 2.351 . S
O190 C193 1.244 . S
O191 Co165 2.155 . S
O191 C193 1.240 . S
O192 Co165 2.096 . S
O192 C173 1.247 . S
C193 O190 1.244 . S
C193 O191 1.240 . S
H194 C168 0.931 . S
H195 C177 0.931 . S
H196 C181 0.929 . S
H197 C183 0.930 . S
Co198 N202 2.148 . S
Co198 N208 2.128 . S
Co198 N218 2.194 . S
Co198 O223 2.351 . S
Co198 O224 2.155 . S
Co198 O225 2.096 . S
C199 N202 1.301 . S
C199 N203 1.328 . S
C199 H204 0.930 . S
C200 C201 1.333 . S
C200 N202 1.317 . S
C200 H205 0.930 . S
C201 C200 1.333 . S
C201 N203 1.350 . S
C201 H227 0.931 . S
N202 Co198 2.148 . S
N202 C199 1.301 . S
N202 C200 1.317 . S
N203 C199 1.328 . S
N203 C201 1.350 . S
H204 C199 0.930 . S
H205 C200 0.930 . S
C206 O207 1.224 . S
C206 O225 1.247 . S
O207 C206 1.224 . S
N208 Co198 2.128 . S
N208 C209 1.355 . S
N208 C211 1.311 . S
C209 N208 1.355 . S
C209 C210 1.363 . S
C209 H221 0.929 . S
C210 C209 1.363 . S
C210 N212 1.375 . S
C210 H228 0.931 . S
C211 N208 1.311 . S
C211 N212 1.347 . S
C211 H222 0.929 . S
N212 C210 1.375 . S
N212 C211 1.347 . S
C213 C216 1.365 . S
C213 N218 1.328 . S
C213 H219 0.929 . S
C214 C215 1.362 . S
C214 C217 1.378 . S
C214 H229 0.929 . S
C215 C214 1.362 . S
C215 C216 1.366 . S
C216 C213 1.365 . S
C216 C215 1.366 . S
C216 H230 0.930 . S
C217 C214 1.378 . S
C217 N218 1.315 . S
C217 H220 0.930 . S
N218 Co198 2.194 . S
N218 C213 1.328 . S
N218 C217 1.315 . S
H219 C213 0.929 . S
H220 C217 0.930 . S
H221 C209 0.929 . S
H222 C211 0.929 . S
O223 Co198 2.351 . S
O223 C226 1.244 . S
O224 Co198 2.155 . S
O224 C226 1.240 . S
O225 Co198 2.096 . S
O225 C206 1.247 . S
C226 O223 1.244 . S
C226 O224 1.240 . S
H227 C201 0.931 . S
H228 C210 0.931 . S
H229 C214 0.929 . S
H230 C216 0.930 . S
Co231 N235 2.148 . S
Co231 N241 2.128 . S
Co231 N251 2.194 . S
Co231 O256 2.351 . S
Co231 O257 2.155 . S
Co231 O258 2.096 . S
C232 N235 1.301 . S
C232 N236 1.328 . S
C232 H237 0.930 . S
C233 C234 1.333 . S
C233 N235 1.317 . S
C233 H238 0.930 . S
C234 C233 1.333 . S
C234 N236 1.350 . S
C234 H260 0.931 . S
N235 Co231 2.148 . S
N235 C232 1.301 . S
N235 C233 1.317 . S
N236 C232 1.328 . S
N236 C234 1.350 . S
H237 C232 0.930 . S
H238 C233 0.930 . S
C239 O240 1.224 . S
C239 O258 1.247 . S
O240 C239 1.224 . S
N241 Co231 2.128 . S
N241 C242 1.355 . S
N241 C244 1.311 . S
C242 N241 1.355 . S
C242 C243 1.363 . S
C242 H254 0.929 . S
C243 C242 1.363 . S
C243 N245 1.375 . S
C243 H261 0.931 . S
C244 N241 1.311 . S
C244 N245 1.347 . S
C244 H255 0.929 . S
N245 C243 1.375 . S
N245 C244 1.347 . S
C246 C249 1.365 . S
C246 N251 1.328 . S
C246 H252 0.929 . S
C247 C248 1.362 . S
C247 C250 1.378 . S
C247 H262 0.929 . S
C248 C247 1.362 . S
C248 C249 1.366 . S
C249 C246 1.365 . S
C249 C248 1.366 . S
C249 H263 0.930 . S
C250 C247 1.378 . S
C250 N251 1.315 . S
C250 H253 0.930 . S
N251 Co231 2.194 . S
N251 C246 1.328 . S
N251 C250 1.315 . S
H252 C246 0.929 . S
H253 C250 0.930 . S
H254 C242 0.929 . S
H255 C244 0.929 . S
O256 Co231 2.351 . S
O256 C259 1.244 . S
O257 Co231 2.155 . S
O257 C259 1.240 . S
O258 Co231 2.096 . S
O258 C239 1.247 . S
C259 O256 1.244 . S
C259 O257 1.240 . S
H260 C234 0.931 . S
H261 C243 0.931 . S
H262 C247 0.929 . S
H263 C249 0.930 . S
H264 C272 0.950 . S
H265 C277 0.950 . S
H266 C274 0.950 . S
H267 C276 0.950 . S
H268 C278 0.950 . S
H269 C280 0.950 . S
H270 C282 0.950 . S
H271 C283 0.950 . S
C272 H264 0.950 . S
C272 C273 1.386 . S
C272 C274 1.391 . S
C273 C272 1.386 . S
C273 C277 1.393 . S
C274 H266 0.950 . S
C274 C272 1.391 . S
C274 C275 1.400 . S
C275 C274 1.400 . S
C275 C276 1.398 . S
C275 C281 1.491 . S
C276 H267 0.950 . S
C276 C275 1.398 . S
C276 C277 1.391 . S
C277 H265 0.950 . S
C277 C273 1.393 . S
C277 C276 1.391 . S
C278 H268 0.950 . S
C278 C279 1.386 . S
C278 C280 1.391 . S
C279 C278 1.386 . S
C279 C283 1.393 . S
C280 H269 0.950 . S
C280 C278 1.391 . S
C280 C281 1.400 . S
C281 C275 1.491 . S
C281 C280 1.400 . S
C281 C282 1.398 . S
C282 H270 0.950 . S
C282 C281 1.398 . S
C282 C283 1.391 . S
C283 H271 0.950 . S
C283 C279 1.393 . S
C283 C282 1.391 . S
H284 C292 0.950 . S
H285 C297 0.950 . S
H286 C294 0.950 1_556 S
H287 C296 0.950 . S
H288 C298 0.950 . S
H289 C300 0.950 1_554 S
H290 C302 0.950 . S
H291 C303 0.950 . S
C292 H284 0.950 . S
C292 C293 1.386 . S
C292 C294 1.391 . S
C293 C292 1.386 . S
C293 C297 1.393 . S
C294 H286 0.950 1_554 S
C294 C292 1.391 . S
C294 C295 1.400 . S
C295 C294 1.400 . S
C295 C296 1.398 . S
C295 C301 1.491 1_554 S
C296 H287 0.950 . S
C296 C295 1.398 . S
C296 C297 1.391 . S
C297 H285 0.950 . S
C297 C293 1.393 . S
C297 C296 1.391 . S
C298 H288 0.950 . S
C298 C299 1.386 . S
C298 C300 1.391 . S
C299 C298 1.386 . S
C299 C303 1.393 . S
C300 H289 0.950 1_556 S
C300 C298 1.391 . S
C300 C301 1.400 . S
C301 C295 1.491 1_556 S
C301 C300 1.400 . S
C301 C302 1.398 . S
C302 H290 0.950 . S
C302 C301 1.398 . S
C302 C303 1.391 . S
C303 H291 0.950 . S
C303 C299 1.393 . S
C303 C302 1.391 . S
H304 C312 0.950 . S
H305 C317 0.950 . S
H306 C314 0.950 . S
H307 C316 0.950 . S
H308 C318 0.950 . S
H309 C320 0.950 . S
H310 C322 0.950 . S
H311 C323 0.950 . S
C312 H304 0.950 . S
C312 C313 1.386 . S
C312 C314 1.391 . S
C313 C312 1.386 . S
C313 C317 1.393 . S
C314 H306 0.950 . S
C314 C312 1.391 . S
C314 C315 1.400 . S
C315 C314 1.400 . S
C315 C316 1.398 . S
C315 C321 1.491 . S
C316 H307 0.950 . S
C316 C315 1.398 . S
C316 C317 1.391 . S
C317 H305 0.950 . S
C317 C313 1.393 . S
C317 C316 1.391 . S
C318 H308 0.950 . S
C318 C319 1.386 . S
C318 C320 1.391 . S
C319 C318 1.386 . S
C319 C323 1.393 . S
C320 H309 0.950 . S
C320 C318 1.391 . S
C320 C321 1.400 . S
C321 C315 1.491 . S
C321 C320 1.400 . S
C321 C322 1.398 . S
C322 H310 0.950 . S
C322 C321 1.398 . S
C322 C323 1.391 . S
C323 H311 0.950 . S
C323 C319 1.393 . S
C323 C322 1.391 . S
H324 C332 0.950 . S
H325 C337 0.950 . S
H326 C334 0.950 . S
H327 C336 0.950 1_554 S
H328 C338 0.950 . S
H329 C340 0.950 . S
H330 C342 0.950 1_556 S
H331 C343 0.950 . S
C332 H324 0.950 . S
C332 C333 1.386 . S
C332 C334 1.391 . S
C333 C332 1.386 . S
C333 C337 1.393 . S
C334 H326 0.950 . S
C334 C332 1.391 . S
C334 C335 1.400 . S
C335 C334 1.400 . S
C335 C336 1.398 . S
C335 C341 1.491 1_556 S
C336 H327 0.950 1_556 S
C336 C335 1.398 . S
C336 C337 1.391 . S
C337 H325 0.950 . S
C337 C333 1.393 . S
C337 C336 1.391 . S
C338 H328 0.950 . S
C338 C339 1.386 . S
C338 C340 1.391 . S
C339 C338 1.386 . S
C339 C343 1.393 . S
C340 H329 0.950 . S
C340 C338 1.391 . S
C340 C341 1.400 . S
C341 C335 1.491 1_554 S
C341 C340 1.400 . S
C341 C342 1.398 . S
C342 H330 0.950 1_554 S
C342 C341 1.398 . S
C342 C343 1.391 . S
C343 H331 0.950 . S
C343 C339 1.393 . S
C343 C342 1.391 . S
H344 C352 0.950 1_565 S
H345 C357 0.950 . S
H346 C354 0.950 1_565 S
H347 C356 0.950 . S
H348 C358 0.950 . S
H349 C360 0.950 . S
H350 C362 0.950 1_565 S
H351 C363 0.950 1_565 S
C352 H344 0.950 1_545 S
C352 C353 1.386 . S
C352 C354 1.391 . S
C353 C352 1.386 . S
C353 C357 1.393 . S
C354 H346 0.950 1_545 S
C354 C352 1.391 . S
C354 C355 1.400 . S
C355 C354 1.400 . S
C355 C356 1.398 . S
C355 C361 1.491 . S
C356 H347 0.950 . S
C356 C355 1.398 . S
C356 C357 1.391 . S
C357 H345 0.950 . S
C357 C353 1.393 . S
C357 C356 1.391 . S
C358 H348 0.950 . S
C358 C359 1.386 . S
C358 C360 1.391 . S
C359 C358 1.386 . S
C359 C363 1.393 . S
C360 H349 0.950 . S
C360 C358 1.391 . S
C360 C361 1.400 . S
C361 C355 1.491 . S
C361 C360 1.400 . S
C361 C362 1.398 . S
C362 H350 0.950 1_545 S
C362 C361 1.398 . S
C362 C363 1.391 . S
C363 H351 0.950 1_545 S
C363 C359 1.393 . S
C363 C362 1.391 . S
H364 C372 0.950 . S
H365 C377 0.950 1_545 S
H366 C374 0.950 . S
H367 C376 0.950 1_545 S
H368 C378 0.950 1_545 S
H369 C380 0.950 1_545 S
H370 C382 0.950 . S
H371 C383 0.950 . S
C372 H364 0.950 . S
C372 C373 1.386 . S
C372 C374 1.391 . S
C373 C372 1.386 . S
C373 C377 1.393 . S
C374 H366 0.950 . S
C374 C372 1.391 . S
C374 C375 1.400 . S
C375 C374 1.400 . S
C375 C376 1.398 . S
C375 C381 1.491 . S
C376 H367 0.950 1_565 S
C376 C375 1.398 . S
C376 C377 1.391 . S
C377 H365 0.950 1_565 S
C377 C373 1.393 . S
C377 C376 1.391 . S
C378 H368 0.950 1_565 S
C378 C379 1.386 . S
C378 C380 1.391 . S
C379 C378 1.386 . S
C379 C383 1.393 . S
C380 H369 0.950 1_565 S
C380 C378 1.391 . S
C380 C381 1.400 . S
C381 C375 1.491 . S
C381 C380 1.400 . S
C381 C382 1.398 . S
C382 H370 0.950 . S
C382 C381 1.398 . S
C382 C383 1.391 . S
C383 H371 0.950 . S
C383 C379 1.393 . S
C383 C382 1.391 . S
H384 C392 0.950 . S
H385 C397 0.950 . S
H386 C394 0.950 . S
H387 C396 0.950 1_655 S
H388 C398 0.950 . S
H389 C400 0.950 . S
H390 C402 0.950 1_455 S
H391 C403 0.950 . S
C392 H384 0.950 . S
C392 C393 1.386 . S
C392 C394 1.391 . S
C393 C392 1.386 . S
C393 C397 1.393 . S
C394 H386 0.950 . S
C394 C392 1.391 . S
C394 C395 1.400 . S
C395 C394 1.400 . S
C395 C396 1.398 . S
C395 C401 1.491 1_455 S
C396 H387 0.950 1_455 S
C396 C395 1.398 . S
C396 C397 1.391 . S
C397 H385 0.950 . S
C397 C393 1.393 . S
C397 C396 1.391 . S
C398 H388 0.950 . S
C398 C399 1.386 . S
C398 C400 1.391 . S
C399 C398 1.386 . S
C399 C403 1.393 . S
C400 H389 0.950 . S
C400 C398 1.391 . S
C400 C401 1.400 . S
C401 C395 1.491 1_655 S
C401 C400 1.400 . S
C401 C402 1.398 . S
C402 H390 0.950 1_655 S
C402 C401 1.398 . S
C402 C403 1.391 . S
C403 H391 0.950 . S
C403 C399 1.393 . S
C403 C402 1.391 . S
H404 C412 0.950 . S
H405 C417 0.950 . S
H406 C414 0.950 1_655 S
H407 C416 0.950 . S
H408 C418 0.950 . S
H409 C420 0.950 1_455 S
H410 C422 0.950 . S
H411 C423 0.950 . S
C412 H404 0.950 . S
C412 C413 1.386 . S
C412 C414 1.391 . S
C413 C412 1.386 . S
C413 C417 1.393 . S
C414 H406 0.950 1_455 S
C414 C412 1.391 . S
C414 C415 1.400 . S
C415 C414 1.400 . S
C415 C416 1.398 . S
C415 C421 1.491 1_455 S
C416 H407 0.950 . S
C416 C415 1.398 . S
C416 C417 1.391 . S
C417 H405 0.950 . S
C417 C413 1.393 . S
C417 C416 1.391 . S
C418 H408 0.950 . S
C418 C419 1.386 . S
C418 C420 1.391 . S
C419 C418 1.386 . S
C419 C423 1.393 . S
C420 H409 0.950 1_655 S
C420 C418 1.391 . S
C420 C421 1.400 . S
C421 C415 1.491 1_655 S
C421 C420 1.400 . S
C421 C422 1.398 . S
C422 H410 0.950 . S
C422 C421 1.398 . S
C422 C423 1.391 . S
C423 H411 0.950 . S
C423 C419 1.393 . S
C423 C422 1.391 . S
H424 C432 0.950 . S
H425 C437 0.950 . S
H426 C434 0.950 . S
H427 C436 0.950 . S
H428 C438 0.950 . S
H429 C440 0.950 . S
H430 C442 0.950 . S
H431 C443 0.950 . S
C432 H424 0.950 . S
C432 C433 1.386 . S
C432 C434 1.391 . S
C433 C432 1.386 . S
C433 C437 1.393 . S
C434 H426 0.950 . S
C434 C432 1.391 . S
C434 C435 1.400 . S
C435 C434 1.400 . S
C435 C436 1.398 . S
C435 C441 1.491 . S
C436 H427 0.950 . S
C436 C435 1.398 . S
C436 C437 1.391 . S
C437 H425 0.950 . S
C437 C433 1.393 . S
C437 C436 1.391 . S
C438 H428 0.950 . S
C438 C439 1.386 . S
C438 C440 1.391 . S
C439 C438 1.386 . S
C439 C443 1.393 . S
C440 H429 0.950 . S
C440 C438 1.391 . S
C440 C441 1.400 . S
C441 C435 1.491 . S
C441 C440 1.400 . S
C441 C442 1.398 . S
C442 H430 0.950 . S
C442 C441 1.398 . S
C442 C443 1.391 . S
C443 H431 0.950 . S
C443 C439 1.393 . S
C443 C442 1.391 . S
H444 C452 0.950 . S
H445 C457 0.950 . S
H446 C454 0.950 . S
H447 C456 0.950 . S
H448 C458 0.950 . S
H449 C460 0.950 . S
H450 C462 0.950 . S
H451 C463 0.950 . S
C452 H444 0.950 . S
C452 C453 1.386 . S
C452 C454 1.391 . S
C453 C452 1.386 . S
C453 C457 1.393 . S
C454 H446 0.950 . S
C454 C452 1.391 . S
C454 C455 1.400 . S
C455 C454 1.400 . S
C455 C456 1.398 . S
C455 C461 1.491 . S
C456 H447 0.950 . S
C456 C455 1.398 . S
C456 C457 1.391 . S
C457 H445 0.950 . S
C457 C453 1.393 . S
C457 C456 1.391 . S
C458 H448 0.950 . S
C458 C459 1.386 . S
C458 C460 1.391 . S
C459 C458 1.386 . S
C459 C463 1.393 . S
C460 H449 0.950 . S
C460 C458 1.391 . S
C460 C461 1.400 . S
C461 C455 1.491 . S
C461 C460 1.400 . S
C461 C462 1.398 . S
C462 H450 0.950 . S
C462 C461 1.398 . S
C462 C463 1.391 . S
C463 H451 0.950 . S
C463 C459 1.393 . S
C463 C462 1.391 . S
H464 C472 0.950 . S
H465 C477 0.950 . S
H466 C474 0.950 . S
H467 C476 0.950 . S
H468 C478 0.950 . S
H469 C480 0.950 . S
H470 C482 0.950 . S
H471 C483 0.950 . S
C472 H464 0.950 . S
C472 C473 1.386 . S
C472 C474 1.391 . S
C473 C472 1.386 . S
C473 C477 1.393 . S
C474 H466 0.950 . S
C474 C472 1.391 . S
C474 C475 1.400 . S
C475 C474 1.400 . S
C475 C476 1.398 . S
C475 C481 1.491 . S
C476 H467 0.950 . S
C476 C475 1.398 . S
C476 C477 1.391 . S
C477 H465 0.950 . S
C477 C473 1.393 . S
C477 C476 1.391 . S
C478 H468 0.950 . S
C478 C479 1.386 . S
C478 C480 1.391 . S
C479 C478 1.386 . S
C479 C483 1.393 . S
C480 H469 0.950 . S
C480 C478 1.391 . S
C480 C481 1.400 . S
C481 C475 1.491 . S
C481 C480 1.400 . S
C481 C482 1.398 . S
C482 H470 0.950 . S
C482 C481 1.398 . S
C482 C483 1.391 . S
C483 H471 0.950 . S
C483 C479 1.393 . S
C483 C482 1.391 . S
H484 C492 0.950 . S
H485 C497 0.950 . S
H486 C494 0.950 . S
H487 C496 0.950 . S
H488 C498 0.950 . S
H489 C500 0.950 . S
H490 C502 0.950 . S
H491 C503 0.950 . S
C492 H484 0.950 . S
C492 C493 1.386 . S
C492 C494 1.391 . S
C493 C492 1.386 . S
C493 C497 1.393 . S
C494 H486 0.950 . S
C494 C492 1.391 . S
C494 C495 1.400 . S
C495 C494 1.400 . S
C495 C496 1.398 . S
C495 C501 1.491 . S
C496 H487 0.950 . S
C496 C495 1.398 . S
C496 C497 1.391 . S
C497 H485 0.950 . S
C497 C493 1.393 . S
C497 C496 1.391 . S
C498 H488 0.950 . S
C498 C499 1.386 . S
C498 C500 1.391 . S
C499 C498 1.386 . S
C499 C503 1.393 . S
C500 H489 0.950 . S
C500 C498 1.391 . S
C500 C501 1.400 . S
C501 C495 1.491 . S
C501 C500 1.400 . S
C501 C502 1.398 . S
C502 H490 0.950 . S
C502 C501 1.398 . S
C502 C503 1.391 . S
C503 H491 0.950 . S
C503 C499 1.393 . S
C503 C502 1.391 . S
H504 C512 0.950 . S
H505 C517 0.950 . S
H506 C514 0.950 . S
H507 C516 0.950 . S
H508 C518 0.950 . S
H509 C520 0.950 . S
H510 C522 0.950 . S
H511 C523 0.950 . S
C512 H504 0.950 . S
C512 C513 1.386 . S
C512 C514 1.391 . S
C513 C512 1.386 . S
C513 C517 1.393 . S
C514 H506 0.950 . S
C514 C512 1.391 . S
C514 C515 1.400 . S
C515 C514 1.400 . S
C515 C516 1.398 . S
C515 C521 1.491 . S
C516 H507 0.950 . S
C516 C515 1.398 . S
C516 C517 1.391 . S
C517 H505 0.950 . S
C517 C513 1.393 . S
C517 C516 1.391 . S
C518 H508 0.950 . S
C518 C519 1.386 . S
C518 C520 1.391 . S
C519 C518 1.386 . S
C519 C523 1.393 . S
C520 H509 0.950 . S
C520 C518 1.391 . S
C520 C521 1.400 . S
C521 C515 1.491 . S
C521 C520 1.400 . S
C521 C522 1.398 . S
C522 H510 0.950 . S
C522 C521 1.398 . S
C522 C523 1.391 . S
C523 H511 0.950 . S
C523 C519 1.393 . S
C523 C522 1.391 . S
H524 C532 0.950 . S
H525 C537 0.950 . S
H526 C534 0.950 . S
H527 C536 0.950 . S
H528 C538 0.950 . S
H529 C540 0.950 . S
H530 C542 0.950 . S
H531 C543 0.950 . S
C532 H524 0.950 . S
C532 C533 1.386 . S
C532 C534 1.391 . S
C533 C532 1.386 . S
C533 C537 1.393 . S
C534 H526 0.950 . S
C534 C532 1.391 . S
C534 C535 1.400 . S
C535 C534 1.400 . S
C535 C536 1.398 . S
C535 C541 1.491 . S
C536 H527 0.950 . S
C536 C535 1.398 . S
C536 C537 1.391 . S
C537 H525 0.950 . S
C537 C533 1.393 . S
C537 C536 1.391 . S
C538 H528 0.950 . S
C538 C539 1.386 . S
C538 C540 1.391 . S
C539 C538 1.386 . S
C539 C543 1.393 . S
C540 H529 0.950 . S
C540 C538 1.391 . S
C540 C541 1.400 . S
C541 C535 1.491 . S
C541 C540 1.400 . S
C541 C542 1.398 . S
C542 H530 0.950 . S
C542 C541 1.398 . S
C542 C543 1.391 . S
C543 H531 0.950 . S
C543 C539 1.393 . S
C543 C542 1.391 . S
H544 C552 0.950 . S
H545 C557 0.950 . S
H546 C554 0.950 . S
H547 C556 0.950 . S
H548 C558 0.950 . S
H549 C560 0.950 . S
H550 C562 0.950 . S
H551 C563 0.950 . S
C552 H544 0.950 . S
C552 C553 1.386 . S
C552 C554 1.391 . S
C553 C552 1.386 . S
C553 C557 1.393 . S
C554 H546 0.950 . S
C554 C552 1.391 . S
C554 C555 1.400 . S
C555 C554 1.400 . S
C555 C556 1.398 . S
C555 C561 1.491 . S
C556 H547 0.950 . S
C556 C555 1.398 . S
C556 C557 1.391 . S
C557 H545 0.950 . S
C557 C553 1.393 . S
C557 C556 1.391 . S
C558 H548 0.950 . S
C558 C559 1.386 . S
C558 C560 1.391 . S
C559 C558 1.386 . S
C559 C563 1.393 . S
C560 H549 0.950 . S
C560 C558 1.391 . S
C560 C561 1.400 . S
C561 C555 1.491 . S
C561 C560 1.400 . S
C561 C562 1.398 . S
C562 H550 0.950 . S
C562 C561 1.398 . S
C562 C563 1.391 . S
C563 H551 0.950 . S
C563 C559 1.393 . S
C563 C562 1.391 . S
H564 C572 0.950 . S
H565 C577 0.950 . S
H566 C574 0.950 . S
H567 C576 0.950 . S
H568 C578 0.950 . S
H569 C580 0.950 . S
H570 C582 0.950 . S
H571 C583 0.950 . S
C572 H564 0.950 . S
C572 C573 1.386 . S
C572 C574 1.391 . S
C573 C572 1.386 . S
C573 C577 1.393 . S
C574 H566 0.950 . S
C574 C572 1.391 . S
C574 C575 1.400 . S
C575 C574 1.400 . S
C575 C576 1.398 . S
C575 C581 1.491 . S
C576 H567 0.950 . S
C576 C575 1.398 . S
C576 C577 1.391 . S
C577 H565 0.950 . S
C577 C573 1.393 . S
C577 C576 1.391 . S
C578 H568 0.950 . S
C578 C579 1.386 . S
C578 C580 1.391 . S
C579 C578 1.386 . S
C579 C583 1.393 . S
C580 H569 0.950 . S
C580 C578 1.391 . S
C580 C581 1.400 . S
C581 C575 1.491 . S
C581 C580 1.400 . S
C581 C582 1.398 . S
C582 H570 0.950 . S
C582 C581 1.398 . S
C582 C583 1.391 . S
C583 H571 0.950 . S
C583 C579 1.393 . S
C583 C582 1.391 . S
H584 C592 0.950 . S
H585 C597 0.950 . S
H586 C594 0.950 1_565 S
H587 C596 0.950 . S
H588 C598 0.950 . S
H589 C600 0.950 1_545 S
H590 C602 0.950 . S
H591 C603 0.950 . S
C592 H584 0.950 . S
C592 C593 1.386 . S
C592 C594 1.391 . S
C593 C592 1.386 . S
C593 C597 1.393 . S
C594 H586 0.950 1_545 S
C594 C592 1.391 . S
C594 C595 1.400 . S
C595 C594 1.400 . S
C595 C596 1.398 . S
C595 C601 1.491 1_545 S
C596 H587 0.950 . S
C596 C595 1.398 . S
C596 C597 1.391 . S
C597 H585 0.950 . S
C597 C593 1.393 . S
C597 C596 1.391 . S
C598 H588 0.950 . S
C598 C599 1.386 . S
C598 C600 1.391 . S
C599 C598 1.386 . S
C599 C603 1.393 . S
C600 H589 0.950 1_565 S
C600 C598 1.391 . S
C600 C601 1.400 . S
C601 C595 1.491 1_565 S
C601 C600 1.400 . S
C601 C602 1.398 . S
C602 H590 0.950 . S
C602 C601 1.398 . S
C602 C603 1.391 . S
C603 H591 0.950 . S
C603 C599 1.393 . S
C603 C602 1.391 . S
H604 C612 0.950 . S
H605 C617 0.950 . S
H606 C614 0.950 . S
H607 C616 0.950 . S
H608 C618 0.950 . S
H609 C620 0.950 . S
H610 C622 0.950 . S
H611 C623 0.950 . S
C612 H604 0.950 . S
C612 C613 1.386 . S
C612 C614 1.391 . S
C613 C612 1.386 . S
C613 C617 1.393 . S
C614 H606 0.950 . S
C614 C612 1.391 . S
C614 C615 1.400 . S
C615 C614 1.400 . S
C615 C616 1.398 1_545 S
C615 C621 1.491 1_544 S
C616 H607 0.950 . S
C616 C615 1.398 1_565 S
C616 C617 1.391 1_565 S
C617 H605 0.950 . S
C617 C613 1.393 . S
C617 C616 1.391 1_545 S
C618 H608 0.950 . S
C618 C619 1.386 . S
C618 C620 1.391 . S
C619 C618 1.386 . S
C619 C623 1.393 . S
C620 H609 0.950 . S
C620 C618 1.391 . S
C620 C621 1.400 . S
C621 C615 1.491 1_566 S
C621 C620 1.400 . S
C621 C622 1.398 1_565 S
C622 H610 0.950 . S
C622 C621 1.398 1_545 S
C622 C623 1.391 1_545 S
C623 H611 0.950 . S
C623 C619 1.393 . S
C623 C622 1.391 1_565 S
H624 C632 0.950 . S
H625 C637 0.950 . S
H626 C634 0.950 . S
H627 C636 0.950 . S
H628 C638 0.950 . S
H629 C640 0.950 . S
H630 C642 0.950 . S
H631 C643 0.950 . S
C632 H624 0.950 . S
C632 C633 1.386 . S
C632 C634 1.391 . S
C633 C632 1.386 . S
C633 C637 1.393 . S
C634 H626 0.950 . S
C634 C632 1.391 . S
C634 C635 1.400 . S
C635 C634 1.400 . S
C635 C636 1.398 . S
C635 C641 1.491 1_455 S
C636 H627 0.950 . S
C636 C635 1.398 . S
C636 C637 1.391 . S
C637 H625 0.950 . S
C637 C633 1.393 . S
C637 C636 1.391 . S
C638 H628 0.950 . S
C638 C639 1.386 . S
C638 C640 1.391 . S
C639 C638 1.386 . S
C639 C643 1.393 . S
C640 H629 0.950 . S
C640 C638 1.391 . S
C640 C641 1.400 . S
C641 C635 1.491 1_655 S
C641 C640 1.400 . S
C641 C642 1.398 . S
C642 H630 0.950 . S
C642 C641 1.398 . S
C642 C643 1.391 . S
C643 H631 0.950 . S
C643 C639 1.393 . S
C643 C642 1.391 . S
H644 C652 0.950 . S
H645 C657 0.950 . S
H646 C654 0.950 . S
H647 C656 0.950 1_655 S
H648 C658 0.950 . S
H649 C660 0.950 . S
H650 C662 0.950 1_455 S
H651 C663 0.950 . S
C652 H644 0.950 . S
C652 C653 1.386 . S
C652 C654 1.391 . S
C653 C652 1.386 . S
C653 C657 1.393 . S
C654 H646 0.950 . S
C654 C652 1.391 . S
C654 C655 1.400 . S
C655 C654 1.400 . S
C655 C656 1.398 . S
C655 C661 1.491 1_454 S
C656 H647 0.950 1_455 S
C656 C655 1.398 . S
C656 C657 1.391 . S
C657 H645 0.950 . S
C657 C653 1.393 . S
C657 C656 1.391 . S
C658 H648 0.950 . S
C658 C659 1.386 . S
C658 C660 1.391 . S
C659 C658 1.386 . S
C659 C663 1.393 . S
C660 H649 0.950 . S
C660 C658 1.391 . S
C660 C661 1.400 . S
C661 C655 1.491 1_656 S
C661 C660 1.400 . S
C661 C662 1.398 . S
C662 H650 0.950 1_655 S
C662 C661 1.398 . S
C662 C663 1.391 . S
C663 H651 0.950 . S
C663 C659 1.393 . S
C663 C662 1.391 . S
C273 N212 2.045 . S
C279 N14 2.045 . S
C293 N47 2.053 . S
C299 N245 2.053 . S
C313 N80 2.043 . S
C319 N146 2.043 . S
C333 N113 2.051 . S
C339 N179 2.051 . S
C353 N38 1.481 . S
C359 N5 1.474 . S
C373 N71 1.480 . S
C379 N104 1.476 . S
C393 N170 1.466 . S
C399 N137 1.490 . S
C413 N203 1.465 . S
C419 N236 1.490 . S
C433 C173 1.108 . S
C439 C17 1.109 . S
C453 C50 1.122 . S
C459 C140 1.111 . S
C473 C83 1.120 . S
C479 C239 1.115 . S
C493 C206 1.117 . S
C499 C116 1.119 . S
C513 C149 1.122 . S
C519 C41 1.109 . S
C533 C182 1.112 . S
C539 C8 1.095 . S
C553 C215 1.111 . S
C559 C107 1.096 . S
C573 C74 1.095 . S
C579 C248 1.112 . S
C593 C28 1.378 . S
C599 C94 1.378 . S
C613 C61 1.373 . S
C619 C127 1.373 . S
C633 C226 1.366 . S
C639 C160 1.366 . S
C653 C193 1.367 . S
C659 C259 1.367 . S
