# Generated by pormake.
# Topology unb, (4)-cn, num edge types: 1
# Building blocks:
#     Node 0, Type 0, BuildingBlock: UXUYUI_clean_sbu_0, # of connection points: 4
#     Node 1, Type 0, BuildingBlock: UXUYUI_clean_sbu_0, # of connection points: 4
#     Node 2, Type 0, BuildingBlock: UXUYUI_clean_sbu_0, # of connection points: 4
#     Node 3, Type 0, BuildingBlock: UXUYUI_clean_sbu_0, # of connection points: 4
#     Node 4, Type 0, BuildingBlock: UXUYUI_clean_sbu_0, # of connection points: 4
#     Node 5, Type 0, BuildingBlock: UXUYUI_clean_sbu_0, # of connection points: 4
#     Node 6, Type 0, BuildingBlock: UXUYUI_clean_sbu_0, # of connection points: 4
#     Node 7, Type 0, BuildingBlock: UXUYUI_clean_sbu_0, # of connection points: 4
#     Node 8, Type 0, BuildingBlock: UXUYUI_clean_sbu_0, # of connection points: 4
#     Node 9, Type 0, BuildingBlock: UXUYUI_clean_sbu_0, # of connection points: 4
#     Node 10, Type 0, BuildingBlock: UXUYUI_clean_sbu_0, # of connection points: 4
#     Node 11, Type 0, BuildingBlock: UXUYUI_clean_sbu_0, # of connection points: 4
#     Node 12, Type 0, BuildingBlock: UXUYUI_clean_sbu_0, # of connection points: 4
#     Node 13, Type 0, BuildingBlock: UXUYUI_clean_sbu_0, # of connection points: 4
#     Node 14, Type 0, BuildingBlock: UXUYUI_clean_sbu_0, # of connection points: 4
#     Node 15, Type 0, BuildingBlock: UXUYUI_clean_sbu_0, # of connection points: 4
#     Node 16, Type 0, BuildingBlock: UXUYUI_clean_sbu_0, # of connection points: 4
#     Node 17, Type 0, BuildingBlock: UXUYUI_clean_sbu_0, # of connection points: 4
#     Edge 18, Type (0, 0), BuildingBlock: EZIPEK_clean_linker_0, # of connection points: 2
#     Edge 19, Type (0, 0), BuildingBlock: EZIPEK_clean_linker_0, # of connection points: 2
#     Edge 20, Type (0, 0), BuildingBlock: EZIPEK_clean_linker_0, # of connection points: 2
#     Edge 21, Type (0, 0), BuildingBlock: EZIPEK_clean_linker_0, # of connection points: 2
#     Edge 22, Type (0, 0), BuildingBlock: EZIPEK_clean_linker_0, # of connection points: 2
#     Edge 23, Type (0, 0), BuildingBlock: EZIPEK_clean_linker_0, # of connection points: 2
#     Edge 24, Type (0, 0), BuildingBlock: EZIPEK_clean_linker_0, # of connection points: 2
#     Edge 25, Type (0, 0), BuildingBlock: EZIPEK_clean_linker_0, # of connection points: 2
#     Edge 26, Type (0, 0), BuildingBlock: EZIPEK_clean_linker_0, # of connection points: 2
#     Edge 27, Type (0, 0), BuildingBlock: EZIPEK_clean_linker_0, # of connection points: 2
#     Edge 28, Type (0, 0), BuildingBlock: EZIPEK_clean_linker_0, # of connection points: 2
#     Edge 29, Type (0, 0), BuildingBlock: EZIPEK_clean_linker_0, # of connection points: 2
#     Edge 30, Type (0, 0), BuildingBlock: EZIPEK_clean_linker_0, # of connection points: 2
#     Edge 31, Type (0, 0), BuildingBlock: EZIPEK_clean_linker_0, # of connection points: 2
#     Edge 32, Type (0, 0), BuildingBlock: EZIPEK_clean_linker_0, # of connection points: 2
#     Edge 33, Type (0, 0), BuildingBlock: EZIPEK_clean_linker_0, # of connection points: 2
#     Edge 34, Type (0, 0), BuildingBlock: EZIPEK_clean_linker_0, # of connection points: 2
#     Edge 35, Type (0, 0), BuildingBlock: EZIPEK_clean_linker_0, # of connection points: 2
#     Edge 36, Type (0, 0), BuildingBlock: EZIPEK_clean_linker_0, # of connection points: 2
#     Edge 37, Type (0, 0), BuildingBlock: EZIPEK_clean_linker_0, # of connection points: 2
#     Edge 38, Type (0, 0), BuildingBlock: EZIPEK_clean_linker_0, # of connection points: 2
#     Edge 39, Type (0, 0), BuildingBlock: EZIPEK_clean_linker_0, # of connection points: 2
#     Edge 40, Type (0, 0), BuildingBlock: EZIPEK_clean_linker_0, # of connection points: 2
#     Edge 41, Type (0, 0), BuildingBlock: EZIPEK_clean_linker_0, # of connection points: 2
#     Edge 42, Type (0, 0), BuildingBlock: EZIPEK_clean_linker_0, # of connection points: 2
#     Edge 43, Type (0, 0), BuildingBlock: EZIPEK_clean_linker_0, # of connection points: 2
#     Edge 44, Type (0, 0), BuildingBlock: EZIPEK_clean_linker_0, # of connection points: 2
#     Edge 45, Type (0, 0), BuildingBlock: EZIPEK_clean_linker_0, # of connection points: 2
#     Edge 46, Type (0, 0), BuildingBlock: EZIPEK_clean_linker_0, # of connection points: 2
#     Edge 47, Type (0, 0), BuildingBlock: EZIPEK_clean_linker_0, # of connection points: 2
#     Edge 48, Type (0, 0), BuildingBlock: EZIPEK_clean_linker_0, # of connection points: 2
#     Edge 49, Type (0, 0), BuildingBlock: EZIPEK_clean_linker_0, # of connection points: 2
#     Edge 50, Type (0, 0), BuildingBlock: EZIPEK_clean_linker_0, # of connection points: 2
#     Edge 51, Type (0, 0), BuildingBlock: EZIPEK_clean_linker_0, # of connection points: 2
#     Edge 52, Type (0, 0), BuildingBlock: EZIPEK_clean_linker_0, # of connection points: 2
#     Edge 53, Type (0, 0), BuildingBlock: EZIPEK_clean_linker_0, # of connection points: 2
# Relax obj value: 0.067
# Max RMSD: 0.057
# Mean RMSD: 0.057
data_MOF--net-unb--node1-UXUYUI_clean_sbu_0--edge1-EZIPEK_clean_linker_0
_symmetry_space_group_name_H-M    P1
_symmetry_Int_Tables_number       1
_symmetry_cell_setting            triclinic
loop_
_symmetry_equiv_pos_as_xyz
'x, y, z'
_cell_length_a     81.468662
_cell_length_b     81.46315
_cell_length_c     28.726735
_cell_angle_alpha  90.03534
_cell_angle_beta   89.988958
_cell_angle_gamma 120.02068
loop_
_atom_site_label
_atom_site_type_symbol
_atom_site_fract_x
_atom_site_fract_y
_atom_site_fract_z
_atom_type_partial_charge
Li0 Li 0.14195 0.27093 0.12806 0.0
Li1 Li 0.14437 0.24634 0.07829 0.0
Li2 Li 0.14283 0.27347 0.04361 0.0
Li3 Li 0.11401 0.24698 0.07965 0.0
C4 C 0.17883 0.28681 0.06328 0.0
N5 N 0.21079 0.31246 0.01494 0.0
C6 C 0.19013 0.28078 0.04095 0.0
C7 C 0.18386 0.30592 0.06135 0.0
C8 C 0.20623 0.29396 0.01663 0.0
C9 C 0.20005 0.31865 0.03661 0.0
C10 C 0.1291 0.22945 0.1593 0.0
C11 C 0.12335 0.19774 0.17183 0.0
N12 N 0.13447 0.20384 0.2105 0.0
C13 C 0.14046 0.23542 0.19913 0.0
C14 C 0.12042 0.21047 0.14551 0.0
C15 C 0.14299 0.22224 0.22459 0.0
C16 C 0.13769 0.28466 0.21946 0.0
N17 N 0.15019 0.28684 0.18509 0.0
C18 C 0.1749 0.31404 0.22485 0.0
C19 C 0.16859 0.30108 0.18769 0.0
C20 C 0.16223 0.31244 0.26007 0.0
C21 C 0.14341 0.29738 0.25724 0.0
H22 H 0.12314 0.2733 0.2171 0.0
H23 H 0.17841 0.30262 0.16049 0.0
C24 C 0.1561 0.22598 0.02037 0.0
N25 N 0.1561 0.23072 0.0659 0.0
C26 C 0.16521 0.21608 0.0063 0.0
C27 C 0.17441 0.21599 0.08604 0.0
C28 C 0.16516 0.22602 0.09864 0.0
C29 C 0.17457 0.21101 0.03924 0.0
H30 H 0.14941 0.23032 0.99451 0.0
H31 H 0.16558 0.23035 0.13438 0.0
C32 C 0.12001 0.28595 0.11196 0.0
N33 N 0.11129 0.30798 0.16843 0.0
C34 C 0.10295 0.27767 0.13668 0.0
C35 C 0.13259 0.30543 0.11574 0.0
C36 C 0.0988 0.28906 0.16505 0.0
C37 C 0.12795 0.31632 0.14458 0.0
C38 C 0.11605 0.23513 0.99404 0.0
C39 C 0.11025 0.24304 0.95906 0.0
C40 C 0.10806 0.21547 0.99666 0.0
C41 C 0.09656 0.23108 0.92702 0.0
C42 C 0.09441 0.204 0.96396 0.0
N43 N 0.08903 0.21198 0.93006 0.0
C44 C 0.16025 0.2857 0.95664 0.0
C45 C 0.14504 0.30219 0.9828 0.0
C46 C 0.16411 0.29489 0.91371 0.0
N47 N 0.15043 0.2891 0.98966 0.0
C48 C 0.14844 0.31153 0.94005 0.0
C49 C 0.15655 0.30672 0.90253 0.0
H50 H 0.16487 0.27558 0.96343 0.0
H51 H 0.13774 0.3051 0.01016 0.0
C52 C 0.07563 0.21373 0.08152 0.0
N53 N 0.0866 0.23221 0.06857 0.0
C54 C 0.0565 0.20329 0.06782 0.0
C55 C 0.0602 0.23103 0.02811 0.0
C56 C 0.07918 0.24093 0.04261 0.0
C57 C 0.04864 0.21192 0.04041 0.0
H58 H 0.08181 0.20693 0.10149 0.0
H59 H 0.08819 0.25551 0.03204 0.0
O60 O 0.16284 0.27406 0.08662 0.0
O61 O 0.1265 0.24213 0.13387 0.0
O62 O 0.1245 0.27498 0.08477 0.0
O63 O 0.12933 0.24658 0.02593 0.0
H64 H 0.18651 0.26608 0.04222 0.0
H65 H 0.17521 0.3108 0.07822 0.0
H66 H 0.21507 0.28948 0.99904 0.0
H67 H 0.20403 0.33345 0.03453 0.0
H68 H 0.11681 0.18302 0.16147 0.0
H69 H 0.14728 0.25009 0.21018 0.0
H70 H 0.11168 0.20567 0.11457 0.0
H71 H 0.15176 0.22665 0.25548 0.0
H72 H 0.18953 0.32539 0.22581 0.0
H73 H 0.1332 0.29562 0.28372 0.0
H74 H 0.1652 0.21266 0.96986 0.0
H75 H 0.18166 0.21247 0.11234 0.0
H76 H 0.09311 0.26259 0.13434 0.0
H77 H 0.1459 0.31203 0.09701 0.0
H78 H 0.08569 0.28284 0.18454 0.0
H79 H 0.13761 0.33139 0.1481 0.0
H80 H 0.11616 0.25822 0.95681 0.0
H81 H 0.11232 0.20914 0.02377 0.0
H82 H 0.09191 0.23698 0.89977 0.0
H83 H 0.08809 0.18875 0.96556 0.0
H84 H 0.17312 0.29255 0.89052 0.0
H85 H 0.14463 0.32242 0.93714 0.0
H86 H 0.04802 0.18854 0.07779 0.0
H87 H 0.05467 0.23814 0.00687 0.0
Li88 Li 0.76844 0.90088 0.07732 0.0
Li89 Li 0.74409 0.87426 0.12872 0.0
Li90 Li 0.76753 0.86981 0.07915 0.0
Li91 Li 0.74103 0.87206 0.04446 0.0
C92 C 0.78583 0.90264 0.15834 0.0
N93 N 0.81191 0.93337 0.20958 0.0
C94 C 0.78004 0.90839 0.19788 0.0
C95 C 0.80486 0.91243 0.14491 0.0
C96 C 0.79346 0.92397 0.22336 0.0
C97 C 0.81783 0.92798 0.17124 0.0
C98 C 0.72784 0.89449 0.06279 0.0
C99 C 0.69572 0.88326 0.03736 0.0
N100 N 0.7018 0.89932 0.01177 0.0
C101 C 0.73376 0.91092 0.0364 0.0
C102 C 0.70865 0.88058 0.0635 0.0
C103 C 0.72038 0.91309 0.01082 0.0
C104 C 0.78851 0.93292 0.01888 0.0
N105 N 0.78411 0.9282 0.06454 0.0
C106 C 0.79922 0.96128 0.08481 0.0
C107 C 0.78918 0.942 0.09741 0.0
C108 C 0.8038 0.9664 0.03787 0.0
C109 C 0.79835 0.95194 1.00478 0.0
H110 H 0.78395 0.92186 0.99297 0.0
H111 H 0.78514 0.93813 0.13329 0.0
C112 C 0.73071 0.85681 0.22082 0.0
N113 N 0.72857 0.8671 0.18632 0.0
C114 C 0.71809 0.85005 0.25879 0.0
C115 C 0.70157 0.86498 0.22623 0.0
C116 C 0.7145 0.8715 0.18905 0.0
C117 C 0.70312 0.85392 0.26148 0.0
H118 H 0.74193 0.85342 0.21834 0.0
H119 H 0.71306 0.87984 0.1619 0.0
C120 C 0.77944 0.88357 0.99384 0.0
N121 N 0.80327 0.87933 0.93286 0.0
C122 C 0.77189 0.87035 0.9577 0.0
C123 C 0.79909 0.89474 0.99883 0.0
C124 C 0.78419 0.8684 0.92726 0.0
C125 C 0.8109 0.89235 0.96768 0.0
C126 C 0.72986 0.83712 0.11485 0.0
C127 C 0.73935 0.8291 0.13746 0.0
C128 C 0.7104 0.82952 0.12192 0.0
C129 C 0.72917 0.81353 0.16674 0.0
C130 C 0.70073 0.81392 0.15138 0.0
N131 N 0.71024 0.80632 0.17302 0.0
C132 C 0.79966 0.86285 0.08546 0.0
C133 C 0.77388 0.84199 0.03773 0.0
C134 C 0.80985 0.85386 0.0722 0.0
N135 N 0.78201 0.85688 0.06792 0.0
C136 C 0.78366 0.83283 0.02305 0.0
C137 C 0.80193 0.83877 0.04013 0.0
H138 H 0.80597 0.87479 0.10906 0.0
H139 H 0.7599 0.83752 0.02402 0.0
C140 C 0.72865 0.87561 0.95597 0.0
N141 N 0.72422 0.86361 0.99274 0.0
C142 C 0.71688 0.87019 0.91695 0.0
C143 C 0.69625 0.84014 0.95432 0.0
C144 C 0.70847 0.8461 0.99256 0.0
C145 C 0.7005 0.85229 0.91611 0.0
H146 H 0.74135 0.8894 0.95708 0.0
H147 H 0.70543 0.83679 0.02202 0.0
O148 O 0.77292 0.88747 0.13294 0.0
O149 O 0.74081 0.89185 0.08695 0.0
O150 O 0.76766 0.88529 0.02485 0.0
O151 O 0.73958 0.85243 0.08626 0.0
H152 H 0.76534 0.90093 0.20867 0.0
H153 H 0.80954 0.90814 0.11434 0.0
H154 H 0.7892 0.92862 0.25401 0.0
H155 H 0.8326 0.93576 0.16117 0.0
H156 H 0.68087 0.87252 0.03718 0.0
H157 H 0.74852 0.92184 0.03545 0.0
H158 H 0.70385 0.86764 0.08317 0.0
H159 H 0.72477 0.9257 0.99011 0.0
H160 H 0.80307 0.97207 0.11127 0.0
H161 H 0.80151 0.95534 0.96824 0.0
H162 H 0.71978 0.84159 0.28536 0.0
H163 H 0.6903 0.86836 0.22718 0.0
H164 H 0.75671 0.86151 0.95358 0.0
H165 H 0.80513 0.905 0.02672 0.0
H166 H 0.77856 0.85813 0.8993 0.0
H167 H 0.82614 0.9008 0.97127 0.0
H168 H 0.75443 0.8349 0.13276 0.0
H169 H 0.70289 0.83574 0.10529 0.0
H170 H 0.73634 0.8072 0.18454 0.0
H171 H 0.68568 0.80788 0.15712 0.0
H172 H 0.82392 0.85883 0.08611 0.0
H173 H 0.77707 0.82126 0.99835 0.0
H174 H 0.72047 0.87981 0.88779 0.0
H175 H 0.68369 0.8262 0.95438 0.0
Li176 Li 0.14094 0.87378 0.12919 0.0
Li177 Li 0.11356 0.86913 0.07957 0.0
Li178 Li 0.14267 0.87284 0.04599 0.0
Li179 Li 0.14444 0.90185 0.07642 0.0
C180 C 0.12016 0.83681 0.11337 0.0
N181 N 0.11192 0.80592 0.16895 0.0
C182 C 0.10321 0.82779 0.13853 0.0
C183 C 0.1329 0.83006 0.11642 0.0
C184 C 0.09929 0.81218 0.16635 0.0
C185 C 0.1285 0.81448 0.1448 0.0
C186 C 0.11212 0.88933 0.15204 0.0
C187 C 0.09455 0.90548 0.16536 0.0
N188 N 0.08184 0.89056 0.19142 0.0
C189 C 0.09897 0.87421 0.17917 0.0
C190 C 0.10997 0.90513 0.14515 0.0
C191 C 0.08372 0.87508 0.19868 0.0
C192 C 0.16826 0.87355 0.19313 0.0
N193 N 0.14935 0.86702 0.1876 0.0
C194 C 0.14281 0.84825 0.25724 0.0
C195 C 0.13672 0.85497 0.2197 0.0
C196 C 0.16216 0.85425 0.26255 0.0
C197 C 0.17497 0.86735 0.23035 0.0
H198 H 0.17822 0.88337 0.16813 0.0
H199 H 0.12181 0.85013 0.21566 0.0
C200 C 0.0771 0.83798 0.05461 0.0
N201 N 0.08607 0.85655 0.06784 0.0
C202 C 0.0581 0.82873 0.04015 0.0
C203 C 0.0576 0.85773 0.05288 0.0
C204 C 0.07668 0.86649 0.06692 0.0
C205 C 0.04815 0.83865 0.03888 0.0
H206 H 0.08489 0.83046 0.05365 0.0
H207 H 0.08412 0.88138 0.07564 0.0
C208 C 0.17844 0.89393 0.06779 0.0
N209 N 0.2103 0.89714 0.02487 0.0
C210 C 0.19038 0.91012 0.04192 0.0
C211 C 0.18281 0.87944 0.07206 0.0
C212 C 0.20641 0.91147 0.02048 0.0
C213 C 0.19893 0.88129 0.05 0.0
C214 C 0.12584 0.8824 0.97935 0.0
C215 C 0.13618 0.89731 0.94835 0.0
C216 C 0.11358 0.86424 0.96207 0.0
C217 C 0.13409 0.89377 0.9005 0.0
C218 C 0.11191 0.86127 0.91399 0.0
N219 N 0.12212 0.87597 0.88446 0.0
C220 C 0.14506 0.84543 0.98976 0.0
C221 C 0.16298 0.87699 0.96194 0.0
C222 C 0.15062 0.83872 0.95163 0.0
N223 N 0.15138 0.86429 0.99435 0.0
C224 C 0.16881 0.8709 0.92322 0.0
C225 C 0.16259 0.85157 0.91793 0.0
H226 H 0.13551 0.83557 0.01533 0.0
H227 H 0.16751 0.89184 0.9658 0.0
C228 C 0.1728 0.94174 0.08333 0.0
N229 N 0.1555 0.9291 0.0655 0.0
C230 C 0.18198 0.96087 0.06975 0.0
C231 C 0.15511 0.95393 0.02118 0.0
C232 C 0.14645 0.93495 0.03568 0.0
C233 C 0.17325 0.9671 0.03765 0.0
H234 H 0.17983 0.93684 0.1068 0.0
H235 H 0.13272 0.92472 0.02184 0.0
O236 O 0.12436 0.85223 0.08623 0.0
O237 O 0.12698 0.88864 0.13211 0.0
O238 O 0.16247 0.89217 0.08835 0.0
O239 O 0.12804 0.88545 0.02636 0.0
H240 H 0.0933 0.83294 0.13726 0.0
H241 H 0.14608 0.83683 0.09727 0.0
H242 H 0.08626 0.80513 0.18615 0.0
H243 H 0.13828 0.80919 0.14766 0.0
H244 H 0.09265 0.91758 0.16023 0.0
H245 H 0.10048 0.86191 0.18481 0.0
H246 H 0.12006 0.91694 0.12422 0.0
H247 H 0.07336 0.86344 0.21955 0.0
H248 H 0.13249 0.83827 0.28157 0.0
H249 H 0.19001 0.87244 0.23345 0.0
H250 H 0.05134 0.81405 0.02916 0.0
H251 H 0.05043 0.86589 0.0519 0.0
H252 H 0.18714 0.92137 0.03763 0.0
H253 H 0.17373 0.8668 0.09179 0.0
H254 H 0.21569 0.92386 1.0001 0.0
H255 H 0.20238 0.87012 0.05275 0.0
H256 H 0.14596 0.91139 0.96105 0.0
H257 H 0.10573 0.85249 0.98553 0.0
H258 H 0.14208 0.90514 0.87612 0.0
H259 H 0.10259 0.84725 0.90017 0.0
H260 H 0.14552 0.82368 0.94818 0.0
H261 H 0.17798 0.88111 0.89753 0.0
H262 H 0.19595 0.97062 0.08328 0.0
H263 H 0.14792 0.95821 0.99647 0.0
Li264 Li 0.24996 0.11151 0.93553 0.0
Li265 Li 0.27642 0.14034 0.96463 0.0
Li266 Li 0.25041 0.14262 0.93476 0.0
Li267 Li 0.27399 0.13911 0.88051 0.0
C268 C 0.23228 0.11827 0.00717 0.0
N269 N 0.19614 0.09997 0.04447 0.0
C270 C 0.2297 0.11588 0.05532 0.0
C271 C 0.21643 0.11126 0.97802 0.0
C272 C 0.21133 0.10661 0.0735 0.0
C273 C 0.1983 0.10209 0.99753 0.0
C274 C 0.29137 0.1185 0.93927 0.0
C275 C 0.32251 0.12204 0.93322 0.0
N276 N 0.3197 0.11281 0.97447 0.0
C277 C 0.28874 0.10894 0.98143 0.0
C278 C 0.30836 0.12506 0.91483 0.0
C279 C 0.30326 0.10627 0.99873 0.0
C280 C 0.22431 0.0709 0.91483 0.0
N281 N 0.23469 0.08415 0.94772 0.0
C282 C 0.22458 0.05981 0.006 0.0
C283 C 0.23489 0.07887 0.99264 0.0
C284 C 0.21384 0.04584 0.97296 0.0
C285 C 0.21373 0.05156 0.92678 0.0
H286 H 0.22422 0.07531 0.87936 0.0
H287 H 0.24306 0.08953 0.01845 0.0
C288 C 0.28757 0.15069 0.05727 0.0
N289 N 0.29448 0.14972 0.01488 0.0
C290 C 0.29941 0.15688 0.09617 0.0
C291 C 0.32548 0.16151 0.04701 0.0
C292 C 0.31313 0.15525 0.00903 0.0
C293 C 0.31853 0.16221 0.09112 0.0
H294 H 0.27284 0.14667 0.06086 0.0
H295 H 0.31849 0.15487 0.97495 0.0
C296 C 0.23514 0.12694 0.84573 0.0
N297 N 0.2158 0.13293 0.77495 0.0
C298 C 0.24396 0.14379 0.82022 0.0
C299 C 0.2165 0.11312 0.83528 0.0
C300 C 0.23395 0.14655 0.78452 0.0
C301 C 0.20695 0.11643 0.79938 0.0
C302 C 0.29349 0.17582 0.93946 0.0
C303 C 0.29166 0.18668 0.97458 0.0
C304 C 0.31154 0.18062 0.92325 0.0
C305 C 0.30793 0.20206 0.99323 0.0
C306 C 0.32746 0.19617 0.94265 0.0
N307 N 0.32534 0.20645 0.97702 0.0
C308 C 0.2374 0.1619 0.99164 0.0
C309 C 0.22293 0.15606 0.91745 0.0
C310 C 0.22749 0.1709 0.00652 0.0
N311 N 0.23517 0.1548 0.94765 0.0
C312 C 0.21264 0.16492 0.93105 0.0
C313 C 0.21495 0.17253 0.97608 0.0
H314 H 0.24688 0.16049 0.01551 0.0
H315 H 0.221 0.15016 0.88292 0.0
C316 C 0.29241 0.13385 0.79911 0.0
N317 N 0.28891 0.14645 0.82201 0.0
C318 C 0.30511 0.13971 0.7613 0.0
C319 C 0.31009 0.1713 0.77011 0.0
C320 C 0.29727 0.16485 0.80757 0.0
C321 C 0.31436 0.15874 0.74681 0.0
H322 H 0.28584 0.11934 0.81115 0.0
H323 H 0.29449 0.17475 0.82615 0.0
O324 O 0.25025 0.12727 0.98894 0.0
O325 O 0.27738 0.12139 0.9219 0.0
O326 O 0.24469 0.12394 0.88071 0.0
O327 O 0.27775 0.1604 0.92154 0.0
H328 H 0.24175 0.12103 0.07848 0.0
H329 H 0.21804 0.11287 0.94075 0.0
H330 H 0.20915 0.10466 0.11069 0.0
H331 H 0.18594 0.09665 0.97534 0.0
H332 H 0.33577 0.12712 0.91481 0.0
H333 H 0.27579 0.10395 1.00099 0.0
H334 H 0.3107 0.1326 0.88233 0.0
H335 H 0.30148 0.09904 0.03154 0.0
H336 H 0.225 0.05598 0.04191 0.0
H337 H 0.20556 0.04116 0.90033 0.0
H338 H 0.29373 0.15743 0.12987 0.0
H339 H 0.34025 0.16571 0.04213 0.0
H340 H 0.25828 0.15471 0.82831 0.0
H341 H 0.20949 0.09998 0.85474 0.0
H342 H 0.24057 0.15955 0.76457 0.0
H343 H 0.19251 0.10587 0.79092 0.0
H344 H 0.27786 0.18322 0.98753 0.0
H345 H 0.31329 0.17217 0.89681 0.0
H346 H 0.30672 0.2105 0.02065 0.0
H347 H 0.3415 0.19994 0.93069 0.0
H348 H 0.22956 0.1765 0.04158 0.0
H349 H 0.203 0.16586 0.90667 0.0
H350 H 0.30803 0.12959 0.74424 0.0
H351 H 0.31691 0.18608 0.75998 0.0
Li352 Li 0.90459 0.14214 0.93569 0.0
Li353 Li 0.87648 0.1404 0.96767 0.0
Li354 Li 0.87389 0.11125 0.93705 0.0
Li355 Li 0.87643 0.13815 0.88243 0.0
C356 C 0.90243 0.12668 0.01851 0.0
N357 N 0.92942 0.12652 0.07647 0.0
C358 C 0.91227 0.14146 0.0502 0.0
C359 C 0.90631 0.11181 0.01633 0.0
C360 C 0.92585 0.14111 0.07922 0.0
C361 C 0.92001 0.11199 0.04592 0.0
C362 C 0.89581 0.17621 0.93895 0.0
C363 C 0.88922 0.20181 0.93045 0.0
N364 N 0.89807 0.2092 0.97167 0.0
C365 C 0.90493 0.18411 0.98114 0.0
C366 C 0.88792 0.18515 0.91331 0.0
C367 C 0.90588 0.20076 0.99714 0.0
C368 C 0.9423 0.17369 0.95035 0.0
N369 N 0.93237 0.15452 0.94433 0.0
C370 C 0.96024 0.15278 0.96331 0.0
C371 C 0.94116 0.14411 0.9494 0.0
C372 C 0.97048 0.17239 0.97173 0.0
C373 C 0.96137 0.18291 0.96425 0.0
H374 H 0.93533 0.18186 0.94546 0.0
H375 H 0.93322 0.12895 0.9443 0.0
C376 C 0.86787 0.14247 0.0617 0.0
N377 N 0.86722 0.14898 0.01852 0.0
C378 C 0.86153 0.14807 0.10042 0.0
C379 C 0.85344 0.1666 0.04958 0.0
C380 C 0.8599 0.16061 0.01182 0.0
C381 C 0.85434 0.16035 0.09442 0.0
H382 H 0.87321 0.13282 0.0661 0.0
H383 H 0.859 0.1652 0.97716 0.0
C384 C 0.89022 0.1095 0.85559 0.0
N385 N 0.88704 0.07958 0.80334 0.0
C386 C 0.87954 0.10415 0.81463 0.0
C387 C 0.89933 0.0997 0.86997 0.0
C388 C 0.87811 0.08898 0.78867 0.0
C389 C 0.89752 0.08458 0.84309 0.0
C390 C 0.8403 0.1194 0.94734 0.0
C391 C 0.83221 0.10711 0.98509 0.0
C392 C 0.83253 0.13042 0.93253 0.0
C393 C 0.81653 0.10611 0.00757 0.0
C394 C 0.8168 0.12896 0.95585 0.0
N395 N 0.80921 0.11696 0.99261 0.0
C396 C 0.85879 0.07907 0.99595 0.0
C397 C 0.85485 0.06998 0.91669 0.0
C398 C 0.84958 0.06005 0.01008 0.0
N399 N 0.86142 0.0838 0.94993 0.0
C400 C 0.84568 0.05072 0.92937 0.0
C401 C 0.84292 0.04558 0.97665 0.0
H402 H 0.86369 0.09013 0.02197 0.0
H403 H 0.85651 0.07381 0.88032 0.0
C404 C 0.88105 0.16028 0.79878 0.0
N405 N 0.86837 0.14508 0.82432 0.0
C406 C 0.87497 0.16686 0.76091 0.0
C407 C 0.84294 0.14186 0.77526 0.0
C408 C 0.84964 0.13563 0.8125 0.0
C409 C 0.85562 0.15782 0.74924 0.0
H410 H 0.89584 0.16773 0.80874 0.0
H411 H 0.83974 0.12353 0.83286 0.0
O412 O 0.88917 0.12685 0.98957 0.0
O413 O 0.89463 0.15984 0.92276 0.0
O414 O 0.89179 0.12431 0.88138 0.0
O415 O 0.85599 0.12096 0.92575 0.0
H416 H 0.90948 0.15309 0.05236 0.0
H417 H 0.89907 0.1004 0.99155 0.0
H418 H 0.93356 0.15246 0.1039 0.0
H419 H 0.92323 0.10063 0.04442 0.0
H420 H 0.88311 0.20883 0.91105 0.0
H421 H 0.91097 0.17732 1.00163 0.0
H422 H 0.88069 0.1792 0.8808 0.0
H423 H 0.91277 0.20694 0.02989 0.0
H424 H 0.96682 0.1442 0.96853 0.0
H425 H 0.96885 0.19809 0.97001 0.0
H426 H 0.8622 0.14289 0.13468 0.0
H427 H 0.84778 0.17597 0.04395 0.0
H428 H 0.8724 0.11162 0.80308 0.0
H429 H 0.90754 0.1036 0.90175 0.0
H430 H 0.86987 0.08465 0.75691 0.0
H431 H 0.90442 0.0768 0.85389 0.0
H432 H 0.83812 0.09861 0.99725 0.0
H433 H 0.83883 0.14031 0.90405 0.0
H434 H 0.81021 0.09674 0.03702 0.0
H435 H 0.81074 0.1375 0.94497 0.0
H436 H 0.84761 0.05665 0.04684 0.0
H437 H 0.84058 0.03992 0.90257 0.0
H438 H 0.8852 0.17921 0.74169 0.0
H439 H 0.82794 0.13444 0.76726 0.0
Li440 Li 0.87414 0.76664 0.9361 0.0
Li441 Li 0.87612 0.73861 0.96763 0.0
Li442 Li 0.90412 0.76494 0.93172 0.0
Li443 Li 0.87739 0.74189 0.88332 0.0
C444 C 0.90309 0.77527 0.02004 0.0
N445 N 0.93049 0.79525 0.08642 0.0
C446 C 0.90792 0.76564 0.05259 0.0
C447 C 0.9124 0.79508 0.02084 0.0
C448 C 0.92177 0.776 0.08596 0.0
C449 C 0.92619 0.80492 0.05472 0.0
C450 C 0.84019 0.72529 0.94776 0.0
C451 C 0.81872 0.69285 0.96984 0.0
N452 N 0.80837 0.69864 0.9949 0.0
C453 C 0.8293 0.73091 0.97359 0.0
C454 C 0.83482 0.70609 0.94565 0.0
C455 C 0.81326 0.71722 0.99718 0.0
C456 C 0.84885 0.7819 0.91974 0.0
N457 N 0.86204 0.78184 0.94885 0.0
C458 C 0.85678 0.80093 1.00412 0.0
C459 C 0.866 0.79108 0.99049 0.0
C460 C 0.84292 0.80098 0.97525 0.0
C461 C 0.83901 0.79134 0.93242 0.0
H462 H 0.84557 0.77418 0.88723 0.0
H463 H 0.87596 0.79038 0.01398 0.0
C464 C 0.87193 0.70737 0.02124 0.0
N465 N 0.86759 0.72144 0.01879 0.0
C466 C 0.86586 0.69497 0.05915 0.0
C467 C 0.85114 0.71191 0.09142 0.0
C468 C 0.85761 0.72405 0.0531 0.0
C469 C 0.8553 0.69722 0.09453 0.0
H470 H 0.88024 0.70587 0.99403 0.0
H471 H 0.85473 0.73562 0.05067 0.0
C472 C 0.90527 0.78613 0.85843 0.0
N473 N 0.93466 0.81736 0.81566 0.0
C474 C 0.91831 0.78408 0.83107 0.0
C475 C 0.90706 0.80401 0.86385 0.0
C476 C 0.93312 0.80006 0.80985 0.0
C477 C 0.92204 0.81963 0.84192 0.0
C478 C 0.89874 0.72634 0.89789 0.0
C479 C 0.91598 0.7344 0.87395 0.0
C480 C 0.88582 0.70697 0.89312 0.0
C481 C 0.92001 0.72292 0.84559 0.0
C482 C 0.89035 0.69598 0.86434 0.0
N483 N 0.90721 0.70412 0.84138 0.0
C484 C 0.93976 0.77035 0.96223 0.0
C485 C 0.94229 0.79916 0.93706 0.0
C486 C 0.95878 0.77986 0.97655 0.0
N487 N 0.93181 0.77999 0.94272 0.0
C488 C 0.96141 0.80924 0.95083 0.0
C489 C 0.96984 0.79958 0.97117 0.0
H490 H 0.93115 0.75524 0.96794 0.0
H491 H 0.93572 0.80683 0.92352 0.0
C492 C 0.84985 0.71345 0.82127 0.0
N493 N 0.86868 0.72638 0.82547 0.0
C494 C 0.84308 0.70045 0.78417 0.0
C495 C 0.87502 0.71443 0.75501 0.0
C496 C 0.88117 0.7273 0.79247 0.0
C497 C 0.85576 0.70061 0.75081 0.0
H498 H 0.84002 0.71294 0.84724 0.0
H499 H 0.89604 0.73767 0.79583 0.0
O500 O 0.88939 0.76536 0.98745 0.0
O501 O 0.85623 0.73854 0.92548 0.0
O502 O 0.89069 0.77071 0.87951 0.0
O503 O 0.89445 0.73738 0.92548 0.0
H504 H 0.90106 0.75034 0.05215 0.0
H505 H 0.90912 0.80278 0.99528 0.0
H506 H 0.9256 0.76874 0.11147 0.0
H507 H 0.9335 0.82024 0.05576 0.0
H508 H 0.8145 0.67798 0.96885 0.0
H509 H 0.83327 0.7457 0.97582 0.0
H510 H 0.84317 0.70151 0.92614 0.0
H511 H 0.80475 0.72138 0.01748 0.0
H512 H 0.86004 0.80802 0.03758 0.0
H513 H 0.82832 0.79095 0.90934 0.0
H514 H 0.86937 0.6838 0.06096 0.0
H515 H 0.84311 0.71401 0.11849 0.0
H516 H 0.91708 0.77032 0.82659 0.0
H517 H 0.89703 0.80578 0.8849 0.0
H518 H 0.94339 0.79872 0.78877 0.0
H519 H 0.92366 0.83358 0.84587 0.0
H520 H 0.92606 0.7494 0.87679 0.0
H521 H 0.87233 0.70052 0.911 0.0
H522 H 0.93327 0.72898 0.82675 0.0
H523 H 0.88045 0.68099 0.86015 0.0
H524 H 0.96472 0.77194 0.99251 0.0
H525 H 0.96943 0.82449 0.94668 0.0
H526 H 0.82812 0.69009 0.78205 0.0
H527 H 0.88524 0.71508 0.72988 0.0
Li528 Li 0.81125 0.58031 0.41255 0.0
Li529 Li 0.80797 0.60325 0.46802 0.0
Li530 Li 0.77914 0.5786 0.41516 0.0
Li531 Li 0.80769 0.60583 0.38293 0.0
C532 C 0.7949 0.55927 0.48438 0.0
N533 N 0.79988 0.52964 0.51239 0.0
C534 C 0.81026 0.56275 0.51268 0.0
C535 C 0.78205 0.54076 0.47037 0.0
C536 C 0.81253 0.54756 0.52645 0.0
C537 C 0.78481 0.52596 0.48492 0.0
C538 C 0.84351 0.62354 0.40465 0.0
C539 C 0.86114 0.65744 0.39385 0.0
N540 N 0.8728 0.65539 0.36346 0.0
C541 C 0.85567 0.62176 0.37337 0.0
C542 C 0.84627 0.64151 0.41509 0.0
C543 C 0.8704 0.63804 0.3529 0.0
C544 C 0.84187 0.57189 0.41118 0.0
N545 N 0.82325 0.56501 0.40065 0.0
C546 C 0.82181 0.53781 0.36377 0.0
C547 C 0.81313 0.54816 0.3779 0.0
C548 C 0.84114 0.54491 0.3728 0.0
C549 C 0.85115 0.56206 0.39736 0.0
H550 H 0.84969 0.58528 0.42924 0.0
H551 H 0.79839 0.54299 0.36955 0.0
C552 C 0.80302 0.61933 0.55435 0.0
N553 N 0.81592 0.61824 0.52619 0.0
C554 C 0.809 0.632 0.59225 0.0
C555 C 0.84142 0.64201 0.57241 0.0
C556 C 0.83484 0.62908 0.53516 0.0
C557 C 0.82846 0.64377 0.60125 0.0
H558 H 0.78807 0.61083 0.54649 0.0
H559 H 0.84493 0.62812 0.51252 0.0
C560 C 0.78987 0.57729 0.31614 0.0
N561 N 0.7808 0.5744 0.22269 0.0
C562 C 0.7767 0.58222 0.30034 0.0
C563 C 0.79833 0.57074 0.28447 0.0
C564 C 0.77232 0.5807 0.25296 0.0
C565 C 0.79359 0.56943 0.23735 0.0
C566 C 0.78489 0.62016 0.42334 0.0
C567 C 0.76995 0.61744 0.39433 0.0
C568 C 0.79505 0.63721 0.44784 0.0
C569 C 0.76551 0.63186 0.39005 0.0
C570 C 0.79015 0.65127 0.44266 0.0
N571 N 0.77562 0.64834 0.41409 0.0
C572 C 0.73948 0.56825 0.42119 0.0
C573 C 0.74559 0.54738 0.37681 0.0
C574 C 0.72038 0.55855 0.40728 0.0
N575 N 0.75177 0.56277 0.40521 0.0
C576 C 0.7266 0.53723 0.36229 0.0
C577 C 0.71381 0.54299 0.3769 0.0
H578 H 0.74464 0.58058 0.44341 0.0
H579 H 0.75558 0.54338 0.364 0.0
C580 C 0.82499 0.61974 0.29574 0.0
N581 N 0.8163 0.62358 0.33118 0.0
C582 C 0.83153 0.63143 0.25662 0.0
C583 C 0.8208 0.65139 0.29153 0.0
C584 C 0.81439 0.63926 0.32991 0.0
C585 C 0.82933 0.64738 0.25434 0.0
H586 H 0.82707 0.60768 0.29809 0.0
H587 H 0.80816 0.64263 0.35859 0.0
O588 O 0.79292 0.57403 0.46883 0.0
O589 O 0.82868 0.60774 0.4241 0.0
O590 O 0.79456 0.57895 0.36231 0.0
O591 O 0.78934 0.60614 0.42843 0.0
H592 H 0.82042 0.57706 0.52338 0.0
H593 H 0.7702 0.53791 0.44807 0.0
H594 H 0.82441 0.55003 0.54816 0.0
H595 H 0.77503 0.51156 0.4742 0.0
H596 H 0.86337 0.67142 0.40136 0.0
H597 H 0.85359 0.60795 0.36436 0.0
H598 H 0.83686 0.64312 0.4388 0.0
H599 H 0.87985 0.63688 0.32841 0.0
H600 H 0.81364 0.52464 0.34493 0.0
H601 H 0.86607 0.56794 0.40504 0.0
H602 H 0.79857 0.63295 0.61365 0.0
H603 H 0.85653 0.6508 0.57823 0.0
H604 H 0.77001 0.58727 0.32437 0.0
H605 H 0.80863 0.56695 0.29606 0.0
H606 H 0.7622 0.58455 0.24024 0.0
H607 H 0.80011 0.5645 0.21241 0.0
H608 H 0.76185 0.60436 0.37527 0.0
H609 H 0.80672 0.63967 0.47022 0.0
H610 H 0.75401 0.62995 0.36763 0.0
H611 H 0.79795 0.66454 0.46128 0.0
H612 H 0.71091 0.56339 0.41926 0.0
H613 H 0.72205 0.52533 0.33879 0.0
H614 H 0.83832 0.62816 0.22858 0.0
H615 H 0.81915 0.66378 0.29084 0.0
Li616 Li 0.43622 0.23392 0.40994 0.0
Li617 Li 0.41175 0.20688 0.46424 0.0
Li618 Li 0.43589 0.20294 0.41069 0.0
Li619 Li 0.40964 0.20499 0.37903 0.0
C620 C 0.45422 0.2354 0.49128 0.0
N621 N 0.48097 0.26518 0.54387 0.0
C622 C 0.44884 0.24081 0.53208 0.0
C623 C 0.47318 0.24508 0.47722 0.0
C624 C 0.46259 0.25591 0.55822 0.0
C625 C 0.48649 0.26013 0.50427 0.0
C626 C 0.39432 0.22577 0.40081 0.0
C627 C 0.36123 0.21634 0.39468 0.0
N628 N 0.36525 0.22802 0.35737 0.0
C629 C 0.39814 0.23775 0.36257 0.0
C630 C 0.37572 0.21499 0.4171 0.0
C631 C 0.38324 0.23865 0.341 0.0
C632 C 0.45278 0.26599 0.35096 0.0
N633 N 0.45118 0.26137 0.39701 0.0
C634 C 0.4689 0.29449 0.41698 0.0
C635 C 0.45887 0.27526 0.43 0.0
C636 C 0.47077 0.2995 0.36965 0.0
C637 C 0.46251 0.28496 0.33651 0.0
H638 H 0.4463 0.25486 0.32517 0.0
H639 H 0.4571 0.27152 0.46643 0.0
C640 C 0.39304 0.18366 0.54555 0.0
N641 N 0.39671 0.19975 0.52235 0.0
C642 C 0.38031 0.17702 0.58327 0.0
C643 C 0.3757 0.20384 0.57389 0.0
C644 C 0.38856 0.21001 0.53649 0.0
C645 C 0.37122 0.18699 0.59742 0.0
H646 H 0.39949 0.17558 0.53377 0.0
H647 H 0.3916 0.22276 0.51782 0.0
C648 C 0.44957 0.21895 0.32848 0.0
N649 N 0.47721 0.21974 0.27118 0.0
C650 C 0.44496 0.20436 0.2964 0.0
C651 C 0.46824 0.23396 0.33135 0.0
C652 C 0.45914 0.20502 0.26777 0.0
C653 C 0.48201 0.2341 0.30207 0.0
C654 C 0.39308 0.16912 0.40583 0.0
C655 C 0.39468 0.16164 0.36335 0.0
C656 C 0.37596 0.16001 0.4303 0.0
C657 C 0.37908 0.14524 0.34591 0.0
C658 C 0.3607 0.1436 0.41176 0.0
N659 N 0.36256 0.13663 0.37028 0.0
C660 C 0.44189 0.1713 0.39599 0.0
C661 C 0.47037 0.20085 0.39632 0.0
C662 C 0.45166 0.16203 0.38191 0.0
N663 N 0.45118 0.19048 0.40177 0.0
C664 C 0.48071 0.19214 0.38212 0.0
C665 C 0.47127 0.17251 0.37392 0.0
H666 H 0.42676 0.16315 0.40121 0.0
H667 H 0.47765 0.21602 0.40134 0.0
C668 C 0.39921 0.20324 0.285 0.0
N669 N 0.3919 0.19677 0.32809 0.0
C670 C 0.38736 0.1979 0.24616 0.0
C671 C 0.36052 0.17973 0.29672 0.0
C672 C 0.3729 0.18545 0.33462 0.0
C673 C 0.36782 0.18592 0.25198 0.0
H674 H 0.41427 0.21265 0.28075 0.0
H675 H 0.3673 0.18089 0.36921 0.0
O676 O 0.44097 0.22065 0.46532 0.0
O677 O 0.40865 0.22429 0.42151 0.0
O678 O 0.43589 0.21844 0.35717 0.0
O679 O 0.40816 0.18528 0.42332 0.0
H680 H 0.4342 0.23343 0.54338 0.0
H681 H 0.47753 0.24113 0.44558 0.0
H682 H 0.45864 0.26028 0.58987 0.0
H683 H 0.50121 0.26782 0.49374 0.0
H684 H 0.34675 0.20799 0.40671 0.0
H685 H 0.4124 0.24607 0.34929 0.0
H686 H 0.37243 0.20538 0.44608 0.0
H687 H 0.38597 0.24775 0.31115 0.0
H688 H 0.47496 0.30536 0.44357 0.0
H689 H 0.46355 0.28826 0.29974 0.0
H690 H 0.37724 0.16397 0.60054 0.0
H691 H 0.36903 0.21195 0.58383 0.0
H692 H 0.4306 0.19264 0.29366 0.0
H693 H 0.47216 0.24522 0.35644 0.0
H694 H 0.45577 0.19381 0.24284 0.0
H695 H 0.49653 0.24558 0.3041 0.0
H696 H 0.40775 0.16856 0.34376 0.0
H697 H 0.37436 0.16566 0.46295 0.0
H698 H 0.3801 0.13939 0.31293 0.0
H699 H 0.34735 0.13646 0.43024 0.0
H700 H 0.44392 0.14684 0.37634 0.0
H701 H 0.49585 0.2007 0.37655 0.0
H702 H 0.39333 0.20301 0.21195 0.0
H703 H 0.34544 0.17059 0.30218 0.0
Li704 Li 0.80663 0.20673 0.46699 0.0
Li705 Li 0.78013 0.20302 0.41799 0.0
Li706 Li 0.8081 0.20449 0.38308 0.0
Li707 Li 0.81012 0.23465 0.41378 0.0
C708 C 0.78522 0.16981 0.45334 0.0
N709 N 0.77659 0.13941 0.51111 0.0
C710 C 0.76799 0.16085 0.47735 0.0
C711 C 0.79806 0.16329 0.45874 0.0
C712 C 0.76387 0.14549 0.50632 0.0
C713 C 0.79344 0.14792 0.48813 0.0
C714 C 0.77832 0.22279 0.48995 0.0
C715 C 0.76064 0.23879 0.50401 0.0
N716 N 0.74792 0.22372 0.52964 0.0
C717 C 0.76516 0.20753 0.51668 0.0
C718 C 0.77612 0.2386 0.48365 0.0
C719 C 0.74984 0.20824 0.53633 0.0
C720 C 0.83406 0.20587 0.5293 0.0
N721 N 0.81525 0.20006 0.52516 0.0
C722 C 0.80886 0.18188 0.59578 0.0
C723 C 0.80276 0.18862 0.5583 0.0
C724 C 0.8281 0.18722 0.59991 0.0
C725 C 0.84079 0.19966 0.56646 0.0
H726 H 0.84389 0.21508 0.50321 0.0
H727 H 0.7879 0.18419 0.55502 0.0
C728 C 0.74405 0.17258 0.38951 0.0
N729 N 0.75259 0.19076 0.40559 0.0
C730 C 0.72511 0.16332 0.37459 0.0
C731 C 0.72385 0.1916 0.39213 0.0
C732 C 0.74285 0.20035 0.40678 0.0
C733 C 0.71478 0.17286 0.37554 0.0
H734 H 0.75213 0.16538 0.38693 0.0
H735 H 0.74995 0.21502 0.41741 0.0
C736 C 0.84384 0.22671 0.40255 0.0
N737 N 0.87506 0.23072 0.35465 0.0
C738 C 0.85501 0.24304 0.37637 0.0
C739 C 0.84869 0.21251 0.40479 0.0
C740 C 0.87072 0.24479 0.35234 0.0
C741 C 0.86448 0.21477 0.38018 0.0
C742 C 0.78202 0.21588 0.33035 0.0
C743 C 0.77465 0.2004 0.3 0.0
C744 C 0.77575 0.22898 0.32761 0.0
C745 C 0.76105 0.19827 0.26726 0.0
C746 C 0.7621 0.22633 0.29445 0.0
N747 N 0.7551 0.21117 0.2652 0.0
C748 C 0.81352 0.17796 0.33005 0.0
C749 C 0.82501 0.20827 0.2958 0.0
C750 C 0.81965 0.1719 0.29173 0.0
N751 N 0.81644 0.19591 0.33149 0.0
C752 C 0.83133 0.2028 0.25679 0.0
C753 C 0.82866 0.18444 0.25469 0.0
H754 H 0.80635 0.16832 0.35846 0.0
H755 H 0.82692 0.22238 0.29773 0.0
C756 C 0.82715 0.27556 0.43218 0.0
N757 N 0.82184 0.26171 0.39938 0.0
C758 C 0.83612 0.29476 0.41898 0.0
C759 C 0.83403 0.28518 0.33871 0.0
C760 C 0.82506 0.26623 0.35334 0.0
C761 C 0.83973 0.29973 0.37168 0.0
H762 H 0.82458 0.27174 0.4686 0.0
H763 H 0.82089 0.25507 0.32782 0.0
O764 O 0.78958 0.18498 0.42506 0.0
O765 O 0.79334 0.22234 0.47024 0.0
O766 O 0.82803 0.22446 0.42506 0.0
O767 O 0.79518 0.21809 0.36296 0.0
H768 H 0.75797 0.16581 0.47413 0.0
H769 H 0.81156 0.17016 0.44095 0.0
H770 H 0.75062 0.13847 0.52521 0.0
H771 H 0.80329 0.1428 0.49281 0.0
H772 H 0.75871 0.25089 0.4993 0.0
H773 H 0.76671 0.19523 0.52193 0.0
H774 H 0.78618 0.25051 0.46297 0.0
H775 H 0.73948 0.19648 0.55688 0.0
H776 H 0.79863 0.17239 0.62099 0.0
H777 H 0.85574 0.20419 0.56853 0.0
H778 H 0.71868 0.14894 0.36152 0.0
H779 H 0.71642 0.19952 0.39278 0.0
H780 H 0.85156 0.25422 0.37443 0.0
H781 H 0.84016 0.19975 0.42469 0.0
H782 H 0.87943 0.25732 0.33176 0.0
H783 H 0.86826 0.2038 0.38121 0.0
H784 H 0.7793 0.19008 0.30193 0.0
H785 H 0.78125 0.24096 0.35114 0.0
H786 H 0.75516 0.18633 0.24362 0.0
H787 H 0.75703 0.2363 0.29202 0.0
H788 H 0.81733 0.1576 0.29082 0.0
H789 H 0.83819 0.21273 0.22855 0.0
H790 H 0.84037 0.30564 0.44539 0.0
H791 H 0.83662 0.28847 0.30199 0.0
Li792 Li 0.91388 0.44383 0.26716 0.0
Li793 Li 0.94181 0.47401 0.2982 0.0
Li794 Li 0.91534 0.4754 0.26291 0.0
Li795 Li 0.93838 0.47184 0.21413 0.0
C796 C 0.90307 0.46133 0.34896 0.0
N797 N 0.87843 0.46356 0.41112 0.0
C798 C 0.90991 0.47579 0.38219 0.0
C799 C 0.88373 0.44801 0.34722 0.0
C800 C 0.89721 0.47668 0.41332 0.0
C801 C 0.87149 0.44939 0.37897 0.0
C802 C 0.95583 0.45227 0.27858 0.0
C803 C 0.98856 0.4648 0.30033 0.0
N804 N 0.98353 0.44898 0.32611 0.0
C805 C 0.951 0.43608 0.30501 0.0
C806 C 0.97478 0.46669 0.2759 0.0
C807 C 0.96521 0.43469 0.32885 0.0
C808 C 0.89007 0.4029 0.24863 0.0
N809 N 0.89872 0.41674 0.28141 0.0
C810 C 0.88786 0.39324 0.34196 0.0
C811 C 0.89768 0.4122 0.32739 0.0
C812 C 0.87889 0.3787 0.30902 0.0
C813 C 0.87997 0.38369 0.26179 0.0
H814 H 0.89112 0.40674 0.21226 0.0
H815 H 0.90476 0.42336 0.35288 0.0
C816 C 0.9736 0.50066 0.35134 0.0
N817 N 0.95863 0.48266 0.34991 0.0
C818 C 0.98575 0.50679 0.38973 0.0
C819 C 0.96667 0.47585 0.42462 0.0
C820 C 0.95489 0.47032 0.3856 0.0
C821 C 0.98228 0.49427 0.42676 0.0
H822 H 0.97605 0.51025 0.32283 0.0
H823 H 0.94274 0.45617 0.38362 0.0
C824 C 0.89414 0.4555 0.18966 0.0
N825 N 0.8631 0.45411 0.14704 0.0
C826 C 0.89641 0.4706 0.16204 0.0
C827 C 0.87613 0.43963 0.19543 0.0
C828 C 0.88052 0.46966 0.14089 0.0
C829 C 0.8606 0.4392 0.17356 0.0
C830 C 0.95332 0.50882 0.22807 0.0
C831 C 0.94464 0.51756 0.2049 0.0
C832 C 0.97273 0.51575 0.22211 0.0
C833 C 0.95554 0.5331 0.17609 0.0
C834 C 0.98312 0.53127 0.19287 0.0
N835 N 0.97439 0.53956 0.17067 0.0
C836 C 0.90976 0.50531 0.29507 0.0
C837 C 0.88095 0.47897 0.26992 0.0
C838 C 0.90021 0.51469 0.31001 0.0
N839 N 0.90015 0.48777 0.27518 0.0
C840 C 0.87084 0.48794 0.28409 0.0
C841 C 0.88049 0.50599 0.30471 0.0
H842 H 0.92488 0.51186 0.30049 0.0
H843 H 0.8733 0.46476 0.25616 0.0
C844 C 0.96646 0.47231 0.15175 0.0
N845 N 0.95379 0.47853 0.15616 0.0
C846 C 0.97943 0.47839 0.11464 0.0
C847 C 0.96598 0.49688 0.08589 0.0
C848 C 0.9531 0.49027 0.12333 0.0
C849 C 0.97954 0.4911 0.08149 0.0
H850 H 0.96679 0.46286 0.17759 0.0
H851 H 0.94294 0.49502 0.1268 0.0
O852 O 0.91524 0.4603 0.31797 0.0
O853 O 0.94203 0.45417 0.25626 0.0
O854 O 0.90949 0.45614 0.21066 0.0
O855 O 0.94285 0.49348 0.25615 0.0
H856 H 0.92486 0.48625 0.38375 0.0
H857 H 0.87823 0.43682 0.32141 0.0
H858 H 0.90226 0.48782 0.43918 0.0
H859 H 0.85647 0.43922 0.37802 0.0
H860 H 1.00325 0.47594 0.29895 0.0
H861 H 0.93644 0.42474 0.30731 0.0
H862 H 0.97875 0.47936 0.25579 0.0
H863 H 0.96166 0.42228 0.34963 0.0
H864 H 0.88736 0.38994 0.37863 0.0
H865 H 0.87325 0.37282 0.2354 0.0
H866 H 0.99768 0.52113 0.39066 0.0
H867 H 0.96364 0.46593 0.45285 0.0
H868 H 0.91027 0.48295 0.15723 0.0
H869 H 0.87416 0.42785 0.2168 0.0
H870 H 0.88203 0.48128 0.11959 0.0
H871 H 0.84657 0.42705 0.17782 0.0
H872 H 0.92961 0.5123 0.20867 0.0
H873 H 0.97966 0.50907 0.23935 0.0
H874 H 0.949 0.53996 0.15784 0.0
H875 H 0.99812 0.53669 0.18769 0.0
H876 H 0.90811 0.52853 0.32614 0.0
H877 H 0.85558 0.48068 0.27998 0.0
H878 H 0.98958 0.47352 0.11236 0.0
H879 H 0.96553 0.5066 0.06093 0.0
Li880 Li 0.57046 0.47503 0.26693 0.0
Li881 Li 0.54121 0.47257 0.3003 0.0
Li882 Li 0.54039 0.44398 0.26743 0.0
Li883 Li 0.54297 0.47072 0.2159 0.0
C884 C 0.56797 0.46217 0.35341 0.0
N885 N 0.59543 0.46818 0.41832 0.0
C886 C 0.57286 0.47593 0.38796 0.0
C887 C 0.577 0.45142 0.3519 0.0
C888 C 0.58679 0.47877 0.42045 0.0
C889 C 0.59086 0.45469 0.38503 0.0
C890 C 0.56463 0.50798 0.23293 0.0
C891 C 0.55682 0.53032 0.19918 0.0
N892 N 0.57404 0.53926 0.17789 0.0
C893 C 0.58226 0.5174 0.21083 0.0
C894 C 0.55181 0.51451 0.22726 0.0
C895 C 0.58675 0.5332 0.18315 0.0
C896 C 0.6091 0.48092 0.26434 0.0
N897 N 0.59784 0.48787 0.27894 0.0
C898 C 0.62389 0.51258 0.3216 0.0
C899 C 0.60497 0.50353 0.3067 0.0
C900 C 0.63574 0.50558 0.30762 0.0
C901 C 0.62821 0.48965 0.27819 0.0
H902 H 0.60317 0.46835 0.24278 0.0
H903 H 0.59576 0.50872 0.31833 0.0
C904 C 0.5212 0.46776 0.38368 0.0
N905 N 0.53226 0.48081 0.3513 0.0
C906 C 0.51459 0.47318 0.42219 0.0
C907 C 0.53151 0.50554 0.39431 0.0
C908 C 0.53756 0.49942 0.35591 0.0
C909 C 0.51987 0.4923 0.42785 0.0
H910 H 0.5176 0.45313 0.37964 0.0
H911 H 0.54667 0.50955 0.33014 0.0
C912 C 0.55634 0.44217 0.18798 0.0
N913 N 0.55144 0.41092 0.13871 0.0
C914 C 0.54533 0.43654 0.14755 0.0
C915 C 0.56492 0.43198 0.20333 0.0
C916 C 0.54303 0.42069 0.12309 0.0
C917 C 0.56223 0.41618 0.17797 0.0
C918 C 0.5054 0.44955 0.27766 0.0
C919 C 0.49401 0.43236 0.30053 0.0
C920 C 0.5 0.46336 0.27695 0.0
C921 C 0.47748 0.42936 0.32276 0.0
C922 C 0.4834 0.45984 0.2997 0.0
N923 N 0.47258 0.44306 0.32196 0.0
C924 C 0.52889 0.41198 0.32565 0.0
C925 C 0.51966 0.40284 0.2475 0.0
C926 C 0.51984 0.39298 0.33982 0.0
N927 N 0.52877 0.41666 0.28014 0.0
C928 C 0.51052 0.38357 0.26018 0.0
C929 C 0.51046 0.37849 0.30697 0.0
H930 H 0.53567 0.42305 0.35142 0.0
H931 H 0.51917 0.4067 0.21177 0.0
C932 C 0.54776 0.48979 0.12575 0.0
N933 N 0.53497 0.47817 0.15814 0.0
C934 C 0.54201 0.49686 0.08823 0.0
C935 C 0.50989 0.4793 0.11648 0.0
C936 C 0.51625 0.47264 0.15348 0.0
C937 C 0.52285 0.49181 0.08354 0.0
H938 H 0.56256 0.49404 0.12966 0.0
H939 H 0.50619 0.4633 0.17902 0.0
O940 O 0.55466 0.45945 0.32068 0.0
O941 O 0.55985 0.49232 0.25957 0.0
O942 O 0.55868 0.45757 0.21248 0.0
O943 O 0.52185 0.4529 0.25652 0.0
H944 H 0.56609 0.48446 0.38942 0.0
H945 H 0.57343 0.44079 0.32518 0.0
H946 H 0.59078 0.48943 0.44728 0.0
H947 H 0.59804 0.44655 0.38418 0.0
H948 H 0.547 0.53545 0.19421 0.0
H949 H 0.59229 0.51247 0.21468 0.0
H950 H 0.53807 0.50731 0.24395 0.0
H951 H 0.60032 0.5406 0.16569 0.0
H952 H 0.62919 0.52481 0.34431 0.0
H953 H 0.63693 0.48384 0.26679 0.0
H954 H 0.50571 0.46267 0.44767 0.0
H955 H 0.53591 0.52041 0.39798 0.0
H956 H 0.53859 0.4443 0.1353 0.0
H957 H 0.5734 0.43613 0.23473 0.0
H958 H 0.53453 0.41613 0.09177 0.0
H959 H 0.5687 0.40809 0.18954 0.0
H960 H 0.49794 0.4215 0.30136 0.0
H961 H 0.50871 0.47678 0.25962 0.0
H962 H 0.46857 0.41616 0.34077 0.0
H963 H 0.47915 0.47047 0.29981 0.0
H964 H 0.51996 0.38961 0.37624 0.0
H965 H 0.50326 0.37276 0.23393 0.0
H966 H 0.55245 0.50643 0.06352 0.0
H967 H 0.495 0.47497 0.114 0.0
Li968 Li 0.541 0.09897 0.26371 0.0
Li969 Li 0.54352 0.07132 0.30108 0.0
Li970 Li 0.57134 0.09831 0.26403 0.0
Li971 Li 0.54539 0.07473 0.21477 0.0
C972 C 0.56885 0.11187 0.34704 0.0
N973 N 0.59595 0.13895 0.40482 0.0
C974 C 0.57694 0.10648 0.38245 0.0
C975 C 0.57447 0.13098 0.34101 0.0
C976 C 0.59063 0.1204 0.41132 0.0
C977 C 0.58822 0.14448 0.37057 0.0
C978 C 0.50797 0.05416 0.24579 0.0
C979 C 0.49026 0.02005 0.24089 0.0
N980 N 0.47552 0.021 0.22152 0.0
C981 C 0.49267 0.05483 0.22591 0.0
C982 C 0.50677 0.03666 0.25348 0.0
C983 C 0.47637 0.03789 0.21387 0.0
C984 C 0.53381 0.13091 0.25804 0.0
N985 N 0.52799 0.11327 0.2754 0.0
C986 C 0.504 0.11477 0.32093 0.0
C987 C 0.51329 0.10512 0.3061 0.0
C988 C 0.50988 0.13308 0.3042 0.0
C989 C 0.52489 0.1411 0.27202 0.0
H990 H 0.54561 0.13728 0.23413 0.0
H991 H 0.50903 0.0912 0.31992 0.0
C992 C 0.5469 0.04885 0.37058 0.0
N993 N 0.53508 0.0544 0.35209 0.0
C994 C 0.54109 0.03658 0.40868 0.0
C995 C 0.51114 0.03608 0.40804 0.0
C996 C 0.51753 0.04839 0.36999 0.0
C997 C 0.52303 0.03012 0.42765 0.0
H998 H 0.56087 0.05408 0.35585 0.0
H999 H 0.50854 0.0532 0.35472 0.0
C1000 C 0.57238 0.1149 0.17882 0.0
N1001 N 0.60031 0.13812 0.1167 0.0
C1002 C 0.57893 0.10707 0.1454 0.0
C1003 C 0.57981 0.13451 0.18016 0.0
C1004 C 0.59312 0.11905 0.11444 0.0
C1005 C 0.59399 0.14602 0.14861 0.0
C1006 C 0.5712 0.06209 0.24054 0.0
C1007 C 0.58639 0.07186 0.20996 0.0
C1008 C 0.56562 0.04345 0.25308 0.0
C1009 C 0.59557 0.06268 0.19174 0.0
C1010 C 0.57514 0.03474 0.23404 0.0
N1011 N 0.58978 0.04445 0.204 0.0
C1012 C 0.60663 0.10435 0.29886 0.0
C1013 C 0.60929 0.1327 0.26952 0.0
C1014 C 0.62553 0.1141 0.31392 0.0
N1015 N 0.59881 0.11363 0.27683 0.0
C1016 C 0.62832 0.14302 0.28397 0.0
C1017 C 0.63662 0.13371 0.30668 0.0
H1018 H 0.598 0.08936 0.30602 0.0
H1019 H 0.60279 0.1401 0.25396 0.0
C1020 C 0.53377 0.06415 0.11695 0.0
N1021 N 0.53734 0.05841 0.15829 0.0
C1022 C 0.52837 0.05226 0.07747 0.0
C1023 C 0.529 0.02826 0.12396 0.0
C1024 C 0.53428 0.04047 0.16247 0.0
C1025 C 0.5276 0.03444 0.07878 0.0
H1026 H 0.53489 0.07793 0.11459 0.0
H1027 H 0.53562 0.03537 0.19608 0.0
O1028 O 0.5557 0.09851 0.3179 0.0
O1029 O 0.52401 0.07058 0.25787 0.0
O1030 O 0.5584 0.10339 0.20922 0.0
O1031 O 0.56209 0.07084 0.25912 0.0
H1032 H 0.57278 0.09173 0.38734 0.0
H1033 H 0.5684 0.13536 0.31351 0.0
H1034 H 0.59709 0.11648 0.43878 0.0
H1035 H 0.59279 0.15934 0.36621 0.0
H1036 H 0.48916 0.0064 0.24649 0.0
H1037 H 0.49339 0.06829 0.21989 0.0
H1038 H 0.51852 0.03592 0.26874 0.0
H1039 H 0.4644 0.03817 0.19845 0.0
H1040 H 0.49251 0.10814 0.34581 0.0
H1041 H 0.52984 0.15521 0.25844 0.0
H1042 H 0.55057 0.03222 0.42333 0.0
H1043 H 0.49714 0.03133 0.42217 0.0
H1044 H 0.5731 0.09191 0.14329 0.0
H1045 H 0.57488 0.1408 0.20573 0.0
H1046 H 0.59838 0.11318 0.08854 0.0
H1047 H 0.59999 0.16124 0.14954 0.0
H1048 H 0.59124 0.08645 0.20092 0.0
H1049 H 0.55393 0.03571 0.27687 0.0
H1050 H 0.60735 0.07007 0.16801 0.0
H1051 H 0.57088 0.02027 0.24317 0.0
H1052 H 0.63138 0.10646 0.33174 0.0
H1053 H 0.63637 0.15819 0.27833 0.0
H1054 H 0.52437 0.05722 0.04722 0.0
H1055 H 0.52578 0.0139 0.13054 0.0
Li1056 Li 0.47402 0.93554 0.79883 0.0
Li1057 Li 0.4783 0.91283 0.7433 0.0
Li1058 Li 0.47404 0.93854 0.71479 0.0
Li1059 Li 0.44572 0.91149 0.74721 0.0
C1060 C 0.51052 0.95717 0.7428 0.0
N1061 N 0.54162 0.99109 0.71603 0.0
C1062 C 0.5267 0.9575 0.72538 0.0
C1063 C 0.51032 0.97415 0.74747 0.0
C1064 C 0.54224 0.97478 0.71185 0.0
C1065 C 0.52612 0.99113 0.73346 0.0
C1066 C 0.46571 0.89965 0.83574 0.0
C1067 C 0.45872 0.87736 0.89824 0.0
N1068 N 0.47744 0.88632 0.90955 0.0
C1069 C 0.48488 0.90864 0.84794 0.0
C1070 C 0.4525 0.88389 0.86102 0.0
C1071 C 0.49053 0.90169 0.8854 0.0
C1072 C 0.47038 0.95333 0.88446 0.0
N1073 N 0.48249 0.95068 0.85676 0.0
C1074 C 0.509 0.97357 0.90184 0.0
C1075 C 0.50147 0.96032 0.8655 0.0
C1076 C 0.49697 0.97703 0.93007 0.0
C1077 C 0.47735 0.96643 0.92154 0.0
H1078 H 0.45537 0.94578 0.87679 0.0
H1079 H 0.51094 0.95815 0.84333 0.0
C1080 C 0.50389 0.90504 0.69444 0.0
N1081 N 0.4908 0.89815 0.7293 0.0
C1082 C 0.51304 0.89522 0.67989 0.0
C1083 C 0.495 0.87106 0.73682 0.0
C1084 C 0.48624 0.88143 0.75052 0.0
C1085 C 0.50859 0.87795 0.70096 0.0
H1086 H 0.50697 0.91805 0.67713 0.0
H1087 H 0.47559 0.87594 0.77759 0.0
C1088 C 0.44997 0.9519 0.75584 0.0
N1089 N 0.43827 0.97832 0.74777 0.0
C1090 C 0.43401 0.94784 0.72919 0.0
C1091 C 0.45985 0.96935 0.77878 0.0
C1092 C 0.42836 0.9614 0.72543 0.0
C1093 C 0.45375 0.98253 0.77415 0.0
C1094 C 0.45822 0.91249 0.64684 0.0
C1095 C 0.44553 0.91811 0.63123 0.0
C1096 C 0.46815 0.90796 0.61448 0.0
C1097 C 0.44324 0.91945 0.58346 0.0
C1098 C 0.46546 0.90945 0.56697 0.0
N1099 N 0.45319 0.91515 0.55257 0.0
C1100 C 0.49562 0.95531 0.6348 0.0
C1101 C 0.47695 0.969 0.65582 0.0
C1102 C 0.50271 0.96716 0.59608 0.0
N1103 N 0.4829 0.95632 0.66368 0.0
C1104 C 0.48369 0.98114 0.61753 0.0
C1105 C 0.49664 0.98018 0.58723 0.0
H1106 H 0.50019 0.94517 0.6418 0.0
H1107 H 0.46698 0.96979 0.67884 0.0
C1108 C 0.40555 0.89919 0.75725 0.0
N1109 N 0.4184 0.89539 0.73694 0.0
C1110 C 0.38643 0.88938 0.74334 0.0
C1111 C 0.39388 0.87139 0.68923 0.0
C1112 C 0.41282 0.88155 0.70403 0.0
C1113 C 0.38048 0.87547 0.70838 0.0
H1114 H 0.41024 0.91036 0.78295 0.0
H1115 H 0.42323 0.87883 0.68797 0.0
O1116 O 0.49494 0.94035 0.75516 0.0
O1117 O 0.45987 0.90612 0.79904 0.0
O1118 O 0.45563 0.93874 0.76028 0.0
O1119 O 0.46102 0.91162 0.69355 0.0
H1120 H 0.52732 0.9446 0.72254 0.0
H1121 H 0.49797 0.97416 0.76103 0.0
H1122 H 0.55482 0.97522 0.69808 0.0
H1123 H 0.52604 1.00433 0.73635 0.0
H1124 H 0.44866 0.86516 0.91811 0.0
H1125 H 0.49531 0.92079 0.82861 0.0
H1126 H 0.43761 0.87676 0.8519 0.0
H1127 H 0.50531 0.9085 0.89522 0.0
H1128 H 0.5242 0.98137 0.90734 0.0
H1129 H 0.46759 0.96865 0.94255 0.0
H1130 H 0.52332 0.90094 0.65195 0.0
H1131 H 0.49112 0.85773 0.75375 0.0
H1132 H 0.4261 0.93444 0.71133 0.0
H1133 H 0.47209 0.97273 0.8 0.0
H1134 H 0.41609 0.95846 0.70474 0.0
H1135 H 0.46131 0.99609 0.79161 0.0
H1136 H 0.43771 0.92161 0.65578 0.0
H1137 H 0.47789 0.90341 0.62586 0.0
H1138 H 0.43359 0.92395 0.57094 0.0
H1139 H 0.47314 0.9061 0.54154 0.0
H1140 H 0.51275 0.96617 0.57321 0.0
H1141 H 0.47881 0.99112 0.61147 0.0
H1142 H 0.37649 0.89292 0.75888 0.0
H1143 H 0.38982 0.86078 0.66219 0.0
Li1144 Li 0.10019 0.56717 0.74329 0.0
Li1145 Li 0.07656 0.54027 0.79782 0.0
Li1146 Li 0.10049 0.53643 0.74298 0.0
Li1147 Li 0.07407 0.5388 0.71364 0.0
C1148 C 0.11541 0.56692 0.83252 0.0
N1149 N 0.13468 0.59229 0.90335 0.0
C1150 C 0.1064 0.57459 0.8587 0.0
C1151 C 0.13418 0.5721 0.84235 0.0
C1152 C 0.11639 0.5874 0.89441 0.0
C1153 C 0.1437 0.58498 0.87828 0.0
C1154 C 0.05754 0.55787 0.73732 0.0
C1155 C 0.02373 0.54508 0.73202 0.0
N1156 N 0.02653 0.55765 0.69754 0.0
C1157 C 0.06008 0.57073 0.70203 0.0
C1158 C 0.03922 0.54496 0.75254 0.0
C1159 C 0.04422 0.57036 0.68226 0.0
C1160 C 0.11419 0.59945 0.6857 0.0
N1161 N 0.11548 0.5946 0.73042 0.0
C1162 C 0.13696 0.62741 0.74855 0.0
C1163 C 0.12674 0.60821 0.76174 0.0
C1164 C 0.13563 0.63267 0.70272 0.0
C1165 C 0.12411 0.61839 0.67113 0.0
H1166 H 0.10534 0.58851 0.66109 0.0
H1167 H 0.12787 0.6043 0.79696 0.0
C1168 C 0.05909 0.51757 0.8813 0.0
N1169 N 0.06169 0.53293 0.85638 0.0
C1170 C 0.04651 0.5109 0.91936 0.0
C1171 C 0.0397 0.53612 0.90638 0.0
C1172 C 0.05252 0.54241 0.86896 0.0
C1173 C 0.03635 0.52002 0.93183 0.0
H1174 H 0.06631 0.51008 0.87074 0.0
H1175 H 0.05472 0.5546 0.84901 0.0
C1176 C 0.1182 0.56058 0.67106 0.0
N1177 N 0.15432 0.57803 0.63367 0.0
C1178 C 0.12076 0.56029 0.62299 0.0
C1179 C 0.13407 0.56969 0.70008 0.0
C1180 C 0.13912 0.5692 0.60477 0.0
C1181 C 0.15219 0.57845 0.68053 0.0
C1182 C 0.05857 0.5021 0.74099 0.0
C1183 C 0.06059 0.49424 0.69961 0.0
C1184 C 0.04171 0.49249 0.76636 0.0
C1185 C 0.04559 0.47699 0.68397 0.0
C1186 C 0.02707 0.47523 0.74963 0.0
N1187 N 0.02928 0.46791 0.7091 0.0
C1188 C 0.12659 0.5219 0.76273 0.0
C1189 C 0.11463 0.51807 0.686 0.0
C1190 C 0.13696 0.51296 0.75035 0.0
N1191 N 0.1156 0.52422 0.7306 0.0
C1192 C 0.12469 0.5091 0.67225 0.0
C1193 C 0.136 0.50639 0.70454 0.0
H1194 H 0.1273 0.52694 0.79793 0.0
H1195 H 0.10602 0.52018 0.66077 0.0
C1196 C 0.06294 0.53756 0.62078 0.0
N1197 N 0.05599 0.52997 0.66337 0.0
C1198 C 0.05105 0.53194 0.58197 0.0
C1199 C 0.02488 0.51105 0.63155 0.0
C1200 C 0.03728 0.51708 0.66943 0.0
C1201 C 0.03184 0.51847 0.5873 0.0
H1202 H 0.07773 0.54809 0.617 0.0
H1203 H 0.0319 0.51156 0.70362 0.0
O1204 O 0.10586 0.55429 0.79761 0.0
O1205 O 0.07287 0.55773 0.75636 0.0
O1206 O 0.10025 0.55175 0.68935 0.0
O1207 O 0.07306 0.51901 0.75683 0.0
H1208 H 0.09196 0.5709 0.85113 0.0
H1209 H 0.14132 0.56622 0.82242 0.0
H1210 H 0.10963 0.5935 0.91487 0.0
H1211 H 0.15825 0.58915 0.88626 0.0
H1212 H 0.00948 0.53505 0.7432 0.0
H1213 H 0.0741 0.58082 0.68979 0.0
H1214 H 0.03692 0.53461 0.77907 0.0
H1215 H 0.04599 0.58017 0.65472 0.0
H1216 H 0.14575 0.63806 0.77389 0.0
H1217 H 0.12276 0.62189 0.63549 0.0
H1218 H 0.04434 0.49844 0.93812 0.0
H1219 H 0.03222 0.54359 0.91497 0.0
H1220 H 0.1087 0.55315 0.59994 0.0
H1221 H 0.13248 0.57006 0.73727 0.0
H1222 H 0.14128 0.56906 0.56765 0.0
H1223 H 0.16456 0.58559 0.70262 0.0
H1224 H 0.07345 0.50153 0.67939 0.0
H1225 H 0.03986 0.49839 0.79832 0.0
H1226 H 0.0469 0.47083 0.65179 0.0
H1227 H 0.01391 0.46769 0.76878 0.0
H1228 H 0.14556 0.5111 0.77622 0.0
H1229 H 0.12362 0.50427 0.63665 0.0
H1230 H 0.05675 0.53801 0.54817 0.0
H1231 H 0.01004 0.50073 0.63666 0.0
Li1232 Li 0.47509 0.54199 0.8021 0.0
Li1233 Li 0.44691 0.53682 0.7448 0.0
Li1234 Li 0.47704 0.54041 0.71707 0.0
Li1235 Li 0.47801 0.56826 0.74773 0.0
C1236 C 0.45766 0.50384 0.74922 0.0
N1237 N 0.45676 0.47037 0.72719 0.0
C1238 C 0.44084 0.48818 0.73375 0.0
C1239 C 0.47394 0.50237 0.75414 0.0
C1240 C 0.44069 0.4714 0.72263 0.0
C1241 C 0.47323 0.48537 0.74262 0.0
C1242 C 0.46004 0.57098 0.81794 0.0
C1243 C 0.45158 0.59539 0.81463 0.0
N1244 N 0.46432 0.60499 0.84901 0.0
C1245 C 0.47304 0.58105 0.85321 0.0
C1246 C 0.4492 0.57816 0.79844 0.0
C1247 C 0.47498 0.59823 0.86848 0.0
C1248 C 0.49827 0.54673 0.88389 0.0
N1249 N 0.48235 0.53426 0.86017 0.0
C1250 C 0.47866 0.50895 0.91031 0.0
C1251 C 0.47244 0.51568 0.87314 0.0
C1252 C 0.49532 0.52138 0.93454 0.0
C1253 C 0.50503 0.54057 0.92122 0.0
H1254 H 0.50615 0.56137 0.87279 0.0
H1255 H 0.45995 0.50589 0.85376 0.0
C1256 C 0.41388 0.51215 0.6937 0.0
N1257 N 0.41967 0.52375 0.73163 0.0
C1258 C 0.39486 0.5028 0.67958 0.0
C1259 C 0.38773 0.51711 0.74424 0.0
C1260 C 0.407 0.52632 0.757 0.0
C1261 C 0.38148 0.50524 0.70484 0.0
H1262 H 0.42411 0.51019 0.67413 0.0
H1263 H 0.41182 0.53562 0.78697 0.0
C1264 C 0.51473 0.56474 0.7571 0.0
N1265 N 0.55271 0.57574 0.74976 0.0
C1266 C 0.5272 0.58136 0.73329 0.0
C1267 C 0.52166 0.55385 0.77759 0.0
C1268 C 0.54632 0.58664 0.72984 0.0
C1269 C 0.54088 0.55961 0.77338 0.0
C1270 C 0.46802 0.55624 0.64795 0.0
C1271 C 0.48666 0.56926 0.63527 0.0
C1272 C 0.45461 0.54621 0.61338 0.0
C1273 C 0.49166 0.57186 0.58822 0.0
C1274 C 0.46015 0.54922 0.56668 0.0
N1275 N 0.47841 0.56186 0.55518 0.0
C1276 C 0.47216 0.51639 0.64144 0.0
C1277 C 0.5044 0.53922 0.65459 0.0
C1278 C 0.47705 0.50925 0.60296 0.0
N1279 N 0.48579 0.531 0.66673 0.0
C1280 C 0.5099 0.53271 0.61601 0.0
C1281 C 0.49612 0.51756 0.58983 0.0
H1282 H 0.45741 0.51049 0.65069 0.0
H1283 H 0.51503 0.55109 0.67387 0.0
C1284 C 0.50503 0.60861 0.76014 0.0
N1285 N 0.48906 0.59562 0.73751 0.0
C1286 C 0.51422 0.62782 0.74723 0.0
C1287 C 0.49001 0.62019 0.68929 0.0
C1288 C 0.48129 0.60117 0.7033 0.0
C1289 C 0.50688 0.63375 0.71075 0.0
H1290 H 0.51104 0.60395 0.78712 0.0
H1291 H 0.46859 0.59069 0.68574 0.0
O1292 O 0.45817 0.52049 0.75957 0.0
O1293 O 0.45855 0.55461 0.80111 0.0
O1294 O 0.49597 0.55942 0.76113 0.0
O1295 O 0.46306 0.55312 0.694 0.0
H1296 H 0.42802 0.48894 0.73043 0.0
H1297 H 0.48703 0.51431 0.76617 0.0
H1298 H 0.42778 0.4592 0.71041 0.0
H1299 H 0.48579 0.48411 0.74589 0.0
H1300 H 0.44337 0.60119 0.7997 0.0
H1301 H 0.48167 0.57575 0.86825 0.0
H1302 H 0.43927 0.57063 0.77063 0.0
H1303 H 0.48504 0.60623 0.89564 0.0
H1304 H 0.47077 0.49406 0.91945 0.0
H1305 H 0.51794 0.5506 0.93891 0.0
H1306 H 0.39061 0.49375 0.64913 0.0
H1307 H 0.37782 0.51931 0.76468 0.0
H1308 H 0.52219 0.59003 0.71727 0.0
H1309 H 0.51237 0.54112 0.79673 0.0
H1310 H 0.55608 0.5994 0.7113 0.0
H1311 H 0.5464 0.55127 0.78899 0.0
H1312 H 0.49722 0.57709 0.66153 0.0
H1313 H 0.44008 0.53622 0.62238 0.0
H1314 H 0.50608 0.58179 0.578 0.0
H1315 H 0.44994 0.54149 0.53959 0.0
H1316 H 0.46607 0.49762 0.58315 0.0
H1317 H 0.52473 0.5395 0.60643 0.0
H1318 H 0.52718 0.63789 0.76469 0.0
H1319 H 0.48389 0.62422 0.66116 0.0
Li1320 Li 0.60977 0.80736 0.62861 0.0
Li1321 Li 0.58162 0.77699 0.59877 0.0
Li1322 Li 0.60586 0.80469 0.54479 0.0
Li1323 Li 0.58315 0.80852 0.59335 0.0
C1324 C 0.62308 0.78458 0.60929 0.0
N1325 N 0.64997 0.77959 0.65578 0.0
C1326 C 0.61773 0.76773 0.63331 0.0
C1327 C 0.64216 0.7988 0.60845 0.0
C1328 C 0.63153 0.76549 0.65667 0.0
C1329 C 0.65552 0.79604 0.63233 0.0
C1330 C 0.5736 0.79736 0.68274 0.0
C1331 C 0.54475 0.78845 0.7249 0.0
N1332 N 0.5539 0.80486 0.74967 0.0
C1333 C 0.58274 0.81413 0.7086 0.0
C1334 C 0.55448 0.78439 0.69093 0.0
C1335 C 0.57253 0.81765 0.74232 0.0
C1336 C 0.64054 0.83475 0.68313 0.0
N1337 N 0.62678 0.81623 0.67996 0.0
C1338 C 0.63628 0.80922 0.75248 0.0
C1339 C 0.62428 0.80354 0.71389 0.0
C1340 C 0.65071 0.82817 0.75623 0.0
C1341 C 0.65281 0.84108 0.72129 0.0
H1342 H 0.64189 0.84463 0.65631 0.0
H1343 H 0.61294 0.78899 0.71085 0.0
C1344 C 0.55835 0.7359 0.58192 0.0
N1345 N 0.56645 0.75002 0.6142 0.0
C1346 C 0.54826 0.71679 0.59594 0.0
C1347 C 0.55497 0.72703 0.67596 0.0
C1348 C 0.56487 0.74586 0.66051 0.0
C1349 C 0.54654 0.71218 0.64357 0.0
H1350 H 0.55984 0.73944 0.54529 0.0
H1351 H 0.57157 0.75723 0.68561 0.0
C1352 C 0.62195 0.84156 0.55764 0.0
N1353 N 0.64484 0.87155 0.49987 0.0
C1354 C 0.61415 0.85028 0.53081 0.0
C1355 C 0.6414 0.84809 0.555 0.0
C1356 C 0.62596 0.86542 0.50185 0.0
C1357 C 0.65272 0.86327 0.52564 0.0
C1358 C 0.56113 0.78825 0.5236 0.0
C1359 C 0.56276 0.80327 0.49667 0.0
C1360 C 0.54325 0.77251 0.53188 0.0
C1361 C 0.54639 0.8024 0.47886 0.0
C1362 C 0.52722 0.77215 0.51331 0.0
N1363 N 0.52911 0.78699 0.48748 0.0
C1364 C 0.63488 0.80635 0.48386 0.0
C1365 C 0.6194 0.82179 0.45224 0.0
C1366 C 0.64783 0.81262 0.4467 0.0
N1367 N 0.62116 0.81125 0.48668 0.0
C1368 C 0.63217 0.8285 0.41458 0.0
C1369 C 0.64677 0.8241 0.41181 0.0
H1370 H 0.63606 0.79783 0.51097 0.0
H1371 H 0.60842 0.82551 0.45454 0.0
C1372 C 0.57723 0.83946 0.61583 0.0
N1373 N 0.56772 0.82065 0.60493 0.0
C1374 C 0.56745 0.84869 0.63012 0.0
C1375 C 0.5381 0.81906 0.62297 0.0
C1376 C 0.54845 0.81041 0.60844 0.0
C1377 C 0.54762 0.83845 0.63425 0.0
H1378 H 0.59255 0.84725 0.61502 0.0
H1379 H 0.54109 0.79534 0.60183 0.0
O1380 O 0.60969 0.78723 0.58724 0.0
O1381 O 0.58325 0.79382 0.64902 0.0
O1382 O 0.6106 0.82662 0.586 0.0
O1383 O 0.57694 0.78891 0.54173 0.0
H1384 H 0.60309 0.75652 0.63408 0.0
H1385 H 0.64655 0.81195 0.59016 0.0
H1386 H 0.62757 0.75255 0.67558 0.0
H1387 H 0.67029 0.80701 0.63236 0.0
H1388 H 0.52992 0.77859 0.73148 0.0
H1389 H 0.5975 0.82439 0.70237 0.0
H1390 H 0.54719 0.77141 0.67089 0.0
H1391 H 0.57938 0.8306 0.76248 0.0
H1392 H 0.6343 0.79902 0.77921 0.0
H1393 H 0.66378 0.85583 0.72363 0.0
H1394 H 0.54196 0.70571 0.56993 0.0
H1395 H 0.55402 0.72405 0.71292 0.0
H1396 H 0.59911 0.8453 0.53185 0.0
H1397 H 0.64768 0.84143 0.57511 0.0
H1398 H 0.62009 0.87225 0.48078 0.0
H1399 H 0.66778 0.86845 0.52327 0.0
H1400 H 0.57651 0.81551 0.4899 0.0
H1401 H 0.54177 0.76078 0.55272 0.0
H1402 H 0.54741 0.81397 0.45819 0.0
H1403 H 0.51328 0.7601 0.51958 0.0
H1404 H 0.65881 0.80884 0.44568 0.0
H1405 H 0.63084 0.83726 0.38823 0.0
H1406 H 0.57533 0.8636 0.63903 0.0
H1407 H 0.52284 0.81061 0.62632 0.0
Li1408 Li 0.23673 0.80793 0.60116 0.0
Li1409 Li 0.20789 0.80562 0.63006 0.0
Li1410 Li 0.20561 0.77724 0.60033 0.0
Li1411 Li 0.20916 0.80425 0.54591 0.0
C1412 C 0.22991 0.78366 0.67323 0.0
N1413 N 0.24825 0.76607 0.71156 0.0
C1414 C 0.2323 0.78372 0.72144 0.0
C1415 C 0.23692 0.77469 0.64455 0.0
C1416 C 0.2416 0.77474 0.74013 0.0
C1417 C 0.24612 0.76586 0.66458 0.0
C1418 C 0.22975 0.84251 0.60289 0.0
C1419 C 0.22613 0.86997 0.59382 0.0
N1420 N 0.23567 0.8771 0.63444 0.0
C1421 C 0.23961 0.85017 0.64437 0.0
C1422 C 0.22301 0.8525 0.57726 0.0
C1423 C 0.24241 0.86765 0.65982 0.0
C1424 C 0.27747 0.82287 0.58189 0.0
N1425 N 0.26403 0.82012 0.61406 0.0
C1426 C 0.288 0.83457 0.67319 0.0
C1427 C 0.26903 0.82579 0.65902 0.0
C1428 C 0.30216 0.83767 0.64091 0.0
C1429 C 0.29674 0.83169 0.59466 0.0
H1430 H 0.27329 0.81823 0.54639 0.0
H1431 H 0.25821 0.82342 0.68422 0.0
C1432 C 0.19697 0.80596 0.72226 0.0
N1433 N 0.19857 0.81436 0.6803 0.0
C1434 C 0.19076 0.81155 0.76125 0.0
C1435 C 0.18747 0.83405 0.71304 0.0
C1436 C 0.19367 0.82796 0.67493 0.0
C1437 C 0.18613 0.82586 0.75677 0.0
H1438 H 0.20049 0.79487 0.72542 0.0
H1439 H 0.19445 0.83406 0.64112 0.0
C1440 C 0.22129 0.77751 0.51148 0.0
N1441 N 0.21518 0.75207 0.44083 0.0
C1442 C 0.20467 0.76991 0.48509 0.0
C1443 C 0.23483 0.77222 0.50196 0.0
C1444 C 0.20185 0.75706 0.44948 0.0
C1445 C 0.23146 0.75931 0.46612 0.0
C1446 C 0.17245 0.78691 0.60572 0.0
C1447 C 0.16157 0.77376 0.64 0.0
C1448 C 0.16772 0.8004 0.59128 0.0
C1449 C 0.14622 0.77443 0.65956 0.0
C1450 C 0.15221 0.80057 0.61158 0.0
N1451 N 0.14189 0.78771 0.64507 0.0
C1452 C 0.18688 0.74497 0.65761 0.0
C1453 C 0.19128 0.73623 0.58209 0.0
C1454 C 0.17779 0.72603 0.67223 0.0
N1455 N 0.19336 0.74982 0.61313 0.0
C1456 C 0.18223 0.71703 0.59532 0.0
C1457 C 0.17529 0.71176 0.64091 0.0
H1458 H 0.18877 0.75591 0.682 0.0
H1459 H 0.19659 0.74015 0.54707 0.0
C1460 C 0.21465 0.82703 0.46245 0.0
N1461 N 0.20179 0.81172 0.4874 0.0
C1462 C 0.20883 0.83379 0.42444 0.0
C1463 C 0.17669 0.80879 0.43753 0.0
C1464 C 0.18313 0.8024 0.47492 0.0
C1465 C 0.18955 0.82484 0.41205 0.0
H1466 H 0.22938 0.8344 0.47296 0.0
H1467 H 0.17305 0.79027 0.49493 0.0
O1468 O 0.22093 0.79255 0.65449 0.0
O1469 O 0.22682 0.82539 0.58719 0.0
O1470 O 0.22436 0.79015 0.54633 0.0
O1471 O 0.18785 0.78679 0.587 0.0
H1472 H 0.22714 0.79072 0.74421 0.0
H1473 H 0.23529 0.7745 0.60725 0.0
H1474 H 0.24356 0.7747 0.77737 0.0
H1475 H 0.25157 0.75885 0.64275 0.0
H1476 H 0.22092 0.87781 0.57447 0.0
H1477 H 0.24479 0.84258 0.6648 0.0
H1478 H 0.21526 0.84675 0.54522 0.0
H1479 H 0.24988 0.87367 0.69207 0.0
H1480 H 0.2916 0.83894 0.70912 0.0
H1481 H 0.3073 0.83381 0.5688 0.0
H1482 H 0.18969 0.80487 0.79459 0.0
H1483 H 0.18381 0.84502 0.70855 0.0
H1484 H 0.19396 0.77369 0.49241 0.0
H1485 H 0.24779 0.77804 0.52206 0.0
H1486 H 0.18902 0.75101 0.42885 0.0
H1487 H 0.24179 0.75505 0.45838 0.0
H1488 H 0.16499 0.76322 0.65159 0.0
H1489 H 0.17619 0.81095 0.56553 0.0
H1490 H 0.13775 0.7644 0.6863 0.0
H1491 H 0.1485 0.81104 0.601 0.0
H1492 H 0.17267 0.72253 0.70768 0.0
H1493 H 0.18058 0.70639 0.5702 0.0
H1494 H 0.21919 0.8462 0.40566 0.0
H1495 H 0.16173 0.80146 0.429 0.0
Li1496 Li 0.20584 0.43147 0.60448 0.0
Li1497 Li 0.20787 0.40445 0.63064 0.0
Li1498 Li 0.23646 0.43092 0.6033 0.0
Li1499 Li 0.20961 0.40805 0.54687 0.0
C1500 C 0.22964 0.44778 0.67812 0.0
N1501 N 0.24717 0.48324 0.71924 0.0
C1502 C 0.22945 0.44952 0.72652 0.0
C1503 C 0.23872 0.46411 0.65069 0.0
C1504 C 0.2384 0.46756 0.74663 0.0
C1505 C 0.24752 0.48189 0.67211 0.0
C1506 C 0.17128 0.39064 0.60591 0.0
C1507 C 0.14284 0.36008 0.6 0.0
N1508 N 0.13716 0.36291 0.64229 0.0
C1509 C 0.16509 0.39327 0.64918 0.0
C1510 C 0.16004 0.37393 0.581 0.0
C1511 C 0.14784 0.37907 0.66706 0.0
C1512 C 0.19073 0.45705 0.58512 0.0
N1513 N 0.19376 0.44669 0.61773 0.0
C1514 C 0.17928 0.45639 0.6764 0.0
C1515 C 0.18828 0.44635 0.66274 0.0
C1516 C 0.17582 0.46702 0.64359 0.0
C1517 C 0.18174 0.46738 0.59739 0.0
H1518 H 0.19521 0.45724 0.54956 0.0
H1519 H 0.19085 0.4382 0.68836 0.0
C1520 C 0.20344 0.39005 0.72252 0.0
N1521 N 0.1981 0.38499 0.67751 0.0
C1522 C 0.19611 0.37644 0.75786 0.0
C1523 C 0.17816 0.35263 0.69975 0.0
C1524 C 0.18595 0.36663 0.66561 0.0
C1525 C 0.18317 0.35755 0.74644 0.0
H1526 H 0.21332 0.40467 0.73099 0.0
H1527 H 0.18217 0.36285 0.62958 0.0
C1528 C 0.23642 0.44821 0.51629 0.0
N1529 N 0.26172 0.47014 0.44781 0.0
C1530 C 0.24408 0.44029 0.48625 0.0
C1531 C 0.24151 0.46724 0.51134 0.0
C1532 C 0.25687 0.45162 0.45186 0.0
C1533 C 0.25438 0.47811 0.47657 0.0
C1534 C 0.2277 0.38873 0.60577 0.0
C1535 C 0.23916 0.39123 0.64439 0.0
C1536 C 0.21677 0.37064 0.58656 0.0
C1537 C 0.23936 0.37556 0.66344 0.0
C1538 C 0.21739 0.35533 0.60655 0.0
N1539 N 0.22856 0.35808 0.64429 0.0
C1540 C 0.26881 0.44554 0.66167 0.0
C1541 C 0.27767 0.45609 0.58421 0.0
C1542 C 0.28779 0.45543 0.67604 0.0
N1543 N 0.26397 0.44596 0.61642 0.0
C1544 C 0.29692 0.46612 0.5971 0.0
C1545 C 0.30217 0.46584 0.6436 0.0
H1546 H 0.25788 0.43739 0.68691 0.0
H1547 H 0.2738 0.45637 0.54846 0.0
C1548 C 0.18558 0.38929 0.46627 0.0
N1549 N 0.20226 0.3937 0.4875 0.0
C1550 C 0.17887 0.37671 0.42821 0.0
C1551 C 0.2069 0.37391 0.43291 0.0
C1552 C 0.21304 0.38647 0.47094 0.0
C1553 C 0.18944 0.3686 0.41145 0.0
H1554 H 0.17709 0.39501 0.47991 0.0
H1555 H 0.22617 0.38992 0.48828 0.0
O1556 O 0.2208 0.43016 0.65798 0.0
O1557 O 0.18828 0.40428 0.58815 0.0
O1558 O 0.22372 0.43729 0.54981 0.0
O1559 O 0.22696 0.40384 0.58738 0.0
H1560 H 0.2224 0.43707 0.74836 0.0
H1561 H 0.23905 0.46312 0.61332 0.0
H1562 H 0.23834 0.46909 0.78403 0.0
H1563 H 0.25461 0.49463 0.65124 0.0
H1564 H 0.13406 0.34705 0.58121 0.0
H1565 H 0.17371 0.40595 0.66924 0.0
H1566 H 0.16465 0.37153 0.5477 0.0
H1567 H 0.14298 0.38086 0.70073 0.0
H1568 H 0.17495 0.45579 0.7123 0.0
H1569 H 0.17929 0.47543 0.57109 0.0
H1570 H 0.20027 0.38061 0.79367 0.0
H1571 H 0.16824 0.33812 0.68994 0.0
H1572 H 0.24039 0.42563 0.48987 0.0
H1573 H 0.23556 0.47354 0.53404 0.0
H1574 H 0.26298 0.4457 0.42851 0.0
H1575 H 0.25849 0.49288 0.47239 0.0
H1576 H 0.24763 0.40508 0.65985 0.0
H1577 H 0.20755 0.36834 0.55722 0.0
H1578 H 0.24806 0.37728 0.69353 0.0
H1579 H 0.20888 0.34124 0.59226 0.0
H1580 H 0.29124 0.45483 0.71218 0.0
H1581 H 0.30762 0.47396 0.57101 0.0
H1582 H 0.16534 0.373 0.41266 0.0
H1583 H 0.21549 0.36801 0.42107 0.0
C1584 C 0.18112 0.35964 0.32624 0.0
C1585 C 0.18201 0.35412 0.3727 0.0
C1586 C 0.17098 0.3215 0.34499 0.0
C1587 C 0.16866 0.32669 0.29925 0.0
N1588 N 0.16828 0.34998 0.24826 0.0
N1589 N 0.17436 0.32891 0.42758 0.0
C1590 C 0.17282 0.34559 0.29047 0.0
C1591 C 0.17597 0.33478 0.38239 0.0
N1592 N 0.18884 0.37845 0.31586 0.0
N1593 N 0.16908 0.30407 0.35251 0.0
H1594 H 0.17771 0.33809 0.45584 0.0
H1595 H 0.16811 0.31472 0.43724 0.0
H1596 H 0.16544 0.29399 0.32624 0.0
H1597 H 0.17267 0.30018 0.38376 0.0
H1598 H 0.19056 0.3836 0.28199 0.0
H1599 H 0.19503 0.38912 0.34089 0.0
H1600 H 0.16901 0.36287 0.24124 0.0
H1601 H 0.16215 0.34012 0.22139 0.0
C1602 C 0.67845 0.84924 0.37918 0.0
C1603 C 0.6612 0.8318 0.37313 0.0
C1604 C 0.67213 0.82815 0.29559 0.0
C1605 C 0.68883 0.84615 0.30045 0.0
N1606 N 0.70705 0.87489 0.34435 0.0
N1607 N 0.64055 0.80558 0.32391 0.0
C1608 C 0.69174 0.85697 0.34162 0.0
C1609 C 0.65777 0.82152 0.33081 0.0
N1610 N 0.6823 0.85821 0.42135 0.0
N1611 N 0.67019 0.81721 0.25759 0.0
H1612 H 0.62998 0.80003 0.3493 0.0
H1613 H 0.63617 0.79852 0.2922 0.0
H1614 H 0.68007 0.82181 0.23061 0.0
H1615 H 0.65953 0.80314 0.25402 0.0
H1616 H 0.69539 0.86975 0.43021 0.0
H1617 H 0.67273 0.85332 0.449 0.0
H1618 H 0.70899 0.88445 0.37072 0.0
H1619 H 0.71737 0.88073 0.31839 0.0
C1620 C 0.17857 0.82383 0.32873 0.0
C1621 C 0.18269 0.83249 0.37349 0.0
C1622 C 0.17221 0.85461 0.34645 0.0
C1623 C 0.16902 0.84659 0.30107 0.0
N1624 N 0.17049 0.82463 0.24744 0.0
N1625 N 0.18495 0.85703 0.42444 0.0
C1626 C 0.17257 0.83147 0.29186 0.0
C1627 C 0.17992 0.84815 0.38213 0.0
N1628 N 0.18011 0.80804 0.32177 0.0
N1629 N 0.16748 0.86821 0.35562 0.0
H1630 H 0.18968 0.85219 0.45207 0.0
H1631 H 0.18549 0.8698 0.43175 0.0
H1632 H 0.16258 0.87381 0.33011 0.0
H1633 H 0.1673 0.87324 0.38879 0.0
H1634 H 0.1753 0.79959 0.29213 0.0
H1635 H 0.18536 0.80265 0.34698 0.0
H1636 H 0.17485 0.81522 0.23663 0.0
H1637 H 0.16525 0.82915 0.22021 0.0
C1638 C 0.36243 0.18306 0.68319 0.0
C1639 C 0.35664 0.17954 0.63582 0.0
C1640 C 0.32313 0.16326 0.661 0.0
C1641 C 0.32892 0.16569 0.70839 0.0
N1642 N 0.354 0.17553 0.76478 0.0
N1643 N 0.33158 0.16402 0.57947 0.0
C1644 C 0.34857 0.17495 0.71949 0.0
C1645 C 0.33699 0.169 0.62473 0.0
N1646 N 0.38118 0.19464 0.6935 0.0
N1647 N 0.30437 0.15595 0.65065 0.0
H1648 H 0.34124 0.16821 0.55202 0.0
H1649 H 0.31771 0.15461 0.56936 0.0
H1650 H 0.29384 0.15129 0.67611 0.0
H1651 H 0.29932 0.15576 0.61725 0.0
H1652 H 0.38621 0.19959 0.72686 0.0
H1653 H 0.39169 0.20049 0.66803 0.0
H1654 H 0.3679 0.18013 0.77494 0.0
H1655 H 0.34435 0.17004 0.79223 0.0
C1656 C 0.8385 0.1878 0.6836 0.0
C1657 C 0.83493 0.17953 0.63844 0.0
C1658 C 0.84405 0.15647 0.66636 0.0
C1659 C 0.84855 0.16535 0.71085 0.0
N1660 N 0.85146 0.19029 0.76136 0.0
N1661 N 0.83554 0.15697 0.58529 0.0
C1662 C 0.84614 0.18126 0.71927 0.0
C1663 C 0.83805 0.16411 0.62948 0.0
N1664 N 0.83423 0.20174 0.69255 0.0
N1665 N 0.84527 0.14048 0.65963 0.0
H1666 H 0.83025 0.16147 0.55813 0.0
H1667 H 0.83958 0.14731 0.57453 0.0
H1668 H 0.85052 0.13509 0.6848 0.0
H1669 H 0.84019 0.1319 0.63027 0.0
H1670 H 0.83433 0.207 0.72561 0.0
H1671 H 0.82946 0.20745 0.66699 0.0
H1672 H 0.85229 0.20321 0.76847 0.0
H1673 H 0.85609 0.18537 0.78906 0.0
C1674 C 0.84657 0.66781 0.72061 0.0
C1675 C 0.84889 0.68608 0.71228 0.0
C1676 C 0.83675 0.67623 0.63224 0.0
C1677 C 0.83533 0.65829 0.63982 0.0
N1678 N 0.84057 0.63751 0.68929 0.0
N1679 N 0.84812 0.70852 0.65916 0.0
C1680 C 0.84072 0.65425 0.68354 0.0
C1681 C 0.8445 0.69049 0.66775 0.0
N1682 N 0.84963 0.66332 0.76441 0.0
N1683 N 0.83038 0.6795 0.59118 0.0
H1684 H 0.85307 0.71905 0.68463 0.0
H1685 H 0.84739 0.71349 0.62632 0.0
H1686 H 0.82544 0.66983 0.56372 0.0
H1687 H 0.82887 0.69126 0.58502 0.0
H1688 H 0.84617 0.64972 0.7747 0.0
H1689 H 0.85468 0.67305 0.79175 0.0
H1690 H 0.84635 0.63442 0.71795 0.0
H1691 H 0.8356 0.62695 0.66388 0.0
C1692 C 0.01275 0.51377 0.05197 0.0
C1693 C 0.99407 0.49861 0.04296 0.0
C1694 C 1.00339 0.4968 0.962 0.0
C1695 C 0.02184 0.51248 0.97045 0.0
N1696 N 0.04377 0.53703 0.02185 0.0
N1697 N 0.97091 0.47673 0.98877 0.0
C1698 C 0.02641 0.52127 0.01506 0.0
C1699 C 0.98923 0.49042 0.99773 0.0
N1700 N 0.0175 0.52081 0.09623 0.0
N1701 N 0.9995 0.48782 0.9198 0.0
H1702 H 0.96043 0.47114 0.01436 0.0
H1703 H 0.96568 0.47157 0.95569 0.0
H1704 H 1.00906 0.49263 0.8921 0.0
H1705 H 0.98727 0.47504 0.91262 0.0
H1706 H 0.03126 0.53026 0.10699 0.0
H1707 H 1.00772 0.51643 0.12341 0.0
H1708 H 0.04745 0.54557 0.05133 0.0
H1709 H 0.05442 0.54229 0.99667 0.0
C1710 C 0.51054 0.51324 0.05547 0.0
C1711 C 0.51635 0.49982 0.04502 0.0
C1712 C 0.5105 0.50233 0.96168 0.0
C1713 C 0.50282 0.51417 0.97272 0.0
N1714 N 0.49292 0.52858 0.03132 0.0
N1715 N 0.51913 0.4794 0.98873 0.0
C1716 C 0.50217 0.51902 0.01999 0.0
C1717 C 0.51561 0.4938 0.99821 0.0
N1718 N 0.5136 0.52096 0.09906 0.0
N1719 N 0.51352 0.49972 0.91615 0.0
H1720 H 0.5229 0.47282 0.01433 0.0
H1721 H 0.51675 0.47289 0.95629 0.0
H1722 H 0.51013 0.5058 0.88853 0.0
H1723 H 0.52094 0.49299 0.90588 0.0
H1724 H 0.51162 0.53227 0.10762 0.0
H1725 H 0.51977 0.51722 0.12578 0.0
H1726 H 0.49008 0.5307 0.06545 0.0
H1727 H 0.4866 0.53301 0.00654 0.0
C1728 C 0.51865 0.02545 0.99122 0.0
C1729 C 0.52349 0.02142 0.03579 0.0
C1730 C 0.51373 0.98914 0.00746 0.0
C1731 C 0.5053 0.99206 0.96739 0.0
N1732 N 0.49959 0.01351 0.92141 0.0
N1733 N 0.53854 1.00442 0.06463 0.0
C1734 C 0.50757 0.01032 0.95961 0.0
C1735 C 0.52465 1.00455 0.03836 0.0
N1736 N 0.52796 0.04359 0.97491 0.0
N1737 N 0.51112 0.97155 0.01668 0.0
H1738 H 0.54908 0.0167 0.08067 0.0
H1739 H 0.54128 0.99322 0.06456 0.0
H1740 H 0.5032 0.95989 0.99512 0.0
H1741 H 0.51541 0.96829 0.04783 0.0
H1742 H 0.52614 0.04729 0.94138 0.0
H1743 H 0.54005 0.05412 0.99157 0.0
H1744 H 0.49919 0.02601 0.91692 0.0
H1745 H 0.49225 1.00324 0.89605 0.0
C1746 C 0.15023 0.32654 0.84313 0.0
C1747 C 0.15867 0.31545 0.85432 0.0
C1748 C 0.17969 0.32874 0.78719 0.0
C1749 C 0.17443 0.34284 0.7831 0.0
N1750 N 0.15339 0.35445 0.80484 0.0
N1751 N 0.16781 0.29632 0.80948 0.0
C1752 C 0.15922 0.3415 0.81024 0.0
C1753 C 0.16973 0.3136 0.8188 0.0
N1754 N 0.13227 0.32086 0.85808 0.0
N1755 N 0.19427 0.32979 0.76143 0.0
H1756 H 0.15725 0.28403 0.82542 0.0
H1757 H 0.17438 0.29389 0.78128 0.0
H1758 H 0.20204 0.3407 0.73783 0.0
H1759 H 0.19948 0.32055 0.76659 0.0
H1760 H 0.12456 0.32727 0.84764 0.0
H1761 H 0.12424 0.30806 0.87574 0.0
H1762 H 0.14386 0.35534 0.82748 0.0
H1763 H 0.15887 0.365 0.7794 0.0
C1764 C 0.67978 0.83233 0.79678 0.0
C1765 C 0.66357 0.83452 0.79703 0.0
C1766 C 0.67235 0.84962 0.87386 0.0
C1767 C 0.68781 0.84621 0.87501 0.0
N1768 N 0.70528 0.83253 0.84097 0.0
N1769 N 0.64282 0.84293 0.8371 0.0
C1770 C 0.69127 0.83706 0.83737 0.0
C1771 C 0.65941 0.84255 0.83594 0.0
N1772 N 0.68442 0.82616 0.75728 0.0
N1773 N 0.67033 0.85998 0.90857 0.0
H1774 H 0.63319 0.83827 0.80952 0.0
H1775 H 0.63788 0.84661 0.86645 0.0
H1776 H 0.67925 0.86495 0.93751 0.0
H1777 H 0.66069 0.86482 0.90733 0.0
H1778 H 0.69713 0.82622 0.75289 0.0
H1779 H 0.6761 0.82217 0.72724 0.0
H1780 H 0.70719 0.82399 0.81719 0.0
H1781 H 0.71432 0.83625 0.86962 0.0
C1782 C 0.18744 0.8484 0.8738 0.0
C1783 C 0.16854 0.84481 0.8768 0.0
C1784 C 0.16074 0.82732 0.80308 0.0
C1785 C 0.18004 0.83242 0.79805 0.0
N1786 N 0.21248 0.85048 0.82424 0.0
N1787 N 0.13796 0.83373 0.8411 0.0
C1788 C 0.19361 0.84371 0.83223 0.0
C1789 C 0.15537 0.83505 0.84053 0.0
N1790 N 0.19931 0.85578 0.91123 0.0
N1791 N 0.14746 0.81465 0.77288 0.0
H1792 H 0.13352 0.83924 0.86791 0.0
H1793 H 0.12854 0.82861 0.8132 0.0
H1794 H 0.15086 0.80869 0.74498 0.0
H1795 H 0.13293 0.80882 0.77769 0.0
H1796 H 0.21256 0.85681 0.91297 0.0
H1797 H 0.19529 0.8594 0.94234 0.0
H1798 H 0.22318 0.86045 0.8455 0.0
H1799 H 0.21758 0.84741 0.7941 0.0
C1800 C 0.34947 0.19225 0.19155 0.0
C1801 C 0.35504 0.17978 0.21103 0.0
C1802 C 0.33558 0.15532 0.15396 0.0
C1803 C 0.33123 0.16832 0.13223 0.0
N1804 N 0.33595 0.1999 0.12551 0.0
N1805 N 0.3558 0.15059 0.20773 0.0
C1806 C 0.3387 0.18701 0.1497 0.0
C1807 C 0.34875 0.1616 0.1914 0.0
N1808 N 0.35405 0.20885 0.2138 0.0
N1809 N 0.32669 0.13683 0.13962 0.0
H1810 H 0.36525 0.15458 0.2356 0.0
H1811 H 0.35345 0.13815 0.19158 0.0
H1812 H 0.31716 0.13175 0.11187 0.0
H1813 H 0.32761 0.12616 0.15731 0.0
H1814 H 0.34868 0.21758 0.20426 0.0
H1815 H 0.36208 0.21323 0.24428 0.0
H1816 H 0.34273 0.21428 0.13356 0.0
H1817 H 0.32798 0.19651 0.09495 0.0
C1818 C 0.86122 0.18049 0.16587 0.0
C1819 C 0.84774 0.16665 0.13522 0.0
C1820 C 0.82182 0.1658 0.18051 0.0
C1821 C 0.83523 0.17831 0.2135 0.0
N1822 N 0.86739 0.19533 0.24194 0.0
N1823 N 0.81525 0.14387 0.11667 0.0
C1824 C 0.85487 0.18506 0.20739 0.0
C1825 C 0.82802 0.15866 0.14343 0.0
N1826 N 0.88005 0.18967 0.15457 0.0
N1827 N 0.80327 0.16123 0.18381 0.0
H1828 H 0.81925 0.13832 0.08904 0.0
H1829 H 0.80082 0.13608 0.12413 0.0
H1830 H 0.79818 0.16616 0.21053 0.0
H1831 H 0.79323 0.15387 0.15807 0.0
H1832 H 0.89035 0.20133 0.17287 0.0
H1833 H 0.88525 0.18669 0.12447 0.0
H1834 H 0.88157 0.19889 0.24178 0.0
H1835 H 0.86328 0.19899 0.27284 0.0
C1836 C 0.83088 0.66739 0.13358 0.0
C1837 C 0.84876 0.6843 0.13523 0.0
C1838 C 0.85451 0.6762 0.21347 0.0
C1839 C 0.8361 0.65999 0.2131 0.0
N1840 N 0.8058 0.64091 0.17592 0.0
N1841 N 0.87686 0.70617 0.17755 0.0
C1842 C 0.82401 0.65576 0.17393 0.0
C1843 C 0.8604 0.68909 0.17543 0.0
N1844 N 0.82066 0.66231 0.09309 0.0
N1845 N 0.86652 0.67899 0.24975 0.0
H1846 H 0.88194 0.71569 0.14979 0.0
H1847 H 0.88492 0.71153 0.20765 0.0
H1848 H 0.86253 0.67008 0.27869 0.0
H1849 H 0.88081 0.6893 0.24994 0.0
H1850 H 0.80856 0.6492 0.08775 0.0
H1851 H 0.82497 0.67078 0.06333 0.0
H1852 H 0.79556 0.63827 0.15083 0.0
H1853 H 0.80044 0.63179 0.20442 0.0
C1854 C 0.99346 0.51235 0.5018 0.0
C1855 C 0.99495 0.50046 0.46797 0.0
C1856 C 0.01934 0.49895 0.5147 0.0
C1857 C 0.01901 0.51215 0.5464 0.0
N1858 N 1.00795 0.53365 0.56723 0.0
N1859 N 0.01104 0.48461 0.43801 0.0
C1860 C 1.00666 0.51948 0.53917 0.0
C1861 C 1.00838 0.49434 0.47325 0.0
N1862 N 0.97907 0.51635 0.49894 0.0
N1863 N 0.02971 0.49043 0.52493 0.0
H1864 H 1.00319 0.48087 0.40723 0.0
H1865 H 0.02202 0.48157 0.43754 0.0
H1866 H 0.03801 0.49354 0.55485 0.0
H1867 H 0.02891 0.47918 0.50586 0.0
H1868 H 0.97595 0.52318 0.52519 0.0
H1869 H 0.96919 0.51147 0.4719 0.0
H1870 H 1.00084 0.54105 0.56065 0.0
H1871 H 0.01732 0.5391 0.59525 0.0
C1872 C 0.51271 0.50166 0.55408 0.0
C1873 C 0.50174 0.51063 0.54832 0.0
C1874 C 0.50073 0.50542 0.46407 0.0
C1875 C 0.51352 0.4985 0.46939 0.0
N1876 N 0.53455 0.49337 0.51867 0.0
N1877 N 0.48817 0.52421 0.49719 0.0
C1878 C 0.52031 0.49753 0.51422 0.0
C1879 C 0.49651 0.51339 0.5031 0.0
N1880 N 0.51539 0.49657 0.59753 0.0
N1881 N 0.49214 0.50383 0.42211 0.0
H1882 H 0.48509 0.53055 0.52481 0.0
H1883 H 0.48589 0.52836 0.46465 0.0
H1884 H 0.49464 0.49782 0.39284 0.0
H1885 H 0.48123 0.50684 0.4175 0.0
H1886 H 0.52159 0.48825 0.60331 0.0
H1887 H 0.50978 0.49909 0.62757 0.0
H1888 H 0.5414 0.49443 0.55008 0.0
H1889 H 0.54079 0.49062 0.49027 0.0
C1890 C 0.49609 0.98565 0.50146 0.0
C1891 C 0.50379 0.99283 0.54612 0.0
C1892 C 0.52328 0.02467 0.51355 0.0
C1893 C 0.5166 0.01722 0.46841 0.0
N1894 N 0.49911 0.99033 0.41784 0.0
N1895 N 0.52683 0.01817 0.59418 0.0
C1896 C 0.50369 0.9976 0.4619 0.0
C1897 C 0.51801 0.01207 0.55204 0.0
N1898 N 0.48111 0.9676 0.49711 0.0
N1899 N 0.53415 0.04383 0.5198 0.0
H1900 H 0.52325 0.00936 0.62327 0.0
H1901 H 0.5387 0.03147 0.59944 0.0
H1902 H 0.53843 0.05351 0.49239 0.0
H1903 H 0.53769 0.05029 0.55239 0.0
H1904 H 0.47349 0.96224 0.46639 0.0
H1905 H 0.47529 0.95835 0.52523 0.0
H1906 H 0.49143 0.97587 0.41067 0.0
H1907 H 0.50429 0.99869 0.38802 0.0
C1908 C 0.17608 0.181 0.02647 0.0
C1909 C 0.18502 0.20109 0.02407 0.0
C1910 C 0.21282 0.20226 0.98647 0.0
C1911 C 0.20439 0.1823 0.99165 0.0
N1912 N 0.1791 0.15282 0.02152 0.0
N1913 N 0.21279 0.23117 0.00753 0.0
C1914 C 0.18631 0.17171 0.01305 0.0
C1915 C 0.20365 0.2118 0.0056 0.0
N1916 N 0.15757 0.17076 0.04037 0.0
N1917 N 0.22943 0.21204 0.9623 0.0
H1918 H 0.20645 0.23862 0.02057 0.0
H1919 H 0.22706 0.23988 0.99954 0.0
H1920 H 0.23675 0.20564 0.94885 0.0
H1921 H 0.23532 0.22618 0.95258 0.0
H1922 H 0.14945 0.15607 0.03796 0.0
H1923 H 0.14983 0.17707 0.0515 0.0
H1924 H 0.1671 0.14467 0.04168 0.0
H1925 H 0.18587 0.14544 0.01092 0.0
C1926 C 0.84354 0.01642 1.00478 0.0
C1927 C 0.83289 0.02515 0.99152 0.0
C1928 C 0.8033 0.99587 0.0121 0.0
C1929 C 0.81389 0.98682 0.02288 0.0
N1930 N 0.84379 0.98753 0.02497 0.0
N1931 N 0.80264 0.02287 0.97793 0.0
C1932 C 0.83395 0.99687 0.01798 0.0
C1933 C 0.81275 0.01475 0.99389 0.0
N1934 N 0.8629 0.02699 0.0056 0.0
N1935 N 0.78419 0.9865 0.02024 0.0
H1936 H 0.80903 0.03684 0.96612 0.0
H1937 H 0.78801 0.01555 0.97353 0.0
H1938 H 0.77673 0.97252 0.03202 0.0
H1939 H 0.77583 0.99281 0.01828 0.0
H1940 H 0.87157 0.02234 0.02003 0.0
H1941 H 0.87042 0.04102 0.9942 0.0
H1942 H 0.85806 0.99318 0.01687 0.0
H1943 H 0.83738 0.97351 0.03637 0.0
C1944 C 0.99374 0.81358 0.0368 0.0
C1945 C 0.98997 0.8101 0.98836 0.0
C1946 C 0.02436 0.82711 0.97283 0.0
C1947 C 0.02807 0.82916 0.02149 0.0
N1948 N 0.01638 0.82231 0.10019 0.0
N1949 N 1.00156 0.81134 0.91056 0.0
C1950 C 0.01276 0.82186 0.05358 0.0
C1951 C 1.00528 0.81632 0.95643 0.0
N1952 N 0.97912 0.80946 0.0667 0.0
N1953 N 0.03912 0.83592 0.94222 0.0
H1954 H 0.98783 0.80368 0.89724 0.0
H1955 H 0.01195 0.8135 0.88633 0.0
H1956 H 0.05323 0.84371 0.95285 0.0
H1957 H 0.03735 0.83681 0.9066 0.0
H1958 H 0.98099 0.81352 0.10153 0.0
H1959 H 0.96507 0.80324 0.05574 0.0
H1960 H 1.00588 0.81533 0.12516 0.0
H1961 H 0.03007 0.82855 0.11378 0.0
C1962 C 0.83662 0.82849 0.97243 0.0
C1963 C 0.83211 0.81052 0.991 0.0
C1964 C 0.80772 0.81097 0.04135 0.0
C1965 C 0.81265 0.82922 0.02391 0.0
N1966 N 0.83217 0.85593 0.97475 0.0
N1967 N 0.81412 0.78481 0.04422 0.0
C1968 C 0.82722 0.83812 0.98991 0.0
C1969 C 0.81783 0.80181 0.02575 0.0
N1970 N 0.84979 0.83622 0.93761 0.0
N1971 N 0.79311 0.8023 0.07245 0.0
H1972 H 0.82018 0.77705 0.03151 0.0
H1973 H 0.80563 0.77853 0.07321 0.0
H1974 H 0.78624 0.80898 0.08689 0.0
H1975 H 0.78714 0.78824 0.08292 0.0
H1976 H 0.85258 0.84824 0.9188 0.0
H1977 H 0.85759 0.83009 0.92569 0.0
H1978 H 0.84381 0.86426 0.95375 0.0
H1979 H 0.825 0.86296 0.98479 0.0
C1980 C 0.17756 1.00017 0.03482 0.0
C1981 C 0.18334 0.98718 0.02004 0.0
C1982 C 0.20945 0.01273 0.97521 0.0
C1983 C 0.20284 0.02535 0.9873 0.0
N1984 N 0.17867 0.0302 0.022 0.0
N1985 N 0.20264 0.98017 0.96937 0.0
C1986 C 0.18631 0.01879 0.01522 0.0
C1987 C 0.19869 0.99322 0.98826 0.0
N1988 N 0.16414 0.99494 0.06888 0.0
N1989 N 0.22643 0.01954 0.95276 0.0
H1990 H 0.19513 0.96581 0.97797 0.0
H1991 H 0.21222 0.98323 0.94224 0.0
H1992 H 0.23465 0.03363 0.94235 0.0
H1993 H 0.23311 0.01162 0.94776 0.0
H1994 H 0.16078 1.00435 0.08495 0.0
H1995 H 0.15741 0.98149 0.08394 0.0
H1996 H 0.16558 0.02562 0.03776 0.0
H1997 H 0.18464 0.04384 0.00817 0.0
C1998 C 0.99418 0.18684 0.03755 0.0
C1999 C 0.99049 0.18187 0.98967 0.0
C2000 C 0.02464 0.19443 0.97666 0.0
C2001 C 0.02849 0.20098 0.02347 0.0
N2002 N 0.01721 0.20553 0.09715 0.0
N2003 N 1.00231 0.18298 0.91221 0.0
C2004 C 0.01331 0.1977 0.0536 0.0
C2005 C 1.00577 0.18619 0.95885 0.0
N2006 N 0.97936 0.18072 0.06798 0.0
N2007 N 0.039 0.19566 0.94955 0.0
H2008 H 0.98871 0.17676 0.89803 0.0
H2009 H 0.01295 0.18774 0.88716 0.0
H2010 H 0.05293 0.20166 0.96136 0.0
H2011 H 0.03691 0.18937 0.9169 0.0
H2012 H 0.98099 0.18197 0.10397 0.0
H2013 H 0.96523 0.17297 0.05748 0.0
H2014 H 1.00703 0.20558 0.11895 0.0
H2015 H 0.03095 0.21328 0.11034 0.0
C2016 C 0.85812 0.53784 0.30885 0.0
C2017 C 0.85103 0.53473 0.35521 0.0
C2018 C 0.86189 0.51168 0.36714 0.0
C2019 C 0.87 0.51564 0.32179 0.0
N2020 N 0.87757 0.53373 0.25087 0.0
N2021 N 0.8476 0.5202 0.43022 0.0
C2022 C 0.86856 0.52907 0.29303 0.0
C2023 C 0.85332 0.52204 0.38481 0.0
N2024 N 0.85456 0.54895 0.27965 0.0
N2025 N 0.86213 0.49771 0.39302 0.0
H2026 H 0.84064 0.52696 0.44379 0.0
H2027 H 0.8507 0.51296 0.45534 0.0
H2028 H 0.86881 0.49033 0.38191 0.0
H2029 H 0.85474 0.49252 0.42407 0.0
H2030 H 0.85729 0.55011 0.24406 0.0
H2031 H 0.84771 0.55622 0.29041 0.0
H2032 H 0.87909 0.54494 0.23037 0.0
H2033 H 0.88463 0.52708 0.23734 0.0
C2034 C 0.51026 0.34808 0.32671 0.0
C2035 C 0.50022 0.3581 0.32217 0.0
C2036 C 0.47132 0.33026 0.35236 0.0
C2037 C 0.48108 0.31989 0.35441 0.0
N2038 N 0.50917 0.31801 0.33926 0.0
N2039 N 0.47085 0.35842 0.32599 0.0
C2040 C 0.50039 0.32858 0.34038 0.0
C2041 C 0.48063 0.34907 0.33373 0.0
N2042 N 0.52938 0.35739 0.31888 0.0
N2043 N 0.4532 0.3222 0.36908 0.0
H2044 H 0.47728 0.37236 0.31398 0.0
H2045 H 0.45618 0.3521 0.32852 0.0
H2046 H 0.44572 0.30829 0.38133 0.0
H2047 H 0.4459 0.32952 0.37369 0.0
H2048 H 0.53806 0.35178 0.32666 0.0
H2049 H 0.53691 0.37135 0.30701 0.0
H2050 H 0.52241 0.32261 0.32435 0.0
H2051 H 0.50272 0.30402 0.3509 0.0
C2052 C 0.66039 0.14864 0.37226 0.0
C2053 C 0.65671 0.14442 0.32406 0.0
C2054 C 0.69112 0.16078 0.30913 0.0
C2055 C 0.69473 0.1634 0.3578 0.0
N2056 N 0.68274 0.15758 0.43632 0.0
N2057 N 0.66843 0.14422 0.24719 0.0
C2058 C 0.67933 0.15676 0.38954 0.0
C2059 C 0.67206 0.14992 0.29263 0.0
N2060 N 0.64579 0.14534 0.40141 0.0
N2061 N 0.70591 0.16918 0.27855 0.0
H2062 H 0.65474 0.13651 0.23371 0.0
H2063 H 0.67887 0.14583 0.2237 0.0
H2064 H 0.71999 0.17715 0.28929 0.0
H2065 H 0.7042 0.16962 0.24274 0.0
H2066 H 0.64769 0.14996 0.43582 0.0
H2067 H 0.6318 0.13934 0.39008 0.0
H2068 H 0.67209 0.15108 0.46117 0.0
H2069 H 0.69635 0.16351 0.45028 0.0
C2070 C 0.50422 0.15145 0.36728 0.0
C2071 C 0.50055 0.14388 0.32138 0.0
C2072 C 0.47953 0.1571 0.30834 0.0
C2073 C 0.48172 0.16298 0.35567 0.0
N2074 N 0.49416 0.16351 0.43207 0.0
N2075 N 0.48271 0.13722 0.25014 0.0
C2076 C 0.49357 0.15958 0.38563 0.0
C2077 C 0.48769 0.14614 0.29238 0.0
N2078 N 0.51832 0.15138 0.39293 0.0
N2079 N 0.47009 0.16248 0.27823 0.0
H2080 H 0.48845 0.12921 0.23713 0.0
H2081 H 0.47183 0.13648 0.22962 0.0
H2082 H 0.46387 0.17039 0.2886 0.0
H2083 H 0.46978 0.16051 0.24236 0.0
H2084 H 0.52313 0.15846 0.42453 0.0
H2085 H 0.52641 0.1456 0.38074 0.0
H2086 H 0.50077 0.15941 0.45671 0.0
H2087 H 0.4867 0.16957 0.44668 0.0
C2088 C 0.86968 0.32979 0.34875 0.0
C2089 C 0.84977 0.3201 0.35637 0.0
C2090 C 0.84903 0.34905 0.33487 0.0
C2091 C 0.8687 0.35832 0.32427 0.0
N2092 N 0.89742 0.357 0.31556 0.0
N2093 N 0.81997 0.31951 0.35138 0.0
C2094 C 0.87892 0.34852 0.32969 0.0
C2095 C 0.8393 0.32949 0.34799 0.0
N2096 N 0.87983 0.32123 0.36089 0.0
N2097 N 0.83973 0.35912 0.33347 0.0
H2098 H 0.81245 0.30539 0.36204 0.0
H2099 H 0.81126 0.32474 0.34068 0.0
H2100 H 0.84621 0.37323 0.32273 0.0
H2101 H 0.82601 0.35398 0.34584 0.0
H2102 H 0.89457 0.32813 0.36124 0.0
H2103 H 0.87353 0.30746 0.37404 0.0
H2104 H 0.90515 0.35001 0.31353 0.0
H2105 H 0.90475 0.37079 0.3025 0.0
C2106 C 0.66037 0.50787 0.36521 0.0
C2107 C 0.65589 0.51482 0.32457 0.0
C2108 C 0.68957 0.53939 0.31656 0.0
C2109 C 0.6938 0.53323 0.35889 0.0
N2110 N 0.68316 0.51298 0.42627 0.0
N2111 N 0.66563 0.53826 0.26391 0.0
C2112 C 0.67915 0.51782 0.38394 0.0
C2113 C 0.67036 0.53088 0.30089 0.0
N2114 N 0.64666 0.49153 0.38544 0.0
N2115 N 0.70403 0.55316 0.29081 0.0
H2116 H 0.65194 0.53198 0.25028 0.0
H2117 H 0.6749 0.55118 0.24837 0.0
H2118 H 0.71812 0.56015 0.30183 0.0
H2119 H 0.70237 0.55686 0.2572 0.0
H2120 H 0.64928 0.48444 0.41192 0.0
H2121 H 0.6327 0.48423 0.37359 0.0
H2122 H 0.6729 0.50338 0.449 0.0
H2123 H 0.6968 0.51953 0.4403 0.0
C2124 C 0.53927 0.85426 0.69881 0.0
C2125 C 0.53702 0.84793 0.65185 0.0
C2126 C 0.51403 0.8588 0.63951 0.0
C2127 C 0.51796 0.86706 0.6847 0.0
N2128 N 0.53673 0.8752 0.75478 0.0
N2129 N 0.52441 0.84684 0.57526 0.0
C2130 C 0.53122 0.86544 0.71371 0.0
C2131 C 0.52493 0.85089 0.6216 0.0
N2132 N 0.54862 0.84908 0.7297 0.0
N2133 N 0.49944 0.85798 0.61416 0.0
H2134 H 0.53223 0.84117 0.56074 0.0
H2135 H 0.51755 0.85063 0.55056 0.0
H2136 H 0.49101 0.86339 0.62622 0.0
H2137 H 0.49456 0.8504 0.58319 0.0
H2138 H 0.54899 0.85149 0.76539 0.0
H2139 H 0.55451 0.84077 0.72031 0.0
H2140 H 0.54788 0.87632 0.77491 0.0
H2141 H 0.5313 0.88361 0.76683 0.0
C2142 C 0.14517 0.68152 0.66183 0.0
C2143 C 0.16518 0.69136 0.65602 0.0
C2144 C 0.16574 0.66239 0.67815 0.0
C2145 C 0.14597 0.65307 0.68766 0.0
N2146 N 0.11736 0.65466 0.69554 0.0
N2147 N 0.19497 0.69216 0.66527 0.0
C2148 C 0.13583 0.66291 0.68141 0.0
C2149 C 0.17559 0.68205 0.66598 0.0
N2150 N 0.13499 0.68975 0.64725 0.0
N2151 N 0.17501 0.6523 0.67932 0.0
H2152 H 0.20265 0.70646 0.65616 0.0
H2153 H 0.20345 0.68683 0.6772 0.0
H2154 H 0.16836 0.638 0.68851 0.0
H2155 H 0.18887 0.65763 0.66771 0.0
H2156 H 0.12025 0.68259 0.64568 0.0
H2157 H 0.14129 0.70331 0.63286 0.0
H2158 H 0.10976 0.6618 0.69681 0.0
H2159 H 0.11003 0.64108 0.70986 0.0
C2160 C 0.35286 0.50573 0.67123 0.0
C2161 C 0.36103 0.49527 0.68986 0.0
C2162 C 0.33139 0.46557 0.67281 0.0
C2163 C 0.32262 0.47607 0.65853 0.0
N2164 N 0.32414 0.5063 0.6519 0.0
N2165 N 0.3568 0.4653 0.71622 0.0
C2166 C 0.33314 0.49622 0.65987 0.0
C2167 C 0.34991 0.47519 0.69282 0.0
N2168 N 0.36409 0.52469 0.66271 0.0
N2169 N 0.32227 0.4464 0.66579 0.0
H2170 H 0.37014 0.47181 0.73187 0.0
H2171 H 0.34864 0.45091 0.72392 0.0
H2172 H 0.30884 0.43888 0.65072 0.0
H2173 H 0.32869 0.43825 0.67079 0.0
H2174 H 0.35946 0.53266 0.6445 0.0
H2175 H 0.37856 0.53214 0.67018 0.0
H2176 H 0.3305 0.52086 0.6574 0.0
H2177 H 0.30976 0.4999 0.64373 0.0
C2178 C 0.14573 0.46705 0.66511 0.0
C2179 C 0.16566 0.47735 0.65797 0.0
C2180 C 0.16612 0.50691 0.67937 0.0
C2181 C 0.14645 0.49637 0.69005 0.0
N2182 N 0.11805 0.4661 0.69975 0.0
N2183 N 0.19536 0.50663 0.66448 0.0
C2184 C 0.13641 0.47634 0.68473 0.0
C2185 C 0.176 0.49718 0.66677 0.0
N2186 N 0.1356 0.44845 0.65182 0.0
N2187 N 0.17523 0.52628 0.67988 0.0
H2188 H 0.20304 0.50009 0.65468 0.0
H2189 H 0.20389 0.52057 0.67556 0.0
H2190 H 0.16858 0.53386 0.6896 0.0
H2191 H 0.18894 0.53486 0.6674 0.0
H2192 H 0.12085 0.44067 0.65122 0.0
H2193 H 0.1419 0.44117 0.63757 0.0
H2194 H 0.11055 0.45137 0.7017 0.0
H2195 H 0.11075 0.47238 0.71404 0.0
C2196 C 0.53411 0.66078 0.66747 0.0
C2197 C 0.51712 0.65391 0.69377 0.0
C2198 C 0.51832 0.68449 0.68239 0.0
C2199 C 0.53619 0.69192 0.65986 0.0
N2200 N 0.5626 0.68805 0.63776 0.0
N2201 N 0.49457 0.66015 0.73242 0.0
C2202 C 0.54449 0.68029 0.65424 0.0
C2203 C 0.50964 0.66604 0.70289 0.0
N2204 N 0.54 0.64849 0.6537 0.0
N2205 N 0.50934 0.69487 0.68294 0.0
H2206 H 0.48788 0.6468 0.74805 0.0
H2207 H 0.4897 0.669 0.74458 0.0
H2208 H 0.5152 0.70836 0.66825 0.0
H2209 H 0.49545 0.68953 0.69427 0.0
H2210 H 0.55102 0.6521 0.63018 0.0
H2211 H 0.53285 0.63416 0.66259 0.0
H2212 H 0.57025 0.68094 0.63781 0.0
H2213 H 0.57065 0.70221 0.62763 0.0
C2214 C 0.32897 0.83699 0.68377 0.0
C2215 C 0.32253 0.84713 0.65616 0.0
C2216 C 0.35453 0.87528 0.65935 0.0
C2217 C 0.36045 0.86569 0.69051 0.0
N2218 N 0.35266 0.83822 0.73733 0.0
N2219 N 0.32838 0.87674 0.62297 0.0
C2220 C 0.34748 0.84673 0.704 0.0
C2221 C 0.33513 0.8665 0.64529 0.0
N2222 N 0.31753 0.81787 0.68962 0.0
N2223 N 0.36761 0.89261 0.64208 0.0
H2224 H 0.31438 0.87082 0.61167 0.0
H2225 H 0.3362 0.89139 0.6188 0.0
H2226 H 0.38186 0.89956 0.65179 0.0
H2227 H 0.36472 0.89942 0.61534 0.0
H2228 H 0.32201 0.80924 0.70508 0.0
H2229 H 0.30394 0.8103 0.67543 0.0
H2230 H 0.34327 0.82527 0.75259 0.0
H2231 H 0.36608 0.84483 0.75258 0.0
loop_
_geom_bond_atom_site_label_1
_geom_bond_atom_site_label_2
_geom_bond_distance
_geom_bond_site_symmetry_2
_ccdc_geom_bond_type
Li0 N17 1.990 . S
Li0 O60 1.956 . S
Li0 O61 1.970 . S
Li0 O62 1.961 . S
Li1 N25 1.990 . S
Li1 O60 1.970 . S
Li1 O61 1.956 . S
Li1 O63 1.961 . S
Li2 N47 1.990 1_554 S
Li2 O60 1.961 . S
Li2 O62 1.956 . S
Li2 O63 1.970 . S
Li3 N53 1.990 . S
Li3 O61 1.961 . S
Li3 O62 1.970 . S
Li3 O63 1.956 . S
C4 C6 1.348 . S
C4 C7 1.356 . S
C4 O60 1.325 . S
N5 C8 1.314 . S
N5 C9 1.279 . S
C6 C4 1.348 . S
C6 C8 1.353 . S
C6 H64 0.929 . S
C7 C4 1.356 . S
C7 C9 1.358 . S
C7 H65 0.930 . S
C8 N5 1.314 . S
C8 C6 1.353 . S
C8 H66 0.930 . S
C9 N5 1.279 . S
C9 C7 1.358 . S
C9 H67 0.930 . S
C10 C13 1.348 . S
C10 C14 1.356 . S
C10 O61 1.325 . S
C11 N12 1.279 . S
C11 C14 1.358 . S
C11 H68 0.930 . S
N12 C11 1.279 . S
N12 C15 1.314 . S
C13 C10 1.348 . S
C13 C15 1.353 . S
C13 H69 0.929 . S
C14 C10 1.356 . S
C14 C11 1.358 . S
C14 H70 0.930 . S
C15 N12 1.314 . S
C15 C13 1.353 . S
C15 H71 0.930 . S
C16 N17 1.314 . S
C16 C21 1.353 . S
C16 H22 0.930 . S
N17 Li0 1.990 . S
N17 C16 1.314 . S
N17 C19 1.279 . S
C18 C19 1.358 . S
C18 C20 1.356 . S
C18 H72 0.930 . S
C19 N17 1.279 . S
C19 C18 1.358 . S
C19 H23 0.930 . S
C20 C18 1.356 . S
C20 C21 1.348 . S
C21 C16 1.353 . S
C21 C20 1.348 . S
C21 H73 0.929 . S
H22 C16 0.930 . S
H23 C19 0.930 . S
C24 N25 1.314 . S
C24 C26 1.353 . S
C24 H30 0.930 1_554 S
N25 Li1 1.990 . S
N25 C24 1.314 . S
N25 C28 1.279 . S
C26 C24 1.353 . S
C26 C29 1.348 . S
C26 H74 0.929 1_554 S
C27 C28 1.358 . S
C27 C29 1.356 . S
C27 H75 0.930 . S
C28 N25 1.279 . S
C28 C27 1.358 . S
C28 H31 0.930 . S
C29 C26 1.348 . S
C29 C27 1.356 . S
H30 C24 0.930 1_556 S
H31 C28 0.930 . S
C32 C34 1.348 . S
C32 C35 1.356 . S
C32 O62 1.325 . S
N33 C36 1.314 . S
N33 C37 1.279 . S
C34 C32 1.348 . S
C34 C36 1.353 . S
C34 H76 0.929 . S
C35 C32 1.356 . S
C35 C37 1.358 . S
C35 H77 0.930 . S
C36 N33 1.314 . S
C36 C34 1.353 . S
C36 H78 0.930 . S
C37 N33 1.279 . S
C37 C35 1.358 . S
C37 H79 0.930 . S
C38 C39 1.348 . S
C38 C40 1.356 . S
C38 O63 1.325 1_556 S
C39 C38 1.348 . S
C39 C41 1.353 . S
C39 H80 0.929 . S
C40 C38 1.356 . S
C40 C42 1.358 . S
C40 H81 0.930 . S
C41 C39 1.353 . S
C41 N43 1.314 . S
C41 H82 0.930 . S
C42 C40 1.358 . S
C42 N43 1.279 . S
C42 H83 0.930 . S
N43 C41 1.314 . S
N43 C42 1.279 . S
C44 C46 1.353 . S
C44 N47 1.314 . S
C44 H50 0.930 . S
C45 N47 1.279 . S
C45 C48 1.358 . S
C45 H51 0.930 . S
C46 C44 1.353 . S
C46 C49 1.348 . S
C46 H84 0.929 . S
N47 Li2 1.990 1_556 S
N47 C44 1.314 . S
N47 C45 1.279 . S
C48 C45 1.358 . S
C48 C49 1.356 . S
C48 H85 0.930 . S
C49 C46 1.348 . S
C49 C48 1.356 . S
H50 C44 0.930 . S
H51 C45 0.930 . S
C52 N53 1.314 . S
C52 C54 1.353 . S
C52 H58 0.930 . S
N53 Li3 1.990 . S
N53 C52 1.314 . S
N53 C56 1.279 . S
C54 C52 1.353 . S
C54 C57 1.348 . S
C54 H86 0.929 . S
C55 C56 1.358 . S
C55 C57 1.356 . S
C55 H87 0.930 1_554 S
C56 N53 1.279 . S
C56 C55 1.358 . S
C56 H59 0.930 1_554 S
C57 C54 1.348 . S
C57 C55 1.356 . S
H58 C52 0.930 . S
H59 C56 0.930 1_556 S
O60 Li0 1.956 . S
O60 Li1 1.970 . S
O60 Li2 1.961 . S
O60 C4 1.325 . S
O61 Li0 1.970 . S
O61 Li1 1.956 . S
O61 Li3 1.961 . S
O61 C10 1.325 . S
O62 Li0 1.961 . S
O62 Li2 1.956 . S
O62 Li3 1.970 . S
O62 C32 1.325 . S
O63 Li1 1.961 . S
O63 Li2 1.970 . S
O63 Li3 1.956 . S
O63 C38 1.325 1_554 S
H64 C6 0.929 . S
H65 C7 0.930 . S
H66 C8 0.930 . S
H67 C9 0.930 . S
H68 C11 0.930 . S
H69 C13 0.929 . S
H70 C14 0.930 . S
H71 C15 0.930 . S
H72 C18 0.930 . S
H73 C21 0.929 . S
H74 C26 0.929 1_556 S
H75 C27 0.930 . S
H76 C34 0.929 . S
H77 C35 0.930 . S
H78 C36 0.930 . S
H79 C37 0.930 . S
H80 C39 0.929 . S
H81 C40 0.930 . S
H82 C41 0.930 . S
H83 C42 0.930 . S
H84 C46 0.929 . S
H85 C48 0.930 . S
H86 C54 0.929 . S
H87 C55 0.930 1_556 S
Li88 N105 1.990 . S
Li88 O148 1.956 . S
Li88 O149 1.970 . S
Li88 O150 1.961 . S
Li89 N113 1.990 . S
Li89 O148 1.970 . S
Li89 O149 1.956 . S
Li89 O151 1.961 . S
Li90 N135 1.990 . S
Li90 O148 1.961 . S
Li90 O150 1.956 . S
Li90 O151 1.970 . S
Li91 N141 1.990 1_554 S
Li91 O149 1.961 . S
Li91 O150 1.970 . S
Li91 O151 1.956 . S
C92 C94 1.348 . S
C92 C95 1.356 . S
C92 O148 1.325 . S
N93 C96 1.314 . S
N93 C97 1.279 . S
C94 C92 1.348 . S
C94 C96 1.353 . S
C94 H152 0.929 . S
C95 C92 1.356 . S
C95 C97 1.358 . S
C95 H153 0.930 . S
C96 N93 1.314 . S
C96 C94 1.353 . S
C96 H154 0.930 . S
C97 N93 1.279 . S
C97 C95 1.358 . S
C97 H155 0.930 . S
C98 C101 1.348 . S
C98 C102 1.356 . S
C98 O149 1.325 . S
C99 N100 1.279 . S
C99 C102 1.358 . S
C99 H156 0.930 . S
N100 C99 1.279 . S
N100 C103 1.314 . S
C101 C98 1.348 . S
C101 C103 1.353 . S
C101 H157 0.929 . S
C102 C98 1.356 . S
C102 C99 1.358 . S
C102 H158 0.930 . S
C103 N100 1.314 . S
C103 C101 1.353 . S
C103 H159 0.930 . S
C104 N105 1.314 . S
C104 C109 1.353 . S
C104 H110 0.930 1_554 S
N105 Li88 1.990 . S
N105 C104 1.314 . S
N105 C107 1.279 . S
C106 C107 1.358 . S
C106 C108 1.356 . S
C106 H160 0.930 . S
C107 N105 1.279 . S
C107 C106 1.358 . S
C107 H111 0.930 . S
C108 C106 1.356 . S
C108 C109 1.348 . S
C109 C104 1.353 . S
C109 C108 1.348 . S
C109 H161 0.929 1_554 S
H110 C104 0.930 1_556 S
H111 C107 0.930 . S
C112 N113 1.314 . S
C112 C114 1.353 . S
C112 H118 0.930 . S
N113 Li89 1.990 . S
N113 C112 1.314 . S
N113 C116 1.279 . S
C114 C112 1.353 . S
C114 C117 1.348 . S
C114 H162 0.929 . S
C115 C116 1.358 . S
C115 C117 1.356 . S
C115 H163 0.930 . S
C116 N113 1.279 . S
C116 C115 1.358 . S
C116 H119 0.930 . S
C117 C114 1.348 . S
C117 C115 1.356 . S
H118 C112 0.930 . S
H119 C116 0.930 . S
C120 C122 1.348 . S
C120 C123 1.356 . S
C120 O150 1.325 1_556 S
N121 C124 1.314 . S
N121 C125 1.279 . S
C122 C120 1.348 . S
C122 C124 1.353 . S
C122 H164 0.929 . S
C123 C120 1.356 . S
C123 C125 1.358 . S
C123 H165 0.930 . S
C124 N121 1.314 . S
C124 C122 1.353 . S
C124 H166 0.930 . S
C125 N121 1.279 . S
C125 C123 1.358 . S
C125 H167 0.930 . S
C126 C127 1.348 . S
C126 C128 1.356 . S
C126 O151 1.325 . S
C127 C126 1.348 . S
C127 C129 1.353 . S
C127 H168 0.929 . S
C128 C126 1.356 . S
C128 C130 1.358 . S
C128 H169 0.930 . S
C129 C127 1.353 . S
C129 N131 1.314 . S
C129 H170 0.930 . S
C130 C128 1.358 . S
C130 N131 1.279 . S
C130 H171 0.930 . S
N131 C129 1.314 . S
N131 C130 1.279 . S
C132 C134 1.353 . S
C132 N135 1.314 . S
C132 H138 0.930 . S
C133 N135 1.279 . S
C133 C136 1.358 . S
C133 H139 0.930 1_554 S
C134 C132 1.353 . S
C134 C137 1.348 . S
C134 H172 0.929 . S
N135 Li90 1.990 . S
N135 C132 1.314 . S
N135 C133 1.279 . S
C136 C133 1.358 . S
C136 C137 1.356 . S
C136 H173 0.930 1_554 S
C137 C134 1.348 . S
C137 C136 1.356 . S
H138 C132 0.930 . S
H139 C133 0.930 1_556 S
C140 N141 1.314 . S
C140 C142 1.353 . S
C140 H146 0.930 . S
N141 Li91 1.990 1_556 S
N141 C140 1.314 . S
N141 C144 1.279 . S
C142 C140 1.353 . S
C142 C145 1.348 . S
C142 H174 0.929 . S
C143 C144 1.358 . S
C143 C145 1.356 . S
C143 H175 0.930 . S
C144 N141 1.279 . S
C144 C143 1.358 . S
C144 H147 0.930 . S
C145 C142 1.348 . S
C145 C143 1.356 . S
H146 C140 0.930 . S
H147 C144 0.930 . S
O148 Li88 1.956 . S
O148 Li89 1.970 . S
O148 Li90 1.961 . S
O148 C92 1.325 . S
O149 Li88 1.970 . S
O149 Li89 1.956 . S
O149 Li91 1.961 . S
O149 C98 1.325 . S
O150 Li88 1.961 . S
O150 Li90 1.956 . S
O150 Li91 1.970 . S
O150 C120 1.325 1_554 S
O151 Li89 1.961 . S
O151 Li90 1.970 . S
O151 Li91 1.956 . S
O151 C126 1.325 . S
H152 C94 0.929 . S
H153 C95 0.930 . S
H154 C96 0.930 . S
H155 C97 0.930 . S
H156 C99 0.930 . S
H157 C101 0.929 . S
H158 C102 0.930 . S
H159 C103 0.930 . S
H160 C106 0.930 . S
H161 C109 0.929 1_556 S
H162 C114 0.929 . S
H163 C115 0.930 . S
H164 C122 0.929 . S
H165 C123 0.930 . S
H166 C124 0.930 . S
H167 C125 0.930 . S
H168 C127 0.929 . S
H169 C128 0.930 . S
H170 C129 0.930 . S
H171 C130 0.930 . S
H172 C134 0.929 . S
H173 C136 0.930 1_556 S
H174 C142 0.929 . S
H175 C143 0.930 . S
Li176 N193 1.990 . S
Li176 O236 1.956 . S
Li176 O237 1.970 . S
Li176 O238 1.961 . S
Li177 N201 1.990 . S
Li177 O236 1.970 . S
Li177 O237 1.956 . S
Li177 O239 1.961 . S
Li178 N223 1.990 1_554 S
Li178 O236 1.961 . S
Li178 O238 1.956 . S
Li178 O239 1.970 . S
Li179 N229 1.990 . S
Li179 O237 1.961 . S
Li179 O238 1.970 . S
Li179 O239 1.956 . S
C180 C182 1.348 . S
C180 C183 1.356 . S
C180 O236 1.325 . S
N181 C184 1.314 . S
N181 C185 1.279 . S
C182 C180 1.348 . S
C182 C184 1.353 . S
C182 H240 0.929 . S
C183 C180 1.356 . S
C183 C185 1.358 . S
C183 H241 0.930 . S
C184 N181 1.314 . S
C184 C182 1.353 . S
C184 H242 0.930 . S
C185 N181 1.279 . S
C185 C183 1.358 . S
C185 H243 0.930 . S
C186 C189 1.348 . S
C186 C190 1.356 . S
C186 O237 1.325 . S
C187 N188 1.279 . S
C187 C190 1.358 . S
C187 H244 0.930 . S
N188 C187 1.279 . S
N188 C191 1.314 . S
C189 C186 1.348 . S
C189 C191 1.353 . S
C189 H245 0.929 . S
C190 C186 1.356 . S
C190 C187 1.358 . S
C190 H246 0.930 . S
C191 N188 1.314 . S
C191 C189 1.353 . S
C191 H247 0.930 . S
C192 N193 1.314 . S
C192 C197 1.353 . S
C192 H198 0.930 . S
N193 Li176 1.990 . S
N193 C192 1.314 . S
N193 C195 1.279 . S
C194 C195 1.358 . S
C194 C196 1.356 . S
C194 H248 0.930 . S
C195 N193 1.279 . S
C195 C194 1.358 . S
C195 H199 0.930 . S
C196 C194 1.356 . S
C196 C197 1.348 . S
C197 C192 1.353 . S
C197 C196 1.348 . S
C197 H249 0.929 . S
H198 C192 0.930 . S
H199 C195 0.930 . S
C200 N201 1.314 . S
C200 C202 1.353 . S
C200 H206 0.930 1_554 S
N201 Li177 1.990 . S
N201 C200 1.314 . S
N201 C204 1.279 . S
C202 C200 1.353 . S
C202 C205 1.348 . S
C202 H250 0.929 1_554 S
C203 C204 1.358 . S
C203 C205 1.356 . S
C203 H251 0.930 . S
C204 N201 1.279 . S
C204 C203 1.358 . S
C204 H207 0.930 . S
C205 C202 1.348 . S
C205 C203 1.356 . S
H206 C200 0.930 1_556 S
H207 C204 0.930 . S
C208 C210 1.348 . S
C208 C211 1.356 . S
C208 O238 1.325 . S
N209 C212 1.314 . S
N209 C213 1.279 . S
C210 C208 1.348 . S
C210 C212 1.353 . S
C210 H252 0.929 . S
C211 C208 1.356 . S
C211 C213 1.358 . S
C211 H253 0.930 . S
C212 N209 1.314 . S
C212 C210 1.353 . S
C212 H254 0.930 . S
C213 N209 1.279 . S
C213 C211 1.358 . S
C213 H255 0.930 . S
C214 C215 1.348 . S
C214 C216 1.356 . S
C214 O239 1.325 1_556 S
C215 C214 1.348 . S
C215 C217 1.353 . S
C215 H256 0.929 . S
C216 C214 1.356 . S
C216 C218 1.358 . S
C216 H257 0.930 . S
C217 C215 1.353 . S
C217 N219 1.314 . S
C217 H258 0.930 . S
C218 C216 1.358 . S
C218 N219 1.279 . S
C218 H259 0.930 . S
N219 C217 1.314 . S
N219 C218 1.279 . S
C220 C222 1.353 . S
C220 N223 1.314 . S
C220 H226 0.930 . S
C221 N223 1.279 . S
C221 C224 1.358 . S
C221 H227 0.930 . S
C222 C220 1.353 . S
C222 C225 1.348 . S
C222 H260 0.929 . S
N223 Li178 1.990 1_556 S
N223 C220 1.314 . S
N223 C221 1.279 . S
C224 C221 1.358 . S
C224 C225 1.356 . S
C224 H261 0.930 . S
C225 C222 1.348 . S
C225 C224 1.356 . S
H226 C220 0.930 . S
H227 C221 0.930 . S
C228 N229 1.314 . S
C228 C230 1.353 . S
C228 H234 0.930 . S
N229 Li179 1.990 . S
N229 C228 1.314 . S
N229 C232 1.279 . S
C230 C228 1.353 . S
C230 C233 1.348 . S
C230 H262 0.929 . S
C231 C232 1.358 . S
C231 C233 1.356 . S
C231 H263 0.930 1_554 S
C232 N229 1.279 . S
C232 C231 1.358 . S
C232 H235 0.930 1_554 S
C233 C230 1.348 . S
C233 C231 1.356 . S
H234 C228 0.930 . S
H235 C232 0.930 1_556 S
O236 Li176 1.956 . S
O236 Li177 1.970 . S
O236 Li178 1.961 . S
O236 C180 1.325 . S
O237 Li176 1.970 . S
O237 Li177 1.956 . S
O237 Li179 1.961 . S
O237 C186 1.325 . S
O238 Li176 1.961 . S
O238 Li178 1.956 . S
O238 Li179 1.970 . S
O238 C208 1.325 . S
O239 Li177 1.961 . S
O239 Li178 1.970 . S
O239 Li179 1.956 . S
O239 C214 1.325 1_554 S
H240 C182 0.929 . S
H241 C183 0.930 . S
H242 C184 0.930 . S
H243 C185 0.930 . S
H244 C187 0.930 . S
H245 C189 0.929 . S
H246 C190 0.930 . S
H247 C191 0.930 . S
H248 C194 0.930 . S
H249 C197 0.929 . S
H250 C202 0.929 1_556 S
H251 C203 0.930 . S
H252 C210 0.929 . S
H253 C211 0.930 . S
H254 C212 0.930 . S
H255 C213 0.930 . S
H256 C215 0.929 . S
H257 C216 0.930 . S
H258 C217 0.930 . S
H259 C218 0.930 . S
H260 C222 0.929 . S
H261 C224 0.930 . S
H262 C230 0.929 . S
H263 C231 0.930 1_556 S
Li264 N281 1.990 . S
Li264 O324 1.956 . S
Li264 O325 1.970 . S
Li264 O326 1.961 . S
Li265 N289 1.990 1_556 S
Li265 O324 1.970 . S
Li265 O325 1.956 . S
Li265 O327 1.961 . S
Li266 N311 1.990 . S
Li266 O324 1.961 . S
Li266 O326 1.956 . S
Li266 O327 1.970 . S
Li267 N317 1.990 . S
Li267 O325 1.961 . S
Li267 O326 1.970 . S
Li267 O327 1.956 . S
C268 C270 1.348 . S
C268 C271 1.356 . S
C268 O324 1.325 1_554 S
N269 C272 1.314 . S
N269 C273 1.279 . S
C270 C268 1.348 . S
C270 C272 1.353 . S
C270 H328 0.929 . S
C271 C268 1.356 . S
C271 C273 1.358 . S
C271 H329 0.930 . S
C272 N269 1.314 . S
C272 C270 1.353 . S
C272 H330 0.930 . S
C273 N269 1.279 . S
C273 C271 1.358 . S
C273 H331 0.930 . S
C274 C277 1.348 . S
C274 C278 1.356 . S
C274 O325 1.325 . S
C275 N276 1.279 . S
C275 C278 1.358 . S
C275 H332 0.930 . S
N276 C275 1.279 . S
N276 C279 1.314 . S
C277 C274 1.348 . S
C277 C279 1.353 . S
C277 H333 0.929 . S
C278 C274 1.356 . S
C278 C275 1.358 . S
C278 H334 0.930 . S
C279 N276 1.314 . S
C279 C277 1.353 . S
C279 H335 0.930 . S
C280 N281 1.314 . S
C280 C285 1.353 . S
C280 H286 0.930 . S
N281 Li264 1.990 . S
N281 C280 1.314 . S
N281 C283 1.279 . S
C282 C283 1.358 . S
C282 C284 1.356 . S
C282 H336 0.930 1_556 S
C283 N281 1.279 . S
C283 C282 1.358 . S
C283 H287 0.930 1_556 S
C284 C282 1.356 . S
C284 C285 1.348 . S
C285 C280 1.353 . S
C285 C284 1.348 . S
C285 H337 0.929 . S
H286 C280 0.930 . S
H287 C283 0.930 1_554 S
C288 N289 1.314 . S
C288 C290 1.353 . S
C288 H294 0.930 . S
N289 Li265 1.990 1_554 S
N289 C288 1.314 . S
N289 C292 1.279 . S
C290 C288 1.353 . S
C290 C293 1.348 . S
C290 H338 0.929 . S
C291 C292 1.358 . S
C291 C293 1.356 . S
C291 H339 0.930 . S
C292 N289 1.279 . S
C292 C291 1.358 . S
C292 H295 0.930 . S
C293 C290 1.348 . S
C293 C291 1.356 . S
H294 C288 0.930 . S
H295 C292 0.930 . S
C296 C298 1.348 . S
C296 C299 1.356 . S
C296 O326 1.325 . S
N297 C300 1.314 . S
N297 C301 1.279 . S
C298 C296 1.348 . S
C298 C300 1.353 . S
C298 H340 0.929 . S
C299 C296 1.356 . S
C299 C301 1.358 . S
C299 H341 0.930 . S
C300 N297 1.314 . S
C300 C298 1.353 . S
C300 H342 0.930 . S
C301 N297 1.279 . S
C301 C299 1.358 . S
C301 H343 0.930 . S
C302 C303 1.348 . S
C302 C304 1.356 . S
C302 O327 1.325 . S
C303 C302 1.348 . S
C303 C305 1.353 . S
C303 H344 0.929 . S
C304 C302 1.356 . S
C304 C306 1.358 . S
C304 H345 0.930 . S
C305 C303 1.353 . S
C305 N307 1.314 . S
C305 H346 0.930 . S
C306 C304 1.358 . S
C306 N307 1.279 . S
C306 H347 0.930 . S
N307 C305 1.314 . S
N307 C306 1.279 . S
C308 C310 1.353 . S
C308 N311 1.314 . S
C308 H314 0.930 1_556 S
C309 N311 1.279 . S
C309 C312 1.358 . S
C309 H315 0.930 . S
C310 C308 1.353 . S
C310 C313 1.348 . S
C310 H348 0.929 1_556 S
N311 Li266 1.990 . S
N311 C308 1.314 . S
N311 C309 1.279 . S
C312 C309 1.358 . S
C312 C313 1.356 . S
C312 H349 0.930 . S
C313 C310 1.348 . S
C313 C312 1.356 . S
H314 C308 0.930 1_554 S
H315 C309 0.930 . S
C316 N317 1.314 . S
C316 C318 1.353 . S
C316 H322 0.930 . S
N317 Li267 1.990 . S
N317 C316 1.314 . S
N317 C320 1.279 . S
C318 C316 1.353 . S
C318 C321 1.348 . S
C318 H350 0.929 . S
C319 C320 1.358 . S
C319 C321 1.356 . S
C319 H351 0.930 . S
C320 N317 1.279 . S
C320 C319 1.358 . S
C320 H323 0.930 . S
C321 C318 1.348 . S
C321 C319 1.356 . S
H322 C316 0.930 . S
H323 C320 0.930 . S
O324 Li264 1.956 . S
O324 Li265 1.970 . S
O324 Li266 1.961 . S
O324 C268 1.325 1_556 S
O325 Li264 1.970 . S
O325 Li265 1.956 . S
O325 Li267 1.961 . S
O325 C274 1.325 . S
O326 Li264 1.961 . S
O326 Li266 1.956 . S
O326 Li267 1.970 . S
O326 C296 1.325 . S
O327 Li265 1.961 . S
O327 Li266 1.970 . S
O327 Li267 1.956 . S
O327 C302 1.325 . S
H328 C270 0.929 . S
H329 C271 0.930 . S
H330 C272 0.930 . S
H331 C273 0.930 . S
H332 C275 0.930 . S
H333 C277 0.929 . S
H334 C278 0.930 . S
H335 C279 0.930 . S
H336 C282 0.930 1_554 S
H337 C285 0.929 . S
H338 C290 0.929 . S
H339 C291 0.930 . S
H340 C298 0.929 . S
H341 C299 0.930 . S
H342 C300 0.930 . S
H343 C301 0.930 . S
H344 C303 0.929 . S
H345 C304 0.930 . S
H346 C305 0.930 . S
H347 C306 0.930 . S
H348 C310 0.929 1_554 S
H349 C312 0.930 . S
H350 C318 0.929 . S
H351 C319 0.930 . S
Li352 N369 1.990 . S
Li352 O412 1.956 . S
Li352 O413 1.970 . S
Li352 O414 1.961 . S
Li353 N377 1.990 1_556 S
Li353 O412 1.970 . S
Li353 O413 1.956 . S
Li353 O415 1.961 . S
Li354 N399 1.990 . S
Li354 O412 1.961 . S
Li354 O414 1.956 . S
Li354 O415 1.970 . S
Li355 N405 1.990 . S
Li355 O413 1.961 . S
Li355 O414 1.970 . S
Li355 O415 1.956 . S
C356 C358 1.348 . S
C356 C359 1.356 . S
C356 O412 1.325 1_554 S
N357 C360 1.314 . S
N357 C361 1.279 . S
C358 C356 1.348 . S
C358 C360 1.353 . S
C358 H416 0.929 . S
C359 C356 1.356 . S
C359 C361 1.358 . S
C359 H417 0.930 . S
C360 N357 1.314 . S
C360 C358 1.353 . S
C360 H418 0.930 . S
C361 N357 1.279 . S
C361 C359 1.358 . S
C361 H419 0.930 . S
C362 C365 1.348 . S
C362 C366 1.356 . S
C362 O413 1.325 . S
C363 N364 1.279 . S
C363 C366 1.358 . S
C363 H420 0.930 . S
N364 C363 1.279 . S
N364 C367 1.314 . S
C365 C362 1.348 . S
C365 C367 1.353 . S
C365 H421 0.929 . S
C366 C362 1.356 . S
C366 C363 1.358 . S
C366 H422 0.930 . S
C367 N364 1.314 . S
C367 C365 1.353 . S
C367 H423 0.930 . S
C368 N369 1.314 . S
C368 C373 1.353 . S
C368 H374 0.930 . S
N369 Li352 1.990 . S
N369 C368 1.314 . S
N369 C371 1.279 . S
C370 C371 1.358 . S
C370 C372 1.356 . S
C370 H424 0.930 1_556 S
C371 N369 1.279 . S
C371 C370 1.358 . S
C371 H375 0.930 1_556 S
C372 C370 1.356 . S
C372 C373 1.348 . S
C373 C368 1.353 . S
C373 C372 1.348 . S
C373 H425 0.929 . S
H374 C368 0.930 . S
H375 C371 0.930 1_554 S
C376 N377 1.314 . S
C376 C378 1.353 . S
C376 H382 0.930 . S
N377 Li353 1.990 1_554 S
N377 C376 1.314 . S
N377 C380 1.279 . S
C378 C376 1.353 . S
C378 C381 1.348 . S
C378 H426 0.929 . S
C379 C380 1.358 . S
C379 C381 1.356 . S
C379 H427 0.930 . S
C380 N377 1.279 . S
C380 C379 1.358 . S
C380 H383 0.930 . S
C381 C378 1.348 . S
C381 C379 1.356 . S
H382 C376 0.930 . S
H383 C380 0.930 . S
C384 C386 1.348 . S
C384 C387 1.356 . S
C384 O414 1.325 . S
N385 C388 1.314 . S
N385 C389 1.279 . S
C386 C384 1.348 . S
C386 C388 1.353 . S
C386 H428 0.929 . S
C387 C384 1.356 . S
C387 C389 1.358 . S
C387 H429 0.930 . S
C388 N385 1.314 . S
C388 C386 1.353 . S
C388 H430 0.930 . S
C389 N385 1.279 . S
C389 C387 1.358 . S
C389 H431 0.930 . S
C390 C391 1.348 . S
C390 C392 1.356 . S
C390 O415 1.325 . S
C391 C390 1.348 . S
C391 C393 1.353 . S
C391 H432 0.929 . S
C392 C390 1.356 . S
C392 C394 1.358 . S
C392 H433 0.930 . S
C393 C391 1.353 . S
C393 N395 1.314 . S
C393 H434 0.930 . S
C394 C392 1.358 . S
C394 N395 1.279 . S
C394 H435 0.930 . S
N395 C393 1.314 . S
N395 C394 1.279 . S
C396 C398 1.353 . S
C396 N399 1.314 . S
C396 H402 0.930 1_556 S
C397 N399 1.279 . S
C397 C400 1.358 . S
C397 H403 0.930 . S
C398 C396 1.353 . S
C398 C401 1.348 . S
C398 H436 0.929 1_556 S
N399 Li354 1.990 . S
N399 C396 1.314 . S
N399 C397 1.279 . S
C400 C397 1.358 . S
C400 C401 1.356 . S
C400 H437 0.930 . S
C401 C398 1.348 . S
C401 C400 1.356 . S
H402 C396 0.930 1_554 S
H403 C397 0.930 . S
C404 N405 1.314 . S
C404 C406 1.353 . S
C404 H410 0.930 . S
N405 Li355 1.990 . S
N405 C404 1.314 . S
N405 C408 1.279 . S
C406 C404 1.353 . S
C406 C409 1.348 . S
C406 H438 0.929 . S
C407 C408 1.358 . S
C407 C409 1.356 . S
C407 H439 0.930 . S
C408 N405 1.279 . S
C408 C407 1.358 . S
C408 H411 0.930 . S
C409 C406 1.348 . S
C409 C407 1.356 . S
H410 C404 0.930 . S
H411 C408 0.930 . S
O412 Li352 1.956 . S
O412 Li353 1.970 . S
O412 Li354 1.961 . S
O412 C356 1.325 1_556 S
O413 Li352 1.970 . S
O413 Li353 1.956 . S
O413 Li355 1.961 . S
O413 C362 1.325 . S
O414 Li352 1.961 . S
O414 Li354 1.956 . S
O414 Li355 1.970 . S
O414 C384 1.325 . S
O415 Li353 1.961 . S
O415 Li354 1.970 . S
O415 Li355 1.956 . S
O415 C390 1.325 . S
H416 C358 0.929 . S
H417 C359 0.930 . S
H418 C360 0.930 . S
H419 C361 0.930 . S
H420 C363 0.930 . S
H421 C365 0.929 . S
H422 C366 0.930 . S
H423 C367 0.930 . S
H424 C370 0.930 1_554 S
H425 C373 0.929 . S
H426 C378 0.929 . S
H427 C379 0.930 . S
H428 C386 0.929 . S
H429 C387 0.930 . S
H430 C388 0.930 . S
H431 C389 0.930 . S
H432 C391 0.929 . S
H433 C392 0.930 . S
H434 C393 0.930 . S
H435 C394 0.930 . S
H436 C398 0.929 1_554 S
H437 C400 0.930 . S
H438 C406 0.929 . S
H439 C407 0.930 . S
Li440 N457 1.990 . S
Li440 O500 1.956 . S
Li440 O501 1.970 . S
Li440 O502 1.961 . S
Li441 N465 1.990 1_556 S
Li441 O500 1.970 . S
Li441 O501 1.956 . S
Li441 O503 1.961 . S
Li442 N487 1.990 . S
Li442 O500 1.961 . S
Li442 O502 1.956 . S
Li442 O503 1.970 . S
Li443 N493 1.990 . S
Li443 O501 1.961 . S
Li443 O502 1.970 . S
Li443 O503 1.956 . S
C444 C446 1.348 . S
C444 C447 1.356 . S
C444 O500 1.325 1_554 S
N445 C448 1.314 . S
N445 C449 1.279 . S
C446 C444 1.348 . S
C446 C448 1.353 . S
C446 H504 0.929 . S
C447 C444 1.356 . S
C447 C449 1.358 . S
C447 H505 0.930 . S
C448 N445 1.314 . S
C448 C446 1.353 . S
C448 H506 0.930 . S
C449 N445 1.279 . S
C449 C447 1.358 . S
C449 H507 0.930 . S
C450 C453 1.348 . S
C450 C454 1.356 . S
C450 O501 1.325 . S
C451 N452 1.279 . S
C451 C454 1.358 . S
C451 H508 0.930 . S
N452 C451 1.279 . S
N452 C455 1.314 . S
C453 C450 1.348 . S
C453 C455 1.353 . S
C453 H509 0.929 . S
C454 C450 1.356 . S
C454 C451 1.358 . S
C454 H510 0.930 . S
C455 N452 1.314 . S
C455 C453 1.353 . S
C455 H511 0.930 . S
C456 N457 1.314 . S
C456 C461 1.353 . S
C456 H462 0.930 . S
N457 Li440 1.990 . S
N457 C456 1.314 . S
N457 C459 1.279 . S
C458 C459 1.358 . S
C458 C460 1.356 . S
C458 H512 0.930 1_556 S
C459 N457 1.279 . S
C459 C458 1.358 . S
C459 H463 0.930 1_556 S
C460 C458 1.356 . S
C460 C461 1.348 . S
C461 C456 1.353 . S
C461 C460 1.348 . S
C461 H513 0.929 . S
H462 C456 0.930 . S
H463 C459 0.930 1_554 S
C464 N465 1.314 . S
C464 C466 1.353 . S
C464 H470 0.930 . S
N465 Li441 1.990 1_554 S
N465 C464 1.314 . S
N465 C468 1.279 . S
C466 C464 1.353 . S
C466 C469 1.348 . S
C466 H514 0.929 . S
C467 C468 1.358 . S
C467 C469 1.356 . S
C467 H515 0.930 . S
C468 N465 1.279 . S
C468 C467 1.358 . S
C468 H471 0.930 . S
C469 C466 1.348 . S
C469 C467 1.356 . S
H470 C464 0.930 . S
H471 C468 0.930 . S
C472 C474 1.348 . S
C472 C475 1.356 . S
C472 O502 1.325 . S
N473 C476 1.314 . S
N473 C477 1.279 . S
C474 C472 1.348 . S
C474 C476 1.353 . S
C474 H516 0.929 . S
C475 C472 1.356 . S
C475 C477 1.358 . S
C475 H517 0.930 . S
C476 N473 1.314 . S
C476 C474 1.353 . S
C476 H518 0.930 . S
C477 N473 1.279 . S
C477 C475 1.358 . S
C477 H519 0.930 . S
C478 C479 1.348 . S
C478 C480 1.356 . S
C478 O503 1.325 . S
C479 C478 1.348 . S
C479 C481 1.353 . S
C479 H520 0.929 . S
C480 C478 1.356 . S
C480 C482 1.358 . S
C480 H521 0.930 . S
C481 C479 1.353 . S
C481 N483 1.314 . S
C481 H522 0.930 . S
C482 C480 1.358 . S
C482 N483 1.279 . S
C482 H523 0.930 . S
N483 C481 1.314 . S
N483 C482 1.279 . S
C484 C486 1.353 . S
C484 N487 1.314 . S
C484 H490 0.930 1_556 S
C485 N487 1.279 . S
C485 C488 1.358 . S
C485 H491 0.930 . S
C486 C484 1.353 . S
C486 C489 1.348 . S
C486 H524 0.929 1_556 S
N487 Li442 1.990 . S
N487 C484 1.314 . S
N487 C485 1.279 . S
C488 C485 1.358 . S
C488 C489 1.356 . S
C488 H525 0.930 . S
C489 C486 1.348 . S
C489 C488 1.356 . S
H490 C484 0.930 1_554 S
H491 C485 0.930 . S
C492 N493 1.314 . S
C492 C494 1.353 . S
C492 H498 0.930 . S
N493 Li443 1.990 . S
N493 C492 1.314 . S
N493 C496 1.279 . S
C494 C492 1.353 . S
C494 C497 1.348 . S
C494 H526 0.929 . S
C495 C496 1.358 . S
C495 C497 1.356 . S
C495 H527 0.930 . S
C496 N493 1.279 . S
C496 C495 1.358 . S
C496 H499 0.930 . S
C497 C494 1.348 . S
C497 C495 1.356 . S
H498 C492 0.930 . S
H499 C496 0.930 . S
O500 Li440 1.956 . S
O500 Li441 1.970 . S
O500 Li442 1.961 . S
O500 C444 1.325 1_556 S
O501 Li440 1.970 . S
O501 Li441 1.956 . S
O501 Li443 1.961 . S
O501 C450 1.325 . S
O502 Li440 1.961 . S
O502 Li442 1.956 . S
O502 Li443 1.970 . S
O502 C472 1.325 . S
O503 Li441 1.961 . S
O503 Li442 1.970 . S
O503 Li443 1.956 . S
O503 C478 1.325 . S
H504 C446 0.929 . S
H505 C447 0.930 . S
H506 C448 0.930 . S
H507 C449 0.930 . S
H508 C451 0.930 . S
H509 C453 0.929 . S
H510 C454 0.930 . S
H511 C455 0.930 . S
H512 C458 0.930 1_554 S
H513 C461 0.929 . S
H514 C466 0.929 . S
H515 C467 0.930 . S
H516 C474 0.929 . S
H517 C475 0.930 . S
H518 C476 0.930 . S
H519 C477 0.930 . S
H520 C479 0.929 . S
H521 C480 0.930 . S
H522 C481 0.930 . S
H523 C482 0.930 . S
H524 C486 0.929 1_554 S
H525 C488 0.930 . S
H526 C494 0.929 . S
H527 C495 0.930 . S
Li528 N545 1.990 . S
Li528 O588 1.956 . S
Li528 O589 1.970 . S
Li528 O590 1.961 . S
Li529 N553 1.990 . S
Li529 O588 1.970 . S
Li529 O589 1.956 . S
Li529 O591 1.961 . S
Li530 N575 1.990 . S
Li530 O588 1.961 . S
Li530 O590 1.956 . S
Li530 O591 1.970 . S
Li531 N581 1.990 . S
Li531 O589 1.961 . S
Li531 O590 1.970 . S
Li531 O591 1.956 . S
C532 C534 1.348 . S
C532 C535 1.356 . S
C532 O588 1.325 . S
N533 C536 1.314 . S
N533 C537 1.279 . S
C534 C532 1.348 . S
C534 C536 1.353 . S
C534 H592 0.929 . S
C535 C532 1.356 . S
C535 C537 1.358 . S
C535 H593 0.930 . S
C536 N533 1.314 . S
C536 C534 1.353 . S
C536 H594 0.930 . S
C537 N533 1.279 . S
C537 C535 1.358 . S
C537 H595 0.930 . S
C538 C541 1.348 . S
C538 C542 1.356 . S
C538 O589 1.325 . S
C539 N540 1.279 . S
C539 C542 1.358 . S
C539 H596 0.930 . S
N540 C539 1.279 . S
N540 C543 1.314 . S
C541 C538 1.348 . S
C541 C543 1.353 . S
C541 H597 0.929 . S
C542 C538 1.356 . S
C542 C539 1.358 . S
C542 H598 0.930 . S
C543 N540 1.314 . S
C543 C541 1.353 . S
C543 H599 0.930 . S
C544 N545 1.314 . S
C544 C549 1.353 . S
C544 H550 0.930 . S
N545 Li528 1.990 . S
N545 C544 1.314 . S
N545 C547 1.279 . S
C546 C547 1.358 . S
C546 C548 1.356 . S
C546 H600 0.930 . S
C547 N545 1.279 . S
C547 C546 1.358 . S
C547 H551 0.930 . S
C548 C546 1.356 . S
C548 C549 1.348 . S
C549 C544 1.353 . S
C549 C548 1.348 . S
C549 H601 0.929 . S
H550 C544 0.930 . S
H551 C547 0.930 . S
C552 N553 1.314 . S
C552 C554 1.353 . S
C552 H558 0.930 . S
N553 Li529 1.990 . S
N553 C552 1.314 . S
N553 C556 1.279 . S
C554 C552 1.353 . S
C554 C557 1.348 . S
C554 H602 0.929 . S
C555 C556 1.358 . S
C555 C557 1.356 . S
C555 H603 0.930 . S
C556 N553 1.279 . S
C556 C555 1.358 . S
C556 H559 0.930 . S
C557 C554 1.348 . S
C557 C555 1.356 . S
H558 C552 0.930 . S
H559 C556 0.930 . S
C560 C562 1.348 . S
C560 C563 1.356 . S
C560 O590 1.325 . S
N561 C564 1.314 . S
N561 C565 1.279 . S
C562 C560 1.348 . S
C562 C564 1.353 . S
C562 H604 0.929 . S
C563 C560 1.356 . S
C563 C565 1.358 . S
C563 H605 0.930 . S
C564 N561 1.314 . S
C564 C562 1.353 . S
C564 H606 0.930 . S
C565 N561 1.279 . S
C565 C563 1.358 . S
C565 H607 0.930 . S
C566 C567 1.348 . S
C566 C568 1.356 . S
C566 O591 1.325 . S
C567 C566 1.348 . S
C567 C569 1.353 . S
C567 H608 0.929 . S
C568 C566 1.356 . S
C568 C570 1.358 . S
C568 H609 0.930 . S
C569 C567 1.353 . S
C569 N571 1.314 . S
C569 H610 0.930 . S
C570 C568 1.358 . S
C570 N571 1.279 . S
C570 H611 0.930 . S
N571 C569 1.314 . S
N571 C570 1.279 . S
C572 C574 1.353 . S
C572 N575 1.314 . S
C572 H578 0.930 . S
C573 N575 1.279 . S
C573 C576 1.358 . S
C573 H579 0.930 . S
C574 C572 1.353 . S
C574 C577 1.348 . S
C574 H612 0.929 . S
N575 Li530 1.990 . S
N575 C572 1.314 . S
N575 C573 1.279 . S
C576 C573 1.358 . S
C576 C577 1.356 . S
C576 H613 0.930 . S
C577 C574 1.348 . S
C577 C576 1.356 . S
H578 C572 0.930 . S
H579 C573 0.930 . S
C580 N581 1.314 . S
C580 C582 1.353 . S
C580 H586 0.930 . S
N581 Li531 1.990 . S
N581 C580 1.314 . S
N581 C584 1.279 . S
C582 C580 1.353 . S
C582 C585 1.348 . S
C582 H614 0.929 . S
C583 C584 1.358 . S
C583 C585 1.356 . S
C583 H615 0.930 . S
C584 N581 1.279 . S
C584 C583 1.358 . S
C584 H587 0.930 . S
C585 C582 1.348 . S
C585 C583 1.356 . S
H586 C580 0.930 . S
H587 C584 0.930 . S
O588 Li528 1.956 . S
O588 Li529 1.970 . S
O588 Li530 1.961 . S
O588 C532 1.325 . S
O589 Li528 1.970 . S
O589 Li529 1.956 . S
O589 Li531 1.961 . S
O589 C538 1.325 . S
O590 Li528 1.961 . S
O590 Li530 1.956 . S
O590 Li531 1.970 . S
O590 C560 1.325 . S
O591 Li529 1.961 . S
O591 Li530 1.970 . S
O591 Li531 1.956 . S
O591 C566 1.325 . S
H592 C534 0.929 . S
H593 C535 0.930 . S
H594 C536 0.930 . S
H595 C537 0.930 . S
H596 C539 0.930 . S
H597 C541 0.929 . S
H598 C542 0.930 . S
H599 C543 0.930 . S
H600 C546 0.930 . S
H601 C549 0.929 . S
H602 C554 0.929 . S
H603 C555 0.930 . S
H604 C562 0.929 . S
H605 C563 0.930 . S
H606 C564 0.930 . S
H607 C565 0.930 . S
H608 C567 0.929 . S
H609 C568 0.930 . S
H610 C569 0.930 . S
H611 C570 0.930 . S
H612 C574 0.929 . S
H613 C576 0.930 . S
H614 C582 0.929 . S
H615 C583 0.930 . S
Li616 N633 1.990 . S
Li616 O676 1.956 . S
Li616 O677 1.970 . S
Li616 O678 1.961 . S
Li617 N641 1.990 . S
Li617 O676 1.970 . S
Li617 O677 1.956 . S
Li617 O679 1.961 . S
Li618 N663 1.990 . S
Li618 O676 1.961 . S
Li618 O678 1.956 . S
Li618 O679 1.970 . S
Li619 N669 1.990 . S
Li619 O677 1.961 . S
Li619 O678 1.970 . S
Li619 O679 1.956 . S
C620 C622 1.348 . S
C620 C623 1.356 . S
C620 O676 1.325 . S
N621 C624 1.314 . S
N621 C625 1.279 . S
C622 C620 1.348 . S
C622 C624 1.353 . S
C622 H680 0.929 . S
C623 C620 1.356 . S
C623 C625 1.358 . S
C623 H681 0.930 . S
C624 N621 1.314 . S
C624 C622 1.353 . S
C624 H682 0.930 . S
C625 N621 1.279 . S
C625 C623 1.358 . S
C625 H683 0.930 . S
C626 C629 1.348 . S
C626 C630 1.356 . S
C626 O677 1.325 . S
C627 N628 1.279 . S
C627 C630 1.358 . S
C627 H684 0.930 . S
N628 C627 1.279 . S
N628 C631 1.314 . S
C629 C626 1.348 . S
C629 C631 1.353 . S
C629 H685 0.929 . S
C630 C626 1.356 . S
C630 C627 1.358 . S
C630 H686 0.930 . S
C631 N628 1.314 . S
C631 C629 1.353 . S
C631 H687 0.930 . S
C632 N633 1.314 . S
C632 C637 1.353 . S
C632 H638 0.930 . S
N633 Li616 1.990 . S
N633 C632 1.314 . S
N633 C635 1.279 . S
C634 C635 1.358 . S
C634 C636 1.356 . S
C634 H688 0.930 . S
C635 N633 1.279 . S
C635 C634 1.358 . S
C635 H639 0.930 . S
C636 C634 1.356 . S
C636 C637 1.348 . S
C637 C632 1.353 . S
C637 C636 1.348 . S
C637 H689 0.929 . S
H638 C632 0.930 . S
H639 C635 0.930 . S
C640 N641 1.314 . S
C640 C642 1.353 . S
C640 H646 0.930 . S
N641 Li617 1.990 . S
N641 C640 1.314 . S
N641 C644 1.279 . S
C642 C640 1.353 . S
C642 C645 1.348 . S
C642 H690 0.929 . S
C643 C644 1.358 . S
C643 C645 1.356 . S
C643 H691 0.930 . S
C644 N641 1.279 . S
C644 C643 1.358 . S
C644 H647 0.930 . S
C645 C642 1.348 . S
C645 C643 1.356 . S
H646 C640 0.930 . S
H647 C644 0.930 . S
C648 C650 1.348 . S
C648 C651 1.356 . S
C648 O678 1.325 . S
N649 C652 1.314 . S
N649 C653 1.279 . S
C650 C648 1.348 . S
C650 C652 1.353 . S
C650 H692 0.929 . S
C651 C648 1.356 . S
C651 C653 1.358 . S
C651 H693 0.930 . S
C652 N649 1.314 . S
C652 C650 1.353 . S
C652 H694 0.930 . S
C653 N649 1.279 . S
C653 C651 1.358 . S
C653 H695 0.930 . S
C654 C655 1.348 . S
C654 C656 1.356 . S
C654 O679 1.325 . S
C655 C654 1.348 . S
C655 C657 1.353 . S
C655 H696 0.929 . S
C656 C654 1.356 . S
C656 C658 1.358 . S
C656 H697 0.930 . S
C657 C655 1.353 . S
C657 N659 1.314 . S
C657 H698 0.930 . S
C658 C656 1.358 . S
C658 N659 1.279 . S
C658 H699 0.930 . S
N659 C657 1.314 . S
N659 C658 1.279 . S
C660 C662 1.353 . S
C660 N663 1.314 . S
C660 H666 0.930 . S
C661 N663 1.279 . S
C661 C664 1.358 . S
C661 H667 0.930 . S
C662 C660 1.353 . S
C662 C665 1.348 . S
C662 H700 0.929 . S
N663 Li618 1.990 . S
N663 C660 1.314 . S
N663 C661 1.279 . S
C664 C661 1.358 . S
C664 C665 1.356 . S
C664 H701 0.930 . S
C665 C662 1.348 . S
C665 C664 1.356 . S
H666 C660 0.930 . S
H667 C661 0.930 . S
C668 N669 1.314 . S
C668 C670 1.353 . S
C668 H674 0.930 . S
N669 Li619 1.990 . S
N669 C668 1.314 . S
N669 C672 1.279 . S
C670 C668 1.353 . S
C670 C673 1.348 . S
C670 H702 0.929 . S
C671 C672 1.358 . S
C671 C673 1.356 . S
C671 H703 0.930 . S
C672 N669 1.279 . S
C672 C671 1.358 . S
C672 H675 0.930 . S
C673 C670 1.348 . S
C673 C671 1.356 . S
H674 C668 0.930 . S
H675 C672 0.930 . S
O676 Li616 1.956 . S
O676 Li617 1.970 . S
O676 Li618 1.961 . S
O676 C620 1.325 . S
O677 Li616 1.970 . S
O677 Li617 1.956 . S
O677 Li619 1.961 . S
O677 C626 1.325 . S
O678 Li616 1.961 . S
O678 Li618 1.956 . S
O678 Li619 1.970 . S
O678 C648 1.325 . S
O679 Li617 1.961 . S
O679 Li618 1.970 . S
O679 Li619 1.956 . S
O679 C654 1.325 . S
H680 C622 0.929 . S
H681 C623 0.930 . S
H682 C624 0.930 . S
H683 C625 0.930 . S
H684 C627 0.930 . S
H685 C629 0.929 . S
H686 C630 0.930 . S
H687 C631 0.930 . S
H688 C634 0.930 . S
H689 C637 0.929 . S
H690 C642 0.929 . S
H691 C643 0.930 . S
H692 C650 0.929 . S
H693 C651 0.930 . S
H694 C652 0.930 . S
H695 C653 0.930 . S
H696 C655 0.929 . S
H697 C656 0.930 . S
H698 C657 0.930 . S
H699 C658 0.930 . S
H700 C662 0.929 . S
H701 C664 0.930 . S
H702 C670 0.929 . S
H703 C671 0.930 . S
Li704 N721 1.990 . S
Li704 O764 1.956 . S
Li704 O765 1.970 . S
Li704 O766 1.961 . S
Li705 N729 1.990 . S
Li705 O764 1.970 . S
Li705 O765 1.956 . S
Li705 O767 1.961 . S
Li706 N751 1.990 . S
Li706 O764 1.961 . S
Li706 O766 1.956 . S
Li706 O767 1.970 . S
Li707 N757 1.990 . S
Li707 O765 1.961 . S
Li707 O766 1.970 . S
Li707 O767 1.956 . S
C708 C710 1.348 . S
C708 C711 1.356 . S
C708 O764 1.325 . S
N709 C712 1.314 . S
N709 C713 1.279 . S
C710 C708 1.348 . S
C710 C712 1.353 . S
C710 H768 0.929 . S
C711 C708 1.356 . S
C711 C713 1.358 . S
C711 H769 0.930 . S
C712 N709 1.314 . S
C712 C710 1.353 . S
C712 H770 0.930 . S
C713 N709 1.279 . S
C713 C711 1.358 . S
C713 H771 0.930 . S
C714 C717 1.348 . S
C714 C718 1.356 . S
C714 O765 1.325 . S
C715 N716 1.279 . S
C715 C718 1.358 . S
C715 H772 0.930 . S
N716 C715 1.279 . S
N716 C719 1.314 . S
C717 C714 1.348 . S
C717 C719 1.353 . S
C717 H773 0.929 . S
C718 C714 1.356 . S
C718 C715 1.358 . S
C718 H774 0.930 . S
C719 N716 1.314 . S
C719 C717 1.353 . S
C719 H775 0.930 . S
C720 N721 1.314 . S
C720 C725 1.353 . S
C720 H726 0.930 . S
N721 Li704 1.990 . S
N721 C720 1.314 . S
N721 C723 1.279 . S
C722 C723 1.358 . S
C722 C724 1.356 . S
C722 H776 0.930 . S
C723 N721 1.279 . S
C723 C722 1.358 . S
C723 H727 0.930 . S
C724 C722 1.356 . S
C724 C725 1.348 . S
C725 C720 1.353 . S
C725 C724 1.348 . S
C725 H777 0.929 . S
H726 C720 0.930 . S
H727 C723 0.930 . S
C728 N729 1.314 . S
C728 C730 1.353 . S
C728 H734 0.930 . S
N729 Li705 1.990 . S
N729 C728 1.314 . S
N729 C732 1.279 . S
C730 C728 1.353 . S
C730 C733 1.348 . S
C730 H778 0.929 . S
C731 C732 1.358 . S
C731 C733 1.356 . S
C731 H779 0.930 . S
C732 N729 1.279 . S
C732 C731 1.358 . S
C732 H735 0.930 . S
C733 C730 1.348 . S
C733 C731 1.356 . S
H734 C728 0.930 . S
H735 C732 0.930 . S
C736 C738 1.348 . S
C736 C739 1.356 . S
C736 O766 1.325 . S
N737 C740 1.314 . S
N737 C741 1.279 . S
C738 C736 1.348 . S
C738 C740 1.353 . S
C738 H780 0.929 . S
C739 C736 1.356 . S
C739 C741 1.358 . S
C739 H781 0.930 . S
C740 N737 1.314 . S
C740 C738 1.353 . S
C740 H782 0.930 . S
C741 N737 1.279 . S
C741 C739 1.358 . S
C741 H783 0.930 . S
C742 C743 1.348 . S
C742 C744 1.356 . S
C742 O767 1.325 . S
C743 C742 1.348 . S
C743 C745 1.353 . S
C743 H784 0.929 . S
C744 C742 1.356 . S
C744 C746 1.358 . S
C744 H785 0.930 . S
C745 C743 1.353 . S
C745 N747 1.314 . S
C745 H786 0.930 . S
C746 C744 1.358 . S
C746 N747 1.279 . S
C746 H787 0.930 . S
N747 C745 1.314 . S
N747 C746 1.279 . S
C748 C750 1.353 . S
C748 N751 1.314 . S
C748 H754 0.930 . S
C749 N751 1.279 . S
C749 C752 1.358 . S
C749 H755 0.930 . S
C750 C748 1.353 . S
C750 C753 1.348 . S
C750 H788 0.929 . S
N751 Li706 1.990 . S
N751 C748 1.314 . S
N751 C749 1.279 . S
C752 C749 1.358 . S
C752 C753 1.356 . S
C752 H789 0.930 . S
C753 C750 1.348 . S
C753 C752 1.356 . S
H754 C748 0.930 . S
H755 C749 0.930 . S
C756 N757 1.314 . S
C756 C758 1.353 . S
C756 H762 0.930 . S
N757 Li707 1.990 . S
N757 C756 1.314 . S
N757 C760 1.279 . S
C758 C756 1.353 . S
C758 C761 1.348 . S
C758 H790 0.929 . S
C759 C760 1.358 . S
C759 C761 1.356 . S
C759 H791 0.930 . S
C760 N757 1.279 . S
C760 C759 1.358 . S
C760 H763 0.930 . S
C761 C758 1.348 . S
C761 C759 1.356 . S
H762 C756 0.930 . S
H763 C760 0.930 . S
O764 Li704 1.956 . S
O764 Li705 1.970 . S
O764 Li706 1.961 . S
O764 C708 1.325 . S
O765 Li704 1.970 . S
O765 Li705 1.956 . S
O765 Li707 1.961 . S
O765 C714 1.325 . S
O766 Li704 1.961 . S
O766 Li706 1.956 . S
O766 Li707 1.970 . S
O766 C736 1.325 . S
O767 Li705 1.961 . S
O767 Li706 1.970 . S
O767 Li707 1.956 . S
O767 C742 1.325 . S
H768 C710 0.929 . S
H769 C711 0.930 . S
H770 C712 0.930 . S
H771 C713 0.930 . S
H772 C715 0.930 . S
H773 C717 0.929 . S
H774 C718 0.930 . S
H775 C719 0.930 . S
H776 C722 0.930 . S
H777 C725 0.929 . S
H778 C730 0.929 . S
H779 C731 0.930 . S
H780 C738 0.929 . S
H781 C739 0.930 . S
H782 C740 0.930 . S
H783 C741 0.930 . S
H784 C743 0.929 . S
H785 C744 0.930 . S
H786 C745 0.930 . S
H787 C746 0.930 . S
H788 C750 0.929 . S
H789 C752 0.930 . S
H790 C758 0.929 . S
H791 C759 0.930 . S
Li792 N809 1.990 . S
Li792 O852 1.956 . S
Li792 O853 1.970 . S
Li792 O854 1.961 . S
Li793 N817 1.990 . S
Li793 O852 1.970 . S
Li793 O853 1.956 . S
Li793 O855 1.961 . S
Li794 N839 1.990 . S
Li794 O852 1.961 . S
Li794 O854 1.956 . S
Li794 O855 1.970 . S
Li795 N845 1.990 . S
Li795 O853 1.961 . S
Li795 O854 1.970 . S
Li795 O855 1.956 . S
C796 C798 1.348 . S
C796 C799 1.356 . S
C796 O852 1.325 . S
N797 C800 1.314 . S
N797 C801 1.279 . S
C798 C796 1.348 . S
C798 C800 1.353 . S
C798 H856 0.929 . S
C799 C796 1.356 . S
C799 C801 1.358 . S
C799 H857 0.930 . S
C800 N797 1.314 . S
C800 C798 1.353 . S
C800 H858 0.930 . S
C801 N797 1.279 . S
C801 C799 1.358 . S
C801 H859 0.930 . S
C802 C805 1.348 . S
C802 C806 1.356 . S
C802 O853 1.325 . S
C803 N804 1.279 . S
C803 C806 1.358 . S
C803 H860 0.930 . S
N804 C803 1.279 . S
N804 C807 1.314 . S
C805 C802 1.348 . S
C805 C807 1.353 . S
C805 H861 0.929 . S
C806 C802 1.356 . S
C806 C803 1.358 . S
C806 H862 0.930 . S
C807 N804 1.314 . S
C807 C805 1.353 . S
C807 H863 0.930 . S
C808 N809 1.314 . S
C808 C813 1.353 . S
C808 H814 0.930 . S
N809 Li792 1.990 . S
N809 C808 1.314 . S
N809 C811 1.279 . S
C810 C811 1.358 . S
C810 C812 1.356 . S
C810 H864 0.930 . S
C811 N809 1.279 . S
C811 C810 1.358 . S
C811 H815 0.930 . S
C812 C810 1.356 . S
C812 C813 1.348 . S
C813 C808 1.353 . S
C813 C812 1.348 . S
C813 H865 0.929 . S
H814 C808 0.930 . S
H815 C811 0.930 . S
C816 N817 1.314 . S
C816 C818 1.353 . S
C816 H822 0.930 . S
N817 Li793 1.990 . S
N817 C816 1.314 . S
N817 C820 1.279 . S
C818 C816 1.353 . S
C818 C821 1.348 . S
C818 H866 0.929 . S
C819 C820 1.358 . S
C819 C821 1.356 . S
C819 H867 0.930 . S
C820 N817 1.279 . S
C820 C819 1.358 . S
C820 H823 0.930 . S
C821 C818 1.348 . S
C821 C819 1.356 . S
H822 C816 0.930 . S
H823 C820 0.930 . S
C824 C826 1.348 . S
C824 C827 1.356 . S
C824 O854 1.325 . S
N825 C828 1.314 . S
N825 C829 1.279 . S
C826 C824 1.348 . S
C826 C828 1.353 . S
C826 H868 0.929 . S
C827 C824 1.356 . S
C827 C829 1.358 . S
C827 H869 0.930 . S
C828 N825 1.314 . S
C828 C826 1.353 . S
C828 H870 0.930 . S
C829 N825 1.279 . S
C829 C827 1.358 . S
C829 H871 0.930 . S
C830 C831 1.348 . S
C830 C832 1.356 . S
C830 O855 1.325 . S
C831 C830 1.348 . S
C831 C833 1.353 . S
C831 H872 0.929 . S
C832 C830 1.356 . S
C832 C834 1.358 . S
C832 H873 0.930 . S
C833 C831 1.353 . S
C833 N835 1.314 . S
C833 H874 0.930 . S
C834 C832 1.358 . S
C834 N835 1.279 . S
C834 H875 0.930 . S
N835 C833 1.314 . S
N835 C834 1.279 . S
C836 C838 1.353 . S
C836 N839 1.314 . S
C836 H842 0.930 . S
C837 N839 1.279 . S
C837 C840 1.358 . S
C837 H843 0.930 . S
C838 C836 1.353 . S
C838 C841 1.348 . S
C838 H876 0.929 . S
N839 Li794 1.990 . S
N839 C836 1.314 . S
N839 C837 1.279 . S
C840 C837 1.358 . S
C840 C841 1.356 . S
C840 H877 0.930 . S
C841 C838 1.348 . S
C841 C840 1.356 . S
H842 C836 0.930 . S
H843 C837 0.930 . S
C844 N845 1.314 . S
C844 C846 1.353 . S
C844 H850 0.930 . S
N845 Li795 1.990 . S
N845 C844 1.314 . S
N845 C848 1.279 . S
C846 C844 1.353 . S
C846 C849 1.348 . S
C846 H878 0.929 . S
C847 C848 1.358 . S
C847 C849 1.356 . S
C847 H879 0.930 . S
C848 N845 1.279 . S
C848 C847 1.358 . S
C848 H851 0.930 . S
C849 C846 1.348 . S
C849 C847 1.356 . S
H850 C844 0.930 . S
H851 C848 0.930 . S
O852 Li792 1.956 . S
O852 Li793 1.970 . S
O852 Li794 1.961 . S
O852 C796 1.325 . S
O853 Li792 1.970 . S
O853 Li793 1.956 . S
O853 Li795 1.961 . S
O853 C802 1.325 . S
O854 Li792 1.961 . S
O854 Li794 1.956 . S
O854 Li795 1.970 . S
O854 C824 1.325 . S
O855 Li793 1.961 . S
O855 Li794 1.970 . S
O855 Li795 1.956 . S
O855 C830 1.325 . S
H856 C798 0.929 . S
H857 C799 0.930 . S
H858 C800 0.930 . S
H859 C801 0.930 . S
H860 C803 0.930 . S
H861 C805 0.929 . S
H862 C806 0.930 . S
H863 C807 0.930 . S
H864 C810 0.930 . S
H865 C813 0.929 . S
H866 C818 0.929 . S
H867 C819 0.930 . S
H868 C826 0.929 . S
H869 C827 0.930 . S
H870 C828 0.930 . S
H871 C829 0.930 . S
H872 C831 0.929 . S
H873 C832 0.930 . S
H874 C833 0.930 . S
H875 C834 0.930 . S
H876 C838 0.929 . S
H877 C840 0.930 . S
H878 C846 0.929 . S
H879 C847 0.930 . S
Li880 N897 1.990 . S
Li880 O940 1.956 . S
Li880 O941 1.970 . S
Li880 O942 1.961 . S
Li881 N905 1.990 . S
Li881 O940 1.970 . S
Li881 O941 1.956 . S
Li881 O943 1.961 . S
Li882 N927 1.990 . S
Li882 O940 1.961 . S
Li882 O942 1.956 . S
Li882 O943 1.970 . S
Li883 N933 1.990 . S
Li883 O941 1.961 . S
Li883 O942 1.970 . S
Li883 O943 1.956 . S
C884 C886 1.348 . S
C884 C887 1.356 . S
C884 O940 1.325 . S
N885 C888 1.314 . S
N885 C889 1.279 . S
C886 C884 1.348 . S
C886 C888 1.353 . S
C886 H944 0.929 . S
C887 C884 1.356 . S
C887 C889 1.358 . S
C887 H945 0.930 . S
C888 N885 1.314 . S
C888 C886 1.353 . S
C888 H946 0.930 . S
C889 N885 1.279 . S
C889 C887 1.358 . S
C889 H947 0.930 . S
C890 C893 1.348 . S
C890 C894 1.356 . S
C890 O941 1.325 . S
C891 N892 1.279 . S
C891 C894 1.358 . S
C891 H948 0.930 . S
N892 C891 1.279 . S
N892 C895 1.314 . S
C893 C890 1.348 . S
C893 C895 1.353 . S
C893 H949 0.929 . S
C894 C890 1.356 . S
C894 C891 1.358 . S
C894 H950 0.930 . S
C895 N892 1.314 . S
C895 C893 1.353 . S
C895 H951 0.930 . S
C896 N897 1.314 . S
C896 C901 1.353 . S
C896 H902 0.930 . S
N897 Li880 1.990 . S
N897 C896 1.314 . S
N897 C899 1.279 . S
C898 C899 1.358 . S
C898 C900 1.356 . S
C898 H952 0.930 . S
C899 N897 1.279 . S
C899 C898 1.358 . S
C899 H903 0.930 . S
C900 C898 1.356 . S
C900 C901 1.348 . S
C901 C896 1.353 . S
C901 C900 1.348 . S
C901 H953 0.929 . S
H902 C896 0.930 . S
H903 C899 0.930 . S
C904 N905 1.314 . S
C904 C906 1.353 . S
C904 H910 0.930 . S
N905 Li881 1.990 . S
N905 C904 1.314 . S
N905 C908 1.279 . S
C906 C904 1.353 . S
C906 C909 1.348 . S
C906 H954 0.929 . S
C907 C908 1.358 . S
C907 C909 1.356 . S
C907 H955 0.930 . S
C908 N905 1.279 . S
C908 C907 1.358 . S
C908 H911 0.930 . S
C909 C906 1.348 . S
C909 C907 1.356 . S
H910 C904 0.930 . S
H911 C908 0.930 . S
C912 C914 1.348 . S
C912 C915 1.356 . S
C912 O942 1.325 . S
N913 C916 1.314 . S
N913 C917 1.279 . S
C914 C912 1.348 . S
C914 C916 1.353 . S
C914 H956 0.929 . S
C915 C912 1.356 . S
C915 C917 1.358 . S
C915 H957 0.930 . S
C916 N913 1.314 . S
C916 C914 1.353 . S
C916 H958 0.930 . S
C917 N913 1.279 . S
C917 C915 1.358 . S
C917 H959 0.930 . S
C918 C919 1.348 . S
C918 C920 1.356 . S
C918 O943 1.325 . S
C919 C918 1.348 . S
C919 C921 1.353 . S
C919 H960 0.929 . S
C920 C918 1.356 . S
C920 C922 1.358 . S
C920 H961 0.930 . S
C921 C919 1.353 . S
C921 N923 1.314 . S
C921 H962 0.930 . S
C922 C920 1.358 . S
C922 N923 1.279 . S
C922 H963 0.930 . S
N923 C921 1.314 . S
N923 C922 1.279 . S
C924 C926 1.353 . S
C924 N927 1.314 . S
C924 H930 0.930 . S
C925 N927 1.279 . S
C925 C928 1.358 . S
C925 H931 0.930 . S
C926 C924 1.353 . S
C926 C929 1.348 . S
C926 H964 0.929 . S
N927 Li882 1.990 . S
N927 C924 1.314 . S
N927 C925 1.279 . S
C928 C925 1.358 . S
C928 C929 1.356 . S
C928 H965 0.930 . S
C929 C926 1.348 . S
C929 C928 1.356 . S
H930 C924 0.930 . S
H931 C925 0.930 . S
C932 N933 1.314 . S
C932 C934 1.353 . S
C932 H938 0.930 . S
N933 Li883 1.990 . S
N933 C932 1.314 . S
N933 C936 1.279 . S
C934 C932 1.353 . S
C934 C937 1.348 . S
C934 H966 0.929 . S
C935 C936 1.358 . S
C935 C937 1.356 . S
C935 H967 0.930 . S
C936 N933 1.279 . S
C936 C935 1.358 . S
C936 H939 0.930 . S
C937 C934 1.348 . S
C937 C935 1.356 . S
H938 C932 0.930 . S
H939 C936 0.930 . S
O940 Li880 1.956 . S
O940 Li881 1.970 . S
O940 Li882 1.961 . S
O940 C884 1.325 . S
O941 Li880 1.970 . S
O941 Li881 1.956 . S
O941 Li883 1.961 . S
O941 C890 1.325 . S
O942 Li880 1.961 . S
O942 Li882 1.956 . S
O942 Li883 1.970 . S
O942 C912 1.325 . S
O943 Li881 1.961 . S
O943 Li882 1.970 . S
O943 Li883 1.956 . S
O943 C918 1.325 . S
H944 C886 0.929 . S
H945 C887 0.930 . S
H946 C888 0.930 . S
H947 C889 0.930 . S
H948 C891 0.930 . S
H949 C893 0.929 . S
H950 C894 0.930 . S
H951 C895 0.930 . S
H952 C898 0.930 . S
H953 C901 0.929 . S
H954 C906 0.929 . S
H955 C907 0.930 . S
H956 C914 0.929 . S
H957 C915 0.930 . S
H958 C916 0.930 . S
H959 C917 0.930 . S
H960 C919 0.929 . S
H961 C920 0.930 . S
H962 C921 0.930 . S
H963 C922 0.930 . S
H964 C926 0.929 . S
H965 C928 0.930 . S
H966 C934 0.929 . S
H967 C935 0.930 . S
Li968 N985 1.990 . S
Li968 O1028 1.956 . S
Li968 O1029 1.970 . S
Li968 O1030 1.961 . S
Li969 N993 1.990 . S
Li969 O1028 1.970 . S
Li969 O1029 1.956 . S
Li969 O1031 1.961 . S
Li970 N1015 1.990 . S
Li970 O1028 1.961 . S
Li970 O1030 1.956 . S
Li970 O1031 1.970 . S
Li971 N1021 1.990 . S
Li971 O1029 1.961 . S
Li971 O1030 1.970 . S
Li971 O1031 1.956 . S
C972 C974 1.348 . S
C972 C975 1.356 . S
C972 O1028 1.325 . S
N973 C976 1.314 . S
N973 C977 1.279 . S
C974 C972 1.348 . S
C974 C976 1.353 . S
C974 H1032 0.929 . S
C975 C972 1.356 . S
C975 C977 1.358 . S
C975 H1033 0.930 . S
C976 N973 1.314 . S
C976 C974 1.353 . S
C976 H1034 0.930 . S
C977 N973 1.279 . S
C977 C975 1.358 . S
C977 H1035 0.930 . S
C978 C981 1.348 . S
C978 C982 1.356 . S
C978 O1029 1.325 . S
C979 N980 1.279 . S
C979 C982 1.358 . S
C979 H1036 0.930 . S
N980 C979 1.279 . S
N980 C983 1.314 . S
C981 C978 1.348 . S
C981 C983 1.353 . S
C981 H1037 0.929 . S
C982 C978 1.356 . S
C982 C979 1.358 . S
C982 H1038 0.930 . S
C983 N980 1.314 . S
C983 C981 1.353 . S
C983 H1039 0.930 . S
C984 N985 1.314 . S
C984 C989 1.353 . S
C984 H990 0.930 . S
N985 Li968 1.990 . S
N985 C984 1.314 . S
N985 C987 1.279 . S
C986 C987 1.358 . S
C986 C988 1.356 . S
C986 H1040 0.930 . S
C987 N985 1.279 . S
C987 C986 1.358 . S
C987 H991 0.930 . S
C988 C986 1.356 . S
C988 C989 1.348 . S
C989 C984 1.353 . S
C989 C988 1.348 . S
C989 H1041 0.929 . S
H990 C984 0.930 . S
H991 C987 0.930 . S
C992 N993 1.314 . S
C992 C994 1.353 . S
C992 H998 0.930 . S
N993 Li969 1.990 . S
N993 C992 1.314 . S
N993 C996 1.279 . S
C994 C992 1.353 . S
C994 C997 1.348 . S
C994 H1042 0.929 . S
C995 C996 1.358 . S
C995 C997 1.356 . S
C995 H1043 0.930 . S
C996 N993 1.279 . S
C996 C995 1.358 . S
C996 H999 0.930 . S
C997 C994 1.348 . S
C997 C995 1.356 . S
H998 C992 0.930 . S
H999 C996 0.930 . S
C1000 C1002 1.348 . S
C1000 C1003 1.356 . S
C1000 O1030 1.325 . S
N1001 C1004 1.314 . S
N1001 C1005 1.279 . S
C1002 C1000 1.348 . S
C1002 C1004 1.353 . S
C1002 H1044 0.929 . S
C1003 C1000 1.356 . S
C1003 C1005 1.358 . S
C1003 H1045 0.930 . S
C1004 N1001 1.314 . S
C1004 C1002 1.353 . S
C1004 H1046 0.930 . S
C1005 N1001 1.279 . S
C1005 C1003 1.358 . S
C1005 H1047 0.930 . S
C1006 C1007 1.348 . S
C1006 C1008 1.356 . S
C1006 O1031 1.325 . S
C1007 C1006 1.348 . S
C1007 C1009 1.353 . S
C1007 H1048 0.929 . S
C1008 C1006 1.356 . S
C1008 C1010 1.358 . S
C1008 H1049 0.930 . S
C1009 C1007 1.353 . S
C1009 N1011 1.314 . S
C1009 H1050 0.930 . S
C1010 C1008 1.358 . S
C1010 N1011 1.279 . S
C1010 H1051 0.930 . S
N1011 C1009 1.314 . S
N1011 C1010 1.279 . S
C1012 C1014 1.353 . S
C1012 N1015 1.314 . S
C1012 H1018 0.930 . S
C1013 N1015 1.279 . S
C1013 C1016 1.358 . S
C1013 H1019 0.930 . S
C1014 C1012 1.353 . S
C1014 C1017 1.348 . S
C1014 H1052 0.929 . S
N1015 Li970 1.990 . S
N1015 C1012 1.314 . S
N1015 C1013 1.279 . S
C1016 C1013 1.358 . S
C1016 C1017 1.356 . S
C1016 H1053 0.930 . S
C1017 C1014 1.348 . S
C1017 C1016 1.356 . S
H1018 C1012 0.930 . S
H1019 C1013 0.930 . S
C1020 N1021 1.314 . S
C1020 C1022 1.353 . S
C1020 H1026 0.930 . S
N1021 Li971 1.990 . S
N1021 C1020 1.314 . S
N1021 C1024 1.279 . S
C1022 C1020 1.353 . S
C1022 C1025 1.348 . S
C1022 H1054 0.929 . S
C1023 C1024 1.358 . S
C1023 C1025 1.356 . S
C1023 H1055 0.930 . S
C1024 N1021 1.279 . S
C1024 C1023 1.358 . S
C1024 H1027 0.930 . S
C1025 C1022 1.348 . S
C1025 C1023 1.356 . S
H1026 C1020 0.930 . S
H1027 C1024 0.930 . S
O1028 Li968 1.956 . S
O1028 Li969 1.970 . S
O1028 Li970 1.961 . S
O1028 C972 1.325 . S
O1029 Li968 1.970 . S
O1029 Li969 1.956 . S
O1029 Li971 1.961 . S
O1029 C978 1.325 . S
O1030 Li968 1.961 . S
O1030 Li970 1.956 . S
O1030 Li971 1.970 . S
O1030 C1000 1.325 . S
O1031 Li969 1.961 . S
O1031 Li970 1.970 . S
O1031 Li971 1.956 . S
O1031 C1006 1.325 . S
H1032 C974 0.929 . S
H1033 C975 0.930 . S
H1034 C976 0.930 . S
H1035 C977 0.930 . S
H1036 C979 0.930 . S
H1037 C981 0.929 . S
H1038 C982 0.930 . S
H1039 C983 0.930 . S
H1040 C986 0.930 . S
H1041 C989 0.929 . S
H1042 C994 0.929 . S
H1043 C995 0.930 . S
H1044 C1002 0.929 . S
H1045 C1003 0.930 . S
H1046 C1004 0.930 . S
H1047 C1005 0.930 . S
H1048 C1007 0.929 . S
H1049 C1008 0.930 . S
H1050 C1009 0.930 . S
H1051 C1010 0.930 . S
H1052 C1014 0.929 . S
H1053 C1016 0.930 . S
H1054 C1022 0.929 . S
H1055 C1023 0.930 . S
Li1056 N1073 1.990 . S
Li1056 O1116 1.956 . S
Li1056 O1117 1.970 . S
Li1056 O1118 1.961 . S
Li1057 N1081 1.990 . S
Li1057 O1116 1.970 . S
Li1057 O1117 1.956 . S
Li1057 O1119 1.961 . S
Li1058 N1103 1.990 . S
Li1058 O1116 1.961 . S
Li1058 O1118 1.956 . S
Li1058 O1119 1.970 . S
Li1059 N1109 1.990 . S
Li1059 O1117 1.961 . S
Li1059 O1118 1.970 . S
Li1059 O1119 1.956 . S
C1060 C1062 1.348 . S
C1060 C1063 1.356 . S
C1060 O1116 1.325 . S
N1061 C1064 1.314 . S
N1061 C1065 1.279 . S
C1062 C1060 1.348 . S
C1062 C1064 1.353 . S
C1062 H1120 0.929 . S
C1063 C1060 1.356 . S
C1063 C1065 1.358 . S
C1063 H1121 0.930 . S
C1064 N1061 1.314 . S
C1064 C1062 1.353 . S
C1064 H1122 0.930 . S
C1065 N1061 1.279 . S
C1065 C1063 1.358 . S
C1065 H1123 0.930 . S
C1066 C1069 1.348 . S
C1066 C1070 1.356 . S
C1066 O1117 1.325 . S
C1067 N1068 1.279 . S
C1067 C1070 1.358 . S
C1067 H1124 0.930 . S
N1068 C1067 1.279 . S
N1068 C1071 1.314 . S
C1069 C1066 1.348 . S
C1069 C1071 1.353 . S
C1069 H1125 0.929 . S
C1070 C1066 1.356 . S
C1070 C1067 1.358 . S
C1070 H1126 0.930 . S
C1071 N1068 1.314 . S
C1071 C1069 1.353 . S
C1071 H1127 0.930 . S
C1072 N1073 1.314 . S
C1072 C1077 1.353 . S
C1072 H1078 0.930 . S
N1073 Li1056 1.990 . S
N1073 C1072 1.314 . S
N1073 C1075 1.279 . S
C1074 C1075 1.358 . S
C1074 C1076 1.356 . S
C1074 H1128 0.930 . S
C1075 N1073 1.279 . S
C1075 C1074 1.358 . S
C1075 H1079 0.930 . S
C1076 C1074 1.356 . S
C1076 C1077 1.348 . S
C1077 C1072 1.353 . S
C1077 C1076 1.348 . S
C1077 H1129 0.929 . S
H1078 C1072 0.930 . S
H1079 C1075 0.930 . S
C1080 N1081 1.314 . S
C1080 C1082 1.353 . S
C1080 H1086 0.930 . S
N1081 Li1057 1.990 . S
N1081 C1080 1.314 . S
N1081 C1084 1.279 . S
C1082 C1080 1.353 . S
C1082 C1085 1.348 . S
C1082 H1130 0.929 . S
C1083 C1084 1.358 . S
C1083 C1085 1.356 . S
C1083 H1131 0.930 . S
C1084 N1081 1.279 . S
C1084 C1083 1.358 . S
C1084 H1087 0.930 . S
C1085 C1082 1.348 . S
C1085 C1083 1.356 . S
H1086 C1080 0.930 . S
H1087 C1084 0.930 . S
C1088 C1090 1.348 . S
C1088 C1091 1.356 . S
C1088 O1118 1.325 . S
N1089 C1092 1.314 . S
N1089 C1093 1.279 . S
C1090 C1088 1.348 . S
C1090 C1092 1.353 . S
C1090 H1132 0.929 . S
C1091 C1088 1.356 . S
C1091 C1093 1.358 . S
C1091 H1133 0.930 . S
C1092 N1089 1.314 . S
C1092 C1090 1.353 . S
C1092 H1134 0.930 . S
C1093 N1089 1.279 . S
C1093 C1091 1.358 . S
C1093 H1135 0.930 . S
C1094 C1095 1.348 . S
C1094 C1096 1.356 . S
C1094 O1119 1.325 . S
C1095 C1094 1.348 . S
C1095 C1097 1.353 . S
C1095 H1136 0.929 . S
C1096 C1094 1.356 . S
C1096 C1098 1.358 . S
C1096 H1137 0.930 . S
C1097 C1095 1.353 . S
C1097 N1099 1.314 . S
C1097 H1138 0.930 . S
C1098 C1096 1.358 . S
C1098 N1099 1.279 . S
C1098 H1139 0.930 . S
N1099 C1097 1.314 . S
N1099 C1098 1.279 . S
C1100 C1102 1.353 . S
C1100 N1103 1.314 . S
C1100 H1106 0.930 . S
C1101 N1103 1.279 . S
C1101 C1104 1.358 . S
C1101 H1107 0.930 . S
C1102 C1100 1.353 . S
C1102 C1105 1.348 . S
C1102 H1140 0.929 . S
N1103 Li1058 1.990 . S
N1103 C1100 1.314 . S
N1103 C1101 1.279 . S
C1104 C1101 1.358 . S
C1104 C1105 1.356 . S
C1104 H1141 0.930 . S
C1105 C1102 1.348 . S
C1105 C1104 1.356 . S
H1106 C1100 0.930 . S
H1107 C1101 0.930 . S
C1108 N1109 1.314 . S
C1108 C1110 1.353 . S
C1108 H1114 0.930 . S
N1109 Li1059 1.990 . S
N1109 C1108 1.314 . S
N1109 C1112 1.279 . S
C1110 C1108 1.353 . S
C1110 C1113 1.348 . S
C1110 H1142 0.929 . S
C1111 C1112 1.358 . S
C1111 C1113 1.356 . S
C1111 H1143 0.930 . S
C1112 N1109 1.279 . S
C1112 C1111 1.358 . S
C1112 H1115 0.930 . S
C1113 C1110 1.348 . S
C1113 C1111 1.356 . S
H1114 C1108 0.930 . S
H1115 C1112 0.930 . S
O1116 Li1056 1.956 . S
O1116 Li1057 1.970 . S
O1116 Li1058 1.961 . S
O1116 C1060 1.325 . S
O1117 Li1056 1.970 . S
O1117 Li1057 1.956 . S
O1117 Li1059 1.961 . S
O1117 C1066 1.325 . S
O1118 Li1056 1.961 . S
O1118 Li1058 1.956 . S
O1118 Li1059 1.970 . S
O1118 C1088 1.325 . S
O1119 Li1057 1.961 . S
O1119 Li1058 1.970 . S
O1119 Li1059 1.956 . S
O1119 C1094 1.325 . S
H1120 C1062 0.929 . S
H1121 C1063 0.930 . S
H1122 C1064 0.930 . S
H1123 C1065 0.930 . S
H1124 C1067 0.930 . S
H1125 C1069 0.929 . S
H1126 C1070 0.930 . S
H1127 C1071 0.930 . S
H1128 C1074 0.930 . S
H1129 C1077 0.929 . S
H1130 C1082 0.929 . S
H1131 C1083 0.930 . S
H1132 C1090 0.929 . S
H1133 C1091 0.930 . S
H1134 C1092 0.930 . S
H1135 C1093 0.930 . S
H1136 C1095 0.929 . S
H1137 C1096 0.930 . S
H1138 C1097 0.930 . S
H1139 C1098 0.930 . S
H1140 C1102 0.929 . S
H1141 C1104 0.930 . S
H1142 C1110 0.929 . S
H1143 C1111 0.930 . S
Li1144 N1161 1.990 . S
Li1144 O1204 1.956 . S
Li1144 O1205 1.970 . S
Li1144 O1206 1.961 . S
Li1145 N1169 1.990 . S
Li1145 O1204 1.970 . S
Li1145 O1205 1.956 . S
Li1145 O1207 1.961 . S
Li1146 N1191 1.990 . S
Li1146 O1204 1.961 . S
Li1146 O1206 1.956 . S
Li1146 O1207 1.970 . S
Li1147 N1197 1.990 . S
Li1147 O1205 1.961 . S
Li1147 O1206 1.970 . S
Li1147 O1207 1.956 . S
C1148 C1150 1.348 . S
C1148 C1151 1.356 . S
C1148 O1204 1.325 . S
N1149 C1152 1.314 . S
N1149 C1153 1.279 . S
C1150 C1148 1.348 . S
C1150 C1152 1.353 . S
C1150 H1208 0.929 . S
C1151 C1148 1.356 . S
C1151 C1153 1.358 . S
C1151 H1209 0.930 . S
C1152 N1149 1.314 . S
C1152 C1150 1.353 . S
C1152 H1210 0.930 . S
C1153 N1149 1.279 . S
C1153 C1151 1.358 . S
C1153 H1211 0.930 . S
C1154 C1157 1.348 . S
C1154 C1158 1.356 . S
C1154 O1205 1.325 . S
C1155 N1156 1.279 . S
C1155 C1158 1.358 . S
C1155 H1212 0.930 . S
N1156 C1155 1.279 . S
N1156 C1159 1.314 . S
C1157 C1154 1.348 . S
C1157 C1159 1.353 . S
C1157 H1213 0.929 . S
C1158 C1154 1.356 . S
C1158 C1155 1.358 . S
C1158 H1214 0.930 . S
C1159 N1156 1.314 . S
C1159 C1157 1.353 . S
C1159 H1215 0.930 . S
C1160 N1161 1.314 . S
C1160 C1165 1.353 . S
C1160 H1166 0.930 . S
N1161 Li1144 1.990 . S
N1161 C1160 1.314 . S
N1161 C1163 1.279 . S
C1162 C1163 1.358 . S
C1162 C1164 1.356 . S
C1162 H1216 0.930 . S
C1163 N1161 1.279 . S
C1163 C1162 1.358 . S
C1163 H1167 0.930 . S
C1164 C1162 1.356 . S
C1164 C1165 1.348 . S
C1165 C1160 1.353 . S
C1165 C1164 1.348 . S
C1165 H1217 0.929 . S
H1166 C1160 0.930 . S
H1167 C1163 0.930 . S
C1168 N1169 1.314 . S
C1168 C1170 1.353 . S
C1168 H1174 0.930 . S
N1169 Li1145 1.990 . S
N1169 C1168 1.314 . S
N1169 C1172 1.279 . S
C1170 C1168 1.353 . S
C1170 C1173 1.348 . S
C1170 H1218 0.929 . S
C1171 C1172 1.358 . S
C1171 C1173 1.356 . S
C1171 H1219 0.930 . S
C1172 N1169 1.279 . S
C1172 C1171 1.358 . S
C1172 H1175 0.930 . S
C1173 C1170 1.348 . S
C1173 C1171 1.356 . S
H1174 C1168 0.930 . S
H1175 C1172 0.930 . S
C1176 C1178 1.348 . S
C1176 C1179 1.356 . S
C1176 O1206 1.325 . S
N1177 C1180 1.314 . S
N1177 C1181 1.279 . S
C1178 C1176 1.348 . S
C1178 C1180 1.353 . S
C1178 H1220 0.929 . S
C1179 C1176 1.356 . S
C1179 C1181 1.358 . S
C1179 H1221 0.930 . S
C1180 N1177 1.314 . S
C1180 C1178 1.353 . S
C1180 H1222 0.930 . S
C1181 N1177 1.279 . S
C1181 C1179 1.358 . S
C1181 H1223 0.930 . S
C1182 C1183 1.348 . S
C1182 C1184 1.356 . S
C1182 O1207 1.325 . S
C1183 C1182 1.348 . S
C1183 C1185 1.353 . S
C1183 H1224 0.929 . S
C1184 C1182 1.356 . S
C1184 C1186 1.358 . S
C1184 H1225 0.930 . S
C1185 C1183 1.353 . S
C1185 N1187 1.314 . S
C1185 H1226 0.930 . S
C1186 C1184 1.358 . S
C1186 N1187 1.279 . S
C1186 H1227 0.930 . S
N1187 C1185 1.314 . S
N1187 C1186 1.279 . S
C1188 C1190 1.353 . S
C1188 N1191 1.314 . S
C1188 H1194 0.930 . S
C1189 N1191 1.279 . S
C1189 C1192 1.358 . S
C1189 H1195 0.930 . S
C1190 C1188 1.353 . S
C1190 C1193 1.348 . S
C1190 H1228 0.929 . S
N1191 Li1146 1.990 . S
N1191 C1188 1.314 . S
N1191 C1189 1.279 . S
C1192 C1189 1.358 . S
C1192 C1193 1.356 . S
C1192 H1229 0.930 . S
C1193 C1190 1.348 . S
C1193 C1192 1.356 . S
H1194 C1188 0.930 . S
H1195 C1189 0.930 . S
C1196 N1197 1.314 . S
C1196 C1198 1.353 . S
C1196 H1202 0.930 . S
N1197 Li1147 1.990 . S
N1197 C1196 1.314 . S
N1197 C1200 1.279 . S
C1198 C1196 1.353 . S
C1198 C1201 1.348 . S
C1198 H1230 0.929 . S
C1199 C1200 1.358 . S
C1199 C1201 1.356 . S
C1199 H1231 0.930 . S
C1200 N1197 1.279 . S
C1200 C1199 1.358 . S
C1200 H1203 0.930 . S
C1201 C1198 1.348 . S
C1201 C1199 1.356 . S
H1202 C1196 0.930 . S
H1203 C1200 0.930 . S
O1204 Li1144 1.956 . S
O1204 Li1145 1.970 . S
O1204 Li1146 1.961 . S
O1204 C1148 1.325 . S
O1205 Li1144 1.970 . S
O1205 Li1145 1.956 . S
O1205 Li1147 1.961 . S
O1205 C1154 1.325 . S
O1206 Li1144 1.961 . S
O1206 Li1146 1.956 . S
O1206 Li1147 1.970 . S
O1206 C1176 1.325 . S
O1207 Li1145 1.961 . S
O1207 Li1146 1.970 . S
O1207 Li1147 1.956 . S
O1207 C1182 1.325 . S
H1208 C1150 0.929 . S
H1209 C1151 0.930 . S
H1210 C1152 0.930 . S
H1211 C1153 0.930 . S
H1212 C1155 0.930 . S
H1213 C1157 0.929 . S
H1214 C1158 0.930 . S
H1215 C1159 0.930 . S
H1216 C1162 0.930 . S
H1217 C1165 0.929 . S
H1218 C1170 0.929 . S
H1219 C1171 0.930 . S
H1220 C1178 0.929 . S
H1221 C1179 0.930 . S
H1222 C1180 0.930 . S
H1223 C1181 0.930 . S
H1224 C1183 0.929 . S
H1225 C1184 0.930 . S
H1226 C1185 0.930 . S
H1227 C1186 0.930 . S
H1228 C1190 0.929 . S
H1229 C1192 0.930 . S
H1230 C1198 0.929 . S
H1231 C1199 0.930 . S
Li1232 N1249 1.990 . S
Li1232 O1292 1.956 . S
Li1232 O1293 1.970 . S
Li1232 O1294 1.961 . S
Li1233 N1257 1.990 . S
Li1233 O1292 1.970 . S
Li1233 O1293 1.956 . S
Li1233 O1295 1.961 . S
Li1234 N1279 1.990 . S
Li1234 O1292 1.961 . S
Li1234 O1294 1.956 . S
Li1234 O1295 1.970 . S
Li1235 N1285 1.990 . S
Li1235 O1293 1.961 . S
Li1235 O1294 1.970 . S
Li1235 O1295 1.956 . S
C1236 C1238 1.348 . S
C1236 C1239 1.356 . S
C1236 O1292 1.325 . S
N1237 C1240 1.314 . S
N1237 C1241 1.279 . S
C1238 C1236 1.348 . S
C1238 C1240 1.353 . S
C1238 H1296 0.929 . S
C1239 C1236 1.356 . S
C1239 C1241 1.358 . S
C1239 H1297 0.930 . S
C1240 N1237 1.314 . S
C1240 C1238 1.353 . S
C1240 H1298 0.930 . S
C1241 N1237 1.279 . S
C1241 C1239 1.358 . S
C1241 H1299 0.930 . S
C1242 C1245 1.348 . S
C1242 C1246 1.356 . S
C1242 O1293 1.325 . S
C1243 N1244 1.279 . S
C1243 C1246 1.358 . S
C1243 H1300 0.930 . S
N1244 C1243 1.279 . S
N1244 C1247 1.314 . S
C1245 C1242 1.348 . S
C1245 C1247 1.353 . S
C1245 H1301 0.929 . S
C1246 C1242 1.356 . S
C1246 C1243 1.358 . S
C1246 H1302 0.930 . S
C1247 N1244 1.314 . S
C1247 C1245 1.353 . S
C1247 H1303 0.930 . S
C1248 N1249 1.314 . S
C1248 C1253 1.353 . S
C1248 H1254 0.930 . S
N1249 Li1232 1.990 . S
N1249 C1248 1.314 . S
N1249 C1251 1.279 . S
C1250 C1251 1.358 . S
C1250 C1252 1.356 . S
C1250 H1304 0.930 . S
C1251 N1249 1.279 . S
C1251 C1250 1.358 . S
C1251 H1255 0.930 . S
C1252 C1250 1.356 . S
C1252 C1253 1.348 . S
C1253 C1248 1.353 . S
C1253 C1252 1.348 . S
C1253 H1305 0.929 . S
H1254 C1248 0.930 . S
H1255 C1251 0.930 . S
C1256 N1257 1.314 . S
C1256 C1258 1.353 . S
C1256 H1262 0.930 . S
N1257 Li1233 1.990 . S
N1257 C1256 1.314 . S
N1257 C1260 1.279 . S
C1258 C1256 1.353 . S
C1258 C1261 1.348 . S
C1258 H1306 0.929 . S
C1259 C1260 1.358 . S
C1259 C1261 1.356 . S
C1259 H1307 0.930 . S
C1260 N1257 1.279 . S
C1260 C1259 1.358 . S
C1260 H1263 0.930 . S
C1261 C1258 1.348 . S
C1261 C1259 1.356 . S
H1262 C1256 0.930 . S
H1263 C1260 0.930 . S
C1264 C1266 1.348 . S
C1264 C1267 1.356 . S
C1264 O1294 1.325 . S
N1265 C1268 1.314 . S
N1265 C1269 1.279 . S
C1266 C1264 1.348 . S
C1266 C1268 1.353 . S
C1266 H1308 0.929 . S
C1267 C1264 1.356 . S
C1267 C1269 1.358 . S
C1267 H1309 0.930 . S
C1268 N1265 1.314 . S
C1268 C1266 1.353 . S
C1268 H1310 0.930 . S
C1269 N1265 1.279 . S
C1269 C1267 1.358 . S
C1269 H1311 0.930 . S
C1270 C1271 1.348 . S
C1270 C1272 1.356 . S
C1270 O1295 1.325 . S
C1271 C1270 1.348 . S
C1271 C1273 1.353 . S
C1271 H1312 0.929 . S
C1272 C1270 1.356 . S
C1272 C1274 1.358 . S
C1272 H1313 0.930 . S
C1273 C1271 1.353 . S
C1273 N1275 1.314 . S
C1273 H1314 0.930 . S
C1274 C1272 1.358 . S
C1274 N1275 1.279 . S
C1274 H1315 0.930 . S
N1275 C1273 1.314 . S
N1275 C1274 1.279 . S
C1276 C1278 1.353 . S
C1276 N1279 1.314 . S
C1276 H1282 0.930 . S
C1277 N1279 1.279 . S
C1277 C1280 1.358 . S
C1277 H1283 0.930 . S
C1278 C1276 1.353 . S
C1278 C1281 1.348 . S
C1278 H1316 0.929 . S
N1279 Li1234 1.990 . S
N1279 C1276 1.314 . S
N1279 C1277 1.279 . S
C1280 C1277 1.358 . S
C1280 C1281 1.356 . S
C1280 H1317 0.930 . S
C1281 C1278 1.348 . S
C1281 C1280 1.356 . S
H1282 C1276 0.930 . S
H1283 C1277 0.930 . S
C1284 N1285 1.314 . S
C1284 C1286 1.353 . S
C1284 H1290 0.930 . S
N1285 Li1235 1.990 . S
N1285 C1284 1.314 . S
N1285 C1288 1.279 . S
C1286 C1284 1.353 . S
C1286 C1289 1.348 . S
C1286 H1318 0.929 . S
C1287 C1288 1.358 . S
C1287 C1289 1.356 . S
C1287 H1319 0.930 . S
C1288 N1285 1.279 . S
C1288 C1287 1.358 . S
C1288 H1291 0.930 . S
C1289 C1286 1.348 . S
C1289 C1287 1.356 . S
H1290 C1284 0.930 . S
H1291 C1288 0.930 . S
O1292 Li1232 1.956 . S
O1292 Li1233 1.970 . S
O1292 Li1234 1.961 . S
O1292 C1236 1.325 . S
O1293 Li1232 1.970 . S
O1293 Li1233 1.956 . S
O1293 Li1235 1.961 . S
O1293 C1242 1.325 . S
O1294 Li1232 1.961 . S
O1294 Li1234 1.956 . S
O1294 Li1235 1.970 . S
O1294 C1264 1.325 . S
O1295 Li1233 1.961 . S
O1295 Li1234 1.970 . S
O1295 Li1235 1.956 . S
O1295 C1270 1.325 . S
H1296 C1238 0.929 . S
H1297 C1239 0.930 . S
H1298 C1240 0.930 . S
H1299 C1241 0.930 . S
H1300 C1243 0.930 . S
H1301 C1245 0.929 . S
H1302 C1246 0.930 . S
H1303 C1247 0.930 . S
H1304 C1250 0.930 . S
H1305 C1253 0.929 . S
H1306 C1258 0.929 . S
H1307 C1259 0.930 . S
H1308 C1266 0.929 . S
H1309 C1267 0.930 . S
H1310 C1268 0.930 . S
H1311 C1269 0.930 . S
H1312 C1271 0.929 . S
H1313 C1272 0.930 . S
H1314 C1273 0.930 . S
H1315 C1274 0.930 . S
H1316 C1278 0.929 . S
H1317 C1280 0.930 . S
H1318 C1286 0.929 . S
H1319 C1287 0.930 . S
Li1320 N1337 1.990 . S
Li1320 O1380 1.956 . S
Li1320 O1381 1.970 . S
Li1320 O1382 1.961 . S
Li1321 N1345 1.990 . S
Li1321 O1380 1.970 . S
Li1321 O1381 1.956 . S
Li1321 O1383 1.961 . S
Li1322 N1367 1.990 . S
Li1322 O1380 1.961 . S
Li1322 O1382 1.956 . S
Li1322 O1383 1.970 . S
Li1323 N1373 1.990 . S
Li1323 O1381 1.961 . S
Li1323 O1382 1.970 . S
Li1323 O1383 1.956 . S
C1324 C1326 1.348 . S
C1324 C1327 1.356 . S
C1324 O1380 1.325 . S
N1325 C1328 1.314 . S
N1325 C1329 1.279 . S
C1326 C1324 1.348 . S
C1326 C1328 1.353 . S
C1326 H1384 0.929 . S
C1327 C1324 1.356 . S
C1327 C1329 1.358 . S
C1327 H1385 0.930 . S
C1328 N1325 1.314 . S
C1328 C1326 1.353 . S
C1328 H1386 0.930 . S
C1329 N1325 1.279 . S
C1329 C1327 1.358 . S
C1329 H1387 0.930 . S
C1330 C1333 1.348 . S
C1330 C1334 1.356 . S
C1330 O1381 1.325 . S
C1331 N1332 1.279 . S
C1331 C1334 1.358 . S
C1331 H1388 0.930 . S
N1332 C1331 1.279 . S
N1332 C1335 1.314 . S
C1333 C1330 1.348 . S
C1333 C1335 1.353 . S
C1333 H1389 0.929 . S
C1334 C1330 1.356 . S
C1334 C1331 1.358 . S
C1334 H1390 0.930 . S
C1335 N1332 1.314 . S
C1335 C1333 1.353 . S
C1335 H1391 0.930 . S
C1336 N1337 1.314 . S
C1336 C1341 1.353 . S
C1336 H1342 0.930 . S
N1337 Li1320 1.990 . S
N1337 C1336 1.314 . S
N1337 C1339 1.279 . S
C1338 C1339 1.358 . S
C1338 C1340 1.356 . S
C1338 H1392 0.930 . S
C1339 N1337 1.279 . S
C1339 C1338 1.358 . S
C1339 H1343 0.930 . S
C1340 C1338 1.356 . S
C1340 C1341 1.348 . S
C1341 C1336 1.353 . S
C1341 C1340 1.348 . S
C1341 H1393 0.929 . S
H1342 C1336 0.930 . S
H1343 C1339 0.930 . S
C1344 N1345 1.314 . S
C1344 C1346 1.353 . S
C1344 H1350 0.930 . S
N1345 Li1321 1.990 . S
N1345 C1344 1.314 . S
N1345 C1348 1.279 . S
C1346 C1344 1.353 . S
C1346 C1349 1.348 . S
C1346 H1394 0.929 . S
C1347 C1348 1.358 . S
C1347 C1349 1.356 . S
C1347 H1395 0.930 . S
C1348 N1345 1.279 . S
C1348 C1347 1.358 . S
C1348 H1351 0.930 . S
C1349 C1346 1.348 . S
C1349 C1347 1.356 . S
H1350 C1344 0.930 . S
H1351 C1348 0.930 . S
C1352 C1354 1.348 . S
C1352 C1355 1.356 . S
C1352 O1382 1.325 . S
N1353 C1356 1.314 . S
N1353 C1357 1.279 . S
C1354 C1352 1.348 . S
C1354 C1356 1.353 . S
C1354 H1396 0.929 . S
C1355 C1352 1.356 . S
C1355 C1357 1.358 . S
C1355 H1397 0.930 . S
C1356 N1353 1.314 . S
C1356 C1354 1.353 . S
C1356 H1398 0.930 . S
C1357 N1353 1.279 . S
C1357 C1355 1.358 . S
C1357 H1399 0.930 . S
C1358 C1359 1.348 . S
C1358 C1360 1.356 . S
C1358 O1383 1.325 . S
C1359 C1358 1.348 . S
C1359 C1361 1.353 . S
C1359 H1400 0.929 . S
C1360 C1358 1.356 . S
C1360 C1362 1.358 . S
C1360 H1401 0.930 . S
C1361 C1359 1.353 . S
C1361 N1363 1.314 . S
C1361 H1402 0.930 . S
C1362 C1360 1.358 . S
C1362 N1363 1.279 . S
C1362 H1403 0.930 . S
N1363 C1361 1.314 . S
N1363 C1362 1.279 . S
C1364 C1366 1.353 . S
C1364 N1367 1.314 . S
C1364 H1370 0.930 . S
C1365 N1367 1.279 . S
C1365 C1368 1.358 . S
C1365 H1371 0.930 . S
C1366 C1364 1.353 . S
C1366 C1369 1.348 . S
C1366 H1404 0.929 . S
N1367 Li1322 1.990 . S
N1367 C1364 1.314 . S
N1367 C1365 1.279 . S
C1368 C1365 1.358 . S
C1368 C1369 1.356 . S
C1368 H1405 0.930 . S
C1369 C1366 1.348 . S
C1369 C1368 1.356 . S
H1370 C1364 0.930 . S
H1371 C1365 0.930 . S
C1372 N1373 1.314 . S
C1372 C1374 1.353 . S
C1372 H1378 0.930 . S
N1373 Li1323 1.990 . S
N1373 C1372 1.314 . S
N1373 C1376 1.279 . S
C1374 C1372 1.353 . S
C1374 C1377 1.348 . S
C1374 H1406 0.929 . S
C1375 C1376 1.358 . S
C1375 C1377 1.356 . S
C1375 H1407 0.930 . S
C1376 N1373 1.279 . S
C1376 C1375 1.358 . S
C1376 H1379 0.930 . S
C1377 C1374 1.348 . S
C1377 C1375 1.356 . S
H1378 C1372 0.930 . S
H1379 C1376 0.930 . S
O1380 Li1320 1.956 . S
O1380 Li1321 1.970 . S
O1380 Li1322 1.961 . S
O1380 C1324 1.325 . S
O1381 Li1320 1.970 . S
O1381 Li1321 1.956 . S
O1381 Li1323 1.961 . S
O1381 C1330 1.325 . S
O1382 Li1320 1.961 . S
O1382 Li1322 1.956 . S
O1382 Li1323 1.970 . S
O1382 C1352 1.325 . S
O1383 Li1321 1.961 . S
O1383 Li1322 1.970 . S
O1383 Li1323 1.956 . S
O1383 C1358 1.325 . S
H1384 C1326 0.929 . S
H1385 C1327 0.930 . S
H1386 C1328 0.930 . S
H1387 C1329 0.930 . S
H1388 C1331 0.930 . S
H1389 C1333 0.929 . S
H1390 C1334 0.930 . S
H1391 C1335 0.930 . S
H1392 C1338 0.930 . S
H1393 C1341 0.929 . S
H1394 C1346 0.929 . S
H1395 C1347 0.930 . S
H1396 C1354 0.929 . S
H1397 C1355 0.930 . S
H1398 C1356 0.930 . S
H1399 C1357 0.930 . S
H1400 C1359 0.929 . S
H1401 C1360 0.930 . S
H1402 C1361 0.930 . S
H1403 C1362 0.930 . S
H1404 C1366 0.929 . S
H1405 C1368 0.930 . S
H1406 C1374 0.929 . S
H1407 C1375 0.930 . S
Li1408 N1425 1.990 . S
Li1408 O1468 1.956 . S
Li1408 O1469 1.970 . S
Li1408 O1470 1.961 . S
Li1409 N1433 1.990 . S
Li1409 O1468 1.970 . S
Li1409 O1469 1.956 . S
Li1409 O1471 1.961 . S
Li1410 N1455 1.990 . S
Li1410 O1468 1.961 . S
Li1410 O1470 1.956 . S
Li1410 O1471 1.970 . S
Li1411 N1461 1.990 . S
Li1411 O1469 1.961 . S
Li1411 O1470 1.970 . S
Li1411 O1471 1.956 . S
C1412 C1414 1.348 . S
C1412 C1415 1.356 . S
C1412 O1468 1.325 . S
N1413 C1416 1.314 . S
N1413 C1417 1.279 . S
C1414 C1412 1.348 . S
C1414 C1416 1.353 . S
C1414 H1472 0.929 . S
C1415 C1412 1.356 . S
C1415 C1417 1.358 . S
C1415 H1473 0.930 . S
C1416 N1413 1.314 . S
C1416 C1414 1.353 . S
C1416 H1474 0.930 . S
C1417 N1413 1.279 . S
C1417 C1415 1.358 . S
C1417 H1475 0.930 . S
C1418 C1421 1.348 . S
C1418 C1422 1.356 . S
C1418 O1469 1.325 . S
C1419 N1420 1.279 . S
C1419 C1422 1.358 . S
C1419 H1476 0.930 . S
N1420 C1419 1.279 . S
N1420 C1423 1.314 . S
C1421 C1418 1.348 . S
C1421 C1423 1.353 . S
C1421 H1477 0.929 . S
C1422 C1418 1.356 . S
C1422 C1419 1.358 . S
C1422 H1478 0.930 . S
C1423 N1420 1.314 . S
C1423 C1421 1.353 . S
C1423 H1479 0.930 . S
C1424 N1425 1.314 . S
C1424 C1429 1.353 . S
C1424 H1430 0.930 . S
N1425 Li1408 1.990 . S
N1425 C1424 1.314 . S
N1425 C1427 1.279 . S
C1426 C1427 1.358 . S
C1426 C1428 1.356 . S
C1426 H1480 0.930 . S
C1427 N1425 1.279 . S
C1427 C1426 1.358 . S
C1427 H1431 0.930 . S
C1428 C1426 1.356 . S
C1428 C1429 1.348 . S
C1429 C1424 1.353 . S
C1429 C1428 1.348 . S
C1429 H1481 0.929 . S
H1430 C1424 0.930 . S
H1431 C1427 0.930 . S
C1432 N1433 1.314 . S
C1432 C1434 1.353 . S
C1432 H1438 0.930 . S
N1433 Li1409 1.990 . S
N1433 C1432 1.314 . S
N1433 C1436 1.279 . S
C1434 C1432 1.353 . S
C1434 C1437 1.348 . S
C1434 H1482 0.929 . S
C1435 C1436 1.358 . S
C1435 C1437 1.356 . S
C1435 H1483 0.930 . S
C1436 N1433 1.279 . S
C1436 C1435 1.358 . S
C1436 H1439 0.930 . S
C1437 C1434 1.348 . S
C1437 C1435 1.356 . S
H1438 C1432 0.930 . S
H1439 C1436 0.930 . S
C1440 C1442 1.348 . S
C1440 C1443 1.356 . S
C1440 O1470 1.325 . S
N1441 C1444 1.314 . S
N1441 C1445 1.279 . S
C1442 C1440 1.348 . S
C1442 C1444 1.353 . S
C1442 H1484 0.929 . S
C1443 C1440 1.356 . S
C1443 C1445 1.358 . S
C1443 H1485 0.930 . S
C1444 N1441 1.314 . S
C1444 C1442 1.353 . S
C1444 H1486 0.930 . S
C1445 N1441 1.279 . S
C1445 C1443 1.358 . S
C1445 H1487 0.930 . S
C1446 C1447 1.348 . S
C1446 C1448 1.356 . S
C1446 O1471 1.325 . S
C1447 C1446 1.348 . S
C1447 C1449 1.353 . S
C1447 H1488 0.929 . S
C1448 C1446 1.356 . S
C1448 C1450 1.358 . S
C1448 H1489 0.930 . S
C1449 C1447 1.353 . S
C1449 N1451 1.314 . S
C1449 H1490 0.930 . S
C1450 C1448 1.358 . S
C1450 N1451 1.279 . S
C1450 H1491 0.930 . S
N1451 C1449 1.314 . S
N1451 C1450 1.279 . S
C1452 C1454 1.353 . S
C1452 N1455 1.314 . S
C1452 H1458 0.930 . S
C1453 N1455 1.279 . S
C1453 C1456 1.358 . S
C1453 H1459 0.930 . S
C1454 C1452 1.353 . S
C1454 C1457 1.348 . S
C1454 H1492 0.929 . S
N1455 Li1410 1.990 . S
N1455 C1452 1.314 . S
N1455 C1453 1.279 . S
C1456 C1453 1.358 . S
C1456 C1457 1.356 . S
C1456 H1493 0.930 . S
C1457 C1454 1.348 . S
C1457 C1456 1.356 . S
H1458 C1452 0.930 . S
H1459 C1453 0.930 . S
C1460 N1461 1.314 . S
C1460 C1462 1.353 . S
C1460 H1466 0.930 . S
N1461 Li1411 1.990 . S
N1461 C1460 1.314 . S
N1461 C1464 1.279 . S
C1462 C1460 1.353 . S
C1462 C1465 1.348 . S
C1462 H1494 0.929 . S
C1463 C1464 1.358 . S
C1463 C1465 1.356 . S
C1463 H1495 0.930 . S
C1464 N1461 1.279 . S
C1464 C1463 1.358 . S
C1464 H1467 0.930 . S
C1465 C1462 1.348 . S
C1465 C1463 1.356 . S
H1466 C1460 0.930 . S
H1467 C1464 0.930 . S
O1468 Li1408 1.956 . S
O1468 Li1409 1.970 . S
O1468 Li1410 1.961 . S
O1468 C1412 1.325 . S
O1469 Li1408 1.970 . S
O1469 Li1409 1.956 . S
O1469 Li1411 1.961 . S
O1469 C1418 1.325 . S
O1470 Li1408 1.961 . S
O1470 Li1410 1.956 . S
O1470 Li1411 1.970 . S
O1470 C1440 1.325 . S
O1471 Li1409 1.961 . S
O1471 Li1410 1.970 . S
O1471 Li1411 1.956 . S
O1471 C1446 1.325 . S
H1472 C1414 0.929 . S
H1473 C1415 0.930 . S
H1474 C1416 0.930 . S
H1475 C1417 0.930 . S
H1476 C1419 0.930 . S
H1477 C1421 0.929 . S
H1478 C1422 0.930 . S
H1479 C1423 0.930 . S
H1480 C1426 0.930 . S
H1481 C1429 0.929 . S
H1482 C1434 0.929 . S
H1483 C1435 0.930 . S
H1484 C1442 0.929 . S
H1485 C1443 0.930 . S
H1486 C1444 0.930 . S
H1487 C1445 0.930 . S
H1488 C1447 0.929 . S
H1489 C1448 0.930 . S
H1490 C1449 0.930 . S
H1491 C1450 0.930 . S
H1492 C1454 0.929 . S
H1493 C1456 0.930 . S
H1494 C1462 0.929 . S
H1495 C1463 0.930 . S
Li1496 N1513 1.990 . S
Li1496 O1556 1.956 . S
Li1496 O1557 1.970 . S
Li1496 O1558 1.961 . S
Li1497 N1521 1.990 . S
Li1497 O1556 1.970 . S
Li1497 O1557 1.956 . S
Li1497 O1559 1.961 . S
Li1498 N1543 1.990 . S
Li1498 O1556 1.961 . S
Li1498 O1558 1.956 . S
Li1498 O1559 1.970 . S
Li1499 N1549 1.990 . S
Li1499 O1557 1.961 . S
Li1499 O1558 1.970 . S
Li1499 O1559 1.956 . S
C1500 C1502 1.348 . S
C1500 C1503 1.356 . S
C1500 O1556 1.325 . S
N1501 C1504 1.314 . S
N1501 C1505 1.279 . S
C1502 C1500 1.348 . S
C1502 C1504 1.353 . S
C1502 H1560 0.929 . S
C1503 C1500 1.356 . S
C1503 C1505 1.358 . S
C1503 H1561 0.930 . S
C1504 N1501 1.314 . S
C1504 C1502 1.353 . S
C1504 H1562 0.930 . S
C1505 N1501 1.279 . S
C1505 C1503 1.358 . S
C1505 H1563 0.930 . S
C1506 C1509 1.348 . S
C1506 C1510 1.356 . S
C1506 O1557 1.325 . S
C1507 N1508 1.279 . S
C1507 C1510 1.358 . S
C1507 H1564 0.930 . S
N1508 C1507 1.279 . S
N1508 C1511 1.314 . S
C1509 C1506 1.348 . S
C1509 C1511 1.353 . S
C1509 H1565 0.929 . S
C1510 C1506 1.356 . S
C1510 C1507 1.358 . S
C1510 H1566 0.930 . S
C1511 N1508 1.314 . S
C1511 C1509 1.353 . S
C1511 H1567 0.930 . S
C1512 N1513 1.314 . S
C1512 C1517 1.353 . S
C1512 H1518 0.930 . S
N1513 Li1496 1.990 . S
N1513 C1512 1.314 . S
N1513 C1515 1.279 . S
C1514 C1515 1.358 . S
C1514 C1516 1.356 . S
C1514 H1568 0.930 . S
C1515 N1513 1.279 . S
C1515 C1514 1.358 . S
C1515 H1519 0.930 . S
C1516 C1514 1.356 . S
C1516 C1517 1.348 . S
C1517 C1512 1.353 . S
C1517 C1516 1.348 . S
C1517 H1569 0.929 . S
H1518 C1512 0.930 . S
H1519 C1515 0.930 . S
C1520 N1521 1.314 . S
C1520 C1522 1.353 . S
C1520 H1526 0.930 . S
N1521 Li1497 1.990 . S
N1521 C1520 1.314 . S
N1521 C1524 1.279 . S
C1522 C1520 1.353 . S
C1522 C1525 1.348 . S
C1522 H1570 0.929 . S
C1523 C1524 1.358 . S
C1523 C1525 1.356 . S
C1523 H1571 0.930 . S
C1524 N1521 1.279 . S
C1524 C1523 1.358 . S
C1524 H1527 0.930 . S
C1525 C1522 1.348 . S
C1525 C1523 1.356 . S
H1526 C1520 0.930 . S
H1527 C1524 0.930 . S
C1528 C1530 1.348 . S
C1528 C1531 1.356 . S
C1528 O1558 1.325 . S
N1529 C1532 1.314 . S
N1529 C1533 1.279 . S
C1530 C1528 1.348 . S
C1530 C1532 1.353 . S
C1530 H1572 0.929 . S
C1531 C1528 1.356 . S
C1531 C1533 1.358 . S
C1531 H1573 0.930 . S
C1532 N1529 1.314 . S
C1532 C1530 1.353 . S
C1532 H1574 0.930 . S
C1533 N1529 1.279 . S
C1533 C1531 1.358 . S
C1533 H1575 0.930 . S
C1534 C1535 1.348 . S
C1534 C1536 1.356 . S
C1534 O1559 1.325 . S
C1535 C1534 1.348 . S
C1535 C1537 1.353 . S
C1535 H1576 0.929 . S
C1536 C1534 1.356 . S
C1536 C1538 1.358 . S
C1536 H1577 0.930 . S
C1537 C1535 1.353 . S
C1537 N1539 1.314 . S
C1537 H1578 0.930 . S
C1538 C1536 1.358 . S
C1538 N1539 1.279 . S
C1538 H1579 0.930 . S
N1539 C1537 1.314 . S
N1539 C1538 1.279 . S
C1540 C1542 1.353 . S
C1540 N1543 1.314 . S
C1540 H1546 0.930 . S
C1541 N1543 1.279 . S
C1541 C1544 1.358 . S
C1541 H1547 0.930 . S
C1542 C1540 1.353 . S
C1542 C1545 1.348 . S
C1542 H1580 0.929 . S
N1543 Li1498 1.990 . S
N1543 C1540 1.314 . S
N1543 C1541 1.279 . S
C1544 C1541 1.358 . S
C1544 C1545 1.356 . S
C1544 H1581 0.930 . S
C1545 C1542 1.348 . S
C1545 C1544 1.356 . S
H1546 C1540 0.930 . S
H1547 C1541 0.930 . S
C1548 N1549 1.314 . S
C1548 C1550 1.353 . S
C1548 H1554 0.930 . S
N1549 Li1499 1.990 . S
N1549 C1548 1.314 . S
N1549 C1552 1.279 . S
C1550 C1548 1.353 . S
C1550 C1553 1.348 . S
C1550 H1582 0.929 . S
C1551 C1552 1.358 . S
C1551 C1553 1.356 . S
C1551 H1583 0.930 . S
C1552 N1549 1.279 . S
C1552 C1551 1.358 . S
C1552 H1555 0.930 . S
C1553 C1550 1.348 . S
C1553 C1551 1.356 . S
H1554 C1548 0.930 . S
H1555 C1552 0.930 . S
O1556 Li1496 1.956 . S
O1556 Li1497 1.970 . S
O1556 Li1498 1.961 . S
O1556 C1500 1.325 . S
O1557 Li1496 1.970 . S
O1557 Li1497 1.956 . S
O1557 Li1499 1.961 . S
O1557 C1506 1.325 . S
O1558 Li1496 1.961 . S
O1558 Li1498 1.956 . S
O1558 Li1499 1.970 . S
O1558 C1528 1.325 . S
O1559 Li1497 1.961 . S
O1559 Li1498 1.970 . S
O1559 Li1499 1.956 . S
O1559 C1534 1.325 . S
H1560 C1502 0.929 . S
H1561 C1503 0.930 . S
H1562 C1504 0.930 . S
H1563 C1505 0.930 . S
H1564 C1507 0.930 . S
H1565 C1509 0.929 . S
H1566 C1510 0.930 . S
H1567 C1511 0.930 . S
H1568 C1514 0.930 . S
H1569 C1517 0.929 . S
H1570 C1522 0.929 . S
H1571 C1523 0.930 . S
H1572 C1530 0.929 . S
H1573 C1531 0.930 . S
H1574 C1532 0.930 . S
H1575 C1533 0.930 . S
H1576 C1535 0.929 . S
H1577 C1536 0.930 . S
H1578 C1537 0.930 . S
H1579 C1538 0.930 . S
H1580 C1542 0.929 . S
H1581 C1544 0.930 . S
H1582 C1550 0.929 . S
H1583 C1551 0.930 . S
C1584 C1585 1.363 . S
C1584 C1590 1.379 . S
C1584 N1592 1.356 . S
C1585 C1584 1.363 . S
C1585 C1591 1.363 . S
C1586 C1587 1.363 . S
C1586 C1591 1.379 . S
C1586 N1593 1.356 . S
C1587 C1586 1.363 . S
C1587 C1590 1.363 . S
N1588 C1590 1.356 . S
N1588 H1600 0.984 . S
N1588 H1601 0.985 . S
N1589 C1591 1.356 . S
N1589 H1594 0.984 . S
N1589 H1595 0.985 . S
C1590 C1584 1.379 . S
C1590 C1587 1.363 . S
C1590 N1588 1.356 . S
C1591 C1585 1.363 . S
C1591 C1586 1.379 . S
C1591 N1589 1.356 . S
N1592 C1584 1.356 . S
N1592 H1598 0.984 . S
N1592 H1599 0.984 . S
N1593 C1586 1.356 . S
N1593 H1596 0.984 . S
N1593 H1597 0.985 . S
H1594 N1589 0.984 . S
H1595 N1589 0.985 . S
H1596 N1593 0.984 . S
H1597 N1593 0.985 . S
H1598 N1592 0.984 . S
H1599 N1592 0.984 . S
H1600 N1588 0.984 . S
H1601 N1588 0.985 . S
C1602 C1603 1.363 . S
C1602 C1608 1.379 . S
C1602 N1610 1.356 . S
C1603 C1602 1.363 . S
C1603 C1609 1.363 . S
C1604 C1605 1.363 . S
C1604 C1609 1.379 . S
C1604 N1611 1.356 . S
C1605 C1604 1.363 . S
C1605 C1608 1.363 . S
N1606 C1608 1.356 . S
N1606 H1618 0.984 . S
N1606 H1619 0.985 . S
N1607 C1609 1.356 . S
N1607 H1612 0.984 . S
N1607 H1613 0.985 . S
C1608 C1602 1.379 . S
C1608 C1605 1.363 . S
C1608 N1606 1.356 . S
C1609 C1603 1.363 . S
C1609 C1604 1.379 . S
C1609 N1607 1.356 . S
N1610 C1602 1.356 . S
N1610 H1616 0.984 . S
N1610 H1617 0.984 . S
N1611 C1604 1.356 . S
N1611 H1614 0.984 . S
N1611 H1615 0.985 . S
H1612 N1607 0.984 . S
H1613 N1607 0.985 . S
H1614 N1611 0.984 . S
H1615 N1611 0.985 . S
H1616 N1610 0.984 . S
H1617 N1610 0.984 . S
H1618 N1606 0.984 . S
H1619 N1606 0.985 . S
C1620 C1621 1.363 . S
C1620 C1626 1.379 . S
C1620 N1628 1.356 . S
C1621 C1620 1.363 . S
C1621 C1627 1.363 . S
C1622 C1623 1.363 . S
C1622 C1627 1.379 . S
C1622 N1629 1.356 . S
C1623 C1622 1.363 . S
C1623 C1626 1.363 . S
N1624 C1626 1.356 . S
N1624 H1636 0.984 . S
N1624 H1637 0.985 . S
N1625 C1627 1.356 . S
N1625 H1630 0.984 . S
N1625 H1631 0.985 . S
C1626 C1620 1.379 . S
C1626 C1623 1.363 . S
C1626 N1624 1.356 . S
C1627 C1621 1.363 . S
C1627 C1622 1.379 . S
C1627 N1625 1.356 . S
N1628 C1620 1.356 . S
N1628 H1634 0.984 . S
N1628 H1635 0.984 . S
N1629 C1622 1.356 . S
N1629 H1632 0.984 . S
N1629 H1633 0.985 . S
H1630 N1625 0.984 . S
H1631 N1625 0.985 . S
H1632 N1629 0.984 . S
H1633 N1629 0.985 . S
H1634 N1628 0.984 . S
H1635 N1628 0.984 . S
H1636 N1624 0.984 . S
H1637 N1624 0.985 . S
C1638 C1639 1.363 . S
C1638 C1644 1.379 . S
C1638 N1646 1.356 . S
C1639 C1638 1.363 . S
C1639 C1645 1.363 . S
C1640 C1641 1.363 . S
C1640 C1645 1.379 . S
C1640 N1647 1.356 . S
C1641 C1640 1.363 . S
C1641 C1644 1.363 . S
N1642 C1644 1.356 . S
N1642 H1654 0.984 . S
N1642 H1655 0.985 . S
N1643 C1645 1.356 . S
N1643 H1648 0.984 . S
N1643 H1649 0.985 . S
C1644 C1638 1.379 . S
C1644 C1641 1.363 . S
C1644 N1642 1.356 . S
C1645 C1639 1.363 . S
C1645 C1640 1.379 . S
C1645 N1643 1.356 . S
N1646 C1638 1.356 . S
N1646 H1652 0.984 . S
N1646 H1653 0.984 . S
N1647 C1640 1.356 . S
N1647 H1650 0.984 . S
N1647 H1651 0.985 . S
H1648 N1643 0.984 . S
H1649 N1643 0.985 . S
H1650 N1647 0.984 . S
H1651 N1647 0.985 . S
H1652 N1646 0.984 . S
H1653 N1646 0.984 . S
H1654 N1642 0.984 . S
H1655 N1642 0.985 . S
C1656 C1657 1.363 . S
C1656 C1662 1.379 . S
C1656 N1664 1.356 . S
C1657 C1656 1.363 . S
C1657 C1663 1.363 . S
C1658 C1659 1.363 . S
C1658 C1663 1.379 . S
C1658 N1665 1.356 . S
C1659 C1658 1.363 . S
C1659 C1662 1.363 . S
N1660 C1662 1.356 . S
N1660 H1672 0.984 . S
N1660 H1673 0.985 . S
N1661 C1663 1.356 . S
N1661 H1666 0.984 . S
N1661 H1667 0.985 . S
C1662 C1656 1.379 . S
C1662 C1659 1.363 . S
C1662 N1660 1.356 . S
C1663 C1657 1.363 . S
C1663 C1658 1.379 . S
C1663 N1661 1.356 . S
N1664 C1656 1.356 . S
N1664 H1670 0.984 . S
N1664 H1671 0.984 . S
N1665 C1658 1.356 . S
N1665 H1668 0.984 . S
N1665 H1669 0.985 . S
H1666 N1661 0.984 . S
H1667 N1661 0.985 . S
H1668 N1665 0.984 . S
H1669 N1665 0.985 . S
H1670 N1664 0.984 . S
H1671 N1664 0.984 . S
H1672 N1660 0.984 . S
H1673 N1660 0.985 . S
C1674 C1675 1.363 . S
C1674 C1680 1.379 . S
C1674 N1682 1.356 . S
C1675 C1674 1.363 . S
C1675 C1681 1.363 . S
C1676 C1677 1.363 . S
C1676 C1681 1.379 . S
C1676 N1683 1.356 . S
C1677 C1676 1.363 . S
C1677 C1680 1.363 . S
N1678 C1680 1.356 . S
N1678 H1690 0.984 . S
N1678 H1691 0.985 . S
N1679 C1681 1.356 . S
N1679 H1684 0.984 . S
N1679 H1685 0.985 . S
C1680 C1674 1.379 . S
C1680 C1677 1.363 . S
C1680 N1678 1.356 . S
C1681 C1675 1.363 . S
C1681 C1676 1.379 . S
C1681 N1679 1.356 . S
N1682 C1674 1.356 . S
N1682 H1688 0.984 . S
N1682 H1689 0.984 . S
N1683 C1676 1.356 . S
N1683 H1686 0.984 . S
N1683 H1687 0.985 . S
H1684 N1679 0.984 . S
H1685 N1679 0.985 . S
H1686 N1683 0.984 . S
H1687 N1683 0.985 . S
H1688 N1682 0.984 . S
H1689 N1682 0.984 . S
H1690 N1678 0.984 . S
H1691 N1678 0.985 . S
C1692 C1693 1.363 . S
C1692 C1698 1.379 1_655 S
C1692 N1700 1.356 . S
C1693 C1692 1.363 . S
C1693 C1699 1.363 1_554 S
C1694 C1695 1.363 . S
C1694 C1699 1.379 1_455 S
C1694 N1701 1.356 . S
C1695 C1694 1.363 . S
C1695 C1698 1.363 1_556 S
N1696 C1698 1.356 1_556 S
N1696 H1708 0.984 1_556 S
N1696 H1709 0.985 . S
N1697 C1699 1.356 1_554 S
N1697 H1702 0.984 . S
N1697 H1703 0.985 1_554 S
C1698 C1692 1.379 1_455 S
C1698 C1695 1.363 1_554 S
C1698 N1696 1.356 1_554 S
C1699 C1693 1.363 1_556 S
C1699 C1694 1.379 1_655 S
C1699 N1697 1.356 1_556 S
N1700 C1692 1.356 . S
N1700 H1706 0.984 . S
N1700 H1707 0.984 . S
N1701 C1694 1.356 . S
N1701 H1704 0.984 . S
N1701 H1705 0.985 . S
H1702 N1697 0.984 . S
H1703 N1697 0.985 1_556 S
H1704 N1701 0.984 . S
H1705 N1701 0.985 . S
H1706 N1700 0.984 . S
H1707 N1700 0.984 . S
H1708 N1696 0.984 1_554 S
H1709 N1696 0.985 . S
C1710 C1711 1.363 . S
C1710 C1716 1.390 . S
C1710 N1718 1.356 . S
C1711 C1710 1.363 . S
C1711 C1717 1.352 1_554 S
C1712 C1713 1.363 . S
C1712 C1717 1.390 . S
C1712 N1719 1.356 . S
C1713 C1712 1.363 . S
C1713 C1716 1.352 1_556 S
N1714 C1716 1.353 1_556 S
N1714 H1726 0.984 1_556 S
N1714 H1727 0.985 . S
N1715 C1717 1.353 1_554 S
N1715 H1720 0.984 . S
N1715 H1721 0.985 1_554 S
C1716 C1710 1.390 . S
C1716 C1713 1.352 1_554 S
C1716 N1714 1.353 1_554 S
C1717 C1711 1.352 1_556 S
C1717 C1712 1.390 . S
C1717 N1715 1.353 1_556 S
N1718 C1710 1.356 . S
N1718 H1724 0.984 . S
N1718 H1725 0.984 . S
N1719 C1712 1.356 . S
N1719 H1722 0.984 . S
N1719 H1723 0.985 . S
H1720 N1715 0.984 . S
H1721 N1715 0.985 1_556 S
H1722 N1719 0.984 . S
H1723 N1719 0.985 . S
H1724 N1718 0.984 . S
H1725 N1718 0.984 . S
H1726 N1714 0.984 1_554 S
H1727 N1714 0.985 . S
C1728 C1729 1.363 . S
C1728 C1734 1.379 1_544 S
C1728 N1736 1.356 . S
C1729 C1728 1.363 . S
C1729 C1735 1.363 . S
C1730 C1731 1.363 . S
C1730 C1735 1.379 1_566 S
C1730 N1737 1.356 . S
C1731 C1730 1.363 . S
C1731 C1734 1.363 . S
N1732 C1734 1.356 . S
N1732 H1744 0.984 . S
N1732 H1745 0.985 . S
N1733 C1735 1.356 . S
N1733 H1738 0.984 . S
N1733 H1739 0.985 . S
C1734 C1728 1.379 1_566 S
C1734 C1731 1.363 . S
C1734 N1732 1.356 . S
C1735 C1729 1.363 . S
C1735 C1730 1.379 1_544 S
C1735 N1733 1.356 . S
N1736 C1728 1.356 . S
N1736 H1742 0.984 1_554 S
N1736 H1743 0.984 . S
N1737 C1730 1.356 . S
N1737 H1740 0.984 . S
N1737 H1741 0.985 1_556 S
H1738 N1733 0.984 . S
H1739 N1733 0.985 . S
H1740 N1737 0.984 . S
H1741 N1737 0.985 1_554 S
H1742 N1736 0.984 1_556 S
H1743 N1736 0.984 . S
H1744 N1732 0.984 . S
H1745 N1732 0.985 . S
C1746 C1747 1.363 . S
C1746 C1752 1.379 . S
C1746 N1754 1.356 . S
C1747 C1746 1.363 . S
C1747 C1753 1.363 . S
C1748 C1749 1.363 . S
C1748 C1753 1.379 . S
C1748 N1755 1.356 . S
C1749 C1748 1.363 . S
C1749 C1752 1.363 . S
N1750 C1752 1.356 . S
N1750 H1762 0.984 . S
N1750 H1763 0.985 . S
N1751 C1753 1.356 . S
N1751 H1756 0.984 . S
N1751 H1757 0.985 . S
C1752 C1746 1.379 . S
C1752 C1749 1.363 . S
C1752 N1750 1.356 . S
C1753 C1747 1.363 . S
C1753 C1748 1.379 . S
C1753 N1751 1.356 . S
N1754 C1746 1.356 . S
N1754 H1760 0.984 . S
N1754 H1761 0.984 . S
N1755 C1748 1.356 . S
N1755 H1758 0.984 . S
N1755 H1759 0.985 . S
H1756 N1751 0.984 . S
H1757 N1751 0.985 . S
H1758 N1755 0.984 . S
H1759 N1755 0.985 . S
H1760 N1754 0.984 . S
H1761 N1754 0.984 . S
H1762 N1750 0.984 . S
H1763 N1750 0.985 . S
C1764 C1765 1.363 . S
C1764 C1770 1.379 . S
C1764 N1772 1.356 . S
C1765 C1764 1.363 . S
C1765 C1771 1.363 . S
C1766 C1767 1.363 . S
C1766 C1771 1.379 . S
C1766 N1773 1.356 . S
C1767 C1766 1.363 . S
C1767 C1770 1.363 . S
N1768 C1770 1.356 . S
N1768 H1780 0.984 . S
N1768 H1781 0.985 . S
N1769 C1771 1.356 . S
N1769 H1774 0.984 . S
N1769 H1775 0.985 . S
C1770 C1764 1.379 . S
C1770 C1767 1.363 . S
C1770 N1768 1.356 . S
C1771 C1765 1.363 . S
C1771 C1766 1.379 . S
C1771 N1769 1.356 . S
N1772 C1764 1.356 . S
N1772 H1778 0.984 . S
N1772 H1779 0.984 . S
N1773 C1766 1.356 . S
N1773 H1776 0.984 . S
N1773 H1777 0.985 . S
H1774 N1769 0.984 . S
H1775 N1769 0.985 . S
H1776 N1773 0.984 . S
H1777 N1773 0.985 . S
H1778 N1772 0.984 . S
H1779 N1772 0.984 . S
H1780 N1768 0.984 . S
H1781 N1768 0.985 . S
C1782 C1783 1.363 . S
C1782 C1788 1.379 . S
C1782 N1790 1.356 . S
C1783 C1782 1.363 . S
C1783 C1789 1.363 . S
C1784 C1785 1.363 . S
C1784 C1789 1.379 . S
C1784 N1791 1.356 . S
C1785 C1784 1.363 . S
C1785 C1788 1.363 . S
N1786 C1788 1.356 . S
N1786 H1798 0.984 . S
N1786 H1799 0.985 . S
N1787 C1789 1.356 . S
N1787 H1792 0.984 . S
N1787 H1793 0.985 . S
C1788 C1782 1.379 . S
C1788 C1785 1.363 . S
C1788 N1786 1.356 . S
C1789 C1783 1.363 . S
C1789 C1784 1.379 . S
C1789 N1787 1.356 . S
N1790 C1782 1.356 . S
N1790 H1796 0.984 . S
N1790 H1797 0.984 . S
N1791 C1784 1.356 . S
N1791 H1794 0.984 . S
N1791 H1795 0.985 . S
H1792 N1787 0.984 . S
H1793 N1787 0.985 . S
H1794 N1791 0.984 . S
H1795 N1791 0.985 . S
H1796 N1790 0.984 . S
H1797 N1790 0.984 . S
H1798 N1786 0.984 . S
H1799 N1786 0.985 . S
C1800 C1801 1.363 . S
C1800 C1806 1.379 . S
C1800 N1808 1.356 . S
C1801 C1800 1.363 . S
C1801 C1807 1.363 . S
C1802 C1803 1.363 . S
C1802 C1807 1.379 . S
C1802 N1809 1.356 . S
C1803 C1802 1.363 . S
C1803 C1806 1.363 . S
N1804 C1806 1.356 . S
N1804 H1816 0.984 . S
N1804 H1817 0.985 . S
N1805 C1807 1.356 . S
N1805 H1810 0.984 . S
N1805 H1811 0.985 . S
C1806 C1800 1.379 . S
C1806 C1803 1.363 . S
C1806 N1804 1.356 . S
C1807 C1801 1.363 . S
C1807 C1802 1.379 . S
C1807 N1805 1.356 . S
N1808 C1800 1.356 . S
N1808 H1814 0.984 . S
N1808 H1815 0.984 . S
N1809 C1802 1.356 . S
N1809 H1812 0.984 . S
N1809 H1813 0.985 . S
H1810 N1805 0.984 . S
H1811 N1805 0.985 . S
H1812 N1809 0.984 . S
H1813 N1809 0.985 . S
H1814 N1808 0.984 . S
H1815 N1808 0.984 . S
H1816 N1804 0.984 . S
H1817 N1804 0.985 . S
C1818 C1819 1.363 . S
C1818 C1824 1.379 . S
C1818 N1826 1.356 . S
C1819 C1818 1.363 . S
C1819 C1825 1.363 . S
C1820 C1821 1.363 . S
C1820 C1825 1.379 . S
C1820 N1827 1.356 . S
C1821 C1820 1.363 . S
C1821 C1824 1.363 . S
N1822 C1824 1.356 . S
N1822 H1834 0.984 . S
N1822 H1835 0.985 . S
N1823 C1825 1.356 . S
N1823 H1828 0.984 . S
N1823 H1829 0.985 . S
C1824 C1818 1.379 . S
C1824 C1821 1.363 . S
C1824 N1822 1.356 . S
C1825 C1819 1.363 . S
C1825 C1820 1.379 . S
C1825 N1823 1.356 . S
N1826 C1818 1.356 . S
N1826 H1832 0.984 . S
N1826 H1833 0.984 . S
N1827 C1820 1.356 . S
N1827 H1830 0.984 . S
N1827 H1831 0.985 . S
H1828 N1823 0.984 . S
H1829 N1823 0.985 . S
H1830 N1827 0.984 . S
H1831 N1827 0.985 . S
H1832 N1826 0.984 . S
H1833 N1826 0.984 . S
H1834 N1822 0.984 . S
H1835 N1822 0.985 . S
C1836 C1837 1.363 . S
C1836 C1842 1.379 . S
C1836 N1844 1.356 . S
C1837 C1836 1.363 . S
C1837 C1843 1.363 . S
C1838 C1839 1.363 . S
C1838 C1843 1.379 . S
C1838 N1845 1.356 . S
C1839 C1838 1.363 . S
C1839 C1842 1.363 . S
N1840 C1842 1.356 . S
N1840 H1852 0.984 . S
N1840 H1853 0.985 . S
N1841 C1843 1.356 . S
N1841 H1846 0.984 . S
N1841 H1847 0.985 . S
C1842 C1836 1.379 . S
C1842 C1839 1.363 . S
C1842 N1840 1.356 . S
C1843 C1837 1.363 . S
C1843 C1838 1.379 . S
C1843 N1841 1.356 . S
N1844 C1836 1.356 . S
N1844 H1850 0.984 . S
N1844 H1851 0.984 . S
N1845 C1838 1.356 . S
N1845 H1848 0.984 . S
N1845 H1849 0.985 . S
H1846 N1841 0.984 . S
H1847 N1841 0.985 . S
H1848 N1845 0.984 . S
H1849 N1845 0.985 . S
H1850 N1844 0.984 . S
H1851 N1844 0.984 . S
H1852 N1840 0.984 . S
H1853 N1840 0.985 . S
C1854 C1855 1.363 . S
C1854 C1860 1.379 . S
C1854 N1862 1.356 . S
C1855 C1854 1.363 . S
C1855 C1861 1.363 1_655 S
C1856 C1857 1.363 . S
C1856 C1861 1.379 . S
C1856 N1863 1.356 . S
C1857 C1856 1.363 . S
C1857 C1860 1.363 1_455 S
N1858 C1860 1.356 . S
N1858 H1870 0.984 . S
N1858 H1871 0.985 1_655 S
N1859 C1861 1.356 . S
N1859 H1864 0.984 1_455 S
N1859 H1865 0.985 . S
C1860 C1854 1.379 . S
C1860 C1857 1.363 1_655 S
C1860 N1858 1.356 . S
C1861 C1855 1.363 1_455 S
C1861 C1856 1.379 . S
C1861 N1859 1.356 . S
N1862 C1854 1.356 . S
N1862 H1868 0.984 . S
N1862 H1869 0.984 . S
N1863 C1856 1.356 . S
N1863 H1866 0.984 . S
N1863 H1867 0.985 . S
H1864 N1859 0.984 1_655 S
H1865 N1859 0.985 . S
H1866 N1863 0.984 . S
H1867 N1863 0.985 . S
H1868 N1862 0.984 . S
H1869 N1862 0.984 . S
H1870 N1858 0.984 . S
H1871 N1858 0.985 1_455 S
C1872 C1873 1.363 . S
C1872 C1878 1.379 . S
C1872 N1880 1.356 . S
C1873 C1872 1.363 . S
C1873 C1879 1.363 . S
C1874 C1875 1.363 . S
C1874 C1879 1.379 . S
C1874 N1881 1.356 . S
C1875 C1874 1.363 . S
C1875 C1878 1.363 . S
N1876 C1878 1.356 . S
N1876 H1888 0.984 . S
N1876 H1889 0.985 . S
N1877 C1879 1.356 . S
N1877 H1882 0.984 . S
N1877 H1883 0.985 . S
C1878 C1872 1.379 . S
C1878 C1875 1.363 . S
C1878 N1876 1.356 . S
C1879 C1873 1.363 . S
C1879 C1874 1.379 . S
C1879 N1877 1.356 . S
N1880 C1872 1.356 . S
N1880 H1886 0.984 . S
N1880 H1887 0.984 . S
N1881 C1874 1.356 . S
N1881 H1884 0.984 . S
N1881 H1885 0.985 . S
H1882 N1877 0.984 . S
H1883 N1877 0.985 . S
H1884 N1881 0.984 . S
H1885 N1881 0.985 . S
H1886 N1880 0.984 . S
H1887 N1880 0.984 . S
H1888 N1876 0.984 . S
H1889 N1876 0.985 . S
C1890 C1891 1.363 . S
C1890 C1896 1.379 . S
C1890 N1898 1.356 . S
C1891 C1890 1.363 . S
C1891 C1897 1.363 1_565 S
C1892 C1893 1.363 . S
C1892 C1897 1.379 . S
C1892 N1899 1.356 . S
C1893 C1892 1.363 . S
C1893 C1896 1.363 1_545 S
N1894 C1896 1.356 . S
N1894 H1906 0.984 . S
N1894 H1907 0.985 1_565 S
N1895 C1897 1.356 . S
N1895 H1900 0.984 1_545 S
N1895 H1901 0.985 . S
C1896 C1890 1.379 . S
C1896 C1893 1.363 1_565 S
C1896 N1894 1.356 . S
C1897 C1891 1.363 1_545 S
C1897 C1892 1.379 . S
C1897 N1895 1.356 . S
N1898 C1890 1.356 . S
N1898 H1904 0.984 . S
N1898 H1905 0.984 . S
N1899 C1892 1.356 . S
N1899 H1902 0.984 . S
N1899 H1903 0.985 . S
H1900 N1895 0.984 1_565 S
H1901 N1895 0.985 . S
H1902 N1899 0.984 . S
H1903 N1899 0.985 . S
H1904 N1898 0.984 . S
H1905 N1898 0.984 . S
H1906 N1894 0.984 . S
H1907 N1894 0.985 1_545 S
C1908 C1909 1.359 1_556 S
C1908 C1914 1.382 . S
C1908 N1916 1.355 1_556 S
C1909 C1908 1.359 1_554 S
C1909 C1915 1.363 . S
C1910 C1911 1.359 1_554 S
C1910 C1915 1.382 . S
C1910 N1917 1.355 1_554 S
C1911 C1910 1.359 1_556 S
C1911 C1914 1.363 . S
N1912 C1914 1.356 . S
N1912 H1924 0.984 . S
N1912 H1925 0.985 . S
N1913 C1915 1.356 . S
N1913 H1918 0.984 . S
N1913 H1919 0.985 . S
C1914 C1908 1.382 . S
C1914 C1911 1.363 . S
C1914 N1912 1.356 . S
C1915 C1909 1.363 . S
C1915 C1910 1.382 . S
C1915 N1913 1.356 . S
N1916 C1908 1.355 1_554 S
N1916 H1922 0.984 1_554 S
N1916 H1923 0.984 . S
N1917 C1910 1.355 1_556 S
N1917 H1920 0.984 . S
N1917 H1921 0.985 1_556 S
H1918 N1913 0.984 . S
H1919 N1913 0.985 . S
H1920 N1917 0.984 . S
H1921 N1917 0.985 1_554 S
H1922 N1916 0.984 1_556 S
H1923 N1916 0.984 . S
H1924 N1912 0.984 . S
H1925 N1912 0.985 . S
C1926 C1927 1.363 1_554 S
C1926 C1932 1.379 1_545 S
C1926 N1934 1.356 . S
C1927 C1926 1.363 1_556 S
C1927 C1933 1.363 . S
C1928 C1929 1.363 1_556 S
C1928 C1933 1.379 1_565 S
C1928 N1935 1.356 . S
C1929 C1928 1.363 1_554 S
C1929 C1932 1.363 . S
N1930 C1932 1.356 . S
N1930 H1942 0.984 . S
N1930 H1943 0.985 . S
N1931 C1933 1.356 . S
N1931 H1936 0.984 . S
N1931 H1937 0.985 . S
C1932 C1926 1.379 1_565 S
C1932 C1929 1.363 . S
C1932 N1930 1.356 . S
C1933 C1927 1.363 . S
C1933 C1928 1.379 1_545 S
C1933 N1931 1.356 . S
N1934 C1926 1.356 . S
N1934 H1940 0.984 . S
N1934 H1941 0.984 1_554 S
N1935 C1928 1.356 . S
N1935 H1938 0.984 1_556 S
N1935 H1939 0.985 . S
H1936 N1931 0.984 . S
H1937 N1931 0.985 . S
H1938 N1935 0.984 1_554 S
H1939 N1935 0.985 . S
H1940 N1934 0.984 . S
H1941 N1934 0.984 1_556 S
H1942 N1930 0.984 . S
H1943 N1930 0.985 . S
C1944 C1945 1.363 1_554 S
C1944 C1950 1.381 . S
C1944 N1952 1.356 . S
C1945 C1944 1.363 1_556 S
C1945 C1951 1.361 1_655 S
C1946 C1947 1.363 1_556 S
C1946 C1951 1.381 . S
C1946 N1953 1.356 . S
C1947 C1946 1.363 1_554 S
C1947 C1950 1.361 1_455 S
N1948 C1950 1.356 1_455 S
N1948 H1960 0.984 1_455 S
N1948 H1961 0.985 . S
N1949 C1951 1.356 1_655 S
N1949 H1954 0.984 . S
N1949 H1955 0.985 1_655 S
C1950 C1944 1.381 . S
C1950 C1947 1.361 1_655 S
C1950 N1948 1.356 1_655 S
C1951 C1945 1.361 1_455 S
C1951 C1946 1.381 . S
C1951 N1949 1.356 1_455 S
N1952 C1944 1.356 . S
N1952 H1958 0.984 . S
N1952 H1959 0.984 . S
N1953 C1946 1.356 . S
N1953 H1956 0.984 . S
N1953 H1957 0.985 . S
H1954 N1949 0.984 . S
H1955 N1949 0.985 1_455 S
H1956 N1953 0.984 . S
H1957 N1953 0.985 . S
H1958 N1952 0.984 . S
H1959 N1952 0.984 . S
H1960 N1948 0.984 1_655 S
H1961 N1948 0.985 . S
C1962 C1963 1.363 . S
C1962 C1968 1.379 . S
C1962 N1970 1.356 . S
C1963 C1962 1.363 . S
C1963 C1969 1.363 1_556 S
C1964 C1965 1.363 . S
C1964 C1969 1.379 . S
C1964 N1971 1.356 . S
C1965 C1964 1.363 . S
C1965 C1968 1.363 1_554 S
N1966 C1968 1.356 . S
N1966 H1978 0.984 . S
N1966 H1979 0.973 1_556 S
N1967 C1969 1.356 . S
N1967 H1972 0.973 1_554 S
N1967 H1973 0.985 . S
C1968 C1962 1.379 . S
C1968 C1965 1.363 1_556 S
C1968 N1966 1.356 . S
C1969 C1963 1.363 1_554 S
C1969 C1964 1.379 . S
C1969 N1967 1.356 . S
N1970 C1962 1.356 . S
N1970 H1976 0.984 . S
N1970 H1977 0.984 . S
N1971 C1964 1.356 . S
N1971 H1974 0.984 . S
N1971 H1975 0.985 . S
H1972 N1967 0.973 1_556 S
H1973 N1967 0.985 . S
H1974 N1971 0.984 . S
H1975 N1971 0.985 . S
H1976 N1970 0.984 . S
H1977 N1970 0.984 . S
H1978 N1966 0.984 . S
H1979 N1966 0.973 1_554 S
C1980 C1981 1.363 . S
C1980 C1986 1.379 1_565 S
C1980 N1988 1.356 . S
C1981 C1980 1.363 . S
C1981 C1987 1.363 1_554 S
C1982 C1983 1.363 . S
C1982 C1987 1.379 1_545 S
C1982 N1989 1.356 . S
C1983 C1982 1.363 . S
C1983 C1986 1.363 1_556 S
N1984 C1986 1.356 . S
N1984 H1996 0.984 . S
N1984 H1997 0.985 1_554 S
N1985 C1987 1.356 . S
N1985 H1990 0.984 1_556 S
N1985 H1991 0.985 . S
C1986 C1980 1.379 1_545 S
C1986 C1983 1.363 1_554 S
C1986 N1984 1.356 . S
C1987 C1981 1.363 1_556 S
C1987 C1982 1.379 1_565 S
C1987 N1985 1.356 . S
N1988 C1980 1.356 . S
N1988 H1994 1.012 . S
N1988 H1995 0.984 . S
N1989 C1982 1.356 . S
N1989 H1992 0.984 . S
N1989 H1993 1.012 . S
H1990 N1985 0.984 1_554 S
H1991 N1985 0.985 . S
H1992 N1989 0.984 . S
H1993 N1989 1.012 . S
H1994 N1988 1.012 . S
H1995 N1988 0.984 . S
H1996 N1984 0.984 . S
H1997 N1984 0.985 1_556 S
C1998 C1999 1.363 1_554 S
C1998 C2004 1.377 . S
C1998 N2006 1.356 . S
C1999 C1998 1.363 1_556 S
C1999 C2005 1.365 1_655 S
C2000 C2001 1.363 1_556 S
C2000 C2005 1.377 . S
C2000 N2007 1.356 . S
C2001 C2000 1.363 1_554 S
C2001 C2004 1.365 1_455 S
N2002 C2004 1.357 1_455 S
N2002 H2014 0.984 1_455 S
N2002 H2015 0.985 . S
N2003 C2005 1.357 1_655 S
N2003 H2008 0.984 . S
N2003 H2009 0.985 1_655 S
C2004 C1998 1.377 . S
C2004 C2001 1.365 1_655 S
C2004 N2002 1.357 1_655 S
C2005 C1999 1.365 1_455 S
C2005 C2000 1.377 . S
C2005 N2003 1.357 1_455 S
N2006 C1998 1.356 . S
N2006 H2012 0.984 . S
N2006 H2013 0.984 . S
N2007 C2000 1.356 . S
N2007 H2010 0.984 . S
N2007 H2011 0.985 . S
H2008 N2003 0.984 . S
H2009 N2003 0.985 1_455 S
H2010 N2007 0.984 . S
H2011 N2007 0.985 . S
H2012 N2006 0.984 . S
H2013 N2006 0.984 . S
H2014 N2002 0.984 1_655 S
H2015 N2002 0.985 . S
C2016 C2017 1.363 . S
C2016 C2022 1.379 . S
C2016 N2024 1.356 . S
C2017 C2016 1.363 . S
C2017 C2023 1.363 . S
C2018 C2019 1.363 . S
C2018 C2023 1.379 . S
C2018 N2025 1.356 . S
C2019 C2018 1.363 . S
C2019 C2022 1.363 . S
N2020 C2022 1.356 . S
N2020 H2032 0.984 . S
N2020 H2033 0.985 . S
N2021 C2023 1.356 . S
N2021 H2026 0.984 . S
N2021 H2027 0.985 . S
C2022 C2016 1.379 . S
C2022 C2019 1.363 . S
C2022 N2020 1.356 . S
C2023 C2017 1.363 . S
C2023 C2018 1.379 . S
C2023 N2021 1.356 . S
N2024 C2016 1.356 . S
N2024 H2030 0.984 . S
N2024 H2031 0.984 . S
N2025 C2018 1.356 . S
N2025 H2028 0.984 . S
N2025 H2029 0.985 . S
H2026 N2021 0.984 . S
H2027 N2021 0.985 . S
H2028 N2025 0.984 . S
H2029 N2025 0.985 . S
H2030 N2024 0.984 . S
H2031 N2024 0.984 . S
H2032 N2020 0.984 . S
H2033 N2020 0.985 . S
C2034 C2035 1.363 . S
C2034 C2040 1.379 . S
C2034 N2042 1.356 . S
C2035 C2034 1.363 . S
C2035 C2041 1.363 . S
C2036 C2037 1.363 . S
C2036 C2041 1.379 . S
C2036 N2043 1.356 . S
C2037 C2036 1.363 . S
C2037 C2040 1.363 . S
N2038 C2040 1.356 . S
N2038 H2050 0.984 . S
N2038 H2051 0.985 . S
N2039 C2041 1.356 . S
N2039 H2044 0.984 . S
N2039 H2045 0.985 . S
C2040 C2034 1.379 . S
C2040 C2037 1.363 . S
C2040 N2038 1.356 . S
C2041 C2035 1.363 . S
C2041 C2036 1.379 . S
C2041 N2039 1.356 . S
N2042 C2034 1.356 . S
N2042 H2048 0.984 . S
N2042 H2049 0.984 . S
N2043 C2036 1.356 . S
N2043 H2046 0.984 . S
N2043 H2047 0.985 . S
H2044 N2039 0.984 . S
H2045 N2039 0.985 . S
H2046 N2043 0.984 . S
H2047 N2043 0.985 . S
H2048 N2042 0.984 . S
H2049 N2042 0.984 . S
H2050 N2038 0.984 . S
H2051 N2038 0.985 . S
C2052 C2053 1.363 . S
C2052 C2058 1.379 . S
C2052 N2060 1.356 . S
C2053 C2052 1.363 . S
C2053 C2059 1.363 . S
C2054 C2055 1.363 . S
C2054 C2059 1.379 . S
C2054 N2061 1.356 . S
C2055 C2054 1.363 . S
C2055 C2058 1.363 . S
N2056 C2058 1.356 . S
N2056 H2068 0.984 . S
N2056 H2069 0.985 . S
N2057 C2059 1.356 . S
N2057 H2062 0.984 . S
N2057 H2063 0.985 . S
C2058 C2052 1.379 . S
C2058 C2055 1.363 . S
C2058 N2056 1.356 . S
C2059 C2053 1.363 . S
C2059 C2054 1.379 . S
C2059 N2057 1.356 . S
N2060 C2052 1.356 . S
N2060 H2066 0.984 . S
N2060 H2067 0.984 . S
N2061 C2054 1.356 . S
N2061 H2064 0.984 . S
N2061 H2065 0.985 . S
H2062 N2057 0.984 . S
H2063 N2057 0.985 . S
H2064 N2061 0.984 . S
H2065 N2061 0.985 . S
H2066 N2060 0.984 . S
H2067 N2060 0.984 . S
H2068 N2056 0.984 . S
H2069 N2056 0.985 . S
C2070 C2071 1.363 . S
C2070 C2076 1.379 . S
C2070 N2078 1.356 . S
C2071 C2070 1.363 . S
C2071 C2077 1.363 . S
C2072 C2073 1.363 . S
C2072 C2077 1.379 . S
C2072 N2079 1.356 . S
C2073 C2072 1.363 . S
C2073 C2076 1.363 . S
N2074 C2076 1.356 . S
N2074 H2086 0.984 . S
N2074 H2087 0.985 . S
N2075 C2077 1.356 . S
N2075 H2080 0.984 . S
N2075 H2081 0.985 . S
C2076 C2070 1.379 . S
C2076 C2073 1.363 . S
C2076 N2074 1.356 . S
C2077 C2071 1.363 . S
C2077 C2072 1.379 . S
C2077 N2075 1.356 . S
N2078 C2070 1.356 . S
N2078 H2084 0.984 . S
N2078 H2085 0.984 . S
N2079 C2072 1.356 . S
N2079 H2082 0.984 . S
N2079 H2083 0.985 . S
H2080 N2075 0.984 . S
H2081 N2075 0.985 . S
H2082 N2079 0.984 . S
H2083 N2079 0.985 . S
H2084 N2078 0.984 . S
H2085 N2078 0.984 . S
H2086 N2074 0.984 . S
H2087 N2074 0.985 . S
C2088 C2089 1.363 . S
C2088 C2094 1.379 . S
C2088 N2096 1.356 . S
C2089 C2088 1.363 . S
C2089 C2095 1.363 . S
C2090 C2091 1.363 . S
C2090 C2095 1.379 . S
C2090 N2097 1.356 . S
C2091 C2090 1.363 . S
C2091 C2094 1.363 . S
N2092 C2094 1.356 . S
N2092 H2104 0.984 . S
N2092 H2105 0.985 . S
N2093 C2095 1.356 . S
N2093 H2098 0.984 . S
N2093 H2099 0.985 . S
C2094 C2088 1.379 . S
C2094 C2091 1.363 . S
C2094 N2092 1.356 . S
C2095 C2089 1.363 . S
C2095 C2090 1.379 . S
C2095 N2093 1.356 . S
N2096 C2088 1.356 . S
N2096 H2102 0.984 . S
N2096 H2103 0.984 . S
N2097 C2090 1.356 . S
N2097 H2100 0.984 . S
N2097 H2101 0.985 . S
H2098 N2093 0.984 . S
H2099 N2093 0.985 . S
H2100 N2097 0.984 . S
H2101 N2097 0.985 . S
H2102 N2096 0.984 . S
H2103 N2096 0.984 . S
H2104 N2092 0.984 . S
H2105 N2092 0.985 . S
C2106 C2107 1.363 . S
C2106 C2112 1.379 . S
C2106 N2114 1.356 . S
C2107 C2106 1.363 . S
C2107 C2113 1.363 . S
C2108 C2109 1.363 . S
C2108 C2113 1.379 . S
C2108 N2115 1.356 . S
C2109 C2108 1.363 . S
C2109 C2112 1.363 . S
N2110 C2112 1.356 . S
N2110 H2122 0.984 . S
N2110 H2123 0.985 . S
N2111 C2113 1.356 . S
N2111 H2116 0.984 . S
N2111 H2117 0.985 . S
C2112 C2106 1.379 . S
C2112 C2109 1.363 . S
C2112 N2110 1.356 . S
C2113 C2107 1.363 . S
C2113 C2108 1.379 . S
C2113 N2111 1.356 . S
N2114 C2106 1.356 . S
N2114 H2120 0.984 . S
N2114 H2121 0.984 . S
N2115 C2108 1.356 . S
N2115 H2118 0.984 . S
N2115 H2119 0.985 . S
H2116 N2111 0.984 . S
H2117 N2111 0.985 . S
H2118 N2115 0.984 . S
H2119 N2115 0.985 . S
H2120 N2114 0.984 . S
H2121 N2114 0.984 . S
H2122 N2110 0.984 . S
H2123 N2110 0.985 . S
C2124 C2125 1.363 . S
C2124 C2130 1.379 . S
C2124 N2132 1.356 . S
C2125 C2124 1.363 . S
C2125 C2131 1.363 . S
C2126 C2127 1.363 . S
C2126 C2131 1.379 . S
C2126 N2133 1.356 . S
C2127 C2126 1.363 . S
C2127 C2130 1.363 . S
N2128 C2130 1.356 . S
N2128 H2140 0.984 . S
N2128 H2141 0.985 . S
N2129 C2131 1.356 . S
N2129 H2134 0.984 . S
N2129 H2135 0.985 . S
C2130 C2124 1.379 . S
C2130 C2127 1.363 . S
C2130 N2128 1.356 . S
C2131 C2125 1.363 . S
C2131 C2126 1.379 . S
C2131 N2129 1.356 . S
N2132 C2124 1.356 . S
N2132 H2138 0.984 . S
N2132 H2139 0.984 . S
N2133 C2126 1.356 . S
N2133 H2136 0.984 . S
N2133 H2137 0.985 . S
H2134 N2129 0.984 . S
H2135 N2129 0.985 . S
H2136 N2133 0.984 . S
H2137 N2133 0.985 . S
H2138 N2132 0.984 . S
H2139 N2132 0.984 . S
H2140 N2128 0.984 . S
H2141 N2128 0.985 . S
C2142 C2143 1.363 . S
C2142 C2148 1.379 . S
C2142 N2150 1.356 . S
C2143 C2142 1.363 . S
C2143 C2149 1.363 . S
C2144 C2145 1.363 . S
C2144 C2149 1.379 . S
C2144 N2151 1.356 . S
C2145 C2144 1.363 . S
C2145 C2148 1.363 . S
N2146 C2148 1.356 . S
N2146 H2158 0.984 . S
N2146 H2159 0.985 . S
N2147 C2149 1.356 . S
N2147 H2152 0.984 . S
N2147 H2153 0.985 . S
C2148 C2142 1.379 . S
C2148 C2145 1.363 . S
C2148 N2146 1.356 . S
C2149 C2143 1.363 . S
C2149 C2144 1.379 . S
C2149 N2147 1.356 . S
N2150 C2142 1.356 . S
N2150 H2156 0.984 . S
N2150 H2157 0.984 . S
N2151 C2144 1.356 . S
N2151 H2154 0.984 . S
N2151 H2155 0.985 . S
H2152 N2147 0.984 . S
H2153 N2147 0.985 . S
H2154 N2151 0.984 . S
H2155 N2151 0.985 . S
H2156 N2150 0.984 . S
H2157 N2150 0.984 . S
H2158 N2146 0.984 . S
H2159 N2146 0.985 . S
C2160 C2161 1.363 . S
C2160 C2166 1.379 . S
C2160 N2168 1.356 . S
C2161 C2160 1.363 . S
C2161 C2167 1.363 . S
C2162 C2163 1.363 . S
C2162 C2167 1.379 . S
C2162 N2169 1.356 . S
C2163 C2162 1.363 . S
C2163 C2166 1.363 . S
N2164 C2166 1.356 . S
N2164 H2176 0.984 . S
N2164 H2177 0.985 . S
N2165 C2167 1.356 . S
N2165 H2170 0.984 . S
N2165 H2171 0.985 . S
C2166 C2160 1.379 . S
C2166 C2163 1.363 . S
C2166 N2164 1.356 . S
C2167 C2161 1.363 . S
C2167 C2162 1.379 . S
C2167 N2165 1.356 . S
N2168 C2160 1.356 . S
N2168 H2174 0.984 . S
N2168 H2175 0.984 . S
N2169 C2162 1.356 . S
N2169 H2172 0.984 . S
N2169 H2173 0.985 . S
H2170 N2165 0.984 . S
H2171 N2165 0.985 . S
H2172 N2169 0.984 . S
H2173 N2169 0.985 . S
H2174 N2168 0.984 . S
H2175 N2168 0.984 . S
H2176 N2164 0.984 . S
H2177 N2164 0.985 . S
C2178 C2179 1.363 . S
C2178 C2184 1.379 . S
C2178 N2186 1.356 . S
C2179 C2178 1.363 . S
C2179 C2185 1.363 . S
C2180 C2181 1.363 . S
C2180 C2185 1.379 . S
C2180 N2187 1.356 . S
C2181 C2180 1.363 . S
C2181 C2184 1.363 . S
N2182 C2184 1.356 . S
N2182 H2194 0.984 . S
N2182 H2195 0.985 . S
N2183 C2185 1.356 . S
N2183 H2188 0.984 . S
N2183 H2189 0.985 . S
C2184 C2178 1.379 . S
C2184 C2181 1.363 . S
C2184 N2182 1.356 . S
C2185 C2179 1.363 . S
C2185 C2180 1.379 . S
C2185 N2183 1.356 . S
N2186 C2178 1.356 . S
N2186 H2192 0.984 . S
N2186 H2193 0.984 . S
N2187 C2180 1.356 . S
N2187 H2190 0.984 . S
N2187 H2191 0.985 . S
H2188 N2183 0.984 . S
H2189 N2183 0.985 . S
H2190 N2187 0.984 . S
H2191 N2187 0.985 . S
H2192 N2186 0.984 . S
H2193 N2186 0.984 . S
H2194 N2182 0.984 . S
H2195 N2182 0.985 . S
C2196 C2197 1.363 . S
C2196 C2202 1.379 . S
C2196 N2204 1.356 . S
C2197 C2196 1.363 . S
C2197 C2203 1.363 . S
C2198 C2199 1.363 . S
C2198 C2203 1.379 . S
C2198 N2205 1.356 . S
C2199 C2198 1.363 . S
C2199 C2202 1.363 . S
N2200 C2202 1.356 . S
N2200 H2212 0.984 . S
N2200 H2213 0.985 . S
N2201 C2203 1.356 . S
N2201 H2206 0.984 . S
N2201 H2207 0.985 . S
C2202 C2196 1.379 . S
C2202 C2199 1.363 . S
C2202 N2200 1.356 . S
C2203 C2197 1.363 . S
C2203 C2198 1.379 . S
C2203 N2201 1.356 . S
N2204 C2196 1.356 . S
N2204 H2210 0.984 . S
N2204 H2211 0.984 . S
N2205 C2198 1.356 . S
N2205 H2208 0.984 . S
N2205 H2209 0.985 . S
H2206 N2201 0.984 . S
H2207 N2201 0.985 . S
H2208 N2205 0.984 . S
H2209 N2205 0.985 . S
H2210 N2204 0.984 . S
H2211 N2204 0.984 . S
H2212 N2200 0.984 . S
H2213 N2200 0.985 . S
C2214 C2215 1.363 . S
C2214 C2220 1.379 . S
C2214 N2222 1.356 . S
C2215 C2214 1.363 . S
C2215 C2221 1.363 . S
C2216 C2217 1.363 . S
C2216 C2221 1.379 . S
C2216 N2223 1.356 . S
C2217 C2216 1.363 . S
C2217 C2220 1.363 . S
N2218 C2220 1.356 . S
N2218 H2230 0.984 . S
N2218 H2231 0.985 . S
N2219 C2221 1.356 . S
N2219 H2224 0.984 . S
N2219 H2225 0.985 . S
C2220 C2214 1.379 . S
C2220 C2217 1.363 . S
C2220 N2218 1.356 . S
C2221 C2215 1.363 . S
C2221 C2216 1.379 . S
C2221 N2219 1.356 . S
N2222 C2214 1.356 . S
N2222 H2228 0.984 . S
N2222 H2229 0.984 . S
N2223 C2216 1.356 . S
N2223 H2226 0.984 . S
N2223 H2227 0.985 . S
H2224 N2219 0.984 . S
H2225 N2219 0.985 . S
H2226 N2223 0.984 . S
H2227 N2223 0.985 . S
H2228 N2222 0.984 . S
H2229 N2222 0.984 . S
H2230 N2218 0.984 . S
H2231 N2218 0.985 . S
C1585 C1553 2.041 . S
C1587 C20 2.041 . S
C1603 C1369 2.041 . S
C1605 C117 2.041 . S
C1621 C1465 2.041 . S
C1623 C196 2.041 . S
C1639 C645 2.041 . S
C1641 C321 2.041 . S
C1657 C724 2.041 . S
C1659 C409 2.041 . S
C1675 C497 2.041 . S
C1677 C557 2.041 . S
C1693 C849 2.041 . S
C1695 C1173 2.041 . S
C1711 C937 2.042 . S
C1713 C1252 2.042 . S
C1729 C1025 2.041 . S
C1731 C1076 2.041 . S
C1747 C49 0.742 . S
C1749 C1525 0.742 . S
C1765 C1340 0.742 . S
C1767 C145 0.742 . S
C1783 C225 0.742 . S
C1785 C1437 0.742 . S
C1801 C673 0.742 . S
C1803 C293 0.742 . S
C1819 C381 0.742 . S
C1821 C753 0.742 . S
C1837 C469 0.742 . S
C1839 C585 0.742 . S
C1855 C821 0.742 . S
C1857 C1201 0.742 . S
C1873 C1281 0.742 . S
C1875 C909 0.742 . S
C1891 C1105 0.742 . S
C1893 C997 0.742 . S
C1909 C29 1.590 . S
C1911 C313 1.590 . S
C1927 C401 1.590 . S
C1929 C108 1.590 . S
C1945 C489 1.590 . S
C1947 C205 1.590 . S
C1963 C460 1.590 . S
C1965 C137 1.590 . S
C1981 C233 1.591 . S
C1983 C284 1.591 . S
C1999 C372 1.591 . S
C2001 C57 1.591 . S
C2017 C548 1.590 . S
C2019 C841 1.590 . S
C2035 C929 1.590 . S
C2037 C636 1.590 . S
C2053 C1017 1.590 . S
C2055 C733 1.590 . S
C2071 C988 1.590 . S
C2073 C665 1.590 . S
C2089 C761 1.591 . S
C2091 C812 1.591 . S
C2107 C900 1.591 . S
C2109 C577 1.591 . S
C2125 C1377 1.590 . S
C2127 C1085 1.590 . S
C2143 C1457 1.590 . S
C2145 C1164 1.590 . S
C2161 C1261 1.590 . S
C2163 C1545 1.590 . S
C2179 C1516 1.590 . S
C2181 C1193 1.590 . S
C2197 C1289 1.591 . S
C2199 C1349 1.591 . S
C2215 C1428 1.591 . S
C2217 C1113 1.591 . S
