# Generated by pormake.
# Topology pts-e, (5)-cn, num edge types: 1
# Building blocks:
#     Node 0, Type 0, BuildingBlock: XOMCOT_clean_sbu_1, # of connection points: 5
#     Node 1, Type 0, BuildingBlock: XOMCOT_clean_sbu_1, # of connection points: 5
#     Node 2, Type 0, BuildingBlock: XOMCOT_clean_sbu_1, # of connection points: 5
#     Node 3, Type 0, BuildingBlock: XOMCOT_clean_sbu_1, # of connection points: 5
#     Node 4, Type 0, BuildingBlock: XOMCOT_clean_sbu_1, # of connection points: 5
#     Node 5, Type 0, BuildingBlock: XOMCOT_clean_sbu_1, # of connection points: 5
#     Node 6, Type 0, BuildingBlock: XOMCOT_clean_sbu_1, # of connection points: 5
#     Node 7, Type 0, BuildingBlock: XOMCOT_clean_sbu_1, # of connection points: 5
#     Edge 8, Type (0, 0), BuildingBlock: OJICUG_clean_linker_0, # of connection points: 2
#     Edge 9, Type (0, 0), BuildingBlock: OJICUG_clean_linker_0, # of connection points: 2
#     Edge 10, Type (0, 0), BuildingBlock: OJICUG_clean_linker_0, # of connection points: 2
#     Edge 11, Type (0, 0), BuildingBlock: OJICUG_clean_linker_0, # of connection points: 2
#     Edge 12, Type (0, 0), BuildingBlock: OJICUG_clean_linker_0, # of connection points: 2
#     Edge 13, Type (0, 0), BuildingBlock: OJICUG_clean_linker_0, # of connection points: 2
#     Edge 14, Type (0, 0), BuildingBlock: OJICUG_clean_linker_0, # of connection points: 2
#     Edge 15, Type (0, 0), BuildingBlock: OJICUG_clean_linker_0, # of connection points: 2
#     Edge 16, Type (0, 0), BuildingBlock: OJICUG_clean_linker_0, # of connection points: 2
#     Edge 17, Type (0, 0), BuildingBlock: OJICUG_clean_linker_0, # of connection points: 2
#     Edge 18, Type (0, 0), BuildingBlock: OJICUG_clean_linker_0, # of connection points: 2
#     Edge 19, Type (0, 0), BuildingBlock: OJICUG_clean_linker_0, # of connection points: 2
#     Edge 20, Type (0, 0), BuildingBlock: OJICUG_clean_linker_0, # of connection points: 2
#     Edge 21, Type (0, 0), BuildingBlock: OJICUG_clean_linker_0, # of connection points: 2
#     Edge 22, Type (0, 0), BuildingBlock: OJICUG_clean_linker_0, # of connection points: 2
#     Edge 23, Type (0, 0), BuildingBlock: OJICUG_clean_linker_0, # of connection points: 2
#     Edge 24, Type (0, 0), BuildingBlock: OJICUG_clean_linker_0, # of connection points: 2
#     Edge 25, Type (0, 0), BuildingBlock: OJICUG_clean_linker_0, # of connection points: 2
#     Edge 26, Type (0, 0), BuildingBlock: OJICUG_clean_linker_0, # of connection points: 2
#     Edge 27, Type (0, 0), BuildingBlock: OJICUG_clean_linker_0, # of connection points: 2
# Relax obj value: 0.524
# Max RMSD: 0.254
# Mean RMSD: 0.254
data_MOF--net-pts-e--node1-XOMCOT_clean_sbu_1--edge1-OJICUG_clean_linker_0
_symmetry_space_group_name_H-M    P1
_symmetry_Int_Tables_number       1
_symmetry_cell_setting            triclinic
loop_
_symmetry_equiv_pos_as_xyz
'x, y, z'
_cell_length_a     26.636534
_cell_length_b     26.626078
_cell_length_c     34.831819
_cell_angle_alpha  89.971641
_cell_angle_beta   89.96828
_cell_angle_gamma 90.00223
loop_
_atom_site_label
_atom_site_type_symbol
_atom_site_fract_x
_atom_site_fract_y
_atom_site_fract_z
_atom_type_partial_charge
C0 C 0.17421 0.06452 0.17918 0.0
C1 C 0.12286 0.07002 0.1793 0.0
N2 N 0.10204 0.02389 0.18006 0.0
N3 N 0.18566 0.01524 0.1804 0.0
C4 C 0.14096 0.99143 0.18049 0.0
H5 H 0.2016 0.09438 0.17816 0.0
Co6 Co 0.25004 0.98747 0.18092 0.0
C7 C 0.23078 0.90763 0.24081 0.0
O8 O 0.26788 0.92545 0.26162 0.0
N9 N 0.31526 0.95991 0.17952 0.0
C10 C 0.3859 0.91591 0.18542 0.0
C11 C 0.33485 0.91592 0.19173 0.0
C12 C 0.35464 0.98394 0.16334 0.0
N13 N 0.39845 0.95934 0.16804 0.0
O14 O 0.23829 0.96162 0.13031 0.0
H15 H 0.31413 0.88545 0.20454 0.0
H16 H 0.35129 0.01977 0.14899 0.0
O17 O 0.22211 0.92643 0.20741 0.0
C18 C 0.24584 -0.00037 0.10838 0.0
O19 O 0.26004 0.04207 0.12428 0.0
N20 N 0.26282 0.02097 0.22787 0.0
C21 C 0.25246 0.10968 0.26852 0.0
C22 C 0.22139 0.06867 0.2769 0.0
C23 C 0.22675 0.02453 0.25577 0.0
C24 C 0.29833 0.05782 0.22467 0.0
C25 C 0.29394 0.10256 0.24487 0.0
H26 H 0.1966 -0.00249 0.25731 0.0
H27 H 0.32522 0.05755 0.2019 0.0
H28 H 0.13701 0.95102 0.18122 0.0
H29 H 0.10253 0.10518 0.17821 0.0
H30 H 0.41182 0.88695 0.19446 0.0
H31 H 0.18826 0.07339 0.29462 0.0
H32 H 0.31815 0.13383 0.23748 0.0
C33 C 0.93415 0.17358 0.67808 0.0
C34 C 0.92862 0.12223 0.67833 0.0
N35 N 0.97469 0.10134 0.67957 0.0
N36 N 0.9834 0.18499 0.67947 0.0
C37 C 0.00716 0.14026 0.67996 0.0
H38 H 0.90431 0.201 0.67708 0.0
Co39 Co 0.01103 0.24942 0.67994 0.0
C40 C 0.09124 0.23017 0.7394 0.0
O41 O 0.07367 0.26737 0.76025 0.0
N42 N 0.03844 0.31473 0.67852 0.0
C43 C 0.08236 0.38545 0.68426 0.0
C44 C 0.08251 0.33435 0.69045 0.0
C45 C 0.01417 0.35414 0.66261 0.0
N46 N 0.03874 0.398 0.66722 0.0
O47 O 0.03658 0.23787 0.62918 0.0
H48 H 0.11316 0.31362 0.70297 0.0
H49 H 0.97823 0.35078 0.64848 0.0
O50 O 0.07222 0.2215 0.7061 0.0
C51 C -0.00155 0.24552 0.60745 0.0
O52 O 0.95613 0.25966 0.62359 0.0
N53 N 0.97783 0.26198 0.72706 0.0
C54 C 0.88954 0.25117 0.7682 0.0
C55 C 0.93074 0.22027 0.77634 0.0
C56 C 0.97466 0.22585 0.75495 0.0
C57 C 0.94079 0.2973 0.72405 0.0
C58 C 0.89625 0.29268 0.7445 0.0
H59 H 0.00179 0.19579 0.75634 0.0
H60 H 0.94074 0.32419 0.70127 0.0
H61 H 0.04757 0.13628 0.67997 0.0
H62 H 0.89339 0.10198 0.67812 0.0
H63 H 0.11138 0.4114 0.69314 0.0
H64 H 0.92633 0.18712 0.79409 0.0
H65 H 0.86481 0.31674 0.73729 0.0
C66 C 0.82108 0.93477 0.1801 0.0
C67 C 0.87241 0.92927 0.1801 0.0
N68 N 0.89329 0.97539 0.18055 0.0
N69 N 0.80966 0.98407 0.18088 0.0
C70 C 0.85437 0.00786 0.18075 0.0
H71 H 0.79367 0.9049 0.17963 0.0
Co72 Co 0.74531 0.01179 0.18106 0.0
C73 C 0.76436 0.09275 0.23997 0.0
O74 O 0.727 0.07552 0.26085 0.0
N75 N 0.68008 0.03925 0.17933 0.0
C76 C 0.6094 0.08335 0.18451 0.0
C77 C 0.66044 0.08352 0.19086 0.0
C78 C 0.64075 0.0148 0.1635 0.0
N79 N 0.59692 0.03949 0.16778 0.0
O80 O 0.75712 0.03675 0.13017 0.0
H81 H 0.68113 0.11433 0.20318 0.0
H82 H 0.64417 0.97866 0.14965 0.0
O83 O 0.7732 0.07327 0.20685 0.0
C84 C 0.74966 -0.00159 0.1086 0.0
O85 O 0.73548 0.95619 0.1249 0.0
N86 N 0.7325 0.97918 0.2284 0.0
C87 C 0.74304 0.89144 0.2703 0.0
C88 C 0.7739 0.93275 0.27815 0.0
C89 C 0.76848 0.97637 0.25638 0.0
C90 C 0.69714 0.94213 0.22566 0.0
C91 C 0.70162 0.89787 0.2465 0.0
H92 H 0.79856 0.00349 0.25758 0.0
H93 H 0.67033 0.9418 0.20285 0.0
H94 H 0.8583 0.04828 0.1801 0.0
H95 H 0.89266 0.89403 0.18022 0.0
H96 H 0.58345 0.11254 0.19306 0.0
H97 H 0.80698 0.92858 0.29599 0.0
H98 H 0.67756 0.86634 0.23951 0.0
C99 C 0.06354 0.82027 0.68185 0.0
C100 C 0.06907 0.87163 0.68188 0.0
N101 N 0.02297 0.8925 0.68171 0.0
N102 N 0.01424 0.80885 0.68222 0.0
C103 C 0.99049 0.85358 0.68171 0.0
H104 H 0.09338 0.79284 0.68139 0.0
Co105 Co 0.98629 0.74455 0.68212 0.0
C106 C 0.90545 0.76354 0.74124 0.0
O107 O 0.92271 0.72616 0.76208 0.0
N108 N 0.9586 0.67943 0.68005 0.0
C109 C 0.91462 0.60866 0.68514 0.0
C110 C 0.91452 0.65964 0.69183 0.0
C111 C 0.98285 0.64029 0.66375 0.0
N112 N 0.95825 0.59637 0.66796 0.0
O113 O 0.96136 0.75693 0.63132 0.0
H114 H 0.88392 0.68016 0.70462 0.0
H115 H 0.01888 0.64388 0.64975 0.0
O116 O 0.92491 0.77243 0.7081 0.0
C117 C -0.00039 0.74974 0.6096 0.0
O118 O 0.0419 0.73547 0.62569 0.0
N119 N 0.01883 0.73114 0.72937 0.0
C120 C 0.10673 0.74075 0.77108 0.0
C121 C 0.0657 0.77193 0.77914 0.0
C122 C 0.02199 0.76695 0.75746 0.0
C123 C 0.0555 0.6954 0.72651 0.0
C124 C 0.09983 0.6994 0.74727 0.0
H125 H -0.00489 0.79725 0.75881 0.0
H126 H 0.05552 0.66861 0.70368 0.0
H127 H 0.95008 0.85754 0.68162 0.0
H128 H 0.10426 0.89194 0.6813 0.0
H129 H 0.88561 0.58257 0.69382 0.0
H130 H 0.07021 0.80493 0.79702 0.0
H131 H 0.1311 0.67506 0.74017 0.0
C132 C 0.17447 0.93239 0.87197 0.0
C133 C 0.12314 0.92688 0.87201 0.0
N134 N 0.10226 0.97298 0.87085 0.0
N135 N 0.18589 0.98165 0.87047 0.0
C136 C 0.14118 0.00544 0.8702 0.0
H137 H 0.20187 0.90254 0.87293 0.0
Co138 Co 0.25027 0.00934 0.86995 0.0
C139 C 0.23106 0.08916 0.81008 0.0
O140 O 0.26816 0.07135 0.78924 0.0
N141 N 0.31552 0.03684 0.87134 0.0
C142 C 0.38621 0.08077 0.86543 0.0
C143 C 0.33518 0.08078 0.85908 0.0
C144 C 0.35484 0.0128 0.88755 0.0
N145 N 0.39869 0.03736 0.88287 0.0
O146 O 0.2385 0.0352 0.92057 0.0
H147 H 0.31452 0.11125 0.84623 0.0
H148 H 0.35143 0.97698 0.90192 0.0
O149 O 0.22241 0.07037 0.84348 0.0
C150 C 0.24601 -0.00279 0.94251 0.0
O151 O 0.26024 0.95476 0.92662 0.0
N152 N 0.26307 0.97582 0.823 0.0
C153 C 0.25261 0.88705 0.78245 0.0
C154 C 0.22158 0.92807 0.77405 0.0
C155 C 0.227 0.97226 0.79513 0.0
C156 C 0.29854 0.93894 0.82621 0.0
C157 C 0.29408 0.89416 0.80606 0.0
H158 H 0.19688 -0.0007 0.79358 0.0
H159 H 0.32544 0.93922 0.84895 0.0
H160 H 0.13725 0.04587 0.87025 0.0
H161 H 0.10288 0.89165 0.87242 0.0
H162 H 0.41218 0.1097 0.85639 0.0
H163 H 0.18846 0.92337 0.75635 0.0
H164 H 0.31826 0.86288 0.81346 0.0
C165 C 0.06338 0.17632 0.36931 0.0
C166 C 0.06891 0.12496 0.3693 0.0
N167 N 0.02281 0.10409 0.36948 0.0
N168 N 0.01408 0.18773 0.36896 0.0
C169 C 0.99033 0.143 0.36948 0.0
H170 H 0.09322 0.20375 0.36976 0.0
Co171 Co 0.98615 0.25203 0.36906 0.0
C172 C 0.90535 0.23302 0.31001 0.0
O173 O 0.92263 0.27038 0.28916 0.0
N174 N 0.95847 0.31716 0.37113 0.0
C175 C 0.91451 0.38793 0.36606 0.0
C176 C 0.91439 0.33695 0.35938 0.0
C177 C 0.98272 0.35629 0.3874 0.0
N178 N 0.95814 0.40021 0.3832 0.0
O179 O 0.96124 0.2397 0.4199 0.0
H180 H 0.88379 0.31643 0.34661 0.0
H181 H 0.01876 0.3527 0.40137 0.0
O182 O 0.92475 0.22415 0.34316 0.0
C183 C -0.0005 0.24689 0.44157 0.0
O184 O 0.04177 0.26116 0.42543 0.0
N185 N 0.01866 0.2654 0.32175 0.0
C186 C 0.10653 0.25584 0.27994 0.0
C187 C 0.06554 0.22457 0.27198 0.0
C188 C 0.02184 0.22953 0.2937 0.0
C189 C 0.05527 0.30121 0.32451 0.0
C190 C 0.09958 0.29724 0.30369 0.0
H191 H -0.005 0.19919 0.29243 0.0
H192 H 0.05528 0.32806 0.3473 0.0
H193 H 0.94992 0.13903 0.36959 0.0
H194 H 0.10411 0.10465 0.36989 0.0
H195 H 0.88551 0.41402 0.35739 0.0
H196 H 0.07009 0.19153 0.25414 0.0
H197 H 0.13082 0.32164 0.31072 0.0
C198 C 0.82135 0.06213 0.87091 0.0
C199 C 0.8727 0.06762 0.87072 0.0
N200 N 0.89352 0.02149 0.87065 0.0
N201 N 0.8099 0.01282 0.87042 0.0
C202 C 0.8546 0.98902 0.8707 0.0
H203 H 0.79396 0.092 0.87148 0.0
Co204 Co 0.74554 0.98502 0.87027 0.0
C205 C 0.76461 0.90402 0.81135 0.0
O206 O 0.72728 0.92126 0.79051 0.0
N207 N 0.68033 0.95749 0.87205 0.0
C208 C 0.6097 0.91333 0.86688 0.0
C209 C 0.66074 0.91319 0.86055 0.0
C210 C 0.64096 0.98192 0.88786 0.0
N211 N 0.59715 0.9572 0.88358 0.0
O212 O 0.75735 0.96009 0.92116 0.0
H213 H 0.68147 0.88239 0.84825 0.0
H214 H 0.64433 0.01808 0.9017 0.0
O215 O 0.77346 0.92352 0.84447 0.0
C216 C 0.74987 -0.00156 0.94271 0.0
O217 O 0.73572 0.04065 0.9264 0.0
N218 N 0.73272 0.01759 0.82293 0.0
C219 C 0.74316 0.1053 0.78098 0.0
C220 C 0.77407 0.06401 0.77312 0.0
C221 C 0.76869 0.02041 0.79492 0.0
C222 C 0.69731 0.0546 0.82568 0.0
C223 C 0.70174 0.09883 0.80481 0.0
H224 H 0.79881 0.99332 0.79372 0.0
H225 H 0.67051 0.05493 0.84852 0.0
H226 H 0.85855 0.9486 0.87056 0.0
H227 H 0.89303 0.10281 0.87128 0.0
H228 H 0.58377 0.88413 0.85833 0.0
H229 H 0.80715 0.06821 0.75526 0.0
H230 H 0.67765 0.13034 0.81179 0.0
C231 C 0.93404 0.82298 0.37317 0.0
C232 C 0.92851 0.87433 0.37296 0.0
N233 N 0.97458 0.89523 0.37171 0.0
N234 N 0.98329 0.81157 0.37174 0.0
C235 C 0.00705 0.85631 0.37127 0.0
H236 H 0.9042 0.79556 0.37416 0.0
Co237 Co 0.01094 0.74716 0.37122 0.0
C238 C 0.09113 0.76644 0.31164 0.0
O239 O 0.07358 0.72921 0.29082 0.0
N240 N 0.03836 0.68186 0.37259 0.0
C241 C 0.08227 0.61114 0.36677 0.0
C242 C 0.08242 0.66224 0.3606 0.0
C243 C 0.0141 0.64244 0.38851 0.0
N244 N 0.03865 0.59858 0.38385 0.0
O245 O 0.03656 0.75872 0.42193 0.0
H246 H 0.11306 0.68298 0.34806 0.0
H247 H 0.97817 0.64579 0.4027 0.0
O248 O 0.07209 0.77511 0.34495 0.0
C249 C -0.00155 0.75106 0.44372 0.0
O250 O 0.95612 0.73691 0.42765 0.0
N251 N 0.97766 0.73459 0.32417 0.0
C252 C 0.88934 0.74546 0.28315 0.0
C253 C 0.93058 0.77627 0.27492 0.0
C254 C 0.97451 0.77068 0.29625 0.0
C255 C 0.94055 0.69935 0.32729 0.0
C256 C 0.896 0.70401 0.30691 0.0
H257 H 0.00167 0.8007 0.2948 0.0
H258 H 0.94048 0.67252 0.35011 0.0
H259 H 0.04746 0.86029 0.37124 0.0
H260 H 0.89328 0.89458 0.37319 0.0
H261 H 0.11128 0.5852 0.35785 0.0
H262 H 0.9262 0.8094 0.25712 0.0
H263 H 0.86452 0.68002 0.3142 0.0
C264 C 0.23921 0.0438 0.04519 0.0
C265 C 0.24019 -0.00171 0.06606 0.0
H266 H 0.23975 0.07948 0.98986 0.0
C267 C 0.23887 0.95291 0.04588 0.0
H268 H 0.23966 0.07962 0.05992 0.0
C269 C 0.23912 0.95305 1.00569 0.0
C270 C 0.24026 -0.00144 0.98482 0.0
H271 H 0.23943 0.91737 0.06103 0.0
H272 H 0.23948 0.91724 0.99096 0.0
C273 C 0.23904 0.04395 1.00501 0.0
C274 C 0.95338 0.23914 0.50431 0.0
C275 C -0.00143 0.24085 0.48387 0.0
H276 H 0.91817 0.23906 0.55942 0.0
C277 C 0.04424 0.23984 0.50448 0.0
H278 H 0.91773 0.23971 0.48936 0.0
C279 C 0.04472 0.23927 0.54467 0.0
C280 C -0.0005 0.24011 0.56511 0.0
H281 H 0.07992 0.24059 0.48955 0.0
H282 H 0.08035 0.23998 0.55963 0.0
C283 C 0.95385 0.23898 0.54449 0.0
C284 C 0.75665 0.04424 0.04568 0.0
C285 C 0.75539 -0.00085 0.06628 0.0
H286 H 0.75606 0.07912 0.99044 0.0
C287 C 0.75652 0.95334 0.04583 0.0
H288 H 0.75595 0.07999 0.0605 0.0
C289 C 0.75679 0.95262 1.00565 0.0
C290 C 0.7555 -0.00228 0.98504 0.0
H291 H 0.75614 0.91774 0.06088 0.0
H292 H 0.75621 0.91688 0.99082 0.0
C293 C 0.75648 0.04352 1.0055 0.0
C294 C 0.9539 0.75763 0.50674 0.0
C295 C -0.00046 0.75649 0.48606 0.0
H296 H 0.91782 0.75693 0.56191 0.0
C297 C 0.04477 0.75734 0.50645 0.0
H298 H 0.91821 0.75756 0.49185 0.0
C299 C 0.04432 0.75678 0.54663 0.0
C300 C -0.00134 0.75579 0.5673 0.0
H301 H 0.08039 0.75662 0.49144 0.0
H302 H 0.08 0.75604 0.56152 0.0
C303 C 0.95346 0.7575 0.54692 0.0
C304 C 0.18071 0.21688 0.30978 0.0
C305 C 0.15702 0.23435 0.2762 0.0
H306 H 0.23003 0.16154 0.33385 0.0
C307 C 0.17501 0.21928 0.24033 0.0
H308 H 0.1674 0.22828 0.33782 0.0
C309 C 0.21272 0.18315 0.2382 0.0
C310 C 0.23087 0.16018 0.27186 0.0
H311 H 0.15701 0.2321 0.21422 0.0
H312 H 0.22346 0.16918 0.2102 0.0
C313 C 0.21665 0.17899 0.30767 0.0
C314 C 0.78284 0.17943 0.81035 0.0
C315 C 0.76499 0.15562 0.77695 0.0
H316 H 0.83839 0.2289 0.83392 0.0
C317 C 0.77982 0.17333 0.74093 0.0
H318 H 0.77168 0.16628 0.8385 0.0
C319 C 0.81599 0.21097 0.73846 0.0
C320 C 0.8392 0.22938 0.77192 0.0
H321 H 0.76672 0.15519 0.71496 0.0
H322 H 0.82976 0.22151 0.71034 0.0
C323 C 0.82073 0.21535 0.80789 0.0
C324 C 0.7828 0.81731 0.24095 0.0
C325 C 0.76488 0.84113 0.27434 0.0
H326 H 0.83834 0.76778 0.21742 0.0
C327 C 0.77962 0.82342 0.31037 0.0
H328 H 0.77173 0.83048 0.2128 0.0
C329 C 0.81576 0.78575 0.31287 0.0
C330 C 0.83902 0.76731 0.27942 0.0
H331 H 0.76648 0.84157 0.33633 0.0
H332 H 0.82947 0.77522 0.34099 0.0
C333 C 0.82064 0.78135 0.24343 0.0
C334 C 0.21685 0.81771 0.74332 0.0
C335 C 0.23097 0.83656 0.77913 0.0
H336 H 0.1677 0.76836 0.71318 0.0
C337 C 0.21277 0.81361 0.8128 0.0
H338 H 0.23028 0.83514 0.71715 0.0
C339 C 0.17511 0.77742 0.81067 0.0
C340 C 0.1572 0.76231 0.7748 0.0
H341 H 0.22345 0.82762 0.84079 0.0
H342 H 0.15707 0.76461 0.83679 0.0
C343 C 0.18094 0.77977 0.74122 0.0
C344 C 0.83772 0.82971 0.73621 0.0
C345 C 0.86831 0.79865 0.75885 0.0
H346 H 0.7805 0.88629 0.73502 0.0
C347 C 0.86426 0.80229 0.79917 0.0
H348 H 0.84003 0.82813 0.70519 0.0
C349 C 0.83094 0.83644 0.81639 0.0
C350 C 0.79981 0.86694 0.79375 0.0
H351 H 0.88768 0.77937 0.81759 0.0
H352 H 0.82935 0.83873 0.84742 0.0
C353 C 0.80348 0.86292 0.75343 0.0
C354 C 0.16517 0.83931 0.23612 0.0
C355 C 0.19584 0.87044 0.2586 0.0
H356 H 0.10911 0.78157 0.2352 0.0
C357 C 0.19204 0.86684 0.29894 0.0
H358 H 0.16688 0.84125 0.20508 0.0
C359 C 0.15813 0.83341 0.31633 0.0
C360 C 0.12801 0.80172 0.29385 0.0
H361 H 0.21465 0.89069 0.31724 0.0
H362 H 0.15571 0.83218 0.34736 0.0
C363 C 0.13218 0.80497 0.25351 0.0
C364 C 0.13205 0.19141 0.79749 0.0
C365 C 0.12813 0.1949 0.75715 0.0
H366 H 0.16662 0.15499 0.84587 0.0
C367 C 0.15851 0.16349 0.73464 0.0
H368 H 0.10875 0.21457 0.81582 0.0
C369 C 0.19248 0.13012 0.75198 0.0
C370 C 0.19607 0.1263 0.79232 0.0
H371 H 0.15627 0.16491 0.7036 0.0
H372 H 0.21532 0.10649 0.73366 0.0
C373 C 0.1651 0.15712 0.81484 0.0
C374 C 0.80302 0.13402 0.29788 0.0
C375 C 0.79961 0.12976 0.25756 0.0
H376 H 0.8394 0.16895 0.34611 0.0
C377 C 0.83108 0.15994 0.23491 0.0
H378 H 0.77979 0.1109 0.31631 0.0
C379 C 0.86446 0.19402 0.25211 0.0
C380 C 0.86821 0.19792 0.29243 0.0
H381 H 0.82972 0.15744 0.20389 0.0
H382 H 0.88814 0.21669 0.23369 0.0
C383 C 0.83732 0.16717 0.31509 0.0
C384 C 0.03239 0.9658 0.16509 0.0
C385 C 0.04935 0.01167 0.18026 0.0
H386 H 0.96952 0.91866 0.15274 0.0
C387 C 0.01408 0.04532 0.1957 0.0
H388 H 0.05844 0.93938 0.15245 0.0
C389 C 0.963 0.03339 0.19591 0.0
C390 C 0.94601 0.98757 0.1806 0.0
H391 H 0.02599 0.08056 0.20819 0.0
H392 H 0.93696 0.0598 0.20859 0.0
C393 C 0.98134 0.9539 0.16526 0.0
C394 C 0.95363 0.0131 0.66462 0.0
C395 C 0.98682 0.0486 0.68029 0.0
H396 H 0.93944 0.93582 0.65219 0.0
C397 C 0.0321 0.03178 0.69659 0.0
H398 H 0.91882 0.02479 0.65135 0.0
C399 C 0.04396 0.98067 0.69704 0.0
C400 C 0.01079 0.94521 0.68128 0.0
H401 H 0.05811 0.05799 0.70954 0.0
H402 H 0.07877 0.96889 0.71029 0.0
C403 C 0.96547 0.96202 0.66511 0.0
C404 C 0.96318 0.96381 0.88651 0.0
C405 C 0.94621 0.00927 0.87062 0.0
H406 H 0.02605 0.91699 0.89958 0.0
C407 C 0.98148 0.0425 0.85463 0.0
H408 H 0.93712 0.93772 0.89958 0.0
C409 C 0.03255 0.03057 0.85458 0.0
C410 C 0.04954 0.98516 0.87061 0.0
H411 H 0.96956 0.07742 0.84158 0.0
H412 H 0.0586 0.05664 0.84147 0.0
C413 C 0.01422 0.9519 0.8865 0.0
C414 C 0.03202 0.9648 0.3547 0.0
C415 C 0.98671 0.94797 0.37099 0.0
H416 H 0.0787 0.02769 0.34098 0.0
C417 C 0.95347 0.98348 0.38662 0.0
H418 H 0.05807 0.93859 0.34179 0.0
C419 C 0.96529 0.03456 0.3861 0.0
C420 C 0.01065 0.05137 0.36995 0.0
H421 H 0.91863 0.97179 0.39988 0.0
H422 H 0.93922 0.06077 0.399 0.0
C423 C 0.04386 0.01591 0.35422 0.0
C424 C 0.45648 0.03164 0.16103 0.0
C425 C 0.44837 0.97936 0.1624 0.0
H426 H 0.50978 0.09168 0.16078 0.0
C427 C 0.49028 0.94737 0.16157 0.0
H428 H 0.42543 0.05775 0.16188 0.0
C429 C 0.53893 0.96705 0.16161 0.0
C430 C 0.54703 0.01935 0.16229 0.0
H431 H 0.48563 0.90702 0.16201 0.0
H432 H 0.56997 0.94096 0.16292 0.0
C433 C 0.50513 0.05131 0.16088 0.0
C434 C 0.03071 0.53853 0.66111 0.0
C435 C 0.97842 0.54653 0.66216 0.0
H436 H 0.09082 0.48532 0.661 0.0
C437 C 0.94654 0.50456 0.66087 0.0
H438 H 0.05675 0.56963 0.66231 0.0
C439 C 0.96629 0.45593 0.66079 0.0
C440 C 0.01858 0.44791 0.66181 0.0
H441 H 0.90618 0.50914 0.66106 0.0
H442 H 0.94025 0.42482 0.66176 0.0
C443 C 0.05047 0.4899 0.66083 0.0
C444 C 0.49049 0.04932 0.88951 0.0
C445 C 0.44858 0.01733 0.88861 0.0
H446 H 0.57018 0.05574 0.88833 0.0
C447 C 0.45668 0.96506 0.89004 0.0
H448 H 0.48583 0.08968 0.88903 0.0
C449 C 0.50532 0.94538 0.89031 0.0
C450 C 0.54723 0.97735 0.88897 0.0
H451 H 0.42562 0.93895 0.88914 0.0
H452 H 0.50997 0.90502 0.89044 0.0
C453 C 0.53913 0.02965 0.8896 0.0
C454 C 0.03061 0.45805 0.38995 0.0
C455 C 0.97832 0.45005 0.38897 0.0
H456 H 0.09073 0.51125 0.38998 0.0
C457 C 0.94644 0.49202 0.39031 0.0
H458 H 0.05664 0.42695 0.38871 0.0
C459 C 0.96621 0.54065 0.39036 0.0
C460 C 0.01849 0.54866 0.38928 0.0
H461 H 0.90609 0.48744 0.39017 0.0
H462 H 0.94017 0.57177 0.38943 0.0
C463 C 0.05038 0.50667 0.3902 0.0
loop_
_geom_bond_atom_site_label_1
_geom_bond_atom_site_label_2
_geom_bond_distance
_geom_bond_site_symmetry_2
_ccdc_geom_bond_type
C0 C1 1.351 . S
C0 N3 1.368 1_545 S
C0 H5 0.931 . S
C1 C0 1.351 . S
C1 N2 1.373 1_545 S
C1 H29 0.930 . S
N2 C1 1.373 1_565 S
N2 C4 1.340 . S
N3 C0 1.368 1_565 S
N3 C4 1.321 . S
N3 Co6 2.135 . S
C4 N2 1.340 . S
C4 N3 1.321 . S
C4 H28 0.930 . S
H5 C0 0.931 . S
Co6 N3 2.135 . S
Co6 N9 2.121 . S
Co6 O14 2.055 . S
Co6 O17 2.039 . S
Co6 N20 2.140 1_565 S
C7 O8 1.227 . S
C7 O17 1.265 . S
O8 C7 1.227 . S
N9 Co6 2.121 . S
N9 C11 1.375 . S
N9 C12 1.313 . S
C10 C11 1.338 . S
C10 N13 1.377 . S
C10 H30 0.930 . S
C11 N9 1.375 . S
C11 C10 1.338 . S
C11 H15 0.931 . S
C12 N9 1.313 . S
C12 N13 1.344 . S
C12 H16 0.930 . S
N13 C10 1.377 . S
N13 C12 1.344 . S
O14 Co6 2.055 . S
O14 C18 1.253 1_565 S
H15 C11 0.931 . S
H16 C12 0.930 . S
O17 Co6 2.039 . S
O17 C7 1.265 . S
C18 O14 1.253 1_545 S
C18 O19 1.227 . S
O19 C18 1.227 . S
N20 Co6 2.140 1_545 S
N20 C23 1.346 . S
N20 C24 1.345 . S
C21 C22 1.387 . S
C21 C25 1.391 . S
C22 C21 1.387 . S
C22 C23 1.369 . S
C22 H31 0.929 . S
C23 N20 1.346 . S
C23 C22 1.369 . S
C23 H26 0.928 . S
C24 N20 1.345 . S
C24 C25 1.371 . S
C24 H27 0.931 . S
C25 C21 1.391 . S
C25 C24 1.371 . S
C25 H32 0.930 . S
H26 C23 0.928 . S
H27 C24 0.931 . S
H28 C4 0.930 . S
H29 C1 0.930 . S
H30 C10 0.930 . S
H31 C22 0.929 . S
H32 C25 0.930 . S
C33 C34 1.351 . S
C33 N36 1.368 1_655 S
C33 H38 0.931 . S
C34 C33 1.351 . S
C34 N35 1.373 1_655 S
C34 H62 0.930 . S
N35 C34 1.373 1_455 S
N35 C37 1.340 . S
N36 C33 1.368 1_455 S
N36 C37 1.321 . S
N36 Co39 2.135 . S
C37 N35 1.340 . S
C37 N36 1.321 . S
C37 H61 0.930 . S
H38 C33 0.931 . S
Co39 N36 2.135 . S
Co39 N42 2.121 . S
Co39 O47 2.055 . S
Co39 O50 2.039 . S
Co39 N53 2.140 1_455 S
C40 O41 1.227 . S
C40 O50 1.265 . S
O41 C40 1.227 . S
N42 Co39 2.121 . S
N42 C44 1.375 . S
N42 C45 1.313 . S
C43 C44 1.338 . S
C43 N46 1.377 . S
C43 H63 0.930 . S
C44 N42 1.375 . S
C44 C43 1.338 . S
C44 H48 0.931 . S
C45 N42 1.313 . S
C45 N46 1.344 . S
C45 H49 0.930 . S
N46 C43 1.377 . S
N46 C45 1.344 . S
O47 Co39 2.055 . S
O47 C51 1.253 . S
H48 C44 0.931 . S
H49 C45 0.930 . S
O50 Co39 2.039 . S
O50 C40 1.265 . S
C51 O47 1.253 . S
C51 O52 1.227 1_455 S
O52 C51 1.227 1_655 S
N53 Co39 2.140 1_655 S
N53 C56 1.346 . S
N53 C57 1.345 . S
C54 C55 1.387 . S
C54 C58 1.391 . S
C55 C54 1.387 . S
C55 C56 1.369 . S
C55 H64 0.929 . S
C56 N53 1.346 . S
C56 C55 1.369 . S
C56 H59 0.928 . S
C57 N53 1.345 . S
C57 C58 1.371 . S
C57 H60 0.931 . S
C58 C54 1.391 . S
C58 C57 1.371 . S
C58 H65 0.930 . S
H59 C56 0.928 . S
H60 C57 0.931 . S
H61 C37 0.930 . S
H62 C34 0.930 . S
H63 C43 0.930 . S
H64 C55 0.929 . S
H65 C58 0.930 . S
C66 C67 1.351 . S
C66 N69 1.368 1_565 S
C66 H71 0.931 . S
C67 C66 1.351 . S
C67 N68 1.373 1_565 S
C67 H95 0.930 . S
N68 C67 1.373 1_545 S
N68 C70 1.340 . S
N69 C66 1.368 1_545 S
N69 C70 1.321 . S
N69 Co72 2.135 . S
C70 N68 1.340 . S
C70 N69 1.321 . S
C70 H94 0.930 . S
H71 C66 0.931 . S
Co72 N69 2.135 . S
Co72 N75 2.121 . S
Co72 O80 2.055 . S
Co72 O83 2.039 . S
Co72 N86 2.140 1_545 S
C73 O74 1.227 . S
C73 O83 1.265 . S
O74 C73 1.227 . S
N75 Co72 2.121 . S
N75 C77 1.375 . S
N75 C78 1.313 . S
C76 C77 1.338 . S
C76 N79 1.377 . S
C76 H96 0.930 . S
C77 N75 1.375 . S
C77 C76 1.338 . S
C77 H81 0.931 . S
C78 N75 1.313 . S
C78 N79 1.344 . S
C78 H82 0.930 . S
N79 C76 1.377 . S
N79 C78 1.344 . S
O80 Co72 2.055 . S
O80 C84 1.253 . S
H81 C77 0.931 . S
H82 C78 0.930 . S
O83 Co72 2.039 . S
O83 C73 1.265 . S
C84 O80 1.253 . S
C84 O85 1.227 1_545 S
O85 C84 1.227 1_565 S
N86 Co72 2.140 1_565 S
N86 C89 1.346 . S
N86 C90 1.345 . S
C87 C88 1.387 . S
C87 C91 1.391 . S
C88 C87 1.387 . S
C88 C89 1.369 . S
C88 H97 0.929 . S
C89 N86 1.346 . S
C89 C88 1.369 . S
C89 H92 0.928 . S
C90 N86 1.345 . S
C90 C91 1.371 . S
C90 H93 0.931 . S
C91 C87 1.391 . S
C91 C90 1.371 . S
C91 H98 0.930 . S
H92 C89 0.928 . S
H93 C90 0.931 . S
H94 C70 0.930 . S
H95 C67 0.930 . S
H96 C76 0.930 . S
H97 C88 0.929 . S
H98 C91 0.930 . S
C99 C100 1.351 . S
C99 N102 1.368 1_455 S
C99 H104 0.931 . S
C100 C99 1.351 . S
C100 N101 1.373 1_455 S
C100 H128 0.930 . S
N101 C100 1.373 1_655 S
N101 C103 1.340 . S
N102 C99 1.368 1_655 S
N102 C103 1.321 . S
N102 Co105 2.135 . S
C103 N101 1.340 . S
C103 N102 1.321 . S
C103 H127 0.930 . S
H104 C99 0.931 . S
Co105 N102 2.135 . S
Co105 N108 2.121 . S
Co105 O113 2.055 . S
Co105 O116 2.039 . S
Co105 N119 2.140 1_655 S
C106 O107 1.227 . S
C106 O116 1.265 . S
O107 C106 1.227 . S
N108 Co105 2.121 . S
N108 C110 1.375 . S
N108 C111 1.313 . S
C109 C110 1.338 . S
C109 N112 1.377 . S
C109 H129 0.930 . S
C110 N108 1.375 . S
C110 C109 1.338 . S
C110 H114 0.931 . S
C111 N108 1.313 . S
C111 N112 1.344 . S
C111 H115 0.930 . S
N112 C109 1.377 . S
N112 C111 1.344 . S
O113 Co105 2.055 . S
O113 C117 1.253 1_655 S
H114 C110 0.931 . S
H115 C111 0.930 . S
O116 Co105 2.039 . S
O116 C106 1.265 . S
C117 O113 1.253 1_455 S
C117 O118 1.227 . S
O118 C117 1.227 . S
N119 Co105 2.140 1_455 S
N119 C122 1.346 . S
N119 C123 1.345 . S
C120 C121 1.387 . S
C120 C124 1.391 . S
C121 C120 1.387 . S
C121 C122 1.369 . S
C121 H130 0.929 . S
C122 N119 1.346 . S
C122 C121 1.369 . S
C122 H125 0.928 . S
C123 N119 1.345 . S
C123 C124 1.371 . S
C123 H126 0.931 . S
C124 C120 1.391 . S
C124 C123 1.371 . S
C124 H131 0.930 . S
H125 C122 0.928 . S
H126 C123 0.931 . S
H127 C103 0.930 . S
H128 C100 0.930 . S
H129 C109 0.930 . S
H130 C121 0.929 . S
H131 C124 0.930 . S
C132 C133 1.351 . S
C132 N135 1.368 1_565 S
C132 H137 0.931 . S
C133 C132 1.351 . S
C133 N134 1.373 1_565 S
C133 H161 0.930 . S
N134 C133 1.373 1_545 S
N134 C136 1.340 . S
N135 C132 1.368 1_545 S
N135 C136 1.321 . S
N135 Co138 2.135 . S
C136 N134 1.340 . S
C136 N135 1.321 . S
C136 H160 0.930 . S
H137 C132 0.931 . S
Co138 N135 2.135 . S
Co138 N141 2.121 . S
Co138 O146 2.055 . S
Co138 O149 2.039 . S
Co138 N152 2.140 1_545 S
C139 O140 1.227 . S
C139 O149 1.265 . S
O140 C139 1.227 . S
N141 Co138 2.121 . S
N141 C143 1.375 . S
N141 C144 1.313 . S
C142 C143 1.338 . S
C142 N145 1.377 . S
C142 H162 0.930 . S
C143 N141 1.375 . S
C143 C142 1.338 . S
C143 H147 0.931 . S
C144 N141 1.313 . S
C144 N145 1.344 . S
C144 H148 0.930 . S
N145 C142 1.377 . S
N145 C144 1.344 . S
O146 Co138 2.055 . S
O146 C150 1.253 . S
H147 C143 0.931 . S
H148 C144 0.930 . S
O149 Co138 2.039 . S
O149 C139 1.265 . S
C150 O146 1.253 . S
C150 O151 1.227 1_545 S
O151 C150 1.227 1_565 S
N152 Co138 2.140 1_565 S
N152 C155 1.346 . S
N152 C156 1.345 . S
C153 C154 1.387 . S
C153 C157 1.391 . S
C154 C153 1.387 . S
C154 C155 1.369 . S
C154 H163 0.929 . S
C155 N152 1.346 . S
C155 C154 1.369 . S
C155 H158 0.928 . S
C156 N152 1.345 . S
C156 C157 1.371 . S
C156 H159 0.931 . S
C157 C153 1.391 . S
C157 C156 1.371 . S
C157 H164 0.930 . S
H158 C155 0.928 . S
H159 C156 0.931 . S
H160 C136 0.930 . S
H161 C133 0.930 . S
H162 C142 0.930 . S
H163 C154 0.929 . S
H164 C157 0.930 . S
C165 C166 1.351 . S
C165 N168 1.368 1_455 S
C165 H170 0.931 . S
C166 C165 1.351 . S
C166 N167 1.373 1_455 S
C166 H194 0.930 . S
N167 C166 1.373 1_655 S
N167 C169 1.340 . S
N168 C165 1.368 1_655 S
N168 C169 1.321 . S
N168 Co171 2.135 . S
C169 N167 1.340 . S
C169 N168 1.321 . S
C169 H193 0.930 . S
H170 C165 0.931 . S
Co171 N168 2.135 . S
Co171 N174 2.121 . S
Co171 O179 2.055 . S
Co171 O182 2.039 . S
Co171 N185 2.140 1_655 S
C172 O173 1.227 . S
C172 O182 1.265 . S
O173 C172 1.227 . S
N174 Co171 2.121 . S
N174 C176 1.375 . S
N174 C177 1.313 . S
C175 C176 1.338 . S
C175 N178 1.377 . S
C175 H195 0.930 . S
C176 N174 1.375 . S
C176 C175 1.338 . S
C176 H180 0.931 . S
C177 N174 1.313 . S
C177 N178 1.344 . S
C177 H181 0.930 . S
N178 C175 1.377 . S
N178 C177 1.344 . S
O179 Co171 2.055 . S
O179 C183 1.253 1_655 S
H180 C176 0.931 . S
H181 C177 0.930 . S
O182 Co171 2.039 . S
O182 C172 1.265 . S
C183 O179 1.253 1_455 S
C183 O184 1.227 . S
O184 C183 1.227 . S
N185 Co171 2.140 1_455 S
N185 C188 1.346 . S
N185 C189 1.345 . S
C186 C187 1.387 . S
C186 C190 1.391 . S
C187 C186 1.387 . S
C187 C188 1.369 . S
C187 H196 0.929 . S
C188 N185 1.346 . S
C188 C187 1.369 . S
C188 H191 0.928 . S
C189 N185 1.345 . S
C189 C190 1.371 . S
C189 H192 0.931 . S
C190 C186 1.391 . S
C190 C189 1.371 . S
C190 H197 0.930 . S
H191 C188 0.928 . S
H192 C189 0.931 . S
H193 C169 0.930 . S
H194 C166 0.930 . S
H195 C175 0.930 . S
H196 C187 0.929 . S
H197 C190 0.930 . S
C198 C199 1.351 . S
C198 N201 1.368 1_545 S
C198 H203 0.931 . S
C199 C198 1.351 . S
C199 N200 1.373 1_545 S
C199 H227 0.930 . S
N200 C199 1.373 1_565 S
N200 C202 1.340 . S
N201 C198 1.368 1_565 S
N201 C202 1.321 . S
N201 Co204 2.135 . S
C202 N200 1.340 . S
C202 N201 1.321 . S
C202 H226 0.930 . S
H203 C198 0.931 . S
Co204 N201 2.135 . S
Co204 N207 2.121 . S
Co204 O212 2.055 . S
Co204 O215 2.039 . S
Co204 N218 2.140 1_565 S
C205 O206 1.227 . S
C205 O215 1.265 . S
O206 C205 1.227 . S
N207 Co204 2.121 . S
N207 C209 1.375 . S
N207 C210 1.313 . S
C208 C209 1.338 . S
C208 N211 1.377 . S
C208 H228 0.930 . S
C209 N207 1.375 . S
C209 C208 1.338 . S
C209 H213 0.931 . S
C210 N207 1.313 . S
C210 N211 1.344 . S
C210 H214 0.930 . S
N211 C208 1.377 . S
N211 C210 1.344 . S
O212 Co204 2.055 . S
O212 C216 1.253 1_565 S
H213 C209 0.931 . S
H214 C210 0.930 . S
O215 Co204 2.039 . S
O215 C205 1.265 . S
C216 O212 1.253 1_545 S
C216 O217 1.227 . S
O217 C216 1.227 . S
N218 Co204 2.140 1_545 S
N218 C221 1.346 . S
N218 C222 1.345 . S
C219 C220 1.387 . S
C219 C223 1.391 . S
C220 C219 1.387 . S
C220 C221 1.369 . S
C220 H229 0.929 . S
C221 N218 1.346 . S
C221 C220 1.369 . S
C221 H224 0.928 . S
C222 N218 1.345 . S
C222 C223 1.371 . S
C222 H225 0.931 . S
C223 C219 1.391 . S
C223 C222 1.371 . S
C223 H230 0.930 . S
H224 C221 0.928 . S
H225 C222 0.931 . S
H226 C202 0.930 . S
H227 C199 0.930 . S
H228 C208 0.930 . S
H229 C220 0.929 . S
H230 C223 0.930 . S
C231 C232 1.351 . S
C231 N234 1.368 1_655 S
C231 H236 0.931 . S
C232 C231 1.351 . S
C232 N233 1.373 1_655 S
C232 H260 0.930 . S
N233 C232 1.373 1_455 S
N233 C235 1.340 . S
N234 C231 1.368 1_455 S
N234 C235 1.321 . S
N234 Co237 2.135 . S
C235 N233 1.340 . S
C235 N234 1.321 . S
C235 H259 0.930 . S
H236 C231 0.931 . S
Co237 N234 2.135 . S
Co237 N240 2.121 . S
Co237 O245 2.055 . S
Co237 O248 2.039 . S
Co237 N251 2.140 1_455 S
C238 O239 1.227 . S
C238 O248 1.265 . S
O239 C238 1.227 . S
N240 Co237 2.121 . S
N240 C242 1.375 . S
N240 C243 1.313 . S
C241 C242 1.338 . S
C241 N244 1.377 . S
C241 H261 0.930 . S
C242 N240 1.375 . S
C242 C241 1.338 . S
C242 H246 0.931 . S
C243 N240 1.313 . S
C243 N244 1.344 . S
C243 H247 0.930 . S
N244 C241 1.377 . S
N244 C243 1.344 . S
O245 Co237 2.055 . S
O245 C249 1.253 . S
H246 C242 0.931 . S
H247 C243 0.930 . S
O248 Co237 2.039 . S
O248 C238 1.265 . S
C249 O245 1.253 . S
C249 O250 1.227 1_455 S
O250 C249 1.227 1_655 S
N251 Co237 2.140 1_655 S
N251 C254 1.346 . S
N251 C255 1.345 . S
C252 C253 1.387 . S
C252 C256 1.391 . S
C253 C252 1.387 . S
C253 C254 1.369 . S
C253 H262 0.929 . S
C254 N251 1.346 . S
C254 C253 1.369 . S
C254 H257 0.928 . S
C255 N251 1.345 . S
C255 C256 1.371 . S
C255 H258 0.931 . S
C256 C252 1.391 . S
C256 C255 1.371 . S
C256 H263 0.930 . S
H257 C254 0.928 . S
H258 C255 0.931 . S
H259 C235 0.930 . S
H260 C232 0.930 . S
H261 C241 0.930 . S
H262 C253 0.929 . S
H263 C256 0.930 . S
C264 C265 1.387 . S
C264 H268 0.950 . S
C264 C273 1.390 1_554 S
C265 C264 1.387 . S
C265 C267 1.387 . S
H266 C273 0.950 . S
C267 C265 1.387 . S
C267 C269 1.390 1_554 S
C267 H271 0.950 . S
H268 C264 0.950 . S
C269 C267 1.390 1_556 S
C269 C270 1.387 . S
C269 H272 0.950 . S
C270 C269 1.387 . S
C270 C273 1.387 . S
H271 C267 0.950 . S
H272 C269 0.950 . S
C273 C264 1.390 1_556 S
C273 H266 0.950 . S
C273 C270 1.387 . S
C274 C275 1.387 . S
C274 H278 0.950 . S
C274 C283 1.390 . S
C275 C274 1.387 . S
C275 C277 1.387 . S
H276 C283 0.950 . S
C277 C275 1.387 . S
C277 C279 1.390 . S
C277 H281 0.950 . S
H278 C274 0.950 . S
C279 C277 1.390 . S
C279 C280 1.387 . S
C279 H282 0.950 . S
C280 C279 1.387 . S
C280 C283 1.387 . S
H281 C277 0.950 . S
H282 C279 0.950 . S
C283 C274 1.390 . S
C283 H276 0.950 . S
C283 C280 1.387 . S
C284 C285 1.387 . S
C284 H288 0.950 . S
C284 C293 1.390 1_554 S
C285 C284 1.387 . S
C285 C287 1.387 . S
H286 C293 0.950 . S
C287 C285 1.387 . S
C287 C289 1.390 1_554 S
C287 H291 0.950 . S
H288 C284 0.950 . S
C289 C287 1.390 1_556 S
C289 C290 1.387 . S
C289 H292 0.950 . S
C290 C289 1.387 . S
C290 C293 1.387 . S
H291 C287 0.950 . S
H292 C289 0.950 . S
C293 C284 1.390 1_556 S
C293 H286 0.950 . S
C293 C290 1.387 . S
C294 C295 1.387 . S
C294 H298 0.950 . S
C294 C303 1.390 . S
C295 C294 1.387 . S
C295 C297 1.387 . S
H296 C303 0.950 . S
C297 C295 1.387 . S
C297 C299 1.390 . S
C297 H301 0.950 . S
H298 C294 0.950 . S
C299 C297 1.390 . S
C299 C300 1.387 . S
C299 H302 0.950 . S
C300 C299 1.387 . S
C300 C303 1.387 . S
H301 C297 0.950 . S
H302 C299 0.950 . S
C303 C294 1.390 . S
C303 H296 0.950 . S
C303 C300 1.387 . S
C304 C305 1.387 . S
C304 H308 0.950 . S
C304 C313 1.390 . S
C305 C304 1.387 . S
C305 C307 1.387 . S
H306 C313 0.950 . S
C307 C305 1.387 . S
C307 C309 1.390 . S
C307 H311 0.950 . S
H308 C304 0.950 . S
C309 C307 1.390 . S
C309 C310 1.387 . S
C309 H312 0.950 . S
C310 C309 1.387 . S
C310 C313 1.387 . S
H311 C307 0.950 . S
H312 C309 0.950 . S
C313 C304 1.390 . S
C313 H306 0.950 . S
C313 C310 1.387 . S
C314 C315 1.387 . S
C314 H318 0.950 . S
C314 C323 1.390 . S
C315 C314 1.387 . S
C315 C317 1.387 . S
H316 C323 0.950 . S
C317 C315 1.387 . S
C317 C319 1.390 . S
C317 H321 0.950 . S
H318 C314 0.950 . S
C319 C317 1.390 . S
C319 C320 1.387 . S
C319 H322 0.950 . S
C320 C319 1.387 . S
C320 C323 1.387 . S
H321 C317 0.950 . S
H322 C319 0.950 . S
C323 C314 1.390 . S
C323 H316 0.950 . S
C323 C320 1.387 . S
C324 C325 1.387 . S
C324 H328 0.950 . S
C324 C333 1.390 . S
C325 C324 1.387 . S
C325 C327 1.387 . S
H326 C333 0.950 . S
C327 C325 1.387 . S
C327 C329 1.390 . S
C327 H331 0.950 . S
H328 C324 0.950 . S
C329 C327 1.390 . S
C329 C330 1.387 . S
C329 H332 0.950 . S
C330 C329 1.387 . S
C330 C333 1.387 . S
H331 C327 0.950 . S
H332 C329 0.950 . S
C333 C324 1.390 . S
C333 H326 0.950 . S
C333 C330 1.387 . S
C334 C335 1.387 . S
C334 H338 0.950 . S
C334 C343 1.390 . S
C335 C334 1.387 . S
C335 C337 1.387 . S
H336 C343 0.950 . S
C337 C335 1.387 . S
C337 C339 1.390 . S
C337 H341 0.950 . S
H338 C334 0.950 . S
C339 C337 1.390 . S
C339 C340 1.387 . S
C339 H342 0.950 . S
C340 C339 1.387 . S
C340 C343 1.387 . S
H341 C337 0.950 . S
H342 C339 0.950 . S
C343 C334 1.390 . S
C343 H336 0.950 . S
C343 C340 1.387 . S
C344 C345 1.387 . S
C344 H348 0.950 . S
C344 C353 1.390 . S
C345 C344 1.387 . S
C345 C347 1.387 . S
H346 C353 0.950 . S
C347 C345 1.387 . S
C347 C349 1.390 . S
C347 H351 0.950 . S
H348 C344 0.950 . S
C349 C347 1.390 . S
C349 C350 1.387 . S
C349 H352 0.950 . S
C350 C349 1.387 . S
C350 C353 1.387 . S
H351 C347 0.950 . S
H352 C349 0.950 . S
C353 C344 1.390 . S
C353 H346 0.950 . S
C353 C350 1.387 . S
C354 C355 1.387 . S
C354 H358 0.950 . S
C354 C363 1.390 . S
C355 C354 1.387 . S
C355 C357 1.387 . S
H356 C363 0.950 . S
C357 C355 1.387 . S
C357 C359 1.390 . S
C357 H361 0.950 . S
H358 C354 0.950 . S
C359 C357 1.390 . S
C359 C360 1.387 . S
C359 H362 0.950 . S
C360 C359 1.387 . S
C360 C363 1.387 . S
H361 C357 0.950 . S
H362 C359 0.950 . S
C363 C354 1.390 . S
C363 H356 0.950 . S
C363 C360 1.387 . S
C364 C365 1.387 . S
C364 H368 0.950 . S
C364 C373 1.390 . S
C365 C364 1.387 . S
C365 C367 1.387 . S
H366 C373 0.950 . S
C367 C365 1.387 . S
C367 C369 1.390 . S
C367 H371 0.950 . S
H368 C364 0.950 . S
C369 C367 1.390 . S
C369 C370 1.387 . S
C369 H372 0.950 . S
C370 C369 1.387 . S
C370 C373 1.387 . S
H371 C367 0.950 . S
H372 C369 0.950 . S
C373 C364 1.390 . S
C373 H366 0.950 . S
C373 C370 1.387 . S
C374 C375 1.387 . S
C374 H378 0.950 . S
C374 C383 1.390 . S
C375 C374 1.387 . S
C375 C377 1.387 . S
H376 C383 0.950 . S
C377 C375 1.387 . S
C377 C379 1.390 . S
C377 H381 0.950 . S
H378 C374 0.950 . S
C379 C377 1.390 . S
C379 C380 1.387 . S
C379 H382 0.950 . S
C380 C379 1.387 . S
C380 C383 1.387 . S
H381 C377 0.950 . S
H382 C379 0.950 . S
C383 C374 1.390 . S
C383 H376 0.950 . S
C383 C380 1.387 . S
C384 C385 1.387 . S
C384 H388 0.950 . S
C384 C393 1.390 1_465 S
C385 C384 1.387 . S
C385 C387 1.387 . S
H386 C393 0.950 . S
C387 C385 1.387 . S
C387 C389 1.390 1_465 S
C387 H391 0.950 . S
H388 C384 0.950 . S
C389 C387 1.390 1_645 S
C389 C390 1.387 . S
C389 H392 0.950 . S
C390 C389 1.387 . S
C390 C393 1.387 . S
H391 C387 0.950 . S
H392 C389 0.950 . S
C393 C384 1.390 1_645 S
C393 H386 0.950 . S
C393 C390 1.387 . S
C394 C395 1.387 . S
C394 H398 0.950 . S
C394 C403 1.390 1_445 S
C395 C394 1.387 . S
C395 C397 1.387 . S
H396 C403 0.950 . S
C397 C395 1.387 . S
C397 C399 1.390 1_445 S
C397 H401 0.950 . S
H398 C394 0.950 . S
C399 C397 1.390 1_665 S
C399 C400 1.387 . S
C399 H402 0.950 . S
C400 C399 1.387 . S
C400 C403 1.387 . S
H401 C397 0.950 . S
H402 C399 0.950 . S
C403 C394 1.390 1_665 S
C403 H396 0.950 . S
C403 C400 1.387 . S
C404 C405 1.387 . S
C404 H408 0.950 . S
C404 C413 1.390 1_665 S
C405 C404 1.387 . S
C405 C407 1.387 . S
H406 C413 0.950 . S
C407 C405 1.387 . S
C407 C409 1.390 1_665 S
C407 H411 0.950 . S
H408 C404 0.950 . S
C409 C407 1.390 1_445 S
C409 C410 1.387 . S
C409 H412 0.950 . S
C410 C409 1.387 . S
C410 C413 1.387 . S
H411 C407 0.950 . S
H412 C409 0.950 . S
C413 C404 1.390 1_445 S
C413 H406 0.950 . S
C413 C410 1.387 . S
C414 C415 1.387 . S
C414 H418 0.950 . S
C414 C423 1.390 1_465 S
C415 C414 1.387 . S
C415 C417 1.387 . S
H416 C423 0.950 . S
C417 C415 1.387 . S
C417 C419 1.390 1_465 S
C417 H421 0.950 . S
H418 C414 0.950 . S
C419 C417 1.390 1_645 S
C419 C420 1.387 . S
C419 H422 0.950 . S
C420 C419 1.387 . S
C420 C423 1.387 . S
H421 C417 0.950 . S
H422 C419 0.950 . S
C423 C414 1.390 1_645 S
C423 H416 0.950 . S
C423 C420 1.387 . S
C424 C425 1.387 . S
C424 H428 0.950 . S
C424 C433 1.390 1_565 S
C425 C424 1.387 . S
C425 C427 1.387 . S
H426 C433 0.950 . S
C427 C425 1.387 . S
C427 C429 1.390 1_565 S
C427 H431 0.950 . S
H428 C424 0.950 . S
C429 C427 1.390 1_545 S
C429 C430 1.387 . S
C429 H432 0.950 . S
C430 C429 1.387 . S
C430 C433 1.387 . S
H431 C427 0.950 . S
H432 C429 0.950 . S
C433 C424 1.390 1_545 S
C433 H426 0.950 . S
C433 C430 1.387 . S
C434 C435 1.387 . S
C434 H438 0.950 . S
C434 C443 1.390 1_655 S
C435 C434 1.387 . S
C435 C437 1.387 . S
H436 C443 0.950 . S
C437 C435 1.387 . S
C437 C439 1.390 1_655 S
C437 H441 0.950 . S
H438 C434 0.950 . S
C439 C437 1.390 1_455 S
C439 C440 1.387 . S
C439 H442 0.950 . S
C440 C439 1.387 . S
C440 C443 1.387 . S
H441 C437 0.950 . S
H442 C439 0.950 . S
C443 C434 1.390 1_455 S
C443 H436 0.950 . S
C443 C440 1.387 . S
C444 C445 1.387 . S
C444 H448 0.950 . S
C444 C453 1.390 1_545 S
C445 C444 1.387 . S
C445 C447 1.387 . S
H446 C453 0.950 . S
C447 C445 1.387 . S
C447 C449 1.390 1_545 S
C447 H451 0.950 . S
H448 C444 0.950 . S
C449 C447 1.390 1_565 S
C449 C450 1.387 . S
C449 H452 0.950 . S
C450 C449 1.387 . S
C450 C453 1.387 . S
H451 C447 0.950 . S
H452 C449 0.950 . S
C453 C444 1.390 1_565 S
C453 H446 0.950 . S
C453 C450 1.387 . S
C454 C455 1.387 . S
C454 H458 0.950 . S
C454 C463 1.390 1_655 S
C455 C454 1.387 . S
C455 C457 1.387 . S
H456 C463 0.950 . S
C457 C455 1.387 . S
C457 C459 1.390 1_655 S
C457 H461 0.950 . S
H458 C454 0.950 . S
C459 C457 1.390 1_455 S
C459 C460 1.387 . S
C459 H462 0.950 . S
C460 C459 1.387 . S
C460 C463 1.387 . S
H461 C457 0.950 . S
H462 C459 0.950 . S
C463 C454 1.390 1_455 S
C463 H456 0.950 . S
C463 C460 1.387 . S
C265 C18 1.690 . S
C270 C150 1.690 . S
C275 C183 1.690 . S
C280 C51 1.690 . S
C285 C84 1.690 . S
C290 C216 1.690 . S
C295 C249 1.690 . S
C300 C117 1.690 . S
C305 C186 0.694 . S
C310 C21 0.689 . S
C315 C219 0.694 . S
C320 C54 0.689 . S
C325 C87 0.695 . S
C330 C252 0.692 . S
C335 C153 0.689 . S
C340 C120 0.695 . S
C345 C106 1.428 . S
C350 C205 1.430 . S
C355 C7 1.427 . S
C360 C238 1.431 . S
C365 C40 1.431 . S
C370 C139 1.427 . S
C375 C73 1.429 . S
C380 C172 1.429 . S
C385 N2 0.920 . S
C390 N68 0.920 . S
C395 N35 0.920 . S
C400 N101 0.920 . S
C405 N200 0.920 . S
C410 N134 0.920 . S
C415 N233 0.925 . S
C420 N167 0.925 . S
C425 N13 1.258 . S
C430 N79 1.258 . S
C435 N112 1.257 . S
C440 N46 1.257 . S
C445 N145 1.257 . S
C450 N211 1.257 . S
C455 N178 1.257 . S
C460 N244 1.257 . S
