# Generated by pormake.
# Topology uog, (4)-cn, num edge types: 1
# Building blocks:
#     Node 0, Type 0, BuildingBlock: GALJAG_clean_sbu_0, # of connection points: 4
#     Node 1, Type 0, BuildingBlock: GALJAG_clean_sbu_0, # of connection points: 4
#     Node 2, Type 0, BuildingBlock: GALJAG_clean_sbu_0, # of connection points: 4
#     Node 3, Type 0, BuildingBlock: GALJAG_clean_sbu_0, # of connection points: 4
#     Node 4, Type 0, BuildingBlock: GALJAG_clean_sbu_0, # of connection points: 4
#     Node 5, Type 0, BuildingBlock: GALJAG_clean_sbu_0, # of connection points: 4
#     Edge 6, Type (0, 0), BuildingBlock: MIFKUJ_clean_linker_0, # of connection points: 2
#     Edge 7, Type (0, 0), BuildingBlock: MIFKUJ_clean_linker_0, # of connection points: 2
#     Edge 8, Type (0, 0), BuildingBlock: MIFKUJ_clean_linker_0, # of connection points: 2
#     Edge 9, Type (0, 0), BuildingBlock: MIFKUJ_clean_linker_0, # of connection points: 2
#     Edge 10, Type (0, 0), BuildingBlock: MIFKUJ_clean_linker_0, # of connection points: 2
#     Edge 11, Type (0, 0), BuildingBlock: MIFKUJ_clean_linker_0, # of connection points: 2
#     Edge 12, Type (0, 0), BuildingBlock: MIFKUJ_clean_linker_0, # of connection points: 2
#     Edge 13, Type (0, 0), BuildingBlock: MIFKUJ_clean_linker_0, # of connection points: 2
#     Edge 14, Type (0, 0), BuildingBlock: MIFKUJ_clean_linker_0, # of connection points: 2
#     Edge 15, Type (0, 0), BuildingBlock: MIFKUJ_clean_linker_0, # of connection points: 2
#     Edge 16, Type (0, 0), BuildingBlock: MIFKUJ_clean_linker_0, # of connection points: 2
#     Edge 17, Type (0, 0), BuildingBlock: MIFKUJ_clean_linker_0, # of connection points: 2
# Relax obj value: 0.035
# Max RMSD: 0.144
# Mean RMSD: 0.144
data_MOF--net-uog--node1-GALJAG_clean_sbu_0--edge1-MIFKUJ_clean_linker_0
_symmetry_space_group_name_H-M    P1
_symmetry_Int_Tables_number       1
_symmetry_cell_setting            triclinic
loop_
_symmetry_equiv_pos_as_xyz
'x, y, z'
_cell_length_a     37.676993
_cell_length_b     37.629993
_cell_length_c     55.220239
_cell_angle_alpha  89.928379
_cell_angle_beta   90.00959
_cell_angle_gamma 120.0521
loop_
_atom_site_label
_atom_site_type_symbol
_atom_site_fract_x
_atom_site_fract_y
_atom_site_fract_z
_atom_type_partial_charge
In0 In 0.59072 0.28451 0.15829 0.0
O1 O 0.53928 0.29966 0.16424 0.0
O2 O 0.60175 0.34796 0.16514 0.0
C3 C 0.56221 0.20416 0.15125 0.0
C4 C 0.62321 0.28853 0.2019 0.0
C5 C 0.61813 0.31119 0.11355 0.0
O6 O 0.53803 0.21795 0.15486 0.0
O7 O 0.59982 0.23097 0.15079 0.0
O8 O 0.64244 0.31743 0.13099 0.0
O9 O 0.58043 0.29088 0.11878 0.0
C10 C 0.56443 0.3378 0.16657 0.0
O11 O 0.64551 0.30582 0.18356 0.0
O12 O 0.58503 0.26973 0.19804 0.0
In13 In 0.28385 0.57029 0.49925 0.0
O14 O 0.30974 0.62446 0.52525 0.0
O15 O 0.28678 0.56416 0.5397 0.0
C16 C 0.29358 0.60109 0.45453 0.0
C17 C 0.20267 0.54042 0.50256 0.0
C18 C 0.33764 0.54346 0.49545 0.0
O19 O 0.30926 0.62398 0.47283 0.0
O20 O 0.27353 0.56303 0.45895 0.0
O21 O 0.29928 0.51858 0.49606 0.0
O22 O 0.34797 0.58089 0.49674 0.0
C23 C 0.30288 0.60215 0.54381 0.0
O24 O 0.21757 0.51674 0.50316 0.0
O25 O 0.22865 0.57808 0.50044 0.0
In26 In 0.71086 0.31319 0.82759 0.0
O27 O 0.73448 0.34297 0.86388 0.0
O28 O 0.68121 0.34234 0.8502 0.0
C29 C 0.67489 0.30607 0.78455 0.0
C30 C 0.66758 0.23424 0.84226 0.0
C31 C 0.79136 0.36158 0.81787 0.0
O32 O 0.6788 0.33276 0.79988 0.0
O33 O 0.68942 0.28374 0.79093 0.0
O34 O 0.76408 0.36851 0.80979 0.0
O35 O 0.77791 0.32879 0.83005 0.0
C36 C 0.70715 0.35247 0.86713 0.0
O37 O 0.65724 0.26063 0.84677 0.0
O38 O 0.70116 0.24792 0.83095 0.0
In39 In 0.42129 0.69889 0.16387 0.0
O40 O 0.4746 0.68653 0.16899 0.0
O41 O 0.4132 0.63752 0.1743 0.0
C42 C 0.4481 0.77853 0.15514 0.0
C43 C 0.38864 0.69616 0.20723 0.0
C44 C 0.39503 0.6713 0.1191 0.0
O45 O 0.47277 0.766 0.16048 0.0
O46 O 0.41086 0.75085 0.15393 0.0
O47 O 0.37029 0.66765 0.13578 0.0
O48 O 0.43227 0.68854 0.12524 0.0
C49 C 0.45092 0.64891 0.17402 0.0
O50 O 0.36676 0.67454 0.1897 0.0
O51 O 0.42638 0.71859 0.20268 0.0
In52 In 0.69892 0.39975 0.49386 0.0
O53 O 0.76553 0.45169 0.49827 0.0
O54 O 0.75046 0.39008 0.50601 0.0
C55 C 0.64899 0.43005 0.48515 0.0
C56 C 0.66662 0.3666 0.53682 0.0
C57 C 0.70071 0.37134 0.44979 0.0
O58 O 0.68605 0.45323 0.49139 0.0
O59 O 0.63832 0.39268 0.48271 0.0
O60 O 0.67829 0.34763 0.46651 0.0
O61 O 0.72146 0.40883 0.45541 0.0
C62 C 0.77798 0.42739 0.50467 0.0
O63 O 0.66444 0.34454 0.51892 0.0
O64 O 0.68518 0.40479 0.53285 0.0
In65 In 0.28873 0.73374 0.83506 0.0
O66 O 0.3076 0.80097 0.84293 0.0
O67 O 0.353 0.78707 0.83076 0.0
C68 C 0.20613 0.68826 0.8367 0.0
C69 C 0.30854 0.71284 0.87711 0.0
C70 C 0.30071 0.71701 0.78966 0.0
O71 O 0.22405 0.72567 0.83046 0.0
O72 O 0.22971 0.67493 0.84229 0.0
O73 O 0.30755 0.70074 0.80778 0.0
O74 O 0.28769 0.74122 0.79455 0.0
C75 C 0.34485 0.81422 0.83746 0.0
O76 O 0.3131 0.69932 0.85706 0.0
O77 O 0.29441 0.73696 0.87574 0.0
H78 H 0.61042 0.16978 0.14821 0.0
H79 H 0.58936 0.09731 0.14626 0.0
H80 H 0.46231 0.06568 0.14662 0.0
H81 H 0.48341 0.13881 0.14931 0.0
H82 H 0.47356 0.0179 0.17675 0.0
H83 H 0.51017 0.05809 0.09448 0.0
H84 H 0.5536 0.10039 0.06069 0.0
H85 H 0.64669 0.0719 0.08072 0.0
H86 H 0.60405 0.02987 0.11486 0.0
H87 H 0.39858 0.81016 0.14608 0.0
H88 H 0.41762 0.8822 0.14307 0.0
H89 H 0.54471 0.91829 0.15361 0.0
H90 H 0.52579 0.84571 0.1567 0.0
H91 H 0.53128 0.96268 0.11655 0.0
H92 H 0.49362 0.9238 0.19983 0.0
H93 H 0.44828 0.88038 0.23269 0.0
H94 H 0.35447 0.90561 0.20917 0.0
H95 H 0.39904 0.94869 0.17591 0.0
C96 C 0.57794 0.1475 0.14769 0.0
C97 C 0.54853 0.16002 0.14882 0.0
C98 C 0.56595 0.10599 0.14644 0.0
C99 C 0.52426 0.07597 0.14586 0.0
C100 C 0.49469 0.08832 0.14692 0.0
C101 C 0.50673 0.13005 0.14839 0.0
C102 C 0.51191 0.03177 0.14517 0.0
C103 C 0.48562 0.00572 0.1633 0.0
C104 C 0.52834 0.01597 0.12795 0.0
C105 C 0.55402 0.04108 0.10736 0.0
C106 C 0.54002 0.06108 0.09179 0.0
C107 C 0.56448 0.08497 0.07256 0.0
C108 C 0.60292 0.0889 0.06859 0.0
C109 C 0.61692 0.06885 0.08382 0.0
C110 C 0.5926 0.04494 0.1031 0.0
C111 C 0.43067 0.83333 0.14763 0.0
C112 C 0.46072 0.82228 0.15177 0.0
C113 C 0.44144 0.87451 0.14595 0.0
C114 C 0.48247 0.90553 0.1484 0.0
C115 C 0.51283 0.89471 0.15174 0.0
C116 C 0.50201 0.85333 0.15355 0.0
C117 C 0.49322 0.94918 0.14815 0.0
C118 C 0.51916 0.975 0.12987 0.0
C119 C 0.47621 0.96471 0.16508 0.0
C120 C 0.44953 0.93915 0.18523 0.0
C121 C 0.4632 0.91984 0.20154 0.0
C122 C 0.43766 0.89533 0.22026 0.0
C123 C 0.39848 0.89016 0.22298 0.0
C124 C 0.38481 0.9096 0.20702 0.0
C125 C 0.41021 0.93409 0.18824 0.0
H126 H 0.37874 0.87116 0.23748 0.0
H127 H 0.62181 0.10742 0.05369 0.0
H128 H 0.42031 0.59269 0.49685 0.0
H129 H 0.47263 0.57311 0.49333 0.0
H130 H 0.37859 0.44613 0.48558 0.0
H131 H 0.32559 0.46561 0.48959 0.0
H132 H 0.43764 0.45373 0.51582 0.0
H133 H 0.43388 0.50274 0.43663 0.0
H134 H 0.43491 0.551 0.40602 0.0
H135 H 0.55608 0.6417 0.42849 0.0
H136 H 0.55556 0.59419 0.45951 0.0
H137 H 0.56825 0.38351 0.47403 0.0
H138 H 0.51619 0.40387 0.47428 0.0
H139 H 0.60848 0.52816 0.49152 0.0
H140 H 0.66121 0.50789 0.49141 0.0
H141 H 0.55029 0.52134 0.45578 0.0
H142 H 0.55241 0.47102 0.53561 0.0
H143 H 0.55093 0.4209 0.56501 0.0
H144 H 0.43145 0.33059 0.53984 0.0
H145 H 0.43246 0.37999 0.51002 0.0
C146 C 0.41062 0.56055 0.49436 0.0
C147 C 0.36878 0.53066 0.49339 0.0
C148 C 0.44066 0.54944 0.49223 0.0
C149 C 0.4296 0.50825 0.48877 0.0
C150 C 0.3878 0.47815 0.48811 0.0
C151 C 0.35758 0.48928 0.49036 0.0
C152 C 0.46192 0.49688 0.48627 0.0
C153 C 0.46188 0.46805 0.50244 0.0
C154 C 0.49413 0.51626 0.46915 0.0
C155 C 0.49453 0.54499 0.45054 0.0
C156 C 0.46061 0.5331 0.43519 0.0
C157 C 0.46113 0.5603 0.41774 0.0
C158 C 0.49552 0.5994 0.41533 0.0
C159 C 0.52946 0.6114 0.43039 0.0
C160 C 0.52908 0.58433 0.44789 0.0
C161 C 0.57768 0.41532 0.47765 0.0
C162 C 0.61884 0.44409 0.48285 0.0
C163 C 0.54781 0.42683 0.47785 0.0
C164 C 0.55842 0.46734 0.48323 0.0
C165 C 0.59973 0.49667 0.48741 0.0
C166 C 0.62976 0.48508 0.48735 0.0
C167 C 0.5259 0.47836 0.48532 0.0
C168 C 0.52596 0.50707 0.46911 0.0
C169 C 0.49356 0.45871 0.50228 0.0
C170 C 0.49269 0.4291 0.52041 0.0
C171 C 0.52595 0.44038 0.53621 0.0
C172 C 0.52518 0.41212 0.55298 0.0
C173 C 0.49117 0.37256 0.55424 0.0
C174 C 0.4578 0.36123 0.53881 0.0
C175 C 0.45843 0.38936 0.52199 0.0
H176 H 0.49066 0.3507 0.56719 0.0
H177 H 0.49593 0.62034 0.40174 0.0
H178 H 0.82699 0.42816 0.78803 0.0
H179 H 0.89747 0.48558 0.7897 0.0
H180 H 0.92528 0.42386 0.84608 0.0
H181 H 0.85474 0.3661 0.84441 0.0
H182 H 0.94667 0.50368 0.85808 0.0
H183 H 0.96555 0.43287 0.79166 0.0
H184 H 0.95071 0.39893 0.75181 0.0
H185 H 0.97306 0.51065 0.71734 0.0
H186 H 0.98747 0.54512 0.75706 0.0
H187 H 0.16268 0.6186 0.86266 0.0
H188 H 0.09037 0.56706 0.85843 0.0
H189 H 0.07591 0.64213 0.80468 0.0
H190 H 0.14882 0.69452 0.80912 0.0
H191 H 0.04602 0.55973 0.79013 0.0
H192 H 0.03099 0.63172 0.85638 0.0
H193 H 0.04627 0.66567 0.89623 0.0
H194 H 0.0167 0.55199 0.93101 0.0
H195 H 0.00183 0.51745 0.89132 0.0
C196 C 0.84835 0.42644 0.80045 0.0
C197 C 0.83538 0.39264 0.81609 0.0
C198 C 0.88861 0.45928 0.80137 0.0
C199 C 0.91658 0.45903 0.81805 0.0
C200 C 0.90412 0.42467 0.83311 0.0
C201 C 0.86393 0.39158 0.83201 0.0
C202 C 0.95795 0.49568 0.82081 0.0
C203 C 0.9686 0.51564 0.84332 0.0
C204 C 0.98591 0.51212 0.80127 0.0
C205 C 0.97711 0.49144 0.77737 0.0
C206 C 0.96689 0.45009 0.77561 0.0
C207 C 0.95865 0.43078 0.75304 0.0
C208 C 0.96081 0.45258 0.73207 0.0
C209 C 0.97132 0.49378 0.73362 0.0
C210 C 0.97955 0.51323 0.75615 0.0
C211 C 0.14397 0.62451 0.85023 0.0
C212 C 0.16127 0.66056 0.83624 0.0
C213 C 0.10264 0.59505 0.84786 0.0
C214 C 0.07777 0.60079 0.83128 0.0
C215 C 0.09465 0.63721 0.81761 0.0
C216 C 0.1361 0.66717 0.82028 0.0
C217 C 0.0349 0.56736 0.8275 0.0
C218 C 0.02393 0.54797 0.80482 0.0
C219 C 0.00659 0.55143 0.84688 0.0
C220 C 0.01563 0.57206 0.87082 0.0
C221 C 0.02811 0.61402 0.8725 0.0
C222 C 0.03663 0.63336 0.89507 0.0
C223 C 0.03255 0.61102 0.91613 0.0
C224 C 0.01988 0.56926 0.91467 0.0
C225 C 0.01136 0.54978 0.89214 0.0
H226 H 0.03913 0.62605 0.93359 0.0
H227 H 0.95444 0.43758 0.71461 0.0
H228 H 0.13942 0.46409 0.51544 0.0
H229 H 0.06646 0.44298 0.51897 0.0
H230 H 0.09361 0.56369 0.4959 0.0
H231 H 0.16602 0.58508 0.49313 0.0
H232 H 0.04359 0.54096 0.53236 0.0
H233 H 0.04949 0.47747 0.45764 0.0
H234 H 0.0648 0.43303 0.43214 0.0
H235 H 0.98429 0.32848 0.47551 0.0
H236 H 0.9689 0.37243 0.50146 0.0
H237 H 0.84561 0.50268 0.49577 0.0
H238 H 0.91771 0.52074 0.4985 0.0
H239 H 0.88059 0.39916 0.5251 0.0
H240 H 0.80881 0.38082 0.52204 0.0
H241 H 0.93466 0.41941 0.48952 0.0
H242 H 0.92539 0.48334 0.56256 0.0
H243 H 0.90982 0.52846 0.5872 0.0
H244 H 0.99655 0.63311 0.54607 0.0
H245 H 0.01224 0.58853 0.52095 0.0
C246 C 0.12965 0.48595 0.51109 0.0
C247 C 0.15837 0.52619 0.50404 0.0
C248 C 0.08801 0.47389 0.51304 0.0
C249 C 0.07445 0.5017 0.50754 0.0
C250 C 0.10325 0.54175 0.50038 0.0
C251 C 0.14468 0.55388 0.49872 0.0
C252 C 0.03046 0.48969 0.50924 0.0
C253 C 0.01982 0.51457 0.5228 0.0
C254 C 0.99925 0.45475 0.49726 0.0
C255 C 0.00841 0.42831 0.48164 0.0
C256 C 0.0353 0.44506 0.46184 0.0
C257 C 0.04394 0.41995 0.44729 0.0
C258 C 0.02562 0.37798 0.45225 0.0
C259 C 0.99852 0.36101 0.47172 0.0
C260 C 0.9898 0.38599 0.48635 0.0
C261 C 0.85292 0.48006 0.5025 0.0
C262 C 0.8216 0.44035 0.50864 0.0
C263 C 0.89409 0.49039 0.5041 0.0
C264 C 0.90456 0.46131 0.5121 0.0
C265 C 0.87327 0.42203 0.51881 0.0
C266 C 0.83224 0.41167 0.51712 0.0
C267 C 0.94792 0.47099 0.51238 0.0
C268 C 0.95839 0.44565 0.4992 0.0
C269 C 0.97901 0.50564 0.5246 0.0
C270 C 0.96972 0.53253 0.53974 0.0
C271 C 0.94091 0.51593 0.55865 0.0
C272 C 0.93211 0.54141 0.57273 0.0
C273 C 0.95211 0.5836 0.56817 0.0
C274 C 0.98105 0.60041 0.54956 0.0
C275 C 0.98994 0.57506 0.53542 0.0
H276 H 0.94525 0.60328 0.57908 0.0
H277 H 0.03235 0.35859 0.44096 0.0
H278 H 0.34231 0.87684 0.86137 0.0
H279 H 0.39836 0.94794 0.8658 0.0
H280 H 0.4761 0.92079 0.82143 0.0
H281 H 0.42096 0.84977 0.81775 0.0
H282 H 0.51811 0.96389 0.85808 0.0
H283 H 0.42878 0.97582 0.80021 0.0
H284 H 0.36341 0.96756 0.78519 0.0
H285 H 0.36049 0.03996 0.84438 0.0
H286 H 0.42561 0.04822 0.85991 0.0
H287 H 0.67049 0.16815 0.82383 0.0
H288 H 0.61687 0.09581 0.82672 0.0
H289 H 0.54737 0.1288 0.87448 0.0
H290 H 0.60031 0.20096 0.87127 0.0
H291 H 0.50084 0.08299 0.83858 0.0
H292 H 0.5938 0.07459 0.89465 0.0
H293 H 0.65999 0.08335 0.90842 0.0
H294 H 0.65715 0.00489 0.85115 0.0
H295 H 0.59119 0.99609 0.83683 0.0
C296 C 0.37131 0.88622 0.85248 0.0
C297 C 0.37725 0.85783 0.83918 0.0
C298 C 0.40331 0.92685 0.85496 0.0
C299 C 0.44147 0.93994 0.84377 0.0
C300 C 0.44712 0.91152 0.83034 0.0
C301 C 0.41546 0.87093 0.82815 0.0
C302 C 0.4758 0.98302 0.84604 0.0
C303 C 0.5144 0.98992 0.85357 0.0
C304 C 0.47091 0.01713 0.84071 0.0
C305 C 0.43182 0.01226 0.83135 0.0
C306 C 0.41404 0.98972 0.81011 0.0
C307 C 0.37706 0.98509 0.80149 0.0
C308 C 0.35775 0.00312 0.81386 0.0
C309 C 0.37544 0.02594 0.83484 0.0
C310 C 0.41239 0.03064 0.84355 0.0
C311 C 0.6442 0.1598 0.83537 0.0
C312 C 0.6395 0.19019 0.84724 0.0
C313 C 0.61356 0.11845 0.83702 0.0
C314 C 0.57801 0.10682 0.85083 0.0
C315 C 0.57436 0.13702 0.86362 0.0
C316 C 0.60475 0.17825 0.86184 0.0
C317 C 0.54319 0.06385 0.85047 0.0
C318 C 0.50449 0.05698 0.84325 0.0
C319 C 0.54811 0.02982 0.85591 0.0
C320 C 0.58771 0.03497 0.86455 0.0
C321 C 0.60744 0.05945 0.88488 0.0
C322 C 0.64489 0.06438 0.8928 0.0
C323 C 0.6628 0.04477 0.88063 0.0
C324 C 0.64325 0.0201 0.86054 0.0
C325 C 0.60581 0.01509 0.85254 0.0
H326 H 0.6918 0.04862 0.88679 0.0
H327 H 0.32912 0.9995 0.80716 0.0
H328 H 0.52872 0.66128 0.16845 0.0
H329 H 0.54947 0.60904 0.17025 0.0
H330 H 0.42561 0.51709 0.18877 0.0
H331 H 0.40494 0.56895 0.18739 0.0
H332 H 0.47937 0.50535 0.21418 0.0
H333 H 0.45927 0.52808 0.13096 0.0
H334 H 0.46994 0.56923 0.09406 0.0
H335 H 0.59785 0.60631 0.09428 0.0
H336 H 0.58805 0.56585 0.13143 0.0
H337 H 0.48755 0.32638 0.17559 0.0
H338 H 0.46879 0.38003 0.17972 0.0
H339 H 0.59498 0.47322 0.16825 0.0
H340 H 0.61389 0.42034 0.16437 0.0
H341 H 0.54014 0.48406 0.13976 0.0
H342 H 0.55871 0.45899 0.22299 0.0
H343 H 0.54638 0.41631 0.25937 0.0
H344 H 0.41903 0.38145 0.25833 0.0
H345 H 0.4305 0.42347 0.22167 0.0
C346 C 0.50613 0.63005 0.17324 0.0
C347 C 0.46517 0.61914 0.17758 0.0
C348 C 0.51793 0.60021 0.17415 0.0
C349 C 0.48891 0.55903 0.17929 0.0
C350 C 0.44849 0.5486 0.18473 0.0
C351 C 0.43672 0.5783 0.18383 0.0
C352 C 0.49985 0.5263 0.17777 0.0
C353 C 0.49232 0.50046 0.19784 0.0
C354 C 0.51705 0.5201 0.15652 0.0
C355 C 0.52301 0.54431 0.13413 0.0
C356 C 0.48973 0.54528 0.12325 0.0
C357 C 0.49561 0.56843 0.10228 0.0
C358 C 0.53457 0.59046 0.09187 0.0
C359 C 0.56771 0.58929 0.10239 0.0
C360 C 0.56201 0.56624 0.1234 0.0
C361 C 0.5112 0.35832 0.17407 0.0
C362 C 0.55214 0.36916 0.1697 0.0
C363 C 0.50052 0.38888 0.17647 0.0
C364 C 0.53058 0.43055 0.17432 0.0
C365 C 0.57135 0.44127 0.16993 0.0
C366 C 0.58207 0.41095 0.1678 0.0
C367 C 0.51983 0.46331 0.17618 0.0
C368 C 0.52729 0.48905 0.15612 0.0
C369 C 0.50232 0.46918 0.19736 0.0
C370 C 0.49537 0.44401 0.21943 0.0
C371 C 0.528 0.44192 0.23038 0.0
C372 C 0.52118 0.41791 0.25108 0.0
C373 C 0.48192 0.39609 0.26112 0.0
C374 C 0.44942 0.39832 0.2505 0.0
C375 C 0.45606 0.42225 0.22978 0.0
H376 H 0.4767 0.37753 0.27715 0.0
H377 H 0.53906 0.60836 0.07563 0.0
H378 H 0.76811 0.39806 0.89879 0.0
H379 H 0.76 0.41025 0.94134 0.0
H380 H 0.62922 0.35361 0.93114 0.0
H381 H 0.63744 0.34277 0.88825 0.0
H382 H 0.65625 0.41256 0.96632 0.0
H383 H 0.67063 0.29542 0.94598 0.0
H384 H 0.70531 0.26136 0.92738 0.0
H385 H 0.81141 0.33304 0.97165 0.0
H386 H 0.77754 0.36798 0.99024 0.0
H387 H 0.57084 0.30269 0.07441 0.0
H388 H 0.59343 0.32704 0.03327 0.0
H389 H 0.71962 0.37997 0.05566 0.0
H390 H 0.6971 0.35515 0.09704 0.0
H391 H 0.70319 0.33356 0.01572 0.0
H392 H 0.68049 0.44168 0.04129 0.0
H393 H 0.64209 0.47192 0.05973 0.0
H394 H 0.5476 0.41338 0.00617 0.0
H395 H 0.58511 0.38227 0.9876 0.0
C396 C 0.73781 0.38948 0.90547 0.0
C397 C 0.70328 0.36891 0.89047 0.0
C398 C 0.73322 0.39641 0.92975 0.0
C399 C 0.69392 0.38179 0.93949 0.0
C400 C 0.6598 0.36492 0.92398 0.0
C401 C 0.66449 0.35868 0.89951 0.0
C402 C 0.68779 0.37813 0.96603 0.0
C403 C 0.66642 0.39529 0.97718 0.0
C404 C 0.7016 0.356 0.98019 0.0
C405 C 0.72176 0.33461 0.96929 0.0
C406 C 0.70145 0.30407 0.95164 0.0
C407 C 0.72095 0.28461 0.9411 0.0
C408 C 0.76058 0.29511 0.94828 0.0
C409 C 0.78075 0.325 0.96607 0.0
C410 C 0.76142 0.34464 0.97661 0.0
C411 C 0.60343 0.31973 0.07064 0.0
C412 C 0.63225 0.3269 0.08889 0.0
C413 C 0.61629 0.33396 0.04716 0.0
C414 C 0.6582 0.35587 0.04151 0.0
C415 C 0.68713 0.36337 0.05973 0.0
C416 C 0.67425 0.34911 0.0833 0.0
C417 C 0.67137 0.36776 0.01613 0.0
C418 C 0.69384 0.35176 0.00509 0.0
C419 C 0.65808 0.39048 0.00213 0.0
C420 C 0.63555 0.40944 0.01313 0.0
C421 C 0.6514 0.43502 0.03353 0.0
C422 C 0.6298 0.45236 0.044 0.0
C423 C 0.5924 0.44453 0.03415 0.0
C424 C 0.57657 0.41942 0.01378 0.0
C425 C 0.59803 0.40198 0.00325 0.0
H426 H 0.57572 0.45797 0.04229 0.0
H427 H 0.77564 0.28002 0.94011 0.0
H428 H 0.31758 0.63491 0.2268 0.0
H429 H 0.29674 0.62741 0.26935 0.0
H430 H 0.40215 0.74564 0.28522 0.0
H431 H 0.42378 0.75245 0.243 0.0
H432 H 0.39972 0.69217 0.31513 0.0
H433 H 0.30131 0.7275 0.28788 0.0
H434 H 0.24587 0.72377 0.26234 0.0
H435 H 0.16623 0.59919 0.28495 0.0
H436 H 0.22138 0.60196 0.31038 0.0
H437 H 0.34377 0.67982 0.43894 0.0
H438 H 0.3553 0.70458 0.39697 0.0
H439 H 0.26634 0.5833 0.37231 0.0
H440 H 0.25468 0.55839 0.41404 0.0
H441 H 0.26085 0.64613 0.3481 0.0
H442 H 0.36328 0.60997 0.37111 0.0
H443 H 0.41876 0.61456 0.39703 0.0
H444 H 0.49117 0.74367 0.38214 0.0
H445 H 0.43582 0.73993 0.3564 0.0
C446 C 0.3358 0.65956 0.23932 0.0
C447 C 0.37242 0.69405 0.23175 0.0
C448 C 0.3238 0.65539 0.2636 0.0
C449 C 0.34782 0.68607 0.28049 0.0
C450 C 0.38326 0.7215 0.27256 0.0
C451 C 0.39556 0.72537 0.24844 0.0
C452 C 0.33848 0.67942 0.30674 0.0
C453 C 0.36955 0.68303 0.32236 0.0
C454 C 0.29894 0.66666 0.31616 0.0
C455 C 0.26563 0.66486 0.30091 0.0
C456 C 0.27208 0.6992 0.28727 0.0
C457 C 0.24068 0.69727 0.27283 0.0
C458 C 0.20258 0.66124 0.27198 0.0
C459 C 0.19577 0.62708 0.28562 0.0
C460 C 0.22708 0.62883 0.30007 0.0
C461 C 0.3264 0.65861 0.42457 0.0
C462 C 0.29867 0.61713 0.42966 0.0
C463 C 0.33296 0.67277 0.40067 0.0
C464 C 0.31179 0.64564 0.38163 0.0
C465 C 0.28285 0.60467 0.3868 0.0
C466 C 0.27648 0.59047 0.41061 0.0
C467 C 0.32201 0.65882 0.35615 0.0
C468 C 0.29112 0.65612 0.34076 0.0
C469 C 0.36177 0.67266 0.34688 0.0
C470 C 0.39524 0.67477 0.36208 0.0
C471 C 0.39092 0.63939 0.37351 0.0
C472 C 0.42235 0.64182 0.38814 0.0
C473 C 0.45841 0.67942 0.3913 0.0
C474 C 0.46318 0.7146 0.37972 0.0
C475 C 0.4318 0.71234 0.36511 0.0
H476 H 0.48268 0.6813 0.40267 0.0
H477 H 0.17831 0.65981 0.2608 0.0
H478 H 0.64576 0.24066 0.75429 0.0
H479 H 0.62497 0.23755 0.7121 0.0
H480 H 0.64451 0.36048 0.71767 0.0
H481 H 0.66392 0.36313 0.76028 0.0
H482 H 0.58114 0.31453 0.68785 0.0
H483 H 0.72067 0.34362 0.69787 0.0
H484 H 0.77464 0.33025 0.71273 0.0
H485 H 0.71935 0.21574 0.6743 0.0
H486 H 0.66471 0.22822 0.65947 0.0
H487 H 0.66025 0.40768 0.57532 0.0
H488 H 0.64232 0.38322 0.61679 0.0
H489 H 0.61929 0.26344 0.59492 0.0
H490 H 0.63774 0.28805 0.5531 0.0
H491 H 0.67273 0.29444 0.63195 0.0
H492 H 0.54067 0.27582 0.61503 0.0
H493 H 0.49142 0.29508 0.59921 0.0
H494 H 0.53646 0.39544 0.64941 0.0
H495 H 0.58643 0.3772 0.66531 0.0
C496 C 0.6449 0.26674 0.74663 0.0
C497 C 0.65705 0.30242 0.76034 0.0
C498 C 0.63301 0.26491 0.72255 0.0
C499 C 0.63408 0.29911 0.71162 0.0
C500 C 0.64358 0.33378 0.72576 0.0
C501 C 0.65484 0.33536 0.75002 0.0
C502 C 0.62986 0.30056 0.68503 0.0
C503 C 0.60112 0.31019 0.67557 0.0
C504 C 0.65542 0.29404 0.66903 0.0
C505 C 0.68836 0.2866 0.67782 0.0
C506 C 0.71987 0.31546 0.69274 0.0
C507 C 0.7506 0.30806 0.70113 0.0
C508 C 0.75035 0.2721 0.69452 0.0
C509 C 0.71944 0.24353 0.67945 0.0
C510 C 0.6886 0.25075 0.67104 0.0
C511 C 0.65074 0.37592 0.57922 0.0
C512 C 0.65074 0.34982 0.56106 0.0
C513 C 0.64011 0.36187 0.60291 0.0
C514 C 0.62907 0.3214 0.60889 0.0
C515 C 0.62749 0.29472 0.5906 0.0
C516 C 0.63802 0.30878 0.56678 0.0
C517 C 0.62443 0.30906 0.63466 0.0
C518 C 0.65182 0.29762 0.64406 0.0
C519 C 0.59803 0.31452 0.65051 0.0
C520 C 0.56746 0.3252 0.64131 0.0
C521 C 0.54024 0.30213 0.62263 0.0
C522 C 0.51217 0.31286 0.61364 0.0
C523 C 0.51084 0.34649 0.62328 0.0
C524 C 0.5375 0.36938 0.64197 0.0
C525 C 0.56566 0.3588 0.65101 0.0
H526 H 0.48913 0.35479 0.61627 0.0
H527 H 0.77416 0.26643 0.70104 0.0
H528 H 0.31522 0.74901 0.92061 0.0
H529 H 0.33077 0.72974 0.95975 0.0
H530 H 0.33842 0.63047 0.92603 0.0
H531 H 0.32331 0.64997 0.88649 0.0
H532 H 0.29036 0.61034 0.97136 0.0
H533 H 0.42284 0.7041 0.93906 0.0
H534 H 0.47469 0.76791 0.9192 0.0
H535 H 0.46641 0.83902 0.97737 0.0
H536 H 0.41402 0.77566 -0.0026 0.0
H537 H 0.44056 0.66528 0.08303 0.0
H538 H 0.42506 0.65731 0.03983 0.0
H539 H 0.30674 0.64466 0.05444 0.0
H540 H 0.32186 0.6519 0.09789 0.0
H541 H 0.41554 0.71157 0.01514 0.0
H542 H 0.24112 0.59302 0.00797 0.0
H543 H 0.19005 0.52823 0.0273 0.0
H544 H 0.28533 0.50297 0.0474 0.0
H545 H 0.3369 0.56729 0.02789 0.0
C546 C 0.32022 0.72309 0.92149 0.0
C547 C 0.31826 0.70106 0.90054 0.0
C548 C 0.32906 0.71213 0.94383 0.0
C549 C 0.33576 0.6788 0.94564 0.0
C550 C 0.33324 0.65626 0.92487 0.0
C551 C 0.32489 0.66757 0.90237 0.0
C552 C 0.34632 0.66859 0.96937 0.0
C553 C 0.31785 0.63214 0.98097 0.0
C554 C 0.38254 0.69689 0.98153 0.0
C555 C 0.41429 0.73512 0.96965 0.0
C556 C 0.43184 0.73336 0.94752 0.0
C557 C 0.46137 0.76945 0.93625 0.0
C558 C 0.47379 0.8075 0.947 0.0
C559 C 0.45676 0.80953 0.96907 0.0
C560 C 0.42718 0.77353 0.9804 0.0
C561 C 0.41088 0.65994 0.07709 0.0
C562 C 0.38255 0.65968 0.09374 0.0
C563 C 0.40208 0.65535 0.05241 0.0
C564 C 0.36484 0.65049 0.04391 0.0
C565 C 0.33548 0.64785 0.06063 0.0
C566 C 0.34419 0.65218 0.08542 0.0
C567 C 0.35904 0.65364 0.01765 0.0
C568 C 0.38836 0.68912 0.00554 0.0
C569 C 0.32381 0.62419 0.00505 0.0
C570 C 0.29293 0.58518 0.0166 0.0
C571 C 0.25117 0.57355 0.0164 0.0
C572 C 0.22213 0.53692 0.02742 0.0
C573 C 0.23445 0.51155 0.03862 0.0
C574 C 0.27584 0.52271 0.03879 0.0
C575 C 0.305 0.5593 0.02779 0.0
H576 H 0.21193 0.48322 0.04715 0.0
H577 H 0.49665 0.83541 0.93824 0.0
H578 H 0.6443 0.29983 0.42816 0.0
H579 H 0.64229 0.28141 0.38548 0.0
H580 H 0.75806 0.3923 0.37343 0.0
H581 H 0.75932 0.41148 0.41575 0.0
H582 H 0.706 0.38749 0.34179 0.0
H583 H 0.74695 0.29378 0.37032 0.0
H584 H 0.74453 0.23882 0.39587 0.0
H585 H 0.62385 0.15452 0.36941 0.0
H586 H 0.62527 0.20911 0.34395 0.0
H587 H 0.70168 0.33918 0.21761 0.0
H588 H 0.72628 0.34874 0.25956 0.0
H589 H 0.60675 0.25376 0.28308 0.0
H590 H 0.58205 0.2441 0.24141 0.0
H591 H 0.67102 0.2519 0.30765 0.0
H592 H 0.62681 0.34869 0.28517 0.0
H593 H 0.6281 0.40342 0.25989 0.0
H594 H 0.75598 0.4818 0.27566 0.0
H595 H 0.75551 0.42726 0.30081 0.0
C596 C 0.66958 0.31985 0.41644 0.0
C597 C 0.70174 0.35721 0.42511 0.0
C598 C 0.66859 0.30921 0.39211 0.0
C599 C 0.70019 0.33537 0.37625 0.0
C600 C 0.7333 0.37172 0.38528 0.0
C601 C 0.73396 0.38264 0.40945 0.0
C602 C 0.6966 0.32722 0.34985 0.0
C603 C 0.6994 0.35813 0.33434 0.0
C604 C 0.68708 0.28866 0.3401 0.0
C605 C 0.68613 0.25566 0.35534 0.0
C606 C 0.71977 0.2636 0.37008 0.0
C607 C 0.7186 0.2325 0.38452 0.0
C608 C 0.68404 0.19323 0.3843 0.0
C609 C 0.6506 0.18496 0.36958 0.0
C610 C 0.6516 0.21596 0.3551 0.0
C611 C 0.68093 0.31992 0.2317 0.0
C612 C 0.63986 0.29129 0.22638 0.0
C613 C 0.69499 0.32536 0.25558 0.0
C614 C 0.66817 0.30212 0.27435 0.0
C615 C 0.62789 0.27188 0.26882 0.0
C616 C 0.61377 0.26665 0.24505 0.0
C617 C 0.6803 0.31206 0.29996 0.0
C618 C 0.67873 0.28149 0.31524 0.0
C619 C 0.69102 0.35093 0.3096 0.0
C620 C 0.69125 0.38377 0.2946 0.0
C621 C 0.65527 0.37748 0.28308 0.0
C622 C 0.65583 0.40847 0.26881 0.0
C623 C 0.69213 0.44601 0.2661 0.0
C624 C 0.72791 0.45267 0.27773 0.0
C625 C 0.72751 0.42175 0.292 0.0
H626 H 0.69252 0.46997 0.25505 0.0
H627 H 0.68319 0.16919 0.3955 0.0
H628 H 0.30916 0.763 0.7499 0.0
H629 H 0.31719 0.74811 0.70792 0.0
H630 H 0.31325 0.63634 0.73061 0.0
H631 H 0.30709 0.6522 0.7729 0.0
H632 H 0.36767 0.6709 0.69642 0.0
H633 H 0.22795 0.63717 0.7063 0.0
H634 H 0.17134 0.64897 0.71756 0.0
H635 H 0.21369 0.74718 0.66581 0.0
H636 H 0.27091 0.73632 0.65447 0.0
H637 H 0.29991 0.56151 0.58515 0.0
H638 H 0.30787 0.58659 0.62669 0.0
H639 H 0.33167 0.70446 0.60025 0.0
H640 H 0.32384 0.67955 0.55847 0.0
H641 H 0.27033 0.67 0.63554 0.0
H642 H 0.40822 0.69718 0.62404 0.0
H643 H 0.461 0.67974 0.61278 0.0
H644 H 0.41681 0.5864 0.66773 0.0
H645 H 0.36337 0.60288 0.6791 0.0
C646 C 0.3102 0.73534 0.74593 0.0
C647 C 0.30713 0.7085 0.76454 0.0
C648 C 0.31463 0.72679 0.72194 0.0
C649 C 0.3149 0.69065 0.71605 0.0
C650 C 0.31297 0.66434 0.73473 0.0
C651 C 0.30933 0.67332 0.75883 0.0
C652 C 0.31616 0.67987 0.69039 0.0
C653 C 0.34612 0.6703 0.68317 0.0
C654 C 0.28842 0.67969 0.673 0.0
C655 C 0.25395 0.6862 0.67972 0.0
C656 C 0.22536 0.66148 0.69745 0.0
C657 C 0.19314 0.66797 0.70382 0.0
C658 C 0.18899 0.69888 0.69245 0.0
C659 C 0.21699 0.72329 0.67463 0.0
C660 C 0.2493 0.71696 0.66821 0.0
C661 C 0.30731 0.59293 0.58816 0.0
C662 C 0.31114 0.6186 0.56863 0.0
C663 C 0.31203 0.60724 0.61188 0.0
C664 C 0.32058 0.6474 0.61646 0.0
C665 C 0.32519 0.67339 0.59699 0.0
C666 C 0.32081 0.65918 0.5732 0.0
C667 C 0.32179 0.66111 0.64164 0.0
C668 C 0.29211 0.67102 0.64878 0.0
C669 C 0.34924 0.66081 0.65898 0.0
C670 C 0.38158 0.65107 0.6523 0.0
C671 C 0.40956 0.67273 0.6336 0.0
C672 C 0.43963 0.66305 0.62722 0.0
C673 C 0.44221 0.63193 0.6395 0.0
C674 C 0.41477 0.61049 0.65823 0.0
C675 C 0.38462 0.62002 0.66467 0.0
H676 H 0.4655 0.62447 0.63453 0.0
H677 H 0.16403 0.70386 0.69741 0.0
loop_
_geom_bond_atom_site_label_1
_geom_bond_atom_site_label_2
_geom_bond_distance
_geom_bond_site_symmetry_2
_ccdc_geom_bond_type
In0 O1 2.294 . S
In0 O2 2.326 . S
In0 O6 2.266 . S
In0 O7 2.326 . S
In0 O8 2.266 . S
In0 O9 2.326 . S
In0 O11 2.294 . S
In0 O12 2.326 . S
O1 In0 2.294 . S
O1 C10 1.240 . S
O2 In0 2.326 . S
O2 C10 1.252 . S
C3 O6 1.252 . S
C3 O7 1.260 . S
C4 O11 1.240 . S
C4 O12 1.252 . S
C5 O8 1.252 . S
C5 O9 1.260 . S
O6 In0 2.266 . S
O6 C3 1.252 . S
O7 In0 2.326 . S
O7 C3 1.260 . S
O8 In0 2.266 . S
O8 C5 1.252 . S
O9 In0 2.326 . S
O9 C5 1.260 . S
C10 O1 1.240 . S
C10 O2 1.252 . S
O11 In0 2.294 . S
O11 C4 1.240 . S
O12 In0 2.326 . S
O12 C4 1.252 . S
In13 O14 2.294 . S
In13 O15 2.326 . S
In13 O19 2.266 . S
In13 O20 2.326 . S
In13 O21 2.266 . S
In13 O22 2.326 . S
In13 O24 2.294 . S
In13 O25 2.326 . S
O14 In13 2.294 . S
O14 C23 1.240 . S
O15 In13 2.326 . S
O15 C23 1.252 . S
C16 O19 1.252 . S
C16 O20 1.260 . S
C17 O24 1.240 . S
C17 O25 1.252 . S
C18 O21 1.252 . S
C18 O22 1.260 . S
O19 In13 2.266 . S
O19 C16 1.252 . S
O20 In13 2.326 . S
O20 C16 1.260 . S
O21 In13 2.266 . S
O21 C18 1.252 . S
O22 In13 2.326 . S
O22 C18 1.260 . S
C23 O14 1.240 . S
C23 O15 1.252 . S
O24 In13 2.294 . S
O24 C17 1.240 . S
O25 In13 2.326 . S
O25 C17 1.252 . S
In26 O27 2.294 . S
In26 O28 2.326 . S
In26 O32 2.266 . S
In26 O33 2.326 . S
In26 O34 2.266 . S
In26 O35 2.326 . S
In26 O37 2.294 . S
In26 O38 2.326 . S
O27 In26 2.294 . S
O27 C36 1.240 . S
O28 In26 2.326 . S
O28 C36 1.252 . S
C29 O32 1.252 . S
C29 O33 1.260 . S
C30 O37 1.240 . S
C30 O38 1.252 . S
C31 O34 1.252 . S
C31 O35 1.260 . S
O32 In26 2.266 . S
O32 C29 1.252 . S
O33 In26 2.326 . S
O33 C29 1.260 . S
O34 In26 2.266 . S
O34 C31 1.252 . S
O35 In26 2.326 . S
O35 C31 1.260 . S
C36 O27 1.240 . S
C36 O28 1.252 . S
O37 In26 2.294 . S
O37 C30 1.240 . S
O38 In26 2.326 . S
O38 C30 1.252 . S
In39 O40 2.294 . S
In39 O41 2.326 . S
In39 O45 2.266 . S
In39 O46 2.326 . S
In39 O47 2.266 . S
In39 O48 2.326 . S
In39 O50 2.294 . S
In39 O51 2.326 . S
O40 In39 2.294 . S
O40 C49 1.240 . S
O41 In39 2.326 . S
O41 C49 1.252 . S
C42 O45 1.252 . S
C42 O46 1.260 . S
C43 O50 1.240 . S
C43 O51 1.252 . S
C44 O47 1.252 . S
C44 O48 1.260 . S
O45 In39 2.266 . S
O45 C42 1.252 . S
O46 In39 2.326 . S
O46 C42 1.260 . S
O47 In39 2.266 . S
O47 C44 1.252 . S
O48 In39 2.326 . S
O48 C44 1.260 . S
C49 O40 1.240 . S
C49 O41 1.252 . S
O50 In39 2.294 . S
O50 C43 1.240 . S
O51 In39 2.326 . S
O51 C43 1.252 . S
In52 O53 2.294 . S
In52 O54 2.326 . S
In52 O58 2.266 . S
In52 O59 2.326 . S
In52 O60 2.266 . S
In52 O61 2.326 . S
In52 O63 2.294 . S
In52 O64 2.326 . S
O53 In52 2.294 . S
O53 C62 1.240 . S
O54 In52 2.326 . S
O54 C62 1.252 . S
C55 O58 1.252 . S
C55 O59 1.260 . S
C56 O63 1.240 . S
C56 O64 1.252 . S
C57 O60 1.252 . S
C57 O61 1.260 . S
O58 In52 2.266 . S
O58 C55 1.252 . S
O59 In52 2.326 . S
O59 C55 1.260 . S
O60 In52 2.266 . S
O60 C57 1.252 . S
O61 In52 2.326 . S
O61 C57 1.260 . S
C62 O53 1.240 . S
C62 O54 1.252 . S
O63 In52 2.294 . S
O63 C56 1.240 . S
O64 In52 2.326 . S
O64 C56 1.252 . S
In65 O66 2.294 . S
In65 O67 2.326 . S
In65 O71 2.266 . S
In65 O72 2.326 . S
In65 O73 2.266 . S
In65 O74 2.326 . S
In65 O76 2.294 . S
In65 O77 2.326 . S
O66 In65 2.294 . S
O66 C75 1.240 . S
O67 In65 2.326 . S
O67 C75 1.252 . S
C68 O71 1.252 . S
C68 O72 1.260 . S
C69 O76 1.240 . S
C69 O77 1.252 . S
C70 O73 1.252 . S
C70 O74 1.260 . S
O71 In65 2.266 . S
O71 C68 1.252 . S
O72 In65 2.326 . S
O72 C68 1.260 . S
O73 In65 2.266 . S
O73 C70 1.252 . S
O74 In65 2.326 . S
O74 C70 1.260 . S
C75 O66 1.240 . S
C75 O67 1.252 . S
O76 In65 2.294 . S
O76 C69 1.240 . S
O77 In65 2.326 . S
O77 C69 1.252 . S
H78 C96 0.951 . S
H79 C98 0.951 . S
H80 C100 0.950 . S
H81 C101 0.950 . S
H82 C103 0.950 . S
H83 C106 0.950 . S
H84 C107 0.950 . S
H85 C109 0.950 . S
H86 C110 0.950 . S
H87 C111 0.951 . S
H88 C113 0.951 . S
H89 C115 0.950 . S
H90 C116 0.950 . S
H91 C118 0.950 . S
H92 C121 0.950 . S
H93 C122 0.950 . S
H94 C124 0.950 . S
H95 C125 0.950 . S
C96 H78 0.951 . S
C96 C97 1.366 . S
C96 C98 1.388 . S
C97 C96 1.366 . S
C97 C101 1.385 . S
C98 H79 0.951 . S
C98 C96 1.388 . S
C98 C99 1.366 . S
C99 C98 1.366 . S
C99 C100 1.414 . S
C99 C102 1.499 . S
C100 H80 0.950 . S
C100 C99 1.414 . S
C100 C101 1.374 . S
C101 H81 0.950 . S
C101 C97 1.385 . S
C101 C100 1.374 . S
C102 C99 1.499 . S
C102 C103 1.373 . S
C102 C104 1.389 . S
C103 H82 0.950 . S
C103 C102 1.373 . S
C103 C119 1.377 1_545 S
C104 C102 1.389 . S
C104 C105 1.524 . S
C104 C118 1.377 1_545 S
C105 C104 1.524 . S
C105 C106 1.397 . S
C105 C110 1.363 . S
C106 H83 0.950 . S
C106 C105 1.397 . S
C106 C107 1.334 . S
C107 H84 0.950 . S
C107 C106 1.334 . S
C107 C108 1.287 . S
C108 C107 1.287 . S
C108 C109 1.524 . S
C108 H127 0.913 . S
C109 H85 0.950 . S
C109 C108 1.524 . S
C109 C110 1.415 . S
C110 H86 0.950 . S
C110 C105 1.363 . S
C110 C109 1.415 . S
C111 H87 0.951 . S
C111 C112 1.366 . S
C111 C113 1.388 . S
C112 C111 1.366 . S
C112 C116 1.385 . S
C113 H88 0.951 . S
C113 C111 1.388 . S
C113 C114 1.366 . S
C114 C113 1.366 . S
C114 C115 1.414 . S
C114 C117 1.499 . S
C115 H89 0.950 . S
C115 C114 1.414 . S
C115 C116 1.374 . S
C116 H90 0.950 . S
C116 C112 1.385 . S
C116 C115 1.374 . S
C117 C114 1.499 . S
C117 C118 1.373 . S
C117 C119 1.389 . S
C118 H91 0.950 . S
C118 C104 1.377 1_565 S
C118 C117 1.373 . S
C119 C103 1.377 1_565 S
C119 C117 1.389 . S
C119 C120 1.524 . S
C120 C119 1.524 . S
C120 C121 1.397 . S
C120 C125 1.363 . S
C121 H92 0.950 . S
C121 C120 1.397 . S
C121 C122 1.334 . S
C122 H93 0.950 . S
C122 C121 1.334 . S
C122 C123 1.287 . S
C123 C122 1.287 . S
C123 C124 1.524 . S
C123 H126 0.999 . S
C124 H94 0.950 . S
C124 C123 1.524 . S
C124 C125 1.415 . S
C125 H95 0.950 . S
C125 C120 1.363 . S
C125 C124 1.415 . S
H126 C123 0.999 . S
H127 C108 0.913 . S
H128 C146 0.951 . S
H129 C148 0.951 . S
H130 C150 0.950 . S
H131 C151 0.950 . S
H132 C153 0.950 . S
H133 C156 0.950 . S
H134 C157 0.950 . S
H135 C159 0.950 . S
H136 C160 0.950 . S
H137 C161 0.951 . S
H138 C163 0.951 . S
H139 C165 0.950 . S
H140 C166 0.950 . S
H141 C168 0.950 . S
H142 C171 0.950 . S
H143 C172 0.950 . S
H144 C174 0.950 . S
H145 C175 0.950 . S
C146 H128 0.951 . S
C146 C147 1.366 . S
C146 C148 1.388 . S
C147 C146 1.366 . S
C147 C151 1.385 . S
C148 H129 0.951 . S
C148 C146 1.388 . S
C148 C149 1.366 . S
C149 C148 1.366 . S
C149 C150 1.414 . S
C149 C152 1.499 . S
C150 H130 0.950 . S
C150 C149 1.414 . S
C150 C151 1.374 . S
C151 H131 0.950 . S
C151 C147 1.385 . S
C151 C150 1.374 . S
C152 C149 1.499 . S
C152 C153 1.373 . S
C152 C154 1.389 . S
C153 H132 0.950 . S
C153 C152 1.373 . S
C153 C169 1.377 . S
C154 C152 1.389 . S
C154 C155 1.524 . S
C154 C168 1.377 . S
C155 C154 1.524 . S
C155 C156 1.397 . S
C155 C160 1.363 . S
C156 H133 0.950 . S
C156 C155 1.397 . S
C156 C157 1.334 . S
C157 H134 0.950 . S
C157 C156 1.334 . S
C157 C158 1.287 . S
C158 C157 1.287 . S
C158 C159 1.524 . S
C158 H177 0.913 . S
C159 H135 0.950 . S
C159 C158 1.524 . S
C159 C160 1.415 . S
C160 H136 0.950 . S
C160 C155 1.363 . S
C160 C159 1.415 . S
C161 H137 0.951 . S
C161 C162 1.366 . S
C161 C163 1.388 . S
C162 C161 1.366 . S
C162 C166 1.385 . S
C163 H138 0.951 . S
C163 C161 1.388 . S
C163 C164 1.366 . S
C164 C163 1.366 . S
C164 C165 1.414 . S
C164 C167 1.499 . S
C165 H139 0.950 . S
C165 C164 1.414 . S
C165 C166 1.374 . S
C166 H140 0.950 . S
C166 C162 1.385 . S
C166 C165 1.374 . S
C167 C164 1.499 . S
C167 C168 1.373 . S
C167 C169 1.389 . S
C168 H141 0.950 . S
C168 C154 1.377 . S
C168 C167 1.373 . S
C169 C153 1.377 . S
C169 C167 1.389 . S
C169 C170 1.524 . S
C170 C169 1.524 . S
C170 C171 1.397 . S
C170 C175 1.363 . S
C171 H142 0.950 . S
C171 C170 1.397 . S
C171 C172 1.334 . S
C172 H143 0.950 . S
C172 C171 1.334 . S
C172 C173 1.287 . S
C173 C172 1.287 . S
C173 C174 1.524 . S
C173 H176 0.999 . S
C174 H144 0.950 . S
C174 C173 1.524 . S
C174 C175 1.415 . S
C175 H145 0.950 . S
C175 C170 1.363 . S
C175 C174 1.415 . S
H176 C173 0.999 . S
H177 C158 0.913 . S
H178 C196 0.951 . S
H179 C198 0.951 . S
H180 C200 0.950 . S
H181 C201 0.950 . S
H182 C203 0.950 . S
H183 C206 0.950 . S
H184 C207 0.950 . S
H185 C209 0.950 . S
H186 C210 0.950 . S
H187 C211 0.951 . S
H188 C213 0.951 . S
H189 C215 0.950 . S
H190 C216 0.950 . S
H191 C218 0.950 . S
H192 C221 0.950 . S
H193 C222 0.950 . S
H194 C224 0.950 . S
H195 C225 0.950 . S
C196 H178 0.951 . S
C196 C197 1.366 . S
C196 C198 1.388 . S
C197 C196 1.366 . S
C197 C201 1.385 . S
C198 H179 0.951 . S
C198 C196 1.388 . S
C198 C199 1.366 . S
C199 C198 1.366 . S
C199 C200 1.414 . S
C199 C202 1.499 . S
C200 H180 0.950 . S
C200 C199 1.414 . S
C200 C201 1.374 . S
C201 H181 0.950 . S
C201 C197 1.385 . S
C201 C200 1.374 . S
C202 C199 1.499 . S
C202 C203 1.373 . S
C202 C204 1.389 . S
C203 H182 0.950 . S
C203 C202 1.373 . S
C203 C219 1.377 1_655 S
C204 C202 1.389 . S
C204 C205 1.524 . S
C204 C218 1.377 1_655 S
C205 C204 1.524 . S
C205 C206 1.397 . S
C205 C210 1.363 1_655 S
C206 H183 0.950 . S
C206 C205 1.397 . S
C206 C207 1.334 . S
C207 H184 0.950 . S
C207 C206 1.334 . S
C207 C208 1.287 . S
C208 C207 1.287 . S
C208 C209 1.524 1_655 S
C208 H227 0.913 . S
C209 H185 0.950 . S
C209 C208 1.524 1_455 S
C209 C210 1.415 . S
C210 H186 0.950 . S
C210 C205 1.363 1_455 S
C210 C209 1.415 . S
C211 H187 0.951 . S
C211 C212 1.366 . S
C211 C213 1.388 . S
C212 C211 1.366 . S
C212 C216 1.385 . S
C213 H188 0.951 . S
C213 C211 1.388 . S
C213 C214 1.366 . S
C214 C213 1.366 . S
C214 C215 1.414 . S
C214 C217 1.499 . S
C215 H189 0.950 . S
C215 C214 1.414 . S
C215 C216 1.374 . S
C216 H190 0.950 . S
C216 C212 1.385 . S
C216 C215 1.374 . S
C217 C214 1.499 . S
C217 C218 1.373 . S
C217 C219 1.389 . S
C218 H191 0.950 . S
C218 C204 1.377 1_455 S
C218 C217 1.373 . S
C219 C203 1.377 1_455 S
C219 C217 1.389 . S
C219 C220 1.524 . S
C220 C219 1.524 . S
C220 C221 1.397 . S
C220 C225 1.363 1_455 S
C221 H192 0.950 . S
C221 C220 1.397 . S
C221 C222 1.334 . S
C222 H193 0.950 . S
C222 C221 1.334 . S
C222 C223 1.287 . S
C223 C222 1.287 . S
C223 C224 1.524 1_455 S
C223 H226 0.999 . S
C224 H194 0.950 . S
C224 C223 1.524 1_655 S
C224 C225 1.415 . S
C225 H195 0.950 . S
C225 C220 1.363 1_655 S
C225 C224 1.415 . S
H226 C223 0.999 . S
H227 C208 0.913 . S
H228 C246 0.951 . S
H229 C248 0.951 . S
H230 C250 0.950 . S
H231 C251 0.950 . S
H232 C253 0.950 . S
H233 C256 0.950 . S
H234 C257 0.950 . S
H235 C259 0.950 . S
H236 C260 0.950 . S
H237 C261 0.951 . S
H238 C263 0.951 . S
H239 C265 0.950 . S
H240 C266 0.950 . S
H241 C268 0.950 . S
H242 C271 0.950 . S
H243 C272 0.950 . S
H244 C274 0.950 . S
H245 C275 0.950 . S
C246 H228 0.951 . S
C246 C247 1.366 . S
C246 C248 1.388 . S
C247 C246 1.366 . S
C247 C251 1.385 . S
C248 H229 0.951 . S
C248 C246 1.388 . S
C248 C249 1.366 . S
C249 C248 1.366 . S
C249 C250 1.414 . S
C249 C252 1.499 . S
C250 H230 0.950 . S
C250 C249 1.414 . S
C250 C251 1.374 . S
C251 H231 0.950 . S
C251 C247 1.385 . S
C251 C250 1.374 . S
C252 C249 1.499 . S
C252 C253 1.373 . S
C252 C254 1.389 . S
C253 H232 0.950 . S
C253 C252 1.373 . S
C253 C269 1.377 1_455 S
C254 C252 1.389 . S
C254 C255 1.524 . S
C254 C268 1.377 1_455 S
C255 C254 1.524 . S
C255 C256 1.397 . S
C255 C260 1.363 1_455 S
C256 H233 0.950 . S
C256 C255 1.397 . S
C256 C257 1.334 . S
C257 H234 0.950 . S
C257 C256 1.334 . S
C257 C258 1.287 . S
C258 C257 1.287 . S
C258 C259 1.524 1_455 S
C258 H277 0.913 . S
C259 H235 0.950 . S
C259 C258 1.524 1_655 S
C259 C260 1.415 . S
C260 H236 0.950 . S
C260 C255 1.363 1_655 S
C260 C259 1.415 . S
C261 H237 0.951 . S
C261 C262 1.366 . S
C261 C263 1.388 . S
C262 C261 1.366 . S
C262 C266 1.385 . S
C263 H238 0.951 . S
C263 C261 1.388 . S
C263 C264 1.366 . S
C264 C263 1.366 . S
C264 C265 1.414 . S
C264 C267 1.499 . S
C265 H239 0.950 . S
C265 C264 1.414 . S
C265 C266 1.374 . S
C266 H240 0.950 . S
C266 C262 1.385 . S
C266 C265 1.374 . S
C267 C264 1.499 . S
C267 C268 1.373 . S
C267 C269 1.389 . S
C268 H241 0.950 . S
C268 C254 1.377 1_655 S
C268 C267 1.373 . S
C269 C253 1.377 1_655 S
C269 C267 1.389 . S
C269 C270 1.524 . S
C270 C269 1.524 . S
C270 C271 1.397 . S
C270 C275 1.363 1_655 S
C271 H242 0.950 . S
C271 C270 1.397 . S
C271 C272 1.334 . S
C272 H243 0.950 . S
C272 C271 1.334 . S
C272 C273 1.287 . S
C273 C272 1.287 . S
C273 C274 1.524 1_655 S
C273 H276 0.999 . S
C274 H244 0.950 . S
C274 C273 1.524 1_455 S
C274 C275 1.415 . S
C275 H245 0.950 . S
C275 C270 1.363 1_455 S
C275 C274 1.415 . S
H276 C273 0.999 . S
H277 C258 0.913 . S
H278 C296 0.951 . S
H279 C298 0.951 . S
H280 C300 0.950 . S
H281 C301 0.950 . S
H282 C303 0.950 . S
H283 C306 0.950 . S
H284 C307 0.950 . S
H285 C309 0.950 . S
H286 C310 0.950 . S
H287 C311 0.951 . S
H288 C313 0.951 . S
H289 C315 0.950 . S
H290 C316 0.950 . S
H291 C318 0.950 . S
H292 C321 0.950 . S
H293 C322 0.950 . S
H294 C324 0.950 . S
H295 C325 0.950 . S
C296 H278 0.951 . S
C296 C297 1.366 . S
C296 C298 1.388 . S
C297 C296 1.366 . S
C297 C301 1.385 . S
C298 H279 0.951 . S
C298 C296 1.388 . S
C298 C299 1.366 . S
C299 C298 1.366 . S
C299 C300 1.414 . S
C299 C302 1.499 . S
C300 H280 0.950 . S
C300 C299 1.414 . S
C300 C301 1.374 . S
C301 H281 0.950 . S
C301 C297 1.385 . S
C301 C300 1.374 . S
C302 C299 1.499 . S
C302 C303 1.373 . S
C302 C304 1.389 . S
C303 H282 0.950 . S
C303 C302 1.373 . S
C303 C319 1.377 1_565 S
C304 C302 1.389 . S
C304 C305 1.524 . S
C304 C318 1.377 1_565 S
C305 C304 1.524 . S
C305 C306 1.397 . S
C305 C310 1.363 1_565 S
C306 H283 0.950 . S
C306 C305 1.397 . S
C306 C307 1.334 . S
C307 H284 0.950 . S
C307 C306 1.334 . S
C307 C308 1.287 . S
C308 C307 1.287 . S
C308 C309 1.524 1_565 S
C308 H327 0.913 . S
C309 H285 0.950 . S
C309 C308 1.524 1_545 S
C309 C310 1.415 . S
C310 H286 0.950 . S
C310 C305 1.363 1_545 S
C310 C309 1.415 . S
C311 H287 0.951 . S
C311 C312 1.366 . S
C311 C313 1.388 . S
C312 C311 1.366 . S
C312 C316 1.385 . S
C313 H288 0.951 . S
C313 C311 1.388 . S
C313 C314 1.366 . S
C314 C313 1.366 . S
C314 C315 1.414 . S
C314 C317 1.499 . S
C315 H289 0.950 . S
C315 C314 1.414 . S
C315 C316 1.374 . S
C316 H290 0.950 . S
C316 C312 1.385 . S
C316 C315 1.374 . S
C317 C314 1.499 . S
C317 C318 1.373 . S
C317 C319 1.389 . S
C318 H291 0.950 . S
C318 C304 1.377 1_545 S
C318 C317 1.373 . S
C319 C303 1.377 1_545 S
C319 C317 1.389 . S
C319 C320 1.524 . S
C320 C319 1.524 . S
C320 C321 1.397 . S
C320 C325 1.363 1_545 S
C321 H292 0.950 . S
C321 C320 1.397 . S
C321 C322 1.334 . S
C322 H293 0.950 . S
C322 C321 1.334 . S
C322 C323 1.287 . S
C323 C322 1.287 . S
C323 C324 1.524 1_545 S
C323 H326 0.999 . S
C324 H294 0.950 . S
C324 C323 1.524 1_565 S
C324 C325 1.415 . S
C325 H295 0.950 . S
C325 C320 1.363 1_565 S
C325 C324 1.415 . S
H326 C323 0.999 . S
H327 C308 0.913 . S
H328 C346 0.951 . S
H329 C348 0.951 . S
H330 C350 0.950 . S
H331 C351 0.950 . S
H332 C353 0.950 . S
H333 C356 0.950 . S
H334 C357 0.950 . S
H335 C359 0.950 . S
H336 C360 0.950 . S
H337 C361 0.951 . S
H338 C363 0.951 . S
H339 C365 0.950 . S
H340 C366 0.950 . S
H341 C368 0.950 . S
H342 C371 0.950 . S
H343 C372 0.950 . S
H344 C374 0.950 . S
H345 C375 0.950 . S
C346 H328 0.951 . S
C346 C347 1.366 . S
C346 C348 1.388 . S
C347 C346 1.366 . S
C347 C351 1.385 . S
C348 H329 0.951 . S
C348 C346 1.388 . S
C348 C349 1.366 . S
C349 C348 1.366 . S
C349 C350 1.414 . S
C349 C352 1.499 . S
C350 H330 0.950 . S
C350 C349 1.414 . S
C350 C351 1.374 . S
C351 H331 0.950 . S
C351 C347 1.385 . S
C351 C350 1.374 . S
C352 C349 1.499 . S
C352 C353 1.373 . S
C352 C354 1.389 . S
C353 H332 0.950 . S
C353 C352 1.373 . S
C353 C369 1.377 . S
C354 C352 1.389 . S
C354 C355 1.524 . S
C354 C368 1.377 . S
C355 C354 1.524 . S
C355 C356 1.397 . S
C355 C360 1.363 . S
C356 H333 0.950 . S
C356 C355 1.397 . S
C356 C357 1.334 . S
C357 H334 0.950 . S
C357 C356 1.334 . S
C357 C358 1.287 . S
C358 C357 1.287 . S
C358 C359 1.524 . S
C358 H377 0.913 . S
C359 H335 0.950 . S
C359 C358 1.524 . S
C359 C360 1.415 . S
C360 H336 0.950 . S
C360 C355 1.363 . S
C360 C359 1.415 . S
C361 H337 0.951 . S
C361 C362 1.366 . S
C361 C363 1.388 . S
C362 C361 1.366 . S
C362 C366 1.385 . S
C363 H338 0.951 . S
C363 C361 1.388 . S
C363 C364 1.366 . S
C364 C363 1.366 . S
C364 C365 1.414 . S
C364 C367 1.499 . S
C365 H339 0.950 . S
C365 C364 1.414 . S
C365 C366 1.374 . S
C366 H340 0.950 . S
C366 C362 1.385 . S
C366 C365 1.374 . S
C367 C364 1.499 . S
C367 C368 1.373 . S
C367 C369 1.389 . S
C368 H341 0.950 . S
C368 C354 1.377 . S
C368 C367 1.373 . S
C369 C353 1.377 . S
C369 C367 1.389 . S
C369 C370 1.524 . S
C370 C369 1.524 . S
C370 C371 1.397 . S
C370 C375 1.363 . S
C371 H342 0.950 . S
C371 C370 1.397 . S
C371 C372 1.334 . S
C372 H343 0.950 . S
C372 C371 1.334 . S
C372 C373 1.287 . S
C373 C372 1.287 . S
C373 C374 1.524 . S
C373 H376 0.999 . S
C374 H344 0.950 . S
C374 C373 1.524 . S
C374 C375 1.415 . S
C375 H345 0.950 . S
C375 C370 1.363 . S
C375 C374 1.415 . S
H376 C373 0.999 . S
H377 C358 0.913 . S
H378 C396 0.951 . S
H379 C398 0.951 . S
H380 C400 0.950 . S
H381 C401 0.950 . S
H382 C403 0.950 . S
H383 C406 0.950 . S
H384 C407 0.950 . S
H385 C409 0.950 . S
H386 C410 0.950 1_554 S
H387 C411 0.951 . S
H388 C413 0.951 . S
H389 C415 0.950 . S
H390 C416 0.950 . S
H391 C418 0.950 . S
H392 C421 0.950 . S
H393 C422 0.950 . S
H394 C424 0.950 . S
H395 C425 0.950 1_556 S
C396 H378 0.951 . S
C396 C397 1.366 . S
C396 C398 1.388 . S
C397 C396 1.366 . S
C397 C401 1.385 . S
C398 H379 0.951 . S
C398 C396 1.388 . S
C398 C399 1.366 . S
C399 C398 1.366 . S
C399 C400 1.414 . S
C399 C402 1.499 . S
C400 H380 0.950 . S
C400 C399 1.414 . S
C400 C401 1.374 . S
C401 H381 0.950 . S
C401 C397 1.385 . S
C401 C400 1.374 . S
C402 C399 1.499 . S
C402 C403 1.373 . S
C402 C404 1.389 . S
C403 H382 0.950 . S
C403 C402 1.373 . S
C403 C419 1.377 1_556 S
C404 C402 1.389 . S
C404 C405 1.524 . S
C404 C418 1.377 1_556 S
C405 C404 1.524 . S
C405 C406 1.397 . S
C405 C410 1.363 . S
C406 H383 0.950 . S
C406 C405 1.397 . S
C406 C407 1.334 . S
C407 H384 0.950 . S
C407 C406 1.334 . S
C407 C408 1.287 . S
C408 C407 1.287 . S
C408 C409 1.524 . S
C408 H427 0.913 . S
C409 H385 0.950 . S
C409 C408 1.524 . S
C409 C410 1.415 . S
C410 H386 0.950 1_556 S
C410 C405 1.363 . S
C410 C409 1.415 . S
C411 H387 0.951 . S
C411 C412 1.366 . S
C411 C413 1.388 . S
C412 C411 1.366 . S
C412 C416 1.385 . S
C413 H388 0.951 . S
C413 C411 1.388 . S
C413 C414 1.366 . S
C414 C413 1.366 . S
C414 C415 1.414 . S
C414 C417 1.499 . S
C415 H389 0.950 . S
C415 C414 1.414 . S
C415 C416 1.374 . S
C416 H390 0.950 . S
C416 C412 1.385 . S
C416 C415 1.374 . S
C417 C414 1.499 . S
C417 C418 1.373 . S
C417 C419 1.389 . S
C418 H391 0.950 . S
C418 C404 1.377 1_554 S
C418 C417 1.373 . S
C419 C403 1.377 1_554 S
C419 C417 1.389 . S
C419 C420 1.524 . S
C420 C419 1.524 . S
C420 C421 1.397 . S
C420 C425 1.363 . S
C421 H392 0.950 . S
C421 C420 1.397 . S
C421 C422 1.334 . S
C422 H393 0.950 . S
C422 C421 1.334 . S
C422 C423 1.287 . S
C423 C422 1.287 . S
C423 C424 1.524 . S
C423 H426 0.999 . S
C424 H394 0.950 . S
C424 C423 1.524 . S
C424 C425 1.415 . S
C425 H395 0.950 1_554 S
C425 C420 1.363 . S
C425 C424 1.415 . S
H426 C423 0.999 . S
H427 C408 0.913 . S
H428 C446 0.951 . S
H429 C448 0.951 . S
H430 C450 0.950 . S
H431 C451 0.950 . S
H432 C453 0.950 . S
H433 C456 0.950 . S
H434 C457 0.950 . S
H435 C459 0.950 . S
H436 C460 0.950 . S
H437 C461 0.951 . S
H438 C463 0.951 . S
H439 C465 0.950 . S
H440 C466 0.950 . S
H441 C468 0.950 . S
H442 C471 0.950 . S
H443 C472 0.950 . S
H444 C474 0.950 . S
H445 C475 0.950 . S
C446 H428 0.951 . S
C446 C447 1.366 . S
C446 C448 1.388 . S
C447 C446 1.366 . S
C447 C451 1.385 . S
C448 H429 0.951 . S
C448 C446 1.388 . S
C448 C449 1.366 . S
C449 C448 1.366 . S
C449 C450 1.414 . S
C449 C452 1.499 . S
C450 H430 0.950 . S
C450 C449 1.414 . S
C450 C451 1.374 . S
C451 H431 0.950 . S
C451 C447 1.385 . S
C451 C450 1.374 . S
C452 C449 1.499 . S
C452 C453 1.373 . S
C452 C454 1.389 . S
C453 H432 0.950 . S
C453 C452 1.373 . S
C453 C469 1.377 . S
C454 C452 1.389 . S
C454 C455 1.524 . S
C454 C468 1.377 . S
C455 C454 1.524 . S
C455 C456 1.397 . S
C455 C460 1.363 . S
C456 H433 0.950 . S
C456 C455 1.397 . S
C456 C457 1.334 . S
C457 H434 0.950 . S
C457 C456 1.334 . S
C457 C458 1.287 . S
C458 C457 1.287 . S
C458 C459 1.524 . S
C458 H477 0.913 . S
C459 H435 0.950 . S
C459 C458 1.524 . S
C459 C460 1.415 . S
C460 H436 0.950 . S
C460 C455 1.363 . S
C460 C459 1.415 . S
C461 H437 0.951 . S
C461 C462 1.366 . S
C461 C463 1.388 . S
C462 C461 1.366 . S
C462 C466 1.385 . S
C463 H438 0.951 . S
C463 C461 1.388 . S
C463 C464 1.366 . S
C464 C463 1.366 . S
C464 C465 1.414 . S
C464 C467 1.499 . S
C465 H439 0.950 . S
C465 C464 1.414 . S
C465 C466 1.374 . S
C466 H440 0.950 . S
C466 C462 1.385 . S
C466 C465 1.374 . S
C467 C464 1.499 . S
C467 C468 1.373 . S
C467 C469 1.389 . S
C468 H441 0.950 . S
C468 C454 1.377 . S
C468 C467 1.373 . S
C469 C453 1.377 . S
C469 C467 1.389 . S
C469 C470 1.524 . S
C470 C469 1.524 . S
C470 C471 1.397 . S
C470 C475 1.363 . S
C471 H442 0.950 . S
C471 C470 1.397 . S
C471 C472 1.334 . S
C472 H443 0.950 . S
C472 C471 1.334 . S
C472 C473 1.287 . S
C473 C472 1.287 . S
C473 C474 1.524 . S
C473 H476 0.999 . S
C474 H444 0.950 . S
C474 C473 1.524 . S
C474 C475 1.415 . S
C475 H445 0.950 . S
C475 C470 1.363 . S
C475 C474 1.415 . S
H476 C473 0.999 . S
H477 C458 0.913 . S
H478 C496 0.951 . S
H479 C498 0.951 . S
H480 C500 0.950 . S
H481 C501 0.950 . S
H482 C503 0.950 . S
H483 C506 0.950 . S
H484 C507 0.950 . S
H485 C509 0.950 . S
H486 C510 0.950 . S
H487 C511 0.951 . S
H488 C513 0.951 . S
H489 C515 0.950 . S
H490 C516 0.950 . S
H491 C518 0.950 . S
H492 C521 0.950 . S
H493 C522 0.950 . S
H494 C524 0.950 . S
H495 C525 0.950 . S
C496 H478 0.951 . S
C496 C497 1.366 . S
C496 C498 1.388 . S
C497 C496 1.366 . S
C497 C501 1.385 . S
C498 H479 0.951 . S
C498 C496 1.388 . S
C498 C499 1.366 . S
C499 C498 1.366 . S
C499 C500 1.414 . S
C499 C502 1.499 . S
C500 H480 0.950 . S
C500 C499 1.414 . S
C500 C501 1.374 . S
C501 H481 0.950 . S
C501 C497 1.385 . S
C501 C500 1.374 . S
C502 C499 1.499 . S
C502 C503 1.373 . S
C502 C504 1.389 . S
C503 H482 0.950 . S
C503 C502 1.373 . S
C503 C519 1.377 . S
C504 C502 1.389 . S
C504 C505 1.524 . S
C504 C518 1.377 . S
C505 C504 1.524 . S
C505 C506 1.397 . S
C505 C510 1.363 . S
C506 H483 0.950 . S
C506 C505 1.397 . S
C506 C507 1.334 . S
C507 H484 0.950 . S
C507 C506 1.334 . S
C507 C508 1.287 . S
C508 C507 1.287 . S
C508 C509 1.524 . S
C508 H527 0.913 . S
C509 H485 0.950 . S
C509 C508 1.524 . S
C509 C510 1.415 . S
C510 H486 0.950 . S
C510 C505 1.363 . S
C510 C509 1.415 . S
C511 H487 0.951 . S
C511 C512 1.366 . S
C511 C513 1.388 . S
C512 C511 1.366 . S
C512 C516 1.385 . S
C513 H488 0.951 . S
C513 C511 1.388 . S
C513 C514 1.366 . S
C514 C513 1.366 . S
C514 C515 1.414 . S
C514 C517 1.499 . S
C515 H489 0.950 . S
C515 C514 1.414 . S
C515 C516 1.374 . S
C516 H490 0.950 . S
C516 C512 1.385 . S
C516 C515 1.374 . S
C517 C514 1.499 . S
C517 C518 1.373 . S
C517 C519 1.389 . S
C518 H491 0.950 . S
C518 C504 1.377 . S
C518 C517 1.373 . S
C519 C503 1.377 . S
C519 C517 1.389 . S
C519 C520 1.524 . S
C520 C519 1.524 . S
C520 C521 1.397 . S
C520 C525 1.363 . S
C521 H492 0.950 . S
C521 C520 1.397 . S
C521 C522 1.334 . S
C522 H493 0.950 . S
C522 C521 1.334 . S
C522 C523 1.287 . S
C523 C522 1.287 . S
C523 C524 1.524 . S
C523 H526 0.999 . S
C524 H494 0.950 . S
C524 C523 1.524 . S
C524 C525 1.415 . S
C525 H495 0.950 . S
C525 C520 1.363 . S
C525 C524 1.415 . S
H526 C523 0.999 . S
H527 C508 0.913 . S
H528 C546 0.951 . S
H529 C548 0.951 . S
H530 C550 0.950 . S
H531 C551 0.950 . S
H532 C553 0.950 . S
H533 C556 0.950 . S
H534 C557 0.950 . S
H535 C559 0.950 . S
H536 C560 0.950 . S
H537 C561 0.951 . S
H538 C563 0.951 . S
H539 C565 0.950 . S
H540 C566 0.950 . S
H541 C568 0.950 . S
H542 C571 0.950 . S
H543 C572 0.950 . S
H544 C574 0.950 . S
H545 C575 0.950 . S
C546 H528 0.951 . S
C546 C547 1.366 . S
C546 C548 1.388 . S
C547 C546 1.366 . S
C547 C551 1.385 . S
C548 H529 0.951 . S
C548 C546 1.388 . S
C548 C549 1.366 . S
C549 C548 1.366 . S
C549 C550 1.414 . S
C549 C552 1.499 . S
C550 H530 0.950 . S
C550 C549 1.414 . S
C550 C551 1.374 . S
C551 H531 0.950 . S
C551 C547 1.385 . S
C551 C550 1.374 . S
C552 C549 1.499 . S
C552 C553 1.373 . S
C552 C554 1.389 . S
C553 H532 0.950 . S
C553 C552 1.373 . S
C553 C569 1.377 1_556 S
C554 C552 1.389 . S
C554 C555 1.524 . S
C554 C568 1.377 1_556 S
C555 C554 1.524 . S
C555 C556 1.397 . S
C555 C560 1.363 . S
C556 H533 0.950 . S
C556 C555 1.397 . S
C556 C557 1.334 . S
C557 H534 0.950 . S
C557 C556 1.334 . S
C557 C558 1.287 . S
C558 C557 1.287 . S
C558 C559 1.524 . S
C558 H577 0.913 . S
C559 H535 0.950 . S
C559 C558 1.524 . S
C559 C560 1.415 . S
C560 H536 0.950 . S
C560 C555 1.363 . S
C560 C559 1.415 . S
C561 H537 0.951 . S
C561 C562 1.366 . S
C561 C563 1.388 . S
C562 C561 1.366 . S
C562 C566 1.385 . S
C563 H538 0.951 . S
C563 C561 1.388 . S
C563 C564 1.366 . S
C564 C563 1.366 . S
C564 C565 1.414 . S
C564 C567 1.499 . S
C565 H539 0.950 . S
C565 C564 1.414 . S
C565 C566 1.374 . S
C566 H540 0.950 . S
C566 C562 1.385 . S
C566 C565 1.374 . S
C567 C564 1.499 . S
C567 C568 1.373 . S
C567 C569 1.389 . S
C568 H541 0.950 . S
C568 C554 1.377 1_554 S
C568 C567 1.373 . S
C569 C553 1.377 1_554 S
C569 C567 1.389 . S
C569 C570 1.524 . S
C570 C569 1.524 . S
C570 C571 1.397 . S
C570 C575 1.363 . S
C571 H542 0.950 . S
C571 C570 1.397 . S
C571 C572 1.334 . S
C572 H543 0.950 . S
C572 C571 1.334 . S
C572 C573 1.287 . S
C573 C572 1.287 . S
C573 C574 1.524 . S
C573 H576 0.999 . S
C574 H544 0.950 . S
C574 C573 1.524 . S
C574 C575 1.415 . S
C575 H545 0.950 . S
C575 C570 1.363 . S
C575 C574 1.415 . S
H576 C573 0.999 . S
H577 C558 0.913 . S
H578 C596 0.951 . S
H579 C598 0.951 . S
H580 C600 0.950 . S
H581 C601 0.950 . S
H582 C603 0.950 . S
H583 C606 0.950 . S
H584 C607 0.950 . S
H585 C609 0.950 . S
H586 C610 0.950 . S
H587 C611 0.951 . S
H588 C613 0.951 . S
H589 C615 0.950 . S
H590 C616 0.950 . S
H591 C618 0.950 . S
H592 C621 0.950 . S
H593 C622 0.950 . S
H594 C624 0.950 . S
H595 C625 0.950 . S
C596 H578 0.951 . S
C596 C597 1.366 . S
C596 C598 1.388 . S
C597 C596 1.366 . S
C597 C601 1.385 . S
C598 H579 0.951 . S
C598 C596 1.388 . S
C598 C599 1.366 . S
C599 C598 1.366 . S
C599 C600 1.414 . S
C599 C602 1.499 . S
C600 H580 0.950 . S
C600 C599 1.414 . S
C600 C601 1.374 . S
C601 H581 0.950 . S
C601 C597 1.385 . S
C601 C600 1.374 . S
C602 C599 1.499 . S
C602 C603 1.373 . S
C602 C604 1.389 . S
C603 H582 0.950 . S
C603 C602 1.373 . S
C603 C619 1.377 . S
C604 C602 1.389 . S
C604 C605 1.524 . S
C604 C618 1.377 . S
C605 C604 1.524 . S
C605 C606 1.397 . S
C605 C610 1.363 . S
C606 H583 0.950 . S
C606 C605 1.397 . S
C606 C607 1.334 . S
C607 H584 0.950 . S
C607 C606 1.334 . S
C607 C608 1.287 . S
C608 C607 1.287 . S
C608 C609 1.524 . S
C608 H627 0.913 . S
C609 H585 0.950 . S
C609 C608 1.524 . S
C609 C610 1.415 . S
C610 H586 0.950 . S
C610 C605 1.363 . S
C610 C609 1.415 . S
C611 H587 0.951 . S
C611 C612 1.366 . S
C611 C613 1.388 . S
C612 C611 1.366 . S
C612 C616 1.385 . S
C613 H588 0.951 . S
C613 C611 1.388 . S
C613 C614 1.366 . S
C614 C613 1.366 . S
C614 C615 1.414 . S
C614 C617 1.499 . S
C615 H589 0.950 . S
C615 C614 1.414 . S
C615 C616 1.374 . S
C616 H590 0.950 . S
C616 C612 1.385 . S
C616 C615 1.374 . S
C617 C614 1.499 . S
C617 C618 1.373 . S
C617 C619 1.389 . S
C618 H591 0.950 . S
C618 C604 1.377 . S
C618 C617 1.373 . S
C619 C603 1.377 . S
C619 C617 1.389 . S
C619 C620 1.524 . S
C620 C619 1.524 . S
C620 C621 1.397 . S
C620 C625 1.363 . S
C621 H592 0.950 . S
C621 C620 1.397 . S
C621 C622 1.334 . S
C622 H593 0.950 . S
C622 C621 1.334 . S
C622 C623 1.287 . S
C623 C622 1.287 . S
C623 C624 1.524 . S
C623 H626 0.999 . S
C624 H594 0.950 . S
C624 C623 1.524 . S
C624 C625 1.415 . S
C625 H595 0.950 . S
C625 C620 1.363 . S
C625 C624 1.415 . S
H626 C623 0.999 . S
H627 C608 0.913 . S
H628 C646 0.951 . S
H629 C648 0.951 . S
H630 C650 0.950 . S
H631 C651 0.950 . S
H632 C653 0.950 . S
H633 C656 0.950 . S
H634 C657 0.950 . S
H635 C659 0.950 . S
H636 C660 0.950 . S
H637 C661 0.951 . S
H638 C663 0.951 . S
H639 C665 0.950 . S
H640 C666 0.950 . S
H641 C668 0.950 . S
H642 C671 0.950 . S
H643 C672 0.950 . S
H644 C674 0.950 . S
H645 C675 0.950 . S
C646 H628 0.951 . S
C646 C647 1.366 . S
C646 C648 1.388 . S
C647 C646 1.366 . S
C647 C651 1.385 . S
C648 H629 0.951 . S
C648 C646 1.388 . S
C648 C649 1.366 . S
C649 C648 1.366 . S
C649 C650 1.414 . S
C649 C652 1.499 . S
C650 H630 0.950 . S
C650 C649 1.414 . S
C650 C651 1.374 . S
C651 H631 0.950 . S
C651 C647 1.385 . S
C651 C650 1.374 . S
C652 C649 1.499 . S
C652 C653 1.373 . S
C652 C654 1.389 . S
C653 H632 0.950 . S
C653 C652 1.373 . S
C653 C669 1.377 . S
C654 C652 1.389 . S
C654 C655 1.524 . S
C654 C668 1.377 . S
C655 C654 1.524 . S
C655 C656 1.397 . S
C655 C660 1.363 . S
C656 H633 0.950 . S
C656 C655 1.397 . S
C656 C657 1.334 . S
C657 H634 0.950 . S
C657 C656 1.334 . S
C657 C658 1.287 . S
C658 C657 1.287 . S
C658 C659 1.524 . S
C658 H677 0.913 . S
C659 H635 0.950 . S
C659 C658 1.524 . S
C659 C660 1.415 . S
C660 H636 0.950 . S
C660 C655 1.363 . S
C660 C659 1.415 . S
C661 H637 0.951 . S
C661 C662 1.366 . S
C661 C663 1.388 . S
C662 C661 1.366 . S
C662 C666 1.385 . S
C663 H638 0.951 . S
C663 C661 1.388 . S
C663 C664 1.366 . S
C664 C663 1.366 . S
C664 C665 1.414 . S
C664 C667 1.499 . S
C665 H639 0.950 . S
C665 C664 1.414 . S
C665 C666 1.374 . S
C666 H640 0.950 . S
C666 C662 1.385 . S
C666 C665 1.374 . S
C667 C664 1.499 . S
C667 C668 1.373 . S
C667 C669 1.389 . S
C668 H641 0.950 . S
C668 C654 1.377 . S
C668 C667 1.373 . S
C669 C653 1.377 . S
C669 C667 1.389 . S
C669 C670 1.524 . S
C670 C669 1.524 . S
C670 C671 1.397 . S
C670 C675 1.363 . S
C671 H642 0.950 . S
C671 C670 1.397 . S
C671 C672 1.334 . S
C672 H643 0.950 . S
C672 C671 1.334 . S
C672 C673 1.287 . S
C673 C672 1.287 . S
C673 C674 1.524 . S
C673 H676 0.999 . S
C674 H644 0.950 . S
C674 C673 1.524 . S
C674 C675 1.415 . S
C675 H645 0.950 . S
C675 C670 1.363 . S
C675 C674 1.415 . S
H676 C673 0.999 . S
H677 C658 0.913 . S
C97 C3 1.366 . S
C112 C42 1.366 . S
C147 C18 1.366 . S
C162 C55 1.366 . S
C197 C31 1.365 . S
C212 C68 1.365 . S
C247 C17 1.340 . S
C262 C62 1.340 . S
C297 C75 1.340 . S
C312 C30 1.340 . S
C347 C49 1.341 . S
C362 C10 1.341 . S
C397 C36 1.286 . S
C412 C5 1.285 . S
C447 C43 1.285 . S
C462 C16 1.284 . S
C497 C29 1.284 . S
C512 C56 1.285 . S
C547 C69 1.285 . S
C562 C44 1.284 . S
C597 C57 1.284 . S
C612 C4 1.285 . S
C647 C70 1.284 . S
C662 C23 1.286 . S
