# Generated by pormake.
# Topology ukx, (4)-cn, num edge types: 1
# Building blocks:
#     Node 0, Type 0, BuildingBlock: GALJAG_clean_sbu_0, # of connection points: 4
#     Node 1, Type 0, BuildingBlock: GALJAG_clean_sbu_0, # of connection points: 4
#     Node 2, Type 0, BuildingBlock: GALJAG_clean_sbu_0, # of connection points: 4
#     Node 3, Type 0, BuildingBlock: GALJAG_clean_sbu_0, # of connection points: 4
#     Node 4, Type 0, BuildingBlock: GALJAG_clean_sbu_0, # of connection points: 4
#     Node 5, Type 0, BuildingBlock: GALJAG_clean_sbu_0, # of connection points: 4
#     Node 6, Type 0, BuildingBlock: GALJAG_clean_sbu_0, # of connection points: 4
#     Node 7, Type 0, BuildingBlock: GALJAG_clean_sbu_0, # of connection points: 4
#     Node 8, Type 0, BuildingBlock: GALJAG_clean_sbu_0, # of connection points: 4
#     Node 9, Type 0, BuildingBlock: GALJAG_clean_sbu_0, # of connection points: 4
#     Node 10, Type 0, BuildingBlock: GALJAG_clean_sbu_0, # of connection points: 4
#     Node 11, Type 0, BuildingBlock: GALJAG_clean_sbu_0, # of connection points: 4
#     Node 12, Type 0, BuildingBlock: GALJAG_clean_sbu_0, # of connection points: 4
#     Node 13, Type 0, BuildingBlock: GALJAG_clean_sbu_0, # of connection points: 4
#     Node 14, Type 0, BuildingBlock: GALJAG_clean_sbu_0, # of connection points: 4
#     Node 15, Type 0, BuildingBlock: GALJAG_clean_sbu_0, # of connection points: 4
#     Node 16, Type 0, BuildingBlock: GALJAG_clean_sbu_0, # of connection points: 4
#     Node 17, Type 0, BuildingBlock: GALJAG_clean_sbu_0, # of connection points: 4
#     Node 18, Type 0, BuildingBlock: GALJAG_clean_sbu_0, # of connection points: 4
#     Node 19, Type 0, BuildingBlock: GALJAG_clean_sbu_0, # of connection points: 4
#     Node 20, Type 0, BuildingBlock: GALJAG_clean_sbu_0, # of connection points: 4
#     Node 21, Type 0, BuildingBlock: GALJAG_clean_sbu_0, # of connection points: 4
#     Node 22, Type 0, BuildingBlock: GALJAG_clean_sbu_0, # of connection points: 4
#     Node 23, Type 0, BuildingBlock: GALJAG_clean_sbu_0, # of connection points: 4
#     Node 24, Type 0, BuildingBlock: GALJAG_clean_sbu_0, # of connection points: 4
#     Node 25, Type 0, BuildingBlock: GALJAG_clean_sbu_0, # of connection points: 4
#     Node 26, Type 0, BuildingBlock: GALJAG_clean_sbu_0, # of connection points: 4
#     Node 27, Type 0, BuildingBlock: GALJAG_clean_sbu_0, # of connection points: 4
#     Node 28, Type 0, BuildingBlock: GALJAG_clean_sbu_0, # of connection points: 4
#     Node 29, Type 0, BuildingBlock: GALJAG_clean_sbu_0, # of connection points: 4
#     Node 30, Type 0, BuildingBlock: GALJAG_clean_sbu_0, # of connection points: 4
#     Node 31, Type 0, BuildingBlock: GALJAG_clean_sbu_0, # of connection points: 4
#     Node 32, Type 0, BuildingBlock: GALJAG_clean_sbu_0, # of connection points: 4
#     Node 33, Type 0, BuildingBlock: GALJAG_clean_sbu_0, # of connection points: 4
#     Node 34, Type 0, BuildingBlock: GALJAG_clean_sbu_0, # of connection points: 4
#     Node 35, Type 0, BuildingBlock: GALJAG_clean_sbu_0, # of connection points: 4
#     Node 36, Type 0, BuildingBlock: GALJAG_clean_sbu_0, # of connection points: 4
#     Node 37, Type 0, BuildingBlock: GALJAG_clean_sbu_0, # of connection points: 4
#     Node 38, Type 0, BuildingBlock: GALJAG_clean_sbu_0, # of connection points: 4
#     Node 39, Type 0, BuildingBlock: GALJAG_clean_sbu_0, # of connection points: 4
#     Node 40, Type 0, BuildingBlock: GALJAG_clean_sbu_0, # of connection points: 4
#     Node 41, Type 0, BuildingBlock: GALJAG_clean_sbu_0, # of connection points: 4
#     Node 42, Type 0, BuildingBlock: GALJAG_clean_sbu_0, # of connection points: 4
#     Node 43, Type 0, BuildingBlock: GALJAG_clean_sbu_0, # of connection points: 4
#     Node 44, Type 0, BuildingBlock: GALJAG_clean_sbu_0, # of connection points: 4
#     Node 45, Type 0, BuildingBlock: GALJAG_clean_sbu_0, # of connection points: 4
#     Node 46, Type 0, BuildingBlock: GALJAG_clean_sbu_0, # of connection points: 4
#     Node 47, Type 0, BuildingBlock: GALJAG_clean_sbu_0, # of connection points: 4
#     Node 48, Type 0, BuildingBlock: GALJAG_clean_sbu_0, # of connection points: 4
#     Node 49, Type 0, BuildingBlock: GALJAG_clean_sbu_0, # of connection points: 4
#     Node 50, Type 0, BuildingBlock: GALJAG_clean_sbu_0, # of connection points: 4
#     Node 51, Type 0, BuildingBlock: GALJAG_clean_sbu_0, # of connection points: 4
#     Node 52, Type 0, BuildingBlock: GALJAG_clean_sbu_0, # of connection points: 4
#     Node 53, Type 0, BuildingBlock: GALJAG_clean_sbu_0, # of connection points: 4
#     Node 54, Type 0, BuildingBlock: GALJAG_clean_sbu_0, # of connection points: 4
#     Node 55, Type 0, BuildingBlock: GALJAG_clean_sbu_0, # of connection points: 4
#     Node 56, Type 0, BuildingBlock: GALJAG_clean_sbu_0, # of connection points: 4
#     Node 57, Type 0, BuildingBlock: GALJAG_clean_sbu_0, # of connection points: 4
#     Node 58, Type 0, BuildingBlock: GALJAG_clean_sbu_0, # of connection points: 4
#     Node 59, Type 0, BuildingBlock: GALJAG_clean_sbu_0, # of connection points: 4
#     Node 60, Type 0, BuildingBlock: GALJAG_clean_sbu_0, # of connection points: 4
#     Node 61, Type 0, BuildingBlock: GALJAG_clean_sbu_0, # of connection points: 4
#     Node 62, Type 0, BuildingBlock: GALJAG_clean_sbu_0, # of connection points: 4
#     Node 63, Type 0, BuildingBlock: GALJAG_clean_sbu_0, # of connection points: 4
#     Node 64, Type 0, BuildingBlock: GALJAG_clean_sbu_0, # of connection points: 4
#     Node 65, Type 0, BuildingBlock: GALJAG_clean_sbu_0, # of connection points: 4
#     Node 66, Type 0, BuildingBlock: GALJAG_clean_sbu_0, # of connection points: 4
#     Node 67, Type 0, BuildingBlock: GALJAG_clean_sbu_0, # of connection points: 4
#     Node 68, Type 0, BuildingBlock: GALJAG_clean_sbu_0, # of connection points: 4
#     Node 69, Type 0, BuildingBlock: GALJAG_clean_sbu_0, # of connection points: 4
#     Node 70, Type 0, BuildingBlock: GALJAG_clean_sbu_0, # of connection points: 4
#     Node 71, Type 0, BuildingBlock: GALJAG_clean_sbu_0, # of connection points: 4
#     Node 72, Type 0, BuildingBlock: GALJAG_clean_sbu_0, # of connection points: 4
#     Node 73, Type 0, BuildingBlock: GALJAG_clean_sbu_0, # of connection points: 4
#     Node 74, Type 0, BuildingBlock: GALJAG_clean_sbu_0, # of connection points: 4
#     Node 75, Type 0, BuildingBlock: GALJAG_clean_sbu_0, # of connection points: 4
#     Node 76, Type 0, BuildingBlock: GALJAG_clean_sbu_0, # of connection points: 4
#     Node 77, Type 0, BuildingBlock: GALJAG_clean_sbu_0, # of connection points: 4
#     Node 78, Type 0, BuildingBlock: GALJAG_clean_sbu_0, # of connection points: 4
#     Node 79, Type 0, BuildingBlock: GALJAG_clean_sbu_0, # of connection points: 4
#     Node 80, Type 0, BuildingBlock: GALJAG_clean_sbu_0, # of connection points: 4
#     Node 81, Type 0, BuildingBlock: GALJAG_clean_sbu_0, # of connection points: 4
#     Node 82, Type 0, BuildingBlock: GALJAG_clean_sbu_0, # of connection points: 4
#     Node 83, Type 0, BuildingBlock: GALJAG_clean_sbu_0, # of connection points: 4
#     Node 84, Type 0, BuildingBlock: GALJAG_clean_sbu_0, # of connection points: 4
#     Node 85, Type 0, BuildingBlock: GALJAG_clean_sbu_0, # of connection points: 4
#     Node 86, Type 0, BuildingBlock: GALJAG_clean_sbu_0, # of connection points: 4
#     Node 87, Type 0, BuildingBlock: GALJAG_clean_sbu_0, # of connection points: 4
#     Node 88, Type 0, BuildingBlock: GALJAG_clean_sbu_0, # of connection points: 4
#     Node 89, Type 0, BuildingBlock: GALJAG_clean_sbu_0, # of connection points: 4
#     Node 90, Type 0, BuildingBlock: GALJAG_clean_sbu_0, # of connection points: 4
#     Node 91, Type 0, BuildingBlock: GALJAG_clean_sbu_0, # of connection points: 4
#     Node 92, Type 0, BuildingBlock: GALJAG_clean_sbu_0, # of connection points: 4
#     Node 93, Type 0, BuildingBlock: GALJAG_clean_sbu_0, # of connection points: 4
#     Node 94, Type 0, BuildingBlock: GALJAG_clean_sbu_0, # of connection points: 4
#     Node 95, Type 0, BuildingBlock: GALJAG_clean_sbu_0, # of connection points: 4
#     Edge 96, Type (0, 0), BuildingBlock: AJUNOK_clean_linker_0, # of connection points: 2
#     Edge 97, Type (0, 0), BuildingBlock: AJUNOK_clean_linker_0, # of connection points: 2
#     Edge 98, Type (0, 0), BuildingBlock: AJUNOK_clean_linker_0, # of connection points: 2
#     Edge 99, Type (0, 0), BuildingBlock: AJUNOK_clean_linker_0, # of connection points: 2
#     Edge 100, Type (0, 0), BuildingBlock: AJUNOK_clean_linker_0, # of connection points: 2
#     Edge 101, Type (0, 0), BuildingBlock: AJUNOK_clean_linker_0, # of connection points: 2
#     Edge 102, Type (0, 0), BuildingBlock: AJUNOK_clean_linker_0, # of connection points: 2
#     Edge 103, Type (0, 0), BuildingBlock: AJUNOK_clean_linker_0, # of connection points: 2
#     Edge 104, Type (0, 0), BuildingBlock: AJUNOK_clean_linker_0, # of connection points: 2
#     Edge 105, Type (0, 0), BuildingBlock: AJUNOK_clean_linker_0, # of connection points: 2
#     Edge 106, Type (0, 0), BuildingBlock: AJUNOK_clean_linker_0, # of connection points: 2
#     Edge 107, Type (0, 0), BuildingBlock: AJUNOK_clean_linker_0, # of connection points: 2
#     Edge 108, Type (0, 0), BuildingBlock: AJUNOK_clean_linker_0, # of connection points: 2
#     Edge 109, Type (0, 0), BuildingBlock: AJUNOK_clean_linker_0, # of connection points: 2
#     Edge 110, Type (0, 0), BuildingBlock: AJUNOK_clean_linker_0, # of connection points: 2
#     Edge 111, Type (0, 0), BuildingBlock: AJUNOK_clean_linker_0, # of connection points: 2
#     Edge 112, Type (0, 0), BuildingBlock: AJUNOK_clean_linker_0, # of connection points: 2
#     Edge 113, Type (0, 0), BuildingBlock: AJUNOK_clean_linker_0, # of connection points: 2
#     Edge 114, Type (0, 0), BuildingBlock: AJUNOK_clean_linker_0, # of connection points: 2
#     Edge 115, Type (0, 0), BuildingBlock: AJUNOK_clean_linker_0, # of connection points: 2
#     Edge 116, Type (0, 0), BuildingBlock: AJUNOK_clean_linker_0, # of connection points: 2
#     Edge 117, Type (0, 0), BuildingBlock: AJUNOK_clean_linker_0, # of connection points: 2
#     Edge 118, Type (0, 0), BuildingBlock: AJUNOK_clean_linker_0, # of connection points: 2
#     Edge 119, Type (0, 0), BuildingBlock: AJUNOK_clean_linker_0, # of connection points: 2
#     Edge 120, Type (0, 0), BuildingBlock: AJUNOK_clean_linker_0, # of connection points: 2
#     Edge 121, Type (0, 0), BuildingBlock: AJUNOK_clean_linker_0, # of connection points: 2
#     Edge 122, Type (0, 0), BuildingBlock: AJUNOK_clean_linker_0, # of connection points: 2
#     Edge 123, Type (0, 0), BuildingBlock: AJUNOK_clean_linker_0, # of connection points: 2
#     Edge 124, Type (0, 0), BuildingBlock: AJUNOK_clean_linker_0, # of connection points: 2
#     Edge 125, Type (0, 0), BuildingBlock: AJUNOK_clean_linker_0, # of connection points: 2
#     Edge 126, Type (0, 0), BuildingBlock: AJUNOK_clean_linker_0, # of connection points: 2
#     Edge 127, Type (0, 0), BuildingBlock: AJUNOK_clean_linker_0, # of connection points: 2
#     Edge 128, Type (0, 0), BuildingBlock: AJUNOK_clean_linker_0, # of connection points: 2
#     Edge 129, Type (0, 0), BuildingBlock: AJUNOK_clean_linker_0, # of connection points: 2
#     Edge 130, Type (0, 0), BuildingBlock: AJUNOK_clean_linker_0, # of connection points: 2
#     Edge 131, Type (0, 0), BuildingBlock: AJUNOK_clean_linker_0, # of connection points: 2
#     Edge 132, Type (0, 0), BuildingBlock: AJUNOK_clean_linker_0, # of connection points: 2
#     Edge 133, Type (0, 0), BuildingBlock: AJUNOK_clean_linker_0, # of connection points: 2
#     Edge 134, Type (0, 0), BuildingBlock: AJUNOK_clean_linker_0, # of connection points: 2
#     Edge 135, Type (0, 0), BuildingBlock: AJUNOK_clean_linker_0, # of connection points: 2
#     Edge 136, Type (0, 0), BuildingBlock: AJUNOK_clean_linker_0, # of connection points: 2
#     Edge 137, Type (0, 0), BuildingBlock: AJUNOK_clean_linker_0, # of connection points: 2
#     Edge 138, Type (0, 0), BuildingBlock: AJUNOK_clean_linker_0, # of connection points: 2
#     Edge 139, Type (0, 0), BuildingBlock: AJUNOK_clean_linker_0, # of connection points: 2
#     Edge 140, Type (0, 0), BuildingBlock: AJUNOK_clean_linker_0, # of connection points: 2
#     Edge 141, Type (0, 0), BuildingBlock: AJUNOK_clean_linker_0, # of connection points: 2
#     Edge 142, Type (0, 0), BuildingBlock: AJUNOK_clean_linker_0, # of connection points: 2
#     Edge 143, Type (0, 0), BuildingBlock: AJUNOK_clean_linker_0, # of connection points: 2
#     Edge 144, Type (0, 0), BuildingBlock: AJUNOK_clean_linker_0, # of connection points: 2
#     Edge 145, Type (0, 0), BuildingBlock: AJUNOK_clean_linker_0, # of connection points: 2
#     Edge 146, Type (0, 0), BuildingBlock: AJUNOK_clean_linker_0, # of connection points: 2
#     Edge 147, Type (0, 0), BuildingBlock: AJUNOK_clean_linker_0, # of connection points: 2
#     Edge 148, Type (0, 0), BuildingBlock: AJUNOK_clean_linker_0, # of connection points: 2
#     Edge 149, Type (0, 0), BuildingBlock: AJUNOK_clean_linker_0, # of connection points: 2
#     Edge 150, Type (0, 0), BuildingBlock: AJUNOK_clean_linker_0, # of connection points: 2
#     Edge 151, Type (0, 0), BuildingBlock: AJUNOK_clean_linker_0, # of connection points: 2
#     Edge 152, Type (0, 0), BuildingBlock: AJUNOK_clean_linker_0, # of connection points: 2
#     Edge 153, Type (0, 0), BuildingBlock: AJUNOK_clean_linker_0, # of connection points: 2
#     Edge 154, Type (0, 0), BuildingBlock: AJUNOK_clean_linker_0, # of connection points: 2
#     Edge 155, Type (0, 0), BuildingBlock: AJUNOK_clean_linker_0, # of connection points: 2
#     Edge 156, Type (0, 0), BuildingBlock: AJUNOK_clean_linker_0, # of connection points: 2
#     Edge 157, Type (0, 0), BuildingBlock: AJUNOK_clean_linker_0, # of connection points: 2
#     Edge 158, Type (0, 0), BuildingBlock: AJUNOK_clean_linker_0, # of connection points: 2
#     Edge 159, Type (0, 0), BuildingBlock: AJUNOK_clean_linker_0, # of connection points: 2
#     Edge 160, Type (0, 0), BuildingBlock: AJUNOK_clean_linker_0, # of connection points: 2
#     Edge 161, Type (0, 0), BuildingBlock: AJUNOK_clean_linker_0, # of connection points: 2
#     Edge 162, Type (0, 0), BuildingBlock: AJUNOK_clean_linker_0, # of connection points: 2
#     Edge 163, Type (0, 0), BuildingBlock: AJUNOK_clean_linker_0, # of connection points: 2
#     Edge 164, Type (0, 0), BuildingBlock: AJUNOK_clean_linker_0, # of connection points: 2
#     Edge 165, Type (0, 0), BuildingBlock: AJUNOK_clean_linker_0, # of connection points: 2
#     Edge 166, Type (0, 0), BuildingBlock: AJUNOK_clean_linker_0, # of connection points: 2
#     Edge 167, Type (0, 0), BuildingBlock: AJUNOK_clean_linker_0, # of connection points: 2
#     Edge 168, Type (0, 0), BuildingBlock: AJUNOK_clean_linker_0, # of connection points: 2
#     Edge 169, Type (0, 0), BuildingBlock: AJUNOK_clean_linker_0, # of connection points: 2
#     Edge 170, Type (0, 0), BuildingBlock: AJUNOK_clean_linker_0, # of connection points: 2
#     Edge 171, Type (0, 0), BuildingBlock: AJUNOK_clean_linker_0, # of connection points: 2
#     Edge 172, Type (0, 0), BuildingBlock: AJUNOK_clean_linker_0, # of connection points: 2
#     Edge 173, Type (0, 0), BuildingBlock: AJUNOK_clean_linker_0, # of connection points: 2
#     Edge 174, Type (0, 0), BuildingBlock: AJUNOK_clean_linker_0, # of connection points: 2
#     Edge 175, Type (0, 0), BuildingBlock: AJUNOK_clean_linker_0, # of connection points: 2
#     Edge 176, Type (0, 0), BuildingBlock: AJUNOK_clean_linker_0, # of connection points: 2
#     Edge 177, Type (0, 0), BuildingBlock: AJUNOK_clean_linker_0, # of connection points: 2
#     Edge 178, Type (0, 0), BuildingBlock: AJUNOK_clean_linker_0, # of connection points: 2
#     Edge 179, Type (0, 0), BuildingBlock: AJUNOK_clean_linker_0, # of connection points: 2
#     Edge 180, Type (0, 0), BuildingBlock: AJUNOK_clean_linker_0, # of connection points: 2
#     Edge 181, Type (0, 0), BuildingBlock: AJUNOK_clean_linker_0, # of connection points: 2
#     Edge 182, Type (0, 0), BuildingBlock: AJUNOK_clean_linker_0, # of connection points: 2
#     Edge 183, Type (0, 0), BuildingBlock: AJUNOK_clean_linker_0, # of connection points: 2
#     Edge 184, Type (0, 0), BuildingBlock: AJUNOK_clean_linker_0, # of connection points: 2
#     Edge 185, Type (0, 0), BuildingBlock: AJUNOK_clean_linker_0, # of connection points: 2
#     Edge 186, Type (0, 0), BuildingBlock: AJUNOK_clean_linker_0, # of connection points: 2
#     Edge 187, Type (0, 0), BuildingBlock: AJUNOK_clean_linker_0, # of connection points: 2
#     Edge 188, Type (0, 0), BuildingBlock: AJUNOK_clean_linker_0, # of connection points: 2
#     Edge 189, Type (0, 0), BuildingBlock: AJUNOK_clean_linker_0, # of connection points: 2
#     Edge 190, Type (0, 0), BuildingBlock: AJUNOK_clean_linker_0, # of connection points: 2
#     Edge 191, Type (0, 0), BuildingBlock: AJUNOK_clean_linker_0, # of connection points: 2
#     Edge 192, Type (0, 0), BuildingBlock: AJUNOK_clean_linker_0, # of connection points: 2
#     Edge 193, Type (0, 0), BuildingBlock: AJUNOK_clean_linker_0, # of connection points: 2
#     Edge 194, Type (0, 0), BuildingBlock: AJUNOK_clean_linker_0, # of connection points: 2
#     Edge 195, Type (0, 0), BuildingBlock: AJUNOK_clean_linker_0, # of connection points: 2
#     Edge 196, Type (0, 0), BuildingBlock: AJUNOK_clean_linker_0, # of connection points: 2
#     Edge 197, Type (0, 0), BuildingBlock: AJUNOK_clean_linker_0, # of connection points: 2
#     Edge 198, Type (0, 0), BuildingBlock: AJUNOK_clean_linker_0, # of connection points: 2
#     Edge 199, Type (0, 0), BuildingBlock: AJUNOK_clean_linker_0, # of connection points: 2
#     Edge 200, Type (0, 0), BuildingBlock: AJUNOK_clean_linker_0, # of connection points: 2
#     Edge 201, Type (0, 0), BuildingBlock: AJUNOK_clean_linker_0, # of connection points: 2
#     Edge 202, Type (0, 0), BuildingBlock: AJUNOK_clean_linker_0, # of connection points: 2
#     Edge 203, Type (0, 0), BuildingBlock: AJUNOK_clean_linker_0, # of connection points: 2
#     Edge 204, Type (0, 0), BuildingBlock: AJUNOK_clean_linker_0, # of connection points: 2
#     Edge 205, Type (0, 0), BuildingBlock: AJUNOK_clean_linker_0, # of connection points: 2
#     Edge 206, Type (0, 0), BuildingBlock: AJUNOK_clean_linker_0, # of connection points: 2
#     Edge 207, Type (0, 0), BuildingBlock: AJUNOK_clean_linker_0, # of connection points: 2
#     Edge 208, Type (0, 0), BuildingBlock: AJUNOK_clean_linker_0, # of connection points: 2
#     Edge 209, Type (0, 0), BuildingBlock: AJUNOK_clean_linker_0, # of connection points: 2
#     Edge 210, Type (0, 0), BuildingBlock: AJUNOK_clean_linker_0, # of connection points: 2
#     Edge 211, Type (0, 0), BuildingBlock: AJUNOK_clean_linker_0, # of connection points: 2
#     Edge 212, Type (0, 0), BuildingBlock: AJUNOK_clean_linker_0, # of connection points: 2
#     Edge 213, Type (0, 0), BuildingBlock: AJUNOK_clean_linker_0, # of connection points: 2
#     Edge 214, Type (0, 0), BuildingBlock: AJUNOK_clean_linker_0, # of connection points: 2
#     Edge 215, Type (0, 0), BuildingBlock: AJUNOK_clean_linker_0, # of connection points: 2
#     Edge 216, Type (0, 0), BuildingBlock: AJUNOK_clean_linker_0, # of connection points: 2
#     Edge 217, Type (0, 0), BuildingBlock: AJUNOK_clean_linker_0, # of connection points: 2
#     Edge 218, Type (0, 0), BuildingBlock: AJUNOK_clean_linker_0, # of connection points: 2
#     Edge 219, Type (0, 0), BuildingBlock: AJUNOK_clean_linker_0, # of connection points: 2
#     Edge 220, Type (0, 0), BuildingBlock: AJUNOK_clean_linker_0, # of connection points: 2
#     Edge 221, Type (0, 0), BuildingBlock: AJUNOK_clean_linker_0, # of connection points: 2
#     Edge 222, Type (0, 0), BuildingBlock: AJUNOK_clean_linker_0, # of connection points: 2
#     Edge 223, Type (0, 0), BuildingBlock: AJUNOK_clean_linker_0, # of connection points: 2
#     Edge 224, Type (0, 0), BuildingBlock: AJUNOK_clean_linker_0, # of connection points: 2
#     Edge 225, Type (0, 0), BuildingBlock: AJUNOK_clean_linker_0, # of connection points: 2
#     Edge 226, Type (0, 0), BuildingBlock: AJUNOK_clean_linker_0, # of connection points: 2
#     Edge 227, Type (0, 0), BuildingBlock: AJUNOK_clean_linker_0, # of connection points: 2
#     Edge 228, Type (0, 0), BuildingBlock: AJUNOK_clean_linker_0, # of connection points: 2
#     Edge 229, Type (0, 0), BuildingBlock: AJUNOK_clean_linker_0, # of connection points: 2
#     Edge 230, Type (0, 0), BuildingBlock: AJUNOK_clean_linker_0, # of connection points: 2
#     Edge 231, Type (0, 0), BuildingBlock: AJUNOK_clean_linker_0, # of connection points: 2
#     Edge 232, Type (0, 0), BuildingBlock: AJUNOK_clean_linker_0, # of connection points: 2
#     Edge 233, Type (0, 0), BuildingBlock: AJUNOK_clean_linker_0, # of connection points: 2
#     Edge 234, Type (0, 0), BuildingBlock: AJUNOK_clean_linker_0, # of connection points: 2
#     Edge 235, Type (0, 0), BuildingBlock: AJUNOK_clean_linker_0, # of connection points: 2
#     Edge 236, Type (0, 0), BuildingBlock: AJUNOK_clean_linker_0, # of connection points: 2
#     Edge 237, Type (0, 0), BuildingBlock: AJUNOK_clean_linker_0, # of connection points: 2
#     Edge 238, Type (0, 0), BuildingBlock: AJUNOK_clean_linker_0, # of connection points: 2
#     Edge 239, Type (0, 0), BuildingBlock: AJUNOK_clean_linker_0, # of connection points: 2
#     Edge 240, Type (0, 0), BuildingBlock: AJUNOK_clean_linker_0, # of connection points: 2
#     Edge 241, Type (0, 0), BuildingBlock: AJUNOK_clean_linker_0, # of connection points: 2
#     Edge 242, Type (0, 0), BuildingBlock: AJUNOK_clean_linker_0, # of connection points: 2
#     Edge 243, Type (0, 0), BuildingBlock: AJUNOK_clean_linker_0, # of connection points: 2
#     Edge 244, Type (0, 0), BuildingBlock: AJUNOK_clean_linker_0, # of connection points: 2
#     Edge 245, Type (0, 0), BuildingBlock: AJUNOK_clean_linker_0, # of connection points: 2
#     Edge 246, Type (0, 0), BuildingBlock: AJUNOK_clean_linker_0, # of connection points: 2
#     Edge 247, Type (0, 0), BuildingBlock: AJUNOK_clean_linker_0, # of connection points: 2
#     Edge 248, Type (0, 0), BuildingBlock: AJUNOK_clean_linker_0, # of connection points: 2
#     Edge 249, Type (0, 0), BuildingBlock: AJUNOK_clean_linker_0, # of connection points: 2
#     Edge 250, Type (0, 0), BuildingBlock: AJUNOK_clean_linker_0, # of connection points: 2
#     Edge 251, Type (0, 0), BuildingBlock: AJUNOK_clean_linker_0, # of connection points: 2
#     Edge 252, Type (0, 0), BuildingBlock: AJUNOK_clean_linker_0, # of connection points: 2
#     Edge 253, Type (0, 0), BuildingBlock: AJUNOK_clean_linker_0, # of connection points: 2
#     Edge 254, Type (0, 0), BuildingBlock: AJUNOK_clean_linker_0, # of connection points: 2
#     Edge 255, Type (0, 0), BuildingBlock: AJUNOK_clean_linker_0, # of connection points: 2
#     Edge 256, Type (0, 0), BuildingBlock: AJUNOK_clean_linker_0, # of connection points: 2
#     Edge 257, Type (0, 0), BuildingBlock: AJUNOK_clean_linker_0, # of connection points: 2
#     Edge 258, Type (0, 0), BuildingBlock: AJUNOK_clean_linker_0, # of connection points: 2
#     Edge 259, Type (0, 0), BuildingBlock: AJUNOK_clean_linker_0, # of connection points: 2
#     Edge 260, Type (0, 0), BuildingBlock: AJUNOK_clean_linker_0, # of connection points: 2
#     Edge 261, Type (0, 0), BuildingBlock: AJUNOK_clean_linker_0, # of connection points: 2
#     Edge 262, Type (0, 0), BuildingBlock: AJUNOK_clean_linker_0, # of connection points: 2
#     Edge 263, Type (0, 0), BuildingBlock: AJUNOK_clean_linker_0, # of connection points: 2
#     Edge 264, Type (0, 0), BuildingBlock: AJUNOK_clean_linker_0, # of connection points: 2
#     Edge 265, Type (0, 0), BuildingBlock: AJUNOK_clean_linker_0, # of connection points: 2
#     Edge 266, Type (0, 0), BuildingBlock: AJUNOK_clean_linker_0, # of connection points: 2
#     Edge 267, Type (0, 0), BuildingBlock: AJUNOK_clean_linker_0, # of connection points: 2
#     Edge 268, Type (0, 0), BuildingBlock: AJUNOK_clean_linker_0, # of connection points: 2
#     Edge 269, Type (0, 0), BuildingBlock: AJUNOK_clean_linker_0, # of connection points: 2
#     Edge 270, Type (0, 0), BuildingBlock: AJUNOK_clean_linker_0, # of connection points: 2
#     Edge 271, Type (0, 0), BuildingBlock: AJUNOK_clean_linker_0, # of connection points: 2
#     Edge 272, Type (0, 0), BuildingBlock: AJUNOK_clean_linker_0, # of connection points: 2
#     Edge 273, Type (0, 0), BuildingBlock: AJUNOK_clean_linker_0, # of connection points: 2
#     Edge 274, Type (0, 0), BuildingBlock: AJUNOK_clean_linker_0, # of connection points: 2
#     Edge 275, Type (0, 0), BuildingBlock: AJUNOK_clean_linker_0, # of connection points: 2
#     Edge 276, Type (0, 0), BuildingBlock: AJUNOK_clean_linker_0, # of connection points: 2
#     Edge 277, Type (0, 0), BuildingBlock: AJUNOK_clean_linker_0, # of connection points: 2
#     Edge 278, Type (0, 0), BuildingBlock: AJUNOK_clean_linker_0, # of connection points: 2
#     Edge 279, Type (0, 0), BuildingBlock: AJUNOK_clean_linker_0, # of connection points: 2
#     Edge 280, Type (0, 0), BuildingBlock: AJUNOK_clean_linker_0, # of connection points: 2
#     Edge 281, Type (0, 0), BuildingBlock: AJUNOK_clean_linker_0, # of connection points: 2
#     Edge 282, Type (0, 0), BuildingBlock: AJUNOK_clean_linker_0, # of connection points: 2
#     Edge 283, Type (0, 0), BuildingBlock: AJUNOK_clean_linker_0, # of connection points: 2
#     Edge 284, Type (0, 0), BuildingBlock: AJUNOK_clean_linker_0, # of connection points: 2
#     Edge 285, Type (0, 0), BuildingBlock: AJUNOK_clean_linker_0, # of connection points: 2
#     Edge 286, Type (0, 0), BuildingBlock: AJUNOK_clean_linker_0, # of connection points: 2
#     Edge 287, Type (0, 0), BuildingBlock: AJUNOK_clean_linker_0, # of connection points: 2
# Relax obj value: 0.225
# Max RMSD: 0.135
# Mean RMSD: 0.135
data_MOF--net-ukx--node1-GALJAG_clean_sbu_0--edge1-AJUNOK_clean_linker_0
_symmetry_space_group_name_H-M    P1
_symmetry_Int_Tables_number       1
_symmetry_cell_setting            triclinic
loop_
_symmetry_equiv_pos_as_xyz
'x, y, z'
_cell_length_a     58.671815
_cell_length_b     58.648532
_cell_length_c     58.6643
_cell_angle_alpha  90.014837
_cell_angle_beta   90.007772
_cell_angle_gamma 89.97486
loop_
_atom_site_label
_atom_site_type_symbol
_atom_site_fract_x
_atom_site_fract_y
_atom_site_fract_z
_atom_type_partial_charge
In0 In 0.05251 0.1557 0.32344 0.0
O1 O 0.06727 0.12369 0.33918 0.0
O2 O 0.08588 0.13988 0.31241 0.0
C3 C 0.0156 0.16548 0.34908 0.0
C4 C 0.07881 0.19074 0.33702 0.0
C5 C 0.03225 0.14293 0.28428 0.0
O6 O 0.02817 0.1485 0.35339 0.0
O7 O 0.02169 0.17698 0.33201 0.0
O8 O 0.04212 0.16202 0.28632 0.0
O9 O 0.03323 0.13036 0.3017 0.0
C10 C 0.08505 0.12398 0.32694 0.0
O11 O 0.06952 0.1906 0.31752 0.0
O12 O 0.07468 0.17349 0.34914 0.0
In13 In 0.10018 0.79834 0.57848 0.0
O14 O 0.06453 0.81493 0.57617 0.0
O15 O 0.08222 0.81479 0.60784 0.0
C16 C 0.1116 0.78101 0.53774 0.0
C17 C 0.12977 0.8329 0.58063 0.0
C18 C 0.09576 0.75907 0.60163 0.0
O19 O 0.09164 0.78826 0.54178 0.0
O20 O 0.1255 0.78303 0.55404 0.0
O21 O 0.10987 0.77417 0.60775 0.0
O22 O 0.08435 0.7638 0.58404 0.0
C23 C 0.06461 0.8206 0.59704 0.0
O24 O 0.13258 0.81463 0.5918 0.0
O25 O 0.11241 0.83321 0.56788 0.0
In26 In 0.45457 0.85363 0.83231 0.0
O27 O 0.43957 0.81767 0.8268 0.0
O28 O 0.44077 0.83196 0.86025 0.0
C29 C 0.47492 0.86881 0.79438 0.0
C30 C 0.41866 0.88157 0.83718 0.0
C31 C 0.49332 0.84564 0.85526 0.0
O32 O 0.46308 0.85072 0.79425 0.0
O33 O 0.47522 0.87946 0.81308 0.0
O34 O 0.47907 0.86039 0.8621 0.0
O35 O 0.48808 0.83566 0.83691 0.0
C36 C 0.43575 0.81508 0.84794 0.0
O37 O 0.43661 0.88376 0.84894 0.0
O38 O 0.41937 0.86588 0.82243 0.0
In39 In 0.39373 0.20114 0.07981 0.0
O40 O 0.42861 0.18304 0.07892 0.0
O41 O 0.41064 0.18563 0.11032 0.0
C42 C 0.38408 0.21825 0.03856 0.0
C43 C 0.36376 0.16684 0.08117 0.0
C44 C 0.39923 0.2409 0.10188 0.0
O45 O 0.40363 0.21035 0.0433 0.0
O46 O 0.36961 0.21697 0.05446 0.0
O47 O 0.38426 0.22664 0.10808 0.0
O48 O 0.41086 0.2351 0.08476 0.0
C49 C 0.42816 0.17861 0.10008 0.0
O50 O 0.36076 0.18512 0.0923 0.0
O51 O 0.38146 0.16644 0.06889 0.0
In52 In 0.04796 0.84767 0.16743 0.0
O53 O 0.06207 0.81175 0.17416 0.0
O54 O 0.07436 0.83033 0.14549 0.0
C55 C 0.02504 0.85713 0.20635 0.0
C56 C 0.08139 0.87879 0.16666 0.0
C57 C 0.01531 0.84177 0.13541 0.0
O58 O 0.03333 0.83762 0.20248 0.0
O59 O 0.02825 0.87141 0.19069 0.0
O60 O 0.02265 0.8613 0.14062 0.0
O61 O 0.02386 0.82566 0.14666 0.0
C62 C 0.07497 0.81207 0.15683 0.0
O63 O 0.06541 0.87856 0.15221 0.0
O64 O 0.08015 0.86353 0.18182 0.0
In65 In 0.3901 0.79806 0.41595 0.0
O66 O 0.35802 0.81409 0.40145 0.0
O67 O 0.37774 0.83324 0.42529 0.0
C68 C 0.3961 0.75799 0.39478 0.0
C69 C 0.42567 0.81923 0.3962 0.0
C70 C 0.37866 0.78084 0.45675 0.0
O71 O 0.38106 0.772 0.38816 0.0
O72 O 0.40759 0.76425 0.41185 0.0
O73 O 0.39831 0.78902 0.45297 0.0
O74 O 0.36491 0.78221 0.44024 0.0
C75 C 0.36073 0.8327 0.41209 0.0
O76 O 0.4251 0.81598 0.41758 0.0
O77 O 0.40852 0.8119 0.38557 0.0
In78 In 0.44897 0.14756 0.67326 0.0
O79 O 0.43994 0.18503 0.68019 0.0
O80 O 0.42589 0.16892 0.6509 0.0
C81 C 0.46842 0.1327 0.71204 0.0
C82 C 0.41451 0.11788 0.67047 0.0
C83 C 0.48556 0.15372 0.6461 0.0
O84 O 0.45894 0.15205 0.71066 0.0
O85 O 0.46744 0.12083 0.69412 0.0
O86 O 0.4688 0.1418 0.63972 0.0
O87 O 0.48383 0.16175 0.66591 0.0
C88 C 0.42781 0.1869 0.66246 0.0
O89 O 0.43231 0.11609 0.6584 0.0
O90 O 0.41447 0.13438 0.68434 0.0
In91 In 0.0925 0.19853 0.91743 0.0
O92 O 0.12612 0.18666 0.90197 0.0
O93 O 0.11151 0.16708 0.92882 0.0
C94 C 0.08973 0.2289 0.88275 0.0
C95 C 0.05699 0.17019 0.91001 0.0
C96 C 0.09575 0.22221 0.95716 0.0
O97 O 0.10749 0.22699 0.89483 0.0
O98 O 0.07392 0.21549 0.88816 0.0
O99 O 0.10749 0.20479 0.9529 0.0
O100 O 0.08171 0.22726 0.94172 0.0
C101 C 0.12737 0.16907 0.91442 0.0
O102 O 0.05636 0.18525 0.92545 0.0
O103 O 0.07553 0.16926 0.8993 0.0
In104 In 0.33043 0.04927 0.14591 0.0
O105 O 0.32741 0.06825 0.18009 0.0
O106 O 0.35785 0.07138 0.16047 0.0
C107 C 0.29208 0.02541 0.1378 0.0
C108 C 0.32912 0.08275 0.11501 0.0
C109 C 0.36031 0.01585 0.15531 0.0
O110 O 0.29516 0.03612 0.1563 0.0
O111 O 0.3081 0.02718 0.12357 0.0
O112 O 0.35938 0.02487 0.13572 0.0
O113 O 0.34557 0.02289 0.16928 0.0
C114 C 0.34734 0.07657 0.17849 0.0
O115 O 0.34232 0.06575 0.11307 0.0
O116 O 0.31574 0.08197 0.13188 0.0
In117 In 0.20171 0.07831 0.39053 0.0
O118 O 0.18435 0.07526 0.42572 0.0
O119 O 0.18825 0.10796 0.41042 0.0
C120 C 0.2181 0.03736 0.37814 0.0
C121 C 0.16642 0.08312 0.36207 0.0
C122 C 0.2412 0.10076 0.39636 0.0
O123 O 0.21104 0.04124 0.39819 0.0
O124 O 0.21638 0.05395 0.36453 0.0
O125 O 0.22666 0.10718 0.38176 0.0
O126 O 0.23605 0.08284 0.40707 0.0
C127 C 0.18119 0.09661 0.42722 0.0
O128 O 0.18525 0.09318 0.35881 0.0
O129 O 0.16596 0.07002 0.37916 0.0
In130 In 0.16894 0.94995 0.646 0.0
O131 O 0.17021 0.93253 0.68125 0.0
O132 O 0.13869 0.93458 0.66344 0.0
C133 C 0.21015 0.96753 0.63668 0.0
C134 C 0.16686 0.91552 0.61623 0.0
C135 C 0.14521 0.98884 0.65073 0.0
O136 O 0.20518 0.95997 0.6563 0.0
O137 O 0.19456 0.96562 0.62197 0.0
O138 O 0.14001 0.97426 0.63571 0.0
O139 O 0.16252 0.98399 0.66253 0.0
C140 C 0.14905 0.92809 0.68108 0.0
O141 O 0.1565 0.93419 0.613 0.0
O142 O 0.17894 0.91477 0.63406 0.0
In143 In 0.29561 0.92363 0.89568 0.0
O144 O 0.31453 0.90954 0.86479 0.0
O145 O 0.33314 0.92955 0.8886 0.0
C146 C 0.25615 0.90031 0.89408 0.0
C147 C 0.30898 0.90652 0.93617 0.0
C148 C 0.2797 0.96523 0.88438 0.0
O149 O 0.27413 0.89273 0.88489 0.0
O150 O 0.25806 0.9197 0.90317 0.0
O151 O 0.28472 0.95993 0.90469 0.0
O152 O 0.28363 0.94982 0.86985 0.0
C153 C 0.33356 0.91781 0.87056 0.0
O154 O 0.31037 0.92768 0.93208 0.0
O155 O 0.30117 0.89472 0.92007 0.0
In156 In 0.32207 0.94779 0.34202 0.0
O157 O 0.33645 0.93256 0.37443 0.0
O158 O 0.31113 0.9137 0.35629 0.0
C159 C 0.34664 0.98583 0.33467 0.0
C160 C 0.33802 0.92315 0.30675 0.0
C161 C 0.28228 0.96732 0.35376 0.0
O162 O 0.35176 0.97202 0.35042 0.0
O163 O 0.32946 0.98029 0.32304 0.0
O164 O 0.28522 0.95816 0.33442 0.0
O165 O 0.29905 0.96576 0.36714 0.0
C166 C 0.32478 0.91446 0.37297 0.0
O167 O 0.31798 0.93122 0.30658 0.0
O168 O 0.34945 0.92769 0.32436 0.0
In169 In 0.29671 0.07592 0.60763 0.0
O170 O 0.31306 0.08973 0.63994 0.0
O171 O 0.33189 0.06618 0.61963 0.0
C172 C 0.25796 0.09962 0.60178 0.0
C173 C 0.3181 0.09425 0.5715 0.0
C174 C 0.27847 0.03512 0.61764 0.0
O175 O 0.27238 0.10523 0.61681 0.0
O176 O 0.26286 0.08192 0.5906 0.0
O177 O 0.28711 0.03941 0.59833 0.0
O178 O 0.27987 0.05117 0.63196 0.0
C179 C 0.33161 0.07911 0.63685 0.0
O180 O 0.31442 0.07298 0.57266 0.0
O181 O 0.31114 0.10555 0.58838 0.0
In182 In 0.1715 0.0516 0.85392 0.0
O183 O 0.1601 0.06943 0.88629 0.0
O184 O 0.18133 0.08768 0.8631 0.0
C185 C 0.14836 0.01222 0.85133 0.0
C186 C 0.14995 0.07099 0.81843 0.0
C187 C 0.21266 0.03377 0.86319 0.0
O188 O 0.14286 0.02752 0.86553 0.0
O189 O 0.16547 0.01673 0.83914 0.0
O190 O 0.20761 0.04127 0.84355 0.0
O191 O 0.19728 0.0363 0.87807 0.0
C192 C 0.16984 0.08805 0.88131 0.0
O193 O 0.17132 0.0676 0.81798 0.0
O194 O 0.14025 0.06471 0.83651 0.0
In195 In 0.20258 0.91665 0.11033 0.0
O196 O 0.18362 0.90392 0.14147 0.0
O197 O 0.16788 0.92956 0.12109 0.0
C198 C 0.23742 0.88739 0.10614 0.0
C199 C 0.18013 0.89907 0.07448 0.0
C200 C 0.22442 0.95611 0.11935 0.0
O201 O 0.22672 0.88931 0.12476 0.0
O202 O 0.23126 0.90075 0.09051 0.0
O203 O 0.21654 0.95163 0.09978 0.0
O204 O 0.22095 0.94091 0.13412 0.0
C205 C 0.16625 0.91621 0.13791 0.0
O206 O 0.18669 0.9197 0.07455 0.0
O207 O 0.18428 0.88823 0.09257 0.0
In208 In 0.14159 0.32381 0.04742 0.0
O209 O 0.17831 0.31378 0.05686 0.0
O210 O 0.16375 0.34349 0.07188 0.0
C211 C 0.12275 0.28811 0.02554 0.0
C212 C 0.11278 0.32904 0.08226 0.0
C213 C 0.15211 0.35118 0.01221 0.0
O214 O 0.14035 0.28596 0.03786 0.0
O215 O 0.11453 0.30799 0.02501 0.0
O216 O 0.13773 0.35721 0.02712 0.0
O217 O 0.16061 0.33168 0.01521 0.0
C218 C 0.18089 0.3307 0.07001 0.0
O219 O 0.11255 0.34208 0.06505 0.0
O220 O 0.12694 0.3128 0.08129 0.0
In221 In 0.63887 0.16708 0.952 0.0
O222 O 0.6744 0.1714 0.93613 0.0
O223 O 0.65542 0.14113 0.92933 0.0
C224 C 0.63081 0.20484 0.97681 0.0
C225 C 0.60726 0.16664 0.91885 0.0
C226 C 0.64794 0.13725 0.98552 0.0
O227 O 0.64502 0.20495 0.96059 0.0
O228 O 0.62083 0.18612 0.98007 0.0
O229 O 0.62812 0.13915 0.97716 0.0
O230 O 0.66269 0.15055 0.97729 0.0
C231 C 0.67372 0.15205 0.92645 0.0
O232 O 0.60678 0.15287 0.93544 0.0
O233 O 0.6228 0.18146 0.91999 0.0
In234 In 0.07723 0.39412 0.20283 0.0
O235 O 0.0784 0.43306 0.20671 0.0
O236 O 0.08189 0.4192 0.1736 0.0
C237 C 0.0374 0.38258 0.22275 0.0
C238 C 0.08118 0.36585 0.16712 0.0
C239 C 0.11071 0.39256 0.23471 0.0
O240 O 0.04222 0.403 0.21772 0.0
O241 O 0.05234 0.36824 0.21708 0.0
O242 O 0.11447 0.39832 0.21436 0.0
O243 O 0.09052 0.38635 0.23845 0.0
C244 C 0.08216 0.4368 0.18585 0.0
O245 O 0.09498 0.36535 0.1837 0.0
O246 O 0.06515 0.38005 0.16912 0.0
In247 In 0.85842 0.83109 0.45486 0.0
O248 O 0.89055 0.8438 0.43734 0.0
O249 O 0.87078 0.81794 0.42104 0.0
C250 C 0.85196 0.85474 0.49346 0.0
C251 C 0.82343 0.84914 0.4313 0.0
C252 C 0.86953 0.79137 0.47461 0.0
O253 O 0.86711 0.86061 0.47924 0.0
O254 O 0.84059 0.8373 0.48811 0.0
O255 O 0.85 0.79479 0.46598 0.0
O256 O 0.88337 0.80776 0.47264 0.0
C257 C 0.88781 0.83108 0.42007 0.0
O258 O 0.82342 0.82834 0.43725 0.0
O259 O 0.84078 0.86021 0.43745 0.0
In260 In 0.92281 0.10532 0.20221 0.0
O261 O 0.92475 0.06883 0.18735 0.0
O262 O 0.89252 0.08531 0.19102 0.0
C263 C 0.96364 0.11732 0.21902 0.0
C264 C 0.91957 0.13217 0.16548 0.0
C265 C 0.89938 0.10226 0.24137 0.0
O266 O 0.95947 0.0971 0.2126 0.0
O267 O 0.94744 0.13126 0.2164 0.0
O268 O 0.89306 0.11546 0.2255 0.0
O269 O 0.91785 0.09184 0.23779 0.0
C270 C 0.90324 0.06758 0.18541 0.0
O271 O 0.90983 0.13696 0.18414 0.0
O272 O 0.9314 0.11417 0.16575 0.0
In273 In 0.3526 0.67108 0.54389 0.0
O274 O 0.31444 0.66622 0.53802 0.0
O275 O 0.32657 0.66415 0.57197 0.0
C276 C 0.35943 0.71236 0.52443 0.0
C277 C 0.38054 0.6683 0.58008 0.0
C278 C 0.35823 0.63754 0.51252 0.0
O279 O 0.3398 0.70505 0.52937 0.0
O280 O 0.37543 0.69916 0.52998 0.0
O281 O 0.36431 0.65786 0.50921 0.0
O282 O 0.35038 0.63383 0.53215 0.0
C283 C 0.30985 0.66212 0.55863 0.0
O284 O 0.38245 0.65535 0.56296 0.0
O285 O 0.36494 0.68303 0.57852 0.0
In286 In 0.08643 0.60402 0.29376 0.0
O287 O 0.07821 0.56599 0.29676 0.0
O288 O 0.09717 0.58159 0.32341 0.0
C289 C 0.05114 0.61524 0.26615 0.0
C290 C 0.09145 0.63551 0.32673 0.0
C291 C 0.12178 0.59808 0.2649 0.0
O292 O 0.04789 0.60508 0.28484 0.0
O293 O 0.07162 0.61987 0.26205 0.0
O294 O 0.11444 0.61763 0.27017 0.0
O295 O 0.11177 0.58181 0.27467 0.0
C296 C 0.08878 0.56349 0.3154 0.0
O297 O 0.10652 0.63157 0.31193 0.0
O298 O 0.0734 0.62405 0.32443 0.0
In299 In 0.41733 0.39285 0.79572 0.0
O300 O 0.41941 0.42793 0.81341 0.0
O301 O 0.38766 0.41043 0.81209 0.0
C302 C 0.45771 0.38214 0.77712 0.0
C303 C 0.41608 0.36295 0.83005 0.0
C304 C 0.39379 0.39928 0.75699 0.0
O305 O 0.45387 0.40165 0.78564 0.0
O306 O 0.44137 0.3682 0.77855 0.0
O307 O 0.38814 0.38397 0.77112 0.0
O308 O 0.41131 0.41057 0.76229 0.0
C309 C 0.39837 0.42792 0.81844 0.0
O310 O 0.40454 0.36018 0.812 0.0
O311 O 0.42871 0.3804 0.83022 0.0
In312 In 0.94912 0.85377 0.67525 0.0
O313 O 0.94109 0.81569 0.68056 0.0
O314 O 0.92597 0.8329 0.65252 0.0
C315 C 0.96699 0.86739 0.71525 0.0
C316 C 0.91442 0.88329 0.67303 0.0
C317 C 0.98632 0.85076 0.6483 0.0
O318 O 0.95869 0.84763 0.71256 0.0
O319 O 0.96564 0.88018 0.698 0.0
O320 O 0.96817 0.86001 0.64137 0.0
O321 O 0.98556 0.84343 0.66843 0.0
C322 C 0.92841 0.81445 0.66317 0.0
O323 O 0.93238 0.88566 0.6613 0.0
O324 O 0.91442 0.86636 0.68637 0.0
In325 In 0.89516 0.2002 0.42144 0.0
O326 O 0.86352 0.1811 0.4099 0.0
O327 O 0.88842 0.16294 0.42903 0.0
C328 C 0.89182 0.23966 0.39842 0.0
C329 C 0.9344 0.18773 0.40125 0.0
C330 C 0.88608 0.21615 0.4634 0.0
O331 O 0.88249 0.2216 0.39126 0.0
O332 O 0.90194 0.23785 0.41729 0.0
O333 O 0.90603 0.21059 0.4573 0.0
O334 O 0.87083 0.21269 0.4486 0.0
C335 C 0.86965 0.16234 0.41856 0.0
O336 O 0.93253 0.18763 0.42276 0.0
O337 O 0.9166 0.19324 0.39065 0.0
In338 In 0.54656 0.14503 0.17241 0.0
O339 O 0.5605 0.18176 0.17384 0.0
O340 O 0.55873 0.16443 0.14199 0.0
C341 C 0.53037 0.13343 0.21351 0.0
C342 C 0.58391 0.11905 0.16981 0.0
C343 C 0.50667 0.14682 0.15014 0.0
O344 O 0.53702 0.15352 0.20911 0.0
O345 O 0.53262 0.11934 0.19736 0.0
O346 O 0.52255 0.13374 0.1436 0.0
O347 O 0.5109 0.15824 0.16785 0.0
C348 C 0.56385 0.18244 0.15249 0.0
O349 O 0.56565 0.11391 0.15949 0.0
O350 O 0.58281 0.13677 0.18199 0.0
In351 In 0.61186 0.79151 0.91789 0.0
O352 O 0.5766 0.80853 0.9224 0.0
O353 O 0.5905 0.80485 0.88912 0.0
C354 C 0.62434 0.77361 0.9582 0.0
C355 C 0.6401 0.82702 0.91321 0.0
C356 C 0.60709 0.75235 0.8947 0.0
O357 O 0.60447 0.78132 0.95469 0.0
O358 O 0.63791 0.77573 0.94162 0.0
O359 O 0.62086 0.76764 0.88824 0.0
O360 O 0.59647 0.7567 0.91288 0.0
C361 C 0.57416 0.81181 0.90118 0.0
O362 O 0.64293 0.80858 0.90237 0.0
O363 O 0.62364 0.82695 0.92709 0.0
In364 In 0.94824 0.14702 0.82574 0.0
O365 O 0.95634 0.1846 0.83095 0.0
O366 O 0.92164 0.17473 0.83255 0.0
C367 C 0.96674 0.13862 0.78435 0.0
C368 C 0.91188 0.11965 0.83016 0.0
C369 C 0.97942 0.14121 0.85923 0.0
O370 O 0.9617 0.15851 0.7909 0.0
O371 O 0.96168 0.12315 0.79835 0.0
O372 O 0.95952 0.14829 0.86305 0.0
O373 O 0.98317 0.13601 0.83872 0.0
C374 C 0.93606 0.19047 0.83507 0.0
O375 O 0.92972 0.11728 0.84197 0.0
O376 O 0.91269 0.13555 0.81569 0.0
In377 In 0.60068 0.20377 0.57503 0.0
O378 O 0.6324 0.18619 0.58848 0.0
O379 O 0.61062 0.16767 0.56601 0.0
C380 C 0.59831 0.24341 0.59787 0.0
C381 C 0.56367 0.18455 0.59403 0.0
C382 C 0.61181 0.22066 0.53398 0.0
O383 O 0.61184 0.22774 0.60394 0.0
O384 O 0.58655 0.23906 0.58041 0.0
O385 O 0.59173 0.21417 0.53859 0.0
O386 O 0.62612 0.2178 0.54981 0.0
C387 C 0.62821 0.16755 0.57844 0.0
O388 O 0.5647 0.18797 0.57271 0.0
O389 O 0.58102 0.19084 0.605 0.0
In390 In 0.54683 0.8525 0.32708 0.0
O391 O 0.56506 0.88313 0.34244 0.0
O392 O 0.58335 0.86187 0.31936 0.0
C393 C 0.50626 0.84975 0.34811 0.0
C394 C 0.56307 0.81378 0.34536 0.0
C395 C 0.53121 0.86502 0.2859 0.0
O396 O 0.5218 0.8628 0.35545 0.0
O397 O 0.51119 0.83884 0.33024 0.0
O398 O 0.53853 0.84508 0.28984 0.0
O399 O 0.53269 0.87864 0.30253 0.0
C400 C 0.58372 0.87895 0.33244 0.0
O401 O 0.5619 0.81628 0.32393 0.0
O402 O 0.55648 0.8307 0.35684 0.0
In403 In 0.89433 0.79752 0.07855 0.0
O404 O 0.93332 0.79689 0.07589 0.0
O405 O 0.9175 0.82692 0.08834 0.0
C406 C 0.8857 0.77813 0.03763 0.0
C407 C 0.86501 0.83247 0.08244 0.0
C408 C 0.89293 0.76501 0.11169 0.0
O409 O 0.90575 0.78173 0.04465 0.0
O410 O 0.87029 0.78484 0.05099 0.0
O411 O 0.8832 0.76281 0.0927 0.0
O412 O 0.90243 0.78403 0.1144 0.0
C413 C 0.93587 0.81662 0.0842 0.0
O414 O 0.8646 0.81553 0.09578 0.0
O415 O 0.87971 0.83124 0.06678 0.0
In416 In 0.671 0.95135 0.85274 0.0
O417 O 0.66018 0.93106 0.88383 0.0
O418 O 0.68081 0.91454 0.85893 0.0
C419 C 0.64605 0.98967 0.85547 0.0
C420 C 0.65145 0.93772 0.81357 0.0
C421 C 0.71193 0.96884 0.86333 0.0
O422 O 0.64017 0.97164 0.86573 0.0
O423 O 0.66472 0.98846 0.84489 0.0
O424 O 0.7067 0.96344 0.84308 0.0
O425 O 0.69676 0.9647 0.87802 0.0
C426 C 0.6701 0.91298 0.87753 0.0
O427 O 0.6729 0.93989 0.81505 0.0
O428 O 0.64071 0.94159 0.83172 0.0
In429 In 0.79634 0.9212 0.60865 0.0
O430 O 0.81391 0.92343 0.57347 0.0
O431 O 0.81198 0.89147 0.59047 0.0
C432 C 0.7771 0.96163 0.61851 0.0
C433 C 0.83098 0.91949 0.63827 0.0
C434 C 0.75756 0.89748 0.60366 0.0
O435 O 0.78603 0.95758 0.59926 0.0
O436 O 0.77881 0.94561 0.63279 0.0
O437 O 0.77212 0.89205 0.61863 0.0
O438 O 0.76265 0.9146 0.5917 0.0
C439 C 0.81857 0.90231 0.57316 0.0
O440 O 0.81284 0.90813 0.64113 0.0
O441 O 0.83098 0.93237 0.62102 0.0
In442 In 0.82979 0.04436 0.35341 0.0
O443 O 0.82716 0.06285 0.31873 0.0
O444 O 0.85959 0.05884 0.33444 0.0
C445 C 0.78857 0.02751 0.36414 0.0
C446 C 0.83386 0.07849 0.38337 0.0
C447 C 0.852 0.00461 0.34843 0.0
O448 O 0.79317 0.03458 0.34425 0.0
O449 O 0.80453 0.02963 0.37844 0.0
O450 O 0.85853 0.01943 0.36268 0.0
O451 O 0.83444 0.00983 0.3372 0.0
C452 C 0.84843 0.06653 0.31779 0.0
O453 O 0.84432 0.05976 0.38579 0.0
O454 O 0.82066 0.0794 0.36636 0.0
In455 In 0.70259 0.08229 0.10359 0.0
O456 O 0.68544 0.10041 0.13325 0.0
O457 O 0.66968 0.07056 0.11981 0.0
C458 C 0.73535 0.11524 0.10305 0.0
C459 C 0.67981 0.08777 0.06395 0.0
C460 C 0.72264 0.04155 0.1121 0.0
O461 O 0.73594 0.09842 0.11636 0.0
O462 O 0.71782 0.11593 0.09079 0.0
O463 O 0.71966 0.04885 0.09204 0.0
O464 O 0.71504 0.0545 0.12742 0.0
C465 C 0.66879 0.08672 0.13401 0.0
O466 O 0.69906 0.07804 0.06482 0.0
O467 O 0.67188 0.0935 0.08304 0.0
In468 In 0.66671 0.04832 0.6442 0.0
O469 O 0.64909 0.06626 0.61467 0.0
O470 O 0.6777 0.08247 0.62994 0.0
C471 C 0.6342 0.01571 0.63972 0.0
C472 C 0.65854 0.06502 0.68646 0.0
C473 C 0.7082 0.02945 0.6369 0.0
O474 O 0.65444 0.01312 0.63304 0.0
O475 O 0.63001 0.03524 0.64761 0.0
O476 O 0.7007 0.03344 0.65669 0.0
O477 O 0.69509 0.03562 0.62107 0.0
C478 C 0.66206 0.08347 0.61522 0.0
O479 O 0.66231 0.04417 0.68268 0.0
O480 O 0.66047 0.07759 0.66917 0.0
In481 In 0.70399 0.91883 0.39602 0.0
O482 O 0.68693 0.9048 0.36414 0.0
O483 O 0.66765 0.92663 0.38582 0.0
C484 C 0.74392 0.89647 0.39816 0.0
C485 C 0.68596 0.90044 0.434 0.0
C486 C 0.72066 0.96023 0.38554 0.0
O487 O 0.72764 0.88922 0.38602 0.0
O488 O 0.7401 0.91489 0.40857 0.0
O489 O 0.71373 0.9553 0.40539 0.0
O490 O 0.71813 0.94457 0.37096 0.0
C491 C 0.66798 0.91424 0.36822 0.0
O492 O 0.68734 0.92186 0.43159 0.0
O493 O 0.6936 0.88901 0.41752 0.0
In494 In 0.82711 0.9505 0.14723 0.0
O495 O 0.84162 0.93418 0.11533 0.0
O496 O 0.81539 0.91659 0.1335 0.0
C497 C 0.85152 0.98783 0.15753 0.0
C498 C 0.84397 0.92566 0.18177 0.0
C499 C 0.78841 0.97172 0.13499 0.0
O500 O 0.85611 0.97591 0.14009 0.0
O501 O 0.83474 0.98091 0.16905 0.0
O502 O 0.79036 0.96155 0.15396 0.0
O503 O 0.80564 0.97033 0.12216 0.0
C504 C 0.82942 0.91644 0.11714 0.0
O505 O 0.82315 0.93159 0.18145 0.0
O506 O 0.8555 0.93219 0.16484 0.0
In507 In 0.79329 0.08024 0.89513 0.0
O508 O 0.80955 0.07739 0.93091 0.0
O509 O 0.80536 0.11006 0.91576 0.0
C510 C 0.77701 0.0386 0.88521 0.0
C511 C 0.82858 0.08396 0.86647 0.0
C512 C 0.75392 0.1036 0.89686 0.0
O513 O 0.78366 0.04388 0.90506 0.0
O514 O 0.77932 0.05413 0.87049 0.0
O515 O 0.77036 0.11009 0.88457 0.0
O516 O 0.75718 0.08521 0.90751 0.0
C517 C 0.81216 0.09876 0.93269 0.0
O518 O 0.80962 0.09346 0.86265 0.0
O519 O 0.82931 0.07204 0.88437 0.0
In520 In 0.85317 0.67013 0.95078 0.0
O521 O 0.88528 0.65651 0.93406 0.0
O522 O 0.86525 0.68075 0.91582 0.0
C523 C 0.84791 0.64585 0.98923 0.0
C524 C 0.81691 0.65199 0.92932 0.0
C525 C 0.86427 0.71032 0.96975 0.0
O526 O 0.86287 0.64063 0.9746 0.0
O527 O 0.83635 0.66339 0.9846 0.0
O528 O 0.84485 0.70681 0.96096 0.0
O529 O 0.87803 0.69384 0.96813 0.0
C530 C 0.8824 0.66772 0.91584 0.0
O531 O 0.81757 0.67305 0.93417 0.0
O532 O 0.83435 0.64088 0.93513 0.0
In533 In 0.35032 0.82707 0.04957 0.0
O534 O 0.31451 0.81853 0.06266 0.0
O535 O 0.33158 0.84759 0.07617 0.0
C536 C 0.36374 0.7907 0.02506 0.0
C537 C 0.38336 0.83143 0.08069 0.0
C538 C 0.33736 0.85581 0.01619 0.0
O539 O 0.35003 0.78862 0.04156 0.0
O540 O 0.37086 0.81068 0.02163 0.0
O541 O 0.35508 0.85946 0.02796 0.0
O542 O 0.32665 0.83791 0.02139 0.0
C543 C 0.31377 0.83562 0.07583 0.0
O544 O 0.3816 0.84472 0.0638 0.0
O545 O 0.36908 0.81532 0.08112 0.0
In546 In 0.9205 0.60259 0.79739 0.0
O547 O 0.90746 0.63498 0.81406 0.0
O548 O 0.93047 0.61409 0.83286 0.0
C549 C 0.89447 0.60177 0.75941 0.0
C550 C 0.90692 0.56332 0.81726 0.0
C551 C 0.96152 0.61415 0.78049 0.0
O552 O 0.88728 0.61024 0.77781 0.0
O553 O 0.91443 0.594 0.76025 0.0
O554 O 0.95716 0.59416 0.78737 0.0
O555 O 0.94538 0.62822 0.78279 0.0
C556 C 0.91805 0.63169 0.83255 0.0
O557 O 0.92607 0.56501 0.80753 0.0
O558 O 0.8951 0.58123 0.81689 0.0
In559 In 0.1447 0.16924 0.54603 0.0
O560 O 0.17968 0.17151 0.56383 0.0
O561 O 0.16312 0.13931 0.56098 0.0
C562 C 0.13393 0.20995 0.52809 0.0
C563 C 0.11538 0.16718 0.58083 0.0
C564 C 0.15022 0.14585 0.50707 0.0
O565 O 0.1536 0.20584 0.53605 0.0
O566 O 0.1199 0.1937 0.5297 0.0
O567 O 0.13514 0.14028 0.52146 0.0
O568 O 0.16172 0.16329 0.51219 0.0
C569 C 0.18025 0.15027 0.56789 0.0
O570 O 0.11237 0.15595 0.56263 0.0
O571 O 0.13273 0.17993 0.58091 0.0
In572 In 0.07583 0.89859 0.80048 0.0
O573 O 0.08701 0.86563 0.81725 0.0
O574 O 0.0654 0.88812 0.83601 0.0
C575 C 0.09902 0.90048 0.7611 0.0
C576 C 0.09689 0.93377 0.8212 0.0
C577 C 0.03452 0.89002 0.7827 0.0
O578 O 0.10461 0.88671 0.77672 0.0
O579 O 0.08192 0.91279 0.76537 0.0
O580 O 0.0401 0.90974 0.78959 0.0
O581 O 0.04943 0.87478 0.78573 0.0
C582 C 0.07678 0.86982 0.83579 0.0
O583 O 0.07563 0.93423 0.81728 0.0
O584 O 0.10681 0.91593 0.81456 0.0
In585 In 0.64301 0.33068 0.45011 0.0
O586 O 0.61074 0.34267 0.43224 0.0
O587 O 0.63317 0.32041 0.41436 0.0
C588 C 0.64421 0.35489 0.48905 0.0
C589 C 0.68057 0.34914 0.43123 0.0
C590 C 0.63339 0.28951 0.46774 0.0
O591 O 0.63194 0.36098 0.4724 0.0
O592 O 0.65507 0.33656 0.48613 0.0
O593 O 0.65321 0.29475 0.46098 0.0
O594 O 0.61853 0.30485 0.4649 0.0
C595 C 0.6151 0.33207 0.41395 0.0
O596 O 0.67898 0.32784 0.43444 0.0
O597 O 0.66344 0.36048 0.43745 0.0
In598 In 0.921 0.3967 0.70153 0.0
O599 O 0.90204 0.368 0.68371 0.0
O600 O 0.93122 0.38191 0.66734 0.0
C601 C 0.88719 0.39483 0.73296 0.0
C602 C 0.9158 0.43955 0.68554 0.0
C603 C 0.96182 0.38665 0.72044 0.0
O604 O 0.90677 0.3867 0.73638 0.0
O605 O 0.88436 0.40309 0.71336 0.0
O606 O 0.95621 0.40676 0.71518 0.0
O607 O 0.94705 0.37181 0.71574 0.0
C608 C 0.91499 0.36784 0.66651 0.0
O609 O 0.91944 0.43525 0.70631 0.0
O610 O 0.91652 0.42234 0.67268 0.0
In611 In 0.57909 0.60311 0.20039 0.0
O612 O 0.5943 0.63482 0.18428 0.0
O613 O 0.56877 0.61653 0.16587 0.0
C614 C 0.60173 0.59476 0.23926 0.0
C615 C 0.59636 0.56736 0.17745 0.0
C616 C 0.53946 0.61572 0.21952 0.0
O617 O 0.60786 0.61063 0.22596 0.0
O618 O 0.58446 0.58368 0.23287 0.0
O619 O 0.54208 0.59629 0.21041 0.0
O620 O 0.55652 0.62877 0.21817 0.0
C621 C 0.58277 0.63291 0.16611 0.0
O622 O 0.57532 0.56833 0.18239 0.0
O623 O 0.60792 0.58426 0.18397 0.0
In624 In 0.54736 0.63971 0.82945 0.0
O625 O 0.56589 0.67402 0.826 0.0
O626 O 0.56721 0.65622 0.85768 0.0
C627 C 0.5262 0.63426 0.78896 0.0
C628 C 0.58159 0.60946 0.83033 0.0
C629 C 0.5119 0.64421 0.85827 0.0
O630 O 0.53407 0.6533 0.79526 0.0
O631 O 0.52941 0.61821 0.80287 0.0
O632 O 0.52033 0.62489 0.85377 0.0
O633 O 0.52084 0.66071 0.84788 0.0
C634 C 0.57288 0.67368 0.84646 0.0
O635 O 0.5642 0.60758 0.84291 0.0
O636 O 0.5811 0.62606 0.81663 0.0
In637 In 0.60223 0.30073 0.07928 0.0
O638 O 0.56741 0.31864 0.07532 0.0
O639 O 0.5851 0.32049 0.10699 0.0
C640 C 0.61442 0.27654 0.04256 0.0
C641 C 0.634 0.33337 0.07993 0.0
C642 C 0.59208 0.26394 0.10415 0.0
O643 O 0.59779 0.29037 0.04174 0.0
O644 O 0.62501 0.27594 0.06128 0.0
O645 O 0.60854 0.27686 0.10955 0.0
O646 O 0.5809 0.26994 0.08675 0.0
C647 C 0.56763 0.32591 0.09572 0.0
O648 O 0.63461 0.31642 0.0933 0.0
O649 O 0.61793 0.33307 0.06559 0.0
In650 In 0.95049 0.35037 0.33186 0.0
O651 O 0.93477 0.3832 0.34478 0.0
O652 O 0.91753 0.36498 0.3184 0.0
C653 C 0.98538 0.34119 0.36016 0.0
C654 C 0.92328 0.3177 0.34872 0.0
C655 C 0.97211 0.35937 0.29246 0.0
O656 O 0.97609 0.36067 0.35968 0.0
O657 O 0.97772 0.32711 0.34584 0.0
O658 O 0.96241 0.3404 0.29596 0.0
O659 O 0.97066 0.37341 0.30867 0.0
C660 C 0.91754 0.38183 0.33185 0.0
O661 O 0.93136 0.31634 0.32868 0.0
O662 O 0.92879 0.33547 0.3595 0.0
In663 In 0.89476 0.70096 0.58275 0.0
O664 O 0.92957 0.68306 0.58131 0.0
O665 O 0.90963 0.681 0.61167 0.0
C666 C 0.88805 0.72336 0.54324 0.0
C667 C 0.86503 0.66637 0.58103 0.0
C668 C 0.90064 0.7359 0.61177 0.0
O669 O 0.90694 0.71404 0.54795 0.0
O670 O 0.87284 0.72096 0.55821 0.0
O671 O 0.88131 0.72669 0.60917 0.0
O672 O 0.91628 0.72815 0.59925 0.0
C673 C 0.92805 0.67603 0.60174 0.0
O674 O 0.86215 0.68343 0.59395 0.0
O675 O 0.88245 0.66735 0.56841 0.0
In676 In 0.54805 0.35683 0.66965 0.0
O677 O 0.56613 0.38911 0.65854 0.0
O678 O 0.5824 0.36786 0.68315 0.0
C679 C 0.51246 0.35203 0.6414 0.0
C680 C 0.57125 0.323 0.6494 0.0
C681 C 0.52656 0.3638 0.70957 0.0
O682 O 0.5226 0.37098 0.64337 0.0
O683 O 0.5196 0.33634 0.65422 0.0
O684 O 0.5356 0.34481 0.70469 0.0
O685 O 0.52887 0.37903 0.69458 0.0
C686 C 0.58355 0.38543 0.67075 0.0
O687 O 0.56484 0.32139 0.67003 0.0
O688 O 0.56661 0.34175 0.63993 0.0
In689 In 0.90409 0.3009 0.92277 0.0
O690 O 0.87253 0.31782 0.90829 0.0
O691 O 0.89056 0.33505 0.93476 0.0
C692 C 0.91238 0.26679 0.89299 0.0
C693 C 0.9396 0.32658 0.90971 0.0
C694 C 0.8927 0.27956 0.96187 0.0
O695 O 0.89356 0.27729 0.89313 0.0
O696 O 0.92608 0.27277 0.90838 0.0
O697 O 0.91235 0.28779 0.95872 0.0
O698 O 0.87908 0.28221 0.94547 0.0
C699 C 0.87433 0.33546 0.9206 0.0
O700 O 0.93964 0.31623 0.92868 0.0
O701 O 0.92175 0.32408 0.89802 0.0
In702 In 0.95153 0.64946 0.16679 0.0
O703 O 0.93532 0.61813 0.15118 0.0
O704 O 0.92154 0.6306 0.18236 0.0
C705 C 0.98092 0.66097 0.1336 0.0
C706 C 0.92403 0.68547 0.15929 0.0
C707 C 0.98068 0.63786 0.20036 0.0
O708 O 0.97188 0.64141 0.13439 0.0
O709 O 0.97531 0.67424 0.14956 0.0
O710 O 0.96442 0.65157 0.20399 0.0
O711 O 0.98151 0.62992 0.18045 0.0
C712 C 0.92012 0.61628 0.16634 0.0
O713 O 0.93838 0.68539 0.17546 0.0
O714 O 0.92334 0.66732 0.14779 0.0
In715 In 0.60108 0.69764 0.42269 0.0
O716 O 0.63223 0.68238 0.40576 0.0
O717 O 0.61816 0.66513 0.43452 0.0
C718 C 0.59036 0.73291 0.39546 0.0
C719 C 0.56371 0.67329 0.41185 0.0
C720 C 0.61563 0.72068 0.45964 0.0
O721 O 0.60666 0.7196 0.39069 0.0
O722 O 0.57994 0.72827 0.41368 0.0
O723 O 0.59991 0.70594 0.46106 0.0
O724 O 0.62408 0.72299 0.44001 0.0
C725 C 0.63303 0.66531 0.41892 0.0
O726 O 0.5646 0.68532 0.42976 0.0
O727 O 0.58176 0.67302 0.40024 0.0
In728 In 0.83178 0.54826 0.64426 0.0
O729 O 0.82671 0.56427 0.67973 0.0
O730 O 0.85637 0.57248 0.66042 0.0
C731 C 0.79574 0.52192 0.63383 0.0
C732 C 0.83131 0.58119 0.61259 0.0
C733 C 0.86258 0.51634 0.65542 0.0
O734 O 0.79452 0.53694 0.64932 0.0
O735 O 0.81466 0.52084 0.62371 0.0
O736 O 0.8623 0.52531 0.63578 0.0
O737 O 0.84694 0.52284 0.66869 0.0
C738 C 0.84556 0.57488 0.67884 0.0
O739 O 0.84551 0.56493 0.61215 0.0
O740 O 0.81662 0.57991 0.62826 0.0
In741 In 0.70139 0.57387 0.89336 0.0
O742 O 0.6921 0.56849 0.93104 0.0
O743 O 0.67844 0.59727 0.91369 0.0
C744 C 0.72062 0.53462 0.87934 0.0
C745 C 0.66617 0.57553 0.86446 0.0
C746 C 0.73829 0.6007 0.89876 0.0
O747 O 0.71053 0.53633 0.89835 0.0
O748 O 0.72034 0.55252 0.86736 0.0
O749 O 0.72188 0.6067 0.88614 0.0
O750 O 0.73604 0.58143 0.90793 0.0
C751 C 0.67991 0.58626 0.93205 0.0
O752 O 0.68356 0.58814 0.86214 0.0
O753 O 0.66716 0.5616 0.88087 0.0
In754 In 0.67316 0.45087 0.14363 0.0
O755 O 0.67612 0.44319 0.18192 0.0
O756 O 0.64956 0.42735 0.16308 0.0
C757 C 0.71449 0.4675 0.13299 0.0
C758 C 0.6714 0.41634 0.1139 0.0
C759 C 0.64674 0.48855 0.14639 0.0
O760 O 0.7104 0.45824 0.15204 0.0
O761 O 0.69792 0.46762 0.11924 0.0
O762 O 0.64006 0.47089 0.13606 0.0
O763 O 0.66654 0.48719 0.1545 0.0
C764 C 0.65905 0.43006 0.1821 0.0
O765 O 0.66024 0.4346 0.111 0.0
O766 O 0.68406 0.41608 0.13133 0.0
In767 In 0.80009 0.42105 0.39468 0.0
O768 O 0.81798 0.42312 0.42954 0.0
O769 O 0.81676 0.39133 0.41202 0.0
C770 C 0.78138 0.46161 0.38478 0.0
C771 C 0.83443 0.41946 0.3648 0.0
C772 C 0.76137 0.39757 0.40132 0.0
O773 O 0.79045 0.45759 0.40397 0.0
O774 O 0.78255 0.44542 0.37061 0.0
O775 O 0.77507 0.39234 0.38548 0.0
O776 O 0.7671 0.41463 0.41309 0.0
C777 C 0.8232 0.40213 0.42944 0.0
O778 O 0.81634 0.40797 0.36208 0.0
O779 O 0.83449 0.43238 0.38203 0.0
In780 In 0.82913 0.44763 0.84956 0.0
O781 O 0.84767 0.43409 0.88084 0.0
O782 O 0.81958 0.41507 0.86788 0.0
C783 C 0.86048 0.48178 0.8473 0.0
C784 C 0.83573 0.42275 0.81131 0.0
C785 C 0.78746 0.46632 0.85614 0.0
O786 O 0.84285 0.48296 0.85948 0.0
O787 O 0.86276 0.46307 0.83714 0.0
O788 O 0.79628 0.46454 0.83658 0.0
O789 O 0.79927 0.45793 0.87198 0.0
C790 C 0.83545 0.41638 0.88237 0.0
O791 O 0.82404 0.44088 0.81118 0.0
O792 O 0.84273 0.41692 0.83071 0.0
In793 In 0.80133 0.57488 0.10603 0.0
O794 O 0.81841 0.5868 0.1387 0.0
O795 O 0.83747 0.56595 0.11584 0.0
C796 C 0.7617 0.59788 0.10556 0.0
C797 C 0.81966 0.59463 0.06887 0.0
C798 C 0.78452 0.53316 0.1144 0.0
O799 O 0.77838 0.60453 0.11747 0.0
O800 O 0.76499 0.57972 0.09455 0.0
O801 O 0.79043 0.53934 0.09458 0.0
O802 O 0.78794 0.54775 0.12987 0.0
C803 C 0.83723 0.57729 0.13415 0.0
O804 O 0.81748 0.57318 0.07019 0.0
O805 O 0.81269 0.60544 0.08605 0.0
In806 In 0.67113 0.54567 0.3564 0.0
O807 O 0.65997 0.56368 0.38883 0.0
O808 O 0.68074 0.58186 0.36522 0.0
C809 C 0.64743 0.50647 0.35602 0.0
C810 C 0.65079 0.56369 0.31943 0.0
C811 C 0.71264 0.52875 0.36552 0.0
O812 O 0.64123 0.52323 0.36808 0.0
O813 O 0.66559 0.5094 0.34492 0.0
O814 O 0.7069 0.53483 0.34559 0.0
O815 O 0.69765 0.53187 0.38065 0.0
C816 C 0.66971 0.58224 0.3837 0.0
O817 O 0.67219 0.56069 0.31999 0.0
O818 O 0.64047 0.55789 0.33731 0.0
In819 In 0.69966 0.42013 0.6032 0.0
O820 O 0.68452 0.40528 0.6355 0.0
O821 O 0.66753 0.43334 0.6197 0.0
C822 C 0.73616 0.39563 0.5909 0.0
C823 C 0.6742 0.40407 0.56871 0.0
C824 C 0.72383 0.45691 0.61514 0.0
O825 O 0.72461 0.39047 0.60844 0.0
O826 O 0.72903 0.41276 0.57998 0.0
O827 O 0.70993 0.45761 0.59858 0.0
O828 O 0.72463 0.43824 0.62579 0.0
C829 C 0.66756 0.41866 0.63549 0.0
O830 O 0.6809 0.42466 0.56901 0.0
O831 O 0.67996 0.39245 0.58587 0.0
In832 In 0.64429 0.82682 0.55091 0.0
O833 O 0.61114 0.83966 0.56626 0.0
O834 O 0.63042 0.81503 0.5848 0.0
C835 C 0.65374 0.85125 0.51353 0.0
C836 C 0.67839 0.84672 0.57401 0.0
C837 C 0.63468 0.7878 0.52923 0.0
O838 O 0.6366 0.85587 0.52588 0.0
O839 O 0.6654 0.83432 0.51993 0.0
O840 O 0.65166 0.78931 0.54252 0.0
O841 O 0.62257 0.80552 0.52762 0.0
C842 C 0.61331 0.82812 0.58438 0.0
O843 O 0.67932 0.82573 0.56873 0.0
O844 O 0.66028 0.85669 0.56818 0.0
In845 In 0.14524 0.67312 0.45227 0.0
O846 O 0.18261 0.67752 0.4403 0.0
O847 O 0.17028 0.64442 0.44838 0.0
C848 C 0.13507 0.71428 0.4699 0.0
C849 C 0.12251 0.67045 0.41253 0.0
C850 C 0.13934 0.6465 0.48914 0.0
O851 O 0.15532 0.7081 0.46581 0.0
O852 O 0.12003 0.69994 0.46428 0.0
O853 O 0.13288 0.64033 0.46953 0.0
O854 O 0.14756 0.66635 0.49015 0.0
C855 C 0.18684 0.65644 0.44207 0.0
O856 O 0.11485 0.66193 0.43076 0.0
O857 O 0.14126 0.68071 0.41465 0.0
In858 In 0.57447 0.90126 0.69649 0.0
O859 O 0.59072 0.86925 0.68215 0.0
O860 O 0.56174 0.88291 0.66496 0.0
C861 C 0.6012 0.91368 0.73163 0.0
C862 C 0.58545 0.93674 0.66964 0.0
C863 C 0.5384 0.88876 0.72163 0.0
O864 O 0.60591 0.89647 0.71946 0.0
O865 O 0.58361 0.92446 0.72558 0.0
O866 O 0.53668 0.90416 0.70659 0.0
O867 O 0.55768 0.87938 0.72304 0.0
C868 C 0.57721 0.86791 0.66539 0.0
O869 O 0.56667 0.93613 0.68029 0.0
O870 O 0.59806 0.91956 0.6725 0.0
In871 In 0.35675 0.32559 0.95078 0.0
O872 O 0.3209 0.32426 0.93472 0.0
O873 O 0.33789 0.35618 0.93771 0.0
C874 C 0.36555 0.2845 0.96884 0.0
C875 C 0.38456 0.32661 0.91464 0.0
C876 C 0.35513 0.34899 0.99004 0.0
O877 O 0.34597 0.28984 0.96143 0.0
O878 O 0.38069 0.29959 0.96615 0.0
O879 O 0.36806 0.35512 0.97392 0.0
O880 O 0.34361 0.33123 0.9864 0.0
C881 C 0.32037 0.34559 0.93127 0.0
O882 O 0.38907 0.33723 0.93289 0.0
O883 O 0.36657 0.31482 0.91522 0.0
In884 In 0.41924 0.60682 0.70013 0.0
O885 O 0.4221 0.57178 0.68251 0.0
O886 O 0.3895 0.58731 0.68634 0.0
C887 C 0.4596 0.61779 0.71862 0.0
C888 C 0.41616 0.63558 0.66492 0.0
C889 C 0.39662 0.60154 0.73947 0.0
O890 O 0.45574 0.5982 0.71034 0.0
O891 O 0.44341 0.63185 0.71665 0.0
O892 O 0.39026 0.61607 0.72481 0.0
O893 O 0.41415 0.59025 0.73423 0.0
C894 C 0.40079 0.5705 0.67916 0.0
O895 O 0.40523 0.63874 0.68327 0.0
O896 O 0.42931 0.61851 0.66496 0.0
In897 In 0.85294 0.17416 0.04917 0.0
O898 O 0.88422 0.15744 0.06448 0.0
O899 O 0.86815 0.18426 0.08311 0.0
C900 C 0.84399 0.14855 0.01206 0.0
C901 C 0.81558 0.16287 0.07337 0.0
C902 C 0.86718 0.21317 0.02965 0.0
O903 O 0.85853 0.14237 0.02671 0.0
O904 O 0.83462 0.16743 0.01611 0.0
O905 O 0.84823 0.21167 0.03983 0.0
O906 O 0.87913 0.19527 0.03012 0.0
C907 C 0.88367 0.1693 0.08251 0.0
O908 O 0.81689 0.18164 0.06282 0.0
O909 O 0.8329 0.15031 0.07169 0.0
In910 In 0.5767 0.10063 0.79988 0.0
O911 O 0.57359 0.06611 0.81808 0.0
O912 O 0.60462 0.0849 0.82069 0.0
C913 C 0.53722 0.10919 0.77812 0.0
C914 C 0.57612 0.13089 0.83407 0.0
C915 C 0.605 0.09286 0.76453 0.0
O916 O 0.54135 0.08997 0.78704 0.0
O917 O 0.55278 0.12382 0.78053 0.0
O918 O 0.60451 0.11197 0.77456 0.0
O919 O 0.59088 0.07844 0.77188 0.0
C920 C 0.59379 0.06702 0.82579 0.0
O921 O 0.58903 0.13316 0.81691 0.0
O922 O 0.56299 0.11382 0.83337 0.0
In923 In 0.91938 0.88809 0.29699 0.0
O924 O 0.92102 0.92416 0.31255 0.0
O925 O 0.88958 0.90605 0.31266 0.0
C926 C 0.95895 0.87803 0.27639 0.0
C927 C 0.92038 0.86075 0.33342 0.0
C928 C 0.89398 0.89166 0.25918 0.0
O929 O 0.95498 0.89759 0.2847 0.0
O930 O 0.94333 0.86351 0.27945 0.0
O931 O 0.88895 0.87747 0.27467 0.0
O932 O 0.91176 0.90321 0.2627 0.0
C933 C 0.90004 0.92407 0.31784 0.0
O934 O 0.90873 0.85604 0.31584 0.0
O935 O 0.9322 0.87869 0.33198 0.0
In936 In 0.44956 0.35881 0.16843 0.0
O937 O 0.43494 0.3223 0.17016 0.0
O938 O 0.4347 0.34015 0.13858 0.0
C939 C 0.46912 0.36988 0.2083 0.0
C940 C 0.41235 0.38519 0.16942 0.0
C941 C 0.48797 0.35695 0.14373 0.0
O942 O 0.46194 0.34988 0.20421 0.0
O943 O 0.46568 0.38416 0.19254 0.0
O944 O 0.47186 0.37026 0.13827 0.0
O945 O 0.48465 0.3452 0.16141 0.0
C946 C 0.42985 0.32209 0.14913 0.0
O947 O 0.42964 0.3902 0.15747 0.0
O948 O 0.41445 0.36742 0.1814 0.0
In949 In 0.39743 0.69702 0.92145 0.0
O950 O 0.43353 0.68356 0.92814 0.0
O951 O 0.4158 0.67219 0.89853 0.0
C952 C 0.38417 0.72132 0.95785 0.0
C953 C 0.3649 0.6653 0.91905 0.0
C954 C 0.40863 0.73219 0.89447 0.0
O955 O 0.39915 0.70586 0.95966 0.0
O956 O 0.37566 0.7236 0.93825 0.0
O957 O 0.39204 0.71926 0.88958 0.0
O958 O 0.41923 0.72702 0.91244 0.0
C959 C 0.43384 0.6716 0.91015 0.0
O960 O 0.36573 0.68204 0.90545 0.0
O961 O 0.37999 0.66525 0.93443 0.0
In962 In 0.04799 0.64307 0.67266 0.0
O963 O 0.06453 0.67874 0.67318 0.0
O964 O 0.06092 0.6612 0.64164 0.0
C965 C 0.03071 0.63423 0.71407 0.0
C966 C 0.08367 0.61471 0.67021 0.0
C967 C 0.00793 0.646 0.65075 0.0
O968 O 0.03835 0.65374 0.7088 0.0
O969 O 0.03293 0.61918 0.69882 0.0
O970 O 0.02291 0.63165 0.64476 0.0
O971 O 0.01322 0.65829 0.66756 0.0
C972 C 0.06765 0.67888 0.65179 0.0
O973 O 0.06508 0.61069 0.66001 0.0
O974 O 0.08367 0.63249 0.68238 0.0
In975 In 0.1071 0.29962 0.42108 0.0
O976 O 0.06864 0.29434 0.41842 0.0
O977 O 0.08138 0.32768 0.41294 0.0
C978 C 0.1146 0.28005 0.4621 0.0
C979 C 0.13538 0.33554 0.4182 0.0
C980 C 0.11118 0.26759 0.38792 0.0
O981 O 0.09493 0.2858 0.45548 0.0
O982 O 0.13038 0.28507 0.44842 0.0
O983 O 0.11733 0.26438 0.40822 0.0
O984 O 0.10421 0.28751 0.38394 0.0
C985 C 0.0643 0.31466 0.41284 0.0
O986 O 0.13712 0.31839 0.40526 0.0
O987 O 0.11984 0.3341 0.433 0.0
In988 In 0.45149 0.64267 0.32928 0.0
O989 O 0.43277 0.61089 0.34094 0.0
O990 O 0.41679 0.63213 0.31618 0.0
C991 C 0.48657 0.64638 0.35852 0.0
C992 C 0.42817 0.67733 0.34793 0.0
C993 C 0.47298 0.63565 0.28922 0.0
O994 O 0.47652 0.62754 0.35551 0.0
O995 O 0.47964 0.66257 0.34623 0.0
O996 O 0.46509 0.65496 0.29472 0.0
O997 O 0.46962 0.62012 0.30369 0.0
C998 C 0.4153 0.61483 0.32889 0.0
O999 O 0.43476 0.67808 0.32732 0.0
O1000 O 0.43289 0.65909 0.35829 0.0
In1001 In 0.10274 0.70126 0.07502 0.0
O1002 O 0.13079 0.68104 0.09291 0.0
O1003 O 0.11477 0.6662 0.06399 0.0
C1004 C 0.1066 0.73315 0.10835 0.0
C1005 C 0.05903 0.68791 0.08095 0.0
C1006 C 0.11197 0.72082 0.0343 0.0
O1007 O 0.11464 0.73575 0.08861 0.0
O1008 O 0.09791 0.7138 0.11176 0.0
O1009 O 0.09201 0.71561 0.0404 0.0
O1010 O 0.12725 0.71526 0.04835 0.0
C1011 C 0.12908 0.66396 0.07987 0.0
O1012 O 0.06459 0.70842 0.07766 0.0
O1013 O 0.07539 0.67402 0.07975 0.0
In1014 In 0.05059 0.35177 0.82545 0.0
O1015 O 0.06733 0.38112 0.84412 0.0
O1016 O 0.08505 0.36647 0.81599 0.0
C1017 C 0.01764 0.35412 0.85783 0.0
C1018 C 0.06755 0.30917 0.83085 0.0
C1019 C 0.03225 0.36266 0.78462 0.0
O1020 O 0.03738 0.3468 0.86198 0.0
O1021 O 0.01486 0.36086 0.83767 0.0
O1022 O 0.03609 0.34225 0.79039 0.0
O1023 O 0.03859 0.37727 0.79901 0.0
C1024 C 0.08502 0.38106 0.83183 0.0
O1025 O 0.04734 0.31284 0.82444 0.0
O1026 O 0.07943 0.32691 0.8331 0.0
In1027 In 0.39801 0.29875 0.57843 0.0
O1028 O 0.36793 0.31744 0.59382 0.0
O1029 O 0.38334 0.33164 0.56418 0.0
C1030 C 0.40345 0.26605 0.61052 0.0
C1031 C 0.43529 0.32322 0.58894 0.0
C1032 C 0.38852 0.27563 0.53964 0.0
O1033 O 0.38401 0.27375 0.60545 0.0
O1034 O 0.4196 0.27434 0.59918 0.0
O1035 O 0.40741 0.28545 0.54279 0.0
O1036 O 0.37459 0.2778 0.55581 0.0
C1037 C 0.36837 0.33357 0.57953 0.0
O1038 O 0.43493 0.30948 0.57228 0.0
O1039 O 0.41667 0.32514 0.59954 0.0
In1040 In 0.16958 0.45147 0.34948 0.0
O1041 O 0.15421 0.43546 0.38123 0.0
O1042 O 0.18418 0.42043 0.36746 0.0
C1043 C 0.13682 0.4826 0.34159 0.0
C1044 C 0.15976 0.42539 0.31293 0.0
C1045 C 0.20587 0.47816 0.359 0.0
O1046 O 0.13987 0.47399 0.36112 0.0
O1047 O 0.15016 0.47545 0.3263 0.0
O1048 O 0.20796 0.46034 0.34706 0.0
O1049 O 0.18596 0.48212 0.36586 0.0
C1050 C 0.16866 0.41953 0.38232 0.0
O1051 O 0.17624 0.43936 0.31275 0.0
O1052 O 0.14903 0.42445 0.33153 0.0
In1053 In 0.29397 0.40978 0.1032 0.0
O1054 O 0.31032 0.39755 0.13616 0.0
O1055 O 0.32407 0.42702 0.1202 0.0
C1056 C 0.26199 0.37767 0.09664 0.0
C1057 C 0.32134 0.39535 0.06932 0.0
C1058 C 0.26715 0.44669 0.10863 0.0
O1059 O 0.26997 0.38194 0.11623 0.0
O1060 O 0.27011 0.38953 0.08063 0.0
O1061 O 0.28435 0.44722 0.09565 0.0
O1062 O 0.26382 0.42797 0.11855 0.0
C1063 C 0.32564 0.41269 0.13615 0.0
O1064 O 0.30954 0.41339 0.06742 0.0
O1065 O 0.31941 0.38534 0.08824 0.0
In1066 In 0.32782 0.54762 0.85391 0.0
O1067 O 0.32659 0.56471 0.81855 0.0
O1068 O 0.35819 0.56238 0.83623 0.0
C1069 C 0.2868 0.53052 0.8642 0.0
C1070 C 0.32904 0.58276 0.88284 0.0
C1071 C 0.35036 0.50799 0.84996 0.0
O1072 O 0.29153 0.53743 0.84427 0.0
O1073 O 0.30257 0.53281 0.87868 0.0
O1074 O 0.35666 0.52307 0.86405 0.0
O1075 O 0.33289 0.51291 0.83844 0.0
C1076 C 0.3478 0.56895 0.81863 0.0
O1077 O 0.33998 0.56448 0.88653 0.0
O1078 O 0.31704 0.58275 0.86496 0.0
In1079 In 0.19837 0.57946 0.5985 0.0
O1080 O 0.18352 0.59405 0.63107 0.0
O1081 O 0.16566 0.56696 0.61461 0.0
C1082 C 0.23266 0.60802 0.5876 0.0
C1083 C 0.17043 0.59423 0.56539 0.0
C1084 C 0.22019 0.54026 0.60848 0.0
O1085 O 0.22378 0.60805 0.60725 0.0
O1086 O 0.22496 0.59308 0.57423 0.0
O1087 O 0.21048 0.5433 0.58945 0.0
O1088 O 0.2188 0.55685 0.62207 0.0
C1089 C 0.16617 0.58122 0.63077 0.0
O1090 O 0.1792 0.57446 0.56469 0.0
O1091 O 0.17547 0.60575 0.58284 0.0
In1092 In 0.16719 0.54436 0.14437 0.0
O1093 O 0.14784 0.56248 0.11607 0.0
O1094 O 0.17979 0.57627 0.12629 0.0
C1095 C 0.13389 0.51468 0.15583 0.0
C1096 C 0.16509 0.56873 0.18316 0.0
C1097 C 0.20136 0.51733 0.12914 0.0
O1098 O 0.13506 0.52347 0.13619 0.0
O1099 O 0.1493 0.52095 0.16941 0.0
O1100 O 0.20509 0.53385 0.14245 0.0
O1101 O 0.18083 0.51495 0.12346 0.0
C1102 C 0.16235 0.57824 0.11385 0.0
O1103 O 0.17871 0.55213 0.18091 0.0
O1104 O 0.15318 0.57308 0.16581 0.0
In1105 In 0.20323 0.42136 0.89694 0.0
O1106 O 0.18615 0.40796 0.86489 0.0
O1107 O 0.16735 0.43033 0.88651 0.0
C1108 C 0.24224 0.39767 0.90071 0.0
C1109 C 0.18397 0.40266 0.93401 0.0
C1110 C 0.22027 0.46239 0.88611 0.0
O1111 O 0.22689 0.39195 0.88668 0.0
O1112 O 0.23815 0.4156 0.91188 0.0
O1113 O 0.21261 0.45802 0.90581 0.0
O1114 O 0.21861 0.44625 0.87194 0.0
C1115 C 0.16747 0.41802 0.86885 0.0
O1116 O 0.18726 0.42399 0.93281 0.0
O1117 O 0.19011 0.39158 0.91668 0.0
In1118 In 0.32773 0.4528 0.6405 0.0
O1119 O 0.32429 0.4351 0.67548 0.0
O1120 O 0.35708 0.43845 0.66031 0.0
C1121 C 0.28743 0.47174 0.6297 0.0
C1122 C 0.33103 0.41781 0.61139 0.0
C1123 C 0.35138 0.49152 0.64643 0.0
O1124 O 0.29126 0.46316 0.64914 0.0
O1125 O 0.30359 0.4698 0.61561 0.0
O1126 O 0.35715 0.47703 0.63151 0.0
O1127 O 0.33364 0.48662 0.65753 0.0
C1128 C 0.34554 0.43148 0.67702 0.0
O1129 O 0.34188 0.43623 0.60846 0.0
O1130 O 0.31784 0.41766 0.62841 0.0
In1131 In 0.30066 0.57888 0.39933 0.0
O1132 O 0.31557 0.59653 0.36832 0.0
O1133 O 0.33128 0.56583 0.37995 0.0
C1134 C 0.26747 0.60657 0.41468 0.0
C1135 C 0.32876 0.58777 0.4344 0.0
C1136 C 0.27485 0.5442 0.3842 0.0
O1137 O 0.27835 0.61095 0.39654 0.0
O1138 O 0.27344 0.58842 0.42457 0.0
O1139 O 0.29035 0.54099 0.39891 0.0
O1140 O 0.27298 0.56444 0.37719 0.0
C1141 C 0.3316 0.58225 0.36599 0.0
O1142 O 0.31673 0.5698 0.43398 0.0
O1143 O 0.32673 0.60044 0.41717 0.0
In1144 In 0.35585 0.16704 0.45344 0.0
O1145 O 0.38777 0.15284 0.43683 0.0
O1146 O 0.36849 0.17793 0.41886 0.0
C1147 C 0.34999 0.14343 0.49214 0.0
C1148 C 0.31995 0.14914 0.43117 0.0
C1149 C 0.36708 0.20723 0.47226 0.0
O1150 O 0.36504 0.13778 0.47775 0.0
O1151 O 0.33866 0.16101 0.48711 0.0
O1152 O 0.34726 0.20338 0.46457 0.0
O1153 O 0.3811 0.19107 0.46981 0.0
C1154 C 0.38532 0.16449 0.41881 0.0
O1155 O 0.32117 0.17037 0.43514 0.0
O1156 O 0.3366 0.13767 0.43838 0.0
In1157 In 0.85489 0.32633 0.5457 0.0
O1158 O 0.81815 0.32456 0.55979 0.0
O1159 O 0.83425 0.35681 0.55552 0.0
C1160 C 0.86532 0.28459 0.53005 0.0
C1161 C 0.88104 0.33014 0.58287 0.0
C1162 C 0.85492 0.34997 0.5065 0.0
O1163 O 0.8452 0.28998 0.53572 0.0
O1164 O 0.87998 0.30008 0.53291 0.0
O1165 O 0.8668 0.35609 0.52341 0.0
O1166 O 0.84412 0.33157 0.50912 0.0
C1167 C 0.81662 0.34607 0.56127 0.0
O1168 O 0.88668 0.33869 0.5639 0.0
O1169 O 0.8626 0.31904 0.58271 0.0
In1170 In 0.42026 0.10442 0.29643 0.0
O1171 O 0.40993 0.13662 0.31523 0.0
O1172 O 0.42906 0.11155 0.33327 0.0
C1173 C 0.39733 0.10686 0.25687 0.0
C1174 C 0.39862 0.06679 0.31121 0.0
C1175 C 0.46229 0.11268 0.28043 0.0
O1176 O 0.39082 0.11773 0.27431 0.0
O1177 O 0.41543 0.09555 0.25936 0.0
O1178 O 0.45598 0.09287 0.28631 0.0
O1179 O 0.44763 0.12816 0.28353 0.0
C1180 C 0.41893 0.13054 0.33385 0.0
O1181 O 0.42012 0.06712 0.3091 0.0
O1182 O 0.38884 0.08529 0.30648 0.0
In1183 In 0.64997 0.66531 0.04783 0.0
O1184 O 0.68451 0.66749 0.06621 0.0
O1185 O 0.66517 0.63678 0.06821 0.0
C1186 C 0.64375 0.70548 0.02632 0.0
C1187 C 0.61997 0.66563 0.08226 0.0
C1188 C 0.65474 0.63681 0.01214 0.0
O1189 O 0.66293 0.69975 0.03436 0.0
O1190 O 0.62803 0.69122 0.02963 0.0
O1191 O 0.63547 0.64057 0.02105 0.0
O1192 O 0.67107 0.64767 0.02085 0.0
C1193 C 0.68315 0.64722 0.07368 0.0
O1194 O 0.61774 0.65272 0.0651 0.0
O1195 O 0.63677 0.67906 0.08136 0.0
In1196 In 0.57876 0.39668 0.29631 0.0
O1197 O 0.5765 0.43083 0.31555 0.0
O1198 O 0.60729 0.41156 0.31684 0.0
C1199 C 0.53856 0.38949 0.27519 0.0
C1200 C 0.57984 0.36576 0.3298 0.0
C1201 C 0.60661 0.40322 0.26052 0.0
O1202 O 0.54351 0.40858 0.28397 0.0
O1203 O 0.55361 0.37435 0.27756 0.0
O1204 O 0.60384 0.38369 0.26921 0.0
O1205 O 0.59502 0.41894 0.26945 0.0
C1206 C 0.59683 0.42935 0.32287 0.0
O1207 O 0.59242 0.36431 0.31233 0.0
O1208 O 0.56595 0.38225 0.32968 0.0
In1209 In 0.14444 0.83192 0.95192 0.0
O1210 O 0.11186 0.8462 0.9367 0.0
O1211 O 0.13035 0.82109 0.91791 0.0
C1212 C 0.1512 0.85373 0.99162 0.0
C1213 C 0.17867 0.8505 0.92766 0.0
C1214 C 0.13339 0.79104 0.96918 0.0
O1215 O 0.13587 0.86008 0.97783 0.0
O1216 O 0.16277 0.83676 0.98526 0.0
O1217 O 0.15305 0.795 0.96112 0.0
O1218 O 0.11957 0.8075 0.968 0.0
C1219 C 0.11353 0.83453 0.91859 0.0
O1220 O 0.17885 0.82956 0.93305 0.0
O1221 O 0.16169 0.86149 0.93487 0.0
In1222 In 0.42462 0.89724 0.19835 0.0
O1223 O 0.42114 0.93567 0.20364 0.0
O1224 O 0.41769 0.923 0.17003 0.0
C1225 C 0.46593 0.88822 0.21661 0.0
C1226 C 0.4204 0.86901 0.16262 0.0
C1227 C 0.39175 0.89313 0.23063 0.0
O1228 O 0.45926 0.90834 0.21275 0.0
O1229 O 0.45208 0.87296 0.21063 0.0
O1230 O 0.41234 0.88815 0.23406 0.0
O1231 O 0.38741 0.89905 0.21044 0.0
C1232 C 0.41651 0.94 0.18309 0.0
O1233 O 0.4082 0.86715 0.1803 0.0
O1234 O 0.43509 0.8847 0.16339 0.0
In1235 In 0.07558 0.10499 0.70017 0.0
O1236 O 0.0893 0.13684 0.68312 0.0
O1237 O 0.06626 0.11575 0.66445 0.0
C1238 C 0.09823 0.1007 0.73969 0.0
C1239 C 0.09457 0.06835 0.68025 0.0
C1240 C 0.03482 0.11681 0.71726 0.0
O1241 O 0.10445 0.1149 0.72468 0.0
O1242 O 0.08065 0.08934 0.7348 0.0
O1243 O 0.03878 0.09683 0.71 0.0
O1244 O 0.05121 0.13062 0.71524 0.0
C1245 C 0.07887 0.13321 0.66457 0.0
O1246 O 0.07323 0.06941 0.68356 0.0
O1247 O 0.10558 0.08558 0.68684 0.0
C1248 C 0.08604 0.23269 0.3398 0.0
C1249 C 0.09155 0.21033 0.34641 0.0
C1250 C 0.09407 0.2515 0.35228 0.0
C1251 C 0.10794 0.2485 0.37167 0.0
H1252 H 0.07418 0.23564 0.32596 0.0
H1253 H 0.0881 0.26833 0.34758 0.0
S1254 S 0.13097 0.19352 0.39293 0.0
N1255 N 0.11441 0.18637 0.37133 0.0
N1256 N 0.12962 0.22159 0.39462 0.0
C1257 C 0.11531 0.22632 0.37702 0.0
C1258 C 0.10705 0.20725 0.36443 0.0
C1259 C 0.00449 0.84057 0.61102 0.0
C1260 C 0.00663 0.84719 0.63397 0.0
C1261 C 0.02355 0.83292 0.59861 0.0
C1262 C 0.04527 0.83185 0.60878 0.0
H1263 H 0.98785 0.84005 0.60304 0.0
H1264 H 0.02105 0.82685 0.58135 0.0
S1265 S 0.06014 0.85126 0.66726 0.0
N1266 N 0.0323 0.85481 0.66549 0.0
N1267 N 0.06808 0.84101 0.64229 0.0
C1268 C 0.04774 0.84012 0.63121 0.0
C1269 C 0.0284 0.84762 0.64379 0.0
C1270 C 0.42675 0.77014 0.89286 0.0
C1271 C 0.4147 0.75287 0.88149 0.0
C1272 C 0.43314 0.79009 0.8817 0.0
C1273 C 0.42809 0.79357 0.85854 0.0
H1274 H 0.43119 0.76838 0.91071 0.0
H1275 H 0.44244 0.80279 0.89137 0.0
S1276 S 0.39695 0.75355 0.82083 0.0
N1277 N 0.39773 0.74045 0.84576 0.0
N1278 N 0.41034 0.77809 0.82443 0.0
C1279 C 0.41615 0.77644 0.84678 0.0
C1280 C 0.40925 0.75608 0.85836 0.0
C1281 C 0.48598 0.15224 0.11327 0.0
C1282 C 0.48551 0.15065 0.13718 0.0
C1283 C 0.46705 0.16058 0.10114 0.0
C1284 C 0.44704 0.16732 0.11256 0.0
H1285 H 0.50147 0.14831 0.10401 0.0
H1286 H 0.46842 0.16251 0.08283 0.0
S1287 S 0.43653 0.16332 0.17496 0.0
N1288 N 0.46298 0.15437 0.17165 0.0
N1289 N 0.42732 0.1695 0.14911 0.0
C1290 C 0.44599 0.16429 0.13639 0.0
C1291 C 0.46527 0.1561 0.14864 0.0
C1292 C 0.08 0.76976 0.15435 0.0
C1293 C 0.08731 0.79176 0.14827 0.0
C1294 C 0.08783 0.75048 0.14251 0.0
C1295 C 0.10327 0.75254 0.12424 0.0
H1296 H 0.06698 0.76752 0.16725 0.0
H1297 H 0.08053 0.73405 0.14675 0.0
S1298 S 0.131 0.80598 0.1048 0.0
N1299 N 0.11337 0.8142 0.12514 0.0
N1300 N 0.1281 0.77804 0.10297 0.0
C1301 C 0.1123 0.77424 0.11948 0.0
C1302 C 0.10429 0.79384 0.13147 0.0
C1303 C 0.46439 0.83775 0.3959 0.0
C1304 C 0.44521 0.82964 0.38395 0.0
C1305 C 0.48377 0.8457 0.38422 0.0
C1306 C 0.48463 0.84554 0.36025 0.0
H1307 H 0.46471 0.83735 0.41435 0.0
H1308 H 0.49854 0.85091 0.394 0.0
S1309 S 0.43831 0.82826 0.32092 0.0
N1310 N 0.42781 0.82383 0.34663 0.0
N1311 N 0.46422 0.83836 0.325 0.0
C1312 C 0.46525 0.8385 0.34816 0.0
C1313 C 0.44553 0.83066 0.35993 0.0
C1314 C 0.39298 0.22879 0.62812 0.0
C1315 C 0.40739 0.24788 0.62739 0.0
C1316 C 0.39905 0.2094 0.64077 0.0
C1317 C 0.41931 0.20884 0.65363 0.0
H1318 H 0.37776 0.22823 0.61768 0.0
H1319 H 0.3883 0.19441 0.63975 0.0
S1320 S 0.46144 0.25557 0.65924 0.0
N1321 N 0.44188 0.26577 0.64174 0.0
N1322 N 0.45281 0.22968 0.66621 0.0
C1323 C 0.43295 0.22847 0.65435 0.0
C1324 C 0.4271 0.24793 0.641 0.0
C1325 C 0.01472 0.16591 0.90698 0.0
C1326 C 0.03666 0.15782 0.9017 0.0
C1327 C 0.99568 0.15877 0.8944 0.0
C1328 C 0.99801 0.14339 0.87609 0.0
H1329 H 0.01245 0.17913 0.91967 0.0
H1330 H 0.97939 0.16674 0.89789 0.0
S1331 S 0.05094 0.11349 0.85879 0.0
N1332 N 0.05898 0.13069 0.87957 0.0
N1333 N 0.02325 0.11756 0.8558 0.0
C1334 C 0.01943 0.13345 0.87224 0.0
C1335 C 0.03876 0.14059 0.8851 0.0
C1336 C 0.34799 0.09218 0.21836 0.0
C1337 C 0.35893 0.08895 0.19724 0.0
C1338 C 0.36015 0.10005 0.23745 0.0
C1339 C 0.38362 0.10463 0.23601 0.0
H1340 H 0.33026 0.08749 0.22048 0.0
H1341 H 0.35151 0.10094 0.25375 0.0
S1342 S 0.41953 0.1022 0.18418 0.0
N1343 N 0.39409 0.09381 0.17557 0.0
N1344 N 0.4168 0.10781 0.21161 0.0
C1345 C 0.39435 0.103 0.21475 0.0
C1346 C 0.38201 0.09539 0.19529 0.0
C1347 C 0.16537 0.1441 0.46775 0.0
C1348 C 0.1553 0.13273 0.48621 0.0
C1349 C 0.173 0.13218 0.44863 0.0
C1350 C 0.17124 0.10827 0.44728 0.0
H1351 H 0.16774 0.16243 0.4682 0.0
H1352 H 0.18095 0.14185 0.43506 0.0
S1353 S 0.14534 0.07046 0.49082 0.0
N1354 N 0.14305 0.09632 0.50178 0.0
N1355 N 0.15784 0.07367 0.46578 0.0
C1356 C 0.16067 0.09665 0.46539 0.0
C1357 C 0.15254 0.10894 0.48486 0.0
C1358 C 0.14805 0.91215 0.72087 0.0
C1359 C 0.13663 0.91771 0.70049 0.0
C1360 C 0.13591 0.90496 0.74025 0.0
C1361 C 0.112 0.90343 0.73986 0.0
H1362 H 0.16636 0.91414 0.72213 0.0
H1363 H 0.14514 0.90185 0.75594 0.0
S1364 S 0.07422 0.91307 0.69022 0.0
N1365 N 0.10007 0.91868 0.68065 0.0
N1366 N 0.07753 0.90584 0.71719 0.0
C1367 C 0.10053 0.90771 0.71937 0.0
C1368 C 0.11279 0.91467 0.69962 0.0
C1369 C 0.30557 0.87457 0.96346 0.0
C1370 C 0.31558 0.89561 0.95788 0.0
C1371 C 0.31245 0.86231 0.98264 0.0
C1372 C 0.32989 0.87038 0.99697 0.0
H1373 H 0.29239 0.86731 0.95275 0.0
H1374 H 0.30431 0.84606 0.98589 0.0
S1375 S 0.36102 0.92506 0.99042 0.0
N1376 N 0.34318 0.92456 0.96861 0.0
N1377 N 0.35651 0.90123 0.00476 0.0
C1378 C 0.33975 0.89168 0.99195 0.0
C1379 C 0.33247 0.90439 0.97241 0.0
C1380 C 0.342 0.91616 0.26481 0.0
C1381 C 0.34858 0.91112 0.28729 0.0
C1382 C 0.35517 0.90873 0.24623 0.0
C1383 C 0.37527 0.89596 0.24956 0.0
H1384 H 0.32751 0.92716 0.26161 0.0
H1385 H 0.35035 0.91427 0.22929 0.0
S1386 S 0.39711 0.87459 0.30495 0.0
N1387 N 0.37448 0.8899 0.3117 0.0
N1388 N 0.3991 0.87587 0.27691 0.0
C1389 C 0.38077 0.88912 0.27186 0.0
C1390 C 0.36745 0.89674 0.2907 0.0
C1391 C 0.32702 0.12982 0.55047 0.0
C1392 C 0.3284 0.10589 0.55164 0.0
C1393 C 0.33487 0.14173 0.53144 0.0
C1394 C 0.34477 0.1303 0.51292 0.0
H1395 H 0.31918 0.13953 0.56408 0.0
H1396 H 0.33277 0.16009 0.5311 0.0
S1397 S 0.35377 0.06792 0.50789 0.0
N1398 N 0.34129 0.07118 0.53293 0.0
N1399 N 0.35648 0.09381 0.49711 0.0
C1400 C 0.34717 0.10647 0.51412 0.0
C1401 C 0.33883 0.0942 0.53348 0.0
C1402 C 0.14774 0.08935 0.77972 0.0
C1403 C 0.13671 0.08062 0.79916 0.0
C1404 C 0.13516 0.09713 0.76084 0.0
C1405 C 0.11121 0.0961 0.76072 0.0
H1406 H 0.16617 0.08977 0.77889 0.0
H1407 H 0.14426 0.10302 0.74589 0.0
S1408 S 0.07403 0.07661 0.80792 0.0
N1409 N 0.1002 0.073 0.81755 0.0
N1410 N 0.0769 0.0872 0.78203 0.0
C1411 C 0.1 0.08823 0.7803 0.0
C1412 C 0.11267 0.08059 0.79954 0.0
C1413 C 0.16264 0.90009 0.03532 0.0
C1414 C 0.17045 0.88749 0.05421 0.0
C1415 C 0.15521 0.88908 0.01534 0.0
C1416 C 0.15589 0.86518 0.0135 0.0
H1417 H 0.16263 0.91855 0.03583 0.0
H1418 H 0.14988 0.89934 0.00094 0.0
S1419 S 0.17346 0.82428 0.05833 0.0
N1420 N 0.17699 0.84961 0.07005 0.0
N1421 N 0.16374 0.82924 0.03241 0.0
C1422 C 0.16301 0.85242 0.03241 0.0
C1423 C 0.1701 0.86349 0.0528 0.0
C1424 C 0.24213 0.3494 0.07198 0.0
C1425 C 0.24309 0.36162 0.0926 0.0
C1426 C 0.2225 0.33729 0.06573 0.0
C1427 C 0.20301 0.33761 0.07963 0.0
H1428 H 0.25632 0.35 0.06017 0.0
H1429 H 0.22197 0.32916 0.04915 0.0
S1430 S 0.19746 0.36546 0.13609 0.0
N1431 N 0.22364 0.37164 0.12777 0.0
N1432 N 0.18636 0.34967 0.11557 0.0
C1433 C 0.20419 0.34871 0.10082 0.0
C1434 C 0.22437 0.36053 0.10745 0.0
C1435 C 0.69312 0.11738 0.91181 0.0
C1436 C 0.69359 0.14113 0.91541 0.0
C1437 C 0.71253 0.10556 0.90471 0.0
C1438 C 0.73303 0.11706 0.90039 0.0
H1439 H 0.67794 0.10757 0.91557 0.0
H1440 H 0.71166 0.08716 0.90326 0.0
S1441 S 0.74288 0.17931 0.90506 0.0
N1442 N 0.716 0.17591 0.91273 0.0
N1443 N 0.75248 0.15359 0.8987 0.0
C1444 C 0.73348 0.14092 0.90251 0.0
C1445 C 0.71375 0.15299 0.91023 0.0
C1446 C 0.09874 0.47533 0.19284 0.0
C1447 C 0.09084 0.45892 0.17725 0.0
C1448 C 0.11176 0.49398 0.18555 0.0
C1449 C 0.11702 0.49715 0.16237 0.0
H1450 H 0.09609 0.47307 0.21098 0.0
H1451 H 0.11846 0.50556 0.19829 0.0
S1452 S 0.09829 0.46051 0.1144 0.0
N1453 N 0.08766 0.44808 0.13731 0.0
N1454 N 0.11181 0.4834 0.12365 0.0
C1455 C 0.10787 0.48181 0.14642 0.0
C1456 C 0.09485 0.46262 0.15386 0.0
C1457 C 0.76433 0.86013 0.40693 0.0
C1458 C 0.76509 0.88361 0.40215 0.0
C1459 C 0.78358 0.84872 0.41553 0.0
C1460 C 0.80419 0.86042 0.41937 0.0
H1461 H 0.74844 0.85086 0.40535 0.0
H1462 H 0.78201 0.83088 0.42007 0.0
S1463 S 0.81558 0.92129 0.40573 0.0
N1464 N 0.78843 0.91759 0.39939 0.0
N1465 N 0.82474 0.89629 0.41488 0.0
C1466 C 0.80546 0.88357 0.41297 0.0
C1467 C 0.78585 0.89513 0.40454 0.0
C1468 C 0.89937 0.03158 0.16236 0.0
C1469 C 0.89076 0.04677 0.17877 0.0
C1470 C 0.88648 0.01263 0.15519 0.0
C1471 C 0.86481 0.00814 0.16455 0.0
H1472 H 0.91588 0.03462 0.15468 0.0
H1473 H 0.89359 0.00138 0.14239 0.0
S1474 S 0.83545 0.04225 0.20917 0.0
N1475 N 0.85976 0.05566 0.2048 0.0
N1476 N 0.83576 0.02025 0.19164 0.0
C1477 C 0.85633 0.02306 0.18132 0.0
C1478 C 0.86927 0.04232 0.18836 0.0
C1479 C 0.26592 0.63332 0.59633 0.0
C1480 C 0.25056 0.62421 0.58038 0.0
C1481 C 0.28444 0.64673 0.58926 0.0
C1482 C 0.28802 0.65179 0.56604 0.0
H1483 H 0.26422 0.62923 0.61426 0.0
H1484 H 0.2965 0.65244 0.60203 0.0
S1485 S 0.25051 0.63475 0.51799 0.0
N1486 N 0.23869 0.62304 0.54068 0.0
N1487 N 0.27317 0.64848 0.52744 0.0
C1488 C 0.27183 0.64402 0.55014 0.0
C1489 C 0.25321 0.63014 0.5573 0.0
C1490 C 0.09901 0.52293 0.30863 0.0
C1491 C 0.09578 0.54094 0.32412 0.0
C1492 C 0.11134 0.50345 0.31487 0.0
C1493 C 0.12036 0.50105 0.33695 0.0
H1494 H 0.09351 0.52459 0.29108 0.0
H1495 H 0.11467 0.49059 0.30201 0.0
S1496 S 0.1139 0.54196 0.38468 0.0
N1497 N 0.10073 0.55427 0.36305 0.0
N1498 N 0.12329 0.51724 0.37497 0.0
C1499 C 0.1156 0.51804 0.35314 0.0
C1500 C 0.10345 0.53811 0.34666 0.0
C1501 C 0.38676 0.48657 0.84386 0.0
C1502 C 0.36288 0.48662 0.8458 0.0
C1503 C 0.39839 0.46724 0.83569 0.0
C1504 C 0.38647 0.44732 0.82951 0.0
H1505 H 0.39638 0.50192 0.84748 0.0
H1506 H 0.41669 0.46817 0.8335 0.0
S1507 S 0.32392 0.43822 0.83462 0.0
N1508 N 0.32791 0.46479 0.84296 0.0
N1509 N 0.34948 0.42836 0.82822 0.0
C1510 C 0.36266 0.44686 0.83284 0.0
C1511 C 0.35093 0.46656 0.84082 0.0
C1512 C 0.89227 0.77429 0.62798 0.0
C1513 C 0.90526 0.75422 0.62824 0.0
C1514 C 0.89926 0.79347 0.64046 0.0
C1515 C 0.91908 0.79293 0.65403 0.0
H1516 H 0.87748 0.77563 0.61699 0.0
H1517 H 0.88955 0.8091 0.63881 0.0
S1518 S 0.95731 0.74328 0.66234 0.0
N1519 N 0.93775 0.73416 0.64426 0.0
N1520 N 0.95045 0.76993 0.66837 0.0
C1521 C 0.93124 0.77237 0.65566 0.0
C1522 C 0.92444 0.75307 0.64253 0.0
C1523 C 0.99083 0.16097 0.38381 0.0
C1524 C 0.99525 0.17164 0.36274 0.0
C1525 C 0.97146 0.16667 0.39677 0.0
C1526 C 0.95574 0.18292 0.38883 0.0
H1527 H 0.00238 0.14812 0.39033 0.0
H1528 H 0.96846 0.1579 0.41274 0.0
S1529 S 0.95998 0.21672 0.33553 0.0
N1530 N 0.98263 0.20004 0.33518 0.0
N1531 N 0.94636 0.21042 0.35929 0.0
C1532 C 0.96018 0.19397 0.36805 0.0
C1533 C 0.97989 0.18841 0.35505 0.0
C1534 C 0.58058 0.22194 0.15205 0.0
C1535 C 0.57224 0.20282 0.14015 0.0
C1536 C 0.58782 0.24158 0.14034 0.0
C1537 C 0.5865 0.24278 0.11644 0.0
H1538 H 0.58137 0.22181 0.17049 0.0
H1539 H 0.59379 0.25611 0.15004 0.0
S1540 S 0.56753 0.19705 0.07717 0.0
N1541 N 0.56439 0.18611 0.10288 0.0
N1542 N 0.57755 0.22301 0.08121 0.0
C1543 C 0.57871 0.22368 0.10437 0.0
C1544 C 0.57169 0.20368 0.11614 0.0
C1545 C 0.55176 0.82144 0.86657 0.0
C1546 C 0.55371 0.82211 0.89048 0.0
C1547 C 0.53243 0.82978 0.85548 0.0
C1548 C 0.5143 0.83945 0.86773 0.0
H1549 H 0.56507 0.81392 0.85621 0.0
H1550 H 0.5316 0.82835 0.83707 0.0
S1551 S 0.51115 0.84638 0.93049 0.0
N1552 N 0.53604 0.83392 0.9261 0.0
N1553 N 0.49962 0.84996 0.90503 0.0
C1554 C 0.5162 0.84099 0.89158 0.0
C1555 C 0.5359 0.83219 0.90301 0.0
C1556 C 0.90731 0.21791 0.85079 0.0
C1557 C 0.93027 0.21231 0.84642 0.0
C1558 C 0.9015 0.23616 0.86518 0.0
C1559 C 0.91846 0.24916 0.87601 0.0
H1560 H 0.89372 0.2076 0.84372 0.0
H1561 H 0.88366 0.23947 0.86861 0.0
S1562 S 0.98099 0.24314 0.86845 0.0
N1563 N 0.96998 0.22265 0.85262 0.0
N1564 N 0.95906 0.25657 0.87984 0.0
C1565 C 0.94141 0.24447 0.87091 0.0
C1566 C 0.94732 0.22617 0.85603 0.0
C1567 C 0.52567 0.16615 0.64258 0.0
C1568 C 0.50557 0.15898 0.63177 0.0
C1569 C 0.54436 0.17376 0.63004 0.0
C1570 C 0.54376 0.17477 0.60608 0.0
H1571 H 0.52691 0.16627 0.66101 0.0
H1572 H 0.55925 0.17939 0.63939 0.0
S1573 S 0.49542 0.15695 0.5694 0.0
N1574 N 0.4863 0.15242 0.59566 0.0
N1575 N 0.5216 0.16704 0.57188 0.0
C1576 C 0.52399 0.16704 0.59491 0.0
C1577 C 0.50487 0.15903 0.6078 0.0
C1578 C 0.56349 0.78913 0.37957 0.0
C1579 C 0.57035 0.7926 0.35688 0.0
C1580 C 0.57003 0.76972 0.39162 0.0
C1581 C 0.58399 0.75301 0.38164 0.0
H1582 H 0.55278 0.80149 0.38818 0.0
H1583 H 0.5642 0.76798 0.40906 0.0
S1584 S 0.60667 0.75383 0.32261 0.0
N1585 N 0.59172 0.77764 0.32467 0.0
N1586 N 0.60446 0.74103 0.34761 0.0
C1587 C 0.59108 0.75616 0.35894 0.0
C1588 C 0.5841 0.77595 0.34646 0.0
C1589 C 0.95858 0.84575 0.10538 0.0
C1590 C 0.95801 0.82534 0.09266 0.0
C1591 C 0.97789 0.85192 0.11804 0.0
C1592 C 0.99715 0.83776 0.11856 0.0
H1593 H 0.94356 0.85643 0.10664 0.0
H1594 H 0.97717 0.86705 0.12863 0.0
S1595 S 0.00642 0.78549 0.08435 0.0
N1596 N 0.97997 0.79312 0.07844 0.0
N1597 N 0.01607 0.80457 0.10265 0.0
C1598 C 0.99758 0.81842 0.10447 0.0
C1599 C 0.97806 0.81226 0.09135 0.0
C1600 C 0.64924 0.9189 0.77506 0.0
C1601 C 0.63918 0.93226 0.79225 0.0
C1602 C 0.63689 0.91278 0.75541 0.0
C1603 C 0.61431 0.92029 0.75215 0.0
H1604 H 0.66653 0.91274 0.77705 0.0
H1605 H 0.64509 0.90221 0.74268 0.0
S1606 S 0.58069 0.95651 0.79177 0.0
N1607 N 0.60556 0.95326 0.80447 0.0
N1608 N 0.58265 0.9422 0.76764 0.0
C1609 C 0.60432 0.93405 0.76905 0.0
C1610 C 0.61668 0.93993 0.78908 0.0
C1611 C 0.845 0.8911 0.51483 0.0
C1612 C 0.84702 0.86722 0.51468 0.0
C1613 C 0.83635 0.90259 0.53406 0.0
C1614 C 0.82976 0.89052 0.55376 0.0
H1615 H 0.84901 0.90082 0.49966 0.0
H1616 H 0.83421 0.92091 0.53323 0.0
S1617 S 0.83474 0.82788 0.56252 0.0
N1618 N 0.84369 0.83208 0.5362 0.0
N1619 N 0.82805 0.85337 0.57239 0.0
C1620 C 0.83306 0.86669 0.5541 0.0
C1621 C 0.84153 0.85512 0.53452 0.0
C1622 C 0.88406 0.08058 0.29972 0.0
C1623 C 0.86018 0.07821 0.29872 0.0
C1624 C 0.89639 0.08958 0.28148 0.0
C1625 C 0.88539 0.09694 0.26157 0.0
H1626 H 0.89352 0.07477 0.31448 0.0
H1627 H 0.91481 0.09018 0.28274 0.0
S1628 S 0.82316 0.0958 0.25056 0.0
N1629 N 0.82588 0.08494 0.27641 0.0
N1630 N 0.84922 0.10222 0.24205 0.0
C1631 C 0.86147 0.09573 0.2606 0.0
C1632 C 0.84882 0.08626 0.27919 0.0
C1633 C 0.67558 0.1111 0.00416 0.0
C1634 C 0.65384 0.12121 0.00394 0.0
C1635 C 0.68315 0.09849 0.02297 0.0
C1636 C 0.66944 0.09602 0.04247 0.0
H1637 H 0.68712 0.11359 0.98996 0.0
H1638 H 0.70041 0.09192 0.02278 0.0
S1639 S 0.61043 0.11786 0.04963 0.0
N1640 N 0.61805 0.12658 0.02397 0.0
N1641 N 0.63238 0.10337 0.05969 0.0
C1642 C 0.64717 0.10505 0.04194 0.0
C1643 C 0.63933 0.11754 0.02257 0.0
C1644 C 0.64012 0.0572 0.72389 0.0
C1645 C 0.64839 0.07323 0.70811 0.0
C1646 C 0.6266 0.06393 0.74235 0.0
C1647 C 0.62108 0.08699 0.74602 0.0
H1648 H 0.64316 0.03915 0.72141 0.0
H1649 H 0.62003 0.05084 0.7536 0.0
S1650 S 0.6402 0.13596 0.71101 0.0
N1651 N 0.65129 0.11345 0.69822 0.0
N1652 N 0.62619 0.12607 0.73334 0.0
C1653 C 0.63028 0.10337 0.7312 0.0
C1654 C 0.64386 0.09649 0.71214 0.0
C1655 C 0.68128 0.86547 0.45728 0.0
C1656 C 0.67682 0.88888 0.45447 0.0
C1657 C 0.67334 0.85356 0.47626 0.0
C1658 C 0.66031 0.86443 0.49314 0.0
H1659 H 0.6913 0.8562 0.44484 0.0
H1660 H 0.67753 0.83562 0.47772 0.0
S1661 S 0.64348 0.92538 0.49392 0.0
N1662 N 0.65836 0.92255 0.47016 0.0
N1663 N 0.64306 0.89989 0.50593 0.0
C1664 C 0.65532 0.88774 0.4905 0.0
C1665 C 0.66373 0.90005 0.47118 0.0
C1666 C 0.8788 0.90967 0.19972 0.0
C1667 C 0.85514 0.91355 0.20094 0.0
C1668 C 0.89094 0.90126 0.21836 0.0
C1669 C 0.87991 0.89592 0.23886 0.0
H1670 H 0.88834 0.91407 0.18453 0.0
H1671 H 0.9093 0.89965 0.21696 0.0
S1672 S 0.81807 0.90096 0.2506 0.0
N1673 N 0.82088 0.91002 0.22407 0.0
N1674 N 0.8439 0.89369 0.25916 0.0
C1675 C 0.85612 0.89832 0.24005 0.0
C1676 C 0.84367 0.90728 0.22106 0.0
C1677 C 0.82723 0.14629 0.97341 0.0
C1678 C 0.83774 0.13505 0.99174 0.0
C1679 C 0.81944 0.13428 0.95442 0.0
C1680 C 0.82157 0.11042 0.95299 0.0
H1681 H 0.82481 0.16461 0.97374 0.0
H1682 H 0.8113 0.14388 0.9409 0.0
S1683 S 0.84829 0.07286 0.99628 0.0
N1684 N 0.85044 0.09874 0.00721 0.0
N1685 N 0.83543 0.07594 0.9714 0.0
C1686 C 0.83233 0.09889 0.97106 0.0
C1687 C 0.84056 0.11126 0.99043 0.0
C1688 C 0.77879 0.6039 0.90992 0.0
C1689 C 0.75853 0.61488 0.90347 0.0
C1690 C 0.79766 0.61628 0.91738 0.0
C1691 C 0.79705 0.64021 0.91906 0.0
H1692 H 0.77996 0.58546 0.90964 0.0
H1693 H 0.81265 0.60679 0.92254 0.0
S1694 S 0.74835 0.67727 0.90306 0.0
N1695 N 0.73914 0.65111 0.89808 0.0
N1696 N 0.77474 0.67458 0.91255 0.0
C1697 C 0.77714 0.65156 0.91193 0.0
C1698 C 0.75786 0.63884 0.904 0.0
C1699 C 0.27557 0.87058 0.11393 0.0
C1700 C 0.25494 0.87008 0.1019 0.0
C1701 C 0.29432 0.85778 0.10636 0.0
C1702 C 0.29274 0.84379 0.08689 0.0
H1703 H 0.27774 0.88213 0.12819 0.0
H1704 H 0.31049 0.85981 0.11505 0.0
S1705 S 0.24126 0.83477 0.05136 0.0
N1706 N 0.23321 0.85335 0.07093 0.0
N1707 N 0.26815 0.82868 0.05712 0.0
C1708 C 0.27155 0.84177 0.07594 0.0
C1709 C 0.2527 0.85517 0.08333 0.0
C1710 C 0.86819 0.52348 0.84991 0.0
C1711 C 0.87517 0.50177 0.84255 0.0
C1712 C 0.87928 0.5432 0.84235 0.0
C1713 C 0.89796 0.54201 0.82734 0.0
H1714 H 0.85335 0.5254 0.86073 0.0
H1715 H 0.87268 0.55958 0.84779 0.0
S1716 S 0.92451 0.48919 0.80492 0.0
N1717 N 0.90311 0.4801 0.82078 0.0
N1718 N 0.9241 0.51729 0.80679 0.0
C1719 C 0.90605 0.52038 0.82096 0.0
C1720 C 0.8946 0.50023 0.82851 0.0
C1721 C 0.20027 0.1143 0.57774 0.0
C1722 C 0.19968 0.13828 0.57867 0.0
C1723 C 0.21885 0.10203 0.58613 0.0
C1724 C 0.2375 0.11314 0.59616 0.0
H1725 H 0.18654 0.10481 0.56983 0.0
H1726 H 0.21879 0.08363 0.58433 0.0
S1727 S 0.24395 0.17553 0.60414 0.0
N1728 N 0.21905 0.1727 0.59129 0.0
N1729 N 0.25402 0.14943 0.6075 0.0
C1730 C 0.23685 0.13704 0.59812 0.0
C1731 C 0.21795 0.14966 0.58922 0.0
C1732 C 0.0987 0.9731 0.83832 0.0
C1733 C 0.10979 0.95284 0.83172 0.0
C1734 C 0.11116 0.992 0.84625 0.0
C1735 C 0.13508 0.99126 0.84755 0.0
H1736 H 0.08037 0.97464 0.83669 0.0
H1737 H 0.10215 0.00764 0.85019 0.0
S1738 S 0.17214 0.94168 0.83503 0.0
N1739 N 0.14611 0.93269 0.82928 0.0
N1740 N 0.16924 0.96832 0.8436 0.0
C1741 C 0.14624 0.97085 0.8421 0.0
C1742 C 0.13366 0.95159 0.83435 0.0
C1743 C 0.70321 0.38435 0.4252 0.0
C1744 C 0.70104 0.36066 0.42205 0.0
C1745 C 0.72256 0.39607 0.41784 0.0
C1746 C 0.74041 0.38471 0.40665 0.0
H1747 H 0.69008 0.39395 0.43395 0.0
H1748 H 0.72361 0.41421 0.42117 0.0
S1749 S 0.7428 0.32299 0.39313 0.0
N1750 N 0.71816 0.32629 0.40638 0.0
N1751 N 0.75456 0.34857 0.39207 0.0
C1752 C 0.73827 0.36116 0.40268 0.0
C1753 C 0.7186 0.34906 0.41055 0.0
C1754 C 0.88819 0.48332 0.64693 0.0
C1755 C 0.87949 0.49917 0.66262 0.0
C1756 C 0.90143 0.46479 0.65431 0.0
C1757 C 0.90667 0.46172 0.67757 0.0
H1758 H 0.88366 0.48448 0.62907 0.0
H1759 H 0.90661 0.4522 0.64184 0.0
S1760 S 0.89118 0.50102 0.72474 0.0
N1761 N 0.87927 0.51235 0.7019 0.0
N1762 N 0.90442 0.47785 0.71576 0.0
C1763 C 0.89962 0.4786 0.6931 0.0
C1764 C 0.88591 0.49723 0.68562 0.0
C1765 C 0.63124 0.54876 0.1623 0.0
C1766 C 0.60761 0.54764 0.16631 0.0
C1767 C 0.64343 0.52979 0.15468 0.0
C1768 C 0.63251 0.50893 0.15043 0.0
H1769 H 0.64071 0.56421 0.16588 0.0
H1770 H 0.66174 0.53132 0.15276 0.0
S1771 S 0.57063 0.49738 0.15602 0.0
N1772 N 0.57343 0.52429 0.16388 0.0
N1773 N 0.59649 0.48851 0.14918 0.0
C1774 C 0.6087 0.50781 0.15298 0.0
C1775 C 0.59621 0.5272 0.16103 0.0
C1776 C 0.59483 0.71201 0.89328 0.0
C1777 C 0.60212 0.73153 0.88155 0.0
C1778 C 0.58652 0.69302 0.88157 0.0
C1779 C 0.5847 0.69297 0.85764 0.0
H1780 H 0.59498 0.71161 0.91175 0.0
H1781 H 0.58056 0.67866 0.89152 0.0
S1782 S 0.60291 0.73948 0.81887 0.0
N1783 N 0.60839 0.74934 0.84468 0.0
N1784 N 0.5922 0.71368 0.8225 0.0
C1785 C 0.59279 0.71206 0.84559 0.0
C1786 C 0.60167 0.73134 0.85759 0.0
C1787 C 0.50782 0.34846 0.10699 0.0
C1788 C 0.50891 0.35401 0.13027 0.0
C1789 C 0.52723 0.34042 0.09538 0.0
C1790 C 0.54826 0.33794 0.10671 0.0
H1791 H 0.49163 0.34889 0.09812 0.0
H1792 H 0.52546 0.33511 0.07778 0.0
S1793 S 0.56026 0.35384 0.16693 0.0
N1794 N 0.53277 0.35882 0.16363 0.0
N1795 N 0.56934 0.34453 0.14197 0.0
C1796 C 0.54974 0.34521 0.12959 0.0
C1797 C 0.53001 0.35301 0.14135 0.0
C1798 C 0.90837 0.27761 0.34929 0.0
C1799 C 0.91062 0.29897 0.36 0.0
C1800 C 0.90021 0.25859 0.36135 0.0
C1801 C 0.89429 0.26037 0.3845 0.0
H1802 H 0.91409 0.27523 0.3319 0.0
H1803 H 0.90013 0.24212 0.35297 0.0
S1804 S 0.89345 0.31298 0.4194 0.0
N1805 N 0.90323 0.32125 0.39434 0.0
N1806 N 0.88864 0.28536 0.41694 0.0
C1807 C 0.89488 0.28186 0.3949 0.0
C1808 C 0.90284 0.30124 0.38263 0.0
C1809 C 0.98581 0.64936 0.61443 0.0
C1810 C 0.9864 0.64973 0.63839 0.0
C1811 C 0.96653 0.65718 0.6025 0.0
C1812 C 0.94715 0.66517 0.6142 0.0
H1813 H 0.00075 0.64424 0.60487 0.0
H1814 H 0.96708 0.65759 0.58405 0.0
S1815 S 0.93969 0.6673 0.67712 0.0
N1816 N 0.96568 0.6572 0.67339 0.0
N1817 N 0.92936 0.67132 0.65127 0.0
C1818 C 0.94719 0.66428 0.63822 0.0
C1819 C 0.96685 0.65672 0.65024 0.0
C1820 C 0.58855 0.28383 0.64735 0.0
C1821 C 0.58109 0.30377 0.63628 0.0
C1822 C 0.59558 0.26463 0.63481 0.0
C1823 C 0.5949 0.26467 0.61085 0.0
H1824 H 0.58842 0.28283 0.66579 0.0
H1825 H 0.60042 0.24931 0.64392 0.0
S1826 S 0.57848 0.31299 0.5736 0.0
N1827 N 0.57506 0.32273 0.59977 0.0
N1828 N 0.58769 0.28657 0.5765 0.0
C1829 C 0.58835 0.28472 0.59961 0.0
C1830 C 0.58159 0.30431 0.61225 0.0
C1831 C 0.00086 0.33784 0.89349 0.0
C1832 C 0.99844 0.35166 0.87399 0.0
C1833 C 0.9818 0.33119 0.90633 0.0
C1834 C 0.95975 0.33812 0.90004 0.0
H1835 H 0.01736 0.33091 0.89804 0.0
H1836 H 0.98422 0.31929 0.92025 0.0
S1837 S 0.94475 0.37794 0.85323 0.0
N1838 N 0.97263 0.37472 0.85112 0.0
N1839 N 0.93691 0.36219 0.87519 0.0
C1840 C 0.95737 0.35357 0.88187 0.0
C1841 C 0.97671 0.36036 0.86885 0.0
C1842 C 0.92067 0.72788 0.15663 0.0
C1843 C 0.91188 0.70618 0.15152 0.0
C1844 C 0.91311 0.7473 0.14484 0.0
C1845 C 0.8965 0.74565 0.12755 0.0
H1846 H 0.9346 0.72971 0.16861 0.0
H1847 H 0.92144 0.76341 0.14827 0.0
S1848 S 0.86492 0.69337 0.1111 0.0
N1849 N 0.8833 0.68467 0.13056 0.0
N1850 N 0.86914 0.72108 0.10843 0.0
C1851 C 0.8861 0.72438 0.12386 0.0
C1852 C 0.89379 0.70466 0.13584 0.0
C1853 C 0.52487 0.63769 0.37478 0.0
C1854 C 0.50444 0.65007 0.37568 0.0
C1855 C 0.54373 0.6444 0.3879 0.0
C1856 C 0.54249 0.66329 0.40271 0.0
H1857 H 0.52677 0.62377 0.36278 0.0
H1858 H 0.55971 0.6354 0.38565 0.0
S1859 S 0.49168 0.69948 0.41294 0.0
N1860 N 0.48331 0.68084 0.39356 0.0
N1861 N 0.51844 0.69297 0.41883 0.0
C1862 C 0.52154 0.67464 0.40499 0.0
C1863 C 0.50258 0.66816 0.39125 0.0
C1864 C 0.85776 0.59202 0.74007 0.0
C1865 C 0.88048 0.59951 0.7387 0.0
C1866 C 0.84584 0.58532 0.72038 0.0
C1867 C 0.85621 0.58626 0.69875 0.0
H1868 H 0.84969 0.58991 0.75655 0.0
H1869 H 0.82888 0.57829 0.72228 0.0
S1870 S 0.9142 0.60851 0.68611 0.0
N1871 N 0.91201 0.60997 0.71411 0.0
N1872 N 0.88961 0.59825 0.67709 0.0
C1873 C 0.8783 0.59561 0.69715 0.0
C1874 C 0.89046 0.60198 0.71715 0.0
C1875 C 0.6838 0.5943 0.97349 0.0
C1876 C 0.6707 0.59558 0.9535 0.0
C1877 C 0.67794 0.60714 0.99277 0.0
C1878 C 0.65844 0.62109 0.99291 0.0
H1879 H 0.69946 0.5845 0.97376 0.0
H1880 H 0.68911 0.60665 0.00748 0.0
S1881 S 0.61729 0.62852 0.94563 0.0
N1882 N 0.63668 0.61083 0.93538 0.0
N1883 N 0.62518 0.6342 0.97207 0.0
C1884 C 0.64438 0.62133 0.97359 0.0
C1885 C 0.65066 0.60876 0.95373 0.0
C1886 C 0.63507 0.4282 0.24166 0.0
C1887 C 0.62237 0.40787 0.24158 0.0
C1888 C 0.64839 0.43447 0.22287 0.0
C1889 C 0.64886 0.42092 0.20314 0.0
H1890 H 0.63432 0.43959 0.25619 0.0
H1891 H 0.65728 0.45065 0.2233 0.0
S1892 S 0.61959 0.36549 0.19486 0.0
N1893 N 0.61221 0.37351 0.22084 0.0
N1894 N 0.63651 0.38574 0.18502 0.0
C1895 C 0.63685 0.40017 0.20314 0.0
C1896 C 0.62378 0.3935 0.22253 0.0
C1897 C 0.83807 0.36647 0.44689 0.0
C1898 C 0.83458 0.39018 0.44856 0.0
C1899 C 0.84599 0.35378 0.46542 0.0
C1900 C 0.85116 0.36433 0.48625 0.0
H1901 H 0.83378 0.35736 0.43141 0.0
H1902 H 0.84736 0.33544 0.46366 0.0
S1903 S 0.84681 0.42607 0.49919 0.0
N1904 N 0.83821 0.4239 0.47246 0.0
N1905 N 0.85353 0.39994 0.50731 0.0
C1906 C 0.84908 0.38816 0.48787 0.0
C1907 C 0.84067 0.40112 0.46901 0.0
C1908 C 0.85396 0.41538 0.74991 0.0
C1909 C 0.87042 0.39797 0.75153 0.0
C1910 C 0.84129 0.42221 0.76901 0.0
C1911 C 0.84452 0.41172 0.79033 0.0
H1912 H 0.85195 0.42489 0.7342 0.0
H1913 H 0.82999 0.43673 0.76736 0.0
S1914 S 0.88234 0.36232 0.80233 0.0
N1915 N 0.88699 0.36834 0.77524 0.0
N1916 N 0.86296 0.38078 0.81103 0.0
C1917 C 0.85934 0.39284 0.79157 0.0
C1918 C 0.87238 0.38608 0.7722 0.0
C1919 C 0.82575 0.63068 0.04758 0.0
C1920 C 0.8286 0.60687 0.0487 0.0
C1921 C 0.83271 0.64308 0.02851 0.0
C1922 C 0.84315 0.63229 0.00988 0.0
H1923 H 0.81755 0.63988 0.06133 0.0
H1924 H 0.82961 0.66129 0.02827 0.0
S1925 S 0.85563 0.57052 0.00458 0.0
N1926 N 0.84323 0.57301 0.02975 0.0
N1927 N 0.85673 0.59654 0.99384 0.0
C1928 C 0.84685 0.60862 0.01096 0.0
C1929 C 0.83943 0.59584 0.03037 0.0
C1930 C 0.63766 0.59183 0.26235 0.0
C1931 C 0.61397 0.58867 0.2604 0.0
C1932 C 0.64965 0.58373 0.28149 0.0
C1933 C 0.63822 0.57258 0.29941 0.0
H1934 H 0.64709 0.59995 0.24871 0.0
H1935 H 0.66794 0.58613 0.28222 0.0
S1936 S 0.57595 0.56135 0.30288 0.0
N1937 N 0.57943 0.57447 0.27826 0.0
N1938 N 0.60164 0.55954 0.31414 0.0
C1939 C 0.6144 0.56995 0.29783 0.0
C1940 C 0.60235 0.57793 0.27834 0.0
C1941 C 0.652 0.35732 0.53042 0.0
C1942 C 0.64748 0.36861 0.50985 0.0
C1943 C 0.65926 0.36929 0.54967 0.0
C1944 C 0.66278 0.39305 0.54903 0.0
H1945 H 0.65065 0.33891 0.53145 0.0
H1946 H 0.66317 0.35957 0.56488 0.0
S1947 S 0.65167 0.43083 0.49954 0.0
N1948 N 0.64537 0.40501 0.49018 0.0
N1949 N 0.65959 0.42766 0.52639 0.0
C1950 C 0.6572 0.40476 0.52885 0.0
C1951 C 0.6494 0.3925 0.50924 0.0
C1952 C 0.73622 0.86062 0.60009 0.0
C1953 C 0.73644 0.88459 0.59939 0.0
C1954 C 0.71713 0.84828 0.59243 0.0
C1955 C 0.69757 0.85958 0.58428 0.0
H1956 H 0.75126 0.85137 0.60549 0.0
H1957 H 0.71791 0.82983 0.59238 0.0
S1958 S 0.68918 0.9224 0.58133 0.0
N1959 N 0.71521 0.91918 0.59143 0.0
N1960 N 0.67927 0.89635 0.5776 0.0
C1961 C 0.6973 0.88363 0.58473 0.0
C1962 C 0.71677 0.89605 0.59215 0.0
C1963 C 0.24167 0.64071 0.41163 0.0
C1964 C 0.24841 0.62079 0.42328 0.0
C1965 C 0.22236 0.65317 0.41851 0.0
C1966 C 0.20909 0.6459 0.43707 0.0
H1967 H 0.25098 0.64637 0.39673 0.0
H1968 H 0.21719 0.66788 0.40862 0.0
S1969 S 0.22069 0.59657 0.47487 0.0
N1970 N 0.24122 0.59575 0.45566 0.0
N1971 N 0.20495 0.6189 0.46817 0.0
C1972 C 0.21623 0.62672 0.44948 0.0
C1973 C 0.23589 0.61422 0.4427 0.0
C1974 C 0.58718 0.97897 0.66415 0.0
C1975 C 0.5939 0.95701 0.65731 0.0
C1976 C 0.59921 0.99832 0.65679 0.0
C1977 C 0.61829 0.99628 0.64232 0.0
H1978 H 0.57368 0.98114 0.67656 0.0
H1979 H 0.59449 0.01475 0.66377 0.0
S1980 S 0.63942 0.94288 0.61577 0.0
N1981 N 0.61837 0.9346 0.6325 0.0
N1982 N 0.64088 0.97085 0.61859 0.0
C1983 C 0.62364 0.9746 0.63361 0.0
C1984 C 0.61147 0.95497 0.64115 0.0
C1985 C 0.3006 0.38198 0.92241 0.0
C1986 C 0.30071 0.35799 0.92142 0.0
C1987 C 0.28192 0.39461 0.91477 0.0
C1988 C 0.2627 0.38384 0.90548 0.0
H1989 H 0.31482 0.39119 0.92976 0.0
H1990 H 0.28239 0.41299 0.91658 0.0
S1991 S 0.25478 0.32158 0.89773 0.0
N1992 N 0.28023 0.32395 0.90956 0.0
N1993 N 0.24507 0.34787 0.89481 0.0
C1994 C 0.26283 0.35994 0.90349 0.0
C1995 C 0.28183 0.34696 0.9116 0.0
C1996 C 0.35321 0.53075 0.6618 0.0
C1997 C 0.36461 0.5122 0.65187 0.0
C1998 C 0.36518 0.54964 0.6699 0.0
C1999 C 0.38912 0.55068 0.66875 0.0
H2000 H 0.33484 0.53052 0.66373 0.0
H2001 H 0.35548 0.56329 0.67772 0.0
S2002 S 0.42701 0.5068 0.64345 0.0
N2003 N 0.40109 0.49622 0.64042 0.0
N2004 N 0.4238 0.5318 0.65605 0.0
C2005 C 0.40077 0.5325 0.6583 0.0
C2006 C 0.38845 0.51326 0.64972 0.0
C2007 C 0.75369 0.1478 0.0825 0.0
C2008 C 0.75498 0.13072 0.09936 0.0
C2009 C 0.77321 0.15963 0.07534 0.0
C2010 C 0.79468 0.15459 0.08464 0.0
H2011 H 0.73773 0.15124 0.07388 0.0
H2012 H 0.7717 0.17163 0.06138 0.0
S2013 S 0.80675 0.11429 0.13183 0.0
N2014 N 0.77911 0.11166 0.12723 0.0
N2015 N 0.81576 0.13362 0.11346 0.0
C2016 C 0.79593 0.13887 0.10267 0.0
C2017 C 0.77607 0.12702 0.11014 0.0
C2018 C 0.64144 0.03123 0.85002 0.0
C2019 C 0.63126 0.00982 0.85305 0.0
C2020 C 0.62869 0.04996 0.84267 0.0
C2021 C 0.60531 0.0479 0.83761 0.0
H2022 H 0.65964 0.03331 0.85239 0.0
H2023 H 0.63761 0.06587 0.8398 0.0
S2024 S 0.5702 0.99581 0.8448 0.0
N2025 N 0.59615 0.98785 0.85233 0.0
N2026 N 0.5721 0.02308 0.83801 0.0
C2027 C 0.5946 0.02688 0.84189 0.0
C2028 C 0.60761 0.00781 0.84975 0.0
C2029 C 0.88828 0.98305 0.34232 0.0
C2030 C 0.86438 0.98325 0.34394 0.0
C2031 C 0.89991 0.96365 0.33436 0.0
C2032 C 0.88798 0.94377 0.32813 0.0
H2033 H 0.89795 0.99832 0.34615 0.0
H2034 H 0.91826 0.96443 0.33255 0.0
S2035 S 0.82529 0.93508 0.33221 0.0
N2036 N 0.82931 0.96164 0.34055 0.0
N2037 N 0.85088 0.92506 0.32619 0.0
C2038 C 0.8641 0.94349 0.33098 0.0
C2039 C 0.85236 0.96328 0.33872 0.0
C2040 C 0.4128 0.28268 0.14935 0.0
C2041 C 0.41989 0.30213 0.13717 0.0
C2042 C 0.40475 0.26317 0.13791 0.0
C2043 C 0.40392 0.26242 0.11397 0.0
H2044 H 0.41388 0.28235 0.16777 0.0
H2045 H 0.40018 0.24827 0.14781 0.0
S2046 S 0.41849 0.30923 0.07416 0.0
N2047 N 0.42379 0.31975 0.09971 0.0
N2048 N 0.40924 0.28303 0.07854 0.0
C2049 C 0.41013 0.28194 0.10168 0.0
C2050 C 0.41797 0.30182 0.1132 0.0
C2051 C 0.47553 0.67268 0.90298 0.0
C2052 C 0.4547 0.66108 0.90092 0.0
C2053 C 0.49436 0.66638 0.88972 0.0
C2054 C 0.49317 0.64786 0.87453 0.0
H2055 H 0.47682 0.68773 0.91362 0.0
H2056 H 0.50974 0.67655 0.89076 0.0
S2057 S 0.44334 0.6104 0.86483 0.0
N2058 N 0.4344 0.62929 0.88374 0.0
N2059 N 0.47024 0.61686 0.85953 0.0
C2060 C 0.47302 0.63507 0.87358 0.0
C2061 C 0.45364 0.64185 0.88661 0.0
C2062 C 0.08426 0.7184 0.65052 0.0
C2063 C 0.07727 0.69849 0.63905 0.0
C2064 C 0.09154 0.73774 0.63836 0.0
C2065 C 0.09172 0.73782 0.61439 0.0
H2066 H 0.08356 0.71927 0.66894 0.0
H2067 H 0.09601 0.75302 0.64772 0.0
S2068 S 0.07763 0.68945 0.57628 0.0
N2069 N 0.07311 0.67959 0.60223 0.0
N2070 N 0.08624 0.71601 0.57968 0.0
C2071 C 0.08576 0.7178 0.60279 0.0
C2072 C 0.07868 0.69809 0.61506 0.0
C2073 C 0.03873 0.34468 0.39648 0.0
C2074 C 0.04213 0.3218 0.40304 0.0
C2075 C 0.01972 0.35116 0.38344 0.0
C2076 C 0.00371 0.3349 0.37622 0.0
H2077 H 0.05128 0.35755 0.40068 0.0
H2078 H 0.01816 0.36876 0.37808 0.0
S2079 S 0.00301 0.27345 0.39123 0.0
N2080 N 0.02645 0.28337 0.40324 0.0
N2081 N 0.99108 0.2955 0.37845 0.0
C2082 C 0.0062 0.31226 0.3837 0.0
C2083 C 0.02531 0.30573 0.39723 0.0
C2084 C 0.40052 0.73497 0.35911 0.0
C2085 C 0.40118 0.73638 0.38303 0.0
C2086 C 0.40883 0.71557 0.34771 0.0
C2087 C 0.41759 0.69686 0.35993 0.0
H2088 H 0.39458 0.74933 0.34913 0.0
H2089 H 0.40879 0.71542 0.32925 0.0
S2090 S 0.42108 0.69167 0.423 0.0
N2091 N 0.41003 0.71716 0.41858 0.0
N2092 N 0.42508 0.68062 0.39745 0.0
C2093 C 0.41724 0.69776 0.38394 0.0
C2094 C 0.40918 0.71756 0.39542 0.0
C2095 C 0.0128 0.65127 0.10706 0.0
C2096 C 0.99805 0.66763 0.11645 0.0
C2097 C 0.03177 0.65792 0.0941 0.0
C2098 C 0.03642 0.68111 0.08988 0.0
H2099 H 0.0105 0.63335 0.1109 0.0
H2100 H 0.04348 0.64484 0.08836 0.0
S2101 S 0.00057 0.73013 0.10772 0.0
N2102 N 0.98763 0.70764 0.11852 0.0
N2103 N 0.02302 0.7202 0.09395 0.0
C2104 C 0.02065 0.69745 0.09762 0.0
C2105 C 0.00154 0.69068 0.11101 0.0
C2106 C 0.10114 0.26594 0.86497 0.0
C2107 C 0.08634 0.24712 0.86558 0.0
C2108 C 0.09576 0.28539 0.85214 0.0
C2109 C 0.07539 0.28673 0.83947 0.0
H2110 H 0.1163 0.26624 0.87551 0.0
H2111 H 0.10702 0.29998 0.85332 0.0
S2112 S 0.03327 0.24021 0.83174 0.0
N2113 N 0.05221 0.22966 0.84968 0.0
N2114 N 0.0421 0.26624 0.82571 0.0
C2115 C 0.0615 0.26725 0.83834 0.0
C2116 C 0.06698 0.24743 0.85137 0.0
C2117 C 0.47422 0.36017 0.62467 0.0
C2118 C 0.49451 0.34752 0.62455 0.0
C2119 C 0.45535 0.35296 0.61183 0.0
C2120 C 0.45646 0.33326 0.59811 0.0
H2121 H 0.47245 0.37478 0.63584 0.0
H2122 H 0.43949 0.3623 0.61342 0.0
S2123 S 0.50693 0.29594 0.59025 0.0
N2124 N 0.5154 0.31557 0.60857 0.0
N2125 N 0.48027 0.30241 0.58386 0.0
C2126 C 0.47729 0.32151 0.59664 0.0
C2127 C 0.49624 0.32855 0.61008 0.0
C2128 C 0.13268 0.39824 0.29482 0.0
C2129 C 0.15121 0.41329 0.29244 0.0
C2130 C 0.1208 0.39013 0.27582 0.0
C2131 C 0.12696 0.39668 0.25361 0.0
H2132 H 0.12644 0.39361 0.31158 0.0
H2133 H 0.10586 0.37967 0.27869 0.0
S2134 S 0.17653 0.4327 0.23786 0.0
N2135 N 0.17696 0.43214 0.26601 0.0
N2136 N 0.15461 0.41681 0.23015 0.0
C2137 C 0.14669 0.41008 0.25084 0.0
C2138 C 0.15882 0.41841 0.2703 0.0
C2139 C 0.34434 0.38506 0.00966 0.0
C2140 C 0.3517 0.36231 0.01096 0.0
C2141 C 0.33554 0.39621 0.02896 0.0
C2142 C 0.33416 0.385 0.05015 0.0
H2143 H 0.34391 0.39374 0.99336 0.0
H2144 H 0.32885 0.41332 0.02701 0.0
S2145 S 0.35455 0.32626 0.06265 0.0
N2146 N 0.35913 0.32962 0.03509 0.0
N2147 N 0.34348 0.35056 0.07156 0.0
C2148 C 0.34321 0.36277 0.05186 0.0
C2149 C 0.35172 0.3514 0.03217 0.0
C2150 C 0.34833 0.58733 0.77989 0.0
C2151 C 0.36011 0.57975 0.79939 0.0
C2152 C 0.36015 0.59583 0.76085 0.0
C2153 C 0.38409 0.59669 0.76066 0.0
H2154 H 0.32992 0.58615 0.77909 0.0
H2155 H 0.35057 0.60065 0.74581 0.0
S2156 S 0.42291 0.58132 0.80804 0.0
N2157 N 0.39717 0.57568 0.81785 0.0
N2158 N 0.41909 0.59112 0.78196 0.0
C2159 C 0.39598 0.59016 0.78032 0.0
C2160 C 0.38406 0.58183 0.79973 0.0
C2161 C 0.14882 0.62693 0.5493 0.0
C2162 C 0.15764 0.60478 0.54635 0.0
C2163 C 0.14109 0.63974 0.53076 0.0
C2164 C 0.14148 0.63076 0.5086 0.0
H2165 H 0.14912 0.63506 0.56589 0.0
H2166 H 0.13592 0.65724 0.53363 0.0
S2167 S 0.16011 0.57267 0.49193 0.0
N2168 N 0.16426 0.57364 0.51976 0.0
N2169 N 0.1493 0.59769 0.48484 0.0
C2170 C 0.14838 0.60798 0.50558 0.0
C2171 C 0.15656 0.59497 0.5245 0.0
C2172 C 0.14996 0.57317 0.24526 0.0
C2173 C 0.13795 0.59393 0.24609 0.0
C2174 C 0.16095 0.56609 0.22526 0.0
C2175 C 0.15982 0.57932 0.20534 0.0
H2176 H 0.14974 0.56171 0.25974 0.0
H2177 H 0.16867 0.5493 0.2249 0.0
S2178 S 0.13313 0.63635 0.19949 0.0
N2179 N 0.12787 0.62882 0.2261 0.0
N2180 N 0.14804 0.61522 0.18833 0.0
C2181 C 0.14945 0.6009 0.20649 0.0
C2182 C 0.13863 0.6083 0.22696 0.0
C2183 C 0.16955 0.35446 0.97399 0.0
C2184 C 0.15881 0.36527 0.99245 0.0
C2185 C 0.17725 0.36685 0.95526 0.0
C2186 C 0.17481 0.39068 0.9542 0.0
H2187 H 0.17213 0.33616 0.97395 0.0
H2188 H 0.18554 0.35755 0.94162 0.0
S2189 S 0.14761 0.42727 0.99801 0.0
N2190 N 0.1457 0.40119 0.00852 0.0
N2191 N 0.16059 0.42473 0.97314 0.0
C2192 C 0.16396 0.40183 0.97245 0.0
C2193 C 0.15581 0.38906 0.99159 0.0
C2194 C 0.38083 0.4224 0.69853 0.0
C2195 C 0.35691 0.4212 0.6971 0.0
C2196 C 0.39251 0.4145 0.71769 0.0
C2197 C 0.38084 0.40469 0.73612 0.0
H2198 H 0.39073 0.43012 0.68499 0.0
H2199 H 0.41087 0.41644 0.7182 0.0
S2200 S 0.31838 0.39628 0.74059 0.0
N2201 N 0.32195 0.40867 0.71554 0.0
N2202 N 0.34414 0.39335 0.75161 0.0
C2203 C 0.35702 0.40251 0.73469 0.0
C2204 C 0.34499 0.41092 0.71519 0.0
C2205 C 0.34101 0.60228 0.49584 0.0
C2206 C 0.35601 0.62092 0.49364 0.0
C2207 C 0.33378 0.5899 0.47666 0.0
C2208 C 0.34134 0.5958 0.45471 0.0
H2209 H 0.33341 0.59831 0.51219 0.0
H2210 H 0.32082 0.57693 0.47886 0.0
S2211 S 0.38461 0.63965 0.44046 0.0
N2212 N 0.38108 0.64204 0.46828 0.0
N2213 N 0.36753 0.61882 0.43232 0.0
C2214 C 0.35816 0.61275 0.45263 0.0
C2215 C 0.3655 0.62531 0.4721 0.0
C2216 C 0.29922 0.11377 0.4206 0.0
C2217 C 0.30031 0.13775 0.4201 0.0
C2218 C 0.28039 0.10204 0.41198 0.0
C2219 C 0.26198 0.11373 0.40215 0.0
H2220 H 0.31274 0.10385 0.42834 0.0
H2221 H 0.28008 0.08363 0.41346 0.0
S2222 S 0.25683 0.17638 0.39525 0.0
N2223 N 0.28167 0.17279 0.40806 0.0
N2224 N 0.24623 0.15056 0.39144 0.0
C2225 C 0.26313 0.13764 0.4006 0.0
C2226 C 0.28229 0.1497 0.40972 0.0
C2227 C 0.77963 0.34809 0.58284 0.0
C2228 C 0.79584 0.35836 0.56848 0.0
C2229 C 0.76044 0.36032 0.59043 0.0
C2230 C 0.75667 0.383 0.5835 0.0
H2231 H 0.78198 0.33069 0.58854 0.0
H2232 H 0.74836 0.35189 0.60156 0.0
S2233 S 0.79384 0.41734 0.54548 0.0
N2234 N 0.8067 0.39241 0.5474 0.0
N2235 N 0.77072 0.41511 0.56131 0.0
C2236 C 0.77267 0.39329 0.56893 0.0
C2237 C 0.79224 0.38103 0.5615 0.0
C2238 C 0.38293 0.00853 0.33522 0.0
C2239 C 0.35964 0.00682 0.32972 0.0
C2240 C 0.39566 0.02791 0.32909 0.0
C2241 C 0.38536 0.04634 0.31769 0.0
H2242 H 0.39149 0.99461 0.34383 0.0
H2243 H 0.41361 0.02851 0.33338 0.0
S2244 S 0.32461 0.05043 0.30013 0.0
N2245 N 0.32673 0.02533 0.31264 0.0
N2246 N 0.35035 0.06165 0.30141 0.0
C2247 C 0.36197 0.0449 0.31248 0.0
C2248 C 0.34918 0.02517 0.31843 0.0
C2249 C 0.72276 0.64674 0.08997 0.0
C2250 C 0.70196 0.63549 0.08584 0.0
C2251 C 0.74182 0.6348 0.09824 0.0
C2252 C 0.7407 0.61121 0.10233 0.0
H2253 H 0.72464 0.66465 0.08585 0.0
H2254 H 0.75788 0.64375 0.09999 0.0
S2255 S 0.68967 0.57439 0.09755 0.0
N2256 N 0.68087 0.5998 0.08926 0.0
N2257 N 0.71686 0.57751 0.10406 0.0
C2258 C 0.71974 0.60009 0.09969 0.0
C2259 C 0.7003 0.61221 0.09165 0.0
C2260 C 0.61016 0.48775 0.34767 0.0
C2261 C 0.63353 0.48588 0.35263 0.0
C2262 C 0.59789 0.46901 0.3391 0.0
C2263 C 0.60862 0.44782 0.3355 0.0
H2264 H 0.60169 0.50413 0.34894 0.0
H2265 H 0.58025 0.47147 0.33426 0.0
S2266 S 0.66877 0.43359 0.34963 0.0
N2267 N 0.66633 0.46095 0.35578 0.0
N2268 N 0.64341 0.42556 0.34046 0.0
C2269 C 0.63159 0.44544 0.34221 0.0
C2270 C 0.64403 0.46454 0.35055 0.0
C2271 C 0.21856 0.85122 0.91206 0.0
C2272 C 0.19735 0.86203 0.91513 0.0
C2273 C 0.23735 0.86326 0.90332 0.0
C2274 C 0.23549 0.88646 0.89754 0.0
H2275 H 0.22098 0.83374 0.91749 0.0
H2276 H 0.25374 0.85478 0.90256 0.0
S2277 S 0.18294 0.92147 0.89844 0.0
N2278 N 0.17497 0.89645 0.90857 0.0
N2279 N 0.21037 0.91896 0.89273 0.0
C2280 C 0.21406 0.89693 0.89894 0.0
C2281 C 0.19495 0.88473 0.90758 0.0
C2282 C 0.39996 0.96487 0.15263 0.0
C2283 C 0.4061 0.96179 0.17567 0.0
C2284 C 0.38598 0.98307 0.14583 0.0
C2285 C 0.37739 0.99859 0.16192 0.0
H2286 H 0.40516 0.95256 0.13986 0.0
H2287 H 0.38094 0.98432 0.12811 0.0
S2288 S 0.39098 0.00018 0.22369 0.0
N2289 N 0.40454 0.97746 0.21406 0.0
N2290 N 0.37805 0.01137 0.20134 0.0
C2291 C 0.38454 0.99657 0.18471 0.0
C2292 C 0.39899 0.97827 0.19158 0.0
C2293 C 0.13051 0.04736 0.67269 0.0
C2294 C 0.10661 0.04832 0.67071 0.0
C2295 C 0.14278 0.02832 0.6654 0.0
C2296 C 0.13177 0.00957 0.65545 0.0
H2297 H 0.1399 0.06118 0.68056 0.0
H2298 H 0.16108 0.02816 0.66794 0.0
S2299 S 0.06968 0.00383 0.64513 0.0
N2300 N 0.07241 0.02909 0.65732 0.0
N2301 N 0.09572 0.99325 0.64316 0.0
C2302 C 0.108 0.01051 0.65252 0.0
C2303 C 0.09535 0.02989 0.6603 0.0
C2304 C 0.12661 0.11608 0.32381 0.0
C2305 C 0.10503 0.1095 0.33192 0.0
C2306 C 0.14653 0.10616 0.33243 0.0
C2307 C 0.14554 0.0892 0.34933 0.0
H2308 H 0.12829 0.13007 0.31188 0.0
H2309 H 0.16279 0.11282 0.32678 0.0
S2310 S 0.09301 0.06274 0.37271 0.0
N2311 N 0.08368 0.08271 0.35522 0.0
N2312 N 0.12109 0.06381 0.37126 0.0
C2313 C 0.124 0.08089 0.35588 0.0
C2314 C 0.10372 0.09113 0.34722 0.0
C2315 C 0.15992 0.85322 0.6025 0.0
C2316 C 0.14341 0.85359 0.58514 0.0
C2317 C 0.16905 0.87348 0.61114 0.0
C2318 C 0.16192 0.89481 0.60279 0.0
H2319 H 0.16473 0.83731 0.61055 0.0
H2320 H 0.18055 0.87238 0.62556 0.0
S2321 S 0.12301 0.90477 0.55397 0.0
N2322 N 0.12323 0.87681 0.55726 0.0
N2323 N 0.14034 0.91493 0.57368 0.0
C2324 C 0.14728 0.8953 0.58385 0.0
C2325 C 0.13803 0.87465 0.57497 0.0
C2326 C 0.37605 0.91764 0.86942 0.0
C2327 C 0.35522 0.91186 0.85907 0.0
C2328 C 0.39674 0.90891 0.86133 0.0
C2329 C 0.39737 0.89408 0.84248 0.0
H2330 H 0.37638 0.92813 0.88468 0.0
H2331 H 0.41215 0.91292 0.87058 0.0
S2332 S 0.34791 0.87659 0.80706 0.0
N2333 N 0.33673 0.89256 0.82737 0.0
N2334 N 0.3756 0.87619 0.812 0.0
C2335 C 0.37685 0.88957 0.83091 0.0
C2336 C 0.35574 0.89841 0.8392 0.0
C2337 C 0.35821 0.12504 0.07668 0.0
C2338 C 0.3502 0.146 0.0852 0.0
C2339 C 0.34966 0.10435 0.08487 0.0
C2340 C 0.33269 0.10389 0.10176 0.0
H2341 H 0.37238 0.12449 0.06485 0.0
H2342 H 0.35759 0.08869 0.0791 0.0
S2343 S 0.30224 0.15406 0.12557 0.0
N2344 N 0.32164 0.16506 0.10842 0.0
N2345 N 0.30532 0.12613 0.1237 0.0
C2346 C 0.32266 0.12468 0.1084 0.0
C2347 C 0.33151 0.14578 0.10015 0.0
C2348 C 0.14335 0.89533 0.16688 0.0
C2349 C 0.14432 0.91179 0.14948 0.0
C2350 C 0.12251 0.88612 0.1739 0.0
C2351 C 0.10196 0.89292 0.1636 0.0
H2352 H 0.15887 0.88837 0.17408 0.0
H2353 H 0.12274 0.87236 0.18622 0.0
S2354 S 0.09482 0.93893 0.12085 0.0
N2355 N 0.12262 0.93725 0.12488 0.0
N2356 N 0.08345 0.91965 0.1379 0.0
C2357 C 0.10248 0.911 0.14791 0.0
C2358 C 0.12369 0.92055 0.1409 0.0
C2359 C 0.33109 0.85259 0.38905 0.0
C2360 C 0.34749 0.85342 0.4065 0.0
C2361 C 0.32227 0.87261 0.37953 0.0
C2362 C 0.32965 0.89416 0.38704 0.0
H2363 H 0.32607 0.83642 0.38166 0.0
H2364 H 0.31081 0.87111 0.36512 0.0
S2365 S 0.36866 0.9056 0.43545 0.0
N2366 N 0.36799 0.87753 0.43338 0.0
N2367 N 0.35154 0.91517 0.41527 0.0
C2368 C 0.34432 0.89522 0.40593 0.0
C2369 C 0.35321 0.87483 0.41574 0.0
C2370 C 0.37261 0.11202 0.6738 0.0
C2371 C 0.3939 0.10411 0.6661 0.0
C2372 C 0.3523 0.1025 0.66566 0.0
C2373 C 0.3526 0.08467 0.64964 0.0
H2374 H 0.37152 0.12668 0.68499 0.0
H2375 H 0.33633 0.11019 0.67086 0.0
S2376 S 0.40398 0.05467 0.62799 0.0
N2377 N 0.41413 0.07516 0.64441 0.0
N2378 N 0.37597 0.05706 0.62924 0.0
C2379 C 0.37377 0.07508 0.64365 0.0
C2380 C 0.39445 0.08489 0.65183 0.0
C2381 C 0.14999 0.10902 0.91241 0.0
C2382 C 0.16448 0.10956 0.89335 0.0
C2383 C 0.13963 0.12892 0.92051 0.0
C2384 C 0.14326 0.15006 0.90973 0.0
H2385 H 0.14537 0.09294 0.92022 0.0
H2386 H 0.12742 0.12737 0.93427 0.0
S2387 S 0.18357 0.16138 0.8624 0.0
N2388 N 0.18498 0.13354 0.86636 0.0
N2389 N 0.16524 0.17094 0.88149 0.0
C2390 C 0.15957 0.15122 0.89224 0.0
C2391 C 0.17027 0.13094 0.88407 0.0
C2392 C 0.10187 0.33593 0.14516 0.0
C2393 C 0.08538 0.3533 0.14572 0.0
C2394 C 0.1093 0.32673 0.12444 0.0
C2395 C 0.10076 0.33486 0.10355 0.0
H2396 H 0.10987 0.33013 0.16077 0.0
H2397 H 0.12293 0.31427 0.1248 0.0
S2398 S 0.05509 0.37787 0.09583 0.0
N2399 N 0.0588 0.37641 0.12369 0.0
N2400 N 0.07318 0.35938 0.08473 0.0
C2401 C 0.0831 0.35102 0.10393 0.0
C2402 C 0.07529 0.36017 0.12504 0.0
C2403 C 0.57868 0.14429 0.89681 0.0
C2404 C 0.59435 0.16239 0.8976 0.0
C2405 C 0.57112 0.13549 0.87595 0.0
C2406 C 0.57917 0.14434 0.85516 0.0
H2407 H 0.57342 0.13578 0.91233 0.0
H2408 H 0.5603 0.12053 0.87622 0.0
S2409 S 0.61637 0.1949 0.84794 0.0
N2410 N 0.61455 0.19139 0.87581 0.0
N2411 N 0.6006 0.17453 0.8366 0.0
C2412 C 0.59291 0.16393 0.85571 0.0
C2413 C 0.60042 0.17307 0.87697 0.0
C2414 C 0.92424 0.85972 0.37565 0.0
C2415 C 0.91701 0.84899 0.35543 0.0
C2416 C 0.91624 0.85252 0.39693 0.0
C2417 C 0.90083 0.83426 0.39873 0.0
H2418 H 0.9348 0.87485 0.375 0.0
H2419 H 0.92092 0.86235 0.41184 0.0
S2420 S 0.8811 0.79716 0.35137 0.0
N2421 N 0.8968 0.81686 0.33883 0.0
N2422 N 0.88192 0.80308 0.37887 0.0
C2423 C 0.89556 0.8218 0.37889 0.0
C2424 C 0.90361 0.82924 0.35719 0.0
C2425 C 0.8992 0.16301 0.14453 0.0
C2426 C 0.91477 0.1448 0.1442 0.0
C2427 C 0.89059 0.17219 0.12427 0.0
C2428 C 0.89716 0.16339 0.10294 0.0
H2429 H 0.89257 0.16941 0.16054 0.0
H2430 H 0.87758 0.18525 0.12544 0.0
S2431 S 0.9408 0.11878 0.09268 0.0
N2432 N 0.93899 0.12058 0.12071 0.0
N2433 N 0.92262 0.13775 0.08261 0.0
C2434 C 0.91426 0.14662 0.10232 0.0
C2435 C 0.92313 0.13733 0.12297 0.0
C2436 C 0.41884 0.63932 0.62278 0.0
C2437 C 0.41098 0.64809 0.64368 0.0
C2438 C 0.41002 0.64714 0.60207 0.0
C2439 C 0.39317 0.66416 0.60148 0.0
H2440 H 0.43081 0.62525 0.62238 0.0
H2441 H 0.41557 0.63888 0.5865 0.0
S2442 S 0.37013 0.69577 0.65126 0.0
N2443 N 0.38779 0.6769 0.66242 0.0
N2444 N 0.37134 0.69185 0.62342 0.0
C2445 C 0.38679 0.67462 0.62212 0.0
C2446 C 0.39567 0.66651 0.64327 0.0
C2447 C 0.08438 0.64441 0.36762 0.0
C2448 C 0.09636 0.649 0.34738 0.0
C2449 C 0.09214 0.65271 0.38862 0.0
C2450 C 0.11201 0.66603 0.39005 0.0
H2451 H 0.06982 0.63305 0.3675 0.0
H2452 H 0.08317 0.64759 0.40393 0.0
S2453 S 0.14691 0.68643 0.34134 0.0
N2454 N 0.12715 0.67021 0.32958 0.0
N2455 N 0.14161 0.68611 0.36898 0.0
C2456 C 0.12289 0.67248 0.36966 0.0
C2457 C 0.11509 0.66387 0.34832 0.0
C2458 C 0.4213 0.35702 0.87172 0.0
C2459 C 0.41229 0.3493 0.85087 0.0
C2460 C 0.41366 0.3481 0.89247 0.0
C2461 C 0.3968 0.3311 0.89308 0.0
H2462 H 0.43318 0.37114 0.87218 0.0
H2463 H 0.41989 0.35572 0.9081 0.0
S2464 S 0.37167 0.3015 0.84309 0.0
N2465 N 0.38852 0.32109 0.83196 0.0
N2466 N 0.37423 0.30415 0.87099 0.0
C2467 C 0.38952 0.32151 0.87232 0.0
C2468 C 0.39725 0.33067 0.85117 0.0
C2469 C 0.87242 0.88837 0.67621 0.0
C2470 C 0.89357 0.89669 0.66858 0.0
C2471 C 0.85196 0.89723 0.66773 0.0
C2472 C 0.85195 0.91481 0.65144 0.0
H2473 H 0.8716 0.87382 0.68755 0.0
H2474 H 0.83615 0.88919 0.67287 0.0
S2475 S 0.90272 0.9459 0.62997 0.0
N2476 N 0.91324 0.92591 0.64676 0.0
N2477 N 0.87477 0.94278 0.63095 0.0
C2478 C 0.87291 0.92491 0.64558 0.0
C2479 C 0.89376 0.91578 0.65412 0.0
C2480 C 0.83029 0.12023 0.39009 0.0
C2481 C 0.8395 0.09909 0.39673 0.0
C2482 C 0.83911 0.1407 0.39854 0.0
C2483 C 0.85744 0.14079 0.41397 0.0
H2484 H 0.81711 0.12111 0.37719 0.0
H2485 H 0.83237 0.15655 0.39187 0.0
S2486 S 0.88451 0.08994 0.44022 0.0
N2487 N 0.86562 0.07939 0.42222 0.0
N2488 N 0.8822 0.11792 0.4382 0.0
C2489 C 0.86534 0.11976 0.42241 0.0
C2490 C 0.85635 0.09887 0.41377 0.0
C2491 C 0.62722 0.08166 0.14045 0.0
C2492 C 0.648 0.0915 0.14729 0.0
C2493 C 0.60646 0.08957 0.14912 0.0
C2494 C 0.60577 0.10745 0.16507 0.0
H2495 H 0.62682 0.06882 0.12718 0.0
H2496 H 0.59084 0.0825 0.14227 0.0
S2497 S 0.65575 0.13564 0.19182 0.0
N2498 N 0.66688 0.11765 0.17325 0.0
N2499 N 0.62787 0.13237 0.1899 0.0
C2500 C 0.62655 0.11588 0.17366 0.0
C2501 C 0.64768 0.10794 0.16466 0.0
C2502 C 0.64495 0.86898 0.9171 0.0
C2503 C 0.65223 0.84831 0.90734 0.0
C2504 C 0.65209 0.88995 0.90829 0.0
C2505 C 0.66683 0.89101 0.88943 0.0
H2506 H 0.63253 0.86907 0.93078 0.0
H2507 H 0.64498 0.90537 0.91554 0.0
S2508 S 0.69426 0.84181 0.86054 0.0
N2509 N 0.67753 0.83017 0.87994 0.0
N2510 N 0.69107 0.86963 0.86339 0.0
C2511 C 0.6759 0.8705 0.88088 0.0
C2512 C 0.66858 0.84911 0.88984 0.0
C2513 C 0.87061 0.08185 0.86159 0.0
C2514 C 0.84936 0.08925 0.85331 0.0
C2515 C 0.89093 0.09062 0.85281 0.0
C2516 C 0.89075 0.10703 0.83535 0.0
H2517 H 0.87161 0.07025 0.87592 0.0
H2518 H 0.90681 0.08541 0.86066 0.0
S2519 S 0.83973 0.12866 0.80479 0.0
N2520 N 0.82941 0.11142 0.82449 0.0
N2521 N 0.8677 0.12787 0.80783 0.0
C2522 C 0.86972 0.11294 0.82543 0.0
C2523 C 0.84898 0.10405 0.83447 0.0
C2524 C 0.63061 0.1252 0.5777 0.0
C2525 C 0.64046 0.1462 0.58381 0.0
C2526 C 0.63875 0.10469 0.58677 0.0
C2527 C 0.65714 0.10443 0.60213 0.0
H2528 H 0.61559 0.12463 0.56697 0.0
H2529 H 0.62976 0.0891 0.58264 0.0
S2530 S 0.69152 0.15443 0.62016 0.0
N2531 N 0.67146 0.16525 0.60365 0.0
N2532 N 0.68696 0.12666 0.62056 0.0
C2533 C 0.66846 0.1251 0.6067 0.0
C2534 C 0.66005 0.14602 0.59757 0.0
C2535 C 0.62573 0.91602 0.3642 0.0
C2536 C 0.64688 0.90862 0.35561 0.0
C2537 C 0.60522 0.90741 0.35557 0.0
C2538 C 0.6051 0.89112 0.338 0.0
H2539 H 0.62496 0.92763 0.37854 0.0
H2540 H 0.58944 0.91271 0.36357 0.0
S2541 S 0.65573 0.86915 0.30698 0.0
N2542 N 0.66636 0.88627 0.32663 0.0
N2543 N 0.62781 0.87014 0.31029 0.0
C2544 C 0.62604 0.88499 0.32799 0.0
C2545 C 0.64695 0.89374 0.33683 0.0
C2546 C 0.83585 0.85377 0.10476 0.0
C2547 C 0.85204 0.85357 0.08712 0.0
C2548 C 0.827 0.87431 0.11306 0.0
C2549 C 0.83425 0.89539 0.1042 0.0
H2550 H 0.8309 0.83806 0.11311 0.0
H2551 H 0.81563 0.87365 0.1276 0.0
S2552 S 0.8731 0.90397 0.05512 0.0
N2553 N 0.87244 0.87607 0.0588 0.0
N2554 N 0.85604 0.91471 0.07475 0.0
C2555 C 0.84885 0.89534 0.08523 0.0
C2556 C 0.85769 0.87439 0.07659 0.0
C2557 C 0.92054 0.63647 0.87464 0.0
C2558 C 0.91326 0.64495 0.85342 0.0
C2559 C 0.91183 0.64526 0.89503 0.0
C2560 C 0.89559 0.66291 0.89492 0.0
H2561 H 0.93186 0.62191 0.87555 0.0
H2562 H 0.91677 0.63715 0.91087 0.0
S2563 S 0.87479 0.69428 0.84403 0.0
N2564 N 0.89171 0.67433 0.83362 0.0
N2565 N 0.8754 0.691 0.87198 0.0
C2566 C 0.88999 0.6731 0.87393 0.0
C2567 C 0.89881 0.66407 0.85315 0.0
C2568 C 0.39125 0.8284 0.1222 0.0
C2569 C 0.39744 0.83713 0.10074 0.0
C2570 C 0.40001 0.83784 0.14227 0.0
C2571 C 0.4155 0.85608 0.14157 0.0
H2572 H 0.37828 0.81534 0.12364 0.0
H2573 H 0.39363 0.83159 0.15844 0.0
S2574 S 0.44044 0.88203 0.08952 0.0
N2575 N 0.42229 0.86283 0.07983 0.0
N2576 N 0.43916 0.88034 0.11758 0.0
C2577 C 0.42356 0.86341 0.12019 0.0
C2578 C 0.4144 0.85398 0.09974 0.0
C2579 C 0.0858 0.14519 0.60186 0.0
C2580 C 0.10202 0.16282 0.60172 0.0
C2581 C 0.07688 0.13692 0.62236 0.0
C2582 C 0.08395 0.14592 0.64345 0.0
H2583 H 0.08102 0.1367 0.58617 0.0
H2584 H 0.06556 0.12235 0.62168 0.0
S2585 S 0.12227 0.19545 0.65205 0.0
N2586 N 0.12194 0.19149 0.62419 0.0
N2587 N 0.10528 0.17575 0.66277 0.0
C2588 C 0.09839 0.16501 0.64342 0.0
C2589 C 0.10741 0.17353 0.62252 0.0
C2590 C 0.08437 0.85783 0.89836 0.0
C2591 C 0.09948 0.83923 0.89822 0.0
C2592 C 0.07534 0.86643 0.87803 0.0
C2593 C 0.08121 0.85679 0.85686 0.0
H2594 H 0.0807 0.86683 0.91407 0.0
H2595 H 0.06506 0.88176 0.87886 0.0
S2596 S 0.11584 0.80467 0.84776 0.0
N2597 N 0.11668 0.80898 0.87556 0.0
N2598 N 0.09984 0.82534 0.8373 0.0
C2599 C 0.0943 0.83674 0.85671 0.0
C2600 C 0.10342 0.82789 0.87743 0.0
C2601 C 0.57583 0.36034 0.37166 0.0
C2602 C 0.58437 0.35245 0.35068 0.0
C2603 C 0.58463 0.35227 0.39231 0.0
C2604 C 0.60217 0.33594 0.39268 0.0
H2605 H 0.56349 0.37408 0.37222 0.0
H2606 H 0.57867 0.36001 0.40799 0.0
S2607 S 0.62658 0.30609 0.34246 0.0
N2608 N 0.60853 0.32473 0.33154 0.0
N2609 N 0.62496 0.30934 0.37037 0.0
C2610 C 0.60904 0.32612 0.37188 0.0
C2611 C 0.60015 0.33444 0.35085 0.0
C2612 C 0.88215 0.33108 0.62523 0.0
C2613 C 0.89293 0.33572 0.60433 0.0
C2614 C 0.89033 0.34038 0.6456 0.0
C2615 C 0.90965 0.35453 0.64582 0.0
H2616 H 0.86649 0.32133 0.62577 0.0
H2617 H 0.88071 0.33738 0.66108 0.0
S2618 S 0.94643 0.36841 0.59622 0.0
N2619 N 0.92563 0.35282 0.58545 0.0
N2620 N 0.94116 0.37019 0.62381 0.0
C2621 C 0.92176 0.35763 0.62534 0.0
C2622 C 0.91334 0.34824 0.60455 0.0
C2623 C 0.58898 0.64597 0.10356 0.0
C2624 C 0.60661 0.66219 0.10335 0.0
C2625 C 0.57985 0.63804 0.12411 0.0
C2626 C 0.58816 0.64589 0.1452 0.0
H2627 H 0.58315 0.63827 0.08782 0.0
H2628 H 0.56734 0.62448 0.12339 0.0
S2629 S 0.63086 0.69169 0.15385 0.0
N2630 N 0.62949 0.68848 0.12593 0.0
N2631 N 0.61246 0.67331 0.16458 0.0
C2632 C 0.60416 0.66372 0.14519 0.0
C2633 C 0.61335 0.67195 0.12423 0.0
C2634 C 0.6443 0.59673 0.83487 0.0
C2635 C 0.64488 0.5796 0.85161 0.0
C2636 C 0.62356 0.60491 0.82639 0.0
C2637 C 0.60268 0.59637 0.83452 0.0
H2638 H 0.65988 0.60493 0.82931 0.0
H2639 H 0.62394 0.61918 0.81468 0.0
S2640 S 0.59502 0.54819 0.8747 0.0
N2641 N 0.62289 0.5518 0.87323 0.0
N2642 N 0.58388 0.56744 0.85746 0.0
C2643 C 0.60307 0.5777 0.84951 0.0
C2644 C 0.62421 0.56923 0.85802 0.0
C2645 C 0.67348 0.3742 0.10977 0.0
C2646 C 0.66666 0.39538 0.10078 0.0
C2647 C 0.66428 0.35381 0.10149 0.0
C2648 C 0.6481 0.35389 0.08381 0.0
H2649 H 0.68465 0.37337 0.12445 0.0
H2650 H 0.66874 0.33807 0.11006 0.0
S2651 S 0.62872 0.40449 0.05106 0.0
N2652 N 0.64579 0.41498 0.07083 0.0
N2653 N 0.62867 0.37661 0.05499 0.0
C2654 C 0.64316 0.37473 0.07297 0.0
C2655 C 0.6524 0.39553 0.08155 0.0
C2656 C 0.8554 0.3972 0.33535 0.0
C2657 C 0.85541 0.41475 0.35167 0.0
C2658 C 0.87586 0.388 0.32725 0.0
C2659 C 0.897 0.39593 0.33534 0.0
H2660 H 0.83956 0.38937 0.33 0.0
H2661 H 0.87499 0.37339 0.31598 0.0
S2662 S 0.9063 0.44515 0.37388 0.0
N2663 N 0.87832 0.44251 0.3724 0.0
N2664 N 0.91678 0.42491 0.35735 0.0
C2665 C 0.89726 0.4151 0.34967 0.0
C2666 C 0.87642 0.42461 0.35779 0.0
C2667 C 0.8614 0.6244 0.57604 0.0
C2668 C 0.85193 0.64504 0.58381 0.0
C2669 C 0.85311 0.60341 0.58375 0.0
C2670 C 0.83494 0.60233 0.59933 0.0
H2671 H 0.87649 0.62442 0.5654 0.0
H2672 H 0.86211 0.58806 0.57877 0.0
S2673 S 0.80075 0.65133 0.62031 0.0
N2674 N 0.82096 0.66303 0.60462 0.0
N2675 N 0.80507 0.62355 0.6189 0.0
C2676 C 0.82358 0.62272 0.60499 0.0
C2677 C 0.83219 0.64412 0.5973 0.0
C2678 C 0.60563 0.4163 0.6518 0.0
C2679 C 0.60511 0.398 0.66725 0.0
C2680 C 0.6263 0.4245 0.64321 0.0
C2681 C 0.64716 0.41453 0.64964 0.0
H2682 H 0.58994 0.42331 0.64503 0.0
H2683 H 0.62573 0.4375 0.63011 0.0
S2684 S 0.65532 0.36979 0.69353 0.0
N2685 N 0.62741 0.37292 0.69171 0.0
N2686 N 0.66629 0.38819 0.67528 0.0
C2687 C 0.64701 0.39798 0.66694 0.0
C2688 C 0.62595 0.38974 0.67585 0.0
C2689 C 0.84241 0.35525 0.90083 0.0
C2690 C 0.8611 0.35637 0.91578 0.0
C2691 C 0.83285 0.37506 0.89161 0.0
C2692 C 0.84184 0.3967 0.89676 0.0
H2693 H 0.83592 0.3389 0.89519 0.0
H2694 H 0.81938 0.37322 0.87912 0.0
S2695 S 0.88811 0.40913 0.93799 0.0
N2696 N 0.88621 0.38105 0.93777 0.0
N2697 N 0.86841 0.4183 0.92009 0.0
C2698 C 0.85919 0.39819 0.9132 0.0
C2699 C 0.86878 0.378 0.92282 0.0
C2700 C 0.89986 0.58589 0.14487 0.0
C2701 C 0.89992 0.60166 0.16292 0.0
C2702 C 0.8795 0.57634 0.13699 0.0
C2703 C 0.85844 0.5824 0.14674 0.0
H2704 H 0.91545 0.58203 0.13576 0.0
H2705 H 0.8802 0.56548 0.12207 0.0
S2706 S 0.84988 0.61922 0.19744 0.0
N2707 N 0.87761 0.62002 0.19272 0.0
N2708 N 0.83924 0.60221 0.17769 0.0
C2709 C 0.85851 0.59625 0.1663 0.0
C2710 C 0.87931 0.60585 0.17447 0.0
C2711 C 0.64132 0.62395 0.42351 0.0
C2712 C 0.64714 0.6451 0.41381 0.0
C2713 C 0.65019 0.60358 0.41482 0.0
C2714 C 0.6653 0.60367 0.39622 0.0
H2715 H 0.62856 0.62294 0.43682 0.0
H2716 H 0.644 0.58764 0.42179 0.0
S2717 S 0.68975 0.65487 0.36817 0.0
N2718 N 0.67168 0.66516 0.38713 0.0
N2719 N 0.68861 0.62688 0.3709 0.0
C2720 C 0.67312 0.62482 0.38801 0.0
C2721 C 0.66396 0.64556 0.39678 0.0
C2722 C 0.57345 0.85924 0.62402 0.0
C2723 C 0.58192 0.85307 0.64559 0.0
C2724 C 0.58233 0.84952 0.6041 0.0
C2725 C 0.5998 0.83313 0.60509 0.0
H2726 H 0.56118 0.87295 0.62234 0.0
H2727 H 0.57653 0.85605 0.58783 0.0
S2728 S 0.62403 0.80751 0.65769 0.0
N2729 N 0.60599 0.82702 0.66699 0.0
N2730 N 0.62245 0.80839 0.6296 0.0
C2731 C 0.60653 0.82498 0.62666 0.0
C2732 C 0.59766 0.83508 0.64692 0.0
C2733 C 0.36665 0.42133 0.14243 0.0
C2734 C 0.34659 0.41052 0.14994 0.0
C2735 C 0.38804 0.4144 0.15041 0.0
C2736 C 0.39008 0.39661 0.16633 0.0
H2737 H 0.36605 0.43386 0.12888 0.0
H2738 H 0.40309 0.42193 0.14281 0.0
S2739 S 0.34236 0.36695 0.19549 0.0
N2740 N 0.3298 0.38417 0.17711 0.0
N2741 N 0.36999 0.37136 0.19248 0.0
C2742 C 0.37001 0.38767 0.17602 0.0
C2743 C 0.34823 0.39459 0.16771 0.0
C2744 C 0.35755 0.62379 0.92315 0.0
C2745 C 0.35079 0.64505 0.91433 0.0
C2746 C 0.34891 0.60347 0.91412 0.0
C2747 C 0.33309 0.60376 0.89613 0.0
H2748 H 0.37094 0.6227 0.93582 0.0
H2749 H 0.35588 0.58749 0.92024 0.0
S2750 S 0.30597 0.65516 0.87096 0.0
N2751 N 0.32456 0.66531 0.88948 0.0
N2752 N 0.30799 0.62713 0.87268 0.0
C2753 C 0.32425 0.62494 0.88905 0.0
C2754 C 0.33321 0.64562 0.89811 0.0
C2755 C 0.12476 0.57658 0.63875 0.0
C2756 C 0.14604 0.58549 0.6453 0.0
C2757 C 0.10452 0.5848 0.64837 0.0
C2758 C 0.10488 0.6021 0.66496 0.0
H2759 H 0.12353 0.56439 0.62494 0.0
H2760 H 0.08849 0.57861 0.64162 0.0
S2761 S 0.1565 0.62728 0.69157 0.0
N2762 N 0.1665 0.60974 0.67195 0.0
N2763 N 0.12848 0.62506 0.69026 0.0
C2764 C 0.12616 0.60933 0.6734 0.0
C2765 C 0.14676 0.60105 0.66349 0.0
C2766 C 0.17358 0.37793 0.38866 0.0
C2767 C 0.16471 0.39892 0.39616 0.0
C2768 C 0.16518 0.3573 0.39721 0.0
C2769 C 0.14788 0.35697 0.41377 0.0
H2770 H 0.18576 0.37731 0.37479 0.0
H2771 H 0.17133 0.34155 0.38976 0.0
S2772 S 0.12263 0.40744 0.4425 0.0
N2773 N 0.14033 0.41826 0.42349 0.0
N2774 N 0.12483 0.37948 0.43999 0.0
C2775 C 0.1407 0.37786 0.42319 0.0
C2776 C 0.14905 0.39887 0.41425 0.0
C2777 C 0.37238 0.57582 0.35637 0.0
C2778 C 0.35163 0.5868 0.35144 0.0
C2779 C 0.39295 0.58384 0.34736 0.0
C2780 C 0.39346 0.60293 0.33289 0.0
H2781 H 0.37304 0.56204 0.36864 0.0
H2782 H 0.40867 0.57592 0.35297 0.0
S2783 S 0.3432 0.63455 0.3109 0.0
N2784 N 0.33238 0.61541 0.32846 0.0
N2785 N 0.37102 0.63031 0.31116 0.0
C2786 C 0.37257 0.61245 0.32585 0.0
C2787 C 0.35163 0.60443 0.33525 0.0
C2788 C 0.16646 0.6202 0.10899 0.0
C2789 C 0.15717 0.59945 0.10134 0.0
C2790 C 0.15812 0.64111 0.101 0.0
C2791 C 0.14049 0.642 0.08479 0.0
H2792 H 0.17922 0.62036 0.12234 0.0
H2793 H 0.16487 0.65667 0.10831 0.0
S2794 S 0.11281 0.59233 0.05693 0.0
N2795 N 0.13108 0.58095 0.07507 0.0
N2796 N 0.11574 0.6202 0.05956 0.0
C2797 C 0.13235 0.62133 0.07567 0.0
C2798 C 0.1406 0.60005 0.0841 0.0
C2799 C 0.14701 0.39656 0.83843 0.0
C2800 C 0.14644 0.41285 0.85602 0.0
C2801 C 0.12686 0.38756 0.82939 0.0
C2802 C 0.10546 0.39443 0.83774 0.0
H2803 H 0.1631 0.38972 0.83249 0.0
H2804 H 0.12815 0.37407 0.81684 0.0
S2805 S 0.09459 0.43972 0.88049 0.0
N2806 N 0.12264 0.43793 0.87904 0.0
N2807 N 0.08478 0.42076 0.86216 0.0
C2808 C 0.10461 0.41212 0.85385 0.0
C2809 C 0.12512 0.42142 0.86295 0.0
C2810 C 0.32869 0.37567 0.60739 0.0
C2811 C 0.33646 0.39667 0.59879 0.0
C2812 C 0.33792 0.35506 0.59973 0.0
C2813 C 0.35506 0.35468 0.58301 0.0
H2814 H 0.31655 0.37512 0.62129 0.0
H2815 H 0.3325 0.33943 0.60794 0.0
S2816 S 0.37798 0.40472 0.5518 0.0
N2817 N 0.35985 0.41568 0.57034 0.0
N2818 N 0.37705 0.37685 0.55569 0.0
C2819 C 0.36129 0.37538 0.5726 0.0
C2820 C 0.35202 0.39642 0.58057 0.0
C2821 C 0.4209 0.13223 0.37621 0.0
C2822 C 0.41491 0.14276 0.3555 0.0
C2823 C 0.41279 0.14057 0.39702 0.0
C2824 C 0.39844 0.15975 0.39785 0.0
H2825 H 0.43068 0.11656 0.3763 0.0
H2826 H 0.41657 0.131 0.41235 0.0
S2827 S 0.38195 0.19634 0.34892 0.0
N2828 N 0.3969 0.17544 0.33741 0.0
N2829 N 0.38169 0.19122 0.37659 0.0
C2830 C 0.39429 0.17179 0.37752 0.0
C2831 C 0.40252 0.16325 0.3563 0.0
C2832 C 0.01222 0.11346 0.26108 0.0
C2833 C 0.01829 0.13647 0.26429 0.0
C2834 C 0.99572 0.10713 0.24499 0.0
C2835 C 0.9844 0.12365 0.23184 0.0
H2836 H 0.01958 0.1003 0.27175 0.0
H2837 H 0.99078 0.08937 0.24394 0.0
S2838 S 0.99597 0.18584 0.2317 0.0
N2839 N 0.01335 0.17552 0.25129 0.0
N2840 N 0.98199 0.16369 0.22138 0.0
C2841 C 0.99134 0.14653 0.23383 0.0
C2842 C 0.00841 0.15293 0.24996 0.0
C2843 C 0.10648 0.73983 0.4885 0.0
C2844 C 0.12943 0.73487 0.48343 0.0
C2845 C 0.10068 0.75622 0.50492 0.0
C2846 C 0.11765 0.76806 0.51698 0.0
H2847 H 0.09287 0.73016 0.48061 0.0
H2848 H 0.08287 0.75849 0.50923 0.0
S2849 S 0.18004 0.76427 0.50743 0.0
N2850 N 0.16906 0.74537 0.4897 0.0
N2851 N 0.15815 0.77595 0.52071 0.0
C2852 C 0.14054 0.7646 0.5108 0.0
C2853 C 0.14645 0.74806 0.49396 0.0
C2854 C 0.49936 0.877 0.73477 0.0
C2855 C 0.52133 0.88523 0.73961 0.0
C2856 C 0.48411 0.87173 0.75256 0.0
C2857 C 0.49024 0.87528 0.7755 0.0
H2858 H 0.49427 0.87393 0.71729 0.0
H2859 H 0.46749 0.86486 0.74838 0.0
S2860 S 0.54582 0.89694 0.79664 0.0
N2861 N 0.54847 0.8967 0.76863 0.0
N2862 N 0.51978 0.88767 0.80187 0.0
C2863 C 0.51202 0.88405 0.78032 0.0
C2864 C 0.52758 0.88882 0.76239 0.0
C2865 C 0.39243 0.25833 0.98891 0.0
C2866 C 0.3699 0.26393 0.98282 0.0
C2867 C 0.39701 0.24207 0.00582 0.0
C2868 C 0.37919 0.23108 0.01744 0.0
H2869 H 0.40666 0.26737 0.98138 0.0
H2870 H 0.41456 0.23926 0.01083 0.0
S2871 S 0.31736 0.23712 0.00563 0.0
N2872 N 0.32969 0.25516 0.98789 0.0
N2873 N 0.3383 0.22486 0.01989 0.0
C2874 C 0.35668 0.23526 0.01035 0.0
C2875 C 0.35202 0.25161 0.99295 0.0
C2876 C 0.98367 0.85032 0.25546 0.0
C2877 C 0.97874 0.87305 0.2615 0.0
C2878 C -0.0003 0.84518 0.23847 0.0
C2879 C 0.01109 0.86261 0.22664 0.0
H2880 H 0.97449 0.83638 0.26335 0.0
H2881 H 0.00229 0.8275 0.23379 0.0
S2882 S 0.00618 0.92477 0.23758 0.0
N2883 N 0.98809 0.91302 0.25565 0.0
N2884 N 0.01791 0.90339 0.2235 0.0
C2885 C 0.00724 0.88533 0.23334 0.0
C2886 C 0.99116 0.89055 0.25085 0.0
C2887 C 0.39075 0.757 0.48987 0.0
C2888 C 0.37314 0.7673 0.47731 0.0
C2889 C 0.38602 0.74014 0.50614 0.0
C2890 C 0.3635 0.73312 0.5106 0.0
H2891 H 0.4084 0.7609 0.48612 0.0
H2892 H 0.40023 0.73181 0.51448 0.0
S2893 S 0.3111 0.75757 0.48492 0.0
N2894 N 0.33218 0.77129 0.47231 0.0
N2895 N 0.32327 0.73979 0.50304 0.0
C2896 C 0.34564 0.74464 0.4995 0.0
C2897 C 0.35048 0.76167 0.48279 0.0
C2898 C 0.49281 0.14255 0.74539 0.0
C2899 C 0.48256 0.12576 0.73172 0.0
C2900 C 0.50979 0.13683 0.76119 0.0
C2901 C 0.51677 0.11408 0.76424 0.0
H2902 H 0.48871 0.1604 0.74294 0.0
H2903 H 0.51806 0.15045 0.77054 0.0
S2904 S 0.49321 0.06346 0.73462 0.0
N2905 N 0.4792 0.08524 0.72356 0.0
N2906 N 0.51074 0.07445 0.75371 0.0
C2907 C 0.50552 0.09695 0.75185 0.0
C2908 C 0.48851 0.10282 0.73545 0.0
C2909 C 0.09041 0.25904 0.9778 0.0
C2910 C 0.10023 0.23719 0.97702 0.0
C2911 C 0.09704 0.27497 0.9943 0.0
C2912 C 0.11377 0.26971 0.0107 0.0
H2913 H 0.07822 0.2643 0.96496 0.0
H2914 H 0.08962 0.29187 0.99355 0.0
S2915 S 0.14236 0.21377 0.01805 0.0
N2916 N 0.12579 0.21027 0.99556 0.0
N2917 N 0.13827 0.24029 0.02658 0.0
C2918 C 0.1227 0.24747 0.01101 0.0
C2919 C 0.11592 0.2312 0.99417 0.0
C2920 C 0.26749 0.00339 0.11096 0.0
C2921 C 0.27228 0.01038 0.13342 0.0
C2922 C 0.25092 0.98678 0.10639 0.0
C2923 C 0.23882 0.97625 0.12417 0.0
H2924 H 0.27708 0.01032 0.09678 0.0
H2925 H 0.24843 0.98135 0.08892 0.0
S2926 S 0.24339 0.98993 0.18579 0.0
N2927 N 0.26226 0.00679 0.17347 0.0
N2928 N 0.23143 0.97525 0.16496 0.0
C2929 C 0.24265 0.98385 0.14662 0.0
C2930 C 0.25929 0.00102 0.15123 0.0
C2931 C 0.24219 0.00389 0.38858 0.0
C2932 C 0.23051 0.01634 0.37177 0.0
C2933 C 0.25796 0.98694 0.38258 0.0
C2934 C 0.26228 0.98154 0.3596 0.0
H2935 H 0.2403 0.00825 0.40643 0.0
H2936 H 0.26757 0.97873 0.39604 0.0
S2937 S 0.23359 0.00692 0.3093 0.0
N2938 N 0.22253 0.02054 0.33131 0.0
N2939 N 0.25183 0.98837 0.32008 0.0
C2940 C 0.24934 0.99257 0.34272 0.0
C2941 C 0.23355 0.01009 0.34881 0.0
C2942 C 0.24167 0.99293 0.64966 0.0
C2943 C 0.23104 0.98079 0.63196 0.0
C2944 C 0.25816 0.00958 0.64495 0.0
C2945 C 0.26485 0.01441 0.62241 0.0
H2946 H 0.23615 0.99069 0.66714 0.0
H2947 H 0.26491 0.01947 0.65901 0.0
S2948 S 0.24472 0.98464 0.57035 0.0
N2949 N 0.23016 0.9728 0.59131 0.0
N2950 N 0.26143 0.00377 0.58247 0.0
C2951 C 0.25574 0.001 0.60475 0.0
C2952 C 0.23873 0.98428 0.60953 0.0
C2953 C 0.23884 0.01468 0.89074 0.0
C2954 C 0.23334 0.02006 0.868 0.0
C2955 C 0.25525 0.9981 0.89593 0.0
C2956 C 0.2666 0.98606 0.87858 0.0
H2957 H 0.22963 0.02255 0.90468 0.0
H2958 H 0.25798 0.99373 0.91366 0.0
S2959 S 0.26072 0.99592 0.81635 0.0
N2960 N 0.2424 0.01382 0.82804 0.0
N2961 N 0.27306 0.98246 0.83778 0.0
C2962 C 0.26248 0.99244 0.85581 0.0
C2963 C 0.2459 0.00951 0.85053 0.0
C2964 C 0.62332 0.2368 0.03193 0.0
C2965 C 0.61899 0.25929 0.02488 0.0
C2966 C 0.62716 0.21945 0.01609 0.0
C2967 C 0.62753 0.22405 0.99262 0.0
H2968 H 0.62321 0.23244 0.04989 0.0
H2969 H 0.62999 0.20227 0.02229 0.0
S2970 S 0.61767 0.28014 0.96531 0.0
N2971 N 0.61514 0.28532 0.99291 0.0
N2972 N 0.6235 0.25265 0.96293 0.0
C2973 C 0.62369 0.24651 0.98525 0.0
C2974 C 0.61906 0.26417 0.00145 0.0
C2975 C 0.00621 0.39327 0.24958 0.0
C2976 C 0.0177 0.37628 0.23719 0.0
C2977 C 0.99061 0.38755 0.2667 0.0
C2978 C 0.98564 0.36465 0.27187 0.0
H2979 H 0.0102 0.41111 0.24694 0.0
H2980 H 0.98298 0.40122 0.27652 0.0
S2981 S 0.0089 0.31378 0.24242 0.0
N2982 N 0.02145 0.33559 0.2298 0.0
N2983 N 0.99185 0.32493 0.26185 0.0
C2984 C 0.99574 0.34752 0.25853 0.0
C2985 C 0.01186 0.35332 0.24123 0.0
C2986 C 0.8571 0.75918 0.49941 0.0
C2987 C 0.87487 0.77122 0.4888 0.0
C2988 C 0.86165 0.74289 0.51627 0.0
C2989 C 0.88414 0.73774 0.52288 0.0
H2990 H 0.83949 0.76327 0.49564 0.0
H2991 H 0.84736 0.73484 0.52476 0.0
S2992 S 0.93682 0.76241 0.49817 0.0
N2993 N 0.9159 0.77547 0.48459 0.0
N2994 N 0.92444 0.7445 0.51601 0.0
C2995 C 0.90212 0.74849 0.51127 0.0
C2996 C 0.89748 0.76534 0.49431 0.0
C2997 C 0.99358 0.63135 0.24077 0.0
C2998 C 0.99848 0.6323 0.2173 0.0
C2999 C 0.01052 0.62527 0.25666 0.0
C3000 C 0.03296 0.6206 0.24956 0.0
H3001 H 0.97651 0.63497 0.24681 0.0
H3002 H 0.00615 0.62463 0.27459 0.0
S3003 S 0.05453 0.62125 0.19007 0.0
N3004 N 0.02735 0.62815 0.18784 0.0
N3005 N 0.0591 0.61735 0.21754 0.0
C3006 C 0.03802 0.62173 0.22616 0.0
C3007 C 0.0208 0.62743 0.21007 0.0
C3008 C 0.49044 0.39472 0.75313 0.0
C3009 C 0.47829 0.37691 0.76354 0.0
C3010 C 0.50699 0.3902 0.73652 0.0
C3011 C 0.51227 0.36771 0.72998 0.0
H3012 H 0.48619 0.41233 0.75678 0.0
H3013 H 0.51506 0.40451 0.72808 0.0
S3014 S 0.48759 0.31496 0.75455 0.0
N3015 N 0.47424 0.33586 0.76788 0.0
N3016 N 0.50567 0.32738 0.73692 0.0
C3017 C 0.50151 0.3497 0.74154 0.0
C3018 C 0.48441 0.35431 0.75824 0.0
C3019 C 0.99025 0.85709 0.74935 0.0
C3020 C 0.98034 0.87404 0.73561 0.0
C3021 C 0.0068 0.86264 0.76568 0.0
C3022 C 0.01376 0.88536 0.76913 0.0
H3023 H 0.98632 0.83927 0.74651 0.0
H3024 H 0.01494 0.84889 0.77494 0.0
S3025 S 0.99052 0.93635 0.73982 0.0
N3026 N 0.97686 0.91468 0.72814 0.0
N3027 N 0.0077 0.92512 0.75908 0.0
C3028 C 0.00263 0.90263 0.75679 0.0
C3029 C 0.98599 0.89695 0.73994 0.0
C3030 C 0.85336 0.25158 0.50608 0.0
C3031 C 0.87079 0.26342 0.51747 0.0
C3032 C 0.85849 0.23491 0.48975 0.0
C3033 C 0.88121 0.22936 0.48436 0.0
H3034 H 0.83568 0.25627 0.5086 0.0
H3035 H 0.84453 0.2273 0.48036 0.0
S3036 S 0.93289 0.25239 0.51264 0.0
N3037 N 0.91152 0.26623 0.52465 0.0
N3038 N 0.92116 0.23476 0.49409 0.0
C3039 C 0.8987 0.23951 0.49723 0.0
C3040 C 0.89348 0.25661 0.51374 0.0
C3041 C 0.4898 0.1399 0.26294 0.0
C3042 C 0.48348 0.1172 0.26754 0.0
C3043 C 0.50653 0.14502 0.2467 0.0
C3044 C 0.51736 0.12762 0.23429 0.0
H3045 H 0.48089 0.15391 0.27104 0.0
H3046 H 0.50979 0.16276 0.24276 0.0
S3047 S 0.50978 0.06535 0.24258 0.0
N3048 N 0.49156 0.07712 0.26052 0.0
N3049 N 0.52284 0.08675 0.22979 0.0
C3050 C 0.51261 0.10483 0.24008 0.0
C3051 C 0.49571 0.09961 0.25679 0.0
C3052 C 0.61749 0.73343 0.00806 0.0
C3053 C 0.63994 0.72601 0.01214 0.0
C3054 C 0.61274 0.75017 0.9917 0.0
C3055 C 0.63025 0.75988 0.97855 0.0
H3056 H 0.60332 0.7256 0.01694 0.0
H3057 H 0.59509 0.7545 0.98844 0.0
S3058 S 0.69219 0.7484 0.98453 0.0
N3059 N 0.68007 0.73131 0.00332 0.0
N3060 N 0.67116 0.76255 0.97228 0.0
C3061 C 0.65292 0.75369 0.98347 0.0
C3062 C 0.65777 0.73682 0.00036 0.0
C3063 C 0.98501 0.111 0.7576 0.0
C3064 C 0.98045 0.13379 0.7637 0.0
C3065 C 0.00146 0.10563 0.74114 0.0
C3066 C 0.01412 0.12285 0.73033 0.0
H3067 H 0.97662 0.09711 0.76642 0.0
H3068 H 0.00529 0.08783 0.73797 0.0
S3069 S 0.00622 0.18523 0.73745 0.0
N3070 N 0.98795 0.17374 0.7555 0.0
N3071 N 0.01904 0.16364 0.72473 0.0
C3072 C 0.0085 0.14571 0.73495 0.0
C3073 C 0.9916 0.1512 0.75158 0.0
C3074 C 0.60018 0.24625 0.50211 0.0
C3075 C 0.61746 0.23415 0.51346 0.0
C3076 C 0.60551 0.26322 0.48616 0.0
C3077 C 0.62829 0.26852 0.4808 0.0
H3078 H 0.58246 0.2437 0.50665 0.0
H3079 H 0.59166 0.273 0.47884 0.0
S3080 S 0.67965 0.23902 0.50302 0.0
N3081 N 0.65813 0.22663 0.51626 0.0
N3082 N 0.66814 0.25832 0.48607 0.0
C3083 C 0.64564 0.25517 0.49057 0.0
C3084 C 0.64022 0.23804 0.50698 0.0
C3085 C 0.51147 0.89395 0.26174 0.0
C3086 C 0.51867 0.87126 0.26488 0.0
C3087 C 0.49568 0.89969 0.24476 0.0
C3088 C 0.48634 0.8829 0.23045 0.0
H3089 H 0.51717 0.90725 0.27323 0.0
H3090 H 0.48967 0.91714 0.24387 0.0
S3091 S 0.5023 0.82167 0.22916 0.0
N3092 N 0.51743 0.83243 0.25031 0.0
N3093 N 0.48758 0.84319 0.21855 0.0
C3094 C 0.49476 0.8605 0.23218 0.0
C3095 C 0.51099 0.85468 0.24936 0.0
C3096 C 0.89768 0.75051 0.00756 0.0
C3097 C 0.88058 0.76428 0.01716 0.0
C3098 C 0.8924 0.73398 0.99114 0.0
C3099 C 0.86986 0.73074 0.98353 0.0
H3100 H 0.91507 0.75157 0.01367 0.0
H3101 H 0.90597 0.72299 0.98512 0.0
S3102 S 0.81944 0.7648 0.00082 0.0
N3103 N 0.84062 0.77535 0.01606 0.0
N3104 N 0.83075 0.7444 0.98505 0.0
C3105 C 0.85291 0.74559 0.99168 0.0
C3106 C 0.85826 0.76232 0.00856 0.0
C3107 C 0.74329 0.99507 0.85176 0.0
C3108 C 0.73231 0.98257 0.86898 0.0
C3109 C 0.759 0.01222 0.85716 0.0
C3110 C 0.76449 0.01733 0.87996 0.0
H3111 H 0.73862 0.99269 0.83405 0.0
H3112 H 0.766 0.02232 0.84338 0.0
S3113 S 0.74343 0.98671 0.93113 0.0
N3114 N 0.73017 0.97439 0.90958 0.0
N3115 N 0.75988 0.00648 0.91972 0.0
C3116 C 0.75518 0.00355 0.89722 0.0
C3117 C 0.73902 0.98621 0.89173 0.0
C3118 C 0.75494 0.98585 0.64562 0.0
C3119 C 0.76301 0.98207 0.62333 0.0
C3120 C 0.73829 0.00239 0.65016 0.0
C3121 C 0.7289 0.01563 0.63254 0.0
H3122 H 0.76079 0.97527 0.65958 0.0
H3123 H 0.73184 0.00386 0.6674 0.0
S3124 S 0.74633 0.0146 0.57171 0.0
N3125 N 0.76206 0.99466 0.58384 0.0
N3126 N 0.73063 0.0256 0.59232 0.0
C3127 C 0.73792 0.01312 0.61043 0.0
C3128 C 0.75503 0.99639 0.60584 0.0
C3129 C 0.73989 0.98591 0.35756 0.0
C3130 C 0.73403 0.98102 0.38032 0.0
C3131 C 0.75633 0.00243 0.35228 0.0
C3132 C 0.76772 0.01445 0.3696 0.0
H3133 H 0.73258 0.9761 0.34372 0.0
H3134 H 0.76122 0.00466 0.33461 0.0
S3135 S 0.75625 0.01057 0.43167 0.0
N3136 N 0.73898 0.99157 0.42013 0.0
N3137 N 0.77011 0.02235 0.41021 0.0
C3138 C 0.76081 0.01097 0.39229 0.0
C3139 C 0.74387 0.99434 0.39766 0.0
C3140 C 0.75035 0.01116 0.10078 0.0
C3141 C 0.73637 0.02103 0.11756 0.0
C3142 C 0.76634 0.9943 0.10641 0.0
C3143 C 0.76878 0.98646 0.12898 0.0
H3144 H 0.74977 0.01729 0.08337 0.0
H3145 H 0.77745 0.98796 0.09309 0.0
S3146 S 0.73448 0.00495 0.17878 0.0
N3147 N 0.72467 0.02036 0.15737 0.0
N3148 N 0.75458 0.98856 0.16784 0.0
C3149 C 0.75391 0.99512 0.14563 0.0
C3150 C 0.73775 0.01244 0.13995 0.0
C3151 C 0.3763 0.76094 0.96958 0.0
C3152 C 0.37915 0.73803 0.97592 0.0
C3153 C 0.37168 0.77772 0.9858 0.0
C3154 C 0.36909 0.77217 0.00894 0.0
H3155 H 0.37797 0.76606 0.9519 0.0
H3156 H 0.36972 0.79518 0.98006 0.0
S3157 S 0.37462 0.71459 0.03437 0.0
N3158 N 0.37937 0.71053 0.00688 0.0
N3159 N 0.3696 0.74216 0.03751 0.0
C3160 C 0.37163 0.74929 0.01559 0.0
C3161 C 0.37701 0.73218 0.99903 0.0
C3162 C 0.99517 0.60235 0.7573 0.0
C3163 C 0.9824 0.61987 0.76754 0.0
C3164 C 0.01199 0.60728 0.74107 0.0
C3165 C 0.01689 0.62989 0.73473 0.0
H3166 H 0.99119 0.58465 0.76072 0.0
H3167 H 0.02043 0.59318 0.73262 0.0
S3168 S 0.99062 0.68204 0.75909 0.0
N3169 N 0.97748 0.66081 0.77207 0.0
N3170 N 0.00931 0.67005 0.74178 0.0
C3171 C 0.00557 0.64762 0.74623 0.0
C3172 C 0.98824 0.64261 0.76257 0.0
C3173 C 0.14133 0.26059 0.48892 0.0
C3174 C 0.11877 0.26561 0.4824 0.0
C3175 C 0.14609 0.24361 0.50506 0.0
C3176 C 0.12846 0.23085 0.51506 0.0
H3177 H 0.15553 0.26909 0.48073 0.0
H3178 H 0.16374 0.23954 0.50863 0.0
S3179 S 0.06639 0.23954 0.5064 0.0
N3180 N 0.07855 0.25822 0.48924 0.0
N3181 N 0.0875 0.22614 0.51934 0.0
C3182 C 0.10579 0.2368 0.50993 0.0
C3183 C 0.10094 0.25425 0.49367 0.0
C3184 C 0.98753 0.35795 0.73852 0.0
C3185 C 0.98274 0.38091 0.73339 0.0
C3186 C 0.00484 0.35204 0.75388 0.0
C3187 C 0.01793 0.36888 0.76479 0.0
H3188 H 0.97716 0.34441 0.73143 0.0
H3189 H 0.00704 0.33421 0.7582 0.0
S3190 S 0.01454 0.43128 0.75466 0.0
N3191 N 0.99427 0.42042 0.73844 0.0
N3192 N 0.02675 0.40934 0.76738 0.0
C3193 C 0.01447 0.3918 0.75853 0.0
C3194 C 0.99688 0.39782 0.7428 0.0
C3195 C 0.49091 0.60901 0.2613 0.0
C3196 C 0.48691 0.63154 0.26856 0.0
C3197 C 0.50678 0.60414 0.24411 0.0
C3198 C 0.51952 0.62161 0.23381 0.0
H3199 H 0.48231 0.59489 0.26954 0.0
H3200 H 0.51003 0.58645 0.23987 0.0
S3201 S 0.5137 0.68366 0.24482 0.0
N3202 N 0.49545 0.67166 0.26257 0.0
N3203 N 0.5256 0.66249 0.23056 0.0
C3204 C 0.51474 0.64431 0.23995 0.0
C3205 C 0.49833 0.6493 0.25724 0.0
C3206 C 0.50766 0.60873 0.76047 0.0
C3207 C 0.51239 0.631 0.76809 0.0
C3208 C 0.49175 0.6047 0.74313 0.0
C3209 C 0.47974 0.62277 0.73297 0.0
H3210 H 0.51565 0.59419 0.76858 0.0
H3211 H 0.48789 0.5872 0.73866 0.0
S3212 S 0.48785 0.68442 0.74475 0.0
N3213 N 0.50546 0.6715 0.76252 0.0
N3214 N 0.47528 0.66391 0.73012 0.0
C3215 C 0.48535 0.64521 0.73938 0.0
C3216 C 0.50176 0.64933 0.75689 0.0
C3217 C 0.90303 0.25214 0.99272 0.0
C3218 C 0.88652 0.26581 0.98203 0.0
C3219 C 0.89674 0.23586 0.00907 0.0
C3220 C 0.87383 0.23307 0.01565 0.0
H3221 H 0.9207 0.25305 0.98746 0.0
H3222 H 0.90983 0.22481 0.016 0.0
S3223 S 0.82463 0.26691 0.99481 0.0
N3224 N 0.84667 0.277 0.98051 0.0
N3225 N 0.83493 0.24687 0.01168 0.0
C3226 C 0.85743 0.24782 0.00627 0.0
C3227 C 0.86377 0.26406 0.98931 0.0
C3228 C 0.63123 0.7577 0.47286 0.0
C3229 C 0.62204 0.73624 0.47843 0.0
C3230 C 0.6358 0.77391 0.48969 0.0
C3231 C 0.6319 0.76915 0.51277 0.0
H3232 H 0.63416 0.76238 0.45524 0.0
H3233 H 0.6421 0.79052 0.48456 0.0
S3234 S 0.60954 0.71525 0.53673 0.0
N3235 N 0.60998 0.71083 0.5089 0.0
N3236 N 0.61932 0.74139 0.54072 0.0
C3237 C 0.62355 0.74759 0.51883 0.0
C3238 C 0.61841 0.7311 0.50158 0.0
C3239 C 0.73652 0.49618 0.62665 0.0
C3240 C 0.74162 0.47416 0.61872 0.0
C3241 C 0.75412 0.5117 0.63178 0.0
C3242 C 0.77716 0.50572 0.62857 0.0
H3243 H 0.71897 0.50119 0.62942 0.0
H3244 H 0.74968 0.52846 0.63814 0.0
S3245 S 0.79893 0.44998 0.6078 0.0
N3246 N 0.77095 0.44708 0.60792 0.0
N3247 N 0.80388 0.47619 0.61681 0.0
C3248 C 0.78225 0.48381 0.62025 0.0
C3249 C 0.76448 0.46802 0.61552 0.0
C3250 C 0.74391 0.51352 0.8506 0.0
C3251 C 0.73412 0.51436 0.8725 0.0
C3252 C 0.75996 0.49677 0.84482 0.0
C3253 C 0.76701 0.48038 0.86081 0.0
H3254 H 0.73992 0.52649 0.83808 0.0
H3255 H 0.76788 0.49757 0.82815 0.0
S3256 S 0.74417 0.47306 0.91936 0.0
N3257 N 0.73074 0.4957 0.90937 0.0
N3258 N 0.76108 0.46438 0.89859 0.0
C3259 C 0.75617 0.48002 0.88221 0.0
C3260 C 0.73967 0.49697 0.88804 0.0
C3261 C 0.75737 0.5034 0.10101 0.0
C3262 C 0.77076 0.5125 0.11867 0.0
C3263 C 0.74007 0.4876 0.10564 0.0
C3264 C 0.73577 0.4801 0.12802 0.0
H3265 H 0.75914 0.50968 0.08374 0.0
H3266 H 0.72926 0.48211 0.09171 0.0
S3267 S 0.76874 0.4959 0.17964 0.0
N3268 N 0.78049 0.51087 0.15891 0.0
N3269 N 0.74823 0.48086 0.16757 0.0
C3270 C 0.75041 0.48752 0.1455 0.0
C3271 C 0.76783 0.50384 0.14082 0.0
C3272 C 0.76072 0.48674 0.35742 0.0
C3273 C 0.76766 0.48223 0.37995 0.0
C3274 C 0.74412 0.50325 0.35265 0.0
C3275 C 0.73362 0.51561 0.37029 0.0
H3276 H 0.76737 0.4767 0.34341 0.0
H3277 H 0.73844 0.50522 0.33519 0.0
S3278 S 0.74799 0.51262 0.43181 0.0
N3279 N 0.76464 0.49337 0.41978 0.0
N3280 N 0.73317 0.52416 0.41085 0.0
C3281 C 0.74158 0.51247 0.39269 0.0
C3282 C 0.7587 0.49585 0.39752 0.0
C3283 C 0.51169 0.36266 0.25613 0.0
C3284 C 0.51793 0.38526 0.26127 0.0
C3285 C 0.49466 0.35783 0.24009 0.0
C3286 C 0.48345 0.37543 0.22833 0.0
H3287 H 0.52062 0.3485 0.26393 0.0
H3288 H 0.49123 0.34016 0.23597 0.0
S3289 S 0.49158 0.43755 0.23742 0.0
N3290 N 0.51002 0.42545 0.25491 0.0
N3291 N 0.47822 0.41641 0.22448 0.0
C3292 C 0.48854 0.39813 0.23429 0.0
C3293 C 0.50571 0.40305 0.25086 0.0
C3294 C 0.13972 0.7405 0.00866 0.0
C3295 C 0.11694 0.73529 0.01421 0.0
C3296 C 0.14499 0.75749 0.99269 0.0
C3297 C 0.12767 0.77004 0.98189 0.0
H3298 H 0.15362 0.73218 0.01751 0.0
H3299 H 0.16273 0.76177 0.9899 0.0
S3300 S 0.0654 0.76078 0.98779 0.0
N3301 N 0.07698 0.74226 0.00554 0.0
N3302 N 0.08692 0.77435 0.97578 0.0
C3303 C 0.10488 0.76389 0.98603 0.0
C3304 C 0.0995 0.74645 0.00211 0.0
C3305 C 0.36069 0.25507 0.51493 0.0
C3306 C 0.38343 0.26109 0.51966 0.0
C3307 C 0.3554 0.23875 0.49829 0.0
C3308 C 0.3727 0.22755 0.48608 0.0
H3309 H 0.34686 0.26246 0.52469 0.0
H3310 H 0.33773 0.23394 0.49597 0.0
S3311 S 0.43478 0.23885 0.49023 0.0
N3312 N 0.42324 0.25609 0.50927 0.0
N3313 N 0.41334 0.22503 0.47834 0.0
C3314 C 0.39542 0.2343 0.48973 0.0
C3315 C 0.40078 0.25119 0.50643 0.0
C3316 C 0.23621 0.53344 0.37113 0.0
C3317 C 0.25838 0.52655 0.37706 0.0
C3318 C 0.21958 0.51754 0.36504 0.0
C3319 C 0.22459 0.49415 0.36403 0.0
H3320 H 0.23143 0.55128 0.37174 0.0
H3321 H 0.20259 0.52365 0.36111 0.0
S3322 S 0.28026 0.46725 0.37702 0.0
N3323 N 0.28465 0.49477 0.38127 0.0
N3324 N 0.25338 0.46476 0.36892 0.0
C3325 C 0.24683 0.48696 0.36928 0.0
C3326 C 0.26372 0.5032 0.3761 0.0
C3327 C 0.21185 0.47815 0.11715 0.0
C3328 C 0.21884 0.50049 0.12237 0.0
C3329 C 0.22772 0.46109 0.11223 0.0
C3330 C 0.25116 0.46581 0.11165 0.0
H3331 H 0.19397 0.47357 0.11762 0.0
H3332 H 0.22159 0.44395 0.10904 0.0
S3333 S 0.27838 0.52168 0.12284 0.0
N3334 N 0.25083 0.52658 0.12616 0.0
N3335 N 0.28074 0.49444 0.11596 0.0
C3336 C 0.25846 0.48819 0.11598 0.0
C3337 C 0.24226 0.50555 0.12163 0.0
C3338 C 0.25534 0.50458 0.85237 0.0
C3339 C 0.26605 0.51734 0.86957 0.0
C3340 C 0.23928 0.48777 0.85781 0.0
C3341 C 0.23316 0.48335 0.88059 0.0
H3342 H 0.26055 0.50642 0.83474 0.0
H3343 H 0.2325 0.47738 0.84412 0.0
S3344 S 0.25342 0.51499 0.93148 0.0
N3345 N 0.2674 0.52653 0.90995 0.0
N3346 N 0.23693 0.49518 0.92017 0.0
C3347 C 0.24221 0.49745 0.89773 0.0
C3348 C 0.25877 0.51437 0.89221 0.0
C3349 C 0.24572 0.50831 0.59657 0.0
C3350 C 0.23402 0.51992 0.61394 0.0
C3351 C 0.26216 0.49172 0.6018 0.0
C3352 C 0.26713 0.48587 0.62455 0.0
H3353 H 0.24317 0.513 0.57889 0.0
H3354 H 0.27168 0.48409 0.58793 0.0
S3355 S 0.23877 0.50917 0.67608 0.0
N3356 N 0.22686 0.52297 0.65463 0.0
N3357 N 0.25734 0.49148 0.66446 0.0
C3358 C 0.25429 0.49617 0.64197 0.0
C3359 C 0.23785 0.51331 0.63666 0.0
loop_
_geom_bond_atom_site_label_1
_geom_bond_atom_site_label_2
_geom_bond_distance
_geom_bond_site_symmetry_2
_ccdc_geom_bond_type
In0 O1 2.294 . S
In0 O2 2.326 . S
In0 O6 2.266 . S
In0 O7 2.326 . S
In0 O8 2.266 . S
In0 O9 2.326 . S
In0 O11 2.294 . S
In0 O12 2.326 . S
O1 In0 2.294 . S
O1 C10 1.240 . S
O2 In0 2.326 . S
O2 C10 1.252 . S
C3 O6 1.252 . S
C3 O7 1.260 . S
C4 O11 1.240 . S
C4 O12 1.252 . S
C5 O8 1.252 . S
C5 O9 1.260 . S
O6 In0 2.266 . S
O6 C3 1.252 . S
O7 In0 2.326 . S
O7 C3 1.260 . S
O8 In0 2.266 . S
O8 C5 1.252 . S
O9 In0 2.326 . S
O9 C5 1.260 . S
C10 O1 1.240 . S
C10 O2 1.252 . S
O11 In0 2.294 . S
O11 C4 1.240 . S
O12 In0 2.326 . S
O12 C4 1.252 . S
In13 O14 2.294 . S
In13 O15 2.326 . S
In13 O19 2.266 . S
In13 O20 2.326 . S
In13 O21 2.266 . S
In13 O22 2.326 . S
In13 O24 2.294 . S
In13 O25 2.326 . S
O14 In13 2.294 . S
O14 C23 1.240 . S
O15 In13 2.326 . S
O15 C23 1.252 . S
C16 O19 1.252 . S
C16 O20 1.260 . S
C17 O24 1.240 . S
C17 O25 1.252 . S
C18 O21 1.252 . S
C18 O22 1.260 . S
O19 In13 2.266 . S
O19 C16 1.252 . S
O20 In13 2.326 . S
O20 C16 1.260 . S
O21 In13 2.266 . S
O21 C18 1.252 . S
O22 In13 2.326 . S
O22 C18 1.260 . S
C23 O14 1.240 . S
C23 O15 1.252 . S
O24 In13 2.294 . S
O24 C17 1.240 . S
O25 In13 2.326 . S
O25 C17 1.252 . S
In26 O27 2.294 . S
In26 O28 2.326 . S
In26 O32 2.266 . S
In26 O33 2.326 . S
In26 O34 2.266 . S
In26 O35 2.326 . S
In26 O37 2.294 . S
In26 O38 2.326 . S
O27 In26 2.294 . S
O27 C36 1.240 . S
O28 In26 2.326 . S
O28 C36 1.252 . S
C29 O32 1.252 . S
C29 O33 1.260 . S
C30 O37 1.240 . S
C30 O38 1.252 . S
C31 O34 1.252 . S
C31 O35 1.260 . S
O32 In26 2.266 . S
O32 C29 1.252 . S
O33 In26 2.326 . S
O33 C29 1.260 . S
O34 In26 2.266 . S
O34 C31 1.252 . S
O35 In26 2.326 . S
O35 C31 1.260 . S
C36 O27 1.240 . S
C36 O28 1.252 . S
O37 In26 2.294 . S
O37 C30 1.240 . S
O38 In26 2.326 . S
O38 C30 1.252 . S
In39 O40 2.294 . S
In39 O41 2.326 . S
In39 O45 2.266 . S
In39 O46 2.326 . S
In39 O47 2.266 . S
In39 O48 2.326 . S
In39 O50 2.294 . S
In39 O51 2.326 . S
O40 In39 2.294 . S
O40 C49 1.240 . S
O41 In39 2.326 . S
O41 C49 1.252 . S
C42 O45 1.252 . S
C42 O46 1.260 . S
C43 O50 1.240 . S
C43 O51 1.252 . S
C44 O47 1.252 . S
C44 O48 1.260 . S
O45 In39 2.266 . S
O45 C42 1.252 . S
O46 In39 2.326 . S
O46 C42 1.260 . S
O47 In39 2.266 . S
O47 C44 1.252 . S
O48 In39 2.326 . S
O48 C44 1.260 . S
C49 O40 1.240 . S
C49 O41 1.252 . S
O50 In39 2.294 . S
O50 C43 1.240 . S
O51 In39 2.326 . S
O51 C43 1.252 . S
In52 O53 2.294 . S
In52 O54 2.326 . S
In52 O58 2.266 . S
In52 O59 2.326 . S
In52 O60 2.266 . S
In52 O61 2.326 . S
In52 O63 2.294 . S
In52 O64 2.326 . S
O53 In52 2.294 . S
O53 C62 1.240 . S
O54 In52 2.326 . S
O54 C62 1.252 . S
C55 O58 1.252 . S
C55 O59 1.260 . S
C56 O63 1.240 . S
C56 O64 1.252 . S
C57 O60 1.252 . S
C57 O61 1.260 . S
O58 In52 2.266 . S
O58 C55 1.252 . S
O59 In52 2.326 . S
O59 C55 1.260 . S
O60 In52 2.266 . S
O60 C57 1.252 . S
O61 In52 2.326 . S
O61 C57 1.260 . S
C62 O53 1.240 . S
C62 O54 1.252 . S
O63 In52 2.294 . S
O63 C56 1.240 . S
O64 In52 2.326 . S
O64 C56 1.252 . S
In65 O66 2.294 . S
In65 O67 2.326 . S
In65 O71 2.266 . S
In65 O72 2.326 . S
In65 O73 2.266 . S
In65 O74 2.326 . S
In65 O76 2.294 . S
In65 O77 2.326 . S
O66 In65 2.294 . S
O66 C75 1.240 . S
O67 In65 2.326 . S
O67 C75 1.252 . S
C68 O71 1.252 . S
C68 O72 1.260 . S
C69 O76 1.240 . S
C69 O77 1.252 . S
C70 O73 1.252 . S
C70 O74 1.260 . S
O71 In65 2.266 . S
O71 C68 1.252 . S
O72 In65 2.326 . S
O72 C68 1.260 . S
O73 In65 2.266 . S
O73 C70 1.252 . S
O74 In65 2.326 . S
O74 C70 1.260 . S
C75 O66 1.240 . S
C75 O67 1.252 . S
O76 In65 2.294 . S
O76 C69 1.240 . S
O77 In65 2.326 . S
O77 C69 1.252 . S
In78 O79 2.294 . S
In78 O80 2.326 . S
In78 O84 2.266 . S
In78 O85 2.326 . S
In78 O86 2.266 . S
In78 O87 2.326 . S
In78 O89 2.294 . S
In78 O90 2.326 . S
O79 In78 2.294 . S
O79 C88 1.240 . S
O80 In78 2.326 . S
O80 C88 1.252 . S
C81 O84 1.252 . S
C81 O85 1.260 . S
C82 O89 1.240 . S
C82 O90 1.252 . S
C83 O86 1.252 . S
C83 O87 1.260 . S
O84 In78 2.266 . S
O84 C81 1.252 . S
O85 In78 2.326 . S
O85 C81 1.260 . S
O86 In78 2.266 . S
O86 C83 1.252 . S
O87 In78 2.326 . S
O87 C83 1.260 . S
C88 O79 1.240 . S
C88 O80 1.252 . S
O89 In78 2.294 . S
O89 C82 1.240 . S
O90 In78 2.326 . S
O90 C82 1.252 . S
In91 O92 2.294 . S
In91 O93 2.326 . S
In91 O97 2.266 . S
In91 O98 2.326 . S
In91 O99 2.266 . S
In91 O100 2.326 . S
In91 O102 2.294 . S
In91 O103 2.326 . S
O92 In91 2.294 . S
O92 C101 1.240 . S
O93 In91 2.326 . S
O93 C101 1.252 . S
C94 O97 1.252 . S
C94 O98 1.260 . S
C95 O102 1.240 . S
C95 O103 1.252 . S
C96 O99 1.252 . S
C96 O100 1.260 . S
O97 In91 2.266 . S
O97 C94 1.252 . S
O98 In91 2.326 . S
O98 C94 1.260 . S
O99 In91 2.266 . S
O99 C96 1.252 . S
O100 In91 2.326 . S
O100 C96 1.260 . S
C101 O92 1.240 . S
C101 O93 1.252 . S
O102 In91 2.294 . S
O102 C95 1.240 . S
O103 In91 2.326 . S
O103 C95 1.252 . S
In104 O105 2.294 . S
In104 O106 2.326 . S
In104 O110 2.266 . S
In104 O111 2.326 . S
In104 O112 2.266 . S
In104 O113 2.326 . S
In104 O115 2.294 . S
In104 O116 2.326 . S
O105 In104 2.294 . S
O105 C114 1.240 . S
O106 In104 2.326 . S
O106 C114 1.252 . S
C107 O110 1.252 . S
C107 O111 1.260 . S
C108 O115 1.240 . S
C108 O116 1.252 . S
C109 O112 1.252 . S
C109 O113 1.260 . S
O110 In104 2.266 . S
O110 C107 1.252 . S
O111 In104 2.326 . S
O111 C107 1.260 . S
O112 In104 2.266 . S
O112 C109 1.252 . S
O113 In104 2.326 . S
O113 C109 1.260 . S
C114 O105 1.240 . S
C114 O106 1.252 . S
O115 In104 2.294 . S
O115 C108 1.240 . S
O116 In104 2.326 . S
O116 C108 1.252 . S
In117 O118 2.294 . S
In117 O119 2.326 . S
In117 O123 2.266 . S
In117 O124 2.326 . S
In117 O125 2.266 . S
In117 O126 2.326 . S
In117 O128 2.294 . S
In117 O129 2.326 . S
O118 In117 2.294 . S
O118 C127 1.240 . S
O119 In117 2.326 . S
O119 C127 1.252 . S
C120 O123 1.252 . S
C120 O124 1.260 . S
C121 O128 1.240 . S
C121 O129 1.252 . S
C122 O125 1.252 . S
C122 O126 1.260 . S
O123 In117 2.266 . S
O123 C120 1.252 . S
O124 In117 2.326 . S
O124 C120 1.260 . S
O125 In117 2.266 . S
O125 C122 1.252 . S
O126 In117 2.326 . S
O126 C122 1.260 . S
C127 O118 1.240 . S
C127 O119 1.252 . S
O128 In117 2.294 . S
O128 C121 1.240 . S
O129 In117 2.326 . S
O129 C121 1.252 . S
In130 O131 2.294 . S
In130 O132 2.326 . S
In130 O136 2.266 . S
In130 O137 2.326 . S
In130 O138 2.266 . S
In130 O139 2.326 . S
In130 O141 2.294 . S
In130 O142 2.326 . S
O131 In130 2.294 . S
O131 C140 1.240 . S
O132 In130 2.326 . S
O132 C140 1.252 . S
C133 O136 1.252 . S
C133 O137 1.260 . S
C134 O141 1.240 . S
C134 O142 1.252 . S
C135 O138 1.252 . S
C135 O139 1.260 . S
O136 In130 2.266 . S
O136 C133 1.252 . S
O137 In130 2.326 . S
O137 C133 1.260 . S
O138 In130 2.266 . S
O138 C135 1.252 . S
O139 In130 2.326 . S
O139 C135 1.260 . S
C140 O131 1.240 . S
C140 O132 1.252 . S
O141 In130 2.294 . S
O141 C134 1.240 . S
O142 In130 2.326 . S
O142 C134 1.252 . S
In143 O144 2.294 . S
In143 O145 2.326 . S
In143 O149 2.266 . S
In143 O150 2.326 . S
In143 O151 2.266 . S
In143 O152 2.326 . S
In143 O154 2.294 . S
In143 O155 2.326 . S
O144 In143 2.294 . S
O144 C153 1.240 . S
O145 In143 2.326 . S
O145 C153 1.252 . S
C146 O149 1.252 . S
C146 O150 1.260 . S
C147 O154 1.240 . S
C147 O155 1.252 . S
C148 O151 1.252 . S
C148 O152 1.260 . S
O149 In143 2.266 . S
O149 C146 1.252 . S
O150 In143 2.326 . S
O150 C146 1.260 . S
O151 In143 2.266 . S
O151 C148 1.252 . S
O152 In143 2.326 . S
O152 C148 1.260 . S
C153 O144 1.240 . S
C153 O145 1.252 . S
O154 In143 2.294 . S
O154 C147 1.240 . S
O155 In143 2.326 . S
O155 C147 1.252 . S
In156 O157 2.294 . S
In156 O158 2.326 . S
In156 O162 2.266 . S
In156 O163 2.326 . S
In156 O164 2.266 . S
In156 O165 2.326 . S
In156 O167 2.294 . S
In156 O168 2.326 . S
O157 In156 2.294 . S
O157 C166 1.240 . S
O158 In156 2.326 . S
O158 C166 1.252 . S
C159 O162 1.252 . S
C159 O163 1.260 . S
C160 O167 1.240 . S
C160 O168 1.252 . S
C161 O164 1.252 . S
C161 O165 1.260 . S
O162 In156 2.266 . S
O162 C159 1.252 . S
O163 In156 2.326 . S
O163 C159 1.260 . S
O164 In156 2.266 . S
O164 C161 1.252 . S
O165 In156 2.326 . S
O165 C161 1.260 . S
C166 O157 1.240 . S
C166 O158 1.252 . S
O167 In156 2.294 . S
O167 C160 1.240 . S
O168 In156 2.326 . S
O168 C160 1.252 . S
In169 O170 2.294 . S
In169 O171 2.326 . S
In169 O175 2.266 . S
In169 O176 2.326 . S
In169 O177 2.266 . S
In169 O178 2.326 . S
In169 O180 2.294 . S
In169 O181 2.326 . S
O170 In169 2.294 . S
O170 C179 1.240 . S
O171 In169 2.326 . S
O171 C179 1.252 . S
C172 O175 1.252 . S
C172 O176 1.260 . S
C173 O180 1.240 . S
C173 O181 1.252 . S
C174 O177 1.252 . S
C174 O178 1.260 . S
O175 In169 2.266 . S
O175 C172 1.252 . S
O176 In169 2.326 . S
O176 C172 1.260 . S
O177 In169 2.266 . S
O177 C174 1.252 . S
O178 In169 2.326 . S
O178 C174 1.260 . S
C179 O170 1.240 . S
C179 O171 1.252 . S
O180 In169 2.294 . S
O180 C173 1.240 . S
O181 In169 2.326 . S
O181 C173 1.252 . S
In182 O183 2.294 . S
In182 O184 2.326 . S
In182 O188 2.266 . S
In182 O189 2.326 . S
In182 O190 2.266 . S
In182 O191 2.326 . S
In182 O193 2.294 . S
In182 O194 2.326 . S
O183 In182 2.294 . S
O183 C192 1.240 . S
O184 In182 2.326 . S
O184 C192 1.252 . S
C185 O188 1.252 . S
C185 O189 1.260 . S
C186 O193 1.240 . S
C186 O194 1.252 . S
C187 O190 1.252 . S
C187 O191 1.260 . S
O188 In182 2.266 . S
O188 C185 1.252 . S
O189 In182 2.326 . S
O189 C185 1.260 . S
O190 In182 2.266 . S
O190 C187 1.252 . S
O191 In182 2.326 . S
O191 C187 1.260 . S
C192 O183 1.240 . S
C192 O184 1.252 . S
O193 In182 2.294 . S
O193 C186 1.240 . S
O194 In182 2.326 . S
O194 C186 1.252 . S
In195 O196 2.294 . S
In195 O197 2.326 . S
In195 O201 2.266 . S
In195 O202 2.326 . S
In195 O203 2.266 . S
In195 O204 2.326 . S
In195 O206 2.294 . S
In195 O207 2.326 . S
O196 In195 2.294 . S
O196 C205 1.240 . S
O197 In195 2.326 . S
O197 C205 1.252 . S
C198 O201 1.252 . S
C198 O202 1.260 . S
C199 O206 1.240 . S
C199 O207 1.252 . S
C200 O203 1.252 . S
C200 O204 1.260 . S
O201 In195 2.266 . S
O201 C198 1.252 . S
O202 In195 2.326 . S
O202 C198 1.260 . S
O203 In195 2.266 . S
O203 C200 1.252 . S
O204 In195 2.326 . S
O204 C200 1.260 . S
C205 O196 1.240 . S
C205 O197 1.252 . S
O206 In195 2.294 . S
O206 C199 1.240 . S
O207 In195 2.326 . S
O207 C199 1.252 . S
In208 O209 2.294 . S
In208 O210 2.326 . S
In208 O214 2.266 . S
In208 O215 2.326 . S
In208 O216 2.266 . S
In208 O217 2.326 . S
In208 O219 2.294 . S
In208 O220 2.326 . S
O209 In208 2.294 . S
O209 C218 1.240 . S
O210 In208 2.326 . S
O210 C218 1.252 . S
C211 O214 1.252 . S
C211 O215 1.260 . S
C212 O219 1.240 . S
C212 O220 1.252 . S
C213 O216 1.252 . S
C213 O217 1.260 . S
O214 In208 2.266 . S
O214 C211 1.252 . S
O215 In208 2.326 . S
O215 C211 1.260 . S
O216 In208 2.266 . S
O216 C213 1.252 . S
O217 In208 2.326 . S
O217 C213 1.260 . S
C218 O209 1.240 . S
C218 O210 1.252 . S
O219 In208 2.294 . S
O219 C212 1.240 . S
O220 In208 2.326 . S
O220 C212 1.252 . S
In221 O222 2.294 . S
In221 O223 2.326 . S
In221 O227 2.266 . S
In221 O228 2.326 . S
In221 O229 2.266 . S
In221 O230 2.326 . S
In221 O232 2.294 . S
In221 O233 2.326 . S
O222 In221 2.294 . S
O222 C231 1.240 . S
O223 In221 2.326 . S
O223 C231 1.252 . S
C224 O227 1.252 . S
C224 O228 1.260 . S
C225 O232 1.240 . S
C225 O233 1.252 . S
C226 O229 1.252 . S
C226 O230 1.260 . S
O227 In221 2.266 . S
O227 C224 1.252 . S
O228 In221 2.326 . S
O228 C224 1.260 . S
O229 In221 2.266 . S
O229 C226 1.252 . S
O230 In221 2.326 . S
O230 C226 1.260 . S
C231 O222 1.240 . S
C231 O223 1.252 . S
O232 In221 2.294 . S
O232 C225 1.240 . S
O233 In221 2.326 . S
O233 C225 1.252 . S
In234 O235 2.294 . S
In234 O236 2.326 . S
In234 O240 2.266 . S
In234 O241 2.326 . S
In234 O242 2.266 . S
In234 O243 2.326 . S
In234 O245 2.294 . S
In234 O246 2.326 . S
O235 In234 2.294 . S
O235 C244 1.240 . S
O236 In234 2.326 . S
O236 C244 1.252 . S
C237 O240 1.252 . S
C237 O241 1.260 . S
C238 O245 1.240 . S
C238 O246 1.252 . S
C239 O242 1.252 . S
C239 O243 1.260 . S
O240 In234 2.266 . S
O240 C237 1.252 . S
O241 In234 2.326 . S
O241 C237 1.260 . S
O242 In234 2.266 . S
O242 C239 1.252 . S
O243 In234 2.326 . S
O243 C239 1.260 . S
C244 O235 1.240 . S
C244 O236 1.252 . S
O245 In234 2.294 . S
O245 C238 1.240 . S
O246 In234 2.326 . S
O246 C238 1.252 . S
In247 O248 2.294 . S
In247 O249 2.326 . S
In247 O253 2.266 . S
In247 O254 2.326 . S
In247 O255 2.266 . S
In247 O256 2.326 . S
In247 O258 2.294 . S
In247 O259 2.326 . S
O248 In247 2.294 . S
O248 C257 1.240 . S
O249 In247 2.326 . S
O249 C257 1.252 . S
C250 O253 1.252 . S
C250 O254 1.260 . S
C251 O258 1.240 . S
C251 O259 1.252 . S
C252 O255 1.252 . S
C252 O256 1.260 . S
O253 In247 2.266 . S
O253 C250 1.252 . S
O254 In247 2.326 . S
O254 C250 1.260 . S
O255 In247 2.266 . S
O255 C252 1.252 . S
O256 In247 2.326 . S
O256 C252 1.260 . S
C257 O248 1.240 . S
C257 O249 1.252 . S
O258 In247 2.294 . S
O258 C251 1.240 . S
O259 In247 2.326 . S
O259 C251 1.252 . S
In260 O261 2.294 . S
In260 O262 2.326 . S
In260 O266 2.266 . S
In260 O267 2.326 . S
In260 O268 2.266 . S
In260 O269 2.326 . S
In260 O271 2.294 . S
In260 O272 2.326 . S
O261 In260 2.294 . S
O261 C270 1.240 . S
O262 In260 2.326 . S
O262 C270 1.252 . S
C263 O266 1.252 . S
C263 O267 1.260 . S
C264 O271 1.240 . S
C264 O272 1.252 . S
C265 O268 1.252 . S
C265 O269 1.260 . S
O266 In260 2.266 . S
O266 C263 1.252 . S
O267 In260 2.326 . S
O267 C263 1.260 . S
O268 In260 2.266 . S
O268 C265 1.252 . S
O269 In260 2.326 . S
O269 C265 1.260 . S
C270 O261 1.240 . S
C270 O262 1.252 . S
O271 In260 2.294 . S
O271 C264 1.240 . S
O272 In260 2.326 . S
O272 C264 1.252 . S
In273 O274 2.294 . S
In273 O275 2.326 . S
In273 O279 2.266 . S
In273 O280 2.326 . S
In273 O281 2.266 . S
In273 O282 2.326 . S
In273 O284 2.294 . S
In273 O285 2.326 . S
O274 In273 2.294 . S
O274 C283 1.240 . S
O275 In273 2.326 . S
O275 C283 1.252 . S
C276 O279 1.252 . S
C276 O280 1.260 . S
C277 O284 1.240 . S
C277 O285 1.252 . S
C278 O281 1.252 . S
C278 O282 1.260 . S
O279 In273 2.266 . S
O279 C276 1.252 . S
O280 In273 2.326 . S
O280 C276 1.260 . S
O281 In273 2.266 . S
O281 C278 1.252 . S
O282 In273 2.326 . S
O282 C278 1.260 . S
C283 O274 1.240 . S
C283 O275 1.252 . S
O284 In273 2.294 . S
O284 C277 1.240 . S
O285 In273 2.326 . S
O285 C277 1.252 . S
In286 O287 2.294 . S
In286 O288 2.326 . S
In286 O292 2.266 . S
In286 O293 2.326 . S
In286 O294 2.266 . S
In286 O295 2.326 . S
In286 O297 2.294 . S
In286 O298 2.326 . S
O287 In286 2.294 . S
O287 C296 1.240 . S
O288 In286 2.326 . S
O288 C296 1.252 . S
C289 O292 1.252 . S
C289 O293 1.260 . S
C290 O297 1.240 . S
C290 O298 1.252 . S
C291 O294 1.252 . S
C291 O295 1.260 . S
O292 In286 2.266 . S
O292 C289 1.252 . S
O293 In286 2.326 . S
O293 C289 1.260 . S
O294 In286 2.266 . S
O294 C291 1.252 . S
O295 In286 2.326 . S
O295 C291 1.260 . S
C296 O287 1.240 . S
C296 O288 1.252 . S
O297 In286 2.294 . S
O297 C290 1.240 . S
O298 In286 2.326 . S
O298 C290 1.252 . S
In299 O300 2.294 . S
In299 O301 2.326 . S
In299 O305 2.266 . S
In299 O306 2.326 . S
In299 O307 2.266 . S
In299 O308 2.326 . S
In299 O310 2.294 . S
In299 O311 2.326 . S
O300 In299 2.294 . S
O300 C309 1.240 . S
O301 In299 2.326 . S
O301 C309 1.252 . S
C302 O305 1.252 . S
C302 O306 1.260 . S
C303 O310 1.240 . S
C303 O311 1.252 . S
C304 O307 1.252 . S
C304 O308 1.260 . S
O305 In299 2.266 . S
O305 C302 1.252 . S
O306 In299 2.326 . S
O306 C302 1.260 . S
O307 In299 2.266 . S
O307 C304 1.252 . S
O308 In299 2.326 . S
O308 C304 1.260 . S
C309 O300 1.240 . S
C309 O301 1.252 . S
O310 In299 2.294 . S
O310 C303 1.240 . S
O311 In299 2.326 . S
O311 C303 1.252 . S
In312 O313 2.294 . S
In312 O314 2.326 . S
In312 O318 2.266 . S
In312 O319 2.326 . S
In312 O320 2.266 . S
In312 O321 2.326 . S
In312 O323 2.294 . S
In312 O324 2.326 . S
O313 In312 2.294 . S
O313 C322 1.240 . S
O314 In312 2.326 . S
O314 C322 1.252 . S
C315 O318 1.252 . S
C315 O319 1.260 . S
C316 O323 1.240 . S
C316 O324 1.252 . S
C317 O320 1.252 . S
C317 O321 1.260 . S
O318 In312 2.266 . S
O318 C315 1.252 . S
O319 In312 2.326 . S
O319 C315 1.260 . S
O320 In312 2.266 . S
O320 C317 1.252 . S
O321 In312 2.326 . S
O321 C317 1.260 . S
C322 O313 1.240 . S
C322 O314 1.252 . S
O323 In312 2.294 . S
O323 C316 1.240 . S
O324 In312 2.326 . S
O324 C316 1.252 . S
In325 O326 2.294 . S
In325 O327 2.326 . S
In325 O331 2.266 . S
In325 O332 2.326 . S
In325 O333 2.266 . S
In325 O334 2.326 . S
In325 O336 2.294 . S
In325 O337 2.326 . S
O326 In325 2.294 . S
O326 C335 1.240 . S
O327 In325 2.326 . S
O327 C335 1.252 . S
C328 O331 1.252 . S
C328 O332 1.260 . S
C329 O336 1.240 . S
C329 O337 1.252 . S
C330 O333 1.252 . S
C330 O334 1.260 . S
O331 In325 2.266 . S
O331 C328 1.252 . S
O332 In325 2.326 . S
O332 C328 1.260 . S
O333 In325 2.266 . S
O333 C330 1.252 . S
O334 In325 2.326 . S
O334 C330 1.260 . S
C335 O326 1.240 . S
C335 O327 1.252 . S
O336 In325 2.294 . S
O336 C329 1.240 . S
O337 In325 2.326 . S
O337 C329 1.252 . S
In338 O339 2.294 . S
In338 O340 2.326 . S
In338 O344 2.266 . S
In338 O345 2.326 . S
In338 O346 2.266 . S
In338 O347 2.326 . S
In338 O349 2.294 . S
In338 O350 2.326 . S
O339 In338 2.294 . S
O339 C348 1.240 . S
O340 In338 2.326 . S
O340 C348 1.252 . S
C341 O344 1.252 . S
C341 O345 1.260 . S
C342 O349 1.240 . S
C342 O350 1.252 . S
C343 O346 1.252 . S
C343 O347 1.260 . S
O344 In338 2.266 . S
O344 C341 1.252 . S
O345 In338 2.326 . S
O345 C341 1.260 . S
O346 In338 2.266 . S
O346 C343 1.252 . S
O347 In338 2.326 . S
O347 C343 1.260 . S
C348 O339 1.240 . S
C348 O340 1.252 . S
O349 In338 2.294 . S
O349 C342 1.240 . S
O350 In338 2.326 . S
O350 C342 1.252 . S
In351 O352 2.294 . S
In351 O353 2.326 . S
In351 O357 2.266 . S
In351 O358 2.326 . S
In351 O359 2.266 . S
In351 O360 2.326 . S
In351 O362 2.294 . S
In351 O363 2.326 . S
O352 In351 2.294 . S
O352 C361 1.240 . S
O353 In351 2.326 . S
O353 C361 1.252 . S
C354 O357 1.252 . S
C354 O358 1.260 . S
C355 O362 1.240 . S
C355 O363 1.252 . S
C356 O359 1.252 . S
C356 O360 1.260 . S
O357 In351 2.266 . S
O357 C354 1.252 . S
O358 In351 2.326 . S
O358 C354 1.260 . S
O359 In351 2.266 . S
O359 C356 1.252 . S
O360 In351 2.326 . S
O360 C356 1.260 . S
C361 O352 1.240 . S
C361 O353 1.252 . S
O362 In351 2.294 . S
O362 C355 1.240 . S
O363 In351 2.326 . S
O363 C355 1.252 . S
In364 O365 2.294 . S
In364 O366 2.326 . S
In364 O370 2.266 . S
In364 O371 2.326 . S
In364 O372 2.266 . S
In364 O373 2.326 . S
In364 O375 2.294 . S
In364 O376 2.326 . S
O365 In364 2.294 . S
O365 C374 1.240 . S
O366 In364 2.326 . S
O366 C374 1.252 . S
C367 O370 1.252 . S
C367 O371 1.260 . S
C368 O375 1.240 . S
C368 O376 1.252 . S
C369 O372 1.252 . S
C369 O373 1.260 . S
O370 In364 2.266 . S
O370 C367 1.252 . S
O371 In364 2.326 . S
O371 C367 1.260 . S
O372 In364 2.266 . S
O372 C369 1.252 . S
O373 In364 2.326 . S
O373 C369 1.260 . S
C374 O365 1.240 . S
C374 O366 1.252 . S
O375 In364 2.294 . S
O375 C368 1.240 . S
O376 In364 2.326 . S
O376 C368 1.252 . S
In377 O378 2.294 . S
In377 O379 2.326 . S
In377 O383 2.266 . S
In377 O384 2.326 . S
In377 O385 2.266 . S
In377 O386 2.326 . S
In377 O388 2.294 . S
In377 O389 2.326 . S
O378 In377 2.294 . S
O378 C387 1.240 . S
O379 In377 2.326 . S
O379 C387 1.252 . S
C380 O383 1.252 . S
C380 O384 1.260 . S
C381 O388 1.240 . S
C381 O389 1.252 . S
C382 O385 1.252 . S
C382 O386 1.260 . S
O383 In377 2.266 . S
O383 C380 1.252 . S
O384 In377 2.326 . S
O384 C380 1.260 . S
O385 In377 2.266 . S
O385 C382 1.252 . S
O386 In377 2.326 . S
O386 C382 1.260 . S
C387 O378 1.240 . S
C387 O379 1.252 . S
O388 In377 2.294 . S
O388 C381 1.240 . S
O389 In377 2.326 . S
O389 C381 1.252 . S
In390 O391 2.294 . S
In390 O392 2.326 . S
In390 O396 2.266 . S
In390 O397 2.326 . S
In390 O398 2.266 . S
In390 O399 2.326 . S
In390 O401 2.294 . S
In390 O402 2.326 . S
O391 In390 2.294 . S
O391 C400 1.240 . S
O392 In390 2.326 . S
O392 C400 1.252 . S
C393 O396 1.252 . S
C393 O397 1.260 . S
C394 O401 1.240 . S
C394 O402 1.252 . S
C395 O398 1.252 . S
C395 O399 1.260 . S
O396 In390 2.266 . S
O396 C393 1.252 . S
O397 In390 2.326 . S
O397 C393 1.260 . S
O398 In390 2.266 . S
O398 C395 1.252 . S
O399 In390 2.326 . S
O399 C395 1.260 . S
C400 O391 1.240 . S
C400 O392 1.252 . S
O401 In390 2.294 . S
O401 C394 1.240 . S
O402 In390 2.326 . S
O402 C394 1.252 . S
In403 O404 2.294 . S
In403 O405 2.326 . S
In403 O409 2.266 . S
In403 O410 2.326 . S
In403 O411 2.266 . S
In403 O412 2.326 . S
In403 O414 2.294 . S
In403 O415 2.326 . S
O404 In403 2.294 . S
O404 C413 1.240 . S
O405 In403 2.326 . S
O405 C413 1.252 . S
C406 O409 1.252 . S
C406 O410 1.260 . S
C407 O414 1.240 . S
C407 O415 1.252 . S
C408 O411 1.252 . S
C408 O412 1.260 . S
O409 In403 2.266 . S
O409 C406 1.252 . S
O410 In403 2.326 . S
O410 C406 1.260 . S
O411 In403 2.266 . S
O411 C408 1.252 . S
O412 In403 2.326 . S
O412 C408 1.260 . S
C413 O404 1.240 . S
C413 O405 1.252 . S
O414 In403 2.294 . S
O414 C407 1.240 . S
O415 In403 2.326 . S
O415 C407 1.252 . S
In416 O417 2.294 . S
In416 O418 2.326 . S
In416 O422 2.266 . S
In416 O423 2.326 . S
In416 O424 2.266 . S
In416 O425 2.326 . S
In416 O427 2.294 . S
In416 O428 2.326 . S
O417 In416 2.294 . S
O417 C426 1.240 . S
O418 In416 2.326 . S
O418 C426 1.252 . S
C419 O422 1.252 . S
C419 O423 1.260 . S
C420 O427 1.240 . S
C420 O428 1.252 . S
C421 O424 1.252 . S
C421 O425 1.260 . S
O422 In416 2.266 . S
O422 C419 1.252 . S
O423 In416 2.326 . S
O423 C419 1.260 . S
O424 In416 2.266 . S
O424 C421 1.252 . S
O425 In416 2.326 . S
O425 C421 1.260 . S
C426 O417 1.240 . S
C426 O418 1.252 . S
O427 In416 2.294 . S
O427 C420 1.240 . S
O428 In416 2.326 . S
O428 C420 1.252 . S
In429 O430 2.294 . S
In429 O431 2.326 . S
In429 O435 2.266 . S
In429 O436 2.326 . S
In429 O437 2.266 . S
In429 O438 2.326 . S
In429 O440 2.294 . S
In429 O441 2.326 . S
O430 In429 2.294 . S
O430 C439 1.240 . S
O431 In429 2.326 . S
O431 C439 1.252 . S
C432 O435 1.252 . S
C432 O436 1.260 . S
C433 O440 1.240 . S
C433 O441 1.252 . S
C434 O437 1.252 . S
C434 O438 1.260 . S
O435 In429 2.266 . S
O435 C432 1.252 . S
O436 In429 2.326 . S
O436 C432 1.260 . S
O437 In429 2.266 . S
O437 C434 1.252 . S
O438 In429 2.326 . S
O438 C434 1.260 . S
C439 O430 1.240 . S
C439 O431 1.252 . S
O440 In429 2.294 . S
O440 C433 1.240 . S
O441 In429 2.326 . S
O441 C433 1.252 . S
In442 O443 2.294 . S
In442 O444 2.326 . S
In442 O448 2.266 . S
In442 O449 2.326 . S
In442 O450 2.266 . S
In442 O451 2.326 . S
In442 O453 2.294 . S
In442 O454 2.326 . S
O443 In442 2.294 . S
O443 C452 1.240 . S
O444 In442 2.326 . S
O444 C452 1.252 . S
C445 O448 1.252 . S
C445 O449 1.260 . S
C446 O453 1.240 . S
C446 O454 1.252 . S
C447 O450 1.252 . S
C447 O451 1.260 . S
O448 In442 2.266 . S
O448 C445 1.252 . S
O449 In442 2.326 . S
O449 C445 1.260 . S
O450 In442 2.266 . S
O450 C447 1.252 . S
O451 In442 2.326 . S
O451 C447 1.260 . S
C452 O443 1.240 . S
C452 O444 1.252 . S
O453 In442 2.294 . S
O453 C446 1.240 . S
O454 In442 2.326 . S
O454 C446 1.252 . S
In455 O456 2.294 . S
In455 O457 2.326 . S
In455 O461 2.266 . S
In455 O462 2.326 . S
In455 O463 2.266 . S
In455 O464 2.326 . S
In455 O466 2.294 . S
In455 O467 2.326 . S
O456 In455 2.294 . S
O456 C465 1.240 . S
O457 In455 2.326 . S
O457 C465 1.252 . S
C458 O461 1.252 . S
C458 O462 1.260 . S
C459 O466 1.240 . S
C459 O467 1.252 . S
C460 O463 1.252 . S
C460 O464 1.260 . S
O461 In455 2.266 . S
O461 C458 1.252 . S
O462 In455 2.326 . S
O462 C458 1.260 . S
O463 In455 2.266 . S
O463 C460 1.252 . S
O464 In455 2.326 . S
O464 C460 1.260 . S
C465 O456 1.240 . S
C465 O457 1.252 . S
O466 In455 2.294 . S
O466 C459 1.240 . S
O467 In455 2.326 . S
O467 C459 1.252 . S
In468 O469 2.294 . S
In468 O470 2.326 . S
In468 O474 2.266 . S
In468 O475 2.326 . S
In468 O476 2.266 . S
In468 O477 2.326 . S
In468 O479 2.294 . S
In468 O480 2.326 . S
O469 In468 2.294 . S
O469 C478 1.240 . S
O470 In468 2.326 . S
O470 C478 1.252 . S
C471 O474 1.252 . S
C471 O475 1.260 . S
C472 O479 1.240 . S
C472 O480 1.252 . S
C473 O476 1.252 . S
C473 O477 1.260 . S
O474 In468 2.266 . S
O474 C471 1.252 . S
O475 In468 2.326 . S
O475 C471 1.260 . S
O476 In468 2.266 . S
O476 C473 1.252 . S
O477 In468 2.326 . S
O477 C473 1.260 . S
C478 O469 1.240 . S
C478 O470 1.252 . S
O479 In468 2.294 . S
O479 C472 1.240 . S
O480 In468 2.326 . S
O480 C472 1.252 . S
In481 O482 2.294 . S
In481 O483 2.326 . S
In481 O487 2.266 . S
In481 O488 2.326 . S
In481 O489 2.266 . S
In481 O490 2.326 . S
In481 O492 2.294 . S
In481 O493 2.326 . S
O482 In481 2.294 . S
O482 C491 1.240 . S
O483 In481 2.326 . S
O483 C491 1.252 . S
C484 O487 1.252 . S
C484 O488 1.260 . S
C485 O492 1.240 . S
C485 O493 1.252 . S
C486 O489 1.252 . S
C486 O490 1.260 . S
O487 In481 2.266 . S
O487 C484 1.252 . S
O488 In481 2.326 . S
O488 C484 1.260 . S
O489 In481 2.266 . S
O489 C486 1.252 . S
O490 In481 2.326 . S
O490 C486 1.260 . S
C491 O482 1.240 . S
C491 O483 1.252 . S
O492 In481 2.294 . S
O492 C485 1.240 . S
O493 In481 2.326 . S
O493 C485 1.252 . S
In494 O495 2.294 . S
In494 O496 2.326 . S
In494 O500 2.266 . S
In494 O501 2.326 . S
In494 O502 2.266 . S
In494 O503 2.326 . S
In494 O505 2.294 . S
In494 O506 2.326 . S
O495 In494 2.294 . S
O495 C504 1.240 . S
O496 In494 2.326 . S
O496 C504 1.252 . S
C497 O500 1.252 . S
C497 O501 1.260 . S
C498 O505 1.240 . S
C498 O506 1.252 . S
C499 O502 1.252 . S
C499 O503 1.260 . S
O500 In494 2.266 . S
O500 C497 1.252 . S
O501 In494 2.326 . S
O501 C497 1.260 . S
O502 In494 2.266 . S
O502 C499 1.252 . S
O503 In494 2.326 . S
O503 C499 1.260 . S
C504 O495 1.240 . S
C504 O496 1.252 . S
O505 In494 2.294 . S
O505 C498 1.240 . S
O506 In494 2.326 . S
O506 C498 1.252 . S
In507 O508 2.294 . S
In507 O509 2.326 . S
In507 O513 2.266 . S
In507 O514 2.326 . S
In507 O515 2.266 . S
In507 O516 2.326 . S
In507 O518 2.294 . S
In507 O519 2.326 . S
O508 In507 2.294 . S
O508 C517 1.240 . S
O509 In507 2.326 . S
O509 C517 1.252 . S
C510 O513 1.252 . S
C510 O514 1.260 . S
C511 O518 1.240 . S
C511 O519 1.252 . S
C512 O515 1.252 . S
C512 O516 1.260 . S
O513 In507 2.266 . S
O513 C510 1.252 . S
O514 In507 2.326 . S
O514 C510 1.260 . S
O515 In507 2.266 . S
O515 C512 1.252 . S
O516 In507 2.326 . S
O516 C512 1.260 . S
C517 O508 1.240 . S
C517 O509 1.252 . S
O518 In507 2.294 . S
O518 C511 1.240 . S
O519 In507 2.326 . S
O519 C511 1.252 . S
In520 O521 2.294 . S
In520 O522 2.326 . S
In520 O526 2.266 . S
In520 O527 2.326 . S
In520 O528 2.266 . S
In520 O529 2.326 . S
In520 O531 2.294 . S
In520 O532 2.326 . S
O521 In520 2.294 . S
O521 C530 1.240 . S
O522 In520 2.326 . S
O522 C530 1.252 . S
C523 O526 1.252 . S
C523 O527 1.260 . S
C524 O531 1.240 . S
C524 O532 1.252 . S
C525 O528 1.252 . S
C525 O529 1.260 . S
O526 In520 2.266 . S
O526 C523 1.252 . S
O527 In520 2.326 . S
O527 C523 1.260 . S
O528 In520 2.266 . S
O528 C525 1.252 . S
O529 In520 2.326 . S
O529 C525 1.260 . S
C530 O521 1.240 . S
C530 O522 1.252 . S
O531 In520 2.294 . S
O531 C524 1.240 . S
O532 In520 2.326 . S
O532 C524 1.252 . S
In533 O534 2.294 . S
In533 O535 2.326 . S
In533 O539 2.266 . S
In533 O540 2.326 . S
In533 O541 2.266 . S
In533 O542 2.326 . S
In533 O544 2.294 . S
In533 O545 2.326 . S
O534 In533 2.294 . S
O534 C543 1.240 . S
O535 In533 2.326 . S
O535 C543 1.252 . S
C536 O539 1.252 . S
C536 O540 1.260 . S
C537 O544 1.240 . S
C537 O545 1.252 . S
C538 O541 1.252 . S
C538 O542 1.260 . S
O539 In533 2.266 . S
O539 C536 1.252 . S
O540 In533 2.326 . S
O540 C536 1.260 . S
O541 In533 2.266 . S
O541 C538 1.252 . S
O542 In533 2.326 . S
O542 C538 1.260 . S
C543 O534 1.240 . S
C543 O535 1.252 . S
O544 In533 2.294 . S
O544 C537 1.240 . S
O545 In533 2.326 . S
O545 C537 1.252 . S
In546 O547 2.294 . S
In546 O548 2.326 . S
In546 O552 2.266 . S
In546 O553 2.326 . S
In546 O554 2.266 . S
In546 O555 2.326 . S
In546 O557 2.294 . S
In546 O558 2.326 . S
O547 In546 2.294 . S
O547 C556 1.240 . S
O548 In546 2.326 . S
O548 C556 1.252 . S
C549 O552 1.252 . S
C549 O553 1.260 . S
C550 O557 1.240 . S
C550 O558 1.252 . S
C551 O554 1.252 . S
C551 O555 1.260 . S
O552 In546 2.266 . S
O552 C549 1.252 . S
O553 In546 2.326 . S
O553 C549 1.260 . S
O554 In546 2.266 . S
O554 C551 1.252 . S
O555 In546 2.326 . S
O555 C551 1.260 . S
C556 O547 1.240 . S
C556 O548 1.252 . S
O557 In546 2.294 . S
O557 C550 1.240 . S
O558 In546 2.326 . S
O558 C550 1.252 . S
In559 O560 2.294 . S
In559 O561 2.326 . S
In559 O565 2.266 . S
In559 O566 2.326 . S
In559 O567 2.266 . S
In559 O568 2.326 . S
In559 O570 2.294 . S
In559 O571 2.326 . S
O560 In559 2.294 . S
O560 C569 1.240 . S
O561 In559 2.326 . S
O561 C569 1.252 . S
C562 O565 1.252 . S
C562 O566 1.260 . S
C563 O570 1.240 . S
C563 O571 1.252 . S
C564 O567 1.252 . S
C564 O568 1.260 . S
O565 In559 2.266 . S
O565 C562 1.252 . S
O566 In559 2.326 . S
O566 C562 1.260 . S
O567 In559 2.266 . S
O567 C564 1.252 . S
O568 In559 2.326 . S
O568 C564 1.260 . S
C569 O560 1.240 . S
C569 O561 1.252 . S
O570 In559 2.294 . S
O570 C563 1.240 . S
O571 In559 2.326 . S
O571 C563 1.252 . S
In572 O573 2.294 . S
In572 O574 2.326 . S
In572 O578 2.266 . S
In572 O579 2.326 . S
In572 O580 2.266 . S
In572 O581 2.326 . S
In572 O583 2.294 . S
In572 O584 2.326 . S
O573 In572 2.294 . S
O573 C582 1.240 . S
O574 In572 2.326 . S
O574 C582 1.252 . S
C575 O578 1.252 . S
C575 O579 1.260 . S
C576 O583 1.240 . S
C576 O584 1.252 . S
C577 O580 1.252 . S
C577 O581 1.260 . S
O578 In572 2.266 . S
O578 C575 1.252 . S
O579 In572 2.326 . S
O579 C575 1.260 . S
O580 In572 2.266 . S
O580 C577 1.252 . S
O581 In572 2.326 . S
O581 C577 1.260 . S
C582 O573 1.240 . S
C582 O574 1.252 . S
O583 In572 2.294 . S
O583 C576 1.240 . S
O584 In572 2.326 . S
O584 C576 1.252 . S
In585 O586 2.294 . S
In585 O587 2.326 . S
In585 O591 2.266 . S
In585 O592 2.326 . S
In585 O593 2.266 . S
In585 O594 2.326 . S
In585 O596 2.294 . S
In585 O597 2.326 . S
O586 In585 2.294 . S
O586 C595 1.240 . S
O587 In585 2.326 . S
O587 C595 1.252 . S
C588 O591 1.252 . S
C588 O592 1.260 . S
C589 O596 1.240 . S
C589 O597 1.252 . S
C590 O593 1.252 . S
C590 O594 1.260 . S
O591 In585 2.266 . S
O591 C588 1.252 . S
O592 In585 2.326 . S
O592 C588 1.260 . S
O593 In585 2.266 . S
O593 C590 1.252 . S
O594 In585 2.326 . S
O594 C590 1.260 . S
C595 O586 1.240 . S
C595 O587 1.252 . S
O596 In585 2.294 . S
O596 C589 1.240 . S
O597 In585 2.326 . S
O597 C589 1.252 . S
In598 O599 2.294 . S
In598 O600 2.326 . S
In598 O604 2.266 . S
In598 O605 2.326 . S
In598 O606 2.266 . S
In598 O607 2.326 . S
In598 O609 2.294 . S
In598 O610 2.326 . S
O599 In598 2.294 . S
O599 C608 1.240 . S
O600 In598 2.326 . S
O600 C608 1.252 . S
C601 O604 1.252 . S
C601 O605 1.260 . S
C602 O609 1.240 . S
C602 O610 1.252 . S
C603 O606 1.252 . S
C603 O607 1.260 . S
O604 In598 2.266 . S
O604 C601 1.252 . S
O605 In598 2.326 . S
O605 C601 1.260 . S
O606 In598 2.266 . S
O606 C603 1.252 . S
O607 In598 2.326 . S
O607 C603 1.260 . S
C608 O599 1.240 . S
C608 O600 1.252 . S
O609 In598 2.294 . S
O609 C602 1.240 . S
O610 In598 2.326 . S
O610 C602 1.252 . S
In611 O612 2.294 . S
In611 O613 2.326 . S
In611 O617 2.266 . S
In611 O618 2.326 . S
In611 O619 2.266 . S
In611 O620 2.326 . S
In611 O622 2.294 . S
In611 O623 2.326 . S
O612 In611 2.294 . S
O612 C621 1.240 . S
O613 In611 2.326 . S
O613 C621 1.252 . S
C614 O617 1.252 . S
C614 O618 1.260 . S
C615 O622 1.240 . S
C615 O623 1.252 . S
C616 O619 1.252 . S
C616 O620 1.260 . S
O617 In611 2.266 . S
O617 C614 1.252 . S
O618 In611 2.326 . S
O618 C614 1.260 . S
O619 In611 2.266 . S
O619 C616 1.252 . S
O620 In611 2.326 . S
O620 C616 1.260 . S
C621 O612 1.240 . S
C621 O613 1.252 . S
O622 In611 2.294 . S
O622 C615 1.240 . S
O623 In611 2.326 . S
O623 C615 1.252 . S
In624 O625 2.294 . S
In624 O626 2.326 . S
In624 O630 2.266 . S
In624 O631 2.326 . S
In624 O632 2.266 . S
In624 O633 2.326 . S
In624 O635 2.294 . S
In624 O636 2.326 . S
O625 In624 2.294 . S
O625 C634 1.240 . S
O626 In624 2.326 . S
O626 C634 1.252 . S
C627 O630 1.252 . S
C627 O631 1.260 . S
C628 O635 1.240 . S
C628 O636 1.252 . S
C629 O632 1.252 . S
C629 O633 1.260 . S
O630 In624 2.266 . S
O630 C627 1.252 . S
O631 In624 2.326 . S
O631 C627 1.260 . S
O632 In624 2.266 . S
O632 C629 1.252 . S
O633 In624 2.326 . S
O633 C629 1.260 . S
C634 O625 1.240 . S
C634 O626 1.252 . S
O635 In624 2.294 . S
O635 C628 1.240 . S
O636 In624 2.326 . S
O636 C628 1.252 . S
In637 O638 2.294 . S
In637 O639 2.326 . S
In637 O643 2.266 . S
In637 O644 2.326 . S
In637 O645 2.266 . S
In637 O646 2.326 . S
In637 O648 2.294 . S
In637 O649 2.326 . S
O638 In637 2.294 . S
O638 C647 1.240 . S
O639 In637 2.326 . S
O639 C647 1.252 . S
C640 O643 1.252 . S
C640 O644 1.260 . S
C641 O648 1.240 . S
C641 O649 1.252 . S
C642 O645 1.252 . S
C642 O646 1.260 . S
O643 In637 2.266 . S
O643 C640 1.252 . S
O644 In637 2.326 . S
O644 C640 1.260 . S
O645 In637 2.266 . S
O645 C642 1.252 . S
O646 In637 2.326 . S
O646 C642 1.260 . S
C647 O638 1.240 . S
C647 O639 1.252 . S
O648 In637 2.294 . S
O648 C641 1.240 . S
O649 In637 2.326 . S
O649 C641 1.252 . S
In650 O651 2.294 . S
In650 O652 2.326 . S
In650 O656 2.266 . S
In650 O657 2.326 . S
In650 O658 2.266 . S
In650 O659 2.326 . S
In650 O661 2.294 . S
In650 O662 2.326 . S
O651 In650 2.294 . S
O651 C660 1.240 . S
O652 In650 2.326 . S
O652 C660 1.252 . S
C653 O656 1.252 . S
C653 O657 1.260 . S
C654 O661 1.240 . S
C654 O662 1.252 . S
C655 O658 1.252 . S
C655 O659 1.260 . S
O656 In650 2.266 . S
O656 C653 1.252 . S
O657 In650 2.326 . S
O657 C653 1.260 . S
O658 In650 2.266 . S
O658 C655 1.252 . S
O659 In650 2.326 . S
O659 C655 1.260 . S
C660 O651 1.240 . S
C660 O652 1.252 . S
O661 In650 2.294 . S
O661 C654 1.240 . S
O662 In650 2.326 . S
O662 C654 1.252 . S
In663 O664 2.294 . S
In663 O665 2.326 . S
In663 O669 2.266 . S
In663 O670 2.326 . S
In663 O671 2.266 . S
In663 O672 2.326 . S
In663 O674 2.294 . S
In663 O675 2.326 . S
O664 In663 2.294 . S
O664 C673 1.240 . S
O665 In663 2.326 . S
O665 C673 1.252 . S
C666 O669 1.252 . S
C666 O670 1.260 . S
C667 O674 1.240 . S
C667 O675 1.252 . S
C668 O671 1.252 . S
C668 O672 1.260 . S
O669 In663 2.266 . S
O669 C666 1.252 . S
O670 In663 2.326 . S
O670 C666 1.260 . S
O671 In663 2.266 . S
O671 C668 1.252 . S
O672 In663 2.326 . S
O672 C668 1.260 . S
C673 O664 1.240 . S
C673 O665 1.252 . S
O674 In663 2.294 . S
O674 C667 1.240 . S
O675 In663 2.326 . S
O675 C667 1.252 . S
In676 O677 2.294 . S
In676 O678 2.326 . S
In676 O682 2.266 . S
In676 O683 2.326 . S
In676 O684 2.266 . S
In676 O685 2.326 . S
In676 O687 2.294 . S
In676 O688 2.326 . S
O677 In676 2.294 . S
O677 C686 1.240 . S
O678 In676 2.326 . S
O678 C686 1.252 . S
C679 O682 1.252 . S
C679 O683 1.260 . S
C680 O687 1.240 . S
C680 O688 1.252 . S
C681 O684 1.252 . S
C681 O685 1.260 . S
O682 In676 2.266 . S
O682 C679 1.252 . S
O683 In676 2.326 . S
O683 C679 1.260 . S
O684 In676 2.266 . S
O684 C681 1.252 . S
O685 In676 2.326 . S
O685 C681 1.260 . S
C686 O677 1.240 . S
C686 O678 1.252 . S
O687 In676 2.294 . S
O687 C680 1.240 . S
O688 In676 2.326 . S
O688 C680 1.252 . S
In689 O690 2.294 . S
In689 O691 2.326 . S
In689 O695 2.266 . S
In689 O696 2.326 . S
In689 O697 2.266 . S
In689 O698 2.326 . S
In689 O700 2.294 . S
In689 O701 2.326 . S
O690 In689 2.294 . S
O690 C699 1.240 . S
O691 In689 2.326 . S
O691 C699 1.252 . S
C692 O695 1.252 . S
C692 O696 1.260 . S
C693 O700 1.240 . S
C693 O701 1.252 . S
C694 O697 1.252 . S
C694 O698 1.260 . S
O695 In689 2.266 . S
O695 C692 1.252 . S
O696 In689 2.326 . S
O696 C692 1.260 . S
O697 In689 2.266 . S
O697 C694 1.252 . S
O698 In689 2.326 . S
O698 C694 1.260 . S
C699 O690 1.240 . S
C699 O691 1.252 . S
O700 In689 2.294 . S
O700 C693 1.240 . S
O701 In689 2.326 . S
O701 C693 1.252 . S
In702 O703 2.294 . S
In702 O704 2.326 . S
In702 O708 2.266 . S
In702 O709 2.326 . S
In702 O710 2.266 . S
In702 O711 2.326 . S
In702 O713 2.294 . S
In702 O714 2.326 . S
O703 In702 2.294 . S
O703 C712 1.240 . S
O704 In702 2.326 . S
O704 C712 1.252 . S
C705 O708 1.252 . S
C705 O709 1.260 . S
C706 O713 1.240 . S
C706 O714 1.252 . S
C707 O710 1.252 . S
C707 O711 1.260 . S
O708 In702 2.266 . S
O708 C705 1.252 . S
O709 In702 2.326 . S
O709 C705 1.260 . S
O710 In702 2.266 . S
O710 C707 1.252 . S
O711 In702 2.326 . S
O711 C707 1.260 . S
C712 O703 1.240 . S
C712 O704 1.252 . S
O713 In702 2.294 . S
O713 C706 1.240 . S
O714 In702 2.326 . S
O714 C706 1.252 . S
In715 O716 2.294 . S
In715 O717 2.326 . S
In715 O721 2.266 . S
In715 O722 2.326 . S
In715 O723 2.266 . S
In715 O724 2.326 . S
In715 O726 2.294 . S
In715 O727 2.326 . S
O716 In715 2.294 . S
O716 C725 1.240 . S
O717 In715 2.326 . S
O717 C725 1.252 . S
C718 O721 1.252 . S
C718 O722 1.260 . S
C719 O726 1.240 . S
C719 O727 1.252 . S
C720 O723 1.252 . S
C720 O724 1.260 . S
O721 In715 2.266 . S
O721 C718 1.252 . S
O722 In715 2.326 . S
O722 C718 1.260 . S
O723 In715 2.266 . S
O723 C720 1.252 . S
O724 In715 2.326 . S
O724 C720 1.260 . S
C725 O716 1.240 . S
C725 O717 1.252 . S
O726 In715 2.294 . S
O726 C719 1.240 . S
O727 In715 2.326 . S
O727 C719 1.252 . S
In728 O729 2.294 . S
In728 O730 2.326 . S
In728 O734 2.266 . S
In728 O735 2.326 . S
In728 O736 2.266 . S
In728 O737 2.326 . S
In728 O739 2.294 . S
In728 O740 2.326 . S
O729 In728 2.294 . S
O729 C738 1.240 . S
O730 In728 2.326 . S
O730 C738 1.252 . S
C731 O734 1.252 . S
C731 O735 1.260 . S
C732 O739 1.240 . S
C732 O740 1.252 . S
C733 O736 1.252 . S
C733 O737 1.260 . S
O734 In728 2.266 . S
O734 C731 1.252 . S
O735 In728 2.326 . S
O735 C731 1.260 . S
O736 In728 2.266 . S
O736 C733 1.252 . S
O737 In728 2.326 . S
O737 C733 1.260 . S
C738 O729 1.240 . S
C738 O730 1.252 . S
O739 In728 2.294 . S
O739 C732 1.240 . S
O740 In728 2.326 . S
O740 C732 1.252 . S
In741 O742 2.294 . S
In741 O743 2.326 . S
In741 O747 2.266 . S
In741 O748 2.326 . S
In741 O749 2.266 . S
In741 O750 2.326 . S
In741 O752 2.294 . S
In741 O753 2.326 . S
O742 In741 2.294 . S
O742 C751 1.240 . S
O743 In741 2.326 . S
O743 C751 1.252 . S
C744 O747 1.252 . S
C744 O748 1.260 . S
C745 O752 1.240 . S
C745 O753 1.252 . S
C746 O749 1.252 . S
C746 O750 1.260 . S
O747 In741 2.266 . S
O747 C744 1.252 . S
O748 In741 2.326 . S
O748 C744 1.260 . S
O749 In741 2.266 . S
O749 C746 1.252 . S
O750 In741 2.326 . S
O750 C746 1.260 . S
C751 O742 1.240 . S
C751 O743 1.252 . S
O752 In741 2.294 . S
O752 C745 1.240 . S
O753 In741 2.326 . S
O753 C745 1.252 . S
In754 O755 2.294 . S
In754 O756 2.326 . S
In754 O760 2.266 . S
In754 O761 2.326 . S
In754 O762 2.266 . S
In754 O763 2.326 . S
In754 O765 2.294 . S
In754 O766 2.326 . S
O755 In754 2.294 . S
O755 C764 1.240 . S
O756 In754 2.326 . S
O756 C764 1.252 . S
C757 O760 1.252 . S
C757 O761 1.260 . S
C758 O765 1.240 . S
C758 O766 1.252 . S
C759 O762 1.252 . S
C759 O763 1.260 . S
O760 In754 2.266 . S
O760 C757 1.252 . S
O761 In754 2.326 . S
O761 C757 1.260 . S
O762 In754 2.266 . S
O762 C759 1.252 . S
O763 In754 2.326 . S
O763 C759 1.260 . S
C764 O755 1.240 . S
C764 O756 1.252 . S
O765 In754 2.294 . S
O765 C758 1.240 . S
O766 In754 2.326 . S
O766 C758 1.252 . S
In767 O768 2.294 . S
In767 O769 2.326 . S
In767 O773 2.266 . S
In767 O774 2.326 . S
In767 O775 2.266 . S
In767 O776 2.326 . S
In767 O778 2.294 . S
In767 O779 2.326 . S
O768 In767 2.294 . S
O768 C777 1.240 . S
O769 In767 2.326 . S
O769 C777 1.252 . S
C770 O773 1.252 . S
C770 O774 1.260 . S
C771 O778 1.240 . S
C771 O779 1.252 . S
C772 O775 1.252 . S
C772 O776 1.260 . S
O773 In767 2.266 . S
O773 C770 1.252 . S
O774 In767 2.326 . S
O774 C770 1.260 . S
O775 In767 2.266 . S
O775 C772 1.252 . S
O776 In767 2.326 . S
O776 C772 1.260 . S
C777 O768 1.240 . S
C777 O769 1.252 . S
O778 In767 2.294 . S
O778 C771 1.240 . S
O779 In767 2.326 . S
O779 C771 1.252 . S
In780 O781 2.294 . S
In780 O782 2.326 . S
In780 O786 2.266 . S
In780 O787 2.326 . S
In780 O788 2.266 . S
In780 O789 2.326 . S
In780 O791 2.294 . S
In780 O792 2.326 . S
O781 In780 2.294 . S
O781 C790 1.240 . S
O782 In780 2.326 . S
O782 C790 1.252 . S
C783 O786 1.252 . S
C783 O787 1.260 . S
C784 O791 1.240 . S
C784 O792 1.252 . S
C785 O788 1.252 . S
C785 O789 1.260 . S
O786 In780 2.266 . S
O786 C783 1.252 . S
O787 In780 2.326 . S
O787 C783 1.260 . S
O788 In780 2.266 . S
O788 C785 1.252 . S
O789 In780 2.326 . S
O789 C785 1.260 . S
C790 O781 1.240 . S
C790 O782 1.252 . S
O791 In780 2.294 . S
O791 C784 1.240 . S
O792 In780 2.326 . S
O792 C784 1.252 . S
In793 O794 2.294 . S
In793 O795 2.326 . S
In793 O799 2.266 . S
In793 O800 2.326 . S
In793 O801 2.266 . S
In793 O802 2.326 . S
In793 O804 2.294 . S
In793 O805 2.326 . S
O794 In793 2.294 . S
O794 C803 1.240 . S
O795 In793 2.326 . S
O795 C803 1.252 . S
C796 O799 1.252 . S
C796 O800 1.260 . S
C797 O804 1.240 . S
C797 O805 1.252 . S
C798 O801 1.252 . S
C798 O802 1.260 . S
O799 In793 2.266 . S
O799 C796 1.252 . S
O800 In793 2.326 . S
O800 C796 1.260 . S
O801 In793 2.266 . S
O801 C798 1.252 . S
O802 In793 2.326 . S
O802 C798 1.260 . S
C803 O794 1.240 . S
C803 O795 1.252 . S
O804 In793 2.294 . S
O804 C797 1.240 . S
O805 In793 2.326 . S
O805 C797 1.252 . S
In806 O807 2.294 . S
In806 O808 2.326 . S
In806 O812 2.266 . S
In806 O813 2.326 . S
In806 O814 2.266 . S
In806 O815 2.326 . S
In806 O817 2.294 . S
In806 O818 2.326 . S
O807 In806 2.294 . S
O807 C816 1.240 . S
O808 In806 2.326 . S
O808 C816 1.252 . S
C809 O812 1.252 . S
C809 O813 1.260 . S
C810 O817 1.240 . S
C810 O818 1.252 . S
C811 O814 1.252 . S
C811 O815 1.260 . S
O812 In806 2.266 . S
O812 C809 1.252 . S
O813 In806 2.326 . S
O813 C809 1.260 . S
O814 In806 2.266 . S
O814 C811 1.252 . S
O815 In806 2.326 . S
O815 C811 1.260 . S
C816 O807 1.240 . S
C816 O808 1.252 . S
O817 In806 2.294 . S
O817 C810 1.240 . S
O818 In806 2.326 . S
O818 C810 1.252 . S
In819 O820 2.294 . S
In819 O821 2.326 . S
In819 O825 2.266 . S
In819 O826 2.326 . S
In819 O827 2.266 . S
In819 O828 2.326 . S
In819 O830 2.294 . S
In819 O831 2.326 . S
O820 In819 2.294 . S
O820 C829 1.240 . S
O821 In819 2.326 . S
O821 C829 1.252 . S
C822 O825 1.252 . S
C822 O826 1.260 . S
C823 O830 1.240 . S
C823 O831 1.252 . S
C824 O827 1.252 . S
C824 O828 1.260 . S
O825 In819 2.266 . S
O825 C822 1.252 . S
O826 In819 2.326 . S
O826 C822 1.260 . S
O827 In819 2.266 . S
O827 C824 1.252 . S
O828 In819 2.326 . S
O828 C824 1.260 . S
C829 O820 1.240 . S
C829 O821 1.252 . S
O830 In819 2.294 . S
O830 C823 1.240 . S
O831 In819 2.326 . S
O831 C823 1.252 . S
In832 O833 2.294 . S
In832 O834 2.326 . S
In832 O838 2.266 . S
In832 O839 2.326 . S
In832 O840 2.266 . S
In832 O841 2.326 . S
In832 O843 2.294 . S
In832 O844 2.326 . S
O833 In832 2.294 . S
O833 C842 1.240 . S
O834 In832 2.326 . S
O834 C842 1.252 . S
C835 O838 1.252 . S
C835 O839 1.260 . S
C836 O843 1.240 . S
C836 O844 1.252 . S
C837 O840 1.252 . S
C837 O841 1.260 . S
O838 In832 2.266 . S
O838 C835 1.252 . S
O839 In832 2.326 . S
O839 C835 1.260 . S
O840 In832 2.266 . S
O840 C837 1.252 . S
O841 In832 2.326 . S
O841 C837 1.260 . S
C842 O833 1.240 . S
C842 O834 1.252 . S
O843 In832 2.294 . S
O843 C836 1.240 . S
O844 In832 2.326 . S
O844 C836 1.252 . S
In845 O846 2.294 . S
In845 O847 2.326 . S
In845 O851 2.266 . S
In845 O852 2.326 . S
In845 O853 2.266 . S
In845 O854 2.326 . S
In845 O856 2.294 . S
In845 O857 2.326 . S
O846 In845 2.294 . S
O846 C855 1.240 . S
O847 In845 2.326 . S
O847 C855 1.252 . S
C848 O851 1.252 . S
C848 O852 1.260 . S
C849 O856 1.240 . S
C849 O857 1.252 . S
C850 O853 1.252 . S
C850 O854 1.260 . S
O851 In845 2.266 . S
O851 C848 1.252 . S
O852 In845 2.326 . S
O852 C848 1.260 . S
O853 In845 2.266 . S
O853 C850 1.252 . S
O854 In845 2.326 . S
O854 C850 1.260 . S
C855 O846 1.240 . S
C855 O847 1.252 . S
O856 In845 2.294 . S
O856 C849 1.240 . S
O857 In845 2.326 . S
O857 C849 1.252 . S
In858 O859 2.294 . S
In858 O860 2.326 . S
In858 O864 2.266 . S
In858 O865 2.326 . S
In858 O866 2.266 . S
In858 O867 2.326 . S
In858 O869 2.294 . S
In858 O870 2.326 . S
O859 In858 2.294 . S
O859 C868 1.240 . S
O860 In858 2.326 . S
O860 C868 1.252 . S
C861 O864 1.252 . S
C861 O865 1.260 . S
C862 O869 1.240 . S
C862 O870 1.252 . S
C863 O866 1.252 . S
C863 O867 1.260 . S
O864 In858 2.266 . S
O864 C861 1.252 . S
O865 In858 2.326 . S
O865 C861 1.260 . S
O866 In858 2.266 . S
O866 C863 1.252 . S
O867 In858 2.326 . S
O867 C863 1.260 . S
C868 O859 1.240 . S
C868 O860 1.252 . S
O869 In858 2.294 . S
O869 C862 1.240 . S
O870 In858 2.326 . S
O870 C862 1.252 . S
In871 O872 2.294 . S
In871 O873 2.326 . S
In871 O877 2.266 . S
In871 O878 2.326 . S
In871 O879 2.266 . S
In871 O880 2.326 . S
In871 O882 2.294 . S
In871 O883 2.326 . S
O872 In871 2.294 . S
O872 C881 1.240 . S
O873 In871 2.326 . S
O873 C881 1.252 . S
C874 O877 1.252 . S
C874 O878 1.260 . S
C875 O882 1.240 . S
C875 O883 1.252 . S
C876 O879 1.252 . S
C876 O880 1.260 . S
O877 In871 2.266 . S
O877 C874 1.252 . S
O878 In871 2.326 . S
O878 C874 1.260 . S
O879 In871 2.266 . S
O879 C876 1.252 . S
O880 In871 2.326 . S
O880 C876 1.260 . S
C881 O872 1.240 . S
C881 O873 1.252 . S
O882 In871 2.294 . S
O882 C875 1.240 . S
O883 In871 2.326 . S
O883 C875 1.252 . S
In884 O885 2.294 . S
In884 O886 2.326 . S
In884 O890 2.266 . S
In884 O891 2.326 . S
In884 O892 2.266 . S
In884 O893 2.326 . S
In884 O895 2.294 . S
In884 O896 2.326 . S
O885 In884 2.294 . S
O885 C894 1.240 . S
O886 In884 2.326 . S
O886 C894 1.252 . S
C887 O890 1.252 . S
C887 O891 1.260 . S
C888 O895 1.240 . S
C888 O896 1.252 . S
C889 O892 1.252 . S
C889 O893 1.260 . S
O890 In884 2.266 . S
O890 C887 1.252 . S
O891 In884 2.326 . S
O891 C887 1.260 . S
O892 In884 2.266 . S
O892 C889 1.252 . S
O893 In884 2.326 . S
O893 C889 1.260 . S
C894 O885 1.240 . S
C894 O886 1.252 . S
O895 In884 2.294 . S
O895 C888 1.240 . S
O896 In884 2.326 . S
O896 C888 1.252 . S
In897 O898 2.294 . S
In897 O899 2.326 . S
In897 O903 2.266 . S
In897 O904 2.326 . S
In897 O905 2.266 . S
In897 O906 2.326 . S
In897 O908 2.294 . S
In897 O909 2.326 . S
O898 In897 2.294 . S
O898 C907 1.240 . S
O899 In897 2.326 . S
O899 C907 1.252 . S
C900 O903 1.252 . S
C900 O904 1.260 . S
C901 O908 1.240 . S
C901 O909 1.252 . S
C902 O905 1.252 . S
C902 O906 1.260 . S
O903 In897 2.266 . S
O903 C900 1.252 . S
O904 In897 2.326 . S
O904 C900 1.260 . S
O905 In897 2.266 . S
O905 C902 1.252 . S
O906 In897 2.326 . S
O906 C902 1.260 . S
C907 O898 1.240 . S
C907 O899 1.252 . S
O908 In897 2.294 . S
O908 C901 1.240 . S
O909 In897 2.326 . S
O909 C901 1.252 . S
In910 O911 2.294 . S
In910 O912 2.326 . S
In910 O916 2.266 . S
In910 O917 2.326 . S
In910 O918 2.266 . S
In910 O919 2.326 . S
In910 O921 2.294 . S
In910 O922 2.326 . S
O911 In910 2.294 . S
O911 C920 1.240 . S
O912 In910 2.326 . S
O912 C920 1.252 . S
C913 O916 1.252 . S
C913 O917 1.260 . S
C914 O921 1.240 . S
C914 O922 1.252 . S
C915 O918 1.252 . S
C915 O919 1.260 . S
O916 In910 2.266 . S
O916 C913 1.252 . S
O917 In910 2.326 . S
O917 C913 1.260 . S
O918 In910 2.266 . S
O918 C915 1.252 . S
O919 In910 2.326 . S
O919 C915 1.260 . S
C920 O911 1.240 . S
C920 O912 1.252 . S
O921 In910 2.294 . S
O921 C914 1.240 . S
O922 In910 2.326 . S
O922 C914 1.252 . S
In923 O924 2.294 . S
In923 O925 2.326 . S
In923 O929 2.266 . S
In923 O930 2.326 . S
In923 O931 2.266 . S
In923 O932 2.326 . S
In923 O934 2.294 . S
In923 O935 2.326 . S
O924 In923 2.294 . S
O924 C933 1.240 . S
O925 In923 2.326 . S
O925 C933 1.252 . S
C926 O929 1.252 . S
C926 O930 1.260 . S
C927 O934 1.240 . S
C927 O935 1.252 . S
C928 O931 1.252 . S
C928 O932 1.260 . S
O929 In923 2.266 . S
O929 C926 1.252 . S
O930 In923 2.326 . S
O930 C926 1.260 . S
O931 In923 2.266 . S
O931 C928 1.252 . S
O932 In923 2.326 . S
O932 C928 1.260 . S
C933 O924 1.240 . S
C933 O925 1.252 . S
O934 In923 2.294 . S
O934 C927 1.240 . S
O935 In923 2.326 . S
O935 C927 1.252 . S
In936 O937 2.294 . S
In936 O938 2.326 . S
In936 O942 2.266 . S
In936 O943 2.326 . S
In936 O944 2.266 . S
In936 O945 2.326 . S
In936 O947 2.294 . S
In936 O948 2.326 . S
O937 In936 2.294 . S
O937 C946 1.240 . S
O938 In936 2.326 . S
O938 C946 1.252 . S
C939 O942 1.252 . S
C939 O943 1.260 . S
C940 O947 1.240 . S
C940 O948 1.252 . S
C941 O944 1.252 . S
C941 O945 1.260 . S
O942 In936 2.266 . S
O942 C939 1.252 . S
O943 In936 2.326 . S
O943 C939 1.260 . S
O944 In936 2.266 . S
O944 C941 1.252 . S
O945 In936 2.326 . S
O945 C941 1.260 . S
C946 O937 1.240 . S
C946 O938 1.252 . S
O947 In936 2.294 . S
O947 C940 1.240 . S
O948 In936 2.326 . S
O948 C940 1.252 . S
In949 O950 2.294 . S
In949 O951 2.326 . S
In949 O955 2.266 . S
In949 O956 2.326 . S
In949 O957 2.266 . S
In949 O958 2.326 . S
In949 O960 2.294 . S
In949 O961 2.326 . S
O950 In949 2.294 . S
O950 C959 1.240 . S
O951 In949 2.326 . S
O951 C959 1.252 . S
C952 O955 1.252 . S
C952 O956 1.260 . S
C953 O960 1.240 . S
C953 O961 1.252 . S
C954 O957 1.252 . S
C954 O958 1.260 . S
O955 In949 2.266 . S
O955 C952 1.252 . S
O956 In949 2.326 . S
O956 C952 1.260 . S
O957 In949 2.266 . S
O957 C954 1.252 . S
O958 In949 2.326 . S
O958 C954 1.260 . S
C959 O950 1.240 . S
C959 O951 1.252 . S
O960 In949 2.294 . S
O960 C953 1.240 . S
O961 In949 2.326 . S
O961 C953 1.252 . S
In962 O963 2.294 . S
In962 O964 2.326 . S
In962 O968 2.266 . S
In962 O969 2.326 . S
In962 O970 2.266 . S
In962 O971 2.326 . S
In962 O973 2.294 . S
In962 O974 2.326 . S
O963 In962 2.294 . S
O963 C972 1.240 . S
O964 In962 2.326 . S
O964 C972 1.252 . S
C965 O968 1.252 . S
C965 O969 1.260 . S
C966 O973 1.240 . S
C966 O974 1.252 . S
C967 O970 1.252 . S
C967 O971 1.260 . S
O968 In962 2.266 . S
O968 C965 1.252 . S
O969 In962 2.326 . S
O969 C965 1.260 . S
O970 In962 2.266 . S
O970 C967 1.252 . S
O971 In962 2.326 . S
O971 C967 1.260 . S
C972 O963 1.240 . S
C972 O964 1.252 . S
O973 In962 2.294 . S
O973 C966 1.240 . S
O974 In962 2.326 . S
O974 C966 1.252 . S
In975 O976 2.294 . S
In975 O977 2.326 . S
In975 O981 2.266 . S
In975 O982 2.326 . S
In975 O983 2.266 . S
In975 O984 2.326 . S
In975 O986 2.294 . S
In975 O987 2.326 . S
O976 In975 2.294 . S
O976 C985 1.240 . S
O977 In975 2.326 . S
O977 C985 1.252 . S
C978 O981 1.252 . S
C978 O982 1.260 . S
C979 O986 1.240 . S
C979 O987 1.252 . S
C980 O983 1.252 . S
C980 O984 1.260 . S
O981 In975 2.266 . S
O981 C978 1.252 . S
O982 In975 2.326 . S
O982 C978 1.260 . S
O983 In975 2.266 . S
O983 C980 1.252 . S
O984 In975 2.326 . S
O984 C980 1.260 . S
C985 O976 1.240 . S
C985 O977 1.252 . S
O986 In975 2.294 . S
O986 C979 1.240 . S
O987 In975 2.326 . S
O987 C979 1.252 . S
In988 O989 2.294 . S
In988 O990 2.326 . S
In988 O994 2.266 . S
In988 O995 2.326 . S
In988 O996 2.266 . S
In988 O997 2.326 . S
In988 O999 2.294 . S
In988 O1000 2.326 . S
O989 In988 2.294 . S
O989 C998 1.240 . S
O990 In988 2.326 . S
O990 C998 1.252 . S
C991 O994 1.252 . S
C991 O995 1.260 . S
C992 O999 1.240 . S
C992 O1000 1.252 . S
C993 O996 1.252 . S
C993 O997 1.260 . S
O994 In988 2.266 . S
O994 C991 1.252 . S
O995 In988 2.326 . S
O995 C991 1.260 . S
O996 In988 2.266 . S
O996 C993 1.252 . S
O997 In988 2.326 . S
O997 C993 1.260 . S
C998 O989 1.240 . S
C998 O990 1.252 . S
O999 In988 2.294 . S
O999 C992 1.240 . S
O1000 In988 2.326 . S
O1000 C992 1.252 . S
In1001 O1002 2.294 . S
In1001 O1003 2.326 . S
In1001 O1007 2.266 . S
In1001 O1008 2.326 . S
In1001 O1009 2.266 . S
In1001 O1010 2.326 . S
In1001 O1012 2.294 . S
In1001 O1013 2.326 . S
O1002 In1001 2.294 . S
O1002 C1011 1.240 . S
O1003 In1001 2.326 . S
O1003 C1011 1.252 . S
C1004 O1007 1.252 . S
C1004 O1008 1.260 . S
C1005 O1012 1.240 . S
C1005 O1013 1.252 . S
C1006 O1009 1.252 . S
C1006 O1010 1.260 . S
O1007 In1001 2.266 . S
O1007 C1004 1.252 . S
O1008 In1001 2.326 . S
O1008 C1004 1.260 . S
O1009 In1001 2.266 . S
O1009 C1006 1.252 . S
O1010 In1001 2.326 . S
O1010 C1006 1.260 . S
C1011 O1002 1.240 . S
C1011 O1003 1.252 . S
O1012 In1001 2.294 . S
O1012 C1005 1.240 . S
O1013 In1001 2.326 . S
O1013 C1005 1.252 . S
In1014 O1015 2.294 . S
In1014 O1016 2.326 . S
In1014 O1020 2.266 . S
In1014 O1021 2.326 . S
In1014 O1022 2.266 . S
In1014 O1023 2.326 . S
In1014 O1025 2.294 . S
In1014 O1026 2.326 . S
O1015 In1014 2.294 . S
O1015 C1024 1.240 . S
O1016 In1014 2.326 . S
O1016 C1024 1.252 . S
C1017 O1020 1.252 . S
C1017 O1021 1.260 . S
C1018 O1025 1.240 . S
C1018 O1026 1.252 . S
C1019 O1022 1.252 . S
C1019 O1023 1.260 . S
O1020 In1014 2.266 . S
O1020 C1017 1.252 . S
O1021 In1014 2.326 . S
O1021 C1017 1.260 . S
O1022 In1014 2.266 . S
O1022 C1019 1.252 . S
O1023 In1014 2.326 . S
O1023 C1019 1.260 . S
C1024 O1015 1.240 . S
C1024 O1016 1.252 . S
O1025 In1014 2.294 . S
O1025 C1018 1.240 . S
O1026 In1014 2.326 . S
O1026 C1018 1.252 . S
In1027 O1028 2.294 . S
In1027 O1029 2.326 . S
In1027 O1033 2.266 . S
In1027 O1034 2.326 . S
In1027 O1035 2.266 . S
In1027 O1036 2.326 . S
In1027 O1038 2.294 . S
In1027 O1039 2.326 . S
O1028 In1027 2.294 . S
O1028 C1037 1.240 . S
O1029 In1027 2.326 . S
O1029 C1037 1.252 . S
C1030 O1033 1.252 . S
C1030 O1034 1.260 . S
C1031 O1038 1.240 . S
C1031 O1039 1.252 . S
C1032 O1035 1.252 . S
C1032 O1036 1.260 . S
O1033 In1027 2.266 . S
O1033 C1030 1.252 . S
O1034 In1027 2.326 . S
O1034 C1030 1.260 . S
O1035 In1027 2.266 . S
O1035 C1032 1.252 . S
O1036 In1027 2.326 . S
O1036 C1032 1.260 . S
C1037 O1028 1.240 . S
C1037 O1029 1.252 . S
O1038 In1027 2.294 . S
O1038 C1031 1.240 . S
O1039 In1027 2.326 . S
O1039 C1031 1.252 . S
In1040 O1041 2.294 . S
In1040 O1042 2.326 . S
In1040 O1046 2.266 . S
In1040 O1047 2.326 . S
In1040 O1048 2.266 . S
In1040 O1049 2.326 . S
In1040 O1051 2.294 . S
In1040 O1052 2.326 . S
O1041 In1040 2.294 . S
O1041 C1050 1.240 . S
O1042 In1040 2.326 . S
O1042 C1050 1.252 . S
C1043 O1046 1.252 . S
C1043 O1047 1.260 . S
C1044 O1051 1.240 . S
C1044 O1052 1.252 . S
C1045 O1048 1.252 . S
C1045 O1049 1.260 . S
O1046 In1040 2.266 . S
O1046 C1043 1.252 . S
O1047 In1040 2.326 . S
O1047 C1043 1.260 . S
O1048 In1040 2.266 . S
O1048 C1045 1.252 . S
O1049 In1040 2.326 . S
O1049 C1045 1.260 . S
C1050 O1041 1.240 . S
C1050 O1042 1.252 . S
O1051 In1040 2.294 . S
O1051 C1044 1.240 . S
O1052 In1040 2.326 . S
O1052 C1044 1.252 . S
In1053 O1054 2.294 . S
In1053 O1055 2.326 . S
In1053 O1059 2.266 . S
In1053 O1060 2.326 . S
In1053 O1061 2.266 . S
In1053 O1062 2.326 . S
In1053 O1064 2.294 . S
In1053 O1065 2.326 . S
O1054 In1053 2.294 . S
O1054 C1063 1.240 . S
O1055 In1053 2.326 . S
O1055 C1063 1.252 . S
C1056 O1059 1.252 . S
C1056 O1060 1.260 . S
C1057 O1064 1.240 . S
C1057 O1065 1.252 . S
C1058 O1061 1.252 . S
C1058 O1062 1.260 . S
O1059 In1053 2.266 . S
O1059 C1056 1.252 . S
O1060 In1053 2.326 . S
O1060 C1056 1.260 . S
O1061 In1053 2.266 . S
O1061 C1058 1.252 . S
O1062 In1053 2.326 . S
O1062 C1058 1.260 . S
C1063 O1054 1.240 . S
C1063 O1055 1.252 . S
O1064 In1053 2.294 . S
O1064 C1057 1.240 . S
O1065 In1053 2.326 . S
O1065 C1057 1.252 . S
In1066 O1067 2.294 . S
In1066 O1068 2.326 . S
In1066 O1072 2.266 . S
In1066 O1073 2.326 . S
In1066 O1074 2.266 . S
In1066 O1075 2.326 . S
In1066 O1077 2.294 . S
In1066 O1078 2.326 . S
O1067 In1066 2.294 . S
O1067 C1076 1.240 . S
O1068 In1066 2.326 . S
O1068 C1076 1.252 . S
C1069 O1072 1.252 . S
C1069 O1073 1.260 . S
C1070 O1077 1.240 . S
C1070 O1078 1.252 . S
C1071 O1074 1.252 . S
C1071 O1075 1.260 . S
O1072 In1066 2.266 . S
O1072 C1069 1.252 . S
O1073 In1066 2.326 . S
O1073 C1069 1.260 . S
O1074 In1066 2.266 . S
O1074 C1071 1.252 . S
O1075 In1066 2.326 . S
O1075 C1071 1.260 . S
C1076 O1067 1.240 . S
C1076 O1068 1.252 . S
O1077 In1066 2.294 . S
O1077 C1070 1.240 . S
O1078 In1066 2.326 . S
O1078 C1070 1.252 . S
In1079 O1080 2.294 . S
In1079 O1081 2.326 . S
In1079 O1085 2.266 . S
In1079 O1086 2.326 . S
In1079 O1087 2.266 . S
In1079 O1088 2.326 . S
In1079 O1090 2.294 . S
In1079 O1091 2.326 . S
O1080 In1079 2.294 . S
O1080 C1089 1.240 . S
O1081 In1079 2.326 . S
O1081 C1089 1.252 . S
C1082 O1085 1.252 . S
C1082 O1086 1.260 . S
C1083 O1090 1.240 . S
C1083 O1091 1.252 . S
C1084 O1087 1.252 . S
C1084 O1088 1.260 . S
O1085 In1079 2.266 . S
O1085 C1082 1.252 . S
O1086 In1079 2.326 . S
O1086 C1082 1.260 . S
O1087 In1079 2.266 . S
O1087 C1084 1.252 . S
O1088 In1079 2.326 . S
O1088 C1084 1.260 . S
C1089 O1080 1.240 . S
C1089 O1081 1.252 . S
O1090 In1079 2.294 . S
O1090 C1083 1.240 . S
O1091 In1079 2.326 . S
O1091 C1083 1.252 . S
In1092 O1093 2.294 . S
In1092 O1094 2.326 . S
In1092 O1098 2.266 . S
In1092 O1099 2.326 . S
In1092 O1100 2.266 . S
In1092 O1101 2.326 . S
In1092 O1103 2.294 . S
In1092 O1104 2.326 . S
O1093 In1092 2.294 . S
O1093 C1102 1.240 . S
O1094 In1092 2.326 . S
O1094 C1102 1.252 . S
C1095 O1098 1.252 . S
C1095 O1099 1.260 . S
C1096 O1103 1.240 . S
C1096 O1104 1.252 . S
C1097 O1100 1.252 . S
C1097 O1101 1.260 . S
O1098 In1092 2.266 . S
O1098 C1095 1.252 . S
O1099 In1092 2.326 . S
O1099 C1095 1.260 . S
O1100 In1092 2.266 . S
O1100 C1097 1.252 . S
O1101 In1092 2.326 . S
O1101 C1097 1.260 . S
C1102 O1093 1.240 . S
C1102 O1094 1.252 . S
O1103 In1092 2.294 . S
O1103 C1096 1.240 . S
O1104 In1092 2.326 . S
O1104 C1096 1.252 . S
In1105 O1106 2.294 . S
In1105 O1107 2.326 . S
In1105 O1111 2.266 . S
In1105 O1112 2.326 . S
In1105 O1113 2.266 . S
In1105 O1114 2.326 . S
In1105 O1116 2.294 . S
In1105 O1117 2.326 . S
O1106 In1105 2.294 . S
O1106 C1115 1.240 . S
O1107 In1105 2.326 . S
O1107 C1115 1.252 . S
C1108 O1111 1.252 . S
C1108 O1112 1.260 . S
C1109 O1116 1.240 . S
C1109 O1117 1.252 . S
C1110 O1113 1.252 . S
C1110 O1114 1.260 . S
O1111 In1105 2.266 . S
O1111 C1108 1.252 . S
O1112 In1105 2.326 . S
O1112 C1108 1.260 . S
O1113 In1105 2.266 . S
O1113 C1110 1.252 . S
O1114 In1105 2.326 . S
O1114 C1110 1.260 . S
C1115 O1106 1.240 . S
C1115 O1107 1.252 . S
O1116 In1105 2.294 . S
O1116 C1109 1.240 . S
O1117 In1105 2.326 . S
O1117 C1109 1.252 . S
In1118 O1119 2.294 . S
In1118 O1120 2.326 . S
In1118 O1124 2.266 . S
In1118 O1125 2.326 . S
In1118 O1126 2.266 . S
In1118 O1127 2.326 . S
In1118 O1129 2.294 . S
In1118 O1130 2.326 . S
O1119 In1118 2.294 . S
O1119 C1128 1.240 . S
O1120 In1118 2.326 . S
O1120 C1128 1.252 . S
C1121 O1124 1.252 . S
C1121 O1125 1.260 . S
C1122 O1129 1.240 . S
C1122 O1130 1.252 . S
C1123 O1126 1.252 . S
C1123 O1127 1.260 . S
O1124 In1118 2.266 . S
O1124 C1121 1.252 . S
O1125 In1118 2.326 . S
O1125 C1121 1.260 . S
O1126 In1118 2.266 . S
O1126 C1123 1.252 . S
O1127 In1118 2.326 . S
O1127 C1123 1.260 . S
C1128 O1119 1.240 . S
C1128 O1120 1.252 . S
O1129 In1118 2.294 . S
O1129 C1122 1.240 . S
O1130 In1118 2.326 . S
O1130 C1122 1.252 . S
In1131 O1132 2.294 . S
In1131 O1133 2.326 . S
In1131 O1137 2.266 . S
In1131 O1138 2.326 . S
In1131 O1139 2.266 . S
In1131 O1140 2.326 . S
In1131 O1142 2.294 . S
In1131 O1143 2.326 . S
O1132 In1131 2.294 . S
O1132 C1141 1.240 . S
O1133 In1131 2.326 . S
O1133 C1141 1.252 . S
C1134 O1137 1.252 . S
C1134 O1138 1.260 . S
C1135 O1142 1.240 . S
C1135 O1143 1.252 . S
C1136 O1139 1.252 . S
C1136 O1140 1.260 . S
O1137 In1131 2.266 . S
O1137 C1134 1.252 . S
O1138 In1131 2.326 . S
O1138 C1134 1.260 . S
O1139 In1131 2.266 . S
O1139 C1136 1.252 . S
O1140 In1131 2.326 . S
O1140 C1136 1.260 . S
C1141 O1132 1.240 . S
C1141 O1133 1.252 . S
O1142 In1131 2.294 . S
O1142 C1135 1.240 . S
O1143 In1131 2.326 . S
O1143 C1135 1.252 . S
In1144 O1145 2.294 . S
In1144 O1146 2.326 . S
In1144 O1150 2.266 . S
In1144 O1151 2.326 . S
In1144 O1152 2.266 . S
In1144 O1153 2.326 . S
In1144 O1155 2.294 . S
In1144 O1156 2.326 . S
O1145 In1144 2.294 . S
O1145 C1154 1.240 . S
O1146 In1144 2.326 . S
O1146 C1154 1.252 . S
C1147 O1150 1.252 . S
C1147 O1151 1.260 . S
C1148 O1155 1.240 . S
C1148 O1156 1.252 . S
C1149 O1152 1.252 . S
C1149 O1153 1.260 . S
O1150 In1144 2.266 . S
O1150 C1147 1.252 . S
O1151 In1144 2.326 . S
O1151 C1147 1.260 . S
O1152 In1144 2.266 . S
O1152 C1149 1.252 . S
O1153 In1144 2.326 . S
O1153 C1149 1.260 . S
C1154 O1145 1.240 . S
C1154 O1146 1.252 . S
O1155 In1144 2.294 . S
O1155 C1148 1.240 . S
O1156 In1144 2.326 . S
O1156 C1148 1.252 . S
In1157 O1158 2.294 . S
In1157 O1159 2.326 . S
In1157 O1163 2.266 . S
In1157 O1164 2.326 . S
In1157 O1165 2.266 . S
In1157 O1166 2.326 . S
In1157 O1168 2.294 . S
In1157 O1169 2.326 . S
O1158 In1157 2.294 . S
O1158 C1167 1.240 . S
O1159 In1157 2.326 . S
O1159 C1167 1.252 . S
C1160 O1163 1.252 . S
C1160 O1164 1.260 . S
C1161 O1168 1.240 . S
C1161 O1169 1.252 . S
C1162 O1165 1.252 . S
C1162 O1166 1.260 . S
O1163 In1157 2.266 . S
O1163 C1160 1.252 . S
O1164 In1157 2.326 . S
O1164 C1160 1.260 . S
O1165 In1157 2.266 . S
O1165 C1162 1.252 . S
O1166 In1157 2.326 . S
O1166 C1162 1.260 . S
C1167 O1158 1.240 . S
C1167 O1159 1.252 . S
O1168 In1157 2.294 . S
O1168 C1161 1.240 . S
O1169 In1157 2.326 . S
O1169 C1161 1.252 . S
In1170 O1171 2.294 . S
In1170 O1172 2.326 . S
In1170 O1176 2.266 . S
In1170 O1177 2.326 . S
In1170 O1178 2.266 . S
In1170 O1179 2.326 . S
In1170 O1181 2.294 . S
In1170 O1182 2.326 . S
O1171 In1170 2.294 . S
O1171 C1180 1.240 . S
O1172 In1170 2.326 . S
O1172 C1180 1.252 . S
C1173 O1176 1.252 . S
C1173 O1177 1.260 . S
C1174 O1181 1.240 . S
C1174 O1182 1.252 . S
C1175 O1178 1.252 . S
C1175 O1179 1.260 . S
O1176 In1170 2.266 . S
O1176 C1173 1.252 . S
O1177 In1170 2.326 . S
O1177 C1173 1.260 . S
O1178 In1170 2.266 . S
O1178 C1175 1.252 . S
O1179 In1170 2.326 . S
O1179 C1175 1.260 . S
C1180 O1171 1.240 . S
C1180 O1172 1.252 . S
O1181 In1170 2.294 . S
O1181 C1174 1.240 . S
O1182 In1170 2.326 . S
O1182 C1174 1.252 . S
In1183 O1184 2.294 . S
In1183 O1185 2.326 . S
In1183 O1189 2.266 . S
In1183 O1190 2.326 . S
In1183 O1191 2.266 . S
In1183 O1192 2.326 . S
In1183 O1194 2.294 . S
In1183 O1195 2.326 . S
O1184 In1183 2.294 . S
O1184 C1193 1.240 . S
O1185 In1183 2.326 . S
O1185 C1193 1.252 . S
C1186 O1189 1.252 . S
C1186 O1190 1.260 . S
C1187 O1194 1.240 . S
C1187 O1195 1.252 . S
C1188 O1191 1.252 . S
C1188 O1192 1.260 . S
O1189 In1183 2.266 . S
O1189 C1186 1.252 . S
O1190 In1183 2.326 . S
O1190 C1186 1.260 . S
O1191 In1183 2.266 . S
O1191 C1188 1.252 . S
O1192 In1183 2.326 . S
O1192 C1188 1.260 . S
C1193 O1184 1.240 . S
C1193 O1185 1.252 . S
O1194 In1183 2.294 . S
O1194 C1187 1.240 . S
O1195 In1183 2.326 . S
O1195 C1187 1.252 . S
In1196 O1197 2.294 . S
In1196 O1198 2.326 . S
In1196 O1202 2.266 . S
In1196 O1203 2.326 . S
In1196 O1204 2.266 . S
In1196 O1205 2.326 . S
In1196 O1207 2.294 . S
In1196 O1208 2.326 . S
O1197 In1196 2.294 . S
O1197 C1206 1.240 . S
O1198 In1196 2.326 . S
O1198 C1206 1.252 . S
C1199 O1202 1.252 . S
C1199 O1203 1.260 . S
C1200 O1207 1.240 . S
C1200 O1208 1.252 . S
C1201 O1204 1.252 . S
C1201 O1205 1.260 . S
O1202 In1196 2.266 . S
O1202 C1199 1.252 . S
O1203 In1196 2.326 . S
O1203 C1199 1.260 . S
O1204 In1196 2.266 . S
O1204 C1201 1.252 . S
O1205 In1196 2.326 . S
O1205 C1201 1.260 . S
C1206 O1197 1.240 . S
C1206 O1198 1.252 . S
O1207 In1196 2.294 . S
O1207 C1200 1.240 . S
O1208 In1196 2.326 . S
O1208 C1200 1.252 . S
In1209 O1210 2.294 . S
In1209 O1211 2.326 . S
In1209 O1215 2.266 . S
In1209 O1216 2.326 . S
In1209 O1217 2.266 . S
In1209 O1218 2.326 . S
In1209 O1220 2.294 . S
In1209 O1221 2.326 . S
O1210 In1209 2.294 . S
O1210 C1219 1.240 . S
O1211 In1209 2.326 . S
O1211 C1219 1.252 . S
C1212 O1215 1.252 . S
C1212 O1216 1.260 . S
C1213 O1220 1.240 . S
C1213 O1221 1.252 . S
C1214 O1217 1.252 . S
C1214 O1218 1.260 . S
O1215 In1209 2.266 . S
O1215 C1212 1.252 . S
O1216 In1209 2.326 . S
O1216 C1212 1.260 . S
O1217 In1209 2.266 . S
O1217 C1214 1.252 . S
O1218 In1209 2.326 . S
O1218 C1214 1.260 . S
C1219 O1210 1.240 . S
C1219 O1211 1.252 . S
O1220 In1209 2.294 . S
O1220 C1213 1.240 . S
O1221 In1209 2.326 . S
O1221 C1213 1.252 . S
In1222 O1223 2.294 . S
In1222 O1224 2.326 . S
In1222 O1228 2.266 . S
In1222 O1229 2.326 . S
In1222 O1230 2.266 . S
In1222 O1231 2.326 . S
In1222 O1233 2.294 . S
In1222 O1234 2.326 . S
O1223 In1222 2.294 . S
O1223 C1232 1.240 . S
O1224 In1222 2.326 . S
O1224 C1232 1.252 . S
C1225 O1228 1.252 . S
C1225 O1229 1.260 . S
C1226 O1233 1.240 . S
C1226 O1234 1.252 . S
C1227 O1230 1.252 . S
C1227 O1231 1.260 . S
O1228 In1222 2.266 . S
O1228 C1225 1.252 . S
O1229 In1222 2.326 . S
O1229 C1225 1.260 . S
O1230 In1222 2.266 . S
O1230 C1227 1.252 . S
O1231 In1222 2.326 . S
O1231 C1227 1.260 . S
C1232 O1223 1.240 . S
C1232 O1224 1.252 . S
O1233 In1222 2.294 . S
O1233 C1226 1.240 . S
O1234 In1222 2.326 . S
O1234 C1226 1.252 . S
In1235 O1236 2.294 . S
In1235 O1237 2.326 . S
In1235 O1241 2.266 . S
In1235 O1242 2.326 . S
In1235 O1243 2.266 . S
In1235 O1244 2.326 . S
In1235 O1246 2.294 . S
In1235 O1247 2.326 . S
O1236 In1235 2.294 . S
O1236 C1245 1.240 . S
O1237 In1235 2.326 . S
O1237 C1245 1.252 . S
C1238 O1241 1.252 . S
C1238 O1242 1.260 . S
C1239 O1246 1.240 . S
C1239 O1247 1.252 . S
C1240 O1243 1.252 . S
C1240 O1244 1.260 . S
O1241 In1235 2.266 . S
O1241 C1238 1.252 . S
O1242 In1235 2.326 . S
O1242 C1238 1.260 . S
O1243 In1235 2.266 . S
O1243 C1240 1.252 . S
O1244 In1235 2.326 . S
O1244 C1240 1.260 . S
C1245 O1236 1.240 . S
C1245 O1237 1.252 . S
O1246 In1235 2.294 . S
O1246 C1239 1.240 . S
O1247 In1235 2.326 . S
O1247 C1239 1.252 . S
C1248 C1249 1.369 . S
C1248 C1250 1.419 . S
C1248 H1252 0.930 . S
C1249 C1248 1.369 . S
C1249 C1258 1.429 . S
C1250 C1248 1.419 . S
C1250 C1251 1.363 . S
C1250 H1253 0.929 . S
C1251 C1250 1.363 . S
C1251 C1257 1.428 . S
H1252 C1248 0.930 . S
H1253 C1250 0.929 . S
S1254 N1255 1.613 . S
S1254 N1256 1.610 . S
N1255 S1254 1.613 . S
N1255 C1258 1.350 . S
N1256 S1254 1.610 . S
N1256 C1257 1.351 . S
C1257 C1251 1.428 . S
C1257 N1256 1.351 . S
C1257 C1258 1.434 . S
C1258 C1249 1.429 . S
C1258 N1255 1.350 . S
C1258 C1257 1.434 . S
C1259 C1260 1.369 . S
C1259 C1261 1.419 . S
C1259 H1263 0.930 1_455 S
C1260 C1259 1.369 . S
C1260 C1269 1.429 . S
C1261 C1259 1.419 . S
C1261 C1262 1.363 . S
C1261 H1264 0.929 . S
C1262 C1261 1.363 . S
C1262 C1268 1.428 . S
H1263 C1259 0.930 1_655 S
H1264 C1261 0.929 . S
S1265 N1266 1.613 . S
S1265 N1267 1.610 . S
N1266 S1265 1.613 . S
N1266 C1269 1.350 . S
N1267 S1265 1.610 . S
N1267 C1268 1.351 . S
C1268 C1262 1.428 . S
C1268 N1267 1.351 . S
C1268 C1269 1.434 . S
C1269 C1260 1.429 . S
C1269 N1266 1.350 . S
C1269 C1268 1.434 . S
C1270 C1271 1.369 . S
C1270 C1272 1.419 . S
C1270 H1274 0.930 . S
C1271 C1270 1.369 . S
C1271 C1280 1.429 . S
C1272 C1270 1.419 . S
C1272 C1273 1.363 . S
C1272 H1275 0.929 . S
C1273 C1272 1.363 . S
C1273 C1279 1.428 . S
H1274 C1270 0.930 . S
H1275 C1272 0.929 . S
S1276 N1277 1.613 . S
S1276 N1278 1.610 . S
N1277 S1276 1.613 . S
N1277 C1280 1.350 . S
N1278 S1276 1.610 . S
N1278 C1279 1.351 . S
C1279 C1273 1.428 . S
C1279 N1278 1.351 . S
C1279 C1280 1.434 . S
C1280 C1271 1.429 . S
C1280 N1277 1.350 . S
C1280 C1279 1.434 . S
C1281 C1282 1.369 . S
C1281 C1283 1.419 . S
C1281 H1285 0.930 . S
C1282 C1281 1.369 . S
C1282 C1291 1.429 . S
C1283 C1281 1.419 . S
C1283 C1284 1.363 . S
C1283 H1286 0.929 . S
C1284 C1283 1.363 . S
C1284 C1290 1.428 . S
H1285 C1281 0.930 . S
H1286 C1283 0.929 . S
S1287 N1288 1.613 . S
S1287 N1289 1.610 . S
N1288 S1287 1.613 . S
N1288 C1291 1.350 . S
N1289 S1287 1.610 . S
N1289 C1290 1.351 . S
C1290 C1284 1.428 . S
C1290 N1289 1.351 . S
C1290 C1291 1.434 . S
C1291 C1282 1.429 . S
C1291 N1288 1.350 . S
C1291 C1290 1.434 . S
C1292 C1293 1.369 . S
C1292 C1294 1.419 . S
C1292 H1296 0.930 . S
C1293 C1292 1.369 . S
C1293 C1302 1.429 . S
C1294 C1292 1.419 . S
C1294 C1295 1.363 . S
C1294 H1297 0.929 . S
C1295 C1294 1.363 . S
C1295 C1301 1.428 . S
H1296 C1292 0.930 . S
H1297 C1294 0.929 . S
S1298 N1299 1.613 . S
S1298 N1300 1.610 . S
N1299 S1298 1.613 . S
N1299 C1302 1.350 . S
N1300 S1298 1.610 . S
N1300 C1301 1.351 . S
C1301 C1295 1.428 . S
C1301 N1300 1.351 . S
C1301 C1302 1.434 . S
C1302 C1293 1.429 . S
C1302 N1299 1.350 . S
C1302 C1301 1.434 . S
C1303 C1304 1.369 . S
C1303 C1305 1.419 . S
C1303 H1307 0.930 . S
C1304 C1303 1.369 . S
C1304 C1313 1.429 . S
C1305 C1303 1.419 . S
C1305 C1306 1.363 . S
C1305 H1308 0.929 . S
C1306 C1305 1.363 . S
C1306 C1312 1.428 . S
H1307 C1303 0.930 . S
H1308 C1305 0.929 . S
S1309 N1310 1.613 . S
S1309 N1311 1.610 . S
N1310 S1309 1.613 . S
N1310 C1313 1.350 . S
N1311 S1309 1.610 . S
N1311 C1312 1.351 . S
C1312 C1306 1.428 . S
C1312 N1311 1.351 . S
C1312 C1313 1.434 . S
C1313 C1304 1.429 . S
C1313 N1310 1.350 . S
C1313 C1312 1.434 . S
C1314 C1315 1.369 . S
C1314 C1316 1.419 . S
C1314 H1318 0.930 . S
C1315 C1314 1.369 . S
C1315 C1324 1.429 . S
C1316 C1314 1.419 . S
C1316 C1317 1.363 . S
C1316 H1319 0.929 . S
C1317 C1316 1.363 . S
C1317 C1323 1.428 . S
H1318 C1314 0.930 . S
H1319 C1316 0.929 . S
S1320 N1321 1.613 . S
S1320 N1322 1.610 . S
N1321 S1320 1.613 . S
N1321 C1324 1.350 . S
N1322 S1320 1.610 . S
N1322 C1323 1.351 . S
C1323 C1317 1.428 . S
C1323 N1322 1.351 . S
C1323 C1324 1.434 . S
C1324 C1315 1.429 . S
C1324 N1321 1.350 . S
C1324 C1323 1.434 . S
C1325 C1326 1.369 . S
C1325 C1327 1.419 . S
C1325 H1329 0.930 . S
C1326 C1325 1.369 . S
C1326 C1335 1.429 . S
C1327 C1325 1.419 . S
C1327 C1328 1.363 . S
C1327 H1330 0.929 1_455 S
C1328 C1327 1.363 . S
C1328 C1334 1.428 . S
H1329 C1325 0.930 . S
H1330 C1327 0.929 1_655 S
S1331 N1332 1.613 . S
S1331 N1333 1.610 . S
N1332 S1331 1.613 . S
N1332 C1335 1.350 . S
N1333 S1331 1.610 . S
N1333 C1334 1.351 . S
C1334 C1328 1.428 . S
C1334 N1333 1.351 . S
C1334 C1335 1.434 . S
C1335 C1326 1.429 . S
C1335 N1332 1.350 . S
C1335 C1334 1.434 . S
C1336 C1337 1.369 . S
C1336 C1338 1.419 . S
C1336 H1340 0.930 . S
C1337 C1336 1.369 . S
C1337 C1346 1.429 . S
C1338 C1336 1.419 . S
C1338 C1339 1.363 . S
C1338 H1341 0.929 . S
C1339 C1338 1.363 . S
C1339 C1345 1.428 . S
H1340 C1336 0.930 . S
H1341 C1338 0.929 . S
S1342 N1343 1.613 . S
S1342 N1344 1.610 . S
N1343 S1342 1.613 . S
N1343 C1346 1.350 . S
N1344 S1342 1.610 . S
N1344 C1345 1.351 . S
C1345 C1339 1.428 . S
C1345 N1344 1.351 . S
C1345 C1346 1.434 . S
C1346 C1337 1.429 . S
C1346 N1343 1.350 . S
C1346 C1345 1.434 . S
C1347 C1348 1.369 . S
C1347 C1349 1.419 . S
C1347 H1351 0.930 . S
C1348 C1347 1.369 . S
C1348 C1357 1.429 . S
C1349 C1347 1.419 . S
C1349 C1350 1.363 . S
C1349 H1352 0.929 . S
C1350 C1349 1.363 . S
C1350 C1356 1.428 . S
H1351 C1347 0.930 . S
H1352 C1349 0.929 . S
S1353 N1354 1.613 . S
S1353 N1355 1.610 . S
N1354 S1353 1.613 . S
N1354 C1357 1.350 . S
N1355 S1353 1.610 . S
N1355 C1356 1.351 . S
C1356 C1350 1.428 . S
C1356 N1355 1.351 . S
C1356 C1357 1.434 . S
C1357 C1348 1.429 . S
C1357 N1354 1.350 . S
C1357 C1356 1.434 . S
C1358 C1359 1.369 . S
C1358 C1360 1.419 . S
C1358 H1362 0.930 . S
C1359 C1358 1.369 . S
C1359 C1368 1.429 . S
C1360 C1358 1.419 . S
C1360 C1361 1.363 . S
C1360 H1363 0.929 . S
C1361 C1360 1.363 . S
C1361 C1367 1.428 . S
H1362 C1358 0.930 . S
H1363 C1360 0.929 . S
S1364 N1365 1.613 . S
S1364 N1366 1.610 . S
N1365 S1364 1.613 . S
N1365 C1368 1.350 . S
N1366 S1364 1.610 . S
N1366 C1367 1.351 . S
C1367 C1361 1.428 . S
C1367 N1366 1.351 . S
C1367 C1368 1.434 . S
C1368 C1359 1.429 . S
C1368 N1365 1.350 . S
C1368 C1367 1.434 . S
C1369 C1370 1.369 . S
C1369 C1371 1.419 . S
C1369 H1373 0.930 . S
C1370 C1369 1.369 . S
C1370 C1379 1.429 . S
C1371 C1369 1.419 . S
C1371 C1372 1.363 . S
C1371 H1374 0.929 . S
C1372 C1371 1.363 . S
C1372 C1378 1.428 . S
H1373 C1369 0.930 . S
H1374 C1371 0.929 . S
S1375 N1376 1.613 . S
S1375 N1377 1.610 . S
N1376 S1375 1.613 . S
N1376 C1379 1.350 . S
N1377 S1375 1.610 . S
N1377 C1378 1.351 . S
C1378 C1372 1.428 . S
C1378 N1377 1.351 . S
C1378 C1379 1.434 . S
C1379 C1370 1.429 . S
C1379 N1376 1.350 . S
C1379 C1378 1.434 . S
C1380 C1381 1.369 . S
C1380 C1382 1.419 . S
C1380 H1384 0.930 . S
C1381 C1380 1.369 . S
C1381 C1390 1.429 . S
C1382 C1380 1.419 . S
C1382 C1383 1.363 . S
C1382 H1385 0.929 . S
C1383 C1382 1.363 . S
C1383 C1389 1.428 . S
H1384 C1380 0.930 . S
H1385 C1382 0.929 . S
S1386 N1387 1.613 . S
S1386 N1388 1.610 . S
N1387 S1386 1.613 . S
N1387 C1390 1.350 . S
N1388 S1386 1.610 . S
N1388 C1389 1.351 . S
C1389 C1383 1.428 . S
C1389 N1388 1.351 . S
C1389 C1390 1.434 . S
C1390 C1381 1.429 . S
C1390 N1387 1.350 . S
C1390 C1389 1.434 . S
C1391 C1392 1.369 . S
C1391 C1393 1.419 . S
C1391 H1395 0.930 . S
C1392 C1391 1.369 . S
C1392 C1401 1.429 . S
C1393 C1391 1.419 . S
C1393 C1394 1.363 . S
C1393 H1396 0.929 . S
C1394 C1393 1.363 . S
C1394 C1400 1.428 . S
H1395 C1391 0.930 . S
H1396 C1393 0.929 . S
S1397 N1398 1.613 . S
S1397 N1399 1.610 . S
N1398 S1397 1.613 . S
N1398 C1401 1.350 . S
N1399 S1397 1.610 . S
N1399 C1400 1.351 . S
C1400 C1394 1.428 . S
C1400 N1399 1.351 . S
C1400 C1401 1.434 . S
C1401 C1392 1.429 . S
C1401 N1398 1.350 . S
C1401 C1400 1.434 . S
C1402 C1403 1.369 . S
C1402 C1404 1.419 . S
C1402 H1406 0.930 . S
C1403 C1402 1.369 . S
C1403 C1412 1.429 . S
C1404 C1402 1.419 . S
C1404 C1405 1.363 . S
C1404 H1407 0.929 . S
C1405 C1404 1.363 . S
C1405 C1411 1.428 . S
H1406 C1402 0.930 . S
H1407 C1404 0.929 . S
S1408 N1409 1.613 . S
S1408 N1410 1.610 . S
N1409 S1408 1.613 . S
N1409 C1412 1.350 . S
N1410 S1408 1.610 . S
N1410 C1411 1.351 . S
C1411 C1405 1.428 . S
C1411 N1410 1.351 . S
C1411 C1412 1.434 . S
C1412 C1403 1.429 . S
C1412 N1409 1.350 . S
C1412 C1411 1.434 . S
C1413 C1414 1.369 . S
C1413 C1415 1.419 . S
C1413 H1417 0.930 . S
C1414 C1413 1.369 . S
C1414 C1423 1.429 . S
C1415 C1413 1.419 . S
C1415 C1416 1.363 . S
C1415 H1418 0.929 1_554 S
C1416 C1415 1.363 . S
C1416 C1422 1.428 . S
H1417 C1413 0.930 . S
H1418 C1415 0.929 1_556 S
S1419 N1420 1.613 . S
S1419 N1421 1.610 . S
N1420 S1419 1.613 . S
N1420 C1423 1.350 . S
N1421 S1419 1.610 . S
N1421 C1422 1.351 . S
C1422 C1416 1.428 . S
C1422 N1421 1.351 . S
C1422 C1423 1.434 . S
C1423 C1414 1.429 . S
C1423 N1420 1.350 . S
C1423 C1422 1.434 . S
C1424 C1425 1.369 . S
C1424 C1426 1.419 . S
C1424 H1428 0.930 . S
C1425 C1424 1.369 . S
C1425 C1434 1.429 . S
C1426 C1424 1.419 . S
C1426 C1427 1.363 . S
C1426 H1429 0.929 . S
C1427 C1426 1.363 . S
C1427 C1433 1.428 . S
H1428 C1424 0.930 . S
H1429 C1426 0.929 . S
S1430 N1431 1.613 . S
S1430 N1432 1.610 . S
N1431 S1430 1.613 . S
N1431 C1434 1.350 . S
N1432 S1430 1.610 . S
N1432 C1433 1.351 . S
C1433 C1427 1.428 . S
C1433 N1432 1.351 . S
C1433 C1434 1.434 . S
C1434 C1425 1.429 . S
C1434 N1431 1.350 . S
C1434 C1433 1.434 . S
C1435 C1436 1.369 . S
C1435 C1437 1.419 . S
C1435 H1439 0.930 . S
C1436 C1435 1.369 . S
C1436 C1445 1.429 . S
C1437 C1435 1.419 . S
C1437 C1438 1.363 . S
C1437 H1440 0.929 . S
C1438 C1437 1.363 . S
C1438 C1444 1.428 . S
H1439 C1435 0.930 . S
H1440 C1437 0.929 . S
S1441 N1442 1.613 . S
S1441 N1443 1.610 . S
N1442 S1441 1.613 . S
N1442 C1445 1.350 . S
N1443 S1441 1.610 . S
N1443 C1444 1.351 . S
C1444 C1438 1.428 . S
C1444 N1443 1.351 . S
C1444 C1445 1.434 . S
C1445 C1436 1.429 . S
C1445 N1442 1.350 . S
C1445 C1444 1.434 . S
C1446 C1447 1.369 . S
C1446 C1448 1.419 . S
C1446 H1450 0.930 . S
C1447 C1446 1.369 . S
C1447 C1456 1.429 . S
C1448 C1446 1.419 . S
C1448 C1449 1.363 . S
C1448 H1451 0.929 . S
C1449 C1448 1.363 . S
C1449 C1455 1.428 . S
H1450 C1446 0.930 . S
H1451 C1448 0.929 . S
S1452 N1453 1.613 . S
S1452 N1454 1.610 . S
N1453 S1452 1.613 . S
N1453 C1456 1.350 . S
N1454 S1452 1.610 . S
N1454 C1455 1.351 . S
C1455 C1449 1.428 . S
C1455 N1454 1.351 . S
C1455 C1456 1.434 . S
C1456 C1447 1.429 . S
C1456 N1453 1.350 . S
C1456 C1455 1.434 . S
C1457 C1458 1.369 . S
C1457 C1459 1.419 . S
C1457 H1461 0.930 . S
C1458 C1457 1.369 . S
C1458 C1467 1.429 . S
C1459 C1457 1.419 . S
C1459 C1460 1.363 . S
C1459 H1462 0.929 . S
C1460 C1459 1.363 . S
C1460 C1466 1.428 . S
H1461 C1457 0.930 . S
H1462 C1459 0.929 . S
S1463 N1464 1.613 . S
S1463 N1465 1.610 . S
N1464 S1463 1.613 . S
N1464 C1467 1.350 . S
N1465 S1463 1.610 . S
N1465 C1466 1.351 . S
C1466 C1460 1.428 . S
C1466 N1465 1.351 . S
C1466 C1467 1.434 . S
C1467 C1458 1.429 . S
C1467 N1464 1.350 . S
C1467 C1466 1.434 . S
C1468 C1469 1.369 . S
C1468 C1470 1.419 . S
C1468 H1472 0.930 . S
C1469 C1468 1.369 . S
C1469 C1478 1.429 . S
C1470 C1468 1.419 . S
C1470 C1471 1.363 . S
C1470 H1473 0.929 . S
C1471 C1470 1.363 . S
C1471 C1477 1.428 . S
H1472 C1468 0.930 . S
H1473 C1470 0.929 . S
S1474 N1475 1.613 . S
S1474 N1476 1.610 . S
N1475 S1474 1.613 . S
N1475 C1478 1.350 . S
N1476 S1474 1.610 . S
N1476 C1477 1.351 . S
C1477 C1471 1.428 . S
C1477 N1476 1.351 . S
C1477 C1478 1.434 . S
C1478 C1469 1.429 . S
C1478 N1475 1.350 . S
C1478 C1477 1.434 . S
C1479 C1480 1.369 . S
C1479 C1481 1.419 . S
C1479 H1483 0.930 . S
C1480 C1479 1.369 . S
C1480 C1489 1.429 . S
C1481 C1479 1.419 . S
C1481 C1482 1.363 . S
C1481 H1484 0.929 . S
C1482 C1481 1.363 . S
C1482 C1488 1.428 . S
H1483 C1479 0.930 . S
H1484 C1481 0.929 . S
S1485 N1486 1.613 . S
S1485 N1487 1.610 . S
N1486 S1485 1.613 . S
N1486 C1489 1.350 . S
N1487 S1485 1.610 . S
N1487 C1488 1.351 . S
C1488 C1482 1.428 . S
C1488 N1487 1.351 . S
C1488 C1489 1.434 . S
C1489 C1480 1.429 . S
C1489 N1486 1.350 . S
C1489 C1488 1.434 . S
C1490 C1491 1.369 . S
C1490 C1492 1.419 . S
C1490 H1494 0.930 . S
C1491 C1490 1.369 . S
C1491 C1500 1.429 . S
C1492 C1490 1.419 . S
C1492 C1493 1.363 . S
C1492 H1495 0.929 . S
C1493 C1492 1.363 . S
C1493 C1499 1.428 . S
H1494 C1490 0.930 . S
H1495 C1492 0.929 . S
S1496 N1497 1.613 . S
S1496 N1498 1.610 . S
N1497 S1496 1.613 . S
N1497 C1500 1.350 . S
N1498 S1496 1.610 . S
N1498 C1499 1.351 . S
C1499 C1493 1.428 . S
C1499 N1498 1.351 . S
C1499 C1500 1.434 . S
C1500 C1491 1.429 . S
C1500 N1497 1.350 . S
C1500 C1499 1.434 . S
C1501 C1502 1.369 . S
C1501 C1503 1.419 . S
C1501 H1505 0.930 . S
C1502 C1501 1.369 . S
C1502 C1511 1.429 . S
C1503 C1501 1.419 . S
C1503 C1504 1.363 . S
C1503 H1506 0.929 . S
C1504 C1503 1.363 . S
C1504 C1510 1.428 . S
H1505 C1501 0.930 . S
H1506 C1503 0.929 . S
S1507 N1508 1.613 . S
S1507 N1509 1.610 . S
N1508 S1507 1.613 . S
N1508 C1511 1.350 . S
N1509 S1507 1.610 . S
N1509 C1510 1.351 . S
C1510 C1504 1.428 . S
C1510 N1509 1.351 . S
C1510 C1511 1.434 . S
C1511 C1502 1.429 . S
C1511 N1508 1.350 . S
C1511 C1510 1.434 . S
C1512 C1513 1.369 . S
C1512 C1514 1.419 . S
C1512 H1516 0.930 . S
C1513 C1512 1.369 . S
C1513 C1522 1.429 . S
C1514 C1512 1.419 . S
C1514 C1515 1.363 . S
C1514 H1517 0.929 . S
C1515 C1514 1.363 . S
C1515 C1521 1.428 . S
H1516 C1512 0.930 . S
H1517 C1514 0.929 . S
S1518 N1519 1.613 . S
S1518 N1520 1.610 . S
N1519 S1518 1.613 . S
N1519 C1522 1.350 . S
N1520 S1518 1.610 . S
N1520 C1521 1.351 . S
C1521 C1515 1.428 . S
C1521 N1520 1.351 . S
C1521 C1522 1.434 . S
C1522 C1513 1.429 . S
C1522 N1519 1.350 . S
C1522 C1521 1.434 . S
C1523 C1524 1.369 . S
C1523 C1525 1.419 . S
C1523 H1527 0.930 . S
C1524 C1523 1.369 . S
C1524 C1533 1.429 . S
C1525 C1523 1.419 . S
C1525 C1526 1.363 . S
C1525 H1528 0.929 . S
C1526 C1525 1.363 . S
C1526 C1532 1.428 . S
H1527 C1523 0.930 . S
H1528 C1525 0.929 . S
S1529 N1530 1.613 . S
S1529 N1531 1.610 . S
N1530 S1529 1.613 . S
N1530 C1533 1.350 . S
N1531 S1529 1.610 . S
N1531 C1532 1.351 . S
C1532 C1526 1.428 . S
C1532 N1531 1.351 . S
C1532 C1533 1.434 . S
C1533 C1524 1.429 . S
C1533 N1530 1.350 . S
C1533 C1532 1.434 . S
C1534 C1535 1.369 . S
C1534 C1536 1.419 . S
C1534 H1538 0.930 . S
C1535 C1534 1.369 . S
C1535 C1544 1.429 . S
C1536 C1534 1.419 . S
C1536 C1537 1.363 . S
C1536 H1539 0.929 . S
C1537 C1536 1.363 . S
C1537 C1543 1.428 . S
H1538 C1534 0.930 . S
H1539 C1536 0.929 . S
S1540 N1541 1.613 . S
S1540 N1542 1.610 . S
N1541 S1540 1.613 . S
N1541 C1544 1.350 . S
N1542 S1540 1.610 . S
N1542 C1543 1.351 . S
C1543 C1537 1.428 . S
C1543 N1542 1.351 . S
C1543 C1544 1.434 . S
C1544 C1535 1.429 . S
C1544 N1541 1.350 . S
C1544 C1543 1.434 . S
C1545 C1546 1.369 . S
C1545 C1547 1.419 . S
C1545 H1549 0.930 . S
C1546 C1545 1.369 . S
C1546 C1555 1.429 . S
C1547 C1545 1.419 . S
C1547 C1548 1.363 . S
C1547 H1550 0.929 . S
C1548 C1547 1.363 . S
C1548 C1554 1.428 . S
H1549 C1545 0.930 . S
H1550 C1547 0.929 . S
S1551 N1552 1.613 . S
S1551 N1553 1.610 . S
N1552 S1551 1.613 . S
N1552 C1555 1.350 . S
N1553 S1551 1.610 . S
N1553 C1554 1.351 . S
C1554 C1548 1.428 . S
C1554 N1553 1.351 . S
C1554 C1555 1.434 . S
C1555 C1546 1.429 . S
C1555 N1552 1.350 . S
C1555 C1554 1.434 . S
C1556 C1557 1.369 . S
C1556 C1558 1.419 . S
C1556 H1560 0.930 . S
C1557 C1556 1.369 . S
C1557 C1566 1.429 . S
C1558 C1556 1.419 . S
C1558 C1559 1.363 . S
C1558 H1561 0.929 . S
C1559 C1558 1.363 . S
C1559 C1565 1.428 . S
H1560 C1556 0.930 . S
H1561 C1558 0.929 . S
S1562 N1563 1.613 . S
S1562 N1564 1.610 . S
N1563 S1562 1.613 . S
N1563 C1566 1.350 . S
N1564 S1562 1.610 . S
N1564 C1565 1.351 . S
C1565 C1559 1.428 . S
C1565 N1564 1.351 . S
C1565 C1566 1.434 . S
C1566 C1557 1.429 . S
C1566 N1563 1.350 . S
C1566 C1565 1.434 . S
C1567 C1568 1.369 . S
C1567 C1569 1.419 . S
C1567 H1571 0.930 . S
C1568 C1567 1.369 . S
C1568 C1577 1.429 . S
C1569 C1567 1.419 . S
C1569 C1570 1.363 . S
C1569 H1572 0.929 . S
C1570 C1569 1.363 . S
C1570 C1576 1.428 . S
H1571 C1567 0.930 . S
H1572 C1569 0.929 . S
S1573 N1574 1.613 . S
S1573 N1575 1.610 . S
N1574 S1573 1.613 . S
N1574 C1577 1.350 . S
N1575 S1573 1.610 . S
N1575 C1576 1.351 . S
C1576 C1570 1.428 . S
C1576 N1575 1.351 . S
C1576 C1577 1.434 . S
C1577 C1568 1.429 . S
C1577 N1574 1.350 . S
C1577 C1576 1.434 . S
C1578 C1579 1.369 . S
C1578 C1580 1.419 . S
C1578 H1582 0.930 . S
C1579 C1578 1.369 . S
C1579 C1588 1.429 . S
C1580 C1578 1.419 . S
C1580 C1581 1.363 . S
C1580 H1583 0.929 . S
C1581 C1580 1.363 . S
C1581 C1587 1.428 . S
H1582 C1578 0.930 . S
H1583 C1580 0.929 . S
S1584 N1585 1.613 . S
S1584 N1586 1.610 . S
N1585 S1584 1.613 . S
N1585 C1588 1.350 . S
N1586 S1584 1.610 . S
N1586 C1587 1.351 . S
C1587 C1581 1.428 . S
C1587 N1586 1.351 . S
C1587 C1588 1.434 . S
C1588 C1579 1.429 . S
C1588 N1585 1.350 . S
C1588 C1587 1.434 . S
C1589 C1590 1.369 . S
C1589 C1591 1.419 . S
C1589 H1593 0.930 . S
C1590 C1589 1.369 . S
C1590 C1599 1.429 . S
C1591 C1589 1.419 . S
C1591 C1592 1.363 . S
C1591 H1594 0.929 . S
C1592 C1591 1.363 . S
C1592 C1598 1.428 . S
H1593 C1589 0.930 . S
H1594 C1591 0.929 . S
S1595 N1596 1.613 1_455 S
S1595 N1597 1.610 . S
N1596 S1595 1.613 1_655 S
N1596 C1599 1.350 . S
N1597 S1595 1.610 . S
N1597 C1598 1.351 1_455 S
C1598 C1592 1.428 . S
C1598 N1597 1.351 1_655 S
C1598 C1599 1.434 . S
C1599 C1590 1.429 . S
C1599 N1596 1.350 . S
C1599 C1598 1.434 . S
C1600 C1601 1.369 . S
C1600 C1602 1.419 . S
C1600 H1604 0.930 . S
C1601 C1600 1.369 . S
C1601 C1610 1.429 . S
C1602 C1600 1.419 . S
C1602 C1603 1.363 . S
C1602 H1605 0.929 . S
C1603 C1602 1.363 . S
C1603 C1609 1.428 . S
H1604 C1600 0.930 . S
H1605 C1602 0.929 . S
S1606 N1607 1.613 . S
S1606 N1608 1.610 . S
N1607 S1606 1.613 . S
N1607 C1610 1.350 . S
N1608 S1606 1.610 . S
N1608 C1609 1.351 . S
C1609 C1603 1.428 . S
C1609 N1608 1.351 . S
C1609 C1610 1.434 . S
C1610 C1601 1.429 . S
C1610 N1607 1.350 . S
C1610 C1609 1.434 . S
C1611 C1612 1.369 . S
C1611 C1613 1.419 . S
C1611 H1615 0.930 . S
C1612 C1611 1.369 . S
C1612 C1621 1.429 . S
C1613 C1611 1.419 . S
C1613 C1614 1.363 . S
C1613 H1616 0.929 . S
C1614 C1613 1.363 . S
C1614 C1620 1.428 . S
H1615 C1611 0.930 . S
H1616 C1613 0.929 . S
S1617 N1618 1.613 . S
S1617 N1619 1.610 . S
N1618 S1617 1.613 . S
N1618 C1621 1.350 . S
N1619 S1617 1.610 . S
N1619 C1620 1.351 . S
C1620 C1614 1.428 . S
C1620 N1619 1.351 . S
C1620 C1621 1.434 . S
C1621 C1612 1.429 . S
C1621 N1618 1.350 . S
C1621 C1620 1.434 . S
C1622 C1623 1.369 . S
C1622 C1624 1.419 . S
C1622 H1626 0.930 . S
C1623 C1622 1.369 . S
C1623 C1632 1.429 . S
C1624 C1622 1.419 . S
C1624 C1625 1.363 . S
C1624 H1627 0.929 . S
C1625 C1624 1.363 . S
C1625 C1631 1.428 . S
H1626 C1622 0.930 . S
H1627 C1624 0.929 . S
S1628 N1629 1.613 . S
S1628 N1630 1.610 . S
N1629 S1628 1.613 . S
N1629 C1632 1.350 . S
N1630 S1628 1.610 . S
N1630 C1631 1.351 . S
C1631 C1625 1.428 . S
C1631 N1630 1.351 . S
C1631 C1632 1.434 . S
C1632 C1623 1.429 . S
C1632 N1629 1.350 . S
C1632 C1631 1.434 . S
C1633 C1634 1.369 . S
C1633 C1635 1.419 . S
C1633 H1637 0.930 . S
C1634 C1633 1.369 . S
C1634 C1643 1.429 . S
C1635 C1633 1.419 . S
C1635 C1636 1.363 . S
C1635 H1638 0.929 . S
C1636 C1635 1.363 . S
C1636 C1642 1.428 . S
H1637 C1633 0.930 . S
H1638 C1635 0.929 . S
S1639 N1640 1.613 . S
S1639 N1641 1.610 . S
N1640 S1639 1.613 . S
N1640 C1643 1.350 . S
N1641 S1639 1.610 . S
N1641 C1642 1.351 . S
C1642 C1636 1.428 . S
C1642 N1641 1.351 . S
C1642 C1643 1.434 . S
C1643 C1634 1.429 . S
C1643 N1640 1.350 . S
C1643 C1642 1.434 . S
C1644 C1645 1.369 . S
C1644 C1646 1.419 . S
C1644 H1648 0.930 . S
C1645 C1644 1.369 . S
C1645 C1654 1.429 . S
C1646 C1644 1.419 . S
C1646 C1647 1.363 . S
C1646 H1649 0.929 . S
C1647 C1646 1.363 . S
C1647 C1653 1.428 . S
H1648 C1644 0.930 . S
H1649 C1646 0.929 . S
S1650 N1651 1.613 . S
S1650 N1652 1.610 . S
N1651 S1650 1.613 . S
N1651 C1654 1.350 . S
N1652 S1650 1.610 . S
N1652 C1653 1.351 . S
C1653 C1647 1.428 . S
C1653 N1652 1.351 . S
C1653 C1654 1.434 . S
C1654 C1645 1.429 . S
C1654 N1651 1.350 . S
C1654 C1653 1.434 . S
C1655 C1656 1.369 . S
C1655 C1657 1.419 . S
C1655 H1659 0.930 . S
C1656 C1655 1.369 . S
C1656 C1665 1.429 . S
C1657 C1655 1.419 . S
C1657 C1658 1.363 . S
C1657 H1660 0.929 . S
C1658 C1657 1.363 . S
C1658 C1664 1.428 . S
H1659 C1655 0.930 . S
H1660 C1657 0.929 . S
S1661 N1662 1.613 . S
S1661 N1663 1.610 . S
N1662 S1661 1.613 . S
N1662 C1665 1.350 . S
N1663 S1661 1.610 . S
N1663 C1664 1.351 . S
C1664 C1658 1.428 . S
C1664 N1663 1.351 . S
C1664 C1665 1.434 . S
C1665 C1656 1.429 . S
C1665 N1662 1.350 . S
C1665 C1664 1.434 . S
C1666 C1667 1.369 . S
C1666 C1668 1.419 . S
C1666 H1670 0.930 . S
C1667 C1666 1.369 . S
C1667 C1676 1.429 . S
C1668 C1666 1.419 . S
C1668 C1669 1.363 . S
C1668 H1671 0.929 . S
C1669 C1668 1.363 . S
C1669 C1675 1.428 . S
H1670 C1666 0.930 . S
H1671 C1668 0.929 . S
S1672 N1673 1.613 . S
S1672 N1674 1.610 . S
N1673 S1672 1.613 . S
N1673 C1676 1.350 . S
N1674 S1672 1.610 . S
N1674 C1675 1.351 . S
C1675 C1669 1.428 . S
C1675 N1674 1.351 . S
C1675 C1676 1.434 . S
C1676 C1667 1.429 . S
C1676 N1673 1.350 . S
C1676 C1675 1.434 . S
C1677 C1678 1.369 . S
C1677 C1679 1.419 . S
C1677 H1681 0.930 . S
C1678 C1677 1.369 . S
C1678 C1687 1.429 . S
C1679 C1677 1.419 . S
C1679 C1680 1.363 . S
C1679 H1682 0.929 . S
C1680 C1679 1.363 . S
C1680 C1686 1.428 . S
H1681 C1677 0.930 . S
H1682 C1679 0.929 . S
S1683 N1684 1.613 . S
S1683 N1685 1.610 . S
N1684 S1683 1.613 . S
N1684 C1687 1.350 . S
N1685 S1683 1.610 . S
N1685 C1686 1.351 . S
C1686 C1680 1.428 . S
C1686 N1685 1.351 . S
C1686 C1687 1.434 . S
C1687 C1678 1.429 . S
C1687 N1684 1.350 . S
C1687 C1686 1.434 . S
C1688 C1689 1.369 . S
C1688 C1690 1.419 . S
C1688 H1692 0.930 . S
C1689 C1688 1.369 . S
C1689 C1698 1.429 . S
C1690 C1688 1.419 . S
C1690 C1691 1.363 . S
C1690 H1693 0.929 . S
C1691 C1690 1.363 . S
C1691 C1697 1.428 . S
H1692 C1688 0.930 . S
H1693 C1690 0.929 . S
S1694 N1695 1.613 . S
S1694 N1696 1.610 . S
N1695 S1694 1.613 . S
N1695 C1698 1.350 . S
N1696 S1694 1.610 . S
N1696 C1697 1.351 . S
C1697 C1691 1.428 . S
C1697 N1696 1.351 . S
C1697 C1698 1.434 . S
C1698 C1689 1.429 . S
C1698 N1695 1.350 . S
C1698 C1697 1.434 . S
C1699 C1700 1.369 . S
C1699 C1701 1.419 . S
C1699 H1703 0.930 . S
C1700 C1699 1.369 . S
C1700 C1709 1.429 . S
C1701 C1699 1.419 . S
C1701 C1702 1.363 . S
C1701 H1704 0.929 . S
C1702 C1701 1.363 . S
C1702 C1708 1.428 . S
H1703 C1699 0.930 . S
H1704 C1701 0.929 . S
S1705 N1706 1.613 . S
S1705 N1707 1.610 . S
N1706 S1705 1.613 . S
N1706 C1709 1.350 . S
N1707 S1705 1.610 . S
N1707 C1708 1.351 . S
C1708 C1702 1.428 . S
C1708 N1707 1.351 . S
C1708 C1709 1.434 . S
C1709 C1700 1.429 . S
C1709 N1706 1.350 . S
C1709 C1708 1.434 . S
C1710 C1711 1.369 . S
C1710 C1712 1.419 . S
C1710 H1714 0.930 . S
C1711 C1710 1.369 . S
C1711 C1720 1.429 . S
C1712 C1710 1.419 . S
C1712 C1713 1.363 . S
C1712 H1715 0.929 . S
C1713 C1712 1.363 . S
C1713 C1719 1.428 . S
H1714 C1710 0.930 . S
H1715 C1712 0.929 . S
S1716 N1717 1.613 . S
S1716 N1718 1.610 . S
N1717 S1716 1.613 . S
N1717 C1720 1.350 . S
N1718 S1716 1.610 . S
N1718 C1719 1.351 . S
C1719 C1713 1.428 . S
C1719 N1718 1.351 . S
C1719 C1720 1.434 . S
C1720 C1711 1.429 . S
C1720 N1717 1.350 . S
C1720 C1719 1.434 . S
C1721 C1722 1.369 . S
C1721 C1723 1.419 . S
C1721 H1725 0.930 . S
C1722 C1721 1.369 . S
C1722 C1731 1.429 . S
C1723 C1721 1.419 . S
C1723 C1724 1.363 . S
C1723 H1726 0.929 . S
C1724 C1723 1.363 . S
C1724 C1730 1.428 . S
H1725 C1721 0.930 . S
H1726 C1723 0.929 . S
S1727 N1728 1.613 . S
S1727 N1729 1.610 . S
N1728 S1727 1.613 . S
N1728 C1731 1.350 . S
N1729 S1727 1.610 . S
N1729 C1730 1.351 . S
C1730 C1724 1.428 . S
C1730 N1729 1.351 . S
C1730 C1731 1.434 . S
C1731 C1722 1.429 . S
C1731 N1728 1.350 . S
C1731 C1730 1.434 . S
C1732 C1733 1.369 . S
C1732 C1734 1.419 . S
C1732 H1736 0.930 . S
C1733 C1732 1.369 . S
C1733 C1742 1.429 . S
C1734 C1732 1.419 . S
C1734 C1735 1.363 . S
C1734 H1737 0.929 . S
C1735 C1734 1.363 . S
C1735 C1741 1.428 . S
H1736 C1732 0.930 . S
H1737 C1734 0.929 . S
S1738 N1739 1.613 . S
S1738 N1740 1.610 . S
N1739 S1738 1.613 . S
N1739 C1742 1.350 . S
N1740 S1738 1.610 . S
N1740 C1741 1.351 . S
C1741 C1735 1.428 . S
C1741 N1740 1.351 . S
C1741 C1742 1.434 . S
C1742 C1733 1.429 . S
C1742 N1739 1.350 . S
C1742 C1741 1.434 . S
C1743 C1744 1.369 . S
C1743 C1745 1.419 . S
C1743 H1747 0.930 . S
C1744 C1743 1.369 . S
C1744 C1753 1.429 . S
C1745 C1743 1.419 . S
C1745 C1746 1.363 . S
C1745 H1748 0.929 . S
C1746 C1745 1.363 . S
C1746 C1752 1.428 . S
H1747 C1743 0.930 . S
H1748 C1745 0.929 . S
S1749 N1750 1.613 . S
S1749 N1751 1.610 . S
N1750 S1749 1.613 . S
N1750 C1753 1.350 . S
N1751 S1749 1.610 . S
N1751 C1752 1.351 . S
C1752 C1746 1.428 . S
C1752 N1751 1.351 . S
C1752 C1753 1.434 . S
C1753 C1744 1.429 . S
C1753 N1750 1.350 . S
C1753 C1752 1.434 . S
C1754 C1755 1.369 . S
C1754 C1756 1.419 . S
C1754 H1758 0.930 . S
C1755 C1754 1.369 . S
C1755 C1764 1.429 . S
C1756 C1754 1.419 . S
C1756 C1757 1.363 . S
C1756 H1759 0.929 . S
C1757 C1756 1.363 . S
C1757 C1763 1.428 . S
H1758 C1754 0.930 . S
H1759 C1756 0.929 . S
S1760 N1761 1.613 . S
S1760 N1762 1.610 . S
N1761 S1760 1.613 . S
N1761 C1764 1.350 . S
N1762 S1760 1.610 . S
N1762 C1763 1.351 . S
C1763 C1757 1.428 . S
C1763 N1762 1.351 . S
C1763 C1764 1.434 . S
C1764 C1755 1.429 . S
C1764 N1761 1.350 . S
C1764 C1763 1.434 . S
C1765 C1766 1.369 . S
C1765 C1767 1.419 . S
C1765 H1769 0.930 . S
C1766 C1765 1.369 . S
C1766 C1775 1.429 . S
C1767 C1765 1.419 . S
C1767 C1768 1.363 . S
C1767 H1770 0.929 . S
C1768 C1767 1.363 . S
C1768 C1774 1.428 . S
H1769 C1765 0.930 . S
H1770 C1767 0.929 . S
S1771 N1772 1.613 . S
S1771 N1773 1.610 . S
N1772 S1771 1.613 . S
N1772 C1775 1.350 . S
N1773 S1771 1.610 . S
N1773 C1774 1.351 . S
C1774 C1768 1.428 . S
C1774 N1773 1.351 . S
C1774 C1775 1.434 . S
C1775 C1766 1.429 . S
C1775 N1772 1.350 . S
C1775 C1774 1.434 . S
C1776 C1777 1.369 . S
C1776 C1778 1.419 . S
C1776 H1780 0.930 . S
C1777 C1776 1.369 . S
C1777 C1786 1.429 . S
C1778 C1776 1.419 . S
C1778 C1779 1.363 . S
C1778 H1781 0.929 . S
C1779 C1778 1.363 . S
C1779 C1785 1.428 . S
H1780 C1776 0.930 . S
H1781 C1778 0.929 . S
S1782 N1783 1.613 . S
S1782 N1784 1.610 . S
N1783 S1782 1.613 . S
N1783 C1786 1.350 . S
N1784 S1782 1.610 . S
N1784 C1785 1.351 . S
C1785 C1779 1.428 . S
C1785 N1784 1.351 . S
C1785 C1786 1.434 . S
C1786 C1777 1.429 . S
C1786 N1783 1.350 . S
C1786 C1785 1.434 . S
C1787 C1788 1.369 . S
C1787 C1789 1.419 . S
C1787 H1791 0.930 . S
C1788 C1787 1.369 . S
C1788 C1797 1.429 . S
C1789 C1787 1.419 . S
C1789 C1790 1.363 . S
C1789 H1792 0.929 . S
C1790 C1789 1.363 . S
C1790 C1796 1.428 . S
H1791 C1787 0.930 . S
H1792 C1789 0.929 . S
S1793 N1794 1.613 . S
S1793 N1795 1.610 . S
N1794 S1793 1.613 . S
N1794 C1797 1.350 . S
N1795 S1793 1.610 . S
N1795 C1796 1.351 . S
C1796 C1790 1.428 . S
C1796 N1795 1.351 . S
C1796 C1797 1.434 . S
C1797 C1788 1.429 . S
C1797 N1794 1.350 . S
C1797 C1796 1.434 . S
C1798 C1799 1.369 . S
C1798 C1800 1.419 . S
C1798 H1802 0.930 . S
C1799 C1798 1.369 . S
C1799 C1808 1.429 . S
C1800 C1798 1.419 . S
C1800 C1801 1.363 . S
C1800 H1803 0.929 . S
C1801 C1800 1.363 . S
C1801 C1807 1.428 . S
H1802 C1798 0.930 . S
H1803 C1800 0.929 . S
S1804 N1805 1.613 . S
S1804 N1806 1.610 . S
N1805 S1804 1.613 . S
N1805 C1808 1.350 . S
N1806 S1804 1.610 . S
N1806 C1807 1.351 . S
C1807 C1801 1.428 . S
C1807 N1806 1.351 . S
C1807 C1808 1.434 . S
C1808 C1799 1.429 . S
C1808 N1805 1.350 . S
C1808 C1807 1.434 . S
C1809 C1810 1.369 . S
C1809 C1811 1.419 . S
C1809 H1813 0.930 1_655 S
C1810 C1809 1.369 . S
C1810 C1819 1.429 . S
C1811 C1809 1.419 . S
C1811 C1812 1.363 . S
C1811 H1814 0.929 . S
C1812 C1811 1.363 . S
C1812 C1818 1.428 . S
H1813 C1809 0.930 1_455 S
H1814 C1811 0.929 . S
S1815 N1816 1.613 . S
S1815 N1817 1.610 . S
N1816 S1815 1.613 . S
N1816 C1819 1.350 . S
N1817 S1815 1.610 . S
N1817 C1818 1.351 . S
C1818 C1812 1.428 . S
C1818 N1817 1.351 . S
C1818 C1819 1.434 . S
C1819 C1810 1.429 . S
C1819 N1816 1.350 . S
C1819 C1818 1.434 . S
C1820 C1821 1.369 . S
C1820 C1822 1.419 . S
C1820 H1824 0.930 . S
C1821 C1820 1.369 . S
C1821 C1830 1.429 . S
C1822 C1820 1.419 . S
C1822 C1823 1.363 . S
C1822 H1825 0.929 . S
C1823 C1822 1.363 . S
C1823 C1829 1.428 . S
H1824 C1820 0.930 . S
H1825 C1822 0.929 . S
S1826 N1827 1.613 . S
S1826 N1828 1.610 . S
N1827 S1826 1.613 . S
N1827 C1830 1.350 . S
N1828 S1826 1.610 . S
N1828 C1829 1.351 . S
C1829 C1823 1.428 . S
C1829 N1828 1.351 . S
C1829 C1830 1.434 . S
C1830 C1821 1.429 . S
C1830 N1827 1.350 . S
C1830 C1829 1.434 . S
C1831 C1832 1.369 . S
C1831 C1833 1.419 . S
C1831 H1835 0.930 1_655 S
C1832 C1831 1.369 . S
C1832 C1841 1.429 . S
C1833 C1831 1.419 . S
C1833 C1834 1.363 . S
C1833 H1836 0.929 . S
C1834 C1833 1.363 . S
C1834 C1840 1.428 . S
H1835 C1831 0.930 1_455 S
H1836 C1833 0.929 . S
S1837 N1838 1.613 . S
S1837 N1839 1.610 . S
N1838 S1837 1.613 . S
N1838 C1841 1.350 . S
N1839 S1837 1.610 . S
N1839 C1840 1.351 . S
C1840 C1834 1.428 . S
C1840 N1839 1.351 . S
C1840 C1841 1.434 . S
C1841 C1832 1.429 . S
C1841 N1838 1.350 . S
C1841 C1840 1.434 . S
C1842 C1843 1.369 . S
C1842 C1844 1.419 . S
C1842 H1846 0.930 . S
C1843 C1842 1.369 . S
C1843 C1852 1.429 . S
C1844 C1842 1.419 . S
C1844 C1845 1.363 . S
C1844 H1847 0.929 . S
C1845 C1844 1.363 . S
C1845 C1851 1.428 . S
H1846 C1842 0.930 . S
H1847 C1844 0.929 . S
S1848 N1849 1.613 . S
S1848 N1850 1.610 . S
N1849 S1848 1.613 . S
N1849 C1852 1.350 . S
N1850 S1848 1.610 . S
N1850 C1851 1.351 . S
C1851 C1845 1.428 . S
C1851 N1850 1.351 . S
C1851 C1852 1.434 . S
C1852 C1843 1.429 . S
C1852 N1849 1.350 . S
C1852 C1851 1.434 . S
C1853 C1854 1.369 . S
C1853 C1855 1.419 . S
C1853 H1857 0.930 . S
C1854 C1853 1.369 . S
C1854 C1863 1.429 . S
C1855 C1853 1.419 . S
C1855 C1856 1.363 . S
C1855 H1858 0.929 . S
C1856 C1855 1.363 . S
C1856 C1862 1.428 . S
H1857 C1853 0.930 . S
H1858 C1855 0.929 . S
S1859 N1860 1.613 . S
S1859 N1861 1.610 . S
N1860 S1859 1.613 . S
N1860 C1863 1.350 . S
N1861 S1859 1.610 . S
N1861 C1862 1.351 . S
C1862 C1856 1.428 . S
C1862 N1861 1.351 . S
C1862 C1863 1.434 . S
C1863 C1854 1.429 . S
C1863 N1860 1.350 . S
C1863 C1862 1.434 . S
C1864 C1865 1.369 . S
C1864 C1866 1.419 . S
C1864 H1868 0.930 . S
C1865 C1864 1.369 . S
C1865 C1874 1.429 . S
C1866 C1864 1.419 . S
C1866 C1867 1.363 . S
C1866 H1869 0.929 . S
C1867 C1866 1.363 . S
C1867 C1873 1.428 . S
H1868 C1864 0.930 . S
H1869 C1866 0.929 . S
S1870 N1871 1.613 . S
S1870 N1872 1.610 . S
N1871 S1870 1.613 . S
N1871 C1874 1.350 . S
N1872 S1870 1.610 . S
N1872 C1873 1.351 . S
C1873 C1867 1.428 . S
C1873 N1872 1.351 . S
C1873 C1874 1.434 . S
C1874 C1865 1.429 . S
C1874 N1871 1.350 . S
C1874 C1873 1.434 . S
C1875 C1876 1.369 . S
C1875 C1877 1.419 . S
C1875 H1879 0.930 . S
C1876 C1875 1.369 . S
C1876 C1885 1.429 . S
C1877 C1875 1.419 . S
C1877 C1878 1.363 . S
C1877 H1880 0.929 . S
C1878 C1877 1.363 . S
C1878 C1884 1.428 . S
H1879 C1875 0.930 . S
H1880 C1877 0.929 . S
S1881 N1882 1.613 . S
S1881 N1883 1.610 . S
N1882 S1881 1.613 . S
N1882 C1885 1.350 . S
N1883 S1881 1.610 . S
N1883 C1884 1.351 . S
C1884 C1878 1.428 . S
C1884 N1883 1.351 . S
C1884 C1885 1.434 . S
C1885 C1876 1.429 . S
C1885 N1882 1.350 . S
C1885 C1884 1.434 . S
C1886 C1887 1.369 . S
C1886 C1888 1.419 . S
C1886 H1890 0.930 . S
C1887 C1886 1.369 . S
C1887 C1896 1.429 . S
C1888 C1886 1.419 . S
C1888 C1889 1.363 . S
C1888 H1891 0.929 . S
C1889 C1888 1.363 . S
C1889 C1895 1.428 . S
H1890 C1886 0.930 . S
H1891 C1888 0.929 . S
S1892 N1893 1.613 . S
S1892 N1894 1.610 . S
N1893 S1892 1.613 . S
N1893 C1896 1.350 . S
N1894 S1892 1.610 . S
N1894 C1895 1.351 . S
C1895 C1889 1.428 . S
C1895 N1894 1.351 . S
C1895 C1896 1.434 . S
C1896 C1887 1.429 . S
C1896 N1893 1.350 . S
C1896 C1895 1.434 . S
C1897 C1898 1.369 . S
C1897 C1899 1.419 . S
C1897 H1901 0.930 . S
C1898 C1897 1.369 . S
C1898 C1907 1.429 . S
C1899 C1897 1.419 . S
C1899 C1900 1.363 . S
C1899 H1902 0.929 . S
C1900 C1899 1.363 . S
C1900 C1906 1.428 . S
H1901 C1897 0.930 . S
H1902 C1899 0.929 . S
S1903 N1904 1.613 . S
S1903 N1905 1.610 . S
N1904 S1903 1.613 . S
N1904 C1907 1.350 . S
N1905 S1903 1.610 . S
N1905 C1906 1.351 . S
C1906 C1900 1.428 . S
C1906 N1905 1.351 . S
C1906 C1907 1.434 . S
C1907 C1898 1.429 . S
C1907 N1904 1.350 . S
C1907 C1906 1.434 . S
C1908 C1909 1.369 . S
C1908 C1910 1.419 . S
C1908 H1912 0.930 . S
C1909 C1908 1.369 . S
C1909 C1918 1.429 . S
C1910 C1908 1.419 . S
C1910 C1911 1.363 . S
C1910 H1913 0.929 . S
C1911 C1910 1.363 . S
C1911 C1917 1.428 . S
H1912 C1908 0.930 . S
H1913 C1910 0.929 . S
S1914 N1915 1.613 . S
S1914 N1916 1.610 . S
N1915 S1914 1.613 . S
N1915 C1918 1.350 . S
N1916 S1914 1.610 . S
N1916 C1917 1.351 . S
C1917 C1911 1.428 . S
C1917 N1916 1.351 . S
C1917 C1918 1.434 . S
C1918 C1909 1.429 . S
C1918 N1915 1.350 . S
C1918 C1917 1.434 . S
C1919 C1920 1.369 . S
C1919 C1921 1.419 . S
C1919 H1923 0.930 . S
C1920 C1919 1.369 . S
C1920 C1929 1.429 . S
C1921 C1919 1.419 . S
C1921 C1922 1.363 . S
C1921 H1924 0.929 . S
C1922 C1921 1.363 . S
C1922 C1928 1.428 . S
H1923 C1919 0.930 . S
H1924 C1921 0.929 . S
S1925 N1926 1.613 1_556 S
S1925 N1927 1.610 . S
N1926 S1925 1.613 1_554 S
N1926 C1929 1.350 . S
N1927 S1925 1.610 . S
N1927 C1928 1.351 1_556 S
C1928 C1922 1.428 . S
C1928 N1927 1.351 1_554 S
C1928 C1929 1.434 . S
C1929 C1920 1.429 . S
C1929 N1926 1.350 . S
C1929 C1928 1.434 . S
C1930 C1931 1.369 . S
C1930 C1932 1.419 . S
C1930 H1934 0.930 . S
C1931 C1930 1.369 . S
C1931 C1940 1.429 . S
C1932 C1930 1.419 . S
C1932 C1933 1.363 . S
C1932 H1935 0.929 . S
C1933 C1932 1.363 . S
C1933 C1939 1.428 . S
H1934 C1930 0.930 . S
H1935 C1932 0.929 . S
S1936 N1937 1.613 . S
S1936 N1938 1.610 . S
N1937 S1936 1.613 . S
N1937 C1940 1.350 . S
N1938 S1936 1.610 . S
N1938 C1939 1.351 . S
C1939 C1933 1.428 . S
C1939 N1938 1.351 . S
C1939 C1940 1.434 . S
C1940 C1931 1.429 . S
C1940 N1937 1.350 . S
C1940 C1939 1.434 . S
C1941 C1942 1.369 . S
C1941 C1943 1.419 . S
C1941 H1945 0.930 . S
C1942 C1941 1.369 . S
C1942 C1951 1.429 . S
C1943 C1941 1.419 . S
C1943 C1944 1.363 . S
C1943 H1946 0.929 . S
C1944 C1943 1.363 . S
C1944 C1950 1.428 . S
H1945 C1941 0.930 . S
H1946 C1943 0.929 . S
S1947 N1948 1.613 . S
S1947 N1949 1.610 . S
N1948 S1947 1.613 . S
N1948 C1951 1.350 . S
N1949 S1947 1.610 . S
N1949 C1950 1.351 . S
C1950 C1944 1.428 . S
C1950 N1949 1.351 . S
C1950 C1951 1.434 . S
C1951 C1942 1.429 . S
C1951 N1948 1.350 . S
C1951 C1950 1.434 . S
C1952 C1953 1.369 . S
C1952 C1954 1.419 . S
C1952 H1956 0.930 . S
C1953 C1952 1.369 . S
C1953 C1962 1.429 . S
C1954 C1952 1.419 . S
C1954 C1955 1.363 . S
C1954 H1957 0.929 . S
C1955 C1954 1.363 . S
C1955 C1961 1.428 . S
H1956 C1952 0.930 . S
H1957 C1954 0.929 . S
S1958 N1959 1.613 . S
S1958 N1960 1.610 . S
N1959 S1958 1.613 . S
N1959 C1962 1.350 . S
N1960 S1958 1.610 . S
N1960 C1961 1.351 . S
C1961 C1955 1.428 . S
C1961 N1960 1.351 . S
C1961 C1962 1.434 . S
C1962 C1953 1.429 . S
C1962 N1959 1.350 . S
C1962 C1961 1.434 . S
C1963 C1964 1.369 . S
C1963 C1965 1.419 . S
C1963 H1967 0.930 . S
C1964 C1963 1.369 . S
C1964 C1973 1.429 . S
C1965 C1963 1.419 . S
C1965 C1966 1.363 . S
C1965 H1968 0.929 . S
C1966 C1965 1.363 . S
C1966 C1972 1.428 . S
H1967 C1963 0.930 . S
H1968 C1965 0.929 . S
S1969 N1970 1.613 . S
S1969 N1971 1.610 . S
N1970 S1969 1.613 . S
N1970 C1973 1.350 . S
N1971 S1969 1.610 . S
N1971 C1972 1.351 . S
C1972 C1966 1.428 . S
C1972 N1971 1.351 . S
C1972 C1973 1.434 . S
C1973 C1964 1.429 . S
C1973 N1970 1.350 . S
C1973 C1972 1.434 . S
C1974 C1975 1.369 . S
C1974 C1976 1.419 . S
C1974 H1978 0.930 . S
C1975 C1974 1.369 . S
C1975 C1984 1.429 . S
C1976 C1974 1.419 . S
C1976 C1977 1.363 . S
C1976 H1979 0.933 . S
C1977 C1976 1.363 . S
C1977 C1983 1.428 . S
H1978 C1974 0.930 . S
H1979 C1976 0.933 . S
S1980 N1981 1.613 . S
S1980 N1982 1.610 . S
N1981 S1980 1.613 . S
N1981 C1984 1.350 . S
N1982 S1980 1.610 . S
N1982 C1983 1.351 . S
C1983 C1977 1.428 . S
C1983 N1982 1.351 . S
C1983 C1984 1.434 . S
C1984 C1975 1.429 . S
C1984 N1981 1.350 . S
C1984 C1983 1.434 . S
C1985 C1986 1.369 . S
C1985 C1987 1.419 . S
C1985 H1989 0.930 . S
C1986 C1985 1.369 . S
C1986 C1995 1.429 . S
C1987 C1985 1.419 . S
C1987 C1988 1.363 . S
C1987 H1990 0.929 . S
C1988 C1987 1.363 . S
C1988 C1994 1.428 . S
H1989 C1985 0.930 . S
H1990 C1987 0.929 . S
S1991 N1992 1.613 . S
S1991 N1993 1.610 . S
N1992 S1991 1.613 . S
N1992 C1995 1.350 . S
N1993 S1991 1.610 . S
N1993 C1994 1.351 . S
C1994 C1988 1.428 . S
C1994 N1993 1.351 . S
C1994 C1995 1.434 . S
C1995 C1986 1.429 . S
C1995 N1992 1.350 . S
C1995 C1994 1.434 . S
C1996 C1997 1.369 . S
C1996 C1998 1.419 . S
C1996 H2000 0.930 . S
C1997 C1996 1.369 . S
C1997 C2006 1.429 . S
C1998 C1996 1.419 . S
C1998 C1999 1.363 . S
C1998 H2001 0.929 . S
C1999 C1998 1.363 . S
C1999 C2005 1.428 . S
H2000 C1996 0.930 . S
H2001 C1998 0.929 . S
S2002 N2003 1.613 . S
S2002 N2004 1.610 . S
N2003 S2002 1.613 . S
N2003 C2006 1.350 . S
N2004 S2002 1.610 . S
N2004 C2005 1.351 . S
C2005 C1999 1.428 . S
C2005 N2004 1.351 . S
C2005 C2006 1.434 . S
C2006 C1997 1.429 . S
C2006 N2003 1.350 . S
C2006 C2005 1.434 . S
C2007 C2008 1.369 . S
C2007 C2009 1.419 . S
C2007 H2011 0.930 . S
C2008 C2007 1.369 . S
C2008 C2017 1.429 . S
C2009 C2007 1.419 . S
C2009 C2010 1.363 . S
C2009 H2012 0.929 . S
C2010 C2009 1.363 . S
C2010 C2016 1.428 . S
H2011 C2007 0.930 . S
H2012 C2009 0.929 . S
S2013 N2014 1.613 . S
S2013 N2015 1.610 . S
N2014 S2013 1.613 . S
N2014 C2017 1.350 . S
N2015 S2013 1.610 . S
N2015 C2016 1.351 . S
C2016 C2010 1.428 . S
C2016 N2015 1.351 . S
C2016 C2017 1.434 . S
C2017 C2008 1.429 . S
C2017 N2014 1.350 . S
C2017 C2016 1.434 . S
C2018 C2019 1.369 . S
C2018 C2020 1.419 . S
C2018 H2022 0.930 . S
C2019 C2018 1.369 . S
C2019 C2028 1.429 . S
C2020 C2018 1.419 . S
C2020 C2021 1.363 . S
C2020 H2023 0.929 . S
C2021 C2020 1.363 . S
C2021 C2027 1.428 . S
H2022 C2018 0.930 . S
H2023 C2020 0.929 . S
S2024 N2025 1.613 1_545 S
S2024 N2026 1.610 . S
N2025 S2024 1.613 1_565 S
N2025 C2028 1.350 1_565 S
N2026 S2024 1.610 . S
N2026 C2027 1.351 . S
C2027 C2021 1.428 . S
C2027 N2026 1.351 . S
C2027 C2028 1.434 . S
C2028 C2019 1.429 . S
C2028 N2025 1.350 1_545 S
C2028 C2027 1.434 . S
C2029 C2030 1.369 . S
C2029 C2031 1.419 . S
C2029 H2033 0.930 . S
C2030 C2029 1.369 . S
C2030 C2039 1.429 . S
C2031 C2029 1.419 . S
C2031 C2032 1.363 . S
C2031 H2034 0.929 . S
C2032 C2031 1.363 . S
C2032 C2038 1.428 . S
H2033 C2029 0.930 . S
H2034 C2031 0.929 . S
S2035 N2036 1.613 . S
S2035 N2037 1.610 . S
N2036 S2035 1.613 . S
N2036 C2039 1.350 . S
N2037 S2035 1.610 . S
N2037 C2038 1.351 . S
C2038 C2032 1.428 . S
C2038 N2037 1.351 . S
C2038 C2039 1.434 . S
C2039 C2030 1.429 . S
C2039 N2036 1.350 . S
C2039 C2038 1.434 . S
C2040 C2041 1.369 . S
C2040 C2042 1.419 . S
C2040 H2044 0.930 . S
C2041 C2040 1.369 . S
C2041 C2050 1.429 . S
C2042 C2040 1.419 . S
C2042 C2043 1.363 . S
C2042 H2045 0.929 . S
C2043 C2042 1.363 . S
C2043 C2049 1.428 . S
H2044 C2040 0.930 . S
H2045 C2042 0.929 . S
S2046 N2047 1.613 . S
S2046 N2048 1.610 . S
N2047 S2046 1.613 . S
N2047 C2050 1.350 . S
N2048 S2046 1.610 . S
N2048 C2049 1.351 . S
C2049 C2043 1.428 . S
C2049 N2048 1.351 . S
C2049 C2050 1.434 . S
C2050 C2041 1.429 . S
C2050 N2047 1.350 . S
C2050 C2049 1.434 . S
C2051 C2052 1.369 . S
C2051 C2053 1.419 . S
C2051 H2055 0.930 . S
C2052 C2051 1.369 . S
C2052 C2061 1.429 . S
C2053 C2051 1.419 . S
C2053 C2054 1.363 . S
C2053 H2056 0.929 . S
C2054 C2053 1.363 . S
C2054 C2060 1.428 . S
H2055 C2051 0.930 . S
H2056 C2053 0.929 . S
S2057 N2058 1.613 . S
S2057 N2059 1.610 . S
N2058 S2057 1.613 . S
N2058 C2061 1.350 . S
N2059 S2057 1.610 . S
N2059 C2060 1.351 . S
C2060 C2054 1.428 . S
C2060 N2059 1.351 . S
C2060 C2061 1.434 . S
C2061 C2052 1.429 . S
C2061 N2058 1.350 . S
C2061 C2060 1.434 . S
C2062 C2063 1.369 . S
C2062 C2064 1.419 . S
C2062 H2066 0.930 . S
C2063 C2062 1.369 . S
C2063 C2072 1.429 . S
C2064 C2062 1.419 . S
C2064 C2065 1.363 . S
C2064 H2067 0.929 . S
C2065 C2064 1.363 . S
C2065 C2071 1.428 . S
H2066 C2062 0.930 . S
H2067 C2064 0.929 . S
S2068 N2069 1.613 . S
S2068 N2070 1.610 . S
N2069 S2068 1.613 . S
N2069 C2072 1.350 . S
N2070 S2068 1.610 . S
N2070 C2071 1.351 . S
C2071 C2065 1.428 . S
C2071 N2070 1.351 . S
C2071 C2072 1.434 . S
C2072 C2063 1.429 . S
C2072 N2069 1.350 . S
C2072 C2071 1.434 . S
C2073 C2074 1.369 . S
C2073 C2075 1.419 . S
C2073 H2077 0.930 . S
C2074 C2073 1.369 . S
C2074 C2083 1.429 . S
C2075 C2073 1.419 . S
C2075 C2076 1.363 . S
C2075 H2078 0.929 . S
C2076 C2075 1.363 . S
C2076 C2082 1.428 . S
H2077 C2073 0.930 . S
H2078 C2075 0.929 . S
S2079 N2080 1.613 1_655 S
S2079 N2081 1.610 . S
N2080 S2079 1.613 1_455 S
N2080 C2083 1.350 . S
N2081 S2079 1.610 . S
N2081 C2082 1.351 1_655 S
C2082 C2076 1.428 . S
C2082 N2081 1.351 1_455 S
C2082 C2083 1.434 . S
C2083 C2074 1.429 . S
C2083 N2080 1.350 . S
C2083 C2082 1.434 . S
C2084 C2085 1.369 . S
C2084 C2086 1.419 . S
C2084 H2088 0.930 . S
C2085 C2084 1.369 . S
C2085 C2094 1.429 . S
C2086 C2084 1.419 . S
C2086 C2087 1.363 . S
C2086 H2089 0.929 . S
C2087 C2086 1.363 . S
C2087 C2093 1.428 . S
H2088 C2084 0.930 . S
H2089 C2086 0.929 . S
S2090 N2091 1.613 . S
S2090 N2092 1.610 . S
N2091 S2090 1.613 . S
N2091 C2094 1.350 . S
N2092 S2090 1.610 . S
N2092 C2093 1.351 . S
C2093 C2087 1.428 . S
C2093 N2092 1.351 . S
C2093 C2094 1.434 . S
C2094 C2085 1.429 . S
C2094 N2091 1.350 . S
C2094 C2093 1.434 . S
C2095 C2096 1.369 . S
C2095 C2097 1.419 . S
C2095 H2099 0.930 . S
C2096 C2095 1.369 . S
C2096 C2105 1.429 . S
C2097 C2095 1.419 . S
C2097 C2098 1.363 . S
C2097 H2100 0.929 . S
C2098 C2097 1.363 . S
C2098 C2104 1.428 . S
H2099 C2095 0.930 . S
H2100 C2097 0.929 . S
S2101 N2102 1.613 . S
S2101 N2103 1.610 . S
N2102 S2101 1.613 . S
N2102 C2105 1.350 . S
N2103 S2101 1.610 . S
N2103 C2104 1.351 . S
C2104 C2098 1.428 . S
C2104 N2103 1.351 . S
C2104 C2105 1.434 . S
C2105 C2096 1.429 . S
C2105 N2102 1.350 . S
C2105 C2104 1.434 . S
C2106 C2107 1.369 . S
C2106 C2108 1.419 . S
C2106 H2110 0.930 . S
C2107 C2106 1.369 . S
C2107 C2116 1.429 . S
C2108 C2106 1.419 . S
C2108 C2109 1.363 . S
C2108 H2111 0.929 . S
C2109 C2108 1.363 . S
C2109 C2115 1.428 . S
H2110 C2106 0.930 . S
H2111 C2108 0.929 . S
S2112 N2113 1.613 . S
S2112 N2114 1.610 . S
N2113 S2112 1.613 . S
N2113 C2116 1.350 . S
N2114 S2112 1.610 . S
N2114 C2115 1.351 . S
C2115 C2109 1.428 . S
C2115 N2114 1.351 . S
C2115 C2116 1.434 . S
C2116 C2107 1.429 . S
C2116 N2113 1.350 . S
C2116 C2115 1.434 . S
C2117 C2118 1.369 . S
C2117 C2119 1.419 . S
C2117 H2121 0.930 . S
C2118 C2117 1.369 . S
C2118 C2127 1.429 . S
C2119 C2117 1.419 . S
C2119 C2120 1.363 . S
C2119 H2122 0.929 . S
C2120 C2119 1.363 . S
C2120 C2126 1.428 . S
H2121 C2117 0.930 . S
H2122 C2119 0.929 . S
S2123 N2124 1.613 . S
S2123 N2125 1.610 . S
N2124 S2123 1.613 . S
N2124 C2127 1.350 . S
N2125 S2123 1.610 . S
N2125 C2126 1.351 . S
C2126 C2120 1.428 . S
C2126 N2125 1.351 . S
C2126 C2127 1.434 . S
C2127 C2118 1.429 . S
C2127 N2124 1.350 . S
C2127 C2126 1.434 . S
C2128 C2129 1.369 . S
C2128 C2130 1.419 . S
C2128 H2132 0.930 . S
C2129 C2128 1.369 . S
C2129 C2138 1.429 . S
C2130 C2128 1.419 . S
C2130 C2131 1.363 . S
C2130 H2133 0.929 . S
C2131 C2130 1.363 . S
C2131 C2137 1.428 . S
H2132 C2128 0.930 . S
H2133 C2130 0.929 . S
S2134 N2135 1.613 . S
S2134 N2136 1.610 . S
N2135 S2134 1.613 . S
N2135 C2138 1.350 . S
N2136 S2134 1.610 . S
N2136 C2137 1.351 . S
C2137 C2131 1.428 . S
C2137 N2136 1.351 . S
C2137 C2138 1.434 . S
C2138 C2129 1.429 . S
C2138 N2135 1.350 . S
C2138 C2137 1.434 . S
C2139 C2140 1.369 . S
C2139 C2141 1.419 . S
C2139 H2143 0.930 1_554 S
C2140 C2139 1.369 . S
C2140 C2149 1.429 . S
C2141 C2139 1.419 . S
C2141 C2142 1.363 . S
C2141 H2144 0.929 . S
C2142 C2141 1.363 . S
C2142 C2148 1.428 . S
H2143 C2139 0.930 1_556 S
H2144 C2141 0.929 . S
S2145 N2146 1.613 . S
S2145 N2147 1.610 . S
N2146 S2145 1.613 . S
N2146 C2149 1.350 . S
N2147 S2145 1.610 . S
N2147 C2148 1.351 . S
C2148 C2142 1.428 . S
C2148 N2147 1.351 . S
C2148 C2149 1.434 . S
C2149 C2140 1.429 . S
C2149 N2146 1.350 . S
C2149 C2148 1.434 . S
C2150 C2151 1.369 . S
C2150 C2152 1.419 . S
C2150 H2154 0.930 . S
C2151 C2150 1.369 . S
C2151 C2160 1.429 . S
C2152 C2150 1.419 . S
C2152 C2153 1.363 . S
C2152 H2155 0.929 . S
C2153 C2152 1.363 . S
C2153 C2159 1.428 . S
H2154 C2150 0.930 . S
H2155 C2152 0.929 . S
S2156 N2157 1.613 . S
S2156 N2158 1.610 . S
N2157 S2156 1.613 . S
N2157 C2160 1.350 . S
N2158 S2156 1.610 . S
N2158 C2159 1.351 . S
C2159 C2153 1.428 . S
C2159 N2158 1.351 . S
C2159 C2160 1.434 . S
C2160 C2151 1.429 . S
C2160 N2157 1.350 . S
C2160 C2159 1.434 . S
C2161 C2162 1.369 . S
C2161 C2163 1.419 . S
C2161 H2165 0.930 . S
C2162 C2161 1.369 . S
C2162 C2171 1.429 . S
C2163 C2161 1.419 . S
C2163 C2164 1.363 . S
C2163 H2166 0.929 . S
C2164 C2163 1.363 . S
C2164 C2170 1.428 . S
H2165 C2161 0.930 . S
H2166 C2163 0.929 . S
S2167 N2168 1.613 . S
S2167 N2169 1.610 . S
N2168 S2167 1.613 . S
N2168 C2171 1.350 . S
N2169 S2167 1.610 . S
N2169 C2170 1.351 . S
C2170 C2164 1.428 . S
C2170 N2169 1.351 . S
C2170 C2171 1.434 . S
C2171 C2162 1.429 . S
C2171 N2168 1.350 . S
C2171 C2170 1.434 . S
C2172 C2173 1.369 . S
C2172 C2174 1.419 . S
C2172 H2176 0.930 . S
C2173 C2172 1.369 . S
C2173 C2182 1.429 . S
C2174 C2172 1.419 . S
C2174 C2175 1.363 . S
C2174 H2177 0.929 . S
C2175 C2174 1.363 . S
C2175 C2181 1.428 . S
H2176 C2172 0.930 . S
H2177 C2174 0.929 . S
S2178 N2179 1.613 . S
S2178 N2180 1.610 . S
N2179 S2178 1.613 . S
N2179 C2182 1.350 . S
N2180 S2178 1.610 . S
N2180 C2181 1.351 . S
C2181 C2175 1.428 . S
C2181 N2180 1.351 . S
C2181 C2182 1.434 . S
C2182 C2173 1.429 . S
C2182 N2179 1.350 . S
C2182 C2181 1.434 . S
C2183 C2184 1.369 . S
C2183 C2185 1.419 . S
C2183 H2187 0.930 . S
C2184 C2183 1.369 . S
C2184 C2193 1.429 . S
C2185 C2183 1.419 . S
C2185 C2186 1.363 . S
C2185 H2188 0.929 . S
C2186 C2185 1.363 . S
C2186 C2192 1.428 . S
H2187 C2183 0.930 . S
H2188 C2185 0.929 . S
S2189 N2190 1.613 . S
S2189 N2191 1.610 . S
N2190 S2189 1.613 . S
N2190 C2193 1.350 . S
N2191 S2189 1.610 . S
N2191 C2192 1.351 . S
C2192 C2186 1.428 . S
C2192 N2191 1.351 . S
C2192 C2193 1.434 . S
C2193 C2184 1.429 . S
C2193 N2190 1.350 . S
C2193 C2192 1.434 . S
C2194 C2195 1.369 . S
C2194 C2196 1.419 . S
C2194 H2198 0.930 . S
C2195 C2194 1.369 . S
C2195 C2204 1.429 . S
C2196 C2194 1.419 . S
C2196 C2197 1.363 . S
C2196 H2199 0.929 . S
C2197 C2196 1.363 . S
C2197 C2203 1.428 . S
H2198 C2194 0.930 . S
H2199 C2196 0.929 . S
S2200 N2201 1.613 . S
S2200 N2202 1.610 . S
N2201 S2200 1.613 . S
N2201 C2204 1.350 . S
N2202 S2200 1.610 . S
N2202 C2203 1.351 . S
C2203 C2197 1.428 . S
C2203 N2202 1.351 . S
C2203 C2204 1.434 . S
C2204 C2195 1.429 . S
C2204 N2201 1.350 . S
C2204 C2203 1.434 . S
C2205 C2206 1.369 . S
C2205 C2207 1.419 . S
C2205 H2209 0.930 . S
C2206 C2205 1.369 . S
C2206 C2215 1.429 . S
C2207 C2205 1.419 . S
C2207 C2208 1.363 . S
C2207 H2210 0.929 . S
C2208 C2207 1.363 . S
C2208 C2214 1.428 . S
H2209 C2205 0.930 . S
H2210 C2207 0.929 . S
S2211 N2212 1.613 . S
S2211 N2213 1.610 . S
N2212 S2211 1.613 . S
N2212 C2215 1.350 . S
N2213 S2211 1.610 . S
N2213 C2214 1.351 . S
C2214 C2208 1.428 . S
C2214 N2213 1.351 . S
C2214 C2215 1.434 . S
C2215 C2206 1.429 . S
C2215 N2212 1.350 . S
C2215 C2214 1.434 . S
C2216 C2217 1.369 . S
C2216 C2218 1.419 . S
C2216 H2220 0.930 . S
C2217 C2216 1.369 . S
C2217 C2226 1.429 . S
C2218 C2216 1.419 . S
C2218 C2219 1.363 . S
C2218 H2221 0.929 . S
C2219 C2218 1.363 . S
C2219 C2225 1.428 . S
H2220 C2216 0.930 . S
H2221 C2218 0.929 . S
S2222 N2223 1.613 . S
S2222 N2224 1.610 . S
N2223 S2222 1.613 . S
N2223 C2226 1.350 . S
N2224 S2222 1.610 . S
N2224 C2225 1.351 . S
C2225 C2219 1.428 . S
C2225 N2224 1.351 . S
C2225 C2226 1.434 . S
C2226 C2217 1.429 . S
C2226 N2223 1.350 . S
C2226 C2225 1.434 . S
C2227 C2228 1.369 . S
C2227 C2229 1.419 . S
C2227 H2231 0.930 . S
C2228 C2227 1.369 . S
C2228 C2237 1.429 . S
C2229 C2227 1.419 . S
C2229 C2230 1.363 . S
C2229 H2232 0.929 . S
C2230 C2229 1.363 . S
C2230 C2236 1.428 . S
H2231 C2227 0.930 . S
H2232 C2229 0.929 . S
S2233 N2234 1.613 . S
S2233 N2235 1.610 . S
N2234 S2233 1.613 . S
N2234 C2237 1.350 . S
N2235 S2233 1.610 . S
N2235 C2236 1.351 . S
C2236 C2230 1.428 . S
C2236 N2235 1.351 . S
C2236 C2237 1.434 . S
C2237 C2228 1.429 . S
C2237 N2234 1.350 . S
C2237 C2236 1.434 . S
C2238 C2239 1.369 . S
C2238 C2240 1.419 . S
C2238 H2242 0.930 . S
C2239 C2238 1.369 . S
C2239 C2248 1.429 . S
C2240 C2238 1.419 . S
C2240 C2241 1.363 . S
C2240 H2243 0.929 . S
C2241 C2240 1.363 . S
C2241 C2247 1.428 . S
H2242 C2238 0.930 . S
H2243 C2240 0.929 . S
S2244 N2245 1.613 . S
S2244 N2246 1.610 . S
N2245 S2244 1.613 . S
N2245 C2248 1.350 . S
N2246 S2244 1.610 . S
N2246 C2247 1.351 . S
C2247 C2241 1.428 . S
C2247 N2246 1.351 . S
C2247 C2248 1.434 . S
C2248 C2239 1.429 . S
C2248 N2245 1.350 . S
C2248 C2247 1.434 . S
C2249 C2250 1.369 . S
C2249 C2251 1.419 . S
C2249 H2253 0.930 . S
C2250 C2249 1.369 . S
C2250 C2259 1.429 . S
C2251 C2249 1.419 . S
C2251 C2252 1.363 . S
C2251 H2254 0.929 . S
C2252 C2251 1.363 . S
C2252 C2258 1.428 . S
H2253 C2249 0.930 . S
H2254 C2251 0.929 . S
S2255 N2256 1.613 . S
S2255 N2257 1.610 . S
N2256 S2255 1.613 . S
N2256 C2259 1.350 . S
N2257 S2255 1.610 . S
N2257 C2258 1.351 . S
C2258 C2252 1.428 . S
C2258 N2257 1.351 . S
C2258 C2259 1.434 . S
C2259 C2250 1.429 . S
C2259 N2256 1.350 . S
C2259 C2258 1.434 . S
C2260 C2261 1.369 . S
C2260 C2262 1.419 . S
C2260 H2264 0.930 . S
C2261 C2260 1.369 . S
C2261 C2270 1.429 . S
C2262 C2260 1.419 . S
C2262 C2263 1.363 . S
C2262 H2265 0.929 . S
C2263 C2262 1.363 . S
C2263 C2269 1.428 . S
H2264 C2260 0.930 . S
H2265 C2262 0.929 . S
S2266 N2267 1.613 . S
S2266 N2268 1.610 . S
N2267 S2266 1.613 . S
N2267 C2270 1.350 . S
N2268 S2266 1.610 . S
N2268 C2269 1.351 . S
C2269 C2263 1.428 . S
C2269 N2268 1.351 . S
C2269 C2270 1.434 . S
C2270 C2261 1.429 . S
C2270 N2267 1.350 . S
C2270 C2269 1.434 . S
C2271 C2272 1.369 . S
C2271 C2273 1.419 . S
C2271 H2275 0.930 . S
C2272 C2271 1.369 . S
C2272 C2281 1.429 . S
C2273 C2271 1.419 . S
C2273 C2274 1.363 . S
C2273 H2276 0.929 . S
C2274 C2273 1.363 . S
C2274 C2280 1.428 . S
H2275 C2271 0.930 . S
H2276 C2273 0.929 . S
S2277 N2278 1.613 . S
S2277 N2279 1.610 . S
N2278 S2277 1.613 . S
N2278 C2281 1.350 . S
N2279 S2277 1.610 . S
N2279 C2280 1.351 . S
C2280 C2274 1.428 . S
C2280 N2279 1.351 . S
C2280 C2281 1.434 . S
C2281 C2272 1.429 . S
C2281 N2278 1.350 . S
C2281 C2280 1.434 . S
C2282 C2283 1.369 . S
C2282 C2284 1.419 . S
C2282 H2286 0.930 . S
C2283 C2282 1.369 . S
C2283 C2292 1.429 . S
C2284 C2282 1.419 . S
C2284 C2285 1.363 . S
C2284 H2287 0.929 . S
C2285 C2284 1.363 . S
C2285 C2291 1.428 . S
H2286 C2282 0.930 . S
H2287 C2284 0.929 . S
S2288 N2289 1.613 . S
S2288 N2290 1.610 . S
N2289 S2288 1.613 . S
N2289 C2292 1.350 . S
N2290 S2288 1.610 . S
N2290 C2291 1.351 . S
C2291 C2285 1.428 . S
C2291 N2290 1.351 . S
C2291 C2292 1.434 . S
C2292 C2283 1.429 . S
C2292 N2289 1.350 . S
C2292 C2291 1.434 . S
C2293 C2294 1.369 . S
C2293 C2295 1.419 . S
C2293 H2297 0.930 . S
C2294 C2293 1.369 . S
C2294 C2303 1.429 . S
C2295 C2293 1.419 . S
C2295 C2296 1.363 . S
C2295 H2298 0.929 . S
C2296 C2295 1.363 . S
C2296 C2302 1.428 . S
H2297 C2293 0.930 . S
H2298 C2295 0.929 . S
S2299 N2300 1.613 . S
S2299 N2301 1.610 . S
N2300 S2299 1.613 . S
N2300 C2303 1.350 . S
N2301 S2299 1.610 . S
N2301 C2302 1.351 . S
C2302 C2296 1.428 . S
C2302 N2301 1.351 . S
C2302 C2303 1.434 . S
C2303 C2294 1.429 . S
C2303 N2300 1.350 . S
C2303 C2302 1.434 . S
C2304 C2305 1.369 . S
C2304 C2306 1.419 . S
C2304 H2308 0.930 . S
C2305 C2304 1.369 . S
C2305 C2314 1.429 . S
C2306 C2304 1.419 . S
C2306 C2307 1.363 . S
C2306 H2309 0.929 . S
C2307 C2306 1.363 . S
C2307 C2313 1.428 . S
H2308 C2304 0.930 . S
H2309 C2306 0.929 . S
S2310 N2311 1.613 . S
S2310 N2312 1.610 . S
N2311 S2310 1.613 . S
N2311 C2314 1.350 . S
N2312 S2310 1.610 . S
N2312 C2313 1.351 . S
C2313 C2307 1.428 . S
C2313 N2312 1.351 . S
C2313 C2314 1.434 . S
C2314 C2305 1.429 . S
C2314 N2311 1.350 . S
C2314 C2313 1.434 . S
C2315 C2316 1.369 . S
C2315 C2317 1.419 . S
C2315 H2319 0.930 . S
C2316 C2315 1.369 . S
C2316 C2325 1.429 . S
C2317 C2315 1.419 . S
C2317 C2318 1.363 . S
C2317 H2320 0.929 . S
C2318 C2317 1.363 . S
C2318 C2324 1.428 . S
H2319 C2315 0.930 . S
H2320 C2317 0.929 . S
S2321 N2322 1.613 . S
S2321 N2323 1.610 . S
N2322 S2321 1.613 . S
N2322 C2325 1.350 . S
N2323 S2321 1.610 . S
N2323 C2324 1.351 . S
C2324 C2318 1.428 . S
C2324 N2323 1.351 . S
C2324 C2325 1.434 . S
C2325 C2316 1.429 . S
C2325 N2322 1.350 . S
C2325 C2324 1.434 . S
C2326 C2327 1.369 . S
C2326 C2328 1.419 . S
C2326 H2330 0.930 . S
C2327 C2326 1.369 . S
C2327 C2336 1.429 . S
C2328 C2326 1.419 . S
C2328 C2329 1.363 . S
C2328 H2331 0.929 . S
C2329 C2328 1.363 . S
C2329 C2335 1.428 . S
H2330 C2326 0.930 . S
H2331 C2328 0.929 . S
S2332 N2333 1.613 . S
S2332 N2334 1.610 . S
N2333 S2332 1.613 . S
N2333 C2336 1.350 . S
N2334 S2332 1.610 . S
N2334 C2335 1.351 . S
C2335 C2329 1.428 . S
C2335 N2334 1.351 . S
C2335 C2336 1.434 . S
C2336 C2327 1.429 . S
C2336 N2333 1.350 . S
C2336 C2335 1.434 . S
C2337 C2338 1.369 . S
C2337 C2339 1.419 . S
C2337 H2341 0.930 . S
C2338 C2337 1.369 . S
C2338 C2347 1.429 . S
C2339 C2337 1.419 . S
C2339 C2340 1.363 . S
C2339 H2342 0.929 . S
C2340 C2339 1.363 . S
C2340 C2346 1.428 . S
H2341 C2337 0.930 . S
H2342 C2339 0.929 . S
S2343 N2344 1.613 . S
S2343 N2345 1.610 . S
N2344 S2343 1.613 . S
N2344 C2347 1.350 . S
N2345 S2343 1.610 . S
N2345 C2346 1.351 . S
C2346 C2340 1.428 . S
C2346 N2345 1.351 . S
C2346 C2347 1.434 . S
C2347 C2338 1.429 . S
C2347 N2344 1.350 . S
C2347 C2346 1.434 . S
C2348 C2349 1.369 . S
C2348 C2350 1.419 . S
C2348 H2352 0.930 . S
C2349 C2348 1.369 . S
C2349 C2358 1.429 . S
C2350 C2348 1.419 . S
C2350 C2351 1.363 . S
C2350 H2353 0.929 . S
C2351 C2350 1.363 . S
C2351 C2357 1.428 . S
H2352 C2348 0.930 . S
H2353 C2350 0.929 . S
S2354 N2355 1.613 . S
S2354 N2356 1.610 . S
N2355 S2354 1.613 . S
N2355 C2358 1.350 . S
N2356 S2354 1.610 . S
N2356 C2357 1.351 . S
C2357 C2351 1.428 . S
C2357 N2356 1.351 . S
C2357 C2358 1.434 . S
C2358 C2349 1.429 . S
C2358 N2355 1.350 . S
C2358 C2357 1.434 . S
C2359 C2360 1.369 . S
C2359 C2361 1.419 . S
C2359 H2363 0.930 . S
C2360 C2359 1.369 . S
C2360 C2369 1.429 . S
C2361 C2359 1.419 . S
C2361 C2362 1.363 . S
C2361 H2364 0.929 . S
C2362 C2361 1.363 . S
C2362 C2368 1.428 . S
H2363 C2359 0.930 . S
H2364 C2361 0.929 . S
S2365 N2366 1.613 . S
S2365 N2367 1.610 . S
N2366 S2365 1.613 . S
N2366 C2369 1.350 . S
N2367 S2365 1.610 . S
N2367 C2368 1.351 . S
C2368 C2362 1.428 . S
C2368 N2367 1.351 . S
C2368 C2369 1.434 . S
C2369 C2360 1.429 . S
C2369 N2366 1.350 . S
C2369 C2368 1.434 . S
C2370 C2371 1.369 . S
C2370 C2372 1.419 . S
C2370 H2374 0.930 . S
C2371 C2370 1.369 . S
C2371 C2380 1.429 . S
C2372 C2370 1.419 . S
C2372 C2373 1.363 . S
C2372 H2375 0.929 . S
C2373 C2372 1.363 . S
C2373 C2379 1.428 . S
H2374 C2370 0.930 . S
H2375 C2372 0.929 . S
S2376 N2377 1.613 . S
S2376 N2378 1.610 . S
N2377 S2376 1.613 . S
N2377 C2380 1.350 . S
N2378 S2376 1.610 . S
N2378 C2379 1.351 . S
C2379 C2373 1.428 . S
C2379 N2378 1.351 . S
C2379 C2380 1.434 . S
C2380 C2371 1.429 . S
C2380 N2377 1.350 . S
C2380 C2379 1.434 . S
C2381 C2382 1.369 . S
C2381 C2383 1.419 . S
C2381 H2385 0.930 . S
C2382 C2381 1.369 . S
C2382 C2391 1.429 . S
C2383 C2381 1.419 . S
C2383 C2384 1.363 . S
C2383 H2386 0.929 . S
C2384 C2383 1.363 . S
C2384 C2390 1.428 . S
H2385 C2381 0.930 . S
H2386 C2383 0.929 . S
S2387 N2388 1.613 . S
S2387 N2389 1.610 . S
N2388 S2387 1.613 . S
N2388 C2391 1.350 . S
N2389 S2387 1.610 . S
N2389 C2390 1.351 . S
C2390 C2384 1.428 . S
C2390 N2389 1.351 . S
C2390 C2391 1.434 . S
C2391 C2382 1.429 . S
C2391 N2388 1.350 . S
C2391 C2390 1.434 . S
C2392 C2393 1.369 . S
C2392 C2394 1.419 . S
C2392 H2396 0.930 . S
C2393 C2392 1.369 . S
C2393 C2402 1.429 . S
C2394 C2392 1.419 . S
C2394 C2395 1.363 . S
C2394 H2397 0.929 . S
C2395 C2394 1.363 . S
C2395 C2401 1.428 . S
H2396 C2392 0.930 . S
H2397 C2394 0.929 . S
S2398 N2399 1.613 . S
S2398 N2400 1.610 . S
N2399 S2398 1.613 . S
N2399 C2402 1.350 . S
N2400 S2398 1.610 . S
N2400 C2401 1.351 . S
C2401 C2395 1.428 . S
C2401 N2400 1.351 . S
C2401 C2402 1.434 . S
C2402 C2393 1.429 . S
C2402 N2399 1.350 . S
C2402 C2401 1.434 . S
C2403 C2404 1.369 . S
C2403 C2405 1.419 . S
C2403 H2407 0.930 . S
C2404 C2403 1.369 . S
C2404 C2413 1.429 . S
C2405 C2403 1.419 . S
C2405 C2406 1.363 . S
C2405 H2408 0.929 . S
C2406 C2405 1.363 . S
C2406 C2412 1.428 . S
H2407 C2403 0.930 . S
H2408 C2405 0.929 . S
S2409 N2410 1.613 . S
S2409 N2411 1.610 . S
N2410 S2409 1.613 . S
N2410 C2413 1.350 . S
N2411 S2409 1.610 . S
N2411 C2412 1.351 . S
C2412 C2406 1.428 . S
C2412 N2411 1.351 . S
C2412 C2413 1.434 . S
C2413 C2404 1.429 . S
C2413 N2410 1.350 . S
C2413 C2412 1.434 . S
C2414 C2415 1.369 . S
C2414 C2416 1.419 . S
C2414 H2418 0.930 . S
C2415 C2414 1.369 . S
C2415 C2424 1.429 . S
C2416 C2414 1.419 . S
C2416 C2417 1.363 . S
C2416 H2419 0.929 . S
C2417 C2416 1.363 . S
C2417 C2423 1.428 . S
H2418 C2414 0.930 . S
H2419 C2416 0.929 . S
S2420 N2421 1.613 . S
S2420 N2422 1.610 . S
N2421 S2420 1.613 . S
N2421 C2424 1.350 . S
N2422 S2420 1.610 . S
N2422 C2423 1.351 . S
C2423 C2417 1.428 . S
C2423 N2422 1.351 . S
C2423 C2424 1.434 . S
C2424 C2415 1.429 . S
C2424 N2421 1.350 . S
C2424 C2423 1.434 . S
C2425 C2426 1.369 . S
C2425 C2427 1.419 . S
C2425 H2429 0.930 . S
C2426 C2425 1.369 . S
C2426 C2435 1.429 . S
C2427 C2425 1.419 . S
C2427 C2428 1.363 . S
C2427 H2430 0.929 . S
C2428 C2427 1.363 . S
C2428 C2434 1.428 . S
H2429 C2425 0.930 . S
H2430 C2427 0.929 . S
S2431 N2432 1.613 . S
S2431 N2433 1.610 . S
N2432 S2431 1.613 . S
N2432 C2435 1.350 . S
N2433 S2431 1.610 . S
N2433 C2434 1.351 . S
C2434 C2428 1.428 . S
C2434 N2433 1.351 . S
C2434 C2435 1.434 . S
C2435 C2426 1.429 . S
C2435 N2432 1.350 . S
C2435 C2434 1.434 . S
C2436 C2437 1.369 . S
C2436 C2438 1.419 . S
C2436 H2440 0.930 . S
C2437 C2436 1.369 . S
C2437 C2446 1.429 . S
C2438 C2436 1.419 . S
C2438 C2439 1.363 . S
C2438 H2441 0.929 . S
C2439 C2438 1.363 . S
C2439 C2445 1.428 . S
H2440 C2436 0.930 . S
H2441 C2438 0.929 . S
S2442 N2443 1.613 . S
S2442 N2444 1.610 . S
N2443 S2442 1.613 . S
N2443 C2446 1.350 . S
N2444 S2442 1.610 . S
N2444 C2445 1.351 . S
C2445 C2439 1.428 . S
C2445 N2444 1.351 . S
C2445 C2446 1.434 . S
C2446 C2437 1.429 . S
C2446 N2443 1.350 . S
C2446 C2445 1.434 . S
C2447 C2448 1.369 . S
C2447 C2449 1.419 . S
C2447 H2451 0.930 . S
C2448 C2447 1.369 . S
C2448 C2457 1.429 . S
C2449 C2447 1.419 . S
C2449 C2450 1.363 . S
C2449 H2452 0.929 . S
C2450 C2449 1.363 . S
C2450 C2456 1.428 . S
H2451 C2447 0.930 . S
H2452 C2449 0.929 . S
S2453 N2454 1.613 . S
S2453 N2455 1.610 . S
N2454 S2453 1.613 . S
N2454 C2457 1.350 . S
N2455 S2453 1.610 . S
N2455 C2456 1.351 . S
C2456 C2450 1.428 . S
C2456 N2455 1.351 . S
C2456 C2457 1.434 . S
C2457 C2448 1.429 . S
C2457 N2454 1.350 . S
C2457 C2456 1.434 . S
C2458 C2459 1.369 . S
C2458 C2460 1.419 . S
C2458 H2462 0.930 . S
C2459 C2458 1.369 . S
C2459 C2468 1.429 . S
C2460 C2458 1.419 . S
C2460 C2461 1.363 . S
C2460 H2463 0.929 . S
C2461 C2460 1.363 . S
C2461 C2467 1.428 . S
H2462 C2458 0.930 . S
H2463 C2460 0.929 . S
S2464 N2465 1.613 . S
S2464 N2466 1.610 . S
N2465 S2464 1.613 . S
N2465 C2468 1.350 . S
N2466 S2464 1.610 . S
N2466 C2467 1.351 . S
C2467 C2461 1.428 . S
C2467 N2466 1.351 . S
C2467 C2468 1.434 . S
C2468 C2459 1.429 . S
C2468 N2465 1.350 . S
C2468 C2467 1.434 . S
C2469 C2470 1.369 . S
C2469 C2471 1.419 . S
C2469 H2473 0.930 . S
C2470 C2469 1.369 . S
C2470 C2479 1.429 . S
C2471 C2469 1.419 . S
C2471 C2472 1.363 . S
C2471 H2474 0.929 . S
C2472 C2471 1.363 . S
C2472 C2478 1.428 . S
H2473 C2469 0.930 . S
H2474 C2471 0.929 . S
S2475 N2476 1.613 . S
S2475 N2477 1.610 . S
N2476 S2475 1.613 . S
N2476 C2479 1.350 . S
N2477 S2475 1.610 . S
N2477 C2478 1.351 . S
C2478 C2472 1.428 . S
C2478 N2477 1.351 . S
C2478 C2479 1.434 . S
C2479 C2470 1.429 . S
C2479 N2476 1.350 . S
C2479 C2478 1.434 . S
C2480 C2481 1.369 . S
C2480 C2482 1.419 . S
C2480 H2484 0.930 . S
C2481 C2480 1.369 . S
C2481 C2490 1.429 . S
C2482 C2480 1.419 . S
C2482 C2483 1.363 . S
C2482 H2485 0.929 . S
C2483 C2482 1.363 . S
C2483 C2489 1.428 . S
H2484 C2480 0.930 . S
H2485 C2482 0.929 . S
S2486 N2487 1.613 . S
S2486 N2488 1.610 . S
N2487 S2486 1.613 . S
N2487 C2490 1.350 . S
N2488 S2486 1.610 . S
N2488 C2489 1.351 . S
C2489 C2483 1.428 . S
C2489 N2488 1.351 . S
C2489 C2490 1.434 . S
C2490 C2481 1.429 . S
C2490 N2487 1.350 . S
C2490 C2489 1.434 . S
C2491 C2492 1.369 . S
C2491 C2493 1.419 . S
C2491 H2495 0.930 . S
C2492 C2491 1.369 . S
C2492 C2501 1.429 . S
C2493 C2491 1.419 . S
C2493 C2494 1.363 . S
C2493 H2496 0.929 . S
C2494 C2493 1.363 . S
C2494 C2500 1.428 . S
H2495 C2491 0.930 . S
H2496 C2493 0.929 . S
S2497 N2498 1.613 . S
S2497 N2499 1.610 . S
N2498 S2497 1.613 . S
N2498 C2501 1.350 . S
N2499 S2497 1.610 . S
N2499 C2500 1.351 . S
C2500 C2494 1.428 . S
C2500 N2499 1.351 . S
C2500 C2501 1.434 . S
C2501 C2492 1.429 . S
C2501 N2498 1.350 . S
C2501 C2500 1.434 . S
C2502 C2503 1.369 . S
C2502 C2504 1.419 . S
C2502 H2506 0.930 . S
C2503 C2502 1.369 . S
C2503 C2512 1.429 . S
C2504 C2502 1.419 . S
C2504 C2505 1.363 . S
C2504 H2507 0.929 . S
C2505 C2504 1.363 . S
C2505 C2511 1.428 . S
H2506 C2502 0.930 . S
H2507 C2504 0.929 . S
S2508 N2509 1.613 . S
S2508 N2510 1.610 . S
N2509 S2508 1.613 . S
N2509 C2512 1.350 . S
N2510 S2508 1.610 . S
N2510 C2511 1.351 . S
C2511 C2505 1.428 . S
C2511 N2510 1.351 . S
C2511 C2512 1.434 . S
C2512 C2503 1.429 . S
C2512 N2509 1.350 . S
C2512 C2511 1.434 . S
C2513 C2514 1.369 . S
C2513 C2515 1.419 . S
C2513 H2517 0.930 . S
C2514 C2513 1.369 . S
C2514 C2523 1.429 . S
C2515 C2513 1.419 . S
C2515 C2516 1.363 . S
C2515 H2518 0.929 . S
C2516 C2515 1.363 . S
C2516 C2522 1.428 . S
H2517 C2513 0.930 . S
H2518 C2515 0.929 . S
S2519 N2520 1.613 . S
S2519 N2521 1.610 . S
N2520 S2519 1.613 . S
N2520 C2523 1.350 . S
N2521 S2519 1.610 . S
N2521 C2522 1.351 . S
C2522 C2516 1.428 . S
C2522 N2521 1.351 . S
C2522 C2523 1.434 . S
C2523 C2514 1.429 . S
C2523 N2520 1.350 . S
C2523 C2522 1.434 . S
C2524 C2525 1.369 . S
C2524 C2526 1.419 . S
C2524 H2528 0.930 . S
C2525 C2524 1.369 . S
C2525 C2534 1.429 . S
C2526 C2524 1.419 . S
C2526 C2527 1.363 . S
C2526 H2529 0.929 . S
C2527 C2526 1.363 . S
C2527 C2533 1.428 . S
H2528 C2524 0.930 . S
H2529 C2526 0.929 . S
S2530 N2531 1.613 . S
S2530 N2532 1.610 . S
N2531 S2530 1.613 . S
N2531 C2534 1.350 . S
N2532 S2530 1.610 . S
N2532 C2533 1.351 . S
C2533 C2527 1.428 . S
C2533 N2532 1.351 . S
C2533 C2534 1.434 . S
C2534 C2525 1.429 . S
C2534 N2531 1.350 . S
C2534 C2533 1.434 . S
C2535 C2536 1.369 . S
C2535 C2537 1.419 . S
C2535 H2539 0.930 . S
C2536 C2535 1.369 . S
C2536 C2545 1.429 . S
C2537 C2535 1.419 . S
C2537 C2538 1.363 . S
C2537 H2540 0.929 . S
C2538 C2537 1.363 . S
C2538 C2544 1.428 . S
H2539 C2535 0.930 . S
H2540 C2537 0.929 . S
S2541 N2542 1.613 . S
S2541 N2543 1.610 . S
N2542 S2541 1.613 . S
N2542 C2545 1.350 . S
N2543 S2541 1.610 . S
N2543 C2544 1.351 . S
C2544 C2538 1.428 . S
C2544 N2543 1.351 . S
C2544 C2545 1.434 . S
C2545 C2536 1.429 . S
C2545 N2542 1.350 . S
C2545 C2544 1.434 . S
C2546 C2547 1.369 . S
C2546 C2548 1.419 . S
C2546 H2550 0.930 . S
C2547 C2546 1.369 . S
C2547 C2556 1.429 . S
C2548 C2546 1.419 . S
C2548 C2549 1.363 . S
C2548 H2551 0.929 . S
C2549 C2548 1.363 . S
C2549 C2555 1.428 . S
H2550 C2546 0.930 . S
H2551 C2548 0.929 . S
S2552 N2553 1.613 . S
S2552 N2554 1.610 . S
N2553 S2552 1.613 . S
N2553 C2556 1.350 . S
N2554 S2552 1.610 . S
N2554 C2555 1.351 . S
C2555 C2549 1.428 . S
C2555 N2554 1.351 . S
C2555 C2556 1.434 . S
C2556 C2547 1.429 . S
C2556 N2553 1.350 . S
C2556 C2555 1.434 . S
C2557 C2558 1.369 . S
C2557 C2559 1.419 . S
C2557 H2561 0.930 . S
C2558 C2557 1.369 . S
C2558 C2567 1.429 . S
C2559 C2557 1.419 . S
C2559 C2560 1.363 . S
C2559 H2562 0.929 . S
C2560 C2559 1.363 . S
C2560 C2566 1.428 . S
H2561 C2557 0.930 . S
H2562 C2559 0.929 . S
S2563 N2564 1.613 . S
S2563 N2565 1.610 . S
N2564 S2563 1.613 . S
N2564 C2567 1.350 . S
N2565 S2563 1.610 . S
N2565 C2566 1.351 . S
C2566 C2560 1.428 . S
C2566 N2565 1.351 . S
C2566 C2567 1.434 . S
C2567 C2558 1.429 . S
C2567 N2564 1.350 . S
C2567 C2566 1.434 . S
C2568 C2569 1.369 . S
C2568 C2570 1.419 . S
C2568 H2572 0.930 . S
C2569 C2568 1.369 . S
C2569 C2578 1.429 . S
C2570 C2568 1.419 . S
C2570 C2571 1.363 . S
C2570 H2573 0.929 . S
C2571 C2570 1.363 . S
C2571 C2577 1.428 . S
H2572 C2568 0.930 . S
H2573 C2570 0.929 . S
S2574 N2575 1.613 . S
S2574 N2576 1.610 . S
N2575 S2574 1.613 . S
N2575 C2578 1.350 . S
N2576 S2574 1.610 . S
N2576 C2577 1.351 . S
C2577 C2571 1.428 . S
C2577 N2576 1.351 . S
C2577 C2578 1.434 . S
C2578 C2569 1.429 . S
C2578 N2575 1.350 . S
C2578 C2577 1.434 . S
C2579 C2580 1.369 . S
C2579 C2581 1.419 . S
C2579 H2583 0.930 . S
C2580 C2579 1.369 . S
C2580 C2589 1.429 . S
C2581 C2579 1.419 . S
C2581 C2582 1.363 . S
C2581 H2584 0.929 . S
C2582 C2581 1.363 . S
C2582 C2588 1.428 . S
H2583 C2579 0.930 . S
H2584 C2581 0.929 . S
S2585 N2586 1.613 . S
S2585 N2587 1.610 . S
N2586 S2585 1.613 . S
N2586 C2589 1.350 . S
N2587 S2585 1.610 . S
N2587 C2588 1.351 . S
C2588 C2582 1.428 . S
C2588 N2587 1.351 . S
C2588 C2589 1.434 . S
C2589 C2580 1.429 . S
C2589 N2586 1.350 . S
C2589 C2588 1.434 . S
C2590 C2591 1.369 . S
C2590 C2592 1.419 . S
C2590 H2594 0.930 . S
C2591 C2590 1.369 . S
C2591 C2600 1.429 . S
C2592 C2590 1.419 . S
C2592 C2593 1.363 . S
C2592 H2595 0.929 . S
C2593 C2592 1.363 . S
C2593 C2599 1.428 . S
H2594 C2590 0.930 . S
H2595 C2592 0.929 . S
S2596 N2597 1.613 . S
S2596 N2598 1.610 . S
N2597 S2596 1.613 . S
N2597 C2600 1.350 . S
N2598 S2596 1.610 . S
N2598 C2599 1.351 . S
C2599 C2593 1.428 . S
C2599 N2598 1.351 . S
C2599 C2600 1.434 . S
C2600 C2591 1.429 . S
C2600 N2597 1.350 . S
C2600 C2599 1.434 . S
C2601 C2602 1.369 . S
C2601 C2603 1.419 . S
C2601 H2605 0.930 . S
C2602 C2601 1.369 . S
C2602 C2611 1.429 . S
C2603 C2601 1.419 . S
C2603 C2604 1.363 . S
C2603 H2606 0.929 . S
C2604 C2603 1.363 . S
C2604 C2610 1.428 . S
H2605 C2601 0.930 . S
H2606 C2603 0.929 . S
S2607 N2608 1.613 . S
S2607 N2609 1.610 . S
N2608 S2607 1.613 . S
N2608 C2611 1.350 . S
N2609 S2607 1.610 . S
N2609 C2610 1.351 . S
C2610 C2604 1.428 . S
C2610 N2609 1.351 . S
C2610 C2611 1.434 . S
C2611 C2602 1.429 . S
C2611 N2608 1.350 . S
C2611 C2610 1.434 . S
C2612 C2613 1.369 . S
C2612 C2614 1.419 . S
C2612 H2616 0.930 . S
C2613 C2612 1.369 . S
C2613 C2622 1.429 . S
C2614 C2612 1.419 . S
C2614 C2615 1.363 . S
C2614 H2617 0.929 . S
C2615 C2614 1.363 . S
C2615 C2621 1.428 . S
H2616 C2612 0.930 . S
H2617 C2614 0.929 . S
S2618 N2619 1.613 . S
S2618 N2620 1.610 . S
N2619 S2618 1.613 . S
N2619 C2622 1.350 . S
N2620 S2618 1.610 . S
N2620 C2621 1.351 . S
C2621 C2615 1.428 . S
C2621 N2620 1.351 . S
C2621 C2622 1.434 . S
C2622 C2613 1.429 . S
C2622 N2619 1.350 . S
C2622 C2621 1.434 . S
C2623 C2624 1.369 . S
C2623 C2625 1.419 . S
C2623 H2627 0.930 . S
C2624 C2623 1.369 . S
C2624 C2633 1.429 . S
C2625 C2623 1.419 . S
C2625 C2626 1.363 . S
C2625 H2628 0.929 . S
C2626 C2625 1.363 . S
C2626 C2632 1.428 . S
H2627 C2623 0.930 . S
H2628 C2625 0.929 . S
S2629 N2630 1.613 . S
S2629 N2631 1.610 . S
N2630 S2629 1.613 . S
N2630 C2633 1.350 . S
N2631 S2629 1.610 . S
N2631 C2632 1.351 . S
C2632 C2626 1.428 . S
C2632 N2631 1.351 . S
C2632 C2633 1.434 . S
C2633 C2624 1.429 . S
C2633 N2630 1.350 . S
C2633 C2632 1.434 . S
C2634 C2635 1.369 . S
C2634 C2636 1.419 . S
C2634 H2638 0.930 . S
C2635 C2634 1.369 . S
C2635 C2644 1.429 . S
C2636 C2634 1.419 . S
C2636 C2637 1.363 . S
C2636 H2639 0.929 . S
C2637 C2636 1.363 . S
C2637 C2643 1.428 . S
H2638 C2634 0.930 . S
H2639 C2636 0.929 . S
S2640 N2641 1.613 . S
S2640 N2642 1.610 . S
N2641 S2640 1.613 . S
N2641 C2644 1.350 . S
N2642 S2640 1.610 . S
N2642 C2643 1.351 . S
C2643 C2637 1.428 . S
C2643 N2642 1.351 . S
C2643 C2644 1.434 . S
C2644 C2635 1.429 . S
C2644 N2641 1.350 . S
C2644 C2643 1.434 . S
C2645 C2646 1.369 . S
C2645 C2647 1.419 . S
C2645 H2649 0.930 . S
C2646 C2645 1.369 . S
C2646 C2655 1.429 . S
C2647 C2645 1.419 . S
C2647 C2648 1.363 . S
C2647 H2650 0.929 . S
C2648 C2647 1.363 . S
C2648 C2654 1.428 . S
H2649 C2645 0.930 . S
H2650 C2647 0.929 . S
S2651 N2652 1.613 . S
S2651 N2653 1.610 . S
N2652 S2651 1.613 . S
N2652 C2655 1.350 . S
N2653 S2651 1.610 . S
N2653 C2654 1.351 . S
C2654 C2648 1.428 . S
C2654 N2653 1.351 . S
C2654 C2655 1.434 . S
C2655 C2646 1.429 . S
C2655 N2652 1.350 . S
C2655 C2654 1.434 . S
C2656 C2657 1.369 . S
C2656 C2658 1.419 . S
C2656 H2660 0.930 . S
C2657 C2656 1.369 . S
C2657 C2666 1.429 . S
C2658 C2656 1.419 . S
C2658 C2659 1.363 . S
C2658 H2661 0.929 . S
C2659 C2658 1.363 . S
C2659 C2665 1.428 . S
H2660 C2656 0.930 . S
H2661 C2658 0.929 . S
S2662 N2663 1.613 . S
S2662 N2664 1.610 . S
N2663 S2662 1.613 . S
N2663 C2666 1.350 . S
N2664 S2662 1.610 . S
N2664 C2665 1.351 . S
C2665 C2659 1.428 . S
C2665 N2664 1.351 . S
C2665 C2666 1.434 . S
C2666 C2657 1.429 . S
C2666 N2663 1.350 . S
C2666 C2665 1.434 . S
C2667 C2668 1.369 . S
C2667 C2669 1.419 . S
C2667 H2671 0.930 . S
C2668 C2667 1.369 . S
C2668 C2677 1.429 . S
C2669 C2667 1.419 . S
C2669 C2670 1.363 . S
C2669 H2672 0.929 . S
C2670 C2669 1.363 . S
C2670 C2676 1.428 . S
H2671 C2667 0.930 . S
H2672 C2669 0.929 . S
S2673 N2674 1.613 . S
S2673 N2675 1.610 . S
N2674 S2673 1.613 . S
N2674 C2677 1.350 . S
N2675 S2673 1.610 . S
N2675 C2676 1.351 . S
C2676 C2670 1.428 . S
C2676 N2675 1.351 . S
C2676 C2677 1.434 . S
C2677 C2668 1.429 . S
C2677 N2674 1.350 . S
C2677 C2676 1.434 . S
C2678 C2679 1.369 . S
C2678 C2680 1.419 . S
C2678 H2682 0.930 . S
C2679 C2678 1.369 . S
C2679 C2688 1.429 . S
C2680 C2678 1.419 . S
C2680 C2681 1.363 . S
C2680 H2683 0.929 . S
C2681 C2680 1.363 . S
C2681 C2687 1.428 . S
H2682 C2678 0.930 . S
H2683 C2680 0.929 . S
S2684 N2685 1.613 . S
S2684 N2686 1.610 . S
N2685 S2684 1.613 . S
N2685 C2688 1.350 . S
N2686 S2684 1.610 . S
N2686 C2687 1.351 . S
C2687 C2681 1.428 . S
C2687 N2686 1.351 . S
C2687 C2688 1.434 . S
C2688 C2679 1.429 . S
C2688 N2685 1.350 . S
C2688 C2687 1.434 . S
C2689 C2690 1.369 . S
C2689 C2691 1.419 . S
C2689 H2693 0.930 . S
C2690 C2689 1.369 . S
C2690 C2699 1.429 . S
C2691 C2689 1.419 . S
C2691 C2692 1.363 . S
C2691 H2694 0.929 . S
C2692 C2691 1.363 . S
C2692 C2698 1.428 . S
H2693 C2689 0.930 . S
H2694 C2691 0.929 . S
S2695 N2696 1.613 . S
S2695 N2697 1.610 . S
N2696 S2695 1.613 . S
N2696 C2699 1.350 . S
N2697 S2695 1.610 . S
N2697 C2698 1.351 . S
C2698 C2692 1.428 . S
C2698 N2697 1.351 . S
C2698 C2699 1.434 . S
C2699 C2690 1.429 . S
C2699 N2696 1.350 . S
C2699 C2698 1.434 . S
C2700 C2701 1.369 . S
C2700 C2702 1.419 . S
C2700 H2704 0.930 . S
C2701 C2700 1.369 . S
C2701 C2710 1.429 . S
C2702 C2700 1.419 . S
C2702 C2703 1.363 . S
C2702 H2705 0.929 . S
C2703 C2702 1.363 . S
C2703 C2709 1.428 . S
H2704 C2700 0.930 . S
H2705 C2702 0.929 . S
S2706 N2707 1.613 . S
S2706 N2708 1.610 . S
N2707 S2706 1.613 . S
N2707 C2710 1.350 . S
N2708 S2706 1.610 . S
N2708 C2709 1.351 . S
C2709 C2703 1.428 . S
C2709 N2708 1.351 . S
C2709 C2710 1.434 . S
C2710 C2701 1.429 . S
C2710 N2707 1.350 . S
C2710 C2709 1.434 . S
C2711 C2712 1.369 . S
C2711 C2713 1.419 . S
C2711 H2715 0.930 . S
C2712 C2711 1.369 . S
C2712 C2721 1.429 . S
C2713 C2711 1.419 . S
C2713 C2714 1.363 . S
C2713 H2716 0.929 . S
C2714 C2713 1.363 . S
C2714 C2720 1.428 . S
H2715 C2711 0.930 . S
H2716 C2713 0.929 . S
S2717 N2718 1.613 . S
S2717 N2719 1.610 . S
N2718 S2717 1.613 . S
N2718 C2721 1.350 . S
N2719 S2717 1.610 . S
N2719 C2720 1.351 . S
C2720 C2714 1.428 . S
C2720 N2719 1.351 . S
C2720 C2721 1.434 . S
C2721 C2712 1.429 . S
C2721 N2718 1.350 . S
C2721 C2720 1.434 . S
C2722 C2723 1.369 . S
C2722 C2724 1.419 . S
C2722 H2726 0.930 . S
C2723 C2722 1.369 . S
C2723 C2732 1.429 . S
C2724 C2722 1.419 . S
C2724 C2725 1.363 . S
C2724 H2727 0.929 . S
C2725 C2724 1.363 . S
C2725 C2731 1.428 . S
H2726 C2722 0.930 . S
H2727 C2724 0.929 . S
S2728 N2729 1.613 . S
S2728 N2730 1.610 . S
N2729 S2728 1.613 . S
N2729 C2732 1.350 . S
N2730 S2728 1.610 . S
N2730 C2731 1.351 . S
C2731 C2725 1.428 . S
C2731 N2730 1.351 . S
C2731 C2732 1.434 . S
C2732 C2723 1.429 . S
C2732 N2729 1.350 . S
C2732 C2731 1.434 . S
C2733 C2734 1.369 . S
C2733 C2735 1.419 . S
C2733 H2737 0.930 . S
C2734 C2733 1.369 . S
C2734 C2743 1.429 . S
C2735 C2733 1.419 . S
C2735 C2736 1.363 . S
C2735 H2738 0.929 . S
C2736 C2735 1.363 . S
C2736 C2742 1.428 . S
H2737 C2733 0.930 . S
H2738 C2735 0.929 . S
S2739 N2740 1.613 . S
S2739 N2741 1.610 . S
N2740 S2739 1.613 . S
N2740 C2743 1.350 . S
N2741 S2739 1.610 . S
N2741 C2742 1.351 . S
C2742 C2736 1.428 . S
C2742 N2741 1.351 . S
C2742 C2743 1.434 . S
C2743 C2734 1.429 . S
C2743 N2740 1.350 . S
C2743 C2742 1.434 . S
C2744 C2745 1.369 . S
C2744 C2746 1.419 . S
C2744 H2748 0.930 . S
C2745 C2744 1.369 . S
C2745 C2754 1.429 . S
C2746 C2744 1.419 . S
C2746 C2747 1.363 . S
C2746 H2749 0.929 . S
C2747 C2746 1.363 . S
C2747 C2753 1.428 . S
H2748 C2744 0.930 . S
H2749 C2746 0.929 . S
S2750 N2751 1.613 . S
S2750 N2752 1.610 . S
N2751 S2750 1.613 . S
N2751 C2754 1.350 . S
N2752 S2750 1.610 . S
N2752 C2753 1.351 . S
C2753 C2747 1.428 . S
C2753 N2752 1.351 . S
C2753 C2754 1.434 . S
C2754 C2745 1.429 . S
C2754 N2751 1.350 . S
C2754 C2753 1.434 . S
C2755 C2756 1.369 . S
C2755 C2757 1.419 . S
C2755 H2759 0.930 . S
C2756 C2755 1.369 . S
C2756 C2765 1.429 . S
C2757 C2755 1.419 . S
C2757 C2758 1.363 . S
C2757 H2760 0.929 . S
C2758 C2757 1.363 . S
C2758 C2764 1.428 . S
H2759 C2755 0.930 . S
H2760 C2757 0.929 . S
S2761 N2762 1.613 . S
S2761 N2763 1.610 . S
N2762 S2761 1.613 . S
N2762 C2765 1.350 . S
N2763 S2761 1.610 . S
N2763 C2764 1.351 . S
C2764 C2758 1.428 . S
C2764 N2763 1.351 . S
C2764 C2765 1.434 . S
C2765 C2756 1.429 . S
C2765 N2762 1.350 . S
C2765 C2764 1.434 . S
C2766 C2767 1.369 . S
C2766 C2768 1.419 . S
C2766 H2770 0.930 . S
C2767 C2766 1.369 . S
C2767 C2776 1.429 . S
C2768 C2766 1.419 . S
C2768 C2769 1.363 . S
C2768 H2771 0.929 . S
C2769 C2768 1.363 . S
C2769 C2775 1.428 . S
H2770 C2766 0.930 . S
H2771 C2768 0.929 . S
S2772 N2773 1.613 . S
S2772 N2774 1.610 . S
N2773 S2772 1.613 . S
N2773 C2776 1.350 . S
N2774 S2772 1.610 . S
N2774 C2775 1.351 . S
C2775 C2769 1.428 . S
C2775 N2774 1.351 . S
C2775 C2776 1.434 . S
C2776 C2767 1.429 . S
C2776 N2773 1.350 . S
C2776 C2775 1.434 . S
C2777 C2778 1.369 . S
C2777 C2779 1.419 . S
C2777 H2781 0.930 . S
C2778 C2777 1.369 . S
C2778 C2787 1.429 . S
C2779 C2777 1.419 . S
C2779 C2780 1.363 . S
C2779 H2782 0.929 . S
C2780 C2779 1.363 . S
C2780 C2786 1.428 . S
H2781 C2777 0.930 . S
H2782 C2779 0.929 . S
S2783 N2784 1.613 . S
S2783 N2785 1.610 . S
N2784 S2783 1.613 . S
N2784 C2787 1.350 . S
N2785 S2783 1.610 . S
N2785 C2786 1.351 . S
C2786 C2780 1.428 . S
C2786 N2785 1.351 . S
C2786 C2787 1.434 . S
C2787 C2778 1.429 . S
C2787 N2784 1.350 . S
C2787 C2786 1.434 . S
C2788 C2789 1.369 . S
C2788 C2790 1.419 . S
C2788 H2792 0.930 . S
C2789 C2788 1.369 . S
C2789 C2798 1.429 . S
C2790 C2788 1.419 . S
C2790 C2791 1.363 . S
C2790 H2793 0.929 . S
C2791 C2790 1.363 . S
C2791 C2797 1.428 . S
H2792 C2788 0.930 . S
H2793 C2790 0.929 . S
S2794 N2795 1.613 . S
S2794 N2796 1.610 . S
N2795 S2794 1.613 . S
N2795 C2798 1.350 . S
N2796 S2794 1.610 . S
N2796 C2797 1.351 . S
C2797 C2791 1.428 . S
C2797 N2796 1.351 . S
C2797 C2798 1.434 . S
C2798 C2789 1.429 . S
C2798 N2795 1.350 . S
C2798 C2797 1.434 . S
C2799 C2800 1.369 . S
C2799 C2801 1.419 . S
C2799 H2803 0.930 . S
C2800 C2799 1.369 . S
C2800 C2809 1.429 . S
C2801 C2799 1.419 . S
C2801 C2802 1.363 . S
C2801 H2804 0.929 . S
C2802 C2801 1.363 . S
C2802 C2808 1.428 . S
H2803 C2799 0.930 . S
H2804 C2801 0.929 . S
S2805 N2806 1.613 . S
S2805 N2807 1.610 . S
N2806 S2805 1.613 . S
N2806 C2809 1.350 . S
N2807 S2805 1.610 . S
N2807 C2808 1.351 . S
C2808 C2802 1.428 . S
C2808 N2807 1.351 . S
C2808 C2809 1.434 . S
C2809 C2800 1.429 . S
C2809 N2806 1.350 . S
C2809 C2808 1.434 . S
C2810 C2811 1.369 . S
C2810 C2812 1.419 . S
C2810 H2814 0.930 . S
C2811 C2810 1.369 . S
C2811 C2820 1.429 . S
C2812 C2810 1.419 . S
C2812 C2813 1.363 . S
C2812 H2815 0.929 . S
C2813 C2812 1.363 . S
C2813 C2819 1.428 . S
H2814 C2810 0.930 . S
H2815 C2812 0.929 . S
S2816 N2817 1.613 . S
S2816 N2818 1.610 . S
N2817 S2816 1.613 . S
N2817 C2820 1.350 . S
N2818 S2816 1.610 . S
N2818 C2819 1.351 . S
C2819 C2813 1.428 . S
C2819 N2818 1.351 . S
C2819 C2820 1.434 . S
C2820 C2811 1.429 . S
C2820 N2817 1.350 . S
C2820 C2819 1.434 . S
C2821 C2822 1.369 . S
C2821 C2823 1.419 . S
C2821 H2825 0.930 . S
C2822 C2821 1.369 . S
C2822 C2831 1.429 . S
C2823 C2821 1.419 . S
C2823 C2824 1.363 . S
C2823 H2826 0.929 . S
C2824 C2823 1.363 . S
C2824 C2830 1.428 . S
H2825 C2821 0.930 . S
H2826 C2823 0.929 . S
S2827 N2828 1.613 . S
S2827 N2829 1.610 . S
N2828 S2827 1.613 . S
N2828 C2831 1.350 . S
N2829 S2827 1.610 . S
N2829 C2830 1.351 . S
C2830 C2824 1.428 . S
C2830 N2829 1.351 . S
C2830 C2831 1.434 . S
C2831 C2822 1.429 . S
C2831 N2828 1.350 . S
C2831 C2830 1.434 . S
C2832 C2833 1.369 1_655 S
C2832 C2834 1.419 . S
C2832 H2836 0.930 1_655 S
C2833 C2832 1.369 1_455 S
C2833 C2842 1.429 1_455 S
C2834 C2832 1.419 . S
C2834 C2835 1.363 . S
C2834 H2837 0.929 . S
C2835 C2834 1.363 . S
C2835 C2841 1.428 . S
H2836 C2832 0.930 1_455 S
H2837 C2834 0.929 . S
S2838 N2839 1.613 1_655 S
S2838 N2840 1.610 . S
N2839 S2838 1.613 1_455 S
N2839 C2842 1.350 1_455 S
N2840 S2838 1.610 . S
N2840 C2841 1.351 . S
C2841 C2835 1.428 . S
C2841 N2840 1.351 . S
C2841 C2842 1.434 . S
C2842 C2833 1.429 1_655 S
C2842 N2839 1.350 1_655 S
C2842 C2841 1.434 . S
C2843 C2844 1.369 . S
C2843 C2845 1.419 . S
C2843 H2847 0.930 . S
C2844 C2843 1.369 . S
C2844 C2853 1.429 . S
C2845 C2843 1.419 . S
C2845 C2846 1.363 . S
C2845 H2848 0.929 . S
C2846 C2845 1.363 . S
C2846 C2852 1.428 . S
H2847 C2843 0.930 . S
H2848 C2845 0.929 . S
S2849 N2850 1.613 . S
S2849 N2851 1.610 . S
N2850 S2849 1.613 . S
N2850 C2853 1.350 . S
N2851 S2849 1.610 . S
N2851 C2852 1.351 . S
C2852 C2846 1.428 . S
C2852 N2851 1.351 . S
C2852 C2853 1.434 . S
C2853 C2844 1.429 . S
C2853 N2850 1.350 . S
C2853 C2852 1.434 . S
C2854 C2855 1.369 . S
C2854 C2856 1.419 . S
C2854 H2858 0.930 . S
C2855 C2854 1.369 . S
C2855 C2864 1.429 . S
C2856 C2854 1.419 . S
C2856 C2857 1.363 . S
C2856 H2859 0.929 . S
C2857 C2856 1.363 . S
C2857 C2863 1.428 . S
H2858 C2854 0.930 . S
H2859 C2856 0.929 . S
S2860 N2861 1.613 . S
S2860 N2862 1.610 . S
N2861 S2860 1.613 . S
N2861 C2864 1.350 . S
N2862 S2860 1.610 . S
N2862 C2863 1.351 . S
C2863 C2857 1.428 . S
C2863 N2862 1.351 . S
C2863 C2864 1.434 . S
C2864 C2855 1.429 . S
C2864 N2861 1.350 . S
C2864 C2863 1.434 . S
C2865 C2866 1.369 1_554 S
C2865 C2867 1.419 . S
C2865 H2869 0.930 . S
C2866 C2865 1.369 1_556 S
C2866 C2875 1.429 . S
C2867 C2865 1.419 . S
C2867 C2868 1.363 . S
C2867 H2870 0.929 . S
C2868 C2867 1.363 . S
C2868 C2874 1.428 . S
H2869 C2865 0.930 . S
H2870 C2867 0.929 . S
S2871 N2872 1.613 . S
S2871 N2873 1.610 . S
N2872 S2871 1.613 . S
N2872 C2875 1.350 . S
N2873 S2871 1.610 . S
N2873 C2874 1.351 1_556 S
C2874 C2868 1.428 . S
C2874 N2873 1.351 1_554 S
C2874 C2875 1.434 1_554 S
C2875 C2866 1.429 . S
C2875 N2872 1.350 . S
C2875 C2874 1.434 1_556 S
C2876 C2877 1.369 . S
C2876 C2878 1.419 1_655 S
C2876 H2880 0.930 . S
C2877 C2876 1.369 . S
C2877 C2886 1.429 . S
C2878 C2876 1.419 1_455 S
C2878 C2879 1.363 . S
C2878 H2881 0.929 . S
C2879 C2878 1.363 . S
C2879 C2885 1.428 1_455 S
H2880 C2876 0.930 . S
H2881 C2878 0.929 . S
S2882 N2883 1.613 . S
S2882 N2884 1.610 . S
N2883 S2882 1.613 . S
N2883 C2886 1.350 . S
N2884 S2882 1.610 . S
N2884 C2885 1.351 . S
C2885 C2879 1.428 1_655 S
C2885 N2884 1.351 . S
C2885 C2886 1.434 . S
C2886 C2877 1.429 . S
C2886 N2883 1.350 . S
C2886 C2885 1.434 . S
C2887 C2888 1.369 . S
C2887 C2889 1.419 . S
C2887 H2891 0.930 . S
C2888 C2887 1.369 . S
C2888 C2897 1.429 . S
C2889 C2887 1.419 . S
C2889 C2890 1.363 . S
C2889 H2892 0.929 . S
C2890 C2889 1.363 . S
C2890 C2896 1.428 . S
H2891 C2887 0.930 . S
H2892 C2889 0.929 . S
S2893 N2894 1.613 . S
S2893 N2895 1.610 . S
N2894 S2893 1.613 . S
N2894 C2897 1.350 . S
N2895 S2893 1.610 . S
N2895 C2896 1.351 . S
C2896 C2890 1.428 . S
C2896 N2895 1.351 . S
C2896 C2897 1.434 . S
C2897 C2888 1.429 . S
C2897 N2894 1.350 . S
C2897 C2896 1.434 . S
C2898 C2899 1.369 . S
C2898 C2900 1.419 . S
C2898 H2902 0.930 . S
C2899 C2898 1.369 . S
C2899 C2908 1.429 . S
C2900 C2898 1.419 . S
C2900 C2901 1.363 . S
C2900 H2903 0.929 . S
C2901 C2900 1.363 . S
C2901 C2907 1.428 . S
H2902 C2898 0.930 . S
H2903 C2900 0.929 . S
S2904 N2905 1.613 . S
S2904 N2906 1.610 . S
N2905 S2904 1.613 . S
N2905 C2908 1.350 . S
N2906 S2904 1.610 . S
N2906 C2907 1.351 . S
C2907 C2901 1.428 . S
C2907 N2906 1.351 . S
C2907 C2908 1.434 . S
C2908 C2899 1.429 . S
C2908 N2905 1.350 . S
C2908 C2907 1.434 . S
C2909 C2910 1.369 . S
C2909 C2911 1.419 . S
C2909 H2913 0.930 . S
C2910 C2909 1.369 . S
C2910 C2919 1.429 . S
C2911 C2909 1.419 . S
C2911 C2912 1.363 1_556 S
C2911 H2914 0.929 . S
C2912 C2911 1.363 1_554 S
C2912 C2918 1.428 . S
H2913 C2909 0.930 . S
H2914 C2911 0.929 . S
S2915 N2916 1.613 . S
S2915 N2917 1.610 . S
N2916 S2915 1.613 . S
N2916 C2919 1.350 1_554 S
N2917 S2915 1.610 . S
N2917 C2918 1.351 . S
C2918 C2912 1.428 . S
C2918 N2917 1.351 . S
C2918 C2919 1.434 1_554 S
C2919 C2910 1.429 . S
C2919 N2916 1.350 1_556 S
C2919 C2918 1.434 1_556 S
C2920 C2921 1.369 . S
C2920 C2922 1.419 1_545 S
C2920 H2924 0.930 . S
C2921 C2920 1.369 . S
C2921 C2930 1.429 1_545 S
C2922 C2920 1.419 1_565 S
C2922 C2923 1.363 . S
C2922 H2925 0.929 . S
C2923 C2922 1.363 . S
C2923 C2929 1.428 . S
H2924 C2920 0.930 . S
H2925 C2922 0.929 . S
S2926 N2927 1.613 . S
S2926 N2928 1.610 . S
N2927 S2926 1.613 . S
N2927 C2930 1.350 . S
N2928 S2926 1.610 . S
N2928 C2929 1.351 . S
C2929 C2923 1.428 . S
C2929 N2928 1.351 . S
C2929 C2930 1.434 . S
C2930 C2921 1.429 1_565 S
C2930 N2927 1.350 . S
C2930 C2929 1.434 . S
C2931 C2932 1.369 . S
C2931 C2933 1.419 1_545 S
C2931 H2935 0.930 . S
C2932 C2931 1.369 . S
C2932 C2941 1.429 . S
C2933 C2931 1.419 1_565 S
C2933 C2934 1.363 . S
C2933 H2936 0.929 . S
C2934 C2933 1.363 . S
C2934 C2940 1.428 1_565 S
H2935 C2931 0.930 . S
H2936 C2933 0.929 . S
S2937 N2938 1.613 . S
S2937 N2939 1.610 . S
N2938 S2937 1.613 . S
N2938 C2941 1.350 . S
N2939 S2937 1.610 . S
N2939 C2940 1.351 . S
C2940 C2934 1.428 1_545 S
C2940 N2939 1.351 . S
C2940 C2941 1.434 . S
C2941 C2932 1.429 . S
C2941 N2938 1.350 . S
C2941 C2940 1.434 . S
C2942 C2943 1.369 1_545 S
C2942 C2944 1.419 . S
C2942 H2946 0.930 . S
C2943 C2942 1.369 1_565 S
C2943 C2952 1.429 . S
C2944 C2942 1.419 . S
C2944 C2945 1.363 . S
C2944 H2947 0.929 . S
C2945 C2944 1.363 . S
C2945 C2951 1.428 . S
H2946 C2942 0.930 . S
H2947 C2944 0.929 . S
S2948 N2949 1.613 . S
S2948 N2950 1.610 . S
N2949 S2948 1.613 . S
N2949 C2952 1.350 . S
N2950 S2948 1.610 . S
N2950 C2951 1.351 1_565 S
C2951 C2945 1.428 . S
C2951 N2950 1.351 1_545 S
C2951 C2952 1.434 1_545 S
C2952 C2943 1.429 . S
C2952 N2949 1.350 . S
C2952 C2951 1.434 1_565 S
C2953 C2954 1.369 1_565 S
C2953 C2955 1.419 . S
C2953 H2957 0.930 . S
C2954 C2953 1.369 1_545 S
C2954 C2963 1.429 . S
C2955 C2953 1.419 . S
C2955 C2956 1.363 . S
C2955 H2958 0.929 . S
C2956 C2955 1.363 . S
C2956 C2962 1.428 . S
H2957 C2953 0.930 . S
H2958 C2955 0.929 . S
S2959 N2960 1.613 . S
S2959 N2961 1.610 1_545 S
N2960 S2959 1.613 . S
N2960 C2963 1.350 . S
N2961 S2959 1.610 1_565 S
N2961 C2962 1.351 . S
C2962 C2956 1.428 . S
C2962 N2961 1.351 . S
C2962 C2963 1.434 1_565 S
C2963 C2954 1.429 . S
C2963 N2960 1.350 . S
C2963 C2962 1.434 1_545 S
C2964 C2965 1.369 . S
C2964 C2966 1.419 . S
C2964 H2968 0.930 . S
C2965 C2964 1.369 . S
C2965 C2974 1.429 . S
C2966 C2964 1.419 . S
C2966 C2967 1.363 1_554 S
C2966 H2969 0.929 . S
C2967 C2966 1.363 1_556 S
C2967 C2973 1.428 . S
H2968 C2964 0.930 . S
H2969 C2966 0.929 . S
S2970 N2971 1.613 . S
S2970 N2972 1.610 . S
N2971 S2970 1.613 . S
N2971 C2974 1.350 1_556 S
N2972 S2970 1.610 . S
N2972 C2973 1.351 . S
C2973 C2967 1.428 . S
C2973 N2972 1.351 . S
C2973 C2974 1.434 1_556 S
C2974 C2965 1.429 . S
C2974 N2971 1.350 1_554 S
C2974 C2973 1.434 1_554 S
C2975 C2976 1.369 . S
C2975 C2977 1.419 1_455 S
C2975 H2979 0.935 . S
C2976 C2975 1.369 . S
C2976 C2985 1.429 . S
C2977 C2975 1.419 1_655 S
C2977 C2978 1.363 . S
C2977 H2980 0.929 . S
C2978 C2977 1.363 . S
C2978 C2984 1.428 1_655 S
H2979 C2975 0.935 . S
H2980 C2977 0.929 . S
S2981 N2982 1.613 . S
S2981 N2983 1.610 . S
N2982 S2981 1.613 . S
N2982 C2985 1.350 . S
N2983 S2981 1.610 . S
N2983 C2984 1.351 . S
C2984 C2978 1.428 1_455 S
C2984 N2983 1.351 . S
C2984 C2985 1.434 . S
C2985 C2976 1.429 . S
C2985 N2982 1.350 . S
C2985 C2984 1.434 . S
C2986 C2987 1.369 . S
C2986 C2988 1.419 . S
C2986 H2990 0.930 . S
C2987 C2986 1.369 . S
C2987 C2996 1.429 . S
C2988 C2986 1.419 . S
C2988 C2989 1.363 . S
C2988 H2991 0.929 . S
C2989 C2988 1.363 . S
C2989 C2995 1.428 . S
H2990 C2986 0.930 . S
H2991 C2988 0.929 . S
S2992 N2993 1.613 . S
S2992 N2994 1.610 . S
N2993 S2992 1.613 . S
N2993 C2996 1.350 . S
N2994 S2992 1.610 . S
N2994 C2995 1.351 . S
C2995 C2989 1.428 . S
C2995 N2994 1.351 . S
C2995 C2996 1.434 . S
C2996 C2987 1.429 . S
C2996 N2993 1.350 . S
C2996 C2995 1.434 . S
C2997 C2998 1.369 . S
C2997 C2999 1.419 1_655 S
C2997 H3001 0.930 . S
C2998 C2997 1.369 . S
C2998 C3007 1.429 1_655 S
C2999 C2997 1.419 1_455 S
C2999 C3000 1.363 . S
C2999 H3002 0.934 . S
C3000 C2999 1.363 . S
C3000 C3006 1.428 . S
H3001 C2997 0.930 . S
H3002 C2999 0.934 . S
S3003 N3004 1.613 . S
S3003 N3005 1.610 . S
N3004 S3003 1.613 . S
N3004 C3007 1.350 . S
N3005 S3003 1.610 . S
N3005 C3006 1.351 . S
C3006 C3000 1.428 . S
C3006 N3005 1.351 . S
C3006 C3007 1.434 . S
C3007 C2998 1.429 1_455 S
C3007 N3004 1.350 . S
C3007 C3006 1.434 . S
C3008 C3009 1.369 . S
C3008 C3010 1.419 . S
C3008 H3012 0.930 . S
C3009 C3008 1.369 . S
C3009 C3018 1.429 . S
C3010 C3008 1.419 . S
C3010 C3011 1.363 . S
C3010 H3013 0.929 . S
C3011 C3010 1.363 . S
C3011 C3017 1.428 . S
H3012 C3008 0.930 . S
H3013 C3010 0.929 . S
S3014 N3015 1.613 . S
S3014 N3016 1.610 . S
N3015 S3014 1.613 . S
N3015 C3018 1.350 . S
N3016 S3014 1.610 . S
N3016 C3017 1.351 . S
C3017 C3011 1.428 . S
C3017 N3016 1.351 . S
C3017 C3018 1.434 . S
C3018 C3009 1.429 . S
C3018 N3015 1.350 . S
C3018 C3017 1.434 . S
C3019 C3020 1.369 1_455 S
C3019 C3021 1.419 . S
C3019 H3023 0.930 . S
C3020 C3019 1.369 1_655 S
C3020 C3029 1.429 . S
C3021 C3019 1.419 . S
C3021 C3022 1.363 . S
C3021 H3024 0.929 . S
C3022 C3021 1.363 . S
C3022 C3028 1.428 . S
H3023 C3019 0.930 . S
H3024 C3021 0.929 . S
S3025 N3026 1.613 . S
S3025 N3027 1.610 1_655 S
N3026 S3025 1.613 . S
N3026 C3029 1.350 . S
N3027 S3025 1.610 1_455 S
N3027 C3028 1.351 . S
C3028 C3022 1.428 . S
C3028 N3027 1.351 . S
C3028 C3029 1.434 1_455 S
C3029 C3020 1.429 . S
C3029 N3026 1.350 . S
C3029 C3028 1.434 1_655 S
C3030 C3031 1.369 . S
C3030 C3032 1.419 . S
C3030 H3034 0.930 . S
C3031 C3030 1.369 . S
C3031 C3040 1.429 . S
C3032 C3030 1.419 . S
C3032 C3033 1.363 . S
C3032 H3035 0.929 . S
C3033 C3032 1.363 . S
C3033 C3039 1.428 . S
H3034 C3030 0.930 . S
H3035 C3032 0.929 . S
S3036 N3037 1.613 . S
S3036 N3038 1.610 . S
N3037 S3036 1.613 . S
N3037 C3040 1.350 . S
N3038 S3036 1.610 . S
N3038 C3039 1.351 . S
C3039 C3033 1.428 . S
C3039 N3038 1.351 . S
C3039 C3040 1.434 . S
C3040 C3031 1.429 . S
C3040 N3037 1.350 . S
C3040 C3039 1.434 . S
C3041 C3042 1.369 . S
C3041 C3043 1.419 . S
C3041 H3045 0.930 . S
C3042 C3041 1.369 . S
C3042 C3051 1.429 . S
C3043 C3041 1.419 . S
C3043 C3044 1.363 . S
C3043 H3046 0.929 . S
C3044 C3043 1.363 . S
C3044 C3050 1.428 . S
H3045 C3041 0.930 . S
H3046 C3043 0.929 . S
S3047 N3048 1.613 . S
S3047 N3049 1.610 . S
N3048 S3047 1.613 . S
N3048 C3051 1.350 . S
N3049 S3047 1.610 . S
N3049 C3050 1.351 . S
C3050 C3044 1.428 . S
C3050 N3049 1.351 . S
C3050 C3051 1.434 . S
C3051 C3042 1.429 . S
C3051 N3048 1.350 . S
C3051 C3050 1.434 . S
C3052 C3053 1.369 . S
C3052 C3054 1.419 1_554 S
C3052 H3056 0.930 . S
C3053 C3052 1.369 . S
C3053 C3062 1.429 1_554 S
C3054 C3052 1.419 1_556 S
C3054 C3055 1.363 . S
C3054 H3057 0.944 . S
C3055 C3054 1.363 . S
C3055 C3061 1.428 . S
H3056 C3052 0.930 . S
H3057 C3054 0.944 . S
S3058 N3059 1.613 . S
S3058 N3060 1.610 . S
N3059 S3058 1.613 . S
N3059 C3062 1.350 . S
N3060 S3058 1.610 . S
N3060 C3061 1.351 . S
C3061 C3055 1.428 . S
C3061 N3060 1.351 . S
C3061 C3062 1.434 . S
C3062 C3053 1.429 1_556 S
C3062 N3059 1.350 . S
C3062 C3061 1.434 . S
C3063 C3064 1.369 1_455 S
C3063 C3065 1.419 . S
C3063 H3067 0.930 . S
C3064 C3063 1.369 1_655 S
C3064 C3073 1.429 . S
C3065 C3063 1.419 . S
C3065 C3066 1.363 . S
C3065 H3068 0.929 . S
C3066 C3065 1.363 . S
C3066 C3072 1.428 . S
H3067 C3063 0.930 . S
H3068 C3065 0.929 . S
S3069 N3070 1.613 . S
S3069 N3071 1.610 . S
N3070 S3069 1.613 . S
N3070 C3073 1.350 . S
N3071 S3069 1.610 . S
N3071 C3072 1.351 1_655 S
C3072 C3066 1.428 . S
C3072 N3071 1.351 1_455 S
C3072 C3073 1.434 1_455 S
C3073 C3064 1.429 . S
C3073 N3070 1.350 . S
C3073 C3072 1.434 1_655 S
C3074 C3075 1.369 . S
C3074 C3076 1.419 . S
C3074 H3078 0.930 . S
C3075 C3074 1.369 . S
C3075 C3084 1.429 . S
C3076 C3074 1.419 . S
C3076 C3077 1.363 . S
C3076 H3079 0.929 . S
C3077 C3076 1.363 . S
C3077 C3083 1.428 . S
H3078 C3074 0.930 . S
H3079 C3076 0.929 . S
S3080 N3081 1.613 . S
S3080 N3082 1.610 . S
N3081 S3080 1.613 . S
N3081 C3084 1.350 . S
N3082 S3080 1.610 . S
N3082 C3083 1.351 . S
C3083 C3077 1.428 . S
C3083 N3082 1.351 . S
C3083 C3084 1.434 . S
C3084 C3075 1.429 . S
C3084 N3081 1.350 . S
C3084 C3083 1.434 . S
C3085 C3086 1.369 . S
C3085 C3087 1.419 . S
C3085 H3089 0.930 . S
C3086 C3085 1.369 . S
C3086 C3095 1.429 . S
C3087 C3085 1.419 . S
C3087 C3088 1.363 . S
C3087 H3090 0.929 . S
C3088 C3087 1.363 . S
C3088 C3094 1.428 . S
H3089 C3085 0.930 . S
H3090 C3087 0.929 . S
S3091 N3092 1.613 . S
S3091 N3093 1.610 . S
N3092 S3091 1.613 . S
N3092 C3095 1.350 . S
N3093 S3091 1.610 . S
N3093 C3094 1.351 . S
C3094 C3088 1.428 . S
C3094 N3093 1.351 . S
C3094 C3095 1.434 . S
C3095 C3086 1.429 . S
C3095 N3092 1.350 . S
C3095 C3094 1.434 . S
C3096 C3097 1.369 . S
C3096 C3098 1.419 1_554 S
C3096 H3100 0.930 . S
C3097 C3096 1.369 . S
C3097 C3106 1.429 . S
C3098 C3096 1.419 1_556 S
C3098 C3099 1.363 . S
C3098 H3101 0.929 . S
C3099 C3098 1.363 . S
C3099 C3105 1.428 1_556 S
H3100 C3096 0.930 . S
H3101 C3098 0.929 . S
S3102 N3103 1.613 . S
S3102 N3104 1.610 . S
N3103 S3102 1.613 . S
N3103 C3106 1.350 . S
N3104 S3102 1.610 . S
N3104 C3105 1.351 . S
C3105 C3099 1.428 1_554 S
C3105 N3104 1.351 . S
C3105 C3106 1.434 . S
C3106 C3097 1.429 . S
C3106 N3103 1.350 . S
C3106 C3105 1.434 . S
C3107 C3108 1.369 . S
C3107 C3109 1.419 1_565 S
C3107 H3111 0.930 . S
C3108 C3107 1.369 . S
C3108 C3117 1.429 1_565 S
C3109 C3107 1.419 1_545 S
C3109 C3110 1.363 . S
C3109 H3112 0.938 . S
C3110 C3109 1.363 . S
C3110 C3116 1.428 . S
H3111 C3107 0.930 . S
H3112 C3109 0.938 . S
S3113 N3114 1.613 . S
S3113 N3115 1.610 . S
N3114 S3113 1.613 . S
N3114 C3117 1.350 . S
N3115 S3113 1.610 . S
N3115 C3116 1.351 . S
C3116 C3110 1.428 . S
C3116 N3115 1.351 . S
C3116 C3117 1.434 . S
C3117 C3108 1.429 1_545 S
C3117 N3114 1.350 . S
C3117 C3116 1.434 . S
C3118 C3119 1.369 . S
C3118 C3120 1.419 1_565 S
C3118 H3122 0.930 . S
C3119 C3118 1.369 . S
C3119 C3128 1.429 . S
C3120 C3118 1.419 1_545 S
C3120 C3121 1.363 . S
C3120 H3123 0.929 . S
C3121 C3120 1.363 . S
C3121 C3127 1.428 1_545 S
H3122 C3118 0.930 . S
H3123 C3120 0.929 . S
S3124 N3125 1.613 . S
S3124 N3126 1.610 . S
N3125 S3124 1.613 . S
N3125 C3128 1.350 . S
N3126 S3124 1.610 . S
N3126 C3127 1.351 . S
C3127 C3121 1.428 1_565 S
C3127 N3126 1.351 . S
C3127 C3128 1.434 . S
C3128 C3119 1.429 . S
C3128 N3125 1.350 . S
C3128 C3127 1.434 . S
C3129 C3130 1.369 . S
C3129 C3131 1.419 1_565 S
C3129 H3133 0.930 . S
C3130 C3129 1.369 . S
C3130 C3139 1.429 . S
C3131 C3129 1.419 1_545 S
C3131 C3132 1.363 . S
C3131 H3134 0.929 . S
C3132 C3131 1.363 . S
C3132 C3138 1.428 1_545 S
H3133 C3129 0.930 . S
H3134 C3131 0.929 . S
S3135 N3136 1.613 . S
S3135 N3137 1.610 . S
N3136 S3135 1.613 . S
N3136 C3139 1.350 . S
N3137 S3135 1.610 . S
N3137 C3138 1.351 . S
C3138 C3132 1.428 1_565 S
C3138 N3137 1.351 . S
C3138 C3139 1.434 . S
C3139 C3130 1.429 . S
C3139 N3136 1.350 . S
C3139 C3138 1.434 . S
C3140 C3141 1.369 . S
C3140 C3142 1.419 1_545 S
C3140 H3144 0.930 . S
C3141 C3140 1.369 . S
C3141 C3150 1.429 . S
C3142 C3140 1.419 1_565 S
C3142 C3143 1.363 . S
C3142 H3145 0.929 . S
C3143 C3142 1.363 . S
C3143 C3149 1.428 1_565 S
H3144 C3140 0.930 . S
H3145 C3142 0.929 . S
S3146 N3147 1.613 . S
S3146 N3148 1.610 . S
N3147 S3146 1.613 . S
N3147 C3150 1.350 . S
N3148 S3146 1.610 . S
N3148 C3149 1.351 . S
C3149 C3143 1.428 1_545 S
C3149 N3148 1.351 . S
C3149 C3150 1.434 . S
C3150 C3141 1.429 . S
C3150 N3147 1.350 . S
C3150 C3149 1.434 . S
C3151 C3152 1.369 . S
C3151 C3153 1.419 . S
C3151 H3155 0.930 . S
C3152 C3151 1.369 . S
C3152 C3161 1.429 . S
C3153 C3151 1.419 . S
C3153 C3154 1.363 1_556 S
C3153 H3156 0.929 . S
C3154 C3153 1.363 1_554 S
C3154 C3160 1.428 . S
H3155 C3151 0.930 . S
H3156 C3153 0.929 . S
S3157 N3158 1.613 . S
S3157 N3159 1.610 . S
N3158 S3157 1.613 . S
N3158 C3161 1.350 1_554 S
N3159 S3157 1.610 . S
N3159 C3160 1.351 . S
C3160 C3154 1.428 . S
C3160 N3159 1.351 . S
C3160 C3161 1.434 1_554 S
C3161 C3152 1.429 . S
C3161 N3158 1.350 1_556 S
C3161 C3160 1.434 1_556 S
C3162 C3163 1.369 . S
C3162 C3164 1.419 1_655 S
C3162 H3166 0.930 . S
C3163 C3162 1.369 . S
C3163 C3172 1.429 . S
C3164 C3162 1.419 1_455 S
C3164 C3165 1.363 . S
C3164 H3167 0.929 . S
C3165 C3164 1.363 . S
C3165 C3171 1.428 1_455 S
H3166 C3162 0.930 . S
H3167 C3164 0.929 . S
S3168 N3169 1.613 . S
S3168 N3170 1.610 . S
N3169 S3168 1.613 . S
N3169 C3172 1.350 . S
N3170 S3168 1.610 . S
N3170 C3171 1.351 . S
C3171 C3165 1.428 1_655 S
C3171 N3170 1.351 . S
C3171 C3172 1.434 . S
C3172 C3163 1.429 . S
C3172 N3169 1.350 . S
C3172 C3171 1.434 . S
C3173 C3174 1.369 . S
C3173 C3175 1.419 . S
C3173 H3177 0.930 . S
C3174 C3173 1.369 . S
C3174 C3183 1.429 . S
C3175 C3173 1.419 . S
C3175 C3176 1.363 . S
C3175 H3178 0.929 . S
C3176 C3175 1.363 . S
C3176 C3182 1.428 . S
H3177 C3173 0.930 . S
H3178 C3175 0.929 . S
S3179 N3180 1.613 . S
S3179 N3181 1.610 . S
N3180 S3179 1.613 . S
N3180 C3183 1.350 . S
N3181 S3179 1.610 . S
N3181 C3182 1.351 . S
C3182 C3176 1.428 . S
C3182 N3181 1.351 . S
C3182 C3183 1.434 . S
C3183 C3174 1.429 . S
C3183 N3180 1.350 . S
C3183 C3182 1.434 . S
C3184 C3185 1.369 . S
C3184 C3186 1.419 1_655 S
C3184 H3188 0.930 . S
C3185 C3184 1.369 . S
C3185 C3194 1.429 . S
C3186 C3184 1.419 1_455 S
C3186 C3187 1.363 . S
C3186 H3189 0.929 . S
C3187 C3186 1.363 . S
C3187 C3193 1.428 1_455 S
H3188 C3184 0.930 . S
H3189 C3186 0.929 . S
S3190 N3191 1.613 . S
S3190 N3192 1.610 . S
N3191 S3190 1.613 . S
N3191 C3194 1.350 . S
N3192 S3190 1.610 . S
N3192 C3193 1.351 . S
C3193 C3187 1.428 1_655 S
C3193 N3192 1.351 . S
C3193 C3194 1.434 . S
C3194 C3185 1.429 . S
C3194 N3191 1.350 . S
C3194 C3193 1.434 . S
C3195 C3196 1.369 . S
C3195 C3197 1.419 . S
C3195 H3199 0.930 . S
C3196 C3195 1.369 . S
C3196 C3205 1.429 . S
C3197 C3195 1.419 . S
C3197 C3198 1.363 . S
C3197 H3200 0.929 . S
C3198 C3197 1.363 . S
C3198 C3204 1.428 . S
H3199 C3195 0.930 . S
H3200 C3197 0.929 . S
S3201 N3202 1.613 . S
S3201 N3203 1.610 . S
N3202 S3201 1.613 . S
N3202 C3205 1.350 . S
N3203 S3201 1.610 . S
N3203 C3204 1.351 . S
C3204 C3198 1.428 . S
C3204 N3203 1.351 . S
C3204 C3205 1.434 . S
C3205 C3196 1.429 . S
C3205 N3202 1.350 . S
C3205 C3204 1.434 . S
C3206 C3207 1.369 . S
C3206 C3208 1.419 . S
C3206 H3210 0.930 . S
C3207 C3206 1.369 . S
C3207 C3216 1.429 . S
C3208 C3206 1.419 . S
C3208 C3209 1.363 . S
C3208 H3211 0.929 . S
C3209 C3208 1.363 . S
C3209 C3215 1.428 . S
H3210 C3206 0.930 . S
H3211 C3208 0.929 . S
S3212 N3213 1.613 . S
S3212 N3214 1.610 . S
N3213 S3212 1.613 . S
N3213 C3216 1.350 . S
N3214 S3212 1.610 . S
N3214 C3215 1.351 . S
C3215 C3209 1.428 . S
C3215 N3214 1.351 . S
C3215 C3216 1.434 . S
C3216 C3207 1.429 . S
C3216 N3213 1.350 . S
C3216 C3215 1.434 . S
C3217 C3218 1.369 . S
C3217 C3219 1.419 1_556 S
C3217 H3221 0.930 . S
C3218 C3217 1.369 . S
C3218 C3227 1.429 . S
C3219 C3217 1.419 1_554 S
C3219 C3220 1.363 . S
C3219 H3222 0.929 . S
C3220 C3219 1.363 . S
C3220 C3226 1.428 1_554 S
H3221 C3217 0.930 . S
H3222 C3219 0.929 . S
S3223 N3224 1.613 . S
S3223 N3225 1.610 . S
N3224 S3223 1.613 . S
N3224 C3227 1.350 . S
N3225 S3223 1.610 . S
N3225 C3226 1.351 . S
C3226 C3220 1.428 1_556 S
C3226 N3225 1.351 . S
C3226 C3227 1.434 . S
C3227 C3218 1.429 . S
C3227 N3224 1.350 . S
C3227 C3226 1.434 . S
C3228 C3229 1.369 . S
C3228 C3230 1.419 . S
C3228 H3232 0.930 . S
C3229 C3228 1.369 . S
C3229 C3238 1.429 . S
C3230 C3228 1.419 . S
C3230 C3231 1.363 . S
C3230 H3233 0.929 . S
C3231 C3230 1.363 . S
C3231 C3237 1.428 . S
H3232 C3228 0.930 . S
H3233 C3230 0.929 . S
S3234 N3235 1.613 . S
S3234 N3236 1.610 . S
N3235 S3234 1.613 . S
N3235 C3238 1.350 . S
N3236 S3234 1.610 . S
N3236 C3237 1.351 . S
C3237 C3231 1.428 . S
C3237 N3236 1.351 . S
C3237 C3238 1.434 . S
C3238 C3229 1.429 . S
C3238 N3235 1.350 . S
C3238 C3237 1.434 . S
C3239 C3240 1.369 . S
C3239 C3241 1.419 . S
C3239 H3243 0.930 . S
C3240 C3239 1.369 . S
C3240 C3249 1.429 . S
C3241 C3239 1.419 . S
C3241 C3242 1.363 . S
C3241 H3244 0.929 . S
C3242 C3241 1.363 . S
C3242 C3248 1.428 . S
H3243 C3239 0.930 . S
H3244 C3241 0.929 . S
S3245 N3246 1.613 . S
S3245 N3247 1.610 . S
N3246 S3245 1.613 . S
N3246 C3249 1.350 . S
N3247 S3245 1.610 . S
N3247 C3248 1.351 . S
C3248 C3242 1.428 . S
C3248 N3247 1.351 . S
C3248 C3249 1.434 . S
C3249 C3240 1.429 . S
C3249 N3246 1.350 . S
C3249 C3248 1.434 . S
C3250 C3251 1.369 . S
C3250 C3252 1.419 . S
C3250 H3254 0.930 . S
C3251 C3250 1.369 . S
C3251 C3260 1.429 . S
C3252 C3250 1.419 . S
C3252 C3253 1.363 . S
C3252 H3255 0.929 . S
C3253 C3252 1.363 . S
C3253 C3259 1.428 . S
H3254 C3250 0.930 . S
H3255 C3252 0.929 . S
S3256 N3257 1.613 . S
S3256 N3258 1.610 . S
N3257 S3256 1.613 . S
N3257 C3260 1.350 . S
N3258 S3256 1.610 . S
N3258 C3259 1.351 . S
C3259 C3253 1.428 . S
C3259 N3258 1.351 . S
C3259 C3260 1.434 . S
C3260 C3251 1.429 . S
C3260 N3257 1.350 . S
C3260 C3259 1.434 . S
C3261 C3262 1.369 . S
C3261 C3263 1.419 . S
C3261 H3265 0.930 . S
C3262 C3261 1.369 . S
C3262 C3271 1.429 . S
C3263 C3261 1.419 . S
C3263 C3264 1.363 . S
C3263 H3266 0.929 . S
C3264 C3263 1.363 . S
C3264 C3270 1.428 . S
H3265 C3261 0.930 . S
H3266 C3263 0.929 . S
S3267 N3268 1.613 . S
S3267 N3269 1.610 . S
N3268 S3267 1.613 . S
N3268 C3271 1.350 . S
N3269 S3267 1.610 . S
N3269 C3270 1.351 . S
C3270 C3264 1.428 . S
C3270 N3269 1.351 . S
C3270 C3271 1.434 . S
C3271 C3262 1.429 . S
C3271 N3268 1.350 . S
C3271 C3270 1.434 . S
C3272 C3273 1.369 . S
C3272 C3274 1.419 . S
C3272 H3276 0.930 . S
C3273 C3272 1.369 . S
C3273 C3282 1.429 . S
C3274 C3272 1.419 . S
C3274 C3275 1.363 . S
C3274 H3277 0.929 . S
C3275 C3274 1.363 . S
C3275 C3281 1.428 . S
H3276 C3272 0.930 . S
H3277 C3274 0.929 . S
S3278 N3279 1.613 . S
S3278 N3280 1.610 . S
N3279 S3278 1.613 . S
N3279 C3282 1.350 . S
N3280 S3278 1.610 . S
N3280 C3281 1.351 . S
C3281 C3275 1.428 . S
C3281 N3280 1.351 . S
C3281 C3282 1.434 . S
C3282 C3273 1.429 . S
C3282 N3279 1.350 . S
C3282 C3281 1.434 . S
C3283 C3284 1.369 . S
C3283 C3285 1.419 . S
C3283 H3287 0.930 . S
C3284 C3283 1.369 . S
C3284 C3293 1.429 . S
C3285 C3283 1.419 . S
C3285 C3286 1.363 . S
C3285 H3288 0.929 . S
C3286 C3285 1.363 . S
C3286 C3292 1.428 . S
H3287 C3283 0.930 . S
H3288 C3285 0.929 . S
S3289 N3290 1.613 . S
S3289 N3291 1.610 . S
N3290 S3289 1.613 . S
N3290 C3293 1.350 . S
N3291 S3289 1.610 . S
N3291 C3292 1.351 . S
C3292 C3286 1.428 . S
C3292 N3291 1.351 . S
C3292 C3293 1.434 . S
C3293 C3284 1.429 . S
C3293 N3290 1.350 . S
C3293 C3292 1.434 . S
C3294 C3295 1.369 . S
C3294 C3296 1.419 . S
C3294 H3298 0.930 . S
C3295 C3294 1.369 . S
C3295 C3304 1.429 . S
C3296 C3294 1.419 . S
C3296 C3297 1.363 1_554 S
C3296 H3299 0.929 . S
C3297 C3296 1.363 1_556 S
C3297 C3303 1.428 . S
H3298 C3294 0.930 . S
H3299 C3296 0.929 . S
S3300 N3301 1.613 . S
S3300 N3302 1.610 . S
N3301 S3300 1.613 . S
N3301 C3304 1.350 1_556 S
N3302 S3300 1.610 . S
N3302 C3303 1.351 . S
C3303 C3297 1.428 . S
C3303 N3302 1.351 . S
C3303 C3304 1.434 1_556 S
C3304 C3295 1.429 . S
C3304 N3301 1.350 1_554 S
C3304 C3303 1.434 1_554 S
C3305 C3306 1.369 . S
C3305 C3307 1.419 . S
C3305 H3309 0.930 . S
C3306 C3305 1.369 . S
C3306 C3315 1.429 . S
C3307 C3305 1.419 . S
C3307 C3308 1.363 . S
C3307 H3310 0.929 . S
C3308 C3307 1.363 . S
C3308 C3314 1.428 . S
H3309 C3305 0.930 . S
H3310 C3307 0.929 . S
S3311 N3312 1.613 . S
S3311 N3313 1.610 . S
N3312 S3311 1.613 . S
N3312 C3315 1.350 . S
N3313 S3311 1.610 . S
N3313 C3314 1.351 . S
C3314 C3308 1.428 . S
C3314 N3313 1.351 . S
C3314 C3315 1.434 . S
C3315 C3306 1.429 . S
C3315 N3312 1.350 . S
C3315 C3314 1.434 . S
C3316 C3317 1.369 . S
C3316 C3318 1.419 . S
C3316 H3320 0.930 . S
C3317 C3316 1.369 . S
C3317 C3326 1.429 . S
C3318 C3316 1.419 . S
C3318 C3319 1.363 . S
C3318 H3321 0.929 . S
C3319 C3318 1.363 . S
C3319 C3325 1.428 . S
H3320 C3316 0.930 . S
H3321 C3318 0.929 . S
S3322 N3323 1.613 . S
S3322 N3324 1.610 . S
N3323 S3322 1.613 . S
N3323 C3326 1.350 . S
N3324 S3322 1.610 . S
N3324 C3325 1.351 . S
C3325 C3319 1.428 . S
C3325 N3324 1.351 . S
C3325 C3326 1.434 . S
C3326 C3317 1.429 . S
C3326 N3323 1.350 . S
C3326 C3325 1.434 . S
C3327 C3328 1.369 . S
C3327 C3329 1.419 . S
C3327 H3331 0.930 . S
C3328 C3327 1.369 . S
C3328 C3337 1.429 . S
C3329 C3327 1.419 . S
C3329 C3330 1.363 . S
C3329 H3332 0.929 . S
C3330 C3329 1.363 . S
C3330 C3336 1.428 . S
H3331 C3327 0.930 . S
H3332 C3329 0.929 . S
S3333 N3334 1.613 . S
S3333 N3335 1.610 . S
N3334 S3333 1.613 . S
N3334 C3337 1.350 . S
N3335 S3333 1.610 . S
N3335 C3336 1.351 . S
C3336 C3330 1.428 . S
C3336 N3335 1.351 . S
C3336 C3337 1.434 . S
C3337 C3328 1.429 . S
C3337 N3334 1.350 . S
C3337 C3336 1.434 . S
C3338 C3339 1.369 . S
C3338 C3340 1.419 . S
C3338 H3342 0.930 . S
C3339 C3338 1.369 . S
C3339 C3348 1.429 . S
C3340 C3338 1.419 . S
C3340 C3341 1.363 . S
C3340 H3343 0.929 . S
C3341 C3340 1.363 . S
C3341 C3347 1.428 . S
H3342 C3338 0.930 . S
H3343 C3340 0.929 . S
S3344 N3345 1.613 . S
S3344 N3346 1.610 . S
N3345 S3344 1.613 . S
N3345 C3348 1.350 . S
N3346 S3344 1.610 . S
N3346 C3347 1.351 . S
C3347 C3341 1.428 . S
C3347 N3346 1.351 . S
C3347 C3348 1.434 . S
C3348 C3339 1.429 . S
C3348 N3345 1.350 . S
C3348 C3347 1.434 . S
C3349 C3350 1.369 . S
C3349 C3351 1.419 . S
C3349 H3353 0.930 . S
C3350 C3349 1.369 . S
C3350 C3359 1.429 . S
C3351 C3349 1.419 . S
C3351 C3352 1.363 . S
C3351 H3354 0.929 . S
C3352 C3351 1.363 . S
C3352 C3358 1.428 . S
H3353 C3349 0.930 . S
H3354 C3351 0.929 . S
S3355 N3356 1.613 . S
S3355 N3357 1.610 . S
N3356 S3355 1.613 . S
N3356 C3359 1.350 . S
N3357 S3355 1.610 . S
N3357 C3358 1.351 . S
C3358 C3352 1.428 . S
C3358 N3357 1.351 . S
C3358 C3359 1.434 . S
C3359 C3350 1.429 . S
C3359 N3356 1.350 . S
C3359 C3358 1.434 . S
C1249 C4 1.344 . S
C1251 C980 1.351 . S
C1260 C317 1.352 1_455 S
C1262 C23 1.345 . S
C1271 C954 1.348 . S
C1273 C36 1.348 . S
C1282 C343 1.351 . S
C1284 C49 1.344 . S
C1293 C62 1.343 . S
C1295 C1004 1.351 . S
C1304 C69 1.343 . S
C1306 C393 1.347 . S
C1315 C1030 1.346 . S
C1317 C88 1.344 . S
C1326 C95 1.342 . S
C1328 C369 1.350 1_455 S
C1337 C114 1.342 . S
C1339 C1173 1.349 . S
C1348 C564 1.346 . S
C1350 C127 1.348 . S
C1359 C140 1.342 . S
C1361 C575 1.349 . S
C1370 C147 1.348 . S
C1372 C538 1.350 1_556 S
C1381 C160 1.344 . S
C1383 C1227 1.351 . S
C1392 C173 1.349 . S
C1394 C1147 1.348 . S
C1403 C186 1.343 . S
C1405 C1238 1.347 . S
C1414 C199 1.342 . S
C1416 C1212 1.349 1_554 S
C1425 C1056 1.352 . S
C1427 C218 1.346 . S
C1436 C231 1.348 . S
C1438 C512 1.349 . S
C1447 C244 1.343 . S
C1449 C1095 1.351 . S
C1458 C484 1.351 . S
C1460 C251 1.343 . S
C1469 C270 1.346 . S
C1471 C497 1.346 1_545 S
C1480 C1082 1.346 . S
C1482 C283 1.344 . S
C1491 C296 1.345 . S
C1493 C1043 1.351 . S
C1502 C1071 1.350 . S
C1504 C309 1.343 . S
C1513 C668 1.346 . S
C1515 C322 1.348 . S
C1524 C3 1.345 1_655 S
C1526 C329 1.344 . S
C1535 C348 1.342 . S
C1537 C642 1.350 . S
C1546 C361 1.348 . S
C1548 C31 1.347 . S
C1557 C374 1.343 . S
C1559 C692 1.347 . S
C1568 C83 1.350 . S
C1570 C381 1.348 . S
C1579 C394 1.349 . S
C1581 C718 1.350 . S
C1590 C413 1.346 . S
C1592 C57 1.346 1_655 S
C1601 C420 1.342 . S
C1603 C861 1.349 . S
C1612 C250 1.351 . S
C1614 C439 1.344 . S
C1623 C452 1.349 . S
C1625 C265 1.348 . S
C1634 C226 1.352 1_554 S
C1636 C459 1.345 . S
C1645 C472 1.345 . S
C1647 C915 1.351 . S
C1656 C485 1.349 . S
C1658 C835 1.347 . S
C1667 C498 1.349 . S
C1669 C928 1.348 . S
C1678 C900 1.350 1_556 S
C1680 C517 1.348 . S
C1689 C746 1.348 . S
C1691 C524 1.348 . S
C1700 C198 1.345 . S
C1702 C543 1.347 . S
C1711 C783 1.346 . S
C1713 C550 1.348 . S
C1722 C569 1.349 . S
C1724 C172 1.347 . S
C1733 C576 1.342 . S
C1735 C185 1.349 1_565 S
C1744 C589 1.349 . S
C1746 C772 1.349 . S
C1755 C733 1.345 . S
C1757 C602 1.345 . S
C1766 C615 1.349 . S
C1768 C759 1.348 . S
C1777 C356 1.347 . S
C1779 C634 1.348 . S
C1788 C941 1.352 . S
C1790 C647 1.344 . S
C1799 C654 1.343 . S
C1801 C328 1.347 . S
C1810 C967 1.351 1_655 S
C1812 C673 1.344 . S
C1821 C680 1.344 . S
C1823 C380 1.346 . S
C1832 C1017 1.351 1_655 S
C1834 C693 1.344 . S
C1843 C706 1.343 . S
C1845 C408 1.350 . S
C1854 C991 1.345 . S
C1856 C719 1.345 . S
C1865 C549 1.350 . S
C1867 C738 1.343 . S
C1876 C751 1.344 . S
C1878 C1188 1.351 1_556 S
C1887 C1201 1.352 . S
C1889 C764 1.345 . S
C1898 C777 1.349 . S
C1900 C1162 1.347 . S
C1909 C601 1.351 . S
C1911 C784 1.347 . S
C1920 C797 1.349 . S
C1922 C523 1.347 1_554 S
C1931 C614 1.349 . S
C1933 C810 1.343 . S
C1942 C588 1.347 . S
C1944 C823 1.348 . S
C1953 C434 1.349 . S
C1955 C836 1.343 . S
C1964 C1134 1.346 . S
C1966 C855 1.344 . S
C1975 C862 1.344 . S
C1977 C471 1.351 1_565 S
C1986 C881 1.349 . S
C1988 C1108 1.348 . S
C1997 C1123 1.345 . S
C1999 C894 1.348 . S
C2008 C458 1.352 . S
C2010 C901 1.346 . S
C2019 C419 1.346 1_545 S
C2021 C920 1.348 . S
C2030 C447 1.350 1_565 S
C2032 C933 1.343 . S
C2041 C946 1.342 . S
C2043 C44 1.350 . S
C2052 C959 1.347 . S
C2054 C629 1.351 . S
C2063 C972 1.345 . S
C2065 C18 1.351 . S
C2074 C985 1.346 . S
C2076 C653 1.346 1_455 S
C2085 C68 1.347 . S
C2087 C992 1.343 . S
C2096 C705 1.345 1_455 S
C2098 C1005 1.346 . S
C2107 C94 1.346 . S
C2109 C1018 1.347 . S
C2118 C679 1.345 . S
C2120 C1031 1.346 . S
C2129 C1044 1.349 . S
C2131 C239 1.348 . S
C2140 C876 1.351 1_554 S
C2142 C1057 1.343 . S
C2151 C1076 1.342 . S
C2153 C889 1.349 . S
C2162 C1083 1.348 . S
C2164 C850 1.347 . S
C2173 C291 1.350 . S
C2175 C1096 1.343 . S
C2184 C213 1.351 1_556 S
C2186 C1109 1.347 . S
C2195 C1128 1.347 . S
C2197 C304 1.346 . S
C2206 C278 1.352 . S
C2208 C1135 1.345 . S
C2217 C1148 1.349 . S
C2219 C122 1.347 . S
C2228 C1167 1.342 . S
C2230 C822 1.349 . S
C2239 C159 1.346 1_545 S
C2241 C1174 1.343 . S
C2250 C1193 1.342 . S
C2252 C796 1.349 . S
C2261 C809 1.349 . S
C2263 C1206 1.343 . S
C2272 C1213 1.345 . S
C2274 C146 1.351 . S
C2283 C1232 1.343 . S
C2285 C109 1.346 1_565 S
C2294 C1239 1.349 . S
C2296 C135 1.349 1_545 S
C2305 C10 1.321 . S
C2307 C121 1.320 . S
C2316 C17 1.321 . S
C2318 C134 1.325 . S
C2327 C153 1.325 . S
C2329 C30 1.321 . S
C2338 C43 1.323 . S
C2340 C108 1.320 . S
C2349 C205 1.319 . S
C2351 C56 1.323 . S
C2360 C75 1.326 . S
C2362 C166 1.326 . S
C2371 C82 1.326 . S
C2373 C179 1.322 . S
C2382 C192 1.319 . S
C2384 C101 1.322 . S
C2393 C238 1.319 . S
C2395 C212 1.323 . S
C2404 C225 1.325 . S
C2406 C914 1.326 . S
C2415 C927 1.325 . S
C2417 C257 1.321 . S
C2426 C264 1.319 . S
C2428 C907 1.322 . S
C2437 C888 1.319 . S
C2439 C277 1.320 . S
C2448 C290 1.319 . S
C2450 C849 1.321 . S
C2459 C303 1.326 . S
C2461 C875 1.322 . S
C2470 C316 1.321 . S
C2472 C433 1.320 . S
C2481 C446 1.327 . S
C2483 C335 1.323 . S
C2492 C465 1.324 . S
C2494 C342 1.320 . S
C2503 C355 1.321 . S
C2505 C426 1.320 . S
C2514 C511 1.321 . S
C2516 C368 1.320 . S
C2525 C387 1.327 . S
C2527 C478 1.323 . S
C2536 C491 1.322 . S
C2538 C400 1.320 . S
C2547 C407 1.325 . S
C2549 C504 1.326 . S
C2558 C556 1.326 . S
C2560 C530 1.322 . S
C2569 C537 1.324 . S
C2571 C1226 1.320 . S
C2580 C563 1.324 . S
C2582 C1245 1.326 . S
C2591 C1219 1.325 . S
C2593 C582 1.326 . S
C2602 C1200 1.326 . S
C2604 C595 1.322 . S
C2613 C1161 1.326 . S
C2615 C608 1.325 . S
C2624 C1187 1.320 . S
C2626 C621 1.325 . S
C2635 C745 1.321 . S
C2637 C628 1.325 . S
C2646 C758 1.323 . S
C2648 C641 1.320 . S
C2657 C771 1.326 . S
C2659 C660 1.326 . S
C2668 C667 1.322 . S
C2670 C732 1.320 . S
C2679 C686 1.324 . S
C2681 C829 1.326 . S
C2690 C699 1.319 . S
C2692 C790 1.322 . S
C2701 C712 1.320 . S
C2703 C803 1.324 . S
C2712 C725 1.320 . S
C2714 C816 1.320 . S
C2723 C868 1.319 . S
C2725 C842 1.321 . S
C2734 C1063 1.321 . S
C2736 C940 1.320 . S
C2745 C953 1.322 . S
C2747 C1070 1.320 . S
C2756 C1089 1.325 . S
C2758 C966 1.321 . S
C2767 C1050 1.327 . S
C2769 C979 1.322 . S
C2778 C1141 1.323 . S
C2780 C998 1.320 . S
C2789 C1102 1.326 . S
C2791 C1011 1.322 . S
C2800 C1115 1.321 . S
C2802 C1024 1.325 . S
C2811 C1122 1.323 . S
C2813 C1037 1.320 . S
C2822 C1180 1.326 . S
C2824 C1154 1.326 . S
C2833 C5 1.537 . S
C2835 C263 1.542 . S
C2844 C848 1.537 . S
C2846 C16 1.542 . S
C2855 C863 1.540 . S
C2857 C29 1.538 . S
C2866 C874 1.541 . S
C2868 C42 1.544 . S
C2877 C926 1.537 . S
C2879 C55 1.540 . S
C2888 C70 1.545 . S
C2890 C276 1.540 . S
C2899 C81 1.544 . S
C2901 C913 1.538 . S
C2910 C96 1.542 . S
C2912 C211 1.543 . S
C2921 C107 1.538 . S
C2923 C200 1.540 . S
C2932 C120 1.544 . S
C2934 C161 1.538 . S
C2943 C133 1.544 . S
C2945 C174 1.543 . S
C2954 C187 1.539 . S
C2956 C148 1.544 . S
C2965 C640 1.542 . S
C2967 C224 1.543 . S
C2976 C237 1.540 . S
C2978 C655 1.538 . S
C2987 C252 1.539 . S
C2989 C666 1.539 . S
C2998 C707 1.540 . S
C3000 C289 1.538 . S
C3009 C302 1.542 . S
C3011 C681 1.538 . S
C3020 C315 1.544 . S
C3022 C577 1.539 . S
C3031 C1160 1.543 . S
C3033 C330 1.538 . S
C3042 C1175 1.539 . S
C3044 C341 1.544 . S
C3053 C1186 1.537 . S
C3055 C354 1.540 . S
C3064 C367 1.544 . S
C3066 C1240 1.543 . S
C3075 C382 1.544 . S
C3077 C590 1.539 . S
C3086 C395 1.542 . S
C3088 C1225 1.544 . S
C3097 C406 1.539 . S
C3099 C525 1.538 . S
C3108 C421 1.538 . S
C3110 C510 1.539 . S
C3119 C432 1.537 . S
C3121 C473 1.542 . S
C3130 C486 1.537 . S
C3132 C445 1.541 . S
C3141 C460 1.538 . S
C3143 C499 1.539 . S
C3152 C952 1.544 . S
C3154 C536 1.542 . S
C3163 C551 1.540 . S
C3165 C965 1.538 . S
C3174 C978 1.541 . S
C3176 C562 1.544 . S
C3185 C603 1.537 . S
C3187 C1019 1.542 . S
C3196 C993 1.537 . S
C3198 C616 1.541 . S
C3207 C627 1.537 . S
C3209 C887 1.540 . S
C3218 C694 1.542 . S
C3220 C902 1.538 . S
C3229 C720 1.542 . S
C3231 C837 1.543 . S
C3240 C824 1.539 . S
C3242 C731 1.539 . S
C3251 C744 1.540 . S
C3253 C785 1.544 . S
C3262 C798 1.544 . S
C3264 C757 1.542 . S
C3273 C770 1.539 . S
C3275 C811 1.539 . S
C3284 C1199 1.537 . S
C3286 C939 1.541 . S
C3295 C1006 1.544 . S
C3297 C1214 1.543 . S
C3306 C1032 1.542 . S
C3308 C1149 1.544 . S
C3317 C1136 1.544 . S
C3319 C1045 1.542 . S
C3328 C1097 1.544 . S
C3330 C1058 1.542 . S
C3339 C1069 1.543 . S
C3341 C1110 1.539 . S
C3350 C1084 1.545 . S
C3352 C1121 1.540 . S
