# Generated by pormake.
# Topology ung, (4)-cn, num edge types: 1
# Building blocks:
#     Node 0, Type 0, BuildingBlock: CEKHIL_clean_sbu_0, # of connection points: 4
#     Node 1, Type 0, BuildingBlock: CEKHIL_clean_sbu_0, # of connection points: 4
#     Node 2, Type 0, BuildingBlock: CEKHIL_clean_sbu_0, # of connection points: 4
#     Node 3, Type 0, BuildingBlock: CEKHIL_clean_sbu_0, # of connection points: 4
#     Node 4, Type 0, BuildingBlock: CEKHIL_clean_sbu_0, # of connection points: 4
#     Node 5, Type 0, BuildingBlock: CEKHIL_clean_sbu_0, # of connection points: 4
#     Node 6, Type 0, BuildingBlock: CEKHIL_clean_sbu_0, # of connection points: 4
#     Node 7, Type 0, BuildingBlock: CEKHIL_clean_sbu_0, # of connection points: 4
#     Node 8, Type 0, BuildingBlock: CEKHIL_clean_sbu_0, # of connection points: 4
#     Node 9, Type 0, BuildingBlock: CEKHIL_clean_sbu_0, # of connection points: 4
#     Node 10, Type 0, BuildingBlock: CEKHIL_clean_sbu_0, # of connection points: 4
#     Node 11, Type 0, BuildingBlock: CEKHIL_clean_sbu_0, # of connection points: 4
#     Node 12, Type 0, BuildingBlock: CEKHIL_clean_sbu_0, # of connection points: 4
#     Node 13, Type 0, BuildingBlock: CEKHIL_clean_sbu_0, # of connection points: 4
#     Node 14, Type 0, BuildingBlock: CEKHIL_clean_sbu_0, # of connection points: 4
#     Node 15, Type 0, BuildingBlock: CEKHIL_clean_sbu_0, # of connection points: 4
#     Node 16, Type 0, BuildingBlock: CEKHIL_clean_sbu_0, # of connection points: 4
#     Node 17, Type 0, BuildingBlock: CEKHIL_clean_sbu_0, # of connection points: 4
#     Edge 18, Type (0, 0), BuildingBlock: CIFDUS_clean_linker_0, # of connection points: 2
#     Edge 19, Type (0, 0), BuildingBlock: CIFDUS_clean_linker_0, # of connection points: 2
#     Edge 20, Type (0, 0), BuildingBlock: CIFDUS_clean_linker_0, # of connection points: 2
#     Edge 21, Type (0, 0), BuildingBlock: CIFDUS_clean_linker_0, # of connection points: 2
#     Edge 22, Type (0, 0), BuildingBlock: CIFDUS_clean_linker_0, # of connection points: 2
#     Edge 23, Type (0, 0), BuildingBlock: CIFDUS_clean_linker_0, # of connection points: 2
#     Edge 24, Type (0, 0), BuildingBlock: CIFDUS_clean_linker_0, # of connection points: 2
#     Edge 25, Type (0, 0), BuildingBlock: CIFDUS_clean_linker_0, # of connection points: 2
#     Edge 26, Type (0, 0), BuildingBlock: CIFDUS_clean_linker_0, # of connection points: 2
#     Edge 27, Type (0, 0), BuildingBlock: CIFDUS_clean_linker_0, # of connection points: 2
#     Edge 28, Type (0, 0), BuildingBlock: CIFDUS_clean_linker_0, # of connection points: 2
#     Edge 29, Type (0, 0), BuildingBlock: CIFDUS_clean_linker_0, # of connection points: 2
#     Edge 30, Type (0, 0), BuildingBlock: CIFDUS_clean_linker_0, # of connection points: 2
#     Edge 31, Type (0, 0), BuildingBlock: CIFDUS_clean_linker_0, # of connection points: 2
#     Edge 32, Type (0, 0), BuildingBlock: CIFDUS_clean_linker_0, # of connection points: 2
#     Edge 33, Type (0, 0), BuildingBlock: CIFDUS_clean_linker_0, # of connection points: 2
#     Edge 34, Type (0, 0), BuildingBlock: CIFDUS_clean_linker_0, # of connection points: 2
#     Edge 35, Type (0, 0), BuildingBlock: CIFDUS_clean_linker_0, # of connection points: 2
#     Edge 36, Type (0, 0), BuildingBlock: CIFDUS_clean_linker_0, # of connection points: 2
#     Edge 37, Type (0, 0), BuildingBlock: CIFDUS_clean_linker_0, # of connection points: 2
#     Edge 38, Type (0, 0), BuildingBlock: CIFDUS_clean_linker_0, # of connection points: 2
#     Edge 39, Type (0, 0), BuildingBlock: CIFDUS_clean_linker_0, # of connection points: 2
#     Edge 40, Type (0, 0), BuildingBlock: CIFDUS_clean_linker_0, # of connection points: 2
#     Edge 41, Type (0, 0), BuildingBlock: CIFDUS_clean_linker_0, # of connection points: 2
#     Edge 42, Type (0, 0), BuildingBlock: CIFDUS_clean_linker_0, # of connection points: 2
#     Edge 43, Type (0, 0), BuildingBlock: CIFDUS_clean_linker_0, # of connection points: 2
#     Edge 44, Type (0, 0), BuildingBlock: CIFDUS_clean_linker_0, # of connection points: 2
#     Edge 45, Type (0, 0), BuildingBlock: CIFDUS_clean_linker_0, # of connection points: 2
#     Edge 46, Type (0, 0), BuildingBlock: CIFDUS_clean_linker_0, # of connection points: 2
#     Edge 47, Type (0, 0), BuildingBlock: CIFDUS_clean_linker_0, # of connection points: 2
#     Edge 48, Type (0, 0), BuildingBlock: CIFDUS_clean_linker_0, # of connection points: 2
#     Edge 49, Type (0, 0), BuildingBlock: CIFDUS_clean_linker_0, # of connection points: 2
#     Edge 50, Type (0, 0), BuildingBlock: CIFDUS_clean_linker_0, # of connection points: 2
#     Edge 51, Type (0, 0), BuildingBlock: CIFDUS_clean_linker_0, # of connection points: 2
#     Edge 52, Type (0, 0), BuildingBlock: CIFDUS_clean_linker_0, # of connection points: 2
#     Edge 53, Type (0, 0), BuildingBlock: CIFDUS_clean_linker_0, # of connection points: 2
# Relax obj value: 0.073
# Max RMSD: 0.190
# Mean RMSD: 0.184
data_MOF--net-ung--node1-CEKHIL_clean_sbu_0--edge1-CIFDUS_clean_linker_0
_symmetry_space_group_name_H-M    P1
_symmetry_Int_Tables_number       1
_symmetry_cell_setting            triclinic
loop_
_symmetry_equiv_pos_as_xyz
'x, y, z'
_cell_length_a     63.459629
_cell_length_b     63.736622
_cell_length_c     19.37009
_cell_angle_alpha  91.066659
_cell_angle_beta   91.161284
_cell_angle_gamma 119.88457
loop_
_atom_site_label
_atom_site_type_symbol
_atom_site_fract_x
_atom_site_fract_y
_atom_site_fract_z
_atom_type_partial_charge
Co0 Co 0.08235 0.62124 0.2369 0.0
O1 O 0.09509 0.60455 0.28849 0.0
O2 O 0.05585 0.59135 0.26937 0.0
C3 C 0.1058 0.65719 0.29097 0.0
O4 O 0.06312 0.63474 0.1879 0.0
Co5 Co 0.11691 0.662 0.14205 0.0
O6 O 0.09061 0.67012 0.14331 0.0
C7 C 0.09437 0.61123 0.09222 0.0
C8 C 0.07276 0.58863 0.30007 0.0
C9 C 0.06895 0.65483 0.15878 0.0
O10 O 0.08292 0.60462 0.14872 0.0
O11 O 0.11005 0.63327 0.08068 0.0
O12 O 0.08597 0.64095 0.31792 0.0
O13 O 0.11226 0.65046 0.23549 0.0
Co14 Co 0.51719 0.48816 0.22405 0.0
O15 O 0.54541 0.49924 0.16957 0.0
O16 O 0.52434 0.51816 0.1798 0.0
C17 C 0.49859 0.44981 0.18312 0.0
O18 O 0.48644 0.48052 0.27616 0.0
Co19 Co 0.50971 0.44989 0.33233 0.0
O20 O 0.47953 0.45075 0.34961 0.0
C21 C 0.54426 0.50111 0.36473 0.0
C22 C 0.54237 0.51704 0.15222 0.0
C23 C 0.4739 0.46549 0.32287 0.0
O24 O 0.538 0.50666 0.30745 0.0
O25 O 0.53661 0.47925 0.38193 0.0
O26 O 0.49683 0.46634 0.14975 0.0
O27 O 0.51381 0.4574 0.23554 0.0
Co28 Co 0.63054 0.04793 0.2656 0.0
O29 O 0.60299 0.03363 0.32289 0.0
O30 O 0.62784 0.07307 0.31646 0.0
C31 C 0.64427 0.02305 0.29916 0.0
O32 O 0.66156 0.06873 0.21267 0.0
Co33 Co 0.63241 0.01675 0.1474 0.0
O34 O 0.66398 0.04528 0.12834 0.0
C35 C 0.60175 0.03854 0.12867 0.0
C36 C 0.6089 0.0553 0.34386 0.0
C37 C 0.67224 0.0655 0.16089 0.0
O38 O 0.60973 0.0492 0.18802 0.0
O39 O 0.60744 0.02338 0.10367 0.0
O40 O 0.64961 0.04265 0.33438 0.0
O41 O 0.62916 0.01784 0.2469 0.0
Co42 Co 0.05786 0.48263 0.70093 0.0
O43 O 0.04469 0.49593 0.63706 0.0
O44 O 0.08388 0.51212 0.66483 0.0
C45 C 0.03741 0.44482 0.65641 0.0
O46 O 0.07767 0.47275 0.76255 0.0
Co47 Co 0.02312 0.44478 0.80116 0.0
O48 O 0.05196 0.44219 0.82821 0.0
C49 C 0.04124 0.4962 0.83327 0.0
C50 C 0.06687 0.51262 0.62728 0.0
C51 C 0.07322 0.45657 0.80763 0.0
O52 O 0.05438 0.50145 0.77985 0.0
O53 O 0.02595 0.47443 0.84841 0.0
O54 O 0.05738 0.46095 0.62976 0.0
O55 O 0.02875 0.45256 0.70438 0.0
Co56 Co 0.63253 0.62961 0.76396 0.0
O57 O 0.60302 0.6173 0.81331 0.0
O58 O 0.6253 0.59955 0.80779 0.0
C59 C 0.64903 0.66756 0.80785 0.0
O60 O 0.66463 0.63851 0.71768 0.0
Co61 Co 0.64122 0.66846 0.65633 0.0
O62 O 0.67195 0.66829 0.6438 0.0
C63 C 0.60809 0.61724 0.61967 0.0
C64 C 0.60647 0.59988 0.83229 0.0
C65 C 0.67763 0.65383 0.67214 0.0
O66 O 0.61376 0.61147 0.67751 0.0
O67 O 0.61542 0.63915 0.60363 0.0
O68 O 0.65064 0.65102 0.84157 0.0
O69 O 0.63532 0.66014 0.75221 0.0
Co70 Co 0.49723 0.05577 0.71381 0.0
O71 O 0.52419 0.07094 0.65434 0.0
O72 O 0.50219 0.0314 0.66729 0.0
C73 C 0.47961 0.0769 0.67739 0.0
O74 O 0.46736 0.03391 0.7699 0.0
Co75 Co 0.49343 0.08692 0.82848 0.0
O76 O 0.46364 0.0571 0.85245 0.0
C77 C 0.52744 0.0693 0.84985 0.0
C78 C 0.52009 0.04948 0.6374 0.0
C79 C 0.45657 0.03669 0.82216 0.0
O80 O 0.51969 0.05788 0.79145 0.0
O81 O 0.52026 0.08342 0.87387 0.0
O82 O 0.47616 0.05754 0.64428 0.0
O83 O 0.49549 0.0845 0.72858 0.0
Co84 Co 0.69868 0.931 0.60305 0.0
O85 O 0.68299 0.89834 0.56702 0.0
O86 O 0.72298 0.92275 0.57841 0.0
C87 C 0.67698 0.94334 0.53966 0.0
O88 O 0.72103 0.96565 0.63672 0.0
Co89 Co 0.66821 0.94753 0.6882 0.0
O90 O 0.69927 0.97862 0.69646 0.0
C91 C 0.68686 0.9187 0.75448 0.0
C92 C 0.70471 0.90191 0.55789 0.0
C93 C 0.71914 0.98178 0.67242 0.0
O94 O 0.69828 0.91971 0.69953 0.0
O95 O 0.67204 0.92676 0.75866 0.0
O96 O 0.69513 0.94234 0.51366 0.0
O97 O 0.67066 0.93411 0.6 0.0
Co98 Co 0.17244 0.81435 0.57021 0.0
O99 O 0.20239 0.8263 0.52348 0.0
O100 O 0.1808 0.84484 0.52726 0.0
C101 C 0.15621 0.7767 0.52403 0.0
O102 O 0.14014 0.80613 0.61447 0.0
Co103 Co 0.1608 0.77407 0.67545 0.0
O104 O 0.12949 0.77357 0.68006 0.0
C105 C 0.19533 0.82486 0.7158 0.0
C106 C 0.19964 0.84412 0.50441 0.0
C107 C 0.12542 0.78953 0.65456 0.0
O108 O 0.19065 0.83157 0.6581 0.0
O109 O 0.18681 0.80262 0.73053 0.0
O110 O 0.1549 0.79347 0.49075 0.0
O111 O 0.16898 0.78358 0.58132 0.0
Co112 Co 0.3126 0.40215 0.547 0.0
O113 O 0.30036 0.4211 0.50564 0.0
O114 O 0.28201 0.38098 0.4979 0.0
C115 C 0.35097 0.42445 0.51084 0.0
O116 O 0.32065 0.37705 0.58418 0.0
Co117 Co 0.35143 0.42756 0.66534 0.0
O118 O 0.35036 0.39603 0.66675 0.0
C119 C 0.30012 0.40921 0.69474 0.0
C120 C 0.28209 0.40085 0.48262 0.0
C121 C 0.33554 0.37725 0.63082 0.0
O122 O 0.29455 0.40003 0.63305 0.0
O123 O 0.32214 0.42272 0.71684 0.0
O124 O 0.33402 0.40795 0.47056 0.0
O125 O 0.34372 0.42881 0.56866 0.0
Co126 Co 0.72708 0.82576 0.08982 0.0
O127 O 0.70786 0.83858 0.05297 0.0
O128 O 0.74812 0.85807 0.0565 0.0
C129 C 0.70619 0.78966 0.03372 0.0
O130 O 0.75228 0.81695 0.12409 0.0
Co131 Co 0.70051 0.78072 0.18262 0.0
O132 O 0.732 0.78155 0.17887 0.0
C133 C 0.716 0.82956 0.24047 0.0
C134 C 0.72801 0.85756 0.03777 0.0
C135 C 0.75141 0.79897 0.15606 0.0
O136 O 0.72681 0.83906 0.18448 0.0
O137 O 0.7029 0.80669 0.24768 0.0
O138 O 0.72306 0.80808 0.00291 0.0
O139 O 0.70091 0.79422 0.09414 0.0
Co140 Co 0.29352 0.95154 0.1131 0.0
O141 O 0.26406 0.93984 0.16201 0.0
O142 O 0.28549 0.92117 0.15655 0.0
C143 C 0.31046 0.98937 0.15796 0.0
O144 O 0.32548 0.95983 0.06664 0.0
Co145 Co 0.30321 0.99102 0.00669 0.0
O146 O 0.33362 0.99023 0.99429 0.0
C147 C 0.26821 0.94021 0.97044 0.0
C148 C 0.26687 0.92202 0.18063 0.0
C149 C 0.33879 0.97528 0.02177 0.0
O150 O 0.27438 0.93391 0.02655 0.0
O151 O 0.27598 0.96231 0.9557 0.0
O152 O 0.31188 0.97266 0.19126 0.0
O153 O 0.29692 0.98226 0.10208 0.0
Co154 Co 0.17463 0.39435 0.03838 0.0
O155 O 0.2058 0.41523 0.00151 0.0
O156 O 0.18631 0.37517 0.99069 0.0
C157 C 0.15663 0.41492 1.00008 0.0
O158 O 0.1418 0.36762 0.07115 0.0
Co159 Co 0.15839 0.41757 0.15387 0.0
O160 O 0.12903 0.38509 0.15015 0.0
C161 C 0.19416 0.40259 0.18792 0.0
C162 C 0.2054 0.39588 0.97815 0.0
C163 C 0.12632 0.36678 0.11483 0.0
O164 O 0.19082 0.39298 0.12698 0.0
O165 O 0.18459 0.41521 0.20721 0.0
O166 O 0.15845 0.39952 0.95952 0.0
O167 O 0.16809 0.41937 0.05926 0.0
Co168 Co 0.39097 0.28238 0.96904 0.0
O169 O 0.40348 0.27035 0.0386 0.0
O170 O 0.36449 0.25362 0.00889 0.0
C171 C 0.412 0.32092 0.00766 0.0
O172 O 0.3725 0.29157 0.89922 0.0
Co173 Co 0.42899 0.31828 0.86904 0.0
O174 O 0.40051 0.31958 0.83108 0.0
C175 C 0.40941 0.26614 0.84603 0.0
C176 C 0.38138 0.25378 0.04887 0.0
C177 C 0.37861 0.30633 0.84897 0.0
O178 O 0.39488 0.26189 0.89585 0.0
O179 O 0.426 0.28745 0.83126 0.0
O180 O 0.39149 0.30609 0.03447 0.0
O181 O 0.42045 0.31157 0.96432 0.0
Co182 Co 0.83661 0.14536 0.87332 0.0
O183 O 0.86491 0.15628 0.81914 0.0
O184 O 0.84316 0.17461 0.82715 0.0
C185 C 0.81869 0.10658 0.83737 0.0
O186 O 0.80561 0.13797 0.92368 0.0
Co187 Co 0.82992 0.10953 0.98895 0.0
O188 O 0.79954 0.11019 0.00333 0.0
C189 C 0.8637 0.1613 0.01402 0.0
C190 C 0.86147 0.17378 0.80066 0.0
C191 C 0.79341 0.12394 0.97262 0.0
O192 O 0.85722 0.1653 0.95485 0.0
O193 O 0.85611 0.14002 0.03628 0.0
O194 O 0.81695 0.12242 0.80034 0.0
O195 O 0.83353 0.11508 0.89069 0.0
Co196 Co 0.96086 0.70705 0.91584 0.0
O197 O 0.9358 0.69454 0.98195 0.0
O198 O 0.95604 0.7329 0.95378 0.0
C199 C 0.98071 0.68903 0.96056 0.0
O200 O 0.98857 0.72573 0.84928 0.0
Co201 Co 0.96214 0.66911 0.81762 0.0
O202 O 0.99094 0.69764 0.78238 0.0
C203 C 0.9285 0.68671 0.78409 0.0
C204 C 0.93974 0.71631 0.99188 0.0
C205 C -0.00192 0.71959 0.80005 0.0
O206 O 0.93643 0.70043 0.83887 0.0
O207 O 0.93526 0.67144 0.76796 0.0
O208 O 0.98431 0.70961 0.98528 0.0
O209 O 0.96335 0.67861 0.91384 0.0
Co210 Co 0.37483 0.14623 0.43808 0.0
O211 O 0.35964 0.1587 0.37787 0.0
O212 O 0.39898 0.17755 0.40551 0.0
C213 C 0.35698 0.10919 0.3879 0.0
O214 O 0.39633 0.13776 0.49792 0.0
Co215 Co 0.3408 0.10475 0.53276 0.0
O216 O 0.37163 0.10692 0.56487 0.0
C217 C 0.35697 0.15497 0.57552 0.0
C218 C 0.38108 0.17704 0.36972 0.0
C219 C 0.39267 0.12245 0.54531 0.0
O220 O 0.36951 0.16207 0.52095 0.0
O221 O 0.34261 0.13267 0.58775 0.0
O222 O 0.37619 0.12686 0.36229 0.0
O223 O 0.34753 0.11495 0.43833 0.0
Co224 Co 0.97381 0.27955 0.43064 0.0
O225 O 0.94935 0.27004 0.49746 0.0
O226 O 0.96904 0.25035 0.47523 0.0
C227 C 0.99375 0.31858 0.46493 0.0
O228 O 0.00108 0.2858 0.36456 0.0
Co229 Co 0.97459 0.31464 0.32175 0.0
O230 O 0.00353 0.31375 0.29024 0.0
C231 C 0.93889 0.26313 0.30449 0.0
C232 C 0.95271 0.25214 0.51078 0.0
C233 C 0.01076 0.29971 0.31316 0.0
O234 O 0.94842 0.25911 0.35799 0.0
O235 O 0.94562 0.28437 0.28338 0.0
O236 O -0.00198 0.30309 0.49544 0.0
O237 O 0.97588 0.30978 0.41983 0.0
Co238 Co 0.84256 0.72898 0.38604 0.0
O239 O 0.87129 0.7422 0.33254 0.0
O240 O 0.84559 0.70306 0.34171 0.0
C241 C 0.82966 0.75357 0.34388 0.0
O242 O 0.81044 0.70912 0.43514 0.0
Co243 Co 0.8381 0.76267 0.49513 0.0
O244 O 0.80643 0.73377 0.5124 0.0
C245 C 0.86768 0.74019 0.52932 0.0
C246 C 0.86487 0.72017 0.31373 0.0
C247 C 0.79888 0.71308 0.4831 0.0
O248 O 0.86123 0.7284 0.47092 0.0
O249 O 0.86201 0.75623 0.54623 0.0
O250 O 0.82523 0.73395 0.3103 0.0
O251 O 0.84352 0.75892 0.39891 0.0
H252 H 0.07791 0.54303 0.83211 0.0
H253 H 0.0159 0.49402 0.94829 0.0
H254 H 0.02719 0.52534 0.03853 0.0
H255 H 0.05551 0.56572 0.08676 0.0
H256 H 0.11773 0.6148 0.97154 0.0
H257 H 0.10551 0.58407 0.87864 0.0
C258 C 0.06663 0.53921 0.87669 0.0
C259 C 0.04609 0.51609 0.88334 0.0
C260 C 0.07345 0.55716 0.929 0.0
C261 C 0.03181 0.51158 0.94173 0.0
C262 C 0.03833 0.52945 0.99358 0.0
C263 C 0.06656 0.56974 0.0416 0.0
C264 C 0.0877 0.5925 0.03661 0.0
C265 C 0.05933 0.55212 0.98828 0.0
C266 C 0.10148 0.59741 0.97704 0.0
C267 C 0.09445 0.57987 0.92379 0.0
H268 H 0.61746 0.57436 0.92343 0.0
H269 H 0.56054 0.58896 0.86095 0.0
H270 H 0.53621 0.56621 0.95724 0.0
H271 H 0.53119 0.54246 0.06092 0.0
H272 H 0.58812 0.52785 0.12307 0.0
H273 H 0.61242 0.55059 0.02677 0.0
C274 C 0.59957 0.5722 0.93033 0.0
C275 C 0.59076 0.58316 0.88484 0.0
C276 C 0.58582 0.55948 0.98683 0.0
C277 C 0.56771 0.58059 0.89516 0.0
C278 C 0.55382 0.56771 0.95051 0.0
C279 C 0.54907 0.54462 0.05388 0.0
C280 C 0.55791 0.53366 0.0993 0.0
C281 C 0.5628 0.55732 0.99729 0.0
C282 C 0.58094 0.5362 0.08885 0.0
C283 C 0.59481 0.54908 0.03352 0.0
H284 H 0.59259 0.03188 0.98984 0.0
H285 H 0.57728 0.06124 0.17226 0.0
H286 H 0.55418 0.07471 0.10193 0.0
H287 H 0.53789 0.07778 0.98855 0.0
H288 H 0.55361 0.04854 0.80649 0.0
H289 H 0.57717 0.03574 0.87671 0.0
C290 C 0.58403 0.04104 0.01434 0.0
C291 C 0.58654 0.04536 0.08627 0.0
C292 C 0.57103 0.04903 0.97356 0.0
C293 C 0.57562 0.0576 0.11696 0.0
C294 C 0.56244 0.06539 0.07678 0.0
C295 C 0.54673 0.06889 0.96414 0.0
C296 C 0.54392 0.06415 0.89233 0.0
C297 C 0.56009 0.06127 0.00496 0.0
C298 C 0.55535 0.05239 0.86169 0.0
C299 C 0.5688 0.04496 0.90181 0.0
H300 H 0.57193 0.02029 0.41259 0.0
H301 H 0.61425 0.09796 0.39738 0.0
H302 H 0.59057 0.1028 0.48838 0.0
H303 H 0.5578 0.08484 0.57094 0.0
H304 H 0.5157 0.00713 0.58588 0.0
H305 H 0.53965 0.00241 0.49581 0.0
C306 C 0.57601 0.03833 0.42892 0.0
C307 C 0.59477 0.05878 0.39804 0.0
C308 C 0.56246 0.04091 0.48115 0.0
C309 C 0.59987 0.08197 0.42021 0.0
C310 C 0.58636 0.08471 0.47221 0.0
C311 C 0.55386 0.06683 0.5547 0.0
C312 C 0.53495 0.04632 0.58499 0.0
C313 C 0.56762 0.0643 0.50291 0.0
C314 C 0.53014 0.02317 0.56341 0.0
C315 C 0.54379 0.02048 0.51188 0.0
H316 H 0.1053 0.58631 0.38682 0.0
H317 H 0.02838 0.55166 0.33625 0.0
H318 H 0.0199 0.52562 0.4353 0.0
H319 H 0.03434 0.51371 0.5373 0.0
H320 H 0.11124 0.54892 0.58885 0.0
H321 H 0.11974 0.57434 0.48842 0.0
C322 C 0.08666 0.57287 0.39683 0.0
C323 C 0.06746 0.57079 0.35401 0.0
C324 C 0.08194 0.55847 0.45453 0.0
C325 C 0.04344 0.55348 0.36819 0.0
C326 C 0.0386 0.53874 0.42503 0.0
C327 C 0.05299 0.52705 0.52696 0.0
C328 C 0.07217 0.52953 0.57064 0.0
C329 C 0.0577 0.54132 0.46893 0.0
C330 C 0.09618 0.54679 0.55625 0.0
C331 C 0.10104 0.56119 0.49866 0.0
H332 H 0.5995 0.57105 0.62069 0.0
H333 H 0.5865 0.6198 0.49872 0.0
H334 H 0.56699 0.58853 0.40733 0.0
H335 H 0.55375 0.54759 0.36225 0.0
H336 H 0.56663 0.49879 0.4844 0.0
H337 H 0.58653 0.5302 0.57525 0.0
C338 C 0.59221 0.57483 0.57446 0.0
C339 C 0.59438 0.59774 0.56682 0.0
C340 C 0.58133 0.55692 0.52177 0.0
C341 C 0.58505 0.60233 0.5061 0.0
C342 C 0.57398 0.5845 0.45366 0.0
C343 C 0.56116 0.54385 0.40831 0.0
C344 C 0.55876 0.52085 0.41627 0.0
C345 C 0.57219 0.56181 0.4608 0.0
C346 C 0.56826 0.51632 0.47677 0.0
C347 C 0.57952 0.53423 0.52893 0.0
H348 H 0.69049 0.81783 0.35799 0.0
H349 H 0.74906 0.87785 0.2572 0.0
H350 H 0.75354 0.90492 0.35412 0.0
H351 H 0.73827 0.91223 0.46207 0.0
H352 H 0.67733 0.85298 0.5568 0.0
H353 H 0.6768 0.82468 0.46874 0.0
C354 C 0.70436 0.83679 0.35731 0.0
C355 C 0.7192 0.84583 0.30001 0.0
C356 C 0.70656 0.85232 0.41252 0.0
C357 C 0.73713 0.87046 0.30019 0.0
C358 C 0.73982 0.88594 0.35576 0.0
C359 C 0.72536 0.89301 0.46434 0.0
C360 C 0.70799 0.88452 0.51566 0.0
C361 C 0.72434 0.87716 0.41157 0.0
C362 C 0.69093 0.85974 0.51762 0.0
C363 C 0.6905 0.84366 0.46708 0.0
H364 H 0.18863 0.86641 0.40305 0.0
H365 H 0.24688 0.8575 0.48804 0.0
H366 H 0.27242 0.87897 0.39203 0.0
H367 H 0.27804 0.89981 0.28215 0.0
H368 H 0.21969 0.90857 0.1972 0.0
H369 H 0.19422 0.88717 0.2933 0.0
C370 C 0.20708 0.86963 0.40111 0.0
C371 C 0.21598 0.86068 0.45283 0.0
C372 C 0.22145 0.88141 0.34463 0.0
C373 C 0.23972 0.86444 0.44895 0.0
C374 C 0.25426 0.87651 0.39375 0.0
C375 C 0.25958 0.89656 0.28414 0.0
C376 C 0.25063 0.90547 0.23239 0.0
C377 C 0.24521 0.88477 0.34066 0.0
C378 C 0.22689 0.90168 0.23632 0.0
C379 C 0.21238 0.88964 0.29155 0.0
H380 H 0.25854 0.37275 0.36869 0.0
H381 H 0.26366 0.43051 0.50024 0.0
H382 H 0.23589 0.4355 0.42213 0.0
H383 H 0.21245 0.42536 0.31293 0.0
H384 H 0.20946 0.36949 0.17656 0.0
H385 H 0.23422 0.36202 0.25945 0.0
C386 C 0.25315 0.38607 0.38057 0.0
C387 C 0.26287 0.40114 0.43995 0.0
C388 C 0.23791 0.38947 0.33404 0.0
C389 C 0.25626 0.41871 0.45458 0.0
C390 C 0.2405 0.42164 0.4099 0.0
C391 C 0.21711 0.41148 0.30137 0.0
C392 C 0.20918 0.39813 0.23846 0.0
C393 C 0.23162 0.40747 0.34878 0.0
C394 C 0.21549 0.38023 0.22435 0.0
C395 C 0.22957 0.37584 0.27187 0.0
H396 H 0.20344 0.37076 0.86093 0.0
H397 H 0.25299 0.42714 0.00465 0.0
H398 H 0.28706 0.43578 0.9312 0.0
H399 H 0.30236 0.42914 0.82259 0.0
H400 H 0.25233 0.37458 0.67456 0.0
H401 H 0.21901 0.36362 0.75246 0.0
C402 C 0.2218 0.38457 0.87651 0.0
C403 C 0.22586 0.39816 0.93811 0.0
C404 C 0.24118 0.39009 0.83263 0.0
C405 C 0.24956 0.41641 0.95736 0.0
C406 C 0.269 0.42144 0.91528 0.0
C407 C 0.2842 0.41481 0.80738 0.0
C408 C 0.27996 0.40286 0.74256 0.0
C409 C 0.26496 0.40873 0.8521 0.0
C410 C 0.25621 0.38432 0.72385 0.0
C411 C 0.23708 0.3779 0.76854 0.0
H412 H 0.69115 0.86673 0.02304 0.0
H413 H 0.76248 0.88781 0.94948 0.0
H414 H 0.75617 0.90949 0.85535 0.0
H415 H 0.72847 0.91839 0.78726 0.0
H416 H 0.65721 0.89729 0.86205 0.0
H417 H 0.66532 0.8794 0.96249 0.0
C418 C 0.70551 0.87647 0.98715 0.0
C419 C 0.72716 0.87552 0.99263 0.0
C420 C 0.70154 0.88839 0.93273 0.0
C421 C 0.74572 0.88839 0.94642 0.0
C422 C 0.74198 0.90051 0.89216 0.0
C423 C 0.71471 0.90985 0.82556 0.0
C424 C 0.69205 0.90867 0.81655 0.0
C425 C 0.71962 0.89989 0.88354 0.0
C426 C 0.67466 0.89818 0.86748 0.0
C427 C 0.67931 0.888 0.92491 0.0
H428 H 0.25441 0.89242 0.97273 0.0
H429 H 0.24788 0.94496 0.85 0.0
H430 H 0.22539 0.91398 0.75989 0.0
H431 H 0.20827 0.87238 0.71517 0.0
H432 H 0.21471 0.81976 0.83771 0.0
H433 H 0.23684 0.85064 0.92853 0.0
C434 C 0.24793 0.89712 0.92657 0.0
C435 C 0.25288 0.92104 0.91829 0.0
C436 C 0.23524 0.87931 0.8746 0.0
C437 C 0.24439 0.92673 0.85785 0.0
C438 C 0.23158 0.90905 0.80613 0.0
C439 C 0.21464 0.86763 0.76146 0.0
C440 C 0.20993 0.84377 0.76933 0.0
C441 C 0.22712 0.88536 0.81372 0.0
C442 C 0.21812 0.83797 0.83013 0.0
C443 C 0.23072 0.8556 0.88221 0.0
H444 H 0.36884 0.22153 0.83536 0.0
H445 H 0.43872 0.26576 0.74547 0.0
H446 H 0.42787 0.23554 0.65244 0.0
H447 H 0.39816 0.19786 0.59391 0.0
H448 H 0.32847 0.15277 0.68314 0.0
H449 H 0.33957 0.18244 0.77904 0.0
C450 C 0.38189 0.2244 0.79613 0.0
C451 C 0.40454 0.24598 0.79733 0.0
C452 C 0.37538 0.20713 0.742 0.0
C453 C 0.42114 0.24939 0.74577 0.0
C454 C 0.4149 0.2322 0.69226 0.0
C455 C 0.3852 0.19459 0.63378 0.0
C456 C 0.36232 0.17337 0.63076 0.0
C457 C 0.39191 0.21131 0.68914 0.0
C458 C 0.34607 0.16913 0.68393 0.0
C459 C 0.35248 0.18599 0.73889 0.0
H460 H 0.89732 0.1724 0.73037 0.0
H461 H 0.86102 0.21397 0.75612 0.0
H462 H 0.88645 0.24181 0.66891 0.0
H463 H 0.91817 0.25379 0.58507 0.0
H464 H 0.95444 0.21233 0.55669 0.0
H465 H 0.92958 0.18471 0.6459 0.0
C466 C 0.89502 0.18761 0.71716 0.0
C467 C 0.8773 0.19116 0.74973 0.0
C468 C 0.90955 0.20339 0.66662 0.0
C469 C 0.8745 0.21087 0.73184 0.0
C470 C 0.88901 0.22675 0.68198 0.0
C471 C 0.92075 0.23874 0.59819 0.0
C472 C 0.93815 0.23509 0.56421 0.0
C473 C 0.90646 0.22308 0.64894 0.0
C474 C 0.94117 0.21549 0.58203 0.0
C475 C 0.92698 0.19975 0.63299 0.0
H476 H 0.91967 0.72418 0.78678 0.0
H477 H 0.90465 0.6604 0.6654 0.0
H478 H 0.88514 0.67172 0.57473 0.0
H479 H 0.87365 0.70055 0.52841 0.0
H480 H 0.8899 0.76466 0.65029 0.0
H481 H 0.90802 0.75246 0.74173 0.0
C482 C 0.91187 0.71248 0.74101 0.0
C483 C 0.9136 0.69138 0.73326 0.0
C484 C 0.90128 0.71939 0.6885 0.0
C485 C 0.90353 0.67669 0.67303 0.0
C486 C 0.89252 0.68325 0.6209 0.0
C487 C 0.88136 0.71199 0.57466 0.0
C488 C 0.88049 0.7336 0.58203 0.0
C489 C 0.89163 0.70477 0.62763 0.0
C490 C 0.89033 0.74799 0.64286 0.0
C491 C 0.90062 0.74098 0.69546 0.0
H492 H 0.89927 0.75318 0.23247 0.0
H493 H 0.85856 0.67648 0.26754 0.0
H494 H 0.87773 0.66877 0.1694 0.0
H495 H 0.90555 0.68373 0.07371 0.0
H496 H 0.94606 0.76031 0.0371 0.0
H497 H 0.92704 0.76817 0.13571 0.0
C498 C 0.89471 0.73476 0.21909 0.0
C499 C 0.87761 0.7154 0.25766 0.0
C500 C 0.90551 0.73047 0.162 0.0
C501 C 0.87173 0.69168 0.23903 0.0
C502 C 0.88261 0.68727 0.18275 0.0
C503 C 0.91021 0.70219 0.08691 0.0
C504 C 0.92722 0.72145 0.0479 0.0
C505 C 0.89939 0.70651 0.14374 0.0
C506 C 0.93297 0.74519 0.06596 0.0
C507 C 0.92219 0.74966 0.12254 0.0
H508 H 0.34695 0.17635 0.28155 0.0
H509 H 0.4235 0.21747 0.33797 0.0
H510 H 0.42992 0.24465 0.24325 0.0
H511 H 0.41418 0.25572 0.14306 0.0
H512 H 0.3378 0.2148 0.08474 0.0
H513 H 0.3309 0.1882 0.18201 0.0
C514 C 0.36503 0.19139 0.2736 0.0
C515 C 0.38477 0.19491 0.31687 0.0
C516 C 0.36861 0.20672 0.21851 0.0
C517 C 0.40804 0.21441 0.30561 0.0
C518 C 0.41172 0.22987 0.2513 0.0
C519 C 0.39595 0.24096 0.15126 0.0
C520 C 0.3765 0.23713 0.10633 0.0
C521 C 0.3922 0.22599 0.20708 0.0
C522 C 0.35306 0.21805 0.11832 0.0
C523 C 0.34914 0.20292 0.17397 0.0
H524 H 0.92902 0.26215 0.16767 0.0
H525 H 0.91043 0.21659 0.34416 0.0
H526 H 0.88594 0.18077 0.26942 0.0
H527 H 0.87107 0.16236 0.15335 0.0
H528 H 0.89074 0.20823 0.9771 0.0
H529 H 0.91383 0.24393 0.05249 0.0
C530 C 0.91928 0.24443 0.18999 0.0
C531 C 0.92143 0.24202 0.26128 0.0
C532 C 0.9058 0.22393 0.14666 0.0
C533 C 0.90902 0.2189 0.2893 0.0
C534 C 0.89514 0.19841 0.24661 0.0
C535 C 0.88061 0.18013 0.13137 0.0
C536 C 0.87927 0.18256 0.05968 0.0
C537 C 0.89374 0.20068 0.17505 0.0
C538 C 0.89147 0.2058 0.03214 0.0
C539 C 0.90462 0.22627 0.07518 0.0
H540 H 0.10951 0.66774 0.42643 0.0
H541 H 0.13261 0.70054 0.22914 0.0
H542 H 0.15036 0.74092 0.28511 0.0
H543 H 0.15689 0.7664 0.38943 0.0
H544 H 0.13615 0.73354 0.58746 0.0
H545 H 0.11963 0.69326 0.53187 0.0
C546 C 0.11866 0.68378 0.39586 0.0
C547 C 0.1196 0.6814 0.32391 0.0
C548 C 0.12892 0.70668 0.42841 0.0
C549 C 0.13175 0.70211 0.28465 0.0
C550 C 0.14171 0.72509 0.31656 0.0
C551 C 0.14875 0.75036 0.42023 0.0
C552 C 0.14725 0.75262 0.49201 0.0
C553 C 0.13997 0.72752 0.38818 0.0
C554 C 0.13727 0.73198 0.53203 0.0
C555 C 0.12788 0.70908 0.5003 0.0
H556 H 0.46157 0.46492 0.4552 0.0
H557 H 0.43589 0.46242 0.24588 0.0
H558 H 0.39535 0.45099 0.28713 0.0
H559 H 0.36635 0.43692 0.38156 0.0
H560 H 0.39236 0.44085 0.59136 0.0
H561 H 0.43389 0.45674 0.55142 0.0
C562 C 0.44719 0.4624 0.41889 0.0
C563 C 0.45152 0.46433 0.34764 0.0
C564 C 0.42406 0.45582 0.44307 0.0
C565 C 0.43294 0.46119 0.3009 0.0
C566 C 0.40975 0.45442 0.32448 0.0
C567 C 0.38122 0.4416 0.41855 0.0
C568 C 0.3764 0.43746 0.48915 0.0
C569 C 0.40496 0.45093 0.39519 0.0
C570 C 0.39573 0.44389 0.53685 0.0
C571 C 0.41939 0.45285 0.51394 0.0
H572 H 0.67563 0.94922 0.40241 0.0
H573 H 0.65449 0.96618 0.59655 0.0
H574 H 0.64179 0.99195 0.53766 0.0
H575 H 0.63956 0.01178 0.43257 0.0
H576 H 0.65857 0.99346 0.23713 0.0
H577 H 0.66927 0.96581 0.29486 0.0
C578 C 0.66799 0.95838 0.43162 0.0
C579 C 0.66618 0.95608 0.50375 0.0
C580 C 0.66059 0.97294 0.3973 0.0
C581 C 0.65599 0.9677 0.54105 0.0
C582 C 0.64889 0.98251 0.50745 0.0
C583 C 0.64596 0.00162 0.40264 0.0
C584 C 0.64874 0.00481 0.33108 0.0
C585 C 0.65158 0.98562 0.43593 0.0
C586 C 0.65647 0.99127 0.29234 0.0
C587 C 0.6626 0.97558 0.32537 0.0
H588 H 0.68409 0.07907 0.03005 0.0
H589 H 0.71271 0.09563 0.2399 0.0
H590 H 0.75402 0.12004 0.19815 0.0
H591 H 0.78193 0.12949 0.10187 0.0
H592 H 0.75329 0.11262 0.89215 0.0
H593 H 0.71187 0.09597 0.93349 0.0
C594 C 0.69935 0.08866 0.06653 0.0
C595 C 0.69556 0.0854 0.13783 0.0
C596 C 0.72294 0.10238 0.04201 0.0
C597 C 0.71528 0.09797 0.18487 0.0
C598 C 0.73887 0.11172 0.16092 0.0
C599 C 0.76662 0.12299 0.06528 0.0
C600 C 0.77046 0.12212 0.9942 0.0
C601 C 0.74296 0.11307 0.08964 0.0
C602 C 0.75068 0.11365 0.94696 0.0
C603 C 0.72702 0.10385 0.97073 0.0
H604 H 0.01105 0.70569 0.07179 0.0
H605 H 0.97907 0.6464 0.92117 0.0
H606 H 0.0015 0.62852 0.97578 0.0
H607 H 0.03246 0.63156 0.06254 0.0
H608 H 0.06498 0.69226 0.20806 0.0
H609 H 0.03954 0.70762 0.16026 0.0
C610 C 0.00887 0.6888 0.0507 0.0
C611 C 0.99362 0.67749 0.99206 0.0
C612 C 0.02169 0.6788 0.08214 0.0
C613 C 0.99086 0.65552 0.966 0.0
C614 C 0.00361 0.6453 0.99734 0.0
C615 C 0.03336 0.64776 0.08465 0.0
C616 C 0.05011 0.66067 0.13925 0.0
C617 C 0.01927 0.65693 0.0551 0.0
C618 C 0.05185 0.68198 0.16667 0.0
C619 C 0.03752 0.69084 0.13897 0.0
H620 H 0.45488 0.34167 0.07745 0.0
H621 H 0.3992 0.35521 0.9965 0.0
H622 H 0.42117 0.39667 0.04564 0.0
H623 H 0.45607 0.42866 0.11164 0.0
H624 H 0.51026 0.41439 0.20116 0.0
H625 H 0.4888 0.3732 0.14987 0.0
C626 C 0.44786 0.35394 0.07016 0.0
C627 C 0.42597 0.34602 0.03253 0.0
C628 C 0.46007 0.37725 0.1008 0.0
C629 C 0.41633 0.36141 0.02462 0.0
C630 C 0.42877 0.38492 0.05292 0.0
C631 C 0.4631 0.41646 0.12009 0.0
C632 C 0.4847 0.42438 0.15942 0.0
C633 C 0.45059 0.39296 0.09123 0.0
C634 C 0.49355 0.40847 0.17113 0.0
C635 C 0.48141 0.38508 0.14145 0.0
H636 H 0.97133 0.34032 0.52366 0.0
H637 H 0.04161 0.35122 0.4705 0.0
H638 H 0.06147 0.39141 0.52786 0.0
H639 H 0.05866 0.4228 0.59409 0.0
H640 H 0.98883 0.41125 0.6556 0.0
H641 H 0.96871 0.37143 0.5954 0.0
C642 C 0.99095 0.35181 0.52383 0.0
C643 C 0.00515 0.34349 0.49175 0.0
C644 C 0.00216 0.37432 0.5594 0.0
C645 C 0.03053 0.35778 0.49394 0.0
C646 C 0.0418 0.38054 0.52709 0.0
C647 C 0.03902 0.41149 0.59455 0.0
C648 C 0.02513 0.41981 0.62862 0.0
C649 C 0.02779 0.38886 0.56033 0.0
C650 C -0.0002 0.40501 0.62988 0.0
C651 C 0.98834 0.38243 0.59501 0.0
H652 H 0.68922 0.64829 0.54312 0.0
H653 H 0.71796 0.66591 0.75264 0.0
H654 H 0.75942 0.68312 0.71113 0.0
H655 H 0.78711 0.70008 0.61426 0.0
H656 H 0.7584 0.68266 0.40462 0.0
H657 H 0.71715 0.65799 0.44672 0.0
C658 C 0.70457 0.65506 0.57965 0.0
C659 C 0.70072 0.65593 0.65072 0.0
C660 C 0.72825 0.6653 0.55516 0.0
C661 C 0.72057 0.66484 0.69785 0.0
C662 C 0.74425 0.67495 0.67398 0.0
C663 C 0.77184 0.69025 0.57794 0.0
C664 C 0.77557 0.69328 0.50656 0.0
C665 C 0.74829 0.67634 0.60266 0.0
C666 C 0.75586 0.68047 0.4597 0.0
C667 C 0.7323 0.66657 0.48385 0.0
H668 H 0.42862 0.11775 0.48713 0.0
H669 H 0.40174 0.12543 0.68277 0.0
H670 H 0.4298 0.11579 0.74392 0.0
H671 H 0.45732 0.09884 0.74028 0.0
H672 H 0.48082 0.08728 0.54321 0.0
H673 H 0.45926 0.10491 0.4843 0.0
C674 C 0.42954 0.11802 0.54316 0.0
C675 C 0.41333 0.1223 0.5806 0.0
C676 C 0.44492 0.11136 0.57773 0.0
C677 C 0.41419 0.12217 0.65315 0.0
C678 C 0.43011 0.11653 0.68807 0.0
C679 C 0.45816 0.10084 0.68474 0.0
C680 C 0.47046 0.09178 0.64598 0.0
C681 C 0.44488 0.11014 0.65081 0.0
C682 C 0.47126 0.09407 0.5739 0.0
C683 C 0.45891 0.10409 0.54014 0.0
H684 H 0.34908 0.96724 0.89357 0.0
H685 H 0.37999 0.9894 0.09999 0.0
H686 H 0.42102 0.00762 0.05492 0.0
H687 H 0.44718 0.0246 0.95509 0.0
H688 H 0.41627 0.00312 0.74833 0.0
H689 H 0.37607 0.97683 0.79482 0.0
C690 C 0.36486 0.97513 0.92877 0.0
C691 C 0.36168 0.97702 0.9999 0.0
C692 C 0.38828 0.98611 0.90212 0.0
C693 C 0.38208 0.98748 0.04524 0.0
C694 C 0.40551 -0.00179 0.01927 0.0
C695 C 0.43172 0.01355 0.92037 0.0
C696 C 0.43446 0.01596 0.84848 0.0
C697 C 0.40874 -0.00123 0.94759 0.0
C698 C 0.41451 0.0015 0.80377 0.0
C699 C 0.39153 0.98665 0.83042 0.0
H700 H 0.08082 0.44897 0.9402 0.0
H701 H 0.1101 0.45713 0.73724 0.0
H702 H 0.13959 0.4459 0.78032 0.0
H703 H 0.15438 0.43028 0.87349 0.0
H704 H 0.12713 0.42471 0.07827 0.0
H705 H 0.09946 0.4386 0.0371 0.0
C706 C 0.09393 0.44859 0.90581 0.0
C707 C 0.09326 0.45358 0.83564 0.0
C708 C 0.11095 0.44246 0.93119 0.0
C709 C 0.11041 0.4534 0.79148 0.0
C710 C 0.12712 0.44684 0.81599 0.0
C711 C 0.14255 0.43242 0.90912 0.0
C712 C 0.14243 0.42628 0.97843 0.0
C713 C 0.12715 0.4408 0.88533 0.0
C714 C 0.12742 0.42938 0.02468 0.0
C715 C 0.11158 0.43719 0.00107 0.0
H716 H 0.6552 0.67986 0.94228 0.0
H717 H 0.66603 0.71003 0.74005 0.0
H718 H 0.68537 0.75106 0.7929 0.0
H719 H 0.6997 0.77799 0.89728 0.0
H720 H 0.68576 0.74692 0.09876 0.0
H721 H 0.667 0.70627 0.04549 0.0
C722 C 0.66182 0.69545 0.90978 0.0
C723 C 0.65954 0.69218 0.83762 0.0
C724 C 0.67229 0.71863 0.94042 0.0
C725 C 0.66768 0.71231 0.79583 0.0
C726 C 0.67875 0.73566 0.826 0.0
C727 C 0.69253 0.76226 0.92931 0.0
C728 C 0.69421 0.76526 0.00166 0.0
C729 C 0.68126 0.73899 0.89827 0.0
C730 C 0.6846 0.74491 0.04295 0.0
C731 C 0.67394 0.72174 0.01256 0.0
H732 H 0.7371 -0.00176 0.80048 0.0
H733 H 0.75012 0.01563 0.58604 0.0
H734 H 0.7844 0.05576 0.61925 0.0
H735 H 0.80762 0.08684 0.70969 0.0
H736 H 0.79587 0.06908 0.92429 0.0
H737 H 0.76423 0.02764 0.89103 0.0
C738 C 0.74772 0.01083 0.76132 0.0
C739 C 0.74119 0.00452 0.69121 0.0
C740 C 0.76745 0.03352 0.78089 0.0
C741 C 0.755 0.02046 0.64027 0.0
C742 C 0.77446 0.04328 0.65928 0.0
C743 C 0.7984 0.07369 0.74901 0.0
C744 C 0.80367 0.08078 0.81914 0.0
C745 C 0.78043 0.05014 0.72941 0.0
C746 C 0.792 0.06379 0.87001 0.0
C747 C 0.77384 0.04026 0.85098 0.0
H748 H 0.08096 0.76671 0.59185 0.0
H749 H 0.12041 0.80886 0.77377 0.0
H750 H 0.08246 0.79375 0.83523 0.0
H751 H 0.03931 0.76153 0.84412 0.0
H752 H 0.00082 0.7183 0.662 0.0
H753 H 0.03662 0.74098 0.59368 0.0
C754 C 0.08102 0.77349 0.64371 0.0
C755 C 0.10327 0.78903 0.67807 0.0
C756 C 0.05921 0.76396 0.67945 0.0
C757 C 0.10333 0.7972 0.74601 0.0
C758 C 0.08166 0.78825 0.78151 0.0
C759 C 0.0386 0.75772 0.78906 0.0
C760 C 0.01764 0.738 0.75842 0.0
C761 C 0.05962 0.77056 0.74998 0.0
C762 C 0.01694 0.73317 0.68696 0.0
C763 C 0.03742 0.7461 0.64776 0.0
H764 H 0.31817 0.35218 0.74527 0.0
H765 H 0.35438 0.35402 0.558 0.0
H766 H 0.36733 0.32692 0.60717 0.0
H767 H 0.37562 0.31064 0.71179 0.0
H768 H 0.34114 0.31049 0.90131 0.0
H769 H 0.31959 0.32845 0.8428 0.0
C770 C 0.328 0.34572 0.71439 0.0
C771 C 0.33531 0.35483 0.64823 0.0
C772 C 0.336 0.33086 0.74401 0.0
C773 C 0.34834 0.34686 0.60862 0.0
C774 C 0.35598 0.33166 0.63715 0.0
C775 C 0.36278 0.31387 0.73961 0.0
C776 C 0.36019 0.30968 0.81087 0.0
C777 C 0.35103 0.3247 0.70604 0.0
C778 C 0.34338 0.3136 0.84647 0.0
C779 C 0.33128 0.32409 0.81314 0.0
H780 H 0.01903 0.3018 0.17705 0.0
H781 H 0.05104 0.30248 0.376 0.0
H782 H 0.09099 0.31872 0.32477 0.0
H783 H 0.11741 0.34148 0.22991 0.0
H784 H 0.08544 0.34286 0.03312 0.0
H785 H 0.04473 0.31648 0.07596 0.0
C786 C 0.03465 0.30474 0.20861 0.0
C787 C 0.0323 0.30135 0.28028 0.0
C788 C 0.05754 0.31466 0.17907 0.0
C789 C 0.05247 0.30495 0.32077 0.0
C790 C 0.07533 0.31448 0.29154 0.0
C791 C 0.10151 0.33496 0.19558 0.0
C792 C 0.10423 0.34387 0.12847 0.0
C793 C 0.07824 0.32064 0.22165 0.0
C794 C 0.08368 0.33584 0.0845 0.0
C795 C 0.06043 0.32109 0.10945 0.0
H796 H 0.81936 0.75745 0.21105 0.0
H797 H 0.81955 0.78446 0.41694 0.0
H798 H 0.79899 0.80567 0.37265 0.0
H799 H 0.77564 0.81105 0.27798 0.0
H800 H 0.77477 0.78309 0.07324 0.0
H801 H 0.80166 0.76823 0.11372 0.0
C802 C 0.81516 0.76825 0.24606 0.0
C803 C 0.82043 0.76907 0.31726 0.0
C804 C 0.80345 0.78031 0.22018 0.0
C805 C 0.81543 0.78347 0.36202 0.0
C806 C 0.80368 0.79553 0.3367 0.0
C807 C 0.78226 0.80261 0.24189 0.0
C808 C 0.7737 0.79839 0.17272 0.0
C809 C 0.79695 0.79344 0.26623 0.0
C810 C 0.78168 0.78693 0.12631 0.0
C811 C 0.79669 0.77812 0.14976 0.0
H812 H 0.31067 -2e-05 0.29242 0.0
H813 H 0.33068 0.0324 0.09363 0.0
H814 H 0.34715 0.0728 0.14859 0.0
H815 H 0.35615 0.09848 0.25337 0.0
H816 H 0.33297 0.06589 0.45086 0.0
H817 H 0.31704 0.02552 0.39617 0.0
C818 C 0.31869 0.01596 0.26132 0.0
C819 C 0.31985 0.01355 0.1895 0.0
C820 C 0.32732 0.03881 0.29295 0.0
C821 C 0.32975 0.03409 0.1491 0.0
C822 C 0.33913 0.05705 0.18047 0.0
C823 C 0.34753 0.08248 0.28427 0.0
C824 C 0.34579 0.08488 0.35583 0.0
C825 C 0.33805 0.05957 0.25231 0.0
C826 C 0.33433 0.06423 0.39558 0.0
C827 C 0.32539 0.04129 0.36442 0.0
loop_
_geom_bond_atom_site_label_1
_geom_bond_atom_site_label_2
_geom_bond_distance
_geom_bond_site_symmetry_2
_ccdc_geom_bond_type
Co0 O1 2.216 . S
Co0 O2 2.091 . S
Co0 O4 2.004 . S
Co0 O10 2.021 . S
Co0 O12 2.137 . S
Co0 O13 2.244 . S
O1 Co0 2.216 . S
O1 C8 1.247 . S
O2 Co0 2.091 . S
O2 C8 1.261 . S
C3 O12 1.247 . S
C3 O13 1.272 . S
O4 Co0 2.004 . S
O4 C9 1.259 . S
Co5 O6 2.061 . S
Co5 O11 2.052 . S
Co5 O13 2.135 . S
O6 Co5 2.061 . S
O6 C9 1.235 . S
C7 O10 1.238 . S
C7 O11 1.241 . S
C8 O1 1.247 . S
C8 O2 1.261 . S
C9 O4 1.259 . S
C9 O6 1.235 . S
O10 Co0 2.021 . S
O10 C7 1.238 . S
O11 Co5 2.052 . S
O11 C7 1.241 . S
O12 Co0 2.137 . S
O12 C3 1.247 . S
O13 Co0 2.244 . S
O13 C3 1.272 . S
O13 Co5 2.135 . S
Co14 O15 2.216 . S
Co14 O16 2.091 . S
Co14 O18 2.004 . S
Co14 O24 2.021 . S
Co14 O26 2.137 . S
Co14 O27 2.244 . S
O15 Co14 2.216 . S
O15 C22 1.247 . S
O16 Co14 2.091 . S
O16 C22 1.261 . S
C17 O26 1.247 . S
C17 O27 1.272 . S
O18 Co14 2.004 . S
O18 C23 1.259 . S
Co19 O20 2.061 . S
Co19 O25 2.052 . S
Co19 O27 2.135 . S
O20 Co19 2.061 . S
O20 C23 1.235 . S
C21 O24 1.238 . S
C21 O25 1.241 . S
C22 O15 1.247 . S
C22 O16 1.261 . S
C23 O18 1.259 . S
C23 O20 1.235 . S
O24 Co14 2.021 . S
O24 C21 1.238 . S
O25 Co19 2.052 . S
O25 C21 1.241 . S
O26 Co14 2.137 . S
O26 C17 1.247 . S
O27 Co14 2.244 . S
O27 C17 1.272 . S
O27 Co19 2.135 . S
Co28 O29 2.216 . S
Co28 O30 2.091 . S
Co28 O32 2.004 . S
Co28 O38 2.021 . S
Co28 O40 2.137 . S
Co28 O41 2.244 . S
O29 Co28 2.216 . S
O29 C36 1.247 . S
O30 Co28 2.091 . S
O30 C36 1.261 . S
C31 O40 1.247 . S
C31 O41 1.272 . S
O32 Co28 2.004 . S
O32 C37 1.259 . S
Co33 O34 2.061 . S
Co33 O39 2.052 . S
Co33 O41 2.135 . S
O34 Co33 2.061 . S
O34 C37 1.235 . S
C35 O38 1.238 . S
C35 O39 1.241 . S
C36 O29 1.247 . S
C36 O30 1.261 . S
C37 O32 1.259 . S
C37 O34 1.235 . S
O38 Co28 2.021 . S
O38 C35 1.238 . S
O39 Co33 2.052 . S
O39 C35 1.241 . S
O40 Co28 2.137 . S
O40 C31 1.247 . S
O41 Co28 2.244 . S
O41 C31 1.272 . S
O41 Co33 2.135 . S
Co42 O43 2.216 . S
Co42 O44 2.091 . S
Co42 O46 2.004 . S
Co42 O52 2.021 . S
Co42 O54 2.137 . S
Co42 O55 2.244 . S
O43 Co42 2.216 . S
O43 C50 1.247 . S
O44 Co42 2.091 . S
O44 C50 1.261 . S
C45 O54 1.247 . S
C45 O55 1.272 . S
O46 Co42 2.004 . S
O46 C51 1.259 . S
Co47 O48 2.061 . S
Co47 O53 2.052 . S
Co47 O55 2.135 . S
O48 Co47 2.061 . S
O48 C51 1.235 . S
C49 O52 1.238 . S
C49 O53 1.241 . S
C50 O43 1.247 . S
C50 O44 1.261 . S
C51 O46 1.259 . S
C51 O48 1.235 . S
O52 Co42 2.021 . S
O52 C49 1.238 . S
O53 Co47 2.052 . S
O53 C49 1.241 . S
O54 Co42 2.137 . S
O54 C45 1.247 . S
O55 Co42 2.244 . S
O55 C45 1.272 . S
O55 Co47 2.135 . S
Co56 O57 2.216 . S
Co56 O58 2.091 . S
Co56 O60 2.004 . S
Co56 O66 2.021 . S
Co56 O68 2.137 . S
Co56 O69 2.244 . S
O57 Co56 2.216 . S
O57 C64 1.247 . S
O58 Co56 2.091 . S
O58 C64 1.261 . S
C59 O68 1.247 . S
C59 O69 1.272 . S
O60 Co56 2.004 . S
O60 C65 1.259 . S
Co61 O62 2.061 . S
Co61 O67 2.052 . S
Co61 O69 2.135 . S
O62 Co61 2.061 . S
O62 C65 1.235 . S
C63 O66 1.238 . S
C63 O67 1.241 . S
C64 O57 1.247 . S
C64 O58 1.261 . S
C65 O60 1.259 . S
C65 O62 1.235 . S
O66 Co56 2.021 . S
O66 C63 1.238 . S
O67 Co61 2.052 . S
O67 C63 1.241 . S
O68 Co56 2.137 . S
O68 C59 1.247 . S
O69 Co56 2.244 . S
O69 C59 1.272 . S
O69 Co61 2.135 . S
Co70 O71 2.216 . S
Co70 O72 2.091 . S
Co70 O74 2.004 . S
Co70 O80 2.021 . S
Co70 O82 2.137 . S
Co70 O83 2.244 . S
O71 Co70 2.216 . S
O71 C78 1.247 . S
O72 Co70 2.091 . S
O72 C78 1.261 . S
C73 O82 1.247 . S
C73 O83 1.272 . S
O74 Co70 2.004 . S
O74 C79 1.259 . S
Co75 O76 2.061 . S
Co75 O81 2.052 . S
Co75 O83 2.135 . S
O76 Co75 2.061 . S
O76 C79 1.235 . S
C77 O80 1.238 . S
C77 O81 1.241 . S
C78 O71 1.247 . S
C78 O72 1.261 . S
C79 O74 1.259 . S
C79 O76 1.235 . S
O80 Co70 2.021 . S
O80 C77 1.238 . S
O81 Co75 2.052 . S
O81 C77 1.241 . S
O82 Co70 2.137 . S
O82 C73 1.247 . S
O83 Co70 2.244 . S
O83 C73 1.272 . S
O83 Co75 2.135 . S
Co84 O85 2.216 . S
Co84 O86 2.091 . S
Co84 O88 2.004 . S
Co84 O94 2.021 . S
Co84 O96 2.137 . S
Co84 O97 2.244 . S
O85 Co84 2.216 . S
O85 C92 1.247 . S
O86 Co84 2.091 . S
O86 C92 1.261 . S
C87 O96 1.247 . S
C87 O97 1.272 . S
O88 Co84 2.004 . S
O88 C93 1.252 1_565 S
Co89 O90 2.061 . S
Co89 O95 2.052 . S
Co89 O97 2.135 . S
O90 Co89 2.061 . S
O90 C93 1.236 1_565 S
C91 O94 1.238 . S
C91 O95 1.241 . S
C92 O85 1.247 . S
C92 O86 1.261 . S
C93 O88 1.252 1_545 S
C93 O90 1.236 1_545 S
O94 Co84 2.021 . S
O94 C91 1.238 . S
O95 Co89 2.052 . S
O95 C91 1.241 . S
O96 Co84 2.137 . S
O96 C87 1.247 . S
O97 Co84 2.244 . S
O97 C87 1.272 . S
O97 Co89 2.135 . S
Co98 O99 2.216 . S
Co98 O100 2.091 . S
Co98 O102 2.004 . S
Co98 O108 2.021 . S
Co98 O110 2.137 . S
Co98 O111 2.244 . S
O99 Co98 2.216 . S
O99 C106 1.247 . S
O100 Co98 2.091 . S
O100 C106 1.261 . S
C101 O110 1.247 . S
C101 O111 1.272 . S
O102 Co98 2.004 . S
O102 C107 1.259 . S
Co103 O104 2.061 . S
Co103 O109 2.052 . S
Co103 O111 2.135 . S
O104 Co103 2.061 . S
O104 C107 1.235 . S
C105 O108 1.238 . S
C105 O109 1.241 . S
C106 O99 1.247 . S
C106 O100 1.261 . S
C107 O102 1.259 . S
C107 O104 1.235 . S
O108 Co98 2.021 . S
O108 C105 1.238 . S
O109 Co103 2.052 . S
O109 C105 1.241 . S
O110 Co98 2.137 . S
O110 C101 1.247 . S
O111 Co98 2.244 . S
O111 C101 1.272 . S
O111 Co103 2.135 . S
Co112 O113 2.216 . S
Co112 O114 2.091 . S
Co112 O116 2.004 . S
Co112 O122 2.021 . S
Co112 O124 2.137 . S
Co112 O125 2.244 . S
O113 Co112 2.216 . S
O113 C120 1.247 . S
O114 Co112 2.091 . S
O114 C120 1.261 . S
C115 O124 1.247 . S
C115 O125 1.272 . S
O116 Co112 2.004 . S
O116 C121 1.259 . S
Co117 O118 2.061 . S
Co117 O123 2.052 . S
Co117 O125 2.135 . S
O118 Co117 2.061 . S
O118 C121 1.235 . S
C119 O122 1.238 . S
C119 O123 1.241 . S
C120 O113 1.247 . S
C120 O114 1.261 . S
C121 O116 1.259 . S
C121 O118 1.235 . S
O122 Co112 2.021 . S
O122 C119 1.238 . S
O123 Co117 2.052 . S
O123 C119 1.241 . S
O124 Co112 2.137 . S
O124 C115 1.247 . S
O125 Co112 2.244 . S
O125 C115 1.272 . S
O125 Co117 2.135 . S
Co126 O127 2.216 1_554 S
Co126 O128 2.091 1_554 S
Co126 O130 2.004 . S
Co126 O136 2.021 . S
Co126 O138 2.137 1_554 S
Co126 O139 2.244 . S
O127 Co126 2.216 1_556 S
O127 C134 1.247 . S
O128 Co126 2.091 1_556 S
O128 C134 1.261 . S
C129 O138 1.247 1_554 S
C129 O139 1.272 . S
O130 Co126 2.004 . S
O130 C135 1.259 . S
Co131 O132 2.061 . S
Co131 O137 2.052 . S
Co131 O139 2.135 . S
O132 Co131 2.061 . S
O132 C135 1.235 . S
C133 O136 1.238 . S
C133 O137 1.241 . S
C134 O127 1.247 . S
C134 O128 1.261 . S
C135 O130 1.259 . S
C135 O132 1.235 . S
O136 Co126 2.021 . S
O136 C133 1.238 . S
O137 Co131 2.052 . S
O137 C133 1.241 . S
O138 Co126 2.137 1_556 S
O138 C129 1.247 1_556 S
O139 Co126 2.244 . S
O139 C129 1.272 . S
O139 Co131 2.135 . S
Co140 O141 2.216 . S
Co140 O142 2.091 . S
Co140 O144 2.004 . S
Co140 O150 2.021 . S
Co140 O152 2.137 . S
Co140 O153 2.244 . S
O141 Co140 2.216 . S
O141 C148 1.247 . S
O142 Co140 2.091 . S
O142 C148 1.261 . S
C143 O152 1.247 . S
C143 O153 1.272 . S
O144 Co140 2.004 . S
O144 C149 1.259 . S
Co145 O146 2.061 . S
Co145 O151 2.052 . S
Co145 O153 2.135 1_556 S
O146 Co145 2.061 . S
O146 C149 1.235 1_556 S
C147 O150 1.238 1_556 S
C147 O151 1.241 . S
C148 O141 1.247 . S
C148 O142 1.261 . S
C149 O144 1.259 . S
C149 O146 1.235 1_554 S
O150 Co140 2.021 . S
O150 C147 1.238 1_554 S
O151 Co145 2.052 . S
O151 C147 1.241 . S
O152 Co140 2.137 . S
O152 C143 1.247 . S
O153 Co140 2.244 . S
O153 C143 1.272 . S
O153 Co145 2.135 1_554 S
Co154 O155 2.216 1_554 S
Co154 O156 2.091 1_554 S
Co154 O158 2.004 . S
Co154 O164 2.021 . S
Co154 O166 2.137 1_554 S
Co154 O167 2.244 . S
O155 Co154 2.216 1_556 S
O155 C162 1.247 . S
O156 Co154 2.091 1_556 S
O156 C162 1.261 . S
C157 O166 1.247 1_554 S
C157 O167 1.272 . S
O158 Co154 2.004 . S
O158 C163 1.259 . S
Co159 O160 2.061 . S
Co159 O165 2.052 . S
Co159 O167 2.135 . S
O160 Co159 2.061 . S
O160 C163 1.235 . S
C161 O164 1.238 . S
C161 O165 1.241 . S
C162 O155 1.247 . S
C162 O156 1.261 . S
C163 O158 1.259 . S
C163 O160 1.235 . S
O164 Co154 2.021 . S
O164 C161 1.238 . S
O165 Co159 2.052 . S
O165 C161 1.241 . S
O166 Co154 2.137 1_556 S
O166 C157 1.247 1_556 S
O167 Co154 2.244 . S
O167 C157 1.272 . S
O167 Co159 2.135 . S
Co168 O169 2.216 1_556 S
Co168 O170 2.091 1_556 S
Co168 O172 2.004 . S
Co168 O178 2.021 . S
Co168 O180 2.137 1_556 S
Co168 O181 2.244 . S
O169 Co168 2.216 1_554 S
O169 C176 1.247 . S
O170 Co168 2.091 1_554 S
O170 C176 1.261 . S
C171 O180 1.247 1_556 S
C171 O181 1.272 . S
O172 Co168 2.004 . S
O172 C177 1.259 . S
Co173 O174 2.061 . S
Co173 O179 2.052 . S
Co173 O181 2.135 . S
O174 Co173 2.061 . S
O174 C177 1.235 . S
C175 O178 1.238 . S
C175 O179 1.241 . S
C176 O169 1.247 . S
C176 O170 1.261 . S
C177 O172 1.259 . S
C177 O174 1.235 . S
O178 Co168 2.021 . S
O178 C175 1.238 . S
O179 Co173 2.052 . S
O179 C175 1.241 . S
O180 Co168 2.137 1_554 S
O180 C171 1.247 1_554 S
O181 Co168 2.244 . S
O181 C171 1.272 . S
O181 Co173 2.135 . S
Co182 O183 2.216 . S
Co182 O184 2.091 . S
Co182 O186 2.004 . S
Co182 O192 2.021 . S
Co182 O194 2.137 . S
Co182 O195 2.244 . S
O183 Co182 2.216 . S
O183 C190 1.247 . S
O184 Co182 2.091 . S
O184 C190 1.261 . S
C185 O194 1.247 . S
C185 O195 1.272 . S
O186 Co182 2.004 . S
O186 C191 1.259 . S
Co187 O188 2.061 . S
Co187 O193 2.052 . S
Co187 O195 2.135 1_554 S
O188 Co187 2.061 . S
O188 C191 1.235 1_554 S
C189 O192 1.238 1_554 S
C189 O193 1.241 . S
C190 O183 1.247 . S
C190 O184 1.261 . S
C191 O186 1.259 . S
C191 O188 1.235 1_556 S
O192 Co182 2.021 . S
O192 C189 1.238 1_556 S
O193 Co187 2.052 . S
O193 C189 1.241 . S
O194 Co182 2.137 . S
O194 C185 1.247 . S
O195 Co182 2.244 . S
O195 C185 1.272 . S
O195 Co187 2.135 1_556 S
Co196 O197 2.216 . S
Co196 O198 2.091 . S
Co196 O200 2.027 . S
Co196 O206 2.021 . S
Co196 O208 2.137 1_556 S
Co196 O209 2.244 . S
O197 Co196 2.216 . S
O197 C204 1.247 1_556 S
O198 Co196 2.091 . S
O198 C204 1.261 1_556 S
C199 O208 1.247 1_556 S
C199 O209 1.272 . S
O200 Co196 2.027 . S
O200 C205 1.241 1_655 S
Co201 O202 2.062 1_655 S
Co201 O207 2.052 . S
Co201 O209 2.135 . S
O202 Co201 2.062 1_455 S
O202 C205 1.235 . S
C203 O206 1.238 . S
C203 O207 1.241 . S
C204 O197 1.247 1_554 S
C204 O198 1.261 1_554 S
C205 O200 1.241 1_455 S
C205 O202 1.235 . S
O206 Co196 2.021 . S
O206 C203 1.238 . S
O207 Co201 2.052 . S
O207 C203 1.241 . S
O208 Co196 2.137 1_554 S
O208 C199 1.247 1_554 S
O209 Co196 2.244 . S
O209 C199 1.272 . S
O209 Co201 2.135 . S
Co210 O211 2.216 . S
Co210 O212 2.091 . S
Co210 O214 2.004 . S
Co210 O220 2.021 . S
Co210 O222 2.137 . S
Co210 O223 2.244 . S
O211 Co210 2.216 . S
O211 C218 1.247 . S
O212 Co210 2.091 . S
O212 C218 1.261 . S
C213 O222 1.247 . S
C213 O223 1.272 . S
O214 Co210 2.004 . S
O214 C219 1.259 . S
Co215 O216 2.061 . S
Co215 O221 2.052 . S
Co215 O223 2.135 . S
O216 Co215 2.061 . S
O216 C219 1.235 . S
C217 O220 1.238 . S
C217 O221 1.241 . S
C218 O211 1.247 . S
C218 O212 1.261 . S
C219 O214 1.259 . S
C219 O216 1.235 . S
O220 Co210 2.021 . S
O220 C217 1.238 . S
O221 Co215 2.052 . S
O221 C217 1.241 . S
O222 Co210 2.137 . S
O222 C213 1.247 . S
O223 Co210 2.244 . S
O223 C213 1.272 . S
O223 Co215 2.135 . S
Co224 O225 2.216 . S
Co224 O226 2.091 . S
Co224 O228 2.004 1_655 S
Co224 O234 2.021 . S
Co224 O236 2.137 . S
Co224 O237 2.244 . S
O225 Co224 2.216 . S
O225 C232 1.247 . S
O226 Co224 2.091 . S
O226 C232 1.261 . S
C227 O236 1.247 . S
C227 O237 1.272 . S
O228 Co224 2.004 1_455 S
O228 C233 1.259 . S
Co229 O230 2.061 1_655 S
Co229 O235 2.052 . S
Co229 O237 2.135 . S
O230 Co229 2.061 1_455 S
O230 C233 1.235 . S
C231 O234 1.238 . S
C231 O235 1.241 . S
C232 O225 1.247 . S
C232 O226 1.261 . S
C233 O228 1.259 . S
C233 O230 1.235 . S
O234 Co224 2.021 . S
O234 C231 1.238 . S
O235 Co229 2.052 . S
O235 C231 1.241 . S
O236 Co224 2.137 . S
O236 C227 1.247 . S
O237 Co224 2.244 . S
O237 C227 1.272 . S
O237 Co229 2.135 . S
Co238 O239 2.216 . S
Co238 O240 2.091 . S
Co238 O242 2.004 . S
Co238 O248 2.021 . S
Co238 O250 2.137 . S
Co238 O251 2.244 . S
O239 Co238 2.216 . S
O239 C246 1.247 . S
O240 Co238 2.091 . S
O240 C246 1.261 . S
C241 O250 1.247 . S
C241 O251 1.272 . S
O242 Co238 2.004 . S
O242 C247 1.259 . S
Co243 O244 2.061 . S
Co243 O249 2.052 . S
Co243 O251 2.135 . S
O244 Co243 2.061 . S
O244 C247 1.235 . S
C245 O248 1.238 . S
C245 O249 1.241 . S
C246 O239 1.247 . S
C246 O240 1.261 . S
C247 O242 1.259 . S
C247 O244 1.235 . S
O248 Co238 2.021 . S
O248 C245 1.238 . S
O249 Co243 2.052 . S
O249 C245 1.241 . S
O250 Co238 2.137 . S
O250 C241 1.247 . S
O251 Co238 2.244 . S
O251 C241 1.272 . S
O251 Co243 2.135 . S
H252 C258 0.930 . S
H253 C261 0.930 . S
H254 C262 0.930 . S
H255 C263 0.930 . S
H256 C266 0.930 . S
H257 C267 0.930 . S
C258 H252 0.930 . S
C258 C259 1.355 . S
C258 C260 1.415 . S
C259 C258 1.355 . S
C259 C261 1.419 . S
C260 C258 1.415 . S
C260 C265 1.425 1_556 S
C260 C267 1.409 . S
C261 H253 0.930 . S
C261 C259 1.419 . S
C261 C262 1.362 1_556 S
C262 H254 0.930 . S
C262 C261 1.362 1_554 S
C262 C265 1.409 . S
C263 H255 0.930 . S
C263 C264 1.355 . S
C263 C265 1.415 . S
C264 C263 1.355 . S
C264 C266 1.419 . S
C265 C260 1.425 1_554 S
C265 C262 1.409 . S
C265 C263 1.415 . S
C266 H256 0.930 . S
C266 C264 1.419 . S
C266 C267 1.362 1_554 S
C267 H257 0.930 . S
C267 C260 1.409 . S
C267 C266 1.362 1_556 S
H268 C274 0.930 . S
H269 C277 0.930 . S
H270 C278 0.930 . S
H271 C279 0.930 . S
H272 C282 0.930 . S
H273 C283 0.930 . S
C274 H268 0.930 . S
C274 C275 1.355 . S
C274 C276 1.415 1_556 S
C275 C274 1.355 . S
C275 C277 1.419 . S
C276 C274 1.415 1_554 S
C276 C281 1.425 . S
C276 C283 1.409 . S
C277 H269 0.930 . S
C277 C275 1.419 . S
C277 C278 1.362 . S
C278 H270 0.930 . S
C278 C277 1.362 . S
C278 C281 1.409 1_556 S
C279 H271 0.930 . S
C279 C280 1.355 . S
C279 C281 1.415 . S
C280 C279 1.355 . S
C280 C282 1.419 . S
C281 C276 1.425 . S
C281 C278 1.409 1_554 S
C281 C279 1.415 . S
C282 H272 0.930 . S
C282 C280 1.419 . S
C282 C283 1.362 . S
C283 H273 0.930 . S
C283 C276 1.409 . S
C283 C282 1.362 . S
H284 C290 0.930 . S
H285 C293 0.930 . S
H286 C294 0.930 . S
H287 C295 0.930 . S
H288 C298 0.930 . S
H289 C299 0.930 . S
C290 H284 0.930 . S
C290 C291 1.355 . S
C290 C292 1.415 . S
C291 C290 1.355 . S
C291 C293 1.419 . S
C292 C290 1.415 . S
C292 C297 1.425 . S
C292 C299 1.409 1_554 S
C293 H285 0.930 . S
C293 C291 1.419 . S
C293 C294 1.362 . S
C294 H286 0.930 . S
C294 C293 1.362 . S
C294 C297 1.409 . S
C295 H287 0.930 . S
C295 C296 1.355 . S
C295 C297 1.415 1_556 S
C296 C295 1.355 . S
C296 C298 1.419 . S
C297 C292 1.425 . S
C297 C294 1.409 . S
C297 C295 1.415 1_554 S
C298 H288 0.930 . S
C298 C296 1.419 . S
C298 C299 1.362 . S
C299 H289 0.930 . S
C299 C292 1.409 1_556 S
C299 C298 1.362 . S
H300 C306 0.930 . S
H301 C309 0.930 . S
H302 C310 0.930 . S
H303 C311 0.930 . S
H304 C314 0.930 . S
H305 C315 0.930 . S
C306 H300 0.930 . S
C306 C307 1.355 . S
C306 C308 1.415 . S
C307 C306 1.355 . S
C307 C309 1.419 . S
C308 C306 1.415 . S
C308 C313 1.425 . S
C308 C315 1.409 . S
C309 H301 0.930 . S
C309 C307 1.419 . S
C309 C310 1.362 . S
C310 H302 0.930 . S
C310 C309 1.362 . S
C310 C313 1.409 . S
C311 H303 0.930 . S
C311 C312 1.355 . S
C311 C313 1.415 . S
C312 C311 1.355 . S
C312 C314 1.419 . S
C313 C308 1.425 . S
C313 C310 1.409 . S
C313 C311 1.415 . S
C314 H304 0.930 . S
C314 C312 1.419 . S
C314 C315 1.362 . S
C315 H305 0.930 . S
C315 C308 1.409 . S
C315 C314 1.362 . S
H316 C322 0.930 . S
H317 C325 0.930 . S
H318 C326 0.930 . S
H319 C327 0.930 . S
H320 C330 0.930 . S
H321 C331 0.930 . S
C322 H316 0.930 . S
C322 C323 1.355 . S
C322 C324 1.415 . S
C323 C322 1.355 . S
C323 C325 1.419 . S
C324 C322 1.415 . S
C324 C329 1.425 . S
C324 C331 1.409 . S
C325 H317 0.930 . S
C325 C323 1.419 . S
C325 C326 1.362 . S
C326 H318 0.930 . S
C326 C325 1.362 . S
C326 C329 1.409 . S
C327 H319 0.930 . S
C327 C328 1.355 . S
C327 C329 1.415 . S
C328 C327 1.355 . S
C328 C330 1.419 . S
C329 C324 1.425 . S
C329 C326 1.409 . S
C329 C327 1.415 . S
C330 H320 0.930 . S
C330 C328 1.419 . S
C330 C331 1.362 . S
C331 H321 0.930 . S
C331 C324 1.409 . S
C331 C330 1.362 . S
H332 C338 0.930 . S
H333 C341 0.930 . S
H334 C342 0.930 . S
H335 C343 0.930 . S
H336 C346 0.930 . S
H337 C347 0.930 . S
C338 H332 0.930 . S
C338 C339 1.355 . S
C338 C340 1.415 . S
C339 C338 1.355 . S
C339 C341 1.419 . S
C340 C338 1.415 . S
C340 C345 1.425 . S
C340 C347 1.409 . S
C341 H333 0.930 . S
C341 C339 1.419 . S
C341 C342 1.362 . S
C342 H334 0.930 . S
C342 C341 1.362 . S
C342 C345 1.409 . S
C343 H335 0.930 . S
C343 C344 1.355 . S
C343 C345 1.415 . S
C344 C343 1.355 . S
C344 C346 1.419 . S
C345 C340 1.425 . S
C345 C342 1.409 . S
C345 C343 1.415 . S
C346 H336 0.930 . S
C346 C344 1.419 . S
C346 C347 1.362 . S
C347 H337 0.930 . S
C347 C340 1.409 . S
C347 C346 1.362 . S
H348 C354 0.930 . S
H349 C357 0.930 . S
H350 C358 0.930 . S
H351 C359 0.930 . S
H352 C362 0.930 . S
H353 C363 0.930 . S
C354 H348 0.930 . S
C354 C355 1.355 . S
C354 C356 1.415 . S
C355 C354 1.355 . S
C355 C357 1.419 . S
C356 C354 1.415 . S
C356 C361 1.425 . S
C356 C363 1.409 . S
C357 H349 0.930 . S
C357 C355 1.419 . S
C357 C358 1.362 . S
C358 H350 0.930 . S
C358 C357 1.362 . S
C358 C361 1.409 . S
C359 H351 0.930 . S
C359 C360 1.355 . S
C359 C361 1.415 . S
C360 C359 1.355 . S
C360 C362 1.419 . S
C361 C356 1.425 . S
C361 C358 1.409 . S
C361 C359 1.415 . S
C362 H352 0.930 . S
C362 C360 1.419 . S
C362 C363 1.362 . S
C363 H353 0.930 . S
C363 C356 1.409 . S
C363 C362 1.362 . S
H364 C370 0.930 . S
H365 C373 0.930 . S
H366 C374 0.930 . S
H367 C375 0.930 . S
H368 C378 0.930 . S
H369 C379 0.930 . S
C370 H364 0.930 . S
C370 C371 1.355 . S
C370 C372 1.415 . S
C371 C370 1.355 . S
C371 C373 1.419 . S
C372 C370 1.415 . S
C372 C377 1.425 . S
C372 C379 1.409 . S
C373 H365 0.930 . S
C373 C371 1.419 . S
C373 C374 1.362 . S
C374 H366 0.930 . S
C374 C373 1.362 . S
C374 C377 1.409 . S
C375 H367 0.930 . S
C375 C376 1.355 . S
C375 C377 1.415 . S
C376 C375 1.355 . S
C376 C378 1.419 . S
C377 C372 1.425 . S
C377 C374 1.409 . S
C377 C375 1.415 . S
C378 H368 0.930 . S
C378 C376 1.419 . S
C378 C379 1.362 . S
C379 H369 0.930 . S
C379 C372 1.409 . S
C379 C378 1.362 . S
H380 C386 0.930 . S
H381 C389 0.930 . S
H382 C390 0.930 . S
H383 C391 0.930 . S
H384 C394 0.930 . S
H385 C395 0.930 . S
C386 H380 0.930 . S
C386 C387 1.355 . S
C386 C388 1.415 . S
C387 C386 1.355 . S
C387 C389 1.419 . S
C388 C386 1.415 . S
C388 C393 1.425 . S
C388 C395 1.409 . S
C389 H381 0.930 . S
C389 C387 1.419 . S
C389 C390 1.362 . S
C390 H382 0.930 . S
C390 C389 1.362 . S
C390 C393 1.409 . S
C391 H383 0.930 . S
C391 C392 1.355 . S
C391 C393 1.415 . S
C392 C391 1.355 . S
C392 C394 1.419 . S
C393 C388 1.425 . S
C393 C390 1.409 . S
C393 C391 1.415 . S
C394 H384 0.930 . S
C394 C392 1.419 . S
C394 C395 1.362 . S
C395 H385 0.930 . S
C395 C388 1.409 . S
C395 C394 1.362 . S
H396 C402 0.930 . S
H397 C405 0.930 . S
H398 C406 0.930 . S
H399 C407 0.930 . S
H400 C410 0.930 . S
H401 C411 0.930 . S
C402 H396 0.930 . S
C402 C403 1.355 . S
C402 C404 1.415 . S
C403 C402 1.355 . S
C403 C405 1.419 . S
C404 C402 1.415 . S
C404 C409 1.425 . S
C404 C411 1.409 . S
C405 H397 0.930 . S
C405 C403 1.419 . S
C405 C406 1.362 . S
C406 H398 0.930 . S
C406 C405 1.362 . S
C406 C409 1.409 . S
C407 H399 0.930 . S
C407 C408 1.355 . S
C407 C409 1.415 . S
C408 C407 1.355 . S
C408 C410 1.419 . S
C409 C404 1.425 . S
C409 C406 1.409 . S
C409 C407 1.415 . S
C410 H400 0.930 . S
C410 C408 1.419 . S
C410 C411 1.362 . S
C411 H401 0.930 . S
C411 C404 1.409 . S
C411 C410 1.362 . S
H412 C418 0.930 . S
H413 C421 0.930 . S
H414 C422 0.930 . S
H415 C423 0.930 . S
H416 C426 0.930 . S
H417 C427 0.930 . S
C418 H412 0.930 . S
C418 C419 1.355 . S
C418 C420 1.415 . S
C419 C418 1.355 . S
C419 C421 1.419 . S
C420 C418 1.415 . S
C420 C425 1.425 . S
C420 C427 1.409 . S
C421 H413 0.930 . S
C421 C419 1.419 . S
C421 C422 1.362 . S
C422 H414 0.930 . S
C422 C421 1.362 . S
C422 C425 1.409 . S
C423 H415 0.930 . S
C423 C424 1.355 . S
C423 C425 1.415 . S
C424 C423 1.355 . S
C424 C426 1.419 . S
C425 C420 1.425 . S
C425 C422 1.409 . S
C425 C423 1.415 . S
C426 H416 0.930 . S
C426 C424 1.419 . S
C426 C427 1.362 . S
C427 H417 0.930 . S
C427 C420 1.409 . S
C427 C426 1.362 . S
H428 C434 0.930 . S
H429 C437 0.930 . S
H430 C438 0.930 . S
H431 C439 0.930 . S
H432 C442 0.930 . S
H433 C443 0.930 . S
C434 H428 0.930 . S
C434 C435 1.355 . S
C434 C436 1.415 . S
C435 C434 1.355 . S
C435 C437 1.419 . S
C436 C434 1.415 . S
C436 C441 1.425 . S
C436 C443 1.409 . S
C437 H429 0.930 . S
C437 C435 1.419 . S
C437 C438 1.362 . S
C438 H430 0.930 . S
C438 C437 1.362 . S
C438 C441 1.409 . S
C439 H431 0.930 . S
C439 C440 1.355 . S
C439 C441 1.415 . S
C440 C439 1.355 . S
C440 C442 1.419 . S
C441 C436 1.425 . S
C441 C438 1.409 . S
C441 C439 1.415 . S
C442 H432 0.930 . S
C442 C440 1.419 . S
C442 C443 1.362 . S
C443 H433 0.930 . S
C443 C436 1.409 . S
C443 C442 1.362 . S
H444 C450 0.930 . S
H445 C453 0.930 . S
H446 C454 0.930 . S
H447 C455 0.930 . S
H448 C458 0.930 . S
H449 C459 0.930 . S
C450 H444 0.930 . S
C450 C451 1.355 . S
C450 C452 1.415 . S
C451 C450 1.355 . S
C451 C453 1.419 . S
C452 C450 1.415 . S
C452 C457 1.425 . S
C452 C459 1.409 . S
C453 H445 0.930 . S
C453 C451 1.419 . S
C453 C454 1.362 . S
C454 H446 0.930 . S
C454 C453 1.362 . S
C454 C457 1.409 . S
C455 H447 0.930 . S
C455 C456 1.355 . S
C455 C457 1.415 . S
C456 C455 1.355 . S
C456 C458 1.419 . S
C457 C452 1.425 . S
C457 C454 1.409 . S
C457 C455 1.415 . S
C458 H448 0.930 . S
C458 C456 1.419 . S
C458 C459 1.362 . S
C459 H449 0.930 . S
C459 C452 1.409 . S
C459 C458 1.362 . S
H460 C466 0.930 . S
H461 C469 0.930 . S
H462 C470 0.930 . S
H463 C471 0.930 . S
H464 C474 0.930 . S
H465 C475 0.930 . S
C466 H460 0.930 . S
C466 C467 1.355 . S
C466 C468 1.415 . S
C467 C466 1.355 . S
C467 C469 1.419 . S
C468 C466 1.415 . S
C468 C473 1.425 . S
C468 C475 1.409 . S
C469 H461 0.930 . S
C469 C467 1.419 . S
C469 C470 1.362 . S
C470 H462 0.930 . S
C470 C469 1.362 . S
C470 C473 1.409 . S
C471 H463 0.930 . S
C471 C472 1.355 . S
C471 C473 1.415 . S
C472 C471 1.355 . S
C472 C474 1.419 . S
C473 C468 1.425 . S
C473 C470 1.409 . S
C473 C471 1.415 . S
C474 H464 0.930 . S
C474 C472 1.419 . S
C474 C475 1.362 . S
C475 H465 0.930 . S
C475 C468 1.409 . S
C475 C474 1.362 . S
H476 C482 0.930 . S
H477 C485 0.930 . S
H478 C486 0.930 . S
H479 C487 0.930 . S
H480 C490 0.930 . S
H481 C491 0.930 . S
C482 H476 0.930 . S
C482 C483 1.355 . S
C482 C484 1.415 . S
C483 C482 1.355 . S
C483 C485 1.419 . S
C484 C482 1.415 . S
C484 C489 1.425 . S
C484 C491 1.409 . S
C485 H477 0.930 . S
C485 C483 1.419 . S
C485 C486 1.362 . S
C486 H478 0.930 . S
C486 C485 1.362 . S
C486 C489 1.409 . S
C487 H479 0.930 . S
C487 C488 1.355 . S
C487 C489 1.415 . S
C488 C487 1.355 . S
C488 C490 1.419 . S
C489 C484 1.425 . S
C489 C486 1.409 . S
C489 C487 1.415 . S
C490 H480 0.930 . S
C490 C488 1.419 . S
C490 C491 1.362 . S
C491 H481 0.930 . S
C491 C484 1.409 . S
C491 C490 1.362 . S
H492 C498 0.930 . S
H493 C501 0.930 . S
H494 C502 0.930 . S
H495 C503 0.930 . S
H496 C506 0.930 1_556 S
H497 C507 0.930 . S
C498 H492 0.930 . S
C498 C499 1.355 . S
C498 C500 1.415 . S
C499 C498 1.355 . S
C499 C501 1.419 . S
C500 C498 1.415 . S
C500 C505 1.425 . S
C500 C507 1.409 . S
C501 H493 0.930 . S
C501 C499 1.419 . S
C501 C502 1.362 . S
C502 H494 0.930 . S
C502 C501 1.362 . S
C502 C505 1.409 . S
C503 H495 0.930 . S
C503 C504 1.355 . S
C503 C505 1.415 . S
C504 C503 1.355 . S
C504 C506 1.419 . S
C505 C500 1.425 . S
C505 C502 1.409 . S
C505 C503 1.415 . S
C506 H496 0.930 1_554 S
C506 C504 1.419 . S
C506 C507 1.362 . S
C507 H497 0.930 . S
C507 C500 1.409 . S
C507 C506 1.362 . S
H508 C514 0.930 . S
H509 C517 0.930 . S
H510 C518 0.930 . S
H511 C519 0.930 . S
H512 C522 0.930 . S
H513 C523 0.930 . S
C514 H508 0.930 . S
C514 C515 1.355 . S
C514 C516 1.415 . S
C515 C514 1.355 . S
C515 C517 1.419 . S
C516 C514 1.415 . S
C516 C521 1.425 . S
C516 C523 1.409 . S
C517 H509 0.930 . S
C517 C515 1.419 . S
C517 C518 1.362 . S
C518 H510 0.930 . S
C518 C517 1.362 . S
C518 C521 1.409 . S
C519 H511 0.930 . S
C519 C520 1.355 . S
C519 C521 1.415 . S
C520 C519 1.355 . S
C520 C522 1.419 . S
C521 C516 1.425 . S
C521 C518 1.409 . S
C521 C519 1.415 . S
C522 H512 0.930 . S
C522 C520 1.419 . S
C522 C523 1.362 . S
C523 H513 0.930 . S
C523 C516 1.409 . S
C523 C522 1.362 . S
H524 C530 0.930 . S
H525 C533 0.930 . S
H526 C534 0.930 . S
H527 C535 0.930 . S
H528 C538 0.930 . S
H529 C539 0.930 . S
C530 H524 0.930 . S
C530 C531 1.355 . S
C530 C532 1.415 . S
C531 C530 1.355 . S
C531 C533 1.419 . S
C532 C530 1.415 . S
C532 C537 1.425 . S
C532 C539 1.409 . S
C533 H525 0.930 . S
C533 C531 1.419 . S
C533 C534 1.362 . S
C534 H526 0.930 . S
C534 C533 1.362 . S
C534 C537 1.409 . S
C535 H527 0.930 . S
C535 C536 1.355 . S
C535 C537 1.415 . S
C536 C535 1.355 . S
C536 C538 1.419 . S
C537 C532 1.425 . S
C537 C534 1.409 . S
C537 C535 1.415 . S
C538 H528 0.930 . S
C538 C536 1.419 . S
C538 C539 1.362 . S
C539 H529 0.930 . S
C539 C532 1.409 . S
C539 C538 1.362 . S
H540 C546 0.930 . S
H541 C549 0.930 . S
H542 C550 0.930 . S
H543 C551 0.930 . S
H544 C554 0.930 . S
H545 C555 0.930 . S
C546 H540 0.930 . S
C546 C547 1.355 . S
C546 C548 1.415 . S
C547 C546 1.355 . S
C547 C549 1.419 . S
C548 C546 1.415 . S
C548 C553 1.425 . S
C548 C555 1.409 . S
C549 H541 0.930 . S
C549 C547 1.419 . S
C549 C550 1.362 . S
C550 H542 0.930 . S
C550 C549 1.362 . S
C550 C553 1.409 . S
C551 H543 0.930 . S
C551 C552 1.355 . S
C551 C553 1.415 . S
C552 C551 1.355 . S
C552 C554 1.419 . S
C553 C548 1.425 . S
C553 C550 1.409 . S
C553 C551 1.415 . S
C554 H544 0.930 . S
C554 C552 1.419 . S
C554 C555 1.362 . S
C555 H545 0.930 . S
C555 C548 1.409 . S
C555 C554 1.362 . S
H556 C562 0.930 . S
H557 C565 0.930 . S
H558 C566 0.930 . S
H559 C567 0.930 . S
H560 C570 0.930 . S
H561 C571 0.930 . S
C562 H556 0.930 . S
C562 C563 1.355 . S
C562 C564 1.415 . S
C563 C562 1.355 . S
C563 C565 1.419 . S
C564 C562 1.415 . S
C564 C569 1.425 . S
C564 C571 1.409 . S
C565 H557 0.930 . S
C565 C563 1.419 . S
C565 C566 1.362 . S
C566 H558 0.930 . S
C566 C565 1.362 . S
C566 C569 1.409 . S
C567 H559 0.930 . S
C567 C568 1.355 . S
C567 C569 1.415 . S
C568 C567 1.355 . S
C568 C570 1.419 . S
C569 C564 1.425 . S
C569 C566 1.409 . S
C569 C567 1.415 . S
C570 H560 0.930 . S
C570 C568 1.419 . S
C570 C571 1.362 . S
C571 H561 0.930 . S
C571 C564 1.409 . S
C571 C570 1.362 . S
H572 C578 0.930 . S
H573 C581 0.930 1_545 S
H574 C582 0.930 . S
H575 C583 0.930 . S
H576 C586 0.930 . S
H577 C587 0.930 . S
C578 H572 0.930 . S
C578 C579 1.355 . S
C578 C580 1.415 . S
C579 C578 1.355 . S
C579 C581 1.419 . S
C580 C578 1.415 . S
C580 C585 1.425 1_565 S
C580 C587 1.409 . S
C581 H573 0.930 1_565 S
C581 C579 1.419 . S
C581 C582 1.362 1_565 S
C582 H574 0.930 . S
C582 C581 1.362 1_545 S
C582 C585 1.409 . S
C583 H575 0.930 . S
C583 C584 1.355 . S
C583 C585 1.415 . S
C584 C583 1.355 . S
C584 C586 1.419 1_545 S
C585 C580 1.425 1_545 S
C585 C582 1.409 . S
C585 C583 1.415 . S
C586 H576 0.930 . S
C586 C584 1.419 1_565 S
C586 C587 1.362 . S
C587 H577 0.930 . S
C587 C580 1.409 . S
C587 C586 1.362 . S
H588 C594 0.930 . S
H589 C597 0.930 . S
H590 C598 0.930 . S
H591 C599 0.930 . S
H592 C602 0.930 . S
H593 C603 0.930 1_556 S
C594 H588 0.930 . S
C594 C595 1.355 . S
C594 C596 1.415 . S
C595 C594 1.355 . S
C595 C597 1.419 . S
C596 C594 1.415 . S
C596 C601 1.425 . S
C596 C603 1.409 . S
C597 H589 0.930 . S
C597 C595 1.419 . S
C597 C598 1.362 . S
C598 H590 0.930 . S
C598 C597 1.362 . S
C598 C601 1.409 . S
C599 H591 0.930 . S
C599 C600 1.355 . S
C599 C601 1.415 . S
C600 C599 1.355 . S
C600 C602 1.419 1_554 S
C601 C596 1.425 . S
C601 C598 1.409 . S
C601 C599 1.415 . S
C602 H592 0.930 . S
C602 C600 1.419 1_556 S
C602 C603 1.362 1_556 S
C603 H593 0.930 1_554 S
C603 C596 1.409 . S
C603 C602 1.362 1_554 S
H604 C610 0.930 . S
H605 C613 0.930 . S
H606 C614 0.930 . S
H607 C615 0.930 1_655 S
H608 C618 0.930 . S
H609 C619 0.930 . S
C610 H604 0.930 . S
C610 C611 1.355 1_455 S
C610 C612 1.415 1_556 S
C611 C610 1.355 1_655 S
C611 C613 1.419 1_556 S
C612 C610 1.415 1_554 S
C612 C617 1.425 1_455 S
C612 C619 1.409 . S
C613 H605 0.930 . S
C613 C611 1.419 1_554 S
C613 C614 1.362 . S
C614 H606 0.930 . S
C614 C613 1.362 . S
C614 C617 1.409 . S
C615 H607 0.930 1_455 S
C615 C616 1.355 . S
C615 C617 1.415 1_455 S
C616 C615 1.355 . S
C616 C618 1.419 . S
C617 C612 1.425 1_655 S
C617 C614 1.409 . S
C617 C615 1.415 1_655 S
C618 H608 0.930 . S
C618 C616 1.419 . S
C618 C619 1.362 . S
C619 H609 0.930 . S
C619 C612 1.409 . S
C619 C618 1.362 . S
H620 C626 0.930 1_556 S
H621 C629 0.930 . S
H622 C630 0.930 . S
H623 C631 0.930 . S
H624 C634 0.930 . S
H625 C635 0.930 . S
C626 H620 0.930 1_554 S
C626 C627 1.355 . S
C626 C628 1.415 . S
C627 C626 1.355 . S
C627 C629 1.419 . S
C628 C626 1.415 . S
C628 C633 1.425 . S
C628 C635 1.409 . S
C629 H621 0.930 . S
C629 C627 1.419 . S
C629 C630 1.362 . S
C630 H622 0.930 . S
C630 C629 1.362 . S
C630 C633 1.409 . S
C631 H623 0.930 . S
C631 C632 1.355 . S
C631 C633 1.415 . S
C632 C631 1.355 . S
C632 C634 1.419 . S
C633 C628 1.425 . S
C633 C630 1.409 . S
C633 C631 1.415 . S
C634 H624 0.930 . S
C634 C632 1.419 . S
C634 C635 1.362 . S
C635 H625 0.930 . S
C635 C628 1.409 . S
C635 C634 1.362 . S
H636 C642 0.932 1_455 S
H637 C645 0.930 . S
H638 C646 0.930 . S
H639 C647 0.930 . S
H640 C650 0.930 . S
H641 C651 0.930 . S
C642 H636 0.932 1_655 S
C642 C643 1.353 . S
C642 C644 1.416 1_655 S
C643 C642 1.353 . S
C643 C645 1.419 . S
C644 C642 1.416 1_455 S
C644 C649 1.425 . S
C644 C651 1.409 . S
C645 H637 0.930 . S
C645 C643 1.419 . S
C645 C646 1.362 . S
C646 H638 0.930 . S
C646 C645 1.362 . S
C646 C649 1.409 1_655 S
C647 H639 0.930 . S
C647 C648 1.355 . S
C647 C649 1.415 . S
C648 C647 1.355 . S
C648 C650 1.419 . S
C649 C644 1.425 . S
C649 C646 1.409 1_455 S
C649 C647 1.415 . S
C650 H640 0.930 . S
C650 C648 1.419 . S
C650 C651 1.362 . S
C651 H641 0.930 . S
C651 C644 1.409 . S
C651 C650 1.362 . S
H652 C658 0.930 . S
H653 C661 0.930 . S
H654 C662 0.930 . S
H655 C663 0.930 . S
H656 C666 0.930 . S
H657 C667 0.930 . S
C658 H652 0.930 . S
C658 C659 1.355 . S
C658 C660 1.415 . S
C659 C658 1.355 . S
C659 C661 1.419 . S
C660 C658 1.415 . S
C660 C665 1.425 . S
C660 C667 1.409 . S
C661 H653 0.930 . S
C661 C659 1.419 . S
C661 C662 1.362 . S
C662 H654 0.930 . S
C662 C661 1.362 . S
C662 C665 1.409 . S
C663 H655 0.930 . S
C663 C664 1.355 . S
C663 C665 1.415 . S
C664 C663 1.355 . S
C664 C666 1.419 . S
C665 C660 1.425 . S
C665 C662 1.409 . S
C665 C663 1.415 . S
C666 H656 0.930 . S
C666 C664 1.419 . S
C666 C667 1.362 . S
C667 H657 0.930 . S
C667 C660 1.409 . S
C667 C666 1.362 . S
H668 C674 0.930 . S
H669 C677 0.930 . S
H670 C678 0.930 . S
H671 C679 0.930 . S
H672 C682 0.930 . S
H673 C683 0.930 . S
C674 H668 0.930 . S
C674 C675 1.355 . S
C674 C676 1.415 . S
C675 C674 1.355 . S
C675 C677 1.419 . S
C676 C674 1.415 . S
C676 C681 1.425 . S
C676 C683 1.409 . S
C677 H669 0.930 . S
C677 C675 1.419 . S
C677 C678 1.362 . S
C678 H670 0.930 . S
C678 C677 1.362 . S
C678 C681 1.409 . S
C679 H671 0.930 . S
C679 C680 1.355 . S
C679 C681 1.415 . S
C680 C679 1.355 . S
C680 C682 1.419 . S
C681 C676 1.425 . S
C681 C678 1.409 . S
C681 C679 1.415 . S
C682 H672 0.930 . S
C682 C680 1.419 . S
C682 C683 1.362 . S
C683 H673 0.930 . S
C683 C676 1.409 . S
C683 C682 1.362 . S
H684 C690 0.930 . S
H685 C693 0.930 . S
H686 C694 0.930 1_545 S
H687 C695 0.930 . S
H688 C698 0.930 . S
H689 C699 0.930 . S
C690 H684 0.930 . S
C690 C691 1.355 1_556 S
C690 C692 1.415 . S
C691 C690 1.355 1_554 S
C691 C693 1.419 . S
C692 C690 1.415 . S
C692 C697 1.425 1_565 S
C692 C699 1.409 . S
C693 H685 0.930 . S
C693 C691 1.419 . S
C693 C694 1.364 . S
C694 H686 0.930 1_565 S
C694 C693 1.364 . S
C694 C697 1.410 1_564 S
C695 H687 0.930 . S
C695 C696 1.355 . S
C695 C697 1.416 . S
C696 C695 1.355 . S
C696 C698 1.419 . S
C697 C692 1.425 1_545 S
C697 C694 1.410 1_546 S
C697 C695 1.416 . S
C698 H688 0.930 . S
C698 C696 1.419 . S
C698 C699 1.362 1_545 S
C699 H689 0.930 . S
C699 C692 1.409 . S
C699 C698 1.362 1_565 S
H700 C706 0.930 . S
H701 C709 0.930 . S
H702 C710 0.930 . S
H703 C711 0.930 . S
H704 C714 0.930 . S
H705 C715 0.929 1_554 S
C706 H700 0.930 . S
C706 C707 1.355 . S
C706 C708 1.415 . S
C707 C706 1.355 . S
C707 C709 1.419 . S
C708 C706 1.415 . S
C708 C713 1.425 . S
C708 C715 1.412 . S
C709 H701 0.930 . S
C709 C707 1.419 . S
C709 C710 1.362 . S
C710 H702 0.930 . S
C710 C709 1.362 . S
C710 C713 1.409 . S
C711 H703 0.930 . S
C711 C712 1.355 . S
C711 C713 1.415 . S
C712 C711 1.355 . S
C712 C714 1.419 1_556 S
C713 C708 1.425 . S
C713 C710 1.409 . S
C713 C711 1.415 . S
C714 H704 0.930 . S
C714 C712 1.419 1_554 S
C714 C715 1.361 1_554 S
C715 H705 0.929 1_556 S
C715 C708 1.412 . S
C715 C714 1.361 1_556 S
H716 C722 0.930 . S
H717 C725 0.930 . S
H718 C726 0.930 . S
H719 C727 0.930 . S
H720 C730 0.930 . S
H721 C731 0.930 . S
C722 H716 0.930 . S
C722 C723 1.355 . S
C722 C724 1.415 . S
C723 C722 1.355 . S
C723 C725 1.419 . S
C724 C722 1.415 . S
C724 C729 1.425 . S
C724 C731 1.409 . S
C725 H717 0.930 . S
C725 C723 1.419 . S
C725 C726 1.362 . S
C726 H718 0.930 . S
C726 C725 1.362 . S
C726 C729 1.409 . S
C727 H719 0.930 . S
C727 C728 1.355 . S
C727 C729 1.415 . S
C728 C727 1.355 . S
C728 C730 1.419 1_556 S
C729 C724 1.425 . S
C729 C726 1.409 . S
C729 C727 1.415 . S
C730 H720 0.930 . S
C730 C728 1.419 1_554 S
C730 C731 1.362 1_554 S
C731 H721 0.930 . S
C731 C724 1.409 . S
C731 C730 1.362 1_556 S
H732 C738 0.930 . S
H733 C741 0.930 . S
H734 C742 0.930 . S
H735 C743 0.930 . S
H736 C746 0.930 . S
H737 C747 0.930 . S
C738 H732 0.930 . S
C738 C739 1.355 . S
C738 C740 1.415 . S
C739 C738 1.355 . S
C739 C741 1.419 . S
C740 C738 1.415 . S
C740 C745 1.425 . S
C740 C747 1.409 . S
C741 H733 0.930 . S
C741 C739 1.419 . S
C741 C742 1.362 . S
C742 H734 0.930 . S
C742 C741 1.362 . S
C742 C745 1.409 . S
C743 H735 0.930 . S
C743 C744 1.355 . S
C743 C745 1.415 . S
C744 C743 1.355 . S
C744 C746 1.419 . S
C745 C740 1.425 . S
C745 C742 1.409 . S
C745 C743 1.415 . S
C746 H736 0.930 . S
C746 C744 1.419 . S
C746 C747 1.362 . S
C747 H737 0.930 . S
C747 C740 1.409 . S
C747 C746 1.362 . S
H748 C754 0.930 . S
H749 C757 0.930 . S
H750 C758 0.930 . S
H751 C759 0.930 . S
H752 C762 0.930 . S
H753 C763 0.930 . S
C754 H748 0.930 . S
C754 C755 1.355 . S
C754 C756 1.415 . S
C755 C754 1.355 . S
C755 C757 1.419 . S
C756 C754 1.415 . S
C756 C761 1.425 . S
C756 C763 1.409 . S
C757 H749 0.930 . S
C757 C755 1.419 . S
C757 C758 1.362 . S
C758 H750 0.930 . S
C758 C757 1.362 . S
C758 C761 1.409 . S
C759 H751 0.930 . S
C759 C760 1.355 . S
C759 C761 1.415 . S
C760 C759 1.355 . S
C760 C762 1.419 . S
C761 C756 1.425 . S
C761 C758 1.409 . S
C761 C759 1.415 . S
C762 H752 0.930 . S
C762 C760 1.419 . S
C762 C763 1.362 . S
C763 H753 0.930 . S
C763 C756 1.409 . S
C763 C762 1.362 . S
H764 C770 0.930 . S
H765 C773 0.930 . S
H766 C774 0.930 . S
H767 C775 0.930 . S
H768 C778 0.930 . S
H769 C779 0.930 . S
C770 H764 0.930 . S
C770 C771 1.355 . S
C770 C772 1.415 . S
C771 C770 1.355 . S
C771 C773 1.419 . S
C772 C770 1.415 . S
C772 C777 1.425 . S
C772 C779 1.409 . S
C773 H765 0.930 . S
C773 C771 1.419 . S
C773 C774 1.362 . S
C774 H766 0.930 . S
C774 C773 1.362 . S
C774 C777 1.409 . S
C775 H767 0.930 . S
C775 C776 1.355 . S
C775 C777 1.415 . S
C776 C775 1.355 . S
C776 C778 1.419 . S
C777 C772 1.425 . S
C777 C774 1.409 . S
C777 C775 1.415 . S
C778 H768 0.930 . S
C778 C776 1.419 . S
C778 C779 1.362 . S
C779 H769 0.930 . S
C779 C772 1.409 . S
C779 C778 1.362 . S
H780 C786 0.930 . S
H781 C789 0.930 . S
H782 C790 0.930 . S
H783 C791 0.930 . S
H784 C794 0.930 . S
H785 C795 0.930 . S
C786 H780 0.930 . S
C786 C787 1.355 . S
C786 C788 1.415 . S
C787 C786 1.355 . S
C787 C789 1.419 . S
C788 C786 1.415 . S
C788 C793 1.425 . S
C788 C795 1.409 . S
C789 H781 0.930 . S
C789 C787 1.419 . S
C789 C790 1.362 . S
C790 H782 0.930 . S
C790 C789 1.362 . S
C790 C793 1.409 . S
C791 H783 0.930 . S
C791 C792 1.355 . S
C791 C793 1.415 . S
C792 C791 1.355 . S
C792 C794 1.419 . S
C793 C788 1.425 . S
C793 C790 1.409 . S
C793 C791 1.415 . S
C794 H784 0.930 . S
C794 C792 1.419 . S
C794 C795 1.362 . S
C795 H785 0.930 . S
C795 C788 1.409 . S
C795 C794 1.362 . S
H796 C802 0.930 . S
H797 C805 0.930 . S
H798 C806 0.930 . S
H799 C807 0.930 . S
H800 C810 0.930 . S
H801 C811 0.930 . S
C802 H796 0.930 . S
C802 C803 1.355 . S
C802 C804 1.415 . S
C803 C802 1.355 . S
C803 C805 1.419 . S
C804 C802 1.415 . S
C804 C809 1.425 . S
C804 C811 1.409 . S
C805 H797 0.930 . S
C805 C803 1.419 . S
C805 C806 1.362 . S
C806 H798 0.930 . S
C806 C805 1.362 . S
C806 C809 1.409 . S
C807 H799 0.930 . S
C807 C808 1.355 . S
C807 C809 1.415 . S
C808 C807 1.355 . S
C808 C810 1.419 . S
C809 C804 1.425 . S
C809 C806 1.409 . S
C809 C807 1.415 . S
C810 H800 0.930 . S
C810 C808 1.419 . S
C810 C811 1.362 . S
C811 H801 0.930 . S
C811 C804 1.409 . S
C811 C810 1.362 . S
H812 C818 0.930 . S
H813 C821 0.930 . S
H814 C822 0.930 . S
H815 C823 0.930 . S
H816 C826 0.930 . S
H817 C827 0.930 . S
C818 H812 0.930 . S
C818 C819 1.355 . S
C818 C820 1.415 . S
C819 C818 1.355 . S
C819 C821 1.419 . S
C820 C818 1.415 . S
C820 C825 1.425 . S
C820 C827 1.409 . S
C821 H813 0.930 . S
C821 C819 1.419 . S
C821 C822 1.362 . S
C822 H814 0.930 . S
C822 C821 1.362 . S
C822 C825 1.409 . S
C823 H815 0.930 . S
C823 C824 1.355 . S
C823 C825 1.415 . S
C824 C823 1.355 . S
C824 C826 1.419 . S
C825 C820 1.425 . S
C825 C822 1.409 . S
C825 C823 1.415 . S
C826 H816 0.930 . S
C826 C824 1.419 . S
C826 C827 1.362 . S
C827 H817 0.930 . S
C827 C820 1.409 . S
C827 C826 1.362 . S
C259 C49 1.385 . S
C264 C7 1.385 . S
C275 C64 1.396 . S
C280 C22 1.396 . S
C291 C35 1.439 . S
C296 C77 1.439 . S
C307 C36 1.367 . S
C312 C78 1.365 . S
C323 C8 1.363 . S
C328 C50 1.363 . S
C339 C63 1.361 . S
C344 C21 1.361 . S
C355 C133 1.325 . S
C360 C92 1.314 . S
C371 C106 1.302 . S
C376 C148 1.303 . S
C387 C120 1.330 . S
C392 C161 1.343 . S
C403 C162 1.452 . S
C408 C119 1.462 . S
C419 C134 1.437 . S
C424 C91 1.406 . S
C435 C147 1.442 . S
C440 C105 1.442 . S
C451 C175 1.397 . S
C456 C217 1.399 . S
C467 C190 1.419 . S
C472 C232 1.420 . S
C483 C203 1.448 . S
C488 C245 1.448 . S
C499 C246 1.374 . S
C504 C204 1.375 . S
C515 C218 1.347 . S
C520 C176 1.347 . S
C531 C231 1.375 . S
C536 C189 1.375 . S
C547 C3 1.292 . S
C552 C101 1.306 . S
C563 C23 1.290 . S
C568 C115 1.335 . S
C579 C87 1.283 . S
C584 C31 1.312 . S
C595 C37 1.276 . S
C600 C191 1.317 1_554 S
C611 C199 1.294 . S
C616 C9 1.225 . S
C627 C171 1.228 1_554 S
C632 C17 1.247 . S
C643 C227 1.224 . S
C648 C45 1.245 . S
C659 C65 1.249 . S
C664 C247 1.314 . S
C675 C219 1.224 . S
C680 C73 1.284 . S
C691 C149 1.282 . S
C696 C79 1.264 . S
C707 C51 1.238 . S
C712 C157 1.278 1_556 S
C723 C59 1.256 . S
C728 C129 1.211 1_556 S
C739 C93 1.232 . S
C744 C185 1.276 . S
C755 C107 1.236 . S
C760 C205 1.247 . S
C771 C121 1.228 . S
C776 C177 1.293 . S
C787 C233 1.344 . S
C792 C163 1.282 . S
C803 C241 1.302 . S
C808 C135 1.321 . S
C819 C143 1.277 1_545 S
C824 C213 1.311 . S
