# Generated by pormake.
# Topology ukb, (4)-cn, num edge types: 1
# Building blocks:
#     Node 0, Type 0, BuildingBlock: UXUYUI_clean_sbu_0, # of connection points: 4
#     Node 1, Type 0, BuildingBlock: UXUYUI_clean_sbu_0, # of connection points: 4
#     Node 2, Type 0, BuildingBlock: UXUYUI_clean_sbu_0, # of connection points: 4
#     Node 3, Type 0, BuildingBlock: UXUYUI_clean_sbu_0, # of connection points: 4
#     Node 4, Type 0, BuildingBlock: UXUYUI_clean_sbu_0, # of connection points: 4
#     Node 5, Type 0, BuildingBlock: UXUYUI_clean_sbu_0, # of connection points: 4
#     Node 6, Type 0, BuildingBlock: UXUYUI_clean_sbu_0, # of connection points: 4
#     Node 7, Type 0, BuildingBlock: UXUYUI_clean_sbu_0, # of connection points: 4
#     Node 8, Type 0, BuildingBlock: UXUYUI_clean_sbu_0, # of connection points: 4
#     Node 9, Type 0, BuildingBlock: UXUYUI_clean_sbu_0, # of connection points: 4
#     Node 10, Type 0, BuildingBlock: UXUYUI_clean_sbu_0, # of connection points: 4
#     Node 11, Type 0, BuildingBlock: UXUYUI_clean_sbu_0, # of connection points: 4
#     Node 12, Type 0, BuildingBlock: UXUYUI_clean_sbu_0, # of connection points: 4
#     Node 13, Type 0, BuildingBlock: UXUYUI_clean_sbu_0, # of connection points: 4
#     Node 14, Type 0, BuildingBlock: UXUYUI_clean_sbu_0, # of connection points: 4
#     Node 15, Type 0, BuildingBlock: UXUYUI_clean_sbu_0, # of connection points: 4
#     Edge 16, Type (0, 0), BuildingBlock: XIVTED_clean_linker_0, # of connection points: 2
#     Edge 17, Type (0, 0), BuildingBlock: XIVTED_clean_linker_0, # of connection points: 2
#     Edge 18, Type (0, 0), BuildingBlock: XIVTED_clean_linker_0, # of connection points: 2
#     Edge 19, Type (0, 0), BuildingBlock: XIVTED_clean_linker_0, # of connection points: 2
#     Edge 20, Type (0, 0), BuildingBlock: XIVTED_clean_linker_0, # of connection points: 2
#     Edge 21, Type (0, 0), BuildingBlock: XIVTED_clean_linker_0, # of connection points: 2
#     Edge 22, Type (0, 0), BuildingBlock: XIVTED_clean_linker_0, # of connection points: 2
#     Edge 23, Type (0, 0), BuildingBlock: XIVTED_clean_linker_0, # of connection points: 2
#     Edge 24, Type (0, 0), BuildingBlock: XIVTED_clean_linker_0, # of connection points: 2
#     Edge 25, Type (0, 0), BuildingBlock: XIVTED_clean_linker_0, # of connection points: 2
#     Edge 26, Type (0, 0), BuildingBlock: XIVTED_clean_linker_0, # of connection points: 2
#     Edge 27, Type (0, 0), BuildingBlock: XIVTED_clean_linker_0, # of connection points: 2
#     Edge 28, Type (0, 0), BuildingBlock: XIVTED_clean_linker_0, # of connection points: 2
#     Edge 29, Type (0, 0), BuildingBlock: XIVTED_clean_linker_0, # of connection points: 2
#     Edge 30, Type (0, 0), BuildingBlock: XIVTED_clean_linker_0, # of connection points: 2
#     Edge 31, Type (0, 0), BuildingBlock: XIVTED_clean_linker_0, # of connection points: 2
#     Edge 32, Type (0, 0), BuildingBlock: XIVTED_clean_linker_0, # of connection points: 2
#     Edge 33, Type (0, 0), BuildingBlock: XIVTED_clean_linker_0, # of connection points: 2
#     Edge 34, Type (0, 0), BuildingBlock: XIVTED_clean_linker_0, # of connection points: 2
#     Edge 35, Type (0, 0), BuildingBlock: XIVTED_clean_linker_0, # of connection points: 2
#     Edge 36, Type (0, 0), BuildingBlock: XIVTED_clean_linker_0, # of connection points: 2
#     Edge 37, Type (0, 0), BuildingBlock: XIVTED_clean_linker_0, # of connection points: 2
#     Edge 38, Type (0, 0), BuildingBlock: XIVTED_clean_linker_0, # of connection points: 2
#     Edge 39, Type (0, 0), BuildingBlock: XIVTED_clean_linker_0, # of connection points: 2
#     Edge 40, Type (0, 0), BuildingBlock: XIVTED_clean_linker_0, # of connection points: 2
#     Edge 41, Type (0, 0), BuildingBlock: XIVTED_clean_linker_0, # of connection points: 2
#     Edge 42, Type (0, 0), BuildingBlock: XIVTED_clean_linker_0, # of connection points: 2
#     Edge 43, Type (0, 0), BuildingBlock: XIVTED_clean_linker_0, # of connection points: 2
#     Edge 44, Type (0, 0), BuildingBlock: XIVTED_clean_linker_0, # of connection points: 2
#     Edge 45, Type (0, 0), BuildingBlock: XIVTED_clean_linker_0, # of connection points: 2
#     Edge 46, Type (0, 0), BuildingBlock: XIVTED_clean_linker_0, # of connection points: 2
#     Edge 47, Type (0, 0), BuildingBlock: XIVTED_clean_linker_0, # of connection points: 2
# Relax obj value: 0.234
# Max RMSD: 0.198
# Mean RMSD: 0.198
data_MOF--net-ukb--node1-UXUYUI_clean_sbu_0--edge1-XIVTED_clean_linker_0
_symmetry_space_group_name_H-M    P1
_symmetry_Int_Tables_number       1
_symmetry_cell_setting            triclinic
loop_
_symmetry_equiv_pos_as_xyz
'x, y, z'
_cell_length_a     61.020503
_cell_length_b     61.024018
_cell_length_c     58.568333
_cell_angle_alpha  89.998351
_cell_angle_beta   89.99744
_cell_angle_gamma 90.000662
loop_
_atom_site_label
_atom_site_type_symbol
_atom_site_fract_x
_atom_site_fract_y
_atom_site_fract_z
_atom_type_partial_charge
Li0 Li 0.50398 0.22766 0.16283 0.0
Li1 Li 0.51225 0.24322 0.20073 0.0
Li2 Li 0.52005 0.20434 0.19281 0.0
Li3 Li 0.48207 0.21856 0.19676 0.0
C4 C 0.54871 0.2331 0.16246 0.0
N5 N 0.58044 0.23889 0.12941 0.0
C6 C 0.55823 0.25369 0.15926 0.0
C7 C 0.55544 0.21541 0.14906 0.0
C8 C 0.57422 0.2563 0.1424 0.0
C9 C 0.57147 0.21868 0.13238 0.0
C10 C 0.46492 0.25523 0.18005 0.0
C11 C 0.4324 0.27049 0.1972 0.0
N12 N 0.42197 0.26918 0.17672 0.0
C13 C 0.45395 0.25418 0.15913 0.0
C14 C 0.45415 0.2636 0.19921 0.0
C15 C 0.43221 0.26127 0.15781 0.0
C16 C 0.49371 0.21813 0.11699 0.0
N17 N 0.50346 0.23303 0.13091 0.0
C18 C 0.51235 0.25576 0.099 0.0
C19 C 0.51241 0.25175 0.12248 0.0
C20 C 0.50269 0.24048 0.0841 0.0
C21 C 0.49315 0.22152 0.09344 0.0
H22 H 0.48618 0.20368 0.12421 0.0
H23 H 0.51963 0.26355 0.134 0.0
C24 C 0.54495 0.26532 0.22438 0.0
N25 N 0.52449 0.26789 0.21563 0.0
C26 C 0.5555 0.28282 0.23499 0.0
C27 C 0.52393 0.30551 0.22692 0.0
C28 C 0.51382 0.28742 0.21672 0.0
C29 C 0.54505 0.30327 0.2362 0.0
H30 H 0.55315 0.24968 0.22284 0.0
H31 H 0.49764 0.28901 0.20939 0.0
C32 C 0.49264 0.17691 0.16766 0.0
N33 N 0.49005 0.13285 0.15716 0.0
C34 C 0.47822 0.1633 0.17963 0.0
C35 C 0.50564 0.16814 0.15027 0.0
C36 C 0.47716 0.14106 0.17406 0.0
C37 C 0.50413 0.14581 0.14525 0.0
C38 C 0.51098 0.22456 0.24115 0.0
C39 C 0.5303 0.21739 0.25157 0.0
C40 C 0.49769 0.23986 0.25227 0.0
C41 C 0.53618 0.22593 0.27284 0.0
C42 C 0.50415 0.24803 0.27351 0.0
N43 N 0.52311 0.24097 0.28326 0.0
C44 C 0.56152 0.18867 0.20318 0.0
C45 C 0.53493 0.16035 0.20257 0.0
C46 C 0.57763 0.17395 0.21024 0.0
N47 N 0.54062 0.18173 0.19962 0.0
C48 C 0.55067 0.14496 0.20919 0.0
C49 C 0.57223 0.15183 0.21342 0.0
H50 H 0.56552 0.20582 0.20118 0.0
H51 H 0.51814 0.15527 0.20044 0.0
C52 C 0.43704 0.20804 0.19169 0.0
N53 N 0.45369 0.21029 0.20693 0.0
C54 C 0.41697 0.19927 0.1986 0.0
C55 C 0.4316 0.19528 0.23672 0.0
C56 C 0.45126 0.2044 0.22914 0.0
C57 C 0.41418 0.19224 0.22129 0.0
H58 H 0.43961 0.21228 0.17398 0.0
H59 H 0.46493 0.20582 0.24076 0.0
O60 O 0.53288 0.2303 0.17871 0.0
O61 O 0.48613 0.24821 0.18172 0.0
O62 O 0.49379 0.19876 0.17274 0.0
O63 O 0.50518 0.21676 0.22011 0.0
H64 H 0.5532 0.26752 0.16958 0.0
H65 H 0.54837 0.19934 0.15153 0.0
H66 H 0.58167 0.27216 0.13963 0.0
H67 H 0.5768 0.20516 0.12181 0.0
H68 H 0.42382 0.27688 0.21193 0.0
H69 H 0.46205 0.24781 0.14411 0.0
H70 H 0.46245 0.26465 0.21548 0.0
H71 H 0.42347 0.26045 0.14176 0.0
H72 H 0.52002 0.27053 0.09261 0.0
H73 H 0.48507 0.20954 0.08271 0.0
H74 H 0.57193 0.28053 0.24157 0.0
H75 H 0.51537 0.32104 0.22755 0.0
H76 H 0.46807 0.16976 0.19317 0.0
H77 H 0.51675 0.17846 0.14071 0.0
H78 H 0.46614 0.13032 0.18323 0.0
H79 H 0.51413 0.1388 0.13187 0.0
H80 H 0.5407 0.20546 0.24329 0.0
H81 H 0.48265 0.2455 0.24448 0.0
H82 H 0.55115 0.22062 0.28105 0.0
H83 H 0.49411 0.26 0.28223 0.0
H84 H 0.59412 0.17983 0.21336 0.0
H85 H 0.54588 0.12805 0.21179 0.0
H86 H 0.40401 0.19749 0.18612 0.0
H87 H 0.43054 0.18969 0.25422 0.0
Li88 Li 0.29605 0.52245 0.69589 0.0
Li89 Li 0.28193 0.48444 0.69766 0.0
Li90 Li 0.2721 0.50658 0.66505 0.0
Li91 Li 0.25749 0.51361 0.70391 0.0
C92 C 0.31719 0.50362 0.65839 0.0
N93 N 0.34757 0.51609 0.62592 0.0
C94 C 0.33392 0.48925 0.65199 0.0
C95 C 0.31586 0.52432 0.64824 0.0
C96 C 0.34914 0.49586 0.63555 0.0
C97 C 0.33139 0.53032 0.63187 0.0
C98 C 0.27702 0.51064 0.74421 0.0
C99 C 0.25333 0.50295 0.77622 0.0
N100 N 0.26227 0.5201 0.78775 0.0
C101 C 0.28618 0.528 0.75651 0.0
C102 C 0.26066 0.49783 0.75426 0.0
C103 C 0.27844 0.53258 0.77845 0.0
C104 C 0.31282 0.56181 0.71243 0.0
N105 N 0.31895 0.54256 0.70266 0.0
C106 C 0.3567 0.55294 0.7044 0.0
C107 C 0.3404 0.53782 0.69866 0.0
C108 C 0.35079 0.57273 0.71491 0.0
C109 C 0.32857 0.57713 0.71894 0.0
H110 H 0.29564 0.56504 0.71556 0.0
H111 H 0.34491 0.52225 0.69124 0.0
C112 C 0.29702 0.44174 0.68906 0.0
N113 N 0.29083 0.45571 0.70593 0.0
C114 C 0.30635 0.42151 0.69445 0.0
C115 C 0.30245 0.43031 0.73449 0.0
C116 C 0.29304 0.4503 0.72831 0.0
C117 C 0.30973 0.41579 0.71745 0.0
H118 H 0.29539 0.44666 0.67139 0.0
H119 H 0.28841 0.46188 0.74138 0.0
C120 C 0.25917 0.55337 0.67512 0.0
N121 N 0.23738 0.59107 0.66214 0.0
C122 C 0.23633 0.55342 0.67323 0.0
C123 C 0.27093 0.57247 0.67027 0.0
C124 C 0.22561 0.57266 0.6667 0.0
C125 C 0.25962 0.59136 0.66374 0.0
C126 C 0.24576 0.46668 0.68295 0.0
C127 C 0.24859 0.45451 0.66295 0.0
C128 C 0.23659 0.45669 0.70218 0.0
C129 C 0.24258 0.43242 0.66266 0.0
C130 C 0.2308 0.43456 0.70123 0.0
N131 N 0.23392 0.42297 0.68166 0.0
C132 C 0.27768 0.49174 0.61984 0.0
C133 C 0.25323 0.52168 0.62321 0.0
C134 C 0.27468 0.49122 0.59621 0.0
N135 N 0.26701 0.50682 0.63282 0.0
C136 C 0.2498 0.52182 0.59966 0.0
C137 C 0.26056 0.50642 0.58579 0.0
H138 H 0.28843 0.47994 0.62788 0.0
H139 H 0.24485 0.53346 0.63374 0.0
C140 C 0.23567 0.54446 0.73106 0.0
N141 N 0.23292 0.52517 0.71983 0.0
C142 C 0.21787 0.55471 0.74148 0.0
C143 C 0.19466 0.52511 0.72846 0.0
C144 C 0.213 0.5153 0.71848 0.0
C145 C 0.19698 0.54518 0.73998 0.0
H146 H 0.25163 0.55217 0.73138 0.0
H147 H 0.21125 0.50013 0.70911 0.0
O148 O 0.30212 0.49724 0.67435 0.0
O149 O 0.28416 0.5061 0.72254 0.0
O150 O 0.27002 0.53484 0.68187 0.0
O151 O 0.25192 0.48824 0.68366 0.0
H152 H 0.3351 0.47314 0.65965 0.0
H153 H 0.303 0.53564 0.65289 0.0
H154 H 0.36219 0.48491 0.63044 0.0
H155 H 0.33057 0.54628 0.62388 0.0
H156 H 0.24053 0.49329 0.78408 0.0
H157 H 0.29918 0.53779 0.74929 0.0
H158 H 0.25357 0.48421 0.74513 0.0
H159 H 0.2853 0.54605 0.78809 0.0
H160 H 0.37374 0.54901 0.70124 0.0
H161 H 0.32348 0.59229 0.72697 0.0
H162 H 0.31143 0.41076 0.68073 0.0
H163 H 0.30505 0.42686 0.75242 0.0
H164 H 0.22698 0.53869 0.67646 0.0
H165 H 0.28862 0.57268 0.67141 0.0
H166 H 0.20795 0.57292 0.66517 0.0
H167 H 0.26852 0.60625 0.65994 0.0
H168 H 0.2555 0.46197 0.64786 0.0
H169 H 0.23393 0.4659 0.71768 0.0
H170 H 0.24484 0.42278 0.64734 0.0
H171 H 0.22381 0.42661 0.71604 0.0
H172 H 0.28308 0.47883 0.58629 0.0
H173 H 0.239 0.53405 0.59239 0.0
H174 H 0.22029 0.57035 0.74984 0.0
H175 H 0.17882 0.51724 0.72698 0.0
Li176 Li 0.97171 0.29926 0.19212 0.0
Li177 Li 0.00885 0.28459 0.19709 0.0
Li178 Li 0.98729 0.2756 0.16323 0.0
Li179 Li 0.97812 0.26059 0.20093 0.0
C180 C 0.99723 0.32657 0.16972 0.0
N181 N 0.99455 0.37148 0.16452 0.0
C182 C 0.01061 0.34035 0.18272 0.0
C183 C 0.98258 0.33561 0.15398 0.0
C184 C 0.009 0.36302 0.17985 0.0
C185 C 0.98143 0.35836 0.15164 0.0
C186 C 0.97787 0.28036 0.24074 0.0
C187 C 0.98138 0.25831 0.27471 0.0
N188 N 0.96175 0.26603 0.28221 0.0
C189 C 0.95778 0.28817 0.24882 0.0
C190 C 0.98984 0.26541 0.25382 0.0
C191 C 0.9499 0.2807 0.26983 0.0
C192 C 0.93163 0.32197 0.19052 0.0
N193 N 0.95267 0.3233 0.19794 0.0
C194 C 0.94544 0.35778 0.21579 0.0
C195 C 0.95976 0.34067 0.21045 0.0
C196 C 0.92349 0.3568 0.20851 0.0
C197 C 0.91671 0.33858 0.19561 0.0
H198 H 0.92624 0.30772 0.18116 0.0
H199 H 0.97647 0.34107 0.21658 0.0
C200 C 0.05305 0.29585 0.19098 0.0
N201 N 0.03743 0.29222 0.20707 0.0
C202 C 0.07345 0.30422 0.19723 0.0
C203 C 0.06141 0.30464 0.23656 0.0
C204 C 0.04127 0.29611 0.22955 0.0
C205 C 0.07767 0.30927 0.22023 0.0
H206 H 0.04935 0.293 0.17317 0.0
H207 H 0.02839 0.29351 0.24191 0.0
C208 C 0.94484 0.26592 0.16106 0.0
N209 N 0.91921 0.25019 0.12579 0.0
C210 C 0.93823 0.24399 0.16086 0.0
C211 C 0.93831 0.27988 0.1434 0.0
C212 C 0.92528 0.23635 0.14287 0.0
C213 C 0.9254 0.2716 0.12569 0.0
C214 C 0.02562 0.24779 0.18193 0.0
C215 C 0.03741 0.24828 0.16147 0.0
C216 C 0.0357 0.2402 0.20184 0.0
C217 C 0.05922 0.24132 0.16134 0.0
C218 C 0.05756 0.23342 0.20101 0.0
N219 N 0.06877 0.23413 0.18094 0.0
C220 C 0.99676 0.28592 0.11745 0.0
C221 C 0.98238 0.25025 0.12288 0.0
C222 C 0.99792 0.28258 0.09391 0.0
N223 N 0.98884 0.26995 0.13133 0.0
C224 C 0.98287 0.24633 0.0994 0.0
C225 C 0.99067 0.26264 0.08448 0.0
H226 H 0.00232 0.30123 0.12466 0.0
H227 H 0.97665 0.23763 0.13438 0.0
C228 C 0.94477 0.23874 0.22416 0.0
N229 N 0.96563 0.23631 0.21645 0.0
C230 C 0.93416 0.22144 0.23507 0.0
C231 C 0.96662 0.19929 0.22969 0.0
C232 C 0.9767 0.21714 0.21902 0.0
C233 C 0.94503 0.20132 0.2378 0.0
H234 H 0.93627 0.25408 0.22149 0.0
H235 H 0.99321 0.21563 0.21252 0.0
O236 O 0.99833 0.30434 0.17249 0.0
O237 O 0.98566 0.28713 0.22002 0.0
O238 O 0.95769 0.27367 0.17841 0.0
O239 O 0.00436 0.25483 0.18249 0.0
H240 H 0.02196 0.33366 0.19507 0.0
H241 H 0.9721 0.32517 0.14381 0.0
H242 H 0.01918 0.37389 0.18986 0.0
H243 H 0.97009 0.36559 0.13961 0.0
H244 H 0.99039 0.24662 0.28493 0.0
H245 H 0.94827 0.2997 0.23889 0.0
H246 H 0.00538 0.25915 0.24776 0.0
H247 H 0.93433 0.28652 0.27624 0.0
H248 H 0.95147 0.37153 0.22564 0.0
H249 H 0.89988 0.33677 0.19011 0.0
H250 H 0.08555 0.3073 0.18409 0.0
H251 H 0.06374 0.30862 0.25441 0.0
H252 H 0.94321 0.23292 0.17431 0.0
H253 H 0.94334 0.29688 0.14326 0.0
H254 H 0.92012 0.21939 0.14244 0.0
H255 H 0.92034 0.28219 0.11185 0.0
H256 H 0.02985 0.25412 0.14591 0.0
H257 H 0.02682 0.23977 0.21782 0.0
H258 H 0.06858 0.2417 0.14566 0.0
H259 H 0.06562 0.22764 0.21631 0.0
H260 H 0.00464 0.29545 0.0833 0.0
H261 H 0.97689 0.23078 0.09307 0.0
H262 H 0.91739 0.22359 0.24068 0.0
H263 H 0.97559 0.18408 0.23153 0.0
Li264 Li 0.20302 0.97091 0.69183 0.0
Li265 Li 0.21623 0.00834 0.69861 0.0
Li266 Li 0.22518 0.98887 0.66327 0.0
Li267 Li 0.24178 0.97853 0.69973 0.0
C268 C 0.17407 0.99637 0.67148 0.0
N269 N 0.12922 0.99193 0.66702 0.0
C270 C 0.15998 0.00887 0.68506 0.0
C271 C 0.16536 0.98173 0.65552 0.0
C272 C 0.13734 0.00637 0.68256 0.0
C273 C 0.14264 0.97968 0.65357 0.0
C274 C 0.22315 0.9755 0.7402 0.0
C275 C 0.24588 0.97866 0.77372 0.0
N276 N 0.23904 0.95852 0.78066 0.0
C277 C 0.21624 0.95489 0.74772 0.0
C278 C 0.23798 0.98757 0.75335 0.0
C279 C 0.2245 0.94658 0.76822 0.0
C280 C 0.18086 0.93025 0.68948 0.0
N281 N 0.17974 0.95102 0.69771 0.0
C282 C 0.14607 0.94305 0.71682 0.0
C283 C 0.16288 0.95761 0.71123 0.0
C284 C 0.14686 0.92133 0.70881 0.0
C285 C 0.16454 0.91507 0.69484 0.0
H286 H 0.19472 0.9253 0.67921 0.0
H287 H 0.16266 0.97411 0.71794 0.0
C288 C 0.20314 0.05294 0.69758 0.0
N289 N 0.20715 0.03545 0.71136 0.0
C290 C 0.19241 0.0714 0.70619 0.0
C291 C 0.19056 0.0536 0.74304 0.0
C292 C 0.20156 0.03565 0.73381 0.0
C293 C 0.18535 0.07149 0.729 0.0
H294 H 0.20709 0.05204 0.67961 0.0
H295 H 0.20446 0.02134 0.74424 0.0
C296 C 0.23648 0.94693 0.65847 0.0
N297 N 0.25221 0.9238 0.62138 0.0
C298 C 0.25871 0.94154 0.65711 0.0
C299 C 0.22222 0.94041 0.64107 0.0
C300 C 0.26634 0.92986 0.6382 0.0
C301 C 0.23051 0.92879 0.62243 0.0
C302 C 0.25168 0.02761 0.68305 0.0
C303 C 0.24994 0.04024 0.66322 0.0
C304 C 0.25958 0.03713 0.70313 0.0
C305 C 0.25596 0.06232 0.66389 0.0
C306 C 0.26539 0.05928 0.7031 0.0
N307 N 0.26347 0.07131 0.68365 0.0
C308 C 0.21352 0.99852 0.61765 0.0
C309 C 0.25033 0.98722 0.62285 0.0
C310 C 0.21669 0.00017 0.59411 0.0
N311 N 0.23016 0.99187 0.6314 0.0
C312 C 0.25412 0.98825 0.59938 0.0
C313 C 0.23715 0.99472 0.58458 0.0
H314 H 0.19779 0.00259 0.62497 0.0
H315 H 0.26339 0.9824 0.63425 0.0
C316 C 0.26577 0.94566 0.72142 0.0
N317 N 0.26716 0.96661 0.71371 0.0
C318 C 0.28383 0.93569 0.73162 0.0
C319 C 0.3047 0.9688 0.72509 0.0
C320 C 0.28607 0.97828 0.71529 0.0
C321 C 0.30363 0.94725 0.73345 0.0
H322 H 0.25063 0.93664 0.71945 0.0
H323 H 0.28675 0.99483 0.70876 0.0
O324 O 0.19628 0.99832 0.6739 0.0
O325 O 0.21558 0.98375 0.71998 0.0
O326 O 0.22874 0.95861 0.6767 0.0
O327 O 0.24568 0.00604 0.68281 0.0
H328 H 0.1664 0.02022 0.69755 0.0
H329 H 0.17604 0.97193 0.6449 0.0
H330 H 0.12624 0.01586 0.69302 0.0
H331 H 0.13568 0.96832 0.64139 0.0
H332 H 0.25749 0.98775 0.78398 0.0
H333 H 0.20481 0.94531 0.73774 0.0
H334 H 0.24349 0.00353 0.74774 0.0
H335 H 0.21939 0.9306 0.7742 0.0
H336 H 0.13271 0.94875 0.72742 0.0
H337 H 0.16618 0.89842 0.68868 0.0
H338 H 0.18833 0.08476 0.69478 0.0
H339 H 0.1853 0.05311 0.7607 0.0
H340 H 0.26999 0.94651 0.67038 0.0
H341 H 0.20499 0.94446 0.64186 0.0
H342 H 0.28352 0.92567 0.63686 0.0
H343 H 0.21969 0.92377 0.60876 0.0
H344 H 0.24385 0.03312 0.64754 0.0
H345 H 0.26103 0.02756 0.7186 0.0
H346 H 0.2546 0.07233 0.64871 0.0
H347 H 0.27141 0.0669 0.71855 0.0
H348 H 0.20325 0.00579 0.58357 0.0
H349 H 0.2701 0.98363 0.59296 0.0
H350 H 0.28247 0.91891 0.73749 0.0
H351 H 0.3197 0.97821 0.72621 0.0
Li352 Li 0.48622 0.28137 0.80067 0.0
Li353 Li 0.52419 0.2951 0.80309 0.0
Li354 Li 0.51524 0.256 0.79727 0.0
Li355 Li 0.50677 0.27344 0.83457 0.0
C356 C 0.51463 0.2737 0.75568 0.0
N357 N 0.52668 0.25757 0.71339 0.0
C358 C 0.53179 0.28344 0.74354 0.0
C359 C 0.50342 0.25594 0.74614 0.0
C360 C 0.53767 0.27501 0.72223 0.0
C361 C 0.50982 0.24796 0.7248 0.0
C362 C 0.50476 0.31921 0.83778 0.0
C363 C 0.5307 0.33413 0.86469 0.0
N364 N 0.51768 0.35204 0.86737 0.0
C365 C 0.49164 0.33776 0.84079 0.0
C366 C 0.52446 0.31737 0.84981 0.0
C367 C 0.49846 0.35418 0.85583 0.0
C368 C 0.4456 0.30294 0.80362 0.0
N369 N 0.45799 0.28983 0.79003 0.0
C370 C 0.43193 0.29282 0.75977 0.0
C371 C 0.45138 0.28432 0.76863 0.0
C372 C 0.4193 0.30732 0.77298 0.0
C373 C 0.42608 0.31191 0.79542 0.0
H374 H 0.45131 0.30706 0.82057 0.0
H375 H 0.46151 0.27388 0.75818 0.0
C376 C 0.56495 0.31028 0.78854 0.0
N377 N 0.54485 0.31716 0.79546 0.0
C378 C 0.58069 0.32543 0.78156 0.0
C379 C 0.55491 0.35457 0.78939 0.0
C380 C 0.53954 0.3388 0.79597 0.0
C381 C 0.57571 0.34789 0.78185 0.0
H382 H 0.56859 0.29293 0.78804 0.0
H383 H 0.52329 0.34381 0.80113 0.0
C384 C 0.46708 0.24747 0.81653 0.0
N385 N 0.42263 0.23893 0.81564 0.0
C386 C 0.45364 0.25473 0.83431 0.0
C387 C 0.45796 0.23574 0.79837 0.0
C388 C 0.4312 0.25027 0.83353 0.0
C389 C 0.43543 0.23162 0.79822 0.0
C390 C 0.55385 0.2604 0.82889 0.0
C391 C 0.55523 0.23766 0.83147 0.0
C392 C 0.57138 0.27356 0.83582 0.0
C393 C 0.57409 0.22848 0.84102 0.0
C394 C 0.58996 0.26376 0.8453 0.0
N395 N 0.59092 0.24161 0.84768 0.0
C396 C 0.5466 0.23268 0.77235 0.0
C397 C 0.51737 0.21059 0.78585 0.0
C398 C 0.55677 0.21449 0.76262 0.0
N399 N 0.52722 0.23044 0.78354 0.0
C400 C 0.52716 0.19185 0.77667 0.0
C401 C 0.54712 0.19373 0.76488 0.0
H402 H 0.55428 0.24862 0.77125 0.0
H403 H 0.50215 0.20925 0.7952 0.0
C404 C 0.49282 0.28257 0.87994 0.0
N405 N 0.50567 0.26929 0.86694 0.0
C406 C 0.49181 0.27971 0.90358 0.0
C407 C 0.51688 0.24927 0.90001 0.0
C408 C 0.51734 0.25268 0.87647 0.0
C409 C 0.50401 0.2629 0.91395 0.0
H410 H 0.48317 0.29528 0.87193 0.0
H411 H 0.5269 0.24194 0.86582 0.0
O412 O 0.50881 0.28161 0.7767 0.0
O413 O 0.49831 0.30311 0.82297 0.0
O414 O 0.48897 0.25224 0.81669 0.0
O415 O 0.5357 0.26972 0.81913 0.0
H416 H 0.54042 0.29741 0.75044 0.0
H417 H 0.49024 0.24806 0.75534 0.0
H418 H 0.55097 0.28235 0.7127 0.0
H419 H 0.50144 0.23407 0.71736 0.0
H420 H 0.54588 0.33288 0.87414 0.0
H421 H 0.47638 0.33948 0.83155 0.0
H422 H 0.53475 0.30313 0.84782 0.0
H423 H 0.48847 0.36863 0.85831 0.0
H424 H 0.42717 0.28856 0.74252 0.0
H425 H 0.41703 0.32317 0.80614 0.0
H426 H 0.5966 0.31964 0.776 0.0
H427 H 0.55037 0.37172 0.7896 0.0
H428 H 0.46043 0.26393 0.84841 0.0
H429 H 0.46811 0.23006 0.78444 0.0
H430 H 0.42058 0.2559 0.8471 0.0
H431 H 0.42812 0.22267 0.78421 0.0
H432 H 0.54175 0.2272 0.82649 0.0
H433 H 0.57069 0.29118 0.8339 0.0
H434 H 0.57532 0.21092 0.84319 0.0
H435 H 0.60363 0.27377 0.85075 0.0
H436 H 0.57235 0.21654 0.75401 0.0
H437 H 0.51926 0.17609 0.77877 0.0
H438 H 0.4813 0.29033 0.91356 0.0
H439 H 0.52667 0.23618 0.90721 0.0
Li440 Li 0.1995 0.52033 0.30692 0.0
Li441 Li 0.2141 0.48288 0.30405 0.0
Li442 Li 0.22358 0.50411 0.33708 0.0
Li443 Li 0.23821 0.51292 0.29933 0.0
C444 C 0.179 0.5008 0.3446 0.0
N445 N 0.14987 0.51319 0.37842 0.0
C446 C 0.16566 0.48517 0.35518 0.0
C447 C 0.1775 0.52274 0.35132 0.0
C448 C 0.15104 0.49176 0.37222 0.0
C449 C 0.16268 0.52868 0.36841 0.0
C450 C 0.21847 0.50977 0.2583 0.0
C451 C 0.24303 0.50431 0.22653 0.0
N452 N 0.23129 0.519 0.21407 0.0
C453 C 0.20656 0.5247 0.24512 0.0
C454 C 0.23676 0.49937 0.24888 0.0
C455 C 0.21333 0.52919 0.22282 0.0
C456 C 0.18224 0.55928 0.28986 0.0
N457 N 0.17628 0.53983 0.29929 0.0
C458 C 0.13834 0.549 0.29567 0.0
C459 C 0.15483 0.53437 0.30214 0.0
C460 C 0.14407 0.56908 0.28561 0.0
C461 C 0.16631 0.57417 0.2827 0.0
H462 H 0.19942 0.56299 0.28746 0.0
H463 H 0.15052 0.5186 0.30927 0.0
C464 C 0.19129 0.44293 0.30627 0.0
N465 N 0.2056 0.45456 0.29329 0.0
C466 C 0.18244 0.42335 0.29817 0.0
C467 C 0.20402 0.42748 0.26385 0.0
C468 C 0.21241 0.44704 0.27262 0.0
C469 C 0.18838 0.41564 0.27643 0.0
H470 H 0.18628 0.44921 0.32268 0.0
H471 H 0.22392 0.45646 0.26268 0.0
C472 C 0.24084 0.54757 0.32932 0.0
N473 N 0.2733 0.57633 0.34285 0.0
C474 C 0.26012 0.53964 0.33921 0.0
C475 C 0.23805 0.57011 0.32632 0.0
C476 C 0.27634 0.55445 0.34594 0.0
C477 C 0.25466 0.58439 0.33327 0.0
C478 C 0.25063 0.46532 0.31426 0.0
C479 C 0.24219 0.44837 0.32772 0.0
C480 C 0.26536 0.4604 0.29671 0.0
C481 C 0.24857 0.42679 0.32334 0.0
C482 C 0.27136 0.43861 0.29289 0.0
N483 N 0.26291 0.4224 0.30617 0.0
C484 C 0.24019 0.4875 0.379 0.0
C485 C 0.22353 0.52247 0.38158 0.0
C486 C 0.24443 0.48751 0.40243 0.0
N487 N 0.22962 0.50467 0.36913 0.0
C488 C 0.22729 0.52311 0.40507 0.0
C489 C 0.23775 0.50539 0.41581 0.0
H490 H 0.24543 0.47381 0.36873 0.0
H491 H 0.21585 0.53628 0.37327 0.0
C492 C 0.25786 0.54489 0.27208 0.0
N493 N 0.26245 0.52683 0.28477 0.0
C494 C 0.27475 0.55755 0.26303 0.0
C495 C 0.30092 0.53302 0.28054 0.0
C496 C 0.28345 0.52072 0.28917 0.0
C497 C 0.29666 0.55189 0.2675 0.0
H498 H 0.24102 0.54983 0.26954 0.0
H499 H 0.28665 0.50686 0.30017 0.0
O500 O 0.19352 0.49451 0.32797 0.0
O501 O 0.21215 0.50535 0.28026 0.0
O502 O 0.22503 0.53332 0.322 0.0
O503 O 0.24426 0.48654 0.31803 0.0
H504 H 0.16656 0.46809 0.35038 0.0
H505 H 0.18768 0.53513 0.34351 0.0
H506 H 0.14065 0.47981 0.38052 0.0
H507 H 0.1614 0.5456 0.37373 0.0
H508 H 0.25728 0.49652 0.21911 0.0
H509 H 0.19217 0.53267 0.25198 0.0
H510 H 0.24627 0.48792 0.25885 0.0
H511 H 0.20429 0.54074 0.21246 0.0
H512 H 0.12131 0.54448 0.29796 0.0
H513 H 0.17132 0.58953 0.27504 0.0
H514 H 0.17028 0.41495 0.3084 0.0
H515 H 0.20933 0.42199 0.24716 0.0
H516 H 0.26268 0.52223 0.3414 0.0
H517 H 0.22325 0.57651 0.31864 0.0
H518 H 0.29138 0.54854 0.35353 0.0
H519 H 0.25274 0.60188 0.33102 0.0
H520 H 0.23031 0.45174 0.34097 0.0
H521 H 0.27203 0.47321 0.28603 0.0
H522 H 0.24199 0.41352 0.33349 0.0
H523 H 0.2827 0.43459 0.27933 0.0
H524 H 0.25252 0.4735 0.41003 0.0
H525 H 0.2223 0.53742 0.41468 0.0
H526 H 0.27065 0.57183 0.25292 0.0
H527 H 0.31753 0.52831 0.28483 0.0
Li528 Li 0.97912 0.23942 0.79889 0.0
Li529 Li 0.98866 0.22367 0.83613 0.0
Li530 Li 0.00901 0.21403 0.80144 0.0
Li531 Li 0.97135 0.20081 0.8075 0.0
C532 C 0.0276 0.25033 0.8167 0.0
N533 N 0.07094 0.26334 0.81704 0.0
C534 C 0.03967 0.24958 0.83696 0.0
C535 C 0.03747 0.25789 0.79667 0.0
C536 C 0.06159 0.2562 0.83677 0.0
C537 C 0.05944 0.26432 0.79717 0.0
C538 C 0.94626 0.2347 0.83927 0.0
C539 C 0.92639 0.22895 0.87436 0.0
N540 N 0.92125 0.25063 0.87491 0.0
C541 C 0.94068 0.2569 0.8401 0.0
C542 C 0.93896 0.22056 0.85644 0.0
C543 C 0.92804 0.26464 0.85829 0.0
C544 C 0.94658 0.26254 0.77575 0.0
N545 N 0.96725 0.26439 0.78416 0.0
C546 C 0.96873 0.30213 0.77344 0.0
C547 C 0.97847 0.28361 0.78316 0.0
C548 C 0.94739 0.30065 0.76455 0.0
C549 C 0.93638 0.28049 0.7656 0.0
H550 H 0.93788 0.24718 0.77733 0.0
H551 H 0.99478 0.28465 0.79027 0.0
C552 C 0.99791 0.2128 0.88194 0.0
N553 N 0.99081 0.22911 0.86801 0.0
C554 C 0.99898 0.21606 0.90551 0.0
C555 C 0.9856 0.25295 0.8999 0.0
C556 C 0.98518 0.24908 0.87642 0.0
C557 C 0.99246 0.23627 0.91489 0.0
H558 H 0.00279 0.19724 0.87476 0.0
H559 H 0.98007 0.26192 0.86489 0.0
C560 C 0.97743 0.2198 0.7587 0.0
N561 N 0.96204 0.23449 0.71708 0.0
C562 C 0.95715 0.21261 0.75052 0.0
C563 C 0.98999 0.23427 0.74563 0.0
C564 C 0.94964 0.22027 0.72944 0.0
C565 C 0.98188 0.24158 0.72466 0.0
C566 C 0.99672 0.17247 0.82969 0.0
C567 C 0.01013 0.15807 0.81746 0.0
C568 C 0.98165 0.16416 0.84544 0.0
C569 C 0.00806 0.13553 0.82105 0.0
C570 C 0.98006 0.14152 0.84851 0.0
N571 N 0.99318 0.12779 0.83635 0.0
C572 C 0.05405 0.20228 0.80366 0.0
C573 C 0.03682 0.1975 0.7677 0.0
C574 C 0.07287 0.1916 0.79585 0.0
N575 N 0.03646 0.20475 0.78963 0.0
C576 C 0.05511 0.18642 0.75933 0.0
C577 C 0.07319 0.18294 0.77367 0.0
H578 H 0.05302 0.20746 0.82127 0.0
H579 H 0.02243 0.19919 0.7571 0.0
C580 C 0.9299 0.18075 0.80743 0.0
N581 N 0.95125 0.17769 0.80172 0.0
C582 C 0.91427 0.1649 0.80204 0.0
C583 C 0.94294 0.14282 0.78526 0.0
C584 C 0.95796 0.15929 0.79068 0.0
C585 C 0.92066 0.14557 0.79074 0.0
H586 H 0.92489 0.19581 0.81561 0.0
H587 H 0.97494 0.15754 0.78576 0.0
O588 O 0.00617 0.24381 0.81651 0.0
O589 O 0.95882 0.22684 0.82176 0.0
O590 O 0.98491 0.21279 0.77945 0.0
O591 O 0.99835 0.19458 0.82629 0.0
H592 H 0.03225 0.2438 0.85263 0.0
H593 H 0.02831 0.25863 0.78088 0.0
H594 H 0.07118 0.25561 0.85229 0.0
H595 H 0.06734 0.27009 0.78177 0.0
H596 H 0.92075 0.21823 0.88784 0.0
H597 H 0.94622 0.26808 0.82699 0.0
H598 H 0.94309 0.20333 0.85601 0.0
H599 H 0.92369 0.2818 0.85922 0.0
H600 H 0.97771 0.31743 0.77294 0.0
H601 H 0.91976 0.27881 0.75932 0.0
H602 H 0.00497 0.20289 0.91618 0.0
H603 H 0.98019 0.26872 0.90619 0.0
H604 H 0.94723 0.20141 0.76042 0.0
H605 H 0.00573 0.23994 0.75173 0.0
H606 H 0.93392 0.21495 0.72294 0.0
H607 H 0.99136 0.25289 0.71444 0.0
H608 H 0.02188 0.16419 0.8052 0.0
H609 H 0.9712 0.17509 0.85507 0.0
H610 H 0.01826 0.12419 0.81163 0.0
H611 H 0.96838 0.13486 0.86055 0.0
H612 H 0.08639 0.18883 0.80748 0.0
H613 H 0.05479 0.17982 0.74216 0.0
H614 H 0.89727 0.16812 0.80611 0.0
H615 H 0.94875 0.12819 0.77675 0.0
Li616 Li 0.264 0.97934 0.2995 0.0
Li617 Li 0.27817 0.99118 0.33674 0.0
Li618 Li 0.28645 0.01151 0.30179 0.0
Li619 Li 0.30289 0.97538 0.30899 0.0
C620 C 0.24793 0.02671 0.31585 0.0
N621 N 0.23023 0.06834 0.31475 0.0
C622 C 0.24695 0.03926 0.33578 0.0
C623 C 0.23971 0.03521 0.29542 0.0
C624 C 0.23797 0.06031 0.33486 0.0
C625 C 0.2309 0.05634 0.2952 0.0
C626 C 0.27063 0.94837 0.34109 0.0
C627 C 0.27696 0.93073 0.37735 0.0
N628 N 0.25588 0.92348 0.37738 0.0
C629 C 0.24905 0.94069 0.34144 0.0
C630 C 0.28475 0.94328 0.35913 0.0
C631 C 0.24191 0.92813 0.35995 0.0
C632 C 0.24488 0.94379 0.27776 0.0
N633 N 0.24066 0.96458 0.28474 0.0
C634 C 0.20322 0.96133 0.27328 0.0
C635 C 0.22041 0.97361 0.28257 0.0
C636 C 0.20702 0.93961 0.26625 0.0
C637 C 0.22832 0.93105 0.26822 0.0
H638 H 0.26108 0.93696 0.28006 0.0
H639 H 0.21747 0.99009 0.2886 0.0
C640 C 0.28756 0.0024 0.38234 0.0
N641 N 0.27202 0.99371 0.36843 0.0
C642 C 0.28393 0.00378 0.40582 0.0
C643 C 0.24826 0.98744 0.40017 0.0
C644 C 0.25244 0.98676 0.37675 0.0
C645 C 0.26418 0.99593 0.41515 0.0
H646 H 0.3028 0.00825 0.3752 0.0
H647 H 0.24019 0.98034 0.36522 0.0
C648 C 0.28424 0.97878 0.25968 0.0
N649 N 0.27144 0.9614 0.21823 0.0
C650 C 0.29316 0.95899 0.25207 0.0
C651 C 0.26897 0.98984 0.24613 0.0
C652 C 0.28645 0.95045 0.23107 0.0
C653 C 0.26266 0.98074 0.22525 0.0
C654 C 0.32872 0.00332 0.32999 0.0
C655 C 0.34186 0.01695 0.31655 0.0
C656 C 0.33843 0.98965 0.34625 0.0
C657 C 0.36458 0.01654 0.31951 0.0
C658 C 0.36121 0.9897 0.34866 0.0
N659 N 0.3737 0.00302 0.33534 0.0
C660 C 0.29311 0.05731 0.30405 0.0
C661 C 0.29939 0.04136 0.26776 0.0
C662 C 0.30052 0.07761 0.29622 0.0
N663 N 0.2928 0.03972 0.28983 0.0
C664 C 0.30727 0.06124 0.25931 0.0
C665 C 0.3083 0.07968 0.27371 0.0
H666 H 0.28836 0.0554 0.32171 0.0
H667 H 0.29952 0.02698 0.257 0.0
C668 C 0.32662 0.93613 0.31217 0.0
N669 N 0.32765 0.957 0.3042 0.0
C670 C 0.34344 0.92134 0.30749 0.0
C671 C 0.36228 0.94985 0.28662 0.0
C672 C 0.34497 0.96407 0.2916 0.0
C673 C 0.36154 0.92804 0.29439 0.0
H674 H 0.31239 0.93073 0.32156 0.0
H675 H 0.34512 0.98062 0.285 0.0
O676 O 0.25679 0.00614 0.31636 0.0
O677 O 0.27789 0.96086 0.32323 0.0
O678 O 0.29033 0.98723 0.28034 0.0
O679 O 0.30648 0.00325 0.32716 0.0
H680 H 0.2532 0.0329 0.35174 0.0
H681 H 0.24028 0.02565 0.27987 0.0
H682 H 0.2372 0.07026 0.35011 0.0
H683 H 0.2246 0.06319 0.27948 0.0
H684 H 0.28767 0.92678 0.39148 0.0
H685 H 0.23786 0.94454 0.32769 0.0
H686 H 0.30148 0.94914 0.35915 0.0
H687 H 0.22523 0.92215 0.36049 0.0
H688 H 0.18702 0.96852 0.27237 0.0
H689 H 0.23215 0.91456 0.26268 0.0
H690 H 0.29647 0.01103 0.41647 0.0
H691 H 0.23288 0.98096 0.40643 0.0
H692 H 0.30498 0.95021 0.26236 0.0
H693 H 0.26196 0.00519 0.25177 0.0
H694 H 0.29312 0.93509 0.22502 0.0
H695 H 0.25076 0.98905 0.21465 0.0
H696 H 0.33464 0.0276 0.30386 0.0
H697 H 0.32849 0.979 0.35677 0.0
H698 H 0.37496 0.02694 0.30917 0.0
H699 H 0.36895 0.97912 0.36108 0.0
H700 H 0.30069 0.09134 0.30791 0.0
H701 H 0.31351 0.06176 0.24202 0.0
H702 H 0.34181 0.9046 0.31337 0.0
H703 H 0.37593 0.9558 0.27658 0.0
Li704 Li 0.48807 0.77079 0.83596 0.0
Li705 Li 0.51081 0.78016 0.80299 0.0
Li706 Li 0.4731 0.79382 0.80612 0.0
Li707 Li 0.48093 0.75514 0.79795 0.0
C708 C 0.4968 0.82187 0.82983 0.0
N709 N 0.49253 0.86662 0.83533 0.0
C710 C 0.51005 0.83618 0.81732 0.0
C711 C 0.48148 0.83029 0.84524 0.0
C712 C 0.50763 0.85876 0.82034 0.0
C713 C 0.47953 0.85298 0.84774 0.0
C714 C 0.52786 0.74377 0.81895 0.0
C715 C 0.56026 0.72894 0.80117 0.0
N716 N 0.57116 0.73081 0.82134 0.0
C717 C 0.53931 0.74542 0.83954 0.0
C718 C 0.53833 0.73534 0.79964 0.0
C719 C 0.56122 0.73882 0.84038 0.0
C720 C 0.48154 0.74608 0.87658 0.0
N721 N 0.48867 0.76547 0.86793 0.0
C722 C 0.4976 0.77838 0.90528 0.0
C723 C 0.49684 0.78141 0.88169 0.0
C724 C 0.48966 0.7588 0.91491 0.0
C725 C 0.48158 0.7425 0.90013 0.0
H726 H 0.47564 0.73345 0.8652 0.0
H727 H 0.50297 0.79644 0.87432 0.0
C728 C 0.54418 0.79272 0.77206 0.0
N729 N 0.53949 0.78872 0.79435 0.0
C730 C 0.56397 0.80267 0.76608 0.0
C731 C 0.57405 0.80323 0.806 0.0
C732 C 0.55403 0.79341 0.81121 0.0
C733 C 0.57896 0.80863 0.78323 0.0
H734 H 0.5321 0.78927 0.75906 0.0
H735 H 0.54962 0.79049 0.82883 0.0
C736 C 0.44564 0.7598 0.83597 0.0
N737 N 0.41843 0.74338 0.86956 0.0
C738 C 0.43911 0.73785 0.83541 0.0
C739 C 0.43821 0.77343 0.85351 0.0
C740 C 0.42536 0.72985 0.85257 0.0
C741 C 0.42451 0.76481 0.87037 0.0
C742 C 0.48259 0.7754 0.75755 0.0
C743 C 0.46375 0.78403 0.74739 0.0
C744 C 0.49537 0.76023 0.74562 0.0
C745 C 0.45786 0.77712 0.72549 0.0
C746 C 0.4889 0.75371 0.72377 0.0
N747 N 0.47044 0.76221 0.71425 0.0
C748 C 0.46091 0.83499 0.78735 0.0
C749 C 0.43263 0.81583 0.8066 0.0
C750 C 0.44654 0.85208 0.78205 0.0
N751 N 0.45377 0.81743 0.79954 0.0
C752 C 0.41769 0.83242 0.80156 0.0
C753 C 0.42453 0.85089 0.7891 0.0
H754 H 0.47772 0.83562 0.78156 0.0
H755 H 0.42724 0.80147 0.81577 0.0
C756 C 0.47962 0.71018 0.78579 0.0
N757 N 0.46995 0.73002 0.78264 0.0
C758 C 0.47017 0.69131 0.77651 0.0
C759 C 0.44151 0.71383 0.76029 0.0
C760 C 0.45121 0.73214 0.7703 0.0
C761 C 0.45083 0.69308 0.76367 0.0
H762 H 0.49428 0.70893 0.79609 0.0
H763 H 0.44343 0.74799 0.7688 0.0
O764 O 0.49868 0.79971 0.82689 0.0
O765 O 0.50652 0.75045 0.81769 0.0
O766 O 0.45922 0.7679 0.81941 0.0
O767 O 0.48853 0.78182 0.77904 0.0
H768 H 0.52191 0.82996 0.80523 0.0
H769 H 0.4711 0.81943 0.85505 0.0
H770 H 0.5177 0.87004 0.8107 0.0
H771 H 0.46766 0.85973 0.85951 0.0
H772 H 0.56862 0.72251 0.78633 0.0
H773 H 0.53143 0.7519 0.85465 0.0
H774 H 0.52963 0.73389 0.78361 0.0
H775 H 0.57034 0.74011 0.85616 0.0
H776 H 0.50458 0.7912 0.91578 0.0
H777 H 0.47508 0.72722 0.90661 0.0
H778 H 0.56686 0.80683 0.74836 0.0
H779 H 0.58519 0.80731 0.81975 0.0
H780 H 0.44469 0.72705 0.82198 0.0
H781 H 0.44314 0.79045 0.85421 0.0
H782 H 0.42023 0.71288 0.85241 0.0
H783 H 0.41875 0.77514 0.88413 0.0
H784 H 0.45367 0.79579 0.75638 0.0
H785 H 0.51001 0.75343 0.75324 0.0
H786 H 0.44326 0.78357 0.71746 0.0
H787 H 0.49856 0.74187 0.7144 0.0
H788 H 0.45261 0.86602 0.77254 0.0
H789 H 0.4008 0.83047 0.80687 0.0
H790 H 0.47769 0.6755 0.77957 0.0
H791 H 0.42635 0.71572 0.75087 0.0
Li792 Li 0.71322 0.51058 0.30243 0.0
Li793 Li 0.72277 0.48924 0.33631 0.0
Li794 Li 0.7388 0.48079 0.29906 0.0
Li795 Li 0.70025 0.47279 0.30732 0.0
C796 C 0.74988 0.5286 0.31786 0.0
N797 N 0.76366 0.5717 0.31868 0.0
C798 C 0.7494 0.54046 0.33826 0.0
C799 C 0.75752 0.53858 0.29791 0.0
C800 C 0.75642 0.56226 0.33832 0.0
C801 C 0.76435 0.56042 0.29866 0.0
C802 C 0.67139 0.49717 0.32887 0.0
C803 C 0.6397 0.47895 0.34456 0.0
N804 N 0.62646 0.49258 0.33242 0.0
C805 C 0.65747 0.51104 0.3166 0.0
C806 C 0.66245 0.48104 0.34304 0.0
C807 C 0.6348 0.50845 0.31862 0.0
C808 C 0.69801 0.54024 0.2694 0.0
N809 N 0.70447 0.53855 0.29152 0.0
C810 C 0.69342 0.57544 0.29888 0.0
C811 C 0.70244 0.55564 0.30625 0.0
C812 C 0.68583 0.57749 0.2763 0.0
C813 C 0.68858 0.55959 0.26141 0.0
H814 H 0.69926 0.52621 0.25822 0.0
H815 H 0.70712 0.55365 0.32392 0.0
C816 C 0.74938 0.48889 0.37579 0.0
N817 N 0.72842 0.49064 0.36818 0.0
C818 C 0.7538 0.48903 0.39918 0.0
C819 C 0.71502 0.49336 0.40637 0.0
C820 C 0.71137 0.49308 0.38286 0.0
C821 C 0.73646 0.49115 0.41483 0.0
H822 H 0.76264 0.48715 0.36367 0.0
H823 H 0.69491 0.49481 0.37633 0.0
C824 C 0.71928 0.48006 0.2588 0.0
N825 N 0.73411 0.46546 0.21692 0.0
C826 C 0.71242 0.45976 0.25035 0.0
C827 C 0.7335 0.49302 0.24586 0.0
C828 C 0.72014 0.45266 0.22915 0.0
C829 C 0.74088 0.48531 0.22476 0.0
C830 C 0.73491 0.44813 0.33913 0.0
C831 C 0.75748 0.4444 0.34029 0.0
C832 C 0.72127 0.4403 0.35649 0.0
C833 C 0.76606 0.43298 0.35893 0.0
C834 C 0.7305 0.42901 0.37487 0.0
N835 N 0.75252 0.42561 0.37571 0.0
C836 C 0.783 0.48114 0.28311 0.0
C837 C 0.76238 0.44913 0.275 0.0
C838 C 0.80156 0.47202 0.27282 0.0
N839 N 0.76396 0.4696 0.28397 0.0
C840 C 0.78037 0.43954 0.26428 0.0
C841 C 0.80032 0.45095 0.26323 0.0
H842 H 0.78387 0.49726 0.29071 0.0
H843 H 0.74718 0.44014 0.27648 0.0
C844 C 0.65981 0.45995 0.28795 0.0
N845 N 0.677 0.45302 0.30082 0.0
C846 C 0.64291 0.4455 0.28234 0.0
C847 C 0.66198 0.41694 0.30291 0.0
C848 C 0.67839 0.432 0.3083 0.0
C849 C 0.64391 0.42359 0.2897 0.0
H850 H 0.65934 0.47669 0.2819 0.0
H851 H 0.69248 0.42681 0.31807 0.0
O852 O 0.74294 0.50731 0.31742 0.0
O853 O 0.69363 0.49924 0.32689 0.0
O854 O 0.71223 0.48714 0.27969 0.0
O855 O 0.72623 0.45968 0.32128 0.0
H856 H 0.74351 0.53299 0.35385 0.0
H857 H 0.758 0.52961 0.28199 0.0
H858 H 0.75606 0.57168 0.35396 0.0
H859 H 0.77019 0.5684 0.28333 0.0
H860 H 0.63256 0.46644 0.35533 0.0
H861 H 0.66406 0.52359 0.30552 0.0
H862 H 0.67297 0.47004 0.35251 0.0
H863 H 0.62384 0.51902 0.30916 0.0
H864 H 0.69193 0.58879 0.31096 0.0
H865 H 0.68256 0.56007 0.24403 0.0
H866 H 0.77056 0.48711 0.40493 0.0
H867 H 0.70121 0.49547 0.41777 0.0
H868 H 0.70145 0.4495 0.26016 0.0
H869 H 0.73892 0.50878 0.25215 0.0
H870 H 0.71507 0.43693 0.22246 0.0
H871 H 0.75201 0.49511 0.21463 0.0
H872 H 0.76829 0.45044 0.32708 0.0
H873 H 0.70378 0.44317 0.35592 0.0
H874 H 0.78351 0.43006 0.36012 0.0
H875 H 0.72017 0.423 0.38851 0.0
H876 H 0.81668 0.48129 0.27236 0.0
H877 H 0.77887 0.4231 0.25748 0.0
H878 H 0.62925 0.45147 0.27232 0.0
H879 H 0.66378 0.40014 0.30854 0.0
Li880 Li 0.01043 0.72316 0.83703 0.0
Li881 Li 0.98873 0.71419 0.80338 0.0
Li882 Li 0.02633 0.70055 0.80775 0.0
Li883 Li 0.01887 0.73914 0.79968 0.0
C884 C 0.00184 0.67193 0.82911 0.0
N885 N 0.00598 0.62691 0.83181 0.0
C886 C 0.988 0.65837 0.81637 0.0
C887 C 0.01772 0.66258 0.84329 0.0
C888 C 0.99035 0.63565 0.81797 0.0
C889 C 0.01959 0.63979 0.84438 0.0
C890 C 0.97139 0.75082 0.81892 0.0
C891 C 0.93964 0.7657 0.79994 0.0
N892 N 0.92827 0.76457 0.81988 0.0
C893 C 0.95945 0.74991 0.83926 0.0
C894 C 0.96149 0.75889 0.79912 0.0
C895 C 0.93765 0.75691 0.83938 0.0
C896 C 0.01105 0.74943 0.8768 0.0
N897 N 0.00911 0.72856 0.86896 0.0
C898 C 0.00567 0.71486 0.90698 0.0
C899 C 0.00624 0.71141 0.88344 0.0
C900 C 0.00798 0.73619 0.91567 0.0
C901 C 0.01063 0.75364 0.90023 0.0
H902 H 0.01298 0.76278 0.86483 0.0
H903 H 0.00447 0.69503 0.87674 0.0
C904 C 0.95648 0.70157 0.77115 0.0
N905 N 0.96024 0.7061 0.79351 0.0
C906 C 0.93651 0.69247 0.76438 0.0
C907 C 0.92442 0.69376 0.80366 0.0
C908 C 0.94467 0.70262 0.80969 0.0
C909 C 0.92033 0.68796 0.78083 0.0
H910 H 0.96935 0.70405 0.75873 0.0
H911 H 0.94832 0.70589 0.82742 0.0
C912 C 0.05151 0.7349 0.83963 0.0
N913 N 0.07408 0.75246 0.8762 0.0
C914 C 0.05551 0.75743 0.84067 0.0
C915 C 0.05909 0.72128 0.85713 0.0
C916 C 0.06696 0.76599 0.85931 0.0
C917 C 0.07041 0.73048 0.8755 0.0
C918 C 0.01883 0.71978 0.75934 0.0
C919 C 0.03882 0.71243 0.75055 0.0
C920 C 0.00614 0.73451 0.74673 0.0
C921 C 0.0459 0.72016 0.72934 0.0
C922 C 0.01381 0.74188 0.7256 0.0
N923 N 0.03337 0.73462 0.71743 0.0
C924 C 0.03914 0.66012 0.78798 0.0
C925 C 0.06676 0.67829 0.80921 0.0
C926 C 0.0536 0.64317 0.78253 0.0
N927 N 0.04591 0.67713 0.8012 0.0
C928 C 0.0818 0.6618 0.80405 0.0
C929 C 0.07534 0.64393 0.79048 0.0
H930 H 0.02253 0.65982 0.78154 0.0
H931 H 0.07185 0.69223 0.81925 0.0
C932 C 0.01961 0.78335 0.78354 0.0
N933 N 0.03059 0.76399 0.78449 0.0
C934 C 0.02929 0.80159 0.77317 0.0
C935 C 0.06113 0.77942 0.76472 0.0
C936 C 0.051 0.76178 0.77552 0.0
C937 C 0.05032 0.7997 0.7636 0.0
H938 H 0.00352 0.78473 0.79113 0.0
H939 H 0.05954 0.74632 0.77707 0.0
O940 O 2e-05 0.69423 0.82754 0.0
O941 O 0.99266 0.7438 0.81839 0.0
O942 O 0.03991 0.72626 0.82179 0.0
O943 O 0.01179 0.71272 0.78024 0.0
H944 H 0.9757 0.66527 0.8052 0.0
H945 H 0.02874 0.67281 0.85308 0.0
H946 H 0.97981 0.62497 0.80815 0.0
H947 H 0.03191 0.63234 0.85516 0.0
H948 H 0.93172 0.77186 0.78471 0.0
H949 H 0.96685 0.74366 0.85473 0.0
H950 H 0.97052 0.75971 0.78325 0.0
H951 H 0.92816 0.7562 0.85497 0.0
H952 H 0.00378 0.70092 0.91825 0.0
H953 H 0.01214 0.77037 0.90617 0.0
H954 H 0.9343 0.68793 0.74666 0.0
H955 H 0.91237 0.69084 0.81689 0.0
H956 H 0.04966 0.76824 0.82737 0.0
H957 H 0.05596 0.70383 0.85669 0.0
H958 H 0.07009 0.78341 0.86039 0.0
H959 H 0.07622 0.72016 0.88924 0.0
H960 H 0.04888 0.70108 0.76011 0.0
H961 H 0.99063 0.74034 0.75328 0.0
H962 H 0.06139 0.71472 0.72239 0.0
H963 H 0.00423 0.75339 0.71573 0.0
H964 H 0.0478 0.62966 0.77218 0.0
H965 H 0.09848 0.66339 0.81013 0.0
H966 H 0.02047 0.81699 0.77266 0.0
H967 H 0.07752 0.77742 0.75795 0.0
Li968 Li 0.77294 0.01046 0.33594 0.0
Li969 Li 0.78217 0.99064 0.30032 0.0
Li970 Li 0.7929 0.0275 0.30517 0.0
Li971 Li 0.75514 0.02008 0.29754 0.0
C972 C 0.82412 0.00242 0.32325 0.0
N973 N 0.8693 0.00348 0.32094 0.0
C974 C 0.83475 0.99851 0.3025 0.0
C975 C 0.83643 0.00683 0.34283 0.0
C976 C 0.85762 0.99913 0.30169 0.0
C977 C 0.85928 0.0073 0.3413 0.0
C978 C 0.74701 0.97103 0.31872 0.0
C979 C 0.72549 0.93963 0.30764 0.0
N980 N 0.73585 0.92742 0.32378 0.0
C981 C 0.7573 0.95822 0.33534 0.0
C982 C 0.73086 0.96173 0.30484 0.0
C983 C 0.75149 0.93618 0.33758 0.0
C984 C 0.75131 0.02011 0.37685 0.0
N985 N 0.76839 0.0088 0.36779 0.0
C986 C 0.77889 0.99583 0.40468 0.0
C987 C 0.78212 0.99679 0.38109 0.0
C988 C 0.76139 0.0074 0.41462 0.0
C989 C 0.7475 0.01966 0.40034 0.0
H990 H 0.74076 0.02963 0.36579 0.0
H991 H 0.79553 0.9879 0.37334 0.0
C992 C 0.78971 0.95415 0.26916 0.0
N993 N 0.79225 0.96208 0.29071 0.0
C994 C 0.80086 0.93532 0.26225 0.0
C995 C 0.81582 0.93205 0.30024 0.0
C996 C 0.80447 0.95102 0.30639 0.0
C997 C 0.81467 0.92443 0.27767 0.0
H998 H 0.77983 0.9627 0.2569 0.0
H999 H 0.80626 0.95752 0.32346 0.0
C1000 C 0.7728 0.06067 0.32474 0.0
N1001 N 0.78535 0.10382 0.3302 0.0
C1002 C 0.77079 0.07541 0.3066 0.0
C1003 C 0.78098 0.06788 0.34571 0.0
C1004 C 0.77731 0.09716 0.30968 0.0
C1005 C 0.78727 0.08977 0.34812 0.0
C1006 C 0.77395 0.00649 0.2563 0.0
C1007 C 0.78763 0.00834 0.23726 0.0
C1008 C 0.75338 0.99664 0.25396 0.0
C1009 C 0.78048 0.00037 0.21617 0.0
C1010 C 0.74678 0.98895 0.23258 0.0
N1011 N 0.76036 0.99094 0.21428 0.0
C1012 C 0.82774 0.05708 0.31645 0.0
C1013 C 0.81879 0.05435 0.27718 0.0
C1014 C 0.84398 0.07255 0.31168 0.0
N1015 N 0.81555 0.04837 0.29926 0.0
C1016 C 0.83494 0.0696 0.27161 0.0
C1017 C 0.84776 0.07894 0.28898 0.0
H1018 H 0.82476 0.05211 0.3339 0.0
H1019 H 0.80866 0.04742 0.26389 0.0
C1020 C 0.71004 0.03032 0.29669 0.0
N1021 N 0.72909 0.03208 0.28481 0.0
C1022 C 0.6911 0.04073 0.28881 0.0
C1023 C 0.71163 0.05395 0.25628 0.0
C1024 C 0.73024 0.04363 0.26498 0.0
C1025 C 0.69183 0.05282 0.26842 0.0
H1026 H 0.70973 0.02126 0.31257 0.0
H1027 H 0.74573 0.04521 0.25618 0.0
O1028 O 0.80174 0.00227 0.32429 0.0
O1029 O 0.75277 0.99254 0.31608 0.0
O1030 O 0.76697 0.03923 0.32191 0.0
O1031 O 0.78062 0.0147 0.27692 0.0
H1032 H 0.82542 0.99528 0.28714 0.0
H1033 H 0.82842 0.01005 0.35897 0.0
H1034 H 0.86607 0.99622 0.28574 0.0
H1035 H 0.86903 0.01077 0.35629 0.0
H1036 H 0.71305 0.93221 0.29699 0.0
H1037 H 0.76985 0.96515 0.34618 0.0
H1038 H 0.72244 0.97146 0.29215 0.0
H1039 H 0.75945 0.92604 0.35025 0.0
H1040 H 0.78983 0.98595 0.41496 0.0
H1041 H 0.73401 0.0291 0.40727 0.0
H1042 H 0.7993 0.92978 0.24475 0.0
H1043 H 0.82639 0.92421 0.31265 0.0
H1044 H 0.76455 0.07002 0.29024 0.0
H1045 H 0.78267 0.05663 0.35989 0.0
H1046 H 0.77602 0.10872 0.29575 0.0
H1047 H 0.79376 0.09558 0.36421 0.0
H1048 H 0.80365 0.01581 0.23874 0.0
H1049 H 0.74272 0.99474 0.2685 0.0
H1050 H 0.79091 0.00169 0.20131 0.0
H1051 H 0.73091 0.98129 0.23056 0.0
H1052 H 0.85357 0.0793 0.32555 0.0
H1053 H 0.83706 0.07436 0.25393 0.0
H1054 H 0.6761 0.03954 0.29863 0.0
H1055 H 0.7129 0.06343 0.2407 0.0
Li1056 Li 0.47973 0.74134 0.20099 0.0
Li1057 Li 0.47042 0.70294 0.19354 0.0
Li1058 Li 0.50863 0.7147 0.19814 0.0
Li1059 Li 0.48764 0.72427 0.16394 0.0
C1060 C 0.47864 0.7227 0.24171 0.0
N1061 N 0.46506 0.73902 0.28336 0.0
C1062 C 0.45814 0.71692 0.25048 0.0
C1063 C 0.49232 0.73661 0.25421 0.0
C1064 C 0.45156 0.72537 0.27156 0.0
C1065 C 0.48513 0.74475 0.2752 0.0
C1066 C 0.44623 0.73752 0.16134 0.0
C1067 C 0.42689 0.73281 0.12576 0.0
N1068 N 0.4223 0.75462 0.12547 0.0
C1069 C 0.44127 0.75987 0.16074 0.0
C1070 C 0.43892 0.72384 0.14377 0.0
C1071 C 0.42915 0.7682 0.14245 0.0
C1072 C 0.48182 0.7857 0.21623 0.0
N1073 N 0.46952 0.76713 0.21565 0.0
C1074 C 0.4403 0.78491 0.23543 0.0
C1075 C 0.44907 0.76646 0.22481 0.0
C1076 C 0.45253 0.80437 0.23623 0.0
C1077 C 0.47354 0.80469 0.22643 0.0
H1078 H 0.49792 0.78583 0.20854 0.0
H1079 H 0.43948 0.7516 0.22358 0.0
C1080 C 0.4551 0.66414 0.21491 0.0
N1081 N 0.44963 0.68068 0.20043 0.0
C1082 C 0.43944 0.64858 0.2213 0.0
C1083 C 0.41291 0.66744 0.19777 0.0
C1084 C 0.42907 0.68253 0.19177 0.0
C1085 C 0.41793 0.65033 0.21294 0.0
H1086 H 0.47148 0.66334 0.2219 0.0
H1087 H 0.42506 0.69602 0.18061 0.0
C1088 C 0.5278 0.75049 0.18156 0.0
N1089 N 0.57127 0.76299 0.17982 0.0
C1090 C 0.53929 0.7495 0.16095 0.0
C1091 C 0.53833 0.75803 0.20124 0.0
C1092 C 0.56128 0.75586 0.16043 0.0
C1093 C 0.56035 0.76421 0.20002 0.0
C1094 C 0.49345 0.67288 0.17274 0.0
C1095 C 0.50552 0.65869 0.18662 0.0
C1096 C 0.47796 0.66436 0.15757 0.0
C1097 C 0.50174 0.63615 0.18521 0.0
C1098 C 0.47464 0.64173 0.1567 0.0
N1099 N 0.4865 0.62821 0.17042 0.0
C1100 C 0.53829 0.69924 0.23122 0.0
C1101 C 0.55325 0.70268 0.19407 0.0
C1102 C 0.55762 0.6897 0.23915 0.0
N1103 N 0.53641 0.7053 0.209 0.0
C1104 C 0.57304 0.69358 0.20135 0.0
C1105 C 0.5753 0.68646 0.22408 0.0
H1106 H 0.52443 0.70097 0.24258 0.0
H1107 H 0.55111 0.70708 0.17634 0.0
C1108 C 0.48492 0.74907 0.12319 0.0
N1109 N 0.48946 0.72895 0.13192 0.0
C1110 C 0.48519 0.75247 0.09963 0.0
C1111 C 0.49618 0.71473 0.0946 0.0
C1112 C 0.49529 0.71197 0.11823 0.0
C1113 C 0.4908 0.73513 0.0849 0.0
H1114 H 0.48076 0.76241 0.13454 0.0
H1115 H 0.49929 0.69626 0.12567 0.0
O1116 O 0.48522 0.71492 0.22092 0.0
O1117 O 0.45827 0.72908 0.17898 0.0
O1118 O 0.50632 0.7442 0.18245 0.0
O1119 O 0.49659 0.69503 0.17416 0.0
H1120 H 0.44731 0.70622 0.241 0.0
H1121 H 0.50825 0.74121 0.24766 0.0
H1122 H 0.43568 0.72115 0.2785 0.0
H1123 H 0.49548 0.75564 0.28499 0.0
H1124 H 0.42126 0.72244 0.11197 0.0
H1125 H 0.44685 0.77072 0.17413 0.0
H1126 H 0.44273 0.70653 0.1439 0.0
H1127 H 0.42527 0.78548 0.14171 0.0
H1128 H 0.42388 0.78412 0.24241 0.0
H1129 H 0.48344 0.81942 0.2267 0.0
H1130 H 0.44392 0.63582 0.23327 0.0
H1131 H 0.39658 0.66929 0.19078 0.0
H1132 H 0.53138 0.74373 0.14555 0.0
H1133 H 0.52964 0.75894 0.21731 0.0
H1134 H 0.57042 0.75508 0.14462 0.0
H1135 H 0.56875 0.76994 0.21514 0.0
H1136 H 0.51753 0.665 0.1985 0.0
H1137 H 0.46844 0.67513 0.14675 0.0
H1138 H 0.51089 0.62497 0.19592 0.0
H1139 H 0.4626 0.63491 0.14515 0.0
H1140 H 0.55826 0.68406 0.25666 0.0
H1141 H 0.58621 0.69174 0.18913 0.0
H1142 H 0.48065 0.76843 0.09311 0.0
H1143 H 0.50119 0.70101 0.08411 0.0
Li1144 Li 0.75811 0.48174 0.70042 0.0
Li1145 Li 0.79661 0.47406 0.69332 0.0
Li1146 Li 0.78467 0.51234 0.69777 0.0
Li1147 Li 0.77656 0.49147 0.66308 0.0
C1148 C 0.77676 0.49532 0.7418 0.0
N1149 N 0.76353 0.51039 0.78411 0.0
C1150 C 0.78591 0.48654 0.76168 0.0
C1151 C 0.76104 0.51188 0.74345 0.0
C1152 C 0.77896 0.49434 0.78291 0.0
C1153 C 0.75453 0.51926 0.76498 0.0
C1154 C 0.7767 0.44069 0.67602 0.0
C1155 C 0.79675 0.41099 0.65869 0.0
N1156 N 0.78999 0.39743 0.67573 0.0
C1157 C 0.76986 0.42646 0.6933 0.0
C1158 C 0.79017 0.43291 0.65851 0.0
C1159 C 0.77678 0.40464 0.69286 0.0
C1160 C 0.7143 0.46897 0.69883 0.0
N1161 N 0.73181 0.47044 0.71308 0.0
C1162 C 0.7123 0.45154 0.74247 0.0
C1163 C 0.73114 0.46211 0.73461 0.0
C1164 C 0.69417 0.44922 0.7279 0.0
C1165 C 0.6952 0.45839 0.70593 0.0
H1166 H 0.71545 0.47548 0.68169 0.0
H1167 H 0.74548 0.46284 0.74537 0.0
C1168 C 0.83624 0.45001 0.68642 0.0
N1169 N 0.81904 0.45359 0.7007 0.0
C1170 C 0.85213 0.43442 0.69193 0.0
C1171 C 0.83259 0.4269 0.72698 0.0
C1172 C 0.81694 0.44242 0.72065 0.0
C1173 C 0.85042 0.42271 0.71248 0.0
H1174 H 0.83754 0.45912 0.6707 0.0
H1175 H 0.80291 0.44538 0.7315 0.0
C1176 C 0.7419 0.52626 0.67953 0.0
N1177 N 0.71285 0.56061 0.67381 0.0
C1178 C 0.74531 0.54173 0.6623 0.0
C1179 C 0.72354 0.52815 0.69369 0.0
C1180 C 0.7305 0.55901 0.65973 0.0
C1181 C 0.7091 0.54566 0.69058 0.0
C1182 C 0.81692 0.5081 0.65719 0.0
C1183 C 0.82155 0.5305 0.65588 0.0
C1184 C 0.82371 0.49417 0.6396 0.0
C1185 C 0.83279 0.53862 0.63689 0.0
C1186 C 0.83488 0.50293 0.62089 0.0
N1187 N 0.83915 0.52478 0.61993 0.0
C1188 C 0.81031 0.53748 0.7258 0.0
C1189 C 0.78589 0.55961 0.70439 0.0
C1190 C 0.81972 0.55595 0.73572 0.0
N1191 N 0.79377 0.53958 0.71045 0.0
C1192 C 0.79502 0.57863 0.71375 0.0
C1193 C 0.81223 0.57689 0.72957 0.0
H1194 H 0.81649 0.52137 0.73001 0.0
H1195 H 0.7729 0.56094 0.69201 0.0
C1196 C 0.76268 0.4748 0.62089 0.0
N1197 N 0.77174 0.49277 0.63085 0.0
C1198 C 0.75896 0.47433 0.59738 0.0
C1199 C 0.77365 0.51102 0.59477 0.0
C1200 C 0.77708 0.51076 0.61833 0.0
C1201 C 0.76451 0.4926 0.58397 0.0
H1202 H 0.75839 0.46077 0.63121 0.0
H1203 H 0.7842 0.52491 0.62653 0.0
O1204 O 0.78346 0.48786 0.72089 0.0
O1205 O 0.77068 0.46227 0.67656 0.0
O1206 O 0.75598 0.50895 0.68205 0.0
O1207 O 0.80597 0.49987 0.67568 0.0
H1208 H 0.79825 0.47385 0.76074 0.0
H1209 H 0.75411 0.51911 0.72829 0.0
H1210 H 0.78585 0.48765 0.79844 0.0
H1211 H 0.74237 0.53208 0.76647 0.0
H1212 H 0.8073 0.40477 0.64534 0.0
H1213 H 0.75954 0.43226 0.70704 0.0
H1214 H 0.79571 0.44376 0.64508 0.0
H1215 H 0.77172 0.39347 0.7062 0.0
H1216 H 0.71232 0.44435 0.75939 0.0
H1217 H 0.68153 0.45705 0.69422 0.0
H1218 H 0.86572 0.4317 0.68038 0.0
H1219 H 0.83054 0.41797 0.74282 0.0
H1220 H 0.75946 0.54066 0.65131 0.0
H1221 H 0.7204 0.5162 0.70694 0.0
H1222 H 0.73307 0.57118 0.64657 0.0
H1223 H 0.69488 0.54733 0.70147 0.0
H1224 H 0.81651 0.54152 0.66934 0.0
H1225 H 0.81999 0.47685 0.64015 0.0
H1226 H 0.83644 0.55592 0.63563 0.0
H1227 H 0.84005 0.49236 0.60707 0.0
H1228 H 0.83324 0.55387 0.7475 0.0
H1229 H 0.78878 0.59449 0.70859 0.0
H1230 H 0.7521 0.45969 0.58978 0.0
H1231 H 0.77789 0.52558 0.58518 0.0
Li1232 Li 0.03089 0.79084 0.19321 0.0
Li1233 Li 0.0186 0.75287 0.20007 0.0
Li1234 Li 0.01151 0.7713 0.16447 0.0
Li1235 Li 0.99223 0.78287 0.19894 0.0
C1236 C 0.0506 0.75467 0.15929 0.0
N1237 N 0.06959 0.73637 0.12091 0.0
C1238 C 0.04913 0.73212 0.1554 0.0
C1239 C 0.06196 0.76786 0.14378 0.0
C1240 C 0.0588 0.72319 0.13588 0.0
C1241 C 0.07137 0.75832 0.12443 0.0
C1242 C 0.00818 0.77257 0.24158 0.0
C1243 C 0.98341 0.75075 0.26422 0.0
N1244 N 0.99148 0.76023 0.28349 0.0
C1245 C 0.0162 0.78213 0.26158 0.0
C1246 C 0.99163 0.75677 0.24287 0.0
C1247 C 0.00755 0.77565 0.28261 0.0
C1248 C 0.04808 0.83013 0.21139 0.0
N1249 N 0.05331 0.81117 0.20048 0.0
C1250 C 0.09132 0.82031 0.20116 0.0
C1251 C 0.07438 0.80604 0.19529 0.0
C1252 C 0.08649 0.84001 0.2125 0.0
C1253 C 0.06451 0.84497 0.21743 0.0
H1254 H 0.03116 0.83362 0.21552 0.0
H1255 H 0.07806 0.79073 0.18685 0.0
C1256 C 0.01971 0.70666 0.20626 0.0
N1257 N 0.02689 0.72625 0.21438 0.0
C1258 C 0.02833 0.68714 0.21494 0.0
C1259 C 0.05041 0.70839 0.24112 0.0
C1260 C 0.04169 0.72747 0.23167 0.0
C1261 C 0.04413 0.68792 0.23237 0.0
H1262 H 0.00801 0.70624 0.19239 0.0
H1263 H 0.04728 0.74331 0.23757 0.0
C1264 C 0.01026 0.82266 0.16928 0.0
N1265 N 0.01996 0.86568 0.15836 0.0
C1266 C 0.99551 0.83941 0.17466 0.0
C1267 C 0.02971 0.82779 0.15786 0.0
C1268 C 0.00076 0.86106 0.16912 0.0
C1269 C 0.0344 0.84963 0.15263 0.0
C1270 C 0.97083 0.75134 0.17227 0.0
C1271 C 0.96238 0.76863 0.15929 0.0
C1272 C 0.95916 0.7317 0.17381 0.0
C1273 C 0.94233 0.76597 0.14813 0.0
C1274 C 0.93915 0.72969 0.1624 0.0
N1275 N 0.93122 0.74672 0.14991 0.0
C1276 C 0.0053 0.74615 0.12434 0.0
C1277 C 0.0112 0.78403 0.11793 0.0
C1278 C 0.0044 0.74225 0.10086 0.0
N1279 N 0.00893 0.76675 0.13235 0.0
C1280 C 0.0104 0.7809 0.09437 0.0
C1281 C 0.00716 0.75975 0.08552 0.0
H1282 H 0.00347 0.7327 0.13622 0.0
H1283 H 0.01375 0.80026 0.12468 0.0
C1284 C 0.97084 0.815 0.22268 0.0
N1285 N 0.96683 0.79537 0.21259 0.0
C1286 C 0.95364 0.82759 0.23115 0.0
C1287 C 0.92854 0.79863 0.22066 0.0
C1288 C 0.9463 0.78665 0.2121 0.0
C1289 C 0.93212 0.81965 0.22966 0.0
H1290 H 0.98743 0.82126 0.22329 0.0
H1291 H 0.94356 0.77072 0.20462 0.0
O1292 O 0.04072 0.76379 0.17802 0.0
O1293 O 0.01647 0.77885 0.22089 0.0
O1294 O 0.00544 0.80136 0.17477 0.0
O1295 O 0.99052 0.75334 0.18324 0.0
H1296 H 0.04038 0.72166 0.16712 0.0
H1297 H 0.06347 0.78529 0.14655 0.0
H1298 H 0.05763 0.70578 0.13259 0.0
H1299 H 0.08007 0.76837 0.11222 0.0
H1300 H 0.97062 0.73854 0.26548 0.0
H1301 H 0.02897 0.79442 0.26083 0.0
H1302 H 0.98516 0.74923 0.22758 0.0
H1303 H 0.01361 0.7829 0.29824 0.0
H1304 H 0.10804 0.81595 0.1969 0.0
H1305 H 0.06013 0.85985 0.22642 0.0
H1306 H 0.02307 0.67163 0.2078 0.0
H1307 H 0.06276 0.70967 0.25434 0.0
H1308 H 0.98003 0.83577 0.18274 0.0
H1309 H 0.04118 0.81507 0.1533 0.0
H1310 H 0.98951 0.87417 0.17328 0.0
H1311 H 0.04952 0.8538 0.14402 0.0
H1312 H 0.97112 0.78396 0.15783 0.0
H1313 H 0.9655 0.71815 0.18374 0.0
H1314 H 0.93559 0.77921 0.13805 0.0
H1315 H 0.92993 0.71458 0.16347 0.0
H1316 H 0.00204 0.72565 0.0948 0.0
H1317 H 0.01219 0.79493 0.0832 0.0
H1318 H 0.95707 0.84358 0.23834 0.0
H1319 H 0.91214 0.79195 0.21936 0.0
Li1320 Li 0.70151 0.0243 0.69256 0.0
Li1321 Li 0.73861 0.01544 0.70067 0.0
Li1322 Li 0.72328 0.00817 0.66292 0.0
Li1323 Li 0.7117 0.98658 0.69631 0.0
C1324 C 0.73212 0.05761 0.68524 0.0
N1325 N 0.74157 0.09939 0.70054 0.0
C1326 C 0.72764 0.06349 0.70785 0.0
C1327 C 0.74142 0.07297 0.67044 0.0
C1328 C 0.73254 0.08469 0.71525 0.0
C1329 C 0.74606 0.09401 0.67849 0.0
C1330 C 0.71848 -1e-05 0.7403 0.0
C1331 C 0.74111 0.97494 0.76174 0.0
N1332 N 0.73008 0.98043 0.78109 0.0
C1333 C 0.70733 0.00532 0.76038 0.0
C1334 C 0.73549 0.98463 0.74094 0.0
C1335 C 0.71346 0.99529 0.78084 0.0
C1336 C 0.66369 0.03854 0.71526 0.0
N1337 N 0.67824 0.04421 0.69874 0.0
C1338 C 0.65982 0.07824 0.69267 0.0
C1339 C 0.67643 0.06344 0.68719 0.0
C1340 C 0.64472 0.07309 0.71001 0.0
C1341 C 0.64665 0.05274 0.72112 0.0
H1342 H 0.6654 0.02299 0.72394 0.0
H1343 H 0.68806 0.06741 0.67389 0.0
C1344 C 0.78225 0.02951 0.70215 0.0
N1345 N 0.76441 0.02593 0.71553 0.0
C1346 C 0.80074 0.03998 0.71105 0.0
C1347 C 0.78247 0.0421 0.74757 0.0
C1348 C 0.76422 0.032 0.73786 0.0
C1349 C 0.80094 0.04672 0.73404 0.0
H1350 H 0.78174 0.02499 0.68429 0.0
H1351 H 0.74967 0.02978 0.74806 0.0
C1352 C 0.67416 0.00728 0.66315 0.0
N1353 N 0.63531 0.024 0.64633 0.0
C1354 C 0.65413 0.99906 0.67091 0.0
C1355 C 0.67445 0.02394 0.64677 0.0
C1356 C 0.63466 0.00775 0.66221 0.0
C1357 C 0.65463 0.03219 0.63849 0.0
C1358 C 0.74698 0.96988 0.67009 0.0
C1359 C 0.73077 0.95867 0.65793 0.0
C1360 C 0.76862 0.96244 0.6694 0.0
C1361 C 0.7365 0.94012 0.6453 0.0
C1362 C 0.77369 0.9438 0.65659 0.0
N1363 N 0.75766 0.93313 0.6449 0.0
C1364 C 0.74649 0.01868 0.62274 0.0
C1365 C 0.7158 0.99544 0.6173 0.0
C1366 C 0.75089 0.01854 0.59933 0.0
N1367 N 0.72916 0.00729 0.63116 0.0
C1368 C 0.71961 0.9948 0.59383 0.0
C1369 C 0.73729 0.00654 0.58451 0.0
H1370 H 0.75679 0.02799 0.63423 0.0
H1371 H 0.70213 0.98651 0.62448 0.0
C1372 C 0.68111 0.96139 0.71794 0.0
N1373 N 0.70114 0.9595 0.70806 0.0
C1374 C 0.67112 0.94328 0.72794 0.0
C1375 C 0.70268 0.92144 0.71769 0.0
C1376 C 0.71222 0.94014 0.70807 0.0
C1377 C 0.68187 0.92295 0.72782 0.0
H1378 H 0.67299 0.97715 0.71823 0.0
H1379 H 0.7285 0.93918 0.70092 0.0
O1380 O 0.72778 0.03688 0.67759 0.0
O1381 O 0.71235 0.00949 0.72013 0.0
O1382 O 0.69341 0.99945 0.67191 0.0
O1383 O 0.74194 0.98832 0.68229 0.0
H1384 H 0.72049 0.05184 0.71959 0.0
H1385 H 0.74504 0.06864 0.65292 0.0
H1386 H 0.72918 0.08945 0.73269 0.0
H1387 H 0.75327 0.10607 0.66722 0.0
H1388 H 0.75424 0.96305 0.76249 0.0
H1389 H 0.69407 0.0171 0.76013 0.0
H1390 H 0.74428 0.98021 0.7256 0.0
H1391 H 0.70499 0.99928 0.79652 0.0
H1392 H 0.65922 0.09378 0.68378 0.0
H1393 H 0.63518 0.0478 0.73424 0.0
H1394 H 0.81432 0.0435 0.69975 0.0
H1395 H 0.78186 0.04661 0.76543 0.0
H1396 H 0.65359 0.98615 0.68354 0.0
H1397 H 0.68981 0.03071 0.64081 0.0
H1398 H 0.61903 0.00159 0.66811 0.0
H1399 H 0.6546 0.04518 0.62592 0.0
H1400 H 0.71392 0.96409 0.65836 0.0
H1401 H 0.78137 0.97101 0.67866 0.0
H1402 H 0.72411 0.93126 0.63585 0.0
H1403 H 0.79037 0.93785 0.65591 0.0
H1404 H 0.76454 0.02804 0.59288 0.0
H1405 H 0.70889 0.98506 0.58313 0.0
H1406 H 0.655 0.94512 0.73547 0.0
H1407 H 0.7116 0.9061 0.71756 0.0
H1408 H 0.39329 0.19275 0.26304 0.0
H1409 H 0.30839 0.09807 0.23065 0.0
H1410 H 0.38936 0.1635 0.19596 0.0
H1411 H 0.33359 0.10819 0.29881 0.0
H1412 H 0.33075 0.12877 0.21736 0.0
H1413 H 0.36392 0.16843 0.2758 0.0
C1414 C 0.38622 0.18137 0.25092 0.0
C1415 C 0.39417 0.18002 0.22844 0.0
C1416 C 0.33111 0.12436 0.23527 0.0
C1417 C 0.36018 0.15252 0.2429 0.0
C1418 C 0.31846 0.10675 0.24288 0.0
C1419 C 0.31925 0.10019 0.26588 0.0
C1420 C 0.34445 0.1357 0.25078 0.0
C1421 C 0.33218 0.11261 0.28099 0.0
C1422 C 0.36937 0.16759 0.25822 0.0
C1423 C 0.38379 0.16535 0.21339 0.0
N1424 N 0.34436 0.12965 0.27314 0.0
N1425 N 0.36746 0.15208 0.22094 0.0
H1426 H 0.30386 0.38777 0.7539 0.0
H1427 H 0.41598 0.3241 0.7298 0.0
H1428 H 0.34548 0.39882 0.69537 0.0
H1429 H 0.3798 0.31812 0.79286 0.0
H1430 H 0.38682 0.34689 0.71441 0.0
H1431 H 0.32831 0.35818 0.76603 0.0
C1432 C 0.31801 0.38391 0.7435 0.0
C1433 C 0.32265 0.39599 0.72364 0.0
C1434 C 0.38512 0.34046 0.73155 0.0
C1435 C 0.35057 0.36201 0.73736 0.0
C1436 C 0.40172 0.32723 0.74031 0.0
C1437 C 0.40044 0.31921 0.76275 0.0
C1438 C 0.36707 0.34586 0.74529 0.0
C1439 C 0.38166 0.32423 0.77562 0.0
C1440 C 0.33191 0.36695 0.75041 0.0
C1441 C 0.34102 0.3899 0.71065 0.0
N1442 N 0.36578 0.33737 0.76677 0.0
N1443 N 0.35435 0.37349 0.71782 0.0
H1444 H 0.10269 0.30431 0.25906 0.0
H1445 H 0.17439 0.41079 0.23231 0.0
H1446 H 0.09868 0.34188 0.19672 0.0
H1447 H 0.17541 0.37729 0.29725 0.0
H1448 H 0.15121 0.38188 0.21696 0.0
H1449 H 0.13326 0.32742 0.27142 0.0
C1450 C 0.10831 0.31729 0.24789 0.0
C1451 C 0.09793 0.32122 0.22688 0.0
C1452 C 0.15666 0.38071 0.23451 0.0
C1453 C 0.13299 0.34763 0.24086 0.0
C1454 C 0.1701 0.39715 0.24326 0.0
C1455 C 0.17675 0.39662 0.2662 0.0
C1456 C 0.14966 0.3636 0.24879 0.0
C1457 C 0.17033 0.37861 0.27959 0.0
C1458 C 0.12583 0.33041 0.25492 0.0
C1459 C 0.10623 0.33803 0.21294 0.0
N1460 N 0.15698 0.36293 0.27075 0.0
N1461 N 0.1231 0.35069 0.22027 0.0
H1462 H 0.14611 0.06538 0.74969 0.0
H1463 H 0.11768 0.19006 0.77365 0.0
H1464 H 0.18973 0.11631 0.72639 0.0
H1465 H 0.06863 0.1414 0.75825 0.0
H1466 H 0.14641 0.16339 0.76321 0.0
H1467 H 0.11949 0.09331 0.7608 0.0
C1468 C 0.15019 0.0825 0.74723 0.0
C1469 C 0.17013 0.08862 0.73722 0.0
C1470 C 0.12932 0.15872 0.76203 0.0
C1471 C 0.13976 0.12059 0.74979 0.0
C1472 C 0.11303 0.17382 0.76799 0.0
C1473 C 0.09086 0.16787 0.76657 0.0
C1474 C 0.12326 0.13748 0.7553 0.0
C1475 C 0.08555 0.14666 0.75927 0.0
C1476 C 0.13494 0.09838 0.75337 0.0
C1477 C 0.17447 0.11101 0.73404 0.0
N1478 N 0.10164 0.13216 0.75411 0.0
N1479 N 0.1594 0.12629 0.74043 0.0
H1480 H 0.59517 0.84322 0.80767 0.0
H1481 H 0.67831 0.8815 0.71007 0.0
H1482 H 0.60645 0.80619 0.74594 0.0
H1483 H 0.66079 0.92037 0.76882 0.0
H1484 H 0.65674 0.85102 0.72557 0.0
H1485 H 0.62394 0.86856 0.79645 0.0
C1486 C 0.60397 0.84013 0.79194 0.0
C1487 C 0.59826 0.82252 0.77769 0.0
C1488 C 0.6578 0.86615 0.73516 0.0
C1489 C 0.63101 0.85199 0.76441 0.0
C1490 C 0.67019 0.88349 0.72639 0.0
C1491 C 0.67108 0.90355 0.73806 0.0
C1492 C 0.64636 0.86892 0.75578 0.0
C1493 C 0.66019 0.90531 0.75907 0.0
C1494 C 0.62031 0.85478 0.78543 0.0
C1495 C 0.61005 0.81972 0.75729 0.0
N1496 N 0.64818 0.88829 0.76717 0.0
N1497 N 0.62576 0.83441 0.75116 0.0
H1498 H 0.59515 0.68649 0.26643 0.0
H1499 H 0.68514 0.59686 0.23374 0.0
H1500 H 0.60094 0.65815 0.19905 0.0
H1501 H 0.65801 0.60342 0.30158 0.0
H1502 H 0.66098 0.62629 0.22079 0.0
H1503 H 0.62497 0.66281 0.27938 0.0
C1504 C 0.60267 0.67543 0.2543 0.0
C1505 C 0.59518 0.67422 0.23162 0.0
C1506 C 0.66056 0.62137 0.23856 0.0
C1507 C 0.62974 0.64752 0.24631 0.0
C1508 C 0.67425 0.60449 0.24598 0.0
C1509 C 0.67349 0.5973 0.26878 0.0
C1510 C 0.64622 0.6314 0.25408 0.0
C1511 C 0.65943 0.60839 0.28392 0.0
C1512 C 0.61979 0.66202 0.26171 0.0
C1513 C 0.60615 0.65995 0.2166 0.0
N1514 N 0.64628 0.62478 0.27626 0.0
N1515 N 0.62278 0.6471 0.22424 0.0
H1516 H 0.89539 0.69072 0.74164 0.0
H1517 H 0.82491 0.58459 0.7736 0.0
H1518 H 0.89992 0.65587 0.80565 0.0
H1519 H 0.82504 0.61388 0.70655 0.0
H1520 H 0.84776 0.61458 0.78746 0.0
H1521 H 0.86537 0.66646 0.73024 0.0
C1522 C 0.89 0.67811 0.75337 0.0
C1523 C 0.90037 0.6753 0.7746 0.0
C1524 C 0.84264 0.6146 0.76976 0.0
C1525 C 0.8659 0.64761 0.76172 0.0
C1526 C 0.82962 0.59746 0.76184 0.0
C1527 C 0.82333 0.59659 0.73883 0.0
C1528 C 0.84957 0.63099 0.75454 0.0
C1529 C 0.82952 0.61392 0.72443 0.0
C1530 C 0.87279 0.66434 0.74689 0.0
C1531 C 0.89237 0.65891 0.78924 0.0
N1532 N 0.84254 0.63029 0.73246 0.0
N1533 N 0.87577 0.64562 0.78245 0.0
H1534 H 0.82441 0.88508 0.29835 0.0
H1535 H 0.9253 0.86163 0.21621 0.0
H1536 H 0.8394 0.92422 0.23902 0.0
H1537 H 0.89682 0.81032 0.25724 0.0
H1538 H 0.89523 0.88585 0.22698 0.0
H1539 H 0.85192 0.85815 0.28595 0.0
C1540 C 0.83335 0.88789 0.28265 0.0
C1541 C 0.82958 0.90686 0.26965 0.0
C1542 C 0.89545 0.86927 0.23358 0.0
C1543 C 0.86109 0.87643 0.2556 0.0
C1544 C 0.91269 0.85551 0.22757 0.0
C1545 C 0.91356 0.83403 0.23599 0.0
C1546 C 0.87905 0.86165 0.24839 0.0
C1547 C 0.89666 0.82679 0.25039 0.0
C1548 C 0.84894 0.87252 0.27556 0.0
C1549 C 0.84155 0.90971 0.24941 0.0
N1550 N 0.88013 0.84067 0.25635 0.0
N1551 N 0.85689 0.89479 0.24315 0.0
H1552 H 0.5681 0.30499 0.2762 0.0
H1553 H 0.62164 0.42088 0.24897 0.0
H1554 H 0.5488 0.34465 0.21865 0.0
H1555 H 0.62702 0.38942 0.31481 0.0
H1556 H 0.59506 0.39317 0.23747 0.0
H1557 H 0.59011 0.33555 0.29054 0.0
C1558 C 0.56841 0.3202 0.26667 0.0
C1559 C 0.55671 0.3223 0.24617 0.0
C1560 C 0.60193 0.39244 0.2545 0.0
C1561 C 0.58194 0.35725 0.26236 0.0
C1562 C 0.61706 0.40835 0.26116 0.0
C1563 C 0.62674 0.40751 0.28291 0.0
C1564 C 0.59657 0.37537 0.26956 0.0
C1565 C 0.62037 0.39054 0.29772 0.0
C1566 C 0.5809 0.33765 0.27489 0.0
C1567 C 0.55749 0.34242 0.2346 0.0
N1568 N 0.60583 0.37507 0.29071 0.0
N1569 N 0.57009 0.35905 0.24272 0.0
H1570 H 0.19293 0.56579 0.78131 0.0
H1571 H 0.0793 0.62245 0.74944 0.0
H1572 H 0.15715 0.55144 0.71956 0.0
H1573 H 0.10832 0.62618 0.81659 0.0
H1574 H 0.10728 0.59596 0.7384 0.0
H1575 H 0.16197 0.58777 0.79473 0.0
C1576 C 0.17849 0.56718 0.77064 0.0
C1577 C 0.17762 0.55685 0.74926 0.0
C1578 C 0.10743 0.60245 0.75561 0.0
C1579 C 0.14219 0.58202 0.76443 0.0
C1580 C 0.09135 0.61752 0.76199 0.0
C1581 C 0.09145 0.62672 0.78398 0.0
C1582 C 0.12388 0.59662 0.77123 0.0
C1583 C 0.1078 0.6199 0.79932 0.0
C1584 C 0.16079 0.57964 0.77834 0.0
C1585 C 0.15843 0.55899 0.73623 0.0
N1586 N 0.12343 0.6054 0.7926 0.0
N1587 N 0.14156 0.5715 0.74392 0.0
H1588 H 0.87751 0.07822 0.25403 0.0
H1589 H 0.9185 0.20081 0.27555 0.0
H1590 H 0.85623 0.11765 0.31101 0.0
H1591 H 0.94481 0.15874 0.22307 0.0
H1592 H 0.89673 0.1701 0.28986 0.0
H1593 H 0.90337 0.10703 0.24337 0.0
C1594 C 0.87833 0.09295 0.26432 0.0
C1595 C 0.86459 0.09562 0.28333 0.0
C1596 C 0.90741 0.16752 0.27534 0.0
C1597 C 0.89419 0.12867 0.27128 0.0
C1598 C 0.91976 0.18507 0.26711 0.0
C1599 C 0.93338 0.18236 0.248 0.0
C1600 C 0.90852 0.14714 0.26426 0.0
C1601 C 0.93464 0.16153 0.23793 0.0
C1602 C 0.89317 0.10934 0.2583 0.0
C1603 C 0.86659 0.11487 0.29629 0.0
N1604 N 0.92221 0.14477 0.24606 0.0
N1605 N 0.88097 0.13074 0.28991 0.0
H1606 H 0.34541 0.9463 0.71646 0.0
H1607 H 0.39056 0.86721 0.81476 0.0
H1608 H 0.30613 0.92345 0.77287 0.0
H1609 H 0.42186 0.87425 0.74902 0.0
H1610 H 0.36242 0.89318 0.80271 0.0
H1611 H 0.37662 0.92551 0.73149 0.0
C1612 C 0.34347 0.93715 0.73217 0.0
C1613 C 0.32316 0.93644 0.74338 0.0
C1614 C 0.37553 0.88912 0.79099 0.0
C1615 C 0.35865 0.91265 0.76058 0.0
C1616 C 0.39156 0.8742 0.7978 0.0
C1617 C 0.40852 0.86825 0.7828 0.0
C1618 C 0.37647 0.89832 0.76906 0.0
C1619 C 0.40923 0.87839 0.76125 0.0
C1620 C 0.36121 0.92519 0.74065 0.0
C1621 C 0.32144 0.92419 0.76357 0.0
N1622 N 0.39337 0.89283 0.75499 0.0
N1623 N 0.33894 0.91273 0.7715 0.0
H1624 H 0.55458 0.15479 0.7866 0.0
H1625 H 0.62162 0.10196 0.683 0.0
H1626 H 0.56565 0.18823 0.72274 0.0
H1627 H 0.62878 0.08112 0.75312 0.0
H1628 H 0.59573 0.13005 0.69549 0.0
H1629 H 0.57607 0.12371 0.77247 0.0
C1630 C 0.5613 0.15544 0.76949 0.0
C1631 C 0.55846 0.17411 0.75584 0.0
C1632 C 0.60292 0.11922 0.70808 0.0
C1633 C 0.58305 0.13875 0.73964 0.0
C1634 C 0.61781 0.10324 0.701 0.0
C1635 C 0.62764 0.08918 0.71702 0.0
C1636 C 0.59761 0.12106 0.7313 0.0
C1637 C 0.62151 0.09134 0.74006 0.0
C1638 C 0.57367 0.1378 0.76151 0.0
C1639 C 0.56768 0.17422 0.73389 0.0
N1640 N 0.60695 0.107 0.7465 0.0
N1641 N 0.5796 0.15681 0.72646 0.0
H1642 H 0.4202 0.60565 0.21868 0.0
H1643 H 0.29766 0.59671 0.26652 0.0
H1644 H 0.37605 0.66051 0.22546 0.0
H1645 H 0.33716 0.53999 0.25076 0.0
H1646 H 0.32714 0.62025 0.25311 0.0
H1647 H 0.39101 0.58124 0.2322 0.0
C1648 C 0.40439 0.61255 0.22305 0.0
C1649 C 0.40051 0.63514 0.22082 0.0
C1650 C 0.32939 0.60265 0.2525 0.0
C1651 C 0.36712 0.60738 0.23625 0.0
C1652 C 0.31246 0.58916 0.26003 0.0
C1653 C 0.31479 0.56627 0.25955 0.0
C1654 C 0.34895 0.5933 0.24451 0.0
C1655 C 0.33467 0.55753 0.25157 0.0
C1656 C 0.38773 0.59862 0.23065 0.0
C1657 C 0.37968 0.64318 0.22655 0.0
N1658 N 0.35099 0.57106 0.24433 0.0
N1659 N 0.36383 0.62934 0.23403 0.0
H1660 H 0.86719 0.39011 0.68561 0.0
H1661 H 0.94487 0.34155 0.78338 0.0
H1662 H 0.87108 0.41724 0.7535 0.0
H1663 H 0.92394 0.30403 0.7249 0.0
H1664 H 0.92324 0.37267 0.76957 0.0
H1665 H 0.89324 0.3615 0.69688 0.0
C1666 C 0.87371 0.39014 0.70281 0.0
C1667 C 0.86693 0.40595 0.7187 0.0
C1668 C 0.92351 0.35766 0.7597 0.0
C1669 C 0.89664 0.3734 0.73166 0.0
C1670 C 0.93596 0.33999 0.76747 0.0
C1671 C 0.93608 0.3202 0.75529 0.0
C1672 C 0.91129 0.35558 0.73949 0.0
C1673 C 0.92407 0.31895 0.7349 0.0
C1674 C 0.88845 0.37378 0.70926 0.0
C1675 C 0.87571 0.40518 0.74083 0.0
N1676 N 0.91213 0.3364 0.72763 0.0
N1677 N 0.89013 0.38917 0.74666 0.0
H1678 H 0.12526 0.82879 0.23255 0.0
H1679 H 0.17204 0.95106 0.23891 0.0
H1680 H 0.08835 0.88491 0.20953 0.0
H1681 H 0.20027 0.89601 0.27472 0.0
H1682 H 0.1424 0.92718 0.22557 0.0
H1683 H 0.15449 0.85321 0.24513 0.0
C1684 C 0.12339 0.84627 0.23 0.0
C1685 C 0.10437 0.85483 0.21993 0.0
C1686 C 0.15513 0.92039 0.23634 0.0
C1687 C 0.13773 0.88296 0.2345 0.0
C1688 C 0.172 0.93402 0.24404 0.0
C1689 C 0.18882 0.92554 0.25785 0.0
C1690 C 0.15513 0.89812 0.24241 0.0
C1691 C 0.188 0.90323 0.26371 0.0
C1692 C 0.14001 0.86023 0.23734 0.0
C1693 C 0.10267 0.87766 0.21739 0.0
N1694 N 0.17151 0.89033 0.25592 0.0
N1695 N 0.11918 0.89096 0.22457 0.0
H1696 H 0.35763 0.58878 0.7576 0.0
H1697 H 0.43652 0.68449 0.72036 0.0
H1698 H 0.38192 0.59271 0.68861 0.0
H1699 H 0.43851 0.65728 0.78826 0.0
H1700 H 0.41409 0.65323 0.70795 0.0
H1701 H 0.38461 0.6164 0.76922 0.0
C1702 C 0.36874 0.59547 0.74496 0.0
C1703 C 0.36765 0.5886 0.72216 0.0
C1704 C 0.4197 0.654 0.72548 0.0
C1705 C 0.39818 0.62024 0.73517 0.0
C1706 C 0.43239 0.67179 0.73255 0.0
C1707 C 0.43934 0.67333 0.75531 0.0
C1708 C 0.41349 0.63802 0.74147 0.0
C1709 C 0.43359 0.65654 0.77052 0.0
C1710 C 0.38415 0.61108 0.75158 0.0
C1711 C 0.38238 0.59761 0.70637 0.0
N1712 N 0.42071 0.63971 0.7634 0.0
N1713 N 0.39691 0.61324 0.71311 0.0
H1714 H 0.92075 0.3792 0.24917 0.0
H1715 H 0.80306 0.42883 0.22276 0.0
H1716 H 0.88932 0.37354 0.18335 0.0
H1717 H 0.84185 0.44875 0.28072 0.0
H1718 H 0.83455 0.40851 0.20795 0.0
H1719 H 0.89242 0.40505 0.26092 0.0
C1720 C 0.90811 0.3836 0.23703 0.0
C1721 C 0.90741 0.37397 0.21524 0.0
C1722 C 0.83627 0.41751 0.22379 0.0
C1723 C 0.87458 0.40327 0.22887 0.0
C1724 C 0.81828 0.42901 0.23228 0.0
C1725 C 0.81985 0.44037 0.25303 0.0
C1726 C 0.8559 0.41708 0.23631 0.0
C1727 C 0.84 0.44029 0.26458 0.0
C1728 C 0.89184 0.39829 0.24383 0.0
C1729 C 0.89033 0.38012 0.20047 0.0
N1730 N 0.85718 0.4286 0.2562 0.0
N1731 N 0.87451 0.3942 0.20762 0.0
H1732 H 0.07267 0.8018 0.72319 0.0
H1733 H 0.12579 0.9178 0.75015 0.0
H1734 H 0.05379 0.84107 0.78118 0.0
H1735 H 0.12941 0.88746 0.68361 0.0
H1736 H 0.09969 0.88978 0.76198 0.0
H1737 H 0.09405 0.83269 0.70854 0.0
C1738 C 0.07294 0.817 0.73274 0.0
C1739 C 0.06154 0.81889 0.75346 0.0
C1740 C 0.10607 0.88937 0.74473 0.0
C1741 C 0.08605 0.8542 0.73693 0.0
C1742 C 0.12091 0.90546 0.73788 0.0
C1743 C 0.12996 0.90504 0.71581 0.0
C1744 C 0.10036 0.87252 0.72955 0.0
C1745 C 0.12326 0.88827 0.70092 0.0
C1746 C 0.08505 0.83463 0.72435 0.0
C1747 C 0.06225 0.83899 0.76507 0.0
N1748 N 0.10902 0.87259 0.70811 0.0
N1749 N 0.07451 0.8558 0.75677 0.0
H1750 H 0.5981 0.15644 0.25096 0.0
H1751 H 0.67384 0.05376 0.22561 0.0
H1752 H 0.58395 0.112 0.19565 0.0
H1753 H 0.66631 0.08072 0.29322 0.0
H1754 H 0.6434 0.07686 0.21242 0.0
H1755 H 0.62601 0.13094 0.26496 0.0
C1756 C 0.60095 0.1413 0.24176 0.0
C1757 C 0.58883 0.13628 0.22211 0.0
C1758 C 0.64831 0.07753 0.23018 0.0
C1759 C 0.62073 0.10717 0.2379 0.0
C1760 C 0.66567 0.06446 0.23766 0.0
C1761 C 0.67251 0.06536 0.26052 0.0
C1762 C 0.63809 0.09192 0.24556 0.0
C1763 C 0.66139 0.07942 0.27551 0.0
C1764 C 0.61674 0.12672 0.24982 0.0
C1765 C 0.59295 0.11638 0.21092 0.0
N1766 N 0.64488 0.09234 0.26771 0.0
N1767 N 0.60875 0.1026 0.21884 0.0
H1768 H 0.45198 0.84595 0.21868 0.0
H1769 H 0.37877 0.89454 0.32013 0.0
H1770 H 0.43098 0.80815 0.27695 0.0
H1771 H 0.38349 0.92457 0.25353 0.0
H1772 H 0.40377 0.86577 0.30744 0.0
H1773 H 0.43295 0.87798 0.23435 0.0
C1774 C 0.44362 0.8445 0.23493 0.0
C1775 C 0.44289 0.82437 0.24648 0.0
C1776 C 0.39944 0.87877 0.29568 0.0
C1777 C 0.4211 0.86081 0.26442 0.0
C1778 C 0.38509 0.89517 0.30287 0.0
C1779 C 0.37872 0.91192 0.28781 0.0
C1780 C 0.40765 0.87914 0.27331 0.0
C1781 C 0.38798 0.91212 0.26582 0.0
C1782 C 0.43266 0.86271 0.24378 0.0
C1783 C 0.43168 0.82331 0.26737 0.0
N1784 N 0.40186 0.8959 0.2592 0.0
N1785 N 0.42118 0.84126 0.27565 0.0
H1786 H 0.67236 0.41836 0.70293 0.0
H1787 H 0.58754 0.38679 0.80182 0.0
H1788 H 0.67261 0.44949 0.76909 0.0
H1789 H 0.60075 0.34596 0.74328 0.0
H1790 H 0.61516 0.41294 0.78819 0.0
H1791 H 0.64231 0.39486 0.71549 0.0
C1792 C 0.6659 0.42044 0.72002 0.0
C1793 C 0.675 0.43591 0.73499 0.0
C1794 C 0.61198 0.39825 0.77835 0.0
C1795 C 0.64074 0.40887 0.74957 0.0
C1796 C 0.59618 0.38341 0.78605 0.0
C1797 C 0.59199 0.36414 0.77372 0.0
C1798 C 0.62343 0.3939 0.75804 0.0
C1799 C 0.6037 0.36047 0.75347 0.0
C1800 C 0.64887 0.40689 0.72724 0.0
C1801 C 0.66619 0.43763 0.75708 0.0
N1802 N 0.61885 0.37522 0.74625 0.0
N1803 N 0.64953 0.42427 0.76371 0.0
H1804 H 0.10931 0.58529 0.30981 0.0
H1805 H 0.06247 0.65608 0.20591 0.0
H1806 H 0.14019 0.58797 0.24366 0.0
H1807 H 0.05211 0.67439 0.27622 0.0
H1808 H 0.08488 0.62511 0.21869 0.0
H1809 H 0.08231 0.61249 0.29681 0.0
C1810 C 0.11024 0.59148 0.29251 0.0
C1811 C 0.12701 0.58457 0.27779 0.0
C1812 C 0.07753 0.6358 0.2313 0.0
C1813 C 0.09625 0.61528 0.26282 0.0
C1814 C 0.06461 0.65333 0.22405 0.0
C1815 C 0.0555 0.66779 0.24006 0.0
C1816 C 0.08112 0.63256 0.25473 0.0
C1817 C 0.05901 0.66367 0.26335 0.0
C1818 C 0.09495 0.607 0.28515 0.0
C1819 C 0.12762 0.59309 0.25556 0.0
N1820 N 0.07157 0.64641 0.27002 0.0
N1821 N 0.11243 0.60797 0.24872 0.0
H1822 H 0.88327 0.13333 0.81376 0.0
H1823 H 0.84498 0.04331 0.72365 0.0
H1824 H 0.91987 0.11963 0.75221 0.0
H1825 H 0.7998 0.07975 0.76597 0.0
H1826 H 0.87495 0.06597 0.73826 0.0
H1827 H 0.85481 0.10813 0.80086 0.0
C1828 C 0.88538 0.12511 0.79753 0.0
C1829 C 0.90401 0.12892 0.78397 0.0
C1830 C 0.85844 0.06884 0.74436 0.0
C1831 C 0.87161 0.09955 0.76944 0.0
C1832 C 0.84127 0.05601 0.73596 0.0
C1833 C 0.81967 0.05952 0.74352 0.0
C1834 C 0.85407 0.08509 0.76067 0.0
C1835 C 0.81612 0.076 0.7599 0.0
C1836 C 0.86915 0.11062 0.79027 0.0
C1837 C 0.906 0.11714 0.76341 0.0
N1838 N 0.83311 0.08811 0.76794 0.0
N1839 N 0.88999 0.10302 0.75676 0.0
H1840 H 0.49681 0.27927 0.06096 0.0
H1841 H 0.5034 0.22391 0.93731 0.0
H1842 H 0.50834 0.21026 0.0499 0.0
H1843 H 0.50273 0.29393 0.94795 0.0
H1844 H 0.50305 0.21854 0.97857 0.0
H1845 H 0.49693 0.28492 0.01966 0.0
C1846 C 0.49949 0.26531 0.04989 0.0
C1847 C 0.50258 0.24424 0.05901 0.0
C1848 C 0.50299 0.23509 0.97189 0.0
C1849 C 0.5024 0.25058 0.01163 0.0
C1850 C 0.50331 0.23818 0.9483 0.0
C1851 C 0.50322 0.25943 0.93907 0.0
C1852 C 0.50249 0.25334 0.98646 0.0
C1853 C 0.50258 0.27726 0.95424 0.0
C1854 C 0.49943 0.26855 0.02629 0.0
C1855 C 0.50556 0.22674 0.04373 0.0
N1856 N 0.50226 0.27381 0.97718 0.0
N1857 N 0.50539 0.23031 0.02084 0.0
H1858 H 0.27464 0.49273 0.43907 0.0
H1859 H 0.22223 0.51359 0.5624 0.0
H1860 H 0.20945 0.51826 0.44951 0.0
H1861 H 0.29066 0.49863 0.55181 0.0
H1862 H 0.21678 0.51359 0.52115 0.0
H1863 H 0.28028 0.4927 0.48043 0.0
C1864 C 0.26149 0.49826 0.45008 0.0
C1865 C 0.24155 0.50552 0.44083 0.0
C1866 C 0.233 0.51034 0.52785 0.0
C1867 C 0.24791 0.50561 0.48815 0.0
C1868 C 0.23617 0.51044 0.55143 0.0
C1869 C 0.25697 0.50618 0.56067 0.0
C1870 C 0.25073 0.50583 0.5133 0.0
C1871 C 0.27427 0.50174 0.54553 0.0
C1872 C 0.26476 0.49835 0.47367 0.0
C1873 C 0.22517 0.51276 0.45588 0.0
N1874 N 0.27076 0.50168 0.52261 0.0
N1875 N 0.22869 0.51255 0.47879 0.0
H1876 H 0.98408 0.29272 0.05009 0.0
H1877 H 0.98391 0.20639 0.949 0.0
H1878 H 0.99835 0.22414 0.06113 0.0
H1879 H 0.00125 0.27434 0.93857 0.0
H1880 H 0.98422 0.21264 0.99014 0.0
H1881 H 0.98535 0.28637 0.00899 0.0
C1882 C 0.98766 0.27636 0.04399 0.0
C1883 C 0.9912 0.25897 0.05932 0.0
C1884 C 0.98801 0.22613 0.97878 0.0
C1885 C 0.99201 0.25157 0.01212 0.0
C1886 C 0.98798 0.22258 0.95525 0.0
C1887 C 0.99263 0.23983 0.94008 0.0
C1888 C 0.99233 0.24716 0.98729 0.0
C1889 C 0.99718 0.26059 0.94942 0.0
C1890 C 0.98825 0.27277 0.02048 0.0
C1891 C 0.99515 0.23803 0.05015 0.0
N1892 N 0.99679 0.26368 0.97239 0.0
N1893 N 0.99533 0.2349 0.02718 0.0
H1894 H 0.2943 0.99046 0.44968 0.0
H1895 H 0.20768 0.98554 0.55024 0.0
H1896 H 0.22529 0.00217 0.4383 0.0
H1897 H 0.27477 0.00575 0.56118 0.0
H1898 H 0.21402 0.98679 0.50912 0.0
H1899 H 0.2877 0.9912 0.49072 0.0
C1900 C 0.27779 0.9934 0.45569 0.0
C1901 C 0.26036 0.99635 0.44029 0.0
C1902 C 0.22729 0.99101 0.52059 0.0
C1903 C 0.25268 0.99653 0.48743 0.0
C1904 C 0.22369 0.99044 0.54411 0.0
C1905 C 0.24069 0.99558 0.55941 0.0
C1906 C 0.24813 0.99639 0.51223 0.0
C1907 C 0.26123 0.00124 0.55022 0.0
C1908 C 0.27405 0.99367 0.47918 0.0
C1909 C 0.23923 0.99944 0.44935 0.0
N1910 N 0.2644 0.00135 0.52726 0.0
N1911 N 0.23597 0.99933 0.47231 0.0
H1912 H 0.48378 0.78955 0.94879 0.0
H1913 H 0.48016 0.70521 0.05144 0.0
H1914 H 0.49584 0.72038 0.93891 0.0
H1915 H 0.5015 0.77222 0.0604 0.0
H1916 H 0.48046 0.71073 0.01019 0.0
H1917 H 0.48477 0.7838 0.98997 0.0
C1918 C 0.48681 0.77318 0.95515 0.0
C1919 C 0.48985 0.75546 0.94013 0.0
C1920 C 0.48511 0.72416 0.02126 0.0
C1921 C 0.4903 0.74876 0.98743 0.0
C1922 C 0.4851 0.72103 0.04486 0.0
C1923 C 0.49089 0.73824 0.05965 0.0
C1924 C 0.49055 0.74476 0.01232 0.0
C1925 C 0.49652 0.75854 0.04987 0.0
C1926 C 0.48723 0.76993 0.97872 0.0
C1927 C 0.49305 0.73453 0.94965 0.0
N1928 N 0.49609 0.76126 0.02685 0.0
N1929 N 0.49308 0.73175 0.97267 0.0
H1930 H 0.79099 0.50921 0.55025 0.0
H1931 H 0.71214 0.47139 0.44837 0.0
H1932 H 0.72949 0.47564 0.5605 0.0
H1933 H 0.77032 0.51048 0.4383 0.0
H1934 H 0.7189 0.47178 0.48942 0.0
H1935 H 0.78434 0.50892 0.50912 0.0
C1936 C 0.77602 0.50189 0.54388 0.0
C1937 C 0.76076 0.49245 0.5589 0.0
C1938 C 0.7302 0.48029 0.47825 0.0
C1939 C 0.75319 0.49182 0.51176 0.0
C1940 C 0.72628 0.48017 0.45479 0.0
C1941 C 0.74063 0.491 0.43982 0.0
C1942 C 0.74864 0.49127 0.48689 0.0
C1943 C 0.75894 0.50171 0.44914 0.0
C1944 C 0.7723 0.50162 0.52037 0.0
C1945 C 0.74186 0.48285 0.54959 0.0
N1946 N 0.7624 0.5016 0.47206 0.0
N1947 N 0.73861 0.48279 0.52664 0.0
H1948 H 0.98017 0.73265 0.0608 0.0
H1949 H 0.03406 0.76401 0.9404 0.0
H1950 H 0.03369 0.77832 0.05311 0.0
H1951 H 0.98138 0.71736 0.94795 0.0
H1952 H 0.03367 0.76996 0.98164 0.0
H1953 H 0.9802 0.72689 0.0195 0.0
C1954 C 0.992 0.74139 0.05046 0.0
C1955 C 0.00693 0.75602 0.06047 0.0
C1956 C 0.02218 0.75842 0.97428 0.0
C1957 C 0.00692 0.74968 0.01312 0.0
C1958 C 0.02231 0.75513 0.95071 0.0
C1959 C 0.00773 0.74016 0.94068 0.0
C1960 C 0.00736 0.7467 0.98798 0.0
C1961 C 0.9931 0.72885 0.95496 0.0
C1962 C 0.99193 0.73819 0.02685 0.0
C1963 C 0.02167 0.76713 0.04614 0.0
N1964 N 0.99328 0.73236 0.97787 0.0
N1965 N 0.0213 0.76372 0.02323 0.0
H1966 H 0.77673 0.00482 0.5619 0.0
H1967 H 0.72222 0.00513 0.4375 0.0
H1968 H 0.70698 0.00811 0.54996 0.0
H1969 H 0.79205 0.00823 0.44897 0.0
H1970 H 0.71641 0.0049 0.47872 0.0
H1971 H 0.78277 0.00486 0.52064 0.0
C1972 C 0.76268 0.00566 0.55063 0.0
C1973 C 0.7413 0.00645 0.55947 0.0
C1974 C 0.73301 0.00563 0.47223 0.0
C1975 C 0.74811 0.00624 0.51217 0.0
C1976 C 0.73634 0.00588 0.44867 0.0
C1977 C 0.75766 0.00678 0.4397 0.0
C1978 C 0.75112 0.00625 0.48703 0.0
C1979 C 0.77533 0.00727 0.45507 0.0
C1980 C 0.76615 0.00556 0.52706 0.0
C1981 C 0.72374 0.00716 0.54398 0.0
N1982 N 0.77166 0.00703 0.47796 0.0
N1983 N 0.72754 0.00704 0.52113 0.0
loop_
_geom_bond_atom_site_label_1
_geom_bond_atom_site_label_2
_geom_bond_distance
_geom_bond_site_symmetry_2
_ccdc_geom_bond_type
Li0 N17 1.990 . S
Li0 O60 1.956 . S
Li0 O61 1.970 . S
Li0 O62 1.961 . S
Li1 N25 1.990 . S
Li1 O60 1.970 . S
Li1 O61 1.956 . S
Li1 O63 1.961 . S
Li2 N47 1.990 . S
Li2 O60 1.961 . S
Li2 O62 1.956 . S
Li2 O63 1.970 . S
Li3 N53 1.990 . S
Li3 O61 1.961 . S
Li3 O62 1.970 . S
Li3 O63 1.956 . S
C4 C6 1.348 . S
C4 C7 1.356 . S
C4 O60 1.325 . S
N5 C8 1.314 . S
N5 C9 1.279 . S
C6 C4 1.348 . S
C6 C8 1.353 . S
C6 H64 0.929 . S
C7 C4 1.356 . S
C7 C9 1.358 . S
C7 H65 0.930 . S
C8 N5 1.314 . S
C8 C6 1.353 . S
C8 H66 0.930 . S
C9 N5 1.279 . S
C9 C7 1.358 . S
C9 H67 0.930 . S
C10 C13 1.348 . S
C10 C14 1.356 . S
C10 O61 1.325 . S
C11 N12 1.279 . S
C11 C14 1.358 . S
C11 H68 0.930 . S
N12 C11 1.279 . S
N12 C15 1.314 . S
C13 C10 1.348 . S
C13 C15 1.353 . S
C13 H69 0.929 . S
C14 C10 1.356 . S
C14 C11 1.358 . S
C14 H70 0.930 . S
C15 N12 1.314 . S
C15 C13 1.353 . S
C15 H71 0.930 . S
C16 N17 1.314 . S
C16 C21 1.353 . S
C16 H22 0.930 . S
N17 Li0 1.990 . S
N17 C16 1.314 . S
N17 C19 1.279 . S
C18 C19 1.358 . S
C18 C20 1.356 . S
C18 H72 0.930 . S
C19 N17 1.279 . S
C19 C18 1.358 . S
C19 H23 0.930 . S
C20 C18 1.356 . S
C20 C21 1.348 . S
C21 C16 1.353 . S
C21 C20 1.348 . S
C21 H73 0.929 . S
H22 C16 0.930 . S
H23 C19 0.930 . S
C24 N25 1.314 . S
C24 C26 1.353 . S
C24 H30 0.930 . S
N25 Li1 1.990 . S
N25 C24 1.314 . S
N25 C28 1.279 . S
C26 C24 1.353 . S
C26 C29 1.348 . S
C26 H74 0.929 . S
C27 C28 1.358 . S
C27 C29 1.356 . S
C27 H75 0.930 . S
C28 N25 1.279 . S
C28 C27 1.358 . S
C28 H31 0.930 . S
C29 C26 1.348 . S
C29 C27 1.356 . S
H30 C24 0.930 . S
H31 C28 0.930 . S
C32 C34 1.348 . S
C32 C35 1.356 . S
C32 O62 1.325 . S
N33 C36 1.314 . S
N33 C37 1.279 . S
C34 C32 1.348 . S
C34 C36 1.353 . S
C34 H76 0.929 . S
C35 C32 1.356 . S
C35 C37 1.358 . S
C35 H77 0.930 . S
C36 N33 1.314 . S
C36 C34 1.353 . S
C36 H78 0.930 . S
C37 N33 1.279 . S
C37 C35 1.358 . S
C37 H79 0.930 . S
C38 C39 1.348 . S
C38 C40 1.356 . S
C38 O63 1.325 . S
C39 C38 1.348 . S
C39 C41 1.353 . S
C39 H80 0.929 . S
C40 C38 1.356 . S
C40 C42 1.358 . S
C40 H81 0.930 . S
C41 C39 1.353 . S
C41 N43 1.314 . S
C41 H82 0.930 . S
C42 C40 1.358 . S
C42 N43 1.279 . S
C42 H83 0.930 . S
N43 C41 1.314 . S
N43 C42 1.279 . S
C44 C46 1.353 . S
C44 N47 1.314 . S
C44 H50 0.930 . S
C45 N47 1.279 . S
C45 C48 1.358 . S
C45 H51 0.930 . S
C46 C44 1.353 . S
C46 C49 1.348 . S
C46 H84 0.929 . S
N47 Li2 1.990 . S
N47 C44 1.314 . S
N47 C45 1.279 . S
C48 C45 1.358 . S
C48 C49 1.356 . S
C48 H85 0.930 . S
C49 C46 1.348 . S
C49 C48 1.356 . S
H50 C44 0.930 . S
H51 C45 0.930 . S
C52 N53 1.314 . S
C52 C54 1.353 . S
C52 H58 0.930 . S
N53 Li3 1.990 . S
N53 C52 1.314 . S
N53 C56 1.279 . S
C54 C52 1.353 . S
C54 C57 1.348 . S
C54 H86 0.929 . S
C55 C56 1.358 . S
C55 C57 1.356 . S
C55 H87 0.930 . S
C56 N53 1.279 . S
C56 C55 1.358 . S
C56 H59 0.930 . S
C57 C54 1.348 . S
C57 C55 1.356 . S
H58 C52 0.930 . S
H59 C56 0.930 . S
O60 Li0 1.956 . S
O60 Li1 1.970 . S
O60 Li2 1.961 . S
O60 C4 1.325 . S
O61 Li0 1.970 . S
O61 Li1 1.956 . S
O61 Li3 1.961 . S
O61 C10 1.325 . S
O62 Li0 1.961 . S
O62 Li2 1.956 . S
O62 Li3 1.970 . S
O62 C32 1.325 . S
O63 Li1 1.961 . S
O63 Li2 1.970 . S
O63 Li3 1.956 . S
O63 C38 1.325 . S
H64 C6 0.929 . S
H65 C7 0.930 . S
H66 C8 0.930 . S
H67 C9 0.930 . S
H68 C11 0.930 . S
H69 C13 0.929 . S
H70 C14 0.930 . S
H71 C15 0.930 . S
H72 C18 0.930 . S
H73 C21 0.929 . S
H74 C26 0.929 . S
H75 C27 0.930 . S
H76 C34 0.929 . S
H77 C35 0.930 . S
H78 C36 0.930 . S
H79 C37 0.930 . S
H80 C39 0.929 . S
H81 C40 0.930 . S
H82 C41 0.930 . S
H83 C42 0.930 . S
H84 C46 0.929 . S
H85 C48 0.930 . S
H86 C54 0.929 . S
H87 C55 0.930 . S
Li88 N105 1.990 . S
Li88 O148 1.956 . S
Li88 O149 1.970 . S
Li88 O150 1.961 . S
Li89 N113 1.990 . S
Li89 O148 1.970 . S
Li89 O149 1.956 . S
Li89 O151 1.961 . S
Li90 N135 1.990 . S
Li90 O148 1.961 . S
Li90 O150 1.956 . S
Li90 O151 1.970 . S
Li91 N141 1.990 . S
Li91 O149 1.961 . S
Li91 O150 1.970 . S
Li91 O151 1.956 . S
C92 C94 1.348 . S
C92 C95 1.356 . S
C92 O148 1.325 . S
N93 C96 1.314 . S
N93 C97 1.279 . S
C94 C92 1.348 . S
C94 C96 1.353 . S
C94 H152 0.929 . S
C95 C92 1.356 . S
C95 C97 1.358 . S
C95 H153 0.930 . S
C96 N93 1.314 . S
C96 C94 1.353 . S
C96 H154 0.930 . S
C97 N93 1.279 . S
C97 C95 1.358 . S
C97 H155 0.930 . S
C98 C101 1.348 . S
C98 C102 1.356 . S
C98 O149 1.325 . S
C99 N100 1.279 . S
C99 C102 1.358 . S
C99 H156 0.930 . S
N100 C99 1.279 . S
N100 C103 1.314 . S
C101 C98 1.348 . S
C101 C103 1.353 . S
C101 H157 0.929 . S
C102 C98 1.356 . S
C102 C99 1.358 . S
C102 H158 0.930 . S
C103 N100 1.314 . S
C103 C101 1.353 . S
C103 H159 0.930 . S
C104 N105 1.314 . S
C104 C109 1.353 . S
C104 H110 0.930 . S
N105 Li88 1.990 . S
N105 C104 1.314 . S
N105 C107 1.279 . S
C106 C107 1.358 . S
C106 C108 1.356 . S
C106 H160 0.930 . S
C107 N105 1.279 . S
C107 C106 1.358 . S
C107 H111 0.930 . S
C108 C106 1.356 . S
C108 C109 1.348 . S
C109 C104 1.353 . S
C109 C108 1.348 . S
C109 H161 0.929 . S
H110 C104 0.930 . S
H111 C107 0.930 . S
C112 N113 1.314 . S
C112 C114 1.353 . S
C112 H118 0.930 . S
N113 Li89 1.990 . S
N113 C112 1.314 . S
N113 C116 1.279 . S
C114 C112 1.353 . S
C114 C117 1.348 . S
C114 H162 0.929 . S
C115 C116 1.358 . S
C115 C117 1.356 . S
C115 H163 0.930 . S
C116 N113 1.279 . S
C116 C115 1.358 . S
C116 H119 0.930 . S
C117 C114 1.348 . S
C117 C115 1.356 . S
H118 C112 0.930 . S
H119 C116 0.930 . S
C120 C122 1.348 . S
C120 C123 1.356 . S
C120 O150 1.325 . S
N121 C124 1.314 . S
N121 C125 1.279 . S
C122 C120 1.348 . S
C122 C124 1.353 . S
C122 H164 0.929 . S
C123 C120 1.356 . S
C123 C125 1.358 . S
C123 H165 0.930 . S
C124 N121 1.314 . S
C124 C122 1.353 . S
C124 H166 0.930 . S
C125 N121 1.279 . S
C125 C123 1.358 . S
C125 H167 0.930 . S
C126 C127 1.348 . S
C126 C128 1.356 . S
C126 O151 1.325 . S
C127 C126 1.348 . S
C127 C129 1.353 . S
C127 H168 0.929 . S
C128 C126 1.356 . S
C128 C130 1.358 . S
C128 H169 0.930 . S
C129 C127 1.353 . S
C129 N131 1.314 . S
C129 H170 0.930 . S
C130 C128 1.358 . S
C130 N131 1.279 . S
C130 H171 0.930 . S
N131 C129 1.314 . S
N131 C130 1.279 . S
C132 C134 1.353 . S
C132 N135 1.314 . S
C132 H138 0.930 . S
C133 N135 1.279 . S
C133 C136 1.358 . S
C133 H139 0.930 . S
C134 C132 1.353 . S
C134 C137 1.348 . S
C134 H172 0.929 . S
N135 Li90 1.990 . S
N135 C132 1.314 . S
N135 C133 1.279 . S
C136 C133 1.358 . S
C136 C137 1.356 . S
C136 H173 0.930 . S
C137 C134 1.348 . S
C137 C136 1.356 . S
H138 C132 0.930 . S
H139 C133 0.930 . S
C140 N141 1.314 . S
C140 C142 1.353 . S
C140 H146 0.930 . S
N141 Li91 1.990 . S
N141 C140 1.314 . S
N141 C144 1.279 . S
C142 C140 1.353 . S
C142 C145 1.348 . S
C142 H174 0.929 . S
C143 C144 1.358 . S
C143 C145 1.356 . S
C143 H175 0.930 . S
C144 N141 1.279 . S
C144 C143 1.358 . S
C144 H147 0.930 . S
C145 C142 1.348 . S
C145 C143 1.356 . S
H146 C140 0.930 . S
H147 C144 0.930 . S
O148 Li88 1.956 . S
O148 Li89 1.970 . S
O148 Li90 1.961 . S
O148 C92 1.325 . S
O149 Li88 1.970 . S
O149 Li89 1.956 . S
O149 Li91 1.961 . S
O149 C98 1.325 . S
O150 Li88 1.961 . S
O150 Li90 1.956 . S
O150 Li91 1.970 . S
O150 C120 1.325 . S
O151 Li89 1.961 . S
O151 Li90 1.970 . S
O151 Li91 1.956 . S
O151 C126 1.325 . S
H152 C94 0.929 . S
H153 C95 0.930 . S
H154 C96 0.930 . S
H155 C97 0.930 . S
H156 C99 0.930 . S
H157 C101 0.929 . S
H158 C102 0.930 . S
H159 C103 0.930 . S
H160 C106 0.930 . S
H161 C109 0.929 . S
H162 C114 0.929 . S
H163 C115 0.930 . S
H164 C122 0.929 . S
H165 C123 0.930 . S
H166 C124 0.930 . S
H167 C125 0.930 . S
H168 C127 0.929 . S
H169 C128 0.930 . S
H170 C129 0.930 . S
H171 C130 0.930 . S
H172 C134 0.929 . S
H173 C136 0.930 . S
H174 C142 0.929 . S
H175 C143 0.930 . S
Li176 N193 1.990 . S
Li176 O236 1.956 . S
Li176 O237 1.970 . S
Li176 O238 1.961 . S
Li177 N201 1.990 . S
Li177 O236 1.970 1_455 S
Li177 O237 1.956 1_455 S
Li177 O239 1.961 . S
Li178 N223 1.990 . S
Li178 O236 1.961 . S
Li178 O238 1.956 . S
Li178 O239 1.970 1_655 S
Li179 N229 1.990 . S
Li179 O237 1.961 . S
Li179 O238 1.970 . S
Li179 O239 1.956 1_655 S
C180 C182 1.348 1_655 S
C180 C183 1.356 . S
C180 O236 1.325 . S
N181 C184 1.314 . S
N181 C185 1.279 1_455 S
C182 C180 1.348 1_455 S
C182 C184 1.353 . S
C182 H240 0.929 . S
C183 C180 1.356 . S
C183 C185 1.358 . S
C183 H241 0.930 . S
C184 N181 1.314 . S
C184 C182 1.353 . S
C184 H242 0.930 . S
C185 N181 1.279 1_655 S
C185 C183 1.358 . S
C185 H243 0.930 . S
C186 C189 1.348 . S
C186 C190 1.356 . S
C186 O237 1.325 . S
C187 N188 1.279 . S
C187 C190 1.358 . S
C187 H244 0.930 . S
N188 C187 1.279 . S
N188 C191 1.314 . S
C189 C186 1.348 . S
C189 C191 1.353 . S
C189 H245 0.929 . S
C190 C186 1.356 . S
C190 C187 1.358 . S
C190 H246 0.948 . S
C191 N188 1.314 . S
C191 C189 1.353 . S
C191 H247 0.930 . S
C192 N193 1.314 . S
C192 C197 1.353 . S
C192 H198 0.930 . S
N193 Li176 1.990 . S
N193 C192 1.314 . S
N193 C195 1.279 . S
C194 C195 1.358 . S
C194 C196 1.356 . S
C194 H248 0.930 . S
C195 N193 1.279 . S
C195 C194 1.358 . S
C195 H199 0.930 . S
C196 C194 1.356 . S
C196 C197 1.348 . S
C197 C192 1.353 . S
C197 C196 1.348 . S
C197 H249 0.929 . S
H198 C192 0.930 . S
H199 C195 0.930 . S
C200 N201 1.314 . S
C200 C202 1.353 . S
C200 H206 0.930 . S
N201 Li177 1.990 . S
N201 C200 1.314 . S
N201 C204 1.279 . S
C202 C200 1.353 . S
C202 C205 1.348 . S
C202 H250 0.929 . S
C203 C204 1.358 . S
C203 C205 1.356 . S
C203 H251 0.930 . S
C204 N201 1.279 . S
C204 C203 1.358 . S
C204 H207 0.930 . S
C205 C202 1.348 . S
C205 C203 1.356 . S
H206 C200 0.930 . S
H207 C204 0.930 . S
C208 C210 1.348 . S
C208 C211 1.356 . S
C208 O238 1.325 . S
N209 C212 1.314 . S
N209 C213 1.279 . S
C210 C208 1.348 . S
C210 C212 1.353 . S
C210 H252 0.929 . S
C211 C208 1.356 . S
C211 C213 1.358 . S
C211 H253 0.930 . S
C212 N209 1.314 . S
C212 C210 1.353 . S
C212 H254 0.930 . S
C213 N209 1.279 . S
C213 C211 1.358 . S
C213 H255 0.930 . S
C214 C215 1.348 . S
C214 C216 1.356 . S
C214 O239 1.325 . S
C215 C214 1.348 . S
C215 C217 1.353 . S
C215 H256 0.929 . S
C216 C214 1.356 . S
C216 C218 1.358 . S
C216 H257 0.930 . S
C217 C215 1.353 . S
C217 N219 1.314 . S
C217 H258 0.930 . S
C218 C216 1.358 . S
C218 N219 1.279 . S
C218 H259 0.930 . S
N219 C217 1.314 . S
N219 C218 1.279 . S
C220 C222 1.353 . S
C220 N223 1.314 1_455 S
C220 H226 0.930 . S
C221 N223 1.279 . S
C221 C224 1.358 . S
C221 H227 0.930 . S
C222 C220 1.353 . S
C222 C225 1.348 1_455 S
C222 H260 0.929 . S
N223 Li178 1.990 . S
N223 C220 1.314 1_655 S
N223 C221 1.279 . S
C224 C221 1.358 . S
C224 C225 1.356 . S
C224 H261 0.930 . S
C225 C222 1.348 1_655 S
C225 C224 1.356 . S
H226 C220 0.930 . S
H227 C221 0.930 . S
C228 N229 1.314 . S
C228 C230 1.353 . S
C228 H234 0.930 . S
N229 Li179 1.990 . S
N229 C228 1.314 . S
N229 C232 1.279 . S
C230 C228 1.353 . S
C230 C233 1.348 . S
C230 H262 0.929 . S
C231 C232 1.358 . S
C231 C233 1.356 . S
C231 H263 0.930 . S
C232 N229 1.279 . S
C232 C231 1.358 . S
C232 H235 0.930 . S
C233 C230 1.348 . S
C233 C231 1.356 . S
H234 C228 0.930 . S
H235 C232 0.930 . S
O236 Li176 1.956 . S
O236 Li177 1.970 1_655 S
O236 Li178 1.961 . S
O236 C180 1.325 . S
O237 Li176 1.970 . S
O237 Li177 1.956 1_655 S
O237 Li179 1.961 . S
O237 C186 1.325 . S
O238 Li176 1.961 . S
O238 Li178 1.956 . S
O238 Li179 1.970 . S
O238 C208 1.325 . S
O239 Li177 1.961 . S
O239 Li178 1.970 1_455 S
O239 Li179 1.956 1_455 S
O239 C214 1.325 . S
H240 C182 0.929 . S
H241 C183 0.930 . S
H242 C184 0.930 . S
H243 C185 0.930 . S
H244 C187 0.930 . S
H245 C189 0.929 . S
H246 C190 0.948 . S
H247 C191 0.930 . S
H248 C194 0.930 . S
H249 C197 0.929 . S
H250 C202 0.929 . S
H251 C203 0.930 . S
H252 C210 0.929 . S
H253 C211 0.930 . S
H254 C212 0.930 . S
H255 C213 0.930 . S
H256 C215 0.929 . S
H257 C216 0.930 . S
H258 C217 0.930 . S
H259 C218 0.930 . S
H260 C222 0.929 . S
H261 C224 0.930 . S
H262 C230 0.929 . S
H263 C231 0.930 . S
Li264 N281 1.990 . S
Li264 O324 1.956 . S
Li264 O325 1.970 . S
Li264 O326 1.961 . S
Li265 N289 1.990 . S
Li265 O324 1.970 1_545 S
Li265 O325 1.956 1_545 S
Li265 O327 1.961 . S
Li266 N311 1.990 . S
Li266 O324 1.961 . S
Li266 O326 1.956 . S
Li266 O327 1.970 1_565 S
Li267 N317 1.990 . S
Li267 O325 1.961 . S
Li267 O326 1.970 . S
Li267 O327 1.956 1_565 S
C268 C270 1.348 1_565 S
C268 C271 1.356 . S
C268 O324 1.325 . S
N269 C272 1.314 . S
N269 C273 1.279 1_545 S
C270 C268 1.348 1_545 S
C270 C272 1.353 . S
C270 H328 0.929 . S
C271 C268 1.356 . S
C271 C273 1.358 . S
C271 H329 0.930 . S
C272 N269 1.314 . S
C272 C270 1.353 . S
C272 H330 0.930 . S
C273 N269 1.279 1_565 S
C273 C271 1.358 . S
C273 H331 0.930 . S
C274 C277 1.348 . S
C274 C278 1.356 . S
C274 O325 1.325 . S
C275 N276 1.279 . S
C275 C278 1.358 . S
C275 H332 0.930 . S
N276 C275 1.279 . S
N276 C279 1.314 . S
C277 C274 1.348 . S
C277 C279 1.353 . S
C277 H333 0.929 . S
C278 C274 1.356 . S
C278 C275 1.358 . S
C278 H334 0.948 . S
C279 N276 1.314 . S
C279 C277 1.353 . S
C279 H335 0.930 . S
C280 N281 1.314 . S
C280 C285 1.353 . S
C280 H286 0.930 . S
N281 Li264 1.990 . S
N281 C280 1.314 . S
N281 C283 1.279 . S
C282 C283 1.358 . S
C282 C284 1.356 . S
C282 H336 0.930 . S
C283 N281 1.279 . S
C283 C282 1.358 . S
C283 H287 0.930 . S
C284 C282 1.356 . S
C284 C285 1.348 . S
C285 C280 1.353 . S
C285 C284 1.348 . S
C285 H337 0.929 . S
H286 C280 0.930 . S
H287 C283 0.930 . S
C288 N289 1.314 . S
C288 C290 1.353 . S
C288 H294 0.930 . S
N289 Li265 1.990 . S
N289 C288 1.314 . S
N289 C292 1.279 . S
C290 C288 1.353 . S
C290 C293 1.348 . S
C290 H338 0.929 . S
C291 C292 1.358 . S
C291 C293 1.356 . S
C291 H339 0.930 . S
C292 N289 1.279 . S
C292 C291 1.358 . S
C292 H295 0.930 . S
C293 C290 1.348 . S
C293 C291 1.356 . S
H294 C288 0.930 . S
H295 C292 0.930 . S
C296 C298 1.348 . S
C296 C299 1.356 . S
C296 O326 1.325 . S
N297 C300 1.314 . S
N297 C301 1.279 . S
C298 C296 1.348 . S
C298 C300 1.353 . S
C298 H340 0.929 . S
C299 C296 1.356 . S
C299 C301 1.358 . S
C299 H341 0.930 . S
C300 N297 1.314 . S
C300 C298 1.353 . S
C300 H342 0.930 . S
C301 N297 1.279 . S
C301 C299 1.358 . S
C301 H343 0.930 . S
C302 C303 1.348 . S
C302 C304 1.356 . S
C302 O327 1.325 . S
C303 C302 1.348 . S
C303 C305 1.353 . S
C303 H344 0.929 . S
C304 C302 1.356 . S
C304 C306 1.358 . S
C304 H345 0.930 . S
C305 C303 1.353 . S
C305 N307 1.314 . S
C305 H346 0.930 . S
C306 C304 1.358 . S
C306 N307 1.279 . S
C306 H347 0.930 . S
N307 C305 1.314 . S
N307 C306 1.279 . S
C308 C310 1.353 . S
C308 N311 1.314 1_545 S
C308 H314 0.930 . S
C309 N311 1.279 . S
C309 C312 1.358 . S
C309 H315 0.930 . S
C310 C308 1.353 . S
C310 C313 1.348 1_545 S
C310 H348 0.929 . S
N311 Li266 1.990 . S
N311 C308 1.314 1_565 S
N311 C309 1.279 . S
C312 C309 1.358 . S
C312 C313 1.356 . S
C312 H349 0.930 . S
C313 C310 1.348 1_565 S
C313 C312 1.356 . S
H314 C308 0.930 . S
H315 C309 0.930 . S
C316 N317 1.314 . S
C316 C318 1.353 . S
C316 H322 0.930 . S
N317 Li267 1.990 . S
N317 C316 1.314 . S
N317 C320 1.279 . S
C318 C316 1.353 . S
C318 C321 1.348 . S
C318 H350 0.929 . S
C319 C320 1.358 . S
C319 C321 1.356 . S
C319 H351 0.930 . S
C320 N317 1.279 . S
C320 C319 1.358 . S
C320 H323 0.930 . S
C321 C318 1.348 . S
C321 C319 1.356 . S
H322 C316 0.930 . S
H323 C320 0.930 . S
O324 Li264 1.956 . S
O324 Li265 1.970 1_565 S
O324 Li266 1.961 . S
O324 C268 1.325 . S
O325 Li264 1.970 . S
O325 Li265 1.956 1_565 S
O325 Li267 1.961 . S
O325 C274 1.325 . S
O326 Li264 1.961 . S
O326 Li266 1.956 . S
O326 Li267 1.970 . S
O326 C296 1.325 . S
O327 Li265 1.961 . S
O327 Li266 1.970 1_545 S
O327 Li267 1.956 1_545 S
O327 C302 1.325 . S
H328 C270 0.929 . S
H329 C271 0.930 . S
H330 C272 0.930 . S
H331 C273 0.930 . S
H332 C275 0.930 . S
H333 C277 0.929 . S
H334 C278 0.948 . S
H335 C279 0.930 . S
H336 C282 0.930 . S
H337 C285 0.929 . S
H338 C290 0.929 . S
H339 C291 0.930 . S
H340 C298 0.929 . S
H341 C299 0.930 . S
H342 C300 0.930 . S
H343 C301 0.930 . S
H344 C303 0.929 . S
H345 C304 0.930 . S
H346 C305 0.930 . S
H347 C306 0.930 . S
H348 C310 0.929 . S
H349 C312 0.930 . S
H350 C318 0.929 . S
H351 C319 0.930 . S
Li352 N369 1.990 . S
Li352 O412 1.956 . S
Li352 O413 1.970 . S
Li352 O414 1.961 . S
Li353 N377 1.990 . S
Li353 O412 1.970 . S
Li353 O413 1.956 . S
Li353 O415 1.961 . S
Li354 N399 1.990 . S
Li354 O412 1.961 . S
Li354 O414 1.956 . S
Li354 O415 1.970 . S
Li355 N405 1.990 . S
Li355 O413 1.961 . S
Li355 O414 1.970 . S
Li355 O415 1.956 . S
C356 C358 1.348 . S
C356 C359 1.356 . S
C356 O412 1.325 . S
N357 C360 1.314 . S
N357 C361 1.279 . S
C358 C356 1.348 . S
C358 C360 1.353 . S
C358 H416 0.929 . S
C359 C356 1.356 . S
C359 C361 1.358 . S
C359 H417 0.930 . S
C360 N357 1.314 . S
C360 C358 1.353 . S
C360 H418 0.930 . S
C361 N357 1.279 . S
C361 C359 1.358 . S
C361 H419 0.930 . S
C362 C365 1.348 . S
C362 C366 1.356 . S
C362 O413 1.325 . S
C363 N364 1.279 . S
C363 C366 1.358 . S
C363 H420 0.930 . S
N364 C363 1.279 . S
N364 C367 1.314 . S
C365 C362 1.348 . S
C365 C367 1.353 . S
C365 H421 0.929 . S
C366 C362 1.356 . S
C366 C363 1.358 . S
C366 H422 0.930 . S
C367 N364 1.314 . S
C367 C365 1.353 . S
C367 H423 0.930 . S
C368 N369 1.314 . S
C368 C373 1.353 . S
C368 H374 0.930 . S
N369 Li352 1.990 . S
N369 C368 1.314 . S
N369 C371 1.279 . S
C370 C371 1.358 . S
C370 C372 1.356 . S
C370 H424 0.930 . S
C371 N369 1.279 . S
C371 C370 1.358 . S
C371 H375 0.930 . S
C372 C370 1.356 . S
C372 C373 1.348 . S
C373 C368 1.353 . S
C373 C372 1.348 . S
C373 H425 0.929 . S
H374 C368 0.930 . S
H375 C371 0.930 . S
C376 N377 1.314 . S
C376 C378 1.353 . S
C376 H382 0.930 . S
N377 Li353 1.990 . S
N377 C376 1.314 . S
N377 C380 1.279 . S
C378 C376 1.353 . S
C378 C381 1.348 . S
C378 H426 0.929 . S
C379 C380 1.358 . S
C379 C381 1.356 . S
C379 H427 0.930 . S
C380 N377 1.279 . S
C380 C379 1.358 . S
C380 H383 0.930 . S
C381 C378 1.348 . S
C381 C379 1.356 . S
H382 C376 0.930 . S
H383 C380 0.930 . S
C384 C386 1.348 . S
C384 C387 1.356 . S
C384 O414 1.325 . S
N385 C388 1.314 . S
N385 C389 1.279 . S
C386 C384 1.348 . S
C386 C388 1.353 . S
C386 H428 0.929 . S
C387 C384 1.356 . S
C387 C389 1.358 . S
C387 H429 0.930 . S
C388 N385 1.314 . S
C388 C386 1.353 . S
C388 H430 0.930 . S
C389 N385 1.279 . S
C389 C387 1.358 . S
C389 H431 0.930 . S
C390 C391 1.348 . S
C390 C392 1.356 . S
C390 O415 1.325 . S
C391 C390 1.348 . S
C391 C393 1.353 . S
C391 H432 0.929 . S
C392 C390 1.356 . S
C392 C394 1.358 . S
C392 H433 0.930 . S
C393 C391 1.353 . S
C393 N395 1.314 . S
C393 H434 0.930 . S
C394 C392 1.358 . S
C394 N395 1.279 . S
C394 H435 0.930 . S
N395 C393 1.314 . S
N395 C394 1.279 . S
C396 C398 1.353 . S
C396 N399 1.314 . S
C396 H402 0.930 . S
C397 N399 1.279 . S
C397 C400 1.358 . S
C397 H403 0.930 . S
C398 C396 1.353 . S
C398 C401 1.348 . S
C398 H436 0.929 . S
N399 Li354 1.990 . S
N399 C396 1.314 . S
N399 C397 1.279 . S
C400 C397 1.358 . S
C400 C401 1.356 . S
C400 H437 0.930 . S
C401 C398 1.348 . S
C401 C400 1.356 . S
H402 C396 0.930 . S
H403 C397 0.930 . S
C404 N405 1.314 . S
C404 C406 1.353 . S
C404 H410 0.930 . S
N405 Li355 1.990 . S
N405 C404 1.314 . S
N405 C408 1.279 . S
C406 C404 1.353 . S
C406 C409 1.348 . S
C406 H438 0.929 . S
C407 C408 1.358 . S
C407 C409 1.356 . S
C407 H439 0.930 . S
C408 N405 1.279 . S
C408 C407 1.358 . S
C408 H411 0.930 . S
C409 C406 1.348 . S
C409 C407 1.356 . S
H410 C404 0.930 . S
H411 C408 0.930 . S
O412 Li352 1.956 . S
O412 Li353 1.970 . S
O412 Li354 1.961 . S
O412 C356 1.325 . S
O413 Li352 1.970 . S
O413 Li353 1.956 . S
O413 Li355 1.961 . S
O413 C362 1.325 . S
O414 Li352 1.961 . S
O414 Li354 1.956 . S
O414 Li355 1.970 . S
O414 C384 1.325 . S
O415 Li353 1.961 . S
O415 Li354 1.970 . S
O415 Li355 1.956 . S
O415 C390 1.325 . S
H416 C358 0.929 . S
H417 C359 0.930 . S
H418 C360 0.930 . S
H419 C361 0.930 . S
H420 C363 0.930 . S
H421 C365 0.929 . S
H422 C366 0.930 . S
H423 C367 0.930 . S
H424 C370 0.930 . S
H425 C373 0.929 . S
H426 C378 0.929 . S
H427 C379 0.930 . S
H428 C386 0.929 . S
H429 C387 0.930 . S
H430 C388 0.930 . S
H431 C389 0.930 . S
H432 C391 0.929 . S
H433 C392 0.930 . S
H434 C393 0.930 . S
H435 C394 0.930 . S
H436 C398 0.929 . S
H437 C400 0.930 . S
H438 C406 0.929 . S
H439 C407 0.930 . S
Li440 N457 1.990 . S
Li440 O500 1.956 . S
Li440 O501 1.970 . S
Li440 O502 1.961 . S
Li441 N465 1.990 . S
Li441 O500 1.970 . S
Li441 O501 1.956 . S
Li441 O503 1.961 . S
Li442 N487 1.990 . S
Li442 O500 1.961 . S
Li442 O502 1.956 . S
Li442 O503 1.970 . S
Li443 N493 1.990 . S
Li443 O501 1.961 . S
Li443 O502 1.970 . S
Li443 O503 1.956 . S
C444 C446 1.348 . S
C444 C447 1.356 . S
C444 O500 1.325 . S
N445 C448 1.314 . S
N445 C449 1.279 . S
C446 C444 1.348 . S
C446 C448 1.353 . S
C446 H504 0.929 . S
C447 C444 1.356 . S
C447 C449 1.358 . S
C447 H505 0.930 . S
C448 N445 1.314 . S
C448 C446 1.353 . S
C448 H506 0.930 . S
C449 N445 1.279 . S
C449 C447 1.358 . S
C449 H507 0.930 . S
C450 C453 1.348 . S
C450 C454 1.356 . S
C450 O501 1.325 . S
C451 N452 1.279 . S
C451 C454 1.358 . S
C451 H508 0.930 . S
N452 C451 1.279 . S
N452 C455 1.314 . S
C453 C450 1.348 . S
C453 C455 1.353 . S
C453 H509 0.929 . S
C454 C450 1.356 . S
C454 C451 1.358 . S
C454 H510 0.930 . S
C455 N452 1.314 . S
C455 C453 1.353 . S
C455 H511 0.930 . S
C456 N457 1.314 . S
C456 C461 1.353 . S
C456 H462 0.930 . S
N457 Li440 1.990 . S
N457 C456 1.314 . S
N457 C459 1.279 . S
C458 C459 1.358 . S
C458 C460 1.356 . S
C458 H512 0.930 . S
C459 N457 1.279 . S
C459 C458 1.358 . S
C459 H463 0.930 . S
C460 C458 1.356 . S
C460 C461 1.348 . S
C461 C456 1.353 . S
C461 C460 1.348 . S
C461 H513 0.929 . S
H462 C456 0.930 . S
H463 C459 0.930 . S
C464 N465 1.314 . S
C464 C466 1.353 . S
C464 H470 0.930 . S
N465 Li441 1.990 . S
N465 C464 1.314 . S
N465 C468 1.279 . S
C466 C464 1.353 . S
C466 C469 1.348 . S
C466 H514 0.929 . S
C467 C468 1.358 . S
C467 C469 1.356 . S
C467 H515 0.930 . S
C468 N465 1.279 . S
C468 C467 1.358 . S
C468 H471 0.930 . S
C469 C466 1.348 . S
C469 C467 1.356 . S
H470 C464 0.930 . S
H471 C468 0.930 . S
C472 C474 1.348 . S
C472 C475 1.356 . S
C472 O502 1.325 . S
N473 C476 1.314 . S
N473 C477 1.279 . S
C474 C472 1.348 . S
C474 C476 1.353 . S
C474 H516 0.929 . S
C475 C472 1.356 . S
C475 C477 1.358 . S
C475 H517 0.930 . S
C476 N473 1.314 . S
C476 C474 1.353 . S
C476 H518 0.930 . S
C477 N473 1.279 . S
C477 C475 1.358 . S
C477 H519 0.930 . S
C478 C479 1.348 . S
C478 C480 1.356 . S
C478 O503 1.325 . S
C479 C478 1.348 . S
C479 C481 1.353 . S
C479 H520 0.929 . S
C480 C478 1.356 . S
C480 C482 1.358 . S
C480 H521 0.930 . S
C481 C479 1.353 . S
C481 N483 1.314 . S
C481 H522 0.930 . S
C482 C480 1.358 . S
C482 N483 1.279 . S
C482 H523 0.930 . S
N483 C481 1.314 . S
N483 C482 1.279 . S
C484 C486 1.353 . S
C484 N487 1.314 . S
C484 H490 0.930 . S
C485 N487 1.279 . S
C485 C488 1.358 . S
C485 H491 0.930 . S
C486 C484 1.353 . S
C486 C489 1.348 . S
C486 H524 0.929 . S
N487 Li442 1.990 . S
N487 C484 1.314 . S
N487 C485 1.279 . S
C488 C485 1.358 . S
C488 C489 1.356 . S
C488 H525 0.930 . S
C489 C486 1.348 . S
C489 C488 1.356 . S
H490 C484 0.930 . S
H491 C485 0.930 . S
C492 N493 1.314 . S
C492 C494 1.353 . S
C492 H498 0.930 . S
N493 Li443 1.990 . S
N493 C492 1.314 . S
N493 C496 1.279 . S
C494 C492 1.353 . S
C494 C497 1.348 . S
C494 H526 0.929 . S
C495 C496 1.358 . S
C495 C497 1.356 . S
C495 H527 0.930 . S
C496 N493 1.279 . S
C496 C495 1.358 . S
C496 H499 0.930 . S
C497 C494 1.348 . S
C497 C495 1.356 . S
H498 C492 0.930 . S
H499 C496 0.930 . S
O500 Li440 1.956 . S
O500 Li441 1.970 . S
O500 Li442 1.961 . S
O500 C444 1.325 . S
O501 Li440 1.970 . S
O501 Li441 1.956 . S
O501 Li443 1.961 . S
O501 C450 1.325 . S
O502 Li440 1.961 . S
O502 Li442 1.956 . S
O502 Li443 1.970 . S
O502 C472 1.325 . S
O503 Li441 1.961 . S
O503 Li442 1.970 . S
O503 Li443 1.956 . S
O503 C478 1.325 . S
H504 C446 0.929 . S
H505 C447 0.930 . S
H506 C448 0.930 . S
H507 C449 0.930 . S
H508 C451 0.930 . S
H509 C453 0.929 . S
H510 C454 0.930 . S
H511 C455 0.930 . S
H512 C458 0.930 . S
H513 C461 0.929 . S
H514 C466 0.929 . S
H515 C467 0.930 . S
H516 C474 0.929 . S
H517 C475 0.930 . S
H518 C476 0.930 . S
H519 C477 0.930 . S
H520 C479 0.929 . S
H521 C480 0.930 . S
H522 C481 0.930 . S
H523 C482 0.930 . S
H524 C486 0.929 . S
H525 C488 0.930 . S
H526 C494 0.929 . S
H527 C495 0.930 . S
Li528 N545 1.990 . S
Li528 O588 1.956 1_655 S
Li528 O589 1.970 . S
Li528 O590 1.961 . S
Li529 N553 1.990 . S
Li529 O588 1.970 1_655 S
Li529 O589 1.956 . S
Li529 O591 1.961 . S
Li530 N575 1.990 . S
Li530 O588 1.961 . S
Li530 O590 1.956 1_455 S
Li530 O591 1.970 1_455 S
Li531 N581 1.990 . S
Li531 O589 1.961 . S
Li531 O590 1.970 . S
Li531 O591 1.956 . S
C532 C534 1.348 . S
C532 C535 1.356 . S
C532 O588 1.325 . S
N533 C536 1.314 . S
N533 C537 1.279 . S
C534 C532 1.348 . S
C534 C536 1.353 . S
C534 H592 0.929 . S
C535 C532 1.356 . S
C535 C537 1.358 . S
C535 H593 0.930 . S
C536 N533 1.314 . S
C536 C534 1.353 . S
C536 H594 0.930 . S
C537 N533 1.279 . S
C537 C535 1.358 . S
C537 H595 0.930 . S
C538 C541 1.348 . S
C538 C542 1.356 . S
C538 O589 1.325 . S
C539 N540 1.279 . S
C539 C542 1.358 . S
C539 H596 0.930 . S
N540 C539 1.279 . S
N540 C543 1.314 . S
C541 C538 1.348 . S
C541 C543 1.353 . S
C541 H597 0.929 . S
C542 C538 1.356 . S
C542 C539 1.358 . S
C542 H598 0.930 . S
C543 N540 1.314 . S
C543 C541 1.353 . S
C543 H599 0.930 . S
C544 N545 1.314 . S
C544 C549 1.353 . S
C544 H550 0.930 . S
N545 Li528 1.990 . S
N545 C544 1.314 . S
N545 C547 1.279 . S
C546 C547 1.358 . S
C546 C548 1.356 . S
C546 H600 0.930 . S
C547 N545 1.279 . S
C547 C546 1.358 . S
C547 H551 0.930 . S
C548 C546 1.356 . S
C548 C549 1.348 . S
C549 C544 1.353 . S
C549 C548 1.348 . S
C549 H601 0.929 . S
H550 C544 0.930 . S
H551 C547 0.930 . S
C552 N553 1.314 1_455 S
C552 C554 1.353 . S
C552 H558 0.930 . S
N553 Li529 1.990 . S
N553 C552 1.314 1_655 S
N553 C556 1.279 . S
C554 C552 1.353 . S
C554 C557 1.348 1_455 S
C554 H602 0.929 . S
C555 C556 1.358 . S
C555 C557 1.356 . S
C555 H603 0.930 . S
C556 N553 1.279 . S
C556 C555 1.358 . S
C556 H559 0.930 . S
C557 C554 1.348 1_655 S
C557 C555 1.356 . S
H558 C552 0.930 . S
H559 C556 0.930 . S
C560 C562 1.348 . S
C560 C563 1.356 . S
C560 O590 1.325 . S
N561 C564 1.314 . S
N561 C565 1.279 . S
C562 C560 1.348 . S
C562 C564 1.353 . S
C562 H604 0.929 . S
C563 C560 1.356 . S
C563 C565 1.358 . S
C563 H605 0.948 . S
C564 N561 1.314 . S
C564 C562 1.353 . S
C564 H606 0.930 . S
C565 N561 1.279 . S
C565 C563 1.358 . S
C565 H607 0.930 . S
C566 C567 1.348 1_655 S
C566 C568 1.356 . S
C566 O591 1.325 . S
C567 C566 1.348 1_455 S
C567 C569 1.353 . S
C567 H608 0.929 . S
C568 C566 1.356 . S
C568 C570 1.358 . S
C568 H609 0.930 . S
C569 C567 1.353 . S
C569 N571 1.314 . S
C569 H610 0.930 . S
C570 C568 1.358 . S
C570 N571 1.279 1_655 S
C570 H611 0.930 . S
N571 C569 1.314 . S
N571 C570 1.279 1_455 S
C572 C574 1.353 . S
C572 N575 1.314 . S
C572 H578 0.930 . S
C573 N575 1.279 . S
C573 C576 1.358 . S
C573 H579 0.930 . S
C574 C572 1.353 . S
C574 C577 1.348 . S
C574 H612 0.929 . S
N575 Li530 1.990 . S
N575 C572 1.314 . S
N575 C573 1.279 . S
C576 C573 1.358 . S
C576 C577 1.356 . S
C576 H613 0.930 . S
C577 C574 1.348 . S
C577 C576 1.356 . S
H578 C572 0.930 . S
H579 C573 0.930 . S
C580 N581 1.314 . S
C580 C582 1.353 . S
C580 H586 0.930 . S
N581 Li531 1.990 . S
N581 C580 1.314 . S
N581 C584 1.279 . S
C582 C580 1.353 . S
C582 C585 1.348 . S
C582 H614 0.929 . S
C583 C584 1.358 . S
C583 C585 1.356 . S
C583 H615 0.930 . S
C584 N581 1.279 . S
C584 C583 1.358 . S
C584 H587 0.930 . S
C585 C582 1.348 . S
C585 C583 1.356 . S
H586 C580 0.930 . S
H587 C584 0.930 . S
O588 Li528 1.956 1_455 S
O588 Li529 1.970 1_455 S
O588 Li530 1.961 . S
O588 C532 1.325 . S
O589 Li528 1.970 . S
O589 Li529 1.956 . S
O589 Li531 1.961 . S
O589 C538 1.325 . S
O590 Li528 1.961 . S
O590 Li530 1.956 1_655 S
O590 Li531 1.970 . S
O590 C560 1.325 . S
O591 Li529 1.961 . S
O591 Li530 1.970 1_655 S
O591 Li531 1.956 . S
O591 C566 1.325 . S
H592 C534 0.929 . S
H593 C535 0.930 . S
H594 C536 0.930 . S
H595 C537 0.930 . S
H596 C539 0.930 . S
H597 C541 0.929 . S
H598 C542 0.930 . S
H599 C543 0.930 . S
H600 C546 0.930 . S
H601 C549 0.929 . S
H602 C554 0.929 . S
H603 C555 0.930 . S
H604 C562 0.929 . S
H605 C563 0.948 . S
H606 C564 0.930 . S
H607 C565 0.930 . S
H608 C567 0.929 . S
H609 C568 0.930 . S
H610 C569 0.930 . S
H611 C570 0.930 . S
H612 C574 0.929 . S
H613 C576 0.930 . S
H614 C582 0.929 . S
H615 C583 0.930 . S
Li616 N633 1.990 . S
Li616 O676 1.956 1_565 S
Li616 O677 1.970 . S
Li616 O678 1.961 . S
Li617 N641 1.990 . S
Li617 O676 1.970 1_565 S
Li617 O677 1.956 . S
Li617 O679 1.961 . S
Li618 N663 1.990 . S
Li618 O676 1.961 . S
Li618 O678 1.956 1_545 S
Li618 O679 1.970 1_545 S
Li619 N669 1.990 . S
Li619 O677 1.961 . S
Li619 O678 1.970 . S
Li619 O679 1.956 . S
C620 C622 1.348 . S
C620 C623 1.356 . S
C620 O676 1.325 . S
N621 C624 1.314 . S
N621 C625 1.279 . S
C622 C620 1.348 . S
C622 C624 1.353 . S
C622 H680 0.929 . S
C623 C620 1.356 . S
C623 C625 1.358 . S
C623 H681 0.930 . S
C624 N621 1.314 . S
C624 C622 1.353 . S
C624 H682 0.930 . S
C625 N621 1.279 . S
C625 C623 1.358 . S
C625 H683 0.930 . S
C626 C629 1.348 . S
C626 C630 1.356 . S
C626 O677 1.325 . S
C627 N628 1.279 . S
C627 C630 1.358 . S
C627 H684 0.930 . S
N628 C627 1.279 . S
N628 C631 1.314 . S
C629 C626 1.348 . S
C629 C631 1.353 . S
C629 H685 0.929 . S
C630 C626 1.356 . S
C630 C627 1.358 . S
C630 H686 0.930 . S
C631 N628 1.314 . S
C631 C629 1.353 . S
C631 H687 0.930 . S
C632 N633 1.314 . S
C632 C637 1.353 . S
C632 H638 0.930 . S
N633 Li616 1.990 . S
N633 C632 1.314 . S
N633 C635 1.279 . S
C634 C635 1.358 . S
C634 C636 1.356 . S
C634 H688 0.930 . S
C635 N633 1.279 . S
C635 C634 1.358 . S
C635 H639 0.930 . S
C636 C634 1.356 . S
C636 C637 1.348 . S
C637 C632 1.353 . S
C637 C636 1.348 . S
C637 H689 0.929 . S
H638 C632 0.930 . S
H639 C635 0.930 . S
C640 N641 1.314 1_545 S
C640 C642 1.353 . S
C640 H646 0.930 . S
N641 Li617 1.990 . S
N641 C640 1.314 1_565 S
N641 C644 1.279 . S
C642 C640 1.353 . S
C642 C645 1.348 1_545 S
C642 H690 0.929 . S
C643 C644 1.358 . S
C643 C645 1.356 . S
C643 H691 0.930 . S
C644 N641 1.279 . S
C644 C643 1.358 . S
C644 H647 0.930 . S
C645 C642 1.348 1_565 S
C645 C643 1.356 . S
H646 C640 0.930 . S
H647 C644 0.930 . S
C648 C650 1.348 . S
C648 C651 1.356 . S
C648 O678 1.325 . S
N649 C652 1.314 . S
N649 C653 1.279 . S
C650 C648 1.348 . S
C650 C652 1.353 . S
C650 H692 0.929 . S
C651 C648 1.356 . S
C651 C653 1.358 . S
C651 H693 0.948 . S
C652 N649 1.314 . S
C652 C650 1.353 . S
C652 H694 0.930 . S
C653 N649 1.279 . S
C653 C651 1.358 . S
C653 H695 0.930 . S
C654 C655 1.348 1_565 S
C654 C656 1.356 . S
C654 O679 1.325 . S
C655 C654 1.348 1_545 S
C655 C657 1.353 . S
C655 H696 0.929 . S
C656 C654 1.356 . S
C656 C658 1.358 . S
C656 H697 0.930 . S
C657 C655 1.353 . S
C657 N659 1.314 . S
C657 H698 0.930 . S
C658 C656 1.358 . S
C658 N659 1.279 1_565 S
C658 H699 0.930 . S
N659 C657 1.314 . S
N659 C658 1.279 1_545 S
C660 C662 1.353 . S
C660 N663 1.314 . S
C660 H666 0.930 . S
C661 N663 1.279 . S
C661 C664 1.358 . S
C661 H667 0.930 . S
C662 C660 1.353 . S
C662 C665 1.348 . S
C662 H700 0.929 . S
N663 Li618 1.990 . S
N663 C660 1.314 . S
N663 C661 1.279 . S
C664 C661 1.358 . S
C664 C665 1.356 . S
C664 H701 0.930 . S
C665 C662 1.348 . S
C665 C664 1.356 . S
H666 C660 0.930 . S
H667 C661 0.930 . S
C668 N669 1.314 . S
C668 C670 1.353 . S
C668 H674 0.930 . S
N669 Li619 1.990 . S
N669 C668 1.314 . S
N669 C672 1.279 . S
C670 C668 1.353 . S
C670 C673 1.348 . S
C670 H702 0.929 . S
C671 C672 1.358 . S
C671 C673 1.356 . S
C671 H703 0.930 . S
C672 N669 1.279 . S
C672 C671 1.358 . S
C672 H675 0.930 . S
C673 C670 1.348 . S
C673 C671 1.356 . S
H674 C668 0.930 . S
H675 C672 0.930 . S
O676 Li616 1.956 1_545 S
O676 Li617 1.970 1_545 S
O676 Li618 1.961 . S
O676 C620 1.325 . S
O677 Li616 1.970 . S
O677 Li617 1.956 . S
O677 Li619 1.961 . S
O677 C626 1.325 . S
O678 Li616 1.961 . S
O678 Li618 1.956 1_565 S
O678 Li619 1.970 . S
O678 C648 1.325 . S
O679 Li617 1.961 . S
O679 Li618 1.970 1_565 S
O679 Li619 1.956 . S
O679 C654 1.325 . S
H680 C622 0.929 . S
H681 C623 0.930 . S
H682 C624 0.930 . S
H683 C625 0.930 . S
H684 C627 0.930 . S
H685 C629 0.929 . S
H686 C630 0.930 . S
H687 C631 0.930 . S
H688 C634 0.930 . S
H689 C637 0.929 . S
H690 C642 0.929 . S
H691 C643 0.930 . S
H692 C650 0.929 . S
H693 C651 0.948 . S
H694 C652 0.930 . S
H695 C653 0.930 . S
H696 C655 0.929 . S
H697 C656 0.930 . S
H698 C657 0.930 . S
H699 C658 0.930 . S
H700 C662 0.929 . S
H701 C664 0.930 . S
H702 C670 0.929 . S
H703 C671 0.930 . S
Li704 N721 1.990 . S
Li704 O764 1.956 . S
Li704 O765 1.970 . S
Li704 O766 1.961 . S
Li705 N729 1.990 . S
Li705 O764 1.970 . S
Li705 O765 1.956 . S
Li705 O767 1.961 . S
Li706 N751 1.990 . S
Li706 O764 1.961 . S
Li706 O766 1.956 . S
Li706 O767 1.970 . S
Li707 N757 1.990 . S
Li707 O765 1.961 . S
Li707 O766 1.970 . S
Li707 O767 1.956 . S
C708 C710 1.348 . S
C708 C711 1.356 . S
C708 O764 1.325 . S
N709 C712 1.314 . S
N709 C713 1.279 . S
C710 C708 1.348 . S
C710 C712 1.353 . S
C710 H768 0.929 . S
C711 C708 1.356 . S
C711 C713 1.358 . S
C711 H769 0.930 . S
C712 N709 1.314 . S
C712 C710 1.353 . S
C712 H770 0.930 . S
C713 N709 1.279 . S
C713 C711 1.358 . S
C713 H771 0.930 . S
C714 C717 1.348 . S
C714 C718 1.356 . S
C714 O765 1.325 . S
C715 N716 1.279 . S
C715 C718 1.358 . S
C715 H772 0.930 . S
N716 C715 1.279 . S
N716 C719 1.314 . S
C717 C714 1.348 . S
C717 C719 1.353 . S
C717 H773 0.929 . S
C718 C714 1.356 . S
C718 C715 1.358 . S
C718 H774 0.930 . S
C719 N716 1.314 . S
C719 C717 1.353 . S
C719 H775 0.930 . S
C720 N721 1.314 . S
C720 C725 1.353 . S
C720 H726 0.930 . S
N721 Li704 1.990 . S
N721 C720 1.314 . S
N721 C723 1.279 . S
C722 C723 1.358 . S
C722 C724 1.356 . S
C722 H776 0.930 . S
C723 N721 1.279 . S
C723 C722 1.358 . S
C723 H727 0.930 . S
C724 C722 1.356 . S
C724 C725 1.348 . S
C725 C720 1.353 . S
C725 C724 1.348 . S
C725 H777 0.929 . S
H726 C720 0.930 . S
H727 C723 0.930 . S
C728 N729 1.314 . S
C728 C730 1.353 . S
C728 H734 0.930 . S
N729 Li705 1.990 . S
N729 C728 1.314 . S
N729 C732 1.279 . S
C730 C728 1.353 . S
C730 C733 1.348 . S
C730 H778 0.929 . S
C731 C732 1.358 . S
C731 C733 1.356 . S
C731 H779 0.930 . S
C732 N729 1.279 . S
C732 C731 1.358 . S
C732 H735 0.930 . S
C733 C730 1.348 . S
C733 C731 1.356 . S
H734 C728 0.930 . S
H735 C732 0.930 . S
C736 C738 1.348 . S
C736 C739 1.356 . S
C736 O766 1.325 . S
N737 C740 1.314 . S
N737 C741 1.279 . S
C738 C736 1.348 . S
C738 C740 1.353 . S
C738 H780 0.929 . S
C739 C736 1.356 . S
C739 C741 1.358 . S
C739 H781 0.930 . S
C740 N737 1.314 . S
C740 C738 1.353 . S
C740 H782 0.930 . S
C741 N737 1.279 . S
C741 C739 1.358 . S
C741 H783 0.930 . S
C742 C743 1.348 . S
C742 C744 1.356 . S
C742 O767 1.325 . S
C743 C742 1.348 . S
C743 C745 1.353 . S
C743 H784 0.929 . S
C744 C742 1.356 . S
C744 C746 1.358 . S
C744 H785 0.930 . S
C745 C743 1.353 . S
C745 N747 1.314 . S
C745 H786 0.930 . S
C746 C744 1.358 . S
C746 N747 1.279 . S
C746 H787 0.930 . S
N747 C745 1.314 . S
N747 C746 1.279 . S
C748 C750 1.353 . S
C748 N751 1.314 . S
C748 H754 0.930 . S
C749 N751 1.279 . S
C749 C752 1.358 . S
C749 H755 0.930 . S
C750 C748 1.353 . S
C750 C753 1.348 . S
C750 H788 0.929 . S
N751 Li706 1.990 . S
N751 C748 1.314 . S
N751 C749 1.279 . S
C752 C749 1.358 . S
C752 C753 1.356 . S
C752 H789 0.930 . S
C753 C750 1.348 . S
C753 C752 1.356 . S
H754 C748 0.930 . S
H755 C749 0.930 . S
C756 N757 1.314 . S
C756 C758 1.353 . S
C756 H762 0.930 . S
N757 Li707 1.990 . S
N757 C756 1.314 . S
N757 C760 1.279 . S
C758 C756 1.353 . S
C758 C761 1.348 . S
C758 H790 0.929 . S
C759 C760 1.358 . S
C759 C761 1.356 . S
C759 H791 0.930 . S
C760 N757 1.279 . S
C760 C759 1.358 . S
C760 H763 0.930 . S
C761 C758 1.348 . S
C761 C759 1.356 . S
H762 C756 0.930 . S
H763 C760 0.930 . S
O764 Li704 1.956 . S
O764 Li705 1.970 . S
O764 Li706 1.961 . S
O764 C708 1.325 . S
O765 Li704 1.970 . S
O765 Li705 1.956 . S
O765 Li707 1.961 . S
O765 C714 1.325 . S
O766 Li704 1.961 . S
O766 Li706 1.956 . S
O766 Li707 1.970 . S
O766 C736 1.325 . S
O767 Li705 1.961 . S
O767 Li706 1.970 . S
O767 Li707 1.956 . S
O767 C742 1.325 . S
H768 C710 0.929 . S
H769 C711 0.930 . S
H770 C712 0.930 . S
H771 C713 0.930 . S
H772 C715 0.930 . S
H773 C717 0.929 . S
H774 C718 0.930 . S
H775 C719 0.930 . S
H776 C722 0.930 . S
H777 C725 0.929 . S
H778 C730 0.929 . S
H779 C731 0.930 . S
H780 C738 0.929 . S
H781 C739 0.930 . S
H782 C740 0.930 . S
H783 C741 0.930 . S
H784 C743 0.929 . S
H785 C744 0.930 . S
H786 C745 0.930 . S
H787 C746 0.930 . S
H788 C750 0.929 . S
H789 C752 0.930 . S
H790 C758 0.929 . S
H791 C759 0.930 . S
Li792 N809 1.990 . S
Li792 O852 1.956 . S
Li792 O853 1.970 . S
Li792 O854 1.961 . S
Li793 N817 1.990 . S
Li793 O852 1.970 . S
Li793 O853 1.956 . S
Li793 O855 1.961 . S
Li794 N839 1.990 . S
Li794 O852 1.961 . S
Li794 O854 1.956 . S
Li794 O855 1.970 . S
Li795 N845 1.990 . S
Li795 O853 1.961 . S
Li795 O854 1.970 . S
Li795 O855 1.956 . S
C796 C798 1.348 . S
C796 C799 1.356 . S
C796 O852 1.325 . S
N797 C800 1.314 . S
N797 C801 1.279 . S
C798 C796 1.348 . S
C798 C800 1.353 . S
C798 H856 0.929 . S
C799 C796 1.356 . S
C799 C801 1.358 . S
C799 H857 0.930 . S
C800 N797 1.314 . S
C800 C798 1.353 . S
C800 H858 0.930 . S
C801 N797 1.279 . S
C801 C799 1.358 . S
C801 H859 0.930 . S
C802 C805 1.348 . S
C802 C806 1.356 . S
C802 O853 1.325 . S
C803 N804 1.279 . S
C803 C806 1.358 . S
C803 H860 0.930 . S
N804 C803 1.279 . S
N804 C807 1.314 . S
C805 C802 1.348 . S
C805 C807 1.353 . S
C805 H861 0.929 . S
C806 C802 1.356 . S
C806 C803 1.358 . S
C806 H862 0.930 . S
C807 N804 1.314 . S
C807 C805 1.353 . S
C807 H863 0.930 . S
C808 N809 1.314 . S
C808 C813 1.353 . S
C808 H814 0.930 . S
N809 Li792 1.990 . S
N809 C808 1.314 . S
N809 C811 1.279 . S
C810 C811 1.358 . S
C810 C812 1.356 . S
C810 H864 0.930 . S
C811 N809 1.279 . S
C811 C810 1.358 . S
C811 H815 0.930 . S
C812 C810 1.356 . S
C812 C813 1.348 . S
C813 C808 1.353 . S
C813 C812 1.348 . S
C813 H865 0.929 . S
H814 C808 0.930 . S
H815 C811 0.930 . S
C816 N817 1.314 . S
C816 C818 1.353 . S
C816 H822 0.930 . S
N817 Li793 1.990 . S
N817 C816 1.314 . S
N817 C820 1.279 . S
C818 C816 1.353 . S
C818 C821 1.348 . S
C818 H866 0.929 . S
C819 C820 1.358 . S
C819 C821 1.356 . S
C819 H867 0.930 . S
C820 N817 1.279 . S
C820 C819 1.358 . S
C820 H823 0.930 . S
C821 C818 1.348 . S
C821 C819 1.356 . S
H822 C816 0.930 . S
H823 C820 0.930 . S
C824 C826 1.348 . S
C824 C827 1.356 . S
C824 O854 1.325 . S
N825 C828 1.314 . S
N825 C829 1.279 . S
C826 C824 1.348 . S
C826 C828 1.353 . S
C826 H868 0.929 . S
C827 C824 1.356 . S
C827 C829 1.358 . S
C827 H869 0.930 . S
C828 N825 1.314 . S
C828 C826 1.353 . S
C828 H870 0.930 . S
C829 N825 1.279 . S
C829 C827 1.358 . S
C829 H871 0.930 . S
C830 C831 1.348 . S
C830 C832 1.356 . S
C830 O855 1.325 . S
C831 C830 1.348 . S
C831 C833 1.353 . S
C831 H872 0.929 . S
C832 C830 1.356 . S
C832 C834 1.358 . S
C832 H873 0.930 . S
C833 C831 1.353 . S
C833 N835 1.314 . S
C833 H874 0.930 . S
C834 C832 1.358 . S
C834 N835 1.279 . S
C834 H875 0.930 . S
N835 C833 1.314 . S
N835 C834 1.279 . S
C836 C838 1.353 . S
C836 N839 1.314 . S
C836 H842 0.930 . S
C837 N839 1.279 . S
C837 C840 1.358 . S
C837 H843 0.930 . S
C838 C836 1.353 . S
C838 C841 1.348 . S
C838 H876 0.929 . S
N839 Li794 1.990 . S
N839 C836 1.314 . S
N839 C837 1.279 . S
C840 C837 1.358 . S
C840 C841 1.356 . S
C840 H877 0.930 . S
C841 C838 1.348 . S
C841 C840 1.356 . S
H842 C836 0.930 . S
H843 C837 0.930 . S
C844 N845 1.314 . S
C844 C846 1.353 . S
C844 H850 0.930 . S
N845 Li795 1.990 . S
N845 C844 1.314 . S
N845 C848 1.279 . S
C846 C844 1.353 . S
C846 C849 1.348 . S
C846 H878 0.929 . S
C847 C848 1.358 . S
C847 C849 1.356 . S
C847 H879 0.930 . S
C848 N845 1.279 . S
C848 C847 1.358 . S
C848 H851 0.930 . S
C849 C846 1.348 . S
C849 C847 1.356 . S
H850 C844 0.930 . S
H851 C848 0.930 . S
O852 Li792 1.956 . S
O852 Li793 1.970 . S
O852 Li794 1.961 . S
O852 C796 1.325 . S
O853 Li792 1.970 . S
O853 Li793 1.956 . S
O853 Li795 1.961 . S
O853 C802 1.325 . S
O854 Li792 1.961 . S
O854 Li794 1.956 . S
O854 Li795 1.970 . S
O854 C824 1.325 . S
O855 Li793 1.961 . S
O855 Li794 1.970 . S
O855 Li795 1.956 . S
O855 C830 1.325 . S
H856 C798 0.929 . S
H857 C799 0.930 . S
H858 C800 0.930 . S
H859 C801 0.930 . S
H860 C803 0.930 . S
H861 C805 0.929 . S
H862 C806 0.930 . S
H863 C807 0.930 . S
H864 C810 0.930 . S
H865 C813 0.929 . S
H866 C818 0.929 . S
H867 C819 0.930 . S
H868 C826 0.929 . S
H869 C827 0.930 . S
H870 C828 0.930 . S
H871 C829 0.930 . S
H872 C831 0.929 . S
H873 C832 0.930 . S
H874 C833 0.930 . S
H875 C834 0.930 . S
H876 C838 0.929 . S
H877 C840 0.930 . S
H878 C846 0.929 . S
H879 C847 0.930 . S
Li880 N897 1.990 . S
Li880 O940 1.956 . S
Li880 O941 1.970 1_455 S
Li880 O942 1.961 . S
Li881 N905 1.990 . S
Li881 O940 1.970 1_655 S
Li881 O941 1.956 . S
Li881 O943 1.961 1_655 S
Li882 N927 1.990 . S
Li882 O940 1.961 . S
Li882 O942 1.956 . S
Li882 O943 1.970 . S
Li883 N933 1.990 . S
Li883 O941 1.961 1_455 S
Li883 O942 1.970 . S
Li883 O943 1.956 . S
C884 C886 1.348 1_455 S
C884 C887 1.356 . S
C884 O940 1.325 . S
N885 C888 1.314 . S
N885 C889 1.279 1_655 S
C886 C884 1.348 1_655 S
C886 C888 1.353 . S
C886 H944 0.929 . S
C887 C884 1.356 . S
C887 C889 1.358 . S
C887 H945 0.930 . S
C888 N885 1.314 . S
C888 C886 1.353 . S
C888 H946 0.930 . S
C889 N885 1.279 1_455 S
C889 C887 1.358 . S
C889 H947 0.930 . S
C890 C893 1.348 . S
C890 C894 1.356 . S
C890 O941 1.325 . S
C891 N892 1.279 . S
C891 C894 1.358 . S
C891 H948 0.930 . S
N892 C891 1.279 . S
N892 C895 1.314 . S
C893 C890 1.348 . S
C893 C895 1.353 . S
C893 H949 0.929 . S
C894 C890 1.356 . S
C894 C891 1.358 . S
C894 H950 0.930 . S
C895 N892 1.314 . S
C895 C893 1.353 . S
C895 H951 0.930 . S
C896 N897 1.314 . S
C896 C901 1.353 . S
C896 H902 0.930 . S
N897 Li880 1.990 . S
N897 C896 1.314 . S
N897 C899 1.284 . S
C898 C899 1.357 1_655 S
C898 C900 1.356 1_655 S
C898 H952 0.930 . S
C899 N897 1.284 . S
C899 C898 1.357 1_455 S
C899 H903 0.927 1_455 S
C900 C898 1.356 1_455 S
C900 C901 1.348 . S
C901 C896 1.353 . S
C901 C900 1.348 . S
C901 H953 0.929 . S
H902 C896 0.930 . S
H903 C899 0.927 1_655 S
C904 N905 1.314 . S
C904 C906 1.353 . S
C904 H910 0.930 . S
N905 Li881 1.990 . S
N905 C904 1.314 . S
N905 C908 1.279 . S
C906 C904 1.353 . S
C906 C909 1.348 . S
C906 H954 0.929 . S
C907 C908 1.358 . S
C907 C909 1.356 . S
C907 H955 0.930 . S
C908 N905 1.279 . S
C908 C907 1.358 . S
C908 H911 0.930 . S
C909 C906 1.348 . S
C909 C907 1.356 . S
H910 C904 0.930 . S
H911 C908 0.930 . S
C912 C914 1.348 . S
C912 C915 1.356 . S
C912 O942 1.325 . S
N913 C916 1.314 . S
N913 C917 1.279 . S
C914 C912 1.348 . S
C914 C916 1.353 . S
C914 H956 0.929 . S
C915 C912 1.356 . S
C915 C917 1.358 . S
C915 H957 0.930 . S
C916 N913 1.314 . S
C916 C914 1.353 . S
C916 H958 0.930 . S
C917 N913 1.279 . S
C917 C915 1.358 . S
C917 H959 0.930 . S
C918 C919 1.348 . S
C918 C920 1.356 . S
C918 O943 1.325 . S
C919 C918 1.348 . S
C919 C921 1.353 . S
C919 H960 0.929 . S
C920 C918 1.356 . S
C920 C922 1.358 . S
C920 H961 0.930 1_455 S
C921 C919 1.353 . S
C921 N923 1.314 . S
C921 H962 0.930 . S
C922 C920 1.358 . S
C922 N923 1.279 . S
C922 H963 0.930 1_455 S
N923 C921 1.314 . S
N923 C922 1.279 . S
C924 C926 1.353 . S
C924 N927 1.314 . S
C924 H930 0.930 . S
C925 N927 1.279 . S
C925 C928 1.358 . S
C925 H931 0.930 . S
C926 C924 1.353 . S
C926 C929 1.348 . S
C926 H964 0.929 . S
N927 Li882 1.990 . S
N927 C924 1.314 . S
N927 C925 1.279 . S
C928 C925 1.358 . S
C928 C929 1.356 . S
C928 H965 0.930 . S
C929 C926 1.348 . S
C929 C928 1.356 . S
H930 C924 0.930 . S
H931 C925 0.930 . S
C932 N933 1.314 . S
C932 C934 1.353 . S
C932 H938 0.930 . S
N933 Li883 1.990 . S
N933 C932 1.314 . S
N933 C936 1.279 . S
C934 C932 1.353 . S
C934 C937 1.348 . S
C934 H966 0.929 . S
C935 C936 1.358 . S
C935 C937 1.356 . S
C935 H967 0.930 . S
C936 N933 1.279 . S
C936 C935 1.358 . S
C936 H939 0.930 . S
C937 C934 1.348 . S
C937 C935 1.356 . S
H938 C932 0.930 . S
H939 C936 0.930 . S
O940 Li880 1.956 . S
O940 Li881 1.970 1_455 S
O940 Li882 1.961 . S
O940 C884 1.325 . S
O941 Li880 1.970 1_655 S
O941 Li881 1.956 . S
O941 Li883 1.961 1_655 S
O941 C890 1.325 . S
O942 Li880 1.961 . S
O942 Li882 1.956 . S
O942 Li883 1.970 . S
O942 C912 1.325 . S
O943 Li881 1.961 1_455 S
O943 Li882 1.970 . S
O943 Li883 1.956 . S
O943 C918 1.325 . S
H944 C886 0.929 . S
H945 C887 0.930 . S
H946 C888 0.930 . S
H947 C889 0.930 . S
H948 C891 0.930 . S
H949 C893 0.929 . S
H950 C894 0.930 . S
H951 C895 0.930 . S
H952 C898 0.930 . S
H953 C901 0.929 . S
H954 C906 0.929 . S
H955 C907 0.930 . S
H956 C914 0.929 . S
H957 C915 0.930 . S
H958 C916 0.930 . S
H959 C917 0.930 . S
H960 C919 0.929 . S
H961 C920 0.930 1_655 S
H962 C921 0.930 . S
H963 C922 0.930 1_655 S
H964 C926 0.929 . S
H965 C928 0.930 . S
H966 C934 0.929 . S
H967 C935 0.930 . S
Li968 N985 1.990 . S
Li968 O1028 1.956 . S
Li968 O1029 1.970 1_545 S
Li968 O1030 1.961 . S
Li969 N993 1.990 . S
Li969 O1028 1.970 1_565 S
Li969 O1029 1.956 . S
Li969 O1031 1.961 1_565 S
Li970 N1015 1.990 . S
Li970 O1028 1.961 . S
Li970 O1030 1.956 . S
Li970 O1031 1.970 . S
Li971 N1021 1.990 . S
Li971 O1029 1.961 1_545 S
Li971 O1030 1.970 . S
Li971 O1031 1.956 . S
C972 C974 1.348 1_545 S
C972 C975 1.356 . S
C972 O1028 1.325 . S
N973 C976 1.314 . S
N973 C977 1.279 1_565 S
C974 C972 1.348 1_565 S
C974 C976 1.353 . S
C974 H1032 0.929 . S
C975 C972 1.356 . S
C975 C977 1.358 . S
C975 H1033 0.930 . S
C976 N973 1.314 . S
C976 C974 1.353 . S
C976 H1034 0.930 . S
C977 N973 1.279 1_545 S
C977 C975 1.358 . S
C977 H1035 0.930 . S
C978 C981 1.348 . S
C978 C982 1.356 . S
C978 O1029 1.325 . S
C979 N980 1.279 . S
C979 C982 1.358 . S
C979 H1036 0.930 . S
N980 C979 1.279 . S
N980 C983 1.314 . S
C981 C978 1.348 . S
C981 C983 1.353 . S
C981 H1037 0.929 . S
C982 C978 1.356 . S
C982 C979 1.358 . S
C982 H1038 0.930 . S
C983 N980 1.314 . S
C983 C981 1.353 . S
C983 H1039 0.930 . S
C984 N985 1.314 . S
C984 C989 1.353 . S
C984 H990 0.930 . S
N985 Li968 1.990 . S
N985 C984 1.314 . S
N985 C987 1.284 . S
C986 C987 1.357 1_565 S
C986 C988 1.356 1_565 S
C986 H1040 0.930 . S
C987 N985 1.284 . S
C987 C986 1.357 1_545 S
C987 H991 0.927 1_545 S
C988 C986 1.356 1_545 S
C988 C989 1.348 . S
C989 C984 1.353 . S
C989 C988 1.348 . S
C989 H1041 0.929 . S
H990 C984 0.930 . S
H991 C987 0.927 1_565 S
C992 N993 1.314 . S
C992 C994 1.353 . S
C992 H998 0.930 . S
N993 Li969 1.990 . S
N993 C992 1.314 . S
N993 C996 1.279 . S
C994 C992 1.353 . S
C994 C997 1.348 . S
C994 H1042 0.929 . S
C995 C996 1.358 . S
C995 C997 1.356 . S
C995 H1043 0.930 . S
C996 N993 1.279 . S
C996 C995 1.358 . S
C996 H999 0.930 . S
C997 C994 1.348 . S
C997 C995 1.356 . S
H998 C992 0.930 . S
H999 C996 0.930 . S
C1000 C1002 1.348 . S
C1000 C1003 1.356 . S
C1000 O1030 1.325 . S
N1001 C1004 1.314 . S
N1001 C1005 1.279 . S
C1002 C1000 1.348 . S
C1002 C1004 1.353 . S
C1002 H1044 0.929 . S
C1003 C1000 1.356 . S
C1003 C1005 1.358 . S
C1003 H1045 0.930 . S
C1004 N1001 1.314 . S
C1004 C1002 1.353 . S
C1004 H1046 0.930 . S
C1005 N1001 1.279 . S
C1005 C1003 1.358 . S
C1005 H1047 0.930 . S
C1006 C1007 1.348 . S
C1006 C1008 1.356 . S
C1006 O1031 1.325 . S
C1007 C1006 1.348 . S
C1007 C1009 1.353 . S
C1007 H1048 0.929 . S
C1008 C1006 1.356 . S
C1008 C1010 1.358 . S
C1008 H1049 0.930 1_545 S
C1009 C1007 1.353 . S
C1009 N1011 1.314 . S
C1009 H1050 0.930 . S
C1010 C1008 1.358 . S
C1010 N1011 1.279 . S
C1010 H1051 0.930 1_545 S
N1011 C1009 1.314 . S
N1011 C1010 1.279 . S
C1012 C1014 1.353 . S
C1012 N1015 1.314 . S
C1012 H1018 0.930 . S
C1013 N1015 1.279 . S
C1013 C1016 1.358 . S
C1013 H1019 0.930 . S
C1014 C1012 1.353 . S
C1014 C1017 1.348 . S
C1014 H1052 0.929 . S
N1015 Li970 1.990 . S
N1015 C1012 1.314 . S
N1015 C1013 1.279 . S
C1016 C1013 1.358 . S
C1016 C1017 1.356 . S
C1016 H1053 0.930 . S
C1017 C1014 1.348 . S
C1017 C1016 1.356 . S
H1018 C1012 0.930 . S
H1019 C1013 0.930 . S
C1020 N1021 1.314 . S
C1020 C1022 1.353 . S
C1020 H1026 0.930 . S
N1021 Li971 1.990 . S
N1021 C1020 1.314 . S
N1021 C1024 1.279 . S
C1022 C1020 1.353 . S
C1022 C1025 1.348 . S
C1022 H1054 0.929 . S
C1023 C1024 1.358 . S
C1023 C1025 1.356 . S
C1023 H1055 0.930 . S
C1024 N1021 1.279 . S
C1024 C1023 1.358 . S
C1024 H1027 0.930 . S
C1025 C1022 1.348 . S
C1025 C1023 1.356 . S
H1026 C1020 0.930 . S
H1027 C1024 0.930 . S
O1028 Li968 1.956 . S
O1028 Li969 1.970 1_545 S
O1028 Li970 1.961 . S
O1028 C972 1.325 . S
O1029 Li968 1.970 1_565 S
O1029 Li969 1.956 . S
O1029 Li971 1.961 1_565 S
O1029 C978 1.325 . S
O1030 Li968 1.961 . S
O1030 Li970 1.956 . S
O1030 Li971 1.970 . S
O1030 C1000 1.325 . S
O1031 Li969 1.961 1_545 S
O1031 Li970 1.970 . S
O1031 Li971 1.956 . S
O1031 C1006 1.325 . S
H1032 C974 0.929 . S
H1033 C975 0.930 . S
H1034 C976 0.930 . S
H1035 C977 0.930 . S
H1036 C979 0.930 . S
H1037 C981 0.929 . S
H1038 C982 0.930 . S
H1039 C983 0.930 . S
H1040 C986 0.930 . S
H1041 C989 0.929 . S
H1042 C994 0.929 . S
H1043 C995 0.930 . S
H1044 C1002 0.929 . S
H1045 C1003 0.930 . S
H1046 C1004 0.930 . S
H1047 C1005 0.930 . S
H1048 C1007 0.929 . S
H1049 C1008 0.930 1_565 S
H1050 C1009 0.930 . S
H1051 C1010 0.930 1_565 S
H1052 C1014 0.929 . S
H1053 C1016 0.930 . S
H1054 C1022 0.929 . S
H1055 C1023 0.930 . S
Li1056 N1073 1.990 . S
Li1056 O1116 1.956 . S
Li1056 O1117 1.970 . S
Li1056 O1118 1.961 . S
Li1057 N1081 1.990 . S
Li1057 O1116 1.970 . S
Li1057 O1117 1.956 . S
Li1057 O1119 1.961 . S
Li1058 N1103 1.990 . S
Li1058 O1116 1.961 . S
Li1058 O1118 1.956 . S
Li1058 O1119 1.970 . S
Li1059 N1109 1.990 . S
Li1059 O1117 1.961 . S
Li1059 O1118 1.970 . S
Li1059 O1119 1.956 . S
C1060 C1062 1.348 . S
C1060 C1063 1.356 . S
C1060 O1116 1.325 . S
N1061 C1064 1.314 . S
N1061 C1065 1.279 . S
C1062 C1060 1.348 . S
C1062 C1064 1.353 . S
C1062 H1120 0.929 . S
C1063 C1060 1.356 . S
C1063 C1065 1.358 . S
C1063 H1121 0.930 . S
C1064 N1061 1.314 . S
C1064 C1062 1.353 . S
C1064 H1122 0.930 . S
C1065 N1061 1.279 . S
C1065 C1063 1.358 . S
C1065 H1123 0.930 . S
C1066 C1069 1.348 . S
C1066 C1070 1.356 . S
C1066 O1117 1.325 . S
C1067 N1068 1.279 . S
C1067 C1070 1.358 . S
C1067 H1124 0.930 . S
N1068 C1067 1.279 . S
N1068 C1071 1.314 . S
C1069 C1066 1.348 . S
C1069 C1071 1.353 . S
C1069 H1125 0.929 . S
C1070 C1066 1.356 . S
C1070 C1067 1.358 . S
C1070 H1126 0.930 . S
C1071 N1068 1.314 . S
C1071 C1069 1.353 . S
C1071 H1127 0.930 . S
C1072 N1073 1.314 . S
C1072 C1077 1.353 . S
C1072 H1078 0.930 . S
N1073 Li1056 1.990 . S
N1073 C1072 1.314 . S
N1073 C1075 1.279 . S
C1074 C1075 1.358 . S
C1074 C1076 1.356 . S
C1074 H1128 0.930 . S
C1075 N1073 1.279 . S
C1075 C1074 1.358 . S
C1075 H1079 0.930 . S
C1076 C1074 1.356 . S
C1076 C1077 1.348 . S
C1077 C1072 1.353 . S
C1077 C1076 1.348 . S
C1077 H1129 0.929 . S
H1078 C1072 0.930 . S
H1079 C1075 0.930 . S
C1080 N1081 1.314 . S
C1080 C1082 1.353 . S
C1080 H1086 0.930 . S
N1081 Li1057 1.990 . S
N1081 C1080 1.314 . S
N1081 C1084 1.279 . S
C1082 C1080 1.353 . S
C1082 C1085 1.348 . S
C1082 H1130 0.929 . S
C1083 C1084 1.358 . S
C1083 C1085 1.356 . S
C1083 H1131 0.930 . S
C1084 N1081 1.279 . S
C1084 C1083 1.358 . S
C1084 H1087 0.930 . S
C1085 C1082 1.348 . S
C1085 C1083 1.356 . S
H1086 C1080 0.930 . S
H1087 C1084 0.930 . S
C1088 C1090 1.348 . S
C1088 C1091 1.356 . S
C1088 O1118 1.325 . S
N1089 C1092 1.314 . S
N1089 C1093 1.279 . S
C1090 C1088 1.348 . S
C1090 C1092 1.353 . S
C1090 H1132 0.929 . S
C1091 C1088 1.356 . S
C1091 C1093 1.358 . S
C1091 H1133 0.930 . S
C1092 N1089 1.314 . S
C1092 C1090 1.353 . S
C1092 H1134 0.930 . S
C1093 N1089 1.279 . S
C1093 C1091 1.358 . S
C1093 H1135 0.930 . S
C1094 C1095 1.348 . S
C1094 C1096 1.356 . S
C1094 O1119 1.325 . S
C1095 C1094 1.348 . S
C1095 C1097 1.353 . S
C1095 H1136 0.929 . S
C1096 C1094 1.356 . S
C1096 C1098 1.358 . S
C1096 H1137 0.930 . S
C1097 C1095 1.353 . S
C1097 N1099 1.314 . S
C1097 H1138 0.930 . S
C1098 C1096 1.358 . S
C1098 N1099 1.279 . S
C1098 H1139 0.930 . S
N1099 C1097 1.314 . S
N1099 C1098 1.279 . S
C1100 C1102 1.353 . S
C1100 N1103 1.314 . S
C1100 H1106 0.930 . S
C1101 N1103 1.279 . S
C1101 C1104 1.358 . S
C1101 H1107 0.930 . S
C1102 C1100 1.353 . S
C1102 C1105 1.348 . S
C1102 H1140 0.929 . S
N1103 Li1058 1.990 . S
N1103 C1100 1.314 . S
N1103 C1101 1.279 . S
C1104 C1101 1.358 . S
C1104 C1105 1.356 . S
C1104 H1141 0.930 . S
C1105 C1102 1.348 . S
C1105 C1104 1.356 . S
H1106 C1100 0.930 . S
H1107 C1101 0.930 . S
C1108 N1109 1.314 . S
C1108 C1110 1.353 . S
C1108 H1114 0.930 . S
N1109 Li1059 1.990 . S
N1109 C1108 1.314 . S
N1109 C1112 1.279 . S
C1110 C1108 1.353 . S
C1110 C1113 1.348 . S
C1110 H1142 0.929 . S
C1111 C1112 1.358 . S
C1111 C1113 1.356 . S
C1111 H1143 0.930 . S
C1112 N1109 1.279 . S
C1112 C1111 1.358 . S
C1112 H1115 0.930 . S
C1113 C1110 1.348 . S
C1113 C1111 1.356 . S
H1114 C1108 0.930 . S
H1115 C1112 0.930 . S
O1116 Li1056 1.956 . S
O1116 Li1057 1.970 . S
O1116 Li1058 1.961 . S
O1116 C1060 1.325 . S
O1117 Li1056 1.970 . S
O1117 Li1057 1.956 . S
O1117 Li1059 1.961 . S
O1117 C1066 1.325 . S
O1118 Li1056 1.961 . S
O1118 Li1058 1.956 . S
O1118 Li1059 1.970 . S
O1118 C1088 1.325 . S
O1119 Li1057 1.961 . S
O1119 Li1058 1.970 . S
O1119 Li1059 1.956 . S
O1119 C1094 1.325 . S
H1120 C1062 0.929 . S
H1121 C1063 0.930 . S
H1122 C1064 0.930 . S
H1123 C1065 0.930 . S
H1124 C1067 0.930 . S
H1125 C1069 0.929 . S
H1126 C1070 0.930 . S
H1127 C1071 0.930 . S
H1128 C1074 0.930 . S
H1129 C1077 0.929 . S
H1130 C1082 0.929 . S
H1131 C1083 0.930 . S
H1132 C1090 0.929 . S
H1133 C1091 0.930 . S
H1134 C1092 0.930 . S
H1135 C1093 0.930 . S
H1136 C1095 0.929 . S
H1137 C1096 0.930 . S
H1138 C1097 0.930 . S
H1139 C1098 0.930 . S
H1140 C1102 0.929 . S
H1141 C1104 0.930 . S
H1142 C1110 0.929 . S
H1143 C1111 0.930 . S
Li1144 N1161 1.990 . S
Li1144 O1204 1.956 . S
Li1144 O1205 1.970 . S
Li1144 O1206 1.961 . S
Li1145 N1169 1.990 . S
Li1145 O1204 1.970 . S
Li1145 O1205 1.956 . S
Li1145 O1207 1.961 . S
Li1146 N1191 1.990 . S
Li1146 O1204 1.961 . S
Li1146 O1206 1.956 . S
Li1146 O1207 1.970 . S
Li1147 N1197 1.990 . S
Li1147 O1205 1.961 . S
Li1147 O1206 1.970 . S
Li1147 O1207 1.956 . S
C1148 C1150 1.348 . S
C1148 C1151 1.356 . S
C1148 O1204 1.325 . S
N1149 C1152 1.314 . S
N1149 C1153 1.279 . S
C1150 C1148 1.348 . S
C1150 C1152 1.353 . S
C1150 H1208 0.929 . S
C1151 C1148 1.356 . S
C1151 C1153 1.358 . S
C1151 H1209 0.930 . S
C1152 N1149 1.314 . S
C1152 C1150 1.353 . S
C1152 H1210 0.930 . S
C1153 N1149 1.279 . S
C1153 C1151 1.358 . S
C1153 H1211 0.930 . S
C1154 C1157 1.348 . S
C1154 C1158 1.356 . S
C1154 O1205 1.325 . S
C1155 N1156 1.279 . S
C1155 C1158 1.358 . S
C1155 H1212 0.930 . S
N1156 C1155 1.279 . S
N1156 C1159 1.314 . S
C1157 C1154 1.348 . S
C1157 C1159 1.353 . S
C1157 H1213 0.929 . S
C1158 C1154 1.356 . S
C1158 C1155 1.358 . S
C1158 H1214 0.930 . S
C1159 N1156 1.314 . S
C1159 C1157 1.353 . S
C1159 H1215 0.930 . S
C1160 N1161 1.314 . S
C1160 C1165 1.353 . S
C1160 H1166 0.930 . S
N1161 Li1144 1.990 . S
N1161 C1160 1.314 . S
N1161 C1163 1.279 . S
C1162 C1163 1.358 . S
C1162 C1164 1.356 . S
C1162 H1216 0.930 . S
C1163 N1161 1.279 . S
C1163 C1162 1.358 . S
C1163 H1167 0.930 . S
C1164 C1162 1.356 . S
C1164 C1165 1.348 . S
C1165 C1160 1.353 . S
C1165 C1164 1.348 . S
C1165 H1217 0.929 . S
H1166 C1160 0.930 . S
H1167 C1163 0.930 . S
C1168 N1169 1.314 . S
C1168 C1170 1.353 . S
C1168 H1174 0.930 . S
N1169 Li1145 1.990 . S
N1169 C1168 1.314 . S
N1169 C1172 1.279 . S
C1170 C1168 1.353 . S
C1170 C1173 1.348 . S
C1170 H1218 0.929 . S
C1171 C1172 1.358 . S
C1171 C1173 1.356 . S
C1171 H1219 0.930 . S
C1172 N1169 1.279 . S
C1172 C1171 1.358 . S
C1172 H1175 0.930 . S
C1173 C1170 1.348 . S
C1173 C1171 1.356 . S
H1174 C1168 0.930 . S
H1175 C1172 0.930 . S
C1176 C1178 1.348 . S
C1176 C1179 1.356 . S
C1176 O1206 1.325 . S
N1177 C1180 1.314 . S
N1177 C1181 1.279 . S
C1178 C1176 1.348 . S
C1178 C1180 1.353 . S
C1178 H1220 0.929 . S
C1179 C1176 1.356 . S
C1179 C1181 1.358 . S
C1179 H1221 0.930 . S
C1180 N1177 1.314 . S
C1180 C1178 1.353 . S
C1180 H1222 0.930 . S
C1181 N1177 1.279 . S
C1181 C1179 1.358 . S
C1181 H1223 0.930 . S
C1182 C1183 1.348 . S
C1182 C1184 1.356 . S
C1182 O1207 1.325 . S
C1183 C1182 1.348 . S
C1183 C1185 1.353 . S
C1183 H1224 0.929 . S
C1184 C1182 1.356 . S
C1184 C1186 1.358 . S
C1184 H1225 0.930 . S
C1185 C1183 1.353 . S
C1185 N1187 1.314 . S
C1185 H1226 0.930 . S
C1186 C1184 1.358 . S
C1186 N1187 1.279 . S
C1186 H1227 0.930 . S
N1187 C1185 1.314 . S
N1187 C1186 1.279 . S
C1188 C1190 1.353 . S
C1188 N1191 1.314 . S
C1188 H1194 0.930 . S
C1189 N1191 1.279 . S
C1189 C1192 1.358 . S
C1189 H1195 0.930 . S
C1190 C1188 1.353 . S
C1190 C1193 1.348 . S
C1190 H1228 0.929 . S
N1191 Li1146 1.990 . S
N1191 C1188 1.314 . S
N1191 C1189 1.279 . S
C1192 C1189 1.358 . S
C1192 C1193 1.356 . S
C1192 H1229 0.930 . S
C1193 C1190 1.348 . S
C1193 C1192 1.356 . S
H1194 C1188 0.930 . S
H1195 C1189 0.930 . S
C1196 N1197 1.314 . S
C1196 C1198 1.353 . S
C1196 H1202 0.930 . S
N1197 Li1147 1.990 . S
N1197 C1196 1.314 . S
N1197 C1200 1.279 . S
C1198 C1196 1.353 . S
C1198 C1201 1.348 . S
C1198 H1230 0.929 . S
C1199 C1200 1.358 . S
C1199 C1201 1.356 . S
C1199 H1231 0.930 . S
C1200 N1197 1.279 . S
C1200 C1199 1.358 . S
C1200 H1203 0.930 . S
C1201 C1198 1.348 . S
C1201 C1199 1.356 . S
H1202 C1196 0.930 . S
H1203 C1200 0.930 . S
O1204 Li1144 1.956 . S
O1204 Li1145 1.970 . S
O1204 Li1146 1.961 . S
O1204 C1148 1.325 . S
O1205 Li1144 1.970 . S
O1205 Li1145 1.956 . S
O1205 Li1147 1.961 . S
O1205 C1154 1.325 . S
O1206 Li1144 1.961 . S
O1206 Li1146 1.956 . S
O1206 Li1147 1.970 . S
O1206 C1176 1.325 . S
O1207 Li1145 1.961 . S
O1207 Li1146 1.970 . S
O1207 Li1147 1.956 . S
O1207 C1182 1.325 . S
H1208 C1150 0.929 . S
H1209 C1151 0.930 . S
H1210 C1152 0.930 . S
H1211 C1153 0.930 . S
H1212 C1155 0.930 . S
H1213 C1157 0.929 . S
H1214 C1158 0.930 . S
H1215 C1159 0.930 . S
H1216 C1162 0.930 . S
H1217 C1165 0.929 . S
H1218 C1170 0.929 . S
H1219 C1171 0.930 . S
H1220 C1178 0.929 . S
H1221 C1179 0.930 . S
H1222 C1180 0.930 . S
H1223 C1181 0.930 . S
H1224 C1183 0.929 . S
H1225 C1184 0.930 . S
H1226 C1185 0.930 . S
H1227 C1186 0.930 . S
H1228 C1190 0.929 . S
H1229 C1192 0.930 . S
H1230 C1198 0.929 . S
H1231 C1199 0.930 . S
Li1232 N1249 1.990 . S
Li1232 O1292 1.956 . S
Li1232 O1293 1.970 . S
Li1232 O1294 1.961 . S
Li1233 N1257 1.990 . S
Li1233 O1292 1.970 . S
Li1233 O1293 1.956 . S
Li1233 O1295 1.961 1_455 S
Li1234 N1279 1.990 . S
Li1234 O1292 1.961 . S
Li1234 O1294 1.956 . S
Li1234 O1295 1.970 1_455 S
Li1235 N1285 1.990 . S
Li1235 O1293 1.961 1_655 S
Li1235 O1294 1.970 1_655 S
Li1235 O1295 1.956 . S
C1236 C1238 1.348 . S
C1236 C1239 1.356 . S
C1236 O1292 1.325 . S
N1237 C1240 1.314 . S
N1237 C1241 1.279 . S
C1238 C1236 1.348 . S
C1238 C1240 1.353 . S
C1238 H1296 0.929 . S
C1239 C1236 1.356 . S
C1239 C1241 1.358 . S
C1239 H1297 0.930 . S
C1240 N1237 1.314 . S
C1240 C1238 1.353 . S
C1240 H1298 0.930 . S
C1241 N1237 1.279 . S
C1241 C1239 1.358 . S
C1241 H1299 0.930 . S
C1242 C1245 1.348 . S
C1242 C1246 1.356 . S
C1242 O1293 1.325 . S
C1243 N1244 1.279 . S
C1243 C1246 1.358 . S
C1243 H1300 0.930 1_455 S
N1244 C1243 1.279 . S
N1244 C1247 1.314 . S
C1245 C1242 1.348 . S
C1245 C1247 1.353 . S
C1245 H1301 0.929 . S
C1246 C1242 1.356 . S
C1246 C1243 1.358 . S
C1246 H1302 0.930 1_455 S
C1247 N1244 1.314 . S
C1247 C1245 1.353 . S
C1247 H1303 0.930 . S
C1248 N1249 1.314 . S
C1248 C1253 1.353 . S
C1248 H1254 0.930 . S
N1249 Li1232 1.990 . S
N1249 C1248 1.314 . S
N1249 C1251 1.279 . S
C1250 C1251 1.358 . S
C1250 C1252 1.356 . S
C1250 H1304 0.930 . S
C1251 N1249 1.279 . S
C1251 C1250 1.358 . S
C1251 H1255 0.930 . S
C1252 C1250 1.356 . S
C1252 C1253 1.348 . S
C1253 C1248 1.353 . S
C1253 C1252 1.348 . S
C1253 H1305 0.929 . S
H1254 C1248 0.930 . S
H1255 C1251 0.930 . S
C1256 N1257 1.314 . S
C1256 C1258 1.353 . S
C1256 H1262 0.930 . S
N1257 Li1233 1.990 . S
N1257 C1256 1.314 . S
N1257 C1260 1.279 . S
C1258 C1256 1.353 . S
C1258 C1261 1.348 . S
C1258 H1306 0.929 . S
C1259 C1260 1.358 . S
C1259 C1261 1.356 . S
C1259 H1307 0.930 . S
C1260 N1257 1.279 . S
C1260 C1259 1.358 . S
C1260 H1263 0.930 . S
C1261 C1258 1.348 . S
C1261 C1259 1.356 . S
H1262 C1256 0.930 . S
H1263 C1260 0.930 . S
C1264 C1266 1.348 1_455 S
C1264 C1267 1.356 . S
C1264 O1294 1.325 . S
N1265 C1268 1.314 . S
N1265 C1269 1.279 1_655 S
C1266 C1264 1.348 1_655 S
C1266 C1268 1.353 . S
C1266 H1308 0.929 . S
C1267 C1264 1.356 . S
C1267 C1269 1.358 . S
C1267 H1309 0.930 . S
C1268 N1265 1.314 . S
C1268 C1266 1.353 . S
C1268 H1310 0.930 . S
C1269 N1265 1.279 1_455 S
C1269 C1267 1.358 . S
C1269 H1311 0.930 . S
C1270 C1271 1.348 . S
C1270 C1272 1.356 . S
C1270 O1295 1.325 . S
C1271 C1270 1.348 . S
C1271 C1273 1.353 . S
C1271 H1312 0.929 . S
C1272 C1270 1.356 . S
C1272 C1274 1.358 . S
C1272 H1313 0.930 . S
C1273 C1271 1.353 . S
C1273 N1275 1.314 . S
C1273 H1314 0.930 . S
C1274 C1272 1.358 . S
C1274 N1275 1.279 . S
C1274 H1315 0.930 . S
N1275 C1273 1.314 . S
N1275 C1274 1.279 . S
C1276 C1278 1.353 . S
C1276 N1279 1.314 . S
C1276 H1282 0.930 . S
C1277 N1279 1.284 . S
C1277 C1280 1.357 1_455 S
C1277 H1283 0.927 1_455 S
C1278 C1276 1.353 . S
C1278 C1281 1.348 . S
C1278 H1316 0.929 . S
N1279 Li1234 1.990 . S
N1279 C1276 1.314 . S
N1279 C1277 1.284 . S
C1280 C1277 1.357 1_655 S
C1280 C1281 1.356 1_655 S
C1280 H1317 0.930 . S
C1281 C1278 1.348 . S
C1281 C1280 1.356 1_455 S
H1282 C1276 0.930 . S
H1283 C1277 0.927 1_655 S
C1284 N1285 1.314 . S
C1284 C1286 1.353 . S
C1284 H1290 0.930 . S
N1285 Li1235 1.990 . S
N1285 C1284 1.314 . S
N1285 C1288 1.279 . S
C1286 C1284 1.353 . S
C1286 C1289 1.348 . S
C1286 H1318 0.929 . S
C1287 C1288 1.358 . S
C1287 C1289 1.356 . S
C1287 H1319 0.930 . S
C1288 N1285 1.279 . S
C1288 C1287 1.358 . S
C1288 H1291 0.930 . S
C1289 C1286 1.348 . S
C1289 C1287 1.356 . S
H1290 C1284 0.930 . S
H1291 C1288 0.930 . S
O1292 Li1232 1.956 . S
O1292 Li1233 1.970 . S
O1292 Li1234 1.961 . S
O1292 C1236 1.325 . S
O1293 Li1232 1.970 . S
O1293 Li1233 1.956 . S
O1293 Li1235 1.961 1_455 S
O1293 C1242 1.325 . S
O1294 Li1232 1.961 . S
O1294 Li1234 1.956 . S
O1294 Li1235 1.970 1_455 S
O1294 C1264 1.325 . S
O1295 Li1233 1.961 1_655 S
O1295 Li1234 1.970 1_655 S
O1295 Li1235 1.956 . S
O1295 C1270 1.325 . S
H1296 C1238 0.929 . S
H1297 C1239 0.930 . S
H1298 C1240 0.930 . S
H1299 C1241 0.930 . S
H1300 C1243 0.930 1_655 S
H1301 C1245 0.929 . S
H1302 C1246 0.930 1_655 S
H1303 C1247 0.930 . S
H1304 C1250 0.930 . S
H1305 C1253 0.929 . S
H1306 C1258 0.929 . S
H1307 C1259 0.930 . S
H1308 C1266 0.929 . S
H1309 C1267 0.930 . S
H1310 C1268 0.930 . S
H1311 C1269 0.930 . S
H1312 C1271 0.929 . S
H1313 C1272 0.930 . S
H1314 C1273 0.930 . S
H1315 C1274 0.930 . S
H1316 C1278 0.929 . S
H1317 C1280 0.930 . S
H1318 C1286 0.929 . S
H1319 C1287 0.930 . S
Li1320 N1337 1.990 . S
Li1320 O1380 1.956 . S
Li1320 O1381 1.970 . S
Li1320 O1382 1.961 . S
Li1321 N1345 1.990 . S
Li1321 O1380 1.970 . S
Li1321 O1381 1.956 . S
Li1321 O1383 1.961 1_545 S
Li1322 N1367 1.990 . S
Li1322 O1380 1.961 . S
Li1322 O1382 1.956 . S
Li1322 O1383 1.970 1_545 S
Li1323 N1373 1.990 . S
Li1323 O1381 1.961 1_565 S
Li1323 O1382 1.970 1_565 S
Li1323 O1383 1.956 . S
C1324 C1326 1.348 . S
C1324 C1327 1.356 . S
C1324 O1380 1.325 . S
N1325 C1328 1.314 . S
N1325 C1329 1.279 . S
C1326 C1324 1.348 . S
C1326 C1328 1.353 . S
C1326 H1384 0.929 . S
C1327 C1324 1.356 . S
C1327 C1329 1.358 . S
C1327 H1385 0.930 . S
C1328 N1325 1.314 . S
C1328 C1326 1.353 . S
C1328 H1386 0.930 . S
C1329 N1325 1.279 . S
C1329 C1327 1.358 . S
C1329 H1387 0.930 . S
C1330 C1333 1.348 . S
C1330 C1334 1.356 . S
C1330 O1381 1.325 . S
C1331 N1332 1.279 . S
C1331 C1334 1.358 . S
C1331 H1388 0.930 1_545 S
N1332 C1331 1.279 . S
N1332 C1335 1.314 . S
C1333 C1330 1.348 . S
C1333 C1335 1.353 . S
C1333 H1389 0.929 . S
C1334 C1330 1.356 . S
C1334 C1331 1.358 . S
C1334 H1390 0.930 1_545 S
C1335 N1332 1.314 . S
C1335 C1333 1.353 . S
C1335 H1391 0.930 . S
C1336 N1337 1.314 . S
C1336 C1341 1.353 . S
C1336 H1342 0.930 . S
N1337 Li1320 1.990 . S
N1337 C1336 1.314 . S
N1337 C1339 1.279 . S
C1338 C1339 1.358 . S
C1338 C1340 1.356 . S
C1338 H1392 0.930 . S
C1339 N1337 1.279 . S
C1339 C1338 1.358 . S
C1339 H1343 0.930 . S
C1340 C1338 1.356 . S
C1340 C1341 1.348 . S
C1341 C1336 1.353 . S
C1341 C1340 1.348 . S
C1341 H1393 0.929 . S
H1342 C1336 0.930 . S
H1343 C1339 0.930 . S
C1344 N1345 1.314 . S
C1344 C1346 1.353 . S
C1344 H1350 0.930 . S
N1345 Li1321 1.990 . S
N1345 C1344 1.314 . S
N1345 C1348 1.279 . S
C1346 C1344 1.353 . S
C1346 C1349 1.348 . S
C1346 H1394 0.929 . S
C1347 C1348 1.358 . S
C1347 C1349 1.356 . S
C1347 H1395 0.930 . S
C1348 N1345 1.279 . S
C1348 C1347 1.358 . S
C1348 H1351 0.930 . S
C1349 C1346 1.348 . S
C1349 C1347 1.356 . S
H1350 C1344 0.930 . S
H1351 C1348 0.930 . S
C1352 C1354 1.348 1_545 S
C1352 C1355 1.356 . S
C1352 O1382 1.325 . S
N1353 C1356 1.314 . S
N1353 C1357 1.279 1_565 S
C1354 C1352 1.348 1_565 S
C1354 C1356 1.353 . S
C1354 H1396 0.929 . S
C1355 C1352 1.356 . S
C1355 C1357 1.358 . S
C1355 H1397 0.930 . S
C1356 N1353 1.314 . S
C1356 C1354 1.353 . S
C1356 H1398 0.930 . S
C1357 N1353 1.279 1_545 S
C1357 C1355 1.358 . S
C1357 H1399 0.930 . S
C1358 C1359 1.348 . S
C1358 C1360 1.356 . S
C1358 O1383 1.325 . S
C1359 C1358 1.348 . S
C1359 C1361 1.353 . S
C1359 H1400 0.929 . S
C1360 C1358 1.356 . S
C1360 C1362 1.358 . S
C1360 H1401 0.930 . S
C1361 C1359 1.353 . S
C1361 N1363 1.314 . S
C1361 H1402 0.930 . S
C1362 C1360 1.358 . S
C1362 N1363 1.279 . S
C1362 H1403 0.930 . S
N1363 C1361 1.314 . S
N1363 C1362 1.279 . S
C1364 C1366 1.353 . S
C1364 N1367 1.314 . S
C1364 H1370 0.930 . S
C1365 N1367 1.284 . S
C1365 C1368 1.357 1_545 S
C1365 H1371 0.927 1_545 S
C1366 C1364 1.353 . S
C1366 C1369 1.348 . S
C1366 H1404 0.929 . S
N1367 Li1322 1.990 . S
N1367 C1364 1.314 . S
N1367 C1365 1.284 . S
C1368 C1365 1.357 1_565 S
C1368 C1369 1.356 1_565 S
C1368 H1405 0.930 . S
C1369 C1366 1.348 . S
C1369 C1368 1.356 1_545 S
H1370 C1364 0.930 . S
H1371 C1365 0.927 1_565 S
C1372 N1373 1.314 . S
C1372 C1374 1.353 . S
C1372 H1378 0.930 . S
N1373 Li1323 1.990 . S
N1373 C1372 1.314 . S
N1373 C1376 1.279 . S
C1374 C1372 1.353 . S
C1374 C1377 1.348 . S
C1374 H1406 0.929 . S
C1375 C1376 1.358 . S
C1375 C1377 1.356 . S
C1375 H1407 0.930 . S
C1376 N1373 1.279 . S
C1376 C1375 1.358 . S
C1376 H1379 0.930 . S
C1377 C1374 1.348 . S
C1377 C1375 1.356 . S
H1378 C1372 0.930 . S
H1379 C1376 0.930 . S
O1380 Li1320 1.956 . S
O1380 Li1321 1.970 . S
O1380 Li1322 1.961 . S
O1380 C1324 1.325 . S
O1381 Li1320 1.970 . S
O1381 Li1321 1.956 . S
O1381 Li1323 1.961 1_545 S
O1381 C1330 1.325 . S
O1382 Li1320 1.961 . S
O1382 Li1322 1.956 . S
O1382 Li1323 1.970 1_545 S
O1382 C1352 1.325 . S
O1383 Li1321 1.961 1_565 S
O1383 Li1322 1.970 1_565 S
O1383 Li1323 1.956 . S
O1383 C1358 1.325 . S
H1384 C1326 0.929 . S
H1385 C1327 0.930 . S
H1386 C1328 0.930 . S
H1387 C1329 0.930 . S
H1388 C1331 0.930 1_565 S
H1389 C1333 0.929 . S
H1390 C1334 0.930 1_565 S
H1391 C1335 0.930 . S
H1392 C1338 0.930 . S
H1393 C1341 0.929 . S
H1394 C1346 0.929 . S
H1395 C1347 0.930 . S
H1396 C1354 0.929 . S
H1397 C1355 0.930 . S
H1398 C1356 0.930 . S
H1399 C1357 0.930 . S
H1400 C1359 0.929 . S
H1401 C1360 0.930 . S
H1402 C1361 0.930 . S
H1403 C1362 0.930 . S
H1404 C1366 0.929 . S
H1405 C1368 0.930 . S
H1406 C1374 0.929 . S
H1407 C1375 0.930 . S
H1408 C1414 0.930 . S
H1409 C1418 0.930 . S
H1410 C1423 0.929 . S
H1411 C1421 0.929 . S
H1412 C1416 0.929 . S
H1413 C1422 0.929 . S
C1414 H1408 0.930 . S
C1414 C1415 1.367 . S
C1414 C1422 1.378 . S
C1415 C1414 1.367 . S
C1415 C1423 1.433 . S
C1416 H1412 0.929 . S
C1416 C1418 1.378 . S
C1416 C1420 1.350 . S
C1417 C1420 1.463 . S
C1417 C1422 1.350 . S
C1417 N1425 1.427 . S
C1418 H1409 0.930 . S
C1418 C1416 1.378 . S
C1418 C1419 1.367 . S
C1419 C1418 1.367 . S
C1419 C1421 1.433 . S
C1420 C1416 1.350 . S
C1420 C1417 1.463 . S
C1420 N1424 1.427 . S
C1421 H1411 0.929 . S
C1421 C1419 1.433 . S
C1421 N1424 1.384 . S
C1422 H1413 0.929 . S
C1422 C1414 1.378 . S
C1422 C1417 1.350 . S
C1423 H1410 0.929 . S
C1423 C1415 1.433 . S
C1423 N1425 1.384 . S
N1424 C1420 1.427 . S
N1424 C1421 1.384 . S
N1425 C1417 1.427 . S
N1425 C1423 1.384 . S
H1426 C1432 0.930 . S
H1427 C1436 0.930 . S
H1428 C1441 0.929 . S
H1429 C1439 0.929 . S
H1430 C1434 0.929 . S
H1431 C1440 0.929 . S
C1432 H1426 0.930 . S
C1432 C1433 1.367 . S
C1432 C1440 1.378 . S
C1433 C1432 1.367 . S
C1433 C1441 1.433 . S
C1434 H1430 0.929 . S
C1434 C1436 1.378 . S
C1434 C1438 1.350 . S
C1435 C1438 1.463 . S
C1435 C1440 1.350 . S
C1435 N1443 1.427 . S
C1436 H1427 0.930 . S
C1436 C1434 1.378 . S
C1436 C1437 1.367 . S
C1437 C1436 1.367 . S
C1437 C1439 1.433 . S
C1438 C1434 1.350 . S
C1438 C1435 1.463 . S
C1438 N1442 1.427 . S
C1439 H1429 0.929 . S
C1439 C1437 1.433 . S
C1439 N1442 1.384 . S
C1440 H1431 0.929 . S
C1440 C1432 1.378 . S
C1440 C1435 1.350 . S
C1441 H1428 0.929 . S
C1441 C1433 1.433 . S
C1441 N1443 1.384 . S
N1442 C1438 1.427 . S
N1442 C1439 1.384 . S
N1443 C1435 1.427 . S
N1443 C1441 1.384 . S
H1444 C1450 0.930 . S
H1445 C1454 0.930 . S
H1446 C1459 0.929 . S
H1447 C1457 0.929 . S
H1448 C1452 0.929 . S
H1449 C1458 0.929 . S
C1450 H1444 0.930 . S
C1450 C1451 1.367 . S
C1450 C1458 1.378 . S
C1451 C1450 1.367 . S
C1451 C1459 1.433 . S
C1452 H1448 0.929 . S
C1452 C1454 1.378 . S
C1452 C1456 1.350 . S
C1453 C1456 1.463 . S
C1453 C1458 1.350 . S
C1453 N1461 1.427 . S
C1454 H1445 0.930 . S
C1454 C1452 1.378 . S
C1454 C1455 1.367 . S
C1455 C1454 1.367 . S
C1455 C1457 1.433 . S
C1456 C1452 1.350 . S
C1456 C1453 1.463 . S
C1456 N1460 1.427 . S
C1457 H1447 0.929 . S
C1457 C1455 1.433 . S
C1457 N1460 1.384 . S
C1458 H1449 0.929 . S
C1458 C1450 1.378 . S
C1458 C1453 1.350 . S
C1459 H1446 0.929 . S
C1459 C1451 1.433 . S
C1459 N1461 1.384 . S
N1460 C1456 1.427 . S
N1460 C1457 1.384 . S
N1461 C1453 1.427 . S
N1461 C1459 1.384 . S
H1462 C1468 0.930 . S
H1463 C1472 0.930 . S
H1464 C1477 0.929 . S
H1465 C1475 0.929 . S
H1466 C1470 0.929 . S
H1467 C1476 0.929 . S
C1468 H1462 0.930 . S
C1468 C1469 1.367 . S
C1468 C1476 1.378 . S
C1469 C1468 1.367 . S
C1469 C1477 1.433 . S
C1470 H1466 0.929 . S
C1470 C1472 1.378 . S
C1470 C1474 1.350 . S
C1471 C1474 1.463 . S
C1471 C1476 1.350 . S
C1471 N1479 1.427 . S
C1472 H1463 0.930 . S
C1472 C1470 1.378 . S
C1472 C1473 1.367 . S
C1473 C1472 1.367 . S
C1473 C1475 1.433 . S
C1474 C1470 1.350 . S
C1474 C1471 1.463 . S
C1474 N1478 1.427 . S
C1475 H1465 0.929 . S
C1475 C1473 1.433 . S
C1475 N1478 1.384 . S
C1476 H1467 0.929 . S
C1476 C1468 1.378 . S
C1476 C1471 1.350 . S
C1477 H1464 0.929 . S
C1477 C1469 1.433 . S
C1477 N1479 1.384 . S
N1478 C1474 1.427 . S
N1478 C1475 1.384 . S
N1479 C1471 1.427 . S
N1479 C1477 1.384 . S
H1480 C1486 0.930 . S
H1481 C1490 0.930 . S
H1482 C1495 0.929 . S
H1483 C1493 0.929 . S
H1484 C1488 0.929 . S
H1485 C1494 0.929 . S
C1486 H1480 0.930 . S
C1486 C1487 1.367 . S
C1486 C1494 1.378 . S
C1487 C1486 1.367 . S
C1487 C1495 1.433 . S
C1488 H1484 0.929 . S
C1488 C1490 1.378 . S
C1488 C1492 1.350 . S
C1489 C1492 1.463 . S
C1489 C1494 1.350 . S
C1489 N1497 1.427 . S
C1490 H1481 0.930 . S
C1490 C1488 1.378 . S
C1490 C1491 1.367 . S
C1491 C1490 1.367 . S
C1491 C1493 1.433 . S
C1492 C1488 1.350 . S
C1492 C1489 1.463 . S
C1492 N1496 1.427 . S
C1493 H1483 0.929 . S
C1493 C1491 1.433 . S
C1493 N1496 1.384 . S
C1494 H1485 0.929 . S
C1494 C1486 1.378 . S
C1494 C1489 1.350 . S
C1495 H1482 0.929 . S
C1495 C1487 1.433 . S
C1495 N1497 1.384 . S
N1496 C1492 1.427 . S
N1496 C1493 1.384 . S
N1497 C1489 1.427 . S
N1497 C1495 1.384 . S
H1498 C1504 0.930 . S
H1499 C1508 0.930 . S
H1500 C1513 0.929 . S
H1501 C1511 0.929 . S
H1502 C1506 0.929 . S
H1503 C1512 0.929 . S
C1504 H1498 0.930 . S
C1504 C1505 1.367 . S
C1504 C1512 1.378 . S
C1505 C1504 1.367 . S
C1505 C1513 1.433 . S
C1506 H1502 0.929 . S
C1506 C1508 1.378 . S
C1506 C1510 1.350 . S
C1507 C1510 1.463 . S
C1507 C1512 1.350 . S
C1507 N1515 1.427 . S
C1508 H1499 0.930 . S
C1508 C1506 1.378 . S
C1508 C1509 1.367 . S
C1509 C1508 1.367 . S
C1509 C1511 1.433 . S
C1510 C1506 1.350 . S
C1510 C1507 1.463 . S
C1510 N1514 1.427 . S
C1511 H1501 0.929 . S
C1511 C1509 1.433 . S
C1511 N1514 1.384 . S
C1512 H1503 0.929 . S
C1512 C1504 1.378 . S
C1512 C1507 1.350 . S
C1513 H1500 0.929 . S
C1513 C1505 1.433 . S
C1513 N1515 1.384 . S
N1514 C1510 1.427 . S
N1514 C1511 1.384 . S
N1515 C1507 1.427 . S
N1515 C1513 1.384 . S
H1516 C1522 0.930 . S
H1517 C1526 0.930 . S
H1518 C1531 0.929 . S
H1519 C1529 0.929 . S
H1520 C1524 0.929 . S
H1521 C1530 0.929 . S
C1522 H1516 0.930 . S
C1522 C1523 1.367 . S
C1522 C1530 1.378 . S
C1523 C1522 1.367 . S
C1523 C1531 1.433 . S
C1524 H1520 0.929 . S
C1524 C1526 1.378 . S
C1524 C1528 1.350 . S
C1525 C1528 1.463 . S
C1525 C1530 1.350 . S
C1525 N1533 1.427 . S
C1526 H1517 0.930 . S
C1526 C1524 1.378 . S
C1526 C1527 1.367 . S
C1527 C1526 1.367 . S
C1527 C1529 1.433 . S
C1528 C1524 1.350 . S
C1528 C1525 1.463 . S
C1528 N1532 1.427 . S
C1529 H1519 0.929 . S
C1529 C1527 1.433 . S
C1529 N1532 1.384 . S
C1530 H1521 0.929 . S
C1530 C1522 1.378 . S
C1530 C1525 1.350 . S
C1531 H1518 0.929 . S
C1531 C1523 1.433 . S
C1531 N1533 1.384 . S
N1532 C1528 1.427 . S
N1532 C1529 1.384 . S
N1533 C1525 1.427 . S
N1533 C1531 1.384 . S
H1534 C1540 0.930 . S
H1535 C1544 0.930 . S
H1536 C1549 0.929 . S
H1537 C1547 0.929 . S
H1538 C1542 0.929 . S
H1539 C1548 0.929 . S
C1540 H1534 0.930 . S
C1540 C1541 1.367 . S
C1540 C1548 1.378 . S
C1541 C1540 1.367 . S
C1541 C1549 1.433 . S
C1542 H1538 0.929 . S
C1542 C1544 1.378 . S
C1542 C1546 1.350 . S
C1543 C1546 1.463 . S
C1543 C1548 1.350 . S
C1543 N1551 1.427 . S
C1544 H1535 0.930 . S
C1544 C1542 1.378 . S
C1544 C1545 1.367 . S
C1545 C1544 1.367 . S
C1545 C1547 1.433 . S
C1546 C1542 1.350 . S
C1546 C1543 1.463 . S
C1546 N1550 1.427 . S
C1547 H1537 0.929 . S
C1547 C1545 1.433 . S
C1547 N1550 1.384 . S
C1548 H1539 0.929 . S
C1548 C1540 1.378 . S
C1548 C1543 1.350 . S
C1549 H1536 0.929 . S
C1549 C1541 1.433 . S
C1549 N1551 1.384 . S
N1550 C1546 1.427 . S
N1550 C1547 1.384 . S
N1551 C1543 1.427 . S
N1551 C1549 1.384 . S
H1552 C1558 0.930 . S
H1553 C1562 0.930 . S
H1554 C1567 0.929 . S
H1555 C1565 0.929 . S
H1556 C1560 0.929 . S
H1557 C1566 0.929 . S
C1558 H1552 0.930 . S
C1558 C1559 1.367 . S
C1558 C1566 1.378 . S
C1559 C1558 1.367 . S
C1559 C1567 1.433 . S
C1560 H1556 0.929 . S
C1560 C1562 1.378 . S
C1560 C1564 1.350 . S
C1561 C1564 1.463 . S
C1561 C1566 1.350 . S
C1561 N1569 1.427 . S
C1562 H1553 0.930 . S
C1562 C1560 1.378 . S
C1562 C1563 1.367 . S
C1563 C1562 1.367 . S
C1563 C1565 1.433 . S
C1564 C1560 1.350 . S
C1564 C1561 1.463 . S
C1564 N1568 1.427 . S
C1565 H1555 0.929 . S
C1565 C1563 1.433 . S
C1565 N1568 1.384 . S
C1566 H1557 0.929 . S
C1566 C1558 1.378 . S
C1566 C1561 1.350 . S
C1567 H1554 0.929 . S
C1567 C1559 1.433 . S
C1567 N1569 1.384 . S
N1568 C1564 1.427 . S
N1568 C1565 1.384 . S
N1569 C1561 1.427 . S
N1569 C1567 1.384 . S
H1570 C1576 0.930 . S
H1571 C1580 0.930 . S
H1572 C1585 0.929 . S
H1573 C1583 0.929 . S
H1574 C1578 0.929 . S
H1575 C1584 0.929 . S
C1576 H1570 0.930 . S
C1576 C1577 1.367 . S
C1576 C1584 1.378 . S
C1577 C1576 1.367 . S
C1577 C1585 1.433 . S
C1578 H1574 0.929 . S
C1578 C1580 1.378 . S
C1578 C1582 1.350 . S
C1579 C1582 1.463 . S
C1579 C1584 1.350 . S
C1579 N1587 1.427 . S
C1580 H1571 0.930 . S
C1580 C1578 1.378 . S
C1580 C1581 1.367 . S
C1581 C1580 1.367 . S
C1581 C1583 1.433 . S
C1582 C1578 1.350 . S
C1582 C1579 1.463 . S
C1582 N1586 1.427 . S
C1583 H1573 0.929 . S
C1583 C1581 1.433 . S
C1583 N1586 1.384 . S
C1584 H1575 0.929 . S
C1584 C1576 1.378 . S
C1584 C1579 1.350 . S
C1585 H1572 0.929 . S
C1585 C1577 1.433 . S
C1585 N1587 1.384 . S
N1586 C1582 1.427 . S
N1586 C1583 1.384 . S
N1587 C1579 1.427 . S
N1587 C1585 1.384 . S
H1588 C1594 0.930 . S
H1589 C1598 0.930 . S
H1590 C1603 0.929 . S
H1591 C1601 0.929 . S
H1592 C1596 0.929 . S
H1593 C1602 0.929 . S
C1594 H1588 0.930 . S
C1594 C1595 1.367 . S
C1594 C1602 1.378 . S
C1595 C1594 1.367 . S
C1595 C1603 1.433 . S
C1596 H1592 0.929 . S
C1596 C1598 1.378 . S
C1596 C1600 1.350 . S
C1597 C1600 1.463 . S
C1597 C1602 1.350 . S
C1597 N1605 1.427 . S
C1598 H1589 0.930 . S
C1598 C1596 1.378 . S
C1598 C1599 1.367 . S
C1599 C1598 1.367 . S
C1599 C1601 1.433 . S
C1600 C1596 1.350 . S
C1600 C1597 1.463 . S
C1600 N1604 1.427 . S
C1601 H1591 0.929 . S
C1601 C1599 1.433 . S
C1601 N1604 1.384 . S
C1602 H1593 0.929 . S
C1602 C1594 1.378 . S
C1602 C1597 1.350 . S
C1603 H1590 0.929 . S
C1603 C1595 1.433 . S
C1603 N1605 1.384 . S
N1604 C1600 1.427 . S
N1604 C1601 1.384 . S
N1605 C1597 1.427 . S
N1605 C1603 1.384 . S
H1606 C1612 0.930 . S
H1607 C1616 0.930 . S
H1608 C1621 0.929 . S
H1609 C1619 0.929 . S
H1610 C1614 0.929 . S
H1611 C1620 0.929 . S
C1612 H1606 0.930 . S
C1612 C1613 1.367 . S
C1612 C1620 1.378 . S
C1613 C1612 1.367 . S
C1613 C1621 1.433 . S
C1614 H1610 0.929 . S
C1614 C1616 1.378 . S
C1614 C1618 1.350 . S
C1615 C1618 1.463 . S
C1615 C1620 1.350 . S
C1615 N1623 1.427 . S
C1616 H1607 0.930 . S
C1616 C1614 1.378 . S
C1616 C1617 1.367 . S
C1617 C1616 1.367 . S
C1617 C1619 1.433 . S
C1618 C1614 1.350 . S
C1618 C1615 1.463 . S
C1618 N1622 1.427 . S
C1619 H1609 0.929 . S
C1619 C1617 1.433 . S
C1619 N1622 1.384 . S
C1620 H1611 0.929 . S
C1620 C1612 1.378 . S
C1620 C1615 1.350 . S
C1621 H1608 0.929 . S
C1621 C1613 1.433 . S
C1621 N1623 1.384 . S
N1622 C1618 1.427 . S
N1622 C1619 1.384 . S
N1623 C1615 1.427 . S
N1623 C1621 1.384 . S
H1624 C1630 0.930 . S
H1625 C1634 0.930 . S
H1626 C1639 0.929 . S
H1627 C1637 0.929 . S
H1628 C1632 0.929 . S
H1629 C1638 0.929 . S
C1630 H1624 0.930 . S
C1630 C1631 1.367 . S
C1630 C1638 1.378 . S
C1631 C1630 1.367 . S
C1631 C1639 1.433 . S
C1632 H1628 0.929 . S
C1632 C1634 1.378 . S
C1632 C1636 1.350 . S
C1633 C1636 1.463 . S
C1633 C1638 1.350 . S
C1633 N1641 1.427 . S
C1634 H1625 0.930 . S
C1634 C1632 1.378 . S
C1634 C1635 1.367 . S
C1635 C1634 1.367 . S
C1635 C1637 1.433 . S
C1636 C1632 1.350 . S
C1636 C1633 1.463 . S
C1636 N1640 1.427 . S
C1637 H1627 0.929 . S
C1637 C1635 1.433 . S
C1637 N1640 1.384 . S
C1638 H1629 0.929 . S
C1638 C1630 1.378 . S
C1638 C1633 1.350 . S
C1639 H1626 0.929 . S
C1639 C1631 1.433 . S
C1639 N1641 1.384 . S
N1640 C1636 1.427 . S
N1640 C1637 1.384 . S
N1641 C1633 1.427 . S
N1641 C1639 1.384 . S
H1642 C1648 0.930 . S
H1643 C1652 0.930 . S
H1644 C1657 0.929 . S
H1645 C1655 0.929 . S
H1646 C1650 0.929 . S
H1647 C1656 0.929 . S
C1648 H1642 0.930 . S
C1648 C1649 1.367 . S
C1648 C1656 1.378 . S
C1649 C1648 1.367 . S
C1649 C1657 1.433 . S
C1650 H1646 0.929 . S
C1650 C1652 1.378 . S
C1650 C1654 1.350 . S
C1651 C1654 1.463 . S
C1651 C1656 1.350 . S
C1651 N1659 1.427 . S
C1652 H1643 0.930 . S
C1652 C1650 1.378 . S
C1652 C1653 1.367 . S
C1653 C1652 1.367 . S
C1653 C1655 1.433 . S
C1654 C1650 1.350 . S
C1654 C1651 1.463 . S
C1654 N1658 1.427 . S
C1655 H1645 0.929 . S
C1655 C1653 1.433 . S
C1655 N1658 1.384 . S
C1656 H1647 0.929 . S
C1656 C1648 1.378 . S
C1656 C1651 1.350 . S
C1657 H1644 0.929 . S
C1657 C1649 1.433 . S
C1657 N1659 1.384 . S
N1658 C1654 1.427 . S
N1658 C1655 1.384 . S
N1659 C1651 1.427 . S
N1659 C1657 1.384 . S
H1660 C1666 0.930 . S
H1661 C1670 0.930 . S
H1662 C1675 0.929 . S
H1663 C1673 0.929 . S
H1664 C1668 0.929 . S
H1665 C1674 0.929 . S
C1666 H1660 0.930 . S
C1666 C1667 1.367 . S
C1666 C1674 1.378 . S
C1667 C1666 1.367 . S
C1667 C1675 1.433 . S
C1668 H1664 0.929 . S
C1668 C1670 1.378 . S
C1668 C1672 1.350 . S
C1669 C1672 1.463 . S
C1669 C1674 1.350 . S
C1669 N1677 1.427 . S
C1670 H1661 0.930 . S
C1670 C1668 1.378 . S
C1670 C1671 1.367 . S
C1671 C1670 1.367 . S
C1671 C1673 1.433 . S
C1672 C1668 1.350 . S
C1672 C1669 1.463 . S
C1672 N1676 1.427 . S
C1673 H1663 0.929 . S
C1673 C1671 1.433 . S
C1673 N1676 1.384 . S
C1674 H1665 0.929 . S
C1674 C1666 1.378 . S
C1674 C1669 1.350 . S
C1675 H1662 0.929 . S
C1675 C1667 1.433 . S
C1675 N1677 1.384 . S
N1676 C1672 1.427 . S
N1676 C1673 1.384 . S
N1677 C1669 1.427 . S
N1677 C1675 1.384 . S
H1678 C1684 0.930 . S
H1679 C1688 0.930 . S
H1680 C1693 0.929 . S
H1681 C1691 0.929 . S
H1682 C1686 0.929 . S
H1683 C1692 0.929 . S
C1684 H1678 0.930 . S
C1684 C1685 1.367 . S
C1684 C1692 1.378 . S
C1685 C1684 1.367 . S
C1685 C1693 1.433 . S
C1686 H1682 0.929 . S
C1686 C1688 1.378 . S
C1686 C1690 1.350 . S
C1687 C1690 1.463 . S
C1687 C1692 1.350 . S
C1687 N1695 1.427 . S
C1688 H1679 0.930 . S
C1688 C1686 1.378 . S
C1688 C1689 1.367 . S
C1689 C1688 1.367 . S
C1689 C1691 1.433 . S
C1690 C1686 1.350 . S
C1690 C1687 1.463 . S
C1690 N1694 1.427 . S
C1691 H1681 0.929 . S
C1691 C1689 1.433 . S
C1691 N1694 1.384 . S
C1692 H1683 0.929 . S
C1692 C1684 1.378 . S
C1692 C1687 1.350 . S
C1693 H1680 0.929 . S
C1693 C1685 1.433 . S
C1693 N1695 1.384 . S
N1694 C1690 1.427 . S
N1694 C1691 1.384 . S
N1695 C1687 1.427 . S
N1695 C1693 1.384 . S
H1696 C1702 0.930 . S
H1697 C1706 0.930 . S
H1698 C1711 0.929 . S
H1699 C1709 0.929 . S
H1700 C1704 0.929 . S
H1701 C1710 0.929 . S
C1702 H1696 0.930 . S
C1702 C1703 1.367 . S
C1702 C1710 1.378 . S
C1703 C1702 1.367 . S
C1703 C1711 1.433 . S
C1704 H1700 0.929 . S
C1704 C1706 1.378 . S
C1704 C1708 1.350 . S
C1705 C1708 1.463 . S
C1705 C1710 1.350 . S
C1705 N1713 1.427 . S
C1706 H1697 0.930 . S
C1706 C1704 1.378 . S
C1706 C1707 1.367 . S
C1707 C1706 1.367 . S
C1707 C1709 1.433 . S
C1708 C1704 1.350 . S
C1708 C1705 1.463 . S
C1708 N1712 1.427 . S
C1709 H1699 0.929 . S
C1709 C1707 1.433 . S
C1709 N1712 1.384 . S
C1710 H1701 0.929 . S
C1710 C1702 1.378 . S
C1710 C1705 1.350 . S
C1711 H1698 0.929 . S
C1711 C1703 1.433 . S
C1711 N1713 1.384 . S
N1712 C1708 1.427 . S
N1712 C1709 1.384 . S
N1713 C1705 1.427 . S
N1713 C1711 1.384 . S
H1714 C1720 0.930 . S
H1715 C1724 0.930 . S
H1716 C1729 0.929 . S
H1717 C1727 0.929 . S
H1718 C1722 0.929 . S
H1719 C1728 0.929 . S
C1720 H1714 0.930 . S
C1720 C1721 1.367 . S
C1720 C1728 1.378 . S
C1721 C1720 1.367 . S
C1721 C1729 1.433 . S
C1722 H1718 0.929 . S
C1722 C1724 1.378 . S
C1722 C1726 1.350 . S
C1723 C1726 1.463 . S
C1723 C1728 1.350 . S
C1723 N1731 1.427 . S
C1724 H1715 0.930 . S
C1724 C1722 1.378 . S
C1724 C1725 1.367 . S
C1725 C1724 1.367 . S
C1725 C1727 1.433 . S
C1726 C1722 1.350 . S
C1726 C1723 1.463 . S
C1726 N1730 1.427 . S
C1727 H1717 0.929 . S
C1727 C1725 1.433 . S
C1727 N1730 1.384 . S
C1728 H1719 0.929 . S
C1728 C1720 1.378 . S
C1728 C1723 1.350 . S
C1729 H1716 0.929 . S
C1729 C1721 1.433 . S
C1729 N1731 1.384 . S
N1730 C1726 1.427 . S
N1730 C1727 1.384 . S
N1731 C1723 1.427 . S
N1731 C1729 1.384 . S
H1732 C1738 0.930 . S
H1733 C1742 0.930 . S
H1734 C1747 0.929 . S
H1735 C1745 0.929 . S
H1736 C1740 0.929 . S
H1737 C1746 0.929 . S
C1738 H1732 0.930 . S
C1738 C1739 1.367 . S
C1738 C1746 1.378 . S
C1739 C1738 1.367 . S
C1739 C1747 1.433 . S
C1740 H1736 0.929 . S
C1740 C1742 1.378 . S
C1740 C1744 1.350 . S
C1741 C1744 1.463 . S
C1741 C1746 1.350 . S
C1741 N1749 1.427 . S
C1742 H1733 0.930 . S
C1742 C1740 1.378 . S
C1742 C1743 1.367 . S
C1743 C1742 1.367 . S
C1743 C1745 1.433 . S
C1744 C1740 1.350 . S
C1744 C1741 1.463 . S
C1744 N1748 1.427 . S
C1745 H1735 0.929 . S
C1745 C1743 1.433 . S
C1745 N1748 1.384 . S
C1746 H1737 0.929 . S
C1746 C1738 1.378 . S
C1746 C1741 1.350 . S
C1747 H1734 0.929 . S
C1747 C1739 1.433 . S
C1747 N1749 1.384 . S
N1748 C1744 1.427 . S
N1748 C1745 1.384 . S
N1749 C1741 1.427 . S
N1749 C1747 1.384 . S
H1750 C1756 0.930 . S
H1751 C1760 0.930 . S
H1752 C1765 0.929 . S
H1753 C1763 0.929 . S
H1754 C1758 0.929 . S
H1755 C1764 0.929 . S
C1756 H1750 0.930 . S
C1756 C1757 1.367 . S
C1756 C1764 1.378 . S
C1757 C1756 1.367 . S
C1757 C1765 1.433 . S
C1758 H1754 0.929 . S
C1758 C1760 1.378 . S
C1758 C1762 1.350 . S
C1759 C1762 1.463 . S
C1759 C1764 1.350 . S
C1759 N1767 1.427 . S
C1760 H1751 0.930 . S
C1760 C1758 1.378 . S
C1760 C1761 1.367 . S
C1761 C1760 1.367 . S
C1761 C1763 1.433 . S
C1762 C1758 1.350 . S
C1762 C1759 1.463 . S
C1762 N1766 1.427 . S
C1763 H1753 0.929 . S
C1763 C1761 1.433 . S
C1763 N1766 1.384 . S
C1764 H1755 0.929 . S
C1764 C1756 1.378 . S
C1764 C1759 1.350 . S
C1765 H1752 0.929 . S
C1765 C1757 1.433 . S
C1765 N1767 1.384 . S
N1766 C1762 1.427 . S
N1766 C1763 1.384 . S
N1767 C1759 1.427 . S
N1767 C1765 1.384 . S
H1768 C1774 0.930 . S
H1769 C1778 0.930 . S
H1770 C1783 0.929 . S
H1771 C1781 0.929 . S
H1772 C1776 0.929 . S
H1773 C1782 0.929 . S
C1774 H1768 0.930 . S
C1774 C1775 1.367 . S
C1774 C1782 1.378 . S
C1775 C1774 1.367 . S
C1775 C1783 1.433 . S
C1776 H1772 0.929 . S
C1776 C1778 1.378 . S
C1776 C1780 1.350 . S
C1777 C1780 1.463 . S
C1777 C1782 1.350 . S
C1777 N1785 1.427 . S
C1778 H1769 0.930 . S
C1778 C1776 1.378 . S
C1778 C1779 1.367 . S
C1779 C1778 1.367 . S
C1779 C1781 1.433 . S
C1780 C1776 1.350 . S
C1780 C1777 1.463 . S
C1780 N1784 1.427 . S
C1781 H1771 0.929 . S
C1781 C1779 1.433 . S
C1781 N1784 1.384 . S
C1782 H1773 0.929 . S
C1782 C1774 1.378 . S
C1782 C1777 1.350 . S
C1783 H1770 0.929 . S
C1783 C1775 1.433 . S
C1783 N1785 1.384 . S
N1784 C1780 1.427 . S
N1784 C1781 1.384 . S
N1785 C1777 1.427 . S
N1785 C1783 1.384 . S
H1786 C1792 0.930 . S
H1787 C1796 0.930 . S
H1788 C1801 0.929 . S
H1789 C1799 0.929 . S
H1790 C1794 0.929 . S
H1791 C1800 0.929 . S
C1792 H1786 0.930 . S
C1792 C1793 1.367 . S
C1792 C1800 1.378 . S
C1793 C1792 1.367 . S
C1793 C1801 1.433 . S
C1794 H1790 0.929 . S
C1794 C1796 1.378 . S
C1794 C1798 1.350 . S
C1795 C1798 1.463 . S
C1795 C1800 1.350 . S
C1795 N1803 1.427 . S
C1796 H1787 0.930 . S
C1796 C1794 1.378 . S
C1796 C1797 1.367 . S
C1797 C1796 1.367 . S
C1797 C1799 1.433 . S
C1798 C1794 1.350 . S
C1798 C1795 1.463 . S
C1798 N1802 1.427 . S
C1799 H1789 0.929 . S
C1799 C1797 1.433 . S
C1799 N1802 1.384 . S
C1800 H1791 0.929 . S
C1800 C1792 1.378 . S
C1800 C1795 1.350 . S
C1801 H1788 0.929 . S
C1801 C1793 1.433 . S
C1801 N1803 1.384 . S
N1802 C1798 1.427 . S
N1802 C1799 1.384 . S
N1803 C1795 1.427 . S
N1803 C1801 1.384 . S
H1804 C1810 0.930 . S
H1805 C1814 0.930 . S
H1806 C1819 0.929 . S
H1807 C1817 0.929 . S
H1808 C1812 0.929 . S
H1809 C1818 0.929 . S
C1810 H1804 0.930 . S
C1810 C1811 1.367 . S
C1810 C1818 1.378 . S
C1811 C1810 1.367 . S
C1811 C1819 1.433 . S
C1812 H1808 0.929 . S
C1812 C1814 1.378 . S
C1812 C1816 1.350 . S
C1813 C1816 1.463 . S
C1813 C1818 1.350 . S
C1813 N1821 1.427 . S
C1814 H1805 0.930 . S
C1814 C1812 1.378 . S
C1814 C1815 1.367 . S
C1815 C1814 1.367 . S
C1815 C1817 1.433 . S
C1816 C1812 1.350 . S
C1816 C1813 1.463 . S
C1816 N1820 1.427 . S
C1817 H1807 0.929 . S
C1817 C1815 1.433 . S
C1817 N1820 1.384 . S
C1818 H1809 0.929 . S
C1818 C1810 1.378 . S
C1818 C1813 1.350 . S
C1819 H1806 0.929 . S
C1819 C1811 1.433 . S
C1819 N1821 1.384 . S
N1820 C1816 1.427 . S
N1820 C1817 1.384 . S
N1821 C1813 1.427 . S
N1821 C1819 1.384 . S
H1822 C1828 0.930 . S
H1823 C1832 0.930 . S
H1824 C1837 0.929 . S
H1825 C1835 0.929 . S
H1826 C1830 0.929 . S
H1827 C1836 0.929 . S
C1828 H1822 0.930 . S
C1828 C1829 1.367 . S
C1828 C1836 1.378 . S
C1829 C1828 1.367 . S
C1829 C1837 1.433 . S
C1830 H1826 0.929 . S
C1830 C1832 1.378 . S
C1830 C1834 1.350 . S
C1831 C1834 1.463 . S
C1831 C1836 1.350 . S
C1831 N1839 1.427 . S
C1832 H1823 0.930 . S
C1832 C1830 1.378 . S
C1832 C1833 1.367 . S
C1833 C1832 1.367 . S
C1833 C1835 1.433 . S
C1834 C1830 1.350 . S
C1834 C1831 1.463 . S
C1834 N1838 1.427 . S
C1835 H1825 0.929 . S
C1835 C1833 1.433 . S
C1835 N1838 1.384 . S
C1836 H1827 0.929 . S
C1836 C1828 1.378 . S
C1836 C1831 1.350 . S
C1837 H1824 0.929 . S
C1837 C1829 1.433 . S
C1837 N1839 1.384 . S
N1838 C1834 1.427 . S
N1838 C1835 1.384 . S
N1839 C1831 1.427 . S
N1839 C1837 1.384 . S
H1840 C1846 0.930 . S
H1841 C1850 0.930 . S
H1842 C1855 0.929 . S
H1843 C1853 0.929 . S
H1844 C1848 0.929 . S
H1845 C1854 0.929 . S
C1846 H1840 0.930 . S
C1846 C1847 1.367 . S
C1846 C1854 1.378 . S
C1847 C1846 1.367 . S
C1847 C1855 1.433 . S
C1848 H1844 0.929 . S
C1848 C1850 1.378 . S
C1848 C1852 1.350 . S
C1849 C1852 1.463 1_554 S
C1849 C1854 1.350 . S
C1849 N1857 1.427 . S
C1850 H1841 0.930 . S
C1850 C1848 1.378 . S
C1850 C1851 1.367 . S
C1851 C1850 1.367 . S
C1851 C1853 1.433 . S
C1852 C1848 1.350 . S
C1852 C1849 1.463 1_556 S
C1852 N1856 1.427 . S
C1853 H1843 0.929 . S
C1853 C1851 1.433 . S
C1853 N1856 1.384 . S
C1854 H1845 0.929 . S
C1854 C1846 1.378 . S
C1854 C1849 1.350 . S
C1855 H1842 0.929 . S
C1855 C1847 1.433 . S
C1855 N1857 1.384 . S
N1856 C1852 1.427 . S
N1856 C1853 1.384 . S
N1857 C1849 1.427 . S
N1857 C1855 1.384 . S
H1858 C1864 0.930 . S
H1859 C1868 0.930 . S
H1860 C1873 0.929 . S
H1861 C1871 0.929 . S
H1862 C1866 0.929 . S
H1863 C1872 0.929 . S
C1864 H1858 0.930 . S
C1864 C1865 1.367 . S
C1864 C1872 1.378 . S
C1865 C1864 1.367 . S
C1865 C1873 1.433 . S
C1866 H1862 0.929 . S
C1866 C1868 1.378 . S
C1866 C1870 1.350 . S
C1867 C1870 1.463 . S
C1867 C1872 1.350 . S
C1867 N1875 1.427 . S
C1868 H1859 0.930 . S
C1868 C1866 1.378 . S
C1868 C1869 1.367 . S
C1869 C1868 1.367 . S
C1869 C1871 1.433 . S
C1870 C1866 1.350 . S
C1870 C1867 1.463 . S
C1870 N1874 1.427 . S
C1871 H1861 0.929 . S
C1871 C1869 1.433 . S
C1871 N1874 1.384 . S
C1872 H1863 0.929 . S
C1872 C1864 1.378 . S
C1872 C1867 1.350 . S
C1873 H1860 0.929 . S
C1873 C1865 1.433 . S
C1873 N1875 1.384 . S
N1874 C1870 1.427 . S
N1874 C1871 1.384 . S
N1875 C1867 1.427 . S
N1875 C1873 1.384 . S
H1876 C1882 0.930 . S
H1877 C1886 0.930 . S
H1878 C1891 0.929 . S
H1879 C1889 0.929 . S
H1880 C1884 0.929 . S
H1881 C1890 0.929 . S
C1882 H1876 0.930 . S
C1882 C1883 1.367 1_455 S
C1882 C1890 1.378 . S
C1883 C1882 1.367 1_655 S
C1883 C1891 1.433 . S
C1884 H1880 0.929 . S
C1884 C1886 1.378 . S
C1884 C1888 1.350 . S
C1885 C1888 1.463 1_554 S
C1885 C1890 1.350 1_655 S
C1885 N1893 1.427 . S
C1886 H1877 0.930 . S
C1886 C1884 1.378 . S
C1886 C1887 1.367 . S
C1887 C1886 1.367 . S
C1887 C1889 1.433 1_655 S
C1888 C1884 1.350 . S
C1888 C1885 1.463 1_556 S
C1888 N1892 1.427 1_655 S
C1889 H1879 0.929 . S
C1889 C1887 1.433 1_455 S
C1889 N1892 1.384 . S
C1890 H1881 0.929 . S
C1890 C1882 1.378 . S
C1890 C1885 1.350 1_455 S
C1891 H1878 0.929 . S
C1891 C1883 1.433 . S
C1891 N1893 1.384 . S
N1892 C1888 1.427 1_455 S
N1892 C1889 1.384 . S
N1893 C1885 1.427 . S
N1893 C1891 1.384 . S
H1894 C1900 0.930 . S
H1895 C1904 0.930 . S
H1896 C1909 0.929 . S
H1897 C1907 0.929 . S
H1898 C1902 0.929 . S
H1899 C1908 0.929 . S
C1900 H1894 0.930 . S
C1900 C1901 1.367 . S
C1900 C1908 1.378 . S
C1901 C1900 1.367 . S
C1901 C1909 1.433 1_565 S
C1902 H1898 0.929 . S
C1902 C1904 1.378 . S
C1902 C1906 1.350 1_545 S
C1903 C1906 1.463 . S
C1903 C1908 1.350 . S
C1903 N1911 1.427 1_565 S
C1904 H1895 0.930 . S
C1904 C1902 1.378 . S
C1904 C1905 1.367 1_545 S
C1905 C1904 1.367 1_565 S
C1905 C1907 1.433 . S
C1906 C1902 1.350 1_565 S
C1906 C1903 1.463 . S
C1906 N1910 1.427 . S
C1907 H1897 0.929 . S
C1907 C1905 1.433 . S
C1907 N1910 1.384 . S
C1908 H1899 0.929 . S
C1908 C1900 1.378 . S
C1908 C1903 1.350 . S
C1909 H1896 0.929 . S
C1909 C1901 1.433 1_545 S
C1909 N1911 1.384 . S
N1910 C1906 1.427 . S
N1910 C1907 1.384 . S
N1911 C1903 1.427 1_545 S
N1911 C1909 1.384 . S
H1912 C1918 0.930 . S
H1913 C1922 0.930 . S
H1914 C1927 0.929 . S
H1915 C1925 0.929 . S
H1916 C1920 0.929 . S
H1917 C1926 0.929 . S
C1918 H1912 0.930 . S
C1918 C1919 1.367 . S
C1918 C1926 1.378 . S
C1919 C1918 1.367 . S
C1919 C1927 1.433 . S
C1920 H1916 0.929 . S
C1920 C1922 1.378 . S
C1920 C1924 1.350 . S
C1921 C1924 1.463 1_556 S
C1921 C1926 1.350 . S
C1921 N1929 1.427 . S
C1922 H1913 0.930 . S
C1922 C1920 1.378 . S
C1922 C1923 1.367 . S
C1923 C1922 1.367 . S
C1923 C1925 1.433 . S
C1924 C1920 1.350 . S
C1924 C1921 1.463 1_554 S
C1924 N1928 1.427 . S
C1925 H1915 0.929 . S
C1925 C1923 1.433 . S
C1925 N1928 1.384 . S
C1926 H1917 0.929 . S
C1926 C1918 1.378 . S
C1926 C1921 1.350 . S
C1927 H1914 0.929 . S
C1927 C1919 1.433 . S
C1927 N1929 1.384 . S
N1928 C1924 1.427 . S
N1928 C1925 1.384 . S
N1929 C1921 1.427 . S
N1929 C1927 1.384 . S
H1930 C1936 0.930 . S
H1931 C1940 0.930 . S
H1932 C1945 0.929 . S
H1933 C1943 0.929 . S
H1934 C1938 0.929 . S
H1935 C1944 0.929 . S
C1936 H1930 0.930 . S
C1936 C1937 1.367 . S
C1936 C1944 1.378 . S
C1937 C1936 1.367 . S
C1937 C1945 1.433 . S
C1938 H1934 0.929 . S
C1938 C1940 1.378 . S
C1938 C1942 1.350 . S
C1939 C1942 1.463 . S
C1939 C1944 1.350 . S
C1939 N1947 1.427 . S
C1940 H1931 0.930 . S
C1940 C1938 1.378 . S
C1940 C1941 1.367 . S
C1941 C1940 1.367 . S
C1941 C1943 1.433 . S
C1942 C1938 1.350 . S
C1942 C1939 1.463 . S
C1942 N1946 1.427 . S
C1943 H1933 0.929 . S
C1943 C1941 1.433 . S
C1943 N1946 1.384 . S
C1944 H1935 0.929 . S
C1944 C1936 1.378 . S
C1944 C1939 1.350 . S
C1945 H1932 0.929 . S
C1945 C1937 1.433 . S
C1945 N1947 1.384 . S
N1946 C1942 1.427 . S
N1946 C1943 1.384 . S
N1947 C1939 1.427 . S
N1947 C1945 1.384 . S
H1948 C1954 0.930 . S
H1949 C1958 0.930 . S
H1950 C1963 0.929 . S
H1951 C1961 0.929 . S
H1952 C1956 0.929 . S
H1953 C1962 0.929 . S
C1954 H1948 0.930 . S
C1954 C1955 1.367 1_655 S
C1954 C1962 1.378 . S
C1955 C1954 1.367 1_455 S
C1955 C1963 1.433 . S
C1956 H1952 0.929 . S
C1956 C1958 1.378 . S
C1956 C1960 1.350 . S
C1957 C1960 1.463 1_554 S
C1957 C1962 1.350 1_455 S
C1957 N1965 1.427 . S
C1958 H1949 0.930 . S
C1958 C1956 1.378 . S
C1958 C1959 1.367 . S
C1959 C1958 1.367 . S
C1959 C1961 1.433 1_455 S
C1960 C1956 1.350 . S
C1960 C1957 1.463 1_556 S
C1960 N1964 1.427 1_455 S
C1961 H1951 0.929 . S
C1961 C1959 1.433 1_655 S
C1961 N1964 1.384 . S
C1962 H1953 0.929 . S
C1962 C1954 1.378 . S
C1962 C1957 1.350 1_655 S
C1963 H1950 0.929 . S
C1963 C1955 1.433 . S
C1963 N1965 1.384 . S
N1964 C1960 1.427 1_655 S
N1964 C1961 1.384 . S
N1965 C1957 1.427 . S
N1965 C1963 1.384 . S
H1966 C1972 0.930 . S
H1967 C1976 0.930 1_565 S
H1968 C1981 0.929 1_565 S
H1969 C1979 0.929 . S
H1970 C1974 0.928 1_565 S
H1971 C1980 0.929 . S
C1972 H1966 0.930 . S
C1972 C1973 1.367 . S
C1972 C1980 1.378 . S
C1973 C1972 1.367 . S
C1973 C1981 1.434 . S
C1974 H1970 0.928 1_545 S
C1974 C1976 1.378 . S
C1974 C1978 1.351 . S
C1975 C1978 1.463 . S
C1975 C1980 1.350 . S
C1975 N1983 1.428 . S
C1976 H1967 0.930 1_545 S
C1976 C1974 1.378 . S
C1976 C1977 1.368 . S
C1977 C1976 1.368 . S
C1977 C1979 1.433 . S
C1978 C1974 1.351 . S
C1978 C1975 1.463 . S
C1978 N1982 1.427 . S
C1979 H1969 0.929 . S
C1979 C1977 1.433 . S
C1979 N1982 1.384 . S
C1980 H1971 0.929 . S
C1980 C1972 1.378 . S
C1980 C1975 1.350 . S
C1981 H1968 0.929 1_545 S
C1981 C1973 1.434 . S
C1981 N1983 1.384 . S
N1982 C1978 1.427 . S
N1982 C1979 1.384 . S
N1983 C1975 1.428 . S
N1983 C1981 1.384 . S
C1415 C57 1.007 . S
C1419 C665 1.010 . S
C1433 C117 1.013 . S
C1437 C372 1.004 . S
C1451 C205 1.012 . S
C1455 C469 1.004 . S
C1469 C293 1.000 . S
C1473 C577 1.013 . S
C1487 C733 1.005 . S
C1491 C1377 1.014 . S
C1505 C1105 1.013 . S
C1509 C812 1.018 . S
C1523 C909 1.018 . S
C1527 C1193 1.011 . S
C1541 C997 1.017 . S
C1545 C1289 1.005 . S
C1559 C29 1.351 . S
C1563 C849 1.411 . S
C1577 C145 1.351 . S
C1581 C929 1.411 . S
C1595 C1017 1.414 . S
C1599 C233 1.362 . S
C1613 C321 1.357 . S
C1617 C753 1.416 . S
C1631 C401 1.355 . S
C1635 C1340 1.415 . S
C1649 C1085 1.412 . S
C1653 C497 1.345 . S
C1667 C1173 1.414 . S
C1671 C548 1.349 . S
C1685 C1252 1.415 . S
C1689 C636 1.362 . S
C1703 C108 1.420 . S
C1707 C761 1.361 . S
C1721 C196 1.420 . S
C1725 C841 1.360 . S
C1739 C937 1.369 . S
C1743 C284 1.423 . S
C1757 C49 1.420 . S
C1761 C1025 1.362 . S
C1775 C1076 1.360 . S
C1779 C673 1.423 . S
C1793 C1164 1.356 . S
C1797 C381 1.422 . S
C1811 C460 1.423 . S
C1815 C1261 1.358 . S
C1829 C585 1.425 . S
C1833 C1349 1.370 . S
C1847 C20 1.584 . S
C1851 C409 1.586 . S
C1865 C489 1.587 . S
C1869 C137 1.584 . S
C1883 C225 1.589 . S
C1887 C557 1.588 . S
C1901 C645 1.587 . S
C1905 C313 1.589 . S
C1919 C724 1.581 . S
C1923 C1113 1.582 . S
C1937 C1201 1.581 . S
C1941 C821 1.582 . S
C1955 C1281 1.579 . S
C1959 C900 1.577 . S
C1973 C1369 1.578 . S
C1977 C988 1.578 . S
