# Generated by pormake.
# Topology wmi, (6)-cn, num edge types: 1
# Building blocks:
#     Node 0, Type 0, BuildingBlock: UKALOJ_clean_sbu_0, # of connection points: 6
#     Node 1, Type 0, BuildingBlock: UKALOJ_clean_sbu_0, # of connection points: 6
#     Node 2, Type 0, BuildingBlock: UKALOJ_clean_sbu_0, # of connection points: 6
#     Node 3, Type 0, BuildingBlock: UKALOJ_clean_sbu_0, # of connection points: 6
#     Node 4, Type 0, BuildingBlock: UKALOJ_clean_sbu_0, # of connection points: 6
#     Node 5, Type 0, BuildingBlock: UKALOJ_clean_sbu_0, # of connection points: 6
#     Node 6, Type 0, BuildingBlock: UKALOJ_clean_sbu_0, # of connection points: 6
#     Node 7, Type 0, BuildingBlock: UKALOJ_clean_sbu_0, # of connection points: 6
#     Node 8, Type 0, BuildingBlock: UKALOJ_clean_sbu_0, # of connection points: 6
#     Node 9, Type 0, BuildingBlock: UKALOJ_clean_sbu_0, # of connection points: 6
#     Node 10, Type 0, BuildingBlock: UKALOJ_clean_sbu_0, # of connection points: 6
#     Node 11, Type 0, BuildingBlock: UKALOJ_clean_sbu_0, # of connection points: 6
#     Node 12, Type 0, BuildingBlock: UKALOJ_clean_sbu_0, # of connection points: 6
#     Node 13, Type 0, BuildingBlock: UKALOJ_clean_sbu_0, # of connection points: 6
#     Node 14, Type 0, BuildingBlock: UKALOJ_clean_sbu_0, # of connection points: 6
#     Node 15, Type 0, BuildingBlock: UKALOJ_clean_sbu_0, # of connection points: 6
#     Node 16, Type 0, BuildingBlock: UKALOJ_clean_sbu_0, # of connection points: 6
#     Node 17, Type 0, BuildingBlock: UKALOJ_clean_sbu_0, # of connection points: 6
#     Edge 18, Type (0, 0), None
#     Edge 19, Type (0, 0), None
#     Edge 20, Type (0, 0), None
#     Edge 21, Type (0, 0), None
#     Edge 22, Type (0, 0), None
#     Edge 23, Type (0, 0), None
#     Edge 24, Type (0, 0), None
#     Edge 25, Type (0, 0), None
#     Edge 26, Type (0, 0), None
#     Edge 27, Type (0, 0), None
#     Edge 28, Type (0, 0), None
#     Edge 29, Type (0, 0), None
#     Edge 30, Type (0, 0), None
#     Edge 31, Type (0, 0), None
#     Edge 32, Type (0, 0), None
#     Edge 33, Type (0, 0), None
#     Edge 34, Type (0, 0), None
#     Edge 35, Type (0, 0), None
#     Edge 36, Type (0, 0), None
#     Edge 37, Type (0, 0), None
#     Edge 38, Type (0, 0), None
#     Edge 39, Type (0, 0), None
#     Edge 40, Type (0, 0), None
#     Edge 41, Type (0, 0), None
#     Edge 42, Type (0, 0), None
#     Edge 43, Type (0, 0), None
#     Edge 44, Type (0, 0), None
#     Edge 45, Type (0, 0), None
#     Edge 46, Type (0, 0), None
#     Edge 47, Type (0, 0), None
#     Edge 48, Type (0, 0), None
#     Edge 49, Type (0, 0), None
#     Edge 50, Type (0, 0), None
#     Edge 51, Type (0, 0), None
#     Edge 52, Type (0, 0), None
#     Edge 53, Type (0, 0), None
#     Edge 54, Type (0, 0), None
#     Edge 55, Type (0, 0), None
#     Edge 56, Type (0, 0), None
#     Edge 57, Type (0, 0), None
#     Edge 58, Type (0, 0), None
#     Edge 59, Type (0, 0), None
#     Edge 60, Type (0, 0), None
#     Edge 61, Type (0, 0), None
#     Edge 62, Type (0, 0), None
#     Edge 63, Type (0, 0), None
#     Edge 64, Type (0, 0), None
#     Edge 65, Type (0, 0), None
#     Edge 66, Type (0, 0), None
#     Edge 67, Type (0, 0), None
#     Edge 68, Type (0, 0), None
#     Edge 69, Type (0, 0), None
#     Edge 70, Type (0, 0), None
#     Edge 71, Type (0, 0), None
# Relax obj value: 0.066
# Max RMSD: 0.170
# Mean RMSD: 0.170
data_MOF--net-wmi--node1-UKALOJ_clean_sbu_0--edge1-none
_symmetry_space_group_name_H-M    P1
_symmetry_Int_Tables_number       1
_symmetry_cell_setting            triclinic
loop_
_symmetry_equiv_pos_as_xyz
'x, y, z'
_cell_length_a     13.587621
_cell_length_b     13.587681
_cell_length_c     69.80826
_cell_angle_alpha  90.000361
_cell_angle_beta   89.999451
_cell_angle_gamma 120.00014
loop_
_atom_site_label
_atom_site_type_symbol
_atom_site_fract_x
_atom_site_fract_y
_atom_site_fract_z
_atom_type_partial_charge
Zn0 Zn 0.44585 -0.02644 0.10683 0.0
O1 O 0.61853 0.10029 0.10656 0.0
C2 C 0.39575 0.14765 0.1218 0.0
Zn3 Zn 0.44429 -0.02487 0.1391 0.0
C4 C 0.67161 0.14035 0.12222 0.0
O5 O 0.6204 0.10291 0.13825 0.0
C6 C 0.22281 0.80438 0.12333 0.0
O7 O 0.48934 0.84593 0.13985 0.0
O8 O 0.49292 0.84928 0.1083 0.0
N9 N 0.42743 -0.02067 0.16895 0.0
C10 C 0.34632 0.90078 0.18069 0.0
C11 C 0.41237 0.0609 0.19461 0.0
N12 N 0.46873 0.07847 0.17786 0.0
N13 N 0.33572 0.94983 0.19669 0.0
C14 C 0.49129 0.01666 0.06228 0.0
C15 C 0.36358 0.85478 0.05177 0.0
N16 N 0.43557 0.95258 0.07761 0.0
N17 N 0.35696 0.85225 0.07098 0.0
N18 N 0.44862 0.95604 0.04592 0.0
H19 H 0.66495 0.12968 0.06933 0.0
H20 H 0.61586 0.18016 0.04997 0.0
H21 H 0.57178 0.1839 0.07434 0.0
C22 C 0.59101 0.13468 0.06382 0.0
C23 C 0.26713 0.77916 0.17576 0.0
H24 H 0.24829 0.72469 0.18856 0.0
H25 H 0.18481 0.76933 0.17101 0.0
H26 H 0.30397 0.75032 0.16446 0.0
O27 O 0.27318 0.85074 0.13868 0.0
O28 O 0.2732 0.84337 0.10756 0.0
C29 C 0.50592 0.80995 0.12396 0.0
O30 O 0.4026 0.10462 0.10596 0.0
O31 O 0.40414 0.10533 0.13748 0.0
Zn32 Zn -0.04248 0.46827 0.10683 0.0
O33 O 0.83079 0.51422 0.10656 0.0
C34 C 0.78345 0.24409 0.1218 0.0
Zn35 Zn -0.04405 0.46515 0.1391 0.0
C36 C 0.79072 0.52723 0.12222 0.0
O37 O 0.82816 0.51347 0.13825 0.0
C38 C 0.1267 0.41442 0.12333 0.0
O39 O 0.08514 0.63939 0.13985 0.0
O40 O 0.08179 0.63962 0.1083 0.0
N41 N -0.04825 0.44409 0.16895 0.0
C42 C 0.03029 0.44153 0.18069 0.0
C43 C 0.87017 0.34746 0.19461 0.0
N44 N 0.8526 0.38625 0.17786 0.0
N45 N -0.01876 0.38187 0.19669 0.0
C46 C 0.91442 0.4706 0.06228 0.0
C47 C 0.07629 0.50475 0.05176 0.0
N48 N -0.02151 0.47896 0.07761 0.0
N49 N 0.07883 0.50068 0.07097 0.0
N50 N -0.02496 0.48854 0.04592 0.0
H51 H 0.80141 0.53125 0.06933 0.0
H52 H 0.75094 0.43171 0.04997 0.0
H53 H 0.74717 0.38385 0.07433 0.0
C54 C 0.7964 0.45231 0.06381 0.0
C55 C 0.15191 0.48396 0.17576 0.0
H56 H 0.20638 0.51959 0.18856 0.0
H57 H 0.16175 0.41147 0.17101 0.0
H58 H 0.18075 0.54964 0.16446 0.0
O59 O 0.08034 0.41842 0.13868 0.0
O60 O 0.08771 0.42582 0.10756 0.0
C61 C 0.12111 0.69195 0.12396 0.0
O62 O 0.82646 0.29396 0.10596 0.0
O63 O 0.82575 0.29479 0.13748 0.0
Zn64 Zn 0.46593 0.48678 0.1391 0.0
O65 O 0.29169 0.44173 0.13985 0.0
C66 C 0.51667 0.70826 0.12333 0.0
Zn67 Zn 0.46281 0.48523 0.10683 0.0
C68 C 0.23913 0.42515 0.12396 0.0
O69 O 0.29146 0.43815 0.1083 0.0
C70 C 0.68699 0.53534 0.1218 0.0
O71 O 0.41686 0.31255 0.10656 0.0
O72 O 0.41761 0.31068 0.13825 0.0
N73 N 0.45212 0.49551 0.07761 0.0
C74 C 0.46047 0.43979 0.06228 0.0
C75 C 0.42634 0.56751 0.05176 0.0
N76 N 0.43041 0.57413 0.07097 0.0
N77 N 0.44254 0.48246 0.04592 0.0
C78 C 0.48954 0.58475 0.18069 0.0
C79 C 0.58362 0.51871 0.19462 0.0
N80 N 0.48699 0.50365 0.16896 0.0
N81 N 0.54483 0.46235 0.17786 0.0
N82 N 0.5492 0.59536 0.19669 0.0
H83 H 0.41147 0.68277 0.18856 0.0
H84 H 0.5196 0.74627 0.17101 0.0
H85 H 0.38144 0.6271 0.16446 0.0
C86 C 0.44711 0.66394 0.17576 0.0
C87 C 0.47875 0.34005 0.06382 0.0
H88 H 0.3998 0.26613 0.06933 0.0
H89 H 0.49933 0.31517 0.04997 0.0
H90 H 0.54722 0.35928 0.07433 0.0
O91 O 0.63712 0.52848 0.10596 0.0
O92 O 0.63629 0.52694 0.13748 0.0
C93 C 0.40384 0.25948 0.12222 0.0
O94 O 0.51266 0.6579 0.13868 0.0
O95 O 0.50526 0.65788 0.10756 0.0
Zn96 Zn -0.04516 0.46455 0.93364 0.0
O97 O 0.82565 0.5096 0.9329 0.0
C98 C 0.78409 0.24307 0.94941 0.0
Zn99 Zn -0.04672 0.4661 0.96591 0.0
C100 C 0.78967 0.52618 0.94878 0.0
O101 O 0.829 0.51318 0.96445 0.0
C102 C 0.12737 0.41601 0.95093 0.0
O103 O 0.08 0.63879 0.96617 0.0
O104 O 0.08262 0.64065 0.93448 0.0
N105 N 0.93242 0.45582 0.99513 0.0
C106 C -0.00341 0.51158 1.01045 0.0
C107 C 0.83482 0.38377 1.02099 0.0
N108 N 0.83215 0.37716 1.00178 0.0
N109 N 0.93615 0.46878 1.02682 0.0
C110 C 0.88046 0.36653 0.89206 0.0
C111 C 0.04058 0.43262 0.87812 0.0
N112 N -0.041 0.44766 0.90378 0.0
N113 N 0.05814 0.48899 0.89487 0.0
N114 N 0.92952 0.35593 0.87605 0.0
H115 H 0.70436 0.26845 0.88419 0.0
H116 H 0.74904 0.20501 0.90174 0.0
H117 H 0.73 0.32415 0.90828 0.0
C118 C 0.75885 0.28732 0.89698 0.0
C119 C 0.11455 0.61138 1.0089 0.0
H120 H 0.10942 0.68535 1.00344 0.0
H121 H 0.16022 0.63607 1.02272 0.0
H122 H 0.16368 0.59232 0.99833 0.0
O123 O 0.08435 0.42287 0.96677 0.0
O124 O 0.08505 0.42439 0.93525 0.0
C125 C 0.12006 0.69187 0.95051 0.0
O126 O 0.83045 0.29343 0.93407 0.0
O127 O 0.82309 0.29347 0.96518 0.0
Zn128 Zn 0.46653 0.48622 0.93364 0.0
O129 O 0.42148 0.31198 0.9329 0.0
C130 C 0.68799 0.53695 0.94941 0.0
Zn131 Zn 0.46497 0.4831 0.96591 0.0
C132 C 0.40489 0.25942 0.94878 0.0
O133 O 0.4179 0.31175 0.96445 0.0
C134 C 0.51506 0.70729 0.95093 0.0
O135 O 0.29227 0.43713 0.96617 0.0
O136 O 0.29042 0.43789 0.93448 0.0
N137 N 0.47524 0.47252 0.99513 0.0
C138 C 0.41949 0.48096 1.01045 0.0
C139 C 0.54729 0.44697 1.021 0.0
N140 N 0.5539 0.4509 1.00178 0.0
N141 N 0.46229 0.46331 1.02682 0.0
C142 C 0.56454 0.50985 0.89205 0.0
C143 C 0.49846 0.60388 0.87812 0.0
N144 N 0.48341 0.50726 0.90378 0.0
N145 N 0.44209 0.56508 0.89487 0.0
N146 N 0.57514 0.5695 0.87605 0.0
H147 H 0.66261 0.43182 0.88419 0.0
H148 H 0.72606 0.53995 0.90174 0.0
H149 H 0.60691 0.40176 0.90828 0.0
C150 C 0.64375 0.46745 0.89698 0.0
C151 C 0.31971 0.49914 1.0089 0.0
H152 H 0.24572 0.42003 1.00344 0.0
H153 H 0.29503 0.52013 1.02272 0.0
H154 H 0.33877 0.56731 0.99832 0.0
O155 O 0.5082 0.6574 0.96677 0.0
O156 O 0.50667 0.65658 0.93525 0.0
C157 C 0.23921 0.42411 0.95051 0.0
O158 O 0.63764 0.53295 0.93407 0.0
O159 O 0.63761 0.52555 0.96519 0.0
Zn160 Zn 0.44796 -0.02221 0.96591 0.0
O161 O 0.49393 0.85107 0.96617 0.0
C162 C 0.22379 0.80371 0.95093 0.0
Zn163 Zn 0.44485 -0.02377 0.93364 0.0
C164 C 0.50695 0.81102 0.95051 0.0
O165 O 0.49317 0.84845 0.93448 0.0
C166 C 0.39413 0.14697 0.94941 0.0
O167 O 0.61909 0.10542 0.9329 0.0
O168 O 0.61932 0.10207 0.96445 0.0
N169 N 0.42381 -0.02793 0.90378 0.0
C170 C 0.42122 0.05061 0.89205 0.0
C171 C 0.32719 0.89049 0.87812 0.0
N172 N 0.36599 0.87293 0.89487 0.0
N173 N 0.36156 0.00155 0.87605 0.0
C174 C 0.45013 0.93449 1.01045 0.0
C175 C 0.48408 0.09626 1.021 0.0
N176 N 0.45854 -0.00134 0.99514 0.0
N177 N 0.48014 0.09892 1.00178 0.0
N178 N 0.46776 -0.00507 1.02682 0.0
H179 H 0.51108 0.82167 1.00344 0.0
H180 H 0.41103 0.77088 1.02273 0.0
H181 H 0.36378 0.76739 0.99833 0.0
C182 C 0.43197 0.81653 1.0089 0.0
C183 C 0.46362 0.17222 0.89698 0.0
H184 H 0.49924 0.22671 0.88419 0.0
H185 H 0.39112 0.18203 0.90174 0.0
H186 H 0.5293 0.20107 0.90828 0.0
O187 O 0.39812 0.10062 0.93406 0.0
O188 O 0.40552 0.10798 0.96519 0.0
C189 C 0.67165 0.14138 0.94878 0.0
O190 O 0.27366 0.84672 0.96677 0.0
O191 O 0.27448 0.84602 0.93525 0.0
Zn192 Zn 0.11096 0.30844 0.47243 0.0
O193 O 0.156 0.17924 0.47318 0.0
C194 C 0.88947 0.13769 0.45667 0.0
Zn195 Zn 0.11251 0.30686 0.44017 0.0
C196 C 0.17258 0.14326 0.4573 0.0
O197 O 0.15958 0.18259 0.44164 0.0
C198 C 0.0624 0.48095 0.45513 0.0
O199 O 0.28519 0.43359 0.43989 0.0
O200 O 0.28706 0.43622 0.47158 0.0
N201 N 0.10223 0.28587 0.41094 0.0
C202 C 0.15792 0.34996 0.39561 0.0
C203 C 0.03028 0.18805 0.3851 0.0
N204 N 0.02366 0.18551 0.40431 0.0
N205 N 0.11528 0.28933 0.37926 0.0
C206 C 0.01299 0.23409 0.51402 0.0
C207 C 0.07903 0.39421 0.52795 0.0
N208 N 0.09409 0.31264 0.50229 0.0
N209 N 0.13539 0.41179 0.51119 0.0
N210 N 0.00238 0.28314 0.53002 0.0
H211 H 0.91497 0.058 0.52189 0.0
H212 H 0.85147 0.10263 0.50434 0.0
H213 H -0.02936 0.08363 0.4978 0.0
C214 C 0.9338 0.11247 0.5091 0.0
C215 C 0.25761 0.468 0.39715 0.0
H216 H 0.33158 0.46304 0.40266 0.0
H217 H 0.28243 0.51349 0.38331 0.0
H218 H 0.23836 0.5172 0.40767 0.0
O219 O 0.06926 0.43792 0.43929 0.0
O220 O 0.0708 0.43864 0.47081 0.0
C221 C 0.33827 0.47366 0.45556 0.0
O222 O -0.06016 0.18405 0.47201 0.0
O223 O -0.06014 0.17667 0.44089 0.0
Zn224 Zn 0.62418 0.80158 0.44017 0.0
O225 O 0.49745 0.84753 0.43989 0.0
C226 C 0.45011 0.5774 0.45513 0.0
Zn227 Zn 0.6226 0.79846 0.47243 0.0
C228 C 0.45738 0.86054 0.45556 0.0
O229 O 0.49482 0.84678 0.47158 0.0
C230 C 0.79336 0.74773 0.45667 0.0
O231 O 0.7518 -0.0273 0.47318 0.0
O232 O 0.74845 -0.02707 0.44163 0.0
N233 N 0.6184 0.77739 0.50229 0.0
C234 C 0.69695 0.77483 0.51402 0.0
C235 C 0.53682 0.68075 0.52795 0.0
N236 N 0.51925 0.71954 0.5112 0.0
N237 N 0.64789 0.71517 0.53002 0.0
C238 C 0.58111 0.80395 0.39561 0.0
C239 C 0.74299 0.83812 0.3851 0.0
N240 N 0.64517 0.81229 0.41094 0.0
N241 N 0.74551 0.83403 0.40431 0.0
N242 N 0.64173 0.82191 0.37925 0.0
H243 H 0.46809 0.86458 0.40267 0.0
H244 H 0.41764 0.7651 0.3833 0.0
H245 H 0.41384 0.71716 0.40766 0.0
C246 C 0.46309 0.78566 0.39715 0.0
C247 C 0.81857 0.81726 0.5091 0.0
H248 H 0.87304 0.8529 0.52189 0.0
H249 H 0.8284 0.74477 0.50434 0.0
H250 H 0.84741 0.88294 0.4978 0.0
O251 O 0.74699 0.75173 0.47201 0.0
O252 O 0.75437 0.75914 0.44089 0.0
C253 C 0.78777 0.02526 0.4573 0.0
O254 O 0.49312 0.62727 0.43929 0.0
O255 O 0.49241 0.6281 0.47081 0.0
Zn256 Zn 0.12946 0.81854 0.44016 0.0
O257 O 0.08351 0.64586 0.43989 0.0
C258 C 0.35365 0.86865 0.45513 0.0
Zn259 Zn 0.13258 0.82009 0.47243 0.0
C260 C 0.07049 0.59278 0.45556 0.0
O261 O 0.08426 0.64398 0.47158 0.0
C262 C 0.18332 0.04156 0.45667 0.0
O263 O -0.04166 0.77504 0.47318 0.0
O264 O -0.04189 0.77146 0.44164 0.0
N265 N 0.15365 0.83695 0.50229 0.0
C266 C 0.15621 0.91806 0.51402 0.0
C267 C 0.25029 0.85201 0.52795 0.0
N268 N 0.2115 0.79565 0.5112 0.0
N269 N 0.21587 0.92866 0.53002 0.0
C270 C 0.12711 0.77312 0.39561 0.0
C271 C 0.0929 0.9008 0.3851 0.0
N272 N 0.11875 0.82882 0.41094 0.0
N273 N 0.09699 0.90741 0.40431 0.0
N274 N 0.10913 0.81577 0.37925 0.0
H275 H 0.0665 0.59947 0.40266 0.0
H276 H 0.16602 0.64855 0.3833 0.0
H277 H 0.21391 0.69266 0.40766 0.0
C278 C 0.14543 0.67341 0.39714 0.0
C279 C 0.11378 -0.00276 0.5091 0.0
H280 H 0.07814 0.01608 0.52189 0.0
H281 H 0.18627 0.07957 0.50434 0.0
H282 H 0.0481 -0.0396 0.4978 0.0
O283 O 0.17932 -0.00879 0.47201 0.0
O284 O 0.17191 -0.00882 0.44089 0.0
C285 C 0.90579 0.75846 0.4573 0.0
O286 O 0.30377 0.86179 0.43929 0.0
O287 O 0.30294 0.86025 0.47081 0.0
Zn288 Zn 0.62148 0.79789 0.26697 0.0
O289 O 0.49228 0.84293 0.26624 0.0
C290 C 0.45073 0.57641 0.28276 0.0
Zn291 Zn 0.61992 0.79945 0.29924 0.0
C292 C 0.45632 0.85954 0.28212 0.0
O293 O 0.49565 0.84653 0.29779 0.0
C294 C 0.79402 0.74936 0.28425 0.0
O295 O 0.74665 -0.02786 0.29949 0.0
O296 O 0.74925 -0.026 0.26781 0.0
N297 N 0.59911 0.78919 0.32847 0.0
C298 C 0.66328 0.84496 0.34378 0.0
C299 C 0.50151 0.71714 0.35433 0.0
N300 N 0.49884 0.71053 0.33512 0.0
N301 N 0.60284 0.80215 0.36015 0.0
C302 C 0.54693 0.6996 0.22541 0.0
C303 C 0.70701 0.76549 0.21146 0.0
N304 N 0.62553 0.7809 0.23711 0.0
N305 N 0.72463 0.82212 0.22819 0.0
N306 N 0.59596 0.68866 0.20943 0.0
H307 H 0.37082 0.60172 0.21756 0.0
H308 H 0.4154 0.53818 0.2351 0.0
H309 H 0.39657 0.65746 0.24165 0.0
C310 C 0.42531 0.62053 0.23035 0.0
C311 C 0.78124 0.94476 0.34223 0.0
H312 H 0.77609 0.01873 0.33677 0.0
H313 H 0.82691 -0.03056 0.35605 0.0
H314 H 0.83036 0.92572 0.33165 0.0
O315 O 0.75099 0.75621 0.3001 0.0
O316 O 0.7517 0.75776 0.26857 0.0
C317 C 0.7867 0.02522 0.28383 0.0
O318 O 0.49711 0.62677 0.26741 0.0
O319 O 0.48972 0.62682 0.29853 0.0
Zn320 Zn 0.13318 0.81959 0.26697 0.0
O321 O 0.08814 0.64534 0.26624 0.0
C322 C 0.35464 0.87032 0.28275 0.0
Zn323 Zn 0.13162 0.81647 0.29924 0.0
C324 C 0.07154 0.59278 0.28212 0.0
O325 O 0.08454 0.64512 0.29779 0.0
C326 C 0.1817 0.04065 0.28425 0.0
O327 O -0.04107 0.77051 0.29949 0.0
O328 O -0.04293 0.77124 0.26781 0.0
N329 N 0.14188 0.80591 0.32847 0.0
C330 C 0.0861 0.8143 0.34378 0.0
C331 C 0.21394 0.78038 0.35433 0.0
N332 N 0.22056 0.78433 0.33512 0.0
N333 N 0.12891 0.79666 0.36015 0.0
C334 C 0.23147 0.84332 0.22541 0.0
C335 C 0.16558 0.93751 0.21146 0.0
N336 N 0.15017 0.84062 0.23711 0.0
N337 N 0.10895 0.89851 0.22819 0.0
N338 N 0.24241 0.90329 0.20943 0.0
H339 H 0.32934 0.76508 0.21756 0.0
H340 H 0.39289 0.87321 0.2351 0.0
H341 H 0.27361 0.7351 0.24165 0.0
C342 C 0.31053 0.80077 0.23035 0.0
C343 C -0.01372 0.83242 0.34223 0.0
H344 H 0.91232 0.7533 0.33677 0.0
H345 H -0.03844 0.85337 0.35606 0.0
H346 H 0.00532 0.90061 0.33166 0.0
O347 O 0.17486 -0.00922 0.3001 0.0
O348 O 0.17331 -0.01006 0.26857 0.0
C349 C 0.90586 0.75747 0.28383 0.0
O350 O 0.30431 0.86635 0.26741 0.0
O351 O 0.30425 0.85891 0.29853 0.0
Zn352 Zn 0.11459 0.31114 0.29924 0.0
O353 O 0.16055 0.18441 0.29949 0.0
C354 C 0.89042 0.13706 0.28425 0.0
Zn355 Zn 0.11148 0.30958 0.26697 0.0
C356 C 0.17359 0.14438 0.28383 0.0
O357 O 0.15982 0.18182 0.26781 0.0
C358 C 0.06075 0.48033 0.28275 0.0
O359 O 0.28573 0.43879 0.26624 0.0
O360 O 0.28595 0.43541 0.29779 0.0
N361 N 0.09045 0.30554 0.23711 0.0
C362 C 0.08775 0.38414 0.22541 0.0
C363 C -0.00644 0.22407 0.21146 0.0
N364 N 0.03256 0.20644 0.22819 0.0
N365 N 0.02778 0.33511 0.20943 0.0
C366 C 0.11678 0.26779 0.34378 0.0
C367 C 0.15063 0.42953 0.35433 0.0
N368 N 0.12514 0.33195 0.32847 0.0
N369 N 0.14669 0.4322 0.33512 0.0
N370 N 0.13439 0.32822 0.36015 0.0
H371 H 0.17781 0.15505 0.33676 0.0
H372 H 0.0778 0.10422 0.35606 0.0
H373 H 0.03048 0.10069 0.33167 0.0
C374 C 0.09869 0.14986 0.34223 0.0
C375 C 0.1303 0.50576 0.23035 0.0
H376 H 0.16599 0.56025 0.21756 0.0
H377 H 0.05786 0.51568 0.2351 0.0
H378 H 0.19596 0.5345 0.24165 0.0
O379 O 0.06472 0.43396 0.26741 0.0
O380 O 0.07216 0.44135 0.29853 0.0
C381 C 0.33828 0.47474 0.28213 0.0
O382 O -0.05972 0.18008 0.3001 0.0
O383 O -0.05888 0.17937 0.26857 0.0
Zn384 Zn 0.77919 0.64019 0.7735 0.0
O385 O -0.04813 0.76693 0.77324 0.0
C386 C 0.7291 0.81429 0.78847 0.0
Zn387 Zn 0.77764 0.64176 0.80576 0.0
C388 C 0.00496 0.80699 0.7889 0.0
O389 O -0.04625 0.76954 0.80492 0.0
C390 C 0.55615 0.47102 0.78999 0.0
O391 O 0.82267 0.51255 0.80651 0.0
O392 O 0.82628 0.51593 0.77496 0.0
N393 N 0.76067 0.64586 0.83563 0.0
C394 C 0.6794 0.56725 0.84733 0.0
C395 C 0.74524 0.72733 0.86128 0.0
N396 N 0.80186 0.74497 0.84455 0.0
N397 N 0.66845 0.61628 0.86331 0.0
C398 C 0.82465 0.68331 0.72895 0.0
C399 C 0.69697 0.52143 0.71843 0.0
N400 N 0.76894 0.61925 0.74427 0.0
N401 N 0.69034 0.5189 0.73764 0.0
N402 N 0.782 0.62269 0.71259 0.0
H403 H -0.00169 0.79634 0.736 0.0
H404 H -0.05078 0.84681 0.71664 0.0
H405 H 0.90513 0.85056 0.741 0.0
C406 C 0.92437 0.80134 0.73048 0.0
C407 C 0.60035 0.44563 0.8424 0.0
H408 H 0.58157 0.39114 0.85519 0.0
H409 H 0.51798 0.43568 0.83765 0.0
H410 H 0.63728 0.41689 0.8311 0.0
O411 O 0.60651 0.5174 0.80533 0.0
O412 O 0.60655 0.50999 0.77422 0.0
C413 C 0.83927 0.47659 0.79062 0.0
O414 O 0.73594 0.77126 0.77263 0.0
O415 O 0.7375 0.77198 0.80416 0.0
Zn416 Zn 0.29087 0.1349 0.7735 0.0
O417 O 0.16413 0.18084 0.77324 0.0
C418 C 0.11679 0.91072 0.78847 0.0
Zn419 Zn 0.2893 0.13178 0.80577 0.0
C420 C 0.12408 0.19387 0.7889 0.0
O421 O 0.16153 0.18011 0.80492 0.0
C422 C 0.46005 0.08104 0.78999 0.0
O423 O 0.41851 0.30602 0.80651 0.0
O424 O 0.41513 0.30625 0.77496 0.0
N425 N 0.28521 0.11072 0.83563 0.0
C426 C 0.36382 0.10806 0.84733 0.0
C427 C 0.20373 0.01382 0.86128 0.0
N428 N 0.1861 0.0528 0.84455 0.0
N429 N 0.31479 0.04808 0.86331 0.0
C430 C 0.24775 0.13726 0.72895 0.0
C431 C 0.40962 0.1714 0.71843 0.0
N432 N 0.31181 0.14558 0.74427 0.0
N433 N 0.41215 0.1673 0.73764 0.0
N434 N 0.30837 0.15521 0.71259 0.0
H435 H 0.13477 0.19793 0.736 0.0
H436 H 0.08429 0.09844 0.71664 0.0
H437 H 0.08049 0.05051 0.741 0.0
C438 C 0.12975 0.11899 0.73048 0.0
C439 C 0.48544 0.15063 0.8424 0.0
H440 H 0.53992 0.18633 0.85519 0.0
H441 H 0.49538 0.0782 0.83764 0.0
H442 H 0.51417 0.21629 0.8311 0.0
O443 O 0.41367 0.08502 0.80533 0.0
O444 O 0.42108 0.09247 0.77422 0.0
C445 C 0.45446 0.35858 0.79062 0.0
O446 O 0.15981 -0.03942 0.77263 0.0
O447 O 0.15909 -0.03857 0.80416 0.0
Zn448 Zn 0.79929 0.15343 0.80577 0.0
O449 O 0.62504 0.10839 0.80651 0.0
C450 C 0.85003 0.37491 0.78999 0.0
Zn451 Zn 0.79617 0.15188 0.7735 0.0
C452 C 0.57249 0.09179 0.79062 0.0
O453 O 0.62482 0.10479 0.77496 0.0
C454 C 0.02035 0.20198 0.78847 0.0
O455 O 0.75023 -0.0208 0.77324 0.0
O456 O 0.75095 -0.02268 0.80493 0.0
N457 N 0.78548 0.16213 0.74427 0.0
C458 C 0.79379 0.1064 0.72894 0.0
C459 C 0.75965 0.23413 0.71843 0.0
N460 N 0.76376 0.24075 0.73764 0.0
N461 N 0.77584 0.14906 0.71259 0.0
C462 C 0.82301 0.25167 0.84733 0.0
C463 C 0.91726 0.18583 0.86128 0.0
N464 N 0.82035 0.1704 0.83563 0.0
N465 N 0.87827 0.12921 0.84455 0.0
N466 N 0.88299 0.26262 0.86331 0.0
H467 H 0.74473 0.3495 0.85519 0.0
H468 H 0.85286 0.41309 0.83765 0.0
H469 H 0.71477 0.29379 0.8311 0.0
C470 C 0.78043 0.33071 0.8424 0.0
C471 C 0.81206 0.00666 0.73048 0.0
H472 H 0.73312 0.93274 0.736 0.0
H473 H 0.83261 -0.01825 0.71664 0.0
H474 H 0.88055 0.02588 0.74099 0.0
O475 O -0.02952 0.19513 0.77263 0.0
O476 O -0.03036 0.19357 0.80416 0.0
C477 C 0.73719 0.92612 0.7889 0.0
O478 O 0.84605 0.32456 0.80534 0.0
O479 O 0.83861 0.32452 0.77422 0.0
Zn480 Zn 0.28659 0.13275 0.63257 0.0
O481 O 0.41332 0.30544 0.63283 0.0
C482 C 0.46069 0.08266 0.61759 0.0
Zn483 Zn 0.28815 0.13119 0.60031 0.0
C484 C 0.45337 0.35852 0.61716 0.0
O485 O 0.41592 0.3073 0.60114 0.0
C486 C 0.1174 0.90972 0.61609 0.0
O487 O 0.15895 0.17623 0.59957 0.0
O488 O 0.16232 0.17984 0.63112 0.0
N489 N 0.29221 0.11421 0.57044 0.0
C490 C 0.2136 0.03291 0.55874 0.0
C491 C 0.37368 0.09879 0.54479 0.0
N492 N 0.39131 0.15542 0.56152 0.0
N493 N 0.26263 0.02197 0.54277 0.0
C494 C 0.32993 0.17825 0.67712 0.0
C495 C 0.16815 0.05046 0.68766 0.0
N496 N 0.26576 0.12249 0.6618 0.0
N497 N 0.16548 0.04385 0.66845 0.0
N498 N 0.26948 0.13547 0.69348 0.0
H499 H 0.44276 0.35202 0.6701 0.0
H500 H 0.49356 0.30274 0.68939 0.0
H501 H 0.49702 0.25898 0.66499 0.0
C502 C 0.4479 0.27804 0.67556 0.0
C503 C 0.09198 0.95384 0.56368 0.0
H504 H 0.03749 0.93503 0.55089 0.0
H505 H 0.08206 0.87148 0.56843 0.0
H506 H 0.06325 -0.00923 0.57498 0.0
O507 O 0.16378 -0.03993 0.60074 0.0
O508 O 0.15639 -0.03988 0.63186 0.0
C509 C 0.12299 0.19284 0.61546 0.0
O510 O 0.41766 0.08951 0.63343 0.0
O511 O 0.41837 0.09106 0.60191 0.0
Zn512 Zn 0.79985 0.15288 0.60031 0.0
O513 O 0.75481 -0.02136 0.59957 0.0
C514 C 0.02131 0.20362 0.61609 0.0
Zn515 Zn 0.79829 0.14977 0.63257 0.0
C516 C 0.73821 0.92608 0.61546 0.0
O517 O 0.75121 -0.02159 0.63112 0.0
C518 C 0.84837 0.37395 0.61759 0.0
O519 O 0.6256 0.1038 0.63283 0.0
O520 O 0.62374 0.10454 0.60114 0.0
N521 N 0.80855 0.13919 0.6618 0.0
C522 C 0.75279 0.14759 0.67712 0.0
C523 C 0.88058 0.1136 0.68766 0.0
N524 N 0.8872 0.11756 0.66845 0.0
N525 N 0.79558 0.12992 0.69348 0.0
C526 C 0.89813 0.17662 0.55874 0.0
C527 C 0.83225 0.27081 0.54479 0.0
N528 N 0.81683 0.17392 0.57044 0.0
N529 N 0.77562 0.23181 0.56152 0.0
N530 N 0.90907 0.23659 0.54277 0.0
H531 H -0.00399 0.09839 0.55089 0.0
H532 H 0.05956 0.20651 0.56843 0.0
H533 H -0.05973 0.0684 0.57498 0.0
C534 C -0.0228 0.13407 0.56368 0.0
C535 C 0.653 0.16577 0.67557 0.0
H536 H 0.57902 0.08666 0.67011 0.0
H537 H 0.6283 0.18673 0.68939 0.0
H538 H 0.67206 0.23395 0.665 0.0
O539 O 0.84153 0.32408 0.63343 0.0
O540 O 0.83997 0.32323 0.60191 0.0
C541 C 0.57253 0.09077 0.61716 0.0
O542 O -0.02903 0.19964 0.60074 0.0
O543 O -0.02908 0.1922 0.63186 0.0
Zn544 Zn 0.78127 0.64445 0.63257 0.0
O545 O 0.82723 0.51772 0.63283 0.0
C546 C 0.55709 0.47036 0.61759 0.0
Zn547 Zn 0.77815 0.64288 0.60031 0.0
C548 C 0.84026 0.47768 0.61716 0.0
O549 O 0.82649 0.51511 0.60114 0.0
C550 C 0.72743 0.81362 0.61609 0.0
O551 O -0.0476 0.77209 0.59957 0.0
O552 O -0.04738 0.76871 0.63112 0.0
N553 N 0.75711 0.63883 0.57044 0.0
C554 C 0.75442 0.71744 0.55874 0.0
C555 C 0.66022 0.55736 0.54479 0.0
N556 N 0.69922 0.53973 0.56152 0.0
N557 N 0.69444 0.66841 0.54277 0.0
C558 C 0.78347 0.60113 0.67712 0.0
C559 C 0.8174 0.76289 0.68766 0.0
N560 N 0.79185 0.66528 0.6618 0.0
N561 N 0.81343 0.76554 0.66845 0.0
N562 N 0.80112 0.66157 0.69348 0.0
H563 H 0.84445 0.48834 0.6701 0.0
H564 H 0.74445 0.43754 0.68939 0.0
H565 H 0.69712 0.43402 0.665 0.0
C566 C 0.76534 0.48318 0.67557 0.0
C567 C 0.79697 0.83906 0.56368 0.0
H568 H 0.83265 0.89355 0.55089 0.0
H569 H 0.72453 0.84898 0.56843 0.0
H570 H 0.86264 0.86779 0.57498 0.0
O571 O 0.7314 0.76725 0.60074 0.0
O572 O 0.73884 0.77465 0.63186 0.0
C573 C 0.00495 0.80804 0.61546 0.0
O574 O 0.60696 0.51338 0.63343 0.0
O575 O 0.6078 0.51267 0.60191 0.0
loop_
_geom_bond_atom_site_label_1
_geom_bond_atom_site_label_2
_geom_bond_distance
_geom_bond_site_symmetry_2
_ccdc_geom_bond_type
Zn0 O1 2.055 1_565 S
Zn0 O8 2.046 . S
Zn0 N16 2.036 . S
Zn0 O28 2.053 . S
Zn0 O30 2.066 1_565 S
O1 Zn0 2.055 1_545 S
O1 C4 1.259 . S
C2 O30 1.256 . S
C2 O31 1.244 . S
Zn3 O5 2.046 . S
Zn3 O7 2.055 1_545 S
Zn3 N9 2.036 . S
Zn3 O27 2.066 1_545 S
Zn3 O31 2.053 . S
C4 O1 1.259 . S
C4 O5 1.254 . S
O5 Zn3 2.046 . S
O5 C4 1.254 . S
C6 O27 1.256 . S
C6 O28 1.244 . S
O7 Zn3 2.055 1_565 S
O7 C29 1.259 . S
O8 Zn0 2.046 . S
O8 C29 1.254 . S
N9 Zn3 2.036 . S
N9 C10 1.298 1_545 S
N9 N12 1.398 . S
C10 N9 1.298 1_565 S
C10 N13 1.367 . S
C10 C23 1.481 . S
C11 N12 1.299 . S
C11 N13 1.379 1_545 S
N12 N9 1.398 . S
N12 C11 1.299 . S
N13 C10 1.367 . S
N13 C11 1.379 1_565 S
C14 N16 1.298 1_545 S
C14 N18 1.367 . S
C14 C22 1.481 . S
C15 N17 1.299 . S
C15 N18 1.379 1_565 S
N16 Zn0 2.036 . S
N16 C14 1.298 1_565 S
N16 N17 1.398 . S
N17 C15 1.299 . S
N17 N16 1.398 . S
N18 C14 1.367 . S
N18 C15 1.379 1_545 S
H19 C22 0.980 . S
H20 C22 0.981 . S
H21 C22 0.981 . S
C22 C14 1.481 . S
C22 H19 0.980 . S
C22 H20 0.981 . S
C22 H21 0.981 . S
C23 C10 1.481 . S
C23 H24 0.980 . S
C23 H25 0.981 . S
C23 H26 0.981 . S
H24 C23 0.980 . S
H25 C23 0.981 . S
H26 C23 0.981 . S
O27 Zn3 2.066 1_565 S
O27 C6 1.256 . S
O28 Zn0 2.053 . S
O28 C6 1.244 . S
C29 O7 1.259 . S
C29 O8 1.254 . S
O30 Zn0 2.066 1_545 S
O30 C2 1.256 . S
O31 C2 1.244 . S
O31 Zn3 2.053 . S
Zn32 O33 2.055 1_455 S
Zn32 O40 2.046 . S
Zn32 N48 2.036 . S
Zn32 O60 2.053 . S
Zn32 O62 2.066 1_455 S
O33 Zn32 2.055 1_655 S
O33 C36 1.259 . S
C34 O62 1.256 . S
C34 O63 1.244 . S
Zn35 O37 2.046 1_455 S
Zn35 O39 2.055 . S
Zn35 N41 2.036 . S
Zn35 O59 2.066 . S
Zn35 O63 2.053 1_455 S
C36 O33 1.259 . S
C36 O37 1.254 . S
O37 Zn35 2.046 1_655 S
O37 C36 1.254 . S
C38 O59 1.256 . S
C38 O60 1.244 . S
O39 Zn35 2.055 . S
O39 C61 1.259 . S
O40 Zn32 2.046 . S
O40 C61 1.254 . S
N41 Zn35 2.036 . S
N41 C42 1.298 . S
N41 N44 1.398 1_455 S
C42 N41 1.298 . S
C42 N45 1.367 . S
C42 C55 1.481 . S
C43 N44 1.299 . S
C43 N45 1.379 1_655 S
N44 N41 1.398 1_655 S
N44 C43 1.299 . S
N45 C42 1.367 . S
N45 C43 1.379 1_455 S
C46 N48 1.298 1_655 S
C46 N50 1.367 . S
C46 C54 1.481 . S
C47 N49 1.299 . S
C47 N50 1.379 1_455 S
N48 Zn32 2.036 . S
N48 C46 1.298 1_455 S
N48 N49 1.398 . S
N49 C47 1.299 . S
N49 N48 1.398 . S
N50 C46 1.367 . S
N50 C47 1.379 1_655 S
H51 C54 0.980 . S
H52 C54 0.981 . S
H53 C54 0.981 . S
C54 C46 1.481 . S
C54 H51 0.980 . S
C54 H52 0.981 . S
C54 H53 0.981 . S
C55 C42 1.481 . S
C55 H56 0.980 . S
C55 H57 0.981 . S
C55 H58 0.981 . S
H56 C55 0.980 . S
H57 C55 0.981 . S
H58 C55 0.981 . S
O59 Zn35 2.066 . S
O59 C38 1.256 . S
O60 Zn32 2.053 . S
O60 C38 1.244 . S
C61 O39 1.259 . S
C61 O40 1.254 . S
O62 Zn32 2.066 1_655 S
O62 C34 1.256 . S
O63 C34 1.244 . S
O63 Zn35 2.053 1_655 S
Zn64 O65 2.055 . S
Zn64 O72 2.046 . S
Zn64 N80 2.036 . S
Zn64 O92 2.053 . S
Zn64 O94 2.066 . S
O65 Zn64 2.055 . S
O65 C68 1.259 . S
C66 O94 1.256 . S
C66 O95 1.244 . S
Zn67 O69 2.046 . S
Zn67 O71 2.055 . S
Zn67 N73 2.036 . S
Zn67 O91 2.066 . S
Zn67 O95 2.053 . S
C68 O65 1.259 . S
C68 O69 1.254 . S
O69 Zn67 2.046 . S
O69 C68 1.254 . S
C70 O91 1.256 . S
C70 O92 1.244 . S
O71 Zn67 2.055 . S
O71 C93 1.259 . S
O72 Zn64 2.046 . S
O72 C93 1.254 . S
N73 Zn67 2.036 . S
N73 C74 1.298 . S
N73 N76 1.398 . S
C74 N73 1.298 . S
C74 N77 1.367 . S
C74 C87 1.481 . S
C75 N76 1.299 . S
C75 N77 1.379 . S
N76 N73 1.398 . S
N76 C75 1.299 . S
N77 C74 1.367 . S
N77 C75 1.379 . S
C78 N80 1.298 . S
C78 N82 1.367 . S
C78 C86 1.481 . S
C79 N81 1.299 . S
C79 N82 1.379 . S
N80 Zn64 2.036 . S
N80 C78 1.298 . S
N80 N81 1.398 . S
N81 C79 1.299 . S
N81 N80 1.398 . S
N82 C78 1.367 . S
N82 C79 1.379 . S
H83 C86 0.980 . S
H84 C86 0.981 . S
H85 C86 0.981 . S
C86 C78 1.481 . S
C86 H83 0.980 . S
C86 H84 0.981 . S
C86 H85 0.981 . S
C87 C74 1.481 . S
C87 H88 0.980 . S
C87 H89 0.981 . S
C87 H90 0.981 . S
H88 C87 0.980 . S
H89 C87 0.981 . S
H90 C87 0.981 . S
O91 Zn67 2.066 . S
O91 C70 1.256 . S
O92 Zn64 2.053 . S
O92 C70 1.244 . S
C93 O71 1.259 . S
C93 O72 1.254 . S
O94 Zn64 2.066 . S
O94 C66 1.256 . S
O95 C66 1.244 . S
O95 Zn67 2.053 . S
Zn96 O97 2.055 1_455 S
Zn96 O104 2.046 . S
Zn96 N112 2.036 . S
Zn96 O124 2.053 . S
Zn96 O126 2.066 1_455 S
O97 Zn96 2.055 1_655 S
O97 C100 1.259 . S
C98 O126 1.256 . S
C98 O127 1.244 . S
Zn99 O101 2.046 . S
Zn99 O103 2.055 1_655 S
Zn99 N105 2.036 . S
Zn99 O123 2.066 1_655 S
Zn99 O127 2.053 . S
C100 O97 1.259 . S
C100 O101 1.254 . S
O101 Zn99 2.046 . S
O101 C100 1.254 . S
C102 O123 1.256 . S
C102 O124 1.244 . S
O103 Zn99 2.055 1_455 S
O103 C125 1.259 . S
O104 Zn96 2.046 . S
O104 C125 1.254 . S
N105 Zn99 2.036 . S
N105 C106 1.298 1_655 S
N105 N108 1.398 . S
C106 N105 1.298 1_455 S
C106 N109 1.367 . S
C106 C119 1.481 . S
C107 N108 1.299 . S
C107 N109 1.379 1_655 S
N108 N105 1.398 . S
N108 C107 1.299 . S
N109 C106 1.367 . S
N109 C107 1.379 1_455 S
C110 N112 1.298 1_655 S
C110 N114 1.367 . S
C110 C118 1.481 . S
C111 N113 1.299 . S
C111 N114 1.379 1_455 S
N112 Zn96 2.036 . S
N112 C110 1.298 1_455 S
N112 N113 1.398 . S
N113 C111 1.299 . S
N113 N112 1.398 . S
N114 C110 1.367 . S
N114 C111 1.379 1_655 S
H115 C118 0.980 . S
H116 C118 0.981 . S
H117 C118 0.981 . S
C118 C110 1.481 . S
C118 H115 0.980 . S
C118 H116 0.981 . S
C118 H117 0.981 . S
C119 C106 1.481 . S
C119 H120 0.980 . S
C119 H121 0.981 . S
C119 H122 0.981 . S
H120 C119 0.980 . S
H121 C119 0.981 . S
H122 C119 0.981 . S
O123 Zn99 2.066 1_455 S
O123 C102 1.256 . S
O124 Zn96 2.053 . S
O124 C102 1.244 . S
C125 O103 1.259 . S
C125 O104 1.254 . S
O126 Zn96 2.066 1_655 S
O126 C98 1.256 . S
O127 C98 1.244 . S
O127 Zn99 2.053 . S
Zn128 O129 2.055 . S
Zn128 O136 2.046 . S
Zn128 N144 2.036 . S
Zn128 O156 2.053 . S
Zn128 O158 2.066 . S
O129 Zn128 2.055 . S
O129 C132 1.259 . S
C130 O158 1.256 . S
C130 O159 1.244 . S
Zn131 O133 2.046 . S
Zn131 O135 2.055 . S
Zn131 N137 2.036 . S
Zn131 O155 2.066 . S
Zn131 O159 2.053 . S
C132 O129 1.259 . S
C132 O133 1.254 . S
O133 Zn131 2.046 . S
O133 C132 1.254 . S
C134 O155 1.256 . S
C134 O156 1.244 . S
O135 Zn131 2.055 . S
O135 C157 1.259 . S
O136 Zn128 2.046 . S
O136 C157 1.254 . S
N137 Zn131 2.036 . S
N137 C138 1.298 . S
N137 N140 1.398 . S
C138 N137 1.298 . S
C138 N141 1.367 . S
C138 C151 1.481 . S
C139 N140 1.299 . S
C139 N141 1.379 . S
N140 N137 1.398 . S
N140 C139 1.299 . S
N141 C138 1.367 . S
N141 C139 1.379 . S
C142 N144 1.298 . S
C142 N146 1.367 . S
C142 C150 1.481 . S
C143 N145 1.299 . S
C143 N146 1.379 . S
N144 Zn128 2.036 . S
N144 C142 1.298 . S
N144 N145 1.398 . S
N145 C143 1.299 . S
N145 N144 1.398 . S
N146 C142 1.367 . S
N146 C143 1.379 . S
H147 C150 0.980 . S
H148 C150 0.981 . S
H149 C150 0.981 . S
C150 C142 1.481 . S
C150 H147 0.980 . S
C150 H148 0.981 . S
C150 H149 0.981 . S
C151 C138 1.481 . S
C151 H152 0.980 . S
C151 H153 0.981 . S
C151 H154 0.981 . S
H152 C151 0.980 . S
H153 C151 0.981 . S
H154 C151 0.981 . S
O155 Zn131 2.066 . S
O155 C134 1.256 . S
O156 Zn128 2.053 . S
O156 C134 1.244 . S
C157 O135 1.259 . S
C157 O136 1.254 . S
O158 Zn128 2.066 . S
O158 C130 1.256 . S
O159 C130 1.244 . S
O159 Zn131 2.053 . S
Zn160 O161 2.055 1_545 S
Zn160 O168 2.046 . S
Zn160 N176 2.036 . S
Zn160 O188 2.053 . S
Zn160 O190 2.066 1_545 S
O161 Zn160 2.055 1_565 S
O161 C164 1.259 . S
C162 O190 1.256 . S
C162 O191 1.244 . S
Zn163 O165 2.046 1_545 S
Zn163 O167 2.055 . S
Zn163 N169 2.036 . S
Zn163 O187 2.066 . S
Zn163 O191 2.053 1_545 S
C164 O161 1.259 . S
C164 O165 1.254 . S
O165 Zn163 2.046 1_565 S
O165 C164 1.254 . S
C166 O187 1.256 . S
C166 O188 1.244 . S
O167 Zn163 2.055 . S
O167 C189 1.259 . S
O168 Zn160 2.046 . S
O168 C189 1.254 . S
N169 Zn163 2.036 . S
N169 C170 1.298 . S
N169 N172 1.398 1_545 S
C170 N169 1.298 . S
C170 N173 1.367 . S
C170 C183 1.481 . S
C171 N172 1.299 . S
C171 N173 1.379 1_565 S
N172 N169 1.398 1_565 S
N172 C171 1.299 . S
N173 C170 1.367 . S
N173 C171 1.379 1_545 S
C174 N176 1.298 1_565 S
C174 N178 1.367 . S
C174 C182 1.481 . S
C175 N177 1.299 . S
C175 N178 1.379 1_545 S
N176 Zn160 2.036 . S
N176 C174 1.298 1_545 S
N176 N177 1.398 . S
N177 C175 1.299 . S
N177 N176 1.398 . S
N178 C174 1.367 . S
N178 C175 1.379 1_565 S
H179 C182 0.980 . S
H180 C182 0.981 . S
H181 C182 0.981 . S
C182 C174 1.481 . S
C182 H179 0.980 . S
C182 H180 0.981 . S
C182 H181 0.981 . S
C183 C170 1.481 . S
C183 H184 0.980 . S
C183 H185 0.981 . S
C183 H186 0.981 . S
H184 C183 0.980 . S
H185 C183 0.981 . S
H186 C183 0.981 . S
O187 Zn163 2.066 . S
O187 C166 1.256 . S
O188 Zn160 2.053 . S
O188 C166 1.244 . S
C189 O167 1.259 . S
C189 O168 1.254 . S
O190 Zn160 2.066 1_565 S
O190 C162 1.256 . S
O191 C162 1.244 . S
O191 Zn163 2.053 1_565 S
Zn192 O193 2.055 . S
Zn192 O200 2.046 . S
Zn192 N208 2.036 . S
Zn192 O220 2.053 . S
Zn192 O222 2.066 1_455 S
O193 Zn192 2.055 . S
O193 C196 1.259 . S
C194 O222 1.256 . S
C194 O223 1.244 1_655 S
Zn195 O197 2.046 . S
Zn195 O199 2.055 . S
Zn195 N201 2.036 . S
Zn195 O219 2.066 . S
Zn195 O223 2.053 . S
C196 O193 1.259 . S
C196 O197 1.254 . S
O197 Zn195 2.046 . S
O197 C196 1.254 . S
C198 O219 1.256 . S
C198 O220 1.244 . S
O199 Zn195 2.055 . S
O199 C221 1.259 . S
O200 Zn192 2.046 . S
O200 C221 1.254 . S
N201 Zn195 2.036 . S
N201 C202 1.298 . S
N201 N204 1.398 . S
C202 N201 1.298 . S
C202 N205 1.367 . S
C202 C215 1.481 . S
C203 N204 1.299 . S
C203 N205 1.379 . S
N204 N201 1.398 . S
N204 C203 1.299 . S
N205 C202 1.367 . S
N205 C203 1.379 . S
C206 N208 1.298 . S
C206 N210 1.367 . S
C206 C214 1.481 . S
C207 N209 1.299 . S
C207 N210 1.379 . S
N208 Zn192 2.036 . S
N208 C206 1.298 . S
N208 N209 1.398 . S
N209 C207 1.299 . S
N209 N208 1.398 . S
N210 C206 1.367 . S
N210 C207 1.379 . S
H211 C214 0.980 . S
H212 C214 0.981 . S
H213 C214 0.981 . S
C214 C206 1.481 . S
C214 H211 0.980 . S
C214 H212 0.981 . S
C214 H213 0.981 . S
C215 C202 1.481 . S
C215 H216 0.980 . S
C215 H217 0.981 . S
C215 H218 0.981 . S
H216 C215 0.980 . S
H217 C215 0.981 . S
H218 C215 0.981 . S
O219 Zn195 2.066 . S
O219 C198 1.256 . S
O220 Zn192 2.053 . S
O220 C198 1.244 . S
C221 O199 1.259 . S
C221 O200 1.254 . S
O222 Zn192 2.066 1_655 S
O222 C194 1.256 . S
O223 C194 1.244 1_455 S
O223 Zn195 2.053 . S
Zn224 O225 2.055 . S
Zn224 O232 2.046 1_565 S
Zn224 N240 2.036 . S
Zn224 O252 2.053 . S
Zn224 O254 2.066 . S
O225 Zn224 2.055 . S
O225 C228 1.259 . S
C226 O254 1.256 . S
C226 O255 1.244 . S
Zn227 O229 2.046 . S
Zn227 O231 2.055 1_565 S
Zn227 N233 2.036 . S
Zn227 O251 2.066 . S
Zn227 O255 2.053 . S
C228 O225 1.259 . S
C228 O229 1.254 . S
O229 Zn227 2.046 . S
O229 C228 1.254 . S
C230 O251 1.256 . S
C230 O252 1.244 . S
O231 Zn227 2.055 1_545 S
O231 C253 1.259 . S
O232 Zn224 2.046 1_545 S
O232 C253 1.254 . S
N233 Zn227 2.036 . S
N233 C234 1.298 . S
N233 N236 1.398 . S
C234 N233 1.298 . S
C234 N237 1.367 . S
C234 C247 1.481 . S
C235 N236 1.299 . S
C235 N237 1.379 . S
N236 N233 1.398 . S
N236 C235 1.299 . S
N237 C234 1.367 . S
N237 C235 1.379 . S
C238 N240 1.298 . S
C238 N242 1.367 . S
C238 C246 1.481 . S
C239 N241 1.299 . S
C239 N242 1.379 . S
N240 Zn224 2.036 . S
N240 C238 1.298 . S
N240 N241 1.398 . S
N241 C239 1.299 . S
N241 N240 1.398 . S
N242 C238 1.367 . S
N242 C239 1.379 . S
H243 C246 0.980 . S
H244 C246 0.981 . S
H245 C246 0.981 . S
C246 C238 1.481 . S
C246 H243 0.980 . S
C246 H244 0.981 . S
C246 H245 0.981 . S
C247 C234 1.481 . S
C247 H248 0.980 1_565 S
C247 H249 0.981 1_565 S
C247 H250 0.981 . S
H248 C247 0.980 1_545 S
H249 C247 0.981 1_545 S
H250 C247 0.981 . S
O251 Zn227 2.066 . S
O251 C230 1.256 . S
O252 Zn224 2.053 . S
O252 C230 1.244 . S
C253 O231 1.259 . S
C253 O232 1.254 . S
O254 Zn224 2.066 . S
O254 C226 1.256 . S
O255 C226 1.244 . S
O255 Zn227 2.053 . S
Zn256 O257 2.055 . S
Zn256 O264 2.046 1_455 S
Zn256 N272 2.036 . S
Zn256 O284 2.053 1_565 S
Zn256 O286 2.066 . S
O257 Zn256 2.055 . S
O257 C260 1.259 . S
C258 O286 1.256 . S
C258 O287 1.244 . S
Zn259 O261 2.046 . S
Zn259 O263 2.055 . S
Zn259 N265 2.036 . S
Zn259 O283 2.066 1_565 S
Zn259 O287 2.053 . S
C260 O257 1.259 . S
C260 O261 1.254 . S
O261 Zn259 2.046 . S
O261 C260 1.254 . S
C262 O283 1.256 . S
C262 O284 1.244 . S
O263 Zn259 2.055 . S
O263 C285 1.259 1_455 S
O264 Zn256 2.046 1_655 S
O264 C285 1.254 . S
N265 Zn259 2.036 . S
N265 C266 1.298 . S
N265 N268 1.398 . S
C266 N265 1.298 . S
C266 N269 1.367 . S
C266 C279 1.481 . S
C267 N268 1.299 . S
C267 N269 1.379 . S
N268 N265 1.398 . S
N268 C267 1.299 . S
N269 C266 1.367 . S
N269 C267 1.379 . S
C270 N272 1.298 . S
C270 N274 1.367 . S
C270 C278 1.481 . S
C271 N273 1.299 . S
C271 N274 1.379 . S
N272 Zn256 2.036 . S
N272 C270 1.298 . S
N272 N273 1.398 . S
N273 C271 1.299 . S
N273 N272 1.398 . S
N274 C270 1.367 . S
N274 C271 1.379 . S
H275 C278 0.980 . S
H276 C278 0.981 . S
H277 C278 0.981 . S
C278 C270 1.481 . S
C278 H275 0.980 . S
C278 H276 0.981 . S
C278 H277 0.981 . S
C279 C266 1.481 . S
C279 H280 0.980 . S
C279 H281 0.981 . S
C279 H282 0.981 1_565 S
H280 C279 0.980 . S
H281 C279 0.981 . S
H282 C279 0.981 1_545 S
O283 Zn259 2.066 1_545 S
O283 C262 1.256 . S
O284 Zn256 2.053 1_545 S
O284 C262 1.244 . S
C285 O263 1.259 1_655 S
C285 O264 1.254 . S
O286 Zn256 2.066 . S
O286 C258 1.256 . S
O287 C258 1.244 . S
O287 Zn259 2.053 . S
Zn288 O289 2.055 . S
Zn288 O296 2.046 1_565 S
Zn288 N304 2.036 . S
Zn288 O316 2.053 . S
Zn288 O318 2.066 . S
O289 Zn288 2.055 . S
O289 C292 1.259 . S
C290 O318 1.256 . S
C290 O319 1.244 . S
Zn291 O293 2.046 . S
Zn291 O295 2.055 1_565 S
Zn291 N297 2.036 . S
Zn291 O315 2.066 . S
Zn291 O319 2.053 . S
C292 O289 1.259 . S
C292 O293 1.254 . S
O293 Zn291 2.046 . S
O293 C292 1.254 . S
C294 O315 1.256 . S
C294 O316 1.244 . S
O295 Zn291 2.055 1_545 S
O295 C317 1.259 . S
O296 Zn288 2.046 1_545 S
O296 C317 1.254 . S
N297 Zn291 2.036 . S
N297 C298 1.298 . S
N297 N300 1.398 . S
C298 N297 1.298 . S
C298 N301 1.367 . S
C298 C311 1.480 1_565 S
C299 N300 1.299 . S
C299 N301 1.379 . S
N300 N297 1.398 . S
N300 C299 1.299 . S
N301 C298 1.367 . S
N301 C299 1.379 . S
C302 N304 1.298 . S
C302 N306 1.367 . S
C302 C310 1.481 . S
C303 N305 1.299 . S
C303 N306 1.379 . S
N304 Zn288 2.036 . S
N304 C302 1.298 . S
N304 N305 1.398 . S
N305 C303 1.299 . S
N305 N304 1.398 . S
N306 C302 1.367 . S
N306 C303 1.379 . S
H307 C310 0.980 . S
H308 C310 0.981 . S
H309 C310 0.981 . S
C310 C302 1.481 . S
C310 H307 0.980 . S
C310 H308 0.981 . S
C310 H309 0.981 . S
C311 C298 1.480 1_545 S
C311 H312 0.980 . S
C311 H313 0.981 . S
C311 H314 0.981 1_545 S
H312 C311 0.980 . S
H313 C311 0.981 . S
H314 C311 0.981 1_565 S
O315 Zn291 2.066 . S
O315 C294 1.256 . S
O316 Zn288 2.053 . S
O316 C294 1.244 . S
C317 O295 1.259 . S
C317 O296 1.254 . S
O318 Zn288 2.066 . S
O318 C290 1.256 . S
O319 C290 1.244 . S
O319 Zn291 2.053 . S
Zn320 O321 2.055 . S
Zn320 O328 2.046 . S
Zn320 N336 2.036 . S
Zn320 O348 2.053 1_565 S
Zn320 O350 2.066 . S
O321 Zn320 2.055 . S
O321 C324 1.259 . S
C322 O350 1.256 . S
C322 O351 1.244 . S
Zn323 O325 2.046 . S
Zn323 O327 2.055 . S
Zn323 N329 2.036 . S
Zn323 O347 2.066 1_565 S
Zn323 O351 2.053 . S
C324 O321 1.259 . S
C324 O325 1.254 . S
O325 Zn323 2.046 . S
O325 C324 1.254 . S
C326 O347 1.256 . S
C326 O348 1.244 . S
O327 Zn323 2.055 . S
O327 C349 1.259 1_455 S
O328 Zn320 2.046 . S
O328 C349 1.254 1_455 S
N329 Zn323 2.036 . S
N329 C330 1.298 . S
N329 N332 1.398 . S
C330 N329 1.298 . S
C330 N333 1.367 . S
C330 C343 1.481 . S
C331 N332 1.299 . S
C331 N333 1.379 . S
N332 N329 1.398 . S
N332 C331 1.299 . S
N333 C330 1.367 . S
N333 C331 1.379 . S
C334 N336 1.298 . S
C334 N338 1.367 . S
C334 C342 1.481 . S
C335 N337 1.299 . S
C335 N338 1.379 . S
N336 Zn320 2.036 . S
N336 C334 1.298 . S
N336 N337 1.398 . S
N337 C335 1.299 . S
N337 N336 1.398 . S
N338 C334 1.367 . S
N338 C335 1.379 . S
H339 C342 0.980 . S
H340 C342 0.981 . S
H341 C342 0.981 . S
C342 C334 1.481 . S
C342 H339 0.980 . S
C342 H340 0.981 . S
C342 H341 0.981 . S
C343 C330 1.481 . S
C343 H344 0.980 1_455 S
C343 H345 0.981 1_455 S
C343 H346 0.981 . S
H344 C343 0.980 1_655 S
H345 C343 0.981 1_655 S
H346 C343 0.981 . S
O347 Zn323 2.066 1_545 S
O347 C326 1.256 . S
O348 Zn320 2.053 1_545 S
O348 C326 1.244 . S
C349 O327 1.259 1_655 S
C349 O328 1.254 1_655 S
O350 Zn320 2.066 . S
O350 C322 1.256 . S
O351 C322 1.244 . S
O351 Zn323 2.053 . S
Zn352 O353 2.055 . S
Zn352 O360 2.046 . S
Zn352 N368 2.036 . S
Zn352 O380 2.053 . S
Zn352 O382 2.066 . S
O353 Zn352 2.055 . S
O353 C356 1.259 . S
C354 O382 1.256 1_655 S
C354 O383 1.244 1_655 S
Zn355 O357 2.046 . S
Zn355 O359 2.055 . S
Zn355 N361 2.036 . S
Zn355 O379 2.066 . S
Zn355 O383 2.053 . S
C356 O353 1.259 . S
C356 O357 1.254 . S
O357 Zn355 2.046 . S
O357 C356 1.254 . S
C358 O379 1.256 . S
C358 O380 1.244 . S
O359 Zn355 2.055 . S
O359 C381 1.259 . S
O360 Zn352 2.046 . S
O360 C381 1.254 . S
N361 Zn355 2.036 . S
N361 C362 1.298 . S
N361 N364 1.398 . S
C362 N361 1.298 . S
C362 N365 1.367 . S
C362 C375 1.481 . S
C363 N364 1.299 . S
C363 N365 1.379 . S
N364 N361 1.398 . S
N364 C363 1.299 . S
N365 C362 1.367 . S
N365 C363 1.379 . S
C366 N368 1.298 . S
C366 N370 1.367 . S
C366 C374 1.481 . S
C367 N369 1.299 . S
C367 N370 1.379 . S
N368 Zn352 2.036 . S
N368 C366 1.298 . S
N368 N369 1.398 . S
N369 C367 1.299 . S
N369 N368 1.398 . S
N370 C366 1.367 . S
N370 C367 1.379 . S
H371 C374 0.980 . S
H372 C374 0.981 . S
H373 C374 0.981 . S
C374 C366 1.481 . S
C374 H371 0.980 . S
C374 H372 0.981 . S
C374 H373 0.981 . S
C375 C362 1.481 . S
C375 H376 0.980 . S
C375 H377 0.981 . S
C375 H378 0.981 . S
H376 C375 0.980 . S
H377 C375 0.981 . S
H378 C375 0.981 . S
O379 Zn355 2.066 . S
O379 C358 1.256 . S
O380 Zn352 2.053 . S
O380 C358 1.244 . S
C381 O359 1.259 . S
C381 O360 1.254 . S
O382 Zn352 2.066 . S
O382 C354 1.256 1_455 S
O383 C354 1.244 1_455 S
O383 Zn355 2.053 . S
Zn384 O385 2.055 1_655 S
Zn384 O392 2.046 . S
Zn384 N400 2.036 . S
Zn384 O412 2.053 . S
Zn384 O414 2.066 . S
O385 Zn384 2.055 1_455 S
O385 C388 1.259 . S
C386 O414 1.256 . S
C386 O415 1.244 . S
Zn387 O389 2.046 1_655 S
Zn387 O391 2.055 . S
Zn387 N393 2.036 . S
Zn387 O411 2.066 . S
Zn387 O415 2.053 . S
C388 O385 1.259 . S
C388 O389 1.254 . S
O389 Zn387 2.046 1_455 S
O389 C388 1.254 . S
C390 O411 1.256 . S
C390 O412 1.244 . S
O391 Zn387 2.055 . S
O391 C413 1.259 . S
O392 Zn384 2.046 . S
O392 C413 1.254 . S
N393 Zn387 2.036 . S
N393 C394 1.298 . S
N393 N396 1.398 . S
C394 N393 1.298 . S
C394 N397 1.367 . S
C394 C407 1.481 . S
C395 N396 1.299 . S
C395 N397 1.379 . S
N396 N393 1.398 . S
N396 C395 1.299 . S
N397 C394 1.367 . S
N397 C395 1.379 . S
C398 N400 1.298 . S
C398 N402 1.367 . S
C398 C406 1.480 1_655 S
C399 N401 1.299 . S
C399 N402 1.379 . S
N400 Zn384 2.036 . S
N400 C398 1.298 . S
N400 N401 1.398 . S
N401 C399 1.299 . S
N401 N400 1.398 . S
N402 C398 1.367 . S
N402 C399 1.379 . S
H403 C406 0.980 . S
H404 C406 0.981 . S
H405 C406 0.981 1_655 S
C406 C398 1.480 1_455 S
C406 H403 0.980 . S
C406 H404 0.981 . S
C406 H405 0.981 1_455 S
C407 C394 1.481 . S
C407 H408 0.980 . S
C407 H409 0.981 . S
C407 H410 0.981 . S
H408 C407 0.980 . S
H409 C407 0.981 . S
H410 C407 0.981 . S
O411 Zn387 2.066 . S
O411 C390 1.256 . S
O412 Zn384 2.053 . S
O412 C390 1.244 . S
C413 O391 1.259 . S
C413 O392 1.254 . S
O414 Zn384 2.066 . S
O414 C386 1.256 . S
O415 C386 1.244 . S
O415 Zn387 2.053 . S
Zn416 O417 2.055 . S
Zn416 O424 2.046 . S
Zn416 N432 2.036 . S
Zn416 O444 2.053 . S
Zn416 O446 2.066 . S
O417 Zn416 2.055 . S
O417 C420 1.259 . S
C418 O446 1.256 1_565 S
C418 O447 1.244 1_565 S
Zn419 O421 2.046 . S
Zn419 O423 2.055 . S
Zn419 N425 2.036 . S
Zn419 O443 2.066 . S
Zn419 O447 2.053 . S
C420 O417 1.259 . S
C420 O421 1.254 . S
O421 Zn419 2.046 . S
O421 C420 1.254 . S
C422 O443 1.256 . S
C422 O444 1.244 . S
O423 Zn419 2.055 . S
O423 C445 1.259 . S
O424 Zn416 2.046 . S
O424 C445 1.254 . S
N425 Zn419 2.036 . S
N425 C426 1.298 . S
N425 N428 1.398 . S
C426 N425 1.298 . S
C426 N429 1.367 . S
C426 C439 1.481 . S
C427 N428 1.299 . S
C427 N429 1.379 . S
N428 N425 1.398 . S
N428 C427 1.299 . S
N429 C426 1.367 . S
N429 C427 1.379 . S
C430 N432 1.298 . S
C430 N434 1.367 . S
C430 C438 1.481 . S
C431 N433 1.299 . S
C431 N434 1.379 . S
N432 Zn416 2.036 . S
N432 C430 1.298 . S
N432 N433 1.398 . S
N433 C431 1.299 . S
N433 N432 1.398 . S
N434 C430 1.367 . S
N434 C431 1.379 . S
H435 C438 0.980 . S
H436 C438 0.981 . S
H437 C438 0.981 . S
C438 C430 1.481 . S
C438 H435 0.980 . S
C438 H436 0.981 . S
C438 H437 0.981 . S
C439 C426 1.481 . S
C439 H440 0.980 . S
C439 H441 0.981 . S
C439 H442 0.981 . S
H440 C439 0.980 . S
H441 C439 0.981 . S
H442 C439 0.981 . S
O443 Zn419 2.066 . S
O443 C422 1.256 . S
O444 Zn416 2.053 . S
O444 C422 1.244 . S
C445 O423 1.259 . S
C445 O424 1.254 . S
O446 Zn416 2.066 . S
O446 C418 1.256 1_545 S
O447 C418 1.244 1_545 S
O447 Zn419 2.053 . S
Zn448 O449 2.055 . S
Zn448 O456 2.046 . S
Zn448 N464 2.036 . S
Zn448 O476 2.053 1_655 S
Zn448 O478 2.066 . S
O449 Zn448 2.055 . S
O449 C452 1.259 . S
C450 O478 1.256 . S
C450 O479 1.244 . S
Zn451 O453 2.046 . S
Zn451 O455 2.055 . S
Zn451 N457 2.036 . S
Zn451 O475 2.066 1_655 S
Zn451 O479 2.053 . S
C452 O449 1.259 . S
C452 O453 1.254 . S
O453 Zn451 2.046 . S
O453 C452 1.254 . S
C454 O475 1.256 . S
C454 O476 1.244 . S
O455 Zn451 2.055 . S
O455 C477 1.259 1_545 S
O456 Zn448 2.046 . S
O456 C477 1.254 1_545 S
N457 Zn451 2.036 . S
N457 C458 1.298 . S
N457 N460 1.398 . S
C458 N457 1.298 . S
C458 N461 1.367 . S
C458 C471 1.481 . S
C459 N460 1.299 . S
C459 N461 1.379 . S
N460 N457 1.398 . S
N460 C459 1.299 . S
N461 C458 1.367 . S
N461 C459 1.379 . S
C462 N464 1.298 . S
C462 N466 1.367 . S
C462 C470 1.481 . S
C463 N465 1.299 . S
C463 N466 1.379 . S
N464 Zn448 2.036 . S
N464 C462 1.298 . S
N464 N465 1.398 . S
N465 C463 1.299 . S
N465 N464 1.398 . S
N466 C462 1.367 . S
N466 C463 1.379 . S
H467 C470 0.980 . S
H468 C470 0.981 . S
H469 C470 0.981 . S
C470 C462 1.481 . S
C470 H467 0.980 . S
C470 H468 0.981 . S
C470 H469 0.981 . S
C471 C458 1.481 . S
C471 H472 0.980 1_545 S
C471 H473 0.981 1_545 S
C471 H474 0.981 . S
H472 C471 0.980 1_565 S
H473 C471 0.981 1_565 S
H474 C471 0.981 . S
O475 Zn451 2.066 1_455 S
O475 C454 1.256 . S
O476 Zn448 2.053 1_455 S
O476 C454 1.244 . S
C477 O455 1.259 1_565 S
C477 O456 1.254 1_565 S
O478 Zn448 2.066 . S
O478 C450 1.256 . S
O479 C450 1.244 . S
O479 Zn451 2.053 . S
Zn480 O481 2.055 . S
Zn480 O488 2.046 . S
Zn480 N496 2.036 . S
Zn480 O508 2.053 . S
Zn480 O510 2.066 . S
O481 Zn480 2.055 . S
O481 C484 1.259 . S
C482 O510 1.256 . S
C482 O511 1.244 . S
Zn483 O485 2.046 . S
Zn483 O487 2.055 . S
Zn483 N489 2.036 . S
Zn483 O507 2.066 1_545 S
Zn483 O511 2.053 . S
C484 O481 1.259 . S
C484 O485 1.254 . S
O485 Zn483 2.046 . S
O485 C484 1.254 . S
C486 O507 1.256 . S
C486 O508 1.244 1_565 S
O487 Zn483 2.055 . S
O487 C509 1.259 . S
O488 Zn480 2.046 . S
O488 C509 1.254 . S
N489 Zn483 2.036 . S
N489 C490 1.298 . S
N489 N492 1.398 . S
C490 N489 1.298 . S
C490 N493 1.367 . S
C490 C503 1.481 . S
C491 N492 1.299 . S
C491 N493 1.379 . S
N492 N489 1.398 . S
N492 C491 1.299 . S
N493 C490 1.367 . S
N493 C491 1.379 . S
C494 N496 1.298 . S
C494 N498 1.367 . S
C494 C502 1.481 . S
C495 N497 1.299 . S
C495 N498 1.379 . S
N496 Zn480 2.036 . S
N496 C494 1.298 . S
N496 N497 1.398 . S
N497 C495 1.299 . S
N497 N496 1.398 . S
N498 C494 1.367 . S
N498 C495 1.379 . S
H499 C502 0.980 . S
H500 C502 0.981 . S
H501 C502 0.981 . S
C502 C494 1.481 . S
C502 H499 0.980 . S
C502 H500 0.981 . S
C502 H501 0.981 . S
C503 C490 1.481 . S
C503 H504 0.980 . S
C503 H505 0.981 . S
C503 H506 0.981 . S
H504 C503 0.980 . S
H505 C503 0.981 . S
H506 C503 0.981 . S
O507 Zn483 2.066 1_565 S
O507 C486 1.256 . S
O508 Zn480 2.053 . S
O508 C486 1.244 1_545 S
C509 O487 1.259 . S
C509 O488 1.254 . S
O510 Zn480 2.066 . S
O510 C482 1.256 . S
O511 C482 1.244 . S
O511 Zn483 2.053 . S
Zn512 O513 2.055 . S
Zn512 O520 2.046 . S
Zn512 N528 2.036 . S
Zn512 O540 2.053 . S
Zn512 O542 2.066 1_655 S
O513 Zn512 2.055 . S
O513 C516 1.259 1_545 S
C514 O542 1.256 . S
C514 O543 1.244 . S
Zn515 O517 2.046 1_545 S
Zn515 O519 2.055 . S
Zn515 N521 2.036 . S
Zn515 O539 2.066 . S
Zn515 O543 2.053 1_655 S
C516 O513 1.259 1_565 S
C516 O517 1.254 . S
O517 Zn515 2.046 1_565 S
O517 C516 1.254 . S
C518 O539 1.256 . S
C518 O540 1.244 . S
O519 Zn515 2.055 . S
O519 C541 1.259 . S
O520 Zn512 2.046 . S
O520 C541 1.254 . S
N521 Zn515 2.036 . S
N521 C522 1.298 . S
N521 N524 1.398 . S
C522 N521 1.298 . S
C522 N525 1.367 . S
C522 C535 1.481 . S
C523 N524 1.299 . S
C523 N525 1.379 . S
N524 N521 1.398 . S
N524 C523 1.299 . S
N525 C522 1.367 . S
N525 C523 1.379 . S
C526 N528 1.298 . S
C526 N530 1.367 . S
C526 C534 1.481 . S
C527 N529 1.299 . S
C527 N530 1.379 . S
N528 Zn512 2.036 . S
N528 C526 1.298 . S
N528 N529 1.398 . S
N529 C527 1.299 . S
N529 N528 1.398 . S
N530 C526 1.367 . S
N530 C527 1.379 . S
H531 C534 0.980 . S
H532 C534 0.981 . S
H533 C534 0.981 1_455 S
C534 C526 1.481 . S
C534 H531 0.980 . S
C534 H532 0.981 . S
C534 H533 0.981 1_655 S
C535 C522 1.481 . S
C535 H536 0.980 . S
C535 H537 0.981 . S
C535 H538 0.981 . S
H536 C535 0.980 . S
H537 C535 0.981 . S
H538 C535 0.981 . S
O539 Zn515 2.066 . S
O539 C518 1.256 . S
O540 Zn512 2.053 . S
O540 C518 1.244 . S
C541 O519 1.259 . S
C541 O520 1.254 . S
O542 Zn512 2.066 1_455 S
O542 C514 1.256 . S
O543 C514 1.244 . S
O543 Zn515 2.053 1_455 S
Zn544 O545 2.055 . S
Zn544 O552 2.046 1_655 S
Zn544 N560 2.036 . S
Zn544 O572 2.053 . S
Zn544 O574 2.066 . S
O545 Zn544 2.055 . S
O545 C548 1.259 . S
C546 O574 1.256 . S
C546 O575 1.244 . S
Zn547 O549 2.046 . S
Zn547 O551 2.055 1_655 S
Zn547 N553 2.036 . S
Zn547 O571 2.066 . S
Zn547 O575 2.053 . S
C548 O545 1.259 . S
C548 O549 1.254 . S
O549 Zn547 2.046 . S
O549 C548 1.254 . S
C550 O571 1.256 . S
C550 O572 1.244 . S
O551 Zn547 2.055 1_455 S
O551 C573 1.259 . S
O552 Zn544 2.046 1_455 S
O552 C573 1.254 . S
N553 Zn547 2.036 . S
N553 C554 1.298 . S
N553 N556 1.398 . S
C554 N553 1.298 . S
C554 N557 1.367 . S
C554 C567 1.481 . S
C555 N556 1.299 . S
C555 N557 1.379 . S
N556 N553 1.398 . S
N556 C555 1.299 . S
N557 C554 1.367 . S
N557 C555 1.379 . S
C558 N560 1.298 . S
C558 N562 1.367 . S
C558 C566 1.481 . S
C559 N561 1.299 . S
C559 N562 1.379 . S
N560 Zn544 2.036 . S
N560 C558 1.298 . S
N560 N561 1.398 . S
N561 C559 1.299 . S
N561 N560 1.398 . S
N562 C558 1.367 . S
N562 C559 1.379 . S
H563 C566 0.980 . S
H564 C566 0.981 . S
H565 C566 0.981 . S
C566 C558 1.481 . S
C566 H563 0.980 . S
C566 H564 0.981 . S
C566 H565 0.981 . S
C567 C554 1.481 . S
C567 H568 0.980 1_655 S
C567 H569 0.981 1_655 S
C567 H570 0.981 . S
H568 C567 0.980 1_455 S
H569 C567 0.981 1_455 S
H570 C567 0.981 . S
O571 Zn547 2.066 . S
O571 C550 1.256 . S
O572 Zn544 2.053 . S
O572 C550 1.244 . S
C573 O551 1.259 . S
C573 O552 1.254 . S
O574 Zn544 2.066 . S
O574 C546 1.256 . S
O575 C546 1.244 . S
O575 Zn547 2.053 . S
C29 C66 0.937 . S
C6 C61 0.935 . S
C38 C68 0.934 . S
C100 C130 0.937 . S
C166 C132 0.934 . S
C189 C98 0.936 . S
C262 C196 0.934 . S
C194 C253 0.934 . S
C285 C230 0.934 . S
C322 C292 0.935 . S
C324 C358 0.933 . S
C290 C381 0.935 . S
C413 C450 0.936 . S
C390 C445 0.935 . S
C422 C452 0.934 . S
C514 C509 0.934 . S
C550 C516 0.934 . S
C486 C573 0.934 . S
N18 N178 1.449 1_544 S
N109 N50 1.449 1_456 S
N141 N77 1.447 1_556 S
N205 N370 1.448 . S
N242 N301 1.448 . S
N333 N274 1.448 . S
N402 N562 1.448 . S
N498 N434 1.448 . S
N525 N461 1.448 . S
N338 N13 1.803 . S
N45 N365 1.802 . S
N306 N82 1.801 . S
N114 N466 1.803 . S
N146 N397 1.801 . S
N429 N173 1.802 . S
N530 N210 1.802 1_655 S
N237 N557 1.803 . S
N269 N493 1.802 1_565 S
C93 C2 1.622 . S
C4 C34 1.623 . S
C70 C36 1.625 . S
C157 C102 1.622 . S
C164 C134 1.625 . S
C162 C125 1.623 . S
C260 C198 1.625 . S
C226 C221 1.624 . S
C228 C258 1.625 . S
C294 C349 1.624 . S
C326 C356 1.626 . S
C317 C354 1.624 . S
C386 C477 1.624 . S
C418 C388 1.624 . S
C420 C454 1.625 . S
C482 C541 1.625 . S
C518 C548 1.625 . S
C484 C546 1.624 . S
