# Generated by pormake.
# Topology fci, (5)-cn, num edge types: 1
# Building blocks:
#     Node 0, Type 0, BuildingBlock: BEQFEK_clean_sbu_0, # of connection points: 5
#     Node 1, Type 0, BuildingBlock: BEQFEK_clean_sbu_0, # of connection points: 5
#     Node 2, Type 0, BuildingBlock: BEQFEK_clean_sbu_0, # of connection points: 5
#     Node 3, Type 0, BuildingBlock: BEQFEK_clean_sbu_0, # of connection points: 5
#     Node 4, Type 0, BuildingBlock: BEQFEK_clean_sbu_0, # of connection points: 5
#     Node 5, Type 0, BuildingBlock: BEQFEK_clean_sbu_0, # of connection points: 5
#     Node 6, Type 0, BuildingBlock: BEQFEK_clean_sbu_0, # of connection points: 5
#     Node 7, Type 0, BuildingBlock: BEQFEK_clean_sbu_0, # of connection points: 5
#     Node 8, Type 0, BuildingBlock: BEQFEK_clean_sbu_0, # of connection points: 5
#     Node 9, Type 0, BuildingBlock: BEQFEK_clean_sbu_0, # of connection points: 5
#     Node 10, Type 0, BuildingBlock: BEQFEK_clean_sbu_0, # of connection points: 5
#     Node 11, Type 0, BuildingBlock: BEQFEK_clean_sbu_0, # of connection points: 5
#     Node 12, Type 0, BuildingBlock: BEQFEK_clean_sbu_0, # of connection points: 5
#     Node 13, Type 0, BuildingBlock: BEQFEK_clean_sbu_0, # of connection points: 5
#     Node 14, Type 0, BuildingBlock: BEQFEK_clean_sbu_0, # of connection points: 5
#     Node 15, Type 0, BuildingBlock: BEQFEK_clean_sbu_0, # of connection points: 5
#     Node 16, Type 0, BuildingBlock: BEQFEK_clean_sbu_0, # of connection points: 5
#     Node 17, Type 0, BuildingBlock: BEQFEK_clean_sbu_0, # of connection points: 5
#     Node 18, Type 0, BuildingBlock: BEQFEK_clean_sbu_0, # of connection points: 5
#     Node 19, Type 0, BuildingBlock: BEQFEK_clean_sbu_0, # of connection points: 5
#     Node 20, Type 0, BuildingBlock: BEQFEK_clean_sbu_0, # of connection points: 5
#     Node 21, Type 0, BuildingBlock: BEQFEK_clean_sbu_0, # of connection points: 5
#     Node 22, Type 0, BuildingBlock: BEQFEK_clean_sbu_0, # of connection points: 5
#     Node 23, Type 0, BuildingBlock: BEQFEK_clean_sbu_0, # of connection points: 5
#     Edge 24, Type (0, 0), BuildingBlock: OJICUG_clean_linker_0, # of connection points: 2
#     Edge 25, Type (0, 0), BuildingBlock: OJICUG_clean_linker_0, # of connection points: 2
#     Edge 26, Type (0, 0), BuildingBlock: OJICUG_clean_linker_0, # of connection points: 2
#     Edge 27, Type (0, 0), BuildingBlock: OJICUG_clean_linker_0, # of connection points: 2
#     Edge 28, Type (0, 0), BuildingBlock: OJICUG_clean_linker_0, # of connection points: 2
#     Edge 29, Type (0, 0), BuildingBlock: OJICUG_clean_linker_0, # of connection points: 2
#     Edge 30, Type (0, 0), BuildingBlock: OJICUG_clean_linker_0, # of connection points: 2
#     Edge 31, Type (0, 0), BuildingBlock: OJICUG_clean_linker_0, # of connection points: 2
#     Edge 32, Type (0, 0), BuildingBlock: OJICUG_clean_linker_0, # of connection points: 2
#     Edge 33, Type (0, 0), BuildingBlock: OJICUG_clean_linker_0, # of connection points: 2
#     Edge 34, Type (0, 0), BuildingBlock: OJICUG_clean_linker_0, # of connection points: 2
#     Edge 35, Type (0, 0), BuildingBlock: OJICUG_clean_linker_0, # of connection points: 2
#     Edge 36, Type (0, 0), BuildingBlock: OJICUG_clean_linker_0, # of connection points: 2
#     Edge 37, Type (0, 0), BuildingBlock: OJICUG_clean_linker_0, # of connection points: 2
#     Edge 38, Type (0, 0), BuildingBlock: OJICUG_clean_linker_0, # of connection points: 2
#     Edge 39, Type (0, 0), BuildingBlock: OJICUG_clean_linker_0, # of connection points: 2
#     Edge 40, Type (0, 0), BuildingBlock: OJICUG_clean_linker_0, # of connection points: 2
#     Edge 41, Type (0, 0), BuildingBlock: OJICUG_clean_linker_0, # of connection points: 2
#     Edge 42, Type (0, 0), BuildingBlock: OJICUG_clean_linker_0, # of connection points: 2
#     Edge 43, Type (0, 0), BuildingBlock: OJICUG_clean_linker_0, # of connection points: 2
#     Edge 44, Type (0, 0), BuildingBlock: OJICUG_clean_linker_0, # of connection points: 2
#     Edge 45, Type (0, 0), BuildingBlock: OJICUG_clean_linker_0, # of connection points: 2
#     Edge 46, Type (0, 0), BuildingBlock: OJICUG_clean_linker_0, # of connection points: 2
#     Edge 47, Type (0, 0), BuildingBlock: OJICUG_clean_linker_0, # of connection points: 2
#     Edge 48, Type (0, 0), BuildingBlock: OJICUG_clean_linker_0, # of connection points: 2
#     Edge 49, Type (0, 0), BuildingBlock: OJICUG_clean_linker_0, # of connection points: 2
#     Edge 50, Type (0, 0), BuildingBlock: OJICUG_clean_linker_0, # of connection points: 2
#     Edge 51, Type (0, 0), BuildingBlock: OJICUG_clean_linker_0, # of connection points: 2
#     Edge 52, Type (0, 0), BuildingBlock: OJICUG_clean_linker_0, # of connection points: 2
#     Edge 53, Type (0, 0), BuildingBlock: OJICUG_clean_linker_0, # of connection points: 2
#     Edge 54, Type (0, 0), BuildingBlock: OJICUG_clean_linker_0, # of connection points: 2
#     Edge 55, Type (0, 0), BuildingBlock: OJICUG_clean_linker_0, # of connection points: 2
#     Edge 56, Type (0, 0), BuildingBlock: OJICUG_clean_linker_0, # of connection points: 2
#     Edge 57, Type (0, 0), BuildingBlock: OJICUG_clean_linker_0, # of connection points: 2
#     Edge 58, Type (0, 0), BuildingBlock: OJICUG_clean_linker_0, # of connection points: 2
#     Edge 59, Type (0, 0), BuildingBlock: OJICUG_clean_linker_0, # of connection points: 2
#     Edge 60, Type (0, 0), BuildingBlock: OJICUG_clean_linker_0, # of connection points: 2
#     Edge 61, Type (0, 0), BuildingBlock: OJICUG_clean_linker_0, # of connection points: 2
#     Edge 62, Type (0, 0), BuildingBlock: OJICUG_clean_linker_0, # of connection points: 2
#     Edge 63, Type (0, 0), BuildingBlock: OJICUG_clean_linker_0, # of connection points: 2
#     Edge 64, Type (0, 0), BuildingBlock: OJICUG_clean_linker_0, # of connection points: 2
#     Edge 65, Type (0, 0), BuildingBlock: OJICUG_clean_linker_0, # of connection points: 2
#     Edge 66, Type (0, 0), BuildingBlock: OJICUG_clean_linker_0, # of connection points: 2
#     Edge 67, Type (0, 0), BuildingBlock: OJICUG_clean_linker_0, # of connection points: 2
#     Edge 68, Type (0, 0), BuildingBlock: OJICUG_clean_linker_0, # of connection points: 2
#     Edge 69, Type (0, 0), BuildingBlock: OJICUG_clean_linker_0, # of connection points: 2
#     Edge 70, Type (0, 0), BuildingBlock: OJICUG_clean_linker_0, # of connection points: 2
#     Edge 71, Type (0, 0), BuildingBlock: OJICUG_clean_linker_0, # of connection points: 2
#     Edge 72, Type (0, 0), BuildingBlock: OJICUG_clean_linker_0, # of connection points: 2
#     Edge 73, Type (0, 0), BuildingBlock: OJICUG_clean_linker_0, # of connection points: 2
#     Edge 74, Type (0, 0), BuildingBlock: OJICUG_clean_linker_0, # of connection points: 2
#     Edge 75, Type (0, 0), BuildingBlock: OJICUG_clean_linker_0, # of connection points: 2
#     Edge 76, Type (0, 0), BuildingBlock: OJICUG_clean_linker_0, # of connection points: 2
#     Edge 77, Type (0, 0), BuildingBlock: OJICUG_clean_linker_0, # of connection points: 2
#     Edge 78, Type (0, 0), BuildingBlock: OJICUG_clean_linker_0, # of connection points: 2
#     Edge 79, Type (0, 0), BuildingBlock: OJICUG_clean_linker_0, # of connection points: 2
#     Edge 80, Type (0, 0), BuildingBlock: OJICUG_clean_linker_0, # of connection points: 2
#     Edge 81, Type (0, 0), BuildingBlock: OJICUG_clean_linker_0, # of connection points: 2
#     Edge 82, Type (0, 0), BuildingBlock: OJICUG_clean_linker_0, # of connection points: 2
#     Edge 83, Type (0, 0), BuildingBlock: OJICUG_clean_linker_0, # of connection points: 2
# Relax obj value: 0.902
# Max RMSD: 0.349
# Mean RMSD: 0.317
data_MOF--net-fci--node1-BEQFEK_clean_sbu_0--edge1-OJICUG_clean_linker_0
_symmetry_space_group_name_H-M    P1
_symmetry_Int_Tables_number       1
_symmetry_cell_setting            triclinic
loop_
_symmetry_equiv_pos_as_xyz
'x, y, z'
_cell_length_a     42.293616
_cell_length_b     42.294644
_cell_length_c     42.290123
_cell_angle_alpha  89.263706
_cell_angle_beta   89.247783
_cell_angle_gamma 89.270518
loop_
_atom_site_label
_atom_site_type_symbol
_atom_site_fract_x
_atom_site_fract_y
_atom_site_fract_z
_atom_type_partial_charge
Co0 Co 0.16253 0.19169 0.58036 0.0
Co1 Co 0.21964 0.16358 0.54116 0.0
C2 C 0.19041 0.12929 0.59727 0.0
O3 O 0.17185 0.15242 0.60207 0.0
O4 O 0.20956 0.12907 0.57375 0.0
C5 C 0.11239 0.19693 0.62505 0.0
O6 O 0.1118 0.16618 0.62129 0.0
C7 C 0.28768 0.15725 0.54055 0.0
C8 C 0.29938 0.15357 0.48985 0.0
C9 C 0.31294 0.15847 0.51917 0.0
N10 N 0.26078 0.15335 0.52449 0.0
N11 N 0.26805 0.14983 0.49429 0.0
C12 C 0.28824 0.16472 0.57509 0.0
H13 H 0.2994 0.18795 0.57885 0.0
H14 H 0.3026 0.14649 0.58763 0.0
H15 H 0.26402 0.16486 0.58546 0.0
C16 C 0.20588 0.24475 0.5871 0.0
N17 N 0.19934 0.21551 0.57715 0.0
N18 N 0.22191 0.20559 0.55793 0.0
C19 C 0.24241 0.22947 0.55304 0.0
C20 C 0.2334 0.25478 0.57194 0.0
C21 C 0.18647 0.26196 0.61141 0.0
H22 H 0.16654 0.27446 0.59961 0.0
H23 H 0.17656 0.24492 0.62892 0.0
H24 H 0.20081 0.27942 0.62408 0.0
O25 O 0.14617 0.18419 0.53709 0.0
O26 O 0.18666 0.16575 0.50777 0.0
H27 H 0.26779 0.25499 0.51657 0.0
H28 H 0.29005 0.22429 0.53574 0.0
C29 C 0.26637 0.23067 0.52665 0.0
H30 H 0.26005 0.21424 0.50762 0.0
H31 H 0.25142 0.14796 0.47641 0.0
O32 O 0.13069 0.21344 0.60756 0.0
C33 C 0.15781 0.17474 0.51075 0.0
Co34 Co 0.54872 0.42352 0.32725 0.0
Co35 Co 0.57392 0.48267 0.28988 0.0
C36 C 0.61038 0.44928 0.34285 0.0
O37 O 0.58781 0.43071 0.34888 0.0
O38 O 0.60916 0.46907 0.31989 0.0
C39 C 0.54016 0.36809 0.36553 0.0
O40 O 0.57003 0.36228 0.35893 0.0
C41 C 0.58031 0.54798 0.303 0.0
C42 C 0.57189 0.5722 0.25755 0.0
C43 C 0.57276 0.57742 0.28995 0.0
N44 N 0.58189 0.5264 0.27992 0.0
N45 N 0.57814 0.54124 0.25253 0.0
C46 C 0.58397 0.53974 0.33735 0.0
H47 H 0.56381 0.52515 0.34563 0.0
H48 H 0.58553 0.56124 0.35198 0.0
H49 H 0.60588 0.52549 0.34058 0.0
C50 C 0.49445 0.4653 0.33861 0.0
N51 N 0.52385 0.45986 0.32728 0.0
N52 N 0.53233 0.48318 0.30841 0.0
C53 C 0.50746 0.5033 0.30537 0.0
C54 C 0.48299 0.49297 0.32488 0.0
C55 C 0.47824 0.4447 0.36269 0.0
H56 H 0.46766 0.42428 0.35067 0.0
H57 H 0.49567 0.43562 0.38001 0.0
H58 H 0.45935 0.45781 0.37563 0.0
O59 O 0.5564 0.41057 0.2827 0.0
O60 O 0.57195 0.45251 0.25372 0.0
H61 H 0.51952 0.52183 0.25933 0.0
H62 H 0.47961 0.53066 0.27239 0.0
C63 C 0.50453 0.52812 0.28004 0.0
H64 H 0.5118 0.55116 0.28926 0.0
H65 H 0.5763 0.52988 0.23089 0.0
O66 O 0.52627 0.39136 0.35231 0.0
C67 C 0.56443 0.42331 0.25625 0.0
Co68 Co 0.33639 0.80674 0.07742 0.0
Co69 Co 0.28318 0.82862 0.03079 0.0
C70 C 0.31349 0.87347 0.07581 0.0
O71 O 0.33179 0.85156 0.08533 0.0
O72 O 0.29283 0.8687 0.05481 0.0
C73 C 0.3673 0.80221 0.13576 0.0
O74 O 0.35133 0.82862 0.14032 0.0
C75 C 0.21524 0.83344 0.02659 0.0
C76 C 0.20711 0.82815 0.97568 0.0
C77 C 0.19163 0.82736 0.00495 0.0
N78 N 0.24311 0.83583 0.01103 0.0
N79 N 0.23789 0.83407 0.98042 0.0
C80 C 0.21238 0.83203 0.06194 0.0
H81 H 0.20318 0.80874 0.06984 0.0
H82 H 0.19535 0.85048 0.07 0.0
H83 H 0.2355 0.83632 0.07308 0.0
C84 C 0.2904 0.75914 0.09537 0.0
N85 N 0.29765 0.78642 0.08047 0.0
N86 N 0.27783 0.79172 0.0573 0.0
C87 C 0.2586 0.76656 0.05533 0.0
C88 C 0.26554 0.74542 0.07974 0.0
C89 C 0.30771 0.74619 0.12344 0.0
H90 H 0.33 0.73454 0.1154 0.0
H91 H 0.31365 0.76573 0.13943 0.0
H92 H 0.29322 0.72882 0.13689 0.0
O93 O 0.35325 0.79896 0.03449 0.0
O94 O 0.31799 0.8174 0.99967 0.0
H95 H 0.24674 0.77341 0.00626 0.0
H96 H 0.24055 0.73394 0.02151 0.0
C97 C 0.23888 0.75946 0.02719 0.0
H98 H 0.21377 0.76496 0.03268 0.0
H99 H 0.25568 0.83355 0.9631 0.0
O100 O 0.3653 0.78845 0.10934 0.0
C101 C 0.34448 0.80393 0.00607 0.0
Co102 Co 0.95267 0.57874 0.82232 0.0
Co103 Co 0.92588 0.52474 0.78096 0.0
C104 C 0.8888 0.55338 0.83533 0.0
O105 O 0.91159 0.57128 0.84145 0.0
O106 O 0.88993 0.53487 0.81181 0.0
C107 C 0.9578 0.62821 0.86631 0.0
O108 O 0.92699 0.62953 0.86305 0.0
C109 C 0.91787 0.4574 0.7824 0.0
C110 C 0.91837 0.44449 0.73216 0.0
C111 C 0.92029 0.43152 0.76252 0.0
N112 N 0.91602 0.48401 0.76469 0.0
N113 N 0.91503 0.47611 0.73464 0.0
C114 C 0.9228 0.4574 0.81744 0.0
H115 H 0.92248 0.4818 0.8267 0.0
H116 H 0.94559 0.44561 0.82336 0.0
H117 H 0.9036 0.44395 0.82934 0.0
C118 C 0.00371 0.53282 0.83305 0.0
N119 N 0.97541 0.54095 0.82114 0.0
N120 N 0.96662 0.51973 0.80074 0.0
C121 C 0.99037 0.49826 0.79748 0.0
C122 C 0.01434 0.50549 0.81827 0.0
C123 C 0.01964 0.55084 0.85846 0.0
H124 H 0.03319 0.57053 0.8475 0.0
H125 H 0.00169 0.56105 0.87488 0.0
H126 H 0.03601 0.53541 0.87216 0.0
O127 O 0.951 0.59545 0.77851 0.0
O128 O 0.93091 0.55875 0.74731 0.0
H129 H 0.97787 0.48201 0.75128 0.0
H130 H 0.01768 0.47211 0.7631 0.0
C131 C 0.99279 0.47464 0.77146 0.0
H132 H 0.98521 0.45121 0.78048 0.0
H133 H 0.91521 0.49231 0.71582 0.0
O134 O 0.97406 0.60915 0.84951 0.0
C135 C 0.94282 0.58608 0.75127 0.0
Co136 Co 0.66037 0.31104 0.42009 0.0
Co137 Co 0.72044 0.33133 0.45837 0.0
C138 C 0.68513 0.37625 0.41474 0.0
O139 O 0.66581 0.35485 0.40811 0.0
O140 O 0.70751 0.37129 0.43414 0.0
C141 C 0.62132 0.30679 0.36673 0.0
O142 O 0.63489 0.33387 0.3602 0.0
C143 C 0.78707 0.33647 0.44753 0.0
C144 C 0.8079 0.32449 0.49358 0.0
C145 C 0.81547 0.32763 0.46158 0.0
N146 N 0.76392 0.33674 0.46966 0.0
N147 N 0.77672 0.33076 0.49744 0.0
C148 C 0.78134 0.343 0.41315 0.0
H149 H 0.77011 0.32233 0.40228 0.0
H150 H 0.80379 0.34828 0.40036 0.0
H151 H 0.76482 0.3634 0.41053 0.0
C152 C 0.70363 0.2609 0.39913 0.0
N153 N 0.69787 0.28833 0.41404 0.0
N154 N 0.72084 0.29382 0.43372 0.0
C155 C 0.74073 0.26865 0.43383 0.0
C156 C 0.73105 0.24752 0.41128 0.0
C157 C 0.68293 0.24774 0.3742 0.0
H158 H 0.66217 0.23634 0.38564 0.0
H159 H 0.67438 0.26712 0.35852 0.0
H160 H 0.69582 0.23006 0.35959 0.0
O161 O 0.64885 0.30817 0.46569 0.0
O162 O 0.69041 0.32253 0.49445 0.0
H163 H 0.75661 0.27385 0.48159 0.0
H164 H 0.7639 0.23532 0.46506 0.0
C165 C 0.76346 0.2611 0.45979 0.0
H166 H 0.78758 0.26778 0.45234 0.0
H167 H 0.76381 0.32771 0.51843 0.0
O168 O 0.62744 0.29275 0.39277 0.0
C169 C 0.66198 0.31277 0.49227 0.0
Co170 Co 0.43925 0.91131 0.17265 0.0
Co171 Co 0.41749 0.97514 0.20418 0.0
C172 C 0.3812 0.94431 0.15153 0.0
O173 O 0.40208 0.92281 0.14895 0.0
O174 O 0.38277 0.96533 0.17277 0.0
C175 C 0.44316 0.85826 0.13214 0.0
O176 O 0.41235 0.86225 0.13136 0.0
C177 C 0.41753 0.04205 0.19105 0.0
C178 C 0.41926 0.06388 0.23795 0.0
C179 C 0.42271 0.07069 0.20584 0.0
N180 N 0.41274 0.01944 0.21322 0.0
N181 N 0.41275 0.03283 0.24127 0.0
C182 C 0.41873 0.03556 0.1563 0.0
H183 H 0.44159 0.024 0.15003 0.0
H184 H 0.41591 0.05771 0.1422 0.0
H185 H 0.39966 0.01911 0.15014 0.0
C186 C 0.49768 0.94655 0.16164 0.0
N187 N 0.46741 0.94478 0.17164 0.0
N188 N 0.45971 0.97026 0.18757 0.0
C189 C 0.48576 0.98813 0.19009 0.0
C190 C 0.51039 0.97412 0.17315 0.0
C191 C 0.51358 0.92254 0.14092 0.0
H192 H 0.52142 0.90211 0.15568 0.0
H193 H 0.49665 0.91394 0.12326 0.0
H194 H 0.53437 0.93255 0.12826 0.0
O195 O 0.42841 0.90118 0.21742 0.0
O196 O 0.41499 0.94607 0.24208 0.0
H197 H 0.47265 0.01152 0.23323 0.0
H198 H 0.51357 0.01592 0.22153 0.0
C199 C 0.48898 0.01472 0.21279 0.0
H200 H 0.48353 0.03738 0.20068 0.0
H201 H 0.41103 0.02042 0.26269 0.0
O202 O 0.45911 0.87482 0.15092 0.0
C203 C 0.42011 0.91616 0.24231 0.0
Co204 Co 0.83997 0.68778 0.91409 0.0
Co205 Co 0.78638 0.6653 0.96101 0.0
C206 C 0.81707 0.62181 0.91339 0.0
O207 O 0.83516 0.64377 0.90433 0.0
O208 O 0.79663 0.62588 0.93543 0.0
C209 C 0.87651 0.69214 0.85745 0.0
O210 O 0.8658 0.66349 0.85345 0.0
C211 C 0.71832 0.66184 0.96553 0.0
C212 C 0.70919 0.66619 0.01661 0.0
C213 C 0.69429 0.66807 0.98746 0.0
N214 N 0.7459 0.65834 0.98085 0.0
N215 N 0.74006 0.65955 0.01153 0.0
C216 C 0.71613 0.6642 0.93023 0.0
H217 H 0.70706 0.6879 0.92299 0.0
H218 H 0.69926 0.64639 0.92183 0.0
H219 H 0.73946 0.65961 0.91881 0.0
C220 C 0.79375 0.73642 0.89827 0.0
N221 N 0.8012 0.70871 0.91236 0.0
N222 N 0.78116 0.70296 0.93563 0.0
C223 C 0.76156 0.72823 0.93857 0.0
C224 C 0.76843 0.74986 0.9146 0.0
C225 C 0.81152 0.75006 0.87057 0.0
H226 H 0.83285 0.76218 0.87906 0.0
H227 H 0.8192 0.73087 0.85447 0.0
H228 H 0.79667 0.76727 0.8572 0.0
O229 O 0.85603 0.69383 0.95705 0.0
O230 O 0.82058 0.67543 0.99212 0.0
H231 H 0.7495 0.72033 0.98773 0.0
H232 H 0.74321 0.7603 0.97366 0.0
C233 C 0.74168 0.73497 0.96733 0.0
H234 H 0.71662 0.73019 0.9622 0.0
H235 H 0.75751 0.65924 0.02875 0.0
O236 O 0.86931 0.70681 0.88263 0.0
C237 C 0.84701 0.6886 0.98553 0.0
Co238 Co 0.04679 0.0868 0.67366 0.0
Co239 Co 0.06673 0.02644 0.71377 0.0
C240 C 0.11273 0.06188 0.67143 0.0
O241 O 0.09149 0.0817 0.66362 0.0
O242 O 0.10705 0.0393 0.69077 0.0
C243 C 0.04267 0.12529 0.61899 0.0
O244 O 0.0697 0.11081 0.61306 0.0
C245 C 0.0748 0.96053 0.70188 0.0
C246 C 0.06163 0.93692 0.74667 0.0
C247 C 0.06672 0.93124 0.71465 0.0
N248 N 0.07296 0.98245 0.72465 0.0
N249 N 0.06624 0.96799 0.75174 0.0
C250 C 0.08228 0.96817 0.66791 0.0
H251 H 0.06181 0.98035 0.65682 0.0
H252 H 0.08821 0.94643 0.65452 0.0
H253 H 0.10261 0.9844 0.66641 0.0
C254 C 0.99739 0.04494 0.65266 0.0
N255 N 0.02499 0.04955 0.66729 0.0
N256 N 0.02996 0.02652 0.68786 0.0
C257 C 0.00439 0.00768 0.68851 0.0
C258 C 0.9835 0.01835 0.66575 0.0
C259 C 0.98234 0.06805 0.6302 0.0
H260 H 0.97521 0.08964 0.64324 0.0
H261 H 0.99964 0.07471 0.61144 0.0
H262 H 0.96105 0.05818 0.61911 0.0
O263 O 0.04022 0.09707 0.71869 0.0
O264 O 0.05599 0.05635 0.74939 0.0
H265 H 0.00953 0.98935 0.73577 0.0
H266 H 0.97201 0.98107 0.71822 0.0
C267 C 0.99773 0.98321 0.7135 0.0
H268 H 0.0064 0.95992 0.7054 0.0
H269 H 0.06163 0.97965 0.77293 0.0
O270 O 0.02873 0.1201 0.64533 0.0
C271 C 0.04414 0.08426 0.74592 0.0
Co272 Co 0.57904 0.17219 0.19383 0.0
Co273 Co 0.53999 0.23117 0.16991 0.0
C274 C 0.59508 0.202 0.13289 0.0
O275 O 0.60142 0.18298 0.1553 0.0
O276 O 0.57095 0.22032 0.13413 0.0
C277 C 0.62189 0.12029 0.19853 0.0
O278 O 0.61986 0.12088 0.16755 0.0
C279 C 0.54946 0.29781 0.16385 0.0
C280 C 0.50217 0.31894 0.17099 0.0
C281 C 0.53413 0.32637 0.17027 0.0
N282 N 0.52795 0.2747 0.16259 0.0
N283 N 0.49952 0.28767 0.16566 0.0
C284 C 0.58437 0.29189 0.16079 0.0
H285 H 0.59298 0.27886 0.18198 0.0
H286 H 0.59746 0.31433 0.15777 0.0
H287 H 0.58934 0.27695 0.13994 0.0
C288 C 0.58853 0.21261 0.24868 0.0
N289 N 0.57709 0.20723 0.21973 0.0
N290 N 0.55793 0.23043 0.2114 0.0
C291 C 0.55471 0.25025 0.23601 0.0
C292 C 0.5746 0.24015 0.26005 0.0
C293 C 0.61326 0.19235 0.26424 0.0
H294 H 0.60165 0.17222 0.27659 0.0
H295 H 0.62989 0.18273 0.24617 0.0
H296 H 0.62681 0.20589 0.28166 0.0
O297 O 0.53531 0.15811 0.18524 0.0
O298 O 0.50497 0.19965 0.17121 0.0
H299 H 0.5217 0.27741 0.26421 0.0
H300 H 0.53818 0.29799 0.23087 0.0
C301 C 0.5292 0.27489 0.2391 0.0
H302 H 0.50846 0.26843 0.22495 0.0
H303 H 0.47863 0.27485 0.16733 0.0
O304 O 0.60411 0.13852 0.21473 0.0
C305 C 0.50856 0.17014 0.17758 0.0
Co306 Co 0.58604 0.83055 0.96172 0.0
Co307 Co 0.53628 0.78585 0.93287 0.0
C308 C 0.56523 0.84033 0.89576 0.0
O309 O 0.58055 0.84851 0.91971 0.0
O310 O 0.54817 0.8157 0.89647 0.0
C311 C 0.6335 0.87552 0.96805 0.0
O312 O 0.63816 0.86881 0.93813 0.0
C313 C 0.46971 0.78441 0.92154 0.0
C314 C 0.45876 0.73371 0.92222 0.0
C315 C 0.44456 0.76358 0.92331 0.0
N316 N 0.497 0.76774 0.92091 0.0
N317 N 0.49033 0.73737 0.91998 0.0
C318 C 0.46823 0.8195 0.92614 0.0
H319 H 0.49222 0.82974 0.92582 0.0
H320 H 0.45611 0.82511 0.94885 0.0
H321 H 0.45442 0.83067 0.90679 0.0
C322 C 0.53774 0.839 0.01059 0.0
N323 N 0.54729 0.82794 0.98236 0.0
N324 N 0.52775 0.80624 0.97286 0.0
C325 C 0.5059 0.80147 0.99603 0.0
C326 C 0.51125 0.82237 0.02043 0.0
C327 C 0.55406 0.86487 0.0276 0.0
H328 H 0.57436 0.85467 0.04079 0.0
H329 H 0.56322 0.88256 0.01032 0.0
H330 H 0.53776 0.87694 0.04444 0.0
O331 O 0.60506 0.78755 0.96196 0.0
O332 O 0.57112 0.75389 0.94104 0.0
H333 H 0.49266 0.75456 0.98262 0.0
H334 H 0.48114 0.76533 0.02234 0.0
C335 C 0.48382 0.77412 0.99761 0.0
H336 H 0.46018 0.78201 0.98957 0.0
H337 H 0.50721 0.71919 0.9211 0.0
O338 O 0.61337 0.85985 0.98408 0.0
C339 C 0.59751 0.75957 0.95421 0.0
Co340 Co 0.91625 0.83229 0.68359 0.0
Co341 Co 0.95574 0.77484 0.65757 0.0
C342 C 0.90148 0.80572 0.62158 0.0
O343 O 0.89581 0.82443 0.64409 0.0
O344 O 0.9247 0.78618 0.6224 0.0
C345 C 0.87273 0.88358 0.69076 0.0
O346 O 0.87379 0.88425 0.6597 0.0
C347 C 0.95364 0.70673 0.65394 0.0
C348 C 0.00394 0.69295 0.65176 0.0
C349 C 0.9739 0.68071 0.65713 0.0
N350 N 0.97097 0.73285 0.64876 0.0
N351 N 0.00098 0.72426 0.64609 0.0
C352 C 0.91876 0.70772 0.66071 0.0
H353 H 0.91354 0.69792 0.68464 0.0
H354 H 0.90656 0.69287 0.64335 0.0
H355 H 0.90927 0.73222 0.65877 0.0
C356 C 0.90512 0.78849 0.73665 0.0
N357 N 0.91714 0.7953 0.70781 0.0
N358 N 0.93675 0.77268 0.69898 0.0
C359 C 0.93974 0.75183 0.72322 0.0
C360 C 0.91914 0.76063 0.7474 0.0
C361 C 0.88024 0.80806 0.75295 0.0
H362 H 0.89171 0.82769 0.76544 0.0
H363 H 0.86377 0.81841 0.73532 0.0
H364 H 0.86654 0.79375 0.77037 0.0
O365 O 0.96006 0.84724 0.67751 0.0
O366 O 0.99027 0.80686 0.66077 0.0
H367 H 0.97472 0.72691 0.7507 0.0
H368 H 0.95657 0.70391 0.7211 0.0
C369 C 0.96577 0.72766 0.72613 0.0
H370 H 0.98562 0.73324 0.70974 0.0
H371 H 0.01963 0.74006 0.64365 0.0
O372 O 0.89069 0.86449 0.70574 0.0
C373 C 0.98691 0.83559 0.66947 0.0
Co374 Co 0.90693 0.16674 0.44331 0.0
Co375 Co 0.96767 0.20085 0.4174 0.0
C376 C 0.9358 0.14787 0.38239 0.0
O377 O 0.91614 0.14404 0.40484 0.0
O378 O 0.95605 0.16992 0.38279 0.0
C379 C 0.85325 0.12773 0.44819 0.0
O380 O 0.85362 0.13144 0.41731 0.0
C381 C 0.03431 0.18861 0.41391 0.0
C382 C 0.05563 0.23556 0.4176 0.0
C383 C 0.06279 0.20341 0.41987 0.0
N384 N 0.01147 0.21071 0.41012 0.0
N385 N 0.02458 0.23884 0.41112 0.0
C386 C 0.02813 0.1538 0.4136 0.0
H387 H 0.01569 0.14659 0.43572 0.0
H388 H 0.05048 0.13998 0.41108 0.0
H389 H 0.01251 0.14829 0.39363 0.0
C390 C 0.94755 0.15519 0.49849 0.0
N391 N 0.9425 0.16591 0.46883 0.0
N392 N 0.96618 0.18368 0.45957 0.0
C393 C 0.98577 0.18708 0.48415 0.0
C394 C 0.97532 0.16831 0.50922 0.0
C395 C 0.92638 0.13244 0.51564 0.0
H396 H 0.91534 0.11633 0.49861 0.0
H397 H 0.93969 0.11818 0.53331 0.0
H398 H 0.90731 0.14587 0.52801 0.0
O399 O 0.89498 0.21182 0.43474 0.0
O400 O 0.93798 0.23798 0.41806 0.0
H401 H 0.01094 0.22137 0.51102 0.0
H402 H 0.03329 0.20353 0.47977 0.0
C403 C 0.00965 0.21275 0.48638 0.0
H404 H 0.00328 0.23284 0.47055 0.0
H405 H 0.01191 0.26018 0.41062 0.0
O406 O 0.87237 0.14341 0.46461 0.0
C407 C 0.90866 0.2373 0.4259 0.0
Co408 Co 0.07555 0.32415 0.80412 0.0
Co409 Co 0.02968 0.27137 0.82834 0.0
C410 C 0.07665 0.30211 0.87105 0.0
O411 O 0.08582 0.31973 0.84846 0.0
O412 O 0.05483 0.28203 0.86747 0.0
C413 C 0.13184 0.35923 0.79781 0.0
O414 O 0.13702 0.34699 0.82598 0.0
C415 C 0.02666 0.20378 0.83653 0.0
C416 C 0.97578 0.1942 0.83378 0.0
C417 C 0.00534 0.17929 0.83301 0.0
N418 N 0.01058 0.23142 0.83759 0.0
N419 N 0.98005 0.22546 0.83727 0.0
C420 C 0.06203 0.20175 0.83425 0.0
H421 H 0.07266 0.22545 0.83632 0.0
H422 H 0.06955 0.19096 0.81155 0.0
H423 H 0.07107 0.18656 0.85378 0.0
C424 C 0.09165 0.27784 0.75628 0.0
N425 N 0.07764 0.28533 0.78394 0.0
N426 N 0.05509 0.26515 0.7906 0.0
C427 C 0.05278 0.24511 0.76606 0.0
C428 C 0.07612 0.25227 0.7437 0.0
C429 C 0.11881 0.2956 0.74199 0.0
H430 H 0.10973 0.31712 0.72966 0.0
H431 H 0.13499 0.30299 0.76085 0.0
H432 H 0.13231 0.28087 0.72486 0.0
O433 O 0.03239 0.34098 0.79817 0.0
O434 O 0.99794 0.30582 0.81746 0.0
H435 H 0.00445 0.23174 0.77509 0.0
H436 H 0.01889 0.22366 0.73563 0.0
C437 C 0.02529 0.22384 0.761 0.0
H438 H 0.03185 0.19931 0.76798 0.0
H439 H 0.96233 0.24284 0.83634 0.0
O440 O 0.10614 0.3533 0.784 0.0
C441 C 0.00407 0.33231 0.80385 0.0
Co442 Co 0.41118 0.31941 0.54481 0.0
Co443 Co 0.46932 0.27683 0.56674 0.0
C444 C 0.43604 0.32219 0.61033 0.0
O445 O 0.41718 0.33021 0.58866 0.0
O446 O 0.45741 0.30126 0.60597 0.0
C447 C 0.37499 0.37643 0.5414 0.0
O448 O 0.38897 0.38117 0.56841 0.0
C449 C 0.53534 0.28119 0.57997 0.0
C450 C 0.55565 0.23645 0.56267 0.0
C451 C 0.56396 0.26682 0.57144 0.0
N452 N 0.51157 0.26124 0.57442 0.0
N453 N 0.52394 0.23393 0.56545 0.0
C454 C 0.5301 0.31415 0.59167 0.0
H455 H 0.51477 0.31348 0.6131 0.0
H456 H 0.51774 0.32855 0.5734 0.0
H457 H 0.55266 0.32539 0.59808 0.0
C458 C 0.45494 0.33713 0.49416 0.0
N459 N 0.44898 0.32259 0.52203 0.0
N460 N 0.47219 0.30272 0.52877 0.0
C461 C 0.49306 0.30302 0.50422 0.0
C462 C 0.48307 0.32523 0.48195 0.0
C463 C 0.43203 0.35879 0.47768 0.0
H464 H 0.40974 0.346 0.47366 0.0
H465 H 0.42656 0.37933 0.49295 0.0
H466 H 0.4413 0.36736 0.45452 0.0
O467 O 0.39745 0.27518 0.54117 0.0
O468 O 0.43671 0.24346 0.55829 0.0
H469 H 0.51339 0.25662 0.50877 0.0
H470 H 0.52908 0.27912 0.47587 0.0
C471 C 0.52036 0.28053 0.50058 0.0
H472 H 0.5401 0.28884 0.51484 0.0
H473 H 0.51073 0.21482 0.55795 0.0
O474 O 0.37982 0.35044 0.52713 0.0
C475 C 0.40897 0.24764 0.54691 0.0
Co476 Co 0.41014 0.66612 0.31249 0.0
Co477 Co 0.44362 0.72702 0.33752 0.0
C478 C 0.39095 0.69386 0.37362 0.0
O479 O 0.38782 0.67447 0.35145 0.0
O480 O 0.41251 0.71465 0.37278 0.0
C481 C 0.36805 0.61473 0.30704 0.0
O482 O 0.36645 0.61756 0.33787 0.0
C483 C 0.43114 0.79365 0.34179 0.0
C484 C 0.47797 0.8152 0.33633 0.0
C485 C 0.44579 0.82239 0.33539 0.0
N486 N 0.45335 0.77073 0.34449 0.0
N487 N 0.48142 0.78395 0.34246 0.0
C488 C 0.39638 0.78736 0.34372 0.0
H489 H 0.38876 0.77547 0.32193 0.0
H490 H 0.38255 0.80958 0.34695 0.0
H491 H 0.39132 0.77121 0.36393 0.0
C492 C 0.3977 0.70786 0.25807 0.0
N493 N 0.4089 0.70237 0.28728 0.0
N494 N 0.42608 0.72633 0.29596 0.0
C495 C 0.42848 0.74674 0.27132 0.0
C496 C 0.40981 0.73629 0.24698 0.0
C497 C 0.37539 0.68648 0.24172 0.0
H498 H 0.38913 0.66723 0.23012 0.0
H499 H 0.35888 0.67566 0.25921 0.0
H500 H 0.36152 0.6995 0.22356 0.0
O501 O 0.45509 0.65455 0.31998 0.0
O502 O 0.48098 0.6973 0.33591 0.0
H503 H 0.46132 0.77408 0.24322 0.0
H504 H 0.44281 0.79482 0.27506 0.0
C505 C 0.45304 0.77178 0.26816 0.0
H506 H 0.47357 0.7659 0.28323 0.0
H507 H 0.50279 0.77134 0.34204 0.0
O508 O 0.38738 0.63174 0.29129 0.0
C509 C 0.48048 0.66814 0.32815 0.0
Co510 Co 0.08953 0.66612 0.04023 0.0
Co511 Co 0.03555 0.71146 0.06453 0.0
C512 C 0.06579 0.66131 0.10632 0.0
O513 O 0.08327 0.65218 0.08365 0.0
O514 O 0.0468 0.68472 0.10319 0.0
C515 C 0.13492 0.61639 0.03596 0.0
O516 O 0.13339 0.61797 0.0669 0.0
C517 C 0.96814 0.71206 0.07312 0.0
C518 C 0.95515 0.76245 0.06908 0.0
C519 C 0.94228 0.73229 0.0691 0.0
N520 N 0.99466 0.72927 0.07383 0.0
N521 N 0.98666 0.75951 0.07276 0.0
C522 C 0.9684 0.67671 0.07087 0.0
H523 H 0.99274 0.66694 0.07298 0.0
H524 H 0.95818 0.66937 0.04811 0.0
H525 H 0.95368 0.6666 0.09029 0.0
C526 C 0.04385 0.65198 0.99198 0.0
N527 N 0.05139 0.66564 0.0193 0.0
N528 N 0.0305 0.68777 0.02628 0.0
C529 C 0.00989 0.69028 0.00217 0.0
C530 C 0.0174 0.66738 0.97993 0.0
C531 C 0.06202 0.62489 0.97785 0.0
H532 H 0.08263 0.63412 0.96429 0.0
H533 H 0.07088 0.60895 0.99688 0.0
H534 H 0.04706 0.6111 0.96183 0.0
O535 O 0.10569 0.7097 0.03665 0.0
O536 O 0.06913 0.74372 0.05484 0.0
H537 H 0.99444 0.73808 0.01129 0.0
H538 H 0.98626 0.72428 0.97206 0.0
C539 C 0.98726 0.71738 0.99745 0.0
H540 H 0.96322 0.71005 0.00489 0.0
H541 H 0.00282 0.77793 0.07129 0.0
O542 O 0.11937 0.63632 0.01947 0.0
C543 C 0.0963 0.73791 0.04233 0.0
Co544 Co 0.20321 0.57994 0.16362 0.0
Co545 Co 0.17326 0.53663 0.21645 0.0
C546 C 0.13692 0.59022 0.18535 0.0
O547 O 0.16103 0.59746 0.16898 0.0
O548 O 0.13722 0.56643 0.20412 0.0
C549 C 0.21015 0.62685 0.116 0.0
O550 O 0.1796 0.6226 0.11369 0.0
C551 C 0.1612 0.53495 0.28357 0.0
C552 C 0.16067 0.48411 0.29518 0.0
C553 C 0.162 0.51376 0.30902 0.0
N554 N 0.1609 0.51861 0.25648 0.0
N555 N 0.15929 0.4882 0.26357 0.0
C556 C 0.16572 0.57003 0.28449 0.0
H557 H 0.1877 0.57567 0.29718 0.0
H558 H 0.14556 0.5811 0.29745 0.0
H559 H 0.16671 0.58038 0.26029 0.0
C560 C 0.25085 0.58992 0.21138 0.0
N561 N 0.22309 0.57812 0.20243 0.0
N562 N 0.21327 0.55701 0.22325 0.0
C563 C 0.23592 0.5532 0.24534 0.0
C564 C 0.2602 0.57428 0.2388 0.0
C565 C 0.26755 0.61602 0.19398 0.0
H566 H 0.28176 0.60586 0.17425 0.0
H567 H 0.25003 0.63294 0.18391 0.0
H568 H 0.28339 0.62902 0.20981 0.0
O569 O 0.20329 0.53648 0.14649 0.0
O570 O 0.18098 0.50436 0.18249 0.0
H571 H 0.22275 0.50647 0.26103 0.0
H572 H 0.26202 0.51808 0.27193 0.0
C573 C 0.23725 0.52646 0.26887 0.0
H574 H 0.22849 0.53469 0.29218 0.0
H575 H 0.16032 0.47021 0.24692 0.0
O576 O 0.22597 0.6092 0.13469 0.0
C577 C 0.1945 0.50899 0.15558 0.0
Co578 Co 0.70426 0.91699 0.83583 0.0
Co579 Co 0.67639 0.96341 0.78483 0.0
C580 C 0.63753 0.91202 0.8168 0.0
O581 O 0.66136 0.90269 0.83219 0.0
O582 O 0.6389 0.93601 0.79826 0.0
C583 C 0.7107 0.86911 0.88244 0.0
O584 O 0.68007 0.87367 0.88543 0.0
C585 C 0.66681 0.96605 0.71762 0.0
C586 C 0.66972 0.01683 0.70632 0.0
C587 C 0.67057 0.98717 0.69239 0.0
N588 N 0.66549 0.9823 0.74479 0.0
N589 N 0.66584 0.01279 0.7378 0.0
C590 C 0.67013 0.93075 0.71655 0.0
H591 H 0.69319 0.92392 0.70564 0.0
H592 H 0.65117 0.92111 0.70173 0.0
H593 H 0.66808 0.92012 0.74058 0.0
C594 C 0.75126 0.9045 0.78682 0.0
N595 N 0.72375 0.91757 0.79649 0.0
N596 N 0.71527 0.94031 0.77684 0.0
C597 C 0.73861 0.94387 0.75499 0.0
C598 C 0.76175 0.9209 0.76019 0.0
C599 C 0.76718 0.87727 0.80337 0.0
H600 H 0.78128 0.88629 0.8232 0.0
H601 H 0.7492 0.86088 0.81322 0.0
H602 H 0.78308 0.86407 0.78699 0.0
O603 O 0.70698 0.96007 0.85298 0.0
O604 O 0.68642 0.99492 0.8186 0.0
H605 H 0.72749 0.99218 0.74215 0.0
H606 H 0.76719 0.97939 0.73215 0.0
C607 C 0.74209 0.97207 0.73357 0.0
H608 H 0.73496 0.96567 0.70945 0.0
H609 H 0.66691 0.03063 0.75456 0.0
O610 O 0.72644 0.8867 0.86364 0.0
C611 C 0.70012 0.98847 0.84479 0.0
Co612 Co 0.82468 0.94739 0.57677 0.0
Co613 Co 0.7752 0.92508 0.52823 0.0
C614 C 0.82617 0.8816 0.55428 0.0
O615 O 0.83676 0.90376 0.57071 0.0
O616 O 0.80187 0.88561 0.53714 0.0
C617 C 0.86188 0.9728 0.62961 0.0
O618 O 0.83739 0.97143 0.64897 0.0
C619 C 0.76956 0.91737 0.46151 0.0
C620 C 0.71865 0.92347 0.453 0.0
C621 C 0.74791 0.92254 0.43748 0.0
N622 N 0.75407 0.91678 0.48949 0.0
N623 N 0.72345 0.9191 0.48421 0.0
C624 C 0.80489 0.91878 0.45862 0.0
H625 H 0.81613 0.91576 0.48201 0.0
H626 H 0.81209 0.94167 0.4478 0.0
H627 H 0.81359 0.89957 0.44305 0.0
C628 C 0.8356 0.99691 0.52997 0.0
N629 N 0.82282 0.96909 0.53846 0.0
N630 N 0.79905 0.96292 0.51999 0.0
C631 C 0.7948 0.98787 0.50008 0.0
C632 C 0.81802 0.01001 0.50555 0.0
C633 C 0.86361 0.01084 0.54572 0.0
H634 H 0.88105 0.99189 0.5514 0.0
H635 H 0.87528 0.02875 0.5303 0.0
H636 H 0.85583 0.02212 0.56811 0.0
O637 O 0.7829 0.95279 0.598 0.0
O638 O 0.74617 0.93534 0.56507 0.0
H639 H 0.75926 0.01873 0.47997 0.0
H640 H 0.7716 0.9864 0.4557 0.0
C641 C 0.7661 0.9933 0.48034 0.0
H642 H 0.74596 0.97936 0.48964 0.0
H643 H 0.70618 0.92104 0.50196 0.0
O644 O 0.85926 0.96455 0.60107 0.0
C645 C 0.75402 0.94772 0.5913 0.0
Co646 Co 0.7958 0.07807 0.33171 0.0
Co647 Co 0.81874 0.03092 0.27928 0.0
C648 C 0.86323 0.07534 0.31095 0.0
O649 O 0.84074 0.08542 0.32816 0.0
O650 O 0.85902 0.05397 0.29053 0.0
C651 C 0.79288 0.13513 0.36583 0.0
O652 O 0.8215 0.13811 0.35389 0.0
C653 C 0.82642 0.02814 0.21177 0.0
C654 C 0.8191 0.97792 0.20165 0.0
C655 C 0.82023 0.00766 0.18718 0.0
N656 N 0.82707 0.01161 0.23916 0.0
N657 N 0.82413 0.98133 0.23282 0.0
C658 C 0.82616 0.06357 0.21019 0.0
H659 H 0.80331 0.07251 0.2008 0.0
H660 H 0.84523 0.07167 0.19388 0.0
H661 H 0.83023 0.07372 0.23382 0.0
C662 C 0.74976 0.09642 0.28431 0.0
N663 N 0.77664 0.08126 0.29247 0.0
N664 N 0.78248 0.05812 0.27273 0.0
C665 C 0.75807 0.05652 0.25255 0.0
C666 C 0.73694 0.0811 0.25875 0.0
C667 C 0.73613 0.12412 0.30171 0.0
H668 H 0.7231 0.11555 0.32303 0.0
H669 H 0.75543 0.13964 0.30941 0.0
H670 H 0.71974 0.13813 0.28661 0.0
O671 O 0.78696 0.03522 0.34827 0.0
O672 O 0.8055 -6e-05 0.3135 0.0
H673 H 0.76473 0.00743 0.24073 0.0
H674 H 0.72573 0.02322 0.23313 0.0
C675 C 0.75136 0.02857 0.23248 0.0
H676 H 0.75785 0.03425 0.20766 0.0
H677 H 0.82206 0.96351 0.24999 0.0
O678 O 0.77735 0.11033 0.3602 0.0
C679 C 0.7914 0.00668 0.33961 0.0
Co680 Co 0.66292 0.06087 0.08583 0.0
Co681 Co 0.71089 0.0799 0.03214 0.0
C682 C 0.66469 0.12655 0.06109 0.0
O683 O 0.65392 0.10528 0.07943 0.0
O684 O 0.68722 0.12087 0.04163 0.0
C685 C 0.6313 0.02228 0.13416 0.0
O686 O 0.65752 0.00539 0.1359 0.0
C687 C 0.71533 0.08341 0.96407 0.0
C688 C 0.76625 0.0767 0.95476 0.0
C689 C 0.737 0.0765 0.94002 0.0
N690 N 0.73086 0.08583 0.99152 0.0
N691 N 0.76147 0.08317 0.98558 0.0
C692 C 0.68 0.08263 0.96211 0.0
H693 H 0.6688 0.08773 0.98538 0.0
H694 H 0.6723 0.05924 0.95371 0.0
H695 H 0.67183 0.10081 0.94483 0.0
C696 C 0.64647 0.01196 0.04144 0.0
N697 N 0.66076 0.03932 0.04785 0.0
N698 N 0.6844 0.04371 0.0279 0.0
C699 C 0.68734 0.01792 0.00954 0.0
C700 C 0.66309 0.99726 0.01714 0.0
C701 C 0.61806 -0.00021 0.05895 0.0
H702 H 0.60321 0.01977 0.06758 0.0
H703 H 0.60373 0.98475 0.04345 0.0
H704 H 0.62579 0.98528 0.07952 0.0
O705 O 0.70574 0.05249 0.10276 0.0
O706 O 0.74143 0.06802 0.0665 0.0
H707 H 0.72215 0.98435 0.99251 0.0
H708 H 0.71159 0.01503 0.96499 0.0
C709 C 0.71624 0.00993 0.99026 0.0
H710 H 0.73675 0.02373 0.99801 0.0
H711 H 0.77877 0.08246 0.00295 0.0
O712 O 0.62994 0.04588 0.11537 0.0
C713 C 0.7344 0.05573 0.09347 0.0
Co714 Co 0.30257 0.4108 0.65672 0.0
Co715 Co 0.32608 0.44744 0.71627 0.0
C716 C 0.36544 0.39703 0.68312 0.0
O717 O 0.34338 0.39155 0.66414 0.0
O718 O 0.36309 0.41894 0.70345 0.0
C719 C 0.29778 0.36763 0.60601 0.0
O720 O 0.32879 0.36833 0.60686 0.0
C721 C 0.33296 0.43566 0.78257 0.0
C722 C 0.32407 0.48194 0.80431 0.0
C723 C 0.32598 0.44976 0.81142 0.0
N724 N 0.33333 0.45801 0.75964 0.0
N725 N 0.32925 0.48587 0.77294 0.0
C726 C 0.33746 0.4011 0.77626 0.0
H727 H 0.31642 0.39189 0.7642 0.0
H728 H 0.34151 0.38749 0.79848 0.0
H729 H 0.35812 0.39756 0.76027 0.0
C730 C 0.25044 0.39476 0.70011 0.0
N731 N 0.2785 0.40815 0.69366 0.0
N732 N 0.28614 0.42674 0.7169 0.0
C733 C 0.26179 0.4278 0.73775 0.0
C734 C 0.23889 0.40687 0.72837 0.0
C735 C 0.23561 0.37047 0.67977 0.0
H736 H 0.22234 0.3826 0.66057 0.0
H737 H 0.25419 0.35525 0.66886 0.0
H738 H 0.21912 0.35538 0.69367 0.0
O739 O 0.30601 0.45611 0.6444 0.0
O740 O 0.32088 0.48407 0.68624 0.0
H741 H 0.27046 0.47441 0.75511 0.0
H742 H 0.2317 0.45933 0.76457 0.0
C743 C 0.25715 0.45296 0.762 0.0
H744 H 0.26526 0.44417 0.78521 0.0
H745 H 0.32674 0.50713 0.76037 0.0
O746 O 0.28174 0.38615 0.62359 0.0
C747 C 0.31242 0.48235 0.65736 0.0
Co748 Co 0.3148 0.55245 0.41002 0.0
Co749 Co 0.27154 0.56951 0.46868 0.0
C750 C 0.31372 0.61728 0.43635 0.0
O751 O 0.32283 0.59695 0.41644 0.0
O752 O 0.29372 0.61056 0.45804 0.0
C753 C 0.37111 0.55184 0.37422 0.0
O754 O 0.37628 0.5763 0.39215 0.0
C755 C 0.2791 0.57654 0.53502 0.0
C756 C 0.23457 0.55954 0.55609 0.0
C757 C 0.26568 0.56642 0.5635 0.0
N758 N 0.25775 0.57403 0.51191 0.0
N759 N 0.23067 0.56508 0.52485 0.0
C760 C 0.31256 0.58665 0.52925 0.0
H761 H 0.32566 0.5683 0.51572 0.0
H762 H 0.32481 0.59104 0.55179 0.0
H763 H 0.3127 0.60874 0.51489 0.0
C764 C 0.3371 0.50215 0.45286 0.0
N765 N 0.32061 0.52904 0.44717 0.0
N766 N 0.2993 0.5332 0.46965 0.0
C767 C 0.30023 0.50785 0.48936 0.0
C768 C 0.32468 0.48784 0.47989 0.0
C769 C 0.36354 0.49018 0.43223 0.0
H770 H 0.35357 0.47974 0.41064 0.0
H771 H 0.37889 0.51009 0.42496 0.0
H772 H 0.37815 0.47208 0.44463 0.0
O773 O 0.27067 0.5458 0.39727 0.0
O774 O 0.23783 0.55981 0.43683 0.0
H775 H 0.27138 0.47302 0.51319 0.0
H776 H 0.27988 0.50707 0.53593 0.0
C777 C 0.27417 0.49908 0.51196 0.0
H778 H 0.25152 0.50998 0.50437 0.0
H779 H 0.21063 0.55949 0.51202 0.0
O780 O 0.34509 0.53728 0.37723 0.0
C781 C 0.24282 0.54917 0.40891 0.0
Co782 Co 0.16805 0.43244 0.91023 0.0
Co783 Co 0.20547 0.40854 0.96981 0.0
C784 C 0.15127 0.37211 0.94176 0.0
O785 O 0.14679 0.39367 0.92124 0.0
O786 O 0.17374 0.37356 0.96153 0.0
C787 C 0.12486 0.43775 0.8594 0.0
O788 O 0.1251 0.40676 0.86181 0.0
C789 C 0.2034 0.4091 0.03825 0.0
C790 C 0.25379 0.40683 0.05054 0.0
C791 C 0.22394 0.41334 0.06324 0.0
N792 N 0.22043 0.40199 0.01209 0.0
N793 N 0.25046 0.39933 0.01991 0.0
C794 C 0.16874 0.41688 0.03784 0.0
H795 H 0.159 0.41387 0.01385 0.0
H796 H 0.16438 0.44146 0.04582 0.0
H797 H 0.15613 0.40085 0.05454 0.0
C798 C 0.15747 0.48804 0.94983 0.0
N799 N 0.16864 0.4585 0.94539 0.0
N800 N 0.1877 0.45048 0.96848 0.0
C801 C 0.19142 0.47588 0.987 0.0
C802 C 0.17167 0.50014 0.97643 0.0
C803 C 0.13313 0.50368 0.92931 0.0
H804 H 0.14509 0.51522 0.90879 0.0
H805 H 0.11665 0.4858 0.92032 0.0
H806 H 0.11932 0.52177 0.94253 0.0
O807 O 0.21226 0.42434 0.89572 0.0
O808 O 0.24051 0.40863 0.93757 0.0
H809 H 0.22722 0.50378 0.00862 0.0
H810 H 0.20872 0.47564 0.03438 0.0
C811 C 0.21774 0.47943 0.00999 0.0
H812 H 0.23718 0.46237 0.00493 0.0
H813 H 0.26895 0.39565 0.00373 0.0
O814 O 0.14335 0.45349 0.87645 0.0
C815 C 0.23841 0.41587 0.90823 0.0
C816 C 0.24908 0.34118 0.58719 0.0
C817 C 0.28197 0.34068 0.59139 0.0
H818 H 0.20797 0.31457 0.57633 0.0
C819 C 0.29906 0.3126 0.58562 0.0
H820 H 0.23535 0.36259 0.59123 0.0
C821 C 0.28326 0.28493 0.57827 0.0
C822 C 0.25018 0.28497 0.57584 0.0
H823 H 0.32443 0.3114 0.5888 0.0
H824 H 0.29687 0.2632 0.57619 0.0
C825 C 0.23338 0.31363 0.57908 0.0
C826 C 0.42527 0.55591 0.35102 0.0
C827 C 0.39751 0.53841 0.35549 0.0
H828 H 0.47418 0.55491 0.33775 0.0
C829 C 0.39685 0.50693 0.34535 0.0
H830 H 0.42636 0.58037 0.3582 0.0
C831 C 0.42433 0.49245 0.33348 0.0
C832 C 0.45269 0.50928 0.33161 0.0
H833 H 0.37571 0.49295 0.34827 0.0
H834 H 0.42375 0.46775 0.32709 0.0
C835 C 0.45262 0.54144 0.33914 0.0
C836 C 0.21875 0.71029 0.08494 0.0
C837 C 0.25165 0.71396 0.08561 0.0
H838 H 0.17978 0.6795 0.09342 0.0
C839 C 0.27098 0.68767 0.0928 0.0
H840 H 0.20331 0.73019 0.07946 0.0
C841 C 0.25756 0.65879 0.10146 0.0
C842 C 0.22457 0.65554 0.10229 0.0
H843 H 0.29649 0.68954 0.09236 0.0
H844 H 0.27297 0.63926 0.10821 0.0
C845 C 0.20532 0.68126 0.09297 0.0
C846 C 0.0996 0.48718 0.83812 0.0
C847 C 0.09874 0.45429 0.84304 0.0
H848 H 0.07375 0.5291 0.82517 0.0
C849 C 0.071 0.438 0.836 0.0
H850 H 0.12077 0.50031 0.84303 0.0
C851 C 0.04385 0.45461 0.82674 0.0
C852 C 0.04415 0.48771 0.82381 0.0
H853 H 0.06957 0.41264 0.83957 0.0
H854 H 0.02222 0.44167 0.82359 0.0
C855 C 0.07261 0.50369 0.82827 0.0
C856 C 0.72967 0.18982 0.39877 0.0
C857 C 0.74689 0.2176 0.40259 0.0
H858 H 0.73084 0.1415 0.3843 0.0
C859 C 0.77967 0.21713 0.39729 0.0
H860 H 0.70445 0.18947 0.40353 0.0
C861 C 0.79485 0.18976 0.38677 0.0
C862 C 0.77745 0.16235 0.38129 0.0
H863 H 0.79341 0.23829 0.40013 0.0
H864 H 0.82005 0.19047 0.38195 0.0
C865 C 0.74483 0.16235 0.38813 0.0
C866 C 0.57452 0.03063 0.14853 0.0
C867 C 0.60161 0.01101 0.14892 0.0
H868 H 0.52447 0.03405 0.15559 0.0
C869 C 0.59897 0.97977 0.16028 0.0
H870 H 0.57579 0.0549 0.14012 0.0
C871 C 0.56942 0.96789 0.16928 0.0
C872 C 0.54219 0.98709 0.1671 0.0
H873 H 0.61943 0.96412 0.16091 0.0
H874 H 0.56775 0.94351 0.17723 0.0
C875 C 0.54513 0.01878 0.15752 0.0
C876 C 0.75861 0.83691 0.89562 0.0
C877 C 0.72554 0.84016 0.89533 0.0
H878 H 0.79821 0.80592 0.90314 0.0
C879 C 0.70679 0.81422 0.90408 0.0
H880 H 0.77362 0.85664 0.88928 0.0
C881 C 0.72086 0.78499 0.91098 0.0
C882 C 0.75387 0.78139 0.90974 0.0
H883 H 0.68121 0.816 0.90396 0.0
H884 H 0.70586 0.76493 0.91603 0.0
C885 C 0.77266 0.80782 0.90311 0.0
C886 C 0.89706 0.99664 0.67021 0.0
C887 C 0.89301 0.98359 0.64017 0.0
H888 H 0.92936 0.01843 0.70189 0.0
C889 C 0.91924 0.98122 0.61943 0.0
H890 H 0.87731 0.99879 0.68664 0.0
C891 C 0.94866 0.99212 0.62823 0.0
C892 C 0.95255 0.00549 0.65791 0.0
H893 H 0.9171 0.97107 0.59618 0.0
H894 H 0.96841 0.99037 0.61171 0.0
C895 C 0.92671 0.00769 0.67898 0.0
C896 C 0.58813 0.29005 0.28666 0.0
C897 C 0.58229 0.25756 0.28894 0.0
H898 H 0.60455 0.33118 0.30956 0.0
C899 C 0.58577 0.24195 0.31821 0.0
H900 H 0.58587 0.30261 0.26434 0.0
C901 C 0.59672 0.25834 0.34436 0.0
C902 C 0.60436 0.29052 0.34148 0.0
H903 H 0.58085 0.21697 0.32063 0.0
H904 H 0.60051 0.24549 0.36634 0.0
C905 C 0.599 0.30638 0.31262 0.0
C906 C 0.46021 0.8273 0.0505 0.0
C907 C 0.49337 0.8256 0.05053 0.0
H908 H 0.41804 0.83821 0.0768 0.0
C909 C 0.50933 0.82931 0.07911 0.0
H910 H 0.44731 0.82442 0.02879 0.0
C911 C 0.49269 0.83767 0.10653 0.0
C912 C 0.45971 0.84198 0.10592 0.0
H913 H 0.53483 0.82703 0.08 0.0
H914 H 0.50582 0.84229 0.12777 0.0
C915 C 0.44347 0.83522 0.07804 0.0
C916 C 0.90699 0.71005 0.77521 0.0
C917 C 0.91214 0.74269 0.77671 0.0
H918 H 0.89225 0.6683 0.79981 0.0
C919 C 0.90887 0.75801 0.80581 0.0
H920 H 0.90911 0.69773 0.75298 0.0
C921 C 0.89878 0.74124 0.83268 0.0
C922 C 0.89196 0.70887 0.83078 0.0
H923 H 0.91336 0.78307 0.80761 0.0
H924 H 0.89523 0.75388 0.85458 0.0
C925 C 0.89712 0.69325 0.80202 0.0
C926 C 0.97691 0.1587 0.56813 0.0
C927 C 0.99258 0.1613 0.53875 0.0
H928 H 0.98068 0.14577 0.61714 0.0
C929 C 0.02532 0.15574 0.53712 0.0
H930 H 0.95177 0.16355 0.57015 0.0
C931 C 0.0419 0.14614 0.56382 0.0
C932 C 0.02603 0.14155 0.59283 0.0
H933 H 0.03798 0.15735 0.51483 0.0
H934 H 0.06694 0.14091 0.56131 0.0
C935 C 0.99353 0.14891 0.59504 0.0
C936 C 0.08953 0.19171 0.67966 0.0
C937 C 0.09783 0.21104 0.6536 0.0
H938 H 0.07695 0.18973 0.72889 0.0
C939 C 0.09564 0.24402 0.65654 0.0
H940 H 0.09097 0.16618 0.67815 0.0
C941 C 0.08699 0.25741 0.68545 0.0
C942 C 0.08113 0.23812 0.71213 0.0
H943 H 0.10154 0.25949 0.63678 0.0
H944 H 0.08568 0.28291 0.68707 0.0
C945 C 0.08147 0.20516 0.70874 0.0
C946 C 0.5053 0.31352 0.42782 0.0
C947 C 0.49886 0.33506 0.45222 0.0
H948 H 0.52438 0.30713 0.38081 0.0
C949 C 0.50657 0.36692 0.44792 0.0
H950 H 0.49883 0.28893 0.43043 0.0
C951 C 0.52011 0.37731 0.41957 0.0
C952 C 0.52649 0.35595 0.39516 0.0
H953 H 0.50185 0.38385 0.46647 0.0
H954 H 0.52585 0.40209 0.41678 0.0
C955 C 0.51955 0.32387 0.3995 0.0
C956 C 0.39475 0.78585 0.21866 0.0
C957 C 0.40248 0.75354 0.21742 0.0
H958 H 0.37811 0.82675 0.1936 0.0
C959 C 0.40183 0.73802 0.18833 0.0
H960 H 0.39494 0.7983 0.24085 0.0
C961 C 0.39196 0.75427 0.16114 0.0
C962 C 0.38258 0.78623 0.16279 0.0
H963 H 0.40833 0.71324 0.18675 0.0
H964 H 0.39051 0.74148 0.13919 0.0
C965 C 0.38495 0.80207 0.19161 0.0
C966 C 0.00559 0.6464 0.89439 0.0
C967 C 0.9726 0.64352 0.89336 0.0
H968 H 0.04558 0.65761 0.92234 0.0
C969 C 0.95423 0.65198 0.91994 0.0
H970 H 0.02028 0.6404 0.8741 0.0
C971 C 0.9688 0.66083 0.94786 0.0
C972 C 0.00189 0.66185 0.94943 0.0
H973 H 0.92872 0.64997 0.91983 0.0
H974 H 0.95423 0.66532 0.9686 0.0
C975 C 0.02007 0.65587 0.92209 0.0
C976 C 0.34483 0.59365 0.25765 0.0
C977 C 0.34281 0.59809 0.29046 0.0
H978 H 0.32043 0.58128 0.21565 0.0
C979 C 0.31462 0.59037 0.30663 0.0
H980 H 0.36637 0.599 0.24462 0.0
C981 C 0.28809 0.58118 0.28991 0.0
C982 C 0.28946 0.57903 0.25684 0.0
H983 H 0.31233 0.59343 0.33196 0.0
H984 H 0.26606 0.57759 0.30271 0.0
C985 C 0.31845 0.58386 0.24104 0.0
C986 C 0.79121 0.91573 0.70899 0.0
C987 C 0.7915 0.91608 0.74216 0.0
H988 H 0.81714 0.90569 0.66646 0.0
C989 C 0.81998 0.91014 0.75793 0.0
H990 H 0.76951 0.92021 0.69627 0.0
C991 C 0.84713 0.90141 0.74097 0.0
C992 C 0.84635 0.899 0.7079 0.0
H993 H 0.82106 0.91131 0.78345 0.0
H994 H 0.8684 0.89537 0.75383 0.0
C995 C 0.81849 0.90742 0.69194 0.0
C996 C 0.82735 0.06806 0.50972 0.0
C997 C 0.82147 0.04173 0.49089 0.0
H998 H 0.84188 0.11629 0.51088 0.0
C999 C 0.8209 0.04551 0.4579 0.0
H1000 H 0.82676 0.06604 0.53527 0.0
C1001 C 0.82869 0.07455 0.44389 0.0
C1002 C 0.83752 0.10008 0.46272 0.0
H1003 H 0.8162 0.0256 0.44288 0.0
H1004 H 0.82985 0.07627 0.41831 0.0
C1005 C 0.83561 0.09691 0.49577 0.0
C1006 C 0.7041 0.0871 0.21035 0.0
C1007 C 0.70621 0.08729 0.24344 0.0
H1008 H 0.67534 0.09665 0.17004 0.0
C1009 C 0.67906 0.09419 0.26163 0.0
H1010 H 0.72468 0.08175 0.19577 0.0
C1011 C 0.65092 0.10316 0.24697 0.0
C1012 C 0.6493 0.10485 0.21383 0.0
H1013 H 0.67974 0.09335 0.28721 0.0
H1014 H 0.63076 0.10981 0.26161 0.0
C1015 C 0.67581 0.09561 0.19564 0.0
C1016 C 0.65475 0.92979 0.96036 0.0
C1017 C 0.64574 0.90503 0.9809 0.0
H1018 H 0.66625 0.9788 0.95583 0.0
C1019 C 0.64497 0.91011 0.01363 0.0
H1020 H 0.6554 0.9266 0.93498 0.0
C1021 C 0.65176 0.93982 0.02552 0.0
C1022 C 0.65867 0.96512 0.00486 0.0
H1023 H 0.63839 0.89132 0.02999 0.0
H1024 H 0.65117 0.94301 0.05086 0.0
C1025 C 0.66091 0.95968 0.97225 0.0
C1026 C 0.15505 0.38286 0.74827 0.0
C1027 C 0.15764 0.37535 0.78064 0.0
H1028 H 0.17888 0.39928 0.70621 0.0
C1029 C 0.18627 0.38079 0.79594 0.0
H1030 H 0.1332 0.37907 0.73588 0.0
C1031 C 0.2123 0.39185 0.77889 0.0
C1032 C 0.21021 0.3979 0.74631 0.0
H1033 H 0.18899 0.37543 0.82089 0.0
H1034 H 0.23446 0.39444 0.79101 0.0
C1035 C 0.18119 0.3941 0.73123 0.0
C1036 C 0.33913 0.45748 0.52836 0.0
C1037 C 0.33471 0.45802 0.49557 0.0
H1038 H 0.35487 0.43103 0.56864 0.0
C1039 C 0.34045 0.43038 0.47826 0.0
H1040 H 0.33472 0.47846 0.54222 0.0
C1041 C 0.35203 0.40304 0.49336 0.0
C1042 C 0.35808 0.40308 0.52598 0.0
H1043 H 0.33645 0.43005 0.45303 0.0
H1044 H 0.35735 0.38237 0.47932 0.0
C1045 C 0.35073 0.43032 0.54342 0.0
C1046 C 0.16211 0.55881 0.9734 0.0
C1047 C 0.16596 0.53103 0.99155 0.0
H1048 H 0.14917 0.60796 0.9733 0.0
C1049 C 0.16285 0.53248 0.02458 0.0
H1050 H 0.16522 0.55852 0.94796 0.0
C1051 C 0.15476 0.56085 0.03914 0.0
C1052 C 0.14891 0.58821 0.02089 0.0
H1053 H 0.16519 0.51139 0.03917 0.0
H1054 H 0.15142 0.56085 0.06459 0.0
C1055 C 0.15331 0.58714 0.98792 0.0
C1056 C 0.16405 0.08864 0.67008 0.0
C1057 C 0.1441 0.06632 0.65685 0.0
H1058 H 0.19649 0.12611 0.66063 0.0
C1059 C 0.14834 0.05839 0.6249 0.0
H1060 H 0.16071 0.09563 0.69448 0.0
C1061 C 0.16908 0.07572 0.60545 0.0
C1062 C 0.18533 0.10141 0.61779 0.0
H1063 H 0.13267 0.04171 0.61407 0.0
H1064 H 0.1687 0.07207 0.58014 0.0
C1065 C 0.18459 0.10608 0.65065 0.0
C1066 C 0.63597 0.44519 0.39487 0.0
C1067 C 0.63907 0.44463 0.36177 0.0
H1068 H 0.65052 0.4243 0.4388 0.0
C1069 C 0.66527 0.42906 0.34817 0.0
H1070 H 0.61564 0.45667 0.40583 0.0
C1071 C 0.68517 0.41029 0.36712 0.0
C1072 C 0.67919 0.40724 0.39979 0.0
H1073 H 0.66777 0.42777 0.32268 0.0
H1074 H 0.70235 0.39486 0.35569 0.0
C1075 C 0.65609 0.42678 0.4138 0.0
C1076 C 0.32677 0.92677 0.1421 0.0
C1077 C 0.35397 0.94182 0.13045 0.0
H1078 H 0.29092 0.893 0.13242 0.0
C1079 C 0.35998 0.94214 0.09769 0.0
H1080 H 0.32206 0.92558 0.16734 0.0
C1081 C 0.34199 0.92366 0.07762 0.0
C1082 C 0.31794 0.90454 0.09016 0.0
H1083 H 0.38119 0.95309 0.08826 0.0
H1084 H 0.3499 0.9208 0.05333 0.0
C1085 C 0.3089 0.90809 0.12204 0.0
C1086 C 0.84506 0.57087 0.90937 0.0
C1087 C 0.82179 0.59147 0.89739 0.0
H1088 H 0.88502 0.54138 0.89801 0.0
C1089 C 0.81476 0.59045 0.865 0.0
H1090 H 0.8514 0.57174 0.93409 0.0
C1091 C 0.83402 0.57298 0.84422 0.0
C1092 C 0.86052 0.55653 0.85575 0.0
H1093 H 0.79736 0.60668 0.85513 0.0
H1094 H 0.83084 0.57604 0.81898 0.0
C1095 C 0.86445 0.55363 0.88863 0.0
C1096 C 0.619 0.16307 0.05914 0.0
C1097 C 0.65131 0.15843 0.06539 0.0
H1098 H 0.57503 0.1828 0.07581 0.0
C1099 C 0.6658 0.17792 0.08733 0.0
H1100 H 0.60725 0.14787 0.04266 0.0
C1101 C 0.64727 0.19759 0.10663 0.0
C1102 C 0.61418 0.19819 0.10385 0.0
H1103 H 0.69053 0.17437 0.09297 0.0
H1104 H 0.65829 0.20878 0.12652 0.0
C1105 C 0.60051 0.18311 0.07815 0.0
C1106 C 0.56914 0.89184 0.86753 0.0
C1107 C 0.57103 0.85864 0.86638 0.0
H1108 H 0.5882 0.93568 0.85053 0.0
C1109 C 0.58792 0.84447 0.84146 0.0
H1110 H 0.5566 0.90326 0.88685 0.0
C1111 C 0.60639 0.86308 0.82092 0.0
C1112 C 0.60767 0.89605 0.8247 0.0
H1113 H 0.59025 0.81896 0.84044 0.0
H1114 H 0.62259 0.85139 0.80466 0.0
C1115 C 0.5871 0.91045 0.84659 0.0
C1116 C 0.84888 0.80894 0.59734 0.0
C1117 C 0.88191 0.81041 0.59337 0.0
H1118 H 0.80417 0.83043 0.58617 0.0
C1119 C 0.89435 0.82834 0.56814 0.0
H1120 H 0.8388 0.79567 0.61702 0.0
C1121 C 0.8745 0.84858 0.55073 0.0
C1122 C 0.84202 0.85066 0.55807 0.0
H1123 H 0.91972 0.83037 0.56501 0.0
H1124 H 0.88514 0.86556 0.53454 0.0
C1125 C 0.82899 0.82886 0.57964 0.0
C1126 C 0.93109 0.09458 0.35995 0.0
C1127 C 0.93179 0.12747 0.35478 0.0
H1128 H 0.90911 0.05102 0.34807 0.0
C1129 C 0.91747 0.14023 0.32767 0.0
H1130 H 0.94152 0.08429 0.38103 0.0
C1131 C 0.89868 0.12112 0.30888 0.0
C1132 C 0.89435 0.08906 0.31682 0.0
H1133 H 0.91708 0.16558 0.32357 0.0
H1134 H 0.88423 0.13232 0.29085 0.0
C1135 C 0.91262 0.07545 0.34097 0.0
C1136 C 0.07862 0.33025 0.92157 0.0
C1137 C 0.09177 0.30717 0.90167 0.0
H1138 H 0.08818 0.36922 0.95168 0.0
C1139 C 0.12409 0.29952 0.9043 0.0
H1140 H 0.05395 0.33709 0.91943 0.0
C1141 C 0.14373 0.31775 0.92307 0.0
C1142 C 0.13126 0.34407 0.93902 0.0
H1143 H 0.13488 0.28229 0.88863 0.0
H1144 H 0.1691 0.31412 0.92129 0.0
C1145 C 0.09828 0.34868 0.94006 0.0
C1146 C 0.41914 0.39062 0.6607 0.0
C1147 C 0.3944 0.37795 0.67901 0.0
H1148 H 0.45346 0.38146 0.62416 0.0
C1149 C 0.3918 0.34493 0.6818 0.0
H1150 H 0.42115 0.416 0.65767 0.0
C1151 C 0.41041 0.32511 0.66274 0.0
C1152 C 0.43164 0.33821 0.64066 0.0
H1153 H 0.37248 0.33471 0.69538 0.0
H1154 H 0.40492 0.30017 0.66205 0.0
C1155 C 0.43763 0.3708 0.64148 0.0
C1156 C 0.3807 0.67132 0.4267 0.0
C1157 C 0.36963 0.68936 0.40099 0.0
H1158 H 0.37014 0.63383 0.45959 0.0
C1159 C 0.33695 0.6906 0.39532 0.0
H1160 H 0.40585 0.66943 0.43108 0.0
C1161 C 0.3165 0.67016 0.41157 0.0
C1162 C 0.32853 0.64844 0.43377 0.0
H1163 H 0.32797 0.70391 0.37521 0.0
H1164 H 0.29235 0.66829 0.40361 0.0
C1165 C 0.36021 0.65084 0.44297 0.0
C1166 C 0.06676 0.61241 0.13885 0.0
C1167 C 0.07082 0.64533 0.13696 0.0
H1168 H 0.08424 0.56841 0.15783 0.0
C1169 C 0.09012 0.65988 0.15904 0.0
H1170 H 0.05245 0.60065 0.12159 0.0
C1171 C 0.1087 0.64137 0.17943 0.0
C1172 C 0.10778 0.60817 0.17828 0.0
H1173 H 0.09416 0.68511 0.15757 0.0
H1174 H 0.12658 0.65284 0.1932 0.0
C1175 C 0.08492 0.59393 0.15966 0.0
C1176 C 0.35022 0.20048 0.50214 0.0
C1177 C 0.34262 0.17618 0.52376 0.0
H1178 H 0.37707 0.24207 0.49289 0.0
C1179 C 0.36071 0.1727 0.55137 0.0
H1180 H 0.33684 0.20399 0.48068 0.0
C1181 C 0.38422 0.19469 0.5583 0.0
C1182 C 0.38957 0.22053 0.53783 0.0
H1183 H 0.3558 0.15386 0.56819 0.0
H1184 H 0.3967 0.19263 0.58044 0.0
C1185 C 0.37314 0.22253 0.50925 0.0
C1186 C 0.55556 0.63455 0.29302 0.0
C1187 C 0.55518 0.60369 0.30584 0.0
H1188 H 0.53245 0.68015 0.29116 0.0
C1189 C 0.53325 0.59685 0.33029 0.0
H1190 H 0.57182 0.64047 0.27391 0.0
C1191 C 0.51083 0.61929 0.33987 0.0
C1192 C 0.50989 0.6493 0.3256 0.0
H1193 H 0.53103 0.57327 0.34007 0.0
H1194 H 0.49263 0.61236 0.35677 0.0
C1195 C 0.53322 0.65731 0.30304 0.0
C1196 C 0.1197 0.79243 0.04735 0.0
C1197 C 0.11702 0.76382 0.03113 0.0
H1198 H 0.14516 0.83585 0.05138 0.0
C1199 C 0.13579 0.7589 0.00395 0.0
H1200 H 0.10522 0.797 0.06814 0.0
C1201 C 0.15809 0.78099 0.99422 0.0
C1202 C 0.1628 0.80848 0.01172 0.0
H1203 H 0.13384 0.73737 0.99052 0.0
H1204 H 0.17308 0.77538 0.97405 0.0
C1205 C 0.14263 0.81456 0.03781 0.0
C1206 C 0.98354 0.36838 0.76219 0.0
C1207 C 0.97858 0.35306 0.79147 0.0
H1208 H 0.96853 0.40434 0.72982 0.0
C1209 C 0.95103 0.36011 0.80901 0.0
H1210 H 0.00435 0.36303 0.74791 0.0
C1211 C 0.93028 0.3842 0.79857 0.0
C1212 C 0.93671 0.40119 0.77036 0.0
H1213 H 0.94656 0.34843 0.83153 0.0
H1214 H 0.91001 0.39039 0.81319 0.0
C1215 C 0.96275 0.39187 0.75163 0.0
C1216 C 0.83899 0.29212 0.41993 0.0
C1217 C 0.84319 0.31148 0.44641 0.0
H1218 H 0.85674 0.25321 0.39272 0.0
C1219 C 0.8724 0.30996 0.46195 0.0
H1220 H 0.81681 0.29163 0.40768 0.0
C1221 C 0.89574 0.28794 0.45275 0.0
C1222 C 0.88998 0.26676 0.42824 0.0
H1223 H 0.87633 0.32429 0.48254 0.0
H1224 H 0.91702 0.28556 0.46661 0.0
C1225 C 0.86193 0.26976 0.41125 0.0
C1226 C 0.46376 0.09505 0.16998 0.0
C1227 C 0.4395 0.09884 0.1928 0.0
H1228 H 0.5044 0.11504 0.14713 0.0
C1229 C 0.43524 0.1287 0.20668 0.0
H1230 H 0.46873 0.07247 0.15929 0.0
C1231 C 0.45588 0.15356 0.1992 0.0
C1232 C 0.48142 0.14865 0.1782 0.0
H1233 H 0.41701 0.13231 0.22455 0.0
H1234 H 0.45343 0.17565 0.21173 0.0
C1235 C 0.48454 0.11955 0.16298 0.0
C1236 C 0.63787 0.73756 0.99076 0.0
C1237 C 0.61926 0.73351 0.96386 0.0
H1238 H 0.67511 0.71984 0.01961 0.0
C1239 C 0.62256 0.70532 0.94682 0.0
H1240 H 0.63549 0.75869 0.00486 0.0
C1241 C 0.64573 0.6827 0.95537 0.0
C1242 C 0.66554 0.68779 0.98133 0.0
H1243 H 0.60822 0.70137 0.92625 0.0
H1244 H 0.64862 0.6617 0.94124 0.0
C1245 C 0.66039 0.71495 0.99953 0.0
C1246 C 0.05438 0.87337 0.71078 0.0
C1247 C 0.0531 0.90406 0.69761 0.0
H1248 H 0.03497 0.8266 0.71096 0.0
C1249 C 0.03389 0.90956 0.67106 0.0
H1250 H 0.06859 0.86847 0.73144 0.0
C1251 C 0.01467 0.88584 0.65962 0.0
C1252 C 0.01446 0.85587 0.67404 0.0
H1253 H 0.03116 0.93291 0.66075 0.0
H1254 H 0.9981 0.89165 0.64102 0.0
C1255 C 0.0354 0.84935 0.69889 0.0
C1256 C 0.5322 0.38406 0.18437 0.0
C1257 C 0.54751 0.35436 0.18623 0.0
H1258 H 0.52654 0.43021 0.20473 0.0
C1259 C 0.5722 0.35028 0.20802 0.0
H1260 H 0.51285 0.38788 0.16818 0.0
C1261 C 0.57973 0.3742 0.22887 0.0
C1262 C 0.56317 0.40304 0.22827 0.0
H1263 H 0.58396 0.32771 0.21128 0.0
H1264 H 0.59703 0.36931 0.24705 0.0
C1265 C 0.54016 0.40835 0.20508 0.0
C1266 C 0.39598 0.79811 0.93213 0.0
C1267 C 0.41368 0.77049 0.93911 0.0
H1268 H 0.35959 0.8306 0.94792 0.0
C1269 C 0.40473 0.75194 0.96542 0.0
H1270 H 0.40182 0.8125 0.91159 0.0
C1271 C 0.38111 0.76242 0.98613 0.0
C1272 C 0.36526 0.79132 0.98073 0.0
H1273 H 0.41772 0.73055 0.97158 0.0
H1274 H 0.37614 0.74845 0.00724 0.0
C1275 C 0.37176 0.80841 0.95278 0.0
C1276 C 0.98045 0.62244 0.72482 0.0
C1277 C 0.95155 0.60653 0.72393 0.0
H1278 H 0.01038 0.65731 0.70411 0.0
C1279 C 0.9315 0.61199 0.69814 0.0
H1280 H 0.99666 0.61834 0.74413 0.0
C1281 C 0.93937 0.63485 0.67493 0.0
C1282 C 0.96758 0.65209 0.677 0.0
H1283 H 0.90921 0.5998 0.69677 0.0
H1284 H 0.923 0.63965 0.65597 0.0
C1285 C 0.98851 0.64459 0.70157 0.0
C1286 C 0.1198 0.20501 0.43596 0.0
C1287 C 0.09015 0.19033 0.43791 0.0
H1288 H 0.16527 0.21065 0.45726 0.0
C1289 C 0.08537 0.16696 0.46149 0.0
H1290 H 0.12418 0.22329 0.41833 0.0
C1291 C 0.10841 0.16038 0.48401 0.0
C1292 C 0.1372 0.17626 0.48301 0.0
H1293 H 0.06289 0.15555 0.46457 0.0
H1294 H 0.10306 0.14406 0.50326 0.0
C1295 C 0.14331 0.19775 0.45814 0.0
C1296 C 0.03988 0.13102 0.82171 0.0
C1297 C 0.01205 0.14898 0.81649 0.0
H1298 H 0.07221 0.09574 0.80329 0.0
C1299 C 0.99261 0.14074 0.7913 0.0
H1300 H 0.05484 0.13592 0.84153 0.0
C1301 C 0.00242 0.11788 0.76981 0.0
C1302 C 0.03166 0.10223 0.77314 0.0
H1303 H 0.97091 0.15371 0.78652 0.0
H1304 H 0.98783 0.11369 0.74943 0.0
C1305 C 0.04968 0.10774 0.80009 0.0
C1306 C 0.6216 0.26537 0.55604 0.0
C1307 C 0.59316 0.28274 0.5595 0.0
H1308 H 0.66676 0.26194 0.53224 0.0
C1309 C 0.59121 0.31305 0.54525 0.0
H1310 H 0.62382 0.24186 0.56629 0.0
C1311 C 0.61568 0.32442 0.52608 0.0
C1312 C 0.6428 0.30597 0.52068 0.0
H1313 H 0.56964 0.32691 0.54571 0.0
H1314 H 0.61217 0.34647 0.51317 0.0
C1315 C 0.64627 0.27692 0.53677 0.0
C1316 C 0.44812 0.87957 0.31845 0.0
C1317 C 0.43249 0.85038 0.31802 0.0
H1318 H 0.4555 0.92436 0.29499 0.0
C1319 C 0.40819 0.84652 0.29594 0.0
H1320 H 0.46709 0.88329 0.3349 0.0
C1321 C 0.40189 0.86974 0.27311 0.0
C1322 C 0.41922 0.8977 0.27205 0.0
H1323 H 0.39608 0.8244 0.29377 0.0
H1324 H 0.38516 0.86474 0.25468 0.0
C1325 C 0.44136 0.90318 0.29576 0.0
C1326 C 0.90447 0.74165 0.02543 0.0
C1327 C 0.91275 0.72406 0.05252 0.0
H1328 H 0.87756 0.74382 0.98317 0.0
C1329 C 0.89574 0.69641 0.05991 0.0
H1330 H 0.91691 0.76303 0.0189 0.0
C1331 C 0.8728 0.68528 0.03914 0.0
C1332 C 0.86691 0.70156 0.01064 0.0
H1333 H 0.90101 0.68275 0.08103 0.0
H1334 H 0.86105 0.66321 0.04448 0.0
C1335 C 0.88212 0.73039 0.00466 0.0
C1336 C 0.17058 0.54783 0.35705 0.0
C1337 C 0.17657 0.51978 0.3402 0.0
H1338 H 0.18694 0.57939 0.39281 0.0
C1339 C 0.20083 0.49934 0.35061 0.0
H1340 H 0.1515 0.56366 0.35024 0.0
C1341 C 0.22079 0.50829 0.37474 0.0
C1342 C 0.21673 0.53759 0.38953 0.0
H1343 H 0.20617 0.47751 0.33843 0.0
H1344 H 0.24067 0.49298 0.38063 0.0
C1345 C 0.19058 0.55671 0.38163 0.0
C1346 C 0.70119 0.94337 0.61974 0.0
C1347 C 0.7296 0.95942 0.61385 0.0
H1348 H 0.65943 0.93992 0.64908 0.0
C1349 C 0.73562 0.987 0.63081 0.0
H1350 H 0.69578 0.92228 0.60671 0.0
C1351 C 0.71475 0.99739 0.65433 0.0
C1352 C 0.68764 0.98 0.66226 0.0
H1353 H 0.75701 0.00027 0.62638 0.0
H1354 H 0.72114 0.01789 0.66782 0.0
C1355 C 0.68047 0.95345 0.64399 0.0
C1356 C 0.74992 0.98858 0.37741 0.0
C1357 C 0.77769 0.98164 0.36012 0.0
H1358 H 0.71822 0.97483 0.41449 0.0
C1359 C 0.79248 0.95203 0.36449 0.0
H1360 H 0.73754 0.01094 0.37404 0.0
C1361 C 0.78126 0.93104 0.38799 0.0
C1362 C 0.75502 0.93937 0.40717 0.0
H1363 H 0.81365 0.94589 0.35112 0.0
H1364 H 0.79394 0.90903 0.39208 0.0
C1365 C 0.73854 0.9676 0.40036 0.0
C1366 C 0.75234 0.01388 0.13094 0.0
C1367 C 0.75927 0.04159 0.11369 0.0
H1368 H 0.76668 0.98087 0.16654 0.0
C1369 C 0.78908 0.05533 0.117 0.0
H1370 H 0.72983 0.0023 0.12834 0.0
C1371 C 0.81046 0.04298 0.13931 0.0
C1372 C 0.80241 0.01652 0.15821 0.0
H1373 H 0.7952 0.07639 0.10356 0.0
H1374 H 0.83268 0.0548 0.14256 0.0
C1375 C 0.77376 0.00127 0.15255 0.0
C1376 C 0.70434 0.06465 0.8917 0.0
C1377 C 0.73023 0.05775 0.91141 0.0
H1378 H 0.67431 0.04819 0.85469 0.0
C1379 C 0.74762 0.02974 0.90634 0.0
H1380 H 0.69088 0.08637 0.89449 0.0
C1381 C 0.73803 0.00805 0.88407 0.0
C1382 C 0.71106 0.01385 0.86571 0.0
H1383 H 0.76764 0.0235 0.92097 0.0
H1384 H 0.75146 0.98618 0.8818 0.0
C1385 C 0.69492 0.04291 0.86884 0.0
C1386 C 0.28952 0.44104 0.8933 0.0
C1387 C 0.26691 0.41771 0.88802 0.0
H1388 H 0.32635 0.46957 0.8728 0.0
C1389 C 0.26768 0.40141 0.85946 0.0
H1390 H 0.28887 0.45438 0.91501 0.0
C1391 C 0.2893 0.40963 0.83567 0.0
C1392 C 0.31019 0.43497 0.83954 0.0
H1393 H 0.25005 0.38378 0.85468 0.0
H1394 H 0.28714 0.39802 0.81327 0.0
C1395 C 0.31081 0.44982 0.8691 0.0
C1396 C 0.32264 0.51441 0.6093 0.0
C1397 C 0.30668 0.51108 0.6383 0.0
H1398 H 0.32259 0.53443 0.56315 0.0
C1399 C 0.27991 0.53012 0.6445 0.0
H1400 H 0.34279 0.49931 0.60371 0.0
C1401 C 0.26779 0.55031 0.62088 0.0
C1402 C 0.28259 0.5521 0.59095 0.0
H1403 H 0.26675 0.52725 0.66649 0.0
H1404 H 0.24576 0.56294 0.6253 0.0
C1405 C 0.31093 0.53485 0.58601 0.0
C1406 C 0.23828 0.46007 0.09484 0.0
C1407 C 0.21802 0.43447 0.09056 0.0
H1408 H 0.24632 0.50359 0.1182 0.0
C1409 C 0.19078 0.43204 0.10992 0.0
H1410 H 0.25932 0.46288 0.08024 0.0
C1411 C 0.18339 0.45553 0.13219 0.0
C1412 C 0.20281 0.48208 0.13484 0.0
H1413 H 0.17489 0.4124 0.10737 0.0
H1414 H 0.16194 0.45361 0.14631 0.0
C1415 C 0.2306 0.48367 0.11638 0.0
loop_
_geom_bond_atom_site_label_1
_geom_bond_atom_site_label_2
_geom_bond_distance
_geom_bond_site_symmetry_2
_ccdc_geom_bond_type
Co0 O3 1.970 . S
Co0 N17 1.989 . S
Co0 O25 1.967 . S
Co0 O32 1.920 . S
Co1 O4 1.966 . S
Co1 N10 2.022 . S
Co1 N18 1.993 . S
Co1 O26 1.941 . S
C2 O3 1.258 . S
C2 O4 1.263 . S
O3 Co0 1.970 . S
O3 C2 1.258 . S
O4 Co1 1.966 . S
O4 C2 1.263 . S
C5 O6 1.235 . S
C5 O32 1.289 . S
O6 C5 1.235 . S
C7 C9 1.400 . S
C7 N10 1.351 . S
C7 C12 1.501 . S
C8 C9 1.387 . S
C8 N11 1.341 . S
C9 C7 1.400 . S
C9 C8 1.387 . S
N10 Co1 2.022 . S
N10 C7 1.351 . S
N10 N11 1.365 . S
N11 C8 1.341 . S
N11 N10 1.365 . S
N11 H31 0.862 . S
C12 C7 1.501 . S
C12 H13 0.961 . S
C12 H14 0.961 . S
C12 H15 0.960 . S
H13 C12 0.961 . S
H14 C12 0.961 . S
H15 C12 0.960 . S
C16 N17 1.342 . S
C16 C20 1.401 . S
C16 C21 1.499 . S
N17 Co0 1.989 . S
N17 C16 1.342 . S
N17 N18 1.388 . S
N18 Co1 1.993 . S
N18 N17 1.388 . S
N18 C19 1.346 . S
C19 N18 1.346 . S
C19 C20 1.396 . S
C19 C29 1.510 . S
C20 C16 1.401 . S
C20 C19 1.396 . S
C21 C16 1.499 . S
C21 H22 0.959 . S
C21 H23 0.960 . S
C21 H24 0.961 . S
H22 C21 0.959 . S
H23 C21 0.960 . S
H24 C21 0.961 . S
O25 Co0 1.967 . S
O25 C33 1.258 . S
O26 Co1 1.941 . S
O26 C33 1.266 . S
H27 C29 0.959 . S
H28 C29 0.961 . S
C29 C19 1.510 . S
C29 H27 0.959 . S
C29 H28 0.961 . S
C29 H30 0.960 . S
H30 C29 0.960 . S
H31 N11 0.862 . S
O32 Co0 1.920 . S
O32 C5 1.289 . S
C33 O25 1.258 . S
C33 O26 1.266 . S
Co34 O37 1.970 . S
Co34 N51 1.989 . S
Co34 O59 1.967 . S
Co34 O66 1.920 . S
Co35 O38 1.966 . S
Co35 N44 2.022 . S
Co35 N52 1.993 . S
Co35 O60 1.941 . S
C36 O37 1.258 . S
C36 O38 1.263 . S
O37 Co34 1.970 . S
O37 C36 1.258 . S
O38 Co35 1.966 . S
O38 C36 1.263 . S
C39 O40 1.235 . S
C39 O66 1.289 . S
O40 C39 1.235 . S
C41 C43 1.400 . S
C41 N44 1.351 . S
C41 C46 1.501 . S
C42 C43 1.387 . S
C42 N45 1.341 . S
C43 C41 1.400 . S
C43 C42 1.387 . S
N44 Co35 2.022 . S
N44 C41 1.351 . S
N44 N45 1.365 . S
N45 C42 1.341 . S
N45 N44 1.365 . S
N45 H65 0.862 . S
C46 C41 1.501 . S
C46 H47 0.961 . S
C46 H48 0.961 . S
C46 H49 0.960 . S
H47 C46 0.961 . S
H48 C46 0.961 . S
H49 C46 0.960 . S
C50 N51 1.342 . S
C50 C54 1.401 . S
C50 C55 1.499 . S
N51 Co34 1.989 . S
N51 C50 1.342 . S
N51 N52 1.388 . S
N52 Co35 1.993 . S
N52 N51 1.388 . S
N52 C53 1.346 . S
C53 N52 1.346 . S
C53 C54 1.396 . S
C53 C63 1.510 . S
C54 C50 1.401 . S
C54 C53 1.396 . S
C55 C50 1.499 . S
C55 H56 0.959 . S
C55 H57 0.960 . S
C55 H58 0.961 . S
H56 C55 0.959 . S
H57 C55 0.960 . S
H58 C55 0.961 . S
O59 Co34 1.967 . S
O59 C67 1.258 . S
O60 Co35 1.941 . S
O60 C67 1.266 . S
H61 C63 0.959 . S
H62 C63 0.961 . S
C63 C53 1.510 . S
C63 H61 0.959 . S
C63 H62 0.961 . S
C63 H64 0.960 . S
H64 C63 0.960 . S
H65 N45 0.862 . S
O66 Co34 1.920 . S
O66 C39 1.289 . S
C67 O59 1.258 . S
C67 O60 1.266 . S
Co68 O71 1.970 . S
Co68 N85 1.989 . S
Co68 O93 1.967 . S
Co68 O100 1.920 . S
Co69 O72 1.966 . S
Co69 N78 2.022 . S
Co69 N86 1.993 . S
Co69 O94 1.941 . S
C70 O71 1.258 . S
C70 O72 1.263 . S
O71 Co68 1.970 . S
O71 C70 1.258 . S
O72 Co69 1.966 . S
O72 C70 1.263 . S
C73 O74 1.235 . S
C73 O100 1.289 . S
O74 C73 1.235 . S
C75 C77 1.400 . S
C75 N78 1.351 . S
C75 C80 1.501 . S
C76 C77 1.387 1_556 S
C76 N79 1.341 1_556 S
C77 C75 1.400 . S
C77 C76 1.387 1_554 S
N78 Co69 2.022 . S
N78 C75 1.351 . S
N78 N79 1.365 . S
N79 C76 1.341 1_554 S
N79 N78 1.365 . S
N79 H99 0.870 . S
C80 C75 1.501 . S
C80 H81 0.961 . S
C80 H82 0.961 . S
C80 H83 0.960 . S
H81 C80 0.961 . S
H82 C80 0.961 . S
H83 C80 0.960 . S
C84 N85 1.342 . S
C84 C88 1.401 . S
C84 C89 1.499 . S
N85 Co68 1.989 . S
N85 C84 1.342 . S
N85 N86 1.388 . S
N86 Co69 1.993 . S
N86 N85 1.388 . S
N86 C87 1.346 . S
C87 N86 1.346 . S
C87 C88 1.396 . S
C87 C97 1.510 . S
C88 C84 1.401 . S
C88 C87 1.396 . S
C89 C84 1.499 . S
C89 H90 0.959 . S
C89 H91 0.960 . S
C89 H92 0.961 . S
H90 C89 0.959 . S
H91 C89 0.960 . S
H92 C89 0.961 . S
O93 Co68 1.967 . S
O93 C101 1.258 . S
O94 Co69 1.941 . S
O94 C101 1.266 . S
H95 C97 0.959 . S
H96 C97 0.961 . S
C97 C87 1.510 . S
C97 H95 0.959 . S
C97 H96 0.961 . S
C97 H98 0.960 . S
H98 C97 0.960 . S
H99 N79 0.870 . S
O100 Co68 1.920 . S
O100 C73 1.289 . S
C101 O93 1.258 . S
C101 O94 1.266 . S
Co102 O105 1.993 . S
Co102 N119 1.972 1_655 S
Co102 O127 1.971 . S
Co102 O134 1.914 1_655 S
Co103 O106 1.966 . S
Co103 N112 2.022 . S
Co103 N120 1.993 1_655 S
Co103 O128 1.941 . S
C104 O105 1.258 . S
C104 O106 1.263 . S
O105 Co102 1.993 . S
O105 C104 1.258 . S
O106 Co103 1.966 . S
O106 C104 1.263 . S
C107 O108 1.235 . S
C107 O134 1.289 . S
O108 C107 1.235 . S
C109 C111 1.400 . S
C109 N112 1.351 . S
C109 C114 1.501 . S
C110 C111 1.387 1_455 S
C110 N113 1.341 . S
C111 C109 1.400 . S
C111 C110 1.387 1_655 S
N112 Co103 2.022 . S
N112 C109 1.351 . S
N112 N113 1.365 1_655 S
N113 C110 1.341 . S
N113 N112 1.365 1_455 S
N113 H133 0.862 . S
C114 C109 1.501 . S
C114 H115 0.961 . S
C114 H116 0.961 . S
C114 H117 0.960 . S
H115 C114 0.961 . S
H116 C114 0.961 . S
H117 C114 0.960 . S
C118 N119 1.342 . S
C118 C122 1.401 . S
C118 C123 1.499 . S
N119 Co102 1.972 1_455 S
N119 C118 1.342 . S
N119 N120 1.388 . S
N120 Co103 1.993 1_455 S
N120 N119 1.388 . S
N120 C121 1.346 . S
C121 N120 1.346 . S
C121 C122 1.396 . S
C121 C131 1.510 . S
C122 C118 1.401 . S
C122 C121 1.396 . S
C123 C118 1.499 . S
C123 H124 0.959 . S
C123 H125 0.960 . S
C123 H126 0.961 . S
H124 C123 0.959 . S
H125 C123 0.960 . S
H126 C123 0.961 . S
O127 Co102 1.971 . S
O127 C135 1.258 . S
O128 Co103 1.941 . S
O128 C135 1.266 . S
H129 C131 0.959 . S
H130 C131 0.961 . S
C131 C121 1.510 . S
C131 H129 0.959 . S
C131 H130 0.961 . S
C131 H132 0.960 . S
H132 C131 0.960 . S
H133 N113 0.862 . S
O134 Co102 1.914 1_455 S
O134 C107 1.289 . S
C135 O127 1.258 . S
C135 O128 1.266 . S
Co136 O139 1.970 . S
Co136 N153 1.989 . S
Co136 O161 1.967 . S
Co136 O168 1.920 . S
Co137 O140 1.966 . S
Co137 N146 2.022 . S
Co137 N154 1.993 . S
Co137 O162 1.941 . S
C138 O139 1.258 . S
C138 O140 1.263 . S
O139 Co136 1.970 . S
O139 C138 1.258 . S
O140 Co137 1.966 . S
O140 C138 1.263 . S
C141 O142 1.235 . S
C141 O168 1.289 . S
O142 C141 1.235 . S
C143 C145 1.400 . S
C143 N146 1.351 . S
C143 C148 1.501 . S
C144 C145 1.387 . S
C144 N147 1.341 . S
C145 C143 1.400 . S
C145 C144 1.387 . S
N146 Co137 2.022 . S
N146 C143 1.351 . S
N146 N147 1.365 . S
N147 C144 1.341 . S
N147 N146 1.365 . S
N147 H167 0.862 . S
C148 C143 1.501 . S
C148 H149 0.961 . S
C148 H150 0.961 . S
C148 H151 0.960 . S
H149 C148 0.961 . S
H150 C148 0.961 . S
H151 C148 0.960 . S
C152 N153 1.342 . S
C152 C156 1.401 . S
C152 C157 1.499 . S
N153 Co136 1.989 . S
N153 C152 1.342 . S
N153 N154 1.388 . S
N154 Co137 1.993 . S
N154 N153 1.388 . S
N154 C155 1.346 . S
C155 N154 1.346 . S
C155 C156 1.396 . S
C155 C165 1.510 . S
C156 C152 1.401 . S
C156 C155 1.396 . S
C157 C152 1.499 . S
C157 H158 0.959 . S
C157 H159 0.960 . S
C157 H160 0.961 . S
H158 C157 0.959 . S
H159 C157 0.960 . S
H160 C157 0.961 . S
O161 Co136 1.967 . S
O161 C169 1.258 . S
O162 Co137 1.941 . S
O162 C169 1.266 . S
H163 C165 0.959 . S
H164 C165 0.961 . S
C165 C155 1.510 . S
C165 H163 0.959 . S
C165 H164 0.961 . S
C165 H166 0.960 . S
H166 C165 0.960 . S
H167 N147 0.862 . S
O168 Co136 1.920 . S
O168 C141 1.289 . S
C169 O161 1.258 . S
C169 O162 1.266 . S
Co170 O173 1.970 . S
Co170 N187 1.989 . S
Co170 O195 1.967 . S
Co170 O202 1.920 . S
Co171 O174 1.966 . S
Co171 N180 2.022 1_565 S
Co171 N188 1.993 . S
Co171 O196 1.941 . S
C172 O173 1.258 . S
C172 O174 1.263 . S
O173 Co170 1.970 . S
O173 C172 1.258 . S
O174 Co171 1.966 . S
O174 C172 1.263 . S
C175 O176 1.235 . S
C175 O202 1.289 . S
O176 C175 1.235 . S
C177 C179 1.400 . S
C177 N180 1.351 . S
C177 C182 1.501 . S
C178 C179 1.387 . S
C178 N181 1.341 . S
C179 C177 1.400 . S
C179 C178 1.387 . S
N180 Co171 2.022 1_545 S
N180 C177 1.351 . S
N180 N181 1.365 . S
N181 C178 1.341 . S
N181 N180 1.365 . S
N181 H201 0.862 . S
C182 C177 1.501 . S
C182 H183 0.961 . S
C182 H184 0.961 . S
C182 H185 0.960 . S
H183 C182 0.961 . S
H184 C182 0.961 . S
H185 C182 0.960 . S
C186 N187 1.342 . S
C186 C190 1.401 . S
C186 C191 1.499 . S
N187 Co170 1.989 . S
N187 C186 1.342 . S
N187 N188 1.388 . S
N188 Co171 1.993 . S
N188 N187 1.388 . S
N188 C189 1.346 . S
C189 N188 1.346 . S
C189 C190 1.396 . S
C189 C199 1.510 1_565 S
C190 C186 1.401 . S
C190 C189 1.396 . S
C191 C186 1.499 . S
C191 H192 0.959 . S
C191 H193 0.960 . S
C191 H194 0.961 . S
H192 C191 0.959 . S
H193 C191 0.960 . S
H194 C191 0.961 . S
O195 Co170 1.967 . S
O195 C203 1.258 . S
O196 Co171 1.941 . S
O196 C203 1.266 . S
H197 C199 0.959 . S
H198 C199 0.961 . S
C199 C189 1.510 1_545 S
C199 H197 0.959 . S
C199 H198 0.961 . S
C199 H200 0.960 . S
H200 C199 0.960 . S
H201 N181 0.862 . S
O202 Co170 1.920 . S
O202 C175 1.289 . S
C203 O195 1.258 . S
C203 O196 1.266 . S
Co204 O207 1.970 . S
Co204 N221 1.989 . S
Co204 O229 1.967 . S
Co204 O236 1.920 . S
Co205 O208 1.966 . S
Co205 N214 2.022 . S
Co205 N222 1.993 . S
Co205 O230 1.941 . S
C206 O207 1.258 . S
C206 O208 1.263 . S
O207 Co204 1.970 . S
O207 C206 1.258 . S
O208 Co205 1.966 . S
O208 C206 1.263 . S
C209 O210 1.235 . S
C209 O236 1.289 . S
O210 C209 1.235 . S
C211 C213 1.400 . S
C211 N214 1.351 . S
C211 C216 1.501 . S
C212 C213 1.388 1_554 S
C212 N215 1.341 1_554 S
C213 C211 1.400 . S
C213 C212 1.388 1_556 S
N214 Co205 2.022 . S
N214 C211 1.351 . S
N214 N215 1.365 . S
N215 C212 1.341 1_556 S
N215 N214 1.365 . S
N215 H235 0.862 . S
C216 C211 1.501 . S
C216 H217 0.961 . S
C216 H218 0.961 . S
C216 H219 0.960 . S
H217 C216 0.961 . S
H218 C216 0.961 . S
H219 C216 0.960 . S
C220 N221 1.342 . S
C220 C224 1.401 . S
C220 C225 1.499 . S
N221 Co204 1.989 . S
N221 C220 1.342 . S
N221 N222 1.388 . S
N222 Co205 1.993 . S
N222 N221 1.388 . S
N222 C223 1.346 . S
C223 N222 1.346 . S
C223 C224 1.396 . S
C223 C233 1.510 . S
C224 C220 1.401 . S
C224 C223 1.396 . S
C225 C220 1.499 . S
C225 H226 0.959 . S
C225 H227 0.960 . S
C225 H228 0.961 . S
H226 C225 0.959 . S
H227 C225 0.960 . S
H228 C225 0.961 . S
O229 Co204 1.967 . S
O229 C237 1.258 . S
O230 Co205 1.941 . S
O230 C237 1.266 . S
H231 C233 0.959 . S
H232 C233 0.961 . S
C233 C223 1.510 . S
C233 H231 0.959 . S
C233 H232 0.961 . S
C233 H234 0.960 . S
H234 C233 0.960 . S
H235 N215 0.862 . S
O236 Co204 1.920 . S
O236 C209 1.289 . S
C237 O229 1.258 . S
C237 O230 1.266 . S
Co238 O241 1.970 . S
Co238 N255 1.989 1_455 S
Co238 O263 1.967 . S
Co238 O270 1.920 1_455 S
Co239 O242 1.966 . S
Co239 N248 2.022 1_545 S
Co239 N256 1.993 1_455 S
Co239 O264 1.941 . S
C240 O241 1.258 . S
C240 O242 1.263 . S
O241 Co238 1.970 . S
O241 C240 1.258 . S
O242 Co239 1.966 . S
O242 C240 1.263 . S
C243 O244 1.235 . S
C243 O270 1.289 . S
O244 C243 1.235 . S
C245 C247 1.400 . S
C245 N248 1.351 . S
C245 C250 1.501 . S
C246 C247 1.387 1_655 S
C246 N249 1.341 . S
C247 C245 1.400 . S
C247 C246 1.387 1_455 S
N248 Co239 2.022 1_565 S
N248 C245 1.351 . S
N248 N249 1.365 1_455 S
N249 C246 1.341 . S
N249 N248 1.365 1_655 S
N249 H269 0.862 . S
C250 C245 1.501 . S
C250 H251 0.961 . S
C250 H252 0.961 . S
C250 H253 0.960 . S
H251 C250 0.961 . S
H252 C250 0.961 . S
H253 C250 0.960 . S
C254 N255 1.342 . S
C254 C258 1.401 . S
C254 C259 1.499 . S
N255 Co238 1.989 1_655 S
N255 C254 1.342 . S
N255 N256 1.388 . S
N256 Co239 1.993 1_655 S
N256 N255 1.388 . S
N256 C257 1.346 . S
C257 N256 1.346 . S
C257 C258 1.396 . S
C257 C267 1.510 1_545 S
C258 C254 1.401 . S
C258 C257 1.396 . S
C259 C254 1.499 . S
C259 H260 0.959 . S
C259 H261 0.960 . S
C259 H262 0.961 . S
H260 C259 0.959 . S
H261 C259 0.960 . S
H262 C259 0.961 . S
O263 Co238 1.967 . S
O263 C271 1.258 . S
O264 Co239 1.941 . S
O264 C271 1.266 . S
H265 C267 0.959 . S
H266 C267 0.961 . S
C267 C257 1.510 1_565 S
C267 H265 0.959 . S
C267 H266 0.961 . S
C267 H268 0.960 . S
H268 C267 0.960 . S
H269 N249 0.862 . S
O270 Co238 1.920 1_655 S
O270 C243 1.289 . S
C271 O263 1.258 . S
C271 O264 1.266 . S
Co272 O275 1.970 . S
Co272 N289 1.989 . S
Co272 O297 1.967 . S
Co272 O304 1.920 . S
Co273 O276 1.966 . S
Co273 N282 2.022 . S
Co273 N290 1.993 . S
Co273 O298 1.941 . S
C274 O275 1.258 . S
C274 O276 1.263 . S
O275 Co272 1.970 . S
O275 C274 1.258 . S
O276 Co273 1.966 . S
O276 C274 1.263 . S
C277 O278 1.235 . S
C277 O304 1.289 . S
O278 C277 1.235 . S
C279 C281 1.400 . S
C279 N282 1.351 . S
C279 C284 1.501 . S
C280 C281 1.387 . S
C280 N283 1.341 . S
C281 C279 1.400 . S
C281 C280 1.387 . S
N282 Co273 2.022 . S
N282 C279 1.351 . S
N282 N283 1.365 . S
N283 C280 1.341 . S
N283 N282 1.365 . S
N283 H303 0.862 . S
C284 C279 1.501 . S
C284 H285 0.961 . S
C284 H286 0.961 . S
C284 H287 0.960 . S
H285 C284 0.961 . S
H286 C284 0.961 . S
H287 C284 0.960 . S
C288 N289 1.342 . S
C288 C292 1.401 . S
C288 C293 1.499 . S
N289 Co272 1.989 . S
N289 C288 1.342 . S
N289 N290 1.388 . S
N290 Co273 1.993 . S
N290 N289 1.388 . S
N290 C291 1.346 . S
C291 N290 1.346 . S
C291 C292 1.396 . S
C291 C301 1.510 . S
C292 C288 1.401 . S
C292 C291 1.396 . S
C293 C288 1.499 . S
C293 H294 0.959 . S
C293 H295 0.960 . S
C293 H296 0.961 . S
H294 C293 0.959 . S
H295 C293 0.960 . S
H296 C293 0.961 . S
O297 Co272 1.967 . S
O297 C305 1.258 . S
O298 Co273 1.941 . S
O298 C305 1.266 . S
H299 C301 0.959 . S
H300 C301 0.961 . S
C301 C291 1.510 . S
C301 H299 0.959 . S
C301 H300 0.961 . S
C301 H302 0.960 . S
H302 C301 0.960 . S
H303 N283 0.862 . S
O304 Co272 1.920 . S
O304 C277 1.289 . S
C305 O297 1.258 . S
C305 O298 1.266 . S
Co306 O309 1.993 . S
Co306 N323 1.972 1_556 S
Co306 O331 1.971 . S
Co306 O338 1.914 1_556 S
Co307 O310 1.966 . S
Co307 N316 2.022 . S
Co307 N324 1.993 1_556 S
Co307 O332 1.941 . S
C308 O309 1.258 . S
C308 O310 1.263 . S
O309 Co306 1.993 . S
O309 C308 1.258 . S
O310 Co307 1.966 . S
O310 C308 1.263 . S
C311 O312 1.235 . S
C311 O338 1.289 . S
O312 C311 1.235 . S
C313 C315 1.400 . S
C313 N316 1.351 . S
C313 C318 1.501 . S
C314 C315 1.387 1_554 S
C314 N317 1.341 . S
C315 C313 1.400 . S
C315 C314 1.387 1_556 S
N316 Co307 2.022 . S
N316 C313 1.351 . S
N316 N317 1.365 1_556 S
N317 C314 1.341 . S
N317 N316 1.365 1_554 S
N317 H337 0.862 . S
C318 C313 1.501 . S
C318 H319 0.961 . S
C318 H320 0.961 . S
C318 H321 0.960 . S
H319 C318 0.961 . S
H320 C318 0.961 . S
H321 C318 0.960 . S
C322 N323 1.342 . S
C322 C326 1.401 . S
C322 C327 1.499 . S
N323 Co306 1.972 1_554 S
N323 C322 1.342 . S
N323 N324 1.388 . S
N324 Co307 1.993 1_554 S
N324 N323 1.388 . S
N324 C325 1.346 . S
C325 N324 1.346 . S
C325 C326 1.396 . S
C325 C335 1.510 . S
C326 C322 1.401 . S
C326 C325 1.396 . S
C327 C322 1.499 . S
C327 H328 0.959 . S
C327 H329 0.960 . S
C327 H330 0.961 . S
H328 C327 0.959 . S
H329 C327 0.960 . S
H330 C327 0.961 . S
O331 Co306 1.971 . S
O331 C339 1.258 . S
O332 Co307 1.941 . S
O332 C339 1.266 . S
H333 C335 0.959 . S
H334 C335 0.961 . S
C335 C325 1.510 . S
C335 H333 0.959 . S
C335 H334 0.961 . S
C335 H336 0.960 . S
H336 C335 0.960 . S
H337 N317 0.862 . S
O338 Co306 1.914 1_554 S
O338 C311 1.289 . S
C339 O331 1.258 . S
C339 O332 1.266 . S
Co340 O343 1.970 . S
Co340 N357 1.989 . S
Co340 O365 1.967 . S
Co340 O372 1.920 . S
Co341 O344 1.966 . S
Co341 N350 2.022 . S
Co341 N358 1.993 . S
Co341 O366 1.941 . S
C342 O343 1.258 . S
C342 O344 1.263 . S
O343 Co340 1.970 . S
O343 C342 1.258 . S
O344 Co341 1.966 . S
O344 C342 1.263 . S
C345 O346 1.235 . S
C345 O372 1.289 . S
O346 C345 1.235 . S
C347 C349 1.400 . S
C347 N350 1.351 . S
C347 C352 1.501 . S
C348 C349 1.388 1_455 S
C348 N351 1.341 1_455 S
C349 C347 1.400 . S
C349 C348 1.388 1_655 S
N350 Co341 2.022 . S
N350 C347 1.351 . S
N350 N351 1.365 . S
N351 C348 1.341 1_655 S
N351 N350 1.365 . S
N351 H371 0.862 . S
C352 C347 1.501 . S
C352 H353 0.961 . S
C352 H354 0.961 . S
C352 H355 0.960 . S
H353 C352 0.961 . S
H354 C352 0.961 . S
H355 C352 0.960 . S
C356 N357 1.342 . S
C356 C360 1.401 . S
C356 C361 1.499 . S
N357 Co340 1.989 . S
N357 C356 1.342 . S
N357 N358 1.388 . S
N358 Co341 1.993 . S
N358 N357 1.388 . S
N358 C359 1.346 . S
C359 N358 1.346 . S
C359 C360 1.396 . S
C359 C369 1.510 . S
C360 C356 1.401 . S
C360 C359 1.396 . S
C361 C356 1.499 . S
C361 H362 0.959 . S
C361 H363 0.960 . S
C361 H364 0.961 . S
H362 C361 0.959 . S
H363 C361 0.960 . S
H364 C361 0.961 . S
O365 Co340 1.967 . S
O365 C373 1.258 . S
O366 Co341 1.941 . S
O366 C373 1.266 . S
H367 C369 0.959 . S
H368 C369 0.961 . S
C369 C359 1.510 . S
C369 H367 0.959 . S
C369 H368 0.961 . S
C369 H370 0.960 . S
H370 C369 0.960 . S
H371 N351 0.862 . S
O372 Co340 1.920 . S
O372 C345 1.289 . S
C373 O365 1.258 . S
C373 O366 1.266 . S
Co374 O377 1.970 . S
Co374 N391 1.989 . S
Co374 O399 1.967 . S
Co374 O406 1.920 . S
Co375 O378 1.966 . S
Co375 N384 2.022 1_655 S
Co375 N392 1.993 . S
Co375 O400 1.941 . S
C376 O377 1.258 . S
C376 O378 1.263 . S
O377 Co374 1.970 . S
O377 C376 1.258 . S
O378 Co375 1.966 . S
O378 C376 1.263 . S
C379 O380 1.235 . S
C379 O406 1.289 . S
O380 C379 1.235 . S
C381 C383 1.400 . S
C381 N384 1.351 . S
C381 C386 1.501 . S
C382 C383 1.387 . S
C382 N385 1.341 . S
C383 C381 1.400 . S
C383 C382 1.387 . S
N384 Co375 2.022 1_455 S
N384 C381 1.351 . S
N384 N385 1.365 . S
N385 C382 1.341 . S
N385 N384 1.365 . S
N385 H405 0.862 . S
C386 C381 1.501 . S
C386 H387 0.961 . S
C386 H388 0.961 . S
C386 H389 0.960 . S
H387 C386 0.961 . S
H388 C386 0.961 . S
H389 C386 0.960 . S
C390 N391 1.342 . S
C390 C394 1.401 . S
C390 C395 1.499 . S
N391 Co374 1.989 . S
N391 C390 1.342 . S
N391 N392 1.388 . S
N392 Co375 1.993 . S
N392 N391 1.388 . S
N392 C393 1.346 . S
C393 N392 1.346 . S
C393 C394 1.396 . S
C393 C403 1.510 1_655 S
C394 C390 1.401 . S
C394 C393 1.396 . S
C395 C390 1.499 . S
C395 H396 0.959 . S
C395 H397 0.960 . S
C395 H398 0.961 . S
H396 C395 0.959 . S
H397 C395 0.960 . S
H398 C395 0.961 . S
O399 Co374 1.967 . S
O399 C407 1.258 . S
O400 Co375 1.941 . S
O400 C407 1.266 . S
H401 C403 0.959 . S
H402 C403 0.961 . S
C403 C393 1.510 1_455 S
C403 H401 0.959 . S
C403 H402 0.961 . S
C403 H404 0.960 . S
H404 C403 0.960 . S
H405 N385 0.862 . S
O406 Co374 1.920 . S
O406 C379 1.289 . S
C407 O399 1.258 . S
C407 O400 1.266 . S
Co408 O411 1.970 . S
Co408 N425 1.989 . S
Co408 O433 1.967 . S
Co408 O440 1.920 . S
Co409 O412 1.966 . S
Co409 N418 2.022 . S
Co409 N426 1.993 . S
Co409 O434 1.941 . S
C410 O411 1.258 . S
C410 O412 1.263 . S
O411 Co408 1.970 . S
O411 C410 1.258 . S
O412 Co409 1.966 . S
O412 C410 1.263 . S
C413 O414 1.235 . S
C413 O440 1.289 . S
O414 C413 1.235 . S
C415 C417 1.400 . S
C415 N418 1.351 . S
C415 C420 1.501 . S
C416 C417 1.387 1_655 S
C416 N419 1.341 1_655 S
C417 C415 1.400 . S
C417 C416 1.387 1_455 S
N418 Co409 2.022 . S
N418 C415 1.351 . S
N418 N419 1.365 . S
N419 C416 1.341 1_455 S
N419 N418 1.365 . S
N419 H439 0.870 . S
C420 C415 1.501 . S
C420 H421 0.961 . S
C420 H422 0.961 . S
C420 H423 0.960 . S
H421 C420 0.961 . S
H422 C420 0.961 . S
H423 C420 0.960 . S
C424 N425 1.342 . S
C424 C428 1.401 . S
C424 C429 1.499 . S
N425 Co408 1.989 . S
N425 C424 1.342 . S
N425 N426 1.388 . S
N426 Co409 1.993 . S
N426 N425 1.388 . S
N426 C427 1.346 . S
C427 N426 1.346 . S
C427 C428 1.396 . S
C427 C437 1.510 . S
C428 C424 1.401 . S
C428 C427 1.396 . S
C429 C424 1.499 . S
C429 H430 0.959 . S
C429 H431 0.960 . S
C429 H432 0.961 . S
H430 C429 0.959 . S
H431 C429 0.960 . S
H432 C429 0.961 . S
O433 Co408 1.967 . S
O433 C441 1.258 . S
O434 Co409 1.941 . S
O434 C441 1.266 . S
H435 C437 0.959 . S
H436 C437 0.961 . S
C437 C427 1.510 . S
C437 H435 0.959 . S
C437 H436 0.961 . S
C437 H438 0.960 . S
H438 C437 0.960 . S
H439 N419 0.870 . S
O440 Co408 1.920 . S
O440 C413 1.289 . S
C441 O433 1.258 . S
C441 O434 1.266 . S
Co442 O445 1.970 . S
Co442 N459 1.989 . S
Co442 O467 1.967 . S
Co442 O474 1.920 . S
Co443 O446 1.966 . S
Co443 N452 2.022 . S
Co443 N460 1.993 . S
Co443 O468 1.941 . S
C444 O445 1.258 . S
C444 O446 1.263 . S
O445 Co442 1.970 . S
O445 C444 1.258 . S
O446 Co443 1.966 . S
O446 C444 1.263 . S
C447 O448 1.235 . S
C447 O474 1.289 . S
O448 C447 1.235 . S
C449 C451 1.400 . S
C449 N452 1.351 . S
C449 C454 1.501 . S
C450 C451 1.387 . S
C450 N453 1.341 . S
C451 C449 1.400 . S
C451 C450 1.387 . S
N452 Co443 2.022 . S
N452 C449 1.351 . S
N452 N453 1.365 . S
N453 C450 1.341 . S
N453 N452 1.365 . S
N453 H473 0.862 . S
C454 C449 1.501 . S
C454 H455 0.961 . S
C454 H456 0.961 . S
C454 H457 0.960 . S
H455 C454 0.961 . S
H456 C454 0.961 . S
H457 C454 0.960 . S
C458 N459 1.342 . S
C458 C462 1.401 . S
C458 C463 1.499 . S
N459 Co442 1.989 . S
N459 C458 1.342 . S
N459 N460 1.388 . S
N460 Co443 1.993 . S
N460 N459 1.388 . S
N460 C461 1.346 . S
C461 N460 1.346 . S
C461 C462 1.396 . S
C461 C471 1.510 . S
C462 C458 1.401 . S
C462 C461 1.396 . S
C463 C458 1.499 . S
C463 H464 0.959 . S
C463 H465 0.960 . S
C463 H466 0.961 . S
H464 C463 0.959 . S
H465 C463 0.960 . S
H466 C463 0.961 . S
O467 Co442 1.967 . S
O467 C475 1.258 . S
O468 Co443 1.941 . S
O468 C475 1.266 . S
H469 C471 0.959 . S
H470 C471 0.961 . S
C471 C461 1.510 . S
C471 H469 0.959 . S
C471 H470 0.961 . S
C471 H472 0.960 . S
H472 C471 0.960 . S
H473 N453 0.862 . S
O474 Co442 1.920 . S
O474 C447 1.289 . S
C475 O467 1.258 . S
C475 O468 1.266 . S
Co476 O479 1.970 . S
Co476 N493 1.989 . S
Co476 O501 1.967 . S
Co476 O508 1.920 . S
Co477 O480 1.966 . S
Co477 N486 2.022 . S
Co477 N494 1.993 . S
Co477 O502 1.941 . S
C478 O479 1.258 . S
C478 O480 1.263 . S
O479 Co476 1.970 . S
O479 C478 1.258 . S
O480 Co477 1.966 . S
O480 C478 1.263 . S
C481 O482 1.235 . S
C481 O508 1.289 . S
O482 C481 1.235 . S
C483 C485 1.400 . S
C483 N486 1.351 . S
C483 C488 1.501 . S
C484 C485 1.387 . S
C484 N487 1.341 . S
C485 C483 1.400 . S
C485 C484 1.387 . S
N486 Co477 2.022 . S
N486 C483 1.351 . S
N486 N487 1.365 . S
N487 C484 1.341 . S
N487 N486 1.365 . S
N487 H507 0.862 . S
C488 C483 1.501 . S
C488 H489 0.961 . S
C488 H490 0.961 . S
C488 H491 0.960 . S
H489 C488 0.961 . S
H490 C488 0.961 . S
H491 C488 0.960 . S
C492 N493 1.342 . S
C492 C496 1.401 . S
C492 C497 1.499 . S
N493 Co476 1.989 . S
N493 C492 1.342 . S
N493 N494 1.388 . S
N494 Co477 1.993 . S
N494 N493 1.388 . S
N494 C495 1.346 . S
C495 N494 1.346 . S
C495 C496 1.396 . S
C495 C505 1.510 . S
C496 C492 1.401 . S
C496 C495 1.396 . S
C497 C492 1.499 . S
C497 H498 0.959 . S
C497 H499 0.960 . S
C497 H500 0.961 . S
H498 C497 0.959 . S
H499 C497 0.960 . S
H500 C497 0.961 . S
O501 Co476 1.967 . S
O501 C509 1.258 . S
O502 Co477 1.941 . S
O502 C509 1.266 . S
H503 C505 0.959 . S
H504 C505 0.961 . S
C505 C495 1.510 . S
C505 H503 0.959 . S
C505 H504 0.961 . S
C505 H506 0.960 . S
H506 C505 0.960 . S
H507 N487 0.862 . S
O508 Co476 1.920 . S
O508 C481 1.289 . S
C509 O501 1.258 . S
C509 O502 1.266 . S
Co510 O513 1.970 . S
Co510 N527 1.989 1_554 S
Co510 O535 1.967 . S
Co510 O542 1.920 1_554 S
Co511 O514 1.966 . S
Co511 N520 2.022 1_455 S
Co511 N528 1.993 1_554 S
Co511 O536 1.941 . S
C512 O513 1.258 . S
C512 O514 1.263 . S
O513 Co510 1.970 . S
O513 C512 1.258 . S
O514 Co511 1.966 . S
O514 C512 1.263 . S
C515 O516 1.235 . S
C515 O542 1.289 . S
O516 C515 1.235 . S
C517 C519 1.400 . S
C517 N520 1.351 . S
C517 C522 1.501 . S
C518 C519 1.387 1_556 S
C518 N521 1.341 . S
C519 C517 1.400 . S
C519 C518 1.387 1_554 S
N520 Co511 2.022 1_655 S
N520 C517 1.351 . S
N520 N521 1.365 1_554 S
N521 C518 1.341 . S
N521 N520 1.365 1_556 S
N521 H541 0.862 . S
C522 C517 1.501 . S
C522 H523 0.961 . S
C522 H524 0.961 . S
C522 H525 0.960 . S
H523 C522 0.961 . S
H524 C522 0.961 . S
H525 C522 0.960 . S
C526 N527 1.342 . S
C526 C530 1.401 . S
C526 C531 1.499 . S
N527 Co510 1.989 1_556 S
N527 C526 1.342 . S
N527 N528 1.388 . S
N528 Co511 1.993 1_556 S
N528 N527 1.388 . S
N528 C529 1.346 . S
C529 N528 1.346 . S
C529 C530 1.396 . S
C529 C539 1.510 1_455 S
C530 C526 1.401 . S
C530 C529 1.396 . S
C531 C526 1.499 . S
C531 H532 0.959 . S
C531 H533 0.960 . S
C531 H534 0.961 . S
H532 C531 0.959 . S
H533 C531 0.960 . S
H534 C531 0.961 . S
O535 Co510 1.967 . S
O535 C543 1.258 . S
O536 Co511 1.941 . S
O536 C543 1.266 . S
H537 C539 0.959 . S
H538 C539 0.961 . S
C539 C529 1.510 1_655 S
C539 H537 0.959 . S
C539 H538 0.961 . S
C539 H540 0.960 . S
H540 C539 0.960 . S
H541 N521 0.862 . S
O542 Co510 1.920 1_556 S
O542 C515 1.289 . S
C543 O535 1.258 . S
C543 O536 1.266 . S
Co544 O547 1.970 . S
Co544 N561 1.989 . S
Co544 O569 1.967 . S
Co544 O576 1.920 . S
Co545 O548 1.966 . S
Co545 N554 2.022 . S
Co545 N562 1.993 . S
Co545 O570 1.941 . S
C546 O547 1.258 . S
C546 O548 1.263 . S
O547 Co544 1.970 . S
O547 C546 1.258 . S
O548 Co545 1.966 . S
O548 C546 1.263 . S
C549 O550 1.235 . S
C549 O576 1.289 . S
O550 C549 1.235 . S
C551 C553 1.400 . S
C551 N554 1.351 . S
C551 C556 1.501 . S
C552 C553 1.387 . S
C552 N555 1.341 . S
C553 C551 1.400 . S
C553 C552 1.387 . S
N554 Co545 2.022 . S
N554 C551 1.351 . S
N554 N555 1.365 . S
N555 C552 1.341 . S
N555 N554 1.365 . S
N555 H575 0.862 . S
C556 C551 1.501 . S
C556 H557 0.961 . S
C556 H558 0.961 . S
C556 H559 0.960 . S
H557 C556 0.961 . S
H558 C556 0.961 . S
H559 C556 0.960 . S
C560 N561 1.342 . S
C560 C564 1.401 . S
C560 C565 1.499 . S
N561 Co544 1.989 . S
N561 C560 1.342 . S
N561 N562 1.388 . S
N562 Co545 1.993 . S
N562 N561 1.388 . S
N562 C563 1.346 . S
C563 N562 1.346 . S
C563 C564 1.396 . S
C563 C573 1.510 . S
C564 C560 1.401 . S
C564 C563 1.396 . S
C565 C560 1.499 . S
C565 H566 0.959 . S
C565 H567 0.960 . S
C565 H568 0.961 . S
H566 C565 0.959 . S
H567 C565 0.960 . S
H568 C565 0.961 . S
O569 Co544 1.967 . S
O569 C577 1.258 . S
O570 Co545 1.941 . S
O570 C577 1.266 . S
H571 C573 0.959 . S
H572 C573 0.961 . S
C573 C563 1.510 . S
C573 H571 0.959 . S
C573 H572 0.961 . S
C573 H574 0.960 . S
H574 C573 0.960 . S
H575 N555 0.862 . S
O576 Co544 1.920 . S
O576 C549 1.289 . S
C577 O569 1.258 . S
C577 O570 1.266 . S
Co578 O581 1.970 . S
Co578 N595 1.989 . S
Co578 O603 1.967 . S
Co578 O610 1.920 . S
Co579 O582 1.966 . S
Co579 N588 2.022 . S
Co579 N596 1.993 . S
Co579 O604 1.941 . S
C580 O581 1.258 . S
C580 O582 1.263 . S
O581 Co578 1.970 . S
O581 C580 1.258 . S
O582 Co579 1.966 . S
O582 C580 1.263 . S
C583 O584 1.235 . S
C583 O610 1.289 . S
O584 C583 1.235 . S
C585 C587 1.400 . S
C585 N588 1.351 . S
C585 C590 1.501 . S
C586 C587 1.388 1_545 S
C586 N589 1.341 1_545 S
C587 C585 1.400 . S
C587 C586 1.388 1_565 S
N588 Co579 2.022 . S
N588 C585 1.351 . S
N588 N589 1.365 . S
N589 C586 1.341 1_565 S
N589 N588 1.365 . S
N589 H609 0.862 . S
C590 C585 1.501 . S
C590 H591 0.961 . S
C590 H592 0.961 . S
C590 H593 0.960 . S
H591 C590 0.961 . S
H592 C590 0.961 . S
H593 C590 0.960 . S
C594 N595 1.342 . S
C594 C598 1.401 . S
C594 C599 1.499 . S
N595 Co578 1.989 . S
N595 C594 1.342 . S
N595 N596 1.388 . S
N596 Co579 1.993 . S
N596 N595 1.388 . S
N596 C597 1.346 . S
C597 N596 1.346 . S
C597 C598 1.396 . S
C597 C607 1.510 . S
C598 C594 1.401 . S
C598 C597 1.396 . S
C599 C594 1.499 . S
C599 H600 0.959 . S
C599 H601 0.960 . S
C599 H602 0.961 . S
H600 C599 0.959 . S
H601 C599 0.960 . S
H602 C599 0.961 . S
O603 Co578 1.967 . S
O603 C611 1.258 . S
O604 Co579 1.941 . S
O604 C611 1.266 . S
H605 C607 0.959 . S
H606 C607 0.961 . S
C607 C597 1.510 . S
C607 H605 0.959 . S
C607 H606 0.961 . S
C607 H608 0.960 . S
H608 C607 0.960 . S
H609 N589 0.862 . S
O610 Co578 1.920 . S
O610 C583 1.289 . S
C611 O603 1.258 . S
C611 O604 1.266 . S
Co612 O615 1.993 . S
Co612 N629 1.972 1_565 S
Co612 O637 1.971 . S
Co612 O644 1.914 1_565 S
Co613 O616 1.966 . S
Co613 N622 2.022 . S
Co613 N630 1.993 1_565 S
Co613 O638 1.941 . S
C614 O615 1.258 . S
C614 O616 1.263 . S
O615 Co612 1.993 . S
O615 C614 1.258 . S
O616 Co613 1.966 . S
O616 C614 1.263 . S
C617 O618 1.235 . S
C617 O644 1.289 . S
O618 C617 1.235 . S
C619 C621 1.400 . S
C619 N622 1.351 . S
C619 C624 1.501 . S
C620 C621 1.387 1_545 S
C620 N623 1.341 . S
C621 C619 1.400 . S
C621 C620 1.387 1_565 S
N622 Co613 2.022 . S
N622 C619 1.351 . S
N622 N623 1.365 1_565 S
N623 C620 1.341 . S
N623 N622 1.365 1_545 S
N623 H643 0.862 . S
C624 C619 1.501 . S
C624 H625 0.961 . S
C624 H626 0.961 . S
C624 H627 0.960 . S
H625 C624 0.961 . S
H626 C624 0.961 . S
H627 C624 0.960 . S
C628 N629 1.342 . S
C628 C632 1.401 . S
C628 C633 1.499 . S
N629 Co612 1.972 1_545 S
N629 C628 1.342 . S
N629 N630 1.388 . S
N630 Co613 1.993 1_545 S
N630 N629 1.388 . S
N630 C631 1.346 . S
C631 N630 1.346 . S
C631 C632 1.396 . S
C631 C641 1.510 . S
C632 C628 1.401 . S
C632 C631 1.396 . S
C633 C628 1.499 . S
C633 H634 0.959 . S
C633 H635 0.960 . S
C633 H636 0.961 . S
H634 C633 0.959 . S
H635 C633 0.960 . S
H636 C633 0.961 . S
O637 Co612 1.971 . S
O637 C645 1.258 . S
O638 Co613 1.941 . S
O638 C645 1.266 . S
H639 C641 0.959 . S
H640 C641 0.961 . S
C641 C631 1.510 . S
C641 H639 0.959 . S
C641 H640 0.961 . S
C641 H642 0.960 . S
H642 C641 0.960 . S
H643 N623 0.862 . S
O644 Co612 1.914 1_545 S
O644 C617 1.289 . S
C645 O637 1.258 . S
C645 O638 1.266 . S
Co646 O649 1.970 . S
Co646 N663 1.989 . S
Co646 O671 1.967 . S
Co646 O678 1.920 . S
Co647 O650 1.966 . S
Co647 N656 2.022 . S
Co647 N664 1.993 . S
Co647 O672 1.941 . S
C648 O649 1.258 . S
C648 O650 1.263 . S
O649 Co646 1.970 . S
O649 C648 1.258 . S
O650 Co647 1.966 . S
O650 C648 1.263 . S
C651 O652 1.235 . S
C651 O678 1.289 . S
O652 C651 1.235 . S
C653 C655 1.400 . S
C653 N656 1.351 . S
C653 C658 1.501 . S
C654 C655 1.387 1_565 S
C654 N657 1.341 1_565 S
C655 C653 1.400 . S
C655 C654 1.387 1_545 S
N656 Co647 2.022 . S
N656 C653 1.351 . S
N656 N657 1.365 . S
N657 C654 1.341 1_545 S
N657 N656 1.365 . S
N657 H677 0.870 . S
C658 C653 1.501 . S
C658 H659 0.961 . S
C658 H660 0.961 . S
C658 H661 0.960 . S
H659 C658 0.961 . S
H660 C658 0.961 . S
H661 C658 0.960 . S
C662 N663 1.342 . S
C662 C666 1.401 . S
C662 C667 1.499 . S
N663 Co646 1.989 . S
N663 C662 1.342 . S
N663 N664 1.388 . S
N664 Co647 1.993 . S
N664 N663 1.388 . S
N664 C665 1.346 . S
C665 N664 1.346 . S
C665 C666 1.396 . S
C665 C675 1.510 . S
C666 C662 1.401 . S
C666 C665 1.396 . S
C667 C662 1.499 . S
C667 H668 0.959 . S
C667 H669 0.960 . S
C667 H670 0.961 . S
H668 C667 0.959 . S
H669 C667 0.960 . S
H670 C667 0.961 . S
O671 Co646 1.967 . S
O671 C679 1.258 . S
O672 Co647 1.941 . S
O672 C679 1.266 . S
H673 C675 0.959 . S
H674 C675 0.961 . S
C675 C665 1.510 . S
C675 H673 0.959 . S
C675 H674 0.961 . S
C675 H676 0.960 . S
H676 C675 0.960 . S
H677 N657 0.870 . S
O678 Co646 1.920 . S
O678 C651 1.289 . S
C679 O671 1.258 . S
C679 O672 1.266 . S
Co680 O683 1.970 . S
Co680 N697 1.989 1_545 S
Co680 O705 1.967 . S
Co680 O712 1.920 1_545 S
Co681 O684 1.966 . S
Co681 N690 2.022 1_554 S
Co681 N698 1.993 1_545 S
Co681 O706 1.941 . S
C682 O683 1.258 . S
C682 O684 1.263 . S
O683 Co680 1.970 . S
O683 C682 1.258 . S
O684 Co681 1.966 . S
O684 C682 1.263 . S
C685 O686 1.235 . S
C685 O712 1.289 . S
O686 C685 1.235 . S
C687 C689 1.400 . S
C687 N690 1.351 . S
C687 C692 1.501 . S
C688 C689 1.387 1_565 S
C688 N691 1.341 . S
C689 C687 1.400 . S
C689 C688 1.387 1_545 S
N690 Co681 2.022 1_556 S
N690 C687 1.351 . S
N690 N691 1.365 1_545 S
N691 C688 1.341 . S
N691 N690 1.365 1_565 S
N691 H711 0.862 . S
C692 C687 1.501 . S
C692 H693 0.961 . S
C692 H694 0.961 . S
C692 H695 0.960 . S
H693 C692 0.961 . S
H694 C692 0.961 . S
H695 C692 0.960 . S
C696 N697 1.342 . S
C696 C700 1.401 . S
C696 C701 1.499 . S
N697 Co680 1.989 1_565 S
N697 C696 1.342 . S
N697 N698 1.388 . S
N698 Co681 1.993 1_565 S
N698 N697 1.388 . S
N698 C699 1.346 . S
C699 N698 1.346 . S
C699 C700 1.396 . S
C699 C709 1.510 1_554 S
C700 C696 1.401 . S
C700 C699 1.396 . S
C701 C696 1.499 . S
C701 H702 0.959 . S
C701 H703 0.960 . S
C701 H704 0.961 . S
H702 C701 0.959 . S
H703 C701 0.960 . S
H704 C701 0.961 . S
O705 Co680 1.967 . S
O705 C713 1.258 . S
O706 Co681 1.941 . S
O706 C713 1.266 . S
H707 C709 0.959 . S
H708 C709 0.961 . S
C709 C699 1.510 1_556 S
C709 H707 0.959 . S
C709 H708 0.961 . S
C709 H710 0.960 . S
H710 C709 0.960 . S
H711 N691 0.862 . S
O712 Co680 1.920 1_565 S
O712 C685 1.289 . S
C713 O705 1.258 . S
C713 O706 1.266 . S
Co714 O717 1.970 . S
Co714 N731 1.989 . S
Co714 O739 1.967 . S
Co714 O746 1.920 . S
Co715 O718 1.966 . S
Co715 N724 2.022 . S
Co715 N732 1.993 . S
Co715 O740 1.941 . S
C716 O717 1.258 . S
C716 O718 1.263 . S
O717 Co714 1.970 . S
O717 C716 1.258 . S
O718 Co715 1.966 . S
O718 C716 1.263 . S
C719 O720 1.235 . S
C719 O746 1.289 . S
O720 C719 1.235 . S
C721 C723 1.400 . S
C721 N724 1.351 . S
C721 C726 1.501 . S
C722 C723 1.387 . S
C722 N725 1.341 . S
C723 C721 1.400 . S
C723 C722 1.387 . S
N724 Co715 2.022 . S
N724 C721 1.351 . S
N724 N725 1.365 . S
N725 C722 1.341 . S
N725 N724 1.365 . S
N725 H745 0.862 . S
C726 C721 1.501 . S
C726 H727 0.961 . S
C726 H728 0.961 . S
C726 H729 0.960 . S
H727 C726 0.961 . S
H728 C726 0.961 . S
H729 C726 0.960 . S
C730 N731 1.342 . S
C730 C734 1.401 . S
C730 C735 1.499 . S
N731 Co714 1.989 . S
N731 C730 1.342 . S
N731 N732 1.388 . S
N732 Co715 1.993 . S
N732 N731 1.388 . S
N732 C733 1.346 . S
C733 N732 1.346 . S
C733 C734 1.396 . S
C733 C743 1.510 . S
C734 C730 1.401 . S
C734 C733 1.396 . S
C735 C730 1.499 . S
C735 H736 0.959 . S
C735 H737 0.960 . S
C735 H738 0.961 . S
H736 C735 0.959 . S
H737 C735 0.960 . S
H738 C735 0.961 . S
O739 Co714 1.967 . S
O739 C747 1.258 . S
O740 Co715 1.941 . S
O740 C747 1.266 . S
H741 C743 0.959 . S
H742 C743 0.961 . S
C743 C733 1.510 . S
C743 H741 0.959 . S
C743 H742 0.961 . S
C743 H744 0.960 . S
H744 C743 0.960 . S
H745 N725 0.862 . S
O746 Co714 1.920 . S
O746 C719 1.289 . S
C747 O739 1.258 . S
C747 O740 1.266 . S
Co748 O751 1.970 . S
Co748 N765 1.989 . S
Co748 O773 1.967 . S
Co748 O780 1.920 . S
Co749 O752 1.966 . S
Co749 N758 2.022 . S
Co749 N766 1.993 . S
Co749 O774 1.941 . S
C750 O751 1.258 . S
C750 O752 1.263 . S
O751 Co748 1.970 . S
O751 C750 1.258 . S
O752 Co749 1.966 . S
O752 C750 1.263 . S
C753 O754 1.235 . S
C753 O780 1.289 . S
O754 C753 1.235 . S
C755 C757 1.400 . S
C755 N758 1.351 . S
C755 C760 1.501 . S
C756 C757 1.387 . S
C756 N759 1.341 . S
C757 C755 1.400 . S
C757 C756 1.387 . S
N758 Co749 2.022 . S
N758 C755 1.351 . S
N758 N759 1.365 . S
N759 C756 1.341 . S
N759 N758 1.365 . S
N759 H779 0.862 . S
C760 C755 1.501 . S
C760 H761 0.961 . S
C760 H762 0.961 . S
C760 H763 0.960 . S
H761 C760 0.961 . S
H762 C760 0.961 . S
H763 C760 0.960 . S
C764 N765 1.342 . S
C764 C768 1.401 . S
C764 C769 1.499 . S
N765 Co748 1.989 . S
N765 C764 1.342 . S
N765 N766 1.388 . S
N766 Co749 1.993 . S
N766 N765 1.388 . S
N766 C767 1.346 . S
C767 N766 1.346 . S
C767 C768 1.396 . S
C767 C777 1.510 . S
C768 C764 1.401 . S
C768 C767 1.396 . S
C769 C764 1.499 . S
C769 H770 0.959 . S
C769 H771 0.960 . S
C769 H772 0.961 . S
H770 C769 0.959 . S
H771 C769 0.960 . S
H772 C769 0.961 . S
O773 Co748 1.967 . S
O773 C781 1.258 . S
O774 Co749 1.941 . S
O774 C781 1.266 . S
H775 C777 0.959 . S
H776 C777 0.961 . S
C777 C767 1.510 . S
C777 H775 0.959 . S
C777 H776 0.961 . S
C777 H778 0.960 . S
H778 C777 0.960 . S
H779 N759 0.862 . S
O780 Co748 1.920 . S
O780 C753 1.289 . S
C781 O773 1.258 . S
C781 O774 1.266 . S
Co782 O785 1.970 . S
Co782 N799 1.989 . S
Co782 O807 1.967 . S
Co782 O814 1.920 . S
Co783 O786 1.966 . S
Co783 N792 2.022 1_556 S
Co783 N800 1.993 . S
Co783 O808 1.941 . S
C784 O785 1.258 . S
C784 O786 1.263 . S
O785 Co782 1.970 . S
O785 C784 1.258 . S
O786 Co783 1.966 . S
O786 C784 1.263 . S
C787 O788 1.235 . S
C787 O814 1.289 . S
O788 C787 1.235 . S
C789 C791 1.400 . S
C789 N792 1.351 . S
C789 C794 1.501 . S
C790 C791 1.387 . S
C790 N793 1.341 . S
C791 C789 1.400 . S
C791 C790 1.387 . S
N792 Co783 2.022 1_554 S
N792 C789 1.351 . S
N792 N793 1.365 . S
N793 C790 1.341 . S
N793 N792 1.365 . S
N793 H813 0.862 . S
C794 C789 1.501 . S
C794 H795 0.961 . S
C794 H796 0.961 . S
C794 H797 0.960 . S
H795 C794 0.961 . S
H796 C794 0.961 . S
H797 C794 0.960 . S
C798 N799 1.342 . S
C798 C802 1.401 . S
C798 C803 1.499 . S
N799 Co782 1.989 . S
N799 C798 1.342 . S
N799 N800 1.388 . S
N800 Co783 1.993 . S
N800 N799 1.388 . S
N800 C801 1.346 . S
C801 N800 1.346 . S
C801 C802 1.396 . S
C801 C811 1.510 1_556 S
C802 C798 1.401 . S
C802 C801 1.396 . S
C803 C798 1.499 . S
C803 H804 0.959 . S
C803 H805 0.960 . S
C803 H806 0.961 . S
H804 C803 0.959 . S
H805 C803 0.960 . S
H806 C803 0.961 . S
O807 Co782 1.967 . S
O807 C815 1.258 . S
O808 Co783 1.941 . S
O808 C815 1.266 . S
H809 C811 0.959 . S
H810 C811 0.961 . S
C811 C801 1.510 1_554 S
C811 H809 0.959 . S
C811 H810 0.961 . S
C811 H812 0.960 . S
H812 C811 0.960 . S
H813 N793 0.862 . S
O814 Co782 1.920 . S
O814 C787 1.289 . S
C815 O807 1.258 . S
C815 O808 1.266 . S
C816 C817 1.387 . S
C816 H820 0.950 . S
C816 C825 1.390 . S
C817 C816 1.387 . S
C817 C819 1.387 . S
H818 C825 0.950 . S
C819 C817 1.387 . S
C819 C821 1.390 . S
C819 H823 0.950 . S
H820 C816 0.950 . S
C821 C819 1.390 . S
C821 C822 1.387 . S
C821 H824 0.950 . S
C822 C821 1.387 . S
C822 C825 1.387 . S
H823 C819 0.950 . S
H824 C821 0.950 . S
C825 C816 1.390 . S
C825 H818 0.950 . S
C825 C822 1.387 . S
C826 C827 1.387 . S
C826 H830 0.950 . S
C826 C835 1.390 . S
C827 C826 1.387 . S
C827 C829 1.387 . S
H828 C835 0.950 . S
C829 C827 1.387 . S
C829 C831 1.390 . S
C829 H833 0.950 . S
H830 C826 0.950 . S
C831 C829 1.390 . S
C831 C832 1.387 . S
C831 H834 0.950 . S
C832 C831 1.387 . S
C832 C835 1.387 . S
H833 C829 0.950 . S
H834 C831 0.950 . S
C835 C826 1.390 . S
C835 H828 0.950 . S
C835 C832 1.387 . S
C836 C837 1.387 . S
C836 H840 0.950 . S
C836 C845 1.390 . S
C837 C836 1.387 . S
C837 C839 1.387 . S
H838 C845 0.950 . S
C839 C837 1.387 . S
C839 C841 1.390 . S
C839 H843 0.950 . S
H840 C836 0.950 . S
C841 C839 1.390 . S
C841 C842 1.387 . S
C841 H844 0.950 . S
C842 C841 1.387 . S
C842 C845 1.387 . S
H843 C839 0.950 . S
H844 C841 0.950 . S
C845 C836 1.390 . S
C845 H838 0.950 . S
C845 C842 1.387 . S
C846 C847 1.387 . S
C846 H850 0.950 . S
C846 C855 1.390 . S
C847 C846 1.387 . S
C847 C849 1.387 . S
H848 C855 0.950 . S
C849 C847 1.387 . S
C849 C851 1.390 . S
C849 H853 0.950 . S
H850 C846 0.950 . S
C851 C849 1.390 . S
C851 C852 1.387 . S
C851 H854 0.950 . S
C852 C851 1.387 . S
C852 C855 1.387 . S
H853 C849 0.950 . S
H854 C851 0.950 . S
C855 C846 1.390 . S
C855 H848 0.950 . S
C855 C852 1.387 . S
C856 C857 1.387 . S
C856 H860 0.950 . S
C856 C865 1.390 . S
C857 C856 1.387 . S
C857 C859 1.387 . S
H858 C865 0.950 . S
C859 C857 1.387 . S
C859 C861 1.390 . S
C859 H863 0.950 . S
H860 C856 0.950 . S
C861 C859 1.390 . S
C861 C862 1.387 . S
C861 H864 0.950 . S
C862 C861 1.387 . S
C862 C865 1.387 . S
H863 C859 0.950 . S
H864 C861 0.950 . S
C865 C856 1.390 . S
C865 H858 0.950 . S
C865 C862 1.387 . S
C866 C867 1.387 . S
C866 H870 0.950 . S
C866 C875 1.390 . S
C867 C866 1.387 . S
C867 C869 1.387 1_565 S
H868 C875 0.950 . S
C869 C867 1.387 1_545 S
C869 C871 1.390 . S
C869 H873 0.950 . S
H870 C866 0.950 . S
C871 C869 1.390 . S
C871 C872 1.387 1_545 S
C871 H874 0.950 . S
C872 C871 1.387 1_565 S
C872 C875 1.387 . S
H873 C869 0.950 . S
H874 C871 0.950 . S
C875 C866 1.390 . S
C875 H868 0.950 . S
C875 C872 1.387 . S
C876 C877 1.387 . S
C876 H880 0.950 . S
C876 C885 1.390 . S
C877 C876 1.387 . S
C877 C879 1.387 . S
H878 C885 0.950 . S
C879 C877 1.387 . S
C879 C881 1.390 . S
C879 H883 0.950 . S
H880 C876 0.950 . S
C881 C879 1.390 . S
C881 C882 1.387 . S
C881 H884 0.950 . S
C882 C881 1.387 . S
C882 C885 1.387 . S
H883 C879 0.950 . S
H884 C881 0.950 . S
C885 C876 1.390 . S
C885 H878 0.950 . S
C885 C882 1.387 . S
C886 C887 1.387 1_565 S
C886 H890 0.950 . S
C886 C895 1.393 . S
C887 C886 1.387 1_545 S
C887 C889 1.387 . S
H888 C895 0.957 . S
C889 C887 1.387 . S
C889 C891 1.390 . S
C889 H893 0.950 . S
H890 C886 0.950 . S
C891 C889 1.390 . S
C891 C892 1.387 . S
C891 H894 0.950 . S
C892 C891 1.387 . S
C892 C895 1.377 1_545 S
H893 C889 0.950 . S
H894 C891 0.950 . S
C895 C886 1.393 . S
C895 H888 0.957 . S
C895 C892 1.377 1_565 S
C896 C897 1.387 . S
C896 H900 0.950 . S
C896 C905 1.390 . S
C897 C896 1.387 . S
C897 C899 1.387 . S
H898 C905 0.950 . S
C899 C897 1.387 . S
C899 C901 1.390 . S
C899 H903 0.950 . S
H900 C896 0.950 . S
C901 C899 1.390 . S
C901 C902 1.387 . S
C901 H904 0.950 . S
C902 C901 1.387 . S
C902 C905 1.387 . S
H903 C899 0.950 . S
H904 C901 0.950 . S
C905 C896 1.390 . S
C905 H898 0.950 . S
C905 C902 1.387 . S
C906 C907 1.387 . S
C906 H910 0.950 . S
C906 C915 1.390 . S
C907 C906 1.387 . S
C907 C909 1.387 . S
H908 C915 0.950 . S
C909 C907 1.387 . S
C909 C911 1.390 . S
C909 H913 0.950 . S
H910 C906 0.950 . S
C911 C909 1.390 . S
C911 C912 1.387 . S
C911 H914 0.950 . S
C912 C911 1.387 . S
C912 C915 1.387 . S
H913 C909 0.950 . S
H914 C911 0.950 . S
C915 C906 1.390 . S
C915 H908 0.950 . S
C915 C912 1.387 . S
C916 C917 1.387 . S
C916 H920 0.950 . S
C916 C925 1.390 . S
C917 C916 1.387 . S
C917 C919 1.387 . S
H918 C925 0.950 . S
C919 C917 1.387 . S
C919 C921 1.390 . S
C919 H923 0.950 . S
H920 C916 0.950 . S
C921 C919 1.390 . S
C921 C922 1.387 . S
C921 H924 0.950 . S
C922 C921 1.387 . S
C922 C925 1.387 . S
H923 C919 0.950 . S
H924 C921 0.950 . S
C925 C916 1.390 . S
C925 H918 0.950 . S
C925 C922 1.387 . S
C926 C927 1.387 . S
C926 H930 0.950 . S
C926 C935 1.390 . S
C927 C926 1.387 . S
C927 C929 1.387 1_655 S
H928 C935 0.950 . S
C929 C927 1.387 1_455 S
C929 C931 1.390 . S
C929 H933 0.950 . S
H930 C926 0.950 . S
C931 C929 1.390 . S
C931 C932 1.387 1_455 S
C931 H934 0.950 . S
C932 C931 1.387 1_655 S
C932 C935 1.387 . S
H933 C929 0.950 . S
H934 C931 0.950 . S
C935 C926 1.390 . S
C935 H928 0.950 . S
C935 C932 1.387 . S
C936 C937 1.387 . S
C936 H940 0.950 . S
C936 C945 1.390 . S
C937 C936 1.387 . S
C937 C939 1.387 . S
H938 C945 0.950 . S
C939 C937 1.387 . S
C939 C941 1.390 . S
C939 H943 0.950 . S
H940 C936 0.950 . S
C941 C939 1.390 . S
C941 C942 1.387 . S
C941 H944 0.950 . S
C942 C941 1.387 . S
C942 C945 1.387 . S
H943 C939 0.950 . S
H944 C941 0.950 . S
C945 C936 1.390 . S
C945 H938 0.950 . S
C945 C942 1.387 . S
C946 C947 1.387 . S
C946 H950 0.950 . S
C946 C955 1.390 . S
C947 C946 1.387 . S
C947 C949 1.387 . S
H948 C955 0.950 . S
C949 C947 1.387 . S
C949 C951 1.390 . S
C949 H953 0.950 . S
H950 C946 0.950 . S
C951 C949 1.390 . S
C951 C952 1.387 . S
C951 H954 0.950 . S
C952 C951 1.387 . S
C952 C955 1.387 . S
H953 C949 0.950 . S
H954 C951 0.950 . S
C955 C946 1.390 . S
C955 H948 0.950 . S
C955 C952 1.387 . S
C956 C957 1.387 . S
C956 H960 0.950 . S
C956 C965 1.390 . S
C957 C956 1.387 . S
C957 C959 1.387 . S
H958 C965 0.950 . S
C959 C957 1.387 . S
C959 C961 1.390 . S
C959 H963 0.950 . S
H960 C956 0.950 . S
C961 C959 1.390 . S
C961 C962 1.387 . S
C961 H964 0.950 . S
C962 C961 1.387 . S
C962 C965 1.387 . S
H963 C959 0.950 . S
H964 C961 0.950 . S
C965 C956 1.390 . S
C965 H958 0.950 . S
C965 C962 1.387 . S
C966 C967 1.387 . S
C966 H970 0.950 1_455 S
C966 C975 1.390 . S
C967 C966 1.387 . S
C967 C969 1.387 . S
H968 C975 0.950 . S
C969 C967 1.387 . S
C969 C971 1.390 . S
C969 H973 0.950 . S
H970 C966 0.950 1_655 S
C971 C969 1.390 . S
C971 C972 1.387 . S
C971 H974 0.950 . S
C972 C971 1.387 . S
C972 C975 1.387 . S
H973 C969 0.950 . S
H974 C971 0.950 . S
C975 C966 1.390 . S
C975 H968 0.950 . S
C975 C972 1.387 . S
C976 C977 1.387 . S
C976 H980 0.950 . S
C976 C985 1.390 . S
C977 C976 1.387 . S
C977 C979 1.387 . S
H978 C985 0.950 . S
C979 C977 1.387 . S
C979 C981 1.390 . S
C979 H983 0.950 . S
H980 C976 0.950 . S
C981 C979 1.390 . S
C981 C982 1.387 . S
C981 H984 0.950 . S
C982 C981 1.387 . S
C982 C985 1.387 . S
H983 C979 0.950 . S
H984 C981 0.950 . S
C985 C976 1.390 . S
C985 H978 0.950 . S
C985 C982 1.387 . S
C986 C987 1.387 . S
C986 H990 0.950 . S
C986 C995 1.390 . S
C987 C986 1.387 . S
C987 C989 1.387 . S
H988 C995 0.950 . S
C989 C987 1.387 . S
C989 C991 1.390 . S
C989 H993 0.950 . S
H990 C986 0.950 . S
C991 C989 1.390 . S
C991 C992 1.387 . S
C991 H994 0.950 . S
C992 C991 1.387 . S
C992 C995 1.387 . S
H993 C989 0.950 . S
H994 C991 0.950 . S
C995 C986 1.390 . S
C995 H988 0.950 . S
C995 C992 1.387 . S
C996 C997 1.387 . S
C996 H1000 0.950 . S
C996 C1005 1.390 . S
C997 C996 1.387 . S
C997 C999 1.387 . S
H998 C1005 0.950 . S
C999 C997 1.387 . S
C999 C1001 1.390 . S
C999 H1003 0.950 . S
H1000 C996 0.950 . S
C1001 C999 1.390 . S
C1001 C1002 1.387 . S
C1001 H1004 0.950 . S
C1002 C1001 1.387 . S
C1002 C1005 1.387 . S
H1003 C999 0.950 . S
H1004 C1001 0.950 . S
C1005 C996 1.390 . S
C1005 H998 0.950 . S
C1005 C1002 1.387 . S
C1006 C1007 1.387 . S
C1006 H1010 0.950 . S
C1006 C1015 1.390 . S
C1007 C1006 1.387 . S
C1007 C1009 1.387 . S
H1008 C1015 0.950 . S
C1009 C1007 1.387 . S
C1009 C1011 1.390 . S
C1009 H1013 0.950 . S
H1010 C1006 0.950 . S
C1011 C1009 1.390 . S
C1011 C1012 1.387 . S
C1011 H1014 0.950 . S
C1012 C1011 1.387 . S
C1012 C1015 1.387 . S
H1013 C1009 0.950 . S
H1014 C1011 0.950 . S
C1015 C1006 1.390 . S
C1015 H1008 0.950 . S
C1015 C1012 1.387 . S
C1016 C1017 1.387 1_556 S
C1016 H1020 0.950 . S
C1016 C1025 1.390 . S
C1017 C1016 1.387 1_554 S
C1017 C1019 1.387 . S
H1018 C1025 0.950 . S
C1019 C1017 1.387 . S
C1019 C1021 1.390 . S
C1019 H1023 0.950 . S
H1020 C1016 0.950 . S
C1021 C1019 1.390 . S
C1021 C1022 1.387 . S
C1021 H1024 0.950 . S
C1022 C1021 1.387 . S
C1022 C1025 1.387 1_554 S
H1023 C1019 0.950 . S
H1024 C1021 0.950 . S
C1025 C1016 1.390 . S
C1025 H1018 0.950 . S
C1025 C1022 1.387 1_556 S
C1026 C1027 1.387 . S
C1026 H1030 0.950 . S
C1026 C1035 1.390 . S
C1027 C1026 1.387 . S
C1027 C1029 1.387 . S
H1028 C1035 0.950 . S
C1029 C1027 1.387 . S
C1029 C1031 1.390 . S
C1029 H1033 0.950 . S
H1030 C1026 0.950 . S
C1031 C1029 1.390 . S
C1031 C1032 1.387 . S
C1031 H1034 0.950 . S
C1032 C1031 1.387 . S
C1032 C1035 1.387 . S
H1033 C1029 0.950 . S
H1034 C1031 0.950 . S
C1035 C1026 1.390 . S
C1035 H1028 0.950 . S
C1035 C1032 1.387 . S
C1036 C1037 1.387 . S
C1036 H1040 0.950 . S
C1036 C1045 1.390 . S
C1037 C1036 1.387 . S
C1037 C1039 1.387 . S
H1038 C1045 0.950 . S
C1039 C1037 1.387 . S
C1039 C1041 1.390 . S
C1039 H1043 0.950 . S
H1040 C1036 0.950 . S
C1041 C1039 1.390 . S
C1041 C1042 1.387 . S
C1041 H1044 0.950 . S
C1042 C1041 1.387 . S
C1042 C1045 1.387 . S
H1043 C1039 0.950 . S
H1044 C1041 0.950 . S
C1045 C1036 1.390 . S
C1045 H1038 0.950 . S
C1045 C1042 1.387 . S
C1046 C1047 1.387 . S
C1046 H1050 0.950 . S
C1046 C1055 1.390 . S
C1047 C1046 1.387 . S
C1047 C1049 1.387 1_556 S
H1048 C1055 0.950 . S
C1049 C1047 1.387 1_554 S
C1049 C1051 1.390 . S
C1049 H1053 0.950 . S
H1050 C1046 0.950 . S
C1051 C1049 1.390 . S
C1051 C1052 1.387 1_554 S
C1051 H1054 0.950 . S
C1052 C1051 1.387 1_556 S
C1052 C1055 1.387 . S
H1053 C1049 0.950 . S
H1054 C1051 0.950 . S
C1055 C1046 1.390 . S
C1055 H1048 0.950 . S
C1055 C1052 1.387 . S
C1056 C1057 1.387 . S
C1056 H1060 0.950 . S
C1056 C1065 1.390 . S
C1057 C1056 1.387 . S
C1057 C1059 1.387 . S
H1058 C1065 0.950 . S
C1059 C1057 1.387 . S
C1059 C1061 1.390 . S
C1059 H1063 0.950 . S
H1060 C1056 0.950 . S
C1061 C1059 1.390 . S
C1061 C1062 1.387 . S
C1061 H1064 0.950 . S
C1062 C1061 1.387 . S
C1062 C1065 1.387 . S
H1063 C1059 0.950 . S
H1064 C1061 0.950 . S
C1065 C1056 1.390 . S
C1065 H1058 0.950 . S
C1065 C1062 1.387 . S
C1066 C1067 1.387 . S
C1066 H1070 0.950 . S
C1066 C1075 1.390 . S
C1067 C1066 1.387 . S
C1067 C1069 1.387 . S
H1068 C1075 0.950 . S
C1069 C1067 1.387 . S
C1069 C1071 1.390 . S
C1069 H1073 0.950 . S
H1070 C1066 0.950 . S
C1071 C1069 1.390 . S
C1071 C1072 1.387 . S
C1071 H1074 0.950 . S
C1072 C1071 1.387 . S
C1072 C1075 1.387 . S
H1073 C1069 0.950 . S
H1074 C1071 0.950 . S
C1075 C1066 1.390 . S
C1075 H1068 0.950 . S
C1075 C1072 1.387 . S
C1076 C1077 1.387 . S
C1076 H1080 0.950 . S
C1076 C1085 1.390 . S
C1077 C1076 1.387 . S
C1077 C1079 1.387 . S
H1078 C1085 0.950 . S
C1079 C1077 1.387 . S
C1079 C1081 1.390 . S
C1079 H1083 0.950 . S
H1080 C1076 0.950 . S
C1081 C1079 1.390 . S
C1081 C1082 1.387 . S
C1081 H1084 0.950 . S
C1082 C1081 1.387 . S
C1082 C1085 1.387 . S
H1083 C1079 0.950 . S
H1084 C1081 0.950 . S
C1085 C1076 1.390 . S
C1085 H1078 0.950 . S
C1085 C1082 1.387 . S
C1086 C1087 1.387 . S
C1086 H1090 0.950 . S
C1086 C1095 1.390 . S
C1087 C1086 1.387 . S
C1087 C1089 1.387 . S
H1088 C1095 0.950 . S
C1089 C1087 1.387 . S
C1089 C1091 1.390 . S
C1089 H1093 0.950 . S
H1090 C1086 0.950 . S
C1091 C1089 1.390 . S
C1091 C1092 1.387 . S
C1091 H1094 0.950 . S
C1092 C1091 1.387 . S
C1092 C1095 1.387 . S
H1093 C1089 0.950 . S
H1094 C1091 0.950 . S
C1095 C1086 1.390 . S
C1095 H1088 0.950 . S
C1095 C1092 1.387 . S
C1096 C1097 1.387 . S
C1096 H1100 0.950 . S
C1096 C1105 1.390 . S
C1097 C1096 1.387 . S
C1097 C1099 1.387 . S
H1098 C1105 0.950 . S
C1099 C1097 1.387 . S
C1099 C1101 1.390 . S
C1099 H1103 0.950 . S
H1100 C1096 0.950 . S
C1101 C1099 1.390 . S
C1101 C1102 1.387 . S
C1101 H1104 0.950 . S
C1102 C1101 1.387 . S
C1102 C1105 1.387 . S
H1103 C1099 0.950 . S
H1104 C1101 0.950 . S
C1105 C1096 1.390 . S
C1105 H1098 0.950 . S
C1105 C1102 1.387 . S
C1106 C1107 1.387 . S
C1106 H1110 0.950 . S
C1106 C1115 1.390 . S
C1107 C1106 1.387 . S
C1107 C1109 1.387 . S
H1108 C1115 0.950 . S
C1109 C1107 1.387 . S
C1109 C1111 1.390 . S
C1109 H1113 0.950 . S
H1110 C1106 0.950 . S
C1111 C1109 1.390 . S
C1111 C1112 1.387 . S
C1111 H1114 0.950 . S
C1112 C1111 1.387 . S
C1112 C1115 1.387 . S
H1113 C1109 0.950 . S
H1114 C1111 0.950 . S
C1115 C1106 1.390 . S
C1115 H1108 0.950 . S
C1115 C1112 1.387 . S
C1116 C1117 1.387 . S
C1116 H1120 0.950 . S
C1116 C1125 1.390 . S
C1117 C1116 1.387 . S
C1117 C1119 1.387 . S
H1118 C1125 0.950 . S
C1119 C1117 1.387 . S
C1119 C1121 1.390 . S
C1119 H1123 0.950 . S
H1120 C1116 0.950 . S
C1121 C1119 1.390 . S
C1121 C1122 1.387 . S
C1121 H1124 0.950 . S
C1122 C1121 1.387 . S
C1122 C1125 1.387 . S
H1123 C1119 0.950 . S
H1124 C1121 0.950 . S
C1125 C1116 1.390 . S
C1125 H1118 0.950 . S
C1125 C1122 1.387 . S
C1126 C1127 1.387 . S
C1126 H1130 0.950 . S
C1126 C1135 1.390 . S
C1127 C1126 1.387 . S
C1127 C1129 1.387 . S
H1128 C1135 0.950 . S
C1129 C1127 1.387 . S
C1129 C1131 1.390 . S
C1129 H1133 0.950 . S
H1130 C1126 0.950 . S
C1131 C1129 1.390 . S
C1131 C1132 1.387 . S
C1131 H1134 0.950 . S
C1132 C1131 1.387 . S
C1132 C1135 1.387 . S
H1133 C1129 0.950 . S
H1134 C1131 0.950 . S
C1135 C1126 1.390 . S
C1135 H1128 0.950 . S
C1135 C1132 1.387 . S
C1136 C1137 1.387 . S
C1136 H1140 0.950 . S
C1136 C1145 1.390 . S
C1137 C1136 1.387 . S
C1137 C1139 1.387 . S
H1138 C1145 0.950 . S
C1139 C1137 1.387 . S
C1139 C1141 1.390 . S
C1139 H1143 0.950 . S
H1140 C1136 0.950 . S
C1141 C1139 1.390 . S
C1141 C1142 1.387 . S
C1141 H1144 0.950 . S
C1142 C1141 1.387 . S
C1142 C1145 1.387 . S
H1143 C1139 0.950 . S
H1144 C1141 0.950 . S
C1145 C1136 1.390 . S
C1145 H1138 0.950 . S
C1145 C1142 1.387 . S
C1146 C1147 1.387 . S
C1146 H1150 0.950 . S
C1146 C1155 1.390 . S
C1147 C1146 1.387 . S
C1147 C1149 1.387 . S
H1148 C1155 0.950 . S
C1149 C1147 1.387 . S
C1149 C1151 1.390 . S
C1149 H1153 0.950 . S
H1150 C1146 0.950 . S
C1151 C1149 1.390 . S
C1151 C1152 1.387 . S
C1151 H1154 0.950 . S
C1152 C1151 1.387 . S
C1152 C1155 1.387 . S
H1153 C1149 0.950 . S
H1154 C1151 0.950 . S
C1155 C1146 1.390 . S
C1155 H1148 0.950 . S
C1155 C1152 1.387 . S
C1156 C1157 1.387 . S
C1156 H1160 0.950 . S
C1156 C1165 1.390 . S
C1157 C1156 1.387 . S
C1157 C1159 1.387 . S
H1158 C1165 0.950 . S
C1159 C1157 1.387 . S
C1159 C1161 1.390 . S
C1159 H1163 0.950 . S
H1160 C1156 0.950 . S
C1161 C1159 1.390 . S
C1161 C1162 1.387 . S
C1161 H1164 0.950 . S
C1162 C1161 1.387 . S
C1162 C1165 1.387 . S
H1163 C1159 0.950 . S
H1164 C1161 0.950 . S
C1165 C1156 1.390 . S
C1165 H1158 0.950 . S
C1165 C1162 1.387 . S
C1166 C1167 1.387 . S
C1166 H1170 0.950 . S
C1166 C1175 1.390 . S
C1167 C1166 1.387 . S
C1167 C1169 1.387 . S
H1168 C1175 0.950 . S
C1169 C1167 1.387 . S
C1169 C1171 1.390 . S
C1169 H1173 0.950 . S
H1170 C1166 0.950 . S
C1171 C1169 1.390 . S
C1171 C1172 1.387 . S
C1171 H1174 0.950 . S
C1172 C1171 1.387 . S
C1172 C1175 1.387 . S
H1173 C1169 0.950 . S
H1174 C1171 0.950 . S
C1175 C1166 1.390 . S
C1175 H1168 0.950 . S
C1175 C1172 1.387 . S
C1176 C1177 1.387 . S
C1176 H1180 0.950 . S
C1176 C1185 1.390 . S
C1177 C1176 1.387 . S
C1177 C1179 1.387 . S
H1178 C1185 0.950 . S
C1179 C1177 1.387 . S
C1179 C1181 1.390 . S
C1179 H1183 0.950 . S
H1180 C1176 0.950 . S
C1181 C1179 1.390 . S
C1181 C1182 1.387 . S
C1181 H1184 0.950 . S
C1182 C1181 1.387 . S
C1182 C1185 1.387 . S
H1183 C1179 0.950 . S
H1184 C1181 0.950 . S
C1185 C1176 1.390 . S
C1185 H1178 0.950 . S
C1185 C1182 1.387 . S
C1186 C1187 1.387 . S
C1186 H1190 0.950 . S
C1186 C1195 1.390 . S
C1187 C1186 1.387 . S
C1187 C1189 1.387 . S
H1188 C1195 0.950 . S
C1189 C1187 1.387 . S
C1189 C1191 1.390 . S
C1189 H1193 0.950 . S
H1190 C1186 0.950 . S
C1191 C1189 1.390 . S
C1191 C1192 1.387 . S
C1191 H1194 0.950 . S
C1192 C1191 1.387 . S
C1192 C1195 1.387 . S
H1193 C1189 0.950 . S
H1194 C1191 0.950 . S
C1195 C1186 1.390 . S
C1195 H1188 0.950 . S
C1195 C1192 1.387 . S
C1196 C1197 1.387 . S
C1196 H1200 0.950 . S
C1196 C1205 1.390 . S
C1197 C1196 1.387 . S
C1197 C1199 1.387 1_554 S
H1198 C1205 0.950 . S
C1199 C1197 1.387 1_556 S
C1199 C1201 1.390 . S
C1199 H1203 0.950 . S
H1200 C1196 0.950 . S
C1201 C1199 1.390 . S
C1201 C1202 1.387 1_556 S
C1201 H1204 0.950 . S
C1202 C1201 1.387 1_554 S
C1202 C1205 1.387 . S
H1203 C1199 0.950 . S
H1204 C1201 0.950 . S
C1205 C1196 1.390 . S
C1205 H1198 0.950 . S
C1205 C1202 1.387 . S
C1206 C1207 1.387 . S
C1206 H1210 0.950 . S
C1206 C1215 1.390 . S
C1207 C1206 1.387 . S
C1207 C1209 1.387 . S
H1208 C1215 0.950 . S
C1209 C1207 1.387 . S
C1209 C1211 1.390 1_455 S
C1209 H1213 0.950 1_455 S
H1210 C1206 0.950 . S
C1211 C1209 1.390 1_655 S
C1211 C1212 1.387 . S
C1211 H1214 0.950 . S
C1212 C1211 1.387 . S
C1212 C1215 1.387 1_655 S
H1213 C1209 0.950 1_655 S
H1214 C1211 0.950 . S
C1215 C1206 1.390 . S
C1215 H1208 0.950 . S
C1215 C1212 1.387 1_455 S
C1216 C1217 1.387 . S
C1216 H1220 0.950 . S
C1216 C1225 1.390 . S
C1217 C1216 1.387 . S
C1217 C1219 1.387 . S
H1218 C1225 0.950 . S
C1219 C1217 1.387 . S
C1219 C1221 1.390 . S
C1219 H1223 0.950 . S
H1220 C1216 0.950 . S
C1221 C1219 1.390 . S
C1221 C1222 1.387 . S
C1221 H1224 0.950 . S
C1222 C1221 1.387 . S
C1222 C1225 1.387 . S
H1223 C1219 0.950 . S
H1224 C1221 0.950 . S
C1225 C1216 1.390 . S
C1225 H1218 0.950 . S
C1225 C1222 1.387 . S
C1226 C1227 1.387 . S
C1226 H1230 0.950 . S
C1226 C1235 1.390 . S
C1227 C1226 1.387 . S
C1227 C1229 1.387 . S
H1228 C1235 0.950 . S
C1229 C1227 1.387 . S
C1229 C1231 1.390 . S
C1229 H1233 0.950 . S
H1230 C1226 0.950 . S
C1231 C1229 1.390 . S
C1231 C1232 1.387 . S
C1231 H1234 0.950 . S
C1232 C1231 1.387 . S
C1232 C1235 1.387 . S
H1233 C1229 0.950 . S
H1234 C1231 0.950 . S
C1235 C1226 1.390 . S
C1235 H1228 0.950 . S
C1235 C1232 1.387 . S
C1236 C1237 1.387 1_554 S
C1236 H1240 0.950 . S
C1236 C1245 1.390 . S
C1237 C1236 1.387 1_556 S
C1237 C1239 1.387 . S
H1238 C1245 0.950 . S
C1239 C1237 1.387 . S
C1239 C1241 1.390 . S
C1239 H1243 0.950 . S
H1240 C1236 0.950 . S
C1241 C1239 1.390 . S
C1241 C1242 1.387 . S
C1241 H1244 0.950 . S
C1242 C1241 1.387 . S
C1242 C1245 1.387 1_556 S
H1243 C1239 0.950 . S
H1244 C1241 0.950 . S
C1245 C1236 1.390 . S
C1245 H1238 0.950 . S
C1245 C1242 1.387 1_554 S
C1246 C1247 1.387 . S
C1246 H1250 0.950 . S
C1246 C1255 1.390 . S
C1247 C1246 1.387 . S
C1247 C1249 1.387 . S
H1248 C1255 0.950 . S
C1249 C1247 1.387 . S
C1249 C1251 1.390 . S
C1249 H1253 0.950 1_655 S
H1250 C1246 0.950 . S
C1251 C1249 1.390 . S
C1251 C1252 1.387 . S
C1251 H1254 0.950 . S
C1252 C1251 1.387 . S
C1252 C1255 1.387 . S
H1253 C1249 0.950 1_455 S
H1254 C1251 0.950 . S
C1255 C1246 1.390 . S
C1255 H1248 0.950 . S
C1255 C1252 1.387 . S
C1256 C1257 1.387 . S
C1256 H1260 0.950 . S
C1256 C1265 1.390 . S
C1257 C1256 1.387 . S
C1257 C1259 1.387 . S
H1258 C1265 0.950 . S
C1259 C1257 1.387 . S
C1259 C1261 1.390 . S
C1259 H1263 0.950 . S
H1260 C1256 0.950 . S
C1261 C1259 1.390 . S
C1261 C1262 1.387 . S
C1261 H1264 0.950 . S
C1262 C1261 1.387 . S
C1262 C1265 1.387 . S
H1263 C1259 0.950 . S
H1264 C1261 0.950 . S
C1265 C1256 1.390 . S
C1265 H1258 0.950 . S
C1265 C1262 1.387 . S
C1266 C1267 1.387 . S
C1266 H1270 0.950 . S
C1266 C1275 1.390 . S
C1267 C1266 1.387 . S
C1267 C1269 1.387 1_556 S
H1268 C1275 0.950 . S
C1269 C1267 1.387 1_554 S
C1269 C1271 1.390 . S
C1269 H1273 0.950 . S
H1270 C1266 0.950 . S
C1271 C1269 1.390 . S
C1271 C1272 1.387 . S
C1271 H1274 0.950 . S
C1272 C1271 1.387 . S
C1272 C1275 1.387 1_554 S
H1273 C1269 0.950 . S
H1274 C1271 0.950 . S
C1275 C1266 1.390 . S
C1275 H1268 0.950 . S
C1275 C1272 1.387 1_556 S
C1276 C1277 1.387 1_455 S
C1276 H1280 0.950 . S
C1276 C1285 1.390 . S
C1277 C1276 1.387 1_655 S
C1277 C1279 1.387 . S
H1278 C1285 0.950 . S
C1279 C1277 1.387 . S
C1279 C1281 1.390 . S
C1279 H1283 0.950 . S
H1280 C1276 0.950 . S
C1281 C1279 1.390 . S
C1281 C1282 1.387 . S
C1281 H1284 0.950 . S
C1282 C1281 1.387 . S
C1282 C1285 1.387 1_655 S
H1283 C1279 0.950 . S
H1284 C1281 0.950 . S
C1285 C1276 1.390 . S
C1285 H1278 0.950 . S
C1285 C1282 1.387 1_455 S
C1286 C1287 1.387 . S
C1286 H1290 0.950 . S
C1286 C1295 1.390 . S
C1287 C1286 1.387 . S
C1287 C1289 1.387 . S
H1288 C1295 0.950 . S
C1289 C1287 1.387 . S
C1289 C1291 1.390 . S
C1289 H1293 0.950 . S
H1290 C1286 0.950 . S
C1291 C1289 1.390 . S
C1291 C1292 1.387 . S
C1291 H1294 0.950 . S
C1292 C1291 1.387 . S
C1292 C1295 1.387 . S
H1293 C1289 0.950 . S
H1294 C1291 0.950 . S
C1295 C1286 1.390 . S
C1295 H1288 0.950 . S
C1295 C1292 1.387 . S
C1296 C1297 1.387 . S
C1296 H1300 0.950 . S
C1296 C1305 1.390 . S
C1297 C1296 1.387 . S
C1297 C1299 1.387 1_455 S
H1298 C1305 0.950 . S
C1299 C1297 1.387 1_655 S
C1299 C1301 1.390 . S
C1299 H1303 0.950 . S
H1300 C1296 0.950 . S
C1301 C1299 1.390 . S
C1301 C1302 1.387 1_655 S
C1301 H1304 0.950 . S
C1302 C1301 1.387 1_455 S
C1302 C1305 1.387 . S
H1303 C1299 0.950 . S
H1304 C1301 0.950 . S
C1305 C1296 1.390 . S
C1305 H1298 0.950 . S
C1305 C1302 1.387 . S
C1306 C1307 1.387 . S
C1306 H1310 0.950 . S
C1306 C1315 1.390 . S
C1307 C1306 1.387 . S
C1307 C1309 1.387 . S
H1308 C1315 0.950 . S
C1309 C1307 1.387 . S
C1309 C1311 1.390 . S
C1309 H1313 0.950 . S
H1310 C1306 0.950 . S
C1311 C1309 1.390 . S
C1311 C1312 1.387 . S
C1311 H1314 0.950 . S
C1312 C1311 1.387 . S
C1312 C1315 1.387 . S
H1313 C1309 0.950 . S
H1314 C1311 0.950 . S
C1315 C1306 1.390 . S
C1315 H1308 0.950 . S
C1315 C1312 1.387 . S
C1316 C1317 1.387 . S
C1316 H1320 0.950 . S
C1316 C1325 1.390 . S
C1317 C1316 1.387 . S
C1317 C1319 1.387 . S
H1318 C1325 0.950 . S
C1319 C1317 1.387 . S
C1319 C1321 1.390 . S
C1319 H1323 0.950 . S
H1320 C1316 0.950 . S
C1321 C1319 1.390 . S
C1321 C1322 1.387 . S
C1321 H1324 0.950 . S
C1322 C1321 1.387 . S
C1322 C1325 1.387 . S
H1323 C1319 0.950 . S
H1324 C1321 0.950 . S
C1325 C1316 1.390 . S
C1325 H1318 0.950 . S
C1325 C1322 1.387 . S
C1326 C1327 1.387 . S
C1326 H1330 0.950 . S
C1326 C1335 1.390 . S
C1327 C1326 1.387 . S
C1327 C1329 1.387 1_556 S
H1328 C1335 0.950 . S
C1329 C1327 1.387 1_554 S
C1329 C1331 1.390 1_554 S
C1329 H1333 0.950 . S
H1330 C1326 0.950 . S
C1331 C1329 1.390 1_556 S
C1331 C1332 1.387 . S
C1331 H1334 0.950 1_556 S
C1332 C1331 1.387 . S
C1332 C1335 1.387 . S
H1333 C1329 0.950 . S
H1334 C1331 0.950 1_554 S
C1335 C1326 1.390 . S
C1335 H1328 0.950 . S
C1335 C1332 1.387 . S
C1336 C1337 1.387 . S
C1336 H1340 0.950 . S
C1336 C1345 1.390 . S
C1337 C1336 1.387 . S
C1337 C1339 1.387 . S
H1338 C1345 0.950 . S
C1339 C1337 1.387 . S
C1339 C1341 1.390 . S
C1339 H1343 0.950 . S
H1340 C1336 0.950 . S
C1341 C1339 1.390 . S
C1341 C1342 1.387 . S
C1341 H1344 0.950 . S
C1342 C1341 1.387 . S
C1342 C1345 1.387 . S
H1343 C1339 0.950 . S
H1344 C1341 0.950 . S
C1345 C1336 1.390 . S
C1345 H1338 0.950 . S
C1345 C1342 1.387 . S
C1346 C1347 1.387 . S
C1346 H1350 0.950 . S
C1346 C1355 1.390 . S
C1347 C1346 1.387 . S
C1347 C1349 1.387 1_565 S
H1348 C1355 0.950 . S
C1349 C1347 1.387 1_545 S
C1349 C1351 1.390 . S
C1349 H1353 0.950 . S
H1350 C1346 0.950 . S
C1351 C1349 1.390 . S
C1351 C1352 1.387 1_545 S
C1351 H1354 0.950 . S
C1352 C1351 1.387 1_565 S
C1352 C1355 1.387 . S
H1353 C1349 0.950 . S
H1354 C1351 0.950 . S
C1355 C1346 1.390 . S
C1355 H1348 0.950 . S
C1355 C1352 1.387 . S
C1356 C1357 1.387 . S
C1356 H1360 0.950 . S
C1356 C1365 1.390 . S
C1357 C1356 1.387 . S
C1357 C1359 1.387 1_545 S
H1358 C1365 0.950 . S
C1359 C1357 1.387 1_565 S
C1359 C1361 1.390 . S
C1359 H1363 0.950 . S
H1360 C1356 0.950 . S
C1361 C1359 1.390 . S
C1361 C1362 1.387 . S
C1361 H1364 0.950 . S
C1362 C1361 1.387 . S
C1362 C1365 1.387 1_565 S
H1363 C1359 0.950 . S
H1364 C1361 0.950 . S
C1365 C1356 1.390 . S
C1365 H1358 0.950 . S
C1365 C1362 1.387 1_545 S
C1366 C1367 1.387 1_565 S
C1366 H1370 0.950 . S
C1366 C1375 1.390 . S
C1367 C1366 1.387 1_545 S
C1367 C1369 1.387 . S
H1368 C1375 0.950 . S
C1369 C1367 1.387 . S
C1369 C1371 1.390 . S
C1369 H1373 0.950 . S
H1370 C1366 0.950 . S
C1371 C1369 1.390 . S
C1371 C1372 1.387 . S
C1371 H1374 0.950 . S
C1372 C1371 1.387 . S
C1372 C1375 1.387 1_545 S
H1373 C1369 0.950 . S
H1374 C1371 0.950 . S
C1375 C1366 1.390 . S
C1375 H1368 0.950 . S
C1375 C1372 1.387 1_565 S
C1376 C1377 1.387 1_545 S
C1376 H1380 0.950 . S
C1376 C1385 1.390 1_545 S
C1377 C1376 1.387 1_565 S
C1377 C1379 1.387 . S
H1378 C1385 0.950 1_545 S
C1379 C1377 1.387 . S
C1379 C1381 1.390 . S
C1379 H1383 0.950 . S
H1380 C1376 0.950 . S
C1381 C1379 1.390 . S
C1381 C1382 1.387 . S
C1381 H1384 0.950 . S
C1382 C1381 1.387 . S
C1382 C1385 1.387 . S
H1383 C1379 0.950 . S
H1384 C1381 0.950 . S
C1385 C1376 1.390 1_565 S
C1385 H1378 0.950 1_565 S
C1385 C1382 1.387 . S
C1386 C1387 1.387 . S
C1386 H1390 0.950 . S
C1386 C1395 1.390 . S
C1387 C1386 1.387 . S
C1387 C1389 1.387 . S
H1388 C1395 0.950 . S
C1389 C1387 1.387 . S
C1389 C1391 1.390 . S
C1389 H1393 0.950 . S
H1390 C1386 0.950 . S
C1391 C1389 1.390 . S
C1391 C1392 1.387 . S
C1391 H1394 0.950 . S
C1392 C1391 1.387 . S
C1392 C1395 1.387 . S
H1393 C1389 0.950 . S
H1394 C1391 0.950 . S
C1395 C1386 1.390 . S
C1395 H1388 0.950 . S
C1395 C1392 1.387 . S
C1396 C1397 1.387 . S
C1396 H1400 0.950 . S
C1396 C1405 1.390 . S
C1397 C1396 1.387 . S
C1397 C1399 1.387 . S
H1398 C1405 0.950 . S
C1399 C1397 1.387 . S
C1399 C1401 1.390 . S
C1399 H1403 0.950 . S
H1400 C1396 0.950 . S
C1401 C1399 1.390 . S
C1401 C1402 1.387 . S
C1401 H1404 0.950 . S
C1402 C1401 1.387 . S
C1402 C1405 1.387 . S
H1403 C1399 0.950 . S
H1404 C1401 0.950 . S
C1405 C1396 1.390 . S
C1405 H1398 0.950 . S
C1405 C1402 1.387 . S
C1406 C1407 1.387 . S
C1406 H1410 0.950 . S
C1406 C1415 1.390 . S
C1407 C1406 1.387 . S
C1407 C1409 1.387 . S
H1408 C1415 0.950 . S
C1409 C1407 1.387 . S
C1409 C1411 1.390 . S
C1409 H1413 0.950 . S
H1410 C1406 0.950 . S
C1411 C1409 1.390 . S
C1411 C1412 1.387 . S
C1411 H1414 0.950 . S
C1412 C1411 1.387 . S
C1412 C1415 1.387 . S
H1413 C1409 0.950 . S
H1414 C1411 0.950 . S
C1415 C1406 1.390 . S
C1415 H1408 0.950 . S
C1415 C1412 1.387 . S
C817 C719 0.971 . S
C822 C20 0.995 . S
C827 C753 0.906 . S
C832 C54 0.937 . S
C837 C88 1.004 . S
C842 C549 0.978 . S
C847 C787 0.922 . S
C852 C122 0.926 . S
C857 C156 0.930 . S
C862 C651 0.912 . S
C867 C685 0.909 . S
C872 C190 0.947 . S
C877 C583 0.917 . S
C882 C224 0.935 . S
C887 C617 0.821 . S
C892 C258 0.826 . S
C897 C292 0.994 . S
C902 C141 0.975 . S
C907 C326 0.933 . S
C912 C175 0.918 . S
C917 C360 0.934 . S
C922 C209 0.920 . S
C927 C394 0.949 . S
C932 C243 0.908 . S
C937 C5 0.978 . S
C942 C428 1.004 . S
C947 C462 0.935 . S
C952 C39 0.911 . S
C957 C496 0.929 . S
C962 C73 0.915 . S
C967 C107 0.819 . S
C972 C530 0.827 . S
C977 C481 0.973 . S
C982 C564 0.995 . S
C987 C598 0.934 . S
C992 C345 0.917 . S
C997 C632 0.933 . S
C1002 C379 0.916 . S
C1007 C666 1.004 . S
C1012 C277 0.977 . S
C1017 C311 0.821 . S
C1022 C700 0.826 . S
C1027 C413 0.914 . S
C1032 C734 0.930 . S
C1037 C768 0.935 . S
C1042 C447 0.911 . S
C1047 C802 0.949 . S
C1052 C515 0.908 . S
C1057 C240 2.352 . S
C1062 C2 2.078 . S
C1067 C36 2.142 . S
C1072 C138 1.926 . S
C1077 C172 2.288 . S
C1082 C70 2.060 . S
C1087 C206 2.074 . S
C1092 C104 2.358 . S
C1097 C682 2.350 . S
C1102 C274 2.078 . S
C1107 C308 2.354 . S
C1112 C580 2.077 . S
C1117 C342 2.075 . S
C1122 C614 2.358 . S
C1127 C376 2.288 . S
C1132 C648 2.056 . S
C1137 C410 2.058 . S
C1142 C784 2.287 . S
C1147 C716 1.927 . S
C1152 C444 2.144 . S
C1157 C478 1.927 . S
C1162 C750 2.142 . S
C1167 C512 2.350 . S
C1172 C546 2.078 . S
C1177 C9 1.601 . S
C1182 C475 2.117 . S
C1187 C43 1.898 . S
C1192 C509 2.175 . S
C1197 C543 1.909 . S
C1202 C77 1.423 . S
C1207 C441 2.036 . S
C1212 C111 1.821 . S
C1217 C145 1.438 . S
C1222 C407 1.890 . S
C1227 C179 1.885 . S
C1232 C305 2.159 . S
C1237 C339 1.975 . S
C1242 C213 1.499 . S
C1247 C247 1.868 1_655 S
C1252 C373 2.095 . S
C1257 C281 1.600 . S
C1262 C67 2.117 . S
C1267 C315 1.820 . S
C1272 C101 2.032 . S
C1277 C135 1.975 . S
C1282 C349 1.499 . S
C1287 C383 1.887 . S
C1292 C33 2.159 . S
C1297 C417 1.423 . S
C1302 C271 1.909 . S
C1307 C451 1.900 . S
C1312 C169 2.177 . S
C1317 C485 1.444 . S
C1322 C203 1.890 . S
C1327 C519 1.868 1_556 S
C1332 C237 2.096 . S
C1337 C553 1.596 . S
C1342 C781 2.117 . S
C1347 C645 1.975 . S
C1352 C587 1.493 . S
C1357 C679 2.036 . S
C1362 C621 1.822 . S
C1367 C713 1.910 . S
C1372 C655 1.429 . S
C1377 C689 1.866 1_565 S
C1382 C611 2.094 . S
C1387 C815 1.889 . S
C1392 C723 1.444 . S
C1397 C747 2.177 . S
C1402 C757 1.897 . S
C1407 C791 1.887 . S
C1412 C577 2.160 . S
