# Generated by pormake.
# Topology wmc, (6)-cn, num edge types: 1
# Building blocks:
#     Node 0, Type 0, BuildingBlock: VOLQOD_clean_sbu_1, # of connection points: 6
#     Node 1, Type 0, BuildingBlock: VOLQOD_clean_sbu_1, # of connection points: 6
#     Node 2, Type 0, BuildingBlock: VOLQOD_clean_sbu_1, # of connection points: 6
#     Node 3, Type 0, BuildingBlock: VOLQOD_clean_sbu_1, # of connection points: 6
#     Node 4, Type 0, BuildingBlock: VOLQOD_clean_sbu_1, # of connection points: 6
#     Node 5, Type 0, BuildingBlock: VOLQOD_clean_sbu_1, # of connection points: 6
#     Node 6, Type 0, BuildingBlock: VOLQOD_clean_sbu_1, # of connection points: 6
#     Node 7, Type 0, BuildingBlock: VOLQOD_clean_sbu_1, # of connection points: 6
#     Node 8, Type 0, BuildingBlock: VOLQOD_clean_sbu_1, # of connection points: 6
#     Node 9, Type 0, BuildingBlock: VOLQOD_clean_sbu_1, # of connection points: 6
#     Node 10, Type 0, BuildingBlock: VOLQOD_clean_sbu_1, # of connection points: 6
#     Node 11, Type 0, BuildingBlock: VOLQOD_clean_sbu_1, # of connection points: 6
#     Node 12, Type 0, BuildingBlock: VOLQOD_clean_sbu_1, # of connection points: 6
#     Node 13, Type 0, BuildingBlock: VOLQOD_clean_sbu_1, # of connection points: 6
#     Node 14, Type 0, BuildingBlock: VOLQOD_clean_sbu_1, # of connection points: 6
#     Node 15, Type 0, BuildingBlock: VOLQOD_clean_sbu_1, # of connection points: 6
#     Node 16, Type 0, BuildingBlock: VOLQOD_clean_sbu_1, # of connection points: 6
#     Node 17, Type 0, BuildingBlock: VOLQOD_clean_sbu_1, # of connection points: 6
#     Edge 18, Type (0, 0), BuildingBlock: AJUNOK_clean_linker_0, # of connection points: 2
#     Edge 19, Type (0, 0), BuildingBlock: AJUNOK_clean_linker_0, # of connection points: 2
#     Edge 20, Type (0, 0), BuildingBlock: AJUNOK_clean_linker_0, # of connection points: 2
#     Edge 21, Type (0, 0), BuildingBlock: AJUNOK_clean_linker_0, # of connection points: 2
#     Edge 22, Type (0, 0), BuildingBlock: AJUNOK_clean_linker_0, # of connection points: 2
#     Edge 23, Type (0, 0), BuildingBlock: AJUNOK_clean_linker_0, # of connection points: 2
#     Edge 24, Type (0, 0), BuildingBlock: AJUNOK_clean_linker_0, # of connection points: 2
#     Edge 25, Type (0, 0), BuildingBlock: AJUNOK_clean_linker_0, # of connection points: 2
#     Edge 26, Type (0, 0), BuildingBlock: AJUNOK_clean_linker_0, # of connection points: 2
#     Edge 27, Type (0, 0), BuildingBlock: AJUNOK_clean_linker_0, # of connection points: 2
#     Edge 28, Type (0, 0), BuildingBlock: AJUNOK_clean_linker_0, # of connection points: 2
#     Edge 29, Type (0, 0), BuildingBlock: AJUNOK_clean_linker_0, # of connection points: 2
#     Edge 30, Type (0, 0), BuildingBlock: AJUNOK_clean_linker_0, # of connection points: 2
#     Edge 31, Type (0, 0), BuildingBlock: AJUNOK_clean_linker_0, # of connection points: 2
#     Edge 32, Type (0, 0), BuildingBlock: AJUNOK_clean_linker_0, # of connection points: 2
#     Edge 33, Type (0, 0), BuildingBlock: AJUNOK_clean_linker_0, # of connection points: 2
#     Edge 34, Type (0, 0), BuildingBlock: AJUNOK_clean_linker_0, # of connection points: 2
#     Edge 35, Type (0, 0), BuildingBlock: AJUNOK_clean_linker_0, # of connection points: 2
#     Edge 36, Type (0, 0), BuildingBlock: AJUNOK_clean_linker_0, # of connection points: 2
#     Edge 37, Type (0, 0), BuildingBlock: AJUNOK_clean_linker_0, # of connection points: 2
#     Edge 38, Type (0, 0), BuildingBlock: AJUNOK_clean_linker_0, # of connection points: 2
#     Edge 39, Type (0, 0), BuildingBlock: AJUNOK_clean_linker_0, # of connection points: 2
#     Edge 40, Type (0, 0), BuildingBlock: AJUNOK_clean_linker_0, # of connection points: 2
#     Edge 41, Type (0, 0), BuildingBlock: AJUNOK_clean_linker_0, # of connection points: 2
#     Edge 42, Type (0, 0), BuildingBlock: AJUNOK_clean_linker_0, # of connection points: 2
#     Edge 43, Type (0, 0), BuildingBlock: AJUNOK_clean_linker_0, # of connection points: 2
#     Edge 44, Type (0, 0), BuildingBlock: AJUNOK_clean_linker_0, # of connection points: 2
#     Edge 45, Type (0, 0), BuildingBlock: AJUNOK_clean_linker_0, # of connection points: 2
#     Edge 46, Type (0, 0), BuildingBlock: AJUNOK_clean_linker_0, # of connection points: 2
#     Edge 47, Type (0, 0), BuildingBlock: AJUNOK_clean_linker_0, # of connection points: 2
#     Edge 48, Type (0, 0), BuildingBlock: AJUNOK_clean_linker_0, # of connection points: 2
#     Edge 49, Type (0, 0), BuildingBlock: AJUNOK_clean_linker_0, # of connection points: 2
#     Edge 50, Type (0, 0), BuildingBlock: AJUNOK_clean_linker_0, # of connection points: 2
#     Edge 51, Type (0, 0), BuildingBlock: AJUNOK_clean_linker_0, # of connection points: 2
#     Edge 52, Type (0, 0), BuildingBlock: AJUNOK_clean_linker_0, # of connection points: 2
#     Edge 53, Type (0, 0), BuildingBlock: AJUNOK_clean_linker_0, # of connection points: 2
#     Edge 54, Type (0, 0), BuildingBlock: AJUNOK_clean_linker_0, # of connection points: 2
#     Edge 55, Type (0, 0), BuildingBlock: AJUNOK_clean_linker_0, # of connection points: 2
#     Edge 56, Type (0, 0), BuildingBlock: AJUNOK_clean_linker_0, # of connection points: 2
#     Edge 57, Type (0, 0), BuildingBlock: AJUNOK_clean_linker_0, # of connection points: 2
#     Edge 58, Type (0, 0), BuildingBlock: AJUNOK_clean_linker_0, # of connection points: 2
#     Edge 59, Type (0, 0), BuildingBlock: AJUNOK_clean_linker_0, # of connection points: 2
#     Edge 60, Type (0, 0), BuildingBlock: AJUNOK_clean_linker_0, # of connection points: 2
#     Edge 61, Type (0, 0), BuildingBlock: AJUNOK_clean_linker_0, # of connection points: 2
#     Edge 62, Type (0, 0), BuildingBlock: AJUNOK_clean_linker_0, # of connection points: 2
#     Edge 63, Type (0, 0), BuildingBlock: AJUNOK_clean_linker_0, # of connection points: 2
#     Edge 64, Type (0, 0), BuildingBlock: AJUNOK_clean_linker_0, # of connection points: 2
#     Edge 65, Type (0, 0), BuildingBlock: AJUNOK_clean_linker_0, # of connection points: 2
#     Edge 66, Type (0, 0), BuildingBlock: AJUNOK_clean_linker_0, # of connection points: 2
#     Edge 67, Type (0, 0), BuildingBlock: AJUNOK_clean_linker_0, # of connection points: 2
#     Edge 68, Type (0, 0), BuildingBlock: AJUNOK_clean_linker_0, # of connection points: 2
#     Edge 69, Type (0, 0), BuildingBlock: AJUNOK_clean_linker_0, # of connection points: 2
#     Edge 70, Type (0, 0), BuildingBlock: AJUNOK_clean_linker_0, # of connection points: 2
#     Edge 71, Type (0, 0), BuildingBlock: AJUNOK_clean_linker_0, # of connection points: 2
# Relax obj value: 0.291
# Max RMSD: 0.168
# Mean RMSD: 0.168
data_MOF--net-wmc--node1-VOLQOD_clean_sbu_1--edge1-AJUNOK_clean_linker_0
_symmetry_space_group_name_H-M    P1
_symmetry_Int_Tables_number       1
_symmetry_cell_setting            triclinic
loop_
_symmetry_equiv_pos_as_xyz
'x, y, z'
_cell_length_a     37.038151
_cell_length_b     37.048156
_cell_length_c     25.454828
_cell_angle_alpha  90.077659
_cell_angle_beta   90.033263
_cell_angle_gamma 119.98471
loop_
_atom_site_label
_atom_site_type_symbol
_atom_site_fract_x
_atom_site_fract_y
_atom_site_fract_z
_atom_type_partial_charge
O0 O 0.68156 0.19428 0.91987 0.0
Zn1 Zn 0.64151 0.13309 0.9201 0.0
O2 O 0.59456 0.12059 -0.03766 0.0
Zn3 Zn 0.55494 0.12264 0.91764 0.0
Zn4 Zn 0.61732 0.16457 0.01131 0.0
Zn5 Zn 0.57438 0.06883 -0.00159 0.0
O6 O 0.49942 0.07454 0.93422 0.0
O7 O 0.51653 0.02684 0.95858 0.0
O8 O 0.62589 0.11209 0.84722 0.0
O9 O 0.56554 0.11146 0.84377 0.0
O10 O 0.55744 0.17876 0.92307 0.0
O11 O 0.59947 0.20434 -0.00797 0.0
O12 O 0.59667 0.14385 0.0831 0.0
O13 O 0.67381 0.11225 0.95663 0.0
O14 O 0.5577 0.07524 0.07145 0.0
O15 O 0.63078 0.06785 0.01609 0.0
C16 C 0.69845 0.21228 -0.03704 0.0
C17 C 0.48967 0.03658 0.94053 0.0
C18 C 0.57765 0.20794 0.95625 0.0
C19 C 0.59359 0.10612 0.82234 0.0
C20 C 0.57156 0.10757 0.10037 0.0
C21 C 0.66795 0.09058 -0.00244 0.0
O22 O 0.67964 0.19784 0.00642 0.0
O23 O 0.85507 0.48841 0.92166 0.0
Zn24 Zn 0.91647 0.51238 0.92548 0.0
O25 O 0.93051 0.47993 -0.03096 0.0
Zn26 Zn 0.93373 0.43966 0.92673 0.0
Zn27 Zn 0.88583 0.45591 0.01675 0.0
Zn28 Zn 0.98208 0.51533 0.00415 0.0
O29 O 0.98407 0.43672 0.94728 0.0
O30 O 1.02697 0.50421 -0.03523 0.0
O31 O 0.93973 0.51815 0.85403 0.0
O32 O 0.9439 0.46023 0.85212 0.0
O33 O 0.88121 0.38332 0.93318 0.0
O34 O 0.85117 0.39591 0.0008 0.0
O35 O 0.90801 0.46132 0.08904 0.0
O36 O 0.93337 0.56518 -0.03787 0.0
O37 O 0.97697 0.49401 0.07791 0.0
O38 O 0.98157 0.57188 0.01921 0.0
C39 C 0.83538 0.48586 -0.03633 0.0
C40 C 1.02082 0.46777 0.95132 0.0
C41 C 0.85175 0.37119 -0.03342 0.0
C42 C 0.94755 0.49273 0.82992 0.0
C43 C 0.94474 0.47508 0.10682 0.0
C44 C 0.95653 0.58366 0.00126 0.0
O45 O 0.84821 0.48024 0.00778 0.0
O46 O 0.56215 0.37441 0.91677 0.0
Zn47 Zn 0.53794 0.41162 0.92215 0.0
O48 O 0.57182 0.45859 -0.03513 0.0
Zn49 Zn 0.61194 0.50141 0.92171 0.0
Zn50 Zn 0.59685 0.4391 0.01266 0.0
Zn51 Zn 0.53759 0.47574 0.00098 0.0
O52 O 0.61569 0.55516 0.94178 0.0
O53 O 0.5488 0.53177 0.96178 0.0
O54 O 0.53093 0.42906 0.85092 0.0
O55 O 0.58978 0.49041 0.84789 0.0
O56 O 0.66847 0.5049 0.92698 0.0
O57 O 0.65677 0.46606 -0.00186 0.0
O58 O 0.59113 0.45454 0.08526 0.0
O59 O 0.48611 0.37632 0.96101 0.0
O60 O 0.56029 0.49256 0.07428 0.0
O61 O 0.48094 0.41922 0.01747 0.0
C62 C 0.57068 0.3603 0.95755 0.0
C63 C 0.58514 0.56154 0.94723 0.0
C64 C 0.6811 0.48957 -0.03743 0.0
C65 C 0.55649 0.462 0.82645 0.0
C66 C 0.57878 0.47864 0.103 0.0
C67 C 0.46863 0.38202 0.00046 0.0
O68 O 0.57683 0.37846 0.00195 0.0
O69 O 0.84847 0.3782 0.42988 0.0
Zn70 Zn 0.91002 0.41347 0.42803 0.0
O71 O 0.92816 0.46103 0.47104 0.0
Zn72 Zn 0.93036 0.50423 0.4293 0.0
Zn73 Zn 0.8864 0.44227 0.5227 0.0
Zn74 Zn 0.98098 0.47596 0.50135 0.0
O75 O 0.98264 0.55718 0.44614 0.0
O76 O 1.02437 0.5304 0.45843 0.0
O77 O 0.92948 0.42887 0.35473 0.0
O78 O 0.93679 0.49232 0.3538 0.0
O79 O 0.87844 0.50873 0.44022 0.0
O80 O 0.85173 0.46806 0.51033 0.0
O81 O 0.91277 0.46091 0.5926 0.0
O82 O 0.92687 0.37663 0.46216 0.0
O83 O 0.98099 0.4946 0.57556 0.0
O84 O 0.97881 0.41788 0.51521 0.0
C85 C 0.83176 0.36142 0.47346 0.0
C86 C 1.01891 0.56128 0.44582 0.0
C87 C 0.85101 0.49277 0.47635 0.0
C88 C 0.93777 0.46224 0.33075 0.0
C89 C 0.95053 0.4834 0.60707 0.0
C90 C 0.95189 0.38106 0.49891 0.0
O91 O 0.84778 0.38019 0.51662 0.0
O92 O 0.67576 0.48556 0.43019 0.0
Zn93 Zn 0.63884 0.51005 0.42624 0.0
O94 O 0.59078 0.47981 0.46823 0.0
Zn95 Zn 0.54883 0.43857 0.42507 0.0
Zn96 Zn 0.60965 0.4569 0.52025 0.0
Zn97 Zn 0.57443 0.5166 0.49917 0.0
O98 O 0.49515 0.43644 0.4405 0.0
O99 O 0.51852 0.50388 0.45756 0.0
O100 O 0.62471 0.51327 0.3521 0.0
O101 O 0.56177 0.45657 0.34956 0.0
O102 O 0.54489 0.3826 0.43625 0.0
O103 O 0.58547 0.39682 0.50662 0.0
O104 O 0.58927 0.46252 0.58983 0.0
O105 O 0.67407 0.56421 0.45991 0.0
O106 O 0.55581 0.49728 0.57319 0.0
O107 O 0.63224 0.57308 0.51401 0.0
C108 C 0.69186 0.48561 0.47437 0.0
C109 C 0.48876 0.46709 0.4441 0.0
C110 C 0.56108 0.37136 0.47234 0.0
C111 C 0.59221 0.48752 0.32701 0.0
C112 C 0.56647 0.47738 0.60436 0.0
C113 C 0.66922 0.58406 0.49724 0.0
O114 O 0.67199 0.48187 0.51679 0.0
O115 O 0.56509 0.20158 0.42624 0.0
Zn116 Zn 0.5407 0.14014 0.42255 0.0
O117 O 0.57154 0.12297 0.46463 0.0
Zn118 Zn 0.61302 0.12239 0.42208 0.0
Zn119 Zn 0.59411 0.16475 0.51656 0.0
Zn120 Zn 0.53543 0.07012 0.49618 0.0
O121 O 0.61489 0.07062 0.43743 0.0
O122 O 0.54738 0.0268 0.45415 0.0
O123 O 0.53734 0.12212 0.34831 0.0
O124 O 0.59441 0.11636 0.34684 0.0
O125 O 0.66913 0.17485 0.43341 0.0
O126 O 0.65395 0.20089 0.50325 0.0
O127 O 0.58941 0.13945 0.58616 0.0
O128 O 0.48666 0.12117 0.45709 0.0
O129 O 0.55616 0.07126 0.56956 0.0
O130 O 0.47927 0.07152 0.5121 0.0
C131 C 0.56543 0.2179 0.47039 0.0
C132 C 0.58404 0.03363 0.44055 0.0
C133 C 0.67983 0.20225 0.46955 0.0
C134 C 0.56309 0.11493 0.32396 0.0
C135 C 0.5758 0.10202 0.60063 0.0
C136 C 0.46772 0.09706 0.49523 0.0
O137 O 0.56899 0.20177 0.51288 0.0
O138 O 0.34338 0.52761 0.26118 0.0
Zn139 Zn 0.30392 0.46647 0.26 0.0
O140 O 0.25755 0.45347 0.30341 0.0
Zn141 Zn 0.21667 0.45569 0.26174 0.0
Zn142 Zn 0.27949 0.49587 0.35477 0.0
Zn143 Zn 0.23895 0.40025 0.33445 0.0
O144 O 0.1626 0.40309 0.27029 0.0
O145 O 0.18406 0.35805 0.29111 0.0
O146 O 0.28657 0.44668 0.18665 0.0
O147 O 0.23169 0.45619 0.18639 0.0
O148 O 0.21291 0.50707 0.27716 0.0
O149 O 0.25818 0.53469 0.34273 0.0
O150 O 0.25922 0.47028 0.42484 0.0
O151 O 0.33832 0.4468 0.29438 0.0
O152 O 0.2198 0.40236 0.40721 0.0
O153 O 0.29522 0.39978 0.35145 0.0
C154 C 0.36064 0.54515 0.30436 0.0
C155 C 0.15562 0.36587 0.2743 0.0
C156 C 0.23233 0.53584 0.31093 0.0
C157 C 0.25737 0.44849 0.16271 0.0
C158 C 0.23345 0.43311 0.43878 0.0
C159 C 0.3324 0.42365 0.33387 0.0
O160 O 0.34188 0.53091 0.34798 0.0
O161 O 0.51736 0.81788 0.26351 0.0
Zn162 Zn 0.5787 0.84195 0.26187 0.0
O163 O 0.59523 0.81092 0.3044 0.0
Zn164 Zn 0.59715 0.7699 0.26223 0.0
Zn165 Zn 0.55238 0.7877 0.3547 0.0
Zn166 Zn 0.64795 0.84717 0.33646 0.0
O167 O 0.64846 0.76774 0.27992 0.0
O168 O 0.69157 0.8356 0.29504 0.0
O169 O 0.59824 0.84575 0.18851 0.0
O170 O 0.60459 0.78902 0.18712 0.0
O171 O 0.5448 0.71374 0.27152 0.0
O172 O 0.51595 0.72787 0.33913 0.0
O173 O 0.57715 0.79209 0.42496 0.0
O174 O 0.597 0.89571 0.29698 0.0
O175 O 0.64573 0.82696 0.41038 0.0
O176 O 0.64799 0.90402 0.3505 0.0
C177 C 0.50105 0.81843 0.30727 0.0
C178 C 0.68523 0.799 0.28223 0.0
C179 C 0.51573 0.70246 0.30536 0.0
C180 C 0.60618 0.82042 0.16434 0.0
C181 C 0.61455 0.80656 0.4405 0.0
C182 C 0.62228 0.91542 0.33398 0.0
O183 O 0.51621 0.81397 0.35016 0.0
O184 O 0.23636 0.71053 0.26432 0.0
Zn185 Zn 0.21029 0.74578 0.26118 0.0
O186 O 0.24036 0.79402 0.30285 0.0
Zn187 Zn 0.28084 0.83562 0.25874 0.0
Zn188 Zn 0.26429 0.77601 0.35491 0.0
Zn189 Zn 0.20309 0.80967 0.33398 0.0
O190 O 0.28181 0.88887 0.27308 0.0
O191 O 0.21466 0.86511 0.29249 0.0
O192 O 0.2056 0.75876 0.18703 0.0
O193 O 0.26233 0.82156 0.18337 0.0
O194 O 0.3375 0.84088 0.26994 0.0
O195 O 0.32447 0.80165 0.34127 0.0
O196 O 0.2585 0.79616 0.4247 0.0
O197 O 0.15684 0.70994 0.29566 0.0
O198 O 0.22284 0.8287 0.40795 0.0
O199 O 0.14679 0.75167 0.34858 0.0
C200 C 0.23733 0.69445 0.30799 0.0
C201 C 0.251 0.89492 0.27787 0.0
C202 C 0.34946 0.82581 0.30661 0.0
C203 C 0.23114 0.79087 0.16137 0.0
C204 C 0.24327 0.81867 0.43916 0.0
C205 C 0.13644 0.71469 0.3323 0.0
O206 O 0.24119 0.71381 0.35098 0.0
O207 O 0.52137 0.70864 0.75755 0.0
Zn208 Zn 0.58255 0.74569 0.76115 0.0
O209 O 0.59659 0.79298 0.80315 0.0
Zn210 Zn 0.59886 0.8353 0.75934 0.0
Zn211 Zn 0.55234 0.77286 0.85153 0.0
Zn212 Zn 0.64854 0.80989 0.83756 0.0
O213 O 0.64989 0.88905 0.77671 0.0
O214 O 0.6928 0.86497 0.79689 0.0
O215 O 0.60518 0.76159 0.68922 0.0
O216 O 0.60679 0.82244 0.6847 0.0
O217 O 0.54687 0.83997 0.76734 0.0
O218 O 0.51764 0.79823 0.83576 0.0
O219 O 0.57527 0.79043 0.92342 0.0
O220 O 0.59923 0.71031 0.7995 0.0
O221 O 0.64409 0.82701 0.91109 0.0
O222 O 0.6493 0.75375 0.85345 0.0
C223 C 0.50187 0.69187 0.79972 0.0
C224 C 0.68662 0.89477 0.78136 0.0
C225 C 0.51791 0.82328 0.80147 0.0
C226 C 0.61083 0.79343 0.6635 0.0
C227 C 0.61214 0.8138 0.9405 0.0
C228 C 0.62388 0.71641 0.83744 0.0
O229 O 0.51467 0.71079 0.8436 0.0
O230 O 0.35097 0.83692 0.75836 0.0
Zn231 Zn 0.30886 0.85557 0.75943 0.0
O232 O 0.26154 0.81821 0.80012 0.0
Zn233 Zn 0.2204 0.77706 0.75562 0.0
Zn234 Zn 0.28391 0.79535 0.84723 0.0
Zn235 Zn 0.23971 0.84759 0.83774 0.0
O236 O 0.1643 0.76908 0.77363 0.0
O237 O 0.18349 0.83431 0.79765 0.0
O238 O 0.29219 0.85983 0.68617 0.0
O239 O 0.23158 0.80017 0.68268 0.0
O240 O 0.2222 0.72307 0.75805 0.0
O241 O 0.26639 0.73823 0.82448 0.0
O242 O 0.26244 0.79321 0.91915 0.0
O243 O 0.33931 0.90918 0.79797 0.0
O244 O 0.22299 0.82259 0.90975 0.0
O245 O 0.29301 0.90531 0.85681 0.0
C246 C 0.36667 0.83312 0.80103 0.0
C247 C 0.15553 0.79793 0.78061 0.0
C248 C 0.24336 0.71349 0.78873 0.0
C249 C 0.25974 0.8335 0.6613 0.0
C250 C 0.23688 0.80351 0.93734 0.0
C251 C 0.3304 0.92319 0.83852 0.0
O252 O 0.34634 0.82519 0.84391 0.0
O253 O 0.22309 0.52894 0.74809 0.0
Zn254 Zn 0.20134 0.46786 0.75597 0.0
O255 O 0.23724 0.45692 0.79792 0.0
Zn256 Zn 0.27768 0.45489 0.75475 0.0
Zn257 Zn 0.26107 0.50221 0.84451 0.0
Zn258 Zn 0.2059 0.40628 0.83657 0.0
O259 O 0.28256 0.40515 0.77311 0.0
O260 O 0.21707 0.36115 0.79801 0.0
O261 O 0.19433 0.44256 0.68528 0.0
O262 O 0.25535 0.44417 0.68121 0.0
O263 O 0.33376 0.50797 0.76108 0.0
O264 O 0.32142 0.53452 0.83248 0.0
O265 O 0.25241 0.48253 0.91737 0.0
O266 O 0.15022 0.45034 0.7971 0.0
O267 O 0.23078 0.41503 0.90935 0.0
O268 O 0.14873 0.40445 0.85452 0.0
C269 C 0.23333 0.55311 0.7876 0.0
C270 C 0.25299 0.36811 0.78105 0.0
C271 C 0.34611 0.53552 0.79723 0.0
C272 C 0.22116 0.43731 0.66033 0.0
C273 C 0.24403 0.44779 0.93742 0.0
C274 C 0.13444 0.42766 0.83743 0.0
O275 O 0.24189 0.54305 0.83172 0.0
O276 O 1.01113 0.86539 0.59781 0.0
Zn277 Zn 0.97282 0.80398 0.59644 0.0
O278 O 0.92504 0.78845 0.63834 0.0
Zn279 Zn 0.88249 0.7871 0.59576 0.0
Zn280 Zn 0.94523 0.83139 0.68871 0.0
Zn281 Zn 0.90709 0.73561 0.67065 0.0
O282 O 0.82812 0.73613 0.61224 0.0
O283 O 0.85245 0.69276 0.62756 0.0
O284 O 0.95698 0.78404 0.52284 0.0
O285 O 0.8946 0.77936 0.521 0.0
O286 O 0.87993 0.84016 0.60468 0.0
O287 O 0.9225 0.86823 0.67293 0.0
O288 O 0.92459 0.80704 0.759 0.0
O289 O 1.00706 0.78484 0.6332 0.0
O290 O 0.88858 0.73848 0.7442 0.0
O291 O 0.96304 0.73433 0.6862 0.0
C292 C 1.02749 0.88252 0.64151 0.0
C293 C 0.82257 0.69932 0.61339 0.0
C294 C 0.89792 0.86908 0.63877 0.0
C295 C 0.92399 0.77683 0.49845 0.0
C296 C 0.9005 0.76989 0.77442 0.0
C297 C 1.00048 0.75955 0.67048 0.0
O298 O 1.00773 0.86764 0.68433 0.0
O299 O 0.18645 0.15466 0.59593 0.0
Zn300 Zn 0.24765 0.17889 0.59698 0.0
O301 O 0.26286 0.14632 0.63846 0.0
Zn302 Zn 0.26386 0.10557 0.59442 0.0
Zn303 Zn 0.21989 0.1232 0.68884 0.0
Zn304 Zn 0.31568 0.1819 0.67076 0.0
O305 O 0.31565 0.10319 0.60914 0.0
O306 O 0.35884 0.17048 0.62773 0.0
O307 O 0.26842 0.18467 0.52407 0.0
O308 O 0.27 0.1254 0.51953 0.0
O309 O 0.21158 0.04924 0.60462 0.0
O310 O 0.18491 0.0628 0.67522 0.0
O311 O 0.24482 0.12961 0.75959 0.0
O312 O 0.26505 0.23144 0.63467 0.0
O313 O 0.31327 0.16114 0.74443 0.0
O314 O 0.31636 0.23892 0.68688 0.0
C315 C 0.16813 0.15303 0.63879 0.0
C316 C 0.35244 0.13439 0.61209 0.0
C317 C 0.18413 0.03758 0.64076 0.0
C318 C 0.27354 0.15816 0.49819 0.0
C319 C 0.28206 0.14292 0.77511 0.0
C320 C 0.29046 0.2505 0.67178 0.0
O321 O 0.18189 0.14754 0.68228 0.0
O322 O 0.89947 0.04344 0.594 0.0
Zn323 Zn 0.87414 0.07956 0.59432 0.0
O324 O 0.90525 0.12695 0.63686 0.0
Zn325 Zn 0.94602 0.16949 0.59407 0.0
Zn326 Zn 0.9283 0.10704 0.68705 0.0
Zn327 Zn 0.86881 0.14278 0.66936 0.0
O328 O 0.94732 0.22284 0.61025 0.0
O329 O 0.87951 0.19733 0.62692 0.0
O330 O 0.86884 0.0948 0.52175 0.0
O331 O 0.92691 0.15669 0.51871 0.0
O332 O 1.00243 0.17371 0.60434 0.0
O333 O 0.98823 0.13155 0.67277 0.0
O334 O 0.92272 0.12592 0.75769 0.0
O335 O 0.82107 0.04353 0.62964 0.0
O336 O 0.88954 0.16134 0.74303 0.0
O337 O 0.81284 0.0852 0.68477 0.0
C338 C 0.90049 0.02651 0.63696 0.0
C339 C 0.91559 0.22764 0.61242 0.0
C340 C 1.01371 0.15645 0.63901 0.0
C341 C 0.89482 0.12704 0.49663 0.0
C342 C 0.90893 0.14939 0.77331 0.0
C343 C 0.80188 0.0483 0.66778 0.0
O344 O 0.90411 0.04497 0.68064 0.0
O345 O 0.18656 0.04303 0.0933 0.0
Zn346 Zn 0.2479 0.08034 0.09519 0.0
O347 O 0.26273 0.12758 0.13778 0.0
Zn348 Zn 0.26505 0.17045 0.09509 0.0
Zn349 Zn 0.2189 0.10714 0.18668 0.0
Zn350 Zn 0.31477 0.14452 0.17181 0.0
O351 O 0.316 0.22414 0.11311 0.0
O352 O 0.35878 0.1994 0.13039 0.0
O353 O 0.26977 0.09671 0.02275 0.0
O354 O 0.27371 0.15873 0.02037 0.0
O355 O 0.21265 0.17441 0.10329 0.0
O356 O 0.18358 0.13154 0.1708 0.0
O357 O 0.24197 0.12604 0.2581 0.0
O358 O 0.2652 0.04493 0.13246 0.0
O359 O 0.31075 0.16231 0.24534 0.0
O360 O 0.31497 0.088 0.18713 0.0
C361 C 0.16805 0.02603 0.13595 0.0
C362 C 0.35269 0.22946 0.11574 0.0
C363 C 0.18357 0.15682 0.13714 0.0
C364 C 0.27705 0.12961 -0.00172 0.0
C365 C 0.27888 0.1499 0.27472 0.0
C366 C 0.2897 0.0508 0.17053 0.0
O367 O 0.18176 0.0449 0.1797 0.0
O368 O 1.01202 0.16091 0.09365 0.0
Zn369 Zn 0.97198 0.18175 0.09402 0.0
O370 O 0.92508 0.1479 0.13656 0.0
Zn371 Zn 0.88265 0.10623 0.0938 0.0
Zn372 Zn 0.94657 0.12558 0.1857 0.0
Zn373 Zn 0.90644 0.18157 0.17076 0.0
O374 O 0.82791 0.1017 0.11158 0.0
O375 O 0.85089 0.16883 0.12954 0.0
O376 O 0.95512 0.18503 0.02144 0.0
O377 O 0.89411 0.12589 0.01857 0.0
O378 O 0.88074 0.05083 0.10258 0.0
O379 O 0.92423 0.06605 0.16988 0.0
O380 O 0.92712 0.12896 0.25685 0.0
O381 O 1.00524 0.23619 0.12842 0.0
O382 O 0.8893 0.15984 0.24414 0.0
O383 O 0.96174 0.23935 0.18579 0.0
C384 C 1.02853 0.15896 0.13657 0.0
C385 C 0.82141 0.13229 0.11506 0.0
C386 C 0.89931 0.04028 0.13623 0.0
C387 C 0.923 0.15843 -0.00355 0.0
C388 C 0.90256 0.1411 0.27346 0.0
C389 C 0.99867 0.25414 0.16665 0.0
O390 O 1.00889 0.15246 0.17985 0.0
O391 O 0.89608 0.86457 0.09426 0.0
Zn392 Zn 0.87229 0.80332 0.09568 0.0
O393 O 0.90515 0.78872 0.1376 0.0
Zn394 Zn 0.94558 0.78712 0.09369 0.0
Zn395 Zn 0.92858 0.83232 0.18726 0.0
Zn396 Zn 0.87026 0.73644 0.17104 0.0
O397 O 0.94887 0.73618 0.1104 0.0
O398 O 0.88177 0.69287 0.12955 0.0
O399 O 0.86623 0.78179 0.0231 0.0
O400 O 0.92494 0.77918 0.01891 0.0
O401 O 1.00157 0.84001 0.10205 0.0
O402 O 0.9884 0.8678 0.17174 0.0
O403 O 0.92368 0.8088 0.25862 0.0
O404 O 0.81965 0.78547 0.13286 0.0
O405 O 0.89145 0.74016 0.24475 0.0
O406 O 0.81315 0.73538 0.18645 0.0
C407 C 0.89853 0.88353 0.13693 0.0
C408 C 0.91792 0.69934 0.11427 0.0
C409 C 1.01329 0.86854 0.13686 0.0
C410 C 0.8922 0.77573 -0.00252 0.0
C411 C 0.91026 0.77176 0.27482 0.0
C412 C 0.80094 0.76053 0.17037 0.0
O413 O 0.904 0.86999 0.18055 0.0
C414 C 0.54695 0.251 0.9244 0.0
C415 C 0.57759 0.24777 0.95335 0.0
C416 C 0.54561 0.28818 0.92423 0.0
C417 C 0.5744 0.32283 0.9537 0.0
H418 H 0.52336 0.22445 0.90275 0.0
H419 H 0.521 0.28932 0.90258 0.0
S420 S 0.66487 0.3332 0.02852 0.0
N421 N 0.64083 0.28482 0.00648 0.0
N422 N 0.63698 0.35368 0.00723 0.0
C423 C 0.60624 0.32076 -0.01937 0.0
C424 C 0.60815 0.28344 -0.01979 0.0
C425 C 0.75339 0.27484 0.00918 0.0
C426 C 0.73952 0.25087 -0.03697 0.0
C427 C 0.79065 0.31278 0.01019 0.0
C428 C 0.81582 0.32835 -0.03481 0.0
H429 H 0.73484 0.2649 0.0447 0.0
H430 H 0.79929 0.33049 0.04648 0.0
S431 S 0.7958 0.27572 0.83567 0.0
N432 N 0.75541 0.24384 0.87199 0.0
N433 N 0.82583 0.3156 0.87405 0.0
C434 C 0.80349 0.30388 0.91936 0.0
C435 C 0.76518 0.26511 0.91819 0.0
C436 C 0.73937 0.48819 0.00845 0.0
C437 C 0.7235 0.49533 -0.03819 0.0
C438 C 0.77571 0.48577 0.00851 0.0
C439 C 0.79791 0.49042 -0.03809 0.0
H440 H 0.72288 0.48318 0.0453 0.0
H441 H 0.7859 0.47935 0.04546 0.0
S442 S 0.77183 0.51386 0.82987 0.0
N443 N 0.73417 0.50999 0.86831 0.0
N444 N 0.80317 0.50591 0.86819 0.0
C445 C 0.7836 0.49969 0.91523 0.0
C446 C 0.74634 0.5022 0.91527 0.0
C447 C 0.75563 0.49452 0.42885 0.0
C448 C 0.7344 0.49144 0.47609 0.0
C449 C 0.79512 0.49817 0.42909 0.0
C450 C 0.81458 0.49861 0.47655 0.0
H451 H 0.7413 0.49303 0.39121 0.0
H452 H 0.80942 0.49834 0.39189 0.0
S453 S 0.7757 0.49801 0.61095 0.0
N454 N 0.73835 0.49398 0.57174 0.0
N455 N 0.81236 0.50039 0.57187 0.0
C456 C 0.79497 0.49807 0.52401 0.0
C457 C 0.7549 0.49454 0.52388 0.0
C458 C 0.55737 0.27324 0.4249 0.0
C459 C 0.56056 0.25514 0.4721 0.0
C460 C 0.55462 0.30956 0.42518 0.0
C461 C 0.55524 0.32912 0.47264 0.0
H462 H 0.55801 0.2599 0.38726 0.0
H463 H 0.55416 0.32351 0.38798 0.0
S464 S 0.55682 0.29147 0.60707 0.0
N465 N 0.5595 0.25741 0.5678 0.0
N466 N 0.55471 0.32587 0.56799 0.0
C467 C 0.55603 0.31024 0.5201 0.0
C468 C 0.55865 0.27323 0.51994 0.0
C469 C 0.74155 0.25918 0.42431 0.0
C470 C 0.7219 0.23889 0.47102 0.0
C471 C 0.77734 0.29868 0.42555 0.0
C472 C 0.79477 0.31908 0.47357 0.0
H473 H 0.72802 0.24547 0.3866 0.0
H474 H 0.79079 0.31364 0.38846 0.0
S475 S 0.7579 0.27556 0.6069 0.0
N476 N 0.72437 0.23953 0.56643 0.0
N477 N 0.79174 0.31359 0.56907 0.0
C478 C 0.77657 0.29783 0.52059 0.0
C479 C 0.74014 0.25774 0.51921 0.0
C480 C 0.24481 0.63915 0.35369 0.0
C481 C 0.23296 0.65262 0.30875 0.0
C482 C 0.2427 0.60045 0.35469 0.0
C483 C 0.22826 0.57351 0.31097 0.0
H484 H 0.25688 0.65905 0.38798 0.0
H485 H 0.25338 0.59203 0.38975 0.0
S486 S 0.18897 0.59217 0.18568 0.0
N487 N 0.20305 0.63466 0.22078 0.0
N488 N 0.19897 0.56172 0.22282 0.0
C489 C 0.21434 0.58569 0.26665 0.0
C490 C 0.21687 0.62535 0.26542 0.0
C491 C 0.45417 0.64531 0.35011 0.0
C492 C 0.47934 0.65986 0.30496 0.0
C493 C 0.41651 0.6077 0.34978 0.0
C494 C 0.40224 0.58311 0.30417 0.0
H495 H 0.46311 0.6636 0.38594 0.0
H496 H 0.39793 0.59858 0.38528 0.0
S497 S 0.45848 0.60496 0.17696 0.0
N498 N 0.48897 0.64527 0.21447 0.0
N499 N 0.41789 0.57416 0.2137 0.0
C500 C 0.42798 0.59621 0.25933 0.0
C501 C 0.46665 0.63462 0.2598 0.0
C502 C 0.44632 0.82671 0.26033 0.0
C503 C 0.46492 0.82515 0.308 0.0
C504 C 0.41044 0.83028 0.25983 0.0
C505 C 0.39189 0.83218 0.30698 0.0
H506 H 0.45869 0.8238 0.22301 0.0
H507 H 0.39583 0.82907 0.22247 0.0
S508 S 0.43165 0.83622 0.44185 0.0
N509 N 0.46464 0.83106 0.40338 0.0
N510 N 0.39689 0.83719 0.40216 0.0
C511 C 0.41153 0.8334 0.35469 0.0
C512 C 0.44812 0.82999 0.3553 0.0
C513 C 0.45622 0.8193 0.84548 0.0
C514 C 0.4824 0.83098 0.80119 0.0
C515 C 0.41968 0.82136 0.84536 0.0
C516 C 0.40753 0.83508 0.80087 0.0
H517 H 0.46344 0.80751 0.88049 0.0
H518 H 0.40026 0.81088 0.88012 0.0
S519 S 0.46705 0.87326 0.67639 0.0
N520 N 0.49523 0.85967 0.71279 0.0
N521 N 0.42621 0.86372 0.71251 0.0
C522 C 0.43427 0.8487 0.75698 0.0
C523 C 0.47181 0.84671 0.75719 0.0
C524 C 0.20579 0.59947 0.76001 0.0
C525 C 0.23768 0.59446 0.78244 0.0
C526 C 0.20813 0.6385 0.76052 0.0
C527 C 0.24256 0.67342 0.78321 0.0
H528 H 0.17823 0.57282 0.74399 0.0
H529 H 0.18228 0.64098 0.74478 0.0
S530 S 0.33735 0.67702 0.83845 0.0
N531 N 0.30639 0.62773 0.8223 0.0
N532 N 0.31164 0.70113 0.82237 0.0
C533 C 0.27577 0.66894 0.80269 0.0
C534 C 0.27309 0.62937 0.80258 0.0
C535 C 0.40335 0.59596 0.84351 0.0
C536 C 0.38868 0.57189 0.79737 0.0
C537 C 0.44027 0.63419 0.84391 0.0
C538 C 0.46421 0.65009 0.79816 0.0
H539 H 0.38555 0.58581 0.87962 0.0
H540 H 0.44944 0.65179 0.88027 0.0
S541 S 0.44197 0.59724 0.66819 0.0
N542 N 0.40248 0.56509 0.70557 0.0
N543 N 0.47253 0.63716 0.70619 0.0
C544 C 0.45112 0.62544 0.75221 0.0
C545 C 0.41329 0.58623 0.75189 0.0
C546 C 0.90532 0.96979 0.68259 0.0
C547 C 0.89674 0.9849 0.63648 0.0
C548 C 0.90363 0.93135 0.68325 0.0
C549 C 0.8931 0.90628 0.63791 0.0
H550 H 0.91435 0.98812 0.71836 0.0
H551 H 0.91157 0.92166 0.71953 0.0
S552 S 0.86354 0.92946 0.50838 0.0
N553 N 0.87405 0.97033 0.54513 0.0
N554 N 0.87107 0.89782 0.54655 0.0
C555 C 0.88247 0.91996 0.59211 0.0
C556 C 0.88441 0.95941 0.59129 0.0
C557 C 0.1286 0.97523 0.59423 0.0
C558 C 0.14826 0.99492 0.64137 0.0
C559 C 0.08991 0.93835 0.59468 0.0
C560 C 0.06972 0.91981 0.6423 0.0
H561 H 0.14207 0.98951 0.55681 0.0
H562 H 0.07523 0.92505 0.55732 0.0
S563 S 0.11218 0.95625 0.7764 0.0
N564 N 0.14745 0.99129 0.73669 0.0
N565 N 0.07509 0.92177 0.73783 0.0
C566 C 0.09057 0.93796 0.68969 0.0
C567 C 0.12976 0.97557 0.68913 0.0
C568 C 0.07028 0.15134 0.68444 0.0
C569 C 0.05604 0.16197 0.63894 0.0
C570 C 0.10692 0.14941 0.68417 0.0
C571 C 0.13088 0.1579 0.63832 0.0
H572 H 0.05234 0.14325 0.72046 0.0
H573 H 0.11583 0.14005 0.71996 0.0
S574 S 0.1098 0.19185 0.51014 0.0
N575 N 0.07041 0.18438 0.54786 0.0
N576 N 0.1398 0.1811 0.5472 0.0
C577 C 0.11824 0.17073 0.59313 0.0
C578 C 0.08078 0.17282 0.59353 0.0
C579 C 0.1216 0.15152 0.18172 0.0
C580 C 0.14734 0.16329 0.137 0.0
C581 C 0.08391 0.15135 0.18146 0.0
C582 C 0.07021 0.16284 0.1364 0.0
H583 H 0.13005 0.14126 0.21712 0.0
H584 H 0.06487 0.14089 0.21654 0.0
S585 S 0.12835 0.20124 0.01098 0.0
N586 N 0.15832 0.19029 0.04783 0.0
N587 N 0.08717 0.19024 0.04727 0.0
C588 C 0.09661 0.17688 0.09217 0.0
C589 C 0.1353 0.17717 0.09254 0.0
C590 C 0.90634 0.94697 0.18113 0.0
C591 C 0.89533 0.92174 0.13607 0.0
C592 C 0.90584 0.98435 0.18108 0.0
C593 C 0.89412 0.99807 0.13605 0.0
H594 H 0.91644 0.93839 0.21657 0.0
H595 H 0.91554 1.00303 0.21658 0.0
S596 S 0.85865 0.94161 0.0092 0.0
N597 N 0.86937 0.91154 0.04609 0.0
N598 N 0.86865 0.98226 0.04612 0.0
C599 C 0.88121 0.97235 0.09134 0.0
C600 C 0.88188 0.93414 0.09127 0.0
C601 C 0.10797 0.96761 0.18173 0.0
C602 C 0.13056 0.98405 0.1351 0.0
C603 C 0.07122 0.92916 0.1821 0.0
C604 C 0.05554 0.90536 0.13594 0.0
H605 H 0.11806 0.98495 0.21823 0.0
H606 H 0.0544 0.91851 0.21884 0.0
S607 S 0.10481 0.93225 0.00432 0.0
N608 N 0.13624 0.97201 0.04201 0.0
N609 N 0.0667 0.89949 0.04297 0.0
C610 C 0.07876 0.92026 0.08948 0.0
C611 C 0.11631 0.95972 0.08897 0.0
C612 C 0.54989 0.1333 0.23529 0.0
C613 C 0.55839 0.10756 0.26721 0.0
C614 C 0.5521 0.13161 0.18061 0.0
C615 C 0.56154 0.10324 0.15642 0.0
H616 H 0.544 0.15658 0.25269 0.0
H617 H 0.54781 0.15358 0.15715 0.0
S618 S 0.58158 0.026 0.22283 0.0
N619 N 0.57365 0.05098 0.27123 0.0
N620 N 0.57634 0.04677 0.16797 0.0
C621 C 0.56724 0.07538 0.1878 0.0
C622 C 0.56608 0.07784 0.24349 0.0
C623 C 0.92028 0.42982 0.24256 0.0
C624 C 0.94517 0.46476 0.27403 0.0
C625 C 0.92192 0.43295 0.18787 0.0
C626 C 0.94936 0.47075 0.16315 0.0
H627 H 0.89767 0.40053 0.26024 0.0
H628 H 0.90062 0.40602 0.16477 0.0
S629 S 1.02453 0.56984 0.22822 0.0
N630 N 1.00023 0.53733 0.27709 0.0
N631 N 1.0043 0.54286 0.17371 0.0
C632 C 0.97648 0.50514 0.19408 0.0
C633 C 0.97408 0.50224 0.24984 0.0
C634 C 0.55284 0.48094 0.24504 0.0
C635 C 0.59083 0.49172 0.2699 0.0
C636 C 0.54978 0.47984 0.1902 0.0
C637 C 0.5844 0.48845 0.15902 0.0
H638 H 0.52511 0.47229 0.26812 0.0
H639 H 0.5197 0.46981 0.17222 0.0
S640 S 0.69123 0.52064 0.2048 0.0
N641 N 0.6643 0.51383 0.25922 0.0
N642 N 0.65804 0.51028 0.156 0.0
C643 C 0.62284 0.50082 0.18326 0.0
C644 C 0.62622 0.5029 0.2389 0.0
C645 C 0.9343 0.51235 0.74224 0.0
C646 C 0.95607 0.49826 0.77342 0.0
C647 C 0.93492 0.50997 0.68758 0.0
C648 C 0.95826 0.49459 0.66259 0.0
H649 H 0.91433 0.52251 0.76012 0.0
H650 H 0.9155 0.51837 0.66477 0.0
S651 S 1.02544 0.45972 0.72641 0.0
N652 N 1.00482 0.47235 0.77566 0.0
N653 N 1.00691 0.46906 0.67221 0.0
C654 C 0.98294 0.48374 0.69303 0.0
C655 C 0.98157 0.48523 0.74881 0.0
C656 C 0.53941 0.4338 0.68363 0.0
C657 C 0.55441 0.4728 0.65962 0.0
C658 C 0.53672 0.42998 0.73822 0.0
C659 C 0.55017 0.46531 0.77025 0.0
H660 H 0.53169 0.40645 0.66012 0.0
H661 H 0.52709 0.39975 0.75539 0.0
S662 S 0.58707 0.5735 0.72608 0.0
N663 N 0.5785 0.54654 0.67116 0.0
N664 N 0.57472 0.53963 0.77444 0.0
C665 C 0.56256 0.50401 0.74664 0.0
C666 C 0.56434 0.5077 0.69095 0.0
C667 C 0.62496 0.12234 0.73392 0.0
C668 C 0.59059 0.09747 0.766 0.0
C669 C 0.62048 0.12153 0.67943 0.0
C670 C 0.58183 0.09503 0.6556 0.0
H671 H 0.65462 0.14474 0.75113 0.0
H672 H 0.64686 0.14321 0.65594 0.0
S673 S 0.48428 1.01915 0.72235 0.0
N674 N 0.51808 0.04253 0.77049 0.0
N675 N 0.50993 0.04009 0.66736 0.0
C676 C 0.54824 0.06733 0.68695 0.0
C677 C 0.55255 0.06885 0.74255 0.0
C678 C 0.20627 0.45008 0.51763 0.0
C679 C 0.22121 0.42593 0.49382 0.0
C680 C 0.20269 0.45063 0.57216 0.0
C681 C 0.21524 0.42804 0.60416 0.0
H682 H 0.19919 0.47012 0.49407 0.0
H683 H 0.19313 0.47129 0.58941 0.0
S684 S 0.25244 0.35687 0.56017 0.0
N685 N 0.24476 0.37586 0.50527 0.0
N686 N 0.23949 0.37803 0.60848 0.0
C687 C 0.22784 0.40184 0.58064 0.0
C688 C 0.23046 0.40048 0.52505 0.0
C689 C 0.64463 0.83693 0.52723 0.0
C690 C 0.62113 0.80153 0.49592 0.0
C691 C 0.64286 0.83382 0.58206 0.0
C692 C 0.61832 0.79511 0.60674 0.0
H693 H 0.66203 0.86748 0.50942 0.0
H694 H 0.65947 0.86204 0.60525 0.0
S695 S 0.55522 0.69274 0.54107 0.0
N696 N 0.57548 0.72654 0.49246 0.0
N697 N 0.57312 0.72026 0.59563 0.0
C698 C 0.59734 0.7591 0.57555 0.0
C699 C 0.59845 0.76245 0.51993 0.0
C700 C 0.29154 0.8505 0.57291 0.0
C701 C 0.25655 0.83885 0.60482 0.0
C702 C 0.28735 0.84628 0.51838 0.0
C703 C 0.24831 0.83146 0.49428 0.0
H704 H 0.32169 0.85988 0.59029 0.0
H705 H 0.31442 0.85279 0.49506 0.0
S706 S 0.14846 0.80276 0.56033 0.0
N707 N 0.18255 0.81585 0.60871 0.0
N708 N 0.17496 0.80925 0.50556 0.0
C709 C 0.2138 0.8232 0.5254 0.0
C710 C 0.21786 0.82654 0.58103 0.0
C711 C 0.59117 0.83506 0.02162 0.0
C712 C 0.61736 0.8231 -0.00329 0.0
C713 C 0.58982 0.83677 0.07633 0.0
C714 C 0.6137 0.82532 0.10762 0.0
H715 H 0.57054 0.84172 -0.00135 0.0
H716 H 0.56809 0.84467 0.09417 0.0
S717 S 0.68955 0.79484 0.06106 0.0
N718 N 0.67001 0.80271 0.00675 0.0
N719 N 0.66651 0.80462 0.11016 0.0
C720 C 0.64141 0.8151 0.08317 0.0
C721 C 0.64353 0.81437 0.0274 0.0
C722 C 0.23562 0.83195 0.02474 0.0
C723 C 0.22746 0.79746 -0.00657 0.0
C724 C 0.2355 0.82926 0.07954 0.0
C725 C 0.22614 0.79172 0.10435 0.0
H726 H 0.24466 0.86181 0.00683 0.0
H727 H 0.24378 0.85694 0.10261 0.0
S728 S 0.19923 0.69176 0.03922 0.0
N729 N 0.20789 0.72442 -0.00963 0.0
N730 N 0.20599 0.71874 0.09367 0.0
C731 C 0.21549 0.75638 0.07335 0.0
C732 C 0.21664 0.75944 0.01765 0.0
C733 C 0.25714 0.48183 0.02461 0.0
C734 C 0.24879 0.44638 -0.0052 0.0
C735 C 0.26034 0.48203 0.07899 0.0
C736 C 0.25605 0.44716 0.10563 0.0
H737 H 0.26058 0.50969 0.00611 0.0
H738 H 0.26612 0.50972 0.10047 0.0
S739 S 0.23397 0.34649 0.04772 0.0
N740 N 0.23601 0.3751 -0.0032 0.0
N741 N 0.24309 0.37627 0.10009 0.0
C742 C 0.24839 0.41167 0.07711 0.0
C743 C 0.24443 0.41107 0.02134 0.0
C744 C 0.9009 0.74046 0.86141 0.0
C745 C 0.88901 0.7638 0.82988 0.0
C746 C 0.9 0.74288 0.91623 0.0
C747 C 0.88631 0.76796 0.94071 0.0
H748 H 0.91371 0.72267 0.84373 0.0
H749 H 0.91151 0.72629 0.93955 0.0
S750 S 0.84738 0.83104 0.87446 0.0
N751 N 0.86031 0.81 0.82603 0.0
N752 N 0.85716 0.81356 0.92919 0.0
C753 C 0.87134 0.78885 0.90934 0.0
C754 C 0.87314 0.78707 0.85371 0.0
C755 C 0.26281 0.10025 0.85556 0.0
C756 C 0.28842 0.13862 0.83089 0.0
C757 C 0.26169 0.09697 0.91023 0.0
C758 C 0.28525 0.13229 0.94173 0.0
H759 H 0.24221 0.073 0.83246 0.0
H760 H 0.24017 0.06725 0.92789 0.0
S761 S 0.36022 0.23896 0.89588 0.0
N762 N 0.34066 0.21172 0.84137 0.0
N763 N 0.33759 0.20589 0.94476 0.0
C764 C 0.31269 0.17036 0.91752 0.0
C765 C 0.31457 0.17344 0.86176 0.0
C766 C 0.87852 0.14788 0.86031 0.0
C767 C 0.91392 0.16061 0.82884 0.0
C768 C 0.88184 0.1489 0.91513 0.0
C769 C 0.92077 0.16351 0.93962 0.0
H770 H 0.84787 0.13445 0.84256 0.0
H771 H 0.85369 0.1369 0.93843 0.0
S772 S 1.02309 0.20455 0.87345 0.0
N773 N 0.98902 0.19089 0.82502 0.0
N774 N 0.99573 0.1942 0.92815 0.0
C775 C 0.9567 0.17915 0.90827 0.0
C776 C 0.95314 0.17728 0.85268 0.0
C777 C 0.30849 0.14987 0.36188 0.0
C778 C 0.28419 0.16067 0.33049 0.0
C779 C 0.3063 0.15084 0.41671 0.0
C780 C 0.28053 0.16359 0.44135 0.0
H781 H 0.32707 0.138 0.34407 0.0
H782 H 0.32376 0.14026 0.43993 0.0
S783 S 0.21447 0.1992 0.37568 0.0
N784 N 0.23604 0.1871 0.32705 0.0
N785 N 0.23295 0.19041 0.43027 0.0
C786 C 0.25846 0.17729 0.41017 0.0
C787 C 0.25997 0.17538 0.35452 0.0
C788 C 0.90235 0.17038 0.36069 0.0
C789 C 0.89192 0.13544 0.32911 0.0
C790 C 0.90165 0.16717 0.41548 0.0
C791 C 0.88956 0.12874 0.43982 0.0
H792 H 0.91372 0.20078 0.34305 0.0
H793 H 0.91185 0.19508 0.43889 0.0
S794 S 0.8553 0.02749 0.37348 0.0
N795 N 0.86665 0.06113 0.3251 0.0
N796 N 0.86388 0.05457 0.42825 0.0
C797 C 0.87629 0.09308 0.40842 0.0
C798 C 0.87791 0.0966 0.35284 0.0
C799 C 0.95308 0.79115 0.35553 0.0
C800 C 0.91455 0.76594 0.33079 0.0
C801 C 0.95646 0.79219 0.41024 0.0
C802 C 0.92111 0.76902 0.4417 0.0
H803 H 0.98042 0.81134 0.33246 0.0
H804 H 0.98636 0.81327 0.42798 0.0
S805 S 0.81379 0.69579 0.39551 0.0
N806 N 0.84111 0.71489 0.3411 0.0
N807 N 0.8471 0.71785 0.44446 0.0
C808 C 0.88278 0.74219 0.41735 0.0
C809 C 0.87959 0.74036 0.36159 0.0
C810 C 0.3991 0.98936 0.84332 0.0
C811 C 0.36704 0.95482 0.8695 0.0
C812 C 0.43835 1.01444 0.86676 0.0
C813 C 0.44842 1.00556 0.91689 0.0
H814 H 0.39411 0.99658 0.80368 0.0
H815 H 0.46142 0.04109 0.8449 0.0
S816 S 0.37595 0.91808 0.00211 0.0
N817 N 0.34812 0.9128 0.94885 0.0
N818 N 0.42228 0.95961 -0.00765 0.0
C819 C 0.41677 0.97107 0.94372 0.0
C820 C 0.37615 0.9459 0.92021 0.0
C821 C 0.08013 0.48584 0.88932 0.0
C822 C 0.05461 0.46078 0.93021 0.0
C823 C 0.10466 0.47404 0.85962 0.0
C824 C 0.1055 0.43671 0.86948 0.0
H825 H 0.07956 0.51379 0.87828 0.0
H826 H 0.12324 0.49479 0.82831 0.0
S827 S 0.04603 0.36124 -0.025 0.0
N828 N 0.03237 0.39729 -0.01962 0.0
N829 N 0.0797 0.37609 0.926 0.0
C830 C 0.08125 0.41214 0.91173 0.0
C831 C 0.05557 0.42384 0.94148 0.0
C832 C 0.57684 0.64061 0.8605 0.0
C833 C 0.61531 0.67813 0.86834 0.0
C834 C 0.56563 0.60405 0.88929 0.0
C835 C 0.59243 0.6027 0.92717 0.0
H836 H 0.55471 0.63916 0.83153 0.0
H837 H 0.53661 0.57604 0.87985 0.0
S838 S 0.69554 0.69181 -0.03401 0.0
N839 N 0.67899 0.71144 0.91986 0.0
N840 N 0.65879 0.64251 -0.02748 0.0
C841 C 0.63055 0.63997 0.93647 0.0
C842 C 0.6417 0.67759 0.90767 0.0
C843 C 0.05312 0.63908 0.43012 0.0
C844 C 0.05263 0.60097 0.422 0.0
C845 C 0.07968 0.67559 0.4013 0.0
C846 C 0.10606 0.67544 0.36157 0.0
H847 H 0.03227 0.64056 0.45876 0.0
H848 H 0.07909 0.70394 0.40982 0.0
S849 S 0.11567 0.58288 0.32394 0.0
N850 N 0.08088 0.56553 0.37153 0.0
N851 N 0.12945 0.63234 0.31631 0.0
C852 C 0.10561 0.63713 0.35321 0.0
C853 C 0.0794 0.60053 0.38356 0.0
C854 C 0.44522 0.48437 0.38464 0.0
C855 C 0.44725 0.4589 0.42383 0.0
C856 C 0.4083 0.47191 0.35584 0.0
C857 C 0.37107 0.43345 0.36497 0.0
H858 H 0.47296 0.51328 0.37421 0.0
H859 H 0.40927 0.49308 0.32585 0.0
S860 S 0.359 0.35673 0.46675 0.0
N861 N 0.40825 0.39395 0.4721 0.0
N862 N 0.33868 0.3715 0.41939 0.0
C863 C 0.37223 0.40851 0.40575 0.0
C864 C 0.41021 0.42091 0.43456 0.0
C865 C 0.57481 0.94372 0.35731 0.0
C866 C 0.614 0.9459 0.36365 0.0
C867 C 0.56395 0.96984 0.38515 0.0
C868 C 0.59185 0.99999 0.42048 0.0
H869 H 0.5518 0.9214 0.33039 0.0
H870 H 0.53417 0.96758 0.37707 0.0
S871 S 0.69724 1.01772 0.45477 0.0
N872 N 0.67964 0.97964 0.41103 0.0
N873 N 0.66001 0.02953 0.46212 0.0
C874 C 0.63072 1.00202 0.42834 0.0
C875 C 0.64155 0.97488 0.40048 0.0
C876 C 0.07875 0.3113 0.27624 0.0
C877 C 0.11641 0.33386 0.24816 0.0
C878 C 0.03996 0.28778 0.24998 0.0
C879 C 0.03714 0.28661 0.19454 0.0
H880 H 0.07921 0.31224 0.31877 0.0
H881 H 1.01221 0.2694 0.27327 0.0
S882 S 0.12633 0.344 0.10319 0.0
N883 N 0.14785 0.35571 0.16214 0.0
N884 N 0.076 0.31253 0.11309 0.0
C885 C 0.07465 0.31029 0.16643 0.0
C886 C 0.11382 0.33363 0.19305 0.0
C887 C 0.74404 0.81687 0.21947 0.0
C888 C 0.71877 0.7919 0.26058 0.0
C889 C 0.76904 0.80542 0.19025 0.0
C890 C 0.77067 0.7686 0.20089 0.0
H891 H 0.74307 0.84454 0.20808 0.0
H892 H 0.78748 0.82616 0.15886 0.0
S893 S 0.71185 0.6935 0.30705 0.0
N894 N 0.69734 0.72895 0.31157 0.0
N895 N 0.74558 0.70843 0.25812 0.0
C896 C 0.7464 0.74399 0.24311 0.0
C897 C 0.72024 0.75533 0.27237 0.0
C898 C 0.23081 0.93843 0.22249 0.0
C899 C 0.25844 0.93632 0.25838 0.0
C900 C 0.24187 0.97529 0.19439 0.0
C901 C 0.281 1.0123 0.20099 0.0
H902 H 0.20119 0.91082 0.21404 0.0
H903 H 0.21913 0.97449 0.16692 0.0
S904 S 0.36338 0.02414 0.29386 0.0
N905 N 0.32614 0.97512 0.30103 0.0
N906 N 0.34614 0.04444 0.24949 0.0
C907 C 0.30818 1.01108 0.23855 0.0
C908 C 0.29715 0.97323 0.26668 0.0
C909 C 0.74592 1.00899 0.7375 0.0
C910 C 0.7726 1.00921 0.69793 0.0
C911 C 0.71992 0.97244 0.76655 0.0
C912 C 0.72049 0.93484 0.75891 0.0
H913 H 0.74445 0.03695 0.74542 0.0
H914 H 0.6985 0.97339 0.79472 0.0
S915 S 0.78501 0.91804 0.66186 0.0
N916 N 0.79768 0.96715 0.65366 0.0
N917 N 0.75017 0.9003 0.7094 0.0
C918 C 0.74778 0.93489 0.72092 0.0
C919 C 0.77336 0.97145 0.69027 0.0
C920 C 0.07412 0.80823 0.70057 0.0
C921 C 0.03843 0.76773 0.70187 0.0
C922 C 0.11065 0.81874 0.72922 0.0
C923 C 0.11382 0.78917 0.76024 0.0
H924 H 0.07409 0.83251 0.67694 0.0
H925 H 0.13729 0.84978 0.72498 0.0
S926 S 1.02932 0.67958 0.78079 0.0
N927 N 1.00834 0.6988 0.74022 0.0
N928 N 0.07723 0.71782 0.7926 0.0
C929 C 0.07814 0.74886 0.76323 0.0
C930 C 0.04051 0.73837 0.73468 0.0
C931 C 0.24276 0.27778 0.69824 0.0
C932 C 0.28227 0.28044 0.70296 0.0
C933 C 0.23213 0.30372 0.72689 0.0
C934 C 0.26057 0.33421 0.76146 0.0
H935 H 0.21936 0.2553 0.67181 0.0
H936 H 0.20211 0.30122 0.7198 0.0
S937 S 0.36704 0.35329 0.79164 0.0
N938 N 0.34884 0.31492 0.74826 0.0
N939 N 0.32966 0.36469 0.80058 0.0
C940 C 0.29978 0.33672 0.76779 0.0
C941 C 0.31037 0.30966 0.73919 0.0
C942 C 0.70833 0.63995 0.56761 0.0
C943 C 0.70847 0.61408 0.52706 0.0
C944 C 0.74481 0.66594 0.59708 0.0
C945 C 0.78277 0.66617 0.58895 0.0
H946 H 0.68003 0.64058 0.57627 0.0
H947 H 0.74341 0.6865 0.62629 0.0
S948 S 0.80095 0.60462 0.48861 0.0
N949 N 0.75161 0.59127 0.48072 0.0
N950 N 0.81817 0.63845 0.53742 0.0
C951 C 0.78321 0.63994 0.54965 0.0
C952 C 0.74674 0.61447 0.51852 0.0
C953 C 0.38615 0.09038 0.59558 0.0
C954 C 0.38598 0.12819 0.58808 0.0
C955 C 0.41216 0.08009 0.5659 0.0
C956 C 0.4381 0.1064 0.52573 0.0
H957 H 0.36541 0.06814 0.62432 0.0
H958 H 0.41135 0.051 0.57394 0.0
S959 S 0.44807 0.20883 0.4893 0.0
N960 N 0.41403 0.19181 0.53776 0.0
N961 N 0.46138 0.17286 0.48079 0.0
C962 C 0.43796 0.14446 0.51803 0.0
C963 C 0.41243 0.15523 0.54934 0.0
C964 C 0.96958 0.34177 0.56757 0.0
C965 C 0.94268 0.34184 0.52847 0.0
C966 C 0.95955 0.30529 0.59652 0.0
C967 C 0.9215 0.26748 0.58922 0.0
H968 H 0.99892 0.36987 0.57538 0.0
H969 H 0.98219 0.30652 0.62448 0.0
S970 S 0.83922 0.25016 0.49325 0.0
N971 N 0.8753 0.29938 0.4849 0.0
N972 N 0.85691 0.2326 0.54037 0.0
C973 C 0.89385 0.26733 0.55159 0.0
C974 C 0.9043 0.30388 0.52108 0.0
C975 C 0.38455 0.30667 0.09751 0.0
C976 C 0.38646 0.26952 0.09277 0.0
C977 C 0.41103 0.34304 0.06842 0.0
C978 C 0.43972 0.34354 0.03178 0.0
H979 H 0.36171 0.3074 0.12337 0.0
H980 H 0.40823 0.37054 0.07377 0.0
S981 S 0.45753 0.25438 0.0052 0.0
N982 N 0.42026 0.23614 0.04971 0.0
N983 N 0.4691 0.3029 -0.00557 0.0
C984 C 0.44222 0.30651 0.02746 0.0
C985 C 0.41597 0.27006 0.05798 0.0
C986 C 0.74318 0.08842 0.10173 0.0
C987 C 0.78138 0.12526 0.09119 0.0
C988 C 0.70656 0.07697 0.07199 0.0
C989 C 0.70694 0.10086 0.02871 0.0
H990 H 0.74177 0.06787 0.13289 0.0
H991 H 0.67806 0.04881 0.08237 0.0
S992 S 0.80027 0.1996 -0.0165 0.0
N993 N 0.81728 0.18524 0.03472 0.0
N994 N 0.75066 0.1639 -0.0226 0.0
C995 C 0.7455 0.13785 0.0179 0.0
C996 C 0.782 0.14995 0.04933 0.0
C997 C 0.97298 0.63979 0.07097 0.0
C998 C 0.94667 0.61306 0.03123 0.0
C999 C 0.96244 0.66601 0.0997 0.0
C1000 C 0.92439 0.66561 0.09159 0.0
H1001 H 1.0023 0.64111 0.07928 0.0
H1002 H 0.98467 0.68741 0.12807 0.0
S1003 S 0.84347 0.601 -0.00608 0.0
N1004 N 0.87982 0.58809 -0.01369 0.0
N1005 N 0.86044 0.636 0.04141 0.0
C1006 C 0.8973 0.63828 0.0534 0.0
C1007 C 0.90831 0.61249 0.02308 0.0
loop_
_geom_bond_atom_site_label_1
_geom_bond_atom_site_label_2
_geom_bond_distance
_geom_bond_site_symmetry_2
_ccdc_geom_bond_type
O0 Zn1 1.953 . S
O0 C16 1.225 1_556 S
Zn1 O0 1.953 . S
Zn1 O2 1.949 1_556 S
Zn1 O8 1.919 . S
Zn1 O13 1.924 . S
O2 Zn1 1.949 1_554 S
O2 Zn3 1.923 1_554 S
O2 Zn4 1.950 . S
O2 Zn5 1.945 . S
Zn3 O2 1.923 1_556 S
Zn3 O6 1.933 . S
Zn3 O9 1.941 . S
Zn3 O10 1.965 . S
Zn4 O2 1.950 . S
Zn4 O11 1.938 . S
Zn4 O12 1.906 . S
Zn4 O22 1.953 . S
Zn5 O2 1.945 . S
Zn5 O7 1.932 . S
Zn5 O14 1.977 . S
Zn5 O15 1.910 . S
O6 Zn3 1.933 . S
O6 C17 1.226 . S
O7 Zn5 1.932 . S
O7 C17 1.307 1_554 S
O8 Zn1 1.919 . S
O8 C19 1.253 . S
O9 Zn3 1.941 . S
O9 C19 1.283 . S
O10 Zn3 1.965 . S
O10 C18 1.303 1_556 S
O11 Zn4 1.938 . S
O11 C18 1.247 . S
O12 Zn4 1.906 . S
O12 C20 1.304 . S
O13 Zn1 1.924 . S
O13 C21 1.311 1_556 S
O14 Zn5 1.977 . S
O14 C20 1.272 . S
O15 Zn5 1.910 . S
O15 C21 1.231 . S
C16 O0 1.225 1_554 S
C16 O22 1.298 . S
C17 O6 1.226 . S
C17 O7 1.307 1_556 S
C18 O10 1.303 1_554 S
C18 O11 1.247 . S
C19 O8 1.253 . S
C19 O9 1.283 . S
C20 O12 1.304 . S
C20 O14 1.272 . S
C21 O13 1.311 1_554 S
C21 O15 1.231 . S
O22 Zn4 1.953 . S
O22 C16 1.298 . S
O23 Zn24 1.953 . S
O23 C39 1.225 1_556 S
Zn24 O23 1.953 . S
Zn24 O25 1.949 1_556 S
Zn24 O31 1.919 . S
Zn24 O36 1.924 . S
O25 Zn24 1.949 1_554 S
O25 Zn26 1.923 1_554 S
O25 Zn27 1.950 . S
O25 Zn28 1.945 . S
Zn26 O25 1.923 1_556 S
Zn26 O29 1.933 . S
Zn26 O32 1.941 . S
Zn26 O33 1.965 . S
Zn27 O25 1.950 . S
Zn27 O34 1.938 . S
Zn27 O35 1.906 . S
Zn27 O45 1.953 . S
Zn28 O25 1.945 . S
Zn28 O30 1.932 . S
Zn28 O37 1.977 . S
Zn28 O38 1.910 . S
O29 Zn26 1.933 . S
O29 C40 1.226 . S
O30 Zn28 1.932 . S
O30 C40 1.307 1_554 S
O31 Zn24 1.919 . S
O31 C42 1.253 . S
O32 Zn26 1.941 . S
O32 C42 1.283 . S
O33 Zn26 1.965 . S
O33 C41 1.303 1_556 S
O34 Zn27 1.938 . S
O34 C41 1.247 . S
O35 Zn27 1.906 . S
O35 C43 1.304 . S
O36 Zn24 1.924 . S
O36 C44 1.311 1_556 S
O37 Zn28 1.977 . S
O37 C43 1.272 . S
O38 Zn28 1.910 . S
O38 C44 1.231 . S
C39 O23 1.225 1_554 S
C39 O45 1.298 . S
C40 O29 1.226 . S
C40 O30 1.307 1_556 S
C41 O33 1.303 1_554 S
C41 O34 1.247 . S
C42 O31 1.253 . S
C42 O32 1.283 . S
C43 O35 1.304 . S
C43 O37 1.272 . S
C44 O36 1.311 1_554 S
C44 O38 1.231 . S
O45 Zn27 1.953 . S
O45 C39 1.298 . S
O46 Zn47 1.953 . S
O46 C62 1.225 1_556 S
Zn47 O46 1.953 . S
Zn47 O48 1.949 1_556 S
Zn47 O54 1.919 . S
Zn47 O59 1.924 . S
O48 Zn47 1.949 1_554 S
O48 Zn49 1.923 1_554 S
O48 Zn50 1.950 . S
O48 Zn51 1.945 . S
Zn49 O48 1.923 1_556 S
Zn49 O52 1.933 . S
Zn49 O55 1.941 . S
Zn49 O56 1.965 . S
Zn50 O48 1.950 . S
Zn50 O57 1.938 . S
Zn50 O58 1.906 . S
Zn50 O68 1.953 . S
Zn51 O48 1.945 . S
Zn51 O53 1.932 . S
Zn51 O60 1.977 . S
Zn51 O61 1.910 . S
O52 Zn49 1.933 . S
O52 C63 1.226 . S
O53 Zn51 1.932 . S
O53 C63 1.307 1_554 S
O54 Zn47 1.919 . S
O54 C65 1.253 . S
O55 Zn49 1.941 . S
O55 C65 1.283 . S
O56 Zn49 1.965 . S
O56 C64 1.303 1_556 S
O57 Zn50 1.938 . S
O57 C64 1.247 . S
O58 Zn50 1.906 . S
O58 C66 1.304 . S
O59 Zn47 1.924 . S
O59 C67 1.311 1_556 S
O60 Zn51 1.977 . S
O60 C66 1.272 . S
O61 Zn51 1.910 . S
O61 C67 1.231 . S
C62 O46 1.225 1_554 S
C62 O68 1.298 . S
C63 O52 1.226 . S
C63 O53 1.307 1_556 S
C64 O56 1.303 1_554 S
C64 O57 1.247 . S
C65 O54 1.253 . S
C65 O55 1.283 . S
C66 O58 1.304 . S
C66 O60 1.272 . S
C67 O59 1.311 1_554 S
C67 O61 1.231 . S
O68 Zn50 1.953 . S
O68 C62 1.298 . S
O69 Zn70 1.953 . S
O69 C85 1.225 . S
Zn70 O69 1.953 . S
Zn70 O71 1.949 . S
Zn70 O77 1.919 . S
Zn70 O82 1.924 . S
O71 Zn70 1.949 . S
O71 Zn72 1.923 . S
O71 Zn73 1.950 . S
O71 Zn74 1.945 . S
Zn72 O71 1.923 . S
Zn72 O75 1.933 . S
Zn72 O78 1.941 . S
Zn72 O79 1.965 . S
Zn73 O71 1.950 . S
Zn73 O80 1.938 . S
Zn73 O81 1.906 . S
Zn73 O91 1.953 . S
Zn74 O71 1.945 . S
Zn74 O76 1.932 . S
Zn74 O83 1.977 . S
Zn74 O84 1.910 . S
O75 Zn72 1.933 . S
O75 C86 1.226 . S
O76 Zn74 1.932 . S
O76 C86 1.307 . S
O77 Zn70 1.919 . S
O77 C88 1.253 . S
O78 Zn72 1.941 . S
O78 C88 1.283 . S
O79 Zn72 1.965 . S
O79 C87 1.303 . S
O80 Zn73 1.938 . S
O80 C87 1.247 . S
O81 Zn73 1.906 . S
O81 C89 1.304 . S
O82 Zn70 1.924 . S
O82 C90 1.311 . S
O83 Zn74 1.977 . S
O83 C89 1.272 . S
O84 Zn74 1.910 . S
O84 C90 1.231 . S
C85 O69 1.225 . S
C85 O91 1.298 . S
C86 O75 1.226 . S
C86 O76 1.307 . S
C87 O79 1.303 . S
C87 O80 1.247 . S
C88 O77 1.253 . S
C88 O78 1.283 . S
C89 O81 1.304 . S
C89 O83 1.272 . S
C90 O82 1.311 . S
C90 O84 1.231 . S
O91 Zn73 1.953 . S
O91 C85 1.298 . S
O92 Zn93 1.953 . S
O92 C108 1.225 . S
Zn93 O92 1.953 . S
Zn93 O94 1.949 . S
Zn93 O100 1.919 . S
Zn93 O105 1.924 . S
O94 Zn93 1.949 . S
O94 Zn95 1.923 . S
O94 Zn96 1.950 . S
O94 Zn97 1.945 . S
Zn95 O94 1.923 . S
Zn95 O98 1.933 . S
Zn95 O101 1.941 . S
Zn95 O102 1.965 . S
Zn96 O94 1.950 . S
Zn96 O103 1.938 . S
Zn96 O104 1.906 . S
Zn96 O114 1.953 . S
Zn97 O94 1.945 . S
Zn97 O99 1.932 . S
Zn97 O106 1.977 . S
Zn97 O107 1.910 . S
O98 Zn95 1.933 . S
O98 C109 1.226 . S
O99 Zn97 1.932 . S
O99 C109 1.307 . S
O100 Zn93 1.919 . S
O100 C111 1.253 . S
O101 Zn95 1.941 . S
O101 C111 1.283 . S
O102 Zn95 1.965 . S
O102 C110 1.303 . S
O103 Zn96 1.938 . S
O103 C110 1.247 . S
O104 Zn96 1.906 . S
O104 C112 1.304 . S
O105 Zn93 1.924 . S
O105 C113 1.311 . S
O106 Zn97 1.977 . S
O106 C112 1.272 . S
O107 Zn97 1.910 . S
O107 C113 1.231 . S
C108 O92 1.225 . S
C108 O114 1.298 . S
C109 O98 1.226 . S
C109 O99 1.307 . S
C110 O102 1.303 . S
C110 O103 1.247 . S
C111 O100 1.253 . S
C111 O101 1.283 . S
C112 O104 1.304 . S
C112 O106 1.272 . S
C113 O105 1.311 . S
C113 O107 1.231 . S
O114 Zn96 1.953 . S
O114 C108 1.298 . S
O115 Zn116 1.953 . S
O115 C131 1.225 . S
Zn116 O115 1.953 . S
Zn116 O117 1.949 . S
Zn116 O123 1.919 . S
Zn116 O128 1.924 . S
O117 Zn116 1.949 . S
O117 Zn118 1.923 . S
O117 Zn119 1.950 . S
O117 Zn120 1.945 . S
Zn118 O117 1.923 . S
Zn118 O121 1.933 . S
Zn118 O124 1.941 . S
Zn118 O125 1.965 . S
Zn119 O117 1.950 . S
Zn119 O126 1.938 . S
Zn119 O127 1.906 . S
Zn119 O137 1.953 . S
Zn120 O117 1.945 . S
Zn120 O122 1.932 . S
Zn120 O129 1.977 . S
Zn120 O130 1.910 . S
O121 Zn118 1.933 . S
O121 C132 1.226 . S
O122 Zn120 1.932 . S
O122 C132 1.307 . S
O123 Zn116 1.919 . S
O123 C134 1.253 . S
O124 Zn118 1.941 . S
O124 C134 1.283 . S
O125 Zn118 1.965 . S
O125 C133 1.303 . S
O126 Zn119 1.938 . S
O126 C133 1.247 . S
O127 Zn119 1.906 . S
O127 C135 1.304 . S
O128 Zn116 1.924 . S
O128 C136 1.311 . S
O129 Zn120 1.977 . S
O129 C135 1.272 . S
O130 Zn120 1.910 . S
O130 C136 1.231 . S
C131 O115 1.225 . S
C131 O137 1.298 . S
C132 O121 1.226 . S
C132 O122 1.307 . S
C133 O125 1.303 . S
C133 O126 1.247 . S
C134 O123 1.253 . S
C134 O124 1.283 . S
C135 O127 1.304 . S
C135 O129 1.272 . S
C136 O128 1.311 . S
C136 O130 1.231 . S
O137 Zn119 1.953 . S
O137 C131 1.298 . S
O138 Zn139 1.953 . S
O138 C154 1.225 . S
Zn139 O138 1.953 . S
Zn139 O140 1.949 . S
Zn139 O146 1.919 . S
Zn139 O151 1.924 . S
O140 Zn139 1.949 . S
O140 Zn141 1.923 . S
O140 Zn142 1.950 . S
O140 Zn143 1.945 . S
Zn141 O140 1.923 . S
Zn141 O144 1.933 . S
Zn141 O147 1.941 . S
Zn141 O148 1.965 . S
Zn142 O140 1.950 . S
Zn142 O149 1.938 . S
Zn142 O150 1.906 . S
Zn142 O160 1.953 . S
Zn143 O140 1.945 . S
Zn143 O145 1.932 . S
Zn143 O152 1.977 . S
Zn143 O153 1.910 . S
O144 Zn141 1.933 . S
O144 C155 1.226 . S
O145 Zn143 1.932 . S
O145 C155 1.307 . S
O146 Zn139 1.919 . S
O146 C157 1.253 . S
O147 Zn141 1.941 . S
O147 C157 1.283 . S
O148 Zn141 1.965 . S
O148 C156 1.303 . S
O149 Zn142 1.938 . S
O149 C156 1.247 . S
O150 Zn142 1.906 . S
O150 C158 1.304 . S
O151 Zn139 1.924 . S
O151 C159 1.311 . S
O152 Zn143 1.977 . S
O152 C158 1.272 . S
O153 Zn143 1.910 . S
O153 C159 1.231 . S
C154 O138 1.225 . S
C154 O160 1.298 . S
C155 O144 1.226 . S
C155 O145 1.307 . S
C156 O148 1.303 . S
C156 O149 1.247 . S
C157 O146 1.253 . S
C157 O147 1.283 . S
C158 O150 1.304 . S
C158 O152 1.272 . S
C159 O151 1.311 . S
C159 O153 1.231 . S
O160 Zn142 1.953 . S
O160 C154 1.298 . S
O161 Zn162 1.953 . S
O161 C177 1.225 . S
Zn162 O161 1.953 . S
Zn162 O163 1.949 . S
Zn162 O169 1.919 . S
Zn162 O174 1.924 . S
O163 Zn162 1.949 . S
O163 Zn164 1.923 . S
O163 Zn165 1.950 . S
O163 Zn166 1.945 . S
Zn164 O163 1.923 . S
Zn164 O167 1.933 . S
Zn164 O170 1.941 . S
Zn164 O171 1.965 . S
Zn165 O163 1.950 . S
Zn165 O172 1.938 . S
Zn165 O173 1.906 . S
Zn165 O183 1.953 . S
Zn166 O163 1.945 . S
Zn166 O168 1.932 . S
Zn166 O175 1.977 . S
Zn166 O176 1.910 . S
O167 Zn164 1.933 . S
O167 C178 1.226 . S
O168 Zn166 1.932 . S
O168 C178 1.307 . S
O169 Zn162 1.919 . S
O169 C180 1.253 . S
O170 Zn164 1.941 . S
O170 C180 1.283 . S
O171 Zn164 1.965 . S
O171 C179 1.303 . S
O172 Zn165 1.938 . S
O172 C179 1.247 . S
O173 Zn165 1.906 . S
O173 C181 1.304 . S
O174 Zn162 1.924 . S
O174 C182 1.311 . S
O175 Zn166 1.977 . S
O175 C181 1.272 . S
O176 Zn166 1.910 . S
O176 C182 1.231 . S
C177 O161 1.225 . S
C177 O183 1.298 . S
C178 O167 1.226 . S
C178 O168 1.307 . S
C179 O171 1.303 . S
C179 O172 1.247 . S
C180 O169 1.253 . S
C180 O170 1.283 . S
C181 O173 1.304 . S
C181 O175 1.272 . S
C182 O174 1.311 . S
C182 O176 1.231 . S
O183 Zn165 1.953 . S
O183 C177 1.298 . S
O184 Zn185 1.953 . S
O184 C200 1.225 . S
Zn185 O184 1.953 . S
Zn185 O186 1.949 . S
Zn185 O192 1.919 . S
Zn185 O197 1.924 . S
O186 Zn185 1.949 . S
O186 Zn187 1.923 . S
O186 Zn188 1.950 . S
O186 Zn189 1.945 . S
Zn187 O186 1.923 . S
Zn187 O190 1.933 . S
Zn187 O193 1.941 . S
Zn187 O194 1.965 . S
Zn188 O186 1.950 . S
Zn188 O195 1.938 . S
Zn188 O196 1.906 . S
Zn188 O206 1.953 . S
Zn189 O186 1.945 . S
Zn189 O191 1.932 . S
Zn189 O198 1.977 . S
Zn189 O199 1.910 . S
O190 Zn187 1.933 . S
O190 C201 1.226 . S
O191 Zn189 1.932 . S
O191 C201 1.307 . S
O192 Zn185 1.919 . S
O192 C203 1.253 . S
O193 Zn187 1.941 . S
O193 C203 1.283 . S
O194 Zn187 1.965 . S
O194 C202 1.303 . S
O195 Zn188 1.938 . S
O195 C202 1.247 . S
O196 Zn188 1.906 . S
O196 C204 1.304 . S
O197 Zn185 1.924 . S
O197 C205 1.311 . S
O198 Zn189 1.977 . S
O198 C204 1.272 . S
O199 Zn189 1.910 . S
O199 C205 1.231 . S
C200 O184 1.225 . S
C200 O206 1.298 . S
C201 O190 1.226 . S
C201 O191 1.307 . S
C202 O194 1.303 . S
C202 O195 1.247 . S
C203 O192 1.253 . S
C203 O193 1.283 . S
C204 O196 1.304 . S
C204 O198 1.272 . S
C205 O197 1.311 . S
C205 O199 1.231 . S
O206 Zn188 1.953 . S
O206 C200 1.298 . S
O207 Zn208 1.953 . S
O207 C223 1.225 . S
Zn208 O207 1.953 . S
Zn208 O209 1.949 . S
Zn208 O215 1.919 . S
Zn208 O220 1.924 . S
O209 Zn208 1.949 . S
O209 Zn210 1.923 . S
O209 Zn211 1.950 . S
O209 Zn212 1.945 . S
Zn210 O209 1.923 . S
Zn210 O213 1.933 . S
Zn210 O216 1.941 . S
Zn210 O217 1.965 . S
Zn211 O209 1.950 . S
Zn211 O218 1.938 . S
Zn211 O219 1.906 . S
Zn211 O229 1.953 . S
Zn212 O209 1.945 . S
Zn212 O214 1.932 . S
Zn212 O221 1.977 . S
Zn212 O222 1.910 . S
O213 Zn210 1.933 . S
O213 C224 1.226 . S
O214 Zn212 1.932 . S
O214 C224 1.307 . S
O215 Zn208 1.919 . S
O215 C226 1.253 . S
O216 Zn210 1.941 . S
O216 C226 1.283 . S
O217 Zn210 1.965 . S
O217 C225 1.303 . S
O218 Zn211 1.938 . S
O218 C225 1.247 . S
O219 Zn211 1.906 . S
O219 C227 1.304 . S
O220 Zn208 1.924 . S
O220 C228 1.311 . S
O221 Zn212 1.977 . S
O221 C227 1.272 . S
O222 Zn212 1.910 . S
O222 C228 1.231 . S
C223 O207 1.225 . S
C223 O229 1.298 . S
C224 O213 1.226 . S
C224 O214 1.307 . S
C225 O217 1.303 . S
C225 O218 1.247 . S
C226 O215 1.253 . S
C226 O216 1.283 . S
C227 O219 1.304 . S
C227 O221 1.272 . S
C228 O220 1.311 . S
C228 O222 1.231 . S
O229 Zn211 1.953 . S
O229 C223 1.298 . S
O230 Zn231 1.953 . S
O230 C246 1.225 . S
Zn231 O230 1.953 . S
Zn231 O232 1.949 . S
Zn231 O238 1.919 . S
Zn231 O243 1.924 . S
O232 Zn231 1.949 . S
O232 Zn233 1.923 . S
O232 Zn234 1.950 . S
O232 Zn235 1.945 . S
Zn233 O232 1.923 . S
Zn233 O236 1.933 . S
Zn233 O239 1.941 . S
Zn233 O240 1.965 . S
Zn234 O232 1.950 . S
Zn234 O241 1.938 . S
Zn234 O242 1.906 . S
Zn234 O252 1.953 . S
Zn235 O232 1.945 . S
Zn235 O237 1.932 . S
Zn235 O244 1.977 . S
Zn235 O245 1.910 . S
O236 Zn233 1.933 . S
O236 C247 1.226 . S
O237 Zn235 1.932 . S
O237 C247 1.307 . S
O238 Zn231 1.919 . S
O238 C249 1.253 . S
O239 Zn233 1.941 . S
O239 C249 1.283 . S
O240 Zn233 1.965 . S
O240 C248 1.303 . S
O241 Zn234 1.938 . S
O241 C248 1.247 . S
O242 Zn234 1.906 . S
O242 C250 1.304 . S
O243 Zn231 1.924 . S
O243 C251 1.311 . S
O244 Zn235 1.977 . S
O244 C250 1.272 . S
O245 Zn235 1.910 . S
O245 C251 1.231 . S
C246 O230 1.225 . S
C246 O252 1.298 . S
C247 O236 1.226 . S
C247 O237 1.307 . S
C248 O240 1.303 . S
C248 O241 1.247 . S
C249 O238 1.253 . S
C249 O239 1.283 . S
C250 O242 1.304 . S
C250 O244 1.272 . S
C251 O243 1.311 . S
C251 O245 1.231 . S
O252 Zn234 1.953 . S
O252 C246 1.298 . S
O253 Zn254 1.953 . S
O253 C269 1.225 . S
Zn254 O253 1.953 . S
Zn254 O255 1.949 . S
Zn254 O261 1.919 . S
Zn254 O266 1.924 . S
O255 Zn254 1.949 . S
O255 Zn256 1.923 . S
O255 Zn257 1.950 . S
O255 Zn258 1.945 . S
Zn256 O255 1.923 . S
Zn256 O259 1.933 . S
Zn256 O262 1.941 . S
Zn256 O263 1.965 . S
Zn257 O255 1.950 . S
Zn257 O264 1.938 . S
Zn257 O265 1.906 . S
Zn257 O275 1.953 . S
Zn258 O255 1.945 . S
Zn258 O260 1.932 . S
Zn258 O267 1.977 . S
Zn258 O268 1.910 . S
O259 Zn256 1.933 . S
O259 C270 1.226 . S
O260 Zn258 1.932 . S
O260 C270 1.307 . S
O261 Zn254 1.919 . S
O261 C272 1.253 . S
O262 Zn256 1.941 . S
O262 C272 1.283 . S
O263 Zn256 1.965 . S
O263 C271 1.303 . S
O264 Zn257 1.938 . S
O264 C271 1.247 . S
O265 Zn257 1.906 . S
O265 C273 1.304 . S
O266 Zn254 1.924 . S
O266 C274 1.311 . S
O267 Zn258 1.977 . S
O267 C273 1.272 . S
O268 Zn258 1.910 . S
O268 C274 1.231 . S
C269 O253 1.225 . S
C269 O275 1.298 . S
C270 O259 1.226 . S
C270 O260 1.307 . S
C271 O263 1.303 . S
C271 O264 1.247 . S
C272 O261 1.253 . S
C272 O262 1.283 . S
C273 O265 1.304 . S
C273 O267 1.272 . S
C274 O266 1.311 . S
C274 O268 1.231 . S
O275 Zn257 1.953 . S
O275 C269 1.298 . S
O276 Zn277 1.953 1_455 S
O276 C292 1.225 . S
Zn277 O276 1.953 1_655 S
Zn277 O278 1.949 . S
Zn277 O284 1.919 . S
Zn277 O289 1.924 1_655 S
O278 Zn277 1.949 . S
O278 Zn279 1.923 . S
O278 Zn280 1.950 . S
O278 Zn281 1.945 . S
Zn279 O278 1.923 . S
Zn279 O282 1.933 . S
Zn279 O285 1.941 . S
Zn279 O286 1.965 . S
Zn280 O278 1.950 . S
Zn280 O287 1.938 . S
Zn280 O288 1.906 . S
Zn280 O298 1.953 . S
Zn281 O278 1.945 . S
Zn281 O283 1.932 . S
Zn281 O290 1.977 . S
Zn281 O291 1.910 . S
O282 Zn279 1.933 . S
O282 C293 1.226 . S
O283 Zn281 1.932 . S
O283 C293 1.307 . S
O284 Zn277 1.919 . S
O284 C295 1.253 . S
O285 Zn279 1.941 . S
O285 C295 1.283 . S
O286 Zn279 1.965 . S
O286 C294 1.303 . S
O287 Zn280 1.938 . S
O287 C294 1.247 . S
O288 Zn280 1.906 . S
O288 C296 1.304 . S
O289 Zn277 1.924 1_455 S
O289 C297 1.311 1_455 S
O290 Zn281 1.977 . S
O290 C296 1.272 . S
O291 Zn281 1.910 . S
O291 C297 1.231 . S
C292 O276 1.225 . S
C292 O298 1.298 1_455 S
C293 O282 1.226 . S
C293 O283 1.307 . S
C294 O286 1.303 . S
C294 O287 1.247 . S
C295 O284 1.253 . S
C295 O285 1.283 . S
C296 O288 1.304 . S
C296 O290 1.272 . S
C297 O289 1.311 1_655 S
C297 O291 1.231 . S
O298 Zn280 1.953 . S
O298 C292 1.298 1_655 S
O299 Zn300 1.953 . S
O299 C315 1.225 . S
Zn300 O299 1.953 . S
Zn300 O301 1.949 . S
Zn300 O307 1.919 . S
Zn300 O312 1.924 . S
O301 Zn300 1.949 . S
O301 Zn302 1.923 . S
O301 Zn303 1.950 . S
O301 Zn304 1.945 . S
Zn302 O301 1.923 . S
Zn302 O305 1.933 . S
Zn302 O308 1.941 . S
Zn302 O309 1.965 . S
Zn303 O301 1.950 . S
Zn303 O310 1.938 . S
Zn303 O311 1.906 . S
Zn303 O321 1.953 . S
Zn304 O301 1.945 . S
Zn304 O306 1.932 . S
Zn304 O313 1.977 . S
Zn304 O314 1.910 . S
O305 Zn302 1.933 . S
O305 C316 1.226 . S
O306 Zn304 1.932 . S
O306 C316 1.307 . S
O307 Zn300 1.919 . S
O307 C318 1.253 . S
O308 Zn302 1.941 . S
O308 C318 1.283 . S
O309 Zn302 1.965 . S
O309 C317 1.303 . S
O310 Zn303 1.938 . S
O310 C317 1.247 . S
O311 Zn303 1.906 . S
O311 C319 1.304 . S
O312 Zn300 1.924 . S
O312 C320 1.311 . S
O313 Zn304 1.977 . S
O313 C319 1.272 . S
O314 Zn304 1.910 . S
O314 C320 1.231 . S
C315 O299 1.225 . S
C315 O321 1.298 . S
C316 O305 1.226 . S
C316 O306 1.307 . S
C317 O309 1.303 . S
C317 O310 1.247 . S
C318 O307 1.253 . S
C318 O308 1.283 . S
C319 O311 1.304 . S
C319 O313 1.272 . S
C320 O312 1.311 . S
C320 O314 1.231 . S
O321 Zn303 1.953 . S
O321 C315 1.298 . S
O322 Zn323 1.953 1_565 S
O322 C338 1.225 . S
Zn323 O322 1.953 1_545 S
Zn323 O324 1.949 . S
Zn323 O330 1.919 . S
Zn323 O335 1.924 1_545 S
O324 Zn323 1.949 . S
O324 Zn325 1.923 . S
O324 Zn326 1.950 . S
O324 Zn327 1.945 . S
Zn325 O324 1.923 . S
Zn325 O328 1.933 . S
Zn325 O331 1.941 . S
Zn325 O332 1.965 . S
Zn326 O324 1.950 . S
Zn326 O333 1.938 . S
Zn326 O334 1.906 . S
Zn326 O344 1.953 . S
Zn327 O324 1.945 . S
Zn327 O329 1.932 . S
Zn327 O336 1.977 . S
Zn327 O337 1.910 . S
O328 Zn325 1.933 . S
O328 C339 1.226 . S
O329 Zn327 1.932 . S
O329 C339 1.307 . S
O330 Zn323 1.919 . S
O330 C341 1.253 . S
O331 Zn325 1.941 . S
O331 C341 1.283 . S
O332 Zn325 1.965 . S
O332 C340 1.303 . S
O333 Zn326 1.938 . S
O333 C340 1.247 . S
O334 Zn326 1.906 . S
O334 C342 1.304 . S
O335 Zn323 1.924 1_565 S
O335 C343 1.311 1_565 S
O336 Zn327 1.977 . S
O336 C342 1.272 . S
O337 Zn327 1.910 . S
O337 C343 1.231 . S
C338 O322 1.225 . S
C338 O344 1.298 1_565 S
C339 O328 1.226 . S
C339 O329 1.307 . S
C340 O332 1.303 . S
C340 O333 1.247 . S
C341 O330 1.253 . S
C341 O331 1.283 . S
C342 O334 1.304 . S
C342 O336 1.272 . S
C343 O335 1.311 1_545 S
C343 O337 1.231 . S
O344 Zn326 1.953 . S
O344 C338 1.298 1_545 S
O345 Zn346 1.953 1_565 S
O345 C361 1.225 . S
Zn346 O345 1.953 1_545 S
Zn346 O347 1.949 . S
Zn346 O353 1.919 . S
Zn346 O358 1.924 1_545 S
O347 Zn346 1.949 . S
O347 Zn348 1.923 . S
O347 Zn349 1.950 . S
O347 Zn350 1.945 . S
Zn348 O347 1.923 . S
Zn348 O351 1.933 . S
Zn348 O354 1.941 . S
Zn348 O355 1.965 . S
Zn349 O347 1.950 . S
Zn349 O356 1.938 . S
Zn349 O357 1.906 . S
Zn349 O367 1.953 . S
Zn350 O347 1.945 . S
Zn350 O352 1.932 . S
Zn350 O359 1.977 . S
Zn350 O360 1.910 . S
O351 Zn348 1.933 . S
O351 C362 1.226 . S
O352 Zn350 1.932 . S
O352 C362 1.307 . S
O353 Zn346 1.919 . S
O353 C364 1.253 . S
O354 Zn348 1.941 . S
O354 C364 1.283 . S
O355 Zn348 1.965 . S
O355 C363 1.303 . S
O356 Zn349 1.938 . S
O356 C363 1.247 . S
O357 Zn349 1.906 . S
O357 C365 1.304 . S
O358 Zn346 1.924 1_565 S
O358 C366 1.311 1_565 S
O359 Zn350 1.977 . S
O359 C365 1.272 . S
O360 Zn350 1.910 . S
O360 C366 1.231 . S
C361 O345 1.225 . S
C361 O367 1.298 1_565 S
C362 O351 1.226 . S
C362 O352 1.307 . S
C363 O355 1.303 . S
C363 O356 1.247 . S
C364 O353 1.253 . S
C364 O354 1.283 . S
C365 O357 1.304 . S
C365 O359 1.272 . S
C366 O358 1.311 1_545 S
C366 O360 1.231 . S
O367 Zn349 1.953 . S
O367 C361 1.298 1_545 S
O368 Zn369 1.953 1_455 S
O368 C384 1.225 . S
Zn369 O368 1.953 1_655 S
Zn369 O370 1.949 . S
Zn369 O376 1.919 . S
Zn369 O381 1.924 1_655 S
O370 Zn369 1.949 . S
O370 Zn371 1.923 . S
O370 Zn372 1.950 . S
O370 Zn373 1.945 . S
Zn371 O370 1.923 . S
Zn371 O374 1.933 . S
Zn371 O377 1.941 . S
Zn371 O378 1.965 . S
Zn372 O370 1.950 . S
Zn372 O379 1.938 . S
Zn372 O380 1.906 . S
Zn372 O390 1.953 . S
Zn373 O370 1.945 . S
Zn373 O375 1.932 . S
Zn373 O382 1.977 . S
Zn373 O383 1.910 . S
O374 Zn371 1.933 . S
O374 C385 1.226 . S
O375 Zn373 1.932 . S
O375 C385 1.307 . S
O376 Zn369 1.919 . S
O376 C387 1.253 . S
O377 Zn371 1.941 . S
O377 C387 1.283 . S
O378 Zn371 1.965 . S
O378 C386 1.303 . S
O379 Zn372 1.938 . S
O379 C386 1.247 . S
O380 Zn372 1.906 . S
O380 C388 1.304 . S
O381 Zn369 1.924 1_455 S
O381 C389 1.311 1_455 S
O382 Zn373 1.977 . S
O382 C388 1.272 . S
O383 Zn373 1.910 . S
O383 C389 1.231 . S
C384 O368 1.225 . S
C384 O390 1.298 1_455 S
C385 O374 1.226 . S
C385 O375 1.307 . S
C386 O378 1.303 . S
C386 O379 1.247 . S
C387 O376 1.253 . S
C387 O377 1.283 . S
C388 O380 1.304 . S
C388 O382 1.272 . S
C389 O381 1.311 1_655 S
C389 O383 1.231 . S
O390 Zn372 1.953 . S
O390 C384 1.298 1_655 S
O391 Zn392 1.953 . S
O391 C407 1.225 . S
Zn392 O391 1.953 . S
Zn392 O393 1.949 . S
Zn392 O399 1.919 . S
Zn392 O404 1.924 . S
O393 Zn392 1.949 . S
O393 Zn394 1.923 . S
O393 Zn395 1.950 . S
O393 Zn396 1.945 . S
Zn394 O393 1.923 . S
Zn394 O397 1.933 . S
Zn394 O400 1.941 . S
Zn394 O401 1.965 . S
Zn395 O393 1.950 . S
Zn395 O402 1.938 . S
Zn395 O403 1.906 . S
Zn395 O413 1.953 . S
Zn396 O393 1.945 . S
Zn396 O398 1.932 . S
Zn396 O405 1.977 . S
Zn396 O406 1.910 . S
O397 Zn394 1.933 . S
O397 C408 1.226 . S
O398 Zn396 1.932 . S
O398 C408 1.307 . S
O399 Zn392 1.919 . S
O399 C410 1.253 . S
O400 Zn394 1.941 . S
O400 C410 1.283 . S
O401 Zn394 1.965 . S
O401 C409 1.303 . S
O402 Zn395 1.938 . S
O402 C409 1.247 . S
O403 Zn395 1.906 . S
O403 C411 1.304 . S
O404 Zn392 1.924 . S
O404 C412 1.311 . S
O405 Zn396 1.977 . S
O405 C411 1.272 . S
O406 Zn396 1.910 . S
O406 C412 1.231 . S
C407 O391 1.225 . S
C407 O413 1.298 . S
C408 O397 1.226 . S
C408 O398 1.307 . S
C409 O401 1.303 . S
C409 O402 1.247 . S
C410 O399 1.253 . S
C410 O400 1.283 . S
C411 O403 1.304 . S
C411 O405 1.272 . S
C412 O404 1.311 . S
C412 O406 1.231 . S
O413 Zn395 1.953 . S
O413 C407 1.298 . S
C414 C415 1.369 1_554 S
C414 C416 1.419 . S
C414 H418 0.930 . S
C415 C414 1.369 1_556 S
C415 C424 1.429 . S
C416 C414 1.419 . S
C416 C417 1.363 . S
C416 H419 0.929 . S
C417 C416 1.363 . S
C417 C423 1.428 1_554 S
H418 C414 0.930 . S
H419 C416 0.929 . S
S420 N421 1.613 . S
S420 N422 1.610 . S
N421 S420 1.613 . S
N421 C424 1.350 . S
N422 S420 1.610 . S
N422 C423 1.351 . S
C423 C417 1.428 1_556 S
C423 N422 1.351 . S
C423 C424 1.434 . S
C424 C415 1.429 . S
C424 N421 1.350 . S
C424 C423 1.434 . S
C425 C426 1.369 . S
C425 C427 1.419 . S
C425 H429 0.930 . S
C426 C425 1.369 . S
C426 C435 1.429 1_554 S
C427 C425 1.419 . S
C427 C428 1.363 1_554 S
C427 H430 0.929 . S
C428 C427 1.363 1_556 S
C428 C434 1.428 . S
H429 C425 0.930 . S
H430 C427 0.929 . S
S431 N432 1.613 . S
S431 N433 1.610 . S
N432 S431 1.613 . S
N432 C435 1.350 . S
N433 S431 1.610 . S
N433 C434 1.351 . S
C434 C428 1.428 . S
C434 N433 1.351 . S
C434 C435 1.434 . S
C435 C426 1.429 1_556 S
C435 N432 1.350 . S
C435 C434 1.434 . S
C436 C437 1.369 1_554 S
C436 C438 1.419 . S
C436 H440 0.930 . S
C437 C436 1.369 1_556 S
C437 C446 1.429 . S
C438 C436 1.419 . S
C438 C439 1.363 . S
C438 H441 0.929 . S
C439 C438 1.363 . S
C439 C445 1.428 1_554 S
H440 C436 0.930 . S
H441 C438 0.929 . S
S442 N443 1.613 . S
S442 N444 1.610 . S
N443 S442 1.613 . S
N443 C446 1.350 . S
N444 S442 1.610 . S
N444 C445 1.351 . S
C445 C439 1.428 1_556 S
C445 N444 1.351 . S
C445 C446 1.434 . S
C446 C437 1.429 . S
C446 N443 1.350 . S
C446 C445 1.434 . S
C447 C448 1.369 . S
C447 C449 1.419 . S
C447 H451 0.930 . S
C448 C447 1.369 . S
C448 C457 1.429 . S
C449 C447 1.419 . S
C449 C450 1.363 . S
C449 H452 0.929 . S
C450 C449 1.363 . S
C450 C456 1.428 . S
H451 C447 0.930 . S
H452 C449 0.929 . S
S453 N454 1.613 . S
S453 N455 1.610 . S
N454 S453 1.613 . S
N454 C457 1.350 . S
N455 S453 1.610 . S
N455 C456 1.351 . S
C456 C450 1.428 . S
C456 N455 1.351 . S
C456 C457 1.434 . S
C457 C448 1.429 . S
C457 N454 1.350 . S
C457 C456 1.434 . S
C458 C459 1.369 . S
C458 C460 1.419 . S
C458 H462 0.930 . S
C459 C458 1.369 . S
C459 C468 1.429 . S
C460 C458 1.419 . S
C460 C461 1.363 . S
C460 H463 0.929 . S
C461 C460 1.363 . S
C461 C467 1.428 . S
H462 C458 0.930 . S
H463 C460 0.929 . S
S464 N465 1.613 . S
S464 N466 1.610 . S
N465 S464 1.613 . S
N465 C468 1.350 . S
N466 S464 1.610 . S
N466 C467 1.351 . S
C467 C461 1.428 . S
C467 N466 1.351 . S
C467 C468 1.434 . S
C468 C459 1.429 . S
C468 N465 1.350 . S
C468 C467 1.434 . S
C469 C470 1.369 . S
C469 C471 1.419 . S
C469 H473 0.930 . S
C470 C469 1.369 . S
C470 C479 1.429 . S
C471 C469 1.419 . S
C471 C472 1.363 . S
C471 H474 0.929 . S
C472 C471 1.363 . S
C472 C478 1.428 . S
H473 C469 0.930 . S
H474 C471 0.929 . S
S475 N476 1.613 . S
S475 N477 1.610 . S
N476 S475 1.613 . S
N476 C479 1.350 . S
N477 S475 1.610 . S
N477 C478 1.351 . S
C478 C472 1.428 . S
C478 N477 1.351 . S
C478 C479 1.434 . S
C479 C470 1.429 . S
C479 N476 1.350 . S
C479 C478 1.434 . S
C480 C481 1.369 . S
C480 C482 1.419 . S
C480 H484 0.930 . S
C481 C480 1.369 . S
C481 C490 1.429 . S
C482 C480 1.419 . S
C482 C483 1.363 . S
C482 H485 0.929 . S
C483 C482 1.363 . S
C483 C489 1.428 . S
H484 C480 0.930 . S
H485 C482 0.929 . S
S486 N487 1.613 . S
S486 N488 1.610 . S
N487 S486 1.613 . S
N487 C490 1.350 . S
N488 S486 1.610 . S
N488 C489 1.351 . S
C489 C483 1.428 . S
C489 N488 1.351 . S
C489 C490 1.434 . S
C490 C481 1.429 . S
C490 N487 1.350 . S
C490 C489 1.434 . S
C491 C492 1.369 . S
C491 C493 1.419 . S
C491 H495 0.930 . S
C492 C491 1.369 . S
C492 C501 1.429 . S
C493 C491 1.419 . S
C493 C494 1.363 . S
C493 H496 0.929 . S
C494 C493 1.363 . S
C494 C500 1.428 . S
H495 C491 0.930 . S
H496 C493 0.929 . S
S497 N498 1.613 . S
S497 N499 1.610 . S
N498 S497 1.613 . S
N498 C501 1.350 . S
N499 S497 1.610 . S
N499 C500 1.351 . S
C500 C494 1.428 . S
C500 N499 1.351 . S
C500 C501 1.434 . S
C501 C492 1.429 . S
C501 N498 1.350 . S
C501 C500 1.434 . S
C502 C503 1.369 . S
C502 C504 1.419 . S
C502 H506 0.930 . S
C503 C502 1.369 . S
C503 C512 1.429 . S
C504 C502 1.419 . S
C504 C505 1.363 . S
C504 H507 0.929 . S
C505 C504 1.363 . S
C505 C511 1.428 . S
H506 C502 0.930 . S
H507 C504 0.929 . S
S508 N509 1.613 . S
S508 N510 1.610 . S
N509 S508 1.613 . S
N509 C512 1.350 . S
N510 S508 1.610 . S
N510 C511 1.351 . S
C511 C505 1.428 . S
C511 N510 1.351 . S
C511 C512 1.434 . S
C512 C503 1.429 . S
C512 N509 1.350 . S
C512 C511 1.434 . S
C513 C514 1.369 . S
C513 C515 1.419 . S
C513 H517 0.930 . S
C514 C513 1.369 . S
C514 C523 1.429 . S
C515 C513 1.419 . S
C515 C516 1.363 . S
C515 H518 0.929 . S
C516 C515 1.363 . S
C516 C522 1.428 . S
H517 C513 0.930 . S
H518 C515 0.929 . S
S519 N520 1.613 . S
S519 N521 1.610 . S
N520 S519 1.613 . S
N520 C523 1.350 . S
N521 S519 1.610 . S
N521 C522 1.351 . S
C522 C516 1.428 . S
C522 N521 1.351 . S
C522 C523 1.434 . S
C523 C514 1.429 . S
C523 N520 1.350 . S
C523 C522 1.434 . S
C524 C525 1.369 . S
C524 C526 1.419 . S
C524 H528 0.930 . S
C525 C524 1.369 . S
C525 C534 1.429 . S
C526 C524 1.419 . S
C526 C527 1.363 . S
C526 H529 0.929 . S
C527 C526 1.363 . S
C527 C533 1.428 . S
H528 C524 0.930 . S
H529 C526 0.929 . S
S530 N531 1.613 . S
S530 N532 1.610 . S
N531 S530 1.613 . S
N531 C534 1.350 . S
N532 S530 1.610 . S
N532 C533 1.351 . S
C533 C527 1.428 . S
C533 N532 1.351 . S
C533 C534 1.434 . S
C534 C525 1.429 . S
C534 N531 1.350 . S
C534 C533 1.434 . S
C535 C536 1.369 . S
C535 C537 1.419 . S
C535 H539 0.930 . S
C536 C535 1.369 . S
C536 C545 1.429 . S
C537 C535 1.419 . S
C537 C538 1.363 . S
C537 H540 0.929 . S
C538 C537 1.363 . S
C538 C544 1.428 . S
H539 C535 0.930 . S
H540 C537 0.929 . S
S541 N542 1.613 . S
S541 N543 1.610 . S
N542 S541 1.613 . S
N542 C545 1.350 . S
N543 S541 1.610 . S
N543 C544 1.351 . S
C544 C538 1.428 . S
C544 N543 1.351 . S
C544 C545 1.434 . S
C545 C536 1.429 . S
C545 N542 1.350 . S
C545 C544 1.434 . S
C546 C547 1.369 . S
C546 C548 1.419 . S
C546 H550 0.930 . S
C547 C546 1.369 . S
C547 C556 1.429 . S
C548 C546 1.419 . S
C548 C549 1.363 . S
C548 H551 0.929 . S
C549 C548 1.363 . S
C549 C555 1.428 . S
H550 C546 0.930 . S
H551 C548 0.929 . S
S552 N553 1.613 . S
S552 N554 1.610 . S
N553 S552 1.613 . S
N553 C556 1.350 . S
N554 S552 1.610 . S
N554 C555 1.351 . S
C555 C549 1.428 . S
C555 N554 1.351 . S
C555 C556 1.434 . S
C556 C547 1.429 . S
C556 N553 1.350 . S
C556 C555 1.434 . S
C557 C558 1.369 . S
C557 C559 1.419 . S
C557 H561 0.907 1_565 S
C558 C557 1.369 . S
C558 C567 1.429 . S
C559 C557 1.419 . S
C559 C560 1.363 . S
C559 H562 0.929 . S
C560 C559 1.363 . S
C560 C566 1.428 . S
H561 C557 0.907 1_545 S
H562 C559 0.929 . S
S563 N564 1.613 . S
S563 N565 1.610 . S
N564 S563 1.613 . S
N564 C567 1.350 . S
N565 S563 1.610 . S
N565 C566 1.351 . S
C566 C560 1.428 . S
C566 N565 1.351 . S
C566 C567 1.434 . S
C567 C558 1.429 . S
C567 N564 1.350 . S
C567 C566 1.434 . S
C568 C569 1.369 . S
C568 C570 1.419 . S
C568 H572 0.930 1_455 S
C569 C568 1.369 . S
C569 C578 1.429 . S
C570 C568 1.419 . S
C570 C571 1.363 . S
C570 H573 0.929 . S
C571 C570 1.363 . S
C571 C577 1.428 . S
H572 C568 0.930 1_655 S
H573 C570 0.929 . S
S574 N575 1.613 . S
S574 N576 1.610 . S
N575 S574 1.613 . S
N575 C578 1.350 . S
N576 S574 1.610 . S
N576 C577 1.351 . S
C577 C571 1.428 . S
C577 N576 1.351 . S
C577 C578 1.434 . S
C578 C569 1.429 . S
C578 N575 1.350 . S
C578 C577 1.434 . S
C579 C580 1.369 . S
C579 C581 1.419 . S
C579 H583 0.930 . S
C580 C579 1.369 . S
C580 C589 1.429 . S
C581 C579 1.419 . S
C581 C582 1.363 . S
C581 H584 0.929 . S
C582 C581 1.363 . S
C582 C588 1.428 . S
H583 C579 0.930 . S
H584 C581 0.929 . S
S585 N586 1.613 . S
S585 N587 1.610 . S
N586 S585 1.613 . S
N586 C589 1.350 . S
N587 S585 1.610 . S
N587 C588 1.351 . S
C588 C582 1.428 . S
C588 N587 1.351 . S
C588 C589 1.434 . S
C589 C580 1.429 . S
C589 N586 1.350 . S
C589 C588 1.434 . S
C590 C591 1.369 . S
C590 C592 1.419 . S
C590 H594 0.930 . S
C591 C590 1.369 . S
C591 C600 1.429 . S
C592 C590 1.419 . S
C592 C593 1.363 . S
C592 H595 0.929 1_565 S
C593 C592 1.363 . S
C593 C599 1.428 . S
H594 C590 0.930 . S
H595 C592 0.929 1_545 S
S596 N597 1.613 . S
S596 N598 1.610 . S
N597 S596 1.613 . S
N597 C600 1.350 . S
N598 S596 1.610 . S
N598 C599 1.351 . S
C599 C593 1.428 . S
C599 N598 1.351 . S
C599 C600 1.434 . S
C600 C591 1.429 . S
C600 N597 1.350 . S
C600 C599 1.434 . S
C601 C602 1.369 . S
C601 C603 1.419 . S
C601 H605 0.930 . S
C602 C601 1.369 . S
C602 C611 1.429 . S
C603 C601 1.419 . S
C603 C604 1.363 . S
C603 H606 0.929 1_455 S
C604 C603 1.363 . S
C604 C610 1.428 . S
H605 C601 0.930 . S
H606 C603 0.929 1_655 S
S607 N608 1.613 . S
S607 N609 1.610 . S
N608 S607 1.613 . S
N608 C611 1.350 . S
N609 S607 1.610 . S
N609 C610 1.351 . S
C610 C604 1.428 . S
C610 N609 1.351 . S
C610 C611 1.434 . S
C611 C602 1.429 . S
C611 N608 1.350 . S
C611 C610 1.434 . S
C612 C613 1.369 . S
C612 C614 1.419 . S
C612 H616 0.930 . S
C613 C612 1.369 . S
C613 C622 1.429 . S
C614 C612 1.419 . S
C614 C615 1.363 . S
C614 H617 0.929 . S
C615 C614 1.363 . S
C615 C621 1.428 . S
H616 C612 0.930 . S
H617 C614 0.929 . S
S618 N619 1.613 . S
S618 N620 1.610 . S
N619 S618 1.613 . S
N619 C622 1.350 . S
N620 S618 1.610 . S
N620 C621 1.351 . S
C621 C615 1.428 . S
C621 N620 1.351 . S
C621 C622 1.434 . S
C622 C613 1.429 . S
C622 N619 1.350 . S
C622 C621 1.434 . S
C623 C624 1.369 . S
C623 C625 1.419 . S
C623 H627 0.930 . S
C624 C623 1.369 . S
C624 C633 1.429 . S
C625 C623 1.419 . S
C625 C626 1.363 . S
C625 H628 0.929 . S
C626 C625 1.363 . S
C626 C632 1.428 . S
H627 C623 0.930 . S
H628 C625 0.929 . S
S629 N630 1.613 . S
S629 N631 1.610 . S
N630 S629 1.613 . S
N630 C633 1.350 . S
N631 S629 1.610 . S
N631 C632 1.351 . S
C632 C626 1.428 . S
C632 N631 1.351 . S
C632 C633 1.434 . S
C633 C624 1.429 . S
C633 N630 1.350 . S
C633 C632 1.434 . S
C634 C635 1.369 . S
C634 C636 1.419 . S
C634 H638 0.930 . S
C635 C634 1.369 . S
C635 C644 1.429 . S
C636 C634 1.419 . S
C636 C637 1.363 . S
C636 H639 0.929 . S
C637 C636 1.363 . S
C637 C643 1.428 . S
H638 C634 0.930 . S
H639 C636 0.929 . S
S640 N641 1.613 . S
S640 N642 1.610 . S
N641 S640 1.613 . S
N641 C644 1.350 . S
N642 S640 1.610 . S
N642 C643 1.351 . S
C643 C637 1.428 . S
C643 N642 1.351 . S
C643 C644 1.434 . S
C644 C635 1.429 . S
C644 N641 1.350 . S
C644 C643 1.434 . S
C645 C646 1.369 . S
C645 C647 1.419 . S
C645 H649 0.930 . S
C646 C645 1.369 . S
C646 C655 1.429 . S
C647 C645 1.419 . S
C647 C648 1.363 . S
C647 H650 0.929 . S
C648 C647 1.363 . S
C648 C654 1.428 . S
H649 C645 0.930 . S
H650 C647 0.929 . S
S651 N652 1.613 . S
S651 N653 1.610 . S
N652 S651 1.613 . S
N652 C655 1.350 . S
N653 S651 1.610 . S
N653 C654 1.351 . S
C654 C648 1.428 . S
C654 N653 1.351 . S
C654 C655 1.434 . S
C655 C646 1.429 . S
C655 N652 1.350 . S
C655 C654 1.434 . S
C656 C657 1.369 . S
C656 C658 1.419 . S
C656 H660 0.930 . S
C657 C656 1.369 . S
C657 C666 1.429 . S
C658 C656 1.419 . S
C658 C659 1.363 . S
C658 H661 0.929 . S
C659 C658 1.363 . S
C659 C665 1.428 . S
H660 C656 0.930 . S
H661 C658 0.929 . S
S662 N663 1.613 . S
S662 N664 1.610 . S
N663 S662 1.613 . S
N663 C666 1.350 . S
N664 S662 1.610 . S
N664 C665 1.351 . S
C665 C659 1.428 . S
C665 N664 1.351 . S
C665 C666 1.434 . S
C666 C657 1.429 . S
C666 N663 1.350 . S
C666 C665 1.434 . S
C667 C668 1.369 . S
C667 C669 1.419 . S
C667 H671 0.930 . S
C668 C667 1.369 . S
C668 C677 1.429 . S
C669 C667 1.419 . S
C669 C670 1.363 . S
C669 H672 0.929 . S
C670 C669 1.363 . S
C670 C676 1.428 . S
H671 C667 0.930 . S
H672 C669 0.929 . S
S673 N674 1.613 . S
S673 N675 1.610 . S
N674 S673 1.613 . S
N674 C677 1.350 . S
N675 S673 1.610 . S
N675 C676 1.351 . S
C676 C670 1.428 . S
C676 N675 1.351 . S
C676 C677 1.434 . S
C677 C668 1.429 . S
C677 N674 1.350 . S
C677 C676 1.434 . S
C678 C679 1.369 . S
C678 C680 1.419 . S
C678 H682 0.930 . S
C679 C678 1.369 . S
C679 C688 1.429 . S
C680 C678 1.419 . S
C680 C681 1.363 . S
C680 H683 0.929 . S
C681 C680 1.363 . S
C681 C687 1.428 . S
H682 C678 0.930 . S
H683 C680 0.929 . S
S684 N685 1.613 . S
S684 N686 1.610 . S
N685 S684 1.613 . S
N685 C688 1.350 . S
N686 S684 1.610 . S
N686 C687 1.351 . S
C687 C681 1.428 . S
C687 N686 1.351 . S
C687 C688 1.434 . S
C688 C679 1.429 . S
C688 N685 1.350 . S
C688 C687 1.434 . S
C689 C690 1.369 . S
C689 C691 1.419 . S
C689 H693 0.930 . S
C690 C689 1.369 . S
C690 C699 1.429 . S
C691 C689 1.419 . S
C691 C692 1.363 . S
C691 H694 0.929 . S
C692 C691 1.363 . S
C692 C698 1.428 . S
H693 C689 0.930 . S
H694 C691 0.929 . S
S695 N696 1.613 . S
S695 N697 1.610 . S
N696 S695 1.613 . S
N696 C699 1.350 . S
N697 S695 1.610 . S
N697 C698 1.351 . S
C698 C692 1.428 . S
C698 N697 1.351 . S
C698 C699 1.434 . S
C699 C690 1.429 . S
C699 N696 1.350 . S
C699 C698 1.434 . S
C700 C701 1.369 . S
C700 C702 1.419 . S
C700 H704 0.930 . S
C701 C700 1.369 . S
C701 C710 1.429 . S
C702 C700 1.419 . S
C702 C703 1.363 . S
C702 H705 0.929 . S
C703 C702 1.363 . S
C703 C709 1.428 . S
H704 C700 0.930 . S
H705 C702 0.929 . S
S706 N707 1.613 . S
S706 N708 1.610 . S
N707 S706 1.613 . S
N707 C710 1.350 . S
N708 S706 1.610 . S
N708 C709 1.351 . S
C709 C703 1.428 . S
C709 N708 1.351 . S
C709 C710 1.434 . S
C710 C701 1.429 . S
C710 N707 1.350 . S
C710 C709 1.434 . S
C711 C712 1.369 . S
C711 C713 1.419 . S
C711 H715 0.930 . S
C712 C711 1.369 . S
C712 C721 1.429 . S
C713 C711 1.419 . S
C713 C714 1.363 . S
C713 H716 0.929 . S
C714 C713 1.363 . S
C714 C720 1.428 . S
H715 C711 0.930 . S
H716 C713 0.929 . S
S717 N718 1.613 . S
S717 N719 1.610 . S
N718 S717 1.613 . S
N718 C721 1.350 . S
N719 S717 1.610 . S
N719 C720 1.351 . S
C720 C714 1.428 . S
C720 N719 1.351 . S
C720 C721 1.434 . S
C721 C712 1.429 . S
C721 N718 1.350 . S
C721 C720 1.434 . S
C722 C723 1.369 . S
C722 C724 1.419 . S
C722 H726 0.930 . S
C723 C722 1.369 . S
C723 C732 1.429 . S
C724 C722 1.419 . S
C724 C725 1.363 . S
C724 H727 0.929 . S
C725 C724 1.363 . S
C725 C731 1.428 . S
H726 C722 0.930 . S
H727 C724 0.929 . S
S728 N729 1.613 . S
S728 N730 1.610 . S
N729 S728 1.613 . S
N729 C732 1.350 . S
N730 S728 1.610 . S
N730 C731 1.351 . S
C731 C725 1.428 . S
C731 N730 1.351 . S
C731 C732 1.434 . S
C732 C723 1.429 . S
C732 N729 1.350 . S
C732 C731 1.434 . S
C733 C734 1.369 . S
C733 C735 1.419 . S
C733 H737 0.930 . S
C734 C733 1.369 . S
C734 C743 1.429 . S
C735 C733 1.419 . S
C735 C736 1.363 . S
C735 H738 0.929 . S
C736 C735 1.363 . S
C736 C742 1.428 . S
H737 C733 0.930 . S
H738 C735 0.929 . S
S739 N740 1.613 . S
S739 N741 1.610 . S
N740 S739 1.613 . S
N740 C743 1.350 . S
N741 S739 1.610 . S
N741 C742 1.351 . S
C742 C736 1.428 . S
C742 N741 1.351 . S
C742 C743 1.434 . S
C743 C734 1.429 . S
C743 N740 1.350 . S
C743 C742 1.434 . S
C744 C745 1.369 . S
C744 C746 1.419 . S
C744 H748 0.930 . S
C745 C744 1.369 . S
C745 C754 1.429 . S
C746 C744 1.419 . S
C746 C747 1.363 . S
C746 H749 0.929 1_556 S
C747 C746 1.363 . S
C747 C753 1.428 . S
H748 C744 0.930 . S
H749 C746 0.929 1_554 S
S750 N751 1.613 . S
S750 N752 1.610 . S
N751 S750 1.613 . S
N751 C754 1.350 . S
N752 S750 1.610 . S
N752 C753 1.351 . S
C753 C747 1.428 . S
C753 N752 1.351 . S
C753 C754 1.434 . S
C754 C745 1.429 . S
C754 N751 1.350 . S
C754 C753 1.434 . S
C755 C756 1.369 . S
C755 C757 1.419 . S
C755 H759 0.930 . S
C756 C755 1.369 . S
C756 C765 1.429 . S
C757 C755 1.419 . S
C757 C758 1.363 . S
C757 H760 0.929 . S
C758 C757 1.363 . S
C758 C764 1.428 . S
H759 C755 0.930 . S
H760 C757 0.929 . S
S761 N762 1.613 . S
S761 N763 1.610 . S
N762 S761 1.613 . S
N762 C765 1.350 . S
N763 S761 1.610 . S
N763 C764 1.351 . S
C764 C758 1.428 . S
C764 N763 1.351 . S
C764 C765 1.434 . S
C765 C756 1.429 . S
C765 N762 1.350 . S
C765 C764 1.434 . S
C766 C767 1.369 . S
C766 C768 1.419 . S
C766 H770 0.930 . S
C767 C766 1.369 . S
C767 C776 1.429 . S
C768 C766 1.419 . S
C768 C769 1.363 . S
C768 H771 0.929 . S
C769 C768 1.363 . S
C769 C775 1.428 . S
H770 C766 0.930 . S
H771 C768 0.929 . S
S772 N773 1.613 . S
S772 N774 1.606 1_556 S
N773 S772 1.613 . S
N773 C776 1.350 . S
N774 S772 1.606 1_554 S
N774 C775 1.346 1_554 S
C775 C769 1.428 . S
C775 N774 1.346 1_556 S
C775 C776 1.434 . S
C776 C767 1.429 . S
C776 N773 1.350 . S
C776 C775 1.434 . S
C777 C778 1.369 . S
C777 C779 1.419 . S
C777 H781 0.930 . S
C778 C777 1.369 . S
C778 C787 1.429 . S
C779 C777 1.419 . S
C779 C780 1.363 . S
C779 H782 0.929 . S
C780 C779 1.363 . S
C780 C786 1.428 . S
H781 C777 0.930 . S
H782 C779 0.929 . S
S783 N784 1.613 . S
S783 N785 1.610 . S
N784 S783 1.613 . S
N784 C787 1.350 . S
N785 S783 1.610 . S
N785 C786 1.351 . S
C786 C780 1.428 . S
C786 N785 1.351 . S
C786 C787 1.434 . S
C787 C778 1.429 . S
C787 N784 1.350 . S
C787 C786 1.434 . S
C788 C789 1.369 . S
C788 C790 1.419 . S
C788 H792 0.930 . S
C789 C788 1.369 . S
C789 C798 1.429 . S
C790 C788 1.419 . S
C790 C791 1.363 . S
C790 H793 0.929 . S
C791 C790 1.363 . S
C791 C797 1.428 . S
H792 C788 0.930 . S
H793 C790 0.929 . S
S794 N795 1.613 . S
S794 N796 1.610 . S
N795 S794 1.613 . S
N795 C798 1.350 . S
N796 S794 1.610 . S
N796 C797 1.351 . S
C797 C791 1.428 . S
C797 N796 1.351 . S
C797 C798 1.434 . S
C798 C789 1.429 . S
C798 N795 1.350 . S
C798 C797 1.434 . S
C799 C800 1.369 . S
C799 C801 1.419 . S
C799 H803 0.930 . S
C800 C799 1.369 . S
C800 C809 1.429 . S
C801 C799 1.419 . S
C801 C802 1.363 . S
C801 H804 0.929 . S
C802 C801 1.363 . S
C802 C808 1.428 . S
H803 C799 0.930 . S
H804 C801 0.929 . S
S805 N806 1.613 . S
S805 N807 1.610 . S
N806 S805 1.613 . S
N806 C809 1.350 . S
N807 S805 1.610 . S
N807 C808 1.351 . S
C808 C802 1.428 . S
C808 N807 1.351 . S
C808 C809 1.434 . S
C809 C800 1.429 . S
C809 N806 1.350 . S
C809 C808 1.434 . S
C810 C811 1.369 . S
C810 C812 1.419 . S
C810 H814 0.930 . S
C811 C810 1.369 . S
C811 C820 1.429 . S
C812 C810 1.419 . S
C812 C813 1.363 . S
C812 H815 0.929 1_565 S
C813 C812 1.363 . S
C813 C819 1.428 . S
H814 C810 0.930 . S
H815 C812 0.929 1_545 S
S816 N817 1.613 1_554 S
S816 N818 1.610 . S
N817 S816 1.613 1_556 S
N817 C820 1.350 . S
N818 S816 1.610 . S
N818 C819 1.351 1_554 S
C819 C813 1.428 . S
C819 N818 1.351 1_556 S
C819 C820 1.434 . S
C820 C811 1.429 . S
C820 N817 1.350 . S
C820 C819 1.434 . S
C821 C822 1.369 . S
C821 C823 1.419 . S
C821 H825 0.930 . S
C822 C821 1.369 . S
C822 C831 1.429 . S
C823 C821 1.419 . S
C823 C824 1.363 . S
C823 H826 0.929 . S
C824 C823 1.363 . S
C824 C830 1.428 . S
H825 C821 0.930 . S
H826 C823 0.929 . S
S827 N828 1.613 . S
S827 N829 1.610 1_654 S
N828 S827 1.613 . S
N828 C831 1.350 1_654 S
N829 S827 1.610 1_456 S
N829 C830 1.351 . S
C830 C824 1.428 . S
C830 N829 1.351 . S
C830 C831 1.434 . S
C831 C822 1.429 . S
C831 N828 1.350 1_456 S
C831 C830 1.434 . S
C832 C833 1.369 . S
C832 C834 1.419 . S
C832 H836 0.930 . S
C833 C832 1.369 . S
C833 C842 1.429 . S
C834 C832 1.419 . S
C834 C835 1.363 . S
C834 H837 0.929 . S
C835 C834 1.363 . S
C835 C841 1.428 . S
H836 C832 0.930 . S
H837 C834 0.929 . S
S838 N839 1.613 . S
S838 N840 1.610 . S
N839 S838 1.613 . S
N839 C842 1.350 . S
N840 S838 1.610 . S
N840 C841 1.351 . S
C841 C835 1.428 . S
C841 N840 1.351 . S
C841 C842 1.434 . S
C842 C833 1.429 . S
C842 N839 1.350 . S
C842 C841 1.434 . S
C843 C844 1.369 1_655 S
C843 C845 1.419 1_655 S
C843 H847 0.930 . S
C844 C843 1.369 1_455 S
C844 C853 1.429 . S
C845 C843 1.419 1_455 S
C845 C846 1.363 . S
C845 H848 0.929 . S
C846 C845 1.363 . S
C846 C852 1.428 . S
H847 C843 0.930 . S
H848 C845 0.929 . S
S849 N850 1.613 . S
S849 N851 1.610 . S
N850 S849 1.613 . S
N850 C853 1.350 . S
N851 S849 1.610 . S
N851 C852 1.351 . S
C852 C846 1.428 . S
C852 N851 1.351 . S
C852 C853 1.434 . S
C853 C844 1.429 . S
C853 N850 1.350 . S
C853 C852 1.434 . S
C854 C855 1.369 . S
C854 C856 1.419 . S
C854 H858 0.930 . S
C855 C854 1.369 . S
C855 C864 1.429 . S
C856 C854 1.419 . S
C856 C857 1.363 . S
C856 H859 0.929 . S
C857 C856 1.363 . S
C857 C863 1.428 . S
H858 C854 0.930 . S
H859 C856 0.929 . S
S860 N861 1.613 . S
S860 N862 1.610 . S
N861 S860 1.613 . S
N861 C864 1.350 . S
N862 S860 1.610 . S
N862 C863 1.351 . S
C863 C857 1.428 . S
C863 N862 1.351 . S
C863 C864 1.434 . S
C864 C855 1.429 . S
C864 N861 1.350 . S
C864 C863 1.434 . S
C865 C866 1.369 . S
C865 C867 1.419 . S
C865 H869 0.930 . S
C866 C865 1.369 . S
C866 C875 1.429 . S
C867 C865 1.419 . S
C867 C868 1.363 . S
C867 H870 0.929 . S
C868 C867 1.363 . S
C868 C874 1.428 . S
H869 C865 0.930 . S
H870 C867 0.929 . S
S871 N872 1.613 . S
S871 N873 1.610 . S
N872 S871 1.613 . S
N872 C875 1.350 . S
N873 S871 1.610 . S
N873 C874 1.351 . S
C874 C868 1.428 . S
C874 N873 1.351 . S
C874 C875 1.434 . S
C875 C866 1.429 . S
C875 N872 1.350 . S
C875 C874 1.434 . S
C876 C877 1.369 . S
C876 C878 1.419 . S
C876 H880 0.930 . S
C877 C876 1.369 . S
C877 C886 1.429 . S
C878 C876 1.419 . S
C878 C879 1.363 . S
C878 H881 0.929 . S
C879 C878 1.363 . S
C879 C885 1.428 . S
H880 C876 0.930 . S
H881 C878 0.929 . S
S882 N883 1.613 . S
S882 N884 1.610 . S
N883 S882 1.613 . S
N883 C886 1.350 . S
N884 S882 1.610 . S
N884 C885 1.351 . S
C885 C879 1.428 . S
C885 N884 1.351 . S
C885 C886 1.434 . S
C886 C877 1.429 . S
C886 N883 1.350 . S
C886 C885 1.434 . S
C887 C888 1.369 . S
C887 C889 1.419 . S
C887 H891 0.930 . S
C888 C887 1.369 . S
C888 C897 1.429 . S
C889 C887 1.419 . S
C889 C890 1.363 . S
C889 H892 0.929 . S
C890 C889 1.363 . S
C890 C896 1.428 . S
H891 C887 0.930 . S
H892 C889 0.929 . S
S893 N894 1.613 . S
S893 N895 1.610 . S
N894 S893 1.613 . S
N894 C897 1.350 . S
N895 S893 1.610 . S
N895 C896 1.351 . S
C896 C890 1.428 . S
C896 N895 1.351 . S
C896 C897 1.434 . S
C897 C888 1.429 . S
C897 N894 1.350 . S
C897 C896 1.434 . S
C898 C899 1.369 . S
C898 C900 1.419 . S
C898 H902 0.930 . S
C899 C898 1.369 . S
C899 C908 1.429 . S
C900 C898 1.419 . S
C900 C901 1.363 . S
C900 H903 0.929 . S
C901 C900 1.363 . S
C901 C907 1.428 . S
H902 C898 0.930 . S
H903 C900 0.929 . S
S904 N905 1.613 . S
S904 N906 1.610 . S
N905 S904 1.613 . S
N905 C908 1.350 . S
N906 S904 1.610 . S
N906 C907 1.351 . S
C907 C901 1.428 . S
C907 N906 1.351 . S
C907 C908 1.434 . S
C908 C899 1.429 . S
C908 N905 1.350 . S
C908 C907 1.434 . S
C909 C910 1.369 . S
C909 C911 1.419 . S
C909 H913 0.930 . S
C910 C909 1.369 . S
C910 C919 1.429 . S
C911 C909 1.419 . S
C911 C912 1.363 . S
C911 H914 0.929 . S
C912 C911 1.363 . S
C912 C918 1.428 . S
H913 C909 0.930 . S
H914 C911 0.929 . S
S915 N916 1.613 . S
S915 N917 1.610 . S
N916 S915 1.613 . S
N916 C919 1.350 . S
N917 S915 1.610 . S
N917 C918 1.351 . S
C918 C912 1.428 . S
C918 N917 1.351 . S
C918 C919 1.434 . S
C919 C910 1.429 . S
C919 N916 1.350 . S
C919 C918 1.434 . S
C920 C921 1.369 . S
C920 C922 1.419 . S
C920 H924 0.930 . S
C921 C920 1.369 . S
C921 C930 1.429 . S
C922 C920 1.419 . S
C922 C923 1.363 . S
C922 H925 0.929 . S
C923 C922 1.363 . S
C923 C929 1.428 . S
H924 C920 0.930 . S
H925 C922 0.929 . S
S926 N927 1.613 . S
S926 N928 1.610 . S
N927 S926 1.613 . S
N927 C930 1.350 . S
N928 S926 1.610 . S
N928 C929 1.351 . S
C929 C923 1.428 . S
C929 N928 1.351 . S
C929 C930 1.434 . S
C930 C921 1.429 . S
C930 N927 1.350 . S
C930 C929 1.434 . S
C931 C932 1.369 . S
C931 C933 1.419 . S
C931 H935 0.930 . S
C932 C931 1.369 . S
C932 C941 1.429 . S
C933 C931 1.419 . S
C933 C934 1.363 . S
C933 H936 0.929 . S
C934 C933 1.363 . S
C934 C940 1.428 . S
H935 C931 0.930 . S
H936 C933 0.929 . S
S937 N938 1.613 . S
S937 N939 1.610 . S
N938 S937 1.613 . S
N938 C941 1.350 . S
N939 S937 1.610 . S
N939 C940 1.351 . S
C940 C934 1.428 . S
C940 N939 1.351 . S
C940 C941 1.434 . S
C941 C932 1.429 . S
C941 N938 1.350 . S
C941 C940 1.434 . S
C942 C943 1.369 . S
C942 C944 1.419 . S
C942 H946 0.930 . S
C943 C942 1.369 . S
C943 C952 1.429 . S
C944 C942 1.419 . S
C944 C945 1.363 . S
C944 H947 0.929 . S
C945 C944 1.363 . S
C945 C951 1.428 . S
H946 C942 0.930 . S
H947 C944 0.929 . S
S948 N949 1.613 . S
S948 N950 1.610 . S
N949 S948 1.613 . S
N949 C952 1.350 . S
N950 S948 1.610 . S
N950 C951 1.351 . S
C951 C945 1.428 . S
C951 N950 1.351 . S
C951 C952 1.434 . S
C952 C943 1.429 . S
C952 N949 1.350 . S
C952 C951 1.434 . S
C953 C954 1.369 . S
C953 C955 1.419 . S
C953 H957 0.930 . S
C954 C953 1.369 . S
C954 C963 1.429 . S
C955 C953 1.419 . S
C955 C956 1.363 . S
C955 H958 0.929 . S
C956 C955 1.363 . S
C956 C962 1.428 . S
H957 C953 0.930 . S
H958 C955 0.929 . S
S959 N960 1.613 . S
S959 N961 1.610 . S
N960 S959 1.613 . S
N960 C963 1.350 . S
N961 S959 1.610 . S
N961 C962 1.351 . S
C962 C956 1.428 . S
C962 N961 1.351 . S
C962 C963 1.434 . S
C963 C954 1.429 . S
C963 N960 1.350 . S
C963 C962 1.434 . S
C964 C965 1.369 . S
C964 C966 1.419 . S
C964 H968 0.930 . S
C965 C964 1.369 . S
C965 C974 1.429 . S
C966 C964 1.419 . S
C966 C967 1.363 . S
C966 H969 0.929 . S
C967 C966 1.363 . S
C967 C973 1.428 . S
H968 C964 0.930 . S
H969 C966 0.929 . S
S970 N971 1.613 . S
S970 N972 1.610 . S
N971 S970 1.613 . S
N971 C974 1.350 . S
N972 S970 1.610 . S
N972 C973 1.351 . S
C973 C967 1.428 . S
C973 N972 1.351 . S
C973 C974 1.434 . S
C974 C965 1.429 . S
C974 N971 1.350 . S
C974 C973 1.434 . S
C975 C976 1.369 . S
C975 C977 1.419 . S
C975 H979 0.930 . S
C976 C975 1.369 . S
C976 C985 1.429 . S
C977 C975 1.419 . S
C977 C978 1.363 . S
C977 H980 0.929 . S
C978 C977 1.363 . S
C978 C984 1.428 . S
H979 C975 0.930 . S
H980 C977 0.929 . S
S981 N982 1.613 . S
S981 N983 1.610 . S
N982 S981 1.613 . S
N982 C985 1.350 . S
N983 S981 1.610 . S
N983 C984 1.351 . S
C984 C978 1.428 . S
C984 N983 1.351 . S
C984 C985 1.434 . S
C985 C976 1.429 . S
C985 N982 1.350 . S
C985 C984 1.434 . S
C986 C987 1.369 . S
C986 C988 1.419 . S
C986 H990 0.930 . S
C987 C986 1.369 . S
C987 C996 1.429 . S
C988 C986 1.419 . S
C988 C989 1.363 . S
C988 H991 0.929 . S
C989 C988 1.363 . S
C989 C995 1.428 . S
H990 C986 0.930 . S
H991 C988 0.929 . S
S992 N993 1.613 . S
S992 N994 1.610 . S
N993 S992 1.613 . S
N993 C996 1.350 . S
N994 S992 1.610 . S
N994 C995 1.351 . S
C995 C989 1.428 . S
C995 N994 1.351 . S
C995 C996 1.434 . S
C996 C987 1.429 . S
C996 N993 1.350 . S
C996 C995 1.434 . S
C997 C998 1.369 . S
C997 C999 1.419 . S
C997 H1001 0.930 . S
C998 C997 1.369 . S
C998 C1007 1.429 . S
C999 C997 1.419 . S
C999 C1000 1.363 . S
C999 H1002 0.929 . S
C1000 C999 1.363 . S
C1000 C1006 1.428 . S
H1001 C997 0.930 . S
H1002 C999 0.929 . S
S1003 N1004 1.613 . S
S1003 N1005 1.610 1_556 S
N1004 S1003 1.613 . S
N1004 C1007 1.350 1_556 S
N1005 S1003 1.610 1_554 S
N1005 C1006 1.351 . S
C1006 C1000 1.428 . S
C1006 N1005 1.351 . S
C1006 C1007 1.434 . S
C1007 C998 1.429 . S
C1007 N1004 1.350 1_554 S
C1007 C1006 1.434 . S
C415 C18 1.016 1_556 S
C417 C62 1.039 . S
C426 C16 1.036 . S
C428 C41 1.022 1_556 S
C437 C64 1.024 1_556 S
C439 C39 1.036 . S
C448 C108 1.039 . S
C450 C87 1.017 . S
C459 C131 1.040 . S
C461 C110 1.016 . S
C470 C133 1.011 . S
C472 C85 1.042 . S
C481 C200 1.036 . S
C483 C156 1.022 . S
C492 C179 1.022 . S
C494 C154 1.037 . S
C503 C177 1.041 . S
C505 C202 1.014 . S
C514 C225 1.023 . S
C516 C246 1.036 . S
C525 C269 1.043 . S
C527 C248 1.013 . S
C536 C271 1.018 . S
C538 C223 1.038 . S
C547 C338 1.038 . S
C549 C294 1.019 . S
C558 C317 1.016 1_565 S
C560 C292 1.040 . S
C569 C340 1.023 1_455 S
C571 C315 1.037 . S
C580 C363 1.023 . S
C582 C384 1.036 . S
C591 C407 1.037 . S
C593 C386 1.020 1_565 S
C602 C361 1.036 . S
C604 C409 1.022 1_455 S
C613 C134 1.142 . S
C615 C20 1.162 . S
C624 C88 1.145 . S
C626 C43 1.164 . S
C635 C111 1.139 . S
C637 C66 1.157 . S
C646 C42 1.141 . S
C648 C89 1.162 . S
C657 C112 1.161 . S
C659 C65 1.141 . S
C668 C19 1.146 . S
C670 C135 1.163 . S
C679 C158 1.163 . S
C681 C272 1.143 . S
C690 C181 1.160 . S
C692 C226 1.146 . S
C701 C249 1.140 . S
C703 C204 1.161 . S
C712 C227 1.164 1_554 S
C714 C180 1.148 . S
C723 C250 1.158 1_554 S
C725 C203 1.144 . S
C734 C273 1.164 1_554 S
C736 C157 1.148 . S
C745 C296 1.159 . S
C747 C410 1.146 1_556 S
C756 C319 1.165 . S
C758 C364 1.147 1_556 S
C767 C342 1.159 . S
C769 C387 1.139 1_556 S
C778 C365 1.161 . S
C780 C318 1.147 . S
C789 C388 1.162 . S
C791 C341 1.147 . S
C800 C411 1.159 . S
C802 C295 1.140 . S
C811 C251 2.108 . S
C813 C17 2.071 1_565 S
C822 C40 2.070 1_455 S
C824 C274 2.109 . S
C833 C228 2.111 . S
C835 C63 2.067 . S
C844 C86 2.073 1_455 S
C846 C205 2.107 . S
C855 C109 2.068 . S
C857 C159 2.110 . S
C866 C182 2.107 . S
C868 C132 2.071 1_565 S
C877 C155 2.066 . S
C879 C389 2.111 1_455 S
C888 C178 2.072 . S
C890 C412 2.108 . S
C899 C201 2.073 . S
C901 C366 2.107 1_565 S
C910 C343 2.111 1_565 S
C912 C224 2.068 . S
C921 C297 2.112 1_455 S
C923 C247 2.067 . S
C932 C320 2.110 . S
C934 C270 2.069 . S
C943 C113 2.110 . S
C945 C293 2.068 . S
C954 C316 2.071 . S
C956 C136 2.108 . S
C965 C90 2.107 . S
C967 C339 2.072 . S
C976 C362 2.073 . S
C978 C67 2.107 . S
C987 C385 2.073 . S
C989 C21 2.107 . S
C998 C44 2.111 . S
C1000 C408 2.068 . S
