# Generated by pormake.
# Topology umb, (4)-cn, num edge types: 1
# Building blocks:
#     Node 0, Type 0, BuildingBlock: CEKHIL_clean_sbu_0, # of connection points: 4
#     Node 1, Type 0, BuildingBlock: CEKHIL_clean_sbu_0, # of connection points: 4
#     Node 2, Type 0, BuildingBlock: CEKHIL_clean_sbu_0, # of connection points: 4
#     Node 3, Type 0, BuildingBlock: CEKHIL_clean_sbu_0, # of connection points: 4
#     Node 4, Type 0, BuildingBlock: CEKHIL_clean_sbu_0, # of connection points: 4
#     Node 5, Type 0, BuildingBlock: CEKHIL_clean_sbu_0, # of connection points: 4
#     Node 6, Type 0, BuildingBlock: CEKHIL_clean_sbu_0, # of connection points: 4
#     Node 7, Type 0, BuildingBlock: CEKHIL_clean_sbu_0, # of connection points: 4
#     Node 8, Type 0, BuildingBlock: CEKHIL_clean_sbu_0, # of connection points: 4
#     Node 9, Type 0, BuildingBlock: CEKHIL_clean_sbu_0, # of connection points: 4
#     Node 10, Type 0, BuildingBlock: CEKHIL_clean_sbu_0, # of connection points: 4
#     Node 11, Type 0, BuildingBlock: CEKHIL_clean_sbu_0, # of connection points: 4
#     Edge 12, Type (0, 0), BuildingBlock: CIFDUS_clean_linker_0, # of connection points: 2
#     Edge 13, Type (0, 0), BuildingBlock: CIFDUS_clean_linker_0, # of connection points: 2
#     Edge 14, Type (0, 0), BuildingBlock: CIFDUS_clean_linker_0, # of connection points: 2
#     Edge 15, Type (0, 0), BuildingBlock: CIFDUS_clean_linker_0, # of connection points: 2
#     Edge 16, Type (0, 0), BuildingBlock: CIFDUS_clean_linker_0, # of connection points: 2
#     Edge 17, Type (0, 0), BuildingBlock: CIFDUS_clean_linker_0, # of connection points: 2
#     Edge 18, Type (0, 0), BuildingBlock: CIFDUS_clean_linker_0, # of connection points: 2
#     Edge 19, Type (0, 0), BuildingBlock: CIFDUS_clean_linker_0, # of connection points: 2
#     Edge 20, Type (0, 0), BuildingBlock: CIFDUS_clean_linker_0, # of connection points: 2
#     Edge 21, Type (0, 0), BuildingBlock: CIFDUS_clean_linker_0, # of connection points: 2
#     Edge 22, Type (0, 0), BuildingBlock: CIFDUS_clean_linker_0, # of connection points: 2
#     Edge 23, Type (0, 0), BuildingBlock: CIFDUS_clean_linker_0, # of connection points: 2
#     Edge 24, Type (0, 0), BuildingBlock: CIFDUS_clean_linker_0, # of connection points: 2
#     Edge 25, Type (0, 0), BuildingBlock: CIFDUS_clean_linker_0, # of connection points: 2
#     Edge 26, Type (0, 0), BuildingBlock: CIFDUS_clean_linker_0, # of connection points: 2
#     Edge 27, Type (0, 0), BuildingBlock: CIFDUS_clean_linker_0, # of connection points: 2
#     Edge 28, Type (0, 0), BuildingBlock: CIFDUS_clean_linker_0, # of connection points: 2
#     Edge 29, Type (0, 0), BuildingBlock: CIFDUS_clean_linker_0, # of connection points: 2
#     Edge 30, Type (0, 0), BuildingBlock: CIFDUS_clean_linker_0, # of connection points: 2
#     Edge 31, Type (0, 0), BuildingBlock: CIFDUS_clean_linker_0, # of connection points: 2
#     Edge 32, Type (0, 0), BuildingBlock: CIFDUS_clean_linker_0, # of connection points: 2
#     Edge 33, Type (0, 0), BuildingBlock: CIFDUS_clean_linker_0, # of connection points: 2
#     Edge 34, Type (0, 0), BuildingBlock: CIFDUS_clean_linker_0, # of connection points: 2
#     Edge 35, Type (0, 0), BuildingBlock: CIFDUS_clean_linker_0, # of connection points: 2
# Relax obj value: 0.274
# Max RMSD: 0.249
# Mean RMSD: 0.249
data_MOF--net-umb--node1-CEKHIL_clean_sbu_0--edge1-CIFDUS_clean_linker_0
_symmetry_space_group_name_H-M    P1
_symmetry_Int_Tables_number       1
_symmetry_cell_setting            triclinic
loop_
_symmetry_equiv_pos_as_xyz
'x, y, z'
_cell_length_a     41.35299
_cell_length_b     41.469116
_cell_length_c     31.455475
_cell_angle_alpha  90.19254
_cell_angle_beta   89.894234
_cell_angle_gamma 120.14343
loop_
_atom_site_label
_atom_site_type_symbol
_atom_site_fract_x
_atom_site_fract_y
_atom_site_fract_z
_atom_type_partial_charge
Co0 Co 0.5105 0.15301 0.33311 0.0
O1 O 0.4721 0.10222 0.32719 0.0
O2 O 0.53287 0.12318 0.3196 0.0
C3 C 0.48351 0.17777 0.29222 0.0
O4 O 0.55721 0.20409 0.33684 0.0
Co5 Co 0.48883 0.20234 0.38427 0.0
O6 O 0.53901 0.24188 0.36666 0.0
C7 C 0.51639 0.16004 0.4312 0.0
C8 C 0.49869 0.09517 0.31933 0.0
C9 C 0.56401 0.23615 0.3506 0.0
O10 O 0.51716 0.14561 0.3953 0.0
O11 O 0.50401 0.1827 0.43489 0.0
O12 O 0.50202 0.16335 0.27557 0.0
O13 O 0.47722 0.17209 0.3329 0.0
Co14 Co 0.36482 0.52444 0.64353 0.0
O15 O 0.38319 0.49087 0.63548 0.0
O16 O 0.41727 0.55247 0.62968 0.0
C17 C 0.31258 0.49406 0.60286 0.0
O18 O 0.35411 0.56669 0.64922 0.0
Co19 Co 0.29289 0.49448 0.69603 0.0
O20 O 0.29659 0.54175 0.67775 0.0
C21 C 0.36372 0.52627 0.74242 0.0
C22 C 0.4154 0.52019 0.62805 0.0
C23 C 0.32589 0.56915 0.66202 0.0
O24 O 0.37955 0.53138 0.70589 0.0
O25 O 0.3281 0.5095 0.74649 0.0
O26 O 0.34513 0.51516 0.58607 0.0
O27 O 0.31326 0.4872 0.64321 0.0
Co28 Co 0.83769 0.36566 0.99242 0.0
O29 O 0.89039 0.38664 0.98429 0.0
O30 O 0.86029 0.41831 0.9817 0.0
C31 C 0.8177 0.31493 0.9495 0.0
O32 O 0.78399 0.35306 0.99898 0.0
Co33 Co 0.79562 0.29014 0.03959 0.0
O34 O 0.75174 0.2959 0.02807 0.0
C35 C 0.8351 0.35883 0.09045 0.0
C36 C 0.89174 0.41837 0.97947 0.0
C37 C 0.75362 0.32541 1.01336 0.0
O38 O 0.84484 0.37736 0.05552 0.0
O39 O 0.81746 0.32311 0.09135 0.0
O40 O 0.82784 0.34752 0.93381 0.0
O41 O 0.82517 0.31508 0.98963 0.0
Co42 Co 0.47033 0.83811 0.32395 0.0
O43 O 0.50907 0.88871 0.31685 0.0
O44 O 0.44841 0.86941 0.32022 0.0
C45 C 0.49041 0.81327 0.27266 0.0
O46 O 0.4231 0.78806 0.33062 0.0
Co47 Co 0.49428 0.78592 0.36096 0.0
O48 O 0.44108 0.74834 0.35435 0.0
C49 C 0.4745 0.82771 0.42066 0.0
C50 C 0.48264 0.89681 0.3161 0.0
C51 C 0.4159 0.75581 0.34361 0.0
O52 O 0.47117 0.84428 0.38799 0.0
O53 O 0.48557 0.80398 0.41752 0.0
O54 O 0.47077 0.82871 0.26395 0.0
O55 O 0.50224 0.81774 0.31188 0.0
Co56 Co 0.62327 0.46239 0.65347 0.0
O57 O 0.60486 0.49554 0.64273 0.0
O58 O 0.57093 0.43378 0.63922 0.0
C59 C 0.6756 0.492 0.61309 0.0
O60 O 0.6337 0.42018 0.66228 0.0
Co61 Co 0.69559 0.49369 0.70575 0.0
O62 O 0.69041 0.44475 0.69283 0.0
C63 C 0.62411 0.46155 0.75174 0.0
C64 C 0.57277 0.46593 0.63563 0.0
C65 C 0.66081 0.41718 0.67779 0.0
O66 O 0.6083 0.45768 0.71546 0.0
O67 O 0.65969 0.47719 0.75566 0.0
O68 O 0.6433 0.4698 0.59631 0.0
O69 O 0.67472 0.49991 0.65305 0.0
Co70 Co 0.15676 0.63853 0.98887 0.0
O71 O 0.1036 0.61759 0.98628 0.0
O72 O 0.13318 0.5856 0.97966 0.0
C73 C 0.17378 0.68763 0.94421 0.0
O74 O 0.21065 0.65105 0.9889 0.0
Co75 Co 0.20391 0.71501 0.03203 0.0
O76 O 0.24575 0.71192 1.0056 0.0
C77 C 0.16827 0.64834 0.08649 0.0
C78 C 0.10178 0.5857 0.98045 0.0
C79 C 0.24233 0.68112 0.99317 0.0
O80 O 0.1546 0.62884 0.05248 0.0
O81 O 0.18729 0.68407 0.08584 0.0
O82 O 0.16176 0.65424 0.92972 0.0
O83 O 0.16974 0.6894 0.9851 0.0
Co84 Co 0.83576 0.47621 0.38661 0.0
O85 O 0.88745 0.51358 0.389 0.0
O86 O 0.86526 0.45268 0.39523 0.0
C87 C 0.81377 0.5038 0.43142 0.0
O88 O 0.784 0.43049 0.38674 0.0
Co89 Co 0.78258 0.49804 0.34348 0.0
O90 O 0.74444 0.45123 0.37078 0.0
C91 C 0.8254 0.47527 0.28903 0.0
C92 C 0.89396 0.48637 0.39443 0.0
C93 C 0.75099 0.42585 0.38316 0.0
O94 O 0.83909 0.46985 0.32311 0.0
O95 O 0.80378 0.48908 0.28963 0.0
O96 O 0.82916 0.48545 0.44584 0.0
O97 O 0.81719 0.50956 0.39058 0.0
Co98 Co 0.35728 0.8336 0.71742 0.0
O99 O 0.37944 0.88619 0.72513 0.0
O100 O 0.40986 0.8549 0.72956 0.0
C101 C 0.30654 0.81573 0.76014 0.0
O102 O 0.34226 0.7793 0.71216 0.0
Co103 Co 0.28273 0.79404 0.66863 0.0
O104 O 0.28233 0.74902 0.68993 0.0
C105 C 0.35238 0.83039 0.61891 0.0
C106 C 0.41055 0.88659 0.73194 0.0
C107 C 0.31143 0.74931 0.70361 0.0
O108 O 0.37019 0.8399 0.65442 0.0
O109 O 0.3166 0.81376 0.61709 0.0
O110 O 0.33904 0.8251 0.77572 0.0
O111 O 0.30678 0.82276 0.71973 0.0
Co112 Co 0.51931 0.35853 0.06828 0.0
O113 O 0.48584 0.37734 0.07201 0.0
O114 O 0.54723 0.41085 0.08223 0.0
C115 C 0.48597 0.30725 0.10868 0.0
O116 O 0.56128 0.34678 0.0675 0.0
Co117 Co 0.49219 0.28643 1.01748 0.0
O118 O 0.53476 0.2868 0.04665 0.0
C119 C 0.52558 0.35656 0.97014 0.0
C120 C 0.51495 0.4092 0.08116 0.0
C121 C 0.56217 0.31655 0.06157 0.0
O122 O 0.52936 0.37263 1.00621 0.0
O123 O 0.50911 0.32101 0.96639 0.0
O124 O 0.50688 0.33974 0.12558 0.0
O125 O 0.48138 0.30739 0.06762 0.0
Co126 Co 0.15161 0.51334 0.37925 0.0
O127 O 0.10048 0.47392 0.37606 0.0
O128 O 0.11943 0.53337 0.38976 0.0
C129 C 0.17393 0.48457 0.42181 0.0
O130 O 0.20135 0.56058 0.38602 0.0
Co131 Co 0.2115 0.50076 0.33657 0.0
O132 O 0.24512 0.54503 0.37146 0.0
C133 C 0.16916 0.52441 0.2827 0.0
C134 C 0.09197 0.4994 0.38472 0.0
C135 C 0.2353 0.56767 0.38554 0.0
O136 O 0.152 0.52541 0.31644 0.0
O137 O 0.1925 0.51265 0.28299 0.0
O138 O 0.15551 0.49952 0.43747 0.0
O139 O 0.1732 0.48238 0.38048 0.0
Co140 Co 0.62555 0.15129 0.74235 0.0
O141 O 0.60646 0.09865 0.74425 0.0
O142 O 0.57362 0.12641 0.75827 0.0
C143 C 0.67916 0.17061 0.77952 0.0
O144 O 0.63683 0.20466 0.74376 0.0
Co145 Co 0.69651 0.19757 0.68853 0.0
O146 O 0.69523 0.23931 0.7177 0.0
C147 C 0.62426 0.16082 0.64465 0.0
C148 C 0.57467 0.09568 0.75458 0.0
C149 C 0.66616 0.23611 0.73569 0.0
O150 O 0.60922 0.14814 0.68109 0.0
O151 O 0.65976 0.17976 0.63943 0.0
O152 O 0.64722 0.1575 0.79861 0.0
O153 O 0.67684 0.16573 0.73844 0.0
Co154 Co 0.45919 0.618 0.06397 0.0
O155 O 0.49103 0.59827 0.07529 0.0
O156 O 0.42898 0.56522 0.0748 0.0
C157 C 0.48767 0.6677 0.10833 0.0
O158 O 0.41818 0.63021 0.05423 0.0
Co159 Co 0.49347 0.69041 1.01542 0.0
O160 O 0.44609 0.68862 0.02882 0.0
C161 C 0.46233 0.62184 0.96548 0.0
C162 C 0.46078 0.5663 0.07977 0.0
C163 C 0.41718 0.65908 0.04144 0.0
O164 O 0.45691 0.60525 1.00139 0.0
O165 O 0.47863 0.6574 0.96292 0.0
O166 O 0.46366 0.63483 0.12189 0.0
O167 O 0.49838 0.66919 0.0689 0.0
H168 H 0.50801 0.16652 0.51761 0.0
H169 H 0.57089 0.14175 0.42674 0.0
H170 H 0.60985 0.13991 0.48342 0.0
H171 H 0.62884 0.14844 0.55914 0.0
H172 H 0.56262 0.16751 0.65085 0.0
H173 H 0.52279 0.16838 0.59423 0.0
C174 C 0.5299 0.16025 0.51029 0.0
C175 C 0.53625 0.15436 0.46766 0.0
C176 C 0.55209 0.15844 0.54343 0.0
C177 C 0.56486 0.14613 0.45908 0.0
C178 C 0.58752 0.14531 0.49157 0.0
C179 C 0.6055 0.15245 0.56668 0.0
C180 C 0.5989 0.15797 0.60928 0.0
C181 C 0.58181 0.1519 0.53388 0.0
C182 C 0.56827 0.16289 0.61843 0.0
C183 C 0.54548 0.16357 0.58598 0.0
H184 H 0.35189 0.50693 0.82751 0.0
H185 H 0.43111 0.59036 0.74194 0.0
H186 H 0.46912 0.62713 0.80196 0.0
H187 H 0.47861 0.63787 0.87981 0.0
H188 H 0.40219 0.55162 0.96486 0.0
H189 H 0.36526 0.51427 0.90479 0.0
C190 C 0.37767 0.53293 0.82199 0.0
C191 C 0.38832 0.54566 0.77997 0.0
C192 C 0.4002 0.55384 0.8569 0.0
C193 C 0.42211 0.57947 0.77371 0.0
C194 C 0.44393 0.6008 0.80817 0.0
C195 C 0.45418 0.61071 0.88518 0.0
C196 C 0.44347 0.59794 0.92721 0.0
C197 C 0.4331 0.58859 0.85007 0.0
C198 C 0.4116 0.56241 0.93315 0.0
C199 C 0.39012 0.54091 0.89865 0.0
H200 H 0.84025 0.41881 0.27732 0.0
H201 H 0.82425 0.49936 0.20813 0.0
H202 H 0.82992 0.47278 0.14079 0.0
H203 H 0.83512 0.42398 0.10149 0.0
H204 H 0.84483 0.33972 0.17088 0.0
H205 H 0.84626 0.37052 0.23803 0.0
C206 C 0.83856 0.43096 0.24752 0.0
C207 C 0.83211 0.46136 0.24795 0.0
C208 C 0.84057 0.41468 0.20886 0.0
C209 C 0.82926 0.47612 0.20889 0.0
C210 C 0.83247 0.46086 0.17032 0.0
C211 C 0.83825 0.4127 0.13126 0.0
C212 C 0.84032 0.37971 0.131 0.0
C213 C 0.83758 0.42979 0.16989 0.0
C214 C 0.8434 0.36508 0.17004 0.0
C215 C 0.8441 0.38267 0.20848 0.0
H216 H 0.4189 0.84378 0.43329 0.0
H217 H 0.49504 0.82051 0.5019 0.0
H218 H 0.46608 0.82259 0.56925 0.0
H219 H 0.41655 0.82739 0.6085 0.0
H220 H 0.33651 0.84401 0.53859 0.0
H221 H 0.36951 0.8483 0.47221 0.0
C222 C 0.42968 0.8398 0.46301 0.0
C223 C 0.4597 0.83259 0.46233 0.0
C224 C 0.41187 0.83957 0.50152 0.0
C225 C 0.47236 0.82645 0.50127 0.0
C226 C 0.45565 0.82752 0.53985 0.0
C227 C 0.40662 0.8325 0.57881 0.0
C228 C 0.37418 0.83583 0.5788 0.0
C229 C 0.42505 0.83358 0.54038 0.0
C230 C 0.36135 0.84152 0.53975 0.0
C231 C 0.38025 0.84393 0.50171 0.0
H232 H 0.50593 0.34845 0.88496 0.0
H233 H 0.59264 0.42012 0.97273 0.0
H234 H 0.63038 0.45965 0.91434 0.0
H235 H 0.64054 0.47291 0.83743 0.0
H236 H 0.55182 0.40438 0.74998 0.0
H237 H 0.51354 0.36556 0.80847 0.0
C238 C 0.53295 0.37285 0.89124 0.0
C239 C 0.54631 0.38107 0.93334 0.0
C240 C 0.55442 0.39638 0.85733 0.0
C241 C 0.58139 0.4131 0.94079 0.0
C242 C 0.60319 0.43579 0.90731 0.0
C243 C 0.61265 0.44982 0.8312 0.0
C244 C 0.59941 0.44186 0.78902 0.0
C245 C 0.59021 0.42763 0.86532 0.0
C246 C 0.56296 0.41167 0.78193 0.0
C247 C 0.54096 0.38909 0.81547 0.0
H248 H 0.16992 0.59007 0.27322 0.0
H249 H 0.1587 0.49611 0.20192 0.0
H250 H 0.154 0.52454 0.13566 0.0
H251 H 0.15625 0.57762 0.09743 0.0
H252 H 0.17397 0.67447 0.16817 0.0
H253 H 0.17308 0.64368 0.23478 0.0
C254 C 0.16599 0.57564 0.24317 0.0
C255 C 0.16415 0.54068 0.24263 0.0
C256 C 0.16475 0.59291 0.20495 0.0
C257 C 0.16 0.52284 0.20331 0.0
C258 C 0.15735 0.53916 0.16539 0.0
C259 C 0.15938 0.59187 0.12743 0.0
C260 C 0.16469 0.62835 0.12749 0.0
C261 C 0.16008 0.57439 0.16571 0.0
C262 C 0.16958 0.64645 0.16687 0.0
C263 C 0.16915 0.62882 0.20509 0.0
H264 H 0.73353 0.36279 0.3404 0.0
H265 H 0.69531 0.40848 0.43861 0.0
H266 H 0.6339 0.35194 0.43818 0.0
H267 H 0.59003 0.29358 0.40494 0.0
H268 H 0.62538 0.24744 0.30398 0.0
H269 H 0.68944 0.30051 0.31007 0.0
C270 C 0.71194 0.3596 0.36248 0.0
C271 C 0.71851 0.38907 0.38989 0.0
C272 C 0.67628 0.3277 0.36069 0.0
C273 C 0.69052 0.38564 0.41774 0.0
C274 C 0.65548 0.35362 0.41714 0.0
C275 C 0.61159 0.29507 0.38394 0.0
C276 C 0.60287 0.2672 0.35324 0.0
C277 C 0.64779 0.3252 0.38774 0.0
C278 C 0.63141 0.26896 0.32738 0.0
C279 C 0.66795 0.29914 0.331 0.0
H280 H 0.36607 0.73652 0.67793 0.0
H281 H 0.25362 0.68267 0.72755 0.0
H282 H 0.24761 0.62159 0.71634 0.0
H283 H 0.27325 0.58418 0.69021 0.0
H284 H 0.38552 0.63701 0.63945 0.0
H285 H 0.39226 0.6983 0.65207 0.0
C286 C 0.34064 0.71135 0.68712 0.0
C287 C 0.31045 0.71368 0.70394 0.0
C288 C 0.337 0.67645 0.67931 0.0
C289 C 0.27721 0.68116 0.71482 0.0
C290 C 0.27367 0.6464 0.70809 0.0
C291 C 0.2992 0.60896 0.6816 0.0
C292 C 0.32883 0.60599 0.66393 0.0
C293 C 0.30315 0.6438 0.68969 0.0
C294 C 0.36217 0.63853 0.65291 0.0
C295 C 0.36621 0.67356 0.66048 0.0
H296 H 0.6278 0.36824 0.02871 0.0
H297 H 0.57434 0.26473 0.09804 0.0
H298 H 0.62941 0.2581 0.08825 0.0
H299 H 0.69003 0.2793 0.05569 0.0
H300 H 0.74318 0.38158 0.98337 0.0
H301 H 0.6902 0.39071 0.99769 0.0
C302 C 0.62885 0.34489 0.04268 0.0
C303 C 0.59771 0.31727 0.0646 0.0
C304 C 0.6598 0.34047 0.03523 0.0
C305 C 0.59848 0.28645 0.08156 0.0
C306 C 0.62965 0.28248 0.07552 0.0
C307 C 0.69008 0.30352 0.04269 0.0
C308 C 0.7204 0.32952 1.01813 0.0
C309 C 0.65995 0.30879 0.05142 0.0
C310 C 0.72002 0.36093 1.00206 0.0
C311 C 0.68992 0.36635 1.01052 0.0
H312 H 0.39242 0.70444 0.40461 0.0
H313 H 0.35249 0.74337 0.30136 0.0
H314 H 0.28886 0.69079 0.31237 0.0
H315 H 0.24762 0.62918 0.34464 0.0
H316 H 0.29052 0.58885 0.44312 0.0
H317 H 0.35022 0.64749 0.44187 0.0
C318 C 0.36979 0.70146 0.38445 0.0
C319 C 0.37704 0.72675 0.35129 0.0
C320 C 0.33397 0.67131 0.39066 0.0
C321 C 0.34742 0.72361 0.32652 0.0
C322 C 0.3112 0.69371 0.3329 0.0
C323 C 0.26972 0.63405 0.36681 0.0
C324 C 0.2652 0.60543 0.39417 0.0
C325 C 0.30448 0.6668 0.36402 0.0
C326 C 0.2938 0.61103 0.42222 0.0
C327 C 0.32787 0.64422 0.4211 0.0
H328 H 0.70376 0.40007 0.72619 0.0
H329 H 0.60532 0.35017 0.64649 0.0
H330 H 0.59453 0.28809 0.66412 0.0
H331 H 0.61523 0.24864 0.69943 0.0
H332 H 0.71532 0.29968 0.77573 0.0
H333 H 0.72253 0.36122 0.76366 0.0
C334 C 0.68003 0.37575 0.71226 0.0
C335 C 0.65567 0.37978 0.68454 0.0
C336 C 0.67378 0.34049 0.72295 0.0
C337 C 0.62475 0.34782 0.6675 0.0
C338 C 0.61838 0.31237 0.67787 0.0
C339 C 0.63779 0.27323 0.71452 0.0
C340 C 0.66437 0.27013 0.73905 0.0
C341 C 0.64276 0.30845 0.70554 0.0
C342 C 0.69431 0.30186 0.75743 0.0
C343 C 0.69868 0.33688 0.74999 0.0
H344 H 0.25164 0.62577 0.02296 0.0
H345 H 0.30924 0.73288 0.96108 0.0
H346 H 0.36905 0.73536 0.97128 0.0
H347 H 0.40458 0.70942 1.00217 0.0
H348 H 0.34798 0.60325 0.06678 0.0
H349 H 0.28765 0.59843 0.05197 0.0
C350 C 0.27726 0.64912 1.01078 0.0
C351 C 0.27643 0.67897 0.99101 0.0
C352 C 0.31147 0.651 1.01832 0.0
C353 C 0.30959 0.70959 0.97615 0.0
C354 C 0.34363 0.71114 0.98233 0.0
C355 C 0.37917 0.68523 1.01336 0.0
C356 C 0.3808 0.6569 0.03596 0.0
C357 C 0.3449 0.68249 1.00439 0.0
C358 C 0.34748 0.62561 0.04966 0.0
C359 C 0.31302 0.6227 0.04093 0.0
H360 H 0.54759 0.06998 0.31228 0.0
H361 H 0.42977 0.03374 0.31234 0.0
H362 H 0.41428 0.96887 0.30912 0.0
H363 H 0.43405 0.92237 0.31111 0.0
H364 H 0.55182 0.95842 0.31192 0.0
H365 H 0.56742 0.02339 0.30981 0.0
C366 C 0.51857 0.04788 0.31112 0.0
C367 C 0.48993 0.05653 0.31293 0.0
C368 C 0.5098 0.0106 0.30974 0.0
C369 C 0.45239 0.02771 0.31131 0.0
C370 C 0.44344 0.99059 0.30952 0.0
C371 C 0.4631 0.94445 0.31056 0.0
C372 C 0.49168 0.93571 0.31207 0.0
C373 C 0.47191 0.98172 0.30955 0.0
C374 C 0.52925 0.96452 0.31103 0.0
C375 C 0.53824 0.00168 0.30983 0.0
H376 H 0.41709 0.45622 0.62103 0.0
H377 H 0.48806 0.57601 0.62004 0.0
H378 H 0.54347 0.56926 0.61796 0.0
H379 H 0.57126 0.52952 0.6235 0.0
H380 H 0.50026 0.40979 0.62751 0.0
H381 H 0.44495 0.41636 0.62091 0.0
C382 C 0.44467 0.48089 0.61992 0.0
C383 C 0.4486 0.51658 0.62122 0.0
C384 C 0.47621 0.47679 0.61953 0.0
C385 C 0.48441 0.54826 0.6193 0.0
C386 C 0.51604 0.54441 0.61825 0.0
C387 C 0.5437 0.5048 0.62254 0.0
C388 C 0.53971 0.46923 0.62654 0.0
C389 C 0.5122 0.50883 0.61948 0.0
C390 C 0.50395 0.43747 0.62474 0.0
C391 C 0.47237 0.44122 0.62108 0.0
H392 H 0.9601 0.42514 0.97332 0.0
H393 H 0.90438 0.48958 0.97542 0.0
H394 H 0.96486 0.54731 0.97411 0.0
H395 H 0.03334 0.57918 0.9763 0.0
H396 H 0.08887 0.51454 0.97516 0.0
H397 H 0.02843 0.45695 0.9721 0.0
C398 C 0.96114 0.4518 0.97315 0.0
C399 C 0.92787 0.45314 0.97469 0.0
C400 C -0.00411 0.48474 0.97283 0.0
C401 C 0.92964 0.48786 0.97429 0.0
C402 C 0.96419 0.52084 0.97368 0.0
C403 C 0.03223 0.5525 0.97518 0.0
C404 C 0.06546 0.55106 0.97623 0.0
C405 C -0.00255 0.51958 0.9736 0.0
C406 C 0.06364 0.51634 0.97449 0.0
C407 C 0.02912 0.48343 0.97279 0.0
H408 H 0.06676 0.54709 0.40007 0.0
H409 H 0.02932 0.43087 0.37718 0.0
H410 H 0.96425 0.416 0.38075 0.0
H411 H 0.91812 0.43661 0.38749 0.0
H412 H 0.95631 0.55326 0.40843 0.0
H413 H 0.02101 0.56731 0.40885 0.0
C414 C 0.04437 0.51848 0.39602 0.0
C415 C 0.05276 0.49018 0.38818 0.0
C416 C 0.00718 0.5102 0.39779 0.0
C417 C 0.02351 0.45321 0.38309 0.0
C418 C 0.98632 0.44467 0.38515 0.0
C419 C 0.94063 0.465 0.39255 0.0
C420 C 0.93256 0.49385 0.39777 0.0
C421 C 0.97784 0.47301 0.39211 0.0
C422 C 0.96189 0.53059 0.40408 0.0
C423 C -0.00111 0.53868 0.40432 0.0
H424 H 0.57019 0.02837 0.74963 0.0
H425 H 0.50311 0.08037 0.76742 0.0
H426 H 0.44624 0.01936 0.76469 0.0
H427 H 0.41579 0.95232 0.75161 0.0
H428 H 0.48243 0.90005 0.73265 0.0
H429 H 0.53961 0.96042 0.74174 0.0
C430 C 0.54314 0.02634 0.75335 0.0
C431 C 0.54076 0.0588 0.7583 0.0
C432 C 0.51064 0.9913 0.75123 0.0
C433 C 0.50561 0.05576 0.76342 0.0
C434 C 0.47312 0.02094 0.76171 0.0
C435 C 0.44283 0.95407 0.74967 0.0
C436 C 0.44503 0.92197 0.74095 0.0
C437 C 0.47534 0.98869 0.75468 0.0
C438 C 0.48013 0.92449 0.73915 0.0
C439 C 0.51276 0.95895 0.74426 0.0
H440 H 0.5235 0.5639 0.09517 0.0
H441 H 0.404 0.49367 0.08069 0.0
H442 H 0.41042 0.43819 0.08374 0.0
H443 H 0.45053 0.4106 0.08372 0.0
H444 H 0.5703 0.48115 0.09489 0.0
H445 H 0.56315 0.53609 0.10013 0.0
C446 C 0.49876 0.53645 0.09306 0.0
C447 C 0.46336 0.53274 0.08716 0.0
C448 C 0.50277 0.505 0.09392 0.0
C449 C 0.43154 0.4971 0.08502 0.0
C450 C 0.43523 0.46548 0.0866 0.0
C451 C 0.47511 0.43796 0.0876 0.0
C452 C 0.51095 0.44201 0.08837 0.0
C453 C 0.47081 0.46924 0.08992 0.0
C454 C 0.54246 0.47748 0.09392 0.0
C455 C 0.53839 0.50882 0.09686 0.0
H456 H 0.46987 0.16913 0.20794 0.0
H457 H 0.47387 0.23654 0.31472 0.0
H458 H 0.46943 0.2803 0.266 0.0
H459 H 0.47349 0.30342 0.19304 0.0
H460 H 0.4702 0.23641 0.08616 0.0
H461 H 0.46463 0.18786 0.13504 0.0
C462 C 0.46905 0.19306 0.22065 0.0
C463 C 0.47262 0.19988 0.26493 0.0
C464 C 0.46693 0.21815 0.19239 0.0
C465 C 0.47107 0.23066 0.28093 0.0
C466 C 0.46883 0.25577 0.25299 0.0
C467 C 0.47077 0.27782 0.18033 0.0
C468 C 0.47293 0.27378 0.13594 0.0
C469 C 0.46806 0.25041 0.20866 0.0
C470 C 0.46882 0.24031 0.12002 0.0
C471 C 0.46591 0.2127 0.14806 0.0
H472 H 0.1708 0.47787 0.50806 0.0
H473 H 0.23333 0.47586 0.39915 0.0
H474 H 0.27993 0.47508 0.44639 0.0
H475 H 0.3061 0.48154 0.51829 0.0
H476 H 0.24322 0.48179 0.62759 0.0
H477 H 0.19314 0.47601 0.58063 0.0
C478 C 0.19435 0.4767 0.49459 0.0
C479 C 0.19881 0.47754 0.4499 0.0
C480 C 0.22096 0.47604 0.52209 0.0
C481 C 0.22924 0.47551 0.43319 0.0
C482 C 0.25598 0.47518 0.46028 0.0
C483 C 0.28109 0.47962 0.53195 0.0
C484 C 0.27855 0.48239 0.5765 0.0
C485 C 0.2526 0.4764 0.50471 0.0
C486 C 0.24587 0.47958 0.59361 0.0
C487 C 0.21739 0.47659 0.56664 0.0
H488 H 0.8189 0.30726 0.86377 0.0
H489 H 0.76414 0.24601 0.97733 0.0
H490 H 0.7185 0.19384 0.93393 0.0
H491 H 0.68999 0.16909 0.86396 0.0
H492 H 0.74655 0.22809 0.75 0.0
H493 H 0.79607 0.27748 0.7932 0.0
C494 C 0.79735 0.28218 0.879 0.0
C495 C 0.7946 0.28073 0.92381 0.0
C496 C 0.77143 0.25209 0.85374 0.0
C497 C 0.76686 0.24792 0.94306 0.0
C498 C 0.74064 0.21814 0.91818 0.0
C499 C 0.71356 0.1924 0.84846 0.0
C500 C 0.71396 0.1954 0.80372 0.0
C501 C 0.74205 0.2204 0.87354 0.0
C502 C 0.74507 0.22536 0.78424 0.0
C503 C 0.77336 0.25369 0.80903 0.0
H504 H 0.49466 0.73677 0.1008 0.0
H505 H 0.5123 0.66681 0.18723 0.0
H506 H 0.51917 0.70785 0.2466 0.0
H507 H 0.51053 0.75868 0.27607 0.0
H508 H 0.49108 0.82728 0.18896 0.0
H509 H 0.49488 0.79251 0.12883 0.0
C510 C 0.5015 0.73143 0.1323 0.0
C511 C 0.50329 0.69897 0.13942 0.0
C512 C 0.50423 0.75463 0.16685 0.0
C513 C 0.51111 0.69185 0.1808 0.0
C514 C 0.51467 0.71514 0.21498 0.0
C515 C 0.50805 0.76652 0.24391 0.0
C516 C 0.50001 0.79532 0.23741 0.0
C517 C 0.5098 0.74587 0.2088 0.0
C518 C 0.49671 0.8049 0.19527 0.0
C519 C 0.49892 0.78501 0.16055 0.0
H520 H 0.68299 0.50784 0.52947 0.0
H521 H 0.7442 0.50295 0.63762 0.0
H522 H 0.7945 0.50958 0.59029 0.0
H523 H 0.81691 0.50896 0.51746 0.0
H524 H 0.75637 0.51584 0.40964 0.0
H525 H 0.70998 0.51658 0.45756 0.0
C526 C 0.70776 0.50904 0.54278 0.0
C527 C 0.70981 0.50465 0.587 0.0
C528 C 0.73635 0.51276 0.51535 0.0
C529 C 0.74207 0.50649 0.60384 0.0
C530 C 0.77063 0.50993 0.57667 0.0
C531 C 0.79388 0.51126 0.50444 0.0
C532 C 0.78974 0.51165 0.45987 0.0
C533 C 0.76748 0.51191 0.53228 0.0
C534 C 0.7601 0.51519 0.44362 0.0
C535 C 0.7335 0.51548 0.47108 0.0
H536 H 0.16791 0.69036 0.85847 0.0
H537 H 0.22994 0.75825 0.96567 0.0
H538 H 0.27504 0.80579 0.91724 0.0
H539 H 0.30094 0.82405 0.84463 0.0
H540 H 0.23637 0.75896 0.73718 0.0
H541 H 0.1878 0.71457 0.78537 0.0
C542 C 0.1909 0.71592 0.87128 0.0
C543 C 0.19602 0.72025 0.91582 0.0
C544 C 0.21637 0.74346 0.84311 0.0
C545 C 0.22556 0.75383 0.93175 0.0
C546 C 0.25143 0.78101 0.90396 0.0
C547 C 0.27579 0.8006 0.83167 0.0
C548 C 0.27271 0.79443 0.78726 0.0
C549 C 0.24776 0.77554 0.85964 0.0
C550 C 0.23976 0.76422 0.77104 0.0
C551 C 0.21203 0.73873 0.79871 0.0
loop_
_geom_bond_atom_site_label_1
_geom_bond_atom_site_label_2
_geom_bond_distance
_geom_bond_site_symmetry_2
_ccdc_geom_bond_type
Co0 O1 2.216 . S
Co0 O2 2.091 . S
Co0 O4 2.004 . S
Co0 O10 2.021 . S
Co0 O12 2.137 . S
Co0 O13 2.244 . S
O1 Co0 2.216 . S
O1 C8 1.247 . S
O2 Co0 2.091 . S
O2 C8 1.261 . S
C3 O12 1.247 . S
C3 O13 1.272 . S
O4 Co0 2.004 . S
O4 C9 1.259 . S
Co5 O6 2.061 . S
Co5 O11 2.052 . S
Co5 O13 2.135 . S
O6 Co5 2.061 . S
O6 C9 1.235 . S
C7 O10 1.238 . S
C7 O11 1.241 . S
C8 O1 1.247 . S
C8 O2 1.261 . S
C9 O4 1.259 . S
C9 O6 1.235 . S
O10 Co0 2.021 . S
O10 C7 1.238 . S
O11 Co5 2.052 . S
O11 C7 1.241 . S
O12 Co0 2.137 . S
O12 C3 1.247 . S
O13 Co0 2.244 . S
O13 C3 1.272 . S
O13 Co5 2.135 . S
Co14 O15 2.216 . S
Co14 O16 2.091 . S
Co14 O18 2.004 . S
Co14 O24 2.021 . S
Co14 O26 2.137 . S
Co14 O27 2.244 . S
O15 Co14 2.216 . S
O15 C22 1.247 . S
O16 Co14 2.091 . S
O16 C22 1.261 . S
C17 O26 1.247 . S
C17 O27 1.272 . S
O18 Co14 2.004 . S
O18 C23 1.259 . S
Co19 O20 2.061 . S
Co19 O25 2.052 . S
Co19 O27 2.135 . S
O20 Co19 2.061 . S
O20 C23 1.235 . S
C21 O24 1.238 . S
C21 O25 1.241 . S
C22 O15 1.247 . S
C22 O16 1.261 . S
C23 O18 1.259 . S
C23 O20 1.235 . S
O24 Co14 2.021 . S
O24 C21 1.238 . S
O25 Co19 2.052 . S
O25 C21 1.241 . S
O26 Co14 2.137 . S
O26 C17 1.247 . S
O27 Co14 2.244 . S
O27 C17 1.272 . S
O27 Co19 2.135 . S
Co28 O29 2.216 . S
Co28 O30 2.091 . S
Co28 O32 2.004 . S
Co28 O38 2.021 1_556 S
Co28 O40 2.137 . S
Co28 O41 2.244 . S
O29 Co28 2.216 . S
O29 C36 1.247 . S
O30 Co28 2.091 . S
O30 C36 1.261 . S
C31 O40 1.247 . S
C31 O41 1.272 . S
O32 Co28 2.004 . S
O32 C37 1.259 . S
Co33 O34 2.061 . S
Co33 O39 2.052 . S
Co33 O41 2.135 1_554 S
O34 Co33 2.061 . S
O34 C37 1.235 1_554 S
C35 O38 1.238 . S
C35 O39 1.241 . S
C36 O29 1.247 . S
C36 O30 1.261 . S
C37 O32 1.259 . S
C37 O34 1.235 1_556 S
O38 Co28 2.021 1_554 S
O38 C35 1.238 . S
O39 Co33 2.052 . S
O39 C35 1.241 . S
O40 Co28 2.137 . S
O40 C31 1.247 . S
O41 Co28 2.244 . S
O41 C31 1.272 . S
O41 Co33 2.135 1_556 S
Co42 O43 2.216 . S
Co42 O44 2.091 . S
Co42 O46 2.004 . S
Co42 O52 2.021 . S
Co42 O54 2.137 . S
Co42 O55 2.244 . S
O43 Co42 2.216 . S
O43 C50 1.247 . S
O44 Co42 2.091 . S
O44 C50 1.261 . S
C45 O54 1.247 . S
C45 O55 1.272 . S
O46 Co42 2.004 . S
O46 C51 1.259 . S
Co47 O48 2.061 . S
Co47 O53 2.052 . S
Co47 O55 2.135 . S
O48 Co47 2.061 . S
O48 C51 1.235 . S
C49 O52 1.238 . S
C49 O53 1.241 . S
C50 O43 1.247 . S
C50 O44 1.261 . S
C51 O46 1.259 . S
C51 O48 1.235 . S
O52 Co42 2.021 . S
O52 C49 1.238 . S
O53 Co47 2.052 . S
O53 C49 1.241 . S
O54 Co42 2.137 . S
O54 C45 1.247 . S
O55 Co42 2.244 . S
O55 C45 1.272 . S
O55 Co47 2.135 . S
Co56 O57 2.216 . S
Co56 O58 2.091 . S
Co56 O60 2.004 . S
Co56 O66 2.021 . S
Co56 O68 2.137 . S
Co56 O69 2.244 . S
O57 Co56 2.216 . S
O57 C64 1.247 . S
O58 Co56 2.091 . S
O58 C64 1.261 . S
C59 O68 1.247 . S
C59 O69 1.272 . S
O60 Co56 2.004 . S
O60 C65 1.259 . S
Co61 O62 2.061 . S
Co61 O67 2.052 . S
Co61 O69 2.135 . S
O62 Co61 2.061 . S
O62 C65 1.235 . S
C63 O66 1.238 . S
C63 O67 1.241 . S
C64 O57 1.247 . S
C64 O58 1.261 . S
C65 O60 1.259 . S
C65 O62 1.235 . S
O66 Co56 2.021 . S
O66 C63 1.238 . S
O67 Co61 2.052 . S
O67 C63 1.241 . S
O68 Co56 2.137 . S
O68 C59 1.247 . S
O69 Co56 2.244 . S
O69 C59 1.272 . S
O69 Co61 2.135 . S
Co70 O71 2.216 . S
Co70 O72 2.091 . S
Co70 O74 2.004 . S
Co70 O80 2.021 1_556 S
Co70 O82 2.137 . S
Co70 O83 2.244 . S
O71 Co70 2.216 . S
O71 C78 1.247 . S
O72 Co70 2.091 . S
O72 C78 1.261 . S
C73 O82 1.247 . S
C73 O83 1.272 . S
O74 Co70 2.004 . S
O74 C79 1.259 . S
Co75 O76 2.061 . S
Co75 O81 2.052 . S
Co75 O83 2.135 1_554 S
O76 Co75 2.061 . S
O76 C79 1.235 1_554 S
C77 O80 1.238 . S
C77 O81 1.241 . S
C78 O71 1.247 . S
C78 O72 1.261 . S
C79 O74 1.259 . S
C79 O76 1.235 1_556 S
O80 Co70 2.021 1_554 S
O80 C77 1.238 . S
O81 Co75 2.052 . S
O81 C77 1.241 . S
O82 Co70 2.137 . S
O82 C73 1.247 . S
O83 Co70 2.244 . S
O83 C73 1.272 . S
O83 Co75 2.135 1_556 S
Co84 O85 2.216 . S
Co84 O86 2.091 . S
Co84 O88 2.004 . S
Co84 O94 2.021 . S
Co84 O96 2.137 . S
Co84 O97 2.244 . S
O85 Co84 2.216 . S
O85 C92 1.247 . S
O86 Co84 2.091 . S
O86 C92 1.261 . S
C87 O96 1.247 . S
C87 O97 1.272 . S
O88 Co84 2.004 . S
O88 C93 1.259 . S
Co89 O90 2.061 . S
Co89 O95 2.052 . S
Co89 O97 2.135 . S
O90 Co89 2.061 . S
O90 C93 1.235 . S
C91 O94 1.238 . S
C91 O95 1.241 . S
C92 O85 1.247 . S
C92 O86 1.261 . S
C93 O88 1.259 . S
C93 O90 1.235 . S
O94 Co84 2.021 . S
O94 C91 1.238 . S
O95 Co89 2.052 . S
O95 C91 1.241 . S
O96 Co84 2.137 . S
O96 C87 1.247 . S
O97 Co84 2.244 . S
O97 C87 1.272 . S
O97 Co89 2.135 . S
Co98 O99 2.216 . S
Co98 O100 2.091 . S
Co98 O102 2.004 . S
Co98 O108 2.021 . S
Co98 O110 2.137 . S
Co98 O111 2.244 . S
O99 Co98 2.216 . S
O99 C106 1.247 . S
O100 Co98 2.091 . S
O100 C106 1.261 . S
C101 O110 1.247 . S
C101 O111 1.272 . S
O102 Co98 2.004 . S
O102 C107 1.259 . S
Co103 O104 2.061 . S
Co103 O109 2.052 . S
Co103 O111 2.135 . S
O104 Co103 2.061 . S
O104 C107 1.235 . S
C105 O108 1.238 . S
C105 O109 1.241 . S
C106 O99 1.247 . S
C106 O100 1.261 . S
C107 O102 1.259 . S
C107 O104 1.235 . S
O108 Co98 2.021 . S
O108 C105 1.238 . S
O109 Co103 2.052 . S
O109 C105 1.241 . S
O110 Co98 2.137 . S
O110 C101 1.247 . S
O111 Co98 2.244 . S
O111 C101 1.272 . S
O111 Co103 2.135 . S
Co112 O113 2.216 . S
Co112 O114 2.091 . S
Co112 O116 2.004 . S
Co112 O122 2.021 1_554 S
Co112 O124 2.137 . S
Co112 O125 2.244 . S
O113 Co112 2.216 . S
O113 C120 1.247 . S
O114 Co112 2.091 . S
O114 C120 1.261 . S
C115 O124 1.247 . S
C115 O125 1.272 . S
O116 Co112 2.004 . S
O116 C121 1.259 . S
Co117 O118 2.061 1_556 S
Co117 O123 2.052 . S
Co117 O125 2.135 1_556 S
O118 Co117 2.061 1_554 S
O118 C121 1.235 . S
C119 O122 1.238 . S
C119 O123 1.241 . S
C120 O113 1.247 . S
C120 O114 1.261 . S
C121 O116 1.259 . S
C121 O118 1.235 . S
O122 Co112 2.021 1_556 S
O122 C119 1.238 . S
O123 Co117 2.052 . S
O123 C119 1.241 . S
O124 Co112 2.137 . S
O124 C115 1.247 . S
O125 Co112 2.244 . S
O125 C115 1.272 . S
O125 Co117 2.135 1_554 S
Co126 O127 2.216 . S
Co126 O128 2.091 . S
Co126 O130 2.004 . S
Co126 O136 2.021 . S
Co126 O138 2.137 . S
Co126 O139 2.244 . S
O127 Co126 2.216 . S
O127 C134 1.247 . S
O128 Co126 2.091 . S
O128 C134 1.261 . S
C129 O138 1.247 . S
C129 O139 1.272 . S
O130 Co126 2.004 . S
O130 C135 1.259 . S
Co131 O132 2.061 . S
Co131 O137 2.052 . S
Co131 O139 2.135 . S
O132 Co131 2.061 . S
O132 C135 1.235 . S
C133 O136 1.238 . S
C133 O137 1.241 . S
C134 O127 1.247 . S
C134 O128 1.261 . S
C135 O130 1.259 . S
C135 O132 1.235 . S
O136 Co126 2.021 . S
O136 C133 1.238 . S
O137 Co131 2.052 . S
O137 C133 1.241 . S
O138 Co126 2.137 . S
O138 C129 1.247 . S
O139 Co126 2.244 . S
O139 C129 1.272 . S
O139 Co131 2.135 . S
Co140 O141 2.216 . S
Co140 O142 2.091 . S
Co140 O144 2.004 . S
Co140 O150 2.021 . S
Co140 O152 2.137 . S
Co140 O153 2.244 . S
O141 Co140 2.216 . S
O141 C148 1.247 . S
O142 Co140 2.091 . S
O142 C148 1.261 . S
C143 O152 1.247 . S
C143 O153 1.272 . S
O144 Co140 2.004 . S
O144 C149 1.259 . S
Co145 O146 2.061 . S
Co145 O151 2.052 . S
Co145 O153 2.135 . S
O146 Co145 2.061 . S
O146 C149 1.235 . S
C147 O150 1.238 . S
C147 O151 1.241 . S
C148 O141 1.247 . S
C148 O142 1.261 . S
C149 O144 1.259 . S
C149 O146 1.235 . S
O150 Co140 2.021 . S
O150 C147 1.238 . S
O151 Co145 2.052 . S
O151 C147 1.241 . S
O152 Co140 2.137 . S
O152 C143 1.247 . S
O153 Co140 2.244 . S
O153 C143 1.272 . S
O153 Co145 2.135 . S
Co154 O155 2.216 . S
Co154 O156 2.091 . S
Co154 O158 2.004 . S
Co154 O164 2.021 1_554 S
Co154 O166 2.137 . S
Co154 O167 2.244 . S
O155 Co154 2.216 . S
O155 C162 1.247 . S
O156 Co154 2.091 . S
O156 C162 1.261 . S
C157 O166 1.247 . S
C157 O167 1.272 . S
O158 Co154 2.004 . S
O158 C163 1.259 . S
Co159 O160 2.061 1_556 S
Co159 O165 2.052 . S
Co159 O167 2.135 1_556 S
O160 Co159 2.061 1_554 S
O160 C163 1.235 . S
C161 O164 1.238 . S
C161 O165 1.241 . S
C162 O155 1.247 . S
C162 O156 1.261 . S
C163 O158 1.259 . S
C163 O160 1.235 . S
O164 Co154 2.021 1_556 S
O164 C161 1.238 . S
O165 Co159 2.052 . S
O165 C161 1.241 . S
O166 Co154 2.137 . S
O166 C157 1.247 . S
O167 Co154 2.244 . S
O167 C157 1.272 . S
O167 Co159 2.135 1_554 S
H168 C174 0.930 . S
H169 C177 0.930 . S
H170 C178 0.930 . S
H171 C179 0.930 . S
H172 C182 0.930 . S
H173 C183 0.930 . S
C174 H168 0.930 . S
C174 C175 1.355 . S
C174 C176 1.415 . S
C175 C174 1.355 . S
C175 C177 1.419 . S
C176 C174 1.415 . S
C176 C181 1.425 . S
C176 C183 1.409 . S
C177 H169 0.930 . S
C177 C175 1.419 . S
C177 C178 1.362 . S
C178 H170 0.930 . S
C178 C177 1.362 . S
C178 C181 1.409 . S
C179 H171 0.930 . S
C179 C180 1.355 . S
C179 C181 1.415 . S
C180 C179 1.355 . S
C180 C182 1.419 . S
C181 C176 1.425 . S
C181 C178 1.409 . S
C181 C179 1.415 . S
C182 H172 0.930 . S
C182 C180 1.419 . S
C182 C183 1.362 . S
C183 H173 0.930 . S
C183 C176 1.409 . S
C183 C182 1.362 . S
H184 C190 0.930 . S
H185 C193 0.930 . S
H186 C194 0.930 . S
H187 C195 0.930 . S
H188 C198 0.930 . S
H189 C199 0.930 . S
C190 H184 0.930 . S
C190 C191 1.355 . S
C190 C192 1.415 . S
C191 C190 1.355 . S
C191 C193 1.419 . S
C192 C190 1.415 . S
C192 C197 1.425 . S
C192 C199 1.409 . S
C193 H185 0.930 . S
C193 C191 1.419 . S
C193 C194 1.362 . S
C194 H186 0.930 . S
C194 C193 1.362 . S
C194 C197 1.409 . S
C195 H187 0.930 . S
C195 C196 1.355 . S
C195 C197 1.415 . S
C196 C195 1.355 . S
C196 C198 1.419 . S
C197 C192 1.425 . S
C197 C194 1.409 . S
C197 C195 1.415 . S
C198 H188 0.930 . S
C198 C196 1.419 . S
C198 C199 1.362 . S
C199 H189 0.930 . S
C199 C192 1.409 . S
C199 C198 1.362 . S
H200 C206 0.930 . S
H201 C209 0.930 . S
H202 C210 0.930 . S
H203 C211 0.930 . S
H204 C214 0.930 . S
H205 C215 0.930 . S
C206 H200 0.930 . S
C206 C207 1.355 . S
C206 C208 1.415 . S
C207 C206 1.355 . S
C207 C209 1.419 . S
C208 C206 1.415 . S
C208 C213 1.425 . S
C208 C215 1.409 . S
C209 H201 0.930 . S
C209 C207 1.419 . S
C209 C210 1.362 . S
C210 H202 0.930 . S
C210 C209 1.362 . S
C210 C213 1.409 . S
C211 H203 0.930 . S
C211 C212 1.355 . S
C211 C213 1.415 . S
C212 C211 1.355 . S
C212 C214 1.419 . S
C213 C208 1.425 . S
C213 C210 1.409 . S
C213 C211 1.415 . S
C214 H204 0.930 . S
C214 C212 1.419 . S
C214 C215 1.362 . S
C215 H205 0.930 . S
C215 C208 1.409 . S
C215 C214 1.362 . S
H216 C222 0.930 . S
H217 C225 0.930 . S
H218 C226 0.930 . S
H219 C227 0.930 . S
H220 C230 0.930 . S
H221 C231 0.930 . S
C222 H216 0.930 . S
C222 C223 1.355 . S
C222 C224 1.415 . S
C223 C222 1.355 . S
C223 C225 1.419 . S
C224 C222 1.415 . S
C224 C229 1.425 . S
C224 C231 1.409 . S
C225 H217 0.930 . S
C225 C223 1.419 . S
C225 C226 1.362 . S
C226 H218 0.930 . S
C226 C225 1.362 . S
C226 C229 1.409 . S
C227 H219 0.930 . S
C227 C228 1.355 . S
C227 C229 1.415 . S
C228 C227 1.355 . S
C228 C230 1.419 . S
C229 C224 1.425 . S
C229 C226 1.409 . S
C229 C227 1.415 . S
C230 H220 0.930 . S
C230 C228 1.419 . S
C230 C231 1.362 . S
C231 H221 0.930 . S
C231 C224 1.409 . S
C231 C230 1.362 . S
H232 C238 0.930 . S
H233 C241 0.930 . S
H234 C242 0.930 . S
H235 C243 0.930 . S
H236 C246 0.930 . S
H237 C247 0.930 . S
C238 H232 0.930 . S
C238 C239 1.355 . S
C238 C240 1.415 . S
C239 C238 1.355 . S
C239 C241 1.419 . S
C240 C238 1.415 . S
C240 C245 1.425 . S
C240 C247 1.409 . S
C241 H233 0.930 . S
C241 C239 1.419 . S
C241 C242 1.362 . S
C242 H234 0.930 . S
C242 C241 1.362 . S
C242 C245 1.409 . S
C243 H235 0.930 . S
C243 C244 1.355 . S
C243 C245 1.415 . S
C244 C243 1.355 . S
C244 C246 1.419 . S
C245 C240 1.425 . S
C245 C242 1.409 . S
C245 C243 1.415 . S
C246 H236 0.930 . S
C246 C244 1.419 . S
C246 C247 1.362 . S
C247 H237 0.930 . S
C247 C240 1.409 . S
C247 C246 1.362 . S
H248 C254 0.930 . S
H249 C257 0.930 . S
H250 C258 0.930 . S
H251 C259 0.930 . S
H252 C262 0.930 . S
H253 C263 0.930 . S
C254 H248 0.930 . S
C254 C255 1.355 . S
C254 C256 1.415 . S
C255 C254 1.355 . S
C255 C257 1.419 . S
C256 C254 1.415 . S
C256 C261 1.425 . S
C256 C263 1.409 . S
C257 H249 0.930 . S
C257 C255 1.419 . S
C257 C258 1.362 . S
C258 H250 0.930 . S
C258 C257 1.362 . S
C258 C261 1.409 . S
C259 H251 0.930 . S
C259 C260 1.355 . S
C259 C261 1.415 . S
C260 C259 1.355 . S
C260 C262 1.419 . S
C261 C256 1.425 . S
C261 C258 1.409 . S
C261 C259 1.415 . S
C262 H252 0.930 . S
C262 C260 1.419 . S
C262 C263 1.362 . S
C263 H253 0.930 . S
C263 C256 1.409 . S
C263 C262 1.362 . S
H264 C270 0.930 . S
H265 C273 0.930 . S
H266 C274 0.930 . S
H267 C275 0.930 . S
H268 C278 0.930 . S
H269 C279 0.930 . S
C270 H264 0.930 . S
C270 C271 1.355 . S
C270 C272 1.415 . S
C271 C270 1.355 . S
C271 C273 1.419 . S
C272 C270 1.415 . S
C272 C277 1.425 . S
C272 C279 1.409 . S
C273 H265 0.930 . S
C273 C271 1.419 . S
C273 C274 1.362 . S
C274 H266 0.930 . S
C274 C273 1.362 . S
C274 C277 1.409 . S
C275 H267 0.930 . S
C275 C276 1.355 . S
C275 C277 1.415 . S
C276 C275 1.355 . S
C276 C278 1.419 . S
C277 C272 1.425 . S
C277 C274 1.409 . S
C277 C275 1.415 . S
C278 H268 0.930 . S
C278 C276 1.419 . S
C278 C279 1.362 . S
C279 H269 0.930 . S
C279 C272 1.409 . S
C279 C278 1.362 . S
H280 C286 0.930 . S
H281 C289 0.930 . S
H282 C290 0.930 . S
H283 C291 0.930 . S
H284 C294 0.930 . S
H285 C295 0.930 . S
C286 H280 0.930 . S
C286 C287 1.355 . S
C286 C288 1.415 . S
C287 C286 1.355 . S
C287 C289 1.419 . S
C288 C286 1.415 . S
C288 C293 1.425 . S
C288 C295 1.409 . S
C289 H281 0.930 . S
C289 C287 1.419 . S
C289 C290 1.362 . S
C290 H282 0.930 . S
C290 C289 1.362 . S
C290 C293 1.409 . S
C291 H283 0.930 . S
C291 C292 1.355 . S
C291 C293 1.415 . S
C292 C291 1.355 . S
C292 C294 1.419 . S
C293 C288 1.425 . S
C293 C290 1.409 . S
C293 C291 1.415 . S
C294 H284 0.930 . S
C294 C292 1.419 . S
C294 C295 1.362 . S
C295 H285 0.930 . S
C295 C288 1.409 . S
C295 C294 1.362 . S
H296 C302 0.935 . S
H297 C305 0.930 . S
H298 C306 0.930 . S
H299 C307 0.930 . S
H300 C310 0.930 . S
H301 C311 0.930 . S
C302 H296 0.935 . S
C302 C303 1.349 1_556 S
C302 C304 1.416 . S
C303 C302 1.349 1_554 S
C303 C305 1.419 . S
C304 C302 1.416 . S
C304 C309 1.425 1_556 S
C304 C311 1.409 . S
C305 H297 0.930 . S
C305 C303 1.419 . S
C305 C306 1.362 . S
C306 H298 0.930 . S
C306 C305 1.362 . S
C306 C309 1.409 . S
C307 H299 0.930 . S
C307 C308 1.355 1_554 S
C307 C309 1.415 . S
C308 C307 1.355 1_556 S
C308 C310 1.419 . S
C309 C304 1.425 1_554 S
C309 C306 1.409 . S
C309 C307 1.415 . S
C310 H300 0.930 . S
C310 C308 1.419 . S
C310 C311 1.362 . S
C311 H301 0.930 . S
C311 C304 1.409 . S
C311 C310 1.362 . S
H312 C318 0.930 . S
H313 C321 0.930 . S
H314 C322 0.930 . S
H315 C323 0.930 . S
H316 C326 0.930 . S
H317 C327 0.930 . S
C318 H312 0.930 . S
C318 C319 1.355 . S
C318 C320 1.415 . S
C319 C318 1.355 . S
C319 C321 1.419 . S
C320 C318 1.415 . S
C320 C325 1.425 . S
C320 C327 1.409 . S
C321 H313 0.930 . S
C321 C319 1.419 . S
C321 C322 1.362 . S
C322 H314 0.930 . S
C322 C321 1.362 . S
C322 C325 1.409 . S
C323 H315 0.930 . S
C323 C324 1.355 . S
C323 C325 1.415 . S
C324 C323 1.355 . S
C324 C326 1.419 . S
C325 C320 1.425 . S
C325 C322 1.409 . S
C325 C323 1.415 . S
C326 H316 0.930 . S
C326 C324 1.419 . S
C326 C327 1.362 . S
C327 H317 0.930 . S
C327 C320 1.409 . S
C327 C326 1.362 . S
H328 C334 0.930 . S
H329 C337 0.930 . S
H330 C338 0.930 . S
H331 C339 0.930 . S
H332 C342 0.930 . S
H333 C343 0.930 . S
C334 H328 0.930 . S
C334 C335 1.355 . S
C334 C336 1.415 . S
C335 C334 1.355 . S
C335 C337 1.419 . S
C336 C334 1.415 . S
C336 C341 1.425 . S
C336 C343 1.409 . S
C337 H329 0.930 . S
C337 C335 1.419 . S
C337 C338 1.362 . S
C338 H330 0.930 . S
C338 C337 1.362 . S
C338 C341 1.409 . S
C339 H331 0.930 . S
C339 C340 1.355 . S
C339 C341 1.415 . S
C340 C339 1.355 . S
C340 C342 1.419 . S
C341 C336 1.425 . S
C341 C338 1.409 . S
C341 C339 1.415 . S
C342 H332 0.930 . S
C342 C340 1.419 . S
C342 C343 1.362 . S
C343 H333 0.930 . S
C343 C336 1.409 . S
C343 C342 1.362 . S
H344 C350 0.930 . S
H345 C353 0.930 . S
H346 C354 0.930 . S
H347 C355 0.930 . S
H348 C358 0.930 . S
H349 C359 0.930 . S
C350 H344 0.930 . S
C350 C351 1.355 . S
C350 C352 1.415 . S
C351 C350 1.355 . S
C351 C353 1.419 1_556 S
C352 C350 1.415 . S
C352 C357 1.425 1_556 S
C352 C359 1.409 . S
C353 H345 0.930 . S
C353 C351 1.419 1_554 S
C353 C354 1.362 . S
C354 H346 0.930 . S
C354 C353 1.362 . S
C354 C357 1.409 . S
C355 H347 0.930 . S
C355 C356 1.355 . S
C355 C357 1.415 . S
C356 C355 1.355 . S
C356 C358 1.419 1_554 S
C357 C352 1.425 1_554 S
C357 C354 1.409 . S
C357 C355 1.415 . S
C358 H348 0.930 . S
C358 C356 1.419 1_556 S
C358 C359 1.362 . S
C359 H349 0.930 . S
C359 C352 1.409 . S
C359 C358 1.362 . S
H360 C366 0.930 . S
H361 C369 0.930 . S
H362 C370 0.927 1_565 S
H363 C371 0.930 . S
H364 C374 0.930 . S
H365 C375 0.927 1_545 S
C366 H360 0.930 . S
C366 C367 1.355 . S
C366 C368 1.415 . S
C367 C366 1.355 . S
C367 C369 1.419 . S
C368 C366 1.415 . S
C368 C373 1.425 1_545 S
C368 C375 1.398 1_545 S
C369 H361 0.930 . S
C369 C367 1.419 . S
C369 C370 1.377 . S
C370 H362 0.927 1_545 S
C370 C369 1.377 . S
C370 C373 1.398 1_545 S
C371 H363 0.930 . S
C371 C372 1.355 . S
C371 C373 1.415 . S
C372 C371 1.355 . S
C372 C374 1.419 . S
C373 C368 1.425 1_565 S
C373 C370 1.398 1_565 S
C373 C371 1.415 . S
C374 H364 0.930 . S
C374 C372 1.419 . S
C374 C375 1.377 . S
C375 H365 0.927 1_565 S
C375 C368 1.398 1_565 S
C375 C374 1.377 . S
H376 C382 0.930 . S
H377 C385 0.930 . S
H378 C386 0.930 . S
H379 C387 0.930 . S
H380 C390 0.930 . S
H381 C391 0.930 . S
C382 H376 0.930 . S
C382 C383 1.355 . S
C382 C384 1.415 . S
C383 C382 1.355 . S
C383 C385 1.419 . S
C384 C382 1.415 . S
C384 C389 1.425 . S
C384 C391 1.409 . S
C385 H377 0.930 . S
C385 C383 1.419 . S
C385 C386 1.362 . S
C386 H378 0.930 . S
C386 C385 1.362 . S
C386 C389 1.409 . S
C387 H379 0.930 . S
C387 C388 1.355 . S
C387 C389 1.415 . S
C388 C387 1.355 . S
C388 C390 1.419 . S
C389 C384 1.425 . S
C389 C386 1.409 . S
C389 C387 1.415 . S
C390 H380 0.930 . S
C390 C388 1.419 . S
C390 C391 1.362 . S
C391 H381 0.930 . S
C391 C384 1.409 . S
C391 C390 1.362 . S
H392 C398 0.930 . S
H393 C401 0.930 . S
H394 C402 0.930 . S
H395 C403 0.930 . S
H396 C406 0.930 . S
H397 C407 0.930 . S
C398 H392 0.930 . S
C398 C399 1.355 . S
C398 C400 1.415 1_655 S
C399 C398 1.355 . S
C399 C401 1.419 . S
C400 C398 1.415 1_455 S
C400 C405 1.425 1_455 S
C400 C407 1.409 . S
C401 H393 0.930 . S
C401 C399 1.419 . S
C401 C402 1.362 . S
C402 H394 0.930 . S
C402 C401 1.362 . S
C402 C405 1.409 . S
C403 H395 0.930 . S
C403 C404 1.355 . S
C403 C405 1.415 1_455 S
C404 C403 1.355 . S
C404 C406 1.419 . S
C405 C400 1.425 1_655 S
C405 C402 1.409 . S
C405 C403 1.415 1_655 S
C406 H396 0.930 . S
C406 C404 1.419 . S
C406 C407 1.362 . S
C407 H397 0.930 . S
C407 C400 1.409 . S
C407 C406 1.362 . S
H408 C414 0.930 . S
H409 C417 0.930 . S
H410 C418 0.930 1_655 S
H411 C419 0.930 . S
H412 C422 0.930 . S
H413 C423 0.930 1_455 S
C414 H408 0.930 . S
C414 C415 1.355 . S
C414 C416 1.415 . S
C415 C414 1.355 . S
C415 C417 1.419 . S
C416 C414 1.415 . S
C416 C421 1.425 1_455 S
C416 C423 1.409 1_455 S
C417 H409 0.930 . S
C417 C415 1.419 . S
C417 C418 1.362 . S
C418 H410 0.930 1_455 S
C418 C417 1.362 . S
C418 C421 1.409 1_455 S
C419 H411 0.930 . S
C419 C420 1.355 . S
C419 C421 1.415 . S
C420 C419 1.355 . S
C420 C422 1.419 . S
C421 C416 1.425 1_655 S
C421 C418 1.409 1_655 S
C421 C419 1.415 . S
C422 H412 0.930 . S
C422 C420 1.419 . S
C422 C423 1.362 . S
C423 H413 0.930 1_655 S
C423 C416 1.409 1_655 S
C423 C422 1.362 . S
H424 C430 0.930 . S
H425 C433 0.930 . S
H426 C434 0.930 . S
H427 C435 0.930 . S
H428 C438 0.930 . S
H429 C439 0.930 . S
C430 H424 0.930 . S
C430 C431 1.355 . S
C430 C432 1.415 1_545 S
C431 C430 1.355 . S
C431 C433 1.419 . S
C432 C430 1.415 1_565 S
C432 C437 1.425 1_565 S
C432 C439 1.409 . S
C433 H425 0.930 . S
C433 C431 1.419 . S
C433 C434 1.362 . S
C434 H426 0.930 . S
C434 C433 1.362 . S
C434 C437 1.409 . S
C435 H427 0.930 . S
C435 C436 1.355 . S
C435 C437 1.415 1_565 S
C436 C435 1.355 . S
C436 C438 1.419 . S
C437 C432 1.425 1_545 S
C437 C434 1.409 . S
C437 C435 1.415 1_545 S
C438 H428 0.930 . S
C438 C436 1.419 . S
C438 C439 1.362 . S
C439 H429 0.930 . S
C439 C432 1.409 . S
C439 C438 1.362 . S
H440 C446 0.930 . S
H441 C449 0.930 . S
H442 C450 0.930 . S
H443 C451 0.930 . S
H444 C454 0.930 . S
H445 C455 0.930 . S
C446 H440 0.930 . S
C446 C447 1.355 . S
C446 C448 1.415 . S
C447 C446 1.355 . S
C447 C449 1.419 . S
C448 C446 1.415 . S
C448 C453 1.425 . S
C448 C455 1.409 . S
C449 H441 0.930 . S
C449 C447 1.419 . S
C449 C450 1.362 . S
C450 H442 0.930 . S
C450 C449 1.362 . S
C450 C453 1.409 . S
C451 H443 0.930 . S
C451 C452 1.355 . S
C451 C453 1.415 . S
C452 C451 1.355 . S
C452 C454 1.419 . S
C453 C448 1.425 . S
C453 C450 1.409 . S
C453 C451 1.415 . S
C454 H444 0.930 . S
C454 C452 1.419 . S
C454 C455 1.362 . S
C455 H445 0.930 . S
C455 C448 1.409 . S
C455 C454 1.362 . S
H456 C462 0.930 . S
H457 C465 0.930 . S
H458 C466 0.930 . S
H459 C467 0.930 . S
H460 C470 0.930 . S
H461 C471 0.930 . S
C462 H456 0.930 . S
C462 C463 1.355 . S
C462 C464 1.415 . S
C463 C462 1.355 . S
C463 C465 1.419 . S
C464 C462 1.415 . S
C464 C469 1.425 . S
C464 C471 1.409 . S
C465 H457 0.930 . S
C465 C463 1.419 . S
C465 C466 1.362 . S
C466 H458 0.930 . S
C466 C465 1.362 . S
C466 C469 1.409 . S
C467 H459 0.930 . S
C467 C468 1.355 . S
C467 C469 1.415 . S
C468 C467 1.355 . S
C468 C470 1.419 . S
C469 C464 1.425 . S
C469 C466 1.409 . S
C469 C467 1.415 . S
C470 H460 0.930 . S
C470 C468 1.419 . S
C470 C471 1.362 . S
C471 H461 0.930 . S
C471 C464 1.409 . S
C471 C470 1.362 . S
H472 C478 0.930 . S
H473 C481 0.930 . S
H474 C482 0.930 . S
H475 C483 0.930 . S
H476 C486 0.930 . S
H477 C487 0.930 . S
C478 H472 0.930 . S
C478 C479 1.355 . S
C478 C480 1.415 . S
C479 C478 1.355 . S
C479 C481 1.419 . S
C480 C478 1.415 . S
C480 C485 1.425 . S
C480 C487 1.409 . S
C481 H473 0.930 . S
C481 C479 1.419 . S
C481 C482 1.362 . S
C482 H474 0.930 . S
C482 C481 1.362 . S
C482 C485 1.409 . S
C483 H475 0.930 . S
C483 C484 1.355 . S
C483 C485 1.415 . S
C484 C483 1.355 . S
C484 C486 1.419 . S
C485 C480 1.425 . S
C485 C482 1.409 . S
C485 C483 1.415 . S
C486 H476 0.930 . S
C486 C484 1.419 . S
C486 C487 1.362 . S
C487 H477 0.930 . S
C487 C480 1.409 . S
C487 C486 1.362 . S
H488 C494 0.930 . S
H489 C497 0.930 . S
H490 C498 0.930 . S
H491 C499 0.930 . S
H492 C502 0.930 . S
H493 C503 0.930 . S
C494 H488 0.930 . S
C494 C495 1.355 . S
C494 C496 1.415 . S
C495 C494 1.355 . S
C495 C497 1.419 . S
C496 C494 1.415 . S
C496 C501 1.425 . S
C496 C503 1.409 . S
C497 H489 0.930 . S
C497 C495 1.419 . S
C497 C498 1.362 . S
C498 H490 0.930 . S
C498 C497 1.362 . S
C498 C501 1.409 . S
C499 H491 0.930 . S
C499 C500 1.355 . S
C499 C501 1.415 . S
C500 C499 1.355 . S
C500 C502 1.419 . S
C501 C496 1.425 . S
C501 C498 1.409 . S
C501 C499 1.415 . S
C502 H492 0.930 . S
C502 C500 1.419 . S
C502 C503 1.362 . S
C503 H493 0.930 . S
C503 C496 1.409 . S
C503 C502 1.362 . S
H504 C510 0.930 . S
H505 C513 0.930 . S
H506 C514 0.930 . S
H507 C515 0.930 . S
H508 C518 0.930 . S
H509 C519 0.930 . S
C510 H504 0.930 . S
C510 C511 1.355 . S
C510 C512 1.415 . S
C511 C510 1.355 . S
C511 C513 1.419 . S
C512 C510 1.415 . S
C512 C517 1.425 . S
C512 C519 1.409 . S
C513 H505 0.930 . S
C513 C511 1.419 . S
C513 C514 1.362 . S
C514 H506 0.930 . S
C514 C513 1.362 . S
C514 C517 1.409 . S
C515 H507 0.930 . S
C515 C516 1.355 . S
C515 C517 1.415 . S
C516 C515 1.355 . S
C516 C518 1.419 . S
C517 C512 1.425 . S
C517 C514 1.409 . S
C517 C515 1.415 . S
C518 H508 0.930 . S
C518 C516 1.419 . S
C518 C519 1.362 . S
C519 H509 0.930 . S
C519 C512 1.409 . S
C519 C518 1.362 . S
H520 C526 0.930 . S
H521 C529 0.930 . S
H522 C530 0.930 . S
H523 C531 0.930 . S
H524 C534 0.930 . S
H525 C535 0.930 . S
C526 H520 0.930 . S
C526 C527 1.355 . S
C526 C528 1.415 . S
C527 C526 1.355 . S
C527 C529 1.419 . S
C528 C526 1.415 . S
C528 C533 1.425 . S
C528 C535 1.409 . S
C529 H521 0.930 . S
C529 C527 1.419 . S
C529 C530 1.362 . S
C530 H522 0.930 . S
C530 C529 1.362 . S
C530 C533 1.409 . S
C531 H523 0.930 . S
C531 C532 1.355 . S
C531 C533 1.415 . S
C532 C531 1.355 . S
C532 C534 1.419 . S
C533 C528 1.425 . S
C533 C530 1.409 . S
C533 C531 1.415 . S
C534 H524 0.930 . S
C534 C532 1.419 . S
C534 C535 1.362 . S
C535 H525 0.930 . S
C535 C528 1.409 . S
C535 C534 1.362 . S
H536 C542 0.930 . S
H537 C545 0.930 . S
H538 C546 0.930 . S
H539 C547 0.930 . S
H540 C550 0.930 . S
H541 C551 0.930 . S
C542 H536 0.930 . S
C542 C543 1.355 . S
C542 C544 1.415 . S
C543 C542 1.355 . S
C543 C545 1.419 . S
C544 C542 1.415 . S
C544 C549 1.425 . S
C544 C551 1.409 . S
C545 H537 0.930 . S
C545 C543 1.419 . S
C545 C546 1.362 . S
C546 H538 0.930 . S
C546 C545 1.362 . S
C546 C549 1.409 . S
C547 H539 0.930 . S
C547 C548 1.355 . S
C547 C549 1.415 . S
C548 C547 1.355 . S
C548 C550 1.419 . S
C549 C544 1.425 . S
C549 C546 1.409 . S
C549 C547 1.415 . S
C550 H540 0.930 . S
C550 C548 1.419 . S
C550 C551 1.362 . S
C551 H541 0.930 . S
C551 C544 1.409 . S
C551 C550 1.362 . S
C175 C7 1.649 . S
C180 C147 1.645 . S
C191 C21 1.640 . S
C196 C161 1.676 . S
C207 C91 1.686 . S
C212 C35 1.723 . S
C223 C49 1.723 . S
C228 C105 1.684 . S
C239 C119 1.640 . S
C244 C63 1.663 . S
C255 C133 1.675 . S
C260 C77 1.640 . S
C271 C93 0.608 . S
C276 C9 0.674 . S
C287 C107 0.577 . S
C292 C23 0.522 . S
C303 C121 0.569 . S
C308 C37 0.669 . S
C319 C51 0.674 . S
C324 C135 0.591 . S
C335 C65 0.663 . S
C340 C149 0.555 . S
C351 C79 0.526 . S
C356 C163 0.568 . S
C367 C8 1.500 . S
C372 C50 1.487 . S
C383 C22 1.470 . S
C388 C64 1.489 . S
C399 C36 1.462 . S
C404 C78 1.472 . S
C415 C134 1.496 . S
C420 C92 1.500 . S
C431 C148 1.463 . S
C436 C106 1.467 . S
C447 C162 1.462 . S
C452 C120 1.470 . S
C463 C3 1.570 . S
C468 C115 1.600 . S
C479 C129 1.591 . S
C484 C17 1.581 . S
C495 C31 1.566 . S
C500 C143 1.602 . S
C511 C157 1.564 . S
C516 C45 1.569 . S
C527 C59 1.544 . S
C532 C87 1.598 . S
C543 C73 1.600 . S
C548 C101 1.570 . S
