# Generated by pormake.
# Topology uou, (4)-cn, num edge types: 1
# Building blocks:
#     Node 0, Type 0, BuildingBlock: QUQFOY_clean_sbu_1, # of connection points: 4
#     Node 1, Type 0, BuildingBlock: QUQFOY_clean_sbu_1, # of connection points: 4
#     Node 2, Type 0, BuildingBlock: QUQFOY_clean_sbu_1, # of connection points: 4
#     Node 3, Type 0, BuildingBlock: QUQFOY_clean_sbu_1, # of connection points: 4
#     Node 4, Type 0, BuildingBlock: QUQFOY_clean_sbu_1, # of connection points: 4
#     Node 5, Type 0, BuildingBlock: QUQFOY_clean_sbu_1, # of connection points: 4
#     Node 6, Type 0, BuildingBlock: QUQFOY_clean_sbu_1, # of connection points: 4
#     Node 7, Type 0, BuildingBlock: QUQFOY_clean_sbu_1, # of connection points: 4
#     Node 8, Type 0, BuildingBlock: QUQFOY_clean_sbu_1, # of connection points: 4
#     Node 9, Type 0, BuildingBlock: QUQFOY_clean_sbu_1, # of connection points: 4
#     Node 10, Type 0, BuildingBlock: QUQFOY_clean_sbu_1, # of connection points: 4
#     Node 11, Type 0, BuildingBlock: QUQFOY_clean_sbu_1, # of connection points: 4
#     Node 12, Type 0, BuildingBlock: QUQFOY_clean_sbu_1, # of connection points: 4
#     Node 13, Type 0, BuildingBlock: QUQFOY_clean_sbu_1, # of connection points: 4
#     Node 14, Type 0, BuildingBlock: QUQFOY_clean_sbu_1, # of connection points: 4
#     Node 15, Type 0, BuildingBlock: QUQFOY_clean_sbu_1, # of connection points: 4
#     Edge 16, Type (0, 0), BuildingBlock: ZUJKAS_clean_linker_0, # of connection points: 2
#     Edge 17, Type (0, 0), BuildingBlock: ZUJKAS_clean_linker_0, # of connection points: 2
#     Edge 18, Type (0, 0), BuildingBlock: ZUJKAS_clean_linker_0, # of connection points: 2
#     Edge 19, Type (0, 0), BuildingBlock: ZUJKAS_clean_linker_0, # of connection points: 2
#     Edge 20, Type (0, 0), BuildingBlock: ZUJKAS_clean_linker_0, # of connection points: 2
#     Edge 21, Type (0, 0), BuildingBlock: ZUJKAS_clean_linker_0, # of connection points: 2
#     Edge 22, Type (0, 0), BuildingBlock: ZUJKAS_clean_linker_0, # of connection points: 2
#     Edge 23, Type (0, 0), BuildingBlock: ZUJKAS_clean_linker_0, # of connection points: 2
#     Edge 24, Type (0, 0), BuildingBlock: ZUJKAS_clean_linker_0, # of connection points: 2
#     Edge 25, Type (0, 0), BuildingBlock: ZUJKAS_clean_linker_0, # of connection points: 2
#     Edge 26, Type (0, 0), BuildingBlock: ZUJKAS_clean_linker_0, # of connection points: 2
#     Edge 27, Type (0, 0), BuildingBlock: ZUJKAS_clean_linker_0, # of connection points: 2
#     Edge 28, Type (0, 0), BuildingBlock: ZUJKAS_clean_linker_0, # of connection points: 2
#     Edge 29, Type (0, 0), BuildingBlock: ZUJKAS_clean_linker_0, # of connection points: 2
#     Edge 30, Type (0, 0), BuildingBlock: ZUJKAS_clean_linker_0, # of connection points: 2
#     Edge 31, Type (0, 0), BuildingBlock: ZUJKAS_clean_linker_0, # of connection points: 2
#     Edge 32, Type (0, 0), BuildingBlock: ZUJKAS_clean_linker_0, # of connection points: 2
#     Edge 33, Type (0, 0), BuildingBlock: ZUJKAS_clean_linker_0, # of connection points: 2
#     Edge 34, Type (0, 0), BuildingBlock: ZUJKAS_clean_linker_0, # of connection points: 2
#     Edge 35, Type (0, 0), BuildingBlock: ZUJKAS_clean_linker_0, # of connection points: 2
#     Edge 36, Type (0, 0), BuildingBlock: ZUJKAS_clean_linker_0, # of connection points: 2
#     Edge 37, Type (0, 0), BuildingBlock: ZUJKAS_clean_linker_0, # of connection points: 2
#     Edge 38, Type (0, 0), BuildingBlock: ZUJKAS_clean_linker_0, # of connection points: 2
#     Edge 39, Type (0, 0), BuildingBlock: ZUJKAS_clean_linker_0, # of connection points: 2
#     Edge 40, Type (0, 0), BuildingBlock: ZUJKAS_clean_linker_0, # of connection points: 2
#     Edge 41, Type (0, 0), BuildingBlock: ZUJKAS_clean_linker_0, # of connection points: 2
#     Edge 42, Type (0, 0), BuildingBlock: ZUJKAS_clean_linker_0, # of connection points: 2
#     Edge 43, Type (0, 0), BuildingBlock: ZUJKAS_clean_linker_0, # of connection points: 2
#     Edge 44, Type (0, 0), BuildingBlock: ZUJKAS_clean_linker_0, # of connection points: 2
#     Edge 45, Type (0, 0), BuildingBlock: ZUJKAS_clean_linker_0, # of connection points: 2
#     Edge 46, Type (0, 0), BuildingBlock: ZUJKAS_clean_linker_0, # of connection points: 2
#     Edge 47, Type (0, 0), BuildingBlock: ZUJKAS_clean_linker_0, # of connection points: 2
# Relax obj value: 0.062
# Max RMSD: 0.104
# Mean RMSD: 0.104
data_MOF--net-uou--node1-QUQFOY_clean_sbu_1--edge1-ZUJKAS_clean_linker_0
_symmetry_space_group_name_H-M    P1
_symmetry_Int_Tables_number       1
_symmetry_cell_setting            triclinic
loop_
_symmetry_equiv_pos_as_xyz
'x, y, z'
_cell_length_a     53.6066
_cell_length_b     48.347551
_cell_length_c     72.985777
_cell_angle_alpha  90.03555
_cell_angle_beta   89.999058
_cell_angle_gamma 90.11385
loop_
_atom_site_label
_atom_site_type_symbol
_atom_site_fract_x
_atom_site_fract_y
_atom_site_fract_z
_atom_type_partial_charge
O0 O 0.04246 0.09122 0.13566 0.0
Cd1 Cd 0.0494 0.04938 0.13474 0.0
Cd2 Cd 0.09316 0.06756 0.12019 0.0
O3 O 0.0797 0.10618 0.12748 0.0
O4 O 0.02302 0.03351 0.15088 0.0
O5 O 0.06318 0.03155 0.15757 0.0
C6 C 0.04033 0.02684 0.1623 0.0
C7 C 0.13383 0.05423 0.12787 0.0
C8 C 0.05753 0.11105 0.13278 0.0
C9 C 0.05882 0.03498 0.09548 0.0
O10 O 0.07826 0.04999 0.09678 0.0
O11 O 0.04536 0.03035 0.10951 0.0
O12 O 0.12955 0.07227 0.11525 0.0
O13 O 0.11489 0.04412 0.13657 0.0
O14 O 0.47236 0.9059 0.13581 0.0
Cd15 Cd 0.46675 0.94801 0.13462 0.0
Cd16 Cd 0.42292 0.93079 0.11883 0.0
O17 O 0.43615 0.89165 0.12487 0.0
O18 O 0.49357 0.96281 0.15088 0.0
O19 O 0.45349 0.96675 0.15736 0.0
C20 C 0.47645 0.97043 0.16219 0.0
C21 C 0.38231 0.94409 0.12665 0.0
C22 C 0.4576 0.8864 0.13143 0.0
C23 C 0.45833 0.96359 0.09518 0.0
O24 O 0.43826 0.9496 0.09612 0.0
O25 O 0.47194 0.96682 0.10932 0.0
O26 O 0.38655 0.92686 0.11353 0.0
O27 O 0.40124 0.95332 0.13579 0.0
O28 O 0.54217 0.90838 0.37844 0.0
Cd29 Cd 0.54976 0.9501 0.37857 0.0
Cd30 Cd 0.59327 0.93181 0.39297 0.0
O31 O 0.57976 0.8932 0.38532 0.0
O32 O 0.5244 0.96569 0.36146 0.0
O33 O 0.56491 0.96678 0.35583 0.0
C34 C 0.54238 0.97159 0.35039 0.0
C35 C 0.63414 0.94546 0.3858 0.0
C36 C 0.55723 0.88845 0.38079 0.0
C37 C 0.55891 0.96478 0.4176 0.0
O38 O 0.57797 0.94923 0.41635 0.0
O39 O 0.54578 0.96994 0.40349 0.0
O40 O 0.62962 0.92725 0.39828 0.0
O41 O 0.61536 0.95548 0.37691 0.0
O42 O 0.97589 0.09105 0.37784 0.0
Cd43 Cd 0.96816 0.04935 0.37819 0.0
Cd44 Cd 0.92496 0.06777 0.39294 0.0
O45 O 0.93849 0.1063 0.3852 0.0
O46 O 0.99337 0.03335 0.36113 0.0
O47 O 0.95282 0.03231 0.35564 0.0
C48 C 0.97529 0.02721 0.3502 0.0
C49 C 0.88401 0.05433 0.38584 0.0
C50 C 0.96091 0.11101 0.38039 0.0
C51 C 0.95959 0.03489 0.41733 0.0
O52 O 0.94049 0.05041 0.41625 0.0
O53 O 0.97248 0.02973 0.4031 0.0
O54 O 0.88866 0.07249 0.39834 0.0
O55 O 0.90272 0.04416 0.37694 0.0
O56 O 0.94184 0.95181 0.91729 0.0
Cd57 Cd 0.92503 0.93222 0.89543 0.0
Cd58 Cd 0.96818 0.94827 0.87815 0.0
O59 O 0.97542 0.96727 0.90308 0.0
O60 O 0.88895 0.92954 0.90197 0.0
O61 O 0.90271 0.95363 0.87829 0.0
C62 C 0.88418 0.94557 0.8883 0.0
C63 C 0.97635 0.9704 0.85027 0.0
C64 C 0.96236 0.96504 0.91757 0.0
C65 C 0.95818 0.88686 0.88222 0.0
O66 O 0.97276 0.90599 0.87691 0.0
O67 O 0.93744 0.89263 0.88975 0.0
O68 O 0.9941 0.96222 0.86084 0.0
O69 O 0.9537 0.96735 0.856 0.0
O70 O 0.57691 0.04834 0.91745 0.0
Cd71 Cd 0.59487 0.06728 0.89585 0.0
Cd72 Cd 0.55075 0.05272 0.8781 0.0
O73 O 0.54232 0.03535 0.90339 0.0
O74 O 0.63087 0.06849 0.9028 0.0
O75 O 0.61686 0.04522 0.87882 0.0
C76 C 0.63544 0.05254 0.88904 0.0
C77 C 0.53882 0.03108 0.85074 0.0
C78 C 0.55563 0.03669 0.91783 0.0
C79 C 0.56413 0.11386 0.8818 0.0
O80 O 0.5493 0.09522 0.87613 0.0
O81 O 0.58411 0.10743 0.89013 0.0
O82 O 0.52275 0.04255 0.86141 0.0
O83 O 0.56178 0.03033 0.85608 0.0
O84 O 0.44182 0.04758 0.59608 0.0
Cd85 Cd 0.42409 0.06623 0.61799 0.0
Cd86 Cd 0.46801 0.05087 0.63509 0.0
O87 O 0.47561 0.03233 0.6101 0.0
O88 O 0.38813 0.0679 0.61091 0.0
O89 O 0.40168 0.04388 0.63465 0.0
C90 C 0.38328 0.05154 0.6244 0.0
C91 C 0.47872 0.02967 0.66282 0.0
C92 C 0.4625 0.03473 0.59564 0.0
C93 C 0.45626 0.11228 0.63141 0.0
O94 O 0.47125 0.0933 0.63618 0.0
O95 O 0.43533 0.10618 0.62424 0.0
O96 O 0.49539 0.03987 0.65206 0.0
O97 O 0.45578 0.02996 0.65739 0.0
O98 O 0.07612 0.94973 0.59569 0.0
Cd99 Cd 0.09193 0.93132 0.61852 0.0
Cd100 Cd 0.04877 0.94948 0.63387 0.0
O101 O 0.04424 0.96994 0.60927 0.0
O102 O 0.12807 0.92736 0.61237 0.0
O103 O 0.11453 0.95368 0.63503 0.0
C104 C 0.133 0.94453 0.62541 0.0
C105 C 0.04037 0.97073 0.66201 0.0
C106 C 0.05702 0.96527 0.59493 0.0
C107 C 0.0561 0.88774 0.63055 0.0
O108 O 0.04129 0.9077 0.63362 0.0
O109 O 0.07845 0.89247 0.62556 0.0
O110 O 0.02281 0.96466 0.65063 0.0
O111 O 0.06309 0.96601 0.65701 0.0
O112 O 0.54616 0.59279 0.13605 0.0
Cd113 Cd 0.55067 0.5505 0.13486 0.0
Cd114 Cd 0.59404 0.56648 0.11782 0.0
O115 O 0.58162 0.60612 0.12341 0.0
O116 O 0.52458 0.53658 0.15204 0.0
O117 O 0.56494 0.5314 0.15707 0.0
C118 C 0.54224 0.52836 0.16269 0.0
C119 C 0.63483 0.55295 0.12496 0.0
C120 C 0.56079 0.61191 0.13081 0.0
C121 C 0.55689 0.53369 0.09549 0.0
O122 O 0.57741 0.54689 0.0959 0.0
O123 O 0.54365 0.53148 0.1099 0.0
O124 O 0.63012 0.56902 0.1113 0.0
O125 O 0.61629 0.54506 0.13502 0.0
O126 O 0.97436 0.40703 0.13497 0.0
Cd127 Cd 0.96817 0.44903 0.1341 0.0
Cd128 Cd 0.92469 0.43129 0.11859 0.0
O129 O 0.93756 0.39231 0.12556 0.0
O130 O 0.99462 0.46413 0.15052 0.0
O131 O 0.95442 0.46719 0.15686 0.0
C132 C 0.97728 0.47131 0.16178 0.0
C133 C 0.88395 0.44503 0.12575 0.0
C134 C 0.95942 0.38729 0.13146 0.0
C135 C 0.96025 0.46399 0.09479 0.0
O136 O 0.94057 0.44933 0.09571 0.0
O137 O 0.97339 0.46817 0.10904 0.0
O138 O 0.88847 0.42783 0.11266 0.0
O139 O 0.90267 0.45396 0.13525 0.0
O140 O 0.04154 0.4088 0.37805 0.0
Cd141 Cd 0.04835 0.4507 0.37815 0.0
Cd142 Cd 0.09175 0.43343 0.39339 0.0
O143 O 0.07891 0.39435 0.38624 0.0
O144 O 0.02308 0.46574 0.36077 0.0
O145 O 0.06368 0.4678 0.35562 0.0
C146 C 0.04119 0.47225 0.34997 0.0
C147 C 0.13273 0.44717 0.38661 0.0
C148 C 0.05669 0.38915 0.38112 0.0
C149 C 0.05609 0.46635 0.41713 0.0
O150 O 0.07559 0.45145 0.41625 0.0
O151 O 0.04311 0.47069 0.40284 0.0
O152 O 0.1279 0.43 0.39966 0.0
O153 O 0.1142 0.45609 0.37695 0.0
O154 O 0.4748 0.59112 0.37861 0.0
Cd155 Cd 0.46759 0.54928 0.37853 0.0
Cd156 Cd 0.42417 0.56722 0.39353 0.0
O157 O 0.43739 0.60608 0.38628 0.0
O158 O 0.49378 0.53411 0.36196 0.0
O159 O 0.45356 0.5324 0.35542 0.0
C160 C 0.47635 0.52779 0.35053 0.0
C161 C 0.3832 0.55365 0.3866 0.0
C162 C 0.45978 0.61097 0.38143 0.0
C163 C 0.45917 0.53405 0.41753 0.0
O164 O 0.43997 0.5494 0.41656 0.0
O165 O 0.47208 0.52922 0.40327 0.0
O166 O 0.38798 0.57101 0.39956 0.0
O167 O 0.40177 0.54448 0.37709 0.0
O168 O 0.4393 0.44906 0.91724 0.0
Cd169 Cd 0.42381 0.4303 0.89453 0.0
Cd170 Cd 0.46688 0.44855 0.87853 0.0
O171 O 0.47238 0.46722 0.9038 0.0
O172 O 0.38751 0.42579 0.8999 0.0
O173 O 0.4018 0.45283 0.87782 0.0
C174 C 0.38302 0.44317 0.88692 0.0
C175 C 0.47465 0.47135 0.85084 0.0
C176 C 0.45914 0.46348 0.91807 0.0
C177 C 0.45894 0.38676 0.8813 0.0
O178 O 0.47331 0.40664 0.87702 0.0
O179 O 0.43747 0.39147 0.88802 0.0
O180 O 0.49253 0.46411 0.86161 0.0
O181 O 0.45204 0.46714 0.85634 0.0
O182 O 0.07728 0.54832 0.91639 0.0
Cd183 Cd 0.09357 0.56683 0.89393 0.0
Cd184 Cd 0.05003 0.55017 0.87739 0.0
O185 O 0.04397 0.5314 0.90256 0.0
O186 O 0.12983 0.57026 0.89976 0.0
O187 O 0.11546 0.54397 0.8773 0.0
C188 C 0.13424 0.55298 0.88669 0.0
C189 C 0.04008 0.52782 0.84985 0.0
C190 C 0.05707 0.53454 0.91696 0.0
C191 C 0.05977 0.61167 0.8808 0.0
O192 O 0.04494 0.59237 0.87616 0.0
O193 O 0.08097 0.60613 0.88768 0.0
O194 O 0.02306 0.53592 0.86108 0.0
O195 O 0.06308 0.53107 0.85471 0.0
O196 O 0.93803 0.54805 0.59578 0.0
Cd197 Cd 0.92221 0.56647 0.61863 0.0
Cd198 Cd 0.96562 0.54894 0.63375 0.0
O199 O 0.97045 0.52859 0.60914 0.0
O200 O 0.88593 0.56993 0.61273 0.0
O201 O 0.90004 0.54406 0.63541 0.0
C202 C 0.88133 0.55292 0.62592 0.0
C203 C 0.97323 0.52785 0.66203 0.0
C204 C 0.9574 0.53294 0.59488 0.0
C205 C 0.95774 0.61055 0.6304 0.0
O206 O 0.97272 0.59077 0.6335 0.0
O207 O 0.9354 0.60555 0.62547 0.0
O208 O 0.99115 0.53414 0.65101 0.0
O209 O 0.95065 0.5322 0.65654 0.0
O210 O 0.5753 0.45059 0.5965 0.0
Cd211 Cd 0.59096 0.43226 0.61938 0.0
Cd212 Cd 0.54789 0.45086 0.63481 0.0
O213 O 0.54324 0.47066 0.60996 0.0
O214 O 0.62722 0.42834 0.61354 0.0
O215 O 0.61327 0.45466 0.63607 0.0
C216 C 0.63192 0.44551 0.62663 0.0
C217 C 0.53921 0.47274 0.66271 0.0
C218 C 0.5561 0.46595 0.59564 0.0
C219 C 0.55504 0.38896 0.63177 0.0
O220 O 0.54048 0.40906 0.63507 0.0
O221 O 0.57725 0.3935 0.62636 0.0
O222 O 0.52176 0.46624 0.65135 0.0
O223 O 0.56199 0.46813 0.65779 0.0
H224 H 0.33879 0.92246 0.11357 0.0
H225 H 0.29674 0.94112 0.11691 0.0
H226 H 0.32537 0.00714 0.15069 0.0
H227 H 0.36758 0.9881 0.14781 0.0
H228 H 0.28031 0.9872 0.16342 0.0
H229 H 0.2745 0.0091 0.08903 0.0
H230 H 0.2807 0.97341 0.09388 0.0
H231 H 0.30328 0.99939 0.10006 0.0
C232 C 0.33615 0.94083 0.12185 0.0
C233 C 0.35659 0.95397 0.13026 0.0
C234 C 0.31209 0.95156 0.12366 0.0
C235 C 0.30796 0.97593 0.13367 0.0
C236 C 0.32814 0.98842 0.14278 0.0
H237 H 0.17721 0.07801 0.11633 0.0
H238 H 0.21955 0.06029 0.11972 0.0
C239 C 0.35225 0.97753 0.14112 0.0
C240 C 0.28279 0.98882 0.134 0.0
H241 H 0.23702 0.01383 0.10604 0.0
C242 C 0.27086 0.99316 0.15089 0.0
C243 C 0.27063 0.99706 0.11767 0.0
C244 C 0.28302 0.99479 0.09915 0.0
C245 C 0.2469 0.00496 0.15187 0.0
C246 C 0.23434 0.01211 0.13547 0.0
C247 C 0.2465 0.00817 0.11862 0.0
C248 C 0.20875 0.02407 0.13525 0.0
C249 C 0.23553 0.01014 0.17045 0.0
C250 C 0.18846 0.00985 0.14306 0.0
C251 C 0.16415 0.02017 0.14132 0.0
C252 C 0.15963 0.04464 0.13146 0.0
C253 C 0.18001 0.05906 0.12397 0.0
C254 C 0.20427 0.04893 0.12588 0.0
H255 H 0.25003 0.0114 0.1813 0.0
H256 H 0.22455 0.02959 0.17058 0.0
H257 H 0.22284 0.99276 0.17394 0.0
H258 H 0.19129 0.9903 0.14997 0.0
H259 H 0.14882 0.00845 0.14712 0.0
H260 H 0.67739 0.92314 0.39878 0.0
H261 H 0.71963 0.94166 0.396 0.0
H262 H 0.69186 0.0093 0.36342 0.0
H263 H 0.64946 0.99043 0.36574 0.0
H264 H 0.73653 0.98954 0.35031 0.0
H265 H 0.74304 0.00807 0.42508 0.0
H266 H 0.7364 0.97266 0.41954 0.0
H267 H 0.71408 0.99912 0.41396 0.0
C268 C 0.68024 0.94186 0.3909 0.0
C269 C 0.65999 0.95546 0.38263 0.0
C270 C 0.70442 0.95251 0.38941 0.0
C271 C 0.70887 0.97726 0.37989 0.0
C272 C 0.68886 0.99029 0.37096 0.0
H273 H 0.84098 0.07759 0.39842 0.0
H274 H 0.79846 0.06009 0.3952 0.0
C275 C 0.66463 0.97948 0.3723 0.0
C276 C 0.73423 0.98988 0.37976 0.0
H277 H 0.78049 0.01317 0.40805 0.0
C278 C 0.74613 0.99483 0.36292 0.0
C279 C 0.74661 0.99725 0.3962 0.0
C280 C 0.7343 0.99428 0.41471 0.0
C281 C 0.77023 0.00642 0.36211 0.0
C282 C 0.78299 0.01271 0.3786 0.0
C283 C 0.77087 0.00815 0.3954 0.0
C284 C 0.80873 0.02443 0.37894 0.0
C285 C 0.78154 0.01231 0.34359 0.0
C286 C 0.82879 0.01043 0.37072 0.0
C287 C 0.85321 0.02062 0.37237 0.0
C288 C 0.85807 0.04475 0.38255 0.0
C289 C 0.83792 0.05892 0.39052 0.0
C290 C 0.81356 0.04891 0.38871 0.0
H291 H 0.76699 0.01416 0.33282 0.0
H292 H 0.79272 0.03167 0.34382 0.0
H293 H 0.79403 0.99499 0.33972 0.0
H294 H 0.82571 0.99117 0.36349 0.0
H295 H 0.86834 0.00909 0.3662 0.0
H296 H 0.84263 0.93477 0.90867 0.0
H297 H 0.80053 0.95243 0.90419 0.0
H298 H 0.82462 0.99557 0.85558 0.0
H299 H 0.86719 0.9784 0.86023 0.0
H300 H 0.79728 0.02852 0.87734 0.0
H301 H 0.74713 0.92948 0.86856 0.0
H302 H 0.76499 0.92978 0.88932 0.0
H303 H 0.78071 0.93189 0.86754 0.0
C304 C 0.83899 0.94777 0.89689 0.0
C305 C 0.85831 0.95508 0.88477 0.0
C306 C 0.81479 0.95771 0.89427 0.0
C307 C 0.80921 0.9749 0.87934 0.0
C308 C 0.82842 0.98215 0.86712 0.0
H309 H 0.65214 0.02014 0.86062 0.0
H310 H 0.69456 0.00263 0.85577 0.0
C311 C 0.85273 0.97229 0.86979 0.0
C312 C 0.78369 0.98656 0.87725 0.0
H313 H 0.72197 0.96873 0.877 0.0
C314 C 0.78083 0.01543 0.877 0.0
C315 C 0.76216 0.96956 0.87645 0.0
C316 C 0.7639 0.93846 0.87528 0.0
C317 C 0.75709 0.02771 0.87692 0.0
C318 C 0.73557 0.01068 0.87752 0.0
C319 C 0.73842 0.98183 0.87681 0.0
C320 C 0.71007 0.0223 0.87987 0.0
C321 C 0.75535 0.05883 0.87624 0.0
C322 C 0.70459 0.03898 0.89509 0.0
C323 C 0.68048 0.0491 0.89783 0.0
C324 C 0.66115 0.0425 0.88553 0.0
C325 C 0.6666 0.0257 0.87031 0.0
C326 C 0.69084 0.01565 0.86753 0.0
H327 H 0.77209 0.06805 0.86964 0.0
H328 H 0.73852 0.06567 0.86863 0.0
H329 H 0.75427 0.06704 0.89042 0.0
H330 H 0.71888 0.04378 0.90509 0.0
H331 H 0.67693 0.06177 0.90979 0.0
H332 H 0.15071 0.97795 0.65302 0.0
H333 H 0.1933 0.99568 0.65683 0.0
H334 H 0.21625 0.95156 0.60832 0.0
H335 H 0.17413 0.9332 0.60475 0.0
H336 H 0.2506 0.94711 0.63489 0.0
H337 H 0.22361 0.05728 0.62691 0.0
H338 H 0.20829 0.03981 0.64547 0.0
H339 H 0.20231 0.02923 0.62225 0.0
C340 C 0.16488 0.97192 0.64323 0.0
C341 C 0.15896 0.95427 0.62852 0.0
C342 C 0.18919 0.98223 0.64535 0.0
C343 C 0.20793 0.97542 0.63266 0.0
C344 C 0.20215 0.95723 0.61826 0.0
H345 H 0.34248 0.05999 0.60281 0.0
H346 H 0.30051 0.04136 0.60671 0.0
C347 C 0.17799 0.94675 0.61623 0.0
C348 C 0.23352 0.98734 0.63402 0.0
H349 H 0.26602 0.04822 0.63296 0.0
C350 C 0.25398 0.96923 0.63457 0.0
C351 C 0.23796 0.01622 0.6334 0.0
C352 C 0.21693 0.0368 0.63181 0.0
C353 C 0.27867 0.9791 0.63418 0.0
C354 C 0.2831 0.00799 0.6337 0.0
C355 C 0.26264 0.02611 0.63349 0.0
C356 C 0.30869 0.01981 0.63198 0.0
C357 C 0.29971 0.95844 0.63348 0.0
C358 C 0.32731 0.0143 0.64503 0.0
C359 C 0.35153 0.02477 0.64274 0.0
C360 C 0.35749 0.04127 0.62748 0.0
C361 C 0.3386 0.04735 0.61473 0.0
C362 C 0.31453 0.03673 0.61695 0.0
H363 H 0.29308 0.93754 0.62938 0.0
H364 H 0.31439 0.96514 0.62369 0.0
H365 H 0.30827 0.95671 0.64727 0.0
H366 H 0.32315 0.00185 0.65698 0.0
H367 H 0.36559 0.01986 0.65289 0.0
H368 H 0.84243 0.43419 0.10539 0.0
H369 H 0.80058 0.45292 0.10932 0.0
H370 H 0.82473 0.49664 0.15772 0.0
H371 H 0.86706 0.47854 0.15355 0.0
H372 H 0.76665 0.44863 0.13622 0.0
H373 H 0.79466 0.5586 0.12807 0.0
H374 H 0.81559 0.53038 0.1232 0.0
H375 H 0.81004 0.5409 0.14648 0.0
C376 C 0.8389 0.44774 0.11692 0.0
C377 C 0.85818 0.45503 0.12908 0.0
C378 C 0.81489 0.45842 0.11916 0.0
C379 C 0.80953 0.47659 0.13363 0.0
C380 C 0.82852 0.4832 0.14619 0.0
H381 H 0.6522 0.52194 0.15382 0.0
H382 H 0.69456 0.50405 0.15824 0.0
C383 C 0.85268 0.47268 0.14386 0.0
C384 C 0.7841 0.48873 0.13521 0.0
H385 H 0.75221 0.54985 0.13418 0.0
C386 C 0.76348 0.47077 0.13589 0.0
C387 C 0.77996 0.51763 0.13458 0.0
C388 C 0.80118 0.53804 0.13287 0.0
C389 C 0.73889 0.48083 0.13556 0.0
C390 C 0.73475 0.50974 0.13502 0.0
C391 C 0.75538 0.52771 0.13474 0.0
C392 C 0.7093 0.52172 0.13321 0.0
C393 C 0.71765 0.46031 0.13494 0.0
C394 C 0.70367 0.5385 0.11809 0.0
C395 C 0.67965 0.54907 0.11569 0.0
C396 C 0.66062 0.54305 0.12835 0.0
C397 C 0.66638 0.52679 0.14375 0.0
C398 C 0.69055 0.51638 0.14622 0.0
H399 H 0.72408 0.43933 0.13093 0.0
H400 H 0.70906 0.45878 0.14873 0.0
H401 H 0.70304 0.46703 0.12512 0.0
H402 H 0.71778 0.543 0.10788 0.0
H403 H 0.67591 0.56153 0.10368 0.0
H404 H 0.34205 0.56436 0.40737 0.0
H405 H 0.29998 0.54593 0.40364 0.0
H406 H 0.32309 0.5028 0.35477 0.0
H407 H 0.36564 0.52056 0.35876 0.0
H408 H 0.26575 0.55098 0.37729 0.0
H409 H 0.29256 0.44056 0.38378 0.0
H410 H 0.31394 0.46841 0.38872 0.0
H411 H 0.30785 0.45845 0.36539 0.0
C412 C 0.33824 0.55099 0.39579 0.0
C413 C 0.3573 0.54377 0.38344 0.0
C414 C 0.31411 0.54048 0.39366 0.0
C415 C 0.30838 0.52256 0.3791 0.0
C416 C 0.32716 0.51601 0.36637 0.0
H417 H 0.15041 0.47976 0.35859 0.0
H418 H 0.19296 0.49751 0.3546 0.0
C419 C 0.35145 0.52635 0.3686 0.0
C420 C 0.28277 0.5107 0.37758 0.0
H421 H 0.25018 0.44986 0.37773 0.0
C422 C 0.26234 0.52885 0.37729 0.0
C423 C 0.27829 0.48181 0.37779 0.0
C424 C 0.29927 0.46114 0.37911 0.0
C425 C 0.23763 0.51902 0.37756 0.0
C426 C 0.23315 0.49014 0.3776 0.0
C427 C 0.25358 0.47198 0.37754 0.0
C428 C 0.20754 0.47831 0.37916 0.0
C429 C 0.21664 0.53973 0.37862 0.0
C430 C 0.20173 0.4607 0.39385 0.0
C431 C 0.1776 0.45019 0.39598 0.0
C432 C 0.15862 0.4571 0.38349 0.0
C433 C 0.16455 0.47422 0.36853 0.0
C434 C 0.18883 0.48455 0.36631 0.0
H435 H 0.22333 0.56041 0.38312 0.0
H436 H 0.20814 0.5421 0.36485 0.0
H437 H 0.20191 0.53267 0.38825 0.0
H438 H 0.21579 0.45549 0.40392 0.0
H439 H 0.17373 0.43706 0.40766 0.0
H440 H 0.14909 0.50853 0.866 0.0
H441 H 0.19128 0.48931 0.86351 0.0
H442 H 0.2197 0.55579 0.897 0.0
H443 H 0.17765 0.5746 0.89997 0.0
H444 H 0.23622 0.50861 0.85082 0.0
H445 H 0.24204 0.48862 0.92542 0.0
H446 H 0.21329 0.49823 0.91431 0.0
H447 H 0.23598 0.52424 0.92026 0.0
C448 C 0.16437 0.51915 0.87272 0.0
C449 C 0.15996 0.54289 0.88338 0.0
C450 C 0.18847 0.50815 0.87128 0.0
C451 C 0.20858 0.52073 0.88043 0.0
C452 C 0.20439 0.54526 0.89025 0.0
H453 H 0.3677 0.48814 0.86699 0.0
H454 H 0.32517 0.50603 0.86404 0.0
C455 C 0.18033 0.55608 0.89185 0.0
C456 C 0.23377 0.50782 0.88026 0.0
H457 H 0.27961 0.48373 0.9085 0.0
C458 C 0.24569 0.50303 0.86341 0.0
C459 C 0.24596 0.50006 0.89668 0.0
C460 C 0.23357 0.50277 0.91517 0.0
C461 C 0.26966 0.49123 0.86257 0.0
C462 C 0.28227 0.48461 0.87905 0.0
C463 C 0.27012 0.489 0.89585 0.0
C464 C 0.30792 0.47278 0.8794 0.0
C465 C 0.28099 0.4855 0.84404 0.0
C466 C 0.31257 0.44831 0.88918 0.0
C467 C 0.33688 0.43836 0.89116 0.0
C468 C 0.35715 0.45254 0.88332 0.0
C469 C 0.35246 0.4766 0.87306 0.0
C470 C 0.3281 0.48676 0.87127 0.0
H471 H 0.26644 0.48374 0.83325 0.0
H472 H 0.29352 0.50287 0.84025 0.0
H473 H 0.2921 0.46615 0.84418 0.0
H474 H 0.29737 0.43714 0.89561 0.0
H475 H 0.33981 0.41973 0.89911 0.0
H476 H 0.67348 0.4341 0.60645 0.0
H477 H 0.7156 0.45204 0.61067 0.0
H478 H 0.6916 0.4966 0.65873 0.0
H479 H 0.649 0.47925 0.65427 0.0
H480 H 0.71907 0.52894 0.63722 0.0
H481 H 0.76913 0.43015 0.64601 0.0
H482 H 0.75147 0.43023 0.62517 0.0
H483 H 0.73555 0.43235 0.64687 0.0
C484 C 0.67715 0.44747 0.61806 0.0
C485 C 0.65784 0.45513 0.63007 0.0
C486 C 0.70137 0.45758 0.62053 0.0
C487 C 0.70701 0.47524 0.63525 0.0
C488 C 0.68779 0.48283 0.64735 0.0
H489 H 0.86442 0.51971 0.65386 0.0
H490 H 0.82187 0.50233 0.65855 0.0
C491 C 0.66345 0.47286 0.6448 0.0
C492 C 0.7326 0.48701 0.63723 0.0
H493 H 0.79432 0.46941 0.63744 0.0
C494 C 0.7355 0.51589 0.63752 0.0
C495 C 0.75413 0.4701 0.63799 0.0
C496 C 0.75241 0.439 0.63921 0.0
C497 C 0.75926 0.52826 0.63768 0.0
C498 C 0.78079 0.51133 0.63703 0.0
C499 C 0.77789 0.48246 0.63764 0.0
C500 C 0.80636 0.52305 0.63487 0.0
C501 C 0.76098 0.55939 0.63856 0.0
C502 C 0.81193 0.54035 0.61996 0.0
C503 C 0.83611 0.55048 0.61736 0.0
C504 C 0.85547 0.5432 0.62944 0.0
C505 C 0.84994 0.5258 0.64435 0.0
C506 C 0.82563 0.51582 0.64702 0.0
H507 H 0.74429 0.56841 0.64531 0.0
H508 H 0.77787 0.56624 0.64612 0.0
H509 H 0.76187 0.56779 0.62443 0.0
H510 H 0.79766 0.5456 0.61007 0.0
H511 H 0.83972 0.56358 0.60562 0.0
H512 H 0.94196 0.01718 0.32247 0.0
H513 H 0.95159 0.00762 0.29027 0.0
H514 H 0.03013 0.00654 0.30303 0.0
H515 H 0.02069 0.01556 0.33516 0.0
H516 H 0.97855 0.04287 0.26899 0.0
H517 H 0.0245 0.94042 0.26921 0.0
H518 H 1.00631 0.95287 0.28833 0.0
H519 H 0.03808 0.96409 0.28533 0.0
C520 C 0.96124 0.01421 0.3185 0.0
C521 C 0.98055 0.0172 0.33139 0.0
C522 C 0.96672 0.0088 0.30008 0.0
C523 C 0.99157 0.00606 0.29424 0.0
C524 C 0.01079 0.00792 0.30723 0.0
H525 H 0.07122 0.02012 0.19193 0.0
H526 H 0.05866 0.01174 0.22376 0.0
C527 C 1.00534 0.0133 0.32562 0.0
C528 C 0.99761 0.00458 0.27439 0.0
H529 H 0.0306 0.96825 0.24232 0.0
C530 C 0.98961 0.02632 0.26311 0.0
C531 C 0.01228 0.98314 0.26676 0.0
C532 C 0.0206 0.95867 0.278 0.0
C533 C 0.99645 0.02768 0.24458 0.0
C534 C 0.01136 0.00644 0.237 0.0
C535 C 0.01917 0.98449 0.24818 0.0
C536 C 0.01939 0.0073 0.21755 0.0
C537 C 0.98835 0.05238 0.23342 0.0
C538 C 1.00163 0.00642 0.20346 0.0
C539 C 0.00871 0.01126 0.18532 0.0
C540 C 0.03376 0.01689 0.18089 0.0
C541 C 0.05179 0.01589 0.19488 0.0
C542 C 0.04464 0.01112 0.21308 0.0
H543 H 0.98191 0.0697 0.24223 0.0
H544 H 1.00385 0.05993 0.22464 0.0
H545 H 0.97266 0.04626 0.22437 0.0
H546 H 0.98211 0.00302 0.20659 0.0
H547 H 0.99437 0.01165 0.17487 0.0
H548 H 0.44552 0.98007 0.19147 0.0
H549 H 0.45794 0.9888 0.22325 0.0
H550 H 0.53516 0.99137 0.2068 0.0
H551 H 0.52299 0.98236 0.17512 0.0
H552 H 0.52578 0.95398 0.23445 0.0
H553 H 0.48442 0.05582 0.25164 0.0
H554 H 0.46282 0.03162 0.24172 0.0
H555 H 0.48857 0.04419 0.22831 0.0
C556 C 0.46509 0.98316 0.19454 0.0
C557 C 0.48326 0.9804 0.18076 0.0
C558 C 0.47216 0.98826 0.21272 0.0
C559 C 0.49749 0.99094 0.2174 0.0
C560 C 0.51552 0.98945 0.20351 0.0
H561 H 0.57565 0.98286 0.32279 0.0
H562 H 0.56606 0.99117 0.29043 0.0
C563 C 0.5085 0.98431 0.18538 0.0
C564 C 0.50541 0.99212 0.2369 0.0
H565 H 0.49942 0.02882 0.27669 0.0
C566 C 0.52027 0.97052 0.24363 0.0
C567 C 0.49803 0.0136 0.24889 0.0
C568 C 0.48276 0.03777 0.24228 0.0
C569 C 0.52739 0.96936 0.26212 0.0
C570 C 0.51994 0.99075 0.27417 0.0
C571 C 0.50526 0.01254 0.26742 0.0
C572 C 0.52599 0.98982 0.29404 0.0
C573 C 0.54201 0.94462 0.2687 0.0
C574 C 0.5067 0.98782 0.30695 0.0
C575 C 0.51212 0.98337 0.32545 0.0
C576 C 0.53698 0.98084 0.33143 0.0
C577 C 0.55632 0.98452 0.31863 0.0
C578 C 0.55086 0.98909 0.30011 0.0
H579 H 0.54109 0.92714 0.25883 0.0
H580 H 0.56189 0.95054 0.27034 0.0
H581 H 0.53498 0.93732 0.28217 0.0
H582 H 0.48739 0.98847 0.3026 0.0
H583 H 0.49675 0.98076 0.33493 0.0
H584 H 0.07164 0.97567 0.6916 0.0
H585 H 0.05958 0.98384 0.72357 0.0
H586 H 0.98317 0.99525 0.70683 0.0
H587 H 0.99492 0.98678 0.67498 0.0
H588 H 0.03361 0.02767 0.74255 0.0
H589 H 0.98055 0.92877 0.74214 0.0
H590 H 1.0025 0.93779 0.72438 0.0
H591 H 0.97187 0.95284 0.72454 0.0
C592 C 0.05235 0.9804 0.69469 0.0
C593 C 0.03419 0.98023 0.68078 0.0
C594 C 0.04549 0.98505 0.71296 0.0
C595 C 0.0204 0.9896 0.71759 0.0
C596 C 1.00255 0.99124 0.70358 0.0
H597 H 0.94335 0.98308 0.82282 0.0
H598 H 0.9532 0.99249 0.79063 0.0
C599 C 0.00934 0.98649 0.68537 0.0
C600 C 0.01258 0.9906 0.73708 0.0
H601 H 0.97831 0.95561 0.769 0.0
C602 C 0.02148 0.01198 0.74836 0.0
C603 C 0.99676 0.97008 0.74461 0.0
C604 C 0.9875 0.94591 0.73338 0.0
C605 C 0.0148 0.01347 0.76698 0.0
C606 C 0.99918 0.99277 0.77453 0.0
C607 C 0.99009 0.97161 0.76317 0.0
C608 C 0.99324 0.99139 0.7944 0.0
C609 C 0.02437 0.0373 0.77834 0.0
C610 C 0.01244 0.98808 0.80726 0.0
C611 C 1.00687 0.98276 0.82563 0.0
C612 C 0.98196 0.9804 0.83151 0.0
C613 C 0.96272 0.98486 0.81876 0.0
C614 C 0.96833 0.99018 0.80035 0.0
H615 H 0.02921 0.05539 0.76965 0.0
H616 H 0.0104 0.04383 0.7887 0.0
H617 H 0.04153 0.03078 0.78564 0.0
H618 H 0.03178 0.9883 0.80296 0.0
H619 H 0.02216 0.97935 0.83507 0.0
H620 H 0.51648 0.04952 0.68353 0.0
H621 H 0.52609 0.03887 0.71525 0.0
H622 H 0.46709 0.97793 0.71606 0.0
H623 H 0.45606 0.99042 0.68446 0.0
H624 H 0.46442 0.00283 0.74537 0.0
H625 H 0.56421 0.98099 0.73892 0.0
H626 H 0.55934 0.01475 0.72965 0.0
H627 H 0.54473 0.98507 0.71899 0.0
C628 C 0.50577 0.03354 0.69037 0.0
C629 C 0.48566 0.02061 0.68148 0.0
C630 C 0.51149 0.02719 0.70853 0.0
C631 C 0.49796 0.00686 0.71807 0.0
C632 C 0.47803 0.99353 0.70905 0.0
H633 H 0.55888 0.98942 0.82976 0.0
H634 H 0.547 0.97654 0.79837 0.0
C635 C 0.47175 0.00058 0.69098 0.0
C636 C 0.50334 0.00161 0.73786 0.0
H637 H 0.55122 -8e-05 0.76867 0.0
C638 C 0.48343 0.00154 0.75038 0.0
C639 C 0.52798 0.99879 0.74468 0.0
C640 C 0.55016 0.99454 0.73227 0.0
C641 C 0.48756 0.00086 0.76938 0.0
C642 C 0.51233 0.00203 0.77618 0.0
C643 C 0.53217 -0.0001 0.76367 0.0
C644 C 0.51808 0.00764 0.79587 0.0
C645 C 0.46516 0.99885 0.78185 0.0
C646 C 0.50593 0.02931 0.80508 0.0
C647 C 0.51207 0.03591 0.82313 0.0
C648 C 0.5313 0.02185 0.83223 0.0
C649 C 0.54388 0.00047 0.82307 0.0
C650 C 0.53711 0.9932 0.80512 0.0
H651 H 0.45024 0.98615 0.77542 0.0
H652 H 0.46996 0.98953 0.79529 0.0
H653 H 0.45735 0.01981 0.7841 0.0
H654 H 0.49211 0.0418 0.79816 0.0
H655 H 0.50244 0.05292 0.8297 0.0
H656 H 0.57498 0.51557 0.19028 0.0
H657 H 0.56484 0.50605 0.2224 0.0
H658 H 0.48638 0.51032 0.2097 0.0
H659 H 0.49629 0.5194 0.17766 0.0
H660 H 0.53953 0.54287 0.24396 0.0
H661 H 0.48863 0.44309 0.24293 0.0
H662 H 0.50763 0.45472 0.22399 0.0
H663 H 0.47647 0.46776 0.2269 0.0
C664 C 0.55557 0.51379 0.19424 0.0
C665 C 0.53645 0.51831 0.1814 0.0
C666 C 0.5498 0.5084 0.21261 0.0
C667 C 0.52484 0.50718 0.21844 0.0
C668 C 0.50575 0.51054 0.20549 0.0
H669 H 0.44539 0.52264 0.32078 0.0
H670 H 0.4578 0.51443 0.2889 0.0
C671 C 0.51149 0.51594 0.18716 0.0
C672 C 0.51872 0.50572 0.23828 0.0
H673 H 0.48398 0.47074 0.27004 0.0
C674 C 0.5277 0.52686 0.24971 0.0
C675 C 0.50302 0.485 0.24573 0.0
C676 C 0.49356 0.46121 0.23428 0.0
C677 C 0.52085 0.52834 0.26824 0.0
C678 C 0.50496 0.50779 0.27566 0.0
C679 C 0.49618 0.48644 0.26432 0.0
C680 C 0.49692 0.50877 0.29511 0.0
C681 C 0.53 0.55249 0.27954 0.0
C682 C 0.51462 0.50717 0.30922 0.0
C683 C 0.50763 0.51196 0.32738 0.0
C684 C 0.48273 0.51819 0.33183 0.0
C685 C 0.46472 0.51793 0.31781 0.0
C686 C 0.47178 0.51327 0.29959 0.0
H687 H 0.53701 0.56966 0.27083 0.0
H688 H 0.51491 0.56057 0.28848 0.0
H689 H 0.54555 0.54556 0.28845 0.0
H690 H 0.53404 0.50319 0.30609 0.0
H691 H 0.52194 0.51173 0.33786 0.0
H692 H 0.07468 0.48229 0.32234 0.0
H693 H 0.06523 0.4915 0.29007 0.0
H694 H 0.98659 0.49205 0.3025 0.0
H695 H 0.99583 0.48332 0.33469 0.0
H696 H 0.0384 0.45575 0.26879 0.0
H697 H 0.99234 0.55816 0.26857 0.0
H698 H 0.01055 0.54594 0.28774 0.0
H699 H 0.97882 0.53458 0.28476 0.0
C700 C 0.05541 0.48505 0.31828 0.0
C701 C 0.03601 0.482 0.33109 0.0
C702 C 0.05004 0.49027 0.29983 0.0
C703 C 0.02521 0.49277 0.29388 0.0
C704 C 1.0059 0.49084 0.30679 0.0
H705 H 0.94621 0.47852 0.19127 0.0
H706 H 0.95859 0.48698 0.22314 0.0
C707 C 0.01124 0.48563 0.32521 0.0
C708 C 0.01931 0.49408 0.27401 0.0
H709 H 0.98656 0.53017 0.24172 0.0
C710 C 0.02738 0.47224 0.26282 0.0
C711 C 1.00469 0.51546 0.26627 0.0
C712 C 0.99629 0.54 0.27742 0.0
C713 C 0.02066 0.47073 0.24427 0.0
C714 C 1.00582 0.49192 0.23657 0.0
C715 C 0.99795 0.51397 0.24766 0.0
C716 C 0.99794 0.49093 0.21709 0.0
C717 C 0.0288 0.44591 0.23323 0.0
C718 C 0.01583 0.4915 0.20308 0.0
C719 C 0.00886 0.48659 0.18492 0.0
C720 C 0.98379 0.48123 0.1804 0.0
C721 C 0.96566 0.48254 0.1943 0.0
C722 C 0.9727 0.48735 0.21251 0.0
H723 H 0.03504 0.42861 0.24213 0.0
H724 H 0.0134 0.43836 0.22435 0.0
H725 H 0.04465 0.45188 0.22428 0.0
H726 H 0.03535 0.49474 0.20628 0.0
H727 H 0.02327 0.48598 0.17453 0.0
H728 H 0.49329 0.48669 0.67582 0.0
H729 H 0.48159 0.49563 0.70759 0.0
H730 H 0.55864 0.48882 0.7239 0.0
H731 H 0.5706 0.48014 0.69202 0.0
H732 H 0.48948 0.45708 0.73482 0.0
H733 H 0.53509 0.55646 0.75299 0.0
H734 H 0.53034 0.54563 0.72955 0.0
H735 H 0.55559 0.53151 0.74275 0.0
C736 C 0.50787 0.48769 0.68608 0.0
C737 C 0.53289 0.48259 0.68138 0.0
C738 C 0.50112 0.4928 0.70425 0.0
C739 C 0.51923 0.49307 0.71812 0.0
C740 C 0.54439 0.48922 0.71339 0.0
H741 H 0.5204 0.47951 0.83532 0.0
H742 H 0.52971 0.48808 0.80308 0.0
C743 C 0.55119 0.48415 0.69516 0.0
C744 C 0.5114 0.49418 0.73763 0.0
H745 H 0.51905 0.52958 0.77779 0.0
C746 C 0.49569 0.47313 0.74417 0.0
C747 C 0.51969 0.51501 0.74983 0.0
C748 C 0.53594 0.53859 0.74343 0.0
C749 C 0.48861 0.47183 0.76265 0.0
C750 C 0.49698 0.49256 0.77491 0.0
C751 C 0.51249 0.51383 0.76835 0.0
C752 C 0.49109 0.49132 0.79479 0.0
C753 C 0.47305 0.44759 0.76901 0.0
C754 C 0.46628 0.49141 0.801 0.0
C755 C 0.46084 0.48633 0.81947 0.0
C756 C 0.48017 0.48133 0.83206 0.0
C757 C 0.50504 0.48313 0.82599 0.0
C758 C 0.51043 0.48807 0.80754 0.0
H759 H 0.47319 0.43035 0.75893 0.0
H760 H 0.47988 0.43961 0.78236 0.0
H761 H 0.45344 0.45435 0.77082 0.0
H762 H 0.45107 0.49447 0.79145 0.0
H763 H 0.44151 0.48527 0.82372 0.0
H764 H 0.99347 0.51587 0.83712 0.0
H765 H 0.98108 0.50686 0.80549 0.0
H766 H 0.0582 0.50932 0.78876 0.0
H767 H 0.07084 0.51803 0.8205 0.0
H768 H 0.99026 0.54431 0.77797 0.0
H769 H 0.03148 0.44261 0.76027 0.0
H770 H 0.02756 0.45408 0.78366 0.0
H771 H 0.05319 0.46671 0.77014 0.0
C772 C 1.00789 0.51389 0.82681 0.0
C773 C 0.03316 0.51779 0.83133 0.0
C774 C 1.00074 0.50874 0.80871 0.0
C775 C 0.01869 0.50724 0.79476 0.0
C776 C 0.04404 0.50986 0.79934 0.0
H777 H 0.01893 0.51896 0.67741 0.0
H778 H 0.02839 0.51086 0.70968 0.0
C779 C 0.05124 0.51496 0.81749 0.0
C780 C 0.01063 0.50619 0.7753 0.0
H781 H 0.01642 0.46988 0.73534 0.0
C782 C 0.99572 0.52785 0.7687 0.0
C783 C 0.01794 0.48482 0.7632 0.0
C784 C 0.03324 0.46059 0.76967 0.0
C785 C 0.98849 0.52918 0.75025 0.0
C786 C 0.9959 0.50791 0.73809 0.0
C787 C 0.01061 0.48606 0.74471 0.0
C788 C 0.9898 0.50908 0.71826 0.0
C789 C 0.97381 0.55396 0.74381 0.0
C790 C 0.96492 0.50973 0.71222 0.0
C791 C 0.9594 0.51452 0.69373 0.0
C792 C 0.97871 0.51853 0.68095 0.0
C793 C 1.00359 0.51612 0.68689 0.0
C794 C 0.00906 0.51143 0.70535 0.0
H795 H 0.97467 0.57132 0.75378 0.0
H796 H 0.98084 0.56146 0.73038 0.0
H797 H 0.95395 0.548 0.74211 0.0
H798 H 0.94975 0.5074 0.7219 0.0
H799 H 0.94005 0.51608 0.6896 0.0
H800 H 0.08139 0.159 0.12277 0.0
H801 H 0.06497 0.20623 0.1243 0.0
H802 H 0.997 0.17552 0.14851 0.0
H803 H 0.01316 0.12839 0.14712 0.0
H804 H 0.01963 0.22475 0.10719 0.0
H805 H 0.01857 0.23992 0.18265 0.0
H806 H 0.03703 0.21347 0.17165 0.0
H807 H 1.00408 0.20855 0.17475 0.0
C808 C 0.06307 0.16232 0.12862 0.0
C809 C 0.04861 0.13989 0.13483 0.0
C810 C 0.05371 0.18929 0.12944 0.0
C811 C 0.02988 0.19434 0.13667 0.0
C812 C 0.01558 0.1721 0.14313 0.0
H813 H 0.93606 0.33942 0.12054 0.0
H814 H 0.95252 0.29219 0.12212 0.0
C815 C 0.02483 0.14515 0.14224 0.0
C816 C 0.01942 0.22266 0.13665 0.0
H817 H 0.99799 0.27392 0.16472 0.0
C818 C 0.01496 0.23557 0.11976 0.0
C819 C 0.01347 0.23669 0.15308 0.0
C820 C 0.01869 0.22412 0.17159 0.0
C821 C 1.00439 0.26207 0.11884 0.0
C822 C 0.99792 0.27586 0.13526 0.0
C823 C 1.00271 0.26312 0.15217 0.0
C824 C 0.98719 0.30406 0.13515 0.0
C825 C 1.00058 0.27533 0.10034 0.0
C826 C 1.00093 0.32616 0.14242 0.0
C827 C 0.99161 0.35308 0.14156 0.0
C828 C 0.96824 0.35841 0.13352 0.0
C829 C 0.95413 0.33605 0.12677 0.0
C830 C 0.96356 0.30909 0.12757 0.0
H831 H 0.01112 0.26447 0.08938 0.0
H832 H 0.98047 0.27463 0.09677 0.0
H833 H 1.00648 0.29736 0.10061 0.0
H834 H 0.01915 0.32267 0.1484 0.0
H835 H 1.00294 0.36975 0.14698 0.0
H836 H 0.49171 0.86579 0.15544 0.0
H837 H 0.50898 0.81906 0.15626 0.0
H838 H 0.46183 0.79564 0.11087 0.0
H839 H 0.4435 0.84198 0.11071 0.0
H840 H 0.46373 0.75529 0.13376 0.0
H841 H 0.5607 0.79047 0.12255 0.0
H842 H 0.54793 0.80521 0.14302 0.0
H843 H 0.53452 0.81368 0.12107 0.0
C844 C 0.4849 0.85057 0.14574 0.0
C845 C 0.46637 0.85753 0.13293 0.0
C846 C 0.49499 0.82396 0.14608 0.0
C847 C 0.48736 0.80402 0.13323 0.0
C848 C 0.46822 0.8107 0.12082 0.0
H849 H 0.5733 0.65549 0.10881 0.0
H850 H 0.55529 0.70201 0.10924 0.0
C851 C 0.4577 0.83716 0.12076 0.0
C852 C 0.49921 0.77622 0.13275 0.0
H853 H 0.55555 0.74335 0.13156 0.0
C854 C 0.48381 0.75271 0.13316 0.0
C855 C 0.52541 0.77273 0.13154 0.0
C856 C 0.54305 0.79687 0.12931 0.0
C857 C 0.49382 0.7259 0.13268 0.0
C858 C 0.52007 0.72243 0.13264 0.0
C859 C 0.53546 0.74593 0.13192 0.0
C860 C 0.53193 0.69463 0.13297 0.0
C861 C 0.47602 0.7017 0.13168 0.0
C862 C 0.52546 0.67523 0.14649 0.0
C863 C 0.53533 0.64852 0.14602 0.0
C864 C 0.5525 0.64094 0.13238 0.0
C865 C 0.56014 0.66081 0.11951 0.0
C866 C 0.54981 0.68737 0.11973 0.0
H867 H 0.45779 0.70788 0.12572 0.0
H868 H 0.48379 0.6846 0.1233 0.0
H869 H 0.47241 0.69387 0.14572 0.0
H870 H 0.5125 0.6806 0.15729 0.0
H871 H 0.52936 0.63371 0.15627 0.0
H872 H 0.5078 0.62801 0.37617 0.0
H873 H 0.52375 0.67522 0.37525 0.0
H874 H 0.449 0.70665 0.38158 0.0
H875 H 0.43286 0.65926 0.38307 0.0
H876 H 0.51526 0.71746 0.35224 0.0
H877 H 0.48494 0.74654 0.42233 0.0
H878 H 0.48417 0.71131 0.4142 0.0
H879 H 0.45982 0.73507 0.40795 0.0
C880 C 0.49467 0.64491 0.37736 0.0
C881 C 0.46903 0.63981 0.37984 0.0
C882 C 0.50386 0.67194 0.37682 0.0
C883 C 0.48766 0.6945 0.37869 0.0
C884 C 0.46194 0.68955 0.3806 0.0
H885 H 0.50918 0.87166 0.37523 0.0
H886 H 0.49308 0.82445 0.37403 0.0
C887 C 0.45272 0.66245 0.38131 0.0
C888 C 0.49787 0.72309 0.37859 0.0
H889 H 0.50147 0.78254 0.40381 0.0
C890 C 0.51232 0.73164 0.36355 0.0
C891 C 0.49417 0.74154 0.39343 0.0
C892 C 0.48015 0.73312 0.41047 0.0
C893 C 0.52283 0.75825 0.36282 0.0
C894 C 0.51883 0.77671 0.37752 0.0
C895 C 0.50441 0.76826 0.39255 0.0
C896 C 0.5291 0.80514 0.37746 0.0
C897 C 0.53785 0.76669 0.34626 0.0
C898 C 0.55475 0.80986 0.37978 0.0
C899 C 0.56409 0.83691 0.38059 0.0
C900 C 0.54789 0.85966 0.37903 0.0
C901 C 0.52223 0.85469 0.37643 0.0
C902 C 0.51294 0.82772 0.37577 0.0
H903 H 0.53613 0.75151 0.33489 0.0
H904 H 0.53175 0.7873 0.34128 0.0
H905 H 0.55782 0.76834 0.35012 0.0
H906 H 0.56746 0.79262 0.38127 0.0
H907 H 0.58391 0.83999 0.38262 0.0
H908 H 0.00896 0.37149 0.37533 0.0
H909 H 0.99351 0.32408 0.37435 0.0
H910 H 0.06842 0.29362 0.38164 0.0
H911 H 0.08405 0.34121 0.38319 0.0
H912 H 1.00289 0.2818 0.35155 0.0
H913 H 0.03201 0.25358 0.42206 0.0
H914 H 0.03262 0.28875 0.41385 0.0
H915 H 0.05731 0.26522 0.40792 0.0
C916 C 0.02223 0.35476 0.37672 0.0
C917 C 0.04776 0.3602 0.37948 0.0
C918 C 0.01332 0.32762 0.37614 0.0
C919 C 0.0297 0.30527 0.37826 0.0
C920 C 0.05533 0.31054 0.38045 0.0
H921 H 0.00894 0.12781 0.37469 0.0
H922 H 0.025 0.17506 0.37345 0.0
C923 C 0.06426 0.33776 0.38121 0.0
C924 C 0.01978 0.27656 0.37812 0.0
H925 H 0.01604 0.21731 0.40349 0.0
C926 C 1.00571 0.26774 0.36294 0.0
C927 C 0.0233 0.25827 0.39305 0.0
C928 C 0.03692 0.26697 0.41022 0.0
C929 C 0.99537 0.24105 0.3622 0.0
C930 C 0.99918 0.22277 0.377 0.0
C931 C 0.01325 0.23146 0.39215 0.0
C932 C 0.98897 0.19432 0.37696 0.0
C933 C 0.98071 0.23234 0.34552 0.0
C934 C 0.96334 0.18958 0.37933 0.0
C935 C 0.95403 0.16253 0.38016 0.0
C936 C 0.97024 0.13979 0.37857 0.0
C937 C 0.99588 0.14477 0.37591 0.0
C938 C 1.00514 0.17176 0.37523 0.0
H939 H 0.9824 0.24749 0.33415 0.0
H940 H 0.98714 0.2118 0.34061 0.0
H941 H 0.9607 0.23038 0.34922 0.0
H942 H 0.95061 0.20682 0.38084 0.0
H943 H 0.93421 0.15944 0.38225 0.0
H944 H 0.07402 0.65584 0.9017 0.0
H945 H 0.05603 0.70234 0.90156 0.0
H946 H 0.00924 0.67967 0.85581 0.0
H947 H 0.02616 0.63279 0.85658 0.0
H948 H 0.05461 0.74291 0.87873 0.0
H949 H 0.95736 0.70827 0.88946 0.0
H950 H 0.98342 0.6849 0.89098 0.0
H951 H 0.97026 0.69363 0.869 0.0
C952 C 0.05998 0.66086 0.89156 0.0
C953 C 0.05129 0.64064 0.87928 0.0
C954 C 0.04965 0.68741 0.89152 0.0
C955 C 0.03071 0.69434 0.87902 0.0
C956 C 0.02309 0.67458 0.86606 0.0
H957 H 0.98961 0.86518 0.8567 0.0
H958 H 1.00627 0.81821 0.85546 0.0
C959 C 0.03298 0.64787 0.86637 0.0
C960 C 0.01901 0.72222 0.87955 0.0
H961 H 0.96285 0.75546 0.88078 0.0
C962 C 0.03455 0.74563 0.87929 0.0
C963 C 0.99283 0.72587 0.88071 0.0
C964 C 0.97504 0.70182 0.88277 0.0
C965 C 0.02469 0.77249 0.87988 0.0
C966 C 0.99846 0.77614 0.87989 0.0
C967 C 0.98293 0.75274 0.88045 0.0
C968 C 0.98676 0.80403 0.8797 0.0
C969 C 0.04261 0.79656 0.88102 0.0
C970 C 0.96892 0.81124 0.89299 0.0
C971 C 0.95871 0.83786 0.89334 0.0
C972 C 0.96643 0.85782 0.88055 0.0
C973 C 0.98358 0.85029 0.86688 0.0
C974 C 0.99333 0.82354 0.86628 0.0
H975 H 0.0608 0.7902 0.88696 0.0
H976 H 0.04627 0.80455 0.86703 0.0
H977 H 0.03492 0.81361 0.8895 0.0
H978 H 0.96336 0.79651 0.9034 0.0
H979 H 0.94556 0.84312 0.90405 0.0
H980 H 0.49424 0.36795 0.85757 0.0
H981 H 0.51188 0.32148 0.85576 0.0
H982 H 0.46353 0.29498 0.89969 0.0
H983 H 0.44493 0.34112 0.90088 0.0
H984 H 0.53779 0.2945 0.87953 0.0
H985 H 0.45306 0.23273 0.86523 0.0
H986 H 0.45315 0.26998 0.86417 0.0
H987 H 0.44981 0.25252 0.88585 0.0
C988 C 0.48708 0.35206 0.86663 0.0
C989 C 0.46808 0.35809 0.87928 0.0
C990 C 0.49724 0.32553 0.86563 0.0
C991 C 0.48886 0.30452 0.87741 0.0
C992 C 0.46983 0.31052 0.89006 0.0
H993 H 0.57574 0.15754 0.90405 0.0
H994 H 0.55858 0.20436 0.9026 0.0
C995 C 0.45927 0.33695 0.8908 0.0
C996 C 0.50098 0.27686 0.87704 0.0
H997 H 0.48904 0.20759 0.87485 0.0
C998 C 0.52712 0.2755 0.87833 0.0
C999 C 0.48717 0.25202 0.87523 0.0
C1000 C 0.45929 0.25187 0.87235 0.0
C1001 C 0.53978 0.2501 0.87804 0.0
C1002 C 0.52588 0.22522 0.87715 0.0
C1003 C 0.49976 0.2266 0.87569 0.0
C1004 C 0.53784 0.19747 0.87751 0.0
C1005 C 0.56794 0.25037 0.87823 0.0
C1006 C 0.53167 0.17776 0.8641 0.0
C1007 C 0.54092 0.15084 0.8652 0.0
C1008 C 0.55687 0.14313 0.87958 0.0
C1009 C 0.5638 0.16305 0.89266 0.0
C1010 C 0.55407 0.18987 0.89178 0.0
H1011 H 0.57545 0.27015 0.87277 0.0
H1012 H 0.57458 0.24826 0.89256 0.0
H1013 H 0.57573 0.2331 0.87001 0.0
H1014 H 0.51924 0.18305 0.85294 0.0
H1015 H 0.53528 0.13591 0.85492 0.0
H1016 H 0.43498 0.15861 0.61623 0.0
H1017 H 0.45101 0.20617 0.61737 0.0
H1018 H 0.51165 0.17952 0.65185 0.0
H1019 H 0.49589 0.13214 0.65084 0.0
H1020 H 0.48687 0.2301 0.66322 0.0
H1021 H 0.51665 0.23027 0.59019 0.0
H1022 H 0.48492 0.22005 0.5946 0.0
H1023 H 0.51006 0.19879 0.60261 0.0
C1024 C 0.45157 0.16293 0.62421 0.0
C1025 C 0.46423 0.14153 0.63335 0.0
C1026 C 0.46078 0.19005 0.62475 0.0
C1027 C 0.48268 0.19621 0.6345 0.0
C1028 C 0.49479 0.17513 0.64418 0.0
H1029 H 0.57961 0.34017 0.62486 0.0
H1030 H 0.56247 0.29317 0.62639 0.0
C1031 C 0.48574 0.14806 0.64355 0.0
C1032 C 0.49344 0.22446 0.63437 0.0
H1033 H 0.52193 0.27189 0.60671 0.0
C1034 C 0.49449 0.23931 0.65088 0.0
C1035 C 0.50374 0.23614 0.6183 0.0
C1036 C 0.50404 0.22051 0.60041 0.0
C1037 C 0.5053 0.26577 0.65169 0.0
C1038 C 0.51509 0.27775 0.63551 0.0
C1039 C 0.51433 0.26271 0.61906 0.0
C1040 C 0.52578 0.30607 0.63529 0.0
C1041 C 0.50651 0.28048 0.66991 0.0
C1042 C 0.51083 0.32886 0.63972 0.0
C1043 C 0.52055 0.35564 0.63893 0.0
C1044 C 0.54543 0.36028 0.63352 0.0
C1045 C 0.56043 0.33736 0.62914 0.0
C1046 C 0.55065 0.3105 0.62996 0.0
H1047 H 0.50457 0.26582 0.68155 0.0
H1048 H 0.52435 0.29196 0.67144 0.0
H1049 H 0.49098 0.29557 0.67077 0.0
H1050 H 0.49146 0.32598 0.6435 0.0
H1051 H 0.50837 0.37276 0.64228 0.0
H1052 H 1.00811 0.87115 0.6366 0.0
H1053 H 0.9918 0.82401 0.63764 0.0
H1054 H 0.06577 0.79185 0.62894 0.0
H1055 H 0.08244 0.83915 0.62772 0.0
H1056 H 0.99971 0.78194 0.60723 0.0
H1057 H 0.03494 0.75105 0.67601 0.0
H1058 H 0.03023 0.78682 0.66974 0.0
H1059 H 0.05631 0.76814 0.66067 0.0
C1060 C 0.02103 0.85412 0.63503 0.0
C1061 C 0.04664 0.85898 0.63208 0.0
C1062 C 0.01162 0.8272 0.6356 0.0
C1063 C 0.0276 0.80456 0.63346 0.0
C1064 C 0.0532 0.80915 0.63076 0.0
H1065 H 1.00577 0.62762 0.63549 0.0
H1066 H 0.02179 0.67479 0.63611 0.0
C1067 C 0.06266 0.83616 0.63004 0.0
C1068 C 0.01721 0.77618 0.63347 0.0
H1069 H 0.01352 0.71715 0.65891 0.0
C1070 C 1.00266 0.76771 0.61851 0.0
C1071 C 0.02122 0.75781 0.64819 0.0
C1072 C 0.0364 0.76628 0.66467 0.0
C1073 C 0.99229 0.74104 0.61773 0.0
C1074 C 0.99599 0.72267 0.63259 0.0
C1075 C 0.01057 0.73126 0.64757 0.0
C1076 C 0.98573 0.6941 0.63259 0.0
C1077 C 0.97814 0.73257 0.60074 0.0
C1078 C 0.96 0.68917 0.63071 0.0
C1079 C 0.95073 0.66206 0.63016 0.0
C1080 C 0.96701 0.63941 0.63178 0.0
C1081 C 0.99266 0.64452 0.6342 0.0
C1082 C 1.00189 0.67153 0.63457 0.0
H1083 H 0.98293 0.74589 0.58884 0.0
H1084 H 0.98204 0.71072 0.59705 0.0
H1085 H 0.95783 0.73466 0.60332 0.0
H1086 H 0.94707 0.70627 0.62965 0.0
H1087 H 0.93087 0.65887 0.62843 0.0
H1088 H 0.93938 0.96343 0.951 0.0
H1089 H 0.95691 0.97615 0.98071 0.0
H1090 H 0.02488 0.00254 0.95436 0.0
H1091 H 1.00744 0.99008 0.92447 0.0
H1092 H 1.00056 0.95317 0.99589 0.0
H1093 H 1.00835 0.06732 0.9889 0.0
H1094 H 0.98895 0.04659 0.974 0.0
H1095 H 0.02213 0.04766 0.97062 0.0
C1096 C 0.95793 0.97232 0.95143 0.0
C1097 C 0.97199 0.97572 0.9353 0.0
C1098 C 0.96794 0.97951 0.96846 0.0
C1099 C 0.99213 0.99043 0.96974 0.0
C1100 C 1.00602 0.99454 0.95366 0.0
H1101 H 0.08349 0.03999 0.06278 0.0
H1102 H 0.06837 0.02734 0.03231 0.0
C1103 C 0.99603 0.98733 0.93658 0.0
C1104 C 1.00321 0.99598 0.988 0.0
H1105 H 0.02632 0.04729 0.01535 0.0
C1106 C 1.00615 0.97376 1.00018 0.0
C1107 C 0.01063 0.02281 0.99349 0.0
C1108 C 1.00721 0.04756 0.98116 0.0
C1109 C 0.01648 0.97759 0.01768 0.0
C1110 C 0.0236 0.00448 0.02328 0.0
C1111 C 0.02087 0.02668 0.01103 0.0
C1112 C 0.03343 0.01023 0.04193 0.0
C1113 C 0.02006 0.95272 0.02987 0.0
C1114 C 0.01889 0.00463 0.05749 0.0
C1115 C 0.02753 0.01168 0.07497 0.0
C1116 C 0.0508 0.02478 0.07721 0.0
C1117 C 0.0655 0.02991 0.06159 0.0
C1118 C 0.05687 0.02276 0.04414 0.0
H1119 H 0.02058 0.93321 0.02183 0.0
H1120 H 0.03756 0.95445 0.03793 0.0
H1121 H 1.00419 0.9513 0.0396 0.0
H1122 H 1.00052 0.99549 0.0561 0.0
H1123 H 0.01562 0.00763 0.08666 0.0
H1124 H 0.50933 0.0147 0.92507 0.0
H1125 H 0.4919 0.00272 0.95509 0.0
H1126 H 0.56173 0.02402 0.9808 0.0
H1127 H 0.57927 0.0362 0.95102 0.0
H1128 H 0.50858 0.96426 0.98217 0.0
H1129 H 0.51028 0.0723 0.00797 0.0
H1130 H 0.51358 0.06389 0.98399 0.0
H1131 H 0.53963 0.06013 0.99929 0.0
C1132 C 0.52106 0.01664 0.93708 0.0
C1133 C 0.54565 0.02664 0.93561 0.0
C1134 C 0.51104 0.00983 0.95423 0.0
C1135 C 0.52537 0.01305 0.97019 0.0
C1136 C 0.55018 0.02198 0.96869 0.0
H1137 H 0.50301 0.98826 0.08663 0.0
H1138 H 0.51847 0.00064 0.05615 0.0
C1139 C 0.56021 0.02876 0.95161 0.0
C1140 C 0.51441 0.00726 0.98846 0.0
H1141 H 0.50063 0.03727 0.02963 0.0
C1142 C 0.50667 0.98022 0.99252 0.0
C1143 C 0.512 0.02816 1.00194 0.0
C1144 C 0.51909 0.05782 0.99809 0.0
C1145 C 0.49716 0.97335 0.00988 0.0
C1146 C 0.49485 0.99423 0.02339 0.0
C1147 C 0.50244 0.02131 0.01927 0.0
C1148 C 0.48482 0.98827 0.04194 0.0
C1149 C 0.49034 0.94362 0.01374 0.0
C1150 C 0.46049 0.97806 0.04413 0.0
C1151 C 0.4516 0.97094 0.0615 0.0
C1152 C 0.46681 0.9741 0.0771 0.0
C1153 C 0.4908 0.98551 0.07494 0.0
C1154 C 0.4997 0.99255 0.05752 0.0
H1155 H 0.49916 0.92923 1.00381 0.0
H1156 H 0.49604 0.93755 0.0278 0.0
H1157 H 0.46981 0.94111 0.01264 0.0
H1158 H 0.44846 0.97525 0.03235 0.0
H1159 H 0.43296 0.96244 0.06264 0.0
H1160 H 0.43994 0.03793 0.5621 0.0
H1161 H 0.45737 0.02538 0.53233 0.0
H1162 H 0.52448 0.99669 0.55866 0.0
H1163 H 0.50716 0.00901 0.58861 0.0
H1164 H 0.50189 0.04721 0.51733 0.0
H1165 H 0.50598 0.93277 0.52373 0.0
H1166 H 0.48708 0.95398 0.53862 0.0
H1167 H 0.52017 0.95175 0.54218 0.0
C1168 C 0.45829 0.0286 0.56164 0.0
C1169 C 0.47214 0.02448 0.5778 0.0
C1170 C 0.46824 0.02152 0.54458 0.0
C1171 C 0.49214 0.00995 0.54328 0.0
C1172 C 0.50584 0.00521 0.55937 0.0
H1173 H 0.58286 0.95846 0.45048 0.0
H1174 H 0.56766 0.97118 0.4809 0.0
C1175 C 0.49592 0.01235 0.57648 0.0
C1176 C 0.50313 0.00424 0.52501 0.0
H1177 H 0.52477 0.95248 0.49745 0.0
C1178 C 0.50685 0.0265 0.51295 0.0
C1179 C 0.5097 0.97724 0.51938 0.0
C1180 C 0.50538 0.95248 0.53156 0.0
C1181 C 0.51719 0.02251 0.49546 0.0
C1182 C 0.5235 0.99545 0.48973 0.0
C1183 C 0.51995 0.97322 0.50186 0.0
C1184 C 0.53341 0.9896 0.47112 0.0
C1185 C 0.52166 0.04739 0.48341 0.0
C1186 C 0.5193 0.9959 0.45547 0.0
C1187 C 0.528 0.9888 0.43801 0.0
C1188 C 0.55089 0.97497 0.43587 0.0
C1189 C 0.56517 0.96913 0.45158 0.0
C1190 C 0.55649 0.97631 0.46901 0.0
H1191 H 0.52267 0.06678 0.49156 0.0
H1192 H 0.5392 0.04518 0.47546 0.0
H1193 H 0.50597 0.04942 0.47359 0.0
H1194 H 0.50121 0.00563 0.45677 0.0
H1195 H 0.51641 0.99342 0.42626 0.0
H1196 H 0.07926 0.95849 0.56146 0.0
H1197 H 0.0627 0.97133 0.53146 0.0
H1198 H 0.99834 0.0077 0.55736 0.0
H1199 H 0.01485 0.99526 0.58746 0.0
H1200 H 0.01751 0.95303 0.5169 0.0
H1201 H 0.01983 0.06765 0.52112 0.0
H1202 H 0.03708 0.04586 0.53668 0.0
H1203 H 1.00419 0.0511 0.53993 0.0
C1204 C 0.06177 0.96962 0.56084 0.0
C1205 C 0.04841 0.97585 0.57692 0.0
C1206 C 0.0523 0.97687 0.54365 0.0
C1207 C 0.02938 0.99065 0.54217 0.0
C1208 C 0.01627 0.99751 0.55819 0.0
H1209 H 0.93716 0.04272 0.45065 0.0
H1210 H 0.95334 0.03028 0.48084 0.0
C1211 C 0.02573 0.99028 0.5754 0.0
C1212 C 0.01853 0.99631 0.52385 0.0
H1213 H 0.9982 0.04812 0.49584 0.0
C1214 C 0.0134 0.97383 0.51224 0.0
C1215 C 0.01306 0.02344 0.51786 0.0
C1216 C 0.019 0.04845 0.52946 0.0
C1217 C 1.00261 0.9777 0.4949 0.0
C1218 C 0.9972 0.00484 0.48888 0.0
C1219 C 1.00229 0.02732 0.50051 0.0
C1220 C 0.98662 0.01049 0.47046 0.0
C1221 C 0.99662 0.95267 0.48334 0.0
C1222 C 0.99987 0.00329 0.45457 0.0
C1223 C 0.99063 0.01026 0.43726 0.0
C1224 C 0.96803 0.0248 0.4355 0.0
C1225 C 0.95458 0.03148 0.45146 0.0
C1226 C 0.96383 0.02447 0.46876 0.0
H1227 H 0.99547 0.93356 0.49174 0.0
H1228 H 0.9787 0.95539 0.47593 0.0
H1229 H 0.01161 0.94974 0.47303 0.0
H1230 H 0.01772 0.99296 0.45557 0.0
H1231 H 1.00158 0.00495 0.4253 0.0
H1232 H 0.51164 0.50932 0.08819 0.0
H1233 H 0.49488 0.49622 0.05819 0.0
H1234 H 0.56363 0.52166 0.03253 0.0
H1235 H 0.58065 0.53443 0.06235 0.0
H1236 H 0.48802 0.53176 0.02852 0.0
H1237 H 0.55145 0.44582 0.00975 0.0
H1238 H 0.54878 0.45867 0.03289 0.0
H1239 H 0.56746 0.47691 0.01635 0.0
C1240 C 0.52337 0.51169 0.07621 0.0
C1241 C 0.54753 0.5229 0.07772 0.0
C1242 C 0.51371 0.50429 0.05907 0.0
C1243 C 0.52809 0.50771 0.04315 0.0
C1244 C 0.55237 0.51834 0.04465 0.0
H1245 H 0.50352 0.48902 0.92621 0.0
H1246 H 0.51943 0.50144 0.95657 0.0
C1247 C 0.56203 0.52575 0.06175 0.0
C1248 C 0.51726 0.50179 0.02484 0.0
H1249 H 0.52594 0.46384 0.98589 0.0
C1250 C 0.49618 0.51676 0.01924 0.0
C1251 C 0.52803 0.48233 0.01273 0.0
C1252 C 0.55004 0.46481 0.01826 0.0
C1253 C 0.48586 0.51318 1.0017 0.0
C1254 C 0.49673 0.49384 0.98956 0.0
C1255 C 0.51775 0.4788 0.99519 0.0
C1256 C 0.48627 0.48836 0.97109 0.0
C1257 C 0.46376 0.53055 0.99616 0.0
C1258 C 0.46228 0.47711 0.96919 0.0
C1259 C 0.45311 0.47002 0.95188 0.0
C1260 C 0.46782 0.47391 0.93611 0.0
C1261 C 0.49165 0.48584 0.93803 0.0
C1262 C 0.50082 0.49286 0.95538 0.0
H1263 H 0.46174 0.5491 1.00503 0.0
H1264 H 0.46544 0.53739 0.98169 0.0
H1265 H 0.44649 0.51802 0.99745 0.0
H1266 H 0.45089 0.47305 0.98115 0.0
H1267 H 0.43473 0.4608 0.95094 0.0
H1268 H 0.93681 0.45885 0.06163 0.0
H1269 H 0.95331 0.47073 0.03143 0.0
H1270 H 0.01982 0.50374 0.0565 0.0
H1271 H 1.00363 0.49169 0.08682 0.0
H1272 H 0.96928 0.52176 0.01651 0.0
H1273 H 0.04656 0.44558 0.0202 0.0
H1274 H 0.02043 0.44498 0.0358 0.0
H1275 H 0.04526 0.46954 0.039 0.0
C1276 C 0.95488 0.46883 0.06078 0.0
C1277 C 0.96898 0.4741 0.07669 0.0
C1278 C 0.96427 0.47559 0.04348 0.0
C1279 C 0.98799 0.48759 0.04171 0.0
C1280 C 1.00169 0.49394 0.05756 0.0
H1281 H 0.07996 0.53834 0.95038 0.0
H1282 H 0.06276 0.52607 0.98027 0.0
C1283 C 0.99231 0.48723 0.07489 0.0
C1284 C 0.99848 0.49304 0.02326 0.0
H1285 H 0.04634 0.47565 0.99459 0.0
C1286 C 0.98607 0.51163 0.01167 0.0
C1287 C 0.02035 0.4797 0.01698 0.0
C1288 C 0.03386 0.45864 0.02855 0.0
C1289 C 0.99526 0.51771 0.9941 0.0
C1290 C 0.01717 0.50442 0.98784 0.0
C1291 C 0.02953 0.48576 0.99941 0.0
C1292 C 0.02796 0.51021 0.96951 0.0
C1293 C 0.9818 0.53887 0.98258 0.0
C1294 C 0.01441 0.50458 0.95347 0.0
C1295 C 0.02419 0.51156 0.9363 0.0
C1296 C 0.04778 0.5242 0.93486 0.0
C1297 C 0.0617 0.52874 0.95094 0.0
C1298 C 0.0519 0.52176 0.96807 0.0
H1299 H 0.9691 0.5519 0.99095 0.0
H1300 H 0.99525 0.55255 0.97537 0.0
H1301 H 0.97038 0.52805 0.97209 0.0
H1302 H 0.99612 0.49509 0.95424 0.0
H1303 H 0.013 0.50765 0.92421 0.0
H1304 H 0.93457 0.53908 0.56158 0.0
H1305 H 0.9511 0.52686 0.53145 0.0
H1306 H 0.01664 0.49239 0.55685 0.0
H1307 H 1.00017 0.5042 0.58708 0.0
H1308 H 0.99546 0.5466 0.51659 0.0
H1309 H 0.99644 0.43198 0.52061 0.0
H1310 H 0.97885 0.45313 0.53636 0.0
H1311 H 0.01191 0.44891 0.53935 0.0
C1312 C 0.95232 0.52849 0.56082 0.0
C1313 C 0.96602 0.52261 0.5768 0.0
C1314 C 0.96177 0.5216 0.54356 0.0
C1315 C 0.98501 0.50854 0.5419 0.0
C1316 C 0.99846 0.50202 0.55781 0.0
H1317 H 0.07874 0.46012 0.45049 0.0
H1318 H 0.06202 0.47219 0.4806 0.0
C1319 C 0.98903 0.50888 0.5751 0.0
C1320 C 0.9958 0.5033 0.5235 0.0
H1321 H 0.01758 0.45231 0.49537 0.0
C1322 C 1.00018 0.52597 0.51189 0.0
C1323 C 1.00204 0.47639 0.51744 0.0
C1324 C 0.99689 0.45116 0.529 0.0
C1325 C 0.01099 0.52252 0.49452 0.0
C1326 C 0.01724 0.49561 0.48847 0.0
C1327 C 0.01286 0.47294 0.50006 0.0
C1328 C 0.0281 0.49039 0.47008 0.0
C1329 C 0.01615 0.54775 0.48295 0.0
C1330 C 0.01468 0.49688 0.45414 0.0
C1331 C 0.02422 0.4901 0.43687 0.0
C1332 C 0.0473 0.47649 0.43521 0.0
C1333 C 0.06094 0.47062 0.45122 0.0
C1334 C 0.05138 0.47742 0.46847 0.0
H1335 H 0.01652 0.56694 0.49134 0.0
H1336 H 0.03422 0.5458 0.47564 0.0
H1337 H 1.00117 0.54995 0.47257 0.0
H1338 H 0.99647 0.50643 0.45507 0.0
H1339 H 0.01313 0.49477 0.42486 0.0
H1340 H 0.51406 0.49611 0.58801 0.0
H1341 H 0.49752 0.50812 0.55781 0.0
H1342 H 0.56136 0.47034 0.53211 0.0
H1343 H 0.57824 0.45853 0.56219 0.0
H1344 H 0.5477 0.52117 0.51645 0.0
H1345 H 0.46623 0.45072 0.52317 0.0
H1346 H 0.46946 0.47551 0.54136 0.0
H1347 H 0.49273 0.44918 0.5384 0.0
C1348 C 0.52474 0.49059 0.57596 0.0
C1349 C 0.54741 0.47614 0.57756 0.0
C1350 C 0.51514 0.49729 0.5587 0.0
C1351 C 0.52794 0.48957 0.54272 0.0
C1352 C 0.55107 0.47627 0.54427 0.0
H1353 H 0.50118 0.50396 0.42533 0.0
H1354 H 0.51765 0.49219 0.45559 0.0
C1355 C 0.5607 0.46957 0.5615 0.0
C1356 C 0.51709 0.49491 0.52436 0.0
H1357 H 0.46738 0.47936 0.49688 0.0
C1358 C 0.53018 0.51198 0.51213 0.0
C1359 C 0.49425 0.48282 0.51876 0.0
C1360 C 0.4799 0.46333 0.53102 0.0
C1361 C 0.52083 0.51772 0.49456 0.0
C1362 C 0.49799 0.50562 0.48897 0.0
C1363 C 0.48489 0.48856 0.5012 0.0
C1364 C 0.48719 0.51087 0.47058 0.0
C1365 C 0.53519 0.53718 0.4823 0.0
C1366 C 0.46407 0.52417 0.46895 0.0
C1367 C 0.45449 0.53074 0.45168 0.0
C1368 C 0.46781 0.52402 0.43567 0.0
C1369 C 0.49047 0.50958 0.43735 0.0
C1370 C 0.50003 0.50303 0.45465 0.0
H1371 H 0.54884 0.54983 0.49014 0.0
H1372 H 0.54566 0.52498 0.47198 0.0
H1373 H 0.52237 0.5513 0.47489 0.0
H1374 H 0.45376 0.53019 0.48108 0.0
H1375 H 0.43695 0.54178 0.45093 0.0
loop_
_geom_bond_atom_site_label_1
_geom_bond_atom_site_label_2
_geom_bond_distance
_geom_bond_site_symmetry_2
_ccdc_geom_bond_type
O0 Cd1 2.223 . S
O0 C8 1.315 . S
Cd1 O0 2.223 . S
Cd1 O4 2.297 . S
Cd1 O5 2.439 . S
Cd1 O11 2.240 . S
Cd2 O3 2.240 . S
Cd2 O10 2.223 . S
Cd2 O12 2.297 . S
Cd2 O13 2.439 . S
O3 Cd2 2.240 . S
O3 C8 1.279 . S
O4 Cd1 2.297 . S
O4 C6 1.247 . S
O5 Cd1 2.439 . S
O5 C6 1.208 . S
C6 O4 1.247 . S
C6 O5 1.208 . S
C7 O12 1.247 . S
C7 O13 1.208 . S
C8 O0 1.315 . S
C8 O3 1.279 . S
C9 O10 1.315 . S
C9 O11 1.279 . S
O10 Cd2 2.223 . S
O10 C9 1.315 . S
O11 Cd1 2.240 . S
O11 C9 1.279 . S
O12 Cd2 2.297 . S
O12 C7 1.247 . S
O13 Cd2 2.439 . S
O13 C7 1.208 . S
O14 Cd15 2.223 . S
O14 C22 1.315 . S
Cd15 O14 2.223 . S
Cd15 O18 2.297 . S
Cd15 O19 2.439 . S
Cd15 O25 2.240 . S
Cd16 O17 2.240 . S
Cd16 O24 2.223 . S
Cd16 O26 2.297 . S
Cd16 O27 2.439 . S
O17 Cd16 2.240 . S
O17 C22 1.279 . S
O18 Cd15 2.297 . S
O18 C20 1.247 . S
O19 Cd15 2.439 . S
O19 C20 1.208 . S
C20 O18 1.247 . S
C20 O19 1.208 . S
C21 O26 1.247 . S
C21 O27 1.208 . S
C22 O14 1.315 . S
C22 O17 1.279 . S
C23 O24 1.315 . S
C23 O25 1.279 . S
O24 Cd16 2.223 . S
O24 C23 1.315 . S
O25 Cd15 2.240 . S
O25 C23 1.279 . S
O26 Cd16 2.297 . S
O26 C21 1.247 . S
O27 Cd16 2.439 . S
O27 C21 1.208 . S
O28 Cd29 2.223 . S
O28 C36 1.315 . S
Cd29 O28 2.223 . S
Cd29 O32 2.297 . S
Cd29 O33 2.439 . S
Cd29 O39 2.240 . S
Cd30 O31 2.240 . S
Cd30 O38 2.223 . S
Cd30 O40 2.297 . S
Cd30 O41 2.439 . S
O31 Cd30 2.240 . S
O31 C36 1.279 . S
O32 Cd29 2.297 . S
O32 C34 1.247 . S
O33 Cd29 2.439 . S
O33 C34 1.208 . S
C34 O32 1.247 . S
C34 O33 1.208 . S
C35 O40 1.247 . S
C35 O41 1.208 . S
C36 O28 1.315 . S
C36 O31 1.279 . S
C37 O38 1.315 . S
C37 O39 1.279 . S
O38 Cd30 2.223 . S
O38 C37 1.315 . S
O39 Cd29 2.240 . S
O39 C37 1.279 . S
O40 Cd30 2.297 . S
O40 C35 1.247 . S
O41 Cd30 2.439 . S
O41 C35 1.208 . S
O42 Cd43 2.223 . S
O42 C50 1.315 . S
Cd43 O42 2.223 . S
Cd43 O46 2.297 . S
Cd43 O47 2.439 . S
Cd43 O53 2.240 . S
Cd44 O45 2.240 . S
Cd44 O52 2.223 . S
Cd44 O54 2.297 . S
Cd44 O55 2.439 . S
O45 Cd44 2.240 . S
O45 C50 1.279 . S
O46 Cd43 2.297 . S
O46 C48 1.247 . S
O47 Cd43 2.439 . S
O47 C48 1.208 . S
C48 O46 1.247 . S
C48 O47 1.208 . S
C49 O54 1.247 . S
C49 O55 1.208 . S
C50 O42 1.315 . S
C50 O45 1.279 . S
C51 O52 1.315 . S
C51 O53 1.279 . S
O52 Cd44 2.223 . S
O52 C51 1.315 . S
O53 Cd43 2.240 . S
O53 C51 1.279 . S
O54 Cd44 2.297 . S
O54 C49 1.247 . S
O55 Cd44 2.439 . S
O55 C49 1.208 . S
O56 Cd57 2.223 . S
O56 C64 1.315 . S
Cd57 O56 2.223 . S
Cd57 O60 2.297 . S
Cd57 O61 2.439 . S
Cd57 O67 2.240 . S
Cd58 O59 2.240 . S
Cd58 O66 2.223 . S
Cd58 O68 2.297 . S
Cd58 O69 2.439 . S
O59 Cd58 2.240 . S
O59 C64 1.279 . S
O60 Cd57 2.297 . S
O60 C62 1.247 . S
O61 Cd57 2.439 . S
O61 C62 1.208 . S
C62 O60 1.247 . S
C62 O61 1.208 . S
C63 O68 1.247 . S
C63 O69 1.208 . S
C64 O56 1.315 . S
C64 O59 1.279 . S
C65 O66 1.315 . S
C65 O67 1.279 . S
O66 Cd58 2.223 . S
O66 C65 1.315 . S
O67 Cd57 2.240 . S
O67 C65 1.279 . S
O68 Cd58 2.297 . S
O68 C63 1.247 . S
O69 Cd58 2.439 . S
O69 C63 1.208 . S
O70 Cd71 2.223 . S
O70 C78 1.315 . S
Cd71 O70 2.223 . S
Cd71 O74 2.297 . S
Cd71 O75 2.439 . S
Cd71 O81 2.240 . S
Cd72 O73 2.240 . S
Cd72 O80 2.223 . S
Cd72 O82 2.297 . S
Cd72 O83 2.439 . S
O73 Cd72 2.240 . S
O73 C78 1.279 . S
O74 Cd71 2.297 . S
O74 C76 1.247 . S
O75 Cd71 2.439 . S
O75 C76 1.208 . S
C76 O74 1.247 . S
C76 O75 1.208 . S
C77 O82 1.247 . S
C77 O83 1.208 . S
C78 O70 1.315 . S
C78 O73 1.279 . S
C79 O80 1.315 . S
C79 O81 1.279 . S
O80 Cd72 2.223 . S
O80 C79 1.315 . S
O81 Cd71 2.240 . S
O81 C79 1.279 . S
O82 Cd72 2.297 . S
O82 C77 1.247 . S
O83 Cd72 2.439 . S
O83 C77 1.208 . S
O84 Cd85 2.223 . S
O84 C92 1.315 . S
Cd85 O84 2.223 . S
Cd85 O88 2.297 . S
Cd85 O89 2.439 . S
Cd85 O95 2.240 . S
Cd86 O87 2.240 . S
Cd86 O94 2.223 . S
Cd86 O96 2.297 . S
Cd86 O97 2.439 . S
O87 Cd86 2.240 . S
O87 C92 1.279 . S
O88 Cd85 2.297 . S
O88 C90 1.247 . S
O89 Cd85 2.439 . S
O89 C90 1.208 . S
C90 O88 1.247 . S
C90 O89 1.208 . S
C91 O96 1.247 . S
C91 O97 1.208 . S
C92 O84 1.315 . S
C92 O87 1.279 . S
C93 O94 1.315 . S
C93 O95 1.279 . S
O94 Cd86 2.223 . S
O94 C93 1.315 . S
O95 Cd85 2.240 . S
O95 C93 1.279 . S
O96 Cd86 2.297 . S
O96 C91 1.247 . S
O97 Cd86 2.439 . S
O97 C91 1.208 . S
O98 Cd99 2.223 . S
O98 C106 1.315 . S
Cd99 O98 2.223 . S
Cd99 O102 2.297 . S
Cd99 O103 2.439 . S
Cd99 O109 2.240 . S
Cd100 O101 2.240 . S
Cd100 O108 2.223 . S
Cd100 O110 2.297 . S
Cd100 O111 2.439 . S
O101 Cd100 2.240 . S
O101 C106 1.279 . S
O102 Cd99 2.297 . S
O102 C104 1.247 . S
O103 Cd99 2.439 . S
O103 C104 1.208 . S
C104 O102 1.247 . S
C104 O103 1.208 . S
C105 O110 1.247 . S
C105 O111 1.208 . S
C106 O98 1.315 . S
C106 O101 1.279 . S
C107 O108 1.315 . S
C107 O109 1.279 . S
O108 Cd100 2.223 . S
O108 C107 1.315 . S
O109 Cd99 2.240 . S
O109 C107 1.279 . S
O110 Cd100 2.297 . S
O110 C105 1.247 . S
O111 Cd100 2.439 . S
O111 C105 1.208 . S
O112 Cd113 2.223 . S
O112 C120 1.315 . S
Cd113 O112 2.223 . S
Cd113 O116 2.297 . S
Cd113 O117 2.439 . S
Cd113 O123 2.240 . S
Cd114 O115 2.240 . S
Cd114 O122 2.223 . S
Cd114 O124 2.297 . S
Cd114 O125 2.439 . S
O115 Cd114 2.240 . S
O115 C120 1.279 . S
O116 Cd113 2.297 . S
O116 C118 1.247 . S
O117 Cd113 2.439 . S
O117 C118 1.208 . S
C118 O116 1.247 . S
C118 O117 1.208 . S
C119 O124 1.247 . S
C119 O125 1.208 . S
C120 O112 1.315 . S
C120 O115 1.279 . S
C121 O122 1.315 . S
C121 O123 1.279 . S
O122 Cd114 2.223 . S
O122 C121 1.315 . S
O123 Cd113 2.240 . S
O123 C121 1.279 . S
O124 Cd114 2.297 . S
O124 C119 1.247 . S
O125 Cd114 2.439 . S
O125 C119 1.208 . S
O126 Cd127 2.223 . S
O126 C134 1.315 . S
Cd127 O126 2.223 . S
Cd127 O130 2.297 . S
Cd127 O131 2.439 . S
Cd127 O137 2.240 . S
Cd128 O129 2.240 . S
Cd128 O136 2.223 . S
Cd128 O138 2.297 . S
Cd128 O139 2.439 . S
O129 Cd128 2.240 . S
O129 C134 1.279 . S
O130 Cd127 2.297 . S
O130 C132 1.247 . S
O131 Cd127 2.439 . S
O131 C132 1.208 . S
C132 O130 1.247 . S
C132 O131 1.208 . S
C133 O138 1.247 . S
C133 O139 1.208 . S
C134 O126 1.315 . S
C134 O129 1.279 . S
C135 O136 1.315 . S
C135 O137 1.279 . S
O136 Cd128 2.223 . S
O136 C135 1.315 . S
O137 Cd127 2.240 . S
O137 C135 1.279 . S
O138 Cd128 2.297 . S
O138 C133 1.247 . S
O139 Cd128 2.439 . S
O139 C133 1.208 . S
O140 Cd141 2.223 . S
O140 C148 1.315 . S
Cd141 O140 2.223 . S
Cd141 O144 2.297 . S
Cd141 O145 2.439 . S
Cd141 O151 2.240 . S
Cd142 O143 2.240 . S
Cd142 O150 2.223 . S
Cd142 O152 2.297 . S
Cd142 O153 2.439 . S
O143 Cd142 2.240 . S
O143 C148 1.279 . S
O144 Cd141 2.297 . S
O144 C146 1.247 . S
O145 Cd141 2.439 . S
O145 C146 1.208 . S
C146 O144 1.247 . S
C146 O145 1.208 . S
C147 O152 1.247 . S
C147 O153 1.208 . S
C148 O140 1.315 . S
C148 O143 1.279 . S
C149 O150 1.315 . S
C149 O151 1.279 . S
O150 Cd142 2.223 . S
O150 C149 1.315 . S
O151 Cd141 2.240 . S
O151 C149 1.279 . S
O152 Cd142 2.297 . S
O152 C147 1.247 . S
O153 Cd142 2.439 . S
O153 C147 1.208 . S
O154 Cd155 2.223 . S
O154 C162 1.315 . S
Cd155 O154 2.223 . S
Cd155 O158 2.297 . S
Cd155 O159 2.439 . S
Cd155 O165 2.240 . S
Cd156 O157 2.240 . S
Cd156 O164 2.223 . S
Cd156 O166 2.297 . S
Cd156 O167 2.439 . S
O157 Cd156 2.240 . S
O157 C162 1.279 . S
O158 Cd155 2.297 . S
O158 C160 1.247 . S
O159 Cd155 2.439 . S
O159 C160 1.208 . S
C160 O158 1.247 . S
C160 O159 1.208 . S
C161 O166 1.247 . S
C161 O167 1.208 . S
C162 O154 1.315 . S
C162 O157 1.279 . S
C163 O164 1.315 . S
C163 O165 1.279 . S
O164 Cd156 2.223 . S
O164 C163 1.315 . S
O165 Cd155 2.240 . S
O165 C163 1.279 . S
O166 Cd156 2.297 . S
O166 C161 1.247 . S
O167 Cd156 2.439 . S
O167 C161 1.208 . S
O168 Cd169 2.223 . S
O168 C176 1.315 . S
Cd169 O168 2.223 . S
Cd169 O172 2.297 . S
Cd169 O173 2.439 . S
Cd169 O179 2.240 . S
Cd170 O171 2.240 . S
Cd170 O178 2.223 . S
Cd170 O180 2.297 . S
Cd170 O181 2.439 . S
O171 Cd170 2.240 . S
O171 C176 1.279 . S
O172 Cd169 2.297 . S
O172 C174 1.247 . S
O173 Cd169 2.439 . S
O173 C174 1.208 . S
C174 O172 1.247 . S
C174 O173 1.208 . S
C175 O180 1.247 . S
C175 O181 1.208 . S
C176 O168 1.315 . S
C176 O171 1.279 . S
C177 O178 1.315 . S
C177 O179 1.279 . S
O178 Cd170 2.223 . S
O178 C177 1.315 . S
O179 Cd169 2.240 . S
O179 C177 1.279 . S
O180 Cd170 2.297 . S
O180 C175 1.247 . S
O181 Cd170 2.439 . S
O181 C175 1.208 . S
O182 Cd183 2.223 . S
O182 C190 1.315 . S
Cd183 O182 2.223 . S
Cd183 O186 2.297 . S
Cd183 O187 2.439 . S
Cd183 O193 2.240 . S
Cd184 O185 2.240 . S
Cd184 O192 2.223 . S
Cd184 O194 2.297 . S
Cd184 O195 2.439 . S
O185 Cd184 2.240 . S
O185 C190 1.279 . S
O186 Cd183 2.297 . S
O186 C188 1.247 . S
O187 Cd183 2.439 . S
O187 C188 1.208 . S
C188 O186 1.247 . S
C188 O187 1.208 . S
C189 O194 1.247 . S
C189 O195 1.208 . S
C190 O182 1.315 . S
C190 O185 1.279 . S
C191 O192 1.315 . S
C191 O193 1.279 . S
O192 Cd184 2.223 . S
O192 C191 1.315 . S
O193 Cd183 2.240 . S
O193 C191 1.279 . S
O194 Cd184 2.297 . S
O194 C189 1.247 . S
O195 Cd184 2.439 . S
O195 C189 1.208 . S
O196 Cd197 2.223 . S
O196 C204 1.315 . S
Cd197 O196 2.223 . S
Cd197 O200 2.297 . S
Cd197 O201 2.439 . S
Cd197 O207 2.240 . S
Cd198 O199 2.240 . S
Cd198 O206 2.223 . S
Cd198 O208 2.297 . S
Cd198 O209 2.439 . S
O199 Cd198 2.240 . S
O199 C204 1.279 . S
O200 Cd197 2.297 . S
O200 C202 1.247 . S
O201 Cd197 2.439 . S
O201 C202 1.208 . S
C202 O200 1.247 . S
C202 O201 1.208 . S
C203 O208 1.247 . S
C203 O209 1.208 . S
C204 O196 1.315 . S
C204 O199 1.279 . S
C205 O206 1.315 . S
C205 O207 1.279 . S
O206 Cd198 2.223 . S
O206 C205 1.315 . S
O207 Cd197 2.240 . S
O207 C205 1.279 . S
O208 Cd198 2.297 . S
O208 C203 1.247 . S
O209 Cd198 2.439 . S
O209 C203 1.208 . S
O210 Cd211 2.223 . S
O210 C218 1.315 . S
Cd211 O210 2.223 . S
Cd211 O214 2.297 . S
Cd211 O215 2.439 . S
Cd211 O221 2.240 . S
Cd212 O213 2.240 . S
Cd212 O220 2.223 . S
Cd212 O222 2.297 . S
Cd212 O223 2.439 . S
O213 Cd212 2.240 . S
O213 C218 1.279 . S
O214 Cd211 2.297 . S
O214 C216 1.247 . S
O215 Cd211 2.439 . S
O215 C216 1.208 . S
C216 O214 1.247 . S
C216 O215 1.208 . S
C217 O222 1.247 . S
C217 O223 1.208 . S
C218 O210 1.315 . S
C218 O213 1.279 . S
C219 O220 1.315 . S
C219 O221 1.279 . S
O220 Cd212 2.223 . S
O220 C219 1.315 . S
O221 Cd211 2.240 . S
O221 C219 1.279 . S
O222 Cd212 2.297 . S
O222 C217 1.247 . S
O223 Cd212 2.439 . S
O223 C217 1.208 . S
H224 C232 0.929 . S
H225 C234 0.930 . S
H226 C236 0.930 . S
H227 C239 0.929 1_545 S
H228 C242 0.930 . S
H229 C244 0.960 . S
H230 C244 0.960 . S
H231 C244 0.960 . S
C232 H224 0.929 . S
C232 C233 1.377 . S
C232 C234 1.384 . S
C233 C232 1.377 . S
C233 C239 1.390 . S
C234 H225 0.930 . S
C234 C232 1.384 . S
C234 C235 1.372 . S
C235 C234 1.372 . S
C235 C236 1.400 1_565 S
C235 C240 1.490 . S
C236 H226 0.930 . S
C236 C235 1.400 1_545 S
C236 C239 1.386 1_545 S
H237 C253 0.930 . S
H238 C254 0.931 . S
C239 H227 0.929 1_565 S
C239 C233 1.390 . S
C239 C236 1.386 1_565 S
C240 C235 1.490 . S
C240 C242 1.395 . S
C240 C243 1.403 1_565 S
H241 C247 0.930 . S
C242 H228 0.930 . S
C242 C240 1.395 . S
C242 C245 1.403 . S
C243 C240 1.403 1_545 S
C243 C244 1.524 . S
C243 C247 1.400 . S
C244 H229 0.960 . S
C244 H230 0.960 . S
C244 H231 0.960 . S
C244 C243 1.524 . S
C245 C242 1.403 . S
C245 C246 1.392 1_565 S
C245 C249 1.495 . S
C246 C245 1.392 1_545 S
C246 C247 1.385 . S
C246 C248 1.478 . S
C247 H241 0.930 . S
C247 C243 1.400 . S
C247 C246 1.385 . S
C248 C246 1.478 . S
C248 C250 1.381 1_545 S
C248 C254 1.383 . S
C249 C245 1.495 . S
C249 H255 0.959 . S
C249 H256 0.961 . S
C249 H257 0.960 . S
C250 C248 1.381 1_565 S
C250 C251 1.394 1_565 S
C250 H258 0.930 . S
C251 C250 1.394 1_545 S
C251 C252 1.383 . S
C251 H259 0.929 1_545 S
C252 C251 1.383 . S
C252 C253 1.377 . S
C253 H237 0.930 . S
C253 C252 1.377 . S
C253 C254 1.379 . S
C254 H238 0.931 . S
C254 C248 1.383 . S
C254 C253 1.379 . S
H255 C249 0.959 . S
H256 C249 0.961 . S
H257 C249 0.960 . S
H258 C250 0.930 . S
H259 C251 0.929 1_565 S
H260 C268 0.929 . S
H261 C270 0.930 . S
H262 C272 0.954 . S
H263 C275 0.929 1_545 S
H264 C278 0.930 . S
H265 C280 0.960 . S
H266 C280 0.960 . S
H267 C280 0.960 . S
C268 H260 0.929 . S
C268 C269 1.377 . S
C268 C270 1.384 . S
C269 C268 1.377 . S
C269 C275 1.390 . S
C270 H261 0.930 . S
C270 C268 1.384 . S
C270 C271 1.372 . S
C271 C270 1.372 . S
C271 C272 1.383 1_565 S
C271 C276 1.490 . S
C272 H262 0.954 . S
C272 C271 1.383 1_545 S
C272 C275 1.379 1_545 S
H273 C289 0.930 . S
H274 C290 0.931 . S
C275 H263 0.929 1_565 S
C275 C269 1.390 . S
C275 C272 1.379 1_565 S
C276 C271 1.490 . S
C276 C278 1.395 . S
C276 C279 1.403 . S
H277 C283 0.930 . S
C278 H264 0.930 . S
C278 C276 1.395 . S
C278 C281 1.403 1_565 S
C279 C276 1.403 . S
C279 C280 1.524 . S
C279 C283 1.400 1_565 S
C280 H265 0.960 . S
C280 H266 0.960 . S
C280 H267 0.960 . S
C280 C279 1.524 . S
C281 C278 1.403 1_545 S
C281 C282 1.392 . S
C281 C285 1.495 . S
C282 C281 1.392 . S
C282 C283 1.385 . S
C282 C284 1.478 . S
C283 H277 0.930 . S
C283 C279 1.400 1_545 S
C283 C282 1.385 . S
C284 C282 1.478 . S
C284 C286 1.381 1_545 S
C284 C290 1.383 . S
C285 C281 1.495 . S
C285 H291 0.959 . S
C285 H292 0.961 . S
C285 H293 0.960 1_545 S
C286 C284 1.381 1_565 S
C286 C287 1.394 1_565 S
C286 H294 0.930 . S
C287 C286 1.394 1_545 S
C287 C288 1.383 . S
C287 H295 0.929 1_545 S
C288 C287 1.383 . S
C288 C289 1.377 . S
C289 H273 0.930 . S
C289 C288 1.377 . S
C289 C290 1.379 . S
C290 H274 0.931 . S
C290 C284 1.383 . S
C290 C289 1.379 . S
H291 C285 0.959 . S
H292 C285 0.961 . S
H293 C285 0.960 1_565 S
H294 C286 0.930 . S
H295 C287 0.929 1_565 S
H296 C304 0.929 . S
H297 C306 0.930 1_545 S
H298 C308 0.930 . S
H299 C311 0.929 . S
H300 C314 0.930 . S
H301 C316 0.960 . S
H302 C316 0.960 . S
H303 C316 0.960 . S
C304 H296 0.929 . S
C304 C305 1.377 . S
C304 C306 1.384 . S
C305 C304 1.377 . S
C305 C311 1.390 . S
C306 H297 0.930 1_565 S
C306 C304 1.384 . S
C306 C307 1.372 . S
C307 C306 1.372 . S
C307 C308 1.400 . S
C307 C312 1.490 . S
C308 H298 0.930 . S
C308 C307 1.400 . S
C308 C311 1.386 . S
H309 C325 0.930 . S
H310 C326 0.931 . S
C311 H299 0.929 . S
C311 C305 1.390 . S
C311 C308 1.386 . S
C312 C307 1.490 . S
C312 C314 1.395 1_565 S
C312 C315 1.403 . S
H313 C319 0.930 . S
C314 H300 0.930 . S
C314 C312 1.395 1_545 S
C314 C317 1.403 . S
C315 C312 1.403 . S
C315 C316 1.524 . S
C315 C319 1.400 . S
C316 H301 0.960 . S
C316 H302 0.960 . S
C316 H303 0.960 . S
C316 C315 1.524 . S
C317 C314 1.403 . S
C317 C318 1.392 . S
C317 C321 1.495 . S
C318 C317 1.392 . S
C318 C319 1.385 1_545 S
C318 C320 1.478 . S
C319 H313 0.930 . S
C319 C315 1.400 . S
C319 C318 1.385 1_565 S
C320 C318 1.478 . S
C320 C322 1.381 . S
C320 C326 1.383 . S
C321 C317 1.495 . S
C321 H327 0.959 . S
C321 H328 0.961 . S
C321 H329 0.960 . S
C322 C320 1.381 . S
C322 C323 1.394 . S
C322 H330 0.930 . S
C323 C322 1.394 . S
C323 C324 1.383 . S
C323 H331 0.929 . S
C324 C323 1.383 . S
C324 C325 1.377 . S
C325 H309 0.930 . S
C325 C324 1.377 . S
C325 C326 1.379 . S
C326 H310 0.931 . S
C326 C320 1.383 . S
C326 C325 1.379 . S
H327 C321 0.959 . S
H328 C321 0.961 . S
H329 C321 0.960 . S
H330 C322 0.930 . S
H331 C323 0.929 . S
H332 C340 0.929 . S
H333 C342 0.930 . S
H334 C344 0.917 1_545 S
H335 C347 0.929 1_545 S
H336 C350 0.930 . S
H337 C352 0.960 . S
H338 C352 0.960 . S
H339 C352 0.960 . S
C340 H332 0.929 . S
C340 C341 1.377 . S
C340 C342 1.384 . S
C341 C340 1.377 . S
C341 C347 1.390 . S
C342 H333 0.930 . S
C342 C340 1.384 . S
C342 C343 1.372 . S
C343 C342 1.372 . S
C343 C344 1.408 . S
C343 C348 1.490 . S
C344 H334 0.917 1_565 S
C344 C343 1.408 . S
C344 C347 1.390 . S
H345 C361 0.930 . S
H346 C362 0.931 . S
C347 H335 0.929 1_565 S
C347 C341 1.390 . S
C347 C344 1.390 . S
C348 C343 1.490 . S
C348 C350 1.395 . S
C348 C351 1.403 1_565 S
H349 C355 0.930 . S
C350 H336 0.930 . S
C350 C348 1.395 . S
C350 C353 1.403 . S
C351 C348 1.403 1_545 S
C351 C352 1.524 . S
C351 C355 1.400 . S
C352 H337 0.960 . S
C352 H338 0.960 . S
C352 H339 0.960 . S
C352 C351 1.524 . S
C353 C350 1.403 . S
C353 C354 1.392 1_565 S
C353 C357 1.495 . S
C354 C353 1.392 1_545 S
C354 C355 1.385 . S
C354 C356 1.478 . S
C355 H349 0.930 . S
C355 C351 1.400 . S
C355 C354 1.385 . S
C356 C354 1.478 . S
C356 C358 1.381 1_545 S
C356 C362 1.383 . S
C357 C353 1.495 . S
C357 H363 0.959 . S
C357 H364 0.961 . S
C357 H365 0.960 . S
C358 C356 1.381 1_565 S
C358 C359 1.394 1_565 S
C358 H366 0.930 . S
C359 C358 1.394 1_545 S
C359 C360 1.383 . S
C359 H367 0.929 1_545 S
C360 C359 1.383 . S
C360 C361 1.377 . S
C361 H345 0.930 . S
C361 C360 1.377 . S
C361 C362 1.379 . S
C362 H346 0.931 . S
C362 C356 1.383 . S
C362 C361 1.379 . S
H363 C357 0.959 . S
H364 C357 0.961 . S
H365 C357 0.960 . S
H366 C358 0.930 . S
H367 C359 0.929 1_565 S
H368 C376 0.929 . S
H369 C378 0.930 . S
H370 C380 0.930 . S
H371 C383 0.929 . S
H372 C386 0.930 . S
H373 C388 0.960 . S
H374 C388 0.960 . S
H375 C388 0.960 . S
C376 H368 0.929 . S
C376 C377 1.377 . S
C376 C378 1.384 . S
C377 C376 1.377 . S
C377 C383 1.390 . S
C378 H369 0.930 . S
C378 C376 1.384 . S
C378 C379 1.372 . S
C379 C378 1.372 . S
C379 C380 1.400 . S
C379 C384 1.490 . S
C380 H370 0.930 . S
C380 C379 1.400 . S
C380 C383 1.386 . S
H381 C397 0.930 . S
H382 C398 0.931 . S
C383 H371 0.929 . S
C383 C377 1.390 . S
C383 C380 1.386 . S
C384 C379 1.490 . S
C384 C386 1.395 . S
C384 C387 1.403 . S
H385 C391 0.930 . S
C386 H372 0.930 . S
C386 C384 1.395 . S
C386 C389 1.403 . S
C387 C384 1.403 . S
C387 C388 1.524 . S
C387 C391 1.400 . S
C388 H373 0.960 . S
C388 H374 0.960 . S
C388 H375 0.960 . S
C388 C387 1.524 . S
C389 C386 1.403 . S
C389 C390 1.392 . S
C389 C393 1.495 . S
C390 C389 1.392 . S
C390 C391 1.385 . S
C390 C392 1.478 . S
C391 H385 0.930 . S
C391 C387 1.400 . S
C391 C390 1.385 . S
C392 C390 1.478 . S
C392 C394 1.381 . S
C392 C398 1.383 . S
C393 C389 1.495 . S
C393 H399 0.959 . S
C393 H400 0.961 . S
C393 H401 0.960 . S
C394 C392 1.381 . S
C394 C395 1.394 . S
C394 H402 0.930 . S
C395 C394 1.394 . S
C395 C396 1.383 . S
C395 H403 0.929 . S
C396 C395 1.383 . S
C396 C397 1.377 . S
C397 H381 0.930 . S
C397 C396 1.377 . S
C397 C398 1.379 . S
C398 H382 0.931 . S
C398 C392 1.383 . S
C398 C397 1.379 . S
H399 C393 0.959 . S
H400 C393 0.961 . S
H401 C393 0.960 . S
H402 C394 0.930 . S
H403 C395 0.929 . S
H404 C412 0.929 . S
H405 C414 0.930 . S
H406 C416 0.930 . S
H407 C419 0.929 . S
H408 C422 0.930 . S
H409 C424 0.960 . S
H410 C424 0.960 . S
H411 C424 0.960 . S
C412 H404 0.929 . S
C412 C413 1.377 . S
C412 C414 1.384 . S
C413 C412 1.377 . S
C413 C419 1.390 . S
C414 H405 0.930 . S
C414 C412 1.384 . S
C414 C415 1.372 . S
C415 C414 1.372 . S
C415 C416 1.400 . S
C415 C420 1.490 . S
C416 H406 0.930 . S
C416 C415 1.400 . S
C416 C419 1.386 . S
H417 C433 0.930 . S
H418 C434 0.931 . S
C419 H407 0.929 . S
C419 C413 1.390 . S
C419 C416 1.386 . S
C420 C415 1.490 . S
C420 C422 1.395 . S
C420 C423 1.403 . S
H421 C427 0.930 . S
C422 H408 0.930 . S
C422 C420 1.395 . S
C422 C425 1.403 . S
C423 C420 1.403 . S
C423 C424 1.524 . S
C423 C427 1.400 . S
C424 H409 0.960 . S
C424 H410 0.960 . S
C424 H411 0.960 . S
C424 C423 1.524 . S
C425 C422 1.403 . S
C425 C426 1.392 . S
C425 C429 1.495 . S
C426 C425 1.392 . S
C426 C427 1.385 . S
C426 C428 1.478 . S
C427 H421 0.930 . S
C427 C423 1.400 . S
C427 C426 1.385 . S
C428 C426 1.478 . S
C428 C430 1.381 . S
C428 C434 1.383 . S
C429 C425 1.495 . S
C429 H435 0.959 . S
C429 H436 0.961 . S
C429 H437 0.960 . S
C430 C428 1.381 . S
C430 C431 1.394 . S
C430 H438 0.930 . S
C431 C430 1.394 . S
C431 C432 1.383 . S
C431 H439 0.929 . S
C432 C431 1.383 . S
C432 C433 1.377 . S
C433 H417 0.930 . S
C433 C432 1.377 . S
C433 C434 1.379 . S
C434 H418 0.931 . S
C434 C428 1.383 . S
C434 C433 1.379 . S
H435 C429 0.959 . S
H436 C429 0.961 . S
H437 C429 0.960 . S
H438 C430 0.930 . S
H439 C431 0.929 . S
H440 C448 0.929 . S
H441 C450 0.930 . S
H442 C452 0.930 . S
H443 C455 0.929 . S
H444 C458 0.930 . S
H445 C460 0.960 . S
H446 C460 0.960 . S
H447 C460 0.960 . S
C448 H440 0.929 . S
C448 C449 1.377 . S
C448 C450 1.384 . S
C449 C448 1.377 . S
C449 C455 1.390 . S
C450 H441 0.930 . S
C450 C448 1.384 . S
C450 C451 1.372 . S
C451 C450 1.372 . S
C451 C452 1.400 . S
C451 C456 1.490 . S
C452 H442 0.930 . S
C452 C451 1.400 . S
C452 C455 1.386 . S
H453 C469 0.930 . S
H454 C470 0.931 . S
C455 H443 0.929 . S
C455 C449 1.390 . S
C455 C452 1.386 . S
C456 C451 1.490 . S
C456 C458 1.395 . S
C456 C459 1.403 . S
H457 C463 0.930 . S
C458 H444 0.930 . S
C458 C456 1.395 . S
C458 C461 1.403 . S
C459 C456 1.403 . S
C459 C460 1.524 . S
C459 C463 1.400 . S
C460 H445 0.960 . S
C460 H446 0.960 . S
C460 H447 0.960 . S
C460 C459 1.524 . S
C461 C458 1.403 . S
C461 C462 1.392 . S
C461 C465 1.495 . S
C462 C461 1.392 . S
C462 C463 1.385 . S
C462 C464 1.478 . S
C463 H457 0.930 . S
C463 C459 1.400 . S
C463 C462 1.385 . S
C464 C462 1.478 . S
C464 C466 1.381 . S
C464 C470 1.383 . S
C465 C461 1.495 . S
C465 H471 0.959 . S
C465 H472 0.961 . S
C465 H473 0.960 . S
C466 C464 1.381 . S
C466 C467 1.394 . S
C466 H474 0.930 . S
C467 C466 1.394 . S
C467 C468 1.383 . S
C467 H475 0.929 . S
C468 C467 1.383 . S
C468 C469 1.377 . S
C469 H453 0.930 . S
C469 C468 1.377 . S
C469 C470 1.379 . S
C470 H454 0.931 . S
C470 C464 1.383 . S
C470 C469 1.379 . S
H471 C465 0.959 . S
H472 C465 0.961 . S
H473 C465 0.960 . S
H474 C466 0.930 . S
H475 C467 0.929 . S
H476 C484 0.929 . S
H477 C486 0.930 . S
H478 C488 0.930 . S
H479 C491 0.929 . S
H480 C494 0.930 . S
H481 C496 0.960 . S
H482 C496 0.960 . S
H483 C496 0.960 . S
C484 H476 0.929 . S
C484 C485 1.377 . S
C484 C486 1.384 . S
C485 C484 1.377 . S
C485 C491 1.390 . S
C486 H477 0.930 . S
C486 C484 1.384 . S
C486 C487 1.372 . S
C487 C486 1.372 . S
C487 C488 1.400 . S
C487 C492 1.490 . S
C488 H478 0.930 . S
C488 C487 1.400 . S
C488 C491 1.386 . S
H489 C505 0.930 . S
H490 C506 0.931 . S
C491 H479 0.929 . S
C491 C485 1.390 . S
C491 C488 1.386 . S
C492 C487 1.490 . S
C492 C494 1.395 . S
C492 C495 1.403 . S
H493 C499 0.930 . S
C494 H480 0.930 . S
C494 C492 1.395 . S
C494 C497 1.403 . S
C495 C492 1.403 . S
C495 C496 1.524 . S
C495 C499 1.400 . S
C496 H481 0.960 . S
C496 H482 0.960 . S
C496 H483 0.960 . S
C496 C495 1.524 . S
C497 C494 1.403 . S
C497 C498 1.392 . S
C497 C501 1.495 . S
C498 C497 1.392 . S
C498 C499 1.385 . S
C498 C500 1.478 . S
C499 H493 0.930 . S
C499 C495 1.400 . S
C499 C498 1.385 . S
C500 C498 1.478 . S
C500 C502 1.381 . S
C500 C506 1.383 . S
C501 C497 1.495 . S
C501 H507 0.959 . S
C501 H508 0.961 . S
C501 H509 0.960 . S
C502 C500 1.381 . S
C502 C503 1.394 . S
C502 H510 0.930 . S
C503 C502 1.394 . S
C503 C504 1.383 . S
C503 H511 0.929 . S
C504 C503 1.383 . S
C504 C505 1.377 . S
C505 H489 0.930 . S
C505 C504 1.377 . S
C505 C506 1.379 . S
C506 H490 0.931 . S
C506 C500 1.383 . S
C506 C505 1.379 . S
H507 C501 0.959 . S
H508 C501 0.961 . S
H509 C501 0.960 . S
H510 C502 0.930 . S
H511 C503 0.929 . S
H512 C520 0.929 . S
H513 C522 0.930 . S
H514 C524 0.930 1_455 S
H515 C527 0.929 . S
H516 C530 0.930 . S
H517 C532 0.960 . S
H518 C532 0.960 . S
H519 C532 0.960 . S
C520 H512 0.929 . S
C520 C521 1.377 . S
C520 C522 1.384 . S
C521 C520 1.377 . S
C521 C527 1.390 . S
C522 H513 0.930 . S
C522 C520 1.384 . S
C522 C523 1.372 . S
C523 C522 1.372 . S
C523 C524 1.400 . S
C523 C528 1.490 . S
C524 H514 0.930 1_655 S
C524 C523 1.400 . S
C524 C527 1.386 . S
H525 C541 0.930 . S
H526 C542 0.931 . S
C527 H515 0.929 . S
C527 C521 1.390 . S
C527 C524 1.386 . S
C528 C523 1.490 . S
C528 C530 1.395 . S
C528 C531 1.403 1_655 S
H529 C535 0.930 . S
C530 H516 0.930 . S
C530 C528 1.395 . S
C530 C533 1.403 . S
C531 C528 1.403 1_455 S
C531 C532 1.524 . S
C531 C535 1.400 . S
C532 H517 0.960 . S
C532 H518 0.960 . S
C532 H519 0.960 . S
C532 C531 1.524 . S
C533 C530 1.403 . S
C533 C534 1.392 1_655 S
C533 C537 1.495 . S
C534 C533 1.392 1_455 S
C534 C535 1.385 . S
C534 C536 1.478 . S
C535 H529 0.930 . S
C535 C531 1.400 . S
C535 C534 1.385 . S
C536 C534 1.478 . S
C536 C538 1.381 . S
C536 C542 1.383 . S
C537 C533 1.495 . S
C537 H543 0.959 . S
C537 H544 0.961 . S
C537 H545 0.960 . S
C538 C536 1.381 . S
C538 C539 1.394 . S
C538 H546 0.930 1_455 S
C539 C538 1.394 . S
C539 C540 1.383 . S
C539 H547 0.929 . S
C540 C539 1.383 . S
C540 C541 1.377 . S
C541 H525 0.930 . S
C541 C540 1.377 . S
C541 C542 1.379 . S
C542 H526 0.931 . S
C542 C536 1.383 . S
C542 C541 1.379 . S
H543 C537 0.959 . S
H544 C537 0.961 . S
H545 C537 0.960 . S
H546 C538 0.930 1_655 S
H547 C539 0.929 . S
H548 C556 0.929 . S
H549 C558 0.930 . S
H550 C560 0.930 . S
H551 C563 0.929 . S
H552 C566 0.930 . S
H553 C568 0.960 . S
H554 C568 0.960 . S
H555 C568 0.960 . S
C556 H548 0.929 . S
C556 C557 1.377 . S
C556 C558 1.384 . S
C557 C556 1.377 . S
C557 C563 1.390 . S
C558 H549 0.930 . S
C558 C556 1.384 . S
C558 C559 1.372 . S
C559 C558 1.372 . S
C559 C560 1.400 . S
C559 C564 1.490 . S
C560 H550 0.930 . S
C560 C559 1.400 . S
C560 C563 1.386 . S
H561 C577 0.930 . S
H562 C578 0.931 . S
C563 H551 0.929 . S
C563 C557 1.390 . S
C563 C560 1.386 . S
C564 C559 1.490 . S
C564 C566 1.395 . S
C564 C567 1.403 . S
H565 C571 0.930 . S
C566 H552 0.930 . S
C566 C564 1.395 . S
C566 C569 1.403 . S
C567 C564 1.403 . S
C567 C568 1.524 . S
C567 C571 1.400 . S
C568 H553 0.960 . S
C568 H554 0.960 . S
C568 H555 0.960 . S
C568 C567 1.524 . S
C569 C566 1.403 . S
C569 C570 1.392 . S
C569 C573 1.495 . S
C570 C569 1.392 . S
C570 C571 1.385 . S
C570 C572 1.478 . S
C571 H565 0.930 . S
C571 C567 1.400 . S
C571 C570 1.385 . S
C572 C570 1.478 . S
C572 C574 1.381 . S
C572 C578 1.383 . S
C573 C569 1.495 . S
C573 H579 0.959 . S
C573 H580 0.961 . S
C573 H581 0.960 . S
C574 C572 1.381 . S
C574 C575 1.394 . S
C574 H582 0.930 . S
C575 C574 1.394 . S
C575 C576 1.383 . S
C575 H583 0.929 . S
C576 C575 1.383 . S
C576 C577 1.377 . S
C577 H561 0.930 . S
C577 C576 1.377 . S
C577 C578 1.379 . S
C578 H562 0.931 . S
C578 C572 1.383 . S
C578 C577 1.379 . S
H579 C573 0.959 . S
H580 C573 0.961 . S
H581 C573 0.960 . S
H582 C574 0.930 . S
H583 C575 0.929 . S
H584 C592 0.929 . S
H585 C594 0.930 . S
H586 C596 0.930 . S
H587 C599 0.929 . S
H588 C602 0.930 . S
H589 C604 0.960 . S
H590 C604 0.960 . S
H591 C604 0.960 . S
C592 H584 0.929 . S
C592 C593 1.377 . S
C592 C594 1.384 . S
C593 C592 1.377 . S
C593 C599 1.390 . S
C594 H585 0.930 . S
C594 C592 1.384 . S
C594 C595 1.372 . S
C595 C594 1.372 . S
C595 C596 1.400 . S
C595 C600 1.490 . S
C596 H586 0.930 . S
C596 C595 1.400 . S
C596 C599 1.386 . S
H597 C613 0.930 . S
H598 C614 0.931 . S
C599 H587 0.929 . S
C599 C593 1.390 . S
C599 C596 1.386 . S
C600 C595 1.490 . S
C600 C602 1.395 . S
C600 C603 1.403 1_455 S
H601 C607 0.930 . S
C602 H588 0.930 . S
C602 C600 1.395 . S
C602 C605 1.403 . S
C603 C600 1.403 1_655 S
C603 C604 1.524 . S
C603 C607 1.400 . S
C604 H589 0.960 . S
C604 H590 0.960 . S
C604 H591 0.960 . S
C604 C603 1.524 . S
C605 C602 1.403 . S
C605 C606 1.392 1_455 S
C605 C609 1.495 . S
C606 C605 1.392 1_655 S
C606 C607 1.385 . S
C606 C608 1.478 . S
C607 H601 0.930 . S
C607 C603 1.400 . S
C607 C606 1.385 . S
C608 C606 1.478 . S
C608 C610 1.381 . S
C608 C614 1.383 . S
C609 C605 1.495 . S
C609 H615 0.959 . S
C609 H616 0.961 . S
C609 H617 0.960 . S
C610 C608 1.381 . S
C610 C611 1.394 . S
C610 H618 0.930 . S
C611 C610 1.394 . S
C611 C612 1.383 . S
C611 H619 0.929 . S
C612 C611 1.383 . S
C612 C613 1.377 . S
C613 H597 0.930 . S
C613 C612 1.377 . S
C613 C614 1.379 . S
C614 H598 0.931 . S
C614 C608 1.383 . S
C614 C613 1.379 . S
H615 C609 0.959 . S
H616 C609 0.961 . S
H617 C609 0.960 . S
H618 C610 0.930 . S
H619 C611 0.929 . S
H620 C628 0.929 . S
H621 C630 0.930 . S
H622 C632 0.930 . S
H623 C635 0.929 . S
H624 C638 0.930 . S
H625 C640 0.960 . S
H626 C640 0.960 . S
H627 C640 0.960 . S
C628 H620 0.929 . S
C628 C629 1.377 . S
C628 C630 1.384 . S
C629 C628 1.377 . S
C629 C635 1.390 . S
C630 H621 0.930 . S
C630 C628 1.384 . S
C630 C631 1.372 . S
C631 C630 1.372 . S
C631 C632 1.400 . S
C631 C636 1.490 . S
C632 H622 0.930 . S
C632 C631 1.400 . S
C632 C635 1.386 . S
H633 C649 0.930 . S
H634 C650 0.931 . S
C635 H623 0.929 . S
C635 C629 1.390 . S
C635 C632 1.386 . S
C636 C631 1.490 . S
C636 C638 1.395 . S
C636 C639 1.403 . S
H637 C643 0.930 . S
C638 H624 0.930 . S
C638 C636 1.395 . S
C638 C641 1.403 . S
C639 C636 1.403 . S
C639 C640 1.524 . S
C639 C643 1.400 . S
C640 H625 0.960 . S
C640 H626 0.960 . S
C640 H627 0.960 . S
C640 C639 1.524 . S
C641 C638 1.403 . S
C641 C642 1.392 . S
C641 C645 1.495 . S
C642 C641 1.392 . S
C642 C643 1.385 . S
C642 C644 1.478 . S
C643 H637 0.930 . S
C643 C639 1.400 . S
C643 C642 1.385 . S
C644 C642 1.478 . S
C644 C646 1.381 . S
C644 C650 1.383 . S
C645 C641 1.495 . S
C645 H651 0.959 . S
C645 H652 0.961 . S
C645 H653 0.960 . S
C646 C644 1.381 . S
C646 C647 1.394 . S
C646 H654 0.930 . S
C647 C646 1.394 . S
C647 C648 1.383 . S
C647 H655 0.929 . S
C648 C647 1.383 . S
C648 C649 1.377 . S
C649 H633 0.930 . S
C649 C648 1.377 . S
C649 C650 1.379 . S
C650 H634 0.931 . S
C650 C644 1.383 . S
C650 C649 1.379 . S
H651 C645 0.959 . S
H652 C645 0.961 . S
H653 C645 0.960 . S
H654 C646 0.930 . S
H655 C647 0.929 . S
H656 C664 0.929 . S
H657 C666 0.930 . S
H658 C668 0.930 . S
H659 C671 0.929 . S
H660 C674 0.930 . S
H661 C676 0.960 . S
H662 C676 0.960 . S
H663 C676 0.960 . S
C664 H656 0.929 . S
C664 C665 1.377 . S
C664 C666 1.384 . S
C665 C664 1.377 . S
C665 C671 1.390 . S
C666 H657 0.930 . S
C666 C664 1.384 . S
C666 C667 1.372 . S
C667 C666 1.372 . S
C667 C668 1.400 . S
C667 C672 1.490 . S
C668 H658 0.930 . S
C668 C667 1.400 . S
C668 C671 1.386 . S
H669 C685 0.930 . S
H670 C686 0.931 . S
C671 H659 0.929 . S
C671 C665 1.390 . S
C671 C668 1.386 . S
C672 C667 1.490 . S
C672 C674 1.395 . S
C672 C675 1.403 . S
H673 C679 0.930 . S
C674 H660 0.930 . S
C674 C672 1.395 . S
C674 C677 1.403 . S
C675 C672 1.403 . S
C675 C676 1.524 . S
C675 C679 1.400 . S
C676 H661 0.960 . S
C676 H662 0.960 . S
C676 H663 0.960 . S
C676 C675 1.524 . S
C677 C674 1.403 . S
C677 C678 1.392 . S
C677 C681 1.495 . S
C678 C677 1.392 . S
C678 C679 1.385 . S
C678 C680 1.478 . S
C679 H673 0.930 . S
C679 C675 1.400 . S
C679 C678 1.385 . S
C680 C678 1.478 . S
C680 C682 1.381 . S
C680 C686 1.383 . S
C681 C677 1.495 . S
C681 H687 0.959 . S
C681 H688 0.961 . S
C681 H689 0.960 . S
C682 C680 1.381 . S
C682 C683 1.394 . S
C682 H690 0.930 . S
C683 C682 1.394 . S
C683 C684 1.383 . S
C683 H691 0.929 . S
C684 C683 1.383 . S
C684 C685 1.377 . S
C685 H669 0.930 . S
C685 C684 1.377 . S
C685 C686 1.379 . S
C686 H670 0.931 . S
C686 C680 1.383 . S
C686 C685 1.379 . S
H687 C681 0.959 . S
H688 C681 0.961 . S
H689 C681 0.960 . S
H690 C682 0.930 . S
H691 C683 0.929 . S
H692 C700 0.929 . S
H693 C702 0.930 . S
H694 C704 0.930 1_655 S
H695 C707 0.929 1_655 S
H696 C710 0.930 . S
H697 C712 0.960 . S
H698 C712 0.960 1_455 S
H699 C712 0.960 . S
C700 H692 0.929 . S
C700 C701 1.377 . S
C700 C702 1.384 . S
C701 C700 1.377 . S
C701 C707 1.390 . S
C702 H693 0.930 . S
C702 C700 1.384 . S
C702 C703 1.372 . S
C703 C702 1.372 . S
C703 C704 1.400 . S
C703 C708 1.490 . S
C704 H694 0.930 1_455 S
C704 C703 1.400 . S
C704 C707 1.386 . S
H705 C721 0.930 . S
H706 C722 0.931 . S
C707 H695 0.929 1_455 S
C707 C701 1.390 . S
C707 C704 1.386 . S
C708 C703 1.490 . S
C708 C710 1.395 . S
C708 C711 1.403 1_455 S
H709 C715 0.930 . S
C710 H696 0.930 . S
C710 C708 1.395 . S
C710 C713 1.403 . S
C711 C708 1.403 1_655 S
C711 C712 1.524 . S
C711 C715 1.400 . S
C712 H697 0.960 . S
C712 H698 0.960 1_655 S
C712 H699 0.960 . S
C712 C711 1.524 . S
C713 C710 1.403 . S
C713 C714 1.392 1_455 S
C713 C717 1.495 . S
C714 C713 1.392 1_655 S
C714 C715 1.385 . S
C714 C716 1.478 . S
C715 H709 0.930 . S
C715 C711 1.400 . S
C715 C714 1.385 . S
C716 C714 1.478 . S
C716 C718 1.372 1_655 S
C716 C722 1.383 . S
C717 C713 1.495 . S
C717 H723 0.959 . S
C717 H724 0.999 . S
C717 H725 0.960 . S
C718 C716 1.372 1_455 S
C718 C719 1.389 1_455 S
C718 H726 0.944 . S
C719 C718 1.389 1_655 S
C719 C720 1.383 . S
C719 H727 0.929 1_655 S
C720 C719 1.383 . S
C720 C721 1.377 . S
C721 H705 0.930 . S
C721 C720 1.377 . S
C721 C722 1.379 . S
C722 H706 0.931 . S
C722 C716 1.383 . S
C722 C721 1.379 . S
H723 C717 0.959 . S
H724 C717 0.999 . S
H725 C717 0.960 . S
H726 C718 0.944 . S
H727 C719 0.929 1_455 S
H728 C736 0.929 . S
H729 C738 0.930 . S
H730 C740 0.930 . S
H731 C743 0.929 . S
H732 C746 0.930 . S
H733 C748 0.960 . S
H734 C748 0.960 . S
H735 C748 0.960 . S
C736 H728 0.929 . S
C736 C737 1.377 . S
C736 C738 1.384 . S
C737 C736 1.377 . S
C737 C743 1.390 . S
C738 H729 0.930 . S
C738 C736 1.384 . S
C738 C739 1.372 . S
C739 C738 1.372 . S
C739 C740 1.400 . S
C739 C744 1.490 . S
C740 H730 0.930 . S
C740 C739 1.400 . S
C740 C743 1.386 . S
H741 C757 0.930 . S
H742 C758 0.931 . S
C743 H731 0.929 . S
C743 C737 1.390 . S
C743 C740 1.386 . S
C744 C739 1.490 . S
C744 C746 1.395 . S
C744 C747 1.403 . S
H745 C751 0.930 . S
C746 H732 0.930 . S
C746 C744 1.395 . S
C746 C749 1.403 . S
C747 C744 1.403 . S
C747 C748 1.524 . S
C747 C751 1.400 . S
C748 H733 0.960 . S
C748 H734 0.960 . S
C748 H735 0.960 . S
C748 C747 1.524 . S
C749 C746 1.403 . S
C749 C750 1.392 . S
C749 C753 1.495 . S
C750 C749 1.392 . S
C750 C751 1.385 . S
C750 C752 1.478 . S
C751 H745 0.930 . S
C751 C747 1.400 . S
C751 C750 1.385 . S
C752 C750 1.478 . S
C752 C754 1.381 . S
C752 C758 1.383 . S
C753 C749 1.495 . S
C753 H759 0.959 . S
C753 H760 0.961 . S
C753 H761 0.960 . S
C754 C752 1.381 . S
C754 C755 1.394 . S
C754 H762 0.930 . S
C755 C754 1.394 . S
C755 C756 1.383 . S
C755 H763 0.929 . S
C756 C755 1.383 . S
C756 C757 1.377 . S
C757 H741 0.930 . S
C757 C756 1.377 . S
C757 C758 1.379 . S
C758 H742 0.931 . S
C758 C752 1.383 . S
C758 C757 1.379 . S
H759 C753 0.959 . S
H760 C753 0.961 . S
H761 C753 0.960 . S
H762 C754 0.930 . S
H763 C755 0.929 . S
H764 C772 0.929 . S
H765 C774 0.930 1_655 S
H766 C776 0.930 . S
H767 C779 0.929 . S
H768 C782 0.930 . S
H769 C784 0.960 . S
H770 C784 0.960 . S
H771 C784 0.960 . S
C772 H764 0.929 . S
C772 C773 1.377 . S
C772 C774 1.384 . S
C773 C772 1.377 . S
C773 C779 1.390 . S
C774 H765 0.930 1_455 S
C774 C772 1.384 . S
C774 C775 1.372 . S
C775 C774 1.372 . S
C775 C776 1.400 . S
C775 C780 1.490 . S
C776 H766 0.930 . S
C776 C775 1.400 . S
C776 C779 1.386 . S
H777 C793 0.930 . S
H778 C794 0.931 . S
C779 H767 0.929 . S
C779 C773 1.390 . S
C779 C776 1.386 . S
C780 C775 1.490 . S
C780 C782 1.395 1_455 S
C780 C783 1.403 . S
H781 C787 0.930 . S
C782 H768 0.930 . S
C782 C780 1.395 1_655 S
C782 C785 1.403 . S
C783 C780 1.403 . S
C783 C784 1.524 . S
C783 C787 1.400 . S
C784 H769 0.960 . S
C784 H770 0.960 . S
C784 H771 0.960 . S
C784 C783 1.524 . S
C785 C782 1.403 . S
C785 C786 1.392 . S
C785 C789 1.495 . S
C786 C785 1.392 . S
C786 C787 1.385 1_655 S
C786 C788 1.478 . S
C787 H781 0.930 . S
C787 C783 1.400 . S
C787 C786 1.385 1_455 S
C788 C786 1.478 . S
C788 C790 1.381 . S
C788 C794 1.383 . S
C789 C785 1.495 . S
C789 H795 0.959 . S
C789 H796 0.961 . S
C789 H797 0.960 . S
C790 C788 1.381 . S
C790 C791 1.394 . S
C790 H798 0.930 . S
C791 C790 1.394 . S
C791 C792 1.383 . S
C791 H799 0.929 . S
C792 C791 1.383 . S
C792 C793 1.377 . S
C793 H777 0.930 . S
C793 C792 1.377 . S
C793 C794 1.379 . S
C794 H778 0.931 . S
C794 C788 1.383 . S
C794 C793 1.379 . S
H795 C789 0.959 . S
H796 C789 0.961 . S
H797 C789 0.960 . S
H798 C790 0.930 . S
H799 C791 0.929 . S
H800 C808 0.929 . S
H801 C810 0.930 . S
H802 C812 0.930 1_655 S
H803 C815 0.929 . S
H804 C818 0.930 . S
H805 C820 0.960 . S
H806 C820 0.960 . S
H807 C820 0.960 . S
C808 H800 0.929 . S
C808 C809 1.377 . S
C808 C810 1.384 . S
C809 C808 1.377 . S
C809 C815 1.390 . S
C810 H801 0.930 . S
C810 C808 1.384 . S
C810 C811 1.372 . S
C811 C810 1.372 . S
C811 C812 1.400 . S
C811 C816 1.490 . S
C812 H802 0.930 1_455 S
C812 C811 1.400 . S
C812 C815 1.386 . S
H813 C829 0.930 . S
H814 C830 0.931 . S
C815 H803 0.929 . S
C815 C809 1.390 . S
C815 C812 1.386 . S
C816 C811 1.490 . S
C816 C818 1.395 . S
C816 C819 1.403 . S
H817 C823 0.930 . S
C818 H804 0.930 . S
C818 C816 1.395 . S
C818 C821 1.403 1_455 S
C819 C816 1.403 . S
C819 C820 1.524 . S
C819 C823 1.400 1_455 S
C820 H805 0.960 . S
C820 H806 0.960 . S
C820 H807 0.960 . S
C820 C819 1.524 . S
C821 C818 1.403 1_655 S
C821 C822 1.392 . S
C821 C825 1.495 . S
C822 C821 1.392 . S
C822 C823 1.385 . S
C822 C824 1.478 . S
C823 H817 0.930 . S
C823 C819 1.400 1_655 S
C823 C822 1.385 . S
C824 C822 1.478 . S
C824 C826 1.381 . S
C824 C830 1.383 . S
C825 C821 1.495 . S
C825 H831 0.959 . S
C825 H832 0.961 . S
C825 H833 0.960 . S
C826 C824 1.381 . S
C826 C827 1.394 . S
C826 H834 0.930 1_655 S
C827 C826 1.394 . S
C827 C828 1.383 . S
C827 H835 0.929 . S
C828 C827 1.383 . S
C828 C829 1.377 . S
C829 H813 0.930 . S
C829 C828 1.377 . S
C829 C830 1.379 . S
C830 H814 0.931 . S
C830 C824 1.383 . S
C830 C829 1.379 . S
H831 C825 0.959 . S
H832 C825 0.961 . S
H833 C825 0.960 . S
H834 C826 0.930 1_455 S
H835 C827 0.929 . S
H836 C844 0.929 . S
H837 C846 0.930 . S
H838 C848 0.930 . S
H839 C851 0.929 . S
H840 C854 0.930 . S
H841 C856 0.960 . S
H842 C856 0.960 . S
H843 C856 0.960 . S
C844 H836 0.929 . S
C844 C845 1.377 . S
C844 C846 1.384 . S
C845 C844 1.377 . S
C845 C851 1.390 . S
C846 H837 0.930 . S
C846 C844 1.384 . S
C846 C847 1.372 . S
C847 C846 1.372 . S
C847 C848 1.400 . S
C847 C852 1.490 . S
C848 H838 0.930 . S
C848 C847 1.400 . S
C848 C851 1.386 . S
H849 C865 0.930 . S
H850 C866 0.931 . S
C851 H839 0.929 . S
C851 C845 1.390 . S
C851 C848 1.386 . S
C852 C847 1.490 . S
C852 C854 1.395 . S
C852 C855 1.403 . S
H853 C859 0.930 . S
C854 H840 0.930 . S
C854 C852 1.395 . S
C854 C857 1.403 . S
C855 C852 1.403 . S
C855 C856 1.524 . S
C855 C859 1.400 . S
C856 H841 0.960 . S
C856 H842 0.960 . S
C856 H843 0.960 . S
C856 C855 1.524 . S
C857 C854 1.403 . S
C857 C858 1.392 . S
C857 C861 1.495 . S
C858 C857 1.392 . S
C858 C859 1.385 . S
C858 C860 1.478 . S
C859 H853 0.930 . S
C859 C855 1.400 . S
C859 C858 1.385 . S
C860 C858 1.478 . S
C860 C862 1.381 . S
C860 C866 1.383 . S
C861 C857 1.495 . S
C861 H867 0.959 . S
C861 H868 0.961 . S
C861 H869 0.960 . S
C862 C860 1.381 . S
C862 C863 1.394 . S
C862 H870 0.930 . S
C863 C862 1.394 . S
C863 C864 1.383 . S
C863 H871 0.929 . S
C864 C863 1.383 . S
C864 C865 1.377 . S
C865 H849 0.930 . S
C865 C864 1.377 . S
C865 C866 1.379 . S
C866 H850 0.931 . S
C866 C860 1.383 . S
C866 C865 1.379 . S
H867 C861 0.959 . S
H868 C861 0.961 . S
H869 C861 0.960 . S
H870 C862 0.930 . S
H871 C863 0.929 . S
H872 C880 0.929 . S
H873 C882 0.930 . S
H874 C884 0.930 . S
H875 C887 0.929 . S
H876 C890 0.930 . S
H877 C892 0.960 . S
H878 C892 0.960 . S
H879 C892 0.960 . S
C880 H872 0.929 . S
C880 C881 1.377 . S
C880 C882 1.384 . S
C881 C880 1.377 . S
C881 C887 1.390 . S
C882 H873 0.930 . S
C882 C880 1.384 . S
C882 C883 1.372 . S
C883 C882 1.372 . S
C883 C884 1.400 . S
C883 C888 1.490 . S
C884 H874 0.930 . S
C884 C883 1.400 . S
C884 C887 1.386 . S
H885 C901 0.930 . S
H886 C902 0.931 . S
C887 H875 0.929 . S
C887 C881 1.390 . S
C887 C884 1.386 . S
C888 C883 1.490 . S
C888 C890 1.395 . S
C888 C891 1.403 . S
H889 C895 0.930 . S
C890 H876 0.930 . S
C890 C888 1.395 . S
C890 C893 1.403 . S
C891 C888 1.403 . S
C891 C892 1.524 . S
C891 C895 1.400 . S
C892 H877 0.960 . S
C892 H878 0.960 . S
C892 H879 0.960 . S
C892 C891 1.524 . S
C893 C890 1.403 . S
C893 C894 1.392 . S
C893 C897 1.495 . S
C894 C893 1.392 . S
C894 C895 1.385 . S
C894 C896 1.478 . S
C895 H889 0.930 . S
C895 C891 1.400 . S
C895 C894 1.385 . S
C896 C894 1.478 . S
C896 C898 1.381 . S
C896 C902 1.383 . S
C897 C893 1.495 . S
C897 H903 0.959 . S
C897 H904 0.961 . S
C897 H905 0.960 . S
C898 C896 1.381 . S
C898 C899 1.394 . S
C898 H906 0.930 . S
C899 C898 1.394 . S
C899 C900 1.383 . S
C899 H907 0.929 . S
C900 C899 1.383 . S
C900 C901 1.377 . S
C901 H885 0.930 . S
C901 C900 1.377 . S
C901 C902 1.379 . S
C902 H886 0.931 . S
C902 C896 1.383 . S
C902 C901 1.379 . S
H903 C897 0.959 . S
H904 C897 0.961 . S
H905 C897 0.960 . S
H906 C898 0.930 . S
H907 C899 0.929 . S
H908 C916 0.929 1_655 S
H909 C918 0.917 1_655 S
H910 C920 0.930 . S
H911 C923 0.929 . S
H912 C926 0.930 . S
H913 C928 0.960 . S
H914 C928 0.960 . S
H915 C928 0.960 . S
C916 H908 0.929 1_455 S
C916 C917 1.377 . S
C916 C918 1.388 . S
C917 C916 1.377 . S
C917 C923 1.390 . S
C918 H909 0.917 1_455 S
C918 C916 1.388 . S
C918 C919 1.380 . S
C919 C918 1.380 . S
C919 C920 1.400 . S
C919 C924 1.490 . S
C920 H910 0.930 . S
C920 C919 1.400 . S
C920 C923 1.386 . S
H921 C937 0.930 1_455 S
H922 C938 0.931 1_455 S
C923 H911 0.929 . S
C923 C917 1.390 . S
C923 C920 1.386 . S
C924 C919 1.490 . S
C924 C926 1.395 1_455 S
C924 C927 1.403 . S
H925 C931 0.930 . S
C926 H912 0.930 . S
C926 C924 1.395 1_655 S
C926 C929 1.403 . S
C927 C924 1.403 . S
C927 C928 1.524 . S
C927 C931 1.400 . S
C928 H913 0.960 . S
C928 H914 0.960 . S
C928 H915 0.960 . S
C928 C927 1.524 . S
C929 C926 1.403 . S
C929 C930 1.392 . S
C929 C933 1.495 . S
C930 C929 1.392 . S
C930 C931 1.385 1_655 S
C930 C932 1.478 . S
C931 H925 0.930 . S
C931 C927 1.400 . S
C931 C930 1.385 1_455 S
C932 C930 1.478 . S
C932 C934 1.381 . S
C932 C938 1.383 . S
C933 C929 1.495 . S
C933 H939 0.959 . S
C933 H940 0.961 . S
C933 H941 0.960 . S
C934 C932 1.381 . S
C934 C935 1.394 . S
C934 H942 0.930 . S
C935 C934 1.394 . S
C935 C936 1.383 . S
C935 H943 0.929 . S
C936 C935 1.383 . S
C936 C937 1.377 . S
C937 H921 0.930 1_655 S
C937 C936 1.377 . S
C937 C938 1.379 . S
C938 H922 0.931 1_655 S
C938 C932 1.383 . S
C938 C937 1.379 . S
H939 C933 0.959 . S
H940 C933 0.961 . S
H941 C933 0.960 . S
H942 C934 0.930 . S
H943 C935 0.929 . S
H944 C952 0.929 . S
H945 C954 0.930 . S
H946 C956 0.930 . S
H947 C959 0.929 . S
H948 C962 0.930 . S
H949 C964 0.960 . S
H950 C964 0.960 . S
H951 C964 0.960 . S
C952 H944 0.929 . S
C952 C953 1.377 . S
C952 C954 1.384 . S
C953 C952 1.377 . S
C953 C959 1.390 . S
C954 H945 0.930 . S
C954 C952 1.384 . S
C954 C955 1.372 . S
C955 C954 1.372 . S
C955 C956 1.400 . S
C955 C960 1.490 . S
C956 H946 0.930 . S
C956 C955 1.400 . S
C956 C959 1.386 . S
H957 C973 0.930 . S
H958 C974 0.931 . S
C959 H947 0.929 . S
C959 C953 1.390 . S
C959 C956 1.386 . S
C960 C955 1.490 . S
C960 C962 1.395 . S
C960 C963 1.403 1_455 S
H961 C967 0.930 . S
C962 H948 0.930 . S
C962 C960 1.395 . S
C962 C965 1.403 . S
C963 C960 1.403 1_655 S
C963 C964 1.524 . S
C963 C967 1.400 . S
C964 H949 0.960 . S
C964 H950 0.960 . S
C964 H951 0.960 . S
C964 C963 1.524 . S
C965 C962 1.403 . S
C965 C966 1.392 1_455 S
C965 C969 1.495 . S
C966 C965 1.392 1_655 S
C966 C967 1.385 . S
C966 C968 1.478 . S
C967 H961 0.930 . S
C967 C963 1.400 . S
C967 C966 1.385 . S
C968 C966 1.478 . S
C968 C970 1.381 . S
C968 C974 1.383 . S
C969 C965 1.495 . S
C969 H975 0.959 . S
C969 H976 0.961 . S
C969 H977 0.960 . S
C970 C968 1.381 . S
C970 C971 1.394 . S
C970 H978 0.930 . S
C971 C970 1.394 . S
C971 C972 1.383 . S
C971 H979 0.929 . S
C972 C971 1.383 . S
C972 C973 1.377 . S
C973 H957 0.930 . S
C973 C972 1.377 . S
C973 C974 1.379 . S
C974 H958 0.931 . S
C974 C968 1.383 . S
C974 C973 1.379 . S
H975 C969 0.959 . S
H976 C969 0.961 . S
H977 C969 0.960 . S
H978 C970 0.930 . S
H979 C971 0.929 . S
H980 C988 0.929 . S
H981 C990 0.930 . S
H982 C992 0.930 . S
H983 C995 0.929 . S
H984 C998 0.930 . S
H985 C1000 0.960 . S
H986 C1000 0.960 . S
H987 C1000 0.960 . S
C988 H980 0.929 . S
C988 C989 1.377 . S
C988 C990 1.384 . S
C989 C988 1.377 . S
C989 C995 1.390 . S
C990 H981 0.930 . S
C990 C988 1.384 . S
C990 C991 1.372 . S
C991 C990 1.372 . S
C991 C992 1.400 . S
C991 C996 1.490 . S
C992 H982 0.930 . S
C992 C991 1.400 . S
C992 C995 1.386 . S
H993 C1009 0.930 . S
H994 C1010 0.931 . S
C995 H983 0.929 . S
C995 C989 1.390 . S
C995 C992 1.386 . S
C996 C991 1.490 . S
C996 C998 1.395 . S
C996 C999 1.403 . S
H997 C1003 0.930 . S
C998 H984 0.930 . S
C998 C996 1.395 . S
C998 C1001 1.403 . S
C999 C996 1.403 . S
C999 C1000 1.524 . S
C999 C1003 1.400 . S
C1000 H985 0.960 . S
C1000 H986 0.960 . S
C1000 H987 0.960 . S
C1000 C999 1.524 . S
C1001 C998 1.403 . S
C1001 C1002 1.392 . S
C1001 C1005 1.495 . S
C1002 C1001 1.392 . S
C1002 C1003 1.385 . S
C1002 C1004 1.478 . S
C1003 H997 0.930 . S
C1003 C999 1.400 . S
C1003 C1002 1.385 . S
C1004 C1002 1.478 . S
C1004 C1006 1.381 . S
C1004 C1010 1.383 . S
C1005 C1001 1.495 . S
C1005 H1011 0.959 . S
C1005 H1012 0.961 . S
C1005 H1013 0.960 . S
C1006 C1004 1.381 . S
C1006 C1007 1.394 . S
C1006 H1014 0.930 . S
C1007 C1006 1.394 . S
C1007 C1008 1.383 . S
C1007 H1015 0.929 . S
C1008 C1007 1.383 . S
C1008 C1009 1.377 . S
C1009 H993 0.930 . S
C1009 C1008 1.377 . S
C1009 C1010 1.379 . S
C1010 H994 0.931 . S
C1010 C1004 1.383 . S
C1010 C1009 1.379 . S
H1011 C1005 0.959 . S
H1012 C1005 0.961 . S
H1013 C1005 0.960 . S
H1014 C1006 0.930 . S
H1015 C1007 0.929 . S
H1016 C1024 0.929 . S
H1017 C1026 0.930 . S
H1018 C1028 0.930 . S
H1019 C1031 0.929 . S
H1020 C1034 0.930 . S
H1021 C1036 0.960 . S
H1022 C1036 0.960 . S
H1023 C1036 0.960 . S
C1024 H1016 0.929 . S
C1024 C1025 1.377 . S
C1024 C1026 1.384 . S
C1025 C1024 1.377 . S
C1025 C1031 1.390 . S
C1026 H1017 0.930 . S
C1026 C1024 1.384 . S
C1026 C1027 1.372 . S
C1027 C1026 1.372 . S
C1027 C1028 1.400 . S
C1027 C1032 1.490 . S
C1028 H1018 0.930 . S
C1028 C1027 1.400 . S
C1028 C1031 1.386 . S
H1029 C1045 0.930 . S
H1030 C1046 0.931 . S
C1031 H1019 0.929 . S
C1031 C1025 1.390 . S
C1031 C1028 1.386 . S
C1032 C1027 1.490 . S
C1032 C1034 1.395 . S
C1032 C1035 1.403 . S
H1033 C1039 0.930 . S
C1034 H1020 0.930 . S
C1034 C1032 1.395 . S
C1034 C1037 1.403 . S
C1035 C1032 1.403 . S
C1035 C1036 1.524 . S
C1035 C1039 1.400 . S
C1036 H1021 0.960 . S
C1036 H1022 0.960 . S
C1036 H1023 0.960 . S
C1036 C1035 1.524 . S
C1037 C1034 1.403 . S
C1037 C1038 1.392 . S
C1037 C1041 1.495 . S
C1038 C1037 1.392 . S
C1038 C1039 1.385 . S
C1038 C1040 1.478 . S
C1039 H1033 0.930 . S
C1039 C1035 1.400 . S
C1039 C1038 1.385 . S
C1040 C1038 1.478 . S
C1040 C1042 1.381 . S
C1040 C1046 1.383 . S
C1041 C1037 1.495 . S
C1041 H1047 0.959 . S
C1041 H1048 0.961 . S
C1041 H1049 0.960 . S
C1042 C1040 1.381 . S
C1042 C1043 1.394 . S
C1042 H1050 0.930 . S
C1043 C1042 1.394 . S
C1043 C1044 1.383 . S
C1043 H1051 0.929 . S
C1044 C1043 1.383 . S
C1044 C1045 1.377 . S
C1045 H1029 0.930 . S
C1045 C1044 1.377 . S
C1045 C1046 1.379 . S
C1046 H1030 0.931 . S
C1046 C1040 1.383 . S
C1046 C1045 1.379 . S
H1047 C1041 0.959 . S
H1048 C1041 0.961 . S
H1049 C1041 0.960 . S
H1050 C1042 0.930 . S
H1051 C1043 0.929 . S
H1052 C1060 0.929 . S
H1053 C1062 0.930 1_655 S
H1054 C1064 0.930 . S
H1055 C1067 0.929 . S
H1056 C1070 0.930 . S
H1057 C1072 0.960 . S
H1058 C1072 0.960 . S
H1059 C1072 0.960 . S
C1060 H1052 0.929 . S
C1060 C1061 1.377 . S
C1060 C1062 1.384 . S
C1061 C1060 1.377 . S
C1061 C1067 1.390 . S
C1062 H1053 0.930 1_455 S
C1062 C1060 1.384 . S
C1062 C1063 1.372 . S
C1063 C1062 1.372 . S
C1063 C1064 1.400 . S
C1063 C1068 1.490 . S
C1064 H1054 0.930 . S
C1064 C1063 1.400 . S
C1064 C1067 1.386 . S
H1065 C1081 0.930 . S
H1066 C1082 0.931 . S
C1067 H1055 0.929 . S
C1067 C1061 1.390 . S
C1067 C1064 1.386 . S
C1068 C1063 1.490 . S
C1068 C1070 1.395 1_455 S
C1068 C1071 1.403 . S
H1069 C1075 0.930 . S
C1070 H1056 0.930 . S
C1070 C1068 1.395 1_655 S
C1070 C1073 1.403 . S
C1071 C1068 1.403 . S
C1071 C1072 1.524 . S
C1071 C1075 1.400 . S
C1072 H1057 0.960 . S
C1072 H1058 0.960 . S
C1072 H1059 0.960 . S
C1072 C1071 1.524 . S
C1073 C1070 1.403 . S
C1073 C1074 1.392 . S
C1073 C1077 1.495 . S
C1074 C1073 1.392 . S
C1074 C1075 1.385 1_655 S
C1074 C1076 1.478 . S
C1075 H1069 0.930 . S
C1075 C1071 1.400 . S
C1075 C1074 1.385 1_455 S
C1076 C1074 1.478 . S
C1076 C1078 1.381 . S
C1076 C1082 1.383 . S
C1077 C1073 1.495 . S
C1077 H1083 0.959 . S
C1077 H1084 0.961 . S
C1077 H1085 0.960 . S
C1078 C1076 1.381 . S
C1078 C1079 1.394 . S
C1078 H1086 0.930 . S
C1079 C1078 1.394 . S
C1079 C1080 1.383 . S
C1079 H1087 0.929 . S
C1080 C1079 1.383 . S
C1080 C1081 1.377 . S
C1081 H1065 0.930 . S
C1081 C1080 1.377 . S
C1081 C1082 1.379 . S
C1082 H1066 0.931 . S
C1082 C1076 1.383 . S
C1082 C1081 1.379 . S
H1083 C1077 0.959 . S
H1084 C1077 0.961 . S
H1085 C1077 0.960 . S
H1086 C1078 0.930 . S
H1087 C1079 0.929 . S
H1088 C1096 0.929 . S
H1089 C1098 0.930 1_545 S
H1090 C1100 0.930 . S
H1091 C1103 0.929 . S
H1092 C1106 0.930 . S
H1093 C1108 0.960 . S
H1094 C1108 0.960 1_545 S
H1095 C1108 0.960 . S
C1096 H1088 0.929 . S
C1096 C1097 1.377 . S
C1096 C1098 1.384 . S
C1097 C1096 1.377 . S
C1097 C1103 1.390 . S
C1098 H1089 0.930 1_565 S
C1098 C1096 1.384 . S
C1098 C1099 1.372 . S
C1099 C1098 1.372 . S
C1099 C1100 1.400 . S
C1099 C1104 1.490 . S
C1100 H1090 0.930 . S
C1100 C1099 1.400 . S
C1100 C1103 1.386 . S
H1101 C1117 0.930 . S
H1102 C1118 0.931 1_565 S
C1103 H1091 0.929 . S
C1103 C1097 1.390 . S
C1103 C1100 1.386 . S
C1104 C1099 1.490 . S
C1104 C1106 1.395 . S
C1104 C1107 1.403 1_655 S
H1105 C1111 0.930 . S
C1106 H1092 0.930 . S
C1106 C1104 1.395 . S
C1106 C1109 1.403 1_566 S
C1107 C1104 1.403 1_455 S
C1107 C1108 1.524 . S
C1107 C1111 1.400 1_566 S
C1108 H1093 0.960 . S
C1108 H1094 0.960 1_565 S
C1108 H1095 0.960 . S
C1108 C1107 1.524 . S
C1109 C1106 1.403 1_544 S
C1109 C1110 1.392 1_655 S
C1109 C1113 1.495 . S
C1110 C1109 1.392 1_455 S
C1110 C1111 1.385 . S
C1110 C1112 1.478 . S
C1111 H1105 0.930 . S
C1111 C1107 1.400 1_544 S
C1111 C1110 1.385 . S
C1112 C1110 1.478 . S
C1112 C1114 1.381 . S
C1112 C1118 1.383 . S
C1113 C1109 1.495 . S
C1113 H1119 0.959 . S
C1113 H1120 0.960 . S
C1113 H1121 0.960 . S
C1114 C1112 1.381 . S
C1114 C1115 1.394 . S
C1114 H1122 0.945 . S
C1115 C1114 1.394 . S
C1115 C1116 1.383 . S
C1115 H1123 0.929 . S
C1116 C1115 1.383 . S
C1116 C1117 1.377 . S
C1117 H1101 0.930 . S
C1117 C1116 1.377 . S
C1117 C1118 1.379 . S
C1118 H1102 0.931 1_545 S
C1118 C1112 1.383 . S
C1118 C1117 1.379 . S
H1119 C1113 0.959 . S
H1120 C1113 0.960 . S
H1121 C1113 0.960 . S
H1122 C1114 0.945 . S
H1123 C1115 0.929 . S
H1124 C1132 0.929 . S
H1125 C1134 0.930 . S
H1126 C1136 0.930 . S
H1127 C1139 0.929 . S
H1128 C1142 0.930 . S
H1129 C1144 0.960 . S
H1130 C1144 0.953 1_556 S
H1131 C1144 0.960 1_556 S
C1132 H1124 0.929 . S
C1132 C1133 1.377 . S
C1132 C1134 1.384 . S
C1133 C1132 1.377 . S
C1133 C1139 1.390 . S
C1134 H1125 0.930 . S
C1134 C1132 1.384 . S
C1134 C1135 1.372 . S
C1135 C1134 1.372 . S
C1135 C1136 1.400 . S
C1135 C1140 1.490 . S
C1136 H1126 0.930 . S
C1136 C1135 1.400 . S
C1136 C1139 1.386 . S
H1137 C1153 0.930 . S
H1138 C1154 0.931 . S
C1139 H1127 0.929 . S
C1139 C1133 1.390 . S
C1139 C1136 1.386 . S
C1140 C1135 1.490 . S
C1140 C1142 1.395 1_545 S
C1140 C1143 1.362 1_556 S
H1141 C1147 0.930 . S
C1142 H1128 0.930 . S
C1142 C1140 1.395 1_565 S
C1142 C1145 1.403 . S
C1143 C1140 1.362 1_554 S
C1143 C1144 1.531 . S
C1143 C1147 1.436 . S
C1144 H1129 0.960 . S
C1144 H1130 0.953 1_554 S
C1144 H1131 0.960 1_554 S
C1144 C1143 1.531 . S
C1145 C1142 1.403 . S
C1145 C1146 1.392 1_556 S
C1145 C1149 1.495 . S
C1146 C1145 1.392 1_554 S
C1146 C1147 1.385 1_565 S
C1146 C1148 1.478 . S
C1147 H1141 0.930 . S
C1147 C1143 1.436 . S
C1147 C1146 1.385 1_545 S
C1148 C1146 1.478 . S
C1148 C1150 1.381 . S
C1148 C1154 1.383 . S
C1149 C1145 1.495 . S
C1149 H1155 0.959 . S
C1149 H1156 0.975 . S
C1149 H1157 0.960 1_556 S
C1150 C1148 1.381 . S
C1150 C1151 1.394 . S
C1150 H1158 0.930 . S
C1151 C1150 1.394 . S
C1151 C1152 1.383 . S
C1151 H1159 0.929 . S
C1152 C1151 1.383 . S
C1152 C1153 1.377 . S
C1153 H1137 0.930 . S
C1153 C1152 1.377 . S
C1153 C1154 1.379 . S
C1154 H1138 0.931 . S
C1154 C1148 1.383 . S
C1154 C1153 1.379 . S
H1155 C1149 0.959 . S
H1156 C1149 0.975 . S
H1157 C1149 0.960 1_554 S
H1158 C1150 0.930 . S
H1159 C1151 0.929 . S
H1160 C1168 0.929 . S
H1161 C1170 0.930 . S
H1162 C1172 0.930 . S
H1163 C1175 0.929 . S
H1164 C1178 0.930 . S
H1165 C1180 0.960 . S
H1166 C1180 0.960 . S
H1167 C1180 0.960 . S
C1168 H1160 0.929 . S
C1168 C1169 1.377 . S
C1168 C1170 1.384 . S
C1169 C1168 1.377 . S
C1169 C1175 1.390 . S
C1170 H1161 0.930 . S
C1170 C1168 1.384 . S
C1170 C1171 1.372 . S
C1171 C1170 1.372 . S
C1171 C1172 1.400 . S
C1171 C1176 1.490 . S
C1172 H1162 0.930 . S
C1172 C1171 1.400 . S
C1172 C1175 1.386 . S
H1173 C1189 0.930 . S
H1174 C1190 0.931 . S
C1175 H1163 0.929 . S
C1175 C1169 1.390 . S
C1175 C1172 1.386 . S
C1176 C1171 1.490 . S
C1176 C1178 1.395 . S
C1176 C1179 1.403 1_545 S
H1177 C1183 0.930 . S
C1178 H1164 0.930 . S
C1178 C1176 1.395 . S
C1178 C1181 1.403 . S
C1179 C1176 1.403 1_565 S
C1179 C1180 1.524 . S
C1179 C1183 1.400 . S
C1180 H1165 0.960 . S
C1180 H1166 0.960 . S
C1180 H1167 0.960 . S
C1180 C1179 1.524 . S
C1181 C1178 1.403 . S
C1181 C1182 1.392 1_545 S
C1181 C1185 1.495 . S
C1182 C1181 1.392 1_565 S
C1182 C1183 1.385 . S
C1182 C1184 1.478 . S
C1183 H1177 0.930 . S
C1183 C1179 1.400 . S
C1183 C1182 1.385 . S
C1184 C1182 1.478 . S
C1184 C1186 1.381 . S
C1184 C1190 1.383 . S
C1185 C1181 1.495 . S
C1185 H1191 0.959 . S
C1185 H1192 0.961 . S
C1185 H1193 0.960 . S
C1186 C1184 1.381 . S
C1186 C1187 1.394 . S
C1186 H1194 0.955 . S
C1187 C1186 1.394 . S
C1187 C1188 1.383 . S
C1187 H1195 0.929 . S
C1188 C1187 1.383 . S
C1188 C1189 1.377 . S
C1189 H1173 0.930 . S
C1189 C1188 1.377 . S
C1189 C1190 1.379 . S
C1190 H1174 0.931 . S
C1190 C1184 1.383 . S
C1190 C1189 1.379 . S
H1191 C1185 0.959 . S
H1192 C1185 0.961 . S
H1193 C1185 0.960 . S
H1194 C1186 0.955 . S
H1195 C1187 0.929 . S
H1196 C1204 0.929 . S
H1197 C1206 0.930 1_545 S
H1198 C1208 0.930 1_655 S
H1199 C1211 0.929 . S
H1200 C1214 0.930 . S
H1201 C1216 0.960 . S
H1202 C1216 0.960 . S
H1203 C1216 0.960 1_565 S
C1204 H1196 0.929 . S
C1204 C1205 1.377 . S
C1204 C1206 1.384 . S
C1205 C1204 1.377 . S
C1205 C1211 1.390 . S
C1206 H1197 0.930 1_565 S
C1206 C1204 1.384 . S
C1206 C1207 1.372 . S
C1207 C1206 1.372 . S
C1207 C1208 1.400 . S
C1207 C1212 1.490 . S
C1208 H1198 0.930 1_455 S
C1208 C1207 1.400 . S
C1208 C1211 1.386 . S
H1209 C1225 0.930 . S
H1210 C1226 0.931 1_565 S
C1211 H1199 0.929 . S
C1211 C1205 1.390 . S
C1211 C1208 1.386 . S
C1212 C1207 1.490 . S
C1212 C1214 1.395 . S
C1212 C1215 1.403 1_465 S
H1213 C1219 0.930 . S
C1214 H1200 0.930 . S
C1214 C1212 1.395 . S
C1214 C1217 1.403 . S
C1215 C1212 1.403 1_645 S
C1215 C1216 1.524 . S
C1215 C1219 1.400 . S
C1216 H1201 0.960 . S
C1216 H1202 0.960 . S
C1216 H1203 0.960 1_545 S
C1216 C1215 1.524 . S
C1217 C1214 1.403 . S
C1217 C1218 1.392 1_465 S
C1217 C1221 1.495 . S
C1218 C1217 1.392 1_645 S
C1218 C1219 1.385 . S
C1218 C1220 1.478 . S
C1219 H1213 0.930 . S
C1219 C1215 1.400 . S
C1219 C1218 1.385 . S
C1220 C1218 1.478 . S
C1220 C1222 1.381 . S
C1220 C1226 1.383 . S
C1221 C1217 1.495 . S
C1221 H1227 0.959 . S
C1221 H1228 0.961 . S
C1221 H1229 0.960 1_565 S
C1222 C1220 1.381 . S
C1222 C1223 1.394 . S
C1222 H1230 0.930 1_655 S
C1223 C1222 1.394 . S
C1223 C1224 1.383 . S
C1223 H1231 0.929 . S
C1224 C1223 1.383 . S
C1224 C1225 1.377 . S
C1225 H1209 0.930 . S
C1225 C1224 1.377 . S
C1225 C1226 1.379 . S
C1226 H1210 0.931 1_545 S
C1226 C1220 1.383 . S
C1226 C1225 1.379 . S
H1227 C1221 0.959 . S
H1228 C1221 0.961 . S
H1229 C1221 0.960 1_545 S
H1230 C1222 0.930 1_455 S
H1231 C1223 0.929 . S
H1232 C1240 0.929 . S
H1233 C1242 0.930 . S
H1234 C1244 0.930 . S
H1235 C1247 0.929 . S
H1236 C1250 0.930 . S
H1237 C1252 0.960 . S
H1238 C1252 0.960 . S
H1239 C1252 0.960 . S
C1240 H1232 0.929 . S
C1240 C1241 1.377 . S
C1240 C1242 1.384 . S
C1241 C1240 1.377 . S
C1241 C1247 1.390 . S
C1242 H1233 0.930 . S
C1242 C1240 1.384 . S
C1242 C1243 1.372 . S
C1243 C1242 1.372 . S
C1243 C1244 1.400 . S
C1243 C1248 1.490 . S
C1244 H1234 0.930 . S
C1244 C1243 1.400 . S
C1244 C1247 1.386 . S
H1245 C1261 0.930 . S
H1246 C1262 0.931 . S
C1247 H1235 0.929 . S
C1247 C1241 1.390 . S
C1247 C1244 1.386 . S
C1248 C1243 1.490 . S
C1248 C1250 1.395 . S
C1248 C1251 1.403 . S
H1249 C1255 0.930 . S
C1250 H1236 0.930 . S
C1250 C1248 1.395 . S
C1250 C1253 1.403 1_554 S
C1251 C1248 1.403 . S
C1251 C1252 1.524 . S
C1251 C1255 1.400 1_554 S
C1252 H1237 0.960 . S
C1252 H1238 0.960 . S
C1252 H1239 0.960 . S
C1252 C1251 1.524 . S
C1253 C1250 1.403 1_556 S
C1253 C1254 1.392 . S
C1253 C1257 1.495 . S
C1254 C1253 1.392 . S
C1254 C1255 1.385 . S
C1254 C1256 1.478 . S
C1255 H1249 0.930 . S
C1255 C1251 1.400 1_556 S
C1255 C1254 1.385 . S
C1256 C1254 1.478 . S
C1256 C1258 1.381 . S
C1256 C1262 1.383 . S
C1257 C1253 1.495 . S
C1257 H1263 0.959 . S
C1257 H1264 0.961 . S
C1257 H1265 0.960 . S
C1258 C1256 1.381 . S
C1258 C1259 1.394 . S
C1258 H1266 0.930 . S
C1259 C1258 1.394 . S
C1259 C1260 1.383 . S
C1259 H1267 0.929 . S
C1260 C1259 1.383 . S
C1260 C1261 1.377 . S
C1261 H1245 0.930 . S
C1261 C1260 1.377 . S
C1261 C1262 1.379 . S
C1262 H1246 0.931 . S
C1262 C1256 1.383 . S
C1262 C1261 1.379 . S
H1263 C1257 0.959 . S
H1264 C1257 0.961 . S
H1265 C1257 0.960 . S
H1266 C1258 0.930 . S
H1267 C1259 0.929 . S
H1268 C1276 0.929 . S
H1269 C1278 0.930 . S
H1270 C1280 0.930 . S
H1271 C1283 0.929 . S
H1272 C1286 0.931 1_554 S
H1273 C1288 0.960 . S
H1274 C1288 0.960 . S
H1275 C1288 0.960 . S
C1276 H1268 0.929 . S
C1276 C1277 1.377 . S
C1276 C1278 1.384 . S
C1277 C1276 1.377 . S
C1277 C1283 1.390 . S
C1278 H1269 0.930 . S
C1278 C1276 1.384 . S
C1278 C1279 1.372 . S
C1279 C1278 1.372 . S
C1279 C1280 1.400 . S
C1279 C1284 1.490 . S
C1280 H1270 0.930 . S
C1280 C1279 1.400 . S
C1280 C1283 1.386 . S
H1281 C1297 0.930 . S
H1282 C1298 0.931 . S
C1283 H1271 0.929 . S
C1283 C1277 1.390 . S
C1283 C1280 1.386 . S
C1284 C1279 1.490 . S
C1284 C1286 1.400 1_554 S
C1284 C1287 1.403 1_655 S
H1285 C1291 0.930 . S
C1286 H1272 0.931 1_556 S
C1286 C1284 1.400 1_556 S
C1286 C1289 1.398 . S
C1287 C1284 1.403 1_455 S
C1287 C1288 1.524 . S
C1287 C1291 1.400 1_554 S
C1288 H1273 0.960 . S
C1288 H1274 0.960 . S
C1288 H1275 0.960 . S
C1288 C1287 1.524 . S
C1289 C1286 1.398 . S
C1289 C1290 1.392 1_655 S
C1289 C1293 1.495 . S
C1290 C1289 1.392 1_455 S
C1290 C1291 1.385 . S
C1290 C1292 1.478 . S
C1291 H1285 0.930 . S
C1291 C1287 1.400 1_556 S
C1291 C1290 1.385 . S
C1292 C1290 1.478 . S
C1292 C1294 1.381 . S
C1292 C1298 1.383 . S
C1293 C1289 1.495 . S
C1293 H1299 0.959 . S
C1293 H1300 0.961 . S
C1293 H1301 0.960 . S
C1294 C1292 1.381 . S
C1294 C1295 1.394 . S
C1294 H1302 0.930 . S
C1295 C1294 1.394 . S
C1295 C1296 1.383 . S
C1295 H1303 0.929 . S
C1296 C1295 1.383 . S
C1296 C1297 1.377 . S
C1297 H1281 0.930 . S
C1297 C1296 1.377 . S
C1297 C1298 1.379 . S
C1298 H1282 0.931 . S
C1298 C1292 1.383 . S
C1298 C1297 1.379 . S
H1299 C1293 0.959 . S
H1300 C1293 0.961 . S
H1301 C1293 0.960 . S
H1302 C1294 0.930 . S
H1303 C1295 0.929 . S
H1304 C1312 0.929 . S
H1305 C1314 0.930 . S
H1306 C1316 0.930 1_455 S
H1307 C1319 0.929 . S
H1308 C1322 0.930 . S
H1309 C1324 0.960 . S
H1310 C1324 0.960 . S
H1311 C1324 0.960 . S
C1312 H1304 0.929 . S
C1312 C1313 1.377 . S
C1312 C1314 1.384 . S
C1313 C1312 1.377 . S
C1313 C1319 1.390 . S
C1314 H1305 0.930 . S
C1314 C1312 1.384 . S
C1314 C1315 1.372 . S
C1315 C1314 1.372 . S
C1315 C1316 1.400 . S
C1315 C1320 1.490 . S
C1316 H1306 0.930 1_655 S
C1316 C1315 1.400 . S
C1316 C1319 1.386 . S
H1317 C1333 0.930 . S
H1318 C1334 0.931 . S
C1319 H1307 0.929 . S
C1319 C1313 1.390 . S
C1319 C1316 1.386 . S
C1320 C1315 1.490 . S
C1320 C1322 1.395 . S
C1320 C1323 1.403 . S
H1321 C1327 0.930 . S
C1322 H1308 0.930 . S
C1322 C1320 1.395 . S
C1322 C1325 1.403 1_655 S
C1323 C1320 1.403 . S
C1323 C1324 1.524 . S
C1323 C1327 1.400 1_655 S
C1324 H1309 0.960 . S
C1324 H1310 0.960 . S
C1324 H1311 0.960 . S
C1324 C1323 1.524 . S
C1325 C1322 1.403 1_455 S
C1325 C1326 1.392 . S
C1325 C1329 1.495 . S
C1326 C1325 1.392 . S
C1326 C1327 1.385 . S
C1326 C1328 1.478 . S
C1327 H1321 0.930 . S
C1327 C1323 1.400 1_455 S
C1327 C1326 1.385 . S
C1328 C1326 1.478 . S
C1328 C1330 1.381 . S
C1328 C1334 1.383 . S
C1329 C1325 1.495 . S
C1329 H1335 0.959 . S
C1329 H1336 0.961 . S
C1329 H1337 0.960 . S
C1330 C1328 1.381 . S
C1330 C1331 1.394 . S
C1330 H1338 0.930 1_455 S
C1331 C1330 1.394 . S
C1331 C1332 1.383 . S
C1331 H1339 0.929 . S
C1332 C1331 1.383 . S
C1332 C1333 1.377 . S
C1333 H1317 0.930 . S
C1333 C1332 1.377 . S
C1333 C1334 1.379 . S
C1334 H1318 0.931 . S
C1334 C1328 1.383 . S
C1334 C1333 1.379 . S
H1335 C1329 0.959 . S
H1336 C1329 0.961 . S
H1337 C1329 0.960 . S
H1338 C1330 0.930 1_655 S
H1339 C1331 0.929 . S
H1340 C1348 0.929 . S
H1341 C1350 0.930 . S
H1342 C1352 0.930 . S
H1343 C1355 0.929 . S
H1344 C1358 0.930 . S
H1345 C1360 0.960 . S
H1346 C1360 0.960 . S
H1347 C1360 0.960 . S
C1348 H1340 0.929 . S
C1348 C1349 1.377 . S
C1348 C1350 1.384 . S
C1349 C1348 1.377 . S
C1349 C1355 1.390 . S
C1350 H1341 0.930 . S
C1350 C1348 1.384 . S
C1350 C1351 1.372 . S
C1351 C1350 1.372 . S
C1351 C1352 1.400 . S
C1351 C1356 1.490 . S
C1352 H1342 0.930 . S
C1352 C1351 1.400 . S
C1352 C1355 1.386 . S
H1353 C1369 0.930 . S
H1354 C1370 0.931 . S
C1355 H1343 0.929 . S
C1355 C1349 1.390 . S
C1355 C1352 1.386 . S
C1356 C1351 1.490 . S
C1356 C1358 1.395 . S
C1356 C1359 1.403 . S
H1357 C1363 0.930 . S
C1358 H1344 0.930 . S
C1358 C1356 1.395 . S
C1358 C1361 1.403 . S
C1359 C1356 1.403 . S
C1359 C1360 1.524 . S
C1359 C1363 1.400 . S
C1360 H1345 0.960 . S
C1360 H1346 0.960 . S
C1360 H1347 0.960 . S
C1360 C1359 1.524 . S
C1361 C1358 1.403 . S
C1361 C1362 1.392 . S
C1361 C1365 1.495 . S
C1362 C1361 1.392 . S
C1362 C1363 1.385 . S
C1362 C1364 1.478 . S
C1363 H1357 0.930 . S
C1363 C1359 1.400 . S
C1363 C1362 1.385 . S
C1364 C1362 1.478 . S
C1364 C1366 1.381 . S
C1364 C1370 1.383 . S
C1365 C1361 1.495 . S
C1365 H1371 0.959 . S
C1365 H1372 0.961 . S
C1365 H1373 0.960 . S
C1366 C1364 1.381 . S
C1366 C1367 1.394 . S
C1366 H1374 0.930 . S
C1367 C1366 1.394 . S
C1367 C1368 1.383 . S
C1367 H1375 0.929 . S
C1368 C1367 1.383 . S
C1368 C1369 1.377 . S
C1369 H1353 0.930 . S
C1369 C1368 1.377 . S
C1369 C1370 1.379 . S
C1370 H1354 0.931 . S
C1370 C1364 1.383 . S
C1370 C1369 1.379 . S
H1371 C1365 0.959 . S
H1372 C1365 0.961 . S
H1373 C1365 0.960 . S
H1374 C1366 0.930 . S
H1375 C1367 0.929 . S
C233 C21 1.520 . S
C252 C7 1.540 . S
C269 C35 1.518 . S
C288 C49 1.523 . S
C305 C62 1.520 . S
C324 C76 1.500 . S
C341 C104 1.525 . S
C360 C90 1.536 . S
C377 C133 1.522 . S
C396 C119 1.542 . S
C413 C161 1.522 . S
C432 C147 1.542 . S
C449 C188 1.524 . S
C468 C174 1.516 . S
C485 C216 1.519 . S
C504 C202 1.498 . S
C521 C48 1.524 . S
C540 C6 1.505 . S
C557 C20 1.528 . S
C576 C34 1.537 . S
C593 C105 1.523 . S
C612 C63 1.503 . S
C629 C91 1.522 . S
C648 C77 1.505 . S
C665 C118 1.523 . S
C684 C160 1.503 . S
C701 C146 1.527 . S
C720 C132 1.515 . S
C737 C217 1.524 . S
C756 C175 1.536 . S
C773 C189 1.525 . S
C792 C203 1.539 . S
C809 C8 1.435 . S
C828 C134 1.450 . S
C845 C22 1.430 . S
C864 C120 1.415 . S
C881 C162 1.437 . S
C900 C36 1.430 . S
C917 C148 1.436 . S
C936 C50 1.419 . S
C953 C191 1.436 . S
C972 C65 1.422 . S
C989 C177 1.433 . S
C1008 C79 1.437 . S
C1025 C93 1.436 . S
C1044 C219 1.422 . S
C1061 C107 1.431 . S
C1080 C205 1.446 . S
C1097 C64 1.572 . S
C1116 C9 1.580 . S
C1133 C78 1.570 . S
C1152 C23 1.555 . S
C1169 C92 1.568 . S
C1188 C37 1.566 . S
C1205 C106 1.571 . S
C1224 C51 1.579 . S
C1241 C121 1.572 . S
C1260 C176 1.563 . S
C1277 C135 1.571 . S
C1296 C190 1.580 . S
C1313 C204 1.568 . S
C1332 C149 1.567 . S
C1349 C218 1.573 . S
C1368 C163 1.578 . S
