# Generated by pormake.
# Topology qtz-h, (3)-cn, num edge types: 1
# Building blocks:
#     Node 0, Type 0, BuildingBlock: OLANEW_clean_sbu_2, # of connection points: 3
#     Node 1, Type 0, BuildingBlock: OLANEW_clean_sbu_2, # of connection points: 3
#     Node 2, Type 0, BuildingBlock: OLANEW_clean_sbu_2, # of connection points: 3
#     Node 3, Type 0, BuildingBlock: OLANEW_clean_sbu_2, # of connection points: 3
#     Node 4, Type 0, BuildingBlock: OLANEW_clean_sbu_2, # of connection points: 3
#     Node 5, Type 0, BuildingBlock: OLANEW_clean_sbu_2, # of connection points: 3
#     Node 6, Type 0, BuildingBlock: OLANEW_clean_sbu_2, # of connection points: 3
#     Node 7, Type 0, BuildingBlock: OLANEW_clean_sbu_2, # of connection points: 3
#     Node 8, Type 0, BuildingBlock: OLANEW_clean_sbu_2, # of connection points: 3
#     Node 9, Type 0, BuildingBlock: OLANEW_clean_sbu_2, # of connection points: 3
#     Node 10, Type 0, BuildingBlock: OLANEW_clean_sbu_2, # of connection points: 3
#     Node 11, Type 0, BuildingBlock: OLANEW_clean_sbu_2, # of connection points: 3
#     Edge 12, Type (0, 0), BuildingBlock: TEMPAE_clean_linker_10, # of connection points: 2
#     Edge 13, Type (0, 0), BuildingBlock: TEMPAE_clean_linker_10, # of connection points: 2
#     Edge 14, Type (0, 0), BuildingBlock: TEMPAE_clean_linker_10, # of connection points: 2
#     Edge 15, Type (0, 0), BuildingBlock: TEMPAE_clean_linker_10, # of connection points: 2
#     Edge 16, Type (0, 0), BuildingBlock: TEMPAE_clean_linker_10, # of connection points: 2
#     Edge 17, Type (0, 0), BuildingBlock: TEMPAE_clean_linker_10, # of connection points: 2
#     Edge 18, Type (0, 0), BuildingBlock: TEMPAE_clean_linker_10, # of connection points: 2
#     Edge 19, Type (0, 0), BuildingBlock: TEMPAE_clean_linker_10, # of connection points: 2
#     Edge 20, Type (0, 0), BuildingBlock: TEMPAE_clean_linker_10, # of connection points: 2
#     Edge 21, Type (0, 0), BuildingBlock: TEMPAE_clean_linker_10, # of connection points: 2
#     Edge 22, Type (0, 0), BuildingBlock: TEMPAE_clean_linker_10, # of connection points: 2
#     Edge 23, Type (0, 0), BuildingBlock: TEMPAE_clean_linker_10, # of connection points: 2
#     Edge 24, Type (0, 0), BuildingBlock: TEMPAE_clean_linker_10, # of connection points: 2
#     Edge 25, Type (0, 0), BuildingBlock: TEMPAE_clean_linker_10, # of connection points: 2
#     Edge 26, Type (0, 0), BuildingBlock: TEMPAE_clean_linker_10, # of connection points: 2
#     Edge 27, Type (0, 0), BuildingBlock: TEMPAE_clean_linker_10, # of connection points: 2
#     Edge 28, Type (0, 0), BuildingBlock: TEMPAE_clean_linker_10, # of connection points: 2
#     Edge 29, Type (0, 0), BuildingBlock: TEMPAE_clean_linker_10, # of connection points: 2
# Relax obj value: 0.007
# Max RMSD: 0.028
# Mean RMSD: 0.028
data_MOF--net-qtz-h--node1-OLANEW_clean_sbu_2--edge1-TEMPAE_clean_linker_10
_symmetry_space_group_name_H-M    P1
_symmetry_Int_Tables_number       1
_symmetry_cell_setting            triclinic
loop_
_symmetry_equiv_pos_as_xyz
'x, y, z'
_cell_length_a     60.078892
_cell_length_b     60.079606
_cell_length_c     69.214925
_cell_angle_alpha  89.99118
_cell_angle_beta   90.007962
_cell_angle_gamma 120.01873
loop_
_atom_site_label
_atom_site_type_symbol
_atom_site_fract_x
_atom_site_fract_y
_atom_site_fract_z
_atom_type_partial_charge
O0 O 0.65152 0.2089 0.07439 0.0
Cd1 Cd 0.66043 0.20688 0.10859 0.0
O2 O 0.62389 0.16784 0.07705 0.0
Cd3 Cd 0.59491 0.12916 0.06782 0.0
O4 O 0.56595 0.08855 0.06505 0.0
C5 C 0.56896 0.07228 0.07475 0.0
O6 O 0.58953 0.08049 0.08562 0.0
C7 C 0.63414 0.18817 0.06683 0.0
C8 C 0.65907 0.24582 0.12948 0.0
O9 O 0.68059 0.24769 0.12484 0.0
O10 O 0.63831 0.2256 0.12435 0.0
O11 O 0.42616 0.6625 0.40298 0.0
Cd12 Cd 0.44379 0.68193 0.43439 0.0
O13 O 0.43987 0.63527 0.40742 0.0
Cd14 Cd 0.44844 0.60512 0.39928 0.0
O15 O 0.45986 0.5761 0.39563 0.0
C16 C 0.47062 0.57196 0.40989 0.0
O17 O 0.47418 0.58515 0.42587 0.0
C18 C 0.42842 0.64378 0.39687 0.0
C19 C 0.40701 0.68262 0.45861 0.0
O20 O 0.41969 0.70082 0.44651 0.0
O21 O 0.41165 0.664 0.4592 0.0
O22 O 0.77481 0.4275 0.7367 0.0
Cd23 Cd 0.76768 0.44477 0.76654 0.0
O24 O 0.81026 0.43094 0.74862 0.0
Cd25 Cd 0.84619 0.43049 0.74501 0.0
O26 O 0.88547 0.43843 0.74056 0.0
C27 C 0.89764 0.45008 0.72538 0.0
O28 O 0.8859 0.45641 0.71232 0.0
C29 C 0.79429 0.42467 0.73481 0.0
C30 C 0.73111 0.40625 0.79022 0.0
O31 O 0.72445 0.41672 0.77701 0.0
O32 O 0.75511 0.41399 0.7922 0.0
O33 O 0.31854 0.76548 0.06395 0.0
Cd34 Cd 0.29516 0.75824 0.09431 0.0
O35 O 0.35281 0.79798 0.07676 0.0
Cd36 Cd 0.39132 0.83155 0.07438 0.0
O37 O 0.42514 0.86979 0.07178 0.0
C38 C 0.4262 0.88749 0.08247 0.0
O39 O 0.40736 0.88181 0.09469 0.0
C40 C 0.34173 0.78344 0.06238 0.0
C41 C 0.30067 0.72393 0.11825 0.0
O42 O 0.28299 0.7159 0.10537 0.0
O43 O 0.31579 0.74825 0.11981 0.0
O44 O 0.60387 0.37746 0.41867 0.0
Cd45 Cd 0.60201 0.37631 0.45395 0.0
O46 O 0.58839 0.40344 0.42106 0.0
Cd47 Cd 0.57319 0.4276 0.41057 0.0
O48 O 0.55772 0.45301 0.40491 0.0
C49 C 0.53416 0.4452 0.40836 0.0
O50 O 0.51952 0.42166 0.41479 0.0
C51 C 0.5969 0.39196 0.41056 0.0
C52 C 0.63529 0.36235 0.47095 0.0
O53 O 0.61125 0.34602 0.46935 0.0
O54 O 0.64359 0.38509 0.46437 0.0
O55 O 0.22333 0.56837 0.74008 0.0
Cd56 Cd 0.22607 0.55084 0.77128 0.0
O57 O 0.18181 0.55251 0.74335 0.0
Cd58 Cd 0.14298 0.54288 0.73446 0.0
O59 O 0.10263 0.53169 0.73033 0.0
C60 C 0.08757 0.51176 0.72067 0.0
O61 O 0.09673 0.49814 0.7127 0.0
C62 C 0.20223 0.5653 0.73348 0.0
C63 C 0.26445 0.58851 0.79448 0.0
O64 O 0.26962 0.57574 0.78222 0.0
O65 O 0.24107 0.5834 0.79581 0.0
O66 O 0.7941 0.33419 0.60065 0.0
Cd67 Cd 0.79685 0.3249 0.56665 0.0
O68 O 0.83021 0.36959 0.59511 0.0
Cd69 Cd 0.86368 0.40792 0.59935 0.0
O70 O 0.90162 0.44159 0.60364 0.0
C71 C 0.9166 0.45071 0.58921 0.0
O72 O 0.90842 0.43998 0.5722 0.0
C73 C 0.81218 0.35558 0.60679 0.0
C74 C 0.76112 0.3307 0.54478 0.0
O75 O 0.75684 0.30827 0.54951 0.0
O76 O 0.78226 0.35024 0.5502 0.0
O77 O 0.42663 0.76701 0.93145 0.0
Cd78 Cd 0.44352 0.76203 0.90064 0.0
O79 O 0.43608 0.80608 0.92385 0.0
Cd80 Cd 0.43906 0.84396 0.92515 0.0
O81 O 0.44885 0.8842 0.92646 0.0
C82 C 0.47015 0.90109 0.91926 0.0
O83 O 0.48519 0.89364 0.91129 0.0
C84 C 0.42675 0.78759 0.93593 0.0
C85 C 0.40457 0.72467 0.87764 0.0
O86 O 0.41627 0.71858 0.89023 0.0
O87 O 0.41136 0.74848 0.87589 0.0
O88 O 0.63451 0.41369 0.25777 0.0
Cd89 Cd 0.6355 0.41772 0.22261 0.0
O90 O 0.60478 0.42447 0.25631 0.0
Cd91 Cd 0.57724 0.43511 0.26739 0.0
O92 O 0.54956 0.44803 0.27214 0.0
C93 C 0.5489 0.46329 0.25973 0.0
O94 O 0.56495 0.47064 0.24508 0.0
C95 C 0.61816 0.41773 0.26634 0.0
C96 C 0.64378 0.3814 0.204 0.0
O97 O 0.66217 0.4046 0.20607 0.0
O98 O 0.62163 0.37539 0.21079 0.0
O99 O 0.23891 0.67412 0.60352 0.0
Cd100 Cd 0.24673 0.69841 0.57353 0.0
O101 O 0.19869 0.6489 0.59522 0.0
Cd102 Cd 0.15882 0.61852 0.59971 0.0
O103 O 0.11874 0.58792 0.60148 0.0
C104 C 0.10093 0.59346 0.60067 0.0
O105 O 0.10714 0.6177 0.5991 0.0
C106 C 0.21684 0.65514 0.6073 0.0
C107 C 0.28079 0.69317 0.54911 0.0
O108 O 0.28898 0.71044 0.56231 0.0
O109 O 0.25643 0.67829 0.54749 0.0
O110 O 0.57547 0.22594 0.93051 0.0
Cd111 Cd 0.55875 0.23194 0.89995 0.0
O112 O 0.56068 0.18544 0.92329 0.0
Cd113 Cd 0.5506 0.14559 0.92885 0.0
O114 O 0.53872 0.10488 0.93128 0.0
C115 C 0.52386 0.08952 0.91843 0.0
O116 O 0.5162 0.09871 0.90431 0.0
C117 C 0.57241 0.20408 0.93501 0.0
C118 C 0.5971 0.26954 0.87675 0.0
O119 O 0.58553 0.27547 0.88955 0.0
O120 O 0.59059 0.2458 0.87498 0.0
O121 O 0.33516 0.57557 0.26004 0.0
Cd122 Cd 0.31492 0.55882 0.22869 0.0
O123 O 0.36076 0.55997 0.25518 0.0
Cd124 Cd 0.38975 0.54966 0.26308 0.0
O125 O 0.41861 0.53817 0.26743 0.0
C126 C 0.41412 0.51656 0.26087 0.0
O127 O 0.39218 0.50186 0.25203 0.0
C128 C 0.35327 0.57215 0.2659 0.0
C129 C 0.31368 0.59627 0.2056 0.0
O130 O 0.2958 0.5833 0.21785 0.0
O131 O 0.33225 0.59161 0.20433 0.0
C132 C 0.6338 0.33624 0.19914 0.0
C133 C 0.64778 0.36217 0.19376 0.0
C134 C 0.63686 0.31759 0.18922 0.0
C135 C 0.65359 0.32496 0.1731 0.0
C136 C 0.66775 0.35116 0.16761 0.0
C137 C 0.66501 0.36955 0.17825 0.0
C138 C 0.62206 0.28997 0.1959 0.0
C139 C 0.68515 0.35966 0.15015 0.0
C140 C 0.67638 0.28009 0.15469 0.0
C141 C 0.6581 0.2664 0.14037 0.0
C142 C 0.67503 0.29907 0.16563 0.0
C143 C 0.65551 0.30508 0.16159 0.0
C144 C 0.63745 0.29174 0.14674 0.0
C145 C 0.63867 0.27219 0.13656 0.0
C146 C 0.69408 0.31225 0.18178 0.0
C147 C 0.61689 0.29817 0.14156 0.0
H148 H 0.62063 0.33059 0.21125 0.0
H149 H 0.67567 0.3896 0.17401 0.0
H150 H 0.60803 0.27792 0.18466 0.0
H151 H 0.63536 0.28241 0.19813 0.0
H152 H 0.61147 0.28778 0.20958 0.0
H153 H 0.6949 0.38078 0.14787 0.0
H154 H 0.70001 0.35399 0.15171 0.0
H155 H 0.67378 0.34992 0.13704 0.0
H156 H 0.69129 0.27543 0.15771 0.0
H157 H 0.62468 0.26172 0.12534 0.0
H158 H 0.68369 0.30915 0.19567 0.0
H159 H 0.70514 0.33328 0.17922 0.0
H160 H 0.70781 0.30507 0.18326 0.0
H161 H 0.60371 0.29399 0.15397 0.0
H162 H 0.60537 0.2871 0.12885 0.0
H163 H 0.62578 0.319 0.13834 0.0
C164 C 0.37697 0.66553 0.48683 0.0
C165 C 0.3878 0.68328 0.47166 0.0
C166 C 0.35924 0.66638 0.49959 0.0
C167 C 0.352 0.68528 0.49701 0.0
C168 C 0.3626 0.70302 0.48157 0.0
C169 C 0.38047 0.70189 0.46915 0.0
C170 C 0.34851 0.64727 0.51599 0.0
C171 C 0.35516 0.7233 0.47824 0.0
C172 C 0.28982 0.67461 0.51975 0.0
C173 C 0.29892 0.69068 0.536 0.0
C174 C 0.30686 0.67259 0.50696 0.0
C175 C 0.33363 0.68678 0.51062 0.0
C176 C 0.3429 0.70276 0.52714 0.0
C177 C 0.32545 0.70462 0.53958 0.0
C178 C 0.29627 0.65552 0.48941 0.0
C179 C 0.37129 0.71799 0.53163 0.0
H180 H 0.38258 0.65113 0.4889 0.0
H181 H 0.38867 0.71561 0.45741 0.0
H182 H 0.35351 0.6576 0.53001 0.0
H183 H 0.32723 0.63609 0.51508 0.0
H184 H 0.35594 0.63366 0.51591 0.0
H185 H 0.36463 0.73521 0.46527 0.0
H186 H 0.33403 0.71409 0.47643 0.0
H187 H 0.3605 0.73613 0.491 0.0
H188 H 0.26935 0.66383 0.51687 0.0
H189 H 0.33263 0.71699 0.55215 0.0
H190 H 0.30227 0.64081 0.48949 0.0
H191 H 0.30421 0.66713 0.47609 0.0
H192 H 0.27495 0.64559 0.48872 0.0
H193 H 0.37927 0.70491 0.53272 0.0
H194 H 0.37532 0.72898 0.54534 0.0
H195 H 0.38162 0.7317 0.51973 0.0
C196 C 0.62629 0.31563 0.86784 0.0
C197 C 0.6172 0.28949 0.86426 0.0
C198 C 0.64513 0.33474 0.856 0.0
C199 C 0.65496 0.32753 0.8401 0.0
C200 C 0.6459 0.30119 0.83642 0.0
C201 C 0.62721 0.28249 0.84859 0.0
C202 C 0.65447 0.36265 0.86048 0.0
C203 C 0.65579 0.29276 0.81951 0.0
C204 C 0.68535 0.37556 0.79912 0.0
C205 C 0.71166 0.38594 0.80288 0.0
C206 C 0.6667 0.3564 0.81103 0.0
C207 C 0.67454 0.34757 0.82719 0.0
C208 C 0.70105 0.35798 0.83109 0.0
C209 C 0.7193 0.37697 0.81883 0.0
C210 C 0.6386 0.34561 0.80633 0.0
C211 C 0.71014 0.34918 0.84827 0.0
H212 H 0.61871 0.32121 0.87995 0.0
H213 H 0.62025 0.26233 0.8457 0.0
H214 H 0.6756 0.37313 0.86263 0.0
H215 H 0.65038 0.3718 0.84811 0.0
H216 H 0.64525 0.36506 0.87361 0.0
H217 H 0.64683 0.27152 0.81867 0.0
H218 H 0.65187 0.29979 0.80582 0.0
H219 H 0.67693 0.30129 0.82064 0.0
H220 H 0.67929 0.38233 0.78678 0.0
H221 H 0.73959 0.38494 0.82187 0.0
H222 H 0.62879 0.34911 0.81854 0.0
H223 H 0.62914 0.32449 0.8043 0.0
H224 H 0.63571 0.35425 0.79306 0.0
H225 H 0.70243 0.35267 0.86179 0.0
H226 H 0.73144 0.35922 0.8493 0.0
H227 H 0.70272 0.32819 0.84733 0.0
C228 C 0.33002 0.62696 0.17772 0.0
C229 C 0.31271 0.6158 0.19311 0.0
C230 C 0.3288 0.64493 0.16545 0.0
C231 C 0.30999 0.65211 0.16877 0.0
C232 C 0.29272 0.64122 0.18446 0.0
C233 C 0.2942 0.6231 0.19638 0.0
C234 C 0.34741 0.65597 0.14877 0.0
C235 C 0.27255 0.64858 0.18858 0.0
C236 C 0.31994 0.71456 0.14702 0.0
C237 C 0.3034 0.70564 0.13102 0.0
C238 C 0.32231 0.69736 0.15943 0.0
C239 C 0.30801 0.67064 0.15562 0.0
C240 C 0.29153 0.66156 0.13936 0.0
C241 C 0.28932 0.67915 0.12731 0.0
C242 C 0.3399 0.70775 0.17673 0.0
C243 C 0.27616 0.63322 0.13471 0.0
H244 H 0.34434 0.62137 0.17508 0.0
H245 H 0.28083 0.61467 0.20829 0.0
H246 H 0.33666 0.65113 0.13493 0.0
H247 H 0.35856 0.67724 0.14984 0.0
H248 H 0.36108 0.64862 0.1483 0.0
H249 H 0.2611 0.63895 0.20169 0.0
H250 H 0.2818 0.66969 0.19056 0.0
H251 H 0.25927 0.64338 0.1761 0.0
H252 H 0.33083 0.735 0.15001 0.0
H253 H 0.27659 0.67212 0.11493 0.0
H254 H 0.35467 0.70185 0.17609 0.0
H255 H 0.32872 0.69956 0.1902 0.0
H256 H 0.34977 0.72905 0.17763 0.0
H257 H 0.28923 0.62529 0.13302 0.0
H258 H 0.2647 0.62934 0.12126 0.0
H259 H 0.26289 0.62272 0.14679 0.0
C260 C 0.72716 0.31621 0.51937 0.0
C261 C 0.7421 0.33404 0.5336 0.0
C262 C 0.70948 0.31966 0.50834 0.0
C263 C 0.70605 0.34091 0.51219 0.0
C264 C 0.72071 0.35861 0.52691 0.0
C265 C 0.73892 0.35522 0.53718 0.0
C266 C 0.69485 0.30088 0.49234 0.0
C267 C 0.71703 0.38104 0.53189 0.0
C268 C 0.67866 0.36702 0.47491 0.0
C269 C 0.6529 0.3555 0.48065 0.0
C270 C 0.69593 0.36155 0.48454 0.0
C271 C 0.68739 0.34492 0.50075 0.0
C272 C 0.66131 0.33312 0.50653 0.0
C273 C 0.64425 0.33822 0.49617 0.0
C274 C 0.72337 0.37383 0.47754 0.0
C275 C 0.65165 0.31592 0.52408 0.0
H276 H 0.72979 0.29992 0.51653 0.0
H277 H 0.75033 0.36887 0.54833 0.0
H278 H 0.67388 0.29152 0.49505 0.0
H279 H 0.69869 0.31127 0.47839 0.0
H280 H 0.70016 0.2857 0.49092 0.0
H281 H 0.72892 0.39219 0.54443 0.0
H282 H 0.7222 0.39416 0.51932 0.0
H283 H 0.69652 0.37406 0.53528 0.0
H284 H 0.68529 0.38022 0.46279 0.0
H285 H 0.62434 0.32947 0.5007 0.0
H286 H 0.72896 0.35896 0.47546 0.0
H287 H 0.73648 0.38753 0.48855 0.0
H288 H 0.72631 0.38437 0.46373 0.0
H289 H 0.65548 0.29976 0.52258 0.0
H290 H 0.63072 0.30789 0.52645 0.0
H291 H 0.66212 0.32696 0.53711 0.0
C292 C 0.27853 0.61927 0.82228 0.0
C293 C 0.28488 0.60857 0.8067 0.0
C294 C 0.29772 0.63816 0.83405 0.0
C295 C 0.32389 0.64678 0.82999 0.0
C296 C 0.33043 0.63619 0.8142 0.0
C297 C 0.31084 0.6171 0.80282 0.0
C298 C 0.28999 0.6488 0.8509 0.0
C299 C 0.35813 0.64508 0.80929 0.0
C300 C 0.37431 0.71185 0.84958 0.0
C301 C 0.38385 0.70478 0.86551 0.0
C302 C 0.35485 0.69318 0.83786 0.0
C303 C 0.34447 0.66681 0.84232 0.0
C304 C 0.35386 0.65956 0.85847 0.0
C305 C 0.37355 0.67862 0.8698 0.0
C306 C 0.34552 0.70165 0.82063 0.0
C307 C 0.34307 0.63165 0.86381 0.0
H308 H 0.25851 0.61271 0.82542 0.0
H309 H 0.31591 0.60901 0.79075 0.0
H310 H 0.2976 0.64548 0.86455 0.0
H311 H 0.29848 0.66988 0.84927 0.0
H312 H 0.2688 0.6399 0.85221 0.0
H313 H 0.36 0.63521 0.79635 0.0
H314 H 0.36866 0.66611 0.80659 0.0
H315 H 0.36764 0.64148 0.82166 0.0
H316 H 0.38224 0.73203 0.84614 0.0
H317 H 0.38073 0.67301 0.88214 0.0
H318 H 0.32462 0.69448 0.82198 0.0
H319 H 0.34838 0.69326 0.80722 0.0
H320 H 0.35569 0.72289 0.81907 0.0
H321 H 0.32204 0.62242 0.86625 0.0
H322 H 0.35214 0.62923 0.87704 0.0
H323 H 0.34603 0.62124 0.85176 0.0
C324 C 0.44918 0.93338 0.09321 0.0
C325 C 0.44792 0.91422 0.08091 0.0
C326 C 0.4693 0.95889 0.09175 0.0
C327 C 0.48865 0.96546 0.07763 0.0
C328 C 0.48758 0.94623 0.06521 0.0
C329 C 0.46724 0.92082 0.06701 0.0
C330 C 0.46982 0.97885 0.10531 0.0
C331 C 0.50786 0.95253 0.04996 0.0
C332 C 0.52675 0.0359 0.06335 0.0
C333 C 0.54903 0.04467 0.0746 0.0
C334 C 0.50719 0.01002 0.06386 0.0
C335 C 0.50995 0.99252 0.07592 0.0
C336 C 0.53262 0.00112 0.08698 0.0
C337 C 0.55189 0.02708 0.08617 0.0
C338 C 0.48332 0.00153 0.0518 0.0
C339 C 0.53627 0.98302 0.1 0.0
H340 H 0.43437 0.92848 0.10401 0.0
H341 H 0.46641 0.90615 0.05743 0.0
H342 H 0.48797 0.98794 0.11372 0.0
H343 H 0.46927 0.99429 0.0969 0.0
H344 H 0.4534 0.97057 0.11557 0.0
H345 H 0.50432 0.93535 0.0415 0.0
H346 H 0.50843 0.96716 0.03986 0.0
H347 H 0.52709 0.96094 0.05681 0.0
H348 H 0.52441 0.04932 0.05431 0.0
H349 H 0.56905 0.03365 0.09488 0.0
H350 H 0.46634 0.9948 0.06139 0.0
H351 H 0.4799 0.98511 0.04247 0.0
H352 H 0.48466 0.01723 0.04251 0.0
H353 H 0.52134 0.97557 0.11145 0.0
H354 H 0.55548 0.99248 0.107 0.0
H355 H 0.53391 0.96623 0.09163 0.0
C356 C 0.49835 0.45485 0.41174 0.0
C357 C 0.5238 0.46289 0.40641 0.0
C358 C 0.4888 0.47192 0.41124 0.0
C359 C 0.50508 0.49764 0.40524 0.0
C360 C 0.53053 0.50565 0.39926 0.0
C361 C 0.53959 0.48819 0.39993 0.0
C362 C 0.46154 0.46265 0.4177 0.0
C363 C 0.54844 0.5329 0.39271 0.0
C364 C 0.47551 0.53858 0.3916 0.0
C365 C 0.47921 0.55278 0.40859 0.0
C366 C 0.48377 0.5205 0.39028 0.0
C367 C 0.49601 0.51655 0.40632 0.0
C368 C 0.49974 0.53077 0.42351 0.0
C369 C 0.4913 0.54869 0.42443 0.0
C370 C 0.47946 0.50566 0.37172 0.0
C371 C 0.51271 0.5271 0.44093 0.0
H372 H 0.48597 0.43532 0.4167 0.0
H373 H 0.55924 0.49455 0.39569 0.0
H374 H 0.46167 0.47311 0.43095 0.0
H375 H 0.45098 0.4668 0.40643 0.0
H376 H 0.45088 0.4417 0.42082 0.0
H377 H 0.56711 0.53566 0.38741 0.0
H378 H 0.53938 0.53821 0.38098 0.0
H379 H 0.55223 0.54635 0.40488 0.0
H380 H 0.46618 0.54161 0.3793 0.0
H381 H 0.49424 0.55954 0.43762 0.0
H382 H 0.46774 0.48473 0.37459 0.0
H383 H 0.49814 0.50931 0.36579 0.0
H384 H 0.46956 0.51092 0.3606 0.0
H385 H 0.50192 0.50678 0.44577 0.0
H386 H 0.51407 0.53961 0.45322 0.0
H387 H 0.5324 0.53141 0.43706 0.0
C388 C 0.93755 0.45099 0.737 0.0
C389 C 0.92513 0.4579 0.72307 0.0
C390 C 0.96389 0.45941 0.73559 0.0
C391 C 0.97823 0.47523 0.7199 0.0
C392 C 0.96576 0.48194 0.70561 0.0
C393 C 0.93932 0.47308 0.70731 0.0
C394 C 0.97649 0.4518 0.7511 0.0
C395 C 0.98037 0.49873 0.68865 0.0
C396 C 0.04998 0.51746 0.72833 0.0
C397 C 0.05978 0.50321 0.71938 0.0
C398 C 0.02354 0.50886 0.7282 0.0
C399 C 0.00645 0.48542 0.7189 0.0
C400 C 0.01625 0.47127 0.70941 0.0
C401 C 0.04281 0.48033 0.70976 0.0
C402 C 0.01383 0.52461 0.73834 0.0
C403 C -0.00137 0.44624 0.69929 0.0
H404 H 0.92674 0.43919 0.74919 0.0
H405 H 0.92988 0.47844 0.69644 0.0
H406 H 0.98631 0.44218 0.74452 0.0
H407 H 0.99136 0.46922 0.75865 0.0
H408 H 0.96247 0.43865 0.76198 0.0
H409 H 0.9683 0.50395 0.67972 0.0
H410 H 0.99744 0.51667 0.69373 0.0
H411 H 0.98744 0.48852 0.67937 0.0
H412 H 0.06293 0.53522 0.73572 0.0
H413 H 0.0502 0.46923 0.70275 0.0
H414 H 0.00103 0.51337 0.75046 0.0
H415 H 0.00229 0.52911 0.72823 0.0
H416 H 0.02971 0.54293 0.74418 0.0
H417 H 0.98528 0.43197 0.70992 0.0
H418 H 0.00937 0.43809 0.69191 0.0
H419 H 0.98672 0.44914 0.68844 0.0
C420 C 0.06697 0.54696 0.60219 0.0
C421 C 0.07358 0.57284 0.60059 0.0
C422 C 0.04122 0.52719 0.60122 0.0
C423 C 0.02162 0.53344 0.59855 0.0
C424 C 0.0281 0.55952 0.59735 0.0
C425 C 0.05401 0.57891 0.5984 0.0
C426 C 0.03503 0.49959 0.60264 0.0
C427 C 0.00771 0.56692 0.59455 0.0
C428 C 0.95935 0.48276 0.57552 0.0
C429 C 0.94319 0.47241 0.59162 0.0
C430 C 0.98484 0.50276 0.57758 0.0
C431 C 0.99444 0.51265 0.59621 0.0
C432 C 0.97818 0.50247 0.61251 0.0
C433 C 0.95274 0.48248 0.61003 0.0
C434 C 0.00156 0.51317 0.55983 0.0
C435 C 0.98775 0.51246 0.63261 0.0
H436 H 0.08194 0.54208 0.60397 0.0
H437 H 0.05892 0.59885 0.5972 0.0
H438 H 0.02089 0.48958 0.61436 0.0
H439 H 0.02611 0.48937 0.58897 0.0
H440 H 0.05238 0.498 0.6055 0.0
H441 H 0.01582 0.58809 0.59469 0.0
H442 H 0.99776 0.55927 0.58057 0.0
H443 H 0.99299 0.55828 0.6061 0.0
H444 H 0.95214 0.47514 0.56125 0.0
H445 H 0.94041 0.47456 0.62256 0.0
H446 H 0.01843 0.51041 0.56115 0.0
H447 H 0.009 0.53414 0.55855 0.0
H448 H 0.99105 0.50366 0.54636 0.0
H449 H 0.0033 0.50846 0.6366 0.0
H450 H 0.97224 0.5035 0.64358 0.0
H451 H 0.99603 0.5336 0.6331 0.0
C452 C 0.50079 0.947 0.91079 0.0
C453 C 0.47792 0.92871 0.91974 0.0
C454 C 0.50835 0.97321 0.91093 0.0
C455 C 0.4927 0.98135 0.92029 0.0
C456 C 0.4697 0.96304 0.92948 0.0
C457 C 0.46255 0.93693 0.92908 0.0
C458 C 0.53299 0.99215 0.90092 0.0
C459 C 0.45257 0.97103 0.93966 0.0
C460 C 0.52354 0.05183 0.93429 0.0
C461 C 0.51554 0.06177 0.91918 0.0
C462 C 0.51605 0.02564 0.93495 0.0
C463 C 0.50023 0.00901 0.92012 0.0
C464 C 0.49195 0.01889 0.90491 0.0
C465 C 0.49968 0.04513 0.90463 0.0
C466 C 0.52523 0.01579 0.95142 0.0
C467 C 0.47509 0.00176 0.88882 0.0
H468 H 0.5128 0.94086 0.90355 0.0
H469 H 0.44489 0.92295 0.93608 0.0
H470 H 0.52879 0.00219 0.88925 0.0
H471 H 0.54608 0.00702 0.91131 0.0
H472 H 0.54316 0.98275 0.89452 0.0
H473 H 0.43557 0.95449 0.94642 0.0
H474 H 0.46358 0.98538 0.95104 0.0
H475 H 0.44575 0.98036 0.92924 0.0
H476 H 0.53576 0.06453 0.94561 0.0
H477 H 0.49339 0.05261 0.89289 0.0
H478 H 0.53691 0.00765 0.94572 0.0
H479 H 0.50853 6e-05 0.95907 0.0
H480 H 0.537 0.0311 0.96203 0.0
H481 H 0.48509 0.9931 0.88108 0.0
H482 H 0.46999 0.01236 0.8782 0.0
H483 H 0.4571 0.98573 0.89489 0.0
C484 C 0.45719 0.52416 0.27176 0.0
C485 C 0.43368 0.50849 0.2624 0.0
C486 C 0.47626 0.51717 0.27255 0.0
C487 C 0.47173 0.49401 0.26373 0.0
C488 C 0.44787 0.47789 0.2546 0.0
C489 C 0.42913 0.4853 0.25407 0.0
C490 C 0.50144 0.53481 0.28249 0.0
C491 C 0.44232 0.45304 0.24502 0.0
C492 C 0.5284 0.48764 0.2469 0.0
C493 C 0.52981 0.47196 0.2613 0.0
C494 C 0.50985 0.49528 0.2477 0.0
C495 C 0.49228 0.48709 0.26331 0.0
C496 C 0.49388 0.47166 0.27809 0.0
C497 C 0.51261 0.46425 0.2769 0.0
C498 C 0.50875 0.51174 0.23164 0.0
C499 C 0.47555 0.46267 0.29501 0.0
H500 H 0.46084 0.54207 0.27831 0.0
H501 H 0.41102 0.47304 0.24684 0.0
H502 H 0.50548 0.52409 0.29369 0.0
H503 H 0.51736 0.54208 0.27184 0.0
H504 H 0.50149 0.55151 0.28941 0.0
H505 H 0.42246 0.44221 0.23916 0.0
H506 H 0.45607 0.45714 0.233 0.0
H507 H 0.445 0.4406 0.2555 0.0
H508 H 0.54162 0.49375 0.2348 0.0
H509 H 0.51361 0.4522 0.28813 0.0
H510 H 0.51038 0.52959 0.23769 0.0
H511 H 0.48995 0.50127 0.22414 0.0
H512 H 0.52428 0.5171 0.22082 0.0
H513 H 0.47629 0.47939 0.30244 0.0
H514 H 0.47996 0.4516 0.30567 0.0
H515 H 0.45557 0.45033 0.28978 0.0
C516 C 0.58188 0.21502 0.96987 0.0
C517 C 0.58161 0.2005 0.95393 0.0
C518 C 0.59058 0.21211 0.98798 0.0
C519 C 0.59947 0.19443 0.99017 0.0
C520 C 0.59949 0.17989 0.97407 0.0
C521 C 0.59064 0.18318 0.95611 0.0
C522 C 0.5902 0.22794 0.0048 0.0
C523 C 0.60905 0.16103 0.97581 0.0
C524 C 0.64299 0.2058 0.03329 0.0
C525 C 0.62572 0.18821 0.04676 0.0
C526 C 0.63489 0.20747 0.01459 0.0
C527 C 0.60883 0.19134 0.00932 0.0
C528 C 0.59141 0.17326 0.02277 0.0
C529 C 0.60004 0.17201 0.04137 0.0
C530 C 0.65407 0.22696 0.00065 0.0
C531 C 0.56342 0.15588 0.01776 0.0
H532 H 0.57499 0.2285 0.96821 0.0
H533 H 0.5914 0.17266 0.94367 0.0
H534 H 0.57818 0.21509 0.01664 0.0
H535 H 0.60992 0.23996 0.01061 0.0
H536 H 0.58255 0.24072 0.00071 0.0
H537 H 0.60737 0.15087 0.962 0.0
H538 H 0.62949 0.17123 0.98039 0.0
H539 H 0.59798 0.14652 0.98709 0.0
H540 H 0.66284 0.21845 0.03745 0.0
H541 H 0.58638 0.15912 0.05192 0.0
H542 H 0.64853 0.24158 0.9972 0.0
H543 H 0.65401 0.21747 0.98689 0.0
H544 H 0.67392 0.23694 0.00657 0.0
H545 H 0.55413 0.16761 0.0153 0.0
H546 H 0.55278 0.14169 0.02935 0.0
H547 H 0.56163 0.14533 0.00416 0.0
C548 C 0.3496 0.58273 0.30014 0.0
C549 C 0.36476 0.58172 0.28515 0.0
C550 C 0.36011 0.59217 0.31844 0.0
C551 C 0.38649 0.60103 0.32178 0.0
C552 C 0.40191 0.60009 0.3067 0.0
C553 C 0.39087 0.59055 0.28851 0.0
C554 C 0.34303 0.59287 0.33416 0.0
C555 C 0.43016 0.60956 0.30967 0.0
C556 C 0.41802 0.6486 0.36283 0.0
C557 C 0.41839 0.6328 0.37757 0.0
C558 C 0.40809 0.63858 0.3445 0.0
C559 C 0.39806 0.61205 0.3409 0.0
C560 C 0.39839 0.59599 0.35575 0.0
C561 C 0.40845 0.60655 0.37395 0.0
C562 C 0.40811 0.65634 0.32905 0.0
C563 C 0.38767 0.56758 0.3525 0.0
H564 H 0.32941 0.57599 0.29756 0.0
H565 H 0.40289 0.59076 0.27678 0.0
H566 H 0.34348 0.582 0.34697 0.0
H567 H 0.35027 0.613 0.33884 0.0
H568 H 0.32277 0.58461 0.32936 0.0
H569 H 0.43922 0.60648 0.29672 0.0
H570 H 0.44038 0.6304 0.31309 0.0
H571 H 0.43288 0.59956 0.32214 0.0
H572 H 0.42563 0.6689 0.36561 0.0
H573 H 0.4078 0.59409 0.3855 0.0
H574 H 0.38808 0.65005 0.32457 0.0
H575 H 0.41848 0.65549 0.31607 0.0
H576 H 0.41727 0.67662 0.33402 0.0
H577 H 0.36683 0.55822 0.34923 0.0
H578 H 0.39036 0.55795 0.36526 0.0
H579 H 0.39712 0.56446 0.33984 0.0
C580 C 0.79437 0.42337 0.69888 0.0
C581 C 0.79851 0.41473 0.71656 0.0
C582 C 0.79791 0.41379 0.68137 0.0
C583 C 0.80491 0.3945 0.68163 0.0
C584 C 0.80893 0.3856 0.69951 0.0
C585 C 0.80597 0.39607 0.71679 0.0
C586 C 0.79411 0.42426 0.66259 0.0
C587 C 0.81565 0.36453 0.70041 0.0
C588 C 0.78733 0.35359 0.63631 0.0
C589 C 0.811 0.36431 0.62664 0.0
C590 C 0.78526 0.36262 0.65454 0.0
C591 C 0.80731 0.38324 0.66316 0.0
C592 C 0.83141 0.39362 0.65379 0.0
C593 C 0.83303 0.3836 0.63586 0.0
C594 C 0.75936 0.35046 0.66437 0.0
C595 C 0.85535 0.41576 0.66244 0.0
H596 H 0.78866 0.43787 0.69876 0.0
H597 H 0.80871 0.3891 0.73053 0.0
H598 H 0.81152 0.43133 0.65342 0.0
H599 H 0.77783 0.40875 0.65446 0.0
H600 H 0.79012 0.44024 0.66489 0.0
H601 H 0.81846 0.36002 0.71547 0.0
H602 H 0.80007 0.3468 0.69365 0.0
H603 H 0.83346 0.37013 0.6921 0.0
H604 H 0.77021 0.33841 0.62947 0.0
H605 H 0.85162 0.39085 0.6292 0.0
H606 H 0.75263 0.36458 0.6653 0.0
H607 H 0.76091 0.34482 0.67936 0.0
H608 H 0.74462 0.3332 0.65654 0.0
H609 H 0.8525 0.43249 0.66448 0.0
H610 H 0.87257 0.42178 0.65322 0.0
H611 H 0.85914 0.41041 0.6769 0.0
C612 C 0.38072 0.79166 0.04393 0.0
C613 C 0.35551 0.78722 0.04398 0.0
C614 C 0.39335 0.79319 0.02649 0.0
C615 C 0.38059 0.79078 0.00874 0.0
C616 C 0.35543 0.78721 0.00876 0.0
C617 C 0.34302 0.78504 0.02642 0.0
C618 C 0.41987 0.79626 0.02711 0.0
C619 C 0.34146 0.78522 0.99014 0.0
C620 C 0.42084 0.8125 0.96287 0.0
C621 C 0.41538 0.78896 0.95465 0.0
C622 C 0.40936 0.81344 0.98031 0.0
C623 C 0.39286 0.79031 0.9902 0.0
C624 C 0.38798 0.76654 0.98236 0.0
C625 C 0.39906 0.76614 0.96463 0.0
C626 C 0.41482 0.83916 0.98813 0.0
C627 C 0.37102 0.74147 0.99269 0.0
H628 H 0.39017 0.79287 0.05755 0.0
H629 H 0.32352 0.78166 0.02651 0.0
H630 H 0.41921 0.77891 0.0209 0.0
H631 H 0.43341 0.8129 0.01818 0.0
H632 H 0.42758 0.79906 0.04205 0.0
H633 H 0.32294 0.78469 0.99264 0.0
H634 H 0.35367 0.80178 0.98062 0.0
H635 H 0.33749 0.76751 0.98229 0.0
H636 H 0.43442 0.83028 0.956 0.0
H637 H 0.39486 0.74781 0.95856 0.0
H638 H 0.42465 0.84282 0.0023 0.0
H639 H 0.39651 0.83906 0.99053 0.0
H640 H 0.42706 0.85525 0.97821 0.0
H641 H 0.37828 0.74225 0.00757 0.0
H642 H 0.37009 0.72475 0.98508 0.0
H643 H 0.35123 0.73827 0.99398 0.0
C644 C 0.6052 0.4193 0.38126 0.0
C645 C 0.59905 0.39554 0.38939 0.0
C646 C 0.60807 0.42322 0.36122 0.0
C647 C 0.60494 0.40293 0.34904 0.0
C648 C 0.59884 0.3789 0.35718 0.0
C649 C 0.5961 0.37554 0.37729 0.0
C650 C 0.61482 0.44919 0.35311 0.0
C651 C 0.5953 0.35678 0.34465 0.0
C652 C 0.59065 0.40559 0.29591 0.0
C653 C 0.61488 0.41452 0.2875 0.0
C654 C 0.58715 0.40184 0.31593 0.0
C655 C 0.60838 0.40696 0.32781 0.0
C656 C 0.63288 0.41583 0.31938 0.0
C657 C 0.6358 0.41937 0.29929 0.0
C658 C 0.56069 0.39212 0.32436 0.0
C659 C 0.656 0.42157 0.33157 0.0
H660 H 0.60859 0.43515 0.3906 0.0
H661 H 0.59152 0.35719 0.38356 0.0
H662 H 0.63362 0.45776 0.34558 0.0
H663 H 0.60027 0.44705 0.34228 0.0
H664 H 0.61593 0.46274 0.3645 0.0
H665 H 0.59014 0.3392 0.35321 0.0
H666 H 0.57997 0.35216 0.33383 0.0
H667 H 0.61327 0.36228 0.33657 0.0
H668 H 0.57422 0.40081 0.28678 0.0
H669 H 0.65453 0.42611 0.2928 0.0
H670 H 0.56129 0.4058 0.3354 0.0
H671 H 0.55417 0.37346 0.33173 0.0
H672 H 0.5463 0.38949 0.31319 0.0
H673 H 0.65926 0.43632 0.34258 0.0
H674 H 0.67375 0.4286 0.3228 0.0
H675 H 0.65247 0.40401 0.33943 0.0
C676 C 0.18501 0.58568 0.71089 0.0
C677 C 0.2019 0.57644 0.71451 0.0
C678 C 0.18567 0.59752 0.69322 0.0
C679 C 0.20383 0.60038 0.67897 0.0
C680 C 0.22072 0.59081 0.68249 0.0
C681 C 0.21962 0.57906 0.70025 0.0
C682 C 0.16745 0.60761 0.69003 0.0
C683 C 0.24034 0.59345 0.66766 0.0
C684 C 0.19547 0.61457 0.62679 0.0
C685 C 0.21256 0.64111 0.62572 0.0
C686 C 0.19196 0.6011 0.64416 0.0
C687 C 0.20611 0.61449 0.66075 0.0
C688 C 0.22335 0.64132 0.65974 0.0
C689 C 0.22644 0.65427 0.64221 0.0
C690 C 0.17355 0.57247 0.64463 0.0
C691 C 0.23881 0.65629 0.67711 0.0
H692 H 0.17194 0.58458 0.7221 0.0
H693 H 0.23275 0.57198 0.70303 0.0
H694 H 0.17853 0.62887 0.68876 0.0
H695 H 0.15676 0.6 0.6763 0.0
H696 H 0.15337 0.60236 0.70201 0.0
H697 H 0.25125 0.58394 0.6723 0.0
H698 H 0.23073 0.58496 0.65371 0.0
H699 H 0.25417 0.6141 0.66502 0.0
H700 H 0.18547 0.60413 0.61391 0.0
H701 H 0.23973 0.67479 0.64141 0.0
H702 H 0.15946 0.56758 0.65652 0.0
H703 H 0.1843 0.56226 0.64756 0.0
H704 H 0.1629 0.56519 0.63083 0.0
H705 H 0.2258 0.6535 0.68939 0.0
H706 H 0.25068 0.67721 0.6741 0.0
H707 H 0.25172 0.64905 0.68175 0.0
loop_
_geom_bond_atom_site_label_1
_geom_bond_atom_site_label_2
_geom_bond_distance
_geom_bond_site_symmetry_2
_ccdc_geom_bond_type
O0 Cd1 2.300 . S
O0 C7 1.275 . S
Cd1 O0 2.300 . S
Cd1 O9 2.381 . S
Cd1 O10 2.378 . S
O2 Cd3 2.385 . S
O2 C7 1.255 . S
Cd3 O2 2.385 . S
Cd3 O4 2.317 . S
O4 Cd3 2.317 . S
O4 C5 1.232 . S
C5 O4 1.232 . S
C5 O6 1.218 . S
O6 C5 1.218 . S
C7 O0 1.275 . S
C7 O2 1.255 . S
C8 O9 1.258 . S
C8 O10 1.256 . S
O9 Cd1 2.381 . S
O9 C8 1.258 . S
O10 Cd1 2.378 . S
O10 C8 1.256 . S
O11 Cd12 2.300 . S
O11 C18 1.275 . S
Cd12 O11 2.300 . S
Cd12 O20 2.381 . S
Cd12 O21 2.378 . S
O13 Cd14 2.385 . S
O13 C18 1.255 . S
Cd14 O13 2.385 . S
Cd14 O15 2.317 . S
O15 Cd14 2.317 . S
O15 C16 1.232 . S
C16 O15 1.232 . S
C16 O17 1.218 . S
O17 C16 1.218 . S
C18 O11 1.275 . S
C18 O13 1.255 . S
C19 O20 1.258 . S
C19 O21 1.256 . S
O20 Cd12 2.381 . S
O20 C19 1.258 . S
O21 Cd12 2.378 . S
O21 C19 1.256 . S
O22 Cd23 2.300 . S
O22 C29 1.275 . S
Cd23 O22 2.300 . S
Cd23 O31 2.381 . S
Cd23 O32 2.378 . S
O24 Cd25 2.385 . S
O24 C29 1.255 . S
Cd25 O24 2.385 . S
Cd25 O26 2.317 . S
O26 Cd25 2.317 . S
O26 C27 1.232 . S
C27 O26 1.232 . S
C27 O28 1.218 . S
O28 C27 1.218 . S
C29 O22 1.275 . S
C29 O24 1.255 . S
C30 O31 1.258 . S
C30 O32 1.256 . S
O31 Cd23 2.381 . S
O31 C30 1.258 . S
O32 Cd23 2.378 . S
O32 C30 1.256 . S
O33 Cd34 2.300 . S
O33 C40 1.275 . S
Cd34 O33 2.300 . S
Cd34 O42 2.381 . S
Cd34 O43 2.378 . S
O35 Cd36 2.385 . S
O35 C40 1.255 . S
Cd36 O35 2.385 . S
Cd36 O37 2.317 . S
O37 Cd36 2.317 . S
O37 C38 1.232 . S
C38 O37 1.232 . S
C38 O39 1.218 . S
O39 C38 1.218 . S
C40 O33 1.275 . S
C40 O35 1.255 . S
C41 O42 1.258 . S
C41 O43 1.256 . S
O42 Cd34 2.381 . S
O42 C41 1.258 . S
O43 Cd34 2.378 . S
O43 C41 1.256 . S
O44 Cd45 2.300 . S
O44 C51 1.275 . S
Cd45 O44 2.300 . S
Cd45 O53 2.381 . S
Cd45 O54 2.378 . S
O46 Cd47 2.385 . S
O46 C51 1.255 . S
Cd47 O46 2.385 . S
Cd47 O48 2.317 . S
O48 Cd47 2.317 . S
O48 C49 1.232 . S
C49 O48 1.232 . S
C49 O50 1.218 . S
O50 C49 1.218 . S
C51 O44 1.275 . S
C51 O46 1.255 . S
C52 O53 1.258 . S
C52 O54 1.256 . S
O53 Cd45 2.381 . S
O53 C52 1.258 . S
O54 Cd45 2.378 . S
O54 C52 1.256 . S
O55 Cd56 2.300 . S
O55 C62 1.275 . S
Cd56 O55 2.300 . S
Cd56 O64 2.381 . S
Cd56 O65 2.378 . S
O57 Cd58 2.385 . S
O57 C62 1.255 . S
Cd58 O57 2.385 . S
Cd58 O59 2.317 . S
O59 Cd58 2.317 . S
O59 C60 1.232 . S
C60 O59 1.232 . S
C60 O61 1.218 . S
O61 C60 1.218 . S
C62 O55 1.275 . S
C62 O57 1.255 . S
C63 O64 1.258 . S
C63 O65 1.256 . S
O64 Cd56 2.381 . S
O64 C63 1.258 . S
O65 Cd56 2.378 . S
O65 C63 1.256 . S
O66 Cd67 2.300 . S
O66 C73 1.275 . S
Cd67 O66 2.300 . S
Cd67 O75 2.381 . S
Cd67 O76 2.378 . S
O68 Cd69 2.385 . S
O68 C73 1.255 . S
Cd69 O68 2.385 . S
Cd69 O70 2.317 . S
O70 Cd69 2.317 . S
O70 C71 1.232 . S
C71 O70 1.232 . S
C71 O72 1.218 . S
O72 C71 1.218 . S
C73 O66 1.275 . S
C73 O68 1.255 . S
C74 O75 1.258 . S
C74 O76 1.256 . S
O75 Cd67 2.381 . S
O75 C74 1.258 . S
O76 Cd67 2.378 . S
O76 C74 1.256 . S
O77 Cd78 2.300 . S
O77 C84 1.275 . S
Cd78 O77 2.300 . S
Cd78 O86 2.381 . S
Cd78 O87 2.378 . S
O79 Cd80 2.385 . S
O79 C84 1.255 . S
Cd80 O79 2.385 . S
Cd80 O81 2.317 . S
O81 Cd80 2.317 . S
O81 C82 1.232 . S
C82 O81 1.232 . S
C82 O83 1.218 . S
O83 C82 1.218 . S
C84 O77 1.275 . S
C84 O79 1.255 . S
C85 O86 1.258 . S
C85 O87 1.256 . S
O86 Cd78 2.381 . S
O86 C85 1.258 . S
O87 Cd78 2.378 . S
O87 C85 1.256 . S
O88 Cd89 2.300 . S
O88 C95 1.275 . S
Cd89 O88 2.300 . S
Cd89 O97 2.381 . S
Cd89 O98 2.378 . S
O90 Cd91 2.385 . S
O90 C95 1.255 . S
Cd91 O90 2.385 . S
Cd91 O92 2.317 . S
O92 Cd91 2.317 . S
O92 C93 1.232 . S
C93 O92 1.232 . S
C93 O94 1.218 . S
O94 C93 1.218 . S
C95 O88 1.275 . S
C95 O90 1.255 . S
C96 O97 1.258 . S
C96 O98 1.256 . S
O97 Cd89 2.381 . S
O97 C96 1.258 . S
O98 Cd89 2.378 . S
O98 C96 1.256 . S
O99 Cd100 2.300 . S
O99 C106 1.275 . S
Cd100 O99 2.300 . S
Cd100 O108 2.381 . S
Cd100 O109 2.378 . S
O101 Cd102 2.385 . S
O101 C106 1.255 . S
Cd102 O101 2.385 . S
Cd102 O103 2.317 . S
O103 Cd102 2.317 . S
O103 C104 1.232 . S
C104 O103 1.232 . S
C104 O105 1.218 . S
O105 C104 1.218 . S
C106 O99 1.275 . S
C106 O101 1.255 . S
C107 O108 1.258 . S
C107 O109 1.256 . S
O108 Cd100 2.381 . S
O108 C107 1.258 . S
O109 Cd100 2.378 . S
O109 C107 1.256 . S
O110 Cd111 2.300 . S
O110 C117 1.275 . S
Cd111 O110 2.300 . S
Cd111 O119 2.381 . S
Cd111 O120 2.378 . S
O112 Cd113 2.385 . S
O112 C117 1.255 . S
Cd113 O112 2.385 . S
Cd113 O114 2.317 . S
O114 Cd113 2.317 . S
O114 C115 1.232 . S
C115 O114 1.232 . S
C115 O116 1.218 . S
O116 C115 1.218 . S
C117 O110 1.275 . S
C117 O112 1.255 . S
C118 O119 1.258 . S
C118 O120 1.256 . S
O119 Cd111 2.381 . S
O119 C118 1.258 . S
O120 Cd111 2.378 . S
O120 C118 1.256 . S
O121 Cd122 2.300 . S
O121 C128 1.275 . S
Cd122 O121 2.300 . S
Cd122 O130 2.381 . S
Cd122 O131 2.378 . S
O123 Cd124 2.385 . S
O123 C128 1.255 . S
Cd124 O123 2.385 . S
Cd124 O125 2.317 . S
O125 Cd124 2.317 . S
O125 C126 1.232 . S
C126 O125 1.232 . S
C126 O127 1.218 . S
O127 C126 1.218 . S
C128 O121 1.275 . S
C128 O123 1.255 . S
C129 O130 1.258 . S
C129 O131 1.256 . S
O130 Cd122 2.381 . S
O130 C129 1.258 . S
O131 Cd122 2.378 . S
O131 C129 1.256 . S
C132 C133 1.391 . S
C132 C134 1.394 . S
C132 H148 0.931 . S
C133 C132 1.391 . S
C133 C137 1.376 . S
C134 C132 1.394 . S
C134 C135 1.369 . S
C134 C138 1.531 . S
C135 C134 1.369 . S
C135 C136 1.410 . S
C135 C143 1.503 . S
C136 C135 1.410 . S
C136 C137 1.392 . S
C136 C139 1.511 . S
C137 C133 1.376 . S
C137 C136 1.392 . S
C137 H149 0.929 . S
C138 C134 1.531 . S
C138 H150 0.960 . S
C138 H151 0.962 . S
C138 H152 0.960 . S
C139 C136 1.511 . S
C139 H153 0.961 . S
C139 H154 0.961 . S
C139 H155 0.961 . S
C140 C141 1.370 . S
C140 C142 1.363 . S
C140 H156 0.931 . S
C141 C140 1.370 . S
C141 C145 1.408 . S
C142 C140 1.363 . S
C142 C143 1.370 . S
C142 C146 1.524 . S
C143 C135 1.503 . S
C143 C142 1.370 . S
C143 C144 1.403 . S
C144 C143 1.403 . S
C144 C145 1.404 . S
C144 C147 1.539 . S
C145 C141 1.408 . S
C145 C144 1.404 . S
C145 H157 0.930 . S
C146 C142 1.524 . S
C146 H158 0.956 . S
C146 H159 0.961 . S
C146 H160 0.961 . S
C147 C144 1.539 . S
C147 H161 0.958 . S
C147 H162 0.961 . S
C147 H163 0.960 . S
H148 C132 0.931 . S
H149 C137 0.929 . S
H150 C138 0.960 . S
H151 C138 0.962 . S
H152 C138 0.960 . S
H153 C139 0.961 . S
H154 C139 0.961 . S
H155 C139 0.961 . S
H156 C140 0.931 . S
H157 C145 0.930 . S
H158 C146 0.956 . S
H159 C146 0.961 . S
H160 C146 0.961 . S
H161 C147 0.958 . S
H162 C147 0.961 . S
H163 C147 0.960 . S
C164 C165 1.391 . S
C164 C166 1.394 . S
C164 H180 0.931 . S
C165 C164 1.391 . S
C165 C169 1.376 . S
C166 C164 1.394 . S
C166 C167 1.369 . S
C166 C170 1.531 . S
C167 C166 1.369 . S
C167 C168 1.410 . S
C167 C175 1.503 . S
C168 C167 1.410 . S
C168 C169 1.392 . S
C168 C171 1.511 . S
C169 C165 1.376 . S
C169 C168 1.392 . S
C169 H181 0.929 . S
C170 C166 1.531 . S
C170 H182 0.960 . S
C170 H183 0.962 . S
C170 H184 0.960 . S
C171 C168 1.511 . S
C171 H185 0.961 . S
C171 H186 0.961 . S
C171 H187 0.961 . S
C172 C173 1.370 . S
C172 C174 1.363 . S
C172 H188 0.931 . S
C173 C172 1.370 . S
C173 C177 1.408 . S
C174 C172 1.363 . S
C174 C175 1.370 . S
C174 C178 1.524 . S
C175 C167 1.503 . S
C175 C174 1.370 . S
C175 C176 1.403 . S
C176 C175 1.403 . S
C176 C177 1.404 . S
C176 C179 1.539 . S
C177 C173 1.408 . S
C177 C176 1.404 . S
C177 H189 0.930 . S
C178 C174 1.524 . S
C178 H190 0.956 . S
C178 H191 0.961 . S
C178 H192 0.961 . S
C179 C176 1.539 . S
C179 H193 0.958 . S
C179 H194 0.961 . S
C179 H195 0.960 . S
H180 C164 0.931 . S
H181 C169 0.929 . S
H182 C170 0.960 . S
H183 C170 0.962 . S
H184 C170 0.960 . S
H185 C171 0.961 . S
H186 C171 0.961 . S
H187 C171 0.961 . S
H188 C172 0.931 . S
H189 C177 0.930 . S
H190 C178 0.956 . S
H191 C178 0.961 . S
H192 C178 0.961 . S
H193 C179 0.958 . S
H194 C179 0.961 . S
H195 C179 0.960 . S
C196 C197 1.391 . S
C196 C198 1.394 . S
C196 H212 0.931 . S
C197 C196 1.391 . S
C197 C201 1.376 . S
C198 C196 1.394 . S
C198 C199 1.369 . S
C198 C202 1.531 . S
C199 C198 1.369 . S
C199 C200 1.410 . S
C199 C207 1.503 . S
C200 C199 1.410 . S
C200 C201 1.392 . S
C200 C203 1.511 . S
C201 C197 1.376 . S
C201 C200 1.392 . S
C201 H213 0.929 . S
C202 C198 1.531 . S
C202 H214 0.960 . S
C202 H215 0.962 . S
C202 H216 0.960 . S
C203 C200 1.511 . S
C203 H217 0.961 . S
C203 H218 0.961 . S
C203 H219 0.961 . S
C204 C205 1.370 . S
C204 C206 1.363 . S
C204 H220 0.931 . S
C205 C204 1.370 . S
C205 C209 1.408 . S
C206 C204 1.363 . S
C206 C207 1.370 . S
C206 C210 1.524 . S
C207 C199 1.503 . S
C207 C206 1.370 . S
C207 C208 1.403 . S
C208 C207 1.403 . S
C208 C209 1.404 . S
C208 C211 1.539 . S
C209 C205 1.408 . S
C209 C208 1.404 . S
C209 H221 0.930 . S
C210 C206 1.524 . S
C210 H222 0.956 . S
C210 H223 0.961 . S
C210 H224 0.961 . S
C211 C208 1.539 . S
C211 H225 0.958 . S
C211 H226 0.961 . S
C211 H227 0.960 . S
H212 C196 0.931 . S
H213 C201 0.929 . S
H214 C202 0.960 . S
H215 C202 0.962 . S
H216 C202 0.960 . S
H217 C203 0.961 . S
H218 C203 0.961 . S
H219 C203 0.961 . S
H220 C204 0.931 . S
H221 C209 0.930 . S
H222 C210 0.956 . S
H223 C210 0.961 . S
H224 C210 0.961 . S
H225 C211 0.958 . S
H226 C211 0.961 . S
H227 C211 0.960 . S
C228 C229 1.391 . S
C228 C230 1.394 . S
C228 H244 0.931 . S
C229 C228 1.391 . S
C229 C233 1.376 . S
C230 C228 1.394 . S
C230 C231 1.369 . S
C230 C234 1.531 . S
C231 C230 1.369 . S
C231 C232 1.410 . S
C231 C239 1.503 . S
C232 C231 1.410 . S
C232 C233 1.392 . S
C232 C235 1.511 . S
C233 C229 1.376 . S
C233 C232 1.392 . S
C233 H245 0.929 . S
C234 C230 1.531 . S
C234 H246 0.960 . S
C234 H247 0.962 . S
C234 H248 0.960 . S
C235 C232 1.511 . S
C235 H249 0.961 . S
C235 H250 0.961 . S
C235 H251 0.961 . S
C236 C237 1.370 . S
C236 C238 1.363 . S
C236 H252 0.931 . S
C237 C236 1.370 . S
C237 C241 1.408 . S
C238 C236 1.363 . S
C238 C239 1.370 . S
C238 C242 1.524 . S
C239 C231 1.503 . S
C239 C238 1.370 . S
C239 C240 1.403 . S
C240 C239 1.403 . S
C240 C241 1.404 . S
C240 C243 1.539 . S
C241 C237 1.408 . S
C241 C240 1.404 . S
C241 H253 0.930 . S
C242 C238 1.524 . S
C242 H254 0.956 . S
C242 H255 0.961 . S
C242 H256 0.961 . S
C243 C240 1.539 . S
C243 H257 0.958 . S
C243 H258 0.961 . S
C243 H259 0.960 . S
H244 C228 0.931 . S
H245 C233 0.929 . S
H246 C234 0.960 . S
H247 C234 0.962 . S
H248 C234 0.960 . S
H249 C235 0.961 . S
H250 C235 0.961 . S
H251 C235 0.961 . S
H252 C236 0.931 . S
H253 C241 0.930 . S
H254 C242 0.956 . S
H255 C242 0.961 . S
H256 C242 0.961 . S
H257 C243 0.958 . S
H258 C243 0.961 . S
H259 C243 0.960 . S
C260 C261 1.391 . S
C260 C262 1.394 . S
C260 H276 0.931 . S
C261 C260 1.391 . S
C261 C265 1.376 . S
C262 C260 1.394 . S
C262 C263 1.369 . S
C262 C266 1.531 . S
C263 C262 1.369 . S
C263 C264 1.410 . S
C263 C271 1.503 . S
C264 C263 1.410 . S
C264 C265 1.392 . S
C264 C267 1.511 . S
C265 C261 1.376 . S
C265 C264 1.392 . S
C265 H277 0.929 . S
C266 C262 1.531 . S
C266 H278 0.960 . S
C266 H279 0.962 . S
C266 H280 0.960 . S
C267 C264 1.511 . S
C267 H281 0.961 . S
C267 H282 0.961 . S
C267 H283 0.961 . S
C268 C269 1.370 . S
C268 C270 1.363 . S
C268 H284 0.931 . S
C269 C268 1.370 . S
C269 C273 1.408 . S
C270 C268 1.363 . S
C270 C271 1.370 . S
C270 C274 1.524 . S
C271 C263 1.503 . S
C271 C270 1.370 . S
C271 C272 1.403 . S
C272 C271 1.403 . S
C272 C273 1.404 . S
C272 C275 1.539 . S
C273 C269 1.408 . S
C273 C272 1.404 . S
C273 H285 0.930 . S
C274 C270 1.524 . S
C274 H286 0.956 . S
C274 H287 0.961 . S
C274 H288 0.961 . S
C275 C272 1.539 . S
C275 H289 0.958 . S
C275 H290 0.961 . S
C275 H291 0.960 . S
H276 C260 0.931 . S
H277 C265 0.929 . S
H278 C266 0.960 . S
H279 C266 0.962 . S
H280 C266 0.960 . S
H281 C267 0.961 . S
H282 C267 0.961 . S
H283 C267 0.961 . S
H284 C268 0.931 . S
H285 C273 0.930 . S
H286 C274 0.956 . S
H287 C274 0.961 . S
H288 C274 0.961 . S
H289 C275 0.958 . S
H290 C275 0.961 . S
H291 C275 0.960 . S
C292 C293 1.391 . S
C292 C294 1.394 . S
C292 H308 0.931 . S
C293 C292 1.391 . S
C293 C297 1.376 . S
C294 C292 1.394 . S
C294 C295 1.369 . S
C294 C298 1.531 . S
C295 C294 1.369 . S
C295 C296 1.410 . S
C295 C303 1.503 . S
C296 C295 1.410 . S
C296 C297 1.392 . S
C296 C299 1.511 . S
C297 C293 1.376 . S
C297 C296 1.392 . S
C297 H309 0.929 . S
C298 C294 1.531 . S
C298 H310 0.960 . S
C298 H311 0.962 . S
C298 H312 0.960 . S
C299 C296 1.511 . S
C299 H313 0.961 . S
C299 H314 0.961 . S
C299 H315 0.961 . S
C300 C301 1.370 . S
C300 C302 1.363 . S
C300 H316 0.931 . S
C301 C300 1.370 . S
C301 C305 1.408 . S
C302 C300 1.363 . S
C302 C303 1.370 . S
C302 C306 1.524 . S
C303 C295 1.503 . S
C303 C302 1.370 . S
C303 C304 1.403 . S
C304 C303 1.403 . S
C304 C305 1.404 . S
C304 C307 1.539 . S
C305 C301 1.408 . S
C305 C304 1.404 . S
C305 H317 0.930 . S
C306 C302 1.524 . S
C306 H318 0.956 . S
C306 H319 0.961 . S
C306 H320 0.961 . S
C307 C304 1.539 . S
C307 H321 0.958 . S
C307 H322 0.961 . S
C307 H323 0.960 . S
H308 C292 0.931 . S
H309 C297 0.929 . S
H310 C298 0.960 . S
H311 C298 0.962 . S
H312 C298 0.960 . S
H313 C299 0.961 . S
H314 C299 0.961 . S
H315 C299 0.961 . S
H316 C300 0.931 . S
H317 C305 0.930 . S
H318 C306 0.956 . S
H319 C306 0.961 . S
H320 C306 0.961 . S
H321 C307 0.958 . S
H322 C307 0.961 . S
H323 C307 0.960 . S
C324 C325 1.391 . S
C324 C326 1.394 . S
C324 H340 0.931 . S
C325 C324 1.391 . S
C325 C329 1.376 . S
C326 C324 1.394 . S
C326 C327 1.369 . S
C326 C330 1.531 . S
C327 C326 1.369 . S
C327 C328 1.410 . S
C327 C335 1.503 1_565 S
C328 C327 1.410 . S
C328 C329 1.392 . S
C328 C331 1.511 . S
C329 C325 1.376 . S
C329 C328 1.392 . S
C329 H341 0.929 . S
C330 C326 1.531 . S
C330 H342 0.960 1_565 S
C330 H343 0.962 . S
C330 H344 0.960 . S
C331 C328 1.511 . S
C331 H345 0.961 . S
C331 H346 0.944 1_565 S
C331 H347 0.961 . S
C332 C333 1.370 . S
C332 C334 1.363 . S
C332 H348 0.931 . S
C333 C332 1.370 . S
C333 C337 1.408 . S
C334 C332 1.363 . S
C334 C335 1.370 . S
C334 C338 1.524 . S
C335 C327 1.503 1_545 S
C335 C334 1.370 . S
C335 C336 1.403 . S
C336 C335 1.403 . S
C336 C337 1.404 . S
C336 C339 1.539 . S
C337 C333 1.408 . S
C337 C336 1.404 . S
C337 H349 0.930 . S
C338 C334 1.524 . S
C338 H350 0.956 . S
C338 H351 0.961 . S
C338 H352 0.961 . S
C339 C336 1.539 . S
C339 H353 0.958 . S
C339 H354 0.961 . S
C339 H355 0.960 1_545 S
H340 C324 0.931 . S
H341 C329 0.929 . S
H342 C330 0.960 1_545 S
H343 C330 0.962 . S
H344 C330 0.960 . S
H345 C331 0.961 . S
H346 C331 0.944 1_545 S
H347 C331 0.961 . S
H348 C332 0.931 . S
H349 C337 0.930 . S
H350 C338 0.956 . S
H351 C338 0.961 . S
H352 C338 0.961 . S
H353 C339 0.958 . S
H354 C339 0.961 . S
H355 C339 0.960 1_565 S
C356 C357 1.391 . S
C356 C358 1.394 . S
C356 H372 0.931 . S
C357 C356 1.391 . S
C357 C361 1.376 . S
C358 C356 1.394 . S
C358 C359 1.369 . S
C358 C362 1.531 . S
C359 C358 1.369 . S
C359 C360 1.410 . S
C359 C367 1.503 . S
C360 C359 1.410 . S
C360 C361 1.392 . S
C360 C363 1.511 . S
C361 C357 1.376 . S
C361 C360 1.392 . S
C361 H373 0.929 . S
C362 C358 1.531 . S
C362 H374 0.960 . S
C362 H375 0.962 . S
C362 H376 0.960 . S
C363 C360 1.511 . S
C363 H377 0.961 . S
C363 H378 0.961 . S
C363 H379 0.961 . S
C364 C365 1.370 . S
C364 C366 1.363 . S
C364 H380 0.931 . S
C365 C364 1.370 . S
C365 C369 1.408 . S
C366 C364 1.363 . S
C366 C367 1.370 . S
C366 C370 1.524 . S
C367 C359 1.503 . S
C367 C366 1.370 . S
C367 C368 1.403 . S
C368 C367 1.403 . S
C368 C369 1.404 . S
C368 C371 1.539 . S
C369 C365 1.408 . S
C369 C368 1.404 . S
C369 H381 0.930 . S
C370 C366 1.524 . S
C370 H382 0.956 . S
C370 H383 0.961 . S
C370 H384 0.961 . S
C371 C368 1.539 . S
C371 H385 0.958 . S
C371 H386 0.961 . S
C371 H387 0.960 . S
H372 C356 0.931 . S
H373 C361 0.929 . S
H374 C362 0.960 . S
H375 C362 0.962 . S
H376 C362 0.960 . S
H377 C363 0.961 . S
H378 C363 0.961 . S
H379 C363 0.961 . S
H380 C364 0.931 . S
H381 C369 0.930 . S
H382 C370 0.956 . S
H383 C370 0.961 . S
H384 C370 0.961 . S
H385 C371 0.958 . S
H386 C371 0.961 . S
H387 C371 0.960 . S
C388 C389 1.391 . S
C388 C390 1.394 . S
C388 H404 0.931 . S
C389 C388 1.391 . S
C389 C393 1.376 . S
C390 C388 1.394 . S
C390 C391 1.369 . S
C390 C394 1.531 . S
C391 C390 1.369 . S
C391 C392 1.410 . S
C391 C399 1.503 1_655 S
C392 C391 1.410 . S
C392 C393 1.392 . S
C392 C395 1.511 . S
C393 C389 1.376 . S
C393 C392 1.392 . S
C393 H405 0.929 . S
C394 C390 1.531 . S
C394 H406 0.998 . S
C394 H407 0.962 . S
C394 H408 0.960 . S
C395 C392 1.511 . S
C395 H409 0.961 . S
C395 H410 0.961 1_655 S
C395 H411 0.961 . S
C396 C397 1.370 . S
C396 C398 1.363 . S
C396 H412 0.931 . S
C397 C396 1.370 . S
C397 C401 1.408 . S
C398 C396 1.363 . S
C398 C399 1.370 . S
C398 C402 1.524 . S
C399 C391 1.503 1_455 S
C399 C398 1.370 . S
C399 C400 1.403 . S
C400 C399 1.403 . S
C400 C401 1.404 . S
C400 C403 1.539 . S
C401 C397 1.408 . S
C401 C400 1.404 . S
C401 H413 0.930 . S
C402 C398 1.524 . S
C402 H414 0.956 . S
C402 H415 0.961 . S
C402 H416 0.961 . S
C403 C400 1.539 . S
C403 H417 0.958 . S
C403 H418 0.961 . S
C403 H419 0.960 1_455 S
H404 C388 0.931 . S
H405 C393 0.929 . S
H406 C394 0.998 . S
H407 C394 0.962 . S
H408 C394 0.960 . S
H409 C395 0.961 . S
H410 C395 0.961 1_455 S
H411 C395 0.961 . S
H412 C396 0.931 . S
H413 C401 0.930 . S
H414 C402 0.956 . S
H415 C402 0.961 . S
H416 C402 0.961 . S
H417 C403 0.958 . S
H418 C403 0.961 . S
H419 C403 0.960 1_655 S
C420 C421 1.391 . S
C420 C422 1.394 . S
C420 H436 0.931 . S
C421 C420 1.391 . S
C421 C425 1.376 . S
C422 C420 1.394 . S
C422 C423 1.369 . S
C422 C426 1.531 . S
C423 C422 1.369 . S
C423 C424 1.410 . S
C423 C431 1.503 1_455 S
C424 C423 1.410 . S
C424 C425 1.392 . S
C424 C427 1.511 . S
C425 C421 1.376 . S
C425 C424 1.392 . S
C425 H437 0.929 . S
C426 C422 1.531 . S
C426 H438 0.960 . S
C426 H439 0.962 . S
C426 H440 0.960 . S
C427 C424 1.511 . S
C427 H441 0.961 . S
C427 H442 0.961 1_455 S
C427 H443 0.961 . S
C428 C429 1.370 . S
C428 C430 1.363 . S
C428 H444 0.931 . S
C429 C428 1.370 . S
C429 C433 1.408 . S
C430 C428 1.363 . S
C430 C431 1.370 . S
C430 C434 1.524 . S
C431 C423 1.503 1_655 S
C431 C430 1.370 . S
C431 C432 1.403 . S
C432 C431 1.403 . S
C432 C433 1.404 . S
C432 C435 1.539 . S
C433 C429 1.408 . S
C433 C432 1.404 . S
C433 H445 0.930 . S
C434 C430 1.524 . S
C434 H446 0.963 . S
C434 H447 0.963 . S
C434 H448 0.961 . S
C435 C432 1.539 . S
C435 H449 0.958 . S
C435 H450 0.961 . S
C435 H451 0.972 . S
H436 C420 0.931 . S
H437 C425 0.929 . S
H438 C426 0.960 . S
H439 C426 0.962 . S
H440 C426 0.960 . S
H441 C427 0.961 . S
H442 C427 0.961 1_655 S
H443 C427 0.961 . S
H444 C428 0.931 . S
H445 C433 0.930 . S
H446 C434 0.963 . S
H447 C434 0.963 . S
H448 C434 0.961 . S
H449 C435 0.958 . S
H450 C435 0.961 . S
H451 C435 0.972 . S
C452 C453 1.391 . S
C452 C454 1.394 . S
C452 H468 0.931 . S
C453 C452 1.391 . S
C453 C457 1.376 . S
C454 C452 1.394 . S
C454 C455 1.369 . S
C454 C458 1.531 . S
C455 C454 1.369 . S
C455 C456 1.410 . S
C455 C463 1.503 1_565 S
C456 C455 1.410 . S
C456 C457 1.392 . S
C456 C459 1.511 . S
C457 C453 1.376 . S
C457 C456 1.392 . S
C457 H469 0.929 . S
C458 C454 1.531 . S
C458 H470 0.960 1_565 S
C458 H471 0.962 . S
C458 H472 0.960 . S
C459 C456 1.511 . S
C459 H473 0.961 . S
C459 H474 0.961 . S
C459 H475 0.961 . S
C460 C461 1.370 . S
C460 C462 1.363 . S
C460 H476 0.931 . S
C461 C460 1.370 . S
C461 C465 1.408 . S
C462 C460 1.363 . S
C462 C463 1.370 . S
C462 C466 1.524 . S
C463 C455 1.503 1_545 S
C463 C462 1.370 . S
C463 C464 1.403 . S
C464 C463 1.403 . S
C464 C465 1.404 . S
C464 C467 1.539 . S
C465 C461 1.408 . S
C465 C464 1.404 . S
C465 H477 0.930 . S
C466 C462 1.524 . S
C466 H478 0.956 . S
C466 H479 0.959 . S
C466 H480 0.961 . S
C467 C464 1.539 . S
C467 H481 0.958 . S
C467 H482 0.961 . S
C467 H483 0.960 1_545 S
H468 C452 0.931 . S
H469 C457 0.929 . S
H470 C458 0.960 1_545 S
H471 C458 0.962 . S
H472 C458 0.960 . S
H473 C459 0.961 . S
H474 C459 0.961 . S
H475 C459 0.961 . S
H476 C460 0.931 . S
H477 C465 0.930 . S
H478 C466 0.956 . S
H479 C466 0.959 . S
H480 C466 0.961 . S
H481 C467 0.958 . S
H482 C467 0.961 . S
H483 C467 0.960 1_565 S
C484 C485 1.391 . S
C484 C486 1.394 . S
C484 H500 0.931 . S
C485 C484 1.391 . S
C485 C489 1.376 . S
C486 C484 1.394 . S
C486 C487 1.369 . S
C486 C490 1.531 . S
C487 C486 1.369 . S
C487 C488 1.410 . S
C487 C495 1.503 . S
C488 C487 1.410 . S
C488 C489 1.392 . S
C488 C491 1.511 . S
C489 C485 1.376 . S
C489 C488 1.392 . S
C489 H501 0.929 . S
C490 C486 1.531 . S
C490 H502 0.960 . S
C490 H503 0.962 . S
C490 H504 0.960 . S
C491 C488 1.511 . S
C491 H505 0.961 . S
C491 H506 0.961 . S
C491 H507 0.961 . S
C492 C493 1.370 . S
C492 C494 1.363 . S
C492 H508 0.931 . S
C493 C492 1.370 . S
C493 C497 1.408 . S
C494 C492 1.363 . S
C494 C495 1.370 . S
C494 C498 1.524 . S
C495 C487 1.503 . S
C495 C494 1.370 . S
C495 C496 1.403 . S
C496 C495 1.403 . S
C496 C497 1.404 . S
C496 C499 1.539 . S
C497 C493 1.408 . S
C497 C496 1.404 . S
C497 H509 0.930 . S
C498 C494 1.524 . S
C498 H510 0.956 . S
C498 H511 0.961 . S
C498 H512 0.961 . S
C499 C496 1.539 . S
C499 H513 0.958 . S
C499 H514 0.961 . S
C499 H515 0.960 . S
H500 C484 0.931 . S
H501 C489 0.929 . S
H502 C490 0.960 . S
H503 C490 0.962 . S
H504 C490 0.960 . S
H505 C491 0.961 . S
H506 C491 0.961 . S
H507 C491 0.961 . S
H508 C492 0.931 . S
H509 C497 0.930 . S
H510 C498 0.956 . S
H511 C498 0.961 . S
H512 C498 0.961 . S
H513 C499 0.958 . S
H514 C499 0.961 . S
H515 C499 0.960 . S
C516 C517 1.391 . S
C516 C518 1.394 . S
C516 H532 0.931 . S
C517 C516 1.391 . S
C517 C521 1.376 . S
C518 C516 1.394 . S
C518 C519 1.369 . S
C518 C522 1.531 . S
C519 C518 1.369 . S
C519 C520 1.410 . S
C519 C527 1.503 1_556 S
C520 C519 1.410 . S
C520 C521 1.392 . S
C520 C523 1.511 . S
C521 C517 1.376 . S
C521 C520 1.392 . S
C521 H533 0.929 . S
C522 C518 1.531 . S
C522 H534 0.960 1_556 S
C522 H535 0.962 . S
C522 H536 0.960 . S
C523 C520 1.511 . S
C523 H537 0.961 . S
C523 H538 0.957 1_556 S
C523 H539 0.961 . S
C524 C525 1.370 . S
C524 C526 1.363 . S
C524 H540 0.931 . S
C525 C524 1.370 . S
C525 C529 1.408 . S
C526 C524 1.363 . S
C526 C527 1.370 . S
C526 C530 1.524 . S
C527 C519 1.503 1_554 S
C527 C526 1.370 . S
C527 C528 1.403 . S
C528 C527 1.403 . S
C528 C529 1.404 . S
C528 C531 1.539 . S
C529 C525 1.408 . S
C529 C528 1.404 . S
C529 H541 0.930 . S
C530 C526 1.524 . S
C530 H542 0.956 . S
C530 H543 0.963 . S
C530 H544 0.961 . S
C531 C528 1.539 . S
C531 H545 0.958 . S
C531 H546 0.961 . S
C531 H547 0.960 1_554 S
H532 C516 0.931 . S
H533 C521 0.929 . S
H534 C522 0.960 1_554 S
H535 C522 0.962 . S
H536 C522 0.960 . S
H537 C523 0.961 . S
H538 C523 0.957 1_554 S
H539 C523 0.961 . S
H540 C524 0.931 . S
H541 C529 0.930 . S
H542 C530 0.956 . S
H543 C530 0.963 . S
H544 C530 0.961 . S
H545 C531 0.958 . S
H546 C531 0.961 . S
H547 C531 0.960 1_556 S
C548 C549 1.391 . S
C548 C550 1.394 . S
C548 H564 0.931 . S
C549 C548 1.391 . S
C549 C553 1.376 . S
C550 C548 1.394 . S
C550 C551 1.369 . S
C550 C554 1.531 . S
C551 C550 1.369 . S
C551 C552 1.410 . S
C551 C559 1.503 . S
C552 C551 1.410 . S
C552 C553 1.392 . S
C552 C555 1.511 . S
C553 C549 1.376 . S
C553 C552 1.392 . S
C553 H565 0.929 . S
C554 C550 1.531 . S
C554 H566 0.960 . S
C554 H567 0.962 . S
C554 H568 0.960 . S
C555 C552 1.511 . S
C555 H569 0.961 . S
C555 H570 0.961 . S
C555 H571 0.961 . S
C556 C557 1.370 . S
C556 C558 1.363 . S
C556 H572 0.931 . S
C557 C556 1.370 . S
C557 C561 1.408 . S
C558 C556 1.363 . S
C558 C559 1.370 . S
C558 C562 1.524 . S
C559 C551 1.503 . S
C559 C558 1.370 . S
C559 C560 1.403 . S
C560 C559 1.403 . S
C560 C561 1.404 . S
C560 C563 1.539 . S
C561 C557 1.408 . S
C561 C560 1.404 . S
C561 H573 0.930 . S
C562 C558 1.524 . S
C562 H574 0.956 . S
C562 H575 0.961 . S
C562 H576 0.961 . S
C563 C560 1.539 . S
C563 H577 0.958 . S
C563 H578 0.961 . S
C563 H579 0.960 . S
H564 C548 0.931 . S
H565 C553 0.929 . S
H566 C554 0.960 . S
H567 C554 0.962 . S
H568 C554 0.960 . S
H569 C555 0.961 . S
H570 C555 0.961 . S
H571 C555 0.961 . S
H572 C556 0.931 . S
H573 C561 0.930 . S
H574 C562 0.956 . S
H575 C562 0.961 . S
H576 C562 0.961 . S
H577 C563 0.958 . S
H578 C563 0.961 . S
H579 C563 0.960 . S
C580 C581 1.391 . S
C580 C582 1.394 . S
C580 H596 0.931 . S
C581 C580 1.391 . S
C581 C585 1.376 . S
C582 C580 1.394 . S
C582 C583 1.369 . S
C582 C586 1.531 . S
C583 C582 1.369 . S
C583 C584 1.410 . S
C583 C591 1.503 . S
C584 C583 1.410 . S
C584 C585 1.392 . S
C584 C587 1.511 . S
C585 C581 1.376 . S
C585 C584 1.392 . S
C585 H597 0.929 . S
C586 C582 1.531 . S
C586 H598 0.960 . S
C586 H599 0.962 . S
C586 H600 0.960 . S
C587 C584 1.511 . S
C587 H601 0.961 . S
C587 H602 0.961 . S
C587 H603 0.961 . S
C588 C589 1.370 . S
C588 C590 1.363 . S
C588 H604 0.931 . S
C589 C588 1.370 . S
C589 C593 1.408 . S
C590 C588 1.363 . S
C590 C591 1.370 . S
C590 C594 1.524 . S
C591 C583 1.503 . S
C591 C590 1.370 . S
C591 C592 1.403 . S
C592 C591 1.403 . S
C592 C593 1.404 . S
C592 C595 1.539 . S
C593 C589 1.408 . S
C593 C592 1.404 . S
C593 H605 0.930 . S
C594 C590 1.524 . S
C594 H606 0.956 . S
C594 H607 0.961 . S
C594 H608 0.961 . S
C595 C592 1.539 . S
C595 H609 0.958 . S
C595 H610 0.961 . S
C595 H611 0.960 . S
H596 C580 0.931 . S
H597 C585 0.929 . S
H598 C586 0.960 . S
H599 C586 0.962 . S
H600 C586 0.960 . S
H601 C587 0.961 . S
H602 C587 0.961 . S
H603 C587 0.961 . S
H604 C588 0.931 . S
H605 C593 0.930 . S
H606 C594 0.956 . S
H607 C594 0.961 . S
H608 C594 0.961 . S
H609 C595 0.958 . S
H610 C595 0.961 . S
H611 C595 0.960 . S
C612 C613 1.391 . S
C612 C614 1.394 . S
C612 H628 0.931 . S
C613 C612 1.391 . S
C613 C617 1.376 . S
C614 C612 1.394 . S
C614 C615 1.369 . S
C614 C618 1.531 . S
C615 C614 1.369 . S
C615 C616 1.410 . S
C615 C623 1.503 1_554 S
C616 C615 1.410 . S
C616 C617 1.392 . S
C616 C619 1.511 . S
C617 C613 1.376 . S
C617 C616 1.392 . S
C617 H629 0.929 . S
C618 C614 1.531 . S
C618 H630 0.963 1_554 S
C618 H631 0.962 . S
C618 H632 0.960 . S
C619 C616 1.511 . S
C619 H633 0.961 . S
C619 H634 0.961 1_554 S
C619 H635 0.961 . S
C620 C621 1.370 . S
C620 C622 1.363 . S
C620 H636 0.931 . S
C621 C620 1.370 . S
C621 C625 1.408 . S
C622 C620 1.363 . S
C622 C623 1.370 . S
C622 C626 1.524 . S
C623 C615 1.503 1_556 S
C623 C622 1.370 . S
C623 C624 1.403 . S
C624 C623 1.403 . S
C624 C625 1.404 . S
C624 C627 1.539 . S
C625 C621 1.408 . S
C625 C624 1.404 . S
C625 H637 0.930 . S
C626 C622 1.524 . S
C626 H638 0.956 1_556 S
C626 H639 0.961 1_556 S
C626 H640 0.961 . S
C627 C624 1.539 . S
C627 H641 0.958 . S
C627 H642 0.961 . S
C627 H643 0.960 . S
H628 C612 0.931 . S
H629 C617 0.929 . S
H630 C618 0.963 1_556 S
H631 C618 0.962 . S
H632 C618 0.960 . S
H633 C619 0.961 . S
H634 C619 0.961 1_556 S
H635 C619 0.961 . S
H636 C620 0.931 . S
H637 C625 0.930 . S
H638 C626 0.956 1_554 S
H639 C626 0.961 1_554 S
H640 C626 0.961 . S
H641 C627 0.958 . S
H642 C627 0.961 . S
H643 C627 0.960 . S
C644 C645 1.391 . S
C644 C646 1.394 . S
C644 H660 0.931 . S
C645 C644 1.391 . S
C645 C649 1.376 . S
C646 C644 1.394 . S
C646 C647 1.369 . S
C646 C650 1.531 . S
C647 C646 1.369 . S
C647 C648 1.410 . S
C647 C655 1.503 . S
C648 C647 1.410 . S
C648 C649 1.392 . S
C648 C651 1.511 . S
C649 C645 1.376 . S
C649 C648 1.392 . S
C649 H661 0.929 . S
C650 C646 1.531 . S
C650 H662 0.960 . S
C650 H663 0.962 . S
C650 H664 0.960 . S
C651 C648 1.511 . S
C651 H665 0.961 . S
C651 H666 0.961 . S
C651 H667 0.961 . S
C652 C653 1.370 . S
C652 C654 1.363 . S
C652 H668 0.931 . S
C653 C652 1.370 . S
C653 C657 1.408 . S
C654 C652 1.363 . S
C654 C655 1.370 . S
C654 C658 1.524 . S
C655 C647 1.503 . S
C655 C654 1.370 . S
C655 C656 1.403 . S
C656 C655 1.403 . S
C656 C657 1.404 . S
C656 C659 1.539 . S
C657 C653 1.408 . S
C657 C656 1.404 . S
C657 H669 0.930 . S
C658 C654 1.524 . S
C658 H670 0.956 . S
C658 H671 0.961 . S
C658 H672 0.961 . S
C659 C656 1.539 . S
C659 H673 0.958 . S
C659 H674 0.961 . S
C659 H675 0.960 . S
H660 C644 0.931 . S
H661 C649 0.929 . S
H662 C650 0.960 . S
H663 C650 0.962 . S
H664 C650 0.960 . S
H665 C651 0.961 . S
H666 C651 0.961 . S
H667 C651 0.961 . S
H668 C652 0.931 . S
H669 C657 0.930 . S
H670 C658 0.956 . S
H671 C658 0.961 . S
H672 C658 0.961 . S
H673 C659 0.958 . S
H674 C659 0.961 . S
H675 C659 0.960 . S
C676 C677 1.391 . S
C676 C678 1.394 . S
C676 H692 0.931 . S
C677 C676 1.391 . S
C677 C681 1.376 . S
C678 C676 1.394 . S
C678 C679 1.369 . S
C678 C682 1.531 . S
C679 C678 1.369 . S
C679 C680 1.410 . S
C679 C687 1.503 . S
C680 C679 1.410 . S
C680 C681 1.392 . S
C680 C683 1.511 . S
C681 C677 1.376 . S
C681 C680 1.392 . S
C681 H693 0.929 . S
C682 C678 1.531 . S
C682 H694 0.960 . S
C682 H695 0.962 . S
C682 H696 0.960 . S
C683 C680 1.511 . S
C683 H697 0.961 . S
C683 H698 0.961 . S
C683 H699 0.961 . S
C684 C685 1.370 . S
C684 C686 1.363 . S
C684 H700 0.931 . S
C685 C684 1.370 . S
C685 C689 1.408 . S
C686 C684 1.363 . S
C686 C687 1.370 . S
C686 C690 1.524 . S
C687 C679 1.503 . S
C687 C686 1.370 . S
C687 C688 1.403 . S
C688 C687 1.403 . S
C688 C689 1.404 . S
C688 C691 1.539 . S
C689 C685 1.408 . S
C689 C688 1.404 . S
C689 H701 0.930 . S
C690 C686 1.524 . S
C690 H702 0.956 . S
C690 H703 0.961 . S
C690 H704 0.961 . S
C691 C688 1.539 . S
C691 H705 0.958 . S
C691 H706 0.961 . S
C691 H707 0.960 . S
H692 C676 0.931 . S
H693 C681 0.929 . S
H694 C682 0.960 . S
H695 C682 0.962 . S
H696 C682 0.960 . S
H697 C683 0.961 . S
H698 C683 0.961 . S
H699 C683 0.961 . S
H700 C684 0.931 . S
H701 C689 0.930 . S
H702 C690 0.956 . S
H703 C690 0.961 . S
H704 C690 0.961 . S
H705 C691 0.958 . S
H706 C691 0.961 . S
H707 C691 0.960 . S
C133 C96 1.539 . S
C141 C8 1.538 . S
C165 C19 1.560 . S
C173 C107 1.543 . S
C197 C118 1.522 . S
C205 C30 1.541 . S
C229 C129 1.557 . S
C237 C41 1.542 . S
C261 C74 1.559 . S
C269 C52 1.556 . S
C293 C63 1.566 . S
C301 C85 1.548 . S
C325 C38 1.238 . S
C333 C5 1.299 . S
C357 C49 1.298 . S
C365 C16 1.293 . S
C389 C27 1.202 . S
C397 C60 1.285 . S
C421 C104 1.225 . S
C429 C71 1.255 . S
C453 C82 1.264 . S
C461 C115 1.299 . S
C485 C126 1.259 . S
C493 C93 1.245 . S
C517 C117 1.472 . S
C525 C7 1.511 . S
C549 C128 1.515 . S
C557 C18 1.496 . S
C581 C29 1.518 . S
C589 C73 1.495 . S
C613 C40 1.507 . S
C621 C84 1.481 . S
C645 C51 1.453 . S
C653 C95 1.510 . S
C677 C62 1.472 . S
C685 C106 1.493 . S
