# Generated by pormake.
# Topology vby, (6)-cn, num edge types: 1
# Building blocks:
#     Node 0, Type 0, BuildingBlock: FUNLAD_clean_sbu_0, # of connection points: 6
#     Node 1, Type 0, BuildingBlock: FUNLAD_clean_sbu_0, # of connection points: 6
#     Node 2, Type 0, BuildingBlock: FUNLAD_clean_sbu_0, # of connection points: 6
#     Node 3, Type 0, BuildingBlock: FUNLAD_clean_sbu_0, # of connection points: 6
#     Node 4, Type 0, BuildingBlock: FUNLAD_clean_sbu_0, # of connection points: 6
#     Node 5, Type 0, BuildingBlock: FUNLAD_clean_sbu_0, # of connection points: 6
#     Node 6, Type 0, BuildingBlock: FUNLAD_clean_sbu_0, # of connection points: 6
#     Node 7, Type 0, BuildingBlock: FUNLAD_clean_sbu_0, # of connection points: 6
#     Edge 8, Type (0, 0), BuildingBlock: ZUJKAS_clean_linker_0, # of connection points: 2
#     Edge 9, Type (0, 0), BuildingBlock: ZUJKAS_clean_linker_0, # of connection points: 2
#     Edge 10, Type (0, 0), BuildingBlock: ZUJKAS_clean_linker_0, # of connection points: 2
#     Edge 11, Type (0, 0), BuildingBlock: ZUJKAS_clean_linker_0, # of connection points: 2
#     Edge 12, Type (0, 0), BuildingBlock: ZUJKAS_clean_linker_0, # of connection points: 2
#     Edge 13, Type (0, 0), BuildingBlock: ZUJKAS_clean_linker_0, # of connection points: 2
#     Edge 14, Type (0, 0), BuildingBlock: ZUJKAS_clean_linker_0, # of connection points: 2
#     Edge 15, Type (0, 0), BuildingBlock: ZUJKAS_clean_linker_0, # of connection points: 2
#     Edge 16, Type (0, 0), BuildingBlock: ZUJKAS_clean_linker_0, # of connection points: 2
#     Edge 17, Type (0, 0), BuildingBlock: ZUJKAS_clean_linker_0, # of connection points: 2
#     Edge 18, Type (0, 0), BuildingBlock: ZUJKAS_clean_linker_0, # of connection points: 2
#     Edge 19, Type (0, 0), BuildingBlock: ZUJKAS_clean_linker_0, # of connection points: 2
#     Edge 20, Type (0, 0), BuildingBlock: ZUJKAS_clean_linker_0, # of connection points: 2
#     Edge 21, Type (0, 0), BuildingBlock: ZUJKAS_clean_linker_0, # of connection points: 2
#     Edge 22, Type (0, 0), BuildingBlock: ZUJKAS_clean_linker_0, # of connection points: 2
#     Edge 23, Type (0, 0), BuildingBlock: ZUJKAS_clean_linker_0, # of connection points: 2
#     Edge 24, Type (0, 0), BuildingBlock: ZUJKAS_clean_linker_0, # of connection points: 2
#     Edge 25, Type (0, 0), BuildingBlock: ZUJKAS_clean_linker_0, # of connection points: 2
#     Edge 26, Type (0, 0), BuildingBlock: ZUJKAS_clean_linker_0, # of connection points: 2
#     Edge 27, Type (0, 0), BuildingBlock: ZUJKAS_clean_linker_0, # of connection points: 2
#     Edge 28, Type (0, 0), BuildingBlock: ZUJKAS_clean_linker_0, # of connection points: 2
#     Edge 29, Type (0, 0), BuildingBlock: ZUJKAS_clean_linker_0, # of connection points: 2
#     Edge 30, Type (0, 0), BuildingBlock: ZUJKAS_clean_linker_0, # of connection points: 2
#     Edge 31, Type (0, 0), BuildingBlock: ZUJKAS_clean_linker_0, # of connection points: 2
# Relax obj value: 0.056
# Max RMSD: 0.113
# Mean RMSD: 0.108
data_MOF--net-vby--node1-FUNLAD_clean_sbu_0--edge1-ZUJKAS_clean_linker_0
_symmetry_space_group_name_H-M    P1
_symmetry_Int_Tables_number       1
_symmetry_cell_setting            triclinic
loop_
_symmetry_equiv_pos_as_xyz
'x, y, z'
_cell_length_a     19.410556
_cell_length_b     75.302385
_cell_length_c     52.434136
_cell_angle_alpha  88.189476
_cell_angle_beta   90.148188
_cell_angle_gamma 89.993461
loop_
_atom_site_label
_atom_site_type_symbol
_atom_site_fract_x
_atom_site_fract_y
_atom_site_fract_z
_atom_type_partial_charge
C0 C -0.01173 0.40583 0.0137 0.0
N1 N 0.01931 0.36953 0.07477 0.0
C2 C 0.04998 0.38308 0.08709 0.0
C3 C 0.04741 0.38368 0.11367 0.0
C4 C 0.01306 0.3702 0.12773 0.0
C5 C -0.01706 0.35622 0.11452 0.0
C6 C -0.01339 0.35616 0.08794 0.0
Zn7 Zn 0.01877 0.36975 0.03576 0.0
C8 C 0.88099 0.36228 0.01516 0.0
N9 N 0.01555 0.37061 0.95423 0.0
C10 C 0.04545 0.38419 0.94057 0.0
C11 C -0.0175 0.35721 0.94241 0.0
C12 C 0.97812 0.35719 0.91584 0.0
C13 C 0.0079 0.37112 0.90123 0.0
C14 C 0.04213 0.38472 0.91393 0.0
Zn15 Zn 0.01764 0.37037 0.99324 0.0
O16 O -0.005 0.39714 0.03472 0.0
C17 C 0.15527 0.37789 0.01383 0.0
O18 O -0.00583 0.3978 0.99286 0.0
H19 H 0.95877 0.34659 0.95362 0.0
H20 H 0.07585 0.39355 0.07627 0.0
H21 H 0.07161 0.39469 0.95034 0.0
O22 O 0.12374 0.37583 0.0349 0.0
O23 O 0.12269 0.37638 0.99298 0.0
H24 H 0.96229 0.34557 0.07777 0.0
O25 O 0.04269 0.34303 0.99428 0.0
O26 O 0.04406 0.34242 0.03615 0.0
O27 O 0.91254 0.36438 0.99412 0.0
O28 O 0.91365 0.36371 0.03598 0.0
C29 C 0.05208 0.3345 0.0153 0.0
H30 H 0.07211 0.39459 0.12309 0.0
H31 H 0.95527 0.34567 0.12457 0.0
H32 H 0.95046 0.34656 0.90688 0.0
H33 H 0.06647 0.3956 0.90339 0.0
C34 C 0.9687 0.59612 0.01498 0.0
N35 N 0.94119 0.6311 0.07471 0.0
C36 C 0.90904 0.61787 0.08836 0.0
C37 C 0.91185 0.61737 0.11501 0.0
C38 C 0.94827 0.6306 0.12774 0.0
C39 C -0.01933 0.64412 0.1131 0.0
C40 C 0.97632 0.64413 0.08655 0.0
Zn41 Zn 0.93916 0.63146 0.03571 0.0
C42 C 0.07583 0.6397 0.01385 0.0
N43 N 0.93776 0.63272 0.95419 0.0
C44 C 0.90914 0.619 0.94162 0.0
C45 C 0.96878 0.64646 0.94126 0.0
C46 C 0.97277 0.64664 0.91469 0.0
C47 C 0.94499 0.63247 0.90119 0.0
C48 C 0.91232 0.61859 0.91504 0.0
Zn49 Zn 0.93809 0.6323 0.9932 0.0
O50 O 0.96238 0.60405 0.03589 0.0
C51 C 0.80157 0.62403 0.01497 0.0
O52 O 0.96233 0.60491 0.99403 0.0
H53 H -0.00876 0.65724 0.95161 0.0
H54 H 0.88133 0.60764 0.07856 0.0
H55 H 0.88479 0.60819 0.95225 0.0
O56 O 0.83403 0.62552 0.03585 0.0
O57 O 0.83322 0.6261 0.99392 0.0
H58 H 0.00165 0.65451 0.07535 0.0
O59 O 0.91229 0.65961 0.99311 0.0
O60 O 0.91429 0.6588 0.03497 0.0
O61 O 0.04309 0.63845 0.99302 0.0
O62 O 0.04437 0.63739 0.03487 0.0
C63 C 0.90448 0.66742 0.01405 0.0
H64 H 0.88534 0.60682 0.12549 0.0
H65 H 0.0102 0.65443 0.12202 0.0
H66 H -0.00261 0.65777 0.90484 0.0
H67 H 0.89088 0.60728 0.90552 0.0
C68 C -0.01405 0.59657 0.51495 0.0
N69 N 0.01812 0.63303 0.45426 0.0
C70 C 0.05108 0.61989 0.4419 0.0
C71 C 0.04919 0.61944 0.4153 0.0
C72 C 0.01275 0.63259 0.40124 0.0
C73 C -0.02003 0.64612 0.41454 0.0
C74 C -0.01654 0.6461 0.44113 0.0
Zn75 Zn 0.01732 0.63269 0.49326 0.0
C76 C 0.87984 0.6403 0.5136 0.0
N77 N 0.01383 0.63157 0.57477 0.0
C78 C 0.04158 0.61769 0.58852 0.0
C79 C -0.01743 0.64525 0.5865 0.0
C80 C 0.9779 0.64529 0.61304 0.0
C81 C 0.00523 0.63104 0.62777 0.0
C82 C 0.03772 0.61714 0.61515 0.0
Zn83 Zn 0.01627 0.63189 0.53578 0.0
O84 O -0.00668 0.60532 0.49402 0.0
C85 C 0.15364 0.62433 0.51552 0.0
O86 O -0.00832 0.60452 0.53587 0.0
H87 H 0.9608 0.65616 0.57524 0.0
H88 H 0.07835 0.60962 0.45271 0.0
H89 H 0.06613 0.60693 0.57882 0.0
O90 O 0.12219 0.62658 0.4944 0.0
O91 O 0.121 0.62564 0.53633 0.0
H92 H 0.95749 0.65641 0.45133 0.0
O93 O 0.04258 0.65915 0.53494 0.0
O94 O 0.04289 0.65999 0.49308 0.0
O95 O 0.91144 0.63818 0.53468 0.0
O96 O 0.91233 0.63878 0.49283 0.0
C97 C 0.05182 0.66777 0.514 0.0
H98 H 0.07611 0.6089 0.40588 0.0
H99 H 0.95048 0.6564 0.40458 0.0
H100 H 0.95345 0.65644 0.62191 0.0
H101 H 0.05883 0.60579 0.62566 0.0
C102 C 0.90322 0.33518 0.51489 0.0
N103 N 0.93938 0.37147 0.45405 0.0
C104 C 0.97193 0.35805 0.44216 0.0
C105 C 0.97671 0.3582 0.41561 0.0
C106 C 0.94792 0.37234 0.40105 0.0
C107 C 0.91381 0.3859 0.41383 0.0
C108 C 0.91012 0.3852 0.44046 0.0
Zn109 Zn 0.93792 0.37108 0.49306 0.0
C110 C 0.80125 0.3787 0.51393 0.0
N111 N 0.93845 0.36991 0.57461 0.0
C112 C 0.97076 0.35639 0.58765 0.0
C113 C 0.90845 0.38347 0.58706 0.0
C114 C 0.91121 0.38392 0.61365 0.0
C115 C 0.94511 0.37027 0.62761 0.0
C116 C 0.97463 0.35629 0.61424 0.0
Zn117 Zn 0.93818 0.37028 0.53559 0.0
O118 O 0.9122 0.34377 0.49391 0.0
C119 C 0.07501 0.3627 0.51472 0.0
O120 O 0.91215 0.343 0.53578 0.0
H121 H 0.88316 0.39411 0.57633 0.0
H122 H -0.00518 0.34724 0.4533 0.0
H123 H -0.00579 0.34573 0.57739 0.0
O124 O 0.04282 0.36493 0.49378 0.0
O125 O 0.04307 0.36408 0.53565 0.0
H126 H 0.88462 0.39576 0.45029 0.0
O127 O 0.96269 0.39763 0.53475 0.0
O128 O 0.96208 0.39847 0.4929 0.0
O129 O 0.83345 0.37653 0.5349 0.0
O130 O 0.83308 0.37724 0.49297 0.0
C131 C 0.96895 0.4064 0.51379 0.0
H132 H 0.0025 0.34731 0.40659 0.0
H133 H 0.89148 0.39715 0.40341 0.0
H134 H 0.88843 0.39506 0.6231 0.0
H135 H 0.00037 0.34536 0.62422 0.0
C136 C 0.49004 0.90627 0.01363 0.0
N137 N 0.52186 0.86981 0.07443 0.0
C138 C 0.55426 0.88301 0.08691 0.0
C139 C 0.55184 0.88349 0.1135 0.0
C140 C 0.51548 0.87029 0.12743 0.0
C141 C 0.48337 0.85669 0.11401 0.0
C142 C 0.48733 0.85669 0.08744 0.0
Zn143 Zn 0.52145 0.87016 0.03541 0.0
C144 C 0.38383 0.86259 0.01474 0.0
N145 N 0.51819 0.8713 0.95388 0.0
C146 C 0.54783 0.88494 0.94027 0.0
C147 C 0.48586 0.85781 0.942 0.0
C148 C 0.4822 0.85773 0.91543 0.0
C149 C 0.51196 0.87168 0.90087 0.0
C150 C 0.54519 0.88542 0.91362 0.0
Zn151 Zn 0.52013 0.87096 0.99289 0.0
O152 O 0.49733 0.89753 0.03458 0.0
C153 C 0.65764 0.87849 0.01351 0.0
O154 O 0.49584 0.89833 0.99272 0.0
H155 H 0.46233 0.84714 0.95317 0.0
H156 H 0.58145 0.89332 0.07621 0.0
H157 H 0.57341 0.89551 0.9501 0.0
O158 O 0.62628 0.87629 0.03459 0.0
O159 O 0.62492 0.87714 0.99267 0.0
H160 H 0.46178 0.84634 0.07715 0.0
O161 O 0.54613 0.84369 0.99376 0.0
O162 O 0.54712 0.84286 0.03563 0.0
O163 O 0.41525 0.86476 0.9937 0.0
O164 O 0.41651 0.86405 0.03555 0.0
C165 C 0.55569 0.83508 0.01471 0.0
H166 H 0.57826 0.89408 0.12302 0.0
H167 H 0.45399 0.84637 0.12387 0.0
H168 H 0.45526 0.847 0.90641 0.0
H169 H 0.56945 0.89633 0.90312 0.0
C170 C 0.4714 0.09638 0.01457 0.0
N171 N 0.4433 0.1313 0.07437 0.0
C172 C 0.41584 0.1174 0.08808 0.0
C173 C 0.42037 0.11677 0.1147 0.0
C174 C 0.45326 0.13062 0.12737 0.0
C175 C 0.48013 0.14492 0.11268 0.0
C176 C 0.47479 0.14496 0.08614 0.0
Zn177 Zn 0.44053 0.13166 0.03536 0.0
C178 C 0.57667 0.14018 0.01327 0.0
N179 N 0.43817 0.13281 0.95381 0.0
C180 C 0.40857 0.11916 0.94139 0.0
C181 C 0.46987 0.14638 0.94074 0.0
C182 C 0.47369 0.14641 0.91416 0.0
C183 C 0.44482 0.13231 0.90083 0.0
C184 C 0.41135 0.11864 0.91481 0.0
Zn185 Zn 0.43904 0.13245 0.99283 0.0
O186 O 0.46529 0.10431 0.03547 0.0
C187 C 0.30305 0.1239 0.01493 0.0
O188 O 0.46401 0.10513 0.99362 0.0
H189 H 0.49304 0.15711 0.95098 0.0
H190 H 0.39111 0.10666 0.07835 0.0
H191 H 0.38377 0.10847 0.95215 0.0
O192 O 0.33578 0.12536 0.03577 0.0
O193 O 0.33434 0.1261 0.99383 0.0
H194 H 0.49633 0.15589 0.07491 0.0
O195 O 0.41256 0.1597 0.99269 0.0
O196 O 0.41416 0.15892 0.03455 0.0
O197 O 0.54388 0.13875 0.99248 0.0
O198 O 0.54536 0.13795 0.03434 0.0
C199 C 0.40421 0.1675 0.0136 0.0
H200 H 0.39957 0.10538 0.12519 0.0
H201 H 0.50484 0.15604 0.12157 0.0
H202 H 0.49904 0.15738 0.90417 0.0
H203 H 0.38905 0.1074 0.9054 0.0
C204 C 0.48942 0.09637 0.51485 0.0
N205 N 0.51942 0.13286 0.45394 0.0
C206 C 0.54803 0.11912 0.44146 0.0
C207 C 0.54523 0.11872 0.41487 0.0
C208 C 0.51297 0.13265 0.40091 0.0
C209 C 0.4849 0.1468 0.41432 0.0
C210 C 0.48852 0.1466 0.44092 0.0
Zn211 Zn 0.51984 0.1325 0.49296 0.0
C212 C 0.38306 0.14005 0.51387 0.0
N213 N 0.51901 0.13139 0.57451 0.0
C214 C 0.54916 0.11781 0.58816 0.0
C215 C 0.48602 0.14476 0.58635 0.0
C216 C 0.4819 0.14475 0.61291 0.0
C217 C 0.51194 0.13083 0.62751 0.0
C218 C 0.54615 0.11725 0.6148 0.0
Zn219 Zn 0.52022 0.13171 0.53549 0.0
O220 O 0.49524 0.10516 0.49388 0.0
C221 C 0.65684 0.12413 0.51455 0.0
O222 O 0.49653 0.10428 0.53574 0.0
H223 H 0.46208 0.15539 0.57516 0.0
H224 H 0.5723 0.1083 0.45217 0.0
H225 H 0.57523 0.10733 0.57836 0.0
O226 O 0.62454 0.12622 0.49358 0.0
O227 O 0.62511 0.12566 0.53552 0.0
H228 H 0.46607 0.15739 0.4512 0.0
O229 O 0.54553 0.15905 0.5346 0.0
O230 O 0.54598 0.15978 0.49274 0.0
O231 O 0.41523 0.13776 0.5348 0.0
O232 O 0.41501 0.13874 0.49294 0.0
C233 C 0.55465 0.16762 0.51362 0.0
H234 H 0.56682 0.10743 0.40542 0.0
H235 H 0.46054 0.15796 0.40439 0.0
H236 H 0.4542 0.15536 0.62187 0.0
H237 H 0.57068 0.10637 0.62532 0.0
C238 C 0.40514 0.83478 0.51446 0.0
N239 N 0.44184 0.87111 0.45385 0.0
C240 C 0.47695 0.85807 0.44207 0.0
C241 C 0.48112 0.85806 0.41552 0.0
C242 C 0.44853 0.87155 0.40081 0.0
C243 C 0.41213 0.88478 0.41348 0.0
C244 C 0.40953 0.88432 0.44014 0.0
Zn245 Zn 0.44 0.87074 0.49286 0.0
C246 C 0.30274 0.87814 0.51345 0.0
N247 N 0.43912 0.86939 0.57439 0.0
C248 C 0.47129 0.8558 0.58731 0.0
C249 C 0.4094 0.88293 0.58697 0.0
C250 C 0.41245 0.8833 0.61357 0.0
C251 C 0.44637 0.86958 0.62739 0.0
C252 C 0.47544 0.85561 0.6139 0.0
Zn253 Zn 0.43926 0.86985 0.53538 0.0
O254 O 0.4149 0.8434 0.49355 0.0
C255 C 0.57664 0.86238 0.51488 0.0
O256 O 0.4133 0.84257 0.53541 0.0
H257 H 0.38422 0.89364 0.57633 0.0
H258 H 0.50238 0.84771 0.45331 0.0
H259 H 0.49453 0.84515 0.57696 0.0
O260 O 0.54512 0.86476 0.49382 0.0
O261 O 0.54406 0.86364 0.53567 0.0
H262 H 0.38185 0.89455 0.44988 0.0
O263 O 0.46362 0.89721 0.53465 0.0
O264 O 0.46333 0.89817 0.49278 0.0
O265 O 0.33455 0.87606 0.53452 0.0
O266 O 0.33504 0.87669 0.49259 0.0
C267 C 0.46986 0.90604 0.51373 0.0
H268 H 0.51068 0.84774 0.40666 0.0
H269 H 0.38548 0.89531 0.40295 0.0
H270 H 0.38996 0.89443 0.62313 0.0
H271 H 0.50113 0.84463 0.62377 0.0
H272 H 0.24062 0.38022 0.05491 0.0
H273 H 0.3661 0.37862 0.05471 0.0
H274 H 0.36513 0.3789 0.97243 0.0
H275 H 0.23942 0.38032 0.97233 0.0
H276 H 0.43231 0.34944 0.99696 0.0
H277 H 0.52021 0.41395 0.03415 0.0
H278 H 0.45385 0.40304 0.05262 0.0
H279 H 0.4355 0.4109 0.02062 0.0
C280 C 0.26711 0.38033 0.03674 0.0
C281 C 0.23033 0.38018 0.01363 0.0
C282 C 0.33872 0.37951 0.03669 0.0
C283 C 0.37428 0.3787 0.01356 0.0
C284 C 0.33806 0.37955 0.99042 0.0
H285 H 0.7956 0.36004 0.97408 0.0
H286 H 0.67013 0.36178 0.97426 0.0
C287 C 0.26643 0.38037 0.99043 0.0
C288 C 0.44835 0.37491 0.01366 0.0
H289 H 0.6039 0.39102 0.032 0.0
C290 C 0.47008 0.35855 1.00444 0.0
C291 C 0.49669 0.38681 0.0237 0.0
C292 C 0.47566 0.40473 0.03316 0.0
C293 C 0.53951 0.35364 1.00526 0.0
C294 C 0.58786 0.36555 0.01529 0.0
C295 C 0.56613 0.38191 0.02452 0.0
C296 C 0.66193 0.36174 0.01541 0.0
C297 C 0.5605 0.33572 0.99582 0.0
C298 C 0.69813 0.36087 0.03855 0.0
C299 C 0.76975 0.35996 0.03855 0.0
C300 C 0.80587 0.36009 0.01536 0.0
C301 C 0.7691 0.35997 0.99224 0.0
C302 C 0.6975 0.36088 0.99229 0.0
H303 H 0.51594 0.3265 0.99485 0.0
H304 H 0.58224 0.3374 0.97634 0.0
H305 H 0.6007 0.32956 1.00834 0.0
H306 H 0.67106 0.36156 0.05654 0.0
H307 H 0.79676 0.36 0.05665 0.0
H308 H 0.16134 0.64168 0.05494 0.0
H309 H 0.28682 0.64001 0.05468 0.0
H310 H 0.28564 0.64083 0.97238 0.0
H311 H 0.15993 0.64233 0.97235 0.0
H312 H 0.3529 0.61121 0.99649 0.0
H313 H 0.44095 0.67545 0.03452 0.0
H314 H 0.37466 0.66443 0.0529 0.0
H315 H 0.35618 0.67249 0.02099 0.0
C316 C 0.18779 0.6419 0.03676 0.0
C317 C 0.15094 0.64193 0.01366 0.0
C318 C 0.25939 0.64104 0.03667 0.0
C319 C 0.2949 0.64036 0.01352 0.0
C320 C 0.25862 0.64138 0.9904 0.0
H321 H 0.71632 0.62194 0.97382 0.0
H322 H 0.59085 0.62363 0.97398 0.0
C323 C 0.18699 0.64225 0.99044 0.0
C324 C 0.36898 0.63656 0.01355 0.0
H325 H 0.52457 0.65253 0.03209 0.0
C326 C 0.39068 0.62026 1.00409 0.0
C327 C 0.41735 0.64839 0.02373 0.0
C328 C 0.39638 0.66625 0.03343 0.0
C329 C 0.46012 0.61535 1.00485 0.0
C330 C 0.50848 0.62718 0.01504 0.0
C331 C 0.48679 0.64348 0.02449 0.0
C332 C 0.58254 0.62336 0.01514 0.0
C333 C 0.48109 0.59749 0.99516 0.0
C334 C 0.61869 0.62238 0.03828 0.0
C335 C 0.69031 0.62151 0.0383 0.0
C336 C 0.72649 0.62178 0.01511 0.0
C337 C 0.68977 0.62176 0.99198 0.0
C338 C 0.61817 0.62263 0.99201 0.0
H339 H 0.43652 0.58829 0.99406 0.0
H340 H 0.50287 0.5993 0.9757 0.0
H341 H 0.52126 0.59124 1.00761 0.0
H342 H 0.59157 0.62296 0.05628 0.0
H343 H 0.71726 0.62145 0.05642 0.0
H344 H 0.79475 0.64289 0.55456 0.0
H345 H 0.66918 0.6409 0.55427 0.0
H346 H 0.66969 0.6406 0.47203 0.0
H347 H 0.79536 0.64248 0.472 0.0
H348 H 0.56168 0.662 0.52749 0.0
H349 H 0.58406 0.5919 0.49763 0.0
H350 H 0.65576 0.60398 0.51059 0.0
H351 H 0.62877 0.60826 0.4782 0.0
C352 C 0.76813 0.64272 0.53638 0.0
C353 C 0.80475 0.64251 0.51331 0.0
C354 C 0.69658 0.64161 0.53629 0.0
C355 C 0.66112 0.64026 0.51316 0.0
C356 C 0.69692 0.64136 0.49003 0.0
H357 H 0.23874 0.62172 0.47459 0.0
H358 H 0.36415 0.62419 0.47478 0.0
C359 C 0.76848 0.64249 0.49008 0.0
C360 C 0.58729 0.63629 0.5134 0.0
H361 H 0.47163 0.60352 0.50145 0.0
C362 C 0.54174 0.64924 0.52184 0.0
C363 C 0.56237 0.61956 0.50612 0.0
C364 C 0.61015 0.60503 0.49779 0.0
C365 C 0.47089 0.64597 0.52279 0.0
C366 C 0.44601 0.62922 0.51554 0.0
C367 C 0.49156 0.61628 0.50708 0.0
C368 C 0.37225 0.62519 0.51586 0.0
C369 C 0.42306 0.6605 0.53106 0.0
C370 C 0.33657 0.62411 0.53902 0.0
C371 C 0.2651 0.62269 0.53903 0.0
C372 C 0.2288 0.62234 0.51582 0.0
C373 C 0.26537 0.62213 0.49274 0.0
C374 C 0.33682 0.62353 0.49278 0.0
H375 H 0.44906 0.67365 0.53109 0.0
H376 H 0.37732 0.66148 0.51833 0.0
H377 H 0.40466 0.65733 0.5507 0.0
H378 H 0.3638 0.62507 0.55699 0.0
H379 H 0.23826 0.62272 0.55711 0.0
H380 H 0.71754 0.38123 0.55529 0.0
H381 H 0.59198 0.37917 0.55557 0.0
H382 H 0.58985 0.37859 0.47335 0.0
H383 H 0.71538 0.38079 0.47272 0.0
H384 H 0.48287 0.39976 0.4975 0.0
H385 H 0.50609 0.33026 0.53608 0.0
H386 H 0.55088 0.34689 0.55357 0.0
H387 H 0.57759 0.34218 0.52173 0.0
C388 C 0.69033 0.381 0.53723 0.0
C389 C 0.72616 0.38084 0.51398 0.0
C390 C 0.61883 0.37976 0.53747 0.0
C391 C 0.58262 0.37835 0.51452 0.0
C392 C 0.61759 0.37953 0.49122 0.0
H393 H 0.15887 0.36038 0.47337 0.0
H394 H 0.28441 0.36255 0.47313 0.0
C395 C 0.68911 0.38077 0.49093 0.0
C396 C 0.50883 0.37434 0.51482 0.0
H397 H 0.39345 0.34187 0.53126 0.0
C398 C 0.46307 0.38713 0.50482 0.0
C399 C 0.4841 0.35777 0.52431 0.0
C400 C 0.5321 0.34339 0.53437 0.0
C401 C 0.3922 0.38387 0.50446 0.0
C402 C 0.36747 0.36729 0.51394 0.0
C403 C 0.41324 0.35451 0.52395 0.0
C404 C 0.29367 0.36327 0.5142 0.0
C405 C 0.34423 0.39825 0.49439 0.0
C406 C 0.25865 0.36199 0.53749 0.0
C407 C 0.18714 0.36068 0.53775 0.0
C408 C 0.15015 0.36064 0.51468 0.0
C409 C 0.18604 0.36059 0.49143 0.0
C410 C 0.25753 0.36189 0.49122 0.0
H411 H 0.37021 0.41138 0.49275 0.0
H412 H 0.32566 0.39477 0.47514 0.0
H413 H 0.29862 0.39942 0.50697 0.0
H414 H 0.28634 0.3629 0.55537 0.0
H415 H 0.16082 0.36059 0.55595 0.0
H416 H 0.74164 0.8806 0.97195 0.0
H417 H 0.86718 0.87828 0.972 0.0
H418 H 0.86875 0.87819 0.05426 0.0
H419 H 0.74332 0.88063 0.05454 0.0
H420 H 0.97581 0.89919 0.02801 0.0
H421 H 0.95285 0.82944 0.99674 0.0
H422 H 0.90805 0.84595 0.97752 0.0
H423 H 0.88132 0.84144 1.00983 0.0
C424 C 0.76874 0.88043 0.99004 0.0
C425 C 0.73278 0.88049 0.01327 0.0
C426 C 0.84021 0.87903 0.99 0.0
C427 C 0.87623 0.87769 0.01314 0.0
C428 C 0.84115 0.87906 0.03627 0.0
H429 H 0.30006 0.85994 0.05633 0.0
H430 H 0.17441 0.86182 0.05639 0.0
C431 C 0.76969 0.88045 0.03636 0.0
C432 C 0.95 0.87366 0.01334 0.0
H433 H 0.06552 0.84107 1.00049 0.0
C434 C -0.00433 0.88651 0.02206 0.0
C435 C 0.97478 0.85701 1.00567 0.0
C436 C 0.92683 0.84257 0.99709 0.0
C437 C 0.06651 0.88324 0.02287 0.0
C438 C 0.09132 0.8666 0.01516 0.0
C439 C 0.04565 0.85374 1.00646 0.0
C440 C 0.16515 0.86264 0.01526 0.0
C441 C 0.11442 0.89767 0.03149 0.0
C442 C 0.20022 0.86156 0.99207 0.0
C443 C 0.27176 0.86044 0.99192 0.0
C444 C 0.30876 0.86039 0.015 0.0
C445 C 0.27288 0.86015 0.03825 0.0
C446 C 0.20133 0.86127 0.03835 0.0
H447 H 0.08829 0.91078 0.03198 0.0
H448 H 0.13344 0.89422 0.051 0.0
H449 H 0.15977 0.89887 0.01868 0.0
H450 H 0.1725 0.86248 0.97411 0.0
H451 H 0.29808 0.86049 0.97372 0.0
H452 H 0.21739 0.12159 0.97392 0.0
H453 H 0.09192 0.12387 0.97418 0.0
H454 H 0.09341 0.12381 0.05644 0.0
H455 H 0.21901 0.12166 0.0565 0.0
H456 H -0.01538 0.10296 1.00023 0.0
H457 H 0.00782 0.17261 0.03184 0.0
H458 H 0.07945 0.16058 0.01886 0.0
H459 H 0.05219 0.15604 0.0511 0.0
C460 C 0.19101 0.12174 0.9921 0.0
C461 C 0.22792 0.12178 0.01519 0.0
C462 C 0.11951 0.12304 0.99218 0.0
C463 C 0.08435 0.12438 0.0153 0.0
C464 C 0.1204 0.12309 0.03844 0.0
H465 H 0.66246 0.14239 0.05426 0.0
H466 H 0.78793 0.14009 0.05396 0.0
C467 C 0.19192 0.12179 0.03841 0.0
C468 C 0.01054 0.12843 0.01507 0.0
H469 H 0.89516 0.16107 0.02787 0.0
C470 C 0.96482 0.11564 1.00621 0.0
C471 C -0.01421 0.14507 0.02278 0.0
C472 C 0.03375 0.15946 0.0315 0.0
C473 C 0.894 0.11896 1.0053 0.0
C474 C 0.86923 0.1356 0.01303 0.0
C475 C 0.91496 0.14839 0.02188 0.0
C476 C 0.79542 0.13963 0.01284 0.0
C477 C 0.84606 0.10457 0.99654 0.0
C478 C 0.75931 0.14096 0.98971 0.0
C479 C 0.68778 0.14227 0.98977 0.0
C480 C 0.65183 0.14226 0.013 0.0
C481 C 0.6888 0.14225 0.03608 0.0
C482 C 0.76031 0.14095 0.03598 0.0
H483 H 0.87201 0.09143 0.99616 0.0
H484 H 0.80039 0.10343 1.0092 0.0
H485 H 0.82758 0.10802 0.97696 0.0
H486 H 0.78625 0.14025 0.9717 0.0
H487 H 0.66065 0.14242 0.97168 0.0
H488 H 0.29919 0.14235 0.55522 0.0
H489 H 0.17363 0.14025 0.55544 0.0
H490 H 0.17176 0.14002 0.47319 0.0
H491 H 0.2973 0.14226 0.47264 0.0
H492 H 0.0647 0.16104 0.49735 0.0
H493 H 0.08775 0.09147 0.53565 0.0
H494 H 0.13229 0.10804 0.55332 0.0
H495 H 0.15938 0.10344 0.52149 0.0
C496 C 0.27204 0.14218 0.53715 0.0
C497 C 0.30794 0.14214 0.51391 0.0
C498 C 0.20054 0.14092 0.53735 0.0
C499 C 0.1644 0.1396 0.51436 0.0
C500 C 0.19945 0.14089 0.49108 0.0
H501 H 0.74053 0.12171 0.47317 0.0
H502 H 0.86609 0.1238 0.47288 0.0
C503 C 0.27096 0.14216 0.49084 0.0
C504 C 0.0906 0.13559 0.5146 0.0
H505 H 0.97513 0.10311 0.5309 0.0
C506 C 0.04488 0.1484 0.50462 0.0
C507 C 0.06582 0.119 0.52402 0.0
C508 C 0.11375 0.1046 0.53406 0.0
C509 C 0.97401 0.14514 0.50422 0.0
C510 C 0.94924 0.12855 0.51365 0.0
C511 C -0.00504 0.11575 0.52363 0.0
C512 C 0.87545 0.12456 0.51394 0.0
C513 C 0.92605 0.15954 0.4942 0.0
C514 C 0.8405 0.12333 0.53724 0.0
C515 C 0.76899 0.12207 0.53753 0.0
C516 C 0.73194 0.12202 0.51447 0.0
C517 C 0.76775 0.12192 0.49122 0.0
C518 C 0.83924 0.12318 0.49098 0.0
H519 H 0.95208 0.17266 0.49253 0.0
H520 H 0.90727 0.15607 0.47498 0.0
H521 H 0.88055 0.16073 0.50683 0.0
H522 H 0.86825 0.12424 0.55511 0.0
H523 H 0.74274 0.12201 0.55574 0.0
H524 H 0.66073 0.85947 0.55651 0.0
H525 H 0.78642 0.86121 0.55668 0.0
H526 H 0.78759 0.86228 0.47439 0.0
H527 H 0.66199 0.86042 0.47389 0.0
H528 H 0.89459 0.84062 0.50072 0.0
H529 H 0.87269 0.91023 0.53271 0.0
H530 H 0.82761 0.89361 0.55154 0.0
H531 H 0.80099 0.89843 0.51925 0.0
C532 C 0.68776 0.85974 0.53845 0.0
C533 C 0.65168 0.86014 0.51517 0.0
C534 C 0.75932 0.86077 0.53862 0.0
C535 C 0.79531 0.86222 0.51555 0.0
C536 C 0.76002 0.8613 0.49233 0.0
H537 H 0.21785 0.88009 0.47197 0.0
H538 H 0.09233 0.87771 0.47217 0.0
C539 C 0.68847 0.86026 0.49211 0.0
C540 C 0.86916 0.86612 0.51553 0.0
H541 H -0.01501 0.89865 0.52845 0.0
C542 C 0.91462 0.85327 0.50674 0.0
C543 C 0.89416 0.88272 0.52333 0.0
C544 C 0.84646 0.89714 0.53207 0.0
C545 C -0.01452 0.85653 0.50591 0.0
C546 C 0.01045 0.87315 0.51362 0.0
C547 C 0.96499 0.88598 0.52246 0.0
C548 C 0.08419 0.87719 0.51332 0.0
C549 C 0.03322 0.84209 0.49723 0.0
C550 C 0.11975 0.87865 0.5364 0.0
C551 C 0.19119 0.88009 0.5364 0.0
C552 C 0.22759 0.88008 0.51327 0.0
C553 C 0.19114 0.87994 0.49009 0.0
C554 C 0.11968 0.8785 0.49014 0.0
H555 H 0.00722 0.82895 0.49697 0.0
H556 H 0.05132 0.84546 0.47761 0.0
H557 H 0.07915 0.84098 0.50986 0.0
H558 H 0.09256 0.87781 0.55442 0.0
H559 H 0.21795 0.88033 0.55454 0.0
H560 H 0.97885 0.57503 0.9737 0.0
H561 H -0.01797 0.54257 0.97375 0.0
H562 H -0.01748 0.54066 0.05603 0.0
H563 H 0.97858 0.57312 0.05625 0.0
H564 H 0.07725 0.51808 0.99614 0.0
H565 H 0.8146 0.51021 0.03691 0.0
H566 H 0.84604 0.53114 0.02386 0.0
H567 H 0.8724 0.52347 0.05518 0.0
C568 C -0.01983 0.56772 0.99183 0.0
C569 C 0.9779 0.57664 0.01499 0.0
C570 C -0.01807 0.54919 0.9918 0.0
C571 C -0.01884 0.53928 0.01488 0.0
C572 C -0.0183 0.54812 0.03803 0.0
H573 H 0.97819 0.42709 0.05479 0.0
H574 H 0.97487 0.45955 0.05448 0.0
C575 C -0.02008 0.56665 0.0381 0.0
C576 C 0.97875 0.51967 0.01468 0.0
H577 H 0.8794 0.48389 0.03193 0.0
C578 C 0.03397 0.51058 1.00387 0.0
C579 C 0.92202 0.50999 0.02476 0.0
C580 C 0.86004 0.51916 0.03565 0.0
C581 C 0.03461 0.49197 1.0033 0.0
C582 C 0.97792 0.4823 0.0134 0.0
C583 C 0.92267 0.49139 0.02419 0.0
C584 C 0.97566 0.46269 0.01334 0.0
C585 C 0.09659 0.4828 0.99242 0.0
C586 C 0.97515 0.45376 0.99027 0.0
C587 C 0.977 0.43521 0.99034 0.0
C588 C 0.97907 0.42531 0.01353 0.0
C589 C 0.97682 0.43432 0.03661 0.0
C590 C 0.97498 0.45286 0.03649 0.0
H591 H 0.14196 0.49177 0.99106 0.0
H592 H 0.11073 0.47086 1.00427 0.0
H593 H 0.08415 0.47843 0.97292 0.0
H594 H 0.97426 0.46114 0.9722 0.0
H595 H 0.97834 0.42868 0.97224 0.0
H596 H 0.97748 0.42942 0.47252 0.0
H597 H -0.01807 0.46185 0.47277 0.0
H598 H -0.01374 0.45988 0.55504 0.0
H599 H -0.01893 0.42744 0.55506 0.0
H600 H 0.88535 0.48269 0.53374 0.0
H601 H 0.14173 0.49519 0.48993 0.0
H602 H 0.0864 0.48099 0.47212 0.0
H603 H 0.11674 0.47371 0.50313 0.0
C604 C -0.01961 0.43586 0.49067 0.0
C605 C 0.97892 0.42585 0.51377 0.0
C606 C -0.01682 0.45439 0.49076 0.0
C607 C -0.01497 0.46321 0.51392 0.0
C608 C -0.01494 0.45327 0.53698 0.0
H609 H 0.97672 0.57355 0.55619 0.0
H610 H 0.97232 0.54111 0.55592 0.0
C611 C -0.01773 0.43475 0.53693 0.0
C612 C -0.01728 0.48283 0.51413 0.0
H613 H 0.06955 0.52027 0.49493 0.0
C614 C 0.92575 0.49094 0.52539 0.0
C615 C 0.03539 0.49348 0.50309 0.0
C616 C 0.09887 0.48544 0.49157 0.0
C617 C 0.91949 0.50949 0.52557 0.0
C618 C 0.97217 0.52014 0.51455 0.0
C619 C 0.02914 0.51203 0.50328 0.0
C620 C 0.96988 0.53976 0.51476 0.0
C621 C 0.85596 0.51752 0.53707 0.0
C622 C 0.97026 0.54971 0.4917 0.0
C623 C 0.97306 0.56823 0.49177 0.0
C624 C 0.97599 0.57712 0.51494 0.0
C625 C 0.97412 0.56711 0.53803 0.0
C626 C 0.97135 0.54858 0.53792 0.0
H627 H 0.81304 0.50778 0.53861 0.0
H628 H 0.86829 0.52191 0.55657 0.0
H629 H 0.83822 0.52929 0.52556 0.0
H630 H 0.96935 0.54311 0.47363 0.0
H631 H 0.97457 0.57554 0.47365 0.0
H632 H 0.47905 0.92732 0.0549 0.0
H633 H 0.47441 0.95973 0.05489 0.0
H634 H 0.47489 0.96173 0.9726 0.0
H635 H 0.48031 0.92927 0.97236 0.0
H636 H 0.57434 0.98357 0.99502 0.0
H637 H 0.31529 0.99378 0.03681 0.0
H638 H 0.36946 0.9787 0.05494 0.0
H639 H 0.34129 0.97298 0.02357 0.0
C640 C 0.47719 0.93462 0.03678 0.0
C641 C 0.48004 0.92572 0.01362 0.0
C642 C 0.47425 0.95314 0.03682 0.0
C643 C 0.47365 0.96308 0.01375 0.0
C644 C 0.47508 0.95425 0.9906 0.0
H645 H 0.48287 0.07536 0.97327 0.0
H646 H 0.48789 0.04296 0.97326 0.0
C647 C 0.47798 0.93572 0.99051 0.0
C648 C 0.47579 0.98269 0.0138 0.0
H649 H 0.38794 0.0191 0.03311 0.0
C650 C 0.53345 0.99138 1.00321 0.0
C651 C 0.4225 0.99276 0.02464 0.0
C652 C 0.35831 0.98413 0.03545 0.0
C653 C 0.53978 0.00992 1.0035 0.0
C654 C 0.48649 0.01999 0.01434 0.0
C655 C 0.42883 0.0113 0.02493 0.0
C656 C 0.48861 0.0396 0.0144 0.0
C657 C 0.60396 0.01856 0.99268 0.0
C658 C 0.48709 0.04842 0.03756 0.0
C659 C 0.48397 0.06695 0.03766 0.0
C660 C 0.48179 0.07695 0.01456 0.0
C661 C 0.48481 0.06806 0.9914 0.0
C662 C 0.48796 0.04954 0.99133 0.0
H663 H 0.64698 0.0089 0.99131 0.0
H664 H 0.59279 0.02398 0.97319 0.0
H665 H 0.62098 0.0297 1.00456 0.0
H666 H 0.48731 0.04094 0.05555 0.0
H667 H 0.48151 0.07338 0.05582 0.0
H668 H 0.48342 0.07322 0.55606 0.0
H669 H 0.48018 0.04075 0.55563 0.0
H670 H 0.47104 0.04299 0.47342 0.0
H671 H 0.47499 0.07542 0.47356 0.0
H672 H 0.3827 0.0173 0.53416 0.0
H673 H 0.64094 0.0117 0.48962 0.0
H674 H 0.61082 0.03192 0.50347 0.0
H675 H 0.58142 0.02589 0.47239 0.0
C676 C 0.48015 0.06682 0.53788 0.0
C677 C 0.48004 0.07689 0.51483 0.0
C678 C 0.47839 0.04828 0.53769 0.0
C679 C 0.47678 0.03953 0.51448 0.0
C680 C 0.47377 0.04953 0.4915 0.0
H681 H 0.47621 0.92929 0.47264 0.0
H682 H 0.47938 0.96175 0.47323 0.0
C683 C 0.47558 0.06806 0.49165 0.0
C684 C 0.47925 0.01991 0.51431 0.0
H685 H 0.57648 0.98511 0.49479 0.0
C686 C 0.42512 0.01023 0.52566 0.0
C687 C 0.5348 0.0108 0.50319 0.0
C688 C 0.59567 0.02057 0.49166 0.0
C689 C 0.42437 0.99161 0.52576 0.0
C690 C 0.47991 0.98249 0.51463 0.0
C691 C 0.53406 0.99218 0.5033 0.0
C692 C 0.48231 0.96288 0.51439 0.0
C693 C 0.36347 0.98184 0.53728 0.0
C694 C 0.48505 0.95283 0.53734 0.0
C695 C 0.48327 0.9343 0.5371 0.0
C696 C 0.47911 0.92552 0.51386 0.0
C697 C 0.47924 0.93564 0.49086 0.0
C698 C 0.48097 0.95418 0.49114 0.0
H699 H 0.3182 0.99072 0.5393 0.0
H700 H 0.34833 0.97049 0.52547 0.0
H701 H 0.37767 0.97652 0.55655 0.0
H702 H 0.4876 0.95933 0.55546 0.0
H703 H 0.48366 0.9269 0.55515 0.0
H704 H 0.0792 0.31425 0.97418 0.0
H705 H 0.13719 0.28547 0.97422 0.0
H706 H 0.14452 0.28441 0.05646 0.0
H707 H 0.08714 0.31333 0.05666 0.0
H708 H 0.27219 0.27843 0.03316 0.0
H709 H 0.06849 0.23538 0.99365 0.0
H710 H 0.08483 0.25533 0.97498 0.0
H711 H 0.05011 0.25681 1.00659 0.0
C712 C 0.09205 0.30778 0.99231 0.0
C713 C 0.07864 0.3161 0.01542 0.0
C714 C 0.12496 0.29129 0.99228 0.0
C715 C 0.1446 0.28277 0.01534 0.0
C716 C 0.12954 0.29078 0.03847 0.0
H717 H 0.37596 0.18744 0.05495 0.0
H718 H 0.31671 0.21605 0.0552 0.0
C719 C 0.09657 0.30727 0.03853 0.0
C720 C 0.18517 0.26615 0.01524 0.0
H721 H 0.18132 0.2232 0.99645 0.0
C722 C 0.25225 0.26631 0.02529 0.0
C723 C 0.15903 0.25043 1.0048 0.0
C724 C 0.08645 0.24935 0.99459 0.0
C725 C 0.29445 0.2512 0.02482 0.0
C726 C 0.26835 0.23549 0.01436 0.0
C727 C 0.20123 0.23532 1.00433 0.0
C728 C 0.30915 0.21891 0.0141 0.0
C729 C 0.36704 0.25228 0.03503 0.0
C730 C 0.32448 0.21105 0.99089 0.0
C731 C 0.35819 0.19467 0.99065 0.0
C732 C 0.37663 0.1858 0.01367 0.0
C733 C 0.36279 0.19396 0.03688 0.0
C734 C 0.32912 0.21034 0.03708 0.0
H735 H 0.38488 0.26626 0.0361 0.0
H736 H 0.36877 0.24621 0.05458 0.0
H737 H 0.40342 0.24491 0.02294 0.0
H738 H 0.30925 0.21747 0.97296 0.0
H739 H 0.36789 0.18873 0.97246 0.0
H740 H 0.58867 0.81351 0.05591 0.0
H741 H 0.64883 0.78496 0.05556 0.0
H742 H 0.64663 0.78685 0.97329 0.0
H743 H 0.58699 0.81544 0.97336 0.0
H744 H 0.61323 0.75224 0.03252 0.0
H745 H 0.85314 0.78198 0.99232 0.0
H746 H 0.78565 0.79518 1.00589 0.0
H747 H 0.77618 0.78689 0.97432 0.0
C748 C 0.60028 0.80777 0.03773 0.0
C749 C 0.58356 0.81681 0.01465 0.0
C750 C 0.63474 0.79148 0.03758 0.0
C751 C 0.65331 0.78404 0.0144 0.0
C752 C 0.63392 0.7926 0.99136 0.0
H753 H 0.8715 0.68907 0.97293 0.0
H754 H 0.81254 0.71778 0.97344 0.0
C755 C 0.59942 0.80887 0.99146 0.0
C756 C 0.69414 0.76747 0.01434 0.0
H757 H 0.84943 0.75056 0.9966 0.0
C758 C 0.66495 0.75185 0.02477 0.0
C759 C 0.76162 0.7671 1.00422 0.0
C760 C 0.79644 0.78369 0.99374 0.0
C761 C 0.70107 0.73572 0.02493 0.0
C762 C 0.7685 0.73533 0.01478 0.0
C763 C 0.79773 0.75096 1.00436 0.0
C764 C 0.80911 0.71874 0.0146 0.0
C765 C 0.66628 0.71913 0.03544 0.0
C766 C 0.8287 0.71013 0.03759 0.0
C767 C 0.86249 0.69377 0.0374 0.0
C768 C 0.8774 0.68576 0.01417 0.0
C769 C 0.86058 0.69485 0.99114 0.0
C770 C 0.82683 0.71123 0.99138 0.0
H771 H 0.60962 0.72087 0.03701 0.0
H772 H 0.67675 0.70767 0.02322 0.0
H773 H 0.68687 0.71589 0.0548 0.0
H774 H 0.8166 0.71592 0.0557 0.0
H775 H 0.87505 0.68717 0.05547 0.0
H776 H 0.0838 0.68939 0.4728 0.0
H777 H 0.14426 0.71789 0.47312 0.0
H778 H 0.14429 0.71589 0.55538 0.0
H779 H 0.08431 0.68735 0.55534 0.0
H780 H 0.10992 0.7507 0.49654 0.0
H781 H 0.35053 0.72035 0.53572 0.0
H782 H 0.28225 0.70735 0.52218 0.0
H783 H 0.274 0.7155 0.55385 0.0
C784 C 0.09593 0.6951 0.49097 0.0
C785 C 0.07977 0.68603 0.51405 0.0
C786 C 0.13056 0.71136 0.4911 0.0
C787 C 0.14984 0.71876 0.51426 0.0
C788 C 0.13097 0.71018 0.53732 0.0
H789 H 0.37304 0.81308 0.55555 0.0
H790 H 0.31286 0.78454 0.55507 0.0
C791 C 0.09629 0.69394 0.53723 0.0
C792 C 0.19113 0.73525 0.5143 0.0
H793 H 0.3477 0.75177 0.53155 0.0
C794 C 0.16198 0.75096 0.50409 0.0
C795 C 0.25903 0.73545 0.52416 0.0
C796 C 0.29374 0.71875 0.53442 0.0
C797 C 0.19861 0.76702 0.50391 0.0
C798 C 0.26649 0.76723 0.51379 0.0
C799 C 0.29565 0.75151 0.52399 0.0
C800 C 0.30768 0.78373 0.51392 0.0
C801 C 0.1639 0.78372 0.49366 0.0
C802 C 0.32669 0.79235 0.49091 0.0
C803 C 0.36122 0.80861 0.49108 0.0
C804 C 0.37743 0.8165 0.51431 0.0
C805 C 0.36114 0.80739 0.53734 0.0
C806 C 0.32668 0.79111 0.53713 0.0
H807 H 0.10713 0.7821 0.49228 0.0
H808 H 0.17522 0.79511 0.50595 0.0
H809 H 0.18381 0.78701 0.47427 0.0
H810 H 0.31358 0.78666 0.47281 0.0
H811 H 0.37329 0.81523 0.473 0.0
H812 H 0.86852 0.31396 0.55616 0.0
H813 H 0.81099 0.28506 0.55586 0.0
H814 H 0.81659 0.28632 0.47361 0.0
H815 H 0.87471 0.31509 0.47367 0.0
H816 H 0.68279 0.27897 0.53257 0.0
H817 H 0.88696 0.23629 0.49286 0.0
H818 H 0.90504 0.25771 0.50592 0.0
H819 H 0.86979 0.25627 0.47432 0.0
C820 C 0.85865 0.30795 0.53801 0.0
C821 C 0.87622 0.31682 0.51493 0.0
C822 C 0.82557 0.29148 0.53789 0.0
C823 C 0.81005 0.28353 0.51474 0.0
C824 C 0.82917 0.2921 0.4917 0.0
H825 H 0.58928 0.18884 0.47233 0.0
H826 H 0.64662 0.21776 0.47262 0.0
C827 C 0.86218 0.30858 0.49178 0.0
C828 C 0.76984 0.26685 0.5146 0.0
H829 H 0.77469 0.22388 0.4959 0.0
C830 C 0.70294 0.26688 0.5247 0.0
C831 C 0.79626 0.25117 0.50417 0.0
C832 C 0.86866 0.25023 0.49389 0.0
C833 C 0.66121 0.25168 0.5243 0.0
C834 C 0.68763 0.23601 0.51387 0.0
C835 C 0.75453 0.23597 0.50377 0.0
C836 C 0.64744 0.21932 0.51374 0.0
C837 C 0.5888 0.25262 0.53457 0.0
C838 C 0.62831 0.21075 0.53678 0.0
C839 C 0.5954 0.19426 0.53671 0.0
C840 C 0.5815 0.186 0.51357 0.0
C841 C 0.59907 0.19486 0.49048 0.0
C842 C 0.63202 0.21135 0.49059 0.0
H843 H 0.57048 0.26656 0.53558 0.0
H844 H 0.55244 0.24513 0.52256 0.0
H845 H 0.58768 0.2466 0.55416 0.0
H846 H 0.64081 0.21655 0.55486 0.0
H847 H 0.58287 0.18776 0.55483 0.0
H848 H 0.02668 0.34282 0.16302 0.0
H849 H 0.01395 0.34397 0.20935 0.0
H850 H 0.97383 0.40025 0.20258 0.0
H851 H -0.01375 0.39922 0.15623 0.0
H852 H 0.06713 0.39128 0.24106 0.0
H853 H 0.83287 0.34922 0.24818 0.0
H854 H 0.90325 0.33902 0.23197 0.0
H855 H 0.86346 0.35867 0.21823 0.0
C856 C 0.01458 0.35542 0.17137 0.0
C857 C 0.00719 0.37092 0.15593 0.0
C858 C 0.00725 0.35604 0.19784 0.0
C859 C -0.00817 0.37214 0.20934 0.0
C860 C -0.01448 0.38768 0.19405 0.0
H861 H 0.85041 0.38261 0.36562 0.0
H862 H 0.86157 0.38365 0.31911 0.0
C863 C -0.00702 0.38708 0.16759 0.0
C864 C -0.01675 0.37282 0.23736 0.0
H865 H 0.88817 0.35601 0.28721 0.0
C866 C 0.02784 0.38363 0.25116 0.0
C867 C 0.93128 0.36304 0.25042 0.0
C868 C 0.8795 0.35196 0.23646 0.0
C869 C 0.02283 0.38462 0.27778 0.0
C870 C 0.97261 0.37429 0.29095 0.0
C871 C 0.92704 0.36379 0.27709 0.0
C872 C 0.9667 0.37409 0.31913 0.0
C873 C 0.0708 0.39689 0.29152 0.0
C874 C 0.02191 0.36825 0.33453 0.0
C875 C 0.01591 0.36777 0.36108 0.0
C876 C 0.95429 0.37299 0.37278 0.0
C877 C 0.89888 0.37874 0.35726 0.0
C878 C 0.905 0.37923 0.33068 0.0
H879 H 0.09225 0.40735 0.27839 0.0
H880 H 0.04403 0.4034 0.30741 0.0
H881 H 0.11456 0.38907 0.29963 0.0
H882 H 0.06955 0.36391 0.326 0.0
H883 H 0.05983 0.36344 0.37244 0.0
H884 H 0.94285 0.65879 0.15945 0.0
H885 H 0.9558 0.65834 0.20581 0.0
H886 H 0.97421 0.60125 0.20677 0.0
H887 H 0.9645 0.60162 0.16027 0.0
H888 H 0.87635 0.64232 0.2427 0.0
H889 H 0.14251 0.61541 0.24735 0.0
H890 H 0.10385 0.62362 0.21794 0.0
H891 H 0.08313 0.60176 0.23047 0.0
C892 C 0.95063 0.64615 0.16946 0.0
C893 C 0.95326 0.63025 0.15607 0.0
C894 C 0.95749 0.64591 0.19599 0.0
C895 C 0.96718 0.6298 0.2097 0.0
C896 C 0.96829 0.61387 0.19652 0.0
H897 H -0.00267 0.60334 0.37187 0.0
H898 H -0.01336 0.60257 0.32542 0.0
C899 C 0.96176 0.61409 0.16995 0.0
C900 C 0.97488 0.62973 0.23784 0.0
H901 H 0.0838 0.61787 0.28677 0.0
C902 C 0.9218 0.63703 0.25233 0.0
C903 C 0.03431 0.62283 0.25035 0.0
C904 C 0.09452 0.61561 0.23575 0.0
C905 C 0.92624 0.63746 0.27901 0.0
C906 C -0.01451 0.63053 0.29146 0.0
C907 C 0.0384 0.62313 0.27707 0.0
C908 C -0.00629 0.63104 0.31947 0.0
C909 C 0.86724 0.64512 0.29378 0.0
C910 C 0.00239 0.64731 0.33135 0.0
C911 C 0.00936 0.64781 0.35785 0.0
C912 C 0.00766 0.63203 0.37296 0.0
C913 C -0.0002 0.61572 0.36084 0.0
C914 C -0.00678 0.61525 0.33432 0.0
H915 H 0.81999 0.64668 0.28191 0.0
H916 H 0.85516 0.63654 0.31079 0.0
H917 H 0.88213 0.65841 0.30053 0.0
H918 H 0.00396 0.65962 0.3201 0.0
H919 H 0.0166 0.66056 0.36646 0.0
H920 H 0.84941 0.62108 0.86664 0.0
H921 H 0.86119 0.62002 0.82026 0.0
H922 H 0.06549 0.64208 0.82527 0.0
H923 H 0.05513 0.64278 0.87167 0.0
H924 H 0.97353 0.65899 0.78761 0.0
H925 H -0.01082 0.58555 0.78043 0.0
H926 H 0.91899 0.59381 0.79901 0.0
H927 H 0.00597 0.59672 0.8098 0.0
C928 C 0.89722 0.6255 0.85795 0.0
C929 C 0.95135 0.632 0.87294 0.0
C930 C 0.90375 0.62492 0.83144 0.0
C931 C 0.96442 0.63082 0.81945 0.0
C932 C 0.01827 0.63745 0.83424 0.0
H933 H 0.10112 0.6196 0.66321 0.0
H934 H 0.09114 0.61937 0.70975 0.0
C935 C 0.012 0.63796 0.86074 0.0
C936 C 0.9713 0.63045 0.79139 0.0
H937 H -0.01761 0.60243 0.74161 0.0
C938 C 0.97554 0.64664 0.77752 0.0
C939 C 0.97454 0.6143 0.77841 0.0
C940 C 0.97249 0.59656 0.7926 0.0
C941 C -0.01814 0.64712 0.75086 0.0
C942 C -0.01634 0.63098 0.73783 0.0
C943 C -0.01946 0.61477 0.75172 0.0
C944 C -0.01123 0.6307 0.70971 0.0
C945 C -0.01273 0.66485 0.73679 0.0
C946 C 0.93402 0.63689 0.69439 0.0
C947 C 0.93918 0.63687 0.66783 0.0
C948 C -0.00065 0.63069 0.65607 0.0
C949 C 0.0538 0.62428 0.67158 0.0
C950 C 0.04838 0.62422 0.69817 0.0
H951 H -0.00097 0.67578 0.74988 0.0
H952 H 0.02789 0.6645 0.72194 0.0
H953 H 0.93754 0.66791 0.72713 0.0
H954 H 0.88716 0.64168 0.70301 0.0
H955 H 0.89568 0.64154 0.65652 0.0
H956 H 0.84661 0.38029 0.66168 0.0
H957 H 0.85723 0.38167 0.70808 0.0
H958 H 0.06562 0.36214 0.70398 0.0
H959 H 0.05643 0.36134 0.65756 0.0
H960 H 0.88429 0.35456 0.74333 0.0
H961 H 0.08712 0.40633 0.74635 0.0
H962 H 0.03901 0.40188 0.71774 0.0
H963 H 0.10982 0.38778 0.72739 0.0
C964 C 0.89502 0.37651 0.67061 0.0
C965 C 0.95077 0.37078 0.65586 0.0
C966 C 0.90083 0.3772 0.69713 0.0
C967 C 0.96254 0.37227 0.70942 0.0
C968 C 0.01797 0.36633 0.69484 0.0
H969 H 0.02256 0.34341 0.86914 0.0
H970 H 0.00994 0.34396 0.82271 0.0
C971 C 0.01228 0.36566 0.66832 0.0
C972 C 0.96835 0.37289 0.73757 0.0
H973 H 0.06192 0.39088 0.78557 0.0
C974 C 0.92289 0.36256 0.75259 0.0
C975 C 0.01815 0.38353 0.74958 0.0
C976 C 0.06589 0.39565 0.73447 0.0
C977 C 0.92687 0.36227 0.77933 0.0
C978 C 0.97848 0.37236 0.79131 0.0
C979 C 0.02292 0.38301 0.77631 0.0
C980 C -0.01295 0.37207 0.81941 0.0
C981 C 0.87522 0.35136 0.79451 0.0
C982 C -0.01965 0.38779 0.83286 0.0
C983 C -0.01225 0.38753 0.8594 0.0
C984 C 0.00225 0.37154 0.87295 0.0
C985 C 0.01014 0.35587 0.85932 0.0
C986 C 0.00289 0.35616 0.8328 0.0
H987 H 0.82867 0.3484 0.78302 0.0
H988 H 0.89915 0.33852 0.8006 0.0
H989 H 0.85901 0.35831 0.81187 0.0
H990 H 0.96838 0.40022 0.82285 0.0
H991 H -0.01929 0.39978 0.86934 0.0
H992 H 0.51994 0.84239 0.16231 0.0
H993 H 0.50616 0.84334 0.20856 0.0
H994 H 0.48787 0.9004 0.20299 0.0
H995 H 0.49839 0.89954 0.15663 0.0
H996 H 0.58518 0.85979 0.24394 0.0
H997 H 0.31912 0.88677 0.24454 0.0
H998 H 0.35811 0.87822 0.21623 0.0
H999 H 0.37858 0.90023 0.22627 0.0
C1000 C 0.51203 0.85513 0.17085 0.0
C1001 C 0.50979 0.87088 0.15568 0.0
C1002 C 0.50467 0.85566 0.19732 0.0
C1003 C 0.49479 0.87191 0.20917 0.0
C1004 C 0.49394 0.88768 0.19419 0.0
H1005 H 0.46398 0.90051 0.36819 0.0
H1006 H 0.47481 0.90077 0.32167 0.0
C1007 C 0.50096 0.88717 0.1677 0.0
C1008 C 0.48675 0.87233 0.23726 0.0
H1009 H 0.37766 0.885 0.28439 0.0
C1010 C 0.5397 0.86524 0.25278 0.0
C1011 C 0.42731 0.87945 0.24875 0.0
C1012 C 0.36722 0.88645 0.23312 0.0
C1013 C 0.53512 0.86524 0.27948 0.0
C1014 C 0.47587 0.8724 0.29091 0.0
C1015 C 0.42309 0.87958 0.27547 0.0
C1016 C 0.46737 0.87225 0.31893 0.0
C1017 C 0.59398 0.85779 0.29533 0.0
C1018 C 0.45832 0.85613 0.33263 0.0
C1019 C 0.4513 0.85593 0.35914 0.0
C1020 C 0.45335 0.87186 0.37248 0.0
C1021 C 0.46137 0.88802 0.35855 0.0
C1022 C 0.46801 0.8882 0.33199 0.0
H1023 H 0.64132 0.85605 0.2838 0.0
H1024 H 0.60595 0.86661 0.31134 0.0
H1025 H 0.57898 0.84462 0.30363 0.0
H1026 H 0.45658 0.84371 0.32277 0.0
H1027 H 0.44382 0.84329 0.36915 0.0
H1028 H 0.56381 0.14104 0.15585 0.0
H1029 H 0.57432 0.14087 0.20231 0.0
H1030 H 0.37057 0.11855 0.20954 0.0
H1031 H 0.35865 0.11907 0.16304 0.0
H1032 H 0.48184 0.15832 0.23738 0.0
H1033 H 0.49863 0.08515 0.25431 0.0
H1034 H 0.51547 0.09573 0.22355 0.0
H1035 H 0.42846 0.09295 0.23447 0.0
C1036 C 0.52088 0.13624 0.16726 0.0
C1037 C 0.46026 0.13011 0.15565 0.0
C1038 C 0.52723 0.13604 0.19381 0.0
C1039 C 0.4735 0.12955 0.20927 0.0
C1040 C 0.41303 0.12336 0.19787 0.0
H1041 H 0.40405 0.14313 0.37062 0.0
H1042 H 0.39579 0.1427 0.32412 0.0
C1043 C 0.40643 0.12363 0.17129 0.0
C1044 C 0.48013 0.12974 0.23737 0.0
H1045 H 0.49144 0.10279 0.29083 0.0
C1046 C 0.48399 0.1462 0.2491 0.0
C1047 C 0.48354 0.11388 0.25248 0.0
C1048 C 0.48186 0.09588 0.24066 0.0
C1049 C 0.49019 0.14723 0.27568 0.0
C1050 C 0.49223 0.13138 0.29083 0.0
C1051 C 0.48941 0.11491 0.27909 0.0
C1052 C 0.49747 0.13167 0.31896 0.0
C1053 C 0.49526 0.16523 0.28738 0.0
C1054 C 0.55713 0.12541 0.3314 0.0
C1055 C 0.5624 0.1258 0.35797 0.0
C1056 C 0.50774 0.1323 0.3726 0.0
C1057 C 0.44769 0.13837 0.35997 0.0
C1058 C 0.44267 0.13806 0.33341 0.0
H1059 H 0.50674 0.1759 0.27289 0.0
H1060 H 0.4455 0.1684 0.29658 0.0
H1061 H 0.53594 0.16523 0.30232 0.0
H1062 H 0.59994 0.12042 0.3205 0.0
H1063 H 0.60968 0.12122 0.36699 0.0
H1064 H 0.34742 0.12176 0.86647 0.0
H1065 H 0.35896 0.12016 0.82014 0.0
H1066 H 0.56615 0.14046 0.82488 0.0
H1067 H 0.55612 0.14147 0.87123 0.0
H1068 H 0.38493 0.14713 0.78472 0.0
H1069 H 0.59122 0.09622 0.78305 0.0
H1070 H 0.54247 0.10063 0.81144 0.0
H1071 H 0.61252 0.11497 0.80187 0.0
C1072 C 0.39579 0.12566 0.8577 0.0
C1073 C 0.45094 0.13168 0.87261 0.0
C1074 C 0.40211 0.12484 0.83121 0.0
C1075 C 0.46377 0.12993 0.81913 0.0
C1076 C 0.51859 0.13615 0.83387 0.0
H1077 H 0.52577 0.15855 0.65966 0.0
H1078 H 0.51251 0.15799 0.70604 0.0
C1079 C 0.51239 0.13694 0.86034 0.0
C1080 C 0.47012 0.12919 0.79102 0.0
H1081 H 0.56595 0.11144 0.74359 0.0
C1082 C 0.42427 0.13926 0.77571 0.0
C1083 C 0.5209 0.11872 0.77932 0.0
C1084 C 0.56918 0.10688 0.79474 0.0
C1085 C 0.42882 0.13947 0.74899 0.0
C1086 C 0.48139 0.12957 0.73733 0.0
C1087 C 0.5262 0.11917 0.75261 0.0
C1088 C 0.49061 0.12984 0.70929 0.0
C1089 C 0.37682 0.15011 0.73348 0.0
C1090 C 0.48469 0.1141 0.69583 0.0
C1091 C 0.49237 0.11436 0.66932 0.0
C1092 C 0.50641 0.13038 0.65579 0.0
C1093 C 0.51369 0.14606 0.66944 0.0
C1094 C 0.5061 0.14577 0.69594 0.0
H1095 H 0.3299 0.15296 0.74474 0.0
H1096 H 0.40012 0.163 0.72733 0.0
H1097 H 0.36133 0.143 0.71614 0.0
H1098 H 0.47301 0.10165 0.70582 0.0
H1099 H 0.48581 0.10209 0.65937 0.0
H1100 H 0.55842 0.86065 0.65687 0.0
H1101 H 0.56853 0.86106 0.70331 0.0
H1102 H 0.36043 0.88067 0.70827 0.0
H1103 H 0.34891 0.8797 0.66185 0.0
H1104 H 0.556 0.88957 0.73522 0.0
H1105 H 0.36018 0.83776 0.75807 0.0
H1106 H 0.39503 0.84126 0.72643 0.0
H1107 H 0.32932 0.85579 0.73791 0.0
C1108 C 0.51439 0.8648 0.66784 0.0
C1109 C 0.45261 0.86999 0.65563 0.0
C1110 C 0.52049 0.86516 0.69436 0.0
C1111 C 0.46496 0.87067 0.70924 0.0
C1112 C 0.40352 0.87609 0.69716 0.0
H1113 H 0.48439 0.90005 0.86848 0.0
H1114 H 0.47447 0.90018 0.82193 0.0
C1115 C 0.3973 0.8757 0.67061 0.0
C1116 C 0.4719 0.87094 0.73737 0.0
H1117 H 0.40575 0.85336 0.79289 0.0
C1118 C 0.52323 0.88165 0.74786 0.0
C1119 C 0.42959 0.86042 0.75376 0.0
C1120 C 0.37582 0.84802 0.74353 0.0
C1121 C 0.533 0.88225 0.77436 0.0
C1122 C 0.48954 0.87207 0.79076 0.0
C1123 C 0.43862 0.86125 0.78026 0.0
C1124 C 0.49684 0.87217 0.81889 0.0
C1125 C 0.59066 0.89347 0.78453 0.0
C1126 C 0.51153 0.85633 0.83263 0.0
C1127 C 0.51707 0.85621 0.8592 0.0
C1128 C 0.50773 0.87193 0.87257 0.0
C1129 C 0.49301 0.88779 0.85872 0.0
C1130 C 0.48732 0.88788 0.83213 0.0
H1131 H 0.62958 0.89676 0.76961 0.0
H1132 H 0.56907 0.90613 0.79128 0.0
H1133 H 0.61691 0.88659 0.80088 0.0
H1134 H 0.51901 0.84405 0.82276 0.0
H1135 H 0.52918 0.84381 0.86927 0.0
loop_
_geom_bond_atom_site_label_1
_geom_bond_atom_site_label_2
_geom_bond_distance
_geom_bond_site_symmetry_2
_ccdc_geom_bond_type
C0 O16 1.251 . S
C0 O18 1.254 1_554 S
N1 C2 1.333 . S
N1 C6 1.307 . S
N1 Zn7 2.020 . S
C2 N1 1.333 . S
C2 C3 1.379 . S
C2 H20 0.952 . S
C3 C2 1.379 . S
C3 C4 1.390 . S
C3 H30 0.949 . S
C4 C3 1.390 . S
C4 C5 1.357 . S
C5 C4 1.357 . S
C5 C6 1.370 . S
C5 H31 0.950 . S
C6 N1 1.307 . S
C6 C5 1.370 . S
C6 H24 0.948 . S
Zn7 N1 2.020 . S
Zn7 O16 2.039 . S
Zn7 O22 2.034 . S
Zn7 O26 2.025 . S
Zn7 O28 2.024 1_455 S
C8 O27 1.246 1_554 S
C8 O28 1.249 . S
N9 C10 1.307 . S
N9 C11 1.333 . S
N9 Zn15 2.020 . S
C10 N9 1.307 . S
C10 C14 1.370 . S
C10 H21 0.948 . S
C11 N9 1.333 . S
C11 C12 1.379 . S
C11 H19 0.952 . S
C12 C11 1.379 . S
C12 C13 1.390 . S
C12 H32 0.949 . S
C13 C12 1.390 . S
C13 C14 1.357 . S
C14 C10 1.370 . S
C14 C13 1.357 . S
C14 H33 0.950 . S
Zn15 N9 2.020 . S
Zn15 O18 2.025 . S
Zn15 O23 2.024 . S
Zn15 O25 2.039 . S
Zn15 O27 2.034 1_455 S
O16 C0 1.251 . S
O16 Zn7 2.039 . S
C17 O22 1.246 . S
C17 O23 1.249 1_554 S
O18 C0 1.254 1_556 S
O18 Zn15 2.025 . S
H19 C11 0.952 . S
H20 C2 0.952 . S
H21 C10 0.948 . S
O22 Zn7 2.034 . S
O22 C17 1.246 . S
O23 Zn15 2.024 . S
O23 C17 1.249 1_556 S
H24 C6 0.948 . S
O25 Zn15 2.039 . S
O25 C29 1.251 1_556 S
O26 Zn7 2.025 . S
O26 C29 1.254 . S
O27 C8 1.246 1_556 S
O27 Zn15 2.034 1_655 S
O28 Zn7 2.024 1_655 S
O28 C8 1.249 . S
C29 O25 1.251 1_554 S
C29 O26 1.254 . S
H30 C3 0.949 . S
H31 C5 0.950 . S
H32 C12 0.949 . S
H33 C14 0.950 . S
C34 O50 1.251 . S
C34 O52 1.254 1_554 S
N35 C36 1.333 . S
N35 C40 1.307 . S
N35 Zn41 2.020 . S
C36 N35 1.333 . S
C36 C37 1.379 . S
C36 H54 0.952 . S
C37 C36 1.379 . S
C37 C38 1.390 . S
C37 H64 0.949 . S
C38 C37 1.390 . S
C38 C39 1.357 . S
C39 C38 1.357 . S
C39 C40 1.370 . S
C39 H65 0.950 . S
C40 N35 1.307 . S
C40 C39 1.370 . S
C40 H58 0.948 . S
Zn41 N35 2.020 . S
Zn41 O50 2.039 . S
Zn41 O56 2.034 . S
Zn41 O60 2.025 . S
Zn41 O62 2.024 1_655 S
C42 O61 1.246 1_554 S
C42 O62 1.249 . S
N43 C44 1.307 . S
N43 C45 1.333 . S
N43 Zn49 2.020 . S
C44 N43 1.307 . S
C44 C48 1.370 . S
C44 H55 0.948 . S
C45 N43 1.333 . S
C45 C46 1.379 . S
C45 H53 0.952 . S
C46 C45 1.379 . S
C46 C47 1.390 . S
C46 H66 0.949 . S
C47 C46 1.390 . S
C47 C48 1.357 . S
C48 C44 1.370 . S
C48 C47 1.357 . S
C48 H67 0.950 . S
Zn49 N43 2.020 . S
Zn49 O52 2.025 . S
Zn49 O57 2.024 . S
Zn49 O59 2.039 . S
Zn49 O61 2.034 1_655 S
O50 C34 1.251 . S
O50 Zn41 2.039 . S
C51 O56 1.246 . S
C51 O57 1.249 1_554 S
O52 C34 1.254 1_556 S
O52 Zn49 2.025 . S
H53 C45 0.952 . S
H54 C36 0.952 . S
H55 C44 0.948 . S
O56 Zn41 2.034 . S
O56 C51 1.246 . S
O57 Zn49 2.024 . S
O57 C51 1.249 1_556 S
H58 C40 0.948 . S
O59 Zn49 2.039 . S
O59 C63 1.225 1_556 S
O60 Zn41 2.025 . S
O60 C63 1.281 . S
O61 C42 1.246 1_556 S
O61 Zn49 2.034 1_455 S
O62 Zn41 2.024 1_455 S
O62 C42 1.249 . S
C63 O59 1.225 1_554 S
C63 O60 1.281 . S
H64 C37 0.949 . S
H65 C39 0.950 . S
H66 C46 0.949 . S
H67 C48 0.950 . S
C68 O84 1.251 . S
C68 O86 1.254 . S
N69 C70 1.333 . S
N69 C74 1.307 . S
N69 Zn75 2.020 . S
C70 N69 1.333 . S
C70 C71 1.379 . S
C70 H88 0.952 . S
C71 C70 1.379 . S
C71 C72 1.390 . S
C71 H98 0.949 . S
C72 C71 1.390 . S
C72 C73 1.357 . S
C73 C72 1.357 . S
C73 C74 1.370 . S
C73 H99 0.950 . S
C74 N69 1.307 . S
C74 C73 1.370 . S
C74 H92 0.948 . S
Zn75 N69 2.020 . S
Zn75 O84 2.039 . S
Zn75 O90 2.034 . S
Zn75 O94 2.025 . S
Zn75 O96 2.024 1_455 S
C76 O95 1.246 . S
C76 O96 1.249 . S
N77 C78 1.307 . S
N77 C79 1.333 . S
N77 Zn83 2.020 . S
C78 N77 1.307 . S
C78 C82 1.370 . S
C78 H89 0.948 . S
C79 N77 1.333 . S
C79 C80 1.379 . S
C79 H87 0.952 . S
C80 C79 1.379 . S
C80 C81 1.390 . S
C80 H100 0.949 . S
C81 C80 1.390 . S
C81 C82 1.357 . S
C82 C78 1.370 . S
C82 C81 1.357 . S
C82 H101 0.950 . S
Zn83 N77 2.020 . S
Zn83 O86 2.025 . S
Zn83 O91 2.024 . S
Zn83 O93 2.039 . S
Zn83 O95 2.034 1_455 S
O84 C68 1.251 . S
O84 Zn75 2.039 . S
C85 O90 1.246 . S
C85 O91 1.249 . S
O86 C68 1.254 . S
O86 Zn83 2.025 . S
H87 C79 0.952 . S
H88 C70 0.952 . S
H89 C78 0.948 . S
O90 Zn75 2.034 . S
O90 C85 1.246 . S
O91 Zn83 2.024 . S
O91 C85 1.249 . S
H92 C74 0.948 . S
O93 Zn83 2.039 . S
O93 C97 1.251 . S
O94 Zn75 2.025 . S
O94 C97 1.254 . S
O95 C76 1.246 . S
O95 Zn83 2.034 1_655 S
O96 Zn75 2.024 1_655 S
O96 C76 1.249 . S
C97 O93 1.251 . S
C97 O94 1.254 . S
H98 C71 0.949 . S
H99 C73 0.950 . S
H100 C80 0.949 . S
H101 C82 0.950 . S
C102 O118 1.251 . S
C102 O120 1.254 . S
N103 C104 1.333 . S
N103 C108 1.307 . S
N103 Zn109 2.020 . S
C104 N103 1.333 . S
C104 C105 1.379 . S
C104 H122 0.952 . S
C105 C104 1.379 . S
C105 C106 1.390 . S
C105 H132 0.949 . S
C106 C105 1.390 . S
C106 C107 1.357 . S
C107 C106 1.357 . S
C107 C108 1.370 . S
C107 H133 0.950 . S
C108 N103 1.307 . S
C108 C107 1.370 . S
C108 H126 0.948 . S
Zn109 N103 2.020 . S
Zn109 O118 2.039 . S
Zn109 O124 2.034 1_655 S
Zn109 O128 2.025 . S
Zn109 O130 2.024 . S
C110 O129 1.246 . S
C110 O130 1.249 . S
N111 C112 1.307 . S
N111 C113 1.333 . S
N111 Zn117 2.020 . S
C112 N111 1.307 . S
C112 C116 1.370 . S
C112 H123 0.948 . S
C113 N111 1.333 . S
C113 C114 1.379 . S
C113 H121 0.952 . S
C114 C113 1.379 . S
C114 C115 1.390 . S
C114 H134 0.949 . S
C115 C114 1.390 . S
C115 C116 1.357 . S
C116 C112 1.370 . S
C116 C115 1.357 . S
C116 H135 0.950 . S
Zn117 N111 2.020 . S
Zn117 O120 2.025 . S
Zn117 O125 2.024 1_655 S
Zn117 O127 2.039 . S
Zn117 O129 2.034 . S
O118 C102 1.251 . S
O118 Zn109 2.039 . S
C119 O124 1.246 . S
C119 O125 1.249 . S
O120 C102 1.254 . S
O120 Zn117 2.025 . S
H121 C113 0.952 . S
H122 C104 0.952 . S
H123 C112 0.948 . S
O124 Zn109 2.034 1_455 S
O124 C119 1.246 . S
O125 Zn117 2.024 1_455 S
O125 C119 1.249 . S
H126 C108 0.948 . S
O127 Zn117 2.039 . S
O127 C131 1.251 . S
O128 Zn109 2.025 . S
O128 C131 1.254 . S
O129 C110 1.246 . S
O129 Zn117 2.034 . S
O130 Zn109 2.024 . S
O130 C110 1.249 . S
C131 O127 1.251 . S
C131 O128 1.254 . S
H132 C105 0.949 . S
H133 C107 0.950 . S
H134 C114 0.949 . S
H135 C116 0.950 . S
C136 O152 1.251 . S
C136 O154 1.254 1_554 S
N137 C138 1.333 . S
N137 C142 1.307 . S
N137 Zn143 2.020 . S
C138 N137 1.333 . S
C138 C139 1.379 . S
C138 H156 0.952 . S
C139 C138 1.379 . S
C139 C140 1.390 . S
C139 H166 0.949 . S
C140 C139 1.390 . S
C140 C141 1.357 . S
C141 C140 1.357 . S
C141 C142 1.370 . S
C141 H167 0.950 . S
C142 N137 1.307 . S
C142 C141 1.370 . S
C142 H160 0.948 . S
Zn143 N137 2.020 . S
Zn143 O152 2.039 . S
Zn143 O158 2.034 . S
Zn143 O162 2.025 . S
Zn143 O164 2.024 . S
C144 O163 1.246 1_554 S
C144 O164 1.249 . S
N145 C146 1.307 . S
N145 C147 1.333 . S
N145 Zn151 2.020 . S
C146 N145 1.307 . S
C146 C150 1.370 . S
C146 H157 0.948 . S
C147 N145 1.333 . S
C147 C148 1.379 . S
C147 H155 0.952 . S
C148 C147 1.379 . S
C148 C149 1.390 . S
C148 H168 0.949 . S
C149 C148 1.390 . S
C149 C150 1.357 . S
C150 C146 1.370 . S
C150 C149 1.357 . S
C150 H169 0.950 . S
Zn151 N145 2.020 . S
Zn151 O154 2.025 . S
Zn151 O159 2.024 . S
Zn151 O161 2.039 . S
Zn151 O163 2.034 . S
O152 C136 1.251 . S
O152 Zn143 2.039 . S
C153 O158 1.246 . S
C153 O159 1.249 1_554 S
O154 C136 1.254 1_556 S
O154 Zn151 2.025 . S
H155 C147 0.952 . S
H156 C138 0.952 . S
H157 C146 0.948 . S
O158 Zn143 2.034 . S
O158 C153 1.246 . S
O159 Zn151 2.024 . S
O159 C153 1.249 1_556 S
H160 C142 0.948 . S
O161 Zn151 2.039 . S
O161 C165 1.251 1_556 S
O162 Zn143 2.025 . S
O162 C165 1.254 . S
O163 C144 1.246 1_556 S
O163 Zn151 2.034 . S
O164 Zn143 2.024 . S
O164 C144 1.249 . S
C165 O161 1.251 1_554 S
C165 O162 1.254 . S
H166 C139 0.949 . S
H167 C141 0.950 . S
H168 C148 0.949 . S
H169 C150 0.950 . S
C170 O186 1.251 . S
C170 O188 1.254 1_554 S
N171 C172 1.333 . S
N171 C176 1.307 . S
N171 Zn177 2.020 . S
C172 N171 1.333 . S
C172 C173 1.379 . S
C172 H190 0.952 . S
C173 C172 1.379 . S
C173 C174 1.390 . S
C173 H200 0.949 . S
C174 C173 1.390 . S
C174 C175 1.357 . S
C175 C174 1.357 . S
C175 C176 1.370 . S
C175 H201 0.950 . S
C176 N171 1.307 . S
C176 C175 1.370 . S
C176 H194 0.948 . S
Zn177 N171 2.020 . S
Zn177 O186 2.039 . S
Zn177 O192 2.034 . S
Zn177 O196 2.025 . S
Zn177 O198 2.024 . S
C178 O197 1.246 1_554 S
C178 O198 1.249 . S
N179 C180 1.307 . S
N179 C181 1.333 . S
N179 Zn185 2.020 . S
C180 N179 1.307 . S
C180 C184 1.370 . S
C180 H191 0.948 . S
C181 N179 1.333 . S
C181 C182 1.379 . S
C181 H189 0.952 . S
C182 C181 1.379 . S
C182 C183 1.390 . S
C182 H202 0.949 . S
C183 C182 1.390 . S
C183 C184 1.357 . S
C184 C180 1.370 . S
C184 C183 1.357 . S
C184 H203 0.950 . S
Zn185 N179 2.020 . S
Zn185 O188 2.025 . S
Zn185 O193 2.024 . S
Zn185 O195 2.039 . S
Zn185 O197 2.034 . S
O186 C170 1.251 . S
O186 Zn177 2.039 . S
C187 O192 1.246 . S
C187 O193 1.249 1_554 S
O188 C170 1.254 1_556 S
O188 Zn185 2.025 . S
H189 C181 0.952 . S
H190 C172 0.952 . S
H191 C180 0.948 . S
O192 Zn177 2.034 . S
O192 C187 1.246 . S
O193 Zn185 2.024 . S
O193 C187 1.249 1_556 S
H194 C176 0.948 . S
O195 Zn185 2.039 . S
O195 C199 1.225 1_556 S
O196 Zn177 2.025 . S
O196 C199 1.281 . S
O197 C178 1.246 1_556 S
O197 Zn185 2.034 . S
O198 Zn177 2.024 . S
O198 C178 1.249 . S
C199 O195 1.225 1_554 S
C199 O196 1.281 . S
H200 C173 0.949 . S
H201 C175 0.950 . S
H202 C182 0.949 . S
H203 C184 0.950 . S
C204 O220 1.251 . S
C204 O222 1.254 . S
N205 C206 1.333 . S
N205 C210 1.307 . S
N205 Zn211 2.020 . S
C206 N205 1.333 . S
C206 C207 1.379 . S
C206 H224 0.952 . S
C207 C206 1.379 . S
C207 C208 1.390 . S
C207 H234 0.949 . S
C208 C207 1.390 . S
C208 C209 1.357 . S
C209 C208 1.357 . S
C209 C210 1.370 . S
C209 H235 0.950 . S
C210 N205 1.307 . S
C210 C209 1.370 . S
C210 H228 0.948 . S
Zn211 N205 2.020 . S
Zn211 O220 2.039 . S
Zn211 O226 2.034 . S
Zn211 O230 2.025 . S
Zn211 O232 2.024 . S
C212 O231 1.246 . S
C212 O232 1.249 . S
N213 C214 1.307 . S
N213 C215 1.333 . S
N213 Zn219 2.020 . S
C214 N213 1.307 . S
C214 C218 1.370 . S
C214 H225 0.948 . S
C215 N213 1.333 . S
C215 C216 1.379 . S
C215 H223 0.952 . S
C216 C215 1.379 . S
C216 C217 1.390 . S
C216 H236 0.949 . S
C217 C216 1.390 . S
C217 C218 1.357 . S
C218 C214 1.370 . S
C218 C217 1.357 . S
C218 H237 0.950 . S
Zn219 N213 2.020 . S
Zn219 O222 2.025 . S
Zn219 O227 2.024 . S
Zn219 O229 2.039 . S
Zn219 O231 2.034 . S
O220 C204 1.251 . S
O220 Zn211 2.039 . S
C221 O226 1.246 . S
C221 O227 1.249 . S
O222 C204 1.254 . S
O222 Zn219 2.025 . S
H223 C215 0.952 . S
H224 C206 0.952 . S
H225 C214 0.948 . S
O226 Zn211 2.034 . S
O226 C221 1.246 . S
O227 Zn219 2.024 . S
O227 C221 1.249 . S
H228 C210 0.948 . S
O229 Zn219 2.039 . S
O229 C233 1.251 . S
O230 Zn211 2.025 . S
O230 C233 1.254 . S
O231 C212 1.246 . S
O231 Zn219 2.034 . S
O232 Zn211 2.024 . S
O232 C212 1.249 . S
C233 O229 1.251 . S
C233 O230 1.254 . S
H234 C207 0.949 . S
H235 C209 0.950 . S
H236 C216 0.949 . S
H237 C218 0.950 . S
C238 O254 1.251 . S
C238 O256 1.254 . S
N239 C240 1.333 . S
N239 C244 1.307 . S
N239 Zn245 2.020 . S
C240 N239 1.333 . S
C240 C241 1.379 . S
C240 H258 0.952 . S
C241 C240 1.379 . S
C241 C242 1.390 . S
C241 H268 0.949 . S
C242 C241 1.390 . S
C242 C243 1.357 . S
C243 C242 1.357 . S
C243 C244 1.370 . S
C243 H269 0.950 . S
C244 N239 1.307 . S
C244 C243 1.370 . S
C244 H262 0.948 . S
Zn245 N239 2.020 . S
Zn245 O254 2.039 . S
Zn245 O260 2.034 . S
Zn245 O264 2.025 . S
Zn245 O266 2.024 . S
C246 O265 1.246 . S
C246 O266 1.249 . S
N247 C248 1.307 . S
N247 C249 1.333 . S
N247 Zn253 2.020 . S
C248 N247 1.307 . S
C248 C252 1.370 . S
C248 H259 0.948 . S
C249 N247 1.333 . S
C249 C250 1.379 . S
C249 H257 0.952 . S
C250 C249 1.379 . S
C250 C251 1.390 . S
C250 H270 0.949 . S
C251 C250 1.390 . S
C251 C252 1.357 . S
C252 C248 1.370 . S
C252 C251 1.357 . S
C252 H271 0.950 . S
Zn253 N247 2.020 . S
Zn253 O256 2.025 . S
Zn253 O261 2.024 . S
Zn253 O263 2.039 . S
Zn253 O265 2.034 . S
O254 C238 1.251 . S
O254 Zn245 2.039 . S
C255 O260 1.246 . S
C255 O261 1.249 . S
O256 C238 1.254 . S
O256 Zn253 2.025 . S
H257 C249 0.952 . S
H258 C240 0.952 . S
H259 C248 0.948 . S
O260 Zn245 2.034 . S
O260 C255 1.246 . S
O261 Zn253 2.024 . S
O261 C255 1.249 . S
H262 C244 0.948 . S
O263 Zn253 2.039 . S
O263 C267 1.251 . S
O264 Zn245 2.025 . S
O264 C267 1.254 . S
O265 C246 1.246 . S
O265 Zn253 2.034 . S
O266 Zn245 2.024 . S
O266 C246 1.249 . S
C267 O263 1.251 . S
C267 O264 1.254 . S
H268 C241 0.949 . S
H269 C243 0.950 . S
H270 C250 0.949 . S
H271 C252 0.950 . S
H272 C280 0.929 . S
H273 C282 0.930 . S
H274 C284 0.930 . S
H275 C287 0.929 . S
H276 C290 0.927 1_556 S
H277 C292 0.960 . S
H278 C292 0.960 . S
H279 C292 0.991 . S
C280 H272 0.929 . S
C280 C281 1.377 . S
C280 C282 1.384 . S
C281 C280 1.377 . S
C281 C287 1.390 1_554 S
C282 H273 0.930 . S
C282 C280 1.384 . S
C282 C283 1.372 . S
C283 C282 1.372 . S
C283 C284 1.400 1_554 S
C283 C288 1.490 . S
C284 H274 0.930 . S
C284 C283 1.400 1_556 S
C284 C287 1.386 . S
H285 C301 0.930 . S
H286 C302 0.931 . S
C287 H275 0.929 . S
C287 C281 1.390 1_556 S
C287 C284 1.386 . S
C288 C283 1.490 . S
C288 C290 1.399 . S
C288 C291 1.403 . S
H289 C295 0.930 . S
C290 H276 0.927 1_554 S
C290 C288 1.399 . S
C290 C293 1.402 1_554 S
C291 C288 1.403 . S
C291 C292 1.524 . S
C291 C295 1.400 . S
C292 H277 0.960 . S
C292 H278 0.960 . S
C292 H279 0.991 . S
C292 C291 1.524 . S
C293 C290 1.402 1_556 S
C293 C294 1.390 1_556 S
C293 C297 1.498 . S
C294 C293 1.390 1_554 S
C294 C295 1.385 . S
C294 C296 1.478 . S
C295 H289 0.930 . S
C295 C291 1.400 . S
C295 C294 1.385 . S
C296 C294 1.478 . S
C296 C298 1.381 . S
C296 C302 1.383 1_554 S
C297 C293 1.498 . S
C297 H303 0.959 . S
C297 H304 0.961 . S
C297 H305 0.960 1_556 S
C298 C296 1.381 . S
C298 C299 1.394 . S
C298 H306 0.930 . S
C299 C298 1.394 . S
C299 C300 1.383 . S
C299 H307 0.929 . S
C300 C299 1.383 . S
C300 C301 1.377 1_554 S
C301 H285 0.930 . S
C301 C300 1.377 1_556 S
C301 C302 1.379 . S
C302 H286 0.931 . S
C302 C296 1.383 1_556 S
C302 C301 1.379 . S
H303 C297 0.959 . S
H304 C297 0.961 . S
H305 C297 0.960 1_554 S
H306 C298 0.930 . S
H307 C299 0.929 . S
H308 C316 0.929 . S
H309 C318 0.930 . S
H310 C320 0.930 . S
H311 C323 0.929 . S
H312 C326 0.930 . S
H313 C328 0.960 . S
H314 C328 0.960 . S
H315 C328 0.960 . S
C316 H308 0.929 . S
C316 C317 1.377 . S
C316 C318 1.384 . S
C317 C316 1.377 . S
C317 C323 1.390 1_554 S
C318 H309 0.930 . S
C318 C316 1.384 . S
C318 C319 1.372 . S
C319 C318 1.372 . S
C319 C320 1.400 1_554 S
C319 C324 1.490 . S
C320 H310 0.930 . S
C320 C319 1.400 1_556 S
C320 C323 1.386 . S
H321 C337 0.930 . S
H322 C338 0.931 . S
C323 H311 0.929 . S
C323 C317 1.390 1_556 S
C323 C320 1.386 . S
C324 C319 1.490 . S
C324 C326 1.395 1_554 S
C324 C327 1.403 . S
H325 C331 0.930 . S
C326 H312 0.930 . S
C326 C324 1.395 1_556 S
C326 C329 1.403 . S
C327 C324 1.403 . S
C327 C328 1.524 . S
C327 C331 1.400 . S
C328 H313 0.960 . S
C328 H314 0.960 . S
C328 H315 0.960 . S
C328 C327 1.524 . S
C329 C326 1.403 . S
C329 C330 1.392 1_556 S
C329 C333 1.495 . S
C330 C329 1.392 1_554 S
C330 C331 1.385 . S
C330 C332 1.478 . S
C331 H325 0.930 . S
C331 C327 1.400 . S
C331 C330 1.385 . S
C332 C330 1.478 . S
C332 C334 1.381 . S
C332 C338 1.383 1_554 S
C333 C329 1.495 . S
C333 H339 0.959 . S
C333 H340 0.961 . S
C333 H341 0.960 . S
C334 C332 1.381 . S
C334 C335 1.394 . S
C334 H342 0.930 . S
C335 C334 1.394 . S
C335 C336 1.383 . S
C335 H343 0.929 . S
C336 C335 1.383 . S
C336 C337 1.377 1_554 S
C337 H321 0.930 . S
C337 C336 1.377 1_556 S
C337 C338 1.379 . S
C338 H322 0.931 . S
C338 C332 1.383 1_556 S
C338 C337 1.379 . S
H339 C333 0.959 . S
H340 C333 0.961 . S
H341 C333 0.960 . S
H342 C334 0.930 . S
H343 C335 0.929 . S
H344 C352 0.929 . S
H345 C354 0.930 . S
H346 C356 0.930 . S
H347 C359 0.929 . S
H348 C362 0.930 . S
H349 C364 0.960 . S
H350 C364 0.960 . S
H351 C364 0.960 . S
C352 H344 0.929 . S
C352 C353 1.377 . S
C352 C354 1.384 . S
C353 C352 1.377 . S
C353 C359 1.390 . S
C354 H345 0.930 . S
C354 C352 1.384 . S
C354 C355 1.372 . S
C355 C354 1.372 . S
C355 C356 1.400 . S
C355 C360 1.490 . S
C356 H346 0.930 . S
C356 C355 1.400 . S
C356 C359 1.386 . S
H357 C373 0.930 . S
H358 C374 0.931 . S
C359 H347 0.929 . S
C359 C353 1.390 . S
C359 C356 1.386 . S
C360 C355 1.490 . S
C360 C362 1.395 . S
C360 C363 1.403 . S
H361 C367 0.930 . S
C362 H348 0.930 . S
C362 C360 1.395 . S
C362 C365 1.403 . S
C363 C360 1.403 . S
C363 C364 1.524 . S
C363 C367 1.400 . S
C364 H349 0.960 . S
C364 H350 0.960 . S
C364 H351 0.960 . S
C364 C363 1.524 . S
C365 C362 1.403 . S
C365 C366 1.392 . S
C365 C369 1.495 . S
C366 C365 1.392 . S
C366 C367 1.385 . S
C366 C368 1.478 . S
C367 H361 0.930 . S
C367 C363 1.400 . S
C367 C366 1.385 . S
C368 C366 1.478 . S
C368 C370 1.381 . S
C368 C374 1.383 . S
C369 C365 1.495 . S
C369 H375 0.959 . S
C369 H376 0.961 . S
C369 H377 0.960 . S
C370 C368 1.381 . S
C370 C371 1.394 . S
C370 H378 0.930 . S
C371 C370 1.394 . S
C371 C372 1.383 . S
C371 H379 0.929 . S
C372 C371 1.383 . S
C372 C373 1.377 . S
C373 H357 0.930 . S
C373 C372 1.377 . S
C373 C374 1.379 . S
C374 H358 0.931 . S
C374 C368 1.383 . S
C374 C373 1.379 . S
H375 C369 0.959 . S
H376 C369 0.961 . S
H377 C369 0.960 . S
H378 C370 0.930 . S
H379 C371 0.929 . S
H380 C388 0.929 . S
H381 C390 0.930 . S
H382 C392 0.930 . S
H383 C395 0.929 . S
H384 C398 0.930 . S
H385 C400 0.960 . S
H386 C400 0.960 . S
H387 C400 0.960 . S
C388 H380 0.929 . S
C388 C389 1.377 . S
C388 C390 1.384 . S
C389 C388 1.377 . S
C389 C395 1.390 . S
C390 H381 0.930 . S
C390 C388 1.384 . S
C390 C391 1.372 . S
C391 C390 1.372 . S
C391 C392 1.400 . S
C391 C396 1.490 . S
C392 H382 0.930 . S
C392 C391 1.400 . S
C392 C395 1.386 . S
H393 C409 0.930 . S
H394 C410 0.931 . S
C395 H383 0.929 . S
C395 C389 1.390 . S
C395 C392 1.386 . S
C396 C391 1.490 . S
C396 C398 1.395 . S
C396 C399 1.403 . S
H397 C403 0.930 . S
C398 H384 0.930 . S
C398 C396 1.395 . S
C398 C401 1.403 . S
C399 C396 1.403 . S
C399 C400 1.524 . S
C399 C403 1.400 . S
C400 H385 0.960 . S
C400 H386 0.960 . S
C400 H387 0.960 . S
C400 C399 1.524 . S
C401 C398 1.403 . S
C401 C402 1.392 . S
C401 C405 1.495 . S
C402 C401 1.392 . S
C402 C403 1.385 . S
C402 C404 1.478 . S
C403 H397 0.930 . S
C403 C399 1.400 . S
C403 C402 1.385 . S
C404 C402 1.478 . S
C404 C406 1.381 . S
C404 C410 1.383 . S
C405 C401 1.495 . S
C405 H411 0.959 . S
C405 H412 0.961 . S
C405 H413 0.960 . S
C406 C404 1.381 . S
C406 C407 1.394 . S
C406 H414 0.930 . S
C407 C406 1.394 . S
C407 C408 1.383 . S
C407 H415 0.929 . S
C408 C407 1.383 . S
C408 C409 1.377 . S
C409 H393 0.930 . S
C409 C408 1.377 . S
C409 C410 1.379 . S
C410 H394 0.931 . S
C410 C404 1.383 . S
C410 C409 1.379 . S
H411 C405 0.959 . S
H412 C405 0.961 . S
H413 C405 0.960 . S
H414 C406 0.930 . S
H415 C407 0.929 . S
H416 C424 0.929 . S
H417 C426 0.930 . S
H418 C428 0.930 . S
H419 C431 0.929 . S
H420 C434 0.930 1_655 S
H421 C436 0.960 1_455 S
H422 C436 0.960 . S
H423 C436 0.960 1_554 S
C424 H416 0.929 . S
C424 C425 1.377 1_556 S
C424 C426 1.384 . S
C425 C424 1.377 1_554 S
C425 C431 1.390 . S
C426 H417 0.930 . S
C426 C424 1.384 . S
C426 C427 1.372 1_556 S
C427 C426 1.372 1_554 S
C427 C428 1.400 . S
C427 C432 1.490 . S
C428 H418 0.930 . S
C428 C427 1.400 . S
C428 C431 1.386 . S
H429 C445 0.930 . S
H430 C446 0.931 . S
C431 H419 0.929 . S
C431 C425 1.390 . S
C431 C428 1.386 . S
C432 C427 1.490 . S
C432 C434 1.395 1_655 S
C432 C435 1.406 1_655 S
H433 C439 0.932 . S
C434 H420 0.930 1_455 S
C434 C432 1.395 1_455 S
C434 C437 1.403 . S
C435 C432 1.406 1_455 S
C435 C436 1.520 1_454 S
C435 C439 1.401 . S
C436 H421 0.960 1_655 S
C436 H422 0.960 . S
C436 H423 0.960 1_556 S
C436 C435 1.520 1_656 S
C437 C434 1.403 . S
C437 C438 1.392 . S
C437 C441 1.495 . S
C438 C437 1.392 . S
C438 C439 1.385 . S
C438 C440 1.478 . S
C439 H433 0.932 . S
C439 C435 1.401 . S
C439 C438 1.385 . S
C440 C438 1.478 . S
C440 C442 1.381 1_554 S
C440 C446 1.383 . S
C441 C437 1.495 . S
C441 H447 0.959 . S
C441 H448 0.961 . S
C441 H449 0.960 1_554 S
C442 C440 1.381 1_556 S
C442 C443 1.394 . S
C442 H450 0.930 . S
C443 C442 1.394 . S
C443 C444 1.383 1_556 S
C443 H451 0.929 . S
C444 C443 1.383 1_554 S
C444 C445 1.377 . S
C445 H429 0.930 . S
C445 C444 1.377 . S
C445 C446 1.379 . S
C446 H430 0.931 . S
C446 C440 1.383 . S
C446 C445 1.379 . S
H447 C441 0.959 . S
H448 C441 0.961 . S
H449 C441 0.960 1_556 S
H450 C442 0.930 . S
H451 C443 0.929 . S
H452 C460 0.929 . S
H453 C462 0.930 . S
H454 C464 0.930 . S
H455 C467 0.929 . S
H456 C470 0.930 1_455 S
H457 C472 0.960 1_655 S
H458 C472 0.960 1_556 S
H459 C472 0.960 . S
C460 H452 0.929 . S
C460 C461 1.377 1_556 S
C460 C462 1.384 . S
C461 C460 1.377 1_554 S
C461 C467 1.390 . S
C462 H453 0.930 . S
C462 C460 1.384 . S
C462 C463 1.372 1_556 S
C463 C462 1.372 1_554 S
C463 C464 1.400 . S
C463 C468 1.490 . S
C464 H454 0.930 . S
C464 C463 1.400 . S
C464 C467 1.386 . S
H465 C481 0.930 . S
H466 C482 0.931 . S
C467 H455 0.929 . S
C467 C461 1.390 . S
C467 C464 1.386 . S
C468 C463 1.490 . S
C468 C470 1.395 1_454 S
C468 C471 1.403 1_455 S
H469 C475 0.930 . S
C470 H456 0.930 1_655 S
C470 C468 1.395 1_656 S
C470 C473 1.403 . S
C471 C468 1.403 1_655 S
C471 C472 1.524 1_655 S
C471 C475 1.400 . S
C472 H457 0.960 1_455 S
C472 H458 0.960 1_554 S
C472 H459 0.960 . S
C472 C471 1.524 1_455 S
C473 C470 1.403 . S
C473 C474 1.383 1_556 S
C473 C477 1.495 . S
C474 C473 1.383 1_554 S
C474 C475 1.395 . S
C474 C476 1.479 . S
C475 H469 0.930 . S
C475 C471 1.400 . S
C475 C474 1.395 . S
C476 C474 1.479 . S
C476 C478 1.381 1_554 S
C476 C482 1.383 . S
C477 C473 1.495 . S
C477 H483 0.959 . S
C477 H484 0.961 1_556 S
C477 H485 0.960 . S
C478 C476 1.381 1_556 S
C478 C479 1.394 . S
C478 H486 0.930 . S
C479 C478 1.394 . S
C479 C480 1.383 1_556 S
C479 H487 0.929 . S
C480 C479 1.383 1_554 S
C480 C481 1.377 . S
C481 H465 0.930 . S
C481 C480 1.377 . S
C481 C482 1.379 . S
C482 H466 0.931 . S
C482 C476 1.383 . S
C482 C481 1.379 . S
H483 C477 0.959 . S
H484 C477 0.961 1_554 S
H485 C477 0.960 . S
H486 C478 0.930 . S
H487 C479 0.929 . S
H488 C496 0.929 . S
H489 C498 0.930 . S
H490 C500 0.930 . S
H491 C503 0.929 . S
H492 C506 0.930 . S
H493 C508 0.960 . S
H494 C508 0.960 . S
H495 C508 0.960 . S
C496 H488 0.929 . S
C496 C497 1.377 . S
C496 C498 1.384 . S
C497 C496 1.377 . S
C497 C503 1.390 . S
C498 H489 0.930 . S
C498 C496 1.384 . S
C498 C499 1.372 . S
C499 C498 1.372 . S
C499 C500 1.400 . S
C499 C504 1.490 . S
C500 H490 0.930 . S
C500 C499 1.400 . S
C500 C503 1.386 . S
H501 C517 0.930 . S
H502 C518 0.931 . S
C503 H491 0.929 . S
C503 C497 1.390 . S
C503 C500 1.386 . S
C504 C499 1.490 . S
C504 C506 1.395 . S
C504 C507 1.403 . S
H505 C511 0.930 1_655 S
C506 H492 0.930 . S
C506 C504 1.395 . S
C506 C509 1.403 . S
C507 C504 1.403 . S
C507 C508 1.524 . S
C507 C511 1.400 . S
C508 H493 0.960 . S
C508 H494 0.960 . S
C508 H495 0.960 . S
C508 C507 1.524 . S
C509 C506 1.403 . S
C509 C510 1.392 1_455 S
C509 C513 1.495 1_455 S
C510 C509 1.392 1_655 S
C510 C511 1.385 1_655 S
C510 C512 1.478 . S
C511 H505 0.930 1_455 S
C511 C507 1.400 . S
C511 C510 1.385 1_455 S
C512 C510 1.478 . S
C512 C514 1.381 . S
C512 C518 1.383 . S
C513 C509 1.495 1_655 S
C513 H519 0.959 1_655 S
C513 H520 0.961 . S
C513 H521 0.960 . S
C514 C512 1.381 . S
C514 C515 1.394 . S
C514 H522 0.930 . S
C515 C514 1.394 . S
C515 C516 1.383 . S
C515 H523 0.929 . S
C516 C515 1.383 . S
C516 C517 1.377 . S
C517 H501 0.930 . S
C517 C516 1.377 . S
C517 C518 1.379 . S
C518 H502 0.931 . S
C518 C512 1.383 . S
C518 C517 1.379 . S
H519 C513 0.959 1_455 S
H520 C513 0.961 . S
H521 C513 0.960 . S
H522 C514 0.930 . S
H523 C515 0.929 . S
H524 C532 0.929 . S
H525 C534 0.930 . S
H526 C536 0.930 . S
H527 C539 0.929 . S
H528 C542 0.930 . S
H529 C544 0.960 . S
H530 C544 0.960 . S
H531 C544 0.960 . S
C532 H524 0.929 . S
C532 C533 1.377 . S
C532 C534 1.384 . S
C533 C532 1.377 . S
C533 C539 1.390 . S
C534 H525 0.930 . S
C534 C532 1.384 . S
C534 C535 1.372 . S
C535 C534 1.372 . S
C535 C536 1.400 . S
C535 C540 1.490 . S
C536 H526 0.930 . S
C536 C535 1.400 . S
C536 C539 1.386 . S
H537 C553 0.930 . S
H538 C554 0.931 . S
C539 H527 0.929 . S
C539 C533 1.390 . S
C539 C536 1.386 . S
C540 C535 1.490 . S
C540 C542 1.395 . S
C540 C543 1.403 . S
H541 C547 0.930 1_455 S
C542 H528 0.930 . S
C542 C540 1.395 . S
C542 C545 1.403 . S
C543 C540 1.403 . S
C543 C544 1.524 . S
C543 C547 1.400 . S
C544 H529 0.960 . S
C544 H530 0.960 . S
C544 H531 0.960 . S
C544 C543 1.524 . S
C545 C542 1.403 . S
C545 C546 1.392 1_655 S
C545 C549 1.495 1_655 S
C546 C545 1.392 1_455 S
C546 C547 1.385 1_455 S
C546 C548 1.478 . S
C547 H541 0.930 1_655 S
C547 C543 1.400 . S
C547 C546 1.385 1_655 S
C548 C546 1.478 . S
C548 C550 1.381 . S
C548 C554 1.383 . S
C549 C545 1.495 1_455 S
C549 H555 0.959 1_455 S
C549 H556 0.961 . S
C549 H557 0.960 . S
C550 C548 1.381 . S
C550 C551 1.394 . S
C550 H558 0.930 . S
C551 C550 1.394 . S
C551 C552 1.383 . S
C551 H559 0.929 . S
C552 C551 1.383 . S
C552 C553 1.377 . S
C553 H537 0.930 . S
C553 C552 1.377 . S
C553 C554 1.379 . S
C554 H538 0.931 . S
C554 C548 1.383 . S
C554 C553 1.379 . S
H555 C549 0.959 1_655 S
H556 C549 0.961 . S
H557 C549 0.960 . S
H558 C550 0.930 . S
H559 C551 0.929 . S
H560 C568 0.929 . S
H561 C570 0.930 . S
H562 C572 0.930 . S
H563 C575 0.929 . S
H564 C578 0.930 . S
H565 C580 0.960 . S
H566 C580 0.960 . S
H567 C580 0.960 . S
C568 H560 0.929 . S
C568 C569 1.377 1_556 S
C568 C570 1.384 . S
C569 C568 1.377 1_554 S
C569 C575 1.390 1_655 S
C570 H561 0.930 . S
C570 C568 1.384 . S
C570 C571 1.372 1_556 S
C571 C570 1.372 1_554 S
C571 C572 1.400 1_655 S
C571 C576 1.490 . S
C572 H562 0.930 . S
C572 C571 1.400 1_455 S
C572 C575 1.386 . S
H573 C589 0.930 . S
H574 C590 0.931 . S
C575 H563 0.929 . S
C575 C569 1.390 1_455 S
C575 C572 1.386 . S
C576 C571 1.490 . S
C576 C578 1.395 1_654 S
C576 C579 1.403 . S
H577 C583 0.930 . S
C578 H564 0.930 . S
C578 C576 1.395 1_456 S
C578 C581 1.403 . S
C579 C576 1.403 . S
C579 C580 1.524 . S
C579 C583 1.400 . S
C580 H565 0.960 . S
C580 H566 0.960 . S
C580 H567 0.960 . S
C580 C579 1.524 . S
C581 C578 1.403 . S
C581 C582 1.389 . S
C581 C585 1.495 . S
C582 C581 1.389 . S
C582 C583 1.388 1_456 S
C582 C584 1.477 . S
C583 H577 0.930 . S
C583 C579 1.400 . S
C583 C582 1.388 1_654 S
C584 C582 1.477 . S
C584 C586 1.383 1_455 S
C584 C590 1.380 1_556 S
C585 C581 1.495 . S
C585 H591 0.959 . S
C585 H592 0.961 . S
C585 H593 0.960 . S
C586 C584 1.383 1_655 S
C586 C587 1.394 . S
C586 H594 0.930 . S
C587 C586 1.394 . S
C587 C588 1.383 1_656 S
C587 H595 0.929 . S
C588 C587 1.383 1_454 S
C588 C589 1.377 . S
C589 H573 0.930 . S
C589 C588 1.377 . S
C589 C590 1.379 . S
C590 H574 0.931 . S
C590 C584 1.380 1_554 S
C590 C589 1.379 . S
H591 C585 0.959 . S
H592 C585 0.961 . S
H593 C585 0.960 . S
H594 C586 0.930 . S
H595 C587 0.929 . S
H596 C604 0.929 . S
H597 C606 0.930 . S
H598 C608 0.930 . S
H599 C611 0.929 . S
H600 C614 0.930 . S
H601 C616 0.960 . S
H602 C616 0.960 . S
H603 C616 0.960 . S
C604 H596 0.929 . S
C604 C605 1.377 . S
C604 C606 1.384 . S
C605 C604 1.377 . S
C605 C611 1.390 1_655 S
C606 H597 0.930 . S
C606 C604 1.384 . S
C606 C607 1.372 . S
C607 C606 1.372 . S
C607 C608 1.400 1_655 S
C607 C612 1.490 . S
C608 H598 0.930 . S
C608 C607 1.400 1_455 S
C608 C611 1.386 . S
H609 C625 0.930 . S
H610 C626 0.931 . S
C611 H599 0.929 . S
C611 C605 1.390 1_455 S
C611 C608 1.386 . S
C612 C607 1.490 . S
C612 C614 1.395 . S
C612 C615 1.403 1_655 S
H613 C619 0.930 . S
C614 H600 0.930 . S
C614 C612 1.395 . S
C614 C617 1.403 . S
C615 C612 1.403 1_455 S
C615 C616 1.524 . S
C615 C619 1.400 . S
C616 H601 0.960 . S
C616 H602 0.960 . S
C616 H603 0.960 . S
C616 C615 1.524 . S
C617 C614 1.403 . S
C617 C618 1.392 . S
C617 C621 1.495 . S
C618 C617 1.392 . S
C618 C619 1.385 1_655 S
C618 C620 1.476 1_655 S
C619 H613 0.930 . S
C619 C615 1.400 . S
C619 C618 1.385 1_455 S
C620 C618 1.476 1_455 S
C620 C622 1.372 1_455 S
C620 C626 1.394 . S
C621 C617 1.495 . S
C621 H627 0.959 . S
C621 H628 0.961 . S
C621 H629 0.960 . S
C622 C620 1.372 1_655 S
C622 C623 1.394 . S
C622 H630 0.930 . S
C623 C622 1.394 . S
C623 C624 1.383 1_655 S
C623 H631 0.929 . S
C624 C623 1.383 1_455 S
C624 C625 1.377 . S
C625 H609 0.930 . S
C625 C624 1.377 . S
C625 C626 1.379 . S
C626 H610 0.931 . S
C626 C620 1.394 . S
C626 C625 1.379 . S
H627 C621 0.959 . S
H628 C621 0.961 . S
H629 C621 0.960 . S
H630 C622 0.930 . S
H631 C623 0.929 . S
H632 C640 0.929 . S
H633 C642 0.930 . S
H634 C644 0.930 . S
H635 C647 0.929 . S
H636 C650 0.930 . S
H637 C652 0.960 . S
H638 C652 0.960 . S
H639 C652 0.960 . S
C640 H632 0.929 . S
C640 C641 1.377 . S
C640 C642 1.384 . S
C641 C640 1.377 . S
C641 C647 1.390 . S
C642 H633 0.930 . S
C642 C640 1.384 . S
C642 C643 1.372 . S
C643 C642 1.372 . S
C643 C644 1.400 . S
C643 C648 1.490 . S
C644 H634 0.930 . S
C644 C643 1.400 . S
C644 C647 1.386 . S
H645 C661 0.929 1_556 S
H646 C662 0.931 . S
C647 H635 0.929 . S
C647 C641 1.390 . S
C647 C644 1.386 . S
C648 C643 1.490 . S
C648 C650 1.395 1_554 S
C648 C651 1.403 . S
H649 C655 0.930 . S
C650 H636 0.930 . S
C650 C648 1.395 1_556 S
C650 C653 1.403 1_565 S
C651 C648 1.403 . S
C651 C652 1.524 . S
C651 C655 1.400 1_565 S
C652 H637 0.960 . S
C652 H638 0.960 . S
C652 H639 0.960 . S
C652 C651 1.524 . S
C653 C650 1.403 1_545 S
C653 C654 1.392 1_556 S
C653 C657 1.495 . S
C654 C653 1.392 1_554 S
C654 C655 1.385 . S
C654 C656 1.478 . S
C655 H649 0.930 . S
C655 C651 1.400 1_545 S
C655 C654 1.385 . S
C656 C654 1.478 . S
C656 C658 1.381 . S
C656 C662 1.383 1_554 S
C657 C653 1.495 . S
C657 H663 0.959 . S
C657 H664 0.961 . S
C657 H665 0.960 . S
C658 C656 1.381 . S
C658 C659 1.394 . S
C658 H666 0.930 . S
C659 C658 1.394 . S
C659 C660 1.383 . S
C659 H667 0.929 . S
C660 C659 1.383 . S
C660 C661 1.379 . S
C661 H645 0.929 1_554 S
C661 C660 1.379 . S
C661 C662 1.378 1_554 S
C662 H646 0.931 . S
C662 C656 1.383 1_556 S
C662 C661 1.378 1_556 S
H663 C657 0.959 . S
H664 C657 0.961 . S
H665 C657 0.960 . S
H666 C658 0.930 . S
H667 C659 0.929 . S
H668 C676 0.929 . S
H669 C678 0.930 . S
H670 C680 0.930 . S
H671 C683 0.929 . S
H672 C686 0.930 . S
H673 C688 0.960 . S
H674 C688 0.960 . S
H675 C688 0.960 . S
C676 H668 0.929 . S
C676 C677 1.377 . S
C676 C678 1.384 . S
C677 C676 1.377 . S
C677 C683 1.390 . S
C678 H669 0.930 . S
C678 C676 1.384 . S
C678 C679 1.372 . S
C679 C678 1.372 . S
C679 C680 1.400 . S
C679 C684 1.490 . S
C680 H670 0.930 . S
C680 C679 1.400 . S
C680 C683 1.386 . S
H681 C697 0.930 . S
H682 C698 0.931 . S
C683 H671 0.929 . S
C683 C677 1.390 . S
C683 C680 1.386 . S
C684 C679 1.490 . S
C684 C686 1.395 . S
C684 C687 1.403 . S
H685 C691 0.930 . S
C686 H672 0.930 . S
C686 C684 1.395 . S
C686 C689 1.403 1_545 S
C687 C684 1.403 . S
C687 C688 1.524 . S
C687 C691 1.400 1_545 S
C688 H673 0.960 . S
C688 H674 0.960 . S
C688 H675 0.960 . S
C688 C687 1.524 . S
C689 C686 1.403 1_565 S
C689 C690 1.392 . S
C689 C693 1.495 . S
C690 C689 1.392 . S
C690 C691 1.385 . S
C690 C692 1.478 . S
C691 H685 0.930 . S
C691 C687 1.400 1_565 S
C691 C690 1.385 . S
C692 C690 1.478 . S
C692 C694 1.381 . S
C692 C698 1.383 . S
C693 C689 1.495 . S
C693 H699 0.959 . S
C693 H700 0.961 . S
C693 H701 0.960 . S
C694 C692 1.381 . S
C694 C695 1.394 . S
C694 H702 0.930 . S
C695 C694 1.394 . S
C695 C696 1.383 . S
C695 H703 0.929 . S
C696 C695 1.383 . S
C696 C697 1.377 . S
C697 H681 0.930 . S
C697 C696 1.377 . S
C697 C698 1.379 . S
C698 H682 0.931 . S
C698 C692 1.383 . S
C698 C697 1.379 . S
H699 C693 0.959 . S
H700 C693 0.961 . S
H701 C693 0.960 . S
H702 C694 0.930 . S
H703 C695 0.929 . S
H704 C712 0.929 . S
H705 C714 0.930 . S
H706 C716 0.930 . S
H707 C719 0.929 . S
H708 C722 0.930 . S
H709 C724 0.960 . S
H710 C724 0.960 . S
H711 C724 0.960 . S
C712 H704 0.929 . S
C712 C713 1.377 1_556 S
C712 C714 1.384 . S
C713 C712 1.377 1_554 S
C713 C719 1.390 . S
C714 H705 0.930 . S
C714 C712 1.384 . S
C714 C715 1.361 1_556 S
C715 C714 1.361 1_554 S
C715 C716 1.413 . S
C715 C720 1.490 . S
C716 H706 0.930 . S
C716 C715 1.413 . S
C716 C719 1.386 . S
H717 C733 0.930 . S
H718 C734 0.931 . S
C719 H707 0.929 . S
C719 C713 1.390 . S
C719 C716 1.386 . S
C720 C715 1.490 . S
C720 C722 1.395 . S
C720 C723 1.403 1_554 S
H721 C727 0.930 . S
C722 H708 0.930 . S
C722 C720 1.395 . S
C722 C725 1.403 . S
C723 C720 1.403 1_556 S
C723 C724 1.524 . S
C723 C727 1.400 . S
C724 H709 0.960 . S
C724 H710 0.960 . S
C724 H711 0.960 . S
C724 C723 1.524 . S
C725 C722 1.403 . S
C725 C726 1.392 . S
C725 C729 1.495 . S
C726 C725 1.392 . S
C726 C727 1.385 1_554 S
C726 C728 1.478 . S
C727 H721 0.930 . S
C727 C723 1.400 . S
C727 C726 1.385 1_556 S
C728 C726 1.478 . S
C728 C730 1.381 1_554 S
C728 C734 1.383 . S
C729 C725 1.495 . S
C729 H735 0.959 . S
C729 H736 0.961 . S
C729 H737 0.960 . S
C730 C728 1.381 1_556 S
C730 C731 1.394 . S
C730 H738 0.930 . S
C731 C730 1.394 . S
C731 C732 1.383 1_556 S
C731 H739 0.929 . S
C732 C731 1.383 1_554 S
C732 C733 1.377 . S
C733 H717 0.930 . S
C733 C732 1.377 . S
C733 C734 1.379 . S
C734 H718 0.931 . S
C734 C728 1.383 . S
C734 C733 1.379 . S
H735 C729 0.959 . S
H736 C729 0.961 . S
H737 C729 0.960 . S
H738 C730 0.930 . S
H739 C731 0.929 . S
H740 C748 0.929 . S
H741 C750 0.930 . S
H742 C752 0.930 . S
H743 C755 0.929 . S
H744 C758 0.930 . S
H745 C760 0.960 . S
H746 C760 0.960 1_554 S
H747 C760 0.960 . S
C748 H740 0.929 . S
C748 C749 1.377 . S
C748 C750 1.384 . S
C749 C748 1.377 . S
C749 C755 1.390 1_554 S
C750 H741 0.930 . S
C750 C748 1.384 . S
C750 C751 1.372 . S
C751 C750 1.372 . S
C751 C752 1.400 1_554 S
C751 C756 1.490 . S
C752 H742 0.930 . S
C752 C751 1.400 1_556 S
C752 C755 1.386 . S
H753 C769 0.930 . S
H754 C770 0.931 . S
C755 H743 0.929 . S
C755 C749 1.390 1_556 S
C755 C752 1.386 . S
C756 C751 1.490 . S
C756 C758 1.395 . S
C756 C759 1.403 1_554 S
H757 C763 0.930 . S
C758 H744 0.930 . S
C758 C756 1.395 . S
C758 C761 1.403 . S
C759 C756 1.403 1_556 S
C759 C760 1.524 . S
C759 C763 1.400 . S
C760 H745 0.960 . S
C760 H746 0.960 1_556 S
C760 H747 0.960 . S
C760 C759 1.524 . S
C761 C758 1.403 . S
C761 C762 1.392 . S
C761 C765 1.495 . S
C762 C761 1.392 . S
C762 C763 1.385 1_554 S
C762 C764 1.478 . S
C763 H757 0.930 . S
C763 C759 1.400 . S
C763 C762 1.385 1_556 S
C764 C762 1.478 . S
C764 C766 1.381 . S
C764 C770 1.383 1_554 S
C765 C761 1.495 . S
C765 H771 0.959 . S
C765 H772 0.961 1_554 S
C765 H773 0.960 . S
C766 C764 1.381 . S
C766 C767 1.394 . S
C766 H774 0.930 . S
C767 C766 1.394 . S
C767 C768 1.387 . S
C767 H775 0.929 . S
C768 C767 1.387 . S
C768 C769 1.374 1_554 S
C769 H753 0.930 . S
C769 C768 1.374 1_556 S
C769 C770 1.379 . S
C770 H754 0.931 . S
C770 C764 1.383 1_556 S
C770 C769 1.379 . S
H771 C765 0.959 . S
H772 C765 0.961 1_556 S
H773 C765 0.960 . S
H774 C766 0.930 . S
H775 C767 0.929 . S
H776 C784 0.929 . S
H777 C786 0.930 . S
H778 C788 0.930 . S
H779 C791 0.929 . S
H780 C794 0.930 . S
H781 C796 0.960 . S
H782 C796 0.960 . S
H783 C796 0.960 . S
C784 H776 0.929 . S
C784 C785 1.377 . S
C784 C786 1.384 . S
C785 C784 1.377 . S
C785 C791 1.390 . S
C786 H777 0.930 . S
C786 C784 1.384 . S
C786 C787 1.372 . S
C787 C786 1.372 . S
C787 C788 1.400 . S
C787 C792 1.490 . S
C788 H778 0.930 . S
C788 C787 1.400 . S
C788 C791 1.386 . S
H789 C805 0.930 . S
H790 C806 0.931 . S
C791 H779 0.929 . S
C791 C785 1.390 . S
C791 C788 1.386 . S
C792 C787 1.490 . S
C792 C794 1.395 . S
C792 C795 1.403 . S
H793 C799 0.930 . S
C794 H780 0.930 . S
C794 C792 1.395 . S
C794 C797 1.403 . S
C795 C792 1.403 . S
C795 C796 1.524 . S
C795 C799 1.400 . S
C796 H781 0.960 . S
C796 H782 0.960 . S
C796 H783 0.960 . S
C796 C795 1.524 . S
C797 C794 1.403 . S
C797 C798 1.392 . S
C797 C801 1.495 . S
C798 C797 1.392 . S
C798 C799 1.385 . S
C798 C800 1.478 . S
C799 H793 0.930 . S
C799 C795 1.400 . S
C799 C798 1.385 . S
C800 C798 1.478 . S
C800 C802 1.381 . S
C800 C806 1.383 . S
C801 C797 1.495 . S
C801 H807 0.959 . S
C801 H808 0.961 . S
C801 H809 0.960 . S
C802 C800 1.381 . S
C802 C803 1.394 . S
C802 H810 0.930 . S
C803 C802 1.394 . S
C803 C804 1.383 . S
C803 H811 0.929 . S
C804 C803 1.383 . S
C804 C805 1.377 . S
C805 H789 0.930 . S
C805 C804 1.377 . S
C805 C806 1.379 . S
C806 H790 0.931 . S
C806 C800 1.383 . S
C806 C805 1.379 . S
H807 C801 0.959 . S
H808 C801 0.961 . S
H809 C801 0.960 . S
H810 C802 0.930 . S
H811 C803 0.929 . S
H812 C820 0.929 . S
H813 C822 0.930 . S
H814 C824 0.930 . S
H815 C827 0.929 . S
H816 C830 0.930 . S
H817 C832 0.960 . S
H818 C832 0.960 . S
H819 C832 0.960 . S
C820 H812 0.929 . S
C820 C821 1.377 . S
C820 C822 1.384 . S
C821 C820 1.377 . S
C821 C827 1.390 . S
C822 H813 0.930 . S
C822 C820 1.384 . S
C822 C823 1.372 . S
C823 C822 1.372 . S
C823 C824 1.400 . S
C823 C828 1.490 . S
C824 H814 0.930 . S
C824 C823 1.400 . S
C824 C827 1.386 . S
H825 C841 0.930 . S
H826 C842 0.931 . S
C827 H815 0.929 . S
C827 C821 1.390 . S
C827 C824 1.386 . S
C828 C823 1.490 . S
C828 C830 1.395 . S
C828 C831 1.403 . S
H829 C835 0.930 . S
C830 H816 0.930 . S
C830 C828 1.395 . S
C830 C833 1.403 . S
C831 C828 1.403 . S
C831 C832 1.524 . S
C831 C835 1.400 . S
C832 H817 0.960 . S
C832 H818 0.960 . S
C832 H819 0.960 . S
C832 C831 1.524 . S
C833 C830 1.403 . S
C833 C834 1.392 . S
C833 C837 1.495 . S
C834 C833 1.392 . S
C834 C835 1.385 . S
C834 C836 1.478 . S
C835 H829 0.930 . S
C835 C831 1.400 . S
C835 C834 1.385 . S
C836 C834 1.478 . S
C836 C838 1.381 . S
C836 C842 1.383 . S
C837 C833 1.495 . S
C837 H843 0.959 . S
C837 H844 0.961 . S
C837 H845 0.960 . S
C838 C836 1.381 . S
C838 C839 1.394 . S
C838 H846 0.930 . S
C839 C838 1.394 . S
C839 C840 1.383 . S
C839 H847 0.929 . S
C840 C839 1.383 . S
C840 C841 1.377 . S
C841 H825 0.930 . S
C841 C840 1.377 . S
C841 C842 1.379 . S
C842 H826 0.931 . S
C842 C836 1.383 . S
C842 C841 1.379 . S
H843 C837 0.959 . S
H844 C837 0.961 . S
H845 C837 0.960 . S
H846 C838 0.930 . S
H847 C839 0.929 . S
H848 C856 0.929 . S
H849 C858 0.930 . S
H850 C860 0.930 . S
H851 C863 0.939 . S
H852 C866 0.930 . S
H853 C868 0.960 . S
H854 C868 0.960 . S
H855 C868 0.960 . S
C856 H848 0.929 . S
C856 C857 1.377 . S
C856 C858 1.384 . S
C857 C856 1.377 . S
C857 C863 1.377 1_455 S
C858 H849 0.930 . S
C858 C856 1.384 . S
C858 C859 1.372 . S
C859 C858 1.372 . S
C859 C860 1.400 1_455 S
C859 C864 1.490 . S
C860 H850 0.930 . S
C860 C859 1.400 1_655 S
C860 C863 1.388 . S
H861 C877 0.930 . S
H862 C878 0.931 . S
C863 H851 0.939 . S
C863 C857 1.377 1_655 S
C863 C860 1.388 . S
C864 C859 1.490 . S
C864 C866 1.395 . S
C864 C867 1.403 1_455 S
H865 C871 0.930 . S
C866 H852 0.930 . S
C866 C864 1.395 . S
C866 C869 1.403 . S
C867 C864 1.403 1_655 S
C867 C868 1.524 . S
C867 C871 1.400 . S
C868 H853 0.960 . S
C868 H854 0.960 . S
C868 H855 0.960 . S
C868 C867 1.524 . S
C869 C866 1.403 . S
C869 C870 1.392 . S
C869 C873 1.495 . S
C870 C869 1.392 . S
C870 C871 1.385 1_455 S
C870 C872 1.478 1_455 S
C871 H865 0.930 . S
C871 C867 1.400 . S
C871 C870 1.385 1_655 S
C872 C870 1.478 1_655 S
C872 C874 1.381 1_655 S
C872 C878 1.383 . S
C873 C869 1.495 . S
C873 H879 0.959 . S
C873 H880 0.961 . S
C873 H881 0.960 . S
C874 C872 1.381 1_455 S
C874 C875 1.394 . S
C874 H882 0.930 . S
C875 C874 1.394 . S
C875 C876 1.383 1_455 S
C875 H883 0.929 . S
C876 C875 1.383 1_655 S
C876 C877 1.377 . S
C877 H861 0.930 . S
C877 C876 1.377 . S
C877 C878 1.379 . S
C878 H862 0.931 . S
C878 C872 1.383 . S
C878 C877 1.379 . S
H879 C873 0.959 . S
H880 C873 0.961 . S
H881 C873 0.960 . S
H882 C874 0.930 . S
H883 C875 0.929 . S
H884 C892 0.929 . S
H885 C894 0.930 . S
H886 C896 0.930 1_455 S
H887 C899 0.929 . S
H888 C902 0.930 . S
H889 C904 0.960 . S
H890 C904 0.960 . S
H891 C904 0.960 . S
C892 H884 0.929 . S
C892 C893 1.377 . S
C892 C894 1.384 . S
C893 C892 1.377 . S
C893 C899 1.390 . S
C894 H885 0.930 . S
C894 C892 1.384 . S
C894 C895 1.372 . S
C895 C894 1.372 . S
C895 C896 1.400 . S
C895 C900 1.490 . S
C896 H886 0.930 1_655 S
C896 C895 1.400 . S
C896 C899 1.386 . S
H897 C913 0.930 . S
H898 C914 0.931 . S
C899 H887 0.929 . S
C899 C893 1.390 . S
C899 C896 1.386 . S
C900 C895 1.490 . S
C900 C902 1.395 . S
C900 C903 1.403 1_655 S
H901 C907 0.930 . S
C902 H888 0.930 . S
C902 C900 1.395 . S
C902 C905 1.403 . S
C903 C900 1.403 1_455 S
C903 C904 1.524 . S
C903 C907 1.400 . S
C904 H889 0.960 . S
C904 H890 0.960 . S
C904 H891 0.960 . S
C904 C903 1.524 . S
C905 C902 1.403 . S
C905 C906 1.386 1_655 S
C905 C909 1.495 . S
C906 C905 1.386 1_455 S
C906 C907 1.390 . S
C906 C908 1.479 . S
C907 H901 0.930 . S
C907 C903 1.400 . S
C907 C906 1.390 . S
C908 C906 1.479 . S
C908 C910 1.381 . S
C908 C914 1.383 . S
C909 C905 1.495 . S
C909 H915 0.959 . S
C909 H916 0.961 . S
C909 H917 0.960 . S
C910 C908 1.381 . S
C910 C911 1.394 . S
C910 H918 0.930 1_455 S
C911 C910 1.394 . S
C911 C912 1.383 . S
C911 H919 0.929 . S
C912 C911 1.383 . S
C912 C913 1.377 . S
C913 H897 0.930 . S
C913 C912 1.377 . S
C913 C914 1.379 . S
C914 H898 0.931 . S
C914 C908 1.383 . S
C914 C913 1.379 . S
H915 C909 0.959 . S
H916 C909 0.961 . S
H917 C909 0.960 . S
H918 C910 0.930 1_655 S
H919 C911 0.929 . S
H920 C928 0.929 . S
H921 C930 0.930 . S
H922 C932 0.930 . S
H923 C935 0.929 . S
H924 C938 0.930 . S
H925 C940 0.959 1_455 S
H926 C940 0.964 . S
H927 C940 0.957 1_455 S
C928 H920 0.929 . S
C928 C929 1.377 . S
C928 C930 1.384 . S
C929 C928 1.377 . S
C929 C935 1.390 1_655 S
C930 H921 0.930 . S
C930 C928 1.384 . S
C930 C931 1.372 . S
C931 C930 1.372 . S
C931 C932 1.400 1_655 S
C931 C936 1.490 . S
C932 H922 0.930 . S
C932 C931 1.400 1_455 S
C932 C935 1.386 . S
H933 C949 0.930 . S
H934 C950 0.931 . S
C935 H923 0.929 . S
C935 C929 1.390 1_455 S
C935 C932 1.386 . S
C936 C931 1.490 . S
C936 C938 1.395 . S
C936 C939 1.403 . S
H937 C943 0.930 . S
C938 H924 0.930 . S
C938 C936 1.395 . S
C938 C941 1.403 . S
C939 C936 1.403 . S
C939 C940 1.524 . S
C939 C943 1.400 1_655 S
C940 H925 0.959 1_655 S
C940 H926 0.964 . S
C940 H927 0.957 1_655 S
C940 C939 1.524 . S
C941 C938 1.403 . S
C941 C942 1.392 1_655 S
C941 C945 1.495 . S
C942 C941 1.392 1_455 S
C942 C943 1.385 . S
C942 C944 1.478 . S
C943 H937 0.930 . S
C943 C939 1.400 1_455 S
C943 C942 1.385 . S
C944 C942 1.478 . S
C944 C946 1.381 1_455 S
C944 C950 1.383 . S
C945 C941 1.495 . S
C945 H951 0.959 . S
C945 H952 0.961 1_655 S
C945 H953 0.960 . S
C946 C944 1.381 1_655 S
C946 C947 1.394 . S
C946 H954 0.930 . S
C947 C946 1.394 . S
C947 C948 1.383 1_655 S
C947 H955 0.929 . S
C948 C947 1.383 1_455 S
C948 C949 1.377 . S
C949 H933 0.930 . S
C949 C948 1.377 . S
C949 C950 1.379 . S
C950 H934 0.931 . S
C950 C944 1.383 . S
C950 C949 1.379 . S
H951 C945 0.959 . S
H952 C945 0.961 1_455 S
H953 C945 0.960 . S
H954 C946 0.930 . S
H955 C947 0.929 . S
H956 C964 0.929 . S
H957 C966 0.930 . S
H958 C968 0.930 . S
H959 C971 0.929 . S
H960 C974 0.930 . S
H961 C976 0.960 . S
H962 C976 0.960 . S
H963 C976 0.960 . S
C964 H956 0.929 . S
C964 C965 1.377 . S
C964 C966 1.384 . S
C965 C964 1.377 . S
C965 C971 1.390 1_655 S
C966 H957 0.930 . S
C966 C964 1.384 . S
C966 C967 1.372 . S
C967 C966 1.372 . S
C967 C968 1.400 1_655 S
C967 C972 1.490 . S
C968 H958 0.930 . S
C968 C967 1.400 1_455 S
C968 C971 1.386 . S
H969 C985 0.930 . S
H970 C986 0.931 . S
C971 H959 0.929 . S
C971 C965 1.390 1_455 S
C971 C968 1.386 . S
C972 C967 1.490 . S
C972 C974 1.395 . S
C972 C975 1.403 1_655 S
H973 C979 0.930 . S
C974 H960 0.930 . S
C974 C972 1.395 . S
C974 C977 1.403 . S
C975 C972 1.403 1_455 S
C975 C976 1.524 . S
C975 C979 1.400 . S
C976 H961 0.960 . S
C976 H962 0.960 . S
C976 H963 0.960 . S
C976 C975 1.524 . S
C977 C974 1.403 . S
C977 C978 1.392 . S
C977 C981 1.495 . S
C978 C977 1.392 . S
C978 C979 1.385 1_655 S
C978 C980 1.478 1_655 S
C979 H973 0.930 . S
C979 C975 1.400 . S
C979 C978 1.385 1_455 S
C980 C978 1.478 1_455 S
C980 C982 1.381 1_455 S
C980 C986 1.383 . S
C981 C977 1.495 . S
C981 H987 0.959 . S
C981 H988 0.961 . S
C981 H989 0.960 . S
C982 C980 1.381 1_655 S
C982 C983 1.394 . S
C982 H990 0.930 . S
C983 C982 1.394 . S
C983 C984 1.383 1_655 S
C983 H991 0.929 . S
C984 C983 1.383 1_455 S
C984 C985 1.377 . S
C985 H969 0.930 . S
C985 C984 1.377 . S
C985 C986 1.379 . S
C986 H970 0.931 . S
C986 C980 1.383 . S
C986 C985 1.379 . S
H987 C981 0.959 . S
H988 C981 0.961 . S
H989 C981 0.960 . S
H990 C982 0.930 . S
H991 C983 0.929 . S
H992 C1000 0.929 . S
H993 C1002 0.930 . S
H994 C1004 0.930 . S
H995 C1007 0.929 . S
H996 C1010 0.930 . S
H997 C1012 0.960 . S
H998 C1012 0.960 . S
H999 C1012 0.960 . S
C1000 H992 0.929 . S
C1000 C1001 1.377 . S
C1000 C1002 1.384 . S
C1001 C1000 1.377 . S
C1001 C1007 1.390 . S
C1002 H993 0.930 . S
C1002 C1000 1.384 . S
C1002 C1003 1.372 . S
C1003 C1002 1.372 . S
C1003 C1004 1.400 . S
C1003 C1008 1.490 . S
C1004 H994 0.930 . S
C1004 C1003 1.400 . S
C1004 C1007 1.386 . S
H1005 C1021 0.930 . S
H1006 C1022 0.931 . S
C1007 H995 0.929 . S
C1007 C1001 1.390 . S
C1007 C1004 1.386 . S
C1008 C1003 1.490 . S
C1008 C1010 1.395 . S
C1008 C1011 1.403 . S
H1009 C1015 0.930 . S
C1010 H996 0.930 . S
C1010 C1008 1.395 . S
C1010 C1013 1.403 . S
C1011 C1008 1.403 . S
C1011 C1012 1.524 . S
C1011 C1015 1.400 . S
C1012 H997 0.960 . S
C1012 H998 0.960 . S
C1012 H999 0.960 . S
C1012 C1011 1.524 . S
C1013 C1010 1.403 . S
C1013 C1014 1.392 . S
C1013 C1017 1.495 . S
C1014 C1013 1.392 . S
C1014 C1015 1.385 . S
C1014 C1016 1.478 . S
C1015 H1009 0.930 . S
C1015 C1011 1.400 . S
C1015 C1014 1.385 . S
C1016 C1014 1.478 . S
C1016 C1018 1.381 . S
C1016 C1022 1.383 . S
C1017 C1013 1.495 . S
C1017 H1023 0.959 . S
C1017 H1024 0.961 . S
C1017 H1025 0.960 . S
C1018 C1016 1.381 . S
C1018 C1019 1.394 . S
C1018 H1026 0.930 . S
C1019 C1018 1.394 . S
C1019 C1020 1.383 . S
C1019 H1027 0.929 . S
C1020 C1019 1.383 . S
C1020 C1021 1.377 . S
C1021 H1005 0.930 . S
C1021 C1020 1.377 . S
C1021 C1022 1.379 . S
C1022 H1006 0.931 . S
C1022 C1016 1.383 . S
C1022 C1021 1.379 . S
H1023 C1017 0.959 . S
H1024 C1017 0.961 . S
H1025 C1017 0.960 . S
H1026 C1018 0.930 . S
H1027 C1019 0.929 . S
H1028 C1036 0.929 . S
H1029 C1038 0.930 . S
H1030 C1040 0.930 . S
H1031 C1043 0.929 . S
H1032 C1046 0.930 . S
H1033 C1048 0.960 . S
H1034 C1048 0.960 . S
H1035 C1048 0.960 . S
C1036 H1028 0.929 . S
C1036 C1037 1.377 . S
C1036 C1038 1.384 . S
C1037 C1036 1.377 . S
C1037 C1043 1.390 . S
C1038 H1029 0.930 . S
C1038 C1036 1.384 . S
C1038 C1039 1.372 . S
C1039 C1038 1.372 . S
C1039 C1040 1.400 . S
C1039 C1044 1.490 . S
C1040 H1030 0.930 . S
C1040 C1039 1.400 . S
C1040 C1043 1.386 . S
H1041 C1057 0.930 . S
H1042 C1058 0.931 . S
C1043 H1031 0.929 . S
C1043 C1037 1.390 . S
C1043 C1040 1.386 . S
C1044 C1039 1.490 . S
C1044 C1046 1.395 . S
C1044 C1047 1.403 . S
H1045 C1051 0.930 . S
C1046 H1032 0.930 . S
C1046 C1044 1.395 . S
C1046 C1049 1.403 . S
C1047 C1044 1.403 . S
C1047 C1048 1.524 . S
C1047 C1051 1.400 . S
C1048 H1033 0.960 . S
C1048 H1034 0.960 . S
C1048 H1035 0.960 . S
C1048 C1047 1.524 . S
C1049 C1046 1.403 . S
C1049 C1050 1.392 . S
C1049 C1053 1.495 . S
C1050 C1049 1.392 . S
C1050 C1051 1.385 . S
C1050 C1052 1.478 . S
C1051 H1045 0.930 . S
C1051 C1047 1.400 . S
C1051 C1050 1.385 . S
C1052 C1050 1.478 . S
C1052 C1054 1.381 . S
C1052 C1058 1.383 . S
C1053 C1049 1.495 . S
C1053 H1059 0.959 . S
C1053 H1060 0.961 . S
C1053 H1061 0.960 . S
C1054 C1052 1.381 . S
C1054 C1055 1.394 . S
C1054 H1062 0.930 . S
C1055 C1054 1.394 . S
C1055 C1056 1.383 . S
C1055 H1063 0.929 . S
C1056 C1055 1.383 . S
C1056 C1057 1.377 . S
C1057 H1041 0.930 . S
C1057 C1056 1.377 . S
C1057 C1058 1.379 . S
C1058 H1042 0.931 . S
C1058 C1052 1.383 . S
C1058 C1057 1.379 . S
H1059 C1053 0.959 . S
H1060 C1053 0.961 . S
H1061 C1053 0.960 . S
H1062 C1054 0.930 . S
H1063 C1055 0.929 . S
H1064 C1072 0.929 . S
H1065 C1074 0.930 . S
H1066 C1076 0.930 . S
H1067 C1079 0.929 . S
H1068 C1082 0.930 . S
H1069 C1084 0.960 . S
H1070 C1084 0.960 . S
H1071 C1084 0.960 . S
C1072 H1064 0.929 . S
C1072 C1073 1.377 . S
C1072 C1074 1.384 . S
C1073 C1072 1.377 . S
C1073 C1079 1.390 . S
C1074 H1065 0.930 . S
C1074 C1072 1.384 . S
C1074 C1075 1.372 . S
C1075 C1074 1.372 . S
C1075 C1076 1.400 . S
C1075 C1080 1.490 . S
C1076 H1066 0.930 . S
C1076 C1075 1.400 . S
C1076 C1079 1.386 . S
H1077 C1093 0.930 . S
H1078 C1094 0.931 . S
C1079 H1067 0.929 . S
C1079 C1073 1.390 . S
C1079 C1076 1.386 . S
C1080 C1075 1.490 . S
C1080 C1082 1.395 . S
C1080 C1083 1.403 . S
H1081 C1087 0.930 . S
C1082 H1068 0.930 . S
C1082 C1080 1.395 . S
C1082 C1085 1.403 . S
C1083 C1080 1.403 . S
C1083 C1084 1.524 . S
C1083 C1087 1.400 . S
C1084 H1069 0.960 . S
C1084 H1070 0.960 . S
C1084 H1071 0.960 . S
C1084 C1083 1.524 . S
C1085 C1082 1.403 . S
C1085 C1086 1.392 . S
C1085 C1089 1.495 . S
C1086 C1085 1.392 . S
C1086 C1087 1.385 . S
C1086 C1088 1.478 . S
C1087 H1081 0.930 . S
C1087 C1083 1.400 . S
C1087 C1086 1.385 . S
C1088 C1086 1.478 . S
C1088 C1090 1.381 . S
C1088 C1094 1.383 . S
C1089 C1085 1.495 . S
C1089 H1095 0.959 . S
C1089 H1096 0.961 . S
C1089 H1097 0.960 . S
C1090 C1088 1.381 . S
C1090 C1091 1.394 . S
C1090 H1098 0.930 . S
C1091 C1090 1.394 . S
C1091 C1092 1.383 . S
C1091 H1099 0.929 . S
C1092 C1091 1.383 . S
C1092 C1093 1.377 . S
C1093 H1077 0.930 . S
C1093 C1092 1.377 . S
C1093 C1094 1.379 . S
C1094 H1078 0.931 . S
C1094 C1088 1.383 . S
C1094 C1093 1.379 . S
H1095 C1089 0.959 . S
H1096 C1089 0.961 . S
H1097 C1089 0.960 . S
H1098 C1090 0.930 . S
H1099 C1091 0.929 . S
H1100 C1108 0.929 . S
H1101 C1110 0.930 . S
H1102 C1112 0.930 . S
H1103 C1115 0.929 . S
H1104 C1118 0.930 . S
H1105 C1120 0.960 . S
H1106 C1120 0.960 . S
H1107 C1120 0.960 . S
C1108 H1100 0.929 . S
C1108 C1109 1.377 . S
C1108 C1110 1.384 . S
C1109 C1108 1.377 . S
C1109 C1115 1.390 . S
C1110 H1101 0.930 . S
C1110 C1108 1.384 . S
C1110 C1111 1.372 . S
C1111 C1110 1.372 . S
C1111 C1112 1.400 . S
C1111 C1116 1.490 . S
C1112 H1102 0.930 . S
C1112 C1111 1.400 . S
C1112 C1115 1.386 . S
H1113 C1129 0.930 . S
H1114 C1130 0.931 . S
C1115 H1103 0.929 . S
C1115 C1109 1.390 . S
C1115 C1112 1.386 . S
C1116 C1111 1.490 . S
C1116 C1118 1.395 . S
C1116 C1119 1.403 . S
H1117 C1123 0.930 . S
C1118 H1104 0.930 . S
C1118 C1116 1.395 . S
C1118 C1121 1.403 . S
C1119 C1116 1.403 . S
C1119 C1120 1.524 . S
C1119 C1123 1.400 . S
C1120 H1105 0.960 . S
C1120 H1106 0.960 . S
C1120 H1107 0.960 . S
C1120 C1119 1.524 . S
C1121 C1118 1.403 . S
C1121 C1122 1.392 . S
C1121 C1125 1.495 . S
C1122 C1121 1.392 . S
C1122 C1123 1.385 . S
C1122 C1124 1.478 . S
C1123 H1117 0.930 . S
C1123 C1119 1.400 . S
C1123 C1122 1.385 . S
C1124 C1122 1.478 . S
C1124 C1126 1.381 . S
C1124 C1130 1.383 . S
C1125 C1121 1.495 . S
C1125 H1131 0.959 . S
C1125 H1132 0.961 . S
C1125 H1133 0.960 . S
C1126 C1124 1.381 . S
C1126 C1127 1.394 . S
C1126 H1134 0.930 . S
C1127 C1126 1.394 . S
C1127 C1128 1.383 . S
C1127 H1135 0.929 . S
C1128 C1127 1.383 . S
C1128 C1129 1.377 . S
C1129 H1113 0.930 . S
C1129 C1128 1.377 . S
C1129 C1130 1.379 . S
C1130 H1114 0.931 . S
C1130 C1124 1.383 . S
C1130 C1129 1.379 . S
H1131 C1125 0.959 . S
H1132 C1125 0.961 . S
H1133 C1125 0.960 . S
H1134 C1126 0.930 . S
H1135 C1127 0.929 . S
C281 C17 1.090 . S
C300 C8 1.089 . S
C317 C42 1.089 . S
C336 C51 1.086 . S
C353 C76 1.090 . S
C372 C85 1.087 . S
C389 C110 1.090 . S
C408 C119 1.089 . S
C425 C153 1.089 . S
C444 C144 1.087 . S
C461 C187 1.089 . S
C480 C178 1.088 . S
C497 C212 1.090 . S
C516 C221 1.090 . S
C533 C255 1.089 . S
C552 C246 1.084 . S
C569 C34 1.553 . S
C588 C0 1.549 . S
C605 C131 1.553 . S
C624 C68 1.553 . S
C641 C136 1.555 . S
C660 C170 1.550 . S
C677 C204 1.552 . S
C696 C267 1.552 . S
C713 C29 1.642 . S
C732 C199 1.646 . S
C749 C165 1.640 . S
C768 C63 1.625 . S
C785 C97 1.637 . S
C804 C238 1.625 . S
C821 C102 1.641 . S
C840 C233 1.649 . S
C857 C4 1.579 . S
C876 C106 1.563 . S
C893 C38 1.580 . S
C912 C72 1.574 . S
C929 C47 1.574 . S
C948 C81 1.577 . S
C965 C115 1.575 . S
C984 C13 1.564 . S
C1001 C140 1.578 . S
C1020 C242 1.567 . S
C1037 C174 1.581 . S
C1056 C208 1.577 . S
C1073 C183 1.571 . S
C1092 C217 1.565 . S
C1109 C251 1.572 . S
C1128 C149 1.571 . S
