# Generated by pormake.
# Topology ato, (4)-cn, num edge types: 1
# Building blocks:
#     Node 0, Type 0, BuildingBlock: AZAVOO_clean_sbu_0, # of connection points: 4
#     Node 1, Type 0, BuildingBlock: AZAVOO_clean_sbu_0, # of connection points: 4
#     Node 2, Type 0, BuildingBlock: AZAVOO_clean_sbu_0, # of connection points: 4
#     Node 3, Type 0, BuildingBlock: AZAVOO_clean_sbu_0, # of connection points: 4
#     Node 4, Type 0, BuildingBlock: AZAVOO_clean_sbu_0, # of connection points: 4
#     Node 5, Type 0, BuildingBlock: AZAVOO_clean_sbu_0, # of connection points: 4
#     Node 6, Type 0, BuildingBlock: AZAVOO_clean_sbu_0, # of connection points: 4
#     Node 7, Type 0, BuildingBlock: AZAVOO_clean_sbu_0, # of connection points: 4
#     Node 8, Type 0, BuildingBlock: AZAVOO_clean_sbu_0, # of connection points: 4
#     Node 9, Type 0, BuildingBlock: AZAVOO_clean_sbu_0, # of connection points: 4
#     Node 10, Type 0, BuildingBlock: AZAVOO_clean_sbu_0, # of connection points: 4
#     Node 11, Type 0, BuildingBlock: AZAVOO_clean_sbu_0, # of connection points: 4
#     Node 12, Type 0, BuildingBlock: AZAVOO_clean_sbu_0, # of connection points: 4
#     Node 13, Type 0, BuildingBlock: AZAVOO_clean_sbu_0, # of connection points: 4
#     Node 14, Type 0, BuildingBlock: AZAVOO_clean_sbu_0, # of connection points: 4
#     Node 15, Type 0, BuildingBlock: AZAVOO_clean_sbu_0, # of connection points: 4
#     Node 16, Type 0, BuildingBlock: AZAVOO_clean_sbu_0, # of connection points: 4
#     Node 17, Type 0, BuildingBlock: AZAVOO_clean_sbu_0, # of connection points: 4
#     Node 18, Type 0, BuildingBlock: AZAVOO_clean_sbu_0, # of connection points: 4
#     Node 19, Type 0, BuildingBlock: AZAVOO_clean_sbu_0, # of connection points: 4
#     Node 20, Type 0, BuildingBlock: AZAVOO_clean_sbu_0, # of connection points: 4
#     Node 21, Type 0, BuildingBlock: AZAVOO_clean_sbu_0, # of connection points: 4
#     Node 22, Type 0, BuildingBlock: AZAVOO_clean_sbu_0, # of connection points: 4
#     Node 23, Type 0, BuildingBlock: AZAVOO_clean_sbu_0, # of connection points: 4
#     Node 24, Type 0, BuildingBlock: AZAVOO_clean_sbu_0, # of connection points: 4
#     Node 25, Type 0, BuildingBlock: AZAVOO_clean_sbu_0, # of connection points: 4
#     Node 26, Type 0, BuildingBlock: AZAVOO_clean_sbu_0, # of connection points: 4
#     Node 27, Type 0, BuildingBlock: AZAVOO_clean_sbu_0, # of connection points: 4
#     Node 28, Type 0, BuildingBlock: AZAVOO_clean_sbu_0, # of connection points: 4
#     Node 29, Type 0, BuildingBlock: AZAVOO_clean_sbu_0, # of connection points: 4
#     Node 30, Type 0, BuildingBlock: AZAVOO_clean_sbu_0, # of connection points: 4
#     Node 31, Type 0, BuildingBlock: AZAVOO_clean_sbu_0, # of connection points: 4
#     Node 32, Type 0, BuildingBlock: AZAVOO_clean_sbu_0, # of connection points: 4
#     Node 33, Type 0, BuildingBlock: AZAVOO_clean_sbu_0, # of connection points: 4
#     Node 34, Type 0, BuildingBlock: AZAVOO_clean_sbu_0, # of connection points: 4
#     Node 35, Type 0, BuildingBlock: AZAVOO_clean_sbu_0, # of connection points: 4
#     Edge 36, Type (0, 0), BuildingBlock: UVAHIK_clean_linker_0, # of connection points: 2
#     Edge 37, Type (0, 0), BuildingBlock: UVAHIK_clean_linker_0, # of connection points: 2
#     Edge 38, Type (0, 0), BuildingBlock: UVAHIK_clean_linker_0, # of connection points: 2
#     Edge 39, Type (0, 0), BuildingBlock: UVAHIK_clean_linker_0, # of connection points: 2
#     Edge 40, Type (0, 0), BuildingBlock: UVAHIK_clean_linker_0, # of connection points: 2
#     Edge 41, Type (0, 0), BuildingBlock: UVAHIK_clean_linker_0, # of connection points: 2
#     Edge 42, Type (0, 0), BuildingBlock: UVAHIK_clean_linker_0, # of connection points: 2
#     Edge 43, Type (0, 0), BuildingBlock: UVAHIK_clean_linker_0, # of connection points: 2
#     Edge 44, Type (0, 0), BuildingBlock: UVAHIK_clean_linker_0, # of connection points: 2
#     Edge 45, Type (0, 0), BuildingBlock: UVAHIK_clean_linker_0, # of connection points: 2
#     Edge 46, Type (0, 0), BuildingBlock: UVAHIK_clean_linker_0, # of connection points: 2
#     Edge 47, Type (0, 0), BuildingBlock: UVAHIK_clean_linker_0, # of connection points: 2
#     Edge 48, Type (0, 0), BuildingBlock: UVAHIK_clean_linker_0, # of connection points: 2
#     Edge 49, Type (0, 0), BuildingBlock: UVAHIK_clean_linker_0, # of connection points: 2
#     Edge 50, Type (0, 0), BuildingBlock: UVAHIK_clean_linker_0, # of connection points: 2
#     Edge 51, Type (0, 0), BuildingBlock: UVAHIK_clean_linker_0, # of connection points: 2
#     Edge 52, Type (0, 0), BuildingBlock: UVAHIK_clean_linker_0, # of connection points: 2
#     Edge 53, Type (0, 0), BuildingBlock: UVAHIK_clean_linker_0, # of connection points: 2
#     Edge 54, Type (0, 0), BuildingBlock: UVAHIK_clean_linker_0, # of connection points: 2
#     Edge 55, Type (0, 0), BuildingBlock: UVAHIK_clean_linker_0, # of connection points: 2
#     Edge 56, Type (0, 0), BuildingBlock: UVAHIK_clean_linker_0, # of connection points: 2
#     Edge 57, Type (0, 0), BuildingBlock: UVAHIK_clean_linker_0, # of connection points: 2
#     Edge 58, Type (0, 0), BuildingBlock: UVAHIK_clean_linker_0, # of connection points: 2
#     Edge 59, Type (0, 0), BuildingBlock: UVAHIK_clean_linker_0, # of connection points: 2
#     Edge 60, Type (0, 0), BuildingBlock: UVAHIK_clean_linker_0, # of connection points: 2
#     Edge 61, Type (0, 0), BuildingBlock: UVAHIK_clean_linker_0, # of connection points: 2
#     Edge 62, Type (0, 0), BuildingBlock: UVAHIK_clean_linker_0, # of connection points: 2
#     Edge 63, Type (0, 0), BuildingBlock: UVAHIK_clean_linker_0, # of connection points: 2
#     Edge 64, Type (0, 0), BuildingBlock: UVAHIK_clean_linker_0, # of connection points: 2
#     Edge 65, Type (0, 0), BuildingBlock: UVAHIK_clean_linker_0, # of connection points: 2
#     Edge 66, Type (0, 0), BuildingBlock: UVAHIK_clean_linker_0, # of connection points: 2
#     Edge 67, Type (0, 0), BuildingBlock: UVAHIK_clean_linker_0, # of connection points: 2
#     Edge 68, Type (0, 0), BuildingBlock: UVAHIK_clean_linker_0, # of connection points: 2
#     Edge 69, Type (0, 0), BuildingBlock: UVAHIK_clean_linker_0, # of connection points: 2
#     Edge 70, Type (0, 0), BuildingBlock: UVAHIK_clean_linker_0, # of connection points: 2
#     Edge 71, Type (0, 0), BuildingBlock: UVAHIK_clean_linker_0, # of connection points: 2
#     Edge 72, Type (0, 0), BuildingBlock: UVAHIK_clean_linker_0, # of connection points: 2
#     Edge 73, Type (0, 0), BuildingBlock: UVAHIK_clean_linker_0, # of connection points: 2
#     Edge 74, Type (0, 0), BuildingBlock: UVAHIK_clean_linker_0, # of connection points: 2
#     Edge 75, Type (0, 0), BuildingBlock: UVAHIK_clean_linker_0, # of connection points: 2
#     Edge 76, Type (0, 0), BuildingBlock: UVAHIK_clean_linker_0, # of connection points: 2
#     Edge 77, Type (0, 0), BuildingBlock: UVAHIK_clean_linker_0, # of connection points: 2
#     Edge 78, Type (0, 0), BuildingBlock: UVAHIK_clean_linker_0, # of connection points: 2
#     Edge 79, Type (0, 0), BuildingBlock: UVAHIK_clean_linker_0, # of connection points: 2
#     Edge 80, Type (0, 0), BuildingBlock: UVAHIK_clean_linker_0, # of connection points: 2
#     Edge 81, Type (0, 0), BuildingBlock: UVAHIK_clean_linker_0, # of connection points: 2
#     Edge 82, Type (0, 0), BuildingBlock: UVAHIK_clean_linker_0, # of connection points: 2
#     Edge 83, Type (0, 0), BuildingBlock: UVAHIK_clean_linker_0, # of connection points: 2
#     Edge 84, Type (0, 0), BuildingBlock: UVAHIK_clean_linker_0, # of connection points: 2
#     Edge 85, Type (0, 0), BuildingBlock: UVAHIK_clean_linker_0, # of connection points: 2
#     Edge 86, Type (0, 0), BuildingBlock: UVAHIK_clean_linker_0, # of connection points: 2
#     Edge 87, Type (0, 0), BuildingBlock: UVAHIK_clean_linker_0, # of connection points: 2
#     Edge 88, Type (0, 0), BuildingBlock: UVAHIK_clean_linker_0, # of connection points: 2
#     Edge 89, Type (0, 0), BuildingBlock: UVAHIK_clean_linker_0, # of connection points: 2
#     Edge 90, Type (0, 0), BuildingBlock: UVAHIK_clean_linker_0, # of connection points: 2
#     Edge 91, Type (0, 0), BuildingBlock: UVAHIK_clean_linker_0, # of connection points: 2
#     Edge 92, Type (0, 0), BuildingBlock: UVAHIK_clean_linker_0, # of connection points: 2
#     Edge 93, Type (0, 0), BuildingBlock: UVAHIK_clean_linker_0, # of connection points: 2
#     Edge 94, Type (0, 0), BuildingBlock: UVAHIK_clean_linker_0, # of connection points: 2
#     Edge 95, Type (0, 0), BuildingBlock: UVAHIK_clean_linker_0, # of connection points: 2
#     Edge 96, Type (0, 0), BuildingBlock: UVAHIK_clean_linker_0, # of connection points: 2
#     Edge 97, Type (0, 0), BuildingBlock: UVAHIK_clean_linker_0, # of connection points: 2
#     Edge 98, Type (0, 0), BuildingBlock: UVAHIK_clean_linker_0, # of connection points: 2
#     Edge 99, Type (0, 0), BuildingBlock: UVAHIK_clean_linker_0, # of connection points: 2
#     Edge 100, Type (0, 0), BuildingBlock: UVAHIK_clean_linker_0, # of connection points: 2
#     Edge 101, Type (0, 0), BuildingBlock: UVAHIK_clean_linker_0, # of connection points: 2
#     Edge 102, Type (0, 0), BuildingBlock: UVAHIK_clean_linker_0, # of connection points: 2
#     Edge 103, Type (0, 0), BuildingBlock: UVAHIK_clean_linker_0, # of connection points: 2
#     Edge 104, Type (0, 0), BuildingBlock: UVAHIK_clean_linker_0, # of connection points: 2
#     Edge 105, Type (0, 0), BuildingBlock: UVAHIK_clean_linker_0, # of connection points: 2
#     Edge 106, Type (0, 0), BuildingBlock: UVAHIK_clean_linker_0, # of connection points: 2
#     Edge 107, Type (0, 0), BuildingBlock: UVAHIK_clean_linker_0, # of connection points: 2
# Relax obj value: 0.066
# Max RMSD: 0.093
# Mean RMSD: 0.092
data_MOF--net-ato--node1-AZAVOO_clean_sbu_0--edge1-UVAHIK_clean_linker_0
_symmetry_space_group_name_H-M    P1
_symmetry_Int_Tables_number       1
_symmetry_cell_setting            triclinic
loop_
_symmetry_equiv_pos_as_xyz
'x, y, z'
_cell_length_a     129.31357
_cell_length_b     129.33487
_cell_length_c     31.985519
_cell_angle_alpha  90.033222
_cell_angle_beta   89.992752
_cell_angle_gamma 119.99472
loop_
_atom_site_label
_atom_site_type_symbol
_atom_site_fract_x
_atom_site_fract_y
_atom_site_fract_z
_atom_type_partial_charge
Mg0 Mg 0.25079 0.04856 0.2309 0.0
O1 O 0.27034 0.05523 0.21243 0.0
O2 O 0.27169 0.03911 0.19656 0.0
Mg3 Mg 0.25331 0.02245 0.20125 0.0
C4 C 0.27643 0.05039 0.20116 0.0
C5 C 0.24795 0.06792 0.2779 0.0
O6 O 0.2374 0.05841 0.28349 0.0
O7 O 0.2534 0.04144 0.2934 0.0
O8 O 0.25337 0.02501 0.2715 0.0
O9 O 0.24564 0.04937 0.16418 0.0
O10 O 0.2452 0.03366 0.19293 0.0
C11 C 0.25359 0.03181 0.3008 0.0
C12 C 0.24372 0.03858 0.16036 0.0
O13 O 0.2559 0.0668 0.25835 0.0
Mg14 Mg 0.95705 0.20759 0.22893 0.0
O15 O 0.95026 0.2202 0.20823 0.0
O16 O 0.96622 0.23795 0.19438 0.0
Mg17 Mg 0.98305 0.23659 0.20234 0.0
C18 C 0.95494 0.23113 0.19737 0.0
C19 C 0.93738 0.18573 0.27637 0.0
O20 O 0.94709 0.18587 0.28936 0.0
O21 O 0.96307 0.21716 0.29207 0.0
O22 O 0.97947 0.23402 0.27254 0.0
O23 O 0.95764 0.20209 0.16266 0.0
O24 O 0.97264 0.21718 0.19501 0.0
C25 C 0.97233 0.22718 0.30075 0.0
C26 C 0.96855 0.21085 0.16179 0.0
O27 O 0.93843 0.194 0.25222 0.0
Mg28 Mg 0.80164 0.74961 0.23906 0.0
O29 O 0.78906 0.73079 0.21356 0.0
O30 O 0.7728 0.73041 0.18801 0.0
Mg31 Mg 0.7748 0.74884 0.19753 0.0
C32 C 0.77884 0.72529 0.19593 0.0
C33 C 0.81973 0.74841 0.30052 0.0
O34 O 0.81871 0.75708 0.3178 0.0
O35 O 0.78975 0.74558 0.29663 0.0
O36 O 0.77417 0.74612 0.26835 0.0
O37 O 0.80972 0.75618 0.17545 0.0
O38 O 0.79422 0.75695 0.20041 0.0
C39 C 0.7796 0.74499 0.29988 0.0
C40 C 0.80152 0.75902 0.17021 0.0
O41 O 0.81332 0.74306 0.26889 0.0
Mg42 Mg 0.05327 0.24146 0.74117 0.0
O43 O 0.05817 0.25969 0.76941 0.0
O44 O 0.04159 0.25867 0.79467 0.0
Mg45 Mg 0.02599 0.23993 0.78195 0.0
C46 C 0.05281 0.26445 0.78776 0.0
C47 C 0.07393 0.24435 0.68308 0.0
O48 O 0.0649 0.23483 0.66638 0.0
O49 O 0.04531 0.24552 0.68348 0.0
O50 O 0.02879 0.24396 0.71222 0.0
O51 O 0.05498 0.23506 0.80488 0.0
O52 O 0.03825 0.23293 0.77847 0.0
C53 C 0.03559 0.24583 0.68078 0.0
C54 C 0.04376 0.23157 0.80938 0.0
O55 O 0.07194 0.24956 0.71312 0.0
Mg56 Mg 0.75976 0.80305 0.74471 0.0
O57 O 0.74174 0.79046 0.7758 0.0
O58 O 0.7417 0.77385 0.79503 0.0
Mg59 Mg 0.75959 0.77568 0.77637 0.0
C60 C 0.73659 0.78009 0.79236 0.0
C61 C 0.759 0.8237 0.69887 0.0
O62 O 0.76921 0.825 0.68568 0.0
O63 O 0.75379 0.79159 0.68538 0.0
O64 O 0.75454 0.77558 0.70792 0.0
O65 O 0.76803 0.8104 0.80753 0.0
O66 O 0.76795 0.79514 0.77624 0.0
C67 C 0.75264 0.78129 0.6792 0.0
C68 C 0.77076 0.80204 0.80815 0.0
O69 O 0.75252 0.81499 0.72283 0.0
Mg70 Mg 0.19017 0.95158 0.75114 0.0
O71 O 0.20558 0.94904 0.77356 0.0
O72 O 0.21983 0.96634 0.79983 0.0
Mg73 Mg 0.21335 0.97991 0.79578 0.0
C74 C 0.21581 0.95539 0.7904 0.0
C75 C 0.17332 0.93113 0.69246 0.0
O76 O 0.17089 0.93955 0.68258 0.0
O77 O 0.20118 0.96195 0.6938 0.0
O78 O 0.21397 0.97928 0.72473 0.0
O79 O 0.1823 0.94738 0.816 0.0
O80 O 0.19482 0.96549 0.79243 0.0
C81 C 0.20968 0.97281 0.69211 0.0
C82 C 0.18862 0.95875 0.82266 0.0
O83 O 0.18164 0.93352 0.71852 0.0
Mg84 Mg 0.75171 0.95094 0.74811 0.0
O85 O 0.7319 0.94444 0.76159 0.0
O86 O 0.73003 0.96047 0.77283 0.0
Mg87 Mg 0.74841 0.97714 0.76782 0.0
C88 C 0.72552 0.94919 0.76978 0.0
C89 C 0.75388 0.93088 0.70234 0.0
O90 O 0.76362 0.94038 0.68913 0.0
O91 O 0.75022 0.95716 0.68246 0.0
O92 O 0.74882 0.9733 0.6984 0.0
O93 O 0.75556 0.95133 0.81697 0.0
O94 O 0.75695 0.96653 0.78108 0.0
C95 C 0.74936 0.96623 0.67178 0.0
C96 C 0.75781 0.96228 0.81627 0.0
O97 O 0.7468 0.93225 0.72617 0.0
Mg98 Mg 0.0483 0.79908 0.7437 0.0
O99 O 0.05464 0.78674 0.77044 0.0
O100 O 0.03856 0.76951 0.7883 0.0
Mg101 Mg 0.02195 0.77097 0.77547 0.0
C102 C 0.04986 0.77613 0.78488 0.0
C103 C 0.0686 0.81947 0.69235 0.0
O104 O 0.05922 0.81973 0.67782 0.0
O105 O 0.04229 0.78816 0.68331 0.0
O106 O 0.02578 0.77181 0.70545 0.0
O107 O 0.04773 0.80595 0.80791 0.0
O108 O 0.0326 0.79048 0.77744 0.0
C109 C 0.03305 0.77798 0.67642 0.0
C110 C 0.03674 0.79735 0.8094 0.0
O111 O 0.06705 0.8116 0.71925 0.0
Mg112 Mg 0.20677 0.25479 0.7579 0.0
O113 O 0.21952 0.27451 0.77451 0.0
O114 O 0.23697 0.27615 0.79277 0.0
Mg115 Mg 0.23513 0.25762 0.79326 0.0
C116 C 0.23042 0.28077 0.78592 0.0
C117 C 0.18729 0.2535 0.69641 0.0
O118 O 0.1887 0.24488 0.6808 0.0
O119 O 0.21706 0.25679 0.6972 0.0
O120 O 0.23313 0.25663 0.72229 0.0
O121 O 0.20021 0.25018 0.82438 0.0
O122 O 0.21581 0.24973 0.79861 0.0
C123 C 0.22678 0.25661 0.6917 0.0
C124 C 0.20915 0.24847 0.83011 0.0
O125 O 0.1938 0.25956 0.72693 0.0
Mg126 Mg 0.95254 0.75946 0.23624 0.0
O127 O 0.94747 0.74125 0.20753 0.0
O128 O 0.96404 0.74207 0.18308 0.0
Mg129 Mg 0.97974 0.76074 0.1958 0.0
C130 C 0.9528 0.73639 0.18958 0.0
C131 C 0.93212 0.75605 0.29673 0.0
O132 O 0.94131 0.76494 0.31546 0.0
O133 O 0.96028 0.75508 0.2936 0.0
O134 O 0.97687 0.7566 0.26553 0.0
O135 O 0.95112 0.76632 0.17306 0.0
O136 O 0.96765 0.76795 0.1994 0.0
C137 C 0.96995 0.75468 0.29666 0.0
C138 C 0.96232 0.76971 0.16877 0.0
O139 O 0.93391 0.75148 0.26431 0.0
Mg140 Mg 0.24692 0.19666 0.23625 0.0
O141 O 0.26621 0.21071 0.21889 0.0
O142 O 0.26581 0.22678 0.19533 0.0
Mg143 Mg 0.2465 0.22286 0.19368 0.0
C144 C 0.27149 0.22139 0.20483 0.0
C145 C 0.24558 0.17591 0.28752 0.0
O146 O 0.23453 0.17376 0.28902 0.0
O147 O 0.24789 0.20747 0.2948 0.0
O148 O 0.24591 0.22205 0.26485 0.0
O149 O 0.24336 0.18938 0.17049 0.0
O150 O 0.24042 0.20385 0.19313 0.0
C151 C 0.24665 0.21668 0.29723 0.0
C152 C 0.2404 0.19737 0.16282 0.0
O153 O 0.25344 0.18543 0.26986 0.0
Mg154 Mg 0.80578 0.05349 0.23596 0.0
O155 O 0.79197 0.05921 0.21956 0.0
O156 O 0.77448 0.0426 0.20887 0.0
Mg157 Mg 0.77679 0.02642 0.21817 0.0
C158 C 0.78086 0.05396 0.21056 0.0
C159 C 0.82777 0.07404 0.27969 0.0
O160 O 0.82789 0.06459 0.29416 0.0
O161 O 0.79807 0.04793 0.30203 0.0
O162 O 0.78079 0.03133 0.28704 0.0
O163 O 0.80932 0.05247 0.16757 0.0
O164 O 0.79585 0.03743 0.20498 0.0
C165 C 0.78819 0.03886 0.31317 0.0
C166 C 0.80085 0.04144 0.16946 0.0
O167 O 0.81931 0.07254 0.25561 0.0
Mg168 Mg 0.91417 0.38142 0.56638 0.0
O169 O 0.9334 0.38771 0.5449 0.0
O170 O 0.93413 0.37138 0.52684 0.0
Mg171 Mg 0.91559 0.35494 0.53332 0.0
C172 C 0.93914 0.38267 0.53187 0.0
C173 C 0.91246 0.40094 0.61679 0.0
O174 O 0.90201 0.39151 0.62449 0.0
O175 O 0.91748 0.37419 0.6273 0.0
O176 O 0.91672 0.35753 0.60387 0.0
O177 O 0.90845 0.38256 0.5008 0.0
O178 O 0.90798 0.36663 0.52785 0.0
C179 C 0.91755 0.36446 0.63371 0.0
C180 C 0.90647 0.37178 0.49604 0.0
O181 O 0.91995 0.39969 0.59475 0.0
Mg182 Mg 0.62132 0.53902 0.56859 0.0
O183 O 0.61464 0.55143 0.54456 0.0
O184 O 0.63075 0.56935 0.53367 0.0
Mg185 Mg 0.64754 0.56804 0.54369 0.0
C186 C 0.61946 0.56244 0.53445 0.0
C187 C 0.6012 0.51865 0.62121 0.0
O188 O 0.61073 0.52012 0.64117 0.0
O189 O 0.62666 0.54878 0.63164 0.0
O190 O 0.6433 0.56558 0.61335 0.0
O191 O 0.62265 0.53335 0.50325 0.0
O192 O 0.63723 0.54861 0.53643 0.0
C193 C 0.63584 0.55881 0.64092 0.0
C194 C 0.63353 0.54219 0.50328 0.0
O195 O 0.60252 0.52545 0.59055 0.0
Mg196 Mg 0.46564 0.07917 0.57453 0.0
O197 O 0.45221 0.05941 0.56011 0.0
O198 O 0.43449 0.05798 0.54884 0.0
Mg199 Mg 0.43644 0.07645 0.55373 0.0
C200 C 0.44107 0.05325 0.55176 0.0
C201 C 0.48841 0.08237 0.6168 0.0
O202 O 0.48895 0.09261 0.62444 0.0
O203 O 0.45772 0.07765 0.63966 0.0
O204 O 0.44044 0.07681 0.62342 0.0
O205 O 0.46959 0.08331 0.50618 0.0
O206 O 0.45558 0.08466 0.54093 0.0
C207 C 0.44791 0.07711 0.65018 0.0
C208 C 0.46098 0.08571 0.50621 0.0
O209 O 0.47937 0.07431 0.59746 0.0
Mg210 Mg 0.71681 0.57456 0.08021 0.0
O211 O 0.72214 0.59311 0.10609 0.0
O212 O 0.70625 0.5924 0.13648 0.0
Mg213 Mg 0.69044 0.5735 0.12767 0.0
C214 C 0.71725 0.5981 0.126 0.0
C215 C 0.73643 0.57656 0.01871 0.0
O216 O 0.72717 0.5667 0.00493 0.0
O217 O 0.70766 0.57789 0.02445 0.0
O218 O 0.69174 0.5766 0.05721 0.0
O219 O 0.71974 0.56884 0.14369 0.0
O220 O 0.70255 0.56644 0.12096 0.0
C221 C 0.69785 0.57807 0.02407 0.0
C222 C 0.70859 0.56529 0.1505 0.0
O223 O 0.73491 0.58232 0.048 0.0
Mg224 Mg 0.42722 0.14161 0.08745 0.0
O225 O 0.40815 0.12746 0.10655 0.0
O226 O 0.408 0.11047 0.12051 0.0
Mg227 Mg 0.42669 0.11345 0.10895 0.0
C228 C 0.40269 0.11653 0.11783 0.0
C229 C 0.42645 0.16221 0.04043 0.0
O230 O 0.43627 0.16308 0.02503 0.0
O231 O 0.42457 0.13306 0.0227 0.0
O232 O 0.42444 0.11618 0.03983 0.0
O233 O 0.43215 0.14597 0.15533 0.0
O234 O 0.43428 0.13263 0.11904 0.0
C235 C 0.42376 0.1231 0.01291 0.0
C236 C 0.43513 0.13779 0.15413 0.0
O237 O 0.42037 0.15395 0.06647 0.0
Mg238 Mg 0.86024 0.28616 0.08274 0.0
O239 O 0.87423 0.28176 0.10783 0.0
O240 O 0.88868 0.29813 0.13866 0.0
Mg241 Mg 0.88374 0.31283 0.13518 0.0
C242 C 0.88417 0.28725 0.12727 0.0
C243 C 0.84308 0.26714 0.02064 0.0
O244 O 0.84093 0.27593 0.01426 0.0
O245 O 0.87285 0.29699 0.0293 0.0
O246 O 0.88593 0.31338 0.06429 0.0
O247 O 0.85081 0.28126 0.1449 0.0
O248 O 0.86497 0.2994 0.12686 0.0
C249 C 0.88194 0.30753 0.03025 0.0
C250 C 0.85774 0.29236 0.15462 0.0
O251 O 0.85135 0.26877 0.04587 0.0
Mg252 Mg 0.42231 0.28928 0.08832 0.0
O253 O 0.40383 0.28333 0.1165 0.0
O254 O 0.40378 0.29956 0.14 0.0
Mg255 Mg 0.42229 0.31577 0.12942 0.0
C256 C 0.39852 0.28832 0.13364 0.0
C257 C 0.42208 0.26918 0.0353 0.0
O258 O 0.43241 0.27839 0.02477 0.0
O259 O 0.41779 0.29691 0.03105 0.0
O260 O 0.41902 0.31338 0.05901 0.0
O261 O 0.42953 0.28804 0.15093 0.0
O262 O 0.43017 0.30426 0.12602 0.0
C263 C 0.41743 0.3066 0.02772 0.0
C264 C 0.43249 0.29912 0.15592 0.0
O265 O 0.41527 0.27083 0.05965 0.0
Mg266 Mg 0.7177 0.14117 0.08399 0.0
O267 O 0.72312 0.12772 0.10678 0.0
O268 O 0.70708 0.1123 0.13554 0.0
Mg269 Mg 0.69159 0.1161 0.13351 0.0
C270 C 0.71806 0.11754 0.12474 0.0
C271 C 0.73653 0.15947 0.02304 0.0
O272 O 0.72751 0.16126 0.01668 0.0
O273 O 0.70744 0.12893 0.02889 0.0
O274 O 0.69125 0.1149 0.06227 0.0
O275 O 0.72194 0.14996 0.14741 0.0
O276 O 0.70427 0.13518 0.12798 0.0
C277 C 0.6971 0.11954 0.02869 0.0
C278 C 0.71097 0.14233 0.15658 0.0
O279 O 0.73514 0.15118 0.04778 0.0
Mg280 Mg 0.86796 0.5842 0.08223 0.0
O281 O 0.88091 0.60373 0.10119 0.0
O282 O 0.89795 0.6047 0.12118 0.0
Mg283 Mg 0.89584 0.58611 0.11864 0.0
C284 C 0.89169 0.60964 0.11422 0.0
C285 C 0.84864 0.58341 0.02158 0.0
O286 O 0.84961 0.57446 0.00671 0.0
O287 O 0.87858 0.58665 0.02207 0.0
O288 O 0.89462 0.5865 0.04755 0.0
O289 O 0.86098 0.57926 0.14793 0.0
O290 O 0.87652 0.57852 0.12291 0.0
C291 C 0.88849 0.58686 0.01687 0.0
C292 C 0.86976 0.57733 0.15409 0.0
O293 O 0.85544 0.58957 0.0514 0.0
Mg294 Mg 0.62083 0.08588 0.56476 0.0
O295 O 0.61431 0.06634 0.54718 0.0
O296 O 0.63034 0.06503 0.52939 0.0
Mg297 Mg 0.64683 0.08369 0.53079 0.0
C298 C 0.61912 0.06025 0.53566 0.0
C299 C 0.60107 0.08835 0.61139 0.0
O300 O 0.6101 0.09931 0.61442 0.0
O301 O 0.62878 0.08364 0.62603 0.0
O302 O 0.64519 0.08406 0.60155 0.0
O303 O 0.61909 0.09061 0.49829 0.0
O304 O 0.63523 0.09139 0.52481 0.0
C305 C 0.63865 0.0838 0.63189 0.0
C306 C 0.62983 0.09253 0.49299 0.0
O307 O 0.60274 0.08045 0.59415 0.0
Mg308 Mg 0.91114 0.52939 0.56589 0.0
O309 O 0.9303 0.54241 0.54354 0.0
O310 O 0.93064 0.55886 0.52017 0.0
Mg311 Mg 0.91194 0.55639 0.5254 0.0
C312 C 0.93586 0.55291 0.52795 0.0
C313 C 0.9101 0.50873 0.61808 0.0
O314 O 0.89929 0.50702 0.62383 0.0
O315 O 0.91418 0.54082 0.62448 0.0
O316 O 0.91365 0.55641 0.59643 0.0
O317 O 0.90572 0.52175 0.50101 0.0
O318 O 0.9045 0.5371 0.52553 0.0
C319 C 0.91451 0.55083 0.628 0.0
C320 C 0.90333 0.53022 0.49484 0.0
O321 O 0.91752 0.51773 0.59699 0.0
Mg322 Mg 0.47664 0.38341 0.58212 0.0
O323 O 0.46311 0.3875 0.55042 0.0
O324 O 0.44757 0.37025 0.52928 0.0
Mg325 Mg 0.4509 0.35512 0.54765 0.0
C326 C 0.45289 0.3816 0.53296 0.0
C327 C 0.49491 0.4052 0.63407 0.0
O328 O 0.4954 0.39645 0.65305 0.0
O329 O 0.46472 0.37689 0.64056 0.0
O330 O 0.44975 0.35968 0.61569 0.0
O331 O 0.48475 0.38349 0.51967 0.0
O332 O 0.4701 0.36751 0.54976 0.0
C333 C 0.45469 0.36726 0.64516 0.0
C334 C 0.47705 0.37218 0.51832 0.0
O335 O 0.48742 0.40269 0.60463 0.0
Mg336 Mg 0.58447 0.71463 0.89418 0.0
O337 O 0.60432 0.72133 0.88115 0.0
O338 O 0.60594 0.70537 0.86496 0.0
Mg339 Mg 0.58736 0.68882 0.86285 0.0
C340 C 0.61061 0.71657 0.87153 0.0
C341 C 0.58108 0.73358 0.94263 0.0
O342 O 0.57051 0.72405 0.94741 0.0
O343 O 0.58549 0.70636 0.95653 0.0
O344 O 0.58558 0.6901 0.93316 0.0
O345 O 0.58082 0.71654 0.8265 0.0
O346 O 0.5797 0.70038 0.85403 0.0
C347 C 0.58521 0.69645 0.96304 0.0
C348 C 0.57895 0.7058 0.82161 0.0
O349 O 0.58915 0.73255 0.92361 0.0
Mg350 Mg 0.29228 0.8804 0.90373 0.0
O351 O 0.28564 0.89282 0.88 0.0
O352 O 0.30168 0.91045 0.86566 0.0
Mg353 Mg 0.31845 0.90897 0.87482 0.0
C354 C 0.29038 0.90368 0.86824 0.0
C355 C 0.27165 0.85652 0.93204 0.0
O356 O 0.2805 0.85446 0.92569 0.0
O357 O 0.2983 0.89063 0.96562 0.0
O358 O 0.31514 0.90691 0.94533 0.0
O359 O 0.29285 0.87404 0.83887 0.0
O360 O 0.3079 0.8895 0.86954 0.0
C361 C 0.30786 0.90043 0.9739 0.0
C362 C 0.3038 0.88271 0.83734 0.0
O363 O 0.2736 0.86711 0.92735 0.0
Mg364 Mg 0.13593 0.41613 0.90484 0.0
O365 O 0.12343 0.39663 0.88487 0.0
O366 O 0.10666 0.39542 0.86041 0.0
Mg367 Mg 0.10869 0.414 0.86059 0.0
C368 C 0.11289 0.3906 0.86981 0.0
C369 C 0.15424 0.41671 0.97041 0.0
O370 O 0.15316 0.42564 0.98475 0.0
O371 O 0.12421 0.41356 0.96199 0.0
O372 O 0.10864 0.41369 0.93199 0.0
O373 O 0.14407 0.42113 0.8407 0.0
O374 O 0.12806 0.42176 0.86117 0.0
C375 C 0.11423 0.41335 0.96441 0.0
C376 C 0.13536 0.42298 0.83185 0.0
O377 O 0.14788 0.41073 0.93952 0.0
Mg378 Mg 0.38389 0.90467 0.41861 0.0
O379 O 0.388 0.92268 0.44621 0.0
O380 O 0.37137 0.92055 0.47553 0.0
Mg381 Mg 0.35657 0.90108 0.4673 0.0
C382 C 0.38239 0.92696 0.46593 0.0
C383 C 0.40365 0.90884 0.35386 0.0
O384 O 0.39452 0.89932 0.33759 0.0
O385 O 0.374 0.90741 0.36365 0.0
O386 O 0.3573 0.9039 0.39688 0.0
O387 O 0.38768 0.89937 0.48143 0.0
O388 O 0.36989 0.89557 0.45989 0.0
C389 C 0.36352 0.90615 0.36361 0.0
C390 C 0.37645 0.89514 0.4891 0.0
O391 O 0.40197 0.91364 0.38585 0.0
Mg392 Mg 0.09074 0.46797 0.4184 0.0
O393 O 0.07154 0.45552 0.44162 0.0
O394 O 0.07029 0.43829 0.46065 0.0
Mg395 Mg 0.08845 0.43971 0.45225 0.0
C396 C 0.06558 0.44484 0.45553 0.0
C397 C 0.09327 0.4917 0.39067 0.0
O398 O 0.10414 0.49457 0.40214 0.0
O399 O 0.0866 0.45709 0.35781 0.0
O400 O 0.08629 0.44067 0.38185 0.0
O401 O 0.0971 0.47487 0.48354 0.0
O402 O 0.09681 0.45909 0.45563 0.0
C403 C 0.08558 0.44683 0.35194 0.0
C404 C 0.09875 0.46584 0.48749 0.0
O405 O 0.08515 0.48078 0.39172 0.0
Mg406 Mg 0.52286 0.61571 0.41791 0.0
O407 O 0.53772 0.61178 0.43594 0.0
O408 O 0.5535 0.62896 0.45674 0.0
Mg409 Mg 0.54823 0.64345 0.45771 0.0
C410 C 0.54849 0.61781 0.44877 0.0
C411 C 0.50311 0.5953 0.36617 0.0
O412 O 0.50049 0.60384 0.36176 0.0
O413 O 0.53306 0.62549 0.35818 0.0
O414 O 0.54702 0.64269 0.38678 0.0
O415 O 0.51614 0.61217 0.48435 0.0
O416 O 0.52936 0.62985 0.45922 0.0
C417 C 0.54178 0.63621 0.35494 0.0
C418 C 0.52338 0.62344 0.49039 0.0
O419 O 0.51251 0.59755 0.38609 0.0
Mg420 Mg 0.08791 0.61994 0.41854 0.0
O421 O 0.06835 0.61342 0.43669 0.0
O422 O 0.06687 0.62955 0.45076 0.0
Mg423 Mg 0.08513 0.64621 0.44294 0.0
C424 C 0.06222 0.61825 0.44743 0.0
C425 C 0.07818 0.59261 0.41988 0.0
O426 O 0.07589 0.59444 0.45833 0.0
O427 O 0.08534 0.62624 0.35459 0.0
O428 O 0.08441 0.64249 0.37287 0.0
O429 O 0.09298 0.62025 0.48606 0.0
O430 O 0.09374 0.6355 0.45248 0.0
C431 C 0.08444 0.63537 0.34527 0.0
C432 C 0.09523 0.6312 0.48658 0.0
O433 O 0.08278 0.60135 0.39459 0.0
Mg434 Mg 0.37933 0.45926 0.40998 0.0
O435 O 0.38638 0.4471 0.43297 0.0
O436 O 0.37051 0.42929 0.44671 0.0
Mg437 Mg 0.3535 0.43028 0.43776 0.0
C438 C 0.38179 0.43621 0.44426 0.0
C439 C 0.39877 0.4816 0.36492 0.0
O440 O 0.38903 0.48196 0.35612 0.0
O441 O 0.37356 0.44919 0.3478 0.0
O442 O 0.35695 0.43258 0.36745 0.0
O443 O 0.37847 0.46527 0.47531 0.0
O444 O 0.36373 0.44973 0.44388 0.0
C445 C 0.36419 0.43925 0.33917 0.0
C446 C 0.36763 0.45638 0.47646 0.0
O447 O 0.39785 0.47284 0.38596 0.0
Mg448 Mg 0.53125 0.91045 0.41479 0.0
O449 O 0.54386 0.92867 0.44468 0.0
O450 O 0.55962 0.92808 0.47033 0.0
Mg451 Mg 0.5571 0.90956 0.45802 0.0
C452 C 0.55394 0.93362 0.46338 0.0
C453 C 0.51418 0.91323 0.35285 0.0
O454 O 0.51501 0.90457 0.33452 0.0
O455 O 0.54388 0.9152 0.35867 0.0
O456 O 0.55876 0.91364 0.38816 0.0
O457 O 0.52237 0.90313 0.47685 0.0
O458 O 0.53781 0.9021 0.45265 0.0
C459 C 0.55395 0.91557 0.35647 0.0
C460 C 0.53031 0.89994 0.48224 0.0
O461 O 0.52036 0.91803 0.38546 0.0
Mg462 Mg 0.28585 0.43048 0.89528 0.0
O463 O 0.28187 0.41225 0.8704 0.0
O464 O 0.29851 0.41424 0.84166 0.0
Mg465 Mg 0.31311 0.43392 0.84664 0.0
C466 C 0.28753 0.40785 0.85184 0.0
C467 C 0.26671 0.42665 0.96196 0.0
O468 O 0.276 0.43631 0.9768 0.0
O469 O 0.29615 0.42861 0.95063 0.0
O470 O 0.31288 0.43215 0.91744 0.0
O471 O 0.2817 0.43503 0.83159 0.0
O472 O 0.29961 0.43923 0.85309 0.0
C473 C 0.30675 0.43018 0.9508 0.0
C474 C 0.29294 0.43937 0.82377 0.0
O475 O 0.26804 0.42168 0.92972 0.0
Mg476 Mg 0.57707 0.8624 0.91136 0.0
O477 O 0.59506 0.87475 0.87935 0.0
O478 O 0.59494 0.89115 0.85835 0.0
Mg479 Mg 0.57709 0.88947 0.87643 0.0
C480 C 0.60013 0.88499 0.86184 0.0
C481 C 0.57681 0.84102 0.95416 0.0
O482 O 0.56606 0.83924 0.96193 0.0
O483 O 0.58316 0.87438 0.96961 0.0
O484 O 0.58222 0.89011 0.945 0.0
O485 O 0.56855 0.8545 0.84922 0.0
O486 O 0.56881 0.87006 0.87863 0.0
C487 C 0.58423 0.8847 0.97453 0.0
C488 C 0.56583 0.86286 0.84757 0.0
O489 O 0.58416 0.85044 0.93476 0.0
Mg490 Mg 0.14464 0.72119 0.90787 0.0
O491 O 0.13015 0.72561 0.88799 0.0
O492 O 0.11347 0.7084 0.87451 0.0
Mg493 Mg 0.11693 0.69303 0.88643 0.0
C494 C 0.1192 0.71978 0.87678 0.0
C495 C 0.16057 0.74877 0.90174 0.0
O496 O 0.15676 0.74605 0.86302 0.0
O497 O 0.13603 0.71522 0.97252 0.0
O498 O 0.11951 0.69809 0.95547 0.0
O499 O 0.14927 0.72056 0.84027 0.0
O500 O 0.13601 0.70505 0.87648 0.0
C501 C 0.12623 0.70586 0.98234 0.0
C502 C 0.14128 0.70933 0.84155 0.0
O503 O 0.15681 0.74048 0.92882 0.0
C504 C 0.2197 0.991 0.64806 0.0
C505 C 0.2146 0.97856 0.65148 0.0
C506 C 0.22482 0.99682 0.61073 0.0
C507 C 0.22606 0.99171 0.49747 0.0
H508 H 0.25371 0.02361 0.50266 0.0
C509 C 0.25215 0.01648 0.35132 0.0
C510 C 0.25252 0.02741 0.34418 0.0
C511 C 0.24886 0.01095 0.3902 0.0
C512 C 0.24598 0.01472 0.5009 0.0
H513 H 0.21076 0.96242 0.61839 0.0
H514 H 0.22013 0.97266 0.55297 0.0
H515 H 0.24519 0.01248 0.56715 0.0
H516 H 0.25067 0.04154 0.37345 0.0
H517 H 0.24517 0.03188 0.44218 0.0
H518 H 0.22712 0.99393 0.43099 0.0
C519 C 0.21993 0.97789 0.57908 0.0
C520 C 0.24104 0.00835 0.53773 0.0
C521 C 0.2146 0.97201 0.61651 0.0
C522 C 0.25043 0.03312 0.37785 0.0
C523 C 0.24727 0.02761 0.41711 0.0
C524 C 0.23113 0.99801 0.46067 0.0
C525 C 0.22518 0.9904 0.5759 0.0
C526 C 0.2309 0.99682 0.53652 0.0
C527 C 0.24607 0.01629 0.42302 0.0
C528 C 0.24105 0.0096 0.46214 0.0
H529 H 0.21967 0.99628 0.67429 0.0
H530 H 0.2284 0.00637 0.6092 0.0
H531 H 0.21816 0.98296 0.49528 0.0
H532 H 0.25384 0.01186 0.32633 0.0
H533 H 0.24816 0.0023 0.3943 0.0
C534 C 0.03433 0.24383 0.60262 0.0
C535 C 0.03125 0.24739 0.63987 0.0
C536 C 0.02827 0.2431 0.56547 0.0
C537 C 0.00771 0.25173 0.51565 0.0
H538 H 0.99646 0.22207 0.45474 0.0
C539 C 0.97261 0.22156 0.37549 0.0
C540 C 0.97609 0.23042 0.34468 0.0
C541 C 0.97851 0.22426 0.41402 0.0
C542 C 0.9994 0.23032 0.47176 0.0
H543 H 0.02017 0.2539 0.66683 0.0
H544 H 0.00967 0.25261 0.60248 0.0
H545 H 0.00983 0.22648 0.51408 0.0
H546 H 0.98763 0.24927 0.33152 0.0
H547 H 0.99787 0.25393 0.39838 0.0
H548 H 0.99709 0.25546 0.47373 0.0
C549 C 0.01669 0.25035 0.60168 0.0
C550 C 0.00725 0.23295 0.50524 0.0
C551 C 0.02267 0.25102 0.63866 0.0
C552 C 0.98482 0.24222 0.3545 0.0
C553 C 0.99067 0.24491 0.39295 0.0
C554 C 0.99986 0.2491 0.48213 0.0
C555 C 0.01913 0.24602 0.56498 0.0
C556 C 0.01149 0.24368 0.52759 0.0
C557 C 0.98792 0.23587 0.42244 0.0
C558 C 0.99561 0.23836 0.45984 0.0
H559 H 0.04091 0.24098 0.60264 0.0
H560 H 0.03047 0.23991 0.53743 0.0
H561 H 0.01085 0.26008 0.53219 0.0
H562 H 0.96591 0.21239 0.36887 0.0
H563 H 0.97605 0.21715 0.43655 0.0
C564 C 0.78195 0.74863 0.37708 0.0
C565 C 0.77455 0.74464 0.34164 0.0
C566 C 0.77781 0.75096 0.41429 0.0
C567 C 0.75094 0.74689 0.47033 0.0
H568 H 0.77303 0.77811 0.51582 0.0
C569 C 0.75456 0.78369 0.6015 0.0
C570 C 0.75051 0.77621 0.63668 0.0
C571 C 0.75538 0.77914 0.56275 0.0
C572 C 0.76669 0.76945 0.50311 0.0
H573 H 0.75668 0.73883 0.31854 0.0
H574 H 0.7495 0.74285 0.38332 0.0
H575 H 0.7791 0.77048 0.45686 0.0
H576 H 0.74294 0.75792 0.65811 0.0
H577 H 0.74435 0.75002 0.59075 0.0
H578 H 0.73852 0.74593 0.51669 0.0
C579 C 0.75849 0.74428 0.3824 0.0
C580 C 0.77025 0.76498 0.46987 0.0
C581 C 0.76264 0.74202 0.34521 0.0
C582 C 0.74622 0.76392 0.63157 0.0
C583 C 0.74697 0.75938 0.5929 0.0
C584 C 0.74739 0.75135 0.50381 0.0
C585 C 0.76618 0.74923 0.41674 0.0
C586 C 0.76245 0.75363 0.45327 0.0
C587 C 0.75207 0.76703 0.55858 0.0
C588 C 0.75526 0.76267 0.5206 0.0
H589 H 0.79115 0.7507 0.37536 0.0
H590 H 0.78385 0.75456 0.44063 0.0
H591 H 0.74474 0.73812 0.45809 0.0
H592 H 0.7579 0.79318 0.6045 0.0
H593 H 0.75916 0.78519 0.53654 0.0
C594 C 0.74442 0.97526 0.61231 0.0
C595 C 0.75089 0.97003 0.62787 0.0
C596 C 0.7481 0.98209 0.57588 0.0
C597 C 0.75652 0.99295 0.48835 0.0
H598 H 0.78904 0.01916 0.49989 0.0
C599 C 0.77422 0.03152 0.37293 0.0
C600 C 0.78575 0.03556 0.35741 0.0
C601 C 0.77037 0.02459 0.4091 0.0
C602 C 0.78 0.01185 0.49581 0.0
H603 H 0.76582 0.96721 0.61668 0.0
H604 H 0.77242 0.97941 0.55303 0.0
H605 H 0.78097 0.00303 0.55116 0.0
H606 H 0.80258 0.03626 0.36846 0.0
H607 H 0.79582 0.02384 0.43092 0.0
H608 H 0.75552 0.00143 0.43261 0.0
C609 C 0.76445 0.9781 0.5689 0.0
C610 C 0.77541 0.0026 0.52513 0.0
C611 C 0.7606 0.97102 0.6049 0.0
C612 C 0.79371 0.03341 0.38036 0.0
C613 C 0.78978 0.02621 0.41607 0.0
C614 C 0.76116 0.00207 0.45866 0.0
C615 C 0.75845 0.98401 0.555 0.0
C616 C 0.7636 0.99313 0.52177 0.0
C617 C 0.77786 0.02124 0.42968 0.0
C618 C 0.77293 0.01172 0.46219 0.0
H619 H 0.73697 0.97469 0.62979 0.0
H620 H 0.74336 0.98658 0.5658 0.0
H621 H 0.74739 0.98572 0.48514 0.0
H622 H 0.76792 0.03307 0.35553 0.0
H623 H 0.76128 0.0213 0.4195 0.0
C624 C 0.03314 0.78201 0.5999 0.0
C625 C 0.02945 0.77381 0.63306 0.0
C626 C 0.0273 0.77859 0.56132 0.0
C627 C 0.00562 0.75279 0.49771 0.0
H628 H 0.99565 0.775 0.46041 0.0
C629 C 0.97094 0.75673 0.37467 0.0
C630 C 0.97412 0.75311 0.33783 0.0
C631 C 0.97694 0.75763 0.41205 0.0
C632 C 0.99824 0.76864 0.47075 0.0
H633 H 0.01769 0.75531 0.65052 0.0
H634 H 0.00757 0.74938 0.58341 0.0
H635 H 0.00923 0.78023 0.51946 0.0
H636 H 0.98526 0.74653 0.31192 0.0
H637 H 0.99566 0.74806 0.37688 0.0
H638 H 0.99446 0.74113 0.44915 0.0
C639 C 0.01487 0.75845 0.58712 0.0
C640 C 0.00621 0.77173 0.50405 0.0
C641 C 0.02065 0.76187 0.62567 0.0
C642 C 0.9827 0.74947 0.33977 0.0
C643 C 0.98862 0.75028 0.37706 0.0
C644 C 0.99768 0.7497 0.46421 0.0
C645 C 0.01776 0.7669 0.55522 0.0
C646 C 0.00999 0.76385 0.51788 0.0
C647 C 0.98613 0.75479 0.4132 0.0
C648 C 0.99389 0.7576 0.45046 0.0
H649 H 0.03991 0.79126 0.60459 0.0
H650 H 0.02986 0.78523 0.53691 0.0
H651 H 0.00838 0.74653 0.50774 0.0
H652 H 0.96435 0.75958 0.37409 0.0
H653 H 0.97472 0.76095 0.4397 0.0
C654 C 0.23938 0.22772 0.34045 0.0
C655 C 0.24528 0.22109 0.33832 0.0
C656 C 0.2378 0.23193 0.37858 0.0
C657 C 0.25027 0.24164 0.48106 0.0
H658 H 0.21837 0.23437 0.5128 0.0
C659 C 0.23965 0.25253 0.64427 0.0
C660 C 0.23027 0.255 0.64915 0.0
C661 C 0.24203 0.24931 0.60547 0.0
C662 C 0.22737 0.2367 0.50411 0.0
H663 H 0.25425 0.21373 0.37455 0.0
H664 H 0.25172 0.22145 0.44185 0.0
H665 H 0.22137 0.22635 0.44788 0.0
H666 H 0.21654 0.25671 0.61631 0.0
H667 H 0.22104 0.25154 0.54791 0.0
H668 H 0.25641 0.25232 0.53631 0.0
C669 C 0.24826 0.22324 0.41362 0.0
C670 C 0.22905 0.23199 0.46716 0.0
C671 C 0.24966 0.2188 0.37531 0.0
C672 C 0.22376 0.25479 0.6137 0.0
C673 C 0.22628 0.2517 0.57457 0.0
C674 C 0.24863 0.24653 0.51771 0.0
C675 C 0.24224 0.22976 0.41544 0.0
C676 C 0.24049 0.23437 0.45546 0.0
C677 C 0.23525 0.24863 0.57021 0.0
C678 C 0.23714 0.24407 0.52986 0.0
H679 H 0.23582 0.22958 0.31261 0.0
H680 H 0.2332 0.237 0.3792 0.0
H681 H 0.2592 0.24374 0.47224 0.0
H682 H 0.24486 0.25257 0.67081 0.0
H683 H 0.24889 0.24685 0.60367 0.0
C684 C 0.91854 0.36741 0.71175 0.0
C685 C 0.91746 0.36032 0.67692 0.0
C686 C 0.91701 0.36273 0.7522 0.0
C687 C 0.91371 0.33629 0.81202 0.0
H688 H 0.89509 0.34417 0.88693 0.0
C689 C 0.88567 0.30742 0.95304 0.0
C690 C 0.88775 0.31369 0.99089 0.0
C691 C 0.89084 0.31359 0.91592 0.0
C692 C 0.90036 0.34196 0.86635 0.0
H693 H 0.91442 0.3429 0.65752 0.0
H694 H 0.91133 0.33472 0.72699 0.0
H695 H 0.90195 0.35469 0.82066 0.0
H696 H 0.89698 0.33132 0.01943 0.0
H697 H 0.90569 0.34195 0.95469 0.0
H698 H 0.91149 0.32309 0.8573 0.0
C699 C 0.91364 0.34396 0.72366 0.0
C700 C 0.90441 0.34806 0.82855 0.0
C701 C 0.91532 0.34866 0.68351 0.0
C702 C 0.8952 0.32618 0.9909 0.0
C703 C 0.90017 0.33231 0.95387 0.0
C704 C 0.90946 0.33004 0.84951 0.0
C705 C 0.91423 0.35083 0.75854 0.0
C706 C 0.91103 0.34522 0.80065 0.0
C707 C 0.89797 0.3261 0.91607 0.0
C708 C 0.90269 0.33278 0.87677 0.0
H709 H 0.92027 0.37646 0.70776 0.0
H710 H 0.91777 0.36837 0.77841 0.0
H711 H 0.919 0.33403 0.79178 0.0
H712 H 0.88 0.29781 0.95207 0.0
H713 H 0.889 0.30864 0.88692 0.0
C714 C 0.64753 0.57406 0.69502 0.0
C715 C 0.6391 0.56217 0.6851 0.0
C716 C 0.65309 0.57693 0.73397 0.0
C717 C 0.67033 0.57753 0.79877 0.0
H718 H 0.65553 0.56457 0.90589 0.0
C719 C 0.69628 0.57671 0.94565 0.0
C720 C 0.69263 0.57905 0.98416 0.0
C721 C 0.68993 0.57583 0.90909 0.0
C722 C 0.65978 0.56834 0.87621 0.0
H723 H 0.62911 0.54415 0.70946 0.0
H724 H 0.63885 0.5492 0.77787 0.0
H725 H 0.643 0.5608 0.84419 0.0
H726 H 0.68002 0.58318 0.01397 0.0
H727 H 0.6691 0.58173 0.95046 0.0
H728 H 0.68711 0.58501 0.83071 0.0
C729 C 0.64116 0.55628 0.75536 0.0
C730 C 0.65261 0.5661 0.84092 0.0
C731 C 0.63555 0.55339 0.71625 0.0
C732 C 0.68297 0.58118 0.98494 0.0
C733 C 0.67665 0.58029 0.9486 0.0
C734 C 0.6775 0.57971 0.834 0.0
C735 C 0.65035 0.56799 0.76384 0.0
C736 C 0.65781 0.57068 0.80185 0.0
C737 C 0.67985 0.57728 0.91053 0.0
C738 C 0.6723 0.57513 0.87307 0.0
H739 H 0.65032 0.58106 0.67184 0.0
H740 H 0.65992 0.58609 0.74007 0.0
H741 H 0.67461 0.58103 0.7689 0.0
H742 H 0.70367 0.57502 0.94404 0.0
H743 H 0.69258 0.5735 0.88008 0.0
C744 C 0.45496 0.08848 0.71653 0.0
C745 C 0.44585 0.07901 0.69397 0.0
C746 C 0.45222 0.09288 0.75219 0.0
C747 C 0.42605 0.09345 0.79777 0.0
H748 H 0.44821 0.11044 0.88774 0.0
C749 C 0.41565 0.10802 0.95647 0.0
C750 C 0.42352 0.11981 0.96893 0.0
C751 C 0.41757 0.10363 0.9192 0.0
C752 C 0.44202 0.10583 0.86244 0.0
H753 H 0.42702 0.06589 0.69287 0.0
H754 H 0.42232 0.07294 0.75679 0.0
H755 H 0.45339 0.10005 0.83548 0.0
H756 H 0.43918 0.13648 0.95181 0.0
H757 H 0.44276 0.12867 0.88674 0.0
H758 H 0.41447 0.09883 0.82643 0.0
C759 C 0.43148 0.07744 0.74599 0.0
C760 C 0.44496 0.09986 0.83249 0.0
C761 C 0.43418 0.07324 0.7098 0.0
C762 C 0.43289 0.12741 0.94234 0.0
C763 C 0.435 0.12293 0.90552 0.0
C764 C 0.42302 0.09921 0.82825 0.0
C765 C 0.44033 0.08772 0.76635 0.0
C766 C 0.43703 0.0936 0.79965 0.0
C767 C 0.42758 0.1109 0.89452 0.0
C768 C 0.43101 0.10549 0.86062 0.0
H769 H 0.46401 0.09318 0.70454 0.0
H770 H 0.4593 0.10084 0.76674 0.0
H771 H 0.41983 0.08903 0.77243 0.0
H772 H 0.40846 0.10198 0.97689 0.0
H773 H 0.41177 0.09431 0.91133 0.0
C774 C 0.4555 0.36723 0.72344 0.0
C775 C 0.4488 0.36395 0.68636 0.0
C776 C 0.4501 0.36173 0.76125 0.0
C777 C 0.43527 0.35066 0.84028 0.0
H778 H 0.41568 0.31628 0.8281 0.0
C779 C 0.41442 0.32065 0.98296 0.0
C780 C 0.41664 0.31108 0.98602 0.0
C781 C 0.41618 0.32672 0.9453 0.0
C782 C 0.4211 0.32586 0.83197 0.0
H783 H 0.43102 0.35336 0.66028 0.0
H784 H 0.42162 0.34399 0.72613 0.0
H785 H 0.42337 0.3288 0.76607 0.0
H786 H 0.42151 0.29977 0.95112 0.0
H787 H 0.42459 0.3104 0.88512 0.0
H788 H 0.43336 0.34766 0.90627 0.0
C789 C 0.43107 0.35049 0.72596 0.0
C790 C 0.42541 0.33305 0.79649 0.0
C791 C 0.43645 0.35591 0.68832 0.0
C792 C 0.41972 0.3071 0.94976 0.0
C793 C 0.42149 0.3132 0.91197 0.0
C794 C 0.43092 0.34346 0.87579 0.0
C795 C 0.43793 0.35294 0.76244 0.0
C796 C 0.43265 0.34552 0.80027 0.0
C797 C 0.42017 0.32335 0.90984 0.0
C798 C 0.42391 0.33097 0.872 0.0
H799 H 0.46504 0.37338 0.72276 0.0
H800 H 0.45562 0.3638 0.78892 0.0
H801 H 0.44078 0.36023 0.84414 0.0
H802 H 0.41186 0.32383 0.01019 0.0
H803 H 0.41481 0.33432 0.94432 0.0
C804 C 0.69744 0.11701 0.9507 0.0
C805 C 0.69109 0.11422 0.98858 0.0
C806 C 0.69138 0.11231 0.91297 0.0
C807 C 0.66291 0.1027 0.86352 0.0
H808 H 0.67129 0.08501 0.78609 0.0
C809 C 0.63657 0.08376 0.71026 0.0
C810 C 0.6434 0.08478 0.67472 0.0
C811 C 0.64169 0.08582 0.75018 0.0
C812 C 0.66891 0.09006 0.80708 0.0
H813 H 0.67343 0.10425 0.01649 0.0
H814 H 0.66298 0.09637 0.95079 0.0
H815 H 0.68234 0.09235 0.85146 0.0
H816 H 0.66091 0.08851 0.65349 0.0
H817 H 0.66983 0.0925 0.72198 0.0
H818 H 0.64988 0.10097 0.81882 0.0
C819 C 0.6726 0.10208 0.95037 0.0
C820 C 0.67524 0.09422 0.8445 0.0
C821 C 0.67863 0.10657 0.98796 0.0
C822 C 0.65532 0.08758 0.68008 0.0
C823 C 0.66045 0.08979 0.71966 0.0
C824 C 0.65673 0.09875 0.82578 0.0
C825 C 0.6789 0.10497 0.91259 0.0
C826 C 0.6723 0.1006 0.8729 0.0
C827 C 0.65378 0.08909 0.75525 0.0
C828 C 0.6597 0.09244 0.79689 0.0
H829 H 0.70703 0.12286 0.95019 0.0
H830 H 0.69639 0.11467 0.88401 0.0
H831 H 0.66054 0.10766 0.88501 0.0
H832 H 0.62735 0.08155 0.70723 0.0
H833 H 0.63621 0.08498 0.77697 0.0
C834 C 0.91139 0.54871 0.70576 0.0
C835 C 0.91487 0.5559 0.66979 0.0
C836 C 0.90985 0.55315 0.74376 0.0
C837 C 0.90282 0.57568 0.78263 0.0
H838 H 0.91144 0.56872 0.89071 0.0
C839 C 0.90433 0.58845 0.96845 0.0
C840 C 0.89264 0.58631 0.97428 0.0
C841 C 0.9078 0.58595 0.93028 0.0
C842 C 0.90908 0.57084 0.86071 0.0
H843 H 0.92037 0.57366 0.64622 0.0
H844 H 0.91786 0.58138 0.71233 0.0
H845 H 0.91673 0.56192 0.82728 0.0
H846 H 0.87565 0.58056 0.94374 0.0
H847 H 0.88173 0.57617 0.87677 0.0
H848 H 0.89521 0.58462 0.81604 0.0
C849 C 0.916 0.57224 0.71102 0.0
C850 C 0.912 0.56683 0.82446 0.0
C851 C 0.9175 0.56781 0.6732 0.0
C852 C 0.88472 0.58233 0.94022 0.0
C853 C 0.8882 0.5798 0.90189 0.0
C854 C 0.89987 0.57965 0.81888 0.0
C855 C 0.91181 0.56486 0.74638 0.0
C856 C 0.90891 0.56922 0.78504 0.0
C857 C 0.89967 0.58125 0.897 0.0
C858 C 0.90297 0.57728 0.8583 0.0
H859 H 0.90927 0.53949 0.70412 0.0
H860 H 0.9066 0.54725 0.77054 0.0
H861 H 0.90017 0.57751 0.75268 0.0
H862 H 0.91072 0.59167 -0.00611 0.0
H863 H 0.91679 0.58744 0.92712 0.0
C864 C 0.55097 0.65428 0.31031 0.0
C865 C 0.54587 0.64185 0.31358 0.0
C866 C 0.55554 0.66007 0.2725 0.0
C867 C 0.55548 0.65515 0.15849 0.0
H868 H 0.58385 0.68657 0.16261 0.0
C869 C 0.58147 0.67979 0.01136 0.0
C870 C 0.58308 0.69131 0.00567 0.0
C871 C 0.57768 0.67398 0.04963 0.0
C872 C 0.5759 0.67784 0.16112 0.0
H873 H 0.54134 0.62565 0.27958 0.0
H874 H 0.54975 0.63585 0.21308 0.0
H875 H 0.57562 0.67543 0.22718 0.0
H876 H 0.58263 0.70599 0.03678 0.0
H877 H 0.57625 0.69583 0.10446 0.0
H878 H 0.55605 0.65752 0.09209 0.0
C879 C 0.55 0.6411 0.23983 0.0
C880 C 0.57113 0.67145 0.19803 0.0
C881 C 0.54521 0.63524 0.27784 0.0
C882 C 0.58146 0.69714 0.04006 0.0
C883 C 0.57781 0.69133 0.07872 0.0
C884 C 0.56038 0.66147 0.12152 0.0
C885 C 0.55535 0.65363 0.23691 0.0
C886 C 0.56077 0.66008 0.19725 0.0
C887 C 0.57558 0.67958 0.08337 0.0
C888 C 0.57056 0.6729 0.12259 0.0
H889 H 0.55141 0.65961 0.33716 0.0
H890 H 0.55921 0.66965 0.27125 0.0
H891 H 0.54742 0.64652 0.15668 0.0
H892 H 0.5827 0.67502 0.98578 0.0
H893 H 0.5762 0.66499 0.05269 0.0
C894 C 0.36466 0.91268 0.28865 0.0
C895 C 0.35789 0.90671 0.32412 0.0
C896 C 0.35895 0.91315 0.25201 0.0
C897 C 0.33108 0.89658 0.19535 0.0
H898 H 0.33875 0.92643 0.14161 0.0
C899 C 0.30482 0.89624 0.051 0.0
C900 C 0.31173 0.90359 0.01792 0.0
C901 C 0.30968 0.89786 0.09117 0.0
C902 C 0.33656 0.918 0.15596 0.0
H903 H 0.33985 0.89643 0.34877 0.0
H904 H 0.33004 0.89706 0.28497 0.0
H905 H 0.34975 0.92661 0.20403 0.0
H906 H 0.32883 0.91906 0.00206 0.0
H907 H 0.33734 0.92157 0.07099 0.0
H908 H 0.31828 0.88785 0.14693 0.0
C909 C 0.33971 0.90147 0.28556 0.0
C910 C 0.34288 0.91814 0.19163 0.0
C911 C 0.34536 0.90116 0.32212 0.0
C912 C 0.32324 0.91315 0.02663 0.0
C913 C 0.32814 0.91466 0.0665 0.0
C914 C 0.32491 0.89642 0.1594 0.0
C915 C 0.34642 0.90745 0.25022 0.0
C916 C 0.34017 0.90742 0.21156 0.0
C917 C 0.32159 0.90677 0.09894 0.0
C918 C 0.32756 0.90712 0.13914 0.0
H919 H 0.37431 0.91706 0.28936 0.0
H920 H 0.36429 0.91778 0.2249 0.0
H921 H 0.32889 0.8882 0.21015 0.0
H922 H 0.29588 0.88889 0.04553 0.0
H923 H 0.30424 0.89184 0.11574 0.0
C924 C 0.08918 0.4499 0.27468 0.0
C925 C 0.0847 0.44216 0.30914 0.0
C926 C 0.09056 0.44565 0.236 0.0
C927 C 0.08873 0.43296 0.15307 0.0
H928 H 0.10298 0.4128 0.16234 0.0
C929 C 0.09789 0.41255 0.00838 0.0
C930 C 0.10935 0.41386 0.00572 0.0
C931 C 0.09385 0.41481 0.04574 0.0
C932 C 0.09903 0.41843 0.15927 0.0
H933 H 0.07709 0.42374 0.3292 0.0
H934 H 0.07932 0.41637 0.26184 0.0
H935 H 0.09732 0.41936 0.22542 0.0
H936 H 0.12528 0.41795 0.04098 0.0
H937 H 0.11817 0.42191 0.10651 0.0
H938 H 0.09074 0.43227 0.0869 0.0
C939 C 0.0821 0.42575 0.26489 0.0
C940 C 0.09566 0.42209 0.19532 0.0
C941 C 0.08077 0.42997 0.30339 0.0
C942 C 0.11641 0.41684 0.04198 0.0
C943 C 0.11234 0.41911 0.0795 0.0
C944 C 0.09205 0.42926 0.11697 0.0
C945 C 0.08742 0.43361 0.23125 0.0
C946 C 0.09051 0.42942 0.19262 0.0
C947 C 0.10114 0.41842 0.08139 0.0
C948 C 0.09728 0.422 0.11973 0.0
H949 H 0.09231 0.45934 0.2782 0.0
H950 H 0.0947 0.45193 0.21057 0.0
H951 H 0.08476 0.43857 0.15003 0.0
H952 H 0.09214 0.41012 0.9812 0.0
H953 H 0.08507 0.41396 0.04652 0.0
C954 C 0.09475 0.63973 0.27672 0.0
C955 C 0.0856 0.63927 0.30154 0.0
C956 C 0.09851 0.64683 0.24083 0.0
C957 C 0.098 0.67331 0.19813 0.0
H958 H 0.11417 0.66851 0.10451 0.0
C959 C 0.11116 0.69841 0.03887 0.0
C960 C 0.12303 0.70274 0.02633 0.0
C961 C 0.10695 0.69198 0.07599 0.0
C962 C 0.10976 0.66997 0.13079 0.0
H963 H 0.07234 0.64474 0.30648 0.0
H964 H 0.07824 0.6564 0.24221 0.0
H965 H 0.10446 0.65283 0.15684 0.0
H966 H 0.13998 0.70435 0.04319 0.0
H967 H 0.13249 0.69276 0.10795 0.0
H968 H 0.10289 0.69026 0.17039 0.0
C969 C 0.083 0.65186 0.25138 0.0
C970 C 0.1042 0.66101 0.1608 0.0
C971 C 0.07946 0.64501 0.28779 0.0
C972 C 0.13086 0.70127 0.05273 0.0
C973 C 0.12656 0.69456 0.08938 0.0
C974 C 0.10334 0.68215 0.16757 0.0
C975 C 0.093 0.6534 0.22869 0.0
C976 C 0.09829 0.66258 0.19507 0.0
C977 C 0.11448 0.68954 0.10041 0.0
C978 C 0.10935 0.68058 0.13396 0.0
H979 H 0.09973 0.63551 0.28705 0.0
H980 H 0.10628 0.6478 0.22449 0.0
H981 H 0.09383 0.67504 0.2245 0.0
H982 H 0.10496 0.69933 0.01857 0.0
H983 H 0.09759 0.68814 0.08393 0.0
C984 C 0.36702 0.4439 0.26238 0.0
C985 C 0.36048 0.43611 0.29505 0.0
C986 C 0.3621 0.44216 0.22231 0.0
C987 C 0.33592 0.42097 0.15682 0.0
H988 H 0.34098 0.45036 0.10595 0.0
C989 C 0.30608 0.42399 0.02583 0.0
C990 C 0.31263 0.43035 0.99053 0.0
C991 C 0.31205 0.42404 0.06249 0.0
C992 C 0.33951 0.44209 0.11986 0.0
H993 H 0.34409 0.41973 0.31019 0.0
H994 H 0.33543 0.41696 0.24141 0.0
H995 H 0.35207 0.45126 0.16858 0.0
H996 H 0.33046 0.44199 0.96618 0.0
H997 H 0.34073 0.44227 0.03012 0.0
H998 H 0.32297 0.41188 0.10846 0.0
C999 C 0.34439 0.42435 0.24618 0.0
C1000 C 0.34597 0.44259 0.15543 0.0
C1001 C 0.34936 0.426 0.28595 0.0
C1002 C 0.32516 0.43692 0.99276 0.0
C1003 C 0.33106 0.43714 0.02937 0.0
C1004 C 0.32931 0.42049 0.12155 0.0
C1005 C 0.35049 0.43266 0.21426 0.0
C1006 C 0.34427 0.43204 0.17443 0.0
C1007 C 0.32459 0.43068 0.06444 0.0
C1008 C 0.33108 0.43105 0.10284 0.0
H1009 H 0.37567 0.4517 0.26817 0.0
H1010 H 0.3672 0.44853 0.19809 0.0
H1011 H 0.33447 0.41267 0.17024 0.0
H1012 H 0.29642 0.41884 0.02487 0.0
H1013 H 0.3069 0.41903 0.08941 0.0
C1014 C 0.57182 0.91971 0.31439 0.0
C1015 C 0.55986 0.91702 0.31561 0.0
C1016 C 0.57687 0.91871 0.27723 0.0
C1017 C 0.58063 0.90536 0.20678 0.0
H1018 H 0.57479 0.91398 0.09691 0.0
C1019 C 0.58268 0.88308 0.05258 0.0
C1020 C 0.58642 0.89018 0.01644 0.0
C1021 C 0.582 0.88798 0.09079 0.0
C1022 C 0.57666 0.91166 0.12742 0.0
H1023 H 0.54408 0.91205 0.27814 0.0
H1024 H 0.55292 0.91026 0.21293 0.0
H1025 H 0.56853 0.92042 0.15886 0.0
H1026 H 0.59361 0.90821 0.99274 0.0
H1027 H 0.59259 0.91675 0.05936 0.0
H1028 H 0.58857 0.89643 0.17528 0.0
C1029 C 0.55839 0.91316 0.24086 0.0
C1030 C 0.57295 0.91524 0.16282 0.0
C1031 C 0.55332 0.91419 0.27817 0.0
C1032 C 0.5905 0.90247 0.01997 0.0
C1033 C 0.58986 0.90735 0.05804 0.0
C1034 C 0.58428 0.90172 0.17135 0.0
C1035 C 0.57007 0.91498 0.24043 0.0
C1036 C 0.57479 0.91203 0.20285 0.0
C1037 C 0.5851 0.90006 0.09338 0.0
C1038 C 0.58222 0.90473 0.13129 0.0
H1039 H 0.57717 0.92211 0.34261 0.0
H1040 H 0.58598 0.92044 0.27761 0.0
H1041 H 0.58203 0.90261 0.23723 0.0
H1042 H 0.57946 0.87358 0.05077 0.0
H1043 H 0.57828 0.88213 0.11755 0.0
C1044 C 0.19507 0.96084 0.89685 0.0
C1045 C 0.19009 0.96409 0.86409 0.0
C1046 C 0.19977 0.96829 0.93177 0.0
C1047 C 0.20128 0.99386 0.98837 0.0
H1048 H 0.23462 0.00345 0.00422 0.0
C1049 C 0.23208 0.03382 0.0937 0.0
C1050 C 0.23934 0.03176 0.12109 0.0
C1051 C 0.22615 0.02589 0.06077 0.0
C1052 C 0.22529 1.00079 0.00059 0.0
H1053 H 0.18531 0.97702 0.8426 0.0
H1054 H 0.19311 0.98979 0.90415 0.0
H1055 H 0.22251 0.98738 0.95566 0.0
H1056 H 0.24694 0.02045 0.13304 0.0
H1057 H 0.23653 0.0066 0.07706 0.0
H1058 H 0.204 0.00717 0.03369 0.0
C1059 C 0.19346 0.9816 0.90307 0.0
C1060 C 0.21835 0.99155 0.97293 0.0
C1061 C 0.18899 0.9743 0.86796 0.0
C1062 C 0.2412 0.02214 0.1133 0.0
C1063 C 0.23532 0.01425 0.08064 0.0
C1064 C 0.2082 0.00303 0.01648 0.0
C1065 C 0.19935 0.97894 0.9344 0.0
C1066 C 0.20629 0.988 0.96657 0.0
C1067 C 0.22747 0.01583 0.05462 0.0
C1068 C 0.22029 0.0066 0.02292 0.0
H1069 H 0.1962 0.95312 0.89394 0.0
H1070 H 0.20424 0.96604 0.95571 0.0
H1071 H 0.192 0.9913 0.98382 0.0
H1072 H 0.2305 0.04119 0.09896 0.0
H1073 H 0.22034 0.02748 0.04074 0.0
C1074 C 0.9887 0.22148 0.12893 0.0
C1075 C 0.97644 0.2132 0.12535 0.0
C1076 C 0.99654 0.22296 0.09661 0.0
C1077 C 0.99931 0.20754 0.00367 0.0
H1078 H 0.02565 0.239 0.97657 0.0
C1079 C 0.02508 0.2195 0.84896 0.0
C1080 C 0.03746 0.22733 0.84945 0.0
C1081 C 0.01849 0.2167 0.88577 0.0
C1082 C 0.01847 0.23014 0.98434 0.0
H1083 H 0.96273 0.20016 0.08459 0.0
H1084 H 0.97642 0.20298 0.0273 0.0
H1085 H 0.01191 0.23679 0.03254 0.0
H1086 H 0.05282 0.23802 0.88874 0.0
H1087 H 0.04117 0.23325 0.95376 0.0
H1088 H 0.00569 0.20101 0.95424 0.0
C1089 C 0.97999 0.20815 0.05563 0.0
C1090 C 0.01056 0.22886 0.01629 0.0
C1091 C 0.97213 0.20662 0.08822 0.0
C1092 C 0.04328 0.23191 0.88771 0.0
C1093 C 0.03662 0.22925 0.9247 0.0
C1094 C 0.00717 0.20884 0.97148 0.0
C1095 C 0.99232 0.21623 0.05972 0.0
C1096 C 1.00081 0.21756 0.02606 0.0
C1097 C 0.02413 0.2218 0.92381 0.0
C1098 C 0.01675 0.22017 0.96124 0.0
H1099 H 0.99236 0.22659 0.15733 0.0
H1100 H 0.00597 0.22912 0.10114 0.0
H1101 H 0.99207 0.19868 0.01098 0.0
H1102 H 0.0204 0.21584 0.81977 0.0
H1103 H 0.00888 0.21103 0.88407 0.0
C1104 C 0.77509 0.80322 0.88505 0.0
C1105 C 0.77631 0.79979 0.84458 0.0
C1106 C 0.77963 0.80004 0.91938 0.0
C1107 C 0.78859 0.7779 0.94905 0.0
H1108 H 0.80047 0.7974 0.04882 0.0
C1109 C 0.80592 0.76417 0.09407 0.0
C1110 C 0.80036 0.76449 0.13138 0.0
C1111 C 0.80458 0.76943 0.05773 0.0
C1112 C 0.79721 0.7919 0.02102 0.0
H1113 H 0.78384 0.79107 0.80775 0.0
H1114 H 0.79211 0.78596 0.86702 0.0
H1115 H 0.79527 0.80516 0.98767 0.0
H1116 H 0.78936 0.77082 0.16032 0.0
H1117 H 0.78714 0.78001 0.09734 0.0
H1118 H 0.79053 0.76465 0.98261 0.0
C1119 C 0.78728 0.79066 0.87279 0.0
C1120 C 0.79415 0.7963 0.98614 0.0
C1121 C 0.78259 0.79365 0.83876 0.0
C1122 C 0.79366 0.77033 0.13194 0.0
C1123 C 0.79249 0.77571 0.09601 0.0
C1124 C 0.79178 0.77358 0.98373 0.0
C1125 C 0.78562 0.79355 0.91363 0.0
C1126 C 0.78962 0.78927 0.94994 0.0
C1127 C 0.79787 0.77527 0.05854 0.0
C1128 C 0.79591 0.78044 0.02025 0.0
H1129 H 0.77026 0.80794 0.8903 0.0
H1130 H 0.77808 0.80231 0.95043 0.0
H1131 H 0.78492 0.77214 0.92206 0.0
H1132 H 0.81116 0.75975 0.09285 0.0
H1133 H 0.80881 0.76899 0.02908 0.0
C1134 C 0.76622 0.98228 0.84917 0.0
C1135 C 0.76141 0.96991 0.85387 0.0
C1136 C 0.77022 0.98982 0.88372 0.0
C1137 C 0.78016 0.99151 0.99292 0.0
H1138 H 0.77616 0.01932 -0.00406 0.0
C1139 C 0.78983 0.02114 0.1384 0.0
C1140 C 0.79665 0.03356 0.13254 0.0
C1141 C 0.78573 0.01344 0.10425 0.0
C1142 C 0.77744 0.01165 -0.00477 0.0
H1143 H 0.75689 0.95571 0.89857 0.0
H1144 H 0.76362 0.96892 0.95962 0.0
H1145 H 0.76774 0.00522 0.93811 0.0
H1146 H 0.80456 0.04768 0.08639 0.0
H1147 H 0.79713 0.0341 0.0261 0.0
H1148 H 0.78961 0.99787 0.05078 0.0
C1149 C 0.76449 0.97279 0.92891 0.0
C1150 C 0.77262 0.00357 0.96217 0.0
C1151 C 0.76057 0.96521 0.89406 0.0
C1152 C 0.79932 0.03815 0.09173 0.0
C1153 C 0.79504 0.0304 0.05738 0.0
C1154 C 0.78484 0.99953 0.02625 0.0
C1155 C 0.76942 0.9852 0.92404 0.0
C1156 C 0.774 0.99344 0.96043 0.0
C1157 C 0.78824 0.01798 0.06346 0.0
C1158 C 0.78357 0.00969 0.02757 0.0
H1159 H 0.76718 0.98624 0.81855 0.0
H1160 H 0.77421 0.99934 0.87857 0.0
H1161 H 0.78157 0.98393 0.99226 0.0
H1162 H 0.78771 0.01733 0.16949 0.0
H1163 H 0.78042 0.00392 0.10977 0.0
C1164 C 0.01655 0.78787 0.84135 0.0
C1165 C 0.02894 0.79536 0.84574 0.0
C1166 C 0.00888 0.78611 0.87453 0.0
C1167 C 0.00709 0.79869 0.97657 0.0
H1168 H 0.98002 0.76689 0.99312 0.0
C1169 C 0.98136 0.78181 0.13085 0.0
C1170 C 0.96887 0.77464 0.12946 0.0
C1171 C 0.98799 0.78562 0.09413 0.0
C1172 C 0.98741 0.77586 0.98843 0.0
H1173 H 0.04304 0.80692 0.88834 0.0
H1174 H 0.02962 0.80352 0.94727 0.0
H1175 H 0.99343 0.77068 0.93447 0.0
H1176 H 0.95344 0.76615 0.0888 0.0
H1177 H 0.96515 0.77266 0.02386 0.0
H1178 H 1.00126 0.80365 0.03189 0.0
C1179 C 0.02582 0.7992 0.91771 0.0
C1180 C 0.99513 0.77805 0.95487 0.0
C1181 C 0.03353 0.80108 0.88414 0.0
C1182 C 0.96306 0.77169 0.09061 0.0
C1183 C 0.96974 0.77536 0.05362 0.0
C1184 C 0.99943 0.79645 0.01044 0.0
C1185 C 0.0134 0.79168 0.91323 0.0
C1186 C 0.00511 0.78947 0.94867 0.0
C1187 C 0.98229 0.78221 0.05518 0.0
C1188 C 0.98958 0.78499 0.01684 0.0
H1189 H 0.01269 0.78348 0.81192 0.0
H1190 H 0.99937 0.78048 0.86958 0.0
H1191 H 0.01456 0.80763 0.9723 0.0
H1192 H 0.98606 0.78427 0.16047 0.0
H1193 H 0.99764 0.79079 0.09626 0.0
C1194 C 0.24605 0.21057 0.10132 0.0
C1195 C 0.23786 0.19984 0.12068 0.0
C1196 C 0.24259 0.21473 0.06685 0.0
C1197 C 0.21622 0.21429 0.02662 0.0
H1198 H 0.23594 0.22949 0.92948 0.0
C1199 C 0.20228 0.23465 0.89092 0.0
C1200 C 0.21147 0.24454 0.87027 0.0
C1201 C 0.20499 0.22896 0.92273 0.0
C1202 C 0.2304 0.22544 0.95674 0.0
H1203 H 0.21984 0.18485 0.11944 0.0
H1204 H 0.2137 0.19213 0.05878 0.0
H1205 H 0.24174 0.21893 0.97863 0.0
H1206 H 0.23047 0.25703 0.86901 0.0
H1207 H 0.23521 0.24748 0.9255 0.0
H1208 H 0.20506 0.22109 0.0055 0.0
C1209 C 0.22281 0.19726 0.06999 0.0
C1210 C 0.23369 0.2193 0.98462 0.0
C1211 C 0.22633 0.19303 0.10419 0.0
C1212 C 0.22327 0.24928 0.88406 0.0
C1213 C 0.22597 0.24373 0.91614 0.0
C1214 C 0.21298 0.22054 -0.0011 0.0
C1215 C 0.23081 0.20832 0.05181 0.0
C1216 C 0.2267 0.21376 0.02003 0.0
C1217 C 0.21694 0.2332 0.93457 0.0
C1218 C 0.22013 0.22633 0.96392 0.0
H1219 H 0.2549 0.21606 0.11433 0.0
H1220 H 0.2489 0.22333 0.05373 0.0
H1221 H 0.21076 0.21024 0.05406 0.0
H1222 H 0.19312 0.23079 0.88041 0.0
H1223 H 0.19782 0.22087 0.93623 0.0
C1224 C 0.90635 0.35743 0.44426 0.0
C1225 C 0.90246 0.36537 0.45604 0.0
C1226 C 0.90104 0.34966 0.4108 0.0
C1227 C 0.87282 0.33469 0.35242 0.0
H1228 H 0.89069 0.32498 0.28093 0.0
C1229 C 0.85462 0.30508 0.20429 0.0
C1230 C 0.85856 0.29693 0.19693 0.0
C1231 C 0.85863 0.31252 0.23929 0.0
C1232 C 0.88556 0.32748 0.3011 0.0
H1233 H 0.89059 0.37207 0.44055 0.0
H1234 H 0.88137 0.35855 0.38098 0.0
H1235 H 0.90129 0.34125 0.33032 0.0
H1236 H 0.86934 0.28971 0.22027 0.0
H1237 H 0.87634 0.30269 0.28197 0.0
H1238 H 0.85709 0.32099 0.32222 0.0
C1239 C 0.88835 0.35816 0.39835 0.0
C1240 C 0.89164 0.33684 0.32924 0.0
C1241 C 0.89371 0.36599 0.43201 0.0
C1242 C 0.86598 0.29576 0.22611 0.0
C1243 C 0.8701 0.30328 0.26093 0.0
C1244 C 0.86674 0.32536 0.32389 0.0
C1245 C 0.89176 0.3497 0.38812 0.0
C1246 C 0.88534 0.34048 0.35559 0.0
C1247 C 0.86683 0.31205 0.26687 0.0
C1248 C 0.87306 0.32159 0.29833 0.0
H1249 H 0.91332 0.35701 0.46144 0.0
H1250 H 0.90389 0.34326 0.40395 0.0
H1251 H 0.86769 0.33715 0.37268 0.0
H1252 H 0.84913 0.30628 0.18143 0.0
H1253 H 0.85605 0.31926 0.24292 0.0
C1254 C 0.70891 0.56577 0.22894 0.0
C1255 C 0.70283 0.5609 0.19131 0.0
C1256 C 0.70259 0.56286 0.26675 0.0
C1257 C 0.67382 0.54142 0.31614 0.0
H1258 H 0.67741 0.56893 0.37718 0.0
C1259 C 0.63781 0.53798 0.43064 0.0
C1260 C 0.64175 0.54459 0.46784 0.0
C1261 C 0.64596 0.53969 0.39887 0.0
C1262 C 0.6764 0.56113 0.36096 0.0
H1263 H 0.6857 0.54865 0.16354 0.0
H1264 H 0.67478 0.54342 0.22913 0.0
H1265 H 0.69125 0.57172 0.32082 0.0
H1266 H 0.65731 0.55819 0.50088 0.0
H1267 H 0.67142 0.56106 0.44598 0.0
H1268 H 0.65888 0.53082 0.35582 0.0
C1269 C 0.68433 0.5495 0.22979 0.0
C1270 C 0.68437 0.56274 0.32879 0.0
C1271 C 0.69057 0.55255 0.19222 0.0
C1272 C 0.65393 0.55305 0.47238 0.0
C1273 C 0.66205 0.55472 0.44083 0.0
C1274 C 0.66589 0.5398 0.34846 0.0
C1275 C 0.69019 0.55486 0.26728 0.0
C1276 C 0.68301 0.55293 0.30554 0.0
C1277 C 0.6582 0.54801 0.40382 0.0
C1278 C 0.66695 0.54966 0.37072 0.0
H1279 H 0.71836 0.57229 0.22885 0.0
H1280 H 0.7073 0.56708 0.29535 0.0
H1281 H 0.67263 0.53369 0.29884 0.0
H1282 H 0.62848 0.53139 0.42628 0.0
H1283 H 0.64267 0.53452 0.37041 0.0
C1284 C 0.44506 0.12765 0.18666 0.0
C1285 C 0.43859 0.13363 0.19164 0.0
C1286 C 0.44769 0.12276 0.22094 0.0
C1287 C 0.44902 0.12307 0.33644 0.0
H1288 H 0.44671 0.09225 0.31973 0.0
C1289 C 0.44985 0.09457 0.47257 0.0
C1290 C 0.45768 0.09002 0.46865 0.0
C1291 C 0.44745 0.09972 0.43849 0.0
C1292 C 0.44749 0.1009 0.3247 0.0
H1293 H 0.43004 0.13949 0.23645 0.0
H1294 H 0.43438 0.13063 0.29686 0.0
H1295 H 0.44259 0.10185 0.2617 0.0
H1296 H 0.46889 0.08706 0.42561 0.0
H1297 H 0.46452 0.09599 0.36543 0.0
H1298 H 0.45367 0.12192 0.39982 0.0
C1299 C 0.43759 0.12989 0.26635 0.0
C1300 C 0.44516 0.10643 0.2915 0.0
C1301 C 0.43507 0.13494 0.23186 0.0
C1302 C 0.4628 0.09046 0.42951 0.0
C1303 C 0.4603 0.09554 0.39515 0.0
C1304 C 0.45123 0.11747 0.36975 0.0
C1305 C 0.44377 0.12358 0.26109 0.0
C1306 C 0.44597 0.11762 0.29689 0.0
C1307 C 0.45275 0.10039 0.3996 0.0
C1308 C 0.45052 0.10635 0.36413 0.0
H1309 H 0.44806 0.12667 0.15604 0.0
H1310 H 0.45276 0.11828 0.21586 0.0
H1311 H 0.44989 0.13175 0.34153 0.0
H1312 H 0.44581 0.09446 0.50232 0.0
H1313 H 0.44148 0.10325 0.44261 0.0
C1314 C 0.43875 0.30011 0.23086 0.0
C1315 C 0.43834 0.30587 0.19423 0.0
C1316 C 0.44441 0.30678 0.26668 0.0
C1317 C 0.46661 0.33704 0.3018 0.0
H1318 H 0.44859 0.32826 0.40517 0.0
C1319 C 0.47801 0.36963 0.44089 0.0
C1320 C 0.47541 0.36476 0.48126 0.0
C1321 C 0.47495 0.3621 0.40602 0.0
C1322 C 0.45388 0.33074 0.37686 0.0
H1323 H 0.44379 0.32311 0.16594 0.0
H1324 H 0.45361 0.33465 0.22808 0.0
H1325 H 0.44057 0.31533 0.34444 0.0
H1326 H 0.46845 0.34842 0.51727 0.0
H1327 H 0.46357 0.33541 0.45692 0.0
H1328 H 0.4799 0.3525 0.33409 0.0
C1329 C 0.4496 0.32503 0.22925 0.0
C1330 C 0.44925 0.32331 0.34206 0.0
C1331 C 0.44384 0.31838 0.19381 0.0
C1332 C 0.47037 0.35239 0.48637 0.0
C1333 C 0.4675 0.34492 0.45176 0.0
C1334 C 0.47131 0.34443 0.33676 0.0
C1335 C 0.4499 0.31931 0.26606 0.0
C1336 C 0.45547 0.32649 0.30404 0.0
C1337 C 0.46941 0.34962 0.41113 0.0
C1338 C 0.46492 0.34145 0.37456 0.0
H1339 H 0.43461 0.29047 0.23196 0.0
H1340 H 0.44455 0.30218 0.29476 0.0
H1341 H 0.47162 0.33962 0.27285 0.0
H1342 H 0.48188 0.37915 0.43622 0.0
H1343 H 0.47647 0.36602 0.37514 0.0
C1344 C 0.69906 0.14575 0.20911 0.0
C1345 C 0.7062 0.14078 0.19889 0.0
C1346 C 0.69123 0.14134 0.24304 0.0
C1347 C 0.67384 0.11298 0.29747 0.0
H1348 H 0.66557 0.131 0.37388 0.0
C1349 C 0.6437 0.09207 0.44039 0.0
C1350 C 0.63604 0.09627 0.45261 0.0
C1351 C 0.65149 0.09729 0.40691 0.0
C1352 C 0.66766 0.12585 0.35225 0.0
H1353 H 0.71126 0.12777 0.21624 0.0
H1354 H 0.6978 0.12021 0.27641 0.0
H1355 H 0.68213 0.14157 0.32494 0.0
H1356 H 0.62991 0.10867 0.43815 0.0
H1357 H 0.64356 0.11783 0.37887 0.0
H1358 H 0.6594 0.09727 0.32453 0.0
C1359 C 0.69817 0.12746 0.25824 0.0
C1360 C 0.67719 0.13191 0.3245 0.0
C1361 C 0.706 0.13189 0.22435 0.0
C1362 C 0.63573 0.10527 0.42913 0.0
C1363 C 0.64363 0.11059 0.39565 0.0
C1364 C 0.66432 0.10694 0.32507 0.0
C1365 C 0.69034 0.13178 0.26679 0.0
C1366 C 0.68046 0.12552 0.29715 0.0
C1367 C 0.65181 0.10685 0.38497 0.0
C1368 C 0.66119 0.1133 0.35305 0.0
H1369 H 0.69889 0.15241 0.18903 0.0
H1370 H 0.68526 0.1448 0.24865 0.0
H1371 H 0.67592 0.1078 0.27596 0.0
H1372 H 0.64391 0.08497 0.45744 0.0
H1373 H 0.65768 0.09421 0.39957 0.0
C1374 C 0.88852 0.52612 0.43891 0.0
C1375 C 0.90025 0.5328 0.45369 0.0
C1376 C 0.88466 0.53047 0.40595 0.0
C1377 C 0.89232 0.55944 0.35856 0.0
H1378 H 0.86951 0.54016 0.27313 0.0
C1379 C 0.88383 0.57864 0.20929 0.0
C1380 C 0.87205 0.57374 0.19498 0.0
C1381 C 0.88639 0.57383 0.24407 0.0
C1382 C 0.87574 0.54561 0.29725 0.0
H1383 H 0.91737 0.54876 0.44506 0.0
H1384 H 0.91088 0.55613 0.38624 0.0
H1385 H 0.87628 0.53069 0.3239 0.0
H1386 H 0.85362 0.56037 0.2064 0.0
H1387 H 0.85812 0.55177 0.26748 0.0
H1388 H 0.89202 0.57439 0.33122 0.0
C1389 C 0.90452 0.54773 0.40053 0.0
C1390 C 0.87965 0.5402 0.32621 0.0
C1391 C 0.9083 0.54345 0.43369 0.0
C1392 C 0.86277 0.56432 0.21717 0.0
C1393 C 0.86535 0.55935 0.2517 0.0
C1394 C 0.88849 0.56484 0.32948 0.0
C1395 C 0.89252 0.54155 0.38742 0.0
C1396 C 0.88812 0.5471 0.35683 0.0
C1397 C 0.87722 0.56392 0.26486 0.0
C1398 C 0.88028 0.558 0.29827 0.0
H1399 H 0.88213 0.51799 0.45468 0.0
H1400 H 0.87536 0.52551 0.3968 0.0
H1401 H 0.89857 0.56498 0.38249 0.0
H1402 H 0.89111 0.58602 0.19298 0.0
H1403 H 0.89562 0.57752 0.25347 0.0
C1404 C 0.52224 0.63753 0.53922 0.0
C1405 C 0.52567 0.629 0.53164 0.0
C1406 C 0.52715 0.64545 0.57264 0.0
C1407 C 0.54554 0.65224 0.66858 0.0
H1408 H 0.55603 0.68508 0.63796 0.0
C1409 C 0.57835 0.69085 0.77143 0.0
C1410 C 0.57516 0.69944 0.78143 0.0
C1411 C 0.57262 0.68277 0.73902 0.0
C1412 C 0.55307 0.67595 0.64708 0.0
H1413 H 0.5366 0.62173 0.55277 0.0
H1414 H 0.54531 0.63563 0.61143 0.0
H1415 H 0.54424 0.66903 0.58873 0.0
H1416 H 0.56418 0.70701 0.76358 0.0
H1417 H 0.55409 0.69283 0.70655 0.0
H1418 H 0.5545 0.65919 0.72675 0.0
C1419 C 0.53862 0.63606 0.59231 0.0
C1420 C 0.54626 0.66674 0.61902 0.0
C1421 C 0.53361 0.62805 0.55897 0.0
C1422 C 0.56683 0.70047 0.75631 0.0
C1423 C 0.56103 0.69233 0.72384 0.0
C1424 C 0.55238 0.66145 0.69657 0.0
C1425 C 0.53575 0.64512 0.59854 0.0
C1426 C 0.54245 0.65478 0.6294 0.0
C1427 C 0.56355 0.68311 0.71602 0.0
C1428 C 0.55629 0.67341 0.68601 0.0
H1429 H 0.51627 0.6385 0.51787 0.0
H1430 H 0.52458 0.65217 0.57708 0.0
H1431 H 0.54263 0.64313 0.67772 0.0
H1432 H 0.58501 0.6901 0.78949 0.0
H1433 H 0.57503 0.676 0.73283 0.0
C1434 C 0.32394 0.89286 0.80417 0.0
C1435 C 0.31174 0.88428 0.80174 0.0
C1436 C 0.33186 0.8935 0.77336 0.0
C1437 C 0.33516 0.87544 0.69076 0.0
H1438 H 0.36042 0.90609 0.65125 0.0
C1439 C 0.35917 0.88262 0.53431 0.0
C1440 C 0.37126 0.89138 0.53099 0.0
C1441 C 0.3532 0.88061 0.57223 0.0
C1442 C 0.35359 0.89746 0.66264 0.0
H1443 H 0.29821 0.86987 0.76443 0.0
H1444 H 0.31204 0.87118 0.70984 0.0
H1445 H 0.34685 0.90537 0.70545 0.0
H1446 H 0.38684 0.90446 0.56487 0.0
H1447 H 0.37629 0.90103 0.63183 0.0
H1448 H 0.34169 0.86757 0.64676 0.0
C1449 C 0.3155 0.87725 0.73614 0.0
C1450 C 0.34576 0.89705 0.69353 0.0
C1451 C 0.30756 0.87658 0.76713 0.0
C1452 C 0.37753 0.8976 0.56686 0.0
C1453 C 0.37148 0.8957 0.60492 0.0
C1454 C 0.34296 0.87586 0.65973 0.0
C1455 C 0.32778 0.88561 0.73927 0.0
C1456 C 0.33634 0.88603 0.70747 0.0
C1457 C 0.35916 0.88744 0.60754 0.0
C1458 C 0.35213 0.88688 0.64487 0.0
H1459 H 0.3275 0.89884 0.83065 0.0
H1460 H 0.34126 0.89995 0.777 0.0
H1461 H 0.32817 0.86681 0.70151 0.0
H1462 H 0.35417 0.87772 0.50697 0.0
H1463 H 0.34371 0.87427 0.5731 0.0
C1464 C 0.12222 0.42046 0.77187 0.0
C1465 C 0.13363 0.42636 0.78984 0.0
C1466 C 0.11986 0.42494 0.73575 0.0
C1467 C 0.12809 0.45287 0.68649 0.0
H1468 H 0.11011 0.43335 0.59209 0.0
C1469 C 0.11318 0.47092 0.54596 0.0
C1470 C 0.10229 0.46286 0.52714 0.0
C1471 C 0.11781 0.46708 0.5781 0.0
C1472 C 0.11499 0.4389 0.61849 0.0
H1473 H 0.15165 0.44123 0.78406 0.0
H1474 H 0.14744 0.44932 0.72086 0.0
H1475 H 0.11742 0.42507 0.64509 0.0
H1476 H 0.08719 0.44491 0.52871 0.0
H1477 H 0.0949 0.43831 0.58593 0.0
H1478 H 0.12521 0.46654 0.66104 0.0
C1479 C 0.14039 0.44116 0.73455 0.0
C1480 C 0.11928 0.43418 0.64851 0.0
C1481 C 0.14282 0.4365 0.77029 0.0
C1482 C 0.09569 0.45121 0.54257 0.0
C1483 C 0.10018 0.44742 0.57499 0.0
C1484 C 0.12366 0.45757 0.65668 0.0
C1485 C 0.12882 0.43553 0.71755 0.0
C1486 C 0.1257 0.44105 0.68307 0.0
C1487 C 0.11151 0.45515 0.59204 0.0
C1488 C 0.11685 0.45055 0.62276 0.0
H1489 H 0.11504 0.41259 0.78646 0.0
H1490 H 0.11086 0.42048 0.72333 0.0
H1491 H 0.13292 0.4583 0.71321 0.0
H1492 H 0.11846 0.47993 0.53403 0.0
H1493 H 0.12656 0.47326 0.59047 0.0
C1494 C 0.13165 0.68915 0.80978 0.0
C1495 C 0.13761 0.70158 0.80433 0.0
C1496 C 0.12752 0.68152 0.77547 0.0
C1497 C 0.13034 0.68032 0.66069 0.0
H1498 H 0.09955 0.65142 0.67174 0.0
C1499 C 0.10427 0.65115 0.52048 0.0
C1500 C 0.09959 0.63877 0.52427 0.0
C1501 C 0.10907 0.65861 0.55501 0.0
C1502 C 0.10821 0.65939 0.66841 0.0
H1503 H 0.14415 0.71584 0.7587 0.0
H1504 H 0.13659 0.70244 0.69821 0.0
H1505 H 0.10772 0.6652 0.73049 0.0
H1506 H 0.09613 0.62447 0.56737 0.0
H1507 H 0.10442 0.63761 0.6284 0.0
H1508 H 0.1306 0.67459 0.59806 0.0
C1509 C 0.1353 0.6986 0.72916 0.0
C1510 C 0.11292 0.66729 0.70203 0.0
C1511 C 0.13959 0.70628 0.76371 0.0
C1512 C 0.09965 0.63397 0.56358 0.0
C1513 C 0.10436 0.64147 0.59841 0.0
C1514 C 0.12556 0.67247 0.62692 0.0
C1515 C 0.12909 0.68612 0.73476 0.0
C1516 C 0.12407 0.67784 0.69863 0.0
C1517 C 0.10922 0.65387 0.59424 0.0
C1518 C 0.11445 0.66195 0.6305 0.0
H1519 H 0.13017 0.68526 0.84075 0.0
H1520 H 0.12308 0.67199 0.78096 0.0
H1521 H 0.13902 0.68825 0.65719 0.0
H1522 H 0.10445 0.65516 0.49057 0.0
H1523 H 0.11262 0.66812 0.55105 0.0
C1524 C 0.31002 0.4525 0.77893 0.0
C1525 C 0.29813 0.44323 0.78196 0.0
C1526 C 0.31617 0.45479 0.74131 0.0
C1527 C 0.31723 0.43852 0.65128 0.0
H1528 H 0.34147 0.46985 0.61307 0.0
C1529 C 0.34752 0.44528 0.50959 0.0
C1530 C 0.35957 0.45429 0.51219 0.0
C1531 C 0.33943 0.44405 0.54062 0.0
C1532 C 0.33482 0.46104 0.62366 0.0
H1533 H 0.28307 0.42947 0.7479 0.0
H1534 H 0.29394 0.43341 0.68137 0.0
H1535 H 0.32741 0.46814 0.6673 0.0
H1536 H 0.37263 0.46892 0.55 0.0
H1537 H 0.35847 0.46663 0.60492 0.0
H1538 H 0.32482 0.4314 0.60864 0.0
C1539 C 0.29845 0.43892 0.70829 0.0
C1540 C 0.32671 0.46007 0.65439 0.0
C1541 C 0.29221 0.43673 0.74608 0.0
C1542 C 0.36342 0.46187 0.54718 0.0
C1543 C 0.35528 0.46063 0.57836 0.0
C1544 C 0.32536 0.43949 0.62063 0.0
C1545 C 0.3106 0.44775 0.70599 0.0
C1546 C 0.31795 0.4488 0.66898 0.0
C1547 C 0.34316 0.4518 0.57507 0.0
C1548 C 0.33435 0.45077 0.60693 0.0
H1549 H 0.31476 0.45762 0.80632 0.0
H1550 H 0.32554 0.46157 0.74072 0.0
H1551 H 0.31073 0.42972 0.66247 0.0
H1552 H 0.34419 0.43938 0.48283 0.0
H1553 H 0.33014 0.43725 0.53685 0.0
C1554 C 0.55394 0.8711 0.81619 0.0
C1555 C 0.55993 0.86465 0.81111 0.0
C1556 C 0.54875 0.87346 0.78211 0.0
C1557 C 0.53956 0.86519 0.67149 0.0
H1558 H 0.5435 0.89695 0.66736 0.0
C1559 C 0.52644 0.8956 0.55901 0.0
C1560 C 0.53127 0.89441 0.52121 0.0
C1561 C 0.52813 0.8908 0.59592 0.0
C1562 C 0.54215 0.88799 0.66843 0.0
H1563 H 0.56499 0.85533 0.76664 0.0
H1564 H 0.55627 0.85984 0.70629 0.0
H1565 H 0.55034 0.89086 0.72842 0.0
H1566 H 0.54115 0.88686 0.49187 0.0
H1567 H 0.54396 0.87845 0.55587 0.0
H1568 H 0.53187 0.86261 0.61035 0.0
C1569 C 0.55535 0.86286 0.73691 0.0
C1570 C 0.54606 0.88446 0.70341 0.0
C1571 C 0.56041 0.86033 0.77134 0.0
C1572 C 0.53741 0.88801 0.52064 0.0
C1573 C 0.53893 0.88309 0.55719 0.0
C1574 C 0.53577 0.86877 0.63627 0.0
C1575 C 0.54959 0.8696 0.74188 0.0
C1576 C 0.54491 0.87306 0.70525 0.0
C1577 C 0.53445 0.88456 0.59526 0.0
C1578 C 0.53715 0.88025 0.63427 0.0
H1579 H 0.55325 0.87437 0.84667 0.0
H1580 H 0.54413 0.87839 0.78737 0.0
H1581 H 0.53834 0.85627 0.67215 0.0
H1582 H 0.52166 0.90048 0.56023 0.0
H1583 H 0.52458 0.89203 0.62499 0.0
C1584 C 0.38371 0.11705 0.12934 0.0
C1585 C 0.38973 0.11053 0.12712 0.0
C1586 C 0.37141 0.11125 0.1371 0.0
C1587 C 0.34436 0.08189 0.12725 0.0
H1588 H 0.33073 0.09354 0.21003 0.0
C1589 C 0.29642 0.05268 0.18558 0.0
C1590 C 0.28939 0.05798 0.19289 0.0
C1591 C 0.30858 0.05968 0.17702 0.0
C1592 C 0.33437 0.09027 0.18636 0.0
H1593 H 0.38752 0.09278 0.13174 0.0
H1594 H 0.36616 0.08273 0.14502 0.0
H1595 H 0.35218 0.10481 0.19587 0.0
H1596 H 0.28971 0.07489 0.19723 0.0
H1597 H 0.31099 0.08714 0.18158 0.0
H1598 H 0.32666 0.06742 0.11739 0.0
C1599 C 0.37093 0.09231 0.14052 0.0
C1600 C 0.34665 0.09671 0.17834 0.0
C1601 C 0.3832 0.0981 0.13315 0.0
C1602 C 0.29487 0.07051 0.1918 0.0
C1603 C 0.30707 0.07753 0.18301 0.0
C1604 C 0.33211 0.07551 0.13503 0.0
C1605 C 0.36489 0.0988 0.14232 0.0
C1606 C 0.35179 0.09247 0.14918 0.0
C1607 C 0.31405 0.07218 0.17524 0.0
C1608 C 0.32698 0.07949 0.16519 0.0
H1609 H 0.38847 0.12664 0.12494 0.0
H1610 H 0.36697 0.11646 0.13816 0.0
H1611 H 0.34804 0.07854 0.10399 0.0
H1612 H 0.29256 0.04308 0.18655 0.0
H1613 H 0.31373 0.05526 0.17214 0.0
C1614 C 0.90278 0.28727 0.14934 0.0
C1615 C 0.89081 0.2809 0.13619 0.0
C1616 C 0.90917 0.28137 0.15679 0.0
C1617 C 0.909 0.2531 0.13402 0.0
H1618 H 0.93262 0.2643 0.22267 0.0
C1619 C 0.93469 0.22887 0.18479 0.0
C1620 C 0.94711 0.23626 0.18949 0.0
C1621 C 0.92735 0.23383 0.17849 0.0
C1622 C 0.92609 0.26111 0.19767 0.0
H1623 H 0.87612 0.26326 0.12122 0.0
H1624 H 0.88717 0.25293 0.13533 0.0
H1625 H 0.92052 0.2737 0.21249 0.0
H1626 H 0.96152 0.25469 0.19117 0.0
H1627 H 0.94872 0.26328 0.18066 0.0
H1628 H 0.91454 0.24038 0.11981 0.0
C1629 C 0.89172 0.26254 0.13895 0.0
C1630 C 0.91918 0.26653 0.19168 0.0
C1631 C 0.88535 0.26846 0.13109 0.0
C1632 C 0.95201 0.24872 0.1876 0.0
C1633 C 0.94467 0.25366 0.18186 0.0
C1634 C 0.91584 0.24759 0.14035 0.0
C1635 C 0.90374 0.26892 0.15175 0.0
C1636 C 0.91065 0.26271 0.15941 0.0
C1637 C 0.93227 0.24628 0.17739 0.0
C1638 C 0.92456 0.25165 0.1719 0.0
H1639 H 0.90731 0.29687 0.15327 0.0
H1640 H 0.91846 0.28664 0.16579 0.0
H1641 H 0.90265 0.25001 0.10851 0.0
H1642 H 0.93062 0.21924 0.18602 0.0
H1643 H 0.91781 0.22794 0.17529 0.0
C1644 C 0.73548 0.61824 0.11608 0.0
C1645 C 0.7244 0.61103 0.13564 0.0
C1646 C 0.74185 0.63056 0.12308 0.0
C1647 C 0.75638 0.65576 0.1575 0.0
H1648 H 0.73821 0.67205 0.16838 0.0
C1649 C 0.77819 0.70565 0.20383 0.0
C1650 C 0.77353 0.71242 0.1861 0.0
C1651 C 0.77262 0.69333 0.19693 0.0
C1652 C 0.74346 0.66769 0.16492 0.0
H1653 H 0.71157 0.61109 0.17919 0.0
H1654 H 0.72281 0.63248 0.1923 0.0
H1655 H 0.7278 0.65059 0.15808 0.0
H1656 H 0.75965 0.7116 0.14577 0.0
H1657 H 0.75018 0.69025 0.13279 0.0
H1658 H 0.77206 0.67297 0.16285 0.0
C1659 C 0.72643 0.62868 0.17058 0.0
C1660 C 0.73746 0.65531 0.1597 0.0
C1661 C 0.72001 0.61639 0.16328 0.0
C1662 C 0.76341 0.70664 0.16028 0.0
C1663 C 0.75792 0.69437 0.15307 0.0
C1664 C 0.76239 0.66817 0.16242 0.0
C1665 C 0.73735 0.63597 0.1501 0.0
C1666 C 0.74382 0.64917 0.15602 0.0
C1667 C 0.76233 0.68751 0.17185 0.0
C1668 C 0.756 0.6743 0.16618 0.0
H1669 H 0.7391 0.61442 0.09444 0.0
H1670 H 0.75014 0.63589 0.10635 0.0
H1671 H 0.76158 0.65133 0.15521 0.0
H1672 H 0.78594 0.7098 0.22403 0.0
H1673 H 0.7762 0.68834 0.2123 0.0
C1674 C 0.07229 0.28339 0.79966 0.0
C1675 C 0.05973 0.27718 0.80033 0.0
C1676 C 0.07875 0.2955 0.81045 0.0
C1677 C 0.07546 0.31945 0.86293 0.0
H1678 H 0.10367 0.34064 0.79872 0.0
C1679 C 0.09514 0.37032 0.8586 0.0
C1680 C 0.10755 0.37756 0.86382 0.0
C1681 C 0.08996 0.358 0.85354 0.0
C1682 C 0.09589 0.3348 0.81721 0.0
H1683 H 0.04414 0.27886 0.81281 0.0
H1684 H 0.05533 0.29992 0.83038 0.0
H1685 H 0.09335 0.3192 0.78497 0.0
H1686 H 0.12427 0.37749 0.86738 0.0
H1687 H 0.11518 0.35588 0.85769 0.0
H1688 H 0.07779 0.33515 0.89401 0.0
C1689 C 0.06025 0.29543 0.82263 0.0
C1690 C 0.08998 0.32251 0.80947 0.0
C1691 C 0.0538 0.28333 0.81226 0.0
C1692 C 0.11468 0.37217 0.86352 0.0
C1693 C 0.1095 0.35982 0.85783 0.0
C1694 C 0.08128 0.33173 0.87028 0.0
C1695 C 0.07281 0.30169 0.82183 0.0
C1696 C 0.07959 0.31468 0.83187 0.0
C1697 C 0.09708 0.35263 0.85305 0.0
C1698 C 0.09146 0.33954 0.84716 0.0
H1699 H 0.07715 0.27892 0.79086 0.0
H1700 H 0.08841 0.29997 0.81006 0.0
H1701 H 0.06767 0.3137 0.88152 0.0
H1702 H 0.08937 0.37416 0.8588 0.0
H1703 H 0.08038 0.35268 0.84948 0.0
C1704 C 0.71827 0.7816 0.80694 0.0
C1705 C 0.72409 0.77487 0.80715 0.0
C1706 C 0.70627 0.7764 0.81868 0.0
C1707 C 0.6819 0.74986 0.87263 0.0
H1708 H 0.66116 0.75679 0.80531 0.0
C1709 C 0.63101 0.71897 0.86648 0.0
C1710 C 0.62375 0.7242 0.86802 0.0
C1711 C 0.64339 0.72606 0.86293 0.0
C1712 C 0.66687 0.75489 0.82475 0.0
H1713 H 0.72183 0.75739 0.82048 0.0
H1714 H 0.70095 0.74832 0.83999 0.0
H1715 H 0.68263 0.76759 0.79242 0.0
H1716 H 0.62384 0.74103 0.86701 0.0
H1717 H 0.64554 0.75342 0.86023 0.0
H1718 H 0.66605 0.73687 0.90392 0.0
C1719 C 0.70569 0.75768 0.83159 0.0
C1720 C 0.67918 0.7611 0.81746 0.0
C1721 C 0.71767 0.76289 0.8201 0.0
C1722 C 0.62917 0.73671 0.86596 0.0
C1723 C 0.64158 0.74381 0.86191 0.0
C1724 C 0.6696 0.7436 0.87965 0.0
C1725 C 0.69979 0.76434 0.83074 0.0
C1726 C 0.68684 0.75852 0.84087 0.0
C1727 C 0.6488 0.73854 0.86045 0.0
C1728 C 0.66193 0.74592 0.85535 0.0
H1729 H 0.72295 0.79087 0.79736 0.0
H1730 H 0.70206 0.78184 0.81822 0.0
H1731 H 0.68754 0.74783 0.89189 0.0
H1732 H 0.62715 0.70938 0.86809 0.0
H1733 H 0.64871 0.72174 0.86136 0.0
C1734 C 0.21842 0.93746 0.79627 0.0
C1735 C 0.22331 0.9499 0.79876 0.0
C1736 C 0.22551 0.9323 0.80383 0.0
C1737 C 0.25432 0.9387 0.85204 0.0
H1738 H 0.24944 0.91137 0.78654 0.0
C1739 C 0.28748 0.92114 0.85402 0.0
C1740 C 0.28257 0.90873 0.8585 0.0
C1741 C 0.28012 0.92599 0.84646 0.0
C1742 C 0.25084 0.91894 0.80529 0.0
H1743 H 0.23955 0.96667 0.81078 0.0
H1744 H 0.25195 0.95773 0.82283 0.0
H1745 H 0.23694 0.92024 0.77383 0.0
H1746 H 0.26607 0.89169 0.85772 0.0
H1747 H 0.25325 0.9002 0.84403 0.0
H1748 H 0.26839 0.93751 0.88284 0.0
C1749 C 0.24257 0.9519 0.81606 0.0
C1750 C 0.24365 0.92401 0.79814 0.0
C1751 C 0.23546 0.95706 0.80891 0.0
C1752 C 0.27014 0.90128 0.85452 0.0
C1753 C 0.2628 0.90614 0.84648 0.0
C1754 C 0.26157 0.9337 0.85886 0.0
C1755 C 0.2377 0.93945 0.8137 0.0
C1756 C 0.24529 0.93397 0.82142 0.0
C1757 C 0.26771 0.91855 0.84276 0.0
C1758 C 0.25992 0.92378 0.83555 0.0
H1759 H 0.20908 0.93167 0.78879 0.0
H1760 H 0.22138 0.92268 0.80241 0.0
H1761 H 0.25571 0.9462 0.87118 0.0
H1762 H 0.297 0.92715 0.85692 0.0
H1763 H 0.28417 0.93557 0.84328 0.0
C1764 C 0.70731 0.92902 0.78095 0.0
C1765 C 0.71246 0.94143 0.77562 0.0
C1766 C 0.69498 0.92182 0.78689 0.0
C1767 C 0.66648 0.92103 0.76885 0.0
H1768 H 0.65455 0.89864 0.86118 0.0
C1769 C 0.61877 0.90197 0.83156 0.0
C1770 C 0.6126 0.8902 0.84672 0.0
C1771 C 0.63071 0.90719 0.81946 0.0
C1772 C 0.65769 0.90468 0.83477 0.0
H1773 H 0.70864 0.95596 0.77191 0.0
H1774 H 0.68722 0.94341 0.78196 0.0
H1775 H 0.67592 0.90958 0.84619 0.0
H1776 H 0.61416 0.87458 0.86003 0.0
H1777 H 0.63498 0.88364 0.83815 0.0
H1778 H 0.64833 0.91622 0.75731 0.0
C1779 C 0.6927 0.93925 0.78145 0.0
C1780 C 0.66995 0.91097 0.82628 0.0
C1781 C 0.705 0.94645 0.77599 0.0
C1782 C 0.61863 0.88368 0.84867 0.0
C1783 C 0.6306 0.8889 0.83634 0.0
C1784 C 0.65424 0.91469 0.7771 0.0
C1785 C 0.68755 0.92687 0.78705 0.0
C1786 C 0.67448 0.91938 0.79375 0.0
C1787 C 0.63681 0.90076 0.8219 0.0
C1788 C 0.6497 0.90662 0.81071 0.0
H1789 H 0.7128 0.92487 0.78088 0.0
H1790 H 0.69123 0.9123 0.79096 0.0
H1791 H 0.6697 0.92731 0.7431 0.0
H1792 H 0.61445 0.9073 0.82979 0.0
H1793 H 0.63524 0.9164 0.80922 0.0
C1794 C 0.05253 0.75889 0.80513 0.0
C1795 C 0.0576 0.77113 0.79629 0.0
C1796 C 0.05977 0.75398 0.81353 0.0
C1797 C 0.0896 0.76106 0.8487 0.0
H1798 H 0.08186 0.73153 0.79212 0.0
C1799 C 0.11892 0.73883 0.8635 0.0
C1800 C 0.1128 0.7263 0.86664 0.0
C1801 C 0.11274 0.74485 0.85392 0.0
C1802 C 0.08408 0.7397 0.80858 0.0
H1803 H 0.07432 0.78786 0.7905 0.0
H1804 H 0.08698 0.77924 0.8056 0.0
H1805 H 0.06998 0.74097 0.77856 0.0
H1806 H 0.09534 0.71033 0.86279 0.0
H1807 H 0.08463 0.72078 0.84708 0.0
H1808 H 0.10357 0.75965 0.87942 0.0
C1809 C 0.07737 0.77348 0.80589 0.0
C1810 C 0.07728 0.74512 0.80071 0.0
C1811 C 0.07011 0.77839 0.79708 0.0
C1812 C 0.10038 0.71997 0.86025 0.0
C1813 C 0.09422 0.72597 0.85096 0.0
C1814 C 0.09638 0.75557 0.85687 0.0
C1815 C 0.07227 0.76119 0.81364 0.0
C1816 C 0.07987 0.75578 0.821 0.0
C1817 C 0.10031 0.73848 0.84744 0.0
C1818 C 0.0936 0.74474 0.83725 0.0
H1819 H 0.04294 0.75302 0.80488 0.0
H1820 H 0.05558 0.74451 0.81997 0.0
H1821 H 0.09176 0.76925 0.86495 0.0
H1822 H 0.12849 0.74398 0.86814 0.0
H1823 H 0.11772 0.75448 0.85106 0.0
C1824 C 0.24821 0.30124 0.79369 0.0
C1825 C 0.23574 0.29386 0.79099 0.0
C1826 C 0.25332 0.31358 0.79819 0.0
C1827 C 0.24733 0.33669 0.83624 0.0
H1828 H 0.27449 0.35785 0.76762 0.0
C1829 C 0.26871 0.38801 0.84552 0.0
C1830 C 0.28121 0.39488 0.84244 0.0
C1831 C 0.26277 0.37575 0.83732 0.0
C1832 C 0.26701 0.35209 0.78745 0.0
H1833 H 0.21887 0.29368 0.79122 0.0
H1834 H 0.22786 0.31529 0.79972 0.0
H1835 H 0.26486 0.33633 0.75735 0.0
H1836 H 0.29728 0.39419 0.82852 0.0
H1837 H 0.28699 0.37282 0.81544 0.0
H1838 H 0.24965 0.35236 0.86727 0.0
C1839 C 0.23363 0.31147 0.79819 0.0
C1840 C 0.26147 0.33976 0.78139 0.0
C1841 C 0.2285 0.29911 0.79313 0.0
C1842 C 0.28763 0.3892 0.83089 0.0
C1843 C 0.28171 0.37692 0.82312 0.0
C1844 C 0.25295 0.34903 0.84265 0.0
C1845 C 0.24609 0.31883 0.80057 0.0
C1846 C 0.25162 0.33193 0.80588 0.0
C1847 C 0.26919 0.37002 0.82624 0.0
C1848 C 0.26292 0.3569 0.81851 0.0
H1849 H 0.25406 0.29751 0.79206 0.0
H1850 H 0.26295 0.31902 0.80038 0.0
H1851 H 0.23982 0.33085 0.85586 0.0
H1852 H 0.26347 0.39211 0.85406 0.0
H1853 H 0.25312 0.37078 0.83936 0.0
C1854 C 0.95179 0.71732 0.16755 0.0
C1855 C 0.94586 0.72357 0.17815 0.0
C1856 C 0.94536 0.70506 0.15987 0.0
C1857 C 0.91616 0.68016 0.12982 0.0
H1858 H 0.92697 0.66096 0.18775 0.0
C1859 C 0.89037 0.62831 0.12268 0.0
C1860 C 0.89728 0.62269 0.12111 0.0
C1861 C 0.89578 0.64062 0.12984 0.0
C1862 C 0.92391 0.66617 0.17083 0.0
H1863 H 0.92844 0.72185 0.18751 0.0
H1864 H 0.91719 0.70038 0.17346 0.0
H1865 H 0.93743 0.68246 0.1982 0.0
H1866 H 0.91534 0.62569 0.12471 0.0
H1867 H 0.92474 0.64704 0.13593 0.0
H1868 H 0.9028 0.6639 0.10161 0.0
C1869 C 0.92685 0.70504 0.17137 0.0
C1870 C 0.92989 0.6785 0.17698 0.0
C1871 C 0.93329 0.71731 0.17956 0.0
C1872 C 0.90971 0.62968 0.12624 0.0
C1873 C 0.91511 0.64195 0.13295 0.0
C1874 C 0.91023 0.6678 0.12326 0.0
C1875 C 0.93284 0.69877 0.16216 0.0
C1876 C 0.92616 0.68564 0.15629 0.0
C1877 C 0.90823 0.64759 0.13526 0.0
C1878 C 0.91411 0.66066 0.14339 0.0
H1879 H 0.96145 0.72183 0.16613 0.0
H1880 H 0.9502 0.70046 0.15233 0.0
H1881 H 0.91313 0.68547 0.11335 0.0
H1882 H 0.88077 0.62318 0.11895 0.0
H1883 H 0.89019 0.64463 0.13182 0.0
C1884 C 0.37991 0.26841 0.14388 0.0
C1885 C 0.38569 0.28096 0.14455 0.0
C1886 C 0.36766 0.26155 0.152 0.0
C1887 C 0.34024 0.26306 0.14535 0.0
H1888 H 0.32683 0.23628 0.22209 0.0
C1889 C 0.29092 0.24025 0.19356 0.0
C1890 C 0.28464 0.22781 0.19927 0.0
C1891 C 0.30327 0.24638 0.18771 0.0
C1892 C 0.3304 0.24362 0.20007 0.0
H1893 H 0.3831 0.29611 0.15498 0.0
H1894 H 0.36176 0.28414 0.16863 0.0
H1895 H 0.3484 0.24752 0.21043 0.0
H1896 H 0.28645 0.21205 0.20337 0.0
H1897 H 0.30799 0.22271 0.19191 0.0
H1898 H 0.32237 0.25911 0.13405 0.0
C1899 C 0.36672 0.27962 0.16176 0.0
C1900 C 0.34276 0.25007 0.19355 0.0
C1901 C 0.37896 0.28647 0.15418 0.0
C1902 C 0.29103 0.22165 0.19922 0.0
C1903 C 0.3034 0.22778 0.19287 0.0
C1904 C 0.32791 0.25655 0.15145 0.0
C1905 C 0.36091 0.2671 0.16038 0.0
C1906 C 0.3478 0.25994 0.16649 0.0
C1907 C 0.30968 0.24023 0.18682 0.0
C1908 C 0.32282 0.24682 0.17928 0.0
H1909 H 0.38483 0.26388 0.13668 0.0
H1910 H 0.36339 0.25191 0.15058 0.0
H1911 H 0.34387 0.2705 0.12371 0.0
H1912 H 0.28631 0.24531 0.19391 0.0
H1913 H 0.3078 0.25599 0.18419 0.0
C1914 C 0.71934 0.09949 0.14511 0.0
C1915 C 0.72509 0.11155 0.13302 0.0
C1916 C 0.7259 0.09376 0.15233 0.0
C1917 C 0.75566 0.09906 0.18002 0.0
H1918 H 0.74414 0.06753 0.13294 0.0
C1919 C 0.78186 0.07354 0.19517 0.0
C1920 C 0.77507 0.06114 0.20166 0.0
C1921 C 0.77626 0.08014 0.18575 0.0
C1922 C 0.74742 0.07626 0.1468 0.0
H1923 H 0.74233 0.12709 0.11961 0.0
H1924 H 0.75379 0.11706 0.13267 0.0
H1925 H 0.7334 0.07816 0.11896 0.0
H1926 H 0.75701 0.04604 0.20437 0.0
H1927 H 0.74731 0.05751 0.18909 0.0
H1928 H 0.76953 0.09706 0.20869 0.0
C1929 C 0.74418 0.11207 0.13645 0.0
C1930 C 0.74127 0.08237 0.13864 0.0
C1931 C 0.7376 0.11778 0.12877 0.0
C1932 C 0.76256 0.05555 0.19913 0.0
C1933 C 0.75697 0.06213 0.19006 0.0
C1934 C 0.76177 0.0929 0.18853 0.0
C1935 C 0.73838 0.09998 0.14803 0.0
C1936 C 0.74526 0.09377 0.15546 0.0
C1937 C 0.76373 0.07449 0.18285 0.0
C1938 C 0.75764 0.08136 0.17237 0.0
H1939 H 0.70973 0.09441 0.1487 0.0
H1940 H 0.7212 0.08447 0.16168 0.0
H1941 H 0.75889 0.10781 0.19364 0.0
H1942 H 0.79152 0.07813 0.19677 0.0
H1943 H 0.78175 0.08963 0.18002 0.0
C1944 C 0.04551 0.42722 0.47063 0.0
C1945 C 0.05265 0.43959 0.46417 0.0
C1946 C 0.03322 0.42204 0.47651 0.0
C1947 C 0.00961 0.42768 0.51057 0.0
H1948 H 0.98927 0.39917 0.44623 0.0
C1949 C 0.95781 0.40261 0.52253 0.0
C1950 C 0.95207 0.39006 0.52256 0.0
C1951 C 0.97002 0.40946 0.51358 0.0
C1952 C 0.99481 0.40705 0.46477 0.0
H1953 H 0.05247 0.45625 0.45996 0.0
H1954 H 0.0309 0.44712 0.47094 0.0
H1955 H 0.01076 0.40969 0.43496 0.0
H1956 H 0.95476 0.37492 0.51381 0.0
H1957 H 0.97593 0.38678 0.49922 0.0
H1958 H 0.99367 0.42483 0.54135 0.0
C1959 C 0.0349 0.44149 0.47114 0.0
C1960 C 0.00711 0.41309 0.45817 0.0
C1961 C 0.04722 0.4467 0.46473 0.0
C1962 C 0.95883 0.38455 0.51371 0.0
C1963 C 0.971 0.39137 0.50504 0.0
C1964 C 0.99726 0.42156 0.5175 0.0
C1965 C 0.02778 0.42909 0.47649 0.0
C1966 C 0.01466 0.42334 0.48146 0.0
C1967 C 0.97675 0.40391 0.5046 0.0
C1968 C 0.98974 0.41104 0.49517 0.0
H1969 H 0.04935 0.42146 0.47042 0.0
H1970 H 0.02796 0.41248 0.48113 0.0
H1971 H 0.01524 0.43554 0.52905 0.0
H1972 H 0.95287 0.40715 0.52913 0.0
H1973 H 0.97415 0.41909 0.51318 0.0
C1974 C 0.60134 0.56121 0.5011 0.0
C1975 C 0.61178 0.56755 0.52488 0.0
C1976 C 0.59437 0.56637 0.49112 0.0
C1977 C 0.59546 0.596 0.4923 0.0
H1978 H 0.56151 0.57613 0.47285 0.0
C1979 C 0.56742 0.61723 0.44281 0.0
C1980 C 0.5554 0.61167 0.45479 0.0
C1981 C 0.57404 0.61149 0.44882 0.0
C1982 C 0.57094 0.58189 0.47886 0.0
H1983 H 0.62288 0.58398 0.55851 0.0
H1984 H 0.6104 0.59264 0.54404 0.0
H1985 H 0.5732 0.5669 0.49085 0.0
H1986 H 0.54083 0.59588 0.48283 0.0
H1987 H 0.55251 0.5862 0.4963 0.0
H1988 H 0.59309 0.611 0.48386 0.0
C1989 C 0.60782 0.58398 0.53076 0.0
C1990 C 0.57775 0.57653 0.48838 0.0
C1991 C 0.61496 0.57898 0.53953 0.0
C1992 C 0.55009 0.6003 0.47304 0.0
C1993 C 0.55681 0.59472 0.48038 0.0
C1994 C 0.5886 0.60135 0.48407 0.0
C1995 C 0.59749 0.57786 0.50583 0.0
C1996 C 0.59014 0.5835 0.49526 0.0
C1997 C 0.56892 0.60022 0.46839 0.0
C1998 C 0.57622 0.59441 0.47701 0.0
H1999 H 0.59875 0.55239 0.48928 0.0
H2000 H 0.58666 0.56139 0.47125 0.0
H2001 H 0.60498 0.60176 0.49622 0.0
H2002 H 0.57167 0.62594 0.42815 0.0
H2003 H 0.58317 0.61595 0.43782 0.0
C2004 C 0.423 0.03297 0.54468 0.0
C2005 C 0.4355 0.04019 0.54502 0.0
C2006 C 0.41762 0.02072 0.53735 0.0
C2007 C 0.42345 0.99536 0.53578 0.0
H2008 H 0.39442 0.98048 0.4696 0.0
C2009 C 0.40129 0.94673 0.47295 0.0
C2010 C 0.3888 0.93981 0.47717 0.0
C2011 C 0.40727 0.95893 0.4824 0.0
C2012 C 0.40247 0.98449 0.48843 0.0
H2013 H 0.45216 0.04014 0.53822 0.0
H2014 H 0.44275 0.01875 0.52435 0.0
H2015 H 0.40445 0.00185 0.48307 0.0
H2016 H 0.37286 0.9403 0.49511 0.0
H2017 H 0.38331 0.96157 0.51122 0.0
H2018 H 0.42149 0.97792 0.54026 0.0
C2019 C 0.4371 0.02255 0.53054 0.0
C2020 C 0.40821 0.99674 0.49629 0.0
C2021 C 0.44251 0.03483 0.53829 0.0
C2022 C 0.38247 0.94534 0.49145 0.0
C2023 C 0.38845 0.95755 0.50047 0.0
C2024 C 0.41774 0.98309 0.52755 0.0
C2025 C 0.42458 0.01535 0.52969 0.0
C2026 C 0.41872 0.00233 0.5204 0.0
C2027 C 0.40089 0.96448 0.49582 0.0
C2028 C 0.40713 0.97752 0.50408 0.0
H2029 H 0.41732 0.03677 0.55025 0.0
H2030 H 0.40797 0.01545 0.53795 0.0
H2031 H 0.43143 0.99932 0.55487 0.0
H2032 H 0.40645 0.94276 0.46216 0.0
H2033 H 0.41687 0.96407 0.47828 0.0
C2034 C 0.59901 0.04176 0.52776 0.0
C2035 C 0.61151 0.04716 0.53026 0.0
C2036 C 0.59191 0.02938 0.523 0.0
C2037 C 0.59188 0.00142 0.5419 0.0
H2038 H 0.56798 0.98814 0.45435 0.0
C2039 C 0.57147 0.95262 0.48898 0.0
C2040 C 0.55951 0.94636 0.47575 0.0
C2041 C 0.57699 0.96477 0.49849 0.0
C2042 C 0.57445 0.99167 0.47947 0.0
H2043 H 0.62633 0.04375 0.52998 0.0
H2044 H 0.61394 0.0222 0.52217 0.0
H2045 H 0.57906 0.0097 0.46568 0.0
H2046 H 0.54387 0.94795 0.4632 0.0
H2047 H 0.55343 0.96911 0.48083 0.0
H2048 H 0.58729 0.98348 0.55609 0.0
C2049 C 0.60965 0.02755 0.52388 0.0
C2050 C 0.58083 0.00402 0.48582 0.0
C2051 C 0.61674 0.03991 0.52806 0.0
C2052 C 0.55312 0.9525 0.47309 0.0
C2053 C 0.55863 0.96466 0.48295 0.0
C2054 C 0.58544 0.98907 0.53589 0.0
C2055 C 0.59717 0.02216 0.52131 0.0
C2056 C 0.58975 0.00903 0.5166 0.0
C2057 C 0.57067 0.97098 0.49544 0.0
C2058 C 0.57679 0.98404 0.50408 0.0
H2059 H 0.5947 0.0471 0.52928 0.0
H2060 H 0.5823 0.02544 0.52123 0.0
H2061 H 0.59858 0.00503 0.56631 0.0
H2062 H 0.5767 0.94821 0.49113 0.0
H2063 H 0.58633 0.96934 0.5072 0.0
C2064 C 0.95552 0.57089 0.51088 0.0
C2065 C 0.94886 0.55861 0.51979 0.0
C2066 C 0.96782 0.57648 0.50463 0.0
C2067 C 0.99218 0.5715 0.47375 0.0
H2068 H 0.01189 0.60165 0.53042 0.0
C2069 C 0.04399 0.59813 0.45956 0.0
C2070 C 0.0493 0.61061 0.45644 0.0
C2071 C 0.03181 0.59107 0.46888 0.0
C2072 C 0.00652 0.5933 0.51398 0.0
H2073 H 0.94996 0.54254 0.52825 0.0
H2074 H 0.97156 0.55237 0.51673 0.0
H2075 H 0.99048 0.59061 0.54319 0.0
H2076 H 0.04587 0.6254 0.45974 0.0
H2077 H 0.02476 0.61315 0.47496 0.0
H2078 H 0.0082 0.57437 0.44361 0.0
C2079 C 0.96716 0.55761 0.51481 0.0
C2080 C 0.99426 0.58697 0.52145 0.0
C2081 C 0.95482 0.55201 0.52156 0.0
C2082 C 0.04213 0.61583 0.46231 0.0
C2083 C 0.03001 0.6088 0.47135 0.0
C2084 C 0.00448 0.57791 0.46596 0.0
C2085 C 0.97379 0.56993 0.50676 0.0
C2086 C 0.98692 0.5761 0.50094 0.0
C2087 C 0.02469 0.59634 0.47514 0.0
C2088 C 0.01177 0.589 0.48547 0.0
H2089 H 0.95126 0.57627 0.50924 0.0
H2090 H 0.97268 0.58596 0.49792 0.0
H2091 H 0.98671 0.56317 0.45738 0.0
H2092 H 0.04925 0.59381 0.45529 0.0
H2093 H 0.02803 0.58151 0.47186 0.0
C2094 C 0.40214 0.43881 0.45764 0.0
C2095 C 0.38972 0.4313 0.4538 0.0
C2096 C 0.40955 0.43404 0.46619 0.0
C2097 C 0.40846 0.40656 0.50667 0.0
H2098 H 0.43935 0.4194 0.45287 0.0
C2099 C 0.43449 0.38141 0.50739 0.0
C2100 C 0.44656 0.38794 0.51937 0.0
C2101 C 0.42812 0.38723 0.49847 0.0
C2102 C 0.43078 0.41579 0.46833 0.0
H2103 H 0.37539 0.41284 0.45532 0.0
H2104 H 0.38824 0.40456 0.46912 0.0
H2105 H 0.4271 0.42859 0.43984 0.0
H2106 H 0.46151 0.40579 0.52961 0.0
H2107 H 0.45034 0.41596 0.51345 0.0
H2108 H 0.41203 0.39361 0.53437 0.0
C2109 C 0.39228 0.41416 0.46667 0.0
C2110 C 0.42378 0.42108 0.46103 0.0
C2111 C 0.3849 0.41892 0.4585 0.0
C2112 C 0.45222 0.40048 0.52061 0.0
C2113 C 0.44585 0.40632 0.51125 0.0
C2114 C 0.41539 0.40123 0.51359 0.0
C2115 C 0.4047 0.42165 0.47083 0.0
C2116 C 0.41247 0.41645 0.47983 0.0
C2117 C 0.43367 0.39972 0.50092 0.0
C2118 C 0.42657 0.40571 0.49422 0.0
H2119 H 0.40616 0.4484 0.45431 0.0
H2120 H 0.41904 0.44009 0.46967 0.0
H2121 H 0.39995 0.40293 0.52253 0.0
H2122 H 0.42983 0.37175 0.50596 0.0
H2123 H 0.41878 0.38193 0.48999 0.0
C2124 C 0.26093 0.09024 0.281 0.0
C2125 C 0.25006 0.07987 0.29024 0.0
C2126 C 0.26243 0.10155 0.28889 0.0
C2127 C 0.24912 0.1174 0.34492 0.0
H2128 H 0.26291 0.14006 0.25388 0.0
C2129 C 0.23942 0.15576 0.3174 0.0
C2130 C 0.24836 0.16652 0.3 0.0
C2131 C 0.24139 0.14619 0.32358 0.0
C2132 C 0.25925 0.13396 0.28003 0.0
H2133 H 0.2324 0.07329 0.31665 0.0
H2134 H 0.23495 0.09295 0.32987 0.0
H2135 H 0.26318 0.1214 0.25114 0.0
H2136 H 0.26666 0.17591 0.2778 0.0
H2137 H 0.27013 0.15921 0.2889 0.0
H2138 H 0.24486 0.12984 0.37311 0.0
C2139 C 0.24239 0.09238 0.31695 0.0
C2140 C 0.2594 0.12324 0.27845 0.0
C2141 C 0.2409 0.08108 0.30908 0.0
C2142 C 0.25955 0.16772 0.29105 0.0
C2143 C 0.26152 0.15813 0.29715 0.0
C2144 C 0.24896 0.12813 0.34647 0.0
C2145 C 0.25309 0.10276 0.30623 0.0
C2146 C 0.25412 0.11471 0.31045 0.0
C2147 C 0.25236 0.14715 0.31249 0.0
C2148 C 0.25381 0.13643 0.31363 0.0
H2149 H 0.2682 0.08963 0.26669 0.0
H2150 H 0.27085 0.10936 0.28082 0.0
H2151 H 0.24516 0.11113 0.37045 0.0
H2152 H 0.2307 0.15454 0.32477 0.0
H2153 H 0.2341 0.13785 0.33512 0.0
C2154 C 0.84751 0.08765 0.31322 0.0
C2155 C 0.83801 0.08615 0.28771 0.0
C2156 C 0.85773 0.09887 0.31761 0.0
C2157 C 0.86997 0.13135 0.3009 0.0
H2158 H 0.90007 0.13175 0.29216 0.0
C2159 C 0.91513 0.17417 0.2665 0.0
C2160 C 0.92546 0.17533 0.28556 0.0
C2161 C 0.9041 0.16372 0.27154 0.0
C2162 C 0.89177 0.13182 0.29536 0.0
H2163 H 0.8316 0.09538 0.24811 0.0
H2164 H 0.8495 0.11494 0.25547 0.0
H2165 H 0.88148 0.11278 0.29247 0.0
H2166 H 0.93217 0.16667 0.32662 0.0
H2167 H 0.91295 0.14857 0.33585 0.0
H2168 H 0.88033 0.15045 0.30314 0.0
C2169 C 0.84901 0.10746 0.27236 0.0
C2170 C 0.88108 0.12091 0.29552 0.0
C2171 C 0.83877 0.09622 0.26798 0.0
C2172 C 0.92442 0.16603 0.3112 0.0
C2173 C 0.9134 0.15561 0.31629 0.0
C2174 C 0.88069 0.14228 0.30076 0.0
C2175 C 0.85871 0.10886 0.29657 0.0
C2176 C 0.87004 0.12053 0.29813 0.0
C2177 C 0.90315 0.15421 0.2958 0.0
C2178 C 0.89172 0.14265 0.29782 0.0
H2179 H 0.8472 0.08011 0.32914 0.0
H2180 H 0.86494 0.09968 0.33713 0.0
H2181 H 0.86162 0.13136 0.30339 0.0
H2182 H 0.91562 0.18116 0.24653 0.0
H2183 H 0.89642 0.16292 0.25506 0.0
C2184 C 0.90994 0.74393 0.28674 0.0
C2185 C 0.91978 0.7525 0.30975 0.0
C2186 C 0.89842 0.7417 0.29559 0.0
C2187 C 0.88351 0.75702 0.33953 0.0
H2188 H 0.85488 0.72619 0.32576 0.0
C2189 C 0.83718 0.75276 0.34634 0.0
C2190 C 0.82946 0.7462 0.31343 0.0
C2191 C 0.84739 0.75199 0.35455 0.0
C2192 C 0.86279 0.73486 0.32965 0.0
H2193 H 0.92512 0.76487 0.36183 0.0
H2194 H 0.90499 0.76088 0.3775 0.0
H2195 H 0.87444 0.72759 0.32468 0.0
H2196 H 0.82606 0.73312 0.265 0.0
H2197 H 0.84391 0.73191 0.27888 0.0
H2198 H 0.87197 0.76438 0.34308 0.0
C2199 C 0.90622 0.75606 0.3521 0.0
C2200 C 0.87399 0.73566 0.32903 0.0
C2201 C 0.91775 0.7583 0.34324 0.0
C2202 C 0.83182 0.73833 0.29051 0.0
C2203 C 0.84205 0.73758 0.29865 0.0
C2204 C 0.87233 0.75622 0.3401 0.0
C2205 C 0.89646 0.74796 0.32769 0.0
C2206 C 0.88449 0.74679 0.33318 0.0
C2207 C 0.85013 0.74465 0.33 0.0
C2208 C 0.86184 0.74517 0.33437 0.0
H2209 H 0.91118 0.73927 0.2608 0.0
H2210 H 0.89113 0.73548 0.27592 0.0
H2211 H 0.8914 0.76576 0.34212 0.0
H2212 H 0.83557 0.75883 0.36487 0.0
H2213 H 0.85331 0.75739 0.37945 0.0
C2214 C 0.0886 0.24153 0.6404 0.0
C2215 C 0.08636 0.24787 0.67138 0.0
C2216 C 0.1002 0.24372 0.63338 0.0
C2217 C 0.1323 0.26467 0.65699 0.0
H2218 H 0.13453 0.23589 0.65213 0.0
C2219 C 0.17468 0.26315 0.70307 0.0
C2220 C 0.17723 0.25507 0.68244 0.0
C2221 C 0.16434 0.26354 0.69354 0.0
C2222 C 0.13412 0.24405 0.65259 0.0
H2223 H 0.09467 0.262 0.71757 0.0
H2224 H 0.11483 0.26571 0.7057 0.0
H2225 H 0.11506 0.23439 0.64962 0.0
H2226 H 0.17125 0.2416 0.63377 0.0
H2227 H 0.15329 0.24241 0.61681 0.0
H2228 H 0.1514 0.27428 0.66119 0.0
C2229 C 0.10766 0.2591 0.68655 0.0
C2230 C 0.12292 0.24318 0.65114 0.0
C2231 C 0.09607 0.25692 0.69354 0.0
C2232 C 0.16951 0.24785 0.65054 0.0
C2233 C 0.15917 0.24826 0.64096 0.0
C2234 C 0.14353 0.26553 0.65841 0.0
C2235 C 0.10983 0.2523 0.65718 0.0
C2236 C 0.12185 0.25346 0.65406 0.0
C2237 C 0.1563 0.2559 0.66309 0.0
C2238 C 0.14456 0.25521 0.65698 0.0
H2239 H 0.08135 0.23458 0.62249 0.0
H2240 H 0.10159 0.23848 0.60997 0.0
H2241 H 0.1318 0.27277 0.65871 0.0
H2242 H 0.18044 0.26886 0.72775 0.0
H2243 H 0.16237 0.26946 0.71149 0.0
C2244 C 0.76352 0.84312 0.66627 0.0
C2245 C 0.75582 0.83301 0.68995 0.0
C2246 C 0.76125 0.85255 0.66162 0.0
C2247 C 0.74605 0.86626 0.71574 0.0
H2248 H 0.754 0.88559 0.61545 0.0
C2249 C 0.74196 0.9086 0.7101 0.0
C2250 C 0.75185 0.91877 0.69314 0.0
C2251 C 0.7407 0.89729 0.70481 0.0
C2252 C 0.75177 0.8803 0.64373 0.0
H2253 H 0.73933 0.82461 0.72556 0.0
H2254 H 0.7353 0.84101 0.71708 0.0
H2255 H 0.75479 0.86712 0.61462 0.0
H2256 H 0.76788 0.92494 0.6558 0.0
H2257 H 0.76573 0.90526 0.64697 0.0
H2258 H 0.74333 0.87955 0.7452 0.0
C2259 C 0.74322 0.84174 0.7027 0.0
C2260 C 0.75223 0.86972 0.64326 0.0
C2261 C 0.7455 0.8323 0.70735 0.0
C2262 C 0.76017 0.9173 0.66936 0.0
C2263 C 0.7589 0.90599 0.66406 0.0
C2264 C 0.74559 0.87683 0.71621 0.0
C2265 C 0.7512 0.85208 0.68051 0.0
C2266 C 0.74956 0.86268 0.67948 0.0
C2267 C 0.74927 0.89588 0.6824 0.0
C2268 C 0.74864 0.88408 0.68043 0.0
H2269 H 0.77154 0.84396 0.65238 0.0
H2270 H 0.76765 0.86042 0.64469 0.0
H2271 H 0.74413 0.86117 0.7444 0.0
H2272 H 0.73534 0.9094 0.72837 0.0
H2273 H 0.73308 0.88965 0.71881 0.0
C2274 C 0.1552 0.91585 0.65417 0.0
C2275 C 0.16516 0.91863 0.67936 0.0
C2276 C 0.1464 0.90397 0.6474 0.0
C2277 C 0.13359 0.87514 0.70059 0.0
H2278 H 0.11436 0.86339 0.60014 0.0
C2279 C 0.09087 0.82916 0.69843 0.0
C2280 C 0.0808 0.82903 0.68127 0.0
C2281 C 0.10231 0.83889 0.69178 0.0
C2282 C 0.11964 0.86655 0.62844 0.0
H2283 H 0.17415 0.91109 0.71464 0.0
H2284 H 0.15884 0.89036 0.70249 0.0
H2285 H 0.13272 0.88277 0.59917 0.0
H2286 H 0.07492 0.83877 0.64192 0.0
H2287 H 0.0948 0.85578 0.63093 0.0
H2288 H 0.12036 0.8592 0.73038 0.0
C2289 C 0.15772 0.89737 0.68861 0.0
C2290 C 0.13016 0.87764 0.62787 0.0
C2291 C 0.16653 0.90926 0.69537 0.0
C2292 C 0.08248 0.83859 0.6557 0.0
C2293 C 0.09391 0.84832 0.64914 0.0
C2294 C 0.12309 0.86408 0.70118 0.0
C2295 C 0.14738 0.8946 0.66564 0.0
C2296 C 0.13712 0.88218 0.66421 0.0
C2297 C 0.10394 0.84872 0.66789 0.0
C2298 C 0.11584 0.85976 0.6654 0.0
H2299 H 0.15389 0.92284 0.6412 0.0
H2300 H 0.13852 0.90217 0.6298 0.0
H2301 H 0.13862 0.87843 0.72934 0.0
H2302 H 0.08991 0.82189 0.71799 0.0
H2303 H 0.10987 0.83882 0.70611 0.0
C2304 C 0.90605 0.41441 0.64967 0.0
C2305 C 0.91486 0.41299 0.62911 0.0
C2306 C 0.90768 0.42579 0.65687 0.0
C2307 C 0.92392 0.45602 0.61289 0.0
H2308 H 0.91083 0.46397 0.70865 0.0
C2309 C 0.92403 0.5005 0.62002 0.0
C2310 C 0.91301 0.49946 0.6308 0.0
C2311 C 0.92613 0.49103 0.62702 0.0
C2312 C 0.91452 0.46188 0.68169 0.0
H2313 H 0.93263 0.42246 0.60216 0.0
H2314 H 0.93553 0.44233 0.61516 0.0
H2315 H 0.91124 0.44529 0.70814 0.0
H2316 H 0.89581 0.4879 0.6596 0.0
H2317 H 0.89942 0.47138 0.67141 0.0
H2318 H 0.92689 0.47239 0.58587 0.0
C2319 C 0.92725 0.43462 0.62502 0.0
C2320 C 0.91475 0.45118 0.68139 0.0
C2321 C 0.92561 0.42323 0.61777 0.0
C2322 C 0.90439 0.48899 0.65078 0.0
C2323 C 0.90649 0.47953 0.6578 0.0
C2324 C 0.9237 0.46671 0.61322 0.0
C2325 C 0.91819 0.43603 0.64376 0.0
C2326 C 0.91923 0.44801 0.64659 0.0
C2327 C 0.91726 0.48032 0.64503 0.0
C2328 C 0.91878 0.46966 0.64724 0.0
H2329 H 0.89767 0.40672 0.65891 0.0
H2330 H 0.90046 0.42652 0.671 0.0
H2331 H 0.92726 0.4538 0.58529 0.0
H2332 H 0.93091 0.50847 0.60484 0.0
H2333 H 0.9346 0.49199 0.61744 0.0
C2334 C 0.51266 0.42048 0.6741 0.0
C2335 C 0.50411 0.41777 0.64257 0.0
C2336 C 0.52229 0.43208 0.67858 0.0
C2337 C 0.53416 0.46371 0.64642 0.0
H2338 H 0.5648 0.4655 0.65995 0.0
C2339 C 0.57928 0.5058 0.60659 0.0
C2340 C 0.58928 0.50837 0.6313 0.0
C2341 C 0.56833 0.4954 0.61344 0.0
C2342 C 0.55632 0.46521 0.65689 0.0
H2343 H 0.49865 0.42529 0.59238 0.0
H2344 H 0.51552 0.44547 0.59985 0.0
H2345 H 0.5466 0.44621 0.66264 0.0
H2346 H 0.59543 0.50233 0.68399 0.0
H2347 H 0.57632 0.4843 0.69621 0.0
H2348 H 0.54398 0.48275 0.63969 0.0
C2349 C 0.51474 0.43866 0.6214 0.0
C2350 C 0.54586 0.45412 0.65847 0.0
C2351 C 0.50508 0.42706 0.61699 0.0
C2352 C 0.58794 0.50058 0.66413 0.0
C2353 C 0.577 0.4902 0.671 0.0
C2354 C 0.54465 0.47483 0.64481 0.0
C2355 C 0.52363 0.44125 0.65157 0.0
C2356 C 0.53464 0.4532 0.65287 0.0
C2357 C 0.56712 0.48735 0.64519 0.0
C2358 C 0.55587 0.47569 0.64964 0.0
H2359 H 0.51213 0.41357 0.69461 0.0
H2360 H 0.52884 0.43382 0.70271 0.0
H2361 H 0.52566 0.46335 0.64249 0.0
H2362 H 0.57999 0.51161 0.58104 0.0
H2363 H 0.56094 0.49344 0.59274 0.0
C2364 C 0.57892 0.0744 0.61419 0.0
C2365 C 0.58887 0.08563 0.62308 0.0
C2366 C 0.56733 0.07231 0.62076 0.0
C2367 C 0.5498 0.08423 0.67315 0.0
H2368 H 0.52812 0.06962 0.57987 0.0
C2369 C 0.50908 0.09018 0.64482 0.0
C2370 C 0.49874 0.08079 0.62662 0.0
C2371 C 0.51929 0.08923 0.65034 0.0
C2372 C 0.53394 0.0735 0.60662 0.0
H2373 H 0.59445 0.10328 0.64776 0.0
H2374 H 0.57428 0.09966 0.65901 0.0
H2375 H 0.54742 0.07065 0.57938 0.0
H2376 H 0.49086 0.06282 0.60175 0.0
H2377 H 0.50866 0.06111 0.6119 0.0
H2378 H 0.53639 0.08729 0.69997 0.0
C2379 C 0.57541 0.09244 0.64716 0.0
C2380 C 0.54504 0.0741 0.60631 0.0
C2381 C 0.58699 0.09454 0.64047 0.0
C2382 C 0.4987 0.07025 0.61562 0.0
C2383 C 0.50893 0.06929 0.62121 0.0
C2384 C 0.53868 0.08359 0.67352 0.0
C2385 C 0.56544 0.08139 0.63654 0.0
C2386 C 0.55319 0.07967 0.6392 0.0
C2387 C 0.51943 0.07887 0.63792 0.0
C2388 C 0.5307 0.07842 0.63987 0.0
H2389 H 0.58004 0.06732 0.60094 0.0
H2390 H 0.55984 0.06365 0.61281 0.0
H2391 H 0.55581 0.08841 0.69927 0.0
H2392 H 0.50943 0.09843 0.65369 0.0
H2393 H 0.52724 0.09684 0.66284 0.0
C2394 C 0.75869 0.5891 0.02525 0.0
C2395 C 0.74866 0.57983 0.00516 0.0
C2396 C 0.77014 0.59102 0.01695 0.0
C2397 C 0.78452 0.57419 0.98208 0.0
H2398 H 0.81344 0.60509 0.98682 0.0
C2399 C 0.83063 0.57783 0.97716 0.0
C2400 C 0.8387 0.58522 0.00798 0.0
C2401 C 0.82035 0.57844 0.96828 0.0
C2402 C 0.80544 0.5964 0.98551 0.0
H2403 H 0.74288 0.56588 0.95838 0.0
H2404 H 0.76286 0.56934 0.94346 0.0
H2405 H 0.794 0.60396 0.98602 0.0
H2406 H 0.84264 0.59951 0.05194 0.0
H2407 H 0.82468 0.60045 0.03685 0.0
H2408 H 0.79587 0.56659 0.98282 0.0
C2409 C 0.76185 0.57495 0.96635 0.0
C2410 C 0.7943 0.59575 0.98505 0.0
C2411 C 0.7504 0.57301 0.97474 0.0
C2412 C 0.8366 0.59366 0.02809 0.0
C2413 C 0.82632 0.59426 0.01925 0.0
C2414 C 0.79563 0.57484 0.98252 0.0
C2415 C 0.77182 0.58374 0.98826 0.0
C2416 C 0.7837 0.58462 0.98406 0.0
C2417 C 0.81791 0.58644 0.99003 0.0
C2418 C 0.80623 0.58594 0.98497 0.0
H2419 H 0.75768 0.59455 0.04881 0.0
H2420 H 0.77758 0.59781 0.03465 0.0
H2421 H 0.77656 0.56546 0.98208 0.0
H2422 H 0.83202 0.5713 0.9608 0.0
H2423 H 0.81417 0.57244 0.94504 0.0
C2424 C 0.43059 0.18122 0.00533 0.0
C2425 C 0.42315 0.17139 0.03063 0.0
C2426 C 0.42813 0.19047 -0.00075 0.0
C2427 C 0.41284 0.20449 0.05104 0.0
H2428 H 0.42031 0.22271 0.94821 0.0
C2429 C 0.4092 0.24693 0.04117 0.0
C2430 C 0.41931 0.25691 0.02442 0.0
C2431 C 0.40755 0.23546 0.03595 0.0
C2432 C 0.41819 0.21771 0.97714 0.0
H2433 H 0.40693 0.16329 0.06772 0.0
H2434 H 0.40256 0.17938 0.05669 0.0
H2435 H 0.42123 0.20431 0.9501 0.0
H2436 H 0.43522 0.26259 0.98683 0.0
H2437 H 0.43239 0.24265 0.97802 0.0
H2438 H 0.41011 0.21801 0.07843 0.0
C2439 C 0.41043 0.18004 0.04216 0.0
C2440 C 0.41874 0.20718 0.97825 0.0
C2441 C 0.41291 0.17079 0.04832 0.0
C2442 C 0.42735 0.2551 0.0003 0.0
C2443 C 0.42569 0.24364 -0.00498 0.0
C2444 C 0.41228 0.21499 0.0499 0.0
C2445 C 0.41814 0.19011 0.01823 0.0
C2446 C 0.4163 0.20056 0.01546 0.0
C2447 C 0.41595 0.23372 0.01376 0.0
C2448 C 0.41517 0.22185 0.01319 0.0
H2449 H 0.43855 0.18197 0.99119 0.0
H2450 H 0.43434 0.19814 0.98103 0.0
H2451 H 0.41108 0.19973 0.08041 0.0
H2452 H 0.40278 0.24799 0.05969 0.0
H2453 H 0.39984 0.22798 0.05021 0.0
C2454 C 0.75039 0.17822 0.9845 0.0
C2455 C 0.74858 0.16814 0.00717 0.0
C2456 C 0.76194 0.18737 0.97521 0.0
C2457 C 0.78753 0.20469 0.94942 0.0
H2458 H 0.80835 0.214 0.04614 0.0
C2459 C 0.83599 0.24522 0.01594 0.0
C2460 C 0.83467 0.25501 0.00474 0.0
C2461 C 0.82697 0.23357 0.00701 0.0
C2462 C 0.80281 0.21142 0.01839 0.0
H2463 H 0.75745 0.15936 0.03507 0.0
H2464 H 0.7776 0.17529 0.01845 0.0
H2465 H 0.78966 0.19518 0.04681 0.0
H2466 H 0.82323 0.26026 0.97261 0.0
H2467 H 0.80748 0.24 0.95766 0.0
H2468 H 0.80055 0.22122 0.92174 0.0
C2469 C 0.77009 0.17621 0.00859 0.0
C2470 C 0.79205 0.20059 0.01878 0.0
C2471 C 0.75854 0.16706 0.01793 0.0
C2472 C 0.82452 0.25293 0.98189 0.0
C2473 C 0.81549 0.24128 0.97305 0.0
C2474 C 0.79832 0.21553 0.94901 0.0
C2475 C 0.77194 0.18665 0.98829 0.0
C2476 C 0.78413 0.19724 0.98478 0.0
C2477 C 0.81643 0.23145 0.98672 0.0
C2478 C 0.80594 0.21917 0.98397 0.0
H2479 H 0.74292 0.17932 0.97557 0.0
H2480 H 0.76302 0.19531 0.95984 0.0
H2481 H 0.7817 0.20227 0.92246 0.0
H2482 H 0.84375 0.24652 0.03322 0.0
H2483 H 0.82807 0.2262 0.01728 0.0
C2484 C 0.59371 0.75594 0.94381 0.0
C2485 C 0.58305 0.74551 0.95455 0.0
C2486 C 0.59499 0.76721 0.95079 0.0
C2487 C 0.58188 0.78308 0.00732 0.0
H2488 H 0.59376 0.80472 0.91286 0.0
C2489 C 0.57121 0.82088 0.98277 0.0
C2490 C 0.57972 0.83153 0.96349 0.0
C2491 C 0.57333 0.81136 0.98757 0.0
C2492 C 0.59064 0.79892 0.93991 0.0
H2493 H 0.5656 0.73879 0.98286 0.0
H2494 H 0.56781 0.75838 -0.0052 0.0
H2495 H 0.59444 0.78627 0.91104 0.0
H2496 H 0.59741 0.84075 0.93592 0.0
H2497 H 0.60117 0.82416 0.94473 0.0
H2498 H 0.57781 0.79562 0.03576 0.0
C2499 C 0.57522 0.75788 0.98121 0.0
C2500 C 0.59102 0.78831 0.93885 0.0
C2501 C 0.57392 0.74663 0.97412 0.0
C2502 C 0.59063 0.83264 0.95071 0.0
C2503 C 0.59276 0.8231 0.95552 0.0
C2504 C 0.58151 0.7937 0.00843 0.0
C2505 C 0.58566 0.7683 0.96884 0.0
C2506 C 0.58643 0.78015 0.97218 0.0
C2507 C 0.58403 0.81226 0.97328 0.0
C2508 C 0.58566 0.80164 0.97436 0.0
H2509 H 0.60095 0.75541 0.92884 0.0
H2510 H 0.60322 0.77506 0.94143 0.0
H2511 H 0.57844 0.77708 0.0338 0.0
H2512 H 0.56271 0.81972 0.99303 0.0
H2513 H 0.56635 0.80312 0.00094 0.0
C2514 C 0.17442 0.76405 0.95353 0.0
C2515 C 0.17008 0.76105 0.91241 0.0
C2516 C 0.18422 0.77529 0.96256 0.0
C2517 C 0.20362 0.80576 0.9181 0.0
H2518 H 0.22764 0.80564 0.99023 0.0
C2519 C 0.2575 0.83475 0.94289 0.0
C2520 C 0.25946 0.84644 0.94013 0.0
C2521 C 0.24595 0.82503 0.94645 0.0
C2522 C 0.22104 0.80584 0.96997 0.0
H2523 H 0.17237 0.76769 0.84885 0.0
H2524 H 0.18953 0.7871 0.86432 0.0
H2525 H 0.20844 0.78751 0.98212 0.0
H2526 H 0.25081 0.85712 0.9407 0.0
H2527 H 0.23058 0.84011 0.94754 0.0
H2528 H 0.2165 0.82392 0.9041 0.0
C2529 C 0.18529 0.78089 0.88985 0.0
C2530 C 0.20993 0.79547 0.96574 0.0
C2531 C 0.17547 0.76969 0.88088 0.0
C2532 C 0.2496 0.84822 0.94258 0.0
C2533 C 0.23801 0.83846 0.94623 0.0
C2534 C 0.21475 0.81613 0.92216 0.0
C2535 C 0.18993 0.78376 0.93065 0.0
C2536 C 0.20117 0.79521 0.93901 0.0
C2537 C 0.23602 0.82673 0.94754 0.0
C2538 C 0.2237 0.81622 0.94739 0.0
H2539 H 0.17042 0.75763 0.97863 0.0
H2540 H 0.18742 0.77726 -0.00553 0.0
H2541 H 0.19702 0.80596 0.8978 0.0
H2542 H 0.26488 0.83304 0.94109 0.0
H2543 H 0.24479 0.81614 0.94673 0.0
C2544 C 0.17186 0.42214 0.01688 0.0
C2545 C 0.16403 0.41484 0.98539 0.0
C2546 C 0.18214 0.42162 0.02649 0.0
C2547 C 0.19775 0.4043 0.00789 0.0
H2548 H 0.22615 0.43561 0.01172 0.0
C2549 C 0.24447 0.41349 0.95868 0.0
C2550 C 0.25459 0.42277 0.97831 0.0
C2551 C 0.23301 0.41105 0.96982 0.0
C2552 C 0.21833 0.42677 0.01164 0.0
H2553 H 0.16046 0.40068 0.94125 0.0
H2554 H 0.17842 0.39992 0.95743 0.0
H2555 H 0.20661 0.43393 0.01332 0.0
H2556 H 0.26055 0.43618 0.0272 0.0
H2557 H 0.24056 0.43184 0.04688 0.0
H2558 H 0.20959 0.39722 0.0045 0.0
C2559 C 0.17661 0.40598 0.97507 0.0
C2560 C 0.20709 0.42581 0.01259 0.0
C2561 C 0.16632 0.40648 0.96557 0.0
C2562 C 0.25296 0.42905 0.01114 0.0
C2563 C 0.2415 0.4266 0.0223 0.0
C2564 C 0.20903 0.40528 0.00687 0.0
C2565 C 0.18483 0.4138 0.00475 0.0
C2566 C 0.19665 0.41458 0.00975 0.0
C2567 C 0.23141 0.41782 0.00089 0.0
C2568 C 0.21945 0.41655 0.00778 0.0
H2569 H 0.1703 0.4286 0.03307 0.0
H2570 H 0.18817 0.4276 0.05009 0.0
H2571 H 0.1899 0.39551 0.00632 0.0
H2572 H 0.24539 0.40844 0.93336 0.0
H2573 H 0.22546 0.40429 0.95245 0.0
C2574 C 0.41792 0.9068 0.30619 0.0
C2575 C 0.41597 0.9126 0.33986 0.0
C2576 C 0.42942 0.90895 0.29722 0.0
C2577 C 0.46174 0.92865 0.32226 0.0
H2578 H 0.46279 0.89946 0.30675 0.0
C2579 C 0.50266 0.92391 0.36325 0.0
C2580 C 0.50486 0.91603 0.33968 0.0
C2581 C 0.49276 0.92519 0.35461 0.0
C2582 C 0.46271 0.90776 0.31017 0.0
H2583 H 0.42469 0.92581 0.38876 0.0
H2584 H 0.44465 0.9294 0.37361 0.0
H2585 H 0.44369 0.89874 0.30662 0.0
H2586 H 0.49883 0.90395 0.28664 0.0
H2587 H 0.48164 0.90628 0.2713 0.0
H2588 H 0.48082 0.93757 0.32731 0.0
C2589 C 0.43735 0.92327 0.35381 0.0
C2590 C 0.45172 0.90734 0.31007 0.0
C2591 C 0.42586 0.92116 0.36267 0.0
C2592 C 0.49734 0.91 0.30569 0.0
C2593 C 0.48744 0.91129 0.29702 0.0
C2594 C 0.47277 0.92906 0.32242 0.0
C2595 C 0.43921 0.91692 0.32181 0.0
C2596 C 0.45106 0.91774 0.31689 0.0
C2597 C 0.48483 0.91862 0.32215 0.0
C2598 C 0.47336 0.91857 0.31714 0.0
H2599 H 0.41052 0.90025 0.2877 0.0
H2600 H 0.43057 0.90409 0.27178 0.0
H2601 H 0.46157 0.93686 0.32702 0.0
H2602 H 0.50829 0.92872 0.38959 0.0
H2603 H 0.49098 0.93084 0.3748 0.0
C2604 C 0.07322 0.57178 0.43771 0.0
C2605 C 0.07673 0.58089 0.40782 0.0
C2606 C 0.07312 0.5612 0.4279 0.0
C2607 C 0.08744 0.54991 0.356 0.0
H2608 H 0.06556 0.51965 0.40807 0.0
C2609 C 0.07854 0.49839 0.37352 0.0
C2610 C 0.09037 0.50118 0.38125 0.0
C2611 C 0.07574 0.50748 0.36887 0.0
C2612 C 0.07164 0.52796 0.39265 0.0
H2613 H 0.08226 0.58574 0.34338 0.0
H2614 H 0.08188 0.56718 0.32602 0.0
H2615 H 0.06191 0.53633 0.41398 0.0
H2616 H 0.10858 0.51572 0.38855 0.0
H2617 H 0.10371 0.53147 0.38112 0.0
H2618 H 0.09716 0.54155 0.33467 0.0
C2619 C 0.07945 0.56833 0.35737 0.0
C2620 C 0.06963 0.53759 0.39651 0.0
C2621 C 0.0796 0.57894 0.36726 0.0
C2622 C 0.09937 0.51324 0.38265 0.0
C2623 C 0.09659 0.5223 0.37807 0.0
C2624 C 0.08942 0.54028 0.35199 0.0
C2625 C 0.07646 0.55943 0.38785 0.0
C2626 C 0.07767 0.54877 0.37915 0.0
C2627 C 0.08471 0.51955 0.37181 0.0
C2628 C 0.08172 0.52927 0.3712 0.0
H2629 H 0.07094 0.57297 0.46926 0.0
H2630 H 0.07091 0.55464 0.45236 0.0
H2631 H 0.09388 0.55839 0.34244 0.0
H2632 H 0.07139 0.48919 0.37209 0.0
H2633 H 0.06653 0.50506 0.36353 0.0
C2634 C 0.48363 0.5804 0.33386 0.0
C2635 C 0.49432 0.58289 0.35381 0.0
C2636 C 0.47459 0.56861 0.32728 0.0
C2637 C 0.46317 0.53887 0.37279 0.0
H2638 H 0.44186 0.52868 0.27725 0.0
C2639 C 0.42119 0.49211 0.36704 0.0
C2640 C 0.41066 0.49187 0.35443 0.0
C2641 C 0.43233 0.50233 0.36083 0.0
C2642 C 0.44771 0.5314 0.3042 0.0
H2643 H 0.50416 0.57494 0.38032 0.0
H2644 H 0.48839 0.55435 0.36856 0.0
H2645 H 0.45991 0.54829 0.27671 0.0
H2646 H 0.40363 0.50203 0.3238 0.0
H2647 H 0.42296 0.51984 0.31349 0.0
H2648 H 0.45082 0.52219 0.40091 0.0
C2649 C 0.48694 0.56153 0.35858 0.0
C2650 C 0.45806 0.54263 0.30387 0.0
C2651 C 0.49601 0.57333 0.36508 0.0
C2652 C 0.41155 0.5019 0.33396 0.0
C2653 C 0.42267 0.51211 0.32778 0.0
C2654 C 0.45282 0.52766 0.37316 0.0
C2655 C 0.47602 0.55903 0.34052 0.0
C2656 C 0.46579 0.54659 0.33851 0.0
C2657 C 0.43319 0.51254 0.34183 0.0
C2658 C 0.44484 0.52388 0.33923 0.0
H2659 H 0.48204 0.58755 0.32468 0.0
H2660 H 0.46626 0.56703 0.31362 0.0
H2661 H 0.46882 0.5417 0.40026 0.0
H2662 H 0.42082 0.48451 0.38269 0.0
H2663 H 0.44026 0.5023 0.37147 0.0
loop_
_geom_bond_atom_site_label_1
_geom_bond_atom_site_label_2
_geom_bond_distance
_geom_bond_site_symmetry_2
_ccdc_geom_bond_type
Mg0 O1 2.028 . S
Mg0 O7 1.986 . S
Mg0 O9 2.114 . S
Mg0 O10 2.251 . S
Mg0 O13 2.010 . S
O1 Mg0 2.028 . S
O1 C4 1.250 . S
O2 Mg3 2.028 . S
O2 C4 1.248 . S
Mg3 O2 2.028 . S
Mg3 O8 2.032 . S
Mg3 O10 2.079 . S
C4 O1 1.250 . S
C4 O2 1.248 . S
C5 O6 1.264 . S
C5 O13 1.249 . S
O6 C5 1.264 . S
O7 Mg0 1.986 . S
O7 C11 1.246 . S
O8 Mg3 2.032 . S
O8 C11 1.259 . S
O9 Mg0 2.114 . S
O9 C12 1.252 . S
O10 Mg0 2.251 . S
O10 Mg3 2.079 . S
O10 C12 1.273 . S
C11 O7 1.246 . S
C11 O8 1.259 . S
C12 O9 1.252 . S
C12 O10 1.273 . S
O13 Mg0 2.010 . S
O13 C5 1.249 . S
Mg14 O15 2.028 . S
Mg14 O21 1.986 . S
Mg14 O23 2.114 . S
Mg14 O24 2.251 . S
Mg14 O27 2.010 . S
O15 Mg14 2.028 . S
O15 C18 1.250 . S
O16 Mg17 2.028 . S
O16 C18 1.248 . S
Mg17 O16 2.028 . S
Mg17 O22 2.032 . S
Mg17 O24 2.079 . S
C18 O15 1.250 . S
C18 O16 1.248 . S
C19 O20 1.264 . S
C19 O27 1.249 . S
O20 C19 1.264 . S
O21 Mg14 1.986 . S
O21 C25 1.246 . S
O22 Mg17 2.032 . S
O22 C25 1.259 . S
O23 Mg14 2.114 . S
O23 C26 1.252 . S
O24 Mg14 2.251 . S
O24 Mg17 2.079 . S
O24 C26 1.273 . S
C25 O21 1.246 . S
C25 O22 1.259 . S
C26 O23 1.252 . S
C26 O24 1.273 . S
O27 Mg14 2.010 . S
O27 C19 1.249 . S
Mg28 O29 2.028 . S
Mg28 O35 1.986 . S
Mg28 O37 2.114 . S
Mg28 O38 2.251 . S
Mg28 O41 2.010 . S
O29 Mg28 2.028 . S
O29 C32 1.250 . S
O30 Mg31 2.028 . S
O30 C32 1.248 . S
Mg31 O30 2.028 . S
Mg31 O36 2.032 . S
Mg31 O38 2.079 . S
C32 O29 1.250 . S
C32 O30 1.248 . S
C33 O34 1.264 . S
C33 O41 1.249 . S
O34 C33 1.264 . S
O35 Mg28 1.986 . S
O35 C39 1.246 . S
O36 Mg31 2.032 . S
O36 C39 1.259 . S
O37 Mg28 2.114 . S
O37 C40 1.252 . S
O38 Mg28 2.251 . S
O38 Mg31 2.079 . S
O38 C40 1.273 . S
C39 O35 1.246 . S
C39 O36 1.259 . S
C40 O37 1.252 . S
C40 O38 1.273 . S
O41 Mg28 2.010 . S
O41 C33 1.249 . S
Mg42 O43 2.028 . S
Mg42 O49 1.986 . S
Mg42 O51 2.114 . S
Mg42 O52 2.251 . S
Mg42 O55 2.010 . S
O43 Mg42 2.028 . S
O43 C46 1.250 . S
O44 Mg45 2.028 . S
O44 C46 1.248 . S
Mg45 O44 2.028 . S
Mg45 O50 2.032 . S
Mg45 O52 2.079 . S
C46 O43 1.250 . S
C46 O44 1.248 . S
C47 O48 1.264 . S
C47 O55 1.249 . S
O48 C47 1.264 . S
O49 Mg42 1.986 . S
O49 C53 1.246 . S
O50 Mg45 2.032 . S
O50 C53 1.259 . S
O51 Mg42 2.114 . S
O51 C54 1.252 . S
O52 Mg42 2.251 . S
O52 Mg45 2.079 . S
O52 C54 1.273 . S
C53 O49 1.246 . S
C53 O50 1.259 . S
C54 O51 1.252 . S
C54 O52 1.273 . S
O55 Mg42 2.010 . S
O55 C47 1.249 . S
Mg56 O57 2.028 . S
Mg56 O63 1.986 . S
Mg56 O65 2.114 . S
Mg56 O66 2.251 . S
Mg56 O69 2.010 . S
O57 Mg56 2.028 . S
O57 C60 1.250 . S
O58 Mg59 2.028 . S
O58 C60 1.248 . S
Mg59 O58 2.028 . S
Mg59 O64 2.032 . S
Mg59 O66 2.079 . S
C60 O57 1.250 . S
C60 O58 1.248 . S
C61 O62 1.264 . S
C61 O69 1.249 . S
O62 C61 1.264 . S
O63 Mg56 1.986 . S
O63 C67 1.246 . S
O64 Mg59 2.032 . S
O64 C67 1.259 . S
O65 Mg56 2.114 . S
O65 C68 1.252 . S
O66 Mg56 2.251 . S
O66 Mg59 2.079 . S
O66 C68 1.273 . S
C67 O63 1.246 . S
C67 O64 1.259 . S
C68 O65 1.252 . S
C68 O66 1.273 . S
O69 Mg56 2.010 . S
O69 C61 1.249 . S
Mg70 O71 2.028 . S
Mg70 O77 1.986 . S
Mg70 O79 2.114 . S
Mg70 O80 2.251 . S
Mg70 O83 2.010 . S
O71 Mg70 2.028 . S
O71 C74 1.250 . S
O72 Mg73 2.028 . S
O72 C74 1.248 . S
Mg73 O72 2.028 . S
Mg73 O78 2.032 . S
Mg73 O80 2.079 . S
C74 O71 1.250 . S
C74 O72 1.248 . S
C75 O76 1.264 . S
C75 O83 1.249 . S
O76 C75 1.264 . S
O77 Mg70 1.986 . S
O77 C81 1.246 . S
O78 Mg73 2.032 . S
O78 C81 1.259 . S
O79 Mg70 2.114 . S
O79 C82 1.252 . S
O80 Mg70 2.251 . S
O80 Mg73 2.079 . S
O80 C82 1.273 . S
C81 O77 1.246 . S
C81 O78 1.259 . S
C82 O79 1.252 . S
C82 O80 1.273 . S
O83 Mg70 2.010 . S
O83 C75 1.249 . S
Mg84 O85 2.028 . S
Mg84 O91 1.986 . S
Mg84 O93 2.114 . S
Mg84 O94 2.251 . S
Mg84 O97 2.010 . S
O85 Mg84 2.028 . S
O85 C88 1.250 . S
O86 Mg87 2.028 . S
O86 C88 1.248 . S
Mg87 O86 2.028 . S
Mg87 O92 2.032 . S
Mg87 O94 2.079 . S
C88 O85 1.250 . S
C88 O86 1.248 . S
C89 O90 1.264 . S
C89 O97 1.249 . S
O90 C89 1.264 . S
O91 Mg84 1.986 . S
O91 C95 1.246 . S
O92 Mg87 2.032 . S
O92 C95 1.259 . S
O93 Mg84 2.114 . S
O93 C96 1.252 . S
O94 Mg84 2.251 . S
O94 Mg87 2.079 . S
O94 C96 1.273 . S
C95 O91 1.246 . S
C95 O92 1.259 . S
C96 O93 1.252 . S
C96 O94 1.273 . S
O97 Mg84 2.010 . S
O97 C89 1.249 . S
Mg98 O99 2.028 . S
Mg98 O105 1.986 . S
Mg98 O107 2.114 . S
Mg98 O108 2.251 . S
Mg98 O111 2.010 . S
O99 Mg98 2.028 . S
O99 C102 1.250 . S
O100 Mg101 2.028 . S
O100 C102 1.248 . S
Mg101 O100 2.028 . S
Mg101 O106 2.032 . S
Mg101 O108 2.079 . S
C102 O99 1.250 . S
C102 O100 1.248 . S
C103 O104 1.264 . S
C103 O111 1.249 . S
O104 C103 1.264 . S
O105 Mg98 1.986 . S
O105 C109 1.246 . S
O106 Mg101 2.032 . S
O106 C109 1.259 . S
O107 Mg98 2.114 . S
O107 C110 1.252 . S
O108 Mg98 2.251 . S
O108 Mg101 2.079 . S
O108 C110 1.273 . S
C109 O105 1.246 . S
C109 O106 1.259 . S
C110 O107 1.252 . S
C110 O108 1.273 . S
O111 Mg98 2.010 . S
O111 C103 1.249 . S
Mg112 O113 2.028 . S
Mg112 O119 1.986 . S
Mg112 O121 2.114 . S
Mg112 O122 2.251 . S
Mg112 O125 2.010 . S
O113 Mg112 2.028 . S
O113 C116 1.250 . S
O114 Mg115 2.028 . S
O114 C116 1.248 . S
Mg115 O114 2.028 . S
Mg115 O120 2.032 . S
Mg115 O122 2.079 . S
C116 O113 1.250 . S
C116 O114 1.248 . S
C117 O118 1.264 . S
C117 O125 1.249 . S
O118 C117 1.264 . S
O119 Mg112 1.986 . S
O119 C123 1.246 . S
O120 Mg115 2.032 . S
O120 C123 1.259 . S
O121 Mg112 2.114 . S
O121 C124 1.252 . S
O122 Mg112 2.251 . S
O122 Mg115 2.079 . S
O122 C124 1.273 . S
C123 O119 1.246 . S
C123 O120 1.259 . S
C124 O121 1.252 . S
C124 O122 1.273 . S
O125 Mg112 2.010 . S
O125 C117 1.249 . S
Mg126 O127 2.028 . S
Mg126 O133 1.986 . S
Mg126 O135 2.114 . S
Mg126 O136 2.251 . S
Mg126 O139 2.010 . S
O127 Mg126 2.028 . S
O127 C130 1.250 . S
O128 Mg129 2.028 . S
O128 C130 1.248 . S
Mg129 O128 2.028 . S
Mg129 O134 2.032 . S
Mg129 O136 2.079 . S
C130 O127 1.250 . S
C130 O128 1.248 . S
C131 O132 1.264 . S
C131 O139 1.249 . S
O132 C131 1.264 . S
O133 Mg126 1.986 . S
O133 C137 1.246 . S
O134 Mg129 2.032 . S
O134 C137 1.259 . S
O135 Mg126 2.114 . S
O135 C138 1.252 . S
O136 Mg126 2.251 . S
O136 Mg129 2.079 . S
O136 C138 1.273 . S
C137 O133 1.246 . S
C137 O134 1.259 . S
C138 O135 1.252 . S
C138 O136 1.273 . S
O139 Mg126 2.010 . S
O139 C131 1.249 . S
Mg140 O141 2.028 . S
Mg140 O147 1.986 . S
Mg140 O149 2.114 . S
Mg140 O150 2.251 . S
Mg140 O153 2.010 . S
O141 Mg140 2.028 . S
O141 C144 1.250 . S
O142 Mg143 2.028 . S
O142 C144 1.248 . S
Mg143 O142 2.028 . S
Mg143 O148 2.032 . S
Mg143 O150 2.079 . S
C144 O141 1.250 . S
C144 O142 1.248 . S
C145 O146 1.264 . S
C145 O153 1.249 . S
O146 C145 1.264 . S
O147 Mg140 1.986 . S
O147 C151 1.246 . S
O148 Mg143 2.032 . S
O148 C151 1.259 . S
O149 Mg140 2.114 . S
O149 C152 1.252 . S
O150 Mg140 2.251 . S
O150 Mg143 2.079 . S
O150 C152 1.273 . S
C151 O147 1.246 . S
C151 O148 1.259 . S
C152 O149 1.252 . S
C152 O150 1.273 . S
O153 Mg140 2.010 . S
O153 C145 1.249 . S
Mg154 O155 2.028 . S
Mg154 O161 1.986 . S
Mg154 O163 2.114 . S
Mg154 O164 2.251 . S
Mg154 O167 2.010 . S
O155 Mg154 2.028 . S
O155 C158 1.250 . S
O156 Mg157 2.028 . S
O156 C158 1.248 . S
Mg157 O156 2.028 . S
Mg157 O162 2.032 . S
Mg157 O164 2.079 . S
C158 O155 1.250 . S
C158 O156 1.248 . S
C159 O160 1.264 . S
C159 O167 1.249 . S
O160 C159 1.264 . S
O161 Mg154 1.986 . S
O161 C165 1.246 . S
O162 Mg157 2.032 . S
O162 C165 1.259 . S
O163 Mg154 2.114 . S
O163 C166 1.252 . S
O164 Mg154 2.251 . S
O164 Mg157 2.079 . S
O164 C166 1.273 . S
C165 O161 1.246 . S
C165 O162 1.259 . S
C166 O163 1.252 . S
C166 O164 1.273 . S
O167 Mg154 2.010 . S
O167 C159 1.249 . S
Mg168 O169 2.028 . S
Mg168 O175 1.986 . S
Mg168 O177 2.114 . S
Mg168 O178 2.251 . S
Mg168 O181 2.010 . S
O169 Mg168 2.028 . S
O169 C172 1.250 . S
O170 Mg171 2.028 . S
O170 C172 1.248 . S
Mg171 O170 2.028 . S
Mg171 O176 2.032 . S
Mg171 O178 2.079 . S
C172 O169 1.250 . S
C172 O170 1.248 . S
C173 O174 1.264 . S
C173 O181 1.249 . S
O174 C173 1.264 . S
O175 Mg168 1.986 . S
O175 C179 1.246 . S
O176 Mg171 2.032 . S
O176 C179 1.259 . S
O177 Mg168 2.114 . S
O177 C180 1.252 . S
O178 Mg168 2.251 . S
O178 Mg171 2.079 . S
O178 C180 1.273 . S
C179 O175 1.246 . S
C179 O176 1.259 . S
C180 O177 1.252 . S
C180 O178 1.273 . S
O181 Mg168 2.010 . S
O181 C173 1.249 . S
Mg182 O183 2.028 . S
Mg182 O189 1.986 . S
Mg182 O191 2.114 . S
Mg182 O192 2.251 . S
Mg182 O195 2.010 . S
O183 Mg182 2.028 . S
O183 C186 1.250 . S
O184 Mg185 2.028 . S
O184 C186 1.248 . S
Mg185 O184 2.028 . S
Mg185 O190 2.032 . S
Mg185 O192 2.079 . S
C186 O183 1.250 . S
C186 O184 1.248 . S
C187 O188 1.264 . S
C187 O195 1.249 . S
O188 C187 1.264 . S
O189 Mg182 1.986 . S
O189 C193 1.246 . S
O190 Mg185 2.032 . S
O190 C193 1.259 . S
O191 Mg182 2.114 . S
O191 C194 1.252 . S
O192 Mg182 2.251 . S
O192 Mg185 2.079 . S
O192 C194 1.273 . S
C193 O189 1.246 . S
C193 O190 1.259 . S
C194 O191 1.252 . S
C194 O192 1.273 . S
O195 Mg182 2.010 . S
O195 C187 1.249 . S
Mg196 O197 2.028 . S
Mg196 O203 1.986 . S
Mg196 O205 2.114 . S
Mg196 O206 2.251 . S
Mg196 O209 2.010 . S
O197 Mg196 2.028 . S
O197 C200 1.250 . S
O198 Mg199 2.028 . S
O198 C200 1.248 . S
Mg199 O198 2.028 . S
Mg199 O204 2.032 . S
Mg199 O206 2.079 . S
C200 O197 1.250 . S
C200 O198 1.248 . S
C201 O202 1.264 . S
C201 O209 1.249 . S
O202 C201 1.264 . S
O203 Mg196 1.986 . S
O203 C207 1.246 . S
O204 Mg199 2.032 . S
O204 C207 1.259 . S
O205 Mg196 2.114 . S
O205 C208 1.252 . S
O206 Mg196 2.251 . S
O206 Mg199 2.079 . S
O206 C208 1.273 . S
C207 O203 1.246 . S
C207 O204 1.259 . S
C208 O205 1.252 . S
C208 O206 1.273 . S
O209 Mg196 2.010 . S
O209 C201 1.249 . S
Mg210 O211 2.028 . S
Mg210 O217 1.986 . S
Mg210 O219 2.114 . S
Mg210 O220 2.251 . S
Mg210 O223 2.010 . S
O211 Mg210 2.028 . S
O211 C214 1.250 . S
O212 Mg213 2.028 . S
O212 C214 1.248 . S
Mg213 O212 2.028 . S
Mg213 O218 2.032 . S
Mg213 O220 2.079 . S
C214 O211 1.250 . S
C214 O212 1.248 . S
C215 O216 1.264 . S
C215 O223 1.249 . S
O216 C215 1.264 . S
O217 Mg210 1.986 . S
O217 C221 1.246 . S
O218 Mg213 2.032 . S
O218 C221 1.259 . S
O219 Mg210 2.114 . S
O219 C222 1.252 . S
O220 Mg210 2.251 . S
O220 Mg213 2.079 . S
O220 C222 1.273 . S
C221 O217 1.246 . S
C221 O218 1.259 . S
C222 O219 1.252 . S
C222 O220 1.273 . S
O223 Mg210 2.010 . S
O223 C215 1.249 . S
Mg224 O225 2.028 . S
Mg224 O231 1.986 . S
Mg224 O233 2.114 . S
Mg224 O234 2.251 . S
Mg224 O237 2.010 . S
O225 Mg224 2.028 . S
O225 C228 1.250 . S
O226 Mg227 2.028 . S
O226 C228 1.248 . S
Mg227 O226 2.028 . S
Mg227 O232 2.032 . S
Mg227 O234 2.079 . S
C228 O225 1.250 . S
C228 O226 1.248 . S
C229 O230 1.264 . S
C229 O237 1.249 . S
O230 C229 1.264 . S
O231 Mg224 1.986 . S
O231 C235 1.246 . S
O232 Mg227 2.032 . S
O232 C235 1.259 . S
O233 Mg224 2.114 . S
O233 C236 1.252 . S
O234 Mg224 2.251 . S
O234 Mg227 2.079 . S
O234 C236 1.273 . S
C235 O231 1.246 . S
C235 O232 1.259 . S
C236 O233 1.252 . S
C236 O234 1.273 . S
O237 Mg224 2.010 . S
O237 C229 1.249 . S
Mg238 O239 2.028 . S
Mg238 O245 1.986 . S
Mg238 O247 2.114 . S
Mg238 O248 2.251 . S
Mg238 O251 2.010 . S
O239 Mg238 2.028 . S
O239 C242 1.250 . S
O240 Mg241 2.028 . S
O240 C242 1.248 . S
Mg241 O240 2.028 . S
Mg241 O246 2.032 . S
Mg241 O248 2.079 . S
C242 O239 1.250 . S
C242 O240 1.248 . S
C243 O244 1.264 . S
C243 O251 1.249 . S
O244 C243 1.264 . S
O245 Mg238 1.986 . S
O245 C249 1.246 . S
O246 Mg241 2.032 . S
O246 C249 1.259 . S
O247 Mg238 2.114 . S
O247 C250 1.252 . S
O248 Mg238 2.251 . S
O248 Mg241 2.079 . S
O248 C250 1.273 . S
C249 O245 1.246 . S
C249 O246 1.259 . S
C250 O247 1.252 . S
C250 O248 1.273 . S
O251 Mg238 2.010 . S
O251 C243 1.249 . S
Mg252 O253 2.028 . S
Mg252 O259 1.986 . S
Mg252 O261 2.114 . S
Mg252 O262 2.251 . S
Mg252 O265 2.010 . S
O253 Mg252 2.028 . S
O253 C256 1.250 . S
O254 Mg255 2.028 . S
O254 C256 1.248 . S
Mg255 O254 2.028 . S
Mg255 O260 2.032 . S
Mg255 O262 2.079 . S
C256 O253 1.250 . S
C256 O254 1.248 . S
C257 O258 1.264 . S
C257 O265 1.249 . S
O258 C257 1.264 . S
O259 Mg252 1.986 . S
O259 C263 1.246 . S
O260 Mg255 2.032 . S
O260 C263 1.259 . S
O261 Mg252 2.114 . S
O261 C264 1.252 . S
O262 Mg252 2.251 . S
O262 Mg255 2.079 . S
O262 C264 1.273 . S
C263 O259 1.246 . S
C263 O260 1.259 . S
C264 O261 1.252 . S
C264 O262 1.273 . S
O265 Mg252 2.010 . S
O265 C257 1.249 . S
Mg266 O267 2.028 . S
Mg266 O273 1.986 . S
Mg266 O275 2.114 . S
Mg266 O276 2.251 . S
Mg266 O279 2.010 . S
O267 Mg266 2.028 . S
O267 C270 1.250 . S
O268 Mg269 2.028 . S
O268 C270 1.248 . S
Mg269 O268 2.028 . S
Mg269 O274 2.032 . S
Mg269 O276 2.079 . S
C270 O267 1.250 . S
C270 O268 1.248 . S
C271 O272 1.264 . S
C271 O279 1.249 . S
O272 C271 1.264 . S
O273 Mg266 1.986 . S
O273 C277 1.246 . S
O274 Mg269 2.032 . S
O274 C277 1.259 . S
O275 Mg266 2.114 . S
O275 C278 1.252 . S
O276 Mg266 2.251 . S
O276 Mg269 2.079 . S
O276 C278 1.273 . S
C277 O273 1.246 . S
C277 O274 1.259 . S
C278 O275 1.252 . S
C278 O276 1.273 . S
O279 Mg266 2.010 . S
O279 C271 1.249 . S
Mg280 O281 2.028 . S
Mg280 O287 1.986 . S
Mg280 O289 2.114 . S
Mg280 O290 2.251 . S
Mg280 O293 2.010 . S
O281 Mg280 2.028 . S
O281 C284 1.250 . S
O282 Mg283 2.028 . S
O282 C284 1.248 . S
Mg283 O282 2.028 . S
Mg283 O288 2.032 . S
Mg283 O290 2.079 . S
C284 O281 1.250 . S
C284 O282 1.248 . S
C285 O286 1.264 . S
C285 O293 1.249 . S
O286 C285 1.264 . S
O287 Mg280 1.986 . S
O287 C291 1.246 . S
O288 Mg283 2.032 . S
O288 C291 1.259 . S
O289 Mg280 2.114 . S
O289 C292 1.252 . S
O290 Mg280 2.251 . S
O290 Mg283 2.079 . S
O290 C292 1.273 . S
C291 O287 1.246 . S
C291 O288 1.259 . S
C292 O289 1.252 . S
C292 O290 1.273 . S
O293 Mg280 2.010 . S
O293 C285 1.249 . S
Mg294 O295 2.028 . S
Mg294 O301 1.986 . S
Mg294 O303 2.114 . S
Mg294 O304 2.251 . S
Mg294 O307 2.010 . S
O295 Mg294 2.028 . S
O295 C298 1.250 . S
O296 Mg297 2.028 . S
O296 C298 1.248 . S
Mg297 O296 2.028 . S
Mg297 O302 2.032 . S
Mg297 O304 2.079 . S
C298 O295 1.250 . S
C298 O296 1.248 . S
C299 O300 1.264 . S
C299 O307 1.249 . S
O300 C299 1.264 . S
O301 Mg294 1.986 . S
O301 C305 1.246 . S
O302 Mg297 2.032 . S
O302 C305 1.259 . S
O303 Mg294 2.114 . S
O303 C306 1.252 . S
O304 Mg294 2.251 . S
O304 Mg297 2.079 . S
O304 C306 1.273 . S
C305 O301 1.246 . S
C305 O302 1.259 . S
C306 O303 1.252 . S
C306 O304 1.273 . S
O307 Mg294 2.010 . S
O307 C299 1.249 . S
Mg308 O309 2.028 . S
Mg308 O315 1.986 . S
Mg308 O317 2.114 . S
Mg308 O318 2.251 . S
Mg308 O321 2.010 . S
O309 Mg308 2.028 . S
O309 C312 1.250 . S
O310 Mg311 2.028 . S
O310 C312 1.248 . S
Mg311 O310 2.028 . S
Mg311 O316 2.032 . S
Mg311 O318 2.079 . S
C312 O309 1.250 . S
C312 O310 1.248 . S
C313 O314 1.264 . S
C313 O321 1.249 . S
O314 C313 1.264 . S
O315 Mg308 1.986 . S
O315 C319 1.246 . S
O316 Mg311 2.032 . S
O316 C319 1.259 . S
O317 Mg308 2.114 . S
O317 C320 1.252 . S
O318 Mg308 2.251 . S
O318 Mg311 2.079 . S
O318 C320 1.273 . S
C319 O315 1.246 . S
C319 O316 1.259 . S
C320 O317 1.252 . S
C320 O318 1.273 . S
O321 Mg308 2.010 . S
O321 C313 1.249 . S
Mg322 O323 2.028 . S
Mg322 O329 1.986 . S
Mg322 O331 2.114 . S
Mg322 O332 2.251 . S
Mg322 O335 2.010 . S
O323 Mg322 2.028 . S
O323 C326 1.250 . S
O324 Mg325 2.028 . S
O324 C326 1.248 . S
Mg325 O324 2.028 . S
Mg325 O330 2.032 . S
Mg325 O332 2.079 . S
C326 O323 1.250 . S
C326 O324 1.248 . S
C327 O328 1.264 . S
C327 O335 1.249 . S
O328 C327 1.264 . S
O329 Mg322 1.986 . S
O329 C333 1.246 . S
O330 Mg325 2.032 . S
O330 C333 1.259 . S
O331 Mg322 2.114 . S
O331 C334 1.252 . S
O332 Mg322 2.251 . S
O332 Mg325 2.079 . S
O332 C334 1.273 . S
C333 O329 1.246 . S
C333 O330 1.259 . S
C334 O331 1.252 . S
C334 O332 1.273 . S
O335 Mg322 2.010 . S
O335 C327 1.249 . S
Mg336 O337 2.028 . S
Mg336 O343 1.986 . S
Mg336 O345 2.114 . S
Mg336 O346 2.251 . S
Mg336 O349 2.010 . S
O337 Mg336 2.028 . S
O337 C340 1.250 . S
O338 Mg339 2.028 . S
O338 C340 1.248 . S
Mg339 O338 2.028 . S
Mg339 O344 2.032 . S
Mg339 O346 2.079 . S
C340 O337 1.250 . S
C340 O338 1.248 . S
C341 O342 1.264 . S
C341 O349 1.249 . S
O342 C341 1.264 . S
O343 Mg336 1.986 . S
O343 C347 1.246 . S
O344 Mg339 2.032 . S
O344 C347 1.259 . S
O345 Mg336 2.114 . S
O345 C348 1.252 . S
O346 Mg336 2.251 . S
O346 Mg339 2.079 . S
O346 C348 1.273 . S
C347 O343 1.246 . S
C347 O344 1.259 . S
C348 O345 1.252 . S
C348 O346 1.273 . S
O349 Mg336 2.010 . S
O349 C341 1.249 . S
Mg350 O351 2.028 . S
Mg350 O357 1.986 . S
Mg350 O359 2.114 . S
Mg350 O360 2.251 . S
Mg350 O363 2.010 . S
O351 Mg350 2.028 . S
O351 C354 1.250 . S
O352 Mg353 2.028 . S
O352 C354 1.248 . S
Mg353 O352 2.028 . S
Mg353 O358 2.032 . S
Mg353 O360 2.079 . S
C354 O351 1.250 . S
C354 O352 1.248 . S
C355 O356 1.264 . S
C355 O363 1.249 . S
O356 C355 1.264 . S
O357 Mg350 1.986 . S
O357 C361 1.246 . S
O358 Mg353 2.032 . S
O358 C361 1.259 . S
O359 Mg350 2.114 . S
O359 C362 1.252 . S
O360 Mg350 2.251 . S
O360 Mg353 2.079 . S
O360 C362 1.273 . S
C361 O357 1.246 . S
C361 O358 1.259 . S
C362 O359 1.252 . S
C362 O360 1.273 . S
O363 Mg350 2.010 . S
O363 C355 1.249 . S
Mg364 O365 2.028 . S
Mg364 O371 1.986 . S
Mg364 O373 2.114 . S
Mg364 O374 2.251 . S
Mg364 O377 2.010 . S
O365 Mg364 2.028 . S
O365 C368 1.250 . S
O366 Mg367 2.028 . S
O366 C368 1.248 . S
Mg367 O366 2.028 . S
Mg367 O372 2.032 . S
Mg367 O374 2.079 . S
C368 O365 1.250 . S
C368 O366 1.248 . S
C369 O370 1.264 . S
C369 O377 1.249 . S
O370 C369 1.264 . S
O371 Mg364 1.986 . S
O371 C375 1.246 . S
O372 Mg367 2.032 . S
O372 C375 1.259 . S
O373 Mg364 2.114 . S
O373 C376 1.252 . S
O374 Mg364 2.251 . S
O374 Mg367 2.079 . S
O374 C376 1.273 . S
C375 O371 1.246 . S
C375 O372 1.259 . S
C376 O373 1.252 . S
C376 O374 1.273 . S
O377 Mg364 2.010 . S
O377 C369 1.249 . S
Mg378 O379 2.028 . S
Mg378 O385 1.986 . S
Mg378 O387 2.114 . S
Mg378 O388 2.251 . S
Mg378 O391 2.010 . S
O379 Mg378 2.028 . S
O379 C382 1.250 . S
O380 Mg381 2.028 . S
O380 C382 1.248 . S
Mg381 O380 2.028 . S
Mg381 O386 2.032 . S
Mg381 O388 2.079 . S
C382 O379 1.250 . S
C382 O380 1.248 . S
C383 O384 1.264 . S
C383 O391 1.249 . S
O384 C383 1.264 . S
O385 Mg378 1.986 . S
O385 C389 1.246 . S
O386 Mg381 2.032 . S
O386 C389 1.259 . S
O387 Mg378 2.114 . S
O387 C390 1.252 . S
O388 Mg378 2.251 . S
O388 Mg381 2.079 . S
O388 C390 1.273 . S
C389 O385 1.246 . S
C389 O386 1.259 . S
C390 O387 1.252 . S
C390 O388 1.273 . S
O391 Mg378 2.010 . S
O391 C383 1.249 . S
Mg392 O393 2.028 . S
Mg392 O399 1.986 . S
Mg392 O401 2.114 . S
Mg392 O402 2.251 . S
Mg392 O405 2.010 . S
O393 Mg392 2.028 . S
O393 C396 1.250 . S
O394 Mg395 2.028 . S
O394 C396 1.248 . S
Mg395 O394 2.028 . S
Mg395 O400 2.032 . S
Mg395 O402 2.079 . S
C396 O393 1.250 . S
C396 O394 1.248 . S
C397 O398 1.264 . S
C397 O405 1.249 . S
O398 C397 1.264 . S
O399 Mg392 1.986 . S
O399 C403 1.246 . S
O400 Mg395 2.032 . S
O400 C403 1.259 . S
O401 Mg392 2.114 . S
O401 C404 1.252 . S
O402 Mg392 2.251 . S
O402 Mg395 2.079 . S
O402 C404 1.273 . S
C403 O399 1.246 . S
C403 O400 1.259 . S
C404 O401 1.252 . S
C404 O402 1.273 . S
O405 Mg392 2.010 . S
O405 C397 1.249 . S
Mg406 O407 2.028 . S
Mg406 O413 1.986 . S
Mg406 O415 2.114 . S
Mg406 O416 2.251 . S
Mg406 O419 2.010 . S
O407 Mg406 2.028 . S
O407 C410 1.250 . S
O408 Mg409 2.028 . S
O408 C410 1.248 . S
Mg409 O408 2.028 . S
Mg409 O414 2.032 . S
Mg409 O416 2.079 . S
C410 O407 1.250 . S
C410 O408 1.248 . S
C411 O412 1.264 . S
C411 O419 1.249 . S
O412 C411 1.264 . S
O413 Mg406 1.986 . S
O413 C417 1.246 . S
O414 Mg409 2.032 . S
O414 C417 1.259 . S
O415 Mg406 2.114 . S
O415 C418 1.252 . S
O416 Mg406 2.251 . S
O416 Mg409 2.079 . S
O416 C418 1.273 . S
C417 O413 1.246 . S
C417 O414 1.259 . S
C418 O415 1.252 . S
C418 O416 1.273 . S
O419 Mg406 2.010 . S
O419 C411 1.249 . S
Mg420 O421 2.028 . S
Mg420 O427 1.986 . S
Mg420 O429 2.114 . S
Mg420 O430 2.251 . S
Mg420 O433 2.010 . S
O421 Mg420 2.028 . S
O421 C424 1.250 . S
O422 Mg423 2.028 . S
O422 C424 1.248 . S
Mg423 O422 2.028 . S
Mg423 O428 2.032 . S
Mg423 O430 2.079 . S
C424 O421 1.250 . S
C424 O422 1.248 . S
C425 O426 1.264 . S
C425 O433 1.249 . S
O426 C425 1.264 . S
O427 Mg420 1.986 . S
O427 C431 1.246 . S
O428 Mg423 2.032 . S
O428 C431 1.259 . S
O429 Mg420 2.114 . S
O429 C432 1.252 . S
O430 Mg420 2.251 . S
O430 Mg423 2.079 . S
O430 C432 1.273 . S
C431 O427 1.246 . S
C431 O428 1.259 . S
C432 O429 1.252 . S
C432 O430 1.273 . S
O433 Mg420 2.010 . S
O433 C425 1.249 . S
Mg434 O435 2.028 . S
Mg434 O441 1.986 . S
Mg434 O443 2.114 . S
Mg434 O444 2.251 . S
Mg434 O447 2.010 . S
O435 Mg434 2.028 . S
O435 C438 1.250 . S
O436 Mg437 2.028 . S
O436 C438 1.248 . S
Mg437 O436 2.028 . S
Mg437 O442 2.032 . S
Mg437 O444 2.079 . S
C438 O435 1.250 . S
C438 O436 1.248 . S
C439 O440 1.264 . S
C439 O447 1.249 . S
O440 C439 1.264 . S
O441 Mg434 1.986 . S
O441 C445 1.246 . S
O442 Mg437 2.032 . S
O442 C445 1.259 . S
O443 Mg434 2.114 . S
O443 C446 1.252 . S
O444 Mg434 2.251 . S
O444 Mg437 2.079 . S
O444 C446 1.273 . S
C445 O441 1.246 . S
C445 O442 1.259 . S
C446 O443 1.252 . S
C446 O444 1.273 . S
O447 Mg434 2.010 . S
O447 C439 1.249 . S
Mg448 O449 2.028 . S
Mg448 O455 1.986 . S
Mg448 O457 2.114 . S
Mg448 O458 2.251 . S
Mg448 O461 2.010 . S
O449 Mg448 2.028 . S
O449 C452 1.250 . S
O450 Mg451 2.028 . S
O450 C452 1.248 . S
Mg451 O450 2.028 . S
Mg451 O456 2.032 . S
Mg451 O458 2.079 . S
C452 O449 1.250 . S
C452 O450 1.248 . S
C453 O454 1.264 . S
C453 O461 1.249 . S
O454 C453 1.264 . S
O455 Mg448 1.986 . S
O455 C459 1.246 . S
O456 Mg451 2.032 . S
O456 C459 1.259 . S
O457 Mg448 2.114 . S
O457 C460 1.252 . S
O458 Mg448 2.251 . S
O458 Mg451 2.079 . S
O458 C460 1.273 . S
C459 O455 1.246 . S
C459 O456 1.259 . S
C460 O457 1.252 . S
C460 O458 1.273 . S
O461 Mg448 2.010 . S
O461 C453 1.249 . S
Mg462 O463 2.028 . S
Mg462 O469 1.986 . S
Mg462 O471 2.114 . S
Mg462 O472 2.251 . S
Mg462 O475 2.010 . S
O463 Mg462 2.028 . S
O463 C466 1.250 . S
O464 Mg465 2.028 . S
O464 C466 1.248 . S
Mg465 O464 2.028 . S
Mg465 O470 2.032 . S
Mg465 O472 2.079 . S
C466 O463 1.250 . S
C466 O464 1.248 . S
C467 O468 1.264 . S
C467 O475 1.249 . S
O468 C467 1.264 . S
O469 Mg462 1.986 . S
O469 C473 1.246 . S
O470 Mg465 2.032 . S
O470 C473 1.259 . S
O471 Mg462 2.114 . S
O471 C474 1.252 . S
O472 Mg462 2.251 . S
O472 Mg465 2.079 . S
O472 C474 1.273 . S
C473 O469 1.246 . S
C473 O470 1.259 . S
C474 O471 1.252 . S
C474 O472 1.273 . S
O475 Mg462 2.010 . S
O475 C467 1.249 . S
Mg476 O477 2.028 . S
Mg476 O483 1.986 . S
Mg476 O485 2.114 . S
Mg476 O486 2.251 . S
Mg476 O489 2.010 . S
O477 Mg476 2.028 . S
O477 C480 1.250 . S
O478 Mg479 2.028 . S
O478 C480 1.248 . S
Mg479 O478 2.028 . S
Mg479 O484 2.032 . S
Mg479 O486 2.079 . S
C480 O477 1.250 . S
C480 O478 1.248 . S
C481 O482 1.264 . S
C481 O489 1.249 . S
O482 C481 1.264 . S
O483 Mg476 1.986 . S
O483 C487 1.246 . S
O484 Mg479 2.032 . S
O484 C487 1.259 . S
O485 Mg476 2.114 . S
O485 C488 1.252 . S
O486 Mg476 2.251 . S
O486 Mg479 2.079 . S
O486 C488 1.273 . S
C487 O483 1.246 . S
C487 O484 1.259 . S
C488 O485 1.252 . S
C488 O486 1.273 . S
O489 Mg476 2.010 . S
O489 C481 1.249 . S
Mg490 O491 2.028 . S
Mg490 O497 1.986 . S
Mg490 O499 2.114 . S
Mg490 O500 2.251 . S
Mg490 O503 2.010 . S
O491 Mg490 2.028 . S
O491 C494 1.250 . S
O492 Mg493 2.028 . S
O492 C494 1.248 . S
Mg493 O492 2.028 . S
Mg493 O498 2.032 . S
Mg493 O500 2.079 . S
C494 O491 1.250 . S
C494 O492 1.248 . S
C495 O496 1.264 . S
C495 O503 1.249 . S
O496 C495 1.264 . S
O497 Mg490 1.986 . S
O497 C501 1.246 . S
O498 Mg493 2.032 . S
O498 C501 1.259 . S
O499 Mg490 2.114 . S
O499 C502 1.252 . S
O500 Mg490 2.251 . S
O500 Mg493 2.079 . S
O500 C502 1.273 . S
C501 O497 1.246 . S
C501 O498 1.259 . S
C502 O499 1.252 . S
C502 O500 1.273 . S
O503 Mg490 2.010 . S
O503 C495 1.249 . S
C504 C505 1.349 . S
C504 C506 1.327 . S
C504 H529 0.950 . S
C505 C504 1.349 . S
C505 C521 1.349 . S
C506 C504 1.327 . S
C506 C525 1.429 . S
C506 H530 0.950 . S
C507 C524 1.574 . S
C507 C526 1.368 . S
C507 H531 0.949 . S
H508 C512 0.949 . S
C509 C510 1.349 . S
C509 C511 1.327 . S
C509 H532 0.950 . S
C510 C509 1.349 . S
C510 C522 1.349 . S
C511 C509 1.327 . S
C511 C527 1.429 . S
C511 H533 0.950 . S
C512 H508 0.949 . S
C512 C520 1.574 . S
C512 C528 1.368 . S
H513 C521 0.950 . S
H514 C519 0.950 . S
H515 C520 0.949 . S
H516 C522 0.950 . S
H517 C523 0.950 . S
H518 C524 0.949 . S
C519 H514 0.950 . S
C519 C521 1.327 . S
C519 C525 1.429 . S
C520 C512 1.574 . S
C520 H515 0.949 . S
C520 C526 1.368 1_545 S
C521 C505 1.349 . S
C521 H513 0.950 . S
C521 C519 1.327 . S
C522 C510 1.349 . S
C522 H516 0.950 . S
C522 C523 1.327 . S
C523 H517 0.950 . S
C523 C522 1.327 . S
C523 C527 1.429 . S
C524 C507 1.574 . S
C524 H518 0.949 . S
C524 C528 1.368 1_565 S
C525 C506 1.429 . S
C525 C519 1.429 . S
C525 C526 1.523 . S
C526 C507 1.368 . S
C526 C520 1.368 1_565 S
C526 C525 1.523 . S
C527 C511 1.429 . S
C527 C523 1.429 . S
C527 C528 1.523 . S
C528 C512 1.368 . S
C528 C524 1.368 1_545 S
C528 C527 1.523 . S
H529 C504 0.950 . S
H530 C506 0.950 . S
H531 C507 0.949 . S
H532 C509 0.950 . S
H533 C511 0.950 . S
C534 C535 1.349 . S
C534 C536 1.327 . S
C534 H559 0.950 . S
C535 C534 1.349 . S
C535 C551 1.349 . S
C536 C534 1.327 . S
C536 C555 1.429 . S
C536 H560 0.950 . S
C537 C554 1.574 . S
C537 C556 1.368 1_655 S
C537 H561 0.949 . S
H538 C542 0.949 . S
C539 C540 1.349 . S
C539 C541 1.327 . S
C539 H562 0.950 . S
C540 C539 1.349 . S
C540 C552 1.349 . S
C541 C539 1.327 . S
C541 C557 1.429 . S
C541 H563 0.950 . S
C542 H538 0.949 . S
C542 C550 1.574 . S
C542 C558 1.368 1_455 S
H543 C551 0.950 . S
H544 C549 0.950 . S
H545 C550 0.949 . S
H546 C552 0.950 . S
H547 C553 0.950 . S
H548 C554 0.949 . S
C549 H544 0.950 . S
C549 C551 1.327 . S
C549 C555 1.429 . S
C550 C542 1.574 . S
C550 H545 0.949 . S
C550 C556 1.368 . S
C551 C535 1.349 . S
C551 H543 0.950 . S
C551 C549 1.327 . S
C552 C540 1.349 . S
C552 H546 0.950 . S
C552 C553 1.327 . S
C553 H547 0.950 . S
C553 C552 1.327 . S
C553 C557 1.429 . S
C554 C537 1.574 . S
C554 H548 0.949 . S
C554 C558 1.368 . S
C555 C536 1.429 . S
C555 C549 1.429 . S
C555 C556 1.523 . S
C556 C537 1.368 1_455 S
C556 C550 1.368 . S
C556 C555 1.523 . S
C557 C541 1.429 . S
C557 C553 1.429 . S
C557 C558 1.523 . S
C558 C542 1.368 1_655 S
C558 C554 1.368 . S
C558 C557 1.523 . S
H559 C534 0.950 . S
H560 C536 0.950 . S
H561 C537 0.949 . S
H562 C539 0.950 . S
H563 C541 0.950 . S
C564 C565 1.349 . S
C564 C566 1.327 . S
C564 H589 0.950 . S
C565 C564 1.349 . S
C565 C581 1.349 . S
C566 C564 1.327 . S
C566 C585 1.429 . S
C566 H590 0.950 . S
C567 C584 1.574 . S
C567 C586 1.368 . S
C567 H591 0.949 . S
H568 C572 0.949 . S
C569 C570 1.349 . S
C569 C571 1.327 . S
C569 H592 0.950 . S
C570 C569 1.349 . S
C570 C582 1.349 . S
C571 C569 1.327 . S
C571 C587 1.429 . S
C571 H593 0.950 . S
C572 H568 0.949 . S
C572 C580 1.574 . S
C572 C588 1.368 . S
H573 C581 0.950 . S
H574 C579 0.950 . S
H575 C580 0.949 . S
H576 C582 0.950 . S
H577 C583 0.950 . S
H578 C584 0.949 . S
C579 H574 0.950 . S
C579 C581 1.327 . S
C579 C585 1.429 . S
C580 C572 1.574 . S
C580 H575 0.949 . S
C580 C586 1.368 . S
C581 C565 1.349 . S
C581 H573 0.950 . S
C581 C579 1.327 . S
C582 C570 1.349 . S
C582 H576 0.950 . S
C582 C583 1.327 . S
C583 H577 0.950 . S
C583 C582 1.327 . S
C583 C587 1.429 . S
C584 C567 1.574 . S
C584 H578 0.949 . S
C584 C588 1.368 . S
C585 C566 1.429 . S
C585 C579 1.429 . S
C585 C586 1.523 . S
C586 C567 1.368 . S
C586 C580 1.368 . S
C586 C585 1.523 . S
C587 C571 1.429 . S
C587 C583 1.429 . S
C587 C588 1.523 . S
C588 C572 1.368 . S
C588 C584 1.368 . S
C588 C587 1.523 . S
H589 C564 0.950 . S
H590 C566 0.950 . S
H591 C567 0.949 . S
H592 C569 0.950 . S
H593 C571 0.950 . S
C594 C595 1.349 . S
C594 C596 1.327 . S
C594 H619 0.950 . S
C595 C594 1.349 . S
C595 C611 1.349 . S
C596 C594 1.327 . S
C596 C615 1.429 . S
C596 H620 0.950 . S
C597 C614 1.574 . S
C597 C616 1.368 . S
C597 H621 0.949 . S
H598 C602 0.949 . S
C599 C600 1.349 . S
C599 C601 1.327 . S
C599 H622 0.950 . S
C600 C599 1.349 . S
C600 C612 1.349 . S
C601 C599 1.327 . S
C601 C617 1.429 . S
C601 H623 0.950 . S
C602 H598 0.949 . S
C602 C610 1.574 . S
C602 C618 1.368 . S
H603 C611 0.950 . S
H604 C609 0.950 . S
H605 C610 0.949 . S
H606 C612 0.950 . S
H607 C613 0.950 . S
H608 C614 0.949 . S
C609 H604 0.950 . S
C609 C611 1.327 . S
C609 C615 1.429 . S
C610 C602 1.574 . S
C610 H605 0.949 . S
C610 C616 1.368 1_545 S
C611 C595 1.349 . S
C611 H603 0.950 . S
C611 C609 1.327 . S
C612 C600 1.349 . S
C612 H606 0.950 . S
C612 C613 1.327 . S
C613 H607 0.950 . S
C613 C612 1.327 . S
C613 C617 1.429 . S
C614 C597 1.574 . S
C614 H608 0.949 . S
C614 C618 1.368 1_565 S
C615 C596 1.429 . S
C615 C609 1.429 . S
C615 C616 1.523 . S
C616 C597 1.368 . S
C616 C610 1.368 1_565 S
C616 C615 1.523 . S
C617 C601 1.429 . S
C617 C613 1.429 . S
C617 C618 1.523 . S
C618 C602 1.368 . S
C618 C614 1.368 1_545 S
C618 C617 1.523 . S
H619 C594 0.950 . S
H620 C596 0.950 . S
H621 C597 0.949 . S
H622 C599 0.950 . S
H623 C601 0.950 . S
C624 C625 1.349 . S
C624 C626 1.327 . S
C624 H649 0.950 . S
C625 C624 1.349 . S
C625 C641 1.349 . S
C626 C624 1.327 . S
C626 C645 1.429 . S
C626 H650 0.950 . S
C627 C644 1.574 . S
C627 C646 1.368 1_655 S
C627 H651 0.949 . S
H628 C632 0.949 . S
C629 C630 1.349 . S
C629 C631 1.327 . S
C629 H652 0.950 . S
C630 C629 1.349 . S
C630 C642 1.349 . S
C631 C629 1.327 . S
C631 C647 1.429 . S
C631 H653 0.950 . S
C632 H628 0.949 . S
C632 C640 1.574 . S
C632 C648 1.368 1_455 S
H633 C641 0.950 . S
H634 C639 0.950 . S
H635 C640 0.949 . S
H636 C642 0.950 . S
H637 C643 0.950 . S
H638 C644 0.949 . S
C639 H634 0.950 . S
C639 C641 1.327 . S
C639 C645 1.429 . S
C640 C632 1.574 . S
C640 H635 0.949 . S
C640 C646 1.368 . S
C641 C625 1.349 . S
C641 H633 0.950 . S
C641 C639 1.327 . S
C642 C630 1.349 . S
C642 H636 0.950 . S
C642 C643 1.327 . S
C643 H637 0.950 . S
C643 C642 1.327 . S
C643 C647 1.429 . S
C644 C627 1.574 . S
C644 H638 0.949 . S
C644 C648 1.368 . S
C645 C626 1.429 . S
C645 C639 1.429 . S
C645 C646 1.523 . S
C646 C627 1.368 1_455 S
C646 C640 1.368 . S
C646 C645 1.523 . S
C647 C631 1.429 . S
C647 C643 1.429 . S
C647 C648 1.523 . S
C648 C632 1.368 1_655 S
C648 C644 1.368 . S
C648 C647 1.523 . S
H649 C624 0.950 . S
H650 C626 0.950 . S
H651 C627 0.949 . S
H652 C629 0.950 . S
H653 C631 0.950 . S
C654 C655 1.349 . S
C654 C656 1.327 . S
C654 H679 0.950 . S
C655 C654 1.349 . S
C655 C671 1.349 . S
C656 C654 1.327 . S
C656 C675 1.429 . S
C656 H680 0.950 . S
C657 C674 1.574 . S
C657 C676 1.368 . S
C657 H681 0.949 . S
H658 C662 0.949 . S
C659 C660 1.349 . S
C659 C661 1.327 . S
C659 H682 0.950 . S
C660 C659 1.349 . S
C660 C672 1.349 . S
C661 C659 1.327 . S
C661 C677 1.429 . S
C661 H683 0.950 . S
C662 H658 0.949 . S
C662 C670 1.574 . S
C662 C678 1.368 . S
H663 C671 0.950 . S
H664 C669 0.950 . S
H665 C670 0.949 . S
H666 C672 0.950 . S
H667 C673 0.950 . S
H668 C674 0.949 . S
C669 H664 0.950 . S
C669 C671 1.327 . S
C669 C675 1.429 . S
C670 C662 1.574 . S
C670 H665 0.949 . S
C670 C676 1.368 . S
C671 C655 1.349 . S
C671 H663 0.950 . S
C671 C669 1.327 . S
C672 C660 1.349 . S
C672 H666 0.950 . S
C672 C673 1.327 . S
C673 H667 0.950 . S
C673 C672 1.327 . S
C673 C677 1.429 . S
C674 C657 1.574 . S
C674 H668 0.949 . S
C674 C678 1.368 . S
C675 C656 1.429 . S
C675 C669 1.429 . S
C675 C676 1.523 . S
C676 C657 1.368 . S
C676 C670 1.368 . S
C676 C675 1.523 . S
C677 C661 1.429 . S
C677 C673 1.429 . S
C677 C678 1.523 . S
C678 C662 1.368 . S
C678 C674 1.368 . S
C678 C677 1.523 . S
H679 C654 0.950 . S
H680 C656 0.950 . S
H681 C657 0.949 . S
H682 C659 0.950 . S
H683 C661 0.950 . S
C684 C685 1.349 . S
C684 C686 1.327 . S
C684 H709 0.950 . S
C685 C684 1.349 . S
C685 C701 1.349 . S
C686 C684 1.327 . S
C686 C705 1.429 . S
C686 H710 0.950 . S
C687 C704 1.574 . S
C687 C706 1.368 . S
C687 H711 0.949 . S
H688 C692 0.949 . S
C689 C690 1.349 . S
C689 C691 1.327 . S
C689 H712 0.950 . S
C690 C689 1.349 . S
C690 C702 1.349 . S
C691 C689 1.327 . S
C691 C707 1.429 . S
C691 H713 0.950 . S
C692 H688 0.949 . S
C692 C700 1.574 . S
C692 C708 1.368 . S
H693 C701 0.950 . S
H694 C699 0.950 . S
H695 C700 0.949 . S
H696 C702 0.950 1_554 S
H697 C703 0.950 . S
H698 C704 0.949 . S
C699 H694 0.950 . S
C699 C701 1.327 . S
C699 C705 1.429 . S
C700 C692 1.574 . S
C700 H695 0.949 . S
C700 C706 1.368 . S
C701 C685 1.349 . S
C701 H693 0.950 . S
C701 C699 1.327 . S
C702 C690 1.349 . S
C702 H696 0.950 1_556 S
C702 C703 1.327 . S
C703 H697 0.950 . S
C703 C702 1.327 . S
C703 C707 1.429 . S
C704 C687 1.574 . S
C704 H698 0.949 . S
C704 C708 1.368 . S
C705 C686 1.429 . S
C705 C699 1.429 . S
C705 C706 1.523 . S
C706 C687 1.368 . S
C706 C700 1.368 . S
C706 C705 1.523 . S
C707 C691 1.429 . S
C707 C703 1.429 . S
C707 C708 1.523 . S
C708 C692 1.368 . S
C708 C704 1.368 . S
C708 C707 1.523 . S
H709 C684 0.950 . S
H710 C686 0.950 . S
H711 C687 0.949 . S
H712 C689 0.950 . S
H713 C691 0.950 . S
C714 C715 1.349 . S
C714 C716 1.327 . S
C714 H739 0.950 . S
C715 C714 1.349 . S
C715 C731 1.349 . S
C716 C714 1.327 . S
C716 C735 1.429 . S
C716 H740 0.950 . S
C717 C734 1.574 . S
C717 C736 1.368 . S
C717 H741 0.949 . S
H718 C722 0.949 . S
C719 C720 1.349 . S
C719 C721 1.327 . S
C719 H742 0.950 . S
C720 C719 1.349 . S
C720 C732 1.349 . S
C721 C719 1.327 . S
C721 C737 1.429 . S
C721 H743 0.950 . S
C722 H718 0.949 . S
C722 C730 1.574 . S
C722 C738 1.368 . S
H723 C731 0.950 . S
H724 C729 0.950 . S
H725 C730 0.949 . S
H726 C732 0.950 . S
H727 C733 0.950 . S
H728 C734 0.949 . S
C729 H724 0.950 . S
C729 C731 1.327 . S
C729 C735 1.429 . S
C730 C722 1.574 . S
C730 H725 0.949 . S
C730 C736 1.368 . S
C731 C715 1.349 . S
C731 H723 0.950 . S
C731 C729 1.327 . S
C732 C720 1.349 . S
C732 H726 0.950 . S
C732 C733 1.327 . S
C733 H727 0.950 . S
C733 C732 1.327 . S
C733 C737 1.429 . S
C734 C717 1.574 . S
C734 H728 0.949 . S
C734 C738 1.368 . S
C735 C716 1.429 . S
C735 C729 1.429 . S
C735 C736 1.523 . S
C736 C717 1.368 . S
C736 C730 1.368 . S
C736 C735 1.523 . S
C737 C721 1.429 . S
C737 C733 1.429 . S
C737 C738 1.523 . S
C738 C722 1.368 . S
C738 C734 1.368 . S
C738 C737 1.523 . S
H739 C714 0.950 . S
H740 C716 0.950 . S
H741 C717 0.949 . S
H742 C719 0.950 . S
H743 C721 0.950 . S
C744 C745 1.349 . S
C744 C746 1.327 . S
C744 H769 0.950 . S
C745 C744 1.349 . S
C745 C761 1.349 . S
C746 C744 1.327 . S
C746 C765 1.429 . S
C746 H770 0.950 . S
C747 C764 1.574 . S
C747 C766 1.368 . S
C747 H771 0.949 . S
H748 C752 0.949 . S
C749 C750 1.349 . S
C749 C751 1.327 . S
C749 H772 0.950 . S
C750 C749 1.349 . S
C750 C762 1.349 . S
C751 C749 1.327 . S
C751 C767 1.429 . S
C751 H773 0.950 . S
C752 H748 0.949 . S
C752 C760 1.574 . S
C752 C768 1.368 . S
H753 C761 0.950 . S
H754 C759 0.950 . S
H755 C760 0.949 . S
H756 C762 0.950 . S
H757 C763 0.950 . S
H758 C764 0.949 . S
C759 H754 0.950 . S
C759 C761 1.327 . S
C759 C765 1.429 . S
C760 C752 1.574 . S
C760 H755 0.949 . S
C760 C766 1.368 . S
C761 C745 1.349 . S
C761 H753 0.950 . S
C761 C759 1.327 . S
C762 C750 1.349 . S
C762 H756 0.950 . S
C762 C763 1.327 . S
C763 H757 0.950 . S
C763 C762 1.327 . S
C763 C767 1.429 . S
C764 C747 1.574 . S
C764 H758 0.949 . S
C764 C768 1.368 . S
C765 C746 1.429 . S
C765 C759 1.429 . S
C765 C766 1.523 . S
C766 C747 1.368 . S
C766 C760 1.368 . S
C766 C765 1.523 . S
C767 C751 1.429 . S
C767 C763 1.429 . S
C767 C768 1.523 . S
C768 C752 1.368 . S
C768 C764 1.368 . S
C768 C767 1.523 . S
H769 C744 0.950 . S
H770 C746 0.950 . S
H771 C747 0.949 . S
H772 C749 0.950 . S
H773 C751 0.950 . S
C774 C775 1.349 . S
C774 C776 1.327 . S
C774 H799 0.950 . S
C775 C774 1.349 . S
C775 C791 1.349 . S
C776 C774 1.327 . S
C776 C795 1.429 . S
C776 H800 0.950 . S
C777 C794 1.574 . S
C777 C796 1.368 . S
C777 H801 0.949 . S
H778 C782 0.949 . S
C779 C780 1.349 . S
C779 C781 1.327 . S
C779 H802 0.950 . S
C780 C779 1.349 . S
C780 C792 1.349 . S
C781 C779 1.327 . S
C781 C797 1.429 . S
C781 H803 0.950 . S
C782 H778 0.949 . S
C782 C790 1.574 . S
C782 C798 1.368 . S
H783 C791 0.950 . S
H784 C789 0.950 . S
H785 C790 0.949 . S
H786 C792 0.950 1_554 S
H787 C793 0.950 . S
H788 C794 0.949 . S
C789 H784 0.950 . S
C789 C791 1.327 . S
C789 C795 1.429 . S
C790 C782 1.574 . S
C790 H785 0.949 . S
C790 C796 1.368 . S
C791 C775 1.349 . S
C791 H783 0.950 . S
C791 C789 1.327 . S
C792 C780 1.349 . S
C792 H786 0.950 1_556 S
C792 C793 1.327 . S
C793 H787 0.950 . S
C793 C792 1.327 . S
C793 C797 1.429 . S
C794 C777 1.574 . S
C794 H788 0.949 . S
C794 C798 1.368 . S
C795 C776 1.429 . S
C795 C789 1.429 . S
C795 C796 1.523 . S
C796 C777 1.368 . S
C796 C790 1.368 . S
C796 C795 1.523 . S
C797 C781 1.429 . S
C797 C793 1.429 . S
C797 C798 1.523 . S
C798 C782 1.368 . S
C798 C794 1.368 . S
C798 C797 1.523 . S
H799 C774 0.950 . S
H800 C776 0.950 . S
H801 C777 0.949 . S
H802 C779 0.950 . S
H803 C781 0.950 . S
C804 C805 1.349 . S
C804 C806 1.327 . S
C804 H829 0.950 . S
C805 C804 1.349 . S
C805 C821 1.349 . S
C806 C804 1.327 . S
C806 C825 1.429 . S
C806 H830 0.950 . S
C807 C824 1.574 . S
C807 C826 1.368 . S
C807 H831 0.949 . S
H808 C812 0.949 . S
C809 C810 1.349 . S
C809 C811 1.327 . S
C809 H832 0.950 . S
C810 C809 1.349 . S
C810 C822 1.349 . S
C811 C809 1.327 . S
C811 C827 1.429 . S
C811 H833 0.950 . S
C812 H808 0.949 . S
C812 C820 1.574 . S
C812 C828 1.368 . S
H813 C821 0.950 1_554 S
H814 C819 0.950 . S
H815 C820 0.949 . S
H816 C822 0.950 . S
H817 C823 0.950 . S
H818 C824 0.949 . S
C819 H814 0.950 . S
C819 C821 1.327 . S
C819 C825 1.429 . S
C820 C812 1.574 . S
C820 H815 0.949 . S
C820 C826 1.368 . S
C821 C805 1.349 . S
C821 H813 0.950 1_556 S
C821 C819 1.327 . S
C822 C810 1.349 . S
C822 H816 0.950 . S
C822 C823 1.327 . S
C823 H817 0.950 . S
C823 C822 1.327 . S
C823 C827 1.429 . S
C824 C807 1.574 . S
C824 H818 0.949 . S
C824 C828 1.368 . S
C825 C806 1.429 . S
C825 C819 1.429 . S
C825 C826 1.523 . S
C826 C807 1.368 . S
C826 C820 1.368 . S
C826 C825 1.523 . S
C827 C811 1.429 . S
C827 C823 1.429 . S
C827 C828 1.523 . S
C828 C812 1.368 . S
C828 C824 1.368 . S
C828 C827 1.523 . S
H829 C804 0.950 . S
H830 C806 0.950 . S
H831 C807 0.949 . S
H832 C809 0.950 . S
H833 C811 0.950 . S
C834 C835 1.349 . S
C834 C836 1.327 . S
C834 H859 0.950 . S
C835 C834 1.349 . S
C835 C851 1.349 . S
C836 C834 1.327 . S
C836 C855 1.429 . S
C836 H860 0.950 . S
C837 C854 1.574 . S
C837 C856 1.368 . S
C837 H861 0.949 . S
H838 C842 0.949 . S
C839 C840 1.349 . S
C839 C841 1.327 . S
C839 H862 0.950 . S
C840 C839 1.349 . S
C840 C852 1.349 . S
C841 C839 1.327 . S
C841 C857 1.429 . S
C841 H863 0.950 . S
C842 H838 0.949 . S
C842 C850 1.574 . S
C842 C858 1.368 . S
H843 C851 0.950 . S
H844 C849 0.950 . S
H845 C850 0.949 . S
H846 C852 0.950 . S
H847 C853 0.950 . S
H848 C854 0.949 . S
C849 H844 0.950 . S
C849 C851 1.327 . S
C849 C855 1.429 . S
C850 C842 1.574 . S
C850 H845 0.949 . S
C850 C856 1.368 . S
C851 C835 1.349 . S
C851 H843 0.950 . S
C851 C849 1.327 . S
C852 C840 1.349 . S
C852 H846 0.950 . S
C852 C853 1.327 . S
C853 H847 0.950 . S
C853 C852 1.327 . S
C853 C857 1.429 . S
C854 C837 1.574 . S
C854 H848 0.949 . S
C854 C858 1.368 . S
C855 C836 1.429 . S
C855 C849 1.429 . S
C855 C856 1.523 . S
C856 C837 1.368 . S
C856 C850 1.368 . S
C856 C855 1.523 . S
C857 C841 1.429 . S
C857 C853 1.429 . S
C857 C858 1.523 . S
C858 C842 1.368 . S
C858 C854 1.368 . S
C858 C857 1.523 . S
H859 C834 0.950 . S
H860 C836 0.950 . S
H861 C837 0.949 . S
H862 C839 0.950 . S
H863 C841 0.950 . S
C864 C865 1.349 . S
C864 C866 1.327 . S
C864 H889 0.950 . S
C865 C864 1.349 . S
C865 C881 1.349 . S
C866 C864 1.327 . S
C866 C885 1.429 . S
C866 H890 0.950 . S
C867 C884 1.574 . S
C867 C886 1.368 . S
C867 H891 0.949 . S
H868 C872 0.949 . S
C869 C870 1.349 . S
C869 C871 1.327 . S
C869 H892 0.950 1_554 S
C870 C869 1.349 . S
C870 C882 1.349 . S
C871 C869 1.327 . S
C871 C887 1.429 . S
C871 H893 0.950 . S
C872 H868 0.949 . S
C872 C880 1.574 . S
C872 C888 1.368 . S
H873 C881 0.950 . S
H874 C879 0.950 . S
H875 C880 0.949 . S
H876 C882 0.950 . S
H877 C883 0.950 . S
H878 C884 0.949 . S
C879 H874 0.950 . S
C879 C881 1.327 . S
C879 C885 1.429 . S
C880 C872 1.574 . S
C880 H875 0.949 . S
C880 C886 1.368 . S
C881 C865 1.349 . S
C881 H873 0.950 . S
C881 C879 1.327 . S
C882 C870 1.349 . S
C882 H876 0.950 . S
C882 C883 1.327 . S
C883 H877 0.950 . S
C883 C882 1.327 . S
C883 C887 1.429 . S
C884 C867 1.574 . S
C884 H878 0.949 . S
C884 C888 1.368 . S
C885 C866 1.429 . S
C885 C879 1.429 . S
C885 C886 1.523 . S
C886 C867 1.368 . S
C886 C880 1.368 . S
C886 C885 1.523 . S
C887 C871 1.429 . S
C887 C883 1.429 . S
C887 C888 1.523 . S
C888 C872 1.368 . S
C888 C884 1.368 . S
C888 C887 1.523 . S
H889 C864 0.950 . S
H890 C866 0.950 . S
H891 C867 0.949 . S
H892 C869 0.950 1_556 S
H893 C871 0.950 . S
C894 C895 1.349 . S
C894 C896 1.327 . S
C894 H919 0.950 . S
C895 C894 1.349 . S
C895 C911 1.349 . S
C896 C894 1.327 . S
C896 C915 1.429 . S
C896 H920 0.950 . S
C897 C914 1.574 . S
C897 C916 1.368 . S
C897 H921 0.949 . S
H898 C902 0.949 . S
C899 C900 1.349 . S
C899 C901 1.327 . S
C899 H922 0.950 . S
C900 C899 1.349 . S
C900 C912 1.349 . S
C901 C899 1.327 . S
C901 C917 1.429 . S
C901 H923 0.950 . S
C902 H898 0.949 . S
C902 C910 1.574 . S
C902 C918 1.368 . S
H903 C911 0.950 . S
H904 C909 0.950 . S
H905 C910 0.949 . S
H906 C912 0.950 1_556 S
H907 C913 0.950 . S
H908 C914 0.949 . S
C909 H904 0.950 . S
C909 C911 1.327 . S
C909 C915 1.429 . S
C910 C902 1.574 . S
C910 H905 0.949 . S
C910 C916 1.368 . S
C911 C895 1.349 . S
C911 H903 0.950 . S
C911 C909 1.327 . S
C912 C900 1.349 . S
C912 H906 0.950 1_554 S
C912 C913 1.327 . S
C913 H907 0.950 . S
C913 C912 1.327 . S
C913 C917 1.429 . S
C914 C897 1.574 . S
C914 H908 0.949 . S
C914 C918 1.368 . S
C915 C896 1.429 . S
C915 C909 1.429 . S
C915 C916 1.523 . S
C916 C897 1.368 . S
C916 C910 1.368 . S
C916 C915 1.523 . S
C917 C901 1.429 . S
C917 C913 1.429 . S
C917 C918 1.523 . S
C918 C902 1.368 . S
C918 C914 1.368 . S
C918 C917 1.523 . S
H919 C894 0.950 . S
H920 C896 0.950 . S
H921 C897 0.949 . S
H922 C899 0.950 . S
H923 C901 0.950 . S
C924 C925 1.349 . S
C924 C926 1.327 . S
C924 H949 0.950 . S
C925 C924 1.349 . S
C925 C941 1.349 . S
C926 C924 1.327 . S
C926 C945 1.429 . S
C926 H950 0.950 . S
C927 C944 1.574 . S
C927 C946 1.368 . S
C927 H951 0.949 . S
H928 C932 0.949 . S
C929 C930 1.349 . S
C929 C931 1.327 . S
C929 H952 0.950 . S
C930 C929 1.349 . S
C930 C942 1.349 . S
C931 C929 1.327 . S
C931 C947 1.429 . S
C931 H953 0.950 . S
C932 H928 0.949 . S
C932 C940 1.574 . S
C932 C948 1.368 . S
H933 C941 0.950 . S
H934 C939 0.950 . S
H935 C940 0.949 . S
H936 C942 0.950 . S
H937 C943 0.950 . S
H938 C944 0.949 . S
C939 H934 0.950 . S
C939 C941 1.327 . S
C939 C945 1.429 . S
C940 C932 1.574 . S
C940 H935 0.949 . S
C940 C946 1.368 . S
C941 C925 1.349 . S
C941 H933 0.950 . S
C941 C939 1.327 . S
C942 C930 1.349 . S
C942 H936 0.950 . S
C942 C943 1.327 . S
C943 H937 0.950 . S
C943 C942 1.327 . S
C943 C947 1.429 . S
C944 C927 1.574 . S
C944 H938 0.949 . S
C944 C948 1.368 . S
C945 C926 1.429 . S
C945 C939 1.429 . S
C945 C946 1.523 . S
C946 C927 1.368 . S
C946 C940 1.368 . S
C946 C945 1.523 . S
C947 C931 1.429 . S
C947 C943 1.429 . S
C947 C948 1.523 . S
C948 C932 1.368 . S
C948 C944 1.368 . S
C948 C947 1.523 . S
H949 C924 0.950 . S
H950 C926 0.950 . S
H951 C927 0.949 . S
H952 C929 0.950 . S
H953 C931 0.950 . S
C954 C955 1.349 . S
C954 C956 1.327 . S
C954 H979 0.950 . S
C955 C954 1.349 . S
C955 C971 1.349 . S
C956 C954 1.327 . S
C956 C975 1.429 . S
C956 H980 0.950 . S
C957 C974 1.574 . S
C957 C976 1.368 . S
C957 H981 0.949 . S
H958 C962 0.949 . S
C959 C960 1.349 . S
C959 C961 1.327 . S
C959 H982 0.950 . S
C960 C959 1.349 . S
C960 C972 1.349 . S
C961 C959 1.327 . S
C961 C977 1.429 . S
C961 H983 0.950 . S
C962 H958 0.949 . S
C962 C970 1.574 . S
C962 C978 1.368 . S
H963 C971 0.950 . S
H964 C969 0.950 . S
H965 C970 0.949 . S
H966 C972 0.950 . S
H967 C973 0.950 . S
H968 C974 0.949 . S
C969 H964 0.950 . S
C969 C971 1.327 . S
C969 C975 1.429 . S
C970 C962 1.574 . S
C970 H965 0.949 . S
C970 C976 1.368 . S
C971 C955 1.349 . S
C971 H963 0.950 . S
C971 C969 1.327 . S
C972 C960 1.349 . S
C972 H966 0.950 . S
C972 C973 1.327 . S
C973 H967 0.950 . S
C973 C972 1.327 . S
C973 C977 1.429 . S
C974 C957 1.574 . S
C974 H968 0.949 . S
C974 C978 1.368 . S
C975 C956 1.429 . S
C975 C969 1.429 . S
C975 C976 1.523 . S
C976 C957 1.368 . S
C976 C970 1.368 . S
C976 C975 1.523 . S
C977 C961 1.429 . S
C977 C973 1.429 . S
C977 C978 1.523 . S
C978 C962 1.368 . S
C978 C974 1.368 . S
C978 C977 1.523 . S
H979 C954 0.950 . S
H980 C956 0.950 . S
H981 C957 0.949 . S
H982 C959 0.950 . S
H983 C961 0.950 . S
C984 C985 1.349 . S
C984 C986 1.327 . S
C984 H1009 0.950 . S
C985 C984 1.349 . S
C985 C1001 1.349 . S
C986 C984 1.327 . S
C986 C1005 1.429 . S
C986 H1010 0.950 . S
C987 C1004 1.574 . S
C987 C1006 1.368 . S
C987 H1011 0.949 . S
H988 C992 0.949 . S
C989 C990 1.349 . S
C989 C991 1.327 . S
C989 H1012 0.950 . S
C990 C989 1.349 . S
C990 C1002 1.349 . S
C991 C989 1.327 . S
C991 C1007 1.429 . S
C991 H1013 0.950 . S
C992 H988 0.949 . S
C992 C1000 1.574 . S
C992 C1008 1.368 . S
H993 C1001 0.950 . S
H994 C999 0.950 . S
H995 C1000 0.949 . S
H996 C1002 0.950 1_556 S
H997 C1003 0.950 . S
H998 C1004 0.949 . S
C999 H994 0.950 . S
C999 C1001 1.327 . S
C999 C1005 1.429 . S
C1000 C992 1.574 . S
C1000 H995 0.949 . S
C1000 C1006 1.368 . S
C1001 C985 1.349 . S
C1001 H993 0.950 . S
C1001 C999 1.327 . S
C1002 C990 1.349 . S
C1002 H996 0.950 1_554 S
C1002 C1003 1.327 . S
C1003 H997 0.950 . S
C1003 C1002 1.327 . S
C1003 C1007 1.429 . S
C1004 C987 1.574 . S
C1004 H998 0.949 . S
C1004 C1008 1.368 . S
C1005 C986 1.429 . S
C1005 C999 1.429 . S
C1005 C1006 1.523 . S
C1006 C987 1.368 . S
C1006 C1000 1.368 . S
C1006 C1005 1.523 . S
C1007 C991 1.429 . S
C1007 C1003 1.429 . S
C1007 C1008 1.523 . S
C1008 C992 1.368 . S
C1008 C1004 1.368 . S
C1008 C1007 1.523 . S
H1009 C984 0.950 . S
H1010 C986 0.950 . S
H1011 C987 0.949 . S
H1012 C989 0.950 . S
H1013 C991 0.950 . S
C1014 C1015 1.349 . S
C1014 C1016 1.327 . S
C1014 H1039 0.950 . S
C1015 C1014 1.349 . S
C1015 C1031 1.349 . S
C1016 C1014 1.327 . S
C1016 C1035 1.429 . S
C1016 H1040 0.950 . S
C1017 C1034 1.574 . S
C1017 C1036 1.368 . S
C1017 H1041 0.949 . S
H1018 C1022 0.949 . S
C1019 C1020 1.349 . S
C1019 C1021 1.327 . S
C1019 H1042 0.950 . S
C1020 C1019 1.349 . S
C1020 C1032 1.349 . S
C1021 C1019 1.327 . S
C1021 C1037 1.429 . S
C1021 H1043 0.950 . S
C1022 H1018 0.949 . S
C1022 C1030 1.574 . S
C1022 C1038 1.368 . S
H1023 C1031 0.950 . S
H1024 C1029 0.950 . S
H1025 C1030 0.949 . S
H1026 C1032 0.950 . S
H1027 C1033 0.950 . S
H1028 C1034 0.949 . S
C1029 H1024 0.950 . S
C1029 C1031 1.327 . S
C1029 C1035 1.429 . S
C1030 C1022 1.574 . S
C1030 H1025 0.949 . S
C1030 C1036 1.368 . S
C1031 C1015 1.349 . S
C1031 H1023 0.950 . S
C1031 C1029 1.327 . S
C1032 C1020 1.349 . S
C1032 H1026 0.950 . S
C1032 C1033 1.327 . S
C1033 H1027 0.950 . S
C1033 C1032 1.327 . S
C1033 C1037 1.429 . S
C1034 C1017 1.574 . S
C1034 H1028 0.949 . S
C1034 C1038 1.368 . S
C1035 C1016 1.429 . S
C1035 C1029 1.429 . S
C1035 C1036 1.523 . S
C1036 C1017 1.368 . S
C1036 C1030 1.368 . S
C1036 C1035 1.523 . S
C1037 C1021 1.429 . S
C1037 C1033 1.429 . S
C1037 C1038 1.523 . S
C1038 C1022 1.368 . S
C1038 C1034 1.368 . S
C1038 C1037 1.523 . S
H1039 C1014 0.950 . S
H1040 C1016 0.950 . S
H1041 C1017 0.949 . S
H1042 C1019 0.950 . S
H1043 C1021 0.950 . S
C1044 C1045 1.349 . S
C1044 C1046 1.327 . S
C1044 H1069 0.950 . S
C1045 C1044 1.349 . S
C1045 C1061 1.349 . S
C1046 C1044 1.327 . S
C1046 C1065 1.429 . S
C1046 H1070 0.950 . S
C1047 C1064 1.574 1_556 S
C1047 C1066 1.368 1_545 S
C1047 H1071 0.949 . S
H1048 C1052 0.949 . S
C1049 C1050 1.349 . S
C1049 C1051 1.327 . S
C1049 H1072 0.950 . S
C1050 C1049 1.349 . S
C1050 C1062 1.349 . S
C1051 C1049 1.327 . S
C1051 C1067 1.429 . S
C1051 H1073 0.950 . S
C1052 H1048 0.949 . S
C1052 C1060 1.574 1_554 S
C1052 C1068 1.368 1_565 S
H1053 C1061 0.950 . S
H1054 C1059 0.950 . S
H1055 C1060 0.949 . S
H1056 C1062 0.950 . S
H1057 C1063 0.950 . S
H1058 C1064 0.949 . S
C1059 H1054 0.950 . S
C1059 C1061 1.327 . S
C1059 C1065 1.429 . S
C1060 C1052 1.574 1_556 S
C1060 H1055 0.949 . S
C1060 C1066 1.368 . S
C1061 C1045 1.349 . S
C1061 H1053 0.950 . S
C1061 C1059 1.327 . S
C1062 C1050 1.349 . S
C1062 H1056 0.950 . S
C1062 C1063 1.327 . S
C1063 H1057 0.950 . S
C1063 C1062 1.327 . S
C1063 C1067 1.429 . S
C1064 C1047 1.574 1_554 S
C1064 H1058 0.949 . S
C1064 C1068 1.368 . S
C1065 C1046 1.429 . S
C1065 C1059 1.429 . S
C1065 C1066 1.523 . S
C1066 C1047 1.368 1_565 S
C1066 C1060 1.368 . S
C1066 C1065 1.523 . S
C1067 C1051 1.429 . S
C1067 C1063 1.429 . S
C1067 C1068 1.523 . S
C1068 C1052 1.368 1_545 S
C1068 C1064 1.368 . S
C1068 C1067 1.523 . S
H1069 C1044 0.950 . S
H1070 C1046 0.950 . S
H1071 C1047 0.949 . S
H1072 C1049 0.950 . S
H1073 C1051 0.950 . S
C1074 C1075 1.349 . S
C1074 C1076 1.327 . S
C1074 H1099 0.950 . S
C1075 C1074 1.349 . S
C1075 C1091 1.349 . S
C1076 C1074 1.327 . S
C1076 C1095 1.429 . S
C1076 H1100 0.950 . S
C1077 C1094 1.574 . S
C1077 C1096 1.368 1_556 S
C1077 H1101 0.949 . S
H1078 C1082 0.949 . S
C1079 C1080 1.349 . S
C1079 C1081 1.327 . S
C1079 H1102 0.950 . S
C1080 C1079 1.349 . S
C1080 C1092 1.349 . S
C1081 C1079 1.327 . S
C1081 C1097 1.429 . S
C1081 H1103 0.950 . S
C1082 H1078 0.949 . S
C1082 C1090 1.574 . S
C1082 C1098 1.368 1_554 S
H1083 C1091 0.950 . S
H1084 C1089 0.950 . S
H1085 C1090 0.949 . S
H1086 C1092 0.950 . S
H1087 C1093 0.950 . S
H1088 C1094 0.949 . S
C1089 H1084 0.950 . S
C1089 C1091 1.327 . S
C1089 C1095 1.429 . S
C1090 C1082 1.574 . S
C1090 H1085 0.949 . S
C1090 C1096 1.368 1_455 S
C1091 C1075 1.349 . S
C1091 H1083 0.950 . S
C1091 C1089 1.327 . S
C1092 C1080 1.349 . S
C1092 H1086 0.950 . S
C1092 C1093 1.327 . S
C1093 H1087 0.950 . S
C1093 C1092 1.327 . S
C1093 C1097 1.429 . S
C1094 C1077 1.574 . S
C1094 H1088 0.949 . S
C1094 C1098 1.368 1_655 S
C1095 C1076 1.429 . S
C1095 C1089 1.429 . S
C1095 C1096 1.523 . S
C1096 C1077 1.368 1_554 S
C1096 C1090 1.368 1_655 S
C1096 C1095 1.523 . S
C1097 C1081 1.429 . S
C1097 C1093 1.429 . S
C1097 C1098 1.523 . S
C1098 C1082 1.368 1_556 S
C1098 C1094 1.368 1_455 S
C1098 C1097 1.523 . S
H1099 C1074 0.950 . S
H1100 C1076 0.950 . S
H1101 C1077 0.949 . S
H1102 C1079 0.950 . S
H1103 C1081 0.950 . S
C1104 C1105 1.349 . S
C1104 C1106 1.327 . S
C1104 H1129 0.950 . S
C1105 C1104 1.349 . S
C1105 C1121 1.349 . S
C1106 C1104 1.327 . S
C1106 C1125 1.429 . S
C1106 H1130 0.950 . S
C1107 C1124 1.574 . S
C1107 C1126 1.368 . S
C1107 H1131 0.949 . S
H1108 C1112 0.949 . S
C1109 C1110 1.349 . S
C1109 C1111 1.327 . S
C1109 H1132 0.950 . S
C1110 C1109 1.349 . S
C1110 C1122 1.349 . S
C1111 C1109 1.327 . S
C1111 C1127 1.429 . S
C1111 H1133 0.950 . S
C1112 H1108 0.949 . S
C1112 C1120 1.574 . S
C1112 C1128 1.368 . S
H1113 C1121 0.950 . S
H1114 C1119 0.950 . S
H1115 C1120 0.949 . S
H1116 C1122 0.950 . S
H1117 C1123 0.950 . S
H1118 C1124 0.949 . S
C1119 H1114 0.950 . S
C1119 C1121 1.327 . S
C1119 C1125 1.429 . S
C1120 C1112 1.574 . S
C1120 H1115 0.949 . S
C1120 C1126 1.368 1_554 S
C1121 C1105 1.349 . S
C1121 H1113 0.950 . S
C1121 C1119 1.327 . S
C1122 C1110 1.349 . S
C1122 H1116 0.950 . S
C1122 C1123 1.327 . S
C1123 H1117 0.950 . S
C1123 C1122 1.327 . S
C1123 C1127 1.429 . S
C1124 C1107 1.574 . S
C1124 H1118 0.949 . S
C1124 C1128 1.368 1_556 S
C1125 C1106 1.429 . S
C1125 C1119 1.429 . S
C1125 C1126 1.523 . S
C1126 C1107 1.368 . S
C1126 C1120 1.368 1_556 S
C1126 C1125 1.523 . S
C1127 C1111 1.429 . S
C1127 C1123 1.429 . S
C1127 C1128 1.523 . S
C1128 C1112 1.368 . S
C1128 C1124 1.368 1_554 S
C1128 C1127 1.523 . S
H1129 C1104 0.950 . S
H1130 C1106 0.950 . S
H1131 C1107 0.949 . S
H1132 C1109 0.950 . S
H1133 C1111 0.950 . S
C1134 C1135 1.349 . S
C1134 C1136 1.327 . S
C1134 H1159 0.950 . S
C1135 C1134 1.349 . S
C1135 C1151 1.349 . S
C1136 C1134 1.327 . S
C1136 C1155 1.429 . S
C1136 H1160 0.950 . S
C1137 C1154 1.574 1_556 S
C1137 C1156 1.368 . S
C1137 H1161 0.949 . S
H1138 C1142 0.949 . S
C1139 C1140 1.349 . S
C1139 C1141 1.327 . S
C1139 H1162 0.950 . S
C1140 C1139 1.349 . S
C1140 C1152 1.349 . S
C1141 C1139 1.327 . S
C1141 C1157 1.429 . S
C1141 H1163 0.950 . S
C1142 H1138 0.949 . S
C1142 C1150 1.574 1_554 S
C1142 C1158 1.368 . S
H1143 C1151 0.950 . S
H1144 C1149 0.950 . S
H1145 C1150 0.949 . S
H1146 C1152 0.950 . S
H1147 C1153 0.950 . S
H1148 C1154 0.949 . S
C1149 H1144 0.950 . S
C1149 C1151 1.327 . S
C1149 C1155 1.429 . S
C1150 C1142 1.574 1_556 S
C1150 H1145 0.949 . S
C1150 C1156 1.368 1_545 S
C1151 C1135 1.349 . S
C1151 H1143 0.950 . S
C1151 C1149 1.327 . S
C1152 C1140 1.349 . S
C1152 H1146 0.950 . S
C1152 C1153 1.327 . S
C1153 H1147 0.950 . S
C1153 C1152 1.327 . S
C1153 C1157 1.429 . S
C1154 C1137 1.574 1_554 S
C1154 H1148 0.949 . S
C1154 C1158 1.368 1_565 S
C1155 C1136 1.429 . S
C1155 C1149 1.429 . S
C1155 C1156 1.523 . S
C1156 C1137 1.368 . S
C1156 C1150 1.368 1_565 S
C1156 C1155 1.523 . S
C1157 C1141 1.429 . S
C1157 C1153 1.429 . S
C1157 C1158 1.523 . S
C1158 C1142 1.368 . S
C1158 C1154 1.368 1_545 S
C1158 C1157 1.523 . S
H1159 C1134 0.950 . S
H1160 C1136 0.950 . S
H1161 C1137 0.949 . S
H1162 C1139 0.950 . S
H1163 C1141 0.950 . S
C1164 C1165 1.349 . S
C1164 C1166 1.327 . S
C1164 H1189 0.950 . S
C1165 C1164 1.349 . S
C1165 C1181 1.349 . S
C1166 C1164 1.327 . S
C1166 C1185 1.429 . S
C1166 H1190 0.950 . S
C1167 C1184 1.583 . S
C1167 C1186 1.360 1_554 S
C1167 H1191 0.949 1_554 S
H1168 C1172 0.949 1_554 S
C1169 C1170 1.349 . S
C1169 C1171 1.327 . S
C1169 H1192 0.950 . S
C1170 C1169 1.349 . S
C1170 C1182 1.349 . S
C1171 C1169 1.327 . S
C1171 C1187 1.429 . S
C1171 H1193 0.950 . S
C1172 H1168 0.949 1_556 S
C1172 C1180 1.582 . S
C1172 C1188 1.360 1_556 S
H1173 C1181 0.950 . S
H1174 C1179 0.950 . S
H1175 C1180 0.949 . S
H1176 C1182 0.950 . S
H1177 C1183 0.950 . S
H1178 C1184 0.949 . S
C1179 H1174 0.950 . S
C1179 C1181 1.327 . S
C1179 C1185 1.429 . S
C1180 C1172 1.582 . S
C1180 H1175 0.949 . S
C1180 C1186 1.368 1_655 S
C1181 C1165 1.349 . S
C1181 H1173 0.950 . S
C1181 C1179 1.327 . S
C1182 C1170 1.349 . S
C1182 H1176 0.950 . S
C1182 C1183 1.327 . S
C1183 H1177 0.950 . S
C1183 C1182 1.327 . S
C1183 C1187 1.429 . S
C1184 C1167 1.583 . S
C1184 H1178 0.949 . S
C1184 C1188 1.368 1_455 S
C1185 C1166 1.429 . S
C1185 C1179 1.429 . S
C1185 C1186 1.523 . S
C1186 C1167 1.360 1_556 S
C1186 C1180 1.368 1_455 S
C1186 C1185 1.523 . S
C1187 C1171 1.429 . S
C1187 C1183 1.429 . S
C1187 C1188 1.523 . S
C1188 C1172 1.360 1_554 S
C1188 C1184 1.368 1_655 S
C1188 C1187 1.523 . S
H1189 C1164 0.950 . S
H1190 C1166 0.950 . S
H1191 C1167 0.949 1_556 S
H1192 C1169 0.950 . S
H1193 C1171 0.950 . S
C1194 C1195 1.349 . S
C1194 C1196 1.327 . S
C1194 H1219 0.950 . S
C1195 C1194 1.349 . S
C1195 C1211 1.349 . S
C1196 C1194 1.327 . S
C1196 C1215 1.429 . S
C1196 H1220 0.950 . S
C1197 C1214 1.574 1_554 S
C1197 C1216 1.368 . S
C1197 H1221 0.949 . S
H1198 C1202 0.949 . S
C1199 C1200 1.349 . S
C1199 C1201 1.327 . S
C1199 H1222 0.950 . S
C1200 C1199 1.349 . S
C1200 C1212 1.349 . S
C1201 C1199 1.327 . S
C1201 C1217 1.429 . S
C1201 H1223 0.950 . S
C1202 H1198 0.949 . S
C1202 C1210 1.574 1_556 S
C1202 C1218 1.368 . S
H1203 C1211 0.950 . S
H1204 C1209 0.950 . S
H1205 C1210 0.949 . S
H1206 C1212 0.950 . S
H1207 C1213 0.950 . S
H1208 C1214 0.949 . S
C1209 H1204 0.950 . S
C1209 C1211 1.327 . S
C1209 C1215 1.429 . S
C1210 C1202 1.574 1_554 S
C1210 H1205 0.949 . S
C1210 C1216 1.368 . S
C1211 C1195 1.349 . S
C1211 H1203 0.950 . S
C1211 C1209 1.327 . S
C1212 C1200 1.349 . S
C1212 H1206 0.950 . S
C1212 C1213 1.327 . S
C1213 H1207 0.950 . S
C1213 C1212 1.327 . S
C1213 C1217 1.429 . S
C1214 C1197 1.574 1_556 S
C1214 H1208 0.949 . S
C1214 C1218 1.368 . S
C1215 C1196 1.429 . S
C1215 C1209 1.429 . S
C1215 C1216 1.523 . S
C1216 C1197 1.368 . S
C1216 C1210 1.368 . S
C1216 C1215 1.523 . S
C1217 C1201 1.429 . S
C1217 C1213 1.429 . S
C1217 C1218 1.523 . S
C1218 C1202 1.368 . S
C1218 C1214 1.368 . S
C1218 C1217 1.523 . S
H1219 C1194 0.950 . S
H1220 C1196 0.950 . S
H1221 C1197 0.949 . S
H1222 C1199 0.950 . S
H1223 C1201 0.950 . S
C1224 C1225 1.349 . S
C1224 C1226 1.327 . S
C1224 H1249 0.950 . S
C1225 C1224 1.349 . S
C1225 C1241 1.349 . S
C1226 C1224 1.327 . S
C1226 C1245 1.429 . S
C1226 H1250 0.950 . S
C1227 C1244 1.574 . S
C1227 C1246 1.368 . S
C1227 H1251 0.949 . S
H1228 C1232 0.949 . S
C1229 C1230 1.349 . S
C1229 C1231 1.327 . S
C1229 H1252 0.950 . S
C1230 C1229 1.349 . S
C1230 C1242 1.349 . S
C1231 C1229 1.327 . S
C1231 C1247 1.429 . S
C1231 H1253 0.950 . S
C1232 H1228 0.949 . S
C1232 C1240 1.574 . S
C1232 C1248 1.368 . S
H1233 C1241 0.950 . S
H1234 C1239 0.950 . S
H1235 C1240 0.949 . S
H1236 C1242 0.950 . S
H1237 C1243 0.950 . S
H1238 C1244 0.949 . S
C1239 H1234 0.950 . S
C1239 C1241 1.327 . S
C1239 C1245 1.429 . S
C1240 C1232 1.574 . S
C1240 H1235 0.949 . S
C1240 C1246 1.368 . S
C1241 C1225 1.349 . S
C1241 H1233 0.950 . S
C1241 C1239 1.327 . S
C1242 C1230 1.349 . S
C1242 H1236 0.950 . S
C1242 C1243 1.327 . S
C1243 H1237 0.950 . S
C1243 C1242 1.327 . S
C1243 C1247 1.429 . S
C1244 C1227 1.574 . S
C1244 H1238 0.949 . S
C1244 C1248 1.368 . S
C1245 C1226 1.429 . S
C1245 C1239 1.429 . S
C1245 C1246 1.523 . S
C1246 C1227 1.368 . S
C1246 C1240 1.368 . S
C1246 C1245 1.523 . S
C1247 C1231 1.429 . S
C1247 C1243 1.429 . S
C1247 C1248 1.523 . S
C1248 C1232 1.368 . S
C1248 C1244 1.368 . S
C1248 C1247 1.523 . S
H1249 C1224 0.950 . S
H1250 C1226 0.950 . S
H1251 C1227 0.949 . S
H1252 C1229 0.950 . S
H1253 C1231 0.950 . S
C1254 C1255 1.349 . S
C1254 C1256 1.327 . S
C1254 H1279 0.950 . S
C1255 C1254 1.349 . S
C1255 C1271 1.349 . S
C1256 C1254 1.327 . S
C1256 C1275 1.429 . S
C1256 H1280 0.950 . S
C1257 C1274 1.574 . S
C1257 C1276 1.368 . S
C1257 H1281 0.949 . S
H1258 C1262 0.949 . S
C1259 C1260 1.349 . S
C1259 C1261 1.327 . S
C1259 H1282 0.950 . S
C1260 C1259 1.349 . S
C1260 C1272 1.349 . S
C1261 C1259 1.327 . S
C1261 C1277 1.429 . S
C1261 H1283 0.950 . S
C1262 H1258 0.949 . S
C1262 C1270 1.574 . S
C1262 C1278 1.368 . S
H1263 C1271 0.950 . S
H1264 C1269 0.950 . S
H1265 C1270 0.949 . S
H1266 C1272 0.950 . S
H1267 C1273 0.950 . S
H1268 C1274 0.949 . S
C1269 H1264 0.950 . S
C1269 C1271 1.327 . S
C1269 C1275 1.429 . S
C1270 C1262 1.574 . S
C1270 H1265 0.949 . S
C1270 C1276 1.368 . S
C1271 C1255 1.349 . S
C1271 H1263 0.950 . S
C1271 C1269 1.327 . S
C1272 C1260 1.349 . S
C1272 H1266 0.950 . S
C1272 C1273 1.327 . S
C1273 H1267 0.950 . S
C1273 C1272 1.327 . S
C1273 C1277 1.429 . S
C1274 C1257 1.574 . S
C1274 H1268 0.949 . S
C1274 C1278 1.368 . S
C1275 C1256 1.429 . S
C1275 C1269 1.429 . S
C1275 C1276 1.523 . S
C1276 C1257 1.368 . S
C1276 C1270 1.368 . S
C1276 C1275 1.523 . S
C1277 C1261 1.429 . S
C1277 C1273 1.429 . S
C1277 C1278 1.523 . S
C1278 C1262 1.368 . S
C1278 C1274 1.368 . S
C1278 C1277 1.523 . S
H1279 C1254 0.950 . S
H1280 C1256 0.950 . S
H1281 C1257 0.949 . S
H1282 C1259 0.950 . S
H1283 C1261 0.950 . S
C1284 C1285 1.349 . S
C1284 C1286 1.327 . S
C1284 H1309 0.950 . S
C1285 C1284 1.349 . S
C1285 C1301 1.349 . S
C1286 C1284 1.327 . S
C1286 C1305 1.429 . S
C1286 H1310 0.950 . S
C1287 C1304 1.574 . S
C1287 C1306 1.368 . S
C1287 H1311 0.949 . S
H1288 C1292 0.949 . S
C1289 C1290 1.349 . S
C1289 C1291 1.327 . S
C1289 H1312 0.950 . S
C1290 C1289 1.349 . S
C1290 C1302 1.349 . S
C1291 C1289 1.327 . S
C1291 C1307 1.429 . S
C1291 H1313 0.950 . S
C1292 H1288 0.949 . S
C1292 C1300 1.574 . S
C1292 C1308 1.368 . S
H1293 C1301 0.950 . S
H1294 C1299 0.950 . S
H1295 C1300 0.949 . S
H1296 C1302 0.950 . S
H1297 C1303 0.950 . S
H1298 C1304 0.949 . S
C1299 H1294 0.950 . S
C1299 C1301 1.327 . S
C1299 C1305 1.429 . S
C1300 C1292 1.574 . S
C1300 H1295 0.949 . S
C1300 C1306 1.368 . S
C1301 C1285 1.349 . S
C1301 H1293 0.950 . S
C1301 C1299 1.327 . S
C1302 C1290 1.349 . S
C1302 H1296 0.950 . S
C1302 C1303 1.327 . S
C1303 H1297 0.950 . S
C1303 C1302 1.327 . S
C1303 C1307 1.429 . S
C1304 C1287 1.574 . S
C1304 H1298 0.949 . S
C1304 C1308 1.368 . S
C1305 C1286 1.429 . S
C1305 C1299 1.429 . S
C1305 C1306 1.523 . S
C1306 C1287 1.368 . S
C1306 C1300 1.368 . S
C1306 C1305 1.523 . S
C1307 C1291 1.429 . S
C1307 C1303 1.429 . S
C1307 C1308 1.523 . S
C1308 C1292 1.368 . S
C1308 C1304 1.368 . S
C1308 C1307 1.523 . S
H1309 C1284 0.950 . S
H1310 C1286 0.950 . S
H1311 C1287 0.949 . S
H1312 C1289 0.950 . S
H1313 C1291 0.950 . S
C1314 C1315 1.349 . S
C1314 C1316 1.327 . S
C1314 H1339 0.950 . S
C1315 C1314 1.349 . S
C1315 C1331 1.349 . S
C1316 C1314 1.327 . S
C1316 C1335 1.429 . S
C1316 H1340 0.950 . S
C1317 C1334 1.574 . S
C1317 C1336 1.368 . S
C1317 H1341 0.949 . S
H1318 C1322 0.949 . S
C1319 C1320 1.349 . S
C1319 C1321 1.327 . S
C1319 H1342 0.950 . S
C1320 C1319 1.349 . S
C1320 C1332 1.349 . S
C1321 C1319 1.327 . S
C1321 C1337 1.429 . S
C1321 H1343 0.950 . S
C1322 H1318 0.949 . S
C1322 C1330 1.574 . S
C1322 C1338 1.368 . S
H1323 C1331 0.950 . S
H1324 C1329 0.950 . S
H1325 C1330 0.949 . S
H1326 C1332 0.950 . S
H1327 C1333 0.950 . S
H1328 C1334 0.949 . S
C1329 H1324 0.950 . S
C1329 C1331 1.327 . S
C1329 C1335 1.429 . S
C1330 C1322 1.574 . S
C1330 H1325 0.949 . S
C1330 C1336 1.368 . S
C1331 C1315 1.349 . S
C1331 H1323 0.950 . S
C1331 C1329 1.327 . S
C1332 C1320 1.349 . S
C1332 H1326 0.950 . S
C1332 C1333 1.327 . S
C1333 H1327 0.950 . S
C1333 C1332 1.327 . S
C1333 C1337 1.429 . S
C1334 C1317 1.574 . S
C1334 H1328 0.949 . S
C1334 C1338 1.368 . S
C1335 C1316 1.429 . S
C1335 C1329 1.429 . S
C1335 C1336 1.523 . S
C1336 C1317 1.368 . S
C1336 C1330 1.368 . S
C1336 C1335 1.523 . S
C1337 C1321 1.429 . S
C1337 C1333 1.429 . S
C1337 C1338 1.523 . S
C1338 C1322 1.368 . S
C1338 C1334 1.368 . S
C1338 C1337 1.523 . S
H1339 C1314 0.950 . S
H1340 C1316 0.950 . S
H1341 C1317 0.949 . S
H1342 C1319 0.950 . S
H1343 C1321 0.950 . S
C1344 C1345 1.349 . S
C1344 C1346 1.327 . S
C1344 H1369 0.950 . S
C1345 C1344 1.349 . S
C1345 C1361 1.349 . S
C1346 C1344 1.327 . S
C1346 C1365 1.429 . S
C1346 H1370 0.950 . S
C1347 C1364 1.574 . S
C1347 C1366 1.368 . S
C1347 H1371 0.949 . S
H1348 C1352 0.949 . S
C1349 C1350 1.349 . S
C1349 C1351 1.327 . S
C1349 H1372 0.950 . S
C1350 C1349 1.349 . S
C1350 C1362 1.349 . S
C1351 C1349 1.327 . S
C1351 C1367 1.429 . S
C1351 H1373 0.950 . S
C1352 H1348 0.949 . S
C1352 C1360 1.574 . S
C1352 C1368 1.368 . S
H1353 C1361 0.950 . S
H1354 C1359 0.950 . S
H1355 C1360 0.949 . S
H1356 C1362 0.950 . S
H1357 C1363 0.950 . S
H1358 C1364 0.949 . S
C1359 H1354 0.950 . S
C1359 C1361 1.327 . S
C1359 C1365 1.429 . S
C1360 C1352 1.574 . S
C1360 H1355 0.949 . S
C1360 C1366 1.368 . S
C1361 C1345 1.349 . S
C1361 H1353 0.950 . S
C1361 C1359 1.327 . S
C1362 C1350 1.349 . S
C1362 H1356 0.950 . S
C1362 C1363 1.327 . S
C1363 H1357 0.950 . S
C1363 C1362 1.327 . S
C1363 C1367 1.429 . S
C1364 C1347 1.574 . S
C1364 H1358 0.949 . S
C1364 C1368 1.368 . S
C1365 C1346 1.429 . S
C1365 C1359 1.429 . S
C1365 C1366 1.523 . S
C1366 C1347 1.368 . S
C1366 C1360 1.368 . S
C1366 C1365 1.523 . S
C1367 C1351 1.429 . S
C1367 C1363 1.429 . S
C1367 C1368 1.523 . S
C1368 C1352 1.368 . S
C1368 C1364 1.368 . S
C1368 C1367 1.523 . S
H1369 C1344 0.950 . S
H1370 C1346 0.950 . S
H1371 C1347 0.949 . S
H1372 C1349 0.950 . S
H1373 C1351 0.950 . S
C1374 C1375 1.349 . S
C1374 C1376 1.327 . S
C1374 H1399 0.950 . S
C1375 C1374 1.349 . S
C1375 C1391 1.349 . S
C1376 C1374 1.327 . S
C1376 C1395 1.429 . S
C1376 H1400 0.950 . S
C1377 C1394 1.574 . S
C1377 C1396 1.368 . S
C1377 H1401 0.949 . S
H1378 C1382 0.949 . S
C1379 C1380 1.349 . S
C1379 C1381 1.327 . S
C1379 H1402 0.950 . S
C1380 C1379 1.349 . S
C1380 C1392 1.349 . S
C1381 C1379 1.327 . S
C1381 C1397 1.429 . S
C1381 H1403 0.950 . S
C1382 H1378 0.949 . S
C1382 C1390 1.574 . S
C1382 C1398 1.368 . S
H1383 C1391 0.950 . S
H1384 C1389 0.950 . S
H1385 C1390 0.949 . S
H1386 C1392 0.950 . S
H1387 C1393 0.950 . S
H1388 C1394 0.949 . S
C1389 H1384 0.950 . S
C1389 C1391 1.327 . S
C1389 C1395 1.429 . S
C1390 C1382 1.574 . S
C1390 H1385 0.949 . S
C1390 C1396 1.368 . S
C1391 C1375 1.349 . S
C1391 H1383 0.950 . S
C1391 C1389 1.327 . S
C1392 C1380 1.349 . S
C1392 H1386 0.950 . S
C1392 C1393 1.327 . S
C1393 H1387 0.950 . S
C1393 C1392 1.327 . S
C1393 C1397 1.429 . S
C1394 C1377 1.574 . S
C1394 H1388 0.949 . S
C1394 C1398 1.368 . S
C1395 C1376 1.429 . S
C1395 C1389 1.429 . S
C1395 C1396 1.523 . S
C1396 C1377 1.368 . S
C1396 C1390 1.368 . S
C1396 C1395 1.523 . S
C1397 C1381 1.429 . S
C1397 C1393 1.429 . S
C1397 C1398 1.523 . S
C1398 C1382 1.368 . S
C1398 C1394 1.368 . S
C1398 C1397 1.523 . S
H1399 C1374 0.950 . S
H1400 C1376 0.950 . S
H1401 C1377 0.949 . S
H1402 C1379 0.950 . S
H1403 C1381 0.950 . S
C1404 C1405 1.349 . S
C1404 C1406 1.327 . S
C1404 H1429 0.950 . S
C1405 C1404 1.349 . S
C1405 C1421 1.349 . S
C1406 C1404 1.327 . S
C1406 C1425 1.429 . S
C1406 H1430 0.950 . S
C1407 C1424 1.574 . S
C1407 C1426 1.368 . S
C1407 H1431 0.949 . S
H1408 C1412 0.949 . S
C1409 C1410 1.349 . S
C1409 C1411 1.327 . S
C1409 H1432 0.950 . S
C1410 C1409 1.349 . S
C1410 C1422 1.349 . S
C1411 C1409 1.327 . S
C1411 C1427 1.429 . S
C1411 H1433 0.950 . S
C1412 H1408 0.949 . S
C1412 C1420 1.574 . S
C1412 C1428 1.368 . S
H1413 C1421 0.950 . S
H1414 C1419 0.950 . S
H1415 C1420 0.949 . S
H1416 C1422 0.950 . S
H1417 C1423 0.950 . S
H1418 C1424 0.949 . S
C1419 H1414 0.950 . S
C1419 C1421 1.327 . S
C1419 C1425 1.429 . S
C1420 C1412 1.574 . S
C1420 H1415 0.949 . S
C1420 C1426 1.368 . S
C1421 C1405 1.349 . S
C1421 H1413 0.950 . S
C1421 C1419 1.327 . S
C1422 C1410 1.349 . S
C1422 H1416 0.950 . S
C1422 C1423 1.327 . S
C1423 H1417 0.950 . S
C1423 C1422 1.327 . S
C1423 C1427 1.429 . S
C1424 C1407 1.574 . S
C1424 H1418 0.949 . S
C1424 C1428 1.368 . S
C1425 C1406 1.429 . S
C1425 C1419 1.429 . S
C1425 C1426 1.523 . S
C1426 C1407 1.368 . S
C1426 C1420 1.368 . S
C1426 C1425 1.523 . S
C1427 C1411 1.429 . S
C1427 C1423 1.429 . S
C1427 C1428 1.523 . S
C1428 C1412 1.368 . S
C1428 C1424 1.368 . S
C1428 C1427 1.523 . S
H1429 C1404 0.950 . S
H1430 C1406 0.950 . S
H1431 C1407 0.949 . S
H1432 C1409 0.950 . S
H1433 C1411 0.950 . S
C1434 C1435 1.349 . S
C1434 C1436 1.327 . S
C1434 H1459 0.950 . S
C1435 C1434 1.349 . S
C1435 C1451 1.349 . S
C1436 C1434 1.327 . S
C1436 C1455 1.429 . S
C1436 H1460 0.950 . S
C1437 C1454 1.574 . S
C1437 C1456 1.368 . S
C1437 H1461 0.949 . S
H1438 C1442 0.949 . S
C1439 C1440 1.349 . S
C1439 C1441 1.327 . S
C1439 H1462 0.950 . S
C1440 C1439 1.349 . S
C1440 C1452 1.349 . S
C1441 C1439 1.327 . S
C1441 C1457 1.429 . S
C1441 H1463 0.950 . S
C1442 H1438 0.949 . S
C1442 C1450 1.574 . S
C1442 C1458 1.368 . S
H1443 C1451 0.950 . S
H1444 C1449 0.950 . S
H1445 C1450 0.949 . S
H1446 C1452 0.950 . S
H1447 C1453 0.950 . S
H1448 C1454 0.949 . S
C1449 H1444 0.950 . S
C1449 C1451 1.327 . S
C1449 C1455 1.429 . S
C1450 C1442 1.574 . S
C1450 H1445 0.949 . S
C1450 C1456 1.368 . S
C1451 C1435 1.349 . S
C1451 H1443 0.950 . S
C1451 C1449 1.327 . S
C1452 C1440 1.349 . S
C1452 H1446 0.950 . S
C1452 C1453 1.327 . S
C1453 H1447 0.950 . S
C1453 C1452 1.327 . S
C1453 C1457 1.429 . S
C1454 C1437 1.574 . S
C1454 H1448 0.949 . S
C1454 C1458 1.368 . S
C1455 C1436 1.429 . S
C1455 C1449 1.429 . S
C1455 C1456 1.523 . S
C1456 C1437 1.368 . S
C1456 C1450 1.368 . S
C1456 C1455 1.523 . S
C1457 C1441 1.429 . S
C1457 C1453 1.429 . S
C1457 C1458 1.523 . S
C1458 C1442 1.368 . S
C1458 C1454 1.368 . S
C1458 C1457 1.523 . S
H1459 C1434 0.950 . S
H1460 C1436 0.950 . S
H1461 C1437 0.949 . S
H1462 C1439 0.950 . S
H1463 C1441 0.950 . S
C1464 C1465 1.349 . S
C1464 C1466 1.327 . S
C1464 H1489 0.950 . S
C1465 C1464 1.349 . S
C1465 C1481 1.349 . S
C1466 C1464 1.327 . S
C1466 C1485 1.429 . S
C1466 H1490 0.950 . S
C1467 C1484 1.574 . S
C1467 C1486 1.368 . S
C1467 H1491 0.949 . S
H1468 C1472 0.949 . S
C1469 C1470 1.349 . S
C1469 C1471 1.327 . S
C1469 H1492 0.950 . S
C1470 C1469 1.349 . S
C1470 C1482 1.349 . S
C1471 C1469 1.327 . S
C1471 C1487 1.429 . S
C1471 H1493 0.950 . S
C1472 H1468 0.949 . S
C1472 C1480 1.574 . S
C1472 C1488 1.368 . S
H1473 C1481 0.950 . S
H1474 C1479 0.950 . S
H1475 C1480 0.949 . S
H1476 C1482 0.950 . S
H1477 C1483 0.950 . S
H1478 C1484 0.949 . S
C1479 H1474 0.950 . S
C1479 C1481 1.327 . S
C1479 C1485 1.429 . S
C1480 C1472 1.574 . S
C1480 H1475 0.949 . S
C1480 C1486 1.368 . S
C1481 C1465 1.349 . S
C1481 H1473 0.950 . S
C1481 C1479 1.327 . S
C1482 C1470 1.349 . S
C1482 H1476 0.950 . S
C1482 C1483 1.327 . S
C1483 H1477 0.950 . S
C1483 C1482 1.327 . S
C1483 C1487 1.429 . S
C1484 C1467 1.574 . S
C1484 H1478 0.949 . S
C1484 C1488 1.368 . S
C1485 C1466 1.429 . S
C1485 C1479 1.429 . S
C1485 C1486 1.523 . S
C1486 C1467 1.368 . S
C1486 C1480 1.368 . S
C1486 C1485 1.523 . S
C1487 C1471 1.429 . S
C1487 C1483 1.429 . S
C1487 C1488 1.523 . S
C1488 C1472 1.368 . S
C1488 C1484 1.368 . S
C1488 C1487 1.523 . S
H1489 C1464 0.950 . S
H1490 C1466 0.950 . S
H1491 C1467 0.949 . S
H1492 C1469 0.950 . S
H1493 C1471 0.950 . S
C1494 C1495 1.349 . S
C1494 C1496 1.327 . S
C1494 H1519 0.950 . S
C1495 C1494 1.349 . S
C1495 C1511 1.349 . S
C1496 C1494 1.327 . S
C1496 C1515 1.429 . S
C1496 H1520 0.950 . S
C1497 C1514 1.574 . S
C1497 C1516 1.368 . S
C1497 H1521 0.949 . S
H1498 C1502 0.949 . S
C1499 C1500 1.349 . S
C1499 C1501 1.327 . S
C1499 H1522 0.950 . S
C1500 C1499 1.349 . S
C1500 C1512 1.349 . S
C1501 C1499 1.327 . S
C1501 C1517 1.429 . S
C1501 H1523 0.950 . S
C1502 H1498 0.949 . S
C1502 C1510 1.574 . S
C1502 C1518 1.368 . S
H1503 C1511 0.950 . S
H1504 C1509 0.950 . S
H1505 C1510 0.949 . S
H1506 C1512 0.950 . S
H1507 C1513 0.950 . S
H1508 C1514 0.949 . S
C1509 H1504 0.950 . S
C1509 C1511 1.327 . S
C1509 C1515 1.429 . S
C1510 C1502 1.574 . S
C1510 H1505 0.949 . S
C1510 C1516 1.368 . S
C1511 C1495 1.349 . S
C1511 H1503 0.950 . S
C1511 C1509 1.327 . S
C1512 C1500 1.349 . S
C1512 H1506 0.950 . S
C1512 C1513 1.327 . S
C1513 H1507 0.950 . S
C1513 C1512 1.327 . S
C1513 C1517 1.429 . S
C1514 C1497 1.574 . S
C1514 H1508 0.949 . S
C1514 C1518 1.368 . S
C1515 C1496 1.429 . S
C1515 C1509 1.429 . S
C1515 C1516 1.523 . S
C1516 C1497 1.368 . S
C1516 C1510 1.368 . S
C1516 C1515 1.523 . S
C1517 C1501 1.429 . S
C1517 C1513 1.429 . S
C1517 C1518 1.523 . S
C1518 C1502 1.368 . S
C1518 C1514 1.368 . S
C1518 C1517 1.523 . S
H1519 C1494 0.950 . S
H1520 C1496 0.950 . S
H1521 C1497 0.949 . S
H1522 C1499 0.950 . S
H1523 C1501 0.950 . S
C1524 C1525 1.349 . S
C1524 C1526 1.327 . S
C1524 H1549 0.950 . S
C1525 C1524 1.349 . S
C1525 C1541 1.349 . S
C1526 C1524 1.327 . S
C1526 C1545 1.429 . S
C1526 H1550 0.950 . S
C1527 C1544 1.574 . S
C1527 C1546 1.368 . S
C1527 H1551 0.949 . S
H1528 C1532 0.949 . S
C1529 C1530 1.349 . S
C1529 C1531 1.327 . S
C1529 H1552 0.950 . S
C1530 C1529 1.349 . S
C1530 C1542 1.349 . S
C1531 C1529 1.327 . S
C1531 C1547 1.429 . S
C1531 H1553 0.950 . S
C1532 H1528 0.949 . S
C1532 C1540 1.574 . S
C1532 C1548 1.368 . S
H1533 C1541 0.950 . S
H1534 C1539 0.950 . S
H1535 C1540 0.949 . S
H1536 C1542 0.950 . S
H1537 C1543 0.950 . S
H1538 C1544 0.949 . S
C1539 H1534 0.950 . S
C1539 C1541 1.327 . S
C1539 C1545 1.429 . S
C1540 C1532 1.574 . S
C1540 H1535 0.949 . S
C1540 C1546 1.368 . S
C1541 C1525 1.349 . S
C1541 H1533 0.950 . S
C1541 C1539 1.327 . S
C1542 C1530 1.349 . S
C1542 H1536 0.950 . S
C1542 C1543 1.327 . S
C1543 H1537 0.950 . S
C1543 C1542 1.327 . S
C1543 C1547 1.429 . S
C1544 C1527 1.574 . S
C1544 H1538 0.949 . S
C1544 C1548 1.368 . S
C1545 C1526 1.429 . S
C1545 C1539 1.429 . S
C1545 C1546 1.523 . S
C1546 C1527 1.368 . S
C1546 C1540 1.368 . S
C1546 C1545 1.523 . S
C1547 C1531 1.429 . S
C1547 C1543 1.429 . S
C1547 C1548 1.523 . S
C1548 C1532 1.368 . S
C1548 C1544 1.368 . S
C1548 C1547 1.523 . S
H1549 C1524 0.950 . S
H1550 C1526 0.950 . S
H1551 C1527 0.949 . S
H1552 C1529 0.950 . S
H1553 C1531 0.950 . S
C1554 C1555 1.349 . S
C1554 C1556 1.327 . S
C1554 H1579 0.950 . S
C1555 C1554 1.349 . S
C1555 C1571 1.349 . S
C1556 C1554 1.327 . S
C1556 C1575 1.429 . S
C1556 H1580 0.950 . S
C1557 C1574 1.574 . S
C1557 C1576 1.368 . S
C1557 H1581 0.949 . S
H1558 C1562 0.949 . S
C1559 C1560 1.349 . S
C1559 C1561 1.327 . S
C1559 H1582 0.950 . S
C1560 C1559 1.349 . S
C1560 C1572 1.349 . S
C1561 C1559 1.327 . S
C1561 C1577 1.429 . S
C1561 H1583 0.950 . S
C1562 H1558 0.949 . S
C1562 C1570 1.574 . S
C1562 C1578 1.368 . S
H1563 C1571 0.950 . S
H1564 C1569 0.950 . S
H1565 C1570 0.949 . S
H1566 C1572 0.950 . S
H1567 C1573 0.950 . S
H1568 C1574 0.949 . S
C1569 H1564 0.950 . S
C1569 C1571 1.327 . S
C1569 C1575 1.429 . S
C1570 C1562 1.574 . S
C1570 H1565 0.949 . S
C1570 C1576 1.368 . S
C1571 C1555 1.349 . S
C1571 H1563 0.950 . S
C1571 C1569 1.327 . S
C1572 C1560 1.349 . S
C1572 H1566 0.950 . S
C1572 C1573 1.327 . S
C1573 H1567 0.950 . S
C1573 C1572 1.327 . S
C1573 C1577 1.429 . S
C1574 C1557 1.574 . S
C1574 H1568 0.949 . S
C1574 C1578 1.368 . S
C1575 C1556 1.429 . S
C1575 C1569 1.429 . S
C1575 C1576 1.523 . S
C1576 C1557 1.368 . S
C1576 C1570 1.368 . S
C1576 C1575 1.523 . S
C1577 C1561 1.429 . S
C1577 C1573 1.429 . S
C1577 C1578 1.523 . S
C1578 C1562 1.368 . S
C1578 C1574 1.368 . S
C1578 C1577 1.523 . S
H1579 C1554 0.950 . S
H1580 C1556 0.950 . S
H1581 C1557 0.949 . S
H1582 C1559 0.950 . S
H1583 C1561 0.950 . S
C1584 C1585 1.349 . S
C1584 C1586 1.327 . S
C1584 H1609 0.950 . S
C1585 C1584 1.349 . S
C1585 C1601 1.349 . S
C1586 C1584 1.327 . S
C1586 C1605 1.429 . S
C1586 H1610 0.950 . S
C1587 C1604 1.574 . S
C1587 C1606 1.368 . S
C1587 H1611 0.949 . S
H1588 C1592 0.949 . S
C1589 C1590 1.349 . S
C1589 C1591 1.327 . S
C1589 H1612 0.950 . S
C1590 C1589 1.349 . S
C1590 C1602 1.349 . S
C1591 C1589 1.327 . S
C1591 C1607 1.429 . S
C1591 H1613 0.950 . S
C1592 H1588 0.949 . S
C1592 C1600 1.574 . S
C1592 C1608 1.368 . S
H1593 C1601 0.950 . S
H1594 C1599 0.950 . S
H1595 C1600 0.949 . S
H1596 C1602 0.950 . S
H1597 C1603 0.950 . S
H1598 C1604 0.949 . S
C1599 H1594 0.950 . S
C1599 C1601 1.327 . S
C1599 C1605 1.429 . S
C1600 C1592 1.574 . S
C1600 H1595 0.949 . S
C1600 C1606 1.368 . S
C1601 C1585 1.349 . S
C1601 H1593 0.950 . S
C1601 C1599 1.327 . S
C1602 C1590 1.349 . S
C1602 H1596 0.950 . S
C1602 C1603 1.327 . S
C1603 H1597 0.950 . S
C1603 C1602 1.327 . S
C1603 C1607 1.429 . S
C1604 C1587 1.574 . S
C1604 H1598 0.949 . S
C1604 C1608 1.368 . S
C1605 C1586 1.429 . S
C1605 C1599 1.429 . S
C1605 C1606 1.523 . S
C1606 C1587 1.368 . S
C1606 C1600 1.368 . S
C1606 C1605 1.523 . S
C1607 C1591 1.429 . S
C1607 C1603 1.429 . S
C1607 C1608 1.523 . S
C1608 C1592 1.368 . S
C1608 C1604 1.368 . S
C1608 C1607 1.523 . S
H1609 C1584 0.950 . S
H1610 C1586 0.950 . S
H1611 C1587 0.949 . S
H1612 C1589 0.950 . S
H1613 C1591 0.950 . S
C1614 C1615 1.349 . S
C1614 C1616 1.327 . S
C1614 H1639 0.950 . S
C1615 C1614 1.349 . S
C1615 C1631 1.349 . S
C1616 C1614 1.327 . S
C1616 C1635 1.429 . S
C1616 H1640 0.950 . S
C1617 C1634 1.574 . S
C1617 C1636 1.368 . S
C1617 H1641 0.949 . S
H1618 C1622 0.949 . S
C1619 C1620 1.349 . S
C1619 C1621 1.327 . S
C1619 H1642 0.950 . S
C1620 C1619 1.349 . S
C1620 C1632 1.349 . S
C1621 C1619 1.327 . S
C1621 C1637 1.429 . S
C1621 H1643 0.950 . S
C1622 H1618 0.949 . S
C1622 C1630 1.574 . S
C1622 C1638 1.368 . S
H1623 C1631 0.950 . S
H1624 C1629 0.950 . S
H1625 C1630 0.949 . S
H1626 C1632 0.950 . S
H1627 C1633 0.950 . S
H1628 C1634 0.949 . S
C1629 H1624 0.950 . S
C1629 C1631 1.327 . S
C1629 C1635 1.429 . S
C1630 C1622 1.574 . S
C1630 H1625 0.949 . S
C1630 C1636 1.368 . S
C1631 C1615 1.349 . S
C1631 H1623 0.950 . S
C1631 C1629 1.327 . S
C1632 C1620 1.349 . S
C1632 H1626 0.950 . S
C1632 C1633 1.327 . S
C1633 H1627 0.950 . S
C1633 C1632 1.327 . S
C1633 C1637 1.429 . S
C1634 C1617 1.574 . S
C1634 H1628 0.949 . S
C1634 C1638 1.368 . S
C1635 C1616 1.429 . S
C1635 C1629 1.429 . S
C1635 C1636 1.523 . S
C1636 C1617 1.368 . S
C1636 C1630 1.368 . S
C1636 C1635 1.523 . S
C1637 C1621 1.429 . S
C1637 C1633 1.429 . S
C1637 C1638 1.523 . S
C1638 C1622 1.368 . S
C1638 C1634 1.368 . S
C1638 C1637 1.523 . S
H1639 C1614 0.950 . S
H1640 C1616 0.950 . S
H1641 C1617 0.949 . S
H1642 C1619 0.950 . S
H1643 C1621 0.950 . S
C1644 C1645 1.349 . S
C1644 C1646 1.327 . S
C1644 H1669 0.950 . S
C1645 C1644 1.349 . S
C1645 C1661 1.349 . S
C1646 C1644 1.327 . S
C1646 C1665 1.429 . S
C1646 H1670 0.950 . S
C1647 C1664 1.574 . S
C1647 C1666 1.368 . S
C1647 H1671 0.949 . S
H1648 C1652 0.949 . S
C1649 C1650 1.349 . S
C1649 C1651 1.327 . S
C1649 H1672 0.950 . S
C1650 C1649 1.349 . S
C1650 C1662 1.349 . S
C1651 C1649 1.327 . S
C1651 C1667 1.429 . S
C1651 H1673 0.950 . S
C1652 H1648 0.949 . S
C1652 C1660 1.574 . S
C1652 C1668 1.368 . S
H1653 C1661 0.950 . S
H1654 C1659 0.950 . S
H1655 C1660 0.949 . S
H1656 C1662 0.950 . S
H1657 C1663 0.950 . S
H1658 C1664 0.949 . S
C1659 H1654 0.950 . S
C1659 C1661 1.327 . S
C1659 C1665 1.429 . S
C1660 C1652 1.574 . S
C1660 H1655 0.949 . S
C1660 C1666 1.368 . S
C1661 C1645 1.349 . S
C1661 H1653 0.950 . S
C1661 C1659 1.327 . S
C1662 C1650 1.349 . S
C1662 H1656 0.950 . S
C1662 C1663 1.327 . S
C1663 H1657 0.950 . S
C1663 C1662 1.327 . S
C1663 C1667 1.429 . S
C1664 C1647 1.574 . S
C1664 H1658 0.949 . S
C1664 C1668 1.368 . S
C1665 C1646 1.429 . S
C1665 C1659 1.429 . S
C1665 C1666 1.523 . S
C1666 C1647 1.368 . S
C1666 C1660 1.368 . S
C1666 C1665 1.523 . S
C1667 C1651 1.429 . S
C1667 C1663 1.429 . S
C1667 C1668 1.523 . S
C1668 C1652 1.368 . S
C1668 C1664 1.368 . S
C1668 C1667 1.523 . S
H1669 C1644 0.950 . S
H1670 C1646 0.950 . S
H1671 C1647 0.949 . S
H1672 C1649 0.950 . S
H1673 C1651 0.950 . S
C1674 C1675 1.349 . S
C1674 C1676 1.327 . S
C1674 H1699 0.950 . S
C1675 C1674 1.349 . S
C1675 C1691 1.349 . S
C1676 C1674 1.327 . S
C1676 C1695 1.429 . S
C1676 H1700 0.950 . S
C1677 C1694 1.574 . S
C1677 C1696 1.368 . S
C1677 H1701 0.949 . S
H1678 C1682 0.949 . S
C1679 C1680 1.349 . S
C1679 C1681 1.327 . S
C1679 H1702 0.950 . S
C1680 C1679 1.349 . S
C1680 C1692 1.349 . S
C1681 C1679 1.327 . S
C1681 C1697 1.429 . S
C1681 H1703 0.950 . S
C1682 H1678 0.949 . S
C1682 C1690 1.574 . S
C1682 C1698 1.368 . S
H1683 C1691 0.950 . S
H1684 C1689 0.950 . S
H1685 C1690 0.949 . S
H1686 C1692 0.950 . S
H1687 C1693 0.950 . S
H1688 C1694 0.949 . S
C1689 H1684 0.950 . S
C1689 C1691 1.327 . S
C1689 C1695 1.429 . S
C1690 C1682 1.574 . S
C1690 H1685 0.949 . S
C1690 C1696 1.368 . S
C1691 C1675 1.349 . S
C1691 H1683 0.950 . S
C1691 C1689 1.327 . S
C1692 C1680 1.349 . S
C1692 H1686 0.950 . S
C1692 C1693 1.327 . S
C1693 H1687 0.950 . S
C1693 C1692 1.327 . S
C1693 C1697 1.429 . S
C1694 C1677 1.574 . S
C1694 H1688 0.949 . S
C1694 C1698 1.368 . S
C1695 C1676 1.429 . S
C1695 C1689 1.429 . S
C1695 C1696 1.523 . S
C1696 C1677 1.368 . S
C1696 C1690 1.368 . S
C1696 C1695 1.523 . S
C1697 C1681 1.429 . S
C1697 C1693 1.429 . S
C1697 C1698 1.523 . S
C1698 C1682 1.368 . S
C1698 C1694 1.368 . S
C1698 C1697 1.523 . S
H1699 C1674 0.950 . S
H1700 C1676 0.950 . S
H1701 C1677 0.949 . S
H1702 C1679 0.950 . S
H1703 C1681 0.950 . S
C1704 C1705 1.349 . S
C1704 C1706 1.327 . S
C1704 H1729 0.950 . S
C1705 C1704 1.349 . S
C1705 C1721 1.349 . S
C1706 C1704 1.327 . S
C1706 C1725 1.429 . S
C1706 H1730 0.950 . S
C1707 C1724 1.574 . S
C1707 C1726 1.368 . S
C1707 H1731 0.949 . S
H1708 C1712 0.949 . S
C1709 C1710 1.349 . S
C1709 C1711 1.327 . S
C1709 H1732 0.950 . S
C1710 C1709 1.349 . S
C1710 C1722 1.349 . S
C1711 C1709 1.327 . S
C1711 C1727 1.429 . S
C1711 H1733 0.950 . S
C1712 H1708 0.949 . S
C1712 C1720 1.574 . S
C1712 C1728 1.368 . S
H1713 C1721 0.950 . S
H1714 C1719 0.950 . S
H1715 C1720 0.949 . S
H1716 C1722 0.950 . S
H1717 C1723 0.950 . S
H1718 C1724 0.949 . S
C1719 H1714 0.950 . S
C1719 C1721 1.327 . S
C1719 C1725 1.429 . S
C1720 C1712 1.574 . S
C1720 H1715 0.949 . S
C1720 C1726 1.368 . S
C1721 C1705 1.349 . S
C1721 H1713 0.950 . S
C1721 C1719 1.327 . S
C1722 C1710 1.349 . S
C1722 H1716 0.950 . S
C1722 C1723 1.327 . S
C1723 H1717 0.950 . S
C1723 C1722 1.327 . S
C1723 C1727 1.429 . S
C1724 C1707 1.574 . S
C1724 H1718 0.949 . S
C1724 C1728 1.368 . S
C1725 C1706 1.429 . S
C1725 C1719 1.429 . S
C1725 C1726 1.523 . S
C1726 C1707 1.368 . S
C1726 C1720 1.368 . S
C1726 C1725 1.523 . S
C1727 C1711 1.429 . S
C1727 C1723 1.429 . S
C1727 C1728 1.523 . S
C1728 C1712 1.368 . S
C1728 C1724 1.368 . S
C1728 C1727 1.523 . S
H1729 C1704 0.950 . S
H1730 C1706 0.950 . S
H1731 C1707 0.949 . S
H1732 C1709 0.950 . S
H1733 C1711 0.950 . S
C1734 C1735 1.349 . S
C1734 C1736 1.327 . S
C1734 H1759 0.950 . S
C1735 C1734 1.349 . S
C1735 C1751 1.349 . S
C1736 C1734 1.327 . S
C1736 C1755 1.429 . S
C1736 H1760 0.950 . S
C1737 C1754 1.574 . S
C1737 C1756 1.368 . S
C1737 H1761 0.949 . S
H1738 C1742 0.949 . S
C1739 C1740 1.349 . S
C1739 C1741 1.327 . S
C1739 H1762 0.950 . S
C1740 C1739 1.349 . S
C1740 C1752 1.349 . S
C1741 C1739 1.327 . S
C1741 C1757 1.429 . S
C1741 H1763 0.950 . S
C1742 H1738 0.949 . S
C1742 C1750 1.574 . S
C1742 C1758 1.368 . S
H1743 C1751 0.950 . S
H1744 C1749 0.950 . S
H1745 C1750 0.949 . S
H1746 C1752 0.950 . S
H1747 C1753 0.950 . S
H1748 C1754 0.949 . S
C1749 H1744 0.950 . S
C1749 C1751 1.327 . S
C1749 C1755 1.429 . S
C1750 C1742 1.574 . S
C1750 H1745 0.949 . S
C1750 C1756 1.368 . S
C1751 C1735 1.349 . S
C1751 H1743 0.950 . S
C1751 C1749 1.327 . S
C1752 C1740 1.349 . S
C1752 H1746 0.950 . S
C1752 C1753 1.327 . S
C1753 H1747 0.950 . S
C1753 C1752 1.327 . S
C1753 C1757 1.429 . S
C1754 C1737 1.574 . S
C1754 H1748 0.949 . S
C1754 C1758 1.368 . S
C1755 C1736 1.429 . S
C1755 C1749 1.429 . S
C1755 C1756 1.523 . S
C1756 C1737 1.368 . S
C1756 C1750 1.368 . S
C1756 C1755 1.523 . S
C1757 C1741 1.429 . S
C1757 C1753 1.429 . S
C1757 C1758 1.523 . S
C1758 C1742 1.368 . S
C1758 C1754 1.368 . S
C1758 C1757 1.523 . S
H1759 C1734 0.950 . S
H1760 C1736 0.950 . S
H1761 C1737 0.949 . S
H1762 C1739 0.950 . S
H1763 C1741 0.950 . S
C1764 C1765 1.349 . S
C1764 C1766 1.327 . S
C1764 H1789 0.950 . S
C1765 C1764 1.349 . S
C1765 C1781 1.349 . S
C1766 C1764 1.327 . S
C1766 C1785 1.429 . S
C1766 H1790 0.950 . S
C1767 C1784 1.574 . S
C1767 C1786 1.368 . S
C1767 H1791 0.949 . S
H1768 C1772 0.949 . S
C1769 C1770 1.349 . S
C1769 C1771 1.327 . S
C1769 H1792 0.950 . S
C1770 C1769 1.349 . S
C1770 C1782 1.349 . S
C1771 C1769 1.327 . S
C1771 C1787 1.429 . S
C1771 H1793 0.950 . S
C1772 H1768 0.949 . S
C1772 C1780 1.574 . S
C1772 C1788 1.368 . S
H1773 C1781 0.950 . S
H1774 C1779 0.950 . S
H1775 C1780 0.949 . S
H1776 C1782 0.950 . S
H1777 C1783 0.950 . S
H1778 C1784 0.949 . S
C1779 H1774 0.950 . S
C1779 C1781 1.327 . S
C1779 C1785 1.429 . S
C1780 C1772 1.574 . S
C1780 H1775 0.949 . S
C1780 C1786 1.368 . S
C1781 C1765 1.349 . S
C1781 H1773 0.950 . S
C1781 C1779 1.327 . S
C1782 C1770 1.349 . S
C1782 H1776 0.950 . S
C1782 C1783 1.327 . S
C1783 H1777 0.950 . S
C1783 C1782 1.327 . S
C1783 C1787 1.429 . S
C1784 C1767 1.574 . S
C1784 H1778 0.949 . S
C1784 C1788 1.368 . S
C1785 C1766 1.429 . S
C1785 C1779 1.429 . S
C1785 C1786 1.523 . S
C1786 C1767 1.368 . S
C1786 C1780 1.368 . S
C1786 C1785 1.523 . S
C1787 C1771 1.429 . S
C1787 C1783 1.429 . S
C1787 C1788 1.523 . S
C1788 C1772 1.368 . S
C1788 C1784 1.368 . S
C1788 C1787 1.523 . S
H1789 C1764 0.950 . S
H1790 C1766 0.950 . S
H1791 C1767 0.949 . S
H1792 C1769 0.950 . S
H1793 C1771 0.950 . S
C1794 C1795 1.349 . S
C1794 C1796 1.327 . S
C1794 H1819 0.950 . S
C1795 C1794 1.349 . S
C1795 C1811 1.349 . S
C1796 C1794 1.327 . S
C1796 C1815 1.429 . S
C1796 H1820 0.950 . S
C1797 C1814 1.574 . S
C1797 C1816 1.368 . S
C1797 H1821 0.949 . S
H1798 C1802 0.949 . S
C1799 C1800 1.349 . S
C1799 C1801 1.327 . S
C1799 H1822 0.950 . S
C1800 C1799 1.349 . S
C1800 C1812 1.349 . S
C1801 C1799 1.327 . S
C1801 C1817 1.429 . S
C1801 H1823 0.950 . S
C1802 H1798 0.949 . S
C1802 C1810 1.574 . S
C1802 C1818 1.368 . S
H1803 C1811 0.950 . S
H1804 C1809 0.950 . S
H1805 C1810 0.949 . S
H1806 C1812 0.950 . S
H1807 C1813 0.950 . S
H1808 C1814 0.949 . S
C1809 H1804 0.950 . S
C1809 C1811 1.327 . S
C1809 C1815 1.429 . S
C1810 C1802 1.574 . S
C1810 H1805 0.949 . S
C1810 C1816 1.368 . S
C1811 C1795 1.349 . S
C1811 H1803 0.950 . S
C1811 C1809 1.327 . S
C1812 C1800 1.349 . S
C1812 H1806 0.950 . S
C1812 C1813 1.327 . S
C1813 H1807 0.950 . S
C1813 C1812 1.327 . S
C1813 C1817 1.429 . S
C1814 C1797 1.574 . S
C1814 H1808 0.949 . S
C1814 C1818 1.368 . S
C1815 C1796 1.429 . S
C1815 C1809 1.429 . S
C1815 C1816 1.523 . S
C1816 C1797 1.368 . S
C1816 C1810 1.368 . S
C1816 C1815 1.523 . S
C1817 C1801 1.429 . S
C1817 C1813 1.429 . S
C1817 C1818 1.523 . S
C1818 C1802 1.368 . S
C1818 C1814 1.368 . S
C1818 C1817 1.523 . S
H1819 C1794 0.950 . S
H1820 C1796 0.950 . S
H1821 C1797 0.949 . S
H1822 C1799 0.950 . S
H1823 C1801 0.950 . S
C1824 C1825 1.349 . S
C1824 C1826 1.327 . S
C1824 H1849 0.950 . S
C1825 C1824 1.349 . S
C1825 C1841 1.349 . S
C1826 C1824 1.327 . S
C1826 C1845 1.429 . S
C1826 H1850 0.950 . S
C1827 C1844 1.574 . S
C1827 C1846 1.368 . S
C1827 H1851 0.949 . S
H1828 C1832 0.949 . S
C1829 C1830 1.349 . S
C1829 C1831 1.327 . S
C1829 H1852 0.950 . S
C1830 C1829 1.349 . S
C1830 C1842 1.349 . S
C1831 C1829 1.327 . S
C1831 C1847 1.429 . S
C1831 H1853 0.950 . S
C1832 H1828 0.949 . S
C1832 C1840 1.574 . S
C1832 C1848 1.368 . S
H1833 C1841 0.950 . S
H1834 C1839 0.950 . S
H1835 C1840 0.949 . S
H1836 C1842 0.950 . S
H1837 C1843 0.950 . S
H1838 C1844 0.949 . S
C1839 H1834 0.950 . S
C1839 C1841 1.327 . S
C1839 C1845 1.429 . S
C1840 C1832 1.574 . S
C1840 H1835 0.949 . S
C1840 C1846 1.368 . S
C1841 C1825 1.349 . S
C1841 H1833 0.950 . S
C1841 C1839 1.327 . S
C1842 C1830 1.349 . S
C1842 H1836 0.950 . S
C1842 C1843 1.327 . S
C1843 H1837 0.950 . S
C1843 C1842 1.327 . S
C1843 C1847 1.429 . S
C1844 C1827 1.574 . S
C1844 H1838 0.949 . S
C1844 C1848 1.368 . S
C1845 C1826 1.429 . S
C1845 C1839 1.429 . S
C1845 C1846 1.523 . S
C1846 C1827 1.368 . S
C1846 C1840 1.368 . S
C1846 C1845 1.523 . S
C1847 C1831 1.429 . S
C1847 C1843 1.429 . S
C1847 C1848 1.523 . S
C1848 C1832 1.368 . S
C1848 C1844 1.368 . S
C1848 C1847 1.523 . S
H1849 C1824 0.950 . S
H1850 C1826 0.950 . S
H1851 C1827 0.949 . S
H1852 C1829 0.950 . S
H1853 C1831 0.950 . S
C1854 C1855 1.349 . S
C1854 C1856 1.327 . S
C1854 H1879 0.950 . S
C1855 C1854 1.349 . S
C1855 C1871 1.349 . S
C1856 C1854 1.327 . S
C1856 C1875 1.429 . S
C1856 H1880 0.950 . S
C1857 C1874 1.574 . S
C1857 C1876 1.368 . S
C1857 H1881 0.949 . S
H1858 C1862 0.949 . S
C1859 C1860 1.349 . S
C1859 C1861 1.327 . S
C1859 H1882 0.950 . S
C1860 C1859 1.349 . S
C1860 C1872 1.349 . S
C1861 C1859 1.327 . S
C1861 C1877 1.429 . S
C1861 H1883 0.950 . S
C1862 H1858 0.949 . S
C1862 C1870 1.574 . S
C1862 C1878 1.368 . S
H1863 C1871 0.950 . S
H1864 C1869 0.950 . S
H1865 C1870 0.949 . S
H1866 C1872 0.950 . S
H1867 C1873 0.950 . S
H1868 C1874 0.949 . S
C1869 H1864 0.950 . S
C1869 C1871 1.327 . S
C1869 C1875 1.429 . S
C1870 C1862 1.574 . S
C1870 H1865 0.949 . S
C1870 C1876 1.368 . S
C1871 C1855 1.349 . S
C1871 H1863 0.950 . S
C1871 C1869 1.327 . S
C1872 C1860 1.349 . S
C1872 H1866 0.950 . S
C1872 C1873 1.327 . S
C1873 H1867 0.950 . S
C1873 C1872 1.327 . S
C1873 C1877 1.429 . S
C1874 C1857 1.574 . S
C1874 H1868 0.949 . S
C1874 C1878 1.368 . S
C1875 C1856 1.429 . S
C1875 C1869 1.429 . S
C1875 C1876 1.523 . S
C1876 C1857 1.368 . S
C1876 C1870 1.368 . S
C1876 C1875 1.523 . S
C1877 C1861 1.429 . S
C1877 C1873 1.429 . S
C1877 C1878 1.523 . S
C1878 C1862 1.368 . S
C1878 C1874 1.368 . S
C1878 C1877 1.523 . S
H1879 C1854 0.950 . S
H1880 C1856 0.950 . S
H1881 C1857 0.949 . S
H1882 C1859 0.950 . S
H1883 C1861 0.950 . S
C1884 C1885 1.349 . S
C1884 C1886 1.327 . S
C1884 H1909 0.950 . S
C1885 C1884 1.349 . S
C1885 C1901 1.349 . S
C1886 C1884 1.327 . S
C1886 C1905 1.429 . S
C1886 H1910 0.950 . S
C1887 C1904 1.574 . S
C1887 C1906 1.368 . S
C1887 H1911 0.949 . S
H1888 C1892 0.949 . S
C1889 C1890 1.349 . S
C1889 C1891 1.327 . S
C1889 H1912 0.950 . S
C1890 C1889 1.349 . S
C1890 C1902 1.349 . S
C1891 C1889 1.327 . S
C1891 C1907 1.429 . S
C1891 H1913 0.950 . S
C1892 H1888 0.949 . S
C1892 C1900 1.574 . S
C1892 C1908 1.368 . S
H1893 C1901 0.950 . S
H1894 C1899 0.950 . S
H1895 C1900 0.949 . S
H1896 C1902 0.950 . S
H1897 C1903 0.950 . S
H1898 C1904 0.949 . S
C1899 H1894 0.950 . S
C1899 C1901 1.327 . S
C1899 C1905 1.429 . S
C1900 C1892 1.574 . S
C1900 H1895 0.949 . S
C1900 C1906 1.368 . S
C1901 C1885 1.349 . S
C1901 H1893 0.950 . S
C1901 C1899 1.327 . S
C1902 C1890 1.349 . S
C1902 H1896 0.950 . S
C1902 C1903 1.327 . S
C1903 H1897 0.950 . S
C1903 C1902 1.327 . S
C1903 C1907 1.429 . S
C1904 C1887 1.574 . S
C1904 H1898 0.949 . S
C1904 C1908 1.368 . S
C1905 C1886 1.429 . S
C1905 C1899 1.429 . S
C1905 C1906 1.523 . S
C1906 C1887 1.368 . S
C1906 C1900 1.368 . S
C1906 C1905 1.523 . S
C1907 C1891 1.429 . S
C1907 C1903 1.429 . S
C1907 C1908 1.523 . S
C1908 C1892 1.368 . S
C1908 C1904 1.368 . S
C1908 C1907 1.523 . S
H1909 C1884 0.950 . S
H1910 C1886 0.950 . S
H1911 C1887 0.949 . S
H1912 C1889 0.950 . S
H1913 C1891 0.950 . S
C1914 C1915 1.349 . S
C1914 C1916 1.327 . S
C1914 H1939 0.950 . S
C1915 C1914 1.349 . S
C1915 C1931 1.349 . S
C1916 C1914 1.327 . S
C1916 C1935 1.429 . S
C1916 H1940 0.950 . S
C1917 C1934 1.574 . S
C1917 C1936 1.368 . S
C1917 H1941 0.949 . S
H1918 C1922 0.949 . S
C1919 C1920 1.349 . S
C1919 C1921 1.327 . S
C1919 H1942 0.950 . S
C1920 C1919 1.349 . S
C1920 C1932 1.349 . S
C1921 C1919 1.327 . S
C1921 C1937 1.429 . S
C1921 H1943 0.950 . S
C1922 H1918 0.949 . S
C1922 C1930 1.574 . S
C1922 C1938 1.368 . S
H1923 C1931 0.950 . S
H1924 C1929 0.950 . S
H1925 C1930 0.949 . S
H1926 C1932 0.950 . S
H1927 C1933 0.950 . S
H1928 C1934 0.949 . S
C1929 H1924 0.950 . S
C1929 C1931 1.327 . S
C1929 C1935 1.429 . S
C1930 C1922 1.574 . S
C1930 H1925 0.949 . S
C1930 C1936 1.368 . S
C1931 C1915 1.349 . S
C1931 H1923 0.950 . S
C1931 C1929 1.327 . S
C1932 C1920 1.349 . S
C1932 H1926 0.950 . S
C1932 C1933 1.327 . S
C1933 H1927 0.950 . S
C1933 C1932 1.327 . S
C1933 C1937 1.429 . S
C1934 C1917 1.574 . S
C1934 H1928 0.949 . S
C1934 C1938 1.368 . S
C1935 C1916 1.429 . S
C1935 C1929 1.429 . S
C1935 C1936 1.523 . S
C1936 C1917 1.368 . S
C1936 C1930 1.368 . S
C1936 C1935 1.523 . S
C1937 C1921 1.429 . S
C1937 C1933 1.429 . S
C1937 C1938 1.523 . S
C1938 C1922 1.368 . S
C1938 C1934 1.368 . S
C1938 C1937 1.523 . S
H1939 C1914 0.950 . S
H1940 C1916 0.950 . S
H1941 C1917 0.949 . S
H1942 C1919 0.950 . S
H1943 C1921 0.950 . S
C1944 C1945 1.349 . S
C1944 C1946 1.327 . S
C1944 H1969 0.950 . S
C1945 C1944 1.349 . S
C1945 C1961 1.349 . S
C1946 C1944 1.327 . S
C1946 C1965 1.429 . S
C1946 H1970 0.950 . S
C1947 C1964 1.574 1_455 S
C1947 C1966 1.368 . S
C1947 H1971 0.949 . S
H1948 C1952 0.949 . S
C1949 C1950 1.349 . S
C1949 C1951 1.327 . S
C1949 H1972 0.950 . S
C1950 C1949 1.349 . S
C1950 C1962 1.349 . S
C1951 C1949 1.327 . S
C1951 C1967 1.429 . S
C1951 H1973 0.950 . S
C1952 H1948 0.949 . S
C1952 C1960 1.574 1_655 S
C1952 C1968 1.368 . S
H1953 C1961 0.950 . S
H1954 C1959 0.950 . S
H1955 C1960 0.949 . S
H1956 C1962 0.950 . S
H1957 C1963 0.950 . S
H1958 C1964 0.949 . S
C1959 H1954 0.950 . S
C1959 C1961 1.327 . S
C1959 C1965 1.429 . S
C1960 C1952 1.574 1_455 S
C1960 H1955 0.949 . S
C1960 C1966 1.368 . S
C1961 C1945 1.349 . S
C1961 H1953 0.950 . S
C1961 C1959 1.327 . S
C1962 C1950 1.349 . S
C1962 H1956 0.950 . S
C1962 C1963 1.327 . S
C1963 H1957 0.950 . S
C1963 C1962 1.327 . S
C1963 C1967 1.429 . S
C1964 C1947 1.574 1_655 S
C1964 H1958 0.949 . S
C1964 C1968 1.368 . S
C1965 C1946 1.429 . S
C1965 C1959 1.429 . S
C1965 C1966 1.523 . S
C1966 C1947 1.368 . S
C1966 C1960 1.368 . S
C1966 C1965 1.523 . S
C1967 C1951 1.429 . S
C1967 C1963 1.429 . S
C1967 C1968 1.523 . S
C1968 C1952 1.368 . S
C1968 C1964 1.368 . S
C1968 C1967 1.523 . S
H1969 C1944 0.950 . S
H1970 C1946 0.950 . S
H1971 C1947 0.949 . S
H1972 C1949 0.950 . S
H1973 C1951 0.950 . S
C1974 C1975 1.349 . S
C1974 C1976 1.327 . S
C1974 H1999 0.950 . S
C1975 C1974 1.349 . S
C1975 C1991 1.349 . S
C1976 C1974 1.327 . S
C1976 C1995 1.429 . S
C1976 H2000 0.950 . S
C1977 C1994 1.574 . S
C1977 C1996 1.368 . S
C1977 H2001 0.949 . S
H1978 C1982 0.949 . S
C1979 C1980 1.349 . S
C1979 C1981 1.327 . S
C1979 H2002 0.950 . S
C1980 C1979 1.349 . S
C1980 C1992 1.349 . S
C1981 C1979 1.327 . S
C1981 C1997 1.429 . S
C1981 H2003 0.950 . S
C1982 H1978 0.949 . S
C1982 C1990 1.574 . S
C1982 C1998 1.368 . S
H1983 C1991 0.950 . S
H1984 C1989 0.950 . S
H1985 C1990 0.949 . S
H1986 C1992 0.950 . S
H1987 C1993 0.950 . S
H1988 C1994 0.949 . S
C1989 H1984 0.950 . S
C1989 C1991 1.327 . S
C1989 C1995 1.429 . S
C1990 C1982 1.574 . S
C1990 H1985 0.949 . S
C1990 C1996 1.368 . S
C1991 C1975 1.349 . S
C1991 H1983 0.950 . S
C1991 C1989 1.327 . S
C1992 C1980 1.349 . S
C1992 H1986 0.950 . S
C1992 C1993 1.327 . S
C1993 H1987 0.950 . S
C1993 C1992 1.327 . S
C1993 C1997 1.429 . S
C1994 C1977 1.574 . S
C1994 H1988 0.949 . S
C1994 C1998 1.368 . S
C1995 C1976 1.429 . S
C1995 C1989 1.429 . S
C1995 C1996 1.523 . S
C1996 C1977 1.368 . S
C1996 C1990 1.368 . S
C1996 C1995 1.523 . S
C1997 C1981 1.429 . S
C1997 C1993 1.429 . S
C1997 C1998 1.523 . S
C1998 C1982 1.368 . S
C1998 C1994 1.368 . S
C1998 C1997 1.523 . S
H1999 C1974 0.950 . S
H2000 C1976 0.950 . S
H2001 C1977 0.949 . S
H2002 C1979 0.950 . S
H2003 C1981 0.950 . S
C2004 C2005 1.349 . S
C2004 C2006 1.327 . S
C2004 H2029 0.950 . S
C2005 C2004 1.349 . S
C2005 C2021 1.349 . S
C2006 C2004 1.327 . S
C2006 C2025 1.429 . S
C2006 H2030 0.950 . S
C2007 C2024 1.574 1_545 S
C2007 C2026 1.368 . S
C2007 H2031 0.949 . S
H2008 C2012 0.949 . S
C2009 C2010 1.349 . S
C2009 C2011 1.327 . S
C2009 H2032 0.950 . S
C2010 C2009 1.349 . S
C2010 C2022 1.349 . S
C2011 C2009 1.327 . S
C2011 C2027 1.429 . S
C2011 H2033 0.950 . S
C2012 H2008 0.949 . S
C2012 C2020 1.574 1_565 S
C2012 C2028 1.368 . S
H2013 C2021 0.950 . S
H2014 C2019 0.950 . S
H2015 C2020 0.949 . S
H2016 C2022 0.950 . S
H2017 C2023 0.950 . S
H2018 C2024 0.949 . S
C2019 H2014 0.950 . S
C2019 C2021 1.327 . S
C2019 C2025 1.429 . S
C2020 C2012 1.574 1_545 S
C2020 H2015 0.949 . S
C2020 C2026 1.368 . S
C2021 C2005 1.349 . S
C2021 H2013 0.950 . S
C2021 C2019 1.327 . S
C2022 C2010 1.349 . S
C2022 H2016 0.950 . S
C2022 C2023 1.327 . S
C2023 H2017 0.950 . S
C2023 C2022 1.327 . S
C2023 C2027 1.429 . S
C2024 C2007 1.574 1_565 S
C2024 H2018 0.949 . S
C2024 C2028 1.368 . S
C2025 C2006 1.429 . S
C2025 C2019 1.429 . S
C2025 C2026 1.523 . S
C2026 C2007 1.368 . S
C2026 C2020 1.368 . S
C2026 C2025 1.523 . S
C2027 C2011 1.429 . S
C2027 C2023 1.429 . S
C2027 C2028 1.523 . S
C2028 C2012 1.368 . S
C2028 C2024 1.368 . S
C2028 C2027 1.523 . S
H2029 C2004 0.950 . S
H2030 C2006 0.950 . S
H2031 C2007 0.949 . S
H2032 C2009 0.950 . S
H2033 C2011 0.950 . S
C2034 C2035 1.349 . S
C2034 C2036 1.327 . S
C2034 H2059 0.950 . S
C2035 C2034 1.349 . S
C2035 C2051 1.349 . S
C2036 C2034 1.327 . S
C2036 C2055 1.429 . S
C2036 H2060 0.950 . S
C2037 C2054 1.574 1_545 S
C2037 C2056 1.368 . S
C2037 H2061 0.949 . S
H2038 C2042 0.949 . S
C2039 C2040 1.349 . S
C2039 C2041 1.327 . S
C2039 H2062 0.950 . S
C2040 C2039 1.349 . S
C2040 C2052 1.349 . S
C2041 C2039 1.327 . S
C2041 C2057 1.429 . S
C2041 H2063 0.950 . S
C2042 H2038 0.949 . S
C2042 C2050 1.574 1_565 S
C2042 C2058 1.368 . S
H2043 C2051 0.950 . S
H2044 C2049 0.950 . S
H2045 C2050 0.949 . S
H2046 C2052 0.950 . S
H2047 C2053 0.950 . S
H2048 C2054 0.949 . S
C2049 H2044 0.950 . S
C2049 C2051 1.327 . S
C2049 C2055 1.429 . S
C2050 C2042 1.574 1_545 S
C2050 H2045 0.949 . S
C2050 C2056 1.368 . S
C2051 C2035 1.349 . S
C2051 H2043 0.950 . S
C2051 C2049 1.327 . S
C2052 C2040 1.349 . S
C2052 H2046 0.950 . S
C2052 C2053 1.327 . S
C2053 H2047 0.950 . S
C2053 C2052 1.327 . S
C2053 C2057 1.429 . S
C2054 C2037 1.574 1_565 S
C2054 H2048 0.949 . S
C2054 C2058 1.368 . S
C2055 C2036 1.429 . S
C2055 C2049 1.429 . S
C2055 C2056 1.523 . S
C2056 C2037 1.368 . S
C2056 C2050 1.368 . S
C2056 C2055 1.523 . S
C2057 C2041 1.429 . S
C2057 C2053 1.429 . S
C2057 C2058 1.523 . S
C2058 C2042 1.368 . S
C2058 C2054 1.368 . S
C2058 C2057 1.523 . S
H2059 C2034 0.950 . S
H2060 C2036 0.950 . S
H2061 C2037 0.949 . S
H2062 C2039 0.950 . S
H2063 C2041 0.950 . S
C2064 C2065 1.349 . S
C2064 C2066 1.327 . S
C2064 H2089 0.950 . S
C2065 C2064 1.349 . S
C2065 C2081 1.349 . S
C2066 C2064 1.327 . S
C2066 C2085 1.429 . S
C2066 H2090 0.950 . S
C2067 C2084 1.574 1_655 S
C2067 C2086 1.368 . S
C2067 H2091 0.949 . S
H2068 C2072 0.949 . S
C2069 C2070 1.349 . S
C2069 C2071 1.327 . S
C2069 H2092 0.950 . S
C2070 C2069 1.349 . S
C2070 C2082 1.349 . S
C2071 C2069 1.327 . S
C2071 C2087 1.429 . S
C2071 H2093 0.950 . S
C2072 H2068 0.949 . S
C2072 C2080 1.574 1_455 S
C2072 C2088 1.368 . S
H2073 C2081 0.950 . S
H2074 C2079 0.950 . S
H2075 C2080 0.949 . S
H2076 C2082 0.950 . S
H2077 C2083 0.950 . S
H2078 C2084 0.949 . S
C2079 H2074 0.950 . S
C2079 C2081 1.327 . S
C2079 C2085 1.429 . S
C2080 C2072 1.574 1_655 S
C2080 H2075 0.949 . S
C2080 C2086 1.368 . S
C2081 C2065 1.349 . S
C2081 H2073 0.950 . S
C2081 C2079 1.327 . S
C2082 C2070 1.349 . S
C2082 H2076 0.950 . S
C2082 C2083 1.327 . S
C2083 H2077 0.950 . S
C2083 C2082 1.327 . S
C2083 C2087 1.429 . S
C2084 C2067 1.574 1_455 S
C2084 H2078 0.949 . S
C2084 C2088 1.368 . S
C2085 C2066 1.429 . S
C2085 C2079 1.429 . S
C2085 C2086 1.523 . S
C2086 C2067 1.368 . S
C2086 C2080 1.368 . S
C2086 C2085 1.523 . S
C2087 C2071 1.429 . S
C2087 C2083 1.429 . S
C2087 C2088 1.523 . S
C2088 C2072 1.368 . S
C2088 C2084 1.368 . S
C2088 C2087 1.523 . S
H2089 C2064 0.950 . S
H2090 C2066 0.950 . S
H2091 C2067 0.949 . S
H2092 C2069 0.950 . S
H2093 C2071 0.950 . S
C2094 C2095 1.349 . S
C2094 C2096 1.327 . S
C2094 H2119 0.950 . S
C2095 C2094 1.349 . S
C2095 C2111 1.349 . S
C2096 C2094 1.327 . S
C2096 C2115 1.429 . S
C2096 H2120 0.950 . S
C2097 C2114 1.574 . S
C2097 C2116 1.368 . S
C2097 H2121 0.949 . S
H2098 C2102 0.949 . S
C2099 C2100 1.349 . S
C2099 C2101 1.327 . S
C2099 H2122 0.950 . S
C2100 C2099 1.349 . S
C2100 C2112 1.349 . S
C2101 C2099 1.327 . S
C2101 C2117 1.429 . S
C2101 H2123 0.950 . S
C2102 H2098 0.949 . S
C2102 C2110 1.574 . S
C2102 C2118 1.368 . S
H2103 C2111 0.950 . S
H2104 C2109 0.950 . S
H2105 C2110 0.949 . S
H2106 C2112 0.950 . S
H2107 C2113 0.950 . S
H2108 C2114 0.949 . S
C2109 H2104 0.950 . S
C2109 C2111 1.327 . S
C2109 C2115 1.429 . S
C2110 C2102 1.574 . S
C2110 H2105 0.949 . S
C2110 C2116 1.368 . S
C2111 C2095 1.349 . S
C2111 H2103 0.950 . S
C2111 C2109 1.327 . S
C2112 C2100 1.349 . S
C2112 H2106 0.950 . S
C2112 C2113 1.327 . S
C2113 H2107 0.950 . S
C2113 C2112 1.327 . S
C2113 C2117 1.429 . S
C2114 C2097 1.574 . S
C2114 H2108 0.949 . S
C2114 C2118 1.368 . S
C2115 C2096 1.429 . S
C2115 C2109 1.429 . S
C2115 C2116 1.523 . S
C2116 C2097 1.368 . S
C2116 C2110 1.368 . S
C2116 C2115 1.523 . S
C2117 C2101 1.429 . S
C2117 C2113 1.429 . S
C2117 C2118 1.523 . S
C2118 C2102 1.368 . S
C2118 C2114 1.368 . S
C2118 C2117 1.523 . S
H2119 C2094 0.950 . S
H2120 C2096 0.950 . S
H2121 C2097 0.949 . S
H2122 C2099 0.950 . S
H2123 C2101 0.950 . S
C2124 C2125 1.349 . S
C2124 C2126 1.327 . S
C2124 H2149 0.950 . S
C2125 C2124 1.349 . S
C2125 C2141 1.349 . S
C2126 C2124 1.327 . S
C2126 C2145 1.429 . S
C2126 H2150 0.950 . S
C2127 C2144 1.574 . S
C2127 C2146 1.368 . S
C2127 H2151 0.949 . S
H2128 C2132 0.949 . S
C2129 C2130 1.349 . S
C2129 C2131 1.327 . S
C2129 H2152 0.950 . S
C2130 C2129 1.349 . S
C2130 C2142 1.349 . S
C2131 C2129 1.327 . S
C2131 C2147 1.429 . S
C2131 H2153 0.950 . S
C2132 H2128 0.949 . S
C2132 C2140 1.574 . S
C2132 C2148 1.368 . S
H2133 C2141 0.950 . S
H2134 C2139 0.950 . S
H2135 C2140 0.949 . S
H2136 C2142 0.950 . S
H2137 C2143 0.950 . S
H2138 C2144 0.949 . S
C2139 H2134 0.950 . S
C2139 C2141 1.327 . S
C2139 C2145 1.429 . S
C2140 C2132 1.574 . S
C2140 H2135 0.949 . S
C2140 C2146 1.368 . S
C2141 C2125 1.349 . S
C2141 H2133 0.950 . S
C2141 C2139 1.327 . S
C2142 C2130 1.349 . S
C2142 H2136 0.950 . S
C2142 C2143 1.327 . S
C2143 H2137 0.950 . S
C2143 C2142 1.327 . S
C2143 C2147 1.429 . S
C2144 C2127 1.574 . S
C2144 H2138 0.949 . S
C2144 C2148 1.368 . S
C2145 C2126 1.429 . S
C2145 C2139 1.429 . S
C2145 C2146 1.523 . S
C2146 C2127 1.368 . S
C2146 C2140 1.368 . S
C2146 C2145 1.523 . S
C2147 C2131 1.429 . S
C2147 C2143 1.429 . S
C2147 C2148 1.523 . S
C2148 C2132 1.368 . S
C2148 C2144 1.368 . S
C2148 C2147 1.523 . S
H2149 C2124 0.950 . S
H2150 C2126 0.950 . S
H2151 C2127 0.949 . S
H2152 C2129 0.950 . S
H2153 C2131 0.950 . S
C2154 C2155 1.349 . S
C2154 C2156 1.327 . S
C2154 H2179 0.950 . S
C2155 C2154 1.349 . S
C2155 C2171 1.349 . S
C2156 C2154 1.327 . S
C2156 C2175 1.429 . S
C2156 H2180 0.950 . S
C2157 C2174 1.574 . S
C2157 C2176 1.368 . S
C2157 H2181 0.949 . S
H2158 C2162 0.949 . S
C2159 C2160 1.349 . S
C2159 C2161 1.327 . S
C2159 H2182 0.950 . S
C2160 C2159 1.349 . S
C2160 C2172 1.349 . S
C2161 C2159 1.327 . S
C2161 C2177 1.429 . S
C2161 H2183 0.950 . S
C2162 H2158 0.949 . S
C2162 C2170 1.574 . S
C2162 C2178 1.368 . S
H2163 C2171 0.950 . S
H2164 C2169 0.950 . S
H2165 C2170 0.949 . S
H2166 C2172 0.950 . S
H2167 C2173 0.950 . S
H2168 C2174 0.949 . S
C2169 H2164 0.950 . S
C2169 C2171 1.327 . S
C2169 C2175 1.429 . S
C2170 C2162 1.574 . S
C2170 H2165 0.949 . S
C2170 C2176 1.368 . S
C2171 C2155 1.349 . S
C2171 H2163 0.950 . S
C2171 C2169 1.327 . S
C2172 C2160 1.349 . S
C2172 H2166 0.950 . S
C2172 C2173 1.327 . S
C2173 H2167 0.950 . S
C2173 C2172 1.327 . S
C2173 C2177 1.429 . S
C2174 C2157 1.574 . S
C2174 H2168 0.949 . S
C2174 C2178 1.368 . S
C2175 C2156 1.429 . S
C2175 C2169 1.429 . S
C2175 C2176 1.523 . S
C2176 C2157 1.368 . S
C2176 C2170 1.368 . S
C2176 C2175 1.523 . S
C2177 C2161 1.429 . S
C2177 C2173 1.429 . S
C2177 C2178 1.523 . S
C2178 C2162 1.368 . S
C2178 C2174 1.368 . S
C2178 C2177 1.523 . S
H2179 C2154 0.950 . S
H2180 C2156 0.950 . S
H2181 C2157 0.949 . S
H2182 C2159 0.950 . S
H2183 C2161 0.950 . S
C2184 C2185 1.349 . S
C2184 C2186 1.327 . S
C2184 H2209 0.950 . S
C2185 C2184 1.349 . S
C2185 C2201 1.349 . S
C2186 C2184 1.327 . S
C2186 C2205 1.429 . S
C2186 H2210 0.950 . S
C2187 C2204 1.574 . S
C2187 C2206 1.368 . S
C2187 H2211 0.949 . S
H2188 C2192 0.949 . S
C2189 C2190 1.349 . S
C2189 C2191 1.327 . S
C2189 H2212 0.950 . S
C2190 C2189 1.349 . S
C2190 C2202 1.349 . S
C2191 C2189 1.327 . S
C2191 C2207 1.429 . S
C2191 H2213 0.950 . S
C2192 H2188 0.949 . S
C2192 C2200 1.574 . S
C2192 C2208 1.368 . S
H2193 C2201 0.950 . S
H2194 C2199 0.950 . S
H2195 C2200 0.949 . S
H2196 C2202 0.950 . S
H2197 C2203 0.950 . S
H2198 C2204 0.949 . S
C2199 H2194 0.950 . S
C2199 C2201 1.327 . S
C2199 C2205 1.429 . S
C2200 C2192 1.574 . S
C2200 H2195 0.949 . S
C2200 C2206 1.368 . S
C2201 C2185 1.349 . S
C2201 H2193 0.950 . S
C2201 C2199 1.327 . S
C2202 C2190 1.349 . S
C2202 H2196 0.950 . S
C2202 C2203 1.327 . S
C2203 H2197 0.950 . S
C2203 C2202 1.327 . S
C2203 C2207 1.429 . S
C2204 C2187 1.574 . S
C2204 H2198 0.949 . S
C2204 C2208 1.368 . S
C2205 C2186 1.429 . S
C2205 C2199 1.429 . S
C2205 C2206 1.523 . S
C2206 C2187 1.368 . S
C2206 C2200 1.368 . S
C2206 C2205 1.523 . S
C2207 C2191 1.429 . S
C2207 C2203 1.429 . S
C2207 C2208 1.523 . S
C2208 C2192 1.368 . S
C2208 C2204 1.368 . S
C2208 C2207 1.523 . S
H2209 C2184 0.950 . S
H2210 C2186 0.950 . S
H2211 C2187 0.949 . S
H2212 C2189 0.950 . S
H2213 C2191 0.950 . S
C2214 C2215 1.349 . S
C2214 C2216 1.327 . S
C2214 H2239 0.950 . S
C2215 C2214 1.349 . S
C2215 C2231 1.349 . S
C2216 C2214 1.327 . S
C2216 C2235 1.429 . S
C2216 H2240 0.950 . S
C2217 C2234 1.574 . S
C2217 C2236 1.368 . S
C2217 H2241 0.949 . S
H2218 C2222 0.949 . S
C2219 C2220 1.349 . S
C2219 C2221 1.327 . S
C2219 H2242 0.950 . S
C2220 C2219 1.349 . S
C2220 C2232 1.349 . S
C2221 C2219 1.327 . S
C2221 C2237 1.429 . S
C2221 H2243 0.950 . S
C2222 H2218 0.949 . S
C2222 C2230 1.574 . S
C2222 C2238 1.368 . S
H2223 C2231 0.950 . S
H2224 C2229 0.950 . S
H2225 C2230 0.949 . S
H2226 C2232 0.950 . S
H2227 C2233 0.950 . S
H2228 C2234 0.949 . S
C2229 H2224 0.950 . S
C2229 C2231 1.327 . S
C2229 C2235 1.429 . S
C2230 C2222 1.574 . S
C2230 H2225 0.949 . S
C2230 C2236 1.368 . S
C2231 C2215 1.349 . S
C2231 H2223 0.950 . S
C2231 C2229 1.327 . S
C2232 C2220 1.349 . S
C2232 H2226 0.950 . S
C2232 C2233 1.327 . S
C2233 H2227 0.950 . S
C2233 C2232 1.327 . S
C2233 C2237 1.429 . S
C2234 C2217 1.574 . S
C2234 H2228 0.949 . S
C2234 C2238 1.368 . S
C2235 C2216 1.429 . S
C2235 C2229 1.429 . S
C2235 C2236 1.523 . S
C2236 C2217 1.368 . S
C2236 C2230 1.368 . S
C2236 C2235 1.523 . S
C2237 C2221 1.429 . S
C2237 C2233 1.429 . S
C2237 C2238 1.523 . S
C2238 C2222 1.368 . S
C2238 C2234 1.368 . S
C2238 C2237 1.523 . S
H2239 C2214 0.950 . S
H2240 C2216 0.950 . S
H2241 C2217 0.949 . S
H2242 C2219 0.950 . S
H2243 C2221 0.950 . S
C2244 C2245 1.349 . S
C2244 C2246 1.327 . S
C2244 H2269 0.950 . S
C2245 C2244 1.349 . S
C2245 C2261 1.349 . S
C2246 C2244 1.327 . S
C2246 C2265 1.429 . S
C2246 H2270 0.950 . S
C2247 C2264 1.574 . S
C2247 C2266 1.368 . S
C2247 H2271 0.949 . S
H2248 C2252 0.949 . S
C2249 C2250 1.349 . S
C2249 C2251 1.327 . S
C2249 H2272 0.950 . S
C2250 C2249 1.349 . S
C2250 C2262 1.349 . S
C2251 C2249 1.327 . S
C2251 C2267 1.429 . S
C2251 H2273 0.950 . S
C2252 H2248 0.949 . S
C2252 C2260 1.574 . S
C2252 C2268 1.368 . S
H2253 C2261 0.950 . S
H2254 C2259 0.950 . S
H2255 C2260 0.949 . S
H2256 C2262 0.950 . S
H2257 C2263 0.950 . S
H2258 C2264 0.949 . S
C2259 H2254 0.950 . S
C2259 C2261 1.327 . S
C2259 C2265 1.429 . S
C2260 C2252 1.574 . S
C2260 H2255 0.949 . S
C2260 C2266 1.368 . S
C2261 C2245 1.349 . S
C2261 H2253 0.950 . S
C2261 C2259 1.327 . S
C2262 C2250 1.349 . S
C2262 H2256 0.950 . S
C2262 C2263 1.327 . S
C2263 H2257 0.950 . S
C2263 C2262 1.327 . S
C2263 C2267 1.429 . S
C2264 C2247 1.574 . S
C2264 H2258 0.949 . S
C2264 C2268 1.368 . S
C2265 C2246 1.429 . S
C2265 C2259 1.429 . S
C2265 C2266 1.523 . S
C2266 C2247 1.368 . S
C2266 C2260 1.368 . S
C2266 C2265 1.523 . S
C2267 C2251 1.429 . S
C2267 C2263 1.429 . S
C2267 C2268 1.523 . S
C2268 C2252 1.368 . S
C2268 C2264 1.368 . S
C2268 C2267 1.523 . S
H2269 C2244 0.950 . S
H2270 C2246 0.950 . S
H2271 C2247 0.949 . S
H2272 C2249 0.950 . S
H2273 C2251 0.950 . S
C2274 C2275 1.349 . S
C2274 C2276 1.327 . S
C2274 H2299 0.950 . S
C2275 C2274 1.349 . S
C2275 C2291 1.349 . S
C2276 C2274 1.327 . S
C2276 C2295 1.429 . S
C2276 H2300 0.950 . S
C2277 C2294 1.574 . S
C2277 C2296 1.368 . S
C2277 H2301 0.949 . S
H2278 C2282 0.949 . S
C2279 C2280 1.349 . S
C2279 C2281 1.327 . S
C2279 H2302 0.950 . S
C2280 C2279 1.349 . S
C2280 C2292 1.349 . S
C2281 C2279 1.327 . S
C2281 C2297 1.429 . S
C2281 H2303 0.950 . S
C2282 H2278 0.949 . S
C2282 C2290 1.574 . S
C2282 C2298 1.368 . S
H2283 C2291 0.950 . S
H2284 C2289 0.950 . S
H2285 C2290 0.949 . S
H2286 C2292 0.950 . S
H2287 C2293 0.950 . S
H2288 C2294 0.949 . S
C2289 H2284 0.950 . S
C2289 C2291 1.327 . S
C2289 C2295 1.429 . S
C2290 C2282 1.574 . S
C2290 H2285 0.949 . S
C2290 C2296 1.368 . S
C2291 C2275 1.349 . S
C2291 H2283 0.950 . S
C2291 C2289 1.327 . S
C2292 C2280 1.349 . S
C2292 H2286 0.950 . S
C2292 C2293 1.327 . S
C2293 H2287 0.950 . S
C2293 C2292 1.327 . S
C2293 C2297 1.429 . S
C2294 C2277 1.574 . S
C2294 H2288 0.949 . S
C2294 C2298 1.368 . S
C2295 C2276 1.429 . S
C2295 C2289 1.429 . S
C2295 C2296 1.523 . S
C2296 C2277 1.368 . S
C2296 C2290 1.368 . S
C2296 C2295 1.523 . S
C2297 C2281 1.429 . S
C2297 C2293 1.429 . S
C2297 C2298 1.523 . S
C2298 C2282 1.368 . S
C2298 C2294 1.368 . S
C2298 C2297 1.523 . S
H2299 C2274 0.950 . S
H2300 C2276 0.950 . S
H2301 C2277 0.949 . S
H2302 C2279 0.950 . S
H2303 C2281 0.950 . S
C2304 C2305 1.349 . S
C2304 C2306 1.327 . S
C2304 H2329 0.950 . S
C2305 C2304 1.349 . S
C2305 C2321 1.349 . S
C2306 C2304 1.327 . S
C2306 C2325 1.429 . S
C2306 H2330 0.950 . S
C2307 C2324 1.574 . S
C2307 C2326 1.368 . S
C2307 H2331 0.949 . S
H2308 C2312 0.949 . S
C2309 C2310 1.349 . S
C2309 C2311 1.327 . S
C2309 H2332 0.950 . S
C2310 C2309 1.349 . S
C2310 C2322 1.349 . S
C2311 C2309 1.327 . S
C2311 C2327 1.429 . S
C2311 H2333 0.950 . S
C2312 H2308 0.949 . S
C2312 C2320 1.574 . S
C2312 C2328 1.368 . S
H2313 C2321 0.950 . S
H2314 C2319 0.950 . S
H2315 C2320 0.949 . S
H2316 C2322 0.950 . S
H2317 C2323 0.950 . S
H2318 C2324 0.949 . S
C2319 H2314 0.950 . S
C2319 C2321 1.327 . S
C2319 C2325 1.429 . S
C2320 C2312 1.574 . S
C2320 H2315 0.949 . S
C2320 C2326 1.368 . S
C2321 C2305 1.349 . S
C2321 H2313 0.950 . S
C2321 C2319 1.327 . S
C2322 C2310 1.349 . S
C2322 H2316 0.950 . S
C2322 C2323 1.327 . S
C2323 H2317 0.950 . S
C2323 C2322 1.327 . S
C2323 C2327 1.429 . S
C2324 C2307 1.574 . S
C2324 H2318 0.949 . S
C2324 C2328 1.368 . S
C2325 C2306 1.429 . S
C2325 C2319 1.429 . S
C2325 C2326 1.523 . S
C2326 C2307 1.368 . S
C2326 C2320 1.368 . S
C2326 C2325 1.523 . S
C2327 C2311 1.429 . S
C2327 C2323 1.429 . S
C2327 C2328 1.523 . S
C2328 C2312 1.368 . S
C2328 C2324 1.368 . S
C2328 C2327 1.523 . S
H2329 C2304 0.950 . S
H2330 C2306 0.950 . S
H2331 C2307 0.949 . S
H2332 C2309 0.950 . S
H2333 C2311 0.950 . S
C2334 C2335 1.349 . S
C2334 C2336 1.327 . S
C2334 H2359 0.950 . S
C2335 C2334 1.349 . S
C2335 C2351 1.349 . S
C2336 C2334 1.327 . S
C2336 C2355 1.429 . S
C2336 H2360 0.950 . S
C2337 C2354 1.574 . S
C2337 C2356 1.368 . S
C2337 H2361 0.949 . S
H2338 C2342 0.949 . S
C2339 C2340 1.349 . S
C2339 C2341 1.327 . S
C2339 H2362 0.950 . S
C2340 C2339 1.349 . S
C2340 C2352 1.349 . S
C2341 C2339 1.327 . S
C2341 C2357 1.429 . S
C2341 H2363 0.950 . S
C2342 H2338 0.949 . S
C2342 C2350 1.574 . S
C2342 C2358 1.368 . S
H2343 C2351 0.950 . S
H2344 C2349 0.950 . S
H2345 C2350 0.949 . S
H2346 C2352 0.950 . S
H2347 C2353 0.950 . S
H2348 C2354 0.949 . S
C2349 H2344 0.950 . S
C2349 C2351 1.327 . S
C2349 C2355 1.429 . S
C2350 C2342 1.574 . S
C2350 H2345 0.949 . S
C2350 C2356 1.368 . S
C2351 C2335 1.349 . S
C2351 H2343 0.950 . S
C2351 C2349 1.327 . S
C2352 C2340 1.349 . S
C2352 H2346 0.950 . S
C2352 C2353 1.327 . S
C2353 H2347 0.950 . S
C2353 C2352 1.327 . S
C2353 C2357 1.429 . S
C2354 C2337 1.574 . S
C2354 H2348 0.949 . S
C2354 C2358 1.368 . S
C2355 C2336 1.429 . S
C2355 C2349 1.429 . S
C2355 C2356 1.523 . S
C2356 C2337 1.368 . S
C2356 C2350 1.368 . S
C2356 C2355 1.523 . S
C2357 C2341 1.429 . S
C2357 C2353 1.429 . S
C2357 C2358 1.523 . S
C2358 C2342 1.368 . S
C2358 C2354 1.368 . S
C2358 C2357 1.523 . S
H2359 C2334 0.950 . S
H2360 C2336 0.950 . S
H2361 C2337 0.949 . S
H2362 C2339 0.950 . S
H2363 C2341 0.950 . S
C2364 C2365 1.349 . S
C2364 C2366 1.327 . S
C2364 H2389 0.950 . S
C2365 C2364 1.349 . S
C2365 C2381 1.349 . S
C2366 C2364 1.327 . S
C2366 C2385 1.429 . S
C2366 H2390 0.950 . S
C2367 C2384 1.574 . S
C2367 C2386 1.368 . S
C2367 H2391 0.949 . S
H2368 C2372 0.949 . S
C2369 C2370 1.349 . S
C2369 C2371 1.327 . S
C2369 H2392 0.950 . S
C2370 C2369 1.349 . S
C2370 C2382 1.349 . S
C2371 C2369 1.327 . S
C2371 C2387 1.429 . S
C2371 H2393 0.950 . S
C2372 H2368 0.949 . S
C2372 C2380 1.574 . S
C2372 C2388 1.368 . S
H2373 C2381 0.950 . S
H2374 C2379 0.950 . S
H2375 C2380 0.949 . S
H2376 C2382 0.950 . S
H2377 C2383 0.950 . S
H2378 C2384 0.949 . S
C2379 H2374 0.950 . S
C2379 C2381 1.327 . S
C2379 C2385 1.429 . S
C2380 C2372 1.574 . S
C2380 H2375 0.949 . S
C2380 C2386 1.368 . S
C2381 C2365 1.349 . S
C2381 H2373 0.950 . S
C2381 C2379 1.327 . S
C2382 C2370 1.349 . S
C2382 H2376 0.950 . S
C2382 C2383 1.327 . S
C2383 H2377 0.950 . S
C2383 C2382 1.327 . S
C2383 C2387 1.429 . S
C2384 C2367 1.574 . S
C2384 H2378 0.949 . S
C2384 C2388 1.368 . S
C2385 C2366 1.429 . S
C2385 C2379 1.429 . S
C2385 C2386 1.523 . S
C2386 C2367 1.368 . S
C2386 C2380 1.368 . S
C2386 C2385 1.523 . S
C2387 C2371 1.429 . S
C2387 C2383 1.429 . S
C2387 C2388 1.523 . S
C2388 C2372 1.368 . S
C2388 C2384 1.368 . S
C2388 C2387 1.523 . S
H2389 C2364 0.950 . S
H2390 C2366 0.950 . S
H2391 C2367 0.949 . S
H2392 C2369 0.950 . S
H2393 C2371 0.950 . S
C2394 C2395 1.349 . S
C2394 C2396 1.327 . S
C2394 H2419 0.950 . S
C2395 C2394 1.349 . S
C2395 C2411 1.349 . S
C2396 C2394 1.327 . S
C2396 C2415 1.429 . S
C2396 H2420 0.950 . S
C2397 C2414 1.574 . S
C2397 C2416 1.368 . S
C2397 H2421 0.949 . S
H2398 C2402 0.949 . S
C2399 C2400 1.349 . S
C2399 C2401 1.327 . S
C2399 H2422 0.950 . S
C2400 C2399 1.349 . S
C2400 C2412 1.349 . S
C2401 C2399 1.327 . S
C2401 C2417 1.429 . S
C2401 H2423 0.950 . S
C2402 H2398 0.949 . S
C2402 C2410 1.574 . S
C2402 C2418 1.368 . S
H2403 C2411 0.950 . S
H2404 C2409 0.950 . S
H2405 C2410 0.949 . S
H2406 C2412 0.950 . S
H2407 C2413 0.950 . S
H2408 C2414 0.949 . S
C2409 H2404 0.950 . S
C2409 C2411 1.327 . S
C2409 C2415 1.429 . S
C2410 C2402 1.574 . S
C2410 H2405 0.949 . S
C2410 C2416 1.368 . S
C2411 C2395 1.349 . S
C2411 H2403 0.950 . S
C2411 C2409 1.327 . S
C2412 C2400 1.349 . S
C2412 H2406 0.950 . S
C2412 C2413 1.327 . S
C2413 H2407 0.950 . S
C2413 C2412 1.327 . S
C2413 C2417 1.429 . S
C2414 C2397 1.574 . S
C2414 H2408 0.949 . S
C2414 C2418 1.368 . S
C2415 C2396 1.429 . S
C2415 C2409 1.429 . S
C2415 C2416 1.523 . S
C2416 C2397 1.368 . S
C2416 C2410 1.368 . S
C2416 C2415 1.523 . S
C2417 C2401 1.429 . S
C2417 C2413 1.429 . S
C2417 C2418 1.523 . S
C2418 C2402 1.368 . S
C2418 C2414 1.368 . S
C2418 C2417 1.523 . S
H2419 C2394 0.950 . S
H2420 C2396 0.950 . S
H2421 C2397 0.949 . S
H2422 C2399 0.950 . S
H2423 C2401 0.950 . S
C2424 C2425 1.349 . S
C2424 C2426 1.327 . S
C2424 H2449 0.950 . S
C2425 C2424 1.349 . S
C2425 C2441 1.349 . S
C2426 C2424 1.327 . S
C2426 C2445 1.429 . S
C2426 H2450 0.950 . S
C2427 C2444 1.574 . S
C2427 C2446 1.368 . S
C2427 H2451 0.949 . S
H2428 C2432 0.949 . S
C2429 C2430 1.349 . S
C2429 C2431 1.327 . S
C2429 H2452 0.950 . S
C2430 C2429 1.349 . S
C2430 C2442 1.349 . S
C2431 C2429 1.327 . S
C2431 C2447 1.429 . S
C2431 H2453 0.950 . S
C2432 H2428 0.949 . S
C2432 C2440 1.574 . S
C2432 C2448 1.368 . S
H2433 C2441 0.950 . S
H2434 C2439 0.950 . S
H2435 C2440 0.949 . S
H2436 C2442 0.950 . S
H2437 C2443 0.950 . S
H2438 C2444 0.949 . S
C2439 H2434 0.950 . S
C2439 C2441 1.327 . S
C2439 C2445 1.429 . S
C2440 C2432 1.574 . S
C2440 H2435 0.949 . S
C2440 C2446 1.368 . S
C2441 C2425 1.349 . S
C2441 H2433 0.950 . S
C2441 C2439 1.327 . S
C2442 C2430 1.349 . S
C2442 H2436 0.950 . S
C2442 C2443 1.327 . S
C2443 H2437 0.950 . S
C2443 C2442 1.327 . S
C2443 C2447 1.429 . S
C2444 C2427 1.574 . S
C2444 H2438 0.949 . S
C2444 C2448 1.368 . S
C2445 C2426 1.429 . S
C2445 C2439 1.429 . S
C2445 C2446 1.523 . S
C2446 C2427 1.368 . S
C2446 C2440 1.368 . S
C2446 C2445 1.523 . S
C2447 C2431 1.429 . S
C2447 C2443 1.429 . S
C2447 C2448 1.523 . S
C2448 C2432 1.368 . S
C2448 C2444 1.368 . S
C2448 C2447 1.523 . S
H2449 C2424 0.950 . S
H2450 C2426 0.950 . S
H2451 C2427 0.949 . S
H2452 C2429 0.950 . S
H2453 C2431 0.950 . S
C2454 C2455 1.349 . S
C2454 C2456 1.327 . S
C2454 H2479 0.950 . S
C2455 C2454 1.349 . S
C2455 C2471 1.349 . S
C2456 C2454 1.327 . S
C2456 C2475 1.429 . S
C2456 H2480 0.950 . S
C2457 C2474 1.574 . S
C2457 C2476 1.368 . S
C2457 H2481 0.949 . S
H2458 C2462 0.949 . S
C2459 C2460 1.349 . S
C2459 C2461 1.327 . S
C2459 H2482 0.950 . S
C2460 C2459 1.349 . S
C2460 C2472 1.349 . S
C2461 C2459 1.327 . S
C2461 C2477 1.429 . S
C2461 H2483 0.950 . S
C2462 H2458 0.949 . S
C2462 C2470 1.574 . S
C2462 C2478 1.368 . S
H2463 C2471 0.950 . S
H2464 C2469 0.950 . S
H2465 C2470 0.949 . S
H2466 C2472 0.950 . S
H2467 C2473 0.950 . S
H2468 C2474 0.949 . S
C2469 H2464 0.950 . S
C2469 C2471 1.327 . S
C2469 C2475 1.429 . S
C2470 C2462 1.574 . S
C2470 H2465 0.949 . S
C2470 C2476 1.368 . S
C2471 C2455 1.349 . S
C2471 H2463 0.950 . S
C2471 C2469 1.327 . S
C2472 C2460 1.349 . S
C2472 H2466 0.950 . S
C2472 C2473 1.327 . S
C2473 H2467 0.950 . S
C2473 C2472 1.327 . S
C2473 C2477 1.429 . S
C2474 C2457 1.574 . S
C2474 H2468 0.949 . S
C2474 C2478 1.368 . S
C2475 C2456 1.429 . S
C2475 C2469 1.429 . S
C2475 C2476 1.523 . S
C2476 C2457 1.368 . S
C2476 C2470 1.368 . S
C2476 C2475 1.523 . S
C2477 C2461 1.429 . S
C2477 C2473 1.429 . S
C2477 C2478 1.523 . S
C2478 C2462 1.368 . S
C2478 C2474 1.368 . S
C2478 C2477 1.523 . S
H2479 C2454 0.950 . S
H2480 C2456 0.950 . S
H2481 C2457 0.949 . S
H2482 C2459 0.950 . S
H2483 C2461 0.950 . S
C2484 C2485 1.349 . S
C2484 C2486 1.327 . S
C2484 H2509 0.950 . S
C2485 C2484 1.349 . S
C2485 C2501 1.349 . S
C2486 C2484 1.327 . S
C2486 C2505 1.429 . S
C2486 H2510 0.950 . S
C2487 C2504 1.574 . S
C2487 C2506 1.368 . S
C2487 H2511 0.949 . S
H2488 C2492 0.949 . S
C2489 C2490 1.349 . S
C2489 C2491 1.327 . S
C2489 H2512 0.950 . S
C2490 C2489 1.349 . S
C2490 C2502 1.349 . S
C2491 C2489 1.327 . S
C2491 C2507 1.429 . S
C2491 H2513 0.950 . S
C2492 H2488 0.949 . S
C2492 C2500 1.574 . S
C2492 C2508 1.368 . S
H2493 C2501 0.950 . S
H2494 C2499 0.950 . S
H2495 C2500 0.949 . S
H2496 C2502 0.950 . S
H2497 C2503 0.950 . S
H2498 C2504 0.949 . S
C2499 H2494 0.950 . S
C2499 C2501 1.327 . S
C2499 C2505 1.429 . S
C2500 C2492 1.574 . S
C2500 H2495 0.949 . S
C2500 C2506 1.368 . S
C2501 C2485 1.349 . S
C2501 H2493 0.950 . S
C2501 C2499 1.327 . S
C2502 C2490 1.349 . S
C2502 H2496 0.950 . S
C2502 C2503 1.327 . S
C2503 H2497 0.950 . S
C2503 C2502 1.327 . S
C2503 C2507 1.429 . S
C2504 C2487 1.574 . S
C2504 H2498 0.949 . S
C2504 C2508 1.368 . S
C2505 C2486 1.429 . S
C2505 C2499 1.429 . S
C2505 C2506 1.523 . S
C2506 C2487 1.368 . S
C2506 C2500 1.368 . S
C2506 C2505 1.523 . S
C2507 C2491 1.429 . S
C2507 C2503 1.429 . S
C2507 C2508 1.523 . S
C2508 C2492 1.368 . S
C2508 C2504 1.368 . S
C2508 C2507 1.523 . S
H2509 C2484 0.950 . S
H2510 C2486 0.950 . S
H2511 C2487 0.949 . S
H2512 C2489 0.950 . S
H2513 C2491 0.950 . S
C2514 C2515 1.349 . S
C2514 C2516 1.327 . S
C2514 H2539 0.950 . S
C2515 C2514 1.349 . S
C2515 C2531 1.349 . S
C2516 C2514 1.327 . S
C2516 C2535 1.429 . S
C2516 H2540 0.950 . S
C2517 C2534 1.574 . S
C2517 C2536 1.368 . S
C2517 H2541 0.949 . S
H2518 C2522 0.949 . S
C2519 C2520 1.349 . S
C2519 C2521 1.327 . S
C2519 H2542 0.950 . S
C2520 C2519 1.349 . S
C2520 C2532 1.349 . S
C2521 C2519 1.327 . S
C2521 C2537 1.429 . S
C2521 H2543 0.950 . S
C2522 H2518 0.949 . S
C2522 C2530 1.574 . S
C2522 C2538 1.368 . S
H2523 C2531 0.950 . S
H2524 C2529 0.950 . S
H2525 C2530 0.949 . S
H2526 C2532 0.950 . S
H2527 C2533 0.950 . S
H2528 C2534 0.949 . S
C2529 H2524 0.950 . S
C2529 C2531 1.327 . S
C2529 C2535 1.429 . S
C2530 C2522 1.574 . S
C2530 H2525 0.949 . S
C2530 C2536 1.368 . S
C2531 C2515 1.349 . S
C2531 H2523 0.950 . S
C2531 C2529 1.327 . S
C2532 C2520 1.349 . S
C2532 H2526 0.950 . S
C2532 C2533 1.327 . S
C2533 H2527 0.950 . S
C2533 C2532 1.327 . S
C2533 C2537 1.429 . S
C2534 C2517 1.574 . S
C2534 H2528 0.949 . S
C2534 C2538 1.368 . S
C2535 C2516 1.429 . S
C2535 C2529 1.429 . S
C2535 C2536 1.523 . S
C2536 C2517 1.368 . S
C2536 C2530 1.368 . S
C2536 C2535 1.523 . S
C2537 C2521 1.429 . S
C2537 C2533 1.429 . S
C2537 C2538 1.523 . S
C2538 C2522 1.368 . S
C2538 C2534 1.368 . S
C2538 C2537 1.523 . S
H2539 C2514 0.950 . S
H2540 C2516 0.950 . S
H2541 C2517 0.949 . S
H2542 C2519 0.950 . S
H2543 C2521 0.950 . S
C2544 C2545 1.349 . S
C2544 C2546 1.327 . S
C2544 H2569 0.950 . S
C2545 C2544 1.349 . S
C2545 C2561 1.349 . S
C2546 C2544 1.327 . S
C2546 C2565 1.429 . S
C2546 H2570 0.950 . S
C2547 C2564 1.574 . S
C2547 C2566 1.368 . S
C2547 H2571 0.949 . S
H2548 C2552 0.949 . S
C2549 C2550 1.349 . S
C2549 C2551 1.327 . S
C2549 H2572 0.950 . S
C2550 C2549 1.349 . S
C2550 C2562 1.349 . S
C2551 C2549 1.327 . S
C2551 C2567 1.429 . S
C2551 H2573 0.950 . S
C2552 H2548 0.949 . S
C2552 C2560 1.574 . S
C2552 C2568 1.368 . S
H2553 C2561 0.950 . S
H2554 C2559 0.950 . S
H2555 C2560 0.949 . S
H2556 C2562 0.950 . S
H2557 C2563 0.950 . S
H2558 C2564 0.949 . S
C2559 H2554 0.950 . S
C2559 C2561 1.327 . S
C2559 C2565 1.429 . S
C2560 C2552 1.574 . S
C2560 H2555 0.949 . S
C2560 C2566 1.368 . S
C2561 C2545 1.349 . S
C2561 H2553 0.950 . S
C2561 C2559 1.327 . S
C2562 C2550 1.349 . S
C2562 H2556 0.950 . S
C2562 C2563 1.327 . S
C2563 H2557 0.950 . S
C2563 C2562 1.327 . S
C2563 C2567 1.429 . S
C2564 C2547 1.574 . S
C2564 H2558 0.949 . S
C2564 C2568 1.368 . S
C2565 C2546 1.429 . S
C2565 C2559 1.429 . S
C2565 C2566 1.523 . S
C2566 C2547 1.368 . S
C2566 C2560 1.368 . S
C2566 C2565 1.523 . S
C2567 C2551 1.429 . S
C2567 C2563 1.429 . S
C2567 C2568 1.523 . S
C2568 C2552 1.368 . S
C2568 C2564 1.368 . S
C2568 C2567 1.523 . S
H2569 C2544 0.950 . S
H2570 C2546 0.950 . S
H2571 C2547 0.949 . S
H2572 C2549 0.950 . S
H2573 C2551 0.950 . S
C2574 C2575 1.349 . S
C2574 C2576 1.327 . S
C2574 H2599 0.950 . S
C2575 C2574 1.349 . S
C2575 C2591 1.349 . S
C2576 C2574 1.327 . S
C2576 C2595 1.429 . S
C2576 H2600 0.950 . S
C2577 C2594 1.574 . S
C2577 C2596 1.368 . S
C2577 H2601 0.949 . S
H2578 C2582 0.949 . S
C2579 C2580 1.349 . S
C2579 C2581 1.327 . S
C2579 H2602 0.950 . S
C2580 C2579 1.349 . S
C2580 C2592 1.349 . S
C2581 C2579 1.327 . S
C2581 C2597 1.429 . S
C2581 H2603 0.950 . S
C2582 H2578 0.949 . S
C2582 C2590 1.574 . S
C2582 C2598 1.368 . S
H2583 C2591 0.950 . S
H2584 C2589 0.950 . S
H2585 C2590 0.949 . S
H2586 C2592 0.950 . S
H2587 C2593 0.950 . S
H2588 C2594 0.949 . S
C2589 H2584 0.950 . S
C2589 C2591 1.327 . S
C2589 C2595 1.429 . S
C2590 C2582 1.574 . S
C2590 H2585 0.949 . S
C2590 C2596 1.368 . S
C2591 C2575 1.349 . S
C2591 H2583 0.950 . S
C2591 C2589 1.327 . S
C2592 C2580 1.349 . S
C2592 H2586 0.950 . S
C2592 C2593 1.327 . S
C2593 H2587 0.950 . S
C2593 C2592 1.327 . S
C2593 C2597 1.429 . S
C2594 C2577 1.574 . S
C2594 H2588 0.949 . S
C2594 C2598 1.368 . S
C2595 C2576 1.429 . S
C2595 C2589 1.429 . S
C2595 C2596 1.523 . S
C2596 C2577 1.368 . S
C2596 C2590 1.368 . S
C2596 C2595 1.523 . S
C2597 C2581 1.429 . S
C2597 C2593 1.429 . S
C2597 C2598 1.523 . S
C2598 C2582 1.368 . S
C2598 C2594 1.368 . S
C2598 C2597 1.523 . S
H2599 C2574 0.950 . S
H2600 C2576 0.950 . S
H2601 C2577 0.949 . S
H2602 C2579 0.950 . S
H2603 C2581 0.950 . S
C2604 C2605 1.349 . S
C2604 C2606 1.327 . S
C2604 H2629 0.950 . S
C2605 C2604 1.349 . S
C2605 C2621 1.349 . S
C2606 C2604 1.327 . S
C2606 C2625 1.429 . S
C2606 H2630 0.950 . S
C2607 C2624 1.574 . S
C2607 C2626 1.368 . S
C2607 H2631 0.949 . S
H2608 C2612 0.949 . S
C2609 C2610 1.349 . S
C2609 C2611 1.327 . S
C2609 H2632 0.950 . S
C2610 C2609 1.349 . S
C2610 C2622 1.349 . S
C2611 C2609 1.327 . S
C2611 C2627 1.429 . S
C2611 H2633 0.950 . S
C2612 H2608 0.949 . S
C2612 C2620 1.574 . S
C2612 C2628 1.368 . S
H2613 C2621 0.950 . S
H2614 C2619 0.950 . S
H2615 C2620 0.949 . S
H2616 C2622 0.950 . S
H2617 C2623 0.950 . S
H2618 C2624 0.949 . S
C2619 H2614 0.950 . S
C2619 C2621 1.327 . S
C2619 C2625 1.429 . S
C2620 C2612 1.574 . S
C2620 H2615 0.949 . S
C2620 C2626 1.368 . S
C2621 C2605 1.349 . S
C2621 H2613 0.950 . S
C2621 C2619 1.327 . S
C2622 C2610 1.349 . S
C2622 H2616 0.950 . S
C2622 C2623 1.327 . S
C2623 H2617 0.950 . S
C2623 C2622 1.327 . S
C2623 C2627 1.429 . S
C2624 C2607 1.574 . S
C2624 H2618 0.949 . S
C2624 C2628 1.368 . S
C2625 C2606 1.429 . S
C2625 C2619 1.429 . S
C2625 C2626 1.523 . S
C2626 C2607 1.368 . S
C2626 C2620 1.368 . S
C2626 C2625 1.523 . S
C2627 C2611 1.429 . S
C2627 C2623 1.429 . S
C2627 C2628 1.523 . S
C2628 C2612 1.368 . S
C2628 C2624 1.368 . S
C2628 C2627 1.523 . S
H2629 C2604 0.950 . S
H2630 C2606 0.950 . S
H2631 C2607 0.949 . S
H2632 C2609 0.950 . S
H2633 C2611 0.950 . S
C2634 C2635 1.349 . S
C2634 C2636 1.327 . S
C2634 H2659 0.950 . S
C2635 C2634 1.349 . S
C2635 C2651 1.349 . S
C2636 C2634 1.327 . S
C2636 C2655 1.429 . S
C2636 H2660 0.950 . S
C2637 C2654 1.574 . S
C2637 C2656 1.368 . S
C2637 H2661 0.949 . S
H2638 C2642 0.949 . S
C2639 C2640 1.349 . S
C2639 C2641 1.327 . S
C2639 H2662 0.950 . S
C2640 C2639 1.349 . S
C2640 C2652 1.349 . S
C2641 C2639 1.327 . S
C2641 C2657 1.429 . S
C2641 H2663 0.950 . S
C2642 H2638 0.949 . S
C2642 C2650 1.574 . S
C2642 C2658 1.368 . S
H2643 C2651 0.950 . S
H2644 C2649 0.950 . S
H2645 C2650 0.949 . S
H2646 C2652 0.950 . S
H2647 C2653 0.950 . S
H2648 C2654 0.949 . S
C2649 H2644 0.950 . S
C2649 C2651 1.327 . S
C2649 C2655 1.429 . S
C2650 C2642 1.574 . S
C2650 H2645 0.949 . S
C2650 C2656 1.368 . S
C2651 C2635 1.349 . S
C2651 H2643 0.950 . S
C2651 C2649 1.327 . S
C2652 C2640 1.349 . S
C2652 H2646 0.950 . S
C2652 C2653 1.327 . S
C2653 H2647 0.950 . S
C2653 C2652 1.327 . S
C2653 C2657 1.429 . S
C2654 C2637 1.574 . S
C2654 H2648 0.949 . S
C2654 C2658 1.368 . S
C2655 C2636 1.429 . S
C2655 C2649 1.429 . S
C2655 C2656 1.523 . S
C2656 C2637 1.368 . S
C2656 C2650 1.368 . S
C2656 C2655 1.523 . S
C2657 C2641 1.429 . S
C2657 C2653 1.429 . S
C2657 C2658 1.523 . S
C2658 C2642 1.368 . S
C2658 C2654 1.368 . S
C2658 C2657 1.523 . S
H2659 C2634 0.950 . S
H2660 C2636 0.950 . S
H2661 C2637 0.949 . S
H2662 C2639 0.950 . S
H2663 C2641 0.950 . S
C505 C81 1.594 . S
C510 C11 1.594 . S
C535 C53 1.594 . S
C540 C25 1.594 . S
C565 C39 1.594 . S
C570 C67 1.594 . S
C595 C95 1.594 . S
C600 C165 1.594 . S
C625 C109 1.594 . S
C630 C137 1.594 . S
C655 C151 1.594 . S
C660 C123 1.594 . S
C685 C179 1.594 . S
C690 C249 1.594 1_556 S
C715 C193 1.594 . S
C720 C221 1.594 1_556 S
C745 C207 1.593 . S
C750 C235 1.593 1_556 S
C775 C333 1.594 . S
C780 C263 1.594 1_556 S
C805 C277 1.594 1_556 S
C810 C305 1.594 . S
C835 C319 1.594 . S
C840 C291 1.594 1_556 S
C865 C417 1.594 . S
C870 C347 1.594 1_554 S
C895 C389 1.594 . S
C900 C361 1.594 1_554 S
C925 C403 1.594 . S
C930 C375 1.594 1_554 S
C955 C431 1.594 . S
C960 C501 1.594 1_554 S
C985 C445 1.594 . S
C990 C473 1.594 1_554 S
C1015 C459 1.594 . S
C1020 C487 1.594 1_554 S
C1045 C82 0.911 . S
C1050 C12 0.911 . S
C1075 C26 0.910 . S
C1080 C54 0.910 . S
C1105 C68 0.910 . S
C1110 C40 0.910 . S
C1135 C96 0.910 . S
C1140 C166 0.910 . S
C1165 C110 0.910 . S
C1170 C138 0.910 . S
C1195 C152 0.910 . S
C1200 C124 0.910 . S
C1225 C180 0.910 . S
C1230 C250 0.910 . S
C1255 C222 0.910 . S
C1260 C194 0.910 . S
C1285 C236 0.911 . S
C1290 C208 0.911 . S
C1315 C264 0.910 . S
C1320 C334 0.910 . S
C1345 C278 0.910 . S
C1350 C306 0.910 . S
C1375 C320 0.911 . S
C1380 C292 0.911 . S
C1405 C418 0.911 . S
C1410 C348 0.911 . S
C1435 C362 0.910 . S
C1440 C390 0.910 . S
C1465 C376 0.911 . S
C1470 C404 0.911 . S
C1495 C502 0.910 . S
C1500 C432 0.910 . S
C1525 C474 0.911 . S
C1530 C446 0.911 . S
C1555 C488 0.911 . S
C1560 C460 0.911 . S
C1585 C228 1.497 . S
C1590 C4 1.497 . S
C1615 C242 1.497 . S
C1620 C18 1.497 . S
C1645 C214 1.497 . S
C1650 C32 1.497 . S
C1675 C46 1.497 . S
C1680 C368 1.497 . S
C1705 C60 1.497 . S
C1710 C340 1.497 . S
C1735 C74 1.497 . S
C1740 C354 1.497 . S
C1765 C88 1.497 . S
C1770 C480 1.497 . S
C1795 C102 1.497 . S
C1800 C494 1.497 . S
C1825 C116 1.497 . S
C1830 C466 1.497 . S
C1855 C130 1.497 . S
C1860 C284 1.497 . S
C1885 C256 1.497 . S
C1890 C144 1.497 . S
C1915 C270 1.497 . S
C1920 C158 1.497 . S
C1945 C396 1.497 . S
C1950 C172 1.497 . S
C1975 C186 1.497 . S
C1980 C410 1.497 . S
C2005 C200 1.497 . S
C2010 C382 1.497 . S
C2035 C298 1.497 . S
C2040 C452 1.497 . S
C2065 C312 1.497 . S
C2070 C424 1.497 . S
C2095 C438 1.497 . S
C2100 C326 1.497 . S
C2125 C5 1.248 . S
C2130 C145 1.248 . S
C2155 C159 1.248 . S
C2160 C19 1.248 . S
C2185 C131 1.249 . S
C2190 C33 1.249 . S
C2215 C47 1.249 . S
C2220 C117 1.249 . S
C2245 C61 1.249 . S
C2250 C89 1.249 . S
C2275 C75 1.248 . S
C2280 C103 1.248 . S
C2305 C173 1.248 . S
C2310 C313 1.248 . S
C2335 C327 1.249 . S
C2340 C187 1.249 . S
C2365 C299 1.249 . S
C2370 C201 1.249 . S
C2395 C215 1.249 . S
C2400 C285 1.249 . S
C2425 C229 1.249 . S
C2430 C257 1.249 . S
C2455 C271 1.248 . S
C2460 C243 1.248 . S
C2485 C341 1.249 . S
C2490 C481 1.249 . S
C2515 C495 1.248 . S
C2520 C355 1.248 . S
C2545 C369 1.248 . S
C2550 C467 1.248 . S
C2575 C383 1.249 . S
C2580 C453 1.249 . S
C2605 C425 1.249 . S
C2610 C397 1.249 . S
C2635 C411 1.249 . S
C2640 C439 1.249 . S
