# Generated by pormake.
# Topology srs-a, (3)-cn, num edge types: 1
# Building blocks:
#     Node 0, Type 0, BuildingBlock: WUSLED_clean_sbu_0, # of connection points: 3
#     Node 1, Type 0, BuildingBlock: WUSLED_clean_sbu_0, # of connection points: 3
#     Node 2, Type 0, BuildingBlock: WUSLED_clean_sbu_0, # of connection points: 3
#     Node 3, Type 0, BuildingBlock: WUSLED_clean_sbu_0, # of connection points: 3
#     Node 4, Type 0, BuildingBlock: WUSLED_clean_sbu_0, # of connection points: 3
#     Node 5, Type 0, BuildingBlock: WUSLED_clean_sbu_0, # of connection points: 3
#     Node 6, Type 0, BuildingBlock: WUSLED_clean_sbu_0, # of connection points: 3
#     Node 7, Type 0, BuildingBlock: WUSLED_clean_sbu_0, # of connection points: 3
#     Node 8, Type 0, BuildingBlock: WUSLED_clean_sbu_0, # of connection points: 3
#     Node 9, Type 0, BuildingBlock: WUSLED_clean_sbu_0, # of connection points: 3
#     Node 10, Type 0, BuildingBlock: WUSLED_clean_sbu_0, # of connection points: 3
#     Node 11, Type 0, BuildingBlock: WUSLED_clean_sbu_0, # of connection points: 3
#     Node 12, Type 0, BuildingBlock: WUSLED_clean_sbu_0, # of connection points: 3
#     Node 13, Type 0, BuildingBlock: WUSLED_clean_sbu_0, # of connection points: 3
#     Node 14, Type 0, BuildingBlock: WUSLED_clean_sbu_0, # of connection points: 3
#     Node 15, Type 0, BuildingBlock: WUSLED_clean_sbu_0, # of connection points: 3
#     Node 16, Type 0, BuildingBlock: WUSLED_clean_sbu_0, # of connection points: 3
#     Node 17, Type 0, BuildingBlock: WUSLED_clean_sbu_0, # of connection points: 3
#     Node 18, Type 0, BuildingBlock: WUSLED_clean_sbu_0, # of connection points: 3
#     Node 19, Type 0, BuildingBlock: WUSLED_clean_sbu_0, # of connection points: 3
#     Node 20, Type 0, BuildingBlock: WUSLED_clean_sbu_0, # of connection points: 3
#     Node 21, Type 0, BuildingBlock: WUSLED_clean_sbu_0, # of connection points: 3
#     Node 22, Type 0, BuildingBlock: WUSLED_clean_sbu_0, # of connection points: 3
#     Node 23, Type 0, BuildingBlock: WUSLED_clean_sbu_0, # of connection points: 3
#     Edge 24, Type (0, 0), BuildingBlock: TEMPAE_clean_linker_10, # of connection points: 2
#     Edge 25, Type (0, 0), BuildingBlock: TEMPAE_clean_linker_10, # of connection points: 2
#     Edge 26, Type (0, 0), BuildingBlock: TEMPAE_clean_linker_10, # of connection points: 2
#     Edge 27, Type (0, 0), BuildingBlock: TEMPAE_clean_linker_10, # of connection points: 2
#     Edge 28, Type (0, 0), BuildingBlock: TEMPAE_clean_linker_10, # of connection points: 2
#     Edge 29, Type (0, 0), BuildingBlock: TEMPAE_clean_linker_10, # of connection points: 2
#     Edge 30, Type (0, 0), BuildingBlock: TEMPAE_clean_linker_10, # of connection points: 2
#     Edge 31, Type (0, 0), BuildingBlock: TEMPAE_clean_linker_10, # of connection points: 2
#     Edge 32, Type (0, 0), BuildingBlock: TEMPAE_clean_linker_10, # of connection points: 2
#     Edge 33, Type (0, 0), BuildingBlock: TEMPAE_clean_linker_10, # of connection points: 2
#     Edge 34, Type (0, 0), BuildingBlock: TEMPAE_clean_linker_10, # of connection points: 2
#     Edge 35, Type (0, 0), BuildingBlock: TEMPAE_clean_linker_10, # of connection points: 2
#     Edge 36, Type (0, 0), BuildingBlock: TEMPAE_clean_linker_10, # of connection points: 2
#     Edge 37, Type (0, 0), BuildingBlock: TEMPAE_clean_linker_10, # of connection points: 2
#     Edge 38, Type (0, 0), BuildingBlock: TEMPAE_clean_linker_10, # of connection points: 2
#     Edge 39, Type (0, 0), BuildingBlock: TEMPAE_clean_linker_10, # of connection points: 2
#     Edge 40, Type (0, 0), BuildingBlock: TEMPAE_clean_linker_10, # of connection points: 2
#     Edge 41, Type (0, 0), BuildingBlock: TEMPAE_clean_linker_10, # of connection points: 2
#     Edge 42, Type (0, 0), BuildingBlock: TEMPAE_clean_linker_10, # of connection points: 2
#     Edge 43, Type (0, 0), BuildingBlock: TEMPAE_clean_linker_10, # of connection points: 2
#     Edge 44, Type (0, 0), BuildingBlock: TEMPAE_clean_linker_10, # of connection points: 2
#     Edge 45, Type (0, 0), BuildingBlock: TEMPAE_clean_linker_10, # of connection points: 2
#     Edge 46, Type (0, 0), BuildingBlock: TEMPAE_clean_linker_10, # of connection points: 2
#     Edge 47, Type (0, 0), BuildingBlock: TEMPAE_clean_linker_10, # of connection points: 2
#     Edge 48, Type (0, 0), BuildingBlock: TEMPAE_clean_linker_10, # of connection points: 2
#     Edge 49, Type (0, 0), BuildingBlock: TEMPAE_clean_linker_10, # of connection points: 2
#     Edge 50, Type (0, 0), BuildingBlock: TEMPAE_clean_linker_10, # of connection points: 2
#     Edge 51, Type (0, 0), BuildingBlock: TEMPAE_clean_linker_10, # of connection points: 2
#     Edge 52, Type (0, 0), BuildingBlock: TEMPAE_clean_linker_10, # of connection points: 2
#     Edge 53, Type (0, 0), BuildingBlock: TEMPAE_clean_linker_10, # of connection points: 2
#     Edge 54, Type (0, 0), BuildingBlock: TEMPAE_clean_linker_10, # of connection points: 2
#     Edge 55, Type (0, 0), BuildingBlock: TEMPAE_clean_linker_10, # of connection points: 2
#     Edge 56, Type (0, 0), BuildingBlock: TEMPAE_clean_linker_10, # of connection points: 2
#     Edge 57, Type (0, 0), BuildingBlock: TEMPAE_clean_linker_10, # of connection points: 2
#     Edge 58, Type (0, 0), BuildingBlock: TEMPAE_clean_linker_10, # of connection points: 2
#     Edge 59, Type (0, 0), BuildingBlock: TEMPAE_clean_linker_10, # of connection points: 2
# Relax obj value: 0.410
# Max RMSD: 0.288
# Mean RMSD: 0.283
data_MOF--net-srs-a--node1-WUSLED_clean_sbu_0--edge1-TEMPAE_clean_linker_10
_symmetry_space_group_name_H-M    P1
_symmetry_Int_Tables_number       1
_symmetry_cell_setting            triclinic
loop_
_symmetry_equiv_pos_as_xyz
'x, y, z'
_cell_length_a     122.49808
_cell_length_b     106.47535
_cell_length_c     125.19614
_cell_angle_alpha  92.94672
_cell_angle_beta   103.61212
_cell_angle_gamma 101.54149
loop_
_atom_site_label
_atom_site_type_symbol
_atom_site_fract_x
_atom_site_fract_y
_atom_site_fract_z
_atom_type_partial_charge
C0 C 0.02039 0.19847 0.07357 0.0
C1 C 0.03031 0.19415 0.07281 0.0
C2 C 0.02169 0.17254 0.07631 0.0
C3 C 0.03097 0.18137 0.07421 0.0
C4 C 0.01156 0.1768 0.07657 0.0
C5 C 0.01094 0.18967 0.07526 0.0
U6 U 0.03506 0.23116 0.06841 0.0
O7 O 0.0289 0.24804 0.06174 0.0
O8 O 0.04028 0.24982 0.07846 0.0
C9 C 0.03416 0.25554 0.07094 0.0
C10 C 0.02032 0.21228 0.07333 0.0
C11 C 0.02792 0.26448 0.07503 0.0
C12 C 0.02072 0.27303 0.08976 0.0
C13 C 0.02435 0.26301 0.08486 0.0
C14 C 0.02343 0.2857 0.0747 0.0
C15 C 0.02061 0.28468 0.08492 0.0
C16 C 0.02707 0.27572 0.06983 0.0
C17 C 0.06308 0.23096 0.0593 0.0
C18 C 0.07886 0.24938 0.06057 0.0
C19 C 0.08073 0.22791 0.05507 0.0
C20 C 0.06956 0.2229 0.05583 0.0
C21 C 0.08566 0.24118 0.05766 0.0
C22 C 0.06765 0.24429 0.06143 0.0
C23 C 0.05229 0.22491 0.06188 0.0
O24 O 0.02874 0.2199 0.08078 0.0
O25 O 0.01877 0.21649 0.0635 0.0
O26 O 0.04264 0.22581 0.05496 0.0
O27 O 0.05216 0.22671 0.0723 0.0
H28 H 0.03771 0.2008 0.07151 0.0
H29 H 0.03898 0.17858 0.07412 0.0
H30 H 1.00417 0.17026 0.07799 0.0
H31 H 1.0032 0.19281 0.07582 0.0
H32 H 0.01866 0.27193 0.09765 0.0
H33 H 0.02494 0.25443 0.08904 0.0
H34 H 0.02323 0.29443 0.07064 0.0
H35 H 0.02979 0.27705 0.06225 0.0
H36 H 0.0823 0.25965 0.06248 0.0
H37 H 0.08568 0.22119 0.05304 0.0
H38 H 0.06619 0.21258 0.05425 0.0
H39 H 0.06273 0.25065 0.06414 0.0
C40 C 0.06594 0.82921 0.32943 0.0
C41 C 0.07622 0.83778 0.32928 0.0
C42 C 0.06538 0.85293 0.32043 0.0
C43 C 0.07594 0.84953 0.32482 0.0
C44 C 0.0551 0.84398 0.32004 0.0
C45 C 0.05539 0.83223 0.32451 0.0
U46 U 0.08282 0.80667 0.34487 0.0
O47 O 0.08317 0.79978 0.36113 0.0
O48 O 0.07828 0.78578 0.3464 0.0
C49 C 0.07949 0.78762 0.35713 0.0
C50 C 0.06619 0.81778 0.33557 0.0
C51 C 0.07048 0.78013 0.36172 0.0
C52 C 0.05301 0.77821 0.36815 0.0
C53 C 0.06048 0.78446 0.36218 0.0
C54 C 0.06519 0.76296 0.37284 0.0
C55 C 0.05544 0.76758 0.37382 0.0
C56 C 0.07261 0.76918 0.36686 0.0
C57 C 0.1156 0.81529 0.34588 0.0
C58 C 0.13181 0.81028 0.35907 0.0
C59 C 0.13506 0.82269 0.34399 0.0
C60 C 0.12323 0.82167 0.34017 0.0
C61 C 0.13958 0.81725 0.35363 0.0
C62 C 0.11991 0.80934 0.35524 0.0
C63 C 0.10349 0.81628 0.34245 0.0
O64 O 0.06858 0.80783 0.33065 0.0
O65 O 0.0718 0.82033 0.34603 0.0
O66 O 0.09925 0.82081 0.35017 0.0
O67 O 0.09621 0.80675 0.33574 0.0
H68 H 0.08446 0.83562 0.33304 0.0
H69 H 0.08402 0.85623 0.32536 0.0
H70 H 0.04683 0.84624 0.31658 0.0
H71 H 0.04737 0.8257 0.32449 0.0
H72 H 0.04547 0.78189 0.36854 0.0
H73 H 0.05867 0.7929 0.35824 0.0
H74 H 0.06743 0.75492 0.37715 0.0
H75 H 0.08031 0.76574 0.36665 0.0
H76 H 0.13494 0.80584 0.36644 0.0
H77 H 0.14067 0.82838 0.33968 0.0
H78 H 0.12007 0.82641 0.33298 0.0
H79 H 0.11413 0.80437 0.35977 0.0
C80 C 0.48257 0.89182 0.68525 0.0
C81 C 0.47829 0.90301 0.68612 0.0
C82 C 0.46731 0.89358 0.69877 0.0
C83 C 0.47079 0.90392 0.69286 0.0
C84 C 0.47212 0.88266 0.6983 0.0
C85 C 0.47967 0.8818 0.69159 0.0
U86 U 0.4915 0.90232 0.65969 0.0
O87 O 0.50699 0.90178 0.65363 0.0
O88 O 0.48989 0.89139 0.64389 0.0
C89 C 0.50104 0.89395 0.6448 0.0
C90 C 0.48881 0.88991 0.67679 0.0
C91 C 0.50575 0.88298 0.64176 0.0
C92 C 0.50559 0.86004 0.64075 0.0
C93 C 0.50278 0.87082 0.64546 0.0
C94 C 0.51484 0.8736 0.62903 0.0
C95 C 0.51129 0.86127 0.63219 0.0
C96 C 0.51212 0.88434 0.63378 0.0
C97 C 0.48024 0.93246 0.6494 0.0
C98 C 0.48004 0.94149 0.6319 0.0
C99 C 0.46967 0.94907 0.64426 0.0
C100 C 0.47338 0.9407 0.65178 0.0
C101 C 0.47283 0.94955 0.63414 0.0
C102 C 0.4837 0.93295 0.63947 0.0
C103 C 0.48265 0.92281 0.65709 0.0
O104 O 0.48211 0.88646 0.66679 0.0
O105 O 0.498 0.89888 0.67704 0.0
O106 O 0.49344 0.9234 0.66224 0.0
O107 O 0.47669 0.91101 0.65375 0.0
H108 H 0.4804 0.91085 0.68125 0.0
H109 H 0.46745 0.91257 0.69318 0.0
H110 H 0.46958 0.87447 0.70264 0.0
H111 H 0.48283 0.87306 0.69097 0.0
H112 H 0.50276 0.85065 0.64334 0.0
H113 H 0.49783 0.86957 0.6516 0.0
H114 H 0.51939 0.87486 0.62257 0.0
H115 H 0.51449 0.89363 0.63082 0.0
H116 H 0.4827 0.94162 0.62424 0.0
H117 H 0.46387 0.95476 0.64622 0.0
H118 H 0.47052 0.94033 0.65934 0.0
H119 H 0.48896 0.92656 0.63748 0.0
C120 C 0.45101 0.21775 0.95685 0.0
C121 C 0.44274 0.2062 0.95567 0.0
C122 C 0.42842 0.21823 0.958 0.0
C123 C 0.43152 0.20646 0.95616 0.0
C124 C 0.43689 0.22972 0.95998 0.0
C125 C 0.44812 0.22948 0.95934 0.0
U126 U 0.47239 0.19868 0.95159 0.0
O127 O 0.48027 0.1977 0.93767 0.0
O128 O 0.49133 0.20345 0.95447 0.0
C129 C 0.49081 0.2017 0.94387 0.0
C130 C 0.46211 0.21757 0.95427 0.0
C131 C 0.49839 0.21131 0.93929 0.0
C132 C 0.50161 0.23033 0.92949 0.0
C133 C 0.49523 0.22266 0.93567 0.0
C134 C 0.51452 0.21563 0.93088 0.0
C135 C 0.51108 0.22661 0.92674 0.0
C136 C 0.50826 0.20809 0.93714 0.0
C137 C 0.46401 0.16212 0.95426 0.0
C138 C 0.467 0.14403 0.94346 0.0
C139 C 0.45908 0.14037 0.95931 0.0
C140 C 0.45994 0.15361 0.96132 0.0
C141 C 0.46224 0.13538 0.95014 0.0
C142 C 0.46791 0.15731 0.94552 0.0
C143 C 0.46275 0.17557 0.95541 0.0
O144 O 0.47012 0.21472 0.96219 0.0
O145 O 0.46113 0.21141 0.94461 0.0
O146 O 0.45953 0.18059 0.94612 0.0
O147 O 0.4707 0.18362 0.96298 0.0
H148 H 0.44481 0.19704 0.9538 0.0
H149 H 0.42512 0.19749 0.95465 0.0
H150 H 0.43465 0.2389 0.96138 0.0
H151 H 0.4544 0.23847 0.96029 0.0
H152 H 0.49879 0.23875 0.92634 0.0
H153 H 0.48757 0.22525 0.93719 0.0
H154 H 0.52183 0.21263 0.92891 0.0
H155 H 0.51081 0.19936 0.93983 0.0
H156 H 0.4696 0.14049 0.93639 0.0
H157 H 0.45524 0.134 0.96453 0.0
H158 H 0.45685 0.15712 0.96808 0.0
H159 H 0.47114 0.16373 0.93998 0.0
C160 C 0.05893 0.07918 0.12186 0.0
C161 C 0.06538 0.08835 0.11679 0.0
C162 C 0.04828 0.09635 0.10883 0.0
C163 C 0.06012 0.09689 0.11039 0.0
C164 C 0.04172 0.08675 0.11346 0.0
C165 C 0.04703 0.07826 0.11999 0.0
U166 U 0.08559 0.06681 0.13344 0.0
O167 O 0.09563 0.06723 0.15047 0.0
O168 O 0.08836 0.04865 0.14031 0.0
C169 C 0.09394 0.05462 0.15013 0.0
C170 C 0.06478 0.07126 0.12964 0.0
C171 C 0.09074 0.04908 0.15979 0.0
C172 C 0.08204 0.05027 0.17527 0.0
C173 C 0.08333 0.05407 0.16502 0.0
C174 C 0.09493 0.03581 0.17482 0.0
C175 C 0.08807 0.04135 0.18041 0.0
C176 C 0.09628 0.03969 0.16461 0.0
C177 C 0.11089 0.07849 0.12033 0.0
C178 C 0.13125 0.0852 0.12957 0.0
C179 C 0.12489 0.08521 0.10972 0.0
C180 C 0.11352 0.0805 0.11015 0.0
C181 C 0.13376 0.08807 0.11947 0.0
C182 C 0.11988 0.08032 0.12999 0.0
C183 C 0.09881 0.07665 0.12087 0.0
O184 O 0.06704 0.06091 0.12521 0.0
O185 O 0.07352 0.07791 0.1374 0.0
O186 O 0.0971 0.08325 0.12925 0.0
O187 O 0.0925 0.06484 0.11877 0.0
H188 H 0.07456 0.08916 0.11807 0.0
H189 H 0.06535 0.10408 0.1068 0.0
H190 H 0.0326 0.08615 0.11243 0.0
H191 H 0.04192 0.07124 0.12383 0.0
H192 H 0.07658 0.05456 0.17933 0.0
H193 H 0.07893 0.0613 0.16141 0.0
H194 H 0.09973 0.02899 0.1786 0.0
H195 H 0.10208 0.03578 0.16073 0.0
H196 H 0.13797 0.08747 0.13719 0.0
H197 H 0.12664 0.08757 0.10188 0.0
H198 H 0.1067 0.07924 0.10263 0.0
H199 H 0.11804 0.07881 0.13793 0.0
C200 C 0.23676 0.89086 0.39627 0.0
C201 C 0.22962 0.89235 0.38607 0.0
C202 C 0.21818 0.87056 0.38519 0.0
C203 C 0.22048 0.88229 0.38057 0.0
C204 C 0.22563 0.86896 0.39523 0.0
C205 C 0.23482 0.87903 0.40072 0.0
U206 U 0.24897 0.92667 0.40034 0.0
O207 O 0.25355 0.94073 0.41503 0.0
O208 O 0.26661 0.9386 0.40606 0.0
C209 C 0.26426 0.94454 0.41444 0.0
C210 C 0.2455 0.90194 0.40269 0.0
C211 C 0.27311 0.94736 0.42501 0.0
C212 C 0.28511 0.9411 0.44139 0.0
C213 C 0.27711 0.93773 0.43105 0.0
C214 C 0.28514 0.96363 0.4396 0.0
C215 C 0.28916 0.95413 0.44586 0.0
C216 C 0.27728 0.96028 0.42931 0.0
C217 C 0.2331 0.94616 0.3792 0.0
C218 C 0.23136 0.9683 0.38249 0.0
C219 C 0.22287 0.95651 0.36439 0.0
C220 C 0.22704 0.94583 0.36817 0.0
C221 C 0.22464 0.96772 0.37161 0.0
C222 C 0.23558 0.9576 0.38626 0.0
C223 C 0.23544 0.93407 0.38343 0.0
O224 O 0.25306 0.9077 0.39759 0.0
O225 O 0.24133 0.91009 0.40796 0.0
O226 O 0.23259 0.93165 0.39271 0.0
O227 O 0.24535 0.93136 0.38304 0.0
H228 H 0.23094 0.90142 0.38251 0.0
H229 H 0.21506 0.88381 0.37277 0.0
H230 H 0.22407 0.86014 0.3991 0.0
H231 H 0.24018 0.87773 0.40862 0.0
H232 H 0.28809 0.93349 0.44588 0.0
H233 H 0.27397 0.92768 0.42785 0.0
H234 H 0.28776 0.97372 0.44276 0.0
H235 H 0.27425 0.96784 0.42479 0.0
H236 H 0.23298 0.97684 0.38821 0.0
H237 H 0.21763 0.95567 0.356 0.0
H238 H 0.22502 0.93707 0.36262 0.0
H239 H 0.2403 0.95806 0.39481 0.0
C240 C 0.33098 0.92469 0.70902 0.0
C241 C 0.33851 0.92391 0.70225 0.0
C242 C 0.32716 0.93436 0.68814 0.0
C243 C 0.33664 0.92872 0.69194 0.0
C244 C 0.31933 0.93454 0.69476 0.0
C245 C 0.32125 0.92977 0.70511 0.0
U246 U 0.3496 0.90991 0.73122 0.0
O247 O 0.35918 0.9177 0.74813 0.0
O248 O 0.34615 0.8996 0.74538 0.0
C249 C 0.35351 0.90854 0.75266 0.0
C250 C 0.33384 0.92131 0.72047 0.0
C251 C 0.34977 0.91282 0.76235 0.0
C252 C 0.34329 0.92876 0.77253 0.0
C253 C 0.34516 0.92386 0.76266 0.0
C254 C 0.35011 0.91133 0.78175 0.0
C255 C 0.346 0.92272 0.78228 0.0
C256 C 0.35198 0.90646 0.7719 0.0
C257 C 0.37287 0.8956 0.72151 0.0
C258 C 0.39208 0.89482 0.73207 0.0
C259 C 0.3856 0.88643 0.71276 0.0
C260 C 0.37493 0.88946 0.71225 0.0
C261 C 0.39447 0.8895 0.72256 0.0
C262 C 0.38136 0.89787 0.73155 0.0
C263 C 0.3626 0.90116 0.71997 0.0
O264 O 0.33174 0.90894 0.72175 0.0
O265 O 0.34397 0.92758 0.72646 0.0
O266 O 0.36446 0.91323 0.72405 0.0
O267 O 0.35316 0.89394 0.72151 0.0
H268 H 0.3461 0.92003 0.70512 0.0
H269 H 0.34294 0.92852 0.68717 0.0
H270 H 0.31183 0.93858 0.69203 0.0
H271 H 0.31531 0.93041 0.71021 0.0
H272 H 0.33996 0.93744 0.7726 0.0
H273 H 0.34338 0.92893 0.75538 0.0
H274 H 0.35242 0.90649 0.78908 0.0
H275 H 0.3556 0.89797 0.77185 0.0
H276 H 0.39865 0.89712 0.73979 0.0
H277 H 0.38713 0.88247 0.70524 0.0
H278 H 0.3685 0.88769 0.70442 0.0
H279 H 0.37991 0.90257 0.73881 0.0
C280 C 0.28118 0.13573 0.92407 0.0
C281 C 0.29051 0.13701 0.9192 0.0
C282 C 0.2877 0.1136 0.91633 0.0
C283 C 0.29368 0.12606 0.9153 0.0
C284 C 0.27801 0.11244 0.92075 0.0
C285 C 0.2748 0.1234 0.92458 0.0
U286 U 0.29118 0.1706 0.93612 0.0
O287 O 0.2821 0.1861 0.93859 0.0
O288 O 0.29289 0.17936 0.95281 0.0
C289 C 0.28596 0.18709 0.9494 0.0
C290 C 0.27902 0.14701 0.92992 0.0
C291 C 0.27794 0.18879 0.95622 0.0
C292 C 0.26703 0.18105 0.96939 0.0
C293 C 0.2727 0.17858 0.96125 0.0
C294 C 0.27128 0.20382 0.96712 0.0
C295 C 0.26659 0.19376 0.97267 0.0
C296 C 0.27689 0.20134 0.95899 0.0
C297 C 0.32074 0.18797 0.9329 0.0
C298 C 0.33521 0.20318 0.94682 0.0
C299 C 0.33933 0.19689 0.92956 0.0
C300 C 0.32825 0.18914 0.92594 0.0
C301 C 0.34302 0.20352 0.9402 0.0
C302 C 0.32407 0.19551 0.94316 0.0
C303 C 0.31055 0.17726 0.93022 0.0
O304 O 0.28609 0.15062 0.93973 0.0
O305 O 0.27731 0.15675 0.92416 0.0
O306 O 0.30081 0.17959 0.92455 0.0
O307 O 0.30937 0.1703 0.9384 0.0
H308 H 0.29559 0.14647 0.91878 0.0
H309 H 0.30103 0.12738 0.91173 0.0
H310 H 0.27324 0.10307 0.92181 0.0
H311 H 0.26764 0.12221 0.92839 0.0
H312 H 0.26354 0.17309 0.97353 0.0
H313 H 0.27345 0.16882 0.95928 0.0
H314 H 0.27091 0.21367 0.9693 0.0
H315 H 0.2809 0.20936 0.95522 0.0
H316 H 0.33797 0.20813 0.9551 0.0
H317 H 0.34531 0.19691 0.92441 0.0
H318 H 0.32585 0.18335 0.91803 0.0
H319 H 0.31838 0.19472 0.94865 0.0
C320 C 0.14225 0.01704 0.32419 0.0
C321 C 0.14104 0.00804 0.33187 0.0
C322 C 0.1619 0.01159 0.3385 0.0
C323 C 0.15077 1.00538 0.33899 0.0
C324 C 0.16304 0.02118 0.33125 0.0
C325 C 0.15328 0.02384 0.32414 0.0
U326 U 0.11141 1.0034 0.30887 0.0
O327 O 0.09747 0.01189 0.29959 0.0
O328 O 0.10385 0.99727 0.29125 0.0
C329 C 0.09681 1.00519 0.29024 0.0
C330 C 0.13227 0.01787 0.31524 0.0
C331 C 0.09571 0.01191 0.28021 0.0
C332 C 0.10381 0.02614 0.26813 0.0
C333 C 0.10481 0.02116 0.2784 0.0
C334 C 0.0846 0.01277 0.26158 0.0
C335 C 0.09374 0.02181 0.2595 0.0
C336 C 0.08557 0.00794 0.27182 0.0
C337 C 0.09606 0.9733 0.31941 0.0
C338 C 0.08394 0.95381 0.30843 0.0
C339 C 0.08644 0.95621 0.32825 0.0
C340 C 0.09342 0.96848 0.32891 0.0
C341 C 0.08214 0.94843 0.31807 0.0
C342 C 0.0908 0.96616 0.30909 0.0
C343 C 0.10555 0.98464 0.32059 0.0
O344 O 0.12926 0.00815 0.30749 0.0
O345 O 0.12344 0.02088 0.31825 0.0
O346 O 0.10325 0.99607 0.322 0.0
O347 O 0.11209 0.98408 0.31372 0.0
H348 H 0.13259 1.00262 0.33199 0.0
H349 H 0.14957 0.99811 0.3446 0.0
H350 H 0.17146 0.02608 0.3306 0.0
H351 H 0.15438 0.03074 0.3182 0.0
H352 H 0.11097 0.03323 0.26692 0.0
H353 H 0.11274 0.02429 0.2848 0.0
H354 H 0.07681 0.00897 0.25515 0.0
H355 H 0.07851 1.0007 0.27306 0.0
H356 H 0.08079 0.94816 0.30045 0.0
H357 H 0.08494 0.95254 0.33581 0.0
H358 H 0.0973 0.97389 0.33694 0.0
H359 H 0.09262 0.96976 0.30161 0.0
C360 C 0.33754 0.98707 0.59998 0.0
C361 C 0.34613 0.98287 0.60756 0.0
C362 C 0.3341 0.98007 0.62065 0.0
C363 C 0.34443 0.97939 0.61778 0.0
C364 C 0.32577 0.98493 0.61324 0.0
C365 C 0.32747 0.98837 0.603 0.0
U366 U 0.35608 0.99111 0.57952 0.0
O367 O 0.35352 0.98117 0.56305 0.0
O368 O 0.35597 1.00227 0.56506 0.0
C369 C 0.35411 0.99185 0.55819 0.0
C370 C 0.33864 0.98905 0.58865 0.0
C371 C 0.34624 0.99111 0.54714 0.0
C372 C 0.32829 0.98163 0.53349 0.0
C373 C 0.33472 0.98426 0.54456 0.0
C374 C 0.34465 0.99309 0.5276 0.0
C375 C 0.33336 0.98563 0.52489 0.0
C376 C 0.35099 0.99584 0.5386 0.0
C377 C 0.38824 0.99085 0.5923 0.0
C378 C 0.40194 0.98223 0.58443 0.0
C379 C 0.40796 0.99319 0.60298 0.0
C380 C 0.39696 0.99551 0.60194 0.0
C381 C 0.41043 0.9862 0.59438 0.0
C382 C 0.39088 0.98459 0.58337 0.0
C383 C 0.3763 0.99105 0.59252 0.0
O384 O 0.34481 1.00023 0.58736 0.0
O385 O 0.34096 0.97926 0.58344 0.0
O386 O 0.36853 0.98053 0.58815 0.0
O387 O 0.37274 1.0017 0.59031 0.0
H388 H 0.35399 0.98181 0.60541 0.0
H389 H 0.35101 0.9756 0.62321 0.0
H390 H 0.31782 0.98583 0.61526 0.0
H391 H 0.32077 0.99169 0.5973 0.0
H392 H 0.31959 0.97585 0.53162 0.0
H393 H 0.3309 0.98045 0.55101 0.0
H394 H 0.34872 0.99641 0.52115 0.0
H395 H 0.35987 1.00111 0.5404 0.0
H396 H 0.40365 0.97666 0.57777 0.0
H397 H 0.41435 0.99613 0.61078 0.0
H398 H 0.39508 1.00026 0.60895 0.0
H399 H 0.38426 0.98089 0.57586 0.0
C400 C 0.33373 0.0177 0.90121 0.0
C401 C 0.33906 0.02814 0.90933 0.0
C402 C 0.32116 0.03563 0.9063 0.0
C403 C 0.33278 0.03702 0.91191 0.0
C404 C 0.31574 0.02482 0.89862 0.0
C405 C 0.32197 0.0159 0.89613 0.0
U406 U 0.36261 0.0101 0.9002 0.0
O407 O 0.36745 0.99176 0.89661 0.0
O408 O 0.36952 1.0072 0.8858 0.0
C409 C 0.37017 0.99527 0.88747 0.0
C410 C 0.34056 0.00974 0.89684 0.0
C411 C 0.36591 0.98587 0.87754 0.0
C412 C 0.35087 0.97008 0.86452 0.0
C413 C 0.35453 0.97861 0.87426 0.0
C414 C 0.36987 0.97611 0.86131 0.0
C415 C 0.35852 0.96872 0.85791 0.0
C416 C 0.37351 0.98451 0.871 0.0
C417 C 0.38946 0.03269 0.92043 0.0
C418 C 0.40807 0.04384 0.9182 0.0
C419 C 0.40385 0.0452 0.93612 0.0
C420 C 0.39306 0.03705 0.93172 0.0
C421 C 0.41125 0.04915 0.9293 0.0
C422 C 0.39723 0.03569 0.91378 0.0
C423 C 0.37711 0.02708 0.91564 0.0
O424 O 0.34712 0.01581 0.89097 0.0
O425 O 0.34579 1.00257 0.90369 0.0
O426 O 0.37301 0.01522 0.91747 0.0
O427 O 0.37277 0.02974 0.9056 0.0
H428 H 0.34818 0.02976 0.91326 0.0
H429 H 0.33716 0.04537 0.91777 0.0
H430 H 0.30679 0.02359 0.8942 0.0
H431 H 0.31775 0.00796 0.8898 0.0
H432 H 0.34209 0.96452 0.86221 0.0
H433 H 0.3485 0.97958 0.87917 0.0
H434 H 0.37596 0.97563 0.85635 0.0
H435 H 0.38228 0.99011 0.87333 0.0
H436 H 0.41359 0.04675 0.91275 0.0
H437 H 0.40613 0.04903 0.94473 0.0
H438 H 0.38723 0.03486 0.937 0.0
H439 H 0.39465 0.03241 0.90504 0.0
C440 C 0.18872 0.2323 0.07083 0.0
C441 C 0.17995 0.22491 0.07473 0.0
C442 C 0.16877 0.24163 0.0717 0.0
C443 C 0.17005 0.22939 0.07499 0.0
C444 C 0.17804 0.24934 0.0685 0.0
C445 C 0.18782 0.24464 0.06791 0.0
U446 U 0.20607 0.20662 0.07607 0.0
O447 O 0.20992 0.19319 0.0643 0.0
O448 O 0.22409 0.20632 0.07638 0.0
C449 C 0.2211 0.19755 0.06781 0.0
C450 C 0.19821 0.22664 0.0689 0.0
C451 C 0.22724 0.19977 0.05906 0.0
C452 C 0.23458 0.21306 0.04596 0.0
C453 C 0.22919 0.21167 0.0547 0.0
C454 C 0.23603 0.19071 0.0459 0.0
C455 C 0.23801 0.20255 0.0414 0.0
C456 C 0.23076 0.18937 0.05464 0.0
C457 C 0.19734 0.18216 0.09592 0.0
C458 C 0.19575 0.15898 0.09398 0.0
C459 C 0.19212 0.16923 0.11014 0.0
C460 C 0.19463 0.18125 0.10617 0.0
C461 C 0.19217 0.15796 0.10383 0.0
C462 C 0.19842 0.17102 0.09009 0.0
C463 C 0.19716 0.19424 0.0907 0.0
O464 O 0.20714 0.22764 0.07738 0.0
O465 O 0.19483 0.21506 0.0635 0.0
O466 O 0.19219 0.19279 0.08007 0.0
O467 O 0.20659 0.20338 0.09349 0.0
H468 H 0.1805 0.21535 0.07707 0.0
H469 H 0.16326 0.22282 0.0773 0.0
H470 H 0.17779 0.25895 0.06623 0.0
H471 H 0.19455 0.25052 0.06493 0.0
H472 H 0.23604 0.22235 0.04278 0.0
H473 H 0.22647 0.21981 0.05797 0.0
H474 H 0.23826 0.18229 0.0425 0.0
H475 H 0.22923 0.18008 0.05783 0.0
H476 H 0.19581 0.1504 0.08898 0.0
H477 H 0.18924 0.16865 0.11768 0.0
H478 H 0.19371 0.18972 0.11076 0.0
H479 H 0.20055 0.1715 0.08218 0.0
C480 C 0.73714 0.39017 0.89605 0.0
C481 C 0.72992 0.39191 0.88599 0.0
C482 C 0.71823 0.37021 0.88497 0.0
C483 C 0.72061 0.38203 0.88047 0.0
C484 C 0.72574 0.36839 0.89489 0.0
C485 C 0.73509 0.37829 0.90038 0.0
U486 U 0.75003 0.42589 0.90055 0.0
O487 O 0.75505 0.4396 0.91546 0.0
O488 O 0.76785 0.43747 0.90617 0.0
C489 C 0.76574 0.44327 0.91476 0.0
C490 C 0.74613 0.40106 0.90249 0.0
C491 C 0.77474 0.44587 0.92524 0.0
C492 C 0.78239 0.4416 0.94416 0.0
C493 C 0.77489 0.4376 0.93365 0.0
C494 C 0.78986 0.4619 0.93782 0.0
C495 C 0.78968 0.45396 0.94641 0.0
C496 C 0.78252 0.45785 0.92733 0.0
C497 C 0.73418 0.44622 0.88013 0.0
C498 C 0.7302 0.46723 0.88396 0.0
C499 C 0.72492 0.45712 0.86515 0.0
C500 C 0.72953 0.44665 0.86883 0.0
C501 C 0.72477 0.46722 0.87275 0.0
C502 C 0.73496 0.45685 0.88763 0.0
C503 C 0.73649 0.43395 0.88404 0.0
O504 O 0.75363 0.40677 0.8973 0.0
O505 O 0.74226 0.40925 0.90802 0.0
O506 O 0.73372 0.43122 0.8933 0.0
O507 O 0.7463 0.43113 0.88339 0.0
H508 H 0.73132 0.40105 0.88252 0.0
H509 H 0.71516 0.38373 0.87277 0.0
H510 H 0.72413 0.35951 0.89867 0.0
H511 H 0.7405 0.3768 0.90819 0.0
H512 H 0.78209 0.43533 0.95068 0.0
H513 H 0.7689 0.42833 0.93222 0.0
H514 H 0.79546 0.47142 0.93932 0.0
H515 H 0.78252 0.46438 0.92097 0.0
H516 H 0.73021 0.47495 0.88995 0.0
H517 H 0.72069 0.45685 0.85647 0.0
H518 H 0.72883 0.43854 0.86293 0.0
H519 H 0.73859 0.45676 0.89639 0.0
C520 C 0.82991 0.42454 0.20846 0.0
C521 C 0.83729 0.42325 0.20163 0.0
C522 C 0.82621 0.43382 0.18743 0.0
C523 C 0.83548 0.42785 0.19123 0.0
C524 C 0.81854 0.43455 0.19412 0.0
C525 C 0.82039 0.42998 0.20455 0.0
U526 U 0.84808 0.40965 0.23097 0.0
O527 O 0.85779 0.41768 0.24778 0.0
O528 O 0.84443 0.39988 0.24531 0.0
C529 C 0.85195 0.40884 0.25246 0.0
C530 C 0.8327 0.42133 0.21996 0.0
C531 C 0.84835 0.4135 0.26213 0.0
C532 C 0.84392 0.43063 0.27288 0.0
C533 C 0.84554 0.42561 0.26294 0.0
C534 C 0.84727 0.41121 0.28112 0.0
C535 C 0.84502 0.4236 0.28216 0.0
C536 C 0.84896 0.40625 0.2712 0.0
C537 C 0.87123 0.3944 0.22248 0.0
C538 C 0.89083 0.3957 0.23313 0.0
C539 C 0.88393 0.38361 0.21503 0.0
C540 C 0.87312 0.3865 0.21409 0.0
C541 C 0.89302 0.38873 0.22432 0.0
C542 C 0.87998 0.39846 0.23225 0.0
C543 C 0.86096 0.4 0.22014 0.0
O544 O 0.83032 0.40902 0.2214 0.0
O545 O 0.84291 0.42744 0.22588 0.0
O546 O 0.86282 0.41227 0.22364 0.0
O547 O 0.85141 0.39312 0.22173 0.0
H548 H 0.84472 0.4191 0.20452 0.0
H549 H 0.84164 0.42724 0.1864 0.0
H550 H 0.81121 0.43887 0.19139 0.0
H551 H 0.81458 0.43103 0.20969 0.0
H552 H 0.84207 0.44014 0.2734 0.0
H553 H 0.84499 0.43138 0.25603 0.0
H554 H 0.8483 0.40561 0.28812 0.0
H555 H 0.8512 0.39692 0.27077 0.0
H556 H 0.89771 0.39971 0.24039 0.0
H557 H 0.88544 0.37832 0.20808 0.0
H558 H 0.86648 0.3833 0.20649 0.0
H559 H 0.87868 0.40452 0.23886 0.0
C560 C 0.78116 0.6359 0.42516 0.0
C561 C 0.79085 0.63617 0.42092 0.0
C562 C 0.78652 0.61271 0.41834 0.0
C563 C 0.79347 0.62465 0.41746 0.0
C564 C 0.77652 0.61252 0.42203 0.0
C565 C 0.77384 0.62403 0.42538 0.0
U566 U 0.79192 0.67113 0.43678 0.0
O567 O 0.78275 0.68659 0.43911 0.0
O568 O 0.79363 0.68008 0.4534 0.0
C569 C 0.78643 0.68751 0.44994 0.0
C570 C 0.77951 0.6476 0.4308 0.0
C571 C 0.77803 0.68844 0.45651 0.0
C572 C 0.7677 0.68004 0.46992 0.0
C573 C 0.77383 0.67813 0.46206 0.0
C574 C 0.76923 0.70235 0.46624 0.0
C575 C 0.76563 0.69229 0.47236 0.0
C576 C 0.77539 0.70044 0.45844 0.0
C577 C 0.82159 0.68843 0.43348 0.0
C578 C 0.83759 0.70227 0.44706 0.0
C579 C 0.8386 0.69907 0.42806 0.0
C580 C 0.82753 0.69123 0.42531 0.0
C581 C 0.84401 0.7041 0.43909 0.0
C582 C 0.82645 0.69452 0.44427 0.0
C583 C 0.81136 0.67772 0.431 0.0
O584 O 0.7867 0.65126 0.44054 0.0
O585 O 0.77804 0.65724 0.42484 0.0
O586 O 0.80161 0.67994 0.42519 0.0
O587 O 0.81013 0.67082 0.43921 0.0
H588 H 0.79668 0.64525 0.4208 0.0
H589 H 0.80127 0.62504 0.41471 0.0
H590 H 0.77099 0.60344 0.42272 0.0
H591 H 0.76636 0.62363 0.42866 0.0
H592 H 0.76513 0.67208 0.47449 0.0
H593 H 0.77576 0.66877 0.46071 0.0
H594 H 0.76757 0.71182 0.46771 0.0
H595 H 0.77855 0.70852 0.45424 0.0
H596 H 0.84145 0.70601 0.45562 0.0
H597 H 0.84319 0.70058 0.42166 0.0
H598 H 0.82389 0.68673 0.41691 0.0
H599 H 0.82197 0.6926 0.45071 0.0
C600 C 0.83355 0.51817 0.40143 0.0
C601 C 0.8385 0.52659 0.41113 0.0
C602 C 0.82163 0.53619 0.40798 0.0
C603 C 0.83256 0.53544 0.41442 0.0
C604 C 0.81659 0.52737 0.39848 0.0
C605 C 0.82248 0.51845 0.39527 0.0
U606 U 0.8622 0.51018 0.40016 0.0
O607 O 0.86691 0.49167 0.39688 0.0
O608 O 0.86881 0.50669 0.38567 0.0
C609 C 0.86948 0.49483 0.38761 0.0
C610 C 0.84021 0.51007 0.39695 0.0
C611 C 0.86493 0.48512 0.37792 0.0
C612 C 0.84915 0.47187 0.36367 0.0
C613 C 0.85308 0.48046 0.37336 0.0
C614 C 0.86888 0.47251 0.36311 0.0
C615 C 0.85702 0.46786 0.35835 0.0
C616 C 0.87276 0.48099 0.37277 0.0
C617 C 0.88941 0.53264 0.41971 0.0
C618 C 0.90821 0.54111 0.41647 0.0
C619 C 0.90443 0.5467 0.43404 0.0
C620 C 0.8933 0.53902 0.43044 0.0
C621 C 0.91181 0.54815 0.42695 0.0
C622 C 0.89709 0.53331 0.41289 0.0
C623 C 0.87696 0.52731 0.41533 0.0
O624 O 0.84672 0.516 0.39097 0.0
O625 O 0.84543 0.50287 0.40378 0.0
O626 O 0.87281 0.51554 0.41734 0.0
O627 O 0.8725 0.5298 0.40527 0.0
H628 H 0.84708 0.52657 0.41597 0.0
H629 H 0.83665 0.54187 0.4219 0.0
H630 H 0.8083 0.5277 0.39319 0.0
H631 H 0.81856 0.5121 0.38771 0.0
H632 H 0.83997 0.46842 0.36033 0.0
H633 H 0.84689 0.48359 0.3772 0.0
H634 H 0.87523 0.46995 0.35919 0.0
H635 H 0.88194 0.48456 0.37611 0.0
H636 H 0.91374 0.54225 0.41083 0.0
H637 H 0.90696 0.55226 0.44207 0.0
H638 H 0.88748 0.53875 0.43578 0.0
H639 H 0.89427 0.52849 0.40457 0.0
C640 C 0.64182 0.51702 0.82543 0.0
C641 C 0.64057 0.50568 0.83069 0.0
C642 C 0.66116 0.51039 0.83922 0.0
C643 C 0.65015 0.50238 0.8375 0.0
C644 C 0.66226 0.52222 0.83462 0.0
C645 C 0.65265 0.52546 0.8277 0.0
U646 U 0.61132 0.50489 0.80901 0.0
O647 O 0.59768 0.51403 0.79997 0.0
O648 O 0.60413 0.4998 0.79121 0.0
C649 C 0.59705 0.50767 0.79047 0.0
C650 C 0.63225 0.51894 0.81648 0.0
C651 C 0.59567 0.5145 0.7805 0.0
C652 C 0.60325 0.52919 0.76842 0.0
C653 C 0.60435 0.52443 0.7788 0.0
C654 C 0.58476 0.51434 0.76159 0.0
C655 C 0.59357 0.5239 0.75968 0.0
C656 C 0.58578 0.50975 0.77192 0.0
C657 C 0.59567 0.4737 0.81806 0.0
C658 C 0.58399 0.45423 0.8067 0.0
C659 C 0.58615 0.45613 0.82649 0.0
C660 C 0.59291 0.46856 0.8274 0.0
C661 C 0.58214 0.44857 0.81621 0.0
C662 C 0.59069 0.46672 0.80762 0.0
C663 C 0.6051 0.48517 0.81962 0.0
O664 O 0.62931 0.50998 0.80809 0.0
O665 O 0.62333 0.52172 0.81947 0.0
O666 O 0.60277 0.49648 0.82153 0.0
O667 O 0.61173 0.48515 0.81277 0.0
H668 H 0.63228 0.49903 0.82907 0.0
H669 H 0.64902 0.4933 0.84107 0.0
H670 H 0.67064 0.52856 0.83581 0.0
H671 H 0.65378 0.53424 0.82369 0.0
H672 H 0.61018 0.53651 0.76706 0.0
H673 H 0.6121 0.52812 0.78531 0.0
H674 H 0.57725 0.51014 0.75495 0.0
H675 H 0.57904 0.50203 0.77307 0.0
H676 H 0.58101 0.4487 0.79866 0.0
H677 H 0.58462 0.45216 0.83393 0.0
H678 H 0.59659 0.47382 0.83552 0.0
H679 H 0.59262 0.47057 0.80026 0.0
C680 C 0.52029 0.69919 0.57336 0.0
C681 C 0.52728 0.69349 0.56808 0.0
C682 C 0.52255 0.67364 0.57653 0.0
C683 C 0.52835 0.68082 0.56961 0.0
C684 C 0.51518 0.67924 0.58143 0.0
C685 C 0.51409 0.69191 0.57987 0.0
U686 U 0.53505 0.73199 0.56802 0.0
O687 O 0.52884 0.74912 0.56203 0.0
O688 O 0.54062 0.7504 0.57848 0.0
C689 C 0.53446 0.7564 0.57126 0.0
C690 C 0.52053 0.71308 0.57319 0.0
C691 C 0.52861 0.76543 0.57579 0.0
C692 C 0.52018 0.77259 0.59015 0.0
C693 C 0.52362 0.76281 0.58468 0.0
C694 C 0.52614 0.78746 0.57754 0.0
C695 C 0.52179 0.78514 0.58686 0.0
C696 C 0.5295 0.7777 0.57207 0.0
C697 C 0.56277 0.73342 0.55848 0.0
C698 C 0.57964 0.75103 0.5638 0.0
C699 C 0.57967 0.73243 0.55182 0.0
C700 C 0.56837 0.72704 0.55209 0.0
C701 C 0.58555 0.74421 0.55805 0.0
C702 C 0.56827 0.74572 0.56394 0.0
C703 C 0.5521 0.72634 0.56077 0.0
O704 O 0.52923 0.72047 0.5805 0.0
O705 O 0.51873 0.71739 0.56339 0.0
O706 O 0.54232 0.72732 0.55411 0.0
O707 O 0.55198 0.72717 0.57124 0.0
H708 H 0.53222 0.69899 0.56308 0.0
H709 H 0.53397 0.67677 0.56558 0.0
H710 H 0.51069 0.67408 0.58692 0.0
H711 H 0.50876 0.69619 0.58411 0.0
H712 H 0.51686 0.77053 0.59731 0.0
H713 H 0.52289 0.75341 0.58771 0.0
H714 H 0.5273 0.79697 0.5747 0.0
H715 H 0.53333 0.77992 0.56523 0.0
H716 H 0.58403 0.76013 0.56866 0.0
H717 H 0.58411 0.72693 0.54743 0.0
H718 H 0.56428 0.71752 0.54788 0.0
H719 H 0.56406 0.75083 0.56888 0.0
C720 C 0.56543 0.33001 0.82947 0.0
C721 C 0.57563 0.33809 0.8285 0.0
C722 C 0.56477 0.35338 0.81994 0.0
C723 C 0.57531 0.34968 0.82376 0.0
C724 C 0.55453 0.34491 0.82043 0.0
C725 C 0.55487 0.33332 0.82516 0.0
U726 U 0.58247 0.30773 0.84523 0.0
O727 O 0.58271 0.301 0.86152 0.0
O728 O 0.57781 0.28688 0.84686 0.0
C729 C 0.57877 0.28884 0.85753 0.0
C730 C 0.56583 0.31877 0.83582 0.0
C731 C 0.56941 0.28163 0.86187 0.0
C732 C 0.55365 0.28115 0.87073 0.0
C733 C 0.56123 0.28762 0.86498 0.0
C734 C 0.56186 0.26237 0.86975 0.0
C735 C 0.55411 0.26857 0.87349 0.0
C736 C 0.56943 0.26885 0.86404 0.0
C737 C 0.61525 0.31598 0.84605 0.0
C738 C 0.63146 0.3108 0.85911 0.0
C739 C 0.63467 0.32324 0.84404 0.0
C740 C 0.62285 0.32233 0.8403 0.0
C741 C 0.63921 0.31773 0.85363 0.0
C742 C 0.61957 0.30997 0.85537 0.0
C743 C 0.60314 0.31706 0.84269 0.0
O744 O 0.56819 0.30874 0.831 0.0
O745 O 0.57156 0.32156 0.84623 0.0
O746 O 0.59899 0.32172 0.85042 0.0
O747 O 0.59579 0.30752 0.83605 0.0
H748 H 0.58388 0.3357 0.8318 0.0
H749 H 0.58336 0.35604 0.82362 0.0
H750 H 0.54629 0.34743 0.81745 0.0
H751 H 0.54691 0.32717 0.82581 0.0
H752 H 0.54782 0.28623 0.87349 0.0
H753 H 0.56101 0.29748 0.86336 0.0
H754 H 0.56228 0.2526 0.87151 0.0
H755 H 0.57563 0.26402 0.86168 0.0
H756 H 0.63461 0.30631 0.86644 0.0
H757 H 0.64027 0.32889 0.8397 0.0
H758 H 0.61968 0.32712 0.83315 0.0
H759 H 0.6138 0.30502 0.85993 0.0
C760 C 0.98037 0.40584 0.18534 0.0
C761 C 0.9717 0.41282 0.18413 0.0
C762 C 0.96489 0.40233 0.19889 0.0
C763 C 0.96409 0.41119 0.19092 0.0
C764 C 0.97423 0.39621 0.20074 0.0
C765 C 0.98193 0.39795 0.19397 0.0
U766 U 0.99533 0.402 0.15999 0.0
O767 O 0.99429 0.38153 0.15587 0.0
O768 O 0.01118 0.39433 0.16307 0.0
C769 C 1.00545 0.38261 0.15889 0.0
C770 C 0.98576 0.40445 0.17622 0.0
C771 C 0.01002 0.37551 0.15122 0.0
C772 C 0.01524 0.35552 0.14655 0.0
C773 C 0.01305 0.36398 0.15426 0.0
C774 C 0.01205 0.37042 0.13274 0.0
C775 C 0.01456 0.35847 0.13561 0.0
C776 C 0.00971 0.37884 0.14048 0.0
C777 C 0.98638 0.42653 0.13939 0.0
C778 C 0.97653 0.43559 0.12346 0.0
C779 C 0.97806 0.44507 0.14189 0.0
C780 C 0.98411 0.43589 0.14639 0.0
C781 C 0.97412 0.44498 0.13034 0.0
C782 C 0.9826 0.42653 0.12793 0.0
C783 C 0.99239 0.41639 0.14355 0.0
O784 O 0.98012 0.39756 0.16684 0.0
O785 O 0.99642 0.41045 0.1768 0.0
O786 O 0.98573 0.40507 0.14352 0.0
O787 O 1.00109 0.41954 0.15237 0.0
H788 H 0.97033 0.41887 0.17745 0.0
H789 H 0.95715 0.41628 0.18949 0.0
H790 H 0.97509 0.38935 0.20681 0.0
H791 H 0.98852 0.39236 0.19491 0.0
H792 H 0.01688 0.34637 0.14908 0.0
H793 H 0.01313 0.36116 0.16247 0.0
H794 H 0.01163 0.37313 0.12446 0.0
H795 H 1.00725 0.38767 0.13797 0.0
H796 H 0.97343 0.43495 0.11456 0.0
H797 H 0.97644 0.45221 0.14746 0.0
H798 H 0.98693 0.43603 0.15528 0.0
H799 H 0.98421 0.41934 0.1224 0.0
C800 C 0.95167 0.71941 0.45732 0.0
C801 C 0.94338 0.70832 0.45763 0.0
C802 C 0.92969 0.7215 0.45964 0.0
C803 C 0.93249 0.70936 0.45881 0.0
C804 C 0.93824 0.73261 0.4599 0.0
C805 C 0.94914 0.73156 0.45875 0.0
U806 U 0.97186 0.69889 0.4509 0.0
O807 O 0.97994 0.69839 0.43707 0.0
O808 O 0.99085 0.70288 0.45402 0.0
C809 C 0.99046 0.70193 0.44341 0.0
C810 C 0.96248 0.71835 0.45444 0.0
C811 C 0.99828 0.71197 0.43941 0.0
C812 C 1.0012 0.7302 0.42866 0.0
C813 C 0.99444 0.72233 0.43438 0.0
C814 C 0.01606 0.71805 0.4336 0.0
C815 C 0.01193 0.72787 0.42787 0.0
C816 C 0.00928 0.71017 0.43928 0.0
C817 C 0.96042 0.66201 0.45258 0.0
C818 C 0.9684 0.64318 0.45005 0.0
C819 C 0.94869 0.64054 0.45141 0.0
C820 C 0.94997 0.65385 0.45262 0.0
C821 C 0.95788 0.63497 0.45022 0.0
C822 C 0.96968 0.65666 0.45125 0.0
C823 C 0.96094 0.67596 0.45378 0.0
O824 O 0.97027 0.71476 0.46211 0.0
O825 O 0.96108 0.7124 0.4446 0.0
O826 O 0.95844 0.68135 0.44459 0.0
O827 O 0.96934 0.68322 0.46153 0.0
H828 H 0.94516 0.69884 0.4565 0.0
H829 H 0.92608 0.70061 0.45846 0.0
H830 H 0.93639 0.74209 0.46065 0.0
H831 H 0.95544 0.74023 0.45857 0.0
H832 H 0.99787 0.73783 0.42452 0.0
H833 H 0.986 0.72395 0.43443 0.0
H834 H 0.02424 0.71594 0.43314 0.0
H835 H 0.0124 0.70222 0.44308 0.0
H836 H 0.97563 0.6392 0.44908 0.0
H837 H 0.94035 0.63459 0.45123 0.0
H838 H 0.94269 0.65779 0.45351 0.0
H839 H 0.97781 0.66286 0.45113 0.0
C840 C 0.55816 0.57964 0.6225 0.0
C841 C 0.56209 0.58456 0.61355 0.0
C842 C 0.54659 0.59618 0.6095 0.0
C843 C 0.55629 0.5927 0.60705 0.0
C844 C 0.54251 0.5909 0.61826 0.0
C845 C 0.54824 0.58268 0.62468 0.0
U846 U 0.58583 0.56831 0.63356 0.0
O847 O 0.59609 0.56914 0.65058 0.0
O848 O 0.58904 0.55041 0.64063 0.0
C849 C 0.59477 0.55657 0.65032 0.0
C850 C 0.5649 0.57238 0.63022 0.0
C851 C 0.59215 0.55096 0.66017 0.0
C852 C 0.58229 0.54999 0.67496 0.0
C853 C 0.58335 0.55388 0.66465 0.0
C854 C 0.59847 0.53979 0.67613 0.0
C855 C 0.59009 0.54325 0.68096 0.0
C856 C 0.59948 0.54362 0.66585 0.0
C857 C 0.6107 0.57913 0.61984 0.0
C858 C 0.63114 0.58375 0.62892 0.0
C859 C 0.62483 0.58568 0.60934 0.0
C860 C 0.61338 0.58169 0.60978 0.0
C861 C 0.63382 0.58724 0.61899 0.0
C862 C 0.61966 0.57969 0.62933 0.0
C863 C 0.59868 0.57766 0.6205 0.0
O864 O 0.56722 0.562 0.62589 0.0
O865 O 0.57382 0.57957 0.63744 0.0
O866 O 0.59721 0.58452 0.62886 0.0
O867 O 0.59224 0.56591 0.61865 0.0
H868 H 0.56982 0.58243 0.61182 0.0
H869 H 0.5597 0.59674 0.60043 0.0
H870 H 0.53503 0.59338 0.62029 0.0
H871 H 0.54512 0.57902 0.63158 0.0
H872 H 0.57575 0.5528 0.67848 0.0
H873 H 0.57761 0.55957 0.66038 0.0
H874 H 0.60446 0.53441 0.68046 0.0
H875 H 0.60631 0.54126 0.66251 0.0
H876 H 0.63789 0.58475 0.63646 0.0
H877 H 0.62657 0.58843 0.6016 0.0
H878 H 0.60658 0.58135 0.60238 0.0
H879 H 0.61776 0.57768 0.63718 0.0
C880 C 0.83641 0.48514 0.09849 0.0
C881 C 0.845 0.48105 0.10615 0.0
C882 C 0.83274 0.47782 0.119 0.0
C883 C 0.84317 0.47737 0.11626 0.0
C884 C 0.82435 0.48249 0.11148 0.0
C885 C 0.82616 0.48608 0.1013 0.0
U886 U 0.85617 0.4905 0.07946 0.0
O887 O 0.85503 0.48083 0.0632 0.0
O888 O 0.85671 0.50182 0.06522 0.0
C889 C 0.85562 0.49155 0.05841 0.0
C890 C 0.83788 0.4875 0.08734 0.0
C891 C 0.84807 0.49061 0.04721 0.0
C892 C 0.82924 0.48682 0.03423 0.0
C893 C 0.83608 0.48891 0.04516 0.0
C894 C 0.84636 0.48827 0.02745 0.0
C895 C 0.83428 0.48626 0.02521 0.0
C896 C 0.85313 0.49048 0.0383 0.0
C897 C 0.88802 0.49099 0.09353 0.0
C898 C 0.90212 0.48221 0.08648 0.0
C899 C 0.90786 0.49483 0.10433 0.0
C900 C 0.89666 0.4967 0.10295 0.0
C901 C 0.91062 0.48714 0.09631 0.0
C902 C 0.89091 0.48412 0.0851 0.0
C903 C 0.87595 0.49087 0.09343 0.0
O904 O 0.84393 0.49891 0.08643 0.0
O905 O 0.84073 0.47803 0.08224 0.0
O906 O 0.86844 0.48024 0.08886 0.0
O907 O 0.87224 0.5014 0.09103 0.0
H908 H 0.85299 0.48027 0.10415 0.0
H909 H 0.84979 0.47368 0.12171 0.0
H910 H 0.8163 0.48321 0.11338 0.0
H911 H 0.81945 0.48929 0.09553 0.0
H912 H 0.82001 0.48552 0.03288 0.0
H913 H 0.83201 0.48895 0.05196 0.0
H914 H 0.85063 0.48766 0.02086 0.0
H915 H 0.86237 0.49169 0.03973 0.0
H916 H 0.90402 0.47639 0.08009 0.0
H917 H 0.91413 0.49867 0.11203 0.0
H918 H 0.8946 0.502 0.10956 0.0
H919 H 0.88439 0.4797 0.0777 0.0
C920 C 0.68848 0.73191 0.57041 0.0
C921 C 0.68085 0.72556 0.57619 0.0
C922 C 0.66797 0.74005 0.57053 0.0
C923 C 0.67068 0.72959 0.57624 0.0
C924 C 0.67601 0.74691 0.56538 0.0
C925 C 0.68617 0.74282 0.56528 0.0
U926 U 0.70585 0.70639 0.57621 0.0
O927 O 0.70973 0.69266 0.56473 0.0
O928 O 0.72389 0.70604 0.57659 0.0
C929 C 0.7209 0.6971 0.56815 0.0
C930 C 0.69797 0.72621 0.5686 0.0
C931 C 0.72689 0.69927 0.5593 0.0
C932 C 0.73151 0.71113 0.54427 0.0
C933 C 0.72659 0.71004 0.55332 0.0
C934 C 0.73712 0.69076 0.54722 0.0
C935 C 0.73673 0.7014 0.54101 0.0
C936 C 0.7323 0.68976 0.55627 0.0
C937 C 0.69673 0.68285 0.59674 0.0
C938 C 0.69603 0.65982 0.59614 0.0
C939 C 0.68948 0.67042 0.61027 0.0
C940 C 0.69245 0.68223 0.60617 0.0
C941 C 0.69084 0.65908 0.60503 0.0
C942 C 0.69897 0.67167 0.592 0.0
C943 C 0.69683 0.69459 0.59102 0.0
O944 O 0.70691 0.72739 0.57711 0.0
O945 O 0.69457 0.71453 0.56343 0.0
O946 O 0.692 0.69267 0.58036 0.0
O947 O 0.7063 0.70368 0.59369 0.0
H948 H 0.68249 0.71712 0.58022 0.0
H949 H 0.66474 0.72423 0.58043 0.0
H950 H 0.67414 0.75498 0.56089 0.0
H951 H 0.69196 0.74782 0.56076 0.0
H952 H 0.73116 0.71953 0.53979 0.0
H953 H 0.72237 0.71746 0.55552 0.0
H954 H 0.74081 0.68294 0.54488 0.0
H955 H 0.7325 0.68131 0.56072 0.0
H956 H 0.697 0.65113 0.59191 0.0
H957 H 0.68538 0.67001 0.61707 0.0
H958 H 0.69061 0.69073 0.6099 0.0
H959 H 0.70224 0.67196 0.58467 0.0
C960 C 0.04847 0.1194 0.10598 0.0
C961 C 0.04306 0.10638 0.10304 0.0
C962 C 0.04378 0.12914 0.10076 0.0
C963 C 0.03343 0.12581 0.09228 0.0
C964 C 0.02789 0.11265 0.08927 0.0
C965 C 0.03274 0.10308 0.09474 0.0
C966 C 0.04989 0.14303 0.10437 0.0
C967 C 0.01695 0.10868 0.08017 0.0
C968 C 0.01859 0.15382 0.08755 0.0
C969 C 0.02302 0.15934 0.07907 0.0
C970 C 0.02121 0.14232 0.09138 0.0
C971 C 0.02855 0.13626 0.08674 0.0
C972 C 0.03242 0.14129 0.0777 0.0
C973 C 0.02957 0.15272 0.07395 0.0
C974 C 0.01671 0.13714 0.10088 0.0
C975 C 0.04016 0.13504 0.07243 0.0
H976 H 0.05635 0.122 0.11252 0.0
H977 H 0.02857 0.093 0.0924 0.0
H978 H 0.05227 0.14769 0.09727 0.0
H979 H 0.04406 0.14839 0.10727 0.0
H980 H 0.05782 0.144 0.11112 0.0
H981 H 0.01298 0.09827 0.07973 0.0
H982 H 0.01059 0.11437 0.08137 0.0
H983 H 0.01887 0.11067 0.07212 0.0
H984 H 0.01357 0.15881 0.09164 0.0
H985 H 0.03278 0.15668 0.0672 0.0
H986 H 0.0239 0.13871 0.10844 0.0
H987 H 0.01312 0.12661 0.09914 0.0
H988 H 0.00994 0.14193 0.1026 0.0
H989 H 0.04874 0.13637 0.07832 0.0
H990 H 0.04134 0.13922 0.06472 0.0
H991 H 0.0366 0.12453 0.0705 0.0
C992 C 0.19718 0.86412 0.37558 0.0
C993 C 0.20758 0.86047 0.38001 0.0
C994 C 0.18695 0.85491 0.37117 0.0
C995 C 0.18698 0.84162 0.37125 0.0
C996 C 0.19745 0.8378 0.37554 0.0
C997 C 0.20764 0.84727 0.37984 0.0
C998 C 0.17599 0.85945 0.36664 0.0
C999 C 0.19789 0.82374 0.37563 0.0
C1000 C 0.15683 0.82328 0.36994 0.0
C1001 C 0.15231 0.82023 0.35849 0.0
C1002 C 0.16854 0.829 0.37437 0.0
C1003 C 0.17585 0.83199 0.36719 0.0
C1004 C 0.17163 0.82769 0.3558 0.0
C1005 C 0.15994 0.82176 0.35161 0.0
C1006 C 0.17281 0.83292 0.38664 0.0
C1007 C 0.1791 0.83047 0.34782 0.0
H1008 H 0.19695 0.87425 0.37583 0.0
H1009 H 0.21565 0.84433 0.38309 0.0
H1010 H 0.17196 0.85505 0.35802 0.0
H1011 H 0.16974 0.85633 0.37163 0.0
H1012 H 0.17751 0.8701 0.36671 0.0
H1013 H 0.20647 0.82236 0.38015 0.0
H1014 H 0.19127 0.81857 0.37951 0.0
H1015 H 0.19594 0.81921 0.36703 0.0
H1016 H 0.15112 0.82211 0.3754 0.0
H1017 H 0.15666 0.819 0.3428 0.0
H1018 H 0.17372 0.84347 0.38826 0.0
H1019 H 0.18139 0.83075 0.38988 0.0
H1020 H 0.16679 0.82796 0.39127 0.0
H1021 H 0.17955 0.84057 0.34581 0.0
H1022 H 0.17556 0.824 0.33999 0.0
H1023 H 0.18801 0.82945 0.35148 0.0
C1024 C 0.458 0.88805 0.71442 0.0
C1025 C 0.45789 0.89362 0.70447 0.0
C1026 C 0.4486 0.887 0.71922 0.0
C1027 C 0.43882 0.89159 0.71393 0.0
C1028 C 0.43883 0.89763 0.70412 0.0
C1029 C 0.44831 0.89852 0.6995 0.0
C1030 C 0.44897 0.88052 0.72971 0.0
C1031 C 0.42864 0.90277 0.69824 0.0
C1032 C 0.40839 0.87838 0.71608 0.0
C1033 C 0.40641 0.88863 0.72234 0.0
C1034 C 0.41921 0.87877 0.71396 0.0
C1035 C 0.42828 0.88966 0.71821 0.0
C1036 C 0.42662 0.89951 0.72529 0.0
C1037 C 0.41571 0.89889 0.72726 0.0
C1038 C 0.42068 0.86794 0.70654 0.0
C1039 C 0.43614 0.91115 0.73017 0.0
H1040 H 0.4654 0.88436 0.71841 0.0
H1041 H 0.44799 0.90264 0.69173 0.0
H1042 H 0.44534 0.88567 0.73549 0.0
H1043 H 0.44366 0.87056 0.72765 0.0
H1044 H 0.45788 0.87998 0.73398 0.0
H1045 H 0.43026 0.90785 0.69105 0.0
H1046 H 0.42101 0.89469 0.69527 0.0
H1047 H 0.42645 0.90954 0.70402 0.0
H1048 H 0.40133 0.87028 0.71244 0.0
H1049 H 0.4143 0.90689 0.73208 0.0
H1050 H 0.42869 0.86474 0.71026 0.0
H1051 H 0.42148 0.87142 0.6985 0.0
H1052 H 0.4133 0.85952 0.70498 0.0
H1053 H 0.44415 0.90811 0.73417 0.0
H1054 H 0.43385 0.9173 0.73637 0.0
H1055 H 0.43801 0.91703 0.72349 0.0
C1056 C 0.40847 0.21362 0.94621 0.0
C1057 C 0.41612 0.2185 0.95643 0.0
C1058 C 0.39666 0.21306 0.94446 0.0
C1059 C 0.39234 0.21731 0.95322 0.0
C1060 C 0.40008 0.2226 0.9635 0.0
C1061 C 0.41195 0.22323 0.96497 0.0
C1062 C 0.38875 0.20748 0.93332 0.0
C1063 C 0.39578 0.22715 0.97304 0.0
C1064 C 0.36127 0.22042 0.9435 0.0
C1065 C 0.35545 0.20822 0.94509 0.0
C1066 C 0.37336 0.22398 0.94691 0.0
C1067 C 0.37965 0.21499 0.95176 0.0
C1068 C 0.37368 0.20289 0.9538 0.0
C1069 C 0.36164 0.19969 0.95048 0.0
C1070 C 0.37943 0.23705 0.94481 0.0
C1071 C 0.38 0.19294 0.95879 0.0
H1072 H 0.41176 0.21013 0.93957 0.0
H1073 H 0.41791 0.22702 0.97287 0.0
H1074 H 0.38276 0.19853 0.93423 0.0
H1075 H 0.38347 0.21438 0.92995 0.0
H1076 H 0.39355 0.20518 0.92725 0.0
H1077 H 0.40293 0.23204 0.98014 0.0
H1078 H 0.39005 0.23387 0.97037 0.0
H1079 H 0.3906 0.21879 0.97586 0.0
H1080 H 0.35639 0.22697 0.9393 0.0
H1081 H 0.35704 0.19023 0.95161 0.0
H1082 H 0.38396 0.23593 0.93823 0.0
H1083 H 0.38602 0.24181 0.95235 0.0
H1084 H 0.37335 0.24343 0.94218 0.0
H1085 H 0.38445 0.1894 0.95287 0.0
H1086 H 0.37411 0.18455 0.96082 0.0
H1087 H 0.38667 0.19727 0.96643 0.0
C1088 C 0.05791 0.87312 0.3212 0.0
C1089 C 0.06517 0.86626 0.31743 0.0
C1090 C 0.05888 0.88633 0.3201 0.0
C1091 C 0.06727 0.89284 0.31505 0.0
C1092 C 0.07402 0.88576 0.31048 0.0
C1093 C 0.07295 0.87257 0.31178 0.0
C1094 C 0.05151 0.8935 0.32507 0.0
C1095 C 0.0829 0.89229 0.30481 0.0
C1096 C 0.06841 0.92769 0.30876 0.0
C1097 C 0.07725 0.93437 0.31773 0.0
C1098 C 0.06485 0.91418 0.30783 0.0
C1099 C 0.07022 0.90719 0.31608 0.0
C1100 C 0.07884 0.91392 0.32531 0.0
C1101 C 0.08228 0.92736 0.32599 0.0
C1102 C 0.05565 0.90737 0.29784 0.0
C1103 C 0.08476 0.90689 0.33434 0.0
H1104 H 0.05193 0.86836 0.32564 0.0
H1105 H 0.07845 0.86728 0.30867 0.0
H1106 H 0.05698 0.90005 0.33238 0.0
H1107 H 0.04746 0.89955 0.31905 0.0
H1108 H 0.04463 0.88687 0.32771 0.0
H1109 H 0.0863 0.88523 0.30041 0.0
H1110 H 0.07917 0.89856 0.29881 0.0
H1111 H 0.0902 0.89854 0.31105 0.0
H1112 H 0.0644 0.93301 0.30238 0.0
H1113 H 0.08929 0.93231 0.33282 0.0
H1114 H 0.04907 0.90016 0.30033 0.0
H1115 H 0.05959 0.90208 0.29244 0.0
H1116 H 0.0513 0.91419 0.29295 0.0
H1117 H 0.07829 0.90046 0.33763 0.0
H1118 H 0.09076 0.91359 0.34131 0.0
H1119 H 0.08971 0.90074 0.33092 0.0
C1120 C 0.42076 0.96986 0.60221 0.0
C1121 C 0.42094 0.981 0.59677 0.0
C1122 C 0.43089 0.96564 0.60639 0.0
C1123 C 0.44149 0.9727 0.60501 0.0
C1124 C 0.44161 0.98356 0.5989 0.0
C1125 C 0.43128 0.98767 0.59491 0.0
C1126 C 0.4303 0.95407 0.61291 0.0
C1127 C 0.45263 0.99096 0.5968 0.0
C1128 C 0.46509 0.9692 0.6293 0.0
C1129 C 0.46762 0.95761 0.62579 0.0
C1130 C 0.45734 0.97501 0.62224 0.0
C1131 C 0.45236 0.96943 0.61121 0.0
C1132 C 0.45626 0.95894 0.60715 0.0
C1133 C 0.46369 0.95298 0.61453 0.0
C1134 C 0.45352 0.98625 0.62696 0.0
C1135 C 0.45177 0.95326 0.59526 0.0
H1136 H 0.41271 0.96478 0.60364 0.0
H1137 H 0.43134 0.99629 0.59065 0.0
H1138 H 0.43408 0.94672 0.60937 0.0
H1139 H 0.4354 0.95701 0.62157 0.0
H1140 H 0.42134 0.94951 0.613 0.0
H1141 H 0.45143 0.99974 0.59266 0.0
H1142 H 0.45941 0.99381 0.60464 0.0
H1143 H 0.45584 0.98467 0.59147 0.0
H1144 H 0.46852 0.97325 0.63784 0.0
H1145 H 0.4657 0.94418 0.6116 0.0
H1146 H 0.44456 0.983 0.62772 0.0
H1147 H 0.45354 0.99402 0.62139 0.0
H1148 H 0.45909 0.99033 0.63525 0.0
H1149 H 0.44321 0.94675 0.59415 0.0
H1150 H 0.45761 0.94758 0.59276 0.0
H1151 H 0.45072 0.96094 0.58968 0.0
C1152 C 0.45321 0.11659 0.93583 0.0
C1153 C 0.45902 0.12124 0.9468 0.0
C1154 C 0.44762 0.10358 0.93296 0.0
C1155 C 0.44789 0.095 0.94124 0.0
C1156 C 0.45482 0.09933 0.95206 0.0
C1157 C 0.46024 0.11244 0.95474 0.0
C1158 C 0.44046 0.09936 0.92129 0.0
C1159 C 0.45576 0.09036 0.961 0.0
C1160 C 0.4195 0.07148 0.93837 0.0
C1161 C 0.42121 0.06025 0.93328 0.0
C1162 C 0.42824 0.08266 0.94125 0.0
C1163 C 0.43912 0.08263 0.93917 0.0
C1164 C 0.44111 0.07115 0.93448 0.0
C1165 C 0.43205 0.06013 0.93141 0.0
C1166 C 0.42565 0.09468 0.94611 0.0
C1167 C 0.45264 0.07058 0.93238 0.0
H1168 H 0.4522 0.1233 0.92963 0.0
H1169 H 0.46496 0.11592 0.96318 0.0
H1170 H 0.44196 0.09006 0.91822 0.0
H1171 H 0.4312 0.09788 0.92116 0.0
H1172 H 0.44238 0.1066 0.91553 0.0
H1173 H 0.46293 0.09454 0.96834 0.0
H1174 H 0.44761 0.08839 0.96367 0.0
H1175 H 0.45709 0.081 0.95784 0.0
H1176 H 0.41109 0.0717 0.93967 0.0
H1177 H 0.43342 0.05145 0.9275 0.0
H1178 H 0.42663 0.10243 0.94058 0.0
H1179 H 0.43184 0.09822 0.95422 0.0
H1180 H 0.41679 0.09304 0.94732 0.0
H1181 H 0.4533 0.07474 0.92456 0.0
H1182 H 0.45375 0.0605 0.93159 0.0
H1183 H 0.4598 0.07626 0.93911 0.0
C1184 C 0.14967 0.23992 0.0767 0.0
C1185 C 0.15753 0.24575 0.07086 0.0
C1186 C 0.13832 0.24162 0.07437 0.0
C1187 C 0.13486 0.25017 0.06663 0.0
C1188 C 0.14304 0.25734 0.06173 0.0
C1189 C 0.15413 0.25476 0.0636 0.0
C1190 C 0.12984 0.23364 0.07973 0.0
C1191 C 0.13996 0.26741 0.0542 0.0
C1192 C 0.10345 0.24005 0.05132 0.0
C1193 C 0.09817 0.24594 0.0584 0.0
C1194 C 0.11545 0.24193 0.05356 0.0
C1195 C 0.12242 0.25039 0.06284 0.0
C1196 C 0.1172 0.25757 0.06921 0.0
C1197 C 0.10513 0.2551 0.06705 0.0
C1198 C 0.12059 0.23397 0.04655 0.0
C1199 C 0.12426 0.26723 0.07881 0.0
H1200 H 0.15218 0.23363 0.08289 0.0
H1201 H 0.15987 0.25954 0.05897 0.0
H1202 H 0.12603 0.24 0.08437 0.0
H1203 H 0.1227 0.22748 0.07327 0.0
H1204 H 0.13387 0.22732 0.08551 0.0
H1205 H 0.1477 0.2736 0.05253 0.0
H1206 H 0.13418 0.26267 0.04621 0.0
H1207 H 0.13526 0.27362 0.05792 0.0
H1208 H 0.09817 0.23335 0.04436 0.0
H1209 H 0.10124 0.25981 0.07258 0.0
H1210 H 0.12464 0.22708 0.05163 0.0
H1211 H 0.12742 0.2402 0.04359 0.0
H1212 H 0.11404 0.22842 0.03927 0.0
H1213 H 0.12576 0.26228 0.08644 0.0
H1214 H 0.11964 0.2749 0.0802 0.0
H1215 H 0.13275 0.27179 0.07749 0.0
C1216 C 0.14689 0.1095 0.12305 0.0
C1217 C 0.14486 0.09644 0.11931 0.0
C1218 C 0.15625 0.11834 0.12128 0.0
C1219 C 0.16395 0.11393 0.11589 0.0
C1220 C 0.16238 0.10056 0.11282 0.0
C1221 C 0.15268 0.09195 0.11437 0.0
C1222 C 0.15736 0.13252 0.12441 0.0
C1223 C 0.17072 0.09545 0.10756 0.0
C1224 C 0.17624 0.13863 0.09879 0.0
C1225 C 0.18632 0.14533 0.10635 0.0
C1226 C 0.16919 0.12792 0.1016 0.0
C1227 C 0.17249 0.12356 0.11213 0.0
C1228 C 0.18315 0.12967 0.11948 0.0
C1229 C 0.18985 0.14072 0.1166 0.0
C1230 C 0.15777 0.12194 0.0936 0.0
C1231 C 0.18721 0.12494 0.13057 0.0
H1232 H 0.14072 0.1129 0.12677 0.0
H1233 H 0.15105 0.08181 0.11152 0.0
H1234 H 0.16608 0.13684 0.12968 0.0
H1235 H 0.15617 0.13761 0.11685 0.0
H1236 H 0.15092 0.13428 0.12893 0.0
H1237 H 0.16855 0.08476 0.10607 0.0
H1238 H 0.1708 0.09947 0.09957 0.0
H1239 H 0.17957 0.09859 0.11298 0.0
H1240 H 0.17347 0.14231 0.09091 0.0
H1241 H 0.19768 0.14591 0.12244 0.0
H1242 H 0.15065 0.12345 0.09726 0.0
H1243 H 0.15687 0.1114 0.092 0.0
H1244 H 0.15673 0.12614 0.08557 0.0
H1245 H 0.18224 0.12775 0.13629 0.0
H1246 H 0.19649 0.12907 0.13433 0.0
H1247 H 0.18574 0.11427 0.12977 0.0
C1248 C 0.1717 0.99391 0.34504 0.0
C1249 C 0.17218 1.00715 0.34465 0.0
C1250 C 0.1814 0.98932 0.35013 0.0
C1251 C 0.19193 0.99817 0.35496 0.0
C1252 C 0.19248 0.01157 0.35477 0.0
C1253 C 0.18261 0.0159 0.34958 0.0
C1254 C 0.18041 0.97495 0.35014 0.0
C1255 C 0.20355 0.02131 0.35979 0.0
C1256 C 0.21218 0.98268 0.37505 0.0
C1257 C 0.21825 0.97793 0.36812 0.0
C1258 C 0.20422 0.99024 0.37113 0.0
C1259 C 0.20227 0.99313 0.36002 0.0
C1260 C 0.20911 0.98934 0.35329 0.0
C1261 C 0.21699 0.98173 0.35741 0.0
C1262 C 0.19722 0.99423 0.37861 0.0
C1263 C 0.20752 0.99249 0.34149 0.0
H1264 H 0.16379 0.98704 0.34105 0.0
H1265 H 0.18305 0.02615 0.34936 0.0
H1266 H 0.18624 0.97184 0.34547 0.0
H1267 H 0.18312 0.97246 0.35872 0.0
H1268 H 0.17151 0.96938 0.34637 0.0
H1269 H 0.20208 0.03123 0.36073 0.0
H1270 H 0.20786 0.01886 0.36799 0.0
H1271 H 0.20952 0.02123 0.35438 0.0
H1272 H 0.21306 0.97976 0.38332 0.0
H1273 H 0.22181 0.97829 0.35208 0.0
H1274 H 0.18827 0.98839 0.37591 0.0
H1275 H 0.19679 1.00449 0.3781 0.0
H1276 H 0.20082 0.99283 0.38737 0.0
H1277 H 0.19931 0.98646 0.33636 0.0
H1278 H 0.21464 0.99067 0.33796 0.0
H1279 H 0.20699 1.00273 0.34092 0.0
C1280 C 0.32268 0.95271 0.6772 0.0
C1281 C 0.32599 0.94081 0.67773 0.0
C1282 C 0.32278 0.9596 0.66791 0.0
C1283 C 0.32637 0.95454 0.65895 0.0
C1284 C 0.32921 0.94228 0.65922 0.0
C1285 C 0.32896 0.93556 0.66857 0.0
C1286 C 0.31948 0.97251 0.66788 0.0
C1287 C 0.33294 0.93644 0.64979 0.0
C1288 C 0.32086 0.96723 0.63071 0.0
C1289 C 0.33173 0.97481 0.63092 0.0
C1290 C 0.31882 0.96101 0.63992 0.0
C1291 C 0.32787 0.96232 0.6496 0.0
C1292 C 0.3387 0.97043 0.65005 0.0
C1293 C 0.3405 0.97656 0.64073 0.0
C1294 C 0.30713 0.95255 0.63907 0.0
C1295 C 0.34853 0.97226 0.66026 0.0
H1296 H 0.32045 0.95693 0.68423 0.0
H1297 H 0.33128 0.92627 0.66877 0.0
H1298 H 0.32715 0.98024 0.66821 0.0
H1299 H 0.31299 0.97291 0.66013 0.0
H1300 H 0.31593 0.97458 0.67501 0.0
H1301 H 0.33408 0.92646 0.65092 0.0
H1302 H 0.3265 0.93629 0.64187 0.0
H1303 H 0.34121 0.94245 0.64911 0.0
H1304 H 0.31405 0.96568 0.62316 0.0
H1305 H 0.34885 0.98258 0.64107 0.0
H1306 H 0.30419 0.95423 0.64665 0.0
H1307 H 0.30769 0.94228 0.63825 0.0
H1308 H 0.30056 0.95421 0.63182 0.0
H1309 H 0.34578 0.97534 0.66762 0.0
H1310 H 0.35616 0.97952 0.65958 0.0
H1311 H 0.35113 0.96296 0.66169 0.0
C1312 C 0.28437 0.09011 0.90931 0.0
C1313 C 0.29203 0.10193 0.91366 0.0
C1314 C 0.2884 0.07884 0.90771 0.0
C1315 C 0.30039 0.07939 0.91043 0.0
C1316 C 0.30817 0.09134 0.91445 0.0
C1317 C 0.30391 0.1024 0.91609 0.0
C1318 C 0.27978 0.0663 0.90349 0.0
C1319 C 0.32103 0.09242 0.91721 0.0
C1320 C 0.31284 0.04986 0.91733 0.0
C1321 C 0.31517 0.04624 0.90733 0.0
C1322 C 0.30755 0.0603 0.91831 0.0
C1323 C 0.30491 0.0675 0.90919 0.0
C1324 C 0.3072 0.06377 0.89906 0.0
C1325 C 0.31218 0.05309 0.89823 0.0
C1326 C 0.3049 0.06372 0.92913 0.0
C1327 C 0.30468 0.07125 0.88919 0.0
H1328 H 0.27518 0.08961 0.90723 0.0
H1329 H 0.30995 0.11136 0.91962 0.0
H1330 H 0.28228 0.06088 0.89699 0.0
H1331 H 0.27957 0.06019 0.91039 0.0
H1332 H 0.27096 0.06782 0.90009 0.0
H1333 H 0.32592 0.10255 0.91953 0.0
H1334 H 0.32358 0.08673 0.9242 0.0
H1335 H 0.32356 0.08836 0.91005 0.0
H1336 H 0.31513 0.0445 0.92435 0.0
H1337 H 0.31407 0.0503 0.89052 0.0
H1338 H 0.29568 0.06412 0.92771 0.0
H1339 H 0.31005 0.07343 0.9328 0.0
H1340 H 0.30678 0.05669 0.93519 0.0
H1341 H 0.29539 0.07134 0.8868 0.0
H1342 H 0.30706 0.06713 0.88194 0.0
H1343 H 0.3095 0.08141 0.89134 0.0
C1344 C 0.6972 0.36405 0.87536 0.0
C1345 C 0.70754 0.36025 0.87975 0.0
C1346 C 0.68689 0.35494 0.87093 0.0
C1347 C 0.68679 0.34162 0.87097 0.0
C1348 C 0.6972 0.33765 0.87521 0.0
C1349 C 0.70746 0.34701 0.87951 0.0
C1350 C 0.67601 0.35963 0.86644 0.0
C1351 C 0.69751 0.32356 0.87525 0.0
C1352 C 0.65657 0.3236 0.86983 0.0
C1353 C 0.65195 0.32058 0.8584 0.0
C1354 C 0.66831 0.32921 0.87419 0.0
C1355 C 0.67558 0.3321 0.86696 0.0
C1356 C 0.67125 0.32782 0.85557 0.0
C1357 C 0.65952 0.32202 0.85144 0.0
C1358 C 0.6727 0.33309 0.88646 0.0
C1359 C 0.67868 0.33046 0.84753 0.0
H1360 H 0.69707 0.3742 0.87566 0.0
H1361 H 0.71542 0.34395 0.8827 0.0
H1362 H 0.67194 0.35527 0.85782 0.0
H1363 H 0.66976 0.35658 0.87144 0.0
H1364 H 0.67764 0.37029 0.86652 0.0
H1365 H 0.70594 0.32207 0.88004 0.0
H1366 H 0.69062 0.31832 0.87877 0.0
H1367 H 0.69593 0.31918 0.86664 0.0
H1368 H 0.65091 0.3225 0.87535 0.0
H1369 H 0.65616 0.31928 0.84264 0.0
H1370 H 0.67377 0.34367 0.88811 0.0
H1371 H 0.68123 0.33076 0.88963 0.0
H1372 H 0.66667 0.32823 0.89113 0.0
H1373 H 0.67932 0.3406 0.8456 0.0
H1374 H 0.67499 0.32406 0.83968 0.0
H1375 H 0.68752 0.3292 0.85113 0.0
C1376 C 0.95713 0.39665 0.21542 0.0
C1377 C 0.95522 0.39841 0.20415 0.0
C1378 C 0.94782 0.39337 0.22029 0.0
C1379 C 0.93642 0.39187 0.21373 0.0
C1380 C 0.93449 0.39304 0.20226 0.0
C1381 C 0.94389 0.39622 0.19763 0.0
C1382 C 0.95016 0.39182 0.23248 0.0
C1383 C 0.92249 0.39153 0.19492 0.0
C1384 C 0.90843 0.37772 0.22097 0.0
C1385 C 0.90502 0.38897 0.22382 0.0
C1386 C 0.91922 0.37838 0.21866 0.0
C1387 C 0.9265 0.39059 0.21883 0.0
C1388 C 0.92328 0.4019 0.22225 0.0
C1389 C 0.91265 0.40092 0.22483 0.0
C1390 C 0.92256 0.3661 0.21544 0.0
C1391 C 0.93061 0.41513 0.22229 0.0
H1392 H 0.96587 0.39816 0.22047 0.0
H1393 H 0.94235 0.39709 0.18884 0.0
H1394 H 0.94695 0.39913 0.23679 0.0
H1395 H 0.94544 0.38221 0.23377 0.0
H1396 H 0.95947 0.39284 0.23636 0.0
H1397 H 0.92248 0.39221 0.18609 0.0
H1398 H 0.91706 0.38209 0.19562 0.0
H1399 H 0.91842 0.39914 0.19761 0.0
H1400 H 0.90253 0.36847 0.22023 0.0
H1401 H 0.90994 0.40964 0.22689 0.0
H1402 H 0.9315 0.36616 0.22005 0.0
H1403 H 0.92231 0.36537 0.20652 0.0
H1404 H 0.9167 0.35742 0.21707 0.0
H1405 H 0.93958 0.41572 0.22709 0.0
H1406 H 0.92725 0.42289 0.22583 0.0
H1407 H 0.9309 0.41694 0.21369 0.0
C1408 C 0.91092 0.71465 0.46489 0.0
C1409 C 0.91758 0.72243 0.45901 0.0
C1410 C 0.89902 0.71395 0.46293 0.0
C1411 C 0.89363 0.72097 0.45474 0.0
C1412 C 0.90045 0.72962 0.44944 0.0
C1413 C 0.91234 0.73026 0.45165 0.0
C1414 C 0.8921 0.70507 0.46912 0.0
C1415 C 0.89505 0.73749 0.44085 0.0
C1416 C 0.86399 0.70337 0.4381 0.0
C1417 C 0.85666 0.70951 0.4425 0.0
C1418 C 0.87597 0.70725 0.44189 0.0
C1419 C 0.88086 0.71755 0.45036 0.0
C1420 C 0.87356 0.72409 0.45464 0.0
C1421 C 0.86153 0.71994 0.45071 0.0
C1422 C 0.88339 0.70002 0.43702 0.0
C1423 C 0.87832 0.73512 0.46368 0.0
H1424 H 0.91496 0.70878 0.47077 0.0
H1425 H 0.91741 0.73632 0.44707 0.0
H1426 H 0.88617 0.71007 0.47225 0.0
H1427 H 0.88675 0.69658 0.46344 0.0
H1428 H 0.89767 0.70163 0.4762 0.0
H1429 H 0.90161 0.7448 0.4384 0.0
H1430 H 0.88989 0.731 0.43337 0.0
H1431 H 0.88912 0.74246 0.44399 0.0
H1432 H 0.86036 0.69512 0.43196 0.0
H1433 H 0.85594 0.72477 0.45414 0.0
H1434 H 0.88822 0.69505 0.44351 0.0
H1435 H 0.8898 0.70684 0.43396 0.0
H1436 H 0.87826 0.6927 0.43008 0.0
H1437 H 0.8795 0.73117 0.4718 0.0
H1438 H 0.87229 0.74169 0.4634 0.0
H1439 H 0.88679 0.74079 0.46315 0.0
C1440 C 0.93205 0.55848 0.43752 0.0
C1441 C 0.92198 0.55897 0.4296 0.0
C1442 C 0.94095 0.56958 0.44113 0.0
C1443 C 0.93942 0.58149 0.43708 0.0
C1444 C 0.92943 0.58178 0.42871 0.0
C1445 C 0.92093 0.57048 0.42499 0.0
C1446 C 0.95163 0.56858 0.44965 0.0
C1447 C 0.92725 0.59422 0.42426 0.0
C1448 C 0.94915 0.61328 0.4548 0.0
C1449 C 0.95597 0.62063 0.4488 0.0
C1450 C 0.9445 0.60012 0.45168 0.0
C1451 C 0.94709 0.59399 0.44258 0.0
C1452 C 0.95534 0.60091 0.43755 0.0
C1453 C 0.95957 0.61425 0.4406 0.0
C1454 C 0.93595 0.59312 0.45748 0.0
C1455 C 0.95908 0.59438 0.42849 0.0
H1456 H 0.93284 0.54954 0.44107 0.0
H1457 H 0.91307 0.5708 0.41891 0.0
H1458 H 0.95916 0.57626 0.44944 0.0
H1459 H 0.95006 0.56939 0.458 0.0
H1460 H 0.95377 0.55904 0.44835 0.0
H1461 H 0.91911 0.59274 0.41769 0.0
H1462 H 0.9268 0.60105 0.43107 0.0
H1463 H 0.93443 0.59882 0.42081 0.0
H1464 H 0.94676 0.61804 0.4615 0.0
H1465 H 0.96506 0.61976 0.43607 0.0
H1466 H 0.93855 0.58428 0.46046 0.0
H1467 H 0.92734 0.59012 0.45159 0.0
H1468 H 0.93516 0.59917 0.46464 0.0
H1469 H 0.96094 0.58496 0.43081 0.0
H1470 H 0.96685 0.60039 0.42672 0.0
H1471 H 0.95204 0.59245 0.4208 0.0
C1472 C 0.5684 0.42783 0.807 0.0
C1473 C 0.57758 0.43445 0.81568 0.0
C1474 C 0.5648 0.41431 0.80615 0.0
C1475 C 0.57054 0.40732 0.81415 0.0
C1476 C 0.57973 0.41399 0.82295 0.0
C1477 C 0.58314 0.42741 0.82359 0.0
C1478 C 0.55493 0.40753 0.79668 0.0
C1479 C 0.58616 0.40693 0.83163 0.0
C1480 C 0.55813 0.37406 0.82089 0.0
C1481 C 0.56465 0.36659 0.81662 0.0
C1482 C 0.5593 0.3872 0.81941 0.0
C1483 C 0.56715 0.393 0.81349 0.0
C1484 C 0.5731 0.3853 0.80844 0.0
C1485 C 0.57184 0.37219 0.81013 0.0
C1486 C 0.55282 0.39506 0.82497 0.0
C1487 C 0.58137 0.39108 0.80186 0.0
H1488 H 0.56405 0.43321 0.80088 0.0
H1489 H 0.59043 0.43239 0.83015 0.0
H1490 H 0.55765 0.40006 0.79203 0.0
H1491 H 0.54772 0.40253 0.79991 0.0
H1492 H 0.55172 0.4143 0.79087 0.0
H1493 H 0.59285 0.41359 0.83814 0.0
H1494 H 0.58007 0.40093 0.83561 0.0
H1495 H 0.59039 0.40035 0.82769 0.0
H1496 H 0.55262 0.36985 0.82599 0.0
H1497 H 0.57676 0.36641 0.80665 0.0
H1498 H 0.54888 0.40143 0.81922 0.0
H1499 H 0.55891 0.40133 0.83214 0.0
H1500 H 0.54595 0.38888 0.82797 0.0
H1501 H 0.57734 0.39713 0.79583 0.0
H1502 H 0.58419 0.38358 0.79733 0.0
H1503 H 0.5891 0.39742 0.80751 0.0
C1504 C 0.53981 0.61677 0.60966 0.0
C1505 C 0.54137 0.60613 0.60359 0.0
C1506 C 0.53581 0.62688 0.60437 0.0
C1507 C 0.53309 0.62625 0.59268 0.0
C1508 C 0.53416 0.61525 0.58648 0.0
C1509 C 0.53845 0.60539 0.59202 0.0
C1510 C 0.53493 0.63847 0.61132 0.0
C1511 C 0.53108 0.61405 0.57402 0.0
C1512 C 0.5161 0.65077 0.58067 0.0
C1513 C 0.52491 0.66084 0.57941 0.0
C1514 C 0.51852 0.63917 0.58447 0.0
C1515 C 0.53004 0.63761 0.58714 0.0
C1516 C 0.53888 0.64751 0.58544 0.0
C1517 C 0.53622 0.65897 0.58161 0.0
C1518 C 0.50881 0.62875 0.58596 0.0
C1519 C 0.55128 0.64627 0.58819 0.0
H1520 H 0.54217 0.61743 0.61861 0.0
H1521 H 0.53956 0.59712 0.5873 0.0
H1522 H 0.54089 0.64718 0.60989 0.0
H1523 H 0.52609 0.64022 0.60888 0.0
H1524 H 0.53706 0.63731 0.62029 0.0
H1525 H 0.53072 0.60416 0.57043 0.0
H1526 H 0.52264 0.61655 0.57076 0.0
H1527 H 0.53761 0.62091 0.57115 0.0
H1528 H 0.50731 0.65203 0.57882 0.0
H1529 H 0.54313 0.66671 0.58081 0.0
H1530 H 0.50974 0.62779 0.5949 0.0
H1531 H 0.50915 0.61933 0.582 0.0
H1532 H 0.50024 0.63086 0.58243 0.0
H1533 H 0.55433 0.64583 0.59721 0.0
H1534 H 0.55703 0.65447 0.58575 0.0
H1535 H 0.55206 0.63719 0.58397 0.0
C1536 C 0.96789 0.45873 0.11524 0.0
C1537 C 0.96694 0.45403 0.12535 0.0
C1538 C 0.96004 0.46562 0.10961 0.0
C1539 C 0.95114 0.46809 0.11429 0.0
C1540 C 0.95062 0.46416 0.12483 0.0
C1541 C 0.95846 0.45712 0.1302 0.0
C1542 C 0.96098 0.46979 0.09845 0.0
C1543 C 0.94134 0.46675 0.13018 0.0
C1544 C 0.93199 0.49141 0.10464 0.0
C1545 C 0.92172 0.48287 0.09895 0.0
C1546 C 0.94198 0.48689 0.10904 0.0
C1547 C 0.94163 0.47351 0.1078 0.0
C1548 C 0.93155 0.46501 0.10135 0.0
C1549 C 0.92173 0.46979 0.097 0.0
C1550 C 0.95263 0.49633 0.11562 0.0
C1551 C 0.93084 0.45069 0.09969 0.0
H1552 H 0.97461 0.45674 0.11155 0.0
H1553 H 0.95756 0.45351 0.13795 0.0
H1554 H 0.953 0.46526 0.09207 0.0
H1555 H 0.9619 0.48037 0.09858 0.0
H1556 H 0.96843 0.46715 0.09597 0.0
H1557 H 0.9427 0.46409 0.13879 0.0
H1558 H 0.94103 0.4771 0.1303 0.0
H1559 H 0.93283 0.46114 0.12529 0.0
H1560 H 0.93209 0.50158 0.10602 0.0
H1561 H 0.91383 0.46309 0.09269 0.0
H1562 H 0.96043 0.49431 0.11348 0.0
H1563 H 0.95361 0.49531 0.12455 0.0
H1564 H 0.95218 0.50646 0.11423 0.0
H1565 H 0.93834 0.44881 0.09684 0.0
H1566 H 0.92283 0.44559 0.09358 0.0
H1567 H 0.93108 0.44655 0.10767 0.0
C1568 C 0.60347 0.74945 0.5513 0.0
C1569 C 0.5982 0.74804 0.56008 0.0
C1570 C 0.61542 0.7507 0.55312 0.0
C1571 C 0.62211 0.75001 0.56388 0.0
C1572 C 0.61689 0.74936 0.57285 0.0
C1573 C 0.605 0.74853 0.57085 0.0
C1574 C 0.62076 0.75189 0.54342 0.0
C1575 C 0.62366 0.74847 0.58443 0.0
C1576 C 0.64661 0.73271 0.56598 0.0
C1577 C 0.65634 0.74288 0.56904 0.0
C1578 C 0.63548 0.73499 0.56419 0.0
C1579 C 0.63399 0.74778 0.5655 0.0
C1580 C 0.64376 0.75813 0.56859 0.0
C1581 C 0.65485 0.75556 0.57024 0.0
C1582 C 0.62531 0.72366 0.56089 0.0
C1583 C 0.64253 0.7719 0.56999 0.0
H1584 H 0.59818 0.74912 0.54297 0.0
H1585 H 0.60089 0.74732 0.57762 0.0
H1586 H 0.62885 0.75942 0.54556 0.0
H1587 H 0.62299 0.74264 0.54128 0.0
H1588 H 0.61485 0.75432 0.53601 0.0
H1589 H 0.61859 0.74927 0.59063 0.0
H1590 H 0.62629 0.73908 0.5848 0.0
H1591 H 0.63163 0.75617 0.58675 0.0
H1592 H 0.6477 0.72292 0.5648 0.0
H1593 H 0.66235 0.76345 0.57258 0.0
H1594 H 0.61979 0.72468 0.55272 0.0
H1595 H 0.61997 0.72342 0.56694 0.0
H1596 H 0.62796 0.71431 0.56039 0.0
H1597 H 0.63919 0.77501 0.56175 0.0
H1598 H 0.65087 0.77856 0.57404 0.0
H1599 H 0.63626 0.77278 0.57494 0.0
C1600 C 0.65114 0.60486 0.62692 0.0
C1601 C 0.64555 0.5944 0.61893 0.0
C1602 C 0.66065 0.61384 0.62553 0.0
C1603 C 0.66468 0.61229 0.61594 0.0
C1604 C 0.65991 0.60098 0.60851 0.0
C1605 C 0.65033 0.5922 0.61005 0.0
C1606 C 0.66547 0.62573 0.63369 0.0
C1607 C 0.66421 0.59877 0.59838 0.0
C1608 C 0.67259 0.64366 0.60386 0.0
C1609 C 0.6846 0.64657 0.60732 0.0
C1610 C 0.66611 0.63232 0.60632 0.0
C1611 C 0.67179 0.62366 0.61249 0.0
C1612 C 0.684 0.62637 0.61576 0.0
C1613 C 0.6903 0.63786 0.6131 0.0
C1614 C 0.65313 0.6298 0.60256 0.0
C1615 C 0.69035 0.61738 0.62232 0.0
H1616 H 0.6475 0.60667 0.63379 0.0
H1617 H 0.64617 0.58399 0.60395 0.0
H1618 H 0.675 0.62825 0.63554 0.0
H1619 H 0.66224 0.63398 0.63004 0.0
H1620 H 0.66287 0.62445 0.64156 0.0
H1621 H 0.66106 0.58865 0.59454 0.0
H1622 H 0.66117 0.60522 0.59219 0.0
H1623 H 0.67376 0.60113 0.60046 0.0
H1624 H 0.66825 0.65041 0.59931 0.0
H1625 H 0.69963 0.64019 0.61574 0.0
H1626 H 0.64941 0.62934 0.60983 0.0
H1627 H 0.64971 0.62037 0.59746 0.0
H1628 H 0.65011 0.63737 0.59762 0.0
H1629 H 0.68904 0.61775 0.63079 0.0
H1630 H 0.69974 0.61998 0.62295 0.0
H1631 H 0.68692 0.60729 0.61851 0.0
C1632 C 0.71855 0.48373 0.86044 0.0
C1633 C 0.71735 0.47642 0.86925 0.0
C1634 C 0.71047 0.49107 0.8562 0.0
C1635 C 0.7008 0.49072 0.86065 0.0
C1636 C 0.69981 0.4837 0.86981 0.0
C1637 C 0.70817 0.47675 0.87406 0.0
C1638 C 0.712 0.49877 0.84666 0.0
C1639 C 0.68952 0.48278 0.87464 0.0
C1640 C 0.6804 0.51349 0.85302 0.0
C1641 C 0.67149 0.50569 0.84476 0.0
C1642 C 0.69012 0.50886 0.85821 0.0
C1643 C 0.69098 0.49623 0.85493 0.0
C1644 C 0.68211 0.48846 0.84643 0.0
C1645 C 0.67249 0.49326 0.84149 0.0
C1646 C 0.6994 0.51741 0.86725 0.0
C1647 C 0.68271 0.47498 0.84259 0.0
H1648 H 0.72568 0.48347 0.85675 0.0
H1649 H 0.70716 0.47095 0.88078 0.0
H1650 H 0.70488 0.49482 0.83924 0.0
H1651 H 0.71161 0.50891 0.84868 0.0
H1652 H 0.72031 0.49865 0.84457 0.0
H1653 H 0.69052 0.47781 0.88229 0.0
H1654 H 0.68811 0.49252 0.87655 0.0
H1655 H 0.68169 0.47735 0.86849 0.0
H1656 H 0.67966 0.52311 0.85555 0.0
H1657 H 0.66575 0.4873 0.83494 0.0
H1658 H 0.70773 0.51896 0.86491 0.0
H1659 H 0.70056 0.51267 0.87499 0.0
H1660 H 0.6974 0.52694 0.86892 0.0
H1661 H 0.69049 0.4753 0.83944 0.0
H1662 H 0.67504 0.47016 0.83594 0.0
H1663 H 0.68343 0.46902 0.84963 0.0
C1664 C 0.81954 0.46535 0.12936 0.0
C1665 C 0.83045 0.47267 0.12934 0.0
C1666 C 0.81761 0.45932 0.13869 0.0
C1667 C 0.82681 0.4605 0.14822 0.0
C1668 C 0.8377 0.46828 0.14842 0.0
C1669 C 0.83936 0.47432 0.13904 0.0
C1670 C 0.80581 0.45132 0.13821 0.0
C1671 C 0.84773 0.46986 0.15843 0.0
C1672 C 0.82221 0.45213 0.17627 0.0
C1673 C 0.82508 0.44001 0.1769 0.0
C1674 C 0.82225 0.45869 0.16681 0.0
C1675 C 0.82532 0.45307 0.15777 0.0
C1676 C 0.82776 0.44062 0.15816 0.0
C1677 C 0.82758 0.43424 0.16769 0.0
C1678 C 0.81949 0.47189 0.16672 0.0
C1679 C 0.83096 0.43421 0.14865 0.0
H1680 H 0.8126 0.4639 0.12193 0.0
H1681 H 0.84774 0.48018 0.13924 0.0
H1682 H 0.80624 0.44105 0.13868 0.0
H1683 H 0.80277 0.45439 0.1454 0.0
H1684 H 0.79938 0.4521 0.13051 0.0
H1685 H 0.85546 0.4768 0.15752 0.0
H1686 H 0.84534 0.47323 0.16592 0.0
H1687 H 0.85003 0.4604 0.15981 0.0
H1688 H 0.82038 0.45676 0.18336 0.0
H1689 H 0.82959 0.42478 0.16799 0.0
H1690 H 0.8134 0.4727 0.15882 0.0
H1691 H 0.82749 0.47928 0.16745 0.0
H1692 H 0.8157 0.4741 0.17364 0.0
H1693 H 0.82432 0.43395 0.14085 0.0
H1694 H 0.83194 0.42421 0.14995 0.0
H1695 H 0.83921 0.43989 0.14758 0.0
C1696 C 0.80379 0.54453 0.40832 0.0
C1697 C 0.81585 0.54666 0.41062 0.0
C1698 C 0.79825 0.55466 0.40963 0.0
C1699 C 0.80491 0.56724 0.4135 0.0
C1700 C 0.81707 0.56935 0.41634 0.0
C1701 C 0.82238 0.55911 0.41476 0.0
C1702 C 0.78526 0.55195 0.4064 0.0
C1703 C 0.82451 0.58253 0.42079 0.0
C1704 C 0.79328 0.5973 0.40684 0.0
C1705 C 0.79037 0.60056 0.41662 0.0
C1706 C 0.79754 0.58613 0.40552 0.0
C1707 C 0.79927 0.57832 0.41434 0.0
C1708 C 0.7962 0.58153 0.42418 0.0
C1709 C 0.79166 0.59252 0.42515 0.0
C1710 C 0.80037 0.5828 0.39477 0.0
C1711 C 0.798 0.57356 0.43382 0.0
H1712 H 0.79862 0.53494 0.40532 0.0
H1713 H 0.83168 0.561 0.41644 0.0
H1714 H 0.7819 0.5569 0.41253 0.0
H1715 H 0.78236 0.5557 0.39835 0.0
H1716 H 0.78139 0.54147 0.40554 0.0
H1717 H 0.83379 0.58236 0.42349 0.0
H1718 H 0.8234 0.58924 0.41433 0.0
H1719 H 0.82184 0.58647 0.42791 0.0
H1720 H 0.79222 0.60347 0.40022 0.0
H1721 H 0.78949 0.59511 0.43276 0.0
H1722 H 0.79597 0.57272 0.39144 0.0
H1723 H 0.80976 0.58344 0.3962 0.0
H1724 H 0.79776 0.5893 0.38845 0.0
H1725 H 0.79297 0.56354 0.43127 0.0
H1726 H 0.79538 0.57752 0.44098 0.0
H1727 H 0.80721 0.57312 0.43652 0.0
C1728 C 0.02575 0.30831 0.0913 0.0
C1729 C 0.01865 0.2961 0.091 0.0
C1730 C 0.02477 0.31902 0.09773 0.0
C1731 C 0.01656 0.31751 0.10411 0.0
C1732 C 0.00912 0.30532 0.10359 0.0
C1733 C 0.01025 0.29476 0.09704 0.0
C1734 C 0.03286 0.33183 0.09805 0.0
C1735 C 1.00022 0.30334 0.11024 0.0
C1736 C 0.02325 0.34037 0.13024 0.0
C1737 C 0.01573 0.34869 0.1272 0.0
C1738 C 0.02352 0.33017 0.12283 0.0
C1739 C 0.01636 0.32842 0.11196 0.0
C1740 C 0.00909 0.33705 0.10866 0.0
C1741 C 1.00878 0.34701 0.11634 0.0
C1742 C 0.03134 0.32112 0.12671 0.0
C1743 C 1.00154 0.33568 0.09706 0.0
H1744 H 0.03239 0.30942 0.08683 0.0
H1745 H 1.00465 0.28541 0.09674 0.0
H1746 H 0.02802 0.33962 0.0968 0.0
H1747 H 0.03906 0.33421 0.10628 0.0
H1748 H 0.0378 0.33178 0.09166 0.0
H1749 H 0.99473 0.29344 0.1085 0.0
H1750 H 1.00457 0.3051 0.11918 0.0
H1751 H 0.99462 0.31035 0.10842 0.0
H1752 H 0.02887 0.34173 0.13849 0.0
H1753 H 1.00282 0.35323 0.11389 0.0
H1754 H 0.03755 0.32123 0.12153 0.0
H1755 H 0.02619 0.31111 0.1258 0.0
H1756 H 0.03623 0.32368 0.13549 0.0
H1757 H 1.00693 0.33634 0.09104 0.0
H1758 H 0.99637 0.3432 0.09578 0.0
H1759 H 0.99559 0.32607 0.0952 0.0
C1760 C 0.04611 0.74854 0.3822 0.0
C1761 C 0.04837 0.76187 0.38134 0.0
C1762 C 0.04021 0.74322 0.38985 0.0
C1763 C 0.03641 0.75138 0.39682 0.0
C1764 C 0.03851 0.76479 0.39589 0.0
C1765 C 0.04446 0.76987 0.3882 0.0
C1766 C 0.03813 0.72885 0.39055 0.0
C1767 C 0.03467 0.77384 0.40319 0.0
C1768 C 0.01221 0.7364 0.40962 0.0
C1769 C 0.01824 0.73473 0.42028 0.0
C1770 C 0.01801 0.74186 0.40196 0.0
C1771 C 0.03016 0.74586 0.40501 0.0
C1772 C 0.0363 0.74446 0.41583 0.0
C1773 C 0.03028 0.73885 0.42331 0.0
C1774 C 0.01113 0.74308 0.3905 0.0
C1775 C 0.04925 0.74865 0.41945 0.0
H1776 H 0.04896 0.74224 0.37687 0.0
H1777 H 0.04633 0.78019 0.38778 0.0
H1778 H 0.04252 0.72687 0.3989 0.0
H1779 H 0.0288 0.72476 0.3893 0.0
H1780 H 0.04131 0.72377 0.38433 0.0
H1781 H 0.03648 0.78394 0.40111 0.0
H1782 H 0.0253 0.7707 0.40245 0.0
H1783 H 0.03915 0.7736 0.41196 0.0
H1784 H 1.00294 0.73303 0.40712 0.0
H1785 H 0.03501 0.73765 0.43154 0.0
H1786 H 0.01374 0.73731 0.3843 0.0
H1787 H 0.01291 0.75326 0.38866 0.0
H1788 H 1.00171 0.73976 0.3895 0.0
H1789 H 0.05314 0.74238 0.41479 0.0
H1790 H 0.05264 0.74811 0.42842 0.0
H1791 H 0.0521 0.75867 0.41758 0.0
C1792 C 0.52833 0.80753 0.59644 0.0
C1793 C 0.51988 0.79604 0.5936 0.0
C1794 C 0.52692 0.81791 0.60297 0.0
C1795 C 0.51676 0.81685 0.60671 0.0
C1796 C 0.50817 0.80529 0.60385 0.0
C1797 C 0.50987 0.79498 0.59739 0.0
C1798 C 0.53636 0.82998 0.60593 0.0
C1799 C 0.49713 0.80388 0.60749 0.0
C1800 C 0.5173 0.84005 0.63119 0.0
C1801 C 0.51262 0.84973 0.62584 0.0
C1802 C 0.51867 0.82925 0.62508 0.0
C1803 C 0.51505 0.828 0.61338 0.0
C1804 C 0.51012 0.83764 0.60798 0.0
C1805 C 0.50904 0.84841 0.61427 0.0
C1806 C 0.52414 0.81928 0.63112 0.0
C1807 C 0.50604 0.83665 0.59555 0.0
H1808 H 0.53618 0.80833 0.59369 0.0
H1809 H 0.5033 0.78614 0.59517 0.0
H1810 H 0.53288 0.83849 0.60329 0.0
H1811 H 0.53984 0.83161 0.61503 0.0
H1812 H 0.54355 0.82943 0.60205 0.0
H1813 H 0.49126 0.79432 0.60452 0.0
H1814 H 0.49906 0.8052 0.61664 0.0
H1815 H 0.49257 0.81149 0.60435 0.0
H1816 H 0.52009 0.84106 0.64013 0.0
H1817 H 0.50526 0.85578 0.61012 0.0
H1818 H 0.53205 0.81853 0.62849 0.0
H1819 H 0.51819 0.80967 0.62897 0.0
H1820 H 0.52644 0.82161 0.64023 0.0
H1821 H 0.51344 0.83687 0.59183 0.0
H1822 H 0.50182 0.84461 0.59267 0.0
H1823 H 0.49985 0.82734 0.5924 0.0
C1824 C 0.51651 0.22631 0.90882 0.0
C1825 C 0.51669 0.23326 0.91869 0.0
C1826 C 0.52202 0.23212 0.90112 0.0
C1827 C 0.52808 0.24515 0.90345 0.0
C1828 C 0.52822 0.25225 0.91341 0.0
C1829 C 0.52239 0.24625 0.92087 0.0
C1830 C 0.5215 0.22424 0.89057 0.0
C1831 C 0.53473 0.26609 0.91627 0.0
C1832 C 0.55229 0.25558 0.88939 0.0
C1833 C 0.54721 0.2623 0.8809 0.0
C1834 C 0.54617 0.24999 0.89676 0.0
C1835 C 0.53465 0.25114 0.89568 0.0
C1836 C 0.52942 0.25782 0.88709 0.0
C1837 C 0.53577 0.26335 0.87983 0.0
C1838 C 0.55209 0.24299 0.9058 0.0
C1839 C 0.51711 0.25908 0.88558 0.0
H1840 H 0.51202 0.21627 0.90712 0.0
H1841 H 0.52254 0.25158 0.92853 0.0
H1842 H 0.51846 0.22934 0.88332 0.0
H1843 H 0.53025 0.22296 0.89047 0.0
H1844 H 0.51571 0.21456 0.88963 0.0
H1845 H 0.53405 0.27026 0.92435 0.0
H1846 H 0.54396 0.26674 0.9166 0.0
H1847 H 0.53141 0.27203 0.90976 0.0
H1848 H 0.56118 0.25491 0.89044 0.0
H1849 H 0.53173 0.26841 0.87325 0.0
H1850 H 0.54712 0.23295 0.90527 0.0
H1851 H 0.55247 0.24781 0.91399 0.0
H1852 H 0.56099 0.24269 0.90536 0.0
H1853 H 0.51132 0.24939 0.88435 0.0
H1854 H 0.51423 0.2644 0.87841 0.0
H1855 H 0.51614 0.26421 0.89312 0.0
C1856 C 0.10254 0.0279 0.2437 0.0
C1857 C 0.09292 0.02602 0.24819 0.0
C1858 C 0.10163 0.03079 0.23274 0.0
C1859 C 0.0908 0.03159 0.226 0.0
C1860 C 0.0811 0.02995 0.23051 0.0
C1861 C 0.08231 0.02735 0.24155 0.0
C1862 C 0.11223 0.03273 0.22831 0.0
C1863 C 0.06937 0.03055 0.22356 0.0
C1864 C 0.08996 0.04893 0.20012 0.0
C1865 C 0.08803 0.03868 0.19193 0.0
C1866 C 0.09084 0.04676 0.21122 0.0
C1867 C 0.08959 0.034 0.2142 0.0
C1868 C 0.08737 0.02357 0.20593 0.0
C1869 C 0.08672 0.02605 0.1949 0.0
C1870 C 0.09336 0.05815 0.2198 0.0
C1871 C 0.08579 0.00982 0.20874 0.0
H1872 H 0.11074 0.02673 0.24863 0.0
H1873 H 0.07485 0.02622 0.24495 0.0
H1874 H 0.11116 0.02497 0.22165 0.0
H1875 H 0.11341 0.04202 0.22464 0.0
H1876 H 0.12014 0.03269 0.23482 0.0
H1877 H 0.06287 0.02997 0.2285 0.0
H1878 H 0.06979 0.0396 0.21952 0.0
H1879 H 0.06639 0.02243 0.2169 0.0
H1880 H 0.09115 0.05873 0.19789 0.0
H1881 H 0.08518 0.0181 0.18858 0.0
H1882 H 0.10155 0.05836 0.226 0.0
H1883 H 0.08647 0.05722 0.22428 0.0
H1884 H 0.09406 0.06746 0.21612 0.0
H1885 H 0.09385 0.00837 0.21429 0.0
H1886 H 0.08347 1.00277 0.20128 0.0
H1887 H 0.07895 1.00772 0.21324 0.0
C1888 C 0.29597 0.95029 0.46585 0.0
C1889 C 0.29705 0.95794 0.45719 0.0
C1890 C 0.30249 0.95448 0.47675 0.0
C1891 C 0.31009 0.96675 0.47915 0.0
C1892 C 0.31157 0.97431 0.47041 0.0
C1893 C 0.30517 0.96974 0.45955 0.0
C1894 C 0.30101 0.9459 0.48577 0.0
C1895 C 0.31968 0.98738 0.47255 0.0
C1896 C 0.31629 0.98288 0.50852 0.0
C1897 C 0.32739 0.98111 0.51314 0.0
C1898 C 0.31068 0.97851 0.49739 0.0
C1899 C 0.31618 0.97189 0.49084 0.0
C1900 C 0.3274 0.97009 0.4955 0.0
C1901 C 0.33287 0.97479 0.50656 0.0
C1902 C 0.29889 0.98101 0.49263 0.0
C1903 C 0.33352 0.96281 0.489 0.0
H1904 H 0.28973 0.9412 0.46423 0.0
H1905 H 0.30642 0.97558 0.45292 0.0
H1906 H 0.30953 0.94493 0.49074 0.0
H1907 H 0.29676 0.95031 0.49143 0.0
H1908 H 0.29573 0.93613 0.48242 0.0
H1909 H 0.31994 0.99202 0.46484 0.0
H1910 H 0.31698 0.99381 0.47822 0.0
H1911 H 0.32852 0.98649 0.47668 0.0
H1912 H 0.31207 0.98784 0.51357 0.0
H1913 H 0.3414 0.97325 0.51016 0.0
H1914 H 0.29251 0.97172 0.49008 0.0
H1915 H 0.29891 0.98613 0.48513 0.0
H1916 H 0.29604 0.98685 0.49862 0.0
H1917 H 0.32982 0.95234 0.48853 0.0
H1918 H 0.34289 0.96457 0.49294 0.0
H1919 H 0.33233 0.96547 0.48042 0.0
C1920 C 0.34392 0.95891 0.8401 0.0
C1921 C 0.35481 0.95999 0.84735 0.0
C1922 C 0.34095 0.95188 0.8296 0.0
C1923 C 0.34909 0.94592 0.82619 0.0
C1924 C 0.35986 0.94644 0.83367 0.0
C1925 C 0.36253 0.95332 0.84415 0.0
C1926 C 0.32926 0.95126 0.82198 0.0
C1927 C 0.36883 0.94023 0.83042 0.0
C1928 C 0.34175 0.9212 0.801 0.0
C1929 C 0.34546 0.92876 0.79313 0.0
C1930 C 0.34236 0.9267 0.81165 0.0
C1931 C 0.34688 0.94009 0.81455 0.0
C1932 C 0.35023 0.94784 0.80651 0.0
C1933 C 0.34947 0.9421 0.79592 0.0
C1934 C 0.33855 0.91812 0.81992 0.0
C1935 C 0.35513 0.96214 0.80923 0.0
H1936 H 0.33787 0.96399 0.84243 0.0
H1937 H 0.37083 0.95373 0.84978 0.0
H1938 H 0.33023 0.95655 0.81473 0.0
H1939 H 0.32499 0.94111 0.81881 0.0
H1940 H 0.32357 0.9555 0.82615 0.0
H1941 H 0.3765 0.94084 0.8374 0.0
H1942 H 0.36513 0.92994 0.82734 0.0
H1943 H 0.37168 0.94507 0.82359 0.0
H1944 H 0.33849 0.91091 0.79888 0.0
H1945 H 0.35251 0.94803 0.78998 0.0
H1946 H 0.33258 0.92221 0.82378 0.0
H1947 H 0.34612 0.91757 0.82663 0.0
H1948 H 0.33421 0.90819 0.81608 0.0
H1949 H 0.34913 0.96679 0.81258 0.0
H1950 H 0.35679 0.96693 0.80191 0.0
H1951 H 0.36334 0.96382 0.81571 0.0
C1952 C 0.23927 0.21068 0.02304 0.0
C1953 C 0.24322 0.20357 0.03173 0.0
C1954 C 0.24327 0.21053 0.01339 0.0
C1955 C 0.25124 0.20287 0.01229 0.0
C1956 C 0.25561 0.19612 0.02119 0.0
C1957 C 0.25167 0.19668 0.03082 0.0
C1958 C 0.23857 0.21812 1.00421 0.0
C1959 C 0.26418 0.1879 0.02041 0.0
C1960 C 0.25203 0.18889 0.98396 0.0
C1961 C 0.2621 0.19667 0.98239 0.0
C1962 C 0.24819 0.19111 0.99347 0.0
C1963 C 0.25459 0.20129 1.00166 0.0
C1964 C 0.26459 0.20938 0.99999 0.0
C1965 C 0.26822 0.20697 0.99039 0.0
C1966 C 0.23741 0.18236 0.9949 0.0
C1967 C 0.27161 0.22039 0.00847 0.0
H1968 H 0.23271 0.216 0.02358 0.0
H1969 H 0.25507 0.19146 0.03759 0.0
H1970 H 0.2455 0.22304 1.00057 0.0
H1971 H 0.23211 0.21145 0.99754 0.0
H1972 H 0.23434 0.22546 1.00713 0.0
H1973 H 0.26704 0.1836 0.0282 0.0
H1974 H 0.26025 0.17999 0.01364 0.0
H1975 H 0.27185 0.19373 0.01836 0.0
H1976 H 0.24719 0.18102 0.97776 0.0
H1977 H 0.27608 0.21295 0.98931 0.0
H1978 H 0.23117 0.18814 0.99626 0.0
H1979 H 0.23955 0.17717 1.00232 0.0
H1980 H 0.2332 0.17515 0.98762 0.0
H1981 H 0.2661 0.22705 0.00998 0.0
H1982 H 0.27905 0.22594 1.00583 0.0
H1983 H 0.27489 0.21667 0.01644 0.0
C1984 C 0.80422 0.45278 0.96402 0.0
C1985 C 0.7963 0.45914 0.95785 0.0
C1986 C 0.81053 0.45782 0.97483 0.0
C1987 C 0.80859 0.46925 0.97967 0.0
C1988 C 0.80055 0.47565 0.97344 0.0
C1989 C 0.79461 0.4706 0.96257 0.0
C1990 C 0.81932 0.45097 0.98106 0.0
C1991 C 0.79816 0.4878 0.97827 0.0
C1992 C 0.81655 0.47387 0.01114 0.0
C1993 C 0.82712 0.48286 0.01356 0.0
C1994 C 0.81029 0.46969 1.00016 0.0
C1995 C 0.81478 0.47436 0.99133 0.0
C1996 C 0.82525 0.48371 0.99367 0.0
C1997 C 0.8312 0.48793 1.00472 0.0
C1998 C 0.79896 0.46004 0.99803 0.0
C1999 C 0.83049 0.48888 0.98458 0.0
H2000 H 0.8056 0.44398 0.96033 0.0
H2001 H 0.78845 0.47549 0.9578 0.0
H2002 H 0.82783 0.45776 0.98387 0.0
H2003 H 0.81682 0.44754 0.98854 0.0
H2004 H 0.82024 0.44258 0.97595 0.0
H2005 H 0.7914 0.49139 0.97245 0.0
H2006 H 0.79537 0.48599 0.98598 0.0
H2007 H 0.80614 0.49547 0.9805 0.0
H2008 H 0.81331 0.46973 0.01781 0.0
H2009 H 0.83919 0.49511 1.0064 0.0
H2010 H 0.79976 0.45077 0.99415 0.0
H2011 H 0.79216 0.4635 0.99217 0.0
H2012 H 0.79615 0.45822 1.00573 0.0
H2013 H 0.83455 0.48154 0.98142 0.0
H2014 H 0.8372 0.49787 0.98756 0.0
H2015 H 0.82387 0.49086 0.97754 0.0
C2016 C 0.85117 0.4421 0.29699 0.0
C2017 C 0.84481 0.42955 0.29313 0.0
C2018 C 0.85194 0.44757 0.30766 0.0
C2019 C 0.8461 0.44038 0.31465 0.0
C2020 C 0.83936 0.42784 0.31069 0.0
C2021 C 0.83887 0.42253 0.3 0.0
C2022 C 0.85935 0.46088 0.31158 0.0
C2023 C 0.83279 0.41999 0.31777 0.0
C2024 C 0.85939 0.45041 0.34527 0.0
C2025 C 0.85308 0.4594 0.34763 0.0
C2026 C 0.85689 0.44374 0.33471 0.0
C2027 C 0.84766 0.44584 0.32629 0.0
C2028 C 0.84071 0.45416 0.3288 0.0
C2029 C 0.84356 0.46092 0.3394 0.0
C2030 C 0.86453 0.43496 0.33242 0.0
C2031 C 0.83062 0.45643 0.32015 0.0
H2032 H 0.85591 0.4475 0.29179 0.0
H2033 H 0.83387 0.41287 0.29703 0.0
H2034 H 0.85423 0.46728 0.31438 0.0
H2035 H 0.8665 0.46038 0.31877 0.0
H2036 H 0.86309 0.46533 0.30504 0.0
H2037 H 0.82783 0.41047 0.31342 0.0
H2038 H 0.8388 0.41841 0.32546 0.0
H2039 H 0.82673 0.42534 0.32026 0.0
H2040 H 0.86654 0.44882 0.35163 0.0
H2041 H 0.83861 0.46784 0.34104 0.0
H2042 H 0.86926 0.439 0.32638 0.0
H2043 H 0.85927 0.42533 0.32868 0.0
H2044 H 0.87089 0.43373 0.34001 0.0
H2045 H 0.83381 0.46237 0.31403 0.0
H2046 H 0.82506 0.46151 0.3238 0.0
H2047 H 0.82532 0.44716 0.31561 0.0
C2048 C 0.7511 0.69704 0.53068 0.0
C2049 C 0.74131 0.7019 0.53095 0.0
C2050 C 0.75482 0.69612 0.52094 0.0
C2051 C 0.74879 0.70046 0.51125 0.0
C2052 C 0.73924 0.70595 0.51157 0.0
C2053 C 0.73555 0.70649 0.52137 0.0
C2054 C 0.76505 0.6902 0.52097 0.0
C2055 C 0.7327 0.71089 0.50147 0.0
C2056 C 0.76499 0.70628 0.48889 0.0
C2057 C 0.76056 0.69481 0.48179 0.0
C2058 C 0.76095 0.70846 0.49828 0.0
C2059 C 0.75235 0.69887 0.50074 0.0
C2060 C 0.74762 0.68741 0.49347 0.0
C2061 C 0.75175 0.68553 0.48408 0.0
C2062 C 0.76613 0.72087 0.50574 0.0
C2063 C 0.73844 0.67694 0.49581 0.0
H2064 H 0.75581 0.69376 0.53807 0.0
H2065 H 0.72791 0.71015 0.5214 0.0
H2066 H 0.7624 0.68149 0.51491 0.0
H2067 H 0.77179 0.69708 0.51839 0.0
H2068 H 0.76887 0.68741 0.52922 0.0
H2069 H 0.72649 0.71639 0.50345 0.0
H2070 H 0.73872 0.71718 0.49761 0.0
H2071 H 0.72786 0.70264 0.49526 0.0
H2072 H 0.77192 0.71344 0.48733 0.0
H2073 H 0.74815 0.67672 0.47858 0.0
H2074 H 0.77105 0.71878 0.51385 0.0
H2075 H 0.75924 0.72551 0.50731 0.0
H2076 H 0.77201 0.7278 0.50218 0.0
H2077 H 0.74197 0.67297 0.50359 0.0
H2078 H 0.7352 0.66893 0.48905 0.0
H2079 H 0.73108 0.68096 0.497 0.0
C2080 C 0.60055 0.54333 0.70068 0.0
C2081 C 0.59012 0.54063 0.69253 0.0
C2082 C 0.60093 0.54097 0.71167 0.0
C2083 C 0.59061 0.53574 0.71461 0.0
C2084 C 0.58001 0.53303 0.70643 0.0
C2085 C 0.57988 0.5356 0.69549 0.0
C2086 C 0.6124 0.54401 0.72011 0.0
C2087 C 0.56883 0.5274 0.70924 0.0
C2088 C 0.59351 0.51785 0.74026 0.0
C2089 C 0.59303 0.52723 0.74828 0.0
C2090 C 0.59265 0.52047 0.72926 0.0
C2091 C 0.59105 0.53272 0.72618 0.0
C2092 C 0.59041 0.54219 0.73427 0.0
C2093 C 0.59153 0.53937 0.74529 0.0
C2094 C 0.59352 0.51015 0.72096 0.0
C2095 C 0.58853 0.55527 0.73126 0.0
H2096 H 0.60847 0.54743 0.69849 0.0
H2097 H 0.5718 0.53347 0.68921 0.0
H2098 H 0.6122 0.55096 0.72694 0.0
H2099 H 0.61414 0.53511 0.72377 0.0
H2100 H 0.61962 0.54816 0.7165 0.0
H2101 H 0.56148 0.52493 0.70179 0.0
H2102 H 0.56952 0.51859 0.71347 0.0
H2103 H 0.56695 0.53444 0.71502 0.0
H2104 H 0.59465 0.50845 0.74264 0.0
H2105 H 0.59103 0.54654 0.75151 0.0
H2106 H 0.60086 0.51368 0.71734 0.0
H2107 H 0.5856 0.50789 0.71409 0.0
H2108 H 0.59473 0.50113 0.7247 0.0
H2109 H 0.59572 0.56029 0.72801 0.0
H2110 H 0.5879 0.56143 0.73843 0.0
H2111 H 0.58051 0.55417 0.72461 0.0
loop_
_geom_bond_atom_site_label_1
_geom_bond_atom_site_label_2
_geom_bond_distance
_geom_bond_site_symmetry_2
_ccdc_geom_bond_type
C0 C1 1.264 . S
C0 C5 1.479 . S
C0 C10 1.465 . S
C1 C0 1.264 . S
C1 C3 1.339 . S
C1 H28 0.931 . S
C2 C3 1.395 . S
C2 C4 1.320 . S
C3 C1 1.339 . S
C3 C2 1.395 . S
C3 H29 0.929 . S
C4 C2 1.320 . S
C4 C5 1.405 . S
C4 H30 0.930 1_455 S
C5 C0 1.479 . S
C5 C4 1.405 . S
C5 H31 0.931 1_455 S
U6 O7 2.454 . S
U6 O8 2.458 . S
U6 C9 2.984 . S
U6 C10 2.847 . S
U6 C23 2.882 . S
U6 O24 2.441 . S
U6 O25 2.420 . S
U6 O26 2.455 . S
U6 O27 2.449 . S
O7 U6 2.454 . S
O7 C9 1.353 . S
O8 U6 2.458 . S
O8 C9 1.286 . S
C9 U6 2.984 . S
C9 O7 1.353 . S
C9 O8 1.286 . S
C9 C11 1.363 . S
C10 C0 1.465 . S
C10 U6 2.847 . S
C10 O24 1.249 . S
C10 O25 1.202 . S
C11 C9 1.363 . S
C11 C13 1.420 . S
C11 C16 1.342 . S
C12 C13 1.302 1_655 S
C12 C15 1.443 1_655 S
C12 H32 0.932 . S
C13 C11 1.420 . S
C13 C12 1.302 1_455 S
C13 H33 0.926 1_455 S
C14 C15 1.548 . S
C14 C16 1.285 . S
C14 H34 0.929 . S
C15 C12 1.443 1_455 S
C15 C14 1.548 . S
C16 C11 1.342 . S
C16 C14 1.285 . S
C16 H35 0.930 . S
C17 C20 1.424 . S
C17 C22 1.245 . S
C17 C23 1.428 . S
C18 C21 1.260 . S
C18 C22 1.477 . S
C18 H36 0.932 . S
C19 C20 1.384 . S
C19 C21 1.479 . S
C19 H37 0.929 . S
C20 C17 1.424 . S
C20 C19 1.384 . S
C20 H38 0.928 . S
C21 C18 1.260 . S
C21 C19 1.479 . S
C22 C17 1.245 . S
C22 C18 1.477 . S
C22 H39 0.932 . S
C23 U6 2.882 . S
C23 C17 1.428 . S
C23 O26 1.301 . S
C23 O27 1.282 . S
O24 U6 2.441 . S
O24 C10 1.249 . S
O25 U6 2.420 . S
O25 C10 1.202 . S
O26 U6 2.455 . S
O26 C23 1.301 . S
O27 U6 2.449 . S
O27 C23 1.282 . S
H28 C1 0.931 . S
H29 C3 0.929 . S
H30 C4 0.930 1_655 S
H31 C5 0.931 1_655 S
H32 C12 0.932 . S
H33 C13 0.926 1_655 S
H34 C14 0.929 . S
H35 C16 0.930 . S
H36 C18 0.932 . S
H37 C19 0.929 . S
H38 C20 0.928 . S
H39 C22 0.932 . S
C40 C41 1.264 . S
C40 C45 1.479 . S
C40 C50 1.465 . S
C41 C40 1.264 . S
C41 C43 1.339 . S
C41 H68 0.931 . S
C42 C43 1.395 . S
C42 C44 1.320 . S
C43 C41 1.339 . S
C43 C42 1.395 . S
C43 H69 0.929 . S
C44 C42 1.320 . S
C44 C45 1.405 . S
C44 H70 0.930 . S
C45 C40 1.479 . S
C45 C44 1.405 . S
C45 H71 0.931 . S
U46 O47 2.454 . S
U46 O48 2.458 . S
U46 C49 2.984 . S
U46 C50 2.847 . S
U46 C63 2.882 . S
U46 O64 2.441 . S
U46 O65 2.420 . S
U46 O66 2.455 . S
U46 O67 2.449 . S
O47 U46 2.454 . S
O47 C49 1.353 . S
O48 U46 2.458 . S
O48 C49 1.286 . S
C49 U46 2.984 . S
C49 O47 1.353 . S
C49 O48 1.286 . S
C49 C51 1.363 . S
C50 C40 1.465 . S
C50 U46 2.847 . S
C50 O64 1.249 . S
C50 O65 1.202 . S
C51 C49 1.363 . S
C51 C53 1.408 . S
C51 C56 1.342 . S
C52 C53 1.310 . S
C52 C55 1.461 . S
C52 H72 0.932 . S
C53 C51 1.408 . S
C53 C52 1.310 . S
C53 H73 0.930 . S
C54 C55 1.474 . S
C54 C56 1.285 . S
C54 H74 0.929 . S
C55 C52 1.461 . S
C55 C54 1.474 . S
C56 C51 1.342 . S
C56 C54 1.285 . S
C56 H75 0.930 . S
C57 C60 1.424 . S
C57 C62 1.245 . S
C57 C63 1.428 . S
C58 C61 1.260 . S
C58 C62 1.477 . S
C58 H76 0.932 . S
C59 C60 1.384 . S
C59 C61 1.479 . S
C59 H77 0.929 . S
C60 C57 1.424 . S
C60 C59 1.384 . S
C60 H78 0.928 . S
C61 C58 1.260 . S
C61 C59 1.479 . S
C62 C57 1.245 . S
C62 C58 1.477 . S
C62 H79 0.932 . S
C63 U46 2.882 . S
C63 C57 1.428 . S
C63 O66 1.301 . S
C63 O67 1.282 . S
O64 U46 2.441 . S
O64 C50 1.249 . S
O65 U46 2.420 . S
O65 C50 1.202 . S
O66 U46 2.455 . S
O66 C63 1.301 . S
O67 U46 2.449 . S
O67 C63 1.282 . S
H68 C41 0.931 . S
H69 C43 0.929 . S
H70 C44 0.930 . S
H71 C45 0.931 . S
H72 C52 0.932 . S
H73 C53 0.930 . S
H74 C54 0.929 . S
H75 C56 0.930 . S
H76 C58 0.932 . S
H77 C59 0.929 . S
H78 C60 0.928 . S
H79 C62 0.932 . S
C80 C81 1.264 . S
C80 C85 1.479 . S
C80 C90 1.465 . S
C81 C80 1.264 . S
C81 C83 1.339 . S
C81 H108 0.931 . S
C82 C83 1.395 . S
C82 C84 1.320 . S
C83 C81 1.339 . S
C83 C82 1.395 . S
C83 H109 0.929 . S
C84 C82 1.320 . S
C84 C85 1.405 . S
C84 H110 0.930 . S
C85 C80 1.479 . S
C85 C84 1.405 . S
C85 H111 0.931 . S
U86 O87 2.454 . S
U86 O88 2.458 . S
U86 C89 2.984 . S
U86 C90 2.847 . S
U86 C103 2.882 . S
U86 O104 2.441 . S
U86 O105 2.420 . S
U86 O106 2.455 . S
U86 O107 2.449 . S
O87 U86 2.454 . S
O87 C89 1.353 . S
O88 U86 2.458 . S
O88 C89 1.286 . S
C89 U86 2.984 . S
C89 O87 1.353 . S
C89 O88 1.286 . S
C89 C91 1.363 . S
C90 C80 1.465 . S
C90 U86 2.847 . S
C90 O104 1.249 . S
C90 O105 1.202 . S
C91 C89 1.363 . S
C91 C93 1.408 . S
C91 C96 1.342 . S
C92 C93 1.310 . S
C92 C95 1.461 . S
C92 H112 0.932 . S
C93 C91 1.408 . S
C93 C92 1.310 . S
C93 H113 0.930 . S
C94 C95 1.474 . S
C94 C96 1.285 . S
C94 H114 0.929 . S
C95 C92 1.461 . S
C95 C94 1.474 . S
C96 C91 1.342 . S
C96 C94 1.285 . S
C96 H115 0.930 . S
C97 C100 1.424 . S
C97 C102 1.245 . S
C97 C103 1.428 . S
C98 C101 1.260 . S
C98 C102 1.477 . S
C98 H116 0.932 . S
C99 C100 1.384 . S
C99 C101 1.479 . S
C99 H117 0.929 . S
C100 C97 1.424 . S
C100 C99 1.384 . S
C100 H118 0.928 . S
C101 C98 1.260 . S
C101 C99 1.479 . S
C102 C97 1.245 . S
C102 C98 1.477 . S
C102 H119 0.932 . S
C103 U86 2.882 . S
C103 C97 1.428 . S
C103 O106 1.301 . S
C103 O107 1.282 . S
O104 U86 2.441 . S
O104 C90 1.249 . S
O105 U86 2.420 . S
O105 C90 1.202 . S
O106 U86 2.455 . S
O106 C103 1.301 . S
O107 U86 2.449 . S
O107 C103 1.282 . S
H108 C81 0.931 . S
H109 C83 0.929 . S
H110 C84 0.930 . S
H111 C85 0.931 . S
H112 C92 0.932 . S
H113 C93 0.930 . S
H114 C94 0.929 . S
H115 C96 0.930 . S
H116 C98 0.932 . S
H117 C99 0.929 . S
H118 C100 0.928 . S
H119 C102 0.932 . S
C120 C121 1.264 . S
C120 C125 1.479 . S
C120 C130 1.465 . S
C121 C120 1.264 . S
C121 C123 1.339 . S
C121 H148 0.931 . S
C122 C123 1.395 . S
C122 C124 1.320 . S
C123 C121 1.339 . S
C123 C122 1.395 . S
C123 H149 0.929 . S
C124 C122 1.320 . S
C124 C125 1.405 . S
C124 H150 0.930 . S
C125 C120 1.479 . S
C125 C124 1.405 . S
C125 H151 0.931 . S
U126 O127 2.454 . S
U126 O128 2.458 . S
U126 C129 2.984 . S
U126 C130 2.847 . S
U126 C143 2.882 . S
U126 O144 2.441 . S
U126 O145 2.420 . S
U126 O146 2.455 . S
U126 O147 2.449 . S
O127 U126 2.454 . S
O127 C129 1.353 . S
O128 U126 2.458 . S
O128 C129 1.286 . S
C129 U126 2.984 . S
C129 O127 1.353 . S
C129 O128 1.286 . S
C129 C131 1.363 . S
C130 C120 1.465 . S
C130 U126 2.847 . S
C130 O144 1.249 . S
C130 O145 1.202 . S
C131 C129 1.363 . S
C131 C133 1.408 . S
C131 C136 1.342 . S
C132 C133 1.310 . S
C132 C135 1.461 . S
C132 H152 0.932 . S
C133 C131 1.408 . S
C133 C132 1.310 . S
C133 H153 0.930 . S
C134 C135 1.474 . S
C134 C136 1.285 . S
C134 H154 0.929 . S
C135 C132 1.461 . S
C135 C134 1.474 . S
C136 C131 1.342 . S
C136 C134 1.285 . S
C136 H155 0.930 . S
C137 C140 1.424 . S
C137 C142 1.245 . S
C137 C143 1.428 . S
C138 C141 1.260 . S
C138 C142 1.477 . S
C138 H156 0.932 . S
C139 C140 1.384 . S
C139 C141 1.479 . S
C139 H157 0.929 . S
C140 C137 1.424 . S
C140 C139 1.384 . S
C140 H158 0.928 . S
C141 C138 1.260 . S
C141 C139 1.479 . S
C142 C137 1.245 . S
C142 C138 1.477 . S
C142 H159 0.932 . S
C143 U126 2.882 . S
C143 C137 1.428 . S
C143 O146 1.301 . S
C143 O147 1.282 . S
O144 U126 2.441 . S
O144 C130 1.249 . S
O145 U126 2.420 . S
O145 C130 1.202 . S
O146 U126 2.455 . S
O146 C143 1.301 . S
O147 U126 2.449 . S
O147 C143 1.282 . S
H148 C121 0.931 . S
H149 C123 0.929 . S
H150 C124 0.930 . S
H151 C125 0.931 . S
H152 C132 0.932 . S
H153 C133 0.930 . S
H154 C134 0.929 . S
H155 C136 0.930 . S
H156 C138 0.932 . S
H157 C139 0.929 . S
H158 C140 0.928 . S
H159 C142 0.932 . S
C160 C161 1.264 . S
C160 C165 1.479 . S
C160 C170 1.465 . S
C161 C160 1.264 . S
C161 C163 1.339 . S
C161 H188 0.931 . S
C162 C163 1.395 . S
C162 C164 1.320 . S
C163 C161 1.339 . S
C163 C162 1.395 . S
C163 H189 0.929 . S
C164 C162 1.320 . S
C164 C165 1.405 . S
C164 H190 0.930 . S
C165 C160 1.479 . S
C165 C164 1.405 . S
C165 H191 0.931 . S
U166 O167 2.454 . S
U166 O168 2.458 . S
U166 C169 2.984 . S
U166 C170 2.847 . S
U166 C183 2.882 . S
U166 O184 2.441 . S
U166 O185 2.420 . S
U166 O186 2.455 . S
U166 O187 2.449 . S
O167 U166 2.454 . S
O167 C169 1.353 . S
O168 U166 2.458 . S
O168 C169 1.286 . S
C169 U166 2.984 . S
C169 O167 1.353 . S
C169 O168 1.286 . S
C169 C171 1.363 . S
C170 C160 1.465 . S
C170 U166 2.847 . S
C170 O184 1.249 . S
C170 O185 1.202 . S
C171 C169 1.363 . S
C171 C173 1.408 . S
C171 C176 1.342 . S
C172 C173 1.310 . S
C172 C175 1.461 . S
C172 H192 0.932 . S
C173 C171 1.408 . S
C173 C172 1.310 . S
C173 H193 0.930 . S
C174 C175 1.474 . S
C174 C176 1.285 . S
C174 H194 0.929 . S
C175 C172 1.461 . S
C175 C174 1.474 . S
C176 C171 1.342 . S
C176 C174 1.285 . S
C176 H195 0.930 . S
C177 C180 1.424 . S
C177 C182 1.245 . S
C177 C183 1.428 . S
C178 C181 1.260 . S
C178 C182 1.477 . S
C178 H196 0.932 . S
C179 C180 1.384 . S
C179 C181 1.479 . S
C179 H197 0.929 . S
C180 C177 1.424 . S
C180 C179 1.384 . S
C180 H198 0.928 . S
C181 C178 1.260 . S
C181 C179 1.479 . S
C182 C177 1.245 . S
C182 C178 1.477 . S
C182 H199 0.932 . S
C183 U166 2.882 . S
C183 C177 1.428 . S
C183 O186 1.301 . S
C183 O187 1.282 . S
O184 U166 2.441 . S
O184 C170 1.249 . S
O185 U166 2.420 . S
O185 C170 1.202 . S
O186 U166 2.455 . S
O186 C183 1.301 . S
O187 U166 2.449 . S
O187 C183 1.282 . S
H188 C161 0.931 . S
H189 C163 0.929 . S
H190 C164 0.930 . S
H191 C165 0.931 . S
H192 C172 0.932 . S
H193 C173 0.930 . S
H194 C174 0.929 . S
H195 C176 0.930 . S
H196 C178 0.932 . S
H197 C179 0.929 . S
H198 C180 0.928 . S
H199 C182 0.932 . S
C200 C201 1.264 . S
C200 C205 1.479 . S
C200 C210 1.465 . S
C201 C200 1.264 . S
C201 C203 1.339 . S
C201 H228 0.931 . S
C202 C203 1.395 . S
C202 C204 1.320 . S
C203 C201 1.339 . S
C203 C202 1.395 . S
C203 H229 0.929 . S
C204 C202 1.320 . S
C204 C205 1.405 . S
C204 H230 0.930 . S
C205 C200 1.479 . S
C205 C204 1.405 . S
C205 H231 0.931 . S
U206 O207 2.454 . S
U206 O208 2.458 . S
U206 C209 2.984 . S
U206 C210 2.847 . S
U206 C223 2.882 . S
U206 O224 2.441 . S
U206 O225 2.420 . S
U206 O226 2.455 . S
U206 O227 2.449 . S
O207 U206 2.454 . S
O207 C209 1.353 . S
O208 U206 2.458 . S
O208 C209 1.286 . S
C209 U206 2.984 . S
C209 O207 1.353 . S
C209 O208 1.286 . S
C209 C211 1.363 . S
C210 C200 1.465 . S
C210 U206 2.847 . S
C210 O224 1.249 . S
C210 O225 1.202 . S
C211 C209 1.363 . S
C211 C213 1.408 . S
C211 C216 1.342 . S
C212 C213 1.310 . S
C212 C215 1.461 . S
C212 H232 0.932 . S
C213 C211 1.408 . S
C213 C212 1.310 . S
C213 H233 0.930 . S
C214 C215 1.474 . S
C214 C216 1.285 . S
C214 H234 0.929 . S
C215 C212 1.461 . S
C215 C214 1.474 . S
C216 C211 1.342 . S
C216 C214 1.285 . S
C216 H235 0.930 . S
C217 C220 1.424 . S
C217 C222 1.245 . S
C217 C223 1.428 . S
C218 C221 1.260 . S
C218 C222 1.477 . S
C218 H236 0.932 . S
C219 C220 1.384 . S
C219 C221 1.479 . S
C219 H237 0.929 . S
C220 C217 1.424 . S
C220 C219 1.384 . S
C220 H238 0.928 . S
C221 C218 1.260 . S
C221 C219 1.479 . S
C222 C217 1.245 . S
C222 C218 1.477 . S
C222 H239 0.932 . S
C223 U206 2.882 . S
C223 C217 1.428 . S
C223 O226 1.301 . S
C223 O227 1.282 . S
O224 U206 2.441 . S
O224 C210 1.249 . S
O225 U206 2.420 . S
O225 C210 1.202 . S
O226 U206 2.455 . S
O226 C223 1.301 . S
O227 U206 2.449 . S
O227 C223 1.282 . S
H228 C201 0.931 . S
H229 C203 0.929 . S
H230 C204 0.930 . S
H231 C205 0.931 . S
H232 C212 0.932 . S
H233 C213 0.930 . S
H234 C214 0.929 . S
H235 C216 0.930 . S
H236 C218 0.932 . S
H237 C219 0.929 . S
H238 C220 0.928 . S
H239 C222 0.932 . S
C240 C241 1.264 . S
C240 C245 1.479 . S
C240 C250 1.465 . S
C241 C240 1.264 . S
C241 C243 1.339 . S
C241 H268 0.931 . S
C242 C243 1.395 . S
C242 C244 1.320 . S
C243 C241 1.339 . S
C243 C242 1.395 . S
C243 H269 0.929 . S
C244 C242 1.320 . S
C244 C245 1.405 . S
C244 H270 0.930 . S
C245 C240 1.479 . S
C245 C244 1.405 . S
C245 H271 0.931 . S
U246 O247 2.454 . S
U246 O248 2.458 . S
U246 C249 2.984 . S
U246 C250 2.847 . S
U246 C263 2.882 . S
U246 O264 2.441 . S
U246 O265 2.420 . S
U246 O266 2.455 . S
U246 O267 2.449 . S
O247 U246 2.454 . S
O247 C249 1.353 . S
O248 U246 2.458 . S
O248 C249 1.286 . S
C249 U246 2.984 . S
C249 O247 1.353 . S
C249 O248 1.286 . S
C249 C251 1.363 . S
C250 C240 1.465 . S
C250 U246 2.847 . S
C250 O264 1.249 . S
C250 O265 1.202 . S
C251 C249 1.363 . S
C251 C253 1.408 . S
C251 C256 1.342 . S
C252 C253 1.310 . S
C252 C255 1.461 . S
C252 H272 0.932 . S
C253 C251 1.408 . S
C253 C252 1.310 . S
C253 H273 0.930 . S
C254 C255 1.474 . S
C254 C256 1.285 . S
C254 H274 0.929 . S
C255 C252 1.461 . S
C255 C254 1.474 . S
C256 C251 1.342 . S
C256 C254 1.285 . S
C256 H275 0.930 . S
C257 C260 1.424 . S
C257 C262 1.245 . S
C257 C263 1.428 . S
C258 C261 1.260 . S
C258 C262 1.477 . S
C258 H276 0.932 . S
C259 C260 1.384 . S
C259 C261 1.479 . S
C259 H277 0.929 . S
C260 C257 1.424 . S
C260 C259 1.384 . S
C260 H278 0.928 . S
C261 C258 1.260 . S
C261 C259 1.479 . S
C262 C257 1.245 . S
C262 C258 1.477 . S
C262 H279 0.932 . S
C263 U246 2.882 . S
C263 C257 1.428 . S
C263 O266 1.301 . S
C263 O267 1.282 . S
O264 U246 2.441 . S
O264 C250 1.249 . S
O265 U246 2.420 . S
O265 C250 1.202 . S
O266 U246 2.455 . S
O266 C263 1.301 . S
O267 U246 2.449 . S
O267 C263 1.282 . S
H268 C241 0.931 . S
H269 C243 0.929 . S
H270 C244 0.930 . S
H271 C245 0.931 . S
H272 C252 0.932 . S
H273 C253 0.930 . S
H274 C254 0.929 . S
H275 C256 0.930 . S
H276 C258 0.932 . S
H277 C259 0.929 . S
H278 C260 0.928 . S
H279 C262 0.932 . S
C280 C281 1.264 . S
C280 C285 1.479 . S
C280 C290 1.465 . S
C281 C280 1.264 . S
C281 C283 1.339 . S
C281 H308 0.931 . S
C282 C283 1.395 . S
C282 C284 1.320 . S
C283 C281 1.339 . S
C283 C282 1.395 . S
C283 H309 0.929 . S
C284 C282 1.320 . S
C284 C285 1.405 . S
C284 H310 0.930 . S
C285 C280 1.479 . S
C285 C284 1.405 . S
C285 H311 0.931 . S
U286 O287 2.454 . S
U286 O288 2.458 . S
U286 C289 2.984 . S
U286 C290 2.847 . S
U286 C303 2.882 . S
U286 O304 2.441 . S
U286 O305 2.420 . S
U286 O306 2.455 . S
U286 O307 2.449 . S
O287 U286 2.454 . S
O287 C289 1.353 . S
O288 U286 2.458 . S
O288 C289 1.286 . S
C289 U286 2.984 . S
C289 O287 1.353 . S
C289 O288 1.286 . S
C289 C291 1.363 . S
C290 C280 1.465 . S
C290 U286 2.847 . S
C290 O304 1.249 . S
C290 O305 1.202 . S
C291 C289 1.363 . S
C291 C293 1.408 . S
C291 C296 1.342 . S
C292 C293 1.310 . S
C292 C295 1.461 . S
C292 H312 0.932 . S
C293 C291 1.408 . S
C293 C292 1.310 . S
C293 H313 0.930 . S
C294 C295 1.474 . S
C294 C296 1.285 . S
C294 H314 0.929 . S
C295 C292 1.461 . S
C295 C294 1.474 . S
C296 C291 1.342 . S
C296 C294 1.285 . S
C296 H315 0.930 . S
C297 C300 1.424 . S
C297 C302 1.245 . S
C297 C303 1.428 . S
C298 C301 1.260 . S
C298 C302 1.477 . S
C298 H316 0.932 . S
C299 C300 1.384 . S
C299 C301 1.479 . S
C299 H317 0.929 . S
C300 C297 1.424 . S
C300 C299 1.384 . S
C300 H318 0.928 . S
C301 C298 1.260 . S
C301 C299 1.479 . S
C302 C297 1.245 . S
C302 C298 1.477 . S
C302 H319 0.932 . S
C303 U286 2.882 . S
C303 C297 1.428 . S
C303 O306 1.301 . S
C303 O307 1.282 . S
O304 U286 2.441 . S
O304 C290 1.249 . S
O305 U286 2.420 . S
O305 C290 1.202 . S
O306 U286 2.455 . S
O306 C303 1.301 . S
O307 U286 2.449 . S
O307 C303 1.282 . S
H308 C281 0.931 . S
H309 C283 0.929 . S
H310 C284 0.930 . S
H311 C285 0.931 . S
H312 C292 0.932 . S
H313 C293 0.930 . S
H314 C294 0.929 . S
H315 C296 0.930 . S
H316 C298 0.932 . S
H317 C299 0.929 . S
H318 C300 0.928 . S
H319 C302 0.932 . S
C320 C321 1.252 1_545 S
C320 C325 1.479 . S
C320 C330 1.465 . S
C321 C320 1.252 1_565 S
C321 C323 1.341 1_565 S
C321 H348 0.942 . S
C322 C323 1.395 . S
C322 C324 1.320 . S
C323 C321 1.341 1_545 S
C323 C322 1.395 . S
C323 H349 0.929 1_545 S
C324 C322 1.320 . S
C324 C325 1.405 . S
C324 H350 0.930 . S
C325 C320 1.479 . S
C325 C324 1.405 . S
C325 H351 0.931 . S
U326 O327 2.454 1_565 S
U326 O328 2.434 1_565 S
U326 C329 2.984 1_565 S
U326 C330 2.847 1_565 S
U326 C343 2.882 . S
U326 O344 2.441 1_565 S
U326 O345 2.420 . S
U326 O346 2.455 . S
U326 O347 2.449 . S
O327 U326 2.454 1_545 S
O327 C329 1.353 . S
O328 U326 2.434 1_545 S
O328 C329 1.346 . S
C329 U326 2.984 1_545 S
C329 O327 1.353 . S
C329 O328 1.346 . S
C329 C331 1.363 . S
C330 C320 1.465 . S
C330 U326 2.847 1_545 S
C330 O344 1.249 . S
C330 O345 1.202 1_545 S
C331 C329 1.363 . S
C331 C333 1.408 . S
C331 C336 1.342 . S
C332 C333 1.310 . S
C332 C335 1.461 . S
C332 H352 0.932 . S
C333 C331 1.408 . S
C333 C332 1.310 . S
C333 H353 0.930 . S
C334 C335 1.474 . S
C334 C336 1.285 . S
C334 H354 0.929 . S
C335 C332 1.461 . S
C335 C334 1.474 . S
C336 C331 1.342 . S
C336 C334 1.285 . S
C336 H355 0.930 . S
C337 C340 1.424 . S
C337 C342 1.245 . S
C337 C343 1.428 . S
C338 C341 1.260 . S
C338 C342 1.477 . S
C338 H356 0.932 . S
C339 C340 1.384 . S
C339 C341 1.479 . S
C339 H357 0.929 . S
C340 C337 1.424 . S
C340 C339 1.384 . S
C340 H358 0.928 . S
C341 C338 1.260 . S
C341 C339 1.479 . S
C342 C337 1.245 . S
C342 C338 1.477 . S
C342 H359 0.932 . S
C343 U326 2.882 . S
C343 C337 1.428 . S
C343 O346 1.301 . S
C343 O347 1.282 . S
O344 U326 2.441 1_545 S
O344 C330 1.249 . S
O345 U326 2.420 . S
O345 C330 1.202 1_565 S
O346 U326 2.455 . S
O346 C343 1.301 . S
O347 U326 2.449 . S
O347 C343 1.282 . S
H348 C321 0.942 . S
H349 C323 0.929 1_565 S
H350 C324 0.930 . S
H351 C325 0.931 . S
H352 C332 0.932 . S
H353 C333 0.930 . S
H354 C334 0.929 . S
H355 C336 0.930 . S
H356 C338 0.932 . S
H357 C339 0.929 . S
H358 C340 0.928 . S
H359 C342 0.932 . S
C360 C361 1.264 . S
C360 C365 1.479 . S
C360 C370 1.465 . S
C361 C360 1.264 . S
C361 C363 1.339 . S
C361 H388 0.931 . S
C362 C363 1.395 . S
C362 C364 1.320 . S
C363 C361 1.339 . S
C363 C362 1.395 . S
C363 H389 0.929 . S
C364 C362 1.320 . S
C364 C365 1.405 . S
C364 H390 0.930 . S
C365 C360 1.479 . S
C365 C364 1.405 . S
C365 H391 0.931 . S
U366 O367 2.454 . S
U366 O368 2.458 . S
U366 C369 2.984 . S
U366 C370 2.847 . S
U366 C383 2.882 . S
U366 O384 2.441 . S
U366 O385 2.420 . S
U366 O386 2.455 . S
U366 O387 2.449 . S
O367 U366 2.454 . S
O367 C369 1.353 . S
O368 U366 2.458 . S
O368 C369 1.286 . S
C369 U366 2.984 . S
C369 O367 1.353 . S
C369 O368 1.286 . S
C369 C371 1.363 . S
C370 C360 1.465 . S
C370 U366 2.847 . S
C370 O384 1.249 . S
C370 O385 1.202 . S
C371 C369 1.363 . S
C371 C373 1.408 . S
C371 C376 1.342 . S
C372 C373 1.310 . S
C372 C375 1.461 . S
C372 H392 0.932 . S
C373 C371 1.408 . S
C373 C372 1.310 . S
C373 H393 0.930 . S
C374 C375 1.474 . S
C374 C376 1.285 . S
C374 H394 0.929 . S
C375 C372 1.461 . S
C375 C374 1.474 . S
C376 C371 1.342 . S
C376 C374 1.285 . S
C376 H395 0.930 . S
C377 C380 1.424 . S
C377 C382 1.245 . S
C377 C383 1.428 . S
C378 C381 1.260 . S
C378 C382 1.477 . S
C378 H396 0.932 . S
C379 C380 1.384 . S
C379 C381 1.479 . S
C379 H397 0.929 . S
C380 C377 1.424 . S
C380 C379 1.384 . S
C380 H398 0.928 . S
C381 C378 1.260 . S
C381 C379 1.479 . S
C382 C377 1.245 . S
C382 C378 1.477 . S
C382 H399 0.932 . S
C383 U366 2.882 . S
C383 C377 1.428 . S
C383 O386 1.301 . S
C383 O387 1.282 . S
O384 U366 2.441 . S
O384 C370 1.249 . S
O385 U366 2.420 . S
O385 C370 1.202 . S
O386 U366 2.455 . S
O386 C383 1.301 . S
O387 U366 2.449 . S
O387 C383 1.282 . S
H388 C361 0.931 . S
H389 C363 0.929 . S
H390 C364 0.930 . S
H391 C365 0.931 . S
H392 C372 0.932 . S
H393 C373 0.930 . S
H394 C374 0.929 . S
H395 C376 0.930 . S
H396 C378 0.932 . S
H397 C379 0.929 . S
H398 C380 0.928 . S
H399 C382 0.932 . S
C400 C401 1.264 . S
C400 C405 1.479 . S
C400 C410 1.465 . S
C401 C400 1.264 . S
C401 C403 1.339 . S
C401 H428 0.931 . S
C402 C403 1.395 . S
C402 C404 1.320 . S
C403 C401 1.339 . S
C403 C402 1.395 . S
C403 H429 0.929 . S
C404 C402 1.320 . S
C404 C405 1.405 . S
C404 H430 0.930 . S
C405 C400 1.479 . S
C405 C404 1.405 . S
C405 H431 0.924 1_545 S
U406 O407 2.415 1_545 S
U406 O408 2.414 1_545 S
U406 C409 2.936 1_545 S
U406 C410 2.879 . S
U406 C423 2.905 . S
U406 O424 2.471 1_545 S
U406 O425 2.463 . S
U406 O426 2.451 . S
U406 O427 2.486 . S
O407 U406 2.415 1_565 S
O407 C409 1.353 . S
O408 U406 2.414 1_565 S
O408 C409 1.286 . S
C409 U406 2.936 1_565 S
C409 O407 1.353 . S
C409 O408 1.286 . S
C409 C411 1.363 . S
C410 C400 1.465 . S
C410 U406 2.879 . S
C410 O424 1.189 1_545 S
C410 O425 1.202 . S
C411 C409 1.363 . S
C411 C413 1.408 . S
C411 C416 1.342 . S
C412 C413 1.310 . S
C412 C415 1.461 . S
C412 H432 0.932 . S
C413 C411 1.408 . S
C413 C412 1.310 . S
C413 H433 0.930 . S
C414 C415 1.474 . S
C414 C416 1.285 . S
C414 H434 0.929 . S
C415 C412 1.461 . S
C415 C414 1.474 . S
C416 C411 1.342 . S
C416 C414 1.285 . S
C416 H435 0.930 . S
C417 C420 1.424 . S
C417 C422 1.245 . S
C417 C423 1.428 . S
C418 C421 1.260 . S
C418 C422 1.477 . S
C418 H436 0.932 . S
C419 C420 1.384 . S
C419 C421 1.479 . S
C419 H437 0.929 . S
C420 C417 1.424 . S
C420 C419 1.384 . S
C420 H438 0.928 . S
C421 C418 1.260 . S
C421 C419 1.479 . S
C422 C417 1.245 . S
C422 C418 1.477 . S
C422 H439 0.932 . S
C423 U406 2.905 . S
C423 C417 1.428 . S
C423 O426 1.301 . S
C423 O427 1.282 . S
O424 U406 2.471 1_565 S
O424 C410 1.189 1_565 S
O425 U406 2.463 . S
O425 C410 1.202 . S
O426 U406 2.451 . S
O426 C423 1.301 . S
O427 U406 2.486 . S
O427 C423 1.282 . S
H428 C401 0.931 . S
H429 C403 0.929 . S
H430 C404 0.930 . S
H431 C405 0.924 1_565 S
H432 C412 0.932 . S
H433 C413 0.930 . S
H434 C414 0.929 . S
H435 C416 0.930 . S
H436 C418 0.932 . S
H437 C419 0.929 . S
H438 C420 0.928 . S
H439 C422 0.932 . S
C440 C441 1.264 . S
C440 C445 1.479 . S
C440 C450 1.465 . S
C441 C440 1.264 . S
C441 C443 1.339 . S
C441 H468 0.931 . S
C442 C443 1.395 . S
C442 C444 1.320 . S
C443 C441 1.339 . S
C443 C442 1.395 . S
C443 H469 0.929 . S
C444 C442 1.320 . S
C444 C445 1.405 . S
C444 H470 0.930 . S
C445 C440 1.479 . S
C445 C444 1.405 . S
C445 H471 0.931 . S
U446 O447 2.454 . S
U446 O448 2.458 . S
U446 C449 2.984 . S
U446 C450 2.847 . S
U446 C463 2.882 . S
U446 O464 2.441 . S
U446 O465 2.420 . S
U446 O466 2.455 . S
U446 O467 2.449 . S
O447 U446 2.454 . S
O447 C449 1.353 . S
O448 U446 2.458 . S
O448 C449 1.286 . S
C449 U446 2.984 . S
C449 O447 1.353 . S
C449 O448 1.286 . S
C449 C451 1.363 . S
C450 C440 1.465 . S
C450 U446 2.847 . S
C450 O464 1.249 . S
C450 O465 1.202 . S
C451 C449 1.363 . S
C451 C453 1.408 . S
C451 C456 1.342 . S
C452 C453 1.310 . S
C452 C455 1.461 . S
C452 H472 0.932 . S
C453 C451 1.408 . S
C453 C452 1.310 . S
C453 H473 0.930 . S
C454 C455 1.474 . S
C454 C456 1.285 . S
C454 H474 0.929 . S
C455 C452 1.461 . S
C455 C454 1.474 . S
C456 C451 1.342 . S
C456 C454 1.285 . S
C456 H475 0.930 . S
C457 C460 1.424 . S
C457 C462 1.245 . S
C457 C463 1.428 . S
C458 C461 1.260 . S
C458 C462 1.477 . S
C458 H476 0.932 . S
C459 C460 1.384 . S
C459 C461 1.479 . S
C459 H477 0.929 . S
C460 C457 1.424 . S
C460 C459 1.384 . S
C460 H478 0.928 . S
C461 C458 1.260 . S
C461 C459 1.479 . S
C462 C457 1.245 . S
C462 C458 1.477 . S
C462 H479 0.932 . S
C463 U446 2.882 . S
C463 C457 1.428 . S
C463 O466 1.301 . S
C463 O467 1.282 . S
O464 U446 2.441 . S
O464 C450 1.249 . S
O465 U446 2.420 . S
O465 C450 1.202 . S
O466 U446 2.455 . S
O466 C463 1.301 . S
O467 U446 2.449 . S
O467 C463 1.282 . S
H468 C441 0.931 . S
H469 C443 0.929 . S
H470 C444 0.930 . S
H471 C445 0.931 . S
H472 C452 0.932 . S
H473 C453 0.930 . S
H474 C454 0.929 . S
H475 C456 0.930 . S
H476 C458 0.932 . S
H477 C459 0.929 . S
H478 C460 0.928 . S
H479 C462 0.932 . S
C480 C481 1.264 . S
C480 C485 1.479 . S
C480 C490 1.465 . S
C481 C480 1.264 . S
C481 C483 1.339 . S
C481 H508 0.931 . S
C482 C483 1.395 . S
C482 C484 1.320 . S
C483 C481 1.339 . S
C483 C482 1.395 . S
C483 H509 0.929 . S
C484 C482 1.320 . S
C484 C485 1.405 . S
C484 H510 0.930 . S
C485 C480 1.479 . S
C485 C484 1.405 . S
C485 H511 0.931 . S
U486 O487 2.454 . S
U486 O488 2.458 . S
U486 C489 2.984 . S
U486 C490 2.847 . S
U486 C503 2.882 . S
U486 O504 2.441 . S
U486 O505 2.420 . S
U486 O506 2.455 . S
U486 O507 2.449 . S
O487 U486 2.454 . S
O487 C489 1.353 . S
O488 U486 2.458 . S
O488 C489 1.286 . S
C489 U486 2.984 . S
C489 O487 1.353 . S
C489 O488 1.286 . S
C489 C491 1.363 . S
C490 C480 1.465 . S
C490 U486 2.847 . S
C490 O504 1.249 . S
C490 O505 1.202 . S
C491 C489 1.363 . S
C491 C493 1.408 . S
C491 C496 1.342 . S
C492 C493 1.310 . S
C492 C495 1.461 . S
C492 H512 0.932 . S
C493 C491 1.408 . S
C493 C492 1.310 . S
C493 H513 0.930 . S
C494 C495 1.474 . S
C494 C496 1.285 . S
C494 H514 0.929 . S
C495 C492 1.461 . S
C495 C494 1.474 . S
C496 C491 1.342 . S
C496 C494 1.285 . S
C496 H515 0.930 . S
C497 C500 1.424 . S
C497 C502 1.245 . S
C497 C503 1.428 . S
C498 C501 1.260 . S
C498 C502 1.477 . S
C498 H516 0.932 . S
C499 C500 1.384 . S
C499 C501 1.479 . S
C499 H517 0.929 . S
C500 C497 1.424 . S
C500 C499 1.384 . S
C500 H518 0.928 . S
C501 C498 1.260 . S
C501 C499 1.479 . S
C502 C497 1.245 . S
C502 C498 1.477 . S
C502 H519 0.932 . S
C503 U486 2.882 . S
C503 C497 1.428 . S
C503 O506 1.301 . S
C503 O507 1.282 . S
O504 U486 2.441 . S
O504 C490 1.249 . S
O505 U486 2.420 . S
O505 C490 1.202 . S
O506 U486 2.455 . S
O506 C503 1.301 . S
O507 U486 2.449 . S
O507 C503 1.282 . S
H508 C481 0.931 . S
H509 C483 0.929 . S
H510 C484 0.930 . S
H511 C485 0.931 . S
H512 C492 0.932 . S
H513 C493 0.930 . S
H514 C494 0.929 . S
H515 C496 0.930 . S
H516 C498 0.932 . S
H517 C499 0.929 . S
H518 C500 0.928 . S
H519 C502 0.932 . S
C520 C521 1.264 . S
C520 C525 1.479 . S
C520 C530 1.465 . S
C521 C520 1.264 . S
C521 C523 1.339 . S
C521 H548 0.931 . S
C522 C523 1.395 . S
C522 C524 1.320 . S
C523 C521 1.339 . S
C523 C522 1.395 . S
C523 H549 0.929 . S
C524 C522 1.320 . S
C524 C525 1.405 . S
C524 H550 0.930 . S
C525 C520 1.479 . S
C525 C524 1.405 . S
C525 H551 0.931 . S
U526 O527 2.454 . S
U526 O528 2.458 . S
U526 C529 2.984 . S
U526 C530 2.847 . S
U526 C543 2.882 . S
U526 O544 2.441 . S
U526 O545 2.420 . S
U526 O546 2.455 . S
U526 O547 2.449 . S
O527 U526 2.454 . S
O527 C529 1.353 . S
O528 U526 2.458 . S
O528 C529 1.286 . S
C529 U526 2.984 . S
C529 O527 1.353 . S
C529 O528 1.286 . S
C529 C531 1.363 . S
C530 C520 1.465 . S
C530 U526 2.847 . S
C530 O544 1.249 . S
C530 O545 1.202 . S
C531 C529 1.363 . S
C531 C533 1.408 . S
C531 C536 1.342 . S
C532 C533 1.310 . S
C532 C535 1.461 . S
C532 H552 0.932 . S
C533 C531 1.408 . S
C533 C532 1.310 . S
C533 H553 0.930 . S
C534 C535 1.474 . S
C534 C536 1.285 . S
C534 H554 0.929 . S
C535 C532 1.461 . S
C535 C534 1.474 . S
C536 C531 1.342 . S
C536 C534 1.285 . S
C536 H555 0.930 . S
C537 C540 1.424 . S
C537 C542 1.245 . S
C537 C543 1.428 . S
C538 C541 1.260 . S
C538 C542 1.477 . S
C538 H556 0.932 . S
C539 C540 1.384 . S
C539 C541 1.479 . S
C539 H557 0.929 . S
C540 C537 1.424 . S
C540 C539 1.384 . S
C540 H558 0.928 . S
C541 C538 1.260 . S
C541 C539 1.479 . S
C542 C537 1.245 . S
C542 C538 1.477 . S
C542 H559 0.932 . S
C543 U526 2.882 . S
C543 C537 1.428 . S
C543 O546 1.301 . S
C543 O547 1.282 . S
O544 U526 2.441 . S
O544 C530 1.249 . S
O545 U526 2.420 . S
O545 C530 1.202 . S
O546 U526 2.455 . S
O546 C543 1.301 . S
O547 U526 2.449 . S
O547 C543 1.282 . S
H548 C521 0.931 . S
H549 C523 0.929 . S
H550 C524 0.930 . S
H551 C525 0.931 . S
H552 C532 0.932 . S
H553 C533 0.930 . S
H554 C534 0.929 . S
H555 C536 0.930 . S
H556 C538 0.932 . S
H557 C539 0.929 . S
H558 C540 0.928 . S
H559 C542 0.932 . S
C560 C561 1.264 . S
C560 C565 1.479 . S
C560 C570 1.465 . S
C561 C560 1.264 . S
C561 C563 1.339 . S
C561 H588 0.931 . S
C562 C563 1.395 . S
C562 C564 1.320 . S
C563 C561 1.339 . S
C563 C562 1.395 . S
C563 H589 0.929 . S
C564 C562 1.320 . S
C564 C565 1.405 . S
C564 H590 0.930 . S
C565 C560 1.479 . S
C565 C564 1.405 . S
C565 H591 0.931 . S
U566 O567 2.454 . S
U566 O568 2.458 . S
U566 C569 2.984 . S
U566 C570 2.847 . S
U566 C583 2.882 . S
U566 O584 2.441 . S
U566 O585 2.420 . S
U566 O586 2.455 . S
U566 O587 2.449 . S
O567 U566 2.454 . S
O567 C569 1.353 . S
O568 U566 2.458 . S
O568 C569 1.286 . S
C569 U566 2.984 . S
C569 O567 1.353 . S
C569 O568 1.286 . S
C569 C571 1.363 . S
C570 C560 1.465 . S
C570 U566 2.847 . S
C570 O584 1.249 . S
C570 O585 1.202 . S
C571 C569 1.363 . S
C571 C573 1.408 . S
C571 C576 1.342 . S
C572 C573 1.310 . S
C572 C575 1.461 . S
C572 H592 0.932 . S
C573 C571 1.408 . S
C573 C572 1.310 . S
C573 H593 0.930 . S
C574 C575 1.474 . S
C574 C576 1.285 . S
C574 H594 0.929 . S
C575 C572 1.461 . S
C575 C574 1.474 . S
C576 C571 1.342 . S
C576 C574 1.285 . S
C576 H595 0.930 . S
C577 C580 1.424 . S
C577 C582 1.245 . S
C577 C583 1.428 . S
C578 C581 1.260 . S
C578 C582 1.477 . S
C578 H596 0.932 . S
C579 C580 1.384 . S
C579 C581 1.479 . S
C579 H597 0.929 . S
C580 C577 1.424 . S
C580 C579 1.384 . S
C580 H598 0.928 . S
C581 C578 1.260 . S
C581 C579 1.479 . S
C582 C577 1.245 . S
C582 C578 1.477 . S
C582 H599 0.932 . S
C583 U566 2.882 . S
C583 C577 1.428 . S
C583 O586 1.301 . S
C583 O587 1.282 . S
O584 U566 2.441 . S
O584 C570 1.249 . S
O585 U566 2.420 . S
O585 C570 1.202 . S
O586 U566 2.455 . S
O586 C583 1.301 . S
O587 U566 2.449 . S
O587 C583 1.282 . S
H588 C561 0.931 . S
H589 C563 0.929 . S
H590 C564 0.930 . S
H591 C565 0.931 . S
H592 C572 0.932 . S
H593 C573 0.930 . S
H594 C574 0.929 . S
H595 C576 0.930 . S
H596 C578 0.932 . S
H597 C579 0.929 . S
H598 C580 0.928 . S
H599 C582 0.932 . S
C600 C601 1.264 . S
C600 C605 1.479 . S
C600 C610 1.465 . S
C601 C600 1.264 . S
C601 C603 1.339 . S
C601 H628 0.931 . S
C602 C603 1.395 . S
C602 C604 1.320 . S
C603 C601 1.339 . S
C603 C602 1.395 . S
C603 H629 0.929 . S
C604 C602 1.320 . S
C604 C605 1.405 . S
C604 H630 0.930 . S
C605 C600 1.479 . S
C605 C604 1.405 . S
C605 H631 0.931 . S
U606 O607 2.454 . S
U606 O608 2.458 . S
U606 C609 2.984 . S
U606 C610 2.847 . S
U606 C623 2.882 . S
U606 O624 2.441 . S
U606 O625 2.420 . S
U606 O626 2.455 . S
U606 O627 2.449 . S
O607 U606 2.454 . S
O607 C609 1.353 . S
O608 U606 2.458 . S
O608 C609 1.286 . S
C609 U606 2.984 . S
C609 O607 1.353 . S
C609 O608 1.286 . S
C609 C611 1.363 . S
C610 C600 1.465 . S
C610 U606 2.847 . S
C610 O624 1.249 . S
C610 O625 1.202 . S
C611 C609 1.363 . S
C611 C613 1.408 . S
C611 C616 1.342 . S
C612 C613 1.310 . S
C612 C615 1.461 . S
C612 H632 0.932 . S
C613 C611 1.408 . S
C613 C612 1.310 . S
C613 H633 0.930 . S
C614 C615 1.474 . S
C614 C616 1.285 . S
C614 H634 0.929 . S
C615 C612 1.461 . S
C615 C614 1.474 . S
C616 C611 1.342 . S
C616 C614 1.285 . S
C616 H635 0.930 . S
C617 C620 1.424 . S
C617 C622 1.245 . S
C617 C623 1.428 . S
C618 C621 1.260 . S
C618 C622 1.477 . S
C618 H636 0.932 . S
C619 C620 1.384 . S
C619 C621 1.479 . S
C619 H637 0.929 . S
C620 C617 1.424 . S
C620 C619 1.384 . S
C620 H638 0.928 . S
C621 C618 1.260 . S
C621 C619 1.479 . S
C622 C617 1.245 . S
C622 C618 1.477 . S
C622 H639 0.932 . S
C623 U606 2.882 . S
C623 C617 1.428 . S
C623 O626 1.301 . S
C623 O627 1.282 . S
O624 U606 2.441 . S
O624 C610 1.249 . S
O625 U606 2.420 . S
O625 C610 1.202 . S
O626 U606 2.455 . S
O626 C623 1.301 . S
O627 U606 2.449 . S
O627 C623 1.282 . S
H628 C601 0.931 . S
H629 C603 0.929 . S
H630 C604 0.930 . S
H631 C605 0.931 . S
H632 C612 0.932 . S
H633 C613 0.930 . S
H634 C614 0.929 . S
H635 C616 0.930 . S
H636 C618 0.932 . S
H637 C619 0.929 . S
H638 C620 0.928 . S
H639 C622 0.932 . S
C640 C641 1.264 . S
C640 C645 1.479 . S
C640 C650 1.465 . S
C641 C640 1.264 . S
C641 C643 1.339 . S
C641 H668 0.931 . S
C642 C643 1.395 . S
C642 C644 1.320 . S
C643 C641 1.339 . S
C643 C642 1.395 . S
C643 H669 0.929 . S
C644 C642 1.320 . S
C644 C645 1.405 . S
C644 H670 0.930 . S
C645 C640 1.479 . S
C645 C644 1.405 . S
C645 H671 0.931 . S
U646 O647 2.454 . S
U646 O648 2.458 . S
U646 C649 2.984 . S
U646 C650 2.847 . S
U646 C663 2.882 . S
U646 O664 2.441 . S
U646 O665 2.420 . S
U646 O666 2.455 . S
U646 O667 2.449 . S
O647 U646 2.454 . S
O647 C649 1.353 . S
O648 U646 2.458 . S
O648 C649 1.286 . S
C649 U646 2.984 . S
C649 O647 1.353 . S
C649 O648 1.286 . S
C649 C651 1.363 . S
C650 C640 1.465 . S
C650 U646 2.847 . S
C650 O664 1.249 . S
C650 O665 1.202 . S
C651 C649 1.363 . S
C651 C653 1.408 . S
C651 C656 1.342 . S
C652 C653 1.310 . S
C652 C655 1.461 . S
C652 H672 0.932 . S
C653 C651 1.408 . S
C653 C652 1.310 . S
C653 H673 0.930 . S
C654 C655 1.474 . S
C654 C656 1.285 . S
C654 H674 0.929 . S
C655 C652 1.461 . S
C655 C654 1.474 . S
C656 C651 1.342 . S
C656 C654 1.285 . S
C656 H675 0.930 . S
C657 C660 1.424 . S
C657 C662 1.245 . S
C657 C663 1.428 . S
C658 C661 1.260 . S
C658 C662 1.477 . S
C658 H676 0.932 . S
C659 C660 1.384 . S
C659 C661 1.479 . S
C659 H677 0.929 . S
C660 C657 1.424 . S
C660 C659 1.384 . S
C660 H678 0.928 . S
C661 C658 1.260 . S
C661 C659 1.479 . S
C662 C657 1.245 . S
C662 C658 1.477 . S
C662 H679 0.932 . S
C663 U646 2.882 . S
C663 C657 1.428 . S
C663 O666 1.301 . S
C663 O667 1.282 . S
O664 U646 2.441 . S
O664 C650 1.249 . S
O665 U646 2.420 . S
O665 C650 1.202 . S
O666 U646 2.455 . S
O666 C663 1.301 . S
O667 U646 2.449 . S
O667 C663 1.282 . S
H668 C641 0.931 . S
H669 C643 0.929 . S
H670 C644 0.930 . S
H671 C645 0.931 . S
H672 C652 0.932 . S
H673 C653 0.930 . S
H674 C654 0.929 . S
H675 C656 0.930 . S
H676 C658 0.932 . S
H677 C659 0.929 . S
H678 C660 0.928 . S
H679 C662 0.932 . S
C680 C681 1.264 . S
C680 C685 1.479 . S
C680 C690 1.465 . S
C681 C680 1.264 . S
C681 C683 1.339 . S
C681 H708 0.931 . S
C682 C683 1.395 . S
C682 C684 1.320 . S
C683 C681 1.339 . S
C683 C682 1.395 . S
C683 H709 0.929 . S
C684 C682 1.320 . S
C684 C685 1.405 . S
C684 H710 0.930 . S
C685 C680 1.479 . S
C685 C684 1.405 . S
C685 H711 0.931 . S
U686 O687 2.454 . S
U686 O688 2.458 . S
U686 C689 2.984 . S
U686 C690 2.847 . S
U686 C703 2.882 . S
U686 O704 2.441 . S
U686 O705 2.420 . S
U686 O706 2.455 . S
U686 O707 2.449 . S
O687 U686 2.454 . S
O687 C689 1.353 . S
O688 U686 2.458 . S
O688 C689 1.286 . S
C689 U686 2.984 . S
C689 O687 1.353 . S
C689 O688 1.286 . S
C689 C691 1.363 . S
C690 C680 1.465 . S
C690 U686 2.847 . S
C690 O704 1.249 . S
C690 O705 1.202 . S
C691 C689 1.363 . S
C691 C693 1.408 . S
C691 C696 1.342 . S
C692 C693 1.310 . S
C692 C695 1.461 . S
C692 H712 0.932 . S
C693 C691 1.408 . S
C693 C692 1.310 . S
C693 H713 0.930 . S
C694 C695 1.474 . S
C694 C696 1.285 . S
C694 H714 0.929 . S
C695 C692 1.461 . S
C695 C694 1.474 . S
C696 C691 1.342 . S
C696 C694 1.285 . S
C696 H715 0.930 . S
C697 C700 1.424 . S
C697 C702 1.245 . S
C697 C703 1.428 . S
C698 C701 1.260 . S
C698 C702 1.477 . S
C698 H716 0.932 . S
C699 C700 1.384 . S
C699 C701 1.479 . S
C699 H717 0.929 . S
C700 C697 1.424 . S
C700 C699 1.384 . S
C700 H718 0.928 . S
C701 C698 1.260 . S
C701 C699 1.479 . S
C702 C697 1.245 . S
C702 C698 1.477 . S
C702 H719 0.932 . S
C703 U686 2.882 . S
C703 C697 1.428 . S
C703 O706 1.301 . S
C703 O707 1.282 . S
O704 U686 2.441 . S
O704 C690 1.249 . S
O705 U686 2.420 . S
O705 C690 1.202 . S
O706 U686 2.455 . S
O706 C703 1.301 . S
O707 U686 2.449 . S
O707 C703 1.282 . S
H708 C681 0.931 . S
H709 C683 0.929 . S
H710 C684 0.930 . S
H711 C685 0.931 . S
H712 C692 0.932 . S
H713 C693 0.930 . S
H714 C694 0.929 . S
H715 C696 0.930 . S
H716 C698 0.932 . S
H717 C699 0.929 . S
H718 C700 0.928 . S
H719 C702 0.932 . S
C720 C721 1.264 . S
C720 C725 1.479 . S
C720 C730 1.465 . S
C721 C720 1.264 . S
C721 C723 1.339 . S
C721 H748 0.931 . S
C722 C723 1.395 . S
C722 C724 1.320 . S
C723 C721 1.339 . S
C723 C722 1.395 . S
C723 H749 0.929 . S
C724 C722 1.320 . S
C724 C725 1.405 . S
C724 H750 0.930 . S
C725 C720 1.479 . S
C725 C724 1.405 . S
C725 H751 0.931 . S
U726 O727 2.454 . S
U726 O728 2.458 . S
U726 C729 2.984 . S
U726 C730 2.847 . S
U726 C743 2.882 . S
U726 O744 2.441 . S
U726 O745 2.420 . S
U726 O746 2.455 . S
U726 O747 2.449 . S
O727 U726 2.454 . S
O727 C729 1.353 . S
O728 U726 2.458 . S
O728 C729 1.286 . S
C729 U726 2.984 . S
C729 O727 1.353 . S
C729 O728 1.286 . S
C729 C731 1.363 . S
C730 C720 1.465 . S
C730 U726 2.847 . S
C730 O744 1.249 . S
C730 O745 1.202 . S
C731 C729 1.363 . S
C731 C733 1.408 . S
C731 C736 1.342 . S
C732 C733 1.310 . S
C732 C735 1.461 . S
C732 H752 0.932 . S
C733 C731 1.408 . S
C733 C732 1.310 . S
C733 H753 0.930 . S
C734 C735 1.474 . S
C734 C736 1.285 . S
C734 H754 0.929 . S
C735 C732 1.461 . S
C735 C734 1.474 . S
C736 C731 1.342 . S
C736 C734 1.285 . S
C736 H755 0.930 . S
C737 C740 1.424 . S
C737 C742 1.245 . S
C737 C743 1.428 . S
C738 C741 1.260 . S
C738 C742 1.477 . S
C738 H756 0.932 . S
C739 C740 1.384 . S
C739 C741 1.479 . S
C739 H757 0.929 . S
C740 C737 1.424 . S
C740 C739 1.384 . S
C740 H758 0.928 . S
C741 C738 1.260 . S
C741 C739 1.479 . S
C742 C737 1.245 . S
C742 C738 1.477 . S
C742 H759 0.932 . S
C743 U726 2.882 . S
C743 C737 1.428 . S
C743 O746 1.301 . S
C743 O747 1.282 . S
O744 U726 2.441 . S
O744 C730 1.249 . S
O745 U726 2.420 . S
O745 C730 1.202 . S
O746 U726 2.455 . S
O746 C743 1.301 . S
O747 U726 2.449 . S
O747 C743 1.282 . S
H748 C721 0.931 . S
H749 C723 0.929 . S
H750 C724 0.930 . S
H751 C725 0.931 . S
H752 C732 0.932 . S
H753 C733 0.930 . S
H754 C734 0.929 . S
H755 C736 0.930 . S
H756 C738 0.932 . S
H757 C739 0.929 . S
H758 C740 0.928 . S
H759 C742 0.932 . S
C760 C761 1.264 . S
C760 C765 1.479 . S
C760 C770 1.465 . S
C761 C760 1.264 . S
C761 C763 1.339 . S
C761 H788 0.931 . S
C762 C763 1.395 . S
C762 C764 1.320 . S
C763 C761 1.339 . S
C763 C762 1.395 . S
C763 H789 0.929 . S
C764 C762 1.320 . S
C764 C765 1.405 . S
C764 H790 0.930 . S
C765 C760 1.479 . S
C765 C764 1.405 . S
C765 H791 0.931 . S
U766 O767 2.454 . S
U766 O768 2.458 . S
U766 C769 2.984 . S
U766 C770 2.847 . S
U766 C783 2.882 . S
U766 O784 2.441 . S
U766 O785 2.420 . S
U766 O786 2.455 . S
U766 O787 2.449 . S
O767 U766 2.454 . S
O767 C769 1.353 . S
O768 U766 2.458 . S
O768 C769 1.286 . S
C769 U766 2.984 . S
C769 O767 1.353 . S
C769 O768 1.286 . S
C769 C771 1.363 1_655 S
C770 C760 1.465 . S
C770 U766 2.847 . S
C770 O784 1.249 . S
C770 O785 1.202 . S
C771 C769 1.363 1_455 S
C771 C773 1.408 . S
C771 C776 1.342 . S
C772 C773 1.310 . S
C772 C775 1.461 . S
C772 H792 0.932 . S
C773 C771 1.408 . S
C773 C772 1.310 . S
C773 H793 0.930 . S
C774 C775 1.474 . S
C774 C776 1.285 . S
C774 H794 0.929 . S
C775 C772 1.461 . S
C775 C774 1.474 . S
C776 C771 1.342 . S
C776 C774 1.285 . S
C776 H795 0.930 . S
C777 C780 1.424 . S
C777 C782 1.245 . S
C777 C783 1.428 . S
C778 C781 1.260 . S
C778 C782 1.477 . S
C778 H796 0.932 . S
C779 C780 1.384 . S
C779 C781 1.479 . S
C779 H797 0.929 . S
C780 C777 1.424 . S
C780 C779 1.384 . S
C780 H798 0.928 . S
C781 C778 1.260 . S
C781 C779 1.479 . S
C782 C777 1.245 . S
C782 C778 1.477 . S
C782 H799 0.932 . S
C783 U766 2.882 . S
C783 C777 1.428 . S
C783 O786 1.301 . S
C783 O787 1.282 . S
O784 U766 2.441 . S
O784 C770 1.249 . S
O785 U766 2.420 . S
O785 C770 1.202 . S
O786 U766 2.455 . S
O786 C783 1.301 . S
O787 U766 2.449 . S
O787 C783 1.282 . S
H788 C761 0.931 . S
H789 C763 0.929 . S
H790 C764 0.930 . S
H791 C765 0.931 . S
H792 C772 0.932 . S
H793 C773 0.930 . S
H794 C774 0.929 . S
H795 C776 0.930 . S
H796 C778 0.932 . S
H797 C779 0.929 . S
H798 C780 0.928 . S
H799 C782 0.932 . S
C800 C801 1.264 . S
C800 C805 1.479 . S
C800 C810 1.465 . S
C801 C800 1.264 . S
C801 C803 1.339 . S
C801 H828 0.931 . S
C802 C803 1.395 . S
C802 C804 1.320 . S
C803 C801 1.339 . S
C803 C802 1.395 . S
C803 H829 0.929 . S
C804 C802 1.320 . S
C804 C805 1.405 . S
C804 H830 0.930 . S
C805 C800 1.479 . S
C805 C804 1.405 . S
C805 H831 0.931 . S
U806 O807 2.454 . S
U806 O808 2.458 . S
U806 C809 2.984 . S
U806 C810 2.847 . S
U806 C823 2.882 . S
U806 O824 2.441 . S
U806 O825 2.420 . S
U806 O826 2.455 . S
U806 O827 2.449 . S
O807 U806 2.454 . S
O807 C809 1.353 . S
O808 U806 2.458 . S
O808 C809 1.286 . S
C809 U806 2.984 . S
C809 O807 1.353 . S
C809 O808 1.286 . S
C809 C811 1.363 . S
C810 C800 1.465 . S
C810 U806 2.847 . S
C810 O824 1.249 . S
C810 O825 1.202 . S
C811 C809 1.363 . S
C811 C813 1.408 . S
C811 C816 1.367 . S
C812 C813 1.310 1_455 S
C812 C815 1.461 . S
C812 H832 0.932 . S
C813 C811 1.408 . S
C813 C812 1.310 1_655 S
C813 H833 0.930 . S
C814 C815 1.474 . S
C814 C816 1.263 1_455 S
C814 H834 0.929 . S
C815 C812 1.461 . S
C815 C814 1.474 . S
C816 C811 1.367 . S
C816 C814 1.263 1_655 S
C816 H835 0.928 . S
C817 C820 1.424 . S
C817 C822 1.245 . S
C817 C823 1.428 . S
C818 C821 1.260 . S
C818 C822 1.477 . S
C818 H836 0.932 . S
C819 C820 1.384 . S
C819 C821 1.479 . S
C819 H837 0.929 . S
C820 C817 1.424 . S
C820 C819 1.384 . S
C820 H838 0.928 . S
C821 C818 1.260 . S
C821 C819 1.479 . S
C822 C817 1.245 . S
C822 C818 1.477 . S
C822 H839 0.932 . S
C823 U806 2.882 . S
C823 C817 1.428 . S
C823 O826 1.301 . S
C823 O827 1.282 . S
O824 U806 2.441 . S
O824 C810 1.249 . S
O825 U806 2.420 . S
O825 C810 1.202 . S
O826 U806 2.455 . S
O826 C823 1.301 . S
O827 U806 2.449 . S
O827 C823 1.282 . S
H828 C801 0.931 . S
H829 C803 0.929 . S
H830 C804 0.930 . S
H831 C805 0.931 . S
H832 C812 0.932 . S
H833 C813 0.930 . S
H834 C814 0.929 . S
H835 C816 0.928 . S
H836 C818 0.932 . S
H837 C819 0.929 . S
H838 C820 0.928 . S
H839 C822 0.932 . S
C840 C841 1.264 . S
C840 C845 1.479 . S
C840 C850 1.465 . S
C841 C840 1.264 . S
C841 C843 1.339 . S
C841 H868 0.931 . S
C842 C843 1.395 . S
C842 C844 1.320 . S
C843 C841 1.339 . S
C843 C842 1.395 . S
C843 H869 0.929 . S
C844 C842 1.320 . S
C844 C845 1.405 . S
C844 H870 0.930 . S
C845 C840 1.479 . S
C845 C844 1.405 . S
C845 H871 0.931 . S
U846 O847 2.454 . S
U846 O848 2.458 . S
U846 C849 2.984 . S
U846 C850 2.847 . S
U846 C863 2.882 . S
U846 O864 2.441 . S
U846 O865 2.420 . S
U846 O866 2.455 . S
U846 O867 2.449 . S
O847 U846 2.454 . S
O847 C849 1.353 . S
O848 U846 2.458 . S
O848 C849 1.286 . S
C849 U846 2.984 . S
C849 O847 1.353 . S
C849 O848 1.286 . S
C849 C851 1.363 . S
C850 C840 1.465 . S
C850 U846 2.847 . S
C850 O864 1.249 . S
C850 O865 1.202 . S
C851 C849 1.363 . S
C851 C853 1.408 . S
C851 C856 1.342 . S
C852 C853 1.310 . S
C852 C855 1.461 . S
C852 H872 0.932 . S
C853 C851 1.408 . S
C853 C852 1.310 . S
C853 H873 0.930 . S
C854 C855 1.474 . S
C854 C856 1.285 . S
C854 H874 0.929 . S
C855 C852 1.461 . S
C855 C854 1.474 . S
C856 C851 1.342 . S
C856 C854 1.285 . S
C856 H875 0.930 . S
C857 C860 1.424 . S
C857 C862 1.245 . S
C857 C863 1.428 . S
C858 C861 1.260 . S
C858 C862 1.477 . S
C858 H876 0.932 . S
C859 C860 1.384 . S
C859 C861 1.479 . S
C859 H877 0.929 . S
C860 C857 1.424 . S
C860 C859 1.384 . S
C860 H878 0.928 . S
C861 C858 1.260 . S
C861 C859 1.479 . S
C862 C857 1.245 . S
C862 C858 1.477 . S
C862 H879 0.932 . S
C863 U846 2.882 . S
C863 C857 1.428 . S
C863 O866 1.301 . S
C863 O867 1.282 . S
O864 U846 2.441 . S
O864 C850 1.249 . S
O865 U846 2.420 . S
O865 C850 1.202 . S
O866 U846 2.455 . S
O866 C863 1.301 . S
O867 U846 2.449 . S
O867 C863 1.282 . S
H868 C841 0.931 . S
H869 C843 0.929 . S
H870 C844 0.930 . S
H871 C845 0.931 . S
H872 C852 0.932 . S
H873 C853 0.930 . S
H874 C854 0.929 . S
H875 C856 0.930 . S
H876 C858 0.932 . S
H877 C859 0.929 . S
H878 C860 0.928 . S
H879 C862 0.932 . S
C880 C881 1.264 . S
C880 C885 1.479 . S
C880 C890 1.465 . S
C881 C880 1.264 . S
C881 C883 1.339 . S
C881 H908 0.931 . S
C882 C883 1.395 . S
C882 C884 1.320 . S
C883 C881 1.339 . S
C883 C882 1.395 . S
C883 H909 0.929 . S
C884 C882 1.320 . S
C884 C885 1.405 . S
C884 H910 0.930 . S
C885 C880 1.479 . S
C885 C884 1.405 . S
C885 H911 0.931 . S
U886 O887 2.454 . S
U886 O888 2.458 . S
U886 C889 2.984 . S
U886 C890 2.847 . S
U886 C903 2.882 . S
U886 O904 2.441 . S
U886 O905 2.420 . S
U886 O906 2.455 . S
U886 O907 2.449 . S
O887 U886 2.454 . S
O887 C889 1.353 . S
O888 U886 2.458 . S
O888 C889 1.286 . S
C889 U886 2.984 . S
C889 O887 1.353 . S
C889 O888 1.286 . S
C889 C891 1.363 . S
C890 C880 1.465 . S
C890 U886 2.847 . S
C890 O904 1.249 . S
C890 O905 1.202 . S
C891 C889 1.363 . S
C891 C893 1.408 . S
C891 C896 1.342 . S
C892 C893 1.310 . S
C892 C895 1.461 . S
C892 H912 0.932 . S
C893 C891 1.408 . S
C893 C892 1.310 . S
C893 H913 0.930 . S
C894 C895 1.474 . S
C894 C896 1.285 . S
C894 H914 0.929 . S
C895 C892 1.461 . S
C895 C894 1.474 . S
C896 C891 1.342 . S
C896 C894 1.285 . S
C896 H915 0.930 . S
C897 C900 1.424 . S
C897 C902 1.245 . S
C897 C903 1.428 . S
C898 C901 1.260 . S
C898 C902 1.477 . S
C898 H916 0.932 . S
C899 C900 1.384 . S
C899 C901 1.479 . S
C899 H917 0.929 . S
C900 C897 1.424 . S
C900 C899 1.384 . S
C900 H918 0.928 . S
C901 C898 1.260 . S
C901 C899 1.479 . S
C902 C897 1.245 . S
C902 C898 1.477 . S
C902 H919 0.932 . S
C903 U886 2.882 . S
C903 C897 1.428 . S
C903 O906 1.301 . S
C903 O907 1.282 . S
O904 U886 2.441 . S
O904 C890 1.249 . S
O905 U886 2.420 . S
O905 C890 1.202 . S
O906 U886 2.455 . S
O906 C903 1.301 . S
O907 U886 2.449 . S
O907 C903 1.282 . S
H908 C881 0.931 . S
H909 C883 0.929 . S
H910 C884 0.930 . S
H911 C885 0.931 . S
H912 C892 0.932 . S
H913 C893 0.930 . S
H914 C894 0.929 . S
H915 C896 0.930 . S
H916 C898 0.932 . S
H917 C899 0.929 . S
H918 C900 0.928 . S
H919 C902 0.932 . S
C920 C921 1.264 . S
C920 C925 1.479 . S
C920 C930 1.465 . S
C921 C920 1.264 . S
C921 C923 1.339 . S
C921 H948 0.931 . S
C922 C923 1.395 . S
C922 C924 1.320 . S
C923 C921 1.339 . S
C923 C922 1.395 . S
C923 H949 0.929 . S
C924 C922 1.320 . S
C924 C925 1.405 . S
C924 H950 0.930 . S
C925 C920 1.479 . S
C925 C924 1.405 . S
C925 H951 0.931 . S
U926 O927 2.454 . S
U926 O928 2.458 . S
U926 C929 2.984 . S
U926 C930 2.847 . S
U926 C943 2.882 . S
U926 O944 2.441 . S
U926 O945 2.420 . S
U926 O946 2.455 . S
U926 O947 2.449 . S
O927 U926 2.454 . S
O927 C929 1.353 . S
O928 U926 2.458 . S
O928 C929 1.286 . S
C929 U926 2.984 . S
C929 O927 1.353 . S
C929 O928 1.286 . S
C929 C931 1.363 . S
C930 C920 1.465 . S
C930 U926 2.847 . S
C930 O944 1.249 . S
C930 O945 1.202 . S
C931 C929 1.363 . S
C931 C933 1.408 . S
C931 C936 1.342 . S
C932 C933 1.310 . S
C932 C935 1.461 . S
C932 H952 0.932 . S
C933 C931 1.408 . S
C933 C932 1.310 . S
C933 H953 0.930 . S
C934 C935 1.474 . S
C934 C936 1.285 . S
C934 H954 0.929 . S
C935 C932 1.461 . S
C935 C934 1.474 . S
C936 C931 1.342 . S
C936 C934 1.285 . S
C936 H955 0.930 . S
C937 C940 1.424 . S
C937 C942 1.245 . S
C937 C943 1.428 . S
C938 C941 1.260 . S
C938 C942 1.477 . S
C938 H956 0.932 . S
C939 C940 1.384 . S
C939 C941 1.479 . S
C939 H957 0.929 . S
C940 C937 1.424 . S
C940 C939 1.384 . S
C940 H958 0.928 . S
C941 C938 1.260 . S
C941 C939 1.479 . S
C942 C937 1.245 . S
C942 C938 1.477 . S
C942 H959 0.932 . S
C943 U926 2.882 . S
C943 C937 1.428 . S
C943 O946 1.301 . S
C943 O947 1.282 . S
O944 U926 2.441 . S
O944 C930 1.249 . S
O945 U926 2.420 . S
O945 C930 1.202 . S
O946 U926 2.455 . S
O946 C943 1.301 . S
O947 U926 2.449 . S
O947 C943 1.282 . S
H948 C921 0.931 . S
H949 C923 0.929 . S
H950 C924 0.930 . S
H951 C925 0.931 . S
H952 C932 0.932 . S
H953 C933 0.930 . S
H954 C934 0.929 . S
H955 C936 0.930 . S
H956 C938 0.932 . S
H957 C939 0.929 . S
H958 C940 0.928 . S
H959 C942 0.932 . S
C960 C961 1.391 . S
C960 C962 1.394 . S
C960 H976 0.931 . S
C961 C960 1.391 . S
C961 C965 1.376 . S
C962 C960 1.394 . S
C962 C963 1.369 . S
C962 C966 1.531 . S
C963 C962 1.369 . S
C963 C964 1.410 . S
C963 C971 1.503 . S
C964 C963 1.410 . S
C964 C965 1.392 . S
C964 C967 1.511 . S
C965 C961 1.376 . S
C965 C964 1.392 . S
C965 H977 0.929 . S
C966 C962 1.531 . S
C966 H978 0.960 . S
C966 H979 0.962 . S
C966 H980 0.960 . S
C967 C964 1.511 . S
C967 H981 0.942 1_455 S
C967 H982 0.961 . S
C967 H983 0.961 . S
C968 C969 1.370 . S
C968 C970 1.363 . S
C968 H984 0.893 1_455 S
C969 C968 1.370 . S
C969 C973 1.408 . S
C970 C968 1.363 . S
C970 C971 1.370 . S
C970 C974 1.524 . S
C971 C963 1.503 . S
C971 C970 1.370 . S
C971 C972 1.403 . S
C972 C971 1.403 . S
C972 C973 1.404 . S
C972 C975 1.539 . S
C973 C969 1.408 . S
C973 C972 1.404 . S
C973 H985 0.930 . S
C974 C970 1.524 . S
C974 H986 0.956 . S
C974 H987 0.963 . S
C974 H988 0.961 1_455 S
C975 C972 1.539 . S
C975 H989 0.958 . S
C975 H990 0.961 . S
C975 H991 0.960 . S
H976 C960 0.931 . S
H977 C965 0.929 . S
H978 C966 0.960 . S
H979 C966 0.962 . S
H980 C966 0.960 . S
H981 C967 0.942 1_655 S
H982 C967 0.961 . S
H983 C967 0.961 . S
H984 C968 0.893 1_655 S
H985 C973 0.930 . S
H986 C974 0.956 . S
H987 C974 0.963 . S
H988 C974 0.961 1_655 S
H989 C975 0.958 . S
H990 C975 0.961 . S
H991 C975 0.960 . S
C992 C993 1.391 . S
C992 C994 1.394 . S
C992 H1008 0.931 . S
C993 C992 1.391 . S
C993 C997 1.376 . S
C994 C992 1.394 . S
C994 C995 1.369 . S
C994 C998 1.531 . S
C995 C994 1.369 . S
C995 C996 1.410 . S
C995 C1003 1.503 . S
C996 C995 1.410 . S
C996 C997 1.392 . S
C996 C999 1.511 . S
C997 C993 1.376 . S
C997 C996 1.392 . S
C997 H1009 0.929 . S
C998 C994 1.531 . S
C998 H1010 0.960 . S
C998 H1011 0.962 . S
C998 H1012 0.960 . S
C999 C996 1.511 . S
C999 H1013 0.961 . S
C999 H1014 0.961 . S
C999 H1015 0.961 . S
C1000 C1001 1.370 . S
C1000 C1002 1.363 . S
C1000 H1016 0.931 . S
C1001 C1000 1.370 . S
C1001 C1005 1.408 . S
C1002 C1000 1.363 . S
C1002 C1003 1.370 . S
C1002 C1006 1.524 . S
C1003 C995 1.503 . S
C1003 C1002 1.370 . S
C1003 C1004 1.403 . S
C1004 C1003 1.403 . S
C1004 C1005 1.404 . S
C1004 C1007 1.539 . S
C1005 C1001 1.408 . S
C1005 C1004 1.404 . S
C1005 H1017 0.930 . S
C1006 C1002 1.524 . S
C1006 H1018 0.956 . S
C1006 H1019 0.961 . S
C1006 H1020 0.961 . S
C1007 C1004 1.539 . S
C1007 H1021 0.958 . S
C1007 H1022 0.961 . S
C1007 H1023 0.960 . S
H1008 C992 0.931 . S
H1009 C997 0.929 . S
H1010 C998 0.960 . S
H1011 C998 0.962 . S
H1012 C998 0.960 . S
H1013 C999 0.961 . S
H1014 C999 0.961 . S
H1015 C999 0.961 . S
H1016 C1000 0.931 . S
H1017 C1005 0.930 . S
H1018 C1006 0.956 . S
H1019 C1006 0.961 . S
H1020 C1006 0.961 . S
H1021 C1007 0.958 . S
H1022 C1007 0.961 . S
H1023 C1007 0.960 . S
C1024 C1025 1.391 . S
C1024 C1026 1.394 . S
C1024 H1040 0.931 . S
C1025 C1024 1.391 . S
C1025 C1029 1.376 . S
C1026 C1024 1.394 . S
C1026 C1027 1.369 . S
C1026 C1030 1.531 . S
C1027 C1026 1.369 . S
C1027 C1028 1.410 . S
C1027 C1035 1.503 . S
C1028 C1027 1.410 . S
C1028 C1029 1.392 . S
C1028 C1031 1.511 . S
C1029 C1025 1.376 . S
C1029 C1028 1.392 . S
C1029 H1041 0.929 . S
C1030 C1026 1.531 . S
C1030 H1042 0.960 . S
C1030 H1043 0.962 . S
C1030 H1044 0.960 . S
C1031 C1028 1.511 . S
C1031 H1045 0.961 . S
C1031 H1046 0.961 . S
C1031 H1047 0.961 . S
C1032 C1033 1.370 . S
C1032 C1034 1.363 . S
C1032 H1048 0.931 . S
C1033 C1032 1.370 . S
C1033 C1037 1.408 . S
C1034 C1032 1.363 . S
C1034 C1035 1.370 . S
C1034 C1038 1.524 . S
C1035 C1027 1.503 . S
C1035 C1034 1.370 . S
C1035 C1036 1.403 . S
C1036 C1035 1.403 . S
C1036 C1037 1.404 . S
C1036 C1039 1.539 . S
C1037 C1033 1.408 . S
C1037 C1036 1.404 . S
C1037 H1049 0.930 . S
C1038 C1034 1.524 . S
C1038 H1050 0.956 . S
C1038 H1051 0.961 . S
C1038 H1052 0.961 . S
C1039 C1036 1.539 . S
C1039 H1053 0.958 . S
C1039 H1054 0.961 . S
C1039 H1055 0.960 . S
H1040 C1024 0.931 . S
H1041 C1029 0.929 . S
H1042 C1030 0.960 . S
H1043 C1030 0.962 . S
H1044 C1030 0.960 . S
H1045 C1031 0.961 . S
H1046 C1031 0.961 . S
H1047 C1031 0.961 . S
H1048 C1032 0.931 . S
H1049 C1037 0.930 . S
H1050 C1038 0.956 . S
H1051 C1038 0.961 . S
H1052 C1038 0.961 . S
H1053 C1039 0.958 . S
H1054 C1039 0.961 . S
H1055 C1039 0.960 . S
C1056 C1057 1.391 . S
C1056 C1058 1.394 . S
C1056 H1072 0.931 . S
C1057 C1056 1.391 . S
C1057 C1061 1.376 . S
C1058 C1056 1.394 . S
C1058 C1059 1.369 . S
C1058 C1062 1.531 . S
C1059 C1058 1.369 . S
C1059 C1060 1.410 . S
C1059 C1067 1.503 . S
C1060 C1059 1.410 . S
C1060 C1061 1.392 . S
C1060 C1063 1.511 . S
C1061 C1057 1.376 . S
C1061 C1060 1.392 . S
C1061 H1073 0.929 . S
C1062 C1058 1.531 . S
C1062 H1074 0.960 . S
C1062 H1075 0.962 . S
C1062 H1076 0.960 . S
C1063 C1060 1.511 . S
C1063 H1077 0.961 . S
C1063 H1078 0.961 . S
C1063 H1079 0.961 . S
C1064 C1065 1.370 . S
C1064 C1066 1.363 . S
C1064 H1080 0.931 . S
C1065 C1064 1.370 . S
C1065 C1069 1.408 . S
C1066 C1064 1.363 . S
C1066 C1067 1.370 . S
C1066 C1070 1.524 . S
C1067 C1059 1.503 . S
C1067 C1066 1.370 . S
C1067 C1068 1.403 . S
C1068 C1067 1.403 . S
C1068 C1069 1.404 . S
C1068 C1071 1.539 . S
C1069 C1065 1.408 . S
C1069 C1068 1.404 . S
C1069 H1081 0.930 . S
C1070 C1066 1.524 . S
C1070 H1082 0.956 . S
C1070 H1083 0.961 . S
C1070 H1084 0.961 . S
C1071 C1068 1.539 . S
C1071 H1085 0.958 . S
C1071 H1086 0.961 . S
C1071 H1087 0.960 . S
H1072 C1056 0.931 . S
H1073 C1061 0.929 . S
H1074 C1062 0.960 . S
H1075 C1062 0.962 . S
H1076 C1062 0.960 . S
H1077 C1063 0.961 . S
H1078 C1063 0.961 . S
H1079 C1063 0.961 . S
H1080 C1064 0.931 . S
H1081 C1069 0.930 . S
H1082 C1070 0.956 . S
H1083 C1070 0.961 . S
H1084 C1070 0.961 . S
H1085 C1071 0.958 . S
H1086 C1071 0.961 . S
H1087 C1071 0.960 . S
C1088 C1089 1.391 . S
C1088 C1090 1.394 . S
C1088 H1104 0.931 . S
C1089 C1088 1.391 . S
C1089 C1093 1.376 . S
C1090 C1088 1.394 . S
C1090 C1091 1.369 . S
C1090 C1094 1.531 . S
C1091 C1090 1.369 . S
C1091 C1092 1.410 . S
C1091 C1099 1.503 . S
C1092 C1091 1.410 . S
C1092 C1093 1.392 . S
C1092 C1095 1.511 . S
C1093 C1089 1.376 . S
C1093 C1092 1.392 . S
C1093 H1105 0.929 . S
C1094 C1090 1.531 . S
C1094 H1106 0.960 . S
C1094 H1107 0.962 . S
C1094 H1108 0.960 . S
C1095 C1092 1.511 . S
C1095 H1109 0.961 . S
C1095 H1110 0.961 . S
C1095 H1111 0.961 . S
C1096 C1097 1.370 . S
C1096 C1098 1.363 . S
C1096 H1112 0.931 . S
C1097 C1096 1.370 . S
C1097 C1101 1.408 . S
C1098 C1096 1.363 . S
C1098 C1099 1.370 . S
C1098 C1102 1.524 . S
C1099 C1091 1.503 . S
C1099 C1098 1.370 . S
C1099 C1100 1.403 . S
C1100 C1099 1.403 . S
C1100 C1101 1.404 . S
C1100 C1103 1.539 . S
C1101 C1097 1.408 . S
C1101 C1100 1.404 . S
C1101 H1113 0.930 . S
C1102 C1098 1.524 . S
C1102 H1114 0.956 . S
C1102 H1115 0.961 . S
C1102 H1116 0.961 . S
C1103 C1100 1.539 . S
C1103 H1117 0.958 . S
C1103 H1118 0.961 . S
C1103 H1119 0.960 . S
H1104 C1088 0.931 . S
H1105 C1093 0.929 . S
H1106 C1094 0.960 . S
H1107 C1094 0.962 . S
H1108 C1094 0.960 . S
H1109 C1095 0.961 . S
H1110 C1095 0.961 . S
H1111 C1095 0.961 . S
H1112 C1096 0.931 . S
H1113 C1101 0.930 . S
H1114 C1102 0.956 . S
H1115 C1102 0.961 . S
H1116 C1102 0.961 . S
H1117 C1103 0.958 . S
H1118 C1103 0.961 . S
H1119 C1103 0.960 . S
C1120 C1121 1.391 . S
C1120 C1122 1.394 . S
C1120 H1136 0.931 . S
C1121 C1120 1.391 . S
C1121 C1125 1.376 . S
C1122 C1120 1.394 . S
C1122 C1123 1.369 . S
C1122 C1126 1.531 . S
C1123 C1122 1.369 . S
C1123 C1124 1.410 . S
C1123 C1131 1.503 . S
C1124 C1123 1.410 . S
C1124 C1125 1.392 . S
C1124 C1127 1.511 . S
C1125 C1121 1.376 . S
C1125 C1124 1.392 . S
C1125 H1137 0.929 . S
C1126 C1122 1.531 . S
C1126 H1138 0.960 . S
C1126 H1139 0.962 . S
C1126 H1140 0.960 . S
C1127 C1124 1.511 . S
C1127 H1141 0.961 . S
C1127 H1142 0.961 . S
C1127 H1143 0.961 . S
C1128 C1129 1.370 . S
C1128 C1130 1.363 . S
C1128 H1144 0.931 . S
C1129 C1128 1.370 . S
C1129 C1133 1.408 . S
C1130 C1128 1.363 . S
C1130 C1131 1.370 . S
C1130 C1134 1.524 . S
C1131 C1123 1.503 . S
C1131 C1130 1.370 . S
C1131 C1132 1.403 . S
C1132 C1131 1.403 . S
C1132 C1133 1.404 . S
C1132 C1135 1.539 . S
C1133 C1129 1.408 . S
C1133 C1132 1.404 . S
C1133 H1145 0.930 . S
C1134 C1130 1.524 . S
C1134 H1146 0.956 . S
C1134 H1147 0.961 . S
C1134 H1148 0.961 . S
C1135 C1132 1.539 . S
C1135 H1149 0.958 . S
C1135 H1150 0.961 . S
C1135 H1151 0.960 . S
H1136 C1120 0.931 . S
H1137 C1125 0.929 . S
H1138 C1126 0.960 . S
H1139 C1126 0.962 . S
H1140 C1126 0.960 . S
H1141 C1127 0.961 . S
H1142 C1127 0.961 . S
H1143 C1127 0.961 . S
H1144 C1128 0.931 . S
H1145 C1133 0.930 . S
H1146 C1134 0.956 . S
H1147 C1134 0.961 . S
H1148 C1134 0.961 . S
H1149 C1135 0.958 . S
H1150 C1135 0.961 . S
H1151 C1135 0.960 . S
C1152 C1153 1.391 . S
C1152 C1154 1.394 . S
C1152 H1168 0.931 . S
C1153 C1152 1.391 . S
C1153 C1157 1.376 . S
C1154 C1152 1.394 . S
C1154 C1155 1.369 . S
C1154 C1158 1.531 . S
C1155 C1154 1.369 . S
C1155 C1156 1.410 . S
C1155 C1163 1.503 . S
C1156 C1155 1.410 . S
C1156 C1157 1.392 . S
C1156 C1159 1.511 . S
C1157 C1153 1.376 . S
C1157 C1156 1.392 . S
C1157 H1169 0.929 . S
C1158 C1154 1.531 . S
C1158 H1170 0.960 . S
C1158 H1171 0.962 . S
C1158 H1172 0.960 . S
C1159 C1156 1.511 . S
C1159 H1173 0.961 . S
C1159 H1174 0.961 . S
C1159 H1175 0.961 . S
C1160 C1161 1.370 . S
C1160 C1162 1.363 . S
C1160 H1176 0.931 . S
C1161 C1160 1.370 . S
C1161 C1165 1.408 . S
C1162 C1160 1.363 . S
C1162 C1163 1.370 . S
C1162 C1166 1.524 . S
C1163 C1155 1.503 . S
C1163 C1162 1.370 . S
C1163 C1164 1.403 . S
C1164 C1163 1.403 . S
C1164 C1165 1.404 . S
C1164 C1167 1.539 . S
C1165 C1161 1.408 . S
C1165 C1164 1.404 . S
C1165 H1177 0.930 . S
C1166 C1162 1.524 . S
C1166 H1178 0.956 . S
C1166 H1179 0.961 . S
C1166 H1180 0.961 . S
C1167 C1164 1.539 . S
C1167 H1181 0.958 . S
C1167 H1182 0.961 . S
C1167 H1183 0.960 . S
H1168 C1152 0.931 . S
H1169 C1157 0.929 . S
H1170 C1158 0.960 . S
H1171 C1158 0.962 . S
H1172 C1158 0.960 . S
H1173 C1159 0.961 . S
H1174 C1159 0.961 . S
H1175 C1159 0.961 . S
H1176 C1160 0.931 . S
H1177 C1165 0.930 . S
H1178 C1166 0.956 . S
H1179 C1166 0.961 . S
H1180 C1166 0.961 . S
H1181 C1167 0.958 . S
H1182 C1167 0.961 . S
H1183 C1167 0.960 . S
C1184 C1185 1.391 . S
C1184 C1186 1.394 . S
C1184 H1200 0.931 . S
C1185 C1184 1.391 . S
C1185 C1189 1.376 . S
C1186 C1184 1.394 . S
C1186 C1187 1.369 . S
C1186 C1190 1.531 . S
C1187 C1186 1.369 . S
C1187 C1188 1.410 . S
C1187 C1195 1.503 . S
C1188 C1187 1.410 . S
C1188 C1189 1.392 . S
C1188 C1191 1.511 . S
C1189 C1185 1.376 . S
C1189 C1188 1.392 . S
C1189 H1201 0.929 . S
C1190 C1186 1.531 . S
C1190 H1202 0.960 . S
C1190 H1203 0.962 . S
C1190 H1204 0.960 . S
C1191 C1188 1.511 . S
C1191 H1205 0.961 . S
C1191 H1206 0.961 . S
C1191 H1207 0.961 . S
C1192 C1193 1.370 . S
C1192 C1194 1.363 . S
C1192 H1208 0.931 . S
C1193 C1192 1.370 . S
C1193 C1197 1.408 . S
C1194 C1192 1.363 . S
C1194 C1195 1.370 . S
C1194 C1198 1.524 . S
C1195 C1187 1.503 . S
C1195 C1194 1.370 . S
C1195 C1196 1.403 . S
C1196 C1195 1.403 . S
C1196 C1197 1.404 . S
C1196 C1199 1.539 . S
C1197 C1193 1.408 . S
C1197 C1196 1.404 . S
C1197 H1209 0.930 . S
C1198 C1194 1.524 . S
C1198 H1210 0.956 . S
C1198 H1211 0.961 . S
C1198 H1212 0.961 . S
C1199 C1196 1.539 . S
C1199 H1213 0.958 . S
C1199 H1214 0.961 . S
C1199 H1215 0.960 . S
H1200 C1184 0.931 . S
H1201 C1189 0.929 . S
H1202 C1190 0.960 . S
H1203 C1190 0.962 . S
H1204 C1190 0.960 . S
H1205 C1191 0.961 . S
H1206 C1191 0.961 . S
H1207 C1191 0.961 . S
H1208 C1192 0.931 . S
H1209 C1197 0.930 . S
H1210 C1198 0.956 . S
H1211 C1198 0.961 . S
H1212 C1198 0.961 . S
H1213 C1199 0.958 . S
H1214 C1199 0.961 . S
H1215 C1199 0.960 . S
C1216 C1217 1.391 . S
C1216 C1218 1.394 . S
C1216 H1232 0.931 . S
C1217 C1216 1.391 . S
C1217 C1221 1.376 . S
C1218 C1216 1.394 . S
C1218 C1219 1.369 . S
C1218 C1222 1.531 . S
C1219 C1218 1.369 . S
C1219 C1220 1.410 . S
C1219 C1227 1.503 . S
C1220 C1219 1.410 . S
C1220 C1221 1.392 . S
C1220 C1223 1.511 . S
C1221 C1217 1.376 . S
C1221 C1220 1.392 . S
C1221 H1233 0.929 . S
C1222 C1218 1.531 . S
C1222 H1234 0.960 . S
C1222 H1235 0.962 . S
C1222 H1236 0.960 . S
C1223 C1220 1.511 . S
C1223 H1237 0.961 . S
C1223 H1238 0.961 . S
C1223 H1239 0.961 . S
C1224 C1225 1.370 . S
C1224 C1226 1.363 . S
C1224 H1240 0.931 . S
C1225 C1224 1.370 . S
C1225 C1229 1.408 . S
C1226 C1224 1.363 . S
C1226 C1227 1.370 . S
C1226 C1230 1.524 . S
C1227 C1219 1.503 . S
C1227 C1226 1.370 . S
C1227 C1228 1.403 . S
C1228 C1227 1.403 . S
C1228 C1229 1.404 . S
C1228 C1231 1.539 . S
C1229 C1225 1.408 . S
C1229 C1228 1.404 . S
C1229 H1241 0.930 . S
C1230 C1226 1.524 . S
C1230 H1242 0.956 . S
C1230 H1243 0.961 . S
C1230 H1244 0.961 . S
C1231 C1228 1.539 . S
C1231 H1245 0.958 . S
C1231 H1246 0.961 . S
C1231 H1247 0.960 . S
H1232 C1216 0.931 . S
H1233 C1221 0.929 . S
H1234 C1222 0.960 . S
H1235 C1222 0.962 . S
H1236 C1222 0.960 . S
H1237 C1223 0.961 . S
H1238 C1223 0.961 . S
H1239 C1223 0.961 . S
H1240 C1224 0.931 . S
H1241 C1229 0.930 . S
H1242 C1230 0.956 . S
H1243 C1230 0.961 . S
H1244 C1230 0.961 . S
H1245 C1231 0.958 . S
H1246 C1231 0.961 . S
H1247 C1231 0.960 . S
C1248 C1249 1.391 1_565 S
C1248 C1250 1.394 . S
C1248 H1264 0.931 . S
C1249 C1248 1.391 1_545 S
C1249 C1253 1.376 . S
C1250 C1248 1.394 . S
C1250 C1251 1.369 . S
C1250 C1254 1.531 . S
C1251 C1250 1.369 . S
C1251 C1252 1.410 1_565 S
C1251 C1259 1.503 . S
C1252 C1251 1.410 1_545 S
C1252 C1253 1.392 . S
C1252 C1255 1.511 . S
C1253 C1249 1.376 . S
C1253 C1252 1.392 . S
C1253 H1265 0.929 . S
C1254 C1250 1.531 . S
C1254 H1266 0.960 . S
C1254 H1267 0.962 . S
C1254 H1268 0.960 . S
C1255 C1252 1.511 . S
C1255 H1269 0.961 . S
C1255 H1270 0.961 . S
C1255 H1271 0.961 . S
C1256 C1257 1.370 . S
C1256 C1258 1.363 . S
C1256 H1272 0.931 . S
C1257 C1256 1.370 . S
C1257 C1261 1.408 . S
C1258 C1256 1.363 . S
C1258 C1259 1.370 . S
C1258 C1262 1.524 . S
C1259 C1251 1.503 . S
C1259 C1258 1.370 . S
C1259 C1260 1.403 . S
C1260 C1259 1.403 . S
C1260 C1261 1.404 . S
C1260 C1263 1.539 . S
C1261 C1257 1.408 . S
C1261 C1260 1.404 . S
C1261 H1273 0.930 . S
C1262 C1258 1.524 . S
C1262 H1274 0.956 . S
C1262 H1275 0.961 . S
C1262 H1276 0.961 . S
C1263 C1260 1.539 . S
C1263 H1277 0.958 . S
C1263 H1278 0.961 . S
C1263 H1279 0.960 . S
H1264 C1248 0.931 . S
H1265 C1253 0.929 . S
H1266 C1254 0.960 . S
H1267 C1254 0.962 . S
H1268 C1254 0.960 . S
H1269 C1255 0.961 . S
H1270 C1255 0.961 . S
H1271 C1255 0.961 . S
H1272 C1256 0.931 . S
H1273 C1261 0.930 . S
H1274 C1262 0.956 . S
H1275 C1262 0.961 . S
H1276 C1262 0.961 . S
H1277 C1263 0.958 . S
H1278 C1263 0.961 . S
H1279 C1263 0.960 . S
C1280 C1281 1.391 . S
C1280 C1282 1.394 . S
C1280 H1296 0.931 . S
C1281 C1280 1.391 . S
C1281 C1285 1.376 . S
C1282 C1280 1.394 . S
C1282 C1283 1.369 . S
C1282 C1286 1.531 . S
C1283 C1282 1.369 . S
C1283 C1284 1.410 . S
C1283 C1291 1.503 . S
C1284 C1283 1.410 . S
C1284 C1285 1.392 . S
C1284 C1287 1.511 . S
C1285 C1281 1.376 . S
C1285 C1284 1.392 . S
C1285 H1297 0.929 . S
C1286 C1282 1.531 . S
C1286 H1298 0.960 . S
C1286 H1299 0.962 . S
C1286 H1300 0.960 . S
C1287 C1284 1.511 . S
C1287 H1301 0.961 . S
C1287 H1302 0.961 . S
C1287 H1303 0.961 . S
C1288 C1289 1.370 . S
C1288 C1290 1.363 . S
C1288 H1304 0.931 . S
C1289 C1288 1.370 . S
C1289 C1293 1.408 . S
C1290 C1288 1.363 . S
C1290 C1291 1.370 . S
C1290 C1294 1.524 . S
C1291 C1283 1.503 . S
C1291 C1290 1.370 . S
C1291 C1292 1.403 . S
C1292 C1291 1.403 . S
C1292 C1293 1.404 . S
C1292 C1295 1.539 . S
C1293 C1289 1.408 . S
C1293 C1292 1.404 . S
C1293 H1305 0.930 . S
C1294 C1290 1.524 . S
C1294 H1306 0.956 . S
C1294 H1307 0.961 . S
C1294 H1308 0.961 . S
C1295 C1292 1.539 . S
C1295 H1309 0.958 . S
C1295 H1310 0.961 . S
C1295 H1311 0.960 . S
H1296 C1280 0.931 . S
H1297 C1285 0.929 . S
H1298 C1286 0.960 . S
H1299 C1286 0.962 . S
H1300 C1286 0.960 . S
H1301 C1287 0.961 . S
H1302 C1287 0.961 . S
H1303 C1287 0.961 . S
H1304 C1288 0.931 . S
H1305 C1293 0.930 . S
H1306 C1294 0.956 . S
H1307 C1294 0.961 . S
H1308 C1294 0.961 . S
H1309 C1295 0.958 . S
H1310 C1295 0.961 . S
H1311 C1295 0.960 . S
C1312 C1313 1.391 . S
C1312 C1314 1.394 . S
C1312 H1328 0.931 . S
C1313 C1312 1.391 . S
C1313 C1317 1.376 . S
C1314 C1312 1.394 . S
C1314 C1315 1.369 . S
C1314 C1318 1.531 . S
C1315 C1314 1.369 . S
C1315 C1316 1.410 . S
C1315 C1323 1.503 . S
C1316 C1315 1.410 . S
C1316 C1317 1.392 . S
C1316 C1319 1.511 . S
C1317 C1313 1.376 . S
C1317 C1316 1.392 . S
C1317 H1329 0.929 . S
C1318 C1314 1.531 . S
C1318 H1330 0.960 . S
C1318 H1331 0.962 . S
C1318 H1332 0.960 . S
C1319 C1316 1.511 . S
C1319 H1333 0.961 . S
C1319 H1334 0.961 . S
C1319 H1335 0.961 . S
C1320 C1321 1.370 . S
C1320 C1322 1.363 . S
C1320 H1336 0.931 . S
C1321 C1320 1.370 . S
C1321 C1325 1.408 . S
C1322 C1320 1.363 . S
C1322 C1323 1.370 . S
C1322 C1326 1.524 . S
C1323 C1315 1.503 . S
C1323 C1322 1.370 . S
C1323 C1324 1.403 . S
C1324 C1323 1.403 . S
C1324 C1325 1.404 . S
C1324 C1327 1.539 . S
C1325 C1321 1.408 . S
C1325 C1324 1.404 . S
C1325 H1337 0.930 . S
C1326 C1322 1.524 . S
C1326 H1338 0.956 . S
C1326 H1339 0.961 . S
C1326 H1340 0.961 . S
C1327 C1324 1.539 . S
C1327 H1341 0.958 . S
C1327 H1342 0.961 . S
C1327 H1343 0.960 . S
H1328 C1312 0.931 . S
H1329 C1317 0.929 . S
H1330 C1318 0.960 . S
H1331 C1318 0.962 . S
H1332 C1318 0.960 . S
H1333 C1319 0.961 . S
H1334 C1319 0.961 . S
H1335 C1319 0.961 . S
H1336 C1320 0.931 . S
H1337 C1325 0.930 . S
H1338 C1326 0.956 . S
H1339 C1326 0.961 . S
H1340 C1326 0.961 . S
H1341 C1327 0.958 . S
H1342 C1327 0.961 . S
H1343 C1327 0.960 . S
C1344 C1345 1.391 . S
C1344 C1346 1.394 . S
C1344 H1360 0.931 . S
C1345 C1344 1.391 . S
C1345 C1349 1.376 . S
C1346 C1344 1.394 . S
C1346 C1347 1.369 . S
C1346 C1350 1.531 . S
C1347 C1346 1.369 . S
C1347 C1348 1.410 . S
C1347 C1355 1.503 . S
C1348 C1347 1.410 . S
C1348 C1349 1.392 . S
C1348 C1351 1.511 . S
C1349 C1345 1.376 . S
C1349 C1348 1.392 . S
C1349 H1361 0.929 . S
C1350 C1346 1.531 . S
C1350 H1362 0.960 . S
C1350 H1363 0.962 . S
C1350 H1364 0.960 . S
C1351 C1348 1.511 . S
C1351 H1365 0.961 . S
C1351 H1366 0.961 . S
C1351 H1367 0.961 . S
C1352 C1353 1.370 . S
C1352 C1354 1.363 . S
C1352 H1368 0.931 . S
C1353 C1352 1.370 . S
C1353 C1357 1.408 . S
C1354 C1352 1.363 . S
C1354 C1355 1.370 . S
C1354 C1358 1.524 . S
C1355 C1347 1.503 . S
C1355 C1354 1.370 . S
C1355 C1356 1.403 . S
C1356 C1355 1.403 . S
C1356 C1357 1.404 . S
C1356 C1359 1.539 . S
C1357 C1353 1.408 . S
C1357 C1356 1.404 . S
C1357 H1369 0.930 . S
C1358 C1354 1.524 . S
C1358 H1370 0.956 . S
C1358 H1371 0.961 . S
C1358 H1372 0.961 . S
C1359 C1356 1.539 . S
C1359 H1373 0.958 . S
C1359 H1374 0.961 . S
C1359 H1375 0.960 . S
H1360 C1344 0.931 . S
H1361 C1349 0.929 . S
H1362 C1350 0.960 . S
H1363 C1350 0.962 . S
H1364 C1350 0.960 . S
H1365 C1351 0.961 . S
H1366 C1351 0.961 . S
H1367 C1351 0.961 . S
H1368 C1352 0.931 . S
H1369 C1357 0.930 . S
H1370 C1358 0.956 . S
H1371 C1358 0.961 . S
H1372 C1358 0.961 . S
H1373 C1359 0.958 . S
H1374 C1359 0.961 . S
H1375 C1359 0.960 . S
C1376 C1377 1.391 . S
C1376 C1378 1.394 . S
C1376 H1392 0.931 . S
C1377 C1376 1.391 . S
C1377 C1381 1.376 . S
C1378 C1376 1.394 . S
C1378 C1379 1.369 . S
C1378 C1382 1.531 . S
C1379 C1378 1.369 . S
C1379 C1380 1.410 . S
C1379 C1387 1.503 . S
C1380 C1379 1.410 . S
C1380 C1381 1.392 . S
C1380 C1383 1.511 . S
C1381 C1377 1.376 . S
C1381 C1380 1.392 . S
C1381 H1393 0.929 . S
C1382 C1378 1.531 . S
C1382 H1394 0.960 . S
C1382 H1395 0.962 . S
C1382 H1396 0.960 . S
C1383 C1380 1.511 . S
C1383 H1397 0.961 . S
C1383 H1398 0.961 . S
C1383 H1399 0.961 . S
C1384 C1385 1.370 . S
C1384 C1386 1.363 . S
C1384 H1400 0.931 . S
C1385 C1384 1.370 . S
C1385 C1389 1.408 . S
C1386 C1384 1.363 . S
C1386 C1387 1.370 . S
C1386 C1390 1.524 . S
C1387 C1379 1.503 . S
C1387 C1386 1.370 . S
C1387 C1388 1.403 . S
C1388 C1387 1.403 . S
C1388 C1389 1.404 . S
C1388 C1391 1.539 . S
C1389 C1385 1.408 . S
C1389 C1388 1.404 . S
C1389 H1401 0.930 . S
C1390 C1386 1.524 . S
C1390 H1402 0.956 . S
C1390 H1403 0.961 . S
C1390 H1404 0.961 . S
C1391 C1388 1.539 . S
C1391 H1405 0.958 . S
C1391 H1406 0.961 . S
C1391 H1407 0.960 . S
H1392 C1376 0.931 . S
H1393 C1381 0.929 . S
H1394 C1382 0.960 . S
H1395 C1382 0.962 . S
H1396 C1382 0.960 . S
H1397 C1383 0.961 . S
H1398 C1383 0.961 . S
H1399 C1383 0.961 . S
H1400 C1384 0.931 . S
H1401 C1389 0.930 . S
H1402 C1390 0.956 . S
H1403 C1390 0.961 . S
H1404 C1390 0.961 . S
H1405 C1391 0.958 . S
H1406 C1391 0.961 . S
H1407 C1391 0.960 . S
C1408 C1409 1.391 . S
C1408 C1410 1.394 . S
C1408 H1424 0.931 . S
C1409 C1408 1.391 . S
C1409 C1413 1.376 . S
C1410 C1408 1.394 . S
C1410 C1411 1.369 . S
C1410 C1414 1.531 . S
C1411 C1410 1.369 . S
C1411 C1412 1.410 . S
C1411 C1419 1.503 . S
C1412 C1411 1.410 . S
C1412 C1413 1.392 . S
C1412 C1415 1.511 . S
C1413 C1409 1.376 . S
C1413 C1412 1.392 . S
C1413 H1425 0.929 . S
C1414 C1410 1.531 . S
C1414 H1426 0.960 . S
C1414 H1427 0.962 . S
C1414 H1428 0.960 . S
C1415 C1412 1.511 . S
C1415 H1429 0.961 . S
C1415 H1430 0.961 . S
C1415 H1431 0.961 . S
C1416 C1417 1.370 . S
C1416 C1418 1.363 . S
C1416 H1432 0.931 . S
C1417 C1416 1.370 . S
C1417 C1421 1.408 . S
C1418 C1416 1.363 . S
C1418 C1419 1.370 . S
C1418 C1422 1.524 . S
C1419 C1411 1.503 . S
C1419 C1418 1.370 . S
C1419 C1420 1.403 . S
C1420 C1419 1.403 . S
C1420 C1421 1.404 . S
C1420 C1423 1.539 . S
C1421 C1417 1.408 . S
C1421 C1420 1.404 . S
C1421 H1433 0.930 . S
C1422 C1418 1.524 . S
C1422 H1434 0.956 . S
C1422 H1435 0.961 . S
C1422 H1436 0.961 . S
C1423 C1420 1.539 . S
C1423 H1437 0.958 . S
C1423 H1438 0.961 . S
C1423 H1439 0.960 . S
H1424 C1408 0.931 . S
H1425 C1413 0.929 . S
H1426 C1414 0.960 . S
H1427 C1414 0.962 . S
H1428 C1414 0.960 . S
H1429 C1415 0.961 . S
H1430 C1415 0.961 . S
H1431 C1415 0.961 . S
H1432 C1416 0.931 . S
H1433 C1421 0.930 . S
H1434 C1422 0.956 . S
H1435 C1422 0.961 . S
H1436 C1422 0.961 . S
H1437 C1423 0.958 . S
H1438 C1423 0.961 . S
H1439 C1423 0.960 . S
C1440 C1441 1.391 . S
C1440 C1442 1.394 . S
C1440 H1456 0.931 . S
C1441 C1440 1.391 . S
C1441 C1445 1.376 . S
C1442 C1440 1.394 . S
C1442 C1443 1.369 . S
C1442 C1446 1.531 . S
C1443 C1442 1.369 . S
C1443 C1444 1.410 . S
C1443 C1451 1.503 . S
C1444 C1443 1.410 . S
C1444 C1445 1.392 . S
C1444 C1447 1.511 . S
C1445 C1441 1.376 . S
C1445 C1444 1.392 . S
C1445 H1457 0.929 . S
C1446 C1442 1.531 . S
C1446 H1458 0.960 . S
C1446 H1459 0.962 . S
C1446 H1460 0.960 . S
C1447 C1444 1.511 . S
C1447 H1461 0.961 . S
C1447 H1462 0.961 . S
C1447 H1463 0.961 . S
C1448 C1449 1.370 . S
C1448 C1450 1.363 . S
C1448 H1464 0.931 . S
C1449 C1448 1.370 . S
C1449 C1453 1.408 . S
C1450 C1448 1.363 . S
C1450 C1451 1.370 . S
C1450 C1454 1.524 . S
C1451 C1443 1.503 . S
C1451 C1450 1.370 . S
C1451 C1452 1.403 . S
C1452 C1451 1.403 . S
C1452 C1453 1.404 . S
C1452 C1455 1.539 . S
C1453 C1449 1.408 . S
C1453 C1452 1.404 . S
C1453 H1465 0.930 . S
C1454 C1450 1.524 . S
C1454 H1466 0.956 . S
C1454 H1467 0.961 . S
C1454 H1468 0.961 . S
C1455 C1452 1.539 . S
C1455 H1469 0.958 . S
C1455 H1470 0.961 . S
C1455 H1471 0.960 . S
H1456 C1440 0.931 . S
H1457 C1445 0.929 . S
H1458 C1446 0.960 . S
H1459 C1446 0.962 . S
H1460 C1446 0.960 . S
H1461 C1447 0.961 . S
H1462 C1447 0.961 . S
H1463 C1447 0.961 . S
H1464 C1448 0.931 . S
H1465 C1453 0.930 . S
H1466 C1454 0.956 . S
H1467 C1454 0.961 . S
H1468 C1454 0.961 . S
H1469 C1455 0.958 . S
H1470 C1455 0.961 . S
H1471 C1455 0.960 . S
C1472 C1473 1.391 . S
C1472 C1474 1.394 . S
C1472 H1488 0.931 . S
C1473 C1472 1.391 . S
C1473 C1477 1.376 . S
C1474 C1472 1.394 . S
C1474 C1475 1.369 . S
C1474 C1478 1.531 . S
C1475 C1474 1.369 . S
C1475 C1476 1.410 . S
C1475 C1483 1.503 . S
C1476 C1475 1.410 . S
C1476 C1477 1.392 . S
C1476 C1479 1.511 . S
C1477 C1473 1.376 . S
C1477 C1476 1.392 . S
C1477 H1489 0.929 . S
C1478 C1474 1.531 . S
C1478 H1490 0.960 . S
C1478 H1491 0.962 . S
C1478 H1492 0.960 . S
C1479 C1476 1.511 . S
C1479 H1493 0.961 . S
C1479 H1494 0.961 . S
C1479 H1495 0.961 . S
C1480 C1481 1.370 . S
C1480 C1482 1.363 . S
C1480 H1496 0.931 . S
C1481 C1480 1.370 . S
C1481 C1485 1.408 . S
C1482 C1480 1.363 . S
C1482 C1483 1.370 . S
C1482 C1486 1.524 . S
C1483 C1475 1.503 . S
C1483 C1482 1.370 . S
C1483 C1484 1.403 . S
C1484 C1483 1.403 . S
C1484 C1485 1.404 . S
C1484 C1487 1.539 . S
C1485 C1481 1.408 . S
C1485 C1484 1.404 . S
C1485 H1497 0.930 . S
C1486 C1482 1.524 . S
C1486 H1498 0.956 . S
C1486 H1499 0.961 . S
C1486 H1500 0.961 . S
C1487 C1484 1.539 . S
C1487 H1501 0.958 . S
C1487 H1502 0.961 . S
C1487 H1503 0.960 . S
H1488 C1472 0.931 . S
H1489 C1477 0.929 . S
H1490 C1478 0.960 . S
H1491 C1478 0.962 . S
H1492 C1478 0.960 . S
H1493 C1479 0.961 . S
H1494 C1479 0.961 . S
H1495 C1479 0.961 . S
H1496 C1480 0.931 . S
H1497 C1485 0.930 . S
H1498 C1486 0.956 . S
H1499 C1486 0.961 . S
H1500 C1486 0.961 . S
H1501 C1487 0.958 . S
H1502 C1487 0.961 . S
H1503 C1487 0.960 . S
C1504 C1505 1.391 . S
C1504 C1506 1.394 . S
C1504 H1520 0.931 . S
C1505 C1504 1.391 . S
C1505 C1509 1.376 . S
C1506 C1504 1.394 . S
C1506 C1507 1.369 . S
C1506 C1510 1.531 . S
C1507 C1506 1.369 . S
C1507 C1508 1.410 . S
C1507 C1515 1.503 . S
C1508 C1507 1.410 . S
C1508 C1509 1.392 . S
C1508 C1511 1.511 . S
C1509 C1505 1.376 . S
C1509 C1508 1.392 . S
C1509 H1521 0.929 . S
C1510 C1506 1.531 . S
C1510 H1522 0.960 . S
C1510 H1523 0.962 . S
C1510 H1524 0.960 . S
C1511 C1508 1.511 . S
C1511 H1525 0.961 . S
C1511 H1526 0.961 . S
C1511 H1527 0.961 . S
C1512 C1513 1.370 . S
C1512 C1514 1.363 . S
C1512 H1528 0.931 . S
C1513 C1512 1.370 . S
C1513 C1517 1.408 . S
C1514 C1512 1.363 . S
C1514 C1515 1.370 . S
C1514 C1518 1.524 . S
C1515 C1507 1.503 . S
C1515 C1514 1.370 . S
C1515 C1516 1.403 . S
C1516 C1515 1.403 . S
C1516 C1517 1.404 . S
C1516 C1519 1.539 . S
C1517 C1513 1.408 . S
C1517 C1516 1.404 . S
C1517 H1529 0.930 . S
C1518 C1514 1.524 . S
C1518 H1530 0.956 . S
C1518 H1531 0.961 . S
C1518 H1532 0.961 . S
C1519 C1516 1.539 . S
C1519 H1533 0.958 . S
C1519 H1534 0.961 . S
C1519 H1535 0.960 . S
H1520 C1504 0.931 . S
H1521 C1509 0.929 . S
H1522 C1510 0.960 . S
H1523 C1510 0.962 . S
H1524 C1510 0.960 . S
H1525 C1511 0.961 . S
H1526 C1511 0.961 . S
H1527 C1511 0.961 . S
H1528 C1512 0.931 . S
H1529 C1517 0.930 . S
H1530 C1518 0.956 . S
H1531 C1518 0.961 . S
H1532 C1518 0.961 . S
H1533 C1519 0.958 . S
H1534 C1519 0.961 . S
H1535 C1519 0.960 . S
C1536 C1537 1.391 . S
C1536 C1538 1.394 . S
C1536 H1552 0.931 . S
C1537 C1536 1.391 . S
C1537 C1541 1.376 . S
C1538 C1536 1.394 . S
C1538 C1539 1.369 . S
C1538 C1542 1.531 . S
C1539 C1538 1.369 . S
C1539 C1540 1.410 . S
C1539 C1547 1.503 . S
C1540 C1539 1.410 . S
C1540 C1541 1.392 . S
C1540 C1543 1.511 . S
C1541 C1537 1.376 . S
C1541 C1540 1.392 . S
C1541 H1553 0.929 . S
C1542 C1538 1.531 . S
C1542 H1554 0.960 . S
C1542 H1555 0.962 . S
C1542 H1556 0.960 . S
C1543 C1540 1.511 . S
C1543 H1557 0.961 . S
C1543 H1558 0.961 . S
C1543 H1559 0.961 . S
C1544 C1545 1.370 . S
C1544 C1546 1.363 . S
C1544 H1560 0.931 . S
C1545 C1544 1.370 . S
C1545 C1549 1.408 . S
C1546 C1544 1.363 . S
C1546 C1547 1.370 . S
C1546 C1550 1.524 . S
C1547 C1539 1.503 . S
C1547 C1546 1.370 . S
C1547 C1548 1.403 . S
C1548 C1547 1.403 . S
C1548 C1549 1.404 . S
C1548 C1551 1.539 . S
C1549 C1545 1.408 . S
C1549 C1548 1.404 . S
C1549 H1561 0.930 . S
C1550 C1546 1.524 . S
C1550 H1562 0.956 . S
C1550 H1563 0.961 . S
C1550 H1564 0.961 . S
C1551 C1548 1.539 . S
C1551 H1565 0.958 . S
C1551 H1566 0.961 . S
C1551 H1567 0.960 . S
H1552 C1536 0.931 . S
H1553 C1541 0.929 . S
H1554 C1542 0.960 . S
H1555 C1542 0.962 . S
H1556 C1542 0.960 . S
H1557 C1543 0.961 . S
H1558 C1543 0.961 . S
H1559 C1543 0.961 . S
H1560 C1544 0.931 . S
H1561 C1549 0.930 . S
H1562 C1550 0.956 . S
H1563 C1550 0.961 . S
H1564 C1550 0.961 . S
H1565 C1551 0.958 . S
H1566 C1551 0.961 . S
H1567 C1551 0.960 . S
C1568 C1569 1.391 . S
C1568 C1570 1.394 . S
C1568 H1584 0.931 . S
C1569 C1568 1.391 . S
C1569 C1573 1.376 . S
C1570 C1568 1.394 . S
C1570 C1571 1.369 . S
C1570 C1574 1.531 . S
C1571 C1570 1.369 . S
C1571 C1572 1.410 . S
C1571 C1579 1.503 . S
C1572 C1571 1.410 . S
C1572 C1573 1.392 . S
C1572 C1575 1.511 . S
C1573 C1569 1.376 . S
C1573 C1572 1.392 . S
C1573 H1585 0.929 . S
C1574 C1570 1.531 . S
C1574 H1586 0.960 . S
C1574 H1587 0.962 . S
C1574 H1588 0.960 . S
C1575 C1572 1.511 . S
C1575 H1589 0.961 . S
C1575 H1590 0.961 . S
C1575 H1591 0.961 . S
C1576 C1577 1.370 . S
C1576 C1578 1.363 . S
C1576 H1592 0.931 . S
C1577 C1576 1.370 . S
C1577 C1581 1.408 . S
C1578 C1576 1.363 . S
C1578 C1579 1.370 . S
C1578 C1582 1.524 . S
C1579 C1571 1.503 . S
C1579 C1578 1.370 . S
C1579 C1580 1.403 . S
C1580 C1579 1.403 . S
C1580 C1581 1.404 . S
C1580 C1583 1.539 . S
C1581 C1577 1.408 . S
C1581 C1580 1.404 . S
C1581 H1593 0.930 . S
C1582 C1578 1.524 . S
C1582 H1594 0.956 . S
C1582 H1595 0.961 . S
C1582 H1596 0.961 . S
C1583 C1580 1.539 . S
C1583 H1597 0.958 . S
C1583 H1598 0.961 . S
C1583 H1599 0.960 . S
H1584 C1568 0.931 . S
H1585 C1573 0.929 . S
H1586 C1574 0.960 . S
H1587 C1574 0.962 . S
H1588 C1574 0.960 . S
H1589 C1575 0.961 . S
H1590 C1575 0.961 . S
H1591 C1575 0.961 . S
H1592 C1576 0.931 . S
H1593 C1581 0.930 . S
H1594 C1582 0.956 . S
H1595 C1582 0.961 . S
H1596 C1582 0.961 . S
H1597 C1583 0.958 . S
H1598 C1583 0.961 . S
H1599 C1583 0.960 . S
C1600 C1601 1.391 . S
C1600 C1602 1.394 . S
C1600 H1616 0.931 . S
C1601 C1600 1.391 . S
C1601 C1605 1.376 . S
C1602 C1600 1.394 . S
C1602 C1603 1.369 . S
C1602 C1606 1.531 . S
C1603 C1602 1.369 . S
C1603 C1604 1.410 . S
C1603 C1611 1.503 . S
C1604 C1603 1.410 . S
C1604 C1605 1.392 . S
C1604 C1607 1.511 . S
C1605 C1601 1.376 . S
C1605 C1604 1.392 . S
C1605 H1617 0.929 . S
C1606 C1602 1.531 . S
C1606 H1618 0.960 . S
C1606 H1619 0.962 . S
C1606 H1620 0.960 . S
C1607 C1604 1.511 . S
C1607 H1621 0.961 . S
C1607 H1622 0.961 . S
C1607 H1623 0.961 . S
C1608 C1609 1.370 . S
C1608 C1610 1.363 . S
C1608 H1624 0.931 . S
C1609 C1608 1.370 . S
C1609 C1613 1.408 . S
C1610 C1608 1.363 . S
C1610 C1611 1.370 . S
C1610 C1614 1.524 . S
C1611 C1603 1.503 . S
C1611 C1610 1.370 . S
C1611 C1612 1.403 . S
C1612 C1611 1.403 . S
C1612 C1613 1.404 . S
C1612 C1615 1.539 . S
C1613 C1609 1.408 . S
C1613 C1612 1.404 . S
C1613 H1625 0.930 . S
C1614 C1610 1.524 . S
C1614 H1626 0.956 . S
C1614 H1627 0.961 . S
C1614 H1628 0.961 . S
C1615 C1612 1.539 . S
C1615 H1629 0.958 . S
C1615 H1630 0.961 . S
C1615 H1631 0.960 . S
H1616 C1600 0.931 . S
H1617 C1605 0.929 . S
H1618 C1606 0.960 . S
H1619 C1606 0.962 . S
H1620 C1606 0.960 . S
H1621 C1607 0.961 . S
H1622 C1607 0.961 . S
H1623 C1607 0.961 . S
H1624 C1608 0.931 . S
H1625 C1613 0.930 . S
H1626 C1614 0.956 . S
H1627 C1614 0.961 . S
H1628 C1614 0.961 . S
H1629 C1615 0.958 . S
H1630 C1615 0.961 . S
H1631 C1615 0.960 . S
C1632 C1633 1.391 . S
C1632 C1634 1.394 . S
C1632 H1648 0.931 . S
C1633 C1632 1.391 . S
C1633 C1637 1.376 . S
C1634 C1632 1.394 . S
C1634 C1635 1.369 . S
C1634 C1638 1.531 . S
C1635 C1634 1.369 . S
C1635 C1636 1.410 . S
C1635 C1643 1.503 . S
C1636 C1635 1.410 . S
C1636 C1637 1.392 . S
C1636 C1639 1.511 . S
C1637 C1633 1.376 . S
C1637 C1636 1.392 . S
C1637 H1649 0.929 . S
C1638 C1634 1.531 . S
C1638 H1650 0.960 . S
C1638 H1651 0.962 . S
C1638 H1652 0.960 . S
C1639 C1636 1.511 . S
C1639 H1653 0.961 . S
C1639 H1654 0.961 . S
C1639 H1655 0.961 . S
C1640 C1641 1.370 . S
C1640 C1642 1.363 . S
C1640 H1656 0.931 . S
C1641 C1640 1.370 . S
C1641 C1645 1.408 . S
C1642 C1640 1.363 . S
C1642 C1643 1.370 . S
C1642 C1646 1.524 . S
C1643 C1635 1.503 . S
C1643 C1642 1.370 . S
C1643 C1644 1.403 . S
C1644 C1643 1.403 . S
C1644 C1645 1.404 . S
C1644 C1647 1.539 . S
C1645 C1641 1.408 . S
C1645 C1644 1.404 . S
C1645 H1657 0.930 . S
C1646 C1642 1.524 . S
C1646 H1658 0.956 . S
C1646 H1659 0.961 . S
C1646 H1660 0.961 . S
C1647 C1644 1.539 . S
C1647 H1661 0.958 . S
C1647 H1662 0.961 . S
C1647 H1663 0.960 . S
H1648 C1632 0.931 . S
H1649 C1637 0.929 . S
H1650 C1638 0.960 . S
H1651 C1638 0.962 . S
H1652 C1638 0.960 . S
H1653 C1639 0.961 . S
H1654 C1639 0.961 . S
H1655 C1639 0.961 . S
H1656 C1640 0.931 . S
H1657 C1645 0.930 . S
H1658 C1646 0.956 . S
H1659 C1646 0.961 . S
H1660 C1646 0.961 . S
H1661 C1647 0.958 . S
H1662 C1647 0.961 . S
H1663 C1647 0.960 . S
C1664 C1665 1.391 . S
C1664 C1666 1.394 . S
C1664 H1680 0.931 . S
C1665 C1664 1.391 . S
C1665 C1669 1.376 . S
C1666 C1664 1.394 . S
C1666 C1667 1.369 . S
C1666 C1670 1.531 . S
C1667 C1666 1.369 . S
C1667 C1668 1.410 . S
C1667 C1675 1.503 . S
C1668 C1667 1.410 . S
C1668 C1669 1.392 . S
C1668 C1671 1.511 . S
C1669 C1665 1.376 . S
C1669 C1668 1.392 . S
C1669 H1681 0.929 . S
C1670 C1666 1.531 . S
C1670 H1682 0.960 . S
C1670 H1683 0.962 . S
C1670 H1684 0.960 . S
C1671 C1668 1.511 . S
C1671 H1685 0.961 . S
C1671 H1686 0.961 . S
C1671 H1687 0.961 . S
C1672 C1673 1.370 . S
C1672 C1674 1.363 . S
C1672 H1688 0.931 . S
C1673 C1672 1.370 . S
C1673 C1677 1.408 . S
C1674 C1672 1.363 . S
C1674 C1675 1.370 . S
C1674 C1678 1.524 . S
C1675 C1667 1.503 . S
C1675 C1674 1.370 . S
C1675 C1676 1.403 . S
C1676 C1675 1.403 . S
C1676 C1677 1.404 . S
C1676 C1679 1.539 . S
C1677 C1673 1.408 . S
C1677 C1676 1.404 . S
C1677 H1689 0.930 . S
C1678 C1674 1.524 . S
C1678 H1690 0.956 . S
C1678 H1691 0.961 . S
C1678 H1692 0.961 . S
C1679 C1676 1.539 . S
C1679 H1693 0.958 . S
C1679 H1694 0.961 . S
C1679 H1695 0.960 . S
H1680 C1664 0.931 . S
H1681 C1669 0.929 . S
H1682 C1670 0.960 . S
H1683 C1670 0.962 . S
H1684 C1670 0.960 . S
H1685 C1671 0.961 . S
H1686 C1671 0.961 . S
H1687 C1671 0.961 . S
H1688 C1672 0.931 . S
H1689 C1677 0.930 . S
H1690 C1678 0.956 . S
H1691 C1678 0.961 . S
H1692 C1678 0.961 . S
H1693 C1679 0.958 . S
H1694 C1679 0.961 . S
H1695 C1679 0.960 . S
C1696 C1697 1.391 . S
C1696 C1698 1.394 . S
C1696 H1712 0.931 . S
C1697 C1696 1.391 . S
C1697 C1701 1.376 . S
C1698 C1696 1.394 . S
C1698 C1699 1.369 . S
C1698 C1702 1.531 . S
C1699 C1698 1.369 . S
C1699 C1700 1.410 . S
C1699 C1707 1.503 . S
C1700 C1699 1.410 . S
C1700 C1701 1.392 . S
C1700 C1703 1.511 . S
C1701 C1697 1.376 . S
C1701 C1700 1.392 . S
C1701 H1713 0.929 . S
C1702 C1698 1.531 . S
C1702 H1714 0.960 . S
C1702 H1715 0.962 . S
C1702 H1716 0.960 . S
C1703 C1700 1.511 . S
C1703 H1717 0.961 . S
C1703 H1718 0.961 . S
C1703 H1719 0.961 . S
C1704 C1705 1.370 . S
C1704 C1706 1.363 . S
C1704 H1720 0.931 . S
C1705 C1704 1.370 . S
C1705 C1709 1.408 . S
C1706 C1704 1.363 . S
C1706 C1707 1.370 . S
C1706 C1710 1.524 . S
C1707 C1699 1.503 . S
C1707 C1706 1.370 . S
C1707 C1708 1.403 . S
C1708 C1707 1.403 . S
C1708 C1709 1.404 . S
C1708 C1711 1.539 . S
C1709 C1705 1.408 . S
C1709 C1708 1.404 . S
C1709 H1721 0.930 . S
C1710 C1706 1.524 . S
C1710 H1722 0.956 . S
C1710 H1723 0.961 . S
C1710 H1724 0.961 . S
C1711 C1708 1.539 . S
C1711 H1725 0.958 . S
C1711 H1726 0.961 . S
C1711 H1727 0.960 . S
H1712 C1696 0.931 . S
H1713 C1701 0.929 . S
H1714 C1702 0.960 . S
H1715 C1702 0.962 . S
H1716 C1702 0.960 . S
H1717 C1703 0.961 . S
H1718 C1703 0.961 . S
H1719 C1703 0.961 . S
H1720 C1704 0.931 . S
H1721 C1709 0.930 . S
H1722 C1710 0.956 . S
H1723 C1710 0.961 . S
H1724 C1710 0.961 . S
H1725 C1711 0.958 . S
H1726 C1711 0.961 . S
H1727 C1711 0.960 . S
C1728 C1729 1.452 . S
C1728 C1730 1.394 . S
C1728 H1744 0.931 . S
C1729 C1728 1.452 . S
C1729 C1733 1.304 1_455 S
C1730 C1728 1.394 . S
C1730 C1731 1.369 . S
C1730 C1734 1.531 . S
C1731 C1730 1.369 . S
C1731 C1732 1.410 1_455 S
C1731 C1739 1.503 . S
C1732 C1731 1.410 1_655 S
C1732 C1733 1.392 . S
C1732 C1735 1.511 . S
C1733 C1729 1.304 1_655 S
C1733 C1732 1.392 . S
C1733 H1745 0.929 . S
C1734 C1730 1.531 . S
C1734 H1746 0.960 . S
C1734 H1747 0.962 . S
C1734 H1748 0.960 . S
C1735 C1732 1.511 . S
C1735 H1749 0.961 . S
C1735 H1750 0.961 . S
C1735 H1751 0.961 . S
C1736 C1737 1.370 . S
C1736 C1738 1.363 . S
C1736 H1752 0.931 . S
C1737 C1736 1.370 . S
C1737 C1741 1.408 . S
C1738 C1736 1.363 . S
C1738 C1739 1.370 . S
C1738 C1742 1.524 . S
C1739 C1731 1.503 . S
C1739 C1738 1.370 . S
C1739 C1740 1.403 . S
C1740 C1739 1.403 . S
C1740 C1741 1.404 . S
C1740 C1743 1.539 1_455 S
C1741 C1737 1.408 . S
C1741 C1740 1.404 . S
C1741 H1753 0.930 . S
C1742 C1738 1.524 . S
C1742 H1754 0.956 . S
C1742 H1755 0.961 . S
C1742 H1756 0.961 . S
C1743 C1740 1.539 1_655 S
C1743 H1757 0.958 . S
C1743 H1758 0.961 . S
C1743 H1759 0.960 . S
H1744 C1728 0.931 . S
H1745 C1733 0.929 . S
H1746 C1734 0.960 . S
H1747 C1734 0.962 . S
H1748 C1734 0.960 . S
H1749 C1735 0.961 . S
H1750 C1735 0.961 . S
H1751 C1735 0.961 . S
H1752 C1736 0.931 . S
H1753 C1741 0.930 . S
H1754 C1742 0.956 . S
H1755 C1742 0.961 . S
H1756 C1742 0.961 . S
H1757 C1743 0.958 . S
H1758 C1743 0.961 . S
H1759 C1743 0.960 . S
C1760 C1761 1.391 . S
C1760 C1762 1.394 . S
C1760 H1776 0.931 . S
C1761 C1760 1.391 . S
C1761 C1765 1.376 . S
C1762 C1760 1.394 . S
C1762 C1763 1.369 . S
C1762 C1766 1.531 . S
C1763 C1762 1.369 . S
C1763 C1764 1.410 . S
C1763 C1771 1.503 . S
C1764 C1763 1.410 . S
C1764 C1765 1.392 . S
C1764 C1767 1.511 . S
C1765 C1761 1.376 . S
C1765 C1764 1.392 . S
C1765 H1777 0.929 . S
C1766 C1762 1.531 . S
C1766 H1778 0.960 . S
C1766 H1779 0.962 . S
C1766 H1780 0.960 . S
C1767 C1764 1.511 . S
C1767 H1781 0.961 . S
C1767 H1782 0.961 . S
C1767 H1783 0.961 . S
C1768 C1769 1.370 . S
C1768 C1770 1.363 . S
C1768 H1784 0.931 . S
C1769 C1768 1.370 . S
C1769 C1773 1.408 . S
C1770 C1768 1.363 . S
C1770 C1771 1.370 . S
C1770 C1774 1.524 . S
C1771 C1763 1.503 . S
C1771 C1770 1.370 . S
C1771 C1772 1.403 . S
C1772 C1771 1.403 . S
C1772 C1773 1.404 . S
C1772 C1775 1.539 . S
C1773 C1769 1.408 . S
C1773 C1772 1.404 . S
C1773 H1785 0.930 . S
C1774 C1770 1.524 . S
C1774 H1786 0.956 . S
C1774 H1787 0.961 . S
C1774 H1788 0.961 1_455 S
C1775 C1772 1.539 . S
C1775 H1789 0.958 . S
C1775 H1790 0.961 . S
C1775 H1791 0.960 . S
H1776 C1760 0.931 . S
H1777 C1765 0.929 . S
H1778 C1766 0.960 . S
H1779 C1766 0.962 . S
H1780 C1766 0.960 . S
H1781 C1767 0.961 . S
H1782 C1767 0.961 . S
H1783 C1767 0.961 . S
H1784 C1768 0.931 . S
H1785 C1773 0.930 . S
H1786 C1774 0.956 . S
H1787 C1774 0.961 . S
H1788 C1774 0.961 1_655 S
H1789 C1775 0.958 . S
H1790 C1775 0.961 . S
H1791 C1775 0.960 . S
C1792 C1793 1.391 . S
C1792 C1794 1.394 . S
C1792 H1808 0.931 . S
C1793 C1792 1.391 . S
C1793 C1797 1.376 . S
C1794 C1792 1.394 . S
C1794 C1795 1.369 . S
C1794 C1798 1.531 . S
C1795 C1794 1.369 . S
C1795 C1796 1.410 . S
C1795 C1803 1.503 . S
C1796 C1795 1.410 . S
C1796 C1797 1.392 . S
C1796 C1799 1.511 . S
C1797 C1793 1.376 . S
C1797 C1796 1.392 . S
C1797 H1809 0.929 . S
C1798 C1794 1.531 . S
C1798 H1810 0.960 . S
C1798 H1811 0.962 . S
C1798 H1812 0.960 . S
C1799 C1796 1.511 . S
C1799 H1813 0.961 . S
C1799 H1814 0.961 . S
C1799 H1815 0.961 . S
C1800 C1801 1.370 . S
C1800 C1802 1.363 . S
C1800 H1816 0.931 . S
C1801 C1800 1.370 . S
C1801 C1805 1.408 . S
C1802 C1800 1.363 . S
C1802 C1803 1.370 . S
C1802 C1806 1.524 . S
C1803 C1795 1.503 . S
C1803 C1802 1.370 . S
C1803 C1804 1.403 . S
C1804 C1803 1.403 . S
C1804 C1805 1.404 . S
C1804 C1807 1.539 . S
C1805 C1801 1.408 . S
C1805 C1804 1.404 . S
C1805 H1817 0.930 . S
C1806 C1802 1.524 . S
C1806 H1818 0.956 . S
C1806 H1819 0.961 . S
C1806 H1820 0.961 . S
C1807 C1804 1.539 . S
C1807 H1821 0.958 . S
C1807 H1822 0.961 . S
C1807 H1823 0.960 . S
H1808 C1792 0.931 . S
H1809 C1797 0.929 . S
H1810 C1798 0.960 . S
H1811 C1798 0.962 . S
H1812 C1798 0.960 . S
H1813 C1799 0.961 . S
H1814 C1799 0.961 . S
H1815 C1799 0.961 . S
H1816 C1800 0.931 . S
H1817 C1805 0.930 . S
H1818 C1806 0.956 . S
H1819 C1806 0.961 . S
H1820 C1806 0.961 . S
H1821 C1807 0.958 . S
H1822 C1807 0.961 . S
H1823 C1807 0.960 . S
C1824 C1825 1.391 . S
C1824 C1826 1.394 . S
C1824 H1840 0.931 . S
C1825 C1824 1.391 . S
C1825 C1829 1.376 . S
C1826 C1824 1.394 . S
C1826 C1827 1.369 . S
C1826 C1830 1.531 . S
C1827 C1826 1.369 . S
C1827 C1828 1.410 . S
C1827 C1835 1.503 . S
C1828 C1827 1.410 . S
C1828 C1829 1.392 . S
C1828 C1831 1.511 . S
C1829 C1825 1.376 . S
C1829 C1828 1.392 . S
C1829 H1841 0.929 . S
C1830 C1826 1.531 . S
C1830 H1842 0.960 . S
C1830 H1843 0.962 . S
C1830 H1844 0.960 . S
C1831 C1828 1.511 . S
C1831 H1845 0.961 . S
C1831 H1846 0.961 . S
C1831 H1847 0.961 . S
C1832 C1833 1.370 . S
C1832 C1834 1.363 . S
C1832 H1848 0.931 . S
C1833 C1832 1.370 . S
C1833 C1837 1.408 . S
C1834 C1832 1.363 . S
C1834 C1835 1.370 . S
C1834 C1838 1.524 . S
C1835 C1827 1.503 . S
C1835 C1834 1.370 . S
C1835 C1836 1.403 . S
C1836 C1835 1.403 . S
C1836 C1837 1.404 . S
C1836 C1839 1.539 . S
C1837 C1833 1.408 . S
C1837 C1836 1.404 . S
C1837 H1849 0.930 . S
C1838 C1834 1.524 . S
C1838 H1850 0.956 . S
C1838 H1851 0.961 . S
C1838 H1852 0.961 . S
C1839 C1836 1.539 . S
C1839 H1853 0.958 . S
C1839 H1854 0.961 . S
C1839 H1855 0.960 . S
H1840 C1824 0.931 . S
H1841 C1829 0.929 . S
H1842 C1830 0.960 . S
H1843 C1830 0.962 . S
H1844 C1830 0.960 . S
H1845 C1831 0.961 . S
H1846 C1831 0.961 . S
H1847 C1831 0.961 . S
H1848 C1832 0.931 . S
H1849 C1837 0.930 . S
H1850 C1838 0.956 . S
H1851 C1838 0.961 . S
H1852 C1838 0.961 . S
H1853 C1839 0.958 . S
H1854 C1839 0.961 . S
H1855 C1839 0.960 . S
C1856 C1857 1.391 . S
C1856 C1858 1.394 . S
C1856 H1872 0.931 . S
C1857 C1856 1.391 . S
C1857 C1861 1.376 . S
C1858 C1856 1.394 . S
C1858 C1859 1.369 . S
C1858 C1862 1.531 . S
C1859 C1858 1.369 . S
C1859 C1860 1.410 . S
C1859 C1867 1.503 . S
C1860 C1859 1.410 . S
C1860 C1861 1.392 . S
C1860 C1863 1.511 . S
C1861 C1857 1.376 . S
C1861 C1860 1.392 . S
C1861 H1873 0.929 . S
C1862 C1858 1.531 . S
C1862 H1874 0.960 . S
C1862 H1875 0.962 . S
C1862 H1876 0.960 . S
C1863 C1860 1.511 . S
C1863 H1877 0.961 . S
C1863 H1878 0.961 . S
C1863 H1879 0.961 . S
C1864 C1865 1.370 . S
C1864 C1866 1.363 . S
C1864 H1880 0.931 . S
C1865 C1864 1.370 . S
C1865 C1869 1.408 . S
C1866 C1864 1.363 . S
C1866 C1867 1.370 . S
C1866 C1870 1.524 . S
C1867 C1859 1.503 . S
C1867 C1866 1.370 . S
C1867 C1868 1.403 . S
C1868 C1867 1.403 . S
C1868 C1869 1.404 . S
C1868 C1871 1.539 1_545 S
C1869 C1865 1.408 . S
C1869 C1868 1.404 . S
C1869 H1881 0.930 1_545 S
C1870 C1866 1.524 . S
C1870 H1882 0.956 . S
C1870 H1883 0.961 . S
C1870 H1884 0.961 . S
C1871 C1868 1.539 1_565 S
C1871 H1885 0.958 . S
C1871 H1886 0.961 . S
C1871 H1887 0.960 . S
H1872 C1856 0.931 . S
H1873 C1861 0.929 . S
H1874 C1862 0.960 . S
H1875 C1862 0.962 . S
H1876 C1862 0.960 . S
H1877 C1863 0.961 . S
H1878 C1863 0.961 . S
H1879 C1863 0.961 . S
H1880 C1864 0.931 . S
H1881 C1869 0.930 1_565 S
H1882 C1870 0.956 . S
H1883 C1870 0.961 . S
H1884 C1870 0.961 . S
H1885 C1871 0.958 . S
H1886 C1871 0.961 . S
H1887 C1871 0.960 . S
C1888 C1889 1.391 . S
C1888 C1890 1.394 . S
C1888 H1904 0.931 . S
C1889 C1888 1.391 . S
C1889 C1893 1.376 . S
C1890 C1888 1.394 . S
C1890 C1891 1.369 . S
C1890 C1894 1.531 . S
C1891 C1890 1.369 . S
C1891 C1892 1.410 . S
C1891 C1899 1.503 . S
C1892 C1891 1.410 . S
C1892 C1893 1.392 . S
C1892 C1895 1.511 . S
C1893 C1889 1.376 . S
C1893 C1892 1.392 . S
C1893 H1905 0.929 . S
C1894 C1890 1.531 . S
C1894 H1906 0.960 . S
C1894 H1907 0.962 . S
C1894 H1908 0.960 . S
C1895 C1892 1.511 . S
C1895 H1909 0.961 . S
C1895 H1910 0.961 . S
C1895 H1911 0.961 . S
C1896 C1897 1.370 . S
C1896 C1898 1.363 . S
C1896 H1912 0.931 . S
C1897 C1896 1.370 . S
C1897 C1901 1.408 . S
C1898 C1896 1.363 . S
C1898 C1899 1.370 . S
C1898 C1902 1.524 . S
C1899 C1891 1.503 . S
C1899 C1898 1.370 . S
C1899 C1900 1.403 . S
C1900 C1899 1.403 . S
C1900 C1901 1.404 . S
C1900 C1903 1.539 . S
C1901 C1897 1.408 . S
C1901 C1900 1.404 . S
C1901 H1913 0.930 . S
C1902 C1898 1.524 . S
C1902 H1914 0.956 . S
C1902 H1915 0.961 . S
C1902 H1916 0.961 . S
C1903 C1900 1.539 . S
C1903 H1917 0.958 . S
C1903 H1918 0.961 . S
C1903 H1919 0.960 . S
H1904 C1888 0.931 . S
H1905 C1893 0.929 . S
H1906 C1894 0.960 . S
H1907 C1894 0.962 . S
H1908 C1894 0.960 . S
H1909 C1895 0.961 . S
H1910 C1895 0.961 . S
H1911 C1895 0.961 . S
H1912 C1896 0.931 . S
H1913 C1901 0.930 . S
H1914 C1902 0.956 . S
H1915 C1902 0.961 . S
H1916 C1902 0.961 . S
H1917 C1903 0.958 . S
H1918 C1903 0.961 . S
H1919 C1903 0.960 . S
C1920 C1921 1.391 . S
C1920 C1922 1.394 . S
C1920 H1936 0.931 . S
C1921 C1920 1.391 . S
C1921 C1925 1.376 . S
C1922 C1920 1.394 . S
C1922 C1923 1.369 . S
C1922 C1926 1.531 . S
C1923 C1922 1.369 . S
C1923 C1924 1.410 . S
C1923 C1931 1.503 . S
C1924 C1923 1.410 . S
C1924 C1925 1.392 . S
C1924 C1927 1.511 . S
C1925 C1921 1.376 . S
C1925 C1924 1.392 . S
C1925 H1937 0.929 . S
C1926 C1922 1.531 . S
C1926 H1938 0.960 . S
C1926 H1939 0.962 . S
C1926 H1940 0.960 . S
C1927 C1924 1.511 . S
C1927 H1941 0.961 . S
C1927 H1942 0.961 . S
C1927 H1943 0.961 . S
C1928 C1929 1.370 . S
C1928 C1930 1.363 . S
C1928 H1944 0.931 . S
C1929 C1928 1.370 . S
C1929 C1933 1.408 . S
C1930 C1928 1.363 . S
C1930 C1931 1.370 . S
C1930 C1934 1.524 . S
C1931 C1923 1.503 . S
C1931 C1930 1.370 . S
C1931 C1932 1.403 . S
C1932 C1931 1.403 . S
C1932 C1933 1.404 . S
C1932 C1935 1.539 . S
C1933 C1929 1.408 . S
C1933 C1932 1.404 . S
C1933 H1945 0.930 . S
C1934 C1930 1.524 . S
C1934 H1946 0.956 . S
C1934 H1947 0.961 . S
C1934 H1948 0.961 . S
C1935 C1932 1.539 . S
C1935 H1949 0.958 . S
C1935 H1950 0.961 . S
C1935 H1951 0.960 . S
H1936 C1920 0.931 . S
H1937 C1925 0.929 . S
H1938 C1926 0.960 . S
H1939 C1926 0.962 . S
H1940 C1926 0.960 . S
H1941 C1927 0.961 . S
H1942 C1927 0.961 . S
H1943 C1927 0.961 . S
H1944 C1928 0.931 . S
H1945 C1933 0.930 . S
H1946 C1934 0.956 . S
H1947 C1934 0.961 . S
H1948 C1934 0.961 . S
H1949 C1935 0.958 . S
H1950 C1935 0.961 . S
H1951 C1935 0.960 . S
C1952 C1953 1.391 . S
C1952 C1954 1.394 . S
C1952 H1968 0.931 . S
C1953 C1952 1.391 . S
C1953 C1957 1.376 . S
C1954 C1952 1.394 . S
C1954 C1955 1.369 . S
C1954 C1958 1.531 . S
C1955 C1954 1.369 . S
C1955 C1956 1.410 . S
C1955 C1963 1.503 1_554 S
C1956 C1955 1.410 . S
C1956 C1957 1.392 . S
C1956 C1959 1.511 . S
C1957 C1953 1.376 . S
C1957 C1956 1.392 . S
C1957 H1969 0.929 . S
C1958 C1954 1.531 . S
C1958 H1970 0.960 1_554 S
C1958 H1971 0.962 1_554 S
C1958 H1972 0.960 . S
C1959 C1956 1.511 . S
C1959 H1973 0.961 . S
C1959 H1974 0.961 . S
C1959 H1975 0.961 . S
C1960 C1961 1.370 . S
C1960 C1962 1.363 . S
C1960 H1976 0.931 . S
C1961 C1960 1.370 . S
C1961 C1965 1.408 . S
C1962 C1960 1.363 . S
C1962 C1963 1.370 . S
C1962 C1966 1.524 . S
C1963 C1955 1.503 1_556 S
C1963 C1962 1.370 . S
C1963 C1964 1.403 . S
C1964 C1963 1.403 . S
C1964 C1965 1.404 . S
C1964 C1967 1.539 . S
C1965 C1961 1.408 . S
C1965 C1964 1.404 . S
C1965 H1977 0.930 . S
C1966 C1962 1.524 . S
C1966 H1978 0.956 . S
C1966 H1979 0.989 . S
C1966 H1980 0.961 . S
C1967 C1964 1.539 . S
C1967 H1981 0.958 . S
C1967 H1982 0.961 . S
C1967 H1983 0.960 1_556 S
H1968 C1952 0.931 . S
H1969 C1957 0.929 . S
H1970 C1958 0.960 1_556 S
H1971 C1958 0.962 1_556 S
H1972 C1958 0.960 . S
H1973 C1959 0.961 . S
H1974 C1959 0.961 . S
H1975 C1959 0.961 . S
H1976 C1960 0.931 . S
H1977 C1965 0.930 . S
H1978 C1966 0.956 . S
H1979 C1966 0.989 . S
H1980 C1966 0.961 . S
H1981 C1967 0.958 . S
H1982 C1967 0.961 . S
H1983 C1967 0.960 1_554 S
C1984 C1985 1.391 . S
C1984 C1986 1.394 . S
C1984 H2000 0.931 . S
C1985 C1984 1.391 . S
C1985 C1989 1.376 . S
C1986 C1984 1.394 . S
C1986 C1987 1.369 . S
C1986 C1990 1.531 . S
C1987 C1986 1.369 . S
C1987 C1988 1.410 . S
C1987 C1995 1.503 . S
C1988 C1987 1.410 . S
C1988 C1989 1.392 . S
C1988 C1991 1.511 . S
C1989 C1985 1.376 . S
C1989 C1988 1.392 . S
C1989 H2001 0.929 . S
C1990 C1986 1.531 . S
C1990 H2002 0.960 . S
C1990 H2003 0.962 . S
C1990 H2004 0.960 . S
C1991 C1988 1.511 . S
C1991 H2005 0.961 . S
C1991 H2006 0.961 . S
C1991 H2007 0.961 . S
C1992 C1993 1.370 1_556 S
C1992 C1994 1.370 . S
C1992 H2008 0.925 1_556 S
C1993 C1992 1.370 1_554 S
C1993 C1997 1.408 1_554 S
C1994 C1992 1.370 . S
C1994 C1995 1.370 . S
C1994 C1998 1.524 . S
C1995 C1987 1.503 . S
C1995 C1994 1.370 . S
C1995 C1996 1.403 . S
C1996 C1995 1.403 . S
C1996 C1997 1.404 . S
C1996 C1999 1.539 . S
C1997 C1993 1.408 1_556 S
C1997 C1996 1.404 . S
C1997 H2009 0.930 . S
C1998 C1994 1.524 . S
C1998 H2010 0.956 . S
C1998 H2011 0.961 . S
C1998 H2012 0.961 . S
C1999 C1996 1.539 . S
C1999 H2013 0.958 . S
C1999 H2014 0.961 . S
C1999 H2015 0.960 . S
H2000 C1984 0.931 . S
H2001 C1989 0.929 . S
H2002 C1990 0.960 . S
H2003 C1990 0.962 . S
H2004 C1990 0.960 . S
H2005 C1991 0.961 . S
H2006 C1991 0.961 . S
H2007 C1991 0.961 . S
H2008 C1992 0.925 1_554 S
H2009 C1997 0.930 . S
H2010 C1998 0.956 . S
H2011 C1998 0.961 . S
H2012 C1998 0.961 . S
H2013 C1999 0.958 . S
H2014 C1999 0.961 . S
H2015 C1999 0.960 . S
C2016 C2017 1.391 . S
C2016 C2018 1.394 . S
C2016 H2032 0.931 . S
C2017 C2016 1.391 . S
C2017 C2021 1.376 . S
C2018 C2016 1.394 . S
C2018 C2019 1.369 . S
C2018 C2022 1.531 . S
C2019 C2018 1.369 . S
C2019 C2020 1.410 . S
C2019 C2027 1.503 . S
C2020 C2019 1.410 . S
C2020 C2021 1.392 . S
C2020 C2023 1.511 . S
C2021 C2017 1.376 . S
C2021 C2020 1.392 . S
C2021 H2033 0.929 . S
C2022 C2018 1.531 . S
C2022 H2034 0.960 . S
C2022 H2035 0.962 . S
C2022 H2036 0.960 . S
C2023 C2020 1.511 . S
C2023 H2037 0.961 . S
C2023 H2038 0.961 . S
C2023 H2039 0.961 . S
C2024 C2025 1.370 . S
C2024 C2026 1.363 . S
C2024 H2040 0.931 . S
C2025 C2024 1.370 . S
C2025 C2029 1.408 . S
C2026 C2024 1.363 . S
C2026 C2027 1.370 . S
C2026 C2030 1.524 . S
C2027 C2019 1.503 . S
C2027 C2026 1.370 . S
C2027 C2028 1.403 . S
C2028 C2027 1.403 . S
C2028 C2029 1.404 . S
C2028 C2031 1.539 . S
C2029 C2025 1.408 . S
C2029 C2028 1.404 . S
C2029 H2041 0.930 . S
C2030 C2026 1.524 . S
C2030 H2042 0.956 . S
C2030 H2043 0.961 . S
C2030 H2044 0.961 . S
C2031 C2028 1.539 . S
C2031 H2045 0.958 . S
C2031 H2046 0.961 . S
C2031 H2047 0.960 . S
H2032 C2016 0.931 . S
H2033 C2021 0.929 . S
H2034 C2022 0.960 . S
H2035 C2022 0.962 . S
H2036 C2022 0.960 . S
H2037 C2023 0.961 . S
H2038 C2023 0.961 . S
H2039 C2023 0.961 . S
H2040 C2024 0.931 . S
H2041 C2029 0.930 . S
H2042 C2030 0.956 . S
H2043 C2030 0.961 . S
H2044 C2030 0.961 . S
H2045 C2031 0.958 . S
H2046 C2031 0.961 . S
H2047 C2031 0.960 . S
C2048 C2049 1.391 . S
C2048 C2050 1.394 . S
C2048 H2064 0.931 . S
C2049 C2048 1.391 . S
C2049 C2053 1.376 . S
C2050 C2048 1.394 . S
C2050 C2051 1.369 . S
C2050 C2054 1.531 . S
C2051 C2050 1.369 . S
C2051 C2052 1.410 . S
C2051 C2059 1.503 . S
C2052 C2051 1.410 . S
C2052 C2053 1.392 . S
C2052 C2055 1.511 . S
C2053 C2049 1.376 . S
C2053 C2052 1.392 . S
C2053 H2065 0.929 . S
C2054 C2050 1.531 . S
C2054 H2066 0.960 . S
C2054 H2067 0.962 . S
C2054 H2068 0.960 . S
C2055 C2052 1.511 . S
C2055 H2069 0.961 . S
C2055 H2070 0.961 . S
C2055 H2071 0.961 . S
C2056 C2057 1.370 . S
C2056 C2058 1.363 . S
C2056 H2072 0.931 . S
C2057 C2056 1.370 . S
C2057 C2061 1.408 . S
C2058 C2056 1.363 . S
C2058 C2059 1.370 . S
C2058 C2062 1.524 . S
C2059 C2051 1.503 . S
C2059 C2058 1.370 . S
C2059 C2060 1.403 . S
C2060 C2059 1.403 . S
C2060 C2061 1.404 . S
C2060 C2063 1.539 . S
C2061 C2057 1.408 . S
C2061 C2060 1.404 . S
C2061 H2073 0.930 . S
C2062 C2058 1.524 . S
C2062 H2074 0.956 . S
C2062 H2075 0.961 . S
C2062 H2076 0.961 . S
C2063 C2060 1.539 . S
C2063 H2077 0.958 . S
C2063 H2078 0.961 . S
C2063 H2079 0.960 . S
H2064 C2048 0.931 . S
H2065 C2053 0.929 . S
H2066 C2054 0.960 . S
H2067 C2054 0.962 . S
H2068 C2054 0.960 . S
H2069 C2055 0.961 . S
H2070 C2055 0.961 . S
H2071 C2055 0.961 . S
H2072 C2056 0.931 . S
H2073 C2061 0.930 . S
H2074 C2062 0.956 . S
H2075 C2062 0.961 . S
H2076 C2062 0.961 . S
H2077 C2063 0.958 . S
H2078 C2063 0.961 . S
H2079 C2063 0.960 . S
C2080 C2081 1.391 . S
C2080 C2082 1.394 . S
C2080 H2096 0.931 . S
C2081 C2080 1.391 . S
C2081 C2085 1.376 . S
C2082 C2080 1.394 . S
C2082 C2083 1.369 . S
C2082 C2086 1.531 . S
C2083 C2082 1.369 . S
C2083 C2084 1.410 . S
C2083 C2091 1.503 . S
C2084 C2083 1.410 . S
C2084 C2085 1.392 . S
C2084 C2087 1.511 . S
C2085 C2081 1.376 . S
C2085 C2084 1.392 . S
C2085 H2097 0.929 . S
C2086 C2082 1.531 . S
C2086 H2098 0.960 . S
C2086 H2099 0.962 . S
C2086 H2100 0.960 . S
C2087 C2084 1.511 . S
C2087 H2101 0.961 . S
C2087 H2102 0.961 . S
C2087 H2103 0.961 . S
C2088 C2089 1.370 . S
C2088 C2090 1.363 . S
C2088 H2104 0.931 . S
C2089 C2088 1.370 . S
C2089 C2093 1.408 . S
C2090 C2088 1.363 . S
C2090 C2091 1.370 . S
C2090 C2094 1.524 . S
C2091 C2083 1.503 . S
C2091 C2090 1.370 . S
C2091 C2092 1.403 . S
C2092 C2091 1.403 . S
C2092 C2093 1.404 . S
C2092 C2095 1.539 . S
C2093 C2089 1.408 . S
C2093 C2092 1.404 . S
C2093 H2105 0.930 . S
C2094 C2090 1.524 . S
C2094 H2106 0.956 . S
C2094 H2107 0.961 . S
C2094 H2108 0.961 . S
C2095 C2092 1.539 . S
C2095 H2109 0.958 . S
C2095 H2110 0.961 . S
C2095 H2111 0.960 . S
H2096 C2080 0.931 . S
H2097 C2085 0.929 . S
H2098 C2086 0.960 . S
H2099 C2086 0.962 . S
H2100 C2086 0.960 . S
H2101 C2087 0.961 . S
H2102 C2087 0.961 . S
H2103 C2087 0.961 . S
H2104 C2088 0.931 . S
H2105 C2093 0.930 . S
H2106 C2094 0.956 . S
H2107 C2094 0.961 . S
H2108 C2094 0.961 . S
H2109 C2095 0.958 . S
H2110 C2095 0.961 . S
H2111 C2095 0.960 . S
C961 C162 1.375 . S
C969 C2 1.445 . S
C993 C202 1.331 . S
C1001 C61 1.307 . S
C1025 C82 1.860 . S
C1033 C261 1.654 . S
C1057 C122 1.647 . S
C1065 C301 1.812 . S
C1089 C42 1.580 . S
C1097 C341 1.767 . S
C1121 C381 1.308 . S
C1129 C101 1.396 . S
C1153 C141 1.394 . S
C1161 C421 1.458 . S
C1185 C442 1.614 . S
C1193 C21 1.733 . S
C1217 C181 1.547 . S
C1225 C461 1.565 . S
C1249 C322 1.760 . S
C1257 C221 1.646 . S
C1281 C242 1.647 . S
C1289 C362 1.696 . S
C1313 C282 1.855 . S
C1321 C402 1.824 . S
C1345 C482 1.331 . S
C1353 C741 1.307 . S
C1377 C762 1.849 . S
C1385 C541 1.654 . S
C1409 C802 1.691 . S
C1417 C581 1.832 . S
C1441 C621 1.463 . S
C1449 C821 1.371 . S
C1473 C661 1.742 . S
C1481 C722 1.634 . S
C1505 C842 1.353 . S
C1513 C682 1.442 . S
C1537 C781 1.375 . S
C1545 C901 1.294 . S
C1569 C701 1.739 . S
C1577 C922 1.593 . S
C1601 C861 1.569 . S
C1609 C941 1.561 . S
C1633 C501 1.627 . S
C1641 C642 1.769 . S
C1665 C882 1.646 . S
C1673 C522 1.699 . S
C1697 C602 1.854 . S
C1705 C562 1.834 . S
C1729 C15 2.479 . S
C1737 C775 2.437 . S
C1761 C55 2.410 . S
C1769 C815 2.432 . S
C1793 C695 2.471 . S
C1801 C95 2.439 . S
C1825 C135 2.402 . S
C1833 C735 2.433 . S
C1857 C335 2.415 . S
C1865 C175 2.452 . S
C1889 C215 2.287 . S
C1897 C375 2.250 . S
C1921 C415 2.108 . S
C1929 C255 2.111 . S
C1953 C455 2.413 . S
C1961 C295 2.403 . S
C1985 C495 2.274 . S
C1993 C895 2.261 . S
C2017 C535 2.119 . S
C2025 C615 2.120 . S
C2049 C935 2.368 . S
C2057 C575 2.413 . S
C2081 C855 2.409 . S
C2089 C655 2.455 . S
