# Generated by pormake.
# Topology dia, (4)-cn, num edge types: 1
# Building blocks:
#     Node 0, Type 0, BuildingBlock: TATPOV_clean_sbu_0, # of connection points: 4
#     Node 1, Type 0, BuildingBlock: TATPOV_clean_sbu_0, # of connection points: 4
#     Node 2, Type 0, BuildingBlock: TATPOV_clean_sbu_0, # of connection points: 4
#     Node 3, Type 0, BuildingBlock: TATPOV_clean_sbu_0, # of connection points: 4
#     Node 4, Type 0, BuildingBlock: TATPOV_clean_sbu_0, # of connection points: 4
#     Node 5, Type 0, BuildingBlock: TATPOV_clean_sbu_0, # of connection points: 4
#     Node 6, Type 0, BuildingBlock: TATPOV_clean_sbu_0, # of connection points: 4
#     Node 7, Type 0, BuildingBlock: TATPOV_clean_sbu_0, # of connection points: 4
#     Edge 8, Type (0, 0), BuildingBlock: UVAHIK_clean_linker_0, # of connection points: 2
#     Edge 9, Type (0, 0), BuildingBlock: UVAHIK_clean_linker_0, # of connection points: 2
#     Edge 10, Type (0, 0), BuildingBlock: UVAHIK_clean_linker_0, # of connection points: 2
#     Edge 11, Type (0, 0), BuildingBlock: UVAHIK_clean_linker_0, # of connection points: 2
#     Edge 12, Type (0, 0), BuildingBlock: UVAHIK_clean_linker_0, # of connection points: 2
#     Edge 13, Type (0, 0), BuildingBlock: UVAHIK_clean_linker_0, # of connection points: 2
#     Edge 14, Type (0, 0), BuildingBlock: UVAHIK_clean_linker_0, # of connection points: 2
#     Edge 15, Type (0, 0), BuildingBlock: UVAHIK_clean_linker_0, # of connection points: 2
#     Edge 16, Type (0, 0), BuildingBlock: UVAHIK_clean_linker_0, # of connection points: 2
#     Edge 17, Type (0, 0), BuildingBlock: UVAHIK_clean_linker_0, # of connection points: 2
#     Edge 18, Type (0, 0), BuildingBlock: UVAHIK_clean_linker_0, # of connection points: 2
#     Edge 19, Type (0, 0), BuildingBlock: UVAHIK_clean_linker_0, # of connection points: 2
#     Edge 20, Type (0, 0), BuildingBlock: UVAHIK_clean_linker_0, # of connection points: 2
#     Edge 21, Type (0, 0), BuildingBlock: UVAHIK_clean_linker_0, # of connection points: 2
#     Edge 22, Type (0, 0), BuildingBlock: UVAHIK_clean_linker_0, # of connection points: 2
#     Edge 23, Type (0, 0), BuildingBlock: UVAHIK_clean_linker_0, # of connection points: 2
# Relax obj value: 0.006
# Max RMSD: 0.039
# Mean RMSD: 0.039
data_MOF--net-dia--node1-TATPOV_clean_sbu_0--edge1-UVAHIK_clean_linker_0
_symmetry_space_group_name_H-M    P1
_symmetry_Int_Tables_number       1
_symmetry_cell_setting            triclinic
loop_
_symmetry_equiv_pos_as_xyz
'x, y, z'
_cell_length_a     41.868779
_cell_length_b     47.077181
_cell_length_c     47.31143
_cell_angle_alpha  92.61608
_cell_angle_beta   93.352361
_cell_angle_gamma 93.614691
loop_
_atom_site_label
_atom_site_type_symbol
_atom_site_fract_x
_atom_site_fract_y
_atom_site_fract_z
_atom_type_partial_charge
Zn0 Zn 0.14537 0.09858 0.60979 0.0
Zn1 Zn 0.11016 0.12608 0.63825 0.0
O2 O 0.13045 0.09944 0.66735 0.0
O3 O 0.14826 0.06815 0.63723 0.0
O4 O 0.08196 0.15117 0.66092 0.0
O5 O 0.18061 0.12863 0.60932 0.0
O6 O 0.14284 0.15572 0.62252 0.0
C7 C 0.14265 0.07569 0.66232 0.0
C8 C 0.08533 0.09438 0.58277 0.0
O9 O 0.07903 0.10438 0.60723 0.0
O10 O 0.11414 0.09295 0.57662 0.0
C11 C 0.06448 0.14228 0.68024 0.0
O12 O 0.06398 0.11525 0.68608 0.0
C13 C 0.17072 0.15316 0.6135 0.0
Zn14 Zn 0.78864 0.38784 0.89719 0.0
Zn15 Zn 0.83009 0.35586 0.8741 0.0
O16 O 0.80852 0.33084 0.90398 0.0
O17 O 0.77238 0.35782 0.92108 0.0
O18 O 0.85927 0.3291 0.85467 0.0
O19 O 0.76529 0.3939 0.86077 0.0
O20 O 0.80224 0.37029 0.84048 0.0
C21 C 0.78603 0.33466 0.9206 0.0
C22 C 0.85387 0.41055 0.90756 0.0
O23 O 0.86016 0.38832 0.89302 0.0
O24 O 0.82513 0.41516 0.91222 0.0
C25 C 0.87645 0.33741 0.83491 0.0
O26 O 0.87562 0.36393 0.8275 0.0
C27 C 0.77737 0.38462 0.83862 0.0
Zn28 Zn 0.64129 0.11347 0.11861 0.0
Zn29 Zn 0.60521 0.13805 0.14679 0.0
O30 O 0.624 0.10892 0.17399 0.0
O31 O 0.64025 0.07924 0.14158 0.0
O32 O 0.57478 0.15995 0.17014 0.0
O33 O 0.67782 0.14249 0.12495 0.0
O34 O 0.63876 0.16933 0.13521 0.0
C35 C 0.63473 0.08495 0.16709 0.0
C36 C 0.58448 0.11193 0.08791 0.0
O37 O 0.57653 0.11856 0.1129 0.0
O38 O 0.61379 0.11263 0.08285 0.0
C39 C 0.58423 0.17087 0.19454 0.0
O40 O 0.61371 0.16746 0.2043 0.0
C41 C 0.66785 0.16697 0.12922 0.0
Zn42 Zn 0.84408 0.88922 0.3724 0.0
Zn43 Zn 0.87723 0.86545 0.34062 0.0
O44 O 0.84724 0.8335 0.35612 0.0
O45 O 0.80874 0.85901 0.37053 0.0
O46 O 0.90426 0.84378 0.31372 0.0
O47 O 0.83959 0.92288 0.34929 0.0
O48 O 0.85355 0.8937 0.31535 0.0
C49 C 0.81931 0.83493 0.36532 0.0
C50 C 0.90475 0.89283 0.39705 0.0
O51 O 0.90971 0.88589 0.37134 0.0
O52 O 0.87642 0.89174 0.40494 0.0
C53 C 0.92111 0.82411 0.32273 0.0
O54 O 0.92131 0.81866 0.34974 0.0
C55 C 0.84222 0.91713 0.32324 0.0
Zn56 Zn 0.17437 0.59493 0.06735 0.0
Zn57 Zn 0.13932 0.62587 0.09826 0.0
O58 O 0.15954 0.59803 0.12626 0.0
O59 O 0.18632 0.57063 0.09852 0.0
O60 O 0.11435 0.6515 0.12347 0.0
O61 O 0.20397 0.6273 0.05899 0.0
O62 O 0.17059 0.65469 0.07968 0.0
C63 C 0.17707 0.57704 0.12279 0.0
C64 C 0.10876 0.58998 0.04717 0.0
O65 O 0.10535 0.60571 0.06934 0.0
O66 O 0.1364 0.5833 0.04102 0.0
C67 C 0.08824 0.64292 0.13377 0.0
O68 O 0.07677 0.61656 0.12783 0.0
C69 C 0.1955 0.65183 0.06573 0.0
Zn70 Zn 0.29908 0.41098 0.40986 0.0
Zn71 Zn 0.33489 0.37675 0.38082 0.0
O72 O 0.31273 0.34999 0.40847 0.0
O73 O 0.2821 0.37863 0.43113 0.0
O74 O 0.36092 0.35067 0.35705 0.0
O75 O 0.27498 0.42186 0.37528 0.0
O76 O 0.30524 0.39466 0.35062 0.0
C77 C 0.29226 0.35417 0.42695 0.0
C78 C 0.36604 0.42704 0.41832 0.0
O79 O 0.36861 0.40542 0.40155 0.0
O80 O 0.33865 0.43406 0.42489 0.0
C81 C 0.38736 0.34179 0.36658 0.0
O82 O 0.39797 0.34943 0.39268 0.0
C83 C 0.28282 0.41179 0.35166 0.0
Zn84 Zn 0.35816 0.89475 0.8793 0.0
Zn85 Zn 0.39132 0.87033 0.84854 0.0
O86 O 0.36275 0.83892 0.86677 0.0
O87 O 0.32346 0.86425 0.87973 0.0
O88 O 0.41891 0.848 0.82251 0.0
O89 O 0.35222 0.92707 0.85466 0.0
O90 O 0.36594 0.89641 0.82193 0.0
C91 C 0.33493 0.84028 0.87624 0.0
C92 C 0.419 0.90125 0.90306 0.0
O93 O 0.4237 0.89348 0.87751 0.0
O94 O 0.39092 0.89938 0.91147 0.0
C95 C 0.43002 0.82484 0.83029 0.0
O96 O 0.42388 0.81599 0.85547 0.0
C97 C 0.35421 0.91997 0.82881 0.0
Zn98 Zn 0.69968 0.59782 0.58652 0.0
Zn99 Zn 0.66009 0.6299 0.61314 0.0
O100 O 0.685 0.60907 0.64456 0.0
O101 O 0.72027 0.58537 0.62199 0.0
O102 O 0.63189 0.65569 0.63506 0.0
O103 O 0.71949 0.63051 0.56786 0.0
O104 O 0.6853 0.65753 0.58801 0.0
C105 C 0.70818 0.5927 0.64482 0.0
C106 C 0.63315 0.58152 0.57192 0.0
O107 O 0.62846 0.60239 0.58899 0.0
O108 O 0.66142 0.57512 0.5675 0.0
C109 C 0.61745 0.64685 0.65624 0.0
O110 O 0.62073 0.62059 0.66366 0.0
C111 C 0.70809 0.65451 0.57155 0.0
C112 C 0.30031 0.30836 0.45072 0.0
C113 C 0.28154 0.33142 0.4453 0.0
C114 C 0.29203 0.28943 0.4715 0.0
C115 C 0.24523 0.28618 0.53536 0.0
H116 H 0.24932 0.20446 0.52451 0.0
C117 C 0.1755 0.2034 0.59829 0.0
C118 C 0.1898 0.17788 0.60378 0.0
C119 C 0.19141 0.22416 0.58309 0.0
C120 C 0.2486 0.2273 0.52808 0.0
H121 H 0.23836 0.35171 0.45587 0.0
H122 H 0.22358 0.31847 0.4913 0.0
H123 H 0.26725 0.2354 0.48785 0.0
H124 H 0.23319 0.15531 0.60032 0.0
H125 H 0.26089 0.19162 0.57409 0.0
H126 H 0.22564 0.27795 0.57522 0.0
C127 C 0.24523 0.31547 0.48037 0.0
C128 C 0.25883 0.24499 0.50705 0.0
C129 C 0.25356 0.33436 0.45987 0.0
C130 C 0.22132 0.17459 0.59602 0.0
C131 C 0.23717 0.19529 0.58088 0.0
C132 C 0.23488 0.26848 0.55632 0.0
C133 C 0.2648 0.29327 0.48699 0.0
C134 C 0.25664 0.27457 0.51022 0.0
C135 C 0.22185 0.21971 0.57325 0.0
C136 C 0.23599 0.23884 0.55268 0.0
H137 H 0.32208 0.30569 0.43987 0.0
H138 H 0.30754 0.27246 0.47613 0.0
H139 H 0.24394 0.30898 0.53869 0.0
H140 H 0.15126 0.20655 0.60402 0.0
H141 H 0.17899 0.2428 0.57746 0.0
C142 C 0.74822 0.56692 0.67248 0.0
C143 C 0.71786 0.57801 0.67042 0.0
C144 C 0.75463 0.54597 0.69147 0.0
C145 C 0.72478 0.50741 0.75195 0.0
H146 H 0.76491 0.44409 0.71612 0.0
C147 C 0.73453 0.40446 0.80865 0.0
C148 C 0.76589 0.39554 0.81149 0.0
C149 C 0.72635 0.42357 0.78822 0.0
C150 C 0.75378 0.46162 0.7264 0.0
H151 H 0.67139 0.57795 0.68829 0.0
H152 H 0.68251 0.54111 0.72155 0.0
H153 H 0.75752 0.48717 0.69042 0.0
H154 H 0.81223 0.39692 0.7933 0.0
H155 H 0.79799 0.43047 0.75754 0.0
H156 H 0.72116 0.48192 0.78797 0.0
C157 C 0.70139 0.54863 0.70851 0.0
C158 C 0.74974 0.48637 0.71182 0.0
C159 C 0.69505 0.56984 0.68958 0.0
C160 C 0.78785 0.4034 0.79147 0.0
C161 C 0.77971 0.42274 0.77109 0.0
C162 C 0.72878 0.48264 0.76651 0.0
C163 C 0.73071 0.53556 0.70862 0.0
C164 C 0.73539 0.5096 0.72452 0.0
C165 C 0.74945 0.4342 0.7704 0.0
C166 C 0.74338 0.45951 0.75392 0.0
H167 H 0.76635 0.57312 0.65811 0.0
H168 H 0.77779 0.53691 0.69172 0.0
H169 H 0.71388 0.525 0.76235 0.0
H170 H 0.71705 0.39843 0.82367 0.0
H171 H 0.70256 0.43142 0.7876 0.0
C172 C 0.5348 0.08115 0.07421 0.0
C173 C 0.56115 0.09818 0.0662 0.0
C174 C 0.51836 0.06158 0.05454 0.0
C175 C 0.53493 0.01998 0.98984 0.0
H176 H 0.44522 0.99445 0.99063 0.0
C177 C 0.46726 0.93546 0.91022 0.0
C178 C 0.44398 0.91729 0.92165 0.0
C179 C 0.4842 0.95697 0.92748 0.0
C180 C 0.47042 0.0012 0.99039 0.0
H181 H 0.58877 0.11051 0.03085 0.0
H182 H 0.55935 0.07719 -0.00365 0.0
H183 H 0.46575 0.03644 0.01969 0.0
H184 H 0.42276 0.90507 0.96039 0.0
H185 H 0.45269 0.9421 0.99046 0.0
H186 H 0.53941 0.98469 0.96035 0.0
C187 C 0.55212 0.07807 0.01796 0.0
C188 C 0.48213 0.0253 0.00697 0.0
C189 C 0.56872 0.09737 0.03764 0.0
C190 C 0.44032 0.91904 0.95098 0.0
C191 C 0.4572 0.94039 0.96815 0.0
C192 C 0.52314 0.99596 0.97309 0.0
C193 C 0.52782 0.05897 0.02651 0.0
C194 C 0.5146 0.03481 0.00714 0.0
C195 C 0.47807 0.96042 0.95632 0.0
C196 C 0.49088 0.98612 0.97353 0.0
H197 H 0.52861 0.08121 0.09612 0.0
H198 H 0.49977 0.04717 0.06187 0.0
H199 H 0.56023 0.02639 0.98985 0.0
H200 H 0.4704 0.93465 0.88764 0.0
H201 H 0.50033 0.97208 0.91788 0.0
C202 C 0.9582 0.78538 0.31333 0.0
C203 C 0.93936 0.80679 0.30302 0.0
C204 C 0.97464 0.76836 0.29484 0.0
C205 C 0.00467 0.76463 0.22248 0.0
H206 H 0.00718 0.68416 0.23594 0.0
C207 C 0.08386 0.6901 0.16008 0.0
C208 C 0.07109 0.66225 0.15249 0.0
C209 C 0.06782 0.70808 0.17806 0.0
C210 C 0.00652 0.70653 0.23169 0.0
H211 H 0.92332 0.82723 0.26505 0.0
H212 H 0.95172 0.79734 0.23272 0.0
H213 H 0.97898 0.71473 0.26751 0.0
H214 H 0.03113 0.63169 0.15766 0.0
H215 H 0.00305 0.66308 0.18861 0.0
H216 H 0.03166 0.75624 0.18626 0.0
C217 C 0.95411 0.79392 0.2552 0.0
C218 C 0.99067 0.72418 0.25006 0.0
C219 C 0.93767 0.81098 0.27374 0.0
C220 C 0.04178 0.65294 0.16316 0.0
C221 C 0.02574 0.67091 0.18108 0.0
C222 C 0.02055 0.74695 0.20409 0.0
C223 C 0.97266 0.77224 0.26549 0.0
C224 C 0.98954 0.75349 0.24575 0.0
C225 C 0.03858 0.6987 0.18888 0.0
C226 C 0.02169 0.71764 0.20844 0.0
H227 H 0.96022 0.78161 0.33576 0.0
H228 H 0.98911 0.75224 0.30362 0.0
H229 H 0.00458 0.78712 0.21863 0.0
H230 H 0.10642 0.69798 0.15233 0.0
H231 H 0.07866 0.72919 0.18386 0.0
C232 C 0.32298 0.92485 0.78279 0.0
C233 C 0.33869 0.93747 0.80768 0.0
C234 C 0.30159 0.94021 0.76666 0.0
C235 C 0.27428 0.01254 0.75575 0.0
H236 H 0.19157 0.97212 0.73719 0.0
C237 C 0.1686 0.07135 0.71068 0.0
C238 C 0.15471 0.05837 0.68523 0.0
C239 C 0.18809 0.05599 0.72863 0.0
C240 C 0.21455 0.98366 0.74222 0.0
H241 H 0.34675 0.97654 0.83393 0.0
H242 H 0.30986 0.00327 0.80581 0.0
H243 H 0.23539 0.94693 0.75849 0.0
H244 H 0.1473 0.01869 0.65993 0.0
H245 H 0.18085 0.99195 0.69117 0.0
H246 H 0.25356 0.04922 0.73933 0.0
C247 C 0.31371 0.98162 0.79871 0.0
C248 C 0.23972 0.96919 0.75414 0.0
C249 C 0.3348 0.96627 0.81486 0.0
C250 C 0.15793 0.02921 0.6794 0.0
C251 C 0.17709 0.01386 0.69736 0.0
C252 C 0.24913 0.02701 0.74383 0.0
C253 C 0.29595 0.96844 0.77508 0.0
C254 C 0.26988 0.98345 0.76092 0.0
C255 C 0.19357 0.02743 0.72145 0.0
C256 C 0.21903 0.0127 0.73683 0.0
H257 H 0.32548 0.90264 0.77688 0.0
H258 H 0.28858 0.9297 0.74823 0.0
H259 H 0.29731 0.02406 0.76061 0.0
H260 H 0.16654 0.09384 0.71559 0.0
H261 H 0.20011 0.06682 0.74736 0.0
C262 C 0.87315 0.45222 0.93988 0.0
C263 C 0.87981 0.4311 0.91949 0.0
C264 C 0.89739 0.47158 0.95162 0.0
C265 C 0.9853 0.481 0.96302 0.0
H266 H 0.96811 0.5594 0.98223 0.0
C267 C 0.08574 0.56253 0.00374 0.0
C268 C 0.08077 0.57759 0.02929 0.0
C269 C 0.06034 0.54738 0.98838 0.0
C270 C 0.97311 0.53753 0.97707 0.0
H271 H 0.91702 0.41407 0.89497 0.0
H272 H 0.95938 0.44839 0.91502 0.0
H273 H 0.92586 0.52724 0.95826 0.0
H274 H 0.04487 0.59004 0.05785 0.0
H275 H 0.00012 0.56336 0.03071 0.0
H276 H 0.03257 0.49136 0.98161 0.0
C277 C 0.93547 0.44956 0.92238 0.0
C278 C 0.94898 0.51909 0.96342 0.0
C279 C 0.91121 0.42996 0.91081 0.0
C280 C 0.04944 0.57857 0.03829 0.0
C281 C 0.02386 0.56337 0.02276 0.0
C282 C 0.00943 0.49947 0.97638 0.0
C283 C 0.92885 0.47049 0.94306 0.0
C284 C 0.95477 0.49055 0.95639 0.0
C285 C 0.02936 0.54698 -0.00187 0.0
C286 C 0.00356 0.52787 0.98359 0.0
H287 H 0.84922 0.45358 0.94717 0.0
H288 H 0.89153 0.48703 0.96785 0.0
H289 H 0.99041 0.45905 0.95849 0.0
H290 H 0.1095 0.56166 -0.00405 0.0
H291 H 0.06508 0.53536 0.96916 0.0
C292 C 0.43621 0.31488 0.35867 0.0
C293 C 0.40624 0.32336 0.34846 0.0
C294 C 0.45424 0.29773 0.34167 0.0
C295 C 0.46379 0.27438 0.26678 0.0
H296 H 0.51187 0.21578 0.30114 0.0
C297 C 0.53183 0.19322 0.20081 0.0
C298 C 0.5626 0.18745 0.21173 0.0
C299 C 0.51176 0.20917 0.21709 0.0
C300 C 0.49882 0.23221 0.29124 0.0
H301 H 0.37171 0.32026 0.31227 0.0
H302 H 0.40297 0.29 0.28275 0.0
H303 H 0.47868 0.24452 0.33012 0.0
H304 H 0.59628 0.19396 0.24843 0.0
H305 H 0.56143 0.2217 0.27665 0.0
H306 H 0.48399 0.26194 0.22785 0.0
C307 C 0.41276 0.29697 0.3038 0.0
C308 C 0.47978 0.24875 0.30788 0.0
C309 C 0.39472 0.3142 0.32081 0.0
C310 C 0.57273 0.19791 0.23933 0.0
C311 C 0.55265 0.21371 0.25562 0.0
C312 C 0.48277 0.25775 0.25009 0.0
C313 C 0.44278 0.28849 0.31401 0.0
C314 C 0.46221 0.27024 0.29596 0.0
C315 C 0.52191 0.21957 0.24472 0.0
C316 C 0.50074 0.23661 0.26217 0.0
H317 H 0.44593 0.32164 0.37979 0.0
H318 H 0.47745 0.29206 0.35013 0.0
H319 H 0.45095 0.29095 0.2569 0.0
H320 H 0.52324 0.18549 0.17964 0.0
H321 H 0.48813 0.21306 0.20813 0.0
C322 C 0.76906 0.81114 0.38074 0.0
C323 C 0.80157 0.80967 0.37528 0.0
C324 C 0.75433 0.79159 0.39788 0.0
C325 C 0.76453 0.72527 0.43582 0.0
H326 H 0.72463 0.76622 0.49603 0.0
C327 C 0.74919 0.67655 0.54233 0.0
C328 C 0.71893 0.67743 0.55353 0.0
C329 C 0.75708 0.69329 0.51997 0.0
C330 C 0.7353 0.75442 0.47922 0.0
H331 H 0.84316 0.78486 0.3808 0.0
H332 H 0.81752 0.75074 0.41096 0.0
H333 H 0.73991 0.79095 0.45424 0.0
H334 H 0.67403 0.69798 0.55162 0.0
H335 H 0.68792 0.72755 0.51228 0.0
H336 H 0.76055 0.68891 0.46114 0.0
C337 C 0.80336 0.76697 0.40199 0.0
C338 C 0.74392 0.7685 0.45519 0.0
C339 C 0.81808 0.78649 0.38467 0.0
C340 C 0.6976 0.69704 0.54345 0.0
C341 C 0.70548 0.7138 0.52086 0.0
C342 C 0.75592 0.71121 0.45984 0.0
C343 C 0.77189 0.77028 0.40995 0.0
C344 C 0.75912 0.75419 0.43347 0.0
C345 C 0.73482 0.71118 0.50822 0.0
C346 C 0.74186 0.72581 0.48204 0.0
H347 H 0.75562 0.8286 0.37339 0.0
H348 H 0.72979 0.79418 0.40306 0.0
H349 H 0.77584 0.71363 0.41929 0.0
H350 H 0.76623 0.66182 0.54994 0.0
H351 H 0.78026 0.6915 0.51122 0.0
C352 C 0.17277 0.56169 0.17278 0.0
C353 C 0.18671 0.55949 0.14653 0.0
C354 C 0.18146 0.5438 0.1944 0.0
C355 C 0.2464 0.49978 0.21824 0.0
H356 H 0.18144 0.46083 0.26017 0.0
C357 C 0.28048 0.41804 0.2992 0.0
C358 C 0.26727 0.42203 0.32558 0.0
C359 C 0.26826 0.43165 0.27562 0.0
C360 C 0.19985 0.47166 0.2487 0.0
H361 H 0.22097 0.5371 0.12255 0.0
H362 H 0.23589 0.50624 0.15998 0.0
H363 H 0.16544 0.49325 0.22379 0.0
H364 H 0.22949 0.44169 0.34748 0.0
H365 H 0.20864 0.46552 0.30671 0.0
H366 H 0.28088 0.47873 0.24332 0.0
C367 C 0.21844 0.52176 0.164 0.0
C368 C 0.19069 0.49029 0.22802 0.0
C369 C 0.20971 0.5394 0.14249 0.0
C370 C 0.24043 0.43837 0.3275 0.0
C371 C 0.22826 0.45189 0.30404 0.0
C372 C 0.25556 0.48127 0.23894 0.0
C373 C 0.2044 0.52369 0.19013 0.0
C374 C 0.21391 0.50455 0.21264 0.0
C375 C 0.24258 0.44935 0.27804 0.0
C376 C 0.23242 0.46708 0.25448 0.0
H377 H 0.15493 0.57692 0.17647 0.0
H378 H 0.17045 0.54583 0.21449 0.0
H379 H 0.26484 0.51076 0.20692 0.0
H380 H 0.30107 0.40547 0.29704 0.0
H381 H 0.27945 0.42894 0.25569 0.0
C382 C 0.80034 0.2964 0.95338 0.0
C383 C 0.77758 0.31401 0.94185 0.0
C384 C 0.79414 0.28181 0.97785 0.0
C385 C 0.74515 0.28762 0.03968 0.0
H386 H 0.75848 0.20775 0.04832 0.0
C387 C 0.67418 0.21586 0.11124 0.0
C388 C 0.68821 0.19174 0.12143 0.0
C389 C 0.69184 0.23496 0.09549 0.0
C390 C 0.75535 0.23029 0.04661 0.0
H391 H 0.72962 0.3283 0.94523 0.0
H392 H 0.71869 0.30257 0.98728 0.0
H393 H 0.7758 0.23068 0.00614 0.0
H394 H 0.73269 0.17075 0.12672 0.0
H395 H 0.7636 0.20438 0.09972 0.0
H396 H 0.72372 0.28705 0.07965 0.0
C397 C 0.74164 0.3007 0.97814 0.0
C398 C 0.76515 0.24332 0.02235 0.0
C399 C 0.74779 0.31517 0.95389 0.0
C400 C 0.72112 0.18894 0.11865 0.0
C401 C 0.73879 0.20807 0.10305 0.0
C402 C 0.73541 0.27463 0.06394 0.0
C403 C 0.76514 0.28473 0.99096 0.0
C404 C 0.75913 0.27184 0.01824 0.0
C405 C 0.72381 0.23029 0.08993 0.0
C406 C 0.7395 0.24559 0.06724 0.0
H407 H 0.82356 0.29527 0.94458 0.0
H408 H 0.81255 0.26939 0.98723 0.0
H409 H 0.74091 0.30988 0.03731 0.0
H410 H 0.64888 0.21858 0.11309 0.0
H411 H 0.67958 0.25189 0.08566 0.0
C412 C 0.8125 0.92484 0.27715 0.0
C413 C 0.82768 0.93598 0.30287 0.0
C414 C 0.79169 0.94124 0.26161 0.0
C415 C 0.76484 0.01436 0.25478 0.0
H416 H 0.68213 0.97503 0.23342 0.0
C417 C 0.65965 0.07641 0.21489 0.0
C418 C 0.64601 0.06557 0.18849 0.0
C419 C 0.67884 0.05953 0.23148 0.0
C420 C 0.70512 0.98626 0.23925 0.0
H421 H 0.83555 0.97361 0.33121 0.0
H422 H 0.79963 0.00214 0.30416 0.0
H423 H 0.72574 0.94843 0.25301 0.0
H424 H 0.63855 0.02796 0.16011 0.0
H425 H 0.67162 -0.00144 0.18905 0.0
H426 H 0.74428 0.05217 0.24098 0.0
C427 C 0.80345 0.98085 0.29594 0.0
C428 C 0.73017 0.971 0.25017 0.0
C429 C 0.82399 0.96447 0.31149 0.0
C430 C 0.64901 0.03685 0.18034 0.0
C431 C 0.6679 0.01998 0.19696 0.0
C432 C 0.73979 0.02961 0.2439 0.0
C433 C 0.78609 0.96904 0.27147 0.0
C434 C 0.7603 0.98489 0.25801 0.0
C435 C 0.68427 0.03158 0.22199 0.0
C436 C 0.70969 0.01572 0.23599 0.0
H437 H 0.81489 0.90289 0.27011 0.0
H438 H 0.779 0.9318 0.24252 0.0
H439 H 0.78785 0.0256 0.26045 0.0
H440 H 0.65773 0.09851 0.22161 0.0
H441 H 0.69076 0.06881 0.25099 0.0
C442 C 0.92553 0.90841 0.44587 0.0
C443 C 0.93019 0.90689 0.41668 0.0
C444 C 0.94414 0.92781 0.46403 0.0
C445 C 0.98678 -0.00239 0.46114 0.0
H446 H 0.01142 0.98615 0.53988 0.0
C447 C 0.06605 0.0782 0.53381 0.0
C448 C 0.06032 0.08039 0.56276 0.0
C449 C 0.04756 0.05887 0.51548 0.0
C450 C 0.00417 0.98977 0.51805 0.0
H451 H 0.95982 0.92258 0.38397 0.0
H452 H 0.99291 0.95636 0.41593 0.0
H453 H 0.98973 0.94571 0.50907 0.0
H454 H 0.02926 0.06581 0.59491 0.0
H455 H -0.00345 0.03191 0.56267 0.0
H456 H 0.00141 0.04165 0.47012 0.0
C457 C 0.97436 0.94288 0.4246 0.0
C458 C 0.99201 0.96657 0.50035 0.0
C459 C 0.95574 0.92329 0.40638 0.0
C460 C 0.03405 0.06462 0.57265 0.0
C461 C 0.01566 0.04499 0.55429 0.0
C462 C -0.00099 0.02079 0.47883 0.0
C463 C 0.96782 0.94614 0.45339 0.0
C464 C 0.98315 0.97022 0.4717 0.0
C465 C 0.02308 0.04118 0.52578 0.0
C466 C 0.00779 0.01713 0.50748 0.0
H467 H 0.90607 0.89589 0.45441 0.0
H468 H 0.9384 0.92977 0.48603 0.0
H469 H 0.97949 0.00128 0.43934 0.0
H470 H 0.08616 0.0902 0.52566 0.0
H471 H 0.05395 0.05642 0.49369 0.0
C472 C 0.9154 0.32676 0.79804 0.0
C473 C 0.89647 0.31736 0.81982 0.0
C474 C 0.93372 0.30786 0.7833 0.0
C475 C 0.96917 0.23772 0.7877 0.0
H476 H 0.97358 0.24323 0.70648 0.0
C477 C 0.02629 0.15263 0.71791 0.0
C478 C 0.04516 0.16227 0.69619 0.0
C479 C 0.00826 0.17147 0.73309 0.0
C480 C 0.97293 0.24158 0.72919 0.0
H481 H 0.8822 0.28058 0.84323 0.0
H482 H 0.91392 0.24755 0.81734 0.0
H483 H 0.94219 0.27605 0.7328 0.0
H484 H 0.0598 0.19944 0.67348 0.0
H485 H 0.02859 0.23227 0.70004 0.0
H486 H -0.00013 0.20319 0.78404 0.0
C487 C 0.91489 0.26966 0.81187 0.0
C488 C 0.9549 0.26044 0.74433 0.0
C489 C 0.89655 0.28859 0.82663 0.0
C490 C 0.04549 0.19123 0.69 0.0
C491 C 0.02742 0.21005 0.70515 0.0
C492 C 0.98718 0.21883 0.77255 0.0
C493 C 0.93363 0.27902 0.7899 0.0
C494 C 0.9528 0.2588 0.7738 0.0
C495 C 0.00858 0.20044 0.72692 0.0
C496 C 0.98933 0.22052 0.74309 0.0
H497 H 0.91606 0.34878 0.79227 0.0
H498 H 0.94822 0.31596 0.76685 0.0
H499 H 0.96852 0.23607 0.81041 0.0
H500 H 0.02538 0.13047 0.72323 0.0
H501 H 0.99373 0.16321 0.74945 0.0
C502 C 0.5841 0.65663 0.69751 0.0
C503 C 0.59749 0.66586 0.67268 0.0
C504 C 0.56546 0.67438 0.71325 0.0
C505 C 0.5474 0.75016 0.72528 0.0
H506 H 0.4742 0.71669 0.76134 0.0
C507 C 0.45824 0.81761 0.7851 0.0
C508 C 0.449 0.80756 0.81116 0.0
C509 C 0.47591 0.80096 0.76717 0.0
C510 C 0.49471 0.72636 0.75159 0.0
H511 H 0.60154 0.70111 0.64487 0.0
H512 H 0.56851 0.73193 0.67207 0.0
H513 H 0.50536 0.68661 0.73179 0.0
H514 H 0.45123 0.77206 0.83874 0.0
H515 H 0.48185 0.74317 0.80758 0.0
H516 H 0.53645 0.78999 0.74509 0.0
C517 C 0.57287 0.71109 0.67966 0.0
C518 C 0.51266 0.70908 0.73466 0.0
C519 C 0.59169 0.69333 0.66394 0.0
C520 C 0.45787 0.7805 0.81884 0.0
C521 C 0.47528 0.76382 0.80086 0.0
C522 C 0.52928 0.76749 0.74212 0.0
C523 C 0.55948 0.70184 0.70454 0.0
C524 C 0.5395 0.72065 0.72152 0.0
C525 C 0.48448 0.77378 0.77478 0.0
C526 C 0.50293 0.75573 0.75574 0.0
H527 H 0.58821 0.63569 0.705 0.0
H528 H 0.55611 0.66666 0.73254 0.0
H529 H 0.56809 0.75981 0.71581 0.0
H530 H 0.45181 0.83834 0.77852 0.0
H531 H 0.48242 0.80918 0.74714 0.0
C532 C 0.24455 0.67438 0.0472 0.0
C533 C 0.21245 0.67633 0.0537 0.0
C534 C 0.25864 0.69328 0.02908 0.0
C535 C 0.2488 0.75976 0.99165 0.0
H536 H 0.29436 0.72065 0.93391 0.0
C537 C 0.28579 0.81659 0.89379 0.0
C538 C 0.3183 0.81551 0.88822 0.0
C539 C 0.27177 0.79763 0.91192 0.0
C540 C 0.28188 0.73187 0.94996 0.0
H541 H 0.17065 0.70086 0.04836 0.0
H542 H 0.19519 0.73393 0.01631 0.0
H543 H 0.27387 0.69432 0.97293 0.0
H544 H 0.36084 0.79216 0.89504 0.0
H545 H 0.33626 0.75886 0.92684 0.0
H546 H 0.2567 0.79727 0.96855 0.0
C547 C 0.20956 0.71787 0.02536 0.0
C548 C 0.2703 0.71688 0.97241 0.0
C549 C 0.19551 0.69904 0.04379 0.0
C550 C 0.33571 0.79342 0.89893 0.0
C551 C 0.32166 0.77444 0.91721 0.0
C552 C 0.26031 0.77472 0.96915 0.0
C553 C 0.24079 0.71434 0.01686 0.0
C554 C 0.25374 0.73069 0.99356 0.0
C555 C 0.29 0.77726 0.92486 0.0
C556 C 0.27693 0.76092 0.94807 0.0
H557 H 0.25823 0.6572 0.05486 0.0
H558 H 0.28307 0.69057 0.02361 0.0
H559 H 0.2364 0.77102 0.00772 0.0
H560 H 0.27167 0.8332 0.8855 0.0
H561 H 0.24706 0.79977 0.91683 0.0
C562 C 0.42568 0.43421 0.42833 0.0
C563 C 0.39476 0.44345 0.43149 0.0
C564 C 0.4523 0.44884 0.44285 0.0
C565 C 0.47304 0.49622 0.50605 0.0
H566 H 0.55256 0.51369 0.47051 0.0
C567 C 0.57426 0.57257 0.55925 0.0
C568 C 0.60586 0.56486 0.55664 0.0
C569 C 0.54878 0.55714 0.54397 0.0
C570 C 0.53062 0.50867 0.48082 0.0
H571 H 0.36768 0.47591 0.45142 0.0
H572 H 0.41391 0.50134 0.47634 0.0
H573 H 0.5079 0.48767 0.44309 0.0
H574 H 0.63544 0.53462 0.53631 0.0
H575 H 0.59102 0.50763 0.51007 0.0
H576 H 0.49563 0.51714 0.54376 0.0
C577 C 0.41758 0.48254 0.46316 0.0
C578 C 0.5051 0.49378 0.46511 0.0
C579 C 0.39111 0.46802 0.4487 0.0
C580 C 0.61139 0.54125 0.53871 0.0
C581 C 0.58597 0.52585 0.52351 0.0
C582 C 0.49853 0.51104 0.52175 0.0
C583 C 0.44836 0.47286 0.46077 0.0
C584 C 0.47598 0.48764 0.47752 0.0
C585 C 0.55442 0.53371 0.52584 0.0
C586 C 0.52752 0.51758 0.50926 0.0
H587 H 0.42925 0.41534 0.41523 0.0
H588 H 0.4758 0.44088 0.44071 0.0
H589 H 0.45104 0.49131 0.51632 0.0
H590 H 0.56922 0.59069 0.57282 0.0
H591 H 0.52472 0.56388 0.54598 0.0
loop_
_geom_bond_atom_site_label_1
_geom_bond_atom_site_label_2
_geom_bond_distance
_geom_bond_site_symmetry_2
_ccdc_geom_bond_type
Zn0 O3 2.031 . S
Zn0 O5 2.049 . S
Zn0 O10 2.067 . S
Zn1 O2 1.962 . S
Zn1 O4 1.986 . S
Zn1 O6 1.996 . S
Zn1 O9 1.943 . S
O2 Zn1 1.962 . S
O2 C7 1.254 . S
O3 Zn0 2.031 . S
O3 C7 1.269 . S
O4 Zn1 1.986 . S
O4 C11 1.262 . S
O5 Zn0 2.049 . S
O5 C13 1.260 . S
O6 Zn1 1.996 . S
O6 C13 1.257 . S
C7 O2 1.254 . S
C7 O3 1.269 . S
C8 O9 1.249 . S
C8 O10 1.270 . S
O9 Zn1 1.943 . S
O9 C8 1.249 . S
O10 Zn0 2.067 . S
O10 C8 1.270 . S
C11 O4 1.262 . S
C11 O12 1.232 . S
O12 C11 1.232 . S
C13 O5 1.260 . S
C13 O6 1.257 . S
Zn14 O17 2.031 . S
Zn14 O19 2.049 . S
Zn14 O24 2.067 . S
Zn15 O16 1.962 . S
Zn15 O18 1.986 . S
Zn15 O20 1.996 . S
Zn15 O23 1.943 . S
O16 Zn15 1.962 . S
O16 C21 1.254 . S
O17 Zn14 2.031 . S
O17 C21 1.269 . S
O18 Zn15 1.986 . S
O18 C25 1.262 . S
O19 Zn14 2.049 . S
O19 C27 1.260 . S
O20 Zn15 1.996 . S
O20 C27 1.257 . S
C21 O16 1.254 . S
C21 O17 1.269 . S
C22 O23 1.249 . S
C22 O24 1.270 . S
O23 Zn15 1.943 . S
O23 C22 1.249 . S
O24 Zn14 2.067 . S
O24 C22 1.270 . S
C25 O18 1.262 . S
C25 O26 1.232 . S
O26 C25 1.232 . S
C27 O19 1.260 . S
C27 O20 1.257 . S
Zn28 O31 2.031 . S
Zn28 O33 2.049 . S
Zn28 O38 2.067 . S
Zn29 O30 1.962 . S
Zn29 O32 1.986 . S
Zn29 O34 1.996 . S
Zn29 O37 1.943 . S
O30 Zn29 1.962 . S
O30 C35 1.254 . S
O31 Zn28 2.031 . S
O31 C35 1.269 . S
O32 Zn29 1.986 . S
O32 C39 1.262 . S
O33 Zn28 2.049 . S
O33 C41 1.260 . S
O34 Zn29 1.996 . S
O34 C41 1.257 . S
C35 O30 1.254 . S
C35 O31 1.269 . S
C36 O37 1.249 . S
C36 O38 1.270 . S
O37 Zn29 1.943 . S
O37 C36 1.249 . S
O38 Zn28 2.067 . S
O38 C36 1.270 . S
C39 O32 1.262 . S
C39 O40 1.232 . S
O40 C39 1.232 . S
C41 O33 1.260 . S
C41 O34 1.257 . S
Zn42 O45 2.031 . S
Zn42 O47 2.049 . S
Zn42 O52 2.067 . S
Zn43 O44 1.962 . S
Zn43 O46 1.986 . S
Zn43 O48 1.996 . S
Zn43 O51 1.943 . S
O44 Zn43 1.962 . S
O44 C49 1.254 . S
O45 Zn42 2.031 . S
O45 C49 1.269 . S
O46 Zn43 1.986 . S
O46 C53 1.262 . S
O47 Zn42 2.049 . S
O47 C55 1.260 . S
O48 Zn43 1.996 . S
O48 C55 1.257 . S
C49 O44 1.254 . S
C49 O45 1.269 . S
C50 O51 1.249 . S
C50 O52 1.270 . S
O51 Zn43 1.943 . S
O51 C50 1.249 . S
O52 Zn42 2.067 . S
O52 C50 1.270 . S
C53 O46 1.262 . S
C53 O54 1.232 . S
O54 C53 1.232 . S
C55 O47 1.260 . S
C55 O48 1.257 . S
Zn56 O59 2.031 . S
Zn56 O61 2.049 . S
Zn56 O66 2.067 . S
Zn57 O58 1.962 . S
Zn57 O60 1.986 . S
Zn57 O62 1.996 . S
Zn57 O65 1.943 . S
O58 Zn57 1.962 . S
O58 C63 1.254 . S
O59 Zn56 2.031 . S
O59 C63 1.269 . S
O60 Zn57 1.986 . S
O60 C67 1.262 . S
O61 Zn56 2.049 . S
O61 C69 1.260 . S
O62 Zn57 1.996 . S
O62 C69 1.257 . S
C63 O58 1.254 . S
C63 O59 1.269 . S
C64 O65 1.249 . S
C64 O66 1.270 . S
O65 Zn57 1.943 . S
O65 C64 1.249 . S
O66 Zn56 2.067 . S
O66 C64 1.270 . S
C67 O60 1.262 . S
C67 O68 1.232 . S
O68 C67 1.232 . S
C69 O61 1.260 . S
C69 O62 1.257 . S
Zn70 O73 2.031 . S
Zn70 O75 2.049 . S
Zn70 O80 2.067 . S
Zn71 O72 1.962 . S
Zn71 O74 1.986 . S
Zn71 O76 1.996 . S
Zn71 O79 1.943 . S
O72 Zn71 1.962 . S
O72 C77 1.254 . S
O73 Zn70 2.031 . S
O73 C77 1.269 . S
O74 Zn71 1.986 . S
O74 C81 1.262 . S
O75 Zn70 2.049 . S
O75 C83 1.260 . S
O76 Zn71 1.996 . S
O76 C83 1.257 . S
C77 O72 1.254 . S
C77 O73 1.269 . S
C78 O79 1.249 . S
C78 O80 1.270 . S
O79 Zn71 1.943 . S
O79 C78 1.249 . S
O80 Zn70 2.067 . S
O80 C78 1.270 . S
C81 O74 1.262 . S
C81 O82 1.232 . S
O82 C81 1.232 . S
C83 O75 1.260 . S
C83 O76 1.257 . S
Zn84 O87 2.031 . S
Zn84 O89 2.049 . S
Zn84 O94 2.067 . S
Zn85 O86 1.962 . S
Zn85 O88 1.986 . S
Zn85 O90 1.996 . S
Zn85 O93 1.943 . S
O86 Zn85 1.962 . S
O86 C91 1.254 . S
O87 Zn84 2.031 . S
O87 C91 1.269 . S
O88 Zn85 1.986 . S
O88 C95 1.262 . S
O89 Zn84 2.049 . S
O89 C97 1.260 . S
O90 Zn85 1.996 . S
O90 C97 1.257 . S
C91 O86 1.254 . S
C91 O87 1.269 . S
C92 O93 1.249 . S
C92 O94 1.270 . S
O93 Zn85 1.943 . S
O93 C92 1.249 . S
O94 Zn84 2.067 . S
O94 C92 1.270 . S
C95 O88 1.262 . S
C95 O96 1.232 . S
O96 C95 1.232 . S
C97 O89 1.260 . S
C97 O90 1.257 . S
Zn98 O101 2.031 . S
Zn98 O103 2.049 . S
Zn98 O108 2.067 . S
Zn99 O100 1.962 . S
Zn99 O102 1.986 . S
Zn99 O104 1.996 . S
Zn99 O107 1.943 . S
O100 Zn99 1.962 . S
O100 C105 1.254 . S
O101 Zn98 2.031 . S
O101 C105 1.269 . S
O102 Zn99 1.986 . S
O102 C109 1.262 . S
O103 Zn98 2.049 . S
O103 C111 1.260 . S
O104 Zn99 1.996 . S
O104 C111 1.257 . S
C105 O100 1.254 . S
C105 O101 1.269 . S
C106 O107 1.249 . S
C106 O108 1.270 . S
O107 Zn99 1.943 . S
O107 C106 1.249 . S
O108 Zn98 2.067 . S
O108 C106 1.270 . S
C109 O102 1.262 . S
C109 O110 1.232 . S
O110 C109 1.232 . S
C111 O103 1.260 . S
C111 O104 1.257 . S
C112 C113 1.349 . S
C112 C114 1.327 . S
C112 H137 0.950 . S
C113 C112 1.349 . S
C113 C129 1.349 . S
C114 C112 1.327 . S
C114 C133 1.429 . S
C114 H138 0.950 . S
C115 C132 1.574 . S
C115 C134 1.368 . S
C115 H139 0.949 . S
H116 C120 0.949 . S
C117 C118 1.349 . S
C117 C119 1.327 . S
C117 H140 0.950 . S
C118 C117 1.349 . S
C118 C130 1.349 . S
C119 C117 1.327 . S
C119 C135 1.429 . S
C119 H141 0.950 . S
C120 H116 0.949 . S
C120 C128 1.574 . S
C120 C136 1.368 . S
H121 C129 0.950 . S
H122 C127 0.950 . S
H123 C128 0.949 . S
H124 C130 0.950 . S
H125 C131 0.950 . S
H126 C132 0.949 . S
C127 H122 0.950 . S
C127 C129 1.327 . S
C127 C133 1.429 . S
C128 C120 1.574 . S
C128 H123 0.949 . S
C128 C134 1.368 . S
C129 C113 1.349 . S
C129 H121 0.950 . S
C129 C127 1.327 . S
C130 C118 1.349 . S
C130 H124 0.950 . S
C130 C131 1.327 . S
C131 H125 0.950 . S
C131 C130 1.327 . S
C131 C135 1.429 . S
C132 C115 1.574 . S
C132 H126 0.949 . S
C132 C136 1.368 . S
C133 C114 1.429 . S
C133 C127 1.429 . S
C133 C134 1.523 . S
C134 C115 1.368 . S
C134 C128 1.368 . S
C134 C133 1.523 . S
C135 C119 1.429 . S
C135 C131 1.429 . S
C135 C136 1.523 . S
C136 C120 1.368 . S
C136 C132 1.368 . S
C136 C135 1.523 . S
H137 C112 0.950 . S
H138 C114 0.950 . S
H139 C115 0.949 . S
H140 C117 0.950 . S
H141 C119 0.950 . S
C142 C143 1.349 . S
C142 C144 1.327 . S
C142 H167 0.950 . S
C143 C142 1.349 . S
C143 C159 1.349 . S
C144 C142 1.327 . S
C144 C163 1.429 . S
C144 H168 0.950 . S
C145 C162 1.574 . S
C145 C164 1.368 . S
C145 H169 0.949 . S
H146 C150 0.949 . S
C147 C148 1.349 . S
C147 C149 1.327 . S
C147 H170 0.950 . S
C148 C147 1.349 . S
C148 C160 1.349 . S
C149 C147 1.327 . S
C149 C165 1.429 . S
C149 H171 0.950 . S
C150 H146 0.949 . S
C150 C158 1.574 . S
C150 C166 1.368 . S
H151 C159 0.950 . S
H152 C157 0.950 . S
H153 C158 0.949 . S
H154 C160 0.950 . S
H155 C161 0.950 . S
H156 C162 0.949 . S
C157 H152 0.950 . S
C157 C159 1.327 . S
C157 C163 1.429 . S
C158 C150 1.574 . S
C158 H153 0.949 . S
C158 C164 1.368 . S
C159 C143 1.349 . S
C159 H151 0.950 . S
C159 C157 1.327 . S
C160 C148 1.349 . S
C160 H154 0.950 . S
C160 C161 1.327 . S
C161 H155 0.950 . S
C161 C160 1.327 . S
C161 C165 1.429 . S
C162 C145 1.574 . S
C162 H156 0.949 . S
C162 C166 1.368 . S
C163 C144 1.429 . S
C163 C157 1.429 . S
C163 C164 1.523 . S
C164 C145 1.368 . S
C164 C158 1.368 . S
C164 C163 1.523 . S
C165 C149 1.429 . S
C165 C161 1.429 . S
C165 C166 1.523 . S
C166 C150 1.368 . S
C166 C162 1.368 . S
C166 C165 1.523 . S
H167 C142 0.950 . S
H168 C144 0.950 . S
H169 C145 0.949 . S
H170 C147 0.950 . S
H171 C149 0.950 . S
C172 C173 1.349 . S
C172 C174 1.327 . S
C172 H197 0.950 . S
C173 C172 1.349 . S
C173 C189 1.349 . S
C174 C172 1.327 . S
C174 C193 1.429 . S
C174 H198 0.950 . S
C175 C192 1.574 1_545 S
C175 C194 1.368 1_556 S
C175 H199 0.949 . S
H176 C180 0.949 . S
C177 C178 1.349 . S
C177 C179 1.327 . S
C177 H200 0.950 . S
C178 C177 1.349 . S
C178 C190 1.349 . S
C179 C177 1.327 . S
C179 C195 1.429 . S
C179 H201 0.950 . S
C180 H176 0.949 . S
C180 C188 1.574 . S
C180 C196 1.368 1_554 S
H181 C189 0.950 . S
H182 C187 0.950 . S
H183 C188 0.949 . S
H184 C190 0.950 . S
H185 C191 0.950 . S
H186 C192 0.949 . S
C187 H182 0.950 . S
C187 C189 1.327 . S
C187 C193 1.429 . S
C188 C180 1.574 . S
C188 H183 0.949 . S
C188 C194 1.368 1_565 S
C189 C173 1.349 . S
C189 H181 0.950 . S
C189 C187 1.327 . S
C190 C178 1.349 . S
C190 H184 0.950 . S
C190 C191 1.327 . S
C191 H185 0.950 . S
C191 C190 1.327 . S
C191 C195 1.429 . S
C192 C175 1.574 1_565 S
C192 H186 0.949 . S
C192 C196 1.368 . S
C193 C174 1.429 . S
C193 C187 1.429 . S
C193 C194 1.523 . S
C194 C175 1.368 1_554 S
C194 C188 1.368 1_545 S
C194 C193 1.523 . S
C195 C179 1.429 . S
C195 C191 1.429 . S
C195 C196 1.523 . S
C196 C180 1.368 1_556 S
C196 C192 1.368 . S
C196 C195 1.523 . S
H197 C172 0.950 . S
H198 C174 0.950 . S
H199 C175 0.949 . S
H200 C177 0.950 . S
H201 C179 0.950 . S
C202 C203 1.349 . S
C202 C204 1.327 . S
C202 H227 0.950 . S
C203 C202 1.349 . S
C203 C219 1.349 . S
C204 C202 1.327 . S
C204 C223 1.429 . S
C204 H228 0.950 . S
C205 C222 1.574 1_655 S
C205 C224 1.368 . S
C205 H229 0.949 . S
H206 C210 0.949 . S
C207 C208 1.349 . S
C207 C209 1.327 . S
C207 H230 0.950 . S
C208 C207 1.349 . S
C208 C220 1.349 . S
C209 C207 1.327 . S
C209 C225 1.429 . S
C209 H231 0.950 . S
C210 H206 0.949 . S
C210 C218 1.574 1_455 S
C210 C226 1.368 . S
H211 C219 0.950 . S
H212 C217 0.950 . S
H213 C218 0.949 . S
H214 C220 0.950 . S
H215 C221 0.950 . S
H216 C222 0.949 . S
C217 H212 0.950 . S
C217 C219 1.327 . S
C217 C223 1.429 . S
C218 C210 1.574 1_655 S
C218 H213 0.949 . S
C218 C224 1.368 . S
C219 C203 1.349 . S
C219 H211 0.950 . S
C219 C217 1.327 . S
C220 C208 1.349 . S
C220 H214 0.950 . S
C220 C221 1.327 . S
C221 H215 0.950 . S
C221 C220 1.327 . S
C221 C225 1.429 . S
C222 C205 1.574 1_455 S
C222 H216 0.949 . S
C222 C226 1.368 . S
C223 C204 1.429 . S
C223 C217 1.429 . S
C223 C224 1.523 . S
C224 C205 1.368 . S
C224 C218 1.368 . S
C224 C223 1.523 . S
C225 C209 1.429 . S
C225 C221 1.429 . S
C225 C226 1.523 . S
C226 C210 1.368 . S
C226 C222 1.368 . S
C226 C225 1.523 . S
H227 C202 0.950 . S
H228 C204 0.950 . S
H229 C205 0.949 . S
H230 C207 0.950 . S
H231 C209 0.950 . S
C232 C233 1.349 . S
C232 C234 1.327 . S
C232 H257 0.950 . S
C233 C232 1.349 . S
C233 C249 1.349 . S
C234 C232 1.327 . S
C234 C253 1.429 . S
C234 H258 0.950 . S
C235 C252 1.574 . S
C235 C254 1.368 1_545 S
C235 H259 0.949 . S
H236 C240 0.949 . S
C237 C238 1.349 . S
C237 C239 1.327 . S
C237 H260 0.950 . S
C238 C237 1.349 . S
C238 C250 1.349 . S
C239 C237 1.327 . S
C239 C255 1.429 . S
C239 H261 0.950 . S
C240 H236 0.949 . S
C240 C248 1.574 . S
C240 C256 1.368 1_565 S
H241 C249 0.950 . S
H242 C247 0.950 . S
H243 C248 0.949 . S
H244 C250 0.950 . S
H245 C251 0.950 . S
H246 C252 0.949 . S
C247 H242 0.950 . S
C247 C249 1.327 . S
C247 C253 1.429 . S
C248 C240 1.574 . S
C248 H243 0.949 . S
C248 C254 1.368 . S
C249 C233 1.349 . S
C249 H241 0.950 . S
C249 C247 1.327 . S
C250 C238 1.349 . S
C250 H244 0.950 . S
C250 C251 1.327 . S
C251 H245 0.950 . S
C251 C250 1.327 . S
C251 C255 1.429 . S
C252 C235 1.574 . S
C252 H246 0.949 . S
C252 C256 1.368 . S
C253 C234 1.429 . S
C253 C247 1.429 . S
C253 C254 1.523 . S
C254 C235 1.368 1_565 S
C254 C248 1.368 . S
C254 C253 1.523 . S
C255 C239 1.429 . S
C255 C251 1.429 . S
C255 C256 1.523 . S
C256 C240 1.368 1_545 S
C256 C252 1.368 . S
C256 C255 1.523 . S
H257 C232 0.950 . S
H258 C234 0.950 . S
H259 C235 0.949 . S
H260 C237 0.950 . S
H261 C239 0.950 . S
C262 C263 1.349 . S
C262 C264 1.327 . S
C262 H287 0.950 . S
C263 C262 1.349 . S
C263 C279 1.349 . S
C264 C262 1.327 . S
C264 C283 1.429 . S
C264 H288 0.950 . S
C265 C282 1.574 . S
C265 C284 1.368 1_455 S
C265 H289 0.949 . S
H266 C270 0.949 . S
C267 C268 1.349 . S
C267 C269 1.327 . S
C267 H290 0.950 . S
C268 C267 1.349 . S
C268 C280 1.349 . S
C269 C267 1.327 . S
C269 C285 1.429 . S
C269 H291 0.950 . S
C270 H266 0.949 . S
C270 C278 1.574 . S
C270 C286 1.368 1_655 S
H271 C279 0.950 . S
H272 C277 0.950 . S
H273 C278 0.949 . S
H274 C280 0.950 . S
H275 C281 0.950 . S
H276 C282 0.949 . S
C277 H272 0.950 . S
C277 C279 1.327 . S
C277 C283 1.429 . S
C278 C270 1.574 . S
C278 H273 0.949 . S
C278 C284 1.368 1_554 S
C279 C263 1.349 . S
C279 H271 0.950 . S
C279 C277 1.327 . S
C280 C268 1.349 . S
C280 H274 0.950 . S
C280 C281 1.327 . S
C281 H275 0.950 . S
C281 C280 1.327 . S
C281 C285 1.429 . S
C282 C265 1.574 . S
C282 H276 0.949 . S
C282 C286 1.368 1_556 S
C283 C264 1.429 . S
C283 C277 1.429 . S
C283 C284 1.523 . S
C284 C265 1.368 1_655 S
C284 C278 1.368 1_556 S
C284 C283 1.523 . S
C285 C269 1.429 . S
C285 C281 1.429 . S
C285 C286 1.523 . S
C286 C270 1.368 1_455 S
C286 C282 1.368 1_554 S
C286 C285 1.523 . S
H287 C262 0.950 . S
H288 C264 0.950 . S
H289 C265 0.949 . S
H290 C267 0.950 . S
H291 C269 0.950 . S
C292 C293 1.349 . S
C292 C294 1.327 . S
C292 H317 0.950 . S
C293 C292 1.349 . S
C293 C309 1.349 . S
C294 C292 1.327 . S
C294 C313 1.429 . S
C294 H318 0.950 . S
C295 C312 1.574 . S
C295 C314 1.368 . S
C295 H319 0.949 . S
H296 C300 0.949 . S
C297 C298 1.349 . S
C297 C299 1.327 . S
C297 H320 0.950 . S
C298 C297 1.349 . S
C298 C310 1.349 . S
C299 C297 1.327 . S
C299 C315 1.429 . S
C299 H321 0.950 . S
C300 H296 0.949 . S
C300 C308 1.574 . S
C300 C316 1.368 . S
H301 C309 0.950 . S
H302 C307 0.950 . S
H303 C308 0.949 . S
H304 C310 0.950 . S
H305 C311 0.950 . S
H306 C312 0.949 . S
C307 H302 0.950 . S
C307 C309 1.327 . S
C307 C313 1.429 . S
C308 C300 1.574 . S
C308 H303 0.949 . S
C308 C314 1.368 . S
C309 C293 1.349 . S
C309 H301 0.950 . S
C309 C307 1.327 . S
C310 C298 1.349 . S
C310 H304 0.950 . S
C310 C311 1.327 . S
C311 H305 0.950 . S
C311 C310 1.327 . S
C311 C315 1.429 . S
C312 C295 1.574 . S
C312 H306 0.949 . S
C312 C316 1.368 . S
C313 C294 1.429 . S
C313 C307 1.429 . S
C313 C314 1.523 . S
C314 C295 1.368 . S
C314 C308 1.368 . S
C314 C313 1.523 . S
C315 C299 1.429 . S
C315 C311 1.429 . S
C315 C316 1.523 . S
C316 C300 1.368 . S
C316 C312 1.368 . S
C316 C315 1.523 . S
H317 C292 0.950 . S
H318 C294 0.950 . S
H319 C295 0.949 . S
H320 C297 0.950 . S
H321 C299 0.950 . S
C322 C323 1.349 . S
C322 C324 1.327 . S
C322 H347 0.950 . S
C323 C322 1.349 . S
C323 C339 1.349 . S
C324 C322 1.327 . S
C324 C343 1.429 . S
C324 H348 0.950 . S
C325 C342 1.574 . S
C325 C344 1.368 . S
C325 H349 0.949 . S
H326 C330 0.949 . S
C327 C328 1.349 . S
C327 C329 1.327 . S
C327 H350 0.950 . S
C328 C327 1.349 . S
C328 C340 1.349 . S
C329 C327 1.327 . S
C329 C345 1.429 . S
C329 H351 0.950 . S
C330 H326 0.949 . S
C330 C338 1.574 . S
C330 C346 1.368 . S
H331 C339 0.950 . S
H332 C337 0.950 . S
H333 C338 0.949 . S
H334 C340 0.950 . S
H335 C341 0.950 . S
H336 C342 0.949 . S
C337 H332 0.950 . S
C337 C339 1.327 . S
C337 C343 1.429 . S
C338 C330 1.574 . S
C338 H333 0.949 . S
C338 C344 1.368 . S
C339 C323 1.349 . S
C339 H331 0.950 . S
C339 C337 1.327 . S
C340 C328 1.349 . S
C340 H334 0.950 . S
C340 C341 1.327 . S
C341 H335 0.950 . S
C341 C340 1.327 . S
C341 C345 1.429 . S
C342 C325 1.574 . S
C342 H336 0.949 . S
C342 C346 1.368 . S
C343 C324 1.429 . S
C343 C337 1.429 . S
C343 C344 1.523 . S
C344 C325 1.368 . S
C344 C338 1.368 . S
C344 C343 1.523 . S
C345 C329 1.429 . S
C345 C341 1.429 . S
C345 C346 1.523 . S
C346 C330 1.368 . S
C346 C342 1.368 . S
C346 C345 1.523 . S
H347 C322 0.950 . S
H348 C324 0.950 . S
H349 C325 0.949 . S
H350 C327 0.950 . S
H351 C329 0.950 . S
C352 C353 1.349 . S
C352 C354 1.327 . S
C352 H377 0.950 . S
C353 C352 1.349 . S
C353 C369 1.349 . S
C354 C352 1.327 . S
C354 C373 1.429 . S
C354 H378 0.950 . S
C355 C372 1.574 . S
C355 C374 1.368 . S
C355 H379 0.949 . S
H356 C360 0.949 . S
C357 C358 1.349 . S
C357 C359 1.327 . S
C357 H380 0.950 . S
C358 C357 1.349 . S
C358 C370 1.349 . S
C359 C357 1.327 . S
C359 C375 1.429 . S
C359 H381 0.950 . S
C360 H356 0.949 . S
C360 C368 1.574 . S
C360 C376 1.368 . S
H361 C369 0.950 . S
H362 C367 0.950 . S
H363 C368 0.949 . S
H364 C370 0.950 . S
H365 C371 0.950 . S
H366 C372 0.949 . S
C367 H362 0.950 . S
C367 C369 1.327 . S
C367 C373 1.429 . S
C368 C360 1.574 . S
C368 H363 0.949 . S
C368 C374 1.368 . S
C369 C353 1.349 . S
C369 H361 0.950 . S
C369 C367 1.327 . S
C370 C358 1.349 . S
C370 H364 0.950 . S
C370 C371 1.327 . S
C371 H365 0.950 . S
C371 C370 1.327 . S
C371 C375 1.429 . S
C372 C355 1.574 . S
C372 H366 0.949 . S
C372 C376 1.368 . S
C373 C354 1.429 . S
C373 C367 1.429 . S
C373 C374 1.523 . S
C374 C355 1.368 . S
C374 C368 1.368 . S
C374 C373 1.523 . S
C375 C359 1.429 . S
C375 C371 1.429 . S
C375 C376 1.523 . S
C376 C360 1.368 . S
C376 C372 1.368 . S
C376 C375 1.523 . S
H377 C352 0.950 . S
H378 C354 0.950 . S
H379 C355 0.949 . S
H380 C357 0.950 . S
H381 C359 0.950 . S
C382 C383 1.349 . S
C382 C384 1.327 . S
C382 H407 0.950 . S
C383 C382 1.349 . S
C383 C399 1.349 . S
C384 C382 1.327 . S
C384 C403 1.429 . S
C384 H408 0.950 . S
C385 C402 1.574 1_556 S
C385 C404 1.368 . S
C385 H409 0.949 . S
H386 C390 0.949 . S
C387 C388 1.349 . S
C387 C389 1.327 . S
C387 H410 0.950 . S
C388 C387 1.349 . S
C388 C400 1.349 . S
C389 C387 1.327 . S
C389 C405 1.429 . S
C389 H411 0.950 . S
C390 H386 0.949 . S
C390 C398 1.574 1_554 S
C390 C406 1.368 . S
H391 C399 0.950 . S
H392 C397 0.950 . S
H393 C398 0.949 . S
H394 C400 0.950 . S
H395 C401 0.950 . S
H396 C402 0.949 . S
C397 H392 0.950 . S
C397 C399 1.327 . S
C397 C403 1.429 . S
C398 C390 1.574 1_556 S
C398 H393 0.949 . S
C398 C404 1.368 . S
C399 C383 1.349 . S
C399 H391 0.950 . S
C399 C397 1.327 . S
C400 C388 1.349 . S
C400 H394 0.950 . S
C400 C401 1.327 . S
C401 H395 0.950 . S
C401 C400 1.327 . S
C401 C405 1.429 . S
C402 C385 1.574 1_554 S
C402 H396 0.949 . S
C402 C406 1.368 . S
C403 C384 1.429 . S
C403 C397 1.429 . S
C403 C404 1.523 . S
C404 C385 1.368 . S
C404 C398 1.368 . S
C404 C403 1.523 . S
C405 C389 1.429 . S
C405 C401 1.429 . S
C405 C406 1.523 . S
C406 C390 1.368 . S
C406 C402 1.368 . S
C406 C405 1.523 . S
H407 C382 0.950 . S
H408 C384 0.950 . S
H409 C385 0.949 . S
H410 C387 0.950 . S
H411 C389 0.950 . S
C412 C413 1.349 . S
C412 C414 1.327 . S
C412 H437 0.950 . S
C413 C412 1.349 . S
C413 C429 1.349 . S
C414 C412 1.327 . S
C414 C433 1.429 . S
C414 H438 0.950 . S
C415 C432 1.574 . S
C415 C434 1.368 1_545 S
C415 H439 0.949 . S
H416 C420 0.949 . S
C417 C418 1.349 . S
C417 C419 1.327 . S
C417 H440 0.950 . S
C418 C417 1.349 . S
C418 C430 1.349 . S
C419 C417 1.327 . S
C419 C435 1.429 . S
C419 H441 0.950 . S
C420 H416 0.949 . S
C420 C428 1.574 . S
C420 C436 1.368 1_565 S
H421 C429 0.950 . S
H422 C427 0.950 . S
H423 C428 0.949 . S
H424 C430 0.950 . S
H425 C431 0.950 . S
H426 C432 0.949 . S
C427 H422 0.950 . S
C427 C429 1.327 . S
C427 C433 1.429 . S
C428 C420 1.574 . S
C428 H423 0.949 . S
C428 C434 1.368 . S
C429 C413 1.349 . S
C429 H421 0.950 . S
C429 C427 1.327 . S
C430 C418 1.349 . S
C430 H424 0.950 . S
C430 C431 1.327 . S
C431 H425 0.950 . S
C431 C430 1.327 . S
C431 C435 1.429 . S
C432 C415 1.574 . S
C432 H426 0.949 . S
C432 C436 1.368 . S
C433 C414 1.429 . S
C433 C427 1.429 . S
C433 C434 1.523 . S
C434 C415 1.368 1_565 S
C434 C428 1.368 . S
C434 C433 1.523 . S
C435 C419 1.429 . S
C435 C431 1.429 . S
C435 C436 1.523 . S
C436 C420 1.368 1_545 S
C436 C432 1.368 . S
C436 C435 1.523 . S
H437 C412 0.950 . S
H438 C414 0.950 . S
H439 C415 0.949 . S
H440 C417 0.950 . S
H441 C419 0.950 . S
C442 C443 1.349 . S
C442 C444 1.327 . S
C442 H467 0.950 . S
C443 C442 1.349 . S
C443 C459 1.349 . S
C444 C442 1.327 . S
C444 C463 1.429 . S
C444 H468 0.950 . S
C445 C462 1.587 . S
C445 C464 1.368 1_545 S
C445 H469 0.949 . S
H446 C450 0.949 . S
C447 C448 1.349 . S
C447 C449 1.327 . S
C447 H470 0.950 . S
C448 C447 1.349 . S
C448 C460 1.349 . S
C449 C447 1.327 . S
C449 C465 1.429 . S
C449 H471 0.950 . S
C450 H446 0.949 . S
C450 C458 1.588 . S
C450 C466 1.368 1_565 S
H451 C459 0.950 . S
H452 C457 0.950 . S
H453 C458 0.949 . S
H454 C460 0.950 . S
H455 C461 0.950 . S
H456 C462 0.949 . S
C457 H452 0.950 . S
C457 C459 1.327 . S
C457 C463 1.429 . S
C458 C450 1.588 . S
C458 H453 0.949 . S
C458 C464 1.352 1_455 S
C459 C443 1.349 . S
C459 H451 0.950 . S
C459 C457 1.327 . S
C460 C448 1.349 . S
C460 H454 0.950 . S
C460 C461 1.327 . S
C461 H455 0.950 . S
C461 C460 1.327 . S
C461 C465 1.429 . S
C462 C445 1.587 . S
C462 H456 0.949 . S
C462 C466 1.352 1_655 S
C463 C444 1.429 . S
C463 C457 1.429 . S
C463 C464 1.523 . S
C464 C445 1.368 1_565 S
C464 C458 1.352 1_655 S
C464 C463 1.523 . S
C465 C449 1.429 . S
C465 C461 1.429 . S
C465 C466 1.523 . S
C466 C450 1.368 1_545 S
C466 C462 1.352 1_455 S
C466 C465 1.523 . S
H467 C442 0.950 . S
H468 C444 0.950 . S
H469 C445 0.949 . S
H470 C447 0.950 . S
H471 C449 0.950 . S
C472 C473 1.349 . S
C472 C474 1.327 . S
C472 H497 0.950 . S
C473 C472 1.349 . S
C473 C489 1.349 . S
C474 C472 1.327 . S
C474 C493 1.429 . S
C474 H498 0.950 . S
C475 C492 1.574 . S
C475 C494 1.368 . S
C475 H499 0.949 . S
H476 C480 0.949 . S
C477 C478 1.349 . S
C477 C479 1.327 . S
C477 H500 0.950 . S
C478 C477 1.349 . S
C478 C490 1.349 . S
C479 C477 1.327 . S
C479 C495 1.429 . S
C479 H501 0.950 . S
C480 H476 0.949 . S
C480 C488 1.574 . S
C480 C496 1.368 . S
H481 C489 0.950 . S
H482 C487 0.950 . S
H483 C488 0.949 . S
H484 C490 0.950 . S
H485 C491 0.950 . S
H486 C492 0.949 . S
C487 H482 0.950 . S
C487 C489 1.327 . S
C487 C493 1.429 . S
C488 C480 1.574 . S
C488 H483 0.949 . S
C488 C494 1.368 1_455 S
C489 C473 1.349 . S
C489 H481 0.950 . S
C489 C487 1.327 . S
C490 C478 1.349 . S
C490 H484 0.950 . S
C490 C491 1.327 . S
C491 H485 0.950 . S
C491 C490 1.327 . S
C491 C495 1.429 . S
C492 C475 1.574 . S
C492 H486 0.949 . S
C492 C496 1.368 1_655 S
C493 C474 1.429 . S
C493 C487 1.429 . S
C493 C494 1.523 . S
C494 C475 1.368 . S
C494 C488 1.368 1_655 S
C494 C493 1.523 . S
C495 C479 1.429 . S
C495 C491 1.429 . S
C495 C496 1.523 . S
C496 C480 1.368 . S
C496 C492 1.368 1_455 S
C496 C495 1.523 . S
H497 C472 0.950 . S
H498 C474 0.950 . S
H499 C475 0.949 . S
H500 C477 0.950 . S
H501 C479 0.950 . S
C502 C503 1.349 . S
C502 C504 1.327 . S
C502 H527 0.950 . S
C503 C502 1.349 . S
C503 C519 1.349 . S
C504 C502 1.327 . S
C504 C523 1.429 . S
C504 H528 0.950 . S
C505 C522 1.574 . S
C505 C524 1.368 . S
C505 H529 0.949 . S
H506 C510 0.949 . S
C507 C508 1.349 . S
C507 C509 1.327 . S
C507 H530 0.950 . S
C508 C507 1.349 . S
C508 C520 1.349 . S
C509 C507 1.327 . S
C509 C525 1.429 . S
C509 H531 0.950 . S
C510 H506 0.949 . S
C510 C518 1.574 . S
C510 C526 1.368 . S
H511 C519 0.950 . S
H512 C517 0.950 . S
H513 C518 0.949 . S
H514 C520 0.950 . S
H515 C521 0.950 . S
H516 C522 0.949 . S
C517 H512 0.950 . S
C517 C519 1.327 . S
C517 C523 1.429 . S
C518 C510 1.574 . S
C518 H513 0.949 . S
C518 C524 1.368 . S
C519 C503 1.349 . S
C519 H511 0.950 . S
C519 C517 1.327 . S
C520 C508 1.349 . S
C520 H514 0.950 . S
C520 C521 1.327 . S
C521 H515 0.950 . S
C521 C520 1.327 . S
C521 C525 1.429 . S
C522 C505 1.574 . S
C522 H516 0.949 . S
C522 C526 1.368 . S
C523 C504 1.429 . S
C523 C517 1.429 . S
C523 C524 1.523 . S
C524 C505 1.368 . S
C524 C518 1.368 . S
C524 C523 1.523 . S
C525 C509 1.429 . S
C525 C521 1.429 . S
C525 C526 1.523 . S
C526 C510 1.368 . S
C526 C522 1.368 . S
C526 C525 1.523 . S
H527 C502 0.950 . S
H528 C504 0.950 . S
H529 C505 0.949 . S
H530 C507 0.950 . S
H531 C509 0.950 . S
C532 C533 1.349 . S
C532 C534 1.327 . S
C532 H557 0.950 . S
C533 C532 1.349 . S
C533 C549 1.349 . S
C534 C532 1.327 . S
C534 C553 1.429 . S
C534 H558 0.950 . S
C535 C552 1.574 . S
C535 C554 1.368 1_556 S
C535 H559 0.949 . S
H536 C540 0.949 . S
C537 C538 1.349 . S
C537 C539 1.327 . S
C537 H560 0.950 . S
C538 C537 1.349 . S
C538 C550 1.349 . S
C539 C537 1.327 . S
C539 C555 1.429 . S
C539 H561 0.950 . S
C540 H536 0.949 . S
C540 C548 1.574 . S
C540 C556 1.368 1_554 S
H541 C549 0.950 . S
H542 C547 0.950 . S
H543 C548 0.949 . S
H544 C550 0.950 . S
H545 C551 0.950 . S
H546 C552 0.949 . S
C547 H542 0.950 . S
C547 C549 1.327 . S
C547 C553 1.429 . S
C548 C540 1.574 . S
C548 H543 0.949 . S
C548 C554 1.368 . S
C549 C533 1.349 . S
C549 H541 0.950 . S
C549 C547 1.327 . S
C550 C538 1.349 . S
C550 H544 0.950 . S
C550 C551 1.327 . S
C551 H545 0.950 . S
C551 C550 1.327 . S
C551 C555 1.429 . S
C552 C535 1.574 . S
C552 H546 0.949 . S
C552 C556 1.368 . S
C553 C534 1.429 . S
C553 C547 1.429 . S
C553 C554 1.523 . S
C554 C535 1.368 1_554 S
C554 C548 1.368 . S
C554 C553 1.523 . S
C555 C539 1.429 . S
C555 C551 1.429 . S
C555 C556 1.523 . S
C556 C540 1.368 1_556 S
C556 C552 1.368 . S
C556 C555 1.523 . S
H557 C532 0.950 . S
H558 C534 0.950 . S
H559 C535 0.949 . S
H560 C537 0.950 . S
H561 C539 0.950 . S
C562 C563 1.349 . S
C562 C564 1.327 . S
C562 H587 0.950 . S
C563 C562 1.349 . S
C563 C579 1.349 . S
C564 C562 1.327 . S
C564 C583 1.429 . S
C564 H588 0.950 . S
C565 C582 1.574 . S
C565 C584 1.368 . S
C565 H589 0.949 . S
H566 C570 0.949 . S
C567 C568 1.349 . S
C567 C569 1.327 . S
C567 H590 0.950 . S
C568 C567 1.349 . S
C568 C580 1.349 . S
C569 C567 1.327 . S
C569 C585 1.429 . S
C569 H591 0.950 . S
C570 H566 0.949 . S
C570 C578 1.574 . S
C570 C586 1.368 . S
H571 C579 0.950 . S
H572 C577 0.950 . S
H573 C578 0.949 . S
H574 C580 0.950 . S
H575 C581 0.950 . S
H576 C582 0.949 . S
C577 H572 0.950 . S
C577 C579 1.327 . S
C577 C583 1.429 . S
C578 C570 1.574 . S
C578 H573 0.949 . S
C578 C584 1.368 . S
C579 C563 1.349 . S
C579 H571 0.950 . S
C579 C577 1.327 . S
C580 C568 1.349 . S
C580 H574 0.950 . S
C580 C581 1.327 . S
C581 H575 0.950 . S
C581 C580 1.327 . S
C581 C585 1.429 . S
C582 C565 1.574 . S
C582 H576 0.949 . S
C582 C586 1.368 . S
C583 C564 1.429 . S
C583 C577 1.429 . S
C583 C584 1.523 . S
C584 C565 1.368 . S
C584 C578 1.368 . S
C584 C583 1.523 . S
C585 C569 1.429 . S
C585 C581 1.429 . S
C585 C586 1.523 . S
C586 C570 1.368 . S
C586 C582 1.368 . S
C586 C585 1.523 . S
H587 C562 0.950 . S
H588 C564 0.950 . S
H589 C565 0.949 . S
H590 C567 0.950 . S
H591 C569 0.950 . S
C113 C77 1.493 . S
C118 C13 1.399 . S
C143 C105 1.493 . S
C148 C27 1.399 . S
C173 C36 1.462 . S
C178 C92 1.462 . S
C203 C53 1.494 . S
C208 C67 1.494 . S
C233 C97 1.399 . S
C238 C7 1.493 . S
C263 C22 1.462 . S
C268 C64 1.462 . S
C293 C81 1.494 . S
C298 C39 1.494 . S
C323 C49 1.493 . S
C328 C111 1.399 . S
C353 C63 1.493 . S
C358 C83 1.399 . S
C383 C21 1.493 . S
C388 C41 1.399 . S
C413 C55 1.399 . S
C418 C35 1.493 . S
C443 C50 1.462 . S
C448 C8 1.462 . S
C473 C25 1.494 . S
C478 C11 1.494 . S
C503 C109 1.494 . S
C508 C95 1.494 . S
C533 C69 1.399 . S
C538 C91 1.493 . S
C563 C78 1.462 . S
C568 C106 1.462 . S
