# Generated by pormake.
# Topology srs-f, (5)-cn, num edge types: 1
# Building blocks:
#     Node 0, Type 0, BuildingBlock: XOMCOT_clean_sbu_1, # of connection points: 5
#     Node 1, Type 0, BuildingBlock: XOMCOT_clean_sbu_1, # of connection points: 5
#     Node 2, Type 0, BuildingBlock: XOMCOT_clean_sbu_1, # of connection points: 5
#     Node 3, Type 0, BuildingBlock: XOMCOT_clean_sbu_1, # of connection points: 5
#     Node 4, Type 0, BuildingBlock: XOMCOT_clean_sbu_1, # of connection points: 5
#     Node 5, Type 0, BuildingBlock: XOMCOT_clean_sbu_1, # of connection points: 5
#     Node 6, Type 0, BuildingBlock: XOMCOT_clean_sbu_1, # of connection points: 5
#     Node 7, Type 0, BuildingBlock: XOMCOT_clean_sbu_1, # of connection points: 5
#     Node 8, Type 0, BuildingBlock: XOMCOT_clean_sbu_1, # of connection points: 5
#     Node 9, Type 0, BuildingBlock: XOMCOT_clean_sbu_1, # of connection points: 5
#     Node 10, Type 0, BuildingBlock: XOMCOT_clean_sbu_1, # of connection points: 5
#     Node 11, Type 0, BuildingBlock: XOMCOT_clean_sbu_1, # of connection points: 5
#     Node 12, Type 0, BuildingBlock: XOMCOT_clean_sbu_1, # of connection points: 5
#     Node 13, Type 0, BuildingBlock: XOMCOT_clean_sbu_1, # of connection points: 5
#     Node 14, Type 0, BuildingBlock: XOMCOT_clean_sbu_1, # of connection points: 5
#     Node 15, Type 0, BuildingBlock: XOMCOT_clean_sbu_1, # of connection points: 5
#     Node 16, Type 0, BuildingBlock: XOMCOT_clean_sbu_1, # of connection points: 5
#     Node 17, Type 0, BuildingBlock: XOMCOT_clean_sbu_1, # of connection points: 5
#     Node 18, Type 0, BuildingBlock: XOMCOT_clean_sbu_1, # of connection points: 5
#     Node 19, Type 0, BuildingBlock: XOMCOT_clean_sbu_1, # of connection points: 5
#     Node 20, Type 0, BuildingBlock: XOMCOT_clean_sbu_1, # of connection points: 5
#     Node 21, Type 0, BuildingBlock: XOMCOT_clean_sbu_1, # of connection points: 5
#     Node 22, Type 0, BuildingBlock: XOMCOT_clean_sbu_1, # of connection points: 5
#     Node 23, Type 0, BuildingBlock: XOMCOT_clean_sbu_1, # of connection points: 5
#     Node 24, Type 0, BuildingBlock: XOMCOT_clean_sbu_1, # of connection points: 5
#     Node 25, Type 0, BuildingBlock: XOMCOT_clean_sbu_1, # of connection points: 5
#     Node 26, Type 0, BuildingBlock: XOMCOT_clean_sbu_1, # of connection points: 5
#     Node 27, Type 0, BuildingBlock: XOMCOT_clean_sbu_1, # of connection points: 5
#     Node 28, Type 0, BuildingBlock: XOMCOT_clean_sbu_1, # of connection points: 5
#     Node 29, Type 0, BuildingBlock: XOMCOT_clean_sbu_1, # of connection points: 5
#     Node 30, Type 0, BuildingBlock: XOMCOT_clean_sbu_1, # of connection points: 5
#     Node 31, Type 0, BuildingBlock: XOMCOT_clean_sbu_1, # of connection points: 5
#     Node 32, Type 0, BuildingBlock: XOMCOT_clean_sbu_1, # of connection points: 5
#     Node 33, Type 0, BuildingBlock: XOMCOT_clean_sbu_1, # of connection points: 5
#     Node 34, Type 0, BuildingBlock: XOMCOT_clean_sbu_1, # of connection points: 5
#     Node 35, Type 0, BuildingBlock: XOMCOT_clean_sbu_1, # of connection points: 5
#     Node 36, Type 0, BuildingBlock: XOMCOT_clean_sbu_1, # of connection points: 5
#     Node 37, Type 0, BuildingBlock: XOMCOT_clean_sbu_1, # of connection points: 5
#     Node 38, Type 0, BuildingBlock: XOMCOT_clean_sbu_1, # of connection points: 5
#     Node 39, Type 0, BuildingBlock: XOMCOT_clean_sbu_1, # of connection points: 5
#     Node 40, Type 0, BuildingBlock: XOMCOT_clean_sbu_1, # of connection points: 5
#     Node 41, Type 0, BuildingBlock: XOMCOT_clean_sbu_1, # of connection points: 5
#     Node 42, Type 0, BuildingBlock: XOMCOT_clean_sbu_1, # of connection points: 5
#     Node 43, Type 0, BuildingBlock: XOMCOT_clean_sbu_1, # of connection points: 5
#     Node 44, Type 0, BuildingBlock: XOMCOT_clean_sbu_1, # of connection points: 5
#     Node 45, Type 0, BuildingBlock: XOMCOT_clean_sbu_1, # of connection points: 5
#     Node 46, Type 0, BuildingBlock: XOMCOT_clean_sbu_1, # of connection points: 5
#     Node 47, Type 0, BuildingBlock: XOMCOT_clean_sbu_1, # of connection points: 5
#     Edge 48, Type (0, 0), BuildingBlock: KIFKEQ_clean_linker_1, # of connection points: 2
#     Edge 49, Type (0, 0), BuildingBlock: KIFKEQ_clean_linker_1, # of connection points: 2
#     Edge 50, Type (0, 0), BuildingBlock: KIFKEQ_clean_linker_1, # of connection points: 2
#     Edge 51, Type (0, 0), BuildingBlock: KIFKEQ_clean_linker_1, # of connection points: 2
#     Edge 52, Type (0, 0), BuildingBlock: KIFKEQ_clean_linker_1, # of connection points: 2
#     Edge 53, Type (0, 0), BuildingBlock: KIFKEQ_clean_linker_1, # of connection points: 2
#     Edge 54, Type (0, 0), BuildingBlock: KIFKEQ_clean_linker_1, # of connection points: 2
#     Edge 55, Type (0, 0), BuildingBlock: KIFKEQ_clean_linker_1, # of connection points: 2
#     Edge 56, Type (0, 0), BuildingBlock: KIFKEQ_clean_linker_1, # of connection points: 2
#     Edge 57, Type (0, 0), BuildingBlock: KIFKEQ_clean_linker_1, # of connection points: 2
#     Edge 58, Type (0, 0), BuildingBlock: KIFKEQ_clean_linker_1, # of connection points: 2
#     Edge 59, Type (0, 0), BuildingBlock: KIFKEQ_clean_linker_1, # of connection points: 2
#     Edge 60, Type (0, 0), BuildingBlock: KIFKEQ_clean_linker_1, # of connection points: 2
#     Edge 61, Type (0, 0), BuildingBlock: KIFKEQ_clean_linker_1, # of connection points: 2
#     Edge 62, Type (0, 0), BuildingBlock: KIFKEQ_clean_linker_1, # of connection points: 2
#     Edge 63, Type (0, 0), BuildingBlock: KIFKEQ_clean_linker_1, # of connection points: 2
#     Edge 64, Type (0, 0), BuildingBlock: KIFKEQ_clean_linker_1, # of connection points: 2
#     Edge 65, Type (0, 0), BuildingBlock: KIFKEQ_clean_linker_1, # of connection points: 2
#     Edge 66, Type (0, 0), BuildingBlock: KIFKEQ_clean_linker_1, # of connection points: 2
#     Edge 67, Type (0, 0), BuildingBlock: KIFKEQ_clean_linker_1, # of connection points: 2
#     Edge 68, Type (0, 0), BuildingBlock: KIFKEQ_clean_linker_1, # of connection points: 2
#     Edge 69, Type (0, 0), BuildingBlock: KIFKEQ_clean_linker_1, # of connection points: 2
#     Edge 70, Type (0, 0), BuildingBlock: KIFKEQ_clean_linker_1, # of connection points: 2
#     Edge 71, Type (0, 0), BuildingBlock: KIFKEQ_clean_linker_1, # of connection points: 2
#     Edge 72, Type (0, 0), BuildingBlock: KIFKEQ_clean_linker_1, # of connection points: 2
#     Edge 73, Type (0, 0), BuildingBlock: KIFKEQ_clean_linker_1, # of connection points: 2
#     Edge 74, Type (0, 0), BuildingBlock: KIFKEQ_clean_linker_1, # of connection points: 2
#     Edge 75, Type (0, 0), BuildingBlock: KIFKEQ_clean_linker_1, # of connection points: 2
#     Edge 76, Type (0, 0), BuildingBlock: KIFKEQ_clean_linker_1, # of connection points: 2
#     Edge 77, Type (0, 0), BuildingBlock: KIFKEQ_clean_linker_1, # of connection points: 2
#     Edge 78, Type (0, 0), BuildingBlock: KIFKEQ_clean_linker_1, # of connection points: 2
#     Edge 79, Type (0, 0), BuildingBlock: KIFKEQ_clean_linker_1, # of connection points: 2
#     Edge 80, Type (0, 0), BuildingBlock: KIFKEQ_clean_linker_1, # of connection points: 2
#     Edge 81, Type (0, 0), BuildingBlock: KIFKEQ_clean_linker_1, # of connection points: 2
#     Edge 82, Type (0, 0), BuildingBlock: KIFKEQ_clean_linker_1, # of connection points: 2
#     Edge 83, Type (0, 0), BuildingBlock: KIFKEQ_clean_linker_1, # of connection points: 2
#     Edge 84, Type (0, 0), BuildingBlock: KIFKEQ_clean_linker_1, # of connection points: 2
#     Edge 85, Type (0, 0), BuildingBlock: KIFKEQ_clean_linker_1, # of connection points: 2
#     Edge 86, Type (0, 0), BuildingBlock: KIFKEQ_clean_linker_1, # of connection points: 2
#     Edge 87, Type (0, 0), BuildingBlock: KIFKEQ_clean_linker_1, # of connection points: 2
#     Edge 88, Type (0, 0), BuildingBlock: KIFKEQ_clean_linker_1, # of connection points: 2
#     Edge 89, Type (0, 0), BuildingBlock: KIFKEQ_clean_linker_1, # of connection points: 2
#     Edge 90, Type (0, 0), BuildingBlock: KIFKEQ_clean_linker_1, # of connection points: 2
#     Edge 91, Type (0, 0), BuildingBlock: KIFKEQ_clean_linker_1, # of connection points: 2
#     Edge 92, Type (0, 0), BuildingBlock: KIFKEQ_clean_linker_1, # of connection points: 2
#     Edge 93, Type (0, 0), BuildingBlock: KIFKEQ_clean_linker_1, # of connection points: 2
#     Edge 94, Type (0, 0), BuildingBlock: KIFKEQ_clean_linker_1, # of connection points: 2
#     Edge 95, Type (0, 0), BuildingBlock: KIFKEQ_clean_linker_1, # of connection points: 2
#     Edge 96, Type (0, 0), BuildingBlock: KIFKEQ_clean_linker_1, # of connection points: 2
#     Edge 97, Type (0, 0), BuildingBlock: KIFKEQ_clean_linker_1, # of connection points: 2
#     Edge 98, Type (0, 0), BuildingBlock: KIFKEQ_clean_linker_1, # of connection points: 2
#     Edge 99, Type (0, 0), BuildingBlock: KIFKEQ_clean_linker_1, # of connection points: 2
#     Edge 100, Type (0, 0), BuildingBlock: KIFKEQ_clean_linker_1, # of connection points: 2
#     Edge 101, Type (0, 0), BuildingBlock: KIFKEQ_clean_linker_1, # of connection points: 2
#     Edge 102, Type (0, 0), BuildingBlock: KIFKEQ_clean_linker_1, # of connection points: 2
#     Edge 103, Type (0, 0), BuildingBlock: KIFKEQ_clean_linker_1, # of connection points: 2
#     Edge 104, Type (0, 0), BuildingBlock: KIFKEQ_clean_linker_1, # of connection points: 2
#     Edge 105, Type (0, 0), BuildingBlock: KIFKEQ_clean_linker_1, # of connection points: 2
#     Edge 106, Type (0, 0), BuildingBlock: KIFKEQ_clean_linker_1, # of connection points: 2
#     Edge 107, Type (0, 0), BuildingBlock: KIFKEQ_clean_linker_1, # of connection points: 2
#     Edge 108, Type (0, 0), BuildingBlock: KIFKEQ_clean_linker_1, # of connection points: 2
#     Edge 109, Type (0, 0), BuildingBlock: KIFKEQ_clean_linker_1, # of connection points: 2
#     Edge 110, Type (0, 0), BuildingBlock: KIFKEQ_clean_linker_1, # of connection points: 2
#     Edge 111, Type (0, 0), BuildingBlock: KIFKEQ_clean_linker_1, # of connection points: 2
#     Edge 112, Type (0, 0), BuildingBlock: KIFKEQ_clean_linker_1, # of connection points: 2
#     Edge 113, Type (0, 0), BuildingBlock: KIFKEQ_clean_linker_1, # of connection points: 2
#     Edge 114, Type (0, 0), BuildingBlock: KIFKEQ_clean_linker_1, # of connection points: 2
#     Edge 115, Type (0, 0), BuildingBlock: KIFKEQ_clean_linker_1, # of connection points: 2
#     Edge 116, Type (0, 0), BuildingBlock: KIFKEQ_clean_linker_1, # of connection points: 2
#     Edge 117, Type (0, 0), BuildingBlock: KIFKEQ_clean_linker_1, # of connection points: 2
#     Edge 118, Type (0, 0), BuildingBlock: KIFKEQ_clean_linker_1, # of connection points: 2
#     Edge 119, Type (0, 0), BuildingBlock: KIFKEQ_clean_linker_1, # of connection points: 2
#     Edge 120, Type (0, 0), BuildingBlock: KIFKEQ_clean_linker_1, # of connection points: 2
#     Edge 121, Type (0, 0), BuildingBlock: KIFKEQ_clean_linker_1, # of connection points: 2
#     Edge 122, Type (0, 0), BuildingBlock: KIFKEQ_clean_linker_1, # of connection points: 2
#     Edge 123, Type (0, 0), BuildingBlock: KIFKEQ_clean_linker_1, # of connection points: 2
#     Edge 124, Type (0, 0), BuildingBlock: KIFKEQ_clean_linker_1, # of connection points: 2
#     Edge 125, Type (0, 0), BuildingBlock: KIFKEQ_clean_linker_1, # of connection points: 2
#     Edge 126, Type (0, 0), BuildingBlock: KIFKEQ_clean_linker_1, # of connection points: 2
#     Edge 127, Type (0, 0), BuildingBlock: KIFKEQ_clean_linker_1, # of connection points: 2
#     Edge 128, Type (0, 0), BuildingBlock: KIFKEQ_clean_linker_1, # of connection points: 2
#     Edge 129, Type (0, 0), BuildingBlock: KIFKEQ_clean_linker_1, # of connection points: 2
#     Edge 130, Type (0, 0), BuildingBlock: KIFKEQ_clean_linker_1, # of connection points: 2
#     Edge 131, Type (0, 0), BuildingBlock: KIFKEQ_clean_linker_1, # of connection points: 2
#     Edge 132, Type (0, 0), BuildingBlock: KIFKEQ_clean_linker_1, # of connection points: 2
#     Edge 133, Type (0, 0), BuildingBlock: KIFKEQ_clean_linker_1, # of connection points: 2
#     Edge 134, Type (0, 0), BuildingBlock: KIFKEQ_clean_linker_1, # of connection points: 2
#     Edge 135, Type (0, 0), BuildingBlock: KIFKEQ_clean_linker_1, # of connection points: 2
#     Edge 136, Type (0, 0), BuildingBlock: KIFKEQ_clean_linker_1, # of connection points: 2
#     Edge 137, Type (0, 0), BuildingBlock: KIFKEQ_clean_linker_1, # of connection points: 2
#     Edge 138, Type (0, 0), BuildingBlock: KIFKEQ_clean_linker_1, # of connection points: 2
#     Edge 139, Type (0, 0), BuildingBlock: KIFKEQ_clean_linker_1, # of connection points: 2
#     Edge 140, Type (0, 0), BuildingBlock: KIFKEQ_clean_linker_1, # of connection points: 2
#     Edge 141, Type (0, 0), BuildingBlock: KIFKEQ_clean_linker_1, # of connection points: 2
#     Edge 142, Type (0, 0), BuildingBlock: KIFKEQ_clean_linker_1, # of connection points: 2
#     Edge 143, Type (0, 0), BuildingBlock: KIFKEQ_clean_linker_1, # of connection points: 2
#     Edge 144, Type (0, 0), BuildingBlock: KIFKEQ_clean_linker_1, # of connection points: 2
#     Edge 145, Type (0, 0), BuildingBlock: KIFKEQ_clean_linker_1, # of connection points: 2
#     Edge 146, Type (0, 0), BuildingBlock: KIFKEQ_clean_linker_1, # of connection points: 2
#     Edge 147, Type (0, 0), BuildingBlock: KIFKEQ_clean_linker_1, # of connection points: 2
#     Edge 148, Type (0, 0), BuildingBlock: KIFKEQ_clean_linker_1, # of connection points: 2
#     Edge 149, Type (0, 0), BuildingBlock: KIFKEQ_clean_linker_1, # of connection points: 2
#     Edge 150, Type (0, 0), BuildingBlock: KIFKEQ_clean_linker_1, # of connection points: 2
#     Edge 151, Type (0, 0), BuildingBlock: KIFKEQ_clean_linker_1, # of connection points: 2
#     Edge 152, Type (0, 0), BuildingBlock: KIFKEQ_clean_linker_1, # of connection points: 2
#     Edge 153, Type (0, 0), BuildingBlock: KIFKEQ_clean_linker_1, # of connection points: 2
#     Edge 154, Type (0, 0), BuildingBlock: KIFKEQ_clean_linker_1, # of connection points: 2
#     Edge 155, Type (0, 0), BuildingBlock: KIFKEQ_clean_linker_1, # of connection points: 2
#     Edge 156, Type (0, 0), BuildingBlock: KIFKEQ_clean_linker_1, # of connection points: 2
#     Edge 157, Type (0, 0), BuildingBlock: KIFKEQ_clean_linker_1, # of connection points: 2
#     Edge 158, Type (0, 0), BuildingBlock: KIFKEQ_clean_linker_1, # of connection points: 2
#     Edge 159, Type (0, 0), BuildingBlock: KIFKEQ_clean_linker_1, # of connection points: 2
#     Edge 160, Type (0, 0), BuildingBlock: KIFKEQ_clean_linker_1, # of connection points: 2
#     Edge 161, Type (0, 0), BuildingBlock: KIFKEQ_clean_linker_1, # of connection points: 2
#     Edge 162, Type (0, 0), BuildingBlock: KIFKEQ_clean_linker_1, # of connection points: 2
#     Edge 163, Type (0, 0), BuildingBlock: KIFKEQ_clean_linker_1, # of connection points: 2
#     Edge 164, Type (0, 0), BuildingBlock: KIFKEQ_clean_linker_1, # of connection points: 2
#     Edge 165, Type (0, 0), BuildingBlock: KIFKEQ_clean_linker_1, # of connection points: 2
#     Edge 166, Type (0, 0), BuildingBlock: KIFKEQ_clean_linker_1, # of connection points: 2
#     Edge 167, Type (0, 0), BuildingBlock: KIFKEQ_clean_linker_1, # of connection points: 2
# Relax obj value: 0.903
# Max RMSD: 0.239
# Mean RMSD: 0.238
data_MOF--net-srs-f--node1-XOMCOT_clean_sbu_1--edge1-KIFKEQ_clean_linker_1
_symmetry_space_group_name_H-M    P1
_symmetry_Int_Tables_number       1
_symmetry_cell_setting            triclinic
loop_
_symmetry_equiv_pos_as_xyz
'x, y, z'
_cell_length_a     89.461769
_cell_length_b     89.485464
_cell_length_c     89.487252
_cell_angle_alpha  89.986546
_cell_angle_beta   90.004513
_cell_angle_gamma 89.992161
loop_
_atom_site_label
_atom_site_type_symbol
_atom_site_fract_x
_atom_site_fract_y
_atom_site_fract_z
_atom_type_partial_charge
C0 C 0.08445 0.42448 0.21354 0.0
C1 C 0.07902 0.41017 0.2116 0.0
N2 N 0.06595 0.41101 0.2041 0.0
N3 N 0.07487 0.43426 0.20724 0.0
C4 C 0.06378 0.42573 0.20163 0.0
H5 H 0.09449 0.42757 0.21952 0.0
Co6 Co 0.07477 0.45511 0.20757 0.0
C7 C 0.06951 0.46345 0.17617 0.0
O8 O 0.08047 0.47321 0.17679 0.0
N9 N 0.07391 0.47626 0.20778 0.0
C10 C 0.07682 0.50103 0.20811 0.0
C11 C 0.08382 0.48744 0.21017 0.0
C12 C 0.06106 0.48345 0.20442 0.0
N13 N 0.06247 0.49844 0.2044 0.0
O14 O 0.05525 0.45441 0.21595 0.0
H15 H 0.09547 0.48611 0.21293 0.0
H16 H 0.05079 0.47765 0.20184 0.0
O17 O 0.06648 0.45533 0.18751 0.0
C18 C 0.05657 0.45217 0.22991 0.0
O19 O 0.07009 0.4514 0.23562 0.0
N20 N 0.09452 0.4551 0.20096 0.0
C21 C 0.12468 0.44772 0.19896 0.0
C22 C 0.11494 0.44477 0.187 0.0
C23 C 0.09977 0.44834 0.18832 0.0
C24 C 0.10395 0.45836 0.21244 0.0
C25 C 0.11911 0.45519 0.21152 0.0
H26 H 0.09216 0.44437 0.17985 0.0
H27 H 0.09945 0.46244 0.22289 0.0
H28 H 0.05385 0.43038 0.19652 0.0
H29 H 0.08418 0.40001 0.21563 0.0
H30 H 0.08203 0.5119 0.20896 0.0
H31 H 0.1187 0.43852 0.17734 0.0
H32 H 0.1262 0.45752 0.22105 0.0
C33 C 0.96978 0.83194 0.46617 0.0
C34 C 0.98389 0.82569 0.46577 0.0
N35 N 0.98288 0.81215 0.45928 0.0
N36 N 0.96 0.82243 0.45975 0.0
C37 C 0.96832 0.81051 0.45571 0.0
H38 H 0.96683 0.84257 0.4711 0.0
Co39 Co 0.93928 0.82368 0.45777 0.0
C40 C 0.93412 0.81828 0.42566 0.0
O41 O 0.92471 0.82953 0.42498 0.0
N42 N 0.91805 0.82431 0.45566 0.0
C43 C 0.8939 0.8298 0.45198 0.0
C44 C 0.90813 0.83558 0.45344 0.0
C45 C 0.90944 0.81189 0.45536 0.0
N46 N 0.89486 0.81491 0.4534 0.0
O47 O 0.93802 0.80426 0.46625 0.0
H48 H 0.91085 0.84727 0.45241 0.0
H49 H 0.91372 0.80062 0.45603 0.0
O50 O 0.94074 0.81517 0.43791 0.0
C51 C 0.93489 0.80512 0.48007 0.0
O52 O 0.93216 0.81835 0.48585 0.0
N53 N 0.94123 0.84329 0.45113 0.0
C54 C 0.94974 0.87311 0.44933 0.0
C55 C 0.95338 0.8631 0.43781 0.0
C56 C 0.94925 0.84808 0.43906 0.0
C57 C 0.93735 0.85299 0.4622 0.0
C58 C 0.94121 0.868 0.46138 0.0
H59 H 0.95359 0.8402 0.43102 0.0
H60 H 0.93185 0.84882 0.47213 0.0
H61 H 0.9637 0.80066 0.45042 0.0
H62 H 0.99398 0.83049 0.47041 0.0
H63 H 0.8837 0.836 0.45002 0.0
H64 H 0.96044 0.86655 0.4286 0.0
H65 H 0.93834 0.87534 0.47057 0.0
C66 C 0.56807 0.72502 0.7027 0.0
C67 C 0.57444 0.73905 0.70207 0.0
N68 N 0.58845 0.73766 0.69669 0.0
N69 N 0.57797 0.71488 0.69755 0.0
C70 C 0.59023 0.72293 0.694 0.0
H71 H 0.55714 0.72238 0.70712 0.0
Co72 Co 0.57672 0.69411 0.6973 0.0
C73 C 0.58533 0.6858 0.6665 0.0
O74 O 0.57478 0.67559 0.666 0.0
N75 N 0.57607 0.67301 0.69731 0.0
C76 C 0.57134 0.64876 0.70064 0.0
C77 C 0.56525 0.66292 0.70048 0.0
C78 C 0.58851 0.66463 0.69558 0.0
N79 N 0.58604 0.64993 0.6977 0.0
O80 O 0.59539 0.69335 0.70743 0.0
H81 H 0.55377 0.66548 0.70309 0.0
H82 H 0.59934 0.66934 0.693 0.0
O83 O 0.58697 0.69386 0.67816 0.0
C84 C 0.59363 0.69159 0.72141 0.0
O85 O 0.57998 0.68986 0.72658 0.0
N86 N 0.55777 0.69549 0.68858 0.0
C87 C 0.52825 0.70291 0.68167 0.0
C88 C 0.53966 0.70458 0.67101 0.0
C89 C 0.55443 0.70122 0.67483 0.0
C90 C 0.5468 0.69358 0.69895 0.0
C91 C 0.53199 0.69703 0.69571 0.0
H92 H 0.56312 0.70428 0.66707 0.0
H93 H 0.54977 0.6903 0.7102 0.0
H94 H 0.60044 0.71795 0.68985 0.0
H95 H 0.56941 0.74934 0.70594 0.0
H96 H 0.56553 0.63851 0.70339 0.0
H97 H 0.53738 0.70927 0.66009 0.0
H98 H 0.52379 0.69612 0.70456 0.0
C99 C 0.66909 0.31972 0.95756 0.0
C100 C 0.65519 0.32632 0.95642 0.0
N101 N 0.6569 0.33989 0.95011 0.0
N102 N 0.67946 0.32904 0.95181 0.0
C103 C 0.67167 0.34119 0.94739 0.0
H104 H 0.67148 0.30901 0.96261 0.0
Co105 Co 0.70019 0.32728 0.95119 0.0
C106 C 0.70754 0.33329 0.91931 0.0
O107 O 0.71721 0.32224 0.9188 0.0
N108 N 0.7212 0.32608 0.95069 0.0
C109 C 0.74534 0.32156 0.95498 0.0
C110 C 0.73099 0.31613 0.95652 0.0
C111 C 0.72991 0.3374 0.9458 0.0
N112 N 0.74454 0.33491 0.94813 0.0
O113 O 0.7016 0.34689 0.95929 0.0
H114 H 0.72806 0.30593 0.96222 0.0
H115 H 0.7255 0.34775 0.94133 0.0
O116 O 0.70014 0.33585 0.93124 0.0
C117 C 0.70664 0.34869 0.97244 0.0
O118 O 0.71198 0.33712 0.97974 0.0
N119 N 0.69822 0.30765 0.94425 0.0
C120 C 0.69115 0.27767 0.93923 0.0
C121 C 0.68934 0.28838 0.92789 0.0
C122 C 0.69241 0.30338 0.9308 0.0
C123 C 0.70018 0.29741 0.95533 0.0
C124 C 0.69685 0.28237 0.95305 0.0
H125 H 0.6892 0.3115 0.92252 0.0
H126 H 0.70338 0.30112 0.96637 0.0
H127 H 0.67684 0.35097 0.94249 0.0
H128 H 0.64475 0.32175 0.96047 0.0
H129 H 0.7555 0.31631 0.95894 0.0
H130 H 0.68484 0.28539 0.91707 0.0
H131 H 0.69782 0.27476 0.9624 0.0
C132 C 0.07873 0.71789 0.43719 0.0
C133 C 0.07317 0.73229 0.43734 0.0
N134 N 0.06053 0.73244 0.44558 0.0
N135 N 0.06969 0.70905 0.44537 0.0
C136 C 0.05872 0.71819 0.45022 0.0
H137 H 0.08859 0.71408 0.43131 0.0
Co138 Co 0.07026 0.68842 0.44848 0.0
C139 C 0.06659 0.6864 0.48158 0.0
O140 O 0.07767 0.67691 0.48305 0.0
N141 N 0.07034 0.66722 0.45163 0.0
C142 C 0.0756 0.64366 0.45827 0.0
C143 C 0.08088 0.65811 0.45763 0.0
C144 C 0.05886 0.65782 0.44863 0.0
N145 N 0.0618 0.64358 0.45243 0.0
O146 O 0.05026 0.68765 0.44137 0.0
H147 H 0.09164 0.66165 0.46182 0.0
H148 H 0.04815 0.66123 0.44425 0.0
O149 O 0.06312 0.6915 0.46873 0.0
C150 C 0.05081 0.68574 0.42729 0.0
O151 O 0.06392 0.6834 0.42108 0.0
N152 N 0.09034 0.68987 0.45371 0.0
C153 C 0.12031 0.69796 0.45204 0.0
C154 C 0.11113 0.70361 0.46348 0.0
C155 C 0.09606 0.69949 0.46406 0.0
C156 C 0.09929 0.6837 0.44306 0.0
C157 C 0.11438 0.68728 0.44226 0.0
H158 H 0.08875 0.7052 0.4718 0.0
H159 H 0.09443 0.6767 0.43448 0.0
H160 H 0.04918 0.71425 0.45649 0.0
H161 H 0.07802 0.74183 0.43173 0.0
H162 H 0.08136 0.63402 0.46277 0.0
H163 H 0.11514 0.71218 0.47102 0.0
H164 H 0.12106 0.68256 0.43334 0.0
C165 C 0.68379 0.83367 0.6812 0.0
C166 C 0.66931 0.82834 0.68121 0.0
N167 N 0.66912 0.81508 0.68838 0.0
N168 N 0.69265 0.82384 0.68841 0.0
C169 C 0.68341 0.81267 0.69258 0.0
H170 H 0.68765 0.84386 0.67597 0.0
Co171 Co 0.71333 0.82378 0.69071 0.0
C172 C 0.7182 0.81617 0.72252 0.0
O173 O 0.72912 0.82593 0.72346 0.0
N174 N 0.73448 0.82316 0.69295 0.0
C175 C 0.75889 0.82726 0.69648 0.0
C176 C 0.74503 0.83385 0.69499 0.0
C177 C 0.74234 0.81025 0.69329 0.0
N178 N 0.75707 0.81244 0.69522 0.0
O179 O 0.71359 0.80468 0.68151 0.0
H180 H 0.74301 0.8457 0.69582 0.0
H181 H 0.73737 0.79926 0.69266 0.0
O182 O 0.71106 0.81459 0.71027 0.0
C183 C 0.71662 0.80578 0.66768 0.0
O184 O 0.72 0.81902 0.66227 0.0
N185 N 0.71238 0.84315 0.69818 0.0
C186 C 0.70458 0.87306 0.70128 0.0
C187 C 0.7009 0.86267 0.71245 0.0
C188 C 0.70471 0.84764 0.71058 0.0
C189 C 0.71649 0.85321 0.68753 0.0
C190 C 0.713 0.86827 0.689 0.0
H191 H 0.70026 0.83957 0.71836 0.0
H192 H 0.72174 0.84932 0.67736 0.0
H193 H 0.6873 0.80256 0.69795 0.0
H194 H 0.65975 0.83374 0.67614 0.0
H195 H 0.76945 0.83289 0.69831 0.0
H196 H 0.69395 0.86586 0.72184 0.0
H197 H 0.71594 0.87591 0.68008 0.0
C198 C 0.56436 0.437 0.92646 0.0
C199 C 0.56955 0.42246 0.92647 0.0
N200 N 0.58206 0.42186 0.93488 0.0
N201 N 0.57353 0.44547 0.93489 0.0
C202 C 0.58419 0.43598 0.93974 0.0
H203 H 0.55464 0.44114 0.92059 0.0
Co204 Co 0.57332 0.46592 0.93865 0.0
C205 C 0.57745 0.46802 0.97128 0.0
O206 O 0.56631 0.47756 0.97223 0.0
N207 N 0.57388 0.48671 0.94259 0.0
C208 C 0.57133 0.51138 0.9451 0.0
C209 C 0.56429 0.4983 0.94096 0.0
C210 C 0.58652 0.49312 0.94777 0.0
N211 N 0.58535 0.50803 0.94941 0.0
O212 O 0.59314 0.46688 0.93107 0.0
H213 H 0.55298 0.49762 0.93689 0.0
H214 H 0.59664 0.48689 0.94996 0.0
O215 O 0.58097 0.46234 0.95868 0.0
C216 C 0.59352 0.47177 0.91775 0.0
O217 O 0.58102 0.47656 0.91167 0.0
N218 N 0.55336 0.46444 0.94454 0.0
C219 C 0.52331 0.45617 0.94465 0.0
C220 C 0.5331 0.45098 0.95579 0.0
C221 C 0.54816 0.45508 0.95542 0.0
C222 C 0.54391 0.46984 0.9339 0.0
C223 C 0.52879 0.46627 0.93402 0.0
H224 H 0.55579 0.44951 0.96293 0.0
H225 H 0.54839 0.47597 0.92449 0.0
H226 H 0.59369 0.43955 0.94631 0.0
H227 H 0.56449 0.41312 0.9207 0.0
H228 H 0.56651 0.52247 0.94484 0.0
H229 H 0.52954 0.4427 0.96387 0.0
H230 H 0.52171 0.47046 0.92514 0.0
C231 C 0.97036 0.31723 0.18013 0.0
C232 C 0.98481 0.32265 0.18043 0.0
N233 N 0.98487 0.3355 0.18827 0.0
N234 N 0.96143 0.32655 0.18792 0.0
C235 C 0.97061 0.33752 0.19273 0.0
H236 H 0.96658 0.3074 0.17422 0.0
Co237 Co 0.94075 0.32642 0.19039 0.0
C238 C 0.93647 0.32937 0.22309 0.0
O239 O 0.92607 0.31899 0.22314 0.0
N240 N 0.91977 0.32691 0.1929 0.0
C241 C 0.895 0.32443 0.19156 0.0
C242 C 0.90855 0.3176 0.18888 0.0
C243 C 0.91267 0.33916 0.19812 0.0
N244 N 0.89769 0.33809 0.19721 0.0
O245 O 0.94054 0.34686 0.18453 0.0
H246 H 0.90985 0.30683 0.18365 0.0
H247 H 0.91847 0.34898 0.20211 0.0
O248 O 0.94323 0.33269 0.21098 0.0
C249 C 0.93488 0.35054 0.17204 0.0
O250 O 0.92801 0.34036 0.164 0.0
N251 N 0.94152 0.30608 0.19491 0.0
C252 C 0.94753 0.27557 0.19485 0.0
C253 C 0.95145 0.28444 0.20717 0.0
C254 C 0.94864 0.29978 0.20685 0.0
C255 C 0.93752 0.29756 0.18295 0.0
C256 C 0.94015 0.28224 0.18279 0.0
H257 H 0.95329 0.30662 0.21562 0.0
H258 H 0.93311 0.30289 0.17304 0.0
H259 H 0.96679 0.34704 0.19913 0.0
H260 H 0.99436 0.31788 0.17474 0.0
H261 H 0.88409 0.32006 0.18869 0.0
H262 H 0.95776 0.2798 0.21641 0.0
H263 H 0.93726 0.27584 0.17293 0.0
C264 C 0.222 0.08008 0.42959 0.0
C265 C 0.22264 0.0753 0.41495 0.0
N266 N 0.21221 0.0646 0.41301 0.0
N267 N 0.2112 0.07244 0.43679 0.0
C268 C 0.20545 0.06312 0.42641 0.0
H269 H 0.22935 0.08814 0.4348 0.0
Co270 Co 0.20721 0.07222 0.45714 0.0
C271 C 0.17433 0.07132 0.45944 0.0
O272 O 0.17465 0.08179 0.46973 0.0
N273 N 0.20323 0.07134 0.4779 0.0
C274 C 0.20331 0.07275 0.50278 0.0
C275 C 0.20697 0.08002 0.4897 0.0
C276 C 0.19711 0.05906 0.48419 0.0
N277 N 0.19729 0.05945 0.49923 0.0
O278 O 0.21223 0.05152 0.45719 0.0
H279 H 0.2127 0.09059 0.48919 0.0
H280 H 0.19309 0.04964 0.47777 0.0
O281 O 0.18646 0.06702 0.45323 0.0
C282 C 0.22428 0.04764 0.46364 0.0
O283 O 0.23201 0.05771 0.47102 0.0
N284 N 0.20363 0.09278 0.45646 0.0
C285 C 0.20558 0.1233 0.45038 0.0
C286 C 0.19362 0.11476 0.44484 0.0
C287 C 0.19297 0.09946 0.44782 0.0
C288 C 0.21525 0.10092 0.46196 0.0
C289 C 0.2162 0.11625 0.45949 0.0
H290 H 0.18467 0.09288 0.44206 0.0
H291 H 0.22445 0.09529 0.46741 0.0
H292 H 0.19713 0.05471 0.42891 0.0
H293 H 0.23043 0.07911 0.40653 0.0
H294 H 0.20582 0.07654 0.51399 0.0
H295 H 0.18553 0.11952 0.4372 0.0
H296 H 0.22573 0.1223 0.46385 0.0
C297 C 0.31491 0.96453 0.68173 0.0
C298 C 0.32076 0.96462 0.66744 0.0
N299 N 0.33389 0.95724 0.66767 0.0
N300 N 0.32424 0.95693 0.69082 0.0
C301 C 0.33565 0.95265 0.68191 0.0
H302 H 0.30475 0.97 0.68533 0.0
Co303 Co 0.32374 0.95411 0.71148 0.0
C304 C 0.32694 0.92133 0.71441 0.0
O305 O 0.31529 0.92062 0.7233 0.0
N306 N 0.32391 0.95111 0.73269 0.0
C307 C 0.3193 0.94453 0.75641 0.0
C308 C 0.3132 0.94648 0.7424 0.0
C309 C 0.33635 0.95188 0.74129 0.0
N310 N 0.33384 0.94809 0.7556 0.0
O311 O 0.34368 0.96137 0.71208 0.0
H312 H 0.3018 0.94377 0.73953 0.0
H313 H 0.34741 0.9543 0.73713 0.0
O314 O 0.33099 0.93384 0.70887 0.0
C315 C 0.3434 0.97537 0.71444 0.0
O316 O 0.33044 0.98171 0.71724 0.0
N317 N 0.30364 0.94877 0.71016 0.0
C318 C 0.27334 0.9494 0.70294 0.0
C319 C 0.28273 0.93819 0.69717 0.0
C320 C 0.29794 0.93815 0.70081 0.0
C321 C 0.2946 0.95947 0.71613 0.0
C322 C 0.27937 0.9597 0.71307 0.0
H323 H 0.30528 0.93049 0.69506 0.0
H324 H 0.29943 0.96834 0.72278 0.0
H325 H 0.34531 0.94657 0.68592 0.0
H326 H 0.31605 0.97022 0.6578 0.0
H327 H 0.31363 0.94045 0.76628 0.0
H328 H 0.27871 0.93031 0.68892 0.0
H329 H 0.27259 0.96851 0.71786 0.0
C330 C 0.43073 0.06754 0.92481 0.0
C331 C 0.43181 0.07354 0.91064 0.0
N332 N 0.43886 0.08681 0.91166 0.0
N333 N 0.43725 0.07692 0.93465 0.0
C334 C 0.44208 0.08852 0.92628 0.0
H335 H 0.42518 0.05722 0.92777 0.0
Co336 Co 0.43825 0.07599 0.95545 0.0
C337 C 0.47035 0.07982 0.96213 0.0
O338 O 0.46989 0.06904 0.97208 0.0
N339 N 0.43931 0.07563 0.97674 0.0
C340 C 0.44206 0.07025 0.00102 0.0
C341 C 0.44068 0.06438 0.98683 0.0
C342 C 0.4399 0.08813 0.98523 0.0
N343 N 0.44138 0.08517 -0.00013 0.0
O344 O 0.43104 0.09596 0.95598 0.0
H345 H 0.44133 0.05263 0.98426 0.0
H346 H 0.43993 0.09937 0.98082 0.0
O347 O 0.45865 0.08326 0.95472 0.0
C348 C 0.41697 0.09624 0.95786 0.0
O349 O 0.40996 0.08352 0.96008 0.0
N350 N 0.44381 0.05598 0.95415 0.0
C351 C 0.44529 0.02566 0.94743 0.0
C352 C 0.45728 0.03518 0.94399 0.0
C353 C 0.4562 0.05043 0.9472 0.0
C354 C 0.43214 0.04684 0.95764 0.0
C355 C 0.43275 0.0316 0.95466 0.0
H356 H 0.4648 0.05781 0.94308 0.0
H357 H 0.42204 0.05158 0.9623 0.0
H358 H 0.4476 0.09822 0.93093 0.0
H359 H 0.4272 0.06883 0.9005 0.0
H360 H 0.44358 0.06408 0.01132 0.0
H361 H 0.46689 0.03111 0.93787 0.0
H362 H 0.4232 0.02467 0.95733 0.0
C363 C 0.33182 0.17815 0.17636 0.0
C364 C 0.32593 0.17844 0.16211 0.0
N365 N 0.31272 0.18567 0.1626 0.0
N366 N 0.32244 0.18535 0.18571 0.0
C367 C 0.31097 0.1898 0.17699 0.0
H368 H 0.34202 0.17261 0.17975 0.0
Co369 Co 0.32312 0.18717 0.20644 0.0
C370 C 0.31885 0.21953 0.21175 0.0
O371 O 0.32988 0.21976 0.22143 0.0
N372 N 0.32327 0.18905 0.22765 0.0
C373 C 0.32838 0.19355 0.25172 0.0
C374 C 0.33438 0.19167 0.23765 0.0
C375 C 0.31073 0.18936 0.23607 0.0
N376 N 0.31354 0.19189 0.25058 0.0
O377 O 0.30323 0.1798 0.20699 0.0
H378 H 0.34607 0.19302 0.23503 0.0
H379 H 0.29951 0.18858 0.23168 0.0
O380 O 0.31555 0.20745 0.20491 0.0
C381 C 0.303 0.16576 0.20903 0.0
O382 O 0.31573 0.15884 0.21152 0.0
N383 N 0.34306 0.19286 0.20515 0.0
C384 C 0.37341 0.19427 0.19873 0.0
C385 C 0.36385 0.20602 0.19464 0.0
C386 C 0.34858 0.20496 0.19769 0.0
C387 C 0.35225 0.18146 0.20933 0.0
C388 C 0.36751 0.18205 0.20648 0.0
H389 H 0.34116 0.21328 0.19308 0.0
H390 H 0.34753 0.17155 0.21441 0.0
H391 H 0.30126 0.19564 0.18125 0.0
H392 H 0.33064 0.17312 0.15232 0.0
H393 H 0.33437 0.19624 0.26188 0.0
H394 H 0.36792 0.21535 0.18809 0.0
H395 H 0.37449 0.17266 0.20961 0.0
C396 C 0.2173 0.06592 0.21654 0.0
C397 C 0.21841 0.07166 0.23082 0.0
N398 N 0.20845 0.08289 0.2322 0.0
N399 N 0.20668 0.07351 0.20902 0.0
C400 C 0.20151 0.08373 0.21884 0.0
H401 H 0.22421 0.05724 0.21175 0.0
Co402 Co 0.20245 0.07276 0.18866 0.0
C403 C 0.16922 0.07539 0.18875 0.0
O404 O 0.16747 0.06288 0.18131 0.0
N405 N 0.19813 0.07251 0.16772 0.0
C406 C 0.18906 0.06762 0.14491 0.0
C407 C 0.19099 0.0622 0.15918 0.0
C408 C 0.20051 0.08397 0.15814 0.0
N409 N 0.1952 0.08128 0.14435 0.0
O410 O 0.20927 0.09281 0.18745 0.0
H411 H 0.18677 0.05158 0.16307 0.0
H412 H 0.20526 0.09461 0.16121 0.0
O413 O 0.18228 0.07985 0.1924 0.0
C414 C 0.22326 0.09255 0.18489 0.0
O415 O 0.22962 0.07958 0.18219 0.0
N416 N 0.19753 0.05262 0.19054 0.0
C417 C 0.19815 0.02215 0.19685 0.0
C418 C 0.18802 0.03166 0.2042 0.0
C419 C 0.18802 0.04694 0.20101 0.0
C420 C 0.20728 0.04352 0.18318 0.0
C421 C 0.20748 0.02822 0.18584 0.0
H422 H 0.18121 0.05432 0.20773 0.0
H423 H 0.2154 0.04831 0.17561 0.0
H424 H 0.1935 0.09232 0.21593 0.0
H425 H 0.2262 0.06811 0.23936 0.0
H426 H 0.18328 0.06215 0.1358 0.0
H427 H 0.181 0.02758 0.21317 0.0
H428 H 0.21551 0.02134 0.17994 0.0
C429 C 0.33175 0.96464 0.47446 0.0
C430 C 0.32675 0.96454 0.48904 0.0
N431 N 0.31448 0.95581 0.48979 0.0
N432 N 0.32271 0.95596 0.4661 0.0
C433 C 0.31233 0.95078 0.47573 0.0
H434 H 0.34109 0.971 0.47017 0.0
Co435 Co 0.32252 0.95328 0.44553 0.0
C436 C 0.31832 0.92063 0.44149 0.0
O437 O 0.32868 0.92017 0.43109 0.0
N438 N 0.32178 0.95066 0.42461 0.0
C439 C 0.32404 0.95215 0.39984 0.0
C440 C 0.33109 0.95451 0.41332 0.0
C441 C 0.30931 0.94586 0.41762 0.0
N442 N 0.31024 0.94689 0.40264 0.0
O443 O 0.30229 0.95996 0.44543 0.0
H444 H 0.342 0.95946 0.41452 0.0
H445 H 0.29941 0.94216 0.42351 0.0
O446 O 0.31543 0.9329 0.4482 0.0
C447 C 0.29922 0.97251 0.43954 0.0
O448 O 0.30985 0.98003 0.43275 0.0
N449 N 0.34267 0.94794 0.4462 0.0
C450 C 0.37331 0.94652 0.45149 0.0
C451 C 0.36389 0.93474 0.45585 0.0
C452 C 0.34852 0.93581 0.45338 0.0
C453 C 0.35168 0.95943 0.44193 0.0
C454 C 0.36705 0.95882 0.44413 0.0
H455 H 0.34135 0.92745 0.45828 0.0
H456 H 0.34675 0.96957 0.43757 0.0
H457 H 0.30286 0.9441 0.47227 0.0
H458 H 0.3316 0.97065 0.49827 0.0
H459 H 0.32837 0.95502 0.38892 0.0
H460 H 0.36819 0.92537 0.4622 0.0
H461 H 0.37386 0.96828 0.44088 0.0
C462 C 0.43759 0.07892 0.72404 0.0
C463 C 0.43842 0.0725 0.73803 0.0
N464 N 0.44436 0.05873 0.7366 0.0
N465 N 0.44317 0.06929 0.71388 0.0
C466 C 0.44718 0.05714 0.72187 0.0
H467 H 0.43276 0.08968 0.72142 0.0
Co468 Co 0.4434 0.07072 0.69312 0.0
C469 C 0.47457 0.06405 0.68462 0.0
O470 O 0.47444 0.0752 0.67505 0.0
N471 N 0.44347 0.0715 0.67204 0.0
C472 C 0.44207 0.07618 0.64759 0.0
C473 C 0.44029 0.08211 0.66174 0.0
C474 C 0.44688 0.05932 0.66385 0.0
N475 N 0.44635 0.06183 0.64904 0.0
O476 O 0.4342 0.0516 0.69223 0.0
H477 H 0.43686 0.09341 0.6641 0.0
H478 H 0.44965 0.04864 0.66878 0.0
O479 O 0.46309 0.06135 0.69269 0.0
C480 C 0.42016 0.05247 0.69034 0.0
O481 O 0.41417 0.06572 0.68827 0.0
N482 N 0.45124 0.09002 0.69465 0.0
C483 C 0.45731 0.11973 0.70199 0.0
C484 C 0.46822 0.10858 0.70384 0.0
C485 C 0.46477 0.09373 0.70066 0.0
C486 C 0.44063 0.1007 0.69248 0.0
C487 C 0.44343 0.11561 0.69594 0.0
H488 H 0.47266 0.08526 0.704 0.0
H489 H 0.42953 0.09745 0.68896 0.0
H490 H 0.45176 0.04712 0.71686 0.0
H491 H 0.43433 0.07733 0.74834 0.0
H492 H 0.44045 0.08201 0.63712 0.0
H493 H 0.47908 0.11112 0.70854 0.0
H494 H 0.43439 0.12358 0.69486 0.0
C495 C 0.31741 0.18764 0.96818 0.0
C496 C 0.32306 0.18766 0.98255 0.0
N497 N 0.33558 0.19607 0.98276 0.0
N498 N 0.32628 0.19609 0.95942 0.0
C499 C 0.33723 0.20098 0.96858 0.0
H500 H 0.30765 0.18165 0.96431 0.0
Co501 Co 0.32564 0.19931 0.93883 0.0
C502 C 0.32932 0.23248 0.93792 0.0
O503 O 0.3169 0.23456 0.93039 0.0
N504 N 0.32557 0.20272 0.9177 0.0
C505 C 0.32096 0.21098 0.89454 0.0
C506 C 0.31557 0.20999 0.90891 0.0
C507 C 0.33685 0.19938 0.90818 0.0
N508 N 0.33434 0.2042 0.89416 0.0
O509 O 0.34547 0.19175 0.9379 0.0
H510 H 0.30519 0.21489 0.91267 0.0
H511 H 0.34727 0.19426 0.91145 0.0
O512 O 0.33332 0.21934 0.94177 0.0
C513 C 0.34454 0.17768 0.93611 0.0
O514 O 0.33123 0.17177 0.93408 0.0
N515 N 0.30563 0.20496 0.94042 0.0
C516 C 0.27525 0.2046 0.94724 0.0
C517 C 0.28488 0.21496 0.95409 0.0
C518 C 0.30012 0.21487 0.95061 0.0
C519 C 0.29635 0.19516 0.93337 0.0
C520 C 0.28109 0.19511 0.93624 0.0
H521 H 0.30763 0.2218 0.95705 0.0
H522 H 0.30097 0.18677 0.92599 0.0
H523 H 0.34664 0.20747 0.96468 0.0
H524 H 0.31836 0.18178 0.99201 0.0
H525 H 0.31566 0.21657 0.88521 0.0
H526 H 0.28098 0.22218 0.96298 0.0
H527 H 0.2741 0.18698 0.93063 0.0
C528 C 0.42808 0.21379 0.08127 0.0
C529 C 0.41386 0.21394 0.07525 0.0
N530 N 0.41446 0.20775 0.06154 0.0
N531 N 0.43752 0.20735 0.07143 0.0
C532 C 0.42888 0.20383 0.05957 0.0
H533 H 0.43134 0.21835 0.09197 0.0
Co534 Co 0.45817 0.20455 0.0722 0.0
C535 C 0.46199 0.17222 0.06677 0.0
O536 O 0.47185 0.1713 0.07763 0.0
N537 N 0.47913 0.20167 0.07225 0.0
C538 C 0.50381 0.201 0.07573 0.0
C539 C 0.4902 0.20408 0.08228 0.0
C540 C 0.48639 0.19715 0.05982 0.0
N541 N 0.50133 0.19663 0.06156 0.0
O542 O 0.45948 0.21279 0.05269 0.0
H543 H 0.48878 0.20811 0.09354 0.0
H544 H 0.48073 0.19473 0.04942 0.0
O545 O 0.45563 0.18467 0.06387 0.0
C546 C 0.46401 0.22623 0.05308 0.0
O547 O 0.46799 0.23193 0.06603 0.0
N548 N 0.45648 0.198 0.0919 0.0
C549 C 0.44985 0.19542 0.12216 0.0
C550 C 0.44553 0.18421 0.11208 0.0
C551 C 0.44868 0.18586 0.09688 0.0
C552 C 0.46076 0.20892 0.10159 0.0
C553 C 0.45787 0.20772 0.11679 0.0
H554 H 0.44384 0.17801 0.08912 0.0
H555 H 0.46568 0.2191 0.09732 0.0
H556 H 0.43317 0.1986 0.04954 0.0
H557 H 0.40397 0.2187 0.08035 0.0
H558 H 0.51466 0.20209 0.08097 0.0
H559 H 0.43872 0.17488 0.11571 0.0
H560 H 0.4611 0.21677 0.12416 0.0
C561 C 0.93136 0.43043 0.06573 0.0
C562 C 0.91677 0.42978 0.0707 0.0
N563 N 0.91569 0.43799 0.08328 0.0
N564 N 0.93936 0.43919 0.07504 0.0
C565 C 0.9295 0.4436 0.08558 0.0
H566 H 0.9359 0.42455 0.05621 0.0
Co567 Co 0.95981 0.44328 0.07526 0.0
C568 C 0.96196 0.47613 0.07759 0.0
O569 O 0.97271 0.47637 0.0676 0.0
N570 N 0.98063 0.44745 0.07611 0.0
C571 C 0.00526 0.44979 0.07304 0.0
C572 C 0.992 0.44594 0.06625 0.0
C573 C 0.98738 0.45246 0.08867 0.0
N574 N 0.00233 0.45382 0.08723 0.0
O575 O 0.95996 0.43781 0.09578 0.0
H576 H 0.99108 0.44215 0.05487 0.0
H577 H 0.9814 0.45467 0.09892 0.0
O578 O 0.95564 0.46379 0.08099 0.0
C579 C 0.96593 0.42547 0.09948 0.0
O580 O 0.97321 0.41773 0.08934 0.0
N581 N 0.95905 0.44728 0.05481 0.0
C582 C 0.95189 0.44482 0.02457 0.0
C583 C 0.94674 0.45699 0.03308 0.0
C584 C 0.95036 0.45797 0.04825 0.0
C585 C 0.96443 0.43564 0.04662 0.0
C586 C 0.96146 0.43447 0.03141 0.0
H587 H 0.94493 0.46643 0.05491 0.0
H588 H 0.97027 0.42663 0.05218 0.0
H589 H 0.93251 0.45055 0.095 0.0
H590 H 0.90783 0.42324 0.06583 0.0
H591 H 0.01621 0.44944 0.06792 0.0
H592 H 0.93891 0.46498 0.02848 0.0
H593 H 0.96577 0.42493 0.02536 0.0
C594 C 0.96982 0.68065 0.31705 0.0
C595 C 0.96894 0.66607 0.32198 0.0
N596 N 0.95929 0.66553 0.33355 0.0
N597 N 0.96073 0.68923 0.32545 0.0
C598 C 0.9545 0.67972 0.33538 0.0
H599 H 0.97701 0.6848 0.30827 0.0
Co600 Co 0.95903 0.70993 0.32548 0.0
C601 C 0.92667 0.71562 0.32868 0.0
O602 O 0.92715 0.72584 0.31816 0.0
N603 N 0.95735 0.73114 0.32604 0.0
C604 C 0.95428 0.75558 0.32169 0.0
C605 C 0.9561 0.7417 0.31523 0.0
C606 C 0.95623 0.73903 0.33889 0.0
N607 N 0.95455 0.75376 0.33656 0.0
O608 O 0.96566 0.70969 0.34563 0.0
H609 H 0.95594 0.73964 0.30336 0.0
H610 H 0.95604 0.73411 0.34992 0.0
O611 O 0.93846 0.70838 0.33218 0.0
C612 C 0.97967 0.71184 0.34639 0.0
O613 O 0.98696 0.71483 0.33398 0.0
N614 N 0.95405 0.70931 0.30528 0.0
C615 C 0.95405 0.70222 0.27501 0.0
C616 C 0.94179 0.6985 0.28407 0.0
C617 C 0.94215 0.70188 0.29931 0.0
C618 C 0.96586 0.71332 0.29653 0.0
C619 C 0.96599 0.7101 0.28132 0.0
H620 H 0.93349 0.69736 0.30639 0.0
H621 H 0.97561 0.71834 0.30161 0.0
H622 H 0.94725 0.68331 0.34437 0.0
H623 H 0.97515 0.65667 0.31757 0.0
H624 H 0.95283 0.76614 0.31596 0.0
H625 H 0.93263 0.69189 0.27973 0.0
H626 H 0.97575 0.71296 0.27474 0.0
C627 C 0.72681 0.7075 0.56345 0.0
C628 C 0.74048 0.70553 0.57031 0.0
N629 N 0.73808 0.70073 0.58438 0.0
N630 N 0.71586 0.70377 0.57312 0.0
C631 C 0.72309 0.6997 0.58573 0.0
H632 H 0.72499 0.71185 0.55233 0.0
Co633 Co 0.69523 0.7057 0.57114 0.0
C634 C 0.68307 0.67631 0.57959 0.0
O635 O 0.67383 0.67676 0.56819 0.0
N636 N 0.67416 0.70779 0.56976 0.0
C637 C 0.64989 0.70757 0.56382 0.0
C638 C 0.66428 0.70759 0.55826 0.0
C639 C 0.6654 0.7082 0.58206 0.0
N640 N 0.65076 0.70811 0.57878 0.0
O641 O 0.69504 0.71615 0.58958 0.0
H642 H 0.66708 0.70667 0.54658 0.0
H643 H 0.6696 0.70746 0.59337 0.0
O644 O 0.6924 0.68692 0.5817 0.0
C645 C 0.6953 0.73024 0.58795 0.0
O646 O 0.69479 0.73575 0.57434 0.0
N647 N 0.69632 0.69654 0.55242 0.0
C648 C 0.70347 0.68829 0.52323 0.0
C649 C 0.70428 0.67786 0.53494 0.0
C650 C 0.70106 0.68232 0.54955 0.0
C651 C 0.69537 0.70675 0.54119 0.0
C652 C 0.69868 0.70285 0.52652 0.0
H653 H 0.70332 0.6746 0.55853 0.0
H654 H 0.69265 0.71824 0.5438 0.0
H655 H 0.71739 0.69639 0.59587 0.0
H656 H 0.7513 0.70809 0.56553 0.0
H657 H 0.63964 0.70676 0.55744 0.0
H658 H 0.70814 0.66656 0.533 0.0
H659 H 0.69845 0.71149 0.51805 0.0
C660 C 0.18666 0.97534 0.31398 0.0
C661 C 0.1882 0.98981 0.3191 0.0
N662 N 0.19606 0.98947 0.33195 0.0
N663 N 0.19354 0.96598 0.32358 0.0
C664 C 0.19914 0.97491 0.33437 0.0
H665 H 0.18035 0.97183 0.30429 0.0
Co666 Co 0.19284 0.94524 0.32419 0.0
C667 C 0.22331 0.93579 0.33286 0.0
O668 O 0.22285 0.92477 0.32315 0.0
N669 N 0.19194 0.92422 0.32545 0.0
C670 C 0.19139 0.89947 0.32271 0.0
C671 C 0.18992 0.91304 0.3155 0.0
C672 C 0.19426 0.91712 0.33856 0.0
N673 N 0.19429 0.90214 0.33724 0.0
O674 O 0.18328 0.94665 0.34305 0.0
H675 H 0.1879 0.91444 0.30369 0.0
H676 H 0.19632 0.92299 0.34891 0.0
O677 O 0.2123 0.94483 0.33396 0.0
C678 C 0.16915 0.9462 0.34178 0.0
O679 O 0.16337 0.94432 0.3284 0.0
N680 N 0.20108 0.94454 0.30505 0.0
C681 C 0.20766 0.94943 0.27495 0.0
C682 C 0.21873 0.95104 0.28598 0.0
C683 C 0.21507 0.9491 0.30101 0.0
C684 C 0.19037 0.94232 0.29448 0.0
C685 C 0.1934 0.94461 0.2794 0.0
H686 H 0.22322 0.95232 0.30926 0.0
H687 H 0.17907 0.93971 0.29792 0.0
H688 H 0.20446 0.97072 0.34438 0.0
H689 H 0.18353 -0.00027 0.31399 0.0
H690 H 0.19086 0.88855 0.31754 0.0
H691 H 0.22991 0.95473 0.28318 0.0
H692 H 0.18427 0.9437 0.27152 0.0
C693 C 0.22249 0.93925 0.58853 0.0
C694 C 0.23686 0.94071 0.58308 0.0
N695 N 0.23603 0.94549 0.56882 0.0
N696 N 0.21271 0.94327 0.57777 0.0
C697 C 0.22131 0.94709 0.56599 0.0
H698 H 0.21941 0.93489 0.59936 0.0
Co699 Co 0.19192 0.94166 0.577 0.0
C700 C 0.18175 0.97156 0.56717 0.0
O701 O 0.17059 0.97116 0.57671 0.0
N702 N 0.17096 0.93998 0.57551 0.0
C703 C 0.14617 0.93908 0.57789 0.0
C704 C 0.15966 0.93815 0.58537 0.0
C705 C 0.16402 0.94163 0.56221 0.0
N706 N 0.14901 0.94145 0.5633 0.0
O707 O 0.19379 0.9314 0.55848 0.0
H708 H 0.1609 0.93675 0.59728 0.0
H709 H 0.17 0.94349 0.55189 0.0
O710 O 0.19103 0.96072 0.56655 0.0
C711 C 0.19775 0.91788 0.56016 0.0
O712 O 0.19986 0.91279 0.57378 0.0
N713 N 0.19073 0.9505 0.59586 0.0
C714 C 0.19712 0.95745 0.62557 0.0
C715 C 0.19802 0.96843 0.61436 0.0
C716 C 0.19527 0.9646 0.5995 0.0
C717 C 0.1888 0.94 0.60669 0.0
C718 C 0.19185 0.94322 0.6216 0.0
H719 H 0.19812 0.97264 0.591 0.0
H720 H 0.18616 0.92863 0.60354 0.0
H721 H 0.21678 0.95042 0.55529 0.0
H722 H 0.24704 0.93766 0.58885 0.0
H723 H 0.13518 0.93865 0.58293 0.0
H724 H 0.20196 0.9796 0.61684 0.0
H725 H 0.19135 0.9342 0.62964 0.0
C726 C 0.95828 0.47045 0.33324 0.0
C727 C 0.95836 0.48483 0.32763 0.0
N728 N 0.95299 0.48445 0.31356 0.0
N729 N 0.9527 0.46112 0.32279 0.0
C730 C 0.94957 0.46999 0.311 0.0
H731 H 0.96247 0.46698 0.34403 0.0
Co732 Co 0.95126 0.44028 0.32271 0.0
C733 C 0.91985 0.43475 0.31376 0.0
O734 O 0.91841 0.42402 0.32366 0.0
N735 N 0.94983 0.419 0.32209 0.0
C736 C 0.9451 0.3948 0.32625 0.0
C737 C 0.9457 0.40882 0.33255 0.0
C738 C 0.95175 0.41068 0.30959 0.0
N739 N 0.94903 0.39607 0.31184 0.0
O740 O 0.96128 0.44029 0.30399 0.0
H741 H 0.9424 0.41127 0.34388 0.0
H742 H 0.95429 0.41524 0.2987 0.0
O743 O 0.93214 0.4419 0.31268 0.0
C744 C 0.97524 0.44153 0.3063 0.0
O745 O 0.98002 0.44184 0.32019 0.0
N746 N 0.94297 0.44096 0.34174 0.0
C747 C 0.93844 0.44772 0.37173 0.0
C748 C 0.92776 0.45177 0.36094 0.0
C749 C 0.93033 0.44842 0.34588 0.0
C750 C 0.95319 0.4366 0.35215 0.0
C751 C 0.95094 0.43946 0.36723 0.0
H752 H 0.92287 0.45298 0.33757 0.0
H753 H 0.96353 0.43144 0.34857 0.0
H754 H 0.94522 0.4658 0.30053 0.0
H755 H 0.96267 0.49465 0.33321 0.0
H756 H 0.94169 0.38456 0.33171 0.0
H757 H 0.9182 0.45858 0.36389 0.0
H758 H 0.95944 0.43611 0.37516 0.0
C759 C 0.67987 0.67659 0.83102 0.0
C760 C 0.68076 0.66205 0.82595 0.0
N761 N 0.68993 0.66175 0.81399 0.0
N762 N 0.68847 0.68536 0.8223 0.0
C763 C 0.69441 0.67602 0.81206 0.0
H764 H 0.673 0.68059 0.84013 0.0
Co765 Co 0.69003 0.70606 0.82216 0.0
C766 C 0.72221 0.71191 0.81801 0.0
O767 O 0.72174 0.72234 0.82834 0.0
N768 N 0.69152 0.72714 0.82128 0.0
C769 C 0.68993 0.75193 0.82337 0.0
C770 C 0.6879 0.73846 0.83063 0.0
C771 C 0.69574 0.73409 0.80856 0.0
N772 N 0.69473 0.74907 0.80941 0.0
O773 O 0.68253 0.70595 0.80227 0.0
H774 H 0.68362 0.73727 0.84182 0.0
H775 H 0.6994 0.72816 0.79869 0.0
O776 O 0.71043 0.70451 0.81479 0.0
C777 C 0.66865 0.70897 0.80234 0.0
O778 O 0.66226 0.71218 0.81517 0.0
N779 N 0.69588 0.70555 0.84221 0.0
C780 C 0.69759 0.69905 0.87262 0.0
C781 C 0.70937 0.69527 0.86299 0.0
C782 C 0.70816 0.69832 0.84772 0.0
C783 C 0.68445 0.70943 0.85148 0.0
C784 C 0.68518 0.70655 0.86675 0.0
H785 H 0.71649 0.69374 0.84031 0.0
H786 H 0.67421 0.71383 0.84682 0.0
H787 H 0.70121 0.67978 0.80279 0.0
H788 H 0.67487 0.65253 0.83052 0.0
H789 H 0.68748 0.7629 0.82783 0.0
H790 H 0.71885 0.68889 0.86698 0.0
H791 H 0.67571 0.70936 0.87375 0.0
C792 C 0.58186 0.92426 0.71685 0.0
C793 C 0.57571 0.9101 0.71656 0.0
N794 N 0.5622 0.91097 0.70996 0.0
N795 N 0.57232 0.93391 0.71027 0.0
C796 C 0.56049 0.92546 0.70622 0.0
H797 H 0.59246 0.92732 0.72179 0.0
Co798 Co 0.57328 0.95457 0.70774 0.0
C799 C 0.56916 0.95875 0.67522 0.0
O800 O 0.58025 0.96837 0.67471 0.0
N801 N 0.5735 0.97553 0.70505 0.0
C802 C 0.57711 0.00017 0.70425 0.0
C803 C 0.58347 0.98657 0.70778 0.0
C804 C 0.56131 0.98277 0.69992 0.0
N805 N 0.56314 0.99769 0.69926 0.0
O806 O 0.55337 0.95582 0.71507 0.0
H807 H 0.59456 0.98512 0.71226 0.0
H808 H 0.55101 0.97712 0.69707 0.0
O809 O 0.56578 0.95231 0.68751 0.0
C810 C 0.55285 0.96023 0.72855 0.0
O811 O 0.56534 0.96449 0.73502 0.0
N812 N 0.59325 0.9529 0.7021 0.0
C813 C 0.62357 0.94612 0.70097 0.0
C814 C 0.61406 0.94204 0.68919 0.0
C815 C 0.59879 0.94525 0.69012 0.0
C816 C 0.6024 0.95697 0.71356 0.0
C817 C 0.61763 0.95396 0.71311 0.0
H818 H 0.59141 0.94059 0.6818 0.0
H819 H 0.59764 0.96182 0.72355 0.0
H820 H 0.55068 0.92993 0.70074 0.0
H821 H 0.58055 0.90006 0.72128 0.0
H822 H 0.58235 0.01101 0.7054 0.0
H823 H 0.61815 0.9354 0.67993 0.0
H824 H 0.62455 0.957 0.72257 0.0
C825 C 0.47648 0.33222 0.95819 0.0
C826 C 0.49026 0.32546 0.95664 0.0
N827 N 0.48814 0.31156 0.95123 0.0
N828 N 0.46576 0.32267 0.9536 0.0
C829 C 0.47322 0.31024 0.94942 0.0
H830 H 0.47442 0.34315 0.96289 0.0
Co831 Co 0.44501 0.3244 0.95472 0.0
C832 C 0.43434 0.31662 0.92445 0.0
O833 O 0.42422 0.32725 0.92493 0.0
N834 N 0.42389 0.32556 0.95599 0.0
C835 C 0.39964 0.3316 0.95627 0.0
C836 C 0.41405 0.33709 0.95615 0.0
C837 C 0.41508 0.31328 0.95616 0.0
N838 N 0.40044 0.31662 0.95642 0.0
O839 O 0.44457 0.30554 0.96433 0.0
H840 H 0.41689 0.34879 0.95573 0.0
H841 H 0.41925 0.30196 0.95537 0.0
O842 O 0.44326 0.31469 0.93543 0.0
C843 C 0.44482 0.30681 0.97845 0.0
O844 O 0.44447 0.32028 0.98429 0.0
N845 N 0.44628 0.3435 0.94646 0.0
C846 C 0.45327 0.37312 0.93971 0.0
C847 C 0.45413 0.36195 0.9287 0.0
C848 C 0.451 0.34712 0.93241 0.0
C849 C 0.4452 0.3542 0.95721 0.0
C850 C 0.44847 0.36907 0.95407 0.0
H851 H 0.45331 0.3386 0.92422 0.0
H852 H 0.44238 0.35099 0.96852 0.0
H853 H 0.46772 0.30021 0.9455 0.0
H854 H 0.50091 0.33015 0.95994 0.0
H855 H 0.38941 0.33806 0.95613 0.0
H856 H 0.45793 0.36449 0.9175 0.0
H857 H 0.44816 0.37709 0.96312 0.0
C858 C 0.06498 0.22055 0.21214 0.0
C859 C 0.07118 0.23468 0.21178 0.0
N860 N 0.08483 0.23369 0.20547 0.0
N861 N 0.07462 0.21079 0.20591 0.0
C862 C 0.08655 0.21914 0.20196 0.0
H863 H 0.05434 0.21755 0.21703 0.0
Co864 Co 0.07373 0.19003 0.20442 0.0
C865 C 0.07964 0.18425 0.17249 0.0
O866 O 0.06844 0.17478 0.17187 0.0
N867 N 0.07348 0.16874 0.20287 0.0
C868 C 0.06839 0.14445 0.19967 0.0
C869 C 0.06242 0.15864 0.20045 0.0
C870 C 0.08599 0.16025 0.20335 0.0
N871 N 0.08321 0.14559 0.20168 0.0
O872 O 0.09302 0.18931 0.21322 0.0
H873 H 0.05076 0.16119 0.1988 0.0
H874 H 0.09719 0.16468 0.20433 0.0
O875 O 0.08256 0.19112 0.18465 0.0
C876 C 0.09191 0.18706 0.2272 0.0
O877 O 0.07857 0.18469 0.23288 0.0
N878 N 0.0542 0.1915 0.19742 0.0
C879 C 0.02412 0.19877 0.19445 0.0
C880 C 0.03441 0.20269 0.18326 0.0
C881 C 0.04952 0.19918 0.18509 0.0
C882 C 0.0443 0.1875 0.20826 0.0
C883 C 0.02917 0.19068 0.20684 0.0
H884 H 0.0575 0.20366 0.17723 0.0
H885 H 0.04834 0.18231 0.21841 0.0
H886 H 0.09651 0.21452 0.19689 0.0
H887 H 0.06631 0.24475 0.21638 0.0
H888 H 0.06235 0.13415 0.19774 0.0
H889 H 0.03103 0.20946 0.17381 0.0
H890 H 0.02163 0.18758 0.2158 0.0
C891 C 0.17377 0.81642 0.45975 0.0
C892 C 0.1597 0.82254 0.45827 0.0
N893 N 0.16106 0.83617 0.45196 0.0
N894 N 0.18395 0.82612 0.45432 0.0
C895 C 0.17587 0.83801 0.44972 0.0
H896 H 0.17642 0.80575 0.46477 0.0
Co897 Co 0.20475 0.82492 0.45451 0.0
C898 C 0.21352 0.83395 0.42397 0.0
O899 O 0.22349 0.8232 0.42329 0.0
N900 N 0.22598 0.82428 0.45475 0.0
C901 C 0.2503 0.81885 0.4527 0.0
C902 C 0.236 0.81306 0.45281 0.0
C903 C 0.2346 0.83665 0.4559 0.0
N904 N 0.24928 0.83366 0.45479 0.0
O905 O 0.20518 0.8433 0.46506 0.0
H906 H 0.23331 0.80147 0.45092 0.0
H907 H 0.23025 0.8479 0.45674 0.0
O908 O 0.20542 0.8355 0.43562 0.0
C909 C 0.20379 0.84078 0.47897 0.0
O910 O 0.20259 0.82684 0.48346 0.0
N911 N 0.2035 0.80617 0.44556 0.0
C912 C 0.19495 0.7769 0.43914 0.0
C913 C 0.19356 0.78823 0.42834 0.0
C914 C 0.19751 0.80291 0.43192 0.0
C915 C 0.20546 0.79523 0.45595 0.0
C916 C 0.20141 0.78053 0.45295 0.0
H917 H 0.19462 0.81166 0.42415 0.0
H918 H 0.20933 0.79816 0.46702 0.0
H919 H 0.1809 0.84813 0.44544 0.0
H920 H 0.14932 0.8174 0.46175 0.0
H921 H 0.26059 0.81271 0.45099 0.0
H922 H 0.18856 0.78601 0.41755 0.0
H923 H 0.20228 0.77241 0.46187 0.0
C924 C 0.5811 0.21425 0.92976 0.0
C925 C 0.57574 0.22871 0.92982 0.0
N926 N 0.56323 0.22915 0.93823 0.0
N927 N 0.57206 0.20564 0.93818 0.0
C928 C 0.56131 0.215 0.94314 0.0
H929 H 0.59073 0.2102 0.92368 0.0
Co930 Co 0.57242 0.18498 0.94081 0.0
C931 C 0.5688 0.18183 0.97356 0.0
O932 O 0.58078 0.17342 0.97451 0.0
N933 N 0.57221 0.16375 0.94349 0.0
C934 C 0.57664 0.14008 0.95036 0.0
C935 C 0.58269 0.15416 0.94886 0.0
C936 C 0.56 0.15499 0.94174 0.0
N937 N 0.5624 0.14071 0.94572 0.0
O938 O 0.55255 0.18459 0.93335 0.0
H939 H 0.59381 0.15718 0.95242 0.0
H940 H 0.54909 0.159 0.93851 0.0
O941 O 0.5648 0.18726 0.96098 0.0
C942 C 0.5527 0.18285 0.91925 0.0
O943 O 0.5656 0.18032 0.91267 0.0
N944 N 0.59243 0.18624 0.94655 0.0
C945 C 0.62261 0.19388 0.94681 0.0
C946 C 0.6128 0.19961 0.95765 0.0
C947 C 0.59768 0.19577 0.95723 0.0
C948 C 0.60189 0.18021 0.93625 0.0
C949 C 0.61708 0.18352 0.93645 0.0
H950 H 0.59002 0.20157 0.96456 0.0
H951 H 0.59744 0.17341 0.9273 0.0
H952 H 0.55181 0.21127 0.94961 0.0
H953 H 0.58061 0.23808 0.92393 0.0
H954 H 0.5821 0.1303 0.95493 0.0
H955 H 0.61641 0.20805 0.96553 0.0
H956 H 0.62422 0.17881 0.92788 0.0
C957 C 0.17967 0.32878 0.18339 0.0
C958 C 0.16519 0.32349 0.18402 0.0
N959 N 0.16511 0.31071 0.19203 0.0
N960 N 0.18865 0.31941 0.19105 0.0
C961 C 0.17949 0.30854 0.1961 0.0
H962 H 0.18344 0.33863 0.1775 0.0
Co963 Co 0.20937 0.31962 0.19314 0.0
C964 C 0.21381 0.3144 0.2255 0.0
O965 O 0.22344 0.32544 0.22638 0.0
N966 N 0.23061 0.31927 0.19534 0.0
C967 C 0.25475 0.32379 0.20016 0.0
C968 C 0.24072 0.33004 0.19881 0.0
C969 C 0.23894 0.30666 0.19471 0.0
N970 N 0.25351 0.30912 0.19738 0.0
O971 O 0.20964 0.30007 0.18495 0.0
H972 H 0.23819 0.34163 0.20096 0.0
H973 H 0.23445 0.29558 0.19299 0.0
O974 O 0.20743 0.3114 0.2131 0.0
C975 C 0.21214 0.30086 0.17099 0.0
O976 O 0.21498 0.31403 0.16512 0.0
N977 N 0.20832 0.33939 0.19949 0.0
C978 C 0.20117 0.3696 0.20097 0.0
C979 C 0.19678 0.3598 0.21242 0.0
C980 C 0.20022 0.34461 0.21132 0.0
C981 C 0.21295 0.34885 0.18849 0.0
C982 C 0.20973 0.36404 0.18913 0.0
H983 H 0.1953 0.33697 0.21926 0.0
H984 H 0.21853 0.34439 0.17874 0.0
H985 H 0.18348 0.29884 0.2021 0.0
H986 H 0.15554 0.32861 0.17884 0.0
H987 H 0.26499 0.32952 0.20311 0.0
H988 H 0.18966 0.3636 0.22144 0.0
H989 H 0.21315 0.37121 0.17999 0.0
C990 C 0.06632 0.9324 0.43375 0.0
C991 C 0.07204 0.91808 0.43317 0.0
N992 N 0.08542 0.91804 0.44009 0.0
N993 N 0.07599 0.94125 0.44119 0.0
C994 C 0.08748 0.93219 0.44487 0.0
H995 H 0.05599 0.93618 0.42874 0.0
Co996 Co 0.07544 0.96182 0.44435 0.0
C997 C 0.08143 0.96453 0.47684 0.0
O998 O 0.07026 0.97388 0.47857 0.0
N999 N 0.0754 0.98297 0.44752 0.0
C1000 C 0.07035 0.00671 0.45366 0.0
C1001 C 0.06466 0.99242 0.45257 0.0
C1002 C 0.08743 0.99196 0.44566 0.0
N1003 N 0.08462 0.0063 0.44911 0.0
O1004 O 0.09478 0.96286 0.43573 0.0
H1005 H 0.05351 0.98924 0.45591 0.0
H1006 H 0.09842 0.98815 0.44243 0.0
O1007 O 0.08422 0.959 0.46399 0.0
C1008 C 0.09371 0.96564 0.42185 0.0
O1009 O 0.0804 0.96832 0.41623 0.0
N1010 N 0.05587 0.96008 0.45115 0.0
C1011 C 0.02594 0.95196 0.45291 0.0
C1012 C 0.03613 0.94721 0.46385 0.0
C1013 C 0.05118 0.95115 0.4626 0.0
C1014 C 0.04598 0.96519 0.44075 0.0
C1015 C 0.03092 0.96144 0.44152 0.0
H1016 H 0.05915 0.94594 0.47002 0.0
H1017 H 0.05004 0.97149 0.43126 0.0
H1018 H 0.09735 0.93602 0.45072 0.0
H1019 H 0.06702 0.90861 0.42756 0.0
H1020 H 0.06453 0.01656 0.45761 0.0
H1021 H 0.03277 0.93942 0.47249 0.0
H1022 H 0.02342 0.96512 0.43276 0.0
C1023 C 0.46781 0.8173 0.68178 0.0
C1024 C 0.48226 0.82267 0.68247 0.0
N1025 N 0.48261 0.83428 0.69209 0.0
N1026 N 0.45912 0.82542 0.69101 0.0
C1027 C 0.46841 0.83564 0.69706 0.0
H1028 H 0.46385 0.80826 0.6748 0.0
Co1029 Co 0.43851 0.82471 0.69395 0.0
C1030 C 0.43646 0.82508 0.72725 0.0
O1031 O 0.42786 0.81322 0.72784 0.0
N1032 N 0.41733 0.8245 0.69704 0.0
C1033 C 0.39378 0.81898 0.70351 0.0
C1034 C 0.40811 0.81353 0.70202 0.0
C1035 C 0.40813 0.83644 0.69563 0.0
N1036 N 0.3939 0.83337 0.69931 0.0
O1037 O 0.43804 0.84535 0.68917 0.0
H1038 H 0.41153 0.80234 0.70501 0.0
H1039 H 0.41171 0.84756 0.69269 0.0
O1040 O 0.44128 0.82989 0.71473 0.0
C1041 C 0.4354 0.84803 0.67549 0.0
O1042 O 0.43168 0.83694 0.66661 0.0
N1043 N 0.43982 0.80418 0.69722 0.0
C1044 C 0.4474 0.77418 0.69384 0.0
C1045 C 0.45316 0.7826 0.70579 0.0
C1046 C 0.44936 0.79767 0.70719 0.0
C1047 C 0.43368 0.79603 0.68592 0.0
C1048 C 0.43704 0.78093 0.68422 0.0
H1049 H 0.45517 0.80437 0.71537 0.0
H1050 H 0.42679 0.80153 0.67764 0.0
H1051 H 0.46459 0.8444 0.70445 0.0
H1052 H 0.49169 0.81843 0.6762 0.0
H1053 H 0.3841 0.81295 0.70757 0.0
H1054 H 0.46156 0.77801 0.71319 0.0
H1055 H 0.43233 0.77488 0.67486 0.0
C1056 C 0.71678 0.58542 0.93154 0.0
C1057 C 0.71643 0.58004 0.91709 0.0
N1058 N 0.70944 0.56669 0.91718 0.0
N1059 N 0.70986 0.57558 0.94062 0.0
C1060 C 0.70551 0.56435 0.93155 0.0
H1061 H 0.7222 0.59557 0.93524 0.0
Co1062 Co 0.7084 0.57542 0.96139 0.0
C1063 C 0.67654 0.57018 0.96738 0.0
O1064 O 0.67675 0.58095 0.97736 0.0
N1065 N 0.70697 0.57446 0.98248 0.0
C1066 C 0.70666 0.57684 0.0073 0.0
C1067 C 0.70918 0.5841 0.99391 0.0
C1068 C 0.7032 0.56153 0.98931 0.0
N1069 N 0.70285 0.56259 0.00433 0.0
O1070 O 0.71687 0.55593 0.96136 0.0
H1071 H 0.7124 0.59566 0.99285 0.0
H1072 H 0.70084 0.55137 0.98323 0.0
O1073 O 0.68834 0.56705 0.95996 0.0
C1074 C 0.73103 0.55698 0.96157 0.0
O1075 O 0.73702 0.57039 0.96198 0.0
N1076 N 0.70157 0.59517 0.96083 0.0
C1077 C 0.69894 0.62524 0.95318 0.0
C1078 C 0.68763 0.61505 0.94944 0.0
C1079 C 0.68931 0.59997 0.95308 0.0
C1080 C 0.71243 0.60504 0.96489 0.0
C1081 C 0.71122 0.62017 0.96144 0.0
H1082 H 0.68147 0.59208 0.94841 0.0
H1083 H 0.72272 0.60094 0.96974 0.0
H1084 H 0.69994 0.55439 0.93556 0.0
H1085 H 0.72158 0.58519 0.90744 0.0
H1086 H 0.7075 0.58176 0.01831 0.0
H1087 H 0.67827 0.61841 0.94253 0.0
H1088 H 0.72033 0.62762 0.96427 0.0
C1089 C 0.8125 0.46017 0.16862 0.0
C1090 C 0.81803 0.45768 0.15442 0.0
N1091 N 0.83138 0.45078 0.15565 0.0
N1092 N 0.82233 0.45483 0.17872 0.0
C1093 C 0.83362 0.44918 0.17048 0.0
H1094 H 0.80227 0.46599 0.17139 0.0
Co1095 Co 0.82284 0.45654 0.19954 0.0
C1096 C 0.82877 0.42551 0.20955 0.0
O1097 O 0.81926 0.42667 0.22068 0.0
N1098 N 0.82412 0.45819 0.22057 0.0
C1099 C 0.82174 0.46179 0.24513 0.0
C1100 C 0.81454 0.46236 0.23152 0.0
C1101 C 0.837 0.45526 0.22791 0.0
N1102 N 0.83591 0.45737 0.24277 0.0
O1103 O 0.84254 0.46446 0.19805 0.0
H1104 H 0.80307 0.46571 0.23002 0.0
H1105 H 0.847 0.45128 0.22241 0.0
O1106 O 0.83074 0.43646 0.20063 0.0
C1107 C 0.84203 0.47795 0.19365 0.0
O1108 O 0.82891 0.48407 0.19115 0.0
N1109 N 0.80303 0.45022 0.2004 0.0
C1110 C 0.7724 0.44745 0.19551 0.0
C1111 C 0.78202 0.43525 0.1931 0.0
C1112 C 0.7974 0.43692 0.19546 0.0
C1113 C 0.79381 0.46204 0.20291 0.0
C1114 C 0.77846 0.46076 0.20107 0.0
H1115 H 0.80476 0.42798 0.19209 0.0
H1116 H 0.79854 0.47284 0.20557 0.0
H1117 H 0.84379 0.44485 0.17537 0.0
H1118 H 0.81279 0.46106 0.14406 0.0
H1119 H 0.81696 0.46465 0.25587 0.0
H1120 H 0.7779 0.42494 0.1883 0.0
H1121 H 0.77152 0.47048 0.20307 0.0
C1122 C 0.92736 0.56981 0.42449 0.0
C1123 C 0.92775 0.57529 0.41008 0.0
N1124 N 0.9383 0.58604 0.40938 0.0
N1125 N 0.93764 0.57705 0.43278 0.0
C1126 C 0.94411 0.58681 0.42327 0.0
H1127 H 0.91961 0.56158 0.42878 0.0
Co1128 Co 0.94033 0.57661 0.45335 0.0
C1129 C 0.97322 0.57674 0.45758 0.0
O1130 O 0.97234 0.56639 0.46796 0.0
N1131 N 0.94304 0.57677 0.47426 0.0
C1132 C 0.941 0.57478 0.49901 0.0
C1133 C 0.93783 0.56809 0.48549 0.0
C1134 C 0.94947 0.58845 0.48131 0.0
N1135 N 0.94816 0.58771 0.49627 0.0
O1136 O 0.93625 0.5975 0.45363 0.0
H1137 H 0.93135 0.55802 0.48418 0.0
H1138 H 0.95448 0.59777 0.47545 0.0
O1139 O 0.96144 0.58105 0.45076 0.0
C1140 C 0.92433 0.60211 0.45983 0.0
O1141 O 0.91585 0.59256 0.46707 0.0
N1142 N 0.94303 0.55597 0.45247 0.0
C1143 C 0.94055 0.52549 0.44685 0.0
C1144 C 0.95356 0.53329 0.44289 0.0
C1145 C 0.95444 0.54865 0.44547 0.0
C1146 C 0.93036 0.54851 0.45641 0.0
C1147 C 0.92895 0.53322 0.45391 0.0
H1148 H 0.96379 0.55469 0.44084 0.0
H1149 H 0.92089 0.55468 0.46071 0.0
H1150 H 0.95221 0.59509 0.42676 0.0
H1151 H 0.92054 0.57193 0.40098 0.0
H1152 H 0.93736 0.57096 0.5099 0.0
H1153 H 0.96247 0.52781 0.43679 0.0
H1154 H 0.91857 0.52767 0.45676 0.0
C1155 C 0.82949 0.6764 0.6824 0.0
C1156 C 0.82412 0.67631 0.66795 0.0
N1157 N 0.81239 0.68577 0.66713 0.0
N1158 N 0.82127 0.68596 0.69062 0.0
C1159 C 0.81098 0.69146 0.68104 0.0
H1160 H 0.83854 0.66965 0.68672 0.0
Co1161 Co 0.82187 0.68933 0.71114 0.0
C1162 C 0.82121 0.72266 0.71268 0.0
O1163 O 0.83315 0.7234 0.72117 0.0
N1164 N 0.82201 0.69275 0.73225 0.0
C1165 C 0.82727 0.70006 0.75561 0.0
C1166 C 0.83282 0.69826 0.74135 0.0
C1167 C 0.81011 0.69118 0.74147 0.0
N1168 N 0.81302 0.69542 0.75557 0.0
O1169 O 0.80123 0.68449 0.71163 0.0
H1170 H 0.84392 0.70149 0.73788 0.0
H1171 H 0.79909 0.68779 0.73797 0.0
O1172 O 0.81645 0.71005 0.70801 0.0
C1173 C 0.79818 0.67083 0.71401 0.0
O1174 O 0.80904 0.6616 0.71758 0.0
N1175 N 0.8424 0.69284 0.70981 0.0
C1176 C 0.87277 0.69097 0.70316 0.0
C1177 C 0.86386 0.70229 0.6969 0.0
C1178 C 0.84864 0.7029 0.7002 0.0
C1179 C 0.85092 0.68198 0.71626 0.0
C1180 C 0.86619 0.68101 0.71332 0.0
H1181 H 0.8417 0.71065 0.69407 0.0
H1182 H 0.84567 0.67358 0.72319 0.0
H1183 H 0.8021 0.69891 0.68449 0.0
H1184 H 0.82841 0.66959 0.65886 0.0
H1185 H 0.83311 0.70469 0.76514 0.0
H1186 H 0.86831 0.70985 0.68857 0.0
H1187 H 0.87261 0.67205 0.71832 0.0
C1188 C 0.71863 0.56992 0.71821 0.0
C1189 C 0.71904 0.57483 0.73282 0.0
N1190 N 0.70848 0.58544 0.73456 0.0
N1191 N 0.70783 0.57738 0.71082 0.0
C1192 C 0.70188 0.58673 0.72106 0.0
H1193 H 0.72608 0.56184 0.71317 0.0
Co1194 Co 0.70358 0.57738 0.6905 0.0
C1195 C 0.67061 0.57792 0.6885 0.0
O1196 O 0.67083 0.5679 0.67777 0.0
N1197 N 0.6992 0.57797 0.66975 0.0
C1198 C 0.69665 0.57463 0.64519 0.0
C1199 C 0.70098 0.5681 0.65842 0.0
C1200 C 0.69354 0.59025 0.663 0.0
N1201 N 0.69205 0.58865 0.64809 0.0
O1202 O 0.70799 0.59817 0.69038 0.0
H1203 H 0.70527 0.5569 0.65937 0.0
H1204 H 0.69097 0.60042 0.66896 0.0
O1205 O 0.68279 0.58199 0.69473 0.0
C1206 C 0.72002 0.60235 0.68409 0.0
O1207 O 0.72786 0.59257 0.67644 0.0
N1208 N 0.70071 0.55679 0.69129 0.0
C1209 C 0.70431 0.52647 0.69751 0.0
C1210 C 0.69184 0.53437 0.70293 0.0
C1211 C 0.69032 0.5496 0.69982 0.0
C1212 C 0.71276 0.54926 0.68584 0.0
C1213 C 0.7145 0.53403 0.68834 0.0
H1214 H 0.68156 0.55576 0.70537 0.0
H1215 H 0.7215 0.55534 0.68011 0.0
H1216 H 0.6935 0.59503 0.7184 0.0
H1217 H 0.72674 0.57112 0.74138 0.0
H1218 H 0.69709 0.56945 0.63427 0.0
H1219 H 0.68398 0.5292 0.71054 0.0
H1220 H 0.72429 0.52847 0.68389 0.0
C1221 C 0.8332 0.45121 0.97993 0.0
C1222 C 0.82709 0.4492 0.99397 0.0
N1223 N 0.81284 0.44461 0.99231 0.0
N1224 N 0.82284 0.44775 0.96953 0.0
C1225 C 0.81068 0.44363 0.97743 0.0
H1226 H 0.84414 0.45574 0.97753 0.0
Co1227 Co 0.82279 0.45092 0.94891 0.0
C1228 C 0.81342 0.42181 0.93622 0.0
O1229 O 0.82266 0.42338 0.92491 0.0
N1230 N 0.82208 0.45426 0.9281 0.0
C1231 C 0.82555 0.45848 0.90378 0.0
C1232 C 0.83243 0.45746 0.91755 0.0
C1233 C 0.80908 0.45363 0.92044 0.0
N1234 N 0.81083 0.45612 0.90572 0.0
O1235 O 0.80406 0.46091 0.95081 0.0
H1236 H 0.84425 0.45884 0.91946 0.0
H1237 H 0.7985 0.45073 0.92553 0.0
O1238 O 0.8127 0.43185 0.94634 0.0
C1239 C 0.80578 0.47402 0.95598 0.0
O1240 O 0.81938 0.47864 0.95908 0.0
N1241 N 0.84178 0.4424 0.9477 0.0
C1242 C 0.8717 0.43522 0.95264 0.0
C1243 C 0.86061 0.4241 0.95305 0.0
C1244 C 0.84564 0.42798 0.95088 0.0
C1245 C 0.85244 0.45321 0.94684 0.0
C1246 C 0.86745 0.44986 0.94905 0.0
H1247 H 0.83723 0.4196 0.95293 0.0
H1248 H 0.84911 0.46474 0.94537 0.0
H1249 H 0.80013 0.44071 0.97229 0.0
H1250 H 0.83239 0.45189 0.0045 0.0
H1251 H 0.83095 0.4608 0.89321 0.0
H1252 H 0.86335 0.41267 0.95596 0.0
H1253 H 0.87544 0.45895 0.94915 0.0
C1254 C 0.93603 0.58314 0.22157 0.0
C1255 C 0.93671 0.57766 0.23597 0.0
N1256 N 0.94409 0.56452 0.23573 0.0
N1257 N 0.94302 0.57352 0.21232 0.0
C1258 C 0.94776 0.56232 0.22126 0.0
H1259 H 0.93044 0.59326 0.21803 0.0
Co1260 Co 0.94428 0.57377 0.19154 0.0
C1261 C 0.97604 0.56718 0.18549 0.0
O1262 O 0.97664 0.57783 0.17539 0.0
N1263 N 0.94543 0.57332 0.17041 0.0
C1264 C 0.94362 0.57645 0.14574 0.0
C1265 C 0.94245 0.58334 0.15947 0.0
C1266 C 0.94844 0.56055 0.16293 0.0
N1267 N 0.94726 0.56204 0.14798 0.0
O1268 O 0.93536 0.55453 0.19118 0.0
H1269 H 0.93918 0.59481 0.16106 0.0
H1270 H 0.95135 0.55019 0.16845 0.0
O1271 O 0.96397 0.56482 0.19271 0.0
C1272 C 0.92127 0.55615 0.19082 0.0
O1273 O 0.91583 0.56981 0.19064 0.0
N1274 N 0.95155 0.59328 0.19241 0.0
C1275 C 0.95479 0.62338 0.19965 0.0
C1276 C 0.96613 0.61308 0.2031 0.0
C1277 C 0.96418 0.59796 0.19961 0.0
C1278 C 0.94059 0.60322 0.18884 0.0
C1279 C 0.94216 0.61834 0.19193 0.0
H1280 H 0.97217 0.59 0.20387 0.0
H1281 H 0.93006 0.59919 0.1845 0.0
H1282 H 0.95314 0.55235 0.21705 0.0
H1283 H 0.93191 0.58286 0.24578 0.0
H1284 H 0.94133 0.58154 0.135 0.0
H1285 H 0.9758 0.61642 0.20958 0.0
H1286 H 0.93305 0.62586 0.18924 0.0
C1287 C 0.81862 0.68069 0.46441 0.0
C1288 C 0.82393 0.67994 0.47887 0.0
N1289 N 0.83613 0.68871 0.4799 0.0
N1290 N 0.82733 0.69007 0.45645 0.0
C1291 C 0.83787 0.69475 0.46619 0.0
H1292 H 0.80933 0.67443 0.45987 0.0
Co1293 Co 0.82692 0.69405 0.436 0.0
C1294 C 0.82808 0.72737 0.43531 0.0
O1295 O 0.81625 0.72846 0.42671 0.0
N1296 N 0.82696 0.69807 0.41499 0.0
C1297 C 0.8218 0.70571 0.3917 0.0
C1298 C 0.81621 0.70381 0.40593 0.0
C1299 C 0.83886 0.69653 0.40578 0.0
N1300 N 0.836 0.70093 0.39171 0.0
O1301 O 0.84747 0.68889 0.43547 0.0
H1302 H 0.80511 0.70702 0.40942 0.0
H1303 H 0.84983 0.69296 0.40924 0.0
O1304 O 0.83261 0.7146 0.43976 0.0
C1305 C 0.8501 0.67524 0.43257 0.0
O1306 O 0.83896 0.6665 0.42869 0.0
N1307 N 0.80645 0.69778 0.43729 0.0
C1308 C 0.77616 0.69547 0.44406 0.0
C1309 C 0.78496 0.70679 0.45045 0.0
C1310 C 0.80017 0.70762 0.44708 0.0
C1311 C 0.79798 0.68702 0.43061 0.0
C1312 C 0.78275 0.68583 0.43363 0.0
H1313 H 0.80707 0.71529 0.45334 0.0
H1314 H 0.80328 0.67879 0.42352 0.0
H1315 H 0.84693 0.70215 0.46311 0.0
H1316 H 0.81958 0.67291 0.4877 0.0
H1317 H 0.81599 0.71041 0.38218 0.0
H1318 H 0.78048 0.71413 0.45897 0.0
H1319 H 0.7764 0.67689 0.42851 0.0
C1320 C 0.92093 0.7059 0.58505 0.0
C1321 C 0.90702 0.70396 0.57866 0.0
N1322 N 0.90889 0.69882 0.56461 0.0
N1323 N 0.93151 0.70193 0.57509 0.0
C1324 C 0.92383 0.69771 0.56281 0.0
H1325 H 0.92316 0.71033 0.59607 0.0
Co1326 Co 0.95224 0.7036 0.57603 0.0
C1327 C 0.96325 0.6739 0.56626 0.0
O1328 O 0.97402 0.67409 0.57625 0.0
N1329 N 0.97325 0.7055 0.57628 0.0
C1330 C 0.9975 0.7094 0.58054 0.0
C1331 C 0.98346 0.70881 0.58693 0.0
C1332 C 0.98138 0.70432 0.56362 0.0
N1333 N 0.99608 0.70665 0.56582 0.0
O1334 O 0.95176 0.71402 0.55757 0.0
H1335 H 0.98106 0.71086 0.59856 0.0
H1336 H 0.97654 0.70145 0.55292 0.0
O1337 O 0.95403 0.68477 0.56544 0.0
C1338 C 0.95169 0.7281 0.5593 0.0
O1339 O 0.95252 0.73349 0.57294 0.0
N1340 N 0.95205 0.6944 0.59479 0.0
C1341 C 0.94582 0.68599 0.62418 0.0
C1342 C 0.94507 0.67553 0.6125 0.0
C1343 C 0.9478 0.68006 0.59782 0.0
C1344 C 0.95321 0.70459 0.60602 0.0
C1345 C 0.95031 0.70062 0.62078 0.0
H1346 H 0.94541 0.67226 0.58897 0.0
H1347 H 0.95546 0.71616 0.60334 0.0
H1348 H 0.92921 0.69463 0.55243 0.0
H1349 H 0.8964 0.70641 0.58391 0.0
H1350 H 0.00787 0.71193 0.58623 0.0
H1351 H 0.94152 0.66414 0.61453 0.0
H1352 H 0.9505 0.70929 0.62922 0.0
C1353 C 0.42572 0.93259 0.57039 0.0
C1354 C 0.41139 0.93363 0.57602 0.0
N1355 N 0.41174 0.94211 0.58849 0.0
N1356 N 0.43505 0.94046 0.57922 0.0
C1357 C 0.42622 0.94608 0.59009 0.0
H1358 H 0.42914 0.92623 0.56071 0.0
Co1359 Co 0.4558 0.94222 0.57859 0.0
C1360 C 0.46119 0.97476 0.58135 0.0
O1361 O 0.47138 0.97453 0.57078 0.0
N1362 N 0.47705 0.94415 0.5785 0.0
C1363 C 0.50145 0.94625 0.57331 0.0
C1364 C 0.48732 0.94469 0.56734 0.0
C1365 C 0.48535 0.94568 0.59104 0.0
N1366 N 0.50006 0.94668 0.58821 0.0
O1367 O 0.45613 0.93625 0.59897 0.0
H1368 H 0.48496 0.94422 0.55553 0.0
H1369 H 0.48082 0.9463 0.60221 0.0
O1370 O 0.4542 0.96283 0.58485 0.0
C1371 C 0.46052 0.92306 0.60182 0.0
O1372 O 0.46588 0.91477 0.59095 0.0
N1373 N 0.45468 0.9467 0.55831 0.0
C1374 C 0.44896 0.94696 0.52776 0.0
C1375 C 0.44504 0.95923 0.53671 0.0
C1376 C 0.44773 0.95877 0.55207 0.0
C1377 C 0.45854 0.93471 0.54976 0.0
C1378 C 0.45607 0.93472 0.53442 0.0
H1379 H 0.44328 0.96759 0.55897 0.0
H1380 H 0.4632 0.92488 0.55504 0.0
H1381 H 0.43055 0.9524 0.59943 0.0
H1382 H 0.40157 0.92834 0.57136 0.0
H1383 H 0.5119 0.94674 0.56723 0.0
H1384 H 0.43893 0.96861 0.53209 0.0
H1385 H 0.45906 0.92494 0.52795 0.0
C1386 C 0.46548 0.17946 0.81548 0.0
C1387 C 0.46466 0.16508 0.82105 0.0
N1388 N 0.45604 0.16523 0.83343 0.0
N1389 N 0.45733 0.18858 0.82427 0.0
C1390 C 0.4518 0.17962 0.83506 0.0
H1391 H 0.47184 0.18308 0.80586 0.0
Co1392 Co 0.45523 0.20929 0.82376 0.0
C1393 C 0.42248 0.21325 0.82656 0.0
O1394 O 0.42213 0.222 0.81479 0.0
N1395 N 0.45297 0.23058 0.82385 0.0
C1396 C 0.44673 0.25439 0.8192 0.0
C1397 C 0.44835 0.24032 0.81315 0.0
C1398 C 0.45415 0.23924 0.8362 0.0
N1399 N 0.45055 0.25359 0.83366 0.0
O1400 O 0.46228 0.20961 0.84379 0.0
H1401 H 0.44531 0.23743 0.80184 0.0
H1402 H 0.45666 0.23511 0.84725 0.0
O1403 O 0.4348 0.20742 0.83081 0.0
C1404 C 0.47637 0.21146 0.84372 0.0
O1405 O 0.48299 0.21409 0.83087 0.0
N1406 N 0.45002 0.20814 0.80363 0.0
C1407 C 0.45034 0.20106 0.77332 0.0
C1408 C 0.43906 0.19548 0.78275 0.0
C1409 C 0.43919 0.19904 0.79795 0.0
C1410 C 0.46082 0.21392 0.79458 0.0
C1411 C 0.46089 0.21095 0.77934 0.0
H1412 H 0.43144 0.19341 0.8053 0.0
H1413 H 0.46985 0.22035 0.79939 0.0
H1414 H 0.44535 0.18379 0.8444 0.0
H1415 H 0.47016 0.15537 0.81641 0.0
H1416 H 0.44262 0.26428 0.81357 0.0
H1417 H 0.431 0.18739 0.77875 0.0
H1418 H 0.46977 0.21557 0.77253 0.0
C1419 C 0.22168 0.20864 0.06414 0.0
C1420 C 0.23597 0.20706 0.06972 0.0
N1421 N 0.23517 0.19986 0.08294 0.0
N1422 N 0.21193 0.20238 0.07376 0.0
C1423 C 0.22046 0.19718 0.08506 0.0
H1424 H 0.2186 0.21436 0.05395 0.0
Co1425 Co 0.19113 0.20246 0.07352 0.0
C1426 C 0.18256 0.17124 0.07981 0.0
O1427 O 0.17214 0.17191 0.06947 0.0
N1428 N 0.17004 0.20265 0.07396 0.0
C1429 C 0.14538 0.20411 0.0707 0.0
C1430 C 0.15917 0.20575 0.06393 0.0
C1431 C 0.16255 0.19936 0.08663 0.0
N1432 N 0.14761 0.19998 0.085 0.0
O1433 O 0.19146 0.21113 0.09288 0.0
H1434 H 0.16093 0.20898 0.05245 0.0
H1435 H 0.1681 0.19657 0.09699 0.0
O1436 O 0.19099 0.18252 0.08223 0.0
C1437 C 0.18992 0.22522 0.09212 0.0
O1438 O 0.18765 0.23131 0.07894 0.0
N1439 N 0.19149 0.19526 0.05393 0.0
C1440 C 0.19914 0.19101 0.02398 0.0
C1441 C 0.20053 0.17932 0.03439 0.0
C1442 C 0.1972 0.18185 0.0494 0.0
C1443 C 0.18927 0.20645 0.04386 0.0
C1444 C 0.19294 0.20457 0.02885 0.0
H1445 H 0.20042 0.17342 0.05737 0.0
H1446 H 0.18583 0.21736 0.04775 0.0
H1447 H 0.21583 0.19219 0.09506 0.0
H1448 H 0.2461 0.21114 0.06453 0.0
H1449 H 0.1346 0.20568 0.06543 0.0
H1450 H 0.20518 0.16861 0.03123 0.0
H1451 H 0.19207 0.21413 0.0215 0.0
C1452 C 0.69088 0.47868 0.81502 0.0
C1453 C 0.69222 0.49281 0.82105 0.0
N1454 N 0.6981 0.49153 0.83487 0.0
N1455 N 0.69595 0.46857 0.82498 0.0
C1456 C 0.70019 0.47673 0.83693 0.0
H1457 H 0.68612 0.47596 0.80425 0.0
Co1458 Co 0.69556 0.44778 0.82421 0.0
C1459 C 0.72549 0.43832 0.83538 0.0
O1460 O 0.72584 0.42669 0.82645 0.0
N1461 N 0.69496 0.42662 0.82386 0.0
C1462 C 0.69644 0.40231 0.81838 0.0
C1463 C 0.69651 0.41659 0.81261 0.0
C1464 C 0.69376 0.41806 0.83625 0.0
N1465 N 0.69458 0.40337 0.83322 0.0
O1466 O 0.68492 0.44789 0.84255 0.0
H1467 H 0.69821 0.41923 0.80098 0.0
H1468 H 0.69314 0.42245 0.84749 0.0
O1469 O 0.71434 0.44723 0.83512 0.0
C1470 C 0.67085 0.4481 0.84067 0.0
O1471 O 0.6656 0.44727 0.82697 0.0
N1472 N 0.70489 0.44842 0.80563 0.0
C1473 C 0.71324 0.45411 0.77618 0.0
C1474 C 0.72376 0.45501 0.78782 0.0
C1475 C 0.71927 0.45246 0.80255 0.0
C1476 C 0.69464 0.44714 0.79445 0.0
C1477 C 0.69858 0.44978 0.77966 0.0
H1478 H 0.72716 0.45467 0.81137 0.0
H1479 H 0.68313 0.44464 0.7972 0.0
H1480 H 0.704 0.4718 0.84728 0.0
H1481 H 0.68894 0.50316 0.81574 0.0
H1482 H 0.69788 0.392 0.81222 0.0
H1483 H 0.73516 0.45846 0.78568 0.0
H1484 H 0.68992 0.44942 0.77123 0.0
C1485 C 0.71357 0.42829 0.08354 0.0
C1486 C 0.72833 0.42782 0.07912 0.0
N1487 N 0.72995 0.43668 0.06703 0.0
N1488 N 0.70596 0.43747 0.07433 0.0
C1489 C 0.71621 0.44238 0.06443 0.0
H1490 H 0.70864 0.42195 0.09257 0.0
Co1491 Co 0.68549 0.4409 0.07337 0.0
C1492 C 0.68247 0.4736 0.06933 0.0
O1493 O 0.67169 0.47411 0.07928 0.0
N1494 N 0.66459 0.44433 0.07186 0.0
C1495 C 0.63999 0.44745 0.07498 0.0
C1496 C 0.65339 0.44465 0.08207 0.0
C1497 C 0.65761 0.44715 0.05876 0.0
N1498 N 0.64277 0.44882 0.06031 0.0
O1499 O 0.68611 0.43434 0.05318 0.0
H1500 H 0.65461 0.44301 0.09394 0.0
H1501 H 0.66326 0.44811 0.04812 0.0
O1502 O 0.68905 0.46124 0.06654 0.0
C1503 C 0.68082 0.42155 0.05004 0.0
O1504 O 0.67385 0.4139 0.06046 0.0
N1505 N 0.68563 0.446 0.09358 0.0
C1506 C 0.69149 0.44627 0.12412 0.0
C1507 C 0.69606 0.45819 0.11501 0.0
C1508 C 0.69332 0.45768 0.09967 0.0
C1509 C 0.68082 0.43451 0.10236 0.0
C1510 C 0.68345 0.4345 0.1177 0.0
H1511 H 0.69853 0.466 0.09268 0.0
H1512 H 0.67566 0.42486 0.09723 0.0
H1513 H 0.71342 0.44933 0.05493 0.0
H1514 H 0.73708 0.42121 0.08423 0.0
H1515 H 0.62904 0.44803 0.08011 0.0
H1516 H 0.70287 0.46716 0.11946 0.0
H1517 H 0.68002 0.42497 0.12432 0.0
C1518 C 0.46437 0.96514 0.83353 0.0
C1519 C 0.46384 0.97942 0.82775 0.0
N1520 N 0.45625 0.97904 0.81472 0.0
N1521 N 0.45704 0.95582 0.82426 0.0
C1522 C 0.45225 0.96458 0.81294 0.0
H1523 H 0.47008 0.96173 0.84362 0.0
Co1524 Co 0.45561 0.93506 0.82504 0.0
C1525 C 0.42355 0.92911 0.81967 0.0
O1526 O 0.42318 0.91941 0.83068 0.0
N1527 N 0.45424 0.91377 0.82533 0.0
C1528 C 0.45045 0.88962 0.83065 0.0
C1529 C 0.45127 0.90387 0.83644 0.0
C1530 C 0.45519 0.90508 0.81299 0.0
N1531 N 0.45309 0.8905 0.81593 0.0
O1532 O 0.46381 0.93453 0.80551 0.0
H1533 H 0.44907 0.90666 0.84795 0.0
H1534 H 0.45668 0.90929 0.80177 0.0
O1535 O 0.43562 0.93611 0.81669 0.0
C1536 C 0.47795 0.93348 0.80613 0.0
O1537 O 0.48424 0.93168 0.81929 0.0
N1538 N 0.44905 0.93646 0.84474 0.0
C1539 C 0.44664 0.94455 0.87465 0.0
C1540 C 0.43522 0.9481 0.86449 0.0
C1541 C 0.43677 0.94419 0.84946 0.0
C1542 C 0.46004 0.93262 0.85456 0.0
C1543 C 0.45894 0.9363 0.86962 0.0
H1544 H 0.42877 0.94852 0.84154 0.0
H1545 H 0.47012 0.92732 0.85047 0.0
H1546 H 0.44662 0.96024 0.80317 0.0
H1547 H 0.46889 0.98924 0.83267 0.0
H1548 H 0.44789 0.87947 0.83672 0.0
H1549 H 0.42583 0.95496 0.86784 0.0
H1550 H 0.46807 0.93351 0.87707 0.0
C1551 C 0.18675 0.17377 0.331 0.0
C1552 C 0.18769 0.15955 0.32517 0.0
N1553 N 0.19524 0.16025 0.31214 0.0
N1554 N 0.19371 0.18337 0.32173 0.0
C1555 C 0.19876 0.17481 0.31036 0.0
H1556 H 0.18084 0.17698 0.34104 0.0
Co1557 Co 0.19365 0.20412 0.32271 0.0
C1558 C 0.224 0.21335 0.31371 0.0
O1559 O 0.22415 0.22369 0.32413 0.0
N1560 N 0.19333 0.2253 0.32318 0.0
C1561 C 0.19447 0.2497 0.3284 0.0
C1562 C 0.19396 0.23548 0.33438 0.0
C1563 C 0.19328 0.23369 0.31062 0.0
N1564 N 0.19388 0.24841 0.31347 0.0
O1565 O 0.1834 0.20436 0.30418 0.0
H1566 H 0.19454 0.23298 0.34615 0.0
H1567 H 0.19356 0.22913 0.29943 0.0
O1568 O 0.21267 0.20478 0.31226 0.0
C1569 C 0.16934 0.20549 0.30576 0.0
O1570 O 0.16391 0.20707 0.31932 0.0
N1571 N 0.20262 0.20304 0.34154 0.0
C1572 C 0.21051 0.196 0.37088 0.0
C1573 C 0.22091 0.19457 0.35919 0.0
C1574 C 0.21658 0.19765 0.34454 0.0
C1575 C 0.19251 0.20484 0.35276 0.0
C1576 C 0.19623 0.20152 0.3675 0.0
H1577 H 0.22418 0.19469 0.33568 0.0
H1578 H 0.18119 0.20818 0.35009 0.0
H1579 H 0.20411 0.17932 0.30049 0.0
H1580 H 0.18288 0.14954 0.32996 0.0
H1581 H 0.19537 0.26011 0.33449 0.0
H1582 H 0.23204 0.19027 0.36118 0.0
H1583 H 0.18761 0.20233 0.37595 0.0
H1584 H 0.1995 0.39082 0.22297 0.0
H1585 H 0.18777 0.38231 0.17695 0.0
H1586 H 0.18488 0.4139 0.22236 0.0
H1587 H 0.17281 0.40484 0.17643 0.0
H1588 H 0.14609 0.44611 0.17697 0.0
H1589 H 0.16886 0.43092 0.17733 0.0
H1590 H 0.15886 0.4174 0.22265 0.0
H1591 H 0.13665 0.43266 0.22236 0.0
C1592 C 0.19399 0.39403 0.21268 0.0
C1593 C 0.19467 0.38477 0.20006 0.0
C1594 C 0.18558 0.40719 0.21231 0.0
C1595 C 0.17746 0.41114 0.19941 0.0
C1596 C 0.17904 0.40234 0.1865 0.0
C1597 C 0.18759 0.38933 0.18681 0.0
C1598 C 0.14901 0.44011 0.18707 0.0
C1599 C 0.1396 0.44058 0.19962 0.0
C1600 C 0.16201 0.4314 0.1873 0.0
C1601 C 0.16568 0.42285 0.2 0.0
C1602 C 0.15664 0.42403 0.21277 0.0
C1603 C 0.1438 0.43279 0.21259 0.0
H1604 H 0.95178 0.89444 0.42738 0.0
H1605 H 0.96432 0.88497 0.47299 0.0
H1606 H 0.96648 0.91749 0.42819 0.0
H1607 H 0.97935 0.90738 0.4737 0.0
H1608 H 0.00487 0.9488 0.47486 0.0
H1609 H 0.98242 0.93325 0.47386 0.0
H1610 H 0.99209 0.92267 0.42767 0.0
H1611 H 0.01388 0.93868 0.42858 0.0
C1612 C 0.95754 0.8974 0.43761 0.0
C1613 C 0.95692 0.88797 0.45011 0.0
C1614 C 0.966 0.91054 0.43808 0.0
C1615 C 0.97422 0.91431 0.45099 0.0
C1616 C 0.97298 0.90512 0.46367 0.0
C1617 C 0.96439 0.89217 0.46325 0.0
C1618 C 0.00189 0.94341 0.46444 0.0
C1619 C 0.01108 0.94486 0.45184 0.0
C1620 C 0.98911 0.93445 0.46385 0.0
C1621 C 0.98553 0.92647 0.45075 0.0
C1622 C 0.99429 0.92875 0.4379 0.0
C1623 C 0.00687 0.9379 0.43842 0.0
H1624 H 0.50103 0.69254 0.69171 0.0
H1625 H 0.52129 0.72854 0.66658 0.0
H1626 H 0.47758 0.70656 0.69264 0.0
H1627 H 0.49793 0.74206 0.66707 0.0
H1628 H 0.455 0.76408 0.6661 0.0
H1629 H 0.47105 0.74304 0.66012 0.0
H1630 H 0.47223 0.73059 0.70672 0.0
H1631 H 0.45566 0.75142 0.71272 0.0
C1632 C 0.50043 0.70325 0.68611 0.0
C1633 C 0.51316 0.70947 0.67924 0.0
C1634 C 0.48699 0.71122 0.68661 0.0
C1635 C 0.48597 0.72541 0.68 0.0
C1636 C 0.4983 0.73105 0.67209 0.0
C1637 C 0.51174 0.72322 0.67177 0.0
C1638 C 0.45814 0.75654 0.67503 0.0
C1639 C 0.45419 0.75955 0.68995 0.0
C1640 C 0.46746 0.74454 0.67158 0.0
C1641 C 0.47306 0.73534 0.68296 0.0
C1642 C 0.46804 0.73749 0.69769 0.0
C1643 C 0.45869 0.74951 0.70116 0.0
H1644 H 0.64284 0.20311 0.96807 0.0
H1645 H 0.63588 0.20101 0.92028 0.0
H1646 H 0.66348 0.22055 0.96414 0.0
H1647 H 0.65674 0.21785 0.91646 0.0
H1648 H 0.6664 0.26902 0.92353 0.0
H1649 H 0.65427 0.24497 0.92368 0.0
H1650 H 0.689 0.22722 0.95207 0.0
H1651 H 0.70182 0.25137 0.95137 0.0
C1652 C 0.64599 0.20597 0.95674 0.0
C1653 C 0.6375 0.20087 0.94454 0.0
C1654 C 0.65792 0.21581 0.95449 0.0
C1655 C 0.66151 0.22068 0.94 0.0
C1656 C 0.65407 0.21436 0.92775 0.0
C1657 C 0.64217 0.20459 0.92998 0.0
C1658 C 0.67191 0.25994 0.92931 0.0
C1659 C 0.68514 0.26226 0.93747 0.0
C1660 C 0.66486 0.24609 0.92944 0.0
C1661 C 0.67071 0.23424 0.93788 0.0
C1662 C 0.68425 0.23623 0.94552 0.0
C1663 C 0.6915 0.25008 0.94518 0.0
H1664 H 0.20385 0.74934 0.44974 0.0
H1665 H 0.16869 0.7711 0.42462 0.0
H1666 H 0.18843 0.72684 0.45154 0.0
H1667 H 0.15385 0.74858 0.42586 0.0
H1668 H 0.13113 0.7055 0.4246 0.0
H1669 H 0.15246 0.72126 0.41896 0.0
H1670 H 0.16341 0.72341 0.46589 0.0
H1671 H 0.14216 0.70717 0.47162 0.0
C1672 C 0.19302 0.74927 0.44434 0.0
C1673 C 0.18748 0.76217 0.43719 0.0
C1674 C 0.18425 0.73637 0.44534 0.0
C1675 C 0.16995 0.73603 0.43891 0.0
C1676 C 0.16492 0.74846 0.43077 0.0
C1677 C 0.17353 0.7614 0.42999 0.0
C1678 C 0.13836 0.70882 0.43372 0.0
C1679 C 0.13488 0.70512 0.44861 0.0
C1680 C 0.15052 0.71796 0.43045 0.0
C1681 C 0.15947 0.72364 0.44198 0.0
C1682 C 0.15672 0.71909 0.45677 0.0
C1683 C 0.14448 0.70994 0.46007 0.0
H1684 H 0.64518 0.94649 0.6793 0.0
H1685 H 0.63633 0.9318 0.72439 0.0
H1686 H 0.66899 0.93305 0.67965 0.0
H1687 H 0.65956 0.91797 0.72462 0.0
H1688 H 0.70168 0.89334 0.72412 0.0
H1689 H 0.6857 0.91552 0.72431 0.0
H1690 H 0.67432 0.90748 0.67802 0.0
H1691 H 0.69051 0.88591 0.67776 0.0
C1692 C 0.64845 0.94055 0.68933 0.0
C1693 C 0.63893 0.94009 0.70177 0.0
C1694 C 0.66203 0.93282 0.68955 0.0
C1695 C 0.66615 0.92425 0.7021 0.0
C1696 C 0.65697 0.92461 0.71484 0.0
C1697 C 0.64355 0.93249 0.71469 0.0
C1698 C 0.69601 0.89661 0.71393 0.0
C1699 C 0.69729 0.88789 0.70096 0.0
C1700 C 0.68683 0.90926 0.71403 0.0
C1701 C 0.67855 0.91322 0.70123 0.0
C1702 C 0.68066 0.905 0.68802 0.0
C1703 C 0.68994 0.89253 0.68788 0.0
H1704 H 0.50293 0.44746 0.96596 0.0
H1705 H 0.51055 0.44781 0.91823 0.0
H1706 H 0.48216 0.43011 0.96236 0.0
H1707 H 0.48955 0.43109 0.9147 0.0
H1708 H 0.4775 0.38064 0.92274 0.0
H1709 H 0.49044 0.4043 0.92208 0.0
H1710 H 0.45689 0.42379 0.95077 0.0
H1711 H 0.4434 0.40001 0.95103 0.0
C1712 C 0.49992 0.4442 0.95469 0.0
C1713 C 0.50857 0.44887 0.94244 0.0
C1714 C 0.48792 0.43441 0.95262 0.0
C1715 C 0.48441 0.42912 0.93825 0.0
C1716 C 0.49214 0.43488 0.9259 0.0
C1717 C 0.50412 0.44461 0.92796 0.0
C1718 C 0.47245 0.39004 0.92843 0.0
C1719 C 0.45942 0.38831 0.93704 0.0
C1720 C 0.47995 0.40366 0.92809 0.0
C1721 C 0.4747 0.41587 0.93644 0.0
C1722 C 0.46123 0.41449 0.94435 0.0
C1723 C 0.45357 0.40087 0.94453 0.0
H1724 H 0.00998 0.21204 0.21773 0.0
H1725 H 0.00414 0.20055 0.17122 0.0
H1726 H 0.98729 0.2266 0.21715 0.0
H1727 H 0.9809 0.21497 0.17067 0.0
H1728 H 0.96209 0.26369 0.1711 0.0
H1729 H 0.97678 0.24101 0.17056 0.0
H1730 H 0.96129 0.22989 0.21498 0.0
H1731 H 0.9469 0.25311 0.21565 0.0
C1732 C 0.00352 0.21218 0.20749 0.0
C1733 C 0.00889 0.20524 0.19448 0.0
C1734 C 0.9904 0.22051 0.20716 0.0
C1735 C 0.98225 0.22208 0.19382 0.0
C1736 C 0.98705 0.21421 0.18106 0.0
C1737 C 0.00032 0.20595 0.18136 0.0
C1738 C 0.96143 0.25618 0.18057 0.0
C1739 C 0.9535 0.26023 0.1935 0.0
C1740 C 0.96983 0.24308 0.18025 0.0
C1741 C 0.97042 0.23368 0.19282 0.0
C1742 C 0.96136 0.23706 0.20524 0.0
C1743 C 0.95309 0.2503 0.20563 0.0
H1744 H 0.23245 0.13552 0.44245 0.0
H1745 H 0.18517 0.14546 0.44426 0.0
H1746 H 0.23652 0.15745 0.42712 0.0
H1747 H 0.18925 0.16711 0.42819 0.0
H1748 H 0.20069 0.20582 0.39844 0.0
H1749 H 0.20151 0.19192 0.42197 0.0
H1750 H 0.22826 0.15783 0.40074 0.0
H1751 H 0.22699 0.17112 0.37738 0.0
C1752 C 0.22296 0.14263 0.44005 0.0
C1753 C 0.2084 0.13853 0.44438 0.0
C1754 C 0.22532 0.15517 0.43113 0.0
C1755 C 0.21318 0.16379 0.42621 0.0
C1756 C 0.19884 0.16066 0.43181 0.0
C1757 C 0.19647 0.14814 0.44084 0.0
C1758 C 0.2069 0.19544 0.39885 0.0
C1759 C 0.21363 0.18956 0.38589 0.0
C1760 C 0.20743 0.18756 0.41235 0.0
C1761 C 0.21494 0.17381 0.41318 0.0
C1762 C 0.2226 0.16854 0.40055 0.0
C1763 C 0.2219 0.17625 0.38708 0.0
H1764 H 0.18905 0.94556 0.65294 0.0
H1765 H 0.22189 0.97419 0.63188 0.0
H1766 H 0.20447 0.94481 0.67551 0.0
H1767 H 0.23661 0.97393 0.65439 0.0
H1768 H 0.2602 0.97612 0.69623 0.0
H1769 H 0.23794 0.98033 0.68142 0.0
H1770 H 0.23029 0.93276 0.67914 0.0
H1771 H 0.25238 0.92845 0.69464 0.0
C1772 C 0.19932 0.95195 0.65317 0.0
C1773 C 0.20423 0.95981 0.64043 0.0
C1774 C 0.20809 0.95155 0.66613 0.0
C1775 C 0.22174 0.95927 0.66667 0.0
C1776 C 0.22603 0.96804 0.6544 0.0
C1777 C 0.21746 0.96825 0.64143 0.0
C1778 C 0.25351 0.96653 0.69315 0.0
C1779 C 0.25821 0.95189 0.69652 0.0
C1780 C 0.24078 0.96898 0.68453 0.0
C1781 C 0.23253 0.95689 0.67897 0.0
C1782 C 0.23644 0.94231 0.68334 0.0
C1783 C 0.24919 0.93983 0.69204 0.0
H1784 H 0.42231 0.01238 0.93281 0.0
H1785 H 0.46738 0.00442 0.94814 0.0
H1786 H 0.42268 0.98908 0.91916 0.0
H1787 H 0.46767 0.98061 0.93473 0.0
H1788 H 0.47004 0.95897 0.88742 0.0
H1789 H 0.46953 0.97519 0.909 0.0
H1790 H 0.42353 0.96281 0.91729 0.0
H1791 H 0.42398 0.94679 0.89516 0.0
C1792 C 0.43213 0.00536 0.93368 0.0
C1793 C 0.44486 0.01026 0.94144 0.0
C1794 C 0.43233 0.9919 0.92589 0.0
C1795 C 0.44525 0.98296 0.92572 0.0
C1796 C 0.45763 0.98736 0.93439 0.0
C1797 C 0.45748 0.00096 0.94208 0.0
C1798 C 0.45995 0.95932 0.89411 0.0
C1799 C 0.44699 0.95172 0.88954 0.0
C1800 C 0.45966 0.96862 0.90657 0.0
C1801 C 0.44643 0.97048 0.91483 0.0
C1802 C 0.43382 0.96188 0.91098 0.0
C1803 C 0.43406 0.95268 0.89836 0.0
H1804 H 0.43634 0.21867 0.13605 0.0
H1805 H 0.44911 0.1726 0.14259 0.0
H1806 H 0.4219 0.21807 0.15882 0.0
H1807 H 0.43496 0.17206 0.16597 0.0
H1808 H 0.38634 0.17088 0.18455 0.0
H1809 H 0.40908 0.17105 0.17 0.0
H1810 H 0.41818 0.21622 0.18467 0.0
H1811 H 0.39483 0.21616 0.19887 0.0
C1812 C 0.43652 0.20855 0.1427 0.0
C1813 C 0.44373 0.19562 0.13749 0.0
C1814 C 0.42827 0.20822 0.15587 0.0
C1815 C 0.4271 0.19496 0.16422 0.0
C1816 C 0.43536 0.18237 0.15964 0.0
C1817 C 0.44349 0.18265 0.1463 0.0
C1818 C 0.39342 0.1807 0.18504 0.0
C1819 C 0.38876 0.19358 0.19269 0.0
C1820 C 0.40656 0.18078 0.17673 0.0
C1821 C 0.41543 0.19373 0.17597 0.0
C1822 C 0.41143 0.20618 0.18473 0.0
C1823 C 0.39811 0.20616 0.19289 0.0
H1824 H 0.17736 0.00155 0.20614 0.0
H1825 H 0.22494 0.00806 0.20066 0.0
H1826 H 0.18228 0.97933 0.22119 0.0
H1827 H 0.22973 0.98567 0.21517 0.0
H1828 H 0.22513 0.97304 0.26638 0.0
H1829 H 0.22473 0.986 0.24285 0.0
H1830 H 0.19423 0.95324 0.22488 0.0
H1831 H 0.19522 0.93947 0.24847 0.0
C1832 C 0.18882 0.998 0.20774 0.0
C1833 C 0.20074 0.00675 0.20245 0.0
C1834 C 0.19163 0.98516 0.21618 0.0
C1835 C 0.2064 0.98092 0.21947 0.0
C1836 C 0.21825 0.98878 0.21287 0.0
C1837 C 0.21546 0.00158 0.20447 0.0
C1838 C 0.21888 0.96804 0.25732 0.0
C1839 C 0.21004 0.95522 0.25953 0.0
C1840 C 0.21861 0.97559 0.24374 0.0
C1841 C 0.20935 0.97068 0.23208 0.0
C1842 C 0.20136 0.9573 0.23378 0.0
C1843 C 0.20186 0.94952 0.24733 0.0
H1844 H 0.39437 0.92423 0.45147 0.0
H1845 H 0.3872 0.97017 0.46442 0.0
H1846 H 0.41788 0.92404 0.46541 0.0
H1847 H 0.4102 0.96993 0.47851 0.0
H1848 H 0.44995 0.96837 0.50587 0.0
H1849 H 0.43628 0.96814 0.48221 0.0
H1850 H 0.42126 0.92316 0.4916 0.0
H1851 H 0.43514 0.92331 0.51475 0.0
C1852 C 0.39798 0.93435 0.45704 0.0
C1853 C 0.38889 0.94714 0.457 0.0
C1854 C 0.41141 0.93427 0.46502 0.0
C1855 C 0.41584 0.94689 0.47329 0.0
C1856 C 0.40732 0.96005 0.47215 0.0
C1857 C 0.39403 0.96017 0.46408 0.0
C1858 C 0.44401 0.95834 0.50261 0.0
C1859 C 0.44346 0.94594 0.5122 0.0
C1860 C 0.43618 0.95819 0.4891 0.0
C1861 C 0.42745 0.94572 0.48509 0.0
C1862 C 0.42797 0.9329 0.49415 0.0
C1863 C 0.43591 0.933 0.50753 0.0
H1864 H 0.47286 0.12719 0.7272 0.0
H1865 H 0.44611 0.14669 0.6919 0.0
H1866 H 0.47303 0.15077 0.74015 0.0
H1867 H 0.44568 0.17038 0.70557 0.0
H1868 H 0.42923 0.19287 0.75248 0.0
H1869 H 0.4332 0.17622 0.7312 0.0
H1870 H 0.48081 0.17782 0.73878 0.0
H1871 H 0.47695 0.1938 0.76026 0.0
C1872 C 0.46741 0.13658 0.72189 0.0
C1873 C 0.45943 0.1349 0.70845 0.0
C1874 C 0.46745 0.15017 0.72941 0.0
C1875 C 0.45936 0.16239 0.72385 0.0
C1876 C 0.45195 0.16106 0.7101 0.0
C1877 C 0.45213 0.14748 0.70237 0.0
C1878 C 0.44056 0.18992 0.7494 0.0
C1879 C 0.45271 0.19446 0.75828 0.0
C1880 C 0.44284 0.18055 0.73711 0.0
C1881 C 0.45731 0.17561 0.73353 0.0
C1882 C 0.46954 0.18139 0.74142 0.0
C1883 C 0.46728 0.19067 0.75369 0.0
H1884 H 0.22463 0.17576 0.0167 0.0
H1885 H 0.19084 0.20461 0.99746 0.0
H1886 H 0.23919 0.17774 0.99417 0.0
H1887 H 0.2062 0.20722 0.97497 0.0
H1888 H 0.25463 0.22518 0.95719 0.0
H1889 H 0.23252 0.21995 0.97241 0.0
H1890 H 0.23945 0.17262 0.96631 0.0
H1891 H 0.26167 0.17767 0.95168 0.0
C1892 C 0.21998 0.18214 0.00754 0.0
C1893 C 0.20648 0.19006 0.00907 0.0
C1894 C 0.22846 0.18335 0.99458 0.0
C1895 C 0.22383 0.19267 0.98287 0.0
C1896 C 0.21003 0.20003 0.98393 0.0
C1897 C 0.20132 0.19858 0.99685 0.0
C1898 C 0.25125 0.21368 0.95885 0.0
C1899 C 0.26006 0.20187 0.95337 0.0
C1900 C 0.2385 0.2107 0.96739 0.0
C1901 C 0.23442 0.19588 0.97061 0.0
C1902 C 0.24244 0.18414 0.96404 0.0
C1903 C 0.25513 0.18709 0.95555 0.0
H1904 H 0.94379 0.46458 0.00238 0.0
H1905 H 0.94446 0.41743 0.01309 0.0
H1906 H 0.92755 0.45937 0.98115 0.0
H1907 H 0.92913 0.41225 0.99145 0.0
H1908 H 0.87941 0.41757 0.97624 0.0
H1909 H 0.90271 0.41776 0.98981 0.0
H1910 H 0.92197 0.44733 0.95687 0.0
H1911 H 0.89846 0.44693 0.94292 0.0
C1912 C 0.94084 0.45309 1e-05 0.0
C1913 C 0.94524 0.44151 0.00968 0.0
C1914 C 0.9317 0.45007 0.98769 0.0
C1915 C 0.92687 0.4354 0.98478 0.0
C1916 C 0.93248 0.42369 0.99356 0.0
C1917 C 0.94146 0.4267 0.00592 0.0
C1918 C 0.88874 0.42361 0.97146 0.0
C1919 C 0.88696 0.43238 0.95855 0.0
C1920 C 0.90217 0.42376 0.97931 0.0
C1921 C 0.91415 0.43271 0.9745 0.0
C1922 C 0.91284 0.44051 0.96095 0.0
C1923 C 0.89939 0.44028 0.95299 0.0
H1924 H 0.97805 0.64341 0.20141 0.0
H1925 H 0.93169 0.63731 0.21347 0.0
H1926 H 0.97858 0.66674 0.21569 0.0
H1927 H 0.93224 0.66012 0.22779 0.0
H1928 H 0.93325 0.70164 0.25256 0.0
H1929 H 0.93408 0.6863 0.22998 0.0
H1930 H 0.97866 0.67173 0.24172 0.0
H1931 H 0.97797 0.68738 0.26378 0.0
C1932 C 0.96794 0.64717 0.20692 0.0
C1933 C 0.95485 0.63854 0.20631 0.0
C1934 C 0.96822 0.6605 0.21509 0.0
C1935 C 0.95546 0.66532 0.22296 0.0
C1936 C 0.9422 0.65702 0.22166 0.0
C1937 C 0.94189 0.64383 0.21344 0.0
C1938 C 0.94334 0.69544 0.25003 0.0
C1939 C 0.95548 0.69558 0.25995 0.0
C1940 C 0.94382 0.68662 0.23716 0.0
C1941 C 0.95634 0.67755 0.23415 0.0
C1942 C 0.9689 0.67865 0.24352 0.0
C1943 C 0.96849 0.68761 0.25625 0.0
H1944 H 0.69367 0.69808 0.49574 0.0
H1945 H 0.72796 0.67122 0.51675 0.0
H1946 H 0.70778 0.69757 0.47235 0.0
H1947 H 0.74158 0.67034 0.49345 0.0
H1948 H 0.76453 0.6682 0.45112 0.0
H1949 H 0.74278 0.66321 0.46662 0.0
H1950 H 0.73248 0.71035 0.46737 0.0
H1951 H 0.75404 0.71534 0.45145 0.0
C1952 C 0.704 0.69179 0.49531 0.0
C1953 C 0.70978 0.68491 0.50824 0.0
C1954 C 0.71201 0.69145 0.4819 0.0
C1955 C 0.72581 0.68402 0.48112 0.0
C1956 C 0.73088 0.67601 0.49363 0.0
C1957 C 0.723 0.6765 0.50705 0.0
C1958 C 0.75731 0.67745 0.45405 0.0
C1959 C 0.76113 0.69222 0.45023 0.0
C1960 C 0.7449 0.67458 0.46303 0.0
C1961 C 0.73608 0.6864 0.46838 0.0
C1962 C 0.73904 0.701 0.46337 0.0
C1963 C 0.75148 0.70389 0.45439 0.0
H1964 H 0.96166 0.45986 0.38698 0.0
H1965 H 0.91429 0.45112 0.39052 0.0
H1966 H 0.9608 0.47459 0.40945 0.0
H1967 H 0.91342 0.4659 0.41352 0.0
H1968 H 0.91648 0.51507 0.43167 0.0
H1969 H 0.91486 0.49209 0.41745 0.0
H1970 H 0.95754 0.47803 0.43531 0.0
H1971 H 0.95937 0.50151 0.44913 0.0
C1972 C 0.95112 0.46061 0.39289 0.0
C1973 C 0.93802 0.45435 0.38691 0.0
C1974 C 0.95063 0.46907 0.4059 0.0
C1975 C 0.93702 0.47152 0.41333 0.0
C1976 C 0.92405 0.46441 0.40794 0.0
C1977 C 0.92453 0.45596 0.39479 0.0
C1978 C 0.9253 0.50686 0.43293 0.0
C1979 C 0.93816 0.51012 0.44131 0.0
C1980 C 0.92434 0.49361 0.42481 0.0
C1981 C 0.9362 0.48329 0.42501 0.0
C1982 C 0.94838 0.48592 0.43462 0.0
C1983 C 0.94944 0.49931 0.44257 0.0
H1984 H 0.67623 0.64573 0.95095 0.0
H1985 H 0.72231 0.63812 0.9388 0.0
H1986 H 0.67575 0.66793 0.93502 0.0
H1987 H 0.72177 0.65976 0.92263 0.0
H1988 H 0.71975 0.69923 0.89379 0.0
H1989 H 0.72004 0.68541 0.91737 0.0
H1990 H 0.67483 0.67047 0.90891 0.0
H1991 H 0.67446 0.68459 0.88586 0.0
C1992 C 0.68631 0.64897 0.94508 0.0
C1993 C 0.69927 0.64018 0.94606 0.0
C1994 C 0.68605 0.66163 0.93591 0.0
C1995 C 0.69866 0.66556 0.92734 0.0
C1996 C 0.7119 0.65729 0.92918 0.0
C1997 C 0.71221 0.64479 0.93846 0.0
C1998 C 0.7098 0.69324 0.89722 0.0
C1999 C 0.69712 0.69292 0.88798 0.0
C2000 C 0.70996 0.68529 0.91067 0.0
C2001 C 0.69752 0.67666 0.91501 0.0
C2002 C 0.68454 0.67715 0.90615 0.0
C2003 C 0.68434 0.68522 0.89284 0.0
H2004 H 0.75789 0.4697 0.18078 0.0
H2005 H 0.75175 0.4246 0.197 0.0
H2006 H 0.73409 0.46865 0.16836 0.0
H2007 H 0.7275 0.42353 0.18432 0.0
H2008 H 0.7053 0.42216 0.13629 0.0
H2009 H 0.72123 0.42195 0.15821 0.0
H2010 H 0.70754 0.46712 0.16856 0.0
H2011 H 0.69189 0.46743 0.14618 0.0
C2012 C 0.75121 0.4597 0.18217 0.0
C2013 C 0.75678 0.44722 0.18993 0.0
C2014 C 0.73743 0.45912 0.17502 0.0
C2015 C 0.72881 0.44601 0.17534 0.0
C2016 C 0.73395 0.43375 0.18376 0.0
C2017 C 0.74784 0.43434 0.19097 0.0
C2018 C 0.70526 0.43185 0.14354 0.0
C2019 C 0.69757 0.44491 0.13943 0.0
C2020 C 0.71438 0.43172 0.15618 0.0
C2021 C 0.71592 0.44463 0.16498 0.0
C2022 C 0.70687 0.45711 0.16178 0.0
C2023 C 0.69789 0.4573 0.14902 0.0
H2024 H 0.88524 0.66405 0.69605 0.0
H2025 H 0.89449 0.71145 0.69623 0.0
H2026 H 0.90724 0.65978 0.68071 0.0
H2027 H 0.91626 0.70719 0.6804 0.0
H2028 H 0.95527 0.69626 0.65166 0.0
H2029 H 0.94122 0.69534 0.67507 0.0
H2030 H 0.9083 0.66699 0.65406 0.0
H2031 H 0.92182 0.66828 0.63078 0.0
C2032 C 0.89223 0.67352 0.69327 0.0
C2033 C 0.88797 0.68815 0.69716 0.0
C2034 C 0.90479 0.67106 0.68437 0.0
C2035 C 0.91331 0.68316 0.67915 0.0
C2036 C 0.90993 0.69762 0.68427 0.0
C2037 C 0.89736 0.70009 0.6932 0.0
C2038 C 0.94515 0.68965 0.65211 0.0
C2039 C 0.9396 0.68254 0.63921 0.0
C2040 C 0.93717 0.68907 0.66554 0.0
C2041 C 0.92364 0.68117 0.66637 0.0
C2042 C 0.91881 0.67301 0.65387 0.0
C2043 C 0.92664 0.67373 0.64044 0.0
H2044 H 0.73049 0.47824 0.76922 0.0
H2045 H 0.70323 0.44387 0.74893 0.0
H2046 H 0.73102 0.49168 0.74588 0.0
H2047 H 0.70347 0.45774 0.72538 0.0
H2048 H 0.68511 0.50338 0.70418 0.0
H2049 H 0.69066 0.48178 0.71981 0.0
H2050 H 0.73748 0.49351 0.71954 0.0
H2051 H 0.73193 0.51548 0.70479 0.0
C2052 C 0.72508 0.4732 0.75964 0.0
C2053 C 0.71663 0.46005 0.76106 0.0
C2054 C 0.72536 0.48098 0.74617 0.0
C2055 C 0.71713 0.47585 0.73382 0.0
C2056 C 0.70974 0.46205 0.7348 0.0
C2057 C 0.70957 0.45416 0.74829 0.0
C2058 C 0.69662 0.50122 0.70726 0.0
C2059 C 0.70798 0.5114 0.70349 0.0
C2060 C 0.69984 0.4887 0.71603 0.0
C2061 C 0.71449 0.48611 0.72111 0.0
C2062 C 0.72606 0.49537 0.71598 0.0
C2063 C 0.72284 0.50792 0.70736 0.0
H2064 H 0.00351 0.45182 0.30852 0.0
H2065 H 0.97116 0.43605 0.2763 0.0
H2066 H 0.02195 0.45441 0.28892 0.0
H2067 H 0.99004 0.4383 0.25645 0.0
H2068 H 0.02709 0.45931 0.22462 0.0
H2069 H 0.00616 0.45677 0.24226 0.0
H2070 H 0.03598 0.43644 0.27436 0.0
H2071 H 0.05666 0.43932 0.25717 0.0
C2072 C 0.00036 0.4488 0.29722 0.0
C2073 C 0.98597 0.4435 0.29397 0.0
C2074 C 0.01096 0.45026 0.28598 0.0
C2075 C 0.00754 0.44627 0.2712 0.0
C2076 C 0.99297 0.44144 0.26776 0.0
C2077 C 0.98223 0.44009 0.2791 0.0
C2078 C 0.02906 0.45425 0.23544 0.0
C2079 C 0.04352 0.44978 0.23966 0.0
C2080 C 0.01711 0.45274 0.24548 0.0
C2081 C 0.01952 0.44667 0.25978 0.0
C2082 C 0.03385 0.44154 0.26359 0.0
C2083 C 0.04571 0.44317 0.25371 0.0
H2084 H 0.95316 0.75835 0.55972 0.0
H2085 H 0.94593 0.72095 0.53001 0.0
H2086 H 0.94827 0.77554 0.53935 0.0
H2087 H 0.9408 0.73838 0.50947 0.0
H2088 H 0.9492 0.77844 0.47525 0.0
H2089 H 0.95321 0.7585 0.49365 0.0
H2090 H 0.9256 0.78235 0.52528 0.0
H2091 H 0.92186 0.80222 0.50716 0.0
C2092 C 0.95054 0.75379 0.54882 0.0
C2093 C 0.94979 0.7383 0.5465 0.0
C2094 C 0.94765 0.76365 0.53716 0.0
C2095 C 0.94388 0.75829 0.5229 0.0
C2096 C 0.94365 0.74279 0.52038 0.0
C2097 C 0.94656 0.73286 0.53211 0.0
C2098 C 0.94379 0.77923 0.48605 0.0
C2099 C 0.93541 0.79194 0.4899 0.0
C2100 C 0.94608 0.76784 0.49655 0.0
C2101 C 0.93997 0.76906 0.51097 0.0
C2102 C 0.93077 0.78131 0.51437 0.0
C2103 C 0.92857 0.79265 0.50398 0.0
H2104 H 0.64033 0.71893 0.7988 0.0
H2105 H 0.67601 0.69641 0.77525 0.0
H2106 H 0.62358 0.71432 0.77798 0.0
H2107 H 0.65896 0.6917 0.75422 0.0
H2108 H 0.62245 0.70062 0.71566 0.0
H2109 H 0.6422 0.70528 0.73416 0.0
H2110 H 0.61288 0.68972 0.76918 0.0
H2111 H 0.59331 0.68515 0.75097 0.0
C2112 C 0.64464 0.71308 0.78911 0.0
C2113 C 0.65941 0.70782 0.78874 0.0
C2114 C 0.63502 0.71041 0.77721 0.0
C2115 C 0.63992 0.70239 0.76466 0.0
C2116 C 0.65494 0.69787 0.76382 0.0
C2117 C 0.66464 0.70055 0.77583 0.0
C2118 C 0.62035 0.69801 0.72729 0.0
C2119 C 0.60628 0.69272 0.73191 0.0
C2120 C 0.63163 0.70066 0.73783 0.0
C2121 C 0.62893 0.69811 0.75308 0.0
C2122 C 0.61514 0.69209 0.75752 0.0
C2123 C 0.60395 0.68943 0.74707 0.0
H2124 H 0.705 0.42606 0.03215 0.0
H2125 H 0.66373 0.40122 0.03539 0.0
H2126 H 0.71213 0.4113 0.01019 0.0
H2127 H 0.67069 0.3868 0.01323 0.0
H2128 H 0.68475 0.36928 0.96766 0.0
H2129 H 0.67828 0.39035 0.98392 0.0
H2130 H 0.71704 0.38121 0.01114 0.0
H2131 H 0.72329 0.35992 0.99519 0.0
C2132 C 0.69728 0.41776 0.02789 0.0
C2133 C 0.68387 0.41464 0.03546 0.0
C2134 C 0.70137 0.40933 0.0154 0.0
C2135 C 0.69192 0.398 0.01009 0.0
C2136 C 0.67807 0.3956 0.01706 0.0
C2137 C 0.67415 0.40375 0.02976 0.0
C2138 C 0.69208 0.37203 0.9769 0.0
C2139 C 0.70445 0.36296 0.98029 0.0
C2140 C 0.68836 0.38402 0.98617 0.0
C2141 C 0.69719 0.38732 0.99871 0.0
C2142 C 0.71016 0.37893 0.00144 0.0
C2143 C 0.71367 0.36673 0.9924 0.0
H2144 H 0.96942 0.70042 0.37305 0.0
H2145 H 0.0089 0.71791 0.35132 0.0
H2146 H 0.98472 0.69327 0.39476 0.0
H2147 H 0.02391 0.71073 0.37276 0.0
H2148 H 0.04763 0.67548 0.39913 0.0
H2149 H 0.02835 0.68222 0.38122 0.0
H2150 H 0.00475 0.70668 0.41543 0.0
H2151 H 0.02427 0.69993 0.43362 0.0
C2152 C 0.98126 0.70297 0.37302 0.0
C2153 C 0.98802 0.70952 0.36041 0.0
C2154 C 0.98995 0.69889 0.38541 0.0
C2155 C 0.00546 0.70126 0.38522 0.0
C2156 C 0.01199 0.70859 0.37301 0.0
C2157 C 0.00338 0.71271 0.36076 0.0
C2158 C 0.03822 0.68207 0.40295 0.0
C2159 C 0.03755 0.68738 0.41769 0.0
C2160 C 0.02721 0.68593 0.3927 0.0
C2161 C 0.01529 0.69515 0.39695 0.0
C2162 C 0.0139 0.69956 0.41195 0.0
C2163 C 0.02502 0.69569 0.42231 0.0
H2164 H 0.70241 0.77908 0.67275 0.0
H2165 H 0.72724 0.8037 0.63944 0.0
H2166 H 0.69692 0.75967 0.6542 0.0
H2167 H 0.72199 0.78436 0.62115 0.0
H2168 H 0.69293 0.76044 0.5881 0.0
H2169 H 0.69859 0.77745 0.60844 0.0
H2170 H 0.70835 0.74 0.63731 0.0
H2171 H 0.70244 0.72278 0.61684 0.0
C2172 C 0.70692 0.78019 0.66158 0.0
C2173 C 0.71507 0.79297 0.65746 0.0
C2174 C 0.70378 0.76911 0.65098 0.0
C2175 C 0.70878 0.77068 0.63617 0.0
C2176 C 0.71767 0.78304 0.63238 0.0
C2177 C 0.72074 0.79408 0.64288 0.0
C2178 C 0.69619 0.75578 0.59879 0.0
C2179 C 0.69737 0.74029 0.60083 0.0
C2180 C 0.69951 0.76554 0.61043 0.0
C2181 C 0.70418 0.76004 0.62437 0.0
C2182 C 0.70479 0.74452 0.62666 0.0
C2183 C 0.70142 0.7347 0.61496 0.0
H2184 H 0.67784 0.45341 0.8701 0.0
H2185 H 0.64055 0.44886 0.8397 0.0
H2186 H 0.66048 0.46016 0.89022 0.0
H2187 H 0.62342 0.45547 0.85965 0.0
H2188 H 0.59876 0.48492 0.89099 0.0
H2189 H 0.61872 0.47928 0.87345 0.0
H2190 H 0.63865 0.44923 0.90553 0.0
H2191 H 0.61861 0.45501 0.92331 0.0
C2192 C 0.66597 0.4537 0.86776 0.0
C2193 C 0.66056 0.45074 0.85329 0.0
C2194 C 0.65607 0.45755 0.87925 0.0
C2195 C 0.64066 0.45859 0.87639 0.0
C2196 C 0.63528 0.45509 0.86208 0.0
C2197 C 0.6451 0.4512 0.85067 0.0
C2198 C 0.6075 0.47728 0.89442 0.0
C2199 C 0.60702 0.47024 0.90843 0.0
C2200 C 0.61889 0.474 0.88435 0.0
C2201 C 0.63003 0.46358 0.88803 0.0
C2202 C 0.63017 0.45728 0.90242 0.0
C2203 C 0.61872 0.46059 0.91257 0.0
H2204 H 0.98207 0.4043 0.11411 0.0
H2205 H 0.94205 0.43108 0.1175 0.0
H2206 H 0.974 0.38955 0.13561 0.0
H2207 H 0.93379 0.41603 0.1388 0.0
H2208 H 0.95803 0.36914 0.17868 0.0
H2209 H 0.96607 0.391 0.16434 0.0
H2210 H 0.92685 0.38709 0.1365 0.0
H2211 H 0.91901 0.36504 0.15056 0.0
C2212 C 0.97173 0.40723 0.11968 0.0
C2213 C 0.96261 0.4187 0.11409 0.0
C2214 C 0.96716 0.39887 0.13201 0.0
C2215 C 0.95327 0.40167 0.13876 0.0
C2216 C 0.94455 0.4137 0.13375 0.0
C2217 C 0.94929 0.42229 0.1216 0.0
C2218 C 0.95095 0.37319 0.16974 0.0
C2219 C 0.938 0.36533 0.16557 0.0
C2220 C 0.95556 0.38566 0.16156 0.0
C2221 C 0.94708 0.39065 0.14935 0.0
C2222 C 0.93351 0.38351 0.14596 0.0
C2223 C 0.92908 0.37086 0.15393 0.0
H2224 H 0.27943 0.96729 0.46213 0.0
H2225 H 0.28592 0.99349 0.4221 0.0
H2226 H 0.25728 0.98218 0.46824 0.0
H2227 H 0.26371 0.00815 0.42808 0.0
H2228 H 0.22007 0.02941 0.4396 0.0
H2229 H 0.23496 0.00738 0.43308 0.0
H2230 H 0.25798 0.01045 0.47538 0.0
H2231 H 0.24334 0.03255 0.48177 0.0
C2232 C 0.27587 0.97593 0.45443 0.0
C2233 C 0.28444 0.9794 0.44174 0.0
C2234 C 0.26324 0.98444 0.45794 0.0
C2235 C 0.25885 0.9963 0.44864 0.0
C2236 C 0.26678 0.99898 0.43536 0.0
C2237 C 0.27955 0.99068 0.43201 0.0
C2238 C 0.22801 0.0251 0.44766 0.0
C2239 C 0.23072 0.03272 0.46112 0.0
C2240 C 0.23653 0.01255 0.44391 0.0
C2241 C 0.24762 0.00729 0.45371 0.0
C2242 C 0.24942 0.01421 0.46768 0.0
C2243 C 0.24112 0.0269 0.4713 0.0
H2244 H 0.37001 0.96822 0.70081 0.0
H2245 H 0.34683 0.00392 0.72365 0.0
H2246 H 0.39023 0.98567 0.69431 0.0
H2247 H 0.36682 0.0211 0.7172 0.0
H2248 H 0.39049 0.05079 0.68454 0.0
H2249 H 0.3735 0.03059 0.69084 0.0
H2250 H 0.41051 0.00407 0.70681 0.0
H2251 H 0.42777 0.02446 0.70048 0.0
C2252 C 0.36939 0.97967 0.7047 0.0
C2253 C 0.35678 0.98479 0.71256 0.0
C2254 C 0.38091 0.98961 0.70096 0.0
C2255 C 0.37987 0.00474 0.70502 0.0
C2256 C 0.36771 0.00955 0.71368 0.0
C2257 C 0.3563 -0.00031 0.7174 0.0
C2258 C 0.39509 0.04062 0.68924 0.0
C2259 C 0.41044 0.03929 0.6922 0.0
C2260 C 0.38534 0.02908 0.69288 0.0
C2261 C 0.3907 0.01593 0.69954 0.0
C2262 C 0.40614 0.01414 0.7017 0.0
C2263 C 0.41597 0.02579 0.69809 0.0
H2264 H 0.37188 0.18359 0.94891 0.0
H2265 H 0.34658 0.14927 0.92622 0.0
H2266 H 0.39149 0.16515 0.95465 0.0
H2267 H 0.36595 0.13114 0.93193 0.0
H2268 H 0.38788 0.10044 0.96495 0.0
H2269 H 0.37229 0.12184 0.959 0.0
H2270 H 0.41054 0.14505 0.94096 0.0
H2271 H 0.4264 0.12339 0.94692 0.0
C2272 C 0.37069 0.17225 0.94487 0.0
C2273 C 0.35763 0.16777 0.93733 0.0
C2274 C 0.38186 0.16174 0.94816 0.0
C2275 C 0.38001 0.14673 0.94396 0.0
C2276 C 0.36746 0.1426 0.93553 0.0
C2277 C 0.3564 0.15299 0.93225 0.0
C2278 C 0.39306 0.11013 0.95987 0.0
C2279 C 0.40831 0.11016 0.9562 0.0
C2280 C 0.38412 0.12236 0.95645 0.0
C2281 C 0.39021 0.13492 0.94931 0.0
C2282 C 0.40563 0.13544 0.94645 0.0
C2283 C 0.41465 0.12308 0.94986 0.0
H2284 H 0.2167 0.11902 0.19906 0.0
H2285 H 0.25121 0.09619 0.17414 0.0
H2286 H 0.23461 0.13894 0.20534 0.0
H2287 H 0.26885 0.11586 0.18043 0.0
H2288 H 0.29906 0.13642 0.21525 0.0
H2289 H 0.2779 0.12078 0.20857 0.0
H2290 H 0.25442 0.15929 0.19149 0.0
H2291 H 0.27583 0.1752 0.19812 0.0
C2292 C 0.22795 0.11846 0.19463 0.0
C2293 C 0.23266 0.10598 0.18631 0.0
C2294 C 0.23815 0.1298 0.19823 0.0
C2295 C 0.25309 0.12869 0.19356 0.0
C2296 C 0.25742 0.11679 0.18435 0.0
C2297 C 0.24732 0.10556 0.18075 0.0
C2298 C 0.28935 0.14165 0.21024 0.0
C2299 C 0.28919 0.157 0.20702 0.0
C2300 C 0.27726 0.13268 0.20641 0.0
C2301 C 0.26471 0.13885 0.19933 0.0
C2302 C 0.26404 0.15433 0.19692 0.0
C2303 C 0.27626 0.16338 0.20072 0.0
H2304 H 0.44788 0.22196 0.02736 0.0
H2305 H 0.47815 0.25264 0.04915 0.0
H2306 H 0.44323 0.24059 0.00778 0.0
H2307 H 0.47364 0.27101 0.02966 0.0
H2308 H 0.44443 0.30633 0.00873 0.0
H2309 H 0.45 0.28545 0.0251 0.0
H2310 H 0.45547 0.25658 0.98682 0.0
H2311 H 0.44978 0.27765 0.97021 0.0
C2312 C 0.4538 0.23251 0.02776 0.0
C2313 C 0.4632 0.23598 0.03987 0.0
C2314 C 0.45113 0.24314 0.01659 0.0
C2315 C 0.45784 0.25731 0.01742 0.0
C2316 C 0.46805 0.26029 0.02895 0.0
C2317 C 0.47067 0.24975 0.04007 0.0
C2318 C 0.44674 0.29554 0.00374 0.0
C2319 C 0.44681 0.29367 0.98818 0.0
C2320 C 0.45001 0.2836 0.01313 0.0
C2321 C 0.45343 0.26949 0.00719 0.0
C2322 C 0.45291 0.26738 0.99165 0.0
C2323 C 0.44966 0.27941 0.98219 0.0
H2324 H 0.17699 0.95347 0.37058 0.0
H2325 H 0.13892 0.94442 0.34222 0.0
H2326 H 0.16001 0.95934 0.3913 0.0
H2327 H 0.12219 0.95009 0.36276 0.0
H2328 H 0.0961 0.97781 0.3943 0.0
H2329 H 0.11567 0.97354 0.37598 0.0
H2330 H 0.14022 0.94713 0.40809 0.0
H2331 H 0.12056 0.95162 0.42669 0.0
C2332 C 0.16504 0.95261 0.36881 0.0
C2333 C 0.15927 0.94863 0.35474 0.0
C2334 C 0.15536 0.95595 0.38066 0.0
C2335 C 0.13981 0.95542 0.37854 0.0
C2336 C 0.13413 0.95094 0.36461 0.0
C2337 C 0.14373 0.9476 0.35286 0.0
C2338 C 0.10576 0.97125 0.39755 0.0
C2339 C 0.10674 0.96487 0.41183 0.0
C2340 C 0.11693 0.96876 0.38704 0.0
C2341 C 0.12929 0.95974 0.39053 0.0
C2342 C 0.13079 0.95411 0.40512 0.0
C2343 C 0.11956 0.95668 0.41573 0.0
H2344 H 0.21241 0.89141 0.56003 0.0
H2345 H 0.18854 0.92193 0.53119 0.0
H2346 H 0.21487 0.87385 0.53952 0.0
H2347 H 0.19067 0.904 0.51059 0.0
H2348 H 0.20857 0.87081 0.47444 0.0
H2349 H 0.20817 0.89063 0.4934 0.0
H2350 H 0.19697 0.8579 0.5271 0.0
H2351 H 0.19768 0.83831 0.50848 0.0
C2352 C 0.20767 0.89436 0.54928 0.0
C2353 C 0.20008 0.90793 0.54726 0.0
C2354 C 0.20905 0.88428 0.53754 0.0
C2355 C 0.20272 0.88743 0.52352 0.0
C2356 C 0.19568 0.9013 0.52126 0.0
C2357 C 0.1944 0.9115 0.53305 0.0
C2358 C 0.20604 0.86792 0.48592 0.0
C2359 C 0.20328 0.853 0.49001 0.0
C2360 C 0.20576 0.87924 0.49673 0.0
C2361 C 0.20273 0.87578 0.51176 0.0
C2362 C 0.1997 0.86089 0.51569 0.0
C2363 C 0.20003 0.84965 0.50498 0.0
H2364 H 0.52769 0.94388 0.72203 0.0
H2365 H 0.54739 0.97241 0.75568 0.0
H2366 H 0.50766 0.93721 0.73956 0.0
H2367 H 0.52753 0.96574 0.77298 0.0
H2368 H 0.5081 0.93131 0.80456 0.0
H2369 H 0.52423 0.93884 0.7841 0.0
H2370 H 0.48562 0.94921 0.7571 0.0
H2371 H 0.4692 0.9417 0.77781 0.0
C2372 C 0.52753 0.94901 0.733 0.0
C2373 C 0.53922 0.95848 0.73761 0.0
C2374 C 0.5161 0.94518 0.74299 0.0
C2375 C 0.51629 0.95077 0.75764 0.0
C2376 C 0.52732 0.9611 0.7618 0.0
C2377 C 0.53867 0.96492 0.75189 0.0
C2378 C 0.50297 0.93505 0.79426 0.0
C2379 C 0.48738 0.93609 0.79287 0.0
C2380 C 0.51222 0.93942 0.78257 0.0
C2381 C 0.50612 0.94485 0.76919 0.0
C2382 C 0.49054 0.94511 0.76738 0.0
C2383 C 0.48119 0.94082 0.77919 0.0
H2384 H 0.17614 0.19731 0.27698 0.0
H2385 H 0.13941 0.21015 0.30562 0.0
H2386 H 0.15843 0.19222 0.2567 0.0
H2387 H 0.12193 0.20528 0.28546 0.0
H2388 H 0.09381 0.17706 0.25565 0.0
H2389 H 0.11365 0.18173 0.27357 0.0
H2390 H 0.13918 0.20467 0.23962 0.0
H2391 H 0.11923 0.19978 0.22143 0.0
C2392 C 0.16434 0.19923 0.27888 0.0
C2393 C 0.15912 0.20394 0.29294 0.0
C2394 C 0.15424 0.19634 0.26728 0.0
C2395 C 0.13881 0.19809 0.26962 0.0
C2396 C 0.13373 0.20348 0.28346 0.0
C2397 C 0.14376 0.20634 0.29499 0.0
C2398 C 0.10371 0.18297 0.25193 0.0
C2399 C 0.10491 0.18822 0.23721 0.0
C2400 C 0.11503 0.18571 0.26222 0.0
C2401 C 0.12779 0.19383 0.25805 0.0
C2402 C 0.12943 0.19839 0.24311 0.0
C2403 C 0.11805 0.1956 0.23273 0.0
H2404 H 0.50527 0.21939 0.84752 0.0
H2405 H 0.46831 0.19813 0.87025 0.0
H2406 H 0.52198 0.21185 0.86753 0.0
H2407 H 0.4853 0.19058 0.89051 0.0
H2408 H 0.52573 0.19501 0.92771 0.0
H2409 H 0.50526 0.2026 0.91099 0.0
H2410 H 0.52912 0.18388 0.8735 0.0
H2411 H 0.54934 0.17629 0.88994 0.0
C2412 C 0.50066 0.21329 0.85691 0.0
C2413 C 0.48554 0.20915 0.85721 0.0
C2414 C 0.51024 0.20897 0.86834 0.0
C2415 C 0.50493 0.20042 0.88036 0.0
C2416 C 0.48961 0.19714 0.8813 0.0
C2417 C 0.47994 0.20147 0.86974 0.0
C2418 C 0.52641 0.19225 0.91594 0.0
C2419 C 0.53922 0.18526 0.91007 0.0
C2420 C 0.51473 0.1966 0.90642 0.0
C2421 C 0.51582 0.19404 0.89098 0.0
C2422 C 0.52817 0.1862 0.88534 0.0
C2423 C 0.53973 0.18185 0.89477 0.0
H2424 H 0.19912 0.27374 0.17721 0.0
H2425 H 0.22182 0.29848 0.14247 0.0
H2426 H 0.19345 0.25383 0.15916 0.0
H2427 H 0.21626 0.27876 0.12471 0.0
H2428 H 0.18478 0.25498 0.09386 0.0
H2429 H 0.19084 0.27171 0.11431 0.0
H2430 H 0.2059 0.2343 0.14081 0.0
H2431 H 0.19974 0.21729 0.12015 0.0
C2432 C 0.20314 0.27478 0.16583 0.0
C2433 C 0.21069 0.28774 0.16115 0.0
C2434 C 0.1999 0.26342 0.15555 0.0
C2435 C 0.20417 0.26496 0.14052 0.0
C2436 C 0.21256 0.27747 0.13616 0.0
C2437 C 0.21577 0.28874 0.14635 0.0
C2438 C 0.18927 0.25024 0.10405 0.0
C2439 C 0.19197 0.23485 0.10533 0.0
C2440 C 0.19279 0.25984 0.11574 0.0
C2441 C 0.1991 0.25429 0.12899 0.0
C2442 C 0.20109 0.23882 0.13066 0.0
C2443 C 0.19757 0.22913 0.11886 0.0
H2444 H 0.45748 0.86778 0.68221 0.0
H2445 H 0.41861 0.86155 0.65431 0.0
H2446 H 0.46423 0.89011 0.66775 0.0
H2447 H 0.42505 0.88407 0.64025 0.0
H2448 H 0.43781 0.92884 0.62118 0.0
H2449 H 0.43107 0.91403 0.64324 0.0
H2450 H 0.47117 0.88777 0.63783 0.0
H2451 H 0.47768 0.90221 0.61556 0.0
C2452 C 0.45011 0.87153 0.67336 0.0
C2453 C 0.4376 0.86301 0.66923 0.0
C2454 C 0.45397 0.88423 0.66512 0.0
C2455 C 0.4451 0.88875 0.65298 0.0
C2456 C 0.43194 0.88088 0.64969 0.0
C2457 C 0.42832 0.86799 0.65763 0.0
C2458 C 0.44538 0.92018 0.62499 0.0
C2459 C 0.45817 0.91649 0.61667 0.0
C2460 C 0.44152 0.91175 0.63756 0.0
C2461 C 0.45065 0.89985 0.64217 0.0
C2462 C 0.46407 0.89701 0.63456 0.0
C2463 C 0.46772 0.90517 0.62179 0.0
H2464 H 0.8047 0.49721 0.97521 0.0
H2465 H 0.77818 0.47352 0.94256 0.0
H2466 H 0.7852 0.51593 0.97759 0.0
H2467 H 0.75863 0.49268 0.94465 0.0
H2468 H 0.72291 0.52728 0.9616 0.0
H2469 H 0.73973 0.50557 0.96138 0.0
H2470 H 0.77776 0.53529 0.95996 0.0
H2471 H 0.76125 0.55668 0.96044 0.0
C2472 C 0.79464 0.49599 0.96858 0.0
C2473 C 0.79303 0.48409 0.95851 0.0
C2474 C 0.78348 0.50673 0.96992 0.0
C2475 C 0.77055 0.50595 0.96106 0.0
C2476 C 0.7685 0.49355 0.95161 0.0
C2477 C 0.77967 0.48264 0.95038 0.0
C2478 C 0.73488 0.5291 0.96127 0.0
C2479 C 0.74077 0.54368 0.96117 0.0
C2480 C 0.74447 0.51671 0.96109 0.0
C2481 C 0.76005 0.51875 0.96088 0.0
C2482 C 0.76582 0.53334 0.9605 0.0
C2483 C 0.75632 0.54562 0.96068 0.0
H2484 H 0.89107 0.55714 0.19109 0.0
H2485 H 0.92814 0.52614 0.19026 0.0
H2486 H 0.87366 0.53651 0.19056 0.0
H2487 H 0.91039 0.50517 0.18952 0.0
H2488 H 0.86923 0.47535 0.2076 0.0
H2489 H 0.89014 0.49311 0.20591 0.0
H2490 H 0.86621 0.51775 0.17197 0.0
H2491 H 0.84539 0.50045 0.17397 0.0
C2492 C 0.89553 0.54589 0.19071 0.0
C2493 C 0.91099 0.54328 0.19062 0.0
C2494 C 0.88552 0.53405 0.19031 0.0
C2495 C 0.89067 0.51924 0.18974 0.0
C2496 C 0.90615 0.5165 0.18992 0.0
C2497 C 0.91626 0.52847 0.1903 0.0
C2498 C 0.86864 0.48444 0.19962 0.0
C2499 C 0.85564 0.48679 0.19115 0.0
C2500 C 0.88058 0.49454 0.19862 0.0
C2501 C 0.87962 0.50697 0.18904 0.0
C2502 C 0.86708 0.5085 0.17973 0.0
C2503 C 0.85517 0.4986 0.18086 0.0
H2504 H 0.92932 0.61909 0.43508 0.0
H2505 H 0.90622 0.61886 0.47747 0.0
H2506 H 0.91495 0.64108 0.42741 0.0
H2507 H 0.89217 0.64102 0.46993 0.0
H2508 H 0.86269 0.65253 0.41704 0.0
H2509 H 0.88536 0.63882 0.42354 0.0
H2510 H 0.89351 0.66937 0.45998 0.0
H2511 H 0.87097 0.68343 0.45313 0.0
C2512 C 0.9216 0.62409 0.44297 0.0
C2513 C 0.91869 0.61723 0.45679 0.0
C2514 C 0.9134 0.63662 0.43856 0.0
C2515 C 0.90247 0.64265 0.44808 0.0
C2516 C 0.90063 0.63664 0.46245 0.0
C2517 C 0.90858 0.62392 0.46672 0.0
C2518 C 0.86957 0.65656 0.42615 0.0
C2519 C 0.86509 0.66891 0.43468 0.0
C2520 C 0.88258 0.64881 0.42979 0.0
C2521 C 0.89113 0.65308 0.44224 0.0
C2522 C 0.88711 0.66594 0.45029 0.0
C2523 C 0.87426 0.67395 0.44638 0.0
H2524 H 0.78471 0.64799 0.72861 0.0
H2525 H 0.77784 0.68038 0.6935 0.0
H2526 H 0.76151 0.63544 0.7216 0.0
H2527 H 0.75475 0.66751 0.68618 0.0
H2528 H 0.73913 0.61858 0.66701 0.0
H2529 H 0.7546 0.63949 0.67531 0.0
H2530 H 0.73203 0.63933 0.71794 0.0
H2531 H 0.71626 0.61863 0.70952 0.0
C2532 C 0.77803 0.65259 0.71961 0.0
C2533 C 0.78302 0.66505 0.71154 0.0
C2534 C 0.76473 0.6455 0.71567 0.0
C2535 C 0.7564 0.65056 0.70337 0.0
C2536 C 0.76099 0.66348 0.69575 0.0
C2537 C 0.77413 0.67082 0.69995 0.0
C2538 C 0.73713 0.62337 0.67795 0.0
C2539 C 0.72663 0.61697 0.68767 0.0
C2540 C 0.74591 0.63536 0.68266 0.0
C2541 C 0.7445 0.64092 0.69727 0.0
C2542 C 0.73326 0.63522 0.70662 0.0
C2543 C 0.72425 0.62343 0.70178 0.0
H2544 H 0.01435 0.32874 0.19064 0.0
H2545 H 0.98324 0.36562 0.1902 0.0
H2546 H 0.03512 0.34638 0.19371 0.0
H2547 H 0.0038 0.3831 0.1934 0.0
H2548 H 0.04464 0.41091 0.18253 0.0
H2549 H 0.02557 0.39201 0.17832 0.0
H2550 H 0.04467 0.36479 0.21326 0.0
H2551 H 0.06367 0.38386 0.21775 0.0
C2552 C 0.01196 0.34059 0.19117 0.0
C2553 C 0.99715 0.34577 0.19022 0.0
C2554 C 0.02382 0.35066 0.19303 0.0
C2555 C 0.02109 0.36613 0.19373 0.0
C2556 C 0.00629 0.37127 0.19273 0.0
C2557 C 0.99447 0.36123 0.19107 0.0
C2558 C 0.04479 0.40096 0.1894 0.0
C2559 C 0.05561 0.39908 0.20066 0.0
C2560 C 0.03386 0.3901 0.18694 0.0
C2561 C 0.03352 0.37699 0.19557 0.0
C2562 C 0.04469 0.37475 0.20638 0.0
C2563 C 0.0556 0.38569 0.20893 0.0
H2564 H 0.04034 0.73516 0.46809 0.0
H2565 H 0.05767 0.75799 0.4292 0.0
H2566 H 0.022 0.75489 0.47151 0.0
H2567 H 0.03942 0.77796 0.43291 0.0
H2568 H 0.01233 0.81725 0.45415 0.0
H2569 H 0.03207 0.79845 0.4512 0.0
H2570 H -0.00054 0.76342 0.4574 0.0
H2571 H 0.9799 0.78211 0.4605 0.0
C2572 C 0.04025 0.74433 0.46021 0.0
C2573 C 0.05042 0.74479 0.44822 0.0
C2574 C 0.02973 0.75569 0.46223 0.0
C2575 C 0.02917 0.76791 0.4524 0.0
C2576 C 0.03964 0.76871 0.44072 0.0
C2577 C 0.05012 0.75726 0.43861 0.0
C2578 C 0.00944 0.80553 0.45494 0.0
C2579 C 0.99456 0.80117 0.4575 0.0
C2580 C 0.02069 0.79478 0.45314 0.0
C2581 C 0.01732 0.77946 0.4541 0.0
C2582 C 0.00245 0.77513 0.45673 0.0
C2583 C 0.99121 0.78584 0.45835 0.0
H2584 H 0.64401 0.81321 0.67131 0.0
H2585 H 0.66591 0.7938 0.70971 0.0
H2586 H 0.62394 0.79487 0.67353 0.0
H2587 H 0.64597 0.77544 0.71182 0.0
H2588 H 0.61844 0.73434 0.69932 0.0
H2589 H 0.63741 0.75372 0.69744 0.0
H2590 H 0.60302 0.78675 0.68993 0.0
H2591 H 0.58396 0.76719 0.69145 0.0
C2592 C 0.64448 0.80518 0.68033 0.0
C2593 C 0.6567 0.80492 0.69023 0.0
C2594 C 0.63297 0.79465 0.68159 0.0
C2595 C 0.63343 0.78359 0.69276 0.0
C2596 C 0.64543 0.7836 0.7029 0.0
C2597 C 0.65689 0.79414 0.70167 0.0
C2598 C 0.6149 0.74569 0.69709 0.0
C2599 C 0.59966 0.74919 0.69546 0.0
C2600 C 0.62578 0.75684 0.6962 0.0
C2601 C 0.62173 0.7718 0.69361 0.0
C2602 C 0.60651 0.77532 0.69186 0.0
C2603 C 0.59559 0.76415 0.69284 0.0
H2604 H 0.60143 0.41821 0.95794 0.0
H2605 H 0.58463 0.3965 0.91821 0.0
H2606 H 0.61908 0.39791 0.96161 0.0
H2607 H 0.60219 0.37594 0.92214 0.0
H2608 H 0.62755 0.33563 0.94381 0.0
H2609 H 0.60844 0.35499 0.94039 0.0
H2610 H 0.64177 0.38905 0.94795 0.0
H2611 H 0.66068 0.36983 0.95152 0.0
C2612 C 0.6015 0.40917 0.94993 0.0
C2613 C 0.5917 0.40918 0.93762 0.0
C2614 C 0.61162 0.39748 0.95208 0.0
C2615 C 0.61213 0.38541 0.94208 0.0
C2616 C 0.602 0.38508 0.93008 0.0
C2617 C 0.59192 0.39686 0.92784 0.0
C2618 C 0.63073 0.34726 0.94479 0.0
C2619 C 0.64563 0.3512 0.9479 0.0
C2620 C 0.61984 0.35833 0.94272 0.0
C2621 C 0.6236 0.37354 0.94395 0.0
C2622 C 0.63849 0.37743 0.94708 0.0
C2623 C 0.64937 0.36641 0.94897 0.0
H2624 H 0.18629 0.05181 0.40415 0.0
H2625 H 0.23291 0.05619 0.39254 0.0
H2626 H 0.1827 0.03458 0.38327 0.0
H2627 H 0.2293 0.03912 0.37154 0.0
H2628 H 0.21978 0.99236 0.35042 0.0
H2629 H 0.22381 0.01179 0.36915 0.0
H2630 H 0.18307 0.03363 0.35525 0.0
H2631 H 0.17896 0.01406 0.33662 0.0
C2632 C 0.19575 0.04916 0.39708 0.0
C2633 C 0.20989 0.05533 0.40002 0.0
C2634 C 0.19367 0.0394 0.38505 0.0
C2635 C 0.20573 0.03547 0.37577 0.0
C2636 C 0.21982 0.04185 0.37855 0.0
C2637 C 0.22186 0.05174 0.39049 0.0
C2638 C 0.21173 0.00135 0.35133 0.0
C2639 C 0.19903 0.00165 0.34208 0.0
C2640 C 0.21409 0.01254 0.36196 0.0
C2641 C 0.20373 0.02423 0.3637 0.0
C2642 C 0.19118 0.0247 0.35425 0.0
C2643 C 0.18891 0.01358 0.34349 0.0
H2644 H 0.38528 0.92719 0.59133 0.0
H2645 H 0.41042 0.96443 0.60909 0.0
H2646 H 0.36576 0.93164 0.60983 0.0
H2647 H 0.3911 0.96855 0.62772 0.0
H2648 H 0.36399 0.95728 0.67008 0.0
H2649 H 0.38219 0.95421 0.65006 0.0
H2650 H 0.34635 0.95085 0.61792 0.0
H2651 H 0.32802 0.95382 0.63813 0.0
C2652 C 0.38663 0.93641 0.59901 0.0
C2653 C 0.39962 0.94531 0.59874 0.0
C2654 C 0.37541 0.93894 0.60964 0.0
C2655 C 0.37697 0.95035 0.62033 0.0
C2656 C 0.38971 0.9595 0.61981 0.0
C2657 C 0.40083 0.95708 0.60912 0.0
C2658 C 0.35997 0.95579 0.65877 0.0
C2659 C 0.34457 0.95569 0.65569 0.0
C2660 C 0.37041 0.95419 0.64727 0.0
C2661 C 0.36571 0.95232 0.63241 0.0
C2662 C 0.3503 0.95219 0.62929 0.0
C2663 C 0.33982 0.95399 0.64081 0.0
H2664 H 0.43308 0.16328 0.85321 0.0
H2665 H 0.47167 0.13926 0.83681 0.0
H2666 H 0.42886 0.14386 0.87172 0.0
H2667 H 0.46715 0.11962 0.85521 0.0
H2668 H 0.44441 0.08122 0.8824 0.0
H2669 H 0.4482 0.0997 0.8625 0.0
H2670 H 0.44246 0.13527 0.89458 0.0
H2671 H 0.43854 0.11691 0.9143 0.0
C2672 C 0.44071 0.15391 0.85353 0.0
C2673 C 0.45287 0.15304 0.84357 0.0
C2674 C 0.43824 0.14274 0.86414 0.0
C2675 C 0.44776 0.13028 0.86502 0.0
C2676 C 0.45958 0.12906 0.85475 0.0
C2677 C 0.46215 0.14033 0.84418 0.0
C2678 C 0.44391 0.093 0.88514 0.0
C2679 C 0.44124 0.09761 0.89992 0.0
C2680 C 0.44619 0.10356 0.87379 0.0
C2681 C 0.44559 0.11894 0.87697 0.0
C2682 C 0.44286 0.12351 0.89175 0.0
C2683 C 0.44077 0.11298 0.90308 0.0
H2684 H 0.28259 0.1864 0.16516 0.0
H2685 H 0.31848 0.18863 0.13299 0.0
H2686 H 0.26438 0.18937 0.14516 0.0
H2687 H 0.30016 0.19132 0.11281 0.0
H2688 H 0.26206 0.21399 0.08494 0.0
H2689 H 0.28139 0.20998 0.10374 0.0
H2690 H 0.25481 0.17499 0.12363 0.0
H2691 H 0.23559 0.17879 0.10478 0.0
C2692 C 0.2866 0.18761 0.15381 0.0
C2693 C 0.302 0.18738 0.15067 0.0
C2694 C 0.27615 0.18912 0.14232 0.0
C2695 C 0.28082 0.19052 0.12739 0.0
C2696 C 0.29622 0.19035 0.12422 0.0
C2697 C 0.3067 0.1887 0.13574 0.0
C2698 C 0.26041 0.20528 0.09316 0.0
C2699 C 0.24713 0.19684 0.09338 0.0
C2700 C 0.27151 0.203 0.10396 0.0
C2701 C 0.26957 0.19227 0.11527 0.0
C2702 C 0.25651 0.18354 0.11524 0.0
C2703 C 0.24547 0.18576 0.10442 0.0
H2704 H 0.18304 0.09685 0.24069 0.0
H2705 H 0.22976 0.09209 0.25171 0.0
H2706 H 0.18015 0.11515 0.26074 0.0
H2707 H 0.22686 0.1103 0.27189 0.0
H2708 H 0.21826 0.15741 0.2927 0.0
H2709 H 0.22165 0.1379 0.27386 0.0
H2710 H 0.181 0.11655 0.28869 0.0
H2711 H 0.17753 0.13613 0.30738 0.0
C2712 C 0.19268 0.09968 0.24744 0.0
C2713 C 0.20662 0.09302 0.24461 0.0
C2714 C 0.191 0.11007 0.259 0.0
C2715 C 0.20328 0.11418 0.2679 0.0
C2716 C 0.21721 0.10743 0.26516 0.0
C2717 C 0.21885 0.0969 0.2537 0.0
C2718 C 0.21007 0.14854 0.29193 0.0
C2719 C 0.19763 0.14833 0.30153 0.0
C2720 C 0.21207 0.13731 0.28123 0.0
C2721 C 0.20158 0.1257 0.27977 0.0
C2722 C 0.18922 0.12541 0.28947 0.0
C2723 C 0.18731 0.13655 0.30027 0.0
H2724 H 0.3106 0.97399 0.51385 0.0
H2725 H 0.29609 0.93223 0.49448 0.0
H2726 H 0.29236 0.97097 0.53392 0.0
H2727 H 0.27783 0.92931 0.51442 0.0
H2728 H 0.23448 0.94016 0.53912 0.0
H2729 H 0.25449 0.9423 0.52091 0.0
H2730 H 0.28514 0.95513 0.55592 0.0
H2731 H 0.26483 0.95331 0.57425 0.0
C2732 C 0.30371 0.96406 0.51398 0.0
C2733 C 0.3047 0.95345 0.50241 0.0
C2734 C 0.29324 0.96234 0.52549 0.0
C2735 C 0.28353 0.94999 0.52566 0.0
C2736 C 0.28494 0.93911 0.51443 0.0
C2737 C 0.2954 0.9408 0.50298 0.0
C2738 C 0.24542 0.94361 0.54295 0.0
C2739 C 0.24803 0.9467 0.55813 0.0
C2740 C 0.25696 0.94463 0.53253 0.0
C2741 C 0.27143 0.9488 0.53697 0.0
C2742 C 0.27409 0.95195 0.55215 0.0
C2743 C 0.26251 0.95081 0.56264 0.0
H2744 H 0.43482 0.98095 0.79328 0.0
H2745 H 0.47243 0.00469 0.81213 0.0
H2746 H 0.43185 0.0005 0.77462 0.0
H2747 H 0.4693 0.02433 0.79353 0.0
H2748 H 0.44954 0.06338 0.76609 0.0
H2749 H 0.45191 0.04441 0.78563 0.0
H2750 H 0.44557 0.00975 0.75266 0.0
H2751 H 0.44285 0.02866 0.73327 0.0
C2752 C 0.44251 0.99028 0.79345 0.0
C2753 C 0.45395 0.9911 0.80421 0.0
C2754 C 0.44078 0.00151 0.78273 0.0
C2755 C 0.4504 0.01394 0.78252 0.0
C2756 C 0.46161 0.01498 0.79347 0.0
C2757 C 0.46339 0.00369 0.80417 0.0
C2758 C 0.44858 0.05172 0.76305 0.0
C2759 C 0.44606 0.04755 0.74811 0.0
C2760 C 0.45006 0.04084 0.77422 0.0
C2761 C 0.44891 0.02557 0.77071 0.0
C2762 C 0.44637 0.02142 0.75577 0.0
C2763 C 0.44499 0.03227 0.74461 0.0
H2764 H 0.33872 0.17931 0.00804 0.0
H2765 H 0.35576 0.21859 0.98567 0.0
H2766 H 0.35721 0.18267 0.02783 0.0
H2767 H 0.37436 0.22165 0.00522 0.0
H2768 H 0.41692 0.20971 0.03151 0.0
H2769 H 0.397 0.20723 0.0131 0.0
H2770 H 0.36494 0.20061 0.04855 0.0
H2771 H 0.38504 0.20297 0.06707 0.0
C2772 C 0.34625 0.18873 0.00737 0.0
C2773 C 0.3458 0.19854 0.99506 0.0
C2774 C 0.35687 0.19064 0.01873 0.0
C2775 C 0.36735 0.20233 0.01799 0.0
C2776 C 0.36662 0.21237 0.00595 0.0
C2777 C 0.35596 0.21056 0.9947 0.0
C2778 C 0.40565 0.20762 0.03539 0.0
C2779 C 0.40256 0.20646 0.05074 0.0
C2780 C 0.3942 0.20636 0.02485 0.0
C2781 C 0.37939 0.20377 0.02937 0.0
C2782 C 0.37626 0.20253 0.04473 0.0
C2783 C 0.38773 0.20399 0.05532 0.0
H2784 H 0.8336 0.46372 0.12816 0.0
H2785 H 0.85357 0.43015 0.15658 0.0
H2786 H 0.85343 0.45982 0.10977 0.0
H2787 H 0.87346 0.42656 0.13839 0.0
H2788 H 0.91604 0.44075 0.11336 0.0
H2789 H 0.89464 0.44296 0.13 0.0
H2790 H 0.86481 0.44034 0.09216 0.0
H2791 H 0.88641 0.43822 0.07538 0.0
C2792 C 0.84205 0.45537 0.13042 0.0
C2793 C 0.84207 0.44742 0.144 0.0
C2794 C 0.85343 0.45316 0.11988 0.0
C2795 C 0.86511 0.44304 0.12275 0.0
C2796 C 0.86477 0.43466 0.13601 0.0
C2797 C 0.85337 0.43676 0.14646 0.0
C2798 C 0.90495 0.44075 0.10855 0.0
C2799 C 0.90293 0.43936 0.09304 0.0
C2800 C 0.89267 0.44185 0.11811 0.0
C2801 C 0.87804 0.44174 0.1124 0.0
C2802 C 0.87596 0.4405 0.09687 0.0
C2803 C 0.8883 0.43919 0.08729 0.0
H2804 H 0.93383 0.66075 0.3492 0.0
H2805 H 0.97712 0.64172 0.33954 0.0
H2806 H 0.92879 0.64043 0.36666 0.0
H2807 H 0.97194 0.62119 0.35674 0.0
H2808 H 0.96454 0.59985 0.40347 0.0
H2809 H 0.96943 0.61832 0.38403 0.0
H2810 H 0.92423 0.61325 0.36784 0.0
H2811 H 0.91925 0.59501 0.38752 0.0
C2812 C 0.94224 0.65219 0.35074 0.0
C2813 C 0.95591 0.65292 0.34302 0.0
C2814 C 0.93929 0.64045 0.36064 0.0
C2815 C 0.94997 0.6292 0.36312 0.0
C2816 C 0.96353 0.62976 0.35518 0.0
C2817 C 0.96644 0.64145 0.3452 0.0
C2818 C 0.95566 0.60266 0.39575 0.0
C2819 C 0.94149 0.59599 0.3971 0.0
C2820 C 0.9585 0.61314 0.38451 0.0
C2821 C 0.94721 0.61729 0.3744 0.0
C2822 C 0.93313 0.6104 0.37554 0.0
C2823 C 0.93032 0.59983 0.38673 0.0
H2824 H 0.80818 0.66785 0.64287 0.0
H2825 H 0.79407 0.7096 0.66265 0.0
H2826 H 0.79058 0.67165 0.62243 0.0
H2827 H 0.77635 0.71321 0.64236 0.0
H2828 H 0.73435 0.70495 0.61413 0.0
H2829 H 0.75288 0.70139 0.63376 0.0
H2830 H 0.78551 0.68837 0.60068 0.0
H2831 H 0.7668 0.69166 0.58099 0.0
C2832 C 0.80149 0.67791 0.64283 0.0
C2833 C 0.80255 0.68835 0.65456 0.0
C2834 C 0.79136 0.68007 0.63109 0.0
C2835 C 0.78198 0.69267 0.63083 0.0
C2836 C 0.78323 0.70324 0.64237 0.0
C2837 C 0.7934 0.70114 0.65404 0.0
C2838 C 0.74541 0.70118 0.61103 0.0
C2839 C 0.74907 0.69851 0.59598 0.0
C2840 C 0.7561 0.69931 0.62228 0.0
C2841 C 0.77069 0.69465 0.61878 0.0
C2842 C 0.77434 0.69188 0.60374 0.0
C2843 C 0.76367 0.69388 0.59246 0.0
H2844 H 0.94868 0.5139 0.31943 0.0
H2845 H 0.95582 0.4825 0.28351 0.0
H2846 H 0.94741 0.53433 0.30123 0.0
H2847 H 0.95419 0.5027 0.26542 0.0
H2848 H 0.96574 0.54343 0.23797 0.0
H2849 H 0.96849 0.52464 0.25744 0.0
H2850 H 0.93068 0.54331 0.28089 0.0
H2851 H 0.92782 0.56208 0.26132 0.0
C2852 C 0.95 0.51137 0.30768 0.0
C2853 C 0.95226 0.49656 0.30293 0.0
C2854 C 0.94916 0.52304 0.29725 0.0
C2855 C 0.95073 0.52015 0.28188 0.0
C2856 C 0.9531 0.50535 0.27718 0.0
C2857 C 0.95383 0.49372 0.28756 0.0
C2858 C 0.95797 0.54353 0.24723 0.0
C2859 C 0.94644 0.5542 0.24794 0.0
C2860 C 0.95956 0.53276 0.25842 0.0
C2861 C 0.94971 0.53238 0.27065 0.0
C2862 C 0.93852 0.54336 0.27167 0.0
C2863 C 0.93689 0.55414 0.26044 0.0
H2864 H 0.68236 0.5985 0.74241 0.0
H2865 H 0.72842 0.59357 0.75594 0.0
H2866 H 0.67816 0.61593 0.76293 0.0
H2867 H 0.72414 0.61075 0.77672 0.0
H2868 H 0.71487 0.65751 0.79742 0.0
H2869 H 0.7194 0.63774 0.77923 0.0
H2870 H 0.67688 0.61777 0.79036 0.0
H2871 H 0.6722 0.63779 0.80831 0.0
C2872 C 0.69156 0.60106 0.74983 0.0
C2873 C 0.70574 0.59471 0.74747 0.0
C2874 C 0.68912 0.61093 0.76169 0.0
C2875 C 0.70083 0.61476 0.77145 0.0
C2876 C 0.71492 0.60813 0.76931 0.0
C2877 C 0.71734 0.59817 0.7575 0.0
C2878 C 0.7065 0.64889 0.796 0.0
C2879 C 0.69313 0.6493 0.80425 0.0
C2880 C 0.70916 0.63747 0.78569 0.0
C2881 C 0.69848 0.62619 0.78331 0.0
C2882 C 0.68527 0.62638 0.79183 0.0
C2883 C 0.68265 0.63777 0.80222 0.0
H2884 H 0.48546 0.85263 0.71616 0.0
H2885 H 0.50826 0.83822 0.67606 0.0
H2886 H 0.50525 0.8706 0.72092 0.0
H2887 H 0.52828 0.85602 0.68115 0.0
H2888 H 0.56752 0.88174 0.70404 0.0
H2889 H 0.5488 0.86203 0.70027 0.0
H2890 H 0.5136 0.89414 0.70788 0.0
H2891 H 0.53221 0.91368 0.71169 0.0
C2892 C 0.49463 0.85326 0.70831 0.0
C2893 C 0.49504 0.84404 0.69556 0.0
C2894 C 0.50603 0.86355 0.71111 0.0
C2895 C 0.51825 0.86481 0.70135 0.0
C2896 C 0.51903 0.85524 0.68892 0.0
C2897 C 0.50753 0.84501 0.68603 0.0
C2898 C 0.55578 0.88451 0.70498 0.0
C2899 C 0.55132 0.89924 0.70807 0.0
C2900 C 0.54509 0.87328 0.70273 0.0
C2901 C 0.52974 0.87655 0.7038 0.0
C2902 C 0.52533 0.89125 0.7071 0.0
C2903 C 0.53598 0.90247 0.70914 0.0
H2904 H 0.56037 0.25409 0.92099 0.0
H2905 H 0.54327 0.23279 0.96082 0.0
H2906 H 0.54256 0.27445 0.92429 0.0
H2907 H 0.52539 0.25302 0.96395 0.0
H2908 H 0.48416 0.28168 0.95413 0.0
H2909 H 0.50285 0.26216 0.95102 0.0
H2910 H 0.53625 0.2956 0.94124 0.0
H2911 H 0.51737 0.3152 0.94403 0.0
C2912 C 0.55296 0.25378 0.93054 0.0
C2913 C 0.55324 0.24165 0.94056 0.0
C2914 C 0.54273 0.26548 0.93241 0.0
C2915 C 0.53247 0.2653 0.94431 0.0
C2916 C 0.53294 0.25336 0.9545 0.0
C2917 C 0.54321 0.24172 0.95268 0.0
C2918 C 0.49543 0.28489 0.95114 0.0
C2919 C 0.49925 0.30002 0.94925 0.0
C2920 C 0.50621 0.27369 0.94955 0.0
C2921 C 0.52107 0.27732 0.94594 0.0
C2922 C 0.52488 0.29243 0.94393 0.0
C2923 C 0.5141 0.30367 0.94564 0.0
H2924 H 0.13921 0.30841 0.17617 0.0
H2925 H 0.16259 0.29033 0.21438 0.0
H2926 H 0.1191 0.29038 0.18002 0.0
H2927 H 0.14266 0.27223 0.21802 0.0
H2928 H 0.11485 0.23058 0.20703 0.0
H2929 H 0.13365 0.25003 0.20418 0.0
H2930 H 0.09882 0.28288 0.19804 0.0
H2931 H 0.0799 0.26322 0.20066 0.0
C2932 C 0.14002 0.30075 0.18549 0.0
C2933 C 0.15268 0.30076 0.19484 0.0
C2934 C 0.12848 0.2904 0.18768 0.0
C2935 C 0.12936 0.27978 0.19923 0.0
C2936 C 0.14178 0.28008 0.20884 0.0
C2937 C 0.15325 0.29046 0.20671 0.0
C2938 C 0.11118 0.24191 0.20494 0.0
C2939 C 0.09587 0.24534 0.20396 0.0
C2940 C 0.12196 0.2531 0.20349 0.0
C2941 C 0.11773 0.26801 0.20093 0.0
C2942 C 0.10242 0.27148 0.19992 0.0
C2943 C 0.0916 0.26027 0.20153 0.0
H2944 H 0.16165 0.85897 0.43196 0.0
H2945 H 0.13395 0.8382 0.46563 0.0
H2946 H 0.14291 0.87837 0.42853 0.0
H2947 H 0.11512 0.85757 0.46204 0.0
H2948 H 0.07906 0.88844 0.44166 0.0
H2949 H 0.09695 0.86781 0.44366 0.0
H2950 H 0.13338 0.89947 0.44328 0.0
H2951 H 0.11561 0.91993 0.44094 0.0
C2952 C 0.1516 0.85853 0.43868 0.0
C2953 C 0.14944 0.84705 0.4492 0.0
C2954 C 0.14083 0.86967 0.43668 0.0
C2955 C 0.12757 0.86959 0.44509 0.0
C2956 C 0.12516 0.85788 0.45529 0.0
C2957 C 0.13597 0.84675 0.45734 0.0
C2958 C 0.0909 0.89095 0.4419 0.0
C2959 C 0.0959 0.90583 0.44122 0.0
C2960 C 0.10113 0.87916 0.44317 0.0
C2961 C 0.11659 0.882 0.44361 0.0
C2962 C 0.12156 0.89688 0.44281 0.0
C2963 C 0.11136 0.90863 0.44166 0.0
H2964 H 0.70707 0.57334 0.88767 0.0
H2965 H 0.70843 0.53648 0.9188 0.0
H2966 H 0.70498 0.55564 0.86691 0.0
H2967 H 0.70594 0.51893 0.89823 0.0
H2968 H 0.71795 0.4912 0.85773 0.0
H2969 H 0.72094 0.50989 0.87723 0.0
H2970 H 0.68707 0.53721 0.85632 0.0
H2971 H 0.68399 0.5184 0.83679 0.0
C2972 C 0.70691 0.56148 0.89008 0.0
C2973 C 0.70787 0.55635 0.9049 0.0
C2974 C 0.70559 0.55136 0.87821 0.0
C2975 C 0.70535 0.53587 0.88091 0.0
C2976 C 0.70628 0.53077 0.89574 0.0
C2977 C 0.70751 0.54086 0.90757 0.0
C2978 C 0.71108 0.50114 0.85729 0.0
C2979 C 0.7006 0.50318 0.84575 0.0
C2980 C 0.7128 0.51187 0.86848 0.0
C2981 C 0.70413 0.52497 0.86842 0.0
C2982 C 0.694 0.52728 0.85663 0.0
C2983 C 0.69224 0.5165 0.84542 0.0
H2984 H 0.73637 0.46013 0.04898 0.0
H2985 H 0.75335 0.41748 0.06397 0.0
H2986 H 0.75718 0.46229 0.0316 0.0
H2987 H 0.77429 0.41975 0.04663 0.0
H2988 H 0.81657 0.43606 0.02116 0.0
H2989 H 0.79722 0.43469 0.04056 0.0
H2990 H 0.76421 0.44923 0.00848 0.0
H2991 H 0.78342 0.45092 0.98939 0.0
C2992 C 0.74453 0.4512 0.04858 0.0
C2993 C 0.74304 0.43854 0.05777 0.0
C2994 C 0.75648 0.45246 0.03863 0.0
C2995 C 0.76729 0.44111 0.03762 0.0
C2996 C 0.76618 0.42872 0.04721 0.0
C2997 C 0.75418 0.42744 0.05717 0.0
C2998 C 0.80518 0.439 0.01833 0.0
C2999 C 0.80152 0.44347 0.00372 0.0
C3000 C 0.7941 0.43813 0.02938 0.0
C3001 C 0.7792 0.44191 0.02606 0.0
C3002 C 0.7756 0.44641 0.01146 0.0
C3003 C 0.7866 0.44717 0.00044 0.0
H3004 H 0.88082 0.71062 0.56337 0.0
H3005 H 0.91121 0.68125 0.53999 0.0
H3006 H 0.86264 0.70775 0.54323 0.0
H3007 H 0.89318 0.67867 0.51982 0.0
H3008 H 0.866 0.69356 0.47905 0.0
H3009 H 0.88303 0.69551 0.50017 0.0
H3010 H 0.84619 0.68867 0.53058 0.0
H3011 H 0.82902 0.68691 0.50932 0.0
C3012 C 0.8836 0.70342 0.55407 0.0
C3013 C 0.89762 0.69632 0.55329 0.0
C3014 C 0.87316 0.70181 0.5425 0.0
C3015 C 0.87655 0.69312 0.52985 0.0
C3016 C 0.89036 0.68568 0.52927 0.0
C3017 C 0.90073 0.6872 0.54085 0.0
C3018 C 0.86148 0.69261 0.49022 0.0
C3019 C 0.84613 0.69012 0.49249 0.0
C3020 C 0.87128 0.69356 0.50234 0.0
C3021 C 0.86597 0.69217 0.51705 0.0
C3022 C 0.8506 0.68985 0.51937 0.0
C3023 C 0.8408 0.68874 0.50721 0.0
H3024 H 0.03198 0.44688 0.08812 0.0
H3025 H 0.99674 0.46836 0.11332 0.0
H3026 H 0.04889 0.45003 0.10927 0.0
H3027 H 0.01352 0.47085 0.13454 0.0
H3028 H 0.04176 0.45122 0.17361 0.0
H3029 H 0.02602 0.45017 0.15135 0.0
H3030 H 0.06063 0.47185 0.12568 0.0
H3031 H 0.07639 0.47314 0.14804 0.0
C3032 C 0.02784 0.45242 0.09802 0.0
C3033 C 0.01284 0.45712 0.09902 0.0
C3034 C 0.03754 0.45416 0.11015 0.0
C3035 C 0.0324 0.46047 0.12355 0.0
C3036 C 0.01765 0.4657 0.12439 0.0
C3037 C 0.00803 0.46418 0.11223 0.0
C3038 C 0.04605 0.45572 0.16322 0.0
C3039 C 0.06029 0.46228 0.16255 0.0
C3040 C 0.037 0.4552 0.15053 0.0
C3041 C 0.04212 0.46101 0.13688 0.0
C3042 C 0.05647 0.46729 0.1361 0.0
C3043 C 0.06544 0.46806 0.14888 0.0
H3044 H 0.92975 0.82651 0.39658 0.0
H3045 H 0.94629 0.79048 0.42411 0.0
H3046 H 0.93589 0.81226 0.37418 0.0
H3047 H 0.95165 0.77589 0.40189 0.0
H3048 H 0.9718 0.7568 0.36079 0.0
H3049 H 0.9678 0.77366 0.38178 0.0
H3050 H 0.9288 0.79173 0.35955 0.0
H3051 H 0.93356 0.77533 0.33819 0.0
C3052 C 0.93458 0.81548 0.39783 0.0
C3053 C 0.93758 0.80961 0.41208 0.0
C3054 C 0.93803 0.80726 0.38499 0.0
C3055 C 0.94435 0.79291 0.38614 0.0
C3056 C 0.94717 0.78704 0.40047 0.0
C3057 C 0.94397 0.79535 0.41327 0.0
C3058 C 0.96253 0.76458 0.36039 0.0
C3059 C 0.95296 0.76484 0.34801 0.0
C3060 C 0.96011 0.77413 0.37245 0.0
C3061 C 0.94778 0.78391 0.37256 0.0
C3062 C 0.93848 0.78448 0.35985 0.0
C3063 C 0.94114 0.77511 0.34762 0.0
H3064 H 0.57831 0.67961 0.63746 0.0
H3065 H 0.61232 0.69968 0.66519 0.0
H3066 H 0.59245 0.68636 0.61517 0.0
H3067 H 0.6269 0.70566 0.6431 0.0
H3068 H 0.64554 0.72607 0.60205 0.0
H3069 H 0.62833 0.72146 0.62269 0.0
H3070 H 0.6136 0.68081 0.60098 0.0
H3071 H 0.63023 0.6862 0.57996 0.0
C3072 C 0.58893 0.68529 0.63878 0.0
C3073 C 0.59423 0.68914 0.65304 0.0
C3074 C 0.59707 0.68913 0.626 0.0
C3075 C 0.61082 0.69667 0.62724 0.0
C3076 C 0.61619 0.70024 0.6416 0.0
C3077 C 0.60791 0.69667 0.65432 0.0
C3078 C 0.63828 0.71639 0.60164 0.0
C3079 C 0.63901 0.70654 0.58951 0.0
C3080 C 0.62859 0.71358 0.61351 0.0
C3081 C 0.61973 0.70057 0.61372 0.0
C3082 C 0.62009 0.69101 0.6012 0.0
C3083 C 0.62958 0.69405 0.58915 0.0
H3084 H 0.69627 0.36143 0.91867 0.0
H3085 H 0.71301 0.32635 0.89009 0.0
H3086 H 0.69247 0.37734 0.89706 0.0
H3087 H 0.70839 0.34195 0.8682 0.0
H3088 H 0.71434 0.38072 0.83474 0.0
H3089 H 0.71704 0.36288 0.85524 0.0
H3090 H 0.67768 0.38154 0.87631 0.0
H3091 H 0.67577 0.39985 0.85623 0.0
C3092 C 0.69894 0.35705 0.9077 0.0
C3093 C 0.70495 0.34268 0.90604 0.0
C3094 C 0.69663 0.36613 0.89525 0.0
C3095 C 0.69998 0.36094 0.88078 0.0
C3096 C 0.70587 0.34644 0.87915 0.0
C3097 C 0.70846 0.33745 0.89167 0.0
C3098 C 0.70622 0.38077 0.84371 0.0
C3099 C 0.69491 0.3916 0.84407 0.0
C3100 C 0.7077 0.37055 0.85544 0.0
C3101 C 0.69769 0.37084 0.8676 0.0
C3102 C 0.68588 0.38123 0.86741 0.0
C3103 C 0.68464 0.39163 0.85587 0.0
H3104 H 0.99283 0.71247 0.53637 0.0
H3105 H 0.02538 0.69954 0.56958 0.0
H3106 H 0.01112 0.70874 0.51681 0.0
H3107 H 0.04415 0.69658 0.54992 0.0
H3108 H 0.06534 0.67281 0.50888 0.0
H3109 H 0.04952 0.67947 0.53003 0.0
H3110 H 0.03314 0.71782 0.5056 0.0
H3111 H 0.04851 0.7108 0.4843 0.0
C3112 C 0.00395 0.70892 0.53952 0.0
C3113 C 0.00755 0.70604 0.55453 0.0
C3114 C 0.01456 0.707 0.52828 0.0
C3115 C 0.02914 0.70232 0.53174 0.0
C3116 C 0.03295 0.69999 0.54684 0.0
C3117 C 0.02226 0.70185 0.55812 0.0
C3118 C 0.05844 0.68272 0.50809 0.0
C3119 C 0.05799 0.69115 0.49485 0.0
C3120 C 0.04944 0.68661 0.52026 0.0
C3121 C 0.03993 0.69912 0.5195 0.0
C3122 C 0.04005 0.70792 0.50647 0.0
C3123 C 0.0489 0.70392 0.49425 0.0
H3124 H 0.70328 0.77812 0.81159 0.0
H3125 H 0.69156 0.74372 0.77983 0.0
H3126 H 0.70795 0.79545 0.79094 0.0
H3127 H 0.69681 0.76065 0.75937 0.0
H3128 H 0.69403 0.79775 0.72568 0.0
H3129 H 0.68734 0.78261 0.74726 0.0
H3130 H 0.72607 0.79914 0.77092 0.0
H3131 H 0.73257 0.81459 0.74945 0.0
C3132 C 0.70168 0.77427 0.80024 0.0
C3133 C 0.6972 0.7595 0.79738 0.0
C3134 C 0.70449 0.78414 0.78841 0.0
C3135 C 0.70278 0.77943 0.77349 0.0
C3136 C 0.69808 0.76472 0.7707 0.0
C3137 C 0.69529 0.75492 0.78247 0.0
C3138 C 0.7011 0.79821 0.73549 0.0
C3139 C 0.7139 0.8073 0.7358 0.0
C3140 C 0.69729 0.78949 0.74786 0.0
C3141 C 0.70622 0.78958 0.7608 0.0
C3142 C 0.71885 0.79892 0.76121 0.0
C3143 C 0.72263 0.8077 0.74885 0.0
H3144 H 0.64201 0.43301 0.03492 0.0
H3145 H 0.61989 0.4684 0.05888 0.0
H3146 H 0.62515 0.43647 0.01386 0.0
H3147 H 0.60345 0.47272 0.03745 0.0
H3148 H 0.56888 0.47024 0.00048 0.0
H3149 H 0.5837 0.46445 0.02262 0.0
H3150 H 0.62107 0.45265 0.99426 0.0
H3151 H 0.60594 0.45756 0.9723 0.0
C3152 C 0.63352 0.44162 0.03555 0.0
C3153 C 0.63222 0.45052 0.04837 0.0
C3154 C 0.62393 0.44372 0.02347 0.0
C3155 C 0.61302 0.45506 0.02376 0.0
C3156 C 0.61155 0.46376 0.03682 0.0
C3157 C 0.62098 0.46139 0.04908 0.0
C3158 C 0.58024 0.46629 0.99905 0.0
C3159 C 0.58625 0.46428 0.9847 0.0
C3160 C 0.58879 0.46308 0.01173 0.0
C3161 C 0.60364 0.45805 0.01032 0.0
C3162 C 0.6096 0.45613 0.99588 0.0
C3163 C 0.60096 0.45904 0.98323 0.0
H3164 H 0.93016 0.32154 0.25195 0.0
H3165 H 0.95027 0.35634 0.22523 0.0
H3166 H 0.93486 0.33612 0.2745 0.0
H3167 H 0.95423 0.37126 0.24749 0.0
H3168 H 0.92826 0.37453 0.3082 0.0
H3169 H 0.92624 0.35725 0.28721 0.0
H3170 H 0.96778 0.3744 0.26933 0.0
H3171 H 0.96918 0.39217 0.28993 0.0
C3172 C 0.93556 0.33232 0.25091 0.0
C3173 C 0.93985 0.3378 0.23685 0.0
C3174 C 0.93817 0.34074 0.26382 0.0
C3175 C 0.94491 0.35493 0.26289 0.0
C3176 C 0.94932 0.36027 0.24877 0.0
C3177 C 0.94695 0.35175 0.23594 0.0
C3178 C 0.93701 0.3744 0.29984 0.0
C3179 C 0.94881 0.38468 0.30055 0.0
C3180 C 0.93592 0.36447 0.28783 0.0
C3181 C 0.94677 0.36447 0.27642 0.0
C3182 C 0.95899 0.37432 0.27764 0.0
C3183 C 0.95989 0.38442 0.28947 0.0
H3184 H 0.14599 0.07989 0.46709 0.0
H3185 H 0.17058 0.04539 0.44394 0.0
H3186 H 0.12278 0.06622 0.46284 0.0
H3187 H 0.14764 0.03145 0.44028 0.0
H3188 H 0.10422 0.01201 0.42718 0.0
H3189 H 0.12477 0.02989 0.4278 0.0
H3190 H 0.11036 0.0446 0.47155 0.0
H3191 H 0.08936 0.02714 0.47039 0.0
C3192 C 0.14643 0.06941 0.46106 0.0
C3193 C 0.16012 0.0637 0.45588 0.0
C3194 C 0.13314 0.06152 0.4587 0.0
C3195 C 0.13328 0.04768 0.45126 0.0
C3196 C 0.14698 0.04219 0.4458 0.0
C3197 C 0.16021 0.05015 0.44799 0.0
C3198 C 0.10537 0.0193 0.43678 0.0
C3199 C 0.09535 0.01821 0.44878 0.0
C3200 C 0.11719 0.02945 0.43722 0.0
C3201 C 0.11944 0.03853 0.44985 0.0
C3202 C 0.10893 0.03791 0.46157 0.0
C3203 C 0.09692 0.02791 0.46097 0.0
H3204 H 0.38803 0.85455 0.67891 0.0
H3205 H 0.37309 0.83645 0.72097 0.0
H3206 H 0.37018 0.875 0.68121 0.0
H3207 H 0.35554 0.85724 0.72372 0.0
H3208 H 0.31919 0.8924 0.72052 0.0
H3209 H 0.33363 0.86987 0.71538 0.0
H3210 H 0.36857 0.89689 0.69577 0.0
H3211 H 0.35392 0.91926 0.70038 0.0
C3212 C 0.3808 0.85496 0.68861 0.0
C3213 C 0.38194 0.84405 0.69981 0.0
C3214 C 0.37066 0.86671 0.69001 0.0
C3215 C 0.3616 0.86795 0.70278 0.0
C3216 C 0.36225 0.85659 0.71367 0.0
C3217 C 0.37228 0.84469 0.71214 0.0
C3218 C 0.32992 0.8935 0.71502 0.0
C3219 C 0.33542 0.90761 0.71087 0.0
C3220 C 0.33823 0.88058 0.71214 0.0
C3221 C 0.35228 0.88152 0.70515 0.0
C3222 C 0.35768 0.89567 0.7009 0.0
C3223 C 0.34932 0.90854 0.70364 0.0
H3224 H 0.5576 0.12175 0.96868 0.0
H3225 H 0.54153 0.13453 0.92513 0.0
H3226 H 0.53574 0.10575 0.97212 0.0
H3227 H 0.52 0.11808 0.92809 0.0
H3228 H 0.4744 0.10566 0.94656 0.0
H3229 H 0.49769 0.11877 0.94187 0.0
H3230 H 0.52197 0.08418 0.96535 0.0
H3231 H 0.49848 0.07139 0.9706 0.0
C3232 C 0.54958 0.12074 0.95968 0.0
C3233 C 0.55111 0.12938 0.9467 0.0
C3234 C 0.53705 0.11159 0.96161 0.0
C3235 C 0.52594 0.11079 0.95047 0.0
C3236 C 0.52808 0.11874 0.93708 0.0
C3237 C 0.54045 0.12805 0.93529 0.0
C3238 C 0.48471 0.10083 0.95069 0.0
C3239 C 0.4846 0.08752 0.95899 0.0
C3240 C 0.49811 0.10828 0.94789 0.0
C3241 C 0.51178 0.10249 0.95314 0.0
C3242 C 0.51166 0.08907 0.9613 0.0
C3243 C 0.4982 0.0817 0.96427 0.0
H3244 H 0.27473 0.30578 0.21856 0.0
H3245 H 0.25763 0.28694 0.1777 0.0
H3246 H 0.29157 0.28443 0.22143 0.0
H3247 H 0.2749 0.266 0.17994 0.0
H3248 H 0.29161 0.22189 0.19839 0.0
H3249 H 0.27703 0.24439 0.19423 0.0
H3250 H 0.31262 0.271 0.21328 0.0
H3251 H 0.32688 0.24829 0.21812 0.0
C3252 C 0.27491 0.29722 0.21001 0.0
C3253 C 0.26489 0.29784 0.19799 0.0
C3254 C 0.28455 0.285 0.21159 0.0
C3255 C 0.28449 0.27332 0.20102 0.0
C3256 C 0.27498 0.2745 0.18854 0.0
C3257 C 0.26519 0.28654 0.18715 0.0
C3258 C 0.29634 0.23255 0.20164 0.0
C3259 C 0.31036 0.23332 0.20862 0.0
C3260 C 0.28803 0.24551 0.19915 0.0
C3261 C 0.29364 0.25961 0.20334 0.0
C3262 C 0.30782 0.26036 0.21011 0.0
C3263 C 0.31604 0.24735 0.21281 0.0
H3264 H 0.10685 0.14326 0.22 0.0
H3265 H 0.08442 0.12175 0.18321 0.0
H3266 H 0.12702 0.12502 0.21858 0.0
H3267 H 0.1049 0.10376 0.18121 0.0
H3268 H 0.13974 0.06758 0.18695 0.0
H3269 H 0.11803 0.08332 0.19176 0.0
H3270 H 0.14736 0.12011 0.20282 0.0
H3271 H 0.16894 0.10421 0.19864 0.0
C3272 C 0.1063 0.13457 0.2116 0.0
C3273 C 0.09421 0.13392 0.20164 0.0
C3274 C 0.11787 0.12417 0.21071 0.0
C3275 C 0.11775 0.11303 0.19963 0.0
C3276 C 0.10532 0.11207 0.18999 0.0
C3277 C 0.0936 0.12237 0.19107 0.0
C3278 C 0.14152 0.079 0.19054 0.0
C3279 C 0.15605 0.08466 0.19239 0.0
C3280 C 0.12907 0.08805 0.19321 0.0
C3281 C 0.13089 0.10302 0.19764 0.0
C3282 C 0.14547 0.10857 0.19969 0.0
C3283 C 0.15789 0.09948 0.1972 0.0
H3284 H 0.32563 0.89146 0.43608 0.0
H3285 H 0.29095 0.9194 0.45465 0.0
H3286 H 0.31048 0.86934 0.44102 0.0
H3287 H 0.27544 0.89758 0.45877 0.0
H3288 H 0.27185 0.83576 0.43494 0.0
H3289 H 0.28962 0.85636 0.43264 0.0
H3290 H 0.27119 0.87638 0.47264 0.0
H3291 H 0.25292 0.85623 0.47414 0.0
C3292 C 0.31473 0.89286 0.44117 0.0
C3293 C 0.30948 0.90714 0.44499 0.0
C3294 C 0.30598 0.88019 0.44392 0.0
C3295 C 0.29165 0.88156 0.45029 0.0
C3296 C 0.28651 0.89592 0.45418 0.0
C3297 C 0.29538 0.90852 0.45172 0.0
C3298 C 0.27183 0.84452 0.44328 0.0
C3299 C 0.26105 0.84455 0.45465 0.0
C3300 C 0.28202 0.85632 0.44205 0.0
C3301 C 0.2818 0.86824 0.45235 0.0
C3302 C 0.27147 0.86771 0.46421 0.0
C3303 C 0.26109 0.85611 0.46521 0.0
H3304 H 0.53917 0.99306 0.68133 0.0
H3305 H 0.56126 0.02676 0.70801 0.0
H3306 H 0.51806 0.00978 0.67766 0.0
H3307 H 0.54024 0.04375 0.70367 0.0
H3308 H 0.50315 0.07169 0.6772 0.0
H3309 H 0.52571 0.05639 0.67991 0.0
H3310 H 0.49918 0.02062 0.69842 0.0
H3311 H 0.47668 0.03594 0.69603 0.0
C3312 C 0.53958 0.00403 0.6864 0.0
C3313 C 0.55179 0.00842 0.6953 0.0
C3314 C 0.52751 0.01361 0.6842 0.0
C3315 C 0.52751 0.0279 0.69057 0.0
C3316 C 0.54004 0.03273 0.69867 0.0
C3317 C 0.55207 0.02303 0.7011 0.0
C3318 C 0.50216 0.06057 0.68187 0.0
C3319 C 0.48819 0.05496 0.68638 0.0
C3320 C 0.51505 0.05189 0.68347 0.0
C3321 C 0.51409 0.03738 0.6893 0.0
C3322 C 0.50014 0.03177 0.6938 0.0
C3323 C 0.48731 0.04054 0.69249 0.0
H3324 H 0.35829 0.23198 0.94723 0.0
H3325 H 0.32176 0.26209 0.9377 0.0
H3326 H 0.37432 0.2531 0.95283 0.0
H3327 H 0.33761 0.28334 0.94405 0.0
H3328 H 0.37609 0.31753 0.93867 0.0
H3329 H 0.35787 0.29747 0.9351 0.0
H3330 H 0.37955 0.27189 0.96997 0.0
H3331 H 0.39809 0.29165 0.97277 0.0
C3332 C 0.35362 0.24313 0.94654 0.0
C3333 C 0.33878 0.24538 0.94196 0.0
C3334 C 0.36278 0.25529 0.94988 0.0
C3335 C 0.35728 0.27 0.94899 0.0
C3336 C 0.34232 0.27221 0.94465 0.0
C3337 C 0.3332 0.26003 0.94108 0.0
C3338 C 0.37672 0.30768 0.94567 0.0
C3339 C 0.38846 0.30599 0.95589 0.0
C3340 C 0.3663 0.29619 0.94368 0.0
C3341 C 0.36733 0.28291 0.9521 0.0
C3342 C 0.37863 0.28172 0.96297 0.0
C3343 C 0.38918 0.29306 0.9647 0.0
H3344 H 0.46613 0.14295 0.07442 0.0
H3345 H 0.44919 0.17133 0.03925 0.0
H3346 H 0.45971 0.12089 0.05975 0.0
H3347 H 0.44351 0.14947 0.02426 0.0
H3348 H 0.42371 0.10894 0.00393 0.0
H3349 H 0.42747 0.12932 0.0216 0.0
H3350 H 0.4668 0.10694 0.03873 0.0
H3351 H 0.46229 0.08617 0.02154 0.0
C3352 C 0.46112 0.14446 0.0635 0.0
C3353 C 0.45812 0.15884 0.05798 0.0
C3354 C 0.4575 0.13182 0.05505 0.0
C3355 C 0.45102 0.13332 0.0408 0.0
C3356 C 0.44812 0.14779 0.03531 0.0
C3357 C 0.45149 0.16037 0.04386 0.0
C3358 C 0.43298 0.10837 0.0117 0.0
C3359 C 0.44274 0.09612 0.01145 0.0
C3360 C 0.43526 0.12007 0.02171 0.0
C3361 C 0.44762 0.11998 0.03144 0.0
C3362 C 0.45708 0.10738 0.03154 0.0
C3363 C 0.45456 0.09548 0.0217 0.0
H3364 H 0.97689 0.50279 0.07771 0.0
H3365 H 0.93855 0.48039 0.09671 0.0
H3366 H 0.97242 0.5242 0.09393 0.0
H3367 H 0.93383 0.50195 0.11261 0.0
H3368 H 0.94279 0.53239 0.15233 0.0
H3369 H 0.94548 0.51251 0.13419 0.0
H3370 H 0.95624 0.54496 0.10008 0.0
H3371 H 0.95425 0.56495 0.11857 0.0
C3372 C 0.96734 0.50254 0.08515 0.0
C3373 C 0.95816 0.48983 0.08603 0.0
C3374 C 0.96474 0.51485 0.09441 0.0
C3375 C 0.95286 0.51474 0.1047 0.0
C3376 C 0.94328 0.50229 0.10505 0.0
C3377 C 0.94593 0.48995 0.09587 0.0
C3378 C 0.94592 0.53535 0.14104 0.0
C3379 C 0.94848 0.55031 0.13698 0.0
C3380 C 0.94721 0.52392 0.13053 0.0
C3381 C 0.951 0.52712 0.11564 0.0
C3382 C 0.95342 0.54209 0.1115 0.0
C3383 C 0.95215 0.55357 0.12206 0.0
H3384 H 0.92259 0.69914 0.35396 0.0
H3385 H 0.89857 0.72475 0.32079 0.0
H3386 H 0.89944 0.69475 0.36737 0.0
H3387 H 0.87519 0.71983 0.3339 0.0
H3388 H 0.84091 0.72393 0.37283 0.0
H3389 H 0.86228 0.72672 0.35601 0.0
H3390 H 0.8766 0.68188 0.36706 0.0
H3391 H 0.85563 0.67956 0.38431 0.0
C3392 C 0.91232 0.70366 0.34941 0.0
C3393 C 0.91243 0.71235 0.33635 0.0
C3394 C 0.89898 0.70104 0.35704 0.0
C3395 C 0.88537 0.70687 0.3517 0.0
C3396 C 0.88546 0.71533 0.33846 0.0
C3397 C 0.89886 0.7181 0.3309 0.0
C3398 C 0.84851 0.71463 0.37135 0.0
C3399 C 0.84679 0.7016 0.37988 0.0
C3400 C 0.86074 0.71618 0.36174 0.0
C3401 C 0.87134 0.70461 0.36035 0.0
C3402 C 0.86894 0.69118 0.36816 0.0
C3403 C 0.85688 0.68977 0.37793 0.0
H3404 H 0.67197 0.64856 0.57368 0.0
H3405 H 0.69449 0.67436 0.60775 0.0
H3406 H 0.67255 0.62659 0.58996 0.0
H3407 H 0.6948 0.65244 0.62406 0.0
H3408 H 0.67692 0.61443 0.65371 0.0
H3409 H 0.67396 0.63557 0.63688 0.0
H3410 H 0.69483 0.61047 0.60143 0.0
H3411 H 0.6985 0.58946 0.61836 0.0
C3412 C 0.67695 0.64956 0.58466 0.0
C3413 C 0.68321 0.66314 0.58946 0.0
C3414 C 0.67732 0.637 0.59392 0.0
C3415 C 0.68366 0.63792 0.60822 0.0
C3416 C 0.68973 0.65153 0.6131 0.0
C3417 C 0.68963 0.66402 0.60375 0.0
C3418 C 0.681 0.61336 0.64239 0.0
C3419 C 0.68827 0.60026 0.63755 0.0
C3420 C 0.6792 0.62547 0.63274 0.0
C3421 C 0.68432 0.62464 0.61797 0.0
C3422 C 0.69077 0.61132 0.61281 0.0
C3423 C 0.69281 0.59927 0.62252 0.0
H3424 H 0.28083 0.95113 0.40811 0.0
H3425 H 0.3122 0.93905 0.37346 0.0
H3426 H 0.26031 0.94845 0.39063 0.0
H3427 H 0.29152 0.93689 0.35565 0.0
H3428 H 0.24799 0.91788 0.33448 0.0
H3429 H 0.26955 0.92074 0.35091 0.0
H3430 H 0.2505 0.96136 0.36875 0.0
H3431 H 0.22885 0.9584 0.35257 0.0
C3432 C 0.28335 0.94777 0.39677 0.0
C3433 C 0.29815 0.94513 0.3922 0.0
C3434 C 0.27158 0.94647 0.38669 0.0
C3435 C 0.27431 0.94255 0.37175 0.0
C3436 C 0.28909 0.93984 0.36713 0.0
C3437 C 0.30092 0.94118 0.37726 0.0
C3438 C 0.24843 0.92746 0.34186 0.0
C3439 C 0.23666 0.93786 0.3423 0.0
C3440 C 0.26082 0.92913 0.3512 0.0
C3441 C 0.26167 0.94123 0.36116 0.0
C3442 C 0.25004 0.95179 0.36136 0.0
C3443 C 0.23766 0.95012 0.35204 0.0
H3444 H 0.18841 0.06084 0.52817 0.0
H3445 H 0.19975 0.03 0.4928 0.0
H3446 H 0.18462 0.03973 0.54519 0.0
H3447 H 0.19546 0.00912 0.50948 0.0
H3448 H 0.20427 0.97659 0.54723 0.0
H3449 H 0.20777 0.99829 0.53123 0.0
H3450 H 0.1676 0.01817 0.54919 0.0
H3451 H 0.16418 0.99652 0.56543 0.0
C3452 C 0.18999 0.04959 0.52402 0.0
C3453 C 0.19428 0.04712 0.50912 0.0
C3454 C 0.18771 0.03752 0.5337 0.0
C3455 C 0.18981 0.02278 0.52867 0.0
C3456 C 0.19394 0.02034 0.51374 0.0
C3457 C 0.19617 0.03235 0.5041 0.0
C3458 C 0.19618 0.98558 0.5478 0.0
C3459 C 0.18392 0.98481 0.55757 0.0
C3460 C 0.19816 0.99799 0.53858 0.0
C3461 C 0.18791 0.0099 0.53891 0.0
C3462 C 0.17575 0.00922 0.5488 0.0
C3463 C 0.17375 0.99678 0.55803 0.0
H3464 H 0.91795 0.45824 0.29435 0.0
H3465 H 0.89283 0.42066 0.31138 0.0
H3466 H 0.89717 0.46476 0.27806 0.0
H3467 H 0.87215 0.42699 0.29479 0.0
H3468 H 0.83275 0.45004 0.27204 0.0
H3469 H 0.85275 0.44554 0.29008 0.0
H3470 H 0.88557 0.45484 0.2559 0.0
H3471 H 0.86568 0.45993 0.23816 0.0
C3472 C 0.90801 0.45134 0.2946 0.0
C3473 C 0.90708 0.43888 0.30411 0.0
C3474 C 0.89611 0.45505 0.28522 0.0
C3475 C 0.88303 0.44635 0.28507 0.0
C3476 C 0.882 0.43403 0.29476 0.0
C3477 C 0.89389 0.43034 0.30419 0.0
C3478 C 0.84423 0.45132 0.26846 0.0
C3479 C 0.84761 0.45524 0.25363 0.0
C3480 C 0.85569 0.44859 0.27875 0.0
C3481 C 0.87076 0.44978 0.27442 0.0
C3482 C 0.8741 0.45396 0.25966 0.0
C3483 C 0.86267 0.45668 0.24941 0.0
H3484 H 0.80838 0.71865 0.77422 0.0
H3485 H 0.79297 0.67445 0.763 0.0
H3486 H 0.78692 0.72198 0.7908 0.0
H3487 H 0.7719 0.6773 0.78005 0.0
H3488 H 0.72614 0.6953 0.79282 0.0
H3489 H 0.74929 0.69051 0.77951 0.0
H3490 H 0.77372 0.71559 0.81283 0.0
H3491 H 0.75035 0.72092 0.8258 0.0
C3492 C 0.80061 0.7095 0.77571 0.0
C3493 C 0.80217 0.69635 0.76733 0.0
C3494 C 0.78832 0.71136 0.78519 0.0
C3495 C 0.7775 0.69999 0.7866 0.0
C3496 C 0.77974 0.68646 0.77893 0.0
C3497 C 0.79185 0.68473 0.76929 0.0
C3498 C 0.73646 0.69974 0.79734 0.0
C3499 C 0.73641 0.70854 0.81032 0.0
C3500 C 0.74979 0.69689 0.78977 0.0
C3501 C 0.76345 0.70258 0.79512 0.0
C3502 C 0.76341 0.71119 0.80827 0.0
C3503 C 0.75002 0.7142 0.81574 0.0
H3504 H 0.57681 0.96357 0.64604 0.0
H3505 H 0.54094 0.94767 0.67413 0.0
H3506 H 0.56141 0.9593 0.62393 0.0
H3507 H 0.52527 0.9442 0.65231 0.0
H3508 H 0.52299 0.96615 0.58994 0.0
H3509 H 0.54074 0.96851 0.61067 0.0
H3510 H 0.52112 0.9295 0.63152 0.0
H3511 H 0.50297 0.92797 0.6113 0.0
C3512 C 0.56561 0.95922 0.64747 0.0
C3513 C 0.56009 0.95588 0.66177 0.0
C3514 C 0.55673 0.95686 0.63481 0.0
C3515 C 0.54207 0.95134 0.63625 0.0
C3516 C 0.53661 0.94807 0.65065 0.0
C3517 C 0.54556 0.95017 0.66322 0.0
C3518 C 0.52269 0.95808 0.59895 0.0
C3519 C 0.51165 0.94699 0.59924 0.0
C3520 C 0.53285 0.95934 0.61079 0.0
C3521 C 0.53226 0.94932 0.62295 0.0
C3522 C 0.52165 0.93771 0.62265 0.0
C3523 C 0.51134 0.93671 0.61103 0.0
H3524 H 0.47062 0.25991 0.85492 0.0
H3525 H 0.42725 0.2722 0.83801 0.0
H3526 H 0.46713 0.27643 0.8763 0.0
H3527 H 0.42321 0.2882 0.85978 0.0
H3528 H 0.42463 0.32357 0.89636 0.0
H3529 H 0.42945 0.30991 0.8733 0.0
H3530 H 0.45333 0.2762 0.89845 0.0
H3531 H 0.44913 0.29026 0.92129 0.0
C3532 C 0.46038 0.2663 0.85581 0.0
C3533 C 0.4492 0.26487 0.84494 0.0
C3534 C 0.45826 0.27562 0.86811 0.0
C3535 C 0.44475 0.28345 0.86997 0.0
C3536 C 0.43381 0.28246 0.85869 0.0
C3537 C 0.43608 0.27333 0.84622 0.0
C3538 C 0.43089 0.31322 0.89692 0.0
C3539 C 0.43655 0.30799 0.9106 0.0
C3540 C 0.43362 0.30536 0.88371 0.0
C3541 C 0.44189 0.29199 0.88394 0.0
C3542 C 0.44727 0.28665 0.89773 0.0
C3543 C 0.44474 0.29463 0.91088 0.0
H3544 H 0.07242 0.17834 0.14339 0.0
H3545 H 0.10733 0.19682 0.17121 0.0
H3546 H 0.08802 0.18238 0.12123 0.0
H3547 H 0.1229 0.20057 0.14911 0.0
H3548 H 0.15142 0.18289 0.10973 0.0
H3549 H 0.13422 0.17996 0.13047 0.0
H3550 H 0.10127 0.20632 0.10717 0.0
H3551 H 0.11884 0.20995 0.08643 0.0
C3552 C 0.08339 0.18328 0.14477 0.0
C3553 C 0.08871 0.18718 0.15903 0.0
C3554 C 0.09223 0.18566 0.13209 0.0
C3555 C 0.10662 0.19172 0.13355 0.0
C3556 C 0.11185 0.19581 0.14776 0.0
C3557 C 0.10293 0.19369 0.16038 0.0
C3558 C 0.14063 0.18829 0.109 0.0
C3559 C 0.1367 0.19699 0.0965 0.0
C3560 C 0.13075 0.1865 0.12088 0.0
C3561 C 0.11657 0.19309 0.12046 0.0
C3562 C 0.11222 0.20117 0.10772 0.0
C3563 C 0.12224 0.20318 0.09585 0.0
H3564 H 0.19902 0.86068 0.42322 0.0
H3565 H 0.22144 0.82854 0.39497 0.0
H3566 H 0.19442 0.87653 0.40146 0.0
H3567 H 0.21655 0.84437 0.37316 0.0
H3568 H 0.18685 0.87262 0.33833 0.0
H3569 H 0.19168 0.85525 0.35898 0.0
H3570 H 0.21381 0.89039 0.38342 0.0
H3571 H 0.20975 0.90746 0.36282 0.0
C3572 C 0.20291 0.85698 0.41236 0.0
C3573 C 0.21069 0.84344 0.4108 0.0
C3574 C 0.20028 0.86604 0.39995 0.0
C3575 C 0.20514 0.8616 0.38571 0.0
C3576 C 0.21264 0.84794 0.38404 0.0
C3577 C 0.21552 0.83898 0.39652 0.0
C3578 C 0.19291 0.87659 0.34801 0.0
C3579 C 0.19761 0.89157 0.34897 0.0
C3580 C 0.19562 0.86666 0.35982 0.0
C3581 C 0.20291 0.87162 0.3728 0.0
C3582 C 0.20791 0.88642 0.37362 0.0
C3583 C 0.20544 0.89622 0.36181 0.0
H3584 H 0.54045 0.19295 0.97483 0.0
H3585 H 0.57663 0.17713 0.0027 0.0
H3586 H 0.52485 0.19613 0.99698 0.0
H3587 H 0.56098 0.1805 0.02487 0.0
H3588 H 0.53024 0.20603 0.06003 0.0
H3589 H 0.54746 0.20254 0.03908 0.0
H3590 H 0.51396 0.17682 0.01582 0.0
H3591 H 0.49698 0.17977 0.03681 0.0
C3592 C 0.54512 0.19027 0.98568 0.0
C3593 C 0.55973 0.1847 0.98703 0.0
C3594 C 0.53617 0.19203 0.99833 0.0
C3595 C 0.54172 0.18845 0.01257 0.0
C3596 C 0.55648 0.18335 0.014 0.0
C3597 C 0.56538 0.18137 0.00131 0.0
C3598 C 0.52664 0.19939 0.05059 0.0
C3599 C 0.51211 0.1934 0.05003 0.0
C3600 C 0.53648 0.19747 0.03858 0.0
C3601 C 0.53189 0.18964 0.02578 0.0
C3602 C 0.51762 0.18318 0.02544 0.0
C3603 C 0.50789 0.18493 0.03747 0.0
H3604 H 0.21775 0.32245 0.25468 0.0
H3605 H 0.20109 0.28682 0.22674 0.0
H3606 H 0.21129 0.3081 0.27691 0.0
H3607 H 0.19543 0.27209 0.24879 0.0
H3608 H 0.17616 0.25177 0.28961 0.0
H3609 H 0.1796 0.26923 0.26897 0.0
H3610 H 0.21843 0.28755 0.29127 0.0
H3611 H 0.21419 0.27061 0.31228 0.0
C3612 C 0.21281 0.31149 0.25331 0.0
C3613 C 0.20992 0.30575 0.23899 0.0
C3614 C 0.20917 0.30321 0.26605 0.0
C3615 C 0.20279 0.28889 0.26475 0.0
C3616 C 0.19997 0.28319 0.25034 0.0
C3617 C 0.20335 0.29158 0.23764 0.0
C3618 C 0.18523 0.25978 0.29012 0.0
C3619 C 0.19492 0.25995 0.30241 0.0
C3620 C 0.18734 0.26966 0.27825 0.0
C3621 C 0.19949 0.27967 0.27823 0.0
C3622 C 0.20886 0.28016 0.29089 0.0
C3623 C 0.2065 0.27047 0.30294 0.0
H3624 H 0.07527 0.96905 0.50645 0.0
H3625 H 0.10812 0.94979 0.47671 0.0
H3626 H 0.09093 0.96252 0.5279 0.0
H3627 H 0.12374 0.94342 0.49814 0.0
H3628 H 0.15456 0.95637 0.53744 0.0
H3629 H 0.13757 0.96055 0.51685 0.0
H3630 H 0.10221 0.9387 0.54128 0.0
H3631 H 0.11952 0.93385 0.56199 0.0
C3632 C 0.08579 0.96338 0.50449 0.0
C3633 C 0.09052 0.96004 0.48988 0.0
C3634 C 0.09467 0.95956 0.51677 0.0
C3635 C 0.10853 0.95253 0.51464 0.0
C3636 C 0.11313 0.94894 0.50006 0.0
C3637 C 0.10418 0.95256 0.48781 0.0
C3638 C 0.14331 0.95211 0.53845 0.0
C3639 C 0.13856 0.94444 0.55135 0.0
C3640 C 0.13353 0.95462 0.52661 0.0
C3641 C 0.11866 0.94978 0.52742 0.0
C3642 C 0.11367 0.94252 0.54042 0.0
C3643 C 0.12356 0.93979 0.55226 0.0
H3644 H 0.47243 0.88639 0.79344 0.0
H3645 H 0.43261 0.86847 0.81373 0.0
H3646 H 0.47009 0.86868 0.77287 0.0
H3647 H 0.42967 0.85115 0.79279 0.0
H3648 H 0.43227 0.81614 0.75625 0.0
H3649 H 0.43807 0.83014 0.77894 0.0
H3650 H 0.4546 0.86667 0.75194 0.0
H3651 H 0.44943 0.85249 0.72949 0.0
C3652 C 0.46321 0.87854 0.79346 0.0
C3653 C 0.45265 0.87878 0.80502 0.0
C3654 C 0.46178 0.86848 0.78166 0.0
C3655 C 0.44952 0.85866 0.78098 0.0
C3656 C 0.43932 0.85844 0.79297 0.0
C3657 C 0.44094 0.86836 0.80495 0.0
C3658 C 0.43726 0.82711 0.75521 0.0
C3659 C 0.44039 0.8332 0.74108 0.0
C3660 C 0.44052 0.83518 0.76821 0.0
C3661 C 0.44684 0.84955 0.76732 0.0
C3662 C 0.45006 0.85552 0.75314 0.0
C3663 C 0.44697 0.84742 0.7402 0.0
H3664 H 0.67359 0.54282 0.95438 0.0
H3665 H 0.64808 0.57858 0.97444 0.0
H3666 H 0.65062 0.52846 0.9509 0.0
H3667 H 0.62506 0.56425 0.97071 0.0
H3668 H 0.58818 0.5375 0.94239 0.0
H3669 H 0.60992 0.5534 0.94721 0.0
H3670 H 0.63148 0.517 0.97033 0.0
H3671 H 0.60969 0.50133 0.96616 0.0
C3672 C 0.66308 0.54765 0.95794 0.0
C3673 C 0.66261 0.56178 0.96473 0.0
C3674 C 0.64997 0.53941 0.95602 0.0
C3675 C 0.63614 0.54527 0.96061 0.0
C3676 C 0.6356 0.55954 0.96706 0.0
C3677 C 0.64876 0.56768 0.96924 0.0
C3678 C 0.5974 0.53298 0.94877 0.0
C3679 C 0.59727 0.51803 0.95362 0.0
C3680 C 0.60986 0.54206 0.95145 0.0
C3681 C 0.62241 0.53628 0.95889 0.0
C3682 C 0.62204 0.52159 0.96429 0.0
C3683 C 0.60956 0.51262 0.96182 0.0
H3684 H 0.82999 0.40084 0.22773 0.0
H3685 H 0.84725 0.41881 0.18633 0.0
H3686 H 0.84598 0.37885 0.22475 0.0
H3687 H 0.86294 0.39688 0.18332 0.0
H3688 H 0.90282 0.36758 0.19343 0.0
H3689 H 0.8852 0.38789 0.1966 0.0
H3690 H 0.85065 0.3563 0.20837 0.0
H3691 H 0.86863 0.33575 0.2056 0.0
C3692 C 0.83706 0.40004 0.21794 0.0
C3693 C 0.83749 0.41166 0.20736 0.0
C3694 C 0.84614 0.38742 0.21621 0.0
C3695 C 0.85582 0.38625 0.20389 0.0
C3696 C 0.85581 0.39762 0.19307 0.0
C3697 C 0.84677 0.41017 0.19479 0.0
C3698 C 0.89156 0.36491 0.19694 0.0
C3699 C 0.88715 0.35005 0.1994 0.0
C3700 C 0.88139 0.37657 0.19854 0.0
C3701 C 0.86651 0.37367 0.20261 0.0
C3702 C 0.86207 0.35884 0.20527 0.0
C3703 C 0.8723 0.3471 0.20359 0.0
H3704 H 0.97763 0.60232 0.44171 0.0
H3705 H 0.00116 0.56868 0.46716 0.0
H3706 H 0.00051 0.61656 0.43926 0.0
H3707 H 0.02439 0.58267 0.46414 0.0
H3708 H 0.04411 0.63703 0.42913 0.0
H3709 H 0.02414 0.6185 0.42844 0.0
H3710 H 0.03568 0.6047 0.47333 0.0
H3711 H 0.05614 0.6228 0.47352 0.0
C3712 C 0.98778 0.59779 0.44652 0.0
C3713 C 0.98756 0.58441 0.45471 0.0
C3714 C 0.00099 0.60593 0.44503 0.0
C3715 C 0.01438 0.6008 0.4515 0.0
C3716 C 0.01426 0.58709 0.45922 0.0
C3717 C 0.00096 0.57902 0.46087 0.0
C3718 C 0.04247 0.62981 0.4387 0.0
C3719 C 0.05151 0.63134 0.45141 0.0
C3720 C 0.03099 0.61927 0.43839 0.0
C3721 C 0.02807 0.61026 0.45094 0.0
C3722 C 0.03765 0.61132 0.4634 0.0
C3723 C 0.04934 0.62169 0.46357 0.0
H3724 H 0.77964 0.81026 0.71512 0.0
H3725 H 0.75936 0.78866 0.67718 0.0
H3726 H 0.79633 0.78885 0.71846 0.0
H3727 H 0.77641 0.7676 0.67985 0.0
H3728 H 0.83059 0.75162 0.71557 0.0
H3729 H 0.81657 0.77428 0.70975 0.0
H3730 H 0.77897 0.74724 0.69589 0.0
H3731 H 0.7932 0.72476 0.70101 0.0
C3732 C 0.77906 0.80105 0.7073 0.0
C3733 C 0.7682 0.80093 0.69601 0.0
C3734 C 0.78861 0.7888 0.70914 0.0
C3735 C 0.7876 0.77635 0.69955 0.0
C3736 C 0.77724 0.77675 0.68773 0.0
C3737 C 0.76755 0.78883 0.68609 0.0
C3738 C 0.81937 0.75057 0.71116 0.0
C3739 C 0.813 0.73642 0.70874 0.0
C3740 C 0.81129 0.76355 0.70791 0.0
C3741 C 0.79661 0.76265 0.70233 0.0
C3742 C 0.79034 0.74844 0.69985 0.0
C3743 C 0.79847 0.7355 0.7029 0.0
H3744 H 0.66511 0.59606 0.71239 0.0
H3745 H 0.6445 0.57797 0.67264 0.0
H3746 H 0.64337 0.61194 0.71642 0.0
H3747 H 0.62294 0.59418 0.67643 0.0
H3748 H 0.58212 0.62047 0.69155 0.0
H3749 H 0.60136 0.60102 0.69143 0.0
H3750 H 0.63444 0.63388 0.70404 0.0
H3751 H 0.61527 0.65295 0.70479 0.0
C3752 C 0.65588 0.59538 0.70458 0.0
C3753 C 0.6566 0.5859 0.6921 0.0
C3754 C 0.64345 0.60453 0.70685 0.0
C3755 C 0.63152 0.60451 0.69661 0.0
C3756 C 0.63188 0.59441 0.68458 0.0
C3757 C 0.64428 0.58516 0.68238 0.0
C3758 C 0.59347 0.62345 0.69448 0.0
C3759 C 0.59718 0.6383 0.698 0.0
C3760 C 0.60451 0.61234 0.6943 0.0
C3761 C 0.61945 0.61588 0.69773 0.0
C3762 C 0.62303 0.63068 0.70154 0.0
C3763 C 0.61205 0.64172 0.70172 0.0
H3764 H 0.74703 0.35331 0.92451 0.0
H3765 H 0.76847 0.34047 0.96574 0.0
H3766 H 0.76515 0.37348 0.92129 0.0
H3767 H 0.7867 0.36067 0.96253 0.0
H3768 H 0.79876 0.41168 0.96098 0.0
H3769 H 0.7837 0.38907 0.96332 0.0
H3770 H 0.79288 0.3781 0.91724 0.0
H3771 H 0.80799 0.40073 0.91484 0.0
C3772 C 0.75576 0.35472 0.93277 0.0
C3773 C 0.75636 0.34542 0.9454 0.0
C3774 C 0.76617 0.36618 0.93089 0.0
C3775 C 0.77726 0.36866 0.94171 0.0
C3776 C 0.77818 0.35904 0.95409 0.0
C3777 C 0.76787 0.34743 0.95586 0.0
C3778 C 0.7976 0.40444 0.95135 0.0
C3779 C 0.8045 0.40801 0.9377 0.0
C3780 C 0.7891 0.39142 0.95274 0.0
C3781 C 0.78719 0.38183 0.94047 0.0
C3782 C 0.79415 0.38535 0.92685 0.0
C3783 C 0.80281 0.39827 0.9255 0.0
H3784 H 0.0052 0.57304 0.17828 0.0
H3785 H 0.97684 0.54029 0.19967 0.0
H3786 H 0.027 0.55707 0.18287 0.0
H3787 H 0.99854 0.52435 0.20397 0.0
H3788 H 0.037 0.4935 0.18857 0.0
H3789 H 0.01655 0.51081 0.18454 0.0
H3790 H 0.04113 0.5455 0.20723 0.0
H3791 H 0.06157 0.52793 0.212 0.0
C3792 C 0.00363 0.56247 0.18396 0.0
C3793 C 0.98932 0.55788 0.18856 0.0
C3794 C 0.01609 0.55341 0.18664 0.0
C3795 C 0.01437 0.53951 0.19371 0.0
C3796 C 0.0001 0.53499 0.19842 0.0
C3797 C 0.98771 0.54414 0.19598 0.0
C3798 C 0.03808 0.5047 0.19296 0.0
C3799 C 0.0509 0.50916 0.20094 0.0
C3800 C 0.02636 0.51465 0.19052 0.0
C3801 C 0.02725 0.52938 0.19572 0.0
C3802 C 0.04023 0.53415 0.20312 0.0
C3803 C 0.05193 0.52409 0.2058 0.0
H3804 H 0.81951 0.75659 0.43222 0.0
H3805 H 0.85583 0.72878 0.44771 0.0
H3806 H 0.83402 0.77888 0.43826 0.0
H3807 H 0.87053 0.75087 0.4531 0.0
H3808 H 0.89106 0.79167 0.47186 0.0
H3809 H 0.87322 0.77129 0.46913 0.0
H3810 H 0.85498 0.79276 0.42982 0.0
H3811 H 0.87249 0.81352 0.43319 0.0
C3812 C 0.83059 0.75524 0.4369 0.0
C3813 C 0.83652 0.74093 0.4395 0.0
C3814 C 0.83895 0.76802 0.44028 0.0
C3815 C 0.85346 0.76673 0.4462 0.0
C3816 C 0.85928 0.75237 0.44888 0.0
C3817 C 0.85088 0.73964 0.44569 0.0
C3818 C 0.88305 0.79206 0.4628 0.0
C3819 C 0.88313 0.80401 0.45267 0.0
C3820 C 0.87291 0.78036 0.46113 0.0
C3821 C 0.86282 0.78019 0.44907 0.0
C3822 C 0.86249 0.79255 0.43931 0.0
C3823 C 0.8725 0.80442 0.44117 0.0
H3824 H 0.95519 0.58526 0.52566 0.0
H3825 H 0.94738 0.61733 0.49041 0.0
H3826 H 0.95899 0.60586 0.54336 0.0
H3827 H 0.95162 0.63764 0.50777 0.0
H3828 H 0.9415 0.66959 0.54538 0.0
H3829 H 0.93809 0.64815 0.5291 0.0
H3830 H 0.97685 0.62696 0.54859 0.0
H3831 H 0.98021 0.64842 0.56516 0.0
C3832 C 0.95439 0.59666 0.52169 0.0
C3833 C 0.9511 0.59965 0.50663 0.0
C3834 C 0.95666 0.60842 0.53176 0.0
C3835 C 0.95552 0.62334 0.52693 0.0
C3836 C 0.9524 0.62626 0.51185 0.0
C3837 C 0.95019 0.61458 0.50184 0.0
C3838 C 0.94931 0.66038 0.54624 0.0
C3839 C 0.96119 0.66076 0.55651 0.0
C3840 C 0.94738 0.64811 0.53687 0.0
C3841 C 0.95727 0.63594 0.53751 0.0
C3842 C 0.969 0.63616 0.54794 0.0
C3843 C 0.97097 0.64848 0.55734 0.0
H3844 H 0.4695 0.00332 0.57398 0.0
H3845 H 0.44585 0.97766 0.60743 0.0
H3846 H 0.46577 0.02603 0.58892 0.0
H3847 H 0.44246 0.00024 0.6223 0.0
H3848 H 0.46467 0.03791 0.65124 0.0
H3849 H 0.46739 0.01769 0.63332 0.0
H3850 H 0.43875 0.04098 0.60234 0.0
H3851 H 0.43537 0.06118 0.62065 0.0
C3852 C 0.46343 0.00254 0.58442 0.0
C3853 C 0.45806 0.9887 0.58959 0.0
C3854 C 0.46124 0.01552 0.59287 0.0
C3855 C 0.45387 0.01474 0.60667 0.0
C3856 C 0.44818 0.00102 0.61165 0.0
C3857 C 0.45013 0.98814 0.60314 0.0
C3858 C 0.45882 0.03876 0.64069 0.0
C3859 C 0.44947 0.051 0.63754 0.0
C3860 C 0.46051 0.02723 0.63041 0.0
C3861 C 0.45314 0.02781 0.61662 0.0
C3862 C 0.4445 0.04038 0.61297 0.0
C3863 C 0.44263 0.05191 0.62341 0.0
H3864 H 0.35338 0.18185 0.88761 0.0
H3865 H 0.33946 0.22587 0.87376 0.0
H3866 H 0.37379 0.18253 0.86955 0.0
H3867 H 0.3601 0.22684 0.85596 0.0
H3868 H 0.39397 0.22123 0.81906 0.0
H3869 H 0.37125 0.21743 0.83359 0.0
H3870 H 0.39706 0.19528 0.86793 0.0
H3871 H 0.41963 0.19863 0.85319 0.0
C3872 C 0.35467 0.19163 0.88059 0.0
C3873 C 0.34495 0.20385 0.88212 0.0
C3874 C 0.36638 0.19207 0.87032 0.0
C3875 C 0.36874 0.20483 0.86145 0.0
C3876 C 0.35855 0.21677 0.86249 0.0
C3877 C 0.34672 0.21625 0.87268 0.0
C3878 C 0.39476 0.21544 0.82966 0.0
C3879 C 0.40861 0.2103 0.83501 0.0
C3880 C 0.38174 0.21332 0.83802 0.0
C3881 C 0.38231 0.20609 0.85195 0.0
C3882 C 0.39614 0.20069 0.85714 0.0
C3883 C 0.40913 0.20271 0.84873 0.0
H3884 H 0.17142 0.14358 0.07335 0.0
H3885 H 0.19936 0.16719 0.10488 0.0
H3886 H 0.17561 0.12038 0.08697 0.0
H3887 H 0.20305 0.1442 0.11885 0.0
H3888 H 0.21713 0.0998 0.13572 0.0
H3889 H 0.21495 0.12071 0.11836 0.0
H3890 H 0.16898 0.10845 0.10969 0.0
H3891 H 0.17155 0.08718 0.12661 0.0
C3892 C 0.17839 0.14382 0.08324 0.0
C3893 C 0.18506 0.1572 0.08806 0.0
C3894 C 0.18075 0.13053 0.09108 0.0
C3895 C 0.1897 0.13037 0.10399 0.0
C3896 C 0.19636 0.1438 0.10877 0.0
C3897 C 0.19414 0.15704 0.10084 0.0
C3898 C 0.20669 0.10149 0.12984 0.0
C3899 C 0.1945 0.092 0.13247 0.0
C3900 C 0.20536 0.11351 0.12002 0.0
C3901 C 0.19169 0.11645 0.11283 0.0
C3902 C 0.17971 0.10647 0.11492 0.0
C3903 C 0.18114 0.09428 0.12459 0.0
H3904 H 0.78179 0.46332 0.9094 0.0
H3905 H 0.81357 0.44721 0.87688 0.0
H3906 H 0.76158 0.45961 0.89164 0.0
H3907 H 0.79332 0.44395 0.85878 0.0
H3908 H 0.75064 0.42147 0.83965 0.0
H3909 H 0.77191 0.42707 0.85575 0.0
H3910 H 0.7513 0.46886 0.86841 0.0
H3911 H 0.72994 0.46316 0.85258 0.0
C3912 C 0.78446 0.45908 0.89839 0.0
C3913 C 0.79925 0.4554 0.89458 0.0
C3914 C 0.77289 0.45711 0.88814 0.0
C3915 C 0.77583 0.45143 0.87381 0.0
C3916 C 0.79069 0.44818 0.86981 0.0
C3917 C 0.8023 0.4502 0.88009 0.0
C3918 C 0.75066 0.43187 0.84584 0.0
C3919 C 0.73853 0.44181 0.84492 0.0
C3920 C 0.76291 0.43513 0.85497 0.0
C3921 C 0.76329 0.44841 0.86336 0.0
C3922 C 0.75126 0.45845 0.86224 0.0
C3923 C 0.73902 0.45518 0.85314 0.0
H3924 H 0.68775 0.53686 0.99847 0.0
H3925 H 0.71007 0.56099 0.03394 0.0
H3926 H 0.68414 0.51577 0.01506 0.0
H3927 H 0.70569 0.53986 0.05079 0.0
H3928 H 0.67596 0.50264 0.07636 0.0
H3929 H 0.68139 0.52498 0.06147 0.0
H3930 H 0.70354 0.49763 0.02852 0.0
H3931 H 0.6984 0.47535 0.04342 0.0
C3932 C 0.692 0.53772 0.00974 0.0
C3933 C 0.69954 0.55063 0.01469 0.0
C3934 C 0.68982 0.5256 0.01927 0.0
C3935 C 0.69482 0.52615 0.0341 0.0
C3936 C 0.70177 0.5392 0.03935 0.0
C3937 C 0.70421 0.5513 0.02971 0.0
C3938 C 0.68212 0.50142 0.06601 0.0
C3939 C 0.68668 0.48723 0.061 0.0
C3940 C 0.68528 0.51421 0.05756 0.0
C3941 C 0.69279 0.51296 0.04385 0.0
C3942 C 0.69764 0.49884 0.03902 0.0
C3943 C 0.69473 0.48611 0.04757 0.0
H3944 H 0.35602 0.96744 0.76125 0.0
H3945 H 0.33722 0.92534 0.77514 0.0
H3946 H 0.37709 0.96377 0.77813 0.0
H3947 H 0.35863 0.92114 0.79158 0.0
H3948 H 0.39479 0.92203 0.82712 0.0
H3949 H 0.37209 0.92781 0.81322 0.0
H3950 H 0.39869 0.94909 0.77892 0.0
H3951 H 0.42122 0.94391 0.79316 0.0
C3952 C 0.35643 0.95742 0.76803 0.0
C3953 C 0.3451 0.94665 0.76693 0.0
C3954 C 0.36854 0.95522 0.77759 0.0
C3955 C 0.36975 0.94202 0.78606 0.0
C3956 C 0.35804 0.9315 0.78536 0.0
C3957 C 0.34577 0.93386 0.77596 0.0
C3958 C 0.39575 0.92798 0.81662 0.0
C3959 C 0.40979 0.93252 0.81123 0.0
C3960 C 0.38274 0.93124 0.80862 0.0
C3961 C 0.38349 0.93896 0.79494 0.0
C3962 C 0.39759 0.94343 0.78956 0.0
C3963 C 0.41056 0.94035 0.79766 0.0
H3964 H 0.31078 0.21516 0.26943 0.0
H3965 H 0.29103 0.17322 0.25659 0.0
H3966 H 0.28924 0.2205 0.2854 0.0
H3967 H 0.26989 0.17789 0.27315 0.0
H3968 H 0.22615 0.19841 0.28734 0.0
H3969 H 0.24867 0.19289 0.2732 0.0
H3970 H 0.27529 0.21512 0.3069 0.0
H3971 H 0.2526 0.22133 0.32058 0.0
C3972 C 0.30198 0.20691 0.27046 0.0
C3973 C 0.3024 0.19383 0.26188 0.0
C3974 C 0.28965 0.20991 0.27957 0.0
C3975 C 0.27766 0.19973 0.28042 0.0
C3976 C 0.27865 0.18621 0.27245 0.0
C3977 C 0.2908 0.1834 0.26313 0.0
C3978 C 0.23682 0.20216 0.29167 0.0
C3979 C 0.23763 0.21033 0.30501 0.0
C3980 C 0.24978 0.19887 0.28366 0.0
C3981 C 0.26389 0.20341 0.28897 0.0
C3982 C 0.26465 0.21161 0.30235 0.0
C3983 C 0.25164 0.21514 0.31022 0.0
loop_
_geom_bond_atom_site_label_1
_geom_bond_atom_site_label_2
_geom_bond_distance
_geom_bond_site_symmetry_2
_ccdc_geom_bond_type
C0 C1 1.351 . S
C0 N3 1.368 . S
C0 H5 0.931 . S
C1 C0 1.351 . S
C1 N2 1.373 . S
C1 H29 0.930 . S
N2 C1 1.373 . S
N2 C4 1.340 . S
N3 C0 1.368 . S
N3 C4 1.321 . S
N3 Co6 2.135 . S
C4 N2 1.340 . S
C4 N3 1.321 . S
C4 H28 0.930 . S
H5 C0 0.931 . S
Co6 N3 2.135 . S
Co6 N9 2.121 . S
Co6 O14 2.055 . S
Co6 O17 2.039 . S
Co6 N20 2.140 . S
C7 O8 1.227 . S
C7 O17 1.265 . S
O8 C7 1.227 . S
N9 Co6 2.121 . S
N9 C11 1.375 . S
N9 C12 1.313 . S
C10 C11 1.338 . S
C10 N13 1.377 . S
C10 H30 0.930 . S
C11 N9 1.375 . S
C11 C10 1.338 . S
C11 H15 0.931 . S
C12 N9 1.313 . S
C12 N13 1.344 . S
C12 H16 0.930 . S
N13 C10 1.377 . S
N13 C12 1.344 . S
O14 Co6 2.055 . S
O14 C18 1.253 . S
H15 C11 0.931 . S
H16 C12 0.930 . S
O17 Co6 2.039 . S
O17 C7 1.265 . S
C18 O14 1.253 . S
C18 O19 1.227 . S
O19 C18 1.227 . S
N20 Co6 2.140 . S
N20 C23 1.346 . S
N20 C24 1.345 . S
C21 C22 1.387 . S
C21 C25 1.391 . S
C22 C21 1.387 . S
C22 C23 1.369 . S
C22 H31 0.929 . S
C23 N20 1.346 . S
C23 C22 1.369 . S
C23 H26 0.928 . S
C24 N20 1.345 . S
C24 C25 1.371 . S
C24 H27 0.931 . S
C25 C21 1.391 . S
C25 C24 1.371 . S
C25 H32 0.930 . S
H26 C23 0.928 . S
H27 C24 0.931 . S
H28 C4 0.930 . S
H29 C1 0.930 . S
H30 C10 0.930 . S
H31 C22 0.929 . S
H32 C25 0.930 . S
C33 C34 1.351 . S
C33 N36 1.368 . S
C33 H38 0.931 . S
C34 C33 1.351 . S
C34 N35 1.373 . S
C34 H62 0.930 1_655 S
N35 C34 1.373 . S
N35 C37 1.340 . S
N36 C33 1.368 . S
N36 C37 1.321 . S
N36 Co39 2.135 . S
C37 N35 1.340 . S
C37 N36 1.321 . S
C37 H61 0.930 . S
H38 C33 0.931 . S
Co39 N36 2.135 . S
Co39 N42 2.121 . S
Co39 O47 2.055 . S
Co39 O50 2.039 . S
Co39 N53 2.140 . S
C40 O41 1.227 . S
C40 O50 1.265 . S
O41 C40 1.227 . S
N42 Co39 2.121 . S
N42 C44 1.375 . S
N42 C45 1.313 . S
C43 C44 1.338 . S
C43 N46 1.377 . S
C43 H63 0.930 . S
C44 N42 1.375 . S
C44 C43 1.338 . S
C44 H48 0.931 . S
C45 N42 1.313 . S
C45 N46 1.344 . S
C45 H49 0.930 . S
N46 C43 1.377 . S
N46 C45 1.344 . S
O47 Co39 2.055 . S
O47 C51 1.253 . S
H48 C44 0.931 . S
H49 C45 0.930 . S
O50 Co39 2.039 . S
O50 C40 1.265 . S
C51 O47 1.253 . S
C51 O52 1.227 . S
O52 C51 1.227 . S
N53 Co39 2.140 . S
N53 C56 1.346 . S
N53 C57 1.345 . S
C54 C55 1.387 . S
C54 C58 1.391 . S
C55 C54 1.387 . S
C55 C56 1.369 . S
C55 H64 0.929 . S
C56 N53 1.346 . S
C56 C55 1.369 . S
C56 H59 0.928 . S
C57 N53 1.345 . S
C57 C58 1.371 . S
C57 H60 0.931 . S
C58 C54 1.391 . S
C58 C57 1.371 . S
C58 H65 0.930 . S
H59 C56 0.928 . S
H60 C57 0.931 . S
H61 C37 0.930 . S
H62 C34 0.930 1_455 S
H63 C43 0.930 . S
H64 C55 0.929 . S
H65 C58 0.930 . S
C66 C67 1.351 . S
C66 N69 1.368 . S
C66 H71 0.931 . S
C67 C66 1.351 . S
C67 N68 1.373 . S
C67 H95 0.930 . S
N68 C67 1.373 . S
N68 C70 1.340 . S
N69 C66 1.368 . S
N69 C70 1.321 . S
N69 Co72 2.135 . S
C70 N68 1.340 . S
C70 N69 1.321 . S
C70 H94 0.930 . S
H71 C66 0.931 . S
Co72 N69 2.135 . S
Co72 N75 2.121 . S
Co72 O80 2.055 . S
Co72 O83 2.039 . S
Co72 N86 2.140 . S
C73 O74 1.227 . S
C73 O83 1.265 . S
O74 C73 1.227 . S
N75 Co72 2.121 . S
N75 C77 1.375 . S
N75 C78 1.313 . S
C76 C77 1.338 . S
C76 N79 1.377 . S
C76 H96 0.930 . S
C77 N75 1.375 . S
C77 C76 1.338 . S
C77 H81 0.931 . S
C78 N75 1.313 . S
C78 N79 1.344 . S
C78 H82 0.930 . S
N79 C76 1.377 . S
N79 C78 1.344 . S
O80 Co72 2.055 . S
O80 C84 1.253 . S
H81 C77 0.931 . S
H82 C78 0.930 . S
O83 Co72 2.039 . S
O83 C73 1.265 . S
C84 O80 1.253 . S
C84 O85 1.227 . S
O85 C84 1.227 . S
N86 Co72 2.140 . S
N86 C89 1.346 . S
N86 C90 1.345 . S
C87 C88 1.387 . S
C87 C91 1.391 . S
C88 C87 1.387 . S
C88 C89 1.369 . S
C88 H97 0.929 . S
C89 N86 1.346 . S
C89 C88 1.369 . S
C89 H92 0.928 . S
C90 N86 1.345 . S
C90 C91 1.371 . S
C90 H93 0.931 . S
C91 C87 1.391 . S
C91 C90 1.371 . S
C91 H98 0.930 . S
H92 C89 0.928 . S
H93 C90 0.931 . S
H94 C70 0.930 . S
H95 C67 0.930 . S
H96 C76 0.930 . S
H97 C88 0.929 . S
H98 C91 0.930 . S
C99 C100 1.351 . S
C99 N102 1.368 . S
C99 H104 0.931 . S
C100 C99 1.351 . S
C100 N101 1.373 . S
C100 H128 0.930 . S
N101 C100 1.373 . S
N101 C103 1.340 . S
N102 C99 1.368 . S
N102 C103 1.321 . S
N102 Co105 2.135 . S
C103 N101 1.340 . S
C103 N102 1.321 . S
C103 H127 0.930 . S
H104 C99 0.931 . S
Co105 N102 2.135 . S
Co105 N108 2.121 . S
Co105 O113 2.055 . S
Co105 O116 2.039 . S
Co105 N119 2.140 . S
C106 O107 1.227 . S
C106 O116 1.265 . S
O107 C106 1.227 . S
N108 Co105 2.121 . S
N108 C110 1.375 . S
N108 C111 1.313 . S
C109 C110 1.338 . S
C109 N112 1.377 . S
C109 H129 0.930 . S
C110 N108 1.375 . S
C110 C109 1.338 . S
C110 H114 0.931 . S
C111 N108 1.313 . S
C111 N112 1.344 . S
C111 H115 0.930 . S
N112 C109 1.377 . S
N112 C111 1.344 . S
O113 Co105 2.055 . S
O113 C117 1.253 . S
H114 C110 0.931 . S
H115 C111 0.930 . S
O116 Co105 2.039 . S
O116 C106 1.265 . S
C117 O113 1.253 . S
C117 O118 1.227 . S
O118 C117 1.227 . S
N119 Co105 2.140 . S
N119 C122 1.346 . S
N119 C123 1.345 . S
C120 C121 1.387 . S
C120 C124 1.391 . S
C121 C120 1.387 . S
C121 C122 1.369 . S
C121 H130 0.929 . S
C122 N119 1.346 . S
C122 C121 1.369 . S
C122 H125 0.928 . S
C123 N119 1.345 . S
C123 C124 1.371 . S
C123 H126 0.931 . S
C124 C120 1.391 . S
C124 C123 1.371 . S
C124 H131 0.930 . S
H125 C122 0.928 . S
H126 C123 0.931 . S
H127 C103 0.930 . S
H128 C100 0.930 . S
H129 C109 0.930 . S
H130 C121 0.929 . S
H131 C124 0.930 . S
C132 C133 1.351 . S
C132 N135 1.368 . S
C132 H137 0.931 . S
C133 C132 1.351 . S
C133 N134 1.373 . S
C133 H161 0.930 . S
N134 C133 1.373 . S
N134 C136 1.340 . S
N135 C132 1.368 . S
N135 C136 1.321 . S
N135 Co138 2.135 . S
C136 N134 1.340 . S
C136 N135 1.321 . S
C136 H160 0.930 . S
H137 C132 0.931 . S
Co138 N135 2.135 . S
Co138 N141 2.121 . S
Co138 O146 2.055 . S
Co138 O149 2.039 . S
Co138 N152 2.140 . S
C139 O140 1.227 . S
C139 O149 1.265 . S
O140 C139 1.227 . S
N141 Co138 2.121 . S
N141 C143 1.375 . S
N141 C144 1.313 . S
C142 C143 1.338 . S
C142 N145 1.377 . S
C142 H162 0.930 . S
C143 N141 1.375 . S
C143 C142 1.338 . S
C143 H147 0.931 . S
C144 N141 1.313 . S
C144 N145 1.344 . S
C144 H148 0.930 . S
N145 C142 1.377 . S
N145 C144 1.344 . S
O146 Co138 2.055 . S
O146 C150 1.253 . S
H147 C143 0.931 . S
H148 C144 0.930 . S
O149 Co138 2.039 . S
O149 C139 1.265 . S
C150 O146 1.253 . S
C150 O151 1.227 . S
O151 C150 1.227 . S
N152 Co138 2.140 . S
N152 C155 1.346 . S
N152 C156 1.345 . S
C153 C154 1.387 . S
C153 C157 1.391 . S
C154 C153 1.387 . S
C154 C155 1.369 . S
C154 H163 0.929 . S
C155 N152 1.346 . S
C155 C154 1.369 . S
C155 H158 0.928 . S
C156 N152 1.345 . S
C156 C157 1.371 . S
C156 H159 0.931 . S
C157 C153 1.391 . S
C157 C156 1.371 . S
C157 H164 0.930 . S
H158 C155 0.928 . S
H159 C156 0.931 . S
H160 C136 0.930 . S
H161 C133 0.930 . S
H162 C142 0.930 . S
H163 C154 0.929 . S
H164 C157 0.930 . S
C165 C166 1.351 . S
C165 N168 1.368 . S
C165 H170 0.931 . S
C166 C165 1.351 . S
C166 N167 1.373 . S
C166 H194 0.930 . S
N167 C166 1.373 . S
N167 C169 1.340 . S
N168 C165 1.368 . S
N168 C169 1.321 . S
N168 Co171 2.135 . S
C169 N167 1.340 . S
C169 N168 1.321 . S
C169 H193 0.930 . S
H170 C165 0.931 . S
Co171 N168 2.135 . S
Co171 N174 2.121 . S
Co171 O179 2.055 . S
Co171 O182 2.039 . S
Co171 N185 2.140 . S
C172 O173 1.227 . S
C172 O182 1.265 . S
O173 C172 1.227 . S
N174 Co171 2.121 . S
N174 C176 1.375 . S
N174 C177 1.313 . S
C175 C176 1.338 . S
C175 N178 1.377 . S
C175 H195 0.930 . S
C176 N174 1.375 . S
C176 C175 1.338 . S
C176 H180 0.931 . S
C177 N174 1.313 . S
C177 N178 1.344 . S
C177 H181 0.930 . S
N178 C175 1.377 . S
N178 C177 1.344 . S
O179 Co171 2.055 . S
O179 C183 1.253 . S
H180 C176 0.931 . S
H181 C177 0.930 . S
O182 Co171 2.039 . S
O182 C172 1.265 . S
C183 O179 1.253 . S
C183 O184 1.227 . S
O184 C183 1.227 . S
N185 Co171 2.140 . S
N185 C188 1.346 . S
N185 C189 1.345 . S
C186 C187 1.387 . S
C186 C190 1.391 . S
C187 C186 1.387 . S
C187 C188 1.369 . S
C187 H196 0.929 . S
C188 N185 1.346 . S
C188 C187 1.369 . S
C188 H191 0.928 . S
C189 N185 1.345 . S
C189 C190 1.371 . S
C189 H192 0.931 . S
C190 C186 1.391 . S
C190 C189 1.371 . S
C190 H197 0.930 . S
H191 C188 0.928 . S
H192 C189 0.931 . S
H193 C169 0.930 . S
H194 C166 0.930 . S
H195 C175 0.930 . S
H196 C187 0.929 . S
H197 C190 0.930 . S
C198 C199 1.351 . S
C198 N201 1.368 . S
C198 H203 0.931 . S
C199 C198 1.351 . S
C199 N200 1.373 . S
C199 H227 0.930 . S
N200 C199 1.373 . S
N200 C202 1.340 . S
N201 C198 1.368 . S
N201 C202 1.321 . S
N201 Co204 2.135 . S
C202 N200 1.340 . S
C202 N201 1.321 . S
C202 H226 0.930 . S
H203 C198 0.931 . S
Co204 N201 2.135 . S
Co204 N207 2.121 . S
Co204 O212 2.055 . S
Co204 O215 2.039 . S
Co204 N218 2.140 . S
C205 O206 1.227 . S
C205 O215 1.265 . S
O206 C205 1.227 . S
N207 Co204 2.121 . S
N207 C209 1.375 . S
N207 C210 1.313 . S
C208 C209 1.338 . S
C208 N211 1.377 . S
C208 H228 0.930 . S
C209 N207 1.375 . S
C209 C208 1.338 . S
C209 H213 0.931 . S
C210 N207 1.313 . S
C210 N211 1.344 . S
C210 H214 0.930 . S
N211 C208 1.377 . S
N211 C210 1.344 . S
O212 Co204 2.055 . S
O212 C216 1.253 . S
H213 C209 0.931 . S
H214 C210 0.930 . S
O215 Co204 2.039 . S
O215 C205 1.265 . S
C216 O212 1.253 . S
C216 O217 1.227 . S
O217 C216 1.227 . S
N218 Co204 2.140 . S
N218 C221 1.346 . S
N218 C222 1.345 . S
C219 C220 1.387 . S
C219 C223 1.391 . S
C220 C219 1.387 . S
C220 C221 1.369 . S
C220 H229 0.929 . S
C221 N218 1.346 . S
C221 C220 1.369 . S
C221 H224 0.928 . S
C222 N218 1.345 . S
C222 C223 1.371 . S
C222 H225 0.931 . S
C223 C219 1.391 . S
C223 C222 1.371 . S
C223 H230 0.930 . S
H224 C221 0.928 . S
H225 C222 0.931 . S
H226 C202 0.930 . S
H227 C199 0.930 . S
H228 C208 0.930 . S
H229 C220 0.929 . S
H230 C223 0.930 . S
C231 C232 1.351 . S
C231 N234 1.368 . S
C231 H236 0.931 . S
C232 C231 1.351 . S
C232 N233 1.373 . S
C232 H260 0.930 1_655 S
N233 C232 1.373 . S
N233 C235 1.340 . S
N234 C231 1.368 . S
N234 C235 1.321 . S
N234 Co237 2.135 . S
C235 N233 1.340 . S
C235 N234 1.321 . S
C235 H259 0.930 . S
H236 C231 0.931 . S
Co237 N234 2.135 . S
Co237 N240 2.121 . S
Co237 O245 2.055 . S
Co237 O248 2.039 . S
Co237 N251 2.140 . S
C238 O239 1.227 . S
C238 O248 1.265 . S
O239 C238 1.227 . S
N240 Co237 2.121 . S
N240 C242 1.375 . S
N240 C243 1.313 . S
C241 C242 1.338 . S
C241 N244 1.377 . S
C241 H261 0.930 . S
C242 N240 1.375 . S
C242 C241 1.338 . S
C242 H246 0.931 . S
C243 N240 1.313 . S
C243 N244 1.344 . S
C243 H247 0.930 . S
N244 C241 1.377 . S
N244 C243 1.344 . S
O245 Co237 2.055 . S
O245 C249 1.253 . S
H246 C242 0.931 . S
H247 C243 0.930 . S
O248 Co237 2.039 . S
O248 C238 1.265 . S
C249 O245 1.253 . S
C249 O250 1.227 . S
O250 C249 1.227 . S
N251 Co237 2.140 . S
N251 C254 1.346 . S
N251 C255 1.345 . S
C252 C253 1.387 . S
C252 C256 1.391 . S
C253 C252 1.387 . S
C253 C254 1.369 . S
C253 H262 0.929 . S
C254 N251 1.346 . S
C254 C253 1.369 . S
C254 H257 0.928 . S
C255 N251 1.345 . S
C255 C256 1.371 . S
C255 H258 0.931 . S
C256 C252 1.391 . S
C256 C255 1.371 . S
C256 H263 0.930 . S
H257 C254 0.928 . S
H258 C255 0.931 . S
H259 C235 0.930 . S
H260 C232 0.930 1_455 S
H261 C241 0.930 . S
H262 C253 0.929 . S
H263 C256 0.930 . S
C264 C265 1.351 . S
C264 N267 1.368 . S
C264 H269 0.931 . S
C265 C264 1.351 . S
C265 N266 1.373 . S
C265 H293 0.930 . S
N266 C265 1.373 . S
N266 C268 1.340 . S
N267 C264 1.368 . S
N267 C268 1.321 . S
N267 Co270 2.135 . S
C268 N266 1.340 . S
C268 N267 1.321 . S
C268 H292 0.930 . S
H269 C264 0.931 . S
Co270 N267 2.135 . S
Co270 N273 2.121 . S
Co270 O278 2.055 . S
Co270 O281 2.039 . S
Co270 N284 2.140 . S
C271 O272 1.227 . S
C271 O281 1.265 . S
O272 C271 1.227 . S
N273 Co270 2.121 . S
N273 C275 1.375 . S
N273 C276 1.313 . S
C274 C275 1.338 . S
C274 N277 1.377 . S
C274 H294 0.930 . S
C275 N273 1.375 . S
C275 C274 1.338 . S
C275 H279 0.931 . S
C276 N273 1.313 . S
C276 N277 1.344 . S
C276 H280 0.930 . S
N277 C274 1.377 . S
N277 C276 1.344 . S
O278 Co270 2.055 . S
O278 C282 1.253 . S
H279 C275 0.931 . S
H280 C276 0.930 . S
O281 Co270 2.039 . S
O281 C271 1.265 . S
C282 O278 1.253 . S
C282 O283 1.227 . S
O283 C282 1.227 . S
N284 Co270 2.140 . S
N284 C287 1.346 . S
N284 C288 1.345 . S
C285 C286 1.387 . S
C285 C289 1.391 . S
C286 C285 1.387 . S
C286 C287 1.369 . S
C286 H295 0.929 . S
C287 N284 1.346 . S
C287 C286 1.369 . S
C287 H290 0.928 . S
C288 N284 1.345 . S
C288 C289 1.371 . S
C288 H291 0.931 . S
C289 C285 1.391 . S
C289 C288 1.371 . S
C289 H296 0.930 . S
H290 C287 0.928 . S
H291 C288 0.931 . S
H292 C268 0.930 . S
H293 C265 0.930 . S
H294 C274 0.930 . S
H295 C286 0.929 . S
H296 C289 0.930 . S
C297 C298 1.351 . S
C297 N300 1.368 . S
C297 H302 0.931 . S
C298 C297 1.351 . S
C298 N299 1.373 . S
C298 H326 0.930 . S
N299 C298 1.373 . S
N299 C301 1.340 . S
N300 C297 1.368 . S
N300 C301 1.321 . S
N300 Co303 2.135 . S
C301 N299 1.340 . S
C301 N300 1.321 . S
C301 H325 0.930 . S
H302 C297 0.931 . S
Co303 N300 2.135 . S
Co303 N306 2.121 . S
Co303 O311 2.055 . S
Co303 O314 2.039 . S
Co303 N317 2.140 . S
C304 O305 1.227 . S
C304 O314 1.265 . S
O305 C304 1.227 . S
N306 Co303 2.121 . S
N306 C308 1.375 . S
N306 C309 1.313 . S
C307 C308 1.338 . S
C307 N310 1.377 . S
C307 H327 0.930 . S
C308 N306 1.375 . S
C308 C307 1.338 . S
C308 H312 0.931 . S
C309 N306 1.313 . S
C309 N310 1.344 . S
C309 H313 0.930 . S
N310 C307 1.377 . S
N310 C309 1.344 . S
O311 Co303 2.055 . S
O311 C315 1.253 . S
H312 C308 0.931 . S
H313 C309 0.930 . S
O314 Co303 2.039 . S
O314 C304 1.265 . S
C315 O311 1.253 . S
C315 O316 1.227 . S
O316 C315 1.227 . S
N317 Co303 2.140 . S
N317 C320 1.346 . S
N317 C321 1.345 . S
C318 C319 1.387 . S
C318 C322 1.391 . S
C319 C318 1.387 . S
C319 C320 1.369 . S
C319 H328 0.929 . S
C320 N317 1.346 . S
C320 C319 1.369 . S
C320 H323 0.928 . S
C321 N317 1.345 . S
C321 C322 1.371 . S
C321 H324 0.931 . S
C322 C318 1.391 . S
C322 C321 1.371 . S
C322 H329 0.930 . S
H323 C320 0.928 . S
H324 C321 0.931 . S
H325 C301 0.930 . S
H326 C298 0.930 . S
H327 C307 0.930 . S
H328 C319 0.929 . S
H329 C322 0.930 . S
C330 C331 1.351 . S
C330 N333 1.368 . S
C330 H335 0.931 . S
C331 C330 1.351 . S
C331 N332 1.373 . S
C331 H359 0.930 . S
N332 C331 1.373 . S
N332 C334 1.340 . S
N333 C330 1.368 . S
N333 C334 1.321 . S
N333 Co336 2.135 . S
C334 N332 1.340 . S
C334 N333 1.321 . S
C334 H358 0.930 . S
H335 C330 0.931 . S
Co336 N333 2.135 . S
Co336 N339 2.121 . S
Co336 O344 2.055 . S
Co336 O347 2.039 . S
Co336 N350 2.140 . S
C337 O338 1.227 . S
C337 O347 1.265 . S
O338 C337 1.227 . S
N339 Co336 2.121 . S
N339 C341 1.375 . S
N339 C342 1.313 . S
C340 C341 1.338 . S
C340 N343 1.377 . S
C340 H360 0.970 . S
C341 N339 1.375 . S
C341 C340 1.338 . S
C341 H345 0.931 . S
C342 N339 1.313 . S
C342 N343 1.344 . S
C342 H346 0.930 . S
N343 C340 1.377 . S
N343 C342 1.344 . S
O344 Co336 2.055 . S
O344 C348 1.253 . S
H345 C341 0.931 . S
H346 C342 0.930 . S
O347 Co336 2.039 . S
O347 C337 1.265 . S
C348 O344 1.253 . S
C348 O349 1.227 . S
O349 C348 1.227 . S
N350 Co336 2.140 . S
N350 C353 1.346 . S
N350 C354 1.345 . S
C351 C352 1.387 . S
C351 C355 1.391 . S
C352 C351 1.387 . S
C352 C353 1.369 . S
C352 H361 0.929 . S
C353 N350 1.346 . S
C353 C352 1.369 . S
C353 H356 0.928 . S
C354 N350 1.345 . S
C354 C355 1.371 . S
C354 H357 0.931 . S
C355 C351 1.391 . S
C355 C354 1.371 . S
C355 H362 0.930 . S
H356 C353 0.928 . S
H357 C354 0.931 . S
H358 C334 0.930 . S
H359 C331 0.930 . S
H360 C340 0.970 . S
H361 C352 0.929 . S
H362 C355 0.930 . S
C363 C364 1.351 . S
C363 N366 1.368 . S
C363 H368 0.931 . S
C364 C363 1.351 . S
C364 N365 1.373 . S
C364 H392 0.930 . S
N365 C364 1.373 . S
N365 C367 1.340 . S
N366 C363 1.368 . S
N366 C367 1.321 . S
N366 Co369 2.135 . S
C367 N365 1.340 . S
C367 N366 1.321 . S
C367 H391 0.930 . S
H368 C363 0.931 . S
Co369 N366 2.135 . S
Co369 N372 2.121 . S
Co369 O377 2.055 . S
Co369 O380 2.039 . S
Co369 N383 2.140 . S
C370 O371 1.227 . S
C370 O380 1.265 . S
O371 C370 1.227 . S
N372 Co369 2.121 . S
N372 C374 1.375 . S
N372 C375 1.313 . S
C373 C374 1.338 . S
C373 N376 1.377 . S
C373 H393 0.930 . S
C374 N372 1.375 . S
C374 C373 1.338 . S
C374 H378 0.931 . S
C375 N372 1.313 . S
C375 N376 1.344 . S
C375 H379 0.930 . S
N376 C373 1.377 . S
N376 C375 1.344 . S
O377 Co369 2.055 . S
O377 C381 1.253 . S
H378 C374 0.931 . S
H379 C375 0.930 . S
O380 Co369 2.039 . S
O380 C370 1.265 . S
C381 O377 1.253 . S
C381 O382 1.227 . S
O382 C381 1.227 . S
N383 Co369 2.140 . S
N383 C386 1.346 . S
N383 C387 1.345 . S
C384 C385 1.387 . S
C384 C388 1.391 . S
C385 C384 1.387 . S
C385 C386 1.369 . S
C385 H394 0.929 . S
C386 N383 1.346 . S
C386 C385 1.369 . S
C386 H389 0.928 . S
C387 N383 1.345 . S
C387 C388 1.371 . S
C387 H390 0.931 . S
C388 C384 1.391 . S
C388 C387 1.371 . S
C388 H395 0.930 . S
H389 C386 0.928 . S
H390 C387 0.931 . S
H391 C367 0.930 . S
H392 C364 0.930 . S
H393 C373 0.930 . S
H394 C385 0.929 . S
H395 C388 0.930 . S
C396 C397 1.351 . S
C396 N399 1.368 . S
C396 H401 0.931 . S
C397 C396 1.351 . S
C397 N398 1.373 . S
C397 H425 0.930 . S
N398 C397 1.373 . S
N398 C400 1.340 . S
N399 C396 1.368 . S
N399 C400 1.321 . S
N399 Co402 2.135 . S
C400 N398 1.340 . S
C400 N399 1.321 . S
C400 H424 0.930 . S
H401 C396 0.931 . S
Co402 N399 2.135 . S
Co402 N405 2.121 . S
Co402 O410 2.055 . S
Co402 O413 2.039 . S
Co402 N416 2.140 . S
C403 O404 1.227 . S
C403 O413 1.265 . S
O404 C403 1.227 . S
N405 Co402 2.121 . S
N405 C407 1.375 . S
N405 C408 1.313 . S
C406 C407 1.338 . S
C406 N409 1.377 . S
C406 H426 0.930 . S
C407 N405 1.375 . S
C407 C406 1.338 . S
C407 H411 0.931 . S
C408 N405 1.313 . S
C408 N409 1.344 . S
C408 H412 0.930 . S
N409 C406 1.377 . S
N409 C408 1.344 . S
O410 Co402 2.055 . S
O410 C414 1.253 . S
H411 C407 0.931 . S
H412 C408 0.930 . S
O413 Co402 2.039 . S
O413 C403 1.265 . S
C414 O410 1.253 . S
C414 O415 1.227 . S
O415 C414 1.227 . S
N416 Co402 2.140 . S
N416 C419 1.346 . S
N416 C420 1.345 . S
C417 C418 1.387 . S
C417 C421 1.391 . S
C418 C417 1.387 . S
C418 C419 1.369 . S
C418 H427 0.929 . S
C419 N416 1.346 . S
C419 C418 1.369 . S
C419 H422 0.928 . S
C420 N416 1.345 . S
C420 C421 1.371 . S
C420 H423 0.931 . S
C421 C417 1.391 . S
C421 C420 1.371 . S
C421 H428 0.930 . S
H422 C419 0.928 . S
H423 C420 0.931 . S
H424 C400 0.930 . S
H425 C397 0.930 . S
H426 C406 0.930 . S
H427 C418 0.929 . S
H428 C421 0.930 . S
C429 C430 1.351 . S
C429 N432 1.368 . S
C429 H434 0.931 . S
C430 C429 1.351 . S
C430 N431 1.373 . S
C430 H458 0.930 . S
N431 C430 1.373 . S
N431 C433 1.340 . S
N432 C429 1.368 . S
N432 C433 1.321 . S
N432 Co435 2.135 . S
C433 N431 1.340 . S
C433 N432 1.321 . S
C433 H457 0.930 . S
H434 C429 0.931 . S
Co435 N432 2.135 . S
Co435 N438 2.121 . S
Co435 O443 2.055 . S
Co435 O446 2.039 . S
Co435 N449 2.140 . S
C436 O437 1.227 . S
C436 O446 1.265 . S
O437 C436 1.227 . S
N438 Co435 2.121 . S
N438 C440 1.375 . S
N438 C441 1.313 . S
C439 C440 1.338 . S
C439 N442 1.377 . S
C439 H459 0.930 . S
C440 N438 1.375 . S
C440 C439 1.338 . S
C440 H444 0.931 . S
C441 N438 1.313 . S
C441 N442 1.344 . S
C441 H445 0.930 . S
N442 C439 1.377 . S
N442 C441 1.344 . S
O443 Co435 2.055 . S
O443 C447 1.253 . S
H444 C440 0.931 . S
H445 C441 0.930 . S
O446 Co435 2.039 . S
O446 C436 1.265 . S
C447 O443 1.253 . S
C447 O448 1.227 . S
O448 C447 1.227 . S
N449 Co435 2.140 . S
N449 C452 1.346 . S
N449 C453 1.345 . S
C450 C451 1.387 . S
C450 C454 1.391 . S
C451 C450 1.387 . S
C451 C452 1.369 . S
C451 H460 0.929 . S
C452 N449 1.346 . S
C452 C451 1.369 . S
C452 H455 0.928 . S
C453 N449 1.345 . S
C453 C454 1.371 . S
C453 H456 0.931 . S
C454 C450 1.391 . S
C454 C453 1.371 . S
C454 H461 0.930 . S
H455 C452 0.928 . S
H456 C453 0.931 . S
H457 C433 0.930 . S
H458 C430 0.930 . S
H459 C439 0.930 . S
H460 C451 0.929 . S
H461 C454 0.930 . S
C462 C463 1.351 . S
C462 N465 1.368 . S
C462 H467 0.931 . S
C463 C462 1.351 . S
C463 N464 1.373 . S
C463 H491 0.930 . S
N464 C463 1.373 . S
N464 C466 1.340 . S
N465 C462 1.368 . S
N465 C466 1.321 . S
N465 Co468 2.135 . S
C466 N464 1.340 . S
C466 N465 1.321 . S
C466 H490 0.930 . S
H467 C462 0.931 . S
Co468 N465 2.135 . S
Co468 N471 2.121 . S
Co468 O476 2.055 . S
Co468 O479 2.039 . S
Co468 N482 2.140 . S
C469 O470 1.227 . S
C469 O479 1.265 . S
O470 C469 1.227 . S
N471 Co468 2.121 . S
N471 C473 1.375 . S
N471 C474 1.313 . S
C472 C473 1.338 . S
C472 N475 1.377 . S
C472 H492 0.930 . S
C473 N471 1.375 . S
C473 C472 1.338 . S
C473 H477 0.931 . S
C474 N471 1.313 . S
C474 N475 1.344 . S
C474 H478 0.930 . S
N475 C472 1.377 . S
N475 C474 1.344 . S
O476 Co468 2.055 . S
O476 C480 1.253 . S
H477 C473 0.931 . S
H478 C474 0.930 . S
O479 Co468 2.039 . S
O479 C469 1.265 . S
C480 O476 1.253 . S
C480 O481 1.227 . S
O481 C480 1.227 . S
N482 Co468 2.140 . S
N482 C485 1.346 . S
N482 C486 1.345 . S
C483 C484 1.387 . S
C483 C487 1.391 . S
C484 C483 1.387 . S
C484 C485 1.369 . S
C484 H493 0.929 . S
C485 N482 1.346 . S
C485 C484 1.369 . S
C485 H488 0.928 . S
C486 N482 1.345 . S
C486 C487 1.371 . S
C486 H489 0.931 . S
C487 C483 1.391 . S
C487 C486 1.371 . S
C487 H494 0.930 . S
H488 C485 0.928 . S
H489 C486 0.931 . S
H490 C466 0.930 . S
H491 C463 0.930 . S
H492 C472 0.930 . S
H493 C484 0.929 . S
H494 C487 0.930 . S
C495 C496 1.351 . S
C495 N498 1.368 . S
C495 H500 0.931 . S
C496 C495 1.351 . S
C496 N497 1.373 . S
C496 H524 0.930 1_556 S
N497 C496 1.373 . S
N497 C499 1.340 . S
N498 C495 1.368 . S
N498 C499 1.321 . S
N498 Co501 2.135 . S
C499 N497 1.340 . S
C499 N498 1.321 . S
C499 H523 0.930 . S
H500 C495 0.931 . S
Co501 N498 2.135 . S
Co501 N504 2.121 . S
Co501 O509 2.055 . S
Co501 O512 2.039 . S
Co501 N515 2.140 . S
C502 O503 1.227 . S
C502 O512 1.265 . S
O503 C502 1.227 . S
N504 Co501 2.121 . S
N504 C506 1.375 . S
N504 C507 1.313 . S
C505 C506 1.338 . S
C505 N508 1.377 . S
C505 H525 0.930 . S
C506 N504 1.375 . S
C506 C505 1.338 . S
C506 H510 0.931 . S
C507 N504 1.313 . S
C507 N508 1.344 . S
C507 H511 0.930 . S
N508 C505 1.377 . S
N508 C507 1.344 . S
O509 Co501 2.055 . S
O509 C513 1.253 . S
H510 C506 0.931 . S
H511 C507 0.930 . S
O512 Co501 2.039 . S
O512 C502 1.265 . S
C513 O509 1.253 . S
C513 O514 1.227 . S
O514 C513 1.227 . S
N515 Co501 2.140 . S
N515 C518 1.346 . S
N515 C519 1.345 . S
C516 C517 1.387 . S
C516 C520 1.391 . S
C517 C516 1.387 . S
C517 C518 1.369 . S
C517 H526 0.929 . S
C518 N515 1.346 . S
C518 C517 1.369 . S
C518 H521 0.928 . S
C519 N515 1.345 . S
C519 C520 1.371 . S
C519 H522 0.931 . S
C520 C516 1.391 . S
C520 C519 1.371 . S
C520 H527 0.930 . S
H521 C518 0.928 . S
H522 C519 0.931 . S
H523 C499 0.930 . S
H524 C496 0.930 1_554 S
H525 C505 0.930 . S
H526 C517 0.929 . S
H527 C520 0.930 . S
C528 C529 1.351 . S
C528 N531 1.368 . S
C528 H533 0.931 . S
C529 C528 1.351 . S
C529 N530 1.373 . S
C529 H557 0.930 . S
N530 C529 1.373 . S
N530 C532 1.340 . S
N531 C528 1.368 . S
N531 C532 1.321 . S
N531 Co534 2.135 . S
C532 N530 1.340 . S
C532 N531 1.321 . S
C532 H556 0.930 . S
H533 C528 0.931 . S
Co534 N531 2.135 . S
Co534 N537 2.121 . S
Co534 O542 2.055 . S
Co534 O545 2.039 . S
Co534 N548 2.140 . S
C535 O536 1.227 . S
C535 O545 1.265 . S
O536 C535 1.227 . S
N537 Co534 2.121 . S
N537 C539 1.375 . S
N537 C540 1.313 . S
C538 C539 1.338 . S
C538 N541 1.377 . S
C538 H558 0.930 . S
C539 N537 1.375 . S
C539 C538 1.338 . S
C539 H543 0.931 . S
C540 N537 1.313 . S
C540 N541 1.344 . S
C540 H544 0.930 . S
N541 C538 1.377 . S
N541 C540 1.344 . S
O542 Co534 2.055 . S
O542 C546 1.253 . S
H543 C539 0.931 . S
H544 C540 0.930 . S
O545 Co534 2.039 . S
O545 C535 1.265 . S
C546 O542 1.253 . S
C546 O547 1.227 . S
O547 C546 1.227 . S
N548 Co534 2.140 . S
N548 C551 1.346 . S
N548 C552 1.345 . S
C549 C550 1.387 . S
C549 C553 1.391 . S
C550 C549 1.387 . S
C550 C551 1.369 . S
C550 H559 0.929 . S
C551 N548 1.346 . S
C551 C550 1.369 . S
C551 H554 0.928 . S
C552 N548 1.345 . S
C552 C553 1.371 . S
C552 H555 0.931 . S
C553 C549 1.391 . S
C553 C552 1.371 . S
C553 H560 0.930 . S
H554 C551 0.928 . S
H555 C552 0.931 . S
H556 C532 0.930 . S
H557 C529 0.930 . S
H558 C538 0.930 . S
H559 C550 0.929 . S
H560 C553 0.930 . S
C561 C562 1.351 . S
C561 N564 1.368 . S
C561 H566 0.931 . S
C562 C561 1.351 . S
C562 N563 1.373 . S
C562 H590 0.930 . S
N563 C562 1.373 . S
N563 C565 1.340 . S
N564 C561 1.368 . S
N564 C565 1.321 . S
N564 Co567 2.135 . S
C565 N563 1.340 . S
C565 N564 1.321 . S
C565 H589 0.930 . S
H566 C561 0.931 . S
Co567 N564 2.135 . S
Co567 N570 2.121 . S
Co567 O575 2.055 . S
Co567 O578 2.039 . S
Co567 N581 2.140 . S
C568 O569 1.227 . S
C568 O578 1.265 . S
O569 C568 1.227 . S
N570 Co567 2.121 . S
N570 C572 1.375 . S
N570 C573 1.313 . S
C571 C572 1.338 . S
C571 N574 1.377 . S
C571 H591 0.970 . S
C572 N570 1.375 . S
C572 C571 1.338 . S
C572 H576 0.931 . S
C573 N570 1.313 . S
C573 N574 1.344 . S
C573 H577 0.930 . S
N574 C571 1.377 . S
N574 C573 1.344 . S
O575 Co567 2.055 . S
O575 C579 1.253 . S
H576 C572 0.931 . S
H577 C573 0.930 . S
O578 Co567 2.039 . S
O578 C568 1.265 . S
C579 O575 1.253 . S
C579 O580 1.227 . S
O580 C579 1.227 . S
N581 Co567 2.140 . S
N581 C584 1.346 . S
N581 C585 1.345 . S
C582 C583 1.387 . S
C582 C586 1.391 . S
C583 C582 1.387 . S
C583 C584 1.369 . S
C583 H592 0.929 . S
C584 N581 1.346 . S
C584 C583 1.369 . S
C584 H587 0.928 . S
C585 N581 1.345 . S
C585 C586 1.371 . S
C585 H588 0.931 . S
C586 C582 1.391 . S
C586 C585 1.371 . S
C586 H593 0.930 . S
H587 C584 0.928 . S
H588 C585 0.931 . S
H589 C565 0.930 . S
H590 C562 0.930 . S
H591 C571 0.970 . S
H592 C583 0.929 . S
H593 C586 0.930 . S
C594 C595 1.351 . S
C594 N597 1.368 . S
C594 H599 0.931 . S
C595 C594 1.351 . S
C595 N596 1.373 . S
C595 H623 0.930 . S
N596 C595 1.373 . S
N596 C598 1.340 . S
N597 C594 1.368 . S
N597 C598 1.321 . S
N597 Co600 2.135 . S
C598 N596 1.340 . S
C598 N597 1.321 . S
C598 H622 0.930 . S
H599 C594 0.931 . S
Co600 N597 2.135 . S
Co600 N603 2.121 . S
Co600 O608 2.055 . S
Co600 O611 2.039 . S
Co600 N614 2.140 . S
C601 O602 1.227 . S
C601 O611 1.265 . S
O602 C601 1.227 . S
N603 Co600 2.121 . S
N603 C605 1.375 . S
N603 C606 1.313 . S
C604 C605 1.338 . S
C604 N607 1.377 . S
C604 H624 0.930 . S
C605 N603 1.375 . S
C605 C604 1.338 . S
C605 H609 0.931 . S
C606 N603 1.313 . S
C606 N607 1.344 . S
C606 H610 0.930 . S
N607 C604 1.377 . S
N607 C606 1.344 . S
O608 Co600 2.055 . S
O608 C612 1.253 . S
H609 C605 0.931 . S
H610 C606 0.930 . S
O611 Co600 2.039 . S
O611 C601 1.265 . S
C612 O608 1.253 . S
C612 O613 1.227 . S
O613 C612 1.227 . S
N614 Co600 2.140 . S
N614 C617 1.346 . S
N614 C618 1.345 . S
C615 C616 1.387 . S
C615 C619 1.391 . S
C616 C615 1.387 . S
C616 C617 1.369 . S
C616 H625 0.929 . S
C617 N614 1.346 . S
C617 C616 1.369 . S
C617 H620 0.928 . S
C618 N614 1.345 . S
C618 C619 1.371 . S
C618 H621 0.931 . S
C619 C615 1.391 . S
C619 C618 1.371 . S
C619 H626 0.930 . S
H620 C617 0.928 . S
H621 C618 0.931 . S
H622 C598 0.930 . S
H623 C595 0.930 . S
H624 C604 0.930 . S
H625 C616 0.929 . S
H626 C619 0.930 . S
C627 C628 1.351 . S
C627 N630 1.368 . S
C627 H632 0.931 . S
C628 C627 1.351 . S
C628 N629 1.373 . S
C628 H656 0.930 . S
N629 C628 1.373 . S
N629 C631 1.340 . S
N630 C627 1.368 . S
N630 C631 1.321 . S
N630 Co633 2.135 . S
C631 N629 1.340 . S
C631 N630 1.321 . S
C631 H655 0.930 . S
H632 C627 0.931 . S
Co633 N630 2.135 . S
Co633 N636 2.121 . S
Co633 O641 2.055 . S
Co633 O644 2.039 . S
Co633 N647 2.140 . S
C634 O635 1.227 . S
C634 O644 1.265 . S
O635 C634 1.227 . S
N636 Co633 2.121 . S
N636 C638 1.375 . S
N636 C639 1.313 . S
C637 C638 1.338 . S
C637 N640 1.377 . S
C637 H657 0.930 . S
C638 N636 1.375 . S
C638 C637 1.338 . S
C638 H642 0.931 . S
C639 N636 1.313 . S
C639 N640 1.344 . S
C639 H643 0.930 . S
N640 C637 1.377 . S
N640 C639 1.344 . S
O641 Co633 2.055 . S
O641 C645 1.253 . S
H642 C638 0.931 . S
H643 C639 0.930 . S
O644 Co633 2.039 . S
O644 C634 1.265 . S
C645 O641 1.253 . S
C645 O646 1.227 . S
O646 C645 1.227 . S
N647 Co633 2.140 . S
N647 C650 1.346 . S
N647 C651 1.345 . S
C648 C649 1.387 . S
C648 C652 1.391 . S
C649 C648 1.387 . S
C649 C650 1.369 . S
C649 H658 0.929 . S
C650 N647 1.346 . S
C650 C649 1.369 . S
C650 H653 0.928 . S
C651 N647 1.345 . S
C651 C652 1.371 . S
C651 H654 0.931 . S
C652 C648 1.391 . S
C652 C651 1.371 . S
C652 H659 0.930 . S
H653 C650 0.928 . S
H654 C651 0.931 . S
H655 C631 0.930 . S
H656 C628 0.930 . S
H657 C637 0.930 . S
H658 C649 0.929 . S
H659 C652 0.930 . S
C660 C661 1.351 . S
C660 N663 1.368 . S
C660 H665 0.931 . S
C661 C660 1.351 . S
C661 N662 1.373 . S
C661 H689 0.930 1_565 S
N662 C661 1.373 . S
N662 C664 1.340 . S
N663 C660 1.368 . S
N663 C664 1.321 . S
N663 Co666 2.135 . S
C664 N662 1.340 . S
C664 N663 1.321 . S
C664 H688 0.930 . S
H665 C660 0.931 . S
Co666 N663 2.135 . S
Co666 N669 2.121 . S
Co666 O674 2.055 . S
Co666 O677 2.039 . S
Co666 N680 2.140 . S
C667 O668 1.227 . S
C667 O677 1.265 . S
O668 C667 1.227 . S
N669 Co666 2.121 . S
N669 C671 1.375 . S
N669 C672 1.313 . S
C670 C671 1.338 . S
C670 N673 1.377 . S
C670 H690 0.930 . S
C671 N669 1.375 . S
C671 C670 1.338 . S
C671 H675 0.931 . S
C672 N669 1.313 . S
C672 N673 1.344 . S
C672 H676 0.930 . S
N673 C670 1.377 . S
N673 C672 1.344 . S
O674 Co666 2.055 . S
O674 C678 1.253 . S
H675 C671 0.931 . S
H676 C672 0.930 . S
O677 Co666 2.039 . S
O677 C667 1.265 . S
C678 O674 1.253 . S
C678 O679 1.227 . S
O679 C678 1.227 . S
N680 Co666 2.140 . S
N680 C683 1.346 . S
N680 C684 1.345 . S
C681 C682 1.387 . S
C681 C685 1.391 . S
C682 C681 1.387 . S
C682 C683 1.369 . S
C682 H691 0.929 . S
C683 N680 1.346 . S
C683 C682 1.369 . S
C683 H686 0.928 . S
C684 N680 1.345 . S
C684 C685 1.371 . S
C684 H687 0.931 . S
C685 C681 1.391 . S
C685 C684 1.371 . S
C685 H692 0.930 . S
H686 C683 0.928 . S
H687 C684 0.931 . S
H688 C664 0.930 . S
H689 C661 0.930 1_545 S
H690 C670 0.930 . S
H691 C682 0.929 . S
H692 C685 0.930 . S
C693 C694 1.351 . S
C693 N696 1.368 . S
C693 H698 0.931 . S
C694 C693 1.351 . S
C694 N695 1.373 . S
C694 H722 0.930 . S
N695 C694 1.373 . S
N695 C697 1.340 . S
N696 C693 1.368 . S
N696 C697 1.321 . S
N696 Co699 2.135 . S
C697 N695 1.340 . S
C697 N696 1.321 . S
C697 H721 0.930 . S
H698 C693 0.931 . S
Co699 N696 2.135 . S
Co699 N702 2.121 . S
Co699 O707 2.055 . S
Co699 O710 2.039 . S
Co699 N713 2.140 . S
C700 O701 1.227 . S
C700 O710 1.265 . S
O701 C700 1.227 . S
N702 Co699 2.121 . S
N702 C704 1.375 . S
N702 C705 1.313 . S
C703 C704 1.338 . S
C703 N706 1.377 . S
C703 H723 0.930 . S
C704 N702 1.375 . S
C704 C703 1.338 . S
C704 H708 0.931 . S
C705 N702 1.313 . S
C705 N706 1.344 . S
C705 H709 0.930 . S
N706 C703 1.377 . S
N706 C705 1.344 . S
O707 Co699 2.055 . S
O707 C711 1.253 . S
H708 C704 0.931 . S
H709 C705 0.930 . S
O710 Co699 2.039 . S
O710 C700 1.265 . S
C711 O707 1.253 . S
C711 O712 1.227 . S
O712 C711 1.227 . S
N713 Co699 2.140 . S
N713 C716 1.346 . S
N713 C717 1.345 . S
C714 C715 1.387 . S
C714 C718 1.391 . S
C715 C714 1.387 . S
C715 C716 1.369 . S
C715 H724 0.929 . S
C716 N713 1.346 . S
C716 C715 1.369 . S
C716 H719 0.928 . S
C717 N713 1.345 . S
C717 C718 1.371 . S
C717 H720 0.931 . S
C718 C714 1.391 . S
C718 C717 1.371 . S
C718 H725 0.930 . S
H719 C716 0.928 . S
H720 C717 0.931 . S
H721 C697 0.930 . S
H722 C694 0.930 . S
H723 C703 0.930 . S
H724 C715 0.929 . S
H725 C718 0.930 . S
C726 C727 1.351 . S
C726 N729 1.368 . S
C726 H731 0.931 . S
C727 C726 1.351 . S
C727 N728 1.373 . S
C727 H755 0.930 . S
N728 C727 1.373 . S
N728 C730 1.340 . S
N729 C726 1.368 . S
N729 C730 1.321 . S
N729 Co732 2.135 . S
C730 N728 1.340 . S
C730 N729 1.321 . S
C730 H754 0.930 . S
H731 C726 0.931 . S
Co732 N729 2.135 . S
Co732 N735 2.121 . S
Co732 O740 2.055 . S
Co732 O743 2.039 . S
Co732 N746 2.140 . S
C733 O734 1.227 . S
C733 O743 1.265 . S
O734 C733 1.227 . S
N735 Co732 2.121 . S
N735 C737 1.375 . S
N735 C738 1.313 . S
C736 C737 1.338 . S
C736 N739 1.377 . S
C736 H756 0.930 . S
C737 N735 1.375 . S
C737 C736 1.338 . S
C737 H741 0.931 . S
C738 N735 1.313 . S
C738 N739 1.344 . S
C738 H742 0.930 . S
N739 C736 1.377 . S
N739 C738 1.344 . S
O740 Co732 2.055 . S
O740 C744 1.253 . S
H741 C737 0.931 . S
H742 C738 0.930 . S
O743 Co732 2.039 . S
O743 C733 1.265 . S
C744 O740 1.253 . S
C744 O745 1.227 . S
O745 C744 1.227 . S
N746 Co732 2.140 . S
N746 C749 1.346 . S
N746 C750 1.345 . S
C747 C748 1.387 . S
C747 C751 1.391 . S
C748 C747 1.387 . S
C748 C749 1.369 . S
C748 H757 0.929 . S
C749 N746 1.346 . S
C749 C748 1.369 . S
C749 H752 0.928 . S
C750 N746 1.345 . S
C750 C751 1.371 . S
C750 H753 0.931 . S
C751 C747 1.391 . S
C751 C750 1.371 . S
C751 H758 0.930 . S
H752 C749 0.928 . S
H753 C750 0.931 . S
H754 C730 0.930 . S
H755 C727 0.930 . S
H756 C736 0.930 . S
H757 C748 0.929 . S
H758 C751 0.930 . S
C759 C760 1.351 . S
C759 N762 1.368 . S
C759 H764 0.931 . S
C760 C759 1.351 . S
C760 N761 1.373 . S
C760 H788 0.930 . S
N761 C760 1.373 . S
N761 C763 1.340 . S
N762 C759 1.368 . S
N762 C763 1.321 . S
N762 Co765 2.135 . S
C763 N761 1.340 . S
C763 N762 1.321 . S
C763 H787 0.930 . S
H764 C759 0.931 . S
Co765 N762 2.135 . S
Co765 N768 2.121 . S
Co765 O773 2.055 . S
Co765 O776 2.039 . S
Co765 N779 2.140 . S
C766 O767 1.227 . S
C766 O776 1.265 . S
O767 C766 1.227 . S
N768 Co765 2.121 . S
N768 C770 1.375 . S
N768 C771 1.313 . S
C769 C770 1.338 . S
C769 N772 1.377 . S
C769 H789 0.930 . S
C770 N768 1.375 . S
C770 C769 1.338 . S
C770 H774 0.931 . S
C771 N768 1.313 . S
C771 N772 1.344 . S
C771 H775 0.930 . S
N772 C769 1.377 . S
N772 C771 1.344 . S
O773 Co765 2.055 . S
O773 C777 1.253 . S
H774 C770 0.931 . S
H775 C771 0.930 . S
O776 Co765 2.039 . S
O776 C766 1.265 . S
C777 O773 1.253 . S
C777 O778 1.227 . S
O778 C777 1.227 . S
N779 Co765 2.140 . S
N779 C782 1.346 . S
N779 C783 1.345 . S
C780 C781 1.387 . S
C780 C784 1.391 . S
C781 C780 1.387 . S
C781 C782 1.369 . S
C781 H790 0.929 . S
C782 N779 1.346 . S
C782 C781 1.369 . S
C782 H785 0.928 . S
C783 N779 1.345 . S
C783 C784 1.371 . S
C783 H786 0.931 . S
C784 C780 1.391 . S
C784 C783 1.371 . S
C784 H791 0.930 . S
H785 C782 0.928 . S
H786 C783 0.931 . S
H787 C763 0.930 . S
H788 C760 0.930 . S
H789 C769 0.930 . S
H790 C781 0.929 . S
H791 C784 0.930 . S
C792 C793 1.351 . S
C792 N795 1.368 . S
C792 H797 0.931 . S
C793 C792 1.351 . S
C793 N794 1.373 . S
C793 H821 0.930 . S
N794 C793 1.373 . S
N794 C796 1.340 . S
N795 C792 1.368 . S
N795 C796 1.321 . S
N795 Co798 2.135 . S
C796 N794 1.340 . S
C796 N795 1.321 . S
C796 H820 0.930 . S
H797 C792 0.931 . S
Co798 N795 2.135 . S
Co798 N801 2.121 . S
Co798 O806 2.055 . S
Co798 O809 2.039 . S
Co798 N812 2.140 . S
C799 O800 1.227 . S
C799 O809 1.265 . S
O800 C799 1.227 . S
N801 Co798 2.121 . S
N801 C803 1.375 . S
N801 C804 1.313 . S
C802 C803 1.338 . S
C802 N805 1.377 . S
C802 H822 0.967 . S
C803 N801 1.375 . S
C803 C802 1.338 . S
C803 H807 0.931 . S
C804 N801 1.313 . S
C804 N805 1.344 . S
C804 H808 0.930 . S
N805 C802 1.377 . S
N805 C804 1.344 . S
O806 Co798 2.055 . S
O806 C810 1.253 . S
H807 C803 0.931 . S
H808 C804 0.930 . S
O809 Co798 2.039 . S
O809 C799 1.265 . S
C810 O806 1.253 . S
C810 O811 1.227 . S
O811 C810 1.227 . S
N812 Co798 2.140 . S
N812 C815 1.346 . S
N812 C816 1.345 . S
C813 C814 1.387 . S
C813 C817 1.391 . S
C814 C813 1.387 . S
C814 C815 1.369 . S
C814 H823 0.929 . S
C815 N812 1.346 . S
C815 C814 1.369 . S
C815 H818 0.928 . S
C816 N812 1.345 . S
C816 C817 1.371 . S
C816 H819 0.931 . S
C817 C813 1.391 . S
C817 C816 1.371 . S
C817 H824 0.930 . S
H818 C815 0.928 . S
H819 C816 0.931 . S
H820 C796 0.930 . S
H821 C793 0.930 . S
H822 C802 0.967 . S
H823 C814 0.929 . S
H824 C817 0.930 . S
C825 C826 1.351 . S
C825 N828 1.368 . S
C825 H830 0.931 . S
C826 C825 1.351 . S
C826 N827 1.373 . S
C826 H854 0.930 . S
N827 C826 1.373 . S
N827 C829 1.340 . S
N828 C825 1.368 . S
N828 C829 1.321 . S
N828 Co831 2.135 . S
C829 N827 1.340 . S
C829 N828 1.321 . S
C829 H853 0.930 . S
H830 C825 0.931 . S
Co831 N828 2.135 . S
Co831 N834 2.121 . S
Co831 O839 2.055 . S
Co831 O842 2.039 . S
Co831 N845 2.140 . S
C832 O833 1.227 . S
C832 O842 1.265 . S
O833 C832 1.227 . S
N834 Co831 2.121 . S
N834 C836 1.375 . S
N834 C837 1.313 . S
C835 C836 1.338 . S
C835 N838 1.377 . S
C835 H855 0.930 . S
C836 N834 1.375 . S
C836 C835 1.338 . S
C836 H840 0.931 . S
C837 N834 1.313 . S
C837 N838 1.344 . S
C837 H841 0.930 . S
N838 C835 1.377 . S
N838 C837 1.344 . S
O839 Co831 2.055 . S
O839 C843 1.253 . S
H840 C836 0.931 . S
H841 C837 0.930 . S
O842 Co831 2.039 . S
O842 C832 1.265 . S
C843 O839 1.253 . S
C843 O844 1.227 . S
O844 C843 1.227 . S
N845 Co831 2.140 . S
N845 C848 1.346 . S
N845 C849 1.345 . S
C846 C847 1.387 . S
C846 C850 1.391 . S
C847 C846 1.387 . S
C847 C848 1.369 . S
C847 H856 0.929 . S
C848 N845 1.346 . S
C848 C847 1.369 . S
C848 H851 0.928 . S
C849 N845 1.345 . S
C849 C850 1.371 . S
C849 H852 0.931 . S
C850 C846 1.391 . S
C850 C849 1.371 . S
C850 H857 0.930 . S
H851 C848 0.928 . S
H852 C849 0.931 . S
H853 C829 0.930 . S
H854 C826 0.930 . S
H855 C835 0.930 . S
H856 C847 0.929 . S
H857 C850 0.930 . S
C858 C859 1.351 . S
C858 N861 1.368 . S
C858 H863 0.931 . S
C859 C858 1.351 . S
C859 N860 1.373 . S
C859 H887 0.930 . S
N860 C859 1.373 . S
N860 C862 1.340 . S
N861 C858 1.368 . S
N861 C862 1.321 . S
N861 Co864 2.135 . S
C862 N860 1.340 . S
C862 N861 1.321 . S
C862 H886 0.930 . S
H863 C858 0.931 . S
Co864 N861 2.135 . S
Co864 N867 2.121 . S
Co864 O872 2.055 . S
Co864 O875 2.039 . S
Co864 N878 2.140 . S
C865 O866 1.227 . S
C865 O875 1.265 . S
O866 C865 1.227 . S
N867 Co864 2.121 . S
N867 C869 1.375 . S
N867 C870 1.313 . S
C868 C869 1.338 . S
C868 N871 1.377 . S
C868 H888 0.930 . S
C869 N867 1.375 . S
C869 C868 1.338 . S
C869 H873 0.931 . S
C870 N867 1.313 . S
C870 N871 1.344 . S
C870 H874 0.930 . S
N871 C868 1.377 . S
N871 C870 1.344 . S
O872 Co864 2.055 . S
O872 C876 1.253 . S
H873 C869 0.931 . S
H874 C870 0.930 . S
O875 Co864 2.039 . S
O875 C865 1.265 . S
C876 O872 1.253 . S
C876 O877 1.227 . S
O877 C876 1.227 . S
N878 Co864 2.140 . S
N878 C881 1.346 . S
N878 C882 1.345 . S
C879 C880 1.387 . S
C879 C883 1.391 . S
C880 C879 1.387 . S
C880 C881 1.369 . S
C880 H889 0.929 . S
C881 N878 1.346 . S
C881 C880 1.369 . S
C881 H884 0.928 . S
C882 N878 1.345 . S
C882 C883 1.371 . S
C882 H885 0.931 . S
C883 C879 1.391 . S
C883 C882 1.371 . S
C883 H890 0.930 . S
H884 C881 0.928 . S
H885 C882 0.931 . S
H886 C862 0.930 . S
H887 C859 0.930 . S
H888 C868 0.930 . S
H889 C880 0.929 . S
H890 C883 0.930 . S
C891 C892 1.351 . S
C891 N894 1.368 . S
C891 H896 0.931 . S
C892 C891 1.351 . S
C892 N893 1.373 . S
C892 H920 0.930 . S
N893 C892 1.373 . S
N893 C895 1.340 . S
N894 C891 1.368 . S
N894 C895 1.321 . S
N894 Co897 2.135 . S
C895 N893 1.340 . S
C895 N894 1.321 . S
C895 H919 0.930 . S
H896 C891 0.931 . S
Co897 N894 2.135 . S
Co897 N900 2.121 . S
Co897 O905 2.055 . S
Co897 O908 2.039 . S
Co897 N911 2.140 . S
C898 O899 1.227 . S
C898 O908 1.265 . S
O899 C898 1.227 . S
N900 Co897 2.121 . S
N900 C902 1.375 . S
N900 C903 1.313 . S
C901 C902 1.338 . S
C901 N904 1.377 . S
C901 H921 0.930 . S
C902 N900 1.375 . S
C902 C901 1.338 . S
C902 H906 0.931 . S
C903 N900 1.313 . S
C903 N904 1.344 . S
C903 H907 0.930 . S
N904 C901 1.377 . S
N904 C903 1.344 . S
O905 Co897 2.055 . S
O905 C909 1.253 . S
H906 C902 0.931 . S
H907 C903 0.930 . S
O908 Co897 2.039 . S
O908 C898 1.265 . S
C909 O905 1.253 . S
C909 O910 1.227 . S
O910 C909 1.227 . S
N911 Co897 2.140 . S
N911 C914 1.346 . S
N911 C915 1.345 . S
C912 C913 1.387 . S
C912 C916 1.391 . S
C913 C912 1.387 . S
C913 C914 1.369 . S
C913 H922 0.929 . S
C914 N911 1.346 . S
C914 C913 1.369 . S
C914 H917 0.928 . S
C915 N911 1.345 . S
C915 C916 1.371 . S
C915 H918 0.931 . S
C916 C912 1.391 . S
C916 C915 1.371 . S
C916 H923 0.930 . S
H917 C914 0.928 . S
H918 C915 0.931 . S
H919 C895 0.930 . S
H920 C892 0.930 . S
H921 C901 0.930 . S
H922 C913 0.929 . S
H923 C916 0.930 . S
C924 C925 1.351 . S
C924 N927 1.368 . S
C924 H929 0.931 . S
C925 C924 1.351 . S
C925 N926 1.373 . S
C925 H953 0.930 . S
N926 C925 1.373 . S
N926 C928 1.340 . S
N927 C924 1.368 . S
N927 C928 1.321 . S
N927 Co930 2.135 . S
C928 N926 1.340 . S
C928 N927 1.321 . S
C928 H952 0.930 . S
H929 C924 0.931 . S
Co930 N927 2.135 . S
Co930 N933 2.121 . S
Co930 O938 2.055 . S
Co930 O941 2.039 . S
Co930 N944 2.140 . S
C931 O932 1.227 . S
C931 O941 1.265 . S
O932 C931 1.227 . S
N933 Co930 2.121 . S
N933 C935 1.375 . S
N933 C936 1.313 . S
C934 C935 1.338 . S
C934 N937 1.377 . S
C934 H954 0.930 . S
C935 N933 1.375 . S
C935 C934 1.338 . S
C935 H939 0.931 . S
C936 N933 1.313 . S
C936 N937 1.344 . S
C936 H940 0.930 . S
N937 C934 1.377 . S
N937 C936 1.344 . S
O938 Co930 2.055 . S
O938 C942 1.253 . S
H939 C935 0.931 . S
H940 C936 0.930 . S
O941 Co930 2.039 . S
O941 C931 1.265 . S
C942 O938 1.253 . S
C942 O943 1.227 . S
O943 C942 1.227 . S
N944 Co930 2.140 . S
N944 C947 1.346 . S
N944 C948 1.345 . S
C945 C946 1.387 . S
C945 C949 1.391 . S
C946 C945 1.387 . S
C946 C947 1.369 . S
C946 H955 0.929 . S
C947 N944 1.346 . S
C947 C946 1.369 . S
C947 H950 0.928 . S
C948 N944 1.345 . S
C948 C949 1.371 . S
C948 H951 0.931 . S
C949 C945 1.391 . S
C949 C948 1.371 . S
C949 H956 0.930 . S
H950 C947 0.928 . S
H951 C948 0.931 . S
H952 C928 0.930 . S
H953 C925 0.930 . S
H954 C934 0.930 . S
H955 C946 0.929 . S
H956 C949 0.930 . S
C957 C958 1.351 . S
C957 N960 1.368 . S
C957 H962 0.931 . S
C958 C957 1.351 . S
C958 N959 1.373 . S
C958 H986 0.930 . S
N959 C958 1.373 . S
N959 C961 1.340 . S
N960 C957 1.368 . S
N960 C961 1.321 . S
N960 Co963 2.135 . S
C961 N959 1.340 . S
C961 N960 1.321 . S
C961 H985 0.930 . S
H962 C957 0.931 . S
Co963 N960 2.135 . S
Co963 N966 2.121 . S
Co963 O971 2.055 . S
Co963 O974 2.039 . S
Co963 N977 2.140 . S
C964 O965 1.227 . S
C964 O974 1.265 . S
O965 C964 1.227 . S
N966 Co963 2.121 . S
N966 C968 1.375 . S
N966 C969 1.313 . S
C967 C968 1.338 . S
C967 N970 1.377 . S
C967 H987 0.930 . S
C968 N966 1.375 . S
C968 C967 1.338 . S
C968 H972 0.931 . S
C969 N966 1.313 . S
C969 N970 1.344 . S
C969 H973 0.930 . S
N970 C967 1.377 . S
N970 C969 1.344 . S
O971 Co963 2.055 . S
O971 C975 1.253 . S
H972 C968 0.931 . S
H973 C969 0.930 . S
O974 Co963 2.039 . S
O974 C964 1.265 . S
C975 O971 1.253 . S
C975 O976 1.227 . S
O976 C975 1.227 . S
N977 Co963 2.140 . S
N977 C980 1.346 . S
N977 C981 1.345 . S
C978 C979 1.387 . S
C978 C982 1.391 . S
C979 C978 1.387 . S
C979 C980 1.369 . S
C979 H988 0.929 . S
C980 N977 1.346 . S
C980 C979 1.369 . S
C980 H983 0.928 . S
C981 N977 1.345 . S
C981 C982 1.371 . S
C981 H984 0.931 . S
C982 C978 1.391 . S
C982 C981 1.371 . S
C982 H989 0.930 . S
H983 C980 0.928 . S
H984 C981 0.931 . S
H985 C961 0.930 . S
H986 C958 0.930 . S
H987 C967 0.930 . S
H988 C979 0.929 . S
H989 C982 0.930 . S
C990 C991 1.351 . S
C990 N993 1.368 . S
C990 H995 0.931 . S
C991 C990 1.351 . S
C991 N992 1.373 . S
C991 H1019 0.930 . S
N992 C991 1.373 . S
N992 C994 1.340 . S
N993 C990 1.368 . S
N993 C994 1.321 . S
N993 Co996 2.135 . S
C994 N992 1.340 . S
C994 N993 1.321 . S
C994 H1018 0.930 . S
H995 C990 0.931 . S
Co996 N993 2.135 . S
Co996 N999 2.121 . S
Co996 O1004 2.055 . S
Co996 O1007 2.039 . S
Co996 N1010 2.140 . S
C997 O998 1.227 . S
C997 O1007 1.265 . S
O998 C997 1.227 . S
N999 Co996 2.121 . S
N999 C1001 1.375 . S
N999 C1002 1.313 . S
C1000 C1001 1.338 . S
C1000 N1003 1.377 . S
C1000 H1020 0.970 . S
C1001 N999 1.375 . S
C1001 C1000 1.338 . S
C1001 H1005 0.931 . S
C1002 N999 1.313 . S
C1002 N1003 1.344 . S
C1002 H1006 0.930 . S
N1003 C1000 1.377 . S
N1003 C1002 1.344 . S
O1004 Co996 2.055 . S
O1004 C1008 1.253 . S
H1005 C1001 0.931 . S
H1006 C1002 0.930 . S
O1007 Co996 2.039 . S
O1007 C997 1.265 . S
C1008 O1004 1.253 . S
C1008 O1009 1.227 . S
O1009 C1008 1.227 . S
N1010 Co996 2.140 . S
N1010 C1013 1.346 . S
N1010 C1014 1.345 . S
C1011 C1012 1.387 . S
C1011 C1015 1.391 . S
C1012 C1011 1.387 . S
C1012 C1013 1.369 . S
C1012 H1021 0.929 . S
C1013 N1010 1.346 . S
C1013 C1012 1.369 . S
C1013 H1016 0.928 . S
C1014 N1010 1.345 . S
C1014 C1015 1.371 . S
C1014 H1017 0.931 . S
C1015 C1011 1.391 . S
C1015 C1014 1.371 . S
C1015 H1022 0.930 . S
H1016 C1013 0.928 . S
H1017 C1014 0.931 . S
H1018 C994 0.930 . S
H1019 C991 0.930 . S
H1020 C1000 0.970 . S
H1021 C1012 0.929 . S
H1022 C1015 0.930 . S
C1023 C1024 1.351 . S
C1023 N1026 1.368 . S
C1023 H1028 0.931 . S
C1024 C1023 1.351 . S
C1024 N1025 1.373 . S
C1024 H1052 0.930 . S
N1025 C1024 1.373 . S
N1025 C1027 1.340 . S
N1026 C1023 1.368 . S
N1026 C1027 1.321 . S
N1026 Co1029 2.135 . S
C1027 N1025 1.340 . S
C1027 N1026 1.321 . S
C1027 H1051 0.930 . S
H1028 C1023 0.931 . S
Co1029 N1026 2.135 . S
Co1029 N1032 2.121 . S
Co1029 O1037 2.055 . S
Co1029 O1040 2.039 . S
Co1029 N1043 2.140 . S
C1030 O1031 1.227 . S
C1030 O1040 1.265 . S
O1031 C1030 1.227 . S
N1032 Co1029 2.121 . S
N1032 C1034 1.375 . S
N1032 C1035 1.313 . S
C1033 C1034 1.338 . S
C1033 N1036 1.377 . S
C1033 H1053 0.930 . S
C1034 N1032 1.375 . S
C1034 C1033 1.338 . S
C1034 H1038 0.931 . S
C1035 N1032 1.313 . S
C1035 N1036 1.344 . S
C1035 H1039 0.930 . S
N1036 C1033 1.377 . S
N1036 C1035 1.344 . S
O1037 Co1029 2.055 . S
O1037 C1041 1.253 . S
H1038 C1034 0.931 . S
H1039 C1035 0.930 . S
O1040 Co1029 2.039 . S
O1040 C1030 1.265 . S
C1041 O1037 1.253 . S
C1041 O1042 1.227 . S
O1042 C1041 1.227 . S
N1043 Co1029 2.140 . S
N1043 C1046 1.346 . S
N1043 C1047 1.345 . S
C1044 C1045 1.387 . S
C1044 C1048 1.391 . S
C1045 C1044 1.387 . S
C1045 C1046 1.369 . S
C1045 H1054 0.929 . S
C1046 N1043 1.346 . S
C1046 C1045 1.369 . S
C1046 H1049 0.928 . S
C1047 N1043 1.345 . S
C1047 C1048 1.371 . S
C1047 H1050 0.931 . S
C1048 C1044 1.391 . S
C1048 C1047 1.371 . S
C1048 H1055 0.930 . S
H1049 C1046 0.928 . S
H1050 C1047 0.931 . S
H1051 C1027 0.930 . S
H1052 C1024 0.930 . S
H1053 C1033 0.930 . S
H1054 C1045 0.929 . S
H1055 C1048 0.930 . S
C1056 C1057 1.351 . S
C1056 N1059 1.368 . S
C1056 H1061 0.931 . S
C1057 C1056 1.351 . S
C1057 N1058 1.373 . S
C1057 H1085 0.930 . S
N1058 C1057 1.373 . S
N1058 C1060 1.340 . S
N1059 C1056 1.368 . S
N1059 C1060 1.321 . S
N1059 Co1062 2.135 . S
C1060 N1058 1.340 . S
C1060 N1059 1.321 . S
C1060 H1084 0.930 . S
H1061 C1056 0.931 . S
Co1062 N1059 2.135 . S
Co1062 N1065 2.121 . S
Co1062 O1070 2.055 . S
Co1062 O1073 2.039 . S
Co1062 N1076 2.140 . S
C1063 O1064 1.227 . S
C1063 O1073 1.265 . S
O1064 C1063 1.227 . S
N1065 Co1062 2.121 . S
N1065 C1067 1.375 . S
N1065 C1068 1.313 . S
C1066 C1067 1.338 . S
C1066 N1069 1.377 . S
C1066 H1086 0.967 . S
C1067 N1065 1.375 . S
C1067 C1066 1.338 . S
C1067 H1071 0.931 . S
C1068 N1065 1.313 . S
C1068 N1069 1.344 . S
C1068 H1072 0.930 . S
N1069 C1066 1.377 . S
N1069 C1068 1.344 . S
O1070 Co1062 2.055 . S
O1070 C1074 1.253 . S
H1071 C1067 0.931 . S
H1072 C1068 0.930 . S
O1073 Co1062 2.039 . S
O1073 C1063 1.265 . S
C1074 O1070 1.253 . S
C1074 O1075 1.227 . S
O1075 C1074 1.227 . S
N1076 Co1062 2.140 . S
N1076 C1079 1.346 . S
N1076 C1080 1.345 . S
C1077 C1078 1.387 . S
C1077 C1081 1.391 . S
C1078 C1077 1.387 . S
C1078 C1079 1.369 . S
C1078 H1087 0.929 . S
C1079 N1076 1.346 . S
C1079 C1078 1.369 . S
C1079 H1082 0.928 . S
C1080 N1076 1.345 . S
C1080 C1081 1.371 . S
C1080 H1083 0.931 . S
C1081 C1077 1.391 . S
C1081 C1080 1.371 . S
C1081 H1088 0.930 . S
H1082 C1079 0.928 . S
H1083 C1080 0.931 . S
H1084 C1060 0.930 . S
H1085 C1057 0.930 . S
H1086 C1066 0.967 . S
H1087 C1078 0.929 . S
H1088 C1081 0.930 . S
C1089 C1090 1.351 . S
C1089 N1092 1.368 . S
C1089 H1094 0.931 . S
C1090 C1089 1.351 . S
C1090 N1091 1.373 . S
C1090 H1118 0.930 . S
N1091 C1090 1.373 . S
N1091 C1093 1.340 . S
N1092 C1089 1.368 . S
N1092 C1093 1.321 . S
N1092 Co1095 2.135 . S
C1093 N1091 1.340 . S
C1093 N1092 1.321 . S
C1093 H1117 0.930 . S
H1094 C1089 0.931 . S
Co1095 N1092 2.135 . S
Co1095 N1098 2.121 . S
Co1095 O1103 2.055 . S
Co1095 O1106 2.039 . S
Co1095 N1109 2.140 . S
C1096 O1097 1.227 . S
C1096 O1106 1.265 . S
O1097 C1096 1.227 . S
N1098 Co1095 2.121 . S
N1098 C1100 1.375 . S
N1098 C1101 1.313 . S
C1099 C1100 1.338 . S
C1099 N1102 1.377 . S
C1099 H1119 0.930 . S
C1100 N1098 1.375 . S
C1100 C1099 1.338 . S
C1100 H1104 0.931 . S
C1101 N1098 1.313 . S
C1101 N1102 1.344 . S
C1101 H1105 0.930 . S
N1102 C1099 1.377 . S
N1102 C1101 1.344 . S
O1103 Co1095 2.055 . S
O1103 C1107 1.253 . S
H1104 C1100 0.931 . S
H1105 C1101 0.930 . S
O1106 Co1095 2.039 . S
O1106 C1096 1.265 . S
C1107 O1103 1.253 . S
C1107 O1108 1.227 . S
O1108 C1107 1.227 . S
N1109 Co1095 2.140 . S
N1109 C1112 1.346 . S
N1109 C1113 1.345 . S
C1110 C1111 1.387 . S
C1110 C1114 1.391 . S
C1111 C1110 1.387 . S
C1111 C1112 1.369 . S
C1111 H1120 0.929 . S
C1112 N1109 1.346 . S
C1112 C1111 1.369 . S
C1112 H1115 0.928 . S
C1113 N1109 1.345 . S
C1113 C1114 1.371 . S
C1113 H1116 0.931 . S
C1114 C1110 1.391 . S
C1114 C1113 1.371 . S
C1114 H1121 0.930 . S
H1115 C1112 0.928 . S
H1116 C1113 0.931 . S
H1117 C1093 0.930 . S
H1118 C1090 0.930 . S
H1119 C1099 0.930 . S
H1120 C1111 0.929 . S
H1121 C1114 0.930 . S
C1122 C1123 1.351 . S
C1122 N1125 1.368 . S
C1122 H1127 0.931 . S
C1123 C1122 1.351 . S
C1123 N1124 1.373 . S
C1123 H1151 0.930 . S
N1124 C1123 1.373 . S
N1124 C1126 1.340 . S
N1125 C1122 1.368 . S
N1125 C1126 1.321 . S
N1125 Co1128 2.135 . S
C1126 N1124 1.340 . S
C1126 N1125 1.321 . S
C1126 H1150 0.930 . S
H1127 C1122 0.931 . S
Co1128 N1125 2.135 . S
Co1128 N1131 2.121 . S
Co1128 O1136 2.055 . S
Co1128 O1139 2.039 . S
Co1128 N1142 2.140 . S
C1129 O1130 1.227 . S
C1129 O1139 1.265 . S
O1130 C1129 1.227 . S
N1131 Co1128 2.121 . S
N1131 C1133 1.375 . S
N1131 C1134 1.313 . S
C1132 C1133 1.338 . S
C1132 N1135 1.377 . S
C1132 H1152 0.930 . S
C1133 N1131 1.375 . S
C1133 C1132 1.338 . S
C1133 H1137 0.931 . S
C1134 N1131 1.313 . S
C1134 N1135 1.344 . S
C1134 H1138 0.930 . S
N1135 C1132 1.377 . S
N1135 C1134 1.344 . S
O1136 Co1128 2.055 . S
O1136 C1140 1.253 . S
H1137 C1133 0.931 . S
H1138 C1134 0.930 . S
O1139 Co1128 2.039 . S
O1139 C1129 1.265 . S
C1140 O1136 1.253 . S
C1140 O1141 1.227 . S
O1141 C1140 1.227 . S
N1142 Co1128 2.140 . S
N1142 C1145 1.346 . S
N1142 C1146 1.345 . S
C1143 C1144 1.387 . S
C1143 C1147 1.391 . S
C1144 C1143 1.387 . S
C1144 C1145 1.369 . S
C1144 H1153 0.929 . S
C1145 N1142 1.346 . S
C1145 C1144 1.369 . S
C1145 H1148 0.928 . S
C1146 N1142 1.345 . S
C1146 C1147 1.371 . S
C1146 H1149 0.931 . S
C1147 C1143 1.391 . S
C1147 C1146 1.371 . S
C1147 H1154 0.930 . S
H1148 C1145 0.928 . S
H1149 C1146 0.931 . S
H1150 C1126 0.930 . S
H1151 C1123 0.930 . S
H1152 C1132 0.930 . S
H1153 C1144 0.929 . S
H1154 C1147 0.930 . S
C1155 C1156 1.351 . S
C1155 N1158 1.368 . S
C1155 H1160 0.931 . S
C1156 C1155 1.351 . S
C1156 N1157 1.373 . S
C1156 H1184 0.930 . S
N1157 C1156 1.373 . S
N1157 C1159 1.340 . S
N1158 C1155 1.368 . S
N1158 C1159 1.321 . S
N1158 Co1161 2.135 . S
C1159 N1157 1.340 . S
C1159 N1158 1.321 . S
C1159 H1183 0.930 . S
H1160 C1155 0.931 . S
Co1161 N1158 2.135 . S
Co1161 N1164 2.121 . S
Co1161 O1169 2.055 . S
Co1161 O1172 2.039 . S
Co1161 N1175 2.140 . S
C1162 O1163 1.227 . S
C1162 O1172 1.265 . S
O1163 C1162 1.227 . S
N1164 Co1161 2.121 . S
N1164 C1166 1.375 . S
N1164 C1167 1.313 . S
C1165 C1166 1.338 . S
C1165 N1168 1.377 . S
C1165 H1185 0.930 . S
C1166 N1164 1.375 . S
C1166 C1165 1.338 . S
C1166 H1170 0.931 . S
C1167 N1164 1.313 . S
C1167 N1168 1.344 . S
C1167 H1171 0.930 . S
N1168 C1165 1.377 . S
N1168 C1167 1.344 . S
O1169 Co1161 2.055 . S
O1169 C1173 1.253 . S
H1170 C1166 0.931 . S
H1171 C1167 0.930 . S
O1172 Co1161 2.039 . S
O1172 C1162 1.265 . S
C1173 O1169 1.253 . S
C1173 O1174 1.227 . S
O1174 C1173 1.227 . S
N1175 Co1161 2.140 . S
N1175 C1178 1.346 . S
N1175 C1179 1.345 . S
C1176 C1177 1.387 . S
C1176 C1180 1.391 . S
C1177 C1176 1.387 . S
C1177 C1178 1.369 . S
C1177 H1186 0.929 . S
C1178 N1175 1.346 . S
C1178 C1177 1.369 . S
C1178 H1181 0.928 . S
C1179 N1175 1.345 . S
C1179 C1180 1.371 . S
C1179 H1182 0.931 . S
C1180 C1176 1.391 . S
C1180 C1179 1.371 . S
C1180 H1187 0.930 . S
H1181 C1178 0.928 . S
H1182 C1179 0.931 . S
H1183 C1159 0.930 . S
H1184 C1156 0.930 . S
H1185 C1165 0.930 . S
H1186 C1177 0.929 . S
H1187 C1180 0.930 . S
C1188 C1189 1.351 . S
C1188 N1191 1.368 . S
C1188 H1193 0.931 . S
C1189 C1188 1.351 . S
C1189 N1190 1.373 . S
C1189 H1217 0.930 . S
N1190 C1189 1.373 . S
N1190 C1192 1.340 . S
N1191 C1188 1.368 . S
N1191 C1192 1.321 . S
N1191 Co1194 2.135 . S
C1192 N1190 1.340 . S
C1192 N1191 1.321 . S
C1192 H1216 0.930 . S
H1193 C1188 0.931 . S
Co1194 N1191 2.135 . S
Co1194 N1197 2.121 . S
Co1194 O1202 2.055 . S
Co1194 O1205 2.039 . S
Co1194 N1208 2.140 . S
C1195 O1196 1.227 . S
C1195 O1205 1.265 . S
O1196 C1195 1.227 . S
N1197 Co1194 2.121 . S
N1197 C1199 1.375 . S
N1197 C1200 1.313 . S
C1198 C1199 1.338 . S
C1198 N1201 1.377 . S
C1198 H1218 0.930 . S
C1199 N1197 1.375 . S
C1199 C1198 1.338 . S
C1199 H1203 0.931 . S
C1200 N1197 1.313 . S
C1200 N1201 1.344 . S
C1200 H1204 0.930 . S
N1201 C1198 1.377 . S
N1201 C1200 1.344 . S
O1202 Co1194 2.055 . S
O1202 C1206 1.253 . S
H1203 C1199 0.931 . S
H1204 C1200 0.930 . S
O1205 Co1194 2.039 . S
O1205 C1195 1.265 . S
C1206 O1202 1.253 . S
C1206 O1207 1.227 . S
O1207 C1206 1.227 . S
N1208 Co1194 2.140 . S
N1208 C1211 1.346 . S
N1208 C1212 1.345 . S
C1209 C1210 1.387 . S
C1209 C1213 1.391 . S
C1210 C1209 1.387 . S
C1210 C1211 1.369 . S
C1210 H1219 0.929 . S
C1211 N1208 1.346 . S
C1211 C1210 1.369 . S
C1211 H1214 0.928 . S
C1212 N1208 1.345 . S
C1212 C1213 1.371 . S
C1212 H1215 0.931 . S
C1213 C1209 1.391 . S
C1213 C1212 1.371 . S
C1213 H1220 0.930 . S
H1214 C1211 0.928 . S
H1215 C1212 0.931 . S
H1216 C1192 0.930 . S
H1217 C1189 0.930 . S
H1218 C1198 0.930 . S
H1219 C1210 0.929 . S
H1220 C1213 0.930 . S
C1221 C1222 1.351 . S
C1221 N1224 1.368 . S
C1221 H1226 0.931 . S
C1222 C1221 1.351 . S
C1222 N1223 1.373 . S
C1222 H1250 0.930 1_556 S
N1223 C1222 1.373 . S
N1223 C1225 1.340 . S
N1224 C1221 1.368 . S
N1224 C1225 1.321 . S
N1224 Co1227 2.135 . S
C1225 N1223 1.340 . S
C1225 N1224 1.321 . S
C1225 H1249 0.930 . S
H1226 C1221 0.931 . S
Co1227 N1224 2.135 . S
Co1227 N1230 2.121 . S
Co1227 O1235 2.055 . S
Co1227 O1238 2.039 . S
Co1227 N1241 2.140 . S
C1228 O1229 1.227 . S
C1228 O1238 1.265 . S
O1229 C1228 1.227 . S
N1230 Co1227 2.121 . S
N1230 C1232 1.375 . S
N1230 C1233 1.313 . S
C1231 C1232 1.338 . S
C1231 N1234 1.377 . S
C1231 H1251 0.930 . S
C1232 N1230 1.375 . S
C1232 C1231 1.338 . S
C1232 H1236 0.931 . S
C1233 N1230 1.313 . S
C1233 N1234 1.344 . S
C1233 H1237 0.930 . S
N1234 C1231 1.377 . S
N1234 C1233 1.344 . S
O1235 Co1227 2.055 . S
O1235 C1239 1.253 . S
H1236 C1232 0.931 . S
H1237 C1233 0.930 . S
O1238 Co1227 2.039 . S
O1238 C1228 1.265 . S
C1239 O1235 1.253 . S
C1239 O1240 1.227 . S
O1240 C1239 1.227 . S
N1241 Co1227 2.140 . S
N1241 C1244 1.346 . S
N1241 C1245 1.345 . S
C1242 C1243 1.387 . S
C1242 C1246 1.391 . S
C1243 C1242 1.387 . S
C1243 C1244 1.369 . S
C1243 H1252 0.929 . S
C1244 N1241 1.346 . S
C1244 C1243 1.369 . S
C1244 H1247 0.928 . S
C1245 N1241 1.345 . S
C1245 C1246 1.371 . S
C1245 H1248 0.931 . S
C1246 C1242 1.391 . S
C1246 C1245 1.371 . S
C1246 H1253 0.930 . S
H1247 C1244 0.928 . S
H1248 C1245 0.931 . S
H1249 C1225 0.930 . S
H1250 C1222 0.930 1_554 S
H1251 C1231 0.930 . S
H1252 C1243 0.929 . S
H1253 C1246 0.930 . S
C1254 C1255 1.351 . S
C1254 N1257 1.368 . S
C1254 H1259 0.931 . S
C1255 C1254 1.351 . S
C1255 N1256 1.373 . S
C1255 H1283 0.930 . S
N1256 C1255 1.373 . S
N1256 C1258 1.340 . S
N1257 C1254 1.368 . S
N1257 C1258 1.321 . S
N1257 Co1260 2.135 . S
C1258 N1256 1.340 . S
C1258 N1257 1.321 . S
C1258 H1282 0.930 . S
H1259 C1254 0.931 . S
Co1260 N1257 2.135 . S
Co1260 N1263 2.121 . S
Co1260 O1268 2.055 . S
Co1260 O1271 2.039 . S
Co1260 N1274 2.140 . S
C1261 O1262 1.227 . S
C1261 O1271 1.265 . S
O1262 C1261 1.227 . S
N1263 Co1260 2.121 . S
N1263 C1265 1.375 . S
N1263 C1266 1.313 . S
C1264 C1265 1.338 . S
C1264 N1267 1.377 . S
C1264 H1284 0.930 . S
C1265 N1263 1.375 . S
C1265 C1264 1.338 . S
C1265 H1269 0.931 . S
C1266 N1263 1.313 . S
C1266 N1267 1.344 . S
C1266 H1270 0.930 . S
N1267 C1264 1.377 . S
N1267 C1266 1.344 . S
O1268 Co1260 2.055 . S
O1268 C1272 1.253 . S
H1269 C1265 0.931 . S
H1270 C1266 0.930 . S
O1271 Co1260 2.039 . S
O1271 C1261 1.265 . S
C1272 O1268 1.253 . S
C1272 O1273 1.227 . S
O1273 C1272 1.227 . S
N1274 Co1260 2.140 . S
N1274 C1277 1.346 . S
N1274 C1278 1.345 . S
C1275 C1276 1.387 . S
C1275 C1279 1.391 . S
C1276 C1275 1.387 . S
C1276 C1277 1.369 . S
C1276 H1285 0.929 . S
C1277 N1274 1.346 . S
C1277 C1276 1.369 . S
C1277 H1280 0.928 . S
C1278 N1274 1.345 . S
C1278 C1279 1.371 . S
C1278 H1281 0.931 . S
C1279 C1275 1.391 . S
C1279 C1278 1.371 . S
C1279 H1286 0.930 . S
H1280 C1277 0.928 . S
H1281 C1278 0.931 . S
H1282 C1258 0.930 . S
H1283 C1255 0.930 . S
H1284 C1264 0.930 . S
H1285 C1276 0.929 . S
H1286 C1279 0.930 . S
C1287 C1288 1.351 . S
C1287 N1290 1.368 . S
C1287 H1292 0.931 . S
C1288 C1287 1.351 . S
C1288 N1289 1.373 . S
C1288 H1316 0.930 . S
N1289 C1288 1.373 . S
N1289 C1291 1.340 . S
N1290 C1287 1.368 . S
N1290 C1291 1.321 . S
N1290 Co1293 2.135 . S
C1291 N1289 1.340 . S
C1291 N1290 1.321 . S
C1291 H1315 0.930 . S
H1292 C1287 0.931 . S
Co1293 N1290 2.135 . S
Co1293 N1296 2.121 . S
Co1293 O1301 2.055 . S
Co1293 O1304 2.039 . S
Co1293 N1307 2.140 . S
C1294 O1295 1.227 . S
C1294 O1304 1.265 . S
O1295 C1294 1.227 . S
N1296 Co1293 2.121 . S
N1296 C1298 1.375 . S
N1296 C1299 1.313 . S
C1297 C1298 1.338 . S
C1297 N1300 1.377 . S
C1297 H1317 0.930 . S
C1298 N1296 1.375 . S
C1298 C1297 1.338 . S
C1298 H1302 0.931 . S
C1299 N1296 1.313 . S
C1299 N1300 1.344 . S
C1299 H1303 0.930 . S
N1300 C1297 1.377 . S
N1300 C1299 1.344 . S
O1301 Co1293 2.055 . S
O1301 C1305 1.253 . S
H1302 C1298 0.931 . S
H1303 C1299 0.930 . S
O1304 Co1293 2.039 . S
O1304 C1294 1.265 . S
C1305 O1301 1.253 . S
C1305 O1306 1.227 . S
O1306 C1305 1.227 . S
N1307 Co1293 2.140 . S
N1307 C1310 1.346 . S
N1307 C1311 1.345 . S
C1308 C1309 1.387 . S
C1308 C1312 1.391 . S
C1309 C1308 1.387 . S
C1309 C1310 1.369 . S
C1309 H1318 0.929 . S
C1310 N1307 1.346 . S
C1310 C1309 1.369 . S
C1310 H1313 0.928 . S
C1311 N1307 1.345 . S
C1311 C1312 1.371 . S
C1311 H1314 0.931 . S
C1312 C1308 1.391 . S
C1312 C1311 1.371 . S
C1312 H1319 0.930 . S
H1313 C1310 0.928 . S
H1314 C1311 0.931 . S
H1315 C1291 0.930 . S
H1316 C1288 0.930 . S
H1317 C1297 0.930 . S
H1318 C1309 0.929 . S
H1319 C1312 0.930 . S
C1320 C1321 1.351 . S
C1320 N1323 1.368 . S
C1320 H1325 0.931 . S
C1321 C1320 1.351 . S
C1321 N1322 1.373 . S
C1321 H1349 0.930 . S
N1322 C1321 1.373 . S
N1322 C1324 1.340 . S
N1323 C1320 1.368 . S
N1323 C1324 1.321 . S
N1323 Co1326 2.135 . S
C1324 N1322 1.340 . S
C1324 N1323 1.321 . S
C1324 H1348 0.930 . S
H1325 C1320 0.931 . S
Co1326 N1323 2.135 . S
Co1326 N1329 2.121 . S
Co1326 O1334 2.055 . S
Co1326 O1337 2.039 . S
Co1326 N1340 2.140 . S
C1327 O1328 1.227 . S
C1327 O1337 1.265 . S
O1328 C1327 1.227 . S
N1329 Co1326 2.121 . S
N1329 C1331 1.375 . S
N1329 C1332 1.313 . S
C1330 C1331 1.338 . S
C1330 N1333 1.377 . S
C1330 H1350 0.967 . S
C1331 N1329 1.375 . S
C1331 C1330 1.338 . S
C1331 H1335 0.931 . S
C1332 N1329 1.313 . S
C1332 N1333 1.344 . S
C1332 H1336 0.930 . S
N1333 C1330 1.377 . S
N1333 C1332 1.344 . S
O1334 Co1326 2.055 . S
O1334 C1338 1.253 . S
H1335 C1331 0.931 . S
H1336 C1332 0.930 . S
O1337 Co1326 2.039 . S
O1337 C1327 1.265 . S
C1338 O1334 1.253 . S
C1338 O1339 1.227 . S
O1339 C1338 1.227 . S
N1340 Co1326 2.140 . S
N1340 C1343 1.346 . S
N1340 C1344 1.345 . S
C1341 C1342 1.387 . S
C1341 C1345 1.391 . S
C1342 C1341 1.387 . S
C1342 C1343 1.369 . S
C1342 H1351 0.929 . S
C1343 N1340 1.346 . S
C1343 C1342 1.369 . S
C1343 H1346 0.928 . S
C1344 N1340 1.345 . S
C1344 C1345 1.371 . S
C1344 H1347 0.931 . S
C1345 C1341 1.391 . S
C1345 C1344 1.371 . S
C1345 H1352 0.930 . S
H1346 C1343 0.928 . S
H1347 C1344 0.931 . S
H1348 C1324 0.930 . S
H1349 C1321 0.930 . S
H1350 C1330 0.967 . S
H1351 C1342 0.929 . S
H1352 C1345 0.930 . S
C1353 C1354 1.351 . S
C1353 N1356 1.368 . S
C1353 H1358 0.931 . S
C1354 C1353 1.351 . S
C1354 N1355 1.373 . S
C1354 H1382 0.930 . S
N1355 C1354 1.373 . S
N1355 C1357 1.340 . S
N1356 C1353 1.368 . S
N1356 C1357 1.321 . S
N1356 Co1359 2.135 . S
C1357 N1355 1.340 . S
C1357 N1356 1.321 . S
C1357 H1381 0.930 . S
H1358 C1353 0.931 . S
Co1359 N1356 2.135 . S
Co1359 N1362 2.121 . S
Co1359 O1367 2.055 . S
Co1359 O1370 2.039 . S
Co1359 N1373 2.140 . S
C1360 O1361 1.227 . S
C1360 O1370 1.265 . S
O1361 C1360 1.227 . S
N1362 Co1359 2.121 . S
N1362 C1364 1.375 . S
N1362 C1365 1.313 . S
C1363 C1364 1.338 . S
C1363 N1366 1.377 . S
C1363 H1383 0.930 . S
C1364 N1362 1.375 . S
C1364 C1363 1.338 . S
C1364 H1368 0.931 . S
C1365 N1362 1.313 . S
C1365 N1366 1.344 . S
C1365 H1369 0.930 . S
N1366 C1363 1.377 . S
N1366 C1365 1.344 . S
O1367 Co1359 2.055 . S
O1367 C1371 1.253 . S
H1368 C1364 0.931 . S
H1369 C1365 0.930 . S
O1370 Co1359 2.039 . S
O1370 C1360 1.265 . S
C1371 O1367 1.253 . S
C1371 O1372 1.227 . S
O1372 C1371 1.227 . S
N1373 Co1359 2.140 . S
N1373 C1376 1.346 . S
N1373 C1377 1.345 . S
C1374 C1375 1.387 . S
C1374 C1378 1.391 . S
C1375 C1374 1.387 . S
C1375 C1376 1.369 . S
C1375 H1384 0.929 . S
C1376 N1373 1.346 . S
C1376 C1375 1.369 . S
C1376 H1379 0.928 . S
C1377 N1373 1.345 . S
C1377 C1378 1.371 . S
C1377 H1380 0.931 . S
C1378 C1374 1.391 . S
C1378 C1377 1.371 . S
C1378 H1385 0.930 . S
H1379 C1376 0.928 . S
H1380 C1377 0.931 . S
H1381 C1357 0.930 . S
H1382 C1354 0.930 . S
H1383 C1363 0.930 . S
H1384 C1375 0.929 . S
H1385 C1378 0.930 . S
C1386 C1387 1.351 . S
C1386 N1389 1.368 . S
C1386 H1391 0.931 . S
C1387 C1386 1.351 . S
C1387 N1388 1.373 . S
C1387 H1415 0.930 . S
N1388 C1387 1.373 . S
N1388 C1390 1.340 . S
N1389 C1386 1.368 . S
N1389 C1390 1.321 . S
N1389 Co1392 2.135 . S
C1390 N1388 1.340 . S
C1390 N1389 1.321 . S
C1390 H1414 0.930 . S
H1391 C1386 0.931 . S
Co1392 N1389 2.135 . S
Co1392 N1395 2.121 . S
Co1392 O1400 2.055 . S
Co1392 O1403 2.039 . S
Co1392 N1406 2.140 . S
C1393 O1394 1.227 . S
C1393 O1403 1.265 . S
O1394 C1393 1.227 . S
N1395 Co1392 2.121 . S
N1395 C1397 1.375 . S
N1395 C1398 1.313 . S
C1396 C1397 1.338 . S
C1396 N1399 1.377 . S
C1396 H1416 0.930 . S
C1397 N1395 1.375 . S
C1397 C1396 1.338 . S
C1397 H1401 0.931 . S
C1398 N1395 1.313 . S
C1398 N1399 1.344 . S
C1398 H1402 0.930 . S
N1399 C1396 1.377 . S
N1399 C1398 1.344 . S
O1400 Co1392 2.055 . S
O1400 C1404 1.253 . S
H1401 C1397 0.931 . S
H1402 C1398 0.930 . S
O1403 Co1392 2.039 . S
O1403 C1393 1.265 . S
C1404 O1400 1.253 . S
C1404 O1405 1.227 . S
O1405 C1404 1.227 . S
N1406 Co1392 2.140 . S
N1406 C1409 1.346 . S
N1406 C1410 1.345 . S
C1407 C1408 1.387 . S
C1407 C1411 1.391 . S
C1408 C1407 1.387 . S
C1408 C1409 1.369 . S
C1408 H1417 0.929 . S
C1409 N1406 1.346 . S
C1409 C1408 1.369 . S
C1409 H1412 0.928 . S
C1410 N1406 1.345 . S
C1410 C1411 1.371 . S
C1410 H1413 0.931 . S
C1411 C1407 1.391 . S
C1411 C1410 1.371 . S
C1411 H1418 0.930 . S
H1412 C1409 0.928 . S
H1413 C1410 0.931 . S
H1414 C1390 0.930 . S
H1415 C1387 0.930 . S
H1416 C1396 0.930 . S
H1417 C1408 0.929 . S
H1418 C1411 0.930 . S
C1419 C1420 1.351 . S
C1419 N1422 1.368 . S
C1419 H1424 0.931 . S
C1420 C1419 1.351 . S
C1420 N1421 1.373 . S
C1420 H1448 0.930 . S
N1421 C1420 1.373 . S
N1421 C1423 1.340 . S
N1422 C1419 1.368 . S
N1422 C1423 1.321 . S
N1422 Co1425 2.135 . S
C1423 N1421 1.340 . S
C1423 N1422 1.321 . S
C1423 H1447 0.930 . S
H1424 C1419 0.931 . S
Co1425 N1422 2.135 . S
Co1425 N1428 2.121 . S
Co1425 O1433 2.055 . S
Co1425 O1436 2.039 . S
Co1425 N1439 2.140 . S
C1426 O1427 1.227 . S
C1426 O1436 1.265 . S
O1427 C1426 1.227 . S
N1428 Co1425 2.121 . S
N1428 C1430 1.375 . S
N1428 C1431 1.313 . S
C1429 C1430 1.338 . S
C1429 N1432 1.377 . S
C1429 H1449 0.930 . S
C1430 N1428 1.375 . S
C1430 C1429 1.338 . S
C1430 H1434 0.931 . S
C1431 N1428 1.313 . S
C1431 N1432 1.344 . S
C1431 H1435 0.930 . S
N1432 C1429 1.377 . S
N1432 C1431 1.344 . S
O1433 Co1425 2.055 . S
O1433 C1437 1.253 . S
H1434 C1430 0.931 . S
H1435 C1431 0.930 . S
O1436 Co1425 2.039 . S
O1436 C1426 1.265 . S
C1437 O1433 1.253 . S
C1437 O1438 1.227 . S
O1438 C1437 1.227 . S
N1439 Co1425 2.140 . S
N1439 C1442 1.346 . S
N1439 C1443 1.345 . S
C1440 C1441 1.387 . S
C1440 C1444 1.391 . S
C1441 C1440 1.387 . S
C1441 C1442 1.369 . S
C1441 H1450 0.929 . S
C1442 N1439 1.346 . S
C1442 C1441 1.369 . S
C1442 H1445 0.928 . S
C1443 N1439 1.345 . S
C1443 C1444 1.371 . S
C1443 H1446 0.931 . S
C1444 C1440 1.391 . S
C1444 C1443 1.371 . S
C1444 H1451 0.930 . S
H1445 C1442 0.928 . S
H1446 C1443 0.931 . S
H1447 C1423 0.930 . S
H1448 C1420 0.930 . S
H1449 C1429 0.930 . S
H1450 C1441 0.929 . S
H1451 C1444 0.930 . S
C1452 C1453 1.351 . S
C1452 N1455 1.368 . S
C1452 H1457 0.931 . S
C1453 C1452 1.351 . S
C1453 N1454 1.373 . S
C1453 H1481 0.930 . S
N1454 C1453 1.373 . S
N1454 C1456 1.340 . S
N1455 C1452 1.368 . S
N1455 C1456 1.321 . S
N1455 Co1458 2.135 . S
C1456 N1454 1.340 . S
C1456 N1455 1.321 . S
C1456 H1480 0.930 . S
H1457 C1452 0.931 . S
Co1458 N1455 2.135 . S
Co1458 N1461 2.121 . S
Co1458 O1466 2.055 . S
Co1458 O1469 2.039 . S
Co1458 N1472 2.140 . S
C1459 O1460 1.227 . S
C1459 O1469 1.265 . S
O1460 C1459 1.227 . S
N1461 Co1458 2.121 . S
N1461 C1463 1.375 . S
N1461 C1464 1.313 . S
C1462 C1463 1.338 . S
C1462 N1465 1.377 . S
C1462 H1482 0.930 . S
C1463 N1461 1.375 . S
C1463 C1462 1.338 . S
C1463 H1467 0.931 . S
C1464 N1461 1.313 . S
C1464 N1465 1.344 . S
C1464 H1468 0.930 . S
N1465 C1462 1.377 . S
N1465 C1464 1.344 . S
O1466 Co1458 2.055 . S
O1466 C1470 1.253 . S
H1467 C1463 0.931 . S
H1468 C1464 0.930 . S
O1469 Co1458 2.039 . S
O1469 C1459 1.265 . S
C1470 O1466 1.253 . S
C1470 O1471 1.227 . S
O1471 C1470 1.227 . S
N1472 Co1458 2.140 . S
N1472 C1475 1.346 . S
N1472 C1476 1.345 . S
C1473 C1474 1.387 . S
C1473 C1477 1.391 . S
C1474 C1473 1.387 . S
C1474 C1475 1.369 . S
C1474 H1483 0.929 . S
C1475 N1472 1.346 . S
C1475 C1474 1.369 . S
C1475 H1478 0.928 . S
C1476 N1472 1.345 . S
C1476 C1477 1.371 . S
C1476 H1479 0.931 . S
C1477 C1473 1.391 . S
C1477 C1476 1.371 . S
C1477 H1484 0.930 . S
H1478 C1475 0.928 . S
H1479 C1476 0.931 . S
H1480 C1456 0.930 . S
H1481 C1453 0.930 . S
H1482 C1462 0.930 . S
H1483 C1474 0.929 . S
H1484 C1477 0.930 . S
C1485 C1486 1.351 . S
C1485 N1488 1.368 . S
C1485 H1490 0.931 . S
C1486 C1485 1.351 . S
C1486 N1487 1.373 . S
C1486 H1514 0.930 . S
N1487 C1486 1.373 . S
N1487 C1489 1.340 . S
N1488 C1485 1.368 . S
N1488 C1489 1.321 . S
N1488 Co1491 2.135 . S
C1489 N1487 1.340 . S
C1489 N1488 1.321 . S
C1489 H1513 0.930 . S
H1490 C1485 0.931 . S
Co1491 N1488 2.135 . S
Co1491 N1494 2.121 . S
Co1491 O1499 2.055 . S
Co1491 O1502 2.039 . S
Co1491 N1505 2.140 . S
C1492 O1493 1.227 . S
C1492 O1502 1.265 . S
O1493 C1492 1.227 . S
N1494 Co1491 2.121 . S
N1494 C1496 1.375 . S
N1494 C1497 1.313 . S
C1495 C1496 1.338 . S
C1495 N1498 1.377 . S
C1495 H1515 0.930 . S
C1496 N1494 1.375 . S
C1496 C1495 1.338 . S
C1496 H1500 0.931 . S
C1497 N1494 1.313 . S
C1497 N1498 1.344 . S
C1497 H1501 0.930 . S
N1498 C1495 1.377 . S
N1498 C1497 1.344 . S
O1499 Co1491 2.055 . S
O1499 C1503 1.253 . S
H1500 C1496 0.931 . S
H1501 C1497 0.930 . S
O1502 Co1491 2.039 . S
O1502 C1492 1.265 . S
C1503 O1499 1.253 . S
C1503 O1504 1.227 . S
O1504 C1503 1.227 . S
N1505 Co1491 2.140 . S
N1505 C1508 1.346 . S
N1505 C1509 1.345 . S
C1506 C1507 1.387 . S
C1506 C1510 1.391 . S
C1507 C1506 1.387 . S
C1507 C1508 1.369 . S
C1507 H1516 0.929 . S
C1508 N1505 1.346 . S
C1508 C1507 1.369 . S
C1508 H1511 0.928 . S
C1509 N1505 1.345 . S
C1509 C1510 1.371 . S
C1509 H1512 0.931 . S
C1510 C1506 1.391 . S
C1510 C1509 1.371 . S
C1510 H1517 0.930 . S
H1511 C1508 0.928 . S
H1512 C1509 0.931 . S
H1513 C1489 0.930 . S
H1514 C1486 0.930 . S
H1515 C1495 0.930 . S
H1516 C1507 0.929 . S
H1517 C1510 0.930 . S
C1518 C1519 1.351 . S
C1518 N1521 1.368 . S
C1518 H1523 0.931 . S
C1519 C1518 1.351 . S
C1519 N1520 1.373 . S
C1519 H1547 0.930 1_565 S
N1520 C1519 1.373 . S
N1520 C1522 1.340 . S
N1521 C1518 1.368 . S
N1521 C1522 1.321 . S
N1521 Co1524 2.135 . S
C1522 N1520 1.340 . S
C1522 N1521 1.321 . S
C1522 H1546 0.930 . S
H1523 C1518 0.931 . S
Co1524 N1521 2.135 . S
Co1524 N1527 2.121 . S
Co1524 O1532 2.055 . S
Co1524 O1535 2.039 . S
Co1524 N1538 2.140 . S
C1525 O1526 1.227 . S
C1525 O1535 1.265 . S
O1526 C1525 1.227 . S
N1527 Co1524 2.121 . S
N1527 C1529 1.375 . S
N1527 C1530 1.313 . S
C1528 C1529 1.338 . S
C1528 N1531 1.377 . S
C1528 H1548 0.930 . S
C1529 N1527 1.375 . S
C1529 C1528 1.338 . S
C1529 H1533 0.931 . S
C1530 N1527 1.313 . S
C1530 N1531 1.344 . S
C1530 H1534 0.930 . S
N1531 C1528 1.377 . S
N1531 C1530 1.344 . S
O1532 Co1524 2.055 . S
O1532 C1536 1.253 . S
H1533 C1529 0.931 . S
H1534 C1530 0.930 . S
O1535 Co1524 2.039 . S
O1535 C1525 1.265 . S
C1536 O1532 1.253 . S
C1536 O1537 1.227 . S
O1537 C1536 1.227 . S
N1538 Co1524 2.140 . S
N1538 C1541 1.346 . S
N1538 C1542 1.345 . S
C1539 C1540 1.387 . S
C1539 C1543 1.391 . S
C1540 C1539 1.387 . S
C1540 C1541 1.369 . S
C1540 H1549 0.929 . S
C1541 N1538 1.346 . S
C1541 C1540 1.369 . S
C1541 H1544 0.928 . S
C1542 N1538 1.345 . S
C1542 C1543 1.371 . S
C1542 H1545 0.931 . S
C1543 C1539 1.391 . S
C1543 C1542 1.371 . S
C1543 H1550 0.930 . S
H1544 C1541 0.928 . S
H1545 C1542 0.931 . S
H1546 C1522 0.930 . S
H1547 C1519 0.930 1_545 S
H1548 C1528 0.930 . S
H1549 C1540 0.929 . S
H1550 C1543 0.930 . S
C1551 C1552 1.351 . S
C1551 N1554 1.368 . S
C1551 H1556 0.931 . S
C1552 C1551 1.351 . S
C1552 N1553 1.373 . S
C1552 H1580 0.930 . S
N1553 C1552 1.373 . S
N1553 C1555 1.340 . S
N1554 C1551 1.368 . S
N1554 C1555 1.321 . S
N1554 Co1557 2.135 . S
C1555 N1553 1.340 . S
C1555 N1554 1.321 . S
C1555 H1579 0.930 . S
H1556 C1551 0.931 . S
Co1557 N1554 2.135 . S
Co1557 N1560 2.121 . S
Co1557 O1565 2.055 . S
Co1557 O1568 2.039 . S
Co1557 N1571 2.140 . S
C1558 O1559 1.227 . S
C1558 O1568 1.265 . S
O1559 C1558 1.227 . S
N1560 Co1557 2.121 . S
N1560 C1562 1.375 . S
N1560 C1563 1.313 . S
C1561 C1562 1.338 . S
C1561 N1564 1.377 . S
C1561 H1581 0.930 . S
C1562 N1560 1.375 . S
C1562 C1561 1.338 . S
C1562 H1566 0.931 . S
C1563 N1560 1.313 . S
C1563 N1564 1.344 . S
C1563 H1567 0.930 . S
N1564 C1561 1.377 . S
N1564 C1563 1.344 . S
O1565 Co1557 2.055 . S
O1565 C1569 1.253 . S
H1566 C1562 0.931 . S
H1567 C1563 0.930 . S
O1568 Co1557 2.039 . S
O1568 C1558 1.265 . S
C1569 O1565 1.253 . S
C1569 O1570 1.227 . S
O1570 C1569 1.227 . S
N1571 Co1557 2.140 . S
N1571 C1574 1.346 . S
N1571 C1575 1.345 . S
C1572 C1573 1.387 . S
C1572 C1576 1.391 . S
C1573 C1572 1.387 . S
C1573 C1574 1.369 . S
C1573 H1582 0.929 . S
C1574 N1571 1.346 . S
C1574 C1573 1.369 . S
C1574 H1577 0.928 . S
C1575 N1571 1.345 . S
C1575 C1576 1.371 . S
C1575 H1578 0.931 . S
C1576 C1572 1.391 . S
C1576 C1575 1.371 . S
C1576 H1583 0.930 . S
H1577 C1574 0.928 . S
H1578 C1575 0.931 . S
H1579 C1555 0.930 . S
H1580 C1552 0.930 . S
H1581 C1561 0.930 . S
H1582 C1573 0.929 . S
H1583 C1576 0.930 . S
H1584 C1592 0.950 . S
H1585 C1597 0.950 . S
H1586 C1594 0.950 . S
H1587 C1596 0.950 . S
H1588 C1598 0.950 . S
H1589 C1600 0.950 . S
H1590 C1602 0.950 . S
H1591 C1603 0.950 . S
C1592 H1584 0.950 . S
C1592 C1593 1.386 . S
C1592 C1594 1.391 . S
C1593 C1592 1.386 . S
C1593 C1597 1.393 . S
C1594 H1586 0.950 . S
C1594 C1592 1.391 . S
C1594 C1595 1.400 . S
C1595 C1594 1.400 . S
C1595 C1596 1.398 . S
C1595 C1601 1.491 . S
C1596 H1587 0.950 . S
C1596 C1595 1.398 . S
C1596 C1597 1.391 . S
C1597 H1585 0.950 . S
C1597 C1593 1.393 . S
C1597 C1596 1.391 . S
C1598 H1588 0.950 . S
C1598 C1599 1.386 . S
C1598 C1600 1.391 . S
C1599 C1598 1.386 . S
C1599 C1603 1.393 . S
C1600 H1589 0.950 . S
C1600 C1598 1.391 . S
C1600 C1601 1.400 . S
C1601 C1595 1.491 . S
C1601 C1600 1.400 . S
C1601 C1602 1.398 . S
C1602 H1590 0.950 . S
C1602 C1601 1.398 . S
C1602 C1603 1.391 . S
C1603 H1591 0.950 . S
C1603 C1599 1.393 . S
C1603 C1602 1.391 . S
H1604 C1612 0.950 . S
H1605 C1617 0.950 . S
H1606 C1614 0.950 . S
H1607 C1616 0.950 . S
H1608 C1618 0.950 . S
H1609 C1620 0.950 1_655 S
H1610 C1622 0.950 . S
H1611 C1623 0.950 . S
C1612 H1604 0.950 . S
C1612 C1613 1.386 . S
C1612 C1614 1.391 . S
C1613 C1612 1.386 . S
C1613 C1617 1.393 . S
C1614 H1606 0.950 . S
C1614 C1612 1.391 . S
C1614 C1615 1.400 . S
C1615 C1614 1.400 . S
C1615 C1616 1.398 . S
C1615 C1621 1.491 1_655 S
C1616 H1607 0.950 . S
C1616 C1615 1.398 . S
C1616 C1617 1.391 . S
C1617 H1605 0.950 . S
C1617 C1613 1.393 . S
C1617 C1616 1.391 . S
C1618 H1608 0.950 . S
C1618 C1619 1.386 . S
C1618 C1620 1.391 . S
C1619 C1618 1.386 . S
C1619 C1623 1.393 . S
C1620 H1609 0.950 1_455 S
C1620 C1618 1.391 . S
C1620 C1621 1.400 . S
C1621 C1615 1.491 1_455 S
C1621 C1620 1.400 . S
C1621 C1622 1.398 . S
C1622 H1610 0.950 . S
C1622 C1621 1.398 . S
C1622 C1623 1.391 . S
C1623 H1611 0.950 . S
C1623 C1619 1.393 . S
C1623 C1622 1.391 . S
H1624 C1632 0.950 . S
H1625 C1637 0.950 . S
H1626 C1634 0.950 . S
H1627 C1636 0.950 . S
H1628 C1638 0.950 . S
H1629 C1640 0.950 . S
H1630 C1642 0.950 . S
H1631 C1643 0.950 . S
C1632 H1624 0.950 . S
C1632 C1633 1.386 . S
C1632 C1634 1.391 . S
C1633 C1632 1.386 . S
C1633 C1637 1.393 . S
C1634 H1626 0.950 . S
C1634 C1632 1.391 . S
C1634 C1635 1.400 . S
C1635 C1634 1.400 . S
C1635 C1636 1.398 . S
C1635 C1641 1.491 . S
C1636 H1627 0.950 . S
C1636 C1635 1.398 . S
C1636 C1637 1.391 . S
C1637 H1625 0.950 . S
C1637 C1633 1.393 . S
C1637 C1636 1.391 . S
C1638 H1628 0.950 . S
C1638 C1639 1.386 . S
C1638 C1640 1.391 . S
C1639 C1638 1.386 . S
C1639 C1643 1.393 . S
C1640 H1629 0.950 . S
C1640 C1638 1.391 . S
C1640 C1641 1.400 . S
C1641 C1635 1.491 . S
C1641 C1640 1.400 . S
C1641 C1642 1.398 . S
C1642 H1630 0.950 . S
C1642 C1641 1.398 . S
C1642 C1643 1.391 . S
C1643 H1631 0.950 . S
C1643 C1639 1.393 . S
C1643 C1642 1.391 . S
H1644 C1652 0.950 . S
H1645 C1657 0.950 . S
H1646 C1654 0.950 . S
H1647 C1656 0.950 . S
H1648 C1658 0.950 . S
H1649 C1660 0.950 . S
H1650 C1662 0.950 . S
H1651 C1663 0.950 . S
C1652 H1644 0.950 . S
C1652 C1653 1.386 . S
C1652 C1654 1.391 . S
C1653 C1652 1.386 . S
C1653 C1657 1.393 . S
C1654 H1646 0.950 . S
C1654 C1652 1.391 . S
C1654 C1655 1.400 . S
C1655 C1654 1.400 . S
C1655 C1656 1.398 . S
C1655 C1661 1.491 . S
C1656 H1647 0.950 . S
C1656 C1655 1.398 . S
C1656 C1657 1.391 . S
C1657 H1645 0.950 . S
C1657 C1653 1.393 . S
C1657 C1656 1.391 . S
C1658 H1648 0.950 . S
C1658 C1659 1.386 . S
C1658 C1660 1.391 . S
C1659 C1658 1.386 . S
C1659 C1663 1.393 . S
C1660 H1649 0.950 . S
C1660 C1658 1.391 . S
C1660 C1661 1.400 . S
C1661 C1655 1.491 . S
C1661 C1660 1.400 . S
C1661 C1662 1.398 . S
C1662 H1650 0.950 . S
C1662 C1661 1.398 . S
C1662 C1663 1.391 . S
C1663 H1651 0.950 . S
C1663 C1659 1.393 . S
C1663 C1662 1.391 . S
H1664 C1672 0.950 . S
H1665 C1677 0.950 . S
H1666 C1674 0.950 . S
H1667 C1676 0.950 . S
H1668 C1678 0.950 . S
H1669 C1680 0.950 . S
H1670 C1682 0.950 . S
H1671 C1683 0.950 . S
C1672 H1664 0.950 . S
C1672 C1673 1.386 . S
C1672 C1674 1.391 . S
C1673 C1672 1.386 . S
C1673 C1677 1.393 . S
C1674 H1666 0.950 . S
C1674 C1672 1.391 . S
C1674 C1675 1.400 . S
C1675 C1674 1.400 . S
C1675 C1676 1.398 . S
C1675 C1681 1.491 . S
C1676 H1667 0.950 . S
C1676 C1675 1.398 . S
C1676 C1677 1.391 . S
C1677 H1665 0.950 . S
C1677 C1673 1.393 . S
C1677 C1676 1.391 . S
C1678 H1668 0.950 . S
C1678 C1679 1.386 . S
C1678 C1680 1.391 . S
C1679 C1678 1.386 . S
C1679 C1683 1.393 . S
C1680 H1669 0.950 . S
C1680 C1678 1.391 . S
C1680 C1681 1.400 . S
C1681 C1675 1.491 . S
C1681 C1680 1.400 . S
C1681 C1682 1.398 . S
C1682 H1670 0.950 . S
C1682 C1681 1.398 . S
C1682 C1683 1.391 . S
C1683 H1671 0.950 . S
C1683 C1679 1.393 . S
C1683 C1682 1.391 . S
H1684 C1692 0.950 . S
H1685 C1697 0.950 . S
H1686 C1694 0.950 . S
H1687 C1696 0.950 . S
H1688 C1698 0.950 . S
H1689 C1700 0.950 . S
H1690 C1702 0.950 . S
H1691 C1703 0.950 . S
C1692 H1684 0.950 . S
C1692 C1693 1.386 . S
C1692 C1694 1.391 . S
C1693 C1692 1.386 . S
C1693 C1697 1.393 . S
C1694 H1686 0.950 . S
C1694 C1692 1.391 . S
C1694 C1695 1.400 . S
C1695 C1694 1.400 . S
C1695 C1696 1.398 . S
C1695 C1701 1.491 . S
C1696 H1687 0.950 . S
C1696 C1695 1.398 . S
C1696 C1697 1.391 . S
C1697 H1685 0.950 . S
C1697 C1693 1.393 . S
C1697 C1696 1.391 . S
C1698 H1688 0.950 . S
C1698 C1699 1.386 . S
C1698 C1700 1.391 . S
C1699 C1698 1.386 . S
C1699 C1703 1.393 . S
C1700 H1689 0.950 . S
C1700 C1698 1.391 . S
C1700 C1701 1.400 . S
C1701 C1695 1.491 . S
C1701 C1700 1.400 . S
C1701 C1702 1.398 . S
C1702 H1690 0.950 . S
C1702 C1701 1.398 . S
C1702 C1703 1.391 . S
C1703 H1691 0.950 . S
C1703 C1699 1.393 . S
C1703 C1702 1.391 . S
H1704 C1712 0.950 . S
H1705 C1717 0.950 . S
H1706 C1714 0.950 . S
H1707 C1716 0.950 . S
H1708 C1718 0.950 . S
H1709 C1720 0.950 . S
H1710 C1722 0.950 . S
H1711 C1723 0.950 . S
C1712 H1704 0.950 . S
C1712 C1713 1.386 . S
C1712 C1714 1.391 . S
C1713 C1712 1.386 . S
C1713 C1717 1.393 . S
C1714 H1706 0.950 . S
C1714 C1712 1.391 . S
C1714 C1715 1.400 . S
C1715 C1714 1.400 . S
C1715 C1716 1.398 . S
C1715 C1721 1.491 . S
C1716 H1707 0.950 . S
C1716 C1715 1.398 . S
C1716 C1717 1.391 . S
C1717 H1705 0.950 . S
C1717 C1713 1.393 . S
C1717 C1716 1.391 . S
C1718 H1708 0.950 . S
C1718 C1719 1.386 . S
C1718 C1720 1.391 . S
C1719 C1718 1.386 . S
C1719 C1723 1.393 . S
C1720 H1709 0.950 . S
C1720 C1718 1.391 . S
C1720 C1721 1.400 . S
C1721 C1715 1.491 . S
C1721 C1720 1.400 . S
C1721 C1722 1.398 . S
C1722 H1710 0.950 . S
C1722 C1721 1.398 . S
C1722 C1723 1.391 . S
C1723 H1711 0.950 . S
C1723 C1719 1.393 . S
C1723 C1722 1.391 . S
H1724 C1732 0.950 . S
H1725 C1737 0.950 . S
H1726 C1734 0.950 . S
H1727 C1736 0.950 1_655 S
H1728 C1738 0.950 . S
H1729 C1740 0.950 . S
H1730 C1742 0.950 . S
H1731 C1743 0.950 . S
C1732 H1724 0.950 . S
C1732 C1733 1.386 . S
C1732 C1734 1.391 . S
C1733 C1732 1.386 . S
C1733 C1737 1.393 . S
C1734 H1726 0.950 . S
C1734 C1732 1.391 . S
C1734 C1735 1.400 . S
C1735 C1734 1.400 . S
C1735 C1736 1.398 . S
C1735 C1741 1.491 1_455 S
C1736 H1727 0.950 1_455 S
C1736 C1735 1.398 . S
C1736 C1737 1.391 . S
C1737 H1725 0.950 . S
C1737 C1733 1.393 . S
C1737 C1736 1.391 . S
C1738 H1728 0.950 . S
C1738 C1739 1.386 . S
C1738 C1740 1.391 . S
C1739 C1738 1.386 . S
C1739 C1743 1.393 . S
C1740 H1729 0.950 . S
C1740 C1738 1.391 . S
C1740 C1741 1.400 . S
C1741 C1735 1.491 1_655 S
C1741 C1740 1.400 . S
C1741 C1742 1.398 . S
C1742 H1730 0.950 . S
C1742 C1741 1.398 . S
C1742 C1743 1.391 . S
C1743 H1731 0.950 . S
C1743 C1739 1.393 . S
C1743 C1742 1.391 . S
H1744 C1752 0.950 . S
H1745 C1757 0.950 . S
H1746 C1754 0.950 . S
H1747 C1756 0.950 . S
H1748 C1758 0.950 . S
H1749 C1760 0.950 . S
H1750 C1762 0.950 . S
H1751 C1763 0.950 . S
C1752 H1744 0.950 . S
C1752 C1753 1.386 . S
C1752 C1754 1.391 . S
C1753 C1752 1.386 . S
C1753 C1757 1.393 . S
C1754 H1746 0.950 . S
C1754 C1752 1.391 . S
C1754 C1755 1.400 . S
C1755 C1754 1.400 . S
C1755 C1756 1.398 . S
C1755 C1761 1.491 . S
C1756 H1747 0.950 . S
C1756 C1755 1.398 . S
C1756 C1757 1.391 . S
C1757 H1745 0.950 . S
C1757 C1753 1.393 . S
C1757 C1756 1.391 . S
C1758 H1748 0.950 . S
C1758 C1759 1.386 . S
C1758 C1760 1.391 . S
C1759 C1758 1.386 . S
C1759 C1763 1.393 . S
C1760 H1749 0.950 . S
C1760 C1758 1.391 . S
C1760 C1761 1.400 . S
C1761 C1755 1.491 . S
C1761 C1760 1.400 . S
C1761 C1762 1.398 . S
C1762 H1750 0.950 . S
C1762 C1761 1.398 . S
C1762 C1763 1.391 . S
C1763 H1751 0.950 . S
C1763 C1759 1.393 . S
C1763 C1762 1.391 . S
H1764 C1772 0.950 . S
H1765 C1777 0.950 . S
H1766 C1774 0.950 . S
H1767 C1776 0.950 . S
H1768 C1778 0.950 . S
H1769 C1780 0.950 . S
H1770 C1782 0.950 . S
H1771 C1783 0.950 . S
C1772 H1764 0.950 . S
C1772 C1773 1.386 . S
C1772 C1774 1.391 . S
C1773 C1772 1.386 . S
C1773 C1777 1.393 . S
C1774 H1766 0.950 . S
C1774 C1772 1.391 . S
C1774 C1775 1.400 . S
C1775 C1774 1.400 . S
C1775 C1776 1.398 . S
C1775 C1781 1.491 . S
C1776 H1767 0.950 . S
C1776 C1775 1.398 . S
C1776 C1777 1.391 . S
C1777 H1765 0.950 . S
C1777 C1773 1.393 . S
C1777 C1776 1.391 . S
C1778 H1768 0.950 . S
C1778 C1779 1.386 . S
C1778 C1780 1.391 . S
C1779 C1778 1.386 . S
C1779 C1783 1.393 . S
C1780 H1769 0.950 . S
C1780 C1778 1.391 . S
C1780 C1781 1.400 . S
C1781 C1775 1.491 . S
C1781 C1780 1.400 . S
C1781 C1782 1.398 . S
C1782 H1770 0.950 . S
C1782 C1781 1.398 . S
C1782 C1783 1.391 . S
C1783 H1771 0.950 . S
C1783 C1779 1.393 . S
C1783 C1782 1.391 . S
H1784 C1792 0.950 . S
H1785 C1797 0.950 . S
H1786 C1794 0.950 1_565 S
H1787 C1796 0.950 . S
H1788 C1798 0.950 . S
H1789 C1800 0.950 . S
H1790 C1802 0.950 . S
H1791 C1803 0.950 . S
C1792 H1784 0.950 . S
C1792 C1793 1.386 . S
C1792 C1794 1.391 . S
C1793 C1792 1.386 . S
C1793 C1797 1.393 . S
C1794 H1786 0.950 1_545 S
C1794 C1792 1.391 . S
C1794 C1795 1.400 . S
C1795 C1794 1.400 . S
C1795 C1796 1.398 . S
C1795 C1801 1.491 1_545 S
C1796 H1787 0.950 . S
C1796 C1795 1.398 . S
C1796 C1797 1.391 . S
C1797 H1785 0.950 . S
C1797 C1793 1.393 . S
C1797 C1796 1.391 . S
C1798 H1788 0.950 . S
C1798 C1799 1.386 . S
C1798 C1800 1.391 . S
C1799 C1798 1.386 . S
C1799 C1803 1.393 . S
C1800 H1789 0.950 . S
C1800 C1798 1.391 . S
C1800 C1801 1.400 . S
C1801 C1795 1.491 1_565 S
C1801 C1800 1.400 . S
C1801 C1802 1.398 . S
C1802 H1790 0.950 . S
C1802 C1801 1.398 . S
C1802 C1803 1.391 . S
C1803 H1791 0.950 . S
C1803 C1799 1.393 . S
C1803 C1802 1.391 . S
H1804 C1812 0.950 . S
H1805 C1817 0.950 . S
H1806 C1814 0.950 . S
H1807 C1816 0.950 . S
H1808 C1818 0.950 . S
H1809 C1820 0.950 . S
H1810 C1822 0.950 . S
H1811 C1823 0.950 . S
C1812 H1804 0.950 . S
C1812 C1813 1.386 . S
C1812 C1814 1.391 . S
C1813 C1812 1.386 . S
C1813 C1817 1.393 . S
C1814 H1806 0.950 . S
C1814 C1812 1.391 . S
C1814 C1815 1.400 . S
C1815 C1814 1.400 . S
C1815 C1816 1.398 . S
C1815 C1821 1.491 . S
C1816 H1807 0.950 . S
C1816 C1815 1.398 . S
C1816 C1817 1.391 . S
C1817 H1805 0.950 . S
C1817 C1813 1.393 . S
C1817 C1816 1.391 . S
C1818 H1808 0.950 . S
C1818 C1819 1.386 . S
C1818 C1820 1.391 . S
C1819 C1818 1.386 . S
C1819 C1823 1.393 . S
C1820 H1809 0.950 . S
C1820 C1818 1.391 . S
C1820 C1821 1.400 . S
C1821 C1815 1.491 . S
C1821 C1820 1.400 . S
C1821 C1822 1.398 . S
C1822 H1810 0.950 . S
C1822 C1821 1.398 . S
C1822 C1823 1.391 . S
C1823 H1811 0.950 . S
C1823 C1819 1.393 . S
C1823 C1822 1.391 . S
H1824 C1832 0.950 . S
H1825 C1837 0.950 . S
H1826 C1834 0.950 . S
H1827 C1836 0.950 . S
H1828 C1838 0.950 . S
H1829 C1840 0.950 1_545 S
H1830 C1842 0.950 . S
H1831 C1843 0.950 . S
C1832 H1824 0.950 . S
C1832 C1833 1.386 . S
C1832 C1834 1.391 1_545 S
C1833 C1832 1.386 . S
C1833 C1837 1.393 . S
C1834 H1826 0.950 . S
C1834 C1832 1.391 1_565 S
C1834 C1835 1.400 1_565 S
C1835 C1834 1.400 1_545 S
C1835 C1836 1.398 . S
C1835 C1841 1.491 1_545 S
C1836 H1827 0.950 . S
C1836 C1835 1.398 . S
C1836 C1837 1.391 . S
C1837 H1825 0.950 . S
C1837 C1833 1.393 . S
C1837 C1836 1.391 . S
C1838 H1828 0.950 . S
C1838 C1839 1.386 . S
C1838 C1840 1.391 . S
C1839 C1838 1.386 . S
C1839 C1843 1.393 . S
C1840 H1829 0.950 1_565 S
C1840 C1838 1.391 . S
C1840 C1841 1.400 . S
C1841 C1835 1.491 1_565 S
C1841 C1840 1.400 . S
C1841 C1842 1.398 . S
C1842 H1830 0.950 . S
C1842 C1841 1.398 . S
C1842 C1843 1.391 . S
C1843 H1831 0.950 . S
C1843 C1839 1.393 . S
C1843 C1842 1.391 . S
H1844 C1852 0.950 . S
H1845 C1857 0.950 . S
H1846 C1854 0.950 . S
H1847 C1856 0.950 . S
H1848 C1858 0.950 . S
H1849 C1860 0.950 . S
H1850 C1862 0.950 . S
H1851 C1863 0.950 . S
C1852 H1844 0.950 . S
C1852 C1853 1.386 . S
C1852 C1854 1.391 . S
C1853 C1852 1.386 . S
C1853 C1857 1.393 . S
C1854 H1846 0.950 . S
C1854 C1852 1.391 . S
C1854 C1855 1.400 . S
C1855 C1854 1.400 . S
C1855 C1856 1.398 . S
C1855 C1861 1.491 . S
C1856 H1847 0.950 . S
C1856 C1855 1.398 . S
C1856 C1857 1.391 . S
C1857 H1845 0.950 . S
C1857 C1853 1.393 . S
C1857 C1856 1.391 . S
C1858 H1848 0.950 . S
C1858 C1859 1.386 . S
C1858 C1860 1.391 . S
C1859 C1858 1.386 . S
C1859 C1863 1.393 . S
C1860 H1849 0.950 . S
C1860 C1858 1.391 . S
C1860 C1861 1.400 . S
C1861 C1855 1.491 . S
C1861 C1860 1.400 . S
C1861 C1862 1.398 . S
C1862 H1850 0.950 . S
C1862 C1861 1.398 . S
C1862 C1863 1.391 . S
C1863 H1851 0.950 . S
C1863 C1859 1.393 . S
C1863 C1862 1.391 . S
H1864 C1872 0.950 . S
H1865 C1877 0.950 . S
H1866 C1874 0.950 . S
H1867 C1876 0.950 . S
H1868 C1878 0.950 . S
H1869 C1880 0.950 . S
H1870 C1882 0.950 . S
H1871 C1883 0.950 . S
C1872 H1864 0.950 . S
C1872 C1873 1.386 . S
C1872 C1874 1.391 . S
C1873 C1872 1.386 . S
C1873 C1877 1.393 . S
C1874 H1866 0.950 . S
C1874 C1872 1.391 . S
C1874 C1875 1.400 . S
C1875 C1874 1.400 . S
C1875 C1876 1.398 . S
C1875 C1881 1.491 . S
C1876 H1867 0.950 . S
C1876 C1875 1.398 . S
C1876 C1877 1.391 . S
C1877 H1865 0.950 . S
C1877 C1873 1.393 . S
C1877 C1876 1.391 . S
C1878 H1868 0.950 . S
C1878 C1879 1.386 . S
C1878 C1880 1.391 . S
C1879 C1878 1.386 . S
C1879 C1883 1.393 . S
C1880 H1869 0.950 . S
C1880 C1878 1.391 . S
C1880 C1881 1.400 . S
C1881 C1875 1.491 . S
C1881 C1880 1.400 . S
C1881 C1882 1.398 . S
C1882 H1870 0.950 . S
C1882 C1881 1.398 . S
C1882 C1883 1.391 . S
C1883 H1871 0.950 . S
C1883 C1879 1.393 . S
C1883 C1882 1.391 . S
H1884 C1892 0.950 . S
H1885 C1897 0.950 . S
H1886 C1894 0.950 . S
H1887 C1896 0.950 . S
H1888 C1898 0.950 . S
H1889 C1900 0.950 . S
H1890 C1902 0.950 1_554 S
H1891 C1903 0.950 . S
C1892 H1884 0.950 . S
C1892 C1893 1.386 . S
C1892 C1894 1.391 . S
C1893 C1892 1.386 . S
C1893 C1897 1.393 . S
C1894 H1886 0.950 . S
C1894 C1892 1.391 . S
C1894 C1895 1.400 . S
C1895 C1894 1.400 . S
C1895 C1896 1.398 1_554 S
C1895 C1901 1.491 1_554 S
C1896 H1887 0.950 . S
C1896 C1895 1.398 1_556 S
C1896 C1897 1.391 1_556 S
C1897 H1885 0.950 . S
C1897 C1893 1.393 . S
C1897 C1896 1.391 1_554 S
C1898 H1888 0.950 . S
C1898 C1899 1.386 . S
C1898 C1900 1.391 . S
C1899 C1898 1.386 . S
C1899 C1903 1.393 . S
C1900 H1889 0.950 . S
C1900 C1898 1.391 . S
C1900 C1901 1.400 . S
C1901 C1895 1.491 1_556 S
C1901 C1900 1.400 . S
C1901 C1902 1.398 . S
C1902 H1890 0.950 1_556 S
C1902 C1901 1.398 . S
C1902 C1903 1.391 . S
C1903 H1891 0.950 . S
C1903 C1899 1.393 . S
C1903 C1902 1.391 . S
H1904 C1912 0.950 . S
H1905 C1917 0.950 . S
H1906 C1914 0.950 . S
H1907 C1916 0.950 . S
H1908 C1918 0.950 . S
H1909 C1920 0.950 1_554 S
H1910 C1922 0.950 . S
H1911 C1923 0.950 . S
C1912 H1904 0.950 . S
C1912 C1913 1.386 . S
C1912 C1914 1.391 1_554 S
C1913 C1912 1.386 . S
C1913 C1917 1.393 . S
C1914 H1906 0.950 . S
C1914 C1912 1.391 1_556 S
C1914 C1915 1.400 1_556 S
C1915 C1914 1.400 1_554 S
C1915 C1916 1.398 . S
C1915 C1921 1.491 1_554 S
C1916 H1907 0.950 . S
C1916 C1915 1.398 . S
C1916 C1917 1.391 . S
C1917 H1905 0.950 . S
C1917 C1913 1.393 . S
C1917 C1916 1.391 . S
C1918 H1908 0.950 . S
C1918 C1919 1.386 . S
C1918 C1920 1.391 . S
C1919 C1918 1.386 . S
C1919 C1923 1.393 . S
C1920 H1909 0.950 1_556 S
C1920 C1918 1.391 . S
C1920 C1921 1.400 . S
C1921 C1915 1.491 1_556 S
C1921 C1920 1.400 . S
C1921 C1922 1.398 . S
C1922 H1910 0.950 . S
C1922 C1921 1.398 . S
C1922 C1923 1.391 . S
C1923 H1911 0.950 . S
C1923 C1919 1.393 . S
C1923 C1922 1.391 . S
H1924 C1932 0.950 . S
H1925 C1937 0.950 . S
H1926 C1934 0.950 . S
H1927 C1936 0.950 . S
H1928 C1938 0.950 . S
H1929 C1940 0.950 . S
H1930 C1942 0.950 . S
H1931 C1943 0.950 . S
C1932 H1924 0.950 . S
C1932 C1933 1.386 . S
C1932 C1934 1.391 . S
C1933 C1932 1.386 . S
C1933 C1937 1.393 . S
C1934 H1926 0.950 . S
C1934 C1932 1.391 . S
C1934 C1935 1.400 . S
C1935 C1934 1.400 . S
C1935 C1936 1.398 . S
C1935 C1941 1.491 . S
C1936 H1927 0.950 . S
C1936 C1935 1.398 . S
C1936 C1937 1.391 . S
C1937 H1925 0.950 . S
C1937 C1933 1.393 . S
C1937 C1936 1.391 . S
C1938 H1928 0.950 . S
C1938 C1939 1.386 . S
C1938 C1940 1.391 . S
C1939 C1938 1.386 . S
C1939 C1943 1.393 . S
C1940 H1929 0.950 . S
C1940 C1938 1.391 . S
C1940 C1941 1.400 . S
C1941 C1935 1.491 . S
C1941 C1940 1.400 . S
C1941 C1942 1.398 . S
C1942 H1930 0.950 . S
C1942 C1941 1.398 . S
C1942 C1943 1.391 . S
C1943 H1931 0.950 . S
C1943 C1939 1.393 . S
C1943 C1942 1.391 . S
H1944 C1952 0.950 . S
H1945 C1957 0.950 . S
H1946 C1954 0.950 . S
H1947 C1956 0.950 . S
H1948 C1958 0.950 . S
H1949 C1960 0.950 . S
H1950 C1962 0.950 . S
H1951 C1963 0.950 . S
C1952 H1944 0.950 . S
C1952 C1953 1.386 . S
C1952 C1954 1.391 . S
C1953 C1952 1.386 . S
C1953 C1957 1.393 . S
C1954 H1946 0.950 . S
C1954 C1952 1.391 . S
C1954 C1955 1.400 . S
C1955 C1954 1.400 . S
C1955 C1956 1.398 . S
C1955 C1961 1.491 . S
C1956 H1947 0.950 . S
C1956 C1955 1.398 . S
C1956 C1957 1.391 . S
C1957 H1945 0.950 . S
C1957 C1953 1.393 . S
C1957 C1956 1.391 . S
C1958 H1948 0.950 . S
C1958 C1959 1.386 . S
C1958 C1960 1.391 . S
C1959 C1958 1.386 . S
C1959 C1963 1.393 . S
C1960 H1949 0.950 . S
C1960 C1958 1.391 . S
C1960 C1961 1.400 . S
C1961 C1955 1.491 . S
C1961 C1960 1.400 . S
C1961 C1962 1.398 . S
C1962 H1950 0.950 . S
C1962 C1961 1.398 . S
C1962 C1963 1.391 . S
C1963 H1951 0.950 . S
C1963 C1959 1.393 . S
C1963 C1962 1.391 . S
H1964 C1972 0.950 . S
H1965 C1977 0.950 . S
H1966 C1974 0.950 . S
H1967 C1976 0.950 . S
H1968 C1978 0.950 . S
H1969 C1980 0.950 . S
H1970 C1982 0.950 . S
H1971 C1983 0.950 . S
C1972 H1964 0.950 . S
C1972 C1973 1.386 . S
C1972 C1974 1.391 . S
C1973 C1972 1.386 . S
C1973 C1977 1.393 . S
C1974 H1966 0.950 . S
C1974 C1972 1.391 . S
C1974 C1975 1.400 . S
C1975 C1974 1.400 . S
C1975 C1976 1.398 . S
C1975 C1981 1.491 . S
C1976 H1967 0.950 . S
C1976 C1975 1.398 . S
C1976 C1977 1.391 . S
C1977 H1965 0.950 . S
C1977 C1973 1.393 . S
C1977 C1976 1.391 . S
C1978 H1968 0.950 . S
C1978 C1979 1.386 . S
C1978 C1980 1.391 . S
C1979 C1978 1.386 . S
C1979 C1983 1.393 . S
C1980 H1969 0.950 . S
C1980 C1978 1.391 . S
C1980 C1981 1.400 . S
C1981 C1975 1.491 . S
C1981 C1980 1.400 . S
C1981 C1982 1.398 . S
C1982 H1970 0.950 . S
C1982 C1981 1.398 . S
C1982 C1983 1.391 . S
C1983 H1971 0.950 . S
C1983 C1979 1.393 . S
C1983 C1982 1.391 . S
H1984 C1992 0.950 . S
H1985 C1997 0.950 . S
H1986 C1994 0.950 . S
H1987 C1996 0.950 . S
H1988 C1998 0.950 . S
H1989 C2000 0.950 . S
H1990 C2002 0.950 . S
H1991 C2003 0.950 . S
C1992 H1984 0.950 . S
C1992 C1993 1.386 . S
C1992 C1994 1.391 . S
C1993 C1992 1.386 . S
C1993 C1997 1.393 . S
C1994 H1986 0.950 . S
C1994 C1992 1.391 . S
C1994 C1995 1.400 . S
C1995 C1994 1.400 . S
C1995 C1996 1.398 . S
C1995 C2001 1.491 . S
C1996 H1987 0.950 . S
C1996 C1995 1.398 . S
C1996 C1997 1.391 . S
C1997 H1985 0.950 . S
C1997 C1993 1.393 . S
C1997 C1996 1.391 . S
C1998 H1988 0.950 . S
C1998 C1999 1.386 . S
C1998 C2000 1.391 . S
C1999 C1998 1.386 . S
C1999 C2003 1.393 . S
C2000 H1989 0.950 . S
C2000 C1998 1.391 . S
C2000 C2001 1.400 . S
C2001 C1995 1.491 . S
C2001 C2000 1.400 . S
C2001 C2002 1.398 . S
C2002 H1990 0.950 . S
C2002 C2001 1.398 . S
C2002 C2003 1.391 . S
C2003 H1991 0.950 . S
C2003 C1999 1.393 . S
C2003 C2002 1.391 . S
H2004 C2012 0.950 . S
H2005 C2017 0.950 . S
H2006 C2014 0.950 . S
H2007 C2016 0.950 . S
H2008 C2018 0.950 . S
H2009 C2020 0.950 . S
H2010 C2022 0.950 . S
H2011 C2023 0.950 . S
C2012 H2004 0.950 . S
C2012 C2013 1.386 . S
C2012 C2014 1.391 . S
C2013 C2012 1.386 . S
C2013 C2017 1.393 . S
C2014 H2006 0.950 . S
C2014 C2012 1.391 . S
C2014 C2015 1.400 . S
C2015 C2014 1.400 . S
C2015 C2016 1.398 . S
C2015 C2021 1.491 . S
C2016 H2007 0.950 . S
C2016 C2015 1.398 . S
C2016 C2017 1.391 . S
C2017 H2005 0.950 . S
C2017 C2013 1.393 . S
C2017 C2016 1.391 . S
C2018 H2008 0.950 . S
C2018 C2019 1.386 . S
C2018 C2020 1.391 . S
C2019 C2018 1.386 . S
C2019 C2023 1.393 . S
C2020 H2009 0.950 . S
C2020 C2018 1.391 . S
C2020 C2021 1.400 . S
C2021 C2015 1.491 . S
C2021 C2020 1.400 . S
C2021 C2022 1.398 . S
C2022 H2010 0.950 . S
C2022 C2021 1.398 . S
C2022 C2023 1.391 . S
C2023 H2011 0.950 . S
C2023 C2019 1.393 . S
C2023 C2022 1.391 . S
H2024 C2032 0.950 . S
H2025 C2037 0.950 . S
H2026 C2034 0.950 . S
H2027 C2036 0.950 . S
H2028 C2038 0.950 . S
H2029 C2040 0.950 . S
H2030 C2042 0.950 . S
H2031 C2043 0.950 . S
C2032 H2024 0.950 . S
C2032 C2033 1.386 . S
C2032 C2034 1.391 . S
C2033 C2032 1.386 . S
C2033 C2037 1.393 . S
C2034 H2026 0.950 . S
C2034 C2032 1.391 . S
C2034 C2035 1.400 . S
C2035 C2034 1.400 . S
C2035 C2036 1.398 . S
C2035 C2041 1.491 . S
C2036 H2027 0.950 . S
C2036 C2035 1.398 . S
C2036 C2037 1.391 . S
C2037 H2025 0.950 . S
C2037 C2033 1.393 . S
C2037 C2036 1.391 . S
C2038 H2028 0.950 . S
C2038 C2039 1.386 . S
C2038 C2040 1.391 . S
C2039 C2038 1.386 . S
C2039 C2043 1.393 . S
C2040 H2029 0.950 . S
C2040 C2038 1.391 . S
C2040 C2041 1.400 . S
C2041 C2035 1.491 . S
C2041 C2040 1.400 . S
C2041 C2042 1.398 . S
C2042 H2030 0.950 . S
C2042 C2041 1.398 . S
C2042 C2043 1.391 . S
C2043 H2031 0.950 . S
C2043 C2039 1.393 . S
C2043 C2042 1.391 . S
H2044 C2052 0.950 . S
H2045 C2057 0.950 . S
H2046 C2054 0.950 . S
H2047 C2056 0.950 . S
H2048 C2058 0.950 . S
H2049 C2060 0.950 . S
H2050 C2062 0.950 . S
H2051 C2063 0.950 . S
C2052 H2044 0.950 . S
C2052 C2053 1.386 . S
C2052 C2054 1.391 . S
C2053 C2052 1.386 . S
C2053 C2057 1.393 . S
C2054 H2046 0.950 . S
C2054 C2052 1.391 . S
C2054 C2055 1.400 . S
C2055 C2054 1.400 . S
C2055 C2056 1.398 . S
C2055 C2061 1.491 . S
C2056 H2047 0.950 . S
C2056 C2055 1.398 . S
C2056 C2057 1.391 . S
C2057 H2045 0.950 . S
C2057 C2053 1.393 . S
C2057 C2056 1.391 . S
C2058 H2048 0.950 . S
C2058 C2059 1.386 . S
C2058 C2060 1.391 . S
C2059 C2058 1.386 . S
C2059 C2063 1.393 . S
C2060 H2049 0.950 . S
C2060 C2058 1.391 . S
C2060 C2061 1.400 . S
C2061 C2055 1.491 . S
C2061 C2060 1.400 . S
C2061 C2062 1.398 . S
C2062 H2050 0.950 . S
C2062 C2061 1.398 . S
C2062 C2063 1.391 . S
C2063 H2051 0.950 . S
C2063 C2059 1.393 . S
C2063 C2062 1.391 . S
H2064 C2072 0.950 . S
H2065 C2077 0.950 . S
H2066 C2074 0.950 . S
H2067 C2076 0.950 . S
H2068 C2078 0.950 . S
H2069 C2080 0.950 . S
H2070 C2082 0.950 . S
H2071 C2083 0.950 . S
C2072 H2064 0.950 . S
C2072 C2073 1.386 1_455 S
C2072 C2074 1.391 . S
C2073 C2072 1.386 1_655 S
C2073 C2077 1.393 . S
C2074 H2066 0.950 . S
C2074 C2072 1.391 . S
C2074 C2075 1.400 . S
C2075 C2074 1.400 . S
C2075 C2076 1.398 1_455 S
C2075 C2081 1.491 . S
C2076 H2067 0.950 . S
C2076 C2075 1.398 1_655 S
C2076 C2077 1.391 . S
C2077 H2065 0.950 . S
C2077 C2073 1.393 . S
C2077 C2076 1.391 . S
C2078 H2068 0.950 . S
C2078 C2079 1.386 . S
C2078 C2080 1.391 . S
C2079 C2078 1.386 . S
C2079 C2083 1.393 . S
C2080 H2069 0.950 . S
C2080 C2078 1.391 . S
C2080 C2081 1.400 . S
C2081 C2075 1.491 . S
C2081 C2080 1.400 . S
C2081 C2082 1.398 . S
C2082 H2070 0.950 . S
C2082 C2081 1.398 . S
C2082 C2083 1.391 . S
C2083 H2071 0.950 . S
C2083 C2079 1.393 . S
C2083 C2082 1.391 . S
H2084 C2092 0.950 . S
H2085 C2097 0.950 . S
H2086 C2094 0.950 . S
H2087 C2096 0.950 . S
H2088 C2098 0.950 . S
H2089 C2100 0.950 . S
H2090 C2102 0.950 . S
H2091 C2103 0.950 . S
C2092 H2084 0.950 . S
C2092 C2093 1.386 . S
C2092 C2094 1.391 . S
C2093 C2092 1.386 . S
C2093 C2097 1.393 . S
C2094 H2086 0.950 . S
C2094 C2092 1.391 . S
C2094 C2095 1.400 . S
C2095 C2094 1.400 . S
C2095 C2096 1.398 . S
C2095 C2101 1.491 . S
C2096 H2087 0.950 . S
C2096 C2095 1.398 . S
C2096 C2097 1.391 . S
C2097 H2085 0.950 . S
C2097 C2093 1.393 . S
C2097 C2096 1.391 . S
C2098 H2088 0.950 . S
C2098 C2099 1.386 . S
C2098 C2100 1.391 . S
C2099 C2098 1.386 . S
C2099 C2103 1.393 . S
C2100 H2089 0.950 . S
C2100 C2098 1.391 . S
C2100 C2101 1.400 . S
C2101 C2095 1.491 . S
C2101 C2100 1.400 . S
C2101 C2102 1.398 . S
C2102 H2090 0.950 . S
C2102 C2101 1.398 . S
C2102 C2103 1.391 . S
C2103 H2091 0.950 . S
C2103 C2099 1.393 . S
C2103 C2102 1.391 . S
H2104 C2112 0.950 . S
H2105 C2117 0.950 . S
H2106 C2114 0.950 . S
H2107 C2116 0.950 . S
H2108 C2118 0.950 . S
H2109 C2120 0.950 . S
H2110 C2122 0.950 . S
H2111 C2123 0.950 . S
C2112 H2104 0.950 . S
C2112 C2113 1.386 . S
C2112 C2114 1.391 . S
C2113 C2112 1.386 . S
C2113 C2117 1.393 . S
C2114 H2106 0.950 . S
C2114 C2112 1.391 . S
C2114 C2115 1.400 . S
C2115 C2114 1.400 . S
C2115 C2116 1.398 . S
C2115 C2121 1.491 . S
C2116 H2107 0.950 . S
C2116 C2115 1.398 . S
C2116 C2117 1.391 . S
C2117 H2105 0.950 . S
C2117 C2113 1.393 . S
C2117 C2116 1.391 . S
C2118 H2108 0.950 . S
C2118 C2119 1.386 . S
C2118 C2120 1.391 . S
C2119 C2118 1.386 . S
C2119 C2123 1.393 . S
C2120 H2109 0.950 . S
C2120 C2118 1.391 . S
C2120 C2121 1.400 . S
C2121 C2115 1.491 . S
C2121 C2120 1.400 . S
C2121 C2122 1.398 . S
C2122 H2110 0.950 . S
C2122 C2121 1.398 . S
C2122 C2123 1.391 . S
C2123 H2111 0.950 . S
C2123 C2119 1.393 . S
C2123 C2122 1.391 . S
H2124 C2132 0.950 . S
H2125 C2137 0.950 . S
H2126 C2134 0.950 . S
H2127 C2136 0.950 . S
H2128 C2138 0.950 . S
H2129 C2140 0.950 . S
H2130 C2142 0.950 . S
H2131 C2143 0.950 . S
C2132 H2124 0.950 . S
C2132 C2133 1.386 . S
C2132 C2134 1.391 . S
C2133 C2132 1.386 . S
C2133 C2137 1.393 . S
C2134 H2126 0.950 . S
C2134 C2132 1.391 . S
C2134 C2135 1.400 . S
C2135 C2134 1.400 . S
C2135 C2136 1.398 . S
C2135 C2141 1.491 . S
C2136 H2127 0.950 . S
C2136 C2135 1.398 . S
C2136 C2137 1.391 . S
C2137 H2125 0.950 . S
C2137 C2133 1.393 . S
C2137 C2136 1.391 . S
C2138 H2128 0.950 . S
C2138 C2139 1.386 . S
C2138 C2140 1.391 1_556 S
C2139 C2138 1.386 . S
C2139 C2143 1.393 . S
C2140 H2129 0.950 . S
C2140 C2138 1.391 1_554 S
C2140 C2141 1.400 . S
C2141 C2135 1.491 . S
C2141 C2140 1.400 . S
C2141 C2142 1.398 . S
C2142 H2130 0.950 . S
C2142 C2141 1.398 . S
C2142 C2143 1.391 1_554 S
C2143 H2131 0.950 . S
C2143 C2139 1.393 . S
C2143 C2142 1.391 1_556 S
H2144 C2152 0.950 . S
H2145 C2157 0.950 . S
H2146 C2154 0.950 . S
H2147 C2156 0.950 . S
H2148 C2158 0.950 . S
H2149 C2160 0.950 . S
H2150 C2162 0.950 . S
H2151 C2163 0.950 . S
C2152 H2144 0.950 . S
C2152 C2153 1.386 . S
C2152 C2154 1.391 . S
C2153 C2152 1.386 . S
C2153 C2157 1.393 1_655 S
C2154 H2146 0.950 . S
C2154 C2152 1.391 . S
C2154 C2155 1.400 1_655 S
C2155 C2154 1.400 1_455 S
C2155 C2156 1.398 . S
C2155 C2161 1.491 . S
C2156 H2147 0.950 . S
C2156 C2155 1.398 . S
C2156 C2157 1.391 . S
C2157 H2145 0.950 . S
C2157 C2153 1.393 1_455 S
C2157 C2156 1.391 . S
C2158 H2148 0.950 . S
C2158 C2159 1.386 . S
C2158 C2160 1.391 . S
C2159 C2158 1.386 . S
C2159 C2163 1.393 . S
C2160 H2149 0.950 . S
C2160 C2158 1.391 . S
C2160 C2161 1.400 . S
C2161 C2155 1.491 . S
C2161 C2160 1.400 . S
C2161 C2162 1.398 . S
C2162 H2150 0.950 . S
C2162 C2161 1.398 . S
C2162 C2163 1.391 . S
C2163 H2151 0.950 . S
C2163 C2159 1.393 . S
C2163 C2162 1.391 . S
H2164 C2172 0.950 . S
H2165 C2177 0.950 . S
H2166 C2174 0.950 . S
H2167 C2176 0.950 . S
H2168 C2178 0.950 . S
H2169 C2180 0.950 . S
H2170 C2182 0.950 . S
H2171 C2183 0.950 . S
C2172 H2164 0.950 . S
C2172 C2173 1.386 . S
C2172 C2174 1.391 . S
C2173 C2172 1.386 . S
C2173 C2177 1.393 . S
C2174 H2166 0.950 . S
C2174 C2172 1.391 . S
C2174 C2175 1.400 . S
C2175 C2174 1.400 . S
C2175 C2176 1.398 . S
C2175 C2181 1.491 . S
C2176 H2167 0.950 . S
C2176 C2175 1.398 . S
C2176 C2177 1.391 . S
C2177 H2165 0.950 . S
C2177 C2173 1.393 . S
C2177 C2176 1.391 . S
C2178 H2168 0.950 . S
C2178 C2179 1.386 . S
C2178 C2180 1.391 . S
C2179 C2178 1.386 . S
C2179 C2183 1.393 . S
C2180 H2169 0.950 . S
C2180 C2178 1.391 . S
C2180 C2181 1.400 . S
C2181 C2175 1.491 . S
C2181 C2180 1.400 . S
C2181 C2182 1.398 . S
C2182 H2170 0.950 . S
C2182 C2181 1.398 . S
C2182 C2183 1.391 . S
C2183 H2171 0.950 . S
C2183 C2179 1.393 . S
C2183 C2182 1.391 . S
H2184 C2192 0.950 . S
H2185 C2197 0.950 . S
H2186 C2194 0.950 . S
H2187 C2196 0.950 . S
H2188 C2198 0.950 . S
H2189 C2200 0.950 . S
H2190 C2202 0.950 . S
H2191 C2203 0.950 . S
C2192 H2184 0.950 . S
C2192 C2193 1.386 . S
C2192 C2194 1.391 . S
C2193 C2192 1.386 . S
C2193 C2197 1.393 . S
C2194 H2186 0.950 . S
C2194 C2192 1.391 . S
C2194 C2195 1.400 . S
C2195 C2194 1.400 . S
C2195 C2196 1.398 . S
C2195 C2201 1.491 . S
C2196 H2187 0.950 . S
C2196 C2195 1.398 . S
C2196 C2197 1.391 . S
C2197 H2185 0.950 . S
C2197 C2193 1.393 . S
C2197 C2196 1.391 . S
C2198 H2188 0.950 . S
C2198 C2199 1.386 . S
C2198 C2200 1.391 . S
C2199 C2198 1.386 . S
C2199 C2203 1.393 . S
C2200 H2189 0.950 . S
C2200 C2198 1.391 . S
C2200 C2201 1.400 . S
C2201 C2195 1.491 . S
C2201 C2200 1.400 . S
C2201 C2202 1.398 . S
C2202 H2190 0.950 . S
C2202 C2201 1.398 . S
C2202 C2203 1.391 . S
C2203 H2191 0.950 . S
C2203 C2199 1.393 . S
C2203 C2202 1.391 . S
H2204 C2212 0.950 . S
H2205 C2217 0.950 . S
H2206 C2214 0.950 . S
H2207 C2216 0.950 . S
H2208 C2218 0.950 . S
H2209 C2220 0.950 . S
H2210 C2222 0.950 . S
H2211 C2223 0.950 . S
C2212 H2204 0.950 . S
C2212 C2213 1.386 . S
C2212 C2214 1.391 . S
C2213 C2212 1.386 . S
C2213 C2217 1.393 . S
C2214 H2206 0.950 . S
C2214 C2212 1.391 . S
C2214 C2215 1.400 . S
C2215 C2214 1.400 . S
C2215 C2216 1.398 . S
C2215 C2221 1.491 . S
C2216 H2207 0.950 . S
C2216 C2215 1.398 . S
C2216 C2217 1.391 . S
C2217 H2205 0.950 . S
C2217 C2213 1.393 . S
C2217 C2216 1.391 . S
C2218 H2208 0.950 . S
C2218 C2219 1.386 . S
C2218 C2220 1.391 . S
C2219 C2218 1.386 . S
C2219 C2223 1.393 . S
C2220 H2209 0.950 . S
C2220 C2218 1.391 . S
C2220 C2221 1.400 . S
C2221 C2215 1.491 . S
C2221 C2220 1.400 . S
C2221 C2222 1.398 . S
C2222 H2210 0.950 . S
C2222 C2221 1.398 . S
C2222 C2223 1.391 . S
C2223 H2211 0.950 . S
C2223 C2219 1.393 . S
C2223 C2222 1.391 . S
H2224 C2232 0.950 . S
H2225 C2237 0.949 1_565 S
H2226 C2234 0.950 . S
H2227 C2236 0.950 . S
H2228 C2238 0.950 . S
H2229 C2240 0.950 . S
H2230 C2242 0.950 . S
H2231 C2243 0.950 . S
C2232 H2224 0.950 . S
C2232 C2233 1.386 . S
C2232 C2234 1.391 1_565 S
C2233 C2232 1.386 . S
C2233 C2237 1.379 1_565 S
C2234 H2226 0.950 . S
C2234 C2232 1.391 1_545 S
C2234 C2235 1.400 . S
C2235 C2234 1.400 . S
C2235 C2236 1.398 . S
C2235 C2241 1.491 . S
C2236 H2227 0.950 . S
C2236 C2235 1.398 . S
C2236 C2237 1.406 . S
C2237 H2225 0.949 1_545 S
C2237 C2233 1.379 1_545 S
C2237 C2236 1.406 . S
C2238 H2228 0.950 . S
C2238 C2239 1.386 . S
C2238 C2240 1.391 . S
C2239 C2238 1.386 . S
C2239 C2243 1.393 . S
C2240 H2229 0.950 . S
C2240 C2238 1.391 . S
C2240 C2241 1.400 . S
C2241 C2235 1.491 . S
C2241 C2240 1.400 . S
C2241 C2242 1.398 . S
C2242 H2230 0.950 . S
C2242 C2241 1.398 . S
C2242 C2243 1.391 . S
C2243 H2231 0.950 . S
C2243 C2239 1.393 . S
C2243 C2242 1.391 . S
H2244 C2252 0.950 . S
H2245 C2257 0.950 . S
H2246 C2254 0.950 . S
H2247 C2256 0.950 . S
H2248 C2258 0.950 . S
H2249 C2260 0.950 . S
H2250 C2262 0.950 . S
H2251 C2263 0.950 . S
C2252 H2244 0.950 . S
C2252 C2253 1.386 . S
C2252 C2254 1.391 . S
C2253 C2252 1.386 . S
C2253 C2257 1.393 1_565 S
C2254 H2246 0.950 . S
C2254 C2252 1.391 . S
C2254 C2255 1.400 1_565 S
C2255 C2254 1.400 1_545 S
C2255 C2256 1.398 . S
C2255 C2261 1.491 . S
C2256 H2247 0.950 . S
C2256 C2255 1.398 . S
C2256 C2257 1.391 . S
C2257 H2245 0.950 . S
C2257 C2253 1.393 1_545 S
C2257 C2256 1.391 . S
C2258 H2248 0.950 . S
C2258 C2259 1.386 . S
C2258 C2260 1.391 . S
C2259 C2258 1.386 . S
C2259 C2263 1.393 . S
C2260 H2249 0.950 . S
C2260 C2258 1.391 . S
C2260 C2261 1.400 . S
C2261 C2255 1.491 . S
C2261 C2260 1.400 . S
C2261 C2262 1.398 . S
C2262 H2250 0.950 . S
C2262 C2261 1.398 . S
C2262 C2263 1.391 . S
C2263 H2251 0.950 . S
C2263 C2259 1.393 . S
C2263 C2262 1.391 . S
H2264 C2272 0.950 . S
H2265 C2277 0.950 . S
H2266 C2274 0.950 . S
H2267 C2276 0.950 . S
H2268 C2278 0.950 . S
H2269 C2280 0.950 . S
H2270 C2282 0.950 . S
H2271 C2283 0.950 . S
C2272 H2264 0.950 . S
C2272 C2273 1.386 . S
C2272 C2274 1.391 . S
C2273 C2272 1.386 . S
C2273 C2277 1.393 . S
C2274 H2266 0.950 . S
C2274 C2272 1.391 . S
C2274 C2275 1.400 . S
C2275 C2274 1.400 . S
C2275 C2276 1.398 . S
C2275 C2281 1.491 . S
C2276 H2267 0.950 . S
C2276 C2275 1.398 . S
C2276 C2277 1.391 . S
C2277 H2265 0.950 . S
C2277 C2273 1.393 . S
C2277 C2276 1.391 . S
C2278 H2268 0.950 . S
C2278 C2279 1.386 . S
C2278 C2280 1.391 . S
C2279 C2278 1.386 . S
C2279 C2283 1.393 . S
C2280 H2269 0.950 . S
C2280 C2278 1.391 . S
C2280 C2281 1.400 . S
C2281 C2275 1.491 . S
C2281 C2280 1.400 . S
C2281 C2282 1.398 . S
C2282 H2270 0.950 . S
C2282 C2281 1.398 . S
C2282 C2283 1.391 . S
C2283 H2271 0.950 . S
C2283 C2279 1.393 . S
C2283 C2282 1.391 . S
H2284 C2292 0.950 . S
H2285 C2297 0.950 . S
H2286 C2294 0.950 . S
H2287 C2296 0.950 . S
H2288 C2298 0.950 . S
H2289 C2300 0.950 . S
H2290 C2302 0.950 . S
H2291 C2303 0.950 . S
C2292 H2284 0.950 . S
C2292 C2293 1.386 . S
C2292 C2294 1.391 . S
C2293 C2292 1.386 . S
C2293 C2297 1.393 . S
C2294 H2286 0.950 . S
C2294 C2292 1.391 . S
C2294 C2295 1.400 . S
C2295 C2294 1.400 . S
C2295 C2296 1.398 . S
C2295 C2301 1.491 . S
C2296 H2287 0.950 . S
C2296 C2295 1.398 . S
C2296 C2297 1.391 . S
C2297 H2285 0.950 . S
C2297 C2293 1.393 . S
C2297 C2296 1.391 . S
C2298 H2288 0.950 . S
C2298 C2299 1.386 . S
C2298 C2300 1.391 . S
C2299 C2298 1.386 . S
C2299 C2303 1.393 . S
C2300 H2289 0.950 . S
C2300 C2298 1.391 . S
C2300 C2301 1.400 . S
C2301 C2295 1.491 . S
C2301 C2300 1.400 . S
C2301 C2302 1.398 . S
C2302 H2290 0.950 . S
C2302 C2301 1.398 . S
C2302 C2303 1.391 . S
C2303 H2291 0.950 . S
C2303 C2299 1.393 . S
C2303 C2302 1.391 . S
H2304 C2312 0.950 . S
H2305 C2317 0.950 . S
H2306 C2314 0.950 . S
H2307 C2316 0.950 . S
H2308 C2318 0.950 . S
H2309 C2320 0.950 . S
H2310 C2322 0.950 . S
H2311 C2323 0.950 . S
C2312 H2304 0.950 . S
C2312 C2313 1.386 . S
C2312 C2314 1.391 . S
C2313 C2312 1.386 . S
C2313 C2317 1.393 . S
C2314 H2306 0.950 . S
C2314 C2312 1.391 . S
C2314 C2315 1.400 . S
C2315 C2314 1.400 . S
C2315 C2316 1.398 . S
C2315 C2321 1.491 . S
C2316 H2307 0.950 . S
C2316 C2315 1.398 . S
C2316 C2317 1.391 . S
C2317 H2305 0.950 . S
C2317 C2313 1.393 . S
C2317 C2316 1.391 . S
C2318 H2308 0.950 . S
C2318 C2319 1.386 1_554 S
C2318 C2320 1.391 . S
C2319 C2318 1.386 1_556 S
C2319 C2323 1.393 . S
C2320 H2309 0.950 . S
C2320 C2318 1.391 . S
C2320 C2321 1.400 . S
C2321 C2315 1.491 . S
C2321 C2320 1.400 . S
C2321 C2322 1.398 1_554 S
C2322 H2310 0.950 . S
C2322 C2321 1.398 1_556 S
C2322 C2323 1.391 . S
C2323 H2311 0.950 . S
C2323 C2319 1.393 . S
C2323 C2322 1.391 . S
H2324 C2332 0.950 . S
H2325 C2337 0.950 . S
H2326 C2334 0.950 . S
H2327 C2336 0.950 . S
H2328 C2338 0.950 . S
H2329 C2340 0.950 . S
H2330 C2342 0.950 . S
H2331 C2343 0.950 . S
C2332 H2324 0.950 . S
C2332 C2333 1.386 . S
C2332 C2334 1.391 . S
C2333 C2332 1.386 . S
C2333 C2337 1.393 . S
C2334 H2326 0.950 . S
C2334 C2332 1.391 . S
C2334 C2335 1.400 . S
C2335 C2334 1.400 . S
C2335 C2336 1.398 . S
C2335 C2341 1.491 . S
C2336 H2327 0.950 . S
C2336 C2335 1.398 . S
C2336 C2337 1.391 . S
C2337 H2325 0.950 . S
C2337 C2333 1.393 . S
C2337 C2336 1.391 . S
C2338 H2328 0.950 . S
C2338 C2339 1.386 . S
C2338 C2340 1.391 . S
C2339 C2338 1.386 . S
C2339 C2343 1.393 . S
C2340 H2329 0.950 . S
C2340 C2338 1.391 . S
C2340 C2341 1.400 . S
C2341 C2335 1.491 . S
C2341 C2340 1.400 . S
C2341 C2342 1.398 . S
C2342 H2330 0.950 . S
C2342 C2341 1.398 . S
C2342 C2343 1.391 . S
C2343 H2331 0.950 . S
C2343 C2339 1.393 . S
C2343 C2342 1.391 . S
H2344 C2352 0.950 . S
H2345 C2357 0.950 . S
H2346 C2354 0.950 . S
H2347 C2356 0.950 . S
H2348 C2358 0.950 . S
H2349 C2360 0.950 . S
H2350 C2362 0.950 . S
H2351 C2363 0.950 . S
C2352 H2344 0.950 . S
C2352 C2353 1.386 . S
C2352 C2354 1.391 . S
C2353 C2352 1.386 . S
C2353 C2357 1.393 . S
C2354 H2346 0.950 . S
C2354 C2352 1.391 . S
C2354 C2355 1.400 . S
C2355 C2354 1.400 . S
C2355 C2356 1.398 . S
C2355 C2361 1.491 . S
C2356 H2347 0.950 . S
C2356 C2355 1.398 . S
C2356 C2357 1.391 . S
C2357 H2345 0.950 . S
C2357 C2353 1.393 . S
C2357 C2356 1.391 . S
C2358 H2348 0.950 . S
C2358 C2359 1.386 . S
C2358 C2360 1.391 . S
C2359 C2358 1.386 . S
C2359 C2363 1.393 . S
C2360 H2349 0.950 . S
C2360 C2358 1.391 . S
C2360 C2361 1.400 . S
C2361 C2355 1.491 . S
C2361 C2360 1.400 . S
C2361 C2362 1.398 . S
C2362 H2350 0.950 . S
C2362 C2361 1.398 . S
C2362 C2363 1.391 . S
C2363 H2351 0.950 . S
C2363 C2359 1.393 . S
C2363 C2362 1.391 . S
H2364 C2372 0.950 . S
H2365 C2377 0.950 . S
H2366 C2374 0.950 . S
H2367 C2376 0.950 . S
H2368 C2378 0.950 . S
H2369 C2380 0.950 . S
H2370 C2382 0.950 . S
H2371 C2383 0.950 . S
C2372 H2364 0.950 . S
C2372 C2373 1.386 . S
C2372 C2374 1.391 . S
C2373 C2372 1.386 . S
C2373 C2377 1.393 . S
C2374 H2366 0.950 . S
C2374 C2372 1.391 . S
C2374 C2375 1.400 . S
C2375 C2374 1.400 . S
C2375 C2376 1.398 . S
C2375 C2381 1.491 . S
C2376 H2367 0.950 . S
C2376 C2375 1.398 . S
C2376 C2377 1.391 . S
C2377 H2365 0.950 . S
C2377 C2373 1.393 . S
C2377 C2376 1.391 . S
C2378 H2368 0.950 . S
C2378 C2379 1.386 . S
C2378 C2380 1.391 . S
C2379 C2378 1.386 . S
C2379 C2383 1.393 . S
C2380 H2369 0.950 . S
C2380 C2378 1.391 . S
C2380 C2381 1.400 . S
C2381 C2375 1.491 . S
C2381 C2380 1.400 . S
C2381 C2382 1.398 . S
C2382 H2370 0.950 . S
C2382 C2381 1.398 . S
C2382 C2383 1.391 . S
C2383 H2371 0.950 . S
C2383 C2379 1.393 . S
C2383 C2382 1.391 . S
H2384 C2392 0.950 . S
H2385 C2397 0.950 . S
H2386 C2394 0.950 . S
H2387 C2396 0.950 . S
H2388 C2398 0.950 . S
H2389 C2400 0.950 . S
H2390 C2402 0.950 . S
H2391 C2403 0.950 . S
C2392 H2384 0.950 . S
C2392 C2393 1.386 . S
C2392 C2394 1.391 . S
C2393 C2392 1.386 . S
C2393 C2397 1.393 . S
C2394 H2386 0.950 . S
C2394 C2392 1.391 . S
C2394 C2395 1.400 . S
C2395 C2394 1.400 . S
C2395 C2396 1.398 . S
C2395 C2401 1.491 . S
C2396 H2387 0.950 . S
C2396 C2395 1.398 . S
C2396 C2397 1.391 . S
C2397 H2385 0.950 . S
C2397 C2393 1.393 . S
C2397 C2396 1.391 . S
C2398 H2388 0.950 . S
C2398 C2399 1.386 . S
C2398 C2400 1.391 . S
C2399 C2398 1.386 . S
C2399 C2403 1.393 . S
C2400 H2389 0.950 . S
C2400 C2398 1.391 . S
C2400 C2401 1.400 . S
C2401 C2395 1.491 . S
C2401 C2400 1.400 . S
C2401 C2402 1.398 . S
C2402 H2390 0.950 . S
C2402 C2401 1.398 . S
C2402 C2403 1.391 . S
C2403 H2391 0.950 . S
C2403 C2399 1.393 . S
C2403 C2402 1.391 . S
H2404 C2412 0.950 . S
H2405 C2417 0.950 . S
H2406 C2414 0.950 . S
H2407 C2416 0.950 . S
H2408 C2418 0.950 . S
H2409 C2420 0.950 . S
H2410 C2422 0.950 . S
H2411 C2423 0.950 . S
C2412 H2404 0.950 . S
C2412 C2413 1.386 . S
C2412 C2414 1.391 . S
C2413 C2412 1.386 . S
C2413 C2417 1.393 . S
C2414 H2406 0.950 . S
C2414 C2412 1.391 . S
C2414 C2415 1.400 . S
C2415 C2414 1.400 . S
C2415 C2416 1.398 . S
C2415 C2421 1.491 . S
C2416 H2407 0.950 . S
C2416 C2415 1.398 . S
C2416 C2417 1.391 . S
C2417 H2405 0.950 . S
C2417 C2413 1.393 . S
C2417 C2416 1.391 . S
C2418 H2408 0.950 . S
C2418 C2419 1.386 . S
C2418 C2420 1.391 . S
C2419 C2418 1.386 . S
C2419 C2423 1.393 . S
C2420 H2409 0.950 . S
C2420 C2418 1.391 . S
C2420 C2421 1.400 . S
C2421 C2415 1.491 . S
C2421 C2420 1.400 . S
C2421 C2422 1.398 . S
C2422 H2410 0.950 . S
C2422 C2421 1.398 . S
C2422 C2423 1.391 . S
C2423 H2411 0.950 . S
C2423 C2419 1.393 . S
C2423 C2422 1.391 . S
H2424 C2432 0.950 . S
H2425 C2437 0.950 . S
H2426 C2434 0.950 . S
H2427 C2436 0.950 . S
H2428 C2438 0.950 . S
H2429 C2440 0.950 . S
H2430 C2442 0.950 . S
H2431 C2443 0.950 . S
C2432 H2424 0.950 . S
C2432 C2433 1.386 . S
C2432 C2434 1.391 . S
C2433 C2432 1.386 . S
C2433 C2437 1.393 . S
C2434 H2426 0.950 . S
C2434 C2432 1.391 . S
C2434 C2435 1.400 . S
C2435 C2434 1.400 . S
C2435 C2436 1.398 . S
C2435 C2441 1.491 . S
C2436 H2427 0.950 . S
C2436 C2435 1.398 . S
C2436 C2437 1.391 . S
C2437 H2425 0.950 . S
C2437 C2433 1.393 . S
C2437 C2436 1.391 . S
C2438 H2428 0.950 . S
C2438 C2439 1.386 . S
C2438 C2440 1.391 . S
C2439 C2438 1.386 . S
C2439 C2443 1.393 . S
C2440 H2429 0.950 . S
C2440 C2438 1.391 . S
C2440 C2441 1.400 . S
C2441 C2435 1.491 . S
C2441 C2440 1.400 . S
C2441 C2442 1.398 . S
C2442 H2430 0.950 . S
C2442 C2441 1.398 . S
C2442 C2443 1.391 . S
C2443 H2431 0.950 . S
C2443 C2439 1.393 . S
C2443 C2442 1.391 . S
H2444 C2452 0.950 . S
H2445 C2457 0.950 . S
H2446 C2454 0.950 . S
H2447 C2456 0.950 . S
H2448 C2458 0.950 . S
H2449 C2460 0.950 . S
H2450 C2462 0.950 . S
H2451 C2463 0.950 . S
C2452 H2444 0.950 . S
C2452 C2453 1.386 . S
C2452 C2454 1.391 . S
C2453 C2452 1.386 . S
C2453 C2457 1.393 . S
C2454 H2446 0.950 . S
C2454 C2452 1.391 . S
C2454 C2455 1.400 . S
C2455 C2454 1.400 . S
C2455 C2456 1.398 . S
C2455 C2461 1.491 . S
C2456 H2447 0.950 . S
C2456 C2455 1.398 . S
C2456 C2457 1.391 . S
C2457 H2445 0.950 . S
C2457 C2453 1.393 . S
C2457 C2456 1.391 . S
C2458 H2448 0.950 . S
C2458 C2459 1.386 . S
C2458 C2460 1.391 . S
C2459 C2458 1.386 . S
C2459 C2463 1.393 . S
C2460 H2449 0.950 . S
C2460 C2458 1.391 . S
C2460 C2461 1.400 . S
C2461 C2455 1.491 . S
C2461 C2460 1.400 . S
C2461 C2462 1.398 . S
C2462 H2450 0.950 . S
C2462 C2461 1.398 . S
C2462 C2463 1.391 . S
C2463 H2451 0.950 . S
C2463 C2459 1.393 . S
C2463 C2462 1.391 . S
H2464 C2472 0.950 . S
H2465 C2477 0.950 . S
H2466 C2474 0.950 . S
H2467 C2476 0.950 . S
H2468 C2478 0.950 . S
H2469 C2480 0.950 . S
H2470 C2482 0.950 . S
H2471 C2483 0.950 . S
C2472 H2464 0.950 . S
C2472 C2473 1.386 . S
C2472 C2474 1.391 . S
C2473 C2472 1.386 . S
C2473 C2477 1.393 . S
C2474 H2466 0.950 . S
C2474 C2472 1.391 . S
C2474 C2475 1.400 . S
C2475 C2474 1.400 . S
C2475 C2476 1.398 . S
C2475 C2481 1.491 . S
C2476 H2467 0.950 . S
C2476 C2475 1.398 . S
C2476 C2477 1.391 . S
C2477 H2465 0.950 . S
C2477 C2473 1.393 . S
C2477 C2476 1.391 . S
C2478 H2468 0.950 . S
C2478 C2479 1.386 . S
C2478 C2480 1.391 . S
C2479 C2478 1.386 . S
C2479 C2483 1.393 . S
C2480 H2469 0.950 . S
C2480 C2478 1.391 . S
C2480 C2481 1.400 . S
C2481 C2475 1.491 . S
C2481 C2480 1.400 . S
C2481 C2482 1.398 . S
C2482 H2470 0.950 . S
C2482 C2481 1.398 . S
C2482 C2483 1.391 . S
C2483 H2471 0.950 . S
C2483 C2479 1.393 . S
C2483 C2482 1.391 . S
H2484 C2492 0.950 . S
H2485 C2497 0.950 . S
H2486 C2494 0.950 . S
H2487 C2496 0.950 . S
H2488 C2498 0.950 . S
H2489 C2500 0.950 . S
H2490 C2502 0.950 . S
H2491 C2503 0.950 . S
C2492 H2484 0.950 . S
C2492 C2493 1.386 . S
C2492 C2494 1.391 . S
C2493 C2492 1.386 . S
C2493 C2497 1.393 . S
C2494 H2486 0.950 . S
C2494 C2492 1.391 . S
C2494 C2495 1.400 . S
C2495 C2494 1.400 . S
C2495 C2496 1.398 . S
C2495 C2501 1.491 . S
C2496 H2487 0.950 . S
C2496 C2495 1.398 . S
C2496 C2497 1.391 . S
C2497 H2485 0.950 . S
C2497 C2493 1.393 . S
C2497 C2496 1.391 . S
C2498 H2488 0.950 . S
C2498 C2499 1.386 . S
C2498 C2500 1.391 . S
C2499 C2498 1.386 . S
C2499 C2503 1.393 . S
C2500 H2489 0.950 . S
C2500 C2498 1.391 . S
C2500 C2501 1.400 . S
C2501 C2495 1.491 . S
C2501 C2500 1.400 . S
C2501 C2502 1.398 . S
C2502 H2490 0.950 . S
C2502 C2501 1.398 . S
C2502 C2503 1.391 . S
C2503 H2491 0.950 . S
C2503 C2499 1.393 . S
C2503 C2502 1.391 . S
H2504 C2512 0.950 . S
H2505 C2517 0.950 . S
H2506 C2514 0.950 . S
H2507 C2516 0.950 . S
H2508 C2518 0.950 . S
H2509 C2520 0.950 . S
H2510 C2522 0.950 . S
H2511 C2523 0.950 . S
C2512 H2504 0.950 . S
C2512 C2513 1.386 . S
C2512 C2514 1.391 . S
C2513 C2512 1.386 . S
C2513 C2517 1.393 . S
C2514 H2506 0.950 . S
C2514 C2512 1.391 . S
C2514 C2515 1.400 . S
C2515 C2514 1.400 . S
C2515 C2516 1.398 . S
C2515 C2521 1.491 . S
C2516 H2507 0.950 . S
C2516 C2515 1.398 . S
C2516 C2517 1.391 . S
C2517 H2505 0.950 . S
C2517 C2513 1.393 . S
C2517 C2516 1.391 . S
C2518 H2508 0.950 . S
C2518 C2519 1.386 . S
C2518 C2520 1.391 . S
C2519 C2518 1.386 . S
C2519 C2523 1.393 . S
C2520 H2509 0.950 . S
C2520 C2518 1.391 . S
C2520 C2521 1.400 . S
C2521 C2515 1.491 . S
C2521 C2520 1.400 . S
C2521 C2522 1.398 . S
C2522 H2510 0.950 . S
C2522 C2521 1.398 . S
C2522 C2523 1.391 . S
C2523 H2511 0.950 . S
C2523 C2519 1.393 . S
C2523 C2522 1.391 . S
H2524 C2532 0.950 . S
H2525 C2537 0.950 . S
H2526 C2534 0.950 . S
H2527 C2536 0.950 . S
H2528 C2538 0.950 . S
H2529 C2540 0.950 . S
H2530 C2542 0.950 . S
H2531 C2543 0.950 . S
C2532 H2524 0.950 . S
C2532 C2533 1.386 . S
C2532 C2534 1.391 . S
C2533 C2532 1.386 . S
C2533 C2537 1.393 . S
C2534 H2526 0.950 . S
C2534 C2532 1.391 . S
C2534 C2535 1.400 . S
C2535 C2534 1.400 . S
C2535 C2536 1.398 . S
C2535 C2541 1.491 . S
C2536 H2527 0.950 . S
C2536 C2535 1.398 . S
C2536 C2537 1.391 . S
C2537 H2525 0.950 . S
C2537 C2533 1.393 . S
C2537 C2536 1.391 . S
C2538 H2528 0.950 . S
C2538 C2539 1.386 . S
C2538 C2540 1.391 . S
C2539 C2538 1.386 . S
C2539 C2543 1.393 . S
C2540 H2529 0.950 . S
C2540 C2538 1.391 . S
C2540 C2541 1.400 . S
C2541 C2535 1.491 . S
C2541 C2540 1.400 . S
C2541 C2542 1.398 . S
C2542 H2530 0.950 . S
C2542 C2541 1.398 . S
C2542 C2543 1.391 . S
C2543 H2531 0.950 . S
C2543 C2539 1.393 . S
C2543 C2542 1.391 . S
H2544 C2552 0.950 . S
H2545 C2557 0.950 . S
H2546 C2554 0.950 . S
H2547 C2556 0.950 . S
H2548 C2558 0.950 . S
H2549 C2560 0.950 . S
H2550 C2562 0.950 . S
H2551 C2563 0.950 . S
C2552 H2544 0.950 . S
C2552 C2553 1.386 1_455 S
C2552 C2554 1.391 . S
C2553 C2552 1.386 1_655 S
C2553 C2557 1.393 . S
C2554 H2546 0.950 . S
C2554 C2552 1.391 . S
C2554 C2555 1.400 . S
C2555 C2554 1.400 . S
C2555 C2556 1.398 . S
C2555 C2561 1.491 . S
C2556 H2547 0.950 . S
C2556 C2555 1.398 . S
C2556 C2557 1.391 1_455 S
C2557 H2545 0.950 . S
C2557 C2553 1.393 . S
C2557 C2556 1.391 1_655 S
C2558 H2548 0.950 . S
C2558 C2559 1.386 . S
C2558 C2560 1.391 . S
C2559 C2558 1.386 . S
C2559 C2563 1.393 . S
C2560 H2549 0.950 . S
C2560 C2558 1.391 . S
C2560 C2561 1.400 . S
C2561 C2555 1.491 . S
C2561 C2560 1.400 . S
C2561 C2562 1.398 . S
C2562 H2550 0.950 . S
C2562 C2561 1.398 . S
C2562 C2563 1.391 . S
C2563 H2551 0.950 . S
C2563 C2559 1.393 . S
C2563 C2562 1.391 . S
H2564 C2572 0.950 . S
H2565 C2577 0.950 . S
H2566 C2574 0.950 . S
H2567 C2576 0.950 . S
H2568 C2578 0.950 . S
H2569 C2580 0.950 . S
H2570 C2582 0.950 . S
H2571 C2583 0.950 . S
C2572 H2564 0.950 . S
C2572 C2573 1.386 . S
C2572 C2574 1.391 . S
C2573 C2572 1.386 . S
C2573 C2577 1.393 . S
C2574 H2566 0.950 . S
C2574 C2572 1.391 . S
C2574 C2575 1.400 . S
C2575 C2574 1.400 . S
C2575 C2576 1.398 . S
C2575 C2581 1.491 . S
C2576 H2567 0.950 . S
C2576 C2575 1.398 . S
C2576 C2577 1.391 . S
C2577 H2565 0.950 . S
C2577 C2573 1.393 . S
C2577 C2576 1.391 . S
C2578 H2568 0.950 . S
C2578 C2579 1.386 1_455 S
C2578 C2580 1.391 . S
C2579 C2578 1.386 1_655 S
C2579 C2583 1.393 . S
C2580 H2569 0.950 . S
C2580 C2578 1.391 . S
C2580 C2581 1.400 . S
C2581 C2575 1.491 . S
C2581 C2580 1.400 . S
C2581 C2582 1.398 . S
C2582 H2570 0.950 . S
C2582 C2581 1.398 . S
C2582 C2583 1.391 1_455 S
C2583 H2571 0.950 . S
C2583 C2579 1.393 . S
C2583 C2582 1.391 1_655 S
H2584 C2592 0.950 . S
H2585 C2597 0.950 . S
H2586 C2594 0.950 . S
H2587 C2596 0.950 . S
H2588 C2598 0.950 . S
H2589 C2600 0.950 . S
H2590 C2602 0.950 . S
H2591 C2603 0.950 . S
C2592 H2584 0.950 . S
C2592 C2593 1.386 . S
C2592 C2594 1.391 . S
C2593 C2592 1.386 . S
C2593 C2597 1.393 . S
C2594 H2586 0.950 . S
C2594 C2592 1.391 . S
C2594 C2595 1.400 . S
C2595 C2594 1.400 . S
C2595 C2596 1.398 . S
C2595 C2601 1.491 . S
C2596 H2587 0.950 . S
C2596 C2595 1.398 . S
C2596 C2597 1.391 . S
C2597 H2585 0.950 . S
C2597 C2593 1.393 . S
C2597 C2596 1.391 . S
C2598 H2588 0.950 . S
C2598 C2599 1.386 . S
C2598 C2600 1.391 . S
C2599 C2598 1.386 . S
C2599 C2603 1.393 . S
C2600 H2589 0.950 . S
C2600 C2598 1.391 . S
C2600 C2601 1.400 . S
C2601 C2595 1.491 . S
C2601 C2600 1.400 . S
C2601 C2602 1.398 . S
C2602 H2590 0.950 . S
C2602 C2601 1.398 . S
C2602 C2603 1.391 . S
C2603 H2591 0.950 . S
C2603 C2599 1.393 . S
C2603 C2602 1.391 . S
H2604 C2612 0.950 . S
H2605 C2617 0.950 . S
H2606 C2614 0.950 . S
H2607 C2616 0.950 . S
H2608 C2618 0.950 . S
H2609 C2620 0.950 . S
H2610 C2622 0.950 . S
H2611 C2623 0.950 . S
C2612 H2604 0.950 . S
C2612 C2613 1.386 . S
C2612 C2614 1.391 . S
C2613 C2612 1.386 . S
C2613 C2617 1.393 . S
C2614 H2606 0.950 . S
C2614 C2612 1.391 . S
C2614 C2615 1.400 . S
C2615 C2614 1.400 . S
C2615 C2616 1.398 . S
C2615 C2621 1.491 . S
C2616 H2607 0.950 . S
C2616 C2615 1.398 . S
C2616 C2617 1.391 . S
C2617 H2605 0.950 . S
C2617 C2613 1.393 . S
C2617 C2616 1.391 . S
C2618 H2608 0.950 . S
C2618 C2619 1.386 . S
C2618 C2620 1.391 . S
C2619 C2618 1.386 . S
C2619 C2623 1.393 . S
C2620 H2609 0.950 . S
C2620 C2618 1.391 . S
C2620 C2621 1.400 . S
C2621 C2615 1.491 . S
C2621 C2620 1.400 . S
C2621 C2622 1.398 . S
C2622 H2610 0.950 . S
C2622 C2621 1.398 . S
C2622 C2623 1.391 . S
C2623 H2611 0.950 . S
C2623 C2619 1.393 . S
C2623 C2622 1.391 . S
H2624 C2632 0.950 . S
H2625 C2637 0.950 . S
H2626 C2634 0.950 . S
H2627 C2636 0.950 . S
H2628 C2638 0.963 . S
H2629 C2640 0.950 . S
H2630 C2642 0.950 . S
H2631 C2643 0.938 1_565 S
C2632 H2624 0.950 . S
C2632 C2633 1.386 . S
C2632 C2634 1.391 . S
C2633 C2632 1.386 . S
C2633 C2637 1.393 . S
C2634 H2626 0.950 . S
C2634 C2632 1.391 . S
C2634 C2635 1.400 . S
C2635 C2634 1.400 . S
C2635 C2636 1.398 . S
C2635 C2641 1.491 . S
C2636 H2627 0.950 . S
C2636 C2635 1.398 . S
C2636 C2637 1.391 . S
C2637 H2625 0.950 . S
C2637 C2633 1.393 . S
C2637 C2636 1.391 . S
C2638 H2628 0.963 . S
C2638 C2639 1.386 1_545 S
C2638 C2640 1.391 . S
C2639 C2638 1.386 1_565 S
C2639 C2643 1.393 1_565 S
C2640 H2629 0.950 . S
C2640 C2638 1.391 . S
C2640 C2641 1.400 . S
C2641 C2635 1.491 . S
C2641 C2640 1.400 . S
C2641 C2642 1.398 . S
C2642 H2630 0.950 . S
C2642 C2641 1.398 . S
C2642 C2643 1.391 . S
C2643 H2631 0.938 1_545 S
C2643 C2639 1.393 1_545 S
C2643 C2642 1.391 . S
H2644 C2652 0.950 . S
H2645 C2657 0.950 . S
H2646 C2654 0.950 . S
H2647 C2656 0.950 . S
H2648 C2658 0.950 . S
H2649 C2660 0.950 . S
H2650 C2662 0.950 . S
H2651 C2663 0.950 . S
C2652 H2644 0.950 . S
C2652 C2653 1.386 . S
C2652 C2654 1.391 . S
C2653 C2652 1.386 . S
C2653 C2657 1.393 . S
C2654 H2646 0.950 . S
C2654 C2652 1.391 . S
C2654 C2655 1.400 . S
C2655 C2654 1.400 . S
C2655 C2656 1.398 . S
C2655 C2661 1.491 . S
C2656 H2647 0.950 . S
C2656 C2655 1.398 . S
C2656 C2657 1.391 . S
C2657 H2645 0.950 . S
C2657 C2653 1.393 . S
C2657 C2656 1.391 . S
C2658 H2648 0.950 . S
C2658 C2659 1.386 . S
C2658 C2660 1.391 . S
C2659 C2658 1.386 . S
C2659 C2663 1.393 . S
C2660 H2649 0.950 . S
C2660 C2658 1.391 . S
C2660 C2661 1.400 . S
C2661 C2655 1.491 . S
C2661 C2660 1.400 . S
C2661 C2662 1.398 . S
C2662 H2650 0.950 . S
C2662 C2661 1.398 . S
C2662 C2663 1.391 . S
C2663 H2651 0.950 . S
C2663 C2659 1.393 . S
C2663 C2662 1.391 . S
H2664 C2672 0.950 . S
H2665 C2677 0.950 . S
H2666 C2674 0.950 . S
H2667 C2676 0.950 . S
H2668 C2678 0.950 . S
H2669 C2680 0.950 . S
H2670 C2682 0.950 . S
H2671 C2683 0.950 . S
C2672 H2664 0.950 . S
C2672 C2673 1.386 . S
C2672 C2674 1.391 . S
C2673 C2672 1.386 . S
C2673 C2677 1.393 . S
C2674 H2666 0.950 . S
C2674 C2672 1.391 . S
C2674 C2675 1.400 . S
C2675 C2674 1.400 . S
C2675 C2676 1.398 . S
C2675 C2681 1.491 . S
C2676 H2667 0.950 . S
C2676 C2675 1.398 . S
C2676 C2677 1.391 . S
C2677 H2665 0.950 . S
C2677 C2673 1.393 . S
C2677 C2676 1.391 . S
C2678 H2668 0.950 . S
C2678 C2679 1.386 . S
C2678 C2680 1.391 . S
C2679 C2678 1.386 . S
C2679 C2683 1.393 . S
C2680 H2669 0.950 . S
C2680 C2678 1.391 . S
C2680 C2681 1.400 . S
C2681 C2675 1.491 . S
C2681 C2680 1.400 . S
C2681 C2682 1.398 . S
C2682 H2670 0.950 . S
C2682 C2681 1.398 . S
C2682 C2683 1.391 . S
C2683 H2671 0.950 . S
C2683 C2679 1.393 . S
C2683 C2682 1.391 . S
H2684 C2692 0.950 . S
H2685 C2697 0.950 . S
H2686 C2694 0.950 . S
H2687 C2696 0.950 . S
H2688 C2698 0.950 . S
H2689 C2700 0.950 . S
H2690 C2702 0.950 . S
H2691 C2703 0.950 . S
C2692 H2684 0.950 . S
C2692 C2693 1.386 . S
C2692 C2694 1.391 . S
C2693 C2692 1.386 . S
C2693 C2697 1.393 . S
C2694 H2686 0.950 . S
C2694 C2692 1.391 . S
C2694 C2695 1.400 . S
C2695 C2694 1.400 . S
C2695 C2696 1.398 . S
C2695 C2701 1.491 . S
C2696 H2687 0.950 . S
C2696 C2695 1.398 . S
C2696 C2697 1.391 . S
C2697 H2685 0.950 . S
C2697 C2693 1.393 . S
C2697 C2696 1.391 . S
C2698 H2688 0.950 . S
C2698 C2699 1.386 . S
C2698 C2700 1.391 . S
C2699 C2698 1.386 . S
C2699 C2703 1.393 . S
C2700 H2689 0.950 . S
C2700 C2698 1.391 . S
C2700 C2701 1.400 . S
C2701 C2695 1.491 . S
C2701 C2700 1.400 . S
C2701 C2702 1.398 . S
C2702 H2690 0.950 . S
C2702 C2701 1.398 . S
C2702 C2703 1.391 . S
C2703 H2691 0.950 . S
C2703 C2699 1.393 . S
C2703 C2702 1.391 . S
H2704 C2712 0.950 . S
H2705 C2717 0.950 . S
H2706 C2714 0.950 . S
H2707 C2716 0.950 . S
H2708 C2718 0.950 . S
H2709 C2720 0.950 . S
H2710 C2722 0.950 . S
H2711 C2723 0.950 . S
C2712 H2704 0.950 . S
C2712 C2713 1.386 . S
C2712 C2714 1.391 . S
C2713 C2712 1.386 . S
C2713 C2717 1.393 . S
C2714 H2706 0.950 . S
C2714 C2712 1.391 . S
C2714 C2715 1.400 . S
C2715 C2714 1.400 . S
C2715 C2716 1.398 . S
C2715 C2721 1.491 . S
C2716 H2707 0.950 . S
C2716 C2715 1.398 . S
C2716 C2717 1.391 . S
C2717 H2705 0.950 . S
C2717 C2713 1.393 . S
C2717 C2716 1.391 . S
C2718 H2708 0.950 . S
C2718 C2719 1.386 . S
C2718 C2720 1.391 . S
C2719 C2718 1.386 . S
C2719 C2723 1.393 . S
C2720 H2709 0.950 . S
C2720 C2718 1.391 . S
C2720 C2721 1.400 . S
C2721 C2715 1.491 . S
C2721 C2720 1.400 . S
C2721 C2722 1.398 . S
C2722 H2710 0.950 . S
C2722 C2721 1.398 . S
C2722 C2723 1.391 . S
C2723 H2711 0.950 . S
C2723 C2719 1.393 . S
C2723 C2722 1.391 . S
H2724 C2732 0.950 . S
H2725 C2737 0.950 . S
H2726 C2734 0.950 . S
H2727 C2736 0.950 . S
H2728 C2738 0.950 . S
H2729 C2740 0.950 . S
H2730 C2742 0.950 . S
H2731 C2743 0.950 . S
C2732 H2724 0.950 . S
C2732 C2733 1.386 . S
C2732 C2734 1.391 . S
C2733 C2732 1.386 . S
C2733 C2737 1.393 . S
C2734 H2726 0.950 . S
C2734 C2732 1.391 . S
C2734 C2735 1.400 . S
C2735 C2734 1.400 . S
C2735 C2736 1.398 . S
C2735 C2741 1.491 . S
C2736 H2727 0.950 . S
C2736 C2735 1.398 . S
C2736 C2737 1.391 . S
C2737 H2725 0.950 . S
C2737 C2733 1.393 . S
C2737 C2736 1.391 . S
C2738 H2728 0.950 . S
C2738 C2739 1.386 . S
C2738 C2740 1.391 . S
C2739 C2738 1.386 . S
C2739 C2743 1.393 . S
C2740 H2729 0.950 . S
C2740 C2738 1.391 . S
C2740 C2741 1.400 . S
C2741 C2735 1.491 . S
C2741 C2740 1.400 . S
C2741 C2742 1.398 . S
C2742 H2730 0.950 . S
C2742 C2741 1.398 . S
C2742 C2743 1.391 . S
C2743 H2731 0.950 . S
C2743 C2739 1.393 . S
C2743 C2742 1.391 . S
H2744 C2752 0.950 . S
H2745 C2757 0.950 . S
H2746 C2754 0.950 . S
H2747 C2756 0.950 . S
H2748 C2758 0.950 . S
H2749 C2760 0.950 . S
H2750 C2762 0.950 . S
H2751 C2763 0.950 . S
C2752 H2744 0.950 . S
C2752 C2753 1.403 . S
C2752 C2754 1.391 1_565 S
C2753 C2752 1.403 . S
C2753 C2757 1.323 1_565 S
C2754 H2746 0.950 . S
C2754 C2752 1.391 1_545 S
C2754 C2755 1.400 . S
C2755 C2754 1.400 . S
C2755 C2756 1.398 . S
C2755 C2761 1.491 . S
C2756 H2747 0.950 . S
C2756 C2755 1.398 . S
C2756 C2757 1.391 . S
C2757 H2745 0.950 . S
C2757 C2753 1.323 1_545 S
C2757 C2756 1.391 . S
C2758 H2748 0.950 . S
C2758 C2759 1.386 . S
C2758 C2760 1.391 . S
C2759 C2758 1.386 . S
C2759 C2763 1.393 . S
C2760 H2749 0.950 . S
C2760 C2758 1.391 . S
C2760 C2761 1.400 . S
C2761 C2755 1.491 . S
C2761 C2760 1.400 . S
C2761 C2762 1.398 . S
C2762 H2750 0.950 . S
C2762 C2761 1.398 . S
C2762 C2763 1.391 . S
C2763 H2751 0.950 . S
C2763 C2759 1.393 . S
C2763 C2762 1.391 . S
H2764 C2772 0.950 . S
H2765 C2777 0.950 . S
H2766 C2774 0.950 . S
H2767 C2776 0.950 . S
H2768 C2778 0.950 . S
H2769 C2780 0.950 . S
H2770 C2782 0.950 . S
H2771 C2783 0.950 . S
C2772 H2764 0.950 . S
C2772 C2773 1.386 1_554 S
C2772 C2774 1.391 . S
C2773 C2772 1.386 1_556 S
C2773 C2777 1.393 . S
C2774 H2766 0.950 . S
C2774 C2772 1.391 . S
C2774 C2775 1.400 . S
C2775 C2774 1.400 . S
C2775 C2776 1.398 . S
C2775 C2781 1.491 . S
C2776 H2767 0.950 . S
C2776 C2775 1.398 . S
C2776 C2777 1.391 1_554 S
C2777 H2765 0.950 . S
C2777 C2773 1.393 . S
C2777 C2776 1.391 1_556 S
C2778 H2768 0.950 . S
C2778 C2779 1.386 . S
C2778 C2780 1.391 . S
C2779 C2778 1.386 . S
C2779 C2783 1.393 . S
C2780 H2769 0.950 . S
C2780 C2778 1.391 . S
C2780 C2781 1.400 . S
C2781 C2775 1.491 . S
C2781 C2780 1.400 . S
C2781 C2782 1.398 . S
C2782 H2770 0.950 . S
C2782 C2781 1.398 . S
C2782 C2783 1.391 . S
C2783 H2771 0.950 . S
C2783 C2779 1.393 . S
C2783 C2782 1.391 . S
H2784 C2792 0.950 . S
H2785 C2797 0.950 . S
H2786 C2794 0.950 . S
H2787 C2796 0.950 . S
H2788 C2798 0.950 . S
H2789 C2800 0.950 . S
H2790 C2802 0.950 . S
H2791 C2803 0.950 . S
C2792 H2784 0.950 . S
C2792 C2793 1.386 . S
C2792 C2794 1.391 . S
C2793 C2792 1.386 . S
C2793 C2797 1.393 . S
C2794 H2786 0.950 . S
C2794 C2792 1.391 . S
C2794 C2795 1.400 . S
C2795 C2794 1.400 . S
C2795 C2796 1.398 . S
C2795 C2801 1.491 . S
C2796 H2787 0.950 . S
C2796 C2795 1.398 . S
C2796 C2797 1.391 . S
C2797 H2785 0.950 . S
C2797 C2793 1.393 . S
C2797 C2796 1.391 . S
C2798 H2788 0.950 . S
C2798 C2799 1.386 . S
C2798 C2800 1.391 . S
C2799 C2798 1.386 . S
C2799 C2803 1.393 . S
C2800 H2789 0.950 . S
C2800 C2798 1.391 . S
C2800 C2801 1.400 . S
C2801 C2795 1.491 . S
C2801 C2800 1.400 . S
C2801 C2802 1.398 . S
C2802 H2790 0.950 . S
C2802 C2801 1.398 . S
C2802 C2803 1.391 . S
C2803 H2791 0.950 . S
C2803 C2799 1.393 . S
C2803 C2802 1.391 . S
H2804 C2812 0.950 . S
H2805 C2817 0.950 . S
H2806 C2814 0.950 . S
H2807 C2816 0.950 . S
H2808 C2818 0.950 . S
H2809 C2820 0.950 . S
H2810 C2822 0.950 . S
H2811 C2823 0.950 . S
C2812 H2804 0.950 . S
C2812 C2813 1.386 . S
C2812 C2814 1.391 . S
C2813 C2812 1.386 . S
C2813 C2817 1.393 . S
C2814 H2806 0.950 . S
C2814 C2812 1.391 . S
C2814 C2815 1.400 . S
C2815 C2814 1.400 . S
C2815 C2816 1.398 . S
C2815 C2821 1.491 . S
C2816 H2807 0.950 . S
C2816 C2815 1.398 . S
C2816 C2817 1.391 . S
C2817 H2805 0.950 . S
C2817 C2813 1.393 . S
C2817 C2816 1.391 . S
C2818 H2808 0.950 . S
C2818 C2819 1.386 . S
C2818 C2820 1.391 . S
C2819 C2818 1.386 . S
C2819 C2823 1.393 . S
C2820 H2809 0.950 . S
C2820 C2818 1.391 . S
C2820 C2821 1.400 . S
C2821 C2815 1.491 . S
C2821 C2820 1.400 . S
C2821 C2822 1.398 . S
C2822 H2810 0.950 . S
C2822 C2821 1.398 . S
C2822 C2823 1.391 . S
C2823 H2811 0.950 . S
C2823 C2819 1.393 . S
C2823 C2822 1.391 . S
H2824 C2832 0.950 . S
H2825 C2837 0.950 . S
H2826 C2834 0.950 . S
H2827 C2836 0.950 . S
H2828 C2838 0.950 . S
H2829 C2840 0.950 . S
H2830 C2842 0.950 . S
H2831 C2843 0.950 . S
C2832 H2824 0.950 . S
C2832 C2833 1.386 . S
C2832 C2834 1.391 . S
C2833 C2832 1.386 . S
C2833 C2837 1.393 . S
C2834 H2826 0.950 . S
C2834 C2832 1.391 . S
C2834 C2835 1.400 . S
C2835 C2834 1.400 . S
C2835 C2836 1.398 . S
C2835 C2841 1.491 . S
C2836 H2827 0.950 . S
C2836 C2835 1.398 . S
C2836 C2837 1.391 . S
C2837 H2825 0.950 . S
C2837 C2833 1.393 . S
C2837 C2836 1.391 . S
C2838 H2828 0.950 . S
C2838 C2839 1.386 . S
C2838 C2840 1.391 . S
C2839 C2838 1.386 . S
C2839 C2843 1.393 . S
C2840 H2829 0.950 . S
C2840 C2838 1.391 . S
C2840 C2841 1.400 . S
C2841 C2835 1.491 . S
C2841 C2840 1.400 . S
C2841 C2842 1.398 . S
C2842 H2830 0.950 . S
C2842 C2841 1.398 . S
C2842 C2843 1.391 . S
C2843 H2831 0.950 . S
C2843 C2839 1.393 . S
C2843 C2842 1.391 . S
H2844 C2852 0.950 . S
H2845 C2857 0.950 . S
H2846 C2854 0.950 . S
H2847 C2856 0.950 . S
H2848 C2858 0.950 . S
H2849 C2860 0.950 . S
H2850 C2862 0.950 . S
H2851 C2863 0.950 . S
C2852 H2844 0.950 . S
C2852 C2853 1.386 . S
C2852 C2854 1.391 . S
C2853 C2852 1.386 . S
C2853 C2857 1.393 . S
C2854 H2846 0.950 . S
C2854 C2852 1.391 . S
C2854 C2855 1.400 . S
C2855 C2854 1.400 . S
C2855 C2856 1.398 . S
C2855 C2861 1.491 . S
C2856 H2847 0.950 . S
C2856 C2855 1.398 . S
C2856 C2857 1.391 . S
C2857 H2845 0.950 . S
C2857 C2853 1.393 . S
C2857 C2856 1.391 . S
C2858 H2848 0.950 . S
C2858 C2859 1.386 . S
C2858 C2860 1.391 . S
C2859 C2858 1.386 . S
C2859 C2863 1.393 . S
C2860 H2849 0.950 . S
C2860 C2858 1.391 . S
C2860 C2861 1.400 . S
C2861 C2855 1.491 . S
C2861 C2860 1.400 . S
C2861 C2862 1.398 . S
C2862 H2850 0.950 . S
C2862 C2861 1.398 . S
C2862 C2863 1.391 . S
C2863 H2851 0.950 . S
C2863 C2859 1.393 . S
C2863 C2862 1.391 . S
H2864 C2872 0.950 . S
H2865 C2877 0.950 . S
H2866 C2874 0.950 . S
H2867 C2876 0.950 . S
H2868 C2878 0.950 . S
H2869 C2880 0.950 . S
H2870 C2882 0.950 . S
H2871 C2883 0.950 . S
C2872 H2864 0.950 . S
C2872 C2873 1.386 . S
C2872 C2874 1.391 . S
C2873 C2872 1.386 . S
C2873 C2877 1.393 . S
C2874 H2866 0.950 . S
C2874 C2872 1.391 . S
C2874 C2875 1.400 . S
C2875 C2874 1.400 . S
C2875 C2876 1.398 . S
C2875 C2881 1.491 . S
C2876 H2867 0.950 . S
C2876 C2875 1.398 . S
C2876 C2877 1.391 . S
C2877 H2865 0.950 . S
C2877 C2873 1.393 . S
C2877 C2876 1.391 . S
C2878 H2868 0.950 . S
C2878 C2879 1.386 . S
C2878 C2880 1.391 . S
C2879 C2878 1.386 . S
C2879 C2883 1.393 . S
C2880 H2869 0.950 . S
C2880 C2878 1.391 . S
C2880 C2881 1.400 . S
C2881 C2875 1.491 . S
C2881 C2880 1.400 . S
C2881 C2882 1.398 . S
C2882 H2870 0.950 . S
C2882 C2881 1.398 . S
C2882 C2883 1.391 . S
C2883 H2871 0.950 . S
C2883 C2879 1.393 . S
C2883 C2882 1.391 . S
H2884 C2892 0.950 . S
H2885 C2897 0.950 . S
H2886 C2894 0.950 . S
H2887 C2896 0.950 . S
H2888 C2898 0.950 . S
H2889 C2900 0.950 . S
H2890 C2902 0.950 . S
H2891 C2903 0.950 . S
C2892 H2884 0.950 . S
C2892 C2893 1.386 . S
C2892 C2894 1.391 . S
C2893 C2892 1.386 . S
C2893 C2897 1.393 . S
C2894 H2886 0.950 . S
C2894 C2892 1.391 . S
C2894 C2895 1.400 . S
C2895 C2894 1.400 . S
C2895 C2896 1.398 . S
C2895 C2901 1.491 . S
C2896 H2887 0.950 . S
C2896 C2895 1.398 . S
C2896 C2897 1.391 . S
C2897 H2885 0.950 . S
C2897 C2893 1.393 . S
C2897 C2896 1.391 . S
C2898 H2888 0.950 . S
C2898 C2899 1.386 . S
C2898 C2900 1.391 . S
C2899 C2898 1.386 . S
C2899 C2903 1.393 . S
C2900 H2889 0.950 . S
C2900 C2898 1.391 . S
C2900 C2901 1.400 . S
C2901 C2895 1.491 . S
C2901 C2900 1.400 . S
C2901 C2902 1.398 . S
C2902 H2890 0.950 . S
C2902 C2901 1.398 . S
C2902 C2903 1.391 . S
C2903 H2891 0.950 . S
C2903 C2899 1.393 . S
C2903 C2902 1.391 . S
H2904 C2912 0.950 . S
H2905 C2917 0.950 . S
H2906 C2914 0.950 . S
H2907 C2916 0.950 . S
H2908 C2918 0.950 . S
H2909 C2920 0.950 . S
H2910 C2922 0.950 . S
H2911 C2923 0.950 . S
C2912 H2904 0.950 . S
C2912 C2913 1.386 . S
C2912 C2914 1.391 . S
C2913 C2912 1.386 . S
C2913 C2917 1.393 . S
C2914 H2906 0.950 . S
C2914 C2912 1.391 . S
C2914 C2915 1.400 . S
C2915 C2914 1.400 . S
C2915 C2916 1.398 . S
C2915 C2921 1.491 . S
C2916 H2907 0.950 . S
C2916 C2915 1.398 . S
C2916 C2917 1.391 . S
C2917 H2905 0.950 . S
C2917 C2913 1.393 . S
C2917 C2916 1.391 . S
C2918 H2908 0.950 . S
C2918 C2919 1.386 . S
C2918 C2920 1.391 . S
C2919 C2918 1.386 . S
C2919 C2923 1.393 . S
C2920 H2909 0.950 . S
C2920 C2918 1.391 . S
C2920 C2921 1.400 . S
C2921 C2915 1.491 . S
C2921 C2920 1.400 . S
C2921 C2922 1.398 . S
C2922 H2910 0.950 . S
C2922 C2921 1.398 . S
C2922 C2923 1.391 . S
C2923 H2911 0.950 . S
C2923 C2919 1.393 . S
C2923 C2922 1.391 . S
H2924 C2932 0.950 . S
H2925 C2937 0.950 . S
H2926 C2934 0.950 . S
H2927 C2936 0.950 . S
H2928 C2938 0.950 . S
H2929 C2940 0.950 . S
H2930 C2942 0.950 . S
H2931 C2943 0.950 . S
C2932 H2924 0.950 . S
C2932 C2933 1.386 . S
C2932 C2934 1.391 . S
C2933 C2932 1.386 . S
C2933 C2937 1.393 . S
C2934 H2926 0.950 . S
C2934 C2932 1.391 . S
C2934 C2935 1.400 . S
C2935 C2934 1.400 . S
C2935 C2936 1.398 . S
C2935 C2941 1.491 . S
C2936 H2927 0.950 . S
C2936 C2935 1.398 . S
C2936 C2937 1.391 . S
C2937 H2925 0.950 . S
C2937 C2933 1.393 . S
C2937 C2936 1.391 . S
C2938 H2928 0.950 . S
C2938 C2939 1.386 . S
C2938 C2940 1.391 . S
C2939 C2938 1.386 . S
C2939 C2943 1.393 . S
C2940 H2929 0.950 . S
C2940 C2938 1.391 . S
C2940 C2941 1.400 . S
C2941 C2935 1.491 . S
C2941 C2940 1.400 . S
C2941 C2942 1.398 . S
C2942 H2930 0.950 . S
C2942 C2941 1.398 . S
C2942 C2943 1.391 . S
C2943 H2931 0.950 . S
C2943 C2939 1.393 . S
C2943 C2942 1.391 . S
H2944 C2952 0.950 . S
H2945 C2957 0.950 . S
H2946 C2954 0.950 . S
H2947 C2956 0.950 . S
H2948 C2958 0.950 . S
H2949 C2960 0.950 . S
H2950 C2962 0.950 . S
H2951 C2963 0.950 . S
C2952 H2944 0.950 . S
C2952 C2953 1.386 . S
C2952 C2954 1.391 . S
C2953 C2952 1.386 . S
C2953 C2957 1.393 . S
C2954 H2946 0.950 . S
C2954 C2952 1.391 . S
C2954 C2955 1.400 . S
C2955 C2954 1.400 . S
C2955 C2956 1.398 . S
C2955 C2961 1.491 . S
C2956 H2947 0.950 . S
C2956 C2955 1.398 . S
C2956 C2957 1.391 . S
C2957 H2945 0.950 . S
C2957 C2953 1.393 . S
C2957 C2956 1.391 . S
C2958 H2948 0.950 . S
C2958 C2959 1.386 . S
C2958 C2960 1.391 . S
C2959 C2958 1.386 . S
C2959 C2963 1.393 . S
C2960 H2949 0.950 . S
C2960 C2958 1.391 . S
C2960 C2961 1.400 . S
C2961 C2955 1.491 . S
C2961 C2960 1.400 . S
C2961 C2962 1.398 . S
C2962 H2950 0.950 . S
C2962 C2961 1.398 . S
C2962 C2963 1.391 . S
C2963 H2951 0.950 . S
C2963 C2959 1.393 . S
C2963 C2962 1.391 . S
H2964 C2972 0.950 . S
H2965 C2977 0.950 . S
H2966 C2974 0.950 . S
H2967 C2976 0.950 . S
H2968 C2978 0.950 . S
H2969 C2980 0.950 . S
H2970 C2982 0.950 . S
H2971 C2983 0.950 . S
C2972 H2964 0.950 . S
C2972 C2973 1.386 . S
C2972 C2974 1.391 . S
C2973 C2972 1.386 . S
C2973 C2977 1.393 . S
C2974 H2966 0.950 . S
C2974 C2972 1.391 . S
C2974 C2975 1.400 . S
C2975 C2974 1.400 . S
C2975 C2976 1.398 . S
C2975 C2981 1.491 . S
C2976 H2967 0.950 . S
C2976 C2975 1.398 . S
C2976 C2977 1.391 . S
C2977 H2965 0.950 . S
C2977 C2973 1.393 . S
C2977 C2976 1.391 . S
C2978 H2968 0.950 . S
C2978 C2979 1.386 . S
C2978 C2980 1.391 . S
C2979 C2978 1.386 . S
C2979 C2983 1.393 . S
C2980 H2969 0.950 . S
C2980 C2978 1.391 . S
C2980 C2981 1.400 . S
C2981 C2975 1.491 . S
C2981 C2980 1.400 . S
C2981 C2982 1.398 . S
C2982 H2970 0.950 . S
C2982 C2981 1.398 . S
C2982 C2983 1.391 . S
C2983 H2971 0.950 . S
C2983 C2979 1.393 . S
C2983 C2982 1.391 . S
H2984 C2992 0.950 . S
H2985 C2997 0.950 . S
H2986 C2994 0.950 . S
H2987 C2996 0.950 . S
H2988 C2998 0.950 . S
H2989 C3000 0.950 . S
H2990 C3002 0.950 . S
H2991 C3003 0.950 . S
C2992 H2984 0.950 . S
C2992 C2993 1.386 . S
C2992 C2994 1.391 . S
C2993 C2992 1.386 . S
C2993 C2997 1.393 . S
C2994 H2986 0.950 . S
C2994 C2992 1.391 . S
C2994 C2995 1.400 . S
C2995 C2994 1.400 . S
C2995 C2996 1.398 . S
C2995 C3001 1.491 . S
C2996 H2987 0.950 . S
C2996 C2995 1.398 . S
C2996 C2997 1.391 . S
C2997 H2985 0.950 . S
C2997 C2993 1.393 . S
C2997 C2996 1.391 . S
C2998 H2988 0.950 . S
C2998 C2999 1.386 1_554 S
C2998 C3000 1.391 . S
C2999 C2998 1.386 1_556 S
C2999 C3003 1.393 . S
C3000 H2989 0.950 . S
C3000 C2998 1.391 . S
C3000 C3001 1.400 . S
C3001 C2995 1.491 . S
C3001 C3000 1.400 . S
C3001 C3002 1.398 . S
C3002 H2990 0.950 . S
C3002 C3001 1.398 . S
C3002 C3003 1.391 1_554 S
C3003 H2991 0.950 . S
C3003 C2999 1.393 . S
C3003 C3002 1.391 1_556 S
H3004 C3012 0.950 . S
H3005 C3017 0.950 . S
H3006 C3014 0.950 . S
H3007 C3016 0.950 . S
H3008 C3018 0.950 . S
H3009 C3020 0.950 . S
H3010 C3022 0.950 . S
H3011 C3023 0.950 . S
C3012 H3004 0.950 . S
C3012 C3013 1.386 . S
C3012 C3014 1.391 . S
C3013 C3012 1.386 . S
C3013 C3017 1.393 . S
C3014 H3006 0.950 . S
C3014 C3012 1.391 . S
C3014 C3015 1.400 . S
C3015 C3014 1.400 . S
C3015 C3016 1.398 . S
C3015 C3021 1.491 . S
C3016 H3007 0.950 . S
C3016 C3015 1.398 . S
C3016 C3017 1.391 . S
C3017 H3005 0.950 . S
C3017 C3013 1.393 . S
C3017 C3016 1.391 . S
C3018 H3008 0.950 . S
C3018 C3019 1.386 . S
C3018 C3020 1.391 . S
C3019 C3018 1.386 . S
C3019 C3023 1.393 . S
C3020 H3009 0.950 . S
C3020 C3018 1.391 . S
C3020 C3021 1.400 . S
C3021 C3015 1.491 . S
C3021 C3020 1.400 . S
C3021 C3022 1.398 . S
C3022 H3010 0.950 . S
C3022 C3021 1.398 . S
C3022 C3023 1.391 . S
C3023 H3011 0.950 . S
C3023 C3019 1.393 . S
C3023 C3022 1.391 . S
H3024 C3032 0.950 . S
H3025 C3037 0.922 1_655 S
H3026 C3034 0.950 . S
H3027 C3036 0.950 . S
H3028 C3038 0.950 . S
H3029 C3040 0.950 . S
H3030 C3042 0.950 . S
H3031 C3043 0.950 . S
C3032 H3024 0.950 . S
C3032 C3033 1.386 . S
C3032 C3034 1.391 . S
C3033 C3032 1.386 . S
C3033 C3037 1.408 . S
C3034 H3026 0.950 . S
C3034 C3032 1.391 . S
C3034 C3035 1.400 . S
C3035 C3034 1.400 . S
C3035 C3036 1.398 . S
C3035 C3041 1.491 . S
C3036 H3027 0.950 . S
C3036 C3035 1.398 . S
C3036 C3037 1.404 . S
C3037 H3025 0.922 1_455 S
C3037 C3033 1.408 . S
C3037 C3036 1.404 . S
C3038 H3028 0.950 . S
C3038 C3039 1.386 . S
C3038 C3040 1.391 . S
C3039 C3038 1.386 . S
C3039 C3043 1.393 . S
C3040 H3029 0.950 . S
C3040 C3038 1.391 . S
C3040 C3041 1.400 . S
C3041 C3035 1.491 . S
C3041 C3040 1.400 . S
C3041 C3042 1.398 . S
C3042 H3030 0.950 . S
C3042 C3041 1.398 . S
C3042 C3043 1.391 . S
C3043 H3031 0.950 . S
C3043 C3039 1.393 . S
C3043 C3042 1.391 . S
H3044 C3052 0.950 . S
H3045 C3057 0.950 . S
H3046 C3054 0.950 . S
H3047 C3056 0.950 . S
H3048 C3058 0.950 . S
H3049 C3060 0.950 . S
H3050 C3062 0.950 . S
H3051 C3063 0.950 . S
C3052 H3044 0.950 . S
C3052 C3053 1.386 . S
C3052 C3054 1.391 . S
C3053 C3052 1.386 . S
C3053 C3057 1.393 . S
C3054 H3046 0.950 . S
C3054 C3052 1.391 . S
C3054 C3055 1.400 . S
C3055 C3054 1.400 . S
C3055 C3056 1.398 . S
C3055 C3061 1.491 . S
C3056 H3047 0.950 . S
C3056 C3055 1.398 . S
C3056 C3057 1.391 . S
C3057 H3045 0.950 . S
C3057 C3053 1.393 . S
C3057 C3056 1.391 . S
C3058 H3048 0.950 . S
C3058 C3059 1.386 . S
C3058 C3060 1.391 . S
C3059 C3058 1.386 . S
C3059 C3063 1.393 . S
C3060 H3049 0.950 . S
C3060 C3058 1.391 . S
C3060 C3061 1.400 . S
C3061 C3055 1.491 . S
C3061 C3060 1.400 . S
C3061 C3062 1.398 . S
C3062 H3050 0.950 . S
C3062 C3061 1.398 . S
C3062 C3063 1.391 . S
C3063 H3051 0.950 . S
C3063 C3059 1.393 . S
C3063 C3062 1.391 . S
H3064 C3072 0.950 . S
H3065 C3077 0.950 . S
H3066 C3074 0.950 . S
H3067 C3076 0.950 . S
H3068 C3078 0.950 . S
H3069 C3080 0.950 . S
H3070 C3082 0.950 . S
H3071 C3083 0.950 . S
C3072 H3064 0.950 . S
C3072 C3073 1.386 . S
C3072 C3074 1.391 . S
C3073 C3072 1.386 . S
C3073 C3077 1.393 . S
C3074 H3066 0.950 . S
C3074 C3072 1.391 . S
C3074 C3075 1.400 . S
C3075 C3074 1.400 . S
C3075 C3076 1.398 . S
C3075 C3081 1.491 . S
C3076 H3067 0.950 . S
C3076 C3075 1.398 . S
C3076 C3077 1.391 . S
C3077 H3065 0.950 . S
C3077 C3073 1.393 . S
C3077 C3076 1.391 . S
C3078 H3068 0.950 . S
C3078 C3079 1.386 . S
C3078 C3080 1.391 . S
C3079 C3078 1.386 . S
C3079 C3083 1.393 . S
C3080 H3069 0.950 . S
C3080 C3078 1.391 . S
C3080 C3081 1.400 . S
C3081 C3075 1.491 . S
C3081 C3080 1.400 . S
C3081 C3082 1.398 . S
C3082 H3070 0.950 . S
C3082 C3081 1.398 . S
C3082 C3083 1.391 . S
C3083 H3071 0.950 . S
C3083 C3079 1.393 . S
C3083 C3082 1.391 . S
H3084 C3092 0.950 . S
H3085 C3097 0.950 . S
H3086 C3094 0.950 . S
H3087 C3096 0.950 . S
H3088 C3098 0.950 . S
H3089 C3100 0.950 . S
H3090 C3102 0.950 . S
H3091 C3103 0.950 . S
C3092 H3084 0.950 . S
C3092 C3093 1.386 . S
C3092 C3094 1.391 . S
C3093 C3092 1.386 . S
C3093 C3097 1.393 . S
C3094 H3086 0.950 . S
C3094 C3092 1.391 . S
C3094 C3095 1.400 . S
C3095 C3094 1.400 . S
C3095 C3096 1.398 . S
C3095 C3101 1.491 . S
C3096 H3087 0.950 . S
C3096 C3095 1.398 . S
C3096 C3097 1.391 . S
C3097 H3085 0.950 . S
C3097 C3093 1.393 . S
C3097 C3096 1.391 . S
C3098 H3088 0.950 . S
C3098 C3099 1.386 . S
C3098 C3100 1.391 . S
C3099 C3098 1.386 . S
C3099 C3103 1.393 . S
C3100 H3089 0.950 . S
C3100 C3098 1.391 . S
C3100 C3101 1.400 . S
C3101 C3095 1.491 . S
C3101 C3100 1.400 . S
C3101 C3102 1.398 . S
C3102 H3090 0.950 . S
C3102 C3101 1.398 . S
C3102 C3103 1.391 . S
C3103 H3091 0.950 . S
C3103 C3099 1.393 . S
C3103 C3102 1.391 . S
H3104 C3112 0.950 . S
H3105 C3117 0.950 . S
H3106 C3114 0.950 . S
H3107 C3116 0.950 . S
H3108 C3118 0.950 . S
H3109 C3120 0.950 . S
H3110 C3122 0.950 . S
H3111 C3123 0.950 . S
C3112 H3104 0.950 . S
C3112 C3113 1.386 . S
C3112 C3114 1.391 . S
C3113 C3112 1.386 . S
C3113 C3117 1.393 . S
C3114 H3106 0.950 . S
C3114 C3112 1.391 . S
C3114 C3115 1.400 . S
C3115 C3114 1.400 . S
C3115 C3116 1.398 . S
C3115 C3121 1.491 . S
C3116 H3107 0.950 . S
C3116 C3115 1.398 . S
C3116 C3117 1.391 . S
C3117 H3105 0.950 . S
C3117 C3113 1.393 . S
C3117 C3116 1.391 . S
C3118 H3108 0.950 . S
C3118 C3119 1.386 . S
C3118 C3120 1.391 . S
C3119 C3118 1.386 . S
C3119 C3123 1.393 . S
C3120 H3109 0.950 . S
C3120 C3118 1.391 . S
C3120 C3121 1.400 . S
C3121 C3115 1.491 . S
C3121 C3120 1.400 . S
C3121 C3122 1.398 . S
C3122 H3110 0.950 . S
C3122 C3121 1.398 . S
C3122 C3123 1.391 . S
C3123 H3111 0.950 . S
C3123 C3119 1.393 . S
C3123 C3122 1.391 . S
H3124 C3132 0.950 . S
H3125 C3137 0.950 . S
H3126 C3134 0.950 . S
H3127 C3136 0.950 . S
H3128 C3138 0.950 . S
H3129 C3140 0.950 . S
H3130 C3142 0.950 . S
H3131 C3143 0.950 . S
C3132 H3124 0.950 . S
C3132 C3133 1.386 . S
C3132 C3134 1.391 . S
C3133 C3132 1.386 . S
C3133 C3137 1.393 . S
C3134 H3126 0.950 . S
C3134 C3132 1.391 . S
C3134 C3135 1.400 . S
C3135 C3134 1.400 . S
C3135 C3136 1.398 . S
C3135 C3141 1.491 . S
C3136 H3127 0.950 . S
C3136 C3135 1.398 . S
C3136 C3137 1.391 . S
C3137 H3125 0.950 . S
C3137 C3133 1.393 . S
C3137 C3136 1.391 . S
C3138 H3128 0.950 . S
C3138 C3139 1.386 . S
C3138 C3140 1.391 . S
C3139 C3138 1.386 . S
C3139 C3143 1.393 . S
C3140 H3129 0.950 . S
C3140 C3138 1.391 . S
C3140 C3141 1.400 . S
C3141 C3135 1.491 . S
C3141 C3140 1.400 . S
C3141 C3142 1.398 . S
C3142 H3130 0.950 . S
C3142 C3141 1.398 . S
C3142 C3143 1.391 . S
C3143 H3131 0.950 . S
C3143 C3139 1.393 . S
C3143 C3142 1.391 . S
H3144 C3152 0.950 . S
H3145 C3157 0.950 . S
H3146 C3154 0.950 . S
H3147 C3156 0.950 . S
H3148 C3158 0.950 . S
H3149 C3160 0.950 . S
H3150 C3162 0.950 . S
H3151 C3163 0.950 . S
C3152 H3144 0.950 . S
C3152 C3153 1.386 . S
C3152 C3154 1.391 . S
C3153 C3152 1.386 . S
C3153 C3157 1.393 . S
C3154 H3146 0.950 . S
C3154 C3152 1.391 . S
C3154 C3155 1.400 . S
C3155 C3154 1.400 . S
C3155 C3156 1.398 . S
C3155 C3161 1.491 . S
C3156 H3147 0.950 . S
C3156 C3155 1.398 . S
C3156 C3157 1.391 . S
C3157 H3145 0.950 . S
C3157 C3153 1.393 . S
C3157 C3156 1.391 . S
C3158 H3148 0.950 . S
C3158 C3159 1.386 1_554 S
C3158 C3160 1.391 . S
C3159 C3158 1.386 1_556 S
C3159 C3163 1.393 . S
C3160 H3149 0.950 . S
C3160 C3158 1.391 . S
C3160 C3161 1.400 . S
C3161 C3155 1.491 . S
C3161 C3160 1.400 . S
C3161 C3162 1.398 . S
C3162 H3150 0.950 . S
C3162 C3161 1.398 . S
C3162 C3163 1.391 1_554 S
C3163 H3151 0.950 . S
C3163 C3159 1.393 . S
C3163 C3162 1.391 1_556 S
H3164 C3172 0.950 . S
H3165 C3177 0.950 . S
H3166 C3174 0.950 . S
H3167 C3176 0.950 . S
H3168 C3178 0.950 . S
H3169 C3180 0.950 . S
H3170 C3182 0.950 . S
H3171 C3183 0.950 . S
C3172 H3164 0.950 . S
C3172 C3173 1.386 . S
C3172 C3174 1.391 . S
C3173 C3172 1.386 . S
C3173 C3177 1.393 . S
C3174 H3166 0.950 . S
C3174 C3172 1.391 . S
C3174 C3175 1.400 . S
C3175 C3174 1.400 . S
C3175 C3176 1.398 . S
C3175 C3181 1.491 . S
C3176 H3167 0.950 . S
C3176 C3175 1.398 . S
C3176 C3177 1.391 . S
C3177 H3165 0.950 . S
C3177 C3173 1.393 . S
C3177 C3176 1.391 . S
C3178 H3168 0.950 . S
C3178 C3179 1.386 . S
C3178 C3180 1.391 . S
C3179 C3178 1.386 . S
C3179 C3183 1.393 . S
C3180 H3169 0.950 . S
C3180 C3178 1.391 . S
C3180 C3181 1.400 . S
C3181 C3175 1.491 . S
C3181 C3180 1.400 . S
C3181 C3182 1.398 . S
C3182 H3170 0.950 . S
C3182 C3181 1.398 . S
C3182 C3183 1.391 . S
C3183 H3171 0.950 . S
C3183 C3179 1.393 . S
C3183 C3182 1.391 . S
H3184 C3192 0.950 . S
H3185 C3197 0.950 . S
H3186 C3194 0.950 . S
H3187 C3196 0.950 . S
H3188 C3198 0.908 1_565 S
H3189 C3200 0.950 . S
H3190 C3202 0.950 . S
H3191 C3203 0.950 . S
C3192 H3184 0.950 . S
C3192 C3193 1.386 . S
C3192 C3194 1.391 . S
C3193 C3192 1.386 . S
C3193 C3197 1.393 . S
C3194 H3186 0.950 . S
C3194 C3192 1.391 . S
C3194 C3195 1.400 . S
C3195 C3194 1.400 . S
C3195 C3196 1.398 . S
C3195 C3201 1.491 . S
C3196 H3187 0.950 . S
C3196 C3195 1.398 . S
C3196 C3197 1.391 . S
C3197 H3185 0.950 . S
C3197 C3193 1.393 . S
C3197 C3196 1.391 . S
C3198 H3188 0.908 1_545 S
C3198 C3199 1.408 . S
C3198 C3200 1.412 . S
C3199 C3198 1.408 . S
C3199 C3203 1.393 . S
C3200 H3189 0.950 . S
C3200 C3198 1.412 . S
C3200 C3201 1.400 . S
C3201 C3195 1.491 . S
C3201 C3200 1.400 . S
C3201 C3202 1.398 . S
C3202 H3190 0.950 . S
C3202 C3201 1.398 . S
C3202 C3203 1.391 . S
C3203 H3191 0.950 . S
C3203 C3199 1.393 . S
C3203 C3202 1.391 . S
H3204 C3212 0.950 . S
H3205 C3217 0.950 . S
H3206 C3214 0.950 . S
H3207 C3216 0.950 . S
H3208 C3218 0.950 . S
H3209 C3220 0.950 . S
H3210 C3222 0.950 . S
H3211 C3223 0.950 . S
C3212 H3204 0.950 . S
C3212 C3213 1.386 . S
C3212 C3214 1.391 . S
C3213 C3212 1.386 . S
C3213 C3217 1.393 . S
C3214 H3206 0.950 . S
C3214 C3212 1.391 . S
C3214 C3215 1.400 . S
C3215 C3214 1.400 . S
C3215 C3216 1.398 . S
C3215 C3221 1.491 . S
C3216 H3207 0.950 . S
C3216 C3215 1.398 . S
C3216 C3217 1.391 . S
C3217 H3205 0.950 . S
C3217 C3213 1.393 . S
C3217 C3216 1.391 . S
C3218 H3208 0.950 . S
C3218 C3219 1.386 . S
C3218 C3220 1.391 . S
C3219 C3218 1.386 . S
C3219 C3223 1.393 . S
C3220 H3209 0.950 . S
C3220 C3218 1.391 . S
C3220 C3221 1.400 . S
C3221 C3215 1.491 . S
C3221 C3220 1.400 . S
C3221 C3222 1.398 . S
C3222 H3210 0.950 . S
C3222 C3221 1.398 . S
C3222 C3223 1.391 . S
C3223 H3211 0.950 . S
C3223 C3219 1.393 . S
C3223 C3222 1.391 . S
H3224 C3232 0.950 . S
H3225 C3237 0.950 . S
H3226 C3234 0.950 . S
H3227 C3236 0.950 . S
H3228 C3238 0.950 . S
H3229 C3240 0.950 . S
H3230 C3242 0.950 . S
H3231 C3243 0.950 . S
C3232 H3224 0.950 . S
C3232 C3233 1.386 . S
C3232 C3234 1.391 . S
C3233 C3232 1.386 . S
C3233 C3237 1.393 . S
C3234 H3226 0.950 . S
C3234 C3232 1.391 . S
C3234 C3235 1.400 . S
C3235 C3234 1.400 . S
C3235 C3236 1.398 . S
C3235 C3241 1.491 . S
C3236 H3227 0.950 . S
C3236 C3235 1.398 . S
C3236 C3237 1.391 . S
C3237 H3225 0.950 . S
C3237 C3233 1.393 . S
C3237 C3236 1.391 . S
C3238 H3228 0.950 . S
C3238 C3239 1.386 . S
C3238 C3240 1.391 . S
C3239 C3238 1.386 . S
C3239 C3243 1.393 . S
C3240 H3229 0.950 . S
C3240 C3238 1.391 . S
C3240 C3241 1.400 . S
C3241 C3235 1.491 . S
C3241 C3240 1.400 . S
C3241 C3242 1.398 . S
C3242 H3230 0.950 . S
C3242 C3241 1.398 . S
C3242 C3243 1.391 . S
C3243 H3231 0.950 . S
C3243 C3239 1.393 . S
C3243 C3242 1.391 . S
H3244 C3252 0.950 . S
H3245 C3257 0.950 . S
H3246 C3254 0.950 . S
H3247 C3256 0.950 . S
H3248 C3258 0.950 . S
H3249 C3260 0.950 . S
H3250 C3262 0.950 . S
H3251 C3263 0.950 . S
C3252 H3244 0.950 . S
C3252 C3253 1.386 . S
C3252 C3254 1.391 . S
C3253 C3252 1.386 . S
C3253 C3257 1.393 . S
C3254 H3246 0.950 . S
C3254 C3252 1.391 . S
C3254 C3255 1.400 . S
C3255 C3254 1.400 . S
C3255 C3256 1.398 . S
C3255 C3261 1.491 . S
C3256 H3247 0.950 . S
C3256 C3255 1.398 . S
C3256 C3257 1.391 . S
C3257 H3245 0.950 . S
C3257 C3253 1.393 . S
C3257 C3256 1.391 . S
C3258 H3248 0.950 . S
C3258 C3259 1.386 . S
C3258 C3260 1.391 . S
C3259 C3258 1.386 . S
C3259 C3263 1.393 . S
C3260 H3249 0.950 . S
C3260 C3258 1.391 . S
C3260 C3261 1.400 . S
C3261 C3255 1.491 . S
C3261 C3260 1.400 . S
C3261 C3262 1.398 . S
C3262 H3250 0.950 . S
C3262 C3261 1.398 . S
C3262 C3263 1.391 . S
C3263 H3251 0.950 . S
C3263 C3259 1.393 . S
C3263 C3262 1.391 . S
H3264 C3272 0.950 . S
H3265 C3277 0.950 . S
H3266 C3274 0.950 . S
H3267 C3276 0.950 . S
H3268 C3278 0.950 . S
H3269 C3280 0.950 . S
H3270 C3282 0.950 . S
H3271 C3283 0.950 . S
C3272 H3264 0.950 . S
C3272 C3273 1.386 . S
C3272 C3274 1.391 . S
C3273 C3272 1.386 . S
C3273 C3277 1.393 . S
C3274 H3266 0.950 . S
C3274 C3272 1.391 . S
C3274 C3275 1.400 . S
C3275 C3274 1.400 . S
C3275 C3276 1.398 . S
C3275 C3281 1.491 . S
C3276 H3267 0.950 . S
C3276 C3275 1.398 . S
C3276 C3277 1.391 . S
C3277 H3265 0.950 . S
C3277 C3273 1.393 . S
C3277 C3276 1.391 . S
C3278 H3268 0.950 . S
C3278 C3279 1.386 . S
C3278 C3280 1.391 . S
C3279 C3278 1.386 . S
C3279 C3283 1.393 . S
C3280 H3269 0.950 . S
C3280 C3278 1.391 . S
C3280 C3281 1.400 . S
C3281 C3275 1.491 . S
C3281 C3280 1.400 . S
C3281 C3282 1.398 . S
C3282 H3270 0.950 . S
C3282 C3281 1.398 . S
C3282 C3283 1.391 . S
C3283 H3271 0.950 . S
C3283 C3279 1.393 . S
C3283 C3282 1.391 . S
H3284 C3292 0.950 . S
H3285 C3297 0.950 . S
H3286 C3294 0.950 . S
H3287 C3296 0.950 . S
H3288 C3298 0.950 . S
H3289 C3300 0.950 . S
H3290 C3302 0.950 . S
H3291 C3303 0.950 . S
C3292 H3284 0.950 . S
C3292 C3293 1.386 . S
C3292 C3294 1.391 . S
C3293 C3292 1.386 . S
C3293 C3297 1.393 . S
C3294 H3286 0.950 . S
C3294 C3292 1.391 . S
C3294 C3295 1.400 . S
C3295 C3294 1.400 . S
C3295 C3296 1.398 . S
C3295 C3301 1.491 . S
C3296 H3287 0.950 . S
C3296 C3295 1.398 . S
C3296 C3297 1.391 . S
C3297 H3285 0.950 . S
C3297 C3293 1.393 . S
C3297 C3296 1.391 . S
C3298 H3288 0.950 . S
C3298 C3299 1.386 . S
C3298 C3300 1.391 . S
C3299 C3298 1.386 . S
C3299 C3303 1.393 . S
C3300 H3289 0.950 . S
C3300 C3298 1.391 . S
C3300 C3301 1.400 . S
C3301 C3295 1.491 . S
C3301 C3300 1.400 . S
C3301 C3302 1.398 . S
C3302 H3290 0.950 . S
C3302 C3301 1.398 . S
C3302 C3303 1.391 . S
C3303 H3291 0.950 . S
C3303 C3299 1.393 . S
C3303 C3302 1.391 . S
H3304 C3312 0.950 1_565 S
H3305 C3317 0.950 . S
H3306 C3314 0.950 . S
H3307 C3316 0.950 . S
H3308 C3318 0.950 . S
H3309 C3320 0.950 . S
H3310 C3322 0.950 . S
H3311 C3323 0.950 . S
C3312 H3304 0.950 1_545 S
C3312 C3313 1.386 . S
C3312 C3314 1.391 . S
C3313 C3312 1.386 . S
C3313 C3317 1.393 . S
C3314 H3306 0.950 . S
C3314 C3312 1.391 . S
C3314 C3315 1.400 . S
C3315 C3314 1.400 . S
C3315 C3316 1.398 . S
C3315 C3321 1.491 . S
C3316 H3307 0.950 . S
C3316 C3315 1.398 . S
C3316 C3317 1.391 . S
C3317 H3305 0.950 . S
C3317 C3313 1.393 . S
C3317 C3316 1.391 . S
C3318 H3308 0.950 . S
C3318 C3319 1.386 . S
C3318 C3320 1.391 . S
C3319 C3318 1.386 . S
C3319 C3323 1.393 . S
C3320 H3309 0.950 . S
C3320 C3318 1.391 . S
C3320 C3321 1.400 . S
C3321 C3315 1.491 . S
C3321 C3320 1.400 . S
C3321 C3322 1.398 . S
C3322 H3310 0.950 . S
C3322 C3321 1.398 . S
C3322 C3323 1.391 . S
C3323 H3311 0.950 . S
C3323 C3319 1.393 . S
C3323 C3322 1.391 . S
H3324 C3332 0.950 . S
H3325 C3337 0.950 . S
H3326 C3334 0.950 . S
H3327 C3336 0.950 . S
H3328 C3338 0.950 . S
H3329 C3340 0.950 . S
H3330 C3342 0.950 . S
H3331 C3343 0.950 . S
C3332 H3324 0.950 . S
C3332 C3333 1.386 . S
C3332 C3334 1.391 . S
C3333 C3332 1.386 . S
C3333 C3337 1.393 . S
C3334 H3326 0.950 . S
C3334 C3332 1.391 . S
C3334 C3335 1.400 . S
C3335 C3334 1.400 . S
C3335 C3336 1.398 . S
C3335 C3341 1.491 . S
C3336 H3327 0.950 . S
C3336 C3335 1.398 . S
C3336 C3337 1.391 . S
C3337 H3325 0.950 . S
C3337 C3333 1.393 . S
C3337 C3336 1.391 . S
C3338 H3328 0.950 . S
C3338 C3339 1.386 . S
C3338 C3340 1.391 . S
C3339 C3338 1.386 . S
C3339 C3343 1.393 . S
C3340 H3329 0.950 . S
C3340 C3338 1.391 . S
C3340 C3341 1.400 . S
C3341 C3335 1.491 . S
C3341 C3340 1.400 . S
C3341 C3342 1.398 . S
C3342 H3330 0.950 . S
C3342 C3341 1.398 . S
C3342 C3343 1.391 . S
C3343 H3331 0.950 . S
C3343 C3339 1.393 . S
C3343 C3342 1.391 . S
H3344 C3352 0.950 . S
H3345 C3357 0.950 . S
H3346 C3354 0.950 . S
H3347 C3356 0.950 . S
H3348 C3358 0.950 1_556 S
H3349 C3360 0.950 . S
H3350 C3362 0.950 . S
H3351 C3363 0.950 . S
C3352 H3344 0.950 . S
C3352 C3353 1.386 . S
C3352 C3354 1.391 . S
C3353 C3352 1.386 . S
C3353 C3357 1.393 . S
C3354 H3346 0.950 . S
C3354 C3352 1.391 . S
C3354 C3355 1.400 . S
C3355 C3354 1.400 . S
C3355 C3356 1.398 . S
C3355 C3361 1.491 . S
C3356 H3347 0.950 . S
C3356 C3355 1.398 . S
C3356 C3357 1.391 . S
C3357 H3345 0.950 . S
C3357 C3353 1.393 . S
C3357 C3356 1.391 . S
C3358 H3348 0.950 1_554 S
C3358 C3359 1.386 . S
C3358 C3360 1.391 . S
C3359 C3358 1.386 . S
C3359 C3363 1.393 . S
C3360 H3349 0.950 . S
C3360 C3358 1.391 . S
C3360 C3361 1.400 . S
C3361 C3355 1.491 . S
C3361 C3360 1.400 . S
C3361 C3362 1.398 . S
C3362 H3350 0.950 . S
C3362 C3361 1.398 . S
C3362 C3363 1.391 . S
C3363 H3351 0.950 . S
C3363 C3359 1.393 . S
C3363 C3362 1.391 . S
H3364 C3372 0.950 . S
H3365 C3377 0.950 . S
H3366 C3374 0.950 . S
H3367 C3376 0.950 . S
H3368 C3378 0.950 . S
H3369 C3380 0.950 . S
H3370 C3382 0.950 . S
H3371 C3383 0.950 . S
C3372 H3364 0.950 . S
C3372 C3373 1.386 . S
C3372 C3374 1.391 . S
C3373 C3372 1.386 . S
C3373 C3377 1.393 . S
C3374 H3366 0.950 . S
C3374 C3372 1.391 . S
C3374 C3375 1.400 . S
C3375 C3374 1.400 . S
C3375 C3376 1.398 . S
C3375 C3381 1.491 . S
C3376 H3367 0.950 . S
C3376 C3375 1.398 . S
C3376 C3377 1.391 . S
C3377 H3365 0.950 . S
C3377 C3373 1.393 . S
C3377 C3376 1.391 . S
C3378 H3368 0.950 . S
C3378 C3379 1.386 . S
C3378 C3380 1.391 . S
C3379 C3378 1.386 . S
C3379 C3383 1.393 . S
C3380 H3369 0.950 . S
C3380 C3378 1.391 . S
C3380 C3381 1.400 . S
C3381 C3375 1.491 . S
C3381 C3380 1.400 . S
C3381 C3382 1.398 . S
C3382 H3370 0.950 . S
C3382 C3381 1.398 . S
C3382 C3383 1.391 . S
C3383 H3371 0.950 . S
C3383 C3379 1.393 . S
C3383 C3382 1.391 . S
H3384 C3392 0.950 . S
H3385 C3397 0.950 . S
H3386 C3394 0.950 . S
H3387 C3396 0.950 . S
H3388 C3398 0.950 . S
H3389 C3400 0.950 . S
H3390 C3402 0.950 . S
H3391 C3403 0.950 . S
C3392 H3384 0.950 . S
C3392 C3393 1.386 . S
C3392 C3394 1.391 . S
C3393 C3392 1.386 . S
C3393 C3397 1.393 . S
C3394 H3386 0.950 . S
C3394 C3392 1.391 . S
C3394 C3395 1.400 . S
C3395 C3394 1.400 . S
C3395 C3396 1.398 . S
C3395 C3401 1.491 . S
C3396 H3387 0.950 . S
C3396 C3395 1.398 . S
C3396 C3397 1.391 . S
C3397 H3385 0.950 . S
C3397 C3393 1.393 . S
C3397 C3396 1.391 . S
C3398 H3388 0.950 . S
C3398 C3399 1.386 . S
C3398 C3400 1.391 . S
C3399 C3398 1.386 . S
C3399 C3403 1.393 . S
C3400 H3389 0.950 . S
C3400 C3398 1.391 . S
C3400 C3401 1.400 . S
C3401 C3395 1.491 . S
C3401 C3400 1.400 . S
C3401 C3402 1.398 . S
C3402 H3390 0.950 . S
C3402 C3401 1.398 . S
C3402 C3403 1.391 . S
C3403 H3391 0.950 . S
C3403 C3399 1.393 . S
C3403 C3402 1.391 . S
H3404 C3412 0.950 . S
H3405 C3417 0.950 . S
H3406 C3414 0.950 . S
H3407 C3416 0.950 . S
H3408 C3418 0.950 . S
H3409 C3420 0.950 . S
H3410 C3422 0.950 . S
H3411 C3423 0.950 . S
C3412 H3404 0.950 . S
C3412 C3413 1.386 . S
C3412 C3414 1.391 . S
C3413 C3412 1.386 . S
C3413 C3417 1.393 . S
C3414 H3406 0.950 . S
C3414 C3412 1.391 . S
C3414 C3415 1.400 . S
C3415 C3414 1.400 . S
C3415 C3416 1.398 . S
C3415 C3421 1.491 . S
C3416 H3407 0.950 . S
C3416 C3415 1.398 . S
C3416 C3417 1.391 . S
C3417 H3405 0.950 . S
C3417 C3413 1.393 . S
C3417 C3416 1.391 . S
C3418 H3408 0.950 . S
C3418 C3419 1.386 . S
C3418 C3420 1.391 . S
C3419 C3418 1.386 . S
C3419 C3423 1.393 . S
C3420 H3409 0.950 . S
C3420 C3418 1.391 . S
C3420 C3421 1.400 . S
C3421 C3415 1.491 . S
C3421 C3420 1.400 . S
C3421 C3422 1.398 . S
C3422 H3410 0.950 . S
C3422 C3421 1.398 . S
C3422 C3423 1.391 . S
C3423 H3411 0.950 . S
C3423 C3419 1.393 . S
C3423 C3422 1.391 . S
H3424 C3432 0.950 . S
H3425 C3437 0.950 . S
H3426 C3434 0.950 . S
H3427 C3436 0.950 . S
H3428 C3438 0.950 . S
H3429 C3440 0.950 . S
H3430 C3442 0.950 . S
H3431 C3443 0.950 . S
C3432 H3424 0.950 . S
C3432 C3433 1.386 . S
C3432 C3434 1.391 . S
C3433 C3432 1.386 . S
C3433 C3437 1.393 . S
C3434 H3426 0.950 . S
C3434 C3432 1.391 . S
C3434 C3435 1.400 . S
C3435 C3434 1.400 . S
C3435 C3436 1.398 . S
C3435 C3441 1.491 . S
C3436 H3427 0.950 . S
C3436 C3435 1.398 . S
C3436 C3437 1.391 . S
C3437 H3425 0.950 . S
C3437 C3433 1.393 . S
C3437 C3436 1.391 . S
C3438 H3428 0.950 . S
C3438 C3439 1.386 . S
C3438 C3440 1.391 . S
C3439 C3438 1.386 . S
C3439 C3443 1.393 . S
C3440 H3429 0.950 . S
C3440 C3438 1.391 . S
C3440 C3441 1.400 . S
C3441 C3435 1.491 . S
C3441 C3440 1.400 . S
C3441 C3442 1.398 . S
C3442 H3430 0.950 . S
C3442 C3441 1.398 . S
C3442 C3443 1.391 . S
C3443 H3431 0.950 . S
C3443 C3439 1.393 . S
C3443 C3442 1.391 . S
H3444 C3452 0.950 . S
H3445 C3457 0.950 . S
H3446 C3454 0.950 . S
H3447 C3456 0.950 . S
H3448 C3458 0.950 1_565 S
H3449 C3460 0.950 . S
H3450 C3462 0.950 . S
H3451 C3463 0.950 . S
C3452 H3444 0.950 . S
C3452 C3453 1.386 . S
C3452 C3454 1.391 . S
C3453 C3452 1.386 . S
C3453 C3457 1.393 . S
C3454 H3446 0.950 . S
C3454 C3452 1.391 . S
C3454 C3455 1.400 . S
C3455 C3454 1.400 . S
C3455 C3456 1.398 . S
C3455 C3461 1.491 . S
C3456 H3447 0.950 . S
C3456 C3455 1.398 . S
C3456 C3457 1.391 . S
C3457 H3445 0.950 . S
C3457 C3453 1.393 . S
C3457 C3456 1.391 . S
C3458 H3448 0.950 1_545 S
C3458 C3459 1.386 1_545 S
C3458 C3460 1.391 . S
C3459 C3458 1.386 1_565 S
C3459 C3463 1.393 1_565 S
C3460 H3449 0.950 . S
C3460 C3458 1.391 . S
C3460 C3461 1.400 . S
C3461 C3455 1.491 . S
C3461 C3460 1.400 . S
C3461 C3462 1.398 . S
C3462 H3450 0.950 . S
C3462 C3461 1.398 . S
C3462 C3463 1.391 . S
C3463 H3451 0.950 . S
C3463 C3459 1.393 1_545 S
C3463 C3462 1.391 . S
H3464 C3472 0.950 . S
H3465 C3477 0.950 . S
H3466 C3474 0.950 . S
H3467 C3476 0.950 . S
H3468 C3478 0.950 . S
H3469 C3480 0.950 . S
H3470 C3482 0.950 . S
H3471 C3483 0.950 . S
C3472 H3464 0.950 . S
C3472 C3473 1.386 . S
C3472 C3474 1.391 . S
C3473 C3472 1.386 . S
C3473 C3477 1.393 . S
C3474 H3466 0.950 . S
C3474 C3472 1.391 . S
C3474 C3475 1.400 . S
C3475 C3474 1.400 . S
C3475 C3476 1.398 . S
C3475 C3481 1.491 . S
C3476 H3467 0.950 . S
C3476 C3475 1.398 . S
C3476 C3477 1.391 . S
C3477 H3465 0.950 . S
C3477 C3473 1.393 . S
C3477 C3476 1.391 . S
C3478 H3468 0.950 . S
C3478 C3479 1.386 . S
C3478 C3480 1.391 . S
C3479 C3478 1.386 . S
C3479 C3483 1.393 . S
C3480 H3469 0.950 . S
C3480 C3478 1.391 . S
C3480 C3481 1.400 . S
C3481 C3475 1.491 . S
C3481 C3480 1.400 . S
C3481 C3482 1.398 . S
C3482 H3470 0.950 . S
C3482 C3481 1.398 . S
C3482 C3483 1.391 . S
C3483 H3471 0.950 . S
C3483 C3479 1.393 . S
C3483 C3482 1.391 . S
H3484 C3492 0.950 . S
H3485 C3497 0.950 . S
H3486 C3494 0.950 . S
H3487 C3496 0.950 . S
H3488 C3498 0.950 . S
H3489 C3500 0.950 . S
H3490 C3502 0.950 . S
H3491 C3503 0.950 . S
C3492 H3484 0.950 . S
C3492 C3493 1.386 . S
C3492 C3494 1.391 . S
C3493 C3492 1.386 . S
C3493 C3497 1.393 . S
C3494 H3486 0.950 . S
C3494 C3492 1.391 . S
C3494 C3495 1.400 . S
C3495 C3494 1.400 . S
C3495 C3496 1.398 . S
C3495 C3501 1.491 . S
C3496 H3487 0.950 . S
C3496 C3495 1.398 . S
C3496 C3497 1.391 . S
C3497 H3485 0.950 . S
C3497 C3493 1.393 . S
C3497 C3496 1.391 . S
C3498 H3488 0.950 . S
C3498 C3499 1.386 . S
C3498 C3500 1.391 . S
C3499 C3498 1.386 . S
C3499 C3503 1.393 . S
C3500 H3489 0.950 . S
C3500 C3498 1.391 . S
C3500 C3501 1.400 . S
C3501 C3495 1.491 . S
C3501 C3500 1.400 . S
C3501 C3502 1.398 . S
C3502 H3490 0.950 . S
C3502 C3501 1.398 . S
C3502 C3503 1.391 . S
C3503 H3491 0.950 . S
C3503 C3499 1.393 . S
C3503 C3502 1.391 . S
H3504 C3512 0.950 . S
H3505 C3517 0.950 . S
H3506 C3514 0.950 . S
H3507 C3516 0.950 . S
H3508 C3518 0.950 . S
H3509 C3520 0.950 . S
H3510 C3522 0.950 . S
H3511 C3523 0.950 . S
C3512 H3504 0.950 . S
C3512 C3513 1.386 . S
C3512 C3514 1.391 . S
C3513 C3512 1.386 . S
C3513 C3517 1.393 . S
C3514 H3506 0.950 . S
C3514 C3512 1.391 . S
C3514 C3515 1.400 . S
C3515 C3514 1.400 . S
C3515 C3516 1.398 . S
C3515 C3521 1.491 . S
C3516 H3507 0.950 . S
C3516 C3515 1.398 . S
C3516 C3517 1.391 . S
C3517 H3505 0.950 . S
C3517 C3513 1.393 . S
C3517 C3516 1.391 . S
C3518 H3508 0.950 . S
C3518 C3519 1.386 . S
C3518 C3520 1.391 . S
C3519 C3518 1.386 . S
C3519 C3523 1.393 . S
C3520 H3509 0.950 . S
C3520 C3518 1.391 . S
C3520 C3521 1.400 . S
C3521 C3515 1.491 . S
C3521 C3520 1.400 . S
C3521 C3522 1.398 . S
C3522 H3510 0.950 . S
C3522 C3521 1.398 . S
C3522 C3523 1.391 . S
C3523 H3511 0.950 . S
C3523 C3519 1.393 . S
C3523 C3522 1.391 . S
H3524 C3532 0.950 . S
H3525 C3537 0.950 . S
H3526 C3534 0.950 . S
H3527 C3536 0.950 . S
H3528 C3538 0.950 . S
H3529 C3540 0.950 . S
H3530 C3542 0.950 . S
H3531 C3543 0.950 . S
C3532 H3524 0.950 . S
C3532 C3533 1.386 . S
C3532 C3534 1.391 . S
C3533 C3532 1.386 . S
C3533 C3537 1.393 . S
C3534 H3526 0.950 . S
C3534 C3532 1.391 . S
C3534 C3535 1.400 . S
C3535 C3534 1.400 . S
C3535 C3536 1.398 . S
C3535 C3541 1.491 . S
C3536 H3527 0.950 . S
C3536 C3535 1.398 . S
C3536 C3537 1.391 . S
C3537 H3525 0.950 . S
C3537 C3533 1.393 . S
C3537 C3536 1.391 . S
C3538 H3528 0.950 . S
C3538 C3539 1.386 . S
C3538 C3540 1.391 . S
C3539 C3538 1.386 . S
C3539 C3543 1.393 . S
C3540 H3529 0.950 . S
C3540 C3538 1.391 . S
C3540 C3541 1.400 . S
C3541 C3535 1.491 . S
C3541 C3540 1.400 . S
C3541 C3542 1.398 . S
C3542 H3530 0.950 . S
C3542 C3541 1.398 . S
C3542 C3543 1.391 . S
C3543 H3531 0.950 . S
C3543 C3539 1.393 . S
C3543 C3542 1.391 . S
H3544 C3552 0.950 . S
H3545 C3557 0.950 . S
H3546 C3554 0.950 . S
H3547 C3556 0.950 . S
H3548 C3558 0.950 . S
H3549 C3560 0.950 . S
H3550 C3562 0.950 . S
H3551 C3563 0.950 . S
C3552 H3544 0.950 . S
C3552 C3553 1.386 . S
C3552 C3554 1.391 . S
C3553 C3552 1.386 . S
C3553 C3557 1.393 . S
C3554 H3546 0.950 . S
C3554 C3552 1.391 . S
C3554 C3555 1.400 . S
C3555 C3554 1.400 . S
C3555 C3556 1.398 . S
C3555 C3561 1.491 . S
C3556 H3547 0.950 . S
C3556 C3555 1.398 . S
C3556 C3557 1.391 . S
C3557 H3545 0.950 . S
C3557 C3553 1.393 . S
C3557 C3556 1.391 . S
C3558 H3548 0.950 . S
C3558 C3559 1.386 . S
C3558 C3560 1.391 . S
C3559 C3558 1.386 . S
C3559 C3563 1.393 . S
C3560 H3549 0.950 . S
C3560 C3558 1.391 . S
C3560 C3561 1.400 . S
C3561 C3555 1.491 . S
C3561 C3560 1.400 . S
C3561 C3562 1.398 . S
C3562 H3550 0.950 . S
C3562 C3561 1.398 . S
C3562 C3563 1.391 . S
C3563 H3551 0.950 . S
C3563 C3559 1.393 . S
C3563 C3562 1.391 . S
H3564 C3572 0.950 . S
H3565 C3577 0.950 . S
H3566 C3574 0.950 . S
H3567 C3576 0.950 . S
H3568 C3578 0.950 . S
H3569 C3580 0.950 . S
H3570 C3582 0.950 . S
H3571 C3583 0.950 . S
C3572 H3564 0.950 . S
C3572 C3573 1.386 . S
C3572 C3574 1.391 . S
C3573 C3572 1.386 . S
C3573 C3577 1.393 . S
C3574 H3566 0.950 . S
C3574 C3572 1.391 . S
C3574 C3575 1.400 . S
C3575 C3574 1.400 . S
C3575 C3576 1.398 . S
C3575 C3581 1.491 . S
C3576 H3567 0.950 . S
C3576 C3575 1.398 . S
C3576 C3577 1.391 . S
C3577 H3565 0.950 . S
C3577 C3573 1.393 . S
C3577 C3576 1.391 . S
C3578 H3568 0.950 . S
C3578 C3579 1.386 . S
C3578 C3580 1.391 . S
C3579 C3578 1.386 . S
C3579 C3583 1.393 . S
C3580 H3569 0.950 . S
C3580 C3578 1.391 . S
C3580 C3581 1.400 . S
C3581 C3575 1.491 . S
C3581 C3580 1.400 . S
C3581 C3582 1.398 . S
C3582 H3570 0.950 . S
C3582 C3581 1.398 . S
C3582 C3583 1.391 . S
C3583 H3571 0.950 . S
C3583 C3579 1.393 . S
C3583 C3582 1.391 . S
H3584 C3592 0.950 . S
H3585 C3597 0.950 . S
H3586 C3594 0.950 . S
H3587 C3596 0.950 . S
H3588 C3598 0.950 . S
H3589 C3600 0.950 . S
H3590 C3602 0.950 . S
H3591 C3603 0.950 . S
C3592 H3584 0.950 . S
C3592 C3593 1.386 . S
C3592 C3594 1.391 1_556 S
C3593 C3592 1.386 . S
C3593 C3597 1.393 1_556 S
C3594 H3586 0.950 . S
C3594 C3592 1.391 1_554 S
C3594 C3595 1.400 . S
C3595 C3594 1.400 . S
C3595 C3596 1.398 . S
C3595 C3601 1.491 . S
C3596 H3587 0.950 . S
C3596 C3595 1.398 . S
C3596 C3597 1.391 . S
C3597 H3585 0.950 . S
C3597 C3593 1.393 1_554 S
C3597 C3596 1.391 . S
C3598 H3588 0.950 . S
C3598 C3599 1.386 . S
C3598 C3600 1.391 . S
C3599 C3598 1.386 . S
C3599 C3603 1.393 . S
C3600 H3589 0.950 . S
C3600 C3598 1.391 . S
C3600 C3601 1.400 . S
C3601 C3595 1.491 . S
C3601 C3600 1.400 . S
C3601 C3602 1.398 . S
C3602 H3590 0.950 . S
C3602 C3601 1.398 . S
C3602 C3603 1.391 . S
C3603 H3591 0.950 . S
C3603 C3599 1.393 . S
C3603 C3602 1.391 . S
H3604 C3612 0.950 . S
H3605 C3617 0.950 . S
H3606 C3614 0.950 . S
H3607 C3616 0.950 . S
H3608 C3618 0.950 . S
H3609 C3620 0.950 . S
H3610 C3622 0.950 . S
H3611 C3623 0.950 . S
C3612 H3604 0.950 . S
C3612 C3613 1.386 . S
C3612 C3614 1.391 . S
C3613 C3612 1.386 . S
C3613 C3617 1.393 . S
C3614 H3606 0.950 . S
C3614 C3612 1.391 . S
C3614 C3615 1.400 . S
C3615 C3614 1.400 . S
C3615 C3616 1.398 . S
C3615 C3621 1.491 . S
C3616 H3607 0.950 . S
C3616 C3615 1.398 . S
C3616 C3617 1.391 . S
C3617 H3605 0.950 . S
C3617 C3613 1.393 . S
C3617 C3616 1.391 . S
C3618 H3608 0.950 . S
C3618 C3619 1.386 . S
C3618 C3620 1.391 . S
C3619 C3618 1.386 . S
C3619 C3623 1.393 . S
C3620 H3609 0.950 . S
C3620 C3618 1.391 . S
C3620 C3621 1.400 . S
C3621 C3615 1.491 . S
C3621 C3620 1.400 . S
C3621 C3622 1.398 . S
C3622 H3610 0.950 . S
C3622 C3621 1.398 . S
C3622 C3623 1.391 . S
C3623 H3611 0.950 . S
C3623 C3619 1.393 . S
C3623 C3622 1.391 . S
H3624 C3632 0.950 . S
H3625 C3637 0.950 . S
H3626 C3634 0.950 . S
H3627 C3636 0.950 . S
H3628 C3638 0.950 . S
H3629 C3640 0.950 . S
H3630 C3642 0.950 . S
H3631 C3643 0.950 . S
C3632 H3624 0.950 . S
C3632 C3633 1.386 . S
C3632 C3634 1.391 . S
C3633 C3632 1.386 . S
C3633 C3637 1.393 . S
C3634 H3626 0.950 . S
C3634 C3632 1.391 . S
C3634 C3635 1.400 . S
C3635 C3634 1.400 . S
C3635 C3636 1.398 . S
C3635 C3641 1.491 . S
C3636 H3627 0.950 . S
C3636 C3635 1.398 . S
C3636 C3637 1.391 . S
C3637 H3625 0.950 . S
C3637 C3633 1.393 . S
C3637 C3636 1.391 . S
C3638 H3628 0.950 . S
C3638 C3639 1.386 . S
C3638 C3640 1.391 . S
C3639 C3638 1.386 . S
C3639 C3643 1.393 . S
C3640 H3629 0.950 . S
C3640 C3638 1.391 . S
C3640 C3641 1.400 . S
C3641 C3635 1.491 . S
C3641 C3640 1.400 . S
C3641 C3642 1.398 . S
C3642 H3630 0.950 . S
C3642 C3641 1.398 . S
C3642 C3643 1.391 . S
C3643 H3631 0.950 . S
C3643 C3639 1.393 . S
C3643 C3642 1.391 . S
H3644 C3652 0.950 . S
H3645 C3657 0.950 . S
H3646 C3654 0.950 . S
H3647 C3656 0.950 . S
H3648 C3658 0.950 . S
H3649 C3660 0.950 . S
H3650 C3662 0.950 . S
H3651 C3663 0.950 . S
C3652 H3644 0.950 . S
C3652 C3653 1.386 . S
C3652 C3654 1.391 . S
C3653 C3652 1.386 . S
C3653 C3657 1.393 . S
C3654 H3646 0.950 . S
C3654 C3652 1.391 . S
C3654 C3655 1.400 . S
C3655 C3654 1.400 . S
C3655 C3656 1.398 . S
C3655 C3661 1.491 . S
C3656 H3647 0.950 . S
C3656 C3655 1.398 . S
C3656 C3657 1.391 . S
C3657 H3645 0.950 . S
C3657 C3653 1.393 . S
C3657 C3656 1.391 . S
C3658 H3648 0.950 . S
C3658 C3659 1.386 . S
C3658 C3660 1.391 . S
C3659 C3658 1.386 . S
C3659 C3663 1.393 . S
C3660 H3649 0.950 . S
C3660 C3658 1.391 . S
C3660 C3661 1.400 . S
C3661 C3655 1.491 . S
C3661 C3660 1.400 . S
C3661 C3662 1.398 . S
C3662 H3650 0.950 . S
C3662 C3661 1.398 . S
C3662 C3663 1.391 . S
C3663 H3651 0.950 . S
C3663 C3659 1.393 . S
C3663 C3662 1.391 . S
H3664 C3672 0.950 . S
H3665 C3677 0.950 . S
H3666 C3674 0.950 . S
H3667 C3676 0.950 . S
H3668 C3678 0.950 . S
H3669 C3680 0.950 . S
H3670 C3682 0.950 . S
H3671 C3683 0.950 . S
C3672 H3664 0.950 . S
C3672 C3673 1.386 . S
C3672 C3674 1.391 . S
C3673 C3672 1.386 . S
C3673 C3677 1.393 . S
C3674 H3666 0.950 . S
C3674 C3672 1.391 . S
C3674 C3675 1.400 . S
C3675 C3674 1.400 . S
C3675 C3676 1.398 . S
C3675 C3681 1.491 . S
C3676 H3667 0.950 . S
C3676 C3675 1.398 . S
C3676 C3677 1.391 . S
C3677 H3665 0.950 . S
C3677 C3673 1.393 . S
C3677 C3676 1.391 . S
C3678 H3668 0.950 . S
C3678 C3679 1.386 . S
C3678 C3680 1.391 . S
C3679 C3678 1.386 . S
C3679 C3683 1.393 . S
C3680 H3669 0.950 . S
C3680 C3678 1.391 . S
C3680 C3681 1.400 . S
C3681 C3675 1.491 . S
C3681 C3680 1.400 . S
C3681 C3682 1.398 . S
C3682 H3670 0.950 . S
C3682 C3681 1.398 . S
C3682 C3683 1.391 . S
C3683 H3671 0.950 . S
C3683 C3679 1.393 . S
C3683 C3682 1.391 . S
H3684 C3692 0.950 . S
H3685 C3697 0.950 . S
H3686 C3694 0.950 . S
H3687 C3696 0.950 . S
H3688 C3698 0.950 . S
H3689 C3700 0.950 . S
H3690 C3702 0.950 . S
H3691 C3703 0.950 . S
C3692 H3684 0.950 . S
C3692 C3693 1.386 . S
C3692 C3694 1.391 . S
C3693 C3692 1.386 . S
C3693 C3697 1.393 . S
C3694 H3686 0.950 . S
C3694 C3692 1.391 . S
C3694 C3695 1.400 . S
C3695 C3694 1.400 . S
C3695 C3696 1.398 . S
C3695 C3701 1.491 . S
C3696 H3687 0.950 . S
C3696 C3695 1.398 . S
C3696 C3697 1.391 . S
C3697 H3685 0.950 . S
C3697 C3693 1.393 . S
C3697 C3696 1.391 . S
C3698 H3688 0.950 . S
C3698 C3699 1.386 . S
C3698 C3700 1.391 . S
C3699 C3698 1.386 . S
C3699 C3703 1.393 . S
C3700 H3689 0.950 . S
C3700 C3698 1.391 . S
C3700 C3701 1.400 . S
C3701 C3695 1.491 . S
C3701 C3700 1.400 . S
C3701 C3702 1.398 . S
C3702 H3690 0.950 . S
C3702 C3701 1.398 . S
C3702 C3703 1.391 . S
C3703 H3691 0.950 . S
C3703 C3699 1.393 . S
C3703 C3702 1.391 . S
H3704 C3712 0.950 1_655 S
H3705 C3717 0.950 . S
H3706 C3714 0.950 . S
H3707 C3716 0.950 . S
H3708 C3718 0.950 . S
H3709 C3720 0.950 . S
H3710 C3722 0.950 . S
H3711 C3723 0.950 . S
C3712 H3704 0.950 1_455 S
C3712 C3713 1.386 1_455 S
C3712 C3714 1.391 . S
C3713 C3712 1.386 1_655 S
C3713 C3717 1.393 1_655 S
C3714 H3706 0.950 . S
C3714 C3712 1.391 . S
C3714 C3715 1.400 . S
C3715 C3714 1.400 . S
C3715 C3716 1.398 . S
C3715 C3721 1.491 . S
C3716 H3707 0.950 . S
C3716 C3715 1.398 . S
C3716 C3717 1.391 . S
C3717 H3705 0.950 . S
C3717 C3713 1.393 1_455 S
C3717 C3716 1.391 . S
C3718 H3708 0.950 . S
C3718 C3719 1.386 . S
C3718 C3720 1.391 . S
C3719 C3718 1.386 . S
C3719 C3723 1.393 . S
C3720 H3709 0.950 . S
C3720 C3718 1.391 . S
C3720 C3721 1.400 . S
C3721 C3715 1.491 . S
C3721 C3720 1.400 . S
C3721 C3722 1.398 . S
C3722 H3710 0.950 . S
C3722 C3721 1.398 . S
C3722 C3723 1.391 . S
C3723 H3711 0.950 . S
C3723 C3719 1.393 . S
C3723 C3722 1.391 . S
H3724 C3732 0.950 . S
H3725 C3737 0.950 . S
H3726 C3734 0.950 . S
H3727 C3736 0.950 . S
H3728 C3738 0.950 . S
H3729 C3740 0.950 . S
H3730 C3742 0.950 . S
H3731 C3743 0.950 . S
C3732 H3724 0.950 . S
C3732 C3733 1.386 . S
C3732 C3734 1.391 . S
C3733 C3732 1.386 . S
C3733 C3737 1.393 . S
C3734 H3726 0.950 . S
C3734 C3732 1.391 . S
C3734 C3735 1.400 . S
C3735 C3734 1.400 . S
C3735 C3736 1.398 . S
C3735 C3741 1.491 . S
C3736 H3727 0.950 . S
C3736 C3735 1.398 . S
C3736 C3737 1.391 . S
C3737 H3725 0.950 . S
C3737 C3733 1.393 . S
C3737 C3736 1.391 . S
C3738 H3728 0.950 . S
C3738 C3739 1.386 . S
C3738 C3740 1.391 . S
C3739 C3738 1.386 . S
C3739 C3743 1.393 . S
C3740 H3729 0.950 . S
C3740 C3738 1.391 . S
C3740 C3741 1.400 . S
C3741 C3735 1.491 . S
C3741 C3740 1.400 . S
C3741 C3742 1.398 . S
C3742 H3730 0.950 . S
C3742 C3741 1.398 . S
C3742 C3743 1.391 . S
C3743 H3731 0.950 . S
C3743 C3739 1.393 . S
C3743 C3742 1.391 . S
H3744 C3752 0.950 . S
H3745 C3757 0.950 . S
H3746 C3754 0.950 . S
H3747 C3756 0.950 . S
H3748 C3758 0.950 . S
H3749 C3760 0.950 . S
H3750 C3762 0.950 . S
H3751 C3763 0.950 . S
C3752 H3744 0.950 . S
C3752 C3753 1.386 . S
C3752 C3754 1.391 . S
C3753 C3752 1.386 . S
C3753 C3757 1.393 . S
C3754 H3746 0.950 . S
C3754 C3752 1.391 . S
C3754 C3755 1.400 . S
C3755 C3754 1.400 . S
C3755 C3756 1.398 . S
C3755 C3761 1.491 . S
C3756 H3747 0.950 . S
C3756 C3755 1.398 . S
C3756 C3757 1.391 . S
C3757 H3745 0.950 . S
C3757 C3753 1.393 . S
C3757 C3756 1.391 . S
C3758 H3748 0.950 . S
C3758 C3759 1.386 . S
C3758 C3760 1.391 . S
C3759 C3758 1.386 . S
C3759 C3763 1.393 . S
C3760 H3749 0.950 . S
C3760 C3758 1.391 . S
C3760 C3761 1.400 . S
C3761 C3755 1.491 . S
C3761 C3760 1.400 . S
C3761 C3762 1.398 . S
C3762 H3750 0.950 . S
C3762 C3761 1.398 . S
C3762 C3763 1.391 . S
C3763 H3751 0.950 . S
C3763 C3759 1.393 . S
C3763 C3762 1.391 . S
H3764 C3772 0.950 . S
H3765 C3777 0.950 . S
H3766 C3774 0.950 . S
H3767 C3776 0.950 . S
H3768 C3778 0.950 . S
H3769 C3780 0.950 . S
H3770 C3782 0.950 . S
H3771 C3783 0.950 . S
C3772 H3764 0.950 . S
C3772 C3773 1.386 . S
C3772 C3774 1.391 . S
C3773 C3772 1.386 . S
C3773 C3777 1.393 . S
C3774 H3766 0.950 . S
C3774 C3772 1.391 . S
C3774 C3775 1.400 . S
C3775 C3774 1.400 . S
C3775 C3776 1.398 . S
C3775 C3781 1.491 . S
C3776 H3767 0.950 . S
C3776 C3775 1.398 . S
C3776 C3777 1.391 . S
C3777 H3765 0.950 . S
C3777 C3773 1.393 . S
C3777 C3776 1.391 . S
C3778 H3768 0.950 . S
C3778 C3779 1.386 . S
C3778 C3780 1.391 . S
C3779 C3778 1.386 . S
C3779 C3783 1.393 . S
C3780 H3769 0.950 . S
C3780 C3778 1.391 . S
C3780 C3781 1.400 . S
C3781 C3775 1.491 . S
C3781 C3780 1.400 . S
C3781 C3782 1.398 . S
C3782 H3770 0.950 . S
C3782 C3781 1.398 . S
C3782 C3783 1.391 . S
C3783 H3771 0.950 . S
C3783 C3779 1.393 . S
C3783 C3782 1.391 . S
H3784 C3792 0.950 . S
H3785 C3797 0.950 . S
H3786 C3794 0.950 . S
H3787 C3796 0.950 . S
H3788 C3798 0.950 . S
H3789 C3800 0.950 . S
H3790 C3802 0.950 . S
H3791 C3803 0.950 . S
C3792 H3784 0.950 . S
C3792 C3793 1.386 1_455 S
C3792 C3794 1.391 . S
C3793 C3792 1.386 1_655 S
C3793 C3797 1.393 . S
C3794 H3786 0.950 . S
C3794 C3792 1.391 . S
C3794 C3795 1.400 . S
C3795 C3794 1.400 . S
C3795 C3796 1.398 . S
C3795 C3801 1.491 . S
C3796 H3787 0.950 . S
C3796 C3795 1.398 . S
C3796 C3797 1.391 1_455 S
C3797 H3785 0.950 . S
C3797 C3793 1.393 . S
C3797 C3796 1.391 1_655 S
C3798 H3788 0.950 . S
C3798 C3799 1.386 . S
C3798 C3800 1.391 . S
C3799 C3798 1.386 . S
C3799 C3803 1.393 . S
C3800 H3789 0.950 . S
C3800 C3798 1.391 . S
C3800 C3801 1.400 . S
C3801 C3795 1.491 . S
C3801 C3800 1.400 . S
C3801 C3802 1.398 . S
C3802 H3790 0.950 . S
C3802 C3801 1.398 . S
C3802 C3803 1.391 . S
C3803 H3791 0.950 . S
C3803 C3799 1.393 . S
C3803 C3802 1.391 . S
H3804 C3812 0.950 . S
H3805 C3817 0.950 . S
H3806 C3814 0.950 . S
H3807 C3816 0.950 . S
H3808 C3818 0.950 . S
H3809 C3820 0.950 . S
H3810 C3822 0.950 . S
H3811 C3823 0.950 . S
C3812 H3804 0.950 . S
C3812 C3813 1.386 . S
C3812 C3814 1.391 . S
C3813 C3812 1.386 . S
C3813 C3817 1.393 . S
C3814 H3806 0.950 . S
C3814 C3812 1.391 . S
C3814 C3815 1.400 . S
C3815 C3814 1.400 . S
C3815 C3816 1.398 . S
C3815 C3821 1.491 . S
C3816 H3807 0.950 . S
C3816 C3815 1.398 . S
C3816 C3817 1.391 . S
C3817 H3805 0.950 . S
C3817 C3813 1.393 . S
C3817 C3816 1.391 . S
C3818 H3808 0.950 . S
C3818 C3819 1.386 . S
C3818 C3820 1.391 . S
C3819 C3818 1.386 . S
C3819 C3823 1.393 . S
C3820 H3809 0.950 . S
C3820 C3818 1.391 . S
C3820 C3821 1.400 . S
C3821 C3815 1.491 . S
C3821 C3820 1.400 . S
C3821 C3822 1.398 . S
C3822 H3810 0.950 . S
C3822 C3821 1.398 . S
C3822 C3823 1.391 . S
C3823 H3811 0.950 . S
C3823 C3819 1.393 . S
C3823 C3822 1.391 . S
H3824 C3832 0.950 . S
H3825 C3837 0.950 . S
H3826 C3834 0.950 . S
H3827 C3836 0.950 . S
H3828 C3838 0.950 . S
H3829 C3840 0.950 . S
H3830 C3842 0.950 . S
H3831 C3843 0.950 . S
C3832 H3824 0.950 . S
C3832 C3833 1.386 . S
C3832 C3834 1.391 . S
C3833 C3832 1.386 . S
C3833 C3837 1.393 . S
C3834 H3826 0.950 . S
C3834 C3832 1.391 . S
C3834 C3835 1.400 . S
C3835 C3834 1.400 . S
C3835 C3836 1.398 . S
C3835 C3841 1.491 . S
C3836 H3827 0.950 . S
C3836 C3835 1.398 . S
C3836 C3837 1.391 . S
C3837 H3825 0.950 . S
C3837 C3833 1.393 . S
C3837 C3836 1.391 . S
C3838 H3828 0.950 . S
C3838 C3839 1.386 . S
C3838 C3840 1.391 . S
C3839 C3838 1.386 . S
C3839 C3843 1.393 . S
C3840 H3829 0.950 . S
C3840 C3838 1.391 . S
C3840 C3841 1.400 . S
C3841 C3835 1.491 . S
C3841 C3840 1.400 . S
C3841 C3842 1.398 . S
C3842 H3830 0.950 . S
C3842 C3841 1.398 . S
C3842 C3843 1.391 . S
C3843 H3831 0.950 . S
C3843 C3839 1.393 . S
C3843 C3842 1.391 . S
H3844 C3852 0.950 . S
H3845 C3857 0.950 . S
H3846 C3854 0.950 . S
H3847 C3856 0.950 . S
H3848 C3858 0.950 . S
H3849 C3860 0.950 . S
H3850 C3862 0.950 . S
H3851 C3863 0.950 . S
C3852 H3844 0.950 . S
C3852 C3853 1.386 1_545 S
C3852 C3854 1.391 . S
C3853 C3852 1.386 1_565 S
C3853 C3857 1.393 . S
C3854 H3846 0.950 . S
C3854 C3852 1.391 . S
C3854 C3855 1.400 . S
C3855 C3854 1.400 . S
C3855 C3856 1.398 . S
C3855 C3861 1.491 . S
C3856 H3847 0.950 . S
C3856 C3855 1.398 . S
C3856 C3857 1.391 1_545 S
C3857 H3845 0.950 . S
C3857 C3853 1.393 . S
C3857 C3856 1.391 1_565 S
C3858 H3848 0.950 . S
C3858 C3859 1.386 . S
C3858 C3860 1.391 . S
C3859 C3858 1.386 . S
C3859 C3863 1.393 . S
C3860 H3849 0.950 . S
C3860 C3858 1.391 . S
C3860 C3861 1.400 . S
C3861 C3855 1.491 . S
C3861 C3860 1.400 . S
C3861 C3862 1.398 . S
C3862 H3850 0.950 . S
C3862 C3861 1.398 . S
C3862 C3863 1.391 . S
C3863 H3851 0.950 . S
C3863 C3859 1.393 . S
C3863 C3862 1.391 . S
H3864 C3872 0.950 . S
H3865 C3877 0.950 . S
H3866 C3874 0.950 . S
H3867 C3876 0.950 . S
H3868 C3878 0.950 . S
H3869 C3880 0.950 . S
H3870 C3882 0.950 . S
H3871 C3883 0.950 . S
C3872 H3864 0.950 . S
C3872 C3873 1.386 . S
C3872 C3874 1.391 . S
C3873 C3872 1.386 . S
C3873 C3877 1.393 . S
C3874 H3866 0.950 . S
C3874 C3872 1.391 . S
C3874 C3875 1.400 . S
C3875 C3874 1.400 . S
C3875 C3876 1.398 . S
C3875 C3881 1.491 . S
C3876 H3867 0.950 . S
C3876 C3875 1.398 . S
C3876 C3877 1.391 . S
C3877 H3865 0.950 . S
C3877 C3873 1.393 . S
C3877 C3876 1.391 . S
C3878 H3868 0.950 . S
C3878 C3879 1.386 . S
C3878 C3880 1.391 . S
C3879 C3878 1.386 . S
C3879 C3883 1.393 . S
C3880 H3869 0.950 . S
C3880 C3878 1.391 . S
C3880 C3881 1.400 . S
C3881 C3875 1.491 . S
C3881 C3880 1.400 . S
C3881 C3882 1.398 . S
C3882 H3870 0.950 . S
C3882 C3881 1.398 . S
C3882 C3883 1.391 . S
C3883 H3871 0.950 . S
C3883 C3879 1.393 . S
C3883 C3882 1.391 . S
H3884 C3892 0.950 . S
H3885 C3897 0.950 . S
H3886 C3894 0.950 . S
H3887 C3896 0.950 . S
H3888 C3898 0.950 . S
H3889 C3900 0.950 . S
H3890 C3902 0.950 . S
H3891 C3903 0.950 . S
C3892 H3884 0.950 . S
C3892 C3893 1.386 . S
C3892 C3894 1.391 . S
C3893 C3892 1.386 . S
C3893 C3897 1.393 . S
C3894 H3886 0.950 . S
C3894 C3892 1.391 . S
C3894 C3895 1.400 . S
C3895 C3894 1.400 . S
C3895 C3896 1.398 . S
C3895 C3901 1.491 . S
C3896 H3887 0.950 . S
C3896 C3895 1.398 . S
C3896 C3897 1.391 . S
C3897 H3885 0.950 . S
C3897 C3893 1.393 . S
C3897 C3896 1.391 . S
C3898 H3888 0.950 . S
C3898 C3899 1.386 . S
C3898 C3900 1.391 . S
C3899 C3898 1.386 . S
C3899 C3903 1.393 . S
C3900 H3889 0.950 . S
C3900 C3898 1.391 . S
C3900 C3901 1.400 . S
C3901 C3895 1.491 . S
C3901 C3900 1.400 . S
C3901 C3902 1.398 . S
C3902 H3890 0.950 . S
C3902 C3901 1.398 . S
C3902 C3903 1.391 . S
C3903 H3891 0.950 . S
C3903 C3899 1.393 . S
C3903 C3902 1.391 . S
H3904 C3912 0.950 . S
H3905 C3917 0.950 . S
H3906 C3914 0.950 . S
H3907 C3916 0.950 . S
H3908 C3918 0.950 . S
H3909 C3920 0.950 . S
H3910 C3922 0.950 . S
H3911 C3923 0.950 . S
C3912 H3904 0.950 . S
C3912 C3913 1.386 . S
C3912 C3914 1.391 . S
C3913 C3912 1.386 . S
C3913 C3917 1.393 . S
C3914 H3906 0.950 . S
C3914 C3912 1.391 . S
C3914 C3915 1.400 . S
C3915 C3914 1.400 . S
C3915 C3916 1.398 . S
C3915 C3921 1.491 . S
C3916 H3907 0.950 . S
C3916 C3915 1.398 . S
C3916 C3917 1.391 . S
C3917 H3905 0.950 . S
C3917 C3913 1.393 . S
C3917 C3916 1.391 . S
C3918 H3908 0.950 . S
C3918 C3919 1.386 . S
C3918 C3920 1.391 . S
C3919 C3918 1.386 . S
C3919 C3923 1.393 . S
C3920 H3909 0.950 . S
C3920 C3918 1.391 . S
C3920 C3921 1.400 . S
C3921 C3915 1.491 . S
C3921 C3920 1.400 . S
C3921 C3922 1.398 . S
C3922 H3910 0.950 . S
C3922 C3921 1.398 . S
C3922 C3923 1.391 . S
C3923 H3911 0.950 . S
C3923 C3919 1.393 . S
C3923 C3922 1.391 . S
H3924 C3932 0.950 1_556 S
H3925 C3937 0.950 . S
H3926 C3934 0.950 . S
H3927 C3936 0.950 . S
H3928 C3938 0.950 . S
H3929 C3940 0.950 . S
H3930 C3942 0.950 . S
H3931 C3943 0.950 . S
C3932 H3924 0.950 1_554 S
C3932 C3933 1.386 . S
C3932 C3934 1.391 . S
C3933 C3932 1.386 . S
C3933 C3937 1.393 . S
C3934 H3926 0.950 . S
C3934 C3932 1.391 . S
C3934 C3935 1.400 . S
C3935 C3934 1.400 . S
C3935 C3936 1.398 . S
C3935 C3941 1.491 . S
C3936 H3927 0.950 . S
C3936 C3935 1.398 . S
C3936 C3937 1.391 . S
C3937 H3925 0.950 . S
C3937 C3933 1.393 . S
C3937 C3936 1.391 . S
C3938 H3928 0.950 . S
C3938 C3939 1.386 . S
C3938 C3940 1.391 . S
C3939 C3938 1.386 . S
C3939 C3943 1.393 . S
C3940 H3929 0.950 . S
C3940 C3938 1.391 . S
C3940 C3941 1.400 . S
C3941 C3935 1.491 . S
C3941 C3940 1.400 . S
C3941 C3942 1.398 . S
C3942 H3930 0.950 . S
C3942 C3941 1.398 . S
C3942 C3943 1.391 . S
C3943 H3931 0.950 . S
C3943 C3939 1.393 . S
C3943 C3942 1.391 . S
H3944 C3952 0.950 . S
H3945 C3957 0.950 . S
H3946 C3954 0.950 . S
H3947 C3956 0.950 . S
H3948 C3958 0.950 . S
H3949 C3960 0.950 . S
H3950 C3962 0.950 . S
H3951 C3963 0.950 . S
C3952 H3944 0.950 . S
C3952 C3953 1.386 . S
C3952 C3954 1.391 . S
C3953 C3952 1.386 . S
C3953 C3957 1.393 . S
C3954 H3946 0.950 . S
C3954 C3952 1.391 . S
C3954 C3955 1.400 . S
C3955 C3954 1.400 . S
C3955 C3956 1.398 . S
C3955 C3961 1.491 . S
C3956 H3947 0.950 . S
C3956 C3955 1.398 . S
C3956 C3957 1.391 . S
C3957 H3945 0.950 . S
C3957 C3953 1.393 . S
C3957 C3956 1.391 . S
C3958 H3948 0.950 . S
C3958 C3959 1.386 . S
C3958 C3960 1.391 . S
C3959 C3958 1.386 . S
C3959 C3963 1.393 . S
C3960 H3949 0.950 . S
C3960 C3958 1.391 . S
C3960 C3961 1.400 . S
C3961 C3955 1.491 . S
C3961 C3960 1.400 . S
C3961 C3962 1.398 . S
C3962 H3950 0.950 . S
C3962 C3961 1.398 . S
C3962 C3963 1.391 . S
C3963 H3951 0.950 . S
C3963 C3959 1.393 . S
C3963 C3962 1.391 . S
H3964 C3972 0.950 . S
H3965 C3977 0.950 . S
H3966 C3974 0.950 . S
H3967 C3976 0.950 . S
H3968 C3978 0.950 . S
H3969 C3980 0.950 . S
H3970 C3982 0.950 . S
H3971 C3983 0.950 . S
C3972 H3964 0.950 . S
C3972 C3973 1.386 . S
C3972 C3974 1.391 . S
C3973 C3972 1.386 . S
C3973 C3977 1.393 . S
C3974 H3966 0.950 . S
C3974 C3972 1.391 . S
C3974 C3975 1.400 . S
C3975 C3974 1.400 . S
C3975 C3976 1.398 . S
C3975 C3981 1.491 . S
C3976 H3967 0.950 . S
C3976 C3975 1.398 . S
C3976 C3977 1.391 . S
C3977 H3965 0.950 . S
C3977 C3973 1.393 . S
C3977 C3976 1.391 . S
C3978 H3968 0.950 . S
C3978 C3979 1.386 . S
C3978 C3980 1.391 . S
C3979 C3978 1.386 . S
C3979 C3983 1.393 . S
C3980 H3969 0.950 . S
C3980 C3978 1.391 . S
C3980 C3981 1.400 . S
C3981 C3975 1.491 . S
C3981 C3980 1.400 . S
C3981 C3982 1.398 . S
C3982 H3970 0.950 . S
C3982 C3981 1.398 . S
C3982 C3983 1.391 . S
C3983 H3971 0.950 . S
C3983 C3979 1.393 . S
C3983 C3982 1.391 . S
C1593 C978 0.989 . S
C1599 C21 0.961 . S
C1613 C54 0.992 . S
C1619 C1011 0.959 . S
C1633 C87 0.964 . S
C1639 C1044 0.979 . S
C1653 C945 0.972 . S
C1659 C120 0.971 . S
C1673 C912 0.965 . S
C1679 C153 0.980 . S
C1693 C813 0.993 . S
C1699 C186 0.956 . S
C1713 C219 0.977 . S
C1719 C846 0.967 . S
C1733 C879 0.958 . S
C1739 C252 0.992 . S
C1753 C285 0.976 . S
C1759 C1572 0.976 . S
C1773 C714 0.964 . S
C1779 C318 0.980 . S
C1793 C351 0.956 . S
C1799 C1539 0.989 . S
C1813 C549 0.958 . S
C1819 C384 0.985 . S
C1833 C417 0.974 . S
C1839 C681 0.969 . S
C1853 C450 0.989 . S
C1859 C1374 0.957 . S
C1873 C483 0.982 . S
C1879 C1407 0.972 . S
C1893 C1440 0.984 . S
C1899 C516 0.969 . S
C1913 C582 0.969 . S
C1919 C1242 0.974 . S
C1933 C1275 0.987 . S
C1939 C615 0.958 . S
C1953 C648 0.961 . S
C1959 C1308 0.983 . S
C1973 C747 0.956 . S
C1979 C1143 0.993 . S
C1993 C1077 0.993 . S
C1999 C780 0.955 . S
C2013 C1110 0.955 . S
C2019 C1506 0.993 . S
C2033 C1176 0.979 . S
C2039 C1341 0.974 . S
C2053 C1473 0.987 . S
C2059 C1209 0.965 . S
C2073 C744 1.344 . S
C2079 C18 1.343 . S
C2093 C1338 1.344 . S
C2099 C51 1.331 . S
C2113 C777 1.331 . S
C2119 C84 1.345 . S
C2133 C1503 1.341 . S
C2139 C117 1.327 . S
C2153 C612 1.329 . S
C2159 C150 1.324 . S
C2173 C183 1.325 . S
C2179 C645 1.327 . S
C2193 C1470 1.325 . S
C2199 C216 1.326 . S
C2213 C579 1.345 . S
C2219 C249 1.333 . S
C2233 C447 1.340 . S
C2239 C282 1.326 . S
C2253 C315 1.330 . S
C2259 C480 1.323 . S
C2273 C513 1.330 . S
C2279 C348 1.323 . S
C2293 C414 1.335 . S
C2299 C381 1.323 . S
C2313 C546 1.328 . S
C2319 C843 1.324 . S
C2333 C678 1.328 . S
C2339 C1008 1.324 . S
C2353 C711 1.344 . S
C2359 C909 1.343 . S
C2373 C810 1.337 . S
C2379 C1536 1.324 . S
C2393 C1569 1.335 . S
C2399 C876 1.323 . S
C2413 C1404 1.346 . S
C2419 C942 1.337 . S
C2433 C975 1.323 . S
C2439 C1437 1.335 . S
C2453 C1041 1.343 . S
C2459 C1371 1.329 . S
C2473 C1239 1.344 . S
C2479 C1074 1.343 . S
C2493 C1272 1.338 . S
C2499 C1107 1.346 . S
C2513 C1140 1.332 . S
C2519 C1305 1.323 . S
C2533 C1173 1.336 . S
C2539 C1206 1.346 . S
C2553 N233 0.573 . S
C2559 N2 0.548 . S
C2573 N134 0.635 . S
C2579 N35 0.574 . S
C2593 N167 0.545 . S
C2599 N68 0.593 . S
C2613 N200 0.640 . S
C2619 N101 0.590 . S
C2633 N266 0.617 . S
C2639 N662 0.554 . S
C2653 N1355 0.545 . S
C2659 N299 0.582 . S
C2673 N1388 0.641 . S
C2679 N332 0.604 . S
C2693 N365 0.618 . S
C2699 N1421 0.638 . S
C2713 N398 0.621 . S
C2719 N1553 0.557 . S
C2733 N431 0.548 . S
C2739 N695 0.571 . S
C2753 N1520 0.677 . S
C2759 N464 0.612 . S
C2773 N497 0.547 . S
C2779 N530 0.576 . S
C2793 N1091 0.546 . S
C2799 N563 0.600 . S
C2813 N596 0.629 . S
C2819 N1124 0.565 . S
C2833 N1157 0.547 . S
C2839 N629 0.605 . S
C2853 N728 0.564 . S
C2859 N1256 0.553 . S
C2873 N1190 0.620 . S
C2879 N761 0.556 . S
C2893 N1025 0.639 . S
C2899 N794 0.584 . S
C2913 N926 0.545 . S
C2919 N827 0.592 . S
C2933 N959 0.550 . S
C2939 N860 0.569 . S
C2953 N893 0.641 . S
C2959 N992 0.596 . S
C2973 N1058 0.581 . S
C2979 N1454 0.545 . S
C2993 N1487 0.639 . S
C2999 N1223 0.584 . S
C3013 N1322 0.547 . S
C3019 N1289 0.604 . S
C3033 N574 1.298 1_455 S
C3039 C7 1.627 . S
C3053 C40 1.628 . S
C3059 N607 1.293 . S
C3073 C73 1.628 . S
C3079 N640 1.298 . S
C3093 C106 1.639 . S
C3099 N1465 1.332 . S
C3113 N1333 1.331 1_455 S
C3119 C139 1.632 . S
C3133 N772 1.300 . S
C3139 C172 1.635 . S
C3153 N1498 1.341 . S
C3159 C205 1.638 . S
C3173 C238 1.633 . S
C3179 N739 1.335 . S
C3193 C271 1.627 . S
C3199 N1003 1.302 1_545 S
C3213 N1036 1.340 . S
C3219 C304 1.638 . S
C3233 N937 1.294 . S
C3239 C337 1.628 . S
C3253 N970 1.296 . S
C3259 C370 1.628 . S
C3273 N871 1.335 . S
C3279 C403 1.639 . S
C3293 C436 1.631 . S
C3299 N904 1.327 . S
C3313 N805 1.322 1_545 S
C3319 C469 1.639 . S
C3333 C502 1.639 . S
C3339 N838 1.325 . S
C3353 C535 1.628 . S
C3359 N343 1.291 1_554 S
C3373 C568 1.634 . S
C3379 N1267 1.295 . S
C3393 C601 1.639 . S
C3399 N1300 1.330 . S
C3413 C634 1.629 . S
C3419 N1201 1.316 . S
C3433 N442 1.335 . S
C3439 C667 1.633 . S
C3453 N277 1.292 . S
C3459 C700 1.633 . S
C3473 C733 1.637 . S
C3479 N1102 1.342 . S
C3493 N1168 1.288 . S
C3499 C766 1.630 . S
C3513 C799 1.633 . S
C3519 N1366 1.334 . S
C3533 N1399 1.342 . S
C3539 C832 1.638 . S
C3553 C865 1.631 . S
C3559 N1432 1.327 . S
C3573 C898 1.637 . S
C3579 N673 1.303 . S
C3593 C931 1.639 . S
C3599 N541 1.319 . S
C3613 C964 1.629 . S
C3619 N1564 1.289 . S
C3633 C997 1.628 . S
C3639 N706 1.308 . S
C3653 N1531 1.341 . S
C3659 C1030 1.637 . S
C3673 C1063 1.638 . S
C3679 N211 1.316 . S
C3693 C1096 1.634 . S
C3699 N244 1.293 . S
C3713 C1129 1.634 . S
C3719 N145 1.294 . S
C3733 N178 1.313 . S
C3739 C1162 1.638 . S
C3753 C1195 1.637 . S
C3759 N79 1.342 . S
C3773 N112 1.289 . S
C3779 C1228 1.629 . S
C3793 C1261 1.630 . S
C3799 N13 1.319 . S
C3813 C1294 1.628 . S
C3819 N46 1.294 . S
C3833 N1135 1.293 . S
C3839 C1327 1.633 . S
C3853 C1360 1.628 . S
C3859 N475 1.310 . S
C3873 N508 1.341 . S
C3879 C1393 1.639 . S
C3893 C1426 1.629 . S
C3899 N409 1.289 . S
C3913 N1234 1.340 . S
C3919 C1459 1.635 . S
C3933 N1069 1.322 1_554 S
C3939 C1492 1.639 . S
C3953 N310 1.339 . S
C3959 C1525 1.639 . S
C3973 N376 1.288 . S
C3979 C1558 1.629 . S
