# Generated by pormake.
# Topology acs-a, (4)-cn, num edge types: 1
# Building blocks:
#     Node 0, Type 0, BuildingBlock: QUQFOY_clean_sbu_3, # of connection points: 4
#     Node 1, Type 0, BuildingBlock: QUQFOY_clean_sbu_3, # of connection points: 4
#     Node 2, Type 0, BuildingBlock: QUQFOY_clean_sbu_3, # of connection points: 4
#     Node 3, Type 0, BuildingBlock: QUQFOY_clean_sbu_3, # of connection points: 4
#     Node 4, Type 0, BuildingBlock: QUQFOY_clean_sbu_3, # of connection points: 4
#     Node 5, Type 0, BuildingBlock: QUQFOY_clean_sbu_3, # of connection points: 4
#     Node 6, Type 0, BuildingBlock: QUQFOY_clean_sbu_3, # of connection points: 4
#     Node 7, Type 0, BuildingBlock: QUQFOY_clean_sbu_3, # of connection points: 4
#     Node 8, Type 0, BuildingBlock: QUQFOY_clean_sbu_3, # of connection points: 4
#     Node 9, Type 0, BuildingBlock: QUQFOY_clean_sbu_3, # of connection points: 4
#     Node 10, Type 0, BuildingBlock: QUQFOY_clean_sbu_3, # of connection points: 4
#     Node 11, Type 0, BuildingBlock: QUQFOY_clean_sbu_3, # of connection points: 4
#     Edge 12, Type (0, 0), BuildingBlock: AJUNOK_clean_linker_0, # of connection points: 2
#     Edge 13, Type (0, 0), BuildingBlock: AJUNOK_clean_linker_0, # of connection points: 2
#     Edge 14, Type (0, 0), BuildingBlock: AJUNOK_clean_linker_0, # of connection points: 2
#     Edge 15, Type (0, 0), BuildingBlock: AJUNOK_clean_linker_0, # of connection points: 2
#     Edge 16, Type (0, 0), BuildingBlock: AJUNOK_clean_linker_0, # of connection points: 2
#     Edge 17, Type (0, 0), BuildingBlock: AJUNOK_clean_linker_0, # of connection points: 2
#     Edge 18, Type (0, 0), BuildingBlock: AJUNOK_clean_linker_0, # of connection points: 2
#     Edge 19, Type (0, 0), BuildingBlock: AJUNOK_clean_linker_0, # of connection points: 2
#     Edge 20, Type (0, 0), BuildingBlock: AJUNOK_clean_linker_0, # of connection points: 2
#     Edge 21, Type (0, 0), BuildingBlock: AJUNOK_clean_linker_0, # of connection points: 2
#     Edge 22, Type (0, 0), BuildingBlock: AJUNOK_clean_linker_0, # of connection points: 2
#     Edge 23, Type (0, 0), BuildingBlock: AJUNOK_clean_linker_0, # of connection points: 2
#     Edge 24, Type (0, 0), BuildingBlock: AJUNOK_clean_linker_0, # of connection points: 2
#     Edge 25, Type (0, 0), BuildingBlock: AJUNOK_clean_linker_0, # of connection points: 2
#     Edge 26, Type (0, 0), BuildingBlock: AJUNOK_clean_linker_0, # of connection points: 2
#     Edge 27, Type (0, 0), BuildingBlock: AJUNOK_clean_linker_0, # of connection points: 2
#     Edge 28, Type (0, 0), BuildingBlock: AJUNOK_clean_linker_0, # of connection points: 2
#     Edge 29, Type (0, 0), BuildingBlock: AJUNOK_clean_linker_0, # of connection points: 2
#     Edge 30, Type (0, 0), BuildingBlock: AJUNOK_clean_linker_0, # of connection points: 2
#     Edge 31, Type (0, 0), BuildingBlock: AJUNOK_clean_linker_0, # of connection points: 2
#     Edge 32, Type (0, 0), BuildingBlock: AJUNOK_clean_linker_0, # of connection points: 2
#     Edge 33, Type (0, 0), BuildingBlock: AJUNOK_clean_linker_0, # of connection points: 2
#     Edge 34, Type (0, 0), BuildingBlock: AJUNOK_clean_linker_0, # of connection points: 2
#     Edge 35, Type (0, 0), BuildingBlock: AJUNOK_clean_linker_0, # of connection points: 2
# Relax obj value: 0.491
# Max RMSD: 0.253
# Mean RMSD: 0.232
data_MOF--net-acs-a--node1-QUQFOY_clean_sbu_3--edge1-AJUNOK_clean_linker_0
_symmetry_space_group_name_H-M    P1
_symmetry_Int_Tables_number       1
_symmetry_cell_setting            triclinic
loop_
_symmetry_equiv_pos_as_xyz
'x, y, z'
_cell_length_a     38.817043
_cell_length_b     39.211054
_cell_length_c     29.596816
_cell_angle_alpha  89.655839
_cell_angle_beta   90.446465
_cell_angle_gamma 114.46594
loop_
_atom_site_label
_atom_site_type_symbol
_atom_site_fract_x
_atom_site_fract_y
_atom_site_fract_z
_atom_type_partial_charge
C0 C 0.66845 0.15381 -0.00864 0.0
O1 O 0.63923 0.15898 0.98211 0.0
Cd2 Cd 0.59461 0.11047 0.03588 0.0
O3 O 0.66383 0.12798 0.01937 0.0
Cd4 Cd 0.59541 0.11058 0.03857 0.0
C5 C 0.54662 0.15243 0.02563 0.0
O6 O 0.61859 0.11395 0.11503 0.0
O7 O 0.55843 0.09258 0.11058 0.0
O8 O 0.58036 0.04412 0.01864 0.0
C9 C 0.58729 0.10042 0.1355 0.0
O10 O 0.53372 0.11966 0.04156 0.0
C11 C 0.54819 0.03782 0.00172 0.0
O12 O 0.58108 0.16604 0.01443 0.0
O13 O 0.54011 0.06566 -0.00429 0.0
C14 C 0.40212 0.6544 0.52994 0.0
O15 O 0.4303 0.65777 0.55422 0.0
Cd16 Cd 0.40931 0.58959 0.55558 0.0
O17 O 0.38239 0.62231 0.51403 0.0
Cd18 Cd 0.40074 0.56967 0.543 0.0
C19 C 0.31994 0.54616 0.54189 0.0
O20 O 0.42795 0.57872 0.62414 0.0
O21 O 0.3787 0.52806 0.61019 0.0
O22 O 0.46196 0.57916 0.50972 0.0
C23 C 0.40423 0.5473 0.63819 0.0
O24 O 0.34011 0.56964 0.57088 0.0
C25 C 0.44827 0.54632 0.49312 0.0
O26 O 0.33664 0.5345 0.51346 0.0
O27 O 0.41291 0.52713 0.49682 0.0
C28 C 0.7385 0.37581 0.03039 0.0
O29 O 0.73863 0.34508 0.01828 0.0
Cd30 Cd 0.8011 0.35631 0.05112 0.0
O31 O 0.7683 0.39887 0.04916 0.0
Cd32 Cd 0.81469 0.3695 0.05018 0.0
C33 C 0.79127 0.29054 0.00525 0.0
O34 O 0.79543 0.36326 0.12966 0.0
O35 O 0.84021 0.34614 0.11731 0.0
O36 O 0.84968 0.43544 0.03474 0.0
C37 C 0.81976 0.35302 0.14594 0.0
O38 O 0.80403 0.29486 0.0452 0.0
C39 C 0.8812 0.43351 0.03007 0.0
O40 O 0.78959 0.31907 0.987 0.0
O41 O 0.88129 0.4012 0.03225 0.0
C42 C 0.23139 0.78518 0.53642 0.0
O43 O 0.22594 0.77435 0.57725 0.0
Cd44 Cd 0.27404 0.77952 0.6296 0.0
O45 O 0.26465 0.80565 0.5225 0.0
Cd46 Cd 0.32624 0.83864 0.56432 0.0
C47 C 0.33533 0.75816 0.56365 0.0
O48 O 0.30797 0.84469 0.6423 0.0
O49 O 0.36334 0.84618 0.63343 0.0
O50 O 0.34476 0.90239 0.53479 0.0
C51 C 0.33985 0.85054 0.65955 0.0
O52 O 0.31103 0.74806 0.59529 0.0
C53 C 0.37683 0.90458 0.52195 0.0
O54 O 0.34528 0.78984 0.54473 0.0
O55 O 0.38307 0.87547 0.52584 0.0
C56 C 0.49339 0.26231 0.06521 0.0
O57 O 0.49958 0.26521 0.10747 0.0
Cd58 Cd 0.5266 0.32353 0.14554 0.0
O59 O 0.49489 0.29035 0.04191 0.0
Cd60 Cd 0.50238 0.35521 0.06006 0.0
C61 C 0.59282 0.37171 0.06352 0.0
O62 O 0.48427 0.35177 0.13774 0.0
O63 O 0.52652 0.40524 0.11766 0.0
O64 O 0.44182 0.35065 0.03178 0.0
C65 C 0.50423 0.38552 0.14813 0.0
O66 O 0.58517 0.35824 0.10336 0.0
C67 C 0.45637 0.37989 0.00741 0.0
O68 O 0.56712 0.3724 0.03713 0.0
O69 O 0.49223 0.39512 0.00452 0.0
C70 C 0.17888 0.5591 0.53743 0.0
O71 O 0.18063 0.59048 0.52433 0.0
Cd72 Cd 0.11748 0.58163 0.55322 0.0
O73 O 0.14838 0.53728 0.55558 0.0
Cd74 Cd 0.10644 0.57133 0.55183 0.0
C75 C 0.12847 0.64973 0.50873 0.0
O76 O 0.11953 0.57383 0.63291 0.0
O77 O 0.07309 0.58772 0.6163 0.0
O78 O 0.06992 0.50677 0.53253 0.0
C79 C 0.09218 0.58029 0.64674 0.0
O80 O 0.10815 0.64035 0.54362 0.0
C81 C 0.04133 0.51161 0.51867 0.0
O82 O 0.13932 0.62562 0.49414 0.0
O83 O 0.04394 0.54499 0.51788 0.0
C84 C 0.78424 0.25293 0.4874 0.0
O85 O 0.80156 0.24502 0.4561 0.0
Cd86 Cd 0.78442 0.28221 0.40309 0.0
O87 O 0.78801 0.28666 0.489 0.0
Cd88 Cd 0.82952 0.33845 0.43783 0.0
C89 C 0.75154 0.34404 0.44804 0.0
O90 O 0.83823 0.31866 0.36025 0.0
O91 O 0.81989 0.36324 0.36532 0.0
O92 O 0.89366 0.3563 0.46717 0.0
C93 C 0.83207 0.34438 0.34062 0.0
O94 O 0.74198 0.31272 0.42788 0.0
C95 C 0.89858 0.39019 0.47263 0.0
O96 O 0.78582 0.36284 0.45857 0.0
O97 O 0.87093 0.39837 0.46377 0.0
C98 C 0.38105 0.75327 0.96634 0.0
O99 O 0.4094 0.78083 0.9515 0.0
Cd100 Cd 0.37282 0.81938 0.94343 0.0
O101 O 0.35206 0.7591 0.97433 0.0
Cd102 Cd 0.36619 0.82747 0.95005 0.0
C103 C 0.28814 0.79476 0.97342 0.0
O104 O 0.3847 0.83441 0.868 0.0
O105 O 0.33444 0.84227 0.88191 0.0
O106 O 0.43413 0.86236 0.9722 0.0
C107 C 0.35856 0.84255 0.85302 0.0
O108 O 0.30207 0.78032 0.94477 0.0
C109 C 0.42863 0.88989 0.98743 0.0
O110 O 0.31031 0.82443 -0.00723 0.0
O111 O 0.39479 0.88679 0.98777 0.0
C112 C 0.63855 0.4036 0.45974 0.0
O113 O 0.64367 0.43192 0.43548 0.0
Cd114 Cd 0.57538 0.41184 0.42634 0.0
O115 O 0.60503 0.38352 0.4718 0.0
Cd116 Cd 0.55495 0.40355 0.43622 0.0
C117 C 0.52596 0.32385 0.44007 0.0
O118 O 0.56963 0.42861 0.3544 0.0
O119 O 0.51726 0.38071 0.36596 0.0
O120 O 0.56467 0.46618 0.46382 0.0
C121 C 0.53849 0.4053 0.3385 0.0
O122 O 0.55271 0.34277 0.41382 0.0
C123 C 0.52957 0.45459 0.4724 0.0
O124 O 0.51347 0.34139 0.46623 0.0
O125 O 0.50955 0.41956 0.47125 0.0
C126 C 0.14844 0.68953 0.93905 0.0
O127 O 0.15739 0.68792 0.89822 0.0
Cd128 Cd 0.13636 0.636 0.84852 0.0
O129 O 0.12382 0.66098 0.9588 0.0
Cd130 Cd 0.0833 0.59723 0.93083 0.0
C131 C 0.15499 0.57325 0.91573 0.0
O132 O 0.07015 0.61045 0.85378 0.0
O133 O 0.06415 0.55444 0.86543 0.0
O134 O 0.02279 0.58625 0.9653 0.0
C135 C 0.0614 0.57808 0.83794 0.0
O136 O 0.1596 0.59046 0.87806 0.0
C137 C 0.02131 0.55757 0.98694 0.0
O138 O 0.13155 0.57436 0.94465 0.0
O139 O 0.05002 0.55007 0.98482 0.0
C140 C 0.53609 0.18975 0.41037 0.0
O141 O 0.55674 0.19989 0.37556 0.0
Cd142 Cd 0.59368 0.16958 0.3497 0.0
O143 O 0.53201 0.16021 0.43219 0.0
Cd144 Cd 0.55127 0.10775 0.41784 0.0
C145 C 0.63753 0.16209 0.45011 0.0
O146 O 0.54631 0.10853 0.33747 0.0
O147 O 0.58334 0.08376 0.36017 0.0
O148 O 0.48611 0.06528 0.43286 0.0
C149 C 0.56497 0.08989 0.32788 0.0
O150 O 0.63932 0.176 0.41074 0.0
C151 C 0.49458 0.04304 0.45707 0.0
O152 O 0.60713 0.13655 0.46465 0.0
O153 O 0.52953 0.05151 0.4634 0.0
C154 C 0.25796 0.5073 0.90674 0.0
O155 O 0.25953 0.50439 0.86429 0.0
Cd156 Cd 0.31924 0.54013 0.83365 0.0
O157 O 0.2878 0.51568 0.93084 0.0
Cd158 Cd 0.35328 0.51933 0.91547 0.0
C159 C 0.36393 0.60529 0.92042 0.0
O160 O 0.34912 0.49922 0.83864 0.0
O161 O 0.40279 0.5427 0.85685 0.0
O162 O 0.34385 0.45861 0.94679 0.0
C163 C 0.38316 0.51849 0.82804 0.0
O164 O 0.34525 0.59564 0.88353 0.0
C165 C 0.37677 0.47131 0.96423 0.0
O166 O 0.37363 0.58265 0.94218 0.0
O167 O 0.39585 0.50657 0.96417 0.0
C168 C 0.54124 0.07458 0.25002 0.0
C169 C 0.57202 0.08546 0.28004 0.0
C170 C 0.54675 0.0784 0.20342 0.0
C171 C 0.58337 0.09383 0.1849 0.0
H172 H 0.51261 0.06449 0.2628 0.0
H173 H 0.52194 0.07039 0.1819 0.0
S174 S 0.6735 0.12445 0.24944 0.0
N175 N 0.64034 0.11024 0.28859 0.0
N176 N 0.651 0.11782 0.20042 0.0
C177 C 0.61449 0.10317 0.21452 0.0
C178 C 0.60874 0.09885 0.26229 0.0
C179 C 0.42779 0.56165 0.71745 0.0
C180 C 0.40372 0.5359 0.68589 0.0
C181 C 0.42319 0.55447 0.76389 0.0
C182 C 0.39431 0.52132 0.78022 0.0
H183 H 0.44895 0.58852 0.70647 0.0
H184 H 0.44069 0.57616 0.78699 0.0
S185 S 0.32937 0.4414 0.71147 0.0
N186 N 0.35407 0.47342 0.67405 0.0
N187 N 0.34555 0.45988 0.7614 0.0
C188 C 0.37262 0.49378 0.74897 0.0
C189 C 0.37725 0.5011 0.70172 0.0
C190 C 0.81053 0.37028 0.22399 0.0
C191 C 0.82464 0.35077 0.19519 0.0
C192 C 0.81441 0.36907 0.27082 0.0
C193 C 0.83208 0.34782 0.29086 0.0
H194 H 0.79634 0.38678 0.21029 0.0
H195 H 0.80258 0.38426 0.29145 0.0
S196 S 0.87503 0.29254 0.23026 0.0
N197 N 0.85815 0.31054 0.18971 0.0
N198 N 0.86498 0.30769 0.27819 0.0
C199 C 0.84697 0.32863 0.26246 0.0
C200 C 0.84336 0.33025 0.21452 0.0
C201 C 0.32002 0.84378 0.78541 0.0
C202 C 0.35527 0.84936 0.80435 0.0
C203 C 0.31553 0.84577 0.73852 0.0
C204 C 0.34618 0.85353 0.70902 0.0
H205 H 0.29538 0.83634 0.80672 0.0
H206 H 0.28752 0.83978 0.7253 0.0
S207 S 0.4456 0.87603 0.74247 0.0
N208 N 0.42218 0.86694 0.79055 0.0
N209 N 0.41384 0.87091 0.70265 0.0
C210 C 0.38204 0.8614 0.72785 0.0
C211 C 0.38656 0.85922 0.77547 0.0
C212 C 0.4945 0.37597 0.2745 0.0
C213 C 0.5281 0.40483 0.29031 0.0
C214 C 0.48579 0.37173 0.22847 0.0
C215 C 0.51033 0.39615 0.19631 0.0
H216 H 0.47536 0.35546 0.29763 0.0
H217 H 0.4604 0.348 0.21791 0.0
S218 S 0.59888 0.48005 0.22078 0.0
N219 N 0.58382 0.46107 0.27079 0.0
N220 N 0.56742 0.45306 0.18388 0.0
C221 C 0.54257 0.42694 0.21184 0.0
C222 C 0.55152 0.43123 0.25894 0.0
C223 C 0.06272 0.59775 0.7125 0.0
C224 C 0.0821 0.57745 0.69504 0.0
C225 C 0.05436 0.59632 0.7587 0.0
C226 C 0.06418 0.57376 0.78871 0.0
H227 H 0.05508 0.61583 0.69065 0.0
H228 H 0.04096 0.61372 0.77124 0.0
S229 S 0.11201 0.51235 0.75865 0.0
N230 N 0.10882 0.53236 0.71055 0.0
N231 N 0.09229 0.52887 0.79695 0.0
C232 C 0.08182 0.5518 0.77112 0.0
C233 C 0.09106 0.55393 0.72438 0.0
C234 C 0.52548 -0.02982 0.98214 0.0
C235 C 0.51838 -0.00025 -0.00034 0.0
C236 C 0.4967 0.93381 0.98065 0.0
C237 C 0.46031 0.92605 -0.0026 0.0
H238 H 0.55301 -0.02461 0.96839 0.0
H239 H 0.50261 0.91204 0.96468 0.0
S240 S 0.43043 -0.00706 0.05534 0.0
N241 N 0.47443 0.01839 0.03964 0.0
N242 N 0.42063 0.95002 0.03778 0.0
C243 C 0.45392 0.95506 0.01801 0.0
C244 C 0.48291 -0.00801 0.01885 0.0
C245 C 0.50898 0.53893 0.49725 0.0
C246 C 0.47239 0.52781 0.47873 0.0
C247 C 0.52814 0.51552 0.49459 0.0
C248 C 0.51087 0.48027 0.47395 0.0
H249 H 0.5219 0.56471 0.5163 0.0
H250 H 0.55573 0.52426 0.5104 0.0
S251 S 0.41902 0.44184 0.41228 0.0
N252 N 0.42243 0.48209 0.43303 0.0
N253 N 0.45797 0.43795 0.4286 0.0
C254 C 0.47565 0.47027 0.45231 0.0
C255 C 0.45655 0.49416 0.45445 0.0
C256 C -0.01471 0.4962 0.02372 0.0
C257 C -0.01418 0.52991 0.00638 0.0
C258 C 0.95124 0.46541 0.0319 0.0
C259 C 0.91643 0.46732 0.02374 0.0
H260 H 0.01133 0.49273 0.02879 0.0
H261 H 0.9523 0.43967 0.04382 0.0
S262 S 0.90219 0.55074 0.98482 0.0
N263 N 0.94858 0.56468 0.98586 0.0
N264 N 0.88427 0.50669 0.00199 0.0
C265 C 0.91643 0.50165 0.00971 0.0
C266 C 0.95123 0.53305 0.00099 0.0
C267 C 0.42652 0.00065 0.46917 0.0
C268 C 0.46504 0.00826 0.4755 0.0
C269 C 0.39791 -0.03287 0.4846 0.0
C270 C 0.40691 0.93991 0.50619 0.0
H271 H 0.41833 0.02062 0.45193 0.0
H272 H 0.36864 0.96225 0.4789 0.0
S273 S 0.50312 0.94714 0.53421 0.0
N274 N 0.51046 -0.01351 0.50729 0.0
N275 N 0.45674 0.92341 0.5357 0.0
C276 C 0.44522 0.94739 0.51353 0.0
C277 C 0.47429 -0.01838 0.49836 0.0
C278 C 0.37901 0.41467 0.00086 0.0
C279 C 0.39564 0.44648 0.97337 0.0
C280 C 0.39783 0.39151 0.00951 0.0
C281 C 0.43346 0.39927 -0.00973 0.0
H282 H 0.35202 0.40839 0.01682 0.0
H283 H 0.38513 0.36841 0.03296 0.0
S284 S 0.48454 0.47509 0.90829 0.0
N285 N 0.4467 0.48182 0.92203 0.0
N286 N 0.48176 0.43804 0.93751 0.0
C287 C 0.4488 0.4295 0.96004 0.0
C288 C 0.42996 0.45323 0.95183 0.0
C289 C 0.94228 0.45732 0.47498 0.0
C290 C 0.93531 0.41998 0.48531 0.0
C291 C -0.02306 0.48663 0.48519 0.0
C292 C 0.00593 0.47974 0.50626 0.0
H293 H 0.92092 0.4641 0.45838 0.0
H294 H -0.01908 0.51491 0.47653 0.0
S295 S 0.00118 0.38704 0.54263 0.0
N296 N -0.04041 0.37758 0.51892 0.0
N297 N 0.02511 0.4329 0.53865 0.0
C298 C -0.00066 0.44251 0.5171 0.0
C299 C -0.03609 0.41255 0.5065 0.0
C300 C 0.53788 0.20957 0.00177 0.0
C301 C 0.5244 0.17536 0.02554 0.0
C302 C 0.52331 0.23621 0.01 0.0
C303 C 0.49536 0.22973 0.04292 0.0
H304 H 0.56165 0.21696 0.97904 0.0
H305 H 0.53696 0.26351 -0.00584 0.0
S306 S 0.44485 0.14183 0.10702 0.0
N307 N 0.47652 0.13388 0.07714 0.0
N308 N 0.45034 0.18473 0.09368 0.0
C309 C 0.47871 0.19416 0.06301 0.0
C310 C 0.49297 0.16671 0.05406 0.0
C311 C 0.27317 0.56217 0.50143 0.0
C312 C 0.28076 0.54094 0.53522 0.0
C313 C 0.2393 0.56674 0.50128 0.0
C314 C 0.2117 0.54953 0.53441 0.0
H315 H 0.29466 0.57751 0.47685 0.0
H316 H 0.23529 0.58492 0.47604 0.0
S317 S 0.21695 0.48788 0.62741 0.0
N318 N 0.25774 0.50081 0.60087 0.0
N319 N 0.19299 0.5078 0.59969 0.0
C320 C 0.21795 0.52601 0.56651 0.0
C321 C 0.25289 0.52217 0.56722 0.0
C322 C 0.76833 0.22138 0.01235 0.0
C323 C 0.77008 0.25242 0.98673 0.0
C324 C 0.73709 0.18675 0.00887 0.0
C325 C 0.70661 0.18229 0.97991 0.0
H326 H 0.7889 0.22486 0.03888 0.0
H327 H 0.73488 0.16501 0.03292 0.0
S328 S 0.70489 0.25032 0.89338 0.0
N329 N 0.74447 0.27304 0.922 0.0
N330 N 0.68533 0.20805 0.91614 0.0
C331 C 0.71144 0.21088 0.94845 0.0
C332 C 0.74347 0.24604 0.95163 0.0
C333 C 0.33054 0.6954 0.54143 0.0
C334 C 0.35311 0.73335 0.54963 0.0
C335 C 0.34699 0.67074 0.53116 0.0
C336 C 0.38664 0.68295 0.53019 0.0
H337 H 0.3 0.68459 0.54369 0.0
H338 H 0.32842 0.6414 0.52676 0.0
S339 S 0.45793 0.7803 0.54658 0.0
N340 N 0.41681 0.78286 0.55291 0.0
N341 N 0.4479 0.73587 0.5358 0.0
C342 C 0.40948 0.72113 0.53678 0.0
C343 C 0.39264 0.74652 0.54596 0.0
C344 C 0.66255 0.40381 0.07173 0.0
C345 C 0.63094 0.38068 0.04629 0.0
C346 C 0.69839 0.40488 0.06318 0.0
C347 C 0.7034 0.38181 0.02997 0.0
H348 H 0.65913 0.41951 0.10004 0.0
H349 H 0.72158 0.42154 0.08529 0.0
S350 S 0.63004 0.31963 0.95082 0.0
N351 N 0.60733 0.3375 0.98337 0.0
N352 N 0.67454 0.33832 0.96828 0.0
C353 C 0.67248 0.36067 0.00213 0.0
C354 C 0.63619 0.36038 0.0101 0.0
C355 C 0.18099 0.70215 0.47046 0.0
C356 C 0.14633 0.68934 0.49368 0.0
C357 C 0.20793 0.7392 0.47563 0.0
C358 C 0.20081 0.76378 0.50464 0.0
H359 H 0.18962 0.68247 0.45374 0.0
H360 H 0.23638 0.74621 0.46364 0.0
S361 S 0.1085 0.74873 0.55436 0.0
N362 N 0.10162 0.70777 0.53232 0.0
N363 N 0.15269 0.77718 0.54254 0.0
C364 C 0.16339 0.75381 0.51849 0.0
C365 C 0.13594 0.71627 0.51324 0.0
C366 C 0.6848 0.33599 0.45859 0.0
C367 C 0.72353 0.35975 0.45676 0.0
C368 C 0.65764 0.35057 0.46327 0.0
C369 C 0.66817 0.38952 0.46492 0.0
H370 H 0.67529 0.30595 0.45537 0.0
H371 H 0.62804 0.33117 0.46287 0.0
S372 S 0.76584 0.46375 0.46427 0.0
N373 N 0.77119 0.42425 0.46005 0.0
N374 N 0.71976 0.45145 0.46697 0.0
C375 C 0.70675 0.41355 0.46467 0.0
C376 C 0.73453 0.39872 0.46103 0.0
C377 C 0.22338 0.78468 0.95252 0.0
C378 C 0.24756 0.77704 0.98232 0.0
C379 C 0.18682 0.75752 0.94399 0.0
C380 C 0.17379 0.72216 0.965 0.0
H381 H 0.23429 0.80962 0.93154 0.0
H382 H 0.17069 0.76234 0.91656 0.0
S383 S 0.22382 0.69245 0.05322 0.0
N384 N 0.25419 0.73499 0.03862 0.0
N385 N 0.18512 0.68391 0.02311 0.0
C386 C 0.1956 0.71672 5e-05 0.0
C387 C 0.23293 0.74425 0.00838 0.0
C388 C 0.50149 0.22887 0.39511 0.0
C389 C 0.51972 0.21494 0.42663 0.0
C390 C 0.49856 0.26268 0.40272 0.0
C391 C 0.51366 0.28331 0.44211 0.0
H392 H 0.49284 0.21548 0.3625 0.0
H393 H 0.488 0.2746 0.3757 0.0
S394 S 0.56003 0.25666 0.53716 0.0
N395 N 0.54942 0.22207 0.50055 0.0
N396 N 0.54383 0.28595 0.51491 0.0
C397 C 0.52818 0.26771 0.476 0.0
C398 C 0.5312 0.23322 0.46824 0.0
C399 C 0.20836 0.56331 0.95143 0.0
C400 C 0.17559 0.54989 0.92442 0.0
C401 C 0.23306 0.5454 0.95132 0.0
C402 C 0.22567 0.51392 0.92376 0.0
H403 H 0.21642 0.58933 0.96982 0.0
H404 H 0.25993 0.55876 0.96886 0.0
S405 S 0.1389 0.46345 0.85574 0.0
N406 N 0.13348 0.50001 0.87623 0.0
N407 N 0.17982 0.46627 0.87585 0.0
C408 C 0.19059 0.49781 0.90126 0.0
C409 C 0.16564 0.51605 0.90132 0.0
C410 C 0.69993 0.16428 0.47179 0.0
C411 C 0.67145 0.17685 0.4787 0.0
C412 C 0.73742 0.18664 0.48417 0.0
C413 C 0.74753 0.22295 0.50172 0.0
H414 H 0.69393 0.13896 0.45263 0.0
H415 H 0.75907 0.1777 0.47369 0.0
S416 S 0.68048 0.26189 0.54046 0.0
N417 N 0.65352 0.22232 0.51495 0.0
N418 N 0.72413 0.26479 0.53808 0.0
C419 C 0.71808 0.23232 0.51642 0.0
C420 C 0.67989 0.20937 0.50408 0.0
C421 C 0.33857 0.64883 0.95012 0.0
C422 C 0.37017 0.64165 0.9401 0.0
C423 C 0.34278 0.68457 0.96298 0.0
C424 C 0.37877 0.7147 0.96497 0.0
H425 H 0.31026 0.62692 0.94645 0.0
H426 H 0.31737 0.68904 0.96829 0.0
S427 S 0.47072 0.70896 0.94686 0.0
N428 N 0.43869 0.66593 0.93749 0.0
N429 N 0.44687 0.73391 0.96023 0.0
C430 C 0.4108 0.70723 0.95777 0.0
C431 C 0.40644 0.67046 0.94556 0.0
loop_
_geom_bond_atom_site_label_1
_geom_bond_atom_site_label_2
_geom_bond_distance
_geom_bond_site_symmetry_2
_ccdc_geom_bond_type
C0 O1 1.306 . S
C0 O3 1.160 . S
O1 C0 1.306 . S
O1 Cd2 2.228 . S
Cd2 O1 2.228 . S
Cd2 O6 2.273 . S
Cd2 O10 2.277 . S
O3 C0 1.160 . S
O3 Cd4 2.203 . S
Cd4 O3 2.203 . S
Cd4 O6 2.411 . S
Cd4 O7 2.333 . S
Cd4 O8 2.352 . S
Cd4 O12 2.277 . S
Cd4 O13 2.356 . S
C5 O10 1.209 . S
C5 O12 1.226 . S
O6 Cd2 2.273 . S
O6 Cd4 2.411 . S
O6 C9 1.320 . S
O7 Cd4 2.333 . S
O7 C9 1.214 . S
O8 Cd4 2.352 . S
O8 C11 1.258 . S
C9 O6 1.320 . S
C9 O7 1.214 . S
O10 Cd2 2.277 . S
O10 C5 1.209 . S
C11 O8 1.258 . S
C11 O13 1.282 . S
O12 Cd4 2.277 . S
O12 C5 1.226 . S
O13 Cd4 2.356 . S
O13 C11 1.282 . S
C14 O15 1.306 . S
C14 O17 1.160 . S
O15 C14 1.306 . S
O15 Cd16 2.228 . S
Cd16 O15 2.228 . S
Cd16 O20 2.273 . S
Cd16 O24 2.277 . S
O17 C14 1.160 . S
O17 Cd18 2.203 . S
Cd18 O17 2.203 . S
Cd18 O20 2.411 . S
Cd18 O21 2.333 . S
Cd18 O22 2.352 . S
Cd18 O26 2.277 . S
Cd18 O27 2.356 . S
C19 O24 1.209 . S
C19 O26 1.226 . S
O20 Cd16 2.273 . S
O20 Cd18 2.411 . S
O20 C23 1.320 . S
O21 Cd18 2.333 . S
O21 C23 1.214 . S
O22 Cd18 2.352 . S
O22 C25 1.258 . S
C23 O20 1.320 . S
C23 O21 1.214 . S
O24 Cd16 2.277 . S
O24 C19 1.209 . S
C25 O22 1.258 . S
C25 O27 1.282 . S
O26 Cd18 2.277 . S
O26 C19 1.226 . S
O27 Cd18 2.356 . S
O27 C25 1.282 . S
C28 O29 1.306 . S
C28 O31 1.160 . S
O29 C28 1.306 . S
O29 Cd30 2.228 . S
Cd30 O29 2.228 . S
Cd30 O34 2.273 . S
Cd30 O38 2.277 . S
O31 C28 1.160 . S
O31 Cd32 2.203 . S
Cd32 O31 2.203 . S
Cd32 O34 2.411 . S
Cd32 O35 2.333 . S
Cd32 O36 2.352 . S
Cd32 O40 2.277 . S
Cd32 O41 2.356 . S
C33 O38 1.209 . S
C33 O40 1.226 . S
O34 Cd30 2.273 . S
O34 Cd32 2.411 . S
O34 C37 1.320 . S
O35 Cd32 2.333 . S
O35 C37 1.214 . S
O36 Cd32 2.352 . S
O36 C39 1.258 . S
C37 O34 1.320 . S
C37 O35 1.214 . S
O38 Cd30 2.277 . S
O38 C33 1.209 . S
C39 O36 1.258 . S
C39 O41 1.282 . S
O40 Cd32 2.277 . S
O40 C33 1.226 . S
O41 Cd32 2.356 . S
O41 C39 1.282 . S
C42 O43 1.306 . S
C42 O45 1.160 . S
O43 C42 1.306 . S
O43 Cd44 2.228 . S
Cd44 O43 2.228 . S
Cd44 O48 2.273 . S
Cd44 O52 2.277 . S
O45 C42 1.160 . S
O45 Cd46 2.203 . S
Cd46 O45 2.203 . S
Cd46 O48 2.411 . S
Cd46 O49 2.333 . S
Cd46 O50 2.352 . S
Cd46 O54 2.277 . S
Cd46 O55 2.356 . S
C47 O52 1.209 . S
C47 O54 1.226 . S
O48 Cd44 2.273 . S
O48 Cd46 2.411 . S
O48 C51 1.320 . S
O49 Cd46 2.333 . S
O49 C51 1.214 . S
O50 Cd46 2.352 . S
O50 C53 1.258 . S
C51 O48 1.320 . S
C51 O49 1.214 . S
O52 Cd44 2.277 . S
O52 C47 1.209 . S
C53 O50 1.258 . S
C53 O55 1.282 . S
O54 Cd46 2.277 . S
O54 C47 1.226 . S
O55 Cd46 2.356 . S
O55 C53 1.282 . S
C56 O57 1.306 . S
C56 O59 1.160 . S
O57 C56 1.306 . S
O57 Cd58 2.228 . S
Cd58 O57 2.228 . S
Cd58 O62 2.273 . S
Cd58 O66 2.277 . S
O59 C56 1.160 . S
O59 Cd60 2.203 . S
Cd60 O59 2.203 . S
Cd60 O62 2.411 . S
Cd60 O63 2.333 . S
Cd60 O64 2.352 . S
Cd60 O68 2.277 . S
Cd60 O69 2.356 . S
C61 O66 1.209 . S
C61 O68 1.226 . S
O62 Cd58 2.273 . S
O62 Cd60 2.411 . S
O62 C65 1.320 . S
O63 Cd60 2.333 . S
O63 C65 1.214 . S
O64 Cd60 2.352 . S
O64 C67 1.258 . S
C65 O62 1.320 . S
C65 O63 1.214 . S
O66 Cd58 2.277 . S
O66 C61 1.209 . S
C67 O64 1.258 . S
C67 O69 1.282 . S
O68 Cd60 2.277 . S
O68 C61 1.226 . S
O69 Cd60 2.356 . S
O69 C67 1.282 . S
C70 O71 1.306 . S
C70 O73 1.160 . S
O71 C70 1.306 . S
O71 Cd72 2.228 . S
Cd72 O71 2.228 . S
Cd72 O76 2.273 . S
Cd72 O80 2.277 . S
O73 C70 1.160 . S
O73 Cd74 2.203 . S
Cd74 O73 2.203 . S
Cd74 O76 2.411 . S
Cd74 O77 2.333 . S
Cd74 O78 2.352 . S
Cd74 O82 2.277 . S
Cd74 O83 2.356 . S
C75 O80 1.209 . S
C75 O82 1.226 . S
O76 Cd72 2.273 . S
O76 Cd74 2.411 . S
O76 C79 1.320 . S
O77 Cd74 2.333 . S
O77 C79 1.214 . S
O78 Cd74 2.352 . S
O78 C81 1.258 . S
C79 O76 1.320 . S
C79 O77 1.214 . S
O80 Cd72 2.277 . S
O80 C75 1.209 . S
C81 O78 1.258 . S
C81 O83 1.282 . S
O82 Cd74 2.277 . S
O82 C75 1.226 . S
O83 Cd74 2.356 . S
O83 C81 1.282 . S
C84 O85 1.306 . S
C84 O87 1.160 . S
O85 C84 1.306 . S
O85 Cd86 2.228 . S
Cd86 O85 2.228 . S
Cd86 O90 2.273 . S
Cd86 O94 2.277 . S
O87 C84 1.160 . S
O87 Cd88 2.203 . S
Cd88 O87 2.203 . S
Cd88 O90 2.411 . S
Cd88 O91 2.333 . S
Cd88 O92 2.352 . S
Cd88 O96 2.277 . S
Cd88 O97 2.356 . S
C89 O94 1.209 . S
C89 O96 1.226 . S
O90 Cd86 2.273 . S
O90 Cd88 2.411 . S
O90 C93 1.320 . S
O91 Cd88 2.333 . S
O91 C93 1.214 . S
O92 Cd88 2.352 . S
O92 C95 1.258 . S
C93 O90 1.320 . S
C93 O91 1.214 . S
O94 Cd86 2.277 . S
O94 C89 1.209 . S
C95 O92 1.258 . S
C95 O97 1.282 . S
O96 Cd88 2.277 . S
O96 C89 1.226 . S
O97 Cd88 2.356 . S
O97 C95 1.282 . S
C98 O99 1.306 . S
C98 O101 1.160 . S
O99 C98 1.306 . S
O99 Cd100 2.228 . S
Cd100 O99 2.228 . S
Cd100 O104 2.273 . S
Cd100 O108 2.277 . S
O101 C98 1.160 . S
O101 Cd102 2.203 . S
Cd102 O101 2.203 . S
Cd102 O104 2.411 . S
Cd102 O105 2.333 . S
Cd102 O106 2.352 . S
Cd102 O110 2.277 . S
Cd102 O111 2.356 . S
C103 O108 1.209 . S
C103 O110 1.226 . S
O104 Cd100 2.273 . S
O104 Cd102 2.411 . S
O104 C107 1.320 . S
O105 Cd102 2.333 . S
O105 C107 1.214 . S
O106 Cd102 2.352 . S
O106 C109 1.258 . S
C107 O104 1.320 . S
C107 O105 1.214 . S
O108 Cd100 2.277 . S
O108 C103 1.209 . S
C109 O106 1.258 . S
C109 O111 1.282 . S
O110 Cd102 2.277 . S
O110 C103 1.226 . S
O111 Cd102 2.356 . S
O111 C109 1.282 . S
C112 O113 1.306 . S
C112 O115 1.160 . S
O113 C112 1.306 . S
O113 Cd114 2.228 . S
Cd114 O113 2.228 . S
Cd114 O118 2.273 . S
Cd114 O122 2.277 . S
O115 C112 1.160 . S
O115 Cd116 2.203 . S
Cd116 O115 2.203 . S
Cd116 O118 2.411 . S
Cd116 O119 2.333 . S
Cd116 O120 2.352 . S
Cd116 O124 2.277 . S
Cd116 O125 2.356 . S
C117 O122 1.209 . S
C117 O124 1.226 . S
O118 Cd114 2.273 . S
O118 Cd116 2.411 . S
O118 C121 1.320 . S
O119 Cd116 2.333 . S
O119 C121 1.214 . S
O120 Cd116 2.352 . S
O120 C123 1.258 . S
C121 O118 1.320 . S
C121 O119 1.214 . S
O122 Cd114 2.277 . S
O122 C117 1.209 . S
C123 O120 1.258 . S
C123 O125 1.282 . S
O124 Cd116 2.277 . S
O124 C117 1.226 . S
O125 Cd116 2.356 . S
O125 C123 1.282 . S
C126 O127 1.306 . S
C126 O129 1.160 . S
O127 C126 1.306 . S
O127 Cd128 2.228 . S
Cd128 O127 2.228 . S
Cd128 O132 2.273 . S
Cd128 O136 2.277 . S
O129 C126 1.160 . S
O129 Cd130 2.203 . S
Cd130 O129 2.203 . S
Cd130 O132 2.411 . S
Cd130 O133 2.333 . S
Cd130 O134 2.352 . S
Cd130 O138 2.277 . S
Cd130 O139 2.356 . S
C131 O136 1.209 . S
C131 O138 1.226 . S
O132 Cd128 2.273 . S
O132 Cd130 2.411 . S
O132 C135 1.320 . S
O133 Cd130 2.333 . S
O133 C135 1.214 . S
O134 Cd130 2.352 . S
O134 C137 1.258 . S
C135 O132 1.320 . S
C135 O133 1.214 . S
O136 Cd128 2.277 . S
O136 C131 1.209 . S
C137 O134 1.258 . S
C137 O139 1.282 . S
O138 Cd130 2.277 . S
O138 C131 1.226 . S
O139 Cd130 2.356 . S
O139 C137 1.282 . S
C140 O141 1.306 . S
C140 O143 1.160 . S
O141 C140 1.306 . S
O141 Cd142 2.228 . S
Cd142 O141 2.228 . S
Cd142 O146 2.273 . S
Cd142 O150 2.277 . S
O143 C140 1.160 . S
O143 Cd144 2.203 . S
Cd144 O143 2.203 . S
Cd144 O146 2.411 . S
Cd144 O147 2.333 . S
Cd144 O148 2.352 . S
Cd144 O152 2.277 . S
Cd144 O153 2.356 . S
C145 O150 1.209 . S
C145 O152 1.226 . S
O146 Cd142 2.273 . S
O146 Cd144 2.411 . S
O146 C149 1.320 . S
O147 Cd144 2.333 . S
O147 C149 1.214 . S
O148 Cd144 2.352 . S
O148 C151 1.258 . S
C149 O146 1.320 . S
C149 O147 1.214 . S
O150 Cd142 2.277 . S
O150 C145 1.209 . S
C151 O148 1.258 . S
C151 O153 1.282 . S
O152 Cd144 2.277 . S
O152 C145 1.226 . S
O153 Cd144 2.356 . S
O153 C151 1.282 . S
C154 O155 1.306 . S
C154 O157 1.160 . S
O155 C154 1.306 . S
O155 Cd156 2.228 . S
Cd156 O155 2.228 . S
Cd156 O160 2.273 . S
Cd156 O164 2.277 . S
O157 C154 1.160 . S
O157 Cd158 2.203 . S
Cd158 O157 2.203 . S
Cd158 O160 2.411 . S
Cd158 O161 2.333 . S
Cd158 O162 2.352 . S
Cd158 O166 2.277 . S
Cd158 O167 2.356 . S
C159 O164 1.209 . S
C159 O166 1.226 . S
O160 Cd156 2.273 . S
O160 Cd158 2.411 . S
O160 C163 1.320 . S
O161 Cd158 2.333 . S
O161 C163 1.214 . S
O162 Cd158 2.352 . S
O162 C165 1.258 . S
C163 O160 1.320 . S
C163 O161 1.214 . S
O164 Cd156 2.277 . S
O164 C159 1.209 . S
C165 O162 1.258 . S
C165 O167 1.282 . S
O166 Cd158 2.277 . S
O166 C159 1.226 . S
O167 Cd158 2.356 . S
O167 C165 1.282 . S
C168 C169 1.369 . S
C168 C170 1.419 . S
C168 H172 0.930 . S
C169 C168 1.369 . S
C169 C178 1.429 . S
C170 C168 1.419 . S
C170 C171 1.363 . S
C170 H173 0.929 . S
C171 C170 1.363 . S
C171 C177 1.428 . S
H172 C168 0.930 . S
H173 C170 0.929 . S
S174 N175 1.613 . S
S174 N176 1.610 . S
N175 S174 1.613 . S
N175 C178 1.350 . S
N176 S174 1.610 . S
N176 C177 1.351 . S
C177 C171 1.428 . S
C177 N176 1.351 . S
C177 C178 1.434 . S
C178 C169 1.429 . S
C178 N175 1.350 . S
C178 C177 1.434 . S
C179 C180 1.369 . S
C179 C181 1.419 . S
C179 H183 0.930 . S
C180 C179 1.369 . S
C180 C189 1.429 . S
C181 C179 1.419 . S
C181 C182 1.363 . S
C181 H184 0.929 . S
C182 C181 1.363 . S
C182 C188 1.428 . S
H183 C179 0.930 . S
H184 C181 0.929 . S
S185 N186 1.613 . S
S185 N187 1.610 . S
N186 S185 1.613 . S
N186 C189 1.350 . S
N187 S185 1.610 . S
N187 C188 1.351 . S
C188 C182 1.428 . S
C188 N187 1.351 . S
C188 C189 1.434 . S
C189 C180 1.429 . S
C189 N186 1.350 . S
C189 C188 1.434 . S
C190 C191 1.369 . S
C190 C192 1.419 . S
C190 H194 0.930 . S
C191 C190 1.369 . S
C191 C200 1.429 . S
C192 C190 1.419 . S
C192 C193 1.363 . S
C192 H195 0.929 . S
C193 C192 1.363 . S
C193 C199 1.428 . S
H194 C190 0.930 . S
H195 C192 0.929 . S
S196 N197 1.613 . S
S196 N198 1.610 . S
N197 S196 1.613 . S
N197 C200 1.350 . S
N198 S196 1.610 . S
N198 C199 1.351 . S
C199 C193 1.428 . S
C199 N198 1.351 . S
C199 C200 1.434 . S
C200 C191 1.429 . S
C200 N197 1.350 . S
C200 C199 1.434 . S
C201 C202 1.369 . S
C201 C203 1.419 . S
C201 H205 0.930 . S
C202 C201 1.369 . S
C202 C211 1.429 . S
C203 C201 1.419 . S
C203 C204 1.363 . S
C203 H206 0.929 . S
C204 C203 1.363 . S
C204 C210 1.428 . S
H205 C201 0.930 . S
H206 C203 0.929 . S
S207 N208 1.613 . S
S207 N209 1.610 . S
N208 S207 1.613 . S
N208 C211 1.350 . S
N209 S207 1.610 . S
N209 C210 1.351 . S
C210 C204 1.428 . S
C210 N209 1.351 . S
C210 C211 1.434 . S
C211 C202 1.429 . S
C211 N208 1.350 . S
C211 C210 1.434 . S
C212 C213 1.369 . S
C212 C214 1.419 . S
C212 H216 0.930 . S
C213 C212 1.369 . S
C213 C222 1.429 . S
C214 C212 1.419 . S
C214 C215 1.363 . S
C214 H217 0.929 . S
C215 C214 1.363 . S
C215 C221 1.428 . S
H216 C212 0.930 . S
H217 C214 0.929 . S
S218 N219 1.613 . S
S218 N220 1.610 . S
N219 S218 1.613 . S
N219 C222 1.350 . S
N220 S218 1.610 . S
N220 C221 1.351 . S
C221 C215 1.428 . S
C221 N220 1.351 . S
C221 C222 1.434 . S
C222 C213 1.429 . S
C222 N219 1.350 . S
C222 C221 1.434 . S
C223 C224 1.369 . S
C223 C225 1.419 . S
C223 H227 0.930 . S
C224 C223 1.369 . S
C224 C233 1.429 . S
C225 C223 1.419 . S
C225 C226 1.363 . S
C225 H228 0.929 . S
C226 C225 1.363 . S
C226 C232 1.428 . S
H227 C223 0.930 . S
H228 C225 0.929 . S
S229 N230 1.613 . S
S229 N231 1.610 . S
N230 S229 1.613 . S
N230 C233 1.350 . S
N231 S229 1.610 . S
N231 C232 1.351 . S
C232 C226 1.428 . S
C232 N231 1.351 . S
C232 C233 1.434 . S
C233 C224 1.429 . S
C233 N230 1.350 . S
C233 C232 1.434 . S
C234 C235 1.369 1_556 S
C234 C236 1.419 1_545 S
C234 H238 0.930 . S
C235 C234 1.369 1_554 S
C235 C244 1.429 . S
C236 C234 1.419 1_565 S
C236 C237 1.363 . S
C236 H239 0.929 . S
C237 C236 1.363 . S
C237 C243 1.428 1_556 S
H238 C234 0.930 . S
H239 C236 0.929 . S
S240 N241 1.613 . S
S240 N242 1.610 1_545 S
N241 S240 1.613 . S
N241 C244 1.350 . S
N242 S240 1.610 1_565 S
N242 C243 1.351 . S
C243 C237 1.428 1_554 S
C243 N242 1.351 . S
C243 C244 1.434 1_565 S
C244 C235 1.429 . S
C244 N241 1.350 . S
C244 C243 1.434 1_545 S
C245 C246 1.369 . S
C245 C247 1.419 . S
C245 H249 0.930 . S
C246 C245 1.369 . S
C246 C255 1.429 . S
C247 C245 1.419 . S
C247 C248 1.363 . S
C247 H250 0.929 . S
C248 C247 1.363 . S
C248 C254 1.428 . S
H249 C245 0.930 . S
H250 C247 0.929 . S
S251 N252 1.613 . S
S251 N253 1.610 . S
N252 S251 1.613 . S
N252 C255 1.350 . S
N253 S251 1.610 . S
N253 C254 1.351 . S
C254 C248 1.428 . S
C254 N253 1.351 . S
C254 C255 1.434 . S
C255 C246 1.429 . S
C255 N252 1.350 . S
C255 C254 1.434 . S
C256 C257 1.369 1_554 S
C256 C258 1.419 1_455 S
C256 H260 0.930 . S
C257 C256 1.369 1_556 S
C257 C266 1.429 1_455 S
C258 C256 1.419 1_655 S
C258 C259 1.363 . S
C258 H261 0.929 . S
C259 C258 1.363 . S
C259 C265 1.428 1_554 S
H260 C256 0.930 . S
H261 C258 0.929 . S
S262 N263 1.613 . S
S262 N264 1.610 . S
N263 S262 1.613 . S
N263 C266 1.350 . S
N264 S262 1.610 . S
N264 C265 1.351 . S
C265 C259 1.428 1_556 S
C265 N264 1.351 . S
C265 C266 1.434 . S
C266 C257 1.429 1_655 S
C266 N263 1.350 . S
C266 C265 1.434 . S
C267 C268 1.369 . S
C267 C269 1.419 1_545 S
C267 H271 0.930 . S
C268 C267 1.369 . S
C268 C277 1.429 . S
C269 C267 1.419 1_565 S
C269 C270 1.363 . S
C269 H272 0.929 . S
C270 C269 1.363 . S
C270 C276 1.428 . S
H271 C267 0.930 . S
H272 C269 0.929 . S
S273 N274 1.613 1_565 S
S273 N275 1.610 . S
N274 S273 1.613 1_545 S
N274 C277 1.350 . S
N275 S273 1.610 . S
N275 C276 1.351 . S
C276 C270 1.428 . S
C276 N275 1.351 . S
C276 C277 1.434 1_565 S
C277 C268 1.429 . S
C277 N274 1.350 . S
C277 C276 1.434 1_545 S
C278 C279 1.369 1_554 S
C278 C280 1.419 . S
C278 H282 0.930 . S
C279 C278 1.369 1_556 S
C279 C288 1.429 . S
C280 C278 1.419 . S
C280 C281 1.363 . S
C280 H283 0.929 . S
C281 C280 1.363 . S
C281 C287 1.428 1_554 S
H282 C278 0.930 . S
H283 C280 0.929 . S
S284 N285 1.613 . S
S284 N286 1.610 . S
N285 S284 1.613 . S
N285 C288 1.350 . S
N286 S284 1.610 . S
N286 C287 1.351 . S
C287 C281 1.428 1_556 S
C287 N286 1.351 . S
C287 C288 1.434 . S
C288 C279 1.429 . S
C288 N285 1.350 . S
C288 C287 1.434 . S
C289 C290 1.369 . S
C289 C291 1.419 1_655 S
C289 H293 0.930 . S
C290 C289 1.369 . S
C290 C299 1.429 . S
C291 C289 1.419 1_455 S
C291 C292 1.363 . S
C291 H294 0.929 . S
C292 C291 1.363 . S
C292 C298 1.428 . S
H293 C289 0.930 . S
H294 C291 0.929 . S
S295 N296 1.613 1_455 S
S295 N297 1.610 . S
N296 S295 1.613 1_655 S
N296 C299 1.350 . S
N297 S295 1.610 . S
N297 C298 1.351 . S
C298 C292 1.428 . S
C298 N297 1.351 . S
C298 C299 1.434 1_455 S
C299 C290 1.429 . S
C299 N296 1.350 . S
C299 C298 1.434 1_655 S
C300 C301 1.369 . S
C300 C302 1.419 . S
C300 H304 0.930 . S
C301 C300 1.369 . S
C301 C310 1.429 . S
C302 C300 1.419 . S
C302 C303 1.363 . S
C302 H305 0.929 . S
C303 C302 1.363 . S
C303 C309 1.428 . S
H304 C300 0.930 . S
H305 C302 0.929 . S
S306 N307 1.613 . S
S306 N308 1.610 . S
N307 S306 1.613 . S
N307 C310 1.350 . S
N308 S306 1.610 . S
N308 C309 1.351 . S
C309 C303 1.428 . S
C309 N308 1.351 . S
C309 C310 1.434 . S
C310 C301 1.429 . S
C310 N307 1.350 . S
C310 C309 1.434 . S
C311 C312 1.369 . S
C311 C313 1.419 . S
C311 H315 0.930 . S
C312 C311 1.369 . S
C312 C321 1.429 . S
C313 C311 1.419 . S
C313 C314 1.363 . S
C313 H316 0.929 . S
C314 C313 1.363 . S
C314 C320 1.428 . S
H315 C311 0.930 . S
H316 C313 0.929 . S
S317 N318 1.613 . S
S317 N319 1.610 . S
N318 S317 1.613 . S
N318 C321 1.350 . S
N319 S317 1.610 . S
N319 C320 1.351 . S
C320 C314 1.428 . S
C320 N319 1.351 . S
C320 C321 1.434 . S
C321 C312 1.429 . S
C321 N318 1.350 . S
C321 C320 1.434 . S
C322 C323 1.369 . S
C322 C324 1.419 . S
C322 H326 0.930 . S
C323 C322 1.369 . S
C323 C332 1.429 1_554 S
C324 C322 1.419 . S
C324 C325 1.363 . S
C324 H327 0.929 . S
C325 C324 1.363 . S
C325 C331 1.428 1_554 S
H326 C322 0.930 . S
H327 C324 0.929 . S
S328 N329 1.613 . S
S328 N330 1.610 . S
N329 S328 1.613 . S
N329 C332 1.350 . S
N330 S328 1.610 . S
N330 C331 1.351 . S
C331 C325 1.428 1_556 S
C331 N330 1.351 . S
C331 C332 1.434 . S
C332 C323 1.429 1_556 S
C332 N329 1.350 . S
C332 C331 1.434 . S
C333 C334 1.369 . S
C333 C335 1.419 . S
C333 H337 0.930 . S
C334 C333 1.369 . S
C334 C343 1.429 . S
C335 C333 1.419 . S
C335 C336 1.363 . S
C335 H338 0.929 . S
C336 C335 1.363 . S
C336 C342 1.428 . S
H337 C333 0.930 . S
H338 C335 0.929 . S
S339 N340 1.613 . S
S339 N341 1.610 . S
N340 S339 1.613 . S
N340 C343 1.350 . S
N341 S339 1.610 . S
N341 C342 1.351 . S
C342 C336 1.428 . S
C342 N341 1.351 . S
C342 C343 1.434 . S
C343 C334 1.429 . S
C343 N340 1.350 . S
C343 C342 1.434 . S
C344 C345 1.369 . S
C344 C346 1.419 . S
C344 H348 0.930 . S
C345 C344 1.369 . S
C345 C354 1.429 . S
C346 C344 1.419 . S
C346 C347 1.363 . S
C346 H349 0.929 . S
C347 C346 1.363 . S
C347 C353 1.428 1_554 S
H348 C344 0.930 . S
H349 C346 0.929 . S
S350 N351 1.613 . S
S350 N352 1.610 . S
N351 S350 1.613 . S
N351 C354 1.350 1_556 S
N352 S350 1.610 . S
N352 C353 1.351 . S
C353 C347 1.428 1_556 S
C353 N352 1.351 . S
C353 C354 1.434 1_556 S
C354 C345 1.429 . S
C354 N351 1.350 1_554 S
C354 C353 1.434 1_554 S
C355 C356 1.369 . S
C355 C357 1.419 . S
C355 H359 0.930 . S
C356 C355 1.369 . S
C356 C365 1.429 . S
C357 C355 1.419 . S
C357 C358 1.363 . S
C357 H360 0.929 . S
C358 C357 1.363 . S
C358 C364 1.428 . S
H359 C355 0.930 . S
H360 C357 0.929 . S
S361 N362 1.613 . S
S361 N363 1.610 . S
N362 S361 1.613 . S
N362 C365 1.350 . S
N363 S361 1.610 . S
N363 C364 1.351 . S
C364 C358 1.428 . S
C364 N363 1.351 . S
C364 C365 1.434 . S
C365 C356 1.429 . S
C365 N362 1.350 . S
C365 C364 1.434 . S
C366 C367 1.369 . S
C366 C368 1.419 . S
C366 H370 0.930 . S
C367 C366 1.369 . S
C367 C376 1.429 . S
C368 C366 1.419 . S
C368 C369 1.363 . S
C368 H371 0.929 . S
C369 C368 1.363 . S
C369 C375 1.428 . S
H370 C366 0.930 . S
H371 C368 0.929 . S
S372 N373 1.613 . S
S372 N374 1.610 . S
N373 S372 1.613 . S
N373 C376 1.350 . S
N374 S372 1.610 . S
N374 C375 1.351 . S
C375 C369 1.428 . S
C375 N374 1.351 . S
C375 C376 1.434 . S
C376 C367 1.429 . S
C376 N373 1.350 . S
C376 C375 1.434 . S
C377 C378 1.369 . S
C377 C379 1.419 . S
C377 H381 0.930 . S
C378 C377 1.369 . S
C378 C387 1.429 . S
C379 C377 1.419 . S
C379 C380 1.363 . S
C379 H382 0.929 . S
C380 C379 1.363 . S
C380 C386 1.428 . S
H381 C377 0.930 . S
H382 C379 0.929 . S
S383 N384 1.613 1_554 S
S383 N385 1.610 . S
N384 S383 1.613 1_556 S
N384 C387 1.350 . S
N385 S383 1.610 . S
N385 C386 1.351 1_554 S
C386 C380 1.428 . S
C386 N385 1.351 1_556 S
C386 C387 1.434 . S
C387 C378 1.429 . S
C387 N384 1.350 . S
C387 C386 1.434 . S
C388 C389 1.369 . S
C388 C390 1.419 . S
C388 H392 0.930 . S
C389 C388 1.369 . S
C389 C398 1.429 . S
C390 C388 1.419 . S
C390 C391 1.363 . S
C390 H393 0.929 . S
C391 C390 1.363 . S
C391 C397 1.428 . S
H392 C388 0.930 . S
H393 C390 0.929 . S
S394 N395 1.613 . S
S394 N396 1.610 . S
N395 S394 1.613 . S
N395 C398 1.350 . S
N396 S394 1.610 . S
N396 C397 1.351 . S
C397 C391 1.428 . S
C397 N396 1.351 . S
C397 C398 1.434 . S
C398 C389 1.429 . S
C398 N395 1.350 . S
C398 C397 1.434 . S
C399 C400 1.369 . S
C399 C401 1.419 1_556 S
C399 H403 0.930 1_556 S
C400 C399 1.369 . S
C400 C409 1.429 . S
C401 C399 1.419 1_554 S
C401 C402 1.363 1_554 S
C401 H404 0.929 . S
C402 C401 1.363 1_556 S
C402 C408 1.428 . S
H403 C399 0.930 1_554 S
H404 C401 0.929 . S
S405 N406 1.613 . S
S405 N407 1.610 . S
N406 S405 1.613 . S
N406 C409 1.350 . S
N407 S405 1.610 . S
N407 C408 1.351 . S
C408 C402 1.428 . S
C408 N407 1.351 . S
C408 C409 1.434 . S
C409 C400 1.429 . S
C409 N406 1.350 . S
C409 C408 1.434 . S
C410 C411 1.369 . S
C410 C412 1.419 . S
C410 H414 0.930 . S
C411 C410 1.369 . S
C411 C420 1.429 . S
C412 C410 1.419 . S
C412 C413 1.363 . S
C412 H415 0.929 . S
C413 C412 1.363 . S
C413 C419 1.428 . S
H414 C410 0.930 . S
H415 C412 0.929 . S
S416 N417 1.613 . S
S416 N418 1.610 . S
N417 S416 1.613 . S
N417 C420 1.350 . S
N418 S416 1.610 . S
N418 C419 1.351 . S
C419 C413 1.428 . S
C419 N418 1.351 . S
C419 C420 1.434 . S
C420 C411 1.429 . S
C420 N417 1.350 . S
C420 C419 1.434 . S
C421 C422 1.369 . S
C421 C423 1.419 . S
C421 H425 0.930 . S
C422 C421 1.369 . S
C422 C431 1.429 . S
C423 C421 1.419 . S
C423 C424 1.363 . S
C423 H426 0.929 . S
C424 C423 1.363 . S
C424 C430 1.428 1_556 S
H425 C421 0.930 . S
H426 C423 0.929 . S
S427 N428 1.613 . S
S427 N429 1.610 . S
N428 S427 1.613 . S
N428 C431 1.350 1_554 S
N429 S427 1.610 . S
N429 C430 1.351 . S
C430 C424 1.428 1_554 S
C430 N429 1.351 . S
C430 C431 1.434 1_554 S
C431 C422 1.429 . S
C431 N428 1.350 1_556 S
C431 C430 1.434 1_556 S
C169 C149 1.636 . S
C171 C9 1.644 . S
C180 C23 1.578 . S
C182 C163 1.576 . S
C191 C37 1.636 . S
C193 C93 1.644 . S
C202 C107 1.637 . S
C204 C51 1.646 . S
C213 C121 1.576 . S
C215 C65 1.579 . S
C224 C79 1.633 . S
C226 C135 1.645 . S
C235 C11 1.139 . S
C237 C109 1.197 . S
C246 C25 1.032 . S
C248 C123 1.030 . S
C257 C137 1.150 . S
C259 C39 1.194 . S
C268 C151 1.197 . S
C270 C53 1.138 . S
C279 C165 1.031 . S
C281 C67 1.037 . S
C290 C95 1.148 . S
C292 C81 1.192 . S
C301 C5 1.304 . S
C303 C56 1.135 . S
C312 C19 1.182 . S
C314 C70 1.089 . S
C323 C33 1.253 . S
C325 C0 1.102 . S
C334 C47 1.303 . S
C336 C14 1.137 . S
C345 C61 1.174 . S
C347 C28 1.088 . S
C356 C75 1.259 . S
C358 C42 1.105 . S
C367 C89 1.303 . S
C369 C112 1.137 . S
C378 C103 1.253 . S
C380 C126 1.096 . S
C389 C140 1.092 . S
C391 C117 1.176 . S
C400 C131 1.306 . S
C402 C154 1.129 . S
C411 C145 1.254 . S
C413 C84 1.092 . S
C422 C159 1.178 . S
C424 C98 1.096 . S
