# Generated by pormake.
# Topology smc, (6)-cn, num edge types: 1
# Building blocks:
#     Node 0, Type 0, BuildingBlock: MIDCAF_clean_sbu_0, # of connection points: 6
#     Node 1, Type 0, BuildingBlock: MIDCAF_clean_sbu_0, # of connection points: 6
#     Node 2, Type 0, BuildingBlock: MIDCAF_clean_sbu_0, # of connection points: 6
#     Node 3, Type 0, BuildingBlock: MIDCAF_clean_sbu_0, # of connection points: 6
#     Node 4, Type 0, BuildingBlock: MIDCAF_clean_sbu_0, # of connection points: 6
#     Node 5, Type 0, BuildingBlock: MIDCAF_clean_sbu_0, # of connection points: 6
#     Node 6, Type 0, BuildingBlock: MIDCAF_clean_sbu_0, # of connection points: 6
#     Node 7, Type 0, BuildingBlock: MIDCAF_clean_sbu_0, # of connection points: 6
#     Node 8, Type 0, BuildingBlock: MIDCAF_clean_sbu_0, # of connection points: 6
#     Edge 9, Type (0, 0), BuildingBlock: EYOCIG_clean_linker_4, # of connection points: 2
#     Edge 10, Type (0, 0), BuildingBlock: EYOCIG_clean_linker_4, # of connection points: 2
#     Edge 11, Type (0, 0), BuildingBlock: EYOCIG_clean_linker_4, # of connection points: 2
#     Edge 12, Type (0, 0), BuildingBlock: EYOCIG_clean_linker_4, # of connection points: 2
#     Edge 13, Type (0, 0), BuildingBlock: EYOCIG_clean_linker_4, # of connection points: 2
#     Edge 14, Type (0, 0), BuildingBlock: EYOCIG_clean_linker_4, # of connection points: 2
#     Edge 15, Type (0, 0), BuildingBlock: EYOCIG_clean_linker_4, # of connection points: 2
#     Edge 16, Type (0, 0), BuildingBlock: EYOCIG_clean_linker_4, # of connection points: 2
#     Edge 17, Type (0, 0), BuildingBlock: EYOCIG_clean_linker_4, # of connection points: 2
#     Edge 18, Type (0, 0), BuildingBlock: EYOCIG_clean_linker_4, # of connection points: 2
#     Edge 19, Type (0, 0), BuildingBlock: EYOCIG_clean_linker_4, # of connection points: 2
#     Edge 20, Type (0, 0), BuildingBlock: EYOCIG_clean_linker_4, # of connection points: 2
#     Edge 21, Type (0, 0), BuildingBlock: EYOCIG_clean_linker_4, # of connection points: 2
#     Edge 22, Type (0, 0), BuildingBlock: EYOCIG_clean_linker_4, # of connection points: 2
#     Edge 23, Type (0, 0), BuildingBlock: EYOCIG_clean_linker_4, # of connection points: 2
#     Edge 24, Type (0, 0), BuildingBlock: EYOCIG_clean_linker_4, # of connection points: 2
#     Edge 25, Type (0, 0), BuildingBlock: EYOCIG_clean_linker_4, # of connection points: 2
#     Edge 26, Type (0, 0), BuildingBlock: EYOCIG_clean_linker_4, # of connection points: 2
#     Edge 27, Type (0, 0), BuildingBlock: EYOCIG_clean_linker_4, # of connection points: 2
#     Edge 28, Type (0, 0), BuildingBlock: EYOCIG_clean_linker_4, # of connection points: 2
#     Edge 29, Type (0, 0), BuildingBlock: EYOCIG_clean_linker_4, # of connection points: 2
#     Edge 30, Type (0, 0), BuildingBlock: EYOCIG_clean_linker_4, # of connection points: 2
#     Edge 31, Type (0, 0), BuildingBlock: EYOCIG_clean_linker_4, # of connection points: 2
#     Edge 32, Type (0, 0), BuildingBlock: EYOCIG_clean_linker_4, # of connection points: 2
#     Edge 33, Type (0, 0), BuildingBlock: EYOCIG_clean_linker_4, # of connection points: 2
#     Edge 34, Type (0, 0), BuildingBlock: EYOCIG_clean_linker_4, # of connection points: 2
#     Edge 35, Type (0, 0), BuildingBlock: EYOCIG_clean_linker_4, # of connection points: 2
# Relax obj value: 0.332
# Max RMSD: 0.258
# Mean RMSD: 0.258
data_MOF--net-smc--node1-MIDCAF_clean_sbu_0--edge1-EYOCIG_clean_linker_4
_symmetry_space_group_name_H-M    P1
_symmetry_Int_Tables_number       1
_symmetry_cell_setting            triclinic
loop_
_symmetry_equiv_pos_as_xyz
'x, y, z'
_cell_length_a     23.290734
_cell_length_b     23.309992
_cell_length_c     35.906862
_cell_angle_alpha  89.934357
_cell_angle_beta   90.048472
_cell_angle_gamma 119.98688
loop_
_atom_site_label
_atom_site_type_symbol
_atom_site_fract_x
_atom_site_fract_y
_atom_site_fract_z
_atom_type_partial_charge
Zn0 Zn 0.06341 0.48047 0.9636 0.0
Zn1 Zn 0.86965 0.38387 0.05243 0.0
Zn2 Zn -0.03347 0.42193 0.00802 0.0
C3 C 0.84142 0.284 0.99986 0.0
C4 C -0.02459 0.40054 0.09457 0.0
O5 O -0.00022 0.52847 0.00776 0.0
O6 O 0.09926 0.57286 0.98236 0.0
C7 C 0.9577 0.39135 0.92155 0.0
O8 O 0.88961 0.33159 0.98223 0.0
O9 O 0.8272 0.29215 0.0326 0.0
O10 O 0.92332 0.40377 0.09894 0.0
O11 O -0.00325 0.39929 0.06168 0.0
O12 O 0.00977 0.44662 0.91711 0.0
O13 O 0.93634 0.36891 0.95447 0.0
O14 O 0.04345 0.40851 0.03397 0.0
O15 O 0.10585 0.43121 0.98363 0.0
C16 C 0.09164 0.40898 0.01641 0.0
O17 O 0.93332 0.49528 0.00802 0.0
O18 O 0.83385 0.44043 0.03346 0.0
C19 C 0.05671 0.57916 1.00076 0.0
C20 C 0.87641 0.48917 0.01498 0.0
Zn21 Zn 0.46497 0.57469 0.96356 0.0
Zn22 Zn 0.56239 0.47817 0.05247 0.0
Zn23 Zn 0.5239 0.53666 0.00802 0.0
C24 C 0.66196 0.54964 0.99963 0.0
C25 C 0.54586 0.56726 0.0945 0.0
O26 O 0.41732 0.46325 0.00796 0.0
O27 O 0.37261 0.51801 0.98246 0.0
C28 C 0.55415 0.5583 0.92146 0.0
O29 O 0.6142 0.55012 0.98208 0.0
O30 O 0.65404 0.52741 0.03241 0.0
O31 O 0.54277 0.51204 0.09896 0.0
O32 O 0.54681 0.58965 0.06158 0.0
O33 O 0.49879 0.55501 0.91705 0.0
O34 O 0.57671 0.55945 0.95437 0.0
O35 O 0.53729 0.62693 0.03382 0.0
O36 O 0.51418 0.66637 0.98346 0.0
C37 C 0.53661 0.67451 0.01621 0.0
O38 O 0.45063 0.43011 0.00827 0.0
O39 O 0.50577 0.38577 0.03374 0.0
C40 C 0.36648 0.4693 1.00096 0.0
C41 C 0.45687 0.37943 0.01532 0.0
Zn42 Zn 0.46782 0.07586 0.05262 0.0
Zn43 Zn 0.37106 0.88275 0.96351 0.0
Zn44 Zn 0.40917 -0.02071 0.00808 0.0
C45 C 0.27117 0.85416 0.01621 0.0
C46 C 0.38758 -0.01142 0.92158 0.0
O47 O 0.51579 0.01247 0.00828 0.0
O48 O 0.56029 0.11169 0.03388 0.0
C49 C 0.37852 0.9701 0.09458 0.0
O50 O 0.31879 0.90227 0.03385 0.0
O51 O 0.2793 0.84014 0.98342 0.0
O52 O 0.3908 0.93655 0.91708 0.0
O53 O 0.38644 0.00976 0.95452 0.0
O54 O 0.43384 0.0221 0.09906 0.0
O55 O 0.35609 0.9489 0.06165 0.0
O56 O 0.39581 0.05634 0.98231 0.0
O57 O 0.41868 0.11852 0.03272 0.0
C58 C 0.39639 0.10447 0.99994 0.0
O59 O 0.48254 0.94604 0.00789 0.0
O60 O 0.42768 0.84686 0.98225 0.0
C61 C 0.56656 0.06926 0.01537 0.0
C62 C 0.47644 0.88924 1.00078 0.0
Zn63 Zn 0.7306 0.81409 0.29685 0.0
Zn64 Zn 0.53675 0.71755 0.38563 0.0
Zn65 Zn 0.63363 0.75558 0.34124 0.0
C66 C 0.50852 0.61766 0.33307 0.0
C67 C 0.64242 0.73414 0.4278 0.0
O68 O 0.6669 0.86211 0.34098 0.0
O69 O 0.76642 0.90645 0.31564 0.0
C70 C 0.62487 0.72502 0.25477 0.0
O71 O 0.55671 0.66525 0.31543 0.0
O72 O 0.49431 0.62583 0.3658 0.0
O73 O 0.59034 0.7374 0.43216 0.0
O74 O 0.66377 0.7329 0.39492 0.0
O75 O 0.67699 0.78025 0.25034 0.0
O76 O 0.60346 0.70258 0.28768 0.0
O77 O 0.71049 0.74212 0.36722 0.0
O78 O 0.77298 0.76478 0.31692 0.0
C79 C 0.75869 0.74255 0.3497 0.0
O80 O 0.60043 0.82895 0.34124 0.0
O81 O 0.50096 0.77411 0.36668 0.0
C82 C 0.72385 0.91278 0.33401 0.0
C83 C 0.54353 0.82285 0.3482 0.0
Zn84 Zn 0.22953 0.81173 0.38597 0.0
Zn85 Zn 0.13195 0.90817 0.29711 0.0
Zn86 Zn 0.1909 0.87012 0.34151 0.0
C87 C 0.20371 0.00803 0.34969 0.0
C88 C 0.22094 0.89156 0.25495 0.0
O89 O 0.11765 0.76358 0.3418 0.0
O90 O 0.17294 0.71934 0.3672 0.0
C91 C 0.21289 0.90077 0.42799 0.0
O92 O 0.20436 0.96044 0.36731 0.0
O93 O 0.18127 -0.00011 0.31695 0.0
O94 O 0.1656 0.88833 0.25059 0.0
O95 O 0.24361 0.89279 0.28784 0.0
O96 O 0.20984 0.84558 0.43246 0.0
O97 O 0.21383 0.92315 0.39506 0.0
O98 O 0.28118 0.8836 0.31555 0.0
O99 O 0.32117 0.86107 0.36588 0.0
C100 C 0.329 0.88322 0.33308 0.0
O101 O 0.08432 0.7967 0.3415 0.0
O102 O 0.03964 0.85155 0.31608 0.0
C103 C 0.12398 0.71295 0.34881 0.0
C104 C 0.0335 0.80279 0.33454 0.0
Zn105 Zn 0.13502 0.40939 0.38602 0.0
Zn106 Zn 0.03835 0.21629 0.29694 0.0
Zn107 Zn 0.07638 0.31285 0.34147 0.0
C108 C 0.93839 0.18771 0.34959 0.0
C109 C 0.05479 0.32203 0.25496 0.0
O110 O 0.183 0.34603 0.34167 0.0
O111 O 0.22752 0.44523 0.3673 0.0
C112 C 0.04561 0.30372 0.42797 0.0
O113 O -0.01402 0.23584 0.36724 0.0
O114 O 0.94657 0.17365 0.31682 0.0
O115 O 0.05807 0.27002 0.25049 0.0
O116 O 0.05364 0.34324 0.28789 0.0
O117 O 0.10097 0.35567 0.43247 0.0
O118 O 0.02325 0.28253 0.39502 0.0
O119 O 0.06305 0.38989 0.31567 0.0
O120 O 0.08592 0.45206 0.36608 0.0
C121 C 0.06365 0.43802 0.3333 0.0
O122 O 0.14976 0.2796 0.34133 0.0
O123 O 0.09496 0.18041 0.3157 0.0
C124 C 0.23378 0.40282 0.34877 0.0
C125 C 0.1437 0.22281 0.33424 0.0
Zn126 Zn 0.39714 0.14799 0.63028 0.0
Zn127 Zn 0.20321 0.05137 0.71902 0.0
Zn128 Zn 0.30016 0.08945 0.67466 0.0
C129 C 0.17507 0.95154 0.66642 0.0
C130 C 0.30879 0.06787 0.76123 0.0
O131 O 0.33343 0.19599 0.67439 0.0
O132 O 0.43293 0.24037 0.64902 0.0
C133 C 0.29155 0.05885 0.58818 0.0
O134 O 0.22331 -0.00087 0.64882 0.0
O135 O 0.16078 0.95968 0.69914 0.0
O136 O 0.25671 0.07112 0.76557 0.0
O137 O 0.33021 0.06671 0.72836 0.0
O138 O 0.34364 0.11412 0.58374 0.0
O139 O 0.27011 0.03645 0.62109 0.0
O140 O 0.377 0.076 0.70068 0.0
O141 O 0.43953 0.09873 0.65039 0.0
C142 C 0.42523 0.07648 0.68317 0.0
O143 O 0.26696 0.16281 0.67465 0.0
O144 O 0.16747 0.10798 0.70006 0.0
C145 C 0.39036 0.24668 0.6674 0.0
C146 C 0.21004 0.15672 0.6816 0.0
Zn147 Zn 0.89578 0.14504 0.71907 0.0
Zn148 Zn 0.79839 0.24173 0.63033 0.0
Zn149 Zn 0.85722 0.20354 0.67472 0.0
C150 C 0.87012 0.34145 0.683 0.0
C151 C 0.88738 0.22515 0.58817 0.0
O152 O 0.78396 0.09698 0.67489 0.0
O153 O 0.8393 0.05272 0.70018 0.0
C154 C 0.87902 0.23385 0.76121 0.0
O155 O 0.87066 0.29378 0.70059 0.0
O156 O 0.84778 0.33341 0.65023 0.0
O157 O 0.83204 0.2219 0.5838 0.0
O158 O 0.91 0.22633 0.62107 0.0
O159 O 0.87593 0.17863 0.76561 0.0
O160 O 0.88006 0.25639 0.72832 0.0
O161 O 0.94756 0.21713 0.64877 0.0
O162 O -0.01252 0.19451 0.6991 0.0
C163 C -0.00461 0.21676 0.66632 0.0
O164 O 0.75066 0.13013 0.67467 0.0
O165 O 0.70609 0.18514 0.64934 0.0
C166 C 0.79033 0.04635 0.68182 0.0
C167 C 0.69988 0.13632 0.66776 0.0
Zn168 Zn 0.80166 0.74312 0.71926 0.0
Zn169 Zn 0.70502 0.54986 0.6303 0.0
Zn170 Zn 0.74311 0.64648 0.67476 0.0
C171 C 0.60505 0.52144 0.68291 0.0
C172 C 0.72158 0.65553 0.58824 0.0
O173 O 0.84972 0.67965 0.67499 0.0
O174 O 0.89412 0.77894 0.70049 0.0
C175 C 0.71239 0.63743 0.76125 0.0
O176 O 0.65268 0.56955 0.70055 0.0
O177 O 0.61322 0.50734 0.65015 0.0
O178 O 0.72484 0.6035 0.58381 0.0
O179 O 0.7204 0.67679 0.62114 0.0
O180 O 0.76771 0.68944 0.76573 0.0
O181 O 0.69 0.61619 0.72832 0.0
O182 O 0.72976 0.72345 0.64889 0.0
O183 O 0.75245 0.78566 0.69928 0.0
C184 C 0.73025 0.77157 0.66648 0.0
O185 O 0.81649 0.61323 0.67467 0.0
O186 O 0.76156 0.51395 0.64915 0.0
C187 C 0.90045 0.7365 0.68203 0.0
C188 C 0.81034 0.55637 0.66765 0.0
C189 C 0.24746 0.39704 0.02845 0.0
C190 C 0.30384 0.42495 0.01762 0.0
C191 C 0.18277 0.38366 0.03615 0.0
C192 C 0.13479 0.38998 0.03372 0.0
C193 C 0.54863 0.84222 0.02813 0.0
C194 C 0.52075 0.87077 0.01737 0.0
C195 C 0.56199 0.79091 0.03581 0.0
C196 C 0.55566 0.73666 0.03342 0.0
C197 C 0.15477 0.76285 0.0358 0.0
C198 C 0.20901 0.81086 0.03343 0.0
C199 C 0.10355 0.6982 0.02809 0.0
C200 C 0.07508 0.64184 0.01732 0.0
C201 C 0.37121 0.19572 0.98033 0.0
C202 C 0.37747 0.14774 0.98272 0.0
C203 C 0.38463 0.26037 0.98801 0.0
C204 C 0.41253 0.31673 0.99877 0.0
C205 C 0.6857 0.11622 0.988 0.0
C206 C 0.62929 0.08768 0.99877 0.0
C207 C 0.75036 0.16754 0.98031 0.0
C208 C 0.79828 0.22182 0.98267 0.0
C209 C 0.82961 0.56144 0.9875 0.0
C210 C 0.85809 0.53352 0.99832 0.0
C211 C 0.77833 0.57488 0.97983 0.0
C212 C 0.72405 0.5686 0.98229 0.0
C213 C 0.84974 0.71717 0.36958 0.0
C214 C 0.80179 0.72353 0.36707 0.0
C215 C 0.91444 0.73052 0.36196 0.0
C216 C -0.02916 0.75841 0.35117 0.0
C217 C 0.21589 0.17582 0.36161 0.0
C218 C 0.18802 0.20437 0.35084 0.0
C219 C 0.2292 0.12448 0.36928 0.0
C220 C 0.22282 0.0702 0.36689 0.0
C221 C 0.82195 0.09643 0.36913 0.0
C222 C 0.8762 0.14443 0.36679 0.0
C223 C 0.77072 0.03179 0.36138 0.0
C224 C 0.74224 -0.02455 0.35058 0.0
C225 C 0.05185 0.5939 0.32145 0.0
C226 C 0.0797 0.65025 0.33224 0.0
C227 C 0.03847 0.52929 0.31373 0.0
C228 C 0.04473 0.4813 0.31609 0.0
C229 C 0.35288 0.44982 0.32133 0.0
C230 C 0.29648 0.42127 0.33213 0.0
C231 C 0.4175 0.50115 0.31358 0.0
C232 C 0.46542 0.55545 0.3159 0.0
C233 C 0.44536 0.90852 0.31319 0.0
C234 C 0.39107 0.90219 0.31571 0.0
C235 C 0.4967 0.89514 0.3208 0.0
C236 C 0.52522 0.86724 0.33158 0.0
C237 C 0.58086 0.06423 0.69528 0.0
C238 C 0.63723 0.09203 0.68444 0.0
C239 C 0.51622 0.05098 0.70297 0.0
C240 C 0.4683 0.05739 0.70051 0.0
C241 C 0.89566 0.45787 0.70267 0.0
C242 C 0.88923 0.40358 0.70024 0.0
C243 C 0.88244 0.50929 0.69503 0.0
C244 C 0.85464 0.53792 0.68426 0.0
C245 C 0.48854 0.43032 0.70246 0.0
C246 C 0.54284 0.47826 0.7001 0.0
C247 C 0.43724 0.36571 0.69474 0.0
C248 C 0.40873 0.30935 0.68396 0.0
C249 C 0.70497 0.86272 0.64678 0.0
C250 C 0.7113 0.81478 0.64921 0.0
C251 C 0.71826 0.92732 0.65444 0.0
C252 C 0.74605 -0.01633 0.66523 0.0
C253 C 0.01957 0.78359 0.65461 0.0
C254 C -0.03683 0.75497 0.66541 0.0
C255 C 0.08417 0.835 0.64689 0.0
C256 C 0.13204 0.88932 0.64924 0.0
C257 C 0.16322 0.22899 0.65415 0.0
C258 C 0.19176 0.2011 0.66496 0.0
C259 C 0.11185 0.24229 0.64651 0.0
C260 C 0.05751 0.23587 0.64899 0.0
C261 C 0.04281 0.37486 0.19274 0.0
C262 C 0.04826 0.3543 0.22256 0.0
C263 C 0.0284 0.38902 0.15686 0.0
C264 C 0.00772 0.39426 0.12704 0.0
C265 C 0.57203 0.66043 0.19255 0.0
C266 C 0.59262 0.68638 0.22235 0.0
C267 C 0.55772 0.63188 0.1567 0.0
C268 C 0.55231 0.60592 0.12691 0.0
C269 C 0.31379 0.91726 0.15678 0.0
C270 C 0.33975 0.93782 0.12697 0.0
C271 C 0.2853 0.9031 0.19266 0.0
C272 C 0.25945 0.89786 0.22248 0.0
C273 C 0.3758 0.04167 0.85941 0.0
C274 C 0.38116 0.02098 0.8892 0.0
C275 C 0.36153 0.05602 0.82354 0.0
C276 C 0.34096 0.06141 0.79371 0.0
C277 C 0.9049 0.32674 0.85934 0.0
C278 C 0.92546 0.35268 0.88914 0.0
C279 C 0.89068 0.29824 0.82347 0.0
C280 C 0.88536 0.27238 0.79366 0.0
C281 C 0.64751 0.58452 0.82341 0.0
C282 C 0.67359 0.60516 0.79363 0.0
C283 C 0.61883 0.57019 0.85924 0.0
C284 C 0.59281 0.56479 0.88903 0.0
C285 C 0.69535 0.72254 0.4901 0.0
C286 C 0.67469 0.72781 0.46027 0.0
C287 C 0.70971 0.70835 0.52598 0.0
C288 C 0.71511 0.68778 0.55581 0.0
C289 C 0.22464 0.96544 0.49015 0.0
C290 C 0.21928 0.93943 0.46038 0.0
C291 C 0.23887 -0.00591 0.52598 0.0
C292 C 0.2594 0.02013 0.55577 0.0
C293 C 0.95193 0.23677 0.52593 0.0
C294 C 0.92594 0.23148 0.55573 0.0
C295 C -0.0194 0.25095 0.49011 0.0
C296 C 0.00673 0.27151 0.46032 0.0
loop_
_geom_bond_atom_site_label_1
_geom_bond_atom_site_label_2
_geom_bond_distance
_geom_bond_site_symmetry_2
_ccdc_geom_bond_type
Zn0 O6 1.920 . S
Zn0 O12 1.898 . S
Zn0 O15 1.905 . S
Zn1 O9 1.905 . S
Zn1 O10 1.898 . S
Zn1 O18 1.920 . S
Zn2 O5 2.080 . S
Zn2 O8 2.114 1_455 S
Zn2 O11 2.120 . S
Zn2 O13 2.120 1_454 S
Zn2 O14 2.114 . S
Zn2 O17 2.080 1_455 S
C3 O8 1.166 . S
C3 O9 1.182 . S
C4 O10 1.167 . S
C4 O11 1.299 1_655 S
O5 Zn2 2.080 . S
O5 C19 1.305 1_554 S
O6 Zn0 1.920 . S
O6 C19 1.234 . S
C7 O12 1.167 . S
C7 O13 1.299 1_455 S
O8 Zn2 2.114 1_655 S
O8 C3 1.166 . S
O9 Zn1 1.905 . S
O9 C3 1.182 . S
O10 Zn1 1.898 . S
O10 C4 1.167 . S
O11 Zn2 2.120 . S
O11 C4 1.299 1_455 S
O12 Zn0 1.898 . S
O12 C7 1.167 . S
O13 Zn2 2.120 1_656 S
O13 C7 1.299 1_655 S
O14 Zn2 2.114 . S
O14 C16 1.166 1_554 S
O15 Zn0 1.905 . S
O15 C16 1.186 . S
C16 O14 1.166 1_556 S
C16 O15 1.186 . S
O17 Zn2 2.080 1_655 S
O17 C20 1.305 . S
O18 Zn1 1.920 . S
O18 C20 1.234 . S
C19 O5 1.305 1_556 S
C19 O6 1.234 . S
C20 O17 1.305 . S
C20 O18 1.234 . S
Zn21 O27 1.920 . S
Zn21 O33 1.898 . S
Zn21 O36 1.905 . S
Zn22 O30 1.905 . S
Zn22 O31 1.898 . S
Zn22 O39 1.920 . S
Zn23 O26 2.080 . S
Zn23 O29 2.114 . S
Zn23 O32 2.120 . S
Zn23 O34 2.120 1_554 S
Zn23 O35 2.114 . S
Zn23 O38 2.080 . S
C24 O29 1.166 . S
C24 O30 1.182 . S
C25 O31 1.167 . S
C25 O32 1.299 . S
O26 Zn23 2.080 . S
O26 C40 1.305 1_554 S
O27 Zn21 1.920 . S
O27 C40 1.234 . S
C28 O33 1.167 . S
C28 O34 1.299 . S
O29 Zn23 2.114 . S
O29 C24 1.166 . S
O30 Zn22 1.905 . S
O30 C24 1.182 . S
O31 Zn22 1.898 . S
O31 C25 1.167 . S
O32 Zn23 2.120 . S
O32 C25 1.299 . S
O33 Zn21 1.898 . S
O33 C28 1.167 . S
O34 Zn23 2.120 1_556 S
O34 C28 1.299 . S
O35 Zn23 2.114 . S
O35 C37 1.166 1_554 S
O36 Zn21 1.905 . S
O36 C37 1.186 . S
C37 O35 1.166 1_556 S
C37 O36 1.186 . S
O38 Zn23 2.080 . S
O38 C41 1.305 . S
O39 Zn22 1.920 . S
O39 C41 1.234 . S
C40 O26 1.305 1_556 S
C40 O27 1.234 . S
C41 O38 1.305 . S
C41 O39 1.234 . S
Zn42 O48 1.920 . S
Zn42 O54 1.898 . S
Zn42 O57 1.905 . S
Zn43 O51 1.905 . S
Zn43 O52 1.898 . S
Zn43 O60 1.920 . S
Zn44 O47 2.080 . S
Zn44 O50 2.114 1_545 S
Zn44 O53 2.120 1_554 S
Zn44 O55 2.120 1_545 S
Zn44 O56 2.114 . S
Zn44 O59 2.080 1_545 S
C45 O50 1.166 1_556 S
C45 O51 1.186 . S
C46 O52 1.167 . S
C46 O53 1.299 1_565 S
O47 Zn44 2.080 . S
O47 C61 1.305 . S
O48 Zn42 1.920 . S
O48 C61 1.234 . S
C49 O54 1.167 . S
C49 O55 1.299 1_545 S
O50 Zn44 2.114 1_565 S
O50 C45 1.166 1_554 S
O51 Zn43 1.905 . S
O51 C45 1.186 . S
O52 Zn43 1.898 . S
O52 C46 1.167 . S
O53 Zn44 2.120 1_556 S
O53 C46 1.299 1_545 S
O54 Zn42 1.898 . S
O54 C49 1.167 . S
O55 Zn44 2.120 1_565 S
O55 C49 1.299 1_565 S
O56 Zn44 2.114 . S
O56 C58 1.166 . S
O57 Zn42 1.905 . S
O57 C58 1.182 . S
C58 O56 1.166 . S
C58 O57 1.182 . S
O59 Zn44 2.080 1_565 S
O59 C62 1.305 1_554 S
O60 Zn43 1.920 . S
O60 C62 1.234 . S
C61 O47 1.305 . S
C61 O48 1.234 . S
C62 O59 1.305 1_556 S
C62 O60 1.234 . S
Zn63 O69 1.920 . S
Zn63 O75 1.898 . S
Zn63 O78 1.905 . S
Zn64 O72 1.905 . S
Zn64 O73 1.898 . S
Zn64 O81 1.920 . S
Zn65 O68 2.080 . S
Zn65 O71 2.114 . S
Zn65 O74 2.120 . S
Zn65 O76 2.120 . S
Zn65 O77 2.114 . S
Zn65 O80 2.080 . S
C66 O71 1.166 . S
C66 O72 1.182 . S
C67 O73 1.167 . S
C67 O74 1.299 . S
O68 Zn65 2.080 . S
O68 C82 1.305 . S
O69 Zn63 1.920 . S
O69 C82 1.234 . S
C70 O75 1.167 . S
C70 O76 1.299 . S
O71 Zn65 2.114 . S
O71 C66 1.166 . S
O72 Zn64 1.905 . S
O72 C66 1.182 . S
O73 Zn64 1.898 . S
O73 C67 1.167 . S
O74 Zn65 2.120 . S
O74 C67 1.299 . S
O75 Zn63 1.898 . S
O75 C70 1.167 . S
O76 Zn65 2.120 . S
O76 C70 1.299 . S
O77 Zn65 2.114 . S
O77 C79 1.166 . S
O78 Zn63 1.905 . S
O78 C79 1.182 . S
C79 O77 1.166 . S
C79 O78 1.182 . S
O80 Zn65 2.080 . S
O80 C83 1.305 . S
O81 Zn64 1.920 . S
O81 C83 1.234 . S
C82 O68 1.305 . S
C82 O69 1.234 . S
C83 O80 1.305 . S
C83 O81 1.234 . S
Zn84 O90 1.920 . S
Zn84 O96 1.898 . S
Zn84 O99 1.905 . S
Zn85 O93 1.905 1_565 S
Zn85 O94 1.898 . S
Zn85 O102 1.920 . S
Zn86 O89 2.080 . S
Zn86 O92 2.114 1_565 S
Zn86 O95 2.120 . S
Zn86 O97 2.120 . S
Zn86 O98 2.114 . S
Zn86 O101 2.080 . S
C87 O92 1.166 . S
C87 O93 1.182 . S
C88 O94 1.167 . S
C88 O95 1.299 . S
O89 Zn86 2.080 . S
O89 C103 1.305 . S
O90 Zn84 1.920 . S
O90 C103 1.234 . S
C91 O96 1.167 . S
C91 O97 1.299 . S
O92 Zn86 2.114 1_545 S
O92 C87 1.166 . S
O93 Zn85 1.905 1_545 S
O93 C87 1.182 . S
O94 Zn85 1.898 . S
O94 C88 1.167 . S
O95 Zn86 2.120 . S
O95 C88 1.299 . S
O96 Zn84 1.898 . S
O96 C91 1.167 . S
O97 Zn86 2.120 . S
O97 C91 1.299 . S
O98 Zn86 2.114 . S
O98 C100 1.166 . S
O99 Zn84 1.905 . S
O99 C100 1.182 . S
C100 O98 1.166 . S
C100 O99 1.182 . S
O101 Zn86 2.080 . S
O101 C104 1.305 . S
O102 Zn85 1.920 . S
O102 C104 1.234 . S
C103 O89 1.305 . S
C103 O90 1.234 . S
C104 O101 1.305 . S
C104 O102 1.234 . S
Zn105 O111 1.920 . S
Zn105 O117 1.898 . S
Zn105 O120 1.905 . S
Zn106 O114 1.905 1_455 S
Zn106 O115 1.898 . S
Zn106 O123 1.920 . S
Zn107 O110 2.080 . S
Zn107 O113 2.114 1_455 S
Zn107 O116 2.120 . S
Zn107 O118 2.120 . S
Zn107 O119 2.114 . S
Zn107 O122 2.080 . S
C108 O113 1.166 . S
C108 O114 1.182 . S
C109 O115 1.167 . S
C109 O116 1.299 . S
O110 Zn107 2.080 . S
O110 C124 1.305 . S
O111 Zn105 1.920 . S
O111 C124 1.234 . S
C112 O117 1.167 . S
C112 O118 1.299 . S
O113 Zn107 2.114 1_655 S
O113 C108 1.166 . S
O114 Zn106 1.905 1_655 S
O114 C108 1.182 . S
O115 Zn106 1.898 . S
O115 C109 1.167 . S
O116 Zn107 2.120 . S
O116 C109 1.299 . S
O117 Zn105 1.898 . S
O117 C112 1.167 . S
O118 Zn107 2.120 . S
O118 C112 1.299 . S
O119 Zn107 2.114 . S
O119 C121 1.166 . S
O120 Zn105 1.905 . S
O120 C121 1.182 . S
C121 O119 1.166 . S
C121 O120 1.182 . S
O122 Zn107 2.080 . S
O122 C125 1.305 . S
O123 Zn106 1.920 . S
O123 C125 1.234 . S
C124 O110 1.305 . S
C124 O111 1.234 . S
C125 O122 1.305 . S
C125 O123 1.234 . S
Zn126 O132 1.920 . S
Zn126 O138 1.898 . S
Zn126 O141 1.905 . S
Zn127 O135 1.905 1_545 S
Zn127 O136 1.898 . S
Zn127 O144 1.920 . S
Zn128 O131 2.080 . S
Zn128 O134 2.114 1_545 S
Zn128 O137 2.120 . S
Zn128 O139 2.120 . S
Zn128 O140 2.114 . S
Zn128 O143 2.080 . S
C129 O134 1.166 . S
C129 O135 1.182 . S
C130 O136 1.167 . S
C130 O137 1.299 . S
O131 Zn128 2.080 . S
O131 C145 1.305 . S
O132 Zn126 1.920 . S
O132 C145 1.234 . S
C133 O138 1.167 . S
C133 O139 1.299 . S
O134 Zn128 2.114 1_565 S
O134 C129 1.166 . S
O135 Zn127 1.905 1_565 S
O135 C129 1.182 . S
O136 Zn127 1.898 . S
O136 C130 1.167 . S
O137 Zn128 2.120 . S
O137 C130 1.299 . S
O138 Zn126 1.898 . S
O138 C133 1.167 . S
O139 Zn128 2.120 . S
O139 C133 1.299 . S
O140 Zn128 2.114 . S
O140 C142 1.166 . S
O141 Zn126 1.905 . S
O141 C142 1.182 . S
C142 O140 1.166 . S
C142 O141 1.182 . S
O143 Zn128 2.080 . S
O143 C146 1.305 . S
O144 Zn127 1.920 . S
O144 C146 1.234 . S
C145 O131 1.305 . S
C145 O132 1.234 . S
C146 O143 1.305 . S
C146 O144 1.234 . S
Zn147 O153 1.920 . S
Zn147 O159 1.898 . S
Zn147 O162 1.905 1_655 S
Zn148 O156 1.905 . S
Zn148 O157 1.898 . S
Zn148 O165 1.920 . S
Zn149 O152 2.080 . S
Zn149 O155 2.114 . S
Zn149 O158 2.120 . S
Zn149 O160 2.120 . S
Zn149 O161 2.114 1_655 S
Zn149 O164 2.080 . S
C150 O155 1.166 . S
C150 O156 1.182 . S
C151 O157 1.167 . S
C151 O158 1.299 . S
O152 Zn149 2.080 . S
O152 C166 1.305 . S
O153 Zn147 1.920 . S
O153 C166 1.234 . S
C154 O159 1.167 . S
C154 O160 1.299 . S
O155 Zn149 2.114 . S
O155 C150 1.166 . S
O156 Zn148 1.905 . S
O156 C150 1.182 . S
O157 Zn148 1.898 . S
O157 C151 1.167 . S
O158 Zn149 2.120 . S
O158 C151 1.299 . S
O159 Zn147 1.898 . S
O159 C154 1.167 . S
O160 Zn149 2.120 . S
O160 C154 1.299 . S
O161 Zn149 2.114 1_455 S
O161 C163 1.166 . S
O162 Zn147 1.905 1_455 S
O162 C163 1.182 . S
C163 O161 1.166 . S
C163 O162 1.182 . S
O164 Zn149 2.080 . S
O164 C167 1.305 . S
O165 Zn148 1.920 . S
O165 C167 1.234 . S
C166 O152 1.305 . S
C166 O153 1.234 . S
C167 O164 1.305 . S
C167 O165 1.234 . S
Zn168 O174 1.920 . S
Zn168 O180 1.898 . S
Zn168 O183 1.905 . S
Zn169 O177 1.905 . S
Zn169 O178 1.898 . S
Zn169 O186 1.920 . S
Zn170 O173 2.080 . S
Zn170 O176 2.114 . S
Zn170 O179 2.120 . S
Zn170 O181 2.120 . S
Zn170 O182 2.114 . S
Zn170 O185 2.080 . S
C171 O176 1.166 . S
C171 O177 1.182 . S
C172 O178 1.167 . S
C172 O179 1.299 . S
O173 Zn170 2.080 . S
O173 C187 1.305 . S
O174 Zn168 1.920 . S
O174 C187 1.234 . S
C175 O180 1.167 . S
C175 O181 1.299 . S
O176 Zn170 2.114 . S
O176 C171 1.166 . S
O177 Zn169 1.905 . S
O177 C171 1.182 . S
O178 Zn169 1.898 . S
O178 C172 1.167 . S
O179 Zn170 2.120 . S
O179 C172 1.299 . S
O180 Zn168 1.898 . S
O180 C175 1.167 . S
O181 Zn170 2.120 . S
O181 C175 1.299 . S
O182 Zn170 2.114 . S
O182 C184 1.166 . S
O183 Zn168 1.905 . S
O183 C184 1.182 . S
C184 O182 1.166 . S
C184 O183 1.182 . S
O185 Zn170 2.080 . S
O185 C188 1.305 . S
O186 Zn169 1.920 . S
O186 C188 1.234 . S
C187 O173 1.305 . S
C187 O174 1.234 . S
C188 O185 1.305 . S
C188 O186 1.234 . S
C189 C190 1.170 1_554 S
C189 C191 1.380 . S
C190 C189 1.170 1_556 S
C191 C189 1.380 . S
C191 C192 1.170 . S
C192 C191 1.170 . S
C193 C194 1.170 . S
C193 C195 1.380 1_556 S
C194 C193 1.170 . S
C195 C193 1.380 1_554 S
C195 C196 1.170 . S
C196 C195 1.170 . S
C197 C198 1.170 . S
C197 C199 1.386 . S
C198 C197 1.170 . S
C199 C197 1.386 . S
C199 C200 1.164 1_554 S
C200 C199 1.164 1_556 S
C201 C202 1.170 . S
C201 C203 1.380 . S
C202 C201 1.170 . S
C203 C201 1.380 . S
C203 C204 1.170 . S
C204 C203 1.170 . S
C205 C206 1.170 . S
C205 C207 1.380 . S
C206 C205 1.170 . S
C207 C205 1.380 . S
C207 C208 1.170 . S
C208 C207 1.170 . S
C209 C210 1.170 . S
C209 C211 1.380 . S
C210 C209 1.170 . S
C211 C209 1.380 . S
C211 C212 1.170 . S
C212 C211 1.170 . S
C213 C214 1.170 . S
C213 C215 1.380 . S
C214 C213 1.170 . S
C215 C213 1.380 . S
C215 C216 1.170 1_655 S
C216 C215 1.170 1_455 S
C217 C218 1.170 . S
C217 C219 1.380 . S
C218 C217 1.170 . S
C219 C217 1.380 . S
C219 C220 1.170 . S
C220 C219 1.170 . S
C221 C222 1.170 . S
C221 C223 1.380 . S
C222 C221 1.170 . S
C223 C221 1.380 . S
C223 C224 1.170 1_545 S
C224 C223 1.170 1_565 S
C225 C226 1.170 . S
C225 C227 1.380 . S
C226 C225 1.170 . S
C227 C225 1.380 . S
C227 C228 1.170 . S
C228 C227 1.170 . S
C229 C230 1.170 . S
C229 C231 1.380 . S
C230 C229 1.170 . S
C231 C229 1.380 . S
C231 C232 1.170 . S
C232 C231 1.170 . S
C233 C234 1.170 . S
C233 C235 1.380 . S
C234 C233 1.170 . S
C235 C233 1.380 . S
C235 C236 1.170 . S
C236 C235 1.170 . S
C237 C238 1.170 . S
C237 C239 1.380 . S
C238 C237 1.170 . S
C239 C237 1.380 . S
C239 C240 1.170 . S
C240 C239 1.170 . S
C241 C242 1.170 . S
C241 C243 1.380 . S
C242 C241 1.170 . S
C243 C241 1.380 . S
C243 C244 1.170 . S
C244 C243 1.170 . S
C245 C246 1.170 . S
C245 C247 1.380 . S
C246 C245 1.170 . S
C247 C245 1.380 . S
C247 C248 1.170 . S
C248 C247 1.170 . S
C249 C250 1.170 . S
C249 C251 1.380 . S
C250 C249 1.170 . S
C251 C249 1.380 . S
C251 C252 1.170 1_565 S
C252 C251 1.170 1_545 S
C253 C254 1.170 1_455 S
C253 C255 1.380 . S
C254 C253 1.170 1_655 S
C255 C253 1.380 . S
C255 C256 1.170 . S
C256 C255 1.170 . S
C257 C258 1.170 . S
C257 C259 1.380 . S
C258 C257 1.170 . S
C259 C257 1.380 . S
C259 C260 1.170 . S
C260 C259 1.170 . S
C261 C262 1.170 . S
C261 C263 1.380 . S
C262 C261 1.170 . S
C263 C261 1.380 . S
C263 C264 1.170 . S
C264 C263 1.170 . S
C265 C266 1.170 . S
C265 C267 1.380 . S
C266 C265 1.170 . S
C267 C265 1.380 . S
C267 C268 1.170 . S
C268 C267 1.170 . S
C269 C270 1.170 . S
C269 C271 1.380 . S
C270 C269 1.170 . S
C271 C269 1.380 . S
C271 C272 1.170 . S
C272 C271 1.170 . S
C273 C274 1.170 . S
C273 C275 1.380 . S
C274 C273 1.170 . S
C275 C273 1.380 . S
C275 C276 1.170 . S
C276 C275 1.170 . S
C277 C278 1.170 . S
C277 C279 1.380 . S
C278 C277 1.170 . S
C279 C277 1.380 . S
C279 C280 1.170 . S
C280 C279 1.170 . S
C281 C282 1.170 . S
C281 C283 1.380 . S
C282 C281 1.170 . S
C283 C281 1.380 . S
C283 C284 1.170 . S
C284 C283 1.170 . S
C285 C286 1.170 . S
C285 C287 1.380 . S
C286 C285 1.170 . S
C287 C285 1.380 . S
C287 C288 1.170 . S
C288 C287 1.170 . S
C289 C290 1.170 . S
C289 C291 1.380 1_565 S
C290 C289 1.170 . S
C291 C289 1.380 1_545 S
C291 C292 1.170 . S
C292 C291 1.170 . S
C293 C294 1.170 . S
C293 C295 1.380 1_655 S
C294 C293 1.170 . S
C295 C293 1.380 1_455 S
C295 C296 1.170 . S
C296 C295 1.170 . S
C190 C40 1.204 . S
C192 C16 1.051 1_554 S
C194 C62 1.168 . S
C196 C37 0.970 1_554 S
C198 C45 1.034 1_554 S
C200 C19 1.185 . S
C202 C58 0.995 . S
C204 C41 1.223 . S
C206 C61 1.212 . S
C208 C3 0.968 . S
C210 C20 1.189 . S
C212 C24 0.944 . S
C214 C79 1.024 . S
C216 C104 1.178 . S
C218 C125 1.204 . S
C220 C87 1.053 . S
C222 C108 1.013 . S
C224 C82 1.174 . S
C226 C103 1.186 . S
C228 C121 0.944 . S
C230 C124 1.216 . S
C232 C66 1.052 . S
C234 C100 0.944 . S
C236 C83 1.188 . S
C238 C167 1.185 . S
C240 C142 0.944 . S
C242 C150 1.052 . S
C244 C188 1.201 . S
C246 C171 0.965 . S
C248 C145 1.211 . S
C250 C184 1.034 . S
C252 C166 1.184 . S
C254 C187 1.225 . S
C256 C129 1.038 . S
C258 C146 1.219 . S
C260 C163 0.981 . S
C262 C109 1.429 . S
C264 C4 1.464 1_455 S
C266 C70 1.454 . S
C268 C25 1.412 . S
C270 C49 1.464 1_565 S
C272 C88 1.431 . S
C274 C46 1.464 1_545 S
C276 C130 1.426 . S
C278 C7 1.453 1_655 S
C280 C154 1.454 . S
C282 C175 1.452 . S
C284 C28 1.412 . S
C286 C67 1.458 . S
C288 C172 1.447 . S
C290 C91 1.430 . S
C292 C133 1.416 . S
C294 C151 1.411 . S
C296 C112 1.441 . S
