# Generated by pormake.
# Topology wjb, (6)-cn, num edge types: 1
# Building blocks:
#     Node 0, Type 0, BuildingBlock: OJICUG_clean_sbu_0, # of connection points: 6
#     Node 1, Type 0, BuildingBlock: OJICUG_clean_sbu_0, # of connection points: 6
#     Node 2, Type 0, BuildingBlock: OJICUG_clean_sbu_0, # of connection points: 6
#     Node 3, Type 0, BuildingBlock: OJICUG_clean_sbu_0, # of connection points: 6
#     Node 4, Type 0, BuildingBlock: OJICUG_clean_sbu_0, # of connection points: 6
#     Node 5, Type 0, BuildingBlock: OJICUG_clean_sbu_0, # of connection points: 6
#     Node 6, Type 0, BuildingBlock: OJICUG_clean_sbu_0, # of connection points: 6
#     Node 7, Type 0, BuildingBlock: OJICUG_clean_sbu_0, # of connection points: 6
#     Node 8, Type 0, BuildingBlock: OJICUG_clean_sbu_0, # of connection points: 6
#     Node 9, Type 0, BuildingBlock: OJICUG_clean_sbu_0, # of connection points: 6
#     Node 10, Type 0, BuildingBlock: OJICUG_clean_sbu_0, # of connection points: 6
#     Node 11, Type 0, BuildingBlock: OJICUG_clean_sbu_0, # of connection points: 6
#     Node 12, Type 0, BuildingBlock: OJICUG_clean_sbu_0, # of connection points: 6
#     Node 13, Type 0, BuildingBlock: OJICUG_clean_sbu_0, # of connection points: 6
#     Node 14, Type 0, BuildingBlock: OJICUG_clean_sbu_0, # of connection points: 6
#     Node 15, Type 0, BuildingBlock: OJICUG_clean_sbu_0, # of connection points: 6
#     Node 16, Type 0, BuildingBlock: OJICUG_clean_sbu_0, # of connection points: 6
#     Node 17, Type 0, BuildingBlock: OJICUG_clean_sbu_0, # of connection points: 6
#     Node 18, Type 0, BuildingBlock: OJICUG_clean_sbu_0, # of connection points: 6
#     Node 19, Type 0, BuildingBlock: OJICUG_clean_sbu_0, # of connection points: 6
#     Node 20, Type 0, BuildingBlock: OJICUG_clean_sbu_0, # of connection points: 6
#     Node 21, Type 0, BuildingBlock: OJICUG_clean_sbu_0, # of connection points: 6
#     Node 22, Type 0, BuildingBlock: OJICUG_clean_sbu_0, # of connection points: 6
#     Node 23, Type 0, BuildingBlock: OJICUG_clean_sbu_0, # of connection points: 6
#     Edge 24, Type (0, 0), BuildingBlock: UVAHIK_clean_linker_0, # of connection points: 2
#     Edge 25, Type (0, 0), BuildingBlock: UVAHIK_clean_linker_0, # of connection points: 2
#     Edge 26, Type (0, 0), BuildingBlock: UVAHIK_clean_linker_0, # of connection points: 2
#     Edge 27, Type (0, 0), BuildingBlock: UVAHIK_clean_linker_0, # of connection points: 2
#     Edge 28, Type (0, 0), BuildingBlock: UVAHIK_clean_linker_0, # of connection points: 2
#     Edge 29, Type (0, 0), BuildingBlock: UVAHIK_clean_linker_0, # of connection points: 2
#     Edge 30, Type (0, 0), BuildingBlock: UVAHIK_clean_linker_0, # of connection points: 2
#     Edge 31, Type (0, 0), BuildingBlock: UVAHIK_clean_linker_0, # of connection points: 2
#     Edge 32, Type (0, 0), BuildingBlock: UVAHIK_clean_linker_0, # of connection points: 2
#     Edge 33, Type (0, 0), BuildingBlock: UVAHIK_clean_linker_0, # of connection points: 2
#     Edge 34, Type (0, 0), BuildingBlock: UVAHIK_clean_linker_0, # of connection points: 2
#     Edge 35, Type (0, 0), BuildingBlock: UVAHIK_clean_linker_0, # of connection points: 2
#     Edge 36, Type (0, 0), BuildingBlock: UVAHIK_clean_linker_0, # of connection points: 2
#     Edge 37, Type (0, 0), BuildingBlock: UVAHIK_clean_linker_0, # of connection points: 2
#     Edge 38, Type (0, 0), BuildingBlock: UVAHIK_clean_linker_0, # of connection points: 2
#     Edge 39, Type (0, 0), BuildingBlock: UVAHIK_clean_linker_0, # of connection points: 2
#     Edge 40, Type (0, 0), BuildingBlock: UVAHIK_clean_linker_0, # of connection points: 2
#     Edge 41, Type (0, 0), BuildingBlock: UVAHIK_clean_linker_0, # of connection points: 2
#     Edge 42, Type (0, 0), BuildingBlock: UVAHIK_clean_linker_0, # of connection points: 2
#     Edge 43, Type (0, 0), BuildingBlock: UVAHIK_clean_linker_0, # of connection points: 2
#     Edge 44, Type (0, 0), BuildingBlock: UVAHIK_clean_linker_0, # of connection points: 2
#     Edge 45, Type (0, 0), BuildingBlock: UVAHIK_clean_linker_0, # of connection points: 2
#     Edge 46, Type (0, 0), BuildingBlock: UVAHIK_clean_linker_0, # of connection points: 2
#     Edge 47, Type (0, 0), BuildingBlock: UVAHIK_clean_linker_0, # of connection points: 2
#     Edge 48, Type (0, 0), BuildingBlock: UVAHIK_clean_linker_0, # of connection points: 2
#     Edge 49, Type (0, 0), BuildingBlock: UVAHIK_clean_linker_0, # of connection points: 2
#     Edge 50, Type (0, 0), BuildingBlock: UVAHIK_clean_linker_0, # of connection points: 2
#     Edge 51, Type (0, 0), BuildingBlock: UVAHIK_clean_linker_0, # of connection points: 2
#     Edge 52, Type (0, 0), BuildingBlock: UVAHIK_clean_linker_0, # of connection points: 2
#     Edge 53, Type (0, 0), BuildingBlock: UVAHIK_clean_linker_0, # of connection points: 2
#     Edge 54, Type (0, 0), BuildingBlock: UVAHIK_clean_linker_0, # of connection points: 2
#     Edge 55, Type (0, 0), BuildingBlock: UVAHIK_clean_linker_0, # of connection points: 2
#     Edge 56, Type (0, 0), BuildingBlock: UVAHIK_clean_linker_0, # of connection points: 2
#     Edge 57, Type (0, 0), BuildingBlock: UVAHIK_clean_linker_0, # of connection points: 2
#     Edge 58, Type (0, 0), BuildingBlock: UVAHIK_clean_linker_0, # of connection points: 2
#     Edge 59, Type (0, 0), BuildingBlock: UVAHIK_clean_linker_0, # of connection points: 2
#     Edge 60, Type (0, 0), BuildingBlock: UVAHIK_clean_linker_0, # of connection points: 2
#     Edge 61, Type (0, 0), BuildingBlock: UVAHIK_clean_linker_0, # of connection points: 2
#     Edge 62, Type (0, 0), BuildingBlock: UVAHIK_clean_linker_0, # of connection points: 2
#     Edge 63, Type (0, 0), BuildingBlock: UVAHIK_clean_linker_0, # of connection points: 2
#     Edge 64, Type (0, 0), BuildingBlock: UVAHIK_clean_linker_0, # of connection points: 2
#     Edge 65, Type (0, 0), BuildingBlock: UVAHIK_clean_linker_0, # of connection points: 2
#     Edge 66, Type (0, 0), BuildingBlock: UVAHIK_clean_linker_0, # of connection points: 2
#     Edge 67, Type (0, 0), BuildingBlock: UVAHIK_clean_linker_0, # of connection points: 2
#     Edge 68, Type (0, 0), BuildingBlock: UVAHIK_clean_linker_0, # of connection points: 2
#     Edge 69, Type (0, 0), BuildingBlock: UVAHIK_clean_linker_0, # of connection points: 2
#     Edge 70, Type (0, 0), BuildingBlock: UVAHIK_clean_linker_0, # of connection points: 2
#     Edge 71, Type (0, 0), BuildingBlock: UVAHIK_clean_linker_0, # of connection points: 2
#     Edge 72, Type (0, 0), BuildingBlock: UVAHIK_clean_linker_0, # of connection points: 2
#     Edge 73, Type (0, 0), BuildingBlock: UVAHIK_clean_linker_0, # of connection points: 2
#     Edge 74, Type (0, 0), BuildingBlock: UVAHIK_clean_linker_0, # of connection points: 2
#     Edge 75, Type (0, 0), BuildingBlock: UVAHIK_clean_linker_0, # of connection points: 2
#     Edge 76, Type (0, 0), BuildingBlock: UVAHIK_clean_linker_0, # of connection points: 2
#     Edge 77, Type (0, 0), BuildingBlock: UVAHIK_clean_linker_0, # of connection points: 2
#     Edge 78, Type (0, 0), BuildingBlock: UVAHIK_clean_linker_0, # of connection points: 2
#     Edge 79, Type (0, 0), BuildingBlock: UVAHIK_clean_linker_0, # of connection points: 2
#     Edge 80, Type (0, 0), BuildingBlock: UVAHIK_clean_linker_0, # of connection points: 2
#     Edge 81, Type (0, 0), BuildingBlock: UVAHIK_clean_linker_0, # of connection points: 2
#     Edge 82, Type (0, 0), BuildingBlock: UVAHIK_clean_linker_0, # of connection points: 2
#     Edge 83, Type (0, 0), BuildingBlock: UVAHIK_clean_linker_0, # of connection points: 2
#     Edge 84, Type (0, 0), BuildingBlock: UVAHIK_clean_linker_0, # of connection points: 2
#     Edge 85, Type (0, 0), BuildingBlock: UVAHIK_clean_linker_0, # of connection points: 2
#     Edge 86, Type (0, 0), BuildingBlock: UVAHIK_clean_linker_0, # of connection points: 2
#     Edge 87, Type (0, 0), BuildingBlock: UVAHIK_clean_linker_0, # of connection points: 2
#     Edge 88, Type (0, 0), BuildingBlock: UVAHIK_clean_linker_0, # of connection points: 2
#     Edge 89, Type (0, 0), BuildingBlock: UVAHIK_clean_linker_0, # of connection points: 2
#     Edge 90, Type (0, 0), BuildingBlock: UVAHIK_clean_linker_0, # of connection points: 2
#     Edge 91, Type (0, 0), BuildingBlock: UVAHIK_clean_linker_0, # of connection points: 2
#     Edge 92, Type (0, 0), BuildingBlock: UVAHIK_clean_linker_0, # of connection points: 2
#     Edge 93, Type (0, 0), BuildingBlock: UVAHIK_clean_linker_0, # of connection points: 2
#     Edge 94, Type (0, 0), BuildingBlock: UVAHIK_clean_linker_0, # of connection points: 2
#     Edge 95, Type (0, 0), BuildingBlock: UVAHIK_clean_linker_0, # of connection points: 2
# Relax obj value: 0.482
# Max RMSD: 0.212
# Mean RMSD: 0.212
data_MOF--net-wjb--node1-OJICUG_clean_sbu_0--edge1-UVAHIK_clean_linker_0
_symmetry_space_group_name_H-M    P1
_symmetry_Int_Tables_number       1
_symmetry_cell_setting            triclinic
loop_
_symmetry_equiv_pos_as_xyz
'x, y, z'
_cell_length_a     65.933596
_cell_length_b     65.955332
_cell_length_c     73.058433
_cell_angle_alpha  90.017108
_cell_angle_beta   90.010852
_cell_angle_gamma 119.98954
loop_
_atom_site_label
_atom_site_type_symbol
_atom_site_fract_x
_atom_site_fract_y
_atom_site_fract_z
_atom_type_partial_charge
Sc0 Sc 0.12421 0.4885 0.10882 0.0
Sc1 Sc 0.16218 0.46531 0.11016 0.0
Sc2 Sc 0.16955 0.50705 0.07689 0.0
O3 O 0.15208 0.48703 0.09868 0.0
C4 C 0.11873 0.49641 0.06631 0.0
C5 C 0.10647 0.43421 0.1074 0.0
C6 C 0.16733 0.45896 0.06754 0.0
C7 C 0.14574 0.48034 0.14559 0.0
C8 C 0.16177 0.54175 0.10312 0.0
C9 C 0.21139 0.50998 0.1013 0.0
O10 O 0.11171 0.49352 0.08276 0.0
O11 O 0.12656 0.43667 0.1106 0.0
O12 O 0.16837 0.47795 0.06269 0.0
O13 O 0.13145 0.48435 0.1369 0.0
O14 O 0.17137 0.53766 0.0895 0.0
O15 O 0.19869 0.49178 0.11077 0.0
O16 O 0.14508 0.52573 0.11238 0.0
O17 O 0.15947 0.47495 0.13764 0.0
O18 O 0.2032 0.51708 0.08867 0.0
O19 O 0.10273 0.45128 0.10542 0.0
O20 O 0.13867 0.49963 0.06186 0.0
O21 O 0.16613 0.45261 0.08409 0.0
Sc22 Sc 0.64138 0.13014 0.6097 0.0
Sc23 Sc 0.70337 0.16076 0.61355 0.0
Sc24 Sc 0.67488 0.18526 0.58922 0.0
O25 O 0.67318 0.15867 0.60416 0.0
C26 C 0.63327 0.14159 0.5687 0.0
C27 C 0.67316 0.10741 0.60116 0.0
C28 C 0.71748 0.18057 0.57319 0.0
C29 C 0.66924 0.13866 0.64757 0.0
C30 C 0.63075 0.17179 0.61505 0.0
C31 C 0.71471 0.21325 0.61894 0.0
O32 O 0.62765 0.12762 0.58222 0.0
O33 O 0.69222 0.12528 0.60596 0.0
O34 O 0.70212 0.18681 0.57204 0.0
O35 O 0.65051 0.12948 0.63811 0.0
O36 O 0.64757 0.18591 0.60486 0.0
O37 O 0.71865 0.19667 0.62238 0.0
O38 O 0.62627 0.151 0.61824 0.0
O39 O 0.68945 0.15064 0.64054 0.0
O40 O 0.69944 0.21142 0.60746 0.0
O41 O 0.6535 0.10668 0.60139 0.0
O42 O 0.65025 0.16246 0.56927 0.0
O43 O 0.72028 0.17113 0.58738 0.0
Sc44 Sc 0.51221 0.64771 0.10769 0.0
Sc45 Sc 0.54437 0.70956 0.11275 0.0
Sc46 Sc 0.49749 0.68316 0.08173 0.0
O47 O 0.51801 0.6801 0.10076 0.0
C48 C 0.49996 0.63986 0.06498 0.0
C49 C 0.56778 0.67819 0.10518 0.0
C50 C 0.54836 0.72465 0.07097 0.0
C51 C 0.52575 0.67451 0.14633 0.0
C52 C 0.4607 0.64014 0.10611 0.0
C53 C 0.50424 0.72251 0.11054 0.0
O54 O 0.50507 0.6339 0.08007 0.0
O55 O 0.56877 0.69731 0.10953 0.0
O56 O 0.5273 0.70955 0.06704 0.0
O57 O 0.51783 0.65619 0.13649 0.0
O58 O 0.46624 0.65699 0.09503 0.0
O59 O 0.52313 0.72549 0.11756 0.0
O60 O 0.4752 0.6343 0.11212 0.0
O61 O 0.53499 0.69496 0.13963 0.0
O62 O 0.49374 0.70829 0.09758 0.0
O63 O 0.54865 0.65888 0.10337 0.0
O64 O 0.49769 0.65779 0.06349 0.0
O65 O 0.55677 0.72724 0.087 0.0
Sc66 Sc 0.86809 0.50373 0.61602 0.0
Sc67 Sc 0.83194 0.52963 0.61474 0.0
Sc68 Sc 0.81756 0.47944 0.58873 0.0
O69 O 0.83929 0.50436 0.6065 0.0
C70 C 0.86746 0.48957 0.57411 0.0
C71 C 0.88736 0.5584 0.6106 0.0
C72 C 0.81987 0.52537 0.57225 0.0
C73 C 0.84926 0.51724 0.65176 0.0
C74 C 0.82955 0.4496 0.61644 0.0
C75 C 0.78107 0.48465 0.61408 0.0
O76 O 0.87851 0.49804 0.58904 0.0
O77 O 0.8675 0.55711 0.61096 0.0
O78 O 0.81662 0.50475 0.57086 0.0
O79 O 0.86078 0.50895 0.64388 0.0
O80 O 0.81628 0.4517 0.60492 0.0
O81 O 0.79522 0.5053 0.61953 0.0
O82 O 0.84917 0.46663 0.6214 0.0
O83 O 0.8382 0.52537 0.64302 0.0
O84 O 0.78687 0.4736 0.60304 0.0
O85 O 0.89018 0.54078 0.61224 0.0
O86 O 0.84574 0.48225 0.57236 0.0
O87 O 0.82507 0.53658 0.58728 0.0
Sc88 Sc 0.35507 0.87048 0.11398 0.0
Sc89 Sc 0.29311 0.83641 0.11627 0.0
Sc90 Sc 0.32505 0.81761 0.08973 0.0
O91 O 0.32443 0.84149 0.1067 0.0
C92 C 0.3665 0.86458 0.07252 0.0
C93 C 0.32088 0.89063 0.10642 0.0
C94 C 0.28142 0.82086 0.07452 0.0
C95 C 0.32565 0.85723 0.15131 0.0
C96 C 0.36777 0.83008 0.1169 0.0
C97 C 0.28436 0.78457 0.11745 0.0
O98 O 0.37037 0.87665 0.08699 0.0
O99 O 0.30233 0.87188 0.11065 0.0
O100 O 0.29813 0.81664 0.0725 0.0
O101 O 0.34449 0.86822 0.14217 0.0
O102 O 0.35191 0.81675 0.10568 0.0
O103 O 0.27967 0.80009 0.12274 0.0
O104 O 0.37151 0.85033 0.12136 0.0
O105 O 0.3058 0.84458 0.14387 0.0
O106 O 0.30009 0.78851 0.10571 0.0
O107 O 0.34115 0.89272 0.1067 0.0
O108 O 0.35037 0.84334 0.07146 0.0
O109 O 0.27716 0.82764 0.08959 0.0
Sc110 Sc 0.48148 0.34582 0.61123 0.0
Sc111 Sc 0.44961 0.28345 0.61187 0.0
Sc112 Sc 0.49758 0.31372 0.5824 0.0
O113 O 0.47612 0.31436 0.60183 0.0
C114 C 0.49249 0.35707 0.56878 0.0
C115 C 0.42561 0.31489 0.6095 0.0
C116 C 0.44759 0.27308 0.56918 0.0
C117 C 0.46883 0.31514 0.64776 0.0
C118 C 0.53367 0.35515 0.60802 0.0
C119 C 0.49066 0.27173 0.60829 0.0
O120 O 0.48622 0.36124 0.58415 0.0
O121 O 0.42467 0.2952 0.60986 0.0
O122 O 0.46863 0.28897 0.56633 0.0
O123 O 0.47806 0.33453 0.63923 0.0
O124 O 0.52838 0.33856 0.59676 0.0
O125 O 0.47151 0.26802 0.61536 0.0
O126 O 0.51886 0.36048 0.61409 0.0
O127 O 0.4579 0.29541 0.63974 0.0
O128 O 0.50137 0.28712 0.59609 0.0
O129 O 0.44468 0.33441 0.60984 0.0
O130 O 0.49697 0.34063 0.56647 0.0
O131 O 0.43831 0.2682 0.58499 0.0
Sc132 Sc 0.50021 0.8161 0.91989 0.0
Sc133 Sc 0.54138 0.82921 0.88487 0.0
Sc134 Sc 0.51121 0.86085 0.88874 0.0
O135 O 0.51754 0.83537 0.89776 0.0
C136 C 0.46011 0.81803 0.89646 0.0
C137 C 0.50189 0.7776 0.89413 0.0
C138 C 0.5201 0.84202 0.85084 0.0
C139 C 0.55161 0.82549 0.92711 0.0
C140 C 0.50482 0.86462 0.93175 0.0
C141 C 0.56677 0.88484 0.88733 0.0
O142 O 0.46723 0.80896 0.90844 0.0
O143 O 0.51815 0.79193 0.8837 0.0
O144 O 0.51323 0.85362 0.86026 0.0
O145 O 0.53201 0.82231 0.93278 0.0
O146 O 0.50778 0.87257 0.91556 0.0
O147 O 0.56679 0.8658 0.88467 0.0
O148 O 0.50282 0.84492 0.93537 0.0
O149 O 0.5568 0.8268 0.91023 0.0
O150 O 0.54819 0.88601 0.88955 0.0
O151 O 0.49469 0.78407 0.90782 0.0
O152 O 0.47382 0.83677 0.88778 0.0
O153 O 0.52962 0.8313 0.85795 0.0
Sc154 Sc 0.66586 0.48728 0.40013 0.0
Sc155 Sc 0.69815 0.54023 0.37651 0.0
Sc156 Sc 0.6365 0.51403 0.38074 0.0
O157 O 0.66682 0.51392 0.38584 0.0
C158 C 0.62033 0.46046 0.37478 0.0
C159 C 0.70371 0.49543 0.37005 0.0
C160 C 0.66454 0.53151 0.34273 0.0
C161 C 0.71218 0.53174 0.41583 0.0
C162 C 0.62819 0.4945 0.4219 0.0
C163 C 0.67218 0.56769 0.38914 0.0
O164 O 0.63596 0.46127 0.38542 0.0
O165 O 0.71097 0.51714 0.36818 0.0
O166 O 0.64617 0.5244 0.35246 0.0
O167 O 0.6962 0.51031 0.41615 0.0
O168 O 0.62279 0.50289 0.40826 0.0
O169 O 0.69002 0.56699 0.3835 0.0
O170 O 0.6443 0.48927 0.42121 0.0
O171 O 0.71453 0.54557 0.40287 0.0
O172 O 0.65178 0.54977 0.38983 0.0
O173 O 0.68679 0.48222 0.38041 0.0
O174 O 0.61828 0.47822 0.37123 0.0
O175 O 0.68442 0.53704 0.34947 0.0
Sc176 Sc 0.16602 0.66006 0.91317 0.0
Sc177 Sc 0.1609 0.69769 0.88171 0.0
Sc178 Sc 0.12235 0.63643 0.87943 0.0
O179 O 0.14972 0.66475 0.89143 0.0
C180 C 0.15769 0.61795 0.88659 0.0
C181 C 0.20929 0.70011 0.89094 0.0
C182 C 0.14829 0.66853 0.84467 0.0
C183 C 0.1648 0.70608 0.9248 0.0
C184 C 0.11357 0.62119 0.92164 0.0
C185 C 0.10526 0.67381 0.87984 0.0
O186 O 0.16747 0.63141 0.90021 0.0
O187 O 0.19741 0.70746 0.8824 0.0
O188 O 0.13391 0.64932 0.85224 0.0
O189 O 0.16605 0.68789 0.92844 0.0
O190 O 0.10695 0.61868 0.90503 0.0
O191 O 0.12572 0.69162 0.88007 0.0
O192 O 0.134 0.63639 0.92673 0.0
O193 O 0.16311 0.71201 0.90859 0.0
O194 O 0.10117 0.65278 0.88015 0.0
O195 O 0.20018 0.68322 0.90223 0.0
O196 O 0.14159 0.6182 0.8772 0.0
O197 O 0.15994 0.68747 0.85358 0.0
Sc198 Sc 0.50315 0.1954 0.39827 0.0
Sc199 Sc 0.45319 0.17024 0.37034 0.0
Sc200 Sc 0.48446 0.1407 0.37811 0.0
O201 O 0.48031 0.16882 0.38225 0.0
C202 C 0.53653 0.1824 0.3751 0.0
C203 C 0.49418 0.22352 0.36728 0.0
C204 C 0.46836 0.1486 0.33859 0.0
C205 C 0.45348 0.18936 0.40988 0.0
C206 C 0.50034 0.15263 0.42012 0.0
C207 C 0.42985 0.11682 0.3828 0.0
O208 O 0.53288 0.19538 0.38593 0.0
O209 O 0.47347 0.20719 0.36388 0.0
O210 O 0.47452 0.13766 0.34955 0.0
O211 O 0.47549 0.1981 0.41195 0.0
O212 O 0.49531 0.13981 0.40594 0.0
O213 O 0.42885 0.13364 0.37521 0.0
O214 O 0.5018 0.17258 0.41986 0.0
O215 O 0.4423 0.17741 0.396 0.0
O216 O 0.44902 0.11739 0.38628 0.0
O217 O 0.50757 0.22124 0.37851 0.0
O218 O 0.52045 0.16228 0.36995 0.0
O219 O 0.46219 0.16306 0.3439 0.0
Sc220 Sc 0.31287 0.49842 0.90627 0.0
Sc221 Sc 0.285 0.45042 0.87648 0.0
Sc222 Sc 0.34666 0.4795 0.8825 0.0
O223 O 0.31487 0.4761 0.88842 0.0
C224 C 0.35739 0.53221 0.88204 0.0
C225 C 0.27414 0.49205 0.87694 0.0
C226 C 0.32096 0.46664 0.84343 0.0
C227 C 0.26934 0.44929 0.9178 0.0
C228 C 0.35414 0.49352 0.92477 0.0
C229 C 0.31346 0.4243 0.88559 0.0
O230 O 0.34009 0.52818 0.8922 0.0
O231 O 0.27088 0.47283 0.87045 0.0
O232 O 0.33897 0.474 0.85358 0.0
O233 O 0.28546 0.47003 0.92153 0.0
O234 O 0.35945 0.48632 0.91041 0.0
O235 O 0.29502 0.42456 0.881 0.0
O236 O 0.33752 0.49796 0.92517 0.0
O237 O 0.26651 0.44009 0.90205 0.0
O238 O 0.33338 0.44274 0.88724 0.0
O239 O 0.28837 0.50278 0.88986 0.0
O240 O 0.36247 0.51663 0.87752 0.0
O241 O 0.3004 0.45824 0.8498 0.0
Sc242 Sc 0.81477 0.32874 0.40526 0.0
Sc243 Sc 0.83151 0.2974 0.37619 0.0
Sc244 Sc 0.86382 0.35965 0.37681 0.0
O245 O 0.8368 0.32863 0.38607 0.0
C246 C 0.82177 0.37023 0.37893 0.0
C247 C 0.7793 0.28737 0.37892 0.0
C248 C 0.84643 0.32912 0.34017 0.0
C249 C 0.82142 0.28662 0.41875 0.0
C250 C 0.86369 0.37104 0.4193 0.0
C251 C 0.88688 0.32714 0.38014 0.0
O252 O 0.80993 0.35389 0.39025 0.0
O253 O 0.79453 0.28348 0.37166 0.0
O254 O 0.85659 0.34862 0.34859 0.0
O255 O 0.81768 0.30344 0.42179 0.0
O256 O 0.87429 0.37479 0.40402 0.0
O257 O 0.86773 0.30781 0.37963 0.0
O258 O 0.84245 0.35528 0.42139 0.0
O259 O 0.82552 0.28163 0.40289 0.0
O260 O 0.88821 0.34703 0.37902 0.0
O261 O 0.7842 0.30245 0.39145 0.0
O262 O 0.84199 0.3752 0.37331 0.0
O263 O 0.83702 0.30953 0.34839 0.0
Sc264 Sc 0.86897 0.51394 0.88519 0.0
Sc265 Sc 0.83399 0.541 0.88445 0.0
Sc266 Sc 0.82425 0.49844 0.9175 0.0
O267 O 0.84247 0.51784 0.89568 0.0
C268 C 0.83009 0.46127 0.89324 0.0
C269 C 0.84642 0.52147 0.84881 0.0
C270 C 0.7836 0.49795 0.89318 0.0
C271 C 0.88979 0.56926 0.88424 0.0
C272 C 0.87509 0.50797 0.92803 0.0
C273 C 0.82882 0.54761 0.92712 0.0
O274 O 0.84772 0.47633 0.88421 0.0
O275 O 0.83605 0.53082 0.85684 0.0
O276 O 0.79122 0.49012 0.90568 0.0
O277 O 0.89224 0.55129 0.88494 0.0
O278 O 0.85476 0.50411 0.93208 0.0
O279 O 0.83087 0.55438 0.9106 0.0
O280 O 0.88281 0.51165 0.91168 0.0
O281 O 0.87004 0.56827 0.88394 0.0
O282 O 0.82676 0.52808 0.93164 0.0
O283 O 0.8589 0.51483 0.8573 0.0
O284 O 0.82018 0.46681 0.90563 0.0
O285 O 0.79693 0.51608 0.88386 0.0
Sc286 Sc 0.35045 0.86427 0.3863 0.0
Sc287 Sc 0.28871 0.83458 0.38061 0.0
Sc288 Sc 0.31407 0.81759 0.41512 0.0
O289 O 0.31779 0.83883 0.39394 0.0
C290 C 0.3568 0.82002 0.39227 0.0
C291 C 0.32448 0.84873 0.3475 0.0
C292 C 0.27492 0.78189 0.38723 0.0
C293 C 0.32025 0.88986 0.38605 0.0
C294 C 0.35776 0.86469 0.42957 0.0
C295 C 0.27221 0.82714 0.42229 0.0
O296 O 0.36289 0.83962 0.38462 0.0
O297 O 0.30397 0.83869 0.3541 0.0
O298 O 0.28776 0.78702 0.40137 0.0
O299 O 0.33956 0.89001 0.38791 0.0
O300 O 0.33963 0.84491 0.43199 0.0
O301 O 0.2693 0.82986 0.40548 0.0
O302 O 0.36423 0.87386 0.41384 0.0
O303 O 0.3008 0.87147 0.38265 0.0
O304 O 0.28831 0.82355 0.42808 0.0
O305 O 0.34271 0.85903 0.35739 0.0
O306 O 0.33991 0.81032 0.40363 0.0
O307 O 0.27403 0.79726 0.37732 0.0
Sc308 Sc 0.48228 0.34994 0.87906 0.0
Sc309 Sc 0.45422 0.28791 0.88002 0.0
Sc310 Sc 0.49466 0.32145 0.91417 0.0
O311 O 0.47703 0.3198 0.89104 0.0
C312 C 0.53406 0.36308 0.89006 0.0
C313 C 0.47614 0.31836 0.844 0.0
C314 C 0.49649 0.28073 0.89164 0.0
C315 C 0.42683 0.31604 0.87685 0.0
C316 C 0.48542 0.36364 0.92145 0.0
C317 C 0.44457 0.27771 0.92271 0.0
O318 O 0.51995 0.36569 0.87976 0.0
O319 O 0.46582 0.29897 0.85245 0.0
O320 O 0.50345 0.29619 0.90413 0.0
O321 O 0.44499 0.33637 0.87728 0.0
O322 O 0.48847 0.34712 0.92695 0.0
O323 O 0.43912 0.27234 0.90604 0.0
O324 O 0.48319 0.36706 0.90462 0.0
O325 O 0.4275 0.29714 0.87765 0.0
O326 O 0.46385 0.29519 0.92767 0.0
O327 O 0.48288 0.33786 0.85187 0.0
O328 O 0.52724 0.34818 0.90298 0.0
O329 O 0.47901 0.27579 0.88145 0.0
Sc330 Sc 0.13601 0.48702 0.38003 0.0
Sc331 Sc 0.16571 0.45485 0.37508 0.0
Sc332 Sc 0.19132 0.50756 0.39988 0.0
O333 O 0.16431 0.48313 0.38498 0.0
C334 C 0.1785 0.53897 0.37457 0.0
C335 C 0.14347 0.46788 0.34169 0.0
C336 C 0.21861 0.49506 0.36991 0.0
C337 C 0.11247 0.43228 0.38769 0.0
C338 C 0.14812 0.5061 0.42099 0.0
C339 C 0.18539 0.45965 0.4155 0.0
O340 O 0.15726 0.52324 0.37206 0.0
O341 O 0.15536 0.45925 0.34826 0.0
O342 O 0.21719 0.50841 0.38171 0.0
O343 O 0.11213 0.45139 0.38781 0.0
O344 O 0.16911 0.51035 0.41999 0.0
O345 O 0.17611 0.44776 0.4011 0.0
O346 O 0.13378 0.49741 0.40774 0.0
O347 O 0.13015 0.43084 0.38271 0.0
O348 O 0.19185 0.48127 0.41693 0.0
O349 O 0.13487 0.47766 0.35154 0.0
O350 O 0.1928 0.53575 0.38409 0.0
O351 O 0.2016 0.47493 0.36609 0.0
Sc352 Sc 0.64539 0.12962 0.88096 0.0
Sc353 Sc 0.7074 0.16293 0.87788 0.0
Sc354 Sc 0.67803 0.17328 0.91325 0.0
O355 O 0.67685 0.15519 0.89062 0.0
C356 C 0.63592 0.17142 0.8904 0.0
C357 C 0.6732 0.15093 0.84364 0.0
C358 C 0.71841 0.2135 0.88859 0.0
C359 C 0.67852 0.10727 0.87789 0.0
C360 C 0.63452 0.1235 0.92372 0.0
C361 C 0.72077 0.16554 0.92017 0.0
O362 O 0.63078 0.15246 0.88206 0.0
O363 O 0.69343 0.16024 0.85082 0.0
O364 O 0.70523 0.20594 0.90255 0.0
O365 O 0.65835 0.10545 0.87895 0.0
O366 O 0.65114 0.1438 0.92746 0.0
O367 O 0.72577 0.16661 0.90327 0.0
O368 O 0.63036 0.11533 0.90754 0.0
O369 O 0.69765 0.12669 0.87766 0.0
O370 O 0.70292 0.16599 0.92614 0.0
O371 O 0.65454 0.13977 0.8529 0.0
O372 O 0.65276 0.18127 0.90179 0.0
O373 O 0.71992 0.19996 0.877 0.0
Sc374 Sc 0.50855 0.63334 0.37904 0.0
Sc375 Sc 0.53026 0.69465 0.37921 0.0
Sc376 Sc 0.48181 0.65698 0.40632 0.0
O377 O 0.50686 0.66167 0.38812 0.0
C378 C 0.45399 0.61517 0.37778 0.0
C379 C 0.52088 0.66491 0.34286 0.0
C380 C 0.48337 0.69725 0.38104 0.0
C381 C 0.56199 0.6714 0.38591 0.0
C382 C 0.49397 0.61869 0.42064 0.0
C383 C 0.52654 0.70264 0.4218 0.0
O384 O 0.4718 0.61424 0.3722 0.0
O385 O 0.52601 0.68384 0.3511 0.0
O386 O 0.47364 0.68042 0.3923 0.0
O387 O 0.54515 0.65036 0.38549 0.0
O388 O 0.48665 0.63299 0.42291 0.0
O389 O 0.53702 0.70886 0.40648 0.0
O390 O 0.50189 0.61633 0.40543 0.0
O391 O 0.55955 0.68901 0.38274 0.0
O392 O 0.5066 0.68438 0.42382 0.0
O393 O 0.51526 0.64594 0.35125 0.0
O394 O 0.45503 0.62929 0.39012 0.0
O395 O 0.50393 0.70464 0.37489 0.0
Sc396 Sc 0.50036 0.17972 0.08447 0.0
Sc397 Sc 0.44939 0.15641 0.11135 0.0
Sc398 Sc 0.47979 0.12511 0.10549 0.0
O399 O 0.47654 0.15374 0.1005 0.0
C400 C 0.49751 0.13522 0.06422 0.0
C401 C 0.45237 0.17466 0.07046 0.0
C402 C 0.42487 0.10321 0.0988 0.0
C403 C 0.49039 0.20889 0.11468 0.0
C404 C 0.53226 0.16738 0.10945 0.0
C405 C 0.46255 0.13355 0.14426 0.0
O406 O 0.50271 0.15652 0.06495 0.0
O407 O 0.44199 0.16743 0.08573 0.0
O408 O 0.44346 0.10184 0.09882 0.0
O409 O 0.5021 0.20688 0.10174 0.0
O410 O 0.51662 0.14612 0.11213 0.0
O411 O 0.45355 0.14525 0.138 0.0
O412 O 0.52879 0.18166 0.10013 0.0
O413 O 0.47106 0.19204 0.12022 0.0
O414 O 0.47236 0.12523 0.1342 0.0
O415 O 0.47335 0.17938 0.06772 0.0
O416 O 0.48826 0.1213 0.07761 0.0
O417 O 0.42437 0.12144 0.10357 0.0
Sc418 Sc 0.33668 0.51115 0.58063 0.0
Sc419 Sc 0.30143 0.46694 0.61182 0.0
Sc420 Sc 0.36278 0.48939 0.61061 0.0
O421 O 0.33364 0.48918 0.60109 0.0
C422 C 0.37604 0.49936 0.56838 0.0
C423 C 0.29138 0.46393 0.56883 0.0
C424 C 0.32509 0.43513 0.60792 0.0
C425 C 0.29701 0.51207 0.60524 0.0
C426 C 0.3789 0.54351 0.6076 0.0
C427 C 0.3331 0.48088 0.64743 0.0
O428 O 0.36139 0.50603 0.56533 0.0
O429 O 0.28553 0.45657 0.58514 0.0
O430 O 0.34609 0.45209 0.60722 0.0
O431 O 0.31216 0.51951 0.59257 0.0
O432 O 0.38105 0.52687 0.61435 0.0
O433 O 0.31369 0.47448 0.63951 0.0
O434 O 0.36392 0.5405 0.59531 0.0
O435 O 0.29171 0.49367 0.61435 0.0
O436 O 0.35174 0.48599 0.63874 0.0
O437 O 0.30972 0.48315 0.56494 0.0
O438 O 0.37884 0.49299 0.58411 0.0
O439 O 0.30746 0.43774 0.61051 0.0
Sc440 Sc 0.81614 0.31355 0.07399 0.0
Sc441 Sc 0.82954 0.28635 0.10924 0.0
Sc442 Sc 0.85938 0.34824 0.1061 0.0
O443 O 0.83516 0.31614 0.09647 0.0
C444 C 0.86498 0.35865 0.06325 0.0
C445 C 0.82658 0.27253 0.06692 0.0
C446 C 0.88492 0.31787 0.10936 0.0
C447 C 0.77786 0.27254 0.09933 0.0
C448 C 0.81551 0.35456 0.0966 0.0
C449 C 0.83926 0.32021 0.14344 0.0
O450 O 0.8448 0.34158 0.05963 0.0
O451 O 0.8266 0.26824 0.08388 0.0
O452 O 0.88526 0.33738 0.10862 0.0
O453 O 0.78427 0.28528 0.08508 0.0
O454 O 0.835 0.36116 0.10464 0.0
O455 O 0.83173 0.30017 0.13626 0.0
O456 O 0.80633 0.33737 0.0855 0.0
O457 O 0.79231 0.27216 0.1106 0.0
O458 O 0.84908 0.339 0.13418 0.0
O459 O 0.82476 0.28966 0.06096 0.0
O460 O 0.87333 0.36286 0.07938 0.0
O461 O 0.86623 0.29807 0.10917 0.0
Sc462 Sc 0.4839 0.81282 0.59733 0.0
Sc463 Sc 0.53795 0.83405 0.61987 0.0
Sc464 Sc 0.51002 0.86813 0.61805 0.0
O465 O 0.51063 0.83834 0.61179 0.0
C466 C 0.48865 0.85829 0.5777 0.0
C467 C 0.52872 0.81426 0.57922 0.0
C468 C 0.56353 0.88753 0.60762 0.0
C469 C 0.49489 0.78249 0.62538 0.0
C470 C 0.45692 0.82892 0.62478 0.0
C471 C 0.52973 0.85769 0.65487 0.0
O472 O 0.48262 0.83677 0.57821 0.0
O473 O 0.54187 0.82282 0.59314 0.0
O474 O 0.54543 0.8896 0.60892 0.0
O475 O 0.4816 0.78555 0.61458 0.0
O476 O 0.47425 0.84935 0.62738 0.0
O477 O 0.53657 0.84481 0.6473 0.0
O478 O 0.45789 0.81389 0.61446 0.0
O479 O 0.51586 0.79827 0.62865 0.0
O480 O 0.5206 0.86772 0.64598 0.0
O481 O 0.50754 0.80966 0.57883 0.0
O482 O 0.49882 0.87211 0.59103 0.0
O483 O 0.56378 0.86901 0.61193 0.0
Sc484 Sc 0.65122 0.4812 0.07961 0.0
Sc485 Sc 0.68641 0.52495 0.11119 0.0
Sc486 Sc 0.62567 0.50282 0.10968 0.0
O487 O 0.65452 0.5029 0.10024 0.0
C488 C 0.61285 0.49275 0.06712 0.0
C489 C 0.69848 0.52804 0.06891 0.0
C490 C 0.66255 0.55642 0.10616 0.0
C491 C 0.68891 0.47828 0.10495 0.0
C492 C 0.60775 0.44937 0.10621 0.0
C493 C 0.65562 0.51275 0.14654 0.0
O494 O 0.63059 0.49098 0.06313 0.0
O495 O 0.70222 0.5369 0.08483 0.0
O496 O 0.64183 0.53945 0.10358 0.0
O497 O 0.67189 0.46938 0.09374 0.0
O498 O 0.60909 0.46615 0.11576 0.0
O499 O 0.67406 0.51563 0.13874 0.0
O500 O 0.62027 0.45243 0.09202 0.0
O501 O 0.69675 0.49854 0.11192 0.0
O502 O 0.63792 0.51014 0.13764 0.0
O503 O 0.68144 0.50777 0.06524 0.0
O504 O 0.60766 0.49479 0.0835 0.0
O505 O 0.67956 0.55375 0.11121 0.0
Sc506 Sc 0.19154 0.6929 0.58451 0.0
Sc507 Sc 0.16689 0.71555 0.615 0.0
Sc508 Sc 0.14139 0.65423 0.60938 0.0
O509 O 0.16655 0.68748 0.60301 0.0
C510 C 0.14791 0.64724 0.56724 0.0
C511 C 0.17847 0.73113 0.57327 0.0
C512 C 0.11294 0.68162 0.60607 0.0
C513 C 0.22093 0.73385 0.61339 0.0
C514 C 0.18847 0.65142 0.6088 0.0
C515 C 0.15151 0.67977 0.6483 0.0
O516 O 0.16837 0.66489 0.56678 0.0
O517 O 0.17412 0.7345 0.58957 0.0
O518 O 0.11414 0.66292 0.60585 0.0
O519 O 0.21898 0.72196 0.59917 0.0
O520 O 0.16696 0.64317 0.61291 0.0
O521 O 0.15983 0.70017 0.64169 0.0
O522 O 0.20022 0.6699 0.59926 0.0
O523 O 0.20342 0.73219 0.62193 0.0
O524 O 0.14414 0.66161 0.63837 0.0
O525 O 0.18375 0.7157 0.56881 0.0
O526 O 0.13521 0.64152 0.58149 0.0
O527 O 0.13037 0.70171 0.60943 0.0
C528 C 0.10063 0.60952 0.95393 0.0
C529 C 0.09874 0.6034 0.93532 0.0
C530 C 0.09223 0.5922 0.96744 0.0
C531 C 0.09239 0.53946 0.97464 0.0
H532 H 0.05905 0.53364 0.01977 0.0
C533 C 0.10297 0.48979 0.03447 0.0
C534 C 0.10479 0.49942 0.05191 0.0
C535 C 0.09389 0.49642 0.01983 0.0
C536 C 0.06864 0.53514 0.00735 0.0
H537 H 0.08507 0.57439 0.91621 0.0
H538 H 0.07103 0.54413 0.93992 0.0
H539 H 0.05764 0.55757 0.99482 0.0
H540 H 0.09781 0.52278 0.06801 0.0
H541 H 0.08348 0.53561 0.04246 0.0
H542 H 0.10541 0.51926 0.98731 0.0
C543 C 0.07865 0.5623 0.94398 0.0
C544 C 0.06754 0.54865 0.99299 0.0
C545 C 0.08657 0.5796 0.93044 0.0
C546 C 0.09631 0.5149 0.05469 0.0
C547 C 0.08798 0.52217 0.03994 0.0
C548 C 0.09402 0.52652 0.98909 0.0
C549 C 0.08226 0.56852 0.96258 0.0
C550 C 0.07976 0.55124 0.97663 0.0
C551 C 0.08737 0.51364 0.02212 0.0
C552 C 0.08261 0.52455 0.00588 0.0
H553 H 0.10998 0.62774 0.95806 0.0
H554 H 0.09537 0.59746 0.98169 0.0
H555 H 0.10232 0.54151 0.96227 0.0
H556 H 0.10928 0.47768 0.03204 0.0
H557 H 0.09292 0.48867 0.00657 0.0
C558 C 0.59406 0.11848 0.55328 0.0
C559 C 0.61818 0.1347 0.55219 0.0
C560 C 0.5791 0.11619 0.53877 0.0
C561 C 0.57686 0.15293 0.50218 0.0
H562 H 0.52304 0.09635 0.48403 0.0
C563 C 0.51111 0.12609 0.43704 0.0
C564 C 0.50732 0.1453 0.43712 0.0
C565 C 0.52152 0.12167 0.45208 0.0
C566 C 0.53803 0.11228 0.48898 0.0
H567 H 0.64581 0.15944 0.53438 0.0
H568 H 0.61993 0.15513 0.50912 0.0
H569 H 0.54851 0.09364 0.50728 0.0
H570 H 0.50978 0.17371 0.45378 0.0
H571 H 0.52761 0.16583 0.47995 0.0
H572 H 0.56684 0.17164 0.48393 0.0
C573 C 0.61241 0.14469 0.52132 0.0
C574 C 0.55252 0.11073 0.50233 0.0
C575 C 0.62726 0.14705 0.53577 0.0
C576 C 0.5127 0.15896 0.45309 0.0
C577 C 0.52305 0.15452 0.46809 0.0
C578 C 0.56239 0.15448 0.48902 0.0
C579 C 0.58807 0.13002 0.52294 0.0
C580 C 0.57225 0.13107 0.50892 0.0
C581 C 0.52833 0.13635 0.46752 0.0
C582 C 0.54283 0.13422 0.4822 0.0
H583 H 0.58652 0.10876 0.56578 0.0
H584 H 0.56042 0.1047 0.5404 0.0
H585 H 0.59167 0.16898 0.50719 0.0
H586 H 0.50714 0.11514 0.42501 0.0
H587 H 0.52539 0.10756 0.45118 0.0
C588 C 0.36231 0.50518 0.95768 0.0
C589 C 0.36971 0.50031 0.94103 0.0
C590 C 0.37831 0.5169 0.97171 0.0
C591 C 0.41813 0.56037 0.98831 0.0
H592 H 0.46831 0.55159 0.00693 0.0
C593 C 0.48984 0.63128 0.03182 0.0
C594 C 0.49304 0.62377 0.04904 0.0
C595 C 0.4782 0.61516 0.01783 0.0
C596 C 0.45437 0.55421 0.0018 0.0
H597 H 0.39941 0.50205 0.92678 0.0
H598 H 0.42745 0.5226 0.95145 0.0
H599 H 0.43961 0.523 0.98529 0.0
H600 H 0.48838 0.5936 0.06445 0.0
H601 H 0.46794 0.5654 0.03989 0.0
H602 H 0.43257 0.59137 0.00458 0.0
C603 C 0.40921 0.51734 0.95354 0.0
C604 C 0.43803 0.53793 0.98942 0.0
C605 C 0.39312 0.50555 0.93942 0.0
C606 C 0.48618 0.59999 0.05137 0.0
C607 C 0.47446 0.58381 0.0373 0.0
C608 C 0.4345 0.57666 0.0004 0.0
C609 C 0.40212 0.52405 0.96947 0.0
C610 C 0.41962 0.54078 0.9827 0.0
C611 C 0.46945 0.59113 0.02069 0.0
C612 C 0.45281 0.57383 0.00731 0.0
H613 H 0.34435 0.5011 0.95952 0.0
H614 H 0.37225 0.52139 0.98402 0.0
H615 H 0.40438 0.56328 0.98316 0.0
H616 H 0.49521 0.64949 0.02943 0.0
H617 H 0.47503 0.62139 0.00502 0.0
C618 C 0.89739 0.48117 0.56003 0.0
C619 C 0.8795 0.48668 0.55803 0.0
C620 C 0.90522 0.47395 0.54482 0.0
C621 C 0.90145 0.46902 0.49366 0.0
H622 H 0.89908 0.40985 0.50194 0.0
C623 C 0.8669 0.3783 0.45299 0.0
C624 C 0.87568 0.38624 0.4353 0.0
C625 C 0.87545 0.39337 0.468 0.0
C626 C 0.89998 0.42645 0.49938 0.0
H627 H 0.85717 0.49082 0.5384 0.0
H628 H 0.87069 0.47843 0.51214 0.0
H629 H 0.89972 0.4332 0.528 0.0
H630 H 0.90133 0.416 0.41969 0.0
H631 H 0.91635 0.44252 0.44606 0.0
H632 H 0.9 0.46146 0.46505 0.0
C633 C 0.8788 0.47958 0.52528 0.0
C634 C 0.90063 0.44 0.51435 0.0
C635 C 0.87087 0.48652 0.54041 0.0
C636 C 0.8942 0.40934 0.43314 0.0
C637 C 0.90267 0.42456 0.44822 0.0
C638 C 0.90076 0.45545 0.47869 0.0
C639 C 0.89551 0.47245 0.52734 0.0
C640 C 0.90037 0.46099 0.51168 0.0
C641 C 0.89298 0.41688 0.46577 0.0
C642 C 0.89901 0.43352 0.48137 0.0
H643 H 0.90432 0.48108 0.57346 0.0
H644 H 0.91827 0.46877 0.54685 0.0
H645 H 0.90165 0.4853 0.49111 0.0
H646 H 0.85275 0.36056 0.45519 0.0
H647 H 0.86732 0.38684 0.4812 0.0
C648 C 0.49346 0.89369 0.94267 0.0
C649 C 0.50013 0.87697 0.94668 0.0
C650 C 0.48389 0.90132 0.95629 0.0
C651 C 0.44513 0.8946 0.98244 0.0
H652 H 0.46121 0.89965 0.03393 0.0
C653 C 0.37697 0.86324 0.03977 0.0
C654 C 0.3827 0.8748 0.05677 0.0
C655 C 0.39347 0.87065 0.0257 0.0
C656 C 0.45666 0.89874 0.01959 0.0
H657 H 0.50407 0.85695 0.96855 0.0
H658 H 0.48742 0.87015 0.99216 0.0
H659 H 0.48894 0.90131 0.01105 0.0
H660 H 0.40994 0.9041 0.07189 0.0
H661 H 0.43882 0.917 0.04725 0.0
H662 H 0.41255 0.89127 0.99102 0.0
C663 C 0.4895 0.87738 0.97853 0.0
C664 C 0.47247 0.89947 0.00649 0.0
C665 C 0.49893 0.86967 0.96493 0.0
C666 C 0.40494 0.89476 0.05899 0.0
C667 C 0.42155 0.90208 0.04492 0.0
C668 C 0.42931 0.89382 0.99554 0.0
C669 C 0.48098 0.89256 0.97423 0.0
C670 C 0.46655 0.8966 0.9878 0.0
C671 C 0.41617 0.88974 0.02828 0.0
C672 C 0.43455 0.89506 0.0143 0.0
H673 H 0.49422 0.89978 0.92878 0.0
H674 H 0.47782 0.91331 0.95261 0.0
H675 H 0.43991 0.89217 0.96819 0.0
H676 H 0.35997 0.84788 0.03753 0.0
H677 H 0.38879 0.86059 0.01314 0.0
C678 C 0.62168 0.48216 0.45472 0.0
C679 C 0.61378 0.48808 0.43881 0.0
C680 C 0.60667 0.47162 0.46951 0.0
C681 C 0.55075 0.45683 0.49155 0.0
H682 H 0.55069 0.39969 0.50423 0.0
C683 C 0.49665 0.36496 0.53529 0.0
C684 C 0.49755 0.37322 0.55317 0.0
C685 C 0.5071 0.38058 0.52083 0.0
C686 C 0.55031 0.41548 0.50078 0.0
H687 H 0.58439 0.48935 0.42668 0.0
H688 H 0.55805 0.4708 0.45273 0.0
H689 H 0.57765 0.42556 0.48113 0.0
H690 H 0.50818 0.40429 0.56962 0.0
H691 H 0.52669 0.43178 0.54417 0.0
H692 H 0.52334 0.44652 0.51157 0.0
C693 C 0.57593 0.47436 0.45361 0.0
C694 C 0.56598 0.43045 0.48769 0.0
C695 C 0.59103 0.48495 0.4387 0.0
C696 C 0.50716 0.39742 0.55597 0.0
C697 C 0.51779 0.41315 0.54142 0.0
C698 C 0.53515 0.44187 0.50495 0.0
C699 C 0.58337 0.46673 0.46883 0.0
C700 C 0.56647 0.45132 0.48294 0.0
C701 C 0.51883 0.40485 0.5239 0.0
C702 C 0.53472 0.42095 0.50958 0.0
H703 H 0.6392 0.48465 0.45545 0.0
H704 H 0.61301 0.46633 0.48123 0.0
H705 H 0.55078 0.47282 0.48812 0.0
H706 H 0.48908 0.34639 0.53265 0.0
H707 H 0.50721 0.37367 0.50739 0.0
C708 C 0.90098 0.49264 0.9389 0.0
C709 C 0.8881 0.50389 0.94275 0.0
C710 C 0.90657 0.48178 0.95298 0.0
C711 C 0.87815 0.45129 0.99457 0.0
H712 H 0.93171 0.44289 0.00242 0.0
C713 C 0.89559 0.39879 0.0524 0.0
C714 C 0.87737 0.37596 0.04841 0.0
C715 C 0.90312 0.41655 0.03918 0.0
C716 C 0.91674 0.44524 0.00035 0.0
H717 H 0.87372 0.51522 0.96452 0.0
H718 H 0.88378 0.4967 0.98897 0.0
H719 H 0.93463 0.47289 0.98065 0.0
H720 H 0.85464 0.35349 0.02677 0.0
H721 H 0.86751 0.38449 0.00404 0.0
H722 H 0.85998 0.42325 0.0136 0.0
C723 C 0.88905 0.49573 0.9751 0.0
C724 C 0.91837 0.46228 0.98794 0.0
C725 C 0.8834 0.50644 0.9611 0.0
C726 C 0.86847 0.37088 0.03045 0.0
C727 C 0.87586 0.38859 0.01737 0.0
C728 C 0.87644 0.43416 0.00663 0.0
C729 C 0.89944 0.48214 0.97107 0.0
C730 C 0.89903 0.46545 0.98495 0.0
C731 C 0.89255 0.41171 0.02183 0.0
C732 C 0.8956 0.43085 0.00955 0.0
H733 H 0.90476 0.49029 0.92489 0.0
H734 H 0.9146 0.47144 0.94946 0.0
H735 H 0.8628 0.45295 0.99234 0.0
H736 H 0.90286 0.40335 0.06607 0.0
H737 H 0.91594 0.43434 0.04292 0.0
C738 C 0.48085 0.88766 0.56172 0.0
C739 C 0.48156 0.86667 0.56138 0.0
C740 C 0.47032 0.89318 0.54734 0.0
C741 C 0.45351 0.902 0.50917 0.0
H742 H 0.3921 0.84886 0.49894 0.0
C743 C 0.39764 0.88842 0.44359 0.0
C744 C 0.37316 0.87559 0.44561 0.0
C745 C 0.41225 0.89319 0.45886 0.0
C746 C 0.40905 0.86402 0.50176 0.0
H747 H 0.47367 0.83618 0.54488 0.0
H748 H 0.45537 0.84577 0.52011 0.0
H749 H 0.41632 0.84577 0.52253 0.0
H750 H 0.34484 0.86025 0.46533 0.0
H751 H 0.37022 0.86899 0.49187 0.0
H752 H 0.44619 0.92002 0.48791 0.0
C753 C 0.46256 0.85773 0.53158 0.0
C754 C 0.42304 0.86213 0.51514 0.0
C755 C 0.47307 0.85226 0.5458 0.0
C756 C 0.36364 0.86983 0.46331 0.0
C757 C 0.37817 0.87476 0.47851 0.0
C758 C 0.43951 0.90383 0.49551 0.0
C759 C 0.46033 0.87777 0.53249 0.0
C760 C 0.4455 0.88094 0.51884 0.0
C761 C 0.40255 0.88533 0.47635 0.0
C762 C 0.41714 0.88476 0.49163 0.0
H763 H 0.48729 0.89918 0.57348 0.0
H764 H 0.46882 0.90877 0.54833 0.0
H765 H 0.47079 0.91675 0.5118 0.0
H766 H 0.40549 0.89306 0.43011 0.0
H767 H 0.43097 0.90138 0.45675 0.0
C768 C 0.60407 0.49808 0.03482 0.0
C769 C 0.59606 0.48879 0.05232 0.0
C770 C 0.58865 0.49069 0.01995 0.0
C771 C 0.52517 0.45068 0.00684 0.0
H772 H 0.55385 0.44394 0.96268 0.0
C773 C 0.48398 0.37568 0.95365 0.0
C774 C 0.4887 0.38166 0.93505 0.0
C775 C 0.49276 0.39307 0.96712 0.0
C776 C 0.54559 0.44606 0.97478 0.0
H777 H 0.56561 0.46524 0.06823 0.0
H778 H 0.53901 0.45117 0.04232 0.0
H779 H 0.57846 0.46686 0.98785 0.0
H780 H 0.50481 0.4106 0.91591 0.0
H781 H 0.52071 0.44095 0.93954 0.0
H782 H 0.49214 0.42775 0.99394 0.0
C783 C 0.55686 0.46487 0.03992 0.0
C784 C 0.55973 0.45939 0.9893 0.0
C785 C 0.57216 0.47287 0.05488 0.0
C786 C 0.50074 0.40545 0.93012 0.0
C787 C 0.50996 0.42282 0.94362 0.0
C788 C 0.511 0.4368 0.99242 0.0
C789 C 0.56503 0.47309 0.02209 0.0
C790 C 0.5498 0.46156 0.00575 0.0
C791 C 0.50678 0.4167 0.96224 0.0
C792 C 0.52113 0.4341 0.97639 0.0
H793 H 0.62243 0.51053 0.03255 0.0
H794 H 0.59557 0.49819 0.00666 0.0
H795 H 0.51673 0.4523 0.019 0.0
H796 H 0.47475 0.35749 0.95785 0.0
H797 H 0.4902 0.3879 0.98139 0.0
C798 C 0.15515 0.51958 0.45355 0.0
C799 C 0.14118 0.51386 0.43774 0.0
C800 C 0.1515 0.53091 0.46823 0.0
C801 C 0.15383 0.57225 0.4875 0.0
H802 H 0.09463 0.56077 0.50774 0.0
C803 C 0.15139 0.63993 0.53416 0.0
C804 C 0.14 0.63158 0.55104 0.0
C805 C 0.14769 0.62451 0.5198 0.0
C806 C 0.11127 0.56413 0.50221 0.0
H807 H 0.11125 0.51403 0.42558 0.0
H808 H 0.105 0.53408 0.45129 0.0
H809 H 0.09519 0.53378 0.4848 0.0
H810 H 0.11435 0.60062 0.56557 0.0
H811 H 0.10801 0.57355 0.54039 0.0
H812 H 0.17004 0.60233 0.50478 0.0
C813 C 0.11874 0.52968 0.45227 0.0
C814 C 0.11158 0.54877 0.48905 0.0
C815 C 0.12235 0.51822 0.43753 0.0
C816 C 0.12341 0.60762 0.55274 0.0
C817 C 0.11976 0.59211 0.53831 0.0
C818 C 0.15351 0.58758 0.50046 0.0
C819 C 0.13386 0.53692 0.46747 0.0
C820 C 0.13293 0.55264 0.48163 0.0
C821 C 0.13259 0.60032 0.52197 0.0
C822 C 0.13227 0.58381 0.50794 0.0
H823 H 0.16957 0.51614 0.45432 0.0
H824 H 0.16309 0.53574 0.47994 0.0
H825 H 0.17055 0.57598 0.48188 0.0
H826 H 0.16401 0.65833 0.53228 0.0
H827 H 0.1574 0.63146 0.50721 0.0
C828 C 0.59323 0.1002 0.93491 0.0
C829 C 0.61739 0.11121 0.93852 0.0
C830 C 0.57735 0.09605 0.94915 0.0
C831 C 0.54683 0.08712 0.98393 0.0
H832 H 0.57238 0.14496 0.01163 0.0
C833 C 0.50315 0.10498 0.04737 0.0
C834 C 0.50503 0.12722 0.04786 0.0
C835 C 0.51387 0.09917 0.03335 0.0
C836 C 0.56495 0.12871 0.00399 0.0
H837 H 0.64354 0.12366 0.96 0.0
H838 H 0.61589 0.11586 0.9848 0.0
H839 H 0.59696 0.13959 0.98972 0.0
H840 H 0.51816 0.16001 0.0331 0.0
H841 H 0.5368 0.14987 0.00889 0.0
H842 H 0.51458 0.07655 -0.00166 0.0
C843 C 0.60922 0.11106 0.97098 0.0
C844 C 0.57913 0.12548 0.9916 0.0
C845 C 0.62504 0.11536 0.9568 0.0
C846 C 0.51654 0.14284 0.03336 0.0
C847 C 0.52732 0.13708 0.01948 0.0
C848 C 0.53261 0.09027 -0.0034 0.0
C849 C 0.58544 0.10274 0.96719 0.0
C850 C 0.57028 0.10474 0.98132 0.0
C851 C 0.52677 0.11552 0.01964 0.0
C852 C 0.5415 0.11129 0.00655 0.0
H853 H 0.58685 0.09696 0.92094 0.0
H854 H 0.55913 0.08957 0.9458 0.0
H855 H 0.53953 0.07099 0.97617 0.0
H856 H 0.49434 0.09246 0.05825 0.0
H857 H 0.51317 0.08241 0.0338 0.0
C858 C 0.38456 0.50134 0.535 0.0
C859 C 0.39156 0.50106 0.55311 0.0
C860 C 0.40045 0.50738 0.52063 0.0
C861 C 0.43601 0.5175 0.49102 0.0
H862 H 0.49154 0.57679 0.50199 0.0
C863 C 0.48942 0.5812 0.43335 0.0
C864 C 0.49169 0.60333 0.4362 0.0
C865 C 0.48343 0.56537 0.44791 0.0
C866 C 0.47628 0.5601 0.49871 0.0
H867 H 0.42022 0.50511 0.57023 0.0
H868 H 0.4482 0.51588 0.54498 0.0
H869 H 0.46729 0.55211 0.52692 0.0
H870 H 0.49138 0.62692 0.45675 0.0
H871 H 0.48098 0.59955 0.48192 0.0
H872 H 0.44395 0.52644 0.46277 0.0
C873 C 0.43039 0.51152 0.54197 0.0
C874 C 0.46249 0.54581 0.51301 0.0
C875 C 0.41434 0.50524 0.5564 0.0
C876 C 0.48952 0.60991 0.45406 0.0
C877 C 0.4838 0.59426 0.46856 0.0
C878 C 0.44978 0.53182 0.4767 0.0
C879 C 0.4238 0.51343 0.52401 0.0
C880 C 0.44153 0.52492 0.5093 0.0
C881 C 0.47995 0.57155 0.46558 0.0
C882 C 0.46938 0.55384 0.4804 0.0
H883 H 0.36705 0.49797 0.532 0.0
H884 H 0.39478 0.50889 0.50704 0.0
H885 H 0.42018 0.5013 0.48772 0.0
H886 H 0.49103 0.57564 0.41974 0.0
H887 H 0.48073 0.54805 0.44522 0.0
C888 C 0.24654 0.52036 0.12103 0.0
C889 C 0.23693 0.5233 0.10474 0.0
C890 C 0.27074 0.53314 0.12406 0.0
C891 C 0.32448 0.58582 0.10728 0.0
H892 H 0.35676 0.55726 0.13075 0.0
C893 C 0.42367 0.63838 0.11544 0.0
C894 C 0.43602 0.62665 0.11176 0.0
C895 C 0.39955 0.62584 0.11833 0.0
C896 C 0.34804 0.56547 0.12407 0.0
H897 H 0.24527 0.54152 0.07869 0.0
H898 H 0.28719 0.56308 0.08368 0.0
H899 H 0.31427 0.53502 0.12756 0.0
H900 H 0.43328 0.59271 0.10892 0.0
H901 H 0.39083 0.57062 0.113 0.0
H902 H 0.35803 0.61562 0.10266 0.0
C903 C 0.27613 0.55156 0.09443 0.0
C904 C 0.32361 0.55281 0.12246 0.0
C905 C 0.25202 0.53905 0.0915 0.0
C906 C 0.42407 0.6021 0.11183 0.0
C907 C 0.39976 0.58949 0.11425 0.0
C908 C 0.34881 0.5983 0.10865 0.0
C909 C 0.28582 0.54896 0.1108 0.0
C910 C 0.31158 0.56274 0.11379 0.0
C911 C 0.3871 0.60126 0.11702 0.0
C912 C 0.361 0.58827 0.11691 0.0
H913 H 0.23536 0.50839 0.13152 0.0
H914 H 0.27756 0.53085 0.1369 0.0
H915 H 0.31582 0.59426 0.10087 0.0
H916 H 0.43263 0.65734 0.11571 0.0
H917 H 0.3906 0.63552 0.12105 0.0
C918 C 0.83737 0.4201 0.63175 0.0
C919 C 0.82142 0.42632 0.62459 0.0
C920 C 0.8294 0.39751 0.63852 0.0
C921 C 0.77625 0.34418 0.65427 0.0
H922 H 0.8013 0.31011 0.6285 0.0
C923 C 0.71992 0.25141 0.62952 0.0
C924 C 0.72877 0.23603 0.62816 0.0
C925 C 0.73389 0.27401 0.6362 0.0
C926 C 0.79449 0.31938 0.63629 0.0
H927 H 0.78464 0.41423 0.61974 0.0
H928 H 0.77083 0.37507 0.6316 0.0
H929 H 0.82201 0.35274 0.62721 0.0
H930 H 0.75877 0.2318 0.63366 0.0
H931 H 0.78351 0.27179 0.64512 0.0
H932 H 0.74799 0.3108 0.66244 0.0
C933 C 0.78944 0.38755 0.632 0.0
C934 C 0.80635 0.34382 0.63551 0.0
C935 C 0.79738 0.40989 0.62499 0.0
C936 C 0.75153 0.24333 0.63452 0.0
C937 C 0.76568 0.26618 0.64103 0.0
C938 C 0.76446 0.3198 0.65511 0.0
C939 C 0.80535 0.381 0.63859 0.0
C940 C 0.79663 0.35631 0.64368 0.0
C941 C 0.75712 0.28188 0.64156 0.0
C942 C 0.77279 0.30713 0.64528 0.0
H943 H 0.85601 0.43245 0.63163 0.0
H944 H 0.842 0.39282 0.64348 0.0
H945 H 0.76863 0.35348 0.66094 0.0
H946 H 0.70236 0.24621 0.62491 0.0
H947 H 0.72685 0.28575 0.63616 0.0
C948 C 0.46847 0.72269 0.12009 0.0
C949 C 0.49287 0.73496 0.1181 0.0
C950 C 0.45664 0.73446 0.12466 0.0
C951 C 0.46137 0.78976 0.14051 0.0
H952 H 0.40823 0.76956 0.10792 0.0
C953 C 0.40705 0.83675 0.1268 0.0
C954 C 0.38291 0.82157 0.12431 0.0
C955 C 0.42187 0.82762 0.13009 0.0
C956 C 0.42282 0.77523 0.11729 0.0
H957 H 0.52437 0.76877 0.12052 0.0
H958 H 0.50338 0.78982 0.12798 0.0
H959 H 0.43195 0.75112 0.10602 0.0
H960 H 0.35493 0.78541 0.12536 0.0
H961 H 0.38061 0.76961 0.13146 0.0
H962 H 0.45207 0.81434 0.15145 0.0
C963 C 0.49352 0.771 0.12624 0.0
C964 C 0.43642 0.76465 0.11622 0.0
C965 C 0.50549 0.75904 0.12193 0.0
C966 C 0.37355 0.79744 0.12687 0.0
C967 C 0.38823 0.78841 0.13035 0.0
C968 C 0.44765 0.80053 0.14154 0.0
C969 C 0.46889 0.75887 0.12695 0.0
C970 C 0.45554 0.7714 0.12803 0.0
C971 C 0.4126 0.80328 0.13105 0.0
C972 C 0.42798 0.79296 0.13014 0.0
H973 H 0.45842 0.70401 0.11756 0.0
H974 H 0.43771 0.72454 0.12564 0.0
H975 H 0.47612 0.79539 0.14969 0.0
H976 H 0.41463 0.85545 0.12491 0.0
H977 H 0.44062 0.83943 0.1306 0.0
C978 C 0.74354 0.44824 0.62022 0.0
C979 C 0.75644 0.4728 0.62011 0.0
C980 C 0.71943 0.43653 0.62281 0.0
C981 C 0.66813 0.44058 0.63684 0.0
H982 H 0.63833 0.3948 0.59809 0.0
C983 C 0.56814 0.39237 0.61944 0.0
C984 C 0.55832 0.3689 0.6139 0.0
C985 C 0.59221 0.40586 0.62292 0.0
C986 C 0.64631 0.40726 0.60917 0.0
H987 H 0.75458 0.50441 0.62407 0.0
H988 H 0.71192 0.48371 0.62836 0.0
H989 H 0.68066 0.417 0.59995 0.0
H990 H 0.56546 0.34058 0.60919 0.0
H991 H 0.60706 0.36381 0.61562 0.0
H992 H 0.63339 0.43058 0.64598 0.0
C993 C 0.72066 0.47364 0.62651 0.0
C994 C 0.67058 0.42002 0.61021 0.0
C995 C 0.74499 0.48545 0.62403 0.0
C996 C 0.57262 0.35877 0.61303 0.0
C997 C 0.59647 0.3721 0.61668 0.0
C998 C 0.64362 0.42763 0.63584 0.0
C999 C 0.70763 0.4491 0.62519 0.0
C1000 C 0.68176 0.43651 0.62419 0.0
C1001 C 0.60668 0.39597 0.62103 0.0
C1002 C 0.63252 0.41057 0.62213 0.0
H1003 H 0.75198 0.43802 0.61761 0.0
H1004 H 0.70985 0.41758 0.62216 0.0
H1005 H 0.67639 0.45331 0.6477 0.0
H1006 H 0.55747 0.40058 0.62028 0.0
H1007 H 0.59961 0.42422 0.62624 0.0
C1008 C 0.16893 0.5721 0.12672 0.0
C1009 C 0.17059 0.5663 0.10847 0.0
C1010 C 0.17807 0.59549 0.13186 0.0
C1011 C 0.21667 0.64753 0.13745 0.0
H1012 H 0.20168 0.68827 0.10939 0.0
C1013 C 0.27893 0.74511 0.12409 0.0
C1014 C 0.26984 0.76035 0.12405 0.0
C1015 C 0.26431 0.72129 0.12745 0.0
C1016 C 0.20571 0.67705 0.1176 0.0
H1017 H 0.18243 0.58022 0.08121 0.0
H1018 H 0.19787 0.62103 0.09014 0.0
H1019 H 0.17973 0.64602 0.10409 0.0
H1020 H 0.23872 0.76298 0.1285 0.0
H1021 H 0.21295 0.72104 0.13389 0.0
H1022 H 0.24369 0.67876 0.15011 0.0
C1023 C 0.18969 0.60749 0.10045 0.0
C1024 C 0.1933 0.65298 0.11446 0.0
C1025 C 0.18103 0.58421 0.09538 0.0
C1026 C 0.24617 0.7516 0.12848 0.0
C1027 C 0.23143 0.72766 0.13151 0.0
C1028 C 0.22937 0.67169 0.14037 0.0
C1029 C 0.18846 0.61331 0.11873 0.0
C1030 C 0.19908 0.63813 0.12404 0.0
C1031 C 0.2403 0.71225 0.13053 0.0
C1032 C 0.22434 0.68668 0.13015 0.0
H1033 H 0.16106 0.55863 0.1371 0.0
H1034 H 0.17701 0.59967 0.14604 0.0
H1035 H 0.22146 0.63636 0.14492 0.0
H1036 H 0.29716 0.75145 0.12085 0.0
H1037 H 0.27153 0.70974 0.12647 0.0
C1038 C 0.6217 0.20347 0.62212 0.0
C1039 C 0.61502 0.17964 0.62262 0.0
C1040 C 0.60602 0.21077 0.62725 0.0
C1041 C 0.54352 0.18956 0.62746 0.0
H1042 H 0.56412 0.25085 0.64842 0.0
C1043 C 0.48896 0.23672 0.62359 0.0
C1044 C 0.50195 0.25873 0.61517 0.0
C1045 C 0.50016 0.22468 0.62974 0.0
C1046 C 0.55802 0.23356 0.64276 0.0
H1047 H 0.58696 0.14491 0.62984 0.0
H1048 H 0.55942 0.15777 0.63874 0.0
H1049 H 0.58922 0.23355 0.65072 0.0
H1050 H 0.53688 0.28574 0.6072 0.0
H1051 H 0.55624 0.26495 0.618 0.0
H1052 H 0.51278 0.19016 0.61874 0.0
C1053 C 0.57682 0.17072 0.63427 0.0
C1054 C 0.57238 0.2237 0.64402 0.0
C1055 C 0.59263 0.1634 0.62924 0.0
C1056 C 0.52632 0.26871 0.61344 0.0
C1057 C 0.53747 0.25693 0.61984 0.0
C1058 C 0.52908 0.19941 0.62627 0.0
C1059 C 0.58323 0.19444 0.63297 0.0
C1060 C 0.56578 0.20211 0.63561 0.0
C1061 C 0.52454 0.23477 0.62794 0.0
C1062 C 0.53673 0.22196 0.63316 0.0
H1063 H 0.63886 0.21648 0.61723 0.0
H1064 H 0.61142 0.22914 0.62584 0.0
H1065 H 0.53799 0.17295 0.62076 0.0
H1066 H 0.47015 0.22865 0.62512 0.0
H1067 H 0.48984 0.20754 0.63588 0.0
C1068 C 0.39714 0.56611 0.87551 0.0
C1069 C 0.37275 0.5565 0.87604 0.0
C1070 C 0.4118 0.59019 0.873 0.0
C1071 C 0.44004 0.64229 0.8641 0.0
H1072 H 0.4179 0.67734 0.8921 0.0
C1073 C 0.49109 0.74406 0.87249 0.0
C1074 C 0.49003 0.75229 0.89003 0.0
C1075 C 0.47776 0.72016 0.86839 0.0
C1076 C 0.42441 0.66782 0.88428 0.0
H1077 H 0.34438 0.56377 0.8725 0.0
H1078 H 0.36982 0.60552 0.86728 0.0
H1079 H 0.39257 0.6357 0.88793 0.0
H1080 H 0.47543 0.74181 0.91731 0.0
H1081 H 0.45272 0.7004 0.91028 0.0
H1082 H 0.47248 0.67466 0.86137 0.0
C1083 C 0.37777 0.5948 0.8696 0.0
C1084 C 0.40971 0.64394 0.8816 0.0
C1085 C 0.36318 0.5709 0.87249 0.0
C1086 C 0.47633 0.73611 0.90357 0.0
C1087 C 0.46321 0.71237 0.89952 0.0
C1088 C 0.45489 0.66633 0.86689 0.0
C1089 C 0.40224 0.60492 0.87069 0.0
C1090 C 0.41739 0.63076 0.87169 0.0
C1091 C 0.46325 0.70419 0.88178 0.0
C1092 C 0.44733 0.67919 0.87736 0.0
H1093 H 0.4049 0.5553 0.87823 0.0
H1094 H 0.43054 0.59738 0.87403 0.0
H1095 H 0.44642 0.63269 0.85624 0.0
H1096 H 0.50152 0.75613 0.86177 0.0
H1097 H 0.47813 0.71433 0.85459 0.0
C1098 C 0.74092 0.49744 0.35995 0.0
C1099 C 0.71637 0.48499 0.36119 0.0
C1100 C 0.75307 0.48559 0.356 0.0
C1101 C 0.74401 0.42806 0.36566 0.0
H1102 H 0.80142 0.44695 0.33877 0.0
C1103 C 0.78659 0.37184 0.36919 0.0
C1104 C 0.81093 0.38339 0.37171 0.0
C1105 C 0.77567 0.38422 0.36369 0.0
C1106 C 0.78546 0.44157 0.34642 0.0
H1107 H 0.68514 0.45128 0.35705 0.0
H1108 H 0.70625 0.43079 0.34979 0.0
H1109 H 0.78108 0.4694 0.33546 0.0
H1110 H 0.84315 0.41665 0.36966 0.0
H1111 H 0.82387 0.43874 0.36085 0.0
H1112 H 0.74857 0.40109 0.37734 0.0
C1113 C 0.71617 0.44946 0.35237 0.0
C1114 C 0.77382 0.45433 0.34445 0.0
C1115 C 0.7041 0.46117 0.35649 0.0
C1116 C 0.82432 0.40742 0.36787 0.0
C1117 C 0.81329 0.41998 0.36271 0.0
C1118 C 0.75565 0.41554 0.36775 0.0
C1119 C 0.74073 0.46125 0.35313 0.0
C1120 C 0.7529 0.44756 0.35401 0.0
C1121 C 0.78875 0.40858 0.36104 0.0
C1122 C 0.77645 0.42201 0.35812 0.0
H1123 H 0.75075 0.51583 0.36351 0.0
H1124 H 0.77201 0.49509 0.35667 0.0
H1125 H 0.72832 0.42283 0.37365 0.0
H1126 H 0.77593 0.3532 0.37165 0.0
H1127 H 0.75684 0.37474 0.36197 0.0
C1128 C 0.24816 0.70334 0.89673 0.0
C1129 C 0.23502 0.71225 0.88838 0.0
C1130 C 0.27251 0.71558 0.89581 0.0
C1131 C 0.32355 0.76141 0.87127 0.0
H1132 H 0.35488 0.7655 0.91722 0.0
C1133 C 0.4247 0.81718 0.88255 0.0
C1134 C 0.43457 0.80635 0.89301 0.0
C1135 C 0.40036 0.80656 0.88058 0.0
C1136 C 0.34641 0.76436 0.90424 0.0
H1137 H 0.23729 0.74064 0.87181 0.0
H1138 H 0.2801 0.76215 0.8703 0.0
H1139 H 0.31237 0.74529 0.91615 0.0
H1140 H 0.42656 0.77529 0.90878 0.0
H1141 H 0.38449 0.75691 0.90522 0.0
H1142 H 0.35788 0.78047 0.85941 0.0
C1143 C 0.27136 0.7456 0.87752 0.0
C1144 C 0.32206 0.75278 0.90363 0.0
C1145 C 0.24687 0.73331 0.87844 0.0
C1146 C 0.41963 0.78435 0.90086 0.0
C1147 C 0.39546 0.77381 0.89889 0.0
C1148 C 0.34807 0.77305 0.87188 0.0
C1149 C 0.28441 0.73707 0.88655 0.0
C1150 C 0.31034 0.75077 0.88709 0.0
C1151 C 0.38551 0.78497 0.88906 0.0
C1152 C 0.35969 0.77423 0.88833 0.0
H1153 H 0.23968 0.68704 0.9043 0.0
H1154 H 0.28208 0.70831 0.90256 0.0
H1155 H 0.31495 0.7601 0.85834 0.0
H1156 H 0.43571 0.8341 0.87628 0.0
H1157 H 0.39315 0.81556 0.87294 0.0
C1158 C 0.6117 0.42133 0.36358 0.0
C1159 C 0.6043 0.43775 0.36606 0.0
C1160 C 0.59646 0.39921 0.35655 0.0
C1161 C 0.53524 0.35564 0.35615 0.0
H1162 H 0.55756 0.32275 0.32558 0.0
C1163 C 0.48761 0.25482 0.35385 0.0
C1164 C 0.50295 0.2467 0.3587 0.0
C1165 C 0.49647 0.27811 0.34839 0.0
C1166 C 0.55093 0.33172 0.33396 0.0
H1167 H 0.57533 0.44417 0.36254 0.0
H1168 H 0.54825 0.40489 0.35055 0.0
H1169 H 0.58011 0.36539 0.32757 0.0
H1170 H 0.53942 0.25597 0.36036 0.0
H1171 H 0.55479 0.29627 0.35076 0.0
H1172 H 0.50686 0.32187 0.36347 0.0
C1173 C 0.56601 0.4094 0.35397 0.0
C1174 C 0.56382 0.35609 0.3351 0.0
C1175 C 0.58147 0.43182 0.36079 0.0
C1176 C 0.52718 0.26178 0.35684 0.0
C1177 C 0.53598 0.28483 0.35116 0.0
C1178 C 0.52232 0.33121 0.35502 0.0
C1179 C 0.57334 0.39282 0.35196 0.0
C1180 C 0.55672 0.36818 0.34692 0.0
C1181 C 0.52078 0.29346 0.34738 0.0
C1182 C 0.5307 0.31898 0.34463 0.0
H1183 H 0.62926 0.42546 0.36734 0.0
H1184 H 0.60254 0.38674 0.35545 0.0
H1185 H 0.52939 0.36448 0.36544 0.0
H1186 H 0.46884 0.24357 0.35519 0.0
H1187 H 0.48438 0.28431 0.34551 0.0
C1188 C 0.17474 0.59288 0.89476 0.0
C1189 C 0.16543 0.60128 0.88145 0.0
C1190 C 0.1824 0.57737 0.88992 0.0
C1191 C 0.18435 0.53449 0.87612 0.0
H1192 H 0.23639 0.55832 0.84205 0.0
C1193 C 0.23667 0.48738 0.86461 0.0
C1194 C 0.26004 0.50203 0.87 0.0
C1195 C 0.2223 0.49687 0.86091 0.0
C1196 C 0.22158 0.55127 0.8513 0.0
H1197 H 0.1568 0.60013 0.85266 0.0
H1198 H 0.17108 0.57349 0.84411 0.0
H1199 H 0.2149 0.57942 0.84626 0.0
H1200 H 0.28728 0.53802 0.87433 0.0
H1201 H 0.26234 0.55459 0.86749 0.0
H1202 H 0.19157 0.50688 0.88175 0.0
C1203 C 0.17199 0.57867 0.85829 0.0
C1204 C 0.2093 0.56325 0.85367 0.0
C1205 C 0.16383 0.59382 0.8632 0.0
C1206 C 0.26926 0.52636 0.87034 0.0
C1207 C 0.25506 0.53584 0.86628 0.0
C1208 C 0.19635 0.52229 0.87352 0.0
C1209 C 0.18129 0.57033 0.87164 0.0
C1210 C 0.19117 0.5554 0.86659 0.0
C1211 C 0.23129 0.52113 0.86212 0.0
C1212 C 0.21559 0.53105 0.86159 0.0
H1213 H 0.17605 0.59825 0.90893 0.0
H1214 H 0.18978 0.57134 0.9004 0.0
H1215 H 0.17035 0.52813 0.88611 0.0
H1216 H 0.22916 0.46855 0.86429 0.0
H1217 H 0.20399 0.48522 0.85774 0.0
C1218 C 0.57759 0.21487 0.37052 0.0
C1219 C 0.56077 0.19106 0.36866 0.0
C1220 C 0.60084 0.22302 0.36571 0.0
C1221 C 0.6437 0.2039 0.36309 0.0
H1222 H 0.68224 0.26599 0.34274 0.0
C1223 C 0.74549 0.25247 0.36392 0.0
C1224 C 0.75487 0.27456 0.37229 0.0
C1225 C 0.72193 0.24027 0.35854 0.0
C1226 C 0.67168 0.24853 0.34828 0.0
H1227 H 0.55508 0.15722 0.35974 0.0
H1228 H 0.59602 0.17155 0.35147 0.0
H1229 H 0.63968 0.2478 0.34182 0.0
H1230 H 0.74728 0.30159 0.38086 0.0
H1231 H 0.70656 0.28051 0.37142 0.0
H1232 H 0.67583 0.20517 0.37031 0.0
C1233 C 0.59105 0.18383 0.35667 0.0
C1234 C 0.64736 0.23814 0.34779 0.0
C1235 C 0.56764 0.17567 0.36135 0.0
C1236 C 0.74054 0.28451 0.37462 0.0
C1237 C 0.71726 0.27254 0.36902 0.0
C1238 C 0.6681 0.2143 0.36355 0.0
C1239 C 0.60792 0.20756 0.35899 0.0
C1240 C 0.63315 0.21617 0.3559 0.0
C1241 C 0.70762 0.25023 0.36109 0.0
C1242 C 0.68228 0.23712 0.35685 0.0
H1243 H 0.57289 0.22724 0.376 0.0
H1244 H 0.61347 0.24134 0.36792 0.0
H1245 H 0.63321 0.18698 0.36952 0.0
H1246 H 0.75617 0.24441 0.36195 0.0
H1247 H 0.71487 0.22305 0.35247 0.0
C1248 C 0.57523 0.37531 0.89867 0.0
C1249 C 0.55962 0.37845 0.88753 0.0
C1250 C 0.59924 0.3905 0.89743 0.0
C1251 C 0.64659 0.43229 0.86832 0.0
H1252 H 0.67902 0.45291 0.91483 0.0
C1253 C 0.74791 0.4938 0.87701 0.0
C1254 C 0.75798 0.48571 0.89002 0.0
C1255 C 0.72353 0.48278 0.87511 0.0
C1256 C 0.67021 0.4473 0.90173 0.0
H1257 H 0.55723 0.39962 0.8658 0.0
H1258 H 0.5996 0.4263 0.86363 0.0
H1259 H 0.63647 0.42988 0.91429 0.0
H1260 H 0.75022 0.45912 0.91072 0.0
H1261 H 0.70812 0.44017 0.90736 0.0
H1262 H 0.68066 0.44941 0.85586 0.0
C1263 C 0.59297 0.412 0.87335 0.0
C1264 C 0.64589 0.43413 0.90142 0.0
C1265 C 0.56875 0.39676 0.87464 0.0
C1266 C 0.74319 0.46604 0.90068 0.0
C1267 C 0.71899 0.4552 0.89884 0.0
C1268 C 0.67109 0.44557 0.86863 0.0
C1269 C 0.60835 0.40923 0.88501 0.0
C1270 C 0.63387 0.42586 0.88478 0.0
C1271 C 0.70889 0.46366 0.88629 0.0
C1272 C 0.68309 0.45253 0.88541 0.0
H1273 H 0.56894 0.36127 0.90861 0.0
H1274 H 0.61074 0.38764 0.9063 0.0
H1275 H 0.6377 0.42613 0.85531 0.0
H1276 H 0.7588 0.50886 0.86854 0.0
H1277 H 0.71611 0.48958 0.8653 0.0
C1278 C 0.25773 0.7398 0.39516 0.0
C1279 C 0.26136 0.75688 0.38206 0.0
C1280 C 0.24759 0.71638 0.39022 0.0
C1281 C 0.21233 0.67166 0.35644 0.0
H1282 H 0.24564 0.64223 0.37666 0.0
C1283 C 0.21047 0.57709 0.36287 0.0
C1284 C 0.18676 0.56269 0.36734 0.0
C1285 C 0.21934 0.60078 0.35916 0.0
C1286 C 0.23631 0.65013 0.37052 0.0
H1287 H 0.25591 0.76256 0.35367 0.0
H1288 H 0.23808 0.72113 0.34496 0.0
H1289 H 0.26098 0.68369 0.38116 0.0
H1290 H 0.15335 0.56124 0.37016 0.0
H1291 H 0.16902 0.6029 0.36449 0.0
H1292 H 0.18747 0.63779 0.34593 0.0
C1293 C 0.24321 0.72614 0.35906 0.0
C1294 C 0.24496 0.6739 0.37336 0.0
C1295 C 0.25339 0.74979 0.36405 0.0
C1296 C 0.17173 0.57201 0.36676 0.0
C1297 C 0.18071 0.59587 0.3634 0.0
C1298 C 0.2036 0.64769 0.35355 0.0
C1299 C 0.24089 0.70937 0.37204 0.0
C1300 C 0.23275 0.68479 0.36683 0.0
C1301 C 0.20482 0.6107 0.36031 0.0
C1302 C 0.21528 0.63657 0.3609 0.0
H1303 H 0.26323 0.74457 0.40924 0.0
H1304 H 0.24544 0.70374 0.40062 0.0
H1305 H 0.20263 0.67969 0.35122 0.0
H1306 H 0.22235 0.57021 0.3629 0.0
H1307 H 0.23786 0.61156 0.35628 0.0
C1308 C 0.53177 0.27687 0.89714 0.0
C1309 C 0.50993 0.26859 0.88859 0.0
C1310 C 0.5449 0.26597 0.89407 0.0
C1311 C 0.54017 0.21049 0.8813 0.0
H1312 H 0.6073 0.24893 0.87447 0.0
C1313 C 0.60133 0.17129 0.87588 0.0
C1314 C 0.62153 0.18247 0.88688 0.0
C1315 C 0.58744 0.18153 0.87309 0.0
C1316 C 0.58859 0.23797 0.8764 0.0
H1317 H 0.48469 0.2422 0.87015 0.0
H1318 H 0.50772 0.22294 0.86494 0.0
H1319 H 0.58309 0.26726 0.87509 0.0
H1320 H 0.64314 0.21338 0.9033 0.0
H1321 H 0.61887 0.23099 0.89857 0.0
H1322 H 0.5458 0.18128 0.88321 0.0
C1323 C 0.51457 0.23796 0.87399 0.0
C1324 C 0.57475 0.24845 0.87673 0.0
C1325 C 0.50145 0.24901 0.87695 0.0
C1326 C 0.62771 0.20424 0.89477 0.0
C1327 C 0.6139 0.21446 0.89193 0.0
C1328 C 0.55405 0.19999 0.88101 0.0
C1329 C 0.53647 0.24646 0.88245 0.0
C1330 C 0.55051 0.2349 0.87967 0.0
C1331 C 0.59357 0.20318 0.88115 0.0
C1332 C 0.57848 0.21373 0.87905 0.0
H1333 H 0.5389 0.29192 0.90615 0.0
H1334 H 0.56156 0.27265 0.90101 0.0
H1335 H 0.52153 0.19967 0.88368 0.0
H1336 H 0.59607 0.15452 0.86956 0.0
H1337 H 0.57194 0.17252 0.86462 0.0
C1338 C 0.24858 0.48764 0.35495 0.0
C1339 C 0.24142 0.50338 0.36086 0.0
C1340 C 0.27157 0.49599 0.3489 0.0
C1341 C 0.32613 0.5504 0.33549 0.0
H1342 H 0.35754 0.52547 0.36499 0.0
C1343 C 0.41429 0.607 0.36862 0.0
C1344 C 0.43104 0.59981 0.36919 0.0
C1345 C 0.39229 0.59255 0.36104 0.0
C1346 C 0.34905 0.53227 0.35625 0.0
H1347 H 0.25197 0.54008 0.36372 0.0
H1348 H 0.29174 0.55456 0.35321 0.0
H1349 H 0.31493 0.50379 0.36255 0.0
H1350 H 0.43811 0.57204 0.36197 0.0
H1351 H 0.39894 0.5462 0.34918 0.0
H1352 H 0.36016 0.57979 0.33044 0.0
C1353 C 0.27981 0.53583 0.35319 0.0
C1354 C 0.32463 0.51984 0.35482 0.0
C1355 C 0.25707 0.52753 0.35943 0.0
C1356 C 0.42548 0.57798 0.3617 0.0
C1357 C 0.40317 0.56325 0.3544 0.0
C1358 C 0.35047 0.56285 0.33701 0.0
C1359 C 0.28755 0.52019 0.34836 0.0
C1360 C 0.3129 0.52945 0.34525 0.0
C1361 C 0.38639 0.57044 0.35407 0.0
C1362 C 0.36201 0.55447 0.34819 0.0
H1363 H 0.23683 0.46892 0.3559 0.0
H1364 H 0.27707 0.48356 0.34521 0.0
H1365 H 0.31756 0.55798 0.32773 0.0
H1366 H 0.41814 0.62382 0.37412 0.0
H1367 H 0.37956 0.59838 0.36124 0.0
C1368 C 0.80573 0.41944 0.90247 0.0
C1369 C 0.82125 0.4361 0.8899 0.0
C1370 C 0.79823 0.3958 0.90012 0.0
C1371 C 0.7874 0.35078 0.86709 0.0
H1372 H 0.78907 0.31731 0.9102 0.0
C1373 C 0.7473 0.24918 0.87086 0.0
C1374 C 0.73292 0.23917 0.8863 0.0
C1375 C 0.76137 0.27354 0.86935 0.0
C1376 C 0.78856 0.32642 0.89802 0.0
H1377 H 0.84052 0.44083 0.86466 0.0
H1378 H 0.82691 0.39905 0.86044 0.0
H1379 H 0.80777 0.35984 0.91098 0.0
H1380 H 0.72183 0.24705 0.91208 0.0
H1381 H 0.74611 0.28905 0.90938 0.0
H1382 H 0.76721 0.31707 0.85442 0.0
C1383 C 0.82085 0.4046 0.87217 0.0
C1384 C 0.79926 0.35071 0.89848 0.0
C1385 C 0.82864 0.42844 0.87463 0.0
C1386 C 0.73273 0.25402 0.90003 0.0
C1387 C 0.7468 0.27816 0.89857 0.0
C1388 C 0.77656 0.32632 0.86665 0.0
C1389 C 0.80588 0.38817 0.88508 0.0
C1390 C 0.79806 0.36303 0.88326 0.0
C1391 C 0.76143 0.28818 0.88335 0.0
C1392 C 0.77633 0.31393 0.88237 0.0
H1393 H 0.79964 0.42466 0.91437 0.0
H1394 H 0.78636 0.38341 0.91011 0.0
H1395 H 0.78628 0.35996 0.85518 0.0
H1396 H 0.74779 0.23823 0.86002 0.0
H1397 H 0.77247 0.28089 0.85744 0.0
C1398 C 0.39214 0.81974 0.37963 0.0
C1399 C 0.36995 0.80785 0.38796 0.0
C1400 C 0.40488 0.8083 0.37651 0.0
C1401 C 0.40869 0.75753 0.3933 0.0
H1402 H 0.44601 0.76661 0.34978 0.0
C1403 C 0.4462 0.69828 0.37932 0.0
C1404 C 0.47046 0.70949 0.37622 0.0
C1405 C 0.43429 0.71069 0.37809 0.0
C1406 C 0.43575 0.76406 0.36202 0.0
H1407 H 0.34328 0.77431 0.39867 0.0
H1408 H 0.36515 0.75437 0.3929 0.0
H1409 H 0.42433 0.7877 0.35302 0.0
H1410 H 0.50094 0.7421 0.36799 0.0
H1411 H 0.4799 0.76394 0.36585 0.0
H1412 H 0.41979 0.73382 0.40226 0.0
C1413 C 0.37308 0.7727 0.38927 0.0
C1414 C 0.42341 0.77615 0.36392 0.0
C1415 C 0.36048 0.78413 0.39252 0.0
C1416 C 0.48225 0.733 0.37049 0.0
C1417 C 0.47024 0.74549 0.36927 0.0
C1418 C 0.42081 0.74541 0.39134 0.0
C1419 C 0.39561 0.78473 0.38156 0.0
C1420 C 0.4095 0.77276 0.37951 0.0
C1421 C 0.44633 0.73461 0.37374 0.0
C1422 C 0.43422 0.7483 0.37561 0.0
H1423 H 0.39993 0.83804 0.37594 0.0
H1424 H 0.42225 0.81811 0.37064 0.0
H1425 H 0.39874 0.75502 0.40572 0.0
H1426 H 0.43649 0.68007 0.38342 0.0
H1427 H 0.41574 0.70174 0.3812 0.0
C1428 C 0.5233 0.24844 0.12266 0.0
C1429 C 0.49916 0.23235 0.12263 0.0
C1430 C 0.5316 0.27177 0.12736 0.0
C1431 C 0.51447 0.31471 0.1214 0.0
H1432 H 0.5722 0.35517 0.14739 0.0
C1433 C 0.58486 0.41962 0.13032 0.0
C1434 C 0.59103 0.42516 0.11182 0.0
C1435 C 0.57009 0.39638 0.13563 0.0
C1436 C 0.55583 0.34408 0.14037 0.0
H1437 H 0.46483 0.22762 0.12849 0.0
H1438 H 0.47941 0.2688 0.13624 0.0
H1439 H 0.55292 0.31267 0.15155 0.0
H1440 H 0.58594 0.41103 0.08432 0.0
H1441 H 0.55978 0.37058 0.09357 0.0
H1442 H 0.51828 0.34598 0.10922 0.0
C1443 C 0.49183 0.26319 0.13281 0.0
C1444 C 0.54488 0.31984 0.1427 0.0
C1445 C 0.48353 0.23969 0.12843 0.0
C1446 C 0.58158 0.40723 0.09868 0.0
C1447 C 0.56648 0.38415 0.10394 0.0
C1448 C 0.5256 0.33889 0.11887 0.0
C1449 C 0.51589 0.27952 0.13184 0.0
C1450 C 0.52453 0.30493 0.13277 0.0
C1451 C 0.56086 0.37849 0.12246 0.0
C1452 C 0.54676 0.35368 0.12788 0.0
H1453 H 0.53573 0.24318 0.11837 0.0
H1454 H 0.55022 0.28403 0.12632 0.0
H1455 H 0.49893 0.3036 0.11345 0.0
H1456 H 0.59198 0.43312 0.14073 0.0
H1457 H 0.56602 0.39234 0.15 0.0
C1458 C 0.28499 0.54069 0.5956 0.0
C1459 C 0.28521 0.52567 0.60912 0.0
C1460 C 0.27509 0.55461 0.59908 0.0
C1461 C 0.23475 0.56217 0.62956 0.0
H1462 H 0.26501 0.62326 0.60647 0.0
C1463 C 0.22434 0.64968 0.61716 0.0
C1464 C 0.20002 0.63819 0.61448 0.0
C1465 C 0.23551 0.63687 0.62086 0.0
C1466 C 0.25648 0.60652 0.61341 0.0
H1467 H 0.27474 0.51312 0.63686 0.0
H1468 H 0.25773 0.53805 0.64316 0.0
H1469 H 0.28331 0.59943 0.60508 0.0
H1470 H 0.16818 0.6044 0.61418 0.0
H1471 H 0.18768 0.58196 0.61964 0.0
H1472 H 0.20816 0.56961 0.63828 0.0
C1473 C 0.26505 0.53877 0.62975 0.0
C1474 C 0.26683 0.59261 0.6123 0.0
C1475 C 0.27481 0.52453 0.62617 0.0
C1476 C 0.18697 0.61373 0.61625 0.0
C1477 C 0.19818 0.60087 0.61953 0.0
C1478 C 0.22451 0.57629 0.63091 0.0
C1479 C 0.2654 0.55421 0.61629 0.0
C1480 C 0.25573 0.56995 0.61979 0.0
C1481 C 0.22269 0.61223 0.62148 0.0
C1482 C 0.23493 0.5984 0.62239 0.0
H1483 H 0.29248 0.5417 0.5822 0.0
H1484 H 0.275 0.56567 0.58817 0.0
H1485 H 0.22574 0.54482 0.63553 0.0
H1486 H 0.23478 0.66857 0.61617 0.0
H1487 H 0.2543 0.64632 0.62281 0.0
C1488 C 0.73626 0.25613 0.08966 0.0
C1489 C 0.75247 0.25852 0.10318 0.0
C1490 C 0.71242 0.24483 0.09356 0.0
C1491 C 0.66643 0.20479 0.12521 0.0
H1492 H 0.63477 0.2365 0.10618 0.0
C1493 C 0.57015 0.19944 0.12123 0.0
C1494 C 0.55617 0.17584 0.11628 0.0
C1495 C 0.59403 0.20882 0.12436 0.0
C1496 C 0.6433 0.22757 0.11194 0.0
H1497 H 0.7562 0.24996 0.13122 0.0
H1498 H 0.71427 0.2303 0.13808 0.0
H1499 H 0.67656 0.2538 0.10191 0.0
H1500 H 0.55564 0.14309 0.11202 0.0
H1501 H 0.59768 0.15968 0.11678 0.0
H1502 H 0.6329 0.17851 0.13528 0.0
C1503 C 0.72017 0.23715 0.12444 0.0
C1504 C 0.66726 0.23734 0.1092 0.0
C1505 C 0.74416 0.24845 0.12051 0.0
C1506 C 0.56611 0.16135 0.11583 0.0
C1507 C 0.59017 0.17087 0.11863 0.0
C1508 C 0.6423 0.19496 0.128 0.0
C1509 C 0.70416 0.23574 0.1111 0.0
C1510 C 0.67902 0.22585 0.11544 0.0
C1511 C 0.60453 0.19494 0.12217 0.0
C1512 C 0.63043 0.20613 0.12117 0.0
H1513 H 0.74199 0.26335 0.07609 0.0
H1514 H 0.70044 0.2435 0.08286 0.0
H1515 H 0.67508 0.19558 0.13018 0.0
H1516 H 0.56278 0.21088 0.12196 0.0
H1517 H 0.60448 0.22727 0.12761 0.0
C1518 C 0.46149 0.74328 0.63349 0.0
C1519 C 0.48575 0.75885 0.63322 0.0
C1520 C 0.45262 0.71978 0.63777 0.0
C1521 C 0.46937 0.67525 0.6332 0.0
H1522 H 0.40695 0.63611 0.65281 0.0
C1523 C 0.41508 0.57401 0.62368 0.0
C1524 C 0.39357 0.56735 0.61504 0.0
C1525 C 0.4286 0.59661 0.63084 0.0
C1526 C 0.42452 0.64682 0.64751 0.0
H1527 H 0.51972 0.76235 0.63857 0.0
H1528 H 0.50411 0.721 0.64612 0.0
H1529 H 0.42741 0.67822 0.65848 0.0
H1530 H 0.3691 0.5789 0.60754 0.0
H1531 H 0.39248 0.61805 0.62021 0.0
H1532 H 0.46598 0.6438 0.62167 0.0
C1533 C 0.49201 0.72706 0.64282 0.0
C1534 C 0.43621 0.67089 0.65069 0.0
C1535 C 0.50092 0.75073 0.63861 0.0
C1536 C 0.38568 0.58355 0.61396 0.0
C1537 C 0.39892 0.60587 0.62139 0.0
C1538 C 0.45774 0.65109 0.63018 0.0
C1539 C 0.46778 0.7112 0.64189 0.0
C1540 C 0.45826 0.68552 0.64278 0.0
C1541 C 0.4205 0.61263 0.62985 0.0
C1542 C 0.4348 0.63689 0.63659 0.0
H1543 H 0.44931 0.74903 0.62958 0.0
H1544 H 0.4339 0.70808 0.63669 0.0
H1545 H 0.48626 0.686 0.6268 0.0
H1546 H 0.42157 0.56187 0.62471 0.0
H1547 H 0.44526 0.60153 0.63722 0.0
C1548 C 0.77953 0.35794 0.09413 0.0
C1549 C 0.80278 0.36736 0.10014 0.0
C1550 C 0.76757 0.37013 0.09674 0.0
C1551 C 0.76723 0.41788 0.12291 0.0
H1552 H 0.72957 0.41726 0.0819 0.0
C1553 C 0.72358 0.47588 0.11656 0.0
C1554 C 0.70101 0.46494 0.10881 0.0
C1555 C 0.73614 0.46397 0.11766 0.0
C1556 C 0.7398 0.4174 0.09355 0.0
H1557 H 0.83148 0.39681 0.11405 0.0
H1558 H 0.81058 0.41837 0.11833 0.0
H1559 H 0.75168 0.397 0.07938 0.0
H1560 H 0.67329 0.43232 0.09751 0.0
H1561 H 0.69508 0.41168 0.09956 0.0
H1562 H 0.75536 0.43865 0.13695 0.0
C1563 C 0.8016 0.40138 0.11176 0.0
C1564 C 0.75247 0.40577 0.09212 0.0
C1565 C 0.8136 0.38908 0.10923 0.0
C1566 C 0.69077 0.44144 0.10326 0.0
C1567 C 0.70328 0.4296 0.10438 0.0
C1568 C 0.75456 0.42966 0.12432 0.0
C1569 C 0.77856 0.39216 0.1053 0.0
C1570 C 0.76606 0.40556 0.10684 0.0
C1571 C 0.72634 0.44095 0.11103 0.0
C1572 C 0.74045 0.42922 0.10973 0.0
H1573 H 0.77049 0.3411 0.08733 0.0
H1574 H 0.74965 0.36228 0.09198 0.0
H1575 H 0.77749 0.41795 0.13452 0.0
H1576 H 0.73195 0.49395 0.121 0.0
H1577 H 0.75391 0.47313 0.12286 0.0
C1578 C 0.42945 0.84055 0.63864 0.0
C1579 C 0.43405 0.82288 0.63294 0.0
C1580 C 0.40674 0.83503 0.64348 0.0
C1581 C 0.35603 0.81881 0.63362 0.0
H1582 H 0.31055 0.76135 0.65752 0.0
C1583 C 0.2634 0.76038 0.60781 0.0
C1584 C 0.24469 0.74999 0.62022 0.0
C1585 C 0.28626 0.77414 0.6141 0.0
C1586 C 0.32307 0.77774 0.65116 0.0
H1587 H 0.41894 0.78539 0.6294 0.0
H1588 H 0.37945 0.7758 0.63783 0.0
H1589 H 0.35241 0.77598 0.6619 0.0
H1590 H 0.23503 0.74624 0.6489 0.0
H1591 H 0.27548 0.76989 0.66 0.0
H1592 H 0.32673 0.81971 0.6219 0.0
C1593 C 0.39331 0.79391 0.63855 0.0
C1594 C 0.34698 0.786 0.65356 0.0
C1595 C 0.41591 0.79944 0.63353 0.0
C1596 C 0.24919 0.75415 0.63906 0.0
C1597 C 0.27223 0.76758 0.6454 0.0
C1598 C 0.33217 0.81043 0.63109 0.0
C1599 C 0.38833 0.81172 0.64294 0.0
C1600 C 0.36365 0.80609 0.64421 0.0
C1601 C 0.29094 0.77749 0.63294 0.0
C1602 C 0.31552 0.78932 0.63923 0.0
H1603 H 0.44307 0.85878 0.63841 0.0
H1604 H 0.40338 0.84906 0.64691 0.0
H1605 H 0.36845 0.83425 0.62614 0.0
H1606 H 0.2604 0.75756 0.59321 0.0
H1607 H 0.3004 0.78131 0.60421 0.0
C1608 C 0.15797 0.47236 0.17593 0.0
C1609 C 0.14542 0.48063 0.16584 0.0
C1610 C 0.15623 0.47083 0.19495 0.0
C1611 C 0.14107 0.49322 0.23545 0.0
H1612 H 0.13171 0.43582 0.25781 0.0
C1613 C 0.12778 0.47694 0.3134 0.0
C1614 C 0.14043 0.46736 0.32158 0.0
C1615 C 0.12623 0.47763 0.29435 0.0
C1616 C 0.1345 0.45202 0.25179 0.0
H1617 H 0.12181 0.49455 0.16796 0.0
H1618 H 0.11895 0.49198 0.20128 0.0
H1619 H 0.13417 0.43982 0.22461 0.0
H1620 H 0.16101 0.45061 0.31606 0.0
H1621 H 0.15857 0.45214 0.28303 0.0
H1622 H 0.14192 0.50564 0.26266 0.0
C1623 C 0.13006 0.48664 0.19437 0.0
C1624 C 0.13591 0.4543 0.2328 0.0
C1625 C 0.13166 0.48803 0.1753 0.0
C1626 C 0.15106 0.45807 0.31028 0.0
C1627 C 0.14955 0.45881 0.29129 0.0
C1628 C 0.1398 0.491 0.2545 0.0
C1629 C 0.14205 0.47768 0.20434 0.0
C1630 C 0.13951 0.47502 0.22445 0.0
C1631 C 0.13728 0.46875 0.2831 0.0
C1632 C 0.1368 0.47048 0.26288 0.0
H1633 H 0.16878 0.46657 0.16913 0.0
H1634 H 0.16596 0.46421 0.20234 0.0
H1635 H 0.14399 0.50943 0.22936 0.0
H1636 H 0.11931 0.48418 0.32168 0.0
H1637 H 0.11641 0.48515 0.28843 0.0
C1638 C 0.64921 0.141 0.81491 0.0
C1639 C 0.67129 0.15181 0.82348 0.0
C1640 C 0.64743 0.14002 0.79584 0.0
C1641 C 0.68132 0.16633 0.75353 0.0
H1642 H 0.63676 0.10698 0.73142 0.0
C1643 C 0.68823 0.14676 0.67837 0.0
C1644 C 0.66765 0.13703 0.6678 0.0
C1645 C 0.68722 0.14792 0.69735 0.0
C1646 C 0.64908 0.12372 0.73741 0.0
H1647 H 0.7088 0.17066 0.81863 0.0
H1648 H 0.70566 0.16873 0.78546 0.0
H1649 H 0.63766 0.11144 0.76467 0.0
H1650 H 0.62972 0.11993 0.66908 0.0
H1651 H 0.62802 0.1219 0.70243 0.0
H1652 H 0.69303 0.17848 0.72633 0.0
C1653 C 0.68972 0.16122 0.79347 0.0
C1654 C 0.64958 0.12632 0.75642 0.0
C1655 C 0.69151 0.16222 0.81252 0.0
C1656 C 0.64592 0.12754 0.67679 0.0
C1657 C 0.64492 0.12865 0.69588 0.0
C1658 C 0.68088 0.16371 0.73457 0.0
C1659 C 0.66767 0.14984 0.78492 0.0
C1660 C 0.66593 0.14756 0.7647 0.0
C1661 C 0.66563 0.13935 0.70628 0.0
C1662 C 0.665 0.14228 0.72633 0.0
H1663 H 0.63325 0.13289 0.8229 0.0
H1664 H 0.6302 0.13144 0.78964 0.0
H1665 H 0.6938 0.18305 0.75945 0.0
H1666 H 0.70529 0.15405 0.67197 0.0
H1667 H 0.70344 0.15579 0.70506 0.0
C1668 C 0.51584 0.65011 0.17486 0.0
C1669 C 0.52413 0.67206 0.16649 0.0
C1670 C 0.51442 0.64804 0.19392 0.0
C1671 C 0.51113 0.67806 0.23532 0.0
H1672 H 0.53447 0.64197 0.26035 0.0
C1673 C 0.5277 0.68557 0.31279 0.0
C1674 C 0.52102 0.66483 0.32261 0.0
C1675 C 0.52729 0.68541 0.29371 0.0
C1676 C 0.52761 0.65186 0.25354 0.0
H1677 H 0.53739 0.70904 0.17166 0.0
H1678 H 0.53501 0.70538 0.20476 0.0
H1679 H 0.53469 0.64322 0.22693 0.0
H1680 H 0.50878 0.62766 0.31996 0.0
H1681 H 0.5079 0.62744 0.28663 0.0
H1682 H 0.50413 0.68681 0.26185 0.0
C1683 C 0.52939 0.68975 0.1966 0.0
C1684 C 0.52773 0.65256 0.23443 0.0
C1685 C 0.5309 0.69185 0.1776 0.0
C1686 C 0.5141 0.64398 0.31286 0.0
C1687 C 0.51368 0.64384 0.29375 0.0
C1688 C 0.51097 0.67732 0.25439 0.0
C1689 C 0.52113 0.66785 0.20495 0.0
C1690 C 0.51975 0.6659 0.22515 0.0
C1691 C 0.52016 0.66454 0.28398 0.0
C1692 C 0.51946 0.66444 0.26371 0.0
H1693 H 0.51047 0.63451 0.16672 0.0
H1694 H 0.50783 0.63091 0.20002 0.0
H1695 H 0.50449 0.68815 0.22852 0.0
H1696 H 0.53322 0.70197 0.31983 0.0
H1697 H 0.53275 0.70173 0.28656 0.0
C1698 C 0.83562 0.52586 0.68128 0.0
C1699 C 0.84842 0.51717 0.67205 0.0
C1700 C 0.83458 0.52558 0.70038 0.0
C1701 C 0.84249 0.49699 0.74098 0.0
H1702 H 0.84811 0.55105 0.76664 0.0
C1703 C 0.85639 0.50934 0.81913 0.0
C1704 C 0.8446 0.51897 0.82861 0.0
C1705 C 0.85574 0.50814 0.80004 0.0
C1706 C 0.8462 0.53569 0.75967 0.0
H1707 H 0.87023 0.50141 0.67579 0.0
H1708 H 0.86858 0.50119 0.7091 0.0
H1709 H 0.84952 0.55115 0.73331 0.0
H1710 H 0.82237 0.53433 0.82535 0.0
H1711 H 0.8211 0.53202 0.79207 0.0
H1712 H 0.83931 0.48159 0.76738 0.0
C1713 C 0.85911 0.50794 0.70152 0.0
C1714 C 0.84703 0.53576 0.74058 0.0
C1715 C 0.86017 0.50822 0.68241 0.0
C1716 C 0.83175 0.52691 0.81853 0.0
C1717 C 0.83113 0.52572 0.79943 0.0
C1718 C 0.84167 0.49692 0.76009 0.0
C1719 C 0.8463 0.51662 0.71071 0.0
C1720 C 0.84524 0.51643 0.73101 0.0
C1721 C 0.8433 0.51654 0.78997 0.0
C1722 C 0.84356 0.51629 0.76965 0.0
H1723 H 0.82626 0.5328 0.67379 0.0
H1724 H 0.82432 0.53213 0.70704 0.0
H1725 H 0.8407 0.48169 0.734 0.0
H1726 H 0.86647 0.50305 0.82642 0.0
H1727 H 0.86549 0.50119 0.79315 0.0
C1728 C 0.30712 0.83582 0.31633 0.0
C1729 C 0.32698 0.84887 0.32735 0.0
C1730 C 0.309 0.83665 0.29732 0.0
C1731 C 0.34546 0.87378 0.25983 0.0
H1732 H 0.30888 0.81755 0.23105 0.0
C1733 C 0.34872 0.87133 0.18049 0.0
C1734 C 0.32705 0.85815 0.17155 0.0
C1735 C 0.35019 0.87072 0.19955 0.0
C1736 C 0.31905 0.83343 0.23891 0.0
H1737 H 0.36453 0.87274 0.32697 0.0
H1738 H 0.36779 0.87409 0.29361 0.0
H1739 H 0.30943 0.81481 0.26427 0.0
H1740 H 0.28984 0.83455 0.17577 0.0
H1741 H 0.29246 0.8337 0.20892 0.0
H1742 H 0.35488 0.89241 0.23437 0.0
C1743 C 0.35075 0.86338 0.2998 0.0
C1744 C 0.3194 0.83186 0.25792 0.0
C1745 C 0.34888 0.86249 0.31889 0.0
C1746 C 0.30684 0.84484 0.18214 0.0
C1747 C 0.30834 0.8442 0.20115 0.0
C1748 C 0.34514 0.87536 0.24076 0.0
C1749 C 0.33078 0.85055 0.28884 0.0
C1750 C 0.33227 0.85205 0.2686 0.0
C1751 C 0.33006 0.85687 0.21003 0.0
C1752 C 0.3316 0.85523 0.23015 0.0
H1753 H 0.28996 0.8251 0.32234 0.0
H1754 H 0.29324 0.82682 0.28926 0.0
H1755 H 0.35536 0.88968 0.26772 0.0
H1756 H 0.36465 0.88178 0.17278 0.0
H1757 H 0.36718 0.8806 0.20603 0.0
C1758 C 0.46154 0.29465 0.67802 0.0
C1759 C 0.47119 0.3156 0.66793 0.0
C1760 C 0.46389 0.29517 0.69704 0.0
C1761 C 0.47455 0.33338 0.73677 0.0
H1762 H 0.48843 0.28983 0.76173 0.0
C1763 C 0.49101 0.33937 0.81418 0.0
C1764 C 0.47929 0.31821 0.82395 0.0
C1765 C 0.49214 0.33929 0.79511 0.0
C1766 C 0.4844 0.30199 0.75494 0.0
H1767 H 0.49111 0.35353 0.66999 0.0
H1768 H 0.49527 0.35434 0.7031 0.0
H1769 H 0.48589 0.28913 0.72835 0.0
H1770 H 0.46037 0.28033 0.82132 0.0
H1771 H 0.46215 0.28027 0.78804 0.0
H1772 H 0.47278 0.34609 0.76328 0.0
C1773 C 0.48565 0.33754 0.6963 0.0
C1774 C 0.48292 0.30157 0.73586 0.0
C1775 C 0.48333 0.33705 0.6773 0.0
C1776 C 0.46951 0.29696 0.81424 0.0
C1777 C 0.47062 0.2969 0.79516 0.0
C1778 C 0.47602 0.33379 0.75581 0.0
C1779 C 0.47591 0.31662 0.70637 0.0
C1780 C 0.47791 0.31723 0.72659 0.0
C1781 C 0.48156 0.31808 0.78539 0.0
C1782 C 0.4809 0.31807 0.76511 0.0
H1783 H 0.45209 0.27781 0.67127 0.0
H1784 H 0.45596 0.27876 0.70446 0.0
H1785 H 0.47028 0.34541 0.73003 0.0
H1786 H 0.49894 0.35606 0.8212 0.0
H1787 H 0.50106 0.35588 0.78797 0.0
C1788 C 0.50934 0.8552 0.82204 0.0
C1789 C 0.51866 0.84254 0.83063 0.0
C1790 C 0.51029 0.85774 0.80302 0.0
C1791 C 0.54437 0.8572 0.76354 0.0
H1792 H 0.49218 0.8511 0.73477 0.0
C1793 C 0.5412 0.84895 0.68523 0.0
C1794 C 0.53112 0.85978 0.67507 0.0
C1795 C 0.54062 0.84891 0.7043 0.0
C1796 C 0.50704 0.85324 0.74265 0.0
H1797 H 0.53537 0.82179 0.8258 0.0
H1798 H 0.53684 0.82612 0.79269 0.0
H1799 H 0.48813 0.8458 0.76791 0.0
H1800 H 0.51321 0.87979 0.67712 0.0
H1801 H 0.51247 0.87992 0.71051 0.0
H1802 H 0.56329 0.86456 0.73836 0.0
C1803 C 0.52916 0.83439 0.80072 0.0
C1804 C 0.50468 0.85012 0.76161 0.0
C1805 C 0.52815 0.83178 0.8197 0.0
C1806 C 0.5211 0.87123 0.68449 0.0
C1807 C 0.52051 0.87117 0.70362 0.0
C1808 C 0.54676 0.86039 0.74463 0.0
C1809 C 0.52064 0.84775 0.79222 0.0
C1810 C 0.52323 0.85177 0.7722 0.0
C1811 C 0.52999 0.85973 0.71371 0.0
C1812 C 0.52803 0.85815 0.73394 0.0
H1813 H 0.50186 0.86369 0.83002 0.0
H1814 H 0.50365 0.86819 0.79684 0.0
H1815 H 0.55915 0.85908 0.77141 0.0
H1816 H 0.54907 0.83994 0.67848 0.0
H1817 H 0.54783 0.8397 0.71166 0.0
C1818 C 0.63439 0.5086 0.17607 0.0
C1819 C 0.65498 0.51323 0.16681 0.0
C1820 C 0.6341 0.50996 0.19515 0.0
C1821 C 0.66663 0.51013 0.2365 0.0
H1822 H 0.63492 0.53963 0.25953 0.0
C1823 C 0.68244 0.53834 0.31155 0.0
C1824 C 0.66257 0.53178 0.32253 0.0
C1825 C 0.68044 0.53624 0.29257 0.0
C1826 C 0.64365 0.53116 0.25327 0.0
H1827 H 0.69139 0.52284 0.17044 0.0
H1828 H 0.69095 0.52555 0.20358 0.0
H1829 H 0.63329 0.53486 0.22627 0.0
H1830 H 0.62514 0.51883 0.32197 0.0
H1831 H 0.62175 0.51533 0.28864 0.0
H1832 H 0.67733 0.50679 0.26342 0.0
C1833 C 0.67491 0.52047 0.19613 0.0
C1834 C 0.64268 0.52836 0.23425 0.0
C1835 C 0.67518 0.51903 0.17709 0.0
C1836 C 0.64079 0.52401 0.31395 0.0
C1837 C 0.63883 0.52203 0.29487 0.0
C1838 C 0.66772 0.51305 0.25544 0.0
C1839 C 0.65439 0.51603 0.20539 0.0
C1840 C 0.65438 0.51802 0.22564 0.0
C1841 C 0.65857 0.52764 0.28405 0.0
C1842 C 0.65647 0.52382 0.264 0.0
H1843 H 0.61847 0.50399 0.16859 0.0
H1844 H 0.61793 0.50612 0.20187 0.0
H1845 H 0.6754 0.50163 0.23036 0.0
H1846 H 0.69954 0.54456 0.3176 0.0
H1847 H 0.69602 0.54112 0.28454 0.0
C1848 C 0.16321 0.69013 0.815 0.0
C1849 C 0.15088 0.66885 0.82453 0.0
C1850 C 0.16432 0.69035 0.7959 0.0
C1851 C 0.1329 0.65445 0.75577 0.0
H1852 H 0.18904 0.69868 0.72977 0.0
C1853 C 0.14107 0.65519 0.6768 0.0
C1854 C 0.15117 0.67736 0.66847 0.0
C1855 C 0.14146 0.65321 0.69583 0.0
C1856 C 0.1732 0.68632 0.73686 0.0
H1857 H 0.13078 0.63105 0.82144 0.0
H1858 H 0.13304 0.63148 0.78821 0.0
H1859 H 0.18958 0.69698 0.76311 0.0
H1860 H 0.16953 0.71482 0.67372 0.0
H1861 H 0.17005 0.71126 0.70677 0.0
H1862 H 0.11652 0.64387 0.72949 0.0
C1863 C 0.14142 0.64801 0.79548 0.0
C1864 C 0.17349 0.68537 0.75594 0.0
C1865 C 0.14023 0.64778 0.81455 0.0
C1866 C 0.16157 0.69744 0.67962 0.0
C1867 C 0.16206 0.69545 0.69858 0.0
C1868 C 0.13263 0.65534 0.73668 0.0
C1869 C 0.15321 0.6693 0.78592 0.0
C1870 C 0.15328 0.66958 0.76562 0.0
C1871 C 0.1521 0.67334 0.70689 0.0
C1872 C 0.15271 0.67146 0.72706 0.0
H1873 H 0.17156 0.70668 0.82224 0.0
H1874 H 0.17333 0.70707 0.78894 0.0
H1875 H 0.11692 0.64232 0.76282 0.0
H1876 H 0.13295 0.63936 0.66863 0.0
H1877 H 0.13376 0.63594 0.70189 0.0
C1878 C 0.46474 0.12285 0.31214 0.0
C1879 C 0.46854 0.1445 0.31877 0.0
C1880 C 0.46445 0.11895 0.29331 0.0
C1881 C 0.48734 0.14794 0.25016 0.0
H1882 H 0.43056 0.09934 0.22736 0.0
C1883 C 0.47999 0.12757 0.17272 0.0
C1884 C 0.46232 0.13025 0.16425 0.0
C1885 C 0.48085 0.1264 0.19177 0.0
C1886 C 0.44657 0.11279 0.23362 0.0
H1887 H 0.47557 0.17916 0.31101 0.0
H1888 H 0.47576 0.17251 0.27811 0.0
H1889 H 0.43276 0.10329 0.26083 0.0
H1890 H 0.43114 0.13271 0.16894 0.0
H1891 H 0.43237 0.13005 0.20227 0.0
H1892 H 0.50112 0.15759 0.22301 0.0
C1893 C 0.47271 0.15855 0.28751 0.0
C1894 C 0.44785 0.11499 0.25267 0.0
C1895 C 0.47246 0.16228 0.30627 0.0
C1896 C 0.44502 0.13078 0.17512 0.0
C1897 C 0.44561 0.12911 0.19414 0.0
C1898 C 0.48624 0.14544 0.23116 0.0
C1899 C 0.46856 0.13683 0.2809 0.0
C1900 C 0.46807 0.13289 0.26101 0.0
C1901 C 0.46377 0.12734 0.20261 0.0
C1902 C 0.46569 0.12815 0.22274 0.0
H1903 H 0.46158 0.10883 0.3215 0.0
H1904 H 0.46121 0.10207 0.28843 0.0
H1905 H 0.5031 0.16184 0.25638 0.0
H1906 H 0.4936 0.12721 0.16468 0.0
H1907 H 0.49499 0.12502 0.19807 0.0
C1908 C 0.35494 0.4888 0.67714 0.0
C1909 C 0.3339 0.48197 0.66768 0.0
C1910 C 0.35543 0.48909 0.69626 0.0
C1911 C 0.32221 0.49002 0.73665 0.0
H1912 H 0.35504 0.46321 0.76193 0.0
C1913 C 0.30464 0.46264 0.81189 0.0
C1914 C 0.32402 0.46872 0.82332 0.0
C1915 C 0.30748 0.46562 0.79301 0.0
C1916 C 0.34606 0.47102 0.75506 0.0
H1917 H 0.29692 0.47031 0.67097 0.0
H1918 H 0.29778 0.47058 0.7042 0.0
H1919 H 0.35718 0.46651 0.7286 0.0
H1920 H 0.36158 0.48231 0.82373 0.0
H1921 H 0.36645 0.48743 0.79059 0.0
H1922 H 0.31072 0.49412 0.76304 0.0
C1923 C 0.31396 0.47601 0.69685 0.0
C1924 C 0.3473 0.47295 0.73599 0.0
C1925 C 0.31346 0.47572 0.67777 0.0
C1926 C 0.34627 0.47745 0.81534 0.0
C1927 C 0.34908 0.48033 0.79637 0.0
C1928 C 0.32091 0.48803 0.75566 0.0
C1929 C 0.33492 0.48261 0.7063 0.0
C1930 C 0.33509 0.48214 0.72658 0.0
C1931 C 0.32973 0.47467 0.78507 0.0
C1932 C 0.33252 0.47819 0.76503 0.0
H1933 H 0.37104 0.49381 0.66981 0.0
H1934 H 0.37189 0.4945 0.70317 0.0
H1935 H 0.313 0.49762 0.72981 0.0
H1936 H 0.28722 0.4558 0.81751 0.0
H1937 H 0.29218 0.46072 0.78459 0.0
C1938 C 0.82659 0.30128 0.17424 0.0
C1939 C 0.8376 0.32175 0.16357 0.0
C1940 C 0.82665 0.30265 0.1933 0.0
C1941 C 0.8358 0.34229 0.23208 0.0
H1942 H 0.84988 0.29975 0.25842 0.0
C1943 C 0.85542 0.35011 0.30994 0.0
C1944 C 0.84527 0.32904 0.31991 0.0
C1945 C 0.85426 0.34979 0.29082 0.0
C1946 C 0.84569 0.31159 0.25129 0.0
H1947 H 0.85663 0.35974 0.16465 0.0
H1948 H 0.85686 0.36205 0.19794 0.0
H1949 H 0.8475 0.29799 0.22518 0.0
H1950 H 0.82566 0.29113 0.3175 0.0
H1951 H 0.82352 0.29067 0.28432 0.0
H1952 H 0.83405 0.3559 0.2583 0.0
C1953 C 0.84805 0.34497 0.19151 0.0
C1954 C 0.84429 0.31055 0.23224 0.0
C1955 C 0.848 0.34362 0.17242 0.0
C1956 C 0.83382 0.30771 0.31031 0.0
C1957 C 0.83268 0.30742 0.29125 0.0
C1958 C 0.8372 0.34332 0.25119 0.0
C1959 C 0.83772 0.32448 0.20215 0.0
C1960 C 0.8392 0.32579 0.22242 0.0
C1961 C 0.84297 0.32843 0.28128 0.0
C1962 C 0.84203 0.32788 0.26099 0.0
H1963 H 0.81823 0.28414 0.16791 0.0
H1964 H 0.81815 0.28655 0.20112 0.0
H1965 H 0.83167 0.35413 0.2249 0.0
H1966 H 0.86437 0.36686 0.31687 0.0
H1967 H 0.86253 0.36627 0.28349 0.0
C1968 C 0.92649 0.33704 0.11936 0.0
C1969 C 0.90727 0.31811 0.11093 0.0
C1970 C 0.94772 0.33742 0.12079 0.0
C1971 C 0.9885 0.3298 0.12792 0.0
H1972 H 0.01498 0.33724 0.07935 0.0
C1973 C 0.08525 0.39199 0.11641 0.0
C1974 C 0.08643 0.41035 0.10582 0.0
C1975 C 0.06494 0.37001 0.11629 0.0
C1976 C 0.00779 0.33448 0.09305 0.0
H1977 H 0.89489 0.28449 0.09764 0.0
H1978 H 0.93267 0.28578 0.09943 0.0
H1979 H 0.97254 0.31673 0.08315 0.0
H1980 H 0.06852 0.41978 0.08562 0.0
H1981 H 0.03328 0.38155 0.08527 0.0
H1982 H 0.02367 0.34968 0.1376 0.0
C1983 C 0.93098 0.29994 0.1053 0.0
C1984 C 0.98353 0.32271 0.09524 0.0
C1985 C 0.90951 0.29932 0.10421 0.0
C1986 C 0.06786 0.40598 0.09411 0.0
C1987 C 0.04786 0.38398 0.09369 0.0
C1988 C 0.01274 0.3414 0.12575 0.0
C1989 C 0.95024 0.31906 0.11356 0.0
C1990 C 0.97386 0.322 0.11249 0.0
C1991 C 0.04589 0.36603 0.10522 0.0
C1992 C 0.02247 0.34549 0.10812 0.0
H1993 H 0.92516 0.35162 0.12481 0.0
H1994 H 0.9625 0.35262 0.12687 0.0
H1995 H 0.98131 0.32916 0.14138 0.0
H1996 H 0.09948 0.39498 0.12549 0.0
H1997 H 0.06369 0.35648 0.1254 0.0
C1998 C 0.58342 0.92341 0.58857 0.0
C1999 C 0.58508 0.90754 0.60036 0.0
C2000 C 0.60351 0.94336 0.58264 0.0
C2001 C 0.6586 0.98492 0.60099 0.0
H2002 H 0.65993 0.01628 0.55575 0.0
C2003 C 0.69254 0.08302 0.60024 0.0
C2004 C 0.67388 0.08644 0.59512 0.0
C2005 C 0.69212 0.06221 0.59578 0.0
C2006 C 0.66028 0.00774 0.56832 0.0
H2007 H 0.60903 0.89926 0.61439 0.0
H2008 H 0.64445 0.93495 0.60448 0.0
H2009 H 0.63919 0.97358 0.55688 0.0
H2010 H 0.64112 0.07161 0.58017 0.0
H2011 H 0.64031 0.0354 0.57248 0.0
H2012 H 0.67772 0.01896 0.61292 0.0
C2013 C 0.62752 0.93164 0.59967 0.0
C2014 C 0.64845 0.98335 0.56896 0.0
C2015 C 0.60731 0.91136 0.60539 0.0
C2016 C 0.65557 0.06934 0.58452 0.0
C2017 C 0.65532 0.04875 0.57986 0.0
C2018 C 0.67048 0.00932 0.60034 0.0
C2019 C 0.62573 0.94805 0.58854 0.0
C2020 C 0.64589 0.97182 0.5857 0.0
C2021 C 0.67325 0.0447 0.58586 0.0
C2022 C 0.66975 0.02081 0.58438 0.0
H2023 H 0.56653 0.92071 0.58424 0.0
H2024 H 0.60148 0.95585 0.57435 0.0
H2025 H 0.65699 0.97651 0.61407 0.0
H2026 H 0.70698 0.09599 0.60834 0.0
H2027 H 0.70607 0.05943 0.60063 0.0
C2028 C 0.65319 0.58372 0.08985 0.0
C2029 C 0.66725 0.5803 0.10243 0.0
C2030 C 0.65682 0.60605 0.08661 0.0
C2031 C 0.67124 0.65698 0.11191 0.0
H2032 H 0.65308 0.67225 0.06575 0.0
C2033 C 0.61094 0.69569 0.10987 0.0
C2034 C 0.58998 0.67866 0.10163 0.0
C2035 C 0.63174 0.69536 0.10708 0.0
C2036 C 0.65882 0.66882 0.07869 0.0
H2037 H 0.69689 0.59761 0.12088 0.0
H2038 H 0.70261 0.63691 0.11574 0.0
H2039 H 0.67236 0.64888 0.06591 0.0
H2040 H 0.57458 0.64899 0.08314 0.0
H2041 H 0.61074 0.64841 0.07825 0.0
H2042 H 0.6555 0.6748 0.12479 0.0
C2043 C 0.68908 0.62224 0.10819 0.0
C2044 C 0.66984 0.65547 0.07879 0.0
C2045 C 0.68569 0.5998 0.1112 0.0
C2046 C 0.5904 0.6621 0.08985 0.0
C2047 C 0.6112 0.66206 0.08681 0.0
C2048 C 0.66031 0.67043 0.11181 0.0
C2049 C 0.67442 0.62546 0.09605 0.0
C2050 C 0.67409 0.64766 0.09547 0.0
C2051 C 0.63195 0.67836 0.09567 0.0
C2052 C 0.65217 0.67457 0.09527 0.0
H2053 H 0.6391 0.56906 0.08267 0.0
H2054 H 0.64489 0.60787 0.07747 0.0
H2055 H 0.67449 0.65135 0.12497 0.0
H2056 H 0.61109 0.70873 0.11897 0.0
H2057 H 0.64747 0.7079 0.11422 0.0
C2058 C 0.07266 0.66035 0.59291 0.0
C2059 C 0.09024 0.67999 0.60208 0.0
C2060 C 0.05081 0.65817 0.58991 0.0
C2061 C 0.01146 0.67121 0.61316 0.0
H2062 H 0.97175 0.63679 0.57213 0.0
C2063 C 0.90898 0.5986 0.59708 0.0
C2064 C 0.90835 0.58157 0.609 0.0
C2065 C 0.92975 0.61996 0.59481 0.0
C2066 C 0.98258 0.64707 0.58349 0.0
H2067 H 0.09913 0.71334 0.61451 0.0
H2068 H 0.06045 0.70906 0.60975 0.0
H2069 H 0.01421 0.65895 0.56817 0.0
H2070 H 0.92804 0.57377 0.62871 0.0
H2071 H 0.964 0.61112 0.62512 0.0
H2072 H 0.97996 0.65729 0.62894 0.0
C2073 C 0.0638 0.69556 0.60472 0.0
C2074 C 0.00684 0.65958 0.58127 0.0
C2075 C 0.08584 0.6979 0.60751 0.0
C2076 C 0.92822 0.58657 0.61931 0.0
C2077 C 0.94865 0.60802 0.61743 0.0
C2078 C 0.98723 0.65856 0.61541 0.0
C2079 C 0.04598 0.67547 0.59618 0.0
C2080 C 0.02147 0.67033 0.59643 0.0
C2081 C 0.94974 0.6247 0.60493 0.0
C2082 C 0.97281 0.6451 0.60091 0.0
H2083 H 0.07562 0.64641 0.58835 0.0
H2084 H 0.03726 0.64227 0.58359 0.0
H2085 H 0.02231 0.67936 0.62507 0.0
H2086 H 0.89375 0.59501 0.589 0.0
H2087 H 0.9304 0.63251 0.58493 0.0
C2088 C 0.40318 0.06534 0.08206 0.0
C2089 C 0.40278 0.08289 0.09261 0.0
C2090 C 0.38234 0.04565 0.07685 0.0
C2091 C 0.32718 0.00851 0.09663 0.0
H2092 H 0.32412 0.97186 0.05417 0.0
C2093 C 0.29879 0.91232 0.10412 0.0
C2094 C 0.31855 0.9104 0.09972 0.0
C2095 C 0.29694 0.93133 0.0978 0.0
C2096 C 0.3241 0.98186 0.06592 0.0
H2097 H 0.38024 0.09426 0.10513 0.0
H2098 H 0.34369 0.05921 0.09652 0.0
H2099 H 0.34495 0.01447 0.05215 0.0
H2100 H 0.35103 0.92593 0.08436 0.0
H2101 H 0.34795 0.959 0.07352 0.0
H2102 H 0.30875 0.97611 0.11101 0.0
C2103 C 0.36017 0.06097 0.09209 0.0
C2104 C 0.33601 0.00621 0.06478 0.0
C2105 C 0.38109 0.08088 0.09712 0.0
C2106 C 0.33581 0.92714 0.08823 0.0
C2107 C 0.33378 0.94584 0.08171 0.0
C2108 C 0.31528 0.98416 0.09777 0.0
C2109 C 0.36065 0.04297 0.08223 0.0
C2110 C 0.33955 0.01963 0.08062 0.0
C2111 C 0.31457 0.94837 0.08668 0.0
C2112 C 0.31573 0.97089 0.08292 0.0
H2113 H 0.4196 0.06657 0.07813 0.0
H2114 H 0.38331 0.03184 0.06957 0.0
H2115 H 0.32942 0.01845 0.10902 0.0
H2116 H 0.28511 0.8995 0.11286 0.0
H2117 H 0.28214 0.93309 0.10199 0.0
C2118 C 0.40221 0.33322 0.61861 0.0
C2119 C 0.40343 0.31511 0.60958 0.0
C2120 C 0.38138 0.33372 0.61883 0.0
C2121 C 0.33238 0.32554 0.62321 0.0
H2122 H 0.32107 0.34116 0.57456 0.0
C2123 C 0.30245 0.39198 0.61394 0.0
C2124 C 0.32106 0.41131 0.60518 0.0
C2125 C 0.30023 0.3698 0.61254 0.0
C2126 C 0.32333 0.33614 0.5882 0.0
H2127 H 0.38387 0.28308 0.59395 0.0
H2128 H 0.3474 0.28471 0.59354 0.0
H2129 H 0.34136 0.31898 0.57816 0.0
H2130 H 0.35061 0.42241 0.58688 0.0
H2131 H 0.34673 0.38393 0.58436 0.0
H2132 H 0.31672 0.34489 0.63333 0.0
C2133 C 0.3625 0.29807 0.60083 0.0
C2134 C 0.33485 0.32337 0.59025 0.0
C2135 C 0.3833 0.29725 0.60098 0.0
C2136 C 0.33635 0.40786 0.594 0.0
C2137 C 0.33385 0.38573 0.59231 0.0
C2138 C 0.32074 0.33816 0.62116 0.0
C2139 C 0.36145 0.31634 0.60977 0.0
C2140 C 0.34111 0.31973 0.60778 0.0
C2141 C 0.31623 0.36663 0.60199 0.0
C2142 C 0.31796 0.34524 0.60367 0.0
H2143 H 0.41739 0.34705 0.6255 0.0
H2144 H 0.38115 0.34829 0.62547 0.0
H2145 H 0.33687 0.32267 0.63686 0.0
H2146 H 0.29034 0.39423 0.62256 0.0
H2147 H 0.28665 0.35537 0.62025 0.0
C2148 C 0.60917 0.90805 0.87906 0.0
C2149 C 0.58958 0.90656 0.88804 0.0
C2150 C 0.63048 0.92906 0.87896 0.0
C2151 C 0.66266 0.9876 0.90016 0.0
H2152 H 0.67353 0.01108 0.85038 0.0
C2153 C 0.66214 0.06611 0.86776 0.0
C2154 C 0.67985 0.08576 0.87675 0.0
C2155 C 0.66267 0.04531 0.86739 0.0
C2156 C 0.67141 0.00471 0.86431 0.0
H2157 H 0.57727 0.92524 0.90492 0.0
H2158 H 0.61443 0.96186 0.90478 0.0
H2159 H 0.65211 0.96898 0.85578 0.0
H2160 H 0.71244 0.09956 0.89186 0.0
H2161 H 0.71264 0.06243 0.89201 0.0
H2162 H 0.67984 0.02339 0.90867 0.0
C2163 C 0.61335 0.94682 0.89787 0.0
C2164 C 0.65922 0.98064 0.86742 0.0
C2165 C 0.59198 0.926 0.89769 0.0
C2166 C 0.69856 0.08454 0.88486 0.0
C2167 C 0.69879 0.06348 0.88486 0.0
C2168 C 0.67505 0.01167 0.89704 0.0
C2169 C 0.63263 0.94867 0.88819 0.0
C2170 C 0.65316 0.97206 0.88535 0.0
C2171 C 0.68068 0.04366 0.87629 0.0
C2172 C 0.67778 0.02028 0.87911 0.0
H2173 H 0.60779 0.89324 0.87155 0.0
H2174 H 0.64506 0.93021 0.87125 0.0
H2175 H 0.65837 0.98126 0.9141 0.0
H2176 H 0.64769 0.06673 0.86124 0.0
H2177 H 0.64822 0.0301 0.86101 0.0
C2178 C 0.58664 0.6601 0.40384 0.0
C2179 C 0.58519 0.67541 0.39133 0.0
C2180 C 0.60823 0.6626 0.40839 0.0
C2181 C 0.66075 0.67623 0.38598 0.0
H2182 H 0.67029 0.6538 0.43243 0.0
C2183 C 0.69355 0.61148 0.38752 0.0
C2184 C 0.67519 0.59052 0.39472 0.0
C2185 C 0.69474 0.63285 0.39123 0.0
C2186 C 0.66845 0.66066 0.41945 0.0
H2187 H 0.60512 0.70616 0.37444 0.0
H2188 H 0.64325 0.70989 0.38181 0.0
H2189 H 0.6487 0.67492 0.43147 0.0
H2190 H 0.64496 0.57564 0.41264 0.0
H2191 H 0.647 0.61274 0.41912 0.0
H2192 H 0.67828 0.65983 0.3737 0.0
C2193 C 0.62759 0.69626 0.38833 0.0
C2194 C 0.65614 0.67277 0.4189 0.0
C2195 C 0.60586 0.69403 0.38405 0.0
C2196 C 0.65909 0.59147 0.40671 0.0
C2197 C 0.66052 0.6128 0.41065 0.0
C2198 C 0.67314 0.66419 0.38654 0.0
C2199 C 0.62888 0.68028 0.40032 0.0
C2200 C 0.65037 0.67867 0.40198 0.0
C2201 C 0.67788 0.63359 0.40249 0.0
C2202 C 0.67519 0.65452 0.40309 0.0
H2203 H 0.57099 0.64583 0.40987 0.0
H2204 H 0.60855 0.6497 0.41738 0.0
H2205 H 0.6567 0.68072 0.37274 0.0
H2206 H 0.70628 0.61125 0.37829 0.0
H2207 H 0.70818 0.64861 0.3847 0.0
C2208 C 0.93019 0.59458 0.87282 0.0
C2209 C 0.91093 0.59239 0.88261 0.0
C2210 C 0.9502 0.61635 0.87085 0.0
C2211 C 0.98559 0.66661 0.86179 0.0
H2212 H 0.0215 0.68044 0.90666 0.0
C2213 C 0.08499 0.69636 0.88725 0.0
C2214 C 0.08523 0.67764 0.87823 0.0
C2215 C 0.06513 0.69885 0.88634 0.0
C2216 C 0.01174 0.67776 0.89409 0.0
H2217 H 0.89725 0.61109 0.89796 0.0
H2218 H 0.93329 0.64944 0.89534 0.0
H2219 H 0.97885 0.65925 0.90801 0.0
H2220 H 0.06588 0.64784 0.86033 0.0
H2221 H 0.03156 0.65234 0.85847 0.0
H2222 H 0.01841 0.68249 0.84774 0.0
C2223 C 0.93237 0.63427 0.88877 0.0
C2224 C 0.98731 0.66562 0.89488 0.0
C2225 C 0.91196 0.61243 0.89034 0.0
C2226 C 0.06598 0.66224 0.86757 0.0
C2227 C 0.04652 0.66507 0.86628 0.0
C2228 C 0.00996 0.67879 0.86101 0.0
C2229 C 0.95153 0.63631 0.87891 0.0
C2230 C 0.97425 0.65815 0.87863 0.0
C2231 C 0.04571 0.6831 0.8759 0.0
C2232 C 0.02306 0.6824 0.87706 0.0
H2233 H 0.92974 0.57945 0.86658 0.0
H2234 H 0.96502 0.61747 0.86353 0.0
H2235 H 0.97574 0.66112 0.84912 0.0
H2236 H 0.09975 0.70846 0.89554 0.0
H2237 H 0.06467 0.71263 0.89408 0.0
C2238 C 0.3032 0.91585 0.38059 0.0
C2239 C 0.32029 0.912 0.38879 0.0
C2240 C 0.30392 0.93725 0.38293 0.0
C2241 C 0.33038 0.99094 0.41112 0.0
H2242 H 0.34331 0.02426 0.36504 0.0
C2243 C 0.40785 0.07971 0.40036 0.0
C2244 C 0.40778 0.09541 0.38745 0.0
C2245 C 0.38764 0.05841 0.40361 0.0
C2246 C 0.33899 0.01522 0.37807 0.0
H2247 H 0.35067 0.92687 0.40662 0.0
H2248 H 0.35185 0.96398 0.41075 0.0
H2249 H 0.32341 0.98171 0.36504 0.0
H2250 H 0.38612 0.10182 0.36864 0.0
H2251 H 0.35072 0.06407 0.37405 0.0
H2252 H 0.34771 0.02454 0.42405 0.0
C2253 C 0.3379 0.95056 0.40254 0.0
C2254 C 0.32759 0.99081 0.37805 0.0
C2255 C 0.33746 0.92946 0.39994 0.0
C2256 C 0.38671 0.08995 0.37858 0.0
C2257 C 0.36646 0.06843 0.38169 0.0
C2258 C 0.34167 0.01532 0.41114 0.0
C2259 C 0.32137 0.9548 0.39387 0.0
C2260 C 0.32477 0.97866 0.39448 0.0
C2261 C 0.36692 0.05224 0.39392 0.0
C2262 C 0.34761 0.02767 0.39452 0.0
H2263 H 0.28971 0.9026 0.37197 0.0
H2264 H 0.29114 0.94026 0.37598 0.0
H2265 H 0.32798 0.98184 0.42398 0.0
H2266 H 0.42373 0.08355 0.40759 0.0
H2267 H 0.3887 0.04617 0.4129 0.0
C2268 C 0.29342 0.3811 0.88036 0.0
C2269 C 0.31169 0.40138 0.88848 0.0
C2270 C 0.29334 0.35992 0.88123 0.0
C2271 C 0.32261 0.3302 0.90224 0.0
H2272 H 0.3332 0.31856 0.85208 0.0
C2273 C 0.40102 0.33147 0.86706 0.0
C2274 C 0.40372 0.31419 0.87601 0.0
C2275 C 0.37954 0.33069 0.86744 0.0
C2276 C 0.32958 0.32092 0.86614 0.0
H2277 H 0.34292 0.41498 0.90526 0.0
H2278 H 0.34282 0.3781 0.90676 0.0
H2279 H 0.31142 0.33869 0.85814 0.0
H2280 H 0.38608 0.28208 0.89182 0.0
H2281 H 0.34859 0.28142 0.8932 0.0
H2282 H 0.34285 0.31448 0.91011 0.0
C2283 C 0.32854 0.3785 0.89975 0.0
C2284 C 0.31704 0.33235 0.86965 0.0
C2285 C 0.32883 0.39972 0.89865 0.0
C2286 C 0.38436 0.29561 0.88479 0.0
C2287 C 0.36296 0.29513 0.88553 0.0
C2288 C 0.33495 0.31854 0.89873 0.0
C2289 C 0.31128 0.35864 0.8905 0.0
C2290 C 0.3151 0.33868 0.88765 0.0
C2291 C 0.36054 0.31286 0.87706 0.0
C2292 C 0.34002 0.3155 0.88062 0.0
H2293 H 0.27986 0.38185 0.87251 0.0
H2294 H 0.27995 0.34486 0.87392 0.0
H2295 H 0.32107 0.33471 0.91623 0.0
H2296 H 0.41563 0.34585 0.86008 0.0
H2297 H 0.37819 0.34483 0.8611 0.0
C2298 C 0.92911 0.34361 0.37335 0.0
C2299 C 0.90872 0.32647 0.38196 0.0
C2300 C 0.95006 0.34357 0.37543 0.0
C2301 C 0.98923 0.33197 0.37598 0.0
H2302 H 0.01383 0.35199 0.42497 0.0
C2303 C 0.08684 0.38874 0.3863 0.0
C2304 C 0.09092 0.41056 0.39275 0.0
C2305 C 0.06501 0.36869 0.3888 0.0
C2306 C 0.00711 0.34578 0.41134 0.0
H2307 H 0.89395 0.29566 0.39931 0.0
H2308 H 0.93128 0.29636 0.40369 0.0
H2309 H 0.97161 0.33294 0.4197 0.0
H2310 H 0.07634 0.42814 0.40847 0.0
H2311 H 0.03835 0.39331 0.41278 0.0
H2312 H 0.0247 0.34671 0.36726 0.0
C2313 C 0.9307 0.30935 0.39496 0.0
C2314 C 0.98299 0.3348 0.40835 0.0
C2315 C 0.90951 0.30903 0.3925 0.0
C2316 C 0.07356 0.41163 0.40309 0.0
C2317 C 0.0519 0.39158 0.4058 0.0
C2318 C 0.01328 0.34271 0.37899 0.0
C2319 C 0.95109 0.32667 0.38644 0.0
C2320 C 0.97415 0.32934 0.39046 0.0
C2321 C 0.04711 0.37013 0.39804 0.0
C2322 C 0.02249 0.3512 0.39648 0.0
H2323 H 0.92889 0.35713 0.36507 0.0
H2324 H 0.96571 0.35735 0.369 0.0
H2325 H 0.98266 0.32778 0.36209 0.0
H2326 H 0.1 0.38736 0.37839 0.0
H2327 H 0.0617 0.35235 0.38268 0.0
C2328 C 0.22902 0.41992 0.92798 0.0
C2329 C 0.25258 0.43562 0.9323 0.0
C2330 C 0.21248 0.40954 0.94192 0.0
C2331 C 0.20334 0.39831 0.99127 0.0
H2332 H 0.1668 0.42941 0.98829 0.0
C2333 C 0.1849 0.4369 0.05389 0.0
C2334 C 0.168 0.44378 0.05325 0.0
C2335 C 0.18759 0.42507 0.0391 0.0
C2336 C 0.17602 0.41975 0.9894 0.0
H2337 H 0.27777 0.45115 0.95433 0.0
H2338 H 0.24892 0.43268 0.97868 0.0
H2339 H 0.18603 0.42628 0.96128 0.0
H2340 H 0.13902 0.44186 0.03794 0.0
H2341 H 0.14247 0.41971 0.01259 0.0
H2342 H 0.19375 0.39211 0.01949 0.0
C2343 C 0.24324 0.42851 0.96458 0.0
C2344 C 0.18715 0.41805 0.97377 0.0
C2345 C 0.25966 0.43931 0.95068 0.0
C2346 C 0.1525 0.43706 0.03842 0.0
C2347 C 0.15462 0.42448 0.02391 0.0
C2348 C 0.19164 0.39941 0.00685 0.0
C2349 C 0.21942 0.41425 0.96031 0.0
C2350 C 0.20199 0.4086 0.97487 0.0
C2351 C 0.17294 0.41933 0.02362 0.0
C2352 C 0.17915 0.41159 0.00639 0.0
H2353 H 0.22316 0.41678 0.91388 0.0
H2354 H 0.19415 0.39877 0.93838 0.0
H2355 H 0.21461 0.39078 0.99231 0.0
H2356 H 0.19696 0.44194 0.06531 0.0
H2357 H 0.20215 0.42186 0.03945 0.0
C2358 C 0.82153 0.28001 0.45232 0.0
C2359 C 0.82028 0.27189 0.43436 0.0
C2360 C 0.8179 0.26534 0.46716 0.0
C2361 C 0.81328 0.23248 0.49743 0.0
H2362 H 0.75226 0.17712 0.49128 0.0
C2363 C 0.754 0.18472 0.55897 0.0
C2364 C 0.73248 0.18416 0.55714 0.0
C2365 C 0.76855 0.18925 0.54378 0.0
C2366 C 0.76952 0.19225 0.49317 0.0
H2367 H 0.81594 0.24259 0.41788 0.0
H2368 H 0.80912 0.21671 0.44396 0.0
H2369 H 0.77439 0.1986 0.46442 0.0
H2370 H 0.70877 0.18663 0.53785 0.0
H2371 H 0.73406 0.19455 0.5115 0.0
H2372 H 0.80736 0.22725 0.52626 0.0
C2373 C 0.81294 0.23447 0.44647 0.0
C2374 C 0.78231 0.20445 0.47779 0.0
C2375 C 0.8168 0.24927 0.43157 0.0
C2376 C 0.72536 0.18722 0.53975 0.0
C2377 C 0.7397 0.19141 0.5246 0.0
C2378 C 0.80048 0.22024 0.51282 0.0
C2379 C 0.8128 0.24218 0.46438 0.0
C2380 C 0.80362 0.2255 0.47984 0.0
C2381 C 0.76158 0.19285 0.5265 0.0
C2382 C 0.77786 0.20089 0.51079 0.0
H2383 H 0.82453 0.29747 0.45494 0.0
H2384 H 0.81759 0.27173 0.48076 0.0
H2385 H 0.82986 0.24846 0.49935 0.0
H2386 H 0.7599 0.18234 0.57222 0.0
H2387 H 0.78539 0.19037 0.54558 0.0
C2388 C 0.58533 0.75984 0.06003 0.0
C2389 C 0.56379 0.73963 0.05614 0.0
C2390 C 0.59909 0.7746 0.04588 0.0
C2391 C 0.60827 0.80974 0.01538 0.0
H2392 H 0.60271 0.78485 0.96642 0.0
C2393 C 0.56565 0.8305 0.95933 0.0
C2394 C 0.56871 0.82691 0.94085 0.0
C2395 C 0.57955 0.82858 0.97276 0.0
C2396 C 0.60531 0.79256 0.97992 0.0
H2397 H 0.5406 0.71827 0.03431 0.0
H2398 H 0.56416 0.74397 0.00987 0.0
H2399 H 0.60083 0.76138 0.9926 0.0
H2400 H 0.59032 0.82084 0.92174 0.0
H2401 H 0.61454 0.81715 0.94538 0.0
H2402 H 0.61137 0.84039 0.00271 0.0
C2403 C 0.57069 0.74843 0.02375 0.0
C2404 C 0.60397 0.77894 0.99496 0.0
C2405 C 0.55692 0.73385 0.03782 0.0
C2406 C 0.58731 0.82334 0.93592 0.0
C2407 C 0.60122 0.8213 0.94944 0.0
C2408 C 0.60992 0.8235 0.00032 0.0
C2409 C 0.59167 0.76923 0.02761 0.0
C2410 C 0.60323 0.78657 0.01277 0.0
C2411 C 0.59683 0.82294 0.96805 0.0
C2412 C 0.60618 0.8141 0.98254 0.0
H2413 H 0.59121 0.76467 0.07402 0.0
H2414 H 0.61515 0.79053 0.04925 0.0
H2415 H 0.60815 0.8163 0.02894 0.0
H2416 H 0.55177 0.83374 0.96356 0.0
H2417 H 0.57538 0.82969 0.98693 0.0
C2418 C 0.81549 0.55691 0.55653 0.0
C2419 C 0.81726 0.53654 0.55556 0.0
C2420 C 0.81136 0.56625 0.5407 0.0
C2421 C 0.81029 0.56185 0.48979 0.0
H2422 H 0.7553 0.56864 0.49337 0.0
C2423 C 0.73484 0.52504 0.43984 0.0
C2424 C 0.72936 0.5405 0.43087 0.0
C2425 C 0.75125 0.53301 0.45391 0.0
C2426 C 0.77108 0.5675 0.49222 0.0
H2427 H 0.81738 0.51081 0.53708 0.0
H2428 H 0.80989 0.52672 0.50979 0.0
H2429 H 0.77537 0.56784 0.52125 0.0
H2430 H 0.73657 0.57637 0.42959 0.0
H2431 H 0.76489 0.59014 0.45504 0.0
H2432 H 0.80442 0.55908 0.46083 0.0
C2433 C 0.81191 0.53572 0.52264 0.0
C2434 C 0.7826 0.56706 0.50814 0.0
C2435 C 0.81588 0.52637 0.53839 0.0
C2436 C 0.74057 0.56414 0.43629 0.0
C2437 C 0.75669 0.57202 0.45074 0.0
C2438 C 0.79861 0.562 0.47394 0.0
C2439 C 0.8092 0.55552 0.52362 0.0
C2440 C 0.80153 0.56291 0.5071 0.0
C2441 C 0.76219 0.55646 0.4595 0.0
C2442 C 0.77832 0.56372 0.47515 0.0
H2443 H 0.8166 0.56525 0.56956 0.0
H2444 H 0.80941 0.58156 0.54184 0.0
H2445 H 0.82515 0.55915 0.48856 0.0
H2446 H 0.72663 0.5068 0.43586 0.0
H2447 H 0.75515 0.52072 0.46068 0.0
C2448 C 0.17205 0.74481 0.93679 0.0
C2449 C 0.16699 0.72173 0.9401 0.0
C2450 C 0.17776 0.7606 0.95128 0.0
C2451 C 0.21111 0.79137 0.98095 0.0
H2452 H 0.18926 0.77255 0.03068 0.0
C2453 C 0.27253 0.81394 0.04113 0.0
C2454 C 0.26599 0.81721 0.05869 0.0
C2455 C 0.25735 0.80874 0.02637 0.0
C2456 C 0.19533 0.77846 0.01688 0.0
H2457 H 0.16176 0.69655 0.96132 0.0
H2458 H 0.17201 0.72399 0.9864 0.0
H2459 H 0.16447 0.75002 0.00512 0.0
H2460 H 0.23877 0.8187 0.07435 0.0
H2461 H 0.21205 0.80928 0.04845 0.0
H2462 H 0.24243 0.81914 0.99273 0.0
C2463 C 0.1715 0.72999 0.9727 0.0
C2464 C 0.18121 0.76543 0.00224 0.0
C2465 C 0.16591 0.71428 0.95826 0.0
C2466 C 0.24429 0.81614 0.06101 0.0
C2467 C 0.22898 0.81075 0.04621 0.0
C2468 C 0.2252 0.80442 0.99558 0.0
C2469 C 0.17834 0.75353 0.96933 0.0
C2470 C 0.18955 0.77096 0.98419 0.0
C2471 C 0.23522 0.8066 0.02881 0.0
C2472 C 0.21799 0.79728 0.01367 0.0
H2473 H 0.1728 0.75105 0.92296 0.0
H2474 H 0.18274 0.77858 0.9483 0.0
H2475 H 0.21809 0.79614 0.96722 0.0
H2476 H 0.2892 0.81485 0.03882 0.0
H2477 H 0.26254 0.80526 0.0132 0.0
C2478 C 0.41496 0.23703 0.55443 0.0
C2479 C 0.4335 0.26023 0.5531 0.0
C2480 C 0.40374 0.22444 0.53857 0.0
C2481 C 0.40036 0.23134 0.48802 0.0
H2482 H 0.40796 0.17682 0.48509 0.0
C2483 C 0.45075 0.21469 0.43376 0.0
C2484 C 0.44034 0.19332 0.42434 0.0
C2485 C 0.43879 0.21832 0.44792 0.0
C2486 C 0.40498 0.19154 0.48574 0.0
H2487 H 0.45347 0.28909 0.53448 0.0
H2488 H 0.43433 0.26738 0.50712 0.0
H2489 H 0.40557 0.19193 0.51498 0.0
H2490 H 0.40931 0.15901 0.42208 0.0
H2491 H 0.38876 0.16507 0.44777 0.0
H2492 H 0.40275 0.23252 0.45875 0.0
C2493 C 0.4282 0.25871 0.5202 0.0
C2494 C 0.40355 0.20019 0.50285 0.0
C2495 C 0.43949 0.2711 0.5359 0.0
C2496 C 0.41761 0.17569 0.42915 0.0
C2497 C 0.40587 0.17911 0.44372 0.0
C2498 C 0.40218 0.22291 0.47095 0.0
C2499 C 0.41068 0.23504 0.52125 0.0
C2500 C 0.40292 0.22115 0.50413 0.0
C2501 C 0.41645 0.20046 0.45317 0.0
C2502 C 0.40592 0.20382 0.4698 0.0
H2503 H 0.40991 0.22831 0.56758 0.0
H2504 H 0.39028 0.20622 0.53978 0.0
H2505 H 0.39932 0.24721 0.4886 0.0
H2506 H 0.46818 0.22857 0.43023 0.0
H2507 H 0.44737 0.2348 0.45527 0.0
C2508 C 0.73503 0.56349 0.05774 0.0
C2509 C 0.71487 0.54182 0.05405 0.0
C2510 C 0.75119 0.57573 0.04388 0.0
C2511 C 0.78925 0.58434 0.01623 0.0
H2512 H 0.76985 0.5787 0.96553 0.0
C2513 C 0.82837 0.55695 0.96011 0.0
C2514 C 0.82646 0.56182 0.94169 0.0
C2515 C 0.82129 0.56649 0.974 0.0
C2516 C 0.77587 0.58117 0.97957 0.0
H2517 H 0.69537 0.51666 0.03266 0.0
H2518 H 0.72361 0.53769 0.00871 0.0
H2519 H 0.74208 0.57263 0.98968 0.0
H2520 H 0.81814 0.58263 0.92347 0.0
H2521 H 0.80567 0.59932 0.94786 0.0
H2522 H 0.82276 0.59191 0.00611 0.0
C2523 C 0.72685 0.54544 0.02223 0.0
C2524 C 0.75981 0.57736 0.99343 0.0
C2525 C 0.71076 0.53319 0.03605 0.0
C2526 C 0.81955 0.57831 0.93754 0.0
C2527 C 0.81236 0.58783 0.95149 0.0
C2528 C 0.80538 0.58831 0.00236 0.0
C2529 C 0.74744 0.56663 0.02604 0.0
C2530 C 0.76591 0.57742 0.01186 0.0
C2531 C 0.81209 0.58111 0.9698 0.0
C2532 C 0.79838 0.58524 0.98391 0.0
H2533 H 0.73866 0.57077 0.07143 0.0
H2534 H 0.76684 0.59207 0.0472 0.0
H2535 H 0.79456 0.58468 0.03031 0.0
H2536 H 0.83401 0.54461 0.96378 0.0
H2537 H 0.82121 0.56076 0.9879 0.0
C2538 C 0.19472 0.76959 0.55796 0.0
C2539 C 0.17757 0.74594 0.55882 0.0
C2540 C 0.19577 0.78299 0.54283 0.0
C2541 C 0.17953 0.77283 0.4942 0.0
H2542 H 0.21824 0.84045 0.49374 0.0
C2543 C 0.23184 0.818 0.43095 0.0
C2544 C 0.25544 0.82688 0.43571 0.0
C2545 C 0.21524 0.81385 0.44449 0.0
C2546 C 0.2069 0.82161 0.49361 0.0
H2547 H 0.14676 0.71795 0.54592 0.0
H2548 H 0.14765 0.7416 0.51987 0.0
H2549 H 0.19916 0.82049 0.52212 0.0
H2550 H 0.28069 0.8408 0.45783 0.0
H2551 H 0.25183 0.83382 0.48141 0.0
H2552 H 0.18801 0.77392 0.46591 0.0
C2553 C 0.16097 0.74973 0.53033 0.0
C2554 C 0.1962 0.81012 0.50988 0.0
C2555 C 0.16035 0.73619 0.54523 0.0
C2556 C 0.26254 0.83363 0.45387 0.0
C2557 C 0.24606 0.82993 0.46731 0.0
C2558 C 0.18979 0.78435 0.47791 0.0
C2559 C 0.17935 0.77302 0.52848 0.0
C2560 C 0.18384 0.78548 0.51065 0.0
C2561 C 0.22215 0.81903 0.46288 0.0
C2562 C 0.20484 0.80866 0.47778 0.0
H2563 H 0.2081 0.77733 0.56844 0.0
H2564 H 0.21043 0.80066 0.54192 0.0
H2565 H 0.17025 0.7539 0.49407 0.0
H2566 H 0.22596 0.81275 0.417 0.0
H2567 H 0.19688 0.80533 0.4408 0.0
C2568 C 0.41744 0.17576 0.05797 0.0
C2569 C 0.43926 0.17725 0.05508 0.0
C2570 C 0.40544 0.17879 0.04342 0.0
C2571 C 0.40457 0.18185 0.99268 0.0
H2572 H 0.39187 0.23251 0.00089 0.0
C2573 C 0.43231 0.2697 0.95539 0.0
C2574 C 0.42872 0.26214 0.93711 0.0
C2575 C 0.42059 0.25393 0.96948 0.0
C2576 C 0.39488 0.21804 -0.00162 0.0
H2577 H 0.4651 0.18217 0.03452 0.0
H2578 H 0.44446 0.18776 0.00935 0.0
H2579 H 0.39719 0.21266 0.02698 0.0
H2580 H 0.40801 0.23271 0.9191 0.0
H2581 H 0.38755 0.20501 0.94385 0.0
H2582 H 0.40477 0.18877 0.96418 0.0
C2583 C 0.43641 0.18395 0.02277 0.0
C2584 C 0.39777 0.20655 0.01334 0.0
C2585 C 0.44845 0.18109 0.03728 0.0
C2586 C 0.41142 0.23899 0.93309 0.0
C2587 C 0.39969 0.22312 0.94725 0.0
C2588 C 0.40185 0.19343 0.97775 0.0
C2589 C 0.41493 0.1831 0.0257 0.0
C2590 C 0.40425 0.18948 0.01057 0.0
C2591 C 0.40502 0.2302 0.96562 0.0
C2592 C 0.39867 0.21276 0.9805 0.0
H2593 H 0.40981 0.17268 0.07152 0.0
H2594 H 0.38894 0.17811 0.04605 0.0
H2595 H 0.40896 0.16831 0.9902 0.0
H2596 H 0.4452 0.28755 0.95893 0.0
H2597 H 0.42533 0.26005 0.98343 0.0
C2598 C 0.18861 0.42666 0.4296 0.0
C2599 C 0.1884 0.44778 0.4315 0.0
C2600 C 0.1926 0.41625 0.44481 0.0
C2601 C 0.22286 0.41452 0.47607 0.0
H2602 H 0.20176 0.42051 0.52425 0.0
C2603 C 0.28381 0.45527 0.53548 0.0
C2604 C 0.27602 0.44975 0.55364 0.0
C2605 C 0.26874 0.44348 0.521 0.0
C2606 C 0.20745 0.41797 0.51098 0.0
H2607 H 0.19092 0.47385 0.45093 0.0
H2608 H 0.19794 0.45588 0.47726 0.0
H2609 H 0.18008 0.42045 0.49733 0.0
H2610 H 0.24679 0.42629 0.57089 0.0
H2611 H 0.22029 0.40585 0.54544 0.0
H2612 H 0.25108 0.4135 0.48967 0.0
C2613 C 0.19491 0.44722 0.46412 0.0
C2614 C 0.19512 0.41814 0.49554 0.0
C2615 C 0.19124 0.45773 0.44896 0.0
C2616 C 0.25324 0.43115 0.55703 0.0
C2617 C 0.23808 0.4194 0.54248 0.0
C2618 C 0.23517 0.41427 0.49152 0.0
C2619 C 0.196 0.42659 0.46218 0.0
C2620 C 0.20367 0.41808 0.47795 0.0
C2621 C 0.2455 0.42592 0.52433 0.0
C2622 C 0.2285 0.41766 0.50902 0.0
H2623 H 0.18637 0.41854 0.4163 0.0
H2624 H 0.19348 0.40041 0.44297 0.0
H2625 H 0.22977 0.4143 0.46266 0.0
H2626 H 0.30135 0.46925 0.53238 0.0
H2627 H 0.27496 0.44921 0.5072 0.0
C2628 C 0.83234 0.26239 0.03513 0.0
C2629 C 0.82644 0.25573 0.05349 0.0
C2630 C 0.828 0.24559 0.02177 0.0
C2631 C 0.7821 0.18839 0.01292 0.0
H2632 H 0.81561 0.19503 0.96773 0.0
C2633 C 0.7292 0.15038 0.9486 0.0
C2634 C 0.73733 0.16572 0.93366 0.0
C2635 C 0.74425 0.15319 0.96304 0.0
C2636 C 0.80593 0.19289 0.98023 0.0
H2637 H 0.8134 0.22661 0.07252 0.0
H2638 H 0.80513 0.19713 0.04898 0.0
H2639 H 0.83701 0.21711 0.9948 0.0
H2640 H 0.76758 0.19498 0.92128 0.0
H2641 H 0.79343 0.20123 0.94693 0.0
H2642 H 0.75081 0.16654 -0.00166 0.0
C2643 C 0.81331 0.21538 0.04503 0.0
C2644 C 0.81829 0.20534 0.99576 0.0
C2645 C 0.81799 0.23225 0.05846 0.0
C2646 C 0.76101 0.18294 0.93273 0.0
C2647 C 0.77588 0.18632 0.94745 0.0
C2648 C 0.76971 0.17642 -0.00264 0.0
C2649 C 0.8174 0.22181 0.0265 0.0
C2650 C 0.80627 0.20398 0.01198 0.0
C2651 C 0.76744 0.1721 0.96319 0.0
C2652 C 0.78128 0.17945 0.98051 0.0
H2653 H 0.83917 0.2804 0.03095 0.0
H2654 H 0.83113 0.25099 0.00756 0.0
H2655 H 0.77235 0.18717 0.02521 0.0
H2656 H 0.711 0.1367 0.94937 0.0
H2657 H 0.73727 0.14129 0.97453 0.0
C2658 C 0.55619 0.74071 0.43595 0.0
C2659 C 0.5377 0.71756 0.43797 0.0
C2660 C 0.56512 0.7554 0.45119 0.0
C2661 C 0.56459 0.75623 0.50199 0.0
H2662 H 0.55969 0.81202 0.49578 0.0
C2663 C 0.5587 0.80746 0.56365 0.0
C2664 C 0.53842 0.80939 0.56268 0.0
C2665 C 0.56692 0.80146 0.54811 0.0
C2666 C 0.5615 0.79671 0.49768 0.0
H2667 H 0.51525 0.69118 0.45764 0.0
H2668 H 0.53065 0.71677 0.48407 0.0
H2669 H 0.55977 0.79013 0.46893 0.0
H2670 H 0.5116 0.80778 0.54451 0.0
H2671 H 0.52587 0.7973 0.51753 0.0
H2672 H 0.56455 0.76188 0.53081 0.0
C2673 C 0.53834 0.7236 0.47079 0.0
C2674 C 0.56176 0.78429 0.48232 0.0
C2675 C 0.52928 0.70901 0.45559 0.0
C2676 C 0.52713 0.80619 0.54575 0.0
C2677 C 0.53548 0.80049 0.53023 0.0
C2678 C 0.56441 0.7687 0.51736 0.0
C2679 C 0.55592 0.74709 0.46869 0.0
C2680 C 0.5621 0.76329 0.48439 0.0
C2681 C 0.55521 0.79768 0.53131 0.0
C2682 C 0.56166 0.78837 0.51533 0.0
H2683 H 0.56316 0.74778 0.42255 0.0
H2684 H 0.57874 0.77343 0.44922 0.0
H2685 H 0.56519 0.74025 0.50392 0.0
H2686 H 0.56782 0.80989 0.57651 0.0
H2687 H 0.58216 0.79939 0.54927 0.0
loop_
_geom_bond_atom_site_label_1
_geom_bond_atom_site_label_2
_geom_bond_distance
_geom_bond_site_symmetry_2
_ccdc_geom_bond_type
Sc0 O3 2.025 . S
Sc0 O10 2.105 . S
Sc0 O13 2.105 . S
Sc0 O16 2.105 . S
Sc0 O19 2.105 . S
Sc1 O3 2.025 . S
Sc1 O11 2.105 . S
Sc1 O15 2.105 . S
Sc1 O17 2.105 . S
Sc1 O21 2.105 . S
Sc2 O3 2.025 . S
Sc2 O12 2.105 . S
Sc2 O14 2.105 . S
Sc2 O18 2.105 . S
Sc2 O20 2.105 . S
O3 Sc0 2.025 . S
O3 Sc1 2.025 . S
O3 Sc2 2.025 . S
C4 O10 1.268 . S
C4 O20 1.268 . S
C5 O11 1.268 . S
C5 O19 1.268 . S
C6 O12 1.268 . S
C6 O21 1.268 . S
C7 O13 1.268 . S
C7 O17 1.268 . S
C8 O14 1.268 . S
C8 O16 1.268 . S
C9 O15 1.268 . S
C9 O18 1.268 . S
O10 Sc0 2.105 . S
O10 C4 1.268 . S
O11 Sc1 2.105 . S
O11 C5 1.268 . S
O12 Sc2 2.105 . S
O12 C6 1.268 . S
O13 Sc0 2.105 . S
O13 C7 1.268 . S
O14 Sc2 2.105 . S
O14 C8 1.268 . S
O15 Sc1 2.105 . S
O15 C9 1.268 . S
O16 Sc0 2.105 . S
O16 C8 1.268 . S
O17 Sc1 2.105 . S
O17 C7 1.268 . S
O18 Sc2 2.105 . S
O18 C9 1.268 . S
O19 Sc0 2.105 . S
O19 C5 1.268 . S
O20 Sc2 2.105 . S
O20 C4 1.268 . S
O21 Sc1 2.105 . S
O21 C6 1.268 . S
Sc22 O25 2.025 . S
Sc22 O32 2.105 . S
Sc22 O35 2.105 . S
Sc22 O38 2.105 . S
Sc22 O41 2.105 . S
Sc23 O25 2.025 . S
Sc23 O33 2.105 . S
Sc23 O37 2.105 . S
Sc23 O39 2.105 . S
Sc23 O43 2.105 . S
Sc24 O25 2.025 . S
Sc24 O34 2.105 . S
Sc24 O36 2.105 . S
Sc24 O40 2.105 . S
Sc24 O42 2.105 . S
O25 Sc22 2.025 . S
O25 Sc23 2.025 . S
O25 Sc24 2.025 . S
C26 O32 1.268 . S
C26 O42 1.268 . S
C27 O33 1.268 . S
C27 O41 1.268 . S
C28 O34 1.268 . S
C28 O43 1.268 . S
C29 O35 1.268 . S
C29 O39 1.268 . S
C30 O36 1.268 . S
C30 O38 1.268 . S
C31 O37 1.268 . S
C31 O40 1.268 . S
O32 Sc22 2.105 . S
O32 C26 1.268 . S
O33 Sc23 2.105 . S
O33 C27 1.268 . S
O34 Sc24 2.105 . S
O34 C28 1.268 . S
O35 Sc22 2.105 . S
O35 C29 1.268 . S
O36 Sc24 2.105 . S
O36 C30 1.268 . S
O37 Sc23 2.105 . S
O37 C31 1.268 . S
O38 Sc22 2.105 . S
O38 C30 1.268 . S
O39 Sc23 2.105 . S
O39 C29 1.268 . S
O40 Sc24 2.105 . S
O40 C31 1.268 . S
O41 Sc22 2.105 . S
O41 C27 1.268 . S
O42 Sc24 2.105 . S
O42 C26 1.268 . S
O43 Sc23 2.105 . S
O43 C28 1.268 . S
Sc44 O47 2.025 . S
Sc44 O54 2.105 . S
Sc44 O57 2.105 . S
Sc44 O60 2.105 . S
Sc44 O63 2.105 . S
Sc45 O47 2.025 . S
Sc45 O55 2.105 . S
Sc45 O59 2.105 . S
Sc45 O61 2.105 . S
Sc45 O65 2.105 . S
Sc46 O47 2.025 . S
Sc46 O56 2.105 . S
Sc46 O58 2.105 . S
Sc46 O62 2.105 . S
Sc46 O64 2.105 . S
O47 Sc44 2.025 . S
O47 Sc45 2.025 . S
O47 Sc46 2.025 . S
C48 O54 1.268 . S
C48 O64 1.268 . S
C49 O55 1.268 . S
C49 O63 1.268 . S
C50 O56 1.268 . S
C50 O65 1.268 . S
C51 O57 1.268 . S
C51 O61 1.268 . S
C52 O58 1.268 . S
C52 O60 1.268 . S
C53 O59 1.268 . S
C53 O62 1.268 . S
O54 Sc44 2.105 . S
O54 C48 1.268 . S
O55 Sc45 2.105 . S
O55 C49 1.268 . S
O56 Sc46 2.105 . S
O56 C50 1.268 . S
O57 Sc44 2.105 . S
O57 C51 1.268 . S
O58 Sc46 2.105 . S
O58 C52 1.268 . S
O59 Sc45 2.105 . S
O59 C53 1.268 . S
O60 Sc44 2.105 . S
O60 C52 1.268 . S
O61 Sc45 2.105 . S
O61 C51 1.268 . S
O62 Sc46 2.105 . S
O62 C53 1.268 . S
O63 Sc44 2.105 . S
O63 C49 1.268 . S
O64 Sc46 2.105 . S
O64 C48 1.268 . S
O65 Sc45 2.105 . S
O65 C50 1.268 . S
Sc66 O69 2.025 . S
Sc66 O76 2.105 . S
Sc66 O79 2.105 . S
Sc66 O82 2.105 . S
Sc66 O85 2.105 . S
Sc67 O69 2.025 . S
Sc67 O77 2.105 . S
Sc67 O81 2.105 . S
Sc67 O83 2.105 . S
Sc67 O87 2.105 . S
Sc68 O69 2.025 . S
Sc68 O78 2.105 . S
Sc68 O80 2.105 . S
Sc68 O84 2.105 . S
Sc68 O86 2.105 . S
O69 Sc66 2.025 . S
O69 Sc67 2.025 . S
O69 Sc68 2.025 . S
C70 O76 1.268 . S
C70 O86 1.268 . S
C71 O77 1.268 . S
C71 O85 1.268 . S
C72 O78 1.268 . S
C72 O87 1.268 . S
C73 O79 1.268 . S
C73 O83 1.268 . S
C74 O80 1.268 . S
C74 O82 1.268 . S
C75 O81 1.268 . S
C75 O84 1.268 . S
O76 Sc66 2.105 . S
O76 C70 1.268 . S
O77 Sc67 2.105 . S
O77 C71 1.268 . S
O78 Sc68 2.105 . S
O78 C72 1.268 . S
O79 Sc66 2.105 . S
O79 C73 1.268 . S
O80 Sc68 2.105 . S
O80 C74 1.268 . S
O81 Sc67 2.105 . S
O81 C75 1.268 . S
O82 Sc66 2.105 . S
O82 C74 1.268 . S
O83 Sc67 2.105 . S
O83 C73 1.268 . S
O84 Sc68 2.105 . S
O84 C75 1.268 . S
O85 Sc66 2.105 . S
O85 C71 1.268 . S
O86 Sc68 2.105 . S
O86 C70 1.268 . S
O87 Sc67 2.105 . S
O87 C72 1.268 . S
Sc88 O91 2.025 . S
Sc88 O98 2.105 . S
Sc88 O101 2.105 . S
Sc88 O104 2.105 . S
Sc88 O107 2.105 . S
Sc89 O91 2.025 . S
Sc89 O99 2.105 . S
Sc89 O103 2.105 . S
Sc89 O105 2.105 . S
Sc89 O109 2.105 . S
Sc90 O91 2.025 . S
Sc90 O100 2.105 . S
Sc90 O102 2.105 . S
Sc90 O106 2.105 . S
Sc90 O108 2.105 . S
O91 Sc88 2.025 . S
O91 Sc89 2.025 . S
O91 Sc90 2.025 . S
C92 O98 1.268 . S
C92 O108 1.268 . S
C93 O99 1.268 . S
C93 O107 1.268 . S
C94 O100 1.268 . S
C94 O109 1.268 . S
C95 O101 1.268 . S
C95 O105 1.268 . S
C96 O102 1.268 . S
C96 O104 1.268 . S
C97 O103 1.268 . S
C97 O106 1.268 . S
O98 Sc88 2.105 . S
O98 C92 1.268 . S
O99 Sc89 2.105 . S
O99 C93 1.268 . S
O100 Sc90 2.105 . S
O100 C94 1.268 . S
O101 Sc88 2.105 . S
O101 C95 1.268 . S
O102 Sc90 2.105 . S
O102 C96 1.268 . S
O103 Sc89 2.105 . S
O103 C97 1.268 . S
O104 Sc88 2.105 . S
O104 C96 1.268 . S
O105 Sc89 2.105 . S
O105 C95 1.268 . S
O106 Sc90 2.105 . S
O106 C97 1.268 . S
O107 Sc88 2.105 . S
O107 C93 1.268 . S
O108 Sc90 2.105 . S
O108 C92 1.268 . S
O109 Sc89 2.105 . S
O109 C94 1.268 . S
Sc110 O113 2.025 . S
Sc110 O120 2.105 . S
Sc110 O123 2.105 . S
Sc110 O126 2.105 . S
Sc110 O129 2.105 . S
Sc111 O113 2.025 . S
Sc111 O121 2.105 . S
Sc111 O125 2.105 . S
Sc111 O127 2.105 . S
Sc111 O131 2.105 . S
Sc112 O113 2.025 . S
Sc112 O122 2.105 . S
Sc112 O124 2.105 . S
Sc112 O128 2.105 . S
Sc112 O130 2.105 . S
O113 Sc110 2.025 . S
O113 Sc111 2.025 . S
O113 Sc112 2.025 . S
C114 O120 1.268 . S
C114 O130 1.268 . S
C115 O121 1.268 . S
C115 O129 1.268 . S
C116 O122 1.268 . S
C116 O131 1.268 . S
C117 O123 1.268 . S
C117 O127 1.268 . S
C118 O124 1.268 . S
C118 O126 1.268 . S
C119 O125 1.268 . S
C119 O128 1.268 . S
O120 Sc110 2.105 . S
O120 C114 1.268 . S
O121 Sc111 2.105 . S
O121 C115 1.268 . S
O122 Sc112 2.105 . S
O122 C116 1.268 . S
O123 Sc110 2.105 . S
O123 C117 1.268 . S
O124 Sc112 2.105 . S
O124 C118 1.268 . S
O125 Sc111 2.105 . S
O125 C119 1.268 . S
O126 Sc110 2.105 . S
O126 C118 1.268 . S
O127 Sc111 2.105 . S
O127 C117 1.268 . S
O128 Sc112 2.105 . S
O128 C119 1.268 . S
O129 Sc110 2.105 . S
O129 C115 1.268 . S
O130 Sc112 2.105 . S
O130 C114 1.268 . S
O131 Sc111 2.105 . S
O131 C116 1.268 . S
Sc132 O135 2.025 . S
Sc132 O142 2.105 . S
Sc132 O145 2.105 . S
Sc132 O148 2.105 . S
Sc132 O151 2.105 . S
Sc133 O135 2.025 . S
Sc133 O143 2.105 . S
Sc133 O147 2.105 . S
Sc133 O149 2.105 . S
Sc133 O153 2.105 . S
Sc134 O135 2.025 . S
Sc134 O144 2.105 . S
Sc134 O146 2.105 . S
Sc134 O150 2.105 . S
Sc134 O152 2.105 . S
O135 Sc132 2.025 . S
O135 Sc133 2.025 . S
O135 Sc134 2.025 . S
C136 O142 1.268 . S
C136 O152 1.268 . S
C137 O143 1.268 . S
C137 O151 1.268 . S
C138 O144 1.268 . S
C138 O153 1.268 . S
C139 O145 1.268 . S
C139 O149 1.268 . S
C140 O146 1.268 . S
C140 O148 1.268 . S
C141 O147 1.268 . S
C141 O150 1.268 . S
O142 Sc132 2.105 . S
O142 C136 1.268 . S
O143 Sc133 2.105 . S
O143 C137 1.268 . S
O144 Sc134 2.105 . S
O144 C138 1.268 . S
O145 Sc132 2.105 . S
O145 C139 1.268 . S
O146 Sc134 2.105 . S
O146 C140 1.268 . S
O147 Sc133 2.105 . S
O147 C141 1.268 . S
O148 Sc132 2.105 . S
O148 C140 1.268 . S
O149 Sc133 2.105 . S
O149 C139 1.268 . S
O150 Sc134 2.105 . S
O150 C141 1.268 . S
O151 Sc132 2.105 . S
O151 C137 1.268 . S
O152 Sc134 2.105 . S
O152 C136 1.268 . S
O153 Sc133 2.105 . S
O153 C138 1.268 . S
Sc154 O157 2.025 . S
Sc154 O164 2.105 . S
Sc154 O167 2.105 . S
Sc154 O170 2.105 . S
Sc154 O173 2.105 . S
Sc155 O157 2.025 . S
Sc155 O165 2.105 . S
Sc155 O169 2.105 . S
Sc155 O171 2.105 . S
Sc155 O175 2.105 . S
Sc156 O157 2.025 . S
Sc156 O166 2.105 . S
Sc156 O168 2.105 . S
Sc156 O172 2.105 . S
Sc156 O174 2.105 . S
O157 Sc154 2.025 . S
O157 Sc155 2.025 . S
O157 Sc156 2.025 . S
C158 O164 1.268 . S
C158 O174 1.268 . S
C159 O165 1.268 . S
C159 O173 1.268 . S
C160 O166 1.268 . S
C160 O175 1.268 . S
C161 O167 1.268 . S
C161 O171 1.268 . S
C162 O168 1.268 . S
C162 O170 1.268 . S
C163 O169 1.268 . S
C163 O172 1.268 . S
O164 Sc154 2.105 . S
O164 C158 1.268 . S
O165 Sc155 2.105 . S
O165 C159 1.268 . S
O166 Sc156 2.105 . S
O166 C160 1.268 . S
O167 Sc154 2.105 . S
O167 C161 1.268 . S
O168 Sc156 2.105 . S
O168 C162 1.268 . S
O169 Sc155 2.105 . S
O169 C163 1.268 . S
O170 Sc154 2.105 . S
O170 C162 1.268 . S
O171 Sc155 2.105 . S
O171 C161 1.268 . S
O172 Sc156 2.105 . S
O172 C163 1.268 . S
O173 Sc154 2.105 . S
O173 C159 1.268 . S
O174 Sc156 2.105 . S
O174 C158 1.268 . S
O175 Sc155 2.105 . S
O175 C160 1.268 . S
Sc176 O179 2.025 . S
Sc176 O186 2.105 . S
Sc176 O189 2.105 . S
Sc176 O192 2.105 . S
Sc176 O195 2.105 . S
Sc177 O179 2.025 . S
Sc177 O187 2.105 . S
Sc177 O191 2.105 . S
Sc177 O193 2.105 . S
Sc177 O197 2.105 . S
Sc178 O179 2.025 . S
Sc178 O188 2.105 . S
Sc178 O190 2.105 . S
Sc178 O194 2.105 . S
Sc178 O196 2.105 . S
O179 Sc176 2.025 . S
O179 Sc177 2.025 . S
O179 Sc178 2.025 . S
C180 O186 1.268 . S
C180 O196 1.268 . S
C181 O187 1.268 . S
C181 O195 1.268 . S
C182 O188 1.268 . S
C182 O197 1.268 . S
C183 O189 1.268 . S
C183 O193 1.268 . S
C184 O190 1.268 . S
C184 O192 1.268 . S
C185 O191 1.268 . S
C185 O194 1.268 . S
O186 Sc176 2.105 . S
O186 C180 1.268 . S
O187 Sc177 2.105 . S
O187 C181 1.268 . S
O188 Sc178 2.105 . S
O188 C182 1.268 . S
O189 Sc176 2.105 . S
O189 C183 1.268 . S
O190 Sc178 2.105 . S
O190 C184 1.268 . S
O191 Sc177 2.105 . S
O191 C185 1.268 . S
O192 Sc176 2.105 . S
O192 C184 1.268 . S
O193 Sc177 2.105 . S
O193 C183 1.268 . S
O194 Sc178 2.105 . S
O194 C185 1.268 . S
O195 Sc176 2.105 . S
O195 C181 1.268 . S
O196 Sc178 2.105 . S
O196 C180 1.268 . S
O197 Sc177 2.105 . S
O197 C182 1.268 . S
Sc198 O201 2.025 . S
Sc198 O208 2.105 . S
Sc198 O211 2.105 . S
Sc198 O214 2.105 . S
Sc198 O217 2.105 . S
Sc199 O201 2.025 . S
Sc199 O209 2.105 . S
Sc199 O213 2.105 . S
Sc199 O215 2.105 . S
Sc199 O219 2.105 . S
Sc200 O201 2.025 . S
Sc200 O210 2.105 . S
Sc200 O212 2.105 . S
Sc200 O216 2.105 . S
Sc200 O218 2.105 . S
O201 Sc198 2.025 . S
O201 Sc199 2.025 . S
O201 Sc200 2.025 . S
C202 O208 1.268 . S
C202 O218 1.268 . S
C203 O209 1.268 . S
C203 O217 1.268 . S
C204 O210 1.268 . S
C204 O219 1.268 . S
C205 O211 1.268 . S
C205 O215 1.268 . S
C206 O212 1.268 . S
C206 O214 1.268 . S
C207 O213 1.268 . S
C207 O216 1.268 . S
O208 Sc198 2.105 . S
O208 C202 1.268 . S
O209 Sc199 2.105 . S
O209 C203 1.268 . S
O210 Sc200 2.105 . S
O210 C204 1.268 . S
O211 Sc198 2.105 . S
O211 C205 1.268 . S
O212 Sc200 2.105 . S
O212 C206 1.268 . S
O213 Sc199 2.105 . S
O213 C207 1.268 . S
O214 Sc198 2.105 . S
O214 C206 1.268 . S
O215 Sc199 2.105 . S
O215 C205 1.268 . S
O216 Sc200 2.105 . S
O216 C207 1.268 . S
O217 Sc198 2.105 . S
O217 C203 1.268 . S
O218 Sc200 2.105 . S
O218 C202 1.268 . S
O219 Sc199 2.105 . S
O219 C204 1.268 . S
Sc220 O223 2.025 . S
Sc220 O230 2.105 . S
Sc220 O233 2.105 . S
Sc220 O236 2.105 . S
Sc220 O239 2.105 . S
Sc221 O223 2.025 . S
Sc221 O231 2.105 . S
Sc221 O235 2.105 . S
Sc221 O237 2.105 . S
Sc221 O241 2.105 . S
Sc222 O223 2.025 . S
Sc222 O232 2.105 . S
Sc222 O234 2.105 . S
Sc222 O238 2.105 . S
Sc222 O240 2.105 . S
O223 Sc220 2.025 . S
O223 Sc221 2.025 . S
O223 Sc222 2.025 . S
C224 O230 1.268 . S
C224 O240 1.268 . S
C225 O231 1.268 . S
C225 O239 1.268 . S
C226 O232 1.268 . S
C226 O241 1.268 . S
C227 O233 1.268 . S
C227 O237 1.268 . S
C228 O234 1.268 . S
C228 O236 1.268 . S
C229 O235 1.268 . S
C229 O238 1.268 . S
O230 Sc220 2.105 . S
O230 C224 1.268 . S
O231 Sc221 2.105 . S
O231 C225 1.268 . S
O232 Sc222 2.105 . S
O232 C226 1.268 . S
O233 Sc220 2.105 . S
O233 C227 1.268 . S
O234 Sc222 2.105 . S
O234 C228 1.268 . S
O235 Sc221 2.105 . S
O235 C229 1.268 . S
O236 Sc220 2.105 . S
O236 C228 1.268 . S
O237 Sc221 2.105 . S
O237 C227 1.268 . S
O238 Sc222 2.105 . S
O238 C229 1.268 . S
O239 Sc220 2.105 . S
O239 C225 1.268 . S
O240 Sc222 2.105 . S
O240 C224 1.268 . S
O241 Sc221 2.105 . S
O241 C226 1.268 . S
Sc242 O245 2.025 . S
Sc242 O252 2.105 . S
Sc242 O255 2.105 . S
Sc242 O258 2.105 . S
Sc242 O261 2.105 . S
Sc243 O245 2.025 . S
Sc243 O253 2.105 . S
Sc243 O257 2.105 . S
Sc243 O259 2.105 . S
Sc243 O263 2.105 . S
Sc244 O245 2.025 . S
Sc244 O254 2.105 . S
Sc244 O256 2.105 . S
Sc244 O260 2.105 . S
Sc244 O262 2.105 . S
O245 Sc242 2.025 . S
O245 Sc243 2.025 . S
O245 Sc244 2.025 . S
C246 O252 1.268 . S
C246 O262 1.268 . S
C247 O253 1.268 . S
C247 O261 1.268 . S
C248 O254 1.268 . S
C248 O263 1.268 . S
C249 O255 1.268 . S
C249 O259 1.268 . S
C250 O256 1.268 . S
C250 O258 1.268 . S
C251 O257 1.268 . S
C251 O260 1.268 . S
O252 Sc242 2.105 . S
O252 C246 1.268 . S
O253 Sc243 2.105 . S
O253 C247 1.268 . S
O254 Sc244 2.105 . S
O254 C248 1.268 . S
O255 Sc242 2.105 . S
O255 C249 1.268 . S
O256 Sc244 2.105 . S
O256 C250 1.268 . S
O257 Sc243 2.105 . S
O257 C251 1.268 . S
O258 Sc242 2.105 . S
O258 C250 1.268 . S
O259 Sc243 2.105 . S
O259 C249 1.268 . S
O260 Sc244 2.105 . S
O260 C251 1.268 . S
O261 Sc242 2.105 . S
O261 C247 1.268 . S
O262 Sc244 2.105 . S
O262 C246 1.268 . S
O263 Sc243 2.105 . S
O263 C248 1.268 . S
Sc264 O267 2.025 . S
Sc264 O274 2.105 . S
Sc264 O277 2.105 . S
Sc264 O280 2.105 . S
Sc264 O283 2.105 . S
Sc265 O267 2.025 . S
Sc265 O275 2.105 . S
Sc265 O279 2.105 . S
Sc265 O281 2.105 . S
Sc265 O285 2.105 . S
Sc266 O267 2.025 . S
Sc266 O276 2.105 . S
Sc266 O278 2.105 . S
Sc266 O282 2.105 . S
Sc266 O284 2.105 . S
O267 Sc264 2.025 . S
O267 Sc265 2.025 . S
O267 Sc266 2.025 . S
C268 O274 1.268 . S
C268 O284 1.268 . S
C269 O275 1.268 . S
C269 O283 1.268 . S
C270 O276 1.268 . S
C270 O285 1.268 . S
C271 O277 1.268 . S
C271 O281 1.268 . S
C272 O278 1.268 . S
C272 O280 1.268 . S
C273 O279 1.268 . S
C273 O282 1.268 . S
O274 Sc264 2.105 . S
O274 C268 1.268 . S
O275 Sc265 2.105 . S
O275 C269 1.268 . S
O276 Sc266 2.105 . S
O276 C270 1.268 . S
O277 Sc264 2.105 . S
O277 C271 1.268 . S
O278 Sc266 2.105 . S
O278 C272 1.268 . S
O279 Sc265 2.105 . S
O279 C273 1.268 . S
O280 Sc264 2.105 . S
O280 C272 1.268 . S
O281 Sc265 2.105 . S
O281 C271 1.268 . S
O282 Sc266 2.105 . S
O282 C273 1.268 . S
O283 Sc264 2.105 . S
O283 C269 1.268 . S
O284 Sc266 2.105 . S
O284 C268 1.268 . S
O285 Sc265 2.105 . S
O285 C270 1.268 . S
Sc286 O289 2.025 . S
Sc286 O296 2.105 . S
Sc286 O299 2.105 . S
Sc286 O302 2.105 . S
Sc286 O305 2.105 . S
Sc287 O289 2.025 . S
Sc287 O297 2.105 . S
Sc287 O301 2.105 . S
Sc287 O303 2.105 . S
Sc287 O307 2.105 . S
Sc288 O289 2.025 . S
Sc288 O298 2.105 . S
Sc288 O300 2.105 . S
Sc288 O304 2.105 . S
Sc288 O306 2.105 . S
O289 Sc286 2.025 . S
O289 Sc287 2.025 . S
O289 Sc288 2.025 . S
C290 O296 1.268 . S
C290 O306 1.268 . S
C291 O297 1.268 . S
C291 O305 1.268 . S
C292 O298 1.268 . S
C292 O307 1.268 . S
C293 O299 1.268 . S
C293 O303 1.268 . S
C294 O300 1.268 . S
C294 O302 1.268 . S
C295 O301 1.268 . S
C295 O304 1.268 . S
O296 Sc286 2.105 . S
O296 C290 1.268 . S
O297 Sc287 2.105 . S
O297 C291 1.268 . S
O298 Sc288 2.105 . S
O298 C292 1.268 . S
O299 Sc286 2.105 . S
O299 C293 1.268 . S
O300 Sc288 2.105 . S
O300 C294 1.268 . S
O301 Sc287 2.105 . S
O301 C295 1.268 . S
O302 Sc286 2.105 . S
O302 C294 1.268 . S
O303 Sc287 2.105 . S
O303 C293 1.268 . S
O304 Sc288 2.105 . S
O304 C295 1.268 . S
O305 Sc286 2.105 . S
O305 C291 1.268 . S
O306 Sc288 2.105 . S
O306 C290 1.268 . S
O307 Sc287 2.105 . S
O307 C292 1.268 . S
Sc308 O311 2.025 . S
Sc308 O318 2.105 . S
Sc308 O321 2.105 . S
Sc308 O324 2.105 . S
Sc308 O327 2.105 . S
Sc309 O311 2.025 . S
Sc309 O319 2.105 . S
Sc309 O323 2.105 . S
Sc309 O325 2.105 . S
Sc309 O329 2.105 . S
Sc310 O311 2.025 . S
Sc310 O320 2.105 . S
Sc310 O322 2.105 . S
Sc310 O326 2.105 . S
Sc310 O328 2.105 . S
O311 Sc308 2.025 . S
O311 Sc309 2.025 . S
O311 Sc310 2.025 . S
C312 O318 1.268 . S
C312 O328 1.268 . S
C313 O319 1.268 . S
C313 O327 1.268 . S
C314 O320 1.268 . S
C314 O329 1.268 . S
C315 O321 1.268 . S
C315 O325 1.268 . S
C316 O322 1.268 . S
C316 O324 1.268 . S
C317 O323 1.268 . S
C317 O326 1.268 . S
O318 Sc308 2.105 . S
O318 C312 1.268 . S
O319 Sc309 2.105 . S
O319 C313 1.268 . S
O320 Sc310 2.105 . S
O320 C314 1.268 . S
O321 Sc308 2.105 . S
O321 C315 1.268 . S
O322 Sc310 2.105 . S
O322 C316 1.268 . S
O323 Sc309 2.105 . S
O323 C317 1.268 . S
O324 Sc308 2.105 . S
O324 C316 1.268 . S
O325 Sc309 2.105 . S
O325 C315 1.268 . S
O326 Sc310 2.105 . S
O326 C317 1.268 . S
O327 Sc308 2.105 . S
O327 C313 1.268 . S
O328 Sc310 2.105 . S
O328 C312 1.268 . S
O329 Sc309 2.105 . S
O329 C314 1.268 . S
Sc330 O333 2.025 . S
Sc330 O340 2.105 . S
Sc330 O343 2.105 . S
Sc330 O346 2.105 . S
Sc330 O349 2.105 . S
Sc331 O333 2.025 . S
Sc331 O341 2.105 . S
Sc331 O345 2.105 . S
Sc331 O347 2.105 . S
Sc331 O351 2.105 . S
Sc332 O333 2.025 . S
Sc332 O342 2.105 . S
Sc332 O344 2.105 . S
Sc332 O348 2.105 . S
Sc332 O350 2.105 . S
O333 Sc330 2.025 . S
O333 Sc331 2.025 . S
O333 Sc332 2.025 . S
C334 O340 1.268 . S
C334 O350 1.268 . S
C335 O341 1.268 . S
C335 O349 1.268 . S
C336 O342 1.268 . S
C336 O351 1.268 . S
C337 O343 1.268 . S
C337 O347 1.268 . S
C338 O344 1.268 . S
C338 O346 1.268 . S
C339 O345 1.268 . S
C339 O348 1.268 . S
O340 Sc330 2.105 . S
O340 C334 1.268 . S
O341 Sc331 2.105 . S
O341 C335 1.268 . S
O342 Sc332 2.105 . S
O342 C336 1.268 . S
O343 Sc330 2.105 . S
O343 C337 1.268 . S
O344 Sc332 2.105 . S
O344 C338 1.268 . S
O345 Sc331 2.105 . S
O345 C339 1.268 . S
O346 Sc330 2.105 . S
O346 C338 1.268 . S
O347 Sc331 2.105 . S
O347 C337 1.268 . S
O348 Sc332 2.105 . S
O348 C339 1.268 . S
O349 Sc330 2.105 . S
O349 C335 1.268 . S
O350 Sc332 2.105 . S
O350 C334 1.268 . S
O351 Sc331 2.105 . S
O351 C336 1.268 . S
Sc352 O355 2.025 . S
Sc352 O362 2.105 . S
Sc352 O365 2.105 . S
Sc352 O368 2.105 . S
Sc352 O371 2.105 . S
Sc353 O355 2.025 . S
Sc353 O363 2.105 . S
Sc353 O367 2.105 . S
Sc353 O369 2.105 . S
Sc353 O373 2.105 . S
Sc354 O355 2.025 . S
Sc354 O364 2.105 . S
Sc354 O366 2.105 . S
Sc354 O370 2.105 . S
Sc354 O372 2.105 . S
O355 Sc352 2.025 . S
O355 Sc353 2.025 . S
O355 Sc354 2.025 . S
C356 O362 1.268 . S
C356 O372 1.268 . S
C357 O363 1.268 . S
C357 O371 1.268 . S
C358 O364 1.268 . S
C358 O373 1.268 . S
C359 O365 1.268 . S
C359 O369 1.268 . S
C360 O366 1.268 . S
C360 O368 1.268 . S
C361 O367 1.268 . S
C361 O370 1.268 . S
O362 Sc352 2.105 . S
O362 C356 1.268 . S
O363 Sc353 2.105 . S
O363 C357 1.268 . S
O364 Sc354 2.105 . S
O364 C358 1.268 . S
O365 Sc352 2.105 . S
O365 C359 1.268 . S
O366 Sc354 2.105 . S
O366 C360 1.268 . S
O367 Sc353 2.105 . S
O367 C361 1.268 . S
O368 Sc352 2.105 . S
O368 C360 1.268 . S
O369 Sc353 2.105 . S
O369 C359 1.268 . S
O370 Sc354 2.105 . S
O370 C361 1.268 . S
O371 Sc352 2.105 . S
O371 C357 1.268 . S
O372 Sc354 2.105 . S
O372 C356 1.268 . S
O373 Sc353 2.105 . S
O373 C358 1.268 . S
Sc374 O377 2.025 . S
Sc374 O384 2.105 . S
Sc374 O387 2.105 . S
Sc374 O390 2.105 . S
Sc374 O393 2.105 . S
Sc375 O377 2.025 . S
Sc375 O385 2.105 . S
Sc375 O389 2.105 . S
Sc375 O391 2.105 . S
Sc375 O395 2.105 . S
Sc376 O377 2.025 . S
Sc376 O386 2.105 . S
Sc376 O388 2.105 . S
Sc376 O392 2.105 . S
Sc376 O394 2.105 . S
O377 Sc374 2.025 . S
O377 Sc375 2.025 . S
O377 Sc376 2.025 . S
C378 O384 1.268 . S
C378 O394 1.268 . S
C379 O385 1.268 . S
C379 O393 1.268 . S
C380 O386 1.268 . S
C380 O395 1.268 . S
C381 O387 1.268 . S
C381 O391 1.268 . S
C382 O388 1.268 . S
C382 O390 1.268 . S
C383 O389 1.268 . S
C383 O392 1.268 . S
O384 Sc374 2.105 . S
O384 C378 1.268 . S
O385 Sc375 2.105 . S
O385 C379 1.268 . S
O386 Sc376 2.105 . S
O386 C380 1.268 . S
O387 Sc374 2.105 . S
O387 C381 1.268 . S
O388 Sc376 2.105 . S
O388 C382 1.268 . S
O389 Sc375 2.105 . S
O389 C383 1.268 . S
O390 Sc374 2.105 . S
O390 C382 1.268 . S
O391 Sc375 2.105 . S
O391 C381 1.268 . S
O392 Sc376 2.105 . S
O392 C383 1.268 . S
O393 Sc374 2.105 . S
O393 C379 1.268 . S
O394 Sc376 2.105 . S
O394 C378 1.268 . S
O395 Sc375 2.105 . S
O395 C380 1.268 . S
Sc396 O399 2.025 . S
Sc396 O406 2.105 . S
Sc396 O409 2.105 . S
Sc396 O412 2.105 . S
Sc396 O415 2.105 . S
Sc397 O399 2.025 . S
Sc397 O407 2.105 . S
Sc397 O411 2.105 . S
Sc397 O413 2.105 . S
Sc397 O417 2.105 . S
Sc398 O399 2.025 . S
Sc398 O408 2.105 . S
Sc398 O410 2.105 . S
Sc398 O414 2.105 . S
Sc398 O416 2.105 . S
O399 Sc396 2.025 . S
O399 Sc397 2.025 . S
O399 Sc398 2.025 . S
C400 O406 1.268 . S
C400 O416 1.268 . S
C401 O407 1.268 . S
C401 O415 1.268 . S
C402 O408 1.268 . S
C402 O417 1.268 . S
C403 O409 1.268 . S
C403 O413 1.268 . S
C404 O410 1.268 . S
C404 O412 1.268 . S
C405 O411 1.268 . S
C405 O414 1.268 . S
O406 Sc396 2.105 . S
O406 C400 1.268 . S
O407 Sc397 2.105 . S
O407 C401 1.268 . S
O408 Sc398 2.105 . S
O408 C402 1.268 . S
O409 Sc396 2.105 . S
O409 C403 1.268 . S
O410 Sc398 2.105 . S
O410 C404 1.268 . S
O411 Sc397 2.105 . S
O411 C405 1.268 . S
O412 Sc396 2.105 . S
O412 C404 1.268 . S
O413 Sc397 2.105 . S
O413 C403 1.268 . S
O414 Sc398 2.105 . S
O414 C405 1.268 . S
O415 Sc396 2.105 . S
O415 C401 1.268 . S
O416 Sc398 2.105 . S
O416 C400 1.268 . S
O417 Sc397 2.105 . S
O417 C402 1.268 . S
Sc418 O421 2.025 . S
Sc418 O428 2.105 . S
Sc418 O431 2.105 . S
Sc418 O434 2.105 . S
Sc418 O437 2.105 . S
Sc419 O421 2.025 . S
Sc419 O429 2.105 . S
Sc419 O433 2.105 . S
Sc419 O435 2.105 . S
Sc419 O439 2.105 . S
Sc420 O421 2.025 . S
Sc420 O430 2.105 . S
Sc420 O432 2.105 . S
Sc420 O436 2.105 . S
Sc420 O438 2.105 . S
O421 Sc418 2.025 . S
O421 Sc419 2.025 . S
O421 Sc420 2.025 . S
C422 O428 1.268 . S
C422 O438 1.268 . S
C423 O429 1.268 . S
C423 O437 1.268 . S
C424 O430 1.268 . S
C424 O439 1.268 . S
C425 O431 1.268 . S
C425 O435 1.268 . S
C426 O432 1.268 . S
C426 O434 1.268 . S
C427 O433 1.268 . S
C427 O436 1.268 . S
O428 Sc418 2.105 . S
O428 C422 1.268 . S
O429 Sc419 2.105 . S
O429 C423 1.268 . S
O430 Sc420 2.105 . S
O430 C424 1.268 . S
O431 Sc418 2.105 . S
O431 C425 1.268 . S
O432 Sc420 2.105 . S
O432 C426 1.268 . S
O433 Sc419 2.105 . S
O433 C427 1.268 . S
O434 Sc418 2.105 . S
O434 C426 1.268 . S
O435 Sc419 2.105 . S
O435 C425 1.268 . S
O436 Sc420 2.105 . S
O436 C427 1.268 . S
O437 Sc418 2.105 . S
O437 C423 1.268 . S
O438 Sc420 2.105 . S
O438 C422 1.268 . S
O439 Sc419 2.105 . S
O439 C424 1.268 . S
Sc440 O443 2.025 . S
Sc440 O450 2.105 . S
Sc440 O453 2.105 . S
Sc440 O456 2.105 . S
Sc440 O459 2.105 . S
Sc441 O443 2.025 . S
Sc441 O451 2.105 . S
Sc441 O455 2.105 . S
Sc441 O457 2.105 . S
Sc441 O461 2.105 . S
Sc442 O443 2.025 . S
Sc442 O452 2.105 . S
Sc442 O454 2.105 . S
Sc442 O458 2.105 . S
Sc442 O460 2.105 . S
O443 Sc440 2.025 . S
O443 Sc441 2.025 . S
O443 Sc442 2.025 . S
C444 O450 1.268 . S
C444 O460 1.268 . S
C445 O451 1.268 . S
C445 O459 1.268 . S
C446 O452 1.268 . S
C446 O461 1.268 . S
C447 O453 1.268 . S
C447 O457 1.268 . S
C448 O454 1.268 . S
C448 O456 1.268 . S
C449 O455 1.268 . S
C449 O458 1.268 . S
O450 Sc440 2.105 . S
O450 C444 1.268 . S
O451 Sc441 2.105 . S
O451 C445 1.268 . S
O452 Sc442 2.105 . S
O452 C446 1.268 . S
O453 Sc440 2.105 . S
O453 C447 1.268 . S
O454 Sc442 2.105 . S
O454 C448 1.268 . S
O455 Sc441 2.105 . S
O455 C449 1.268 . S
O456 Sc440 2.105 . S
O456 C448 1.268 . S
O457 Sc441 2.105 . S
O457 C447 1.268 . S
O458 Sc442 2.105 . S
O458 C449 1.268 . S
O459 Sc440 2.105 . S
O459 C445 1.268 . S
O460 Sc442 2.105 . S
O460 C444 1.268 . S
O461 Sc441 2.105 . S
O461 C446 1.268 . S
Sc462 O465 2.025 . S
Sc462 O472 2.105 . S
Sc462 O475 2.105 . S
Sc462 O478 2.105 . S
Sc462 O481 2.105 . S
Sc463 O465 2.025 . S
Sc463 O473 2.105 . S
Sc463 O477 2.105 . S
Sc463 O479 2.105 . S
Sc463 O483 2.105 . S
Sc464 O465 2.025 . S
Sc464 O474 2.105 . S
Sc464 O476 2.105 . S
Sc464 O480 2.105 . S
Sc464 O482 2.105 . S
O465 Sc462 2.025 . S
O465 Sc463 2.025 . S
O465 Sc464 2.025 . S
C466 O472 1.268 . S
C466 O482 1.268 . S
C467 O473 1.268 . S
C467 O481 1.268 . S
C468 O474 1.268 . S
C468 O483 1.268 . S
C469 O475 1.268 . S
C469 O479 1.268 . S
C470 O476 1.268 . S
C470 O478 1.268 . S
C471 O477 1.268 . S
C471 O480 1.268 . S
O472 Sc462 2.105 . S
O472 C466 1.268 . S
O473 Sc463 2.105 . S
O473 C467 1.268 . S
O474 Sc464 2.105 . S
O474 C468 1.268 . S
O475 Sc462 2.105 . S
O475 C469 1.268 . S
O476 Sc464 2.105 . S
O476 C470 1.268 . S
O477 Sc463 2.105 . S
O477 C471 1.268 . S
O478 Sc462 2.105 . S
O478 C470 1.268 . S
O479 Sc463 2.105 . S
O479 C469 1.268 . S
O480 Sc464 2.105 . S
O480 C471 1.268 . S
O481 Sc462 2.105 . S
O481 C467 1.268 . S
O482 Sc464 2.105 . S
O482 C466 1.268 . S
O483 Sc463 2.105 . S
O483 C468 1.268 . S
Sc484 O487 2.025 . S
Sc484 O494 2.105 . S
Sc484 O497 2.105 . S
Sc484 O500 2.105 . S
Sc484 O503 2.105 . S
Sc485 O487 2.025 . S
Sc485 O495 2.105 . S
Sc485 O499 2.105 . S
Sc485 O501 2.105 . S
Sc485 O505 2.105 . S
Sc486 O487 2.025 . S
Sc486 O496 2.105 . S
Sc486 O498 2.105 . S
Sc486 O502 2.105 . S
Sc486 O504 2.105 . S
O487 Sc484 2.025 . S
O487 Sc485 2.025 . S
O487 Sc486 2.025 . S
C488 O494 1.268 . S
C488 O504 1.268 . S
C489 O495 1.268 . S
C489 O503 1.268 . S
C490 O496 1.268 . S
C490 O505 1.268 . S
C491 O497 1.268 . S
C491 O501 1.268 . S
C492 O498 1.268 . S
C492 O500 1.268 . S
C493 O499 1.268 . S
C493 O502 1.268 . S
O494 Sc484 2.105 . S
O494 C488 1.268 . S
O495 Sc485 2.105 . S
O495 C489 1.268 . S
O496 Sc486 2.105 . S
O496 C490 1.268 . S
O497 Sc484 2.105 . S
O497 C491 1.268 . S
O498 Sc486 2.105 . S
O498 C492 1.268 . S
O499 Sc485 2.105 . S
O499 C493 1.268 . S
O500 Sc484 2.105 . S
O500 C492 1.268 . S
O501 Sc485 2.105 . S
O501 C491 1.268 . S
O502 Sc486 2.105 . S
O502 C493 1.268 . S
O503 Sc484 2.105 . S
O503 C489 1.268 . S
O504 Sc486 2.105 . S
O504 C488 1.268 . S
O505 Sc485 2.105 . S
O505 C490 1.268 . S
Sc506 O509 2.025 . S
Sc506 O516 2.105 . S
Sc506 O519 2.105 . S
Sc506 O522 2.105 . S
Sc506 O525 2.105 . S
Sc507 O509 2.025 . S
Sc507 O517 2.105 . S
Sc507 O521 2.105 . S
Sc507 O523 2.105 . S
Sc507 O527 2.105 . S
Sc508 O509 2.025 . S
Sc508 O518 2.105 . S
Sc508 O520 2.105 . S
Sc508 O524 2.105 . S
Sc508 O526 2.105 . S
O509 Sc506 2.025 . S
O509 Sc507 2.025 . S
O509 Sc508 2.025 . S
C510 O516 1.268 . S
C510 O526 1.268 . S
C511 O517 1.268 . S
C511 O525 1.268 . S
C512 O518 1.268 . S
C512 O527 1.268 . S
C513 O519 1.268 . S
C513 O523 1.268 . S
C514 O520 1.268 . S
C514 O522 1.268 . S
C515 O521 1.268 . S
C515 O524 1.268 . S
O516 Sc506 2.105 . S
O516 C510 1.268 . S
O517 Sc507 2.105 . S
O517 C511 1.268 . S
O518 Sc508 2.105 . S
O518 C512 1.268 . S
O519 Sc506 2.105 . S
O519 C513 1.268 . S
O520 Sc508 2.105 . S
O520 C514 1.268 . S
O521 Sc507 2.105 . S
O521 C515 1.268 . S
O522 Sc506 2.105 . S
O522 C514 1.268 . S
O523 Sc507 2.105 . S
O523 C513 1.268 . S
O524 Sc508 2.105 . S
O524 C515 1.268 . S
O525 Sc506 2.105 . S
O525 C511 1.268 . S
O526 Sc508 2.105 . S
O526 C510 1.268 . S
O527 Sc507 2.105 . S
O527 C512 1.268 . S
C528 C529 1.349 . S
C528 C530 1.327 . S
C528 H553 0.950 . S
C529 C528 1.349 . S
C529 C545 1.349 . S
C530 C528 1.327 . S
C530 C549 1.429 . S
C530 H554 0.950 . S
C531 C548 1.574 . S
C531 C550 1.368 . S
C531 H555 0.949 . S
H532 C536 0.949 . S
C533 C534 1.349 . S
C533 C535 1.327 . S
C533 H556 0.950 . S
C534 C533 1.349 . S
C534 C546 1.349 . S
C535 C533 1.327 . S
C535 C551 1.429 . S
C535 H557 0.950 . S
C536 H532 0.949 . S
C536 C544 1.574 . S
C536 C552 1.368 . S
H537 C545 0.950 . S
H538 C543 0.950 . S
H539 C544 0.949 . S
H540 C546 0.950 . S
H541 C547 0.950 . S
H542 C548 0.949 . S
C543 H538 0.950 . S
C543 C545 1.327 . S
C543 C549 1.429 . S
C544 C536 1.574 . S
C544 H539 0.949 . S
C544 C550 1.368 1_554 S
C545 C529 1.349 . S
C545 H537 0.950 . S
C545 C543 1.327 . S
C546 C534 1.349 . S
C546 H540 0.950 . S
C546 C547 1.327 . S
C547 H541 0.950 . S
C547 C546 1.327 . S
C547 C551 1.429 . S
C548 C531 1.574 . S
C548 H542 0.949 . S
C548 C552 1.368 1_556 S
C549 C530 1.429 . S
C549 C543 1.429 . S
C549 C550 1.523 . S
C550 C531 1.368 . S
C550 C544 1.368 1_556 S
C550 C549 1.523 . S
C551 C535 1.429 . S
C551 C547 1.429 . S
C551 C552 1.523 . S
C552 C536 1.368 . S
C552 C548 1.368 1_554 S
C552 C551 1.523 . S
H553 C528 0.950 . S
H554 C530 0.950 . S
H555 C531 0.949 . S
H556 C533 0.950 . S
H557 C535 0.950 . S
C558 C559 1.349 . S
C558 C560 1.327 . S
C558 H583 0.950 . S
C559 C558 1.349 . S
C559 C575 1.349 . S
C560 C558 1.327 . S
C560 C579 1.429 . S
C560 H584 0.950 . S
C561 C578 1.574 . S
C561 C580 1.368 . S
C561 H585 0.949 . S
H562 C566 0.949 . S
C563 C564 1.349 . S
C563 C565 1.327 . S
C563 H586 0.950 . S
C564 C563 1.349 . S
C564 C576 1.349 . S
C565 C563 1.327 . S
C565 C581 1.429 . S
C565 H587 0.950 . S
C566 H562 0.949 . S
C566 C574 1.574 . S
C566 C582 1.368 . S
H567 C575 0.950 . S
H568 C573 0.950 . S
H569 C574 0.949 . S
H570 C576 0.950 . S
H571 C577 0.950 . S
H572 C578 0.949 . S
C573 H568 0.950 . S
C573 C575 1.327 . S
C573 C579 1.429 . S
C574 C566 1.574 . S
C574 H569 0.949 . S
C574 C580 1.368 . S
C575 C559 1.349 . S
C575 H567 0.950 . S
C575 C573 1.327 . S
C576 C564 1.349 . S
C576 H570 0.950 . S
C576 C577 1.327 . S
C577 H571 0.950 . S
C577 C576 1.327 . S
C577 C581 1.429 . S
C578 C561 1.574 . S
C578 H572 0.949 . S
C578 C582 1.368 . S
C579 C560 1.429 . S
C579 C573 1.429 . S
C579 C580 1.523 . S
C580 C561 1.368 . S
C580 C574 1.368 . S
C580 C579 1.523 . S
C581 C565 1.429 . S
C581 C577 1.429 . S
C581 C582 1.523 . S
C582 C566 1.368 . S
C582 C578 1.368 . S
C582 C581 1.523 . S
H583 C558 0.950 . S
H584 C560 0.950 . S
H585 C561 0.949 . S
H586 C563 0.950 . S
H587 C565 0.950 . S
C588 C589 1.349 . S
C588 C590 1.327 . S
C588 H613 0.950 . S
C589 C588 1.349 . S
C589 C605 1.349 . S
C590 C588 1.327 . S
C590 C609 1.429 . S
C590 H614 0.950 . S
C591 C608 1.574 1_556 S
C591 C610 1.368 . S
C591 H615 0.949 . S
H592 C596 0.949 . S
C593 C594 1.349 . S
C593 C595 1.327 . S
C593 H616 0.950 . S
C594 C593 1.349 . S
C594 C606 1.349 . S
C595 C593 1.327 . S
C595 C611 1.429 . S
C595 H617 0.950 . S
C596 H592 0.949 . S
C596 C604 1.574 1_554 S
C596 C612 1.368 . S
H597 C605 0.950 . S
H598 C603 0.950 . S
H599 C604 0.949 . S
H600 C606 0.950 . S
H601 C607 0.950 . S
H602 C608 0.949 . S
C603 H598 0.950 . S
C603 C605 1.327 . S
C603 C609 1.429 . S
C604 C596 1.574 1_556 S
C604 H599 0.949 . S
C604 C610 1.368 . S
C605 C589 1.349 . S
C605 H597 0.950 . S
C605 C603 1.327 . S
C606 C594 1.349 . S
C606 H600 0.950 . S
C606 C607 1.327 . S
C607 H601 0.950 . S
C607 C606 1.327 . S
C607 C611 1.429 . S
C608 C591 1.574 1_554 S
C608 H602 0.949 . S
C608 C612 1.368 . S
C609 C590 1.429 . S
C609 C603 1.429 . S
C609 C610 1.523 . S
C610 C591 1.368 . S
C610 C604 1.368 . S
C610 C609 1.523 . S
C611 C595 1.429 . S
C611 C607 1.429 . S
C611 C612 1.523 . S
C612 C596 1.368 . S
C612 C608 1.368 . S
C612 C611 1.523 . S
H613 C588 0.950 . S
H614 C590 0.950 . S
H615 C591 0.949 . S
H616 C593 0.950 . S
H617 C595 0.950 . S
C618 C619 1.349 . S
C618 C620 1.327 . S
C618 H643 0.950 . S
C619 C618 1.349 . S
C619 C635 1.349 . S
C620 C618 1.327 . S
C620 C639 1.429 . S
C620 H644 0.950 . S
C621 C638 1.574 . S
C621 C640 1.368 . S
C621 H645 0.949 . S
H622 C626 0.949 . S
C623 C624 1.349 . S
C623 C625 1.327 . S
C623 H646 0.950 . S
C624 C623 1.349 . S
C624 C636 1.349 . S
C625 C623 1.327 . S
C625 C641 1.429 . S
C625 H647 0.950 . S
C626 H622 0.949 . S
C626 C634 1.574 . S
C626 C642 1.368 . S
H627 C635 0.950 . S
H628 C633 0.950 . S
H629 C634 0.949 . S
H630 C636 0.950 . S
H631 C637 0.950 . S
H632 C638 0.949 . S
C633 H628 0.950 . S
C633 C635 1.327 . S
C633 C639 1.429 . S
C634 C626 1.574 . S
C634 H629 0.949 . S
C634 C640 1.368 . S
C635 C619 1.349 . S
C635 H627 0.950 . S
C635 C633 1.327 . S
C636 C624 1.349 . S
C636 H630 0.950 . S
C636 C637 1.327 . S
C637 H631 0.950 . S
C637 C636 1.327 . S
C637 C641 1.429 . S
C638 C621 1.574 . S
C638 H632 0.949 . S
C638 C642 1.368 . S
C639 C620 1.429 . S
C639 C633 1.429 . S
C639 C640 1.523 . S
C640 C621 1.368 . S
C640 C634 1.368 . S
C640 C639 1.523 . S
C641 C625 1.429 . S
C641 C637 1.429 . S
C641 C642 1.523 . S
C642 C626 1.368 . S
C642 C638 1.368 . S
C642 C641 1.523 . S
H643 C618 0.950 . S
H644 C620 0.950 . S
H645 C621 0.949 . S
H646 C623 0.950 . S
H647 C625 0.950 . S
C648 C649 1.349 . S
C648 C650 1.327 . S
C648 H673 0.950 . S
C649 C648 1.349 . S
C649 C665 1.349 . S
C650 C648 1.327 . S
C650 C669 1.429 . S
C650 H674 0.950 . S
C651 C668 1.574 1_556 S
C651 C670 1.368 . S
C651 H675 0.949 . S
H652 C656 0.949 . S
C653 C654 1.349 . S
C653 C655 1.327 . S
C653 H676 0.950 . S
C654 C653 1.349 . S
C654 C666 1.349 . S
C655 C653 1.327 . S
C655 C671 1.429 . S
C655 H677 0.950 . S
C656 H652 0.949 . S
C656 C664 1.574 1_554 S
C656 C672 1.368 . S
H657 C665 0.950 . S
H658 C663 0.950 . S
H659 C664 0.949 . S
H660 C666 0.950 . S
H661 C667 0.950 . S
H662 C668 0.949 . S
C663 H658 0.950 . S
C663 C665 1.327 . S
C663 C669 1.429 . S
C664 C656 1.574 1_556 S
C664 H659 0.949 . S
C664 C670 1.368 . S
C665 C649 1.349 . S
C665 H657 0.950 . S
C665 C663 1.327 . S
C666 C654 1.349 . S
C666 H660 0.950 . S
C666 C667 1.327 . S
C667 H661 0.950 . S
C667 C666 1.327 . S
C667 C671 1.429 . S
C668 C651 1.574 1_554 S
C668 H662 0.949 . S
C668 C672 1.368 . S
C669 C650 1.429 . S
C669 C663 1.429 . S
C669 C670 1.523 . S
C670 C651 1.368 . S
C670 C664 1.368 . S
C670 C669 1.523 . S
C671 C655 1.429 . S
C671 C667 1.429 . S
C671 C672 1.523 . S
C672 C656 1.368 . S
C672 C668 1.368 . S
C672 C671 1.523 . S
H673 C648 0.950 . S
H674 C650 0.950 . S
H675 C651 0.949 . S
H676 C653 0.950 . S
H677 C655 0.950 . S
C678 C679 1.349 . S
C678 C680 1.327 . S
C678 H703 0.950 . S
C679 C678 1.349 . S
C679 C695 1.349 . S
C680 C678 1.327 . S
C680 C699 1.429 . S
C680 H704 0.950 . S
C681 C698 1.574 . S
C681 C700 1.368 . S
C681 H705 0.949 . S
H682 C686 0.949 . S
C683 C684 1.349 . S
C683 C685 1.327 . S
C683 H706 0.950 . S
C684 C683 1.349 . S
C684 C696 1.349 . S
C685 C683 1.327 . S
C685 C701 1.429 . S
C685 H707 0.950 . S
C686 H682 0.949 . S
C686 C694 1.574 . S
C686 C702 1.368 . S
H687 C695 0.950 . S
H688 C693 0.950 . S
H689 C694 0.949 . S
H690 C696 0.950 . S
H691 C697 0.950 . S
H692 C698 0.949 . S
C693 H688 0.950 . S
C693 C695 1.327 . S
C693 C699 1.429 . S
C694 C686 1.574 . S
C694 H689 0.949 . S
C694 C700 1.368 . S
C695 C679 1.349 . S
C695 H687 0.950 . S
C695 C693 1.327 . S
C696 C684 1.349 . S
C696 H690 0.950 . S
C696 C697 1.327 . S
C697 H691 0.950 . S
C697 C696 1.327 . S
C697 C701 1.429 . S
C698 C681 1.574 . S
C698 H692 0.949 . S
C698 C702 1.368 . S
C699 C680 1.429 . S
C699 C693 1.429 . S
C699 C700 1.523 . S
C700 C681 1.368 . S
C700 C694 1.368 . S
C700 C699 1.523 . S
C701 C685 1.429 . S
C701 C697 1.429 . S
C701 C702 1.523 . S
C702 C686 1.368 . S
C702 C698 1.368 . S
C702 C701 1.523 . S
H703 C678 0.950 . S
H704 C680 0.950 . S
H705 C681 0.949 . S
H706 C683 0.950 . S
H707 C685 0.950 . S
C708 C709 1.349 . S
C708 C710 1.327 . S
C708 H733 0.950 . S
C709 C708 1.349 . S
C709 C725 1.349 . S
C710 C708 1.327 . S
C710 C729 1.429 . S
C710 H734 0.950 . S
C711 C728 1.574 . S
C711 C730 1.368 1_554 S
C711 H735 0.949 . S
H712 C716 0.949 . S
C713 C714 1.349 . S
C713 C715 1.327 . S
C713 H736 0.950 . S
C714 C713 1.349 . S
C714 C726 1.349 . S
C715 C713 1.327 . S
C715 C731 1.429 . S
C715 H737 0.950 . S
C716 H712 0.949 . S
C716 C724 1.574 . S
C716 C732 1.368 1_556 S
H717 C725 0.950 . S
H718 C723 0.950 . S
H719 C724 0.949 . S
H720 C726 0.950 . S
H721 C727 0.950 . S
H722 C728 0.949 . S
C723 H718 0.950 . S
C723 C725 1.327 . S
C723 C729 1.429 . S
C724 C716 1.574 . S
C724 H719 0.949 . S
C724 C730 1.368 . S
C725 C709 1.349 . S
C725 H717 0.950 . S
C725 C723 1.327 . S
C726 C714 1.349 . S
C726 H720 0.950 . S
C726 C727 1.327 . S
C727 H721 0.950 . S
C727 C726 1.327 . S
C727 C731 1.429 . S
C728 C711 1.574 . S
C728 H722 0.949 . S
C728 C732 1.368 . S
C729 C710 1.429 . S
C729 C723 1.429 . S
C729 C730 1.523 . S
C730 C711 1.368 1_556 S
C730 C724 1.368 . S
C730 C729 1.523 . S
C731 C715 1.429 . S
C731 C727 1.429 . S
C731 C732 1.523 . S
C732 C716 1.368 1_554 S
C732 C728 1.368 . S
C732 C731 1.523 . S
H733 C708 0.950 . S
H734 C710 0.950 . S
H735 C711 0.949 . S
H736 C713 0.950 . S
H737 C715 0.950 . S
C738 C739 1.349 . S
C738 C740 1.327 . S
C738 H763 0.950 . S
C739 C738 1.349 . S
C739 C755 1.349 . S
C740 C738 1.327 . S
C740 C759 1.429 . S
C740 H764 0.950 . S
C741 C758 1.574 . S
C741 C760 1.368 . S
C741 H765 0.949 . S
H742 C746 0.949 . S
C743 C744 1.349 . S
C743 C745 1.327 . S
C743 H766 0.950 . S
C744 C743 1.349 . S
C744 C756 1.349 . S
C745 C743 1.327 . S
C745 C761 1.429 . S
C745 H767 0.950 . S
C746 H742 0.949 . S
C746 C754 1.574 . S
C746 C762 1.368 . S
H747 C755 0.950 . S
H748 C753 0.950 . S
H749 C754 0.949 . S
H750 C756 0.950 . S
H751 C757 0.950 . S
H752 C758 0.949 . S
C753 H748 0.950 . S
C753 C755 1.327 . S
C753 C759 1.429 . S
C754 C746 1.574 . S
C754 H749 0.949 . S
C754 C760 1.368 . S
C755 C739 1.349 . S
C755 H747 0.950 . S
C755 C753 1.327 . S
C756 C744 1.349 . S
C756 H750 0.950 . S
C756 C757 1.327 . S
C757 H751 0.950 . S
C757 C756 1.327 . S
C757 C761 1.429 . S
C758 C741 1.574 . S
C758 H752 0.949 . S
C758 C762 1.368 . S
C759 C740 1.429 . S
C759 C753 1.429 . S
C759 C760 1.523 . S
C760 C741 1.368 . S
C760 C754 1.368 . S
C760 C759 1.523 . S
C761 C745 1.429 . S
C761 C757 1.429 . S
C761 C762 1.523 . S
C762 C746 1.368 . S
C762 C758 1.368 . S
C762 C761 1.523 . S
H763 C738 0.950 . S
H764 C740 0.950 . S
H765 C741 0.949 . S
H766 C743 0.950 . S
H767 C745 0.950 . S
C768 C769 1.349 . S
C768 C770 1.327 . S
C768 H793 0.950 . S
C769 C768 1.349 . S
C769 C785 1.349 . S
C770 C768 1.327 . S
C770 C789 1.429 . S
C770 H794 0.950 . S
C771 C788 1.574 1_554 S
C771 C790 1.368 . S
C771 H795 0.949 . S
H772 C776 0.949 . S
C773 C774 1.349 . S
C773 C775 1.327 . S
C773 H796 0.950 . S
C774 C773 1.349 . S
C774 C786 1.349 . S
C775 C773 1.327 . S
C775 C791 1.429 . S
C775 H797 0.950 . S
C776 H772 0.949 . S
C776 C784 1.574 1_556 S
C776 C792 1.368 . S
H777 C785 0.950 . S
H778 C783 0.950 . S
H779 C784 0.949 . S
H780 C786 0.950 . S
H781 C787 0.950 . S
H782 C788 0.949 . S
C783 H778 0.950 . S
C783 C785 1.327 . S
C783 C789 1.429 . S
C784 C776 1.574 1_554 S
C784 H779 0.949 . S
C784 C790 1.368 . S
C785 C769 1.349 . S
C785 H777 0.950 . S
C785 C783 1.327 . S
C786 C774 1.349 . S
C786 H780 0.950 . S
C786 C787 1.327 . S
C787 H781 0.950 . S
C787 C786 1.327 . S
C787 C791 1.429 . S
C788 C771 1.574 1_556 S
C788 H782 0.949 . S
C788 C792 1.368 . S
C789 C770 1.429 . S
C789 C783 1.429 . S
C789 C790 1.523 . S
C790 C771 1.368 . S
C790 C784 1.368 . S
C790 C789 1.523 . S
C791 C775 1.429 . S
C791 C787 1.429 . S
C791 C792 1.523 . S
C792 C776 1.368 . S
C792 C788 1.368 . S
C792 C791 1.523 . S
H793 C768 0.950 . S
H794 C770 0.950 . S
H795 C771 0.949 . S
H796 C773 0.950 . S
H797 C775 0.950 . S
C798 C799 1.349 . S
C798 C800 1.327 . S
C798 H823 0.950 . S
C799 C798 1.349 . S
C799 C815 1.349 . S
C800 C798 1.327 . S
C800 C819 1.429 . S
C800 H824 0.950 . S
C801 C818 1.574 . S
C801 C820 1.368 . S
C801 H825 0.949 . S
H802 C806 0.949 . S
C803 C804 1.349 . S
C803 C805 1.327 . S
C803 H826 0.950 . S
C804 C803 1.349 . S
C804 C816 1.349 . S
C805 C803 1.327 . S
C805 C821 1.429 . S
C805 H827 0.950 . S
C806 H802 0.949 . S
C806 C814 1.574 . S
C806 C822 1.368 . S
H807 C815 0.950 . S
H808 C813 0.950 . S
H809 C814 0.949 . S
H810 C816 0.950 . S
H811 C817 0.950 . S
H812 C818 0.949 . S
C813 H808 0.950 . S
C813 C815 1.327 . S
C813 C819 1.429 . S
C814 C806 1.574 . S
C814 H809 0.949 . S
C814 C820 1.368 . S
C815 C799 1.349 . S
C815 H807 0.950 . S
C815 C813 1.327 . S
C816 C804 1.349 . S
C816 H810 0.950 . S
C816 C817 1.327 . S
C817 H811 0.950 . S
C817 C816 1.327 . S
C817 C821 1.429 . S
C818 C801 1.574 . S
C818 H812 0.949 . S
C818 C822 1.368 . S
C819 C800 1.429 . S
C819 C813 1.429 . S
C819 C820 1.523 . S
C820 C801 1.368 . S
C820 C814 1.368 . S
C820 C819 1.523 . S
C821 C805 1.429 . S
C821 C817 1.429 . S
C821 C822 1.523 . S
C822 C806 1.368 . S
C822 C818 1.368 . S
C822 C821 1.523 . S
H823 C798 0.950 . S
H824 C800 0.950 . S
H825 C801 0.949 . S
H826 C803 0.950 . S
H827 C805 0.950 . S
C828 C829 1.349 . S
C828 C830 1.327 . S
C828 H853 0.950 . S
C829 C828 1.349 . S
C829 C845 1.349 . S
C830 C828 1.327 . S
C830 C849 1.429 . S
C830 H854 0.950 . S
C831 C848 1.574 1_556 S
C831 C850 1.368 . S
C831 H855 0.949 . S
H832 C836 0.949 . S
C833 C834 1.349 . S
C833 C835 1.327 . S
C833 H856 0.950 . S
C834 C833 1.349 . S
C834 C846 1.349 . S
C835 C833 1.327 . S
C835 C851 1.429 . S
C835 H857 0.950 . S
C836 H832 0.949 . S
C836 C844 1.574 1_554 S
C836 C852 1.368 . S
H837 C845 0.950 . S
H838 C843 0.950 . S
H839 C844 0.949 . S
H840 C846 0.950 . S
H841 C847 0.950 . S
H842 C848 0.949 . S
C843 H838 0.950 . S
C843 C845 1.327 . S
C843 C849 1.429 . S
C844 C836 1.574 1_556 S
C844 H839 0.949 . S
C844 C850 1.368 . S
C845 C829 1.349 . S
C845 H837 0.950 . S
C845 C843 1.327 . S
C846 C834 1.349 . S
C846 H840 0.950 . S
C846 C847 1.327 . S
C847 H841 0.950 . S
C847 C846 1.327 . S
C847 C851 1.429 . S
C848 C831 1.574 1_554 S
C848 H842 0.949 . S
C848 C852 1.368 . S
C849 C830 1.429 . S
C849 C843 1.429 . S
C849 C850 1.523 . S
C850 C831 1.368 . S
C850 C844 1.368 . S
C850 C849 1.523 . S
C851 C835 1.429 . S
C851 C847 1.429 . S
C851 C852 1.523 . S
C852 C836 1.368 . S
C852 C848 1.368 . S
C852 C851 1.523 . S
H853 C828 0.950 . S
H854 C830 0.950 . S
H855 C831 0.949 . S
H856 C833 0.950 . S
H857 C835 0.950 . S
C858 C859 1.349 . S
C858 C860 1.327 . S
C858 H883 0.950 . S
C859 C858 1.349 . S
C859 C875 1.349 . S
C860 C858 1.327 . S
C860 C879 1.429 . S
C860 H884 0.950 . S
C861 C878 1.574 . S
C861 C880 1.368 . S
C861 H885 0.949 . S
H862 C866 0.949 . S
C863 C864 1.349 . S
C863 C865 1.327 . S
C863 H886 0.950 . S
C864 C863 1.349 . S
C864 C876 1.349 . S
C865 C863 1.327 . S
C865 C881 1.429 . S
C865 H887 0.950 . S
C866 H862 0.949 . S
C866 C874 1.574 . S
C866 C882 1.368 . S
H867 C875 0.950 . S
H868 C873 0.950 . S
H869 C874 0.949 . S
H870 C876 0.950 . S
H871 C877 0.950 . S
H872 C878 0.949 . S
C873 H868 0.950 . S
C873 C875 1.327 . S
C873 C879 1.429 . S
C874 C866 1.574 . S
C874 H869 0.949 . S
C874 C880 1.368 . S
C875 C859 1.349 . S
C875 H867 0.950 . S
C875 C873 1.327 . S
C876 C864 1.349 . S
C876 H870 0.950 . S
C876 C877 1.327 . S
C877 H871 0.950 . S
C877 C876 1.327 . S
C877 C881 1.429 . S
C878 C861 1.574 . S
C878 H872 0.949 . S
C878 C882 1.368 . S
C879 C860 1.429 . S
C879 C873 1.429 . S
C879 C880 1.523 . S
C880 C861 1.368 . S
C880 C874 1.368 . S
C880 C879 1.523 . S
C881 C865 1.429 . S
C881 C877 1.429 . S
C881 C882 1.523 . S
C882 C866 1.368 . S
C882 C878 1.368 . S
C882 C881 1.523 . S
H883 C858 0.950 . S
H884 C860 0.950 . S
H885 C861 0.949 . S
H886 C863 0.950 . S
H887 C865 0.950 . S
C888 C889 1.349 . S
C888 C890 1.327 . S
C888 H913 0.950 . S
C889 C888 1.349 . S
C889 C905 1.349 . S
C890 C888 1.327 . S
C890 C909 1.429 . S
C890 H914 0.950 . S
C891 C908 1.574 . S
C891 C910 1.368 . S
C891 H915 0.949 . S
H892 C896 0.949 . S
C893 C894 1.349 . S
C893 C895 1.327 . S
C893 H916 0.950 . S
C894 C893 1.349 . S
C894 C906 1.349 . S
C895 C893 1.327 . S
C895 C911 1.429 . S
C895 H917 0.950 . S
C896 H892 0.949 . S
C896 C904 1.574 . S
C896 C912 1.368 . S
H897 C905 0.950 . S
H898 C903 0.950 . S
H899 C904 0.949 . S
H900 C906 0.950 . S
H901 C907 0.950 . S
H902 C908 0.949 . S
C903 H898 0.950 . S
C903 C905 1.327 . S
C903 C909 1.429 . S
C904 C896 1.574 . S
C904 H899 0.949 . S
C904 C910 1.368 . S
C905 C889 1.349 . S
C905 H897 0.950 . S
C905 C903 1.327 . S
C906 C894 1.349 . S
C906 H900 0.950 . S
C906 C907 1.327 . S
C907 H901 0.950 . S
C907 C906 1.327 . S
C907 C911 1.429 . S
C908 C891 1.574 . S
C908 H902 0.949 . S
C908 C912 1.368 . S
C909 C890 1.429 . S
C909 C903 1.429 . S
C909 C910 1.523 . S
C910 C891 1.368 . S
C910 C904 1.368 . S
C910 C909 1.523 . S
C911 C895 1.429 . S
C911 C907 1.429 . S
C911 C912 1.523 . S
C912 C896 1.368 . S
C912 C908 1.368 . S
C912 C911 1.523 . S
H913 C888 0.950 . S
H914 C890 0.950 . S
H915 C891 0.949 . S
H916 C893 0.950 . S
H917 C895 0.950 . S
C918 C919 1.349 . S
C918 C920 1.327 . S
C918 H943 0.950 . S
C919 C918 1.349 . S
C919 C935 1.349 . S
C920 C918 1.327 . S
C920 C939 1.429 . S
C920 H944 0.950 . S
C921 C938 1.574 . S
C921 C940 1.368 . S
C921 H945 0.949 . S
H922 C926 0.949 . S
C923 C924 1.349 . S
C923 C925 1.327 . S
C923 H946 0.950 . S
C924 C923 1.349 . S
C924 C936 1.349 . S
C925 C923 1.327 . S
C925 C941 1.429 . S
C925 H947 0.950 . S
C926 H922 0.949 . S
C926 C934 1.574 . S
C926 C942 1.368 . S
H927 C935 0.950 . S
H928 C933 0.950 . S
H929 C934 0.949 . S
H930 C936 0.950 . S
H931 C937 0.950 . S
H932 C938 0.949 . S
C933 H928 0.950 . S
C933 C935 1.327 . S
C933 C939 1.429 . S
C934 C926 1.574 . S
C934 H929 0.949 . S
C934 C940 1.368 . S
C935 C919 1.349 . S
C935 H927 0.950 . S
C935 C933 1.327 . S
C936 C924 1.349 . S
C936 H930 0.950 . S
C936 C937 1.327 . S
C937 H931 0.950 . S
C937 C936 1.327 . S
C937 C941 1.429 . S
C938 C921 1.574 . S
C938 H932 0.949 . S
C938 C942 1.368 . S
C939 C920 1.429 . S
C939 C933 1.429 . S
C939 C940 1.523 . S
C940 C921 1.368 . S
C940 C934 1.368 . S
C940 C939 1.523 . S
C941 C925 1.429 . S
C941 C937 1.429 . S
C941 C942 1.523 . S
C942 C926 1.368 . S
C942 C938 1.368 . S
C942 C941 1.523 . S
H943 C918 0.950 . S
H944 C920 0.950 . S
H945 C921 0.949 . S
H946 C923 0.950 . S
H947 C925 0.950 . S
C948 C949 1.349 . S
C948 C950 1.327 . S
C948 H973 0.950 . S
C949 C948 1.349 . S
C949 C965 1.349 . S
C950 C948 1.327 . S
C950 C969 1.429 . S
C950 H974 0.950 . S
C951 C968 1.574 . S
C951 C970 1.368 . S
C951 H975 0.949 . S
H952 C956 0.949 . S
C953 C954 1.349 . S
C953 C955 1.327 . S
C953 H976 0.950 . S
C954 C953 1.349 . S
C954 C966 1.349 . S
C955 C953 1.327 . S
C955 C971 1.429 . S
C955 H977 0.950 . S
C956 H952 0.949 . S
C956 C964 1.574 . S
C956 C972 1.368 . S
H957 C965 0.950 . S
H958 C963 0.950 . S
H959 C964 0.949 . S
H960 C966 0.950 . S
H961 C967 0.950 . S
H962 C968 0.949 . S
C963 H958 0.950 . S
C963 C965 1.327 . S
C963 C969 1.429 . S
C964 C956 1.574 . S
C964 H959 0.949 . S
C964 C970 1.368 . S
C965 C949 1.349 . S
C965 H957 0.950 . S
C965 C963 1.327 . S
C966 C954 1.349 . S
C966 H960 0.950 . S
C966 C967 1.327 . S
C967 H961 0.950 . S
C967 C966 1.327 . S
C967 C971 1.429 . S
C968 C951 1.574 . S
C968 H962 0.949 . S
C968 C972 1.368 . S
C969 C950 1.429 . S
C969 C963 1.429 . S
C969 C970 1.523 . S
C970 C951 1.368 . S
C970 C964 1.368 . S
C970 C969 1.523 . S
C971 C955 1.429 . S
C971 C967 1.429 . S
C971 C972 1.523 . S
C972 C956 1.368 . S
C972 C968 1.368 . S
C972 C971 1.523 . S
H973 C948 0.950 . S
H974 C950 0.950 . S
H975 C951 0.949 . S
H976 C953 0.950 . S
H977 C955 0.950 . S
C978 C979 1.349 . S
C978 C980 1.327 . S
C978 H1003 0.950 . S
C979 C978 1.349 . S
C979 C995 1.349 . S
C980 C978 1.327 . S
C980 C999 1.429 . S
C980 H1004 0.950 . S
C981 C998 1.574 . S
C981 C1000 1.368 . S
C981 H1005 0.949 . S
H982 C986 0.949 . S
C983 C984 1.349 . S
C983 C985 1.327 . S
C983 H1006 0.950 . S
C984 C983 1.349 . S
C984 C996 1.349 . S
C985 C983 1.327 . S
C985 C1001 1.429 . S
C985 H1007 0.950 . S
C986 H982 0.949 . S
C986 C994 1.574 . S
C986 C1002 1.368 . S
H987 C995 0.950 . S
H988 C993 0.950 . S
H989 C994 0.949 . S
H990 C996 0.950 . S
H991 C997 0.950 . S
H992 C998 0.949 . S
C993 H988 0.950 . S
C993 C995 1.327 . S
C993 C999 1.429 . S
C994 C986 1.574 . S
C994 H989 0.949 . S
C994 C1000 1.368 . S
C995 C979 1.349 . S
C995 H987 0.950 . S
C995 C993 1.327 . S
C996 C984 1.349 . S
C996 H990 0.950 . S
C996 C997 1.327 . S
C997 H991 0.950 . S
C997 C996 1.327 . S
C997 C1001 1.429 . S
C998 C981 1.574 . S
C998 H992 0.949 . S
C998 C1002 1.368 . S
C999 C980 1.429 . S
C999 C993 1.429 . S
C999 C1000 1.523 . S
C1000 C981 1.368 . S
C1000 C994 1.368 . S
C1000 C999 1.523 . S
C1001 C985 1.429 . S
C1001 C997 1.429 . S
C1001 C1002 1.523 . S
C1002 C986 1.368 . S
C1002 C998 1.368 . S
C1002 C1001 1.523 . S
H1003 C978 0.950 . S
H1004 C980 0.950 . S
H1005 C981 0.949 . S
H1006 C983 0.950 . S
H1007 C985 0.950 . S
C1008 C1009 1.349 . S
C1008 C1010 1.327 . S
C1008 H1033 0.950 . S
C1009 C1008 1.349 . S
C1009 C1025 1.349 . S
C1010 C1008 1.327 . S
C1010 C1029 1.429 . S
C1010 H1034 0.950 . S
C1011 C1028 1.574 . S
C1011 C1030 1.368 . S
C1011 H1035 0.949 . S
H1012 C1016 0.949 . S
C1013 C1014 1.349 . S
C1013 C1015 1.327 . S
C1013 H1036 0.950 . S
C1014 C1013 1.349 . S
C1014 C1026 1.349 . S
C1015 C1013 1.327 . S
C1015 C1031 1.429 . S
C1015 H1037 0.950 . S
C1016 H1012 0.949 . S
C1016 C1024 1.574 . S
C1016 C1032 1.368 . S
H1017 C1025 0.950 . S
H1018 C1023 0.950 . S
H1019 C1024 0.949 . S
H1020 C1026 0.950 . S
H1021 C1027 0.950 . S
H1022 C1028 0.949 . S
C1023 H1018 0.950 . S
C1023 C1025 1.327 . S
C1023 C1029 1.429 . S
C1024 C1016 1.574 . S
C1024 H1019 0.949 . S
C1024 C1030 1.368 . S
C1025 C1009 1.349 . S
C1025 H1017 0.950 . S
C1025 C1023 1.327 . S
C1026 C1014 1.349 . S
C1026 H1020 0.950 . S
C1026 C1027 1.327 . S
C1027 H1021 0.950 . S
C1027 C1026 1.327 . S
C1027 C1031 1.429 . S
C1028 C1011 1.574 . S
C1028 H1022 0.949 . S
C1028 C1032 1.368 . S
C1029 C1010 1.429 . S
C1029 C1023 1.429 . S
C1029 C1030 1.523 . S
C1030 C1011 1.368 . S
C1030 C1024 1.368 . S
C1030 C1029 1.523 . S
C1031 C1015 1.429 . S
C1031 C1027 1.429 . S
C1031 C1032 1.523 . S
C1032 C1016 1.368 . S
C1032 C1028 1.368 . S
C1032 C1031 1.523 . S
H1033 C1008 0.950 . S
H1034 C1010 0.950 . S
H1035 C1011 0.949 . S
H1036 C1013 0.950 . S
H1037 C1015 0.950 . S
C1038 C1039 1.349 . S
C1038 C1040 1.327 . S
C1038 H1063 0.950 . S
C1039 C1038 1.349 . S
C1039 C1055 1.349 . S
C1040 C1038 1.327 . S
C1040 C1059 1.429 . S
C1040 H1064 0.950 . S
C1041 C1058 1.574 . S
C1041 C1060 1.368 . S
C1041 H1065 0.949 . S
H1042 C1046 0.949 . S
C1043 C1044 1.349 . S
C1043 C1045 1.327 . S
C1043 H1066 0.950 . S
C1044 C1043 1.349 . S
C1044 C1056 1.349 . S
C1045 C1043 1.327 . S
C1045 C1061 1.429 . S
C1045 H1067 0.950 . S
C1046 H1042 0.949 . S
C1046 C1054 1.574 . S
C1046 C1062 1.368 . S
H1047 C1055 0.950 . S
H1048 C1053 0.950 . S
H1049 C1054 0.949 . S
H1050 C1056 0.950 . S
H1051 C1057 0.950 . S
H1052 C1058 0.949 . S
C1053 H1048 0.950 . S
C1053 C1055 1.327 . S
C1053 C1059 1.429 . S
C1054 C1046 1.574 . S
C1054 H1049 0.949 . S
C1054 C1060 1.368 . S
C1055 C1039 1.349 . S
C1055 H1047 0.950 . S
C1055 C1053 1.327 . S
C1056 C1044 1.349 . S
C1056 H1050 0.950 . S
C1056 C1057 1.327 . S
C1057 H1051 0.950 . S
C1057 C1056 1.327 . S
C1057 C1061 1.429 . S
C1058 C1041 1.574 . S
C1058 H1052 0.949 . S
C1058 C1062 1.368 . S
C1059 C1040 1.429 . S
C1059 C1053 1.429 . S
C1059 C1060 1.523 . S
C1060 C1041 1.368 . S
C1060 C1054 1.368 . S
C1060 C1059 1.523 . S
C1061 C1045 1.429 . S
C1061 C1057 1.429 . S
C1061 C1062 1.523 . S
C1062 C1046 1.368 . S
C1062 C1058 1.368 . S
C1062 C1061 1.523 . S
H1063 C1038 0.950 . S
H1064 C1040 0.950 . S
H1065 C1041 0.949 . S
H1066 C1043 0.950 . S
H1067 C1045 0.950 . S
C1068 C1069 1.349 . S
C1068 C1070 1.327 . S
C1068 H1093 0.950 . S
C1069 C1068 1.349 . S
C1069 C1085 1.349 . S
C1070 C1068 1.327 . S
C1070 C1089 1.429 . S
C1070 H1094 0.950 . S
C1071 C1088 1.574 . S
C1071 C1090 1.368 . S
C1071 H1095 0.949 . S
H1072 C1076 0.949 . S
C1073 C1074 1.349 . S
C1073 C1075 1.327 . S
C1073 H1096 0.950 . S
C1074 C1073 1.349 . S
C1074 C1086 1.349 . S
C1075 C1073 1.327 . S
C1075 C1091 1.429 . S
C1075 H1097 0.950 . S
C1076 H1072 0.949 . S
C1076 C1084 1.574 . S
C1076 C1092 1.368 . S
H1077 C1085 0.950 . S
H1078 C1083 0.950 . S
H1079 C1084 0.949 . S
H1080 C1086 0.950 . S
H1081 C1087 0.950 . S
H1082 C1088 0.949 . S
C1083 H1078 0.950 . S
C1083 C1085 1.327 . S
C1083 C1089 1.429 . S
C1084 C1076 1.574 . S
C1084 H1079 0.949 . S
C1084 C1090 1.368 . S
C1085 C1069 1.349 . S
C1085 H1077 0.950 . S
C1085 C1083 1.327 . S
C1086 C1074 1.349 . S
C1086 H1080 0.950 . S
C1086 C1087 1.327 . S
C1087 H1081 0.950 . S
C1087 C1086 1.327 . S
C1087 C1091 1.429 . S
C1088 C1071 1.574 . S
C1088 H1082 0.949 . S
C1088 C1092 1.368 . S
C1089 C1070 1.429 . S
C1089 C1083 1.429 . S
C1089 C1090 1.523 . S
C1090 C1071 1.368 . S
C1090 C1084 1.368 . S
C1090 C1089 1.523 . S
C1091 C1075 1.429 . S
C1091 C1087 1.429 . S
C1091 C1092 1.523 . S
C1092 C1076 1.368 . S
C1092 C1088 1.368 . S
C1092 C1091 1.523 . S
H1093 C1068 0.950 . S
H1094 C1070 0.950 . S
H1095 C1071 0.949 . S
H1096 C1073 0.950 . S
H1097 C1075 0.950 . S
C1098 C1099 1.349 . S
C1098 C1100 1.327 . S
C1098 H1123 0.950 . S
C1099 C1098 1.349 . S
C1099 C1115 1.349 . S
C1100 C1098 1.327 . S
C1100 C1119 1.429 . S
C1100 H1124 0.950 . S
C1101 C1118 1.574 . S
C1101 C1120 1.368 . S
C1101 H1125 0.949 . S
H1102 C1106 0.949 . S
C1103 C1104 1.349 . S
C1103 C1105 1.327 . S
C1103 H1126 0.950 . S
C1104 C1103 1.349 . S
C1104 C1116 1.349 . S
C1105 C1103 1.327 . S
C1105 C1121 1.429 . S
C1105 H1127 0.950 . S
C1106 H1102 0.949 . S
C1106 C1114 1.574 . S
C1106 C1122 1.368 . S
H1107 C1115 0.950 . S
H1108 C1113 0.950 . S
H1109 C1114 0.949 . S
H1110 C1116 0.950 . S
H1111 C1117 0.950 . S
H1112 C1118 0.949 . S
C1113 H1108 0.950 . S
C1113 C1115 1.327 . S
C1113 C1119 1.429 . S
C1114 C1106 1.574 . S
C1114 H1109 0.949 . S
C1114 C1120 1.368 . S
C1115 C1099 1.349 . S
C1115 H1107 0.950 . S
C1115 C1113 1.327 . S
C1116 C1104 1.349 . S
C1116 H1110 0.950 . S
C1116 C1117 1.327 . S
C1117 H1111 0.950 . S
C1117 C1116 1.327 . S
C1117 C1121 1.429 . S
C1118 C1101 1.574 . S
C1118 H1112 0.949 . S
C1118 C1122 1.368 . S
C1119 C1100 1.429 . S
C1119 C1113 1.429 . S
C1119 C1120 1.523 . S
C1120 C1101 1.368 . S
C1120 C1114 1.368 . S
C1120 C1119 1.523 . S
C1121 C1105 1.429 . S
C1121 C1117 1.429 . S
C1121 C1122 1.523 . S
C1122 C1106 1.368 . S
C1122 C1118 1.368 . S
C1122 C1121 1.523 . S
H1123 C1098 0.950 . S
H1124 C1100 0.950 . S
H1125 C1101 0.949 . S
H1126 C1103 0.950 . S
H1127 C1105 0.950 . S
C1128 C1129 1.349 . S
C1128 C1130 1.327 . S
C1128 H1153 0.950 . S
C1129 C1128 1.349 . S
C1129 C1145 1.349 . S
C1130 C1128 1.327 . S
C1130 C1149 1.429 . S
C1130 H1154 0.950 . S
C1131 C1148 1.574 . S
C1131 C1150 1.368 . S
C1131 H1155 0.949 . S
H1132 C1136 0.949 . S
C1133 C1134 1.349 . S
C1133 C1135 1.327 . S
C1133 H1156 0.950 . S
C1134 C1133 1.349 . S
C1134 C1146 1.349 . S
C1135 C1133 1.327 . S
C1135 C1151 1.429 . S
C1135 H1157 0.950 . S
C1136 H1132 0.949 . S
C1136 C1144 1.574 . S
C1136 C1152 1.368 . S
H1137 C1145 0.950 . S
H1138 C1143 0.950 . S
H1139 C1144 0.949 . S
H1140 C1146 0.950 . S
H1141 C1147 0.950 . S
H1142 C1148 0.949 . S
C1143 H1138 0.950 . S
C1143 C1145 1.327 . S
C1143 C1149 1.429 . S
C1144 C1136 1.574 . S
C1144 H1139 0.949 . S
C1144 C1150 1.368 . S
C1145 C1129 1.349 . S
C1145 H1137 0.950 . S
C1145 C1143 1.327 . S
C1146 C1134 1.349 . S
C1146 H1140 0.950 . S
C1146 C1147 1.327 . S
C1147 H1141 0.950 . S
C1147 C1146 1.327 . S
C1147 C1151 1.429 . S
C1148 C1131 1.574 . S
C1148 H1142 0.949 . S
C1148 C1152 1.368 . S
C1149 C1130 1.429 . S
C1149 C1143 1.429 . S
C1149 C1150 1.523 . S
C1150 C1131 1.368 . S
C1150 C1144 1.368 . S
C1150 C1149 1.523 . S
C1151 C1135 1.429 . S
C1151 C1147 1.429 . S
C1151 C1152 1.523 . S
C1152 C1136 1.368 . S
C1152 C1148 1.368 . S
C1152 C1151 1.523 . S
H1153 C1128 0.950 . S
H1154 C1130 0.950 . S
H1155 C1131 0.949 . S
H1156 C1133 0.950 . S
H1157 C1135 0.950 . S
C1158 C1159 1.349 . S
C1158 C1160 1.327 . S
C1158 H1183 0.950 . S
C1159 C1158 1.349 . S
C1159 C1175 1.349 . S
C1160 C1158 1.327 . S
C1160 C1179 1.429 . S
C1160 H1184 0.950 . S
C1161 C1178 1.574 . S
C1161 C1180 1.368 . S
C1161 H1185 0.949 . S
H1162 C1166 0.949 . S
C1163 C1164 1.349 . S
C1163 C1165 1.327 . S
C1163 H1186 0.950 . S
C1164 C1163 1.349 . S
C1164 C1176 1.349 . S
C1165 C1163 1.327 . S
C1165 C1181 1.429 . S
C1165 H1187 0.950 . S
C1166 H1162 0.949 . S
C1166 C1174 1.574 . S
C1166 C1182 1.368 . S
H1167 C1175 0.950 . S
H1168 C1173 0.950 . S
H1169 C1174 0.949 . S
H1170 C1176 0.950 . S
H1171 C1177 0.950 . S
H1172 C1178 0.949 . S
C1173 H1168 0.950 . S
C1173 C1175 1.327 . S
C1173 C1179 1.429 . S
C1174 C1166 1.574 . S
C1174 H1169 0.949 . S
C1174 C1180 1.368 . S
C1175 C1159 1.349 . S
C1175 H1167 0.950 . S
C1175 C1173 1.327 . S
C1176 C1164 1.349 . S
C1176 H1170 0.950 . S
C1176 C1177 1.327 . S
C1177 H1171 0.950 . S
C1177 C1176 1.327 . S
C1177 C1181 1.429 . S
C1178 C1161 1.574 . S
C1178 H1172 0.949 . S
C1178 C1182 1.368 . S
C1179 C1160 1.429 . S
C1179 C1173 1.429 . S
C1179 C1180 1.523 . S
C1180 C1161 1.368 . S
C1180 C1174 1.368 . S
C1180 C1179 1.523 . S
C1181 C1165 1.429 . S
C1181 C1177 1.429 . S
C1181 C1182 1.523 . S
C1182 C1166 1.368 . S
C1182 C1178 1.368 . S
C1182 C1181 1.523 . S
H1183 C1158 0.950 . S
H1184 C1160 0.950 . S
H1185 C1161 0.949 . S
H1186 C1163 0.950 . S
H1187 C1165 0.950 . S
C1188 C1189 1.349 . S
C1188 C1190 1.327 . S
C1188 H1213 0.950 . S
C1189 C1188 1.349 . S
C1189 C1205 1.349 . S
C1190 C1188 1.327 . S
C1190 C1209 1.429 . S
C1190 H1214 0.950 . S
C1191 C1208 1.574 . S
C1191 C1210 1.368 . S
C1191 H1215 0.949 . S
H1192 C1196 0.949 . S
C1193 C1194 1.349 . S
C1193 C1195 1.327 . S
C1193 H1216 0.950 . S
C1194 C1193 1.349 . S
C1194 C1206 1.349 . S
C1195 C1193 1.327 . S
C1195 C1211 1.429 . S
C1195 H1217 0.950 . S
C1196 H1192 0.949 . S
C1196 C1204 1.574 . S
C1196 C1212 1.368 . S
H1197 C1205 0.950 . S
H1198 C1203 0.950 . S
H1199 C1204 0.949 . S
H1200 C1206 0.950 . S
H1201 C1207 0.950 . S
H1202 C1208 0.949 . S
C1203 H1198 0.950 . S
C1203 C1205 1.327 . S
C1203 C1209 1.429 . S
C1204 C1196 1.574 . S
C1204 H1199 0.949 . S
C1204 C1210 1.368 . S
C1205 C1189 1.349 . S
C1205 H1197 0.950 . S
C1205 C1203 1.327 . S
C1206 C1194 1.349 . S
C1206 H1200 0.950 . S
C1206 C1207 1.327 . S
C1207 H1201 0.950 . S
C1207 C1206 1.327 . S
C1207 C1211 1.429 . S
C1208 C1191 1.574 . S
C1208 H1202 0.949 . S
C1208 C1212 1.368 . S
C1209 C1190 1.429 . S
C1209 C1203 1.429 . S
C1209 C1210 1.523 . S
C1210 C1191 1.368 . S
C1210 C1204 1.368 . S
C1210 C1209 1.523 . S
C1211 C1195 1.429 . S
C1211 C1207 1.429 . S
C1211 C1212 1.523 . S
C1212 C1196 1.368 . S
C1212 C1208 1.368 . S
C1212 C1211 1.523 . S
H1213 C1188 0.950 . S
H1214 C1190 0.950 . S
H1215 C1191 0.949 . S
H1216 C1193 0.950 . S
H1217 C1195 0.950 . S
C1218 C1219 1.349 . S
C1218 C1220 1.327 . S
C1218 H1243 0.950 . S
C1219 C1218 1.349 . S
C1219 C1235 1.349 . S
C1220 C1218 1.327 . S
C1220 C1239 1.429 . S
C1220 H1244 0.950 . S
C1221 C1238 1.574 . S
C1221 C1240 1.368 . S
C1221 H1245 0.949 . S
H1222 C1226 0.949 . S
C1223 C1224 1.349 . S
C1223 C1225 1.327 . S
C1223 H1246 0.950 . S
C1224 C1223 1.349 . S
C1224 C1236 1.349 . S
C1225 C1223 1.327 . S
C1225 C1241 1.429 . S
C1225 H1247 0.950 . S
C1226 H1222 0.949 . S
C1226 C1234 1.574 . S
C1226 C1242 1.368 . S
H1227 C1235 0.950 . S
H1228 C1233 0.950 . S
H1229 C1234 0.949 . S
H1230 C1236 0.950 . S
H1231 C1237 0.950 . S
H1232 C1238 0.949 . S
C1233 H1228 0.950 . S
C1233 C1235 1.327 . S
C1233 C1239 1.429 . S
C1234 C1226 1.574 . S
C1234 H1229 0.949 . S
C1234 C1240 1.368 . S
C1235 C1219 1.349 . S
C1235 H1227 0.950 . S
C1235 C1233 1.327 . S
C1236 C1224 1.349 . S
C1236 H1230 0.950 . S
C1236 C1237 1.327 . S
C1237 H1231 0.950 . S
C1237 C1236 1.327 . S
C1237 C1241 1.429 . S
C1238 C1221 1.574 . S
C1238 H1232 0.949 . S
C1238 C1242 1.368 . S
C1239 C1220 1.429 . S
C1239 C1233 1.429 . S
C1239 C1240 1.523 . S
C1240 C1221 1.368 . S
C1240 C1234 1.368 . S
C1240 C1239 1.523 . S
C1241 C1225 1.429 . S
C1241 C1237 1.429 . S
C1241 C1242 1.523 . S
C1242 C1226 1.368 . S
C1242 C1238 1.368 . S
C1242 C1241 1.523 . S
H1243 C1218 0.950 . S
H1244 C1220 0.950 . S
H1245 C1221 0.949 . S
H1246 C1223 0.950 . S
H1247 C1225 0.950 . S
C1248 C1249 1.349 . S
C1248 C1250 1.327 . S
C1248 H1273 0.950 . S
C1249 C1248 1.349 . S
C1249 C1265 1.349 . S
C1250 C1248 1.327 . S
C1250 C1269 1.429 . S
C1250 H1274 0.950 . S
C1251 C1268 1.574 . S
C1251 C1270 1.368 . S
C1251 H1275 0.949 . S
H1252 C1256 0.949 . S
C1253 C1254 1.349 . S
C1253 C1255 1.327 . S
C1253 H1276 0.950 . S
C1254 C1253 1.349 . S
C1254 C1266 1.349 . S
C1255 C1253 1.327 . S
C1255 C1271 1.429 . S
C1255 H1277 0.950 . S
C1256 H1252 0.949 . S
C1256 C1264 1.574 . S
C1256 C1272 1.368 . S
H1257 C1265 0.950 . S
H1258 C1263 0.950 . S
H1259 C1264 0.949 . S
H1260 C1266 0.950 . S
H1261 C1267 0.950 . S
H1262 C1268 0.949 . S
C1263 H1258 0.950 . S
C1263 C1265 1.327 . S
C1263 C1269 1.429 . S
C1264 C1256 1.574 . S
C1264 H1259 0.949 . S
C1264 C1270 1.368 . S
C1265 C1249 1.349 . S
C1265 H1257 0.950 . S
C1265 C1263 1.327 . S
C1266 C1254 1.349 . S
C1266 H1260 0.950 . S
C1266 C1267 1.327 . S
C1267 H1261 0.950 . S
C1267 C1266 1.327 . S
C1267 C1271 1.429 . S
C1268 C1251 1.574 . S
C1268 H1262 0.949 . S
C1268 C1272 1.368 . S
C1269 C1250 1.429 . S
C1269 C1263 1.429 . S
C1269 C1270 1.523 . S
C1270 C1251 1.368 . S
C1270 C1264 1.368 . S
C1270 C1269 1.523 . S
C1271 C1255 1.429 . S
C1271 C1267 1.429 . S
C1271 C1272 1.523 . S
C1272 C1256 1.368 . S
C1272 C1268 1.368 . S
C1272 C1271 1.523 . S
H1273 C1248 0.950 . S
H1274 C1250 0.950 . S
H1275 C1251 0.949 . S
H1276 C1253 0.950 . S
H1277 C1255 0.950 . S
C1278 C1279 1.349 . S
C1278 C1280 1.327 . S
C1278 H1303 0.950 . S
C1279 C1278 1.349 . S
C1279 C1295 1.349 . S
C1280 C1278 1.327 . S
C1280 C1299 1.429 . S
C1280 H1304 0.950 . S
C1281 C1298 1.574 . S
C1281 C1300 1.368 . S
C1281 H1305 0.949 . S
H1282 C1286 0.949 . S
C1283 C1284 1.349 . S
C1283 C1285 1.327 . S
C1283 H1306 0.950 . S
C1284 C1283 1.349 . S
C1284 C1296 1.349 . S
C1285 C1283 1.327 . S
C1285 C1301 1.429 . S
C1285 H1307 0.950 . S
C1286 H1282 0.949 . S
C1286 C1294 1.574 . S
C1286 C1302 1.368 . S
H1287 C1295 0.950 . S
H1288 C1293 0.950 . S
H1289 C1294 0.949 . S
H1290 C1296 0.950 . S
H1291 C1297 0.950 . S
H1292 C1298 0.949 . S
C1293 H1288 0.950 . S
C1293 C1295 1.327 . S
C1293 C1299 1.429 . S
C1294 C1286 1.574 . S
C1294 H1289 0.949 . S
C1294 C1300 1.368 . S
C1295 C1279 1.349 . S
C1295 H1287 0.950 . S
C1295 C1293 1.327 . S
C1296 C1284 1.349 . S
C1296 H1290 0.950 . S
C1296 C1297 1.327 . S
C1297 H1291 0.950 . S
C1297 C1296 1.327 . S
C1297 C1301 1.429 . S
C1298 C1281 1.574 . S
C1298 H1292 0.949 . S
C1298 C1302 1.368 . S
C1299 C1280 1.429 . S
C1299 C1293 1.429 . S
C1299 C1300 1.523 . S
C1300 C1281 1.368 . S
C1300 C1294 1.368 . S
C1300 C1299 1.523 . S
C1301 C1285 1.429 . S
C1301 C1297 1.429 . S
C1301 C1302 1.523 . S
C1302 C1286 1.368 . S
C1302 C1298 1.368 . S
C1302 C1301 1.523 . S
H1303 C1278 0.950 . S
H1304 C1280 0.950 . S
H1305 C1281 0.949 . S
H1306 C1283 0.950 . S
H1307 C1285 0.950 . S
C1308 C1309 1.349 . S
C1308 C1310 1.327 . S
C1308 H1333 0.950 . S
C1309 C1308 1.349 . S
C1309 C1325 1.349 . S
C1310 C1308 1.327 . S
C1310 C1329 1.429 . S
C1310 H1334 0.950 . S
C1311 C1328 1.574 . S
C1311 C1330 1.368 . S
C1311 H1335 0.949 . S
H1312 C1316 0.949 . S
C1313 C1314 1.349 . S
C1313 C1315 1.327 . S
C1313 H1336 0.950 . S
C1314 C1313 1.349 . S
C1314 C1326 1.349 . S
C1315 C1313 1.327 . S
C1315 C1331 1.429 . S
C1315 H1337 0.950 . S
C1316 H1312 0.949 . S
C1316 C1324 1.574 . S
C1316 C1332 1.368 . S
H1317 C1325 0.950 . S
H1318 C1323 0.950 . S
H1319 C1324 0.949 . S
H1320 C1326 0.950 . S
H1321 C1327 0.950 . S
H1322 C1328 0.949 . S
C1323 H1318 0.950 . S
C1323 C1325 1.327 . S
C1323 C1329 1.429 . S
C1324 C1316 1.574 . S
C1324 H1319 0.949 . S
C1324 C1330 1.368 . S
C1325 C1309 1.349 . S
C1325 H1317 0.950 . S
C1325 C1323 1.327 . S
C1326 C1314 1.349 . S
C1326 H1320 0.950 . S
C1326 C1327 1.327 . S
C1327 H1321 0.950 . S
C1327 C1326 1.327 . S
C1327 C1331 1.429 . S
C1328 C1311 1.574 . S
C1328 H1322 0.949 . S
C1328 C1332 1.368 . S
C1329 C1310 1.429 . S
C1329 C1323 1.429 . S
C1329 C1330 1.523 . S
C1330 C1311 1.368 . S
C1330 C1324 1.368 . S
C1330 C1329 1.523 . S
C1331 C1315 1.429 . S
C1331 C1327 1.429 . S
C1331 C1332 1.523 . S
C1332 C1316 1.368 . S
C1332 C1328 1.368 . S
C1332 C1331 1.523 . S
H1333 C1308 0.950 . S
H1334 C1310 0.950 . S
H1335 C1311 0.949 . S
H1336 C1313 0.950 . S
H1337 C1315 0.950 . S
C1338 C1339 1.349 . S
C1338 C1340 1.327 . S
C1338 H1363 0.950 . S
C1339 C1338 1.349 . S
C1339 C1355 1.349 . S
C1340 C1338 1.327 . S
C1340 C1359 1.429 . S
C1340 H1364 0.950 . S
C1341 C1358 1.574 . S
C1341 C1360 1.368 . S
C1341 H1365 0.949 . S
H1342 C1346 0.949 . S
C1343 C1344 1.349 . S
C1343 C1345 1.327 . S
C1343 H1366 0.950 . S
C1344 C1343 1.349 . S
C1344 C1356 1.349 . S
C1345 C1343 1.327 . S
C1345 C1361 1.429 . S
C1345 H1367 0.950 . S
C1346 H1342 0.949 . S
C1346 C1354 1.574 . S
C1346 C1362 1.368 . S
H1347 C1355 0.950 . S
H1348 C1353 0.950 . S
H1349 C1354 0.949 . S
H1350 C1356 0.950 . S
H1351 C1357 0.950 . S
H1352 C1358 0.949 . S
C1353 H1348 0.950 . S
C1353 C1355 1.327 . S
C1353 C1359 1.429 . S
C1354 C1346 1.574 . S
C1354 H1349 0.949 . S
C1354 C1360 1.368 . S
C1355 C1339 1.349 . S
C1355 H1347 0.950 . S
C1355 C1353 1.327 . S
C1356 C1344 1.349 . S
C1356 H1350 0.950 . S
C1356 C1357 1.327 . S
C1357 H1351 0.950 . S
C1357 C1356 1.327 . S
C1357 C1361 1.429 . S
C1358 C1341 1.574 . S
C1358 H1352 0.949 . S
C1358 C1362 1.368 . S
C1359 C1340 1.429 . S
C1359 C1353 1.429 . S
C1359 C1360 1.523 . S
C1360 C1341 1.368 . S
C1360 C1354 1.368 . S
C1360 C1359 1.523 . S
C1361 C1345 1.429 . S
C1361 C1357 1.429 . S
C1361 C1362 1.523 . S
C1362 C1346 1.368 . S
C1362 C1358 1.368 . S
C1362 C1361 1.523 . S
H1363 C1338 0.950 . S
H1364 C1340 0.950 . S
H1365 C1341 0.949 . S
H1366 C1343 0.950 . S
H1367 C1345 0.950 . S
C1368 C1369 1.349 . S
C1368 C1370 1.327 . S
C1368 H1393 0.950 . S
C1369 C1368 1.349 . S
C1369 C1385 1.349 . S
C1370 C1368 1.327 . S
C1370 C1389 1.429 . S
C1370 H1394 0.950 . S
C1371 C1388 1.574 . S
C1371 C1390 1.368 . S
C1371 H1395 0.949 . S
H1372 C1376 0.949 . S
C1373 C1374 1.349 . S
C1373 C1375 1.327 . S
C1373 H1396 0.950 . S
C1374 C1373 1.349 . S
C1374 C1386 1.349 . S
C1375 C1373 1.327 . S
C1375 C1391 1.429 . S
C1375 H1397 0.950 . S
C1376 H1372 0.949 . S
C1376 C1384 1.574 . S
C1376 C1392 1.368 . S
H1377 C1385 0.950 . S
H1378 C1383 0.950 . S
H1379 C1384 0.949 . S
H1380 C1386 0.950 . S
H1381 C1387 0.950 . S
H1382 C1388 0.949 . S
C1383 H1378 0.950 . S
C1383 C1385 1.327 . S
C1383 C1389 1.429 . S
C1384 C1376 1.574 . S
C1384 H1379 0.949 . S
C1384 C1390 1.368 . S
C1385 C1369 1.349 . S
C1385 H1377 0.950 . S
C1385 C1383 1.327 . S
C1386 C1374 1.349 . S
C1386 H1380 0.950 . S
C1386 C1387 1.327 . S
C1387 H1381 0.950 . S
C1387 C1386 1.327 . S
C1387 C1391 1.429 . S
C1388 C1371 1.574 . S
C1388 H1382 0.949 . S
C1388 C1392 1.368 . S
C1389 C1370 1.429 . S
C1389 C1383 1.429 . S
C1389 C1390 1.523 . S
C1390 C1371 1.368 . S
C1390 C1384 1.368 . S
C1390 C1389 1.523 . S
C1391 C1375 1.429 . S
C1391 C1387 1.429 . S
C1391 C1392 1.523 . S
C1392 C1376 1.368 . S
C1392 C1388 1.368 . S
C1392 C1391 1.523 . S
H1393 C1368 0.950 . S
H1394 C1370 0.950 . S
H1395 C1371 0.949 . S
H1396 C1373 0.950 . S
H1397 C1375 0.950 . S
C1398 C1399 1.349 . S
C1398 C1400 1.327 . S
C1398 H1423 0.950 . S
C1399 C1398 1.349 . S
C1399 C1415 1.349 . S
C1400 C1398 1.327 . S
C1400 C1419 1.429 . S
C1400 H1424 0.950 . S
C1401 C1418 1.574 . S
C1401 C1420 1.368 . S
C1401 H1425 0.949 . S
H1402 C1406 0.949 . S
C1403 C1404 1.349 . S
C1403 C1405 1.327 . S
C1403 H1426 0.950 . S
C1404 C1403 1.349 . S
C1404 C1416 1.349 . S
C1405 C1403 1.327 . S
C1405 C1421 1.429 . S
C1405 H1427 0.950 . S
C1406 H1402 0.949 . S
C1406 C1414 1.574 . S
C1406 C1422 1.368 . S
H1407 C1415 0.950 . S
H1408 C1413 0.950 . S
H1409 C1414 0.949 . S
H1410 C1416 0.950 . S
H1411 C1417 0.950 . S
H1412 C1418 0.949 . S
C1413 H1408 0.950 . S
C1413 C1415 1.327 . S
C1413 C1419 1.429 . S
C1414 C1406 1.574 . S
C1414 H1409 0.949 . S
C1414 C1420 1.368 . S
C1415 C1399 1.349 . S
C1415 H1407 0.950 . S
C1415 C1413 1.327 . S
C1416 C1404 1.349 . S
C1416 H1410 0.950 . S
C1416 C1417 1.327 . S
C1417 H1411 0.950 . S
C1417 C1416 1.327 . S
C1417 C1421 1.429 . S
C1418 C1401 1.574 . S
C1418 H1412 0.949 . S
C1418 C1422 1.368 . S
C1419 C1400 1.429 . S
C1419 C1413 1.429 . S
C1419 C1420 1.523 . S
C1420 C1401 1.368 . S
C1420 C1414 1.368 . S
C1420 C1419 1.523 . S
C1421 C1405 1.429 . S
C1421 C1417 1.429 . S
C1421 C1422 1.523 . S
C1422 C1406 1.368 . S
C1422 C1418 1.368 . S
C1422 C1421 1.523 . S
H1423 C1398 0.950 . S
H1424 C1400 0.950 . S
H1425 C1401 0.949 . S
H1426 C1403 0.950 . S
H1427 C1405 0.950 . S
C1428 C1429 1.349 . S
C1428 C1430 1.327 . S
C1428 H1453 0.950 . S
C1429 C1428 1.349 . S
C1429 C1445 1.349 . S
C1430 C1428 1.327 . S
C1430 C1449 1.429 . S
C1430 H1454 0.950 . S
C1431 C1448 1.574 . S
C1431 C1450 1.368 . S
C1431 H1455 0.949 . S
H1432 C1436 0.949 . S
C1433 C1434 1.349 . S
C1433 C1435 1.327 . S
C1433 H1456 0.950 . S
C1434 C1433 1.349 . S
C1434 C1446 1.349 . S
C1435 C1433 1.327 . S
C1435 C1451 1.429 . S
C1435 H1457 0.950 . S
C1436 H1432 0.949 . S
C1436 C1444 1.574 . S
C1436 C1452 1.368 . S
H1437 C1445 0.950 . S
H1438 C1443 0.950 . S
H1439 C1444 0.949 . S
H1440 C1446 0.950 . S
H1441 C1447 0.950 . S
H1442 C1448 0.949 . S
C1443 H1438 0.950 . S
C1443 C1445 1.327 . S
C1443 C1449 1.429 . S
C1444 C1436 1.574 . S
C1444 H1439 0.949 . S
C1444 C1450 1.368 . S
C1445 C1429 1.349 . S
C1445 H1437 0.950 . S
C1445 C1443 1.327 . S
C1446 C1434 1.349 . S
C1446 H1440 0.950 . S
C1446 C1447 1.327 . S
C1447 H1441 0.950 . S
C1447 C1446 1.327 . S
C1447 C1451 1.429 . S
C1448 C1431 1.574 . S
C1448 H1442 0.949 . S
C1448 C1452 1.368 . S
C1449 C1430 1.429 . S
C1449 C1443 1.429 . S
C1449 C1450 1.523 . S
C1450 C1431 1.368 . S
C1450 C1444 1.368 . S
C1450 C1449 1.523 . S
C1451 C1435 1.429 . S
C1451 C1447 1.429 . S
C1451 C1452 1.523 . S
C1452 C1436 1.368 . S
C1452 C1448 1.368 . S
C1452 C1451 1.523 . S
H1453 C1428 0.950 . S
H1454 C1430 0.950 . S
H1455 C1431 0.949 . S
H1456 C1433 0.950 . S
H1457 C1435 0.950 . S
C1458 C1459 1.349 . S
C1458 C1460 1.327 . S
C1458 H1483 0.950 . S
C1459 C1458 1.349 . S
C1459 C1475 1.349 . S
C1460 C1458 1.327 . S
C1460 C1479 1.429 . S
C1460 H1484 0.950 . S
C1461 C1478 1.574 . S
C1461 C1480 1.368 . S
C1461 H1485 0.949 . S
H1462 C1466 0.949 . S
C1463 C1464 1.349 . S
C1463 C1465 1.327 . S
C1463 H1486 0.950 . S
C1464 C1463 1.349 . S
C1464 C1476 1.349 . S
C1465 C1463 1.327 . S
C1465 C1481 1.429 . S
C1465 H1487 0.950 . S
C1466 H1462 0.949 . S
C1466 C1474 1.574 . S
C1466 C1482 1.368 . S
H1467 C1475 0.950 . S
H1468 C1473 0.950 . S
H1469 C1474 0.949 . S
H1470 C1476 0.950 . S
H1471 C1477 0.950 . S
H1472 C1478 0.949 . S
C1473 H1468 0.950 . S
C1473 C1475 1.327 . S
C1473 C1479 1.429 . S
C1474 C1466 1.574 . S
C1474 H1469 0.949 . S
C1474 C1480 1.368 . S
C1475 C1459 1.349 . S
C1475 H1467 0.950 . S
C1475 C1473 1.327 . S
C1476 C1464 1.349 . S
C1476 H1470 0.950 . S
C1476 C1477 1.327 . S
C1477 H1471 0.950 . S
C1477 C1476 1.327 . S
C1477 C1481 1.429 . S
C1478 C1461 1.574 . S
C1478 H1472 0.949 . S
C1478 C1482 1.368 . S
C1479 C1460 1.429 . S
C1479 C1473 1.429 . S
C1479 C1480 1.523 . S
C1480 C1461 1.368 . S
C1480 C1474 1.368 . S
C1480 C1479 1.523 . S
C1481 C1465 1.429 . S
C1481 C1477 1.429 . S
C1481 C1482 1.523 . S
C1482 C1466 1.368 . S
C1482 C1478 1.368 . S
C1482 C1481 1.523 . S
H1483 C1458 0.950 . S
H1484 C1460 0.950 . S
H1485 C1461 0.949 . S
H1486 C1463 0.950 . S
H1487 C1465 0.950 . S
C1488 C1489 1.349 . S
C1488 C1490 1.327 . S
C1488 H1513 0.950 . S
C1489 C1488 1.349 . S
C1489 C1505 1.349 . S
C1490 C1488 1.327 . S
C1490 C1509 1.429 . S
C1490 H1514 0.950 . S
C1491 C1508 1.574 . S
C1491 C1510 1.368 . S
C1491 H1515 0.949 . S
H1492 C1496 0.949 . S
C1493 C1494 1.349 . S
C1493 C1495 1.327 . S
C1493 H1516 0.950 . S
C1494 C1493 1.349 . S
C1494 C1506 1.349 . S
C1495 C1493 1.327 . S
C1495 C1511 1.429 . S
C1495 H1517 0.950 . S
C1496 H1492 0.949 . S
C1496 C1504 1.574 . S
C1496 C1512 1.368 . S
H1497 C1505 0.950 . S
H1498 C1503 0.950 . S
H1499 C1504 0.949 . S
H1500 C1506 0.950 . S
H1501 C1507 0.950 . S
H1502 C1508 0.949 . S
C1503 H1498 0.950 . S
C1503 C1505 1.327 . S
C1503 C1509 1.429 . S
C1504 C1496 1.574 . S
C1504 H1499 0.949 . S
C1504 C1510 1.368 . S
C1505 C1489 1.349 . S
C1505 H1497 0.950 . S
C1505 C1503 1.327 . S
C1506 C1494 1.349 . S
C1506 H1500 0.950 . S
C1506 C1507 1.327 . S
C1507 H1501 0.950 . S
C1507 C1506 1.327 . S
C1507 C1511 1.429 . S
C1508 C1491 1.574 . S
C1508 H1502 0.949 . S
C1508 C1512 1.368 . S
C1509 C1490 1.429 . S
C1509 C1503 1.429 . S
C1509 C1510 1.523 . S
C1510 C1491 1.368 . S
C1510 C1504 1.368 . S
C1510 C1509 1.523 . S
C1511 C1495 1.429 . S
C1511 C1507 1.429 . S
C1511 C1512 1.523 . S
C1512 C1496 1.368 . S
C1512 C1508 1.368 . S
C1512 C1511 1.523 . S
H1513 C1488 0.950 . S
H1514 C1490 0.950 . S
H1515 C1491 0.949 . S
H1516 C1493 0.950 . S
H1517 C1495 0.950 . S
C1518 C1519 1.349 . S
C1518 C1520 1.327 . S
C1518 H1543 0.950 . S
C1519 C1518 1.349 . S
C1519 C1535 1.349 . S
C1520 C1518 1.327 . S
C1520 C1539 1.429 . S
C1520 H1544 0.950 . S
C1521 C1538 1.574 . S
C1521 C1540 1.368 . S
C1521 H1545 0.949 . S
H1522 C1526 0.949 . S
C1523 C1524 1.349 . S
C1523 C1525 1.327 . S
C1523 H1546 0.950 . S
C1524 C1523 1.349 . S
C1524 C1536 1.349 . S
C1525 C1523 1.327 . S
C1525 C1541 1.429 . S
C1525 H1547 0.950 . S
C1526 H1522 0.949 . S
C1526 C1534 1.574 . S
C1526 C1542 1.368 . S
H1527 C1535 0.950 . S
H1528 C1533 0.950 . S
H1529 C1534 0.949 . S
H1530 C1536 0.950 . S
H1531 C1537 0.950 . S
H1532 C1538 0.949 . S
C1533 H1528 0.950 . S
C1533 C1535 1.327 . S
C1533 C1539 1.429 . S
C1534 C1526 1.574 . S
C1534 H1529 0.949 . S
C1534 C1540 1.368 . S
C1535 C1519 1.349 . S
C1535 H1527 0.950 . S
C1535 C1533 1.327 . S
C1536 C1524 1.349 . S
C1536 H1530 0.950 . S
C1536 C1537 1.327 . S
C1537 H1531 0.950 . S
C1537 C1536 1.327 . S
C1537 C1541 1.429 . S
C1538 C1521 1.574 . S
C1538 H1532 0.949 . S
C1538 C1542 1.368 . S
C1539 C1520 1.429 . S
C1539 C1533 1.429 . S
C1539 C1540 1.523 . S
C1540 C1521 1.368 . S
C1540 C1534 1.368 . S
C1540 C1539 1.523 . S
C1541 C1525 1.429 . S
C1541 C1537 1.429 . S
C1541 C1542 1.523 . S
C1542 C1526 1.368 . S
C1542 C1538 1.368 . S
C1542 C1541 1.523 . S
H1543 C1518 0.950 . S
H1544 C1520 0.950 . S
H1545 C1521 0.949 . S
H1546 C1523 0.950 . S
H1547 C1525 0.950 . S
C1548 C1549 1.349 . S
C1548 C1550 1.327 . S
C1548 H1573 0.950 . S
C1549 C1548 1.349 . S
C1549 C1565 1.349 . S
C1550 C1548 1.327 . S
C1550 C1569 1.429 . S
C1550 H1574 0.950 . S
C1551 C1568 1.574 . S
C1551 C1570 1.368 . S
C1551 H1575 0.949 . S
H1552 C1556 0.949 . S
C1553 C1554 1.349 . S
C1553 C1555 1.327 . S
C1553 H1576 0.950 . S
C1554 C1553 1.349 . S
C1554 C1566 1.349 . S
C1555 C1553 1.327 . S
C1555 C1571 1.429 . S
C1555 H1577 0.950 . S
C1556 H1552 0.949 . S
C1556 C1564 1.574 . S
C1556 C1572 1.368 . S
H1557 C1565 0.950 . S
H1558 C1563 0.950 . S
H1559 C1564 0.949 . S
H1560 C1566 0.950 . S
H1561 C1567 0.950 . S
H1562 C1568 0.949 . S
C1563 H1558 0.950 . S
C1563 C1565 1.327 . S
C1563 C1569 1.429 . S
C1564 C1556 1.574 . S
C1564 H1559 0.949 . S
C1564 C1570 1.368 . S
C1565 C1549 1.349 . S
C1565 H1557 0.950 . S
C1565 C1563 1.327 . S
C1566 C1554 1.349 . S
C1566 H1560 0.950 . S
C1566 C1567 1.327 . S
C1567 H1561 0.950 . S
C1567 C1566 1.327 . S
C1567 C1571 1.429 . S
C1568 C1551 1.574 . S
C1568 H1562 0.949 . S
C1568 C1572 1.368 . S
C1569 C1550 1.429 . S
C1569 C1563 1.429 . S
C1569 C1570 1.523 . S
C1570 C1551 1.368 . S
C1570 C1564 1.368 . S
C1570 C1569 1.523 . S
C1571 C1555 1.429 . S
C1571 C1567 1.429 . S
C1571 C1572 1.523 . S
C1572 C1556 1.368 . S
C1572 C1568 1.368 . S
C1572 C1571 1.523 . S
H1573 C1548 0.950 . S
H1574 C1550 0.950 . S
H1575 C1551 0.949 . S
H1576 C1553 0.950 . S
H1577 C1555 0.950 . S
C1578 C1579 1.349 . S
C1578 C1580 1.327 . S
C1578 H1603 0.950 . S
C1579 C1578 1.349 . S
C1579 C1595 1.349 . S
C1580 C1578 1.327 . S
C1580 C1599 1.429 . S
C1580 H1604 0.950 . S
C1581 C1598 1.574 . S
C1581 C1600 1.368 . S
C1581 H1605 0.949 . S
H1582 C1586 0.949 . S
C1583 C1584 1.349 . S
C1583 C1585 1.327 . S
C1583 H1606 0.950 . S
C1584 C1583 1.349 . S
C1584 C1596 1.349 . S
C1585 C1583 1.327 . S
C1585 C1601 1.429 . S
C1585 H1607 0.950 . S
C1586 H1582 0.949 . S
C1586 C1594 1.574 . S
C1586 C1602 1.368 . S
H1587 C1595 0.950 . S
H1588 C1593 0.950 . S
H1589 C1594 0.949 . S
H1590 C1596 0.950 . S
H1591 C1597 0.950 . S
H1592 C1598 0.949 . S
C1593 H1588 0.950 . S
C1593 C1595 1.327 . S
C1593 C1599 1.429 . S
C1594 C1586 1.574 . S
C1594 H1589 0.949 . S
C1594 C1600 1.368 . S
C1595 C1579 1.349 . S
C1595 H1587 0.950 . S
C1595 C1593 1.327 . S
C1596 C1584 1.349 . S
C1596 H1590 0.950 . S
C1596 C1597 1.327 . S
C1597 H1591 0.950 . S
C1597 C1596 1.327 . S
C1597 C1601 1.429 . S
C1598 C1581 1.574 . S
C1598 H1592 0.949 . S
C1598 C1602 1.368 . S
C1599 C1580 1.429 . S
C1599 C1593 1.429 . S
C1599 C1600 1.523 . S
C1600 C1581 1.368 . S
C1600 C1594 1.368 . S
C1600 C1599 1.523 . S
C1601 C1585 1.429 . S
C1601 C1597 1.429 . S
C1601 C1602 1.523 . S
C1602 C1586 1.368 . S
C1602 C1598 1.368 . S
C1602 C1601 1.523 . S
H1603 C1578 0.950 . S
H1604 C1580 0.950 . S
H1605 C1581 0.949 . S
H1606 C1583 0.950 . S
H1607 C1585 0.950 . S
C1608 C1609 1.349 . S
C1608 C1610 1.327 . S
C1608 H1633 0.950 . S
C1609 C1608 1.349 . S
C1609 C1625 1.349 . S
C1610 C1608 1.327 . S
C1610 C1629 1.429 . S
C1610 H1634 0.950 . S
C1611 C1628 1.574 . S
C1611 C1630 1.368 . S
C1611 H1635 0.949 . S
H1612 C1616 0.949 . S
C1613 C1614 1.349 . S
C1613 C1615 1.327 . S
C1613 H1636 0.950 . S
C1614 C1613 1.349 . S
C1614 C1626 1.349 . S
C1615 C1613 1.327 . S
C1615 C1631 1.429 . S
C1615 H1637 0.950 . S
C1616 H1612 0.949 . S
C1616 C1624 1.574 . S
C1616 C1632 1.368 . S
H1617 C1625 0.950 . S
H1618 C1623 0.950 . S
H1619 C1624 0.949 . S
H1620 C1626 0.950 . S
H1621 C1627 0.950 . S
H1622 C1628 0.949 . S
C1623 H1618 0.950 . S
C1623 C1625 1.327 . S
C1623 C1629 1.429 . S
C1624 C1616 1.574 . S
C1624 H1619 0.949 . S
C1624 C1630 1.368 . S
C1625 C1609 1.349 . S
C1625 H1617 0.950 . S
C1625 C1623 1.327 . S
C1626 C1614 1.349 . S
C1626 H1620 0.950 . S
C1626 C1627 1.327 . S
C1627 H1621 0.950 . S
C1627 C1626 1.327 . S
C1627 C1631 1.429 . S
C1628 C1611 1.574 . S
C1628 H1622 0.949 . S
C1628 C1632 1.368 . S
C1629 C1610 1.429 . S
C1629 C1623 1.429 . S
C1629 C1630 1.523 . S
C1630 C1611 1.368 . S
C1630 C1624 1.368 . S
C1630 C1629 1.523 . S
C1631 C1615 1.429 . S
C1631 C1627 1.429 . S
C1631 C1632 1.523 . S
C1632 C1616 1.368 . S
C1632 C1628 1.368 . S
C1632 C1631 1.523 . S
H1633 C1608 0.950 . S
H1634 C1610 0.950 . S
H1635 C1611 0.949 . S
H1636 C1613 0.950 . S
H1637 C1615 0.950 . S
C1638 C1639 1.349 . S
C1638 C1640 1.327 . S
C1638 H1663 0.950 . S
C1639 C1638 1.349 . S
C1639 C1655 1.349 . S
C1640 C1638 1.327 . S
C1640 C1659 1.429 . S
C1640 H1664 0.950 . S
C1641 C1658 1.574 . S
C1641 C1660 1.368 . S
C1641 H1665 0.949 . S
H1642 C1646 0.949 . S
C1643 C1644 1.349 . S
C1643 C1645 1.327 . S
C1643 H1666 0.950 . S
C1644 C1643 1.349 . S
C1644 C1656 1.349 . S
C1645 C1643 1.327 . S
C1645 C1661 1.429 . S
C1645 H1667 0.950 . S
C1646 H1642 0.949 . S
C1646 C1654 1.574 . S
C1646 C1662 1.368 . S
H1647 C1655 0.950 . S
H1648 C1653 0.950 . S
H1649 C1654 0.949 . S
H1650 C1656 0.950 . S
H1651 C1657 0.950 . S
H1652 C1658 0.949 . S
C1653 H1648 0.950 . S
C1653 C1655 1.327 . S
C1653 C1659 1.429 . S
C1654 C1646 1.574 . S
C1654 H1649 0.949 . S
C1654 C1660 1.368 . S
C1655 C1639 1.349 . S
C1655 H1647 0.950 . S
C1655 C1653 1.327 . S
C1656 C1644 1.349 . S
C1656 H1650 0.950 . S
C1656 C1657 1.327 . S
C1657 H1651 0.950 . S
C1657 C1656 1.327 . S
C1657 C1661 1.429 . S
C1658 C1641 1.574 . S
C1658 H1652 0.949 . S
C1658 C1662 1.368 . S
C1659 C1640 1.429 . S
C1659 C1653 1.429 . S
C1659 C1660 1.523 . S
C1660 C1641 1.368 . S
C1660 C1654 1.368 . S
C1660 C1659 1.523 . S
C1661 C1645 1.429 . S
C1661 C1657 1.429 . S
C1661 C1662 1.523 . S
C1662 C1646 1.368 . S
C1662 C1658 1.368 . S
C1662 C1661 1.523 . S
H1663 C1638 0.950 . S
H1664 C1640 0.950 . S
H1665 C1641 0.949 . S
H1666 C1643 0.950 . S
H1667 C1645 0.950 . S
C1668 C1669 1.349 . S
C1668 C1670 1.327 . S
C1668 H1693 0.950 . S
C1669 C1668 1.349 . S
C1669 C1685 1.349 . S
C1670 C1668 1.327 . S
C1670 C1689 1.429 . S
C1670 H1694 0.950 . S
C1671 C1688 1.574 . S
C1671 C1690 1.368 . S
C1671 H1695 0.949 . S
H1672 C1676 0.949 . S
C1673 C1674 1.349 . S
C1673 C1675 1.327 . S
C1673 H1696 0.950 . S
C1674 C1673 1.349 . S
C1674 C1686 1.349 . S
C1675 C1673 1.327 . S
C1675 C1691 1.429 . S
C1675 H1697 0.950 . S
C1676 H1672 0.949 . S
C1676 C1684 1.574 . S
C1676 C1692 1.368 . S
H1677 C1685 0.950 . S
H1678 C1683 0.950 . S
H1679 C1684 0.949 . S
H1680 C1686 0.950 . S
H1681 C1687 0.950 . S
H1682 C1688 0.949 . S
C1683 H1678 0.950 . S
C1683 C1685 1.327 . S
C1683 C1689 1.429 . S
C1684 C1676 1.574 . S
C1684 H1679 0.949 . S
C1684 C1690 1.368 . S
C1685 C1669 1.349 . S
C1685 H1677 0.950 . S
C1685 C1683 1.327 . S
C1686 C1674 1.349 . S
C1686 H1680 0.950 . S
C1686 C1687 1.327 . S
C1687 H1681 0.950 . S
C1687 C1686 1.327 . S
C1687 C1691 1.429 . S
C1688 C1671 1.574 . S
C1688 H1682 0.949 . S
C1688 C1692 1.368 . S
C1689 C1670 1.429 . S
C1689 C1683 1.429 . S
C1689 C1690 1.523 . S
C1690 C1671 1.368 . S
C1690 C1684 1.368 . S
C1690 C1689 1.523 . S
C1691 C1675 1.429 . S
C1691 C1687 1.429 . S
C1691 C1692 1.523 . S
C1692 C1676 1.368 . S
C1692 C1688 1.368 . S
C1692 C1691 1.523 . S
H1693 C1668 0.950 . S
H1694 C1670 0.950 . S
H1695 C1671 0.949 . S
H1696 C1673 0.950 . S
H1697 C1675 0.950 . S
C1698 C1699 1.349 . S
C1698 C1700 1.327 . S
C1698 H1723 0.950 . S
C1699 C1698 1.349 . S
C1699 C1715 1.349 . S
C1700 C1698 1.327 . S
C1700 C1719 1.429 . S
C1700 H1724 0.950 . S
C1701 C1718 1.574 . S
C1701 C1720 1.368 . S
C1701 H1725 0.949 . S
H1702 C1706 0.949 . S
C1703 C1704 1.349 . S
C1703 C1705 1.327 . S
C1703 H1726 0.950 . S
C1704 C1703 1.349 . S
C1704 C1716 1.349 . S
C1705 C1703 1.327 . S
C1705 C1721 1.429 . S
C1705 H1727 0.950 . S
C1706 H1702 0.949 . S
C1706 C1714 1.574 . S
C1706 C1722 1.368 . S
H1707 C1715 0.950 . S
H1708 C1713 0.950 . S
H1709 C1714 0.949 . S
H1710 C1716 0.950 . S
H1711 C1717 0.950 . S
H1712 C1718 0.949 . S
C1713 H1708 0.950 . S
C1713 C1715 1.327 . S
C1713 C1719 1.429 . S
C1714 C1706 1.574 . S
C1714 H1709 0.949 . S
C1714 C1720 1.368 . S
C1715 C1699 1.349 . S
C1715 H1707 0.950 . S
C1715 C1713 1.327 . S
C1716 C1704 1.349 . S
C1716 H1710 0.950 . S
C1716 C1717 1.327 . S
C1717 H1711 0.950 . S
C1717 C1716 1.327 . S
C1717 C1721 1.429 . S
C1718 C1701 1.574 . S
C1718 H1712 0.949 . S
C1718 C1722 1.368 . S
C1719 C1700 1.429 . S
C1719 C1713 1.429 . S
C1719 C1720 1.523 . S
C1720 C1701 1.368 . S
C1720 C1714 1.368 . S
C1720 C1719 1.523 . S
C1721 C1705 1.429 . S
C1721 C1717 1.429 . S
C1721 C1722 1.523 . S
C1722 C1706 1.368 . S
C1722 C1718 1.368 . S
C1722 C1721 1.523 . S
H1723 C1698 0.950 . S
H1724 C1700 0.950 . S
H1725 C1701 0.949 . S
H1726 C1703 0.950 . S
H1727 C1705 0.950 . S
C1728 C1729 1.349 . S
C1728 C1730 1.327 . S
C1728 H1753 0.950 . S
C1729 C1728 1.349 . S
C1729 C1745 1.349 . S
C1730 C1728 1.327 . S
C1730 C1749 1.429 . S
C1730 H1754 0.950 . S
C1731 C1748 1.574 . S
C1731 C1750 1.368 . S
C1731 H1755 0.949 . S
H1732 C1736 0.949 . S
C1733 C1734 1.349 . S
C1733 C1735 1.327 . S
C1733 H1756 0.950 . S
C1734 C1733 1.349 . S
C1734 C1746 1.349 . S
C1735 C1733 1.327 . S
C1735 C1751 1.429 . S
C1735 H1757 0.950 . S
C1736 H1732 0.949 . S
C1736 C1744 1.574 . S
C1736 C1752 1.368 . S
H1737 C1745 0.950 . S
H1738 C1743 0.950 . S
H1739 C1744 0.949 . S
H1740 C1746 0.950 . S
H1741 C1747 0.950 . S
H1742 C1748 0.949 . S
C1743 H1738 0.950 . S
C1743 C1745 1.327 . S
C1743 C1749 1.429 . S
C1744 C1736 1.574 . S
C1744 H1739 0.949 . S
C1744 C1750 1.368 . S
C1745 C1729 1.349 . S
C1745 H1737 0.950 . S
C1745 C1743 1.327 . S
C1746 C1734 1.349 . S
C1746 H1740 0.950 . S
C1746 C1747 1.327 . S
C1747 H1741 0.950 . S
C1747 C1746 1.327 . S
C1747 C1751 1.429 . S
C1748 C1731 1.574 . S
C1748 H1742 0.949 . S
C1748 C1752 1.368 . S
C1749 C1730 1.429 . S
C1749 C1743 1.429 . S
C1749 C1750 1.523 . S
C1750 C1731 1.368 . S
C1750 C1744 1.368 . S
C1750 C1749 1.523 . S
C1751 C1735 1.429 . S
C1751 C1747 1.429 . S
C1751 C1752 1.523 . S
C1752 C1736 1.368 . S
C1752 C1748 1.368 . S
C1752 C1751 1.523 . S
H1753 C1728 0.950 . S
H1754 C1730 0.950 . S
H1755 C1731 0.949 . S
H1756 C1733 0.950 . S
H1757 C1735 0.950 . S
C1758 C1759 1.349 . S
C1758 C1760 1.327 . S
C1758 H1783 0.950 . S
C1759 C1758 1.349 . S
C1759 C1775 1.349 . S
C1760 C1758 1.327 . S
C1760 C1779 1.429 . S
C1760 H1784 0.950 . S
C1761 C1778 1.574 . S
C1761 C1780 1.368 . S
C1761 H1785 0.949 . S
H1762 C1766 0.949 . S
C1763 C1764 1.349 . S
C1763 C1765 1.327 . S
C1763 H1786 0.950 . S
C1764 C1763 1.349 . S
C1764 C1776 1.349 . S
C1765 C1763 1.327 . S
C1765 C1781 1.429 . S
C1765 H1787 0.950 . S
C1766 H1762 0.949 . S
C1766 C1774 1.574 . S
C1766 C1782 1.368 . S
H1767 C1775 0.950 . S
H1768 C1773 0.950 . S
H1769 C1774 0.949 . S
H1770 C1776 0.950 . S
H1771 C1777 0.950 . S
H1772 C1778 0.949 . S
C1773 H1768 0.950 . S
C1773 C1775 1.327 . S
C1773 C1779 1.429 . S
C1774 C1766 1.574 . S
C1774 H1769 0.949 . S
C1774 C1780 1.368 . S
C1775 C1759 1.349 . S
C1775 H1767 0.950 . S
C1775 C1773 1.327 . S
C1776 C1764 1.349 . S
C1776 H1770 0.950 . S
C1776 C1777 1.327 . S
C1777 H1771 0.950 . S
C1777 C1776 1.327 . S
C1777 C1781 1.429 . S
C1778 C1761 1.574 . S
C1778 H1772 0.949 . S
C1778 C1782 1.368 . S
C1779 C1760 1.429 . S
C1779 C1773 1.429 . S
C1779 C1780 1.523 . S
C1780 C1761 1.368 . S
C1780 C1774 1.368 . S
C1780 C1779 1.523 . S
C1781 C1765 1.429 . S
C1781 C1777 1.429 . S
C1781 C1782 1.523 . S
C1782 C1766 1.368 . S
C1782 C1778 1.368 . S
C1782 C1781 1.523 . S
H1783 C1758 0.950 . S
H1784 C1760 0.950 . S
H1785 C1761 0.949 . S
H1786 C1763 0.950 . S
H1787 C1765 0.950 . S
C1788 C1789 1.349 . S
C1788 C1790 1.327 . S
C1788 H1813 0.950 . S
C1789 C1788 1.349 . S
C1789 C1805 1.349 . S
C1790 C1788 1.327 . S
C1790 C1809 1.429 . S
C1790 H1814 0.950 . S
C1791 C1808 1.574 . S
C1791 C1810 1.368 . S
C1791 H1815 0.949 . S
H1792 C1796 0.949 . S
C1793 C1794 1.349 . S
C1793 C1795 1.327 . S
C1793 H1816 0.950 . S
C1794 C1793 1.349 . S
C1794 C1806 1.349 . S
C1795 C1793 1.327 . S
C1795 C1811 1.429 . S
C1795 H1817 0.950 . S
C1796 H1792 0.949 . S
C1796 C1804 1.574 . S
C1796 C1812 1.368 . S
H1797 C1805 0.950 . S
H1798 C1803 0.950 . S
H1799 C1804 0.949 . S
H1800 C1806 0.950 . S
H1801 C1807 0.950 . S
H1802 C1808 0.949 . S
C1803 H1798 0.950 . S
C1803 C1805 1.327 . S
C1803 C1809 1.429 . S
C1804 C1796 1.574 . S
C1804 H1799 0.949 . S
C1804 C1810 1.368 . S
C1805 C1789 1.349 . S
C1805 H1797 0.950 . S
C1805 C1803 1.327 . S
C1806 C1794 1.349 . S
C1806 H1800 0.950 . S
C1806 C1807 1.327 . S
C1807 H1801 0.950 . S
C1807 C1806 1.327 . S
C1807 C1811 1.429 . S
C1808 C1791 1.574 . S
C1808 H1802 0.949 . S
C1808 C1812 1.368 . S
C1809 C1790 1.429 . S
C1809 C1803 1.429 . S
C1809 C1810 1.523 . S
C1810 C1791 1.368 . S
C1810 C1804 1.368 . S
C1810 C1809 1.523 . S
C1811 C1795 1.429 . S
C1811 C1807 1.429 . S
C1811 C1812 1.523 . S
C1812 C1796 1.368 . S
C1812 C1808 1.368 . S
C1812 C1811 1.523 . S
H1813 C1788 0.950 . S
H1814 C1790 0.950 . S
H1815 C1791 0.949 . S
H1816 C1793 0.950 . S
H1817 C1795 0.950 . S
C1818 C1819 1.349 . S
C1818 C1820 1.327 . S
C1818 H1843 0.950 . S
C1819 C1818 1.349 . S
C1819 C1835 1.349 . S
C1820 C1818 1.327 . S
C1820 C1839 1.429 . S
C1820 H1844 0.950 . S
C1821 C1838 1.574 . S
C1821 C1840 1.368 . S
C1821 H1845 0.949 . S
H1822 C1826 0.949 . S
C1823 C1824 1.349 . S
C1823 C1825 1.327 . S
C1823 H1846 0.950 . S
C1824 C1823 1.349 . S
C1824 C1836 1.349 . S
C1825 C1823 1.327 . S
C1825 C1841 1.429 . S
C1825 H1847 0.950 . S
C1826 H1822 0.949 . S
C1826 C1834 1.574 . S
C1826 C1842 1.368 . S
H1827 C1835 0.950 . S
H1828 C1833 0.950 . S
H1829 C1834 0.949 . S
H1830 C1836 0.950 . S
H1831 C1837 0.950 . S
H1832 C1838 0.949 . S
C1833 H1828 0.950 . S
C1833 C1835 1.327 . S
C1833 C1839 1.429 . S
C1834 C1826 1.574 . S
C1834 H1829 0.949 . S
C1834 C1840 1.368 . S
C1835 C1819 1.349 . S
C1835 H1827 0.950 . S
C1835 C1833 1.327 . S
C1836 C1824 1.349 . S
C1836 H1830 0.950 . S
C1836 C1837 1.327 . S
C1837 H1831 0.950 . S
C1837 C1836 1.327 . S
C1837 C1841 1.429 . S
C1838 C1821 1.574 . S
C1838 H1832 0.949 . S
C1838 C1842 1.368 . S
C1839 C1820 1.429 . S
C1839 C1833 1.429 . S
C1839 C1840 1.523 . S
C1840 C1821 1.368 . S
C1840 C1834 1.368 . S
C1840 C1839 1.523 . S
C1841 C1825 1.429 . S
C1841 C1837 1.429 . S
C1841 C1842 1.523 . S
C1842 C1826 1.368 . S
C1842 C1838 1.368 . S
C1842 C1841 1.523 . S
H1843 C1818 0.950 . S
H1844 C1820 0.950 . S
H1845 C1821 0.949 . S
H1846 C1823 0.950 . S
H1847 C1825 0.950 . S
C1848 C1849 1.349 . S
C1848 C1850 1.327 . S
C1848 H1873 0.950 . S
C1849 C1848 1.349 . S
C1849 C1865 1.349 . S
C1850 C1848 1.327 . S
C1850 C1869 1.429 . S
C1850 H1874 0.950 . S
C1851 C1868 1.574 . S
C1851 C1870 1.368 . S
C1851 H1875 0.949 . S
H1852 C1856 0.949 . S
C1853 C1854 1.349 . S
C1853 C1855 1.327 . S
C1853 H1876 0.950 . S
C1854 C1853 1.349 . S
C1854 C1866 1.349 . S
C1855 C1853 1.327 . S
C1855 C1871 1.429 . S
C1855 H1877 0.950 . S
C1856 H1852 0.949 . S
C1856 C1864 1.574 . S
C1856 C1872 1.368 . S
H1857 C1865 0.950 . S
H1858 C1863 0.950 . S
H1859 C1864 0.949 . S
H1860 C1866 0.950 . S
H1861 C1867 0.950 . S
H1862 C1868 0.949 . S
C1863 H1858 0.950 . S
C1863 C1865 1.327 . S
C1863 C1869 1.429 . S
C1864 C1856 1.574 . S
C1864 H1859 0.949 . S
C1864 C1870 1.368 . S
C1865 C1849 1.349 . S
C1865 H1857 0.950 . S
C1865 C1863 1.327 . S
C1866 C1854 1.349 . S
C1866 H1860 0.950 . S
C1866 C1867 1.327 . S
C1867 H1861 0.950 . S
C1867 C1866 1.327 . S
C1867 C1871 1.429 . S
C1868 C1851 1.574 . S
C1868 H1862 0.949 . S
C1868 C1872 1.368 . S
C1869 C1850 1.429 . S
C1869 C1863 1.429 . S
C1869 C1870 1.523 . S
C1870 C1851 1.368 . S
C1870 C1864 1.368 . S
C1870 C1869 1.523 . S
C1871 C1855 1.429 . S
C1871 C1867 1.429 . S
C1871 C1872 1.523 . S
C1872 C1856 1.368 . S
C1872 C1868 1.368 . S
C1872 C1871 1.523 . S
H1873 C1848 0.950 . S
H1874 C1850 0.950 . S
H1875 C1851 0.949 . S
H1876 C1853 0.950 . S
H1877 C1855 0.950 . S
C1878 C1879 1.349 . S
C1878 C1880 1.327 . S
C1878 H1903 0.950 . S
C1879 C1878 1.349 . S
C1879 C1895 1.349 . S
C1880 C1878 1.327 . S
C1880 C1899 1.429 . S
C1880 H1904 0.950 . S
C1881 C1898 1.574 . S
C1881 C1900 1.368 . S
C1881 H1905 0.949 . S
H1882 C1886 0.949 . S
C1883 C1884 1.349 . S
C1883 C1885 1.327 . S
C1883 H1906 0.950 . S
C1884 C1883 1.349 . S
C1884 C1896 1.349 . S
C1885 C1883 1.327 . S
C1885 C1901 1.429 . S
C1885 H1907 0.950 . S
C1886 H1882 0.949 . S
C1886 C1894 1.574 . S
C1886 C1902 1.368 . S
H1887 C1895 0.950 . S
H1888 C1893 0.950 . S
H1889 C1894 0.949 . S
H1890 C1896 0.950 . S
H1891 C1897 0.950 . S
H1892 C1898 0.949 . S
C1893 H1888 0.950 . S
C1893 C1895 1.327 . S
C1893 C1899 1.429 . S
C1894 C1886 1.574 . S
C1894 H1889 0.949 . S
C1894 C1900 1.368 . S
C1895 C1879 1.349 . S
C1895 H1887 0.950 . S
C1895 C1893 1.327 . S
C1896 C1884 1.349 . S
C1896 H1890 0.950 . S
C1896 C1897 1.327 . S
C1897 H1891 0.950 . S
C1897 C1896 1.327 . S
C1897 C1901 1.429 . S
C1898 C1881 1.574 . S
C1898 H1892 0.949 . S
C1898 C1902 1.368 . S
C1899 C1880 1.429 . S
C1899 C1893 1.429 . S
C1899 C1900 1.523 . S
C1900 C1881 1.368 . S
C1900 C1894 1.368 . S
C1900 C1899 1.523 . S
C1901 C1885 1.429 . S
C1901 C1897 1.429 . S
C1901 C1902 1.523 . S
C1902 C1886 1.368 . S
C1902 C1898 1.368 . S
C1902 C1901 1.523 . S
H1903 C1878 0.950 . S
H1904 C1880 0.950 . S
H1905 C1881 0.949 . S
H1906 C1883 0.950 . S
H1907 C1885 0.950 . S
C1908 C1909 1.349 . S
C1908 C1910 1.327 . S
C1908 H1933 0.950 . S
C1909 C1908 1.349 . S
C1909 C1925 1.349 . S
C1910 C1908 1.327 . S
C1910 C1929 1.429 . S
C1910 H1934 0.950 . S
C1911 C1928 1.574 . S
C1911 C1930 1.368 . S
C1911 H1935 0.949 . S
H1912 C1916 0.949 . S
C1913 C1914 1.349 . S
C1913 C1915 1.327 . S
C1913 H1936 0.950 . S
C1914 C1913 1.349 . S
C1914 C1926 1.349 . S
C1915 C1913 1.327 . S
C1915 C1931 1.429 . S
C1915 H1937 0.950 . S
C1916 H1912 0.949 . S
C1916 C1924 1.574 . S
C1916 C1932 1.368 . S
H1917 C1925 0.950 . S
H1918 C1923 0.950 . S
H1919 C1924 0.949 . S
H1920 C1926 0.950 . S
H1921 C1927 0.950 . S
H1922 C1928 0.949 . S
C1923 H1918 0.950 . S
C1923 C1925 1.327 . S
C1923 C1929 1.429 . S
C1924 C1916 1.574 . S
C1924 H1919 0.949 . S
C1924 C1930 1.368 . S
C1925 C1909 1.349 . S
C1925 H1917 0.950 . S
C1925 C1923 1.327 . S
C1926 C1914 1.349 . S
C1926 H1920 0.950 . S
C1926 C1927 1.327 . S
C1927 H1921 0.950 . S
C1927 C1926 1.327 . S
C1927 C1931 1.429 . S
C1928 C1911 1.574 . S
C1928 H1922 0.949 . S
C1928 C1932 1.368 . S
C1929 C1910 1.429 . S
C1929 C1923 1.429 . S
C1929 C1930 1.523 . S
C1930 C1911 1.368 . S
C1930 C1924 1.368 . S
C1930 C1929 1.523 . S
C1931 C1915 1.429 . S
C1931 C1927 1.429 . S
C1931 C1932 1.523 . S
C1932 C1916 1.368 . S
C1932 C1928 1.368 . S
C1932 C1931 1.523 . S
H1933 C1908 0.950 . S
H1934 C1910 0.950 . S
H1935 C1911 0.949 . S
H1936 C1913 0.950 . S
H1937 C1915 0.950 . S
C1938 C1939 1.349 . S
C1938 C1940 1.327 . S
C1938 H1963 0.950 . S
C1939 C1938 1.349 . S
C1939 C1955 1.349 . S
C1940 C1938 1.327 . S
C1940 C1959 1.429 . S
C1940 H1964 0.950 . S
C1941 C1958 1.574 . S
C1941 C1960 1.368 . S
C1941 H1965 0.949 . S
H1942 C1946 0.949 . S
C1943 C1944 1.349 . S
C1943 C1945 1.327 . S
C1943 H1966 0.950 . S
C1944 C1943 1.349 . S
C1944 C1956 1.349 . S
C1945 C1943 1.327 . S
C1945 C1961 1.429 . S
C1945 H1967 0.950 . S
C1946 H1942 0.949 . S
C1946 C1954 1.574 . S
C1946 C1962 1.368 . S
H1947 C1955 0.950 . S
H1948 C1953 0.950 . S
H1949 C1954 0.949 . S
H1950 C1956 0.950 . S
H1951 C1957 0.950 . S
H1952 C1958 0.949 . S
C1953 H1948 0.950 . S
C1953 C1955 1.327 . S
C1953 C1959 1.429 . S
C1954 C1946 1.574 . S
C1954 H1949 0.949 . S
C1954 C1960 1.368 . S
C1955 C1939 1.349 . S
C1955 H1947 0.950 . S
C1955 C1953 1.327 . S
C1956 C1944 1.349 . S
C1956 H1950 0.950 . S
C1956 C1957 1.327 . S
C1957 H1951 0.950 . S
C1957 C1956 1.327 . S
C1957 C1961 1.429 . S
C1958 C1941 1.574 . S
C1958 H1952 0.949 . S
C1958 C1962 1.368 . S
C1959 C1940 1.429 . S
C1959 C1953 1.429 . S
C1959 C1960 1.523 . S
C1960 C1941 1.368 . S
C1960 C1954 1.368 . S
C1960 C1959 1.523 . S
C1961 C1945 1.429 . S
C1961 C1957 1.429 . S
C1961 C1962 1.523 . S
C1962 C1946 1.368 . S
C1962 C1958 1.368 . S
C1962 C1961 1.523 . S
H1963 C1938 0.950 . S
H1964 C1940 0.950 . S
H1965 C1941 0.949 . S
H1966 C1943 0.950 . S
H1967 C1945 0.950 . S
C1968 C1969 1.349 . S
C1968 C1970 1.327 . S
C1968 H1993 0.950 . S
C1969 C1968 1.349 . S
C1969 C1985 1.349 . S
C1970 C1968 1.327 . S
C1970 C1989 1.429 . S
C1970 H1994 0.950 . S
C1971 C1988 1.574 1_655 S
C1971 C1990 1.368 . S
C1971 H1995 0.949 . S
H1972 C1976 0.949 . S
C1973 C1974 1.349 . S
C1973 C1975 1.327 . S
C1973 H1996 0.950 . S
C1974 C1973 1.349 . S
C1974 C1986 1.349 . S
C1975 C1973 1.327 . S
C1975 C1991 1.429 . S
C1975 H1997 0.950 . S
C1976 H1972 0.949 . S
C1976 C1984 1.574 1_455 S
C1976 C1992 1.368 . S
H1977 C1985 0.950 . S
H1978 C1983 0.950 . S
H1979 C1984 0.949 . S
H1980 C1986 0.950 . S
H1981 C1987 0.950 . S
H1982 C1988 0.949 . S
C1983 H1978 0.950 . S
C1983 C1985 1.327 . S
C1983 C1989 1.429 . S
C1984 C1976 1.574 1_655 S
C1984 H1979 0.949 . S
C1984 C1990 1.368 . S
C1985 C1969 1.349 . S
C1985 H1977 0.950 . S
C1985 C1983 1.327 . S
C1986 C1974 1.349 . S
C1986 H1980 0.950 . S
C1986 C1987 1.327 . S
C1987 H1981 0.950 . S
C1987 C1986 1.327 . S
C1987 C1991 1.429 . S
C1988 C1971 1.574 1_455 S
C1988 H1982 0.949 . S
C1988 C1992 1.368 . S
C1989 C1970 1.429 . S
C1989 C1983 1.429 . S
C1989 C1990 1.523 . S
C1990 C1971 1.368 . S
C1990 C1984 1.368 . S
C1990 C1989 1.523 . S
C1991 C1975 1.429 . S
C1991 C1987 1.429 . S
C1991 C1992 1.523 . S
C1992 C1976 1.368 . S
C1992 C1988 1.368 . S
C1992 C1991 1.523 . S
H1993 C1968 0.950 . S
H1994 C1970 0.950 . S
H1995 C1971 0.949 . S
H1996 C1973 0.950 . S
H1997 C1975 0.950 . S
C1998 C1999 1.349 . S
C1998 C2000 1.327 . S
C1998 H2023 0.950 . S
C1999 C1998 1.349 . S
C1999 C2015 1.349 . S
C2000 C1998 1.327 . S
C2000 C2019 1.429 . S
C2000 H2024 0.950 . S
C2001 C2018 1.574 1_565 S
C2001 C2020 1.368 . S
C2001 H2025 0.949 . S
H2002 C2006 0.949 . S
C2003 C2004 1.349 . S
C2003 C2005 1.327 . S
C2003 H2026 0.950 . S
C2004 C2003 1.349 . S
C2004 C2016 1.349 . S
C2005 C2003 1.327 . S
C2005 C2021 1.429 . S
C2005 H2027 0.950 . S
C2006 H2002 0.949 . S
C2006 C2014 1.574 1_545 S
C2006 C2022 1.368 . S
H2007 C2015 0.950 . S
H2008 C2013 0.950 . S
H2009 C2014 0.949 . S
H2010 C2016 0.950 . S
H2011 C2017 0.950 . S
H2012 C2018 0.949 . S
C2013 H2008 0.950 . S
C2013 C2015 1.327 . S
C2013 C2019 1.429 . S
C2014 C2006 1.574 1_565 S
C2014 H2009 0.949 . S
C2014 C2020 1.368 . S
C2015 C1999 1.349 . S
C2015 H2007 0.950 . S
C2015 C2013 1.327 . S
C2016 C2004 1.349 . S
C2016 H2010 0.950 . S
C2016 C2017 1.327 . S
C2017 H2011 0.950 . S
C2017 C2016 1.327 . S
C2017 C2021 1.429 . S
C2018 C2001 1.574 1_545 S
C2018 H2012 0.949 . S
C2018 C2022 1.368 . S
C2019 C2000 1.429 . S
C2019 C2013 1.429 . S
C2019 C2020 1.523 . S
C2020 C2001 1.368 . S
C2020 C2014 1.368 . S
C2020 C2019 1.523 . S
C2021 C2005 1.429 . S
C2021 C2017 1.429 . S
C2021 C2022 1.523 . S
C2022 C2006 1.368 . S
C2022 C2018 1.368 . S
C2022 C2021 1.523 . S
H2023 C1998 0.950 . S
H2024 C2000 0.950 . S
H2025 C2001 0.949 . S
H2026 C2003 0.950 . S
H2027 C2005 0.950 . S
C2028 C2029 1.349 . S
C2028 C2030 1.327 . S
C2028 H2053 0.950 . S
C2029 C2028 1.349 . S
C2029 C2045 1.349 . S
C2030 C2028 1.327 . S
C2030 C2049 1.429 . S
C2030 H2054 0.950 . S
C2031 C2048 1.574 . S
C2031 C2050 1.368 . S
C2031 H2055 0.949 . S
H2032 C2036 0.949 . S
C2033 C2034 1.349 . S
C2033 C2035 1.327 . S
C2033 H2056 0.950 . S
C2034 C2033 1.349 . S
C2034 C2046 1.349 . S
C2035 C2033 1.327 . S
C2035 C2051 1.429 . S
C2035 H2057 0.950 . S
C2036 H2032 0.949 . S
C2036 C2044 1.574 . S
C2036 C2052 1.368 . S
H2037 C2045 0.950 . S
H2038 C2043 0.950 . S
H2039 C2044 0.949 . S
H2040 C2046 0.950 . S
H2041 C2047 0.950 . S
H2042 C2048 0.949 . S
C2043 H2038 0.950 . S
C2043 C2045 1.327 . S
C2043 C2049 1.429 . S
C2044 C2036 1.574 . S
C2044 H2039 0.949 . S
C2044 C2050 1.368 . S
C2045 C2029 1.349 . S
C2045 H2037 0.950 . S
C2045 C2043 1.327 . S
C2046 C2034 1.349 . S
C2046 H2040 0.950 . S
C2046 C2047 1.327 . S
C2047 H2041 0.950 . S
C2047 C2046 1.327 . S
C2047 C2051 1.429 . S
C2048 C2031 1.574 . S
C2048 H2042 0.949 . S
C2048 C2052 1.368 . S
C2049 C2030 1.429 . S
C2049 C2043 1.429 . S
C2049 C2050 1.523 . S
C2050 C2031 1.368 . S
C2050 C2044 1.368 . S
C2050 C2049 1.523 . S
C2051 C2035 1.429 . S
C2051 C2047 1.429 . S
C2051 C2052 1.523 . S
C2052 C2036 1.368 . S
C2052 C2048 1.368 . S
C2052 C2051 1.523 . S
H2053 C2028 0.950 . S
H2054 C2030 0.950 . S
H2055 C2031 0.949 . S
H2056 C2033 0.950 . S
H2057 C2035 0.950 . S
C2058 C2059 1.349 . S
C2058 C2060 1.327 . S
C2058 H2083 0.950 . S
C2059 C2058 1.349 . S
C2059 C2075 1.349 . S
C2060 C2058 1.327 . S
C2060 C2079 1.429 . S
C2060 H2084 0.950 . S
C2061 C2078 1.574 1_455 S
C2061 C2080 1.368 . S
C2061 H2085 0.949 . S
H2062 C2066 0.949 . S
C2063 C2064 1.349 . S
C2063 C2065 1.327 . S
C2063 H2086 0.950 . S
C2064 C2063 1.349 . S
C2064 C2076 1.349 . S
C2065 C2063 1.327 . S
C2065 C2081 1.429 . S
C2065 H2087 0.950 . S
C2066 H2062 0.949 . S
C2066 C2074 1.574 1_655 S
C2066 C2082 1.368 . S
H2067 C2075 0.950 . S
H2068 C2073 0.950 . S
H2069 C2074 0.949 . S
H2070 C2076 0.950 . S
H2071 C2077 0.950 . S
H2072 C2078 0.949 . S
C2073 H2068 0.950 . S
C2073 C2075 1.327 . S
C2073 C2079 1.429 . S
C2074 C2066 1.574 1_455 S
C2074 H2069 0.949 . S
C2074 C2080 1.368 . S
C2075 C2059 1.349 . S
C2075 H2067 0.950 . S
C2075 C2073 1.327 . S
C2076 C2064 1.349 . S
C2076 H2070 0.950 . S
C2076 C2077 1.327 . S
C2077 H2071 0.950 . S
C2077 C2076 1.327 . S
C2077 C2081 1.429 . S
C2078 C2061 1.574 1_655 S
C2078 H2072 0.949 . S
C2078 C2082 1.368 . S
C2079 C2060 1.429 . S
C2079 C2073 1.429 . S
C2079 C2080 1.523 . S
C2080 C2061 1.368 . S
C2080 C2074 1.368 . S
C2080 C2079 1.523 . S
C2081 C2065 1.429 . S
C2081 C2077 1.429 . S
C2081 C2082 1.523 . S
C2082 C2066 1.368 . S
C2082 C2078 1.368 . S
C2082 C2081 1.523 . S
H2083 C2058 0.950 . S
H2084 C2060 0.950 . S
H2085 C2061 0.949 . S
H2086 C2063 0.950 . S
H2087 C2065 0.950 . S
C2088 C2089 1.349 . S
C2088 C2090 1.327 . S
C2088 H2113 0.950 . S
C2089 C2088 1.349 . S
C2089 C2105 1.349 . S
C2090 C2088 1.327 . S
C2090 C2109 1.429 . S
C2090 H2114 0.950 . S
C2091 C2108 1.574 1_545 S
C2091 C2110 1.368 . S
C2091 H2115 0.949 . S
H2092 C2096 0.949 . S
C2093 C2094 1.349 . S
C2093 C2095 1.327 . S
C2093 H2116 0.950 . S
C2094 C2093 1.349 . S
C2094 C2106 1.349 . S
C2095 C2093 1.327 . S
C2095 C2111 1.429 . S
C2095 H2117 0.950 . S
C2096 H2092 0.949 . S
C2096 C2104 1.574 1_565 S
C2096 C2112 1.368 . S
H2097 C2105 0.950 . S
H2098 C2103 0.950 . S
H2099 C2104 0.949 . S
H2100 C2106 0.950 . S
H2101 C2107 0.950 . S
H2102 C2108 0.949 . S
C2103 H2098 0.950 . S
C2103 C2105 1.327 . S
C2103 C2109 1.429 . S
C2104 C2096 1.574 1_545 S
C2104 H2099 0.949 . S
C2104 C2110 1.368 . S
C2105 C2089 1.349 . S
C2105 H2097 0.950 . S
C2105 C2103 1.327 . S
C2106 C2094 1.349 . S
C2106 H2100 0.950 . S
C2106 C2107 1.327 . S
C2107 H2101 0.950 . S
C2107 C2106 1.327 . S
C2107 C2111 1.429 . S
C2108 C2091 1.574 1_565 S
C2108 H2102 0.949 . S
C2108 C2112 1.368 . S
C2109 C2090 1.429 . S
C2109 C2103 1.429 . S
C2109 C2110 1.523 . S
C2110 C2091 1.368 . S
C2110 C2104 1.368 . S
C2110 C2109 1.523 . S
C2111 C2095 1.429 . S
C2111 C2107 1.429 . S
C2111 C2112 1.523 . S
C2112 C2096 1.368 . S
C2112 C2108 1.368 . S
C2112 C2111 1.523 . S
H2113 C2088 0.950 . S
H2114 C2090 0.950 . S
H2115 C2091 0.949 . S
H2116 C2093 0.950 . S
H2117 C2095 0.950 . S
C2118 C2119 1.349 . S
C2118 C2120 1.327 . S
C2118 H2143 0.950 . S
C2119 C2118 1.349 . S
C2119 C2135 1.349 . S
C2120 C2118 1.327 . S
C2120 C2139 1.429 . S
C2120 H2144 0.950 . S
C2121 C2138 1.574 . S
C2121 C2140 1.368 . S
C2121 H2145 0.949 . S
H2122 C2126 0.949 . S
C2123 C2124 1.349 . S
C2123 C2125 1.327 . S
C2123 H2146 0.950 . S
C2124 C2123 1.349 . S
C2124 C2136 1.349 . S
C2125 C2123 1.327 . S
C2125 C2141 1.429 . S
C2125 H2147 0.950 . S
C2126 H2122 0.949 . S
C2126 C2134 1.574 . S
C2126 C2142 1.368 . S
H2127 C2135 0.950 . S
H2128 C2133 0.950 . S
H2129 C2134 0.949 . S
H2130 C2136 0.950 . S
H2131 C2137 0.950 . S
H2132 C2138 0.949 . S
C2133 H2128 0.950 . S
C2133 C2135 1.327 . S
C2133 C2139 1.429 . S
C2134 C2126 1.574 . S
C2134 H2129 0.949 . S
C2134 C2140 1.368 . S
C2135 C2119 1.349 . S
C2135 H2127 0.950 . S
C2135 C2133 1.327 . S
C2136 C2124 1.349 . S
C2136 H2130 0.950 . S
C2136 C2137 1.327 . S
C2137 H2131 0.950 . S
C2137 C2136 1.327 . S
C2137 C2141 1.429 . S
C2138 C2121 1.574 . S
C2138 H2132 0.949 . S
C2138 C2142 1.368 . S
C2139 C2120 1.429 . S
C2139 C2133 1.429 . S
C2139 C2140 1.523 . S
C2140 C2121 1.368 . S
C2140 C2134 1.368 . S
C2140 C2139 1.523 . S
C2141 C2125 1.429 . S
C2141 C2137 1.429 . S
C2141 C2142 1.523 . S
C2142 C2126 1.368 . S
C2142 C2138 1.368 . S
C2142 C2141 1.523 . S
H2143 C2118 0.950 . S
H2144 C2120 0.950 . S
H2145 C2121 0.949 . S
H2146 C2123 0.950 . S
H2147 C2125 0.950 . S
C2148 C2149 1.349 . S
C2148 C2150 1.327 . S
C2148 H2173 0.950 . S
C2149 C2148 1.349 . S
C2149 C2165 1.349 . S
C2150 C2148 1.327 . S
C2150 C2169 1.429 . S
C2150 H2174 0.950 . S
C2151 C2168 1.574 1_565 S
C2151 C2170 1.368 . S
C2151 H2175 0.949 . S
H2152 C2156 0.949 . S
C2153 C2154 1.349 . S
C2153 C2155 1.327 . S
C2153 H2176 0.950 . S
C2154 C2153 1.349 . S
C2154 C2166 1.349 . S
C2155 C2153 1.327 . S
C2155 C2171 1.429 . S
C2155 H2177 0.950 . S
C2156 H2152 0.949 . S
C2156 C2164 1.574 1_545 S
C2156 C2172 1.368 . S
H2157 C2165 0.950 . S
H2158 C2163 0.950 . S
H2159 C2164 0.949 . S
H2160 C2166 0.950 . S
H2161 C2167 0.950 . S
H2162 C2168 0.949 . S
C2163 H2158 0.950 . S
C2163 C2165 1.327 . S
C2163 C2169 1.429 . S
C2164 C2156 1.574 1_565 S
C2164 H2159 0.949 . S
C2164 C2170 1.368 . S
C2165 C2149 1.349 . S
C2165 H2157 0.950 . S
C2165 C2163 1.327 . S
C2166 C2154 1.349 . S
C2166 H2160 0.950 . S
C2166 C2167 1.327 . S
C2167 H2161 0.950 . S
C2167 C2166 1.327 . S
C2167 C2171 1.429 . S
C2168 C2151 1.574 1_545 S
C2168 H2162 0.949 . S
C2168 C2172 1.368 . S
C2169 C2150 1.429 . S
C2169 C2163 1.429 . S
C2169 C2170 1.523 . S
C2170 C2151 1.368 . S
C2170 C2164 1.368 . S
C2170 C2169 1.523 . S
C2171 C2155 1.429 . S
C2171 C2167 1.429 . S
C2171 C2172 1.523 . S
C2172 C2156 1.368 . S
C2172 C2168 1.368 . S
C2172 C2171 1.523 . S
H2173 C2148 0.950 . S
H2174 C2150 0.950 . S
H2175 C2151 0.949 . S
H2176 C2153 0.950 . S
H2177 C2155 0.950 . S
C2178 C2179 1.349 . S
C2178 C2180 1.327 . S
C2178 H2203 0.950 . S
C2179 C2178 1.349 . S
C2179 C2195 1.349 . S
C2180 C2178 1.327 . S
C2180 C2199 1.429 . S
C2180 H2204 0.950 . S
C2181 C2198 1.574 . S
C2181 C2200 1.368 . S
C2181 H2205 0.949 . S
H2182 C2186 0.949 . S
C2183 C2184 1.349 . S
C2183 C2185 1.327 . S
C2183 H2206 0.950 . S
C2184 C2183 1.349 . S
C2184 C2196 1.349 . S
C2185 C2183 1.327 . S
C2185 C2201 1.429 . S
C2185 H2207 0.950 . S
C2186 H2182 0.949 . S
C2186 C2194 1.574 . S
C2186 C2202 1.368 . S
H2187 C2195 0.950 . S
H2188 C2193 0.950 . S
H2189 C2194 0.949 . S
H2190 C2196 0.950 . S
H2191 C2197 0.950 . S
H2192 C2198 0.949 . S
C2193 H2188 0.950 . S
C2193 C2195 1.327 . S
C2193 C2199 1.429 . S
C2194 C2186 1.574 . S
C2194 H2189 0.949 . S
C2194 C2200 1.368 . S
C2195 C2179 1.349 . S
C2195 H2187 0.950 . S
C2195 C2193 1.327 . S
C2196 C2184 1.349 . S
C2196 H2190 0.950 . S
C2196 C2197 1.327 . S
C2197 H2191 0.950 . S
C2197 C2196 1.327 . S
C2197 C2201 1.429 . S
C2198 C2181 1.574 . S
C2198 H2192 0.949 . S
C2198 C2202 1.368 . S
C2199 C2180 1.429 . S
C2199 C2193 1.429 . S
C2199 C2200 1.523 . S
C2200 C2181 1.368 . S
C2200 C2194 1.368 . S
C2200 C2199 1.523 . S
C2201 C2185 1.429 . S
C2201 C2197 1.429 . S
C2201 C2202 1.523 . S
C2202 C2186 1.368 . S
C2202 C2198 1.368 . S
C2202 C2201 1.523 . S
H2203 C2178 0.950 . S
H2204 C2180 0.950 . S
H2205 C2181 0.949 . S
H2206 C2183 0.950 . S
H2207 C2185 0.950 . S
C2208 C2209 1.349 . S
C2208 C2210 1.327 . S
C2208 H2233 0.950 . S
C2209 C2208 1.349 . S
C2209 C2225 1.349 . S
C2210 C2208 1.327 . S
C2210 C2229 1.429 . S
C2210 H2234 0.950 . S
C2211 C2228 1.574 1_655 S
C2211 C2230 1.368 . S
C2211 H2235 0.949 . S
H2212 C2216 0.949 . S
C2213 C2214 1.349 . S
C2213 C2215 1.327 . S
C2213 H2236 0.950 . S
C2214 C2213 1.349 . S
C2214 C2226 1.349 . S
C2215 C2213 1.327 . S
C2215 C2231 1.429 . S
C2215 H2237 0.950 . S
C2216 H2212 0.949 . S
C2216 C2224 1.574 1_455 S
C2216 C2232 1.368 . S
H2217 C2225 0.950 . S
H2218 C2223 0.950 . S
H2219 C2224 0.949 . S
H2220 C2226 0.950 . S
H2221 C2227 0.950 . S
H2222 C2228 0.949 . S
C2223 H2218 0.950 . S
C2223 C2225 1.327 . S
C2223 C2229 1.429 . S
C2224 C2216 1.574 1_655 S
C2224 H2219 0.949 . S
C2224 C2230 1.368 . S
C2225 C2209 1.349 . S
C2225 H2217 0.950 . S
C2225 C2223 1.327 . S
C2226 C2214 1.349 . S
C2226 H2220 0.950 . S
C2226 C2227 1.327 . S
C2227 H2221 0.950 . S
C2227 C2226 1.327 . S
C2227 C2231 1.429 . S
C2228 C2211 1.574 1_455 S
C2228 H2222 0.949 . S
C2228 C2232 1.368 . S
C2229 C2210 1.429 . S
C2229 C2223 1.429 . S
C2229 C2230 1.523 . S
C2230 C2211 1.368 . S
C2230 C2224 1.368 . S
C2230 C2229 1.523 . S
C2231 C2215 1.429 . S
C2231 C2227 1.429 . S
C2231 C2232 1.523 . S
C2232 C2216 1.368 . S
C2232 C2228 1.368 . S
C2232 C2231 1.523 . S
H2233 C2208 0.950 . S
H2234 C2210 0.950 . S
H2235 C2211 0.949 . S
H2236 C2213 0.950 . S
H2237 C2215 0.950 . S
C2238 C2239 1.349 . S
C2238 C2240 1.327 . S
C2238 H2263 0.950 . S
C2239 C2238 1.349 . S
C2239 C2255 1.349 . S
C2240 C2238 1.327 . S
C2240 C2259 1.429 . S
C2240 H2264 0.950 . S
C2241 C2258 1.574 1_565 S
C2241 C2260 1.368 . S
C2241 H2265 0.949 . S
H2242 C2246 0.949 . S
C2243 C2244 1.349 . S
C2243 C2245 1.327 . S
C2243 H2266 0.950 . S
C2244 C2243 1.349 . S
C2244 C2256 1.349 . S
C2245 C2243 1.327 . S
C2245 C2261 1.429 . S
C2245 H2267 0.950 . S
C2246 H2242 0.949 . S
C2246 C2254 1.574 1_545 S
C2246 C2262 1.368 . S
H2247 C2255 0.950 . S
H2248 C2253 0.950 . S
H2249 C2254 0.949 . S
H2250 C2256 0.950 . S
H2251 C2257 0.950 . S
H2252 C2258 0.949 . S
C2253 H2248 0.950 . S
C2253 C2255 1.327 . S
C2253 C2259 1.429 . S
C2254 C2246 1.574 1_565 S
C2254 H2249 0.949 . S
C2254 C2260 1.368 . S
C2255 C2239 1.349 . S
C2255 H2247 0.950 . S
C2255 C2253 1.327 . S
C2256 C2244 1.349 . S
C2256 H2250 0.950 . S
C2256 C2257 1.327 . S
C2257 H2251 0.950 . S
C2257 C2256 1.327 . S
C2257 C2261 1.429 . S
C2258 C2241 1.574 1_545 S
C2258 H2252 0.949 . S
C2258 C2262 1.368 . S
C2259 C2240 1.429 . S
C2259 C2253 1.429 . S
C2259 C2260 1.523 . S
C2260 C2241 1.368 . S
C2260 C2254 1.368 . S
C2260 C2259 1.523 . S
C2261 C2245 1.429 . S
C2261 C2257 1.429 . S
C2261 C2262 1.523 . S
C2262 C2246 1.368 . S
C2262 C2258 1.368 . S
C2262 C2261 1.523 . S
H2263 C2238 0.950 . S
H2264 C2240 0.950 . S
H2265 C2241 0.949 . S
H2266 C2243 0.950 . S
H2267 C2245 0.950 . S
C2268 C2269 1.349 . S
C2268 C2270 1.327 . S
C2268 H2293 0.950 . S
C2269 C2268 1.349 . S
C2269 C2285 1.349 . S
C2270 C2268 1.327 . S
C2270 C2289 1.429 . S
C2270 H2294 0.950 . S
C2271 C2288 1.574 . S
C2271 C2290 1.368 . S
C2271 H2295 0.949 . S
H2272 C2276 0.949 . S
C2273 C2274 1.349 . S
C2273 C2275 1.327 . S
C2273 H2296 0.950 . S
C2274 C2273 1.349 . S
C2274 C2286 1.349 . S
C2275 C2273 1.327 . S
C2275 C2291 1.429 . S
C2275 H2297 0.950 . S
C2276 H2272 0.949 . S
C2276 C2284 1.574 . S
C2276 C2292 1.368 . S
H2277 C2285 0.950 . S
H2278 C2283 0.950 . S
H2279 C2284 0.949 . S
H2280 C2286 0.950 . S
H2281 C2287 0.950 . S
H2282 C2288 0.949 . S
C2283 H2278 0.950 . S
C2283 C2285 1.327 . S
C2283 C2289 1.429 . S
C2284 C2276 1.574 . S
C2284 H2279 0.949 . S
C2284 C2290 1.368 . S
C2285 C2269 1.349 . S
C2285 H2277 0.950 . S
C2285 C2283 1.327 . S
C2286 C2274 1.349 . S
C2286 H2280 0.950 . S
C2286 C2287 1.327 . S
C2287 H2281 0.950 . S
C2287 C2286 1.327 . S
C2287 C2291 1.429 . S
C2288 C2271 1.574 . S
C2288 H2282 0.949 . S
C2288 C2292 1.368 . S
C2289 C2270 1.429 . S
C2289 C2283 1.429 . S
C2289 C2290 1.523 . S
C2290 C2271 1.368 . S
C2290 C2284 1.368 . S
C2290 C2289 1.523 . S
C2291 C2275 1.429 . S
C2291 C2287 1.429 . S
C2291 C2292 1.523 . S
C2292 C2276 1.368 . S
C2292 C2288 1.368 . S
C2292 C2291 1.523 . S
H2293 C2268 0.950 . S
H2294 C2270 0.950 . S
H2295 C2271 0.949 . S
H2296 C2273 0.950 . S
H2297 C2275 0.950 . S
C2298 C2299 1.349 . S
C2298 C2300 1.327 . S
C2298 H2323 0.950 . S
C2299 C2298 1.349 . S
C2299 C2315 1.349 . S
C2300 C2298 1.327 . S
C2300 C2319 1.429 . S
C2300 H2324 0.950 . S
C2301 C2318 1.574 1_655 S
C2301 C2320 1.368 . S
C2301 H2325 0.949 . S
H2302 C2306 0.949 . S
C2303 C2304 1.349 . S
C2303 C2305 1.327 . S
C2303 H2326 0.950 . S
C2304 C2303 1.349 . S
C2304 C2316 1.349 . S
C2305 C2303 1.327 . S
C2305 C2321 1.429 . S
C2305 H2327 0.950 . S
C2306 H2302 0.949 . S
C2306 C2314 1.574 1_455 S
C2306 C2322 1.368 . S
H2307 C2315 0.950 . S
H2308 C2313 0.950 . S
H2309 C2314 0.949 . S
H2310 C2316 0.950 . S
H2311 C2317 0.950 . S
H2312 C2318 0.949 . S
C2313 H2308 0.950 . S
C2313 C2315 1.327 . S
C2313 C2319 1.429 . S
C2314 C2306 1.574 1_655 S
C2314 H2309 0.949 . S
C2314 C2320 1.368 . S
C2315 C2299 1.349 . S
C2315 H2307 0.950 . S
C2315 C2313 1.327 . S
C2316 C2304 1.349 . S
C2316 H2310 0.950 . S
C2316 C2317 1.327 . S
C2317 H2311 0.950 . S
C2317 C2316 1.327 . S
C2317 C2321 1.429 . S
C2318 C2301 1.574 1_455 S
C2318 H2312 0.949 . S
C2318 C2322 1.368 . S
C2319 C2300 1.429 . S
C2319 C2313 1.429 . S
C2319 C2320 1.523 . S
C2320 C2301 1.368 . S
C2320 C2314 1.368 . S
C2320 C2319 1.523 . S
C2321 C2305 1.429 . S
C2321 C2317 1.429 . S
C2321 C2322 1.523 . S
C2322 C2306 1.368 . S
C2322 C2318 1.368 . S
C2322 C2321 1.523 . S
H2323 C2298 0.950 . S
H2324 C2300 0.950 . S
H2325 C2301 0.949 . S
H2326 C2303 0.950 . S
H2327 C2305 0.950 . S
C2328 C2329 1.349 . S
C2328 C2330 1.327 . S
C2328 H2353 0.950 . S
C2329 C2328 1.349 . S
C2329 C2345 1.349 . S
C2330 C2328 1.327 . S
C2330 C2349 1.429 . S
C2330 H2354 0.950 . S
C2331 C2348 1.574 1_556 S
C2331 C2350 1.368 . S
C2331 H2355 0.949 . S
H2332 C2336 0.949 . S
C2333 C2334 1.349 . S
C2333 C2335 1.327 . S
C2333 H2356 0.950 . S
C2334 C2333 1.349 . S
C2334 C2346 1.349 . S
C2335 C2333 1.327 . S
C2335 C2351 1.429 . S
C2335 H2357 0.950 . S
C2336 H2332 0.949 . S
C2336 C2344 1.574 1_554 S
C2336 C2352 1.368 . S
H2337 C2345 0.950 . S
H2338 C2343 0.950 . S
H2339 C2344 0.949 . S
H2340 C2346 0.950 . S
H2341 C2347 0.950 . S
H2342 C2348 0.949 . S
C2343 H2338 0.950 . S
C2343 C2345 1.327 . S
C2343 C2349 1.429 . S
C2344 C2336 1.574 1_556 S
C2344 H2339 0.949 . S
C2344 C2350 1.368 . S
C2345 C2329 1.349 . S
C2345 H2337 0.950 . S
C2345 C2343 1.327 . S
C2346 C2334 1.349 . S
C2346 H2340 0.950 . S
C2346 C2347 1.327 . S
C2347 H2341 0.950 . S
C2347 C2346 1.327 . S
C2347 C2351 1.429 . S
C2348 C2331 1.574 1_554 S
C2348 H2342 0.949 . S
C2348 C2352 1.368 . S
C2349 C2330 1.429 . S
C2349 C2343 1.429 . S
C2349 C2350 1.523 . S
C2350 C2331 1.368 . S
C2350 C2344 1.368 . S
C2350 C2349 1.523 . S
C2351 C2335 1.429 . S
C2351 C2347 1.429 . S
C2351 C2352 1.523 . S
C2352 C2336 1.368 . S
C2352 C2348 1.368 . S
C2352 C2351 1.523 . S
H2353 C2328 0.950 . S
H2354 C2330 0.950 . S
H2355 C2331 0.949 . S
H2356 C2333 0.950 . S
H2357 C2335 0.950 . S
C2358 C2359 1.349 . S
C2358 C2360 1.327 . S
C2358 H2383 0.950 . S
C2359 C2358 1.349 . S
C2359 C2375 1.349 . S
C2360 C2358 1.327 . S
C2360 C2379 1.429 . S
C2360 H2384 0.950 . S
C2361 C2378 1.574 . S
C2361 C2380 1.368 . S
C2361 H2385 0.949 . S
H2362 C2366 0.949 . S
C2363 C2364 1.349 . S
C2363 C2365 1.327 . S
C2363 H2386 0.950 . S
C2364 C2363 1.349 . S
C2364 C2376 1.349 . S
C2365 C2363 1.327 . S
C2365 C2381 1.429 . S
C2365 H2387 0.950 . S
C2366 H2362 0.949 . S
C2366 C2374 1.574 . S
C2366 C2382 1.368 . S
H2367 C2375 0.950 . S
H2368 C2373 0.950 . S
H2369 C2374 0.949 . S
H2370 C2376 0.950 . S
H2371 C2377 0.950 . S
H2372 C2378 0.949 . S
C2373 H2368 0.950 . S
C2373 C2375 1.327 . S
C2373 C2379 1.429 . S
C2374 C2366 1.574 . S
C2374 H2369 0.949 . S
C2374 C2380 1.368 . S
C2375 C2359 1.349 . S
C2375 H2367 0.950 . S
C2375 C2373 1.327 . S
C2376 C2364 1.349 . S
C2376 H2370 0.950 . S
C2376 C2377 1.327 . S
C2377 H2371 0.950 . S
C2377 C2376 1.327 . S
C2377 C2381 1.429 . S
C2378 C2361 1.574 . S
C2378 H2372 0.949 . S
C2378 C2382 1.368 . S
C2379 C2360 1.429 . S
C2379 C2373 1.429 . S
C2379 C2380 1.523 . S
C2380 C2361 1.368 . S
C2380 C2374 1.368 . S
C2380 C2379 1.523 . S
C2381 C2365 1.429 . S
C2381 C2377 1.429 . S
C2381 C2382 1.523 . S
C2382 C2366 1.368 . S
C2382 C2378 1.368 . S
C2382 C2381 1.523 . S
H2383 C2358 0.950 . S
H2384 C2360 0.950 . S
H2385 C2361 0.949 . S
H2386 C2363 0.950 . S
H2387 C2365 0.950 . S
C2388 C2389 1.349 . S
C2388 C2390 1.327 . S
C2388 H2413 0.950 . S
C2389 C2388 1.349 . S
C2389 C2405 1.349 . S
C2390 C2388 1.327 . S
C2390 C2409 1.429 . S
C2390 H2414 0.950 . S
C2391 C2408 1.574 1_554 S
C2391 C2410 1.368 . S
C2391 H2415 0.949 . S
H2392 C2396 0.949 . S
C2393 C2394 1.349 . S
C2393 C2395 1.327 . S
C2393 H2416 0.950 . S
C2394 C2393 1.349 . S
C2394 C2406 1.349 . S
C2395 C2393 1.327 . S
C2395 C2411 1.429 . S
C2395 H2417 0.950 . S
C2396 H2392 0.949 . S
C2396 C2404 1.574 1_556 S
C2396 C2412 1.368 . S
H2397 C2405 0.950 . S
H2398 C2403 0.950 . S
H2399 C2404 0.949 . S
H2400 C2406 0.950 . S
H2401 C2407 0.950 . S
H2402 C2408 0.949 . S
C2403 H2398 0.950 . S
C2403 C2405 1.327 . S
C2403 C2409 1.429 . S
C2404 C2396 1.574 1_554 S
C2404 H2399 0.949 . S
C2404 C2410 1.368 . S
C2405 C2389 1.349 . S
C2405 H2397 0.950 . S
C2405 C2403 1.327 . S
C2406 C2394 1.349 . S
C2406 H2400 0.950 . S
C2406 C2407 1.327 . S
C2407 H2401 0.950 . S
C2407 C2406 1.327 . S
C2407 C2411 1.429 . S
C2408 C2391 1.574 1_556 S
C2408 H2402 0.949 . S
C2408 C2412 1.368 . S
C2409 C2390 1.429 . S
C2409 C2403 1.429 . S
C2409 C2410 1.523 . S
C2410 C2391 1.368 . S
C2410 C2404 1.368 . S
C2410 C2409 1.523 . S
C2411 C2395 1.429 . S
C2411 C2407 1.429 . S
C2411 C2412 1.523 . S
C2412 C2396 1.368 . S
C2412 C2408 1.368 . S
C2412 C2411 1.523 . S
H2413 C2388 0.950 . S
H2414 C2390 0.950 . S
H2415 C2391 0.949 . S
H2416 C2393 0.950 . S
H2417 C2395 0.950 . S
C2418 C2419 1.349 . S
C2418 C2420 1.327 . S
C2418 H2443 0.950 . S
C2419 C2418 1.349 . S
C2419 C2435 1.349 . S
C2420 C2418 1.327 . S
C2420 C2439 1.429 . S
C2420 H2444 0.950 . S
C2421 C2438 1.574 . S
C2421 C2440 1.368 . S
C2421 H2445 0.949 . S
H2422 C2426 0.949 . S
C2423 C2424 1.349 . S
C2423 C2425 1.327 . S
C2423 H2446 0.950 . S
C2424 C2423 1.349 . S
C2424 C2436 1.349 . S
C2425 C2423 1.327 . S
C2425 C2441 1.429 . S
C2425 H2447 0.950 . S
C2426 H2422 0.949 . S
C2426 C2434 1.574 . S
C2426 C2442 1.368 . S
H2427 C2435 0.950 . S
H2428 C2433 0.950 . S
H2429 C2434 0.949 . S
H2430 C2436 0.950 . S
H2431 C2437 0.950 . S
H2432 C2438 0.949 . S
C2433 H2428 0.950 . S
C2433 C2435 1.327 . S
C2433 C2439 1.429 . S
C2434 C2426 1.574 . S
C2434 H2429 0.949 . S
C2434 C2440 1.368 . S
C2435 C2419 1.349 . S
C2435 H2427 0.950 . S
C2435 C2433 1.327 . S
C2436 C2424 1.349 . S
C2436 H2430 0.950 . S
C2436 C2437 1.327 . S
C2437 H2431 0.950 . S
C2437 C2436 1.327 . S
C2437 C2441 1.429 . S
C2438 C2421 1.574 . S
C2438 H2432 0.949 . S
C2438 C2442 1.368 . S
C2439 C2420 1.429 . S
C2439 C2433 1.429 . S
C2439 C2440 1.523 . S
C2440 C2421 1.368 . S
C2440 C2434 1.368 . S
C2440 C2439 1.523 . S
C2441 C2425 1.429 . S
C2441 C2437 1.429 . S
C2441 C2442 1.523 . S
C2442 C2426 1.368 . S
C2442 C2438 1.368 . S
C2442 C2441 1.523 . S
H2443 C2418 0.950 . S
H2444 C2420 0.950 . S
H2445 C2421 0.949 . S
H2446 C2423 0.950 . S
H2447 C2425 0.950 . S
C2448 C2449 1.349 . S
C2448 C2450 1.327 . S
C2448 H2473 0.950 . S
C2449 C2448 1.349 . S
C2449 C2465 1.349 . S
C2450 C2448 1.327 . S
C2450 C2469 1.429 . S
C2450 H2474 0.950 . S
C2451 C2468 1.574 1_556 S
C2451 C2470 1.368 . S
C2451 H2475 0.949 . S
H2452 C2456 0.949 . S
C2453 C2454 1.349 . S
C2453 C2455 1.327 . S
C2453 H2476 0.950 . S
C2454 C2453 1.349 . S
C2454 C2466 1.349 . S
C2455 C2453 1.327 . S
C2455 C2471 1.429 . S
C2455 H2477 0.950 . S
C2456 H2452 0.949 . S
C2456 C2464 1.574 1_554 S
C2456 C2472 1.368 . S
H2457 C2465 0.950 . S
H2458 C2463 0.950 . S
H2459 C2464 0.949 . S
H2460 C2466 0.950 . S
H2461 C2467 0.950 . S
H2462 C2468 0.949 . S
C2463 H2458 0.950 . S
C2463 C2465 1.327 . S
C2463 C2469 1.429 . S
C2464 C2456 1.574 1_556 S
C2464 H2459 0.949 . S
C2464 C2470 1.368 . S
C2465 C2449 1.349 . S
C2465 H2457 0.950 . S
C2465 C2463 1.327 . S
C2466 C2454 1.349 . S
C2466 H2460 0.950 . S
C2466 C2467 1.327 . S
C2467 H2461 0.950 . S
C2467 C2466 1.327 . S
C2467 C2471 1.429 . S
C2468 C2451 1.574 1_554 S
C2468 H2462 0.949 . S
C2468 C2472 1.368 . S
C2469 C2450 1.429 . S
C2469 C2463 1.429 . S
C2469 C2470 1.523 . S
C2470 C2451 1.368 . S
C2470 C2464 1.368 . S
C2470 C2469 1.523 . S
C2471 C2455 1.429 . S
C2471 C2467 1.429 . S
C2471 C2472 1.523 . S
C2472 C2456 1.368 . S
C2472 C2468 1.368 . S
C2472 C2471 1.523 . S
H2473 C2448 0.950 . S
H2474 C2450 0.950 . S
H2475 C2451 0.949 . S
H2476 C2453 0.950 . S
H2477 C2455 0.950 . S
C2478 C2479 1.349 . S
C2478 C2480 1.327 . S
C2478 H2503 0.950 . S
C2479 C2478 1.349 . S
C2479 C2495 1.349 . S
C2480 C2478 1.327 . S
C2480 C2499 1.429 . S
C2480 H2504 0.950 . S
C2481 C2498 1.574 . S
C2481 C2500 1.368 . S
C2481 H2505 0.949 . S
H2482 C2486 0.949 . S
C2483 C2484 1.349 . S
C2483 C2485 1.327 . S
C2483 H2506 0.950 . S
C2484 C2483 1.349 . S
C2484 C2496 1.349 . S
C2485 C2483 1.327 . S
C2485 C2501 1.429 . S
C2485 H2507 0.950 . S
C2486 H2482 0.949 . S
C2486 C2494 1.574 . S
C2486 C2502 1.368 . S
H2487 C2495 0.950 . S
H2488 C2493 0.950 . S
H2489 C2494 0.949 . S
H2490 C2496 0.950 . S
H2491 C2497 0.950 . S
H2492 C2498 0.949 . S
C2493 H2488 0.950 . S
C2493 C2495 1.327 . S
C2493 C2499 1.429 . S
C2494 C2486 1.574 . S
C2494 H2489 0.949 . S
C2494 C2500 1.368 . S
C2495 C2479 1.349 . S
C2495 H2487 0.950 . S
C2495 C2493 1.327 . S
C2496 C2484 1.349 . S
C2496 H2490 0.950 . S
C2496 C2497 1.327 . S
C2497 H2491 0.950 . S
C2497 C2496 1.327 . S
C2497 C2501 1.429 . S
C2498 C2481 1.574 . S
C2498 H2492 0.949 . S
C2498 C2502 1.368 . S
C2499 C2480 1.429 . S
C2499 C2493 1.429 . S
C2499 C2500 1.523 . S
C2500 C2481 1.368 . S
C2500 C2494 1.368 . S
C2500 C2499 1.523 . S
C2501 C2485 1.429 . S
C2501 C2497 1.429 . S
C2501 C2502 1.523 . S
C2502 C2486 1.368 . S
C2502 C2498 1.368 . S
C2502 C2501 1.523 . S
H2503 C2478 0.950 . S
H2504 C2480 0.950 . S
H2505 C2481 0.949 . S
H2506 C2483 0.950 . S
H2507 C2485 0.950 . S
C2508 C2509 1.349 . S
C2508 C2510 1.327 . S
C2508 H2533 0.950 . S
C2509 C2508 1.349 . S
C2509 C2525 1.349 . S
C2510 C2508 1.327 . S
C2510 C2529 1.429 . S
C2510 H2534 0.950 . S
C2511 C2528 1.574 1_554 S
C2511 C2530 1.368 . S
C2511 H2535 0.949 . S
H2512 C2516 0.949 . S
C2513 C2514 1.349 . S
C2513 C2515 1.327 . S
C2513 H2536 0.950 . S
C2514 C2513 1.349 . S
C2514 C2526 1.349 . S
C2515 C2513 1.327 . S
C2515 C2531 1.429 . S
C2515 H2537 0.950 . S
C2516 H2512 0.949 . S
C2516 C2524 1.574 1_556 S
C2516 C2532 1.368 . S
H2517 C2525 0.950 . S
H2518 C2523 0.950 . S
H2519 C2524 0.949 . S
H2520 C2526 0.950 . S
H2521 C2527 0.950 . S
H2522 C2528 0.949 . S
C2523 H2518 0.950 . S
C2523 C2525 1.327 . S
C2523 C2529 1.429 . S
C2524 C2516 1.574 1_554 S
C2524 H2519 0.949 . S
C2524 C2530 1.368 . S
C2525 C2509 1.349 . S
C2525 H2517 0.950 . S
C2525 C2523 1.327 . S
C2526 C2514 1.349 . S
C2526 H2520 0.950 . S
C2526 C2527 1.327 . S
C2527 H2521 0.950 . S
C2527 C2526 1.327 . S
C2527 C2531 1.429 . S
C2528 C2511 1.574 1_556 S
C2528 H2522 0.949 . S
C2528 C2532 1.368 . S
C2529 C2510 1.429 . S
C2529 C2523 1.429 . S
C2529 C2530 1.523 . S
C2530 C2511 1.368 . S
C2530 C2524 1.368 . S
C2530 C2529 1.523 . S
C2531 C2515 1.429 . S
C2531 C2527 1.429 . S
C2531 C2532 1.523 . S
C2532 C2516 1.368 . S
C2532 C2528 1.368 . S
C2532 C2531 1.523 . S
H2533 C2508 0.950 . S
H2534 C2510 0.950 . S
H2535 C2511 0.949 . S
H2536 C2513 0.950 . S
H2537 C2515 0.950 . S
C2538 C2539 1.349 . S
C2538 C2540 1.327 . S
C2538 H2563 0.950 . S
C2539 C2538 1.349 . S
C2539 C2555 1.349 . S
C2540 C2538 1.327 . S
C2540 C2559 1.429 . S
C2540 H2564 0.950 . S
C2541 C2558 1.574 . S
C2541 C2560 1.368 . S
C2541 H2565 0.949 . S
H2542 C2546 0.949 . S
C2543 C2544 1.349 . S
C2543 C2545 1.327 . S
C2543 H2566 0.950 . S
C2544 C2543 1.349 . S
C2544 C2556 1.349 . S
C2545 C2543 1.327 . S
C2545 C2561 1.429 . S
C2545 H2567 0.950 . S
C2546 H2542 0.949 . S
C2546 C2554 1.574 . S
C2546 C2562 1.368 . S
H2547 C2555 0.950 . S
H2548 C2553 0.950 . S
H2549 C2554 0.949 . S
H2550 C2556 0.950 . S
H2551 C2557 0.950 . S
H2552 C2558 0.949 . S
C2553 H2548 0.950 . S
C2553 C2555 1.327 . S
C2553 C2559 1.429 . S
C2554 C2546 1.574 . S
C2554 H2549 0.949 . S
C2554 C2560 1.368 . S
C2555 C2539 1.349 . S
C2555 H2547 0.950 . S
C2555 C2553 1.327 . S
C2556 C2544 1.349 . S
C2556 H2550 0.950 . S
C2556 C2557 1.327 . S
C2557 H2551 0.950 . S
C2557 C2556 1.327 . S
C2557 C2561 1.429 . S
C2558 C2541 1.574 . S
C2558 H2552 0.949 . S
C2558 C2562 1.368 . S
C2559 C2540 1.429 . S
C2559 C2553 1.429 . S
C2559 C2560 1.523 . S
C2560 C2541 1.368 . S
C2560 C2554 1.368 . S
C2560 C2559 1.523 . S
C2561 C2545 1.429 . S
C2561 C2557 1.429 . S
C2561 C2562 1.523 . S
C2562 C2546 1.368 . S
C2562 C2558 1.368 . S
C2562 C2561 1.523 . S
H2563 C2538 0.950 . S
H2564 C2540 0.950 . S
H2565 C2541 0.949 . S
H2566 C2543 0.950 . S
H2567 C2545 0.950 . S
C2568 C2569 1.349 . S
C2568 C2570 1.327 . S
C2568 H2593 0.950 . S
C2569 C2568 1.349 . S
C2569 C2585 1.349 . S
C2570 C2568 1.327 . S
C2570 C2589 1.429 . S
C2570 H2594 0.950 . S
C2571 C2588 1.574 1_554 S
C2571 C2590 1.368 . S
C2571 H2595 0.949 . S
H2572 C2576 0.949 . S
C2573 C2574 1.349 . S
C2573 C2575 1.327 . S
C2573 H2596 0.950 . S
C2574 C2573 1.349 . S
C2574 C2586 1.349 . S
C2575 C2573 1.327 . S
C2575 C2591 1.429 . S
C2575 H2597 0.950 . S
C2576 H2572 0.949 . S
C2576 C2584 1.574 1_556 S
C2576 C2592 1.368 . S
H2577 C2585 0.950 . S
H2578 C2583 0.950 . S
H2579 C2584 0.949 . S
H2580 C2586 0.950 . S
H2581 C2587 0.950 . S
H2582 C2588 0.949 . S
C2583 H2578 0.950 . S
C2583 C2585 1.327 . S
C2583 C2589 1.429 . S
C2584 C2576 1.574 1_554 S
C2584 H2579 0.949 . S
C2584 C2590 1.368 . S
C2585 C2569 1.349 . S
C2585 H2577 0.950 . S
C2585 C2583 1.327 . S
C2586 C2574 1.349 . S
C2586 H2580 0.950 . S
C2586 C2587 1.327 . S
C2587 H2581 0.950 . S
C2587 C2586 1.327 . S
C2587 C2591 1.429 . S
C2588 C2571 1.574 1_556 S
C2588 H2582 0.949 . S
C2588 C2592 1.368 . S
C2589 C2570 1.429 . S
C2589 C2583 1.429 . S
C2589 C2590 1.523 . S
C2590 C2571 1.368 . S
C2590 C2584 1.368 . S
C2590 C2589 1.523 . S
C2591 C2575 1.429 . S
C2591 C2587 1.429 . S
C2591 C2592 1.523 . S
C2592 C2576 1.368 . S
C2592 C2588 1.368 . S
C2592 C2591 1.523 . S
H2593 C2568 0.950 . S
H2594 C2570 0.950 . S
H2595 C2571 0.949 . S
H2596 C2573 0.950 . S
H2597 C2575 0.950 . S
C2598 C2599 1.349 . S
C2598 C2600 1.327 . S
C2598 H2623 0.950 . S
C2599 C2598 1.349 . S
C2599 C2615 1.349 . S
C2600 C2598 1.327 . S
C2600 C2619 1.429 . S
C2600 H2624 0.950 . S
C2601 C2618 1.574 . S
C2601 C2620 1.368 . S
C2601 H2625 0.949 . S
H2602 C2606 0.949 . S
C2603 C2604 1.349 . S
C2603 C2605 1.327 . S
C2603 H2626 0.950 . S
C2604 C2603 1.349 . S
C2604 C2616 1.349 . S
C2605 C2603 1.327 . S
C2605 C2621 1.429 . S
C2605 H2627 0.950 . S
C2606 H2602 0.949 . S
C2606 C2614 1.574 . S
C2606 C2622 1.368 . S
H2607 C2615 0.950 . S
H2608 C2613 0.950 . S
H2609 C2614 0.949 . S
H2610 C2616 0.950 . S
H2611 C2617 0.950 . S
H2612 C2618 0.949 . S
C2613 H2608 0.950 . S
C2613 C2615 1.327 . S
C2613 C2619 1.429 . S
C2614 C2606 1.574 . S
C2614 H2609 0.949 . S
C2614 C2620 1.368 . S
C2615 C2599 1.349 . S
C2615 H2607 0.950 . S
C2615 C2613 1.327 . S
C2616 C2604 1.349 . S
C2616 H2610 0.950 . S
C2616 C2617 1.327 . S
C2617 H2611 0.950 . S
C2617 C2616 1.327 . S
C2617 C2621 1.429 . S
C2618 C2601 1.574 . S
C2618 H2612 0.949 . S
C2618 C2622 1.368 . S
C2619 C2600 1.429 . S
C2619 C2613 1.429 . S
C2619 C2620 1.523 . S
C2620 C2601 1.368 . S
C2620 C2614 1.368 . S
C2620 C2619 1.523 . S
C2621 C2605 1.429 . S
C2621 C2617 1.429 . S
C2621 C2622 1.523 . S
C2622 C2606 1.368 . S
C2622 C2618 1.368 . S
C2622 C2621 1.523 . S
H2623 C2598 0.950 . S
H2624 C2600 0.950 . S
H2625 C2601 0.949 . S
H2626 C2603 0.950 . S
H2627 C2605 0.950 . S
C2628 C2629 1.349 . S
C2628 C2630 1.327 . S
C2628 H2653 0.950 . S
C2629 C2628 1.349 . S
C2629 C2645 1.349 . S
C2630 C2628 1.327 . S
C2630 C2649 1.429 . S
C2630 H2654 0.950 . S
C2631 C2648 1.574 1_554 S
C2631 C2650 1.368 . S
C2631 H2655 0.949 . S
H2632 C2636 0.949 . S
C2633 C2634 1.349 . S
C2633 C2635 1.327 . S
C2633 H2656 0.950 . S
C2634 C2633 1.349 . S
C2634 C2646 1.349 . S
C2635 C2633 1.327 . S
C2635 C2651 1.429 . S
C2635 H2657 0.950 . S
C2636 H2632 0.949 . S
C2636 C2644 1.574 1_556 S
C2636 C2652 1.368 . S
H2637 C2645 0.950 . S
H2638 C2643 0.950 . S
H2639 C2644 0.949 . S
H2640 C2646 0.950 . S
H2641 C2647 0.950 . S
H2642 C2648 0.949 . S
C2643 H2638 0.950 . S
C2643 C2645 1.327 . S
C2643 C2649 1.429 . S
C2644 C2636 1.574 1_554 S
C2644 H2639 0.949 . S
C2644 C2650 1.368 . S
C2645 C2629 1.349 . S
C2645 H2637 0.950 . S
C2645 C2643 1.327 . S
C2646 C2634 1.349 . S
C2646 H2640 0.950 . S
C2646 C2647 1.327 . S
C2647 H2641 0.950 . S
C2647 C2646 1.327 . S
C2647 C2651 1.429 . S
C2648 C2631 1.574 1_556 S
C2648 H2642 0.949 . S
C2648 C2652 1.368 . S
C2649 C2630 1.429 . S
C2649 C2643 1.429 . S
C2649 C2650 1.523 . S
C2650 C2631 1.368 . S
C2650 C2644 1.368 . S
C2650 C2649 1.523 . S
C2651 C2635 1.429 . S
C2651 C2647 1.429 . S
C2651 C2652 1.523 . S
C2652 C2636 1.368 . S
C2652 C2648 1.368 . S
C2652 C2651 1.523 . S
H2653 C2628 0.950 . S
H2654 C2630 0.950 . S
H2655 C2631 0.949 . S
H2656 C2633 0.950 . S
H2657 C2635 0.950 . S
C2658 C2659 1.349 . S
C2658 C2660 1.327 . S
C2658 H2683 0.950 . S
C2659 C2658 1.349 . S
C2659 C2675 1.349 . S
C2660 C2658 1.327 . S
C2660 C2679 1.429 . S
C2660 H2684 0.950 . S
C2661 C2678 1.574 . S
C2661 C2680 1.368 . S
C2661 H2685 0.949 . S
H2662 C2666 0.949 . S
C2663 C2664 1.349 . S
C2663 C2665 1.327 . S
C2663 H2686 0.950 . S
C2664 C2663 1.349 . S
C2664 C2676 1.349 . S
C2665 C2663 1.327 . S
C2665 C2681 1.429 . S
C2665 H2687 0.950 . S
C2666 H2662 0.949 . S
C2666 C2674 1.574 . S
C2666 C2682 1.368 . S
H2667 C2675 0.950 . S
H2668 C2673 0.950 . S
H2669 C2674 0.949 . S
H2670 C2676 0.950 . S
H2671 C2677 0.950 . S
H2672 C2678 0.949 . S
C2673 H2668 0.950 . S
C2673 C2675 1.327 . S
C2673 C2679 1.429 . S
C2674 C2666 1.574 . S
C2674 H2669 0.949 . S
C2674 C2680 1.368 . S
C2675 C2659 1.349 . S
C2675 H2667 0.950 . S
C2675 C2673 1.327 . S
C2676 C2664 1.349 . S
C2676 H2670 0.950 . S
C2676 C2677 1.327 . S
C2677 H2671 0.950 . S
C2677 C2676 1.327 . S
C2677 C2681 1.429 . S
C2678 C2661 1.574 . S
C2678 H2672 0.949 . S
C2678 C2682 1.368 . S
C2679 C2660 1.429 . S
C2679 C2673 1.429 . S
C2679 C2680 1.523 . S
C2680 C2661 1.368 . S
C2680 C2674 1.368 . S
C2680 C2679 1.523 . S
C2681 C2665 1.429 . S
C2681 C2677 1.429 . S
C2681 C2682 1.523 . S
C2682 C2666 1.368 . S
C2682 C2678 1.368 . S
C2682 C2681 1.523 . S
H2683 C2658 0.950 . S
H2684 C2660 0.950 . S
H2685 C2661 0.949 . S
H2686 C2663 0.950 . S
H2687 C2665 0.950 . S
C529 C184 1.043 . S
C534 C4 1.043 . S
C559 C26 1.043 . S
C564 C206 1.043 . S
C589 C228 1.043 . S
C594 C48 1.043 . S
C619 C70 1.043 . S
C624 C250 1.043 . S
C649 C140 1.043 . S
C654 C92 1.043 . S
C679 C162 1.043 . S
C684 C114 1.043 . S
C709 C272 1.043 . S
C714 C444 1.043 . S
C739 C466 1.043 . S
C744 C294 1.043 . S
C769 C488 1.043 . S
C774 C316 1.043 . S
C799 C338 1.043 . S
C804 C510 1.043 . S
C829 C360 1.043 . S
C834 C400 1.043 . S
C859 C422 1.043 . S
C864 C382 1.043 . S
C889 C9 0.764 . S
C894 C52 0.764 . S
C919 C74 0.765 . S
C924 C31 0.765 . S
C949 C53 0.764 . S
C954 C96 0.765 . S
C979 C75 0.764 . S
C984 C118 0.765 . S
C1009 C8 0.765 . S
C1014 C97 0.765 . S
C1039 C30 0.765 . S
C1044 C119 0.764 . S
C1069 C224 0.764 . S
C1074 C137 0.764 . S
C1099 C159 0.764 . S
C1104 C246 0.765 . S
C1129 C181 0.765 . S
C1134 C136 0.765 . S
C1159 C158 0.765 . S
C1164 C203 0.764 . S
C1189 C180 0.765 . S
C1194 C225 0.764 . S
C1219 C202 0.765 . S
C1224 C247 0.765 . S
C1249 C312 0.765 . S
C1254 C270 0.764 . S
C1279 C292 0.765 . S
C1284 C334 0.765 . S
C1309 C314 0.764 . S
C1314 C356 0.765 . S
C1339 C336 0.764 . S
C1344 C378 0.765 . S
C1369 C268 0.765 . S
C1374 C358 0.765 . S
C1399 C290 0.765 . S
C1404 C380 0.764 . S
C1429 C403 0.764 . S
C1434 C492 0.764 . S
C1459 C425 0.764 . S
C1464 C514 0.765 . S
C1489 C447 0.765 . S
C1494 C404 0.765 . S
C1519 C469 0.764 . S
C1524 C426 0.765 . S
C1549 C448 0.765 . S
C1554 C491 0.764 . S
C1579 C470 0.765 . S
C1584 C513 0.765 . S
C1609 C7 1.427 . S
C1614 C335 1.427 . S
C1639 C357 1.427 . S
C1644 C29 1.427 . S
C1669 C51 1.427 . S
C1674 C379 1.427 . S
C1699 C73 1.427 . S
C1704 C269 1.427 . S
C1729 C291 1.427 . S
C1734 C95 1.427 . S
C1759 C117 1.427 . S
C1764 C313 1.427 . S
C1789 C138 1.427 . S
C1794 C471 1.427 . S
C1819 C493 1.427 . S
C1824 C160 1.427 . S
C1849 C182 1.427 . S
C1854 C515 1.427 . S
C1879 C204 1.427 . S
C1884 C405 1.427 . S
C1909 C427 1.427 . S
C1914 C226 1.427 . S
C1939 C449 1.427 . S
C1944 C248 1.427 . S
C1969 C446 1.157 . S
C1974 C5 1.157 . S
C1999 C468 1.157 . S
C2004 C27 1.157 . S
C2029 C490 1.157 . S
C2034 C49 1.157 . S
C2059 C512 1.157 . S
C2064 C71 1.157 . S
C2089 C402 1.157 . S
C2094 C93 1.157 . S
C2119 C115 1.156 . S
C2124 C424 1.156 . S
C2149 C141 1.157 . S
C2154 C359 1.157 . S
C2179 C381 1.156 . S
C2184 C163 1.156 . S
C2209 C271 1.157 . S
C2214 C185 1.157 . S
C2239 C293 1.157 . S
C2244 C207 1.157 . S
C2269 C229 1.157 . S
C2274 C315 1.157 . S
C2299 C251 1.157 . S
C2304 C337 1.157 . S
C2329 C227 0.990 . S
C2334 C6 0.990 . S
C2359 C249 0.990 . S
C2364 C28 0.990 . S
C2389 C50 0.990 . S
C2394 C139 0.990 . S
C2419 C72 0.990 . S
C2424 C161 0.990 . S
C2449 C183 0.990 . S
C2454 C94 0.990 . S
C2479 C116 0.990 . S
C2484 C205 0.990 . S
C2509 C489 0.990 . S
C2514 C273 0.990 . S
C2539 C511 0.990 . S
C2544 C295 0.990 . S
C2569 C401 0.990 . S
C2574 C317 0.990 . S
C2599 C339 0.990 . S
C2604 C423 0.990 . S
C2629 C445 0.990 . S
C2634 C361 0.990 . S
C2659 C383 0.990 . S
C2664 C467 0.990 . S
