# Generated by pormake.
# Topology lta, (4)-cn, num edge types: 1
# Building blocks:
#     Node 0, Type 0, BuildingBlock: KUFVIS_clean_sbu_0, # of connection points: 4
#     Node 1, Type 0, BuildingBlock: KUFVIS_clean_sbu_0, # of connection points: 4
#     Node 2, Type 0, BuildingBlock: KUFVIS_clean_sbu_0, # of connection points: 4
#     Node 3, Type 0, BuildingBlock: KUFVIS_clean_sbu_0, # of connection points: 4
#     Node 4, Type 0, BuildingBlock: KUFVIS_clean_sbu_0, # of connection points: 4
#     Node 5, Type 0, BuildingBlock: KUFVIS_clean_sbu_0, # of connection points: 4
#     Node 6, Type 0, BuildingBlock: KUFVIS_clean_sbu_0, # of connection points: 4
#     Node 7, Type 0, BuildingBlock: KUFVIS_clean_sbu_0, # of connection points: 4
#     Node 8, Type 0, BuildingBlock: KUFVIS_clean_sbu_0, # of connection points: 4
#     Node 9, Type 0, BuildingBlock: KUFVIS_clean_sbu_0, # of connection points: 4
#     Node 10, Type 0, BuildingBlock: KUFVIS_clean_sbu_0, # of connection points: 4
#     Node 11, Type 0, BuildingBlock: KUFVIS_clean_sbu_0, # of connection points: 4
#     Node 12, Type 0, BuildingBlock: KUFVIS_clean_sbu_0, # of connection points: 4
#     Node 13, Type 0, BuildingBlock: KUFVIS_clean_sbu_0, # of connection points: 4
#     Node 14, Type 0, BuildingBlock: KUFVIS_clean_sbu_0, # of connection points: 4
#     Node 15, Type 0, BuildingBlock: KUFVIS_clean_sbu_0, # of connection points: 4
#     Node 16, Type 0, BuildingBlock: KUFVIS_clean_sbu_0, # of connection points: 4
#     Node 17, Type 0, BuildingBlock: KUFVIS_clean_sbu_0, # of connection points: 4
#     Node 18, Type 0, BuildingBlock: KUFVIS_clean_sbu_0, # of connection points: 4
#     Node 19, Type 0, BuildingBlock: KUFVIS_clean_sbu_0, # of connection points: 4
#     Node 20, Type 0, BuildingBlock: KUFVIS_clean_sbu_0, # of connection points: 4
#     Node 21, Type 0, BuildingBlock: KUFVIS_clean_sbu_0, # of connection points: 4
#     Node 22, Type 0, BuildingBlock: KUFVIS_clean_sbu_0, # of connection points: 4
#     Node 23, Type 0, BuildingBlock: KUFVIS_clean_sbu_0, # of connection points: 4
#     Edge 24, Type (0, 0), BuildingBlock: UVAHIK_clean_linker_0, # of connection points: 2
#     Edge 25, Type (0, 0), BuildingBlock: UVAHIK_clean_linker_0, # of connection points: 2
#     Edge 26, Type (0, 0), BuildingBlock: UVAHIK_clean_linker_0, # of connection points: 2
#     Edge 27, Type (0, 0), BuildingBlock: UVAHIK_clean_linker_0, # of connection points: 2
#     Edge 28, Type (0, 0), BuildingBlock: UVAHIK_clean_linker_0, # of connection points: 2
#     Edge 29, Type (0, 0), BuildingBlock: UVAHIK_clean_linker_0, # of connection points: 2
#     Edge 30, Type (0, 0), BuildingBlock: UVAHIK_clean_linker_0, # of connection points: 2
#     Edge 31, Type (0, 0), BuildingBlock: UVAHIK_clean_linker_0, # of connection points: 2
#     Edge 32, Type (0, 0), BuildingBlock: UVAHIK_clean_linker_0, # of connection points: 2
#     Edge 33, Type (0, 0), BuildingBlock: UVAHIK_clean_linker_0, # of connection points: 2
#     Edge 34, Type (0, 0), BuildingBlock: UVAHIK_clean_linker_0, # of connection points: 2
#     Edge 35, Type (0, 0), BuildingBlock: UVAHIK_clean_linker_0, # of connection points: 2
#     Edge 36, Type (0, 0), BuildingBlock: UVAHIK_clean_linker_0, # of connection points: 2
#     Edge 37, Type (0, 0), BuildingBlock: UVAHIK_clean_linker_0, # of connection points: 2
#     Edge 38, Type (0, 0), BuildingBlock: UVAHIK_clean_linker_0, # of connection points: 2
#     Edge 39, Type (0, 0), BuildingBlock: UVAHIK_clean_linker_0, # of connection points: 2
#     Edge 40, Type (0, 0), BuildingBlock: UVAHIK_clean_linker_0, # of connection points: 2
#     Edge 41, Type (0, 0), BuildingBlock: UVAHIK_clean_linker_0, # of connection points: 2
#     Edge 42, Type (0, 0), BuildingBlock: UVAHIK_clean_linker_0, # of connection points: 2
#     Edge 43, Type (0, 0), BuildingBlock: UVAHIK_clean_linker_0, # of connection points: 2
#     Edge 44, Type (0, 0), BuildingBlock: UVAHIK_clean_linker_0, # of connection points: 2
#     Edge 45, Type (0, 0), BuildingBlock: UVAHIK_clean_linker_0, # of connection points: 2
#     Edge 46, Type (0, 0), BuildingBlock: UVAHIK_clean_linker_0, # of connection points: 2
#     Edge 47, Type (0, 0), BuildingBlock: UVAHIK_clean_linker_0, # of connection points: 2
#     Edge 48, Type (0, 0), BuildingBlock: UVAHIK_clean_linker_0, # of connection points: 2
#     Edge 49, Type (0, 0), BuildingBlock: UVAHIK_clean_linker_0, # of connection points: 2
#     Edge 50, Type (0, 0), BuildingBlock: UVAHIK_clean_linker_0, # of connection points: 2
#     Edge 51, Type (0, 0), BuildingBlock: UVAHIK_clean_linker_0, # of connection points: 2
#     Edge 52, Type (0, 0), BuildingBlock: UVAHIK_clean_linker_0, # of connection points: 2
#     Edge 53, Type (0, 0), BuildingBlock: UVAHIK_clean_linker_0, # of connection points: 2
#     Edge 54, Type (0, 0), BuildingBlock: UVAHIK_clean_linker_0, # of connection points: 2
#     Edge 55, Type (0, 0), BuildingBlock: UVAHIK_clean_linker_0, # of connection points: 2
#     Edge 56, Type (0, 0), BuildingBlock: UVAHIK_clean_linker_0, # of connection points: 2
#     Edge 57, Type (0, 0), BuildingBlock: UVAHIK_clean_linker_0, # of connection points: 2
#     Edge 58, Type (0, 0), BuildingBlock: UVAHIK_clean_linker_0, # of connection points: 2
#     Edge 59, Type (0, 0), BuildingBlock: UVAHIK_clean_linker_0, # of connection points: 2
#     Edge 60, Type (0, 0), BuildingBlock: UVAHIK_clean_linker_0, # of connection points: 2
#     Edge 61, Type (0, 0), BuildingBlock: UVAHIK_clean_linker_0, # of connection points: 2
#     Edge 62, Type (0, 0), BuildingBlock: UVAHIK_clean_linker_0, # of connection points: 2
#     Edge 63, Type (0, 0), BuildingBlock: UVAHIK_clean_linker_0, # of connection points: 2
#     Edge 64, Type (0, 0), BuildingBlock: UVAHIK_clean_linker_0, # of connection points: 2
#     Edge 65, Type (0, 0), BuildingBlock: UVAHIK_clean_linker_0, # of connection points: 2
#     Edge 66, Type (0, 0), BuildingBlock: UVAHIK_clean_linker_0, # of connection points: 2
#     Edge 67, Type (0, 0), BuildingBlock: UVAHIK_clean_linker_0, # of connection points: 2
#     Edge 68, Type (0, 0), BuildingBlock: UVAHIK_clean_linker_0, # of connection points: 2
#     Edge 69, Type (0, 0), BuildingBlock: UVAHIK_clean_linker_0, # of connection points: 2
#     Edge 70, Type (0, 0), BuildingBlock: UVAHIK_clean_linker_0, # of connection points: 2
#     Edge 71, Type (0, 0), BuildingBlock: UVAHIK_clean_linker_0, # of connection points: 2
# Relax obj value: 0.255
# Max RMSD: 0.133
# Mean RMSD: 0.133
data_MOF--net-lta--node1-KUFVIS_clean_sbu_0--edge1-UVAHIK_clean_linker_0
_symmetry_space_group_name_H-M    P1
_symmetry_Int_Tables_number       1
_symmetry_cell_setting            triclinic
loop_
_symmetry_equiv_pos_as_xyz
'x, y, z'
_cell_length_a     72.869033
_cell_length_b     72.867455
_cell_length_c     72.868209
_cell_angle_alpha  89.988967
_cell_angle_beta   90.012438
_cell_angle_gamma 89.993945
loop_
_atom_site_label
_atom_site_type_symbol
_atom_site_fract_x
_atom_site_fract_y
_atom_site_fract_z
_atom_type_partial_charge
Mn0 Mn 0.12821 0.32022 0.51217 0.0
Mn1 Mn 0.16764 0.34441 0.51219 0.0
C2 C 0.1375 0.33564 0.53838 0.0
C3 C 0.09682 0.31861 0.50653 0.0
C4 C 0.16619 0.30279 0.51351 0.0
O5 O 0.13367 0.32354 0.48494 0.0
O6 O 0.15864 0.34176 0.48661 0.0
C7 C 0.15394 0.38046 0.49942 0.0
N8 N 0.16267 0.37015 0.51233 0.0
C9 C 0.16927 0.39686 0.53056 0.0
C10 C 0.16041 0.40779 0.51743 0.0
C11 C 0.15264 0.39953 0.50183 0.0
C12 C 0.17006 0.37792 0.52746 0.0
H13 H 0.14805 0.37418 0.48735 0.0
C14 C 0.14614 0.33338 0.47749 0.0
O15 O 0.10694 0.30395 0.50672 0.0
O16 O 0.10498 0.33416 0.50947 0.0
N17 N 0.17755 0.34814 0.53622 0.0
C18 C 0.18462 0.33554 0.5481 0.0
C19 C 0.19224 0.34147 0.56478 0.0
C20 C 0.19269 0.36028 0.56897 0.0
C21 C 0.18545 0.37299 0.55647 0.0
C22 C 0.17795 0.36627 0.54012 0.0
H23 H 0.1844 0.32108 0.54489 0.0
O24 O 0.12606 0.32203 0.53959 0.0
O25 O 0.14313 0.33963 0.52197 0.0
O26 O 0.14879 0.30123 0.51426 0.0
O27 O 0.1744 0.31822 0.51237 0.0
C28 C 0.18525 0.39205 0.55965 0.0
C29 C 0.17719 0.40398 0.54669 0.0
H30 H 0.15939 0.42251 0.51924 0.0
H31 H 0.14572 0.40787 0.49166 0.0
H32 H 0.19778 0.33157 0.57436 0.0
H33 H 0.19856 0.3648 0.58186 0.0
H34 H 0.19103 0.39767 0.57215 0.0
H35 H 0.1769 0.4186 0.54941 0.0
Mn36 Mn 0.68013 0.13002 0.50867 0.0
Mn37 Mn 0.65225 0.16692 0.50947 0.0
C38 C 0.66699 0.13944 0.53593 0.0
C39 C 0.68391 0.09859 0.50474 0.0
C40 C 0.69374 0.16965 0.50739 0.0
O41 O 0.67375 0.13354 0.48171 0.0
O42 O 0.65428 0.15745 0.48396 0.0
C43 C 0.61753 0.14821 0.49976 0.0
N44 N 0.62741 0.1588 0.51158 0.0
C45 C 0.60164 0.16164 0.53202 0.0
C46 C 0.59115 0.15086 0.52002 0.0
C47 C 0.59915 0.14408 0.50384 0.0
C48 C 0.61989 0.16528 0.52724 0.0
H49 H 0.62362 0.14295 0.48732 0.0
C50 C 0.66274 0.14517 0.47462 0.0
O51 O 0.69763 0.10981 0.50269 0.0
O52 O 0.66811 0.10571 0.5087 0.0
N53 N 0.64882 0.17737 0.53332 0.0
C54 C 0.66099 0.18704 0.54373 0.0
C55 C 0.65522 0.19457 0.5605 0.0
C56 C 0.63699 0.19223 0.56631 0.0
C57 C 0.62467 0.18238 0.55529 0.0
C58 C 0.63119 0.17525 0.53868 0.0
H59 H 0.67499 0.18896 0.53928 0.0
O60 O 0.68161 0.12928 0.53607 0.0
O61 O 0.6605 0.14362 0.51986 0.0
O62 O 0.697 0.15245 0.50784 0.0
O63 O 0.67756 0.17644 0.50776 0.0
C64 C 0.60622 0.17925 0.56017 0.0
C65 C 0.59475 0.16879 0.54861 0.0
H66 H 0.57698 0.14764 0.52312 0.0
H67 H 0.59117 0.13569 0.49454 0.0
H68 H 0.6648 0.20216 0.56893 0.0
H69 H 0.63261 0.19803 0.57928 0.0
H70 H 0.60072 0.18473 0.57284 0.0
H71 H 0.58067 0.16628 0.55264 0.0
Mn72 Mn 0.86661 0.67828 0.513 0.0
Mn73 Mn 0.82828 0.65241 0.51446 0.0
C74 C 0.85867 0.66278 0.53962 0.0
C75 C 0.89778 0.68122 0.50682 0.0
C76 C 0.82784 0.694 0.51536 0.0
O77 O 0.8608 0.67426 0.48591 0.0
O78 O 0.83623 0.6556 0.48862 0.0
C79 C 0.84331 0.61712 0.50108 0.0
N80 N 0.83453 0.62696 0.51433 0.0
C81 C 0.82992 0.5999 0.53267 0.0
C82 C 0.83885 0.58946 0.5192 0.0
C83 C 0.84565 0.59813 0.50338 0.0
C84 C 0.8281 0.61879 0.52969 0.0
H85 H 0.84845 0.62372 0.48884 0.0
C86 C 0.84822 0.66417 0.47901 0.0
O87 O 0.88702 0.69543 0.50694 0.0
O88 O 0.89037 0.66537 0.51007 0.0
N89 N 0.81938 0.64813 0.53878 0.0
C90 C 0.812 0.66032 0.55088 0.0
C91 C 0.80522 0.65397 0.56777 0.0
C92 C 0.80589 0.63515 0.57193 0.0
C93 C 0.81341 0.62286 0.55918 0.0
C94 C 0.82006 0.63 0.54263 0.0
H95 H 0.81134 0.67477 0.54769 0.0
O96 O 0.86942 0.67696 0.5404 0.0
O97 O 0.85283 0.65835 0.5234 0.0
O98 O 0.84518 0.69633 0.51523 0.0
O99 O 0.82028 0.67821 0.51493 0.0
C100 C 0.81466 0.60382 0.56228 0.0
C101 C 0.82287 0.59234 0.54901 0.0
H102 H 0.84065 0.5748 0.52091 0.0
H103 H 0.85261 0.59018 0.49295 0.0
H104 H 0.79944 0.66354 0.57754 0.0
H105 H 0.80066 0.63031 0.58497 0.0
H106 H 0.80957 0.59788 0.57492 0.0
H107 H 0.82396 0.57775 0.55165 0.0
Mn108 Mn 0.31934 0.86708 0.51263 0.0
Mn109 Mn 0.3442 0.82813 0.51556 0.0
C110 C 0.33283 0.8586 0.54018 0.0
C111 C 0.3175 0.89844 0.50664 0.0
C112 C 0.30266 0.82862 0.51385 0.0
O113 O 0.32495 0.86133 0.48578 0.0
O114 O 0.34255 0.83613 0.48962 0.0
C115 C 0.38048 0.84241 0.50419 0.0
N116 N 0.36976 0.83374 0.51681 0.0
C117 C 0.39576 0.82787 0.53628 0.0
C118 C 0.40711 0.83669 0.52348 0.0
C119 C 0.39941 0.84407 0.50741 0.0
C120 C 0.37699 0.82677 0.5324 0.0
H121 H 0.37463 0.84794 0.49175 0.0
C122 C 0.3349 0.84832 0.47951 0.0
O123 O 0.3031 0.88798 0.50566 0.0
O124 O 0.33294 0.89061 0.51078 0.0
N125 N 0.34697 0.819 0.54001 0.0
C126 C 0.33398 0.81188 0.55142 0.0
C127 C 0.3393 0.8046 0.56845 0.0
C128 C 0.35792 0.80445 0.57344 0.0
C129 C 0.37105 0.81168 0.56138 0.0
C130 C 0.36492 0.81893 0.54468 0.0
H131 H 0.31967 0.8118 0.54755 0.0
O132 O 0.31887 0.86966 0.54007 0.0
O133 O 0.33828 0.85279 0.52426 0.0
O134 O 0.30067 0.84601 0.51349 0.0
O135 O 0.31828 0.82076 0.5146 0.0
C136 C 0.38997 0.81208 0.5653 0.0
C137 C 0.40232 0.82022 0.55279 0.0
H138 H 0.42172 0.83794 0.52589 0.0
H139 H 0.40807 0.85093 0.49748 0.0
H140 H 0.32908 0.79904 0.57768 0.0
H141 H 0.36198 0.79879 0.58658 0.0
H142 H 0.39515 0.80644 0.57805 0.0
H143 H 0.4168 0.82073 0.55612 0.0
Mn144 Mn 0.12529 0.67759 0.4861 0.0
Mn145 Mn 0.16289 0.65073 0.48395 0.0
C146 C 0.13363 0.66399 0.45868 0.0
C147 C 0.09399 0.6806 0.4916 0.0
C148 C 0.16446 0.69233 0.48586 0.0
O149 O 0.13044 0.67175 0.51295 0.0
O150 O 0.15426 0.65224 0.5098 0.0
C151 C 0.14588 0.61522 0.49395 0.0
N152 N 0.15561 0.62562 0.48185 0.0
C153 C 0.15833 0.60028 0.46085 0.0
C154 C 0.14844 0.58926 0.47314 0.0
C155 C 0.14216 0.59678 0.48974 0.0
C156 C 0.16167 0.61854 0.46581 0.0
H157 H 0.14097 0.62096 0.5067 0.0
C158 C 0.14237 0.66076 0.5196 0.0
O159 O 0.10493 0.69463 0.49282 0.0
O160 O 0.10132 0.66491 0.48756 0.0
N161 N 0.17244 0.64796 0.45963 0.0
C162 C 0.18105 0.66065 0.44893 0.0
C163 C 0.18787 0.65543 0.43167 0.0
C164 C 0.18586 0.63722 0.42566 0.0
C165 C 0.17707 0.62438 0.43698 0.0
C166 C 0.17068 0.63034 0.45409 0.0
H167 H 0.18265 0.67465 0.45349 0.0
O168 O 0.1231 0.67835 0.45868 0.0
O169 O 0.13889 0.65819 0.47467 0.0
O170 O 0.14718 0.69514 0.48552 0.0
O171 O 0.17163 0.67632 0.48565 0.0
C172 C 0.17418 0.60596 0.43185 0.0
C173 C 0.16475 0.59394 0.44374 0.0
H174 H 0.14546 0.57506 0.46991 0.0
H175 H 0.13443 0.58839 0.49926 0.0
H176 H 0.19462 0.66542 0.42301 0.0
H177 H 0.19101 0.63328 0.41229 0.0
H178 H 0.17895 0.60095 0.41869 0.0
H179 H 0.16237 0.57988 0.43952 0.0
Mn180 Mn 0.31818 0.12673 0.48667 0.0
Mn181 Mn 0.34254 0.16602 0.48432 0.0
C182 C 0.33285 0.13513 0.45969 0.0
C183 C 0.31661 0.09538 0.49274 0.0
C184 C 0.30097 0.16495 0.4845 0.0
O185 O 0.32264 0.13281 0.51367 0.0
O186 O 0.33993 0.15832 0.51026 0.0
C187 C 0.37852 0.15243 0.4974 0.0
N188 N 0.3682 0.16067 0.48417 0.0
C189 C 0.39484 0.16618 0.46549 0.0
C190 C 0.40578 0.15782 0.47893 0.0
C191 C 0.39756 0.15083 0.49492 0.0
C192 C 0.37592 0.16723 0.46865 0.0
H193 H 0.37227 0.1472 0.50978 0.0
C194 C 0.33208 0.14609 0.52018 0.0
O195 O 0.30201 0.1056 0.49308 0.0
O196 O 0.33207 0.10346 0.48926 0.0
N197 N 0.34617 0.17478 0.45984 0.0
C198 C 0.33357 0.18168 0.44787 0.0
C199 C 0.33945 0.18858 0.43086 0.0
C200 C 0.35823 0.18855 0.42647 0.0
C201 C 0.37095 0.18155 0.4391 0.0
C202 C 0.36426 0.17473 0.45577 0.0
H203 H 0.31915 0.18187 0.45127 0.0
O204 O 0.31901 0.12392 0.45921 0.0
O205 O 0.33734 0.1412 0.47578 0.0
O206 O 0.29925 0.14753 0.48491 0.0
O207 O 0.3165 0.17303 0.48418 0.0
C208 C 0.38999 0.18104 0.43581 0.0
C209 C 0.40193 0.17343 0.44903 0.0
H210 H 0.42048 0.15662 0.47709 0.0
H211 H 0.40591 0.14432 0.50534 0.0
H212 H 0.32955 0.19398 0.4212 0.0
H213 H 0.36272 0.1939 0.41335 0.0
H214 H 0.39558 0.18629 0.42308 0.0
H215 H 0.41653 0.17296 0.44626 0.0
Mn216 Mn 0.86879 0.32531 0.48548 0.0
Mn217 Mn 0.83077 0.35162 0.48672 0.0
C218 C 0.85868 0.33985 0.45912 0.0
C219 C 0.90038 0.32244 0.4893 0.0
C220 C 0.82995 0.30997 0.48727 0.0
O221 O 0.86515 0.33 0.51279 0.0
O222 O 0.84118 0.34956 0.51186 0.0
C223 C 0.84718 0.38737 0.49681 0.0
N224 N 0.83701 0.37701 0.48504 0.0
C225 C 0.83056 0.40322 0.46602 0.0
C226 C 0.8409 0.4142 0.47797 0.0
C227 C 0.84931 0.40622 0.49339 0.0
C228 C 0.82898 0.38451 0.4701 0.0
H229 H 0.85357 0.3813 0.50873 0.0
C230 C 0.85368 0.34073 0.52057 0.0
O231 O 0.88962 0.30827 0.49045 0.0
O232 O 0.89274 0.33819 0.48612 0.0
N233 N 0.8195 0.35481 0.46323 0.0
C234 C 0.81108 0.34208 0.45243 0.0
C235 C 0.80265 0.34767 0.43602 0.0
C236 C 0.80277 0.36629 0.43102 0.0
C237 C 0.8114 0.37915 0.44244 0.0
C238 C 0.81967 0.37276 0.45856 0.0
H239 H 0.81085 0.32777 0.45627 0.0
O240 O 0.86938 0.32565 0.45799 0.0
O241 O 0.8543 0.34503 0.4756 0.0
O242 O 0.84716 0.30737 0.48547 0.0
O243 O 0.8227 0.32588 0.48824 0.0
C244 C 0.8123 0.39802 0.43837 0.0
C245 C 0.82194 0.41004 0.45011 0.0
H246 H 0.84258 0.42874 0.47538 0.0
H247 H 0.85735 0.4146 0.50264 0.0
H248 H 0.79603 0.33766 0.42727 0.0
H249 H 0.79627 0.37055 0.41834 0.0
H250 H 0.80591 0.40339 0.42606 0.0
H251 H 0.82283 0.42447 0.44664 0.0
Mn252 Mn 0.68046 0.87265 0.48118 0.0
Mn253 Mn 0.65302 0.8362 0.47352 0.0
C254 C 0.66938 0.86683 0.45199 0.0
C255 C 0.68391 0.90323 0.48949 0.0
C256 C 0.69407 0.83311 0.47992 0.0
O257 O 0.67168 0.86581 0.50688 0.0
O258 O 0.65189 0.84305 0.49985 0.0
C259 C 0.61699 0.85351 0.48075 0.0
N260 N 0.62846 0.84431 0.46921 0.0
C261 C 0.60535 0.8432 0.44564 0.0
C262 C 0.59326 0.85259 0.4573 0.0
C263 C 0.59913 0.85781 0.47491 0.0
C264 C 0.62298 0.83931 0.45221 0.0
H265 H 0.62146 0.85755 0.49429 0.0
C266 C 0.65965 0.85387 0.51136 0.0
O267 O 0.69739 0.89167 0.4911 0.0
O268 O 0.66846 0.89694 0.48328 0.0
N269 N 0.65276 0.8284 0.44844 0.0
C270 C 0.66641 0.82031 0.43856 0.0
C271 C 0.66292 0.81463 0.42047 0.0
C272 C 0.64542 0.8172 0.4128 0.0
C273 C 0.63156 0.82547 0.42328 0.0
C274 C 0.63583 0.83079 0.44124 0.0
H275 H 0.67986 0.81823 0.44442 0.0
O276 O 0.68398 0.8768 0.45416 0.0
O277 O 0.66196 0.86058 0.4669 0.0
O278 O 0.69735 0.85028 0.48076 0.0
O279 O 0.67801 0.82649 0.47752 0.0
C280 C 0.61374 0.82883 0.41654 0.0
C281 C 0.60068 0.83779 0.42767 0.0
H282 H 0.57949 0.85597 0.45283 0.0
H283 H 0.58991 0.86512 0.48396 0.0
H284 H 0.67369 0.80829 0.41246 0.0
H285 H 0.6428 0.81287 0.39882 0.0
H286 H 0.61 0.82478 0.40274 0.0
H287 H 0.58714 0.84058 0.42221 0.0
Mn288 Mn 0.5152 0.12586 0.31777 0.0
Mn289 Mn 0.52256 0.16338 0.34374 0.0
C290 C 0.54446 0.13267 0.3281 0.0
C291 C 0.50755 0.09492 0.31602 0.0
C292 C 0.51542 0.16487 0.30269 0.0
O293 O 0.48952 0.13255 0.32665 0.0
O294 O 0.4964 0.15603 0.34563 0.0
C295 C 0.51638 0.1472 0.38048 0.0
N296 N 0.52751 0.15622 0.36848 0.0
C297 C 0.55158 0.15837 0.39099 0.0
C298 C 0.54034 0.1492 0.40363 0.0
C299 C 0.52268 0.14355 0.39833 0.0
C300 C 0.54455 0.16164 0.37341 0.0
H301 H 0.50281 0.14282 0.37645 0.0
C302 C 0.48497 0.14476 0.33839 0.0
O303 O 0.50543 0.10572 0.30198 0.0
O304 O 0.51385 0.10218 0.33098 0.0
N305 N 0.54748 0.17168 0.34323 0.0
C306 C 0.55694 0.17947 0.32911 0.0
C307 C 0.57502 0.18549 0.33201 0.0
C308 C 0.58313 0.18356 0.3494 0.0
C309 C 0.57308 0.17559 0.36374 0.0
C310 C 0.5551 0.16991 0.36006 0.0
H311 H 0.55075 0.18104 0.31574 0.0
O312 O 0.54225 0.12208 0.31397 0.0
O313 O 0.52954 0.13891 0.3355 0.0
O314 O 0.5149 0.14758 0.29995 0.0
O315 O 0.5179 0.17206 0.3185 0.0
C316 C 0.58028 0.17285 0.38149 0.0
C317 C 0.56958 0.16415 0.39507 0.0
H318 H 0.54517 0.1463 0.41739 0.0
H319 H 0.51395 0.13639 0.40798 0.0
H320 H 0.5827 0.1916 0.32086 0.0
H321 H 0.59711 0.18812 0.35155 0.0
H322 H 0.59411 0.17719 0.38478 0.0
H323 H 0.57538 0.16185 0.40856 0.0
Mn324 Mn 0.86821 0.5154 0.31623 0.0
Mn325 Mn 0.82878 0.51908 0.34019 0.0
C326 C 0.86042 0.54282 0.33036 0.0
C327 C 0.8993 0.50833 0.31469 0.0
C328 C 0.8303 0.51866 0.29865 0.0
O329 O 0.86142 0.48865 0.32105 0.0
O330 O 0.83593 0.49291 0.3381 0.0
C331 C 0.84166 0.50616 0.3765 0.0
N332 N 0.83379 0.51941 0.36591 0.0
C333 C 0.82809 0.53841 0.39229 0.0
C334 C 0.83608 0.52495 0.40349 0.0
C335 C 0.84298 0.5088 0.39554 0.0
C336 C 0.82732 0.53509 0.37339 0.0
H337 H 0.84681 0.49364 0.37046 0.0
C338 C 0.84805 0.48257 0.33063 0.0
O339 O 0.88904 0.50815 0.30012 0.0
O340 O 0.89142 0.51231 0.33015 0.0
N341 N 0.82051 0.54378 0.34342 0.0
C342 C 0.81415 0.55581 0.33059 0.0
C343 C 0.80744 0.57298 0.3362 0.0
C344 C 0.80709 0.57749 0.35494 0.0
C345 C 0.81356 0.56481 0.3679 0.0
C346 C 0.82026 0.54799 0.36148 0.0
H347 H 0.81425 0.55234 0.31618 0.0
O348 O 0.87177 0.54274 0.31663 0.0
O349 O 0.85391 0.52698 0.33517 0.0
O350 O 0.84769 0.51756 0.29716 0.0
O351 O 0.822 0.51918 0.31405 0.0
C352 C 0.81369 0.56822 0.38692 0.0
C353 C 0.82096 0.55503 0.39911 0.0
H354 H 0.83706 0.52691 0.41819 0.0
H355 H 0.84919 0.49836 0.40409 0.0
H356 H 0.80247 0.58269 0.32612 0.0
H357 H 0.80188 0.59073 0.35922 0.0
H358 H 0.80849 0.58106 0.39231 0.0
H359 H 0.82123 0.55793 0.41369 0.0
Mn360 Mn 0.48643 0.86693 0.32013 0.0
Mn361 Mn 0.48787 0.82847 0.34575 0.0
C362 C 0.46004 0.85621 0.33416 0.0
C363 C 0.48982 0.89858 0.31773 0.0
C364 C 0.48955 0.8285 0.30412 0.0
O365 O 0.51373 0.86363 0.32534 0.0
O366 O 0.51281 0.83945 0.34468 0.0
C367 C 0.49666 0.84406 0.38221 0.0
N368 N 0.48534 0.83403 0.37123 0.0
C369 C 0.46572 0.82653 0.3967 0.0
C370 C 0.4772 0.83673 0.4083 0.0
C371 C 0.49269 0.84559 0.40101 0.0
C372 C 0.47034 0.82554 0.37808 0.0
H373 H 0.50864 0.85079 0.37666 0.0
C374 C 0.52146 0.85224 0.33621 0.0
O375 O 0.49134 0.88802 0.30345 0.0
O376 O 0.48649 0.89071 0.33335 0.0
N377 N 0.46448 0.81676 0.34795 0.0
C378 C 0.45411 0.80867 0.33467 0.0
C379 C 0.43763 0.79994 0.33953 0.0
C380 C 0.43211 0.79946 0.35799 0.0
C381 C 0.44307 0.80782 0.37142 0.0
C382 C 0.45928 0.81641 0.36574 0.0
H383 H 0.45836 0.80891 0.32048 0.0
O384 O 0.45891 0.86706 0.32007 0.0
O385 O 0.47652 0.85196 0.33943 0.0
O386 O 0.48711 0.84567 0.30182 0.0
O387 O 0.4904 0.82097 0.3199 0.0
C388 C 0.43845 0.80814 0.39018 0.0
C389 C 0.44976 0.8175 0.40282 0.0
H390 H 0.47418 0.83795 0.42281 0.0
H391 H 0.50158 0.85353 0.40987 0.0
H392 H 0.42923 0.79356 0.32908 0.0
H393 H 0.41938 0.79273 0.36169 0.0
H394 H 0.42605 0.80151 0.395 0.0
H395 H 0.44588 0.81793 0.41716 0.0
Mn396 Mn 0.12631 0.48143 0.32099 0.0
Mn397 Mn 0.16313 0.47573 0.34839 0.0
C398 C 0.13335 0.45268 0.33237 0.0
C399 C 0.09529 0.4884 0.31803 0.0
C400 C 0.16577 0.48095 0.30711 0.0
O401 O 0.13229 0.50746 0.32909 0.0
O402 O 0.15538 0.50191 0.34893 0.0
C403 C 0.14567 0.48327 0.38428 0.0
N404 N 0.15522 0.47176 0.37308 0.0
C405 C 0.15675 0.44863 0.39662 0.0
C406 C 0.14701 0.46028 0.40844 0.0
C407 C 0.14142 0.47766 0.40222 0.0
C408 C 0.16063 0.45499 0.3789 0.0
H409 H 0.14128 0.49661 0.37953 0.0
C410 C 0.14406 0.51277 0.34094 0.0
O411 O 0.10647 0.49029 0.30427 0.0
O412 O 0.10222 0.48278 0.33342 0.0
N413 N 0.17183 0.45094 0.34927 0.0
C414 C 0.18032 0.44103 0.33588 0.0
C415 C 0.18645 0.42317 0.33976 0.0
C416 C 0.18388 0.41573 0.35736 0.0
C417 C 0.17521 0.42624 0.37094 0.0
C418 C 0.16952 0.444 0.36633 0.0
H419 H 0.18236 0.44668 0.32234 0.0
O420 O 0.12311 0.45429 0.31789 0.0
O421 O 0.13905 0.46792 0.33963 0.0
O422 O 0.14856 0.48144 0.30386 0.0
O423 O 0.17251 0.47926 0.32322 0.0
C424 C 0.17175 0.41968 0.3888 0.0
C425 C 0.16247 0.43084 0.40161 0.0
H426 H 0.14364 0.45598 0.42226 0.0
H427 H 0.13383 0.4867 0.41123 0.0
H428 H 0.19311 0.41514 0.32919 0.0
H429 H 0.18851 0.40191 0.36025 0.0
H430 H 0.17596 0.40598 0.39276 0.0
H431 H 0.15965 0.42554 0.41521 0.0
Mn432 Mn 0.51084 0.87124 0.67789 0.0
Mn433 Mn 0.51341 0.83117 0.65488 0.0
C434 C 0.53757 0.86308 0.66272 0.0
C435 C 0.50371 0.90232 0.67886 0.0
C436 C 0.51494 0.83386 0.69634 0.0
O437 O 0.48393 0.86428 0.67461 0.0
O438 O 0.48733 0.8384 0.65796 0.0
C439 C 0.49889 0.8431 0.61886 0.0
N440 N 0.51261 0.83553 0.62905 0.0
C441 C 0.53065 0.82959 0.60205 0.0
C442 C 0.51669 0.83726 0.59125 0.0
C443 C 0.50078 0.84412 0.59971 0.0
C444 C 0.52805 0.82905 0.62107 0.0
H445 H 0.48658 0.84827 0.62529 0.0
C446 C 0.47738 0.8507 0.66565 0.0
O447 O 0.50428 0.89249 0.69371 0.0
O448 O 0.507 0.89401 0.66346 0.0
N449 N 0.53797 0.82284 0.65079 0.0
C450 C 0.55053 0.81677 0.66324 0.0
C451 C 0.56753 0.81009 0.65707 0.0
C452 C 0.57132 0.80951 0.63818 0.0
C453 C 0.55811 0.81569 0.62562 0.0
C454 C 0.54147 0.8223 0.63258 0.0
H455 H 0.54764 0.81709 0.67776 0.0
O456 O 0.53811 0.87483 0.67609 0.0
O457 O 0.52152 0.85642 0.65885 0.0
O458 O 0.51398 0.85128 0.6974 0.0
O459 O 0.51468 0.82511 0.68118 0.0
C460 C 0.56083 0.81565 0.60649 0.0
C461 C 0.54711 0.82259 0.59471 0.0
H462 H 0.51808 0.83804 0.57647 0.0
H463 H 0.48996 0.8501 0.59147 0.0
H464 H 0.57766 0.80535 0.66685 0.0
H465 H 0.58445 0.80436 0.63347 0.0
H466 H 0.57353 0.81055 0.60069 0.0
H467 H 0.54947 0.82271 0.58003 0.0
Mn468 Mn 0.13005 0.51693 0.681 0.0
Mn469 Mn 0.16754 0.52364 0.6548 0.0
C470 C 0.13688 0.54589 0.66988 0.0
C471 C 0.09907 0.5097 0.68342 0.0
C472 C 0.16914 0.51764 0.69599 0.0
O473 O 0.13652 0.491 0.67259 0.0
O474 O 0.16031 0.4974 0.65382 0.0
C475 C 0.15125 0.5161 0.61835 0.0
N476 N 0.16023 0.52771 0.62993 0.0
C477 C 0.16191 0.5511 0.60668 0.0
C478 C 0.15277 0.53936 0.59447 0.0
C479 C 0.14739 0.52181 0.60035 0.0
C480 C 0.16541 0.54465 0.62444 0.0
H481 H 0.14705 0.50262 0.62283 0.0
C482 C 0.1489 0.48617 0.66115 0.0
O483 O 0.11009 0.50771 0.6973 0.0
O484 O 0.10615 0.51546 0.66815 0.0
N485 N 0.17566 0.54862 0.65443 0.0
C486 C 0.18345 0.5586 0.66819 0.0
C487 C 0.18923 0.57666 0.66469 0.0
C488 C 0.18704 0.58421 0.64708 0.0
C489 C 0.17909 0.57363 0.63311 0.0
C490 C 0.17367 0.5557 0.63739 0.0
H491 H 0.18519 0.55285 0.68173 0.0
O492 O 0.12646 0.54408 0.6842 0.0
O493 O 0.14304 0.53077 0.66283 0.0
O494 O 0.15186 0.51693 0.69865 0.0
O495 O 0.17637 0.51988 0.68016 0.0
C496 C 0.17609 0.58026 0.61519 0.0
C497 C 0.16742 0.56904 0.60201 0.0
H498 H 0.1497 0.54374 0.58059 0.0
H499 H 0.14026 0.5127 0.59103 0.0
H500 H 0.19533 0.58475 0.67554 0.0
H501 H 0.1914 0.59818 0.64447 0.0
H502 H 0.18021 0.59404 0.61145 0.0
H503 H 0.16492 0.5744 0.58837 0.0
Mn504 Mn 0.48713 0.13064 0.67399 0.0
Mn505 Mn 0.48792 0.16971 0.64917 0.0
C506 C 0.46045 0.14162 0.66089 0.0
C507 C 0.49042 0.09895 0.67581 0.0
C508 C 0.49004 0.16887 0.69067 0.0
O509 O 0.51426 0.13393 0.66815 0.0
O510 O 0.51304 0.15919 0.65016 0.0
C511 C 0.49686 0.15458 0.61256 0.0
N512 N 0.48546 0.16442 0.62362 0.0
C513 C 0.46562 0.17176 0.59827 0.0
C514 C 0.47718 0.16177 0.58657 0.0
C515 C 0.49283 0.15309 0.59377 0.0
C516 C 0.47033 0.17276 0.61686 0.0
H517 H 0.50892 0.14793 0.61804 0.0
C518 C 0.52176 0.14607 0.65797 0.0
O519 O 0.49239 0.10929 0.69019 0.0
O520 O 0.4868 0.10708 0.66038 0.0
N521 N 0.4644 0.18117 0.64709 0.0
C522 C 0.45396 0.18904 0.66045 0.0
C523 C 0.43737 0.19762 0.65569 0.0
C524 C 0.43181 0.19819 0.63723 0.0
C525 C 0.44284 0.19007 0.62372 0.0
C526 C 0.45918 0.18165 0.6293 0.0
H527 H 0.45824 0.1887 0.67464 0.0
O528 O 0.45971 0.13052 0.67481 0.0
O529 O 0.47677 0.14598 0.65519 0.0
O530 O 0.48816 0.15161 0.69269 0.0
O531 O 0.49034 0.17682 0.67508 0.0
C532 C 0.43816 0.1898 0.60497 0.0
C533 C 0.44948 0.18057 0.59226 0.0
H534 H 0.47411 0.16057 0.57208 0.0
H535 H 0.50178 0.14529 0.58484 0.0
H536 H 0.42892 0.20381 0.6662 0.0
H537 H 0.41899 0.20478 0.63362 0.0
H538 H 0.42569 0.19636 0.60023 0.0
H539 H 0.44552 0.18013 0.57794 0.0
Mn540 Mn 0.87271 0.48116 0.68227 0.0
Mn541 Mn 0.83542 0.47365 0.65596 0.0
C542 C 0.86643 0.452 0.67133 0.0
C543 C 0.90346 0.48925 0.68468 0.0
C544 C 0.83363 0.48001 0.6971 0.0
O545 O 0.86569 0.50691 0.67373 0.0
O546 O 0.84233 0.49994 0.65463 0.0
C547 C 0.85166 0.48084 0.61943 0.0
N548 N 0.84278 0.46932 0.63117 0.0
C549 C 0.841 0.44573 0.60813 0.0
C550 C 0.85005 0.45738 0.59577 0.0
C551 C 0.85545 0.47499 0.60147 0.0
C552 C 0.83762 0.45231 0.62586 0.0
H553 H 0.85584 0.49439 0.62377 0.0
C554 C 0.8534 0.51143 0.66204 0.0
O555 O 0.89238 0.49093 0.69855 0.0
O556 O 0.89658 0.48314 0.66945 0.0
N557 N 0.82756 0.44858 0.65594 0.0
C558 C 0.81986 0.43871 0.66982 0.0
C559 C 0.81408 0.42062 0.66651 0.0
C560 C 0.81613 0.41294 0.64895 0.0
C561 C 0.824 0.42341 0.63485 0.0
C562 C 0.82947 0.44136 0.63895 0.0
H563 H 0.81817 0.44458 0.68332 0.0
O564 O 0.87686 0.4541 0.68561 0.0
O565 O 0.86001 0.46696 0.66416 0.0
O566 O 0.85089 0.48078 0.69988 0.0
O567 O 0.82651 0.47767 0.68124 0.0
C568 C 0.82682 0.41666 0.61695 0.0
C569 C 0.83543 0.42777 0.60363 0.0
H570 H 0.85303 0.4529 0.58191 0.0
H571 H 0.8625 0.48403 0.59203 0.0
H572 H 0.80804 0.41262 0.67747 0.0
H573 H 0.81173 0.39896 0.64647 0.0
H574 H 0.82261 0.40288 0.61332 0.0
H575 H 0.83781 0.42231 0.59001 0.0
Mn576 Mn 0.32176 0.51119 0.13381 0.0
Mn577 Mn 0.34844 0.50781 0.17146 0.0
C578 C 0.33762 0.53657 0.14449 0.0
C579 C 0.31828 0.50854 0.10217 0.0
C580 C 0.30682 0.50878 0.17282 0.0
O581 O 0.32554 0.48359 0.1365 0.0
O582 O 0.34521 0.48311 0.16041 0.0
C583 C 0.38353 0.49665 0.15431 0.0
N584 N 0.37379 0.50861 0.16486 0.0
C585 C 0.40081 0.5265 0.17118 0.0
C586 C 0.41115 0.51433 0.16044 0.0
C587 C 0.40245 0.49938 0.15191 0.0
C588 C 0.38199 0.52311 0.17302 0.0
H589 H 0.3769 0.48509 0.14781 0.0
C590 C 0.33606 0.4751 0.14768 0.0
O591 O 0.30423 0.5076 0.1131 0.0
O592 O 0.33426 0.51084 0.10966 0.0
N593 N 0.35276 0.53087 0.18323 0.0
C594 C 0.34061 0.54196 0.19212 0.0
C595 C 0.34697 0.55799 0.20073 0.0
C596 C 0.36574 0.56233 0.20028 0.0
C597 C 0.37799 0.55063 0.19115 0.0
C598 C 0.37085 0.5349 0.18276 0.0
H599 H 0.32618 0.53863 0.19259 0.0
O600 O 0.32329 0.5387 0.13412 0.0
O601 O 0.34203 0.51975 0.14832 0.0
O602 O 0.30412 0.51115 0.15569 0.0
O603 O 0.32276 0.5071 0.17988 0.0
C604 C 0.39698 0.55405 0.1899 0.0
C605 C 0.40838 0.54198 0.17993 0.0
H606 H 0.42575 0.51639 0.15855 0.0
H607 H 0.41033 0.48996 0.14356 0.0
H608 H 0.33742 0.56696 0.20773 0.0
H609 H 0.37059 0.57472 0.2069 0.0
H610 H 0.40291 0.56607 0.19632 0.0
H611 H 0.42291 0.54491 0.17884 0.0
Mn612 Mn 0.3168 0.48465 0.8754 0.0
Mn613 Mn 0.34318 0.47503 0.83864 0.0
C614 C 0.3276 0.45515 0.87073 0.0
C615 C 0.31472 0.49412 0.90584 0.0
C616 C 0.30199 0.48092 0.83637 0.0
O617 O 0.3253 0.50996 0.86706 0.0
O618 O 0.34409 0.50177 0.84385 0.0
C619 C 0.37953 0.48377 0.85454 0.0
N620 N 0.36801 0.47155 0.84634 0.0
C621 C 0.39137 0.44819 0.84623 0.0
C622 C 0.40352 0.46056 0.85459 0.0
C623 C 0.39755 0.47841 0.8588 0.0
C624 C 0.37359 0.45432 0.8423 0.0
H625 H 0.37498 0.49749 0.85783 0.0
C626 C 0.33672 0.51384 0.85433 0.0
O627 O 0.30071 0.49541 0.89486 0.0
O628 O 0.32983 0.48774 0.89899 0.0
N629 N 0.34363 0.44954 0.8323 0.0
C630 C 0.32996 0.43904 0.82506 0.0
C631 C 0.33357 0.42069 0.8204 0.0
C632 C 0.3512 0.41337 0.82311 0.0
C633 C 0.36508 0.42448 0.83048 0.0
C634 C 0.3607 0.44269 0.83476 0.0
H635 H 0.31641 0.44461 0.82289 0.0
O636 O 0.31332 0.4579 0.88099 0.0
O637 O 0.33491 0.46969 0.86353 0.0
O638 O 0.29916 0.48318 0.85352 0.0
O639 O 0.31788 0.47801 0.82954 0.0
C640 C 0.38302 0.41813 0.83396 0.0
C641 C 0.39613 0.42995 0.84191 0.0
H642 H 0.41741 0.45647 0.85795 0.0
H643 H 0.40682 0.48801 0.86532 0.0
H644 H 0.32278 0.41219 0.81474 0.0
H645 H 0.3539 0.39919 0.81958 0.0
H646 H 0.38682 0.40412 0.83077 0.0
H647 H 0.40978 0.42482 0.84478 0.0
Mn648 Mn 0.50873 0.32068 0.86992 0.0
Mn649 Mn 0.50573 0.3462 0.83149 0.0
C650 C 0.53474 0.33448 0.85805 0.0
C651 C 0.50652 0.31848 0.90168 0.0
C652 C 0.50365 0.30461 0.83189 0.0
O653 O 0.48129 0.32597 0.86761 0.0
O654 O 0.48143 0.3457 0.84372 0.0
C655 C 0.49853 0.38297 0.84713 0.0
N656 N 0.50908 0.37166 0.83665 0.0
C657 C 0.52879 0.39664 0.82786 0.0
C658 C 0.51811 0.40858 0.83852 0.0
C659 C 0.50295 0.40169 0.84825 0.0
C660 C 0.52374 0.37812 0.8273 0.0
H661 H 0.48681 0.37773 0.85454 0.0
C662 C 0.47322 0.33711 0.8567 0.0
O663 O 0.50456 0.30414 0.89128 0.0
O664 O 0.50958 0.33405 0.89361 0.0
N665 N 0.52853 0.34778 0.81858 0.0
C666 C 0.5382 0.33421 0.81012 0.0
C667 C 0.5543 0.33863 0.8005 0.0
C668 C 0.56017 0.35697 0.79953 0.0
C669 C 0.54993 0.37071 0.80828 0.0
C670 C 0.53406 0.36546 0.81775 0.0
H671 H 0.53369 0.32011 0.81074 0.0
O672 O 0.53623 0.32053 0.86902 0.0
O673 O 0.51812 0.33984 0.85445 0.0
O674 O 0.50735 0.30225 0.8488 0.0
O675 O 0.5022 0.32036 0.82439 0.0
C676 C 0.55495 0.38938 0.80817 0.0
C677 C 0.54439 0.40233 0.81796 0.0
H678 H 0.52149 0.42303 0.83943 0.0
H679 H 0.49467 0.41081 0.85655 0.0
H680 H 0.56215 0.32795 0.79382 0.0
H681 H 0.57261 0.36034 0.79212 0.0
H682 H 0.56709 0.39387 0.80086 0.0
H683 H 0.54859 0.4166 0.81804 0.0
Mn684 Mn 0.67673 0.50947 0.86819 0.0
Mn685 Mn 0.65308 0.51475 0.82876 0.0
C686 C 0.66331 0.53742 0.86109 0.0
C687 C 0.67763 0.5016 0.89913 0.0
C688 C 0.69461 0.51332 0.83047 0.0
O689 O 0.67146 0.48306 0.86059 0.0
O690 O 0.65454 0.48833 0.83519 0.0
C691 C 0.61642 0.50239 0.84115 0.0
N692 N 0.62735 0.51558 0.83368 0.0
C693 C 0.6015 0.5355 0.82865 0.0
C694 C 0.58995 0.5221 0.83623 0.0
C695 C 0.59746 0.50552 0.84259 0.0
C696 C 0.6203 0.53166 0.8277 0.0
H697 H 0.62213 0.48957 0.84592 0.0
C698 C 0.66184 0.47753 0.84701 0.0
O699 O 0.69236 0.50131 0.8891 0.0
O700 O 0.66241 0.50607 0.89108 0.0
N701 N 0.65049 0.53975 0.82117 0.0
C702 C 0.66364 0.55162 0.81521 0.0
C703 C 0.6585 0.56916 0.80908 0.0
C704 C 0.63989 0.57419 0.8089 0.0
C705 C 0.62659 0.56167 0.81494 0.0
C706 C 0.63255 0.54445 0.82105 0.0
H707 H 0.67795 0.54776 0.81519 0.0
O708 O 0.67694 0.53668 0.87254 0.0
O709 O 0.65817 0.52189 0.85409 0.0
O710 O 0.69602 0.51181 0.84785 0.0
O711 O 0.67924 0.51438 0.82214 0.0
C712 C 0.60767 0.56561 0.81526 0.0
C713 C 0.59514 0.55254 0.82213 0.0
H714 H 0.57531 0.52445 0.83732 0.0
H715 H 0.58864 0.49513 0.8485 0.0
H716 H 0.66884 0.57875 0.80443 0.0
H717 H 0.63597 0.58772 0.80415 0.0
H718 H 0.60264 0.57878 0.81052 0.0
H719 H 0.58065 0.55586 0.82256 0.0
Mn720 Mn 0.48469 0.67915 0.86801 0.0
Mn721 Mn 0.48492 0.65527 0.82841 0.0
C722 C 0.45818 0.66499 0.85758 0.0
C723 C 0.48872 0.68049 0.89963 0.0
C724 C 0.486 0.69682 0.83011 0.0
O725 O 0.51199 0.67426 0.86381 0.0
O726 O 0.51022 0.6568 0.83826 0.0
C727 C 0.49564 0.61859 0.84217 0.0
N728 N 0.48345 0.62954 0.83318 0.0
C729 C 0.46425 0.60373 0.82581 0.0
C730 C 0.47662 0.59215 0.83494 0.0
C731 C 0.49234 0.59963 0.84322 0.0
C732 C 0.46821 0.62251 0.82529 0.0
H733 H 0.50781 0.62428 0.84843 0.0
C734 C 0.51931 0.66445 0.85124 0.0
O735 O 0.48992 0.69512 0.88953 0.0
O736 O 0.48547 0.66509 0.89131 0.0
N737 N 0.46106 0.6527 0.81775 0.0
C738 C 0.44996 0.6659 0.81051 0.0
C739 C 0.43321 0.6608 0.80245 0.0
C740 C 0.42816 0.64221 0.80175 0.0
C741 C 0.43987 0.62888 0.80919 0.0
C742 C 0.45633 0.63478 0.81715 0.0
H743 H 0.45385 0.68019 0.81094 0.0
O744 O 0.45711 0.67873 0.86888 0.0
O745 O 0.4746 0.66032 0.8526 0.0
O746 O 0.48464 0.69829 0.84748 0.0
O747 O 0.48631 0.68141 0.8218 0.0
C748 C 0.43581 0.60998 0.80916 0.0
C749 C 0.44804 0.5974 0.81738 0.0
H750 H 0.47413 0.57751 0.83576 0.0
H751 H 0.50194 0.59079 0.85033 0.0
H752 H 0.42423 0.67118 0.79676 0.0
H753 H 0.41522 0.63833 0.79553 0.0
H754 H 0.42322 0.60498 0.80304 0.0
H755 H 0.44468 0.58292 0.81744 0.0
Mn756 Mn 0.67433 0.48541 0.12779 0.0
Mn757 Mn 0.64974 0.48918 0.16677 0.0
C758 C 0.65924 0.46009 0.13964 0.0
C759 C 0.67609 0.4878 0.09599 0.0
C760 C 0.69139 0.48876 0.16578 0.0
O761 O 0.67057 0.51302 0.1304 0.0
O762 O 0.65195 0.51372 0.15513 0.0
C763 C 0.61352 0.49954 0.1516 0.0
N764 N 0.62406 0.48788 0.16172 0.0
C765 C 0.59776 0.46972 0.16996 0.0
C766 C 0.58659 0.48157 0.15969 0.0
C767 C 0.59452 0.49649 0.15041 0.0
C768 C 0.61659 0.47341 0.1706 0.0
H769 H 0.61956 0.51108 0.14453 0.0
C770 C 0.6605 0.5216 0.14191 0.0
O771 O 0.69068 0.4889 0.10618 0.0
O772 O 0.66054 0.48545 0.10432 0.0
N773 N 0.64652 0.46625 0.17915 0.0
C774 C 0.65936 0.45547 0.18742 0.0
C775 C 0.6538 0.43948 0.19662 0.0
C776 C 0.6351 0.43485 0.19738 0.0
C777 C 0.62213 0.44623 0.18886 0.0
C778 C 0.62849 0.46195 0.17983 0.0
H779 H 0.67374 0.45902 0.18695 0.0
O780 O 0.67297 0.45791 0.1285 0.0
O781 O 0.65495 0.47693 0.14349 0.0
O782 O 0.69316 0.48582 0.14863 0.0
O783 O 0.67585 0.49049 0.17366 0.0
C784 C 0.60316 0.44251 0.18881 0.0
C785 C 0.59098 0.45427 0.17939 0.0
H786 H 0.57194 0.47926 0.15873 0.0
H787 H 0.58601 0.50566 0.14241 0.0
H788 H 0.6639 0.43075 0.20314 0.0
H789 H 0.63086 0.42248 0.20446 0.0
H790 H 0.59782 0.43049 0.19574 0.0
H791 H 0.57645 0.45111 0.17923 0.0
Mn792 Mn 0.51637 0.67904 0.12596 0.0
Mn793 Mn 0.5273 0.65395 0.16325 0.0
C794 C 0.54608 0.66862 0.13011 0.0
C795 C 0.50598 0.68032 0.09583 0.0
C796 C 0.52123 0.69515 0.16429 0.0
O797 O 0.49141 0.67059 0.13529 0.0
O798 O 0.50043 0.65261 0.15883 0.0
C799 C 0.51841 0.61703 0.14882 0.0
N800 N 0.53077 0.62891 0.15627 0.0
C801 C 0.55432 0.60576 0.15641 0.0
C802 C 0.54182 0.59325 0.14883 0.0
C803 C 0.5238 0.59893 0.14498 0.0
C804 C 0.54817 0.62361 0.15994 0.0
H805 H 0.50455 0.62135 0.14581 0.0
C806 C 0.488 0.65948 0.14842 0.0
O807 O 0.50492 0.69456 0.10652 0.0
O808 O 0.51265 0.66538 0.1028 0.0
N809 N 0.55297 0.65391 0.16884 0.0
C810 C 0.56357 0.66788 0.17533 0.0
C811 C 0.58208 0.66457 0.17955 0.0
C812 C 0.58946 0.64691 0.17719 0.0
C813 C 0.57826 0.63272 0.1706 0.0
C814 C 0.55989 0.63682 0.16671 0.0
H815 H 0.55795 0.68146 0.17723 0.0
O816 O 0.54291 0.68255 0.11949 0.0
O817 O 0.53181 0.66142 0.13795 0.0
O818 O 0.51839 0.69734 0.14715 0.0
O819 O 0.52441 0.67954 0.17163 0.0
C820 C 0.58466 0.61473 0.16753 0.0
C821 C 0.57273 0.60128 0.16035 0.0
H822 H 0.54593 0.57929 0.1458 0.0
H823 H 0.51409 0.58938 0.13906 0.0
H824 H 0.59064 0.67559 0.18461 0.0
H825 H 0.60377 0.64444 0.18039 0.0
H826 H 0.59878 0.61113 0.17046 0.0
H827 H 0.57788 0.58758 0.15778 0.0
Mn828 Mn 0.48054 0.31751 0.12836 0.0
Mn829 Mn 0.47079 0.34275 0.16587 0.0
C830 C 0.451 0.3281 0.13328 0.0
C831 C 0.49023 0.3162 0.09799 0.0
C832 C 0.47687 0.30153 0.16689 0.0
O833 O 0.50579 0.32587 0.13703 0.0
O834 O 0.49751 0.34411 0.16063 0.0
C835 C 0.47917 0.37964 0.15106 0.0
N836 N 0.46707 0.36777 0.15892 0.0
C837 C 0.4435 0.39089 0.15973 0.0
C838 C 0.45574 0.4034 0.15174 0.0
C839 C 0.47364 0.39773 0.14734 0.0
C840 C 0.44979 0.37305 0.16312 0.0
H841 H 0.49293 0.37533 0.14763 0.0
C842 C 0.50961 0.33709 0.14995 0.0
O843 O 0.49145 0.30194 0.10864 0.0
O844 O 0.48374 0.33114 0.1051 0.0
N845 N 0.4453 0.34277 0.17222 0.0
C846 C 0.43492 0.32878 0.17902 0.0
C847 C 0.41653 0.33207 0.18377 0.0
C848 C 0.40906 0.34971 0.1816 0.0
C849 C 0.42004 0.36391 0.17468 0.0
C850 C 0.43829 0.35984 0.17027 0.0
H851 H 0.44062 0.31521 0.18077 0.0
O852 O 0.45381 0.31415 0.12259 0.0
O853 O 0.46552 0.33522 0.14073 0.0
O854 O 0.47902 0.29925 0.14966 0.0
O855 O 0.47402 0.3172 0.17425 0.0
C856 C 0.41353 0.38189 0.17178 0.0
C857 C 0.42522 0.39535 0.16422 0.0
H858 H 0.45151 0.41734 0.1488 0.0
H859 H 0.48314 0.40728 0.14109 0.0
H860 H 0.40814 0.32103 0.18907 0.0
H861 H 0.39485 0.35216 0.1852 0.0
H862 H 0.3995 0.38547 0.17511 0.0
H863 H 0.41996 0.40904 0.16177 0.0
C864 C 0.12585 0.43575 0.3607 0.0
C865 C 0.13306 0.43553 0.34289 0.0
C866 C 0.12539 0.41975 0.37112 0.0
C867 C 0.1493 0.37655 0.37722 0.0
H868 H 0.10952 0.36787 0.41149 0.0
C869 C 0.15955 0.34652 0.44876 0.0
C870 C 0.14522 0.33696 0.45748 0.0
C871 C 0.15746 0.35304 0.4309 0.0
C872 C 0.12062 0.36973 0.40178 0.0
H873 H 0.1442 0.41847 0.32132 0.0
H874 H 0.14384 0.39019 0.33986 0.0
H875 H 0.10562 0.39017 0.38698 0.0
H876 H 0.11804 0.32541 0.4536 0.0
H877 H 0.11447 0.33675 0.42227 0.0
H878 H 0.16456 0.35658 0.39248 0.0
C879 C 0.13872 0.40282 0.34578 0.0
C880 C 0.11844 0.38268 0.38785 0.0
C881 C 0.13895 0.4189 0.33522 0.0
C882 C 0.12931 0.33283 0.44737 0.0
C883 C 0.12721 0.33941 0.42944 0.0
C884 C 0.15151 0.36359 0.39121 0.0
C885 C 0.13204 0.40315 0.3639 0.0
C886 C 0.13301 0.38677 0.37592 0.0
C887 C 0.14101 0.35017 0.42127 0.0
C888 C 0.13744 0.36057 0.40409 0.0
H889 H 0.12081 0.4484 0.36668 0.0
H890 H 0.12041 0.42054 0.3851 0.0
H891 H 0.16077 0.37941 0.36822 0.0
H892 H 0.17208 0.34981 0.45605 0.0
H893 H 0.16831 0.36141 0.42513 0.0
C894 C 0.64827 0.15778 0.44614 0.0
C895 C 0.65835 0.14378 0.4548 0.0
C896 C 0.64181 0.15553 0.42825 0.0
C897 C 0.62619 0.11878 0.39865 0.0
H898 H 0.61787 0.15872 0.36444 0.0
C899 C 0.56111 0.12485 0.35648 0.0
C900 C 0.56163 0.13187 0.3386 0.0
C901 C 0.57699 0.1241 0.36704 0.0
C902 C 0.62035 0.14731 0.37364 0.0
H903 H 0.67055 0.11688 0.45095 0.0
H904 H 0.65915 0.11294 0.41966 0.0
H905 H 0.63983 0.1626 0.38951 0.0
H906 H 0.57912 0.14244 0.31709 0.0
H907 H 0.60724 0.14161 0.33591 0.0
H908 H 0.60609 0.10383 0.38336 0.0
C909 C 0.65618 0.12561 0.42683 0.0
C910 C 0.63281 0.14958 0.38807 0.0
C911 C 0.66275 0.12791 0.44474 0.0
C912 C 0.57846 0.1373 0.33102 0.0
C913 C 0.59445 0.1368 0.34174 0.0
C914 C 0.61366 0.11658 0.38434 0.0
C915 C 0.64521 0.1392 0.41859 0.0
C916 C 0.63532 0.13558 0.40114 0.0
C917 C 0.5938 0.13029 0.35992 0.0
C918 C 0.61002 0.1311 0.37218 0.0
H919 H 0.64474 0.17026 0.4534 0.0
H920 H 0.63324 0.16618 0.42242 0.0
H921 H 0.62771 0.10775 0.4085 0.0
H922 H 0.54829 0.12022 0.36243 0.0
H923 H 0.57595 0.11929 0.38108 0.0
C924 C 0.86495 0.66049 0.4491 0.0
C925 C 0.84844 0.66021 0.4591 0.0
C926 C 0.86596 0.65203 0.43185 0.0
C927 C 0.84683 0.61164 0.41275 0.0
H928 H 0.86856 0.62442 0.3659 0.0
C929 C 0.86467 0.55558 0.36145 0.0
C930 C 0.86001 0.5585 0.34304 0.0
C931 C 0.86427 0.57001 0.37395 0.0
C932 C 0.86236 0.62071 0.37888 0.0
H933 H 0.81957 0.65299 0.45794 0.0
H934 H 0.8214 0.63828 0.42802 0.0
H935 H 0.86493 0.6481 0.38976 0.0
H936 H 0.85257 0.57886 0.32277 0.0
H937 H 0.85112 0.60431 0.34491 0.0
H938 H 0.84491 0.5844 0.4027 0.0
C939 C 0.83357 0.64478 0.43357 0.0
C940 C 0.86037 0.63422 0.3925 0.0
C941 C 0.83256 0.65315 0.45072 0.0
C942 C 0.85587 0.57631 0.33704 0.0
C943 C 0.8552 0.59084 0.34966 0.0
C944 C 0.84916 0.59821 0.39944 0.0
C945 C 0.85046 0.64328 0.42445 0.0
C946 C 0.85242 0.62974 0.40947 0.0
C947 C 0.85908 0.58774 0.36835 0.0
C948 C 0.85684 0.60249 0.38229 0.0
H949 H 0.87741 0.66584 0.4552 0.0
H950 H 0.87914 0.65098 0.42507 0.0
H951 H 0.84098 0.60774 0.42586 0.0
H952 H 0.86854 0.54203 0.36623 0.0
H953 H 0.86786 0.56719 0.38809 0.0
C954 C 0.3451 0.83115 0.45185 0.0
C955 C 0.33946 0.84781 0.45975 0.0
C956 C 0.35377 0.83094 0.43483 0.0
C957 C 0.36739 0.85644 0.39356 0.0
H958 H 0.4151 0.83528 0.40374 0.0
C959 C 0.4461 0.859 0.36496 0.0
C960 C 0.44419 0.85414 0.34646 0.0
C961 C 0.43125 0.85771 0.37691 0.0
C962 C 0.40182 0.84102 0.40053 0.0
H963 H 0.33672 0.87708 0.45519 0.0
H964 H 0.35215 0.8767 0.42527 0.0
H965 H 0.3911 0.83324 0.42661 0.0
H966 H 0.42506 0.84554 0.32545 0.0
H967 H 0.39873 0.84319 0.34654 0.0
H968 H 0.37849 0.86434 0.36736 0.0
C969 C 0.34974 0.86383 0.43231 0.0
C970 C 0.38802 0.83981 0.41363 0.0
C971 C 0.34096 0.86404 0.44943 0.0
C972 C 0.42688 0.84891 0.33981 0.0
C973 C 0.41188 0.8477 0.3518 0.0
C974 C 0.38122 0.85731 0.38017 0.0
C975 C 0.35702 0.84738 0.42536 0.0
C976 C 0.37074 0.84765 0.4104 0.0
C977 C 0.41403 0.85188 0.37053 0.0
C978 C 0.39867 0.84982 0.38371 0.0
H979 H 0.34384 0.81836 0.45934 0.0
H980 H 0.35906 0.81805 0.42963 0.0
H981 H 0.35417 0.86268 0.39083 0.0
H982 H 0.45914 0.86385 0.37021 0.0
H983 H 0.43324 0.86138 0.39118 0.0
C984 C 0.12848 0.56141 0.64105 0.0
C985 C 0.13574 0.56266 0.6588 0.0
C986 C 0.12728 0.5769 0.62996 0.0
C987 C 0.14942 0.62033 0.62124 0.0
H988 H 0.10835 0.62628 0.58788 0.0
C989 C 0.15632 0.6467 0.54766 0.0
C990 C 0.14187 0.65655 0.5395 0.0
C991 C 0.15495 0.64053 0.56574 0.0
C992 C 0.1198 0.62514 0.59729 0.0
H993 H 0.1464 0.58105 0.67951 0.0
H994 H 0.14481 0.60849 0.65973 0.0
H995 H 0.10578 0.60525 0.61371 0.0
H996 H 0.11507 0.66861 0.54438 0.0
H997 H 0.11265 0.65769 0.576 0.0
H998 H 0.16377 0.63956 0.60422 0.0
C999 C 0.14012 0.59542 0.65443 0.0
C1000 C 0.11837 0.61297 0.612 0.0
C1001 C 0.14105 0.57983 0.66569 0.0
C1002 C 0.12643 0.66099 0.5502 0.0
C1003 C 0.12501 0.65469 0.56829 0.0
C1004 C 0.15092 0.63242 0.60639 0.0
C1005 C 0.13328 0.59404 0.63641 0.0
C1006 C 0.13342 0.60987 0.62365 0.0
C1007 C 0.13906 0.64398 0.57608 0.0
C1008 C 0.13635 0.63442 0.59388 0.0
H1009 H 0.12395 0.54832 0.63562 0.0
H1010 H 0.12223 0.57531 0.61607 0.0
H1011 H 0.16122 0.61825 0.63004 0.0
H1012 H 0.16849 0.64316 0.53989 0.0
H1013 H 0.16593 0.63214 0.57123 0.0
C1014 C 0.33892 0.13069 0.55016 0.0
C1015 C 0.336 0.14684 0.54003 0.0
C1016 C 0.34776 0.13148 0.56723 0.0
C1017 C 0.38408 0.15872 0.58559 0.0
H1018 H 0.37862 0.13106 0.63074 0.0
C1019 C 0.42703 0.14858 0.65693 0.0
C1020 C 0.44413 0.14406 0.64929 0.0
C1021 C 0.41145 0.14979 0.6457 0.0
C1022 C 0.38018 0.139 0.61826 0.0
H1023 H 0.33776 0.17654 0.54072 0.0
H1024 H 0.353 0.17788 0.57043 0.0
H1025 H 0.35334 0.1317 0.60827 0.0
H1026 H 0.45818 0.1356 0.62454 0.0
H1027 H 0.43127 0.13833 0.60486 0.0
H1028 H 0.41108 0.16511 0.59479 0.0
C1029 C 0.34882 0.16464 0.56511 0.0
C1030 C 0.3658 0.13929 0.60544 0.0
C1031 C 0.34012 0.16385 0.54812 0.0
C1032 C 0.44531 0.14 0.63054 0.0
C1033 C 0.42989 0.14138 0.61934 0.0
C1034 C 0.39845 0.1581 0.59812 0.0
C1035 C 0.35367 0.14843 0.57431 0.0
C1036 C 0.36772 0.14912 0.58896 0.0
C1037 C 0.41283 0.14638 0.62677 0.0
C1038 C 0.39676 0.14813 0.61449 0.0
H1039 H 0.33589 0.1174 0.54423 0.0
H1040 H 0.35139 0.11878 0.57406 0.0
H1041 H 0.38609 0.16612 0.57285 0.0
H1042 H 0.42578 0.15129 0.67149 0.0
H1043 H 0.39842 0.15362 0.65174 0.0
C1044 C 0.86242 0.41799 0.66756 0.0
C1045 C 0.86765 0.4351 0.66046 0.0
C1046 C 0.86319 0.40231 0.65641 0.0
C1047 C 0.88346 0.38471 0.61309 0.0
H1048 H 0.83747 0.35869 0.60703 0.0
C1049 C 0.87141 0.33913 0.55014 0.0
C1050 C 0.85543 0.34415 0.54055 0.0
C1051 C 0.87395 0.34463 0.56837 0.0
C1052 C 0.85049 0.36566 0.60871 0.0
H1053 H 0.87921 0.44925 0.63705 0.0
H1054 H 0.88058 0.42215 0.61768 0.0
H1055 H 0.84153 0.37936 0.63313 0.0
H1056 H 0.82903 0.35776 0.54305 0.0
H1057 H 0.83353 0.36741 0.57459 0.0
H1058 H 0.89209 0.37194 0.58816 0.0
C1059 C 0.87576 0.42063 0.63166 0.0
C1060 C 0.85287 0.37738 0.62373 0.0
C1061 C 0.87475 0.4362 0.64264 0.0
C1062 C 0.84159 0.35378 0.54994 0.0
C1063 C 0.84408 0.35915 0.56814 0.0
C1064 C 0.88116 0.37292 0.59819 0.0
C1065 C 0.86975 0.40356 0.63828 0.0
C1066 C 0.86902 0.38774 0.62551 0.0
C1067 C 0.8605 0.35511 0.5774 0.0
C1068 C 0.86434 0.36392 0.59537 0.0
H1069 H 0.8572 0.41689 0.68143 0.0
H1070 H 0.85849 0.38931 0.66186 0.0
H1071 H 0.89619 0.3923 0.6143 0.0
H1072 H 0.88232 0.33165 0.54336 0.0
H1073 H 0.8867 0.3412 0.57521 0.0
C1074 C 0.57067 0.85824 0.65456 0.0
C1075 C 0.55261 0.86234 0.64932 0.0
C1076 C 0.58459 0.85733 0.64129 0.0
C1077 C 0.58997 0.85135 0.5911 0.0
H1078 H 0.6401 0.86722 0.5992 0.0
C1079 C 0.6436 0.83753 0.53676 0.0
C1080 C 0.65304 0.85315 0.53055 0.0
C1081 C 0.63434 0.83778 0.55347 0.0
C1082 C 0.62614 0.86268 0.59684 0.0
H1083 H 0.5351 0.87051 0.62677 0.0
H1084 H 0.55923 0.86948 0.6038 0.0
H1085 H 0.61737 0.87038 0.6239 0.0
H1086 H 0.66141 0.88081 0.53772 0.0
H1087 H 0.64489 0.8813 0.567 0.0
H1088 H 0.59842 0.84393 0.56411 0.0
C1089 C 0.56269 0.86605 0.61784 0.0
C1090 C 0.61317 0.86437 0.61097 0.0
C1091 C 0.54885 0.86669 0.63098 0.0
C1092 C 0.65422 0.86856 0.54212 0.0
C1093 C 0.64481 0.86884 0.55889 0.0
C1094 C 0.60286 0.84947 0.57718 0.0
C1095 C 0.58066 0.86096 0.62271 0.0
C1096 C 0.59487 0.85882 0.60819 0.0
C1097 C 0.63418 0.85369 0.56433 0.0
C1098 C 0.62107 0.85513 0.57982 0.0
H1099 H 0.57386 0.85517 0.66875 0.0
H1100 H 0.59826 0.85332 0.64551 0.0
H1101 H 0.57608 0.84698 0.58834 0.0
H1102 H 0.6427 0.82531 0.52834 0.0
H1103 H 0.62655 0.82577 0.55751 0.0
C1104 C 0.36419 0.12966 0.44817 0.0
C1105 C 0.34619 0.13534 0.44457 0.0
C1106 C 0.37739 0.12997 0.43439 0.0
C1107 C 0.3848 0.13419 0.38402 0.0
H1108 H 0.43257 0.15106 0.40032 0.0
C1109 C 0.45406 0.1301 0.34328 0.0
C1110 C 0.46584 0.14528 0.34525 0.0
C1111 C 0.43724 0.12958 0.3526 0.0
C1112 C 0.41927 0.1465 0.39548 0.0
H1113 H 0.32734 0.14461 0.42362 0.0
H1114 H 0.35077 0.14602 0.39936 0.0
H1115 H 0.40811 0.1476 0.42233 0.0
H1116 H 0.46838 0.17253 0.35705 0.0
H1117 H 0.43921 0.17157 0.37315 0.0
H1118 H 0.39661 0.13269 0.35699 0.0
C1119 C 0.35465 0.14112 0.41284 0.0
C1120 C 0.4052 0.14439 0.40817 0.0
C1121 C 0.34128 0.14048 0.42669 0.0
C1122 C 0.45982 0.16047 0.3555 0.0
C1123 C 0.44309 0.15996 0.36472 0.0
C1124 C 0.3991 0.13605 0.37125 0.0
C1125 C 0.37297 0.13618 0.41665 0.0
C1126 C 0.38774 0.13829 0.40269 0.0
C1127 C 0.43199 0.14424 0.36397 0.0
C1128 C 0.41643 0.14237 0.37691 0.0
H1129 H 0.36811 0.12508 0.46177 0.0
H1130 H 0.39116 0.1255 0.43774 0.0
H1131 H 0.3716 0.12923 0.37936 0.0
H1132 H 0.45828 0.1182 0.33544 0.0
H1133 H 0.42893 0.11728 0.35183 0.0
C1134 C 0.86163 0.37053 0.44485 0.0
C1135 C 0.85655 0.35206 0.4432 0.0
C1136 C 0.86024 0.38233 0.42987 0.0
C1137 C 0.85795 0.38458 0.37952 0.0
H1138 H 0.83602 0.43206 0.38936 0.0
C1139 C 0.86356 0.45234 0.3365 0.0
C1140 C 0.8474 0.46287 0.33555 0.0
C1141 C 0.86364 0.43556 0.34591 0.0
C1142 C 0.84199 0.41878 0.38632 0.0
H1143 H 0.84738 0.33096 0.42446 0.0
H1144 H 0.8447 0.35179 0.39799 0.0
H1145 H 0.83896 0.40991 0.41397 0.0
H1146 H 0.81824 0.46303 0.34163 0.0
H1147 H 0.81847 0.43393 0.358 0.0
H1148 H 0.86177 0.39418 0.35182 0.0
C1149 C 0.84956 0.35715 0.41097 0.0
C1150 C 0.84374 0.40609 0.40047 0.0
C1151 C 0.85096 0.3453 0.42607 0.0
C1152 C 0.83098 0.4554 0.34239 0.0
C1153 C 0.83108 0.43873 0.35175 0.0
C1154 C 0.85655 0.39753 0.36533 0.0
C1155 C 0.85399 0.37585 0.41281 0.0
C1156 C 0.85172 0.38886 0.3973 0.0
C1157 C 0.84757 0.42916 0.35442 0.0
C1158 C 0.84848 0.41472 0.36866 0.0
H1159 H 0.86673 0.37585 0.45776 0.0
H1160 H 0.86415 0.39657 0.43164 0.0
H1161 H 0.86435 0.37146 0.37673 0.0
H1162 H 0.87642 0.45773 0.33135 0.0
H1163 H 0.87653 0.42842 0.34784 0.0
C1164 C 0.55067 0.84067 0.35007 0.0
C1165 C 0.54126 0.85445 0.34035 0.0
C1166 C 0.56856 0.84355 0.35622 0.0
C1167 C 0.59733 0.88114 0.37159 0.0
H1168 H 0.63281 0.84209 0.37864 0.0
C1169 C 0.64103 0.87551 0.4357 0.0
C1170 C 0.65877 0.86818 0.43493 0.0
C1171 C 0.63028 0.87653 0.41995 0.0
C1172 C 0.62328 0.85329 0.3765 0.0
H1173 H 0.54377 0.88167 0.32853 0.0
H1174 H 0.57511 0.8867 0.33938 0.0
H1175 H 0.60743 0.83778 0.3572 0.0
H1176 H 0.67992 0.85745 0.4171 0.0
H1177 H 0.66083 0.85881 0.38922 0.0
H1178 H 0.61268 0.89633 0.39147 0.0
C1179 C 0.56851 0.87371 0.3423 0.0
C1180 C 0.60864 0.85076 0.36434 0.0
C1181 C 0.55058 0.87079 0.33604 0.0
C1182 C 0.66609 0.86282 0.41796 0.0
C1183 C 0.6552 0.86363 0.4021 0.0
C1184 C 0.61188 0.88362 0.3838 0.0
C1185 C 0.57751 0.86029 0.35287 0.0
C1186 C 0.5951 0.86437 0.36234 0.0
C1187 C 0.63709 0.8703 0.40302 0.0
C1188 C 0.62452 0.8694 0.38701 0.0
H1189 H 0.54399 0.82785 0.35353 0.0
H1190 H 0.57498 0.833 0.36451 0.0
H1191 H 0.58713 0.89189 0.37043 0.0
H1192 H 0.63529 0.88011 0.44863 0.0
H1193 H 0.61632 0.88146 0.42124 0.0
C1194 C 0.12693 0.63416 0.44415 0.0
C1195 C 0.13404 0.65195 0.44256 0.0
C1196 C 0.127 0.62235 0.42914 0.0
C1197 C 0.15192 0.61195 0.3876 0.0
H1198 H 0.11038 0.57993 0.37847 0.0
C1199 C 0.15796 0.53909 0.35816 0.0
C1200 C 0.14394 0.53227 0.34677 0.0
C1201 C 0.15681 0.55672 0.36556 0.0
C1202 C 0.12201 0.58895 0.38056 0.0
H1203 H 0.14576 0.67194 0.42401 0.0
H1204 H 0.14644 0.65089 0.39753 0.0
H1205 H 0.10718 0.60557 0.39969 0.0
H1206 H 0.11819 0.53911 0.33343 0.0
H1207 H 0.11618 0.56991 0.34648 0.0
H1208 H 0.167 0.59479 0.36905 0.0
C1209 C 0.14091 0.64612 0.41047 0.0
C1210 C 0.12021 0.60353 0.39283 0.0
C1211 C 0.14054 0.6581 0.42552 0.0
C1212 C 0.1292 0.54388 0.3422 0.0
C1213 C 0.128 0.56149 0.34973 0.0
C1214 C 0.1538 0.59721 0.37544 0.0
C1215 C 0.13418 0.62811 0.41221 0.0
C1216 C 0.13528 0.61483 0.39688 0.0
C1217 C 0.14158 0.56792 0.36183 0.0
C1218 C 0.13898 0.58527 0.37218 0.0
H1219 H 0.12147 0.62932 0.45711 0.0
H1220 H 0.12193 0.60849 0.43095 0.0
H1221 H 0.16377 0.62044 0.39051 0.0
H1222 H 0.16958 0.53059 0.36188 0.0
H1223 H 0.16741 0.56119 0.37499 0.0
C1224 C 0.33812 0.8533 0.5738 0.0
C1225 C 0.34489 0.85773 0.55633 0.0
C1226 C 0.35008 0.85248 0.58887 0.0
C1227 C 0.39926 0.84627 0.59873 0.0
H1228 H 0.38804 0.8645 0.64744 0.0
C1229 C 0.44958 0.83358 0.65556 0.0
C1230 C 0.45747 0.85006 0.66173 0.0
C1231 C 0.43251 0.83364 0.64696 0.0
C1232 C 0.39118 0.85921 0.63392 0.0
H1233 H 0.36878 0.86656 0.54106 0.0
H1234 H 0.38955 0.86532 0.56715 0.0
H1235 H 0.36499 0.86708 0.62282 0.0
H1236 H 0.45271 0.87919 0.66565 0.0
H1237 H 0.42274 0.87925 0.65041 0.0
H1238 H 0.42532 0.83847 0.60951 0.0
C1239 C 0.37528 0.86174 0.56926 0.0
C1240 C 0.37804 0.86061 0.61988 0.0
C1241 C 0.36342 0.86242 0.5543 0.0
C1242 C 0.447 0.86628 0.66099 0.0
C1243 C 0.42984 0.86632 0.65232 0.0
C1244 C 0.4121 0.8445 0.61271 0.0
C1245 C 0.36887 0.85642 0.58666 0.0
C1246 C 0.38208 0.85432 0.60206 0.0
C1247 C 0.42298 0.85016 0.64436 0.0
C1248 C 0.40829 0.85103 0.63039 0.0
H1249 H 0.32375 0.84999 0.57566 0.0
H1250 H 0.34474 0.84832 0.6021 0.0
H1251 H 0.40296 0.84147 0.58522 0.0
H1252 H 0.45716 0.8208 0.6562 0.0
H1253 H 0.42738 0.82097 0.6411 0.0
C1254 C 0.16511 0.46052 0.64534 0.0
C1255 C 0.14946 0.46694 0.6546 0.0
C1256 C 0.16473 0.44385 0.636 0.0
C1257 C 0.15262 0.42066 0.60419 0.0
H1258 H 0.13216 0.37368 0.61851 0.0
C1259 C 0.13409 0.36728 0.55008 0.0
C1260 C 0.13891 0.34898 0.55344 0.0
C1261 C 0.13514 0.38029 0.56402 0.0
C1262 C 0.13803 0.38669 0.61437 0.0
H1263 H 0.12161 0.46012 0.66262 0.0
H1264 H 0.12094 0.43086 0.64605 0.0
H1265 H 0.13538 0.39824 0.64142 0.0
H1266 H 0.14736 0.32947 0.57415 0.0
H1267 H 0.14979 0.35248 0.59873 0.0
H1268 H 0.1548 0.40973 0.57726 0.0
C1269 C 0.1335 0.43881 0.64613 0.0
C1270 C 0.13976 0.40073 0.62744 0.0
C1271 C 0.13388 0.45557 0.65557 0.0
C1272 C 0.14394 0.34364 0.57124 0.0
C1273 C 0.14517 0.35676 0.58527 0.0
C1274 C 0.15065 0.40685 0.59118 0.0
C1275 C 0.14868 0.4332 0.63565 0.0
C1276 C 0.14716 0.41783 0.62243 0.0
C1277 C 0.14103 0.37531 0.58171 0.0
C1278 C 0.14334 0.38968 0.59603 0.0
H1279 H 0.17746 0.46877 0.64458 0.0
H1280 H 0.17675 0.43968 0.62829 0.0
H1281 H 0.15805 0.4338 0.59982 0.0
H1282 H 0.12953 0.37155 0.53658 0.0
H1283 H 0.13136 0.39432 0.56089 0.0
C1284 C 0.54797 0.12788 0.64602 0.0
C1285 C 0.54133 0.14426 0.65355 0.0
C1286 C 0.56546 0.12726 0.63821 0.0
C1287 C 0.59994 0.15948 0.61838 0.0
H1288 H 0.62445 0.11365 0.60703 0.0
C1289 C 0.66318 0.14822 0.56889 0.0
C1290 C 0.65585 0.14095 0.55263 0.0
C1291 C 0.65245 0.14892 0.58482 0.0
C1292 C 0.61792 0.12658 0.6104 0.0
H1293 H 0.548 0.17236 0.66035 0.0
H1294 H 0.5791 0.17098 0.64814 0.0
H1295 H 0.60047 0.11418 0.63039 0.0
H1296 H 0.63237 0.12753 0.54035 0.0
H1297 H 0.61372 0.12845 0.56828 0.0
H1298 H 0.61796 0.17176 0.59865 0.0
C1299 C 0.57062 0.15883 0.64723 0.0
C1300 C 0.60398 0.12689 0.62357 0.0
C1301 C 0.55288 0.15961 0.65447 0.0
C1302 C 0.63807 0.13362 0.55266 0.0
C1303 C 0.62753 0.13398 0.5686 0.0
C1304 C 0.61428 0.15922 0.60569 0.0
C1305 C 0.57689 0.14291 0.63821 0.0
C1306 C 0.59417 0.14319 0.62714 0.0
C1307 C 0.6346 0.1417 0.58473 0.0
C1308 C 0.62279 0.14265 0.60107 0.0
H1309 H 0.53915 0.11595 0.64499 0.0
H1310 H 0.56945 0.11479 0.63122 0.0
H1311 H 0.59277 0.17231 0.6204 0.0
H1312 H 0.67703 0.15362 0.56915 0.0
H1313 H 0.65806 0.15497 0.59719 0.0
C1314 C 0.86778 0.54239 0.65667 0.0
C1315 C 0.85253 0.53062 0.6554 0.0
C1316 C 0.86791 0.55917 0.64723 0.0
C1317 C 0.84935 0.57668 0.60487 0.0
H1318 H 0.86671 0.62469 0.61983 0.0
C1319 C 0.86445 0.63146 0.55118 0.0
C1320 C 0.85854 0.6494 0.55471 0.0
C1321 C 0.86447 0.61834 0.56506 0.0
C1322 C 0.86172 0.61138 0.6155 0.0
H1323 H 0.82478 0.52806 0.64482 0.0
H1324 H 0.82506 0.55714 0.62851 0.0
H1325 H 0.86431 0.59989 0.6426 0.0
H1326 H 0.84921 0.66824 0.57564 0.0
H1327 H 0.84852 0.64498 0.6001 0.0
H1328 H 0.84718 0.58755 0.57794 0.0
C1329 C 0.83702 0.55329 0.63647 0.0
C1330 C 0.86046 0.59721 0.6285 0.0
C1331 C 0.8369 0.53662 0.64581 0.0
C1332 C 0.85349 0.65433 0.57261 0.0
C1333 C 0.85326 0.64107 0.58657 0.0
C1334 C 0.85086 0.59063 0.59196 0.0
C1335 C 0.85278 0.56436 0.63645 0.0
C1336 C 0.85411 0.57977 0.62326 0.0
C1337 C 0.85848 0.62282 0.58285 0.0
C1338 C 0.85699 0.60819 0.59703 0.0
H1339 H 0.88002 0.53817 0.66398 0.0
H1340 H 0.88024 0.56746 0.6474 0.0
H1341 H 0.84473 0.56328 0.60036 0.0
H1342 H 0.86901 0.62753 0.53757 0.0
H1343 H 0.8691 0.6046 0.56178 0.0
C1344 C 0.33528 0.44654 0.12834 0.0
C1345 C 0.33917 0.45517 0.14516 0.0
C1346 C 0.34118 0.42855 0.12507 0.0
C1347 C 0.36191 0.38727 0.14736 0.0
H1348 H 0.39143 0.38531 0.10316 0.0
C1349 C 0.41678 0.33088 0.13561 0.0
C1350 C 0.43393 0.33866 0.13165 0.0
C1351 C 0.40085 0.34163 0.13446 0.0
C1352 C 0.38307 0.38552 0.11545 0.0
H1353 H 0.35091 0.45113 0.17224 0.0
H1354 H 0.36125 0.42003 0.16651 0.0
H1355 H 0.36994 0.41049 0.1075 0.0
H1356 H 0.44799 0.36288 0.1218 0.0
H1357 H 0.42045 0.38161 0.11983 0.0
H1358 H 0.37602 0.3629 0.15579 0.0
C1359 C 0.35362 0.42703 0.15584 0.0
C1360 C 0.37061 0.39986 0.11787 0.0
C1361 C 0.34784 0.44498 0.15906 0.0
C1362 C 0.43489 0.35678 0.12533 0.0
C1363 C 0.41908 0.36739 0.12396 0.0
C1364 C 0.37434 0.37285 0.14488 0.0
C1365 C 0.35092 0.41881 0.13861 0.0
C1366 C 0.3605 0.40136 0.13422 0.0
C1367 C 0.40191 0.36007 0.12879 0.0
C1368 C 0.3857 0.37237 0.12932 0.0
H1369 H 0.32857 0.45398 0.11736 0.0
H1370 H 0.33876 0.42251 0.11171 0.0
H1371 H 0.35412 0.38791 0.15999 0.0
H1372 H 0.4158 0.31677 0.14016 0.0
H1373 H 0.38779 0.33562 0.1382 0.0
C1374 C 0.44602 0.63363 0.86131 0.0
C1375 C 0.44291 0.65189 0.8562 0.0
C1376 C 0.43199 0.62074 0.86026 0.0
C1377 C 0.38185 0.61447 0.85775 0.0
H1378 H 0.39633 0.567 0.83855 0.0
C1379 C 0.34205 0.54557 0.86679 0.0
C1380 C 0.34297 0.53304 0.85214 0.0
C1381 C 0.35104 0.56254 0.86563 0.0
C1382 C 0.39193 0.58024 0.84369 0.0
H1383 H 0.42251 0.67148 0.84718 0.0
H1384 H 0.39769 0.64863 0.84487 0.0
H1385 H 0.41864 0.59142 0.84035 0.0
H1386 H 0.35237 0.52922 0.82414 0.0
H1387 H 0.36781 0.55872 0.8221 0.0
H1388 H 0.35507 0.60268 0.8617 0.0
C1389 C 0.41108 0.64432 0.84965 0.0
C1390 C 0.40481 0.59426 0.84483 0.0
C1391 C 0.42523 0.65733 0.85085 0.0
C1392 C 0.3517 0.53841 0.83581 0.0
C1393 C 0.36055 0.55532 0.83462 0.0
C1394 C 0.3689 0.60024 0.85684 0.0
C1395 C 0.41443 0.6258 0.8541 0.0
C1396 C 0.40004 0.6115 0.85199 0.0
C1397 C 0.361 0.56721 0.84978 0.0
C1398 C 0.37389 0.58296 0.84983 0.0
H1399 H 0.45941 0.62927 0.86612 0.0
H1400 H 0.43495 0.60673 0.86428 0.0
H1401 H 0.37779 0.62757 0.86349 0.0
H1402 H 0.33539 0.54185 0.87955 0.0
H1403 H 0.35122 0.57142 0.87754 0.0
C1404 C 0.44357 0.35031 0.84574 0.0
C1405 C 0.45356 0.34134 0.8596 0.0
C1406 C 0.42585 0.3567 0.84906 0.0
C1407 C 0.39895 0.37445 0.88692 0.0
H1408 H 0.3621 0.37995 0.8489 0.0
C1409 C 0.35605 0.43894 0.87929 0.0
C1410 C 0.33807 0.43805 0.87257 0.0
C1411 C 0.36659 0.42309 0.88084 0.0
C1412 C 0.37201 0.37827 0.85984 0.0
H1413 H 0.4523 0.33104 0.8875 0.0
H1414 H 0.4212 0.34234 0.89334 0.0
H1415 H 0.38687 0.35778 0.84491 0.0
H1416 H 0.31629 0.42001 0.8636 0.0
H1417 H 0.33499 0.39194 0.86591 0.0
H1418 H 0.38454 0.39545 0.90151 0.0
C1419 C 0.42722 0.34448 0.87992 0.0
C1420 C 0.3863 0.36568 0.85748 0.0
C1421 C 0.44499 0.33795 0.87655 0.0
C1422 C 0.33032 0.42094 0.86844 0.0
C1423 C 0.34098 0.40497 0.86979 0.0
C1424 C 0.38471 0.38705 0.88925 0.0
C1425 C 0.41766 0.35434 0.86634 0.0
C1426 C 0.40035 0.36422 0.87064 0.0
C1427 C 0.35932 0.40595 0.8758 0.0
C1428 C 0.37159 0.3897 0.87535 0.0
H1429 H 0.44967 0.35301 0.83245 0.0
H1430 H 0.41901 0.36443 0.83836 0.0
H1431 H 0.40955 0.37373 0.89731 0.0
H1432 H 0.36212 0.45201 0.88299 0.0
H1433 H 0.38073 0.42442 0.88524 0.0
C1434 C 0.6503 0.45093 0.82889 0.0
C1435 C 0.65693 0.45788 0.84562 0.0
C1436 C 0.64135 0.43405 0.82827 0.0
C1437 C 0.62831 0.39195 0.85317 0.0
H1438 H 0.58003 0.40305 0.83383 0.0
C1439 C 0.54936 0.36506 0.85959 0.0
C1440 C 0.55065 0.34647 0.85489 0.0
C1441 C 0.56434 0.3767 0.8573 0.0
C1442 C 0.59347 0.39958 0.83903 0.0
H1443 H 0.6611 0.4517 0.87444 0.0
H1444 H 0.6452 0.42211 0.87334 0.0
H1445 H 0.60433 0.42553 0.83102 0.0
H1446 H 0.56885 0.32498 0.84549 0.0
H1447 H 0.59541 0.34551 0.84141 0.0
H1448 H 0.61703 0.36595 0.86144 0.0
C1449 C 0.64704 0.42977 0.86073 0.0
C1450 C 0.60745 0.41245 0.83737 0.0
C1451 C 0.65609 0.44672 0.86136 0.0
C1452 C 0.56749 0.33941 0.84877 0.0
C1453 C 0.58263 0.35109 0.84655 0.0
C1454 C 0.61428 0.37881 0.85451 0.0
C1455 C 0.63878 0.42378 0.84435 0.0
C1456 C 0.62493 0.40891 0.84463 0.0
C1457 C 0.58108 0.3699 0.85061 0.0
C1458 C 0.59662 0.3827 0.84774 0.0
H1459 H 0.65102 0.45905 0.81646 0.0
H1460 H 0.63535 0.42959 0.81541 0.0
H1461 H 0.64167 0.38896 0.85896 0.0
H1462 H 0.53672 0.37062 0.86512 0.0
H1463 H 0.56284 0.39104 0.86091 0.0
C1464 C 0.65767 0.57123 0.85778 0.0
C1465 C 0.65106 0.55345 0.86106 0.0
C1466 C 0.64554 0.58618 0.85774 0.0
C1467 C 0.59622 0.59567 0.8516 0.0
H1468 H 0.60733 0.64411 0.87065 0.0
C1469 C 0.54819 0.65385 0.83649 0.0
C1470 C 0.53903 0.65981 0.85238 0.0
C1471 C 0.56496 0.64479 0.83781 0.0
C1472 C 0.6042 0.63064 0.8652 0.0
H1473 H 0.62728 0.53738 0.86866 0.0
H1474 H 0.60623 0.56326 0.86889 0.0
H1475 H 0.63027 0.61938 0.87321 0.0
H1476 H 0.54119 0.66276 0.88191 0.0
H1477 H 0.57072 0.6467 0.88418 0.0
H1478 H 0.57033 0.6067 0.84352 0.0
C1479 C 0.62049 0.56576 0.86557 0.0
C1480 C 0.61728 0.61655 0.86658 0.0
C1481 C 0.63252 0.55092 0.86542 0.0
C1482 C 0.54794 0.6583 0.86944 0.0
C1483 C 0.56482 0.64916 0.87075 0.0
C1484 C 0.58343 0.6097 0.84989 0.0
C1485 C 0.62674 0.58353 0.86134 0.0
C1486 C 0.61335 0.59885 0.85984 0.0
C1487 C 0.57293 0.64153 0.85502 0.0
C1488 C 0.58725 0.62729 0.85666 0.0
H1489 H 0.67205 0.57346 0.85475 0.0
H1490 H 0.65077 0.59967 0.85438 0.0
H1491 H 0.59259 0.58228 0.8464 0.0
H1492 H 0.54181 0.65507 0.82311 0.0
H1493 H 0.57106 0.63913 0.82548 0.0
C1494 C 0.649 0.55179 0.15337 0.0
C1495 C 0.65735 0.54151 0.13934 0.0
C1496 C 0.6434 0.56982 0.15023 0.0
C1497 C 0.62614 0.59718 0.11256 0.0
H1498 H 0.62168 0.63408 0.15065 0.0
C1499 C 0.56209 0.64003 0.12177 0.0
C1500 C 0.56314 0.65817 0.12802 0.0
C1501 C 0.5779 0.62951 0.11994 0.0
C1502 C 0.6231 0.62415 0.13969 0.0
H1503 H 0.66754 0.54259 0.11138 0.0
H1504 H 0.65763 0.57418 0.10588 0.0
H1505 H 0.64351 0.60893 0.15439 0.0
H1506 H 0.5814 0.68016 0.13599 0.0
H1507 H 0.60944 0.66144 0.13326 0.0
H1508 H 0.60511 0.61186 0.09829 0.0
C1509 C 0.65534 0.56816 0.11928 0.0
C1510 C 0.63549 0.60966 0.1419 0.0
C1511 C 0.66106 0.5501 0.12246 0.0
C1512 C 0.58036 0.66604 0.13148 0.0
C1513 C 0.5963 0.65538 0.12989 0.0
C1514 C 0.61372 0.61159 0.11041 0.0
C1515 C 0.64595 0.57801 0.13297 0.0
C1516 C 0.63653 0.59558 0.12873 0.0
C1517 C 0.59517 0.63693 0.12426 0.0
C1518 C 0.61142 0.6247 0.12436 0.0
H1519 H 0.64609 0.54569 0.16661 0.0
H1520 H 0.63602 0.5769 0.16102 0.0
H1521 H 0.62654 0.58656 0.10217 0.0
H1522 H 0.54892 0.63386 0.11862 0.0
H1523 H 0.57649 0.61528 0.11587 0.0
C1524 C 0.34583 0.5689 0.15301 0.0
C1525 C 0.35096 0.55158 0.14637 0.0
C1526 C 0.35891 0.58295 0.15444 0.0
C1527 C 0.4091 0.58932 0.15713 0.0
H1528 H 0.39935 0.63983 0.14352 0.0
C1529 C 0.46438 0.64307 0.16704 0.0
C1530 C 0.46899 0.65274 0.151 0.0
C1531 C 0.44774 0.63374 0.16832 0.0
C1532 C 0.40218 0.62578 0.14747 0.0
H1533 H 0.37302 0.5357 0.13441 0.0
H1534 H 0.39573 0.56004 0.13672 0.0
H1535 H 0.37469 0.61692 0.14156 0.0
H1536 H 0.45904 0.66145 0.12431 0.0
H1537 H 0.42992 0.64487 0.12652 0.0
H1538 H 0.43652 0.59784 0.16271 0.0
C1539 C 0.38194 0.56273 0.14155 0.0
C1540 C 0.38807 0.61271 0.14646 0.0
C1541 C 0.36896 0.54877 0.14023 0.0
C1542 C 0.45593 0.65407 0.13683 0.0
C1543 C 0.43923 0.64464 0.13811 0.0
C1544 C 0.42302 0.60232 0.15839 0.0
C1545 C 0.37718 0.5799 0.14892 0.0
C1546 C 0.39149 0.59426 0.15106 0.0
C1547 C 0.43534 0.63378 0.15357 0.0
C1548 C 0.4198 0.62065 0.15342 0.0
H1549 H 0.33187 0.5714 0.15746 0.0
H1550 H 0.35483 0.59604 0.16018 0.0
H1551 H 0.41228 0.57529 0.16073 0.0
H1552 H 0.47397 0.64202 0.17836 0.0
H1553 H 0.44493 0.62575 0.18055 0.0
C1554 C 0.62777 0.44772 0.13734 0.0
C1555 C 0.64611 0.44504 0.14245 0.0
C1556 C 0.61497 0.43371 0.13951 0.0
C1557 C 0.60938 0.38378 0.14456 0.0
H1558 H 0.56185 0.39831 0.16357 0.0
C1559 C 0.54126 0.34255 0.13733 0.0
C1560 C 0.52871 0.34373 0.15195 0.0
C1561 C 0.55802 0.35192 0.13813 0.0
C1562 C 0.57511 0.39392 0.15849 0.0
H1563 H 0.66592 0.42539 0.15257 0.0
H1564 H 0.64329 0.40064 0.15672 0.0
H1565 H 0.58596 0.42092 0.16068 0.0
H1566 H 0.52473 0.35411 0.17959 0.0
H1567 H 0.55389 0.37025 0.18099 0.0
H1568 H 0.59798 0.3567 0.14177 0.0
C1569 C 0.63882 0.41368 0.15117 0.0
C1570 C 0.58894 0.40695 0.15672 0.0
C1571 C 0.65171 0.4278 0.14892 0.0
C1572 C 0.53392 0.35318 0.16794 0.0
C1573 C 0.55063 0.36245 0.16876 0.0
C1574 C 0.59536 0.37067 0.14611 0.0
C1575 C 0.62025 0.4166 0.14668 0.0
C1576 C 0.60618 0.40214 0.14959 0.0
C1577 C 0.5625 0.36257 0.15358 0.0
C1578 C 0.57805 0.37568 0.15303 0.0
H1579 H 0.6233 0.46071 0.13165 0.0
H1580 H 0.60089 0.43628 0.13547 0.0
H1581 H 0.62248 0.37968 0.13886 0.0
H1582 H 0.53768 0.33534 0.12483 0.0
H1583 H 0.56689 0.35181 0.12621 0.0
C1584 C 0.06656 0.33401 0.50187 0.0
C1585 C 0.0768 0.31775 0.50343 0.0
C1586 C 0.04758 0.33335 0.4994 0.0
C1587 C 0.00738 0.3041 0.50714 0.0
H1588 H 0.98403 0.33743 0.47283 0.0
C1589 C 0.92898 0.30358 0.49287 0.0
C1590 C 0.92051 0.32081 0.49107 0.0
C1591 C 0.94812 0.3022 0.49386 0.0
C1592 C 0.99032 0.32816 0.4826 0.0
H1593 H 0.0752 0.28803 0.50351 0.0
H1594 H 0.04192 0.28689 0.49921 0.0
H1595 H 0.01737 0.33679 0.47517 0.0
H1596 H 0.92541 0.35013 0.48929 0.0
H1597 H 0.95862 0.34776 0.49132 0.0
H1598 H 0.98027 0.29569 0.5148 0.0
C1599 C 0.04863 0.30014 0.5 0.0
C1600 C 0.00942 0.32777 0.4839 0.0
C1601 C 0.06767 0.30079 0.50236 0.0
C1602 C 0.93151 0.33663 0.49055 0.0
C1603 C 0.95058 0.33526 0.49158 0.0
C1604 C 0.98822 0.30453 0.50589 0.0
C1605 C 0.03839 0.31642 0.49851 0.0
C1606 C 0.01815 0.31591 0.49634 0.0
C1607 C 0.95913 0.31804 0.49308 0.0
C1608 C 0.97947 0.31675 0.49377 0.0
H1609 H 0.07318 0.34729 0.50266 0.0
H1610 H 0.04005 0.34614 0.49854 0.0
H1611 H 0.01372 0.29494 0.51697 0.0
H1612 H 0.92086 0.29114 0.49327 0.0
H1613 H 0.95429 0.28872 0.49488 0.0
C1614 C 0.7035 0.07035 0.50204 0.0
C1615 C 0.68608 0.07849 0.50344 0.0
C1616 C 0.70531 0.05121 0.50206 0.0
C1617 C 0.67998 0.00933 0.51573 0.0
H1618 H 0.71243 0.98431 0.48178 0.0
C1619 C 0.67047 0.93411 0.49526 0.0
C1620 C 0.68604 0.92285 0.49395 0.0
C1621 C 0.67231 0.95288 0.49847 0.0
C1622 C 0.70353 0.99114 0.49154 0.0
H1623 H 0.65687 0.07302 0.50536 0.0
H1624 H 0.65997 0.03988 0.50504 0.0
H1625 H 0.71228 0.01786 0.48293 0.0
H1626 H 0.71577 0.92231 0.49522 0.0
H1627 H 0.719 0.95536 0.50064 0.0
H1628 H 0.67079 0.98267 0.52389 0.0
C1629 C 0.6723 0.04816 0.50439 0.0
C1630 C 0.70344 0.01033 0.4922 0.0
C1631 C 0.67051 0.06719 0.50442 0.0
C1632 C 0.70353 0.93068 0.49619 0.0
C1633 C 0.70538 0.94956 0.4992 0.0
C1634 C 0.68 0.99021 0.51498 0.0
C1635 C 0.68971 0.03993 0.50349 0.0
C1636 C 0.69133 0.01962 0.504 0.0
C1637 C 0.68977 0.96083 0.50029 0.0
C1638 C 0.69147 0.98094 0.5026 0.0
H1639 H 0.71575 0.07874 0.5013 0.0
H1640 H 0.71892 0.04528 0.50139 0.0
H1641 H 0.67083 0.01607 0.52531 0.0
H1642 H 0.65681 0.92847 0.49361 0.0
H1643 H 0.66005 0.96127 0.49904 0.0
C1644 C 0.92852 0.66706 0.50175 0.0
C1645 C 0.91772 0.68291 0.50359 0.0
C1646 C 0.94746 0.66844 0.49938 0.0
C1647 C 0.98661 0.69859 0.50829 0.0
H1648 H 0.01122 0.66649 0.47372 0.0
C1649 C 0.06552 0.69958 0.49577 0.0
C1650 C 0.07392 0.68233 0.49382 0.0
C1651 C 0.04637 0.70104 0.49653 0.0
C1652 C 0.00457 0.67544 0.48355 0.0
H1653 H 0.91824 0.71266 0.50425 0.0
H1654 H 0.95151 0.71506 0.50015 0.0
H1655 H 0.97784 0.66665 0.47521 0.0
H1656 H 0.0689 0.65305 0.49178 0.0
H1657 H 0.03571 0.65556 0.4934 0.0
H1658 H 0.01343 0.70711 0.51686 0.0
C1659 C 0.94525 0.70158 0.50061 0.0
C1660 C 0.98546 0.67556 0.48436 0.0
C1661 C 0.92623 0.70021 0.50285 0.0
C1662 C 0.06286 0.66656 0.49313 0.0
C1663 C 0.04381 0.66801 0.49392 0.0
C1664 C 0.0058 0.69844 0.50751 0.0
C1665 C 0.95605 0.68569 0.49888 0.0
C1666 C 0.97627 0.68689 0.49696 0.0
C1667 C 0.03531 0.68526 0.49534 0.0
C1668 C 0.01498 0.68659 0.49536 0.0
H1669 H 0.92238 0.65354 0.50229 0.0
H1670 H 0.95544 0.65594 0.49833 0.0
H1671 H 0.97989 0.70737 0.51822 0.0
H1672 H 0.07371 0.71198 0.4963 0.0
H1673 H 0.04023 0.71453 0.49757 0.0
C1674 C 0.33195 0.06489 0.49575 0.0
C1675 C 0.31571 0.07526 0.49525 0.0
C1676 C 0.33127 0.04578 0.49683 0.0
C1677 C 0.30107 0.00668 0.5086 0.0
H1678 H 0.33596 0.9794 0.47908 0.0
C1679 C 0.29937 0.92734 0.50198 0.0
C1680 C 0.31641 0.9185 0.50382 0.0
C1681 C 0.29846 0.94646 0.50025 0.0
C1682 C 0.3262 0.98682 0.48749 0.0
H1683 H 0.286 0.07377 0.49589 0.0
H1684 H 0.28479 0.04029 0.49756 0.0
H1685 H 0.33586 0.01279 0.47788 0.0
H1686 H 0.34586 0.92271 0.50504 0.0
H1687 H 0.34427 0.95594 0.50198 0.0
H1688 H 0.29144 0.98058 0.51816 0.0
C1689 C 0.29807 0.04697 0.49731 0.0
C1690 C 0.32617 0.00597 0.48685 0.0
C1691 C 0.29875 0.06614 0.49629 0.0
C1692 C 0.33251 0.9291 0.50361 0.0
C1693 C 0.33161 0.94814 0.50177 0.0
C1694 C 0.30106 0.98749 0.50918 0.0
C1695 C 0.31433 0.03655 0.49734 0.0
C1696 C 0.31377 0.01615 0.49757 0.0
C1697 C 0.31458 0.95705 0.50019 0.0
C1698 C 0.31378 0.97737 0.49878 0.0
H1699 H 0.34524 0.07151 0.49511 0.0
H1700 H 0.34406 0.03823 0.49724 0.0
H1701 H 0.29144 0.0141 0.51715 0.0
H1702 H 0.28672 0.91954 0.50211 0.0
H1703 H 0.28515 0.95294 0.49889 0.0
C1704 C 0.49282 0.92743 0.2992 0.0
C1705 C 0.49163 0.91871 0.31637 0.0
C1706 C 0.49427 0.94655 0.29809 0.0
C1707 C 0.50887 0.98658 0.32489 0.0
H1708 H 0.47809 0.01469 0.29176 0.0
C1709 C 0.50375 0.06456 0.33123 0.0
C1710 C 0.50378 0.07504 0.31506 0.0
C1711 C 0.50169 0.04557 0.33051 0.0
C1712 C 0.48694 0.00702 0.30091 0.0
H1713 H 0.49106 0.92314 0.34581 0.0
H1714 H 0.49372 0.95639 0.34385 0.0
H1715 H 0.47614 0.98116 0.29188 0.0
H1716 H 0.50115 0.07392 0.28545 0.0
H1717 H 0.49786 0.04052 0.28413 0.0
H1718 H 0.51981 0.01223 0.33386 0.0
C1719 C 0.4936 0.94848 0.33126 0.0
C1720 C 0.48582 0.98784 0.30098 0.0
C1721 C 0.49199 0.92944 0.33237 0.0
C1722 C 0.50115 0.06617 0.29814 0.0
C1723 C 0.49922 0.04706 0.2974 0.0
C1724 C 0.51008 0.00567 0.32474 0.0
C1725 C 0.49477 0.95724 0.31413 0.0
C1726 C 0.4966 0.97747 0.31317 0.0
C1727 C 0.49979 0.03652 0.31358 0.0
C1728 C 0.49894 0.01616 0.31296 0.0
H1729 H 0.49253 0.91951 0.28663 0.0
H1730 H 0.49527 0.95295 0.28471 0.0
H1731 H 0.5176 0.97892 0.33417 0.0
H1732 H 0.50553 0.07102 0.3445 0.0
H1733 H 0.50171 0.03794 0.34326 0.0
C1734 C 0.92959 0.50336 0.3299 0.0
C1735 C 0.91923 0.50482 0.31372 0.0
C1736 C 0.94856 0.50084 0.3291 0.0
C1737 C 0.98851 0.50869 0.29968 0.0
H1738 H 0.01206 0.47415 0.33262 0.0
C1739 C 0.06704 0.49407 0.29912 0.0
C1740 C 0.07535 0.49163 0.31634 0.0
C1741 C 0.04792 0.49558 0.2977 0.0
C1742 C 0.00573 0.484 0.32346 0.0
H1743 H 0.92057 0.50466 0.28398 0.0
H1744 H 0.95384 0.50031 0.2826 0.0
H1745 H 0.97873 0.47638 0.33211 0.0
H1746 H 0.07031 0.48965 0.34562 0.0
H1747 H 0.03722 0.49267 0.34319 0.0
H1748 H 0.01558 0.51656 0.29129 0.0
C1749 C 0.94724 0.50118 0.29589 0.0
C1750 C 0.98663 0.48522 0.32314 0.0
C1751 C 0.92821 0.50355 0.29669 0.0
C1752 C 0.0643 0.49132 0.33212 0.0
C1753 C 0.0453 0.49292 0.33072 0.0
C1754 C 0.00768 0.50754 0.30007 0.0
C1755 C 0.9576 0.49985 0.3121 0.0
C1756 C 0.97783 0.49774 0.31144 0.0
C1757 C 0.03684 0.49472 0.31349 0.0
C1758 C 0.0165 0.49536 0.31217 0.0
H1759 H 0.92308 0.50431 0.34323 0.0
H1760 H 0.95621 0.50007 0.34182 0.0
H1761 H 0.98209 0.51857 0.29062 0.0
H1762 H 0.07522 0.49432 0.28672 0.0
H1763 H 0.04182 0.49689 0.28421 0.0
C1764 C 0.49856 0.93231 0.66307 0.0
C1765 C 0.50021 0.92227 0.67944 0.0
C1766 C 0.49628 0.95132 0.66353 0.0
C1767 C 0.50554 0.99141 0.69236 0.0
H1768 H 0.47165 0.01587 0.65942 0.0
C1769 C 0.49359 0.06993 0.69395 0.0
C1770 C 0.49169 0.07876 0.67692 0.0
C1771 C 0.49404 0.05077 0.69496 0.0
C1772 C 0.48132 0.00926 0.66857 0.0
H1773 H 0.50042 0.92419 0.70915 0.0
H1774 H 0.49644 0.95749 0.70992 0.0
H1775 H 0.47295 0.98244 0.65998 0.0
H1776 H 0.48915 0.07451 0.64757 0.0
H1777 H 0.49031 0.04118 0.64928 0.0
H1778 H 0.51416 0.0182 0.70072 0.0
C1779 C 0.49704 0.95063 0.69675 0.0
C1780 C 0.48202 0.99012 0.66892 0.0
C1781 C 0.49921 0.93157 0.6963 0.0
C1782 C 0.49052 0.0681 0.66091 0.0
C1783 C 0.49104 0.04899 0.66191 0.0
C1784 C 0.5049 0.01057 0.69195 0.0
C1785 C 0.49569 0.96071 0.68036 0.0
C1786 C 0.49424 0.981 0.68071 0.0
C1787 C 0.49266 0.04008 0.67895 0.0
C1788 C 0.4929 0.01972 0.67993 0.0
H1789 H 0.49928 0.92552 0.64986 0.0
H1790 H 0.49546 0.95874 0.65066 0.0
H1791 H 0.51526 0.98475 0.70143 0.0
H1792 H 0.49445 0.07779 0.70654 0.0
H1793 H 0.49513 0.04434 0.70832 0.0
C1794 C 0.93163 0.49574 0.70335 0.0
C1795 C 0.92321 0.49345 0.68615 0.0
C1796 C 0.9506 0.4985 0.70457 0.0
C1797 C 0.99048 0.51387 0.67782 0.0
H1798 H 0.01903 0.48282 0.71032 0.0
C1799 C 0.06811 0.50695 0.66918 0.0
C1800 C 0.07911 0.5066 0.68499 0.0
C1801 C 0.04908 0.5056 0.67055 0.0
C1802 C 0.01124 0.49178 0.70137 0.0
H1803 H 0.9279 0.49271 0.65676 0.0
H1804 H 0.96085 0.49774 0.6589 0.0
H1805 H 0.98551 0.48109 0.71085 0.0
H1806 H 0.07887 0.5041 0.71464 0.0
H1807 H 0.04546 0.502 0.71709 0.0
H1808 H 0.01603 0.5246 0.6683 0.0
C1809 C 0.95285 0.49739 0.67142 0.0
C1810 C 0.99207 0.49079 0.70169 0.0
C1811 C 0.93399 0.49442 0.67021 0.0
C1812 C 0.07073 0.50436 0.70221 0.0
C1813 C 0.0516 0.50312 0.7036 0.0
C1814 C 0.00958 0.51495 0.67759 0.0
C1815 C 0.96138 0.49929 0.6886 0.0
C1816 C 0.98154 0.50158 0.68966 0.0
C1817 C 0.04056 0.50403 0.68778 0.0
C1818 C 0.02022 0.50366 0.68908 0.0
H1819 H 0.92365 0.495 0.71586 0.0
H1820 H 0.95684 0.50004 0.71798 0.0
H1821 H 0.98268 0.52256 0.66862 0.0
H1822 H 0.07418 0.50849 0.6557 0.0
H1823 H 0.04103 0.50587 0.65806 0.0
C1824 C 0.29649 0.5005 0.93441 0.0
C1825 C 0.31352 0.49847 0.92559 0.0
C1826 C 0.29562 0.50231 0.95354 0.0
C1827 C 0.32302 0.4909 0.99454 0.0
H1828 H 0.29026 0.52396 0.02031 0.0
C1829 C 0.33205 0.50686 0.07089 0.0
C1830 C 0.31633 0.50722 0.08203 0.0
C1831 C 0.33046 0.50572 0.05186 0.0
C1832 C 0.29932 0.51451 0.01328 0.0
H1833 H 0.343 0.4979 0.9297 0.0
H1834 H 0.34152 0.50142 0.96279 0.0
H1835 H 0.28977 0.52291 0.98671 0.0
H1836 H 0.28657 0.50682 0.08195 0.0
H1837 H 0.28379 0.50482 0.04849 0.0
H1838 H 0.33272 0.48262 0.02094 0.0
C1839 C 0.3288 0.50109 0.95511 0.0
C1840 C 0.29905 0.51392 0.99406 0.0
C1841 C 0.32965 0.49919 0.93611 0.0
C1842 C 0.29894 0.50652 0.07371 0.0
C1843 C 0.29734 0.50549 0.05458 0.0
C1844 C 0.32332 0.49153 0.01364 0.0
C1845 C 0.31179 0.50216 0.96411 0.0
C1846 C 0.31114 0.50231 0.98449 0.0
C1847 C 0.31311 0.50497 0.04348 0.0
C1848 C 0.31169 0.50354 0.02323 0.0
H1849 H 0.28383 0.49997 0.92663 0.0
H1850 H 0.28231 0.5031 0.96009 0.0
H1851 H 0.33216 0.48144 0.98761 0.0
H1852 H 0.34566 0.50745 0.07686 0.0
H1853 H 0.34286 0.50561 0.04366 0.0
C1854 C 0.50603 0.33328 0.93255 0.0
C1855 C 0.50546 0.31724 0.92188 0.0
C1856 C 0.50507 0.33229 0.95164 0.0
C1857 C 0.51263 0.3017 0.99093 0.0
H1858 H 0.48055 0.33595 0.01599 0.0
C1859 C 0.49701 0.29856 0.06921 0.0
C1860 C 0.49493 0.31543 0.0783 0.0
C1861 C 0.49933 0.29805 0.05013 0.0
C1862 C 0.48978 0.32645 0.00925 0.0
H1863 H 0.50359 0.28755 0.92284 0.0
H1864 H 0.50192 0.28583 0.95635 0.0
H1865 H 0.48225 0.33634 0.98268 0.0
H1866 H 0.49474 0.34499 0.0748 0.0
H1867 H 0.49924 0.34413 0.04178 0.0
H1868 H 0.52029 0.29193 0.01762 0.0
C1869 C 0.50318 0.29915 0.94987 0.0
C1870 C 0.49069 0.32664 0.99015 0.0
C1871 C 0.50403 0.30015 0.93071 0.0
C1872 C 0.49607 0.33176 0.06815 0.0
C1873 C 0.49852 0.33126 0.04919 0.0
C1874 C 0.51179 0.30156 0.01013 0.0
C1875 C 0.50359 0.31523 0.96051 0.0
C1876 C 0.50223 0.31439 0.98079 0.0
C1877 C 0.4997 0.31441 0.03988 0.0
C1878 C 0.50048 0.31407 0.0195 0.0
H1879 H 0.50719 0.34666 0.92617 0.0
H1880 H 0.50564 0.3449 0.95949 0.0
H1881 H 0.52174 0.29218 0.98406 0.0
H1882 H 0.49615 0.28575 0.0767 0.0
H1883 H 0.50012 0.28484 0.04337 0.0
C1884 C 0.66178 0.49728 0.92917 0.0
C1885 C 0.67818 0.49801 0.91908 0.0
C1886 C 0.66216 0.49543 0.94822 0.0
C1887 C 0.69172 0.48236 0.98746 0.0
H1888 H 0.65725 0.51228 0.01484 0.0
C1889 C 0.69401 0.49009 0.0667 0.0
C1890 C 0.67703 0.48902 0.07578 0.0
C1891 C 0.69475 0.49102 0.04754 0.0
C1892 C 0.66685 0.50372 0.00739 0.0
H1893 H 0.70785 0.49687 0.92097 0.0
H1894 H 0.70855 0.49388 0.95436 0.0
H1895 H 0.65744 0.51369 0.98148 0.0
H1896 H 0.64752 0.4881 0.07191 0.0
H1897 H 0.64882 0.48973 0.03857 0.0
H1898 H 0.70118 0.47252 0.01352 0.0
C1899 C 0.69537 0.49454 0.9475 0.0
C1900 C 0.66694 0.50449 0.98826 0.0
C1901 C 0.69498 0.49631 0.92838 0.0
C1902 C 0.66082 0.48896 0.06534 0.0
C1903 C 0.66156 0.48998 0.04623 0.0
C1904 C 0.69168 0.48165 0.00665 0.0
C1905 C 0.67896 0.49437 0.95766 0.0
C1906 C 0.67925 0.4937 0.97805 0.0
C1907 C 0.67851 0.49103 0.03711 0.0
C1908 C 0.67912 0.49221 0.0168 0.0
H1909 H 0.6486 0.4984 0.92239 0.0
H1910 H 0.64926 0.49494 0.95558 0.0
H1911 H 0.70127 0.47376 0.98 0.0
H1912 H 0.70674 0.49016 0.07439 0.0
H1913 H 0.70801 0.49198 0.04089 0.0
C1914 C 0.49047 0.66505 0.93016 0.0
C1915 C 0.49049 0.6813 0.9198 0.0
C1916 C 0.49167 0.66571 0.94925 0.0
C1917 C 0.48341 0.69555 0.98897 0.0
H1918 H 0.51584 0.66143 0.01377 0.0
C1919 C 0.49881 0.69809 0.06724 0.0
C1920 C 0.50109 0.68117 0.0762 0.0
C1921 C 0.49649 0.69873 0.04818 0.0
C1922 C 0.50652 0.67089 0.00709 0.0
H1923 H 0.49176 0.71101 0.92129 0.0
H1924 H 0.49388 0.71214 0.95477 0.0
H1925 H 0.51436 0.66148 0.98043 0.0
H1926 H 0.5016 0.65164 0.07247 0.0
H1927 H 0.4971 0.65273 0.03944 0.0
H1928 H 0.47546 0.70484 0.01572 0.0
C1929 C 0.49283 0.69891 0.94807 0.0
C1930 C 0.50573 0.67095 0.98798 0.0
C1931 C 0.49175 0.69825 0.92892 0.0
C1932 C 0.5001 0.66491 0.06592 0.0
C1933 C 0.49765 0.66554 0.04696 0.0
C1934 C 0.48414 0.69544 0.00815 0.0
C1935 C 0.49283 0.68264 0.95842 0.0
C1936 C 0.49407 0.68317 0.97871 0.0
C1937 C 0.49631 0.68245 0.03779 0.0
C1938 C 0.49559 0.68298 0.01743 0.0
H1939 H 0.48946 0.65178 0.92353 0.0
H1940 H 0.49142 0.65295 0.95688 0.0
H1941 H 0.47418 0.70502 0.98217 0.0
H1942 H 0.49956 0.71085 0.07483 0.0
H1943 H 0.49556 0.71199 0.04152 0.0
C1944 C 0.16981 0.26851 0.51079 0.0
C1945 C 0.17764 0.28598 0.51336 0.0
C1946 C 0.181 0.25294 0.50933 0.0
C1947 C 0.22833 0.23665 0.51872 0.0
H1948 H 0.22006 0.20315 0.47816 0.0
C1949 C 0.28638 0.19585 0.48692 0.0
C1950 C 0.28439 0.17666 0.48601 0.0
C1951 C 0.2714 0.20701 0.49089 0.0
C1952 C 0.22234 0.21225 0.48969 0.0
H1953 H 0.20335 0.30064 0.51694 0.0
H1954 H 0.22265 0.27375 0.51423 0.0
H1955 H 0.19714 0.22678 0.48522 0.0
H1956 H 0.26472 0.15432 0.48745 0.0
H1957 H 0.23828 0.17415 0.49406 0.0
H1958 H 0.25389 0.22276 0.52261 0.0
C1959 C 0.20791 0.27195 0.51353 0.0
C1960 C 0.20924 0.22571 0.49378 0.0
C1961 C 0.19681 0.28744 0.51492 0.0
C1962 C 0.26676 0.16902 0.48813 0.0
C1963 C 0.25164 0.18032 0.49191 0.0
C1964 C 0.24142 0.22337 0.51453 0.0
C1965 C 0.20018 0.25453 0.51056 0.0
C1966 C 0.2124 0.23843 0.50799 0.0
C1967 C 0.25401 0.19934 0.49384 0.0
C1968 C 0.2388 0.21142 0.49966 0.0
H1969 H 0.1551 0.2669 0.50951 0.0
H1970 H 0.17464 0.23967 0.50717 0.0
H1971 H 0.23097 0.24593 0.53003 0.0
H1972 H 0.29965 0.20231 0.48519 0.0
H1973 H 0.27349 0.22169 0.49198 0.0
C1974 C 0.7064 0.20156 0.50771 0.0
C1975 C 0.70943 0.18255 0.50642 0.0
C1976 C 0.72101 0.21385 0.50667 0.0
C1977 C 0.76804 0.21889 0.48946 0.0
H1978 H 0.76786 0.26157 0.52124 0.0
C1979 C 0.82444 0.27584 0.48878 0.0
C1980 C 0.81759 0.2939 0.48899 0.0
C1981 C 0.81263 0.26091 0.49147 0.0
C1982 C 0.76806 0.24975 0.51223 0.0
H1983 H 0.73034 0.16159 0.50304 0.0
H1984 H 0.75595 0.18318 0.50127 0.0
H1985 H 0.74478 0.23778 0.52543 0.0
H1986 H 0.79279 0.3103 0.49163 0.0
H1987 H 0.77245 0.28442 0.49627 0.0
H1988 H 0.79126 0.23113 0.47611 0.0
C1989 C 0.74217 0.18849 0.50299 0.0
C1990 C 0.75485 0.23614 0.51462 0.0
C1991 C 0.7275 0.17614 0.5041 0.0
C1992 C 0.79865 0.29663 0.49154 0.0
C1993 C 0.78695 0.28179 0.49431 0.0
C1994 C 0.78134 0.23254 0.48709 0.0
C1995 C 0.73906 0.20747 0.50431 0.0
C1996 C 0.75439 0.22079 0.50297 0.0
C1997 C 0.79382 0.26381 0.49455 0.0
C1998 C 0.78117 0.24831 0.49817 0.0
H1999 H 0.6927 0.20704 0.50949 0.0
H2000 H 0.71812 0.22841 0.50743 0.0
H2001 H 0.76797 0.20725 0.48022 0.0
H2002 H 0.83894 0.27323 0.48681 0.0
H2003 H 0.81827 0.24715 0.49158 0.0
C2004 C 0.79655 0.70801 0.51638 0.0
C2005 C 0.81566 0.71028 0.51506 0.0
C2006 C 0.78479 0.72295 0.51441 0.0
C2007 C 0.78246 0.76875 0.49347 0.0
H2008 H 0.73674 0.77121 0.52059 0.0
C2009 C 0.72761 0.82639 0.48459 0.0
C2010 C 0.7094 0.82012 0.48306 0.0
C2011 C 0.74176 0.81422 0.48913 0.0
C2012 C 0.74944 0.77066 0.51288 0.0
H2013 H 0.83741 0.7303 0.51132 0.0
H2014 H 0.81676 0.75653 0.50811 0.0
H2015 H 0.75962 0.74827 0.52885 0.0
H2016 H 0.69196 0.79598 0.48457 0.0
H2017 H 0.71658 0.77493 0.49252 0.0
H2018 H 0.77209 0.79119 0.47746 0.0
C2019 C 0.81093 0.74306 0.5104 0.0
C2020 C 0.76254 0.75753 0.51759 0.0
C2021 C 0.82275 0.72804 0.51237 0.0
C2022 C 0.70577 0.80135 0.48568 0.0
C2023 C 0.71986 0.78927 0.49038 0.0
C2024 C 0.76937 0.78202 0.48885 0.0
C2025 C 0.7918 0.74062 0.51115 0.0
C2026 C 0.77901 0.75611 0.50765 0.0
C2027 C 0.73793 0.79562 0.49241 0.0
C2028 C 0.75256 0.78278 0.49823 0.0
H2029 H 0.79055 0.69457 0.5185 0.0
H2030 H 0.77013 0.72051 0.51481 0.0
H2031 H 0.79492 0.76792 0.48542 0.0
H2032 H 0.73091 0.84075 0.48261 0.0
H2033 H 0.7556 0.81945 0.4906 0.0
C2034 C 0.1701 0.72632 0.48863 0.0
C2035 C 0.17697 0.70834 0.48691 0.0
C2036 C 0.1821 0.74123 0.49032 0.0
C2037 C 0.23055 0.75445 0.48244 0.0
H2038 H 0.22178 0.79122 0.51993 0.0
C2039 C 0.28854 0.79747 0.51177 0.0
C2040 C 0.28629 0.81664 0.51216 0.0
C2041 C 0.27372 0.78599 0.50816 0.0
C2042 C 0.22424 0.78118 0.50925 0.0
H2043 H 0.20191 0.69206 0.48542 0.0
H2044 H 0.22262 0.71785 0.48858 0.0
H2045 H 0.19844 0.7678 0.51377 0.0
H2046 H 0.26634 0.83867 0.50998 0.0
H2047 H 0.2402 0.81832 0.5039 0.0
H2048 H 0.25658 0.76736 0.47839 0.0
C2049 C 0.208 0.72052 0.48836 0.0
C2050 C 0.2109 0.76781 0.50569 0.0
C2051 C 0.19607 0.70567 0.48669 0.0
C2052 C 0.26858 0.82398 0.50971 0.0
C2053 C 0.25362 0.81238 0.50624 0.0
C2054 C 0.24387 0.76767 0.48609 0.0
C2055 C 0.20119 0.73847 0.49024 0.0
C2056 C 0.21415 0.75402 0.49256 0.0
C2057 C 0.25622 0.79332 0.50499 0.0
C2058 C 0.24105 0.78086 0.49984 0.0
H2059 H 0.15546 0.72888 0.48885 0.0
H2060 H 0.17644 0.75491 0.4916 0.0
H2061 H 0.23328 0.74431 0.47192 0.0
H2062 H 0.30189 0.79123 0.51379 0.0
H2063 H 0.276 0.7713 0.50762 0.0
C2064 C 0.51088 0.17074 0.26892 0.0
C2065 C 0.51192 0.17739 0.28703 0.0
C2066 C 0.50627 0.18254 0.25445 0.0
C2067 C 0.48135 0.22514 0.24553 0.0
H2068 H 0.51049 0.2291 0.20119 0.0
C2069 C 0.47641 0.28761 0.19828 0.0
C2070 C 0.47841 0.2854 0.17922 0.0
C2071 C 0.47899 0.27283 0.21015 0.0
C2072 C 0.50199 0.22792 0.21332 0.0
H2073 H 0.50934 0.20178 0.30399 0.0
H2074 H 0.50121 0.22213 0.27887 0.0
H2075 H 0.51839 0.20604 0.22429 0.0
H2076 H 0.48424 0.26565 0.15769 0.0
H2077 H 0.48849 0.23971 0.1785 0.0
H2078 H 0.46495 0.24693 0.23477 0.0
C2079 C 0.50384 0.2078 0.27589 0.0
C2080 C 0.50657 0.21476 0.22655 0.0
C2081 C 0.50864 0.19613 0.29026 0.0
C2082 C 0.48264 0.26787 0.1723 0.0
C2083 C 0.48519 0.25302 0.18422 0.0
C2084 C 0.47667 0.23814 0.23228 0.0
C2085 C 0.50239 0.2011 0.2579 0.0
C2086 C 0.49656 0.21359 0.24297 0.0
C2087 C 0.48355 0.25538 0.2033 0.0
C2088 C 0.48722 0.24003 0.21624 0.0
H2089 H 0.51338 0.1564 0.26593 0.0
H2090 H 0.50525 0.17706 0.24067 0.0
H2091 H 0.47319 0.22427 0.25793 0.0
H2092 H 0.47318 0.30087 0.20416 0.0
H2093 H 0.47792 0.27525 0.22477 0.0
C2094 C 0.80025 0.52342 0.28293 0.0
C2095 C 0.81892 0.51873 0.28183 0.0
C2096 C 0.78896 0.52212 0.26756 0.0
C2097 C 0.78414 0.4971 0.22445 0.0
H2098 H 0.74438 0.53172 0.21712 0.0
C2099 C 0.72577 0.48921 0.16971 0.0
C2100 C 0.70806 0.49152 0.1771 0.0
C2101 C 0.74133 0.49332 0.18024 0.0
C2102 C 0.75546 0.52198 0.21897 0.0
H2103 H 0.84051 0.50951 0.26349 0.0
H2104 H 0.82062 0.50723 0.2365 0.0
H2105 H 0.76853 0.53873 0.23917 0.0
H2106 H 0.69295 0.49949 0.20156 0.0
H2107 H 0.71993 0.50669 0.21965 0.0
H2108 H 0.77067 0.48018 0.20445 0.0
C2109 C 0.81479 0.51182 0.24937 0.0
C2110 C 0.76926 0.52596 0.23158 0.0
C2111 C 0.82617 0.51323 0.2648 0.0
C2112 C 0.70631 0.4976 0.19533 0.0
C2113 C 0.72177 0.50188 0.2057 0.0
C2114 C 0.77032 0.49315 0.2117 0.0
C2115 C 0.79602 0.51608 0.25067 0.0
C2116 C 0.78339 0.51329 0.23496 0.0
C2117 C 0.73941 0.50004 0.1982 0.0
C2118 C 0.75554 0.50528 0.20935 0.0
H2119 H 0.79419 0.52778 0.29579 0.0
H2120 H 0.77452 0.52524 0.26911 0.0
H2121 H 0.7948 0.48702 0.22682 0.0
H2122 H 0.72762 0.48451 0.15574 0.0
H2123 H 0.75482 0.49173 0.1742 0.0
C2124 C 0.52463 0.70958 0.19524 0.0
C2125 C 0.52031 0.71137 0.17652 0.0
C2126 C 0.52278 0.72444 0.20713 0.0
C2127 C 0.49774 0.76776 0.21274 0.0
H2128 H 0.53178 0.77405 0.25317 0.0
C2129 C 0.4906 0.82359 0.2699 0.0
C2130 C 0.49252 0.81668 0.28784 0.0
C2131 C 0.49461 0.8125 0.25472 0.0
C2132 C 0.52217 0.77245 0.24194 0.0
H2133 H 0.51106 0.73044 0.15557 0.0
H2134 H 0.50796 0.75651 0.17643 0.0
H2135 H 0.53863 0.75185 0.22913 0.0
H2136 H 0.49981 0.79253 0.30379 0.0
H2137 H 0.50683 0.77345 0.27745 0.0
H2138 H 0.48119 0.78831 0.22584 0.0
C2139 C 0.5126 0.74347 0.18187 0.0
C2140 C 0.52606 0.75974 0.2282 0.0
C2141 C 0.51448 0.72856 0.16991 0.0
C2142 C 0.49821 0.79839 0.29022 0.0
C2143 C 0.50238 0.78745 0.27512 0.0
C2144 C 0.4939 0.78062 0.22648 0.0
C2145 C 0.5166 0.74152 0.20064 0.0
C2146 C 0.51364 0.75684 0.21373 0.0
C2147 C 0.50084 0.79443 0.25725 0.0
C2148 C 0.50584 0.78267 0.24146 0.0
H2149 H 0.52919 0.69659 0.20085 0.0
H2150 H 0.5257 0.72236 0.22155 0.0
H2151 H 0.48783 0.76578 0.20184 0.0
H2152 H 0.48621 0.83759 0.26757 0.0
H2153 H 0.49328 0.81818 0.24104 0.0
C2154 C 0.19773 0.48082 0.29458 0.0
C2155 C 0.17876 0.48263 0.29154 0.0
C2156 C 0.21014 0.48284 0.28018 0.0
C2157 C 0.21561 0.50366 0.23459 0.0
H2158 H 0.25851 0.4722 0.23297 0.0
C2159 C 0.2727 0.50766 0.17843 0.0
C2160 C 0.29078 0.50698 0.18521 0.0
C2161 C 0.25778 0.50451 0.19013 0.0
C2162 C 0.24663 0.48114 0.23329 0.0
H2163 H 0.158 0.48784 0.27079 0.0
H2164 H 0.17983 0.49126 0.24554 0.0
H2165 H 0.23453 0.46623 0.25544 0.0
H2166 H 0.30721 0.50311 0.20982 0.0
H2167 H 0.28133 0.49765 0.22999 0.0
H2168 H 0.22795 0.51864 0.21244 0.0
C2169 C 0.18501 0.48843 0.25919 0.0
C2170 C 0.2329 0.47773 0.24616 0.0
C2171 C 0.17252 0.48636 0.27364 0.0
C2172 C 0.29354 0.5036 0.20402 0.0
C2173 C 0.2787 0.50036 0.21561 0.0
C2174 C 0.22936 0.50703 0.22161 0.0
C2175 C 0.20396 0.48669 0.26233 0.0
C2176 C 0.21745 0.48921 0.24727 0.0
C2177 C 0.26069 0.50048 0.20876 0.0
C2178 C 0.24521 0.49605 0.22116 0.0
H2179 H 0.20309 0.47796 0.30815 0.0
H2180 H 0.22467 0.48172 0.28314 0.0
H2181 H 0.20391 0.51281 0.23518 0.0
H2182 H 0.27007 0.51027 0.16403 0.0
H2183 H 0.24402 0.5047 0.18451 0.0
C2184 C 0.48742 0.73122 0.82679 0.0
C2185 C 0.48878 0.7136 0.81898 0.0
C2186 C 0.49172 0.74683 0.81641 0.0
C2187 C 0.5198 0.7607 0.77738 0.0
H2188 H 0.48537 0.80053 0.76971 0.0
C2189 C 0.52035 0.80427 0.71271 0.0
C2190 C 0.51571 0.82297 0.71346 0.0
C2191 C 0.5195 0.7934 0.72839 0.0
C2192 C 0.49533 0.78975 0.77204 0.0
H2193 H 0.49526 0.69869 0.79396 0.0
H2194 H 0.50285 0.72576 0.77614 0.0
H2195 H 0.47845 0.77667 0.79234 0.0
H2196 H 0.50711 0.84506 0.7315 0.0
H2197 H 0.5056 0.82589 0.75906 0.0
H2198 H 0.53649 0.77335 0.75686 0.0
C2199 C 0.49858 0.72748 0.79028 0.0
C2200 C 0.49133 0.77609 0.78494 0.0
C2201 C 0.49408 0.71199 0.80049 0.0
C2202 C 0.51078 0.83069 0.73046 0.0
C2203 C 0.50981 0.81972 0.74621 0.0
C2204 C 0.52386 0.77436 0.76464 0.0
C2205 C 0.49771 0.745 0.7982 0.0
C2206 C 0.50322 0.76111 0.78717 0.0
C2207 C 0.51395 0.8009 0.74526 0.0
C2208 C 0.51134 0.78863 0.76129 0.0
H2209 H 0.48332 0.73295 0.84097 0.0
H2210 H 0.49086 0.76025 0.82275 0.0
H2211 H 0.52935 0.74943 0.77913 0.0
H2212 H 0.52429 0.79787 0.69988 0.0
H2213 H 0.52251 0.7789 0.72711 0.0
C2214 C 0.28924 0.48015 0.80451 0.0
C2215 C 0.28633 0.48242 0.82346 0.0
C2216 C 0.27498 0.48277 0.79205 0.0
C2217 C 0.23045 0.50616 0.78685 0.0
H2218 H 0.2282 0.47685 0.74249 0.0
C2219 C 0.17469 0.51411 0.72989 0.0
C2220 C 0.18155 0.51465 0.71183 0.0
C2221 C 0.1863 0.50991 0.74461 0.0
C2222 C 0.22871 0.48517 0.75479 0.0
H2223 H 0.26583 0.48873 0.84413 0.0
H2224 H 0.24076 0.493 0.82227 0.0
H2225 H 0.24999 0.46878 0.76652 0.0
H2226 H 0.20612 0.51161 0.69523 0.0
H2227 H 0.22619 0.50418 0.72084 0.0
H2228 H 0.20903 0.52251 0.77496 0.0
C2229 C 0.25425 0.48949 0.81711 0.0
C2230 C 0.2412 0.48059 0.76855 0.0
C2231 C 0.2686 0.48692 0.82964 0.0
C2232 C 0.20033 0.5113 0.70891 0.0
C2233 C 0.21183 0.50691 0.72356 0.0
C2234 C 0.2178 0.51065 0.77312 0.0
C2235 C 0.25733 0.4876 0.79815 0.0
C2236 C 0.24255 0.49128 0.78456 0.0
C2237 C 0.2049 0.50594 0.74151 0.0
C2238 C 0.21712 0.50043 0.75679 0.0
H2239 H 0.30268 0.47671 0.79918 0.0
H2240 H 0.27796 0.4815 0.77755 0.0
H2241 H 0.23123 0.51479 0.79893 0.0
H2242 H 0.16032 0.51668 0.73265 0.0
H2243 H 0.18063 0.50925 0.75833 0.0
C2244 C 0.48449 0.1757 0.72402 0.0
C2245 C 0.49223 0.18056 0.70705 0.0
C2246 C 0.48564 0.18771 0.73899 0.0
C2247 C 0.49295 0.23706 0.74833 0.0
H2248 H 0.49866 0.22157 0.79891 0.0
C2249 C 0.48783 0.28966 0.80573 0.0
C2250 C 0.50055 0.28848 0.82012 0.0
C2251 C 0.4856 0.27512 0.79355 0.0
C2252 C 0.4972 0.2261 0.78484 0.0
H2253 H 0.50828 0.20114 0.69273 0.0
H2254 H 0.51085 0.22163 0.71879 0.0
H2255 H 0.49836 0.19859 0.77443 0.0
H2256 H 0.52048 0.27101 0.83357 0.0
H2257 H 0.51723 0.24571 0.81167 0.0
H2258 H 0.49262 0.26447 0.75835 0.0
C2259 C 0.50324 0.20898 0.72048 0.0
C2260 C 0.49681 0.21293 0.77084 0.0
C2261 C 0.50184 0.19718 0.70554 0.0
C2262 C 0.51058 0.27221 0.82254 0.0
C2263 C 0.50863 0.25772 0.81006 0.0
C2264 C 0.49354 0.25015 0.7622 0.0
C2265 C 0.49475 0.20466 0.73725 0.0
C2266 C 0.4948 0.2183 0.7524 0.0
C2267 C 0.49638 0.2592 0.79517 0.0
C2268 C 0.4956 0.24489 0.78065 0.0
H2269 H 0.47702 0.16294 0.72555 0.0
H2270 H 0.47888 0.184 0.75169 0.0
H2271 H 0.49101 0.24171 0.73435 0.0
H2272 H 0.47964 0.30192 0.8038 0.0
H2273 H 0.47561 0.27653 0.78264 0.0
C2274 C 0.72865 0.50865 0.82664 0.0
C2275 C 0.71145 0.51313 0.81908 0.0
C2276 C 0.74411 0.50696 0.81534 0.0
C2277 C 0.76117 0.51806 0.7685 0.0
H2278 H 0.79163 0.47486 0.77485 0.0
C2279 C 0.80249 0.48712 0.70959 0.0
C2280 C 0.8211 0.48317 0.71279 0.0
C2281 C 0.7909 0.49173 0.72408 0.0
C2282 C 0.78338 0.4871 0.77308 0.0
H2283 H 0.69723 0.52002 0.79379 0.0
H2284 H 0.72387 0.51682 0.77427 0.0
H2285 H 0.76832 0.48227 0.79785 0.0
H2286 H 0.84194 0.48029 0.73391 0.0
H2287 H 0.8214 0.48803 0.75937 0.0
H2288 H 0.77566 0.52241 0.74335 0.0
C2289 C 0.72558 0.5148 0.7889 0.0
C2290 C 0.7701 0.4914 0.78626 0.0
C2291 C 0.71021 0.51648 0.80012 0.0
C2292 C 0.82769 0.48333 0.73096 0.0
C2293 C 0.81597 0.48772 0.74553 0.0
C2294 C 0.77428 0.51366 0.75529 0.0
C2295 C 0.74267 0.50981 0.7963 0.0
C2296 C 0.75851 0.50667 0.78386 0.0
C2297 C 0.79756 0.49229 0.74215 0.0
C2298 C 0.78518 0.4979 0.75723 0.0
H2299 H 0.7301 0.50601 0.84119 0.0
H2300 H 0.75713 0.50327 0.82148 0.0
H2301 H 0.75278 0.53016 0.76645 0.0
H2302 H 0.79691 0.48714 0.69581 0.0
H2303 H 0.77667 0.49493 0.72115 0.0
loop_
_geom_bond_atom_site_label_1
_geom_bond_atom_site_label_2
_geom_bond_distance
_geom_bond_site_symmetry_2
_ccdc_geom_bond_type
Mn0 O5 2.095 . S
Mn0 O15 2.162 . S
Mn0 O16 2.297 . S
Mn0 O24 2.385 . S
Mn0 O25 2.209 . S
Mn0 O26 2.094 . S
Mn1 O6 2.121 . S
Mn1 N8 2.257 . S
Mn1 N17 2.282 . S
Mn1 O25 2.215 . S
Mn1 O27 2.117 . S
C2 O24 1.234 . S
C2 O25 1.283 . S
C3 O15 1.281 . S
C3 O16 1.236 . S
C4 O26 1.240 . S
C4 O27 1.264 . S
O5 Mn0 2.095 . S
O5 C14 1.250 . S
O6 Mn1 2.121 . S
O6 C14 1.258 . S
C7 N8 1.326 . S
C7 C11 1.460 . S
C7 H13 0.929 . S
N8 Mn1 2.257 . S
N8 C7 1.326 . S
N8 C12 1.362 . S
C9 C10 1.258 . S
C9 C12 1.431 . S
C9 C29 1.449 . S
C10 C9 1.258 . S
C10 C11 1.477 . S
C10 H30 0.931 . S
C11 C7 1.460 . S
C11 C10 1.477 . S
C11 H31 0.930 . S
C12 N8 1.362 . S
C12 C9 1.431 . S
C12 C22 1.476 . S
H13 C7 0.929 . S
C14 O5 1.250 . S
C14 O6 1.258 . S
O15 Mn0 2.162 . S
O15 C3 1.281 . S
O16 Mn0 2.297 . S
O16 C3 1.236 . S
N17 Mn1 2.282 . S
N17 C18 1.328 . S
N17 C22 1.318 . S
C18 N17 1.328 . S
C18 C19 1.457 . S
C18 H23 0.929 . S
C19 C18 1.457 . S
C19 C20 1.291 . S
C19 H32 0.931 . S
C20 C19 1.291 . S
C20 C21 1.373 . S
C20 H33 0.929 . S
C21 C20 1.373 . S
C21 C22 1.396 . S
C21 C28 1.403 . S
C22 C12 1.476 . S
C22 N17 1.318 . S
C22 C21 1.396 . S
H23 C18 0.929 . S
O24 Mn0 2.385 . S
O24 C2 1.234 . S
O25 Mn0 2.209 . S
O25 Mn1 2.215 . S
O25 C2 1.283 . S
O26 Mn0 2.094 . S
O26 C4 1.240 . S
O27 Mn1 2.117 . S
O27 C4 1.264 . S
C28 C21 1.403 . S
C28 C29 1.399 . S
C28 H34 0.929 . S
C29 C9 1.449 . S
C29 C28 1.399 . S
C29 H35 0.930 . S
H30 C10 0.931 . S
H31 C11 0.930 . S
H32 C19 0.931 . S
H33 C20 0.929 . S
H34 C28 0.929 . S
H35 C29 0.930 . S
Mn36 O41 2.095 . S
Mn36 O51 2.162 . S
Mn36 O52 2.297 . S
Mn36 O60 2.385 . S
Mn36 O61 2.209 . S
Mn36 O62 2.094 . S
Mn37 O42 2.121 . S
Mn37 N44 2.257 . S
Mn37 N53 2.282 . S
Mn37 O61 2.215 . S
Mn37 O63 2.117 . S
C38 O60 1.234 . S
C38 O61 1.283 . S
C39 O51 1.281 . S
C39 O52 1.236 . S
C40 O62 1.240 . S
C40 O63 1.264 . S
O41 Mn36 2.095 . S
O41 C50 1.250 . S
O42 Mn37 2.121 . S
O42 C50 1.258 . S
C43 N44 1.326 . S
C43 C47 1.460 . S
C43 H49 0.929 . S
N44 Mn37 2.257 . S
N44 C43 1.326 . S
N44 C48 1.362 . S
C45 C46 1.258 . S
C45 C48 1.431 . S
C45 C65 1.449 . S
C46 C45 1.258 . S
C46 C47 1.477 . S
C46 H66 0.931 . S
C47 C43 1.460 . S
C47 C46 1.477 . S
C47 H67 0.930 . S
C48 N44 1.362 . S
C48 C45 1.431 . S
C48 C58 1.476 . S
H49 C43 0.929 . S
C50 O41 1.250 . S
C50 O42 1.258 . S
O51 Mn36 2.162 . S
O51 C39 1.281 . S
O52 Mn36 2.297 . S
O52 C39 1.236 . S
N53 Mn37 2.282 . S
N53 C54 1.328 . S
N53 C58 1.318 . S
C54 N53 1.328 . S
C54 C55 1.457 . S
C54 H59 0.929 . S
C55 C54 1.457 . S
C55 C56 1.291 . S
C55 H68 0.931 . S
C56 C55 1.291 . S
C56 C57 1.373 . S
C56 H69 0.929 . S
C57 C56 1.373 . S
C57 C58 1.396 . S
C57 C64 1.403 . S
C58 C48 1.476 . S
C58 N53 1.318 . S
C58 C57 1.396 . S
H59 C54 0.929 . S
O60 Mn36 2.385 . S
O60 C38 1.234 . S
O61 Mn36 2.209 . S
O61 Mn37 2.215 . S
O61 C38 1.283 . S
O62 Mn36 2.094 . S
O62 C40 1.240 . S
O63 Mn37 2.117 . S
O63 C40 1.264 . S
C64 C57 1.403 . S
C64 C65 1.399 . S
C64 H70 0.929 . S
C65 C45 1.449 . S
C65 C64 1.399 . S
C65 H71 0.930 . S
H66 C46 0.931 . S
H67 C47 0.930 . S
H68 C55 0.931 . S
H69 C56 0.929 . S
H70 C64 0.929 . S
H71 C65 0.930 . S
Mn72 O77 2.095 . S
Mn72 O87 2.162 . S
Mn72 O88 2.297 . S
Mn72 O96 2.385 . S
Mn72 O97 2.209 . S
Mn72 O98 2.094 . S
Mn73 O78 2.121 . S
Mn73 N80 2.257 . S
Mn73 N89 2.282 . S
Mn73 O97 2.215 . S
Mn73 O99 2.117 . S
C74 O96 1.234 . S
C74 O97 1.283 . S
C75 O87 1.281 . S
C75 O88 1.236 . S
C76 O98 1.240 . S
C76 O99 1.264 . S
O77 Mn72 2.095 . S
O77 C86 1.250 . S
O78 Mn73 2.121 . S
O78 C86 1.258 . S
C79 N80 1.326 . S
C79 C83 1.460 . S
C79 H85 0.929 . S
N80 Mn73 2.257 . S
N80 C79 1.326 . S
N80 C84 1.362 . S
C81 C82 1.258 . S
C81 C84 1.431 . S
C81 C101 1.449 . S
C82 C81 1.258 . S
C82 C83 1.477 . S
C82 H102 0.931 . S
C83 C79 1.460 . S
C83 C82 1.477 . S
C83 H103 0.930 . S
C84 N80 1.362 . S
C84 C81 1.431 . S
C84 C94 1.476 . S
H85 C79 0.929 . S
C86 O77 1.250 . S
C86 O78 1.258 . S
O87 Mn72 2.162 . S
O87 C75 1.281 . S
O88 Mn72 2.297 . S
O88 C75 1.236 . S
N89 Mn73 2.282 . S
N89 C90 1.328 . S
N89 C94 1.318 . S
C90 N89 1.328 . S
C90 C91 1.457 . S
C90 H95 0.929 . S
C91 C90 1.457 . S
C91 C92 1.291 . S
C91 H104 0.931 . S
C92 C91 1.291 . S
C92 C93 1.373 . S
C92 H105 0.929 . S
C93 C92 1.373 . S
C93 C94 1.396 . S
C93 C100 1.403 . S
C94 C84 1.476 . S
C94 N89 1.318 . S
C94 C93 1.396 . S
H95 C90 0.929 . S
O96 Mn72 2.385 . S
O96 C74 1.234 . S
O97 Mn72 2.209 . S
O97 Mn73 2.215 . S
O97 C74 1.283 . S
O98 Mn72 2.094 . S
O98 C76 1.240 . S
O99 Mn73 2.117 . S
O99 C76 1.264 . S
C100 C93 1.403 . S
C100 C101 1.399 . S
C100 H106 0.929 . S
C101 C81 1.449 . S
C101 C100 1.399 . S
C101 H107 0.930 . S
H102 C82 0.931 . S
H103 C83 0.930 . S
H104 C91 0.931 . S
H105 C92 0.929 . S
H106 C100 0.929 . S
H107 C101 0.930 . S
Mn108 O113 2.095 . S
Mn108 O123 2.162 . S
Mn108 O124 2.297 . S
Mn108 O132 2.385 . S
Mn108 O133 2.209 . S
Mn108 O134 2.094 . S
Mn109 O114 2.121 . S
Mn109 N116 2.257 . S
Mn109 N125 2.282 . S
Mn109 O133 2.215 . S
Mn109 O135 2.117 . S
C110 O132 1.234 . S
C110 O133 1.283 . S
C111 O123 1.281 . S
C111 O124 1.236 . S
C112 O134 1.240 . S
C112 O135 1.264 . S
O113 Mn108 2.095 . S
O113 C122 1.250 . S
O114 Mn109 2.121 . S
O114 C122 1.258 . S
C115 N116 1.326 . S
C115 C119 1.460 . S
C115 H121 0.929 . S
N116 Mn109 2.257 . S
N116 C115 1.326 . S
N116 C120 1.362 . S
C117 C118 1.258 . S
C117 C120 1.431 . S
C117 C137 1.449 . S
C118 C117 1.258 . S
C118 C119 1.477 . S
C118 H138 0.931 . S
C119 C115 1.460 . S
C119 C118 1.477 . S
C119 H139 0.930 . S
C120 N116 1.362 . S
C120 C117 1.431 . S
C120 C130 1.476 . S
H121 C115 0.929 . S
C122 O113 1.250 . S
C122 O114 1.258 . S
O123 Mn108 2.162 . S
O123 C111 1.281 . S
O124 Mn108 2.297 . S
O124 C111 1.236 . S
N125 Mn109 2.282 . S
N125 C126 1.328 . S
N125 C130 1.318 . S
C126 N125 1.328 . S
C126 C127 1.457 . S
C126 H131 0.929 . S
C127 C126 1.457 . S
C127 C128 1.291 . S
C127 H140 0.931 . S
C128 C127 1.291 . S
C128 C129 1.373 . S
C128 H141 0.929 . S
C129 C128 1.373 . S
C129 C130 1.396 . S
C129 C136 1.403 . S
C130 C120 1.476 . S
C130 N125 1.318 . S
C130 C129 1.396 . S
H131 C126 0.929 . S
O132 Mn108 2.385 . S
O132 C110 1.234 . S
O133 Mn108 2.209 . S
O133 Mn109 2.215 . S
O133 C110 1.283 . S
O134 Mn108 2.094 . S
O134 C112 1.240 . S
O135 Mn109 2.117 . S
O135 C112 1.264 . S
C136 C129 1.403 . S
C136 C137 1.399 . S
C136 H142 0.929 . S
C137 C117 1.449 . S
C137 C136 1.399 . S
C137 H143 0.930 . S
H138 C118 0.931 . S
H139 C119 0.930 . S
H140 C127 0.931 . S
H141 C128 0.929 . S
H142 C136 0.929 . S
H143 C137 0.930 . S
Mn144 O149 2.095 . S
Mn144 O159 2.162 . S
Mn144 O160 2.297 . S
Mn144 O168 2.385 . S
Mn144 O169 2.209 . S
Mn144 O170 2.094 . S
Mn145 O150 2.121 . S
Mn145 N152 2.257 . S
Mn145 N161 2.282 . S
Mn145 O169 2.215 . S
Mn145 O171 2.117 . S
C146 O168 1.234 . S
C146 O169 1.283 . S
C147 O159 1.281 . S
C147 O160 1.236 . S
C148 O170 1.240 . S
C148 O171 1.264 . S
O149 Mn144 2.095 . S
O149 C158 1.250 . S
O150 Mn145 2.121 . S
O150 C158 1.258 . S
C151 N152 1.326 . S
C151 C155 1.460 . S
C151 H157 0.929 . S
N152 Mn145 2.257 . S
N152 C151 1.326 . S
N152 C156 1.362 . S
C153 C154 1.258 . S
C153 C156 1.431 . S
C153 C173 1.449 . S
C154 C153 1.258 . S
C154 C155 1.477 . S
C154 H174 0.931 . S
C155 C151 1.460 . S
C155 C154 1.477 . S
C155 H175 0.930 . S
C156 N152 1.362 . S
C156 C153 1.431 . S
C156 C166 1.476 . S
H157 C151 0.929 . S
C158 O149 1.250 . S
C158 O150 1.258 . S
O159 Mn144 2.162 . S
O159 C147 1.281 . S
O160 Mn144 2.297 . S
O160 C147 1.236 . S
N161 Mn145 2.282 . S
N161 C162 1.328 . S
N161 C166 1.318 . S
C162 N161 1.328 . S
C162 C163 1.457 . S
C162 H167 0.929 . S
C163 C162 1.457 . S
C163 C164 1.291 . S
C163 H176 0.931 . S
C164 C163 1.291 . S
C164 C165 1.373 . S
C164 H177 0.929 . S
C165 C164 1.373 . S
C165 C166 1.396 . S
C165 C172 1.403 . S
C166 C156 1.476 . S
C166 N161 1.318 . S
C166 C165 1.396 . S
H167 C162 0.929 . S
O168 Mn144 2.385 . S
O168 C146 1.234 . S
O169 Mn144 2.209 . S
O169 Mn145 2.215 . S
O169 C146 1.283 . S
O170 Mn144 2.094 . S
O170 C148 1.240 . S
O171 Mn145 2.117 . S
O171 C148 1.264 . S
C172 C165 1.403 . S
C172 C173 1.399 . S
C172 H178 0.929 . S
C173 C153 1.449 . S
C173 C172 1.399 . S
C173 H179 0.930 . S
H174 C154 0.931 . S
H175 C155 0.930 . S
H176 C163 0.931 . S
H177 C164 0.929 . S
H178 C172 0.929 . S
H179 C173 0.930 . S
Mn180 O185 2.095 . S
Mn180 O195 2.162 . S
Mn180 O196 2.297 . S
Mn180 O204 2.385 . S
Mn180 O205 2.209 . S
Mn180 O206 2.094 . S
Mn181 O186 2.121 . S
Mn181 N188 2.257 . S
Mn181 N197 2.282 . S
Mn181 O205 2.215 . S
Mn181 O207 2.117 . S
C182 O204 1.234 . S
C182 O205 1.283 . S
C183 O195 1.281 . S
C183 O196 1.236 . S
C184 O206 1.240 . S
C184 O207 1.264 . S
O185 Mn180 2.095 . S
O185 C194 1.250 . S
O186 Mn181 2.121 . S
O186 C194 1.258 . S
C187 N188 1.326 . S
C187 C191 1.460 . S
C187 H193 0.929 . S
N188 Mn181 2.257 . S
N188 C187 1.326 . S
N188 C192 1.362 . S
C189 C190 1.258 . S
C189 C192 1.431 . S
C189 C209 1.449 . S
C190 C189 1.258 . S
C190 C191 1.477 . S
C190 H210 0.931 . S
C191 C187 1.460 . S
C191 C190 1.477 . S
C191 H211 0.930 . S
C192 N188 1.362 . S
C192 C189 1.431 . S
C192 C202 1.476 . S
H193 C187 0.929 . S
C194 O185 1.250 . S
C194 O186 1.258 . S
O195 Mn180 2.162 . S
O195 C183 1.281 . S
O196 Mn180 2.297 . S
O196 C183 1.236 . S
N197 Mn181 2.282 . S
N197 C198 1.328 . S
N197 C202 1.318 . S
C198 N197 1.328 . S
C198 C199 1.457 . S
C198 H203 0.929 . S
C199 C198 1.457 . S
C199 C200 1.291 . S
C199 H212 0.931 . S
C200 C199 1.291 . S
C200 C201 1.373 . S
C200 H213 0.929 . S
C201 C200 1.373 . S
C201 C202 1.396 . S
C201 C208 1.403 . S
C202 C192 1.476 . S
C202 N197 1.318 . S
C202 C201 1.396 . S
H203 C198 0.929 . S
O204 Mn180 2.385 . S
O204 C182 1.234 . S
O205 Mn180 2.209 . S
O205 Mn181 2.215 . S
O205 C182 1.283 . S
O206 Mn180 2.094 . S
O206 C184 1.240 . S
O207 Mn181 2.117 . S
O207 C184 1.264 . S
C208 C201 1.403 . S
C208 C209 1.399 . S
C208 H214 0.929 . S
C209 C189 1.449 . S
C209 C208 1.399 . S
C209 H215 0.930 . S
H210 C190 0.931 . S
H211 C191 0.930 . S
H212 C199 0.931 . S
H213 C200 0.929 . S
H214 C208 0.929 . S
H215 C209 0.930 . S
Mn216 O221 2.095 . S
Mn216 O231 2.162 . S
Mn216 O232 2.297 . S
Mn216 O240 2.385 . S
Mn216 O241 2.209 . S
Mn216 O242 2.094 . S
Mn217 O222 2.121 . S
Mn217 N224 2.257 . S
Mn217 N233 2.282 . S
Mn217 O241 2.215 . S
Mn217 O243 2.117 . S
C218 O240 1.234 . S
C218 O241 1.283 . S
C219 O231 1.281 . S
C219 O232 1.236 . S
C220 O242 1.240 . S
C220 O243 1.264 . S
O221 Mn216 2.095 . S
O221 C230 1.250 . S
O222 Mn217 2.121 . S
O222 C230 1.258 . S
C223 N224 1.326 . S
C223 C227 1.460 . S
C223 H229 0.929 . S
N224 Mn217 2.257 . S
N224 C223 1.326 . S
N224 C228 1.362 . S
C225 C226 1.258 . S
C225 C228 1.431 . S
C225 C245 1.449 . S
C226 C225 1.258 . S
C226 C227 1.477 . S
C226 H246 0.931 . S
C227 C223 1.460 . S
C227 C226 1.477 . S
C227 H247 0.930 . S
C228 N224 1.362 . S
C228 C225 1.431 . S
C228 C238 1.476 . S
H229 C223 0.929 . S
C230 O221 1.250 . S
C230 O222 1.258 . S
O231 Mn216 2.162 . S
O231 C219 1.281 . S
O232 Mn216 2.297 . S
O232 C219 1.236 . S
N233 Mn217 2.282 . S
N233 C234 1.328 . S
N233 C238 1.318 . S
C234 N233 1.328 . S
C234 C235 1.457 . S
C234 H239 0.929 . S
C235 C234 1.457 . S
C235 C236 1.291 . S
C235 H248 0.931 . S
C236 C235 1.291 . S
C236 C237 1.373 . S
C236 H249 0.929 . S
C237 C236 1.373 . S
C237 C238 1.396 . S
C237 C244 1.403 . S
C238 C228 1.476 . S
C238 N233 1.318 . S
C238 C237 1.396 . S
H239 C234 0.929 . S
O240 Mn216 2.385 . S
O240 C218 1.234 . S
O241 Mn216 2.209 . S
O241 Mn217 2.215 . S
O241 C218 1.283 . S
O242 Mn216 2.094 . S
O242 C220 1.240 . S
O243 Mn217 2.117 . S
O243 C220 1.264 . S
C244 C237 1.403 . S
C244 C245 1.399 . S
C244 H250 0.929 . S
C245 C225 1.449 . S
C245 C244 1.399 . S
C245 H251 0.930 . S
H246 C226 0.931 . S
H247 C227 0.930 . S
H248 C235 0.931 . S
H249 C236 0.929 . S
H250 C244 0.929 . S
H251 C245 0.930 . S
Mn252 O257 2.095 . S
Mn252 O267 2.162 . S
Mn252 O268 2.297 . S
Mn252 O276 2.385 . S
Mn252 O277 2.209 . S
Mn252 O278 2.094 . S
Mn253 O258 2.121 . S
Mn253 N260 2.257 . S
Mn253 N269 2.282 . S
Mn253 O277 2.215 . S
Mn253 O279 2.117 . S
C254 O276 1.234 . S
C254 O277 1.283 . S
C255 O267 1.281 . S
C255 O268 1.236 . S
C256 O278 1.240 . S
C256 O279 1.264 . S
O257 Mn252 2.095 . S
O257 C266 1.250 . S
O258 Mn253 2.121 . S
O258 C266 1.258 . S
C259 N260 1.326 . S
C259 C263 1.460 . S
C259 H265 0.929 . S
N260 Mn253 2.257 . S
N260 C259 1.326 . S
N260 C264 1.362 . S
C261 C262 1.258 . S
C261 C264 1.431 . S
C261 C281 1.449 . S
C262 C261 1.258 . S
C262 C263 1.477 . S
C262 H282 0.931 . S
C263 C259 1.460 . S
C263 C262 1.477 . S
C263 H283 0.930 . S
C264 N260 1.362 . S
C264 C261 1.431 . S
C264 C274 1.476 . S
H265 C259 0.929 . S
C266 O257 1.250 . S
C266 O258 1.258 . S
O267 Mn252 2.162 . S
O267 C255 1.281 . S
O268 Mn252 2.297 . S
O268 C255 1.236 . S
N269 Mn253 2.282 . S
N269 C270 1.328 . S
N269 C274 1.318 . S
C270 N269 1.328 . S
C270 C271 1.457 . S
C270 H275 0.929 . S
C271 C270 1.457 . S
C271 C272 1.291 . S
C271 H284 0.931 . S
C272 C271 1.291 . S
C272 C273 1.373 . S
C272 H285 0.929 . S
C273 C272 1.373 . S
C273 C274 1.396 . S
C273 C280 1.403 . S
C274 C264 1.476 . S
C274 N269 1.318 . S
C274 C273 1.396 . S
H275 C270 0.929 . S
O276 Mn252 2.385 . S
O276 C254 1.234 . S
O277 Mn252 2.209 . S
O277 Mn253 2.215 . S
O277 C254 1.283 . S
O278 Mn252 2.094 . S
O278 C256 1.240 . S
O279 Mn253 2.117 . S
O279 C256 1.264 . S
C280 C273 1.403 . S
C280 C281 1.399 . S
C280 H286 0.929 . S
C281 C261 1.449 . S
C281 C280 1.399 . S
C281 H287 0.930 . S
H282 C262 0.931 . S
H283 C263 0.930 . S
H284 C271 0.931 . S
H285 C272 0.929 . S
H286 C280 0.929 . S
H287 C281 0.930 . S
Mn288 O293 2.095 . S
Mn288 O303 2.162 . S
Mn288 O304 2.297 . S
Mn288 O312 2.385 . S
Mn288 O313 2.209 . S
Mn288 O314 2.094 . S
Mn289 O294 2.121 . S
Mn289 N296 2.257 . S
Mn289 N305 2.282 . S
Mn289 O313 2.215 . S
Mn289 O315 2.117 . S
C290 O312 1.234 . S
C290 O313 1.283 . S
C291 O303 1.281 . S
C291 O304 1.236 . S
C292 O314 1.240 . S
C292 O315 1.264 . S
O293 Mn288 2.095 . S
O293 C302 1.250 . S
O294 Mn289 2.121 . S
O294 C302 1.258 . S
C295 N296 1.326 . S
C295 C299 1.460 . S
C295 H301 0.929 . S
N296 Mn289 2.257 . S
N296 C295 1.326 . S
N296 C300 1.362 . S
C297 C298 1.258 . S
C297 C300 1.431 . S
C297 C317 1.449 . S
C298 C297 1.258 . S
C298 C299 1.477 . S
C298 H318 0.931 . S
C299 C295 1.460 . S
C299 C298 1.477 . S
C299 H319 0.930 . S
C300 N296 1.362 . S
C300 C297 1.431 . S
C300 C310 1.476 . S
H301 C295 0.929 . S
C302 O293 1.250 . S
C302 O294 1.258 . S
O303 Mn288 2.162 . S
O303 C291 1.281 . S
O304 Mn288 2.297 . S
O304 C291 1.236 . S
N305 Mn289 2.282 . S
N305 C306 1.328 . S
N305 C310 1.318 . S
C306 N305 1.328 . S
C306 C307 1.457 . S
C306 H311 0.929 . S
C307 C306 1.457 . S
C307 C308 1.291 . S
C307 H320 0.931 . S
C308 C307 1.291 . S
C308 C309 1.373 . S
C308 H321 0.929 . S
C309 C308 1.373 . S
C309 C310 1.396 . S
C309 C316 1.403 . S
C310 C300 1.476 . S
C310 N305 1.318 . S
C310 C309 1.396 . S
H311 C306 0.929 . S
O312 Mn288 2.385 . S
O312 C290 1.234 . S
O313 Mn288 2.209 . S
O313 Mn289 2.215 . S
O313 C290 1.283 . S
O314 Mn288 2.094 . S
O314 C292 1.240 . S
O315 Mn289 2.117 . S
O315 C292 1.264 . S
C316 C309 1.403 . S
C316 C317 1.399 . S
C316 H322 0.929 . S
C317 C297 1.449 . S
C317 C316 1.399 . S
C317 H323 0.930 . S
H318 C298 0.931 . S
H319 C299 0.930 . S
H320 C307 0.931 . S
H321 C308 0.929 . S
H322 C316 0.929 . S
H323 C317 0.930 . S
Mn324 O329 2.095 . S
Mn324 O339 2.162 . S
Mn324 O340 2.297 . S
Mn324 O348 2.385 . S
Mn324 O349 2.209 . S
Mn324 O350 2.094 . S
Mn325 O330 2.121 . S
Mn325 N332 2.257 . S
Mn325 N341 2.282 . S
Mn325 O349 2.215 . S
Mn325 O351 2.117 . S
C326 O348 1.234 . S
C326 O349 1.283 . S
C327 O339 1.281 . S
C327 O340 1.236 . S
C328 O350 1.240 . S
C328 O351 1.264 . S
O329 Mn324 2.095 . S
O329 C338 1.250 . S
O330 Mn325 2.121 . S
O330 C338 1.258 . S
C331 N332 1.326 . S
C331 C335 1.460 . S
C331 H337 0.929 . S
N332 Mn325 2.257 . S
N332 C331 1.326 . S
N332 C336 1.362 . S
C333 C334 1.258 . S
C333 C336 1.431 . S
C333 C353 1.449 . S
C334 C333 1.258 . S
C334 C335 1.477 . S
C334 H354 0.931 . S
C335 C331 1.460 . S
C335 C334 1.477 . S
C335 H355 0.930 . S
C336 N332 1.362 . S
C336 C333 1.431 . S
C336 C346 1.476 . S
H337 C331 0.929 . S
C338 O329 1.250 . S
C338 O330 1.258 . S
O339 Mn324 2.162 . S
O339 C327 1.281 . S
O340 Mn324 2.297 . S
O340 C327 1.236 . S
N341 Mn325 2.282 . S
N341 C342 1.328 . S
N341 C346 1.318 . S
C342 N341 1.328 . S
C342 C343 1.457 . S
C342 H347 0.929 . S
C343 C342 1.457 . S
C343 C344 1.291 . S
C343 H356 0.931 . S
C344 C343 1.291 . S
C344 C345 1.373 . S
C344 H357 0.929 . S
C345 C344 1.373 . S
C345 C346 1.396 . S
C345 C352 1.403 . S
C346 C336 1.476 . S
C346 N341 1.318 . S
C346 C345 1.396 . S
H347 C342 0.929 . S
O348 Mn324 2.385 . S
O348 C326 1.234 . S
O349 Mn324 2.209 . S
O349 Mn325 2.215 . S
O349 C326 1.283 . S
O350 Mn324 2.094 . S
O350 C328 1.240 . S
O351 Mn325 2.117 . S
O351 C328 1.264 . S
C352 C345 1.403 . S
C352 C353 1.399 . S
C352 H358 0.929 . S
C353 C333 1.449 . S
C353 C352 1.399 . S
C353 H359 0.930 . S
H354 C334 0.931 . S
H355 C335 0.930 . S
H356 C343 0.931 . S
H357 C344 0.929 . S
H358 C352 0.929 . S
H359 C353 0.930 . S
Mn360 O365 2.095 . S
Mn360 O375 2.162 . S
Mn360 O376 2.297 . S
Mn360 O384 2.385 . S
Mn360 O385 2.209 . S
Mn360 O386 2.094 . S
Mn361 O366 2.121 . S
Mn361 N368 2.257 . S
Mn361 N377 2.282 . S
Mn361 O385 2.215 . S
Mn361 O387 2.117 . S
C362 O384 1.234 . S
C362 O385 1.283 . S
C363 O375 1.281 . S
C363 O376 1.236 . S
C364 O386 1.240 . S
C364 O387 1.264 . S
O365 Mn360 2.095 . S
O365 C374 1.250 . S
O366 Mn361 2.121 . S
O366 C374 1.258 . S
C367 N368 1.326 . S
C367 C371 1.460 . S
C367 H373 0.929 . S
N368 Mn361 2.257 . S
N368 C367 1.326 . S
N368 C372 1.362 . S
C369 C370 1.258 . S
C369 C372 1.431 . S
C369 C389 1.449 . S
C370 C369 1.258 . S
C370 C371 1.477 . S
C370 H390 0.931 . S
C371 C367 1.460 . S
C371 C370 1.477 . S
C371 H391 0.930 . S
C372 N368 1.362 . S
C372 C369 1.431 . S
C372 C382 1.476 . S
H373 C367 0.929 . S
C374 O365 1.250 . S
C374 O366 1.258 . S
O375 Mn360 2.162 . S
O375 C363 1.281 . S
O376 Mn360 2.297 . S
O376 C363 1.236 . S
N377 Mn361 2.282 . S
N377 C378 1.328 . S
N377 C382 1.318 . S
C378 N377 1.328 . S
C378 C379 1.457 . S
C378 H383 0.929 . S
C379 C378 1.457 . S
C379 C380 1.291 . S
C379 H392 0.931 . S
C380 C379 1.291 . S
C380 C381 1.373 . S
C380 H393 0.929 . S
C381 C380 1.373 . S
C381 C382 1.396 . S
C381 C388 1.403 . S
C382 C372 1.476 . S
C382 N377 1.318 . S
C382 C381 1.396 . S
H383 C378 0.929 . S
O384 Mn360 2.385 . S
O384 C362 1.234 . S
O385 Mn360 2.209 . S
O385 Mn361 2.215 . S
O385 C362 1.283 . S
O386 Mn360 2.094 . S
O386 C364 1.240 . S
O387 Mn361 2.117 . S
O387 C364 1.264 . S
C388 C381 1.403 . S
C388 C389 1.399 . S
C388 H394 0.929 . S
C389 C369 1.449 . S
C389 C388 1.399 . S
C389 H395 0.930 . S
H390 C370 0.931 . S
H391 C371 0.930 . S
H392 C379 0.931 . S
H393 C380 0.929 . S
H394 C388 0.929 . S
H395 C389 0.930 . S
Mn396 O401 2.095 . S
Mn396 O411 2.162 . S
Mn396 O412 2.297 . S
Mn396 O420 2.385 . S
Mn396 O421 2.209 . S
Mn396 O422 2.094 . S
Mn397 O402 2.121 . S
Mn397 N404 2.257 . S
Mn397 N413 2.282 . S
Mn397 O421 2.215 . S
Mn397 O423 2.117 . S
C398 O420 1.234 . S
C398 O421 1.283 . S
C399 O411 1.281 . S
C399 O412 1.236 . S
C400 O422 1.240 . S
C400 O423 1.264 . S
O401 Mn396 2.095 . S
O401 C410 1.250 . S
O402 Mn397 2.121 . S
O402 C410 1.258 . S
C403 N404 1.326 . S
C403 C407 1.460 . S
C403 H409 0.929 . S
N404 Mn397 2.257 . S
N404 C403 1.326 . S
N404 C408 1.362 . S
C405 C406 1.258 . S
C405 C408 1.431 . S
C405 C425 1.449 . S
C406 C405 1.258 . S
C406 C407 1.477 . S
C406 H426 0.931 . S
C407 C403 1.460 . S
C407 C406 1.477 . S
C407 H427 0.930 . S
C408 N404 1.362 . S
C408 C405 1.431 . S
C408 C418 1.476 . S
H409 C403 0.929 . S
C410 O401 1.250 . S
C410 O402 1.258 . S
O411 Mn396 2.162 . S
O411 C399 1.281 . S
O412 Mn396 2.297 . S
O412 C399 1.236 . S
N413 Mn397 2.282 . S
N413 C414 1.328 . S
N413 C418 1.318 . S
C414 N413 1.328 . S
C414 C415 1.457 . S
C414 H419 0.929 . S
C415 C414 1.457 . S
C415 C416 1.291 . S
C415 H428 0.931 . S
C416 C415 1.291 . S
C416 C417 1.373 . S
C416 H429 0.929 . S
C417 C416 1.373 . S
C417 C418 1.396 . S
C417 C424 1.403 . S
C418 C408 1.476 . S
C418 N413 1.318 . S
C418 C417 1.396 . S
H419 C414 0.929 . S
O420 Mn396 2.385 . S
O420 C398 1.234 . S
O421 Mn396 2.209 . S
O421 Mn397 2.215 . S
O421 C398 1.283 . S
O422 Mn396 2.094 . S
O422 C400 1.240 . S
O423 Mn397 2.117 . S
O423 C400 1.264 . S
C424 C417 1.403 . S
C424 C425 1.399 . S
C424 H430 0.929 . S
C425 C405 1.449 . S
C425 C424 1.399 . S
C425 H431 0.930 . S
H426 C406 0.931 . S
H427 C407 0.930 . S
H428 C415 0.931 . S
H429 C416 0.929 . S
H430 C424 0.929 . S
H431 C425 0.930 . S
Mn432 O437 2.095 . S
Mn432 O447 2.162 . S
Mn432 O448 2.297 . S
Mn432 O456 2.385 . S
Mn432 O457 2.209 . S
Mn432 O458 2.094 . S
Mn433 O438 2.121 . S
Mn433 N440 2.257 . S
Mn433 N449 2.282 . S
Mn433 O457 2.215 . S
Mn433 O459 2.117 . S
C434 O456 1.234 . S
C434 O457 1.283 . S
C435 O447 1.281 . S
C435 O448 1.236 . S
C436 O458 1.240 . S
C436 O459 1.264 . S
O437 Mn432 2.095 . S
O437 C446 1.250 . S
O438 Mn433 2.121 . S
O438 C446 1.258 . S
C439 N440 1.326 . S
C439 C443 1.460 . S
C439 H445 0.929 . S
N440 Mn433 2.257 . S
N440 C439 1.326 . S
N440 C444 1.362 . S
C441 C442 1.258 . S
C441 C444 1.431 . S
C441 C461 1.449 . S
C442 C441 1.258 . S
C442 C443 1.477 . S
C442 H462 0.931 . S
C443 C439 1.460 . S
C443 C442 1.477 . S
C443 H463 0.930 . S
C444 N440 1.362 . S
C444 C441 1.431 . S
C444 C454 1.476 . S
H445 C439 0.929 . S
C446 O437 1.250 . S
C446 O438 1.258 . S
O447 Mn432 2.162 . S
O447 C435 1.281 . S
O448 Mn432 2.297 . S
O448 C435 1.236 . S
N449 Mn433 2.282 . S
N449 C450 1.328 . S
N449 C454 1.318 . S
C450 N449 1.328 . S
C450 C451 1.457 . S
C450 H455 0.929 . S
C451 C450 1.457 . S
C451 C452 1.291 . S
C451 H464 0.931 . S
C452 C451 1.291 . S
C452 C453 1.373 . S
C452 H465 0.929 . S
C453 C452 1.373 . S
C453 C454 1.396 . S
C453 C460 1.403 . S
C454 C444 1.476 . S
C454 N449 1.318 . S
C454 C453 1.396 . S
H455 C450 0.929 . S
O456 Mn432 2.385 . S
O456 C434 1.234 . S
O457 Mn432 2.209 . S
O457 Mn433 2.215 . S
O457 C434 1.283 . S
O458 Mn432 2.094 . S
O458 C436 1.240 . S
O459 Mn433 2.117 . S
O459 C436 1.264 . S
C460 C453 1.403 . S
C460 C461 1.399 . S
C460 H466 0.929 . S
C461 C441 1.449 . S
C461 C460 1.399 . S
C461 H467 0.930 . S
H462 C442 0.931 . S
H463 C443 0.930 . S
H464 C451 0.931 . S
H465 C452 0.929 . S
H466 C460 0.929 . S
H467 C461 0.930 . S
Mn468 O473 2.095 . S
Mn468 O483 2.162 . S
Mn468 O484 2.297 . S
Mn468 O492 2.385 . S
Mn468 O493 2.209 . S
Mn468 O494 2.094 . S
Mn469 O474 2.121 . S
Mn469 N476 2.257 . S
Mn469 N485 2.282 . S
Mn469 O493 2.215 . S
Mn469 O495 2.117 . S
C470 O492 1.234 . S
C470 O493 1.283 . S
C471 O483 1.281 . S
C471 O484 1.236 . S
C472 O494 1.240 . S
C472 O495 1.264 . S
O473 Mn468 2.095 . S
O473 C482 1.250 . S
O474 Mn469 2.121 . S
O474 C482 1.258 . S
C475 N476 1.326 . S
C475 C479 1.460 . S
C475 H481 0.929 . S
N476 Mn469 2.257 . S
N476 C475 1.326 . S
N476 C480 1.362 . S
C477 C478 1.258 . S
C477 C480 1.431 . S
C477 C497 1.449 . S
C478 C477 1.258 . S
C478 C479 1.477 . S
C478 H498 0.931 . S
C479 C475 1.460 . S
C479 C478 1.477 . S
C479 H499 0.930 . S
C480 N476 1.362 . S
C480 C477 1.431 . S
C480 C490 1.476 . S
H481 C475 0.929 . S
C482 O473 1.250 . S
C482 O474 1.258 . S
O483 Mn468 2.162 . S
O483 C471 1.281 . S
O484 Mn468 2.297 . S
O484 C471 1.236 . S
N485 Mn469 2.282 . S
N485 C486 1.328 . S
N485 C490 1.318 . S
C486 N485 1.328 . S
C486 C487 1.457 . S
C486 H491 0.929 . S
C487 C486 1.457 . S
C487 C488 1.291 . S
C487 H500 0.931 . S
C488 C487 1.291 . S
C488 C489 1.373 . S
C488 H501 0.929 . S
C489 C488 1.373 . S
C489 C490 1.396 . S
C489 C496 1.403 . S
C490 C480 1.476 . S
C490 N485 1.318 . S
C490 C489 1.396 . S
H491 C486 0.929 . S
O492 Mn468 2.385 . S
O492 C470 1.234 . S
O493 Mn468 2.209 . S
O493 Mn469 2.215 . S
O493 C470 1.283 . S
O494 Mn468 2.094 . S
O494 C472 1.240 . S
O495 Mn469 2.117 . S
O495 C472 1.264 . S
C496 C489 1.403 . S
C496 C497 1.399 . S
C496 H502 0.929 . S
C497 C477 1.449 . S
C497 C496 1.399 . S
C497 H503 0.930 . S
H498 C478 0.931 . S
H499 C479 0.930 . S
H500 C487 0.931 . S
H501 C488 0.929 . S
H502 C496 0.929 . S
H503 C497 0.930 . S
Mn504 O509 2.095 . S
Mn504 O519 2.162 . S
Mn504 O520 2.297 . S
Mn504 O528 2.385 . S
Mn504 O529 2.209 . S
Mn504 O530 2.094 . S
Mn505 O510 2.121 . S
Mn505 N512 2.257 . S
Mn505 N521 2.282 . S
Mn505 O529 2.215 . S
Mn505 O531 2.117 . S
C506 O528 1.234 . S
C506 O529 1.283 . S
C507 O519 1.281 . S
C507 O520 1.236 . S
C508 O530 1.240 . S
C508 O531 1.264 . S
O509 Mn504 2.095 . S
O509 C518 1.250 . S
O510 Mn505 2.121 . S
O510 C518 1.258 . S
C511 N512 1.326 . S
C511 C515 1.460 . S
C511 H517 0.929 . S
N512 Mn505 2.257 . S
N512 C511 1.326 . S
N512 C516 1.362 . S
C513 C514 1.258 . S
C513 C516 1.431 . S
C513 C533 1.449 . S
C514 C513 1.258 . S
C514 C515 1.477 . S
C514 H534 0.931 . S
C515 C511 1.460 . S
C515 C514 1.477 . S
C515 H535 0.930 . S
C516 N512 1.362 . S
C516 C513 1.431 . S
C516 C526 1.476 . S
H517 C511 0.929 . S
C518 O509 1.250 . S
C518 O510 1.258 . S
O519 Mn504 2.162 . S
O519 C507 1.281 . S
O520 Mn504 2.297 . S
O520 C507 1.236 . S
N521 Mn505 2.282 . S
N521 C522 1.328 . S
N521 C526 1.318 . S
C522 N521 1.328 . S
C522 C523 1.457 . S
C522 H527 0.929 . S
C523 C522 1.457 . S
C523 C524 1.291 . S
C523 H536 0.931 . S
C524 C523 1.291 . S
C524 C525 1.373 . S
C524 H537 0.929 . S
C525 C524 1.373 . S
C525 C526 1.396 . S
C525 C532 1.403 . S
C526 C516 1.476 . S
C526 N521 1.318 . S
C526 C525 1.396 . S
H527 C522 0.929 . S
O528 Mn504 2.385 . S
O528 C506 1.234 . S
O529 Mn504 2.209 . S
O529 Mn505 2.215 . S
O529 C506 1.283 . S
O530 Mn504 2.094 . S
O530 C508 1.240 . S
O531 Mn505 2.117 . S
O531 C508 1.264 . S
C532 C525 1.403 . S
C532 C533 1.399 . S
C532 H538 0.929 . S
C533 C513 1.449 . S
C533 C532 1.399 . S
C533 H539 0.930 . S
H534 C514 0.931 . S
H535 C515 0.930 . S
H536 C523 0.931 . S
H537 C524 0.929 . S
H538 C532 0.929 . S
H539 C533 0.930 . S
Mn540 O545 2.095 . S
Mn540 O555 2.162 . S
Mn540 O556 2.297 . S
Mn540 O564 2.385 . S
Mn540 O565 2.209 . S
Mn540 O566 2.094 . S
Mn541 O546 2.121 . S
Mn541 N548 2.257 . S
Mn541 N557 2.282 . S
Mn541 O565 2.215 . S
Mn541 O567 2.117 . S
C542 O564 1.234 . S
C542 O565 1.283 . S
C543 O555 1.281 . S
C543 O556 1.236 . S
C544 O566 1.240 . S
C544 O567 1.264 . S
O545 Mn540 2.095 . S
O545 C554 1.250 . S
O546 Mn541 2.121 . S
O546 C554 1.258 . S
C547 N548 1.326 . S
C547 C551 1.460 . S
C547 H553 0.929 . S
N548 Mn541 2.257 . S
N548 C547 1.326 . S
N548 C552 1.362 . S
C549 C550 1.258 . S
C549 C552 1.431 . S
C549 C569 1.449 . S
C550 C549 1.258 . S
C550 C551 1.477 . S
C550 H570 0.931 . S
C551 C547 1.460 . S
C551 C550 1.477 . S
C551 H571 0.930 . S
C552 N548 1.362 . S
C552 C549 1.431 . S
C552 C562 1.476 . S
H553 C547 0.929 . S
C554 O545 1.250 . S
C554 O546 1.258 . S
O555 Mn540 2.162 . S
O555 C543 1.281 . S
O556 Mn540 2.297 . S
O556 C543 1.236 . S
N557 Mn541 2.282 . S
N557 C558 1.328 . S
N557 C562 1.318 . S
C558 N557 1.328 . S
C558 C559 1.457 . S
C558 H563 0.929 . S
C559 C558 1.457 . S
C559 C560 1.291 . S
C559 H572 0.931 . S
C560 C559 1.291 . S
C560 C561 1.373 . S
C560 H573 0.929 . S
C561 C560 1.373 . S
C561 C562 1.396 . S
C561 C568 1.403 . S
C562 C552 1.476 . S
C562 N557 1.318 . S
C562 C561 1.396 . S
H563 C558 0.929 . S
O564 Mn540 2.385 . S
O564 C542 1.234 . S
O565 Mn540 2.209 . S
O565 Mn541 2.215 . S
O565 C542 1.283 . S
O566 Mn540 2.094 . S
O566 C544 1.240 . S
O567 Mn541 2.117 . S
O567 C544 1.264 . S
C568 C561 1.403 . S
C568 C569 1.399 . S
C568 H574 0.929 . S
C569 C549 1.449 . S
C569 C568 1.399 . S
C569 H575 0.930 . S
H570 C550 0.931 . S
H571 C551 0.930 . S
H572 C559 0.931 . S
H573 C560 0.929 . S
H574 C568 0.929 . S
H575 C569 0.930 . S
Mn576 O581 2.095 . S
Mn576 O591 2.162 . S
Mn576 O592 2.297 . S
Mn576 O600 2.385 . S
Mn576 O601 2.209 . S
Mn576 O602 2.094 . S
Mn577 O582 2.121 . S
Mn577 N584 2.257 . S
Mn577 N593 2.282 . S
Mn577 O601 2.215 . S
Mn577 O603 2.117 . S
C578 O600 1.234 . S
C578 O601 1.283 . S
C579 O591 1.281 . S
C579 O592 1.236 . S
C580 O602 1.240 . S
C580 O603 1.264 . S
O581 Mn576 2.095 . S
O581 C590 1.250 . S
O582 Mn577 2.121 . S
O582 C590 1.258 . S
C583 N584 1.326 . S
C583 C587 1.460 . S
C583 H589 0.929 . S
N584 Mn577 2.257 . S
N584 C583 1.326 . S
N584 C588 1.362 . S
C585 C586 1.258 . S
C585 C588 1.431 . S
C585 C605 1.449 . S
C586 C585 1.258 . S
C586 C587 1.477 . S
C586 H606 0.931 . S
C587 C583 1.460 . S
C587 C586 1.477 . S
C587 H607 0.930 . S
C588 N584 1.362 . S
C588 C585 1.431 . S
C588 C598 1.476 . S
H589 C583 0.929 . S
C590 O581 1.250 . S
C590 O582 1.258 . S
O591 Mn576 2.162 . S
O591 C579 1.281 . S
O592 Mn576 2.297 . S
O592 C579 1.236 . S
N593 Mn577 2.282 . S
N593 C594 1.328 . S
N593 C598 1.318 . S
C594 N593 1.328 . S
C594 C595 1.457 . S
C594 H599 0.929 . S
C595 C594 1.457 . S
C595 C596 1.291 . S
C595 H608 0.931 . S
C596 C595 1.291 . S
C596 C597 1.373 . S
C596 H609 0.929 . S
C597 C596 1.373 . S
C597 C598 1.396 . S
C597 C604 1.403 . S
C598 C588 1.476 . S
C598 N593 1.318 . S
C598 C597 1.396 . S
H599 C594 0.929 . S
O600 Mn576 2.385 . S
O600 C578 1.234 . S
O601 Mn576 2.209 . S
O601 Mn577 2.215 . S
O601 C578 1.283 . S
O602 Mn576 2.094 . S
O602 C580 1.240 . S
O603 Mn577 2.117 . S
O603 C580 1.264 . S
C604 C597 1.403 . S
C604 C605 1.399 . S
C604 H610 0.929 . S
C605 C585 1.449 . S
C605 C604 1.399 . S
C605 H611 0.930 . S
H606 C586 0.931 . S
H607 C587 0.930 . S
H608 C595 0.931 . S
H609 C596 0.929 . S
H610 C604 0.929 . S
H611 C605 0.930 . S
Mn612 O617 2.095 . S
Mn612 O627 2.162 . S
Mn612 O628 2.297 . S
Mn612 O636 2.385 . S
Mn612 O637 2.209 . S
Mn612 O638 2.094 . S
Mn613 O618 2.121 . S
Mn613 N620 2.257 . S
Mn613 N629 2.282 . S
Mn613 O637 2.215 . S
Mn613 O639 2.117 . S
C614 O636 1.234 . S
C614 O637 1.283 . S
C615 O627 1.281 . S
C615 O628 1.236 . S
C616 O638 1.240 . S
C616 O639 1.264 . S
O617 Mn612 2.095 . S
O617 C626 1.250 . S
O618 Mn613 2.121 . S
O618 C626 1.258 . S
C619 N620 1.326 . S
C619 C623 1.460 . S
C619 H625 0.929 . S
N620 Mn613 2.257 . S
N620 C619 1.326 . S
N620 C624 1.362 . S
C621 C622 1.258 . S
C621 C624 1.431 . S
C621 C641 1.449 . S
C622 C621 1.258 . S
C622 C623 1.477 . S
C622 H642 0.931 . S
C623 C619 1.460 . S
C623 C622 1.477 . S
C623 H643 0.930 . S
C624 N620 1.362 . S
C624 C621 1.431 . S
C624 C634 1.476 . S
H625 C619 0.929 . S
C626 O617 1.250 . S
C626 O618 1.258 . S
O627 Mn612 2.162 . S
O627 C615 1.281 . S
O628 Mn612 2.297 . S
O628 C615 1.236 . S
N629 Mn613 2.282 . S
N629 C630 1.328 . S
N629 C634 1.318 . S
C630 N629 1.328 . S
C630 C631 1.457 . S
C630 H635 0.929 . S
C631 C630 1.457 . S
C631 C632 1.291 . S
C631 H644 0.931 . S
C632 C631 1.291 . S
C632 C633 1.373 . S
C632 H645 0.929 . S
C633 C632 1.373 . S
C633 C634 1.396 . S
C633 C640 1.403 . S
C634 C624 1.476 . S
C634 N629 1.318 . S
C634 C633 1.396 . S
H635 C630 0.929 . S
O636 Mn612 2.385 . S
O636 C614 1.234 . S
O637 Mn612 2.209 . S
O637 Mn613 2.215 . S
O637 C614 1.283 . S
O638 Mn612 2.094 . S
O638 C616 1.240 . S
O639 Mn613 2.117 . S
O639 C616 1.264 . S
C640 C633 1.403 . S
C640 C641 1.399 . S
C640 H646 0.929 . S
C641 C621 1.449 . S
C641 C640 1.399 . S
C641 H647 0.930 . S
H642 C622 0.931 . S
H643 C623 0.930 . S
H644 C631 0.931 . S
H645 C632 0.929 . S
H646 C640 0.929 . S
H647 C641 0.930 . S
Mn648 O653 2.095 . S
Mn648 O663 2.162 . S
Mn648 O664 2.297 . S
Mn648 O672 2.385 . S
Mn648 O673 2.209 . S
Mn648 O674 2.094 . S
Mn649 O654 2.121 . S
Mn649 N656 2.257 . S
Mn649 N665 2.282 . S
Mn649 O673 2.215 . S
Mn649 O675 2.117 . S
C650 O672 1.234 . S
C650 O673 1.283 . S
C651 O663 1.281 . S
C651 O664 1.236 . S
C652 O674 1.240 . S
C652 O675 1.264 . S
O653 Mn648 2.095 . S
O653 C662 1.250 . S
O654 Mn649 2.121 . S
O654 C662 1.258 . S
C655 N656 1.326 . S
C655 C659 1.460 . S
C655 H661 0.929 . S
N656 Mn649 2.257 . S
N656 C655 1.326 . S
N656 C660 1.362 . S
C657 C658 1.258 . S
C657 C660 1.431 . S
C657 C677 1.449 . S
C658 C657 1.258 . S
C658 C659 1.477 . S
C658 H678 0.931 . S
C659 C655 1.460 . S
C659 C658 1.477 . S
C659 H679 0.930 . S
C660 N656 1.362 . S
C660 C657 1.431 . S
C660 C670 1.476 . S
H661 C655 0.929 . S
C662 O653 1.250 . S
C662 O654 1.258 . S
O663 Mn648 2.162 . S
O663 C651 1.281 . S
O664 Mn648 2.297 . S
O664 C651 1.236 . S
N665 Mn649 2.282 . S
N665 C666 1.328 . S
N665 C670 1.318 . S
C666 N665 1.328 . S
C666 C667 1.457 . S
C666 H671 0.929 . S
C667 C666 1.457 . S
C667 C668 1.291 . S
C667 H680 0.931 . S
C668 C667 1.291 . S
C668 C669 1.373 . S
C668 H681 0.929 . S
C669 C668 1.373 . S
C669 C670 1.396 . S
C669 C676 1.403 . S
C670 C660 1.476 . S
C670 N665 1.318 . S
C670 C669 1.396 . S
H671 C666 0.929 . S
O672 Mn648 2.385 . S
O672 C650 1.234 . S
O673 Mn648 2.209 . S
O673 Mn649 2.215 . S
O673 C650 1.283 . S
O674 Mn648 2.094 . S
O674 C652 1.240 . S
O675 Mn649 2.117 . S
O675 C652 1.264 . S
C676 C669 1.403 . S
C676 C677 1.399 . S
C676 H682 0.929 . S
C677 C657 1.449 . S
C677 C676 1.399 . S
C677 H683 0.930 . S
H678 C658 0.931 . S
H679 C659 0.930 . S
H680 C667 0.931 . S
H681 C668 0.929 . S
H682 C676 0.929 . S
H683 C677 0.930 . S
Mn684 O689 2.095 . S
Mn684 O699 2.162 . S
Mn684 O700 2.297 . S
Mn684 O708 2.385 . S
Mn684 O709 2.209 . S
Mn684 O710 2.094 . S
Mn685 O690 2.121 . S
Mn685 N692 2.257 . S
Mn685 N701 2.282 . S
Mn685 O709 2.215 . S
Mn685 O711 2.117 . S
C686 O708 1.234 . S
C686 O709 1.283 . S
C687 O699 1.281 . S
C687 O700 1.236 . S
C688 O710 1.240 . S
C688 O711 1.264 . S
O689 Mn684 2.095 . S
O689 C698 1.250 . S
O690 Mn685 2.121 . S
O690 C698 1.258 . S
C691 N692 1.326 . S
C691 C695 1.460 . S
C691 H697 0.929 . S
N692 Mn685 2.257 . S
N692 C691 1.326 . S
N692 C696 1.362 . S
C693 C694 1.258 . S
C693 C696 1.431 . S
C693 C713 1.449 . S
C694 C693 1.258 . S
C694 C695 1.477 . S
C694 H714 0.931 . S
C695 C691 1.460 . S
C695 C694 1.477 . S
C695 H715 0.930 . S
C696 N692 1.362 . S
C696 C693 1.431 . S
C696 C706 1.476 . S
H697 C691 0.929 . S
C698 O689 1.250 . S
C698 O690 1.258 . S
O699 Mn684 2.162 . S
O699 C687 1.281 . S
O700 Mn684 2.297 . S
O700 C687 1.236 . S
N701 Mn685 2.282 . S
N701 C702 1.328 . S
N701 C706 1.318 . S
C702 N701 1.328 . S
C702 C703 1.457 . S
C702 H707 0.929 . S
C703 C702 1.457 . S
C703 C704 1.291 . S
C703 H716 0.931 . S
C704 C703 1.291 . S
C704 C705 1.373 . S
C704 H717 0.929 . S
C705 C704 1.373 . S
C705 C706 1.396 . S
C705 C712 1.403 . S
C706 C696 1.476 . S
C706 N701 1.318 . S
C706 C705 1.396 . S
H707 C702 0.929 . S
O708 Mn684 2.385 . S
O708 C686 1.234 . S
O709 Mn684 2.209 . S
O709 Mn685 2.215 . S
O709 C686 1.283 . S
O710 Mn684 2.094 . S
O710 C688 1.240 . S
O711 Mn685 2.117 . S
O711 C688 1.264 . S
C712 C705 1.403 . S
C712 C713 1.399 . S
C712 H718 0.929 . S
C713 C693 1.449 . S
C713 C712 1.399 . S
C713 H719 0.930 . S
H714 C694 0.931 . S
H715 C695 0.930 . S
H716 C703 0.931 . S
H717 C704 0.929 . S
H718 C712 0.929 . S
H719 C713 0.930 . S
Mn720 O725 2.095 . S
Mn720 O735 2.162 . S
Mn720 O736 2.297 . S
Mn720 O744 2.385 . S
Mn720 O745 2.209 . S
Mn720 O746 2.094 . S
Mn721 O726 2.121 . S
Mn721 N728 2.257 . S
Mn721 N737 2.282 . S
Mn721 O745 2.215 . S
Mn721 O747 2.117 . S
C722 O744 1.234 . S
C722 O745 1.283 . S
C723 O735 1.281 . S
C723 O736 1.236 . S
C724 O746 1.240 . S
C724 O747 1.264 . S
O725 Mn720 2.095 . S
O725 C734 1.250 . S
O726 Mn721 2.121 . S
O726 C734 1.258 . S
C727 N728 1.326 . S
C727 C731 1.460 . S
C727 H733 0.929 . S
N728 Mn721 2.257 . S
N728 C727 1.326 . S
N728 C732 1.362 . S
C729 C730 1.258 . S
C729 C732 1.431 . S
C729 C749 1.449 . S
C730 C729 1.258 . S
C730 C731 1.477 . S
C730 H750 0.931 . S
C731 C727 1.460 . S
C731 C730 1.477 . S
C731 H751 0.930 . S
C732 N728 1.362 . S
C732 C729 1.431 . S
C732 C742 1.476 . S
H733 C727 0.929 . S
C734 O725 1.250 . S
C734 O726 1.258 . S
O735 Mn720 2.162 . S
O735 C723 1.281 . S
O736 Mn720 2.297 . S
O736 C723 1.236 . S
N737 Mn721 2.282 . S
N737 C738 1.328 . S
N737 C742 1.318 . S
C738 N737 1.328 . S
C738 C739 1.457 . S
C738 H743 0.929 . S
C739 C738 1.457 . S
C739 C740 1.291 . S
C739 H752 0.931 . S
C740 C739 1.291 . S
C740 C741 1.373 . S
C740 H753 0.929 . S
C741 C740 1.373 . S
C741 C742 1.396 . S
C741 C748 1.403 . S
C742 C732 1.476 . S
C742 N737 1.318 . S
C742 C741 1.396 . S
H743 C738 0.929 . S
O744 Mn720 2.385 . S
O744 C722 1.234 . S
O745 Mn720 2.209 . S
O745 Mn721 2.215 . S
O745 C722 1.283 . S
O746 Mn720 2.094 . S
O746 C724 1.240 . S
O747 Mn721 2.117 . S
O747 C724 1.264 . S
C748 C741 1.403 . S
C748 C749 1.399 . S
C748 H754 0.929 . S
C749 C729 1.449 . S
C749 C748 1.399 . S
C749 H755 0.930 . S
H750 C730 0.931 . S
H751 C731 0.930 . S
H752 C739 0.931 . S
H753 C740 0.929 . S
H754 C748 0.929 . S
H755 C749 0.930 . S
Mn756 O761 2.095 . S
Mn756 O771 2.162 . S
Mn756 O772 2.297 . S
Mn756 O780 2.385 . S
Mn756 O781 2.209 . S
Mn756 O782 2.094 . S
Mn757 O762 2.121 . S
Mn757 N764 2.257 . S
Mn757 N773 2.282 . S
Mn757 O781 2.215 . S
Mn757 O783 2.117 . S
C758 O780 1.234 . S
C758 O781 1.283 . S
C759 O771 1.281 . S
C759 O772 1.236 . S
C760 O782 1.240 . S
C760 O783 1.264 . S
O761 Mn756 2.095 . S
O761 C770 1.250 . S
O762 Mn757 2.121 . S
O762 C770 1.258 . S
C763 N764 1.326 . S
C763 C767 1.460 . S
C763 H769 0.929 . S
N764 Mn757 2.257 . S
N764 C763 1.326 . S
N764 C768 1.362 . S
C765 C766 1.258 . S
C765 C768 1.431 . S
C765 C785 1.449 . S
C766 C765 1.258 . S
C766 C767 1.477 . S
C766 H786 0.931 . S
C767 C763 1.460 . S
C767 C766 1.477 . S
C767 H787 0.930 . S
C768 N764 1.362 . S
C768 C765 1.431 . S
C768 C778 1.476 . S
H769 C763 0.929 . S
C770 O761 1.250 . S
C770 O762 1.258 . S
O771 Mn756 2.162 . S
O771 C759 1.281 . S
O772 Mn756 2.297 . S
O772 C759 1.236 . S
N773 Mn757 2.282 . S
N773 C774 1.328 . S
N773 C778 1.318 . S
C774 N773 1.328 . S
C774 C775 1.457 . S
C774 H779 0.929 . S
C775 C774 1.457 . S
C775 C776 1.291 . S
C775 H788 0.931 . S
C776 C775 1.291 . S
C776 C777 1.373 . S
C776 H789 0.929 . S
C777 C776 1.373 . S
C777 C778 1.396 . S
C777 C784 1.403 . S
C778 C768 1.476 . S
C778 N773 1.318 . S
C778 C777 1.396 . S
H779 C774 0.929 . S
O780 Mn756 2.385 . S
O780 C758 1.234 . S
O781 Mn756 2.209 . S
O781 Mn757 2.215 . S
O781 C758 1.283 . S
O782 Mn756 2.094 . S
O782 C760 1.240 . S
O783 Mn757 2.117 . S
O783 C760 1.264 . S
C784 C777 1.403 . S
C784 C785 1.399 . S
C784 H790 0.929 . S
C785 C765 1.449 . S
C785 C784 1.399 . S
C785 H791 0.930 . S
H786 C766 0.931 . S
H787 C767 0.930 . S
H788 C775 0.931 . S
H789 C776 0.929 . S
H790 C784 0.929 . S
H791 C785 0.930 . S
Mn792 O797 2.095 . S
Mn792 O807 2.162 . S
Mn792 O808 2.297 . S
Mn792 O816 2.385 . S
Mn792 O817 2.209 . S
Mn792 O818 2.094 . S
Mn793 O798 2.121 . S
Mn793 N800 2.257 . S
Mn793 N809 2.282 . S
Mn793 O817 2.215 . S
Mn793 O819 2.117 . S
C794 O816 1.234 . S
C794 O817 1.283 . S
C795 O807 1.281 . S
C795 O808 1.236 . S
C796 O818 1.240 . S
C796 O819 1.264 . S
O797 Mn792 2.095 . S
O797 C806 1.250 . S
O798 Mn793 2.121 . S
O798 C806 1.258 . S
C799 N800 1.326 . S
C799 C803 1.460 . S
C799 H805 0.929 . S
N800 Mn793 2.257 . S
N800 C799 1.326 . S
N800 C804 1.362 . S
C801 C802 1.258 . S
C801 C804 1.431 . S
C801 C821 1.449 . S
C802 C801 1.258 . S
C802 C803 1.477 . S
C802 H822 0.931 . S
C803 C799 1.460 . S
C803 C802 1.477 . S
C803 H823 0.930 . S
C804 N800 1.362 . S
C804 C801 1.431 . S
C804 C814 1.476 . S
H805 C799 0.929 . S
C806 O797 1.250 . S
C806 O798 1.258 . S
O807 Mn792 2.162 . S
O807 C795 1.281 . S
O808 Mn792 2.297 . S
O808 C795 1.236 . S
N809 Mn793 2.282 . S
N809 C810 1.328 . S
N809 C814 1.318 . S
C810 N809 1.328 . S
C810 C811 1.457 . S
C810 H815 0.929 . S
C811 C810 1.457 . S
C811 C812 1.291 . S
C811 H824 0.931 . S
C812 C811 1.291 . S
C812 C813 1.373 . S
C812 H825 0.929 . S
C813 C812 1.373 . S
C813 C814 1.396 . S
C813 C820 1.403 . S
C814 C804 1.476 . S
C814 N809 1.318 . S
C814 C813 1.396 . S
H815 C810 0.929 . S
O816 Mn792 2.385 . S
O816 C794 1.234 . S
O817 Mn792 2.209 . S
O817 Mn793 2.215 . S
O817 C794 1.283 . S
O818 Mn792 2.094 . S
O818 C796 1.240 . S
O819 Mn793 2.117 . S
O819 C796 1.264 . S
C820 C813 1.403 . S
C820 C821 1.399 . S
C820 H826 0.929 . S
C821 C801 1.449 . S
C821 C820 1.399 . S
C821 H827 0.930 . S
H822 C802 0.931 . S
H823 C803 0.930 . S
H824 C811 0.931 . S
H825 C812 0.929 . S
H826 C820 0.929 . S
H827 C821 0.930 . S
Mn828 O833 2.095 . S
Mn828 O843 2.162 . S
Mn828 O844 2.297 . S
Mn828 O852 2.385 . S
Mn828 O853 2.209 . S
Mn828 O854 2.094 . S
Mn829 O834 2.121 . S
Mn829 N836 2.257 . S
Mn829 N845 2.282 . S
Mn829 O853 2.215 . S
Mn829 O855 2.117 . S
C830 O852 1.234 . S
C830 O853 1.283 . S
C831 O843 1.281 . S
C831 O844 1.236 . S
C832 O854 1.240 . S
C832 O855 1.264 . S
O833 Mn828 2.095 . S
O833 C842 1.250 . S
O834 Mn829 2.121 . S
O834 C842 1.258 . S
C835 N836 1.326 . S
C835 C839 1.460 . S
C835 H841 0.929 . S
N836 Mn829 2.257 . S
N836 C835 1.326 . S
N836 C840 1.362 . S
C837 C838 1.258 . S
C837 C840 1.431 . S
C837 C857 1.449 . S
C838 C837 1.258 . S
C838 C839 1.477 . S
C838 H858 0.931 . S
C839 C835 1.460 . S
C839 C838 1.477 . S
C839 H859 0.930 . S
C840 N836 1.362 . S
C840 C837 1.431 . S
C840 C850 1.476 . S
H841 C835 0.929 . S
C842 O833 1.250 . S
C842 O834 1.258 . S
O843 Mn828 2.162 . S
O843 C831 1.281 . S
O844 Mn828 2.297 . S
O844 C831 1.236 . S
N845 Mn829 2.282 . S
N845 C846 1.328 . S
N845 C850 1.318 . S
C846 N845 1.328 . S
C846 C847 1.457 . S
C846 H851 0.929 . S
C847 C846 1.457 . S
C847 C848 1.291 . S
C847 H860 0.931 . S
C848 C847 1.291 . S
C848 C849 1.373 . S
C848 H861 0.929 . S
C849 C848 1.373 . S
C849 C850 1.396 . S
C849 C856 1.403 . S
C850 C840 1.476 . S
C850 N845 1.318 . S
C850 C849 1.396 . S
H851 C846 0.929 . S
O852 Mn828 2.385 . S
O852 C830 1.234 . S
O853 Mn828 2.209 . S
O853 Mn829 2.215 . S
O853 C830 1.283 . S
O854 Mn828 2.094 . S
O854 C832 1.240 . S
O855 Mn829 2.117 . S
O855 C832 1.264 . S
C856 C849 1.403 . S
C856 C857 1.399 . S
C856 H862 0.929 . S
C857 C837 1.449 . S
C857 C856 1.399 . S
C857 H863 0.930 . S
H858 C838 0.931 . S
H859 C839 0.930 . S
H860 C847 0.931 . S
H861 C848 0.929 . S
H862 C856 0.929 . S
H863 C857 0.930 . S
C864 C865 1.349 . S
C864 C866 1.327 . S
C864 H889 0.950 . S
C865 C864 1.349 . S
C865 C881 1.349 . S
C866 C864 1.327 . S
C866 C885 1.429 . S
C866 H890 0.950 . S
C867 C884 1.574 . S
C867 C886 1.368 . S
C867 H891 0.949 . S
H868 C872 0.949 . S
C869 C870 1.349 . S
C869 C871 1.327 . S
C869 H892 0.950 . S
C870 C869 1.349 . S
C870 C882 1.349 . S
C871 C869 1.327 . S
C871 C887 1.429 . S
C871 H893 0.950 . S
C872 H868 0.949 . S
C872 C880 1.574 . S
C872 C888 1.368 . S
H873 C881 0.950 . S
H874 C879 0.950 . S
H875 C880 0.949 . S
H876 C882 0.950 . S
H877 C883 0.950 . S
H878 C884 0.949 . S
C879 H874 0.950 . S
C879 C881 1.327 . S
C879 C885 1.429 . S
C880 C872 1.574 . S
C880 H875 0.949 . S
C880 C886 1.368 . S
C881 C865 1.349 . S
C881 H873 0.950 . S
C881 C879 1.327 . S
C882 C870 1.349 . S
C882 H876 0.950 . S
C882 C883 1.327 . S
C883 H877 0.950 . S
C883 C882 1.327 . S
C883 C887 1.429 . S
C884 C867 1.574 . S
C884 H878 0.949 . S
C884 C888 1.368 . S
C885 C866 1.429 . S
C885 C879 1.429 . S
C885 C886 1.523 . S
C886 C867 1.368 . S
C886 C880 1.368 . S
C886 C885 1.523 . S
C887 C871 1.429 . S
C887 C883 1.429 . S
C887 C888 1.523 . S
C888 C872 1.368 . S
C888 C884 1.368 . S
C888 C887 1.523 . S
H889 C864 0.950 . S
H890 C866 0.950 . S
H891 C867 0.949 . S
H892 C869 0.950 . S
H893 C871 0.950 . S
C894 C895 1.349 . S
C894 C896 1.327 . S
C894 H919 0.950 . S
C895 C894 1.349 . S
C895 C911 1.349 . S
C896 C894 1.327 . S
C896 C915 1.429 . S
C896 H920 0.950 . S
C897 C914 1.574 . S
C897 C916 1.368 . S
C897 H921 0.949 . S
H898 C902 0.949 . S
C899 C900 1.349 . S
C899 C901 1.327 . S
C899 H922 0.950 . S
C900 C899 1.349 . S
C900 C912 1.349 . S
C901 C899 1.327 . S
C901 C917 1.429 . S
C901 H923 0.950 . S
C902 H898 0.949 . S
C902 C910 1.574 . S
C902 C918 1.368 . S
H903 C911 0.950 . S
H904 C909 0.950 . S
H905 C910 0.949 . S
H906 C912 0.950 . S
H907 C913 0.950 . S
H908 C914 0.949 . S
C909 H904 0.950 . S
C909 C911 1.327 . S
C909 C915 1.429 . S
C910 C902 1.574 . S
C910 H905 0.949 . S
C910 C916 1.368 . S
C911 C895 1.349 . S
C911 H903 0.950 . S
C911 C909 1.327 . S
C912 C900 1.349 . S
C912 H906 0.950 . S
C912 C913 1.327 . S
C913 H907 0.950 . S
C913 C912 1.327 . S
C913 C917 1.429 . S
C914 C897 1.574 . S
C914 H908 0.949 . S
C914 C918 1.368 . S
C915 C896 1.429 . S
C915 C909 1.429 . S
C915 C916 1.523 . S
C916 C897 1.368 . S
C916 C910 1.368 . S
C916 C915 1.523 . S
C917 C901 1.429 . S
C917 C913 1.429 . S
C917 C918 1.523 . S
C918 C902 1.368 . S
C918 C914 1.368 . S
C918 C917 1.523 . S
H919 C894 0.950 . S
H920 C896 0.950 . S
H921 C897 0.949 . S
H922 C899 0.950 . S
H923 C901 0.950 . S
C924 C925 1.349 . S
C924 C926 1.327 . S
C924 H949 0.950 . S
C925 C924 1.349 . S
C925 C941 1.349 . S
C926 C924 1.327 . S
C926 C945 1.429 . S
C926 H950 0.950 . S
C927 C944 1.574 . S
C927 C946 1.368 . S
C927 H951 0.949 . S
H928 C932 0.949 . S
C929 C930 1.349 . S
C929 C931 1.327 . S
C929 H952 0.950 . S
C930 C929 1.349 . S
C930 C942 1.349 . S
C931 C929 1.327 . S
C931 C947 1.429 . S
C931 H953 0.950 . S
C932 H928 0.949 . S
C932 C940 1.574 . S
C932 C948 1.368 . S
H933 C941 0.950 . S
H934 C939 0.950 . S
H935 C940 0.949 . S
H936 C942 0.950 . S
H937 C943 0.950 . S
H938 C944 0.949 . S
C939 H934 0.950 . S
C939 C941 1.327 . S
C939 C945 1.429 . S
C940 C932 1.574 . S
C940 H935 0.949 . S
C940 C946 1.368 . S
C941 C925 1.349 . S
C941 H933 0.950 . S
C941 C939 1.327 . S
C942 C930 1.349 . S
C942 H936 0.950 . S
C942 C943 1.327 . S
C943 H937 0.950 . S
C943 C942 1.327 . S
C943 C947 1.429 . S
C944 C927 1.574 . S
C944 H938 0.949 . S
C944 C948 1.368 . S
C945 C926 1.429 . S
C945 C939 1.429 . S
C945 C946 1.523 . S
C946 C927 1.368 . S
C946 C940 1.368 . S
C946 C945 1.523 . S
C947 C931 1.429 . S
C947 C943 1.429 . S
C947 C948 1.523 . S
C948 C932 1.368 . S
C948 C944 1.368 . S
C948 C947 1.523 . S
H949 C924 0.950 . S
H950 C926 0.950 . S
H951 C927 0.949 . S
H952 C929 0.950 . S
H953 C931 0.950 . S
C954 C955 1.349 . S
C954 C956 1.327 . S
C954 H979 0.950 . S
C955 C954 1.349 . S
C955 C971 1.349 . S
C956 C954 1.327 . S
C956 C975 1.429 . S
C956 H980 0.950 . S
C957 C974 1.574 . S
C957 C976 1.368 . S
C957 H981 0.949 . S
H958 C962 0.949 . S
C959 C960 1.349 . S
C959 C961 1.327 . S
C959 H982 0.950 . S
C960 C959 1.349 . S
C960 C972 1.349 . S
C961 C959 1.327 . S
C961 C977 1.429 . S
C961 H983 0.950 . S
C962 H958 0.949 . S
C962 C970 1.574 . S
C962 C978 1.368 . S
H963 C971 0.950 . S
H964 C969 0.950 . S
H965 C970 0.949 . S
H966 C972 0.950 . S
H967 C973 0.950 . S
H968 C974 0.949 . S
C969 H964 0.950 . S
C969 C971 1.327 . S
C969 C975 1.429 . S
C970 C962 1.574 . S
C970 H965 0.949 . S
C970 C976 1.368 . S
C971 C955 1.349 . S
C971 H963 0.950 . S
C971 C969 1.327 . S
C972 C960 1.349 . S
C972 H966 0.950 . S
C972 C973 1.327 . S
C973 H967 0.950 . S
C973 C972 1.327 . S
C973 C977 1.429 . S
C974 C957 1.574 . S
C974 H968 0.949 . S
C974 C978 1.368 . S
C975 C956 1.429 . S
C975 C969 1.429 . S
C975 C976 1.523 . S
C976 C957 1.368 . S
C976 C970 1.368 . S
C976 C975 1.523 . S
C977 C961 1.429 . S
C977 C973 1.429 . S
C977 C978 1.523 . S
C978 C962 1.368 . S
C978 C974 1.368 . S
C978 C977 1.523 . S
H979 C954 0.950 . S
H980 C956 0.950 . S
H981 C957 0.949 . S
H982 C959 0.950 . S
H983 C961 0.950 . S
C984 C985 1.349 . S
C984 C986 1.327 . S
C984 H1009 0.950 . S
C985 C984 1.349 . S
C985 C1001 1.349 . S
C986 C984 1.327 . S
C986 C1005 1.429 . S
C986 H1010 0.950 . S
C987 C1004 1.574 . S
C987 C1006 1.368 . S
C987 H1011 0.949 . S
H988 C992 0.949 . S
C989 C990 1.349 . S
C989 C991 1.327 . S
C989 H1012 0.950 . S
C990 C989 1.349 . S
C990 C1002 1.349 . S
C991 C989 1.327 . S
C991 C1007 1.429 . S
C991 H1013 0.950 . S
C992 H988 0.949 . S
C992 C1000 1.574 . S
C992 C1008 1.368 . S
H993 C1001 0.950 . S
H994 C999 0.950 . S
H995 C1000 0.949 . S
H996 C1002 0.950 . S
H997 C1003 0.950 . S
H998 C1004 0.949 . S
C999 H994 0.950 . S
C999 C1001 1.327 . S
C999 C1005 1.429 . S
C1000 C992 1.574 . S
C1000 H995 0.949 . S
C1000 C1006 1.368 . S
C1001 C985 1.349 . S
C1001 H993 0.950 . S
C1001 C999 1.327 . S
C1002 C990 1.349 . S
C1002 H996 0.950 . S
C1002 C1003 1.327 . S
C1003 H997 0.950 . S
C1003 C1002 1.327 . S
C1003 C1007 1.429 . S
C1004 C987 1.574 . S
C1004 H998 0.949 . S
C1004 C1008 1.368 . S
C1005 C986 1.429 . S
C1005 C999 1.429 . S
C1005 C1006 1.523 . S
C1006 C987 1.368 . S
C1006 C1000 1.368 . S
C1006 C1005 1.523 . S
C1007 C991 1.429 . S
C1007 C1003 1.429 . S
C1007 C1008 1.523 . S
C1008 C992 1.368 . S
C1008 C1004 1.368 . S
C1008 C1007 1.523 . S
H1009 C984 0.950 . S
H1010 C986 0.950 . S
H1011 C987 0.949 . S
H1012 C989 0.950 . S
H1013 C991 0.950 . S
C1014 C1015 1.349 . S
C1014 C1016 1.327 . S
C1014 H1039 0.950 . S
C1015 C1014 1.349 . S
C1015 C1031 1.349 . S
C1016 C1014 1.327 . S
C1016 C1035 1.429 . S
C1016 H1040 0.950 . S
C1017 C1034 1.574 . S
C1017 C1036 1.368 . S
C1017 H1041 0.949 . S
H1018 C1022 0.949 . S
C1019 C1020 1.349 . S
C1019 C1021 1.327 . S
C1019 H1042 0.950 . S
C1020 C1019 1.349 . S
C1020 C1032 1.349 . S
C1021 C1019 1.327 . S
C1021 C1037 1.429 . S
C1021 H1043 0.950 . S
C1022 H1018 0.949 . S
C1022 C1030 1.574 . S
C1022 C1038 1.368 . S
H1023 C1031 0.950 . S
H1024 C1029 0.950 . S
H1025 C1030 0.949 . S
H1026 C1032 0.950 . S
H1027 C1033 0.950 . S
H1028 C1034 0.949 . S
C1029 H1024 0.950 . S
C1029 C1031 1.327 . S
C1029 C1035 1.429 . S
C1030 C1022 1.574 . S
C1030 H1025 0.949 . S
C1030 C1036 1.368 . S
C1031 C1015 1.349 . S
C1031 H1023 0.950 . S
C1031 C1029 1.327 . S
C1032 C1020 1.349 . S
C1032 H1026 0.950 . S
C1032 C1033 1.327 . S
C1033 H1027 0.950 . S
C1033 C1032 1.327 . S
C1033 C1037 1.429 . S
C1034 C1017 1.574 . S
C1034 H1028 0.949 . S
C1034 C1038 1.368 . S
C1035 C1016 1.429 . S
C1035 C1029 1.429 . S
C1035 C1036 1.523 . S
C1036 C1017 1.368 . S
C1036 C1030 1.368 . S
C1036 C1035 1.523 . S
C1037 C1021 1.429 . S
C1037 C1033 1.429 . S
C1037 C1038 1.523 . S
C1038 C1022 1.368 . S
C1038 C1034 1.368 . S
C1038 C1037 1.523 . S
H1039 C1014 0.950 . S
H1040 C1016 0.950 . S
H1041 C1017 0.949 . S
H1042 C1019 0.950 . S
H1043 C1021 0.950 . S
C1044 C1045 1.349 . S
C1044 C1046 1.327 . S
C1044 H1069 0.950 . S
C1045 C1044 1.349 . S
C1045 C1061 1.349 . S
C1046 C1044 1.327 . S
C1046 C1065 1.429 . S
C1046 H1070 0.950 . S
C1047 C1064 1.574 . S
C1047 C1066 1.368 . S
C1047 H1071 0.949 . S
H1048 C1052 0.949 . S
C1049 C1050 1.349 . S
C1049 C1051 1.327 . S
C1049 H1072 0.950 . S
C1050 C1049 1.349 . S
C1050 C1062 1.349 . S
C1051 C1049 1.327 . S
C1051 C1067 1.429 . S
C1051 H1073 0.950 . S
C1052 H1048 0.949 . S
C1052 C1060 1.574 . S
C1052 C1068 1.368 . S
H1053 C1061 0.950 . S
H1054 C1059 0.950 . S
H1055 C1060 0.949 . S
H1056 C1062 0.950 . S
H1057 C1063 0.950 . S
H1058 C1064 0.949 . S
C1059 H1054 0.950 . S
C1059 C1061 1.327 . S
C1059 C1065 1.429 . S
C1060 C1052 1.574 . S
C1060 H1055 0.949 . S
C1060 C1066 1.368 . S
C1061 C1045 1.349 . S
C1061 H1053 0.950 . S
C1061 C1059 1.327 . S
C1062 C1050 1.349 . S
C1062 H1056 0.950 . S
C1062 C1063 1.327 . S
C1063 H1057 0.950 . S
C1063 C1062 1.327 . S
C1063 C1067 1.429 . S
C1064 C1047 1.574 . S
C1064 H1058 0.949 . S
C1064 C1068 1.368 . S
C1065 C1046 1.429 . S
C1065 C1059 1.429 . S
C1065 C1066 1.523 . S
C1066 C1047 1.368 . S
C1066 C1060 1.368 . S
C1066 C1065 1.523 . S
C1067 C1051 1.429 . S
C1067 C1063 1.429 . S
C1067 C1068 1.523 . S
C1068 C1052 1.368 . S
C1068 C1064 1.368 . S
C1068 C1067 1.523 . S
H1069 C1044 0.950 . S
H1070 C1046 0.950 . S
H1071 C1047 0.949 . S
H1072 C1049 0.950 . S
H1073 C1051 0.950 . S
C1074 C1075 1.349 . S
C1074 C1076 1.327 . S
C1074 H1099 0.950 . S
C1075 C1074 1.349 . S
C1075 C1091 1.349 . S
C1076 C1074 1.327 . S
C1076 C1095 1.429 . S
C1076 H1100 0.950 . S
C1077 C1094 1.574 . S
C1077 C1096 1.368 . S
C1077 H1101 0.949 . S
H1078 C1082 0.949 . S
C1079 C1080 1.349 . S
C1079 C1081 1.327 . S
C1079 H1102 0.950 . S
C1080 C1079 1.349 . S
C1080 C1092 1.349 . S
C1081 C1079 1.327 . S
C1081 C1097 1.429 . S
C1081 H1103 0.950 . S
C1082 H1078 0.949 . S
C1082 C1090 1.574 . S
C1082 C1098 1.368 . S
H1083 C1091 0.950 . S
H1084 C1089 0.950 . S
H1085 C1090 0.949 . S
H1086 C1092 0.950 . S
H1087 C1093 0.950 . S
H1088 C1094 0.949 . S
C1089 H1084 0.950 . S
C1089 C1091 1.327 . S
C1089 C1095 1.429 . S
C1090 C1082 1.574 . S
C1090 H1085 0.949 . S
C1090 C1096 1.368 . S
C1091 C1075 1.349 . S
C1091 H1083 0.950 . S
C1091 C1089 1.327 . S
C1092 C1080 1.349 . S
C1092 H1086 0.950 . S
C1092 C1093 1.327 . S
C1093 H1087 0.950 . S
C1093 C1092 1.327 . S
C1093 C1097 1.429 . S
C1094 C1077 1.574 . S
C1094 H1088 0.949 . S
C1094 C1098 1.368 . S
C1095 C1076 1.429 . S
C1095 C1089 1.429 . S
C1095 C1096 1.523 . S
C1096 C1077 1.368 . S
C1096 C1090 1.368 . S
C1096 C1095 1.523 . S
C1097 C1081 1.429 . S
C1097 C1093 1.429 . S
C1097 C1098 1.523 . S
C1098 C1082 1.368 . S
C1098 C1094 1.368 . S
C1098 C1097 1.523 . S
H1099 C1074 0.950 . S
H1100 C1076 0.950 . S
H1101 C1077 0.949 . S
H1102 C1079 0.950 . S
H1103 C1081 0.950 . S
C1104 C1105 1.349 . S
C1104 C1106 1.327 . S
C1104 H1129 0.950 . S
C1105 C1104 1.349 . S
C1105 C1121 1.349 . S
C1106 C1104 1.327 . S
C1106 C1125 1.429 . S
C1106 H1130 0.950 . S
C1107 C1124 1.574 . S
C1107 C1126 1.368 . S
C1107 H1131 0.949 . S
H1108 C1112 0.949 . S
C1109 C1110 1.349 . S
C1109 C1111 1.327 . S
C1109 H1132 0.950 . S
C1110 C1109 1.349 . S
C1110 C1122 1.349 . S
C1111 C1109 1.327 . S
C1111 C1127 1.429 . S
C1111 H1133 0.950 . S
C1112 H1108 0.949 . S
C1112 C1120 1.574 . S
C1112 C1128 1.368 . S
H1113 C1121 0.950 . S
H1114 C1119 0.950 . S
H1115 C1120 0.949 . S
H1116 C1122 0.950 . S
H1117 C1123 0.950 . S
H1118 C1124 0.949 . S
C1119 H1114 0.950 . S
C1119 C1121 1.327 . S
C1119 C1125 1.429 . S
C1120 C1112 1.574 . S
C1120 H1115 0.949 . S
C1120 C1126 1.368 . S
C1121 C1105 1.349 . S
C1121 H1113 0.950 . S
C1121 C1119 1.327 . S
C1122 C1110 1.349 . S
C1122 H1116 0.950 . S
C1122 C1123 1.327 . S
C1123 H1117 0.950 . S
C1123 C1122 1.327 . S
C1123 C1127 1.429 . S
C1124 C1107 1.574 . S
C1124 H1118 0.949 . S
C1124 C1128 1.368 . S
C1125 C1106 1.429 . S
C1125 C1119 1.429 . S
C1125 C1126 1.523 . S
C1126 C1107 1.368 . S
C1126 C1120 1.368 . S
C1126 C1125 1.523 . S
C1127 C1111 1.429 . S
C1127 C1123 1.429 . S
C1127 C1128 1.523 . S
C1128 C1112 1.368 . S
C1128 C1124 1.368 . S
C1128 C1127 1.523 . S
H1129 C1104 0.950 . S
H1130 C1106 0.950 . S
H1131 C1107 0.949 . S
H1132 C1109 0.950 . S
H1133 C1111 0.950 . S
C1134 C1135 1.349 . S
C1134 C1136 1.327 . S
C1134 H1159 0.950 . S
C1135 C1134 1.349 . S
C1135 C1151 1.349 . S
C1136 C1134 1.327 . S
C1136 C1155 1.429 . S
C1136 H1160 0.950 . S
C1137 C1154 1.574 . S
C1137 C1156 1.368 . S
C1137 H1161 0.949 . S
H1138 C1142 0.949 . S
C1139 C1140 1.349 . S
C1139 C1141 1.327 . S
C1139 H1162 0.950 . S
C1140 C1139 1.349 . S
C1140 C1152 1.349 . S
C1141 C1139 1.327 . S
C1141 C1157 1.429 . S
C1141 H1163 0.950 . S
C1142 H1138 0.949 . S
C1142 C1150 1.574 . S
C1142 C1158 1.368 . S
H1143 C1151 0.950 . S
H1144 C1149 0.950 . S
H1145 C1150 0.949 . S
H1146 C1152 0.950 . S
H1147 C1153 0.950 . S
H1148 C1154 0.949 . S
C1149 H1144 0.950 . S
C1149 C1151 1.327 . S
C1149 C1155 1.429 . S
C1150 C1142 1.574 . S
C1150 H1145 0.949 . S
C1150 C1156 1.368 . S
C1151 C1135 1.349 . S
C1151 H1143 0.950 . S
C1151 C1149 1.327 . S
C1152 C1140 1.349 . S
C1152 H1146 0.950 . S
C1152 C1153 1.327 . S
C1153 H1147 0.950 . S
C1153 C1152 1.327 . S
C1153 C1157 1.429 . S
C1154 C1137 1.574 . S
C1154 H1148 0.949 . S
C1154 C1158 1.368 . S
C1155 C1136 1.429 . S
C1155 C1149 1.429 . S
C1155 C1156 1.523 . S
C1156 C1137 1.368 . S
C1156 C1150 1.368 . S
C1156 C1155 1.523 . S
C1157 C1141 1.429 . S
C1157 C1153 1.429 . S
C1157 C1158 1.523 . S
C1158 C1142 1.368 . S
C1158 C1154 1.368 . S
C1158 C1157 1.523 . S
H1159 C1134 0.950 . S
H1160 C1136 0.950 . S
H1161 C1137 0.949 . S
H1162 C1139 0.950 . S
H1163 C1141 0.950 . S
C1164 C1165 1.349 . S
C1164 C1166 1.327 . S
C1164 H1189 0.950 . S
C1165 C1164 1.349 . S
C1165 C1181 1.349 . S
C1166 C1164 1.327 . S
C1166 C1185 1.429 . S
C1166 H1190 0.950 . S
C1167 C1184 1.574 . S
C1167 C1186 1.368 . S
C1167 H1191 0.949 . S
H1168 C1172 0.949 . S
C1169 C1170 1.349 . S
C1169 C1171 1.327 . S
C1169 H1192 0.950 . S
C1170 C1169 1.349 . S
C1170 C1182 1.349 . S
C1171 C1169 1.327 . S
C1171 C1187 1.429 . S
C1171 H1193 0.950 . S
C1172 H1168 0.949 . S
C1172 C1180 1.574 . S
C1172 C1188 1.368 . S
H1173 C1181 0.950 . S
H1174 C1179 0.950 . S
H1175 C1180 0.949 . S
H1176 C1182 0.950 . S
H1177 C1183 0.950 . S
H1178 C1184 0.949 . S
C1179 H1174 0.950 . S
C1179 C1181 1.327 . S
C1179 C1185 1.429 . S
C1180 C1172 1.574 . S
C1180 H1175 0.949 . S
C1180 C1186 1.368 . S
C1181 C1165 1.349 . S
C1181 H1173 0.950 . S
C1181 C1179 1.327 . S
C1182 C1170 1.349 . S
C1182 H1176 0.950 . S
C1182 C1183 1.327 . S
C1183 H1177 0.950 . S
C1183 C1182 1.327 . S
C1183 C1187 1.429 . S
C1184 C1167 1.574 . S
C1184 H1178 0.949 . S
C1184 C1188 1.368 . S
C1185 C1166 1.429 . S
C1185 C1179 1.429 . S
C1185 C1186 1.523 . S
C1186 C1167 1.368 . S
C1186 C1180 1.368 . S
C1186 C1185 1.523 . S
C1187 C1171 1.429 . S
C1187 C1183 1.429 . S
C1187 C1188 1.523 . S
C1188 C1172 1.368 . S
C1188 C1184 1.368 . S
C1188 C1187 1.523 . S
H1189 C1164 0.950 . S
H1190 C1166 0.950 . S
H1191 C1167 0.949 . S
H1192 C1169 0.950 . S
H1193 C1171 0.950 . S
C1194 C1195 1.349 . S
C1194 C1196 1.327 . S
C1194 H1219 0.950 . S
C1195 C1194 1.349 . S
C1195 C1211 1.349 . S
C1196 C1194 1.327 . S
C1196 C1215 1.429 . S
C1196 H1220 0.950 . S
C1197 C1214 1.574 . S
C1197 C1216 1.368 . S
C1197 H1221 0.949 . S
H1198 C1202 0.949 . S
C1199 C1200 1.349 . S
C1199 C1201 1.327 . S
C1199 H1222 0.950 . S
C1200 C1199 1.349 . S
C1200 C1212 1.349 . S
C1201 C1199 1.327 . S
C1201 C1217 1.429 . S
C1201 H1223 0.950 . S
C1202 H1198 0.949 . S
C1202 C1210 1.574 . S
C1202 C1218 1.368 . S
H1203 C1211 0.950 . S
H1204 C1209 0.950 . S
H1205 C1210 0.949 . S
H1206 C1212 0.950 . S
H1207 C1213 0.950 . S
H1208 C1214 0.949 . S
C1209 H1204 0.950 . S
C1209 C1211 1.327 . S
C1209 C1215 1.429 . S
C1210 C1202 1.574 . S
C1210 H1205 0.949 . S
C1210 C1216 1.368 . S
C1211 C1195 1.349 . S
C1211 H1203 0.950 . S
C1211 C1209 1.327 . S
C1212 C1200 1.349 . S
C1212 H1206 0.950 . S
C1212 C1213 1.327 . S
C1213 H1207 0.950 . S
C1213 C1212 1.327 . S
C1213 C1217 1.429 . S
C1214 C1197 1.574 . S
C1214 H1208 0.949 . S
C1214 C1218 1.368 . S
C1215 C1196 1.429 . S
C1215 C1209 1.429 . S
C1215 C1216 1.523 . S
C1216 C1197 1.368 . S
C1216 C1210 1.368 . S
C1216 C1215 1.523 . S
C1217 C1201 1.429 . S
C1217 C1213 1.429 . S
C1217 C1218 1.523 . S
C1218 C1202 1.368 . S
C1218 C1214 1.368 . S
C1218 C1217 1.523 . S
H1219 C1194 0.950 . S
H1220 C1196 0.950 . S
H1221 C1197 0.949 . S
H1222 C1199 0.950 . S
H1223 C1201 0.950 . S
C1224 C1225 1.349 . S
C1224 C1226 1.327 . S
C1224 H1249 0.950 . S
C1225 C1224 1.349 . S
C1225 C1241 1.349 . S
C1226 C1224 1.327 . S
C1226 C1245 1.429 . S
C1226 H1250 0.950 . S
C1227 C1244 1.574 . S
C1227 C1246 1.368 . S
C1227 H1251 0.949 . S
H1228 C1232 0.949 . S
C1229 C1230 1.349 . S
C1229 C1231 1.327 . S
C1229 H1252 0.950 . S
C1230 C1229 1.349 . S
C1230 C1242 1.349 . S
C1231 C1229 1.327 . S
C1231 C1247 1.429 . S
C1231 H1253 0.950 . S
C1232 H1228 0.949 . S
C1232 C1240 1.574 . S
C1232 C1248 1.368 . S
H1233 C1241 0.950 . S
H1234 C1239 0.950 . S
H1235 C1240 0.949 . S
H1236 C1242 0.950 . S
H1237 C1243 0.950 . S
H1238 C1244 0.949 . S
C1239 H1234 0.950 . S
C1239 C1241 1.327 . S
C1239 C1245 1.429 . S
C1240 C1232 1.574 . S
C1240 H1235 0.949 . S
C1240 C1246 1.368 . S
C1241 C1225 1.349 . S
C1241 H1233 0.950 . S
C1241 C1239 1.327 . S
C1242 C1230 1.349 . S
C1242 H1236 0.950 . S
C1242 C1243 1.327 . S
C1243 H1237 0.950 . S
C1243 C1242 1.327 . S
C1243 C1247 1.429 . S
C1244 C1227 1.574 . S
C1244 H1238 0.949 . S
C1244 C1248 1.368 . S
C1245 C1226 1.429 . S
C1245 C1239 1.429 . S
C1245 C1246 1.523 . S
C1246 C1227 1.368 . S
C1246 C1240 1.368 . S
C1246 C1245 1.523 . S
C1247 C1231 1.429 . S
C1247 C1243 1.429 . S
C1247 C1248 1.523 . S
C1248 C1232 1.368 . S
C1248 C1244 1.368 . S
C1248 C1247 1.523 . S
H1249 C1224 0.950 . S
H1250 C1226 0.950 . S
H1251 C1227 0.949 . S
H1252 C1229 0.950 . S
H1253 C1231 0.950 . S
C1254 C1255 1.349 . S
C1254 C1256 1.327 . S
C1254 H1279 0.950 . S
C1255 C1254 1.349 . S
C1255 C1271 1.349 . S
C1256 C1254 1.327 . S
C1256 C1275 1.429 . S
C1256 H1280 0.950 . S
C1257 C1274 1.574 . S
C1257 C1276 1.368 . S
C1257 H1281 0.949 . S
H1258 C1262 0.949 . S
C1259 C1260 1.349 . S
C1259 C1261 1.327 . S
C1259 H1282 0.950 . S
C1260 C1259 1.349 . S
C1260 C1272 1.349 . S
C1261 C1259 1.327 . S
C1261 C1277 1.429 . S
C1261 H1283 0.950 . S
C1262 H1258 0.949 . S
C1262 C1270 1.574 . S
C1262 C1278 1.368 . S
H1263 C1271 0.950 . S
H1264 C1269 0.950 . S
H1265 C1270 0.949 . S
H1266 C1272 0.950 . S
H1267 C1273 0.950 . S
H1268 C1274 0.949 . S
C1269 H1264 0.950 . S
C1269 C1271 1.327 . S
C1269 C1275 1.429 . S
C1270 C1262 1.574 . S
C1270 H1265 0.949 . S
C1270 C1276 1.368 . S
C1271 C1255 1.349 . S
C1271 H1263 0.950 . S
C1271 C1269 1.327 . S
C1272 C1260 1.349 . S
C1272 H1266 0.950 . S
C1272 C1273 1.327 . S
C1273 H1267 0.950 . S
C1273 C1272 1.327 . S
C1273 C1277 1.429 . S
C1274 C1257 1.574 . S
C1274 H1268 0.949 . S
C1274 C1278 1.368 . S
C1275 C1256 1.429 . S
C1275 C1269 1.429 . S
C1275 C1276 1.523 . S
C1276 C1257 1.368 . S
C1276 C1270 1.368 . S
C1276 C1275 1.523 . S
C1277 C1261 1.429 . S
C1277 C1273 1.429 . S
C1277 C1278 1.523 . S
C1278 C1262 1.368 . S
C1278 C1274 1.368 . S
C1278 C1277 1.523 . S
H1279 C1254 0.950 . S
H1280 C1256 0.950 . S
H1281 C1257 0.949 . S
H1282 C1259 0.950 . S
H1283 C1261 0.950 . S
C1284 C1285 1.349 . S
C1284 C1286 1.327 . S
C1284 H1309 0.950 . S
C1285 C1284 1.349 . S
C1285 C1301 1.349 . S
C1286 C1284 1.327 . S
C1286 C1305 1.429 . S
C1286 H1310 0.950 . S
C1287 C1304 1.574 . S
C1287 C1306 1.368 . S
C1287 H1311 0.949 . S
H1288 C1292 0.949 . S
C1289 C1290 1.349 . S
C1289 C1291 1.327 . S
C1289 H1312 0.950 . S
C1290 C1289 1.349 . S
C1290 C1302 1.349 . S
C1291 C1289 1.327 . S
C1291 C1307 1.429 . S
C1291 H1313 0.950 . S
C1292 H1288 0.949 . S
C1292 C1300 1.574 . S
C1292 C1308 1.368 . S
H1293 C1301 0.950 . S
H1294 C1299 0.950 . S
H1295 C1300 0.949 . S
H1296 C1302 0.950 . S
H1297 C1303 0.950 . S
H1298 C1304 0.949 . S
C1299 H1294 0.950 . S
C1299 C1301 1.327 . S
C1299 C1305 1.429 . S
C1300 C1292 1.574 . S
C1300 H1295 0.949 . S
C1300 C1306 1.368 . S
C1301 C1285 1.349 . S
C1301 H1293 0.950 . S
C1301 C1299 1.327 . S
C1302 C1290 1.349 . S
C1302 H1296 0.950 . S
C1302 C1303 1.327 . S
C1303 H1297 0.950 . S
C1303 C1302 1.327 . S
C1303 C1307 1.429 . S
C1304 C1287 1.574 . S
C1304 H1298 0.949 . S
C1304 C1308 1.368 . S
C1305 C1286 1.429 . S
C1305 C1299 1.429 . S
C1305 C1306 1.523 . S
C1306 C1287 1.368 . S
C1306 C1300 1.368 . S
C1306 C1305 1.523 . S
C1307 C1291 1.429 . S
C1307 C1303 1.429 . S
C1307 C1308 1.523 . S
C1308 C1292 1.368 . S
C1308 C1304 1.368 . S
C1308 C1307 1.523 . S
H1309 C1284 0.950 . S
H1310 C1286 0.950 . S
H1311 C1287 0.949 . S
H1312 C1289 0.950 . S
H1313 C1291 0.950 . S
C1314 C1315 1.349 . S
C1314 C1316 1.327 . S
C1314 H1339 0.950 . S
C1315 C1314 1.349 . S
C1315 C1331 1.349 . S
C1316 C1314 1.327 . S
C1316 C1335 1.429 . S
C1316 H1340 0.950 . S
C1317 C1334 1.574 . S
C1317 C1336 1.368 . S
C1317 H1341 0.949 . S
H1318 C1322 0.949 . S
C1319 C1320 1.349 . S
C1319 C1321 1.327 . S
C1319 H1342 0.950 . S
C1320 C1319 1.349 . S
C1320 C1332 1.349 . S
C1321 C1319 1.327 . S
C1321 C1337 1.429 . S
C1321 H1343 0.950 . S
C1322 H1318 0.949 . S
C1322 C1330 1.574 . S
C1322 C1338 1.368 . S
H1323 C1331 0.950 . S
H1324 C1329 0.950 . S
H1325 C1330 0.949 . S
H1326 C1332 0.950 . S
H1327 C1333 0.950 . S
H1328 C1334 0.949 . S
C1329 H1324 0.950 . S
C1329 C1331 1.327 . S
C1329 C1335 1.429 . S
C1330 C1322 1.574 . S
C1330 H1325 0.949 . S
C1330 C1336 1.368 . S
C1331 C1315 1.349 . S
C1331 H1323 0.950 . S
C1331 C1329 1.327 . S
C1332 C1320 1.349 . S
C1332 H1326 0.950 . S
C1332 C1333 1.327 . S
C1333 H1327 0.950 . S
C1333 C1332 1.327 . S
C1333 C1337 1.429 . S
C1334 C1317 1.574 . S
C1334 H1328 0.949 . S
C1334 C1338 1.368 . S
C1335 C1316 1.429 . S
C1335 C1329 1.429 . S
C1335 C1336 1.523 . S
C1336 C1317 1.368 . S
C1336 C1330 1.368 . S
C1336 C1335 1.523 . S
C1337 C1321 1.429 . S
C1337 C1333 1.429 . S
C1337 C1338 1.523 . S
C1338 C1322 1.368 . S
C1338 C1334 1.368 . S
C1338 C1337 1.523 . S
H1339 C1314 0.950 . S
H1340 C1316 0.950 . S
H1341 C1317 0.949 . S
H1342 C1319 0.950 . S
H1343 C1321 0.950 . S
C1344 C1345 1.349 . S
C1344 C1346 1.327 . S
C1344 H1369 0.950 . S
C1345 C1344 1.349 . S
C1345 C1361 1.349 . S
C1346 C1344 1.327 . S
C1346 C1365 1.429 . S
C1346 H1370 0.950 . S
C1347 C1364 1.574 . S
C1347 C1366 1.368 . S
C1347 H1371 0.949 . S
H1348 C1352 0.949 . S
C1349 C1350 1.349 . S
C1349 C1351 1.327 . S
C1349 H1372 0.950 . S
C1350 C1349 1.349 . S
C1350 C1362 1.349 . S
C1351 C1349 1.327 . S
C1351 C1367 1.429 . S
C1351 H1373 0.950 . S
C1352 H1348 0.949 . S
C1352 C1360 1.574 . S
C1352 C1368 1.368 . S
H1353 C1361 0.950 . S
H1354 C1359 0.950 . S
H1355 C1360 0.949 . S
H1356 C1362 0.950 . S
H1357 C1363 0.950 . S
H1358 C1364 0.949 . S
C1359 H1354 0.950 . S
C1359 C1361 1.327 . S
C1359 C1365 1.429 . S
C1360 C1352 1.574 . S
C1360 H1355 0.949 . S
C1360 C1366 1.368 . S
C1361 C1345 1.349 . S
C1361 H1353 0.950 . S
C1361 C1359 1.327 . S
C1362 C1350 1.349 . S
C1362 H1356 0.950 . S
C1362 C1363 1.327 . S
C1363 H1357 0.950 . S
C1363 C1362 1.327 . S
C1363 C1367 1.429 . S
C1364 C1347 1.574 . S
C1364 H1358 0.949 . S
C1364 C1368 1.368 . S
C1365 C1346 1.429 . S
C1365 C1359 1.429 . S
C1365 C1366 1.523 . S
C1366 C1347 1.368 . S
C1366 C1360 1.368 . S
C1366 C1365 1.523 . S
C1367 C1351 1.429 . S
C1367 C1363 1.429 . S
C1367 C1368 1.523 . S
C1368 C1352 1.368 . S
C1368 C1364 1.368 . S
C1368 C1367 1.523 . S
H1369 C1344 0.950 . S
H1370 C1346 0.950 . S
H1371 C1347 0.949 . S
H1372 C1349 0.950 . S
H1373 C1351 0.950 . S
C1374 C1375 1.349 . S
C1374 C1376 1.327 . S
C1374 H1399 0.950 . S
C1375 C1374 1.349 . S
C1375 C1391 1.349 . S
C1376 C1374 1.327 . S
C1376 C1395 1.429 . S
C1376 H1400 0.950 . S
C1377 C1394 1.574 . S
C1377 C1396 1.368 . S
C1377 H1401 0.949 . S
H1378 C1382 0.949 . S
C1379 C1380 1.349 . S
C1379 C1381 1.327 . S
C1379 H1402 0.950 . S
C1380 C1379 1.349 . S
C1380 C1392 1.349 . S
C1381 C1379 1.327 . S
C1381 C1397 1.429 . S
C1381 H1403 0.950 . S
C1382 H1378 0.949 . S
C1382 C1390 1.574 . S
C1382 C1398 1.368 . S
H1383 C1391 0.950 . S
H1384 C1389 0.950 . S
H1385 C1390 0.949 . S
H1386 C1392 0.950 . S
H1387 C1393 0.950 . S
H1388 C1394 0.949 . S
C1389 H1384 0.950 . S
C1389 C1391 1.327 . S
C1389 C1395 1.429 . S
C1390 C1382 1.574 . S
C1390 H1385 0.949 . S
C1390 C1396 1.368 . S
C1391 C1375 1.349 . S
C1391 H1383 0.950 . S
C1391 C1389 1.327 . S
C1392 C1380 1.349 . S
C1392 H1386 0.950 . S
C1392 C1393 1.327 . S
C1393 H1387 0.950 . S
C1393 C1392 1.327 . S
C1393 C1397 1.429 . S
C1394 C1377 1.574 . S
C1394 H1388 0.949 . S
C1394 C1398 1.368 . S
C1395 C1376 1.429 . S
C1395 C1389 1.429 . S
C1395 C1396 1.523 . S
C1396 C1377 1.368 . S
C1396 C1390 1.368 . S
C1396 C1395 1.523 . S
C1397 C1381 1.429 . S
C1397 C1393 1.429 . S
C1397 C1398 1.523 . S
C1398 C1382 1.368 . S
C1398 C1394 1.368 . S
C1398 C1397 1.523 . S
H1399 C1374 0.950 . S
H1400 C1376 0.950 . S
H1401 C1377 0.949 . S
H1402 C1379 0.950 . S
H1403 C1381 0.950 . S
C1404 C1405 1.349 . S
C1404 C1406 1.327 . S
C1404 H1429 0.950 . S
C1405 C1404 1.349 . S
C1405 C1421 1.349 . S
C1406 C1404 1.327 . S
C1406 C1425 1.429 . S
C1406 H1430 0.950 . S
C1407 C1424 1.574 . S
C1407 C1426 1.368 . S
C1407 H1431 0.949 . S
H1408 C1412 0.949 . S
C1409 C1410 1.349 . S
C1409 C1411 1.327 . S
C1409 H1432 0.950 . S
C1410 C1409 1.349 . S
C1410 C1422 1.349 . S
C1411 C1409 1.327 . S
C1411 C1427 1.429 . S
C1411 H1433 0.950 . S
C1412 H1408 0.949 . S
C1412 C1420 1.574 . S
C1412 C1428 1.368 . S
H1413 C1421 0.950 . S
H1414 C1419 0.950 . S
H1415 C1420 0.949 . S
H1416 C1422 0.950 . S
H1417 C1423 0.950 . S
H1418 C1424 0.949 . S
C1419 H1414 0.950 . S
C1419 C1421 1.327 . S
C1419 C1425 1.429 . S
C1420 C1412 1.574 . S
C1420 H1415 0.949 . S
C1420 C1426 1.368 . S
C1421 C1405 1.349 . S
C1421 H1413 0.950 . S
C1421 C1419 1.327 . S
C1422 C1410 1.349 . S
C1422 H1416 0.950 . S
C1422 C1423 1.327 . S
C1423 H1417 0.950 . S
C1423 C1422 1.327 . S
C1423 C1427 1.429 . S
C1424 C1407 1.574 . S
C1424 H1418 0.949 . S
C1424 C1428 1.368 . S
C1425 C1406 1.429 . S
C1425 C1419 1.429 . S
C1425 C1426 1.523 . S
C1426 C1407 1.368 . S
C1426 C1420 1.368 . S
C1426 C1425 1.523 . S
C1427 C1411 1.429 . S
C1427 C1423 1.429 . S
C1427 C1428 1.523 . S
C1428 C1412 1.368 . S
C1428 C1424 1.368 . S
C1428 C1427 1.523 . S
H1429 C1404 0.950 . S
H1430 C1406 0.950 . S
H1431 C1407 0.949 . S
H1432 C1409 0.950 . S
H1433 C1411 0.950 . S
C1434 C1435 1.349 . S
C1434 C1436 1.327 . S
C1434 H1459 0.950 . S
C1435 C1434 1.349 . S
C1435 C1451 1.349 . S
C1436 C1434 1.327 . S
C1436 C1455 1.429 . S
C1436 H1460 0.950 . S
C1437 C1454 1.574 . S
C1437 C1456 1.368 . S
C1437 H1461 0.949 . S
H1438 C1442 0.949 . S
C1439 C1440 1.349 . S
C1439 C1441 1.327 . S
C1439 H1462 0.950 . S
C1440 C1439 1.349 . S
C1440 C1452 1.349 . S
C1441 C1439 1.327 . S
C1441 C1457 1.429 . S
C1441 H1463 0.950 . S
C1442 H1438 0.949 . S
C1442 C1450 1.574 . S
C1442 C1458 1.368 . S
H1443 C1451 0.950 . S
H1444 C1449 0.950 . S
H1445 C1450 0.949 . S
H1446 C1452 0.950 . S
H1447 C1453 0.950 . S
H1448 C1454 0.949 . S
C1449 H1444 0.950 . S
C1449 C1451 1.327 . S
C1449 C1455 1.429 . S
C1450 C1442 1.574 . S
C1450 H1445 0.949 . S
C1450 C1456 1.368 . S
C1451 C1435 1.349 . S
C1451 H1443 0.950 . S
C1451 C1449 1.327 . S
C1452 C1440 1.349 . S
C1452 H1446 0.950 . S
C1452 C1453 1.327 . S
C1453 H1447 0.950 . S
C1453 C1452 1.327 . S
C1453 C1457 1.429 . S
C1454 C1437 1.574 . S
C1454 H1448 0.949 . S
C1454 C1458 1.368 . S
C1455 C1436 1.429 . S
C1455 C1449 1.429 . S
C1455 C1456 1.523 . S
C1456 C1437 1.368 . S
C1456 C1450 1.368 . S
C1456 C1455 1.523 . S
C1457 C1441 1.429 . S
C1457 C1453 1.429 . S
C1457 C1458 1.523 . S
C1458 C1442 1.368 . S
C1458 C1454 1.368 . S
C1458 C1457 1.523 . S
H1459 C1434 0.950 . S
H1460 C1436 0.950 . S
H1461 C1437 0.949 . S
H1462 C1439 0.950 . S
H1463 C1441 0.950 . S
C1464 C1465 1.349 . S
C1464 C1466 1.327 . S
C1464 H1489 0.950 . S
C1465 C1464 1.349 . S
C1465 C1481 1.349 . S
C1466 C1464 1.327 . S
C1466 C1485 1.429 . S
C1466 H1490 0.950 . S
C1467 C1484 1.574 . S
C1467 C1486 1.368 . S
C1467 H1491 0.949 . S
H1468 C1472 0.949 . S
C1469 C1470 1.349 . S
C1469 C1471 1.327 . S
C1469 H1492 0.950 . S
C1470 C1469 1.349 . S
C1470 C1482 1.349 . S
C1471 C1469 1.327 . S
C1471 C1487 1.429 . S
C1471 H1493 0.950 . S
C1472 H1468 0.949 . S
C1472 C1480 1.574 . S
C1472 C1488 1.368 . S
H1473 C1481 0.950 . S
H1474 C1479 0.950 . S
H1475 C1480 0.949 . S
H1476 C1482 0.950 . S
H1477 C1483 0.950 . S
H1478 C1484 0.949 . S
C1479 H1474 0.950 . S
C1479 C1481 1.327 . S
C1479 C1485 1.429 . S
C1480 C1472 1.574 . S
C1480 H1475 0.949 . S
C1480 C1486 1.368 . S
C1481 C1465 1.349 . S
C1481 H1473 0.950 . S
C1481 C1479 1.327 . S
C1482 C1470 1.349 . S
C1482 H1476 0.950 . S
C1482 C1483 1.327 . S
C1483 H1477 0.950 . S
C1483 C1482 1.327 . S
C1483 C1487 1.429 . S
C1484 C1467 1.574 . S
C1484 H1478 0.949 . S
C1484 C1488 1.368 . S
C1485 C1466 1.429 . S
C1485 C1479 1.429 . S
C1485 C1486 1.523 . S
C1486 C1467 1.368 . S
C1486 C1480 1.368 . S
C1486 C1485 1.523 . S
C1487 C1471 1.429 . S
C1487 C1483 1.429 . S
C1487 C1488 1.523 . S
C1488 C1472 1.368 . S
C1488 C1484 1.368 . S
C1488 C1487 1.523 . S
H1489 C1464 0.950 . S
H1490 C1466 0.950 . S
H1491 C1467 0.949 . S
H1492 C1469 0.950 . S
H1493 C1471 0.950 . S
C1494 C1495 1.349 . S
C1494 C1496 1.327 . S
C1494 H1519 0.950 . S
C1495 C1494 1.349 . S
C1495 C1511 1.349 . S
C1496 C1494 1.327 . S
C1496 C1515 1.429 . S
C1496 H1520 0.950 . S
C1497 C1514 1.574 . S
C1497 C1516 1.368 . S
C1497 H1521 0.949 . S
H1498 C1502 0.949 . S
C1499 C1500 1.349 . S
C1499 C1501 1.327 . S
C1499 H1522 0.950 . S
C1500 C1499 1.349 . S
C1500 C1512 1.349 . S
C1501 C1499 1.327 . S
C1501 C1517 1.429 . S
C1501 H1523 0.950 . S
C1502 H1498 0.949 . S
C1502 C1510 1.574 . S
C1502 C1518 1.368 . S
H1503 C1511 0.950 . S
H1504 C1509 0.950 . S
H1505 C1510 0.949 . S
H1506 C1512 0.950 . S
H1507 C1513 0.950 . S
H1508 C1514 0.949 . S
C1509 H1504 0.950 . S
C1509 C1511 1.327 . S
C1509 C1515 1.429 . S
C1510 C1502 1.574 . S
C1510 H1505 0.949 . S
C1510 C1516 1.368 . S
C1511 C1495 1.349 . S
C1511 H1503 0.950 . S
C1511 C1509 1.327 . S
C1512 C1500 1.349 . S
C1512 H1506 0.950 . S
C1512 C1513 1.327 . S
C1513 H1507 0.950 . S
C1513 C1512 1.327 . S
C1513 C1517 1.429 . S
C1514 C1497 1.574 . S
C1514 H1508 0.949 . S
C1514 C1518 1.368 . S
C1515 C1496 1.429 . S
C1515 C1509 1.429 . S
C1515 C1516 1.523 . S
C1516 C1497 1.368 . S
C1516 C1510 1.368 . S
C1516 C1515 1.523 . S
C1517 C1501 1.429 . S
C1517 C1513 1.429 . S
C1517 C1518 1.523 . S
C1518 C1502 1.368 . S
C1518 C1514 1.368 . S
C1518 C1517 1.523 . S
H1519 C1494 0.950 . S
H1520 C1496 0.950 . S
H1521 C1497 0.949 . S
H1522 C1499 0.950 . S
H1523 C1501 0.950 . S
C1524 C1525 1.349 . S
C1524 C1526 1.327 . S
C1524 H1549 0.950 . S
C1525 C1524 1.349 . S
C1525 C1541 1.349 . S
C1526 C1524 1.327 . S
C1526 C1545 1.429 . S
C1526 H1550 0.950 . S
C1527 C1544 1.574 . S
C1527 C1546 1.368 . S
C1527 H1551 0.949 . S
H1528 C1532 0.949 . S
C1529 C1530 1.349 . S
C1529 C1531 1.327 . S
C1529 H1552 0.950 . S
C1530 C1529 1.349 . S
C1530 C1542 1.349 . S
C1531 C1529 1.327 . S
C1531 C1547 1.429 . S
C1531 H1553 0.950 . S
C1532 H1528 0.949 . S
C1532 C1540 1.574 . S
C1532 C1548 1.368 . S
H1533 C1541 0.950 . S
H1534 C1539 0.950 . S
H1535 C1540 0.949 . S
H1536 C1542 0.950 . S
H1537 C1543 0.950 . S
H1538 C1544 0.949 . S
C1539 H1534 0.950 . S
C1539 C1541 1.327 . S
C1539 C1545 1.429 . S
C1540 C1532 1.574 . S
C1540 H1535 0.949 . S
C1540 C1546 1.368 . S
C1541 C1525 1.349 . S
C1541 H1533 0.950 . S
C1541 C1539 1.327 . S
C1542 C1530 1.349 . S
C1542 H1536 0.950 . S
C1542 C1543 1.327 . S
C1543 H1537 0.950 . S
C1543 C1542 1.327 . S
C1543 C1547 1.429 . S
C1544 C1527 1.574 . S
C1544 H1538 0.949 . S
C1544 C1548 1.368 . S
C1545 C1526 1.429 . S
C1545 C1539 1.429 . S
C1545 C1546 1.523 . S
C1546 C1527 1.368 . S
C1546 C1540 1.368 . S
C1546 C1545 1.523 . S
C1547 C1531 1.429 . S
C1547 C1543 1.429 . S
C1547 C1548 1.523 . S
C1548 C1532 1.368 . S
C1548 C1544 1.368 . S
C1548 C1547 1.523 . S
H1549 C1524 0.950 . S
H1550 C1526 0.950 . S
H1551 C1527 0.949 . S
H1552 C1529 0.950 . S
H1553 C1531 0.950 . S
C1554 C1555 1.349 . S
C1554 C1556 1.327 . S
C1554 H1579 0.950 . S
C1555 C1554 1.349 . S
C1555 C1571 1.349 . S
C1556 C1554 1.327 . S
C1556 C1575 1.429 . S
C1556 H1580 0.950 . S
C1557 C1574 1.574 . S
C1557 C1576 1.368 . S
C1557 H1581 0.949 . S
H1558 C1562 0.949 . S
C1559 C1560 1.349 . S
C1559 C1561 1.327 . S
C1559 H1582 0.950 . S
C1560 C1559 1.349 . S
C1560 C1572 1.349 . S
C1561 C1559 1.327 . S
C1561 C1577 1.429 . S
C1561 H1583 0.950 . S
C1562 H1558 0.949 . S
C1562 C1570 1.574 . S
C1562 C1578 1.368 . S
H1563 C1571 0.950 . S
H1564 C1569 0.950 . S
H1565 C1570 0.949 . S
H1566 C1572 0.950 . S
H1567 C1573 0.950 . S
H1568 C1574 0.949 . S
C1569 H1564 0.950 . S
C1569 C1571 1.327 . S
C1569 C1575 1.429 . S
C1570 C1562 1.574 . S
C1570 H1565 0.949 . S
C1570 C1576 1.368 . S
C1571 C1555 1.349 . S
C1571 H1563 0.950 . S
C1571 C1569 1.327 . S
C1572 C1560 1.349 . S
C1572 H1566 0.950 . S
C1572 C1573 1.327 . S
C1573 H1567 0.950 . S
C1573 C1572 1.327 . S
C1573 C1577 1.429 . S
C1574 C1557 1.574 . S
C1574 H1568 0.949 . S
C1574 C1578 1.368 . S
C1575 C1556 1.429 . S
C1575 C1569 1.429 . S
C1575 C1576 1.523 . S
C1576 C1557 1.368 . S
C1576 C1570 1.368 . S
C1576 C1575 1.523 . S
C1577 C1561 1.429 . S
C1577 C1573 1.429 . S
C1577 C1578 1.523 . S
C1578 C1562 1.368 . S
C1578 C1574 1.368 . S
C1578 C1577 1.523 . S
H1579 C1554 0.950 . S
H1580 C1556 0.950 . S
H1581 C1557 0.949 . S
H1582 C1559 0.950 . S
H1583 C1561 0.950 . S
C1584 C1585 1.349 . S
C1584 C1586 1.327 . S
C1584 H1609 0.950 . S
C1585 C1584 1.349 . S
C1585 C1601 1.349 . S
C1586 C1584 1.327 . S
C1586 C1605 1.429 . S
C1586 H1610 0.950 . S
C1587 C1604 1.574 1_455 S
C1587 C1606 1.368 . S
C1587 H1611 0.949 . S
H1588 C1592 0.949 . S
C1589 C1590 1.349 . S
C1589 C1591 1.327 . S
C1589 H1612 0.950 . S
C1590 C1589 1.349 . S
C1590 C1602 1.349 . S
C1591 C1589 1.327 . S
C1591 C1607 1.429 . S
C1591 H1613 0.950 . S
C1592 H1588 0.949 . S
C1592 C1600 1.574 1_655 S
C1592 C1608 1.368 . S
H1593 C1601 0.950 . S
H1594 C1599 0.950 . S
H1595 C1600 0.949 . S
H1596 C1602 0.950 . S
H1597 C1603 0.950 . S
H1598 C1604 0.949 . S
C1599 H1594 0.950 . S
C1599 C1601 1.327 . S
C1599 C1605 1.429 . S
C1600 C1592 1.574 1_455 S
C1600 H1595 0.949 . S
C1600 C1606 1.368 . S
C1601 C1585 1.349 . S
C1601 H1593 0.950 . S
C1601 C1599 1.327 . S
C1602 C1590 1.349 . S
C1602 H1596 0.950 . S
C1602 C1603 1.327 . S
C1603 H1597 0.950 . S
C1603 C1602 1.327 . S
C1603 C1607 1.429 . S
C1604 C1587 1.574 1_655 S
C1604 H1598 0.949 . S
C1604 C1608 1.368 . S
C1605 C1586 1.429 . S
C1605 C1599 1.429 . S
C1605 C1606 1.523 . S
C1606 C1587 1.368 . S
C1606 C1600 1.368 . S
C1606 C1605 1.523 . S
C1607 C1591 1.429 . S
C1607 C1603 1.429 . S
C1607 C1608 1.523 . S
C1608 C1592 1.368 . S
C1608 C1604 1.368 . S
C1608 C1607 1.523 . S
H1609 C1584 0.950 . S
H1610 C1586 0.950 . S
H1611 C1587 0.949 . S
H1612 C1589 0.950 . S
H1613 C1591 0.950 . S
C1614 C1615 1.349 . S
C1614 C1616 1.327 . S
C1614 H1639 0.950 . S
C1615 C1614 1.349 . S
C1615 C1631 1.349 . S
C1616 C1614 1.327 . S
C1616 C1635 1.429 . S
C1616 H1640 0.950 . S
C1617 C1634 1.574 1_545 S
C1617 C1636 1.368 . S
C1617 H1641 0.949 . S
H1618 C1622 0.949 . S
C1619 C1620 1.349 . S
C1619 C1621 1.327 . S
C1619 H1642 0.950 . S
C1620 C1619 1.349 . S
C1620 C1632 1.349 . S
C1621 C1619 1.327 . S
C1621 C1637 1.429 . S
C1621 H1643 0.950 . S
C1622 H1618 0.949 . S
C1622 C1630 1.574 1_565 S
C1622 C1638 1.368 . S
H1623 C1631 0.950 . S
H1624 C1629 0.950 . S
H1625 C1630 0.949 . S
H1626 C1632 0.950 . S
H1627 C1633 0.950 . S
H1628 C1634 0.949 . S
C1629 H1624 0.950 . S
C1629 C1631 1.327 . S
C1629 C1635 1.429 . S
C1630 C1622 1.574 1_545 S
C1630 H1625 0.949 . S
C1630 C1636 1.368 . S
C1631 C1615 1.349 . S
C1631 H1623 0.950 . S
C1631 C1629 1.327 . S
C1632 C1620 1.349 . S
C1632 H1626 0.950 . S
C1632 C1633 1.327 . S
C1633 H1627 0.950 . S
C1633 C1632 1.327 . S
C1633 C1637 1.429 . S
C1634 C1617 1.574 1_565 S
C1634 H1628 0.949 . S
C1634 C1638 1.368 . S
C1635 C1616 1.429 . S
C1635 C1629 1.429 . S
C1635 C1636 1.523 . S
C1636 C1617 1.368 . S
C1636 C1630 1.368 . S
C1636 C1635 1.523 . S
C1637 C1621 1.429 . S
C1637 C1633 1.429 . S
C1637 C1638 1.523 . S
C1638 C1622 1.368 . S
C1638 C1634 1.368 . S
C1638 C1637 1.523 . S
H1639 C1614 0.950 . S
H1640 C1616 0.950 . S
H1641 C1617 0.949 . S
H1642 C1619 0.950 . S
H1643 C1621 0.950 . S
C1644 C1645 1.349 . S
C1644 C1646 1.327 . S
C1644 H1669 0.950 . S
C1645 C1644 1.349 . S
C1645 C1661 1.349 . S
C1646 C1644 1.327 . S
C1646 C1665 1.429 . S
C1646 H1670 0.950 . S
C1647 C1664 1.574 1_655 S
C1647 C1666 1.368 . S
C1647 H1671 0.949 . S
H1648 C1652 0.949 . S
C1649 C1650 1.349 . S
C1649 C1651 1.327 . S
C1649 H1672 0.950 . S
C1650 C1649 1.349 . S
C1650 C1662 1.349 . S
C1651 C1649 1.327 . S
C1651 C1667 1.429 . S
C1651 H1673 0.950 . S
C1652 H1648 0.949 . S
C1652 C1660 1.574 1_455 S
C1652 C1668 1.368 . S
H1653 C1661 0.950 . S
H1654 C1659 0.950 . S
H1655 C1660 0.949 . S
H1656 C1662 0.950 . S
H1657 C1663 0.950 . S
H1658 C1664 0.949 . S
C1659 H1654 0.950 . S
C1659 C1661 1.327 . S
C1659 C1665 1.429 . S
C1660 C1652 1.574 1_655 S
C1660 H1655 0.949 . S
C1660 C1666 1.368 . S
C1661 C1645 1.349 . S
C1661 H1653 0.950 . S
C1661 C1659 1.327 . S
C1662 C1650 1.349 . S
C1662 H1656 0.950 . S
C1662 C1663 1.327 . S
C1663 H1657 0.950 . S
C1663 C1662 1.327 . S
C1663 C1667 1.429 . S
C1664 C1647 1.574 1_455 S
C1664 H1658 0.949 . S
C1664 C1668 1.368 . S
C1665 C1646 1.429 . S
C1665 C1659 1.429 . S
C1665 C1666 1.523 . S
C1666 C1647 1.368 . S
C1666 C1660 1.368 . S
C1666 C1665 1.523 . S
C1667 C1651 1.429 . S
C1667 C1663 1.429 . S
C1667 C1668 1.523 . S
C1668 C1652 1.368 . S
C1668 C1664 1.368 . S
C1668 C1667 1.523 . S
H1669 C1644 0.950 . S
H1670 C1646 0.950 . S
H1671 C1647 0.949 . S
H1672 C1649 0.950 . S
H1673 C1651 0.950 . S
C1674 C1675 1.349 . S
C1674 C1676 1.327 . S
C1674 H1699 0.950 . S
C1675 C1674 1.349 . S
C1675 C1691 1.349 . S
C1676 C1674 1.327 . S
C1676 C1695 1.429 . S
C1676 H1700 0.950 . S
C1677 C1694 1.574 1_545 S
C1677 C1696 1.368 . S
C1677 H1701 0.949 . S
H1678 C1682 0.949 . S
C1679 C1680 1.349 . S
C1679 C1681 1.327 . S
C1679 H1702 0.950 . S
C1680 C1679 1.349 . S
C1680 C1692 1.349 . S
C1681 C1679 1.327 . S
C1681 C1697 1.429 . S
C1681 H1703 0.950 . S
C1682 H1678 0.949 . S
C1682 C1690 1.574 1_565 S
C1682 C1698 1.368 . S
H1683 C1691 0.950 . S
H1684 C1689 0.950 . S
H1685 C1690 0.949 . S
H1686 C1692 0.950 . S
H1687 C1693 0.950 . S
H1688 C1694 0.949 . S
C1689 H1684 0.950 . S
C1689 C1691 1.327 . S
C1689 C1695 1.429 . S
C1690 C1682 1.574 1_545 S
C1690 H1685 0.949 . S
C1690 C1696 1.368 . S
C1691 C1675 1.349 . S
C1691 H1683 0.950 . S
C1691 C1689 1.327 . S
C1692 C1680 1.349 . S
C1692 H1686 0.950 . S
C1692 C1693 1.327 . S
C1693 H1687 0.950 . S
C1693 C1692 1.327 . S
C1693 C1697 1.429 . S
C1694 C1677 1.574 1_565 S
C1694 H1688 0.949 . S
C1694 C1698 1.368 . S
C1695 C1676 1.429 . S
C1695 C1689 1.429 . S
C1695 C1696 1.523 . S
C1696 C1677 1.368 . S
C1696 C1690 1.368 . S
C1696 C1695 1.523 . S
C1697 C1681 1.429 . S
C1697 C1693 1.429 . S
C1697 C1698 1.523 . S
C1698 C1682 1.368 . S
C1698 C1694 1.368 . S
C1698 C1697 1.523 . S
H1699 C1674 0.950 . S
H1700 C1676 0.950 . S
H1701 C1677 0.949 . S
H1702 C1679 0.950 . S
H1703 C1681 0.950 . S
C1704 C1705 1.349 . S
C1704 C1706 1.327 . S
C1704 H1729 0.950 . S
C1705 C1704 1.349 . S
C1705 C1721 1.349 . S
C1706 C1704 1.327 . S
C1706 C1725 1.429 . S
C1706 H1730 0.950 . S
C1707 C1724 1.574 1_565 S
C1707 C1726 1.368 . S
C1707 H1731 0.949 . S
H1708 C1712 0.949 . S
C1709 C1710 1.349 . S
C1709 C1711 1.327 . S
C1709 H1732 0.950 . S
C1710 C1709 1.349 . S
C1710 C1722 1.349 . S
C1711 C1709 1.327 . S
C1711 C1727 1.429 . S
C1711 H1733 0.950 . S
C1712 H1708 0.949 . S
C1712 C1720 1.574 1_545 S
C1712 C1728 1.368 . S
H1713 C1721 0.950 . S
H1714 C1719 0.950 . S
H1715 C1720 0.949 . S
H1716 C1722 0.950 . S
H1717 C1723 0.950 . S
H1718 C1724 0.949 . S
C1719 H1714 0.950 . S
C1719 C1721 1.327 . S
C1719 C1725 1.429 . S
C1720 C1712 1.574 1_565 S
C1720 H1715 0.949 . S
C1720 C1726 1.368 . S
C1721 C1705 1.349 . S
C1721 H1713 0.950 . S
C1721 C1719 1.327 . S
C1722 C1710 1.349 . S
C1722 H1716 0.950 . S
C1722 C1723 1.327 . S
C1723 H1717 0.950 . S
C1723 C1722 1.327 . S
C1723 C1727 1.429 . S
C1724 C1707 1.574 1_545 S
C1724 H1718 0.949 . S
C1724 C1728 1.368 . S
C1725 C1706 1.429 . S
C1725 C1719 1.429 . S
C1725 C1726 1.523 . S
C1726 C1707 1.368 . S
C1726 C1720 1.368 . S
C1726 C1725 1.523 . S
C1727 C1711 1.429 . S
C1727 C1723 1.429 . S
C1727 C1728 1.523 . S
C1728 C1712 1.368 . S
C1728 C1724 1.368 . S
C1728 C1727 1.523 . S
H1729 C1704 0.950 . S
H1730 C1706 0.950 . S
H1731 C1707 0.949 . S
H1732 C1709 0.950 . S
H1733 C1711 0.950 . S
C1734 C1735 1.349 . S
C1734 C1736 1.327 . S
C1734 H1759 0.950 . S
C1735 C1734 1.349 . S
C1735 C1751 1.349 . S
C1736 C1734 1.327 . S
C1736 C1755 1.429 . S
C1736 H1760 0.950 . S
C1737 C1754 1.574 1_655 S
C1737 C1756 1.368 . S
C1737 H1761 0.949 . S
H1738 C1742 0.949 . S
C1739 C1740 1.349 . S
C1739 C1741 1.327 . S
C1739 H1762 0.950 . S
C1740 C1739 1.349 . S
C1740 C1752 1.349 . S
C1741 C1739 1.327 . S
C1741 C1757 1.429 . S
C1741 H1763 0.950 . S
C1742 H1738 0.949 . S
C1742 C1750 1.574 1_455 S
C1742 C1758 1.368 . S
H1743 C1751 0.950 . S
H1744 C1749 0.950 . S
H1745 C1750 0.949 . S
H1746 C1752 0.950 . S
H1747 C1753 0.950 . S
H1748 C1754 0.949 . S
C1749 H1744 0.950 . S
C1749 C1751 1.327 . S
C1749 C1755 1.429 . S
C1750 C1742 1.574 1_655 S
C1750 H1745 0.949 . S
C1750 C1756 1.368 . S
C1751 C1735 1.349 . S
C1751 H1743 0.950 . S
C1751 C1749 1.327 . S
C1752 C1740 1.349 . S
C1752 H1746 0.950 . S
C1752 C1753 1.327 . S
C1753 H1747 0.950 . S
C1753 C1752 1.327 . S
C1753 C1757 1.429 . S
C1754 C1737 1.574 1_455 S
C1754 H1748 0.949 . S
C1754 C1758 1.368 . S
C1755 C1736 1.429 . S
C1755 C1749 1.429 . S
C1755 C1756 1.523 . S
C1756 C1737 1.368 . S
C1756 C1750 1.368 . S
C1756 C1755 1.523 . S
C1757 C1741 1.429 . S
C1757 C1753 1.429 . S
C1757 C1758 1.523 . S
C1758 C1742 1.368 . S
C1758 C1754 1.368 . S
C1758 C1757 1.523 . S
H1759 C1734 0.950 . S
H1760 C1736 0.950 . S
H1761 C1737 0.949 . S
H1762 C1739 0.950 . S
H1763 C1741 0.950 . S
C1764 C1765 1.349 . S
C1764 C1766 1.327 . S
C1764 H1789 0.950 . S
C1765 C1764 1.349 . S
C1765 C1781 1.349 . S
C1766 C1764 1.327 . S
C1766 C1785 1.429 . S
C1766 H1790 0.950 . S
C1767 C1784 1.574 1_565 S
C1767 C1786 1.368 . S
C1767 H1791 0.949 . S
H1768 C1772 0.949 . S
C1769 C1770 1.349 . S
C1769 C1771 1.327 . S
C1769 H1792 0.950 . S
C1770 C1769 1.349 . S
C1770 C1782 1.349 . S
C1771 C1769 1.327 . S
C1771 C1787 1.429 . S
C1771 H1793 0.950 . S
C1772 H1768 0.949 . S
C1772 C1780 1.574 1_545 S
C1772 C1788 1.368 . S
H1773 C1781 0.950 . S
H1774 C1779 0.950 . S
H1775 C1780 0.949 . S
H1776 C1782 0.950 . S
H1777 C1783 0.950 . S
H1778 C1784 0.949 . S
C1779 H1774 0.950 . S
C1779 C1781 1.327 . S
C1779 C1785 1.429 . S
C1780 C1772 1.574 1_565 S
C1780 H1775 0.949 . S
C1780 C1786 1.368 . S
C1781 C1765 1.349 . S
C1781 H1773 0.950 . S
C1781 C1779 1.327 . S
C1782 C1770 1.349 . S
C1782 H1776 0.950 . S
C1782 C1783 1.327 . S
C1783 H1777 0.950 . S
C1783 C1782 1.327 . S
C1783 C1787 1.429 . S
C1784 C1767 1.574 1_545 S
C1784 H1778 0.949 . S
C1784 C1788 1.368 . S
C1785 C1766 1.429 . S
C1785 C1779 1.429 . S
C1785 C1786 1.523 . S
C1786 C1767 1.368 . S
C1786 C1780 1.368 . S
C1786 C1785 1.523 . S
C1787 C1771 1.429 . S
C1787 C1783 1.429 . S
C1787 C1788 1.523 . S
C1788 C1772 1.368 . S
C1788 C1784 1.368 . S
C1788 C1787 1.523 . S
H1789 C1764 0.950 . S
H1790 C1766 0.950 . S
H1791 C1767 0.949 . S
H1792 C1769 0.950 . S
H1793 C1771 0.950 . S
C1794 C1795 1.349 . S
C1794 C1796 1.327 . S
C1794 H1819 0.950 . S
C1795 C1794 1.349 . S
C1795 C1811 1.349 . S
C1796 C1794 1.327 . S
C1796 C1815 1.429 . S
C1796 H1820 0.950 . S
C1797 C1814 1.574 1_655 S
C1797 C1816 1.368 . S
C1797 H1821 0.949 . S
H1798 C1802 0.949 . S
C1799 C1800 1.349 . S
C1799 C1801 1.327 . S
C1799 H1822 0.950 . S
C1800 C1799 1.349 . S
C1800 C1812 1.349 . S
C1801 C1799 1.327 . S
C1801 C1817 1.429 . S
C1801 H1823 0.950 . S
C1802 H1798 0.949 . S
C1802 C1810 1.574 1_455 S
C1802 C1818 1.368 . S
H1803 C1811 0.950 . S
H1804 C1809 0.950 . S
H1805 C1810 0.949 . S
H1806 C1812 0.950 . S
H1807 C1813 0.950 . S
H1808 C1814 0.949 . S
C1809 H1804 0.950 . S
C1809 C1811 1.327 . S
C1809 C1815 1.429 . S
C1810 C1802 1.574 1_655 S
C1810 H1805 0.949 . S
C1810 C1816 1.368 . S
C1811 C1795 1.349 . S
C1811 H1803 0.950 . S
C1811 C1809 1.327 . S
C1812 C1800 1.349 . S
C1812 H1806 0.950 . S
C1812 C1813 1.327 . S
C1813 H1807 0.950 . S
C1813 C1812 1.327 . S
C1813 C1817 1.429 . S
C1814 C1797 1.574 1_455 S
C1814 H1808 0.949 . S
C1814 C1818 1.368 . S
C1815 C1796 1.429 . S
C1815 C1809 1.429 . S
C1815 C1816 1.523 . S
C1816 C1797 1.368 . S
C1816 C1810 1.368 . S
C1816 C1815 1.523 . S
C1817 C1801 1.429 . S
C1817 C1813 1.429 . S
C1817 C1818 1.523 . S
C1818 C1802 1.368 . S
C1818 C1814 1.368 . S
C1818 C1817 1.523 . S
H1819 C1794 0.950 . S
H1820 C1796 0.950 . S
H1821 C1797 0.949 . S
H1822 C1799 0.950 . S
H1823 C1801 0.950 . S
C1824 C1825 1.349 . S
C1824 C1826 1.327 . S
C1824 H1849 0.950 . S
C1825 C1824 1.349 . S
C1825 C1841 1.349 . S
C1826 C1824 1.327 . S
C1826 C1845 1.429 . S
C1826 H1850 0.950 . S
C1827 C1844 1.574 1_556 S
C1827 C1846 1.368 . S
C1827 H1851 0.949 . S
H1828 C1832 0.949 . S
C1829 C1830 1.349 . S
C1829 C1831 1.327 . S
C1829 H1852 0.950 . S
C1830 C1829 1.349 . S
C1830 C1842 1.349 . S
C1831 C1829 1.327 . S
C1831 C1847 1.429 . S
C1831 H1853 0.950 . S
C1832 H1828 0.949 . S
C1832 C1840 1.574 1_554 S
C1832 C1848 1.368 . S
H1833 C1841 0.950 . S
H1834 C1839 0.950 . S
H1835 C1840 0.949 . S
H1836 C1842 0.950 . S
H1837 C1843 0.950 . S
H1838 C1844 0.949 . S
C1839 H1834 0.950 . S
C1839 C1841 1.327 . S
C1839 C1845 1.429 . S
C1840 C1832 1.574 1_556 S
C1840 H1835 0.949 . S
C1840 C1846 1.368 . S
C1841 C1825 1.349 . S
C1841 H1833 0.950 . S
C1841 C1839 1.327 . S
C1842 C1830 1.349 . S
C1842 H1836 0.950 . S
C1842 C1843 1.327 . S
C1843 H1837 0.950 . S
C1843 C1842 1.327 . S
C1843 C1847 1.429 . S
C1844 C1827 1.574 1_554 S
C1844 H1838 0.949 . S
C1844 C1848 1.368 . S
C1845 C1826 1.429 . S
C1845 C1839 1.429 . S
C1845 C1846 1.523 . S
C1846 C1827 1.368 . S
C1846 C1840 1.368 . S
C1846 C1845 1.523 . S
C1847 C1831 1.429 . S
C1847 C1843 1.429 . S
C1847 C1848 1.523 . S
C1848 C1832 1.368 . S
C1848 C1844 1.368 . S
C1848 C1847 1.523 . S
H1849 C1824 0.950 . S
H1850 C1826 0.950 . S
H1851 C1827 0.949 . S
H1852 C1829 0.950 . S
H1853 C1831 0.950 . S
C1854 C1855 1.349 . S
C1854 C1856 1.327 . S
C1854 H1879 0.950 . S
C1855 C1854 1.349 . S
C1855 C1871 1.349 . S
C1856 C1854 1.327 . S
C1856 C1875 1.429 . S
C1856 H1880 0.950 . S
C1857 C1874 1.574 1_556 S
C1857 C1876 1.368 . S
C1857 H1881 0.949 . S
H1858 C1862 0.949 . S
C1859 C1860 1.349 . S
C1859 C1861 1.327 . S
C1859 H1882 0.950 . S
C1860 C1859 1.349 . S
C1860 C1872 1.349 . S
C1861 C1859 1.327 . S
C1861 C1877 1.429 . S
C1861 H1883 0.950 . S
C1862 H1858 0.949 . S
C1862 C1870 1.574 1_554 S
C1862 C1878 1.368 . S
H1863 C1871 0.950 . S
H1864 C1869 0.950 . S
H1865 C1870 0.949 . S
H1866 C1872 0.950 . S
H1867 C1873 0.950 . S
H1868 C1874 0.949 . S
C1869 H1864 0.950 . S
C1869 C1871 1.327 . S
C1869 C1875 1.429 . S
C1870 C1862 1.574 1_556 S
C1870 H1865 0.949 . S
C1870 C1876 1.368 . S
C1871 C1855 1.349 . S
C1871 H1863 0.950 . S
C1871 C1869 1.327 . S
C1872 C1860 1.349 . S
C1872 H1866 0.950 . S
C1872 C1873 1.327 . S
C1873 H1867 0.950 . S
C1873 C1872 1.327 . S
C1873 C1877 1.429 . S
C1874 C1857 1.574 1_554 S
C1874 H1868 0.949 . S
C1874 C1878 1.368 . S
C1875 C1856 1.429 . S
C1875 C1869 1.429 . S
C1875 C1876 1.523 . S
C1876 C1857 1.368 . S
C1876 C1870 1.368 . S
C1876 C1875 1.523 . S
C1877 C1861 1.429 . S
C1877 C1873 1.429 . S
C1877 C1878 1.523 . S
C1878 C1862 1.368 . S
C1878 C1874 1.368 . S
C1878 C1877 1.523 . S
H1879 C1854 0.950 . S
H1880 C1856 0.950 . S
H1881 C1857 0.949 . S
H1882 C1859 0.950 . S
H1883 C1861 0.950 . S
C1884 C1885 1.349 . S
C1884 C1886 1.327 . S
C1884 H1909 0.950 . S
C1885 C1884 1.349 . S
C1885 C1901 1.349 . S
C1886 C1884 1.327 . S
C1886 C1905 1.429 . S
C1886 H1910 0.950 . S
C1887 C1904 1.574 1_556 S
C1887 C1906 1.368 . S
C1887 H1911 0.949 . S
H1888 C1892 0.949 . S
C1889 C1890 1.349 . S
C1889 C1891 1.327 . S
C1889 H1912 0.950 . S
C1890 C1889 1.349 . S
C1890 C1902 1.349 . S
C1891 C1889 1.327 . S
C1891 C1907 1.429 . S
C1891 H1913 0.950 . S
C1892 H1888 0.949 . S
C1892 C1900 1.574 1_554 S
C1892 C1908 1.368 . S
H1893 C1901 0.950 . S
H1894 C1899 0.950 . S
H1895 C1900 0.949 . S
H1896 C1902 0.950 . S
H1897 C1903 0.950 . S
H1898 C1904 0.949 . S
C1899 H1894 0.950 . S
C1899 C1901 1.327 . S
C1899 C1905 1.429 . S
C1900 C1892 1.574 1_556 S
C1900 H1895 0.949 . S
C1900 C1906 1.368 . S
C1901 C1885 1.349 . S
C1901 H1893 0.950 . S
C1901 C1899 1.327 . S
C1902 C1890 1.349 . S
C1902 H1896 0.950 . S
C1902 C1903 1.327 . S
C1903 H1897 0.950 . S
C1903 C1902 1.327 . S
C1903 C1907 1.429 . S
C1904 C1887 1.574 1_554 S
C1904 H1898 0.949 . S
C1904 C1908 1.368 . S
C1905 C1886 1.429 . S
C1905 C1899 1.429 . S
C1905 C1906 1.523 . S
C1906 C1887 1.368 . S
C1906 C1900 1.368 . S
C1906 C1905 1.523 . S
C1907 C1891 1.429 . S
C1907 C1903 1.429 . S
C1907 C1908 1.523 . S
C1908 C1892 1.368 . S
C1908 C1904 1.368 . S
C1908 C1907 1.523 . S
H1909 C1884 0.950 . S
H1910 C1886 0.950 . S
H1911 C1887 0.949 . S
H1912 C1889 0.950 . S
H1913 C1891 0.950 . S
C1914 C1915 1.349 . S
C1914 C1916 1.327 . S
C1914 H1939 0.950 . S
C1915 C1914 1.349 . S
C1915 C1931 1.349 . S
C1916 C1914 1.327 . S
C1916 C1935 1.429 . S
C1916 H1940 0.950 . S
C1917 C1934 1.574 1_556 S
C1917 C1936 1.368 . S
C1917 H1941 0.949 . S
H1918 C1922 0.949 . S
C1919 C1920 1.349 . S
C1919 C1921 1.327 . S
C1919 H1942 0.950 . S
C1920 C1919 1.349 . S
C1920 C1932 1.349 . S
C1921 C1919 1.327 . S
C1921 C1937 1.429 . S
C1921 H1943 0.950 . S
C1922 H1918 0.949 . S
C1922 C1930 1.574 1_554 S
C1922 C1938 1.368 . S
H1923 C1931 0.950 . S
H1924 C1929 0.950 . S
H1925 C1930 0.949 . S
H1926 C1932 0.950 . S
H1927 C1933 0.950 . S
H1928 C1934 0.949 . S
C1929 H1924 0.950 . S
C1929 C1931 1.327 . S
C1929 C1935 1.429 . S
C1930 C1922 1.574 1_556 S
C1930 H1925 0.949 . S
C1930 C1936 1.368 . S
C1931 C1915 1.349 . S
C1931 H1923 0.950 . S
C1931 C1929 1.327 . S
C1932 C1920 1.349 . S
C1932 H1926 0.950 . S
C1932 C1933 1.327 . S
C1933 H1927 0.950 . S
C1933 C1932 1.327 . S
C1933 C1937 1.429 . S
C1934 C1917 1.574 1_554 S
C1934 H1928 0.949 . S
C1934 C1938 1.368 . S
C1935 C1916 1.429 . S
C1935 C1929 1.429 . S
C1935 C1936 1.523 . S
C1936 C1917 1.368 . S
C1936 C1930 1.368 . S
C1936 C1935 1.523 . S
C1937 C1921 1.429 . S
C1937 C1933 1.429 . S
C1937 C1938 1.523 . S
C1938 C1922 1.368 . S
C1938 C1934 1.368 . S
C1938 C1937 1.523 . S
H1939 C1914 0.950 . S
H1940 C1916 0.950 . S
H1941 C1917 0.949 . S
H1942 C1919 0.950 . S
H1943 C1921 0.950 . S
C1944 C1945 1.349 . S
C1944 C1946 1.327 . S
C1944 H1969 0.950 . S
C1945 C1944 1.349 . S
C1945 C1961 1.349 . S
C1946 C1944 1.327 . S
C1946 C1965 1.429 . S
C1946 H1970 0.950 . S
C1947 C1964 1.574 . S
C1947 C1966 1.368 . S
C1947 H1971 0.949 . S
H1948 C1952 0.949 . S
C1949 C1950 1.349 . S
C1949 C1951 1.327 . S
C1949 H1972 0.950 . S
C1950 C1949 1.349 . S
C1950 C1962 1.349 . S
C1951 C1949 1.327 . S
C1951 C1967 1.429 . S
C1951 H1973 0.950 . S
C1952 H1948 0.949 . S
C1952 C1960 1.574 . S
C1952 C1968 1.368 . S
H1953 C1961 0.950 . S
H1954 C1959 0.950 . S
H1955 C1960 0.949 . S
H1956 C1962 0.950 . S
H1957 C1963 0.950 . S
H1958 C1964 0.949 . S
C1959 H1954 0.950 . S
C1959 C1961 1.327 . S
C1959 C1965 1.429 . S
C1960 C1952 1.574 . S
C1960 H1955 0.949 . S
C1960 C1966 1.368 . S
C1961 C1945 1.349 . S
C1961 H1953 0.950 . S
C1961 C1959 1.327 . S
C1962 C1950 1.349 . S
C1962 H1956 0.950 . S
C1962 C1963 1.327 . S
C1963 H1957 0.950 . S
C1963 C1962 1.327 . S
C1963 C1967 1.429 . S
C1964 C1947 1.574 . S
C1964 H1958 0.949 . S
C1964 C1968 1.368 . S
C1965 C1946 1.429 . S
C1965 C1959 1.429 . S
C1965 C1966 1.523 . S
C1966 C1947 1.368 . S
C1966 C1960 1.368 . S
C1966 C1965 1.523 . S
C1967 C1951 1.429 . S
C1967 C1963 1.429 . S
C1967 C1968 1.523 . S
C1968 C1952 1.368 . S
C1968 C1964 1.368 . S
C1968 C1967 1.523 . S
H1969 C1944 0.950 . S
H1970 C1946 0.950 . S
H1971 C1947 0.949 . S
H1972 C1949 0.950 . S
H1973 C1951 0.950 . S
C1974 C1975 1.349 . S
C1974 C1976 1.327 . S
C1974 H1999 0.950 . S
C1975 C1974 1.349 . S
C1975 C1991 1.349 . S
C1976 C1974 1.327 . S
C1976 C1995 1.429 . S
C1976 H2000 0.950 . S
C1977 C1994 1.574 . S
C1977 C1996 1.368 . S
C1977 H2001 0.949 . S
H1978 C1982 0.949 . S
C1979 C1980 1.349 . S
C1979 C1981 1.327 . S
C1979 H2002 0.950 . S
C1980 C1979 1.349 . S
C1980 C1992 1.349 . S
C1981 C1979 1.327 . S
C1981 C1997 1.429 . S
C1981 H2003 0.950 . S
C1982 H1978 0.949 . S
C1982 C1990 1.574 . S
C1982 C1998 1.368 . S
H1983 C1991 0.950 . S
H1984 C1989 0.950 . S
H1985 C1990 0.949 . S
H1986 C1992 0.950 . S
H1987 C1993 0.950 . S
H1988 C1994 0.949 . S
C1989 H1984 0.950 . S
C1989 C1991 1.327 . S
C1989 C1995 1.429 . S
C1990 C1982 1.574 . S
C1990 H1985 0.949 . S
C1990 C1996 1.368 . S
C1991 C1975 1.349 . S
C1991 H1983 0.950 . S
C1991 C1989 1.327 . S
C1992 C1980 1.349 . S
C1992 H1986 0.950 . S
C1992 C1993 1.327 . S
C1993 H1987 0.950 . S
C1993 C1992 1.327 . S
C1993 C1997 1.429 . S
C1994 C1977 1.574 . S
C1994 H1988 0.949 . S
C1994 C1998 1.368 . S
C1995 C1976 1.429 . S
C1995 C1989 1.429 . S
C1995 C1996 1.523 . S
C1996 C1977 1.368 . S
C1996 C1990 1.368 . S
C1996 C1995 1.523 . S
C1997 C1981 1.429 . S
C1997 C1993 1.429 . S
C1997 C1998 1.523 . S
C1998 C1982 1.368 . S
C1998 C1994 1.368 . S
C1998 C1997 1.523 . S
H1999 C1974 0.950 . S
H2000 C1976 0.950 . S
H2001 C1977 0.949 . S
H2002 C1979 0.950 . S
H2003 C1981 0.950 . S
C2004 C2005 1.349 . S
C2004 C2006 1.327 . S
C2004 H2029 0.950 . S
C2005 C2004 1.349 . S
C2005 C2021 1.349 . S
C2006 C2004 1.327 . S
C2006 C2025 1.429 . S
C2006 H2030 0.950 . S
C2007 C2024 1.574 . S
C2007 C2026 1.368 . S
C2007 H2031 0.949 . S
H2008 C2012 0.949 . S
C2009 C2010 1.349 . S
C2009 C2011 1.327 . S
C2009 H2032 0.950 . S
C2010 C2009 1.349 . S
C2010 C2022 1.349 . S
C2011 C2009 1.327 . S
C2011 C2027 1.429 . S
C2011 H2033 0.950 . S
C2012 H2008 0.949 . S
C2012 C2020 1.574 . S
C2012 C2028 1.368 . S
H2013 C2021 0.950 . S
H2014 C2019 0.950 . S
H2015 C2020 0.949 . S
H2016 C2022 0.950 . S
H2017 C2023 0.950 . S
H2018 C2024 0.949 . S
C2019 H2014 0.950 . S
C2019 C2021 1.327 . S
C2019 C2025 1.429 . S
C2020 C2012 1.574 . S
C2020 H2015 0.949 . S
C2020 C2026 1.368 . S
C2021 C2005 1.349 . S
C2021 H2013 0.950 . S
C2021 C2019 1.327 . S
C2022 C2010 1.349 . S
C2022 H2016 0.950 . S
C2022 C2023 1.327 . S
C2023 H2017 0.950 . S
C2023 C2022 1.327 . S
C2023 C2027 1.429 . S
C2024 C2007 1.574 . S
C2024 H2018 0.949 . S
C2024 C2028 1.368 . S
C2025 C2006 1.429 . S
C2025 C2019 1.429 . S
C2025 C2026 1.523 . S
C2026 C2007 1.368 . S
C2026 C2020 1.368 . S
C2026 C2025 1.523 . S
C2027 C2011 1.429 . S
C2027 C2023 1.429 . S
C2027 C2028 1.523 . S
C2028 C2012 1.368 . S
C2028 C2024 1.368 . S
C2028 C2027 1.523 . S
H2029 C2004 0.950 . S
H2030 C2006 0.950 . S
H2031 C2007 0.949 . S
H2032 C2009 0.950 . S
H2033 C2011 0.950 . S
C2034 C2035 1.349 . S
C2034 C2036 1.327 . S
C2034 H2059 0.950 . S
C2035 C2034 1.349 . S
C2035 C2051 1.349 . S
C2036 C2034 1.327 . S
C2036 C2055 1.429 . S
C2036 H2060 0.950 . S
C2037 C2054 1.574 . S
C2037 C2056 1.368 . S
C2037 H2061 0.949 . S
H2038 C2042 0.949 . S
C2039 C2040 1.349 . S
C2039 C2041 1.327 . S
C2039 H2062 0.950 . S
C2040 C2039 1.349 . S
C2040 C2052 1.349 . S
C2041 C2039 1.327 . S
C2041 C2057 1.429 . S
C2041 H2063 0.950 . S
C2042 H2038 0.949 . S
C2042 C2050 1.574 . S
C2042 C2058 1.368 . S
H2043 C2051 0.950 . S
H2044 C2049 0.950 . S
H2045 C2050 0.949 . S
H2046 C2052 0.950 . S
H2047 C2053 0.950 . S
H2048 C2054 0.949 . S
C2049 H2044 0.950 . S
C2049 C2051 1.327 . S
C2049 C2055 1.429 . S
C2050 C2042 1.574 . S
C2050 H2045 0.949 . S
C2050 C2056 1.368 . S
C2051 C2035 1.349 . S
C2051 H2043 0.950 . S
C2051 C2049 1.327 . S
C2052 C2040 1.349 . S
C2052 H2046 0.950 . S
C2052 C2053 1.327 . S
C2053 H2047 0.950 . S
C2053 C2052 1.327 . S
C2053 C2057 1.429 . S
C2054 C2037 1.574 . S
C2054 H2048 0.949 . S
C2054 C2058 1.368 . S
C2055 C2036 1.429 . S
C2055 C2049 1.429 . S
C2055 C2056 1.523 . S
C2056 C2037 1.368 . S
C2056 C2050 1.368 . S
C2056 C2055 1.523 . S
C2057 C2041 1.429 . S
C2057 C2053 1.429 . S
C2057 C2058 1.523 . S
C2058 C2042 1.368 . S
C2058 C2054 1.368 . S
C2058 C2057 1.523 . S
H2059 C2034 0.950 . S
H2060 C2036 0.950 . S
H2061 C2037 0.949 . S
H2062 C2039 0.950 . S
H2063 C2041 0.950 . S
C2064 C2065 1.349 . S
C2064 C2066 1.327 . S
C2064 H2089 0.950 . S
C2065 C2064 1.349 . S
C2065 C2081 1.349 . S
C2066 C2064 1.327 . S
C2066 C2085 1.429 . S
C2066 H2090 0.950 . S
C2067 C2084 1.574 . S
C2067 C2086 1.368 . S
C2067 H2091 0.949 . S
H2068 C2072 0.949 . S
C2069 C2070 1.349 . S
C2069 C2071 1.327 . S
C2069 H2092 0.950 . S
C2070 C2069 1.349 . S
C2070 C2082 1.349 . S
C2071 C2069 1.327 . S
C2071 C2087 1.429 . S
C2071 H2093 0.950 . S
C2072 H2068 0.949 . S
C2072 C2080 1.574 . S
C2072 C2088 1.368 . S
H2073 C2081 0.950 . S
H2074 C2079 0.950 . S
H2075 C2080 0.949 . S
H2076 C2082 0.950 . S
H2077 C2083 0.950 . S
H2078 C2084 0.949 . S
C2079 H2074 0.950 . S
C2079 C2081 1.327 . S
C2079 C2085 1.429 . S
C2080 C2072 1.574 . S
C2080 H2075 0.949 . S
C2080 C2086 1.368 . S
C2081 C2065 1.349 . S
C2081 H2073 0.950 . S
C2081 C2079 1.327 . S
C2082 C2070 1.349 . S
C2082 H2076 0.950 . S
C2082 C2083 1.327 . S
C2083 H2077 0.950 . S
C2083 C2082 1.327 . S
C2083 C2087 1.429 . S
C2084 C2067 1.574 . S
C2084 H2078 0.949 . S
C2084 C2088 1.368 . S
C2085 C2066 1.429 . S
C2085 C2079 1.429 . S
C2085 C2086 1.523 . S
C2086 C2067 1.368 . S
C2086 C2080 1.368 . S
C2086 C2085 1.523 . S
C2087 C2071 1.429 . S
C2087 C2083 1.429 . S
C2087 C2088 1.523 . S
C2088 C2072 1.368 . S
C2088 C2084 1.368 . S
C2088 C2087 1.523 . S
H2089 C2064 0.950 . S
H2090 C2066 0.950 . S
H2091 C2067 0.949 . S
H2092 C2069 0.950 . S
H2093 C2071 0.950 . S
C2094 C2095 1.349 . S
C2094 C2096 1.327 . S
C2094 H2119 0.950 . S
C2095 C2094 1.349 . S
C2095 C2111 1.349 . S
C2096 C2094 1.327 . S
C2096 C2115 1.429 . S
C2096 H2120 0.950 . S
C2097 C2114 1.574 . S
C2097 C2116 1.368 . S
C2097 H2121 0.949 . S
H2098 C2102 0.949 . S
C2099 C2100 1.349 . S
C2099 C2101 1.327 . S
C2099 H2122 0.950 . S
C2100 C2099 1.349 . S
C2100 C2112 1.349 . S
C2101 C2099 1.327 . S
C2101 C2117 1.429 . S
C2101 H2123 0.950 . S
C2102 H2098 0.949 . S
C2102 C2110 1.574 . S
C2102 C2118 1.368 . S
H2103 C2111 0.950 . S
H2104 C2109 0.950 . S
H2105 C2110 0.949 . S
H2106 C2112 0.950 . S
H2107 C2113 0.950 . S
H2108 C2114 0.949 . S
C2109 H2104 0.950 . S
C2109 C2111 1.327 . S
C2109 C2115 1.429 . S
C2110 C2102 1.574 . S
C2110 H2105 0.949 . S
C2110 C2116 1.368 . S
C2111 C2095 1.349 . S
C2111 H2103 0.950 . S
C2111 C2109 1.327 . S
C2112 C2100 1.349 . S
C2112 H2106 0.950 . S
C2112 C2113 1.327 . S
C2113 H2107 0.950 . S
C2113 C2112 1.327 . S
C2113 C2117 1.429 . S
C2114 C2097 1.574 . S
C2114 H2108 0.949 . S
C2114 C2118 1.368 . S
C2115 C2096 1.429 . S
C2115 C2109 1.429 . S
C2115 C2116 1.523 . S
C2116 C2097 1.368 . S
C2116 C2110 1.368 . S
C2116 C2115 1.523 . S
C2117 C2101 1.429 . S
C2117 C2113 1.429 . S
C2117 C2118 1.523 . S
C2118 C2102 1.368 . S
C2118 C2114 1.368 . S
C2118 C2117 1.523 . S
H2119 C2094 0.950 . S
H2120 C2096 0.950 . S
H2121 C2097 0.949 . S
H2122 C2099 0.950 . S
H2123 C2101 0.950 . S
C2124 C2125 1.349 . S
C2124 C2126 1.327 . S
C2124 H2149 0.950 . S
C2125 C2124 1.349 . S
C2125 C2141 1.349 . S
C2126 C2124 1.327 . S
C2126 C2145 1.429 . S
C2126 H2150 0.950 . S
C2127 C2144 1.574 . S
C2127 C2146 1.368 . S
C2127 H2151 0.949 . S
H2128 C2132 0.949 . S
C2129 C2130 1.349 . S
C2129 C2131 1.327 . S
C2129 H2152 0.950 . S
C2130 C2129 1.349 . S
C2130 C2142 1.349 . S
C2131 C2129 1.327 . S
C2131 C2147 1.429 . S
C2131 H2153 0.950 . S
C2132 H2128 0.949 . S
C2132 C2140 1.574 . S
C2132 C2148 1.368 . S
H2133 C2141 0.950 . S
H2134 C2139 0.950 . S
H2135 C2140 0.949 . S
H2136 C2142 0.950 . S
H2137 C2143 0.950 . S
H2138 C2144 0.949 . S
C2139 H2134 0.950 . S
C2139 C2141 1.327 . S
C2139 C2145 1.429 . S
C2140 C2132 1.574 . S
C2140 H2135 0.949 . S
C2140 C2146 1.368 . S
C2141 C2125 1.349 . S
C2141 H2133 0.950 . S
C2141 C2139 1.327 . S
C2142 C2130 1.349 . S
C2142 H2136 0.950 . S
C2142 C2143 1.327 . S
C2143 H2137 0.950 . S
C2143 C2142 1.327 . S
C2143 C2147 1.429 . S
C2144 C2127 1.574 . S
C2144 H2138 0.949 . S
C2144 C2148 1.368 . S
C2145 C2126 1.429 . S
C2145 C2139 1.429 . S
C2145 C2146 1.523 . S
C2146 C2127 1.368 . S
C2146 C2140 1.368 . S
C2146 C2145 1.523 . S
C2147 C2131 1.429 . S
C2147 C2143 1.429 . S
C2147 C2148 1.523 . S
C2148 C2132 1.368 . S
C2148 C2144 1.368 . S
C2148 C2147 1.523 . S
H2149 C2124 0.950 . S
H2150 C2126 0.950 . S
H2151 C2127 0.949 . S
H2152 C2129 0.950 . S
H2153 C2131 0.950 . S
C2154 C2155 1.349 . S
C2154 C2156 1.327 . S
C2154 H2179 0.950 . S
C2155 C2154 1.349 . S
C2155 C2171 1.349 . S
C2156 C2154 1.327 . S
C2156 C2175 1.429 . S
C2156 H2180 0.950 . S
C2157 C2174 1.574 . S
C2157 C2176 1.368 . S
C2157 H2181 0.949 . S
H2158 C2162 0.949 . S
C2159 C2160 1.349 . S
C2159 C2161 1.327 . S
C2159 H2182 0.950 . S
C2160 C2159 1.349 . S
C2160 C2172 1.349 . S
C2161 C2159 1.327 . S
C2161 C2177 1.429 . S
C2161 H2183 0.950 . S
C2162 H2158 0.949 . S
C2162 C2170 1.574 . S
C2162 C2178 1.368 . S
H2163 C2171 0.950 . S
H2164 C2169 0.950 . S
H2165 C2170 0.949 . S
H2166 C2172 0.950 . S
H2167 C2173 0.950 . S
H2168 C2174 0.949 . S
C2169 H2164 0.950 . S
C2169 C2171 1.327 . S
C2169 C2175 1.429 . S
C2170 C2162 1.574 . S
C2170 H2165 0.949 . S
C2170 C2176 1.368 . S
C2171 C2155 1.349 . S
C2171 H2163 0.950 . S
C2171 C2169 1.327 . S
C2172 C2160 1.349 . S
C2172 H2166 0.950 . S
C2172 C2173 1.327 . S
C2173 H2167 0.950 . S
C2173 C2172 1.327 . S
C2173 C2177 1.429 . S
C2174 C2157 1.574 . S
C2174 H2168 0.949 . S
C2174 C2178 1.368 . S
C2175 C2156 1.429 . S
C2175 C2169 1.429 . S
C2175 C2176 1.523 . S
C2176 C2157 1.368 . S
C2176 C2170 1.368 . S
C2176 C2175 1.523 . S
C2177 C2161 1.429 . S
C2177 C2173 1.429 . S
C2177 C2178 1.523 . S
C2178 C2162 1.368 . S
C2178 C2174 1.368 . S
C2178 C2177 1.523 . S
H2179 C2154 0.950 . S
H2180 C2156 0.950 . S
H2181 C2157 0.949 . S
H2182 C2159 0.950 . S
H2183 C2161 0.950 . S
C2184 C2185 1.349 . S
C2184 C2186 1.327 . S
C2184 H2209 0.950 . S
C2185 C2184 1.349 . S
C2185 C2201 1.349 . S
C2186 C2184 1.327 . S
C2186 C2205 1.429 . S
C2186 H2210 0.950 . S
C2187 C2204 1.574 . S
C2187 C2206 1.368 . S
C2187 H2211 0.949 . S
H2188 C2192 0.949 . S
C2189 C2190 1.349 . S
C2189 C2191 1.327 . S
C2189 H2212 0.950 . S
C2190 C2189 1.349 . S
C2190 C2202 1.349 . S
C2191 C2189 1.327 . S
C2191 C2207 1.429 . S
C2191 H2213 0.950 . S
C2192 H2188 0.949 . S
C2192 C2200 1.574 . S
C2192 C2208 1.368 . S
H2193 C2201 0.950 . S
H2194 C2199 0.950 . S
H2195 C2200 0.949 . S
H2196 C2202 0.950 . S
H2197 C2203 0.950 . S
H2198 C2204 0.949 . S
C2199 H2194 0.950 . S
C2199 C2201 1.327 . S
C2199 C2205 1.429 . S
C2200 C2192 1.574 . S
C2200 H2195 0.949 . S
C2200 C2206 1.368 . S
C2201 C2185 1.349 . S
C2201 H2193 0.950 . S
C2201 C2199 1.327 . S
C2202 C2190 1.349 . S
C2202 H2196 0.950 . S
C2202 C2203 1.327 . S
C2203 H2197 0.950 . S
C2203 C2202 1.327 . S
C2203 C2207 1.429 . S
C2204 C2187 1.574 . S
C2204 H2198 0.949 . S
C2204 C2208 1.368 . S
C2205 C2186 1.429 . S
C2205 C2199 1.429 . S
C2205 C2206 1.523 . S
C2206 C2187 1.368 . S
C2206 C2200 1.368 . S
C2206 C2205 1.523 . S
C2207 C2191 1.429 . S
C2207 C2203 1.429 . S
C2207 C2208 1.523 . S
C2208 C2192 1.368 . S
C2208 C2204 1.368 . S
C2208 C2207 1.523 . S
H2209 C2184 0.950 . S
H2210 C2186 0.950 . S
H2211 C2187 0.949 . S
H2212 C2189 0.950 . S
H2213 C2191 0.950 . S
C2214 C2215 1.349 . S
C2214 C2216 1.327 . S
C2214 H2239 0.950 . S
C2215 C2214 1.349 . S
C2215 C2231 1.349 . S
C2216 C2214 1.327 . S
C2216 C2235 1.429 . S
C2216 H2240 0.950 . S
C2217 C2234 1.574 . S
C2217 C2236 1.368 . S
C2217 H2241 0.949 . S
H2218 C2222 0.949 . S
C2219 C2220 1.349 . S
C2219 C2221 1.327 . S
C2219 H2242 0.950 . S
C2220 C2219 1.349 . S
C2220 C2232 1.349 . S
C2221 C2219 1.327 . S
C2221 C2237 1.429 . S
C2221 H2243 0.950 . S
C2222 H2218 0.949 . S
C2222 C2230 1.574 . S
C2222 C2238 1.368 . S
H2223 C2231 0.950 . S
H2224 C2229 0.950 . S
H2225 C2230 0.949 . S
H2226 C2232 0.950 . S
H2227 C2233 0.950 . S
H2228 C2234 0.949 . S
C2229 H2224 0.950 . S
C2229 C2231 1.327 . S
C2229 C2235 1.429 . S
C2230 C2222 1.574 . S
C2230 H2225 0.949 . S
C2230 C2236 1.368 . S
C2231 C2215 1.349 . S
C2231 H2223 0.950 . S
C2231 C2229 1.327 . S
C2232 C2220 1.349 . S
C2232 H2226 0.950 . S
C2232 C2233 1.327 . S
C2233 H2227 0.950 . S
C2233 C2232 1.327 . S
C2233 C2237 1.429 . S
C2234 C2217 1.574 . S
C2234 H2228 0.949 . S
C2234 C2238 1.368 . S
C2235 C2216 1.429 . S
C2235 C2229 1.429 . S
C2235 C2236 1.523 . S
C2236 C2217 1.368 . S
C2236 C2230 1.368 . S
C2236 C2235 1.523 . S
C2237 C2221 1.429 . S
C2237 C2233 1.429 . S
C2237 C2238 1.523 . S
C2238 C2222 1.368 . S
C2238 C2234 1.368 . S
C2238 C2237 1.523 . S
H2239 C2214 0.950 . S
H2240 C2216 0.950 . S
H2241 C2217 0.949 . S
H2242 C2219 0.950 . S
H2243 C2221 0.950 . S
C2244 C2245 1.349 . S
C2244 C2246 1.327 . S
C2244 H2269 0.950 . S
C2245 C2244 1.349 . S
C2245 C2261 1.349 . S
C2246 C2244 1.327 . S
C2246 C2265 1.429 . S
C2246 H2270 0.950 . S
C2247 C2264 1.574 . S
C2247 C2266 1.368 . S
C2247 H2271 0.949 . S
H2248 C2252 0.949 . S
C2249 C2250 1.349 . S
C2249 C2251 1.327 . S
C2249 H2272 0.950 . S
C2250 C2249 1.349 . S
C2250 C2262 1.349 . S
C2251 C2249 1.327 . S
C2251 C2267 1.429 . S
C2251 H2273 0.950 . S
C2252 H2248 0.949 . S
C2252 C2260 1.574 . S
C2252 C2268 1.368 . S
H2253 C2261 0.950 . S
H2254 C2259 0.950 . S
H2255 C2260 0.949 . S
H2256 C2262 0.950 . S
H2257 C2263 0.950 . S
H2258 C2264 0.949 . S
C2259 H2254 0.950 . S
C2259 C2261 1.327 . S
C2259 C2265 1.429 . S
C2260 C2252 1.574 . S
C2260 H2255 0.949 . S
C2260 C2266 1.368 . S
C2261 C2245 1.349 . S
C2261 H2253 0.950 . S
C2261 C2259 1.327 . S
C2262 C2250 1.349 . S
C2262 H2256 0.950 . S
C2262 C2263 1.327 . S
C2263 H2257 0.950 . S
C2263 C2262 1.327 . S
C2263 C2267 1.429 . S
C2264 C2247 1.574 . S
C2264 H2258 0.949 . S
C2264 C2268 1.368 . S
C2265 C2246 1.429 . S
C2265 C2259 1.429 . S
C2265 C2266 1.523 . S
C2266 C2247 1.368 . S
C2266 C2260 1.368 . S
C2266 C2265 1.523 . S
C2267 C2251 1.429 . S
C2267 C2263 1.429 . S
C2267 C2268 1.523 . S
C2268 C2252 1.368 . S
C2268 C2264 1.368 . S
C2268 C2267 1.523 . S
H2269 C2244 0.950 . S
H2270 C2246 0.950 . S
H2271 C2247 0.949 . S
H2272 C2249 0.950 . S
H2273 C2251 0.950 . S
C2274 C2275 1.349 . S
C2274 C2276 1.327 . S
C2274 H2299 0.950 . S
C2275 C2274 1.349 . S
C2275 C2291 1.349 . S
C2276 C2274 1.327 . S
C2276 C2295 1.429 . S
C2276 H2300 0.950 . S
C2277 C2294 1.574 . S
C2277 C2296 1.368 . S
C2277 H2301 0.949 . S
H2278 C2282 0.949 . S
C2279 C2280 1.349 . S
C2279 C2281 1.327 . S
C2279 H2302 0.950 . S
C2280 C2279 1.349 . S
C2280 C2292 1.349 . S
C2281 C2279 1.327 . S
C2281 C2297 1.429 . S
C2281 H2303 0.950 . S
C2282 H2278 0.949 . S
C2282 C2290 1.574 . S
C2282 C2298 1.368 . S
H2283 C2291 0.950 . S
H2284 C2289 0.950 . S
H2285 C2290 0.949 . S
H2286 C2292 0.950 . S
H2287 C2293 0.950 . S
H2288 C2294 0.949 . S
C2289 H2284 0.950 . S
C2289 C2291 1.327 . S
C2289 C2295 1.429 . S
C2290 C2282 1.574 . S
C2290 H2285 0.949 . S
C2290 C2296 1.368 . S
C2291 C2275 1.349 . S
C2291 H2283 0.950 . S
C2291 C2289 1.327 . S
C2292 C2280 1.349 . S
C2292 H2286 0.950 . S
C2292 C2293 1.327 . S
C2293 H2287 0.950 . S
C2293 C2292 1.327 . S
C2293 C2297 1.429 . S
C2294 C2277 1.574 . S
C2294 H2288 0.949 . S
C2294 C2298 1.368 . S
C2295 C2276 1.429 . S
C2295 C2289 1.429 . S
C2295 C2296 1.523 . S
C2296 C2277 1.368 . S
C2296 C2290 1.368 . S
C2296 C2295 1.523 . S
C2297 C2281 1.429 . S
C2297 C2293 1.429 . S
C2297 C2298 1.523 . S
C2298 C2282 1.368 . S
C2298 C2294 1.368 . S
C2298 C2297 1.523 . S
H2299 C2274 0.950 . S
H2300 C2276 0.950 . S
H2301 C2277 0.949 . S
H2302 C2279 0.950 . S
H2303 C2281 0.950 . S
C865 C398 1.358 . S
C870 C14 1.315 . S
C895 C50 1.315 . S
C900 C290 1.358 . S
C925 C86 1.315 . S
C930 C326 1.358 . S
C955 C122 1.315 . S
C960 C362 1.358 . S
C985 C470 1.358 . S
C990 C158 1.315 . S
C1015 C194 1.315 . S
C1020 C506 1.358 . S
C1045 C542 1.358 . S
C1050 C230 1.315 . S
C1075 C434 1.358 . S
C1080 C266 1.315 . S
C1105 C182 1.358 . S
C1110 C302 1.315 . S
C1135 C218 1.358 . S
C1140 C338 1.315 . S
C1165 C374 1.315 . S
C1170 C254 1.358 . S
C1195 C146 1.358 . S
C1200 C410 1.315 . S
C1225 C110 1.358 . S
C1230 C446 1.315 . S
C1255 C482 1.315 . S
C1260 C2 1.358 . S
C1285 C518 1.315 . S
C1290 C38 1.358 . S
C1315 C554 1.315 . S
C1320 C74 1.358 . S
C1345 C590 1.315 . S
C1350 C830 1.358 . S
C1375 C722 1.358 . S
C1380 C626 1.315 . S
C1405 C662 1.315 . S
C1410 C614 1.358 . S
C1435 C698 1.315 . S
C1440 C650 1.358 . S
C1465 C686 1.358 . S
C1470 C734 1.315 . S
C1495 C770 1.315 . S
C1500 C794 1.358 . S
C1525 C578 1.358 . S
C1530 C806 1.315 . S
C1555 C758 1.358 . S
C1560 C842 1.315 . S
C1585 C3 1.505 . S
C1590 C219 1.505 . S
C1615 C39 1.505 . S
C1620 C255 1.505 . S
C1645 C75 1.505 . S
C1650 C147 1.505 . S
C1675 C183 1.505 . S
C1680 C111 1.505 . S
C1705 C363 1.505 . S
C1710 C291 1.505 . S
C1735 C327 1.505 . S
C1740 C399 1.505 . S
C1765 C435 1.505 . S
C1770 C507 1.505 . S
C1795 C543 1.505 . S
C1800 C471 1.505 . S
C1825 C615 1.505 . S
C1830 C579 1.505 . S
C1855 C651 1.505 . S
C1860 C831 1.505 . S
C1885 C687 1.505 . S
C1890 C759 1.505 . S
C1915 C723 1.505 . S
C1920 C795 1.505 . S
C1945 C4 0.853 . S
C1950 C184 0.853 . S
C1975 C40 0.853 . S
C1980 C220 0.853 . S
C2005 C76 0.853 . S
C2010 C256 0.853 . S
C2035 C148 0.853 . S
C2040 C112 0.853 . S
C2065 C292 0.853 . S
C2070 C832 0.853 . S
C2095 C328 0.853 . S
C2100 C760 0.853 . S
C2125 C796 0.853 . S
C2130 C364 0.853 . S
C2155 C400 0.853 . S
C2160 C580 0.853 . S
C2185 C724 0.853 . S
C2190 C436 0.853 . S
C2215 C616 0.853 . S
C2220 C472 0.853 . S
C2245 C508 0.853 . S
C2250 C652 0.853 . S
C2275 C688 0.853 . S
C2280 C544 0.853 . S
