# Generated by pormake.
# Topology sra, (4)-cn, num edge types: 1
# Building blocks:
#     Node 0, Type 0, BuildingBlock: CEKHIL_clean_sbu_0, # of connection points: 4
#     Node 1, Type 0, BuildingBlock: CEKHIL_clean_sbu_0, # of connection points: 4
#     Node 2, Type 0, BuildingBlock: CEKHIL_clean_sbu_0, # of connection points: 4
#     Node 3, Type 0, BuildingBlock: CEKHIL_clean_sbu_0, # of connection points: 4
#     Node 4, Type 0, BuildingBlock: CEKHIL_clean_sbu_0, # of connection points: 4
#     Node 5, Type 0, BuildingBlock: CEKHIL_clean_sbu_0, # of connection points: 4
#     Node 6, Type 0, BuildingBlock: CEKHIL_clean_sbu_0, # of connection points: 4
#     Node 7, Type 0, BuildingBlock: CEKHIL_clean_sbu_0, # of connection points: 4
#     Edge 8, Type (0, 0), BuildingBlock: TEMPAE_clean_linker_10, # of connection points: 2
#     Edge 9, Type (0, 0), BuildingBlock: TEMPAE_clean_linker_10, # of connection points: 2
#     Edge 10, Type (0, 0), BuildingBlock: TEMPAE_clean_linker_10, # of connection points: 2
#     Edge 11, Type (0, 0), BuildingBlock: TEMPAE_clean_linker_10, # of connection points: 2
#     Edge 12, Type (0, 0), BuildingBlock: TEMPAE_clean_linker_10, # of connection points: 2
#     Edge 13, Type (0, 0), BuildingBlock: TEMPAE_clean_linker_10, # of connection points: 2
#     Edge 14, Type (0, 0), BuildingBlock: TEMPAE_clean_linker_10, # of connection points: 2
#     Edge 15, Type (0, 0), BuildingBlock: TEMPAE_clean_linker_10, # of connection points: 2
#     Edge 16, Type (0, 0), BuildingBlock: TEMPAE_clean_linker_10, # of connection points: 2
#     Edge 17, Type (0, 0), BuildingBlock: TEMPAE_clean_linker_10, # of connection points: 2
#     Edge 18, Type (0, 0), BuildingBlock: TEMPAE_clean_linker_10, # of connection points: 2
#     Edge 19, Type (0, 0), BuildingBlock: TEMPAE_clean_linker_10, # of connection points: 2
#     Edge 20, Type (0, 0), BuildingBlock: TEMPAE_clean_linker_10, # of connection points: 2
#     Edge 21, Type (0, 0), BuildingBlock: TEMPAE_clean_linker_10, # of connection points: 2
#     Edge 22, Type (0, 0), BuildingBlock: TEMPAE_clean_linker_10, # of connection points: 2
#     Edge 23, Type (0, 0), BuildingBlock: TEMPAE_clean_linker_10, # of connection points: 2
# Relax obj value: 0.033
# Max RMSD: 0.069
# Mean RMSD: 0.069
data_MOF--net-sra--node1-CEKHIL_clean_sbu_0--edge1-TEMPAE_clean_linker_10
_symmetry_space_group_name_H-M    P1
_symmetry_Int_Tables_number       1
_symmetry_cell_setting            triclinic
loop_
_symmetry_equiv_pos_as_xyz
'x, y, z'
_cell_length_a     27.475722
_cell_length_b     53.251792
_cell_length_c     31.543596
_cell_angle_alpha  89.990896
_cell_angle_beta   89.979787
_cell_angle_gamma 90.020212
loop_
_atom_site_label
_atom_site_type_symbol
_atom_site_fract_x
_atom_site_fract_y
_atom_site_fract_z
_atom_type_partial_charge
Co0 Co 0.0226 0.1078 0.1529 0.0
O1 O 0.0225 0.07187 0.14573 0.0
O2 O -0.00332 0.09882 0.09746 0.0
C3 C 0.09867 0.10991 0.17933 0.0
O4 O 0.01975 0.14642 0.14869 0.0
Co5 Co 0.03447 0.13122 0.24305 0.0
O6 O 0.04889 0.16194 0.21003 0.0
C7 C 0.93956 0.11024 0.21692 0.0
C8 C 0.00513 0.07559 0.10806 0.0
C9 C 0.03527 0.16485 0.17172 0.0
O10 O 0.95546 0.10647 0.179 0.0
O11 O 0.96615 0.11844 0.24724 0.0
O12 O 0.09201 0.10864 0.13861 0.0
O13 O 0.06011 0.10776 0.20227 0.0
Co14 Co -0.00186 0.40485 0.15634 0.0
O15 O -0.00042 0.44066 0.14798 0.0
O16 O 0.02747 0.41302 0.10179 0.0
C17 C 0.92065 0.40354 0.1792 0.0
O18 O 0.00032 0.36623 0.15352 0.0
Co19 Co 0.98033 0.38286 0.24661 0.0
O20 O 0.9702 0.35123 0.21487 0.0
C21 C 0.07714 0.40304 0.2242 0.0
C22 C 0.01897 0.43643 0.11123 0.0
C23 C 0.98493 0.34794 0.17694 0.0
O24 O 0.06371 0.40606 0.18537 0.0
O25 O 0.04829 0.39575 0.25364 0.0
O26 O 0.92974 0.40408 0.13882 0.0
O27 O 0.9576 0.40593 0.20394 0.0
Co28 Co 0.02226 0.90258 0.84803 0.0
O29 O 0.02262 0.93825 0.858 0.0
O30 O -0.00172 0.91007 0.90484 0.0
C31 C 0.09728 0.9017 0.81927 0.0
O32 O 0.01936 0.86395 0.84939 0.0
Co33 Co 0.03224 0.88107 0.75665 0.0
O34 O 0.04988 0.85001 0.78756 0.0
C35 C 0.93737 0.90078 0.78621 0.0
C36 C 0.00641 0.93357 0.89574 0.0
C37 C 0.03601 0.84617 0.82557 0.0
O38 O 0.95437 0.90464 0.82373 0.0
O39 O 0.96303 0.89272 0.75517 0.0
O40 O 0.09215 0.90106 0.86023 0.0
O41 O 0.05786 0.90436 0.79771 0.0
Co42 Co 0.00214 0.60542 0.84503 0.0
O43 O 0.00078 0.56998 0.85683 0.0
O44 O 0.02999 0.59858 0.90073 0.0
C45 C 0.92532 0.60694 0.82075 0.0
O46 O 0.00683 0.64398 0.84414 0.0
Co47 Co 0.98635 0.62497 0.75295 0.0
O48 O 0.97507 0.6573 0.78241 0.0
C49 C 0.08185 0.60417 0.77805 0.0
C50 C 0.01993 0.57507 0.89333 0.0
C51 C 0.99089 0.66164 0.81969 0.0
O52 O 0.06789 0.60201 0.81692 0.0
O53 O 0.05394 0.61139 0.74794 0.0
O54 O 0.93349 0.60824 0.86127 0.0
O55 O 0.96273 0.60316 0.79708 0.0
Co56 Co 0.52156 0.6103 0.6554 0.0
O57 O 0.52412 0.5751 0.6419 0.0
O58 O 0.49599 0.60434 0.59859 0.0
C59 C 0.59734 0.6117 0.68239 0.0
O60 O 0.51618 0.64883 0.65809 0.0
Co61 Co 0.53296 0.62817 0.74903 0.0
O62 O 0.54407 0.66118 0.7218 0.0
C63 C 0.43913 0.60729 0.71966 0.0
C64 C 0.50616 0.58077 0.60519 0.0
C65 C 0.5301 0.66613 0.68417 0.0
O66 O 0.45469 0.6061 0.68115 0.0
O67 O 0.46566 0.61396 0.75106 0.0
O68 O 0.59092 0.61362 0.64168 0.0
O69 O 0.55885 0.60743 0.70445 0.0
Co70 Co 0.5016 0.90753 0.65512 0.0
O71 O 0.50227 0.94314 0.64479 0.0
O72 O 0.53027 0.91482 0.59987 0.0
C73 C 0.42439 0.90675 0.67867 0.0
O74 O 0.5045 0.86893 0.65448 0.0
Co75 Co 0.48346 0.8866 0.7459 0.0
O76 O 0.4691 0.85521 0.7145 0.0
C77 C 0.58035 0.90688 0.72289 0.0
C78 C 0.52139 0.93835 0.60815 0.0
C79 C 0.48605 0.85124 0.67748 0.0
O80 O 0.56716 0.90961 0.68392 0.0
O81 O 0.55141 0.89965 0.75231 0.0
O82 O 0.43303 0.90586 0.6382 0.0
O83 O 0.46166 0.90962 0.70284 0.0
Co84 Co 0.5191 0.40576 0.35057 0.0
O85 O 0.51686 0.44181 0.35588 0.0
O86 O 0.49431 0.41533 0.40607 0.0
C87 C 0.5946 0.40453 0.3224 0.0
O88 O 0.51839 0.36729 0.35707 0.0
Co89 Co 0.53096 0.37999 0.26248 0.0
O90 O 0.55089 0.35095 0.29769 0.0
C91 C 0.43491 0.39999 0.28862 0.0
C92 C 0.50074 0.43851 0.39411 0.0
C93 C 0.53658 0.34875 0.33593 0.0
O94 O 0.45132 0.40551 0.32575 0.0
O95 O 0.46137 0.39101 0.25882 0.0
O96 O 0.58896 0.4062 0.36323 0.0
O97 O 0.55517 0.40548 0.30039 0.0
Co98 Co 0.50216 0.10859 0.34432 0.0
O99 O 0.50124 0.07286 0.35383 0.0
O100 O 0.53098 0.10055 0.39911 0.0
C101 C 0.4248 0.11106 0.3212 0.0
O102 O 0.50672 0.14722 0.34577 0.0
Co103 Co 0.48637 0.1293 0.25257 0.0
O104 O 0.48158 0.16183 0.28248 0.0
C105 C 0.58154 0.10802 0.27659 0.0
C106 C 0.52094 0.07721 0.39041 0.0
C107 C 0.49501 0.16547 0.32066 0.0
O108 O 0.56773 0.10598 0.3155 0.0
O109 O 0.55339 0.11509 0.24655 0.0
O110 O 0.43368 0.11053 0.36163 0.0
O111 O 0.46176 0.10781 0.29674 0.0
C112 C 0.01744 0.31429 0.12778 0.0
C113 C 0.98717 0.3215 0.16154 0.0
C114 C 0.0252 0.28867 0.11837 0.0
C115 C 0.0025 0.26992 0.14351 0.0
C116 C 0.96921 0.27722 0.17548 0.0
C117 C 0.96182 0.30278 0.18387 0.0
C118 C 0.05993 0.28175 0.08325 0.0
C119 C 0.94397 0.25804 0.20314 0.0
C120 C -0.00104 0.1991 0.12619 0.0
C121 C 0.03379 0.19115 0.15583 0.0
C122 C 0.991 0.22493 0.11869 0.0
C123 C 0.01833 0.24306 0.14151 0.0
C124 C 0.0564 0.23496 0.16847 0.0
C125 C 0.06369 0.20922 0.17514 0.0
C126 C 0.95099 0.23273 0.08877 0.0
C127 C 0.08679 0.25346 0.19335 0.0
H128 H 0.03691 0.32855 0.11005 0.0
H129 H 0.93749 0.30806 0.20943 0.0
H130 H 0.0957 0.27665 0.09709 0.0
H131 H 0.04643 0.26523 0.06531 0.0
H132 H 0.06558 0.2976 0.06088 0.0
H133 H 0.91622 0.26668 0.22421 0.0
H134 H 0.92592 0.24357 0.18335 0.0
H135 H 0.97128 0.24834 0.22324 0.0
H136 H 0.97585 0.18531 0.11092 0.0
H137 H 0.09138 0.20325 0.19746 0.0
H138 H 0.96203 0.24939 0.06992 0.0
H139 H 0.91821 0.23796 0.1073 0.0
H140 H 0.94091 0.21729 0.06678 0.0
H141 H 0.10095 0.26844 0.17227 0.0
H142 H 0.11805 0.2443 0.20944 0.0
H143 H 0.06378 0.2626 0.21782 0.0
C144 C -0.00047 0.81086 0.86839 0.0
C145 C 0.03517 0.81962 0.84015 0.0
C146 C 0.99259 0.78487 0.87485 0.0
C147 C 0.02205 0.76738 0.85264 0.0
C148 C 0.06079 0.77631 0.82714 0.0
C149 C 0.06678 0.80223 0.8212 0.0
C150 C 0.95143 0.77619 0.9029 0.0
C151 C 0.09351 0.7585 0.80315 0.0
C152 C 0.02239 0.69617 0.86762 0.0
C153 C 0.99368 0.68845 0.83316 0.0
C154 C 0.02967 0.72191 0.87633 0.0
C155 C 0.00798 0.74029 0.84983 0.0
C156 C 0.97668 0.73253 0.81669 0.0
C157 C 0.96983 0.70686 0.80893 0.0
C158 C 0.06255 0.72936 0.91248 0.0
C159 C 0.95259 0.75134 0.7876 0.0
H160 H 0.97504 0.82415 0.88328 0.0
H161 H 0.095 0.80886 0.79992 0.0
H162 H 0.92042 0.7701 0.88286 0.0
H163 H 0.96272 0.75986 0.92239 0.0
H164 H 0.93856 0.7914 0.92424 0.0
H165 H 0.12529 0.76825 0.78886 0.0
H166 H 0.10702 0.74343 0.82436 0.0
H167 H 0.07249 0.74939 0.77733 0.0
H168 H 0.04075 0.68217 0.88676 0.0
H169 H 0.94682 0.70124 0.78268 0.0
H170 H 0.04695 0.74541 0.93032 0.0
H171 H 0.09826 0.73546 0.89968 0.0
H172 H 0.06884 0.71353 0.93475 0.0
H173 H 0.93283 0.76571 0.80634 0.0
H174 H 0.92651 0.74236 0.76537 0.0
H175 H 0.98077 0.76124 0.7687 0.0
C176 C 0.54676 0.71142 0.69946 0.0
C177 C 0.52734 0.69319 0.67202 0.0
C178 C 0.54032 0.73714 0.692 0.0
C179 C 0.51405 0.74519 0.65588 0.0
C180 C 0.49658 0.72704 0.62667 0.0
C181 C 0.5033 0.70123 0.63513 0.0
C182 C 0.55968 0.7557 0.72411 0.0
C183 C 0.46903 0.73483 0.58748 0.0
C184 C 0.45353 0.80754 0.67862 0.0
C185 C 0.48802 0.82469 0.66314 0.0
C186 C 0.45943 0.78158 0.67306 0.0
C187 C 0.50118 0.77238 0.65181 0.0
C188 C 0.53412 0.78966 0.6331 0.0
C189 C 0.52706 0.81568 0.63884 0.0
C190 C 0.42294 0.76399 0.6931 0.0
C191 C 0.57886 0.78069 0.60988 0.0
H192 H 0.56603 0.70561 0.72779 0.0
H193 H 0.48836 0.6874 0.61355 0.0
H194 H 0.58226 0.77016 0.70819 0.0
H195 H 0.52885 0.76551 0.73968 0.0
H196 H 0.58198 0.74652 0.74906 0.0
H197 H 0.4648 0.71905 0.56474 0.0
H198 H 0.43227 0.74153 0.59663 0.0
H199 H 0.48779 0.7506 0.57129 0.0
H200 H 0.42283 0.81441 0.69686 0.0
H201 H 0.55384 0.8288 0.62675 0.0
H202 H 0.43958 0.75488 0.72123 0.0
H203 H 0.41255 0.74891 0.67061 0.0
H204 H 0.38945 0.77395 0.70343 0.0
H205 H 0.60619 0.77404 0.63321 0.0
H206 H 0.59561 0.79589 0.59064 0.0
H207 H 0.56995 0.76465 0.58882 0.0
C208 C 0.4941 0.31339 0.37317 0.0
C209 C 0.53595 0.32294 0.3535 0.0
C210 C 0.4878 0.2873 0.37848 0.0
C211 C 0.52444 0.27054 0.36416 0.0
C212 C 0.56896 0.28042 0.3488 0.0
C213 C 0.57394 0.30645 0.34327 0.0
C214 C 0.43989 0.27766 0.39524 0.0
C215 C 0.60943 0.26345 0.33377 0.0
C216 C 0.51726 0.19892 0.37479 0.0
C217 C 0.49906 0.19218 0.33474 0.0
C218 C 0.52397 0.22442 0.38588 0.0
C219 C 0.51268 0.24352 0.3561 0.0
C220 C 0.49292 0.23678 0.31628 0.0
C221 C 0.48616 0.21141 0.30631 0.0
C222 C 0.54442 0.23087 0.42888 0.0
C223 C 0.48051 0.25636 0.28326 0.0
H224 H 0.46453 0.32606 0.38096 0.0
H225 H 0.60655 0.31382 0.32838 0.0
H226 H 0.41684 0.27153 0.36827 0.0
H227 H 0.44545 0.26117 0.41618 0.0
H228 H 0.41986 0.29238 0.41308 0.0
H229 H 0.64433 0.27377 0.33011 0.0
H230 H 0.61501 0.24766 0.35616 0.0
H231 H 0.59945 0.25531 0.30257 0.0
H232 H 0.52712 0.18433 0.39714 0.0
H233 H 0.47167 0.20669 0.27537 0.0
H234 H 0.5223 0.24578 0.44411 0.0
H235 H 0.58189 0.23832 0.42525 0.0
H236 H 0.54566 0.21428 0.45022 0.0
H237 H 0.45509 0.27045 0.29667 0.0
H238 H 0.46356 0.24806 0.25452 0.0
H239 H 0.51403 0.26645 0.27349 0.0
C240 C 0.33914 0.09692 0.31521 0.0
C241 C 0.37565 0.11391 0.3038 0.0
C242 C 0.29389 0.09725 0.29459 0.0
C243 C 0.28463 0.1157 0.26321 0.0
C244 C 0.32081 0.13367 0.25319 0.0
C245 C 0.36643 0.13214 0.27291 0.0
C246 C 0.25679 0.07728 0.30516 0.0
C247 C 0.31159 0.15428 0.22131 0.0
C248 C 0.18799 0.10213 0.18026 0.0
C249 C 0.14695 0.11319 0.19869 0.0
C250 C 0.23321 0.10282 0.20094 0.0
C251 C 0.23757 0.11571 0.24007 0.0
C252 C 0.1966 0.12794 0.25769 0.0
C253 C 0.1515 0.12606 0.23721 0.0
C254 C 0.2758 0.08895 0.18176 0.0
C255 C 0.20023 0.14273 0.29843 0.0
H256 H 0.34686 0.08262 0.33874 0.0
H257 H 0.39488 0.14522 0.26416 0.0
H258 H 0.22254 0.08607 0.31632 0.0
H259 H 0.24793 0.06633 0.27623 0.0
H260 H 0.26994 0.06412 0.32998 0.0
H261 H 0.34177 0.16816 0.22027 0.0
H262 H 0.30718 0.14608 0.18924 0.0
H263 H 0.2773 0.16429 0.22908 0.0
H264 H 0.18424 0.09197 0.15065 0.0
H265 H 0.11976 0.13472 0.25138 0.0
H266 H 0.28888 0.0744 0.20422 0.0
H267 H 0.30645 0.10207 0.17608 0.0
H268 H 0.26625 0.07972 0.15129 0.0
H269 H 0.20825 0.12988 0.3252 0.0
H270 H 0.16612 0.15307 0.30569 0.0
H271 H 0.23063 0.15641 0.29646 0.0
C272 C 0.64505 0.39738 0.25793 0.0
C273 C 0.64253 0.40147 0.30182 0.0
C274 C 0.68993 0.396 0.23699 0.0
C275 C 0.73339 0.39896 0.26045 0.0
C276 C 0.7312 0.40242 0.30495 0.0
C277 C 0.68568 0.40356 0.32518 0.0
C278 C 0.69076 0.39209 0.18956 0.0
C279 C 0.77687 0.40567 0.33098 0.0
C280 C 0.85332 0.37883 0.21099 0.0
C281 C 0.8713 0.40181 0.19635 0.0
C282 C 0.80813 0.37751 0.23165 0.0
C283 C 0.78092 0.39979 0.238 0.0
C284 C 0.79899 0.42301 0.22268 0.0
C285 C 0.8441 0.42372 0.20193 0.0
C286 C 0.78984 0.35241 0.24717 0.0
C287 C 0.77109 0.44717 0.2289 0.0
H288 H 0.61182 0.39562 0.23968 0.0
H289 H 0.68389 0.4067 0.3591 0.0
H290 H 0.70608 0.40896 0.17381 0.0
H291 H 0.71463 0.376 0.18138 0.0
H292 H 0.6539 0.38851 0.17642 0.0
H293 H 0.76907 0.40688 0.36547 0.0
H294 H 0.80209 0.38975 0.32537 0.0
H295 H 0.79602 0.42306 0.32105 0.0
H296 H 0.87484 0.36198 0.20671 0.0
H297 H 0.85874 0.44148 0.19093 0.0
H298 H 0.75352 0.3484 0.23337 0.0
H299 H 0.78542 0.35285 0.28212 0.0
H300 H 0.8149 0.3368 0.23881 0.0
H301 H 0.73452 0.44561 0.21425 0.0
H302 H 0.79014 0.4636 0.21487 0.0
H303 H 0.76563 0.45069 0.26325 0.0
C304 C 0.18383 0.88722 0.81645 0.0
C305 C 0.14475 0.89996 0.79788 0.0
C306 C 0.22903 0.88587 0.7957 0.0
C307 C 0.23538 0.89831 0.75634 0.0
C308 C 0.19576 0.91105 0.73747 0.0
C309 C 0.15071 0.91136 0.75819 0.0
C310 C 0.27013 0.87147 0.81611 0.0
C311 C 0.2014 0.92523 0.69627 0.0
C312 C 0.3621 0.92112 0.72943 0.0
C313 C 0.3755 0.90466 0.69692 0.0
C314 C 0.31643 0.9193 0.74881 0.0
C315 C 0.28426 0.89987 0.73647 0.0
C316 C 0.29814 0.88281 0.70416 0.0
C317 C 0.34348 0.88572 0.68408 0.0
C318 C 0.30239 0.93842 0.78203 0.0
C319 C 0.2654 0.86137 0.69125 0.0
H320 H 0.17893 0.87814 0.84692 0.0
H321 H 0.12044 0.92131 0.74389 0.0
H322 H 0.28665 0.85833 0.79291 0.0
H323 H 0.29908 0.88468 0.82628 0.0
H324 H 0.25782 0.86062 0.84422 0.0
H325 H 0.16662 0.93367 0.68536 0.0
H326 H 0.22857 0.94048 0.70028 0.0
H327 H 0.2152 0.91257 0.67109 0.0
H328 H 0.3872 0.93573 0.7392 0.0
H329 H 0.35454 0.87276 0.65938 0.0
H330 H 0.29509 0.92892 0.81266 0.0
H331 H 0.26839 0.94813 0.77246 0.0
H332 H 0.3312 0.95275 0.78707 0.0
H333 H 0.25562 0.84999 0.71948 0.0
H334 H 0.28277 0.84892 0.66738 0.0
H335 H 0.23101 0.86879 0.67778 0.0
C336 C 0.68314 0.62742 0.68475 0.0
C337 C 0.64519 0.61362 0.70299 0.0
C338 C 0.72865 0.62898 0.70492 0.0
C339 C 0.73643 0.6157 0.74328 0.0
C340 C 0.69797 0.60186 0.76179 0.0
C341 C 0.65262 0.60132 0.74172 0.0
C342 C 0.76852 0.6445 0.68498 0.0
C343 C 0.7052 0.5868 0.8019 0.0
C344 C 0.86415 0.5938 0.76806 0.0
C345 C 0.8768 0.60943 0.80194 0.0
C346 C 0.81856 0.59573 0.74864 0.0
C347 C 0.78565 0.61445 0.76245 0.0
C348 C 0.79884 0.6308 0.79601 0.0
C349 C 0.84414 0.62776 0.81603 0.0
C350 C 0.80524 0.57734 0.71405 0.0
C351 C 0.76522 0.65149 0.81056 0.0
H352 H 0.67711 0.63717 0.65503 0.0
H353 H 0.62324 0.59055 0.75575 0.0
H354 H 0.78457 0.65739 0.70882 0.0
H355 H 0.79811 0.63203 0.67365 0.0
H356 H 0.75512 0.65575 0.65772 0.0
H357 H 0.67118 0.57744 0.81258 0.0
H358 H 0.73333 0.57219 0.79655 0.0
H359 H 0.71846 0.59909 0.82781 0.0
H360 H 0.88968 0.57962 0.75735 0.0
H361 H 0.85457 0.64008 0.84184 0.0
H362 H 0.79666 0.58754 0.68434 0.0
H363 H 0.77214 0.56672 0.72331 0.0
H364 H 0.83492 0.56372 0.70745 0.0
H365 H 0.75417 0.66323 0.78313 0.0
H366 H 0.78241 0.66375 0.8348 0.0
H367 H 0.73158 0.64329 0.82421 0.0
C368 C 0.66417 0.92339 0.70737 0.0
C369 C 0.6321 0.9106 0.73442 0.0
C370 C 0.71398 0.92514 0.71705 0.0
C371 C 0.73209 0.91336 0.7541 0.0
C372 C 0.69964 0.90118 0.78216 0.0
C373 C 0.65006 0.90015 0.77218 0.0
C374 C 0.74747 0.93875 0.68686 0.0
C375 C 0.7176 0.88792 0.82153 0.0
C376 C 0.86052 0.88791 0.75138 0.0
C377 C 0.88508 0.90457 0.77828 0.0
C378 C 0.81082 0.89074 0.74311 0.0
C379 C 0.78532 0.91117 0.76124 0.0
C380 C 0.81014 0.92841 0.78778 0.0
C381 C 0.85977 0.92464 0.79661 0.0
C382 C 0.7854 0.87147 0.71575 0.0
C383 C 0.78429 0.95073 0.80676 0.0
H384 H 0.6505 0.93174 0.67838 0.0
H385 H 0.62567 0.89016 0.79329 0.0
H386 H 0.77176 0.95171 0.70452 0.0
H387 H 0.77097 0.92497 0.67024 0.0
H388 H 0.72705 0.94967 0.66269 0.0
H389 H 0.68726 0.88086 0.84155 0.0
H390 H 0.74073 0.87174 0.81227 0.0
H391 H 0.74041 0.9007 0.84089 0.0
H392 H 0.88007 0.87224 0.73752 0.0
H393 H 0.87898 0.93763 0.81711 0.0
H394 H 0.76853 0.88073 0.68791 0.0
H395 H 0.75572 0.86237 0.73403 0.0
H396 H 0.81059 0.85665 0.70424 0.0
H397 H 0.7664 0.96181 0.78136 0.0
H398 H 0.80947 0.96321 0.82452 0.0
H399 H 0.75528 0.94427 0.82865 0.0
C400 C 0.36448 0.61551 0.76162 0.0
C401 C 0.38722 0.60251 0.72843 0.0
C402 C 0.31471 0.61273 0.7695 0.0
C403 C 0.28714 0.596 0.74428 0.0
C404 C 0.31022 0.58197 0.71183 0.0
C405 C 0.36003 0.58571 0.70378 0.0
C406 C 0.29126 0.62862 0.80356 0.0
C407 C 0.28212 0.56346 0.68513 0.0
C408 C 0.1621 0.58298 0.79041 0.0
C409 C 0.13353 0.60001 0.76748 0.0
C410 C 0.21186 0.58013 0.78124 0.0
C411 C 0.2335 0.59531 0.74951 0.0
C412 C 0.20446 0.61213 0.72576 0.0
C413 C 0.15474 0.61401 0.73467 0.0
C414 C 0.24153 0.56148 0.80632 0.0
C415 C 0.22633 0.62922 0.69256 0.0
H416 H 0.38531 0.62868 0.78054 0.0
H417 H 0.3777 0.57547 0.67837 0.0
H418 H 0.26393 0.64133 0.78905 0.0
H419 H 0.27179 0.61654 0.82664 0.0
H420 H 0.31819 0.64022 0.82107 0.0
H421 H 0.30642 0.55185 0.66492 0.0
H422 H 0.26026 0.55084 0.70568 0.0
H423 H 0.25635 0.57367 0.66429 0.0
H424 H 0.1456 0.57195 0.81548 0.0
H425 H 0.13283 0.62734 0.71706 0.0
H426 H 0.26631 0.57163 0.82814 0.0
H427 H 0.2645 0.55004 0.78476 0.0
H428 H 0.21821 0.54871 0.8254 0.0
H429 H 0.25226 0.6424 0.70783 0.0
H430 H 0.19829 0.64038 0.67557 0.0
H431 H 0.24709 0.61814 0.66895 0.0
C432 C 0.65389 0.11675 0.23152 0.0
C433 C 0.63333 0.10391 0.266 0.0
C434 C 0.70369 0.11508 0.22269 0.0
C435 C 0.73358 0.0997 0.24834 0.0
C436 C 0.71269 0.08566 0.28189 0.0
C437 C 0.6628 0.08823 0.29077 0.0
C438 C 0.72469 0.13089 0.18733 0.0
C439 C 0.74329 0.06855 0.30916 0.0
C440 C 0.86018 0.08833 0.20371 0.0
C441 C 0.88741 0.10624 0.22602 0.0
C442 C 0.81033 0.08502 0.21212 0.0
C443 C 0.78719 0.10053 0.24254 0.0
C444 C 0.81473 0.11847 0.26532 0.0
C445 C 0.86457 0.12087 0.25715 0.0
C446 C 0.7823 0.06526 0.18803 0.0
C447 C 0.79122 0.13586 0.29719 0.0
H448 H 0.63137 0.12904 0.2124 0.0
H449 H 0.64693 0.07808 0.31719 0.0
H450 H 0.75011 0.145 0.20076 0.0
H451 H 0.74585 0.11901 0.16512 0.0
H452 H 0.69611 0.14093 0.16909 0.0
H453 H 0.72066 0.05651 0.33013 0.0
H454 H 0.76645 0.05633 0.28903 0.0
H455 H 0.76793 0.07994 0.32929 0.0
H456 H 0.87789 0.07683 0.17991 0.0
H457 H 0.88541 0.13488 0.27426 0.0
H458 H 0.75571 0.0744 0.16654 0.0
H459 H 0.76132 0.05332 0.21036 0.0
H460 H 0.80652 0.05306 0.16878 0.0
H461 H 0.76349 0.14766 0.28115 0.0
H462 H 0.81804 0.14842 0.31283 0.0
H463 H 0.77221 0.12484 0.32199 0.0
C464 C 0.16034 0.42056 0.20945 0.0
C465 C 0.12903 0.40656 0.23543 0.0
C466 C 0.21017 0.42254 0.21899 0.0
C467 C 0.22912 0.40974 0.25473 0.0
C468 C 0.19745 0.39611 0.28158 0.0
C469 C 0.1478 0.39489 0.27184 0.0
C470 C 0.24275 0.43769 0.19016 0.0
C471 C 0.21633 0.38173 0.31947 0.0
C472 C 0.35953 0.38698 0.25101 0.0
C473 C 0.38253 0.4032 0.27973 0.0
C474 C 0.30977 0.38916 0.24229 0.0
C475 C 0.28249 0.40844 0.26197 0.0
C476 C 0.30569 0.4253 0.29025 0.0
C477 C 0.35544 0.42224 0.29931 0.0
C478 C 0.28617 0.37037 0.21285 0.0
C479 C 0.2779 0.44641 0.31105 0.0
H480 H 0.146 0.42982 0.18151 0.0
H481 H 0.12396 0.38392 0.29202 0.0
H482 H 0.26584 0.45062 0.20904 0.0
H483 H 0.26749 0.42492 0.17262 0.0
H484 H 0.22167 0.44885 0.16676 0.0
H485 H 0.18655 0.37317 0.33843 0.0
H486 H 0.24102 0.36655 0.30861 0.0
H487 H 0.2378 0.39427 0.34039 0.0
H488 H 0.38029 0.3721 0.23608 0.0
H489 H 0.37329 0.43494 0.32121 0.0
H490 H 0.26849 0.38022 0.18598 0.0
H491 H 0.25733 0.35991 0.23003 0.0
H492 H 0.31269 0.35663 0.19987 0.0
H493 H 0.25887 0.45776 0.28664 0.0
H494 H 0.30199 0.45897 0.32978 0.0
H495 H 0.24966 0.43861 0.33245 0.0
C496 C 0.02607 0.03225 0.08426 0.0
C497 C -0.00103 0.05429 0.07814 0.0
C498 C 0.02381 0.0123 0.05522 0.0
C499 C 0.99257 0.01402 0.01964 0.0
C500 C 0.96363 0.03584 0.01415 0.0
C501 C 0.96775 0.05591 0.0431 0.0
C502 C 0.05645 0.98981 0.06175 0.0
C503 C 0.9289 0.03816 0.97731 0.0
C504 C 0.02836 0.97616 0.92224 0.0
C505 C 0.00072 0.95418 0.92703 0.0
C506 C 0.02563 0.99577 0.95188 0.0
C507 C 0.99332 0.9938 0.9867 0.0
C508 C 0.96416 0.97194 0.99107 0.0
C509 C 0.96879 0.95219 0.96154 0.0
C510 C 0.05852 0.0183 0.94655 0.0
C511 C 0.92832 0.96939 0.02707 0.0
H512 H 0.05055 0.03092 0.11111 0.0
H513 H 0.94648 0.07282 0.03839 0.0
H514 H 0.03454 0.97233 0.0626 0.0
H515 H 0.08217 0.98815 0.03475 0.0
H516 H 0.07783 0.99109 0.09156 0.0
H517 H 0.90536 0.05504 0.97993 0.0
H518 H 0.94968 0.03934 0.94723 0.0
H519 H 0.90541 0.02124 0.97534 0.0
H520 H 0.05339 0.97777 0.8958 0.0
H521 H 0.94709 0.93532 0.96519 0.0
H522 H 0.08269 0.0201 0.97457 0.0
H523 H 0.03656 0.03572 0.94462 0.0
H524 H 0.08153 0.01698 0.91767 0.0
H525 H 0.94808 0.96858 0.05769 0.0
H526 H 0.90552 0.95225 0.02408 0.0
H527 H 0.90414 0.98607 0.02819 0.0
C528 C -0.00321 0.53346 0.92314 0.0
C529 C 0.0263 0.55492 0.92537 0.0
C530 C -7e-05 0.51436 0.95365 0.0
C531 C 0.0345 0.51629 0.98676 0.0
C532 C 0.06557 0.53757 0.98849 0.0
C533 C 0.06055 0.55687 0.95814 0.0
C534 C 0.96503 0.49247 0.95116 0.0
C535 C 0.1038 0.54001 0.02256 0.0
C536 C 0.0028 0.48026 0.08709 0.0
C537 C 0.02708 0.45736 0.08088 0.0
C538 C 0.00612 0.49981 0.05736 0.0
C539 C 0.03547 0.49675 0.02083 0.0
C540 C 0.06192 0.4741 0.01531 0.0
C541 C 0.05687 0.45452 0.0451 0.0
C542 C 0.97624 0.52329 0.06412 0.0
C543 C 0.09457 0.47032 0.97737 0.0
H544 H 0.96997 0.53191 0.89807 0.0
H545 H 0.08369 0.57333 0.9598 0.0
H546 H 0.98546 0.47455 0.94932 0.0
H547 H 0.94241 0.49176 0.9803 0.0
H548 H 0.94045 0.49371 0.92327 0.0
H549 H 0.12787 0.55649 0.01737 0.0
H550 H 0.08607 0.54197 0.05398 0.0
H551 H 0.12652 0.52279 0.02367 0.0
H552 H 0.9795 0.48261 0.11454 0.0
H553 H 0.07601 0.43696 0.04026 0.0
H554 H 0.94889 0.52505 0.0384 0.0
H555 H -0.00019 0.54017 0.0627 0.0
H556 H 0.95686 0.52319 0.09503 0.0
H557 H 0.07217 0.46879 0.94825 0.0
H558 H 0.11709 0.45308 0.98027 0.0
H559 H 0.11904 0.48673 0.9733 0.0
C560 C 0.51003 0.48415 0.41106 0.0
C561 C 0.49348 0.46023 0.42307 0.0
C562 C 0.50801 0.5046 0.43915 0.0
C563 C 0.4882 0.50126 0.48021 0.0
C564 C 0.46928 0.47744 0.49185 0.0
C565 C 0.47253 0.45715 0.46329 0.0
C566 C 0.52941 0.52946 0.42558 0.0
C567 C 0.44706 0.47317 0.53501 0.0
C568 C 0.53655 0.54237 0.56932 0.0
C569 C 0.50101 0.56115 0.57225 0.0
C570 C 0.533 0.52307 0.5392 0.0
C571 C 0.49189 0.52191 0.5122 0.0
C572 C 0.45542 0.54071 0.51536 0.0
C573 C 0.46087 0.56042 0.5449 0.0
C574 C 0.5736 0.50403 0.53607 0.0
C575 C 0.4104 0.53974 0.48805 0.0
H576 H 0.52629 0.48677 0.38006 0.0
H577 H 0.45938 0.4388 0.47275 0.0
H578 H 0.50287 0.54484 0.43077 0.0
H579 H 0.56193 0.53371 0.44517 0.0
H580 H 0.54037 0.5295 0.39167 0.0
H581 H 0.42896 0.45457 0.53743 0.0
H582 H 0.47581 0.47423 0.55963 0.0
H583 H 0.42001 0.48805 0.54217 0.0
H584 H 0.56781 0.54302 0.59027 0.0
H585 H 0.43312 0.5748 0.54746 0.0
H586 H 0.58846 0.50377 0.50335 0.0
H587 H 0.55938 0.48496 0.54288 0.0
H588 H 0.60383 0.50807 0.55843 0.0
H589 H 0.42063 0.54064 0.45407 0.0
H590 H 0.38486 0.55537 0.49507 0.0
H591 H 0.39118 0.52165 0.49306 0.0
C592 C 0.55734 0.95546 0.54036 0.0
C593 C 0.52893 0.95887 0.57685 0.0
C594 C 0.56206 0.97477 0.51 0.0
C595 C 0.53675 0.99775 0.51576 0.0
C596 C 0.50869 1.00134 0.55291 0.0
C597 C 0.50562 0.98204 0.58309 0.0
C598 C 0.59331 0.97042 0.47135 0.0
C599 C 0.48011 0.02521 0.56003 0.0
C600 C 0.56308 0.05778 0.45334 0.0
C601 C 0.52773 0.05652 0.42138 0.0
C602 C 0.56819 0.03817 0.4831 0.0
C603 C 0.53607 0.01731 0.48171 0.0
C604 C 0.5005 0.01602 0.4493 0.0
C605 C 0.49732 0.03539 0.41924 0.0
C606 C 0.6075 0.03993 0.51636 0.0
C607 C 0.46443 0.99463 0.44728 0.0
H608 H 0.57571 0.93768 0.53544 0.0
H609 H 0.4834 0.98486 0.61109 0.0
H610 H 0.56999 0.96934 0.44272 0.0
H611 H 0.61874 0.98639 0.46678 0.0
H612 H 0.61471 0.95278 0.47373 0.0
H613 H 0.46119 0.02537 0.59116 0.0
H614 H 0.50454 0.04175 0.55841 0.0
H615 H 0.45249 0.02739 0.53463 0.0
H616 H 0.58691 0.07398 0.4549 0.0
H617 H 0.46966 0.0344 0.3948 0.0
H618 H 0.62903 0.02231 0.51711 0.0
H619 H 0.59077 0.04228 0.54812 0.0
H620 H 0.63255 0.05595 0.51059 0.0
H621 H 0.48385 0.97642 0.44529 0.0
H622 H 0.4395 0.9962 0.41968 0.0
H623 H 0.44225 0.99429 0.47669 0.0
loop_
_geom_bond_atom_site_label_1
_geom_bond_atom_site_label_2
_geom_bond_distance
_geom_bond_site_symmetry_2
_ccdc_geom_bond_type
Co0 O1 2.216 . S
Co0 O2 2.091 . S
Co0 O4 2.004 . S
Co0 O10 2.021 1_455 S
Co0 O12 2.137 . S
Co0 O13 2.244 . S
O1 Co0 2.216 . S
O1 C8 1.247 . S
O2 Co0 2.091 . S
O2 C8 1.261 . S
C3 O12 1.247 . S
C3 O13 1.272 . S
O4 Co0 2.004 . S
O4 C9 1.259 . S
Co5 O6 2.061 . S
Co5 O11 2.052 1_455 S
Co5 O13 2.135 . S
O6 Co5 2.061 . S
O6 C9 1.235 . S
C7 O10 1.238 . S
C7 O11 1.241 . S
C8 O1 1.247 . S
C8 O2 1.261 . S
C9 O4 1.259 . S
C9 O6 1.235 . S
O10 Co0 2.021 1_655 S
O10 C7 1.238 . S
O11 Co5 2.052 1_655 S
O11 C7 1.241 . S
O12 Co0 2.137 . S
O12 C3 1.247 . S
O13 Co0 2.244 . S
O13 C3 1.272 . S
O13 Co5 2.135 . S
Co14 O15 2.216 . S
Co14 O16 2.091 . S
Co14 O18 2.004 . S
Co14 O24 2.021 . S
Co14 O26 2.137 1_455 S
Co14 O27 2.244 1_455 S
O15 Co14 2.216 . S
O15 C22 1.247 . S
O16 Co14 2.091 . S
O16 C22 1.261 . S
C17 O26 1.247 . S
C17 O27 1.272 . S
O18 Co14 2.004 . S
O18 C23 1.259 . S
Co19 O20 2.061 . S
Co19 O25 2.052 . S
Co19 O27 2.135 1_455 S
O20 Co19 2.061 . S
O20 C23 1.235 . S
C21 O24 1.238 . S
C21 O25 1.241 . S
C22 O15 1.247 . S
C22 O16 1.261 . S
C23 O18 1.259 . S
C23 O20 1.235 . S
O24 Co14 2.021 . S
O24 C21 1.238 . S
O25 Co19 2.052 . S
O25 C21 1.241 . S
O26 Co14 2.137 1_655 S
O26 C17 1.247 . S
O27 Co14 2.244 1_655 S
O27 C17 1.272 . S
O27 Co19 2.135 1_655 S
Co28 O29 2.216 . S
Co28 O30 2.091 . S
Co28 O32 2.004 . S
Co28 O38 2.021 1_455 S
Co28 O40 2.137 . S
Co28 O41 2.244 . S
O29 Co28 2.216 . S
O29 C36 1.247 . S
O30 Co28 2.091 . S
O30 C36 1.261 . S
C31 O40 1.247 . S
C31 O41 1.272 . S
O32 Co28 2.004 . S
O32 C37 1.259 . S
Co33 O34 2.061 . S
Co33 O39 2.052 1_455 S
Co33 O41 2.135 . S
O34 Co33 2.061 . S
O34 C37 1.235 . S
C35 O38 1.238 . S
C35 O39 1.241 . S
C36 O29 1.247 . S
C36 O30 1.261 . S
C37 O32 1.259 . S
C37 O34 1.235 . S
O38 Co28 2.021 1_655 S
O38 C35 1.238 . S
O39 Co33 2.052 1_655 S
O39 C35 1.241 . S
O40 Co28 2.137 . S
O40 C31 1.247 . S
O41 Co28 2.244 . S
O41 C31 1.272 . S
O41 Co33 2.135 . S
Co42 O43 2.216 . S
Co42 O44 2.091 . S
Co42 O46 2.004 . S
Co42 O52 2.021 . S
Co42 O54 2.137 1_455 S
Co42 O55 2.244 1_455 S
O43 Co42 2.216 . S
O43 C50 1.247 . S
O44 Co42 2.091 . S
O44 C50 1.261 . S
C45 O54 1.247 . S
C45 O55 1.272 . S
O46 Co42 2.004 . S
O46 C51 1.259 . S
Co47 O48 2.061 . S
Co47 O53 2.052 . S
Co47 O55 2.135 1_455 S
O48 Co47 2.061 . S
O48 C51 1.235 . S
C49 O52 1.238 . S
C49 O53 1.241 . S
C50 O43 1.247 . S
C50 O44 1.261 . S
C51 O46 1.259 . S
C51 O48 1.235 . S
O52 Co42 2.021 . S
O52 C49 1.238 . S
O53 Co47 2.052 . S
O53 C49 1.241 . S
O54 Co42 2.137 1_655 S
O54 C45 1.247 . S
O55 Co42 2.244 1_655 S
O55 C45 1.272 . S
O55 Co47 2.135 1_655 S
Co56 O57 2.216 . S
Co56 O58 2.091 . S
Co56 O60 2.004 . S
Co56 O66 2.021 . S
Co56 O68 2.137 . S
Co56 O69 2.244 . S
O57 Co56 2.216 . S
O57 C64 1.247 . S
O58 Co56 2.091 . S
O58 C64 1.261 . S
C59 O68 1.247 . S
C59 O69 1.272 . S
O60 Co56 2.004 . S
O60 C65 1.259 . S
Co61 O62 2.061 . S
Co61 O67 2.052 . S
Co61 O69 2.135 . S
O62 Co61 2.061 . S
O62 C65 1.235 . S
C63 O66 1.238 . S
C63 O67 1.241 . S
C64 O57 1.247 . S
C64 O58 1.261 . S
C65 O60 1.259 . S
C65 O62 1.235 . S
O66 Co56 2.021 . S
O66 C63 1.238 . S
O67 Co61 2.052 . S
O67 C63 1.241 . S
O68 Co56 2.137 . S
O68 C59 1.247 . S
O69 Co56 2.244 . S
O69 C59 1.272 . S
O69 Co61 2.135 . S
Co70 O71 2.216 . S
Co70 O72 2.091 . S
Co70 O74 2.004 . S
Co70 O80 2.021 . S
Co70 O82 2.137 . S
Co70 O83 2.244 . S
O71 Co70 2.216 . S
O71 C78 1.247 . S
O72 Co70 2.091 . S
O72 C78 1.261 . S
C73 O82 1.247 . S
C73 O83 1.272 . S
O74 Co70 2.004 . S
O74 C79 1.259 . S
Co75 O76 2.061 . S
Co75 O81 2.052 . S
Co75 O83 2.135 . S
O76 Co75 2.061 . S
O76 C79 1.235 . S
C77 O80 1.238 . S
C77 O81 1.241 . S
C78 O71 1.247 . S
C78 O72 1.261 . S
C79 O74 1.259 . S
C79 O76 1.235 . S
O80 Co70 2.021 . S
O80 C77 1.238 . S
O81 Co75 2.052 . S
O81 C77 1.241 . S
O82 Co70 2.137 . S
O82 C73 1.247 . S
O83 Co70 2.244 . S
O83 C73 1.272 . S
O83 Co75 2.135 . S
Co84 O85 2.216 . S
Co84 O86 2.091 . S
Co84 O88 2.004 . S
Co84 O94 2.021 . S
Co84 O96 2.137 . S
Co84 O97 2.244 . S
O85 Co84 2.216 . S
O85 C92 1.247 . S
O86 Co84 2.091 . S
O86 C92 1.261 . S
C87 O96 1.247 . S
C87 O97 1.272 . S
O88 Co84 2.004 . S
O88 C93 1.259 . S
Co89 O90 2.061 . S
Co89 O95 2.052 . S
Co89 O97 2.135 . S
O90 Co89 2.061 . S
O90 C93 1.235 . S
C91 O94 1.238 . S
C91 O95 1.241 . S
C92 O85 1.247 . S
C92 O86 1.261 . S
C93 O88 1.259 . S
C93 O90 1.235 . S
O94 Co84 2.021 . S
O94 C91 1.238 . S
O95 Co89 2.052 . S
O95 C91 1.241 . S
O96 Co84 2.137 . S
O96 C87 1.247 . S
O97 Co84 2.244 . S
O97 C87 1.272 . S
O97 Co89 2.135 . S
Co98 O99 2.216 . S
Co98 O100 2.091 . S
Co98 O102 2.004 . S
Co98 O108 2.021 . S
Co98 O110 2.137 . S
Co98 O111 2.244 . S
O99 Co98 2.216 . S
O99 C106 1.247 . S
O100 Co98 2.091 . S
O100 C106 1.261 . S
C101 O110 1.247 . S
C101 O111 1.272 . S
O102 Co98 2.004 . S
O102 C107 1.259 . S
Co103 O104 2.061 . S
Co103 O109 2.052 . S
Co103 O111 2.135 . S
O104 Co103 2.061 . S
O104 C107 1.235 . S
C105 O108 1.238 . S
C105 O109 1.241 . S
C106 O99 1.247 . S
C106 O100 1.261 . S
C107 O102 1.259 . S
C107 O104 1.235 . S
O108 Co98 2.021 . S
O108 C105 1.238 . S
O109 Co103 2.052 . S
O109 C105 1.241 . S
O110 Co98 2.137 . S
O110 C101 1.247 . S
O111 Co98 2.244 . S
O111 C101 1.272 . S
O111 Co103 2.135 . S
C112 C113 1.391 . S
C112 C114 1.394 . S
C112 H128 0.931 . S
C113 C112 1.391 . S
C113 C117 1.383 . S
C114 C112 1.394 . S
C114 C115 1.369 . S
C114 C118 1.531 . S
C115 C114 1.369 . S
C115 C116 1.410 . S
C115 C123 1.503 . S
C116 C115 1.410 . S
C116 C117 1.394 . S
C116 C119 1.511 1_455 S
C117 C113 1.383 . S
C117 C116 1.394 . S
C117 H129 0.920 1_455 S
C118 C114 1.531 . S
C118 H130 0.960 . S
C118 H131 0.962 . S
C118 H132 0.960 . S
C119 C116 1.511 1_655 S
C119 H133 0.961 . S
C119 H134 0.961 . S
C119 H135 0.961 1_655 S
C120 C121 1.370 1_655 S
C120 C122 1.363 . S
C120 H136 0.931 . S
C121 C120 1.370 1_455 S
C121 C125 1.408 . S
C122 C120 1.363 . S
C122 C123 1.370 1_655 S
C122 C126 1.524 . S
C123 C115 1.503 . S
C123 C122 1.370 1_455 S
C123 C124 1.403 . S
C124 C123 1.403 . S
C124 C125 1.404 . S
C124 C127 1.539 . S
C125 C121 1.408 . S
C125 C124 1.404 . S
C125 H137 0.930 . S
C126 C122 1.524 . S
C126 H138 0.956 . S
C126 H139 0.961 . S
C126 H140 0.961 . S
C127 C124 1.539 . S
C127 H141 0.958 . S
C127 H142 0.961 . S
C127 H143 0.960 . S
H128 C112 0.931 . S
H129 C117 0.920 1_655 S
H130 C118 0.960 . S
H131 C118 0.962 . S
H132 C118 0.960 . S
H133 C119 0.961 . S
H134 C119 0.961 . S
H135 C119 0.961 1_455 S
H136 C120 0.931 . S
H137 C125 0.930 . S
H138 C126 0.956 . S
H139 C126 0.961 . S
H140 C126 0.961 . S
H141 C127 0.958 . S
H142 C127 0.961 . S
H143 C127 0.960 . S
C144 C145 1.391 1_655 S
C144 C146 1.394 . S
C144 H160 0.931 . S
C145 C144 1.391 1_455 S
C145 C149 1.376 . S
C146 C144 1.394 . S
C146 C147 1.369 1_655 S
C146 C150 1.531 . S
C147 C146 1.369 1_455 S
C147 C148 1.410 . S
C147 C155 1.503 . S
C148 C147 1.410 . S
C148 C149 1.392 . S
C148 C151 1.511 . S
C149 C145 1.376 . S
C149 C148 1.392 . S
C149 H161 0.929 . S
C150 C146 1.531 . S
C150 H162 0.960 . S
C150 H163 0.962 . S
C150 H164 0.960 . S
C151 C148 1.511 . S
C151 H165 0.961 . S
C151 H166 0.961 . S
C151 H167 0.961 . S
C152 C153 1.370 . S
C152 C154 1.363 . S
C152 H168 0.931 . S
C153 C152 1.370 . S
C153 C157 1.408 . S
C154 C152 1.363 . S
C154 C155 1.370 . S
C154 C158 1.524 . S
C155 C147 1.503 . S
C155 C154 1.370 . S
C155 C156 1.403 . S
C156 C155 1.403 . S
C156 C157 1.404 . S
C156 C159 1.539 1_455 S
C157 C153 1.408 . S
C157 C156 1.404 . S
C157 H169 0.930 . S
C158 C154 1.524 . S
C158 H170 0.956 . S
C158 H171 0.961 . S
C158 H172 0.961 . S
C159 C156 1.539 1_655 S
C159 H173 0.958 . S
C159 H174 0.961 1_655 S
C159 H175 0.960 1_655 S
H160 C144 0.931 . S
H161 C149 0.929 . S
H162 C150 0.960 . S
H163 C150 0.962 . S
H164 C150 0.960 . S
H165 C151 0.961 . S
H166 C151 0.961 . S
H167 C151 0.961 . S
H168 C152 0.931 . S
H169 C157 0.930 . S
H170 C158 0.956 . S
H171 C158 0.961 . S
H172 C158 0.961 . S
H173 C159 0.958 . S
H174 C159 0.961 1_455 S
H175 C159 0.960 1_455 S
C176 C177 1.391 . S
C176 C178 1.394 . S
C176 H192 0.931 . S
C177 C176 1.391 . S
C177 C181 1.376 . S
C178 C176 1.394 . S
C178 C179 1.369 . S
C178 C182 1.531 . S
C179 C178 1.369 . S
C179 C180 1.410 . S
C179 C187 1.503 . S
C180 C179 1.410 . S
C180 C181 1.392 . S
C180 C183 1.511 . S
C181 C177 1.376 . S
C181 C180 1.392 . S
C181 H193 0.929 . S
C182 C178 1.531 . S
C182 H194 0.960 . S
C182 H195 0.962 . S
C182 H196 0.960 . S
C183 C180 1.511 . S
C183 H197 0.961 . S
C183 H198 0.961 . S
C183 H199 0.961 . S
C184 C185 1.370 . S
C184 C186 1.363 . S
C184 H200 0.931 . S
C185 C184 1.370 . S
C185 C189 1.408 . S
C186 C184 1.363 . S
C186 C187 1.370 . S
C186 C190 1.524 . S
C187 C179 1.503 . S
C187 C186 1.370 . S
C187 C188 1.403 . S
C188 C187 1.403 . S
C188 C189 1.404 . S
C188 C191 1.539 . S
C189 C185 1.408 . S
C189 C188 1.404 . S
C189 H201 0.930 . S
C190 C186 1.524 . S
C190 H202 0.956 . S
C190 H203 0.961 . S
C190 H204 0.961 . S
C191 C188 1.539 . S
C191 H205 0.958 . S
C191 H206 0.961 . S
C191 H207 0.960 . S
H192 C176 0.931 . S
H193 C181 0.929 . S
H194 C182 0.960 . S
H195 C182 0.962 . S
H196 C182 0.960 . S
H197 C183 0.961 . S
H198 C183 0.961 . S
H199 C183 0.961 . S
H200 C184 0.931 . S
H201 C189 0.930 . S
H202 C190 0.956 . S
H203 C190 0.961 . S
H204 C190 0.961 . S
H205 C191 0.958 . S
H206 C191 0.961 . S
H207 C191 0.960 . S
C208 C209 1.391 . S
C208 C210 1.394 . S
C208 H224 0.931 . S
C209 C208 1.391 . S
C209 C213 1.376 . S
C210 C208 1.394 . S
C210 C211 1.369 . S
C210 C214 1.531 . S
C211 C210 1.369 . S
C211 C212 1.410 . S
C211 C219 1.503 . S
C212 C211 1.410 . S
C212 C213 1.392 . S
C212 C215 1.511 . S
C213 C209 1.376 . S
C213 C212 1.392 . S
C213 H225 0.929 . S
C214 C210 1.531 . S
C214 H226 0.960 . S
C214 H227 0.962 . S
C214 H228 0.960 . S
C215 C212 1.511 . S
C215 H229 0.961 . S
C215 H230 0.961 . S
C215 H231 0.961 . S
C216 C217 1.370 . S
C216 C218 1.363 . S
C216 H232 0.931 . S
C217 C216 1.370 . S
C217 C221 1.408 . S
C218 C216 1.363 . S
C218 C219 1.370 . S
C218 C222 1.524 . S
C219 C211 1.503 . S
C219 C218 1.370 . S
C219 C220 1.403 . S
C220 C219 1.403 . S
C220 C221 1.404 . S
C220 C223 1.539 . S
C221 C217 1.408 . S
C221 C220 1.404 . S
C221 H233 0.930 . S
C222 C218 1.524 . S
C222 H234 0.956 . S
C222 H235 0.961 . S
C222 H236 0.961 . S
C223 C220 1.539 . S
C223 H237 0.958 . S
C223 H238 0.961 . S
C223 H239 0.960 . S
H224 C208 0.931 . S
H225 C213 0.929 . S
H226 C214 0.960 . S
H227 C214 0.962 . S
H228 C214 0.960 . S
H229 C215 0.961 . S
H230 C215 0.961 . S
H231 C215 0.961 . S
H232 C216 0.931 . S
H233 C221 0.930 . S
H234 C222 0.956 . S
H235 C222 0.961 . S
H236 C222 0.961 . S
H237 C223 0.958 . S
H238 C223 0.961 . S
H239 C223 0.960 . S
C240 C241 1.391 . S
C240 C242 1.394 . S
C240 H256 0.931 . S
C241 C240 1.391 . S
C241 C245 1.376 . S
C242 C240 1.394 . S
C242 C243 1.369 . S
C242 C246 1.531 . S
C243 C242 1.369 . S
C243 C244 1.410 . S
C243 C251 1.503 . S
C244 C243 1.410 . S
C244 C245 1.392 . S
C244 C247 1.511 . S
C245 C241 1.376 . S
C245 C244 1.392 . S
C245 H257 0.929 . S
C246 C242 1.531 . S
C246 H258 0.960 . S
C246 H259 0.962 . S
C246 H260 0.960 . S
C247 C244 1.511 . S
C247 H261 0.961 . S
C247 H262 0.961 . S
C247 H263 0.961 . S
C248 C249 1.370 . S
C248 C250 1.363 . S
C248 H264 0.931 . S
C249 C248 1.370 . S
C249 C253 1.408 . S
C250 C248 1.363 . S
C250 C251 1.370 . S
C250 C254 1.524 . S
C251 C243 1.503 . S
C251 C250 1.370 . S
C251 C252 1.403 . S
C252 C251 1.403 . S
C252 C253 1.404 . S
C252 C255 1.539 . S
C253 C249 1.408 . S
C253 C252 1.404 . S
C253 H265 0.930 . S
C254 C250 1.524 . S
C254 H266 0.956 . S
C254 H267 0.961 . S
C254 H268 0.961 . S
C255 C252 1.539 . S
C255 H269 0.958 . S
C255 H270 0.961 . S
C255 H271 0.960 . S
H256 C240 0.931 . S
H257 C245 0.929 . S
H258 C246 0.960 . S
H259 C246 0.962 . S
H260 C246 0.960 . S
H261 C247 0.961 . S
H262 C247 0.961 . S
H263 C247 0.961 . S
H264 C248 0.931 . S
H265 C253 0.930 . S
H266 C254 0.956 . S
H267 C254 0.961 . S
H268 C254 0.961 . S
H269 C255 0.958 . S
H270 C255 0.961 . S
H271 C255 0.960 . S
C272 C273 1.391 . S
C272 C274 1.394 . S
C272 H288 0.931 . S
C273 C272 1.391 . S
C273 C277 1.376 . S
C274 C272 1.394 . S
C274 C275 1.369 . S
C274 C278 1.531 . S
C275 C274 1.369 . S
C275 C276 1.410 . S
C275 C283 1.503 . S
C276 C275 1.410 . S
C276 C277 1.392 . S
C276 C279 1.511 . S
C277 C273 1.376 . S
C277 C276 1.392 . S
C277 H289 0.929 . S
C278 C274 1.531 . S
C278 H290 0.960 . S
C278 H291 0.962 . S
C278 H292 0.960 . S
C279 C276 1.511 . S
C279 H293 0.961 . S
C279 H294 0.961 . S
C279 H295 0.961 . S
C280 C281 1.370 . S
C280 C282 1.363 . S
C280 H296 0.931 . S
C281 C280 1.370 . S
C281 C285 1.408 . S
C282 C280 1.363 . S
C282 C283 1.370 . S
C282 C286 1.524 . S
C283 C275 1.503 . S
C283 C282 1.370 . S
C283 C284 1.403 . S
C284 C283 1.403 . S
C284 C285 1.404 . S
C284 C287 1.539 . S
C285 C281 1.408 . S
C285 C284 1.404 . S
C285 H297 0.930 . S
C286 C282 1.524 . S
C286 H298 0.956 . S
C286 H299 0.961 . S
C286 H300 0.961 . S
C287 C284 1.539 . S
C287 H301 0.958 . S
C287 H302 0.961 . S
C287 H303 0.960 . S
H288 C272 0.931 . S
H289 C277 0.929 . S
H290 C278 0.960 . S
H291 C278 0.962 . S
H292 C278 0.960 . S
H293 C279 0.961 . S
H294 C279 0.961 . S
H295 C279 0.961 . S
H296 C280 0.931 . S
H297 C285 0.930 . S
H298 C286 0.956 . S
H299 C286 0.961 . S
H300 C286 0.961 . S
H301 C287 0.958 . S
H302 C287 0.961 . S
H303 C287 0.960 . S
C304 C305 1.391 . S
C304 C306 1.394 . S
C304 H320 0.931 . S
C305 C304 1.391 . S
C305 C309 1.376 . S
C306 C304 1.394 . S
C306 C307 1.369 . S
C306 C310 1.531 . S
C307 C306 1.369 . S
C307 C308 1.410 . S
C307 C315 1.503 . S
C308 C307 1.410 . S
C308 C309 1.392 . S
C308 C311 1.511 . S
C309 C305 1.376 . S
C309 C308 1.392 . S
C309 H321 0.929 . S
C310 C306 1.531 . S
C310 H322 0.960 . S
C310 H323 0.962 . S
C310 H324 0.960 . S
C311 C308 1.511 . S
C311 H325 0.961 . S
C311 H326 0.961 . S
C311 H327 0.961 . S
C312 C313 1.370 . S
C312 C314 1.363 . S
C312 H328 0.931 . S
C313 C312 1.370 . S
C313 C317 1.408 . S
C314 C312 1.363 . S
C314 C315 1.370 . S
C314 C318 1.524 . S
C315 C307 1.503 . S
C315 C314 1.370 . S
C315 C316 1.403 . S
C316 C315 1.403 . S
C316 C317 1.404 . S
C316 C319 1.539 . S
C317 C313 1.408 . S
C317 C316 1.404 . S
C317 H329 0.930 . S
C318 C314 1.524 . S
C318 H330 0.956 . S
C318 H331 0.961 . S
C318 H332 0.961 . S
C319 C316 1.539 . S
C319 H333 0.958 . S
C319 H334 0.961 . S
C319 H335 0.960 . S
H320 C304 0.931 . S
H321 C309 0.929 . S
H322 C310 0.960 . S
H323 C310 0.962 . S
H324 C310 0.960 . S
H325 C311 0.961 . S
H326 C311 0.961 . S
H327 C311 0.961 . S
H328 C312 0.931 . S
H329 C317 0.930 . S
H330 C318 0.956 . S
H331 C318 0.961 . S
H332 C318 0.961 . S
H333 C319 0.958 . S
H334 C319 0.961 . S
H335 C319 0.960 . S
C336 C337 1.391 . S
C336 C338 1.394 . S
C336 H352 0.931 . S
C337 C336 1.391 . S
C337 C341 1.376 . S
C338 C336 1.394 . S
C338 C339 1.369 . S
C338 C342 1.531 . S
C339 C338 1.369 . S
C339 C340 1.410 . S
C339 C347 1.503 . S
C340 C339 1.410 . S
C340 C341 1.392 . S
C340 C343 1.511 . S
C341 C337 1.376 . S
C341 C340 1.392 . S
C341 H353 0.929 . S
C342 C338 1.531 . S
C342 H354 0.960 . S
C342 H355 0.962 . S
C342 H356 0.960 . S
C343 C340 1.511 . S
C343 H357 0.961 . S
C343 H358 0.961 . S
C343 H359 0.961 . S
C344 C345 1.370 . S
C344 C346 1.363 . S
C344 H360 0.931 . S
C345 C344 1.370 . S
C345 C349 1.408 . S
C346 C344 1.363 . S
C346 C347 1.370 . S
C346 C350 1.524 . S
C347 C339 1.503 . S
C347 C346 1.370 . S
C347 C348 1.403 . S
C348 C347 1.403 . S
C348 C349 1.404 . S
C348 C351 1.539 . S
C349 C345 1.408 . S
C349 C348 1.404 . S
C349 H361 0.930 . S
C350 C346 1.524 . S
C350 H362 0.956 . S
C350 H363 0.961 . S
C350 H364 0.961 . S
C351 C348 1.539 . S
C351 H365 0.958 . S
C351 H366 0.961 . S
C351 H367 0.960 . S
H352 C336 0.931 . S
H353 C341 0.929 . S
H354 C342 0.960 . S
H355 C342 0.962 . S
H356 C342 0.960 . S
H357 C343 0.961 . S
H358 C343 0.961 . S
H359 C343 0.961 . S
H360 C344 0.931 . S
H361 C349 0.930 . S
H362 C350 0.956 . S
H363 C350 0.961 . S
H364 C350 0.961 . S
H365 C351 0.958 . S
H366 C351 0.961 . S
H367 C351 0.960 . S
C368 C369 1.391 . S
C368 C370 1.394 . S
C368 H384 0.931 . S
C369 C368 1.391 . S
C369 C373 1.376 . S
C370 C368 1.394 . S
C370 C371 1.369 . S
C370 C374 1.531 . S
C371 C370 1.369 . S
C371 C372 1.410 . S
C371 C379 1.503 . S
C372 C371 1.410 . S
C372 C373 1.392 . S
C372 C375 1.511 . S
C373 C369 1.376 . S
C373 C372 1.392 . S
C373 H385 0.929 . S
C374 C370 1.531 . S
C374 H386 0.960 . S
C374 H387 0.962 . S
C374 H388 0.960 . S
C375 C372 1.511 . S
C375 H389 0.961 . S
C375 H390 0.961 . S
C375 H391 0.961 . S
C376 C377 1.370 . S
C376 C378 1.363 . S
C376 H392 0.931 . S
C377 C376 1.370 . S
C377 C381 1.408 . S
C378 C376 1.363 . S
C378 C379 1.370 . S
C378 C382 1.524 . S
C379 C371 1.503 . S
C379 C378 1.370 . S
C379 C380 1.403 . S
C380 C379 1.403 . S
C380 C381 1.404 . S
C380 C383 1.539 . S
C381 C377 1.408 . S
C381 C380 1.404 . S
C381 H393 0.930 . S
C382 C378 1.524 . S
C382 H394 0.956 . S
C382 H395 0.961 . S
C382 H396 0.961 . S
C383 C380 1.539 . S
C383 H397 0.958 . S
C383 H398 0.961 . S
C383 H399 0.960 . S
H384 C368 0.931 . S
H385 C373 0.929 . S
H386 C374 0.960 . S
H387 C374 0.962 . S
H388 C374 0.960 . S
H389 C375 0.961 . S
H390 C375 0.961 . S
H391 C375 0.961 . S
H392 C376 0.931 . S
H393 C381 0.930 . S
H394 C382 0.956 . S
H395 C382 0.961 . S
H396 C382 0.961 . S
H397 C383 0.958 . S
H398 C383 0.961 . S
H399 C383 0.960 . S
C400 C401 1.391 . S
C400 C402 1.394 . S
C400 H416 0.931 . S
C401 C400 1.391 . S
C401 C405 1.376 . S
C402 C400 1.394 . S
C402 C403 1.369 . S
C402 C406 1.531 . S
C403 C402 1.369 . S
C403 C404 1.410 . S
C403 C411 1.503 . S
C404 C403 1.410 . S
C404 C405 1.392 . S
C404 C407 1.511 . S
C405 C401 1.376 . S
C405 C404 1.392 . S
C405 H417 0.929 . S
C406 C402 1.531 . S
C406 H418 0.960 . S
C406 H419 0.962 . S
C406 H420 0.960 . S
C407 C404 1.511 . S
C407 H421 0.961 . S
C407 H422 0.961 . S
C407 H423 0.961 . S
C408 C409 1.370 . S
C408 C410 1.363 . S
C408 H424 0.931 . S
C409 C408 1.370 . S
C409 C413 1.408 . S
C410 C408 1.363 . S
C410 C411 1.370 . S
C410 C414 1.524 . S
C411 C403 1.503 . S
C411 C410 1.370 . S
C411 C412 1.403 . S
C412 C411 1.403 . S
C412 C413 1.404 . S
C412 C415 1.539 . S
C413 C409 1.408 . S
C413 C412 1.404 . S
C413 H425 0.930 . S
C414 C410 1.524 . S
C414 H426 0.956 . S
C414 H427 0.961 . S
C414 H428 0.961 . S
C415 C412 1.539 . S
C415 H429 0.958 . S
C415 H430 0.961 . S
C415 H431 0.960 . S
H416 C400 0.931 . S
H417 C405 0.929 . S
H418 C406 0.960 . S
H419 C406 0.962 . S
H420 C406 0.960 . S
H421 C407 0.961 . S
H422 C407 0.961 . S
H423 C407 0.961 . S
H424 C408 0.931 . S
H425 C413 0.930 . S
H426 C414 0.956 . S
H427 C414 0.961 . S
H428 C414 0.961 . S
H429 C415 0.958 . S
H430 C415 0.961 . S
H431 C415 0.960 . S
C432 C433 1.391 . S
C432 C434 1.394 . S
C432 H448 0.931 . S
C433 C432 1.391 . S
C433 C437 1.376 . S
C434 C432 1.394 . S
C434 C435 1.369 . S
C434 C438 1.531 . S
C435 C434 1.369 . S
C435 C436 1.410 . S
C435 C443 1.503 . S
C436 C435 1.410 . S
C436 C437 1.392 . S
C436 C439 1.511 . S
C437 C433 1.376 . S
C437 C436 1.392 . S
C437 H449 0.929 . S
C438 C434 1.531 . S
C438 H450 0.960 . S
C438 H451 0.962 . S
C438 H452 0.960 . S
C439 C436 1.511 . S
C439 H453 0.961 . S
C439 H454 0.961 . S
C439 H455 0.961 . S
C440 C441 1.370 . S
C440 C442 1.363 . S
C440 H456 0.931 . S
C441 C440 1.370 . S
C441 C445 1.408 . S
C442 C440 1.363 . S
C442 C443 1.370 . S
C442 C446 1.524 . S
C443 C435 1.503 . S
C443 C442 1.370 . S
C443 C444 1.403 . S
C444 C443 1.403 . S
C444 C445 1.404 . S
C444 C447 1.539 . S
C445 C441 1.408 . S
C445 C444 1.404 . S
C445 H457 0.930 . S
C446 C442 1.524 . S
C446 H458 0.956 . S
C446 H459 0.961 . S
C446 H460 0.961 . S
C447 C444 1.539 . S
C447 H461 0.958 . S
C447 H462 0.961 . S
C447 H463 0.960 . S
H448 C432 0.931 . S
H449 C437 0.929 . S
H450 C438 0.960 . S
H451 C438 0.962 . S
H452 C438 0.960 . S
H453 C439 0.961 . S
H454 C439 0.961 . S
H455 C439 0.961 . S
H456 C440 0.931 . S
H457 C445 0.930 . S
H458 C446 0.956 . S
H459 C446 0.961 . S
H460 C446 0.961 . S
H461 C447 0.958 . S
H462 C447 0.961 . S
H463 C447 0.960 . S
C464 C465 1.391 . S
C464 C466 1.394 . S
C464 H480 0.931 . S
C465 C464 1.391 . S
C465 C469 1.376 . S
C466 C464 1.394 . S
C466 C467 1.369 . S
C466 C470 1.531 . S
C467 C466 1.369 . S
C467 C468 1.410 . S
C467 C475 1.503 . S
C468 C467 1.410 . S
C468 C469 1.392 . S
C468 C471 1.511 . S
C469 C465 1.376 . S
C469 C468 1.392 . S
C469 H481 0.929 . S
C470 C466 1.531 . S
C470 H482 0.960 . S
C470 H483 0.962 . S
C470 H484 0.960 . S
C471 C468 1.511 . S
C471 H485 0.961 . S
C471 H486 0.961 . S
C471 H487 0.961 . S
C472 C473 1.370 . S
C472 C474 1.363 . S
C472 H488 0.931 . S
C473 C472 1.370 . S
C473 C477 1.408 . S
C474 C472 1.363 . S
C474 C475 1.370 . S
C474 C478 1.524 . S
C475 C467 1.503 . S
C475 C474 1.370 . S
C475 C476 1.403 . S
C476 C475 1.403 . S
C476 C477 1.404 . S
C476 C479 1.539 . S
C477 C473 1.408 . S
C477 C476 1.404 . S
C477 H489 0.930 . S
C478 C474 1.524 . S
C478 H490 0.956 . S
C478 H491 0.961 . S
C478 H492 0.961 . S
C479 C476 1.539 . S
C479 H493 0.958 . S
C479 H494 0.961 . S
C479 H495 0.960 . S
H480 C464 0.931 . S
H481 C469 0.929 . S
H482 C470 0.960 . S
H483 C470 0.962 . S
H484 C470 0.960 . S
H485 C471 0.961 . S
H486 C471 0.961 . S
H487 C471 0.961 . S
H488 C472 0.931 . S
H489 C477 0.930 . S
H490 C478 0.956 . S
H491 C478 0.961 . S
H492 C478 0.961 . S
H493 C479 0.958 . S
H494 C479 0.961 . S
H495 C479 0.960 . S
C496 C497 1.391 . S
C496 C498 1.394 . S
C496 H512 0.931 . S
C497 C496 1.391 . S
C497 C501 1.376 1_455 S
C498 C496 1.394 . S
C498 C499 1.369 . S
C498 C502 1.531 1_545 S
C499 C498 1.369 . S
C499 C500 1.410 1_455 S
C499 C507 1.503 1_544 S
C500 C499 1.410 1_655 S
C500 C501 1.392 . S
C500 C503 1.511 1_554 S
C501 C497 1.376 1_655 S
C501 C500 1.392 . S
C501 H513 0.929 . S
C502 C498 1.531 1_565 S
C502 H514 0.960 . S
C502 H515 0.962 . S
C502 H516 0.960 . S
C503 C500 1.511 1_556 S
C503 H517 0.961 . S
C503 H518 0.961 . S
C503 H519 0.961 . S
C504 C505 1.370 . S
C504 C506 1.363 . S
C504 H520 0.931 . S
C505 C504 1.370 . S
C505 C509 1.408 1_455 S
C506 C504 1.363 . S
C506 C507 1.370 . S
C506 C510 1.524 1_565 S
C507 C499 1.503 1_566 S
C507 C506 1.370 . S
C507 C508 1.403 1_455 S
C508 C507 1.403 1_655 S
C508 C509 1.404 . S
C508 C511 1.539 1_556 S
C509 C505 1.408 1_655 S
C509 C508 1.404 . S
C509 H521 0.930 . S
C510 C506 1.524 1_545 S
C510 H522 0.956 . S
C510 H523 0.961 . S
C510 H524 0.961 . S
C511 C508 1.539 1_554 S
C511 H525 0.958 . S
C511 H526 0.961 . S
C511 H527 0.960 . S
H512 C496 0.931 . S
H513 C501 0.929 . S
H514 C502 0.960 . S
H515 C502 0.962 . S
H516 C502 0.960 . S
H517 C503 0.961 . S
H518 C503 0.961 . S
H519 C503 0.961 . S
H520 C504 0.931 . S
H521 C509 0.930 . S
H522 C510 0.956 . S
H523 C510 0.961 . S
H524 C510 0.961 . S
H525 C511 0.958 . S
H526 C511 0.961 . S
H527 C511 0.960 . S
C528 C529 1.391 1_655 S
C528 C530 1.394 . S
C528 H544 0.931 . S
C529 C528 1.391 1_455 S
C529 C533 1.376 . S
C530 C528 1.394 . S
C530 C531 1.369 1_655 S
C530 C534 1.531 . S
C531 C530 1.369 1_455 S
C531 C532 1.410 . S
C531 C539 1.503 1_556 S
C532 C531 1.410 . S
C532 C533 1.392 . S
C532 C535 1.511 1_556 S
C533 C529 1.376 . S
C533 C532 1.392 . S
C533 H545 0.929 . S
C534 C530 1.531 . S
C534 H546 0.960 . S
C534 H547 0.962 . S
C534 H548 0.960 . S
C535 C532 1.511 1_554 S
C535 H549 0.961 . S
C535 H550 0.961 . S
C535 H551 0.961 1_554 S
C536 C537 1.370 . S
C536 C538 1.363 . S
C536 H552 0.931 1_455 S
C537 C536 1.370 . S
C537 C541 1.408 . S
C538 C536 1.363 . S
C538 C539 1.370 . S
C538 C542 1.524 1_455 S
C539 C531 1.503 1_554 S
C539 C538 1.370 . S
C539 C540 1.402 . S
C540 C539 1.402 . S
C540 C541 1.402 . S
C540 C543 1.541 1_554 S
C541 C537 1.408 . S
C541 C540 1.402 . S
C541 H553 0.930 . S
C542 C538 1.524 1_655 S
C542 H554 0.956 . S
C542 H555 0.961 1_655 S
C542 H556 0.961 . S
C543 C540 1.541 1_556 S
C543 H557 0.958 . S
C543 H558 0.961 . S
C543 H559 0.960 . S
H544 C528 0.931 . S
H545 C533 0.929 . S
H546 C534 0.960 . S
H547 C534 0.962 . S
H548 C534 0.960 . S
H549 C535 0.961 . S
H550 C535 0.961 . S
H551 C535 0.961 1_556 S
H552 C536 0.931 1_655 S
H553 C541 0.930 . S
H554 C542 0.956 . S
H555 C542 0.961 1_455 S
H556 C542 0.961 . S
H557 C543 0.958 . S
H558 C543 0.961 . S
H559 C543 0.960 . S
C560 C561 1.391 . S
C560 C562 1.394 . S
C560 H576 0.931 . S
C561 C560 1.391 . S
C561 C565 1.376 . S
C562 C560 1.394 . S
C562 C563 1.369 . S
C562 C566 1.531 . S
C563 C562 1.369 . S
C563 C564 1.410 . S
C563 C571 1.503 . S
C564 C563 1.410 . S
C564 C565 1.392 . S
C564 C567 1.511 . S
C565 C561 1.376 . S
C565 C564 1.392 . S
C565 H577 0.929 . S
C566 C562 1.531 . S
C566 H578 0.960 . S
C566 H579 0.962 . S
C566 H580 0.960 . S
C567 C564 1.511 . S
C567 H581 0.961 . S
C567 H582 0.961 . S
C567 H583 0.961 . S
C568 C569 1.370 . S
C568 C570 1.363 . S
C568 H584 0.931 . S
C569 C568 1.370 . S
C569 C573 1.408 . S
C570 C568 1.363 . S
C570 C571 1.370 . S
C570 C574 1.524 . S
C571 C563 1.503 . S
C571 C570 1.370 . S
C571 C572 1.403 . S
C572 C571 1.403 . S
C572 C573 1.404 . S
C572 C575 1.539 . S
C573 C569 1.408 . S
C573 C572 1.404 . S
C573 H585 0.930 . S
C574 C570 1.524 . S
C574 H586 0.956 . S
C574 H587 0.961 . S
C574 H588 0.961 . S
C575 C572 1.539 . S
C575 H589 0.958 . S
C575 H590 0.961 . S
C575 H591 0.960 . S
H576 C560 0.931 . S
H577 C565 0.929 . S
H578 C566 0.960 . S
H579 C566 0.962 . S
H580 C566 0.960 . S
H581 C567 0.961 . S
H582 C567 0.961 . S
H583 C567 0.961 . S
H584 C568 0.931 . S
H585 C573 0.930 . S
H586 C574 0.956 . S
H587 C574 0.961 . S
H588 C574 0.961 . S
H589 C575 0.958 . S
H590 C575 0.961 . S
H591 C575 0.960 . S
C592 C593 1.391 . S
C592 C594 1.394 . S
C592 H608 0.931 . S
C593 C592 1.391 . S
C593 C597 1.376 . S
C594 C592 1.394 . S
C594 C595 1.369 . S
C594 C598 1.531 . S
C595 C594 1.369 . S
C595 C596 1.410 . S
C595 C603 1.503 1_565 S
C596 C595 1.410 . S
C596 C597 1.392 . S
C596 C599 1.511 1_565 S
C597 C593 1.376 . S
C597 C596 1.392 . S
C597 H609 0.929 . S
C598 C594 1.531 . S
C598 H610 0.960 . S
C598 H611 0.962 . S
C598 H612 0.960 . S
C599 C596 1.511 1_545 S
C599 H613 0.961 . S
C599 H614 0.961 . S
C599 H615 0.961 . S
C600 C601 1.370 . S
C600 C602 1.363 . S
C600 H616 0.931 . S
C601 C600 1.370 . S
C601 C605 1.408 . S
C602 C600 1.363 . S
C602 C603 1.370 . S
C602 C606 1.524 . S
C603 C595 1.503 1_545 S
C603 C602 1.370 . S
C603 C604 1.403 . S
C604 C603 1.403 . S
C604 C605 1.404 . S
C604 C607 1.539 . S
C605 C601 1.408 . S
C605 C604 1.404 . S
C605 H617 0.930 . S
C606 C602 1.524 . S
C606 H618 0.956 1_545 S
C606 H619 0.961 . S
C606 H620 0.961 . S
C607 C604 1.539 . S
C607 H621 0.958 1_545 S
C607 H622 0.961 . S
C607 H623 0.960 . S
H608 C592 0.931 . S
H609 C597 0.929 . S
H610 C598 0.960 . S
H611 C598 0.962 . S
H612 C598 0.960 . S
H613 C599 0.961 . S
H614 C599 0.961 . S
H615 C599 0.961 . S
H616 C600 0.931 . S
H617 C605 0.930 . S
H618 C606 0.956 1_565 S
H619 C606 0.961 . S
H620 C606 0.961 . S
H621 C607 0.958 1_565 S
H622 C607 0.961 . S
H623 C607 0.960 . S
C113 C23 1.401 . S
C121 C9 1.407 . S
C145 C37 1.388 . S
C153 C51 1.404 . S
C177 C65 1.404 . S
C185 C79 1.415 . S
C209 C93 1.388 . S
C217 C107 1.406 . S
C241 C101 1.421 . S
C249 C3 1.441 . S
C273 C87 1.443 . S
C281 C17 1.442 . S
C305 C31 1.434 . S
C313 C73 1.433 . S
C337 C59 1.434 . S
C345 C45 1.434 . S
C369 C77 1.377 . S
C377 C35 1.374 . S
C401 C63 1.352 . S
C409 C49 1.351 . S
C433 C105 1.356 . S
C441 C7 1.351 . S
C465 C21 1.372 . S
C473 C91 1.374 . S
C497 C8 1.372 . S
C505 C36 1.372 . S
C529 C50 1.372 . S
C537 C22 1.371 . S
C561 C92 1.372 . S
C569 C64 1.373 . S
C593 C78 1.362 . S
C601 C106 1.369 . S
