# Generated by pormake.
# Topology ana, (4)-cn, num edge types: 1
# Building blocks:
#     Node 0, Type 0, BuildingBlock: AZAVOO_clean_sbu_0, # of connection points: 4
#     Node 1, Type 0, BuildingBlock: AZAVOO_clean_sbu_0, # of connection points: 4
#     Node 2, Type 0, BuildingBlock: AZAVOO_clean_sbu_0, # of connection points: 4
#     Node 3, Type 0, BuildingBlock: AZAVOO_clean_sbu_0, # of connection points: 4
#     Node 4, Type 0, BuildingBlock: AZAVOO_clean_sbu_0, # of connection points: 4
#     Node 5, Type 0, BuildingBlock: AZAVOO_clean_sbu_0, # of connection points: 4
#     Node 6, Type 0, BuildingBlock: AZAVOO_clean_sbu_0, # of connection points: 4
#     Node 7, Type 0, BuildingBlock: AZAVOO_clean_sbu_0, # of connection points: 4
#     Node 8, Type 0, BuildingBlock: AZAVOO_clean_sbu_0, # of connection points: 4
#     Node 9, Type 0, BuildingBlock: AZAVOO_clean_sbu_0, # of connection points: 4
#     Node 10, Type 0, BuildingBlock: AZAVOO_clean_sbu_0, # of connection points: 4
#     Node 11, Type 0, BuildingBlock: AZAVOO_clean_sbu_0, # of connection points: 4
#     Node 12, Type 0, BuildingBlock: AZAVOO_clean_sbu_0, # of connection points: 4
#     Node 13, Type 0, BuildingBlock: AZAVOO_clean_sbu_0, # of connection points: 4
#     Node 14, Type 0, BuildingBlock: AZAVOO_clean_sbu_0, # of connection points: 4
#     Node 15, Type 0, BuildingBlock: AZAVOO_clean_sbu_0, # of connection points: 4
#     Node 16, Type 0, BuildingBlock: AZAVOO_clean_sbu_0, # of connection points: 4
#     Node 17, Type 0, BuildingBlock: AZAVOO_clean_sbu_0, # of connection points: 4
#     Node 18, Type 0, BuildingBlock: AZAVOO_clean_sbu_0, # of connection points: 4
#     Node 19, Type 0, BuildingBlock: AZAVOO_clean_sbu_0, # of connection points: 4
#     Node 20, Type 0, BuildingBlock: AZAVOO_clean_sbu_0, # of connection points: 4
#     Node 21, Type 0, BuildingBlock: AZAVOO_clean_sbu_0, # of connection points: 4
#     Node 22, Type 0, BuildingBlock: AZAVOO_clean_sbu_0, # of connection points: 4
#     Node 23, Type 0, BuildingBlock: AZAVOO_clean_sbu_0, # of connection points: 4
#     Node 24, Type 0, BuildingBlock: AZAVOO_clean_sbu_0, # of connection points: 4
#     Node 25, Type 0, BuildingBlock: AZAVOO_clean_sbu_0, # of connection points: 4
#     Node 26, Type 0, BuildingBlock: AZAVOO_clean_sbu_0, # of connection points: 4
#     Node 27, Type 0, BuildingBlock: AZAVOO_clean_sbu_0, # of connection points: 4
#     Node 28, Type 0, BuildingBlock: AZAVOO_clean_sbu_0, # of connection points: 4
#     Node 29, Type 0, BuildingBlock: AZAVOO_clean_sbu_0, # of connection points: 4
#     Node 30, Type 0, BuildingBlock: AZAVOO_clean_sbu_0, # of connection points: 4
#     Node 31, Type 0, BuildingBlock: AZAVOO_clean_sbu_0, # of connection points: 4
#     Node 32, Type 0, BuildingBlock: AZAVOO_clean_sbu_0, # of connection points: 4
#     Node 33, Type 0, BuildingBlock: AZAVOO_clean_sbu_0, # of connection points: 4
#     Node 34, Type 0, BuildingBlock: AZAVOO_clean_sbu_0, # of connection points: 4
#     Node 35, Type 0, BuildingBlock: AZAVOO_clean_sbu_0, # of connection points: 4
#     Node 36, Type 0, BuildingBlock: AZAVOO_clean_sbu_0, # of connection points: 4
#     Node 37, Type 0, BuildingBlock: AZAVOO_clean_sbu_0, # of connection points: 4
#     Node 38, Type 0, BuildingBlock: AZAVOO_clean_sbu_0, # of connection points: 4
#     Node 39, Type 0, BuildingBlock: AZAVOO_clean_sbu_0, # of connection points: 4
#     Node 40, Type 0, BuildingBlock: AZAVOO_clean_sbu_0, # of connection points: 4
#     Node 41, Type 0, BuildingBlock: AZAVOO_clean_sbu_0, # of connection points: 4
#     Node 42, Type 0, BuildingBlock: AZAVOO_clean_sbu_0, # of connection points: 4
#     Node 43, Type 0, BuildingBlock: AZAVOO_clean_sbu_0, # of connection points: 4
#     Node 44, Type 0, BuildingBlock: AZAVOO_clean_sbu_0, # of connection points: 4
#     Node 45, Type 0, BuildingBlock: AZAVOO_clean_sbu_0, # of connection points: 4
#     Node 46, Type 0, BuildingBlock: AZAVOO_clean_sbu_0, # of connection points: 4
#     Node 47, Type 0, BuildingBlock: AZAVOO_clean_sbu_0, # of connection points: 4
#     Edge 48, Type (0, 0), BuildingBlock: ZUJKAS_clean_linker_0, # of connection points: 2
#     Edge 49, Type (0, 0), BuildingBlock: ZUJKAS_clean_linker_0, # of connection points: 2
#     Edge 50, Type (0, 0), BuildingBlock: ZUJKAS_clean_linker_0, # of connection points: 2
#     Edge 51, Type (0, 0), BuildingBlock: ZUJKAS_clean_linker_0, # of connection points: 2
#     Edge 52, Type (0, 0), BuildingBlock: ZUJKAS_clean_linker_0, # of connection points: 2
#     Edge 53, Type (0, 0), BuildingBlock: ZUJKAS_clean_linker_0, # of connection points: 2
#     Edge 54, Type (0, 0), BuildingBlock: ZUJKAS_clean_linker_0, # of connection points: 2
#     Edge 55, Type (0, 0), BuildingBlock: ZUJKAS_clean_linker_0, # of connection points: 2
#     Edge 56, Type (0, 0), BuildingBlock: ZUJKAS_clean_linker_0, # of connection points: 2
#     Edge 57, Type (0, 0), BuildingBlock: ZUJKAS_clean_linker_0, # of connection points: 2
#     Edge 58, Type (0, 0), BuildingBlock: ZUJKAS_clean_linker_0, # of connection points: 2
#     Edge 59, Type (0, 0), BuildingBlock: ZUJKAS_clean_linker_0, # of connection points: 2
#     Edge 60, Type (0, 0), BuildingBlock: ZUJKAS_clean_linker_0, # of connection points: 2
#     Edge 61, Type (0, 0), BuildingBlock: ZUJKAS_clean_linker_0, # of connection points: 2
#     Edge 62, Type (0, 0), BuildingBlock: ZUJKAS_clean_linker_0, # of connection points: 2
#     Edge 63, Type (0, 0), BuildingBlock: ZUJKAS_clean_linker_0, # of connection points: 2
#     Edge 64, Type (0, 0), BuildingBlock: ZUJKAS_clean_linker_0, # of connection points: 2
#     Edge 65, Type (0, 0), BuildingBlock: ZUJKAS_clean_linker_0, # of connection points: 2
#     Edge 66, Type (0, 0), BuildingBlock: ZUJKAS_clean_linker_0, # of connection points: 2
#     Edge 67, Type (0, 0), BuildingBlock: ZUJKAS_clean_linker_0, # of connection points: 2
#     Edge 68, Type (0, 0), BuildingBlock: ZUJKAS_clean_linker_0, # of connection points: 2
#     Edge 69, Type (0, 0), BuildingBlock: ZUJKAS_clean_linker_0, # of connection points: 2
#     Edge 70, Type (0, 0), BuildingBlock: ZUJKAS_clean_linker_0, # of connection points: 2
#     Edge 71, Type (0, 0), BuildingBlock: ZUJKAS_clean_linker_0, # of connection points: 2
#     Edge 72, Type (0, 0), BuildingBlock: ZUJKAS_clean_linker_0, # of connection points: 2
#     Edge 73, Type (0, 0), BuildingBlock: ZUJKAS_clean_linker_0, # of connection points: 2
#     Edge 74, Type (0, 0), BuildingBlock: ZUJKAS_clean_linker_0, # of connection points: 2
#     Edge 75, Type (0, 0), BuildingBlock: ZUJKAS_clean_linker_0, # of connection points: 2
#     Edge 76, Type (0, 0), BuildingBlock: ZUJKAS_clean_linker_0, # of connection points: 2
#     Edge 77, Type (0, 0), BuildingBlock: ZUJKAS_clean_linker_0, # of connection points: 2
#     Edge 78, Type (0, 0), BuildingBlock: ZUJKAS_clean_linker_0, # of connection points: 2
#     Edge 79, Type (0, 0), BuildingBlock: ZUJKAS_clean_linker_0, # of connection points: 2
#     Edge 80, Type (0, 0), BuildingBlock: ZUJKAS_clean_linker_0, # of connection points: 2
#     Edge 81, Type (0, 0), BuildingBlock: ZUJKAS_clean_linker_0, # of connection points: 2
#     Edge 82, Type (0, 0), BuildingBlock: ZUJKAS_clean_linker_0, # of connection points: 2
#     Edge 83, Type (0, 0), BuildingBlock: ZUJKAS_clean_linker_0, # of connection points: 2
#     Edge 84, Type (0, 0), BuildingBlock: ZUJKAS_clean_linker_0, # of connection points: 2
#     Edge 85, Type (0, 0), BuildingBlock: ZUJKAS_clean_linker_0, # of connection points: 2
#     Edge 86, Type (0, 0), BuildingBlock: ZUJKAS_clean_linker_0, # of connection points: 2
#     Edge 87, Type (0, 0), BuildingBlock: ZUJKAS_clean_linker_0, # of connection points: 2
#     Edge 88, Type (0, 0), BuildingBlock: ZUJKAS_clean_linker_0, # of connection points: 2
#     Edge 89, Type (0, 0), BuildingBlock: ZUJKAS_clean_linker_0, # of connection points: 2
#     Edge 90, Type (0, 0), BuildingBlock: ZUJKAS_clean_linker_0, # of connection points: 2
#     Edge 91, Type (0, 0), BuildingBlock: ZUJKAS_clean_linker_0, # of connection points: 2
#     Edge 92, Type (0, 0), BuildingBlock: ZUJKAS_clean_linker_0, # of connection points: 2
#     Edge 93, Type (0, 0), BuildingBlock: ZUJKAS_clean_linker_0, # of connection points: 2
#     Edge 94, Type (0, 0), BuildingBlock: ZUJKAS_clean_linker_0, # of connection points: 2
#     Edge 95, Type (0, 0), BuildingBlock: ZUJKAS_clean_linker_0, # of connection points: 2
#     Edge 96, Type (0, 0), BuildingBlock: ZUJKAS_clean_linker_0, # of connection points: 2
#     Edge 97, Type (0, 0), BuildingBlock: ZUJKAS_clean_linker_0, # of connection points: 2
#     Edge 98, Type (0, 0), BuildingBlock: ZUJKAS_clean_linker_0, # of connection points: 2
#     Edge 99, Type (0, 0), BuildingBlock: ZUJKAS_clean_linker_0, # of connection points: 2
#     Edge 100, Type (0, 0), BuildingBlock: ZUJKAS_clean_linker_0, # of connection points: 2
#     Edge 101, Type (0, 0), BuildingBlock: ZUJKAS_clean_linker_0, # of connection points: 2
#     Edge 102, Type (0, 0), BuildingBlock: ZUJKAS_clean_linker_0, # of connection points: 2
#     Edge 103, Type (0, 0), BuildingBlock: ZUJKAS_clean_linker_0, # of connection points: 2
#     Edge 104, Type (0, 0), BuildingBlock: ZUJKAS_clean_linker_0, # of connection points: 2
#     Edge 105, Type (0, 0), BuildingBlock: ZUJKAS_clean_linker_0, # of connection points: 2
#     Edge 106, Type (0, 0), BuildingBlock: ZUJKAS_clean_linker_0, # of connection points: 2
#     Edge 107, Type (0, 0), BuildingBlock: ZUJKAS_clean_linker_0, # of connection points: 2
#     Edge 108, Type (0, 0), BuildingBlock: ZUJKAS_clean_linker_0, # of connection points: 2
#     Edge 109, Type (0, 0), BuildingBlock: ZUJKAS_clean_linker_0, # of connection points: 2
#     Edge 110, Type (0, 0), BuildingBlock: ZUJKAS_clean_linker_0, # of connection points: 2
#     Edge 111, Type (0, 0), BuildingBlock: ZUJKAS_clean_linker_0, # of connection points: 2
#     Edge 112, Type (0, 0), BuildingBlock: ZUJKAS_clean_linker_0, # of connection points: 2
#     Edge 113, Type (0, 0), BuildingBlock: ZUJKAS_clean_linker_0, # of connection points: 2
#     Edge 114, Type (0, 0), BuildingBlock: ZUJKAS_clean_linker_0, # of connection points: 2
#     Edge 115, Type (0, 0), BuildingBlock: ZUJKAS_clean_linker_0, # of connection points: 2
#     Edge 116, Type (0, 0), BuildingBlock: ZUJKAS_clean_linker_0, # of connection points: 2
#     Edge 117, Type (0, 0), BuildingBlock: ZUJKAS_clean_linker_0, # of connection points: 2
#     Edge 118, Type (0, 0), BuildingBlock: ZUJKAS_clean_linker_0, # of connection points: 2
#     Edge 119, Type (0, 0), BuildingBlock: ZUJKAS_clean_linker_0, # of connection points: 2
#     Edge 120, Type (0, 0), BuildingBlock: ZUJKAS_clean_linker_0, # of connection points: 2
#     Edge 121, Type (0, 0), BuildingBlock: ZUJKAS_clean_linker_0, # of connection points: 2
#     Edge 122, Type (0, 0), BuildingBlock: ZUJKAS_clean_linker_0, # of connection points: 2
#     Edge 123, Type (0, 0), BuildingBlock: ZUJKAS_clean_linker_0, # of connection points: 2
#     Edge 124, Type (0, 0), BuildingBlock: ZUJKAS_clean_linker_0, # of connection points: 2
#     Edge 125, Type (0, 0), BuildingBlock: ZUJKAS_clean_linker_0, # of connection points: 2
#     Edge 126, Type (0, 0), BuildingBlock: ZUJKAS_clean_linker_0, # of connection points: 2
#     Edge 127, Type (0, 0), BuildingBlock: ZUJKAS_clean_linker_0, # of connection points: 2
#     Edge 128, Type (0, 0), BuildingBlock: ZUJKAS_clean_linker_0, # of connection points: 2
#     Edge 129, Type (0, 0), BuildingBlock: ZUJKAS_clean_linker_0, # of connection points: 2
#     Edge 130, Type (0, 0), BuildingBlock: ZUJKAS_clean_linker_0, # of connection points: 2
#     Edge 131, Type (0, 0), BuildingBlock: ZUJKAS_clean_linker_0, # of connection points: 2
#     Edge 132, Type (0, 0), BuildingBlock: ZUJKAS_clean_linker_0, # of connection points: 2
#     Edge 133, Type (0, 0), BuildingBlock: ZUJKAS_clean_linker_0, # of connection points: 2
#     Edge 134, Type (0, 0), BuildingBlock: ZUJKAS_clean_linker_0, # of connection points: 2
#     Edge 135, Type (0, 0), BuildingBlock: ZUJKAS_clean_linker_0, # of connection points: 2
#     Edge 136, Type (0, 0), BuildingBlock: ZUJKAS_clean_linker_0, # of connection points: 2
#     Edge 137, Type (0, 0), BuildingBlock: ZUJKAS_clean_linker_0, # of connection points: 2
#     Edge 138, Type (0, 0), BuildingBlock: ZUJKAS_clean_linker_0, # of connection points: 2
#     Edge 139, Type (0, 0), BuildingBlock: ZUJKAS_clean_linker_0, # of connection points: 2
#     Edge 140, Type (0, 0), BuildingBlock: ZUJKAS_clean_linker_0, # of connection points: 2
#     Edge 141, Type (0, 0), BuildingBlock: ZUJKAS_clean_linker_0, # of connection points: 2
#     Edge 142, Type (0, 0), BuildingBlock: ZUJKAS_clean_linker_0, # of connection points: 2
#     Edge 143, Type (0, 0), BuildingBlock: ZUJKAS_clean_linker_0, # of connection points: 2
# Relax obj value: 0.253
# Max RMSD: 0.249
# Mean RMSD: 0.230
data_MOF--net-ana--node1-AZAVOO_clean_sbu_0--edge1-ZUJKAS_clean_linker_0
_symmetry_space_group_name_H-M    P1
_symmetry_Int_Tables_number       1
_symmetry_cell_setting            triclinic
loop_
_symmetry_equiv_pos_as_xyz
'x, y, z'
_cell_length_a     83.384466
_cell_length_b     80.425415
_cell_length_c     80.172563
_cell_angle_alpha  90.221058
_cell_angle_beta   90.612797
_cell_angle_gamma 92.182131
loop_
_atom_site_label
_atom_site_type_symbol
_atom_site_fract_x
_atom_site_fract_y
_atom_site_fract_z
_atom_type_partial_charge
Mg0 Mg 0.13338 0.17029 0.42734 0.0
O1 O 0.10989 0.15735 0.41801 0.0
O2 O 0.11096 0.13032 0.42404 0.0
Mg3 Mg 0.13487 0.12595 0.43711 0.0
C4 C 0.10368 0.14257 0.41784 0.0
C5 C 0.13289 0.20722 0.41995 0.0
O6 O 0.14208 0.20638 0.43331 0.0
O7 O 0.14714 0.1597 0.40547 0.0
O8 O 0.14811 0.13299 0.41301 0.0
O9 O 0.12281 0.17409 0.45242 0.0
O10 O 0.13624 0.15206 0.44529 0.0
C11 C 0.15159 0.14487 0.40297 0.0
C12 C 0.12816 0.15969 0.45633 0.0
O13 O 0.12733 0.19378 0.41336 0.0
Mg14 Mg 0.07949 0.86846 0.63244 0.0
O15 O 0.09507 0.89022 0.62311 0.0
O16 O 0.09197 0.8925 0.5955 0.0
Mg17 Mg 0.07494 0.87092 0.58725 0.0
C18 C 0.09819 0.89748 0.60935 0.0
C19 C 0.0938 0.88342 0.66526 0.0
O20 O 0.08817 0.8968 0.65829 0.0
O21 O 0.0972 0.85087 0.62251 0.0
O22 O 0.09372 0.85147 0.59489 0.0
O23 O 0.05934 0.88486 0.63558 0.0
O24 O 0.06374 0.87099 0.61225 0.0
C25 C 0.10062 0.84588 0.60794 0.0
C26 C 0.05539 0.8816 0.62022 0.0
O27 O 0.0924 0.86962 0.65752 0.0
Mg28 Mg 0.35281 0.80644 0.93682 0.0
O29 O 0.37575 0.82125 0.92978 0.0
O30 O 0.37431 0.84733 0.93912 0.0
Mg31 Mg 0.35011 0.84932 0.95188 0.0
C32 C 0.38178 0.83598 0.93163 0.0
C33 C 0.3736 0.77951 0.92102 0.0
O34 O 0.38364 0.78584 0.9323 0.0
O35 O 0.33874 0.81906 0.91611 0.0
O36 O 0.3371 0.84461 0.92689 0.0
O37 O 0.36374 0.8004 0.96163 0.0
O38 O 0.3494 0.82242 0.9567 0.0
C39 C 0.33389 0.83393 0.91537 0.0
C40 C 0.35797 0.81416 0.96693 0.0
O41 O 0.35975 0.78545 0.91956 0.0
Mg42 Mg 0.42676 0.12704 0.13205 0.0
O43 O 0.41598 0.10219 0.12296 0.0
O44 O 0.42166 0.09908 0.09598 0.0
Mg45 Mg 0.4368 0.12209 0.08816 0.0
C46 C 0.41513 0.09383 0.1094 0.0
C47 C 0.41251 0.13713 0.16598 0.0
O48 O 0.42249 0.14987 0.16334 0.0
O49 O 0.40745 0.14004 0.11808 0.0
O50 O 0.41488 0.1388 0.0914 0.0
O51 O 0.44887 0.11487 0.13947 0.0
O52 O 0.44486 0.12551 0.1144 0.0
C53 C 0.40539 0.14356 0.10276 0.0
C54 C 0.45376 0.11712 0.12433 0.0
O55 O 0.41129 0.12557 0.15514 0.0
Mg56 Mg 0.10613 0.80934 0.06823 0.0
O57 O 0.12938 0.82094 0.07948 0.0
O58 O 0.12877 0.81714 0.10708 0.0
Mg59 Mg 0.1054 0.80302 0.11351 0.0
C60 C 0.13572 0.82266 0.094 0.0
C61 C 0.1178 0.81647 0.03175 0.0
O62 O 0.12244 0.80111 0.03313 0.0
O63 O 0.09191 0.83092 0.07805 0.0
O64 O 0.09113 0.82542 0.10532 0.0
O65 O 0.11761 0.78467 0.06566 0.0
O66 O 0.10476 0.79282 0.08804 0.0
C67 C 0.08733 0.83426 0.09279 0.0
C68 C 0.11326 0.78191 0.08088 0.0
O69 O 0.11084 0.82316 0.04395 0.0
Mg70 Mg 0.39434 0.86082 0.35328 0.0
O71 O 0.38758 0.83744 0.36819 0.0
O72 O 0.36082 0.83453 0.36725 0.0
Mg73 Mg 0.35065 0.85501 0.35112 0.0
C74 C 0.37451 0.82967 0.37207 0.0
C75 C 0.42989 0.86689 0.35292 0.0
O76 O 0.42448 0.8716 0.3383 0.0
O77 O 0.38555 0.87774 0.37379 0.0
O78 O 0.359 0.87529 0.36991 0.0
O79 O 0.39613 0.84576 0.33015 0.0
O80 O 0.37386 0.85717 0.33842 0.0
C81 C 0.37135 0.88201 0.37717 0.0
C82 C 0.38099 0.84802 0.3278 0.0
O83 O 0.41985 0.86149 0.36361 0.0
Mg84 Mg 0.38957 0.18206 0.56586 0.0
O85 O 0.36732 0.1742 0.58111 0.0
O86 O 0.37156 0.1833 0.60722 0.0
Mg87 Mg 0.39612 0.19668 0.60877 0.0
C88 C 0.36279 0.17579 0.5962 0.0
C89 C 0.38694 0.16978 0.5303 0.0
O90 O 0.397 0.18274 0.52975 0.0
O91 O 0.40399 0.16156 0.57779 0.0
O92 O 0.408 0.17197 0.60347 0.0
O93 O 0.37876 0.20642 0.56028 0.0
O94 O 0.39451 0.20181 0.58198 0.0
C95 C 0.40996 0.16068 0.59249 0.0
C96 C 0.38553 0.21178 0.57398 0.0
O97 O 0.38125 0.16539 0.54432 0.0
Mg98 Mg 0.09575 0.13535 0.85378 0.0
O99 O 0.1064 0.15945 0.86554 0.0
O100 O 0.13253 0.16072 0.85948 0.0
Mg101 Mg 0.13847 0.13822 0.84372 0.0
C102 C 0.12027 0.16673 0.86635 0.0
C103 C 0.06426 0.14956 0.86769 0.0
O104 O 0.06921 0.16218 0.85848 0.0
O105 O 0.10748 0.11953 0.87357 0.0
O106 O 0.13322 0.12095 0.86597 0.0
O107 O 0.09057 0.14895 0.83031 0.0
O108 O 0.1132 0.1364 0.83544 0.0
C109 C 0.12204 0.11549 0.8755 0.0
C110 C 0.10488 0.14545 0.82564 0.0
O111 O 0.07296 0.137 0.86895 0.0
Mg112 Mg 0.14185 0.39015 0.14288 0.0
O113 O 0.12917 0.38183 0.11858 0.0
O114 O 0.10401 0.39045 0.11913 0.0
Mg115 Mg 0.10057 0.40434 0.14357 0.0
C116 C 0.1153 0.38306 0.11188 0.0
C117 C 0.1699 0.37548 0.12388 0.0
O118 O 0.16382 0.38544 0.11271 0.0
O119 O 0.12831 0.36999 0.15752 0.0
O120 O 0.1039 0.38044 0.15861 0.0
O121 O 0.14964 0.41419 0.13134 0.0
O122 O 0.12659 0.40995 0.14435 0.0
C123 C 0.11382 0.36933 0.16252 0.0
C124 C 0.13592 0.41966 0.13574 0.0
O125 O 0.16287 0.37368 0.13778 0.0
Mg126 Mg 0.66155 0.11663 0.89959 0.0
O127 O 0.64685 0.1263 0.87771 0.0
O128 O 0.65329 0.15323 0.87399 0.0
Mg129 Mg 0.67236 0.16067 0.89366 0.0
C130 C 0.6453 0.13995 0.86988 0.0
C131 C 0.64283 0.08484 0.8876 0.0
O132 O 0.64937 0.09019 0.87368 0.0
O133 O 0.64627 0.13005 0.91785 0.0
O134 O 0.65414 0.15673 0.91513 0.0
O135 O 0.68046 0.10975 0.88228 0.0
O136 O 0.67973 0.13448 0.89442 0.0
C137 C 0.64566 0.14526 0.92221 0.0
C138 C 0.68641 0.12479 0.88387 0.0
O139 O 0.64526 0.09326 0.90089 0.0
Mg140 Mg 0.83907 0.88179 0.39466 0.0
O141 O 0.85327 0.86903 0.37452 0.0
O142 O 0.84397 0.84275 0.37181 0.0
Mg143 Mg 0.82399 0.8388 0.39104 0.0
C144 C 0.85345 0.85478 0.3675 0.0
C145 C 0.85502 0.91483 0.40616 0.0
O146 O 0.84325 0.91268 0.41681 0.0
O147 O 0.85249 0.86839 0.41471 0.0
O148 O 0.84201 0.84245 0.41317 0.0
O149 O 0.82184 0.88899 0.37529 0.0
O150 O 0.81927 0.86568 0.38988 0.0
C151 C 0.85145 0.85347 0.41997 0.0
C152 C 0.81425 0.87491 0.3779 0.0
O153 O 0.85722 0.90356 0.39537 0.0
Mg154 Mg 0.87239 0.12572 0.09751 0.0
O155 O 0.86675 0.13064 0.12479 0.0
O156 O 0.85508 0.15514 0.12765 0.0
Mg157 Mg 0.8529 0.1666 0.10136 0.0
C158 C 0.8606 0.14182 0.13382 0.0
C159 C 0.8874 0.09202 0.09487 0.0
O160 O 0.88014 0.09345 0.08035 0.0
O161 O 0.89277 0.1451 0.10049 0.0
O162 O 0.88054 0.16814 0.10068 0.0
O163 O 0.84843 0.11345 0.09371 0.0
O164 O 0.8527 0.14059 0.0912 0.0
C165 C 0.88773 0.15732 0.09225 0.0
C166 C 0.84264 0.12801 0.09167 0.0
O167 O 0.88769 0.10431 0.10488 0.0
Mg168 Mg 0.34777 0.61573 0.59972 0.0
O169 O 0.36195 0.62456 0.62268 0.0
O170 O 0.35968 0.65201 0.62551 0.0
Mg171 Mg 0.34466 0.66057 0.60321 0.0
C172 C 0.36495 0.63817 0.63051 0.0
C173 C 0.35452 0.57951 0.59116 0.0
O174 O 0.34321 0.58274 0.58024 0.0
O175 O 0.36713 0.62609 0.58332 0.0
O176 O 0.3644 0.65356 0.58427 0.0
O177 O 0.32639 0.61207 0.61504 0.0
O178 O 0.33247 0.63557 0.60169 0.0
C179 C 0.3713 0.64073 0.57872 0.0
C180 C 0.32317 0.62736 0.6118 0.0
O181 O 0.35958 0.59096 0.60104 0.0
Mg182 Mg 0.15896 0.60934 0.40122 0.0
O183 O 0.14414 0.62326 0.38206 0.0
O184 O 0.15384 0.64947 0.38055 0.0
Mg185 Mg 0.17468 0.65221 0.39934 0.0
C186 C 0.14394 0.63784 0.37584 0.0
C187 C 0.1362 0.58075 0.38805 0.0
O188 O 0.14229 0.58634 0.37401 0.0
O189 O 0.14687 0.62226 0.42236 0.0
O190 O 0.15741 0.64818 0.42162 0.0
O191 O 0.17546 0.60251 0.38121 0.0
O192 O 0.17876 0.62527 0.39672 0.0
C193 C 0.14823 0.63699 0.42824 0.0
C194 C 0.18337 0.61636 0.38436 0.0
O195 O 0.14026 0.58803 0.40162 0.0
Mg196 Mg 0.34591 0.39358 0.87666 0.0
O197 O 0.35421 0.38175 0.90116 0.0
O198 O 0.38035 0.38869 0.9039 0.0
Mg199 Mg 0.38835 0.40556 0.88256 0.0
C200 C 0.36757 0.38122 0.90907 0.0
C201 C 0.31681 0.37491 0.86129 0.0
O202 O 0.32509 0.37984 0.84823 0.0
O203 O 0.35901 0.37464 0.86138 0.0
O204 O 0.38451 0.38392 0.8639 0.0
O205 O 0.3395 0.4166 0.89021 0.0
O206 O 0.3633 0.41261 0.87943 0.0
C207 C 0.37381 0.37383 0.85771 0.0
C208 C 0.35411 0.42201 0.88779 0.0
O209 O 0.32271 0.37777 0.87576 0.0
Mg210 Mg 0.87552 0.84286 0.62742 0.0
O211 O 0.88154 0.84076 0.59975 0.0
O212 O 0.90731 0.83456 0.59714 0.0
Mg213 Mg 0.91719 0.83089 0.62358 0.0
C214 C 0.8937 0.83791 0.59077 0.0
C215 C 0.84145 0.8561 0.61845 0.0
O216 O 0.84941 0.87052 0.61869 0.0
O217 O 0.87394 0.81463 0.62854 0.0
O218 O 0.89968 0.8083 0.62613 0.0
O219 O 0.88456 0.86938 0.62648 0.0
O220 O 0.89948 0.84808 0.63288 0.0
C221 C 0.88486 0.80399 0.62766 0.0
C222 C 0.89862 0.86361 0.62931 0.0
O223 O 0.84893 0.8429 0.62112 0.0
Mg224 Mg 0.91456 0.10356 0.3301 0.0
O225 O 0.90163 0.12384 0.34425 0.0
O226 O 0.87542 0.12111 0.33818 0.0
Mg227 Mg 0.87152 0.09851 0.32106 0.0
C228 C 0.88725 0.12856 0.34563 0.0
C229 C 0.95047 0.10444 0.3397 0.0
O230 O 0.95031 0.09596 0.32565 0.0
O231 O 0.90589 0.08406 0.34867 0.0
O232 O 0.87996 0.0808 0.34165 0.0
O233 O 0.91693 0.11988 0.30785 0.0
O234 O 0.89625 0.10247 0.31205 0.0
C235 C 0.89211 0.07688 0.35046 0.0
C236 C 0.90298 0.11394 0.30305 0.0
O237 O 0.93728 0.10936 0.34536 0.0
Mg238 Mg 0.63847 0.13684 0.12541 0.0
O239 O 0.62839 0.1428 0.0996 0.0
O240 O 0.60281 0.14995 0.10152 0.0
Mg241 Mg 0.59703 0.14972 0.1294 0.0
C242 C 0.61525 0.14721 0.09292 0.0
C243 C 0.6749 0.13277 0.12481 0.0
O244 O 0.67126 0.12836 0.14012 0.0
O245 O 0.64123 0.16472 0.13055 0.0
O246 O 0.61554 0.1713 0.13262 0.0
O247 O 0.62838 0.11084 0.12196 0.0
O248 O 0.61543 0.13133 0.13361 0.0
C249 C 0.6305 0.17539 0.13274 0.0
C250 C 0.61518 0.1164 0.12779 0.0
O251 O 0.66371 0.13689 0.11497 0.0
Mg252 Mg 0.56005 0.8946 0.83966 0.0
O253 O 0.57611 0.87527 0.85152 0.0
O254 O 0.60037 0.87763 0.84003 0.0
Mg255 Mg 0.60006 0.89907 0.82145 0.0
C256 C 0.59049 0.87058 0.85007 0.0
C257 C 0.53599 0.87444 0.8611 0.0
O258 O 0.5427 0.86273 0.85243 0.0
O259 O 0.57235 0.91535 0.85514 0.0
O260 O 0.59614 0.91786 0.84263 0.0
O261 O 0.55336 0.87662 0.81933 0.0
O262 O 0.57401 0.89463 0.81827 0.0
C263 C 0.58622 0.92245 0.85364 0.0
C264 C 0.56593 0.88232 0.81157 0.0
O265 O 0.54099 0.88945 0.85929 0.0
Mg266 Mg 0.86056 0.11859 0.88407 0.0
O267 O 0.85506 0.14607 0.88602 0.0
O268 O 0.82884 0.14921 0.88978 0.0
Mg269 Mg 0.81794 0.12281 0.89287 0.0
C270 C 0.84306 0.15528 0.88777 0.0
C271 C 0.89715 0.11744 0.89337 0.0
O272 O 0.89208 0.1039 0.90112 0.0
O273 O 0.85932 0.11718 0.91234 0.0
O274 O 0.83322 0.12055 0.91673 0.0
O275 O 0.85397 0.11998 0.85707 0.0
O276 O 0.83694 0.11302 0.87715 0.0
C277 C 0.84749 0.11862 0.92216 0.0
C278 C 0.83937 0.11684 0.86179 0.0
O279 O 0.88714 0.12592 0.88533 0.0
Mg280 Mg 0.57792 0.09472 0.67877 0.0
O281 O 0.59035 0.11769 0.66724 0.0
O282 O 0.6155 0.12044 0.67706 0.0
Mg283 Mg 0.61932 0.09834 0.69426 0.0
C284 C 0.60402 0.1254 0.66792 0.0
C285 C 0.54454 0.0881 0.66193 0.0
O286 O 0.54311 0.07829 0.67495 0.0
O287 O 0.59155 0.07851 0.66131 0.0
O288 O 0.61669 0.08093 0.67131 0.0
O289 O 0.5706 0.10972 0.70058 0.0
O290 O 0.59332 0.09646 0.69924 0.0
C291 C 0.60633 0.07505 0.66074 0.0
C292 C 0.58428 0.10627 0.70729 0.0
O293 O 0.55758 0.09649 0.6599 0.0
Mg294 Mg 0.63455 0.89053 0.38708 0.0
O295 O 0.63876 0.8626 0.38784 0.0
O296 O 0.66388 0.85861 0.39654 0.0
Mg297 Mg 0.67518 0.88423 0.40293 0.0
C298 C 0.65014 0.85301 0.39144 0.0
C299 C 0.60125 0.87532 0.37334 0.0
O300 O 0.61035 0.86718 0.3631 0.0
O301 O 0.63172 0.88982 0.41519 0.0
O302 O 0.65678 0.88566 0.42393 0.0
O303 O 0.64508 0.89147 0.36142 0.0
O304 O 0.65886 0.89545 0.38492 0.0
C305 C 0.64192 0.88753 0.42685 0.0
C306 C 0.65881 0.89365 0.36899 0.0
O307 O 0.60773 0.88537 0.38389 0.0
Mg308 Mg 0.92534 0.9044 0.18401 0.0
O309 O 0.90951 0.88617 0.16869 0.0
O310 O 0.88428 0.88642 0.17778 0.0
Mg311 Mg 0.88411 0.90611 0.19861 0.0
C312 C 0.89488 0.88094 0.16801 0.0
C313 C 0.94973 0.88839 0.16031 0.0
O314 O 0.94294 0.8749 0.16675 0.0
O315 O 0.91503 0.92559 0.16982 0.0
O316 O 0.89019 0.9272 0.17974 0.0
O317 O 0.92976 0.88475 0.20274 0.0
O318 O 0.90974 0.90199 0.20392 0.0
C319 C 0.90154 0.93247 0.17027 0.0
C320 C 0.91687 0.8894 0.21004 0.0
O321 O 0.94513 0.90253 0.16496 0.0
Mg322 Mg 0.82595 0.56702 0.86319 0.0
O323 O 0.84035 0.58167 0.88328 0.0
O324 O 0.86527 0.57244 0.88366 0.0
Mg325 Mg 0.86656 0.55149 0.86437 0.0
C326 C 0.85467 0.58206 0.88913 0.0
C327 C 0.79702 0.5877 0.85165 0.0
O328 O 0.79896 0.57868 0.83817 0.0
O329 O 0.83882 0.58103 0.84242 0.0
O330 O 0.86291 0.56978 0.8427 0.0
O331 O 0.8186 0.54777 0.88184 0.0
O332 O 0.84041 0.54673 0.86652 0.0
C333 C 0.85278 0.57956 0.83635 0.0
C334 C 0.83156 0.54028 0.87808 0.0
O335 O 0.80648 0.58601 0.86401 0.0
Mg336 Mg 0.32092 0.91019 0.1447 0.0
O337 O 0.33583 0.8962 0.1258 0.0
O338 O 0.36187 0.902 0.13084 0.0
Mg339 Mg 0.36349 0.9194 0.15339 0.0
C340 C 0.35063 0.89457 0.12244 0.0
C341 C 0.29376 0.89435 0.1221 0.0
O342 O 0.30226 0.90225 0.1107 0.0
O343 O 0.32723 0.89147 0.16448 0.0
O344 O 0.35313 0.89799 0.16959 0.0
O345 O 0.32078 0.93206 0.128 0.0
O346 O 0.33937 0.92812 0.14734 0.0
C347 C 0.34036 0.88914 0.17229 0.0
C348 C 0.33421 0.93685 0.13509 0.0
O349 O 0.29857 0.89488 0.13719 0.0
Mg350 Mg 0.1776 0.08877 0.64734 0.0
O351 O 0.16277 0.09739 0.62486 0.0
O352 O 0.13736 0.08815 0.62803 0.0
Mg353 Mg 0.13585 0.07403 0.65252 0.0
C354 C 0.14819 0.09603 0.61977 0.0
C355 C 0.20936 0.11032 0.65023 0.0
O356 O 0.20785 0.10563 0.66583 0.0
O357 O 0.16692 0.10867 0.66368 0.0
O358 O 0.14172 0.09856 0.66641 0.0
O359 O 0.18255 0.06519 0.63425 0.0
O360 O 0.16145 0.06856 0.65025 0.0
C361 C 0.15276 0.10965 0.6694 0.0
C362 C 0.16911 0.05929 0.64012 0.0
O363 O 0.19846 0.10598 0.63973 0.0
Mg364 Mg 0.16876 0.9315 0.85758 0.0
O365 O 0.15627 0.91597 0.87782 0.0
O366 O 0.13108 0.92413 0.88005 0.0
Mg367 Mg 0.12766 0.94519 0.86138 0.0
C368 C 0.14245 0.91486 0.88451 0.0
C369 C 0.19626 0.90978 0.86996 0.0
O370 O 0.19212 0.91694 0.88395 0.0
O371 O 0.15489 0.91719 0.83743 0.0
O372 O 0.1303 0.9271 0.83923 0.0
O373 O 0.17656 0.95044 0.87661 0.0
O374 O 0.15375 0.95099 0.86236 0.0
C375 C 0.14042 0.91784 0.83223 0.0
C376 C 0.163 0.95734 0.8739 0.0
O377 O 0.18879 0.91315 0.8566 0.0
Mg378 Mg 0.66612 0.44014 0.35993 0.0
O379 O 0.65602 0.42418 0.38123 0.0
O380 O 0.62994 0.429 0.38366 0.0
Mg381 Mg 0.6235 0.44823 0.36397 0.0
C382 C 0.64251 0.4216 0.3883 0.0
C383 C 0.70214 0.43141 0.36123 0.0
O384 O 0.70362 0.44769 0.36254 0.0
O385 O 0.65379 0.42305 0.34088 0.0
O386 O 0.62803 0.42933 0.34292 0.0
O387 O 0.672 0.46081 0.3777 0.0
O388 O 0.64877 0.45754 0.36427 0.0
C389 C 0.63918 0.42126 0.33614 0.0
C390 C 0.65751 0.46557 0.3752 0.0
O391 O 0.68822 0.42458 0.3597 0.0
Mg392 Mg 0.83791 0.38653 0.612 0.0
O393 O 0.85262 0.37146 0.59359 0.0
O394 O 0.87845 0.37894 0.59772 0.0
Mg395 Mg 0.88019 0.39868 0.61833 0.0
C396 C 0.86747 0.37026 0.59016 0.0
C397 C 0.80346 0.37583 0.61522 0.0
O398 O 0.8059 0.38872 0.62518 0.0
O399 O 0.84578 0.37026 0.63337 0.0
O400 O 0.87122 0.37923 0.63757 0.0
O401 O 0.83587 0.4072 0.5939 0.0
O402 O 0.85546 0.40554 0.61251 0.0
C403 C 0.85902 0.36998 0.64147 0.0
C404 C 0.84905 0.41348 0.60037 0.0
O405 O 0.81531 0.37046 0.60726 0.0
Mg406 Mg 0.68218 0.58166 0.14298 0.0
O407 O 0.66613 0.59419 0.12376 0.0
O408 O 0.64053 0.58701 0.12909 0.0
Mg409 Mg 0.64027 0.56991 0.15174 0.0
C410 C 0.65114 0.59485 0.12047 0.0
C411 C 0.71569 0.5917 0.12945 0.0
O412 O 0.71555 0.57544 0.12778 0.0
O413 O 0.67502 0.60024 0.16263 0.0
O414 O 0.64974 0.5919 0.168 0.0
O415 O 0.68359 0.55938 0.12667 0.0
O416 O 0.66473 0.56262 0.14548 0.0
C417 C 0.66199 0.60164 0.17062 0.0
C418 C 0.67044 0.55393 0.13353 0.0
O419 O 0.70346 0.59841 0.13548 0.0
Mg420 Mg 0.6393 0.68134 0.93515 0.0
O421 O 0.61582 0.6684 0.92572 0.0
O422 O 0.61639 0.64152 0.93254 0.0
Mg423 Mg 0.64026 0.63704 0.94552 0.0
C424 C 0.60936 0.65373 0.92596 0.0
C425 C 0.63333 0.71802 0.92882 0.0
O426 O 0.63652 0.7176 0.94489 0.0
O427 O 0.65314 0.67031 0.91358 0.0
O428 O 0.65338 0.64358 0.92125 0.0
O429 O 0.62834 0.68537 0.96011 0.0
O430 O 0.64179 0.66325 0.95335 0.0
C431 C 0.65713 0.65532 0.91114 0.0
C432 C 0.63351 0.67095 0.96418 0.0
O433 O 0.63362 0.70459 0.92044 0.0
Mg434 Mg 0.58591 0.36169 0.13976 0.0
O435 O 0.59846 0.38435 0.12816 0.0
O436 O 0.59289 0.38438 0.1008 0.0
Mg437 Mg 0.5768 0.36121 0.09514 0.0
C438 C 0.59974 0.39086 0.11372 0.0
C439 C 0.59729 0.35566 0.17562 0.0
O440 O 0.58636 0.34363 0.17339 0.0
O441 O 0.60447 0.34545 0.1288 0.0
O442 O 0.59722 0.34338 0.10192 0.0
O443 O 0.5645 0.37612 0.14436 0.0
O444 O 0.5682 0.36192 0.12111 0.0
C445 C 0.60622 0.33951 0.11422 0.0
C446 C 0.55962 0.37201 0.12947 0.0
O447 O 0.60057 0.36535 0.16355 0.0
Mg448 Mg 0.86017 0.30577 0.41097 0.0
O449 O 0.87652 0.32813 0.41733 0.0
O450 O 0.87189 0.33847 0.44259 0.0
Mg451 Mg 0.84938 0.32361 0.4512 0.0
C452 C 0.87987 0.33843 0.42909 0.0
C453 C 0.87426 0.29863 0.37304 0.0
O454 O 0.87858 0.30525 0.35873 0.0
O455 O 0.83999 0.32294 0.40452 0.0
O456 O 0.8347 0.33394 0.42941 0.0
O457 O 0.87746 0.29054 0.42569 0.0
O458 O 0.85597 0.30185 0.43614 0.0
C459 C 0.83224 0.33279 0.41368 0.0
C460 C 0.86893 0.29403 0.43855 0.0
O461 O 0.86912 0.30827 0.38423 0.0
Mg462 Mg 0.91162 0.60911 0.63563 0.0
O463 O 0.89874 0.58777 0.62117 0.0
O464 O 0.90584 0.59055 0.59448 0.0
Mg465 Mg 0.92316 0.61307 0.59203 0.0
C466 C 0.89815 0.58287 0.60598 0.0
C467 C 0.89832 0.61649 0.66945 0.0
O468 O 0.9089 0.62863 0.66653 0.0
O469 O 0.89488 0.62772 0.625 0.0
O470 O 0.90333 0.63129 0.59889 0.0
O471 O 0.93212 0.59323 0.64048 0.0
O472 O 0.9301 0.60945 0.61839 0.0
C473 C 0.89416 0.63497 0.61093 0.0
C474 C 0.93792 0.59842 0.62643 0.0
O475 O 0.89578 0.6054 0.65829 0.0
Mg476 Mg 0.60905 0.30701 0.56662 0.0
O477 O 0.63301 0.3171 0.57768 0.0
O478 O 0.63223 0.31349 0.60527 0.0
Mg479 Mg 0.60814 0.30087 0.61181 0.0
C480 C 0.6395 0.31843 0.59215 0.0
C481 C 0.62739 0.32007 0.53468 0.0
O482 O 0.63892 0.31119 0.54087 0.0
O483 O 0.59596 0.3293 0.57645 0.0
O484 O 0.59454 0.32382 0.60368 0.0
O485 O 0.61899 0.28169 0.56386 0.0
O486 O 0.60668 0.29042 0.58633 0.0
C487 C 0.59121 0.3328 0.59109 0.0
C488 C 0.61433 0.27892 0.57899 0.0
O489 O 0.61413 0.32056 0.5423 0.0
Mg490 Mg 0.89374 0.35873 0.83938 0.0
O491 O 0.88287 0.33462 0.85065 0.0
O492 O 0.85685 0.33346 0.84352 0.0
Mg493 Mg 0.8512 0.35589 0.82755 0.0
C494 C 0.86895 0.3274 0.85089 0.0
C495 C 0.92349 0.37088 0.85959 0.0
O496 O 0.91668 0.38489 0.8559 0.0
O497 O 0.88159 0.37445 0.85878 0.0
O498 O 0.856 0.37332 0.85008 0.0
O499 O 0.89959 0.34539 0.81605 0.0
O500 O 0.87661 0.35748 0.82027 0.0
C501 C 0.86706 0.37867 0.86011 0.0
C502 C 0.88535 0.3487 0.81073 0.0
O503 O 0.91646 0.35722 0.85523 0.0
Mg504 Mg 0.88988 0.69819 0.06962 0.0
O505 O 0.86686 0.68775 0.08182 0.0
O506 O 0.86825 0.69341 0.1091 0.0
Mg507 Mg 0.89205 0.7074 0.11444 0.0
C508 C 0.8609 0.68707 0.09642 0.0
C509 C 0.89432 0.67643 0.03762 0.0
O510 O 0.90933 0.67787 0.04275 0.0
O511 O 0.90398 0.67685 0.08047 0.0
O512 O 0.90538 0.68401 0.10743 0.0
O513 O 0.87902 0.72305 0.066 0.0
O514 O 0.89272 0.71606 0.08842 0.0
C515 C 0.9087 0.67429 0.09542 0.0
C516 C 0.88445 0.72692 0.08076 0.0
O517 O 0.88355 0.68332 0.04602 0.0
Mg518 Mg 0.60602 0.64675 0.35034 0.0
O519 O 0.6151 0.67093 0.36291 0.0
O520 O 0.6419 0.67098 0.36292 0.0
Mg521 Mg 0.64986 0.64753 0.34971 0.0
C522 C 0.62877 0.67778 0.3665 0.0
C523 C 0.57308 0.66271 0.35611 0.0
O524 O 0.58028 0.67463 0.3475 0.0
O525 O 0.61285 0.63148 0.3729 0.0
O526 O 0.63944 0.63061 0.37038 0.0
O527 O 0.60596 0.6592 0.32567 0.0
O528 O 0.62675 0.64635 0.33609 0.0
C529 C 0.62638 0.62617 0.37762 0.0
C530 C 0.62073 0.65501 0.32424 0.0
O531 O 0.58085 0.64998 0.36003 0.0
Mg532 Mg 0.64348 0.88877 0.63058 0.0
O533 O 0.63186 0.87915 0.60623 0.0
O534 O 0.60733 0.88933 0.60453 0.0
Mg535 Mg 0.60331 0.90528 0.6275 0.0
C536 C 0.61848 0.8807 0.5986 0.0
C537 C 0.67495 0.87368 0.63879 0.0
O538 O 0.67292 0.88484 0.65052 0.0
O539 O 0.62826 0.8707 0.64602 0.0
O540 O 0.6044 0.8824 0.64451 0.0
O541 O 0.65304 0.91107 0.61734 0.0
O542 O 0.62948 0.90963 0.62975 0.0
C543 C 0.61349 0.87116 0.64997 0.0
C544 C 0.63969 0.91796 0.62078 0.0
O545 O 0.66373 0.87095 0.62818 0.0
Mg546 Mg 0.37276 0.34077 0.11913 0.0
O547 O 0.37702 0.3428 0.09108 0.0
O548 O 0.40194 0.33547 0.08528 0.0
Mg549 Mg 0.41279 0.32632 0.10973 0.0
C550 C 0.3883 0.34068 0.08074 0.0
C551 C 0.33835 0.35213 0.1258 0.0
O552 O 0.34585 0.35772 0.13931 0.0
O553 O 0.36852 0.31277 0.1157 0.0
O554 O 0.39332 0.30546 0.10927 0.0
O555 O 0.38461 0.3662 0.12232 0.0
O556 O 0.39718 0.34251 0.12373 0.0
C557 C 0.37843 0.30185 0.11144 0.0
C558 C 0.39792 0.35848 0.12354 0.0
O559 O 0.34627 0.34477 0.11473 0.0
Mg560 Mg 0.43079 0.59877 0.82465 0.0
O561 O 0.41904 0.62241 0.83383 0.0
O562 O 0.39358 0.62205 0.82489 0.0
Mg563 Mg 0.3889 0.59787 0.8104 0.0
C564 C 0.40541 0.62904 0.83275 0.0
C565 C 0.45903 0.61858 0.84149 0.0
O566 O 0.45354 0.62964 0.83108 0.0
O567 O 0.41759 0.58351 0.84437 0.0
O568 O 0.39235 0.58298 0.8346 0.0
O569 O 0.43774 0.6113 0.80103 0.0
O570 O 0.4147 0.59728 0.80452 0.0
C571 C 0.40282 0.57891 0.84546 0.0
C572 C 0.42378 0.60653 0.79516 0.0
O573 O 0.45206 0.60427 0.84213 0.0
Mg574 Mg 0.12172 0.64309 0.63614 0.0
O575 O 0.1159 0.64454 0.60823 0.0
O576 O 0.09071 0.6527 0.60483 0.0
Mg577 Mg 0.08074 0.657 0.63095 0.0
C578 C 0.10405 0.64824 0.59889 0.0
C579 C 0.15777 0.64767 0.64176 0.0
O580 O 0.15179 0.65397 0.6554 0.0
O581 O 0.12455 0.67128 0.63632 0.0
O582 O 0.09916 0.67883 0.63341 0.0
O583 O 0.11162 0.61695 0.63589 0.0
O584 O 0.09764 0.63923 0.64102 0.0
C585 C 0.11416 0.68244 0.63501 0.0
C586 C 0.09785 0.62349 0.63815 0.0
O587 O 0.14822 0.64152 0.63072 0.0
Mg588 Mg 0.05418 0.38834 0.34555 0.0
O589 O 0.06974 0.369 0.35838 0.0
O590 O 0.09429 0.37162 0.34745 0.0
Mg591 Mg 0.09444 0.39177 0.32751 0.0
C592 C 0.08429 0.36463 0.35742 0.0
C593 C 0.02853 0.39728 0.37247 0.0
O594 O 0.03353 0.41249 0.36874 0.0
O595 O 0.06686 0.40951 0.36013 0.0
O596 O 0.0905 0.41181 0.34736 0.0
O597 O 0.04719 0.3696 0.3258 0.0
O598 O 0.06851 0.38678 0.32467 0.0
C599 C 0.08059 0.41676 0.35818 0.0
C600 C 0.06032 0.37433 0.31845 0.0
O601 O 0.0349 0.38504 0.36536 0.0
Mg602 Mg 0.37157 0.61979 0.37545 0.0
O603 O 0.36851 0.6471 0.38237 0.0
O604 O 0.34629 0.64936 0.39751 0.0
Mg605 Mg 0.33509 0.62303 0.40023 0.0
C606 C 0.35875 0.65579 0.39055 0.0
C607 C 0.40244 0.6387 0.36112 0.0
O608 O 0.39207 0.64977 0.35659 0.0
O609 O 0.38 0.61611 0.40219 0.0
O610 O 0.35708 0.61727 0.41628 0.0
O611 O 0.35653 0.62266 0.35224 0.0
O612 O 0.34697 0.61611 0.37708 0.0
C613 C 0.37221 0.61545 0.41578 0.0
C614 C 0.34429 0.62022 0.36184 0.0
O615 O 0.39747 0.62539 0.36819 0.0
Mg616 Mg 0.07276 0.60557 0.18718 0.0
O617 O 0.08715 0.62697 0.17517 0.0
O618 O 0.11236 0.62749 0.18488 0.0
Mg619 Mg 0.114 0.60585 0.20319 0.0
C620 C 0.10141 0.63332 0.17559 0.0
C621 C 0.04024 0.59953 0.16808 0.0
O622 O 0.03837 0.5884 0.17992 0.0
O623 O 0.0851 0.58735 0.17064 0.0
O624 O 0.10993 0.58725 0.1814 0.0
O625 O 0.06651 0.62202 0.20837 0.0
O626 O 0.08796 0.60668 0.20787 0.0
C627 C 0.09931 0.58203 0.1708 0.0
C628 C 0.07972 0.61758 0.21544 0.0
O629 O 0.0531 0.60851 0.16772 0.0
Mg630 Mg 0.12797 0.37742 0.89878 0.0
O631 O 0.1321 0.34946 0.89969 0.0
O632 O 0.15698 0.34549 0.90915 0.0
Mg633 Mg 0.16809 0.37103 0.91611 0.0
C634 C 0.14341 0.33989 0.90359 0.0
C635 C 0.09195 0.38388 0.89716 0.0
O636 O 0.09816 0.39818 0.90259 0.0
O637 O 0.12405 0.37697 0.92683 0.0
O638 O 0.14889 0.37274 0.93623 0.0
O639 O 0.13951 0.37827 0.87361 0.0
O640 O 0.15247 0.38237 0.89757 0.0
C641 C 0.13398 0.37474 0.93877 0.0
C642 C 0.15297 0.38051 0.88166 0.0
O643 O 0.10129 0.37215 0.89408 0.0
Mg644 Mg 0.41938 0.39663 0.66718 0.0
O645 O 0.40524 0.37568 0.65351 0.0
O646 O 0.38014 0.37441 0.66308 0.0
Mg647 Mg 0.37827 0.39474 0.68282 0.0
C648 C 0.39102 0.36919 0.6535 0.0
C649 C 0.4458 0.38184 0.6454 0.0
O650 O 0.4401 0.36843 0.65293 0.0
O651 O 0.40658 0.41563 0.65176 0.0
O652 O 0.38187 0.41449 0.66233 0.0
O653 O 0.42618 0.37896 0.68707 0.0
O654 O 0.40432 0.39367 0.68749 0.0
C655 C 0.39224 0.42058 0.65218 0.0
C656 C 0.41286 0.38242 0.69422 0.0
O657 O 0.4395 0.39567 0.64833 0.0
Mg658 Mg 0.32584 0.06999 0.34697 0.0
O659 O 0.33804 0.08386 0.36906 0.0
O660 O 0.36346 0.07607 0.37063 0.0
Mg661 Mg 0.36759 0.05759 0.34963 0.0
C662 C 0.3519 0.08448 0.37604 0.0
C663 C 0.2941 0.08708 0.33687 0.0
O664 O 0.29536 0.07708 0.32399 0.0
O665 O 0.33888 0.0869 0.3284 0.0
O666 O 0.36389 0.07801 0.33018 0.0
O667 O 0.31888 0.04909 0.36389 0.0
O668 O 0.34173 0.05079 0.35015 0.0
C669 C 0.3535 0.08748 0.32384 0.0
C670 C 0.33285 0.04326 0.36105 0.0
O671 O 0.30493 0.08728 0.34815 0.0
H672 H 0.11476 0.35376 0.36136 0.0
H673 H 0.12277 0.32745 0.37332 0.0
H674 H 0.07364 0.31549 0.38631 0.0
H675 H 0.06547 0.34196 0.37458 0.0
H676 H 0.09588 0.30692 0.41103 0.0
H677 H 0.1128 0.28342 0.34872 0.0
H678 H 0.12278 0.3028 0.35447 0.0
H679 H 0.10137 0.30182 0.35141 0.0
C680 C 0.10564 0.34565 0.36692 0.0
C681 C 0.08942 0.34989 0.36682 0.0
C682 C 0.11025 0.33057 0.37367 0.0
C683 C 0.09873 0.31937 0.3803 0.0
C684 C 0.08268 0.32393 0.3811 0.0
H685 H 0.11131 0.21355 0.39498 0.0
H686 H 0.10253 0.24074 0.38568 0.0
C687 C 0.07805 0.33908 0.37442 0.0
C688 C 0.10336 0.30266 0.38581 0.0
H689 H 0.11978 0.26694 0.37202 0.0
C690 C 0.10106 0.29814 0.40252 0.0
C691 C 0.10985 0.29115 0.37458 0.0
C692 C 0.11171 0.29494 0.35626 0.0
C693 C 0.10543 0.28251 0.4084 0.0
C694 C 0.11253 0.27127 0.39731 0.0
C695 C 0.11449 0.27566 0.38053 0.0
C696 C 0.11799 0.25485 0.40285 0.0
C697 C 0.10219 0.2781 0.42636 0.0
C698 C 0.12984 0.25382 0.41531 0.0
C699 C 0.13485 0.23833 0.42066 0.0
C700 C 0.12821 0.22358 0.41353 0.0
C701 C 0.11664 0.22467 0.40073 0.0
C702 C 0.1116 0.24018 0.39543 0.0
H703 H 0.09283 0.28592 0.43177 0.0
H704 H 0.09828 0.26481 0.42757 0.0
H705 H 0.11337 0.28023 0.43382 0.0
H706 H 0.13523 0.265 0.4209 0.0
H707 H 0.14387 0.23794 0.43046 0.0
H708 H 0.04248 0.87649 0.58881 0.0
H709 H 0.01527 0.88286 0.57973 0.0
H710 H 0.00773 0.90746 0.62682 0.0
H711 H 0.03486 0.90202 0.63542 0.0
H712 H 0.99155 0.86896 0.59299 0.0
H713 H 0.98015 0.93501 0.59979 0.0
H714 H 0.00039 0.92784 0.59879 0.0
H715 H 0.99027 0.92932 0.61856 0.0
C716 C 0.03519 0.88383 0.59691 0.0
C717 C 0.04072 0.8885 0.61294 0.0
C718 C 0.01963 0.88749 0.59171 0.0
C719 C 0.00934 0.89574 0.60251 0.0
C720 C 0.01541 0.90153 0.61796 0.0
H721 H 0.92789 0.86005 0.64315 0.0
H722 H 0.9535 0.87094 0.63261 0.0
C723 C 0.03097 0.89814 0.62302 0.0
C724 C 0.99167 0.89503 0.59965 0.0
H725 H 0.95825 0.91547 0.61093 0.0
C726 C 0.98429 0.87937 0.59625 0.0
C727 C 0.9819 0.90855 0.60349 0.0
C728 C 0.98868 0.92613 0.60515 0.0
C729 C 0.96785 0.87642 0.59874 0.0
C730 C 0.95866 0.88932 0.60518 0.0
C731 C 0.96549 0.90546 0.60653 0.0
C732 C 0.94297 0.8854 0.61291 0.0
C733 C 0.96067 0.85916 0.59563 0.0
C734 C 0.92859 0.89078 0.60591 0.0
C735 C 0.91384 0.88472 0.61211 0.0
C736 C 0.91345 0.87319 0.62527 0.0
C737 C 0.92788 0.86884 0.63294 0.0
C738 C 0.94249 0.87498 0.62689 0.0
H739 H 0.96744 0.85252 0.58595 0.0
H740 H 0.96127 0.85186 0.60733 0.0
H741 H 0.9479 0.85957 0.59162 0.0
H742 H 0.92878 0.89891 0.59516 0.0
H743 H 0.90285 0.88815 0.60592 0.0
H744 H 0.35489 0.76197 0.89833 0.0
H745 H 0.36189 0.73718 0.88264 0.0
H746 H 0.40938 0.73985 0.90455 0.0
H747 H 0.40244 0.76449 0.92049 0.0
H748 H 0.3865 0.73238 0.85965 0.0
H749 H 0.39303 0.69251 0.91561 0.0
H750 H 0.38359 0.71232 0.91635 0.0
H751 H 0.40509 0.71149 0.91601 0.0
C752 C 0.36684 0.75731 0.8998 0.0
C753 C 0.37806 0.7651 0.91079 0.0
C754 C 0.37082 0.74316 0.89081 0.0
C755 C 0.38605 0.73654 0.89267 0.0
C756 C 0.39744 0.74457 0.90322 0.0
H757 H 0.42718 0.64737 0.85179 0.0
H758 H 0.42325 0.67405 0.8656 0.0
C759 C 0.39347 0.7587 0.91225 0.0
C760 C 0.38991 0.72112 0.88369 0.0
H761 H 0.3997 0.68073 0.88966 0.0
C762 C 0.38939 0.72107 0.86619 0.0
C763 C 0.39368 0.70642 0.8923 0.0
C764 C 0.39376 0.70556 0.9111 0.0
C765 C 0.39264 0.70671 0.85703 0.0
C766 C 0.39626 0.69198 0.86564 0.0
C767 C 0.39697 0.69208 0.88313 0.0
C768 C 0.39881 0.67616 0.85678 0.0
C769 C 0.39232 0.70744 0.83823 0.0
C770 C 0.3863 0.66848 0.84739 0.0
C771 C 0.38848 0.65323 0.83951 0.0
C772 C 0.4032 0.64533 0.84094 0.0
C773 C 0.41572 0.65309 0.85039 0.0
C774 C 0.41349 0.66834 0.85829 0.0
H775 H 0.39358 0.72044 0.83366 0.0
H776 H 0.40206 0.70012 0.83286 0.0
H777 H 0.38068 0.70204 0.83355 0.0
H778 H 0.37477 0.67416 0.84636 0.0
H779 H 0.37856 0.6476 0.83239 0.0
H780 H 0.46797 0.1195 0.09357 0.0
H781 H 0.49486 0.11083 0.08618 0.0
H782 H 0.50132 0.0917 0.13593 0.0
H783 H 0.47451 0.09971 0.14312 0.0
H784 H 0.52112 0.12332 0.09925 0.0
H785 H 0.52205 0.0561 0.11069 0.0
H786 H 0.50345 0.06679 0.10874 0.0
H787 H 0.51377 0.06579 0.12861 0.0
C788 C 0.47498 0.11305 0.10277 0.0
C789 C 0.46913 0.11035 0.11895 0.0
C790 C 0.49033 0.10807 0.09852 0.0
C791 C 0.50005 0.10029 0.11038 0.0
C792 C 0.49393 0.09712 0.12634 0.0
H793 H 0.58907 0.11755 0.14723 0.0
H794 H 0.56149 0.10954 0.13929 0.0
C795 C 0.47862 0.10195 0.13053 0.0
C796 C 0.51733 0.09791 0.10727 0.0
H797 H 0.5475 0.07204 0.11736 0.0
C798 C 0.52683 0.11188 0.10259 0.0
C799 C 0.5249 0.08297 0.11143 0.0
C800 C 0.51543 0.06705 0.11495 0.0
C801 C 0.5436 0.11183 0.10369 0.0
C802 C 0.55101 0.09754 0.10979 0.0
C803 C 0.5417 0.08305 0.11292 0.0
C804 C 0.56783 0.0987 0.11565 0.0
C805 C 0.55329 0.1275 0.09963 0.0
C806 C 0.58049 0.09455 0.10524 0.0
C807 C 0.59636 0.09896 0.10987 0.0
C808 C 0.59955 0.10773 0.12482 0.0
C809 C 0.5869 0.11078 0.13566 0.0
C810 C 0.57117 0.10623 0.13115 0.0
H811 H 0.54619 0.13636 0.09226 0.0
H812 H 0.5573 0.13374 0.1114 0.0
H813 H 0.56417 0.12448 0.09251 0.0
H814 H 0.57805 0.08883 0.09318 0.0
H815 H 0.60592 0.09667 0.10121 0.0
H816 H 0.12913 0.65286 0.17545 0.0
H817 H 0.13464 0.67795 0.15893 0.0
H818 H 0.08813 0.67184 0.13521 0.0
H819 H 0.08238 0.64698 0.15175 0.0
H820 H 0.13478 0.68348 0.12381 0.0
H821 H 0.08804 0.7187 0.15578 0.0
H822 H 0.09523 0.69936 0.16375 0.0
H823 H 0.08068 0.69926 0.14703 0.0
C824 C 0.12008 0.65682 0.16668 0.0
C825 C 0.10523 0.64801 0.16508 0.0
C826 C 0.12328 0.67112 0.15723 0.0
C827 C 0.11169 0.67684 0.14607 0.0
C828 C 0.09711 0.66777 0.14401 0.0
H829 H 0.11521 0.75061 0.06819 0.0
H830 H 0.11753 0.72481 0.08411 0.0
C831 C 0.09386 0.65355 0.15347 0.0
C832 C 0.1145 0.69262 0.13697 0.0
H833 H 0.09921 0.73091 0.13141 0.0
C834 C 0.12711 0.69393 0.12552 0.0
C835 C 0.10462 0.70628 0.13946 0.0
C836 C 0.09148 0.70595 0.15229 0.0
C837 C 0.12978 0.70845 0.11609 0.0
C838 C 0.11942 0.72182 0.11807 0.0
C839 C 0.1071 0.72061 0.12984 0.0
C840 C 0.12081 0.73721 0.10801 0.0
C841 C 0.14371 0.7094 0.10425 0.0
C842 C 0.12209 0.7527 0.1161 0.0
C843 C 0.12052 0.76734 0.10709 0.0
C844 C 0.11767 0.76676 0.08981 0.0
C845 C 0.11746 0.75135 0.08151 0.0
C846 C 0.11885 0.73663 0.09059 0.0
H847 H 0.15302 0.70048 0.1077 0.0
H848 H 0.13932 0.70621 0.09147 0.0
H849 H 0.14932 0.72214 0.10398 0.0
H850 H 0.1237 0.75343 0.12952 0.0
H851 H 0.12119 0.77906 0.11373 0.0
H852 H 0.45374 0.8775 0.33217 0.0
H853 H 0.4826 0.8778 0.33728 0.0
H854 H 0.47469 0.85803 0.38656 0.0
H855 H 0.44561 0.85745 0.38146 0.0
H856 H 0.50018 0.89474 0.36189 0.0
H857 H 0.50707 0.82641 0.36642 0.0
H858 H 0.4892 0.83539 0.35802 0.0
H859 H 0.49255 0.83487 0.38018 0.0
C860 C 0.45808 0.87317 0.34411 0.0
C861 C 0.44736 0.86739 0.3564 0.0
C862 C 0.4746 0.87337 0.34699 0.0
C863 C 0.48078 0.86774 0.36219 0.0
C864 C 0.47016 0.86213 0.37461 0.0
H865 H 0.57949 0.88839 0.39442 0.0
H866 H 0.55027 0.88596 0.39248 0.0
C867 C 0.45356 0.86192 0.37173 0.0
C868 C 0.49837 0.86816 0.36499 0.0
H869 H 0.53033 0.84356 0.37147 0.0
C870 C 0.50678 0.88357 0.36405 0.0
C871 C 0.50693 0.85352 0.36757 0.0
C872 C 0.49854 0.83657 0.36798 0.0
C873 C 0.52355 0.88475 0.36558 0.0
C874 C 0.5321 0.87015 0.36845 0.0
C875 C 0.5237 0.85473 0.36938 0.0
C876 C 0.54979 0.87069 0.3702 0.0
C877 C 0.53199 0.90157 0.36369 0.0
C878 C 0.55921 0.86241 0.35863 0.0
C879 C 0.57596 0.86367 0.35975 0.0
C880 C 0.58355 0.87323 0.37249 0.0
C881 C 0.57404 0.88109 0.38433 0.0
C882 C 0.55733 0.87976 0.38323 0.0
H883 H 0.52421 0.91062 0.35743 0.0
H884 H 0.5353 0.9066 0.37622 0.0
H885 H 0.54316 0.90058 0.35639 0.0
H886 H 0.55358 0.85527 0.34853 0.0
H887 H 0.58294 0.85741 0.35049 0.0
H888 H 0.36406 0.23437 0.56279 0.0
H889 H 0.36009 0.26237 0.57398 0.0
H890 H 0.39689 0.25492 0.61114 0.0
H891 H 0.40084 0.22714 0.60021 0.0
H892 H 0.36878 0.26818 0.62381 0.0
H893 H 0.39173 0.30277 0.56835 0.0
H894 H 0.3757 0.28751 0.56485 0.0
H895 H 0.39509 0.28095 0.57142 0.0
C896 C 0.37127 0.23872 0.57336 0.0
C897 C 0.38272 0.22853 0.58067 0.0
C898 C 0.36902 0.25471 0.57968 0.0
C899 C 0.37829 0.2607 0.59329 0.0
C900 C 0.38959 0.25048 0.60065 0.0
H901 H 0.41177 0.3519 0.63448 0.0
H902 H 0.40595 0.32647 0.61853 0.0
C903 C 0.39181 0.23458 0.5944 0.0
C904 C 0.37653 0.27765 0.60004 0.0
H905 H 0.38522 0.31858 0.59185 0.0
C906 C 0.37212 0.27926 0.61678 0.0
C907 C 0.38103 0.29198 0.59079 0.0
C908 C 0.38626 0.29083 0.57288 0.0
C909 C 0.37278 0.29478 0.6248 0.0
C910 C 0.37766 0.30909 0.61568 0.0
C911 C 0.38142 0.30757 0.59874 0.0
C912 C 0.38057 0.32539 0.62398 0.0
C913 C 0.36917 0.29557 0.6432 0.0
C914 C 0.36813 0.33342 0.63198 0.0
C915 C 0.37144 0.3479 0.64128 0.0
C916 C 0.38723 0.35467 0.64257 0.0
C917 C 0.3995 0.347 0.63384 0.0
C918 C 0.39619 0.33248 0.62466 0.0
H919 H 0.36871 0.28305 0.64901 0.0
H920 H 0.37836 0.30348 0.64991 0.0
H921 H 0.35733 0.30114 0.64495 0.0
H922 H 0.35594 0.3283 0.63133 0.0
H923 H 0.36167 0.35361 0.64767 0.0
H924 H 0.04963 0.12447 0.88558 0.0
H925 H 0.02128 0.12161 0.89293 0.0
H926 H 0.01319 0.1701 0.87244 0.0
H927 H 0.0415 0.17305 0.86488 0.0
H928 H 4e-05 0.14211 0.91211 0.0
H929 H 0.98364 0.1373 0.84476 0.0
H930 H 0.00394 0.13528 0.85229 0.0
H931 H 0.99557 0.15547 0.85076 0.0
C932 C 0.04189 0.13464 0.88283 0.0
C933 C 0.04778 0.14889 0.87442 0.0
C934 C 0.0257 0.13299 0.88708 0.0
C935 C 0.01514 0.14552 0.88296 0.0
C936 C 0.02114 0.16018 0.87548 0.0
H937 H 0.91107 0.14588 0.88064 0.0
H938 H 0.93962 0.15375 0.87974 0.0
C939 C 0.03733 0.16186 0.87122 0.0
C940 C 0.99768 0.14269 0.88536 0.0
H941 H 0.96242 0.13646 0.86388 0.0
C942 C 0.99177 0.14092 0.9016 0.0
C943 C 0.98699 0.14109 0.87159 0.0
C944 C 0.9928 0.14224 0.85384 0.0
C945 C 0.97534 0.13774 0.90445 0.0
C946 C 0.96468 0.13597 0.89065 0.0
C947 C 0.97062 0.13788 0.87443 0.0
C948 C 0.94734 0.13178 0.89258 0.0
C949 C 0.96953 0.13653 0.92217 0.0
C950 C 0.9422 0.11681 0.90012 0.0
C951 C 0.92585 0.11228 0.9007 0.0
C952 C 0.91439 0.12257 0.89356 0.0
C953 C 0.91958 0.13765 0.8862 0.0
C954 C 0.9359 0.14219 0.8857 0.0
H955 H 0.97812 0.14284 0.93104 0.0
H956 H 0.95762 0.1421 0.92348 0.0
H957 H 0.96833 0.12323 0.92575 0.0
H958 H 0.95084 0.1084 0.90515 0.0
H959 H 0.92225 0.10056 0.9064 0.0
H960 H 0.41606 0.15693 0.19371 0.0
H961 H 0.40421 0.15213 0.22116 0.0
H962 H 0.37757 0.10914 0.20182 0.0
H963 H 0.38954 0.11363 0.17444 0.0
H964 H 0.37204 0.1486 0.2332 0.0
H965 H 0.4058 0.09068 0.23936 0.0
H966 H 0.41009 0.1059 0.22338 0.0
H967 H 0.39328 0.09137 0.22103 0.0
C968 C 0.40755 0.14655 0.19524 0.0
C969 C 0.40394 0.13549 0.18197 0.0
C970 C 0.40075 0.14388 0.21092 0.0
C971 C 0.39025 0.13013 0.21354 0.0
C972 C 0.38589 0.11965 0.20008 0.0
H973 H 0.33437 0.10088 0.29978 0.0
H974 H 0.34317 0.11385 0.27371 0.0
C975 C 0.39273 0.12225 0.18445 0.0
C976 C 0.38482 0.12598 0.23058 0.0
H977 H 0.38696 0.09597 0.26033 0.0
C978 C 0.37531 0.13713 0.2392 0.0
C979 C 0.38936 0.11115 0.23844 0.0
C980 C 0.40032 0.09914 0.23017 0.0
C981 C 0.36994 0.13363 0.25543 0.0
C982 C 0.37407 0.11852 0.26305 0.0
C983 C 0.38376 0.10754 0.25446 0.0
C984 C 0.36851 0.11355 0.27986 0.0
C985 C 0.36011 0.1462 0.26435 0.0
C986 C 0.37979 0.10928 0.29206 0.0
C987 C 0.37483 0.10166 0.30682 0.0
C988 C 0.35844 0.09819 0.3097 0.0
C989 C 0.34707 0.10346 0.29796 0.0
C990 C 0.35208 0.11095 0.28308 0.0
H991 H 0.36182 0.15881 0.2589 0.0
H992 H 0.34721 0.14244 0.26316 0.0
H993 H 0.36329 0.14684 0.27783 0.0
H994 H 0.39253 0.11119 0.28984 0.0
H995 H 0.38387 0.09789 0.31568 0.0
H996 H 0.14016 0.1311 0.46857 0.0
H997 H 0.13872 0.12081 0.49703 0.0
H998 H 0.10937 0.16164 0.51066 0.0
H999 H 0.11092 0.17223 0.48207 0.0
H1000 H 0.13489 0.15857 0.53161 0.0
H1001 H 0.1036 0.09722 0.52334 0.0
H1002 H 0.12029 0.09971 0.50953 0.0
H1003 H 0.10353 0.11305 0.50743 0.0
C1004 C 0.13309 0.13773 0.47748 0.0
C1005 C 0.12561 0.15246 0.47304 0.0
C1006 C 0.13222 0.13177 0.49376 0.0
C1007 C 0.12373 0.14031 0.5059 0.0
C1008 C 0.11588 0.1548 0.50143 0.0
H1009 H 0.1181 0.09797 0.60612 0.0
H1010 H 0.11068 0.11008 0.57938 0.0
C1011 C 0.11677 0.16081 0.4851 0.0
C1012 C 0.12446 0.13493 0.52351 0.0
H1013 H 0.11974 0.10082 0.54837 0.0
C1014 C 0.13133 0.14603 0.53536 0.0
C1015 C 0.11961 0.11865 0.52842 0.0
C1016 C 0.11119 0.10654 0.51653 0.0
C1017 C 0.13426 0.141 0.5518 0.0
C1018 C 0.13051 0.12435 0.55637 0.0
C1019 C 0.12285 0.11352 0.54476 0.0
C1020 C 0.13497 0.11771 0.5729 0.0
C1021 C 0.14146 0.15353 0.56407 0.0
C1022 C 0.15111 0.11789 0.57805 0.0
C1023 C 0.15542 0.11103 0.59336 0.0
C1024 C 0.14365 0.10369 0.60372 0.0
C1025 C 0.12748 0.10351 0.59847 0.0
C1026 C 0.12319 0.11043 0.58319 0.0
H1027 H 0.1389 0.16646 0.56033 0.0
H1028 H 0.1368 0.15133 0.57683 0.0
H1029 H 0.15468 0.15244 0.56443 0.0
H1030 H 0.16043 0.12308 0.5701 0.0
H1031 H 0.16799 0.11129 0.59695 0.0
H1032 H 0.11148 0.91797 0.81578 0.0
H1033 H 0.10514 0.90677 0.7881 0.0
H1034 H 0.15209 0.88625 0.78557 0.0
H1035 H 0.15869 0.89762 0.8132 0.0
H1036 H 0.14545 0.90581 0.75893 0.0
H1037 H 0.0948 0.86067 0.76907 0.0
H1038 H 0.09151 0.88047 0.77858 0.0
H1039 H 0.10779 0.86823 0.78585 0.0
C1040 C 0.12037 0.91079 0.80952 0.0
C1041 C 0.13566 0.90883 0.81669 0.0
C1042 C 0.11667 0.90428 0.79372 0.0
C1043 C 0.12809 0.89554 0.78485 0.0
C1044 C 0.14309 0.89291 0.79225 0.0
H1045 H 0.10373 0.85764 0.68452 0.0
H1046 H 0.11384 0.85904 0.71331 0.0
C1047 C 0.14683 0.89943 0.80806 0.0
C1048 C 0.12501 0.89095 0.76718 0.0
H1049 H 0.09758 0.87144 0.74115 0.0
C1050 C 0.13513 0.89806 0.75505 0.0
C1051 C 0.11166 0.88069 0.76214 0.0
C1052 C 0.10092 0.87193 0.77461 0.0
C1053 C 0.13179 0.8959 0.73799 0.0
C1054 C 0.11783 0.88661 0.73298 0.0
C1055 C 0.10818 0.87874 0.74506 0.0
C1056 C 0.11252 0.88578 0.71534 0.0
C1057 C 0.14309 0.90381 0.72549 0.0
C1058 C 0.10842 0.90035 0.70702 0.0
C1059 C 0.10263 0.89961 0.69063 0.0
C1060 C 0.10077 0.88425 0.68228 0.0
C1061 C 0.10506 0.86967 0.6906 0.0
C1062 C 0.11081 0.87043 0.70704 0.0
H1063 H 0.15528 0.90616 0.73094 0.0
H1064 H 0.14407 0.89584 0.71423 0.0
H1065 H 0.13844 0.91594 0.72155 0.0
H1066 H 0.10939 0.91229 0.71333 0.0
H1067 H 0.0994 0.91106 0.6846 0.0
H1068 H 0.37838 0.80205 0.99077 0.0
H1069 H 0.38308 0.81299 0.01918 0.0
H1070 H 0.34974 0.85161 0.00962 0.0
H1071 H 0.34494 0.84087 0.98159 0.0
H1072 H 0.37987 0.86251 0.02497 0.0
H1073 H 0.34899 0.80917 0.05723 0.0
H1074 H 0.36463 0.80491 0.04268 0.0
H1075 H 0.3461 0.81287 0.03522 0.0
C1076 C 0.37212 0.8129 0.99475 0.0
C1077 C 0.36137 0.82066 0.9839 0.0
C1078 C 0.3748 0.81909 0.01095 0.0
C1079 C 0.36672 0.83307 0.01643 0.0
C1080 C 0.35616 0.84087 0.00556 0.0
H1081 H 0.33016 0.8781 0.10061 0.0
H1082 H 0.33713 0.86169 0.07628 0.0
C1083 C 0.35346 0.83472 0.9895 0.0
C1084 C 0.36867 0.83963 0.03358 0.0
H1085 H 0.35563 0.83295 0.07326 0.0
C1086 C 0.37493 0.85595 0.03566 0.0
C1087 C 0.36208 0.83101 0.04737 0.0
C1088 C 0.35498 0.81354 0.04565 0.0
C1089 C 0.3739 0.86428 0.05098 0.0
C1090 C 0.36663 0.85591 0.06459 0.0
C1091 C 0.36121 0.83927 0.06276 0.0
C1092 C 0.3628 0.86484 0.0801 0.0
C1093 C 0.37959 0.8823 0.05215 0.0
C1094 C 0.37495 0.87183 0.09044 0.0
C1095 C 0.37103 0.88135 0.10433 0.0
C1096 C 0.35486 0.88393 0.10816 0.0
C1097 C 0.34274 0.87644 0.09802 0.0
C1098 C 0.34668 0.867 0.08414 0.0
H1099 H 0.3825 0.88765 0.03974 0.0
H1100 H 0.37032 0.88989 0.05801 0.0
H1101 H 0.39057 0.88333 0.06008 0.0
H1102 H 0.38746 0.8701 0.08764 0.0
H1103 H 0.38066 0.8868 0.11195 0.0
H1104 H 0.39478 0.84042 0.29841 0.0
H1105 H 0.38143 0.8379 0.27131 0.0
H1106 H 0.3353 0.83912 0.29508 0.0
H1107 H 0.3487 0.84266 0.32226 0.0
H1108 H 0.35976 0.81938 0.25413 0.0
H1109 H 0.3347 0.88101 0.2687 0.0
H1110 H 0.34898 0.87147 0.28227 0.0
H1111 H 0.32826 0.86429 0.28207 0.0
C1112 C 0.38178 0.8398 0.29793 0.0
C1113 C 0.37277 0.8422 0.31237 0.0
C1114 C 0.37415 0.83831 0.28241 0.0
C1115 C 0.35738 0.8389 0.28112 0.0
C1116 C 0.34828 0.83926 0.29574 0.0
H1117 H 0.31472 0.87437 0.18825 0.0
H1118 H 0.31551 0.85714 0.21334 0.0
C1119 C 0.35594 0.8412 0.31127 0.0
C1120 C 0.34995 0.84153 0.2645 0.0
H1121 H 0.33196 0.87135 0.2415 0.0
C1122 C 0.3534 0.83058 0.25142 0.0
C1123 C 0.34165 0.8562 0.26093 0.0
C1124 C 0.33827 0.869 0.27416 0.0
C1125 C 0.34965 0.83441 0.23479 0.0
C1126 C 0.34219 0.84948 0.23124 0.0
C1127 C 0.33761 0.85975 0.24436 0.0
C1128 C 0.34139 0.85634 0.21421 0.0
C1129 C 0.3543 0.82271 0.22109 0.0
C1130 C 0.35569 0.86135 0.20631 0.0
C1131 C 0.35532 0.87138 0.19217 0.0
C1132 C 0.34061 0.87655 0.18567 0.0
C1133 C 0.32624 0.87061 0.19298 0.0
C1134 C 0.32665 0.86072 0.20726 0.0
H1135 H 0.3553 0.80981 0.22578 0.0
H1136 H 0.34545 0.82268 0.21064 0.0
H1137 H 0.36617 0.82686 0.21616 0.0
H1138 H 0.36721 0.85839 0.21169 0.0
H1139 H 0.36658 0.87563 0.18676 0.0
H1140 H 0.39802 0.17563 0.49893 0.0
H1141 H 0.38985 0.16133 0.47316 0.0
H1142 H 0.35663 0.12968 0.50052 0.0
H1143 H 0.36493 0.14379 0.52653 0.0
H1144 H 0.37488 0.11236 0.47846 0.0
H1145 H 0.34814 0.16604 0.44698 0.0
H1146 H 0.36831 0.17048 0.45414 0.0
H1147 H 0.35277 0.16598 0.46903 0.0
C1148 C 0.38894 0.16566 0.4995 0.0
C1149 C 0.38207 0.16089 0.51478 0.0
C1150 C 0.3842 0.15759 0.48472 0.0
C1151 C 0.3724 0.1447 0.48489 0.0
C1152 C 0.36566 0.13972 0.50013 0.0
H1153 H 0.32961 0.10122 0.39382 0.0
H1154 H 0.33364 0.11562 0.42058 0.0
C1155 C 0.37043 0.14777 0.51496 0.0
C1156 C 0.3676 0.13604 0.46919 0.0
H1157 H 0.35371 0.14267 0.42965 0.0
C1158 C 0.3701 0.11894 0.46784 0.0
C1159 C 0.36114 0.14461 0.45544 0.0
C1160 C 0.35727 0.16276 0.45649 0.0
C1161 C 0.36688 0.1103 0.45288 0.0
C1162 C 0.36131 0.11908 0.43884 0.0
C1163 C 0.3582 0.13603 0.44037 0.0
C1164 C 0.35898 0.11094 0.42236 0.0
C1165 C 0.36946 0.09183 0.45225 0.0
C1166 C 0.37199 0.10398 0.41432 0.0
C1167 C 0.36975 0.09574 0.39908 0.0
C1168 C 0.35446 0.09442 0.3915 0.0
C1169 C 0.34154 0.10196 0.39932 0.0
C1170 C 0.3438 0.11017 0.41461 0.0
H1171 H 0.36922 0.08625 0.4649 0.0
H1172 H 0.36019 0.08529 0.44434 0.0
H1173 H 0.3814 0.08968 0.44682 0.0
H1174 H 0.38388 0.10481 0.4199 0.0
H1175 H 0.38 0.09023 0.39336 0.0
H1176 H 0.08945 0.16304 0.80159 0.0
H1177 H 0.09768 0.16692 0.77259 0.0
H1178 H 0.1422 0.14342 0.78338 0.0
H1179 H 0.13411 0.13941 0.81229 0.0
H1180 H 0.14276 0.1729 0.75865 0.0
H1181 H 0.09808 0.12075 0.74634 0.0
H1182 H 0.0916 0.13866 0.75757 0.0
H1183 H 0.10578 0.12527 0.76704 0.0
C1184 C 0.10116 0.15907 0.79791 0.0
C1185 C 0.11104 0.1507 0.80919 0.0
C1186 C 0.10585 0.16136 0.78136 0.0
C1187 C 0.12048 0.15536 0.77591 0.0
C1188 C 0.13089 0.1482 0.78743 0.0
H1189 H 0.17246 0.123 0.69363 0.0
H1190 H 0.16419 0.13909 0.71772 0.0
C1191 C 0.1262 0.14585 0.80393 0.0
C1192 C 0.12384 0.15393 0.75794 0.0
H1193 H 0.11473 0.12894 0.72456 0.0
C1194 C 0.13649 0.16352 0.75102 0.0
C1195 C 0.11558 0.14171 0.7481 0.0
C1196 C 0.10204 0.1309 0.75506 0.0
C1197 C 0.14138 0.16085 0.73452 0.0
C1198 C 0.1337 0.14794 0.72498 0.0
C1199 C 0.1206 0.1389 0.73177 0.0
C1200 C 0.13987 0.14216 0.70873 0.0
C1201 C 0.15477 0.1718 0.72759 0.0
C1202 C 0.12911 0.13874 0.69544 0.0
C1203 C 0.13368 0.12906 0.68195 0.0
C1204 C 0.14921 0.12295 0.68132 0.0
C1205 C 0.16046 0.1277 0.69376 0.0
C1206 C 0.15575 0.13704 0.7075 0.0
H1207 H 0.15476 0.18446 0.7332 0.0
H1208 H 0.16645 0.1664 0.73079 0.0
H1209 H 0.1538 0.17293 0.71382 0.0
H1210 H 0.11681 0.14256 0.69607 0.0
H1211 H 0.12483 0.12562 0.67243 0.0
H1212 H 0.11031 0.84862 0.02521 0.0
H1213 H 0.11461 0.86408 -0.00064 0.0
H1214 H 0.13588 0.82135 0.97721 0.0
H1215 H 0.13153 0.80569 0.00299 0.0
H1216 H 0.14416 0.87105 0.98301 0.0
H1217 H 0.10081 0.83421 0.94315 0.0
H1218 H 0.10055 0.83336 0.96566 0.0
H1219 H 0.11527 0.82234 0.95427 0.0
C1220 C 0.11586 0.84246 0.01484 0.0
C1221 C 0.12051 0.82588 0.01614 0.0
C1222 C 0.11832 0.85133 9e-05 0.0
C1223 C 0.12537 0.84378 0.98634 0.0
C1224 C 0.13017 0.8273 0.98761 0.0
H1225 H 0.16444 0.89519 0.89956 0.0
H1226 H 0.16047 0.87731 0.92387 0.0
C1227 C 0.12774 0.81841 0.00238 0.0
C1228 C 0.12796 0.85331 0.97079 0.0
H1229 H 0.11687 0.85495 0.92972 0.0
C1230 C 0.13823 0.86753 0.97134 0.0
C1231 C 0.12006 0.84873 0.95567 0.0
C1232 C 0.10844 0.83391 0.95458 0.0
C1233 C 0.14089 0.87729 0.9571 0.0
C1234 C 0.1332 0.87257 0.94191 0.0
C1235 C 0.12284 0.85841 0.94138 0.0
C1236 C 0.13538 0.88254 0.92659 0.0
C1237 C 0.15165 0.89276 0.95847 0.0
C1238 C 0.12245 0.89099 0.91983 0.0
C1239 C 0.12465 0.90122 0.90593 0.0
C1240 C 0.13981 0.90309 0.89848 0.0
C1241 C 0.15262 0.89412 0.905 0.0
C1242 C 0.1504 0.88394 0.91894 0.0
H1243 H 0.15398 0.89648 0.97167 0.0
H1244 H 0.16334 0.8904 0.9526 0.0
H1245 H 0.14625 0.9033 0.95182 0.0
H1246 H 0.11074 0.88998 0.92555 0.0
H1247 H 0.11451 0.90787 0.9012 0.0
H1248 H 0.31885 0.3395 0.10078 0.0
H1249 H 0.28974 0.34168 0.09797 0.0
H1250 H 0.28909 0.37031 0.14351 0.0
H1251 H 0.31817 0.36827 0.14643 0.0
H1252 H 0.2656 0.33107 0.12162 0.0
H1253 H 0.26545 0.39882 0.10857 0.0
H1254 H 0.28318 0.38679 0.10649 0.0
H1255 H 0.27685 0.39335 0.12675 0.0
C1256 C 0.31254 0.34634 0.11016 0.0
C1257 C 0.32083 0.35377 0.12381 0.0
C1258 C 0.29591 0.34752 0.10854 0.0
C1259 C 0.28735 0.35628 0.12044 0.0
C1260 C 0.29556 0.36369 0.13408 0.0
H1261 H 0.18785 0.35793 0.146 0.0
H1262 H 0.21607 0.35126 0.14342 0.0
C1263 C 0.31216 0.36247 0.13575 0.0
C1264 C 0.26976 0.35749 0.11879 0.0
H1265 H 0.24028 0.38547 0.11467 0.0
C1266 C 0.26003 0.34292 0.11997 0.0
C1267 C 0.26259 0.37296 0.11642 0.0
C1268 C 0.27253 0.38887 0.11433 0.0
C1269 C 0.24322 0.3435 0.11938 0.0
C1270 C 0.23605 0.35907 0.11772 0.0
C1271 C 0.24582 0.37355 0.11602 0.0
C1272 C 0.21846 0.36084 0.11835 0.0
C1273 C 0.23328 0.32749 0.12052 0.0
C1274 C 0.21041 0.36828 0.10504 0.0
C1275 C 0.19431 0.37219 0.1065 0.0
C1276 C 0.18601 0.36884 0.12137 0.0
C1277 C 0.19389 0.36065 0.13438 0.0
C1278 C 0.21001 0.35675 0.1329 0.0
H1279 H 0.24032 0.31657 0.11706 0.0
H1280 H 0.22921 0.32577 0.13356 0.0
H1281 H 0.22249 0.3278 0.1123 0.0
H1282 H 0.21675 0.37157 0.09372 0.0
H1283 H 0.18859 0.37844 0.09622 0.0
H1284 H 0.70554 0.10514 0.86594 0.0
H1285 H 0.73087 0.11276 0.85294 0.0
H1286 H 0.72482 0.16425 0.86595 0.0
H1287 H 0.69962 0.15648 0.87993 0.0
H1288 H 0.74136 0.13215 0.82847 0.0
H1289 H 0.76638 0.15668 0.88897 0.0
H1290 H 0.74699 0.14611 0.88767 0.0
H1291 H 0.7496 0.16713 0.88033 0.0
C1292 C 0.70948 0.11813 0.86597 0.0
C1293 C 0.70069 0.13017 0.87424 0.0
C1294 C 0.72397 0.1225 0.85841 0.0
C1295 C 0.72996 0.13904 0.85872 0.0
C1296 C 0.72068 0.15134 0.86595 0.0
H1297 H 0.83407 0.14728 0.84901 0.0
H1298 H 0.80755 0.15762 0.84179 0.0
C1299 C 0.70623 0.1469 0.87386 0.0
C1300 C 0.74657 0.14261 0.85283 0.0
H1301 H 0.78438 0.15108 0.86806 0.0
C1302 C 0.75075 0.1367 0.83698 0.0
C1303 C 0.75885 0.14873 0.86385 0.0
C1304 C 0.75533 0.15494 0.88118 0.0
C1305 C 0.76686 0.13512 0.83257 0.0
C1306 C 0.77903 0.13979 0.8442 0.0
C1307 C 0.77493 0.1475 0.8592 0.0
C1308 C 0.79537 0.13343 0.84308 0.0
C1309 C 0.77077 0.12738 0.81603 0.0
C1310 C 0.79733 0.11637 0.84565 0.0
C1311 C 0.81231 0.11055 0.85011 0.0
C1312 C 0.8256 0.12166 0.85165 0.0
C1313 C 0.82401 0.13846 0.84747 0.0
C1314 C 0.80889 0.14437 0.84341 0.0
H1315 H 0.76106 0.1292 0.80669 0.0
H1316 H 0.78226 0.13271 0.81113 0.0
H1317 H 0.77204 0.1138 0.81771 0.0
H1318 H 0.787 0.10778 0.84583 0.0
H1319 H 0.81326 0.09763 0.85362 0.0
H1320 H 0.15583 0.44696 0.13341 0.0
H1321 H 0.14811 0.47597 0.13191 0.0
H1322 H 0.09839 0.45972 0.12664 0.0
H1323 H 0.10602 0.43075 0.12892 0.0
H1324 H 0.1322 0.49635 0.11137 0.0
H1325 H 0.0977 0.48549 0.16952 0.0
H1326 H 0.11061 0.47021 0.16104 0.0
H1327 H 0.09082 0.47264 0.15238 0.0
C1328 C 0.14328 0.4496 0.13169 0.0
C1329 C 0.13145 0.43671 0.13175 0.0
C1330 C 0.13889 0.46616 0.13079 0.0
C1331 C 0.12263 0.46999 0.12967 0.0
C1332 C 0.11095 0.45703 0.12808 0.0
H1333 H 0.07861 0.56381 0.15057 0.0
H1334 H 0.08398 0.53782 0.13619 0.0
C1335 C 0.11531 0.4405 0.12939 0.0
C1336 C 0.11791 0.4874 0.13195 0.0
H1337 H 0.0973 0.51224 0.15808 0.0
C1338 C 0.12447 0.49983 0.12149 0.0
C1339 C 0.10797 0.49193 0.14533 0.0
C1340 C 0.10149 0.47941 0.15781 0.0
C1341 C 0.12144 0.51669 0.12418 0.0
C1342 C 0.11158 0.5211 0.13755 0.0
C1343 C 0.1047 0.50869 0.1477 0.0
C1344 C 0.10927 0.53852 0.14244 0.0
C1345 C 0.12895 0.52972 0.11293 0.0
C1346 C 0.12185 0.54765 0.15034 0.0
C1347 C 0.11882 0.56241 0.15877 0.0
C1348 C 0.10314 0.56823 0.15943 0.0
C1349 C 0.09081 0.55965 0.15041 0.0
C1350 C 0.09384 0.54484 0.1421 0.0
H1351 H 0.13355 0.5242 0.10128 0.0
H1352 H 0.12012 0.53921 0.10965 0.0
H1353 H 0.13914 0.53615 0.11961 0.0
H1354 H 0.13379 0.5428 0.15094 0.0
H1355 H 0.12861 0.56878 0.16547 0.0
H1356 H 0.68755 0.90686 0.37875 0.0
H1357 H 0.71375 0.90066 0.36796 0.0
H1358 H 0.69146 0.86991 0.32935 0.0
H1359 H 0.66483 0.87605 0.34036 0.0
H1360 H 0.71494 0.85386 0.34689 0.0
H1361 H 0.73915 0.91518 0.3276 0.0
H1362 H 0.73033 0.91709 0.34776 0.0
H1363 H 0.71787 0.91088 0.33009 0.0
C1364 C 0.68817 0.89906 0.36774 0.0
C1365 C 0.67418 0.89193 0.36039 0.0
C1366 C 0.70317 0.89563 0.36148 0.0
C1367 C 0.70457 0.88505 0.34767 0.0
C1368 C 0.6906 0.87828 0.3399 0.0
H1369 H 0.8077 0.88305 0.34572 0.0
H1370 H 0.7816 0.88074 0.33156 0.0
C1371 C 0.67545 0.88184 0.34613 0.0
C1372 C 0.72078 0.87989 0.34299 0.0
H1373 H 0.75863 0.89685 0.34077 0.0
C1374 C 0.72452 0.86314 0.34497 0.0
C1375 C 0.73323 0.89183 0.33991 0.0
C1376 C 0.72987 0.90971 0.33602 0.0
C1377 C 0.74055 0.85841 0.34603 0.0
C1378 C 0.75302 0.87086 0.34562 0.0
C1379 C 0.7492 0.88724 0.34152 0.0
C1380 C 0.76954 0.868 0.35192 0.0
C1381 C 0.74384 0.84025 0.34822 0.0
C1382 C 0.77175 0.86088 0.36775 0.0
C1383 C 0.78678 0.86179 0.37564 0.0
C1384 C 0.79972 0.87033 0.36808 0.0
C1385 C 0.79783 0.87651 0.35185 0.0
C1386 C 0.78292 0.87518 0.34376 0.0
H1387 H 0.73516 0.8324 0.34075 0.0
H1388 H 0.7562 0.83737 0.34443 0.0
H1389 H 0.7422 0.8368 0.3615 0.0
H1390 H 0.76164 0.85574 0.37463 0.0
H1391 H 0.78791 0.85705 0.38822 0.0
H1392 H 0.91977 0.94336 0.14415 0.0
H1393 H 0.91808 0.96963 0.12922 0.0
H1394 H 0.8773 0.9823 0.15869 0.0
H1395 H 0.87864 0.95581 0.17348 0.0
H1396 H 0.8737 0.99048 0.12568 0.0
H1397 H 0.93298 0.01374 0.15003 0.0
H1398 H 0.93367 0.99436 0.13894 0.0
H1399 H 0.92275 0.99537 0.15812 0.0
C1400 C 0.91036 0.95168 0.14741 0.0
C1401 C 0.89945 0.94759 0.16016 0.0
C1402 C 0.90948 0.96672 0.13891 0.0
C1403 C 0.89783 0.97807 0.14316 0.0
C1404 C 0.88647 0.97374 0.15534 0.0
H1405 H 0.89703 0.08346 0.12627 0.0
H1406 H 0.90037 0.05541 0.13697 0.0
C1407 C 0.88724 0.9586 0.16376 0.0
C1408 C 0.89775 0.99464 0.1352 0.0
H1409 H 0.92046 0.0304 0.12978 0.0
C1410 C 0.88391 -0.00078 0.12654 0.0
C1411 C 0.91104 0.00607 0.13657 0.0
C1412 C 0.9259 0.00224 0.14655 0.0
C1413 C 0.883 0.01495 0.11916 0.0
C1414 C 0.89644 0.02621 0.12016 0.0
C1415 C 0.91027 0.02164 0.12885 0.0
C1416 C 0.89602 0.04319 0.11316 0.0
C1417 C 0.86746 0.01953 0.11084 0.0
C1418 C 0.89313 0.04566 0.0961 0.0
C1419 C 0.89114 0.06168 0.08994 0.0
C1420 C 0.89217 0.07551 0.10074 0.0
C1421 C 0.89611 0.07307 0.11763 0.0
C1422 C 0.89799 0.05704 0.12378 0.0
H1423 H 0.85724 0.01122 0.11474 0.0
H1424 H 0.86458 0.03258 0.11376 0.0
H1425 H 0.86865 0.01835 0.09712 0.0
H1426 H 0.892 0.03515 0.08762 0.0
H1427 H 0.88826 0.06316 0.07683 0.0
H1428 H 0.17395 0.6386 0.61388 0.0
H1429 H 0.20302 0.63833 0.61025 0.0
H1430 H 0.2103 0.6566 0.66051 0.0
H1431 H 0.18126 0.65724 0.66417 0.0
H1432 H 0.23082 0.6722 0.63754 0.0
H1433 H 0.23083 0.60341 0.63166 0.0
H1434 H 0.21777 0.61308 0.61697 0.0
H1435 H 0.21365 0.61421 0.63891 0.0
C1436 C 0.18173 0.64257 0.62416 0.0
C1437 C 0.17531 0.64777 0.63937 0.0
C1438 C 0.19832 0.64238 0.62207 0.0
C1439 C 0.20877 0.6472 0.63521 0.0
C1440 C 0.20242 0.65279 0.65025 0.0
H1441 H 0.30676 0.61722 0.63919 0.0
H1442 H 0.2797 0.62459 0.64688 0.0
C1443 C 0.18583 0.65308 0.65233 0.0
C1444 C 0.22631 0.64594 0.63342 0.0
H1445 H 0.25521 0.61818 0.62575 0.0
C1446 C 0.23621 0.6604 0.63504 0.0
C1447 C 0.23328 0.63048 0.63043 0.0
C1448 C 0.22337 0.61438 0.62955 0.0
C1449 C 0.25294 0.65982 0.63341 0.0
C1450 C 0.25983 0.64444 0.62984 0.0
C1451 C 0.24991 0.62998 0.62846 0.0
C1452 C 0.27725 0.64278 0.62728 0.0
C1453 C 0.26308 0.67561 0.63576 0.0
C1454 C 0.28511 0.65107 0.61413 0.0
C1455 C 0.30072 0.64703 0.60984 0.0
C1456 C 0.3085 0.63441 0.61846 0.0
C1457 C 0.30098 0.6269 0.63225 0.0
C1458 C 0.28553 0.6311 0.63666 0.0
H1459 H 0.2567 0.68502 0.64309 0.0
H1460 H 0.2746 0.6731 0.64218 0.0
H1461 H 0.26584 0.68103 0.62337 0.0
H1462 H 0.27886 0.6599 0.60653 0.0
H1463 H 0.30621 0.65292 0.59908 0.0
H1464 H 0.06124 0.43463 0.37865 0.0
H1465 H 0.06699 0.46257 0.39004 0.0
H1466 H 0.11458 0.46235 0.36955 0.0
H1467 H 0.10914 0.43449 0.35846 0.0
H1468 H 0.11381 0.47675 0.40113 0.0
H1469 H 0.06802 0.50246 0.35825 0.0
H1470 H 0.06113 0.48662 0.37251 0.0
H1471 H 0.07471 0.48149 0.3562 0.0
C1472 C 0.07303 0.44041 0.37683 0.0
C1473 C 0.08465 0.4324 0.36741 0.0
C1474 C 0.07624 0.45641 0.38326 0.0
C1475 C 0.09109 0.46464 0.38033 0.0
C1476 C 0.10301 0.45625 0.37187 0.0
H1477 H 0.12779 0.56073 0.36159 0.0
H1478 H 0.11443 0.53323 0.36232 0.0
C1479 C 0.09984 0.44031 0.36548 0.0
C1480 C 0.09409 0.48236 0.38485 0.0
H1481 H 0.08449 0.52158 0.3732 0.0
C1482 C 0.10723 0.48659 0.3953 0.0
C1483 C 0.08554 0.49513 0.37705 0.0
C1484 C 0.07162 0.4913 0.36528 0.0
C1485 C 0.11258 0.50322 0.39752 0.0
C1486 C 0.10433 0.51595 0.3893 0.0
C1487 C 0.09071 0.51177 0.37953 0.0
C1488 C 0.11082 0.53334 0.38901 0.0
C1489 C 0.12759 0.50691 0.40778 0.0
C1490 C 0.11278 0.54273 0.40373 0.0
C1491 C 0.12053 0.55846 0.40337 0.0
C1492 C 0.12633 0.56507 0.38826 0.0
C1493 C 0.12356 0.55598 0.37345 0.0
C1494 C 0.11589 0.54026 0.37383 0.0
H1495 H 0.13408 0.49546 0.41076 0.0
H1496 H 0.13588 0.51565 0.40109 0.0
H1497 H 0.12431 0.51287 0.41971 0.0
H1498 H 0.10866 0.53774 0.41552 0.0
H1499 H 0.12235 0.56522 0.41499 0.0
H1500 H 0.37308 0.57431 0.85889 0.0
H1501 H 0.36368 0.55114 0.87631 0.0
H1502 H 0.41163 0.53274 0.87788 0.0
H1503 H 0.42119 0.55629 0.86121 0.0
H1504 H 0.36334 0.52141 0.86501 0.0
H1505 H 0.39828 0.52071 0.92368 0.0
H1506 H 0.39798 0.53888 0.91053 0.0
H1507 H 0.41161 0.5225 0.90636 0.0
C1508 C 0.3817 0.5656 0.86342 0.0
C1509 C 0.39783 0.56702 0.85859 0.0
C1510 C 0.37632 0.55238 0.87341 0.0
C1511 C 0.38693 0.54018 0.87853 0.0
C1512 C 0.40326 0.54216 0.87453 0.0
H1513 H 0.38382 0.43689 0.88379 0.0
H1514 H 0.39089 0.46651 0.88638 0.0
C1515 C 0.4087 0.55559 0.86483 0.0
C1516 C 0.38053 0.52408 0.88522 0.0
H1517 H 0.38798 0.49353 0.91349 0.0
C1518 C 0.36842 0.51555 0.87591 0.0
C1519 C 0.38718 0.51633 0.89939 0.0
C1520 C 0.39936 0.5252 0.91064 0.0
C1521 C 0.36352 0.49918 0.87972 0.0
C1522 C 0.37086 0.49111 0.89326 0.0
C1523 C 0.38242 0.4998 0.90309 0.0
C1524 C 0.36782 0.47311 0.89593 0.0
C1525 C 0.35118 0.49028 0.86862 0.0
C1526 C 0.35275 0.46698 0.90118 0.0
C1527 C 0.34864 0.45002 0.8997 0.0
C1528 C 0.35956 0.439 0.89289 0.0
C1529 C 0.37511 0.44503 0.889 0.0
C1530 C 0.37921 0.46196 0.89053 0.0
H1531 H 0.348 0.49775 0.85751 0.0
H1532 H 0.35569 0.4782 0.86431 0.0
H1533 H 0.34007 0.48764 0.8758 0.0
H1534 H 0.34383 0.47545 0.90541 0.0
H1535 H 0.33659 0.44575 0.9029 0.0
H1536 H 0.88048 0.65198 0.63619 0.0
H1537 H 0.87045 0.67979 0.63498 0.0
H1538 H 0.8748 0.6796 0.58137 0.0
H1539 H 0.88582 0.65187 0.58261 0.0
H1540 H 0.89022 0.70457 0.59257 0.0
H1541 H 0.83252 0.70526 0.62462 0.0
H1542 H 0.84626 0.69505 0.63806 0.0
H1543 H 0.84098 0.68602 0.61798 0.0
C1544 C 0.87888 0.65759 0.62405 0.0
C1545 C 0.88422 0.64979 0.6095 0.0
C1546 C 0.87291 0.67353 0.62336 0.0
C1547 C 0.87169 0.68186 0.60807 0.0
C1548 C 0.87564 0.67346 0.59334 0.0
H1549 H 0.85604 0.78966 0.61749 0.0
H1550 H 0.85037 0.76014 0.61107 0.0
C1551 C 0.88195 0.6576 0.59405 0.0
C1552 C 0.86944 0.70011 0.608 0.0
H1553 H 0.85009 0.73068 0.62849 0.0
C1554 C 0.88112 0.71022 0.60005 0.0
C1555 C 0.85745 0.70772 0.61747 0.0
C1556 C 0.84352 0.69787 0.62482 0.0
C1557 C 0.88197 0.72747 0.60246 0.0
C1558 C 0.87123 0.73478 0.61362 0.0
C1559 C 0.85865 0.72497 0.62038 0.0
C1560 C 0.87372 0.75227 0.61916 0.0
C1561 C 0.89469 0.73763 0.59337 0.0
C1562 C 0.8884 0.75744 0.62658 0.0
C1563 C 0.89172 0.7742 0.63008 0.0
C1564 C 0.88027 0.7861 0.62658 0.0
C1565 C 0.86509 0.78076 0.62033 0.0
C1566 C 0.86185 0.76393 0.6166 0.0
H1567 H 0.89789 0.73155 0.58145 0.0
H1568 H 0.89068 0.75035 0.59061 0.0
H1569 H 0.90572 0.73869 0.60123 0.0
H1570 H 0.89753 0.74854 0.62915 0.0
H1571 H 0.90343 0.77791 0.63511 0.0
H1572 H 0.98038 0.0947 0.33143 0.0
H1573 H 0.00583 0.10194 0.34552 0.0
H1574 H 0.98096 0.1312 0.3815 0.0
H1575 H 0.95537 0.12378 0.36764 0.0
H1576 H 0.02024 0.13299 0.35073 0.0
H1577 H 0.00779 0.10145 0.41098 0.0
H1578 H 0.99564 0.09755 0.39251 0.0
H1579 H 0.99304 0.11599 0.40479 0.0
C1580 C 0.98029 0.1026 0.3424 0.0
C1581 C 0.96583 0.1086 0.34846 0.0
C1582 C 0.99485 0.10675 0.35042 0.0
C1583 C 0.99527 0.11694 0.36467 0.0
C1584 C 0.98088 0.12304 0.37071 0.0
H1585 H 0.08313 0.1654 0.40524 0.0
H1586 H 0.05661 0.15994 0.39258 0.0
C1587 C 0.96628 0.11885 0.36273 0.0
C1588 C 0.01083 0.12141 0.37293 0.0
H1589 H 0.03178 0.11809 0.40951 0.0
C1590 C 0.02277 0.12975 0.36359 0.0
C1591 C 0.01414 0.11702 0.38965 0.0
C1592 C 0.00205 0.10738 0.40005 0.0
C1593 C 0.03796 0.13382 0.37051 0.0
C1594 C 0.04117 0.12969 0.38732 0.0
C1595 C 0.02923 0.12136 0.39667 0.0
C1596 C 0.0571 0.13319 0.39524 0.0
C1597 C 0.05057 0.14206 0.35961 0.0
C1598 C 0.06599 0.12002 0.40132 0.0
C1599 C 0.08106 0.12309 0.40869 0.0
C1600 C 0.08758 0.13944 0.41016 0.0
C1601 C 0.07855 0.15265 0.40421 0.0
C1602 C 0.06341 0.14956 0.39689 0.0
H1603 H 0.04751 0.14066 0.34614 0.0
H1604 H 0.05151 0.15555 0.36256 0.0
H1605 H 0.0625 0.13676 0.36191 0.0
H1606 H 0.06132 0.1073 0.40021 0.0
H1607 H 0.08764 0.11259 0.41313 0.0
H1608 H 0.61133 0.20074 0.14081 0.0
H1609 H 0.61717 0.23035 0.13802 0.0
H1610 H 0.66588 0.22082 0.12436 0.0
H1611 H 0.65997 0.19077 0.12668 0.0
H1612 H 0.63883 0.25207 0.15274 0.0
H1613 H 0.64977 0.24712 0.08447 0.0
H1614 H 0.64142 0.22989 0.09629 0.0
H1615 H 0.66236 0.23568 0.0983 0.0
C1616 C 0.62336 0.20484 0.13736 0.0
C1617 C 0.63512 0.19333 0.13374 0.0
C1618 C 0.6267 0.22184 0.13581 0.0
C1619 C 0.64187 0.22779 0.13068 0.0
C1620 C 0.65399 0.21646 0.128 0.0
H1621 H 0.63492 0.3362 0.13026 0.0
H1622 H 0.64986 0.31066 0.13262 0.0
C1623 C 0.65063 0.19931 0.12949 0.0
C1624 C 0.64423 0.24583 0.12739 0.0
H1625 H 0.64603 0.27367 0.09536 0.0
C1626 C 0.64077 0.25691 0.14028 0.0
C1627 C 0.64674 0.25201 0.11108 0.0
C1628 C 0.6502 0.24062 0.09667 0.0
C1629 C 0.63825 0.27374 0.1371 0.0
C1630 C 0.63993 0.27981 0.12059 0.0
C1631 C 0.64477 0.269 0.10796 0.0
C1632 C 0.63416 0.29638 0.11581 0.0
C1633 C 0.63238 0.28438 0.15119 0.0
C1634 C 0.62139 0.2973 0.1043 0.0
C1635 C 0.6132 0.31203 0.10249 0.0
C1636 C 0.6175 0.32596 0.11238 0.0
C1637 C 0.63124 0.32552 0.12267 0.0
C1638 C 0.63969 0.31091 0.12414 0.0
H1639 H 0.62876 0.27686 0.16222 0.0
H1640 H 0.64215 0.2933 0.15524 0.0
H1641 H 0.62194 0.29156 0.14711 0.0
H1642 H 0.61697 0.2863 0.09762 0.0
H1643 H 0.60266 0.31203 0.09447 0.0
H1644 H 0.39815 0.86618 0.93168 0.0
H1645 H 0.42494 0.87263 0.92081 0.0
H1646 H 0.42916 0.82132 0.90628 0.0
H1647 H 0.40232 0.81476 0.91683 0.0
H1648 H 0.45431 0.85964 0.92987 0.0
H1649 H 0.43954 0.84641 0.86335 0.0
H1650 H 0.42431 0.84878 0.87892 0.0
H1651 H 0.43445 0.82952 0.87712 0.0
C1652 C 0.40473 0.85626 0.92612 0.0
C1653 C 0.39801 0.83996 0.92504 0.0
C1654 C 0.42005 0.85998 0.91995 0.0
C1655 C 0.42892 0.84751 0.91254 0.0
C1656 C 0.42237 0.8312 0.91165 0.0
H1657 H 0.52181 0.8438 0.86633 0.0
H1658 H 0.49646 0.83737 0.88031 0.0
C1659 C 0.40704 0.82746 0.91776 0.0
C1660 C 0.44509 0.85154 0.90587 0.0
H1661 H 0.4671 0.85099 0.87025 0.0
C1662 C 0.45711 0.85783 0.91683 0.0
C1663 C 0.44866 0.84919 0.88884 0.0
C1664 C 0.43604 0.84326 0.87632 0.0
C1665 C 0.47275 0.86152 0.91125 0.0
C1666 C 0.47634 0.859 0.89426 0.0
C1667 C 0.4643 0.85279 0.88331 0.0
C1668 C 0.49247 0.86283 0.88743 0.0
C1669 C 0.48538 0.86775 0.9236 0.0
C1670 C 0.4987 0.87927 0.88701 0.0
C1671 C 0.51321 0.88302 0.87901 0.0
C1672 C 0.52165 0.87037 0.87122 0.0
C1673 C 0.5156 0.85384 0.87216 0.0
C1674 C 0.50111 0.85013 0.88013 0.0
H1675 H 0.48173 0.86533 0.93668 0.0
H1676 H 0.49698 0.86182 0.92136 0.0
H1677 H 0.48733 0.88139 0.9221 0.0
H1678 H 0.49207 0.88928 0.89235 0.0
H1679 H 0.51752 0.89588 0.87847 0.0
H1680 H 0.87185 0.17258 0.88893 0.0
H1681 H 0.87675 0.20255 0.88666 0.0
H1682 H 0.82582 0.2094 0.88252 0.0
H1683 H 0.82073 0.17935 0.88508 0.0
H1684 H 0.86884 0.22146 0.86001 0.0
H1685 H 0.83955 0.24466 0.91689 0.0
H1686 H 0.84415 0.22308 0.91406 0.0
H1687 H 0.82668 0.23129 0.9042 0.0
C1688 C 0.86165 0.18044 0.88769 0.0
C1689 C 0.84588 0.17355 0.88717 0.0
C1690 C 0.86449 0.19758 0.88644 0.0
C1691 C 0.85165 0.20822 0.88465 0.0
C1692 C 0.83588 0.20145 0.8843 0.0
H1693 H 0.8409 0.30946 0.85575 0.0
H1694 H 0.83765 0.28095 0.86576 0.0
C1695 C 0.833 0.18426 0.88565 0.0
C1696 C 0.85491 0.22621 0.88187 0.0
H1697 H 0.84695 0.26498 0.8964 0.0
C1698 C 0.86421 0.23098 0.86808 0.0
C1699 C 0.84882 0.23858 0.8924 0.0
C1700 C 0.83937 0.23418 0.90781 0.0
C1701 C 0.86721 0.24778 0.86424 0.0
C1702 C 0.86093 0.26015 0.87462 0.0
C1703 C 0.85179 0.25543 0.88853 0.0
C1704 C 0.86294 0.278 0.87053 0.0
C1705 C 0.87661 0.25217 0.84877 0.0
C1706 C 0.87822 0.28594 0.87041 0.0
C1707 C 0.88017 0.30227 0.86464 0.0
C1708 C 0.86684 0.31091 0.85892 0.0
C1709 C 0.85146 0.30315 0.8599 0.0
C1710 C 0.84954 0.28686 0.86568 0.0
H1711 H 0.87786 0.24125 0.84042 0.0
H1712 H 0.87074 0.26212 0.84164 0.0
H1713 H 0.88882 0.25688 0.85245 0.0
H1714 H 0.88869 0.27933 0.87434 0.0
H1715 H 0.89217 0.30789 0.86416 0.0
H1716 H 0.41801 0.14996 0.62348 0.0
H1717 H 0.44012 0.13231 0.63088 0.0
H1718 H 0.44913 0.12358 0.5788 0.0
H1719 H 0.42683 0.14125 0.57118 0.0
H1720 H 0.45285 0.09436 0.60542 0.0
H1721 H 0.48624 0.15458 0.61689 0.0
H1722 H 0.46662 0.1526 0.62597 0.0
H1723 H 0.46856 0.15282 0.60369 0.0
C1724 C 0.42443 0.14399 0.61357 0.0
C1725 C 0.42085 0.14721 0.59673 0.0
C1726 C 0.43701 0.13387 0.61783 0.0
C1727 C 0.44629 0.12685 0.60537 0.0
C1728 C 0.44203 0.12892 0.58856 0.0
H1729 H 0.54439 0.1047 0.63228 0.0
H1730 H 0.52105 0.11152 0.61532 0.0
C1731 C 0.42931 0.139 0.58425 0.0
C1732 C 0.46162 0.11948 0.61006 0.0
H1733 H 0.49826 0.13032 0.62681 0.0
C1734 C 0.46291 0.10215 0.6099 0.0
C1735 C 0.47473 0.12975 0.61563 0.0
C1736 C 0.47411 0.14849 0.61547 0.0
C1737 C 0.47685 0.09478 0.61592 0.0
C1738 C 0.48961 0.10507 0.62244 0.0
C1739 C 0.48849 0.12242 0.62186 0.0
C1740 C 0.50383 0.09835 0.63094 0.0
C1741 C 0.47776 0.0761 0.61531 0.0
C1742 C 0.50194 0.08841 0.64519 0.0
C1743 C 0.51528 0.08441 0.65487 0.0
C1744 C 0.53071 0.09052 0.65061 0.0
C1745 C 0.53264 0.09991 0.63597 0.0
C1746 C 0.51932 0.10377 0.62622 0.0
H1747 H 0.46996 0.07066 0.60521 0.0
H1748 H 0.49025 0.07227 0.61333 0.0
H1749 H 0.4735 0.07083 0.62731 0.0
H1750 H 0.49009 0.08444 0.64933 0.0
H1751 H 0.51339 0.07719 0.6661 0.0
H1752 H 0.6217 0.83624 0.38427 0.0
H1753 H 0.61654 0.80617 0.38311 0.0
H1754 H 0.66639 0.7984 0.39435 0.0
H1755 H 0.67166 0.82845 0.39585 0.0
H1756 H 0.62964 0.78353 0.36234 0.0
H1757 H 0.64375 0.76847 0.42818 0.0
H1758 H 0.64078 0.78946 0.42122 0.0
H1759 H 0.65969 0.77994 0.41798 0.0
C1760 C 0.63159 0.82817 0.38654 0.0
C1761 C 0.6471 0.83478 0.39022 0.0
C1762 C 0.62859 0.81098 0.38591 0.0
C1763 C 0.64101 0.80007 0.38898 0.0
C1764 C 0.65654 0.8066 0.39239 0.0
H1765 H 0.65542 0.6961 0.37677 0.0
H1766 H 0.65707 0.72566 0.38392 0.0
C1767 C 0.65955 0.8238 0.3931 0.0
C1768 C 0.63786 0.78187 0.38781 0.0
H1769 H 0.6412 0.74549 0.40919 0.0
C1770 C 0.63198 0.77522 0.37264 0.0
C1771 C 0.64093 0.77109 0.40129 0.0
C1772 C 0.64649 0.7776 0.41814 0.0
C1773 C 0.62958 0.75801 0.37039 0.0
C1774 C 0.63296 0.74722 0.38375 0.0
C1775 C 0.63861 0.75385 0.39901 0.0
C1776 C 0.63153 0.72897 0.38168 0.0
C1777 C 0.62397 0.75146 0.35356 0.0
C1778 C 0.61653 0.72097 0.3787 0.0
C1779 C 0.61551 0.70406 0.3746 0.0
C1780 C 0.62951 0.6949 0.37342 0.0
C1781 C 0.64442 0.70279 0.37743 0.0
C1782 C 0.6454 0.71968 0.38155 0.0
H1783 H 0.62477 0.76118 0.34376 0.0
H1784 H 0.63118 0.74081 0.34966 0.0
H1785 H 0.61125 0.74696 0.35439 0.0
H1786 H 0.60567 0.72795 0.37898 0.0
H1787 H 0.60383 0.69837 0.3717 0.0
H1788 H 0.07064 0.85161 0.06922 0.0
H1789 H 0.04817 0.86968 0.07425 0.0
H1790 H 0.05534 0.86447 0.12733 0.0
H1791 H 0.07785 0.84695 0.12247 0.0
H1792 H 0.02155 0.85884 0.08844 0.0
H1793 H 0.04461 0.91225 0.12552 0.0
H1794 H 0.05777 0.89935 0.11379 0.0
H1795 H 0.05188 0.89369 0.13468 0.0
C1796 C 0.06774 0.85476 0.08195 0.0
C1797 C 0.07593 0.84767 0.09545 0.0
C1798 C 0.05488 0.86508 0.0848 0.0
C1799 C 0.05015 0.86859 0.10116 0.0
C1800 C 0.05897 0.86234 0.11459 0.0
H1801 H 0.96446 0.86038 0.15044 0.0
H1802 H 0.98758 0.85851 0.13232 0.0
C1803 C 0.07177 0.8521 0.11178 0.0
C1804 C 0.03462 0.8763 0.1045 0.0
H1805 H 0.01726 0.90172 0.13261 0.0
C1806 C 0.02062 0.86858 0.09773 0.0
C1807 C 0.03328 0.88929 0.11629 0.0
C1808 C 0.04774 0.89921 0.1228 0.0
C1809 C 0.00543 0.87228 0.10374 0.0
C1810 C 0.0043 0.88365 0.11714 0.0
C1811 C 0.01813 0.89266 0.12263 0.0
C1812 C 0.98941 0.88488 0.1269 0.0
C1813 C 0.99082 0.86347 0.09611 0.0
C1814 C 0.98293 0.90038 0.13022 0.0
C1815 C 0.96982 0.90152 0.14084 0.0
C1816 C 0.96301 0.88717 0.14836 0.0
C1817 C 0.96936 0.87165 0.14478 0.0
C1818 C 0.9825 0.87054 0.13427 0.0
H1819 H 0.99274 0.86072 0.0827 0.0
H1820 H 0.98861 0.85141 0.10253 0.0
H1821 H 0.97998 0.87097 0.09728 0.0
H1822 H 0.98817 0.91162 0.1248 0.0
H1823 H 0.96517 0.91367 0.14333 0.0
H1824 H 0.58248 0.86105 0.65596 0.0
H1825 H 0.57181 0.85322 0.68323 0.0
H1826 H 0.61999 0.85114 0.70297 0.0
H1827 H 0.63075 0.85836 0.67564 0.0
H1828 H 0.59699 0.82998 0.72012 0.0
H1829 H 0.57801 0.89522 0.7125 0.0
H1830 H 0.56983 0.88059 0.69742 0.0
H1831 H 0.59105 0.88553 0.6979 0.0
C1832 C 0.5908 0.85819 0.66592 0.0
C1833 C 0.60743 0.86072 0.66382 0.0
C1834 C 0.58469 0.85374 0.68149 0.0
C1835 C 0.59513 0.85216 0.69519 0.0
C1836 C 0.61174 0.85244 0.69256 0.0
H1837 H 0.59094 0.89256 0.79204 0.0
H1838 H 0.59768 0.88221 0.76451 0.0
C1839 C 0.61788 0.85659 0.67691 0.0
C1840 C 0.58912 0.85397 0.71237 0.0
H1841 H 0.57368 0.88282 0.73839 0.0
C1842 C 0.59167 0.84141 0.72412 0.0
C1843 C 0.58249 0.86908 0.71756 0.0
C1844 C 0.58028 0.88345 0.70577 0.0
C1845 C 0.58795 0.8437 0.74103 0.0
C1846 C 0.58152 0.85887 0.74614 0.0
C1847 C 0.57859 0.87119 0.73433 0.0
C1848 C 0.57879 0.86302 0.76381 0.0
C1849 C 0.5915 0.83028 0.75345 0.0
C1850 C 0.56606 0.85545 0.77262 0.0
C1851 C 0.56217 0.86135 0.78846 0.0
C1852 C 0.57092 0.87493 0.79563 0.0
C1853 C 0.58401 0.88204 0.78696 0.0
C1854 C 0.58789 0.87614 0.77121 0.0
H1855 H 0.59817 0.82001 0.74778 0.0
H1856 H 0.59864 0.83561 0.7641 0.0
H1857 H 0.58006 0.82501 0.75849 0.0
H1858 H 0.55875 0.84548 0.76698 0.0
H1859 H 0.55202 0.85561 0.79485 0.0
H1860 H 0.91698 0.83468 0.56711 0.0
H1861 H 0.91379 0.83657 0.53677 0.0
H1862 H 0.86327 0.84432 0.54255 0.0
H1863 H 0.86628 0.84266 0.57275 0.0
H1864 H 0.89382 0.81753 0.51453 0.0
H1865 H 0.87894 0.88407 0.51436 0.0
H1866 H 0.88775 0.87418 0.53225 0.0
H1867 H 0.86653 0.87177 0.52812 0.0
C1868 C 0.90518 0.83679 0.56193 0.0
C1869 C 0.8919 0.83864 0.5724 0.0
C1870 C 0.9034 0.83785 0.5446 0.0
C1871 C 0.88836 0.84085 0.53748 0.0
C1872 C 0.87505 0.84233 0.54784 0.0
H1873 H 0.84612 0.827 0.44083 0.0
H1874 H 0.85799 0.82303 0.46843 0.0
C1875 C 0.8768 0.84132 0.56512 0.0
C1876 C 0.88641 0.84246 0.51921 0.0
H1877 H 0.87269 0.86867 0.48944 0.0
C1878 C 0.8894 0.82876 0.50896 0.0
C1879 C 0.88094 0.85724 0.51198 0.0
C1880 C 0.87851 0.87272 0.52222 0.0
C1881 C 0.88631 0.8292 0.49171 0.0
C1882 C 0.87982 0.84361 0.48466 0.0
C1883 C 0.87754 0.85755 0.49485 0.0
C1884 C 0.8745 0.84442 0.46699 0.0
C1885 C 0.88999 0.81422 0.48124 0.0
C1886 C 0.87985 0.85771 0.45694 0.0
C1887 C 0.87289 0.86017 0.44128 0.0
C1888 C 0.86046 0.84934 0.43532 0.0
C1889 C 0.85573 0.8355 0.445 0.0
C1890 C 0.86259 0.83315 0.46077 0.0
H1891 H 0.89959 0.80693 0.48709 0.0
H1892 H 0.87906 0.80597 0.48014 0.0
H1893 H 0.89379 0.81791 0.4685 0.0
H1894 H 0.889 0.86657 0.4615 0.0
H1895 H 0.8769 0.87089 0.43408 0.0
H1896 H 0.84504 0.15954 0.15782 0.0
H1897 H 0.8474 0.15659 0.18818 0.0
H1898 H 0.87998 0.11675 0.18148 0.0
H1899 H 0.87725 0.11915 0.15141 0.0
H1900 H 0.85931 0.10938 0.2053 0.0
H1901 H 0.88518 0.17335 0.21584 0.0
H1902 H 0.86558 0.17233 0.20632 0.0
H1903 H 0.88239 0.16455 0.19525 0.0
C1904 C 0.85262 0.15009 0.16285 0.0
C1905 C 0.86102 0.13965 0.15217 0.0
C1906 C 0.85405 0.1485 0.18019 0.0
C1907 C 0.86413 0.13667 0.18712 0.0
C1908 C 0.87216 0.126 0.17645 0.0
H1909 H 0.91735 0.13077 0.27753 0.0
H1910 H 0.90569 0.13736 0.2504 0.0
C1911 C 0.87058 0.1274 0.15921 0.0
C1912 C 0.86671 0.13531 0.2054 0.0
H1913 H 0.88242 0.15616 0.23937 0.0
C1914 C 0.86424 0.11965 0.2128 0.0
C1915 C 0.87326 0.1487 0.21512 0.0
C1916 C 0.8769 0.16565 0.20775 0.0
C1917 C 0.86878 0.11676 0.2294 0.0
C1918 C 0.87541 0.13013 0.23912 0.0
C1919 C 0.87727 0.14597 0.23193 0.0
C1920 C 0.88185 0.12757 0.25622 0.0
C1921 C 0.86729 0.0992 0.23598 0.0
C1922 C 0.87224 0.12035 0.26873 0.0
C1923 C 0.87898 0.11625 0.28414 0.0
C1924 C 0.89535 0.11972 0.28749 0.0
C1925 C 0.9047 0.12791 0.27533 0.0
C1926 C 0.89804 0.13171 0.25982 0.0
H1927 H 0.8659 0.08989 0.22574 0.0
H1928 H 0.87797 0.09616 0.2436 0.0
H1929 H 0.85652 0.09793 0.24394 0.0
H1930 H 0.85961 0.11753 0.26644 0.0
H1931 H 0.87139 0.11017 0.29329 0.0
H1932 H 0.63993 0.17609 0.93543 0.0
H1933 H 0.62871 0.18194 0.96286 0.0
H1934 H 0.61986 0.12936 0.97067 0.0
H1935 H 0.63032 0.12347 0.94322 0.0
H1936 H 0.59683 0.14696 0.98468 0.0
H1937 H 0.6571 0.17399 0.00259 0.0
H1938 H 0.6469 0.1845 0.98613 0.0
H1939 H 0.65343 0.16368 0.98287 0.0
C1940 C 0.63528 0.16581 0.94285 0.0
C1941 C 0.63635 0.14929 0.93725 0.0
C1942 C 0.62896 0.16917 0.95857 0.0
C1943 C 0.6239 0.15605 0.96901 0.0
C1944 C 0.62379 0.13969 0.96289 0.0
H1945 H 0.63634 0.13608 0.07014 0.0
H1946 H 0.63618 0.14047 0.04013 0.0
C1947 C 0.62987 0.13634 0.94716 0.0
C1948 C 0.62034 0.15883 0.98688 0.0
H1949 H 0.63852 0.16992 0.02382 0.0
C1950 C 0.60583 0.15221 0.99325 0.0
C1951 C 0.63218 0.1656 0.99804 0.0
C1952 C 0.64833 0.17224 0.99215 0.0
C1953 C 0.6032 0.15129 0.01051 0.0
C1954 C 0.61528 0.15754 0.02163 0.0
C1955 C 0.62933 0.16511 0.01523 0.0
C1956 C 0.6146 0.15461 0.03985 0.0
C1957 C 0.58801 0.14268 0.01669 0.0
C1958 C 0.60242 0.161 0.04969 0.0
C1959 C 0.60237 0.15831 0.06694 0.0
C1960 C 0.61465 0.14944 0.07462 0.0
C1961 C 0.62676 0.14305 0.06467 0.0
C1962 C 0.6267 0.14557 0.04749 0.0
H1963 H 0.58139 0.13579 0.00656 0.0
H1964 H 0.59074 0.13381 0.02682 0.0
H1965 H 0.58 0.1521 0.0218 0.0
H1966 H 0.59313 0.16826 0.04409 0.0
H1967 H 0.59293 0.1635 0.07428 0.0
H1968 H 0.62932 0.11334 0.85518 0.0
H1969 H 0.61628 0.11236 0.82785 0.0
H1970 H 0.62495 0.16527 0.8225 0.0
H1971 H 0.63845 0.16636 0.84975 0.0
H1972 H 0.59072 0.12771 0.81337 0.0
H1973 H 0.64806 0.14644 0.78255 0.0
H1974 H 0.64714 0.14079 0.80427 0.0
H1975 H 0.641 0.16093 0.79765 0.0
C1976 C 0.62833 0.12484 0.84833 0.0
C1977 C 0.6352 0.13989 0.85457 0.0
C1978 C 0.62082 0.12425 0.8327 0.0
C1979 C 0.61996 0.13868 0.82301 0.0
C1980 C 0.62584 0.15393 0.82963 0.0
H1981 H 0.56962 0.12998 0.72574 0.0
H1982 H 0.57756 0.14041 0.75351 0.0
C1983 C 0.63347 0.15452 0.84525 0.0
C1984 C 0.61387 0.13735 0.80562 0.0
H1985 H 0.62584 0.14025 0.76511 0.0
C1986 C 0.5983 0.13063 0.80278 0.0
C1987 C 0.6239 0.14102 0.79188 0.0
C1988 C 0.641 0.14757 0.79415 0.0
C1989 C 0.59264 0.12696 0.78658 0.0
C1990 C 0.60275 0.13045 0.77286 0.0
C1991 C 0.61811 0.1377 0.77567 0.0
C1992 C 0.59829 0.12513 0.75567 0.0
C1993 C 0.57624 0.11859 0.78436 0.0
C1994 C 0.60762 0.11355 0.74748 0.0
C1995 C 0.60324 0.10772 0.7316 0.0
C1996 C 0.58942 0.11337 0.7236 0.0
C1997 C 0.58029 0.12531 0.73164 0.0
C1998 C 0.58474 0.13121 0.74753 0.0
H1999 H 0.5714 0.11372 0.79631 0.0
H2000 H 0.56779 0.12774 0.7794 0.0
H2001 H 0.57663 0.10813 0.77531 0.0
H2002 H 0.61814 0.10871 0.75354 0.0
H2003 H 0.61051 0.09849 0.7258 0.0
H2004 H 0.61095 0.8875 0.43819 0.0
H2005 H 0.60181 0.88206 0.46666 0.0
H2006 H 0.65084 0.87742 0.48306 0.0
H2007 H 0.66013 0.88273 0.45479 0.0
H2008 H 0.6282 0.8508 0.49332 0.0
H2009 H 0.60799 0.91467 0.50707 0.0
H2010 H 0.60061 0.90468 0.48823 0.0
H2011 H 0.62151 0.91056 0.49024 0.0
C2012 C 0.61981 0.88548 0.44788 0.0
C2013 C 0.63629 0.8856 0.4442 0.0
C2014 C 0.61455 0.88234 0.46411 0.0
C2015 C 0.62568 0.87935 0.47688 0.0
C2016 C 0.64209 0.87963 0.4733 0.0
H2017 H 0.64151 0.86773 0.57889 0.0
H2018 H 0.64004 0.86363 0.54883 0.0
C2019 C 0.64736 0.88276 0.45715 0.0
C2020 C 0.62045 0.87603 0.4941 0.0
H2021 H 0.6071 0.8954 0.52885 0.0
C2022 C 0.62336 0.86044 0.50108 0.0
C2023 C 0.61401 0.88861 0.50405 0.0
C2024 C 0.61089 0.90563 0.49714 0.0
C2025 C 0.62057 0.8573 0.51801 0.0
C2026 C 0.61505 0.87021 0.52821 0.0
C2027 C 0.61132 0.8855 0.52099 0.0
C2028 C 0.61486 0.86904 0.54662 0.0
C2029 C 0.62384 0.84031 0.52485 0.0
C2030 C 0.60112 0.87313 0.55545 0.0
C2031 C 0.60197 0.87571 0.57267 0.0
C2032 C 0.61662 0.87431 0.58133 0.0
C2033 C 0.63004 0.86892 0.57263 0.0
C2034 C 0.62919 0.86644 0.55541 0.0
H2035 H 0.62212 0.83056 0.51507 0.0
H2036 H 0.63651 0.84013 0.52921 0.0
H2037 H 0.61593 0.83712 0.53552 0.0
H2038 H 0.58995 0.87522 0.54888 0.0
H2039 H 0.59137 0.87971 0.579 0.0
H2040 H 0.87413 0.87802 0.35396 0.0
H2041 H 0.88708 0.87683 0.32698 0.0
H2042 H 0.86931 0.82615 0.32026 0.0
H2043 H 0.85585 0.82733 0.34722 0.0
H2044 H 0.90917 0.85714 0.31213 0.0
H2045 H 0.84933 0.84993 0.28083 0.0
H2046 H 0.8515 0.85487 0.30271 0.0
H2047 H 0.8543 0.83402 0.29548 0.0
C2048 C 0.87311 0.8665 0.34691 0.0
C2049 C 0.86367 0.85287 0.35265 0.0
C2050 C 0.88059 0.86584 0.33147 0.0
C2051 C 0.87886 0.85153 0.32146 0.0
C2052 C 0.87048 0.83745 0.32765 0.0
H2053 H 0.92761 0.86093 0.22431 0.0
H2054 H 0.91861 0.84812 0.25045 0.0
C2055 C 0.86288 0.83812 0.34311 0.0
C2056 C 0.88476 0.85217 0.30411 0.0
H2057 H 0.87161 0.85436 0.26373 0.0
C2058 C 0.90105 0.85625 0.30148 0.0
C2059 C 0.87404 0.85112 0.29029 0.0
C2060 C 0.85629 0.84737 0.29237 0.0
C2061 C 0.90678 0.86017 0.28552 0.0
C2062 C 0.89596 0.85963 0.2718 0.0
C2063 C 0.87985 0.85469 0.27429 0.0
C2064 C 0.9006 0.86617 0.25522 0.0
C2065 C 0.92413 0.86588 0.28368 0.0
C2066 C 0.89302 0.88015 0.24893 0.0
C2067 C 0.89799 0.88737 0.23397 0.0
C2068 C 0.91067 0.88076 0.22501 0.0
C2069 C 0.91788 0.86639 0.23101 0.0
C2070 C 0.91282 0.8591 0.24597 0.0
H2071 H 0.93007 0.86849 0.29593 0.0
H2072 H 0.93075 0.85602 0.27733 0.0
H2073 H 0.92511 0.8773 0.27596 0.0
H2074 H 0.88355 0.88579 0.25586 0.0
H2075 H 0.89221 0.89843 0.22972 0.0
H2076 H 0.82537 0.12114 0.94692 0.0
H2077 H 0.83054 0.12733 0.97637 0.0
H2078 H 0.88145 0.12529 0.96825 0.0
H2079 H 0.87648 0.11926 0.93868 0.0
H2080 H 0.84734 0.11051 0.0017 0.0
H2081 H 0.8754 0.17247 0.98738 0.0
H2082 H 0.86378 0.16037 0.97221 0.0
H2083 H 0.88421 0.15543 0.97672 0.0
C2084 C 0.83769 0.12182 0.95139 0.0
C2085 C 0.85053 0.1199 0.94037 0.0
C2086 C 0.84059 0.12536 0.96823 0.0
C2087 C 0.85637 0.12711 0.97435 0.0
C2088 C 0.86919 0.12432 0.96364 0.0
H2089 H 0.89515 0.1308 0.07296 0.0
H2090 H 0.88566 0.12395 0.0449 0.0
C2091 C 0.86632 0.12076 0.94677 0.0
C2092 C 0.85941 0.13241 0.99181 0.0
H2093 H 0.87747 0.16329 0.01547 0.0
C2094 C 0.85385 0.12208 0.00474 0.0
C2095 C 0.86757 0.14771 0.99569 0.0
C2096 C 0.87297 0.15974 0.98229 0.0
C2097 C 0.85683 0.12634 0.0215 0.0
C2098 C 0.86573 0.14121 0.02534 0.0
C2099 C 0.87074 0.15185 0.01244 0.0
C2100 C 0.87091 0.14537 0.04257 0.0
C2101 C 0.85049 0.1149 0.03499 0.0
C2102 C 0.8661 0.15999 0.05038 0.0
C2103 C 0.8715 0.164 0.06655 0.0
C2104 C 0.88179 0.15341 0.07512 0.0
C2105 C 0.8869 0.13903 0.06695 0.0
C2106 C 0.88145 0.13503 0.05091 0.0
H2107 H 0.84032 0.10676 0.03037 0.0
H2108 H 0.8602 0.1068 0.03922 0.0
H2109 H 0.84645 0.12209 0.04593 0.0
H2110 H 0.85814 0.16825 0.04398 0.0
H2111 H 0.86761 0.17533 0.07231 0.0
H2112 H 0.7906 0.60922 0.87692 0.0
H2113 H 0.76572 0.6236 0.88145 0.0
H2114 H 0.74661 0.60435 0.83476 0.0
H2115 H 0.77158 0.59003 0.82997 0.0
H2116 H 0.73861 0.63909 0.8431 0.0
H2117 H 0.72576 0.59309 0.89318 0.0
H2118 H 0.74488 0.60402 0.89518 0.0
H2119 H 0.74103 0.59024 0.87777 0.0
C2120 C 0.78122 0.60823 0.86747 0.0
C2121 C 0.78296 0.59825 0.85321 0.0
C2122 C 0.76704 0.61648 0.87007 0.0
C2123 C 0.7543 0.61481 0.85855 0.0
C2124 C 0.75633 0.60574 0.8438 0.0
H2125 H 0.65816 0.62636 0.89377 0.0
H2126 H 0.68022 0.6173 0.87659 0.0
C2127 C 0.77058 0.59753 0.84113 0.0
C2128 C 0.73839 0.621 0.86283 0.0
H2129 H 0.70858 0.6157 0.89123 0.0
C2130 C 0.73193 0.63395 0.85353 0.0
C2131 C 0.72962 0.61401 0.87624 0.0
C2132 C 0.73557 0.59947 0.8861 0.0
C2133 C 0.71706 0.64049 0.85771 0.0
C2134 C 0.70865 0.63397 0.87161 0.0
C2135 C 0.715 0.62072 0.88056 0.0
C2136 C 0.69358 0.64089 0.87781 0.0
C2137 C 0.71049 0.65419 0.84718 0.0
C2138 C 0.69334 0.65744 0.88346 0.0
C2139 C 0.68056 0.66274 0.89307 0.0
C2140 C 0.66806 0.65143 0.89744 0.0
C2141 C 0.66772 0.63529 0.89067 0.0
C2142 C 0.68031 0.63011 0.88085 0.0
H2143 H 0.71548 0.65406 0.83438 0.0
H2144 H 0.69719 0.65312 0.84629 0.0
H2145 H 0.71392 0.66639 0.85296 0.0
H2146 H 0.70356 0.6659 0.88157 0.0
H2147 H 0.68117 0.67521 0.89825 0.0
H2148 H 0.27269 0.87841 0.14304 0.0
H2149 H 0.24606 0.86647 0.13616 0.0
H2150 H 0.25262 0.87981 0.08458 0.0
H2151 H 0.27938 0.89174 0.09129 0.0
H2152 H 0.22067 0.88469 0.12139 0.0
H2153 H 0.23691 0.83019 0.08295 0.0
H2154 H 0.25106 0.84083 0.0969 0.0
H2155 H 0.246 0.84997 0.07724 0.0
C2156 C 0.26857 0.87867 0.13019 0.0
C2157 C 0.27815 0.88605 0.11771 0.0
C2158 C 0.25334 0.87186 0.1263 0.0
C2159 C 0.24745 0.87218 0.10986 0.0
C2160 C 0.25706 0.87925 0.0973 0.0
H2161 H 0.15482 0.83584 0.0693 0.0
H2162 H 0.18165 0.849 0.07236 0.0
C2163 C 0.27231 0.88611 0.10118 0.0
C2164 C 0.23093 0.86583 0.10614 0.0
H2165 H 0.20931 0.83505 0.08564 0.0
C2166 C 0.21816 0.87386 0.11355 0.0
C2167 C 0.22776 0.8518 0.09578 0.0
C2168 C 0.24112 0.84257 0.08782 0.0
C2169 C 0.20223 0.86813 0.111 0.0
C2170 C 0.19907 0.85381 0.10104 0.0
C2171 C 0.21181 0.84602 0.09329 0.0
C2172 C 0.18268 0.84627 0.09918 0.0
C2173 C 0.18894 0.87753 0.11892 0.0
C2174 C 0.17448 0.84026 0.11323 0.0
C2175 C 0.15917 0.83278 0.11155 0.0
C2176 C 0.1518 0.83102 0.09574 0.0
C2177 C 0.1601 0.83702 0.08165 0.0
C2178 C 0.17544 0.84452 0.08337 0.0
H2179 H 0.19283 0.89059 0.12186 0.0
H2180 H 0.17818 0.87762 0.11064 0.0
H2181 H 0.18546 0.87138 0.13077 0.0
H2182 H 0.18001 0.84117 0.1255 0.0
H2183 H 0.1532 0.82822 0.12267 0.0
H2184 H 0.81164 0.5195 0.8959 0.0
H2185 H 0.81622 0.49054 0.90335 0.0
H2186 H 0.86444 0.4956 0.88469 0.0
H2187 H 0.85993 0.52434 0.877 0.0
H2188 H 0.82484 0.46915 0.87562 0.0
H2189 H 0.86843 0.46683 0.92821 0.0
H2190 H 0.85557 0.48417 0.92488 0.0
H2191 H 0.87324 0.48211 0.91253 0.0
C2192 C 0.82338 0.5146 0.89383 0.0
C2193 C 0.83538 0.52417 0.88569 0.0
C2194 C 0.82597 0.49807 0.89814 0.0
C2195 C 0.84071 0.49102 0.89472 0.0
C2196 C 0.85308 0.50091 0.88771 0.0
H2197 H 0.88691 0.40429 0.87068 0.0
H2198 H 0.87882 0.43019 0.88345 0.0
C2199 C 0.85042 0.51733 0.88319 0.0
C2200 C 0.84229 0.47279 0.89534 0.0
H2201 H 0.86586 0.44256 0.91075 0.0
C2202 C 0.83351 0.46318 0.88356 0.0
C2203 C 0.85375 0.46523 0.90559 0.0
C2204 C 0.86323 0.47506 0.91863 0.0
C2205 C 0.8367 0.44641 0.88086 0.0
C2206 C 0.84857 0.43885 0.89077 0.0
C2207 C 0.85671 0.44829 0.90323 0.0
C2208 C 0.85404 0.42193 0.88683 0.0
C2209 C 0.82818 0.43745 0.8665 0.0
C2210 C 0.84308 0.40828 0.88545 0.0
C2211 C 0.84758 0.3936 0.8777 0.0
C2212 C 0.86328 0.39215 0.87181 0.0
C2213 C 0.87471 0.40507 0.87505 0.0
C2214 C 0.87009 0.4199 0.88237 0.0
H2215 H 0.82232 0.4462 0.85788 0.0
H2216 H 0.83668 0.43011 0.85918 0.0
H2217 H 0.8187 0.42883 0.87144 0.0
H2218 H 0.83077 0.40935 0.88938 0.0
H2219 H 0.83859 0.38371 0.87558 0.0
H2220 H 0.21787 0.11802 0.61824 0.0
H2221 H 0.24371 0.12951 0.60867 0.0
H2222 H 0.2605 0.13369 0.65964 0.0
H2223 H 0.23481 0.12188 0.66932 0.0
H2224 H 0.2603 0.15916 0.615 0.0
H2225 H 0.29458 0.10601 0.63821 0.0
H2226 H 0.27295 0.10539 0.63697 0.0
H2227 H 0.28322 0.11587 0.65408 0.0
C2228 C 0.22702 0.12146 0.62744 0.0
C2229 C 0.22435 0.11886 0.64455 0.0
C2230 C 0.24178 0.12803 0.62194 0.0
C2231 C 0.25413 0.1321 0.63342 0.0
C2232 C 0.25126 0.13022 0.65054 0.0
H2233 H 0.35072 0.17322 0.62768 0.0
H2234 H 0.32417 0.16261 0.6359 0.0
C2235 C 0.23653 0.12358 0.65606 0.0
C2236 C 0.27008 0.13808 0.62745 0.0
H2237 H 0.30987 0.12944 0.62837 0.0
C2238 C 0.27113 0.15262 0.61783 0.0
C2239 C 0.28418 0.12944 0.63107 0.0
C2240 C 0.28371 0.11322 0.6405 0.0
C2241 C 0.28597 0.159 0.61209 0.0
C2242 C 0.30005 0.15052 0.61599 0.0
C2243 C 0.29901 0.13591 0.62546 0.0
C2244 C 0.31609 0.15686 0.61076 0.0
C2245 C 0.28657 0.17495 0.60225 0.0
C2246 C 0.32037 0.15691 0.59388 0.0
C2247 C 0.3356 0.1629 0.5891 0.0
C2248 C 0.34678 0.16897 0.60114 0.0
C2249 C 0.34242 0.16872 0.61806 0.0
C2250 C 0.32726 0.16265 0.62281 0.0
H2251 H 0.27508 0.18146 0.60277 0.0
H2252 H 0.29639 0.18348 0.60699 0.0
H2253 H 0.28908 0.1721 0.58899 0.0
H2254 H 0.31194 0.15227 0.58443 0.0
H2255 H 0.33856 0.16289 0.57598 0.0
H2256 H 0.13525 0.97417 0.87117 0.0
H2257 H 0.12979 0.00129 0.88304 0.0
H2258 H 0.17529 0.00213 0.9091 0.0
H2259 H 0.18088 0.9748 0.89736 0.0
H2260 H 0.13167 0.01638 0.91874 0.0
H2261 H 0.17633 0.04057 0.87256 0.0
H2262 H 0.16709 0.02 0.87056 0.0
H2263 H 0.18193 0.02426 0.88652 0.0
C2264 C 0.14395 0.97986 0.87975 0.0
C2265 C 0.15858 0.97239 0.88317 0.0
C2266 C 0.14075 0.99535 0.88659 0.0
C2267 C 0.15216 0.00367 0.89687 0.0
C2268 C 0.16634 0.99583 0.90119 0.0
H2269 H 0.15034 0.1107 0.89184 0.0
H2270 H 0.15868 0.0847 0.90435 0.0
C2271 C 0.16952 0.98026 0.89442 0.0
C2272 C 0.15016 0.02143 0.90072 0.0
H2273 H 0.16036 0.05974 0.88544 0.0
C2274 C 0.13814 0.02597 0.91177 0.0
C2275 C 0.15875 0.03385 0.89172 0.0
C2276 C 0.17173 0.02956 0.8796 0.0
C2277 C 0.13398 0.04267 0.91347 0.0
C2278 C 0.14169 0.05495 0.90343 0.0
C2279 C 0.15442 0.05043 0.8932 0.0
C2280 C 0.1355 0.0719 0.90124 0.0
C2281 C 0.12118 0.04686 0.92577 0.0
C2282 C 0.11945 0.07377 0.89628 0.0
C2283 C 0.11458 0.08877 0.88953 0.0
C2284 C 0.1258 0.10199 0.88715 0.0
C2285 C 0.14148 0.10064 0.89342 0.0
C2286 C 0.14625 0.08578 0.90057 0.0
H2287 H 0.12175 0.03869 0.93689 0.0
H2288 H 0.12234 0.06003 0.92994 0.0
H2289 H 0.10919 0.04462 0.91986 0.0
H2290 H 0.11098 0.06323 0.8962 0.0
H2291 H 0.10244 0.0894 0.88468 0.0
H2292 H 0.82027 0.33134 0.38161 0.0
H2293 H 0.79884 0.34775 0.36969 0.0
H2294 H 0.79492 0.37405 0.41636 0.0
H2295 H 0.81602 0.35763 0.42845 0.0
H2296 H 0.76591 0.36183 0.40415 0.0
H2297 H 0.79976 0.39661 0.35521 0.0
H2298 H 0.80122 0.37438 0.35447 0.0
H2299 H 0.80958 0.38586 0.37196 0.0
C2300 C 0.81493 0.34071 0.3893 0.0
C2301 C 0.81983 0.34312 0.40601 0.0
C2302 C 0.80276 0.35013 0.38242 0.0
C2303 C 0.79543 0.36222 0.3921 0.0
C2304 C 0.80045 0.36479 0.40868 0.0
H2305 H 0.73296 0.44162 0.36909 0.0
H2306 H 0.75567 0.42406 0.37488 0.0
C2307 C 0.81252 0.35536 0.41557 0.0
C2308 C 0.78191 0.37165 0.3854 0.0
H2309 H 0.77172 0.4002 0.3561 0.0
C2310 C 0.76715 0.37017 0.3936 0.0
C2311 C 0.78365 0.38261 0.37173 0.0
C2312 C 0.79943 0.38512 0.36288 0.0
C2313 C 0.7541 0.37951 0.38865 0.0
C2314 C 0.75576 0.39033 0.37486 0.0
C2315 C 0.77048 0.39175 0.36656 0.0
C2316 C 0.74253 0.40091 0.36953 0.0
C2317 C 0.73882 0.3781 0.39858 0.0
C2318 C 0.72779 0.3937 0.36412 0.0
C2319 C 0.71476 0.40367 0.36094 0.0
C2320 C 0.71632 0.42104 0.36296 0.0
C2321 C 0.73135 0.42828 0.36751 0.0
C2322 C 0.74435 0.41828 0.37078 0.0
H2323 H 0.7408 0.37232 0.41097 0.0
H2324 H 0.73374 0.39051 0.40051 0.0
H2325 H 0.72981 0.37018 0.39164 0.0
H2326 H 0.72625 0.38033 0.36277 0.0
H2327 H 0.70339 0.39772 0.35726 0.0
H2328 H 0.83708 0.43389 0.5765 0.0
H2329 H 0.84484 0.46311 0.5717 0.0
H2330 H 0.88278 0.45995 0.60841 0.0
H2331 H 0.87522 0.43078 0.61318 0.0
H2332 H 0.84353 0.48693 0.59635 0.0
H2333 H 0.90492 0.48569 0.57092 0.0
H2334 H 0.89145 0.46756 0.571 0.0
H2335 H 0.90269 0.4735 0.58951 0.0
C2336 C 0.84733 0.4393 0.58325 0.0
C2337 C 0.85552 0.43003 0.59526 0.0
C2338 C 0.85172 0.456 0.58051 0.0
C2339 C 0.86444 0.46365 0.58961 0.0
C2340 C 0.87312 0.45421 0.60101 0.0
H2341 H 0.8824 0.56133 0.62719 0.0
H2342 H 0.87229 0.53309 0.62098 0.0
C2343 C 0.86874 0.43752 0.60377 0.0
C2344 C 0.86755 0.48186 0.58865 0.0
H2345 H 0.89741 0.51148 0.58342 0.0
C2346 C 0.85523 0.49234 0.59325 0.0
C2347 C 0.88276 0.48889 0.58444 0.0
C2348 C 0.89616 0.47833 0.57852 0.0
C2349 C 0.85796 0.50961 0.59456 0.0
C2350 C 0.87347 0.51651 0.59143 0.0
C2351 C 0.88555 0.50613 0.58599 0.0
C2352 C 0.87775 0.53426 0.59466 0.0
C2353 C 0.84429 0.52028 0.59951 0.0
C2354 C 0.88409 0.54432 0.58191 0.0
C2355 C 0.88996 0.56046 0.58542 0.0
C2356 C 0.88972 0.5668 0.60181 0.0
C2357 C 0.88274 0.5569 0.61443 0.0
C2358 C 0.87688 0.54076 0.61089 0.0
H2359 H 0.83248 0.5141 0.59646 0.0
H2360 H 0.84482 0.52245 0.61319 0.0
H2361 H 0.84507 0.53255 0.5932 0.0
H2362 H 0.88491 0.5395 0.56932 0.0
H2363 H 0.89521 0.56773 0.57538 0.0
H2364 H 0.68415 0.52783 0.1184 0.0
H2365 H 0.67162 0.50068 0.11158 0.0
H2366 H 0.62602 0.51761 0.12848 0.0
H2367 H 0.63868 0.54447 0.13599 0.0
H2368 H 0.6316 0.48942 0.14186 0.0
H2369 H 0.64362 0.48335 0.07453 0.0
H2370 H 0.66186 0.48737 0.08613 0.0
H2371 H 0.64674 0.50279 0.08562 0.0
C2372 C 0.6714 0.52582 0.12043 0.0
C2373 C 0.66241 0.53822 0.12786 0.0
C2374 C 0.66421 0.51033 0.11639 0.0
C2375 C 0.6478 0.50715 0.11926 0.0
C2376 C 0.63871 0.51977 0.12613 0.0
H2377 H 0.59519 0.41522 0.09066 0.0
H2378 H 0.607 0.44359 0.09111 0.0
C2379 C 0.64596 0.53512 0.13049 0.0
C2380 C 0.64048 0.49022 0.11671 0.0
H2381 H 0.63661 0.45792 0.08899 0.0
C2382 C 0.63255 0.48264 0.13021 0.0
C2383 C 0.64151 0.4814 0.10146 0.0
C2384 C 0.64874 0.48923 0.08607 0.0
C2385 C 0.62595 0.46641 0.12905 0.0
C2386 C 0.62792 0.4572 0.11419 0.0
C2387 C 0.63542 0.46489 0.10049 0.0
C2388 C 0.62214 0.43961 0.11272 0.0
C2389 C 0.61674 0.45943 0.14373 0.0
C2390 C 0.62724 0.42781 0.12428 0.0
C2391 C 0.62033 0.41174 0.12423 0.0
C2392 C 0.60851 0.40706 0.11233 0.0
C2393 C 0.60427 0.41851 0.09999 0.0
C2394 C 0.61098 0.43471 0.10024 0.0
H2395 H 0.61206 0.4695 0.15164 0.0
H2396 H 0.60648 0.45118 0.13959 0.0
H2397 H 0.62487 0.45209 0.15162 0.0
H2398 H 0.63622 0.43117 0.13367 0.0
H2399 H 0.62402 0.40308 0.13372 0.0
H2400 H 0.629 0.74787 0.94403 0.0
H2401 H 0.62165 0.77395 0.93108 0.0
H2402 H 0.62129 0.75038 0.88266 0.0
H2403 H 0.62831 0.72405 0.89556 0.0
H2404 H 0.63741 0.79292 0.90807 0.0
H2405 H 0.57776 0.77135 0.88335 0.0
H2406 H 0.58892 0.7595 0.89827 0.0
H2407 H 0.59392 0.75896 0.87651 0.0
C2408 C 0.62732 0.74818 0.93062 0.0
C2409 C 0.62915 0.73385 0.92083 0.0
C2410 C 0.62313 0.76312 0.92325 0.0
C2411 C 0.62068 0.76405 0.90595 0.0
C2412 C 0.62276 0.74984 0.89608 0.0
H2413 H 0.61862 0.85434 0.84741 0.0
H2414 H 0.62609 0.82894 0.86158 0.0
C2415 C 0.62687 0.73484 0.90346 0.0
C2416 C 0.61623 0.77999 0.8983 0.0
H2417 H 0.58749 0.79802 0.8746 0.0
C2418 C 0.62647 0.79406 0.90079 0.0
C2419 C 0.60183 0.7815 0.88903 0.0
C2420 C 0.58988 0.76707 0.88674 0.0
C2421 C 0.62283 0.80956 0.89406 0.0
C2422 C 0.60872 0.81093 0.88428 0.0
C2423 C 0.59836 0.79691 0.88199 0.0
C2424 C 0.60447 0.82674 0.87623 0.0
C2425 C 0.63397 0.82438 0.89774 0.0
C2426 C 0.5897 0.83381 0.87955 0.0
C2427 C 0.58529 0.84826 0.87134 0.0
C2428 C 0.59558 0.85591 0.85961 0.0
C2429 C 0.61046 0.84888 0.85647 0.0
C2430 C 0.6148 0.83439 0.86462 0.0
H2431 H 0.64138 0.82241 0.90912 0.0
H2432 H 0.64224 0.82633 0.88712 0.0
H2433 H 0.62718 0.83586 0.89946 0.0
H2434 H 0.58153 0.82806 0.88843 0.0
H2435 H 0.57374 0.85329 0.87405 0.0
H2436 H 0.54706 0.3689 0.09768 0.0
H2437 H 0.51998 0.37562 0.08848 0.0
H2438 H 0.5102 0.39424 0.13778 0.0
H2439 H 0.53726 0.38848 0.14663 0.0
H2440 H 0.495 0.36103 0.09849 0.0
H2441 H 0.4857 0.4265 0.11271 0.0
H2442 H 0.5056 0.41844 0.11207 0.0
H2443 H 0.49417 0.41774 0.13111 0.0
C2444 C 0.53927 0.3749 0.10637 0.0
C2445 C 0.54428 0.37806 0.1229 0.0
C2446 C 0.52379 0.37878 0.1011 0.0
C2447 C 0.513 0.3857 0.11233 0.0
C2448 C 0.51833 0.3895 0.12862 0.0
H2449 H 0.42513 0.34969 0.13876 0.0
H2450 H 0.4524 0.35956 0.13262 0.0
C2451 C 0.53383 0.38594 0.13378 0.0
C2452 C 0.49557 0.3861 0.1083 0.0
H2453 H 0.46213 0.40707 0.11847 0.0
C2454 C 0.4879 0.37137 0.10231 0.0
C2455 C 0.48608 0.39964 0.11282 0.0
C2456 C 0.49341 0.4165 0.11733 0.0
C2457 C 0.47118 0.36917 0.1026 0.0
C2458 C 0.46192 0.38179 0.10952 0.0
C2459 C 0.46932 0.39721 0.11367 0.0
C2460 C 0.44523 0.37804 0.11476 0.0
C2461 C 0.46364 0.35289 0.09644 0.0
C2462 C 0.43214 0.38595 0.10754 0.0
C2463 C 0.41641 0.38048 0.1113 0.0
C2464 C 0.41375 0.36705 0.12223 0.0
C2465 C 0.42688 0.36 0.13022 0.0
C2466 C 0.44245 0.36555 0.12664 0.0
H2467 H 0.47104 0.34729 0.08661 0.0
H2468 H 0.46283 0.34399 0.10697 0.0
H2469 H 0.45136 0.35456 0.09137 0.0
H2470 H 0.4341 0.39572 0.09845 0.0
H2471 H 0.40643 0.38601 0.1049 0.0
H2472 H 0.90462 0.14173 0.37198 0.0
H2473 H 0.90138 0.16875 0.38547 0.0
H2474 H 0.8612 0.17772 0.35272 0.0
H2475 H 0.86377 0.15044 0.34007 0.0
H2476 H 0.90602 0.19681 0.37319 0.0
H2477 H 0.84339 0.19616 0.39343 0.0
H2478 H 0.85278 0.17734 0.3871 0.0
H2479 H 0.84332 0.19038 0.37187 0.0
C2480 C 0.89485 0.14934 0.368 0.0
C2481 C 0.88441 0.14398 0.35503 0.0
C2482 C 0.893 0.16477 0.3757 0.0
C2483 C 0.88085 0.17526 0.37037 0.0
C2484 C 0.87027 0.16971 0.35759 0.0
H2485 H 0.88881 0.27704 0.35264 0.0
H2486 H 0.8909 0.24723 0.35573 0.0
C2487 C 0.87185 0.15413 0.3502 0.0
C2488 C 0.8805 0.19275 0.37645 0.0
H2489 H 0.85472 0.22359 0.38487 0.0
C2490 C 0.89482 0.20253 0.37617 0.0
C2491 C 0.86607 0.20033 0.38089 0.0
C2492 C 0.8506 0.19039 0.38353 0.0
C2493 C 0.89487 0.21976 0.37876 0.0
C2494 C 0.88011 0.22759 0.38092 0.0
C2495 C 0.866 0.2177 0.38271 0.0
C2496 C 0.8789 0.24591 0.37955 0.0
C2497 C 0.91076 0.22941 0.37879 0.0
C2498 C 0.87071 0.2551 0.39147 0.0
C2499 C 0.86907 0.27226 0.38947 0.0
C2500 C 0.87574 0.28052 0.37561 0.0
C2501 C 0.88372 0.27119 0.36362 0.0
C2502 C 0.88512 0.2541 0.36548 0.0
H2503 H 0.92046 0.22176 0.38393 0.0
H2504 H 0.914 0.23264 0.36578 0.0
H2505 H 0.91032 0.24104 0.38625 0.0
H2506 H 0.8655 0.24899 0.40227 0.0
H2507 H 0.86235 0.2789 0.3986 0.0
H2508 H 0.95216 0.60367 0.59605 0.0
H2509 H 0.98016 0.59912 0.58915 0.0
H2510 H 0.98746 0.57763 0.63779 0.0
H2511 H 0.95952 0.58122 0.64426 0.0
H2512 H 0.00273 0.61502 0.60303 0.0
H2513 H 0.01692 0.55001 0.61339 0.0
H2514 H 0.99641 0.55619 0.61115 0.0
H2515 H 0.00624 0.55645 0.63137 0.0
C2516 C 0.95962 0.59744 0.60501 0.0
C2517 C 0.95368 0.59297 0.62077 0.0
C2518 C 0.97563 0.59481 0.60105 0.0
C2519 C 0.98601 0.58789 0.61286 0.0
C2520 C 0.97973 0.58249 0.62818 0.0
H2521 H 0.06888 0.62963 0.65097 0.0
H2522 H 0.04283 0.61826 0.64149 0.0
C2523 C 0.9637 0.58479 0.632 0.0
C2524 C 0.00371 0.58939 0.61084 0.0
H2525 H 0.03808 0.57097 0.62325 0.0
C2526 C 0.01044 0.60515 0.60689 0.0
C2527 C 0.01403 0.57654 0.61546 0.0
C2528 C 0.00795 0.55883 0.61786 0.0
C2529 C 0.02682 0.60887 0.60927 0.0
C2530 C 0.03663 0.59671 0.61628 0.0
C2531 C 0.03039 0.58044 0.61841 0.0
C2532 C 0.05258 0.60148 0.62338 0.0
C2533 C 0.0333 0.62613 0.60515 0.0
C2534 C 0.06669 0.595 0.61706 0.0
C2535 C 0.0817 0.60133 0.6227 0.0
C2536 C 0.08263 0.61422 0.63462 0.0
C2537 C 0.06848 0.61982 0.64165 0.0
C2538 C 0.05361 0.61341 0.63618 0.0
H2539 H 0.0262 0.63173 0.59495 0.0
H2540 H 0.03245 0.63424 0.61632 0.0
H2541 H 0.04607 0.626 0.60136 0.0
H2542 H 0.0661 0.58566 0.60728 0.0
H2543 H 0.09247 0.59687 0.61704 0.0
H2544 H 0.62114 0.24915 0.56462 0.0
H2545 H 0.62149 0.22193 0.57835 0.0
H2546 H 0.61442 0.24554 0.62594 0.0
H2547 H 0.61367 0.27248 0.6124 0.0
H2548 H 0.63941 0.20817 0.60454 0.0
H2549 H 0.57549 0.21343 0.62131 0.0
H2550 H 0.58538 0.22725 0.60667 0.0
H2551 H 0.58794 0.23063 0.62875 0.0
C2552 C 0.61988 0.24854 0.57804 0.0
C2553 C 0.61707 0.26295 0.58739 0.0
C2554 C 0.62007 0.233 0.58584 0.0
C2555 C 0.61757 0.23173 0.60308 0.0
C2556 C 0.61594 0.24623 0.61255 0.0
H2557 H 0.62843 0.14907 0.67045 0.0
H2558 H 0.63231 0.17411 0.65357 0.0
C2559 C 0.61555 0.26166 0.60477 0.0
C2560 C 0.61567 0.21528 0.61115 0.0
H2561 H 0.58948 0.1917 0.63436 0.0
C2562 C 0.62848 0.20447 0.61097 0.0
C2563 C 0.60126 0.21038 0.61923 0.0
C2564 C 0.58667 0.22095 0.61888 0.0
C2565 C 0.62742 0.18904 0.61914 0.0
C2566 C 0.6133 0.18456 0.62798 0.0
C2567 C 0.60036 0.19521 0.62773 0.0
C2568 C 0.61155 0.16895 0.63766 0.0
C2569 C 0.64134 0.17766 0.61805 0.0
C2570 C 0.59836 0.15796 0.63463 0.0
C2571 C 0.59592 0.14383 0.64447 0.0
C2572 C 0.60668 0.14037 0.65751 0.0
C2573 C 0.61998 0.15132 0.66043 0.0
C2574 C 0.6223 0.16557 0.65069 0.0
H2575 H 0.64878 0.18044 0.60692 0.0
H2576 H 0.64913 0.17948 0.62927 0.0
H2577 H 0.63713 0.1644 0.6175 0.0
H2578 H 0.58986 0.16037 0.62469 0.0
H2579 H 0.58561 0.13561 0.64181 0.0
H2580 H 0.06935 0.40737 0.89982 0.0
H2581 H 0.04039 0.4038 0.89526 0.0
H2582 H 0.04577 0.35182 0.8842 0.0
H2583 H 0.07482 0.35524 0.88875 0.0
H2584 H 0.02526 0.39153 0.86465 0.0
H2585 H 0.00943 0.35273 0.91982 0.0
H2586 H 0.02789 0.36518 0.91872 0.0
H2587 H 0.02578 0.34596 0.90734 0.0
C2588 C 0.06439 0.39515 0.89651 0.0
C2589 C 0.0744 0.38159 0.89464 0.0
C2590 C 0.04785 0.39314 0.89392 0.0
C2591 C 0.04096 0.37752 0.88959 0.0
C2592 C 0.05086 0.36392 0.88779 0.0
H2593 H 0.94319 0.34465 0.86382 0.0
H2594 H 0.97163 0.34597 0.87185 0.0
C2595 C 0.06745 0.36593 0.89029 0.0
C2596 C 0.02351 0.37573 0.88619 0.0
H2597 H 0.98855 0.35772 0.90047 0.0
C2598 C 0.01721 0.38418 0.87248 0.0
C2599 C 0.01312 0.36602 0.8964 0.0
C2600 C 0.0193 0.35701 0.91148 0.0
C2601 C 0.00077 0.3831 0.86861 0.0
C2602 C 0.99029 0.37365 0.87899 0.0
C2603 C 0.99661 0.36503 0.89261 0.0
C2604 C 0.97275 0.37262 0.8758 0.0
C2605 C 0.99482 0.39186 0.85325 0.0
C2606 C 0.96385 0.38707 0.87597 0.0
C2607 C 0.94764 0.38637 0.87134 0.0
C2608 C 0.94 0.37118 0.86658 0.0
C2609 C 0.94873 0.35656 0.86734 0.0
C2610 C 0.96498 0.35729 0.87192 0.0
H2611 H 0.00468 0.39469 0.84437 0.0
H2612 H 0.98532 0.38421 0.8467 0.0
H2613 H 0.98964 0.4038 0.85699 0.0
H2614 H 0.96954 0.39896 0.87931 0.0
H2615 H 0.94123 0.39783 0.87107 0.0
H2616 H 0.87205 0.75448 0.06611 0.0
H2617 H 0.87106 0.78255 0.07815 0.0
H2618 H 0.8894 0.7643 0.12482 0.0
H2619 H 0.89102 0.73669 0.11285 0.0
H2620 H 0.85647 0.79652 0.10597 0.0
H2621 H 0.92263 0.80022 0.11242 0.0
H2622 H 0.91217 0.7841 0.10042 0.0
H2623 H 0.914 0.78233 0.12274 0.0
C2624 C 0.87571 0.75644 0.07899 0.0
C2625 C 0.88175 0.74333 0.08846 0.0
C2626 C 0.87513 0.77247 0.08584 0.0
C2627 C 0.88051 0.77555 0.10225 0.0
C2628 C 0.88556 0.76227 0.112 0.0
H2629 H 0.87068 0.85719 0.17049 0.0
H2630 H 0.86587 0.8329 0.15243 0.0
C2631 C 0.88636 0.74639 0.10513 0.0
C2632 C 0.88174 0.79269 0.10911 0.0
H2633 H 0.90834 0.82021 0.12786 0.0
C2634 C 0.86782 0.80184 0.11059 0.0
C2635 C 0.89662 0.79976 0.11476 0.0
C2636 C 0.91223 0.79117 0.11234 0.0
C2637 C 0.8683 0.81761 0.11827 0.0
C2638 C 0.88302 0.82414 0.12499 0.0
C2639 C 0.89701 0.81521 0.12287 0.0
C2640 C 0.88437 0.83991 0.13474 0.0
C2641 C 0.85306 0.82709 0.11899 0.0
C2642 C 0.89647 0.8519 0.13097 0.0
C2643 C 0.89954 0.8655 0.14154 0.0
C2644 C 0.89041 0.86755 0.15598 0.0
C2645 C 0.8778 0.85601 0.15935 0.0
C2646 C 0.87495 0.84218 0.14894 0.0
H2647 H 0.84476 0.82347 0.10856 0.0
H2648 H 0.84681 0.82413 0.13082 0.0
H2649 H 0.85558 0.84074 0.11849 0.0
H2650 H 0.90392 0.85044 0.12011 0.0
H2651 H 0.90929 0.87426 0.13857 0.0
H2652 H 0.41766 0.66692 0.34904 0.0
H2653 H 0.44666 0.67293 0.34758 0.0
H2654 H 0.45551 0.62467 0.36823 0.0
H2655 H 0.42672 0.61845 0.36953 0.0
H2656 H 0.46918 0.67362 0.37408 0.0
H2657 H 0.48357 0.62621 0.32674 0.0
H2658 H 0.46335 0.63258 0.33028 0.0
H2659 H 0.47233 0.61775 0.3439 0.0
C2660 C 0.42579 0.65751 0.35309 0.0
C2661 C 0.41988 0.64216 0.3593 0.0
C2662 C 0.44233 0.661 0.3523 0.0
C2663 C 0.4532 0.64915 0.35759 0.0
C2664 C 0.44733 0.63384 0.36377 0.0
H2665 H 0.55424 0.63885 0.37129 0.0
H2666 H 0.52496 0.63724 0.37245 0.0
C2667 C 0.43085 0.63035 0.36456 0.0
C2668 C 0.4707 0.65286 0.3572 0.0
H2669 H 0.50567 0.6382 0.34236 0.0
C2670 C 0.47718 0.66602 0.36701 0.0
C2671 C 0.48105 0.64292 0.34792 0.0
C2672 C 0.47473 0.62918 0.33648 0.0
C2673 C 0.49384 0.66911 0.36828 0.0
C2674 C 0.50418 0.65883 0.3594 0.0
C2675 C 0.49767 0.64594 0.34928 0.0
C2676 C 0.52184 0.66098 0.3605 0.0
C2677 C 0.50032 0.68294 0.37949 0.0
C2678 C 0.52974 0.67502 0.35367 0.0
C2679 C 0.5465 0.67599 0.35295 0.0
C2680 C 0.55559 0.66287 0.359 0.0
C2681 C 0.54761 0.64915 0.36648 0.0
C2682 C 0.53088 0.64819 0.36715 0.0
H2683 H 0.49096 0.68769 0.38783 0.0
H2684 H 0.51045 0.67863 0.38725 0.0
H2685 H 0.50494 0.69342 0.37171 0.0
H2686 H 0.52293 0.68492 0.34829 0.0
H2687 H 0.55227 0.68672 0.3471 0.0
H2688 H 0.83223 0.59423 0.81447 0.0
H2689 H 0.83796 0.60293 0.78588 0.0
H2690 H 0.88781 0.59227 0.79329 0.0
H2691 H 0.88218 0.58321 0.82174 0.0
H2692 H 0.8586 0.62611 0.77074 0.0
H2693 H 0.87413 0.56166 0.75457 0.0
H2694 H 0.86464 0.56684 0.77392 0.0
H2695 H 0.88595 0.57025 0.77158 0.0
C2696 C 0.84447 0.59399 0.81013 0.0
C2697 C 0.8567 0.58776 0.82031 0.0
C2698 C 0.84771 0.59895 0.79377 0.0
C2699 C 0.86322 0.59781 0.78736 0.0
C2700 C 0.87567 0.59281 0.79788 0.0
H2701 H 0.90485 0.6356 0.69701 0.0
H2702 H 0.8943 0.63178 0.72501 0.0
C2703 C 0.87244 0.58772 0.81417 0.0
C2704 C 0.86622 0.60087 0.76943 0.0
H2705 H 0.88026 0.58244 0.73438 0.0
C2706 C 0.86324 0.61656 0.76274 0.0
C2707 C 0.87187 0.58824 0.75891 0.0
C2708 C 0.87418 0.57075 0.76505 0.0
C2709 C 0.86635 0.62015 0.74591 0.0
C2710 C 0.87292 0.6078 0.73566 0.0
C2711 C 0.87535 0.59195 0.74225 0.0
C2712 C 0.87806 0.61113 0.7183 0.0
C2713 C 0.86246 0.63707 0.73929 0.0
C2714 C 0.87263 0.60064 0.70519 0.0
C2715 C 0.87887 0.60261 0.68916 0.0
C2716 C 0.89065 0.61512 0.68597 0.0
C2717 C 0.89573 0.62589 0.69902 0.0
C2718 C 0.88959 0.62382 0.71504 0.0
H2719 H 0.85282 0.64272 0.74662 0.0
H2720 H 0.87331 0.64547 0.74031 0.0
H2721 H 0.85863 0.6364 0.72599 0.0
H2722 H 0.8638 0.5907 0.70745 0.0
H2723 H 0.8747 0.59414 0.67938 0.0
H2724 H 0.67001 0.61246 0.09852 0.0
H2725 H 0.6614 0.62762 0.07394 0.0
H2726 H 0.61192 0.61503 0.08496 0.0
H2727 H 0.62039 0.59957 0.10951 0.0
H2728 H 0.61929 0.60855 0.05263 0.0
H2729 H 0.64074 0.67233 0.06947 0.0
H2730 H 0.65634 0.65774 0.07181 0.0
H2731 H 0.63878 0.65587 0.08466 0.0
C2732 C 0.65727 0.61302 0.09586 0.0
C2733 C 0.64589 0.60477 0.10602 0.0
C2734 C 0.65238 0.62183 0.08186 0.0
C2735 C 0.63601 0.62271 0.07781 0.0
C2736 C 0.6246 0.61462 0.08797 0.0
H2737 H 0.61573 0.68354 0.98955 0.0
H2738 H 0.61238 0.67205 0.01767 0.0
C2739 C 0.62948 0.60577 0.10198 0.0
C2740 C 0.63105 0.63098 0.06223 0.0
H2741 H 0.63698 0.66669 0.03998 0.0
C2742 C 0.62287 0.62137 0.04997 0.0
C2743 C 0.6354 0.64779 0.0589 0.0
C2744 C 0.64314 0.65908 0.07199 0.0
C2745 C 0.61999 0.62777 0.03402 0.0
C2746 C 0.6257 0.64409 0.03022 0.0
C2747 C 0.63279 0.6541 0.04286 0.0
C2748 C 0.62614 0.65029 0.01289 0.0
C2749 C 0.61127 0.61686 0.02126 0.0
C2750 C 0.635 0.64188 0.00097 0.0
C2751 C 0.63696 0.64838 0.98502 0.0
C2752 C 0.63017 0.66351 0.98065 0.0
C2753 C 0.62105 0.67182 0.99252 0.0
C2754 C 0.61912 0.66528 0.00856 0.0
H2755 H 0.60304 0.6076 0.02734 0.0
H2756 H 0.60423 0.62434 0.01239 0.0
H2757 H 0.62015 0.6099 0.01408 0.0
H2758 H 0.6409 0.63054 0.00419 0.0
H2759 H 0.64427 0.64178 0.97631 0.0
H2760 H 0.58993 0.33972 0.20476 0.0
H2761 H 0.59836 0.34804 0.23298 0.0
H2762 H 0.62848 0.38767 0.21283 0.0
H2763 H 0.61994 0.37963 0.18457 0.0
H2764 H 0.62853 0.35248 0.24953 0.0
H2765 H 0.59678 0.4116 0.24283 0.0
H2766 H 0.59392 0.39451 0.22833 0.0
H2767 H 0.61141 0.40819 0.22702 0.0
C2768 C 0.59849 0.35008 0.2063 0.0
C2769 C 0.60407 0.35919 0.19244 0.0
C2770 C 0.60331 0.35479 0.22244 0.0
C2771 C 0.61378 0.36865 0.22496 0.0
C2772 C 0.62014 0.37713 0.21112 0.0
H2773 H 0.65997 0.40591 0.31539 0.0
H2774 H 0.65351 0.3913 0.28931 0.0
C2775 C 0.61528 0.37248 0.19499 0.0
C2776 C 0.61718 0.37491 0.24206 0.0
H2777 H 0.61248 0.40856 0.26729 0.0
C2778 C 0.62501 0.36472 0.25347 0.0
C2779 C 0.61227 0.39075 0.24721 0.0
C2780 C 0.60299 0.40186 0.23578 0.0
C2781 C 0.62839 0.37013 0.26987 0.0
C2782 C 0.62398 0.38622 0.27481 0.0
C2783 C 0.6159 0.39625 0.26346 0.0
C2784 C 0.6278 0.39318 0.29159 0.0
C2785 C 0.63642 0.35851 0.28178 0.0
C2786 C 0.6155 0.39911 0.30154 0.0
C2787 C 0.61914 0.40766 0.31638 0.0
C2788 C 0.6352 0.41048 0.32153 0.0
C2789 C 0.64747 0.40393 0.31185 0.0
C2790 C 0.6438 0.39545 0.29696 0.0
H2791 H 0.63473 0.34532 0.27774 0.0
H2792 H 0.6495 0.3616 0.28218 0.0
H2793 H 0.63168 0.35979 0.2946 0.0
H2794 H 0.60306 0.39752 0.29759 0.0
H2795 H 0.60939 0.41246 0.32354 0.0
H2796 H 0.84838 0.34704 0.57352 0.0
H2797 H 0.85585 0.32906 0.55048 0.0
H2798 H 0.90445 0.34922 0.55321 0.0
H2799 H 0.89714 0.36732 0.57628 0.0
H2800 H 0.89015 0.35 0.5212 0.0
H2801 H 0.8832 0.2873 0.549 0.0
H2802 H 0.86631 0.29999 0.55257 0.0
H2803 H 0.88557 0.30603 0.56145 0.0
C2804 C 0.8607 0.34756 0.56937 0.0
C2805 C 0.87214 0.35868 0.57675 0.0
C2806 C 0.86499 0.33715 0.55629 0.0
C2807 C 0.88077 0.33762 0.55034 0.0
C2808 C 0.89226 0.34855 0.55776 0.0
H2809 H 0.89992 0.2992 0.44971 0.0
H2810 H 0.90779 0.3067 0.4785 0.0
C2811 C 0.88802 0.3589 0.57093 0.0
C2812 C 0.88473 0.32786 0.53533 0.0
H2813 H 0.88188 0.28862 0.51896 0.0
C2814 C 0.88876 0.33654 0.52074 0.0
C2815 C 0.88297 0.31032 0.53486 0.0
C2816 C 0.87943 0.30033 0.55035 0.0
C2817 C 0.88973 0.32828 0.50535 0.0
C2818 C 0.88698 0.31079 0.50467 0.0
C2819 C 0.88406 0.302 0.5195 0.0
C2820 C 0.88404 0.30207 0.48854 0.0
C2821 C 0.89238 0.33853 0.48979 0.0
C2822 C 0.86848 0.29573 0.48498 0.0
C2823 C 0.86407 0.2913 0.46873 0.0
C2824 C 0.87515 0.29304 0.45574 0.0
C2825 C 0.8912 0.29763 0.45955 0.0
C2826 C 0.89564 0.30211 0.47593 0.0
H2827 H 0.89201 0.3521 0.49229 0.0
H2828 H 0.90432 0.33599 0.48457 0.0
H2829 H 0.88314 0.33517 0.48015 0.0
H2830 H 0.85935 0.29551 0.49451 0.0
H2831 H 0.85162 0.28778 0.46608 0.0
H2832 H 0.9039 0.33997 0.7847 0.0
H2833 H 0.89568 0.33679 0.75553 0.0
H2834 H 0.84627 0.34229 0.76926 0.0
H2835 H 0.85454 0.34632 0.7984 0.0
H2836 H 0.87629 0.31707 0.73663 0.0
H2837 H 0.8528 0.38085 0.73843 0.0
H2838 H 0.86395 0.3724 0.75556 0.0
H2839 H 0.84306 0.36657 0.75253 0.0
C2840 C 0.89125 0.34028 0.78155 0.0
C2841 C 0.8799 0.34374 0.79379 0.0
C2842 C 0.88656 0.33842 0.76486 0.0
C2843 C 0.87041 0.33977 0.76014 0.0
C2844 C 0.85886 0.34175 0.77255 0.0
H2845 H 0.83395 0.35641 0.65922 0.0
H2846 H 0.83506 0.34503 0.68744 0.0
C2847 C 0.86359 0.34397 0.78922 0.0
C2848 C 0.86604 0.34064 0.74219 0.0
H2849 H 0.85113 0.36674 0.71284 0.0
C2850 C 0.87063 0.32785 0.73144 0.0
C2851 C 0.85878 0.3548 0.7354 0.0
C2852 C 0.85449 0.36951 0.74603 0.0
C2853 C 0.86849 0.32903 0.71409 0.0
C2854 C 0.86151 0.34329 0.7074 0.0
C2855 C 0.85634 0.35574 0.71812 0.0
C2856 C 0.86095 0.3466 0.6893 0.0
C2857 C 0.87398 0.31526 0.70297 0.0
C2858 C 0.87519 0.3509 0.68094 0.0
C2859 C 0.87461 0.35761 0.66491 0.0
C2860 C 0.85978 0.36007 0.65697 0.0
C2861 C 0.84558 0.35466 0.66496 0.0
C2862 C 0.84616 0.34814 0.68108 0.0
H2863 H 0.87578 0.30361 0.71004 0.0
H2864 H 0.86514 0.31267 0.69274 0.0
H2865 H 0.88556 0.31918 0.69722 0.0
H2866 H 0.8867 0.35003 0.6872 0.0
H2867 H 0.88577 0.36157 0.65907 0.0
H2868 H 0.83481 0.60221 0.9064 0.0
H2869 H 0.84154 0.61944 0.93088 0.0
H2870 H 0.89062 0.60463 0.92864 0.0
H2871 H 0.88409 0.58745 0.90414 0.0
H2872 H 0.85432 0.60763 0.96149 0.0
H2873 H 0.89469 0.65578 0.93286 0.0
H2874 H 0.88106 0.6425 0.92067 0.0
H2875 H 0.89963 0.63469 0.92836 0.0
C2876 C 0.84709 0.60275 0.91097 0.0
C2877 C 0.85891 0.59342 0.90326 0.0
C2878 C 0.85089 0.61259 0.92499 0.0
C2879 C 0.8666 0.61344 0.93145 0.0
C2880 C 0.87848 0.60437 0.92367 0.0
H2881 H 0.91422 0.65931 0.01742 0.0
H2882 H 0.90708 0.6439 0.99187 0.0
C2883 C 0.87469 0.59448 0.9097 0.0
C2884 C 0.87039 0.62308 0.94686 0.0
H2885 H 0.89373 0.65543 0.96245 0.0
C2886 C 0.86285 0.61816 0.96171 0.0
C2887 C 0.88159 0.63673 0.94708 0.0
C2888 C 0.88963 0.64287 0.93138 0.0
C2889 C 0.86646 0.62631 0.97687 0.0
C2890 C 0.87767 0.63997 0.97711 0.0
C2891 C 0.88516 0.64494 0.96223 0.0
C2892 C 0.88187 0.64924 0.99268 0.0
C2893 C 0.85858 0.61992 0.99258 0.0
C2894 C 0.87008 0.65748 0.00152 0.0
C2895 C 0.8741 0.66623 0.01617 0.0
C2896 C 0.89003 0.66705 0.02217 0.0
C2897 C 0.90184 0.65891 0.01317 0.0
C2898 C 0.89779 0.65012 -0.00145 0.0
H2899 H 0.85377 0.60693 0.99105 0.0
H2900 H 0.86717 0.62039 0.00327 0.0
H2901 H 0.84841 0.62784 0.99565 0.0
H2902 H 0.85778 0.65726 0.99702 0.0
H2903 H 0.86472 0.67245 0.02272 0.0
H2904 H 0.65299 0.65268 0.31905 0.0
H2905 H 0.66651 0.65286 0.29217 0.0
H2906 H 0.62191 0.66398 0.26756 0.0
H2907 H 0.60861 0.66464 0.29436 0.0
H2908 H 0.65956 0.63048 0.27046 0.0
H2909 H 0.65139 0.6901 0.23873 0.0
H2910 H 0.64815 0.68772 0.26084 0.0
H2911 H 0.63232 0.68237 0.24601 0.0
C2912 C 0.64621 0.65573 0.30797 0.0
C2913 C 0.6297 0.65848 0.3088 0.0
C2914 C 0.65396 0.65586 0.2926 0.0
C2915 C 0.64529 0.65854 0.27778 0.0
C2916 C 0.62903 0.66235 0.27876 0.0
H2917 H 0.63535 0.61234 0.18626 0.0
H2918 H 0.63445 0.6297 0.21126 0.0
C2919 C 0.62136 0.66254 0.29414 0.0
C2920 C 0.6522 0.65427 0.2614 0.0
H2921 H 0.6523 0.66545 0.22032 0.0
C2922 C 0.65846 0.63839 0.25962 0.0
C2923 C 0.6508 0.66453 0.24717 0.0
C2924 C 0.64545 0.68219 0.24836 0.0
C2925 C 0.66216 0.63203 0.24391 0.0
C2926 C 0.65947 0.64176 0.22961 0.0
C2927 C 0.6542 0.65801 0.23137 0.0
C2928 C 0.66014 0.63425 0.21286 0.0
C2929 C 0.66788 0.61449 0.24253 0.0
C2930 C 0.67489 0.63151 0.2053 0.0
C2931 C 0.67547 0.62159 0.19097 0.0
C2932 C 0.6613 0.61414 0.18415 0.0
C2933 C 0.64649 0.61774 0.19129 0.0
C2934 C 0.64592 0.62775 0.2055 0.0
H2935 H 0.6691 0.60845 0.2549 0.0
H2936 H 0.65933 0.60684 0.23473 0.0
H2937 H 0.67971 0.61463 0.23631 0.0
H2938 H 0.68597 0.63639 0.21093 0.0
H2939 H 0.68706 0.61909 0.18575 0.0
H2940 H 0.60562 0.33883 0.51839 0.0
H2941 H 0.60958 0.35505 0.49301 0.0
H2942 H 0.6585 0.33971 0.49052 0.0
H2943 H 0.6546 0.32321 0.51587 0.0
H2944 H 0.6319 0.38125 0.48811 0.0
H2945 H 0.64091 0.3295 0.4434 0.0
H2946 H 0.63255 0.32613 0.46385 0.0
H2947 H 0.65379 0.32981 0.46152 0.0
C2948 C 0.61721 0.3388 0.51242 0.0
C2949 C 0.62979 0.32967 0.51913 0.0
C2950 C 0.61944 0.34809 0.49791 0.0
C2951 C 0.63426 0.34841 0.48978 0.0
C2952 C 0.64687 0.33937 0.49643 0.0
H2953 H 0.66641 0.40315 0.40174 0.0
H2954 H 0.66495 0.38533 0.42638 0.0
C2955 C 0.64465 0.33002 0.51097 0.0
C2956 C 0.63653 0.35873 0.47468 0.0
H2957 H 0.64408 0.35688 0.43294 0.0
C2958 C 0.63456 0.37593 0.47605 0.0
C2959 C 0.64009 0.35174 0.45899 0.0
C2960 C 0.64184 0.33327 0.45673 0.0
C2961 C 0.636 0.38635 0.46212 0.0
C2962 C 0.63925 0.37933 0.44638 0.0
C2963 C 0.64154 0.36218 0.44504 0.0
C2964 C 0.63996 0.38959 0.43112 0.0
C2965 C 0.63417 0.40482 0.46439 0.0
C2966 C 0.62628 0.39758 0.42546 0.0
C2967 C 0.62704 0.40777 0.41141 0.0
C2968 C 0.6415 0.41011 0.40269 0.0
C2969 C 0.65509 0.40171 0.40818 0.0
C2970 C 0.6543 0.3915 0.42224 0.0
H2971 H 0.6358 0.40867 0.47765 0.0
H2972 H 0.64296 0.41203 0.4567 0.0
H2973 H 0.62193 0.40809 0.46034 0.0
H2974 H 0.61502 0.39602 0.432 0.0
H2975 H 0.61632 0.41394 0.40751 0.0
H2976 H 0.68472 0.85361 0.61339 0.0
H2977 H 0.71215 0.84539 0.6078 0.0
H2978 H 0.72868 0.87028 0.6529 0.0
H2979 H 0.70142 0.87826 0.65872 0.0
H2980 H 0.73753 0.86717 0.60248 0.0
H2981 H 0.75115 0.82666 0.65594 0.0
H2982 H 0.73091 0.83192 0.65042 0.0
H2983 H 0.74351 0.84611 0.66263 0.0
C2984 C 0.69414 0.857 0.6223 0.0
C2985 C 0.6909 0.86661 0.63649 0.0
C2986 C 0.7098 0.85234 0.61906 0.0
C2987 C 0.72241 0.85708 0.63002 0.0
C2988 C 0.71909 0.86618 0.64446 0.0
H2989 H 0.82122 0.88201 0.61623 0.0
H2990 H 0.79191 0.88054 0.61663 0.0
C2991 C 0.70348 0.87082 0.64771 0.0
C2992 C 0.73926 0.85396 0.62573 0.0
H2993 H 0.77395 0.8393 0.6419 0.0
C2994 C 0.74545 0.86082 0.61095 0.0
C2995 C 0.74953 0.8455 0.63668 0.0
C2996 C 0.74339 0.83698 0.65221 0.0
C2997 C 0.76183 0.86021 0.60726 0.0
C2998 C 0.77229 0.85281 0.61882 0.0
C2999 C 0.76594 0.84516 0.63315 0.0
C3000 C 0.78993 0.85362 0.61683 0.0
C3001 C 0.7678 0.86766 0.59114 0.0
C3002 C 0.79854 0.83898 0.6169 0.0
C3003 C 0.8153 0.83978 0.61683 0.0
C3004 C 0.82375 0.85527 0.61678 0.0
C3005 C 0.81508 0.8699 0.6162 0.0
C3006 C 0.79831 0.86908 0.61632 0.0
H3007 H 0.75807 0.86787 0.58157 0.0
H3008 H 0.77212 0.8807 0.59344 0.0
H3009 H 0.77789 0.86064 0.58607 0.0
H3010 H 0.7923 0.82693 0.61737 0.0
H3011 H 0.82162 0.82827 0.61723 0.0
H3012 H 0.19168 0.60472 0.35377 0.0
H3013 H 0.21753 0.60894 0.33996 0.0
H3014 H 0.23359 0.64228 0.37952 0.0
H3015 H 0.20755 0.63862 0.39304 0.0
H3016 H 0.2455 0.65198 0.34901 0.0
H3017 H 0.25456 0.58452 0.35967 0.0
H3018 H 0.23769 0.58932 0.34671 0.0
H3019 H 0.2379 0.59505 0.36841 0.0
C3020 C 0.20062 0.6132 0.35935 0.0
C3021 C 0.19774 0.62112 0.37463 0.0
C3022 C 0.2154 0.61554 0.35147 0.0
C3023 C 0.22763 0.62553 0.35896 0.0
C3024 C 0.22434 0.63442 0.37358 0.0
H3025 H 0.32331 0.63942 0.37765 0.0
H3026 H 0.29502 0.64237 0.37119 0.0
C3027 C 0.20947 0.6323 0.38131 0.0
C3028 C 0.24432 0.62545 0.35277 0.0
H3029 H 0.27643 0.6005 0.35013 0.0
C3030 C 0.2522 0.64068 0.34895 0.0
C3031 C 0.25305 0.61067 0.35259 0.0
C3032 C 0.24546 0.59397 0.35717 0.0
C3033 C 0.26876 0.64164 0.34591 0.0
C3034 C 0.27762 0.62703 0.34682 0.0
C3035 C 0.26955 0.61166 0.34936 0.0
C3036 C 0.29531 0.62766 0.34854 0.0
C3037 C 0.27677 0.65838 0.34246 0.0
C3038 C 0.30495 0.61847 0.33789 0.0
C3039 C 0.32128 0.61677 0.34164 0.0
C3040 C 0.32793 0.62386 0.35629 0.0
C3041 C 0.31841 0.63358 0.36647 0.0
C3042 C 0.30228 0.6355 0.36263 0.0
H3043 H 0.26827 0.6669 0.33648 0.0
H3044 H 0.2809 0.66414 0.35444 0.0
H3045 H 0.28735 0.65719 0.3343 0.0
H3046 H 0.29972 0.61214 0.32707 0.0
H3047 H 0.32844 0.60919 0.33362 0.0
H3048 H 0.6366 0.07076 0.64908 0.0
H3049 H 0.64539 0.0481 0.63135 0.0
H3050 H 0.59647 0.02879 0.62739 0.0
H3051 H 0.58758 0.05175 0.6443 0.0
H3052 H 0.64405 0.01812 0.64097 0.0
H3053 H 0.61027 0.01834 0.58179 0.0
H3054 H 0.61132 0.03623 0.59549 0.0
H3055 H 0.59632 0.01975 0.59849 0.0
C3056 C 0.62769 0.06191 0.64403 0.0
C3057 C 0.61143 0.06291 0.6482 0.0
C3058 C 0.63271 0.04902 0.63384 0.0
C3059 C 0.62159 0.0368 0.62783 0.0
C3060 C 0.60525 0.0383 0.63136 0.0
H3061 H 0.61286 0.93567 0.62595 0.0
H3062 H 0.61021 0.96552 0.62218 0.0
C3063 C 0.60019 0.05135 0.64125 0.0
C3064 C 0.62719 0.02103 0.62069 0.0
H3065 H 0.6167 0.99045 0.59251 0.0
C3066 C 0.63848 0.01233 0.63001 0.0
C3067 C 0.62 0.01341 0.60636 0.0
C3068 C 0.60895 0.02256 0.5949 0.0
C3069 C 0.64165 0.99578 0.62632 0.0
C3070 C 0.63332 0.98772 0.61296 0.0
C3071 C 0.62294 0.99669 0.60284 0.0
C3072 C 0.63359 0.9695 0.61115 0.0
C3073 C 0.65298 0.9866 0.6375 0.0
C3074 C 0.64737 0.96187 0.60557 0.0
C3075 C 0.64894 0.94477 0.6077 0.0
C3076 C 0.63676 0.93516 0.61555 0.0
C3077 C 0.62248 0.9427 0.61994 0.0
C3078 C 0.6209 0.95975 0.61772 0.0
H3079 H 0.65779 0.99447 0.64796 0.0
H3080 H 0.64675 0.97539 0.64277 0.0
H3081 H 0.66324 0.98237 0.6301 0.0
H3082 H 0.65728 0.96927 0.6005 0.0
H3083 H 0.66006 0.93929 0.60409 0.0
H3084 H 0.18141 0.39426 0.89199 0.0
H3085 H 0.20801 0.38906 0.88118 0.0
H3086 H 0.18685 0.35716 0.84291 0.0
H3087 H 0.1599 0.36255 0.85359 0.0
H3088 H 0.21412 0.34454 0.86736 0.0
H3089 H 0.22769 0.40319 0.83307 0.0
H3090 H 0.21774 0.40551 0.85271 0.0
H3091 H 0.20747 0.39476 0.83582 0.0
C3092 C 0.18237 0.38634 0.88111 0.0
C3093 C 0.16863 0.37882 0.87359 0.0
C3094 C 0.19755 0.3834 0.87496 0.0
C3095 C 0.19931 0.37277 0.86127 0.0
C3096 C 0.18564 0.36547 0.85345 0.0
H3097 H 0.29983 0.37054 0.83215 0.0
H3098 H 0.27083 0.36579 0.82897 0.0
C3099 C 0.17032 0.36862 0.85949 0.0
C3100 C 0.21566 0.3688 0.85609 0.0
H3101 H 0.25013 0.38784 0.84219 0.0
C3102 C 0.22196 0.35378 0.86144 0.0
C3103 C 0.22575 0.38085 0.84832 0.0
C3104 C 0.21935 0.39696 0.842 0.0
C3105 C 0.23844 0.35102 0.8603 0.0
C3106 C 0.24878 0.3637 0.8538 0.0
C3107 C 0.24222 0.37816 0.84727 0.0
C3108 C 0.26647 0.36324 0.8554 0.0
C3109 C 0.24472 0.33484 0.86659 0.0
C3110 C 0.27369 0.363 0.8713 0.0
C3111 C 0.29025 0.36576 0.87318 0.0
C3112 C 0.29989 0.36895 0.85919 0.0
C3113 C 0.29275 0.3682 0.8432 0.0
C3114 C 0.27617 0.36546 0.84134 0.0
H3115 H 0.23534 0.32467 0.86576 0.0
H3116 H 0.25536 0.33114 0.85945 0.0
H3117 H 0.2483 0.33632 0.8799 0.0
H3118 H 0.2664 0.36164 0.88235 0.0
H3119 H 0.29536 0.36626 0.88566 0.0
H3120 H 0.36216 0.43175 0.64624 0.0
H3121 H 0.35507 0.45666 0.63096 0.0
H3122 H 0.40484 0.46609 0.61874 0.0
H3123 H 0.41202 0.441 0.63366 0.0
H3124 H 0.3657 0.48718 0.64032 0.0
H3125 H 0.38288 0.47612 0.57479 0.0
H3126 H 0.38072 0.45952 0.58981 0.0
H3127 H 0.39884 0.47239 0.58933 0.0
C3128 C 0.37158 0.43894 0.64005 0.0
C3129 C 0.38768 0.43447 0.64129 0.0
C3130 C 0.36749 0.45315 0.63128 0.0
C3131 C 0.37941 0.46314 0.6236 0.0
C3132 C 0.3954 0.45836 0.62425 0.0
H3133 H 0.37818 0.56895 0.6119 0.0
H3134 H 0.38459 0.54024 0.61815 0.0
C3135 C 0.3995 0.44408 0.63292 0.0
C3136 C 0.37541 0.47956 0.61681 0.0
H3137 H 0.37896 0.50457 0.58262 0.0
C3138 C 0.36843 0.49089 0.62764 0.0
C3139 C 0.3789 0.48435 0.60024 0.0
C3140 C 0.3856 0.47239 0.58782 0.0
C3141 C 0.36526 0.50705 0.62251 0.0
C3142 C 0.3695 0.51212 0.60624 0.0
C3143 C 0.37598 0.50067 0.59518 0.0
C3144 C 0.36722 0.52934 0.60067 0.0
C3145 C 0.35737 0.51857 0.63458 0.0
C3146 C 0.35587 0.53264 0.58823 0.0
C3147 C 0.35221 0.54905 0.58456 0.0
C3148 C 0.35988 0.56236 0.59331 0.0
C3149 C 0.37193 0.55898 0.60508 0.0
C3150 C 0.3756 0.5426 0.60868 0.0
H3151 H 0.35129 0.51161 0.64482 0.0
H3152 H 0.36665 0.52714 0.64027 0.0
H3153 H 0.34841 0.52619 0.62809 0.0
H3154 H 0.34935 0.52252 0.58188 0.0
H3155 H 0.34294 0.55125 0.57535 0.0
H3156 H 0.82617 0.15665 0.08725 0.0
H3157 H 0.79716 0.15989 0.08966 0.0
H3158 H 0.79059 0.1073 0.099 0.0
H3159 H 0.81937 0.10392 0.09642 0.0
H3160 H 0.76775 0.11933 0.0772 0.0
H3161 H 0.77411 0.15831 0.13456 0.0
H3162 H 0.78479 0.16599 0.11665 0.0
H3163 H 0.7905 0.14695 0.12628 0.0
C3164 C 0.81853 0.14579 0.08978 0.0
C3165 C 0.8251 0.13007 0.09188 0.0
C3166 C 0.80197 0.14766 0.09119 0.0
C3167 C 0.79177 0.13387 0.09479 0.0
C3168 C 0.79825 0.11811 0.09627 0.0
H3169 H 0.70114 0.12317 0.14237 0.0
H3170 H 0.72912 0.12444 0.13365 0.0
C3171 C 0.81473 0.11622 0.09483 0.0
C3172 C 0.7744 0.13572 0.09763 0.0
H3173 H 0.74788 0.15205 0.12477 0.0
C3174 C 0.76336 0.12661 0.08749 0.0
C3175 C 0.76877 0.14508 0.11119 0.0
C3176 C 0.78012 0.15455 0.12291 0.0
C3177 C 0.74685 0.12631 0.09078 0.0
C3178 C 0.74124 0.13559 0.10441 0.0
C3179 C 0.75224 0.14501 0.11429 0.0
C3180 C 0.72416 0.13482 0.10936 0.0
C3181 C 0.73565 0.11549 0.08011 0.0
C3182 C 0.71209 0.1403 0.0986 0.0
C3183 C 0.69603 0.1395 0.10352 0.0
C3184 C 0.69181 0.13333 0.11934 0.0
C3185 C 0.70397 0.12796 0.1301 0.0
C3186 C 0.71997 0.12871 0.12515 0.0
H3187 H 0.74223 0.10642 0.07255 0.0
H3188 H 0.72678 0.10853 0.08793 0.0
H3189 H 0.72895 0.12347 0.07142 0.0
H3190 H 0.7151 0.14534 0.08647 0.0
H3191 H 0.68696 0.14385 0.09499 0.0
H3192 H 0.63448 0.06495 0.86107 0.0
H3193 H 0.62108 0.03749 0.86149 0.0
H3194 H 0.61701 0.04055 0.91499 0.0
H3195 H 0.63063 0.06813 0.91472 0.0
H3196 H 0.62956 0.01098 0.90415 0.0
H3197 H 0.57412 0.0237 0.86883 0.0
H3198 H 0.59171 0.03119 0.85809 0.0
H3199 H 0.58684 0.04006 0.87798 0.0
C3200 C 0.6306 0.05991 0.87293 0.0
C3201 C 0.63363 0.06873 0.88787 0.0
C3202 C 0.62282 0.04424 0.87313 0.0
C3203 C 0.61782 0.0371 0.88824 0.0
C3204 C 0.62066 0.04592 0.90318 0.0
H3205 H 0.56667 0.94059 0.87356 0.0
H3206 H 0.57313 0.9677 0.88651 0.0
C3207 C 0.62842 0.06167 0.903 0.0
C3208 C 0.61073 0.01993 0.88832 0.0
H3209 H 0.58218 0.99512 0.86882 0.0
C3210 C 0.619 0.00753 0.89672 0.0
C3211 C 0.59677 0.01547 0.87892 0.0
C3212 C 0.58675 0.02835 0.8706 0.0
C3213 C 0.61437 0.99065 0.8949 0.0
C3214 C 0.60132 0.98609 0.88421 0.0
C3215 C 0.59232 -0.00142 0.87687 0.0
C3216 C 0.59795 0.96863 0.87885 0.0
C3217 C 0.62379 0.97784 0.90408 0.0
C3218 C 0.60981 0.96005 0.87048 0.0
C3219 C 0.60618 0.94462 0.86308 0.0
C3220 C 0.59054 0.93746 0.86376 0.0
C3221 C 0.57884 0.94572 0.87282 0.0
C3222 C 0.58249 0.96123 0.88021 0.0
H3223 H 0.62908 0.98307 0.91584 0.0
H3224 H 0.61616 0.96666 0.90709 0.0
H3225 H 0.63382 0.97395 0.89615 0.0
H3226 H 0.62171 0.96566 0.86892 0.0
H3227 H 0.61551 0.93863 0.85624 0.0
H3228 H 0.91606 0.06004 0.36599 0.0
H3229 H 0.91344 0.03288 0.3796 0.0
H3230 H 0.86203 0.03334 0.37359 0.0
H3231 H 0.86446 0.06035 0.35988 0.0
H3232 H 0.89413 0.01906 0.40774 0.0
H3233 H 0.87746 0.99296 0.34543 0.0
H3234 H 0.88675 0.01345 0.34817 0.0
H3235 H 0.86567 0.01003 0.35191 0.0
C3236 C 0.90416 0.05455 0.36788 0.0
C3237 C 0.89048 0.06224 0.36157 0.0
C3238 C 0.90271 0.03903 0.37567 0.0
C3239 C 0.88757 0.03104 0.37729 0.0
C3240 C 0.87383 0.03926 0.37221 0.0
H3241 H 0.84935 0.94325 0.42353 0.0
H3242 H 0.86046 0.97115 0.41812 0.0
C3243 C 0.87526 0.05469 0.36438 0.0
C3244 C 0.88614 0.01349 0.38265 0.0
H3245 H 0.87378 0.97503 0.36857 0.0
C3246 C 0.88982 0.00936 0.3992 0.0
C3247 C 0.88087 0.00086 0.37134 0.0
C3248 C 0.87759 0.00446 0.35317 0.0
C3249 C 0.88766 0.99293 0.40493 0.0
C3250 C 0.88149 0.98047 0.39382 0.0
C3251 C 0.87847 0.98457 0.37711 0.0
C3252 C 0.87701 0.96334 0.39926 0.0
C3253 C 0.89199 0.98908 0.42277 0.0
C3254 C 0.88268 0.9496 0.39056 0.0
C3255 C 0.87615 0.93362 0.39344 0.0
C3256 C 0.86381 0.93111 0.40507 0.0
C3257 C 0.85884 0.94474 0.41449 0.0
C3258 C 0.8653 0.96073 0.41151 0.0
H3259 H 0.9013 -0.00191 0.42774 0.0
H3260 H 0.88117 0.99004 0.4306 0.0
H3261 H 0.89645 0.9763 0.42399 0.0
H3262 H 0.89168 0.95134 0.38101 0.0
H3263 H 0.8803 0.92337 0.38604 0.0
H3264 H 0.3501 0.2862 0.12125 0.0
H3265 H 0.34205 0.25668 0.11713 0.0
H3266 H 0.3857 0.24917 0.09023 0.0
H3267 H 0.39381 0.27824 0.09424 0.0
H3268 H 0.35491 0.23279 0.07628 0.0
H3269 H 0.3686 0.22081 0.14338 0.0
H3270 H 0.35531 0.23701 0.13755 0.0
H3271 H 0.37636 0.23951 0.13349 0.0
C3272 C 0.35787 0.27826 0.11432 0.0
C3273 C 0.37271 0.28448 0.10831 0.0
C3274 C 0.35323 0.26147 0.11194 0.0
C3275 C 0.3633 0.25084 0.10337 0.0
C3276 C 0.37773 0.25723 0.09678 0.0
H3277 H 0.40553 0.16695 0.07829 0.0
H3278 H 0.38828 0.19063 0.07666 0.0
C3279 C 0.38242 0.27383 0.09926 0.0
C3280 C 0.36016 0.23268 0.10264 0.0
H3281 H 0.36952 0.19844 0.12491 0.0
C3282 C 0.35755 0.22512 0.08699 0.0
C3283 C 0.36338 0.22275 0.11666 0.0
C3284 C 0.36609 0.23031 0.13377 0.0
C3285 C 0.35956 0.20801 0.08474 0.0
C3286 C 0.36479 0.19844 0.09839 0.0
C3287 C 0.36566 0.20573 0.11436 0.0
C3288 C 0.37219 0.18207 0.09618 0.0
C3289 C 0.35675 0.20059 0.06761 0.0
C3290 C 0.36881 0.16911 0.10744 0.0
C3291 C 0.37901 0.15579 0.10873 0.0
C3292 C 0.39261 0.15508 0.09858 0.0
C3293 C 0.39507 0.16713 0.08617 0.0
C3294 C 0.38507 0.18064 0.08514 0.0
H3295 H 0.34651 0.20647 0.06129 0.0
H3296 H 0.36753 0.20312 0.05988 0.0
H3297 H 0.35427 0.18694 0.06813 0.0
H3298 H 0.35896 0.1699 0.11608 0.0
H3299 H 0.37678 0.14656 0.11831 0.0
H3300 H 0.59103 0.67576 0.90884 0.0
H3301 H 0.56478 0.67023 0.89563 0.0
H3302 H 0.56492 0.61942 0.91257 0.0
H3303 H 0.59121 0.62469 0.92558 0.0
H3304 H 0.55704 0.62219 0.8792 0.0
H3305 H 0.52095 0.66419 0.91759 0.0
H3306 H 0.53824 0.67415 0.90822 0.0
H3307 H 0.54085 0.65831 0.92368 0.0
C3308 C 0.58545 0.66343 0.90985 0.0
C3309 C 0.59326 0.65068 0.91829 0.0
C3310 C 0.57039 0.66033 0.90238 0.0
C3311 C 0.56281 0.64448 0.90334 0.0
C3312 C 0.57054 0.63176 0.91176 0.0
H3313 H 0.4748 0.598 0.86271 0.0
H3314 H 0.49973 0.60428 0.87828 0.0
C3315 C 0.58558 0.63481 0.91919 0.0
C3316 C 0.54715 0.64089 0.89494 0.0
H3317 H 0.508 0.65191 0.89376 0.0
C3318 C 0.54629 0.62861 0.88244 0.0
C3319 C 0.53317 0.64932 0.8992 0.0
C3320 C 0.53325 0.66213 0.91301 0.0
C3321 C 0.53188 0.62472 0.87386 0.0
C3322 C 0.51792 0.63317 0.8781 0.0
C3323 C 0.51875 0.64545 0.89059 0.0
C3324 C 0.5024 0.62961 0.86945 0.0
C3325 C 0.53179 0.61187 0.86009 0.0
C3326 C 0.49544 0.64194 0.85975 0.0
C3327 C 0.48119 0.63842 0.85089 0.0
C3328 C 0.47361 0.62252 0.85164 0.0
C3329 C 0.48039 0.61033 0.86178 0.0
C3330 C 0.49466 0.61387 0.87062 0.0
H3331 H 0.54411 0.60936 0.85586 0.0
H3332 H 0.52624 0.60004 0.86472 0.0
H3333 H 0.52461 0.61596 0.8492 0.0
H3334 H 0.50121 0.65419 0.85877 0.0
H3335 H 0.47625 0.64812 0.84328 0.0
H3336 H 0.09712 0.70992 0.64105 0.0
H3337 H 0.10369 0.73829 0.63211 0.0
H3338 H 0.14955 0.72306 0.6144 0.0
H3339 H 0.1432 0.69454 0.6237 0.0
H3340 H 0.15074 0.75516 0.62902 0.0
H3341 H 0.10217 0.74844 0.58198 0.0
H3342 H 0.09481 0.74332 0.60233 0.0
H3343 H 0.10989 0.73088 0.59304 0.0
C3344 C 0.10874 0.71265 0.63555 0.0
C3345 C 0.11956 0.69998 0.63287 0.0
C3346 C 0.11243 0.72883 0.63035 0.0
C3347 C 0.12688 0.7326 0.62212 0.0
C3348 C 0.13826 0.72031 0.62054 0.0
H3349 H 0.10945 0.82898 0.57972 0.0
H3350 H 0.12266 0.80232 0.57887 0.0
C3351 C 0.13463 0.70407 0.62593 0.0
C3352 C 0.12939 0.74918 0.6145 0.0
H3353 H 0.10933 0.77666 0.59073 0.0
C3354 C 0.14193 0.75984 0.62035 0.0
C3355 C 0.11839 0.75505 0.60256 0.0
C3356 C 0.10568 0.74374 0.59446 0.0
C3357 C 0.14263 0.77675 0.61597 0.0
C3358 C 0.13017 0.78313 0.60598 0.0
C3359 C 0.11876 0.77199 0.59865 0.0
C3360 C 0.12676 0.80112 0.60556 0.0
C3361 C 0.15639 0.78764 0.62257 0.0
C3362 C 0.12531 0.80972 0.6207 0.0
C3363 C 0.118 0.82498 0.62118 0.0
C3364 C 0.11157 0.83186 0.60658 0.0
C3365 C 0.11413 0.82395 0.59122 0.0
C3366 C 0.12171 0.80871 0.59072 0.0
H3367 H 0.16771 0.78079 0.62242 0.0
H3368 H 0.1581 0.79921 0.61518 0.0
H3369 H 0.1541 0.791 0.63575 0.0
H3370 H 0.12862 0.80407 0.63241 0.0
H3371 H 0.11641 0.83076 0.63324 0.0
H3372 H 0.01263 0.36779 0.37909 0.0
H3373 H 0.98794 0.36349 0.39476 0.0
H3374 H 0.98833 0.41577 0.40703 0.0
H3375 H 0.0129 0.42031 0.39092 0.0
H3376 H 0.97928 0.36904 0.42722 0.0
H3377 H 0.94523 0.40869 0.38358 0.0
H3378 H 0.96525 0.40233 0.37917 0.0
H3379 H 0.96217 0.41858 0.39411 0.0
C3380 C 0.00757 0.37838 0.38522 0.0
C3381 C 0.01461 0.39444 0.38354 0.0
C3382 C 0.99347 0.37589 0.39423 0.0
C3383 C 0.98614 0.38935 0.40182 0.0
C3384 C 0.99359 0.40526 0.40096 0.0
H3385 H 0.89638 0.35697 0.45317 0.0
H3386 H 0.92178 0.37306 0.44966 0.0
C3387 C 0.00767 0.40781 0.3918 0.0
C3388 C 0.97021 0.38661 0.40963 0.0
H3389 H 0.93049 0.39381 0.40358 0.0
C3390 C 0.96861 0.37467 0.4223 0.0
C3391 C 0.95633 0.39399 0.40314 0.0
C3392 C 0.95721 0.40653 0.38918 0.0
C3393 C 0.95344 0.36911 0.4279 0.0
C3394 C 0.93954 0.37594 0.42084 0.0
C3395 C 0.9412 0.38868 0.409 0.0
C3396 C 0.92338 0.36802 0.4232 0.0
C3397 C 0.95237 0.35514 0.4404 0.0
C3398 C 0.9156 0.36046 0.4094 0.0
C3399 C 0.90117 0.35145 0.41131 0.0
C3400 C 0.89412 0.34978 0.4271 0.0
C3401 C 0.90152 0.35801 0.44085 0.0
C3402 C 0.91608 0.36709 0.4389 0.0
H3403 H 0.96423 0.34978 0.44296 0.0
H3404 H 0.94768 0.3599 0.45233 0.0
H3405 H 0.94396 0.34504 0.43585 0.0
H3406 H 0.921 0.36105 0.39717 0.0
H3407 H 0.89575 0.34543 0.40042 0.0
H3408 H 0.40113 0.81175 0.37878 0.0
H3409 H 0.4015 0.78257 0.38721 0.0
H3410 H 0.35009 0.78138 0.39254 0.0
H3411 H 0.34952 0.81051 0.38423 0.0
H3412 H 0.36897 0.76221 0.41767 0.0
H3413 H 0.38191 0.74914 0.35092 0.0
H3414 H 0.39501 0.76407 0.36157 0.0
H3415 H 0.37443 0.76876 0.35775 0.0
C3416 C 0.38993 0.80543 0.38214 0.0
C3417 C 0.37525 0.81338 0.38052 0.0
C3418 C 0.39018 0.78876 0.38693 0.0
C3419 C 0.3758 0.77985 0.39022 0.0
C3420 C 0.3613 0.78809 0.38998 0.0
H3421 H 0.33843 0.67967 0.40074 0.0
H3422 H 0.34399 0.70967 0.40242 0.0
C3423 C 0.36101 0.80473 0.38515 0.0
C3424 C 0.37549 0.76157 0.39179 0.0
H3425 H 0.37822 0.72622 0.36855 0.0
C3426 C 0.37114 0.75428 0.40702 0.0
C3427 C 0.3783 0.75136 0.37781 0.0
C3428 C 0.38258 0.75864 0.36103 0.0
C3429 C 0.36944 0.73692 0.40862 0.0
C3430 C 0.37175 0.72672 0.39448 0.0
C3431 C 0.37647 0.73406 0.37937 0.0
C3432 C 0.36873 0.70846 0.39472 0.0
C3433 C 0.36525 0.72969 0.42543 0.0
C3434 C 0.38067 0.69785 0.38945 0.0
C3435 C 0.37744 0.68074 0.38817 0.0
C3436 C 0.36219 0.6739 0.39217 0.0
C3437 C 0.35032 0.68453 0.39767 0.0
C3438 C 0.35352 0.70168 0.39879 0.0
H3439 H 0.36899 0.73834 0.43571 0.0
H3440 H 0.35204 0.72757 0.42612 0.0
H3441 H 0.371 0.71763 0.42743 0.0
H3442 H 0.39246 0.70285 0.38614 0.0
H3443 H 0.3869 0.6729 0.38403 0.0
H3444 H 0.00905 0.58788 0.1694 0.0
H3445 H 0.98674 0.5958 0.15151 0.0
H3446 H 0.0194 0.62559 0.12155 0.0
H3447 H 0.0417 0.61812 0.13968 0.0
H3448 H 0.99557 0.64318 0.13218 0.0
H3449 H 0.96976 0.58444 0.10554 0.0
H3450 H 0.97171 0.58337 0.12781 0.0
H3451 H 0.98942 0.58585 0.11525 0.0
C3452 C 0.01153 0.59587 0.15882 0.0
C3453 C 0.0271 0.60252 0.15606 0.0
C3454 C -0.00123 0.60025 0.14848 0.0
C3455 C 0.00141 0.61112 0.13504 0.0
C3456 C 0.0171 0.61712 0.1318 0.0
H3457 H 0.92795 0.65812 0.07354 0.0
H3458 H 0.95018 0.64026 0.08094 0.0
C3459 C 0.02982 0.61289 0.14222 0.0
C3460 C 0.98764 0.61808 0.12592 0.0
H3461 H 0.95216 0.60778 0.10597 0.0
C3462 C 0.98627 0.63542 0.12616 0.0
C3463 C 0.97549 0.60798 0.11802 0.0
C3464 C 0.97674 0.58939 0.11648 0.0
C3465 C 0.97279 0.64287 0.11942 0.0
C3466 C 0.96023 0.63273 0.11244 0.0
C3467 C 0.9618 0.61546 0.11149 0.0
C3468 C 0.94503 0.6401 0.10732 0.0
C3469 C 0.97178 0.66156 0.12029 0.0
C3470 C 0.93454 0.6453 0.11965 0.0
C3471 C 0.922 0.65553 0.11553 0.0
C3472 C 0.9197 0.66071 0.09897 0.0
C3473 C 0.92943 0.65434 0.08641 0.0
C3474 C 0.9421 0.64414 0.09059 0.0
H3475 H 0.98358 0.66778 0.12333 0.0
H3476 H 0.96732 0.6665 0.10826 0.0
H3477 H 0.96316 0.66485 0.13011 0.0
H3478 H 0.93666 0.64225 0.13262 0.0
H3479 H 0.9146 0.66006 0.12547 0.0
H3480 H 0.11504 0.32286 0.89669 0.0
H3481 H 0.11062 0.29282 0.89317 0.0
H3482 H 0.16087 0.28565 0.9026 0.0
H3483 H 0.16549 0.31567 0.90616 0.0
H3484 H 0.14662 0.27026 0.87227 0.0
H3485 H 0.11227 0.25551 0.92983 0.0
H3486 H 0.10585 0.27289 0.91773 0.0
H3487 H 0.12512 0.274 0.92793 0.0
C3488 C 0.12516 0.31492 0.89809 0.0
C3489 C 0.14064 0.32169 0.90169 0.0
C3490 C 0.12257 0.29775 0.8962 0.0
C3491 C 0.13538 0.28708 0.89784 0.0
C3492 C 0.15082 0.29374 0.90143 0.0
H3493 H 0.14803 0.18292 0.87652 0.0
H3494 H 0.15148 0.21182 0.88569 0.0
C3495 C 0.15342 0.31088 0.90344 0.0
C3496 C 0.13288 0.26905 0.89481 0.0
H3497 H 0.11467 0.23369 0.91019 0.0
C3498 C 0.13972 0.26222 0.88058 0.0
C3499 C 0.12372 0.25873 0.90563 0.0
C3500 C 0.11637 0.26556 0.92122 0.0
C3501 C 0.13748 0.24528 0.87673 0.0
C3502 C 0.12853 0.23485 0.88768 0.0
C3503 C 0.12161 0.24171 0.9019 0.0
C3504 C 0.12618 0.21681 0.88439 0.0
C3505 C 0.14439 0.23882 0.86073 0.0
C3506 C 0.11072 0.20979 0.8816 0.0
C3507 C 0.10866 0.19317 0.87656 0.0
C3508 C 0.12208 0.18338 0.87418 0.0
C3509 C 0.13747 0.19021 0.87798 0.0
C3510 C 0.13948 0.20673 0.88316 0.0
H3511 H 0.14698 0.24901 0.85172 0.0
H3512 H 0.15583 0.23277 0.86355 0.0
H3513 H 0.13605 0.22948 0.85468 0.0
H3514 H 0.10029 0.21736 0.88263 0.0
H3515 H 0.09665 0.18827 0.87378 0.0
H3516 H 0.57633 0.35103 0.56692 0.0
H3517 H 0.553 0.36817 0.5706 0.0
H3518 H 0.55603 0.36106 0.62384 0.0
H3519 H 0.57943 0.34442 0.62035 0.0
H3520 H 0.52581 0.35538 0.58198 0.0
H3521 H 0.54331 0.40833 0.62265 0.0
H3522 H 0.55798 0.39645 0.61185 0.0
H3523 H 0.55038 0.38966 0.63179 0.0
C3524 C 0.57236 0.35359 0.57945 0.0
C3525 C 0.57964 0.34615 0.59333 0.0
C3526 C 0.559 0.36338 0.58153 0.0
C3527 C 0.55279 0.36601 0.5975 0.0
C3528 C 0.56076 0.35957 0.61142 0.0
H3529 H 0.46243 0.35441 0.63757 0.0
H3530 H 0.48749 0.35335 0.62235 0.0
C3531 C 0.5741 0.34987 0.60937 0.0
C3532 C 0.53666 0.37286 0.59962 0.0
H3533 H 0.51565 0.39698 0.62606 0.0
C3534 C 0.52362 0.36484 0.59128 0.0
C3535 C 0.53371 0.38541 0.61149 0.0
C3536 C 0.54715 0.39556 0.61978 0.0
C3537 C 0.50776 0.3679 0.59563 0.0
C3538 C 0.5049 0.37897 0.60891 0.0
C3539 C 0.51785 0.38819 0.61612 0.0
C3540 C 0.48895 0.37969 0.61677 0.0
C3541 C 0.49426 0.35875 0.58636 0.0
C3542 C 0.48152 0.3949 0.61894 0.0
C3543 C 0.4672 0.39558 0.62781 0.0
C3544 C 0.46016 0.38106 0.6348 0.0
C3545 C 0.46749 0.36581 0.63231 0.0
C3546 C 0.48177 0.36516 0.62348 0.0
H3547 H 0.49771 0.35599 0.57332 0.0
H3548 H 0.49155 0.34669 0.59261 0.0
H3549 H 0.4832 0.36602 0.58614 0.0
H3550 H 0.48694 0.40628 0.61399 0.0
H3551 H 0.46186 0.40752 0.62953 0.0
H3552 H 0.09032 0.36332 0.31387 0.0
H3553 H 0.10118 0.35174 0.28829 0.0
H3554 H 0.05463 0.35414 0.26455 0.0
H3555 H 0.04356 0.36489 0.29053 0.0
H3556 H 0.07051 0.32744 0.25343 0.0
H3557 H 0.11064 0.38424 0.25177 0.0
H3558 H 0.11363 0.3715 0.26973 0.0
H3559 H 0.09491 0.3816 0.26683 0.0
C3560 C 0.0824 0.36118 0.30324 0.0
C3561 C 0.06623 0.36532 0.30393 0.0
C3562 C 0.0886 0.35457 0.28865 0.0
C3563 C 0.07885 0.35259 0.27434 0.0
C3564 C 0.06241 0.35567 0.2754 0.0
H3565 H 0.08348 0.36028 0.17225 0.0
H3566 H 0.07617 0.34936 0.19951 0.0
C3567 C 0.0561 0.36187 0.29018 0.0
C3568 C 0.08602 0.3491 0.25791 0.0
H3569 H 0.11233 0.36557 0.22961 0.0
C3570 C 0.07979 0.33566 0.24827 0.0
C3571 C 0.0981 0.35987 0.25116 0.0
C3572 C 0.10462 0.37519 0.26031 0.0
C3573 C 0.08502 0.333 0.23189 0.0
C3574 C 0.09676 0.34404 0.22507 0.0
C3575 C 0.1035 0.35696 0.23498 0.0
C3576 C 0.10051 0.34444 0.20708 0.0
C3577 C 0.0777 0.3187 0.22187 0.0
C3578 C 0.11655 0.34446 0.20191 0.0
C3579 C 0.1208 0.35079 0.18628 0.0
C3580 C 0.10906 0.35742 0.17576 0.0
C3581 C 0.09282 0.35547 0.18017 0.0
C3582 C 0.08859 0.34905 0.19573 0.0
H3583 H 0.0731 0.30855 0.23011 0.0
H3584 H 0.06743 0.32316 0.21443 0.0
H3585 H 0.08653 0.3136 0.21314 0.0
H3586 H 0.12594 0.34102 0.21053 0.0
H3587 H 0.13341 0.35203 0.18324 0.0
H3588 H 0.39419 0.37185 0.92613 0.0
H3589 H 0.39564 0.36169 0.95471 0.0
H3590 H 0.34407 0.36177 0.95794 0.0
H3591 H 0.34244 0.37199 0.92923 0.0
H3592 H 0.36197 0.3806 0.98326 0.0
H3593 H 0.38307 0.3163 0.97656 0.0
H3594 H 0.39402 0.33174 0.96463 0.0
H3595 H 0.37324 0.32707 0.95979 0.0
C3596 C 0.38311 0.36945 0.93278 0.0
C3597 C 0.3682 0.37283 0.92544 0.0
C3598 C 0.38397 0.36352 0.94908 0.0
C3599 C 0.36996 0.36088 0.95834 0.0
C3600 C 0.355 0.36365 0.9509 0.0
H3601 H 0.35955 0.3465 0.06557 0.0
H3602 H 0.35431 0.35086 0.03594 0.0
C3603 C 0.3541 0.36945 0.9345 0.0
C3604 C 0.37117 0.35696 0.97628 0.0
H3605 H 0.38514 0.32845 0.0037 0.0
C3606 C 0.36682 0.36912 0.98779 0.0
C3607 C 0.37768 0.34205 0.98203 0.0
C3608 C 0.38216 0.32845 0.97013 0.0
C3609 C 0.36933 0.36701 0.00496 0.0
C3610 C 0.376 0.35215 0.01074 0.0
C3611 C 0.38006 0.33984 -0.00078 0.0
C3612 C 0.37912 0.34926 0.02868 0.0
C3613 C 0.36543 0.381 0.01666 0.0
C3614 C 0.39477 0.34649 0.03436 0.0
C3615 C 0.3978 0.34381 0.05129 0.0
C3616 C 0.38523 0.34387 0.06284 0.0
C3617 C 0.36955 0.34657 0.05706 0.0
C3618 C 0.36652 0.34912 0.04012 0.0
H3619 H 0.36456 0.39302 0.00999 0.0
H3620 H 0.35367 0.37812 0.02255 0.0
H3621 H 0.37464 0.38253 0.02671 0.0
H3622 H 0.40465 0.34651 0.0257 0.0
H3623 H 0.41001 0.34174 0.05531 0.0
H3624 H 0.36256 0.65856 0.6576 0.0
H3625 H 0.37467 0.65491 0.68518 0.0
H3626 H 0.39999 0.61287 0.66679 0.0
H3627 H 0.38727 0.61597 0.63945 0.0
H3628 H 0.38571 0.60484 0.69398 0.0
H3629 H 0.41767 0.6654 0.70513 0.0
H3630 H 0.39685 0.668 0.70049 0.0
H3631 H 0.40963 0.65944 0.68491 0.0
C3632 C 0.37095 0.64874 0.65938 0.0
C3633 C 0.37396 0.63752 0.64641 0.0
C3634 C 0.37795 0.64673 0.67513 0.0
C3635 C 0.38844 0.63375 0.67804 0.0
C3636 C 0.39195 0.62298 0.66486 0.0
H3637 H 0.44206 0.62106 0.77082 0.0
H3638 H 0.43382 0.6277 0.74232 0.0
C3639 C 0.38469 0.62476 0.64924 0.0
C3640 C 0.39453 0.63037 0.69512 0.0
H3641 H 0.41309 0.64828 0.72923 0.0
C3642 C 0.39185 0.61432 0.7016 0.0
C3643 C 0.40271 0.64265 0.70504 0.0
C3644 C 0.40704 0.65977 0.69846 0.0
C3645 C 0.39689 0.61025 0.71775 0.0
C3646 C 0.40423 0.62278 0.72801 0.0
C3647 C 0.40722 0.63875 0.72145 0.0
C3648 C 0.40903 0.61946 0.74551 0.0
C3649 C 0.39455 0.59246 0.72347 0.0
C3650 C 0.39776 0.61299 0.75689 0.0
C3651 C 0.4025 0.6089 0.77307 0.0
C3652 C 0.41851 0.61163 0.77833 0.0
C3653 C 0.42963 0.61879 0.76714 0.0
C3654 C 0.42494 0.62261 0.75086 0.0
H3655 H 0.39371 0.58369 0.71272 0.0
H3656 H 0.40454 0.58876 0.73176 0.0
H3657 H 0.38316 0.59113 0.73045 0.0
H3658 H 0.38531 0.61093 0.75321 0.0
H3659 H 0.3936 0.60351 0.78134 0.0
H3660 H 0.08584 0.66315 0.575 0.0
H3661 H 0.09055 0.66406 0.54494 0.0
H3662 H 0.13147 0.63338 0.55137 0.0
H3663 H 0.12717 0.63285 0.58141 0.0
H3664 H 0.13845 0.65972 0.53215 0.0
H3665 H 0.08145 0.62872 0.50997 0.0
H3666 H 0.07891 0.64681 0.52271 0.0
H3667 H 0.08764 0.62872 0.5316 0.0
C3668 C 0.09575 0.65646 0.56998 0.0
C3669 C 0.10613 0.64791 0.58059 0.0
C3670 C 0.09838 0.65694 0.55278 0.0
C3671 C 0.11125 0.64862 0.54587 0.0
C3672 C 0.12147 0.6399 0.55643 0.0
H3673 H 0.13226 0.61499 0.44857 0.0
H3674 H 0.12193 0.62016 0.47629 0.0
C3675 C 0.11898 0.63958 0.57361 0.0
C3676 C 0.11458 0.6494 0.52776 0.0
H3677 H 0.0992 0.63896 0.48932 0.0
C3678 C 0.12985 0.65525 0.52276 0.0
C3679 C 0.10333 0.64353 0.51556 0.0
C3680 C 0.08696 0.63645 0.52019 0.0
C3681 C 0.13441 0.65488 0.50599 0.0
C3682 C 0.12318 0.64899 0.49377 0.0
C3683 C 0.10773 0.64361 0.4987 0.0
C3684 C 0.12782 0.6466 0.47614 0.0
C3685 C 0.15148 0.65999 0.50168 0.0
C3686 C 0.13408 0.65986 0.46656 0.0
C3687 C 0.14026 0.65691 0.45069 0.0
C3688 C 0.14 0.64068 0.44405 0.0
C3689 C 0.13275 0.62764 0.45329 0.0
C3690 C 0.12679 0.63057 0.46917 0.0
H3691 H 0.15946 0.6605 0.51288 0.0
H3692 H 0.15647 0.65123 0.49254 0.0
H3693 H 0.15171 0.67258 0.49605 0.0
H3694 H 0.1346 0.67241 0.47152 0.0
H3695 H 0.14556 0.66726 0.44383 0.0
H3696 H 0.06587 0.64189 0.23385 0.0
H3697 H 0.07431 0.65232 0.26149 0.0
H3698 H 0.11399 0.61946 0.26135 0.0
H3699 H 0.10579 0.60912 0.23387 0.0
H3700 H 0.07649 0.63435 0.29035 0.0
H3701 H 0.13575 0.66323 0.27568 0.0
H3702 H 0.12092 0.65798 0.25975 0.0
H3703 H 0.1339 0.64238 0.26772 0.0
C3704 C 0.07652 0.63707 0.23963 0.0
C3705 C 0.08524 0.62477 0.23161 0.0
C3706 C 0.08132 0.64304 0.2554 0.0
C3707 C 0.09495 0.63689 0.26333 0.0
C3708 C 0.1037 0.62471 0.25527 0.0
H3709 H 0.12314 0.61539 0.36052 0.0
H3710 H 0.10878 0.61878 0.33428 0.0
C3711 C 0.09894 0.61876 0.23956 0.0
C3712 C 0.09952 0.64213 0.28051 0.0
H3713 H 0.1321 0.65418 0.30424 0.0
C3714 C 0.08854 0.63903 0.29339 0.0
C3715 C 0.1151 0.64861 0.28446 0.0
C3716 C 0.12702 0.65342 0.27113 0.0
C3717 C 0.09316 0.64101 0.31019 0.0
C3718 C 0.10924 0.64587 0.31416 0.0
C3719 C 0.11982 0.65022 0.30124 0.0
C3720 C 0.11588 0.64478 0.33134 0.0
C3721 C 0.08086 0.63748 0.3235 0.0
C3722 C 0.12471 0.65826 0.33848 0.0
C3723 C 0.13317 0.6563 0.35346 0.0
C3724 C 0.13303 0.64077 0.36151 0.0
C3725 C 0.12353 0.62754 0.35472 0.0
C3726 C 0.11515 0.6295 0.33974 0.0
H3727 H 0.0686 0.64021 0.31895 0.0
H3728 H 0.08085 0.62408 0.32676 0.0
H3729 H 0.08351 0.64492 0.33497 0.0
H3730 H 0.12551 0.67014 0.33217 0.0
H3731 H 0.14033 0.66677 0.35835 0.0
H3732 H 0.1372 0.36974 0.09098 0.0
H3733 H 0.13415 0.36482 0.06106 0.0
H3734 H 0.08467 0.37834 0.06323 0.0
H3735 H 0.08761 0.38357 0.09318 0.0
H3736 H 0.1127 0.34467 0.04084 0.0
H3737 H 0.10545 0.4126 0.03114 0.0
H3738 H 0.11233 0.40433 0.05072 0.0
H3739 H 0.0915 0.40222 0.04492 0.0
C3740 C 0.12558 0.37144 0.08519 0.0
C3741 C 0.11273 0.37734 0.09445 0.0
C3742 C 0.12386 0.36858 0.06808 0.0
C3743 C 0.10929 0.37154 0.05994 0.0
C3744 C 0.09611 0.3763 0.06928 0.0
H3745 H 0.10371 0.38038 0.95037 0.0
H3746 H 0.09441 0.37799 0.97925 0.0
C3747 C 0.09781 0.37922 0.08641 0.0
C3748 C 0.10847 0.37091 0.04153 0.0
H3749 H 0.10768 0.39599 0.0073 0.0
C3750 C 0.11134 0.35582 0.03347 0.0
C3751 C 0.10662 0.38549 0.03198 0.0
C3752 C 0.1039 0.40213 0.04006 0.0
C3753 C 0.1131 0.35508 0.01612 0.0
C3754 C 0.11219 0.36984 0.0067 0.0
C3755 C 0.10835 0.38471 0.01462 0.0
C3756 C 0.11729 0.37059 0.98914 0.0
C3757 C 0.1164 0.3386 0.00805 0.0
C3758 C 0.13326 0.36755 0.98531 0.0
C3759 C 0.13863 0.36904 0.96899 0.0
C3760 C 0.12813 0.37365 0.95611 0.0
C3761 C 0.11209 0.37679 0.95999 0.0
C3762 C 0.10675 0.37538 0.97644 0.0
H3763 H 0.11174 0.32802 0.0157 0.0
H3764 H 0.11092 0.33764 0.99538 0.0
H3765 H 0.12956 0.33744 0.00688 0.0
H3766 H 0.14168 0.36424 0.99503 0.0
H3767 H 0.15105 0.36653 0.9665 0.0
H3768 H 0.40389 0.36459 0.84925 0.0
H3769 H 0.41202 0.35601 0.82143 0.0
H3770 H 0.36238 0.35124 0.80599 0.0
H3771 H 0.35409 0.35946 0.83382 0.0
H3772 H 0.38524 0.32951 0.78797 0.0
H3773 H 0.40231 0.39716 0.79122 0.0
H3774 H 0.41141 0.38421 0.8066 0.0
H3775 H 0.39014 0.38699 0.80688 0.0
C3776 C 0.39467 0.36105 0.84015 0.0
C3777 C 0.37837 0.36321 0.84356 0.0
C3778 C 0.39935 0.35608 0.82428 0.0
C3779 C 0.3878 0.35341 0.81162 0.0
C3780 C 0.37147 0.35333 0.81562 0.0
H3781 H 0.38607 0.38785 0.71239 0.0
H3782 H 0.37974 0.37719 0.74005 0.0
C3783 C 0.36676 0.35811 0.83155 0.0
C3784 C 0.3925 0.35483 0.79396 0.0
H3785 H 0.40539 0.38377 0.76563 0.0
C3786 C 0.38984 0.34127 0.78306 0.0
C3787 C 0.39821 0.37034 0.78762 0.0
C3788 C 0.40059 0.38557 0.7986 0.0
C3789 C 0.3927 0.34292 0.76586 0.0
C3790 C 0.39824 0.35847 0.75962 0.0
C3791 C 0.40115 0.37187 0.77057 0.0
C3792 C 0.40035 0.36173 0.74168 0.0
C3793 C 0.38933 0.32832 0.75435 0.0
C3794 C 0.41386 0.35624 0.73334 0.0
C3795 C 0.41755 0.36234 0.71746 0.0
C3796 C 0.40781 0.37408 0.7098 0.0
C3797 C 0.39382 0.37882 0.71788 0.0
C3798 C 0.39014 0.37271 0.73368 0.0
H3799 H 0.38392 0.31742 0.76099 0.0
H3800 H 0.38107 0.33192 0.74414 0.0
H3801 H 0.40068 0.32462 0.74855 0.0
H3802 H 0.422 0.34796 0.73946 0.0
H3803 H 0.4284 0.35843 0.71153 0.0
H3804 H 0.40131 0.63059 0.42304 0.0
H3805 H 0.41134 0.63806 0.45107 0.0
H3806 H 0.37267 0.6085 0.47262 0.0
H3807 H 0.36238 0.60141 0.44478 0.0
H3808 H 0.37341 0.64401 0.479 0.0
H3809 H 0.43169 0.61532 0.4935 0.0
H3810 H 0.42841 0.62438 0.47326 0.0
H3811 H 0.41742 0.60573 0.47894 0.0
C3812 C 0.39536 0.62514 0.43377 0.0
C3813 C 0.381 0.61553 0.43182 0.0
C3814 C 0.4011 0.62944 0.44976 0.0
C3815 C 0.39269 0.62388 0.46386 0.0
C3816 C 0.3793 0.61292 0.46185 0.0
H3817 H 0.38717 0.61592 0.56357 0.0
H3818 H 0.39793 0.6166 0.53566 0.0
C3819 C 0.37344 0.60886 0.44597 0.0
C3820 C 0.39574 0.63158 0.4804 0.0
H3821 H 0.4196 0.63015 0.51511 0.0
C3822 C 0.38364 0.64127 0.48687 0.0
C3823 C 0.40921 0.62811 0.49038 0.0
C3824 C 0.42248 0.61779 0.48379 0.0
C3825 C 0.38383 0.64631 0.50358 0.0
C3826 C 0.39689 0.64205 0.51401 0.0
C3827 C 0.40969 0.63351 0.5071 0.0
C3828 C 0.39562 0.64312 0.53242 0.0
C3829 C 0.36927 0.65475 0.51016 0.0
C3830 C 0.39198 0.65803 0.5405 0.0
C3831 C 0.38528 0.65764 0.55645 0.0
C3832 C 0.38257 0.64234 0.56461 0.0
C3833 C 0.38863 0.62788 0.55748 0.0
C3834 C 0.39497 0.62825 0.54149 0.0
H3835 H 0.35924 0.6547 0.50091 0.0
H3836 H 0.36482 0.6485 0.52163 0.0
H3837 H 0.37253 0.66791 0.51325 0.0
H3838 H 0.39298 0.66976 0.53394 0.0
H3839 H 0.38112 0.66907 0.56177 0.0
H3840 H 0.17358 0.16634 0.38861 0.0
H3841 H 0.19631 0.15863 0.37152 0.0
H3842 H 0.17762 0.10789 0.36956 0.0
H3843 H 0.15518 0.11541 0.38699 0.0
H3844 H 0.20711 0.1104 0.38314 0.0
H3845 H 0.20658 0.1456 0.32382 0.0
H3846 H 0.20448 0.15841 0.342 0.0
H3847 H 0.18906 0.14298 0.33675 0.0
C3848 C 0.17403 0.15368 0.38404 0.0
C3849 C 0.16273 0.14143 0.38928 0.0
C3850 C 0.18701 0.14929 0.37421 0.0
C3851 C 0.18867 0.13268 0.36925 0.0
C3852 C 0.1766 0.12078 0.37328 0.0
H3853 H 0.26658 0.08584 0.31784 0.0
H3854 H 0.24108 0.09844 0.3243 0.0
C3855 C 0.16379 0.12509 0.38325 0.0
C3856 C 0.20406 0.1271 0.36248 0.0
H3857 H 0.23124 0.13293 0.33123 0.0
C3858 C 0.21228 0.11524 0.3717 0.0
C3859 C 0.21081 0.13342 0.34757 0.0
C3860 C 0.20222 0.14569 0.33686 0.0
C3861 C 0.22713 0.10965 0.36656 0.0
C3862 C 0.23416 0.11636 0.35198 0.0
C3863 C 0.22587 0.12799 0.34253 0.0
C3864 C 0.25009 0.11112 0.34651 0.0
C3865 C 0.23514 0.0965 0.37676 0.0
C3866 C 0.26369 0.11459 0.35656 0.0
C3867 C 0.27821 0.10733 0.353 0.0
C3868 C 0.27941 0.09655 0.33925 0.0
C3869 C 0.26603 0.09399 0.32858 0.0
C3870 C 0.25146 0.10122 0.3322 0.0
H3871 H 0.22657 0.08996 0.38524 0.0
H3872 H 0.24057 0.08714 0.36855 0.0
H3873 H 0.24486 0.10247 0.38451 0.0
H3874 H 0.26288 0.12236 0.36756 0.0
H3875 H 0.28833 0.10972 0.36136 0.0
H3876 H 0.77616 0.38517 0.63041 0.0
H3877 H 0.74876 0.3746 0.62526 0.0
H3878 H 0.76583 0.34001 0.5889 0.0
H3879 H 0.79347 0.35046 0.59405 0.0
H3880 H 0.73205 0.37468 0.59428 0.0
H3881 H 0.73711 0.31094 0.62006 0.0
H3882 H 0.75165 0.32758 0.6247 0.0
H3883 H 0.75183 0.31717 0.60486 0.0
C3884 C 0.77416 0.37522 0.62139 0.0
C3885 C 0.78702 0.36864 0.61264 0.0
C3886 C 0.75847 0.36924 0.61845 0.0
C3887 C 0.7553 0.35649 0.60678 0.0
C3888 C 0.76808 0.34972 0.59812 0.0
H3889 H 0.65954 0.32946 0.56725 0.0
H3890 H 0.68772 0.33883 0.56994 0.0
C3891 C 0.78384 0.35573 0.60105 0.0
C3892 C 0.7385 0.35069 0.60348 0.0
H3893 H 0.71229 0.31739 0.60772 0.0
C3894 C 0.72772 0.36213 0.59713 0.0
C3895 C 0.73292 0.33437 0.60737 0.0
C3896 C 0.74391 0.32179 0.61475 0.0
C3897 C 0.71142 0.35771 0.59467 0.0
C3898 C 0.70585 0.34136 0.59848 0.0
C3899 C 0.71665 0.32989 0.60473 0.0
C3900 C 0.68871 0.3361 0.59676 0.0
C3901 C 0.70021 0.37068 0.58848 0.0
C3902 C 0.68 0.33135 0.61093 0.0
C3903 C 0.66393 0.32597 0.60946 0.0
C3904 C 0.65627 0.32512 0.59374 0.0
C3905 C 0.66503 0.33002 0.57955 0.0
C3906 C 0.68112 0.33542 0.58106 0.0
H3907 H 0.70569 0.38346 0.58951 0.0
H3908 H 0.69721 0.36822 0.57516 0.0
H3909 H 0.68884 0.37015 0.59558 0.0
H3910 H 0.68567 0.33178 0.62316 0.0
H3911 H 0.6576 0.32227 0.62066 0.0
H3912 H 0.34314 0.89568 0.38613 0.0
H3913 H 0.33971 0.92478 0.39317 0.0
H3914 H 0.391 0.93256 0.39774 0.0
H3915 H 0.39465 0.90346 0.39034 0.0
H3916 H 0.35014 0.95056 0.41708 0.0
H3917 H 0.37788 0.95683 0.35433 0.0
H3918 H 0.37136 0.93694 0.36263 0.0
H3919 H 0.38961 0.94706 0.37017 0.0
C3920 C 0.35372 0.90338 0.38916 0.0
C3921 C 0.36921 0.89736 0.38707 0.0
C3922 C 0.3517 0.92004 0.39328 0.0
C3923 C 0.36512 0.93087 0.3955 0.0
C3924 C 0.38051 0.9244 0.39576 0.0
H3925 H 0.36379 0.0351 0.36793 0.0
H3926 H 0.37293 0.00948 0.38028 0.0
C3927 C 0.38256 0.90773 0.39154 0.0
C3928 C 0.36303 0.94899 0.39404 0.0
H3929 H 0.36747 0.98055 0.36601 0.0
C3930 C 0.35414 0.95726 0.40607 0.0
C3931 C 0.36816 0.95761 0.37956 0.0
C3932 C 0.37718 0.9492 0.36584 0.0
C3933 C 0.35003 0.97391 0.40387 0.0
C3934 C 0.35464 0.98229 0.38908 0.0
C3935 C 0.364 0.97415 0.37738 0.0
C3936 C 0.34905 -0.00099 0.38463 0.0
C3937 C 0.34072 0.98229 0.41733 0.0
C3938 C 0.33257 0.00185 0.38325 0.0
C3939 C 0.32731 0.01662 0.37626 0.0
C3940 C 0.33844 0.0286 0.37016 0.0
C3941 C 0.35491 0.02601 0.37215 0.0
C3942 C 0.36016 0.0114 0.37937 0.0
H3943 H 0.34308 0.97672 0.42973 0.0
H3944 H 0.34376 0.99584 0.41797 0.0
H3945 H 0.32769 0.98056 0.41459 0.0
H3946 H 0.32374 0.99233 0.38679 0.0
H3947 H 0.31454 0.01827 0.37486 0.0
H3948 H 0.84374 0.68426 0.12524 0.0
H3949 H 0.81858 0.66848 0.12964 0.0
H3950 H 0.81735 0.65376 0.07786 0.0
H3951 H 0.84247 0.6697 0.07321 0.0
H3952 H 0.7876 0.66379 0.08991 0.0
H3953 H 0.81498 0.61749 0.13155 0.0
H3954 H 0.81868 0.6387 0.13803 0.0
H3955 H 0.82681 0.63156 0.11872 0.0
C3956 C 0.83814 0.67771 0.11474 0.0
C3957 C 0.84522 0.67815 0.09889 0.0
C3958 C 0.82378 0.66864 0.11732 0.0
C3959 C 0.81628 0.65973 0.10415 0.0
C3960 C 0.82303 0.66049 0.08821 0.0
H3961 H 0.74324 0.58111 0.11551 0.0
H3962 H 0.76721 0.59786 0.10833 0.0
C3963 C 0.83739 0.6696 0.08559 0.0
C3964 C 0.80146 0.6495 0.10708 0.0
H3965 H 0.78652 0.61668 0.12971 0.0
C3966 C 0.78734 0.65345 0.09855 0.0
C3967 C 0.80126 0.63588 0.1182 0.0
C3968 C 0.81627 0.63052 0.12704 0.0
C3969 C 0.77289 0.64432 0.10111 0.0
C3970 C 0.77258 0.63108 0.11268 0.0
C3971 C 0.78678 0.62694 0.12096 0.0
C3972 C 0.75769 0.6212 0.11633 0.0
C3973 C 0.75816 0.64877 0.09125 0.0
C3974 C 0.74442 0.62878 0.12327 0.0
C3975 C 0.73066 0.61925 0.12736 0.0
C3976 C 0.73001 0.60194 0.12471 0.0
C3977 C 0.74334 0.59441 0.11771 0.0
C3978 C 0.75705 0.60395 0.1136 0.0
H3979 H 0.76133 0.65609 0.07994 0.0
H3980 H 0.75106 0.63743 0.08737 0.0
H3981 H 0.75046 0.65645 0.09915 0.0
H3982 H 0.7448 0.64203 0.1258 0.0
H3983 H 0.72063 0.62542 0.1328 0.0
H3984 H 0.60076 0.60828 0.39049 0.0
H3985 H 0.60151 0.58015 0.40165 0.0
H3986 H 0.65324 0.5835 0.40205 0.0
H3987 H 0.65266 0.61162 0.39109 0.0
H3988 H 0.61525 0.5588 0.37995 0.0
H3989 H 0.64428 0.55321 0.44179 0.0
H3990 H 0.6353 0.57214 0.43487 0.0
H3991 H 0.65526 0.56736 0.42852 0.0
C3992 C 0.61231 0.60334 0.39361 0.0
C3993 C 0.62667 0.61205 0.38945 0.0
C3994 C 0.6127 0.58723 0.40005 0.0
C3995 C 0.62742 0.57968 0.40261 0.0
C3996 C 0.64173 0.58912 0.40039 0.0
H3997 H 0.67517 0.49185 0.38778 0.0
H3998 H 0.66525 0.51817 0.39799 0.0
C3999 C 0.64137 0.6052 0.39394 0.0
C4000 C 0.62801 0.56132 0.40335 0.0
H4001 H 0.64688 0.52976 0.42285 0.0
C4002 C 0.62177 0.55233 0.38957 0.0
C4003 C 0.63668 0.55299 0.41581 0.0
C4004 C 0.64313 0.56192 0.43116 0.0
C4005 C 0.62503 0.53554 0.38717 0.0
C4006 C 0.63434 0.52732 0.39926 0.0
C4007 C 0.63975 0.53606 0.4136 0.0
C4008 C 0.64014 0.51039 0.39613 0.0
C4009 C 0.61953 0.52725 0.37104 0.0
C4010 C 0.62937 0.49702 0.39239 0.0
C4011 C 0.63501 0.48212 0.38612 0.0
C4012 C 0.65153 0.4802 0.38399 0.0
C4013 C 0.66236 0.49303 0.3892 0.0
C4014 C 0.6567 0.50806 0.3951 0.0
H4015 H 0.61569 0.5364 0.3616 0.0
H4016 H 0.62924 0.51995 0.36559 0.0
H4017 H 0.60912 0.51864 0.37351 0.0
H4018 H 0.61656 0.49836 0.3936 0.0
H4019 H 0.62641 0.4723 0.3826 0.0
H4020 H 0.2155 0.90151 0.89607 0.0
H4021 H 0.23859 0.88382 0.89563 0.0
H4022 H 0.23072 0.87433 0.84313 0.0
H4023 H 0.20765 0.89234 0.84337 0.0
H4024 H 0.24039 0.8503 0.88667 0.0
H4025 H 0.27778 0.89147 0.84557 0.0
H4026 H 0.25984 0.8985 0.85533 0.0
H4027 H 0.25832 0.88448 0.83787 0.0
C4028 C 0.21863 0.89567 0.88441 0.0
C4029 C 0.20981 0.89844 0.86973 0.0
C4030 C 0.23181 0.88552 0.88419 0.0
C4031 C 0.23645 0.87792 0.86931 0.0
C4032 C 0.22748 0.88031 0.85468 0.0
H4033 H 0.3165 0.81344 0.89368 0.0
H4034 H 0.29341 0.82124 0.8766 0.0
C4035 C 0.21427 0.89054 0.85487 0.0
C4036 C 0.25094 0.86783 0.86942 0.0
H4037 H 0.29039 0.86932 0.85845 0.0
C4038 C 0.25127 0.85418 0.88023 0.0
C4039 C 0.26504 0.87296 0.86092 0.0
C4040 C 0.26538 0.8877 0.84932 0.0
C4041 C 0.26562 0.84634 0.88385 0.0
C4042 C 0.27996 0.8521 0.87611 0.0
C4043 C 0.27936 0.8649 0.86427 0.0
C4044 C 0.29586 0.84747 0.88266 0.0
C4045 C 0.26551 0.83293 0.89699 0.0
C4046 C 0.30554 0.85977 0.89066 0.0
C4047 C 0.31876 0.85541 0.90022 0.0
C4048 C 0.32255 0.83863 0.90203 0.0
C4049 C 0.31379 0.82646 0.89268 0.0
C4050 C 0.30053 0.83087 0.88301 0.0
H4051 H 0.25375 0.83154 0.90332 0.0
H4052 H 0.26808 0.82083 0.89109 0.0
H4053 H 0.27493 0.83572 0.90659 0.0
H4054 H 0.30224 0.87267 0.89047 0.0
H4055 H 0.32541 0.86515 0.90701 0.0
H4056 H 0.36119 0.95153 0.14913 0.0
H4057 H 0.37492 0.9775 0.14077 0.0
H4058 H 0.34173 0.98187 0.09953 0.0
H4059 H 0.32779 0.95594 0.10789 0.0
H4060 H 0.38949 0.98763 0.11044 0.0
H4061 H 0.33702 0.02513 0.12644 0.0
H4062 H 0.33867 0.0038 0.13292 0.0
H4063 H 0.33313 0.00846 0.11179 0.0
C4064 C 0.3569 0.9579 0.13817 0.0
C4065 C 0.34333 0.95176 0.12924 0.0
C4066 C 0.36477 0.97273 0.13341 0.0
C4067 C 0.35919 0.98167 0.11968 0.0
C4068 C 0.34604 0.97525 0.11033 0.0
H4069 H 0.41104 0.07156 0.08348 0.0
H4070 H 0.39716 0.04417 0.08412 0.0
C4071 C 0.33813 0.96043 0.1151 0.0
C4072 C 0.36671 -0.00191 0.11575 0.0
H4073 H 0.35984 0.03964 0.11616 0.0
C4074 C 0.38301 -0.00098 0.11153 0.0
C4075 C 0.35819 0.01288 0.11735 0.0
C4076 C 0.34082 0.01263 0.1225 0.0
C4077 C 0.39112 0.01442 0.10916 0.0
C4078 C 0.38262 0.02919 0.11087 0.0
C4079 C 0.36625 0.02824 0.11475 0.0
C4080 C 0.39075 0.04581 0.11013 0.0
C4081 C 0.40885 0.01481 0.10552 0.0
C4082 C 0.3914 0.05587 0.12444 0.0
C4083 C 0.39921 0.07149 0.12413 0.0
C4084 C 0.4065 0.0774 0.10945 0.0
C4085 C 0.40562 0.06736 0.09502 0.0
C4086 C 0.39777 0.05169 0.09536 0.0
H4087 H 0.41419 0.00253 0.10761 0.0
H4088 H 0.41074 0.01831 0.0923 0.0
H4089 H 0.41536 0.02425 0.11346 0.0
H4090 H 0.386 0.05153 0.13595 0.0
H4091 H 0.39959 0.07887 0.13547 0.0
H4092 H 0.1216 0.90592 0.63208 0.0
H4093 H 0.13607 0.93277 0.63511 0.0
H4094 H 0.11172 0.95085 0.59142 0.0
H4095 H 0.09775 0.92372 0.58786 0.0
H4096 H 0.14212 0.96279 0.59284 0.0
H4097 H 0.11351 0.97148 0.65419 0.0
H4098 H 0.12533 0.95334 0.65356 0.0
H4099 H 0.10778 0.95449 0.64039 0.0
C4100 C 0.11951 0.91555 0.62298 0.0
C4101 C 0.10841 0.91283 0.60985 0.0
C4102 C 0.1277 0.9309 0.62479 0.0
C4103 C 0.12458 0.94396 0.6138 0.0
C4104 C 0.1142 0.94098 0.60013 0.0
H4105 H 0.13792 0.0474 0.64074 0.0
H4106 H 0.12756 0.01978 0.63286 0.0
C4107 C 0.10623 0.92549 0.5981 0.0
C4108 C 0.1314 0.96094 0.61711 0.0
H4109 H 0.13362 0.99155 0.64668 0.0
C4110 C 0.14024 0.96913 0.60458 0.0
C4111 C 0.12864 0.9693 0.63233 0.0
C4112 C 0.11816 0.96178 0.64581 0.0
C4113 C 0.14653 0.98543 0.60692 0.0
C4114 C 0.14431 0.99351 0.62239 0.0
C4115 C 0.13542 0.9853 0.63487 0.0
C4116 C 0.15067 0.01064 0.62593 0.0
C4117 C 0.15507 0.99395 0.59261 0.0
C4118 C 0.16711 0.01478 0.6246 0.0
C4119 C 0.17303 0.03075 0.62885 0.0
C4120 C 0.16267 0.0427 0.63492 0.0
C4121 C 0.14625 0.03851 0.63626 0.0
C4122 C 0.14029 0.02268 0.63171 0.0
H4123 H 0.15146 0.98823 0.58043 0.0
H4124 H 0.15257 0.0074 0.59221 0.0
H4125 H 0.1682 0.99266 0.59418 0.0
H4126 H 0.17543 0.00558 0.62063 0.0
H4127 H 0.18579 0.03358 0.62783 0.0
loop_
_geom_bond_atom_site_label_1
_geom_bond_atom_site_label_2
_geom_bond_distance
_geom_bond_site_symmetry_2
_ccdc_geom_bond_type
Mg0 O1 2.028 . S
Mg0 O7 1.986 . S
Mg0 O9 2.114 . S
Mg0 O10 2.251 . S
Mg0 O13 2.010 . S
O1 Mg0 2.028 . S
O1 C4 1.250 . S
O2 Mg3 2.028 . S
O2 C4 1.248 . S
Mg3 O2 2.028 . S
Mg3 O8 2.032 . S
Mg3 O10 2.079 . S
C4 O1 1.250 . S
C4 O2 1.248 . S
C5 O6 1.264 . S
C5 O13 1.249 . S
O6 C5 1.264 . S
O7 Mg0 1.986 . S
O7 C11 1.246 . S
O8 Mg3 2.032 . S
O8 C11 1.259 . S
O9 Mg0 2.114 . S
O9 C12 1.252 . S
O10 Mg0 2.251 . S
O10 Mg3 2.079 . S
O10 C12 1.273 . S
C11 O7 1.246 . S
C11 O8 1.259 . S
C12 O9 1.252 . S
C12 O10 1.273 . S
O13 Mg0 2.010 . S
O13 C5 1.249 . S
Mg14 O15 2.028 . S
Mg14 O21 1.986 . S
Mg14 O23 2.114 . S
Mg14 O24 2.251 . S
Mg14 O27 2.010 . S
O15 Mg14 2.028 . S
O15 C18 1.250 . S
O16 Mg17 2.028 . S
O16 C18 1.248 . S
Mg17 O16 2.028 . S
Mg17 O22 2.032 . S
Mg17 O24 2.079 . S
C18 O15 1.250 . S
C18 O16 1.248 . S
C19 O20 1.264 . S
C19 O27 1.249 . S
O20 C19 1.264 . S
O21 Mg14 1.986 . S
O21 C25 1.246 . S
O22 Mg17 2.032 . S
O22 C25 1.259 . S
O23 Mg14 2.114 . S
O23 C26 1.252 . S
O24 Mg14 2.251 . S
O24 Mg17 2.079 . S
O24 C26 1.273 . S
C25 O21 1.246 . S
C25 O22 1.259 . S
C26 O23 1.252 . S
C26 O24 1.273 . S
O27 Mg14 2.010 . S
O27 C19 1.249 . S
Mg28 O29 2.028 . S
Mg28 O35 1.986 . S
Mg28 O37 2.114 . S
Mg28 O38 2.251 . S
Mg28 O41 2.010 . S
O29 Mg28 2.028 . S
O29 C32 1.250 . S
O30 Mg31 2.028 . S
O30 C32 1.248 . S
Mg31 O30 2.028 . S
Mg31 O36 2.032 . S
Mg31 O38 2.079 . S
C32 O29 1.250 . S
C32 O30 1.248 . S
C33 O34 1.264 . S
C33 O41 1.249 . S
O34 C33 1.264 . S
O35 Mg28 1.986 . S
O35 C39 1.246 . S
O36 Mg31 2.032 . S
O36 C39 1.259 . S
O37 Mg28 2.114 . S
O37 C40 1.252 . S
O38 Mg28 2.251 . S
O38 Mg31 2.079 . S
O38 C40 1.273 . S
C39 O35 1.246 . S
C39 O36 1.259 . S
C40 O37 1.252 . S
C40 O38 1.273 . S
O41 Mg28 2.010 . S
O41 C33 1.249 . S
Mg42 O43 2.028 . S
Mg42 O49 1.986 . S
Mg42 O51 2.114 . S
Mg42 O52 2.251 . S
Mg42 O55 2.010 . S
O43 Mg42 2.028 . S
O43 C46 1.250 . S
O44 Mg45 2.028 . S
O44 C46 1.248 . S
Mg45 O44 2.028 . S
Mg45 O50 2.032 . S
Mg45 O52 2.079 . S
C46 O43 1.250 . S
C46 O44 1.248 . S
C47 O48 1.264 . S
C47 O55 1.249 . S
O48 C47 1.264 . S
O49 Mg42 1.986 . S
O49 C53 1.246 . S
O50 Mg45 2.032 . S
O50 C53 1.259 . S
O51 Mg42 2.114 . S
O51 C54 1.252 . S
O52 Mg42 2.251 . S
O52 Mg45 2.079 . S
O52 C54 1.273 . S
C53 O49 1.246 . S
C53 O50 1.259 . S
C54 O51 1.252 . S
C54 O52 1.273 . S
O55 Mg42 2.010 . S
O55 C47 1.249 . S
Mg56 O57 2.028 . S
Mg56 O63 1.986 . S
Mg56 O65 2.114 . S
Mg56 O66 2.251 . S
Mg56 O69 2.010 . S
O57 Mg56 2.028 . S
O57 C60 1.250 . S
O58 Mg59 2.028 . S
O58 C60 1.248 . S
Mg59 O58 2.028 . S
Mg59 O64 2.032 . S
Mg59 O66 2.079 . S
C60 O57 1.250 . S
C60 O58 1.248 . S
C61 O62 1.264 . S
C61 O69 1.249 . S
O62 C61 1.264 . S
O63 Mg56 1.986 . S
O63 C67 1.246 . S
O64 Mg59 2.032 . S
O64 C67 1.259 . S
O65 Mg56 2.114 . S
O65 C68 1.252 . S
O66 Mg56 2.251 . S
O66 Mg59 2.079 . S
O66 C68 1.273 . S
C67 O63 1.246 . S
C67 O64 1.259 . S
C68 O65 1.252 . S
C68 O66 1.273 . S
O69 Mg56 2.010 . S
O69 C61 1.249 . S
Mg70 O71 2.028 . S
Mg70 O77 1.986 . S
Mg70 O79 2.114 . S
Mg70 O80 2.251 . S
Mg70 O83 2.010 . S
O71 Mg70 2.028 . S
O71 C74 1.250 . S
O72 Mg73 2.028 . S
O72 C74 1.248 . S
Mg73 O72 2.028 . S
Mg73 O78 2.032 . S
Mg73 O80 2.079 . S
C74 O71 1.250 . S
C74 O72 1.248 . S
C75 O76 1.264 . S
C75 O83 1.249 . S
O76 C75 1.264 . S
O77 Mg70 1.986 . S
O77 C81 1.246 . S
O78 Mg73 2.032 . S
O78 C81 1.259 . S
O79 Mg70 2.114 . S
O79 C82 1.252 . S
O80 Mg70 2.251 . S
O80 Mg73 2.079 . S
O80 C82 1.273 . S
C81 O77 1.246 . S
C81 O78 1.259 . S
C82 O79 1.252 . S
C82 O80 1.273 . S
O83 Mg70 2.010 . S
O83 C75 1.249 . S
Mg84 O85 2.028 . S
Mg84 O91 1.986 . S
Mg84 O93 2.114 . S
Mg84 O94 2.251 . S
Mg84 O97 2.010 . S
O85 Mg84 2.028 . S
O85 C88 1.250 . S
O86 Mg87 2.028 . S
O86 C88 1.248 . S
Mg87 O86 2.028 . S
Mg87 O92 2.032 . S
Mg87 O94 2.079 . S
C88 O85 1.250 . S
C88 O86 1.248 . S
C89 O90 1.264 . S
C89 O97 1.249 . S
O90 C89 1.264 . S
O91 Mg84 1.986 . S
O91 C95 1.246 . S
O92 Mg87 2.032 . S
O92 C95 1.259 . S
O93 Mg84 2.114 . S
O93 C96 1.252 . S
O94 Mg84 2.251 . S
O94 Mg87 2.079 . S
O94 C96 1.273 . S
C95 O91 1.246 . S
C95 O92 1.259 . S
C96 O93 1.252 . S
C96 O94 1.273 . S
O97 Mg84 2.010 . S
O97 C89 1.249 . S
Mg98 O99 2.028 . S
Mg98 O105 1.986 . S
Mg98 O107 2.114 . S
Mg98 O108 2.251 . S
Mg98 O111 2.010 . S
O99 Mg98 2.028 . S
O99 C102 1.250 . S
O100 Mg101 2.028 . S
O100 C102 1.248 . S
Mg101 O100 2.028 . S
Mg101 O106 2.032 . S
Mg101 O108 2.079 . S
C102 O99 1.250 . S
C102 O100 1.248 . S
C103 O104 1.264 . S
C103 O111 1.249 . S
O104 C103 1.264 . S
O105 Mg98 1.986 . S
O105 C109 1.246 . S
O106 Mg101 2.032 . S
O106 C109 1.259 . S
O107 Mg98 2.114 . S
O107 C110 1.252 . S
O108 Mg98 2.251 . S
O108 Mg101 2.079 . S
O108 C110 1.273 . S
C109 O105 1.246 . S
C109 O106 1.259 . S
C110 O107 1.252 . S
C110 O108 1.273 . S
O111 Mg98 2.010 . S
O111 C103 1.249 . S
Mg112 O113 2.028 . S
Mg112 O119 1.986 . S
Mg112 O121 2.114 . S
Mg112 O122 2.251 . S
Mg112 O125 2.010 . S
O113 Mg112 2.028 . S
O113 C116 1.250 . S
O114 Mg115 2.028 . S
O114 C116 1.248 . S
Mg115 O114 2.028 . S
Mg115 O120 2.032 . S
Mg115 O122 2.079 . S
C116 O113 1.250 . S
C116 O114 1.248 . S
C117 O118 1.264 . S
C117 O125 1.249 . S
O118 C117 1.264 . S
O119 Mg112 1.986 . S
O119 C123 1.246 . S
O120 Mg115 2.032 . S
O120 C123 1.259 . S
O121 Mg112 2.114 . S
O121 C124 1.252 . S
O122 Mg112 2.251 . S
O122 Mg115 2.079 . S
O122 C124 1.273 . S
C123 O119 1.246 . S
C123 O120 1.259 . S
C124 O121 1.252 . S
C124 O122 1.273 . S
O125 Mg112 2.010 . S
O125 C117 1.249 . S
Mg126 O127 2.028 . S
Mg126 O133 1.986 . S
Mg126 O135 2.114 . S
Mg126 O136 2.251 . S
Mg126 O139 2.010 . S
O127 Mg126 2.028 . S
O127 C130 1.250 . S
O128 Mg129 2.028 . S
O128 C130 1.248 . S
Mg129 O128 2.028 . S
Mg129 O134 2.032 . S
Mg129 O136 2.079 . S
C130 O127 1.250 . S
C130 O128 1.248 . S
C131 O132 1.264 . S
C131 O139 1.249 . S
O132 C131 1.264 . S
O133 Mg126 1.986 . S
O133 C137 1.246 . S
O134 Mg129 2.032 . S
O134 C137 1.259 . S
O135 Mg126 2.114 . S
O135 C138 1.252 . S
O136 Mg126 2.251 . S
O136 Mg129 2.079 . S
O136 C138 1.273 . S
C137 O133 1.246 . S
C137 O134 1.259 . S
C138 O135 1.252 . S
C138 O136 1.273 . S
O139 Mg126 2.010 . S
O139 C131 1.249 . S
Mg140 O141 2.028 . S
Mg140 O147 1.986 . S
Mg140 O149 2.114 . S
Mg140 O150 2.251 . S
Mg140 O153 2.010 . S
O141 Mg140 2.028 . S
O141 C144 1.250 . S
O142 Mg143 2.028 . S
O142 C144 1.248 . S
Mg143 O142 2.028 . S
Mg143 O148 2.032 . S
Mg143 O150 2.079 . S
C144 O141 1.250 . S
C144 O142 1.248 . S
C145 O146 1.264 . S
C145 O153 1.249 . S
O146 C145 1.264 . S
O147 Mg140 1.986 . S
O147 C151 1.246 . S
O148 Mg143 2.032 . S
O148 C151 1.259 . S
O149 Mg140 2.114 . S
O149 C152 1.252 . S
O150 Mg140 2.251 . S
O150 Mg143 2.079 . S
O150 C152 1.273 . S
C151 O147 1.246 . S
C151 O148 1.259 . S
C152 O149 1.252 . S
C152 O150 1.273 . S
O153 Mg140 2.010 . S
O153 C145 1.249 . S
Mg154 O155 2.028 . S
Mg154 O161 1.986 . S
Mg154 O163 2.114 . S
Mg154 O164 2.251 . S
Mg154 O167 2.010 . S
O155 Mg154 2.028 . S
O155 C158 1.250 . S
O156 Mg157 2.028 . S
O156 C158 1.248 . S
Mg157 O156 2.028 . S
Mg157 O162 2.032 . S
Mg157 O164 2.079 . S
C158 O155 1.250 . S
C158 O156 1.248 . S
C159 O160 1.264 . S
C159 O167 1.249 . S
O160 C159 1.264 . S
O161 Mg154 1.986 . S
O161 C165 1.246 . S
O162 Mg157 2.032 . S
O162 C165 1.259 . S
O163 Mg154 2.114 . S
O163 C166 1.252 . S
O164 Mg154 2.251 . S
O164 Mg157 2.079 . S
O164 C166 1.273 . S
C165 O161 1.246 . S
C165 O162 1.259 . S
C166 O163 1.252 . S
C166 O164 1.273 . S
O167 Mg154 2.010 . S
O167 C159 1.249 . S
Mg168 O169 2.028 . S
Mg168 O175 1.986 . S
Mg168 O177 2.114 . S
Mg168 O178 2.251 . S
Mg168 O181 2.010 . S
O169 Mg168 2.028 . S
O169 C172 1.250 . S
O170 Mg171 2.028 . S
O170 C172 1.248 . S
Mg171 O170 2.028 . S
Mg171 O176 2.032 . S
Mg171 O178 2.079 . S
C172 O169 1.250 . S
C172 O170 1.248 . S
C173 O174 1.264 . S
C173 O181 1.249 . S
O174 C173 1.264 . S
O175 Mg168 1.986 . S
O175 C179 1.246 . S
O176 Mg171 2.032 . S
O176 C179 1.259 . S
O177 Mg168 2.114 . S
O177 C180 1.252 . S
O178 Mg168 2.251 . S
O178 Mg171 2.079 . S
O178 C180 1.273 . S
C179 O175 1.246 . S
C179 O176 1.259 . S
C180 O177 1.252 . S
C180 O178 1.273 . S
O181 Mg168 2.010 . S
O181 C173 1.249 . S
Mg182 O183 2.028 . S
Mg182 O189 1.986 . S
Mg182 O191 2.114 . S
Mg182 O192 2.251 . S
Mg182 O195 2.010 . S
O183 Mg182 2.028 . S
O183 C186 1.250 . S
O184 Mg185 2.028 . S
O184 C186 1.248 . S
Mg185 O184 2.028 . S
Mg185 O190 2.032 . S
Mg185 O192 2.079 . S
C186 O183 1.250 . S
C186 O184 1.248 . S
C187 O188 1.264 . S
C187 O195 1.249 . S
O188 C187 1.264 . S
O189 Mg182 1.986 . S
O189 C193 1.246 . S
O190 Mg185 2.032 . S
O190 C193 1.259 . S
O191 Mg182 2.114 . S
O191 C194 1.252 . S
O192 Mg182 2.251 . S
O192 Mg185 2.079 . S
O192 C194 1.273 . S
C193 O189 1.246 . S
C193 O190 1.259 . S
C194 O191 1.252 . S
C194 O192 1.273 . S
O195 Mg182 2.010 . S
O195 C187 1.249 . S
Mg196 O197 2.028 . S
Mg196 O203 1.986 . S
Mg196 O205 2.114 . S
Mg196 O206 2.251 . S
Mg196 O209 2.010 . S
O197 Mg196 2.028 . S
O197 C200 1.250 . S
O198 Mg199 2.028 . S
O198 C200 1.248 . S
Mg199 O198 2.028 . S
Mg199 O204 2.032 . S
Mg199 O206 2.079 . S
C200 O197 1.250 . S
C200 O198 1.248 . S
C201 O202 1.264 . S
C201 O209 1.249 . S
O202 C201 1.264 . S
O203 Mg196 1.986 . S
O203 C207 1.246 . S
O204 Mg199 2.032 . S
O204 C207 1.259 . S
O205 Mg196 2.114 . S
O205 C208 1.252 . S
O206 Mg196 2.251 . S
O206 Mg199 2.079 . S
O206 C208 1.273 . S
C207 O203 1.246 . S
C207 O204 1.259 . S
C208 O205 1.252 . S
C208 O206 1.273 . S
O209 Mg196 2.010 . S
O209 C201 1.249 . S
Mg210 O211 2.028 . S
Mg210 O217 1.986 . S
Mg210 O219 2.114 . S
Mg210 O220 2.251 . S
Mg210 O223 2.010 . S
O211 Mg210 2.028 . S
O211 C214 1.250 . S
O212 Mg213 2.028 . S
O212 C214 1.248 . S
Mg213 O212 2.028 . S
Mg213 O218 2.032 . S
Mg213 O220 2.079 . S
C214 O211 1.250 . S
C214 O212 1.248 . S
C215 O216 1.264 . S
C215 O223 1.249 . S
O216 C215 1.264 . S
O217 Mg210 1.986 . S
O217 C221 1.246 . S
O218 Mg213 2.032 . S
O218 C221 1.259 . S
O219 Mg210 2.114 . S
O219 C222 1.252 . S
O220 Mg210 2.251 . S
O220 Mg213 2.079 . S
O220 C222 1.273 . S
C221 O217 1.246 . S
C221 O218 1.259 . S
C222 O219 1.252 . S
C222 O220 1.273 . S
O223 Mg210 2.010 . S
O223 C215 1.249 . S
Mg224 O225 2.028 . S
Mg224 O231 1.986 . S
Mg224 O233 2.114 . S
Mg224 O234 2.251 . S
Mg224 O237 2.010 . S
O225 Mg224 2.028 . S
O225 C228 1.250 . S
O226 Mg227 2.028 . S
O226 C228 1.248 . S
Mg227 O226 2.028 . S
Mg227 O232 2.032 . S
Mg227 O234 2.079 . S
C228 O225 1.250 . S
C228 O226 1.248 . S
C229 O230 1.264 . S
C229 O237 1.249 . S
O230 C229 1.264 . S
O231 Mg224 1.986 . S
O231 C235 1.246 . S
O232 Mg227 2.032 . S
O232 C235 1.259 . S
O233 Mg224 2.114 . S
O233 C236 1.252 . S
O234 Mg224 2.251 . S
O234 Mg227 2.079 . S
O234 C236 1.273 . S
C235 O231 1.246 . S
C235 O232 1.259 . S
C236 O233 1.252 . S
C236 O234 1.273 . S
O237 Mg224 2.010 . S
O237 C229 1.249 . S
Mg238 O239 2.028 . S
Mg238 O245 1.986 . S
Mg238 O247 2.114 . S
Mg238 O248 2.251 . S
Mg238 O251 2.010 . S
O239 Mg238 2.028 . S
O239 C242 1.250 . S
O240 Mg241 2.028 . S
O240 C242 1.248 . S
Mg241 O240 2.028 . S
Mg241 O246 2.032 . S
Mg241 O248 2.079 . S
C242 O239 1.250 . S
C242 O240 1.248 . S
C243 O244 1.264 . S
C243 O251 1.249 . S
O244 C243 1.264 . S
O245 Mg238 1.986 . S
O245 C249 1.246 . S
O246 Mg241 2.032 . S
O246 C249 1.259 . S
O247 Mg238 2.114 . S
O247 C250 1.252 . S
O248 Mg238 2.251 . S
O248 Mg241 2.079 . S
O248 C250 1.273 . S
C249 O245 1.246 . S
C249 O246 1.259 . S
C250 O247 1.252 . S
C250 O248 1.273 . S
O251 Mg238 2.010 . S
O251 C243 1.249 . S
Mg252 O253 2.028 . S
Mg252 O259 1.986 . S
Mg252 O261 2.114 . S
Mg252 O262 2.251 . S
Mg252 O265 2.010 . S
O253 Mg252 2.028 . S
O253 C256 1.250 . S
O254 Mg255 2.028 . S
O254 C256 1.248 . S
Mg255 O254 2.028 . S
Mg255 O260 2.032 . S
Mg255 O262 2.079 . S
C256 O253 1.250 . S
C256 O254 1.248 . S
C257 O258 1.264 . S
C257 O265 1.249 . S
O258 C257 1.264 . S
O259 Mg252 1.986 . S
O259 C263 1.246 . S
O260 Mg255 2.032 . S
O260 C263 1.259 . S
O261 Mg252 2.114 . S
O261 C264 1.252 . S
O262 Mg252 2.251 . S
O262 Mg255 2.079 . S
O262 C264 1.273 . S
C263 O259 1.246 . S
C263 O260 1.259 . S
C264 O261 1.252 . S
C264 O262 1.273 . S
O265 Mg252 2.010 . S
O265 C257 1.249 . S
Mg266 O267 2.028 . S
Mg266 O273 1.986 . S
Mg266 O275 2.114 . S
Mg266 O276 2.251 . S
Mg266 O279 2.010 . S
O267 Mg266 2.028 . S
O267 C270 1.250 . S
O268 Mg269 2.028 . S
O268 C270 1.248 . S
Mg269 O268 2.028 . S
Mg269 O274 2.032 . S
Mg269 O276 2.079 . S
C270 O267 1.250 . S
C270 O268 1.248 . S
C271 O272 1.264 . S
C271 O279 1.249 . S
O272 C271 1.264 . S
O273 Mg266 1.986 . S
O273 C277 1.246 . S
O274 Mg269 2.032 . S
O274 C277 1.259 . S
O275 Mg266 2.114 . S
O275 C278 1.252 . S
O276 Mg266 2.251 . S
O276 Mg269 2.079 . S
O276 C278 1.273 . S
C277 O273 1.246 . S
C277 O274 1.259 . S
C278 O275 1.252 . S
C278 O276 1.273 . S
O279 Mg266 2.010 . S
O279 C271 1.249 . S
Mg280 O281 2.028 . S
Mg280 O287 1.986 . S
Mg280 O289 2.114 . S
Mg280 O290 2.251 . S
Mg280 O293 2.010 . S
O281 Mg280 2.028 . S
O281 C284 1.250 . S
O282 Mg283 2.028 . S
O282 C284 1.248 . S
Mg283 O282 2.028 . S
Mg283 O288 2.032 . S
Mg283 O290 2.079 . S
C284 O281 1.250 . S
C284 O282 1.248 . S
C285 O286 1.264 . S
C285 O293 1.249 . S
O286 C285 1.264 . S
O287 Mg280 1.986 . S
O287 C291 1.246 . S
O288 Mg283 2.032 . S
O288 C291 1.259 . S
O289 Mg280 2.114 . S
O289 C292 1.252 . S
O290 Mg280 2.251 . S
O290 Mg283 2.079 . S
O290 C292 1.273 . S
C291 O287 1.246 . S
C291 O288 1.259 . S
C292 O289 1.252 . S
C292 O290 1.273 . S
O293 Mg280 2.010 . S
O293 C285 1.249 . S
Mg294 O295 2.028 . S
Mg294 O301 1.986 . S
Mg294 O303 2.114 . S
Mg294 O304 2.251 . S
Mg294 O307 2.010 . S
O295 Mg294 2.028 . S
O295 C298 1.250 . S
O296 Mg297 2.028 . S
O296 C298 1.248 . S
Mg297 O296 2.028 . S
Mg297 O302 2.032 . S
Mg297 O304 2.079 . S
C298 O295 1.250 . S
C298 O296 1.248 . S
C299 O300 1.264 . S
C299 O307 1.249 . S
O300 C299 1.264 . S
O301 Mg294 1.986 . S
O301 C305 1.246 . S
O302 Mg297 2.032 . S
O302 C305 1.259 . S
O303 Mg294 2.114 . S
O303 C306 1.252 . S
O304 Mg294 2.251 . S
O304 Mg297 2.079 . S
O304 C306 1.273 . S
C305 O301 1.246 . S
C305 O302 1.259 . S
C306 O303 1.252 . S
C306 O304 1.273 . S
O307 Mg294 2.010 . S
O307 C299 1.249 . S
Mg308 O309 2.028 . S
Mg308 O315 1.986 . S
Mg308 O317 2.114 . S
Mg308 O318 2.251 . S
Mg308 O321 2.010 . S
O309 Mg308 2.028 . S
O309 C312 1.250 . S
O310 Mg311 2.028 . S
O310 C312 1.248 . S
Mg311 O310 2.028 . S
Mg311 O316 2.032 . S
Mg311 O318 2.079 . S
C312 O309 1.250 . S
C312 O310 1.248 . S
C313 O314 1.264 . S
C313 O321 1.249 . S
O314 C313 1.264 . S
O315 Mg308 1.986 . S
O315 C319 1.246 . S
O316 Mg311 2.032 . S
O316 C319 1.259 . S
O317 Mg308 2.114 . S
O317 C320 1.252 . S
O318 Mg308 2.251 . S
O318 Mg311 2.079 . S
O318 C320 1.273 . S
C319 O315 1.246 . S
C319 O316 1.259 . S
C320 O317 1.252 . S
C320 O318 1.273 . S
O321 Mg308 2.010 . S
O321 C313 1.249 . S
Mg322 O323 2.028 . S
Mg322 O329 1.986 . S
Mg322 O331 2.114 . S
Mg322 O332 2.251 . S
Mg322 O335 2.010 . S
O323 Mg322 2.028 . S
O323 C326 1.250 . S
O324 Mg325 2.028 . S
O324 C326 1.248 . S
Mg325 O324 2.028 . S
Mg325 O330 2.032 . S
Mg325 O332 2.079 . S
C326 O323 1.250 . S
C326 O324 1.248 . S
C327 O328 1.264 . S
C327 O335 1.249 . S
O328 C327 1.264 . S
O329 Mg322 1.986 . S
O329 C333 1.246 . S
O330 Mg325 2.032 . S
O330 C333 1.259 . S
O331 Mg322 2.114 . S
O331 C334 1.252 . S
O332 Mg322 2.251 . S
O332 Mg325 2.079 . S
O332 C334 1.273 . S
C333 O329 1.246 . S
C333 O330 1.259 . S
C334 O331 1.252 . S
C334 O332 1.273 . S
O335 Mg322 2.010 . S
O335 C327 1.249 . S
Mg336 O337 2.028 . S
Mg336 O343 1.986 . S
Mg336 O345 2.114 . S
Mg336 O346 2.251 . S
Mg336 O349 2.010 . S
O337 Mg336 2.028 . S
O337 C340 1.250 . S
O338 Mg339 2.028 . S
O338 C340 1.248 . S
Mg339 O338 2.028 . S
Mg339 O344 2.032 . S
Mg339 O346 2.079 . S
C340 O337 1.250 . S
C340 O338 1.248 . S
C341 O342 1.264 . S
C341 O349 1.249 . S
O342 C341 1.264 . S
O343 Mg336 1.986 . S
O343 C347 1.246 . S
O344 Mg339 2.032 . S
O344 C347 1.259 . S
O345 Mg336 2.114 . S
O345 C348 1.252 . S
O346 Mg336 2.251 . S
O346 Mg339 2.079 . S
O346 C348 1.273 . S
C347 O343 1.246 . S
C347 O344 1.259 . S
C348 O345 1.252 . S
C348 O346 1.273 . S
O349 Mg336 2.010 . S
O349 C341 1.249 . S
Mg350 O351 2.028 . S
Mg350 O357 1.986 . S
Mg350 O359 2.114 . S
Mg350 O360 2.251 . S
Mg350 O363 2.010 . S
O351 Mg350 2.028 . S
O351 C354 1.250 . S
O352 Mg353 2.028 . S
O352 C354 1.248 . S
Mg353 O352 2.028 . S
Mg353 O358 2.032 . S
Mg353 O360 2.079 . S
C354 O351 1.250 . S
C354 O352 1.248 . S
C355 O356 1.264 . S
C355 O363 1.249 . S
O356 C355 1.264 . S
O357 Mg350 1.986 . S
O357 C361 1.246 . S
O358 Mg353 2.032 . S
O358 C361 1.259 . S
O359 Mg350 2.114 . S
O359 C362 1.252 . S
O360 Mg350 2.251 . S
O360 Mg353 2.079 . S
O360 C362 1.273 . S
C361 O357 1.246 . S
C361 O358 1.259 . S
C362 O359 1.252 . S
C362 O360 1.273 . S
O363 Mg350 2.010 . S
O363 C355 1.249 . S
Mg364 O365 2.028 . S
Mg364 O371 1.986 . S
Mg364 O373 2.114 . S
Mg364 O374 2.251 . S
Mg364 O377 2.010 . S
O365 Mg364 2.028 . S
O365 C368 1.250 . S
O366 Mg367 2.028 . S
O366 C368 1.248 . S
Mg367 O366 2.028 . S
Mg367 O372 2.032 . S
Mg367 O374 2.079 . S
C368 O365 1.250 . S
C368 O366 1.248 . S
C369 O370 1.264 . S
C369 O377 1.249 . S
O370 C369 1.264 . S
O371 Mg364 1.986 . S
O371 C375 1.246 . S
O372 Mg367 2.032 . S
O372 C375 1.259 . S
O373 Mg364 2.114 . S
O373 C376 1.252 . S
O374 Mg364 2.251 . S
O374 Mg367 2.079 . S
O374 C376 1.273 . S
C375 O371 1.246 . S
C375 O372 1.259 . S
C376 O373 1.252 . S
C376 O374 1.273 . S
O377 Mg364 2.010 . S
O377 C369 1.249 . S
Mg378 O379 2.028 . S
Mg378 O385 1.986 . S
Mg378 O387 2.114 . S
Mg378 O388 2.251 . S
Mg378 O391 2.010 . S
O379 Mg378 2.028 . S
O379 C382 1.250 . S
O380 Mg381 2.028 . S
O380 C382 1.248 . S
Mg381 O380 2.028 . S
Mg381 O386 2.032 . S
Mg381 O388 2.079 . S
C382 O379 1.250 . S
C382 O380 1.248 . S
C383 O384 1.264 . S
C383 O391 1.249 . S
O384 C383 1.264 . S
O385 Mg378 1.986 . S
O385 C389 1.246 . S
O386 Mg381 2.032 . S
O386 C389 1.259 . S
O387 Mg378 2.114 . S
O387 C390 1.252 . S
O388 Mg378 2.251 . S
O388 Mg381 2.079 . S
O388 C390 1.273 . S
C389 O385 1.246 . S
C389 O386 1.259 . S
C390 O387 1.252 . S
C390 O388 1.273 . S
O391 Mg378 2.010 . S
O391 C383 1.249 . S
Mg392 O393 2.028 . S
Mg392 O399 1.986 . S
Mg392 O401 2.114 . S
Mg392 O402 2.251 . S
Mg392 O405 2.010 . S
O393 Mg392 2.028 . S
O393 C396 1.250 . S
O394 Mg395 2.028 . S
O394 C396 1.248 . S
Mg395 O394 2.028 . S
Mg395 O400 2.032 . S
Mg395 O402 2.079 . S
C396 O393 1.250 . S
C396 O394 1.248 . S
C397 O398 1.264 . S
C397 O405 1.249 . S
O398 C397 1.264 . S
O399 Mg392 1.986 . S
O399 C403 1.246 . S
O400 Mg395 2.032 . S
O400 C403 1.259 . S
O401 Mg392 2.114 . S
O401 C404 1.252 . S
O402 Mg392 2.251 . S
O402 Mg395 2.079 . S
O402 C404 1.273 . S
C403 O399 1.246 . S
C403 O400 1.259 . S
C404 O401 1.252 . S
C404 O402 1.273 . S
O405 Mg392 2.010 . S
O405 C397 1.249 . S
Mg406 O407 2.028 . S
Mg406 O413 1.986 . S
Mg406 O415 2.114 . S
Mg406 O416 2.251 . S
Mg406 O419 2.010 . S
O407 Mg406 2.028 . S
O407 C410 1.250 . S
O408 Mg409 2.028 . S
O408 C410 1.248 . S
Mg409 O408 2.028 . S
Mg409 O414 2.032 . S
Mg409 O416 2.079 . S
C410 O407 1.250 . S
C410 O408 1.248 . S
C411 O412 1.264 . S
C411 O419 1.249 . S
O412 C411 1.264 . S
O413 Mg406 1.986 . S
O413 C417 1.246 . S
O414 Mg409 2.032 . S
O414 C417 1.259 . S
O415 Mg406 2.114 . S
O415 C418 1.252 . S
O416 Mg406 2.251 . S
O416 Mg409 2.079 . S
O416 C418 1.273 . S
C417 O413 1.246 . S
C417 O414 1.259 . S
C418 O415 1.252 . S
C418 O416 1.273 . S
O419 Mg406 2.010 . S
O419 C411 1.249 . S
Mg420 O421 2.028 . S
Mg420 O427 1.986 . S
Mg420 O429 2.114 . S
Mg420 O430 2.251 . S
Mg420 O433 2.010 . S
O421 Mg420 2.028 . S
O421 C424 1.250 . S
O422 Mg423 2.028 . S
O422 C424 1.248 . S
Mg423 O422 2.028 . S
Mg423 O428 2.032 . S
Mg423 O430 2.079 . S
C424 O421 1.250 . S
C424 O422 1.248 . S
C425 O426 1.264 . S
C425 O433 1.249 . S
O426 C425 1.264 . S
O427 Mg420 1.986 . S
O427 C431 1.246 . S
O428 Mg423 2.032 . S
O428 C431 1.259 . S
O429 Mg420 2.114 . S
O429 C432 1.252 . S
O430 Mg420 2.251 . S
O430 Mg423 2.079 . S
O430 C432 1.273 . S
C431 O427 1.246 . S
C431 O428 1.259 . S
C432 O429 1.252 . S
C432 O430 1.273 . S
O433 Mg420 2.010 . S
O433 C425 1.249 . S
Mg434 O435 2.028 . S
Mg434 O441 1.986 . S
Mg434 O443 2.114 . S
Mg434 O444 2.251 . S
Mg434 O447 2.010 . S
O435 Mg434 2.028 . S
O435 C438 1.250 . S
O436 Mg437 2.028 . S
O436 C438 1.248 . S
Mg437 O436 2.028 . S
Mg437 O442 2.032 . S
Mg437 O444 2.079 . S
C438 O435 1.250 . S
C438 O436 1.248 . S
C439 O440 1.264 . S
C439 O447 1.249 . S
O440 C439 1.264 . S
O441 Mg434 1.986 . S
O441 C445 1.246 . S
O442 Mg437 2.032 . S
O442 C445 1.259 . S
O443 Mg434 2.114 . S
O443 C446 1.252 . S
O444 Mg434 2.251 . S
O444 Mg437 2.079 . S
O444 C446 1.273 . S
C445 O441 1.246 . S
C445 O442 1.259 . S
C446 O443 1.252 . S
C446 O444 1.273 . S
O447 Mg434 2.010 . S
O447 C439 1.249 . S
Mg448 O449 2.028 . S
Mg448 O455 1.986 . S
Mg448 O457 2.114 . S
Mg448 O458 2.251 . S
Mg448 O461 2.010 . S
O449 Mg448 2.028 . S
O449 C452 1.250 . S
O450 Mg451 2.028 . S
O450 C452 1.248 . S
Mg451 O450 2.028 . S
Mg451 O456 2.032 . S
Mg451 O458 2.079 . S
C452 O449 1.250 . S
C452 O450 1.248 . S
C453 O454 1.264 . S
C453 O461 1.249 . S
O454 C453 1.264 . S
O455 Mg448 1.986 . S
O455 C459 1.246 . S
O456 Mg451 2.032 . S
O456 C459 1.259 . S
O457 Mg448 2.114 . S
O457 C460 1.252 . S
O458 Mg448 2.251 . S
O458 Mg451 2.079 . S
O458 C460 1.273 . S
C459 O455 1.246 . S
C459 O456 1.259 . S
C460 O457 1.252 . S
C460 O458 1.273 . S
O461 Mg448 2.010 . S
O461 C453 1.249 . S
Mg462 O463 2.028 . S
Mg462 O469 1.986 . S
Mg462 O471 2.114 . S
Mg462 O472 2.251 . S
Mg462 O475 2.010 . S
O463 Mg462 2.028 . S
O463 C466 1.250 . S
O464 Mg465 2.028 . S
O464 C466 1.248 . S
Mg465 O464 2.028 . S
Mg465 O470 2.032 . S
Mg465 O472 2.079 . S
C466 O463 1.250 . S
C466 O464 1.248 . S
C467 O468 1.264 . S
C467 O475 1.249 . S
O468 C467 1.264 . S
O469 Mg462 1.986 . S
O469 C473 1.246 . S
O470 Mg465 2.032 . S
O470 C473 1.259 . S
O471 Mg462 2.114 . S
O471 C474 1.252 . S
O472 Mg462 2.251 . S
O472 Mg465 2.079 . S
O472 C474 1.273 . S
C473 O469 1.246 . S
C473 O470 1.259 . S
C474 O471 1.252 . S
C474 O472 1.273 . S
O475 Mg462 2.010 . S
O475 C467 1.249 . S
Mg476 O477 2.028 . S
Mg476 O483 1.986 . S
Mg476 O485 2.114 . S
Mg476 O486 2.251 . S
Mg476 O489 2.010 . S
O477 Mg476 2.028 . S
O477 C480 1.250 . S
O478 Mg479 2.028 . S
O478 C480 1.248 . S
Mg479 O478 2.028 . S
Mg479 O484 2.032 . S
Mg479 O486 2.079 . S
C480 O477 1.250 . S
C480 O478 1.248 . S
C481 O482 1.264 . S
C481 O489 1.249 . S
O482 C481 1.264 . S
O483 Mg476 1.986 . S
O483 C487 1.246 . S
O484 Mg479 2.032 . S
O484 C487 1.259 . S
O485 Mg476 2.114 . S
O485 C488 1.252 . S
O486 Mg476 2.251 . S
O486 Mg479 2.079 . S
O486 C488 1.273 . S
C487 O483 1.246 . S
C487 O484 1.259 . S
C488 O485 1.252 . S
C488 O486 1.273 . S
O489 Mg476 2.010 . S
O489 C481 1.249 . S
Mg490 O491 2.028 . S
Mg490 O497 1.986 . S
Mg490 O499 2.114 . S
Mg490 O500 2.251 . S
Mg490 O503 2.010 . S
O491 Mg490 2.028 . S
O491 C494 1.250 . S
O492 Mg493 2.028 . S
O492 C494 1.248 . S
Mg493 O492 2.028 . S
Mg493 O498 2.032 . S
Mg493 O500 2.079 . S
C494 O491 1.250 . S
C494 O492 1.248 . S
C495 O496 1.264 . S
C495 O503 1.249 . S
O496 C495 1.264 . S
O497 Mg490 1.986 . S
O497 C501 1.246 . S
O498 Mg493 2.032 . S
O498 C501 1.259 . S
O499 Mg490 2.114 . S
O499 C502 1.252 . S
O500 Mg490 2.251 . S
O500 Mg493 2.079 . S
O500 C502 1.273 . S
C501 O497 1.246 . S
C501 O498 1.259 . S
C502 O499 1.252 . S
C502 O500 1.273 . S
O503 Mg490 2.010 . S
O503 C495 1.249 . S
Mg504 O505 2.028 . S
Mg504 O511 1.986 . S
Mg504 O513 2.114 . S
Mg504 O514 2.251 . S
Mg504 O517 2.010 . S
O505 Mg504 2.028 . S
O505 C508 1.250 . S
O506 Mg507 2.028 . S
O506 C508 1.248 . S
Mg507 O506 2.028 . S
Mg507 O512 2.032 . S
Mg507 O514 2.079 . S
C508 O505 1.250 . S
C508 O506 1.248 . S
C509 O510 1.264 . S
C509 O517 1.249 . S
O510 C509 1.264 . S
O511 Mg504 1.986 . S
O511 C515 1.246 . S
O512 Mg507 2.032 . S
O512 C515 1.259 . S
O513 Mg504 2.114 . S
O513 C516 1.252 . S
O514 Mg504 2.251 . S
O514 Mg507 2.079 . S
O514 C516 1.273 . S
C515 O511 1.246 . S
C515 O512 1.259 . S
C516 O513 1.252 . S
C516 O514 1.273 . S
O517 Mg504 2.010 . S
O517 C509 1.249 . S
Mg518 O519 2.028 . S
Mg518 O525 1.986 . S
Mg518 O527 2.114 . S
Mg518 O528 2.251 . S
Mg518 O531 2.010 . S
O519 Mg518 2.028 . S
O519 C522 1.250 . S
O520 Mg521 2.028 . S
O520 C522 1.248 . S
Mg521 O520 2.028 . S
Mg521 O526 2.032 . S
Mg521 O528 2.079 . S
C522 O519 1.250 . S
C522 O520 1.248 . S
C523 O524 1.264 . S
C523 O531 1.249 . S
O524 C523 1.264 . S
O525 Mg518 1.986 . S
O525 C529 1.246 . S
O526 Mg521 2.032 . S
O526 C529 1.259 . S
O527 Mg518 2.114 . S
O527 C530 1.252 . S
O528 Mg518 2.251 . S
O528 Mg521 2.079 . S
O528 C530 1.273 . S
C529 O525 1.246 . S
C529 O526 1.259 . S
C530 O527 1.252 . S
C530 O528 1.273 . S
O531 Mg518 2.010 . S
O531 C523 1.249 . S
Mg532 O533 2.028 . S
Mg532 O539 1.986 . S
Mg532 O541 2.114 . S
Mg532 O542 2.251 . S
Mg532 O545 2.010 . S
O533 Mg532 2.028 . S
O533 C536 1.250 . S
O534 Mg535 2.028 . S
O534 C536 1.248 . S
Mg535 O534 2.028 . S
Mg535 O540 2.032 . S
Mg535 O542 2.079 . S
C536 O533 1.250 . S
C536 O534 1.248 . S
C537 O538 1.264 . S
C537 O545 1.249 . S
O538 C537 1.264 . S
O539 Mg532 1.986 . S
O539 C543 1.246 . S
O540 Mg535 2.032 . S
O540 C543 1.259 . S
O541 Mg532 2.114 . S
O541 C544 1.252 . S
O542 Mg532 2.251 . S
O542 Mg535 2.079 . S
O542 C544 1.273 . S
C543 O539 1.246 . S
C543 O540 1.259 . S
C544 O541 1.252 . S
C544 O542 1.273 . S
O545 Mg532 2.010 . S
O545 C537 1.249 . S
Mg546 O547 2.028 . S
Mg546 O553 1.986 . S
Mg546 O555 2.114 . S
Mg546 O556 2.251 . S
Mg546 O559 2.010 . S
O547 Mg546 2.028 . S
O547 C550 1.250 . S
O548 Mg549 2.028 . S
O548 C550 1.248 . S
Mg549 O548 2.028 . S
Mg549 O554 2.032 . S
Mg549 O556 2.079 . S
C550 O547 1.250 . S
C550 O548 1.248 . S
C551 O552 1.264 . S
C551 O559 1.249 . S
O552 C551 1.264 . S
O553 Mg546 1.986 . S
O553 C557 1.246 . S
O554 Mg549 2.032 . S
O554 C557 1.259 . S
O555 Mg546 2.114 . S
O555 C558 1.252 . S
O556 Mg546 2.251 . S
O556 Mg549 2.079 . S
O556 C558 1.273 . S
C557 O553 1.246 . S
C557 O554 1.259 . S
C558 O555 1.252 . S
C558 O556 1.273 . S
O559 Mg546 2.010 . S
O559 C551 1.249 . S
Mg560 O561 2.028 . S
Mg560 O567 1.986 . S
Mg560 O569 2.114 . S
Mg560 O570 2.251 . S
Mg560 O573 2.010 . S
O561 Mg560 2.028 . S
O561 C564 1.250 . S
O562 Mg563 2.028 . S
O562 C564 1.248 . S
Mg563 O562 2.028 . S
Mg563 O568 2.032 . S
Mg563 O570 2.079 . S
C564 O561 1.250 . S
C564 O562 1.248 . S
C565 O566 1.264 . S
C565 O573 1.249 . S
O566 C565 1.264 . S
O567 Mg560 1.986 . S
O567 C571 1.246 . S
O568 Mg563 2.032 . S
O568 C571 1.259 . S
O569 Mg560 2.114 . S
O569 C572 1.252 . S
O570 Mg560 2.251 . S
O570 Mg563 2.079 . S
O570 C572 1.273 . S
C571 O567 1.246 . S
C571 O568 1.259 . S
C572 O569 1.252 . S
C572 O570 1.273 . S
O573 Mg560 2.010 . S
O573 C565 1.249 . S
Mg574 O575 2.028 . S
Mg574 O581 1.986 . S
Mg574 O583 2.114 . S
Mg574 O584 2.251 . S
Mg574 O587 2.010 . S
O575 Mg574 2.028 . S
O575 C578 1.250 . S
O576 Mg577 2.028 . S
O576 C578 1.248 . S
Mg577 O576 2.028 . S
Mg577 O582 2.032 . S
Mg577 O584 2.079 . S
C578 O575 1.250 . S
C578 O576 1.248 . S
C579 O580 1.264 . S
C579 O587 1.249 . S
O580 C579 1.264 . S
O581 Mg574 1.986 . S
O581 C585 1.246 . S
O582 Mg577 2.032 . S
O582 C585 1.259 . S
O583 Mg574 2.114 . S
O583 C586 1.252 . S
O584 Mg574 2.251 . S
O584 Mg577 2.079 . S
O584 C586 1.273 . S
C585 O581 1.246 . S
C585 O582 1.259 . S
C586 O583 1.252 . S
C586 O584 1.273 . S
O587 Mg574 2.010 . S
O587 C579 1.249 . S
Mg588 O589 2.028 . S
Mg588 O595 1.986 . S
Mg588 O597 2.114 . S
Mg588 O598 2.251 . S
Mg588 O601 2.010 . S
O589 Mg588 2.028 . S
O589 C592 1.250 . S
O590 Mg591 2.028 . S
O590 C592 1.248 . S
Mg591 O590 2.028 . S
Mg591 O596 2.032 . S
Mg591 O598 2.079 . S
C592 O589 1.250 . S
C592 O590 1.248 . S
C593 O594 1.264 . S
C593 O601 1.249 . S
O594 C593 1.264 . S
O595 Mg588 1.986 . S
O595 C599 1.246 . S
O596 Mg591 2.032 . S
O596 C599 1.259 . S
O597 Mg588 2.114 . S
O597 C600 1.252 . S
O598 Mg588 2.251 . S
O598 Mg591 2.079 . S
O598 C600 1.273 . S
C599 O595 1.246 . S
C599 O596 1.259 . S
C600 O597 1.252 . S
C600 O598 1.273 . S
O601 Mg588 2.010 . S
O601 C593 1.249 . S
Mg602 O603 2.028 . S
Mg602 O609 1.986 . S
Mg602 O611 2.114 . S
Mg602 O612 2.251 . S
Mg602 O615 2.010 . S
O603 Mg602 2.028 . S
O603 C606 1.250 . S
O604 Mg605 2.028 . S
O604 C606 1.248 . S
Mg605 O604 2.028 . S
Mg605 O610 2.032 . S
Mg605 O612 2.079 . S
C606 O603 1.250 . S
C606 O604 1.248 . S
C607 O608 1.264 . S
C607 O615 1.249 . S
O608 C607 1.264 . S
O609 Mg602 1.986 . S
O609 C613 1.246 . S
O610 Mg605 2.032 . S
O610 C613 1.259 . S
O611 Mg602 2.114 . S
O611 C614 1.252 . S
O612 Mg602 2.251 . S
O612 Mg605 2.079 . S
O612 C614 1.273 . S
C613 O609 1.246 . S
C613 O610 1.259 . S
C614 O611 1.252 . S
C614 O612 1.273 . S
O615 Mg602 2.010 . S
O615 C607 1.249 . S
Mg616 O617 2.028 . S
Mg616 O623 1.986 . S
Mg616 O625 2.114 . S
Mg616 O626 2.251 . S
Mg616 O629 2.010 . S
O617 Mg616 2.028 . S
O617 C620 1.250 . S
O618 Mg619 2.028 . S
O618 C620 1.248 . S
Mg619 O618 2.028 . S
Mg619 O624 2.032 . S
Mg619 O626 2.079 . S
C620 O617 1.250 . S
C620 O618 1.248 . S
C621 O622 1.264 . S
C621 O629 1.249 . S
O622 C621 1.264 . S
O623 Mg616 1.986 . S
O623 C627 1.246 . S
O624 Mg619 2.032 . S
O624 C627 1.259 . S
O625 Mg616 2.114 . S
O625 C628 1.252 . S
O626 Mg616 2.251 . S
O626 Mg619 2.079 . S
O626 C628 1.273 . S
C627 O623 1.246 . S
C627 O624 1.259 . S
C628 O625 1.252 . S
C628 O626 1.273 . S
O629 Mg616 2.010 . S
O629 C621 1.249 . S
Mg630 O631 2.028 . S
Mg630 O637 1.986 . S
Mg630 O639 2.114 . S
Mg630 O640 2.251 . S
Mg630 O643 2.010 . S
O631 Mg630 2.028 . S
O631 C634 1.250 . S
O632 Mg633 2.028 . S
O632 C634 1.248 . S
Mg633 O632 2.028 . S
Mg633 O638 2.032 . S
Mg633 O640 2.079 . S
C634 O631 1.250 . S
C634 O632 1.248 . S
C635 O636 1.264 . S
C635 O643 1.249 . S
O636 C635 1.264 . S
O637 Mg630 1.986 . S
O637 C641 1.246 . S
O638 Mg633 2.032 . S
O638 C641 1.259 . S
O639 Mg630 2.114 . S
O639 C642 1.252 . S
O640 Mg630 2.251 . S
O640 Mg633 2.079 . S
O640 C642 1.273 . S
C641 O637 1.246 . S
C641 O638 1.259 . S
C642 O639 1.252 . S
C642 O640 1.273 . S
O643 Mg630 2.010 . S
O643 C635 1.249 . S
Mg644 O645 2.028 . S
Mg644 O651 1.986 . S
Mg644 O653 2.114 . S
Mg644 O654 2.251 . S
Mg644 O657 2.010 . S
O645 Mg644 2.028 . S
O645 C648 1.250 . S
O646 Mg647 2.028 . S
O646 C648 1.248 . S
Mg647 O646 2.028 . S
Mg647 O652 2.032 . S
Mg647 O654 2.079 . S
C648 O645 1.250 . S
C648 O646 1.248 . S
C649 O650 1.264 . S
C649 O657 1.249 . S
O650 C649 1.264 . S
O651 Mg644 1.986 . S
O651 C655 1.246 . S
O652 Mg647 2.032 . S
O652 C655 1.259 . S
O653 Mg644 2.114 . S
O653 C656 1.252 . S
O654 Mg644 2.251 . S
O654 Mg647 2.079 . S
O654 C656 1.273 . S
C655 O651 1.246 . S
C655 O652 1.259 . S
C656 O653 1.252 . S
C656 O654 1.273 . S
O657 Mg644 2.010 . S
O657 C649 1.249 . S
Mg658 O659 2.028 . S
Mg658 O665 1.986 . S
Mg658 O667 2.114 . S
Mg658 O668 2.251 . S
Mg658 O671 2.010 . S
O659 Mg658 2.028 . S
O659 C662 1.250 . S
O660 Mg661 2.028 . S
O660 C662 1.248 . S
Mg661 O660 2.028 . S
Mg661 O666 2.032 . S
Mg661 O668 2.079 . S
C662 O659 1.250 . S
C662 O660 1.248 . S
C663 O664 1.264 . S
C663 O671 1.249 . S
O664 C663 1.264 . S
O665 Mg658 1.986 . S
O665 C669 1.246 . S
O666 Mg661 2.032 . S
O666 C669 1.259 . S
O667 Mg658 2.114 . S
O667 C670 1.252 . S
O668 Mg658 2.251 . S
O668 Mg661 2.079 . S
O668 C670 1.273 . S
C669 O665 1.246 . S
C669 O666 1.259 . S
C670 O667 1.252 . S
C670 O668 1.273 . S
O671 Mg658 2.010 . S
O671 C663 1.249 . S
H672 C680 0.929 . S
H673 C682 0.930 . S
H674 C684 0.930 . S
H675 C687 0.929 . S
H676 C690 0.930 . S
H677 C692 0.960 . S
H678 C692 0.960 . S
H679 C692 0.960 . S
C680 H672 0.929 . S
C680 C681 1.377 . S
C680 C682 1.384 . S
C681 C680 1.377 . S
C681 C687 1.390 . S
C682 H673 0.930 . S
C682 C680 1.384 . S
C682 C683 1.372 . S
C683 C682 1.372 . S
C683 C684 1.400 . S
C683 C688 1.490 . S
C684 H674 0.930 . S
C684 C683 1.400 . S
C684 C687 1.386 . S
H685 C701 0.930 . S
H686 C702 0.931 . S
C687 H675 0.929 . S
C687 C681 1.390 . S
C687 C684 1.386 . S
C688 C683 1.490 . S
C688 C690 1.395 . S
C688 C691 1.403 . S
H689 C695 0.930 . S
C690 H676 0.930 . S
C690 C688 1.395 . S
C690 C693 1.403 . S
C691 C688 1.403 . S
C691 C692 1.524 . S
C691 C695 1.400 . S
C692 H677 0.960 . S
C692 H678 0.960 . S
C692 H679 0.960 . S
C692 C691 1.524 . S
C693 C690 1.403 . S
C693 C694 1.392 . S
C693 C697 1.495 . S
C694 C693 1.392 . S
C694 C695 1.385 . S
C694 C696 1.478 . S
C695 H689 0.930 . S
C695 C691 1.400 . S
C695 C694 1.385 . S
C696 C694 1.478 . S
C696 C698 1.381 . S
C696 C702 1.383 . S
C697 C693 1.495 . S
C697 H703 0.959 . S
C697 H704 0.961 . S
C697 H705 0.960 . S
C698 C696 1.381 . S
C698 C699 1.394 . S
C698 H706 0.930 . S
C699 C698 1.394 . S
C699 C700 1.383 . S
C699 H707 0.929 . S
C700 C699 1.383 . S
C700 C701 1.377 . S
C701 H685 0.930 . S
C701 C700 1.377 . S
C701 C702 1.379 . S
C702 H686 0.931 . S
C702 C696 1.383 . S
C702 C701 1.379 . S
H703 C697 0.959 . S
H704 C697 0.961 . S
H705 C697 0.960 . S
H706 C698 0.930 . S
H707 C699 0.929 . S
H708 C716 0.929 . S
H709 C718 0.930 . S
H710 C720 0.930 . S
H711 C723 0.929 . S
H712 C726 0.930 1_455 S
H713 C728 0.960 . S
H714 C728 0.960 . S
H715 C728 0.960 . S
C716 H708 0.929 . S
C716 C717 1.377 . S
C716 C718 1.384 . S
C717 C716 1.377 . S
C717 C723 1.390 . S
C718 H709 0.930 . S
C718 C716 1.384 . S
C718 C719 1.372 . S
C719 C718 1.372 . S
C719 C720 1.400 . S
C719 C724 1.504 . S
C720 H710 0.930 . S
C720 C719 1.400 . S
C720 C723 1.386 . S
H721 C737 0.930 . S
H722 C738 0.931 . S
C723 H711 0.929 . S
C723 C717 1.390 . S
C723 C720 1.386 . S
C724 C719 1.504 . S
C724 C726 1.391 1_455 S
C724 C727 1.392 1_455 S
H725 C731 0.930 . S
C726 H712 0.930 1_655 S
C726 C724 1.391 1_655 S
C726 C729 1.403 . S
C727 C724 1.392 1_655 S
C727 C728 1.524 . S
C727 C731 1.400 . S
C728 H713 0.960 . S
C728 H714 0.960 . S
C728 H715 0.960 . S
C728 C727 1.524 . S
C729 C726 1.403 . S
C729 C730 1.392 . S
C729 C733 1.495 . S
C730 C729 1.392 . S
C730 C731 1.385 . S
C730 C732 1.478 . S
C731 H725 0.930 . S
C731 C727 1.400 . S
C731 C730 1.385 . S
C732 C730 1.478 . S
C732 C734 1.381 . S
C732 C738 1.383 . S
C733 C729 1.495 . S
C733 H739 0.959 . S
C733 H740 0.961 . S
C733 H741 0.960 . S
C734 C732 1.381 . S
C734 C735 1.394 . S
C734 H742 0.930 . S
C735 C734 1.394 . S
C735 C736 1.383 . S
C735 H743 0.929 . S
C736 C735 1.383 . S
C736 C737 1.377 . S
C737 H721 0.930 . S
C737 C736 1.377 . S
C737 C738 1.379 . S
C738 H722 0.931 . S
C738 C732 1.383 . S
C738 C737 1.379 . S
H739 C733 0.959 . S
H740 C733 0.961 . S
H741 C733 0.960 . S
H742 C734 0.930 . S
H743 C735 0.929 . S
H744 C752 0.929 . S
H745 C754 0.930 . S
H746 C756 0.930 . S
H747 C759 0.929 . S
H748 C762 0.930 . S
H749 C764 0.960 . S
H750 C764 0.960 . S
H751 C764 0.960 . S
C752 H744 0.929 . S
C752 C753 1.377 . S
C752 C754 1.384 . S
C753 C752 1.377 . S
C753 C759 1.390 . S
C754 H745 0.930 . S
C754 C752 1.384 . S
C754 C755 1.372 . S
C755 C754 1.372 . S
C755 C756 1.400 . S
C755 C760 1.490 . S
C756 H746 0.930 . S
C756 C755 1.400 . S
C756 C759 1.386 . S
H757 C773 0.930 . S
H758 C774 0.931 . S
C759 H747 0.929 . S
C759 C753 1.390 . S
C759 C756 1.386 . S
C760 C755 1.490 . S
C760 C762 1.395 . S
C760 C763 1.403 . S
H761 C767 0.930 . S
C762 H748 0.930 . S
C762 C760 1.395 . S
C762 C765 1.403 . S
C763 C760 1.403 . S
C763 C764 1.524 . S
C763 C767 1.400 . S
C764 H749 0.960 . S
C764 H750 0.960 . S
C764 H751 0.960 . S
C764 C763 1.524 . S
C765 C762 1.403 . S
C765 C766 1.392 . S
C765 C769 1.495 . S
C766 C765 1.392 . S
C766 C767 1.385 . S
C766 C768 1.478 . S
C767 H761 0.930 . S
C767 C763 1.400 . S
C767 C766 1.385 . S
C768 C766 1.478 . S
C768 C770 1.381 . S
C768 C774 1.383 . S
C769 C765 1.495 . S
C769 H775 0.959 . S
C769 H776 0.961 . S
C769 H777 0.960 . S
C770 C768 1.381 . S
C770 C771 1.394 . S
C770 H778 0.930 . S
C771 C770 1.394 . S
C771 C772 1.383 . S
C771 H779 0.929 . S
C772 C771 1.383 . S
C772 C773 1.377 . S
C773 H757 0.930 . S
C773 C772 1.377 . S
C773 C774 1.379 . S
C774 H758 0.931 . S
C774 C768 1.383 . S
C774 C773 1.379 . S
H775 C769 0.959 . S
H776 C769 0.961 . S
H777 C769 0.960 . S
H778 C770 0.930 . S
H779 C771 0.929 . S
H780 C788 0.929 . S
H781 C790 0.930 . S
H782 C792 0.930 . S
H783 C795 0.929 . S
H784 C798 0.930 . S
H785 C800 0.960 . S
H786 C800 0.960 . S
H787 C800 0.960 . S
C788 H780 0.929 . S
C788 C789 1.377 . S
C788 C790 1.384 . S
C789 C788 1.377 . S
C789 C795 1.390 . S
C790 H781 0.930 . S
C790 C788 1.384 . S
C790 C791 1.372 . S
C791 C790 1.372 . S
C791 C792 1.400 . S
C791 C796 1.490 . S
C792 H782 0.930 . S
C792 C791 1.400 . S
C792 C795 1.386 . S
H793 C809 0.930 . S
H794 C810 0.931 . S
C795 H783 0.929 . S
C795 C789 1.390 . S
C795 C792 1.386 . S
C796 C791 1.490 . S
C796 C798 1.395 . S
C796 C799 1.403 . S
H797 C803 0.930 . S
C798 H784 0.930 . S
C798 C796 1.395 . S
C798 C801 1.403 . S
C799 C796 1.403 . S
C799 C800 1.524 . S
C799 C803 1.400 . S
C800 H785 0.960 . S
C800 H786 0.960 . S
C800 H787 0.960 . S
C800 C799 1.524 . S
C801 C798 1.403 . S
C801 C802 1.392 . S
C801 C805 1.495 . S
C802 C801 1.392 . S
C802 C803 1.385 . S
C802 C804 1.478 . S
C803 H797 0.930 . S
C803 C799 1.400 . S
C803 C802 1.385 . S
C804 C802 1.478 . S
C804 C806 1.381 . S
C804 C810 1.383 . S
C805 C801 1.495 . S
C805 H811 0.959 . S
C805 H812 0.961 . S
C805 H813 0.960 . S
C806 C804 1.381 . S
C806 C807 1.394 . S
C806 H814 0.930 . S
C807 C806 1.394 . S
C807 C808 1.383 . S
C807 H815 0.929 . S
C808 C807 1.383 . S
C808 C809 1.377 . S
C809 H793 0.930 . S
C809 C808 1.377 . S
C809 C810 1.379 . S
C810 H794 0.931 . S
C810 C804 1.383 . S
C810 C809 1.379 . S
H811 C805 0.959 . S
H812 C805 0.961 . S
H813 C805 0.960 . S
H814 C806 0.930 . S
H815 C807 0.929 . S
H816 C824 0.929 . S
H817 C826 0.930 . S
H818 C828 0.930 . S
H819 C831 0.929 . S
H820 C834 0.930 . S
H821 C836 0.960 . S
H822 C836 0.960 . S
H823 C836 0.960 . S
C824 H816 0.929 . S
C824 C825 1.377 . S
C824 C826 1.384 . S
C825 C824 1.377 . S
C825 C831 1.390 . S
C826 H817 0.930 . S
C826 C824 1.384 . S
C826 C827 1.372 . S
C827 C826 1.372 . S
C827 C828 1.400 . S
C827 C832 1.490 . S
C828 H818 0.930 . S
C828 C827 1.400 . S
C828 C831 1.386 . S
H829 C845 0.930 . S
H830 C846 0.931 . S
C831 H819 0.929 . S
C831 C825 1.390 . S
C831 C828 1.386 . S
C832 C827 1.490 . S
C832 C834 1.395 . S
C832 C835 1.403 . S
H833 C839 0.930 . S
C834 H820 0.930 . S
C834 C832 1.395 . S
C834 C837 1.403 . S
C835 C832 1.403 . S
C835 C836 1.524 . S
C835 C839 1.400 . S
C836 H821 0.960 . S
C836 H822 0.960 . S
C836 H823 0.960 . S
C836 C835 1.524 . S
C837 C834 1.403 . S
C837 C838 1.392 . S
C837 C841 1.495 . S
C838 C837 1.392 . S
C838 C839 1.385 . S
C838 C840 1.478 . S
C839 H833 0.930 . S
C839 C835 1.400 . S
C839 C838 1.385 . S
C840 C838 1.478 . S
C840 C842 1.381 . S
C840 C846 1.383 . S
C841 C837 1.495 . S
C841 H847 0.959 . S
C841 H848 0.961 . S
C841 H849 0.960 . S
C842 C840 1.381 . S
C842 C843 1.394 . S
C842 H850 0.930 . S
C843 C842 1.394 . S
C843 C844 1.383 . S
C843 H851 0.929 . S
C844 C843 1.383 . S
C844 C845 1.377 . S
C845 H829 0.930 . S
C845 C844 1.377 . S
C845 C846 1.379 . S
C846 H830 0.931 . S
C846 C840 1.383 . S
C846 C845 1.379 . S
H847 C841 0.959 . S
H848 C841 0.961 . S
H849 C841 0.960 . S
H850 C842 0.930 . S
H851 C843 0.929 . S
H852 C860 0.929 . S
H853 C862 0.930 . S
H854 C864 0.930 . S
H855 C867 0.929 . S
H856 C870 0.930 . S
H857 C872 0.960 . S
H858 C872 0.960 . S
H859 C872 0.960 . S
C860 H852 0.929 . S
C860 C861 1.377 . S
C860 C862 1.384 . S
C861 C860 1.377 . S
C861 C867 1.390 . S
C862 H853 0.930 . S
C862 C860 1.384 . S
C862 C863 1.372 . S
C863 C862 1.372 . S
C863 C864 1.400 . S
C863 C868 1.490 . S
C864 H854 0.930 . S
C864 C863 1.400 . S
C864 C867 1.386 . S
H865 C881 0.930 . S
H866 C882 0.931 . S
C867 H855 0.929 . S
C867 C861 1.390 . S
C867 C864 1.386 . S
C868 C863 1.490 . S
C868 C870 1.395 . S
C868 C871 1.403 . S
H869 C875 0.930 . S
C870 H856 0.930 . S
C870 C868 1.395 . S
C870 C873 1.403 . S
C871 C868 1.403 . S
C871 C872 1.524 . S
C871 C875 1.400 . S
C872 H857 0.960 . S
C872 H858 0.960 . S
C872 H859 0.960 . S
C872 C871 1.524 . S
C873 C870 1.403 . S
C873 C874 1.392 . S
C873 C877 1.495 . S
C874 C873 1.392 . S
C874 C875 1.385 . S
C874 C876 1.478 . S
C875 H869 0.930 . S
C875 C871 1.400 . S
C875 C874 1.385 . S
C876 C874 1.478 . S
C876 C878 1.381 . S
C876 C882 1.383 . S
C877 C873 1.495 . S
C877 H883 0.959 . S
C877 H884 0.961 . S
C877 H885 0.960 . S
C878 C876 1.381 . S
C878 C879 1.394 . S
C878 H886 0.930 . S
C879 C878 1.394 . S
C879 C880 1.383 . S
C879 H887 0.929 . S
C880 C879 1.383 . S
C880 C881 1.377 . S
C881 H865 0.930 . S
C881 C880 1.377 . S
C881 C882 1.379 . S
C882 H866 0.931 . S
C882 C876 1.383 . S
C882 C881 1.379 . S
H883 C877 0.959 . S
H884 C877 0.961 . S
H885 C877 0.960 . S
H886 C878 0.930 . S
H887 C879 0.929 . S
H888 C896 0.929 . S
H889 C898 0.930 . S
H890 C900 0.930 . S
H891 C903 0.929 . S
H892 C906 0.930 . S
H893 C908 0.960 . S
H894 C908 0.960 . S
H895 C908 0.960 . S
C896 H888 0.929 . S
C896 C897 1.377 . S
C896 C898 1.384 . S
C897 C896 1.377 . S
C897 C903 1.390 . S
C898 H889 0.930 . S
C898 C896 1.384 . S
C898 C899 1.372 . S
C899 C898 1.372 . S
C899 C900 1.400 . S
C899 C904 1.490 . S
C900 H890 0.930 . S
C900 C899 1.400 . S
C900 C903 1.386 . S
H901 C917 0.930 . S
H902 C918 0.931 . S
C903 H891 0.929 . S
C903 C897 1.390 . S
C903 C900 1.386 . S
C904 C899 1.490 . S
C904 C906 1.395 . S
C904 C907 1.403 . S
H905 C911 0.930 . S
C906 H892 0.930 . S
C906 C904 1.395 . S
C906 C909 1.403 . S
C907 C904 1.403 . S
C907 C908 1.524 . S
C907 C911 1.400 . S
C908 H893 0.960 . S
C908 H894 0.960 . S
C908 H895 0.960 . S
C908 C907 1.524 . S
C909 C906 1.403 . S
C909 C910 1.392 . S
C909 C913 1.495 . S
C910 C909 1.392 . S
C910 C911 1.385 . S
C910 C912 1.478 . S
C911 H905 0.930 . S
C911 C907 1.400 . S
C911 C910 1.385 . S
C912 C910 1.478 . S
C912 C914 1.381 . S
C912 C918 1.383 . S
C913 C909 1.495 . S
C913 H919 0.959 . S
C913 H920 0.961 . S
C913 H921 0.960 . S
C914 C912 1.381 . S
C914 C915 1.394 . S
C914 H922 0.930 . S
C915 C914 1.394 . S
C915 C916 1.383 . S
C915 H923 0.929 . S
C916 C915 1.383 . S
C916 C917 1.377 . S
C917 H901 0.930 . S
C917 C916 1.377 . S
C917 C918 1.379 . S
C918 H902 0.931 . S
C918 C912 1.383 . S
C918 C917 1.379 . S
H919 C913 0.959 . S
H920 C913 0.961 . S
H921 C913 0.960 . S
H922 C914 0.930 . S
H923 C915 0.929 . S
H924 C932 0.929 . S
H925 C934 0.930 . S
H926 C936 0.930 . S
H927 C939 0.929 . S
H928 C942 0.930 . S
H929 C944 0.960 . S
H930 C944 0.960 . S
H931 C944 0.960 . S
C932 H924 0.929 . S
C932 C933 1.377 . S
C932 C934 1.384 . S
C933 C932 1.377 . S
C933 C939 1.390 . S
C934 H925 0.930 . S
C934 C932 1.384 . S
C934 C935 1.372 . S
C935 C934 1.372 . S
C935 C936 1.400 . S
C935 C940 1.490 1_455 S
C936 H926 0.930 . S
C936 C935 1.400 . S
C936 C939 1.386 . S
H937 C953 0.930 . S
H938 C954 0.931 . S
C939 H927 0.929 . S
C939 C933 1.390 . S
C939 C936 1.386 . S
C940 C935 1.490 1_655 S
C940 C942 1.395 . S
C940 C943 1.403 . S
H941 C947 0.930 . S
C942 H928 0.930 . S
C942 C940 1.395 . S
C942 C945 1.403 . S
C943 C940 1.403 . S
C943 C944 1.524 . S
C943 C947 1.400 . S
C944 H929 0.960 . S
C944 H930 0.960 . S
C944 H931 0.960 . S
C944 C943 1.524 . S
C945 C942 1.403 . S
C945 C946 1.392 . S
C945 C949 1.495 . S
C946 C945 1.392 . S
C946 C947 1.385 . S
C946 C948 1.478 . S
C947 H941 0.930 . S
C947 C943 1.400 . S
C947 C946 1.385 . S
C948 C946 1.478 . S
C948 C950 1.381 . S
C948 C954 1.383 . S
C949 C945 1.495 . S
C949 H955 0.959 . S
C949 H956 0.961 . S
C949 H957 0.960 . S
C950 C948 1.381 . S
C950 C951 1.394 . S
C950 H958 0.930 . S
C951 C950 1.394 . S
C951 C952 1.383 . S
C951 H959 0.929 . S
C952 C951 1.383 . S
C952 C953 1.377 . S
C953 H937 0.930 . S
C953 C952 1.377 . S
C953 C954 1.379 . S
C954 H938 0.931 . S
C954 C948 1.383 . S
C954 C953 1.379 . S
H955 C949 0.959 . S
H956 C949 0.961 . S
H957 C949 0.960 . S
H958 C950 0.930 . S
H959 C951 0.929 . S
H960 C968 0.929 . S
H961 C970 0.930 . S
H962 C972 0.930 . S
H963 C975 0.929 . S
H964 C978 0.930 . S
H965 C980 0.960 . S
H966 C980 0.960 . S
H967 C980 0.960 . S
C968 H960 0.929 . S
C968 C969 1.377 . S
C968 C970 1.384 . S
C969 C968 1.377 . S
C969 C975 1.390 . S
C970 H961 0.930 . S
C970 C968 1.384 . S
C970 C971 1.372 . S
C971 C970 1.372 . S
C971 C972 1.400 . S
C971 C976 1.490 . S
C972 H962 0.930 . S
C972 C971 1.400 . S
C972 C975 1.386 . S
H973 C989 0.930 . S
H974 C990 0.931 . S
C975 H963 0.929 . S
C975 C969 1.390 . S
C975 C972 1.386 . S
C976 C971 1.490 . S
C976 C978 1.395 . S
C976 C979 1.403 . S
H977 C983 0.930 . S
C978 H964 0.930 . S
C978 C976 1.395 . S
C978 C981 1.403 . S
C979 C976 1.403 . S
C979 C980 1.524 . S
C979 C983 1.400 . S
C980 H965 0.960 . S
C980 H966 0.960 . S
C980 H967 0.960 . S
C980 C979 1.524 . S
C981 C978 1.403 . S
C981 C982 1.392 . S
C981 C985 1.495 . S
C982 C981 1.392 . S
C982 C983 1.385 . S
C982 C984 1.478 . S
C983 H977 0.930 . S
C983 C979 1.400 . S
C983 C982 1.385 . S
C984 C982 1.478 . S
C984 C986 1.381 . S
C984 C990 1.383 . S
C985 C981 1.495 . S
C985 H991 0.959 . S
C985 H992 0.961 . S
C985 H993 0.960 . S
C986 C984 1.381 . S
C986 C987 1.394 . S
C986 H994 0.930 . S
C987 C986 1.394 . S
C987 C988 1.383 . S
C987 H995 0.929 . S
C988 C987 1.383 . S
C988 C989 1.377 . S
C989 H973 0.930 . S
C989 C988 1.377 . S
C989 C990 1.379 . S
C990 H974 0.931 . S
C990 C984 1.383 . S
C990 C989 1.379 . S
H991 C985 0.959 . S
H992 C985 0.961 . S
H993 C985 0.960 . S
H994 C986 0.930 . S
H995 C987 0.929 . S
H996 C1004 0.929 . S
H997 C1006 0.930 . S
H998 C1008 0.930 . S
H999 C1011 0.929 . S
H1000 C1014 0.930 . S
H1001 C1016 0.960 . S
H1002 C1016 0.960 . S
H1003 C1016 0.960 . S
C1004 H996 0.929 . S
C1004 C1005 1.377 . S
C1004 C1006 1.384 . S
C1005 C1004 1.377 . S
C1005 C1011 1.390 . S
C1006 H997 0.930 . S
C1006 C1004 1.384 . S
C1006 C1007 1.372 . S
C1007 C1006 1.372 . S
C1007 C1008 1.400 . S
C1007 C1012 1.490 . S
C1008 H998 0.930 . S
C1008 C1007 1.400 . S
C1008 C1011 1.386 . S
H1009 C1025 0.930 . S
H1010 C1026 0.931 . S
C1011 H999 0.929 . S
C1011 C1005 1.390 . S
C1011 C1008 1.386 . S
C1012 C1007 1.490 . S
C1012 C1014 1.395 . S
C1012 C1015 1.403 . S
H1013 C1019 0.930 . S
C1014 H1000 0.930 . S
C1014 C1012 1.395 . S
C1014 C1017 1.403 . S
C1015 C1012 1.403 . S
C1015 C1016 1.524 . S
C1015 C1019 1.400 . S
C1016 H1001 0.960 . S
C1016 H1002 0.960 . S
C1016 H1003 0.960 . S
C1016 C1015 1.524 . S
C1017 C1014 1.403 . S
C1017 C1018 1.392 . S
C1017 C1021 1.495 . S
C1018 C1017 1.392 . S
C1018 C1019 1.385 . S
C1018 C1020 1.478 . S
C1019 H1013 0.930 . S
C1019 C1015 1.400 . S
C1019 C1018 1.385 . S
C1020 C1018 1.478 . S
C1020 C1022 1.381 . S
C1020 C1026 1.383 . S
C1021 C1017 1.495 . S
C1021 H1027 0.959 . S
C1021 H1028 0.961 . S
C1021 H1029 0.960 . S
C1022 C1020 1.381 . S
C1022 C1023 1.394 . S
C1022 H1030 0.930 . S
C1023 C1022 1.394 . S
C1023 C1024 1.383 . S
C1023 H1031 0.929 . S
C1024 C1023 1.383 . S
C1024 C1025 1.377 . S
C1025 H1009 0.930 . S
C1025 C1024 1.377 . S
C1025 C1026 1.379 . S
C1026 H1010 0.931 . S
C1026 C1020 1.383 . S
C1026 C1025 1.379 . S
H1027 C1021 0.959 . S
H1028 C1021 0.961 . S
H1029 C1021 0.960 . S
H1030 C1022 0.930 . S
H1031 C1023 0.929 . S
H1032 C1040 0.929 . S
H1033 C1042 0.930 . S
H1034 C1044 0.930 . S
H1035 C1047 0.929 . S
H1036 C1050 0.930 . S
H1037 C1052 0.960 . S
H1038 C1052 0.960 . S
H1039 C1052 0.960 . S
C1040 H1032 0.929 . S
C1040 C1041 1.377 . S
C1040 C1042 1.384 . S
C1041 C1040 1.377 . S
C1041 C1047 1.390 . S
C1042 H1033 0.930 . S
C1042 C1040 1.384 . S
C1042 C1043 1.372 . S
C1043 C1042 1.372 . S
C1043 C1044 1.400 . S
C1043 C1048 1.490 . S
C1044 H1034 0.930 . S
C1044 C1043 1.400 . S
C1044 C1047 1.386 . S
H1045 C1061 0.930 . S
H1046 C1062 0.931 . S
C1047 H1035 0.929 . S
C1047 C1041 1.390 . S
C1047 C1044 1.386 . S
C1048 C1043 1.490 . S
C1048 C1050 1.395 . S
C1048 C1051 1.403 . S
H1049 C1055 0.930 . S
C1050 H1036 0.930 . S
C1050 C1048 1.395 . S
C1050 C1053 1.403 . S
C1051 C1048 1.403 . S
C1051 C1052 1.524 . S
C1051 C1055 1.400 . S
C1052 H1037 0.960 . S
C1052 H1038 0.960 . S
C1052 H1039 0.960 . S
C1052 C1051 1.524 . S
C1053 C1050 1.403 . S
C1053 C1054 1.392 . S
C1053 C1057 1.495 . S
C1054 C1053 1.392 . S
C1054 C1055 1.385 . S
C1054 C1056 1.478 . S
C1055 H1049 0.930 . S
C1055 C1051 1.400 . S
C1055 C1054 1.385 . S
C1056 C1054 1.478 . S
C1056 C1058 1.381 . S
C1056 C1062 1.383 . S
C1057 C1053 1.495 . S
C1057 H1063 0.959 . S
C1057 H1064 0.961 . S
C1057 H1065 0.960 . S
C1058 C1056 1.381 . S
C1058 C1059 1.394 . S
C1058 H1066 0.930 . S
C1059 C1058 1.394 . S
C1059 C1060 1.383 . S
C1059 H1067 0.929 . S
C1060 C1059 1.383 . S
C1060 C1061 1.377 . S
C1061 H1045 0.930 . S
C1061 C1060 1.377 . S
C1061 C1062 1.379 . S
C1062 H1046 0.931 . S
C1062 C1056 1.383 . S
C1062 C1061 1.379 . S
H1063 C1057 0.959 . S
H1064 C1057 0.961 . S
H1065 C1057 0.960 . S
H1066 C1058 0.930 . S
H1067 C1059 0.929 . S
H1068 C1076 0.929 . S
H1069 C1078 0.930 . S
H1070 C1080 0.930 . S
H1071 C1083 0.929 . S
H1072 C1086 0.930 . S
H1073 C1088 0.960 . S
H1074 C1088 0.960 . S
H1075 C1088 0.960 . S
C1076 H1068 0.929 . S
C1076 C1077 1.377 . S
C1076 C1078 1.384 . S
C1077 C1076 1.377 . S
C1077 C1083 1.390 . S
C1078 H1069 0.930 . S
C1078 C1076 1.384 . S
C1078 C1079 1.372 . S
C1079 C1078 1.372 . S
C1079 C1080 1.400 . S
C1079 C1084 1.490 1_556 S
C1080 H1070 0.930 . S
C1080 C1079 1.400 . S
C1080 C1083 1.386 . S
H1081 C1097 0.930 . S
H1082 C1098 0.931 . S
C1083 H1071 0.929 . S
C1083 C1077 1.390 . S
C1083 C1080 1.386 . S
C1084 C1079 1.490 1_554 S
C1084 C1086 1.395 . S
C1084 C1087 1.403 . S
H1085 C1091 0.930 . S
C1086 H1072 0.930 . S
C1086 C1084 1.395 . S
C1086 C1089 1.403 . S
C1087 C1084 1.403 . S
C1087 C1088 1.524 . S
C1087 C1091 1.400 . S
C1088 H1073 0.960 . S
C1088 H1074 0.960 . S
C1088 H1075 0.960 . S
C1088 C1087 1.524 . S
C1089 C1086 1.403 . S
C1089 C1090 1.392 . S
C1089 C1093 1.495 . S
C1090 C1089 1.392 . S
C1090 C1091 1.385 . S
C1090 C1092 1.478 . S
C1091 H1085 0.930 . S
C1091 C1087 1.400 . S
C1091 C1090 1.385 . S
C1092 C1090 1.478 . S
C1092 C1094 1.381 . S
C1092 C1098 1.383 . S
C1093 C1089 1.495 . S
C1093 H1099 0.959 . S
C1093 H1100 0.961 . S
C1093 H1101 0.960 . S
C1094 C1092 1.381 . S
C1094 C1095 1.394 . S
C1094 H1102 0.930 . S
C1095 C1094 1.394 . S
C1095 C1096 1.383 . S
C1095 H1103 0.929 . S
C1096 C1095 1.383 . S
C1096 C1097 1.377 . S
C1097 H1081 0.930 . S
C1097 C1096 1.377 . S
C1097 C1098 1.379 . S
C1098 H1082 0.931 . S
C1098 C1092 1.383 . S
C1098 C1097 1.379 . S
H1099 C1093 0.959 . S
H1100 C1093 0.961 . S
H1101 C1093 0.960 . S
H1102 C1094 0.930 . S
H1103 C1095 0.929 . S
H1104 C1112 0.929 . S
H1105 C1114 0.930 . S
H1106 C1116 0.930 . S
H1107 C1119 0.929 . S
H1108 C1122 0.930 . S
H1109 C1124 0.960 . S
H1110 C1124 0.960 . S
H1111 C1124 0.960 . S
C1112 H1104 0.929 . S
C1112 C1113 1.377 . S
C1112 C1114 1.384 . S
C1113 C1112 1.377 . S
C1113 C1119 1.390 . S
C1114 H1105 0.930 . S
C1114 C1112 1.384 . S
C1114 C1115 1.372 . S
C1115 C1114 1.372 . S
C1115 C1116 1.400 . S
C1115 C1120 1.490 . S
C1116 H1106 0.930 . S
C1116 C1115 1.400 . S
C1116 C1119 1.386 . S
H1117 C1133 0.930 . S
H1118 C1134 0.931 . S
C1119 H1107 0.929 . S
C1119 C1113 1.390 . S
C1119 C1116 1.386 . S
C1120 C1115 1.490 . S
C1120 C1122 1.395 . S
C1120 C1123 1.403 . S
H1121 C1127 0.930 . S
C1122 H1108 0.930 . S
C1122 C1120 1.395 . S
C1122 C1125 1.403 . S
C1123 C1120 1.403 . S
C1123 C1124 1.524 . S
C1123 C1127 1.400 . S
C1124 H1109 0.960 . S
C1124 H1110 0.960 . S
C1124 H1111 0.960 . S
C1124 C1123 1.524 . S
C1125 C1122 1.403 . S
C1125 C1126 1.392 . S
C1125 C1129 1.495 . S
C1126 C1125 1.392 . S
C1126 C1127 1.385 . S
C1126 C1128 1.478 . S
C1127 H1121 0.930 . S
C1127 C1123 1.400 . S
C1127 C1126 1.385 . S
C1128 C1126 1.478 . S
C1128 C1130 1.381 . S
C1128 C1134 1.383 . S
C1129 C1125 1.495 . S
C1129 H1135 0.959 . S
C1129 H1136 0.961 . S
C1129 H1137 0.960 . S
C1130 C1128 1.381 . S
C1130 C1131 1.394 . S
C1130 H1138 0.930 . S
C1131 C1130 1.394 . S
C1131 C1132 1.383 . S
C1131 H1139 0.929 . S
C1132 C1131 1.383 . S
C1132 C1133 1.377 . S
C1133 H1117 0.930 . S
C1133 C1132 1.377 . S
C1133 C1134 1.379 . S
C1134 H1118 0.931 . S
C1134 C1128 1.383 . S
C1134 C1133 1.379 . S
H1135 C1129 0.959 . S
H1136 C1129 0.961 . S
H1137 C1129 0.960 . S
H1138 C1130 0.930 . S
H1139 C1131 0.929 . S
H1140 C1148 0.929 . S
H1141 C1150 0.930 . S
H1142 C1152 0.930 . S
H1143 C1155 0.929 . S
H1144 C1158 0.930 . S
H1145 C1160 0.960 . S
H1146 C1160 0.960 . S
H1147 C1160 0.960 . S
C1148 H1140 0.929 . S
C1148 C1149 1.377 . S
C1148 C1150 1.384 . S
C1149 C1148 1.377 . S
C1149 C1155 1.390 . S
C1150 H1141 0.930 . S
C1150 C1148 1.384 . S
C1150 C1151 1.372 . S
C1151 C1150 1.372 . S
C1151 C1152 1.400 . S
C1151 C1156 1.490 . S
C1152 H1142 0.930 . S
C1152 C1151 1.400 . S
C1152 C1155 1.386 . S
H1153 C1169 0.930 . S
H1154 C1170 0.931 . S
C1155 H1143 0.929 . S
C1155 C1149 1.390 . S
C1155 C1152 1.386 . S
C1156 C1151 1.490 . S
C1156 C1158 1.395 . S
C1156 C1159 1.403 . S
H1157 C1163 0.930 . S
C1158 H1144 0.930 . S
C1158 C1156 1.395 . S
C1158 C1161 1.403 . S
C1159 C1156 1.403 . S
C1159 C1160 1.524 . S
C1159 C1163 1.400 . S
C1160 H1145 0.960 . S
C1160 H1146 0.960 . S
C1160 H1147 0.960 . S
C1160 C1159 1.524 . S
C1161 C1158 1.403 . S
C1161 C1162 1.392 . S
C1161 C1165 1.495 . S
C1162 C1161 1.392 . S
C1162 C1163 1.385 . S
C1162 C1164 1.478 . S
C1163 H1157 0.930 . S
C1163 C1159 1.400 . S
C1163 C1162 1.385 . S
C1164 C1162 1.478 . S
C1164 C1166 1.381 . S
C1164 C1170 1.383 . S
C1165 C1161 1.495 . S
C1165 H1171 0.959 . S
C1165 H1172 0.961 . S
C1165 H1173 0.960 . S
C1166 C1164 1.381 . S
C1166 C1167 1.394 . S
C1166 H1174 0.930 . S
C1167 C1166 1.394 . S
C1167 C1168 1.383 . S
C1167 H1175 0.929 . S
C1168 C1167 1.383 . S
C1168 C1169 1.377 . S
C1169 H1153 0.930 . S
C1169 C1168 1.377 . S
C1169 C1170 1.379 . S
C1170 H1154 0.931 . S
C1170 C1164 1.383 . S
C1170 C1169 1.379 . S
H1171 C1165 0.959 . S
H1172 C1165 0.961 . S
H1173 C1165 0.960 . S
H1174 C1166 0.930 . S
H1175 C1167 0.929 . S
H1176 C1184 0.929 . S
H1177 C1186 0.930 . S
H1178 C1188 0.930 . S
H1179 C1191 0.929 . S
H1180 C1194 0.930 . S
H1181 C1196 0.960 . S
H1182 C1196 0.960 . S
H1183 C1196 0.960 . S
C1184 H1176 0.929 . S
C1184 C1185 1.377 . S
C1184 C1186 1.384 . S
C1185 C1184 1.377 . S
C1185 C1191 1.390 . S
C1186 H1177 0.930 . S
C1186 C1184 1.384 . S
C1186 C1187 1.372 . S
C1187 C1186 1.372 . S
C1187 C1188 1.400 . S
C1187 C1192 1.490 . S
C1188 H1178 0.930 . S
C1188 C1187 1.400 . S
C1188 C1191 1.386 . S
H1189 C1205 0.930 . S
H1190 C1206 0.931 . S
C1191 H1179 0.929 . S
C1191 C1185 1.390 . S
C1191 C1188 1.386 . S
C1192 C1187 1.490 . S
C1192 C1194 1.395 . S
C1192 C1195 1.403 . S
H1193 C1199 0.930 . S
C1194 H1180 0.930 . S
C1194 C1192 1.395 . S
C1194 C1197 1.403 . S
C1195 C1192 1.403 . S
C1195 C1196 1.524 . S
C1195 C1199 1.400 . S
C1196 H1181 0.960 . S
C1196 H1182 0.960 . S
C1196 H1183 0.960 . S
C1196 C1195 1.524 . S
C1197 C1194 1.403 . S
C1197 C1198 1.392 . S
C1197 C1201 1.495 . S
C1198 C1197 1.392 . S
C1198 C1199 1.385 . S
C1198 C1200 1.478 . S
C1199 H1193 0.930 . S
C1199 C1195 1.400 . S
C1199 C1198 1.385 . S
C1200 C1198 1.478 . S
C1200 C1202 1.381 . S
C1200 C1206 1.383 . S
C1201 C1197 1.495 . S
C1201 H1207 0.959 . S
C1201 H1208 0.961 . S
C1201 H1209 0.960 . S
C1202 C1200 1.381 . S
C1202 C1203 1.394 . S
C1202 H1210 0.930 . S
C1203 C1202 1.394 . S
C1203 C1204 1.383 . S
C1203 H1211 0.929 . S
C1204 C1203 1.383 . S
C1204 C1205 1.377 . S
C1205 H1189 0.930 . S
C1205 C1204 1.377 . S
C1205 C1206 1.379 . S
C1206 H1190 0.931 . S
C1206 C1200 1.383 . S
C1206 C1205 1.379 . S
H1207 C1201 0.959 . S
H1208 C1201 0.961 . S
H1209 C1201 0.960 . S
H1210 C1202 0.930 . S
H1211 C1203 0.929 . S
H1212 C1220 0.929 . S
H1213 C1222 0.930 . S
H1214 C1224 0.930 . S
H1215 C1227 0.929 . S
H1216 C1230 0.930 . S
H1217 C1232 0.960 . S
H1218 C1232 0.960 . S
H1219 C1232 0.960 . S
C1220 H1212 0.929 . S
C1220 C1221 1.377 . S
C1220 C1222 1.384 . S
C1221 C1220 1.377 . S
C1221 C1227 1.390 . S
C1222 H1213 0.930 . S
C1222 C1220 1.384 . S
C1222 C1223 1.372 . S
C1223 C1222 1.372 . S
C1223 C1224 1.400 . S
C1223 C1228 1.490 1_554 S
C1224 H1214 0.930 . S
C1224 C1223 1.400 . S
C1224 C1227 1.386 . S
H1225 C1241 0.930 . S
H1226 C1242 0.931 . S
C1227 H1215 0.929 . S
C1227 C1221 1.390 . S
C1227 C1224 1.386 . S
C1228 C1223 1.490 1_556 S
C1228 C1230 1.395 . S
C1228 C1231 1.403 . S
H1229 C1235 0.930 . S
C1230 H1216 0.930 . S
C1230 C1228 1.395 . S
C1230 C1233 1.403 . S
C1231 C1228 1.403 . S
C1231 C1232 1.524 . S
C1231 C1235 1.400 . S
C1232 H1217 0.960 . S
C1232 H1218 0.960 . S
C1232 H1219 0.960 . S
C1232 C1231 1.524 . S
C1233 C1230 1.403 . S
C1233 C1234 1.392 . S
C1233 C1237 1.495 . S
C1234 C1233 1.392 . S
C1234 C1235 1.385 . S
C1234 C1236 1.478 . S
C1235 H1229 0.930 . S
C1235 C1231 1.400 . S
C1235 C1234 1.385 . S
C1236 C1234 1.478 . S
C1236 C1238 1.381 . S
C1236 C1242 1.383 . S
C1237 C1233 1.495 . S
C1237 H1243 0.959 . S
C1237 H1244 0.961 . S
C1237 H1245 0.960 . S
C1238 C1236 1.381 . S
C1238 C1239 1.394 . S
C1238 H1246 0.930 . S
C1239 C1238 1.394 . S
C1239 C1240 1.383 . S
C1239 H1247 0.929 . S
C1240 C1239 1.383 . S
C1240 C1241 1.377 . S
C1241 H1225 0.930 . S
C1241 C1240 1.377 . S
C1241 C1242 1.379 . S
C1242 H1226 0.931 . S
C1242 C1236 1.383 . S
C1242 C1241 1.379 . S
H1243 C1237 0.959 . S
H1244 C1237 0.961 . S
H1245 C1237 0.960 . S
H1246 C1238 0.930 . S
H1247 C1239 0.929 . S
H1248 C1256 0.929 . S
H1249 C1258 0.930 . S
H1250 C1260 0.930 . S
H1251 C1263 0.929 . S
H1252 C1266 0.930 . S
H1253 C1268 0.960 . S
H1254 C1268 0.960 . S
H1255 C1268 0.960 . S
C1256 H1248 0.929 . S
C1256 C1257 1.377 . S
C1256 C1258 1.384 . S
C1257 C1256 1.377 . S
C1257 C1263 1.390 . S
C1258 H1249 0.930 . S
C1258 C1256 1.384 . S
C1258 C1259 1.372 . S
C1259 C1258 1.372 . S
C1259 C1260 1.400 . S
C1259 C1264 1.490 . S
C1260 H1250 0.930 . S
C1260 C1259 1.400 . S
C1260 C1263 1.386 . S
H1261 C1277 0.930 . S
H1262 C1278 0.931 . S
C1263 H1251 0.929 . S
C1263 C1257 1.390 . S
C1263 C1260 1.386 . S
C1264 C1259 1.490 . S
C1264 C1266 1.395 . S
C1264 C1267 1.403 . S
H1265 C1271 0.930 . S
C1266 H1252 0.930 . S
C1266 C1264 1.395 . S
C1266 C1269 1.403 . S
C1267 C1264 1.403 . S
C1267 C1268 1.524 . S
C1267 C1271 1.400 . S
C1268 H1253 0.960 . S
C1268 H1254 0.960 . S
C1268 H1255 0.960 . S
C1268 C1267 1.524 . S
C1269 C1266 1.403 . S
C1269 C1270 1.392 . S
C1269 C1273 1.495 . S
C1270 C1269 1.392 . S
C1270 C1271 1.385 . S
C1270 C1272 1.478 . S
C1271 H1265 0.930 . S
C1271 C1267 1.400 . S
C1271 C1270 1.385 . S
C1272 C1270 1.478 . S
C1272 C1274 1.381 . S
C1272 C1278 1.383 . S
C1273 C1269 1.495 . S
C1273 H1279 0.959 . S
C1273 H1280 0.961 . S
C1273 H1281 0.960 . S
C1274 C1272 1.381 . S
C1274 C1275 1.394 . S
C1274 H1282 0.930 . S
C1275 C1274 1.394 . S
C1275 C1276 1.383 . S
C1275 H1283 0.929 . S
C1276 C1275 1.383 . S
C1276 C1277 1.377 . S
C1277 H1261 0.930 . S
C1277 C1276 1.377 . S
C1277 C1278 1.379 . S
C1278 H1262 0.931 . S
C1278 C1272 1.383 . S
C1278 C1277 1.379 . S
H1279 C1273 0.959 . S
H1280 C1273 0.961 . S
H1281 C1273 0.960 . S
H1282 C1274 0.930 . S
H1283 C1275 0.929 . S
H1284 C1292 0.929 . S
H1285 C1294 0.930 . S
H1286 C1296 0.930 . S
H1287 C1299 0.929 . S
H1288 C1302 0.930 . S
H1289 C1304 0.960 . S
H1290 C1304 0.960 . S
H1291 C1304 0.960 . S
C1292 H1284 0.929 . S
C1292 C1293 1.377 . S
C1292 C1294 1.384 . S
C1293 C1292 1.377 . S
C1293 C1299 1.390 . S
C1294 H1285 0.930 . S
C1294 C1292 1.384 . S
C1294 C1295 1.372 . S
C1295 C1294 1.372 . S
C1295 C1296 1.400 . S
C1295 C1300 1.490 . S
C1296 H1286 0.930 . S
C1296 C1295 1.400 . S
C1296 C1299 1.386 . S
H1297 C1313 0.930 . S
H1298 C1314 0.931 . S
C1299 H1287 0.929 . S
C1299 C1293 1.390 . S
C1299 C1296 1.386 . S
C1300 C1295 1.490 . S
C1300 C1302 1.395 . S
C1300 C1303 1.403 . S
H1301 C1307 0.930 . S
C1302 H1288 0.930 . S
C1302 C1300 1.395 . S
C1302 C1305 1.403 . S
C1303 C1300 1.403 . S
C1303 C1304 1.524 . S
C1303 C1307 1.400 . S
C1304 H1289 0.960 . S
C1304 H1290 0.960 . S
C1304 H1291 0.960 . S
C1304 C1303 1.524 . S
C1305 C1302 1.403 . S
C1305 C1306 1.392 . S
C1305 C1309 1.495 . S
C1306 C1305 1.392 . S
C1306 C1307 1.385 . S
C1306 C1308 1.478 . S
C1307 H1301 0.930 . S
C1307 C1303 1.400 . S
C1307 C1306 1.385 . S
C1308 C1306 1.478 . S
C1308 C1310 1.381 . S
C1308 C1314 1.383 . S
C1309 C1305 1.495 . S
C1309 H1315 0.959 . S
C1309 H1316 0.961 . S
C1309 H1317 0.960 . S
C1310 C1308 1.381 . S
C1310 C1311 1.394 . S
C1310 H1318 0.930 . S
C1311 C1310 1.394 . S
C1311 C1312 1.383 . S
C1311 H1319 0.929 . S
C1312 C1311 1.383 . S
C1312 C1313 1.377 . S
C1313 H1297 0.930 . S
C1313 C1312 1.377 . S
C1313 C1314 1.379 . S
C1314 H1298 0.931 . S
C1314 C1308 1.383 . S
C1314 C1313 1.379 . S
H1315 C1309 0.959 . S
H1316 C1309 0.961 . S
H1317 C1309 0.960 . S
H1318 C1310 0.930 . S
H1319 C1311 0.929 . S
H1320 C1328 0.929 . S
H1321 C1330 0.930 . S
H1322 C1332 0.930 . S
H1323 C1335 0.929 . S
H1324 C1338 0.930 . S
H1325 C1340 0.960 . S
H1326 C1340 0.960 . S
H1327 C1340 0.960 . S
C1328 H1320 0.929 . S
C1328 C1329 1.377 . S
C1328 C1330 1.384 . S
C1329 C1328 1.377 . S
C1329 C1335 1.390 . S
C1330 H1321 0.930 . S
C1330 C1328 1.384 . S
C1330 C1331 1.372 . S
C1331 C1330 1.372 . S
C1331 C1332 1.400 . S
C1331 C1336 1.490 . S
C1332 H1322 0.930 . S
C1332 C1331 1.400 . S
C1332 C1335 1.386 . S
H1333 C1349 0.930 . S
H1334 C1350 0.931 . S
C1335 H1323 0.929 . S
C1335 C1329 1.390 . S
C1335 C1332 1.386 . S
C1336 C1331 1.490 . S
C1336 C1338 1.395 . S
C1336 C1339 1.403 . S
H1337 C1343 0.930 . S
C1338 H1324 0.930 . S
C1338 C1336 1.395 . S
C1338 C1341 1.403 . S
C1339 C1336 1.403 . S
C1339 C1340 1.524 . S
C1339 C1343 1.400 . S
C1340 H1325 0.960 . S
C1340 H1326 0.960 . S
C1340 H1327 0.960 . S
C1340 C1339 1.524 . S
C1341 C1338 1.403 . S
C1341 C1342 1.392 . S
C1341 C1345 1.495 . S
C1342 C1341 1.392 . S
C1342 C1343 1.385 . S
C1342 C1344 1.478 . S
C1343 H1337 0.930 . S
C1343 C1339 1.400 . S
C1343 C1342 1.385 . S
C1344 C1342 1.478 . S
C1344 C1346 1.381 . S
C1344 C1350 1.383 . S
C1345 C1341 1.495 . S
C1345 H1351 0.959 . S
C1345 H1352 0.961 . S
C1345 H1353 0.960 . S
C1346 C1344 1.381 . S
C1346 C1347 1.394 . S
C1346 H1354 0.930 . S
C1347 C1346 1.394 . S
C1347 C1348 1.383 . S
C1347 H1355 0.929 . S
C1348 C1347 1.383 . S
C1348 C1349 1.377 . S
C1349 H1333 0.930 . S
C1349 C1348 1.377 . S
C1349 C1350 1.379 . S
C1350 H1334 0.931 . S
C1350 C1344 1.383 . S
C1350 C1349 1.379 . S
H1351 C1345 0.959 . S
H1352 C1345 0.961 . S
H1353 C1345 0.960 . S
H1354 C1346 0.930 . S
H1355 C1347 0.929 . S
H1356 C1364 0.929 . S
H1357 C1366 0.930 . S
H1358 C1368 0.930 . S
H1359 C1371 0.929 . S
H1360 C1374 0.930 . S
H1361 C1376 0.960 . S
H1362 C1376 0.960 . S
H1363 C1376 0.960 . S
C1364 H1356 0.929 . S
C1364 C1365 1.377 . S
C1364 C1366 1.384 . S
C1365 C1364 1.377 . S
C1365 C1371 1.390 . S
C1366 H1357 0.930 . S
C1366 C1364 1.384 . S
C1366 C1367 1.372 . S
C1367 C1366 1.372 . S
C1367 C1368 1.400 . S
C1367 C1372 1.490 . S
C1368 H1358 0.930 . S
C1368 C1367 1.400 . S
C1368 C1371 1.386 . S
H1369 C1385 0.930 . S
H1370 C1386 0.931 . S
C1371 H1359 0.929 . S
C1371 C1365 1.390 . S
C1371 C1368 1.386 . S
C1372 C1367 1.490 . S
C1372 C1374 1.395 . S
C1372 C1375 1.403 . S
H1373 C1379 0.930 . S
C1374 H1360 0.930 . S
C1374 C1372 1.395 . S
C1374 C1377 1.403 . S
C1375 C1372 1.403 . S
C1375 C1376 1.524 . S
C1375 C1379 1.400 . S
C1376 H1361 0.960 . S
C1376 H1362 0.960 . S
C1376 H1363 0.960 . S
C1376 C1375 1.524 . S
C1377 C1374 1.403 . S
C1377 C1378 1.392 . S
C1377 C1381 1.495 . S
C1378 C1377 1.392 . S
C1378 C1379 1.385 . S
C1378 C1380 1.478 . S
C1379 H1373 0.930 . S
C1379 C1375 1.400 . S
C1379 C1378 1.385 . S
C1380 C1378 1.478 . S
C1380 C1382 1.381 . S
C1380 C1386 1.383 . S
C1381 C1377 1.495 . S
C1381 H1387 0.959 . S
C1381 H1388 0.961 . S
C1381 H1389 0.960 . S
C1382 C1380 1.381 . S
C1382 C1383 1.394 . S
C1382 H1390 0.930 . S
C1383 C1382 1.394 . S
C1383 C1384 1.383 . S
C1383 H1391 0.929 . S
C1384 C1383 1.383 . S
C1384 C1385 1.377 . S
C1385 H1369 0.930 . S
C1385 C1384 1.377 . S
C1385 C1386 1.379 . S
C1386 H1370 0.931 . S
C1386 C1380 1.383 . S
C1386 C1385 1.379 . S
H1387 C1381 0.959 . S
H1388 C1381 0.961 . S
H1389 C1381 0.960 . S
H1390 C1382 0.930 . S
H1391 C1383 0.929 . S
H1392 C1400 0.929 . S
H1393 C1402 0.930 . S
H1394 C1404 0.930 . S
H1395 C1407 0.929 . S
H1396 C1410 0.930 . S
H1397 C1412 0.960 . S
H1398 C1412 0.960 . S
H1399 C1412 0.960 . S
C1400 H1392 0.929 . S
C1400 C1401 1.377 . S
C1400 C1402 1.384 . S
C1401 C1400 1.377 . S
C1401 C1407 1.390 . S
C1402 H1393 0.930 . S
C1402 C1400 1.384 . S
C1402 C1403 1.372 . S
C1403 C1402 1.372 . S
C1403 C1404 1.400 . S
C1403 C1408 1.490 . S
C1404 H1394 0.930 . S
C1404 C1403 1.400 . S
C1404 C1407 1.386 . S
H1405 C1421 0.930 . S
H1406 C1422 0.931 . S
C1407 H1395 0.929 . S
C1407 C1401 1.390 . S
C1407 C1404 1.386 . S
C1408 C1403 1.490 . S
C1408 C1410 1.395 . S
C1408 C1411 1.403 . S
H1409 C1415 0.930 . S
C1410 H1396 0.930 . S
C1410 C1408 1.395 . S
C1410 C1413 1.403 . S
C1411 C1408 1.403 . S
C1411 C1412 1.524 . S
C1411 C1415 1.400 . S
C1412 H1397 0.960 . S
C1412 H1398 0.960 . S
C1412 H1399 0.960 . S
C1412 C1411 1.524 . S
C1413 C1410 1.403 . S
C1413 C1414 1.392 . S
C1413 C1417 1.495 . S
C1414 C1413 1.392 . S
C1414 C1415 1.385 . S
C1414 C1416 1.478 1_565 S
C1415 H1409 0.930 . S
C1415 C1411 1.400 . S
C1415 C1414 1.385 . S
C1416 C1414 1.478 1_545 S
C1416 C1418 1.381 . S
C1416 C1422 1.383 . S
C1417 C1413 1.495 . S
C1417 H1423 0.959 . S
C1417 H1424 0.961 . S
C1417 H1425 0.960 . S
C1418 C1416 1.381 . S
C1418 C1419 1.394 . S
C1418 H1426 0.930 . S
C1419 C1418 1.394 . S
C1419 C1420 1.383 . S
C1419 H1427 0.929 . S
C1420 C1419 1.383 . S
C1420 C1421 1.377 . S
C1421 H1405 0.930 . S
C1421 C1420 1.377 . S
C1421 C1422 1.379 . S
C1422 H1406 0.931 . S
C1422 C1416 1.383 . S
C1422 C1421 1.379 . S
H1423 C1417 0.959 . S
H1424 C1417 0.961 . S
H1425 C1417 0.960 . S
H1426 C1418 0.930 . S
H1427 C1419 0.929 . S
H1428 C1436 0.929 . S
H1429 C1438 0.930 . S
H1430 C1440 0.930 . S
H1431 C1443 0.929 . S
H1432 C1446 0.930 . S
H1433 C1448 0.960 . S
H1434 C1448 0.960 . S
H1435 C1448 0.960 . S
C1436 H1428 0.929 . S
C1436 C1437 1.377 . S
C1436 C1438 1.384 . S
C1437 C1436 1.377 . S
C1437 C1443 1.390 . S
C1438 H1429 0.930 . S
C1438 C1436 1.384 . S
C1438 C1439 1.372 . S
C1439 C1438 1.372 . S
C1439 C1440 1.400 . S
C1439 C1444 1.490 . S
C1440 H1430 0.930 . S
C1440 C1439 1.400 . S
C1440 C1443 1.386 . S
H1441 C1457 0.930 . S
H1442 C1458 0.931 . S
C1443 H1431 0.929 . S
C1443 C1437 1.390 . S
C1443 C1440 1.386 . S
C1444 C1439 1.490 . S
C1444 C1446 1.395 . S
C1444 C1447 1.403 . S
H1445 C1451 0.930 . S
C1446 H1432 0.930 . S
C1446 C1444 1.395 . S
C1446 C1449 1.403 . S
C1447 C1444 1.403 . S
C1447 C1448 1.524 . S
C1447 C1451 1.400 . S
C1448 H1433 0.960 . S
C1448 H1434 0.960 . S
C1448 H1435 0.960 . S
C1448 C1447 1.524 . S
C1449 C1446 1.403 . S
C1449 C1450 1.392 . S
C1449 C1453 1.495 . S
C1450 C1449 1.392 . S
C1450 C1451 1.385 . S
C1450 C1452 1.478 . S
C1451 H1445 0.930 . S
C1451 C1447 1.400 . S
C1451 C1450 1.385 . S
C1452 C1450 1.478 . S
C1452 C1454 1.381 . S
C1452 C1458 1.383 . S
C1453 C1449 1.495 . S
C1453 H1459 0.959 . S
C1453 H1460 0.961 . S
C1453 H1461 0.960 . S
C1454 C1452 1.381 . S
C1454 C1455 1.394 . S
C1454 H1462 0.930 . S
C1455 C1454 1.394 . S
C1455 C1456 1.383 . S
C1455 H1463 0.929 . S
C1456 C1455 1.383 . S
C1456 C1457 1.377 . S
C1457 H1441 0.930 . S
C1457 C1456 1.377 . S
C1457 C1458 1.379 . S
C1458 H1442 0.931 . S
C1458 C1452 1.383 . S
C1458 C1457 1.379 . S
H1459 C1453 0.959 . S
H1460 C1453 0.961 . S
H1461 C1453 0.960 . S
H1462 C1454 0.930 . S
H1463 C1455 0.929 . S
H1464 C1472 0.929 . S
H1465 C1474 0.930 . S
H1466 C1476 0.930 . S
H1467 C1479 0.929 . S
H1468 C1482 0.930 . S
H1469 C1484 0.960 . S
H1470 C1484 0.960 . S
H1471 C1484 0.960 . S
C1472 H1464 0.929 . S
C1472 C1473 1.377 . S
C1472 C1474 1.384 . S
C1473 C1472 1.377 . S
C1473 C1479 1.390 . S
C1474 H1465 0.930 . S
C1474 C1472 1.384 . S
C1474 C1475 1.372 . S
C1475 C1474 1.372 . S
C1475 C1476 1.400 . S
C1475 C1480 1.490 . S
C1476 H1466 0.930 . S
C1476 C1475 1.400 . S
C1476 C1479 1.386 . S
H1477 C1493 0.930 . S
H1478 C1494 0.931 . S
C1479 H1467 0.929 . S
C1479 C1473 1.390 . S
C1479 C1476 1.386 . S
C1480 C1475 1.490 . S
C1480 C1482 1.395 . S
C1480 C1483 1.403 . S
H1481 C1487 0.930 . S
C1482 H1468 0.930 . S
C1482 C1480 1.395 . S
C1482 C1485 1.403 . S
C1483 C1480 1.403 . S
C1483 C1484 1.524 . S
C1483 C1487 1.400 . S
C1484 H1469 0.960 . S
C1484 H1470 0.960 . S
C1484 H1471 0.960 . S
C1484 C1483 1.524 . S
C1485 C1482 1.403 . S
C1485 C1486 1.392 . S
C1485 C1489 1.495 . S
C1486 C1485 1.392 . S
C1486 C1487 1.385 . S
C1486 C1488 1.478 . S
C1487 H1481 0.930 . S
C1487 C1483 1.400 . S
C1487 C1486 1.385 . S
C1488 C1486 1.478 . S
C1488 C1490 1.381 . S
C1488 C1494 1.383 . S
C1489 C1485 1.495 . S
C1489 H1495 0.959 . S
C1489 H1496 0.961 . S
C1489 H1497 0.960 . S
C1490 C1488 1.381 . S
C1490 C1491 1.394 . S
C1490 H1498 0.930 . S
C1491 C1490 1.394 . S
C1491 C1492 1.383 . S
C1491 H1499 0.929 . S
C1492 C1491 1.383 . S
C1492 C1493 1.377 . S
C1493 H1477 0.930 . S
C1493 C1492 1.377 . S
C1493 C1494 1.379 . S
C1494 H1478 0.931 . S
C1494 C1488 1.383 . S
C1494 C1493 1.379 . S
H1495 C1489 0.959 . S
H1496 C1489 0.961 . S
H1497 C1489 0.960 . S
H1498 C1490 0.930 . S
H1499 C1491 0.929 . S
H1500 C1508 0.929 . S
H1501 C1510 0.930 . S
H1502 C1512 0.930 . S
H1503 C1515 0.929 . S
H1504 C1518 0.930 . S
H1505 C1520 0.960 . S
H1506 C1520 0.960 . S
H1507 C1520 0.960 . S
C1508 H1500 0.929 . S
C1508 C1509 1.377 . S
C1508 C1510 1.384 . S
C1509 C1508 1.377 . S
C1509 C1515 1.390 . S
C1510 H1501 0.930 . S
C1510 C1508 1.384 . S
C1510 C1511 1.372 . S
C1511 C1510 1.372 . S
C1511 C1512 1.400 . S
C1511 C1516 1.490 . S
C1512 H1502 0.930 . S
C1512 C1511 1.400 . S
C1512 C1515 1.386 . S
H1513 C1529 0.930 . S
H1514 C1530 0.931 . S
C1515 H1503 0.929 . S
C1515 C1509 1.390 . S
C1515 C1512 1.386 . S
C1516 C1511 1.490 . S
C1516 C1518 1.395 . S
C1516 C1519 1.403 . S
H1517 C1523 0.930 . S
C1518 H1504 0.930 . S
C1518 C1516 1.395 . S
C1518 C1521 1.403 . S
C1519 C1516 1.403 . S
C1519 C1520 1.524 . S
C1519 C1523 1.400 . S
C1520 H1505 0.960 . S
C1520 H1506 0.960 . S
C1520 H1507 0.960 . S
C1520 C1519 1.524 . S
C1521 C1518 1.403 . S
C1521 C1522 1.392 . S
C1521 C1525 1.495 . S
C1522 C1521 1.392 . S
C1522 C1523 1.385 . S
C1522 C1524 1.478 . S
C1523 H1517 0.930 . S
C1523 C1519 1.400 . S
C1523 C1522 1.385 . S
C1524 C1522 1.478 . S
C1524 C1526 1.381 . S
C1524 C1530 1.383 . S
C1525 C1521 1.495 . S
C1525 H1531 0.959 . S
C1525 H1532 0.961 . S
C1525 H1533 0.960 . S
C1526 C1524 1.381 . S
C1526 C1527 1.394 . S
C1526 H1534 0.930 . S
C1527 C1526 1.394 . S
C1527 C1528 1.383 . S
C1527 H1535 0.929 . S
C1528 C1527 1.383 . S
C1528 C1529 1.377 . S
C1529 H1513 0.930 . S
C1529 C1528 1.377 . S
C1529 C1530 1.379 . S
C1530 H1514 0.931 . S
C1530 C1524 1.383 . S
C1530 C1529 1.379 . S
H1531 C1525 0.959 . S
H1532 C1525 0.961 . S
H1533 C1525 0.960 . S
H1534 C1526 0.930 . S
H1535 C1527 0.929 . S
H1536 C1544 0.929 . S
H1537 C1546 0.930 . S
H1538 C1548 0.930 . S
H1539 C1551 0.929 . S
H1540 C1554 0.930 . S
H1541 C1556 0.960 . S
H1542 C1556 0.960 . S
H1543 C1556 0.960 . S
C1544 H1536 0.929 . S
C1544 C1545 1.377 . S
C1544 C1546 1.384 . S
C1545 C1544 1.377 . S
C1545 C1551 1.390 . S
C1546 H1537 0.930 . S
C1546 C1544 1.384 . S
C1546 C1547 1.372 . S
C1547 C1546 1.372 . S
C1547 C1548 1.400 . S
C1547 C1552 1.490 . S
C1548 H1538 0.930 . S
C1548 C1547 1.400 . S
C1548 C1551 1.386 . S
H1549 C1565 0.930 . S
H1550 C1566 0.931 . S
C1551 H1539 0.929 . S
C1551 C1545 1.390 . S
C1551 C1548 1.386 . S
C1552 C1547 1.490 . S
C1552 C1554 1.395 . S
C1552 C1555 1.403 . S
H1553 C1559 0.930 . S
C1554 H1540 0.930 . S
C1554 C1552 1.395 . S
C1554 C1557 1.403 . S
C1555 C1552 1.403 . S
C1555 C1556 1.524 . S
C1555 C1559 1.400 . S
C1556 H1541 0.960 . S
C1556 H1542 0.960 . S
C1556 H1543 0.960 . S
C1556 C1555 1.524 . S
C1557 C1554 1.403 . S
C1557 C1558 1.392 . S
C1557 C1561 1.495 . S
C1558 C1557 1.392 . S
C1558 C1559 1.385 . S
C1558 C1560 1.478 . S
C1559 H1553 0.930 . S
C1559 C1555 1.400 . S
C1559 C1558 1.385 . S
C1560 C1558 1.478 . S
C1560 C1562 1.381 . S
C1560 C1566 1.383 . S
C1561 C1557 1.495 . S
C1561 H1567 0.959 . S
C1561 H1568 0.961 . S
C1561 H1569 0.960 . S
C1562 C1560 1.381 . S
C1562 C1563 1.394 . S
C1562 H1570 0.930 . S
C1563 C1562 1.394 . S
C1563 C1564 1.383 . S
C1563 H1571 0.929 . S
C1564 C1563 1.383 . S
C1564 C1565 1.377 . S
C1565 H1549 0.930 . S
C1565 C1564 1.377 . S
C1565 C1566 1.379 . S
C1566 H1550 0.931 . S
C1566 C1560 1.383 . S
C1566 C1565 1.379 . S
H1567 C1561 0.959 . S
H1568 C1561 0.961 . S
H1569 C1561 0.960 . S
H1570 C1562 0.930 . S
H1571 C1563 0.929 . S
H1572 C1580 0.929 . S
H1573 C1582 0.926 . S
H1574 C1584 0.930 . S
H1575 C1587 0.929 . S
H1576 C1590 0.930 . S
H1577 C1592 0.960 . S
H1578 C1592 0.960 . S
H1579 C1592 0.960 . S
C1580 H1572 0.929 . S
C1580 C1581 1.377 . S
C1580 C1582 1.384 . S
C1581 C1580 1.377 . S
C1581 C1587 1.390 . S
C1582 H1573 0.926 . S
C1582 C1580 1.384 . S
C1582 C1583 1.372 . S
C1583 C1582 1.372 . S
C1583 C1584 1.400 . S
C1583 C1588 1.490 1_655 S
C1584 H1574 0.930 . S
C1584 C1583 1.400 . S
C1584 C1587 1.386 . S
H1585 C1601 0.930 . S
H1586 C1602 0.931 . S
C1587 H1575 0.929 . S
C1587 C1581 1.390 . S
C1587 C1584 1.386 . S
C1588 C1583 1.490 1_455 S
C1588 C1590 1.395 . S
C1588 C1591 1.403 . S
H1589 C1595 0.930 . S
C1590 H1576 0.930 . S
C1590 C1588 1.395 . S
C1590 C1593 1.403 . S
C1591 C1588 1.403 . S
C1591 C1592 1.524 . S
C1591 C1595 1.400 . S
C1592 H1577 0.960 . S
C1592 H1578 0.960 . S
C1592 H1579 0.960 . S
C1592 C1591 1.524 . S
C1593 C1590 1.403 . S
C1593 C1594 1.392 . S
C1593 C1597 1.495 . S
C1594 C1593 1.392 . S
C1594 C1595 1.385 . S
C1594 C1596 1.478 . S
C1595 H1589 0.930 . S
C1595 C1591 1.400 . S
C1595 C1594 1.385 . S
C1596 C1594 1.478 . S
C1596 C1598 1.381 . S
C1596 C1602 1.383 . S
C1597 C1593 1.495 . S
C1597 H1603 0.959 . S
C1597 H1604 0.961 . S
C1597 H1605 0.960 . S
C1598 C1596 1.381 . S
C1598 C1599 1.394 . S
C1598 H1606 0.930 . S
C1599 C1598 1.394 . S
C1599 C1600 1.383 . S
C1599 H1607 0.929 . S
C1600 C1599 1.383 . S
C1600 C1601 1.377 . S
C1601 H1585 0.930 . S
C1601 C1600 1.377 . S
C1601 C1602 1.379 . S
C1602 H1586 0.931 . S
C1602 C1596 1.383 . S
C1602 C1601 1.379 . S
H1603 C1597 0.959 . S
H1604 C1597 0.961 . S
H1605 C1597 0.960 . S
H1606 C1598 0.930 . S
H1607 C1599 0.929 . S
H1608 C1616 0.929 . S
H1609 C1618 0.930 . S
H1610 C1620 0.930 . S
H1611 C1623 0.929 . S
H1612 C1626 0.930 . S
H1613 C1628 0.960 . S
H1614 C1628 0.960 . S
H1615 C1628 0.960 . S
C1616 H1608 0.929 . S
C1616 C1617 1.377 . S
C1616 C1618 1.384 . S
C1617 C1616 1.377 . S
C1617 C1623 1.390 . S
C1618 H1609 0.930 . S
C1618 C1616 1.384 . S
C1618 C1619 1.372 . S
C1619 C1618 1.372 . S
C1619 C1620 1.400 . S
C1619 C1624 1.490 . S
C1620 H1610 0.930 . S
C1620 C1619 1.400 . S
C1620 C1623 1.386 . S
H1621 C1637 0.930 . S
H1622 C1638 0.931 . S
C1623 H1611 0.929 . S
C1623 C1617 1.390 . S
C1623 C1620 1.386 . S
C1624 C1619 1.490 . S
C1624 C1626 1.395 . S
C1624 C1627 1.403 . S
H1625 C1631 0.930 . S
C1626 H1612 0.930 . S
C1626 C1624 1.395 . S
C1626 C1629 1.403 . S
C1627 C1624 1.403 . S
C1627 C1628 1.524 . S
C1627 C1631 1.400 . S
C1628 H1613 0.960 . S
C1628 H1614 0.960 . S
C1628 H1615 0.960 . S
C1628 C1627 1.524 . S
C1629 C1626 1.403 . S
C1629 C1630 1.392 . S
C1629 C1633 1.495 . S
C1630 C1629 1.392 . S
C1630 C1631 1.385 . S
C1630 C1632 1.478 . S
C1631 H1625 0.930 . S
C1631 C1627 1.400 . S
C1631 C1630 1.385 . S
C1632 C1630 1.478 . S
C1632 C1634 1.381 . S
C1632 C1638 1.383 . S
C1633 C1629 1.495 . S
C1633 H1639 0.959 . S
C1633 H1640 0.961 . S
C1633 H1641 0.960 . S
C1634 C1632 1.381 . S
C1634 C1635 1.394 . S
C1634 H1642 0.930 . S
C1635 C1634 1.394 . S
C1635 C1636 1.383 . S
C1635 H1643 0.929 . S
C1636 C1635 1.383 . S
C1636 C1637 1.377 . S
C1637 H1621 0.930 . S
C1637 C1636 1.377 . S
C1637 C1638 1.379 . S
C1638 H1622 0.931 . S
C1638 C1632 1.383 . S
C1638 C1637 1.379 . S
H1639 C1633 0.959 . S
H1640 C1633 0.961 . S
H1641 C1633 0.960 . S
H1642 C1634 0.930 . S
H1643 C1635 0.929 . S
H1644 C1652 0.929 . S
H1645 C1654 0.930 . S
H1646 C1656 0.930 . S
H1647 C1659 0.929 . S
H1648 C1662 0.930 . S
H1649 C1664 0.960 . S
H1650 C1664 0.960 . S
H1651 C1664 0.960 . S
C1652 H1644 0.929 . S
C1652 C1653 1.377 . S
C1652 C1654 1.384 . S
C1653 C1652 1.377 . S
C1653 C1659 1.390 . S
C1654 H1645 0.930 . S
C1654 C1652 1.384 . S
C1654 C1655 1.372 . S
C1655 C1654 1.372 . S
C1655 C1656 1.400 . S
C1655 C1660 1.490 . S
C1656 H1646 0.930 . S
C1656 C1655 1.400 . S
C1656 C1659 1.386 . S
H1657 C1673 0.930 . S
H1658 C1674 0.931 . S
C1659 H1647 0.929 . S
C1659 C1653 1.390 . S
C1659 C1656 1.386 . S
C1660 C1655 1.490 . S
C1660 C1662 1.395 . S
C1660 C1663 1.403 . S
H1661 C1667 0.930 . S
C1662 H1648 0.930 . S
C1662 C1660 1.395 . S
C1662 C1665 1.403 . S
C1663 C1660 1.403 . S
C1663 C1664 1.524 . S
C1663 C1667 1.400 . S
C1664 H1649 0.960 . S
C1664 H1650 0.960 . S
C1664 H1651 0.960 . S
C1664 C1663 1.524 . S
C1665 C1662 1.403 . S
C1665 C1666 1.392 . S
C1665 C1669 1.495 . S
C1666 C1665 1.392 . S
C1666 C1667 1.385 . S
C1666 C1668 1.478 . S
C1667 H1661 0.930 . S
C1667 C1663 1.400 . S
C1667 C1666 1.385 . S
C1668 C1666 1.478 . S
C1668 C1670 1.381 . S
C1668 C1674 1.383 . S
C1669 C1665 1.495 . S
C1669 H1675 0.959 . S
C1669 H1676 0.961 . S
C1669 H1677 0.960 . S
C1670 C1668 1.381 . S
C1670 C1671 1.394 . S
C1670 H1678 0.930 . S
C1671 C1670 1.394 . S
C1671 C1672 1.383 . S
C1671 H1679 0.929 . S
C1672 C1671 1.383 . S
C1672 C1673 1.377 . S
C1673 H1657 0.930 . S
C1673 C1672 1.377 . S
C1673 C1674 1.379 . S
C1674 H1658 0.931 . S
C1674 C1668 1.383 . S
C1674 C1673 1.379 . S
H1675 C1669 0.959 . S
H1676 C1669 0.961 . S
H1677 C1669 0.960 . S
H1678 C1670 0.930 . S
H1679 C1671 0.929 . S
H1680 C1688 0.929 . S
H1681 C1690 0.930 . S
H1682 C1692 0.930 . S
H1683 C1695 0.929 . S
H1684 C1698 0.930 . S
H1685 C1700 0.960 . S
H1686 C1700 0.960 . S
H1687 C1700 0.960 . S
C1688 H1680 0.929 . S
C1688 C1689 1.377 . S
C1688 C1690 1.384 . S
C1689 C1688 1.377 . S
C1689 C1695 1.390 . S
C1690 H1681 0.930 . S
C1690 C1688 1.384 . S
C1690 C1691 1.372 . S
C1691 C1690 1.372 . S
C1691 C1692 1.400 . S
C1691 C1696 1.490 . S
C1692 H1682 0.930 . S
C1692 C1691 1.400 . S
C1692 C1695 1.386 . S
H1693 C1709 0.930 . S
H1694 C1710 0.931 . S
C1695 H1683 0.929 . S
C1695 C1689 1.390 . S
C1695 C1692 1.386 . S
C1696 C1691 1.490 . S
C1696 C1698 1.395 . S
C1696 C1699 1.403 . S
H1697 C1703 0.930 . S
C1698 H1684 0.930 . S
C1698 C1696 1.395 . S
C1698 C1701 1.403 . S
C1699 C1696 1.403 . S
C1699 C1700 1.524 . S
C1699 C1703 1.400 . S
C1700 H1685 0.960 . S
C1700 H1686 0.960 . S
C1700 H1687 0.960 . S
C1700 C1699 1.524 . S
C1701 C1698 1.403 . S
C1701 C1702 1.392 . S
C1701 C1705 1.495 . S
C1702 C1701 1.392 . S
C1702 C1703 1.385 . S
C1702 C1704 1.478 . S
C1703 H1697 0.930 . S
C1703 C1699 1.400 . S
C1703 C1702 1.385 . S
C1704 C1702 1.478 . S
C1704 C1706 1.381 . S
C1704 C1710 1.383 . S
C1705 C1701 1.495 . S
C1705 H1711 0.959 . S
C1705 H1712 0.961 . S
C1705 H1713 0.960 . S
C1706 C1704 1.381 . S
C1706 C1707 1.394 . S
C1706 H1714 0.930 . S
C1707 C1706 1.394 . S
C1707 C1708 1.383 . S
C1707 H1715 0.929 . S
C1708 C1707 1.383 . S
C1708 C1709 1.377 . S
C1709 H1693 0.930 . S
C1709 C1708 1.377 . S
C1709 C1710 1.379 . S
C1710 H1694 0.931 . S
C1710 C1704 1.383 . S
C1710 C1709 1.379 . S
H1711 C1705 0.959 . S
H1712 C1705 0.961 . S
H1713 C1705 0.960 . S
H1714 C1706 0.930 . S
H1715 C1707 0.929 . S
H1716 C1724 0.929 . S
H1717 C1726 0.930 . S
H1718 C1728 0.930 . S
H1719 C1731 0.929 . S
H1720 C1734 0.930 . S
H1721 C1736 0.960 . S
H1722 C1736 0.960 . S
H1723 C1736 0.960 . S
C1724 H1716 0.929 . S
C1724 C1725 1.377 . S
C1724 C1726 1.384 . S
C1725 C1724 1.377 . S
C1725 C1731 1.390 . S
C1726 H1717 0.930 . S
C1726 C1724 1.384 . S
C1726 C1727 1.372 . S
C1727 C1726 1.372 . S
C1727 C1728 1.400 . S
C1727 C1732 1.490 . S
C1728 H1718 0.930 . S
C1728 C1727 1.400 . S
C1728 C1731 1.386 . S
H1729 C1745 0.930 . S
H1730 C1746 0.931 . S
C1731 H1719 0.929 . S
C1731 C1725 1.390 . S
C1731 C1728 1.386 . S
C1732 C1727 1.490 . S
C1732 C1734 1.395 . S
C1732 C1735 1.403 . S
H1733 C1739 0.930 . S
C1734 H1720 0.930 . S
C1734 C1732 1.395 . S
C1734 C1737 1.403 . S
C1735 C1732 1.403 . S
C1735 C1736 1.524 . S
C1735 C1739 1.400 . S
C1736 H1721 0.960 . S
C1736 H1722 0.960 . S
C1736 H1723 0.960 . S
C1736 C1735 1.524 . S
C1737 C1734 1.403 . S
C1737 C1738 1.392 . S
C1737 C1741 1.495 . S
C1738 C1737 1.392 . S
C1738 C1739 1.385 . S
C1738 C1740 1.478 . S
C1739 H1733 0.930 . S
C1739 C1735 1.400 . S
C1739 C1738 1.385 . S
C1740 C1738 1.478 . S
C1740 C1742 1.381 . S
C1740 C1746 1.383 . S
C1741 C1737 1.495 . S
C1741 H1747 0.959 . S
C1741 H1748 0.961 . S
C1741 H1749 0.960 . S
C1742 C1740 1.381 . S
C1742 C1743 1.394 . S
C1742 H1750 0.930 . S
C1743 C1742 1.394 . S
C1743 C1744 1.383 . S
C1743 H1751 0.929 . S
C1744 C1743 1.383 . S
C1744 C1745 1.377 . S
C1745 H1729 0.930 . S
C1745 C1744 1.377 . S
C1745 C1746 1.379 . S
C1746 H1730 0.931 . S
C1746 C1740 1.383 . S
C1746 C1745 1.379 . S
H1747 C1741 0.959 . S
H1748 C1741 0.961 . S
H1749 C1741 0.960 . S
H1750 C1742 0.930 . S
H1751 C1743 0.929 . S
H1752 C1760 0.929 . S
H1753 C1762 0.930 . S
H1754 C1764 0.930 . S
H1755 C1767 0.929 . S
H1756 C1770 0.930 . S
H1757 C1772 0.960 . S
H1758 C1772 0.960 . S
H1759 C1772 0.960 . S
C1760 H1752 0.929 . S
C1760 C1761 1.377 . S
C1760 C1762 1.384 . S
C1761 C1760 1.377 . S
C1761 C1767 1.390 . S
C1762 H1753 0.930 . S
C1762 C1760 1.384 . S
C1762 C1763 1.372 . S
C1763 C1762 1.372 . S
C1763 C1764 1.400 . S
C1763 C1768 1.490 . S
C1764 H1754 0.930 . S
C1764 C1763 1.400 . S
C1764 C1767 1.386 . S
H1765 C1781 0.930 . S
H1766 C1782 0.931 . S
C1767 H1755 0.929 . S
C1767 C1761 1.390 . S
C1767 C1764 1.386 . S
C1768 C1763 1.490 . S
C1768 C1770 1.395 . S
C1768 C1771 1.403 . S
H1769 C1775 0.930 . S
C1770 H1756 0.930 . S
C1770 C1768 1.395 . S
C1770 C1773 1.403 . S
C1771 C1768 1.403 . S
C1771 C1772 1.524 . S
C1771 C1775 1.400 . S
C1772 H1757 0.960 . S
C1772 H1758 0.960 . S
C1772 H1759 0.960 . S
C1772 C1771 1.524 . S
C1773 C1770 1.403 . S
C1773 C1774 1.392 . S
C1773 C1777 1.495 . S
C1774 C1773 1.392 . S
C1774 C1775 1.385 . S
C1774 C1776 1.478 . S
C1775 H1769 0.930 . S
C1775 C1771 1.400 . S
C1775 C1774 1.385 . S
C1776 C1774 1.478 . S
C1776 C1778 1.381 . S
C1776 C1782 1.383 . S
C1777 C1773 1.495 . S
C1777 H1783 0.959 . S
C1777 H1784 0.961 . S
C1777 H1785 0.960 . S
C1778 C1776 1.381 . S
C1778 C1779 1.394 . S
C1778 H1786 0.930 . S
C1779 C1778 1.394 . S
C1779 C1780 1.383 . S
C1779 H1787 0.929 . S
C1780 C1779 1.383 . S
C1780 C1781 1.377 . S
C1781 H1765 0.930 . S
C1781 C1780 1.377 . S
C1781 C1782 1.379 . S
C1782 H1766 0.931 . S
C1782 C1776 1.383 . S
C1782 C1781 1.379 . S
H1783 C1777 0.959 . S
H1784 C1777 0.961 . S
H1785 C1777 0.960 . S
H1786 C1778 0.930 . S
H1787 C1779 0.929 . S
H1788 C1796 0.929 . S
H1789 C1798 0.930 . S
H1790 C1800 0.930 . S
H1791 C1803 0.929 . S
H1792 C1806 0.930 . S
H1793 C1808 0.960 . S
H1794 C1808 0.960 . S
H1795 C1808 0.960 . S
C1796 H1788 0.929 . S
C1796 C1797 1.377 . S
C1796 C1798 1.384 . S
C1797 C1796 1.377 . S
C1797 C1803 1.390 . S
C1798 H1789 0.930 . S
C1798 C1796 1.384 . S
C1798 C1799 1.372 . S
C1799 C1798 1.372 . S
C1799 C1800 1.400 . S
C1799 C1804 1.490 . S
C1800 H1790 0.930 . S
C1800 C1799 1.400 . S
C1800 C1803 1.386 . S
H1801 C1817 0.930 . S
H1802 C1818 0.931 . S
C1803 H1791 0.929 . S
C1803 C1797 1.390 . S
C1803 C1800 1.386 . S
C1804 C1799 1.490 . S
C1804 C1806 1.395 . S
C1804 C1807 1.403 . S
H1805 C1811 0.930 . S
C1806 H1792 0.930 . S
C1806 C1804 1.395 . S
C1806 C1809 1.403 . S
C1807 C1804 1.403 . S
C1807 C1808 1.524 . S
C1807 C1811 1.400 . S
C1808 H1793 0.960 . S
C1808 H1794 0.960 . S
C1808 H1795 0.960 . S
C1808 C1807 1.524 . S
C1809 C1806 1.403 . S
C1809 C1810 1.392 . S
C1809 C1813 1.495 1_455 S
C1810 C1809 1.392 . S
C1810 C1811 1.385 . S
C1810 C1812 1.478 1_455 S
C1811 H1805 0.930 . S
C1811 C1807 1.400 . S
C1811 C1810 1.385 . S
C1812 C1810 1.478 1_655 S
C1812 C1814 1.381 . S
C1812 C1818 1.383 . S
C1813 C1809 1.495 1_655 S
C1813 H1819 0.959 1_655 S
C1813 H1820 0.961 . S
C1813 H1821 0.960 . S
C1814 C1812 1.381 . S
C1814 C1815 1.394 . S
C1814 H1822 0.930 . S
C1815 C1814 1.394 . S
C1815 C1816 1.383 . S
C1815 H1823 0.929 . S
C1816 C1815 1.383 . S
C1816 C1817 1.377 . S
C1817 H1801 0.930 . S
C1817 C1816 1.377 . S
C1817 C1818 1.379 . S
C1818 H1802 0.931 . S
C1818 C1812 1.383 . S
C1818 C1817 1.379 . S
H1819 C1813 0.959 1_455 S
H1820 C1813 0.961 . S
H1821 C1813 0.960 . S
H1822 C1814 0.930 . S
H1823 C1815 0.929 . S
H1824 C1832 0.929 . S
H1825 C1834 0.930 . S
H1826 C1836 0.930 . S
H1827 C1839 0.929 . S
H1828 C1842 0.930 . S
H1829 C1844 0.960 . S
H1830 C1844 0.960 . S
H1831 C1844 0.960 . S
C1832 H1824 0.929 . S
C1832 C1833 1.377 . S
C1832 C1834 1.384 . S
C1833 C1832 1.377 . S
C1833 C1839 1.390 . S
C1834 H1825 0.930 . S
C1834 C1832 1.384 . S
C1834 C1835 1.372 . S
C1835 C1834 1.372 . S
C1835 C1836 1.400 . S
C1835 C1840 1.490 . S
C1836 H1826 0.930 . S
C1836 C1835 1.400 . S
C1836 C1839 1.386 . S
H1837 C1853 0.930 . S
H1838 C1854 0.931 . S
C1839 H1827 0.929 . S
C1839 C1833 1.390 . S
C1839 C1836 1.386 . S
C1840 C1835 1.490 . S
C1840 C1842 1.395 . S
C1840 C1843 1.403 . S
H1841 C1847 0.930 . S
C1842 H1828 0.930 . S
C1842 C1840 1.395 . S
C1842 C1845 1.403 . S
C1843 C1840 1.403 . S
C1843 C1844 1.524 . S
C1843 C1847 1.400 . S
C1844 H1829 0.960 . S
C1844 H1830 0.960 . S
C1844 H1831 0.960 . S
C1844 C1843 1.524 . S
C1845 C1842 1.403 . S
C1845 C1846 1.392 . S
C1845 C1849 1.495 . S
C1846 C1845 1.392 . S
C1846 C1847 1.385 . S
C1846 C1848 1.478 . S
C1847 H1841 0.930 . S
C1847 C1843 1.400 . S
C1847 C1846 1.385 . S
C1848 C1846 1.478 . S
C1848 C1850 1.381 . S
C1848 C1854 1.383 . S
C1849 C1845 1.495 . S
C1849 H1855 0.959 . S
C1849 H1856 0.961 . S
C1849 H1857 0.960 . S
C1850 C1848 1.381 . S
C1850 C1851 1.394 . S
C1850 H1858 0.930 . S
C1851 C1850 1.394 . S
C1851 C1852 1.383 . S
C1851 H1859 0.929 . S
C1852 C1851 1.383 . S
C1852 C1853 1.377 . S
C1853 H1837 0.930 . S
C1853 C1852 1.377 . S
C1853 C1854 1.379 . S
C1854 H1838 0.931 . S
C1854 C1848 1.383 . S
C1854 C1853 1.379 . S
H1855 C1849 0.959 . S
H1856 C1849 0.961 . S
H1857 C1849 0.960 . S
H1858 C1850 0.930 . S
H1859 C1851 0.929 . S
H1860 C1868 0.929 . S
H1861 C1870 0.930 . S
H1862 C1872 0.930 . S
H1863 C1875 0.929 . S
H1864 C1878 0.930 . S
H1865 C1880 0.960 . S
H1866 C1880 0.960 . S
H1867 C1880 0.960 . S
C1868 H1860 0.929 . S
C1868 C1869 1.377 . S
C1868 C1870 1.384 . S
C1869 C1868 1.377 . S
C1869 C1875 1.390 . S
C1870 H1861 0.930 . S
C1870 C1868 1.384 . S
C1870 C1871 1.372 . S
C1871 C1870 1.372 . S
C1871 C1872 1.400 . S
C1871 C1876 1.490 . S
C1872 H1862 0.930 . S
C1872 C1871 1.400 . S
C1872 C1875 1.386 . S
H1873 C1889 0.930 . S
H1874 C1890 0.931 . S
C1875 H1863 0.929 . S
C1875 C1869 1.390 . S
C1875 C1872 1.386 . S
C1876 C1871 1.490 . S
C1876 C1878 1.395 . S
C1876 C1879 1.403 . S
H1877 C1883 0.930 . S
C1878 H1864 0.930 . S
C1878 C1876 1.395 . S
C1878 C1881 1.403 . S
C1879 C1876 1.403 . S
C1879 C1880 1.524 . S
C1879 C1883 1.400 . S
C1880 H1865 0.960 . S
C1880 H1866 0.960 . S
C1880 H1867 0.960 . S
C1880 C1879 1.524 . S
C1881 C1878 1.403 . S
C1881 C1882 1.392 . S
C1881 C1885 1.495 . S
C1882 C1881 1.392 . S
C1882 C1883 1.385 . S
C1882 C1884 1.478 . S
C1883 H1877 0.930 . S
C1883 C1879 1.400 . S
C1883 C1882 1.385 . S
C1884 C1882 1.478 . S
C1884 C1886 1.381 . S
C1884 C1890 1.383 . S
C1885 C1881 1.495 . S
C1885 H1891 0.959 . S
C1885 H1892 0.961 . S
C1885 H1893 0.960 . S
C1886 C1884 1.381 . S
C1886 C1887 1.394 . S
C1886 H1894 0.930 . S
C1887 C1886 1.394 . S
C1887 C1888 1.383 . S
C1887 H1895 0.929 . S
C1888 C1887 1.383 . S
C1888 C1889 1.377 . S
C1889 H1873 0.930 . S
C1889 C1888 1.377 . S
C1889 C1890 1.379 . S
C1890 H1874 0.931 . S
C1890 C1884 1.383 . S
C1890 C1889 1.379 . S
H1891 C1885 0.959 . S
H1892 C1885 0.961 . S
H1893 C1885 0.960 . S
H1894 C1886 0.930 . S
H1895 C1887 0.929 . S
H1896 C1904 0.929 . S
H1897 C1906 0.930 . S
H1898 C1908 0.930 . S
H1899 C1911 0.929 . S
H1900 C1914 0.930 . S
H1901 C1916 0.960 . S
H1902 C1916 0.960 . S
H1903 C1916 0.960 . S
C1904 H1896 0.929 . S
C1904 C1905 1.377 . S
C1904 C1906 1.384 . S
C1905 C1904 1.377 . S
C1905 C1911 1.390 . S
C1906 H1897 0.930 . S
C1906 C1904 1.384 . S
C1906 C1907 1.372 . S
C1907 C1906 1.372 . S
C1907 C1908 1.400 . S
C1907 C1912 1.490 . S
C1908 H1898 0.930 . S
C1908 C1907 1.400 . S
C1908 C1911 1.386 . S
H1909 C1925 0.930 . S
H1910 C1926 0.931 . S
C1911 H1899 0.929 . S
C1911 C1905 1.390 . S
C1911 C1908 1.386 . S
C1912 C1907 1.490 . S
C1912 C1914 1.395 . S
C1912 C1915 1.403 . S
H1913 C1919 0.930 . S
C1914 H1900 0.930 . S
C1914 C1912 1.395 . S
C1914 C1917 1.403 . S
C1915 C1912 1.403 . S
C1915 C1916 1.524 . S
C1915 C1919 1.400 . S
C1916 H1901 0.960 . S
C1916 H1902 0.960 . S
C1916 H1903 0.960 . S
C1916 C1915 1.524 . S
C1917 C1914 1.403 . S
C1917 C1918 1.392 . S
C1917 C1921 1.495 . S
C1918 C1917 1.392 . S
C1918 C1919 1.385 . S
C1918 C1920 1.478 . S
C1919 H1913 0.930 . S
C1919 C1915 1.400 . S
C1919 C1918 1.385 . S
C1920 C1918 1.478 . S
C1920 C1922 1.381 . S
C1920 C1926 1.383 . S
C1921 C1917 1.495 . S
C1921 H1927 0.959 . S
C1921 H1928 0.961 . S
C1921 H1929 0.960 . S
C1922 C1920 1.381 . S
C1922 C1923 1.394 . S
C1922 H1930 0.930 . S
C1923 C1922 1.394 . S
C1923 C1924 1.383 . S
C1923 H1931 0.929 . S
C1924 C1923 1.383 . S
C1924 C1925 1.377 . S
C1925 H1909 0.930 . S
C1925 C1924 1.377 . S
C1925 C1926 1.379 . S
C1926 H1910 0.931 . S
C1926 C1920 1.383 . S
C1926 C1925 1.379 . S
H1927 C1921 0.959 . S
H1928 C1921 0.961 . S
H1929 C1921 0.960 . S
H1930 C1922 0.930 . S
H1931 C1923 0.929 . S
H1932 C1940 0.929 . S
H1933 C1942 0.930 . S
H1934 C1944 0.930 . S
H1935 C1947 0.929 . S
H1936 C1950 0.930 . S
H1937 C1952 0.960 . S
H1938 C1952 0.960 . S
H1939 C1952 0.960 . S
C1940 H1932 0.929 . S
C1940 C1941 1.377 . S
C1940 C1942 1.384 . S
C1941 C1940 1.377 . S
C1941 C1947 1.390 . S
C1942 H1933 0.930 . S
C1942 C1940 1.384 . S
C1942 C1943 1.372 . S
C1943 C1942 1.372 . S
C1943 C1944 1.400 . S
C1943 C1948 1.490 . S
C1944 H1934 0.930 . S
C1944 C1943 1.400 . S
C1944 C1947 1.386 . S
H1945 C1961 0.930 . S
H1946 C1962 0.931 . S
C1947 H1935 0.929 . S
C1947 C1941 1.390 . S
C1947 C1944 1.386 . S
C1948 C1943 1.490 . S
C1948 C1950 1.395 . S
C1948 C1951 1.403 . S
H1949 C1955 0.930 1_554 S
C1950 H1936 0.930 . S
C1950 C1948 1.395 . S
C1950 C1953 1.403 . S
C1951 C1948 1.403 . S
C1951 C1952 1.524 . S
C1951 C1955 1.400 . S
C1952 H1937 0.960 . S
C1952 H1938 0.960 . S
C1952 H1939 0.960 . S
C1952 C1951 1.524 . S
C1953 C1950 1.403 . S
C1953 C1954 1.392 1_556 S
C1953 C1957 1.495 1_556 S
C1954 C1953 1.392 1_554 S
C1954 C1955 1.385 1_554 S
C1954 C1956 1.478 . S
C1955 H1949 0.930 1_556 S
C1955 C1951 1.400 . S
C1955 C1954 1.385 1_556 S
C1956 C1954 1.478 . S
C1956 C1958 1.381 . S
C1956 C1962 1.383 . S
C1957 C1953 1.495 1_554 S
C1957 H1963 0.920 1_554 S
C1957 H1964 0.961 . S
C1957 H1965 0.960 . S
C1958 C1956 1.381 . S
C1958 C1959 1.394 . S
C1958 H1966 0.930 . S
C1959 C1958 1.394 . S
C1959 C1960 1.383 . S
C1959 H1967 0.929 . S
C1960 C1959 1.383 . S
C1960 C1961 1.377 . S
C1961 H1945 0.930 . S
C1961 C1960 1.377 . S
C1961 C1962 1.379 . S
C1962 H1946 0.931 . S
C1962 C1956 1.383 . S
C1962 C1961 1.379 . S
H1963 C1957 0.920 1_556 S
H1964 C1957 0.961 . S
H1965 C1957 0.960 . S
H1966 C1958 0.930 . S
H1967 C1959 0.929 . S
H1968 C1976 0.929 . S
H1969 C1978 0.930 . S
H1970 C1980 0.930 . S
H1971 C1983 0.929 . S
H1972 C1986 0.930 . S
H1973 C1988 0.960 . S
H1974 C1988 0.960 . S
H1975 C1988 0.960 . S
C1976 H1968 0.929 . S
C1976 C1977 1.377 . S
C1976 C1978 1.384 . S
C1977 C1976 1.377 . S
C1977 C1983 1.390 . S
C1978 H1969 0.930 . S
C1978 C1976 1.384 . S
C1978 C1979 1.372 . S
C1979 C1978 1.372 . S
C1979 C1980 1.400 . S
C1979 C1984 1.490 . S
C1980 H1970 0.930 . S
C1980 C1979 1.400 . S
C1980 C1983 1.386 . S
H1981 C1997 0.930 . S
H1982 C1998 0.931 . S
C1983 H1971 0.929 . S
C1983 C1977 1.390 . S
C1983 C1980 1.386 . S
C1984 C1979 1.490 . S
C1984 C1986 1.395 . S
C1984 C1987 1.403 . S
H1985 C1991 0.930 . S
C1986 H1972 0.930 . S
C1986 C1984 1.395 . S
C1986 C1989 1.403 . S
C1987 C1984 1.403 . S
C1987 C1988 1.524 . S
C1987 C1991 1.400 . S
C1988 H1973 0.960 . S
C1988 H1974 0.960 . S
C1988 H1975 0.960 . S
C1988 C1987 1.524 . S
C1989 C1986 1.403 . S
C1989 C1990 1.392 . S
C1989 C1993 1.495 . S
C1990 C1989 1.392 . S
C1990 C1991 1.385 . S
C1990 C1992 1.478 . S
C1991 H1985 0.930 . S
C1991 C1987 1.400 . S
C1991 C1990 1.385 . S
C1992 C1990 1.478 . S
C1992 C1994 1.381 . S
C1992 C1998 1.383 . S
C1993 C1989 1.495 . S
C1993 H1999 0.959 . S
C1993 H2000 0.961 . S
C1993 H2001 0.960 . S
C1994 C1992 1.381 . S
C1994 C1995 1.394 . S
C1994 H2002 0.930 . S
C1995 C1994 1.394 . S
C1995 C1996 1.383 . S
C1995 H2003 0.929 . S
C1996 C1995 1.383 . S
C1996 C1997 1.377 . S
C1997 H1981 0.930 . S
C1997 C1996 1.377 . S
C1997 C1998 1.379 . S
C1998 H1982 0.931 . S
C1998 C1992 1.383 . S
C1998 C1997 1.379 . S
H1999 C1993 0.959 . S
H2000 C1993 0.961 . S
H2001 C1993 0.960 . S
H2002 C1994 0.930 . S
H2003 C1995 0.929 . S
H2004 C2012 0.929 . S
H2005 C2014 0.930 . S
H2006 C2016 0.930 . S
H2007 C2019 0.929 . S
H2008 C2022 0.930 . S
H2009 C2024 0.960 . S
H2010 C2024 0.960 . S
H2011 C2024 0.960 . S
C2012 H2004 0.929 . S
C2012 C2013 1.377 . S
C2012 C2014 1.384 . S
C2013 C2012 1.377 . S
C2013 C2019 1.390 . S
C2014 H2005 0.930 . S
C2014 C2012 1.384 . S
C2014 C2015 1.372 . S
C2015 C2014 1.372 . S
C2015 C2016 1.400 . S
C2015 C2020 1.490 . S
C2016 H2006 0.930 . S
C2016 C2015 1.400 . S
C2016 C2019 1.386 . S
H2017 C2033 0.930 . S
H2018 C2034 0.931 . S
C2019 H2007 0.929 . S
C2019 C2013 1.390 . S
C2019 C2016 1.386 . S
C2020 C2015 1.490 . S
C2020 C2022 1.395 . S
C2020 C2023 1.403 . S
H2021 C2027 0.930 . S
C2022 H2008 0.930 . S
C2022 C2020 1.395 . S
C2022 C2025 1.403 . S
C2023 C2020 1.403 . S
C2023 C2024 1.524 . S
C2023 C2027 1.400 . S
C2024 H2009 0.960 . S
C2024 H2010 0.960 . S
C2024 H2011 0.960 . S
C2024 C2023 1.524 . S
C2025 C2022 1.403 . S
C2025 C2026 1.392 . S
C2025 C2029 1.495 . S
C2026 C2025 1.392 . S
C2026 C2027 1.385 . S
C2026 C2028 1.478 . S
C2027 H2021 0.930 . S
C2027 C2023 1.400 . S
C2027 C2026 1.385 . S
C2028 C2026 1.478 . S
C2028 C2030 1.381 . S
C2028 C2034 1.383 . S
C2029 C2025 1.495 . S
C2029 H2035 0.959 . S
C2029 H2036 0.961 . S
C2029 H2037 0.960 . S
C2030 C2028 1.381 . S
C2030 C2031 1.394 . S
C2030 H2038 0.930 . S
C2031 C2030 1.394 . S
C2031 C2032 1.383 . S
C2031 H2039 0.929 . S
C2032 C2031 1.383 . S
C2032 C2033 1.377 . S
C2033 H2017 0.930 . S
C2033 C2032 1.377 . S
C2033 C2034 1.379 . S
C2034 H2018 0.931 . S
C2034 C2028 1.383 . S
C2034 C2033 1.379 . S
H2035 C2029 0.959 . S
H2036 C2029 0.961 . S
H2037 C2029 0.960 . S
H2038 C2030 0.930 . S
H2039 C2031 0.929 . S
H2040 C2048 0.929 . S
H2041 C2050 0.930 . S
H2042 C2052 0.930 . S
H2043 C2055 0.929 . S
H2044 C2058 0.930 . S
H2045 C2060 0.960 . S
H2046 C2060 0.960 . S
H2047 C2060 0.960 . S
C2048 H2040 0.929 . S
C2048 C2049 1.377 . S
C2048 C2050 1.384 . S
C2049 C2048 1.377 . S
C2049 C2055 1.390 . S
C2050 H2041 0.930 . S
C2050 C2048 1.384 . S
C2050 C2051 1.372 . S
C2051 C2050 1.372 . S
C2051 C2052 1.400 . S
C2051 C2056 1.490 . S
C2052 H2042 0.930 . S
C2052 C2051 1.400 . S
C2052 C2055 1.386 . S
H2053 C2069 0.930 . S
H2054 C2070 0.931 . S
C2055 H2043 0.929 . S
C2055 C2049 1.390 . S
C2055 C2052 1.386 . S
C2056 C2051 1.490 . S
C2056 C2058 1.395 . S
C2056 C2059 1.403 . S
H2057 C2063 0.930 . S
C2058 H2044 0.930 . S
C2058 C2056 1.395 . S
C2058 C2061 1.403 . S
C2059 C2056 1.403 . S
C2059 C2060 1.524 . S
C2059 C2063 1.400 . S
C2060 H2045 0.960 . S
C2060 H2046 0.960 . S
C2060 H2047 0.960 . S
C2060 C2059 1.524 . S
C2061 C2058 1.403 . S
C2061 C2062 1.392 . S
C2061 C2065 1.495 . S
C2062 C2061 1.392 . S
C2062 C2063 1.385 . S
C2062 C2064 1.478 . S
C2063 H2057 0.930 . S
C2063 C2059 1.400 . S
C2063 C2062 1.385 . S
C2064 C2062 1.478 . S
C2064 C2066 1.381 . S
C2064 C2070 1.383 . S
C2065 C2061 1.495 . S
C2065 H2071 0.959 . S
C2065 H2072 0.961 . S
C2065 H2073 0.960 . S
C2066 C2064 1.381 . S
C2066 C2067 1.394 . S
C2066 H2074 0.930 . S
C2067 C2066 1.394 . S
C2067 C2068 1.383 . S
C2067 H2075 0.929 . S
C2068 C2067 1.383 . S
C2068 C2069 1.377 . S
C2069 H2053 0.930 . S
C2069 C2068 1.377 . S
C2069 C2070 1.379 . S
C2070 H2054 0.931 . S
C2070 C2064 1.383 . S
C2070 C2069 1.379 . S
H2071 C2065 0.959 . S
H2072 C2065 0.961 . S
H2073 C2065 0.960 . S
H2074 C2066 0.930 . S
H2075 C2067 0.929 . S
H2076 C2084 0.929 . S
H2077 C2086 0.930 . S
H2078 C2088 0.930 . S
H2079 C2091 0.929 . S
H2080 C2094 0.930 1_556 S
H2081 C2096 0.960 . S
H2082 C2096 0.960 . S
H2083 C2096 0.999 . S
C2084 H2076 0.929 . S
C2084 C2085 1.377 . S
C2084 C2086 1.384 . S
C2085 C2084 1.377 . S
C2085 C2091 1.390 . S
C2086 H2077 0.930 . S
C2086 C2084 1.384 . S
C2086 C2087 1.372 . S
C2087 C2086 1.372 . S
C2087 C2088 1.400 . S
C2087 C2092 1.479 1_556 S
C2088 H2078 0.930 . S
C2088 C2087 1.400 . S
C2088 C2091 1.386 . S
H2089 C2105 0.930 . S
H2090 C2106 0.931 . S
C2091 H2079 0.929 . S
C2091 C2085 1.390 . S
C2091 C2088 1.386 . S
C2092 C2087 1.479 1_554 S
C2092 C2094 1.397 . S
C2092 C2095 1.410 . S
H2093 C2099 0.930 . S
C2094 H2080 0.930 1_554 S
C2094 C2092 1.397 . S
C2094 C2097 1.403 . S
C2095 C2092 1.410 . S
C2095 C2096 1.524 . S
C2095 C2099 1.400 . S
C2096 H2081 0.960 . S
C2096 H2082 0.960 . S
C2096 H2083 0.999 . S
C2096 C2095 1.524 . S
C2097 C2094 1.403 . S
C2097 C2098 1.392 . S
C2097 C2101 1.495 . S
C2098 C2097 1.392 . S
C2098 C2099 1.385 . S
C2098 C2100 1.478 . S
C2099 H2093 0.930 . S
C2099 C2095 1.400 . S
C2099 C2098 1.385 . S
C2100 C2098 1.478 . S
C2100 C2102 1.381 . S
C2100 C2106 1.383 . S
C2101 C2097 1.495 . S
C2101 H2107 0.959 . S
C2101 H2108 0.961 . S
C2101 H2109 0.960 . S
C2102 C2100 1.381 . S
C2102 C2103 1.394 . S
C2102 H2110 0.930 . S
C2103 C2102 1.394 . S
C2103 C2104 1.383 . S
C2103 H2111 0.929 . S
C2104 C2103 1.383 . S
C2104 C2105 1.377 . S
C2105 H2089 0.930 . S
C2105 C2104 1.377 . S
C2105 C2106 1.379 . S
C2106 H2090 0.931 . S
C2106 C2100 1.383 . S
C2106 C2105 1.379 . S
H2107 C2101 0.959 . S
H2108 C2101 0.961 . S
H2109 C2101 0.960 . S
H2110 C2102 0.930 . S
H2111 C2103 0.929 . S
H2112 C2120 0.929 . S
H2113 C2122 0.930 . S
H2114 C2124 0.930 . S
H2115 C2127 0.929 . S
H2116 C2130 0.930 . S
H2117 C2132 0.960 . S
H2118 C2132 0.960 . S
H2119 C2132 0.960 . S
C2120 H2112 0.929 . S
C2120 C2121 1.377 . S
C2120 C2122 1.384 . S
C2121 C2120 1.377 . S
C2121 C2127 1.390 . S
C2122 H2113 0.930 . S
C2122 C2120 1.384 . S
C2122 C2123 1.372 . S
C2123 C2122 1.372 . S
C2123 C2124 1.400 . S
C2123 C2128 1.490 . S
C2124 H2114 0.930 . S
C2124 C2123 1.400 . S
C2124 C2127 1.386 . S
H2125 C2141 0.930 . S
H2126 C2142 0.931 . S
C2127 H2115 0.929 . S
C2127 C2121 1.390 . S
C2127 C2124 1.386 . S
C2128 C2123 1.490 . S
C2128 C2130 1.395 . S
C2128 C2131 1.403 . S
H2129 C2135 0.930 . S
C2130 H2116 0.930 . S
C2130 C2128 1.395 . S
C2130 C2133 1.403 . S
C2131 C2128 1.403 . S
C2131 C2132 1.524 . S
C2131 C2135 1.400 . S
C2132 H2117 0.960 . S
C2132 H2118 0.960 . S
C2132 H2119 0.960 . S
C2132 C2131 1.524 . S
C2133 C2130 1.403 . S
C2133 C2134 1.392 . S
C2133 C2137 1.495 . S
C2134 C2133 1.392 . S
C2134 C2135 1.385 . S
C2134 C2136 1.478 . S
C2135 H2129 0.930 . S
C2135 C2131 1.400 . S
C2135 C2134 1.385 . S
C2136 C2134 1.478 . S
C2136 C2138 1.381 . S
C2136 C2142 1.383 . S
C2137 C2133 1.495 . S
C2137 H2143 0.959 . S
C2137 H2144 0.961 . S
C2137 H2145 0.960 . S
C2138 C2136 1.381 . S
C2138 C2139 1.394 . S
C2138 H2146 0.930 . S
C2139 C2138 1.394 . S
C2139 C2140 1.383 . S
C2139 H2147 0.929 . S
C2140 C2139 1.383 . S
C2140 C2141 1.377 . S
C2141 H2125 0.930 . S
C2141 C2140 1.377 . S
C2141 C2142 1.379 . S
C2142 H2126 0.931 . S
C2142 C2136 1.383 . S
C2142 C2141 1.379 . S
H2143 C2137 0.959 . S
H2144 C2137 0.961 . S
H2145 C2137 0.960 . S
H2146 C2138 0.930 . S
H2147 C2139 0.929 . S
H2148 C2156 0.929 . S
H2149 C2158 0.930 . S
H2150 C2160 0.930 . S
H2151 C2163 0.929 . S
H2152 C2166 0.930 . S
H2153 C2168 0.960 . S
H2154 C2168 0.960 . S
H2155 C2168 0.960 . S
C2156 H2148 0.929 . S
C2156 C2157 1.377 . S
C2156 C2158 1.384 . S
C2157 C2156 1.377 . S
C2157 C2163 1.390 . S
C2158 H2149 0.930 . S
C2158 C2156 1.384 . S
C2158 C2159 1.372 . S
C2159 C2158 1.372 . S
C2159 C2160 1.400 . S
C2159 C2164 1.490 . S
C2160 H2150 0.930 . S
C2160 C2159 1.400 . S
C2160 C2163 1.386 . S
H2161 C2177 0.930 . S
H2162 C2178 0.931 . S
C2163 H2151 0.929 . S
C2163 C2157 1.390 . S
C2163 C2160 1.386 . S
C2164 C2159 1.490 . S
C2164 C2166 1.395 . S
C2164 C2167 1.403 . S
H2165 C2171 0.930 . S
C2166 H2152 0.930 . S
C2166 C2164 1.395 . S
C2166 C2169 1.403 . S
C2167 C2164 1.403 . S
C2167 C2168 1.524 . S
C2167 C2171 1.400 . S
C2168 H2153 0.960 . S
C2168 H2154 0.960 . S
C2168 H2155 0.960 . S
C2168 C2167 1.524 . S
C2169 C2166 1.403 . S
C2169 C2170 1.392 . S
C2169 C2173 1.495 . S
C2170 C2169 1.392 . S
C2170 C2171 1.385 . S
C2170 C2172 1.478 . S
C2171 H2165 0.930 . S
C2171 C2167 1.400 . S
C2171 C2170 1.385 . S
C2172 C2170 1.478 . S
C2172 C2174 1.381 . S
C2172 C2178 1.383 . S
C2173 C2169 1.495 . S
C2173 H2179 0.959 . S
C2173 H2180 0.961 . S
C2173 H2181 0.960 . S
C2174 C2172 1.381 . S
C2174 C2175 1.394 . S
C2174 H2182 0.930 . S
C2175 C2174 1.394 . S
C2175 C2176 1.383 . S
C2175 H2183 0.929 . S
C2176 C2175 1.383 . S
C2176 C2177 1.377 . S
C2177 H2161 0.930 . S
C2177 C2176 1.377 . S
C2177 C2178 1.379 . S
C2178 H2162 0.931 . S
C2178 C2172 1.383 . S
C2178 C2177 1.379 . S
H2179 C2173 0.959 . S
H2180 C2173 0.961 . S
H2181 C2173 0.960 . S
H2182 C2174 0.930 . S
H2183 C2175 0.929 . S
H2184 C2192 0.929 . S
H2185 C2194 0.930 . S
H2186 C2196 0.930 . S
H2187 C2199 0.929 . S
H2188 C2202 0.930 . S
H2189 C2204 0.960 . S
H2190 C2204 0.960 . S
H2191 C2204 0.960 . S
C2192 H2184 0.929 . S
C2192 C2193 1.377 . S
C2192 C2194 1.384 . S
C2193 C2192 1.377 . S
C2193 C2199 1.390 . S
C2194 H2185 0.930 . S
C2194 C2192 1.384 . S
C2194 C2195 1.372 . S
C2195 C2194 1.372 . S
C2195 C2196 1.400 . S
C2195 C2200 1.490 . S
C2196 H2186 0.930 . S
C2196 C2195 1.400 . S
C2196 C2199 1.386 . S
H2197 C2213 0.930 . S
H2198 C2214 0.931 . S
C2199 H2187 0.929 . S
C2199 C2193 1.390 . S
C2199 C2196 1.386 . S
C2200 C2195 1.490 . S
C2200 C2202 1.395 . S
C2200 C2203 1.403 . S
H2201 C2207 0.930 . S
C2202 H2188 0.930 . S
C2202 C2200 1.395 . S
C2202 C2205 1.403 . S
C2203 C2200 1.403 . S
C2203 C2204 1.524 . S
C2203 C2207 1.400 . S
C2204 H2189 0.960 . S
C2204 H2190 0.960 . S
C2204 H2191 0.960 . S
C2204 C2203 1.524 . S
C2205 C2202 1.403 . S
C2205 C2206 1.392 . S
C2205 C2209 1.495 . S
C2206 C2205 1.392 . S
C2206 C2207 1.385 . S
C2206 C2208 1.478 . S
C2207 H2201 0.930 . S
C2207 C2203 1.400 . S
C2207 C2206 1.385 . S
C2208 C2206 1.478 . S
C2208 C2210 1.381 . S
C2208 C2214 1.383 . S
C2209 C2205 1.495 . S
C2209 H2215 0.959 . S
C2209 H2216 0.961 . S
C2209 H2217 0.960 . S
C2210 C2208 1.381 . S
C2210 C2211 1.394 . S
C2210 H2218 0.930 . S
C2211 C2210 1.394 . S
C2211 C2212 1.383 . S
C2211 H2219 0.929 . S
C2212 C2211 1.383 . S
C2212 C2213 1.377 . S
C2213 H2197 0.930 . S
C2213 C2212 1.377 . S
C2213 C2214 1.379 . S
C2214 H2198 0.931 . S
C2214 C2208 1.383 . S
C2214 C2213 1.379 . S
H2215 C2209 0.959 . S
H2216 C2209 0.961 . S
H2217 C2209 0.960 . S
H2218 C2210 0.930 . S
H2219 C2211 0.929 . S
H2220 C2228 0.929 . S
H2221 C2230 0.930 . S
H2222 C2232 0.930 . S
H2223 C2235 0.929 . S
H2224 C2238 0.930 . S
H2225 C2240 0.960 . S
H2226 C2240 0.960 . S
H2227 C2240 0.960 . S
C2228 H2220 0.929 . S
C2228 C2229 1.377 . S
C2228 C2230 1.384 . S
C2229 C2228 1.377 . S
C2229 C2235 1.390 . S
C2230 H2221 0.930 . S
C2230 C2228 1.384 . S
C2230 C2231 1.372 . S
C2231 C2230 1.372 . S
C2231 C2232 1.400 . S
C2231 C2236 1.490 . S
C2232 H2222 0.930 . S
C2232 C2231 1.400 . S
C2232 C2235 1.386 . S
H2233 C2249 0.930 . S
H2234 C2250 0.931 . S
C2235 H2223 0.929 . S
C2235 C2229 1.390 . S
C2235 C2232 1.386 . S
C2236 C2231 1.490 . S
C2236 C2238 1.395 . S
C2236 C2239 1.403 . S
H2237 C2243 0.930 . S
C2238 H2224 0.930 . S
C2238 C2236 1.395 . S
C2238 C2241 1.403 . S
C2239 C2236 1.403 . S
C2239 C2240 1.524 . S
C2239 C2243 1.400 . S
C2240 H2225 0.960 . S
C2240 H2226 0.960 . S
C2240 H2227 0.960 . S
C2240 C2239 1.524 . S
C2241 C2238 1.403 . S
C2241 C2242 1.392 . S
C2241 C2245 1.495 . S
C2242 C2241 1.392 . S
C2242 C2243 1.385 . S
C2242 C2244 1.478 . S
C2243 H2237 0.930 . S
C2243 C2239 1.400 . S
C2243 C2242 1.385 . S
C2244 C2242 1.478 . S
C2244 C2246 1.381 . S
C2244 C2250 1.383 . S
C2245 C2241 1.495 . S
C2245 H2251 0.959 . S
C2245 H2252 0.961 . S
C2245 H2253 0.960 . S
C2246 C2244 1.381 . S
C2246 C2247 1.394 . S
C2246 H2254 0.930 . S
C2247 C2246 1.394 . S
C2247 C2248 1.383 . S
C2247 H2255 0.929 . S
C2248 C2247 1.383 . S
C2248 C2249 1.377 . S
C2249 H2233 0.930 . S
C2249 C2248 1.377 . S
C2249 C2250 1.379 . S
C2250 H2234 0.931 . S
C2250 C2244 1.383 . S
C2250 C2249 1.379 . S
H2251 C2245 0.959 . S
H2252 C2245 0.961 . S
H2253 C2245 0.960 . S
H2254 C2246 0.930 . S
H2255 C2247 0.929 . S
H2256 C2264 0.929 . S
H2257 C2266 0.930 . S
H2258 C2268 0.930 . S
H2259 C2271 0.929 . S
H2260 C2274 0.930 . S
H2261 C2276 0.960 . S
H2262 C2276 0.960 . S
H2263 C2276 0.960 . S
C2264 H2256 0.929 . S
C2264 C2265 1.377 . S
C2264 C2266 1.384 . S
C2265 C2264 1.377 . S
C2265 C2271 1.390 . S
C2266 H2257 0.930 . S
C2266 C2264 1.384 . S
C2266 C2267 1.372 . S
C2267 C2266 1.372 . S
C2267 C2268 1.400 . S
C2267 C2272 1.490 1_565 S
C2268 H2258 0.930 . S
C2268 C2267 1.400 . S
C2268 C2271 1.386 . S
H2269 C2285 0.930 . S
H2270 C2286 0.931 . S
C2271 H2259 0.929 . S
C2271 C2265 1.390 . S
C2271 C2268 1.386 . S
C2272 C2267 1.490 1_545 S
C2272 C2274 1.395 . S
C2272 C2275 1.403 . S
H2273 C2279 0.930 . S
C2274 H2260 0.930 . S
C2274 C2272 1.395 . S
C2274 C2277 1.403 . S
C2275 C2272 1.403 . S
C2275 C2276 1.524 . S
C2275 C2279 1.400 . S
C2276 H2261 0.960 . S
C2276 H2262 0.960 . S
C2276 H2263 0.960 . S
C2276 C2275 1.524 . S
C2277 C2274 1.403 . S
C2277 C2278 1.392 . S
C2277 C2281 1.495 . S
C2278 C2277 1.392 . S
C2278 C2279 1.385 . S
C2278 C2280 1.478 . S
C2279 H2273 0.930 . S
C2279 C2275 1.400 . S
C2279 C2278 1.385 . S
C2280 C2278 1.478 . S
C2280 C2282 1.381 . S
C2280 C2286 1.383 . S
C2281 C2277 1.495 . S
C2281 H2287 0.959 . S
C2281 H2288 0.961 . S
C2281 H2289 0.960 . S
C2282 C2280 1.381 . S
C2282 C2283 1.394 . S
C2282 H2290 0.930 . S
C2283 C2282 1.394 . S
C2283 C2284 1.383 . S
C2283 H2291 0.929 . S
C2284 C2283 1.383 . S
C2284 C2285 1.377 . S
C2285 H2269 0.930 . S
C2285 C2284 1.377 . S
C2285 C2286 1.379 . S
C2286 H2270 0.931 . S
C2286 C2280 1.383 . S
C2286 C2285 1.379 . S
H2287 C2281 0.959 . S
H2288 C2281 0.961 . S
H2289 C2281 0.960 . S
H2290 C2282 0.930 . S
H2291 C2283 0.929 . S
H2292 C2300 0.929 . S
H2293 C2302 0.930 . S
H2294 C2304 0.930 . S
H2295 C2307 0.929 . S
H2296 C2310 0.930 . S
H2297 C2312 0.960 . S
H2298 C2312 0.960 . S
H2299 C2312 0.960 . S
C2300 H2292 0.929 . S
C2300 C2301 1.377 . S
C2300 C2302 1.384 . S
C2301 C2300 1.377 . S
C2301 C2307 1.390 . S
C2302 H2293 0.930 . S
C2302 C2300 1.384 . S
C2302 C2303 1.372 . S
C2303 C2302 1.372 . S
C2303 C2304 1.400 . S
C2303 C2308 1.490 . S
C2304 H2294 0.930 . S
C2304 C2303 1.400 . S
C2304 C2307 1.386 . S
H2305 C2321 0.930 . S
H2306 C2322 0.931 . S
C2307 H2295 0.929 . S
C2307 C2301 1.390 . S
C2307 C2304 1.386 . S
C2308 C2303 1.490 . S
C2308 C2310 1.395 . S
C2308 C2311 1.403 . S
H2309 C2315 0.930 . S
C2310 H2296 0.930 . S
C2310 C2308 1.395 . S
C2310 C2313 1.403 . S
C2311 C2308 1.403 . S
C2311 C2312 1.524 . S
C2311 C2315 1.400 . S
C2312 H2297 0.960 . S
C2312 H2298 0.960 . S
C2312 H2299 0.960 . S
C2312 C2311 1.524 . S
C2313 C2310 1.403 . S
C2313 C2314 1.392 . S
C2313 C2317 1.495 . S
C2314 C2313 1.392 . S
C2314 C2315 1.385 . S
C2314 C2316 1.478 . S
C2315 H2309 0.930 . S
C2315 C2311 1.400 . S
C2315 C2314 1.385 . S
C2316 C2314 1.478 . S
C2316 C2318 1.381 . S
C2316 C2322 1.383 . S
C2317 C2313 1.495 . S
C2317 H2323 0.959 . S
C2317 H2324 0.961 . S
C2317 H2325 0.960 . S
C2318 C2316 1.381 . S
C2318 C2319 1.394 . S
C2318 H2326 0.930 . S
C2319 C2318 1.394 . S
C2319 C2320 1.383 . S
C2319 H2327 0.929 . S
C2320 C2319 1.383 . S
C2320 C2321 1.377 . S
C2321 H2305 0.930 . S
C2321 C2320 1.377 . S
C2321 C2322 1.379 . S
C2322 H2306 0.931 . S
C2322 C2316 1.383 . S
C2322 C2321 1.379 . S
H2323 C2317 0.959 . S
H2324 C2317 0.961 . S
H2325 C2317 0.960 . S
H2326 C2318 0.930 . S
H2327 C2319 0.929 . S
H2328 C2336 0.929 . S
H2329 C2338 0.930 . S
H2330 C2340 0.930 . S
H2331 C2343 0.929 . S
H2332 C2346 0.930 . S
H2333 C2348 0.960 . S
H2334 C2348 0.960 . S
H2335 C2348 0.960 . S
C2336 H2328 0.929 . S
C2336 C2337 1.377 . S
C2336 C2338 1.384 . S
C2337 C2336 1.377 . S
C2337 C2343 1.390 . S
C2338 H2329 0.930 . S
C2338 C2336 1.384 . S
C2338 C2339 1.372 . S
C2339 C2338 1.372 . S
C2339 C2340 1.400 . S
C2339 C2344 1.490 . S
C2340 H2330 0.930 . S
C2340 C2339 1.400 . S
C2340 C2343 1.386 . S
H2341 C2357 0.930 . S
H2342 C2358 0.931 . S
C2343 H2331 0.929 . S
C2343 C2337 1.390 . S
C2343 C2340 1.386 . S
C2344 C2339 1.490 . S
C2344 C2346 1.395 . S
C2344 C2347 1.403 . S
H2345 C2351 0.930 . S
C2346 H2332 0.930 . S
C2346 C2344 1.395 . S
C2346 C2349 1.403 . S
C2347 C2344 1.403 . S
C2347 C2348 1.524 . S
C2347 C2351 1.400 . S
C2348 H2333 0.960 . S
C2348 H2334 0.960 . S
C2348 H2335 0.960 . S
C2348 C2347 1.524 . S
C2349 C2346 1.403 . S
C2349 C2350 1.392 . S
C2349 C2353 1.495 . S
C2350 C2349 1.392 . S
C2350 C2351 1.385 . S
C2350 C2352 1.478 . S
C2351 H2345 0.930 . S
C2351 C2347 1.400 . S
C2351 C2350 1.385 . S
C2352 C2350 1.478 . S
C2352 C2354 1.381 . S
C2352 C2358 1.383 . S
C2353 C2349 1.495 . S
C2353 H2359 0.959 . S
C2353 H2360 0.961 . S
C2353 H2361 0.960 . S
C2354 C2352 1.381 . S
C2354 C2355 1.394 . S
C2354 H2362 0.930 . S
C2355 C2354 1.394 . S
C2355 C2356 1.383 . S
C2355 H2363 0.929 . S
C2356 C2355 1.383 . S
C2356 C2357 1.377 . S
C2357 H2341 0.930 . S
C2357 C2356 1.377 . S
C2357 C2358 1.379 . S
C2358 H2342 0.931 . S
C2358 C2352 1.383 . S
C2358 C2357 1.379 . S
H2359 C2353 0.959 . S
H2360 C2353 0.961 . S
H2361 C2353 0.960 . S
H2362 C2354 0.930 . S
H2363 C2355 0.929 . S
H2364 C2372 0.929 . S
H2365 C2374 0.930 . S
H2366 C2376 0.930 . S
H2367 C2379 0.929 . S
H2368 C2382 0.930 . S
H2369 C2384 0.960 . S
H2370 C2384 0.960 . S
H2371 C2384 0.960 . S
C2372 H2364 0.929 . S
C2372 C2373 1.377 . S
C2372 C2374 1.384 . S
C2373 C2372 1.377 . S
C2373 C2379 1.390 . S
C2374 H2365 0.930 . S
C2374 C2372 1.384 . S
C2374 C2375 1.372 . S
C2375 C2374 1.372 . S
C2375 C2376 1.400 . S
C2375 C2380 1.490 . S
C2376 H2366 0.930 . S
C2376 C2375 1.400 . S
C2376 C2379 1.386 . S
H2377 C2393 0.930 . S
H2378 C2394 0.931 . S
C2379 H2367 0.929 . S
C2379 C2373 1.390 . S
C2379 C2376 1.386 . S
C2380 C2375 1.490 . S
C2380 C2382 1.395 . S
C2380 C2383 1.403 . S
H2381 C2387 0.930 . S
C2382 H2368 0.930 . S
C2382 C2380 1.395 . S
C2382 C2385 1.403 . S
C2383 C2380 1.403 . S
C2383 C2384 1.524 . S
C2383 C2387 1.400 . S
C2384 H2369 0.960 . S
C2384 H2370 0.960 . S
C2384 H2371 0.960 . S
C2384 C2383 1.524 . S
C2385 C2382 1.403 . S
C2385 C2386 1.392 . S
C2385 C2389 1.495 . S
C2386 C2385 1.392 . S
C2386 C2387 1.385 . S
C2386 C2388 1.478 . S
C2387 H2381 0.930 . S
C2387 C2383 1.400 . S
C2387 C2386 1.385 . S
C2388 C2386 1.478 . S
C2388 C2390 1.381 . S
C2388 C2394 1.383 . S
C2389 C2385 1.495 . S
C2389 H2395 0.959 . S
C2389 H2396 0.961 . S
C2389 H2397 0.960 . S
C2390 C2388 1.381 . S
C2390 C2391 1.394 . S
C2390 H2398 0.930 . S
C2391 C2390 1.394 . S
C2391 C2392 1.383 . S
C2391 H2399 0.929 . S
C2392 C2391 1.383 . S
C2392 C2393 1.377 . S
C2393 H2377 0.930 . S
C2393 C2392 1.377 . S
C2393 C2394 1.379 . S
C2394 H2378 0.931 . S
C2394 C2388 1.383 . S
C2394 C2393 1.379 . S
H2395 C2389 0.959 . S
H2396 C2389 0.961 . S
H2397 C2389 0.960 . S
H2398 C2390 0.930 . S
H2399 C2391 0.929 . S
H2400 C2408 0.929 . S
H2401 C2410 0.930 . S
H2402 C2412 0.930 . S
H2403 C2415 0.929 . S
H2404 C2418 0.930 . S
H2405 C2420 0.960 . S
H2406 C2420 0.960 . S
H2407 C2420 0.960 . S
C2408 H2400 0.929 . S
C2408 C2409 1.377 . S
C2408 C2410 1.384 . S
C2409 C2408 1.377 . S
C2409 C2415 1.390 . S
C2410 H2401 0.930 . S
C2410 C2408 1.384 . S
C2410 C2411 1.372 . S
C2411 C2410 1.372 . S
C2411 C2412 1.400 . S
C2411 C2416 1.490 . S
C2412 H2402 0.930 . S
C2412 C2411 1.400 . S
C2412 C2415 1.386 . S
H2413 C2429 0.930 . S
H2414 C2430 0.931 . S
C2415 H2403 0.929 . S
C2415 C2409 1.390 . S
C2415 C2412 1.386 . S
C2416 C2411 1.490 . S
C2416 C2418 1.395 . S
C2416 C2419 1.403 . S
H2417 C2423 0.930 . S
C2418 H2404 0.930 . S
C2418 C2416 1.395 . S
C2418 C2421 1.403 . S
C2419 C2416 1.403 . S
C2419 C2420 1.524 . S
C2419 C2423 1.400 . S
C2420 H2405 0.960 . S
C2420 H2406 0.960 . S
C2420 H2407 0.960 . S
C2420 C2419 1.524 . S
C2421 C2418 1.403 . S
C2421 C2422 1.392 . S
C2421 C2425 1.495 . S
C2422 C2421 1.392 . S
C2422 C2423 1.385 . S
C2422 C2424 1.478 . S
C2423 H2417 0.930 . S
C2423 C2419 1.400 . S
C2423 C2422 1.385 . S
C2424 C2422 1.478 . S
C2424 C2426 1.381 . S
C2424 C2430 1.383 . S
C2425 C2421 1.495 . S
C2425 H2431 0.959 . S
C2425 H2432 0.961 . S
C2425 H2433 0.960 . S
C2426 C2424 1.381 . S
C2426 C2427 1.394 . S
C2426 H2434 0.930 . S
C2427 C2426 1.394 . S
C2427 C2428 1.383 . S
C2427 H2435 0.929 . S
C2428 C2427 1.383 . S
C2428 C2429 1.377 . S
C2429 H2413 0.930 . S
C2429 C2428 1.377 . S
C2429 C2430 1.379 . S
C2430 H2414 0.931 . S
C2430 C2424 1.383 . S
C2430 C2429 1.379 . S
H2431 C2425 0.959 . S
H2432 C2425 0.961 . S
H2433 C2425 0.960 . S
H2434 C2426 0.930 . S
H2435 C2427 0.929 . S
H2436 C2444 0.929 . S
H2437 C2446 0.930 . S
H2438 C2448 0.930 . S
H2439 C2451 0.929 . S
H2440 C2454 0.930 . S
H2441 C2456 0.960 . S
H2442 C2456 0.960 . S
H2443 C2456 0.960 . S
C2444 H2436 0.929 . S
C2444 C2445 1.377 . S
C2444 C2446 1.384 . S
C2445 C2444 1.377 . S
C2445 C2451 1.390 . S
C2446 H2437 0.930 . S
C2446 C2444 1.384 . S
C2446 C2447 1.372 . S
C2447 C2446 1.372 . S
C2447 C2448 1.400 . S
C2447 C2452 1.490 . S
C2448 H2438 0.930 . S
C2448 C2447 1.400 . S
C2448 C2451 1.386 . S
H2449 C2465 0.930 . S
H2450 C2466 0.931 . S
C2451 H2439 0.929 . S
C2451 C2445 1.390 . S
C2451 C2448 1.386 . S
C2452 C2447 1.490 . S
C2452 C2454 1.395 . S
C2452 C2455 1.403 . S
H2453 C2459 0.930 . S
C2454 H2440 0.930 . S
C2454 C2452 1.395 . S
C2454 C2457 1.403 . S
C2455 C2452 1.403 . S
C2455 C2456 1.524 . S
C2455 C2459 1.400 . S
C2456 H2441 0.960 . S
C2456 H2442 0.960 . S
C2456 H2443 0.960 . S
C2456 C2455 1.524 . S
C2457 C2454 1.403 . S
C2457 C2458 1.392 . S
C2457 C2461 1.495 . S
C2458 C2457 1.392 . S
C2458 C2459 1.385 . S
C2458 C2460 1.478 . S
C2459 H2453 0.930 . S
C2459 C2455 1.400 . S
C2459 C2458 1.385 . S
C2460 C2458 1.478 . S
C2460 C2462 1.381 . S
C2460 C2466 1.383 . S
C2461 C2457 1.495 . S
C2461 H2467 0.959 . S
C2461 H2468 0.961 . S
C2461 H2469 0.960 . S
C2462 C2460 1.381 . S
C2462 C2463 1.394 . S
C2462 H2470 0.930 . S
C2463 C2462 1.394 . S
C2463 C2464 1.383 . S
C2463 H2471 0.929 . S
C2464 C2463 1.383 . S
C2464 C2465 1.377 . S
C2465 H2449 0.930 . S
C2465 C2464 1.377 . S
C2465 C2466 1.379 . S
C2466 H2450 0.931 . S
C2466 C2460 1.383 . S
C2466 C2465 1.379 . S
H2467 C2461 0.959 . S
H2468 C2461 0.961 . S
H2469 C2461 0.960 . S
H2470 C2462 0.930 . S
H2471 C2463 0.929 . S
H2472 C2480 0.929 . S
H2473 C2482 0.930 . S
H2474 C2484 0.930 . S
H2475 C2487 0.929 . S
H2476 C2490 0.930 . S
H2477 C2492 0.960 . S
H2478 C2492 0.960 . S
H2479 C2492 0.960 . S
C2480 H2472 0.929 . S
C2480 C2481 1.377 . S
C2480 C2482 1.384 . S
C2481 C2480 1.377 . S
C2481 C2487 1.390 . S
C2482 H2473 0.930 . S
C2482 C2480 1.384 . S
C2482 C2483 1.372 . S
C2483 C2482 1.372 . S
C2483 C2484 1.400 . S
C2483 C2488 1.490 . S
C2484 H2474 0.930 . S
C2484 C2483 1.400 . S
C2484 C2487 1.386 . S
H2485 C2501 0.930 . S
H2486 C2502 0.931 . S
C2487 H2475 0.929 . S
C2487 C2481 1.390 . S
C2487 C2484 1.386 . S
C2488 C2483 1.490 . S
C2488 C2490 1.395 . S
C2488 C2491 1.403 . S
H2489 C2495 0.930 . S
C2490 H2476 0.930 . S
C2490 C2488 1.395 . S
C2490 C2493 1.403 . S
C2491 C2488 1.403 . S
C2491 C2492 1.524 . S
C2491 C2495 1.400 . S
C2492 H2477 0.960 . S
C2492 H2478 0.960 . S
C2492 H2479 0.960 . S
C2492 C2491 1.524 . S
C2493 C2490 1.403 . S
C2493 C2494 1.392 . S
C2493 C2497 1.495 . S
C2494 C2493 1.392 . S
C2494 C2495 1.385 . S
C2494 C2496 1.478 . S
C2495 H2489 0.930 . S
C2495 C2491 1.400 . S
C2495 C2494 1.385 . S
C2496 C2494 1.478 . S
C2496 C2498 1.381 . S
C2496 C2502 1.383 . S
C2497 C2493 1.495 . S
C2497 H2503 0.959 . S
C2497 H2504 0.961 . S
C2497 H2505 0.960 . S
C2498 C2496 1.381 . S
C2498 C2499 1.394 . S
C2498 H2506 0.930 . S
C2499 C2498 1.394 . S
C2499 C2500 1.383 . S
C2499 H2507 0.929 . S
C2500 C2499 1.383 . S
C2500 C2501 1.377 . S
C2501 H2485 0.930 . S
C2501 C2500 1.377 . S
C2501 C2502 1.379 . S
C2502 H2486 0.931 . S
C2502 C2496 1.383 . S
C2502 C2501 1.379 . S
H2503 C2497 0.959 . S
H2504 C2497 0.961 . S
H2505 C2497 0.960 . S
H2506 C2498 0.930 . S
H2507 C2499 0.929 . S
H2508 C2516 0.929 . S
H2509 C2518 0.930 . S
H2510 C2520 0.930 . S
H2511 C2523 0.929 . S
H2512 C2526 0.930 . S
H2513 C2528 0.960 . S
H2514 C2528 0.960 . S
H2515 C2528 0.960 . S
C2516 H2508 0.929 . S
C2516 C2517 1.377 . S
C2516 C2518 1.384 . S
C2517 C2516 1.377 . S
C2517 C2523 1.390 . S
C2518 H2509 0.930 . S
C2518 C2516 1.384 . S
C2518 C2519 1.372 . S
C2519 C2518 1.372 . S
C2519 C2520 1.400 . S
C2519 C2524 1.490 1_655 S
C2520 H2510 0.930 . S
C2520 C2519 1.400 . S
C2520 C2523 1.386 . S
H2521 C2537 0.930 . S
H2522 C2538 0.931 . S
C2523 H2511 0.929 . S
C2523 C2517 1.390 . S
C2523 C2520 1.386 . S
C2524 C2519 1.490 1_455 S
C2524 C2526 1.395 . S
C2524 C2527 1.403 . S
H2525 C2531 0.930 . S
C2526 H2512 0.930 . S
C2526 C2524 1.395 . S
C2526 C2529 1.403 . S
C2527 C2524 1.403 . S
C2527 C2528 1.524 . S
C2527 C2531 1.400 . S
C2528 H2513 0.960 . S
C2528 H2514 0.960 . S
C2528 H2515 0.960 . S
C2528 C2527 1.524 . S
C2529 C2526 1.403 . S
C2529 C2530 1.392 . S
C2529 C2533 1.495 . S
C2530 C2529 1.392 . S
C2530 C2531 1.385 . S
C2530 C2532 1.478 . S
C2531 H2525 0.930 . S
C2531 C2527 1.400 . S
C2531 C2530 1.385 . S
C2532 C2530 1.478 . S
C2532 C2534 1.381 . S
C2532 C2538 1.383 . S
C2533 C2529 1.495 . S
C2533 H2539 0.959 . S
C2533 H2540 0.961 . S
C2533 H2541 0.960 . S
C2534 C2532 1.381 . S
C2534 C2535 1.394 . S
C2534 H2542 0.930 . S
C2535 C2534 1.394 . S
C2535 C2536 1.383 . S
C2535 H2543 0.929 . S
C2536 C2535 1.383 . S
C2536 C2537 1.377 . S
C2537 H2521 0.930 . S
C2537 C2536 1.377 . S
C2537 C2538 1.379 . S
C2538 H2522 0.931 . S
C2538 C2532 1.383 . S
C2538 C2537 1.379 . S
H2539 C2533 0.959 . S
H2540 C2533 0.961 . S
H2541 C2533 0.960 . S
H2542 C2534 0.930 . S
H2543 C2535 0.929 . S
H2544 C2552 0.929 . S
H2545 C2554 0.930 . S
H2546 C2556 0.930 . S
H2547 C2559 0.929 . S
H2548 C2562 0.930 . S
H2549 C2564 0.960 . S
H2550 C2564 0.960 . S
H2551 C2564 0.960 . S
C2552 H2544 0.929 . S
C2552 C2553 1.377 . S
C2552 C2554 1.384 . S
C2553 C2552 1.377 . S
C2553 C2559 1.390 . S
C2554 H2545 0.930 . S
C2554 C2552 1.384 . S
C2554 C2555 1.372 . S
C2555 C2554 1.372 . S
C2555 C2556 1.400 . S
C2555 C2560 1.490 . S
C2556 H2546 0.930 . S
C2556 C2555 1.400 . S
C2556 C2559 1.386 . S
H2557 C2573 0.930 . S
H2558 C2574 0.931 . S
C2559 H2547 0.929 . S
C2559 C2553 1.390 . S
C2559 C2556 1.386 . S
C2560 C2555 1.490 . S
C2560 C2562 1.395 . S
C2560 C2563 1.403 . S
H2561 C2567 0.930 . S
C2562 H2548 0.930 . S
C2562 C2560 1.395 . S
C2562 C2565 1.403 . S
C2563 C2560 1.403 . S
C2563 C2564 1.524 . S
C2563 C2567 1.400 . S
C2564 H2549 0.960 . S
C2564 H2550 0.960 . S
C2564 H2551 0.960 . S
C2564 C2563 1.524 . S
C2565 C2562 1.403 . S
C2565 C2566 1.392 . S
C2565 C2569 1.495 . S
C2566 C2565 1.392 . S
C2566 C2567 1.385 . S
C2566 C2568 1.478 . S
C2567 H2561 0.930 . S
C2567 C2563 1.400 . S
C2567 C2566 1.385 . S
C2568 C2566 1.478 . S
C2568 C2570 1.381 . S
C2568 C2574 1.383 . S
C2569 C2565 1.495 . S
C2569 H2575 0.959 . S
C2569 H2576 0.961 . S
C2569 H2577 0.960 . S
C2570 C2568 1.381 . S
C2570 C2571 1.394 . S
C2570 H2578 0.930 . S
C2571 C2570 1.394 . S
C2571 C2572 1.383 . S
C2571 H2579 0.929 . S
C2572 C2571 1.383 . S
C2572 C2573 1.377 . S
C2573 H2557 0.930 . S
C2573 C2572 1.377 . S
C2573 C2574 1.379 . S
C2574 H2558 0.931 . S
C2574 C2568 1.383 . S
C2574 C2573 1.379 . S
H2575 C2569 0.959 . S
H2576 C2569 0.961 . S
H2577 C2569 0.960 . S
H2578 C2570 0.930 . S
H2579 C2571 0.929 . S
H2580 C2588 0.929 . S
H2581 C2590 0.930 . S
H2582 C2592 0.930 . S
H2583 C2595 0.929 . S
H2584 C2598 0.930 . S
H2585 C2600 0.960 . S
H2586 C2600 0.960 . S
H2587 C2600 0.960 . S
C2588 H2580 0.929 . S
C2588 C2589 1.377 . S
C2588 C2590 1.384 . S
C2589 C2588 1.377 . S
C2589 C2595 1.390 . S
C2590 H2581 0.930 . S
C2590 C2588 1.384 . S
C2590 C2591 1.372 . S
C2591 C2590 1.372 . S
C2591 C2592 1.400 . S
C2591 C2596 1.490 . S
C2592 H2582 0.930 . S
C2592 C2591 1.400 . S
C2592 C2595 1.386 . S
H2593 C2609 0.930 . S
H2594 C2610 0.931 . S
C2595 H2583 0.929 . S
C2595 C2589 1.390 . S
C2595 C2592 1.386 . S
C2596 C2591 1.490 . S
C2596 C2598 1.395 . S
C2596 C2599 1.403 . S
H2597 C2603 0.930 1_655 S
C2598 H2584 0.930 . S
C2598 C2596 1.395 . S
C2598 C2601 1.403 . S
C2599 C2596 1.403 . S
C2599 C2600 1.524 . S
C2599 C2603 1.400 . S
C2600 H2585 0.960 . S
C2600 H2586 0.960 . S
C2600 H2587 0.960 . S
C2600 C2599 1.524 . S
C2601 C2598 1.403 . S
C2601 C2602 1.392 1_455 S
C2601 C2605 1.495 . S
C2602 C2601 1.392 1_655 S
C2602 C2603 1.385 1_655 S
C2602 C2604 1.478 . S
C2603 H2597 0.930 1_455 S
C2603 C2599 1.400 . S
C2603 C2602 1.385 1_455 S
C2604 C2602 1.478 . S
C2604 C2606 1.381 . S
C2604 C2610 1.383 . S
C2605 C2601 1.495 . S
C2605 H2611 0.959 . S
C2605 H2612 0.961 1_455 S
C2605 H2613 0.959 1_455 S
C2606 C2604 1.381 . S
C2606 C2607 1.394 . S
C2606 H2614 0.930 . S
C2607 C2606 1.394 . S
C2607 C2608 1.383 . S
C2607 H2615 0.929 . S
C2608 C2607 1.383 . S
C2608 C2609 1.377 . S
C2609 H2593 0.930 . S
C2609 C2608 1.377 . S
C2609 C2610 1.379 . S
C2610 H2594 0.931 . S
C2610 C2604 1.383 . S
C2610 C2609 1.379 . S
H2611 C2605 0.959 . S
H2612 C2605 0.961 1_655 S
H2613 C2605 0.959 1_655 S
H2614 C2606 0.930 . S
H2615 C2607 0.929 . S
H2616 C2624 0.929 . S
H2617 C2626 0.930 . S
H2618 C2628 0.930 . S
H2619 C2631 0.929 . S
H2620 C2634 0.930 . S
H2621 C2636 0.960 . S
H2622 C2636 0.960 . S
H2623 C2636 0.960 . S
C2624 H2616 0.929 . S
C2624 C2625 1.377 . S
C2624 C2626 1.384 . S
C2625 C2624 1.377 . S
C2625 C2631 1.390 . S
C2626 H2617 0.930 . S
C2626 C2624 1.384 . S
C2626 C2627 1.372 . S
C2627 C2626 1.372 . S
C2627 C2628 1.400 . S
C2627 C2632 1.490 . S
C2628 H2618 0.930 . S
C2628 C2627 1.400 . S
C2628 C2631 1.386 . S
H2629 C2645 0.930 . S
H2630 C2646 0.931 . S
C2631 H2619 0.929 . S
C2631 C2625 1.390 . S
C2631 C2628 1.386 . S
C2632 C2627 1.490 . S
C2632 C2634 1.395 . S
C2632 C2635 1.403 . S
H2633 C2639 0.930 . S
C2634 H2620 0.930 . S
C2634 C2632 1.395 . S
C2634 C2637 1.403 . S
C2635 C2632 1.403 . S
C2635 C2636 1.524 . S
C2635 C2639 1.400 . S
C2636 H2621 0.960 . S
C2636 H2622 0.960 . S
C2636 H2623 0.960 . S
C2636 C2635 1.524 . S
C2637 C2634 1.403 . S
C2637 C2638 1.392 . S
C2637 C2641 1.495 . S
C2638 C2637 1.392 . S
C2638 C2639 1.385 . S
C2638 C2640 1.478 . S
C2639 H2633 0.930 . S
C2639 C2635 1.400 . S
C2639 C2638 1.385 . S
C2640 C2638 1.478 . S
C2640 C2642 1.381 . S
C2640 C2646 1.383 . S
C2641 C2637 1.495 . S
C2641 H2647 0.959 . S
C2641 H2648 0.961 . S
C2641 H2649 0.960 . S
C2642 C2640 1.381 . S
C2642 C2643 1.394 . S
C2642 H2650 0.930 . S
C2643 C2642 1.394 . S
C2643 C2644 1.383 . S
C2643 H2651 0.929 . S
C2644 C2643 1.383 . S
C2644 C2645 1.377 . S
C2645 H2629 0.930 . S
C2645 C2644 1.377 . S
C2645 C2646 1.379 . S
C2646 H2630 0.931 . S
C2646 C2640 1.383 . S
C2646 C2645 1.379 . S
H2647 C2641 0.959 . S
H2648 C2641 0.961 . S
H2649 C2641 0.960 . S
H2650 C2642 0.930 . S
H2651 C2643 0.929 . S
H2652 C2660 0.929 . S
H2653 C2662 0.930 . S
H2654 C2664 0.930 . S
H2655 C2667 0.929 . S
H2656 C2670 0.930 . S
H2657 C2672 0.960 . S
H2658 C2672 0.960 . S
H2659 C2672 0.960 . S
C2660 H2652 0.929 . S
C2660 C2661 1.377 . S
C2660 C2662 1.384 . S
C2661 C2660 1.377 . S
C2661 C2667 1.390 . S
C2662 H2653 0.930 . S
C2662 C2660 1.384 . S
C2662 C2663 1.372 . S
C2663 C2662 1.372 . S
C2663 C2664 1.400 . S
C2663 C2668 1.490 . S
C2664 H2654 0.930 . S
C2664 C2663 1.400 . S
C2664 C2667 1.386 . S
H2665 C2681 0.930 . S
H2666 C2682 0.931 . S
C2667 H2655 0.929 . S
C2667 C2661 1.390 . S
C2667 C2664 1.386 . S
C2668 C2663 1.490 . S
C2668 C2670 1.395 . S
C2668 C2671 1.403 . S
H2669 C2675 0.930 . S
C2670 H2656 0.930 . S
C2670 C2668 1.395 . S
C2670 C2673 1.403 . S
C2671 C2668 1.403 . S
C2671 C2672 1.524 . S
C2671 C2675 1.400 . S
C2672 H2657 0.960 . S
C2672 H2658 0.960 . S
C2672 H2659 0.960 . S
C2672 C2671 1.524 . S
C2673 C2670 1.403 . S
C2673 C2674 1.392 . S
C2673 C2677 1.495 . S
C2674 C2673 1.392 . S
C2674 C2675 1.385 . S
C2674 C2676 1.478 . S
C2675 H2669 0.930 . S
C2675 C2671 1.400 . S
C2675 C2674 1.385 . S
C2676 C2674 1.478 . S
C2676 C2678 1.381 . S
C2676 C2682 1.383 . S
C2677 C2673 1.495 . S
C2677 H2683 0.959 . S
C2677 H2684 0.961 . S
C2677 H2685 0.960 . S
C2678 C2676 1.381 . S
C2678 C2679 1.394 . S
C2678 H2686 0.930 . S
C2679 C2678 1.394 . S
C2679 C2680 1.383 . S
C2679 H2687 0.929 . S
C2680 C2679 1.383 . S
C2680 C2681 1.377 . S
C2681 H2665 0.930 . S
C2681 C2680 1.377 . S
C2681 C2682 1.379 . S
C2682 H2666 0.931 . S
C2682 C2676 1.383 . S
C2682 C2681 1.379 . S
H2683 C2677 0.959 . S
H2684 C2677 0.961 . S
H2685 C2677 0.960 . S
H2686 C2678 0.930 . S
H2687 C2679 0.929 . S
H2688 C2696 0.929 . S
H2689 C2698 0.930 . S
H2690 C2700 0.930 . S
H2691 C2703 0.929 . S
H2692 C2706 0.930 . S
H2693 C2708 0.960 . S
H2694 C2708 0.960 . S
H2695 C2708 0.960 . S
C2696 H2688 0.929 . S
C2696 C2697 1.377 . S
C2696 C2698 1.384 . S
C2697 C2696 1.377 . S
C2697 C2703 1.390 . S
C2698 H2689 0.930 . S
C2698 C2696 1.384 . S
C2698 C2699 1.372 . S
C2699 C2698 1.372 . S
C2699 C2700 1.400 . S
C2699 C2704 1.490 . S
C2700 H2690 0.930 . S
C2700 C2699 1.400 . S
C2700 C2703 1.386 . S
H2701 C2717 0.930 . S
H2702 C2718 0.931 . S
C2703 H2691 0.929 . S
C2703 C2697 1.390 . S
C2703 C2700 1.386 . S
C2704 C2699 1.490 . S
C2704 C2706 1.395 . S
C2704 C2707 1.403 . S
H2705 C2711 0.930 . S
C2706 H2692 0.930 . S
C2706 C2704 1.395 . S
C2706 C2709 1.403 . S
C2707 C2704 1.403 . S
C2707 C2708 1.524 . S
C2707 C2711 1.400 . S
C2708 H2693 0.960 . S
C2708 H2694 0.960 . S
C2708 H2695 0.960 . S
C2708 C2707 1.524 . S
C2709 C2706 1.403 . S
C2709 C2710 1.392 . S
C2709 C2713 1.495 . S
C2710 C2709 1.392 . S
C2710 C2711 1.385 . S
C2710 C2712 1.478 . S
C2711 H2705 0.930 . S
C2711 C2707 1.400 . S
C2711 C2710 1.385 . S
C2712 C2710 1.478 . S
C2712 C2714 1.381 . S
C2712 C2718 1.383 . S
C2713 C2709 1.495 . S
C2713 H2719 0.959 . S
C2713 H2720 0.961 . S
C2713 H2721 0.960 . S
C2714 C2712 1.381 . S
C2714 C2715 1.394 . S
C2714 H2722 0.930 . S
C2715 C2714 1.394 . S
C2715 C2716 1.383 . S
C2715 H2723 0.929 . S
C2716 C2715 1.383 . S
C2716 C2717 1.377 . S
C2717 H2701 0.930 . S
C2717 C2716 1.377 . S
C2717 C2718 1.379 . S
C2718 H2702 0.931 . S
C2718 C2712 1.383 . S
C2718 C2717 1.379 . S
H2719 C2713 0.959 . S
H2720 C2713 0.961 . S
H2721 C2713 0.960 . S
H2722 C2714 0.930 . S
H2723 C2715 0.929 . S
H2724 C2732 0.929 . S
H2725 C2734 0.930 . S
H2726 C2736 0.930 . S
H2727 C2739 0.929 . S
H2728 C2742 0.930 . S
H2729 C2744 0.960 . S
H2730 C2744 0.960 . S
H2731 C2744 0.960 . S
C2732 H2724 0.929 . S
C2732 C2733 1.377 . S
C2732 C2734 1.384 . S
C2733 C2732 1.377 . S
C2733 C2739 1.390 . S
C2734 H2725 0.930 . S
C2734 C2732 1.384 . S
C2734 C2735 1.372 . S
C2735 C2734 1.372 . S
C2735 C2736 1.400 . S
C2735 C2740 1.490 . S
C2736 H2726 0.930 . S
C2736 C2735 1.400 . S
C2736 C2739 1.386 . S
H2737 C2753 0.930 . S
H2738 C2754 0.931 . S
C2739 H2727 0.929 . S
C2739 C2733 1.390 . S
C2739 C2736 1.386 . S
C2740 C2735 1.490 . S
C2740 C2742 1.395 . S
C2740 C2743 1.403 . S
H2741 C2747 0.930 . S
C2742 H2728 0.930 . S
C2742 C2740 1.395 . S
C2742 C2745 1.403 . S
C2743 C2740 1.403 . S
C2743 C2744 1.524 . S
C2743 C2747 1.400 . S
C2744 H2729 0.960 . S
C2744 H2730 0.960 . S
C2744 H2731 0.960 . S
C2744 C2743 1.524 . S
C2745 C2742 1.403 . S
C2745 C2746 1.392 . S
C2745 C2749 1.495 . S
C2746 C2745 1.392 . S
C2746 C2747 1.385 . S
C2746 C2748 1.478 1_554 S
C2747 H2741 0.930 . S
C2747 C2743 1.400 . S
C2747 C2746 1.385 . S
C2748 C2746 1.478 1_556 S
C2748 C2750 1.381 . S
C2748 C2754 1.383 . S
C2749 C2745 1.495 . S
C2749 H2755 0.959 . S
C2749 H2756 0.961 1_554 S
C2749 H2757 0.960 1_554 S
C2750 C2748 1.381 . S
C2750 C2751 1.394 . S
C2750 H2758 0.930 . S
C2751 C2750 1.394 . S
C2751 C2752 1.383 . S
C2751 H2759 0.929 . S
C2752 C2751 1.383 . S
C2752 C2753 1.377 . S
C2753 H2737 0.930 . S
C2753 C2752 1.377 . S
C2753 C2754 1.379 . S
C2754 H2738 0.931 . S
C2754 C2748 1.383 . S
C2754 C2753 1.379 . S
H2755 C2749 0.959 . S
H2756 C2749 0.961 1_556 S
H2757 C2749 0.960 1_556 S
H2758 C2750 0.930 . S
H2759 C2751 0.929 . S
H2760 C2768 0.929 . S
H2761 C2770 0.930 . S
H2762 C2772 0.930 . S
H2763 C2775 0.929 . S
H2764 C2778 0.930 . S
H2765 C2780 0.960 . S
H2766 C2780 0.960 . S
H2767 C2780 0.960 . S
C2768 H2760 0.929 . S
C2768 C2769 1.377 . S
C2768 C2770 1.384 . S
C2769 C2768 1.377 . S
C2769 C2775 1.390 . S
C2770 H2761 0.930 . S
C2770 C2768 1.384 . S
C2770 C2771 1.372 . S
C2771 C2770 1.372 . S
C2771 C2772 1.400 . S
C2771 C2776 1.490 . S
C2772 H2762 0.930 . S
C2772 C2771 1.400 . S
C2772 C2775 1.386 . S
H2773 C2789 0.930 . S
H2774 C2790 0.931 . S
C2775 H2763 0.929 . S
C2775 C2769 1.390 . S
C2775 C2772 1.386 . S
C2776 C2771 1.490 . S
C2776 C2778 1.395 . S
C2776 C2779 1.403 . S
H2777 C2783 0.930 . S
C2778 H2764 0.930 . S
C2778 C2776 1.395 . S
C2778 C2781 1.403 . S
C2779 C2776 1.403 . S
C2779 C2780 1.524 . S
C2779 C2783 1.400 . S
C2780 H2765 0.960 . S
C2780 H2766 0.960 . S
C2780 H2767 0.960 . S
C2780 C2779 1.524 . S
C2781 C2778 1.403 . S
C2781 C2782 1.392 . S
C2781 C2785 1.495 . S
C2782 C2781 1.392 . S
C2782 C2783 1.385 . S
C2782 C2784 1.478 . S
C2783 H2777 0.930 . S
C2783 C2779 1.400 . S
C2783 C2782 1.385 . S
C2784 C2782 1.478 . S
C2784 C2786 1.381 . S
C2784 C2790 1.383 . S
C2785 C2781 1.495 . S
C2785 H2791 0.959 . S
C2785 H2792 0.961 . S
C2785 H2793 0.960 . S
C2786 C2784 1.381 . S
C2786 C2787 1.394 . S
C2786 H2794 0.930 . S
C2787 C2786 1.394 . S
C2787 C2788 1.383 . S
C2787 H2795 0.929 . S
C2788 C2787 1.383 . S
C2788 C2789 1.377 . S
C2789 H2773 0.930 . S
C2789 C2788 1.377 . S
C2789 C2790 1.379 . S
C2790 H2774 0.931 . S
C2790 C2784 1.383 . S
C2790 C2789 1.379 . S
H2791 C2785 0.959 . S
H2792 C2785 0.961 . S
H2793 C2785 0.960 . S
H2794 C2786 0.930 . S
H2795 C2787 0.929 . S
H2796 C2804 0.929 . S
H2797 C2806 0.930 . S
H2798 C2808 0.930 . S
H2799 C2811 0.929 . S
H2800 C2814 0.930 . S
H2801 C2816 0.960 . S
H2802 C2816 0.960 . S
H2803 C2816 0.960 . S
C2804 H2796 0.929 . S
C2804 C2805 1.377 . S
C2804 C2806 1.384 . S
C2805 C2804 1.377 . S
C2805 C2811 1.390 . S
C2806 H2797 0.930 . S
C2806 C2804 1.384 . S
C2806 C2807 1.372 . S
C2807 C2806 1.372 . S
C2807 C2808 1.400 . S
C2807 C2812 1.490 . S
C2808 H2798 0.930 . S
C2808 C2807 1.400 . S
C2808 C2811 1.386 . S
H2809 C2825 0.930 . S
H2810 C2826 0.931 . S
C2811 H2799 0.929 . S
C2811 C2805 1.390 . S
C2811 C2808 1.386 . S
C2812 C2807 1.490 . S
C2812 C2814 1.395 . S
C2812 C2815 1.403 . S
H2813 C2819 0.930 . S
C2814 H2800 0.930 . S
C2814 C2812 1.395 . S
C2814 C2817 1.403 . S
C2815 C2812 1.403 . S
C2815 C2816 1.524 . S
C2815 C2819 1.400 . S
C2816 H2801 0.960 . S
C2816 H2802 0.960 . S
C2816 H2803 0.960 . S
C2816 C2815 1.524 . S
C2817 C2814 1.403 . S
C2817 C2818 1.392 . S
C2817 C2821 1.495 . S
C2818 C2817 1.392 . S
C2818 C2819 1.385 . S
C2818 C2820 1.478 . S
C2819 H2813 0.930 . S
C2819 C2815 1.400 . S
C2819 C2818 1.385 . S
C2820 C2818 1.478 . S
C2820 C2822 1.381 . S
C2820 C2826 1.383 . S
C2821 C2817 1.495 . S
C2821 H2827 0.959 . S
C2821 H2828 0.961 . S
C2821 H2829 0.960 . S
C2822 C2820 1.381 . S
C2822 C2823 1.394 . S
C2822 H2830 0.930 . S
C2823 C2822 1.394 . S
C2823 C2824 1.383 . S
C2823 H2831 0.929 . S
C2824 C2823 1.383 . S
C2824 C2825 1.377 . S
C2825 H2809 0.930 . S
C2825 C2824 1.377 . S
C2825 C2826 1.379 . S
C2826 H2810 0.931 . S
C2826 C2820 1.383 . S
C2826 C2825 1.379 . S
H2827 C2821 0.959 . S
H2828 C2821 0.961 . S
H2829 C2821 0.960 . S
H2830 C2822 0.930 . S
H2831 C2823 0.929 . S
H2832 C2840 0.929 . S
H2833 C2842 0.930 . S
H2834 C2844 0.930 . S
H2835 C2847 0.929 . S
H2836 C2850 0.930 . S
H2837 C2852 0.960 . S
H2838 C2852 0.960 . S
H2839 C2852 0.960 . S
C2840 H2832 0.929 . S
C2840 C2841 1.377 . S
C2840 C2842 1.384 . S
C2841 C2840 1.377 . S
C2841 C2847 1.390 . S
C2842 H2833 0.930 . S
C2842 C2840 1.384 . S
C2842 C2843 1.372 . S
C2843 C2842 1.372 . S
C2843 C2844 1.400 . S
C2843 C2848 1.490 . S
C2844 H2834 0.930 . S
C2844 C2843 1.400 . S
C2844 C2847 1.386 . S
H2845 C2861 0.930 . S
H2846 C2862 0.931 . S
C2847 H2835 0.929 . S
C2847 C2841 1.390 . S
C2847 C2844 1.386 . S
C2848 C2843 1.490 . S
C2848 C2850 1.395 . S
C2848 C2851 1.403 . S
H2849 C2855 0.930 . S
C2850 H2836 0.930 . S
C2850 C2848 1.395 . S
C2850 C2853 1.403 . S
C2851 C2848 1.403 . S
C2851 C2852 1.524 . S
C2851 C2855 1.400 . S
C2852 H2837 0.960 . S
C2852 H2838 0.960 . S
C2852 H2839 0.960 . S
C2852 C2851 1.524 . S
C2853 C2850 1.403 . S
C2853 C2854 1.392 . S
C2853 C2857 1.495 . S
C2854 C2853 1.392 . S
C2854 C2855 1.385 . S
C2854 C2856 1.478 . S
C2855 H2849 0.930 . S
C2855 C2851 1.400 . S
C2855 C2854 1.385 . S
C2856 C2854 1.478 . S
C2856 C2858 1.381 . S
C2856 C2862 1.383 . S
C2857 C2853 1.495 . S
C2857 H2863 0.959 . S
C2857 H2864 0.961 . S
C2857 H2865 0.960 . S
C2858 C2856 1.381 . S
C2858 C2859 1.394 . S
C2858 H2866 0.930 . S
C2859 C2858 1.394 . S
C2859 C2860 1.383 . S
C2859 H2867 0.929 . S
C2860 C2859 1.383 . S
C2860 C2861 1.377 . S
C2861 H2845 0.930 . S
C2861 C2860 1.377 . S
C2861 C2862 1.379 . S
C2862 H2846 0.931 . S
C2862 C2856 1.383 . S
C2862 C2861 1.379 . S
H2863 C2857 0.959 . S
H2864 C2857 0.961 . S
H2865 C2857 0.960 . S
H2866 C2858 0.930 . S
H2867 C2859 0.929 . S
H2868 C2876 0.929 . S
H2869 C2878 0.930 . S
H2870 C2880 0.930 . S
H2871 C2883 0.929 . S
H2872 C2886 0.930 . S
H2873 C2888 0.960 . S
H2874 C2888 0.960 . S
H2875 C2888 0.960 . S
C2876 H2868 0.929 . S
C2876 C2877 1.377 . S
C2876 C2878 1.384 . S
C2877 C2876 1.377 . S
C2877 C2883 1.390 . S
C2878 H2869 0.930 . S
C2878 C2876 1.384 . S
C2878 C2879 1.372 . S
C2879 C2878 1.372 . S
C2879 C2880 1.400 . S
C2879 C2884 1.490 . S
C2880 H2870 0.930 . S
C2880 C2879 1.400 . S
C2880 C2883 1.386 . S
H2881 C2897 0.930 . S
H2882 C2898 0.931 . S
C2883 H2871 0.929 . S
C2883 C2877 1.390 . S
C2883 C2880 1.386 . S
C2884 C2879 1.490 . S
C2884 C2886 1.395 . S
C2884 C2887 1.403 . S
H2885 C2891 0.930 . S
C2886 H2872 0.930 . S
C2886 C2884 1.395 . S
C2886 C2889 1.403 . S
C2887 C2884 1.403 . S
C2887 C2888 1.524 . S
C2887 C2891 1.400 . S
C2888 H2873 0.960 . S
C2888 H2874 0.960 . S
C2888 H2875 0.960 . S
C2888 C2887 1.524 . S
C2889 C2886 1.403 . S
C2889 C2890 1.392 . S
C2889 C2893 1.495 . S
C2890 C2889 1.392 . S
C2890 C2891 1.385 . S
C2890 C2892 1.478 1_556 S
C2891 H2885 0.930 . S
C2891 C2887 1.400 . S
C2891 C2890 1.385 . S
C2892 C2890 1.478 1_554 S
C2892 C2894 1.381 . S
C2892 C2898 1.383 . S
C2893 C2889 1.495 . S
C2893 H2899 0.959 . S
C2893 H2900 0.961 1_556 S
C2893 H2901 0.960 1_556 S
C2894 C2892 1.381 . S
C2894 C2895 1.394 . S
C2894 H2902 0.930 . S
C2895 C2894 1.394 . S
C2895 C2896 1.383 . S
C2895 H2903 0.929 . S
C2896 C2895 1.383 . S
C2896 C2897 1.377 . S
C2897 H2881 0.930 . S
C2897 C2896 1.377 . S
C2897 C2898 1.379 . S
C2898 H2882 0.931 . S
C2898 C2892 1.383 . S
C2898 C2897 1.379 . S
H2899 C2893 0.959 . S
H2900 C2893 0.961 1_554 S
H2901 C2893 0.960 1_554 S
H2902 C2894 0.930 . S
H2903 C2895 0.929 . S
H2904 C2912 0.929 . S
H2905 C2914 0.930 . S
H2906 C2916 0.930 . S
H2907 C2919 0.929 . S
H2908 C2922 0.930 . S
H2909 C2924 0.960 . S
H2910 C2924 0.960 . S
H2911 C2924 0.960 . S
C2912 H2904 0.929 . S
C2912 C2913 1.377 . S
C2912 C2914 1.384 . S
C2913 C2912 1.377 . S
C2913 C2919 1.390 . S
C2914 H2905 0.930 . S
C2914 C2912 1.384 . S
C2914 C2915 1.372 . S
C2915 C2914 1.372 . S
C2915 C2916 1.400 . S
C2915 C2920 1.490 . S
C2916 H2906 0.930 . S
C2916 C2915 1.400 . S
C2916 C2919 1.386 . S
H2917 C2933 0.930 . S
H2918 C2934 0.931 . S
C2919 H2907 0.929 . S
C2919 C2913 1.390 . S
C2919 C2916 1.386 . S
C2920 C2915 1.490 . S
C2920 C2922 1.395 . S
C2920 C2923 1.403 . S
H2921 C2927 0.930 . S
C2922 H2908 0.930 . S
C2922 C2920 1.395 . S
C2922 C2925 1.403 . S
C2923 C2920 1.403 . S
C2923 C2924 1.524 . S
C2923 C2927 1.400 . S
C2924 H2909 0.960 . S
C2924 H2910 0.960 . S
C2924 H2911 0.960 . S
C2924 C2923 1.524 . S
C2925 C2922 1.403 . S
C2925 C2926 1.392 . S
C2925 C2929 1.495 . S
C2926 C2925 1.392 . S
C2926 C2927 1.385 . S
C2926 C2928 1.478 . S
C2927 H2921 0.930 . S
C2927 C2923 1.400 . S
C2927 C2926 1.385 . S
C2928 C2926 1.478 . S
C2928 C2930 1.381 . S
C2928 C2934 1.383 . S
C2929 C2925 1.495 . S
C2929 H2935 0.959 . S
C2929 H2936 0.961 . S
C2929 H2937 0.960 . S
C2930 C2928 1.381 . S
C2930 C2931 1.394 . S
C2930 H2938 0.930 . S
C2931 C2930 1.394 . S
C2931 C2932 1.383 . S
C2931 H2939 0.929 . S
C2932 C2931 1.383 . S
C2932 C2933 1.377 . S
C2933 H2917 0.930 . S
C2933 C2932 1.377 . S
C2933 C2934 1.379 . S
C2934 H2918 0.931 . S
C2934 C2928 1.383 . S
C2934 C2933 1.379 . S
H2935 C2929 0.959 . S
H2936 C2929 0.961 . S
H2937 C2929 0.960 . S
H2938 C2930 0.930 . S
H2939 C2931 0.929 . S
H2940 C2948 0.929 . S
H2941 C2950 0.930 . S
H2942 C2952 0.930 . S
H2943 C2955 0.929 . S
H2944 C2958 0.930 . S
H2945 C2960 0.960 . S
H2946 C2960 0.960 . S
H2947 C2960 0.960 . S
C2948 H2940 0.929 . S
C2948 C2949 1.377 . S
C2948 C2950 1.384 . S
C2949 C2948 1.377 . S
C2949 C2955 1.390 . S
C2950 H2941 0.930 . S
C2950 C2948 1.384 . S
C2950 C2951 1.372 . S
C2951 C2950 1.372 . S
C2951 C2952 1.400 . S
C2951 C2956 1.490 . S
C2952 H2942 0.930 . S
C2952 C2951 1.400 . S
C2952 C2955 1.386 . S
H2953 C2969 0.930 . S
H2954 C2970 0.931 . S
C2955 H2943 0.929 . S
C2955 C2949 1.390 . S
C2955 C2952 1.386 . S
C2956 C2951 1.490 . S
C2956 C2958 1.395 . S
C2956 C2959 1.403 . S
H2957 C2963 0.930 . S
C2958 H2944 0.930 . S
C2958 C2956 1.395 . S
C2958 C2961 1.403 . S
C2959 C2956 1.403 . S
C2959 C2960 1.524 . S
C2959 C2963 1.400 . S
C2960 H2945 0.960 . S
C2960 H2946 0.960 . S
C2960 H2947 0.960 . S
C2960 C2959 1.524 . S
C2961 C2958 1.403 . S
C2961 C2962 1.392 . S
C2961 C2965 1.495 . S
C2962 C2961 1.392 . S
C2962 C2963 1.385 . S
C2962 C2964 1.478 . S
C2963 H2957 0.930 . S
C2963 C2959 1.400 . S
C2963 C2962 1.385 . S
C2964 C2962 1.478 . S
C2964 C2966 1.381 . S
C2964 C2970 1.383 . S
C2965 C2961 1.495 . S
C2965 H2971 0.959 . S
C2965 H2972 0.961 . S
C2965 H2973 0.960 . S
C2966 C2964 1.381 . S
C2966 C2967 1.394 . S
C2966 H2974 0.930 . S
C2967 C2966 1.394 . S
C2967 C2968 1.383 . S
C2967 H2975 0.929 . S
C2968 C2967 1.383 . S
C2968 C2969 1.377 . S
C2969 H2953 0.930 . S
C2969 C2968 1.377 . S
C2969 C2970 1.379 . S
C2970 H2954 0.931 . S
C2970 C2964 1.383 . S
C2970 C2969 1.379 . S
H2971 C2965 0.959 . S
H2972 C2965 0.961 . S
H2973 C2965 0.960 . S
H2974 C2966 0.930 . S
H2975 C2967 0.929 . S
H2976 C2984 0.929 . S
H2977 C2986 0.930 . S
H2978 C2988 0.930 . S
H2979 C2991 0.929 . S
H2980 C2994 0.930 . S
H2981 C2996 0.960 . S
H2982 C2996 0.960 . S
H2983 C2996 0.960 . S
C2984 H2976 0.929 . S
C2984 C2985 1.377 . S
C2984 C2986 1.384 . S
C2985 C2984 1.377 . S
C2985 C2991 1.390 . S
C2986 H2977 0.930 . S
C2986 C2984 1.384 . S
C2986 C2987 1.372 . S
C2987 C2986 1.372 . S
C2987 C2988 1.400 . S
C2987 C2992 1.490 . S
C2988 H2978 0.930 . S
C2988 C2987 1.400 . S
C2988 C2991 1.386 . S
H2989 C3005 0.930 . S
H2990 C3006 0.931 . S
C2991 H2979 0.929 . S
C2991 C2985 1.390 . S
C2991 C2988 1.386 . S
C2992 C2987 1.490 . S
C2992 C2994 1.395 . S
C2992 C2995 1.403 . S
H2993 C2999 0.930 . S
C2994 H2980 0.930 . S
C2994 C2992 1.395 . S
C2994 C2997 1.403 . S
C2995 C2992 1.403 . S
C2995 C2996 1.524 . S
C2995 C2999 1.400 . S
C2996 H2981 0.960 . S
C2996 H2982 0.960 . S
C2996 H2983 0.960 . S
C2996 C2995 1.524 . S
C2997 C2994 1.403 . S
C2997 C2998 1.392 . S
C2997 C3001 1.495 . S
C2998 C2997 1.392 . S
C2998 C2999 1.385 . S
C2998 C3000 1.478 . S
C2999 H2993 0.930 . S
C2999 C2995 1.400 . S
C2999 C2998 1.385 . S
C3000 C2998 1.478 . S
C3000 C3002 1.381 . S
C3000 C3006 1.383 . S
C3001 C2997 1.495 . S
C3001 H3007 0.959 . S
C3001 H3008 0.961 . S
C3001 H3009 0.960 . S
C3002 C3000 1.381 . S
C3002 C3003 1.394 . S
C3002 H3010 0.930 . S
C3003 C3002 1.394 . S
C3003 C3004 1.383 . S
C3003 H3011 0.929 . S
C3004 C3003 1.383 . S
C3004 C3005 1.377 . S
C3005 H2989 0.930 . S
C3005 C3004 1.377 . S
C3005 C3006 1.379 . S
C3006 H2990 0.931 . S
C3006 C3000 1.383 . S
C3006 C3005 1.379 . S
H3007 C3001 0.959 . S
H3008 C3001 0.961 . S
H3009 C3001 0.960 . S
H3010 C3002 0.930 . S
H3011 C3003 0.929 . S
H3012 C3020 0.929 . S
H3013 C3022 0.930 . S
H3014 C3024 0.930 . S
H3015 C3027 0.929 . S
H3016 C3030 0.930 . S
H3017 C3032 0.960 . S
H3018 C3032 0.960 . S
H3019 C3032 0.960 . S
C3020 H3012 0.929 . S
C3020 C3021 1.377 . S
C3020 C3022 1.384 . S
C3021 C3020 1.377 . S
C3021 C3027 1.390 . S
C3022 H3013 0.930 . S
C3022 C3020 1.384 . S
C3022 C3023 1.372 . S
C3023 C3022 1.372 . S
C3023 C3024 1.400 . S
C3023 C3028 1.490 . S
C3024 H3014 0.930 . S
C3024 C3023 1.400 . S
C3024 C3027 1.386 . S
H3025 C3041 0.930 . S
H3026 C3042 0.931 . S
C3027 H3015 0.929 . S
C3027 C3021 1.390 . S
C3027 C3024 1.386 . S
C3028 C3023 1.490 . S
C3028 C3030 1.395 . S
C3028 C3031 1.403 . S
H3029 C3035 0.930 . S
C3030 H3016 0.930 . S
C3030 C3028 1.395 . S
C3030 C3033 1.403 . S
C3031 C3028 1.403 . S
C3031 C3032 1.524 . S
C3031 C3035 1.400 . S
C3032 H3017 0.960 . S
C3032 H3018 0.960 . S
C3032 H3019 0.960 . S
C3032 C3031 1.524 . S
C3033 C3030 1.403 . S
C3033 C3034 1.392 . S
C3033 C3037 1.495 . S
C3034 C3033 1.392 . S
C3034 C3035 1.385 . S
C3034 C3036 1.478 . S
C3035 H3029 0.930 . S
C3035 C3031 1.400 . S
C3035 C3034 1.385 . S
C3036 C3034 1.478 . S
C3036 C3038 1.381 . S
C3036 C3042 1.383 . S
C3037 C3033 1.495 . S
C3037 H3043 0.959 . S
C3037 H3044 0.961 . S
C3037 H3045 0.960 . S
C3038 C3036 1.381 . S
C3038 C3039 1.394 . S
C3038 H3046 0.930 . S
C3039 C3038 1.394 . S
C3039 C3040 1.383 . S
C3039 H3047 0.929 . S
C3040 C3039 1.383 . S
C3040 C3041 1.377 . S
C3041 H3025 0.930 . S
C3041 C3040 1.377 . S
C3041 C3042 1.379 . S
C3042 H3026 0.931 . S
C3042 C3036 1.383 . S
C3042 C3041 1.379 . S
H3043 C3037 0.959 . S
H3044 C3037 0.961 . S
H3045 C3037 0.960 . S
H3046 C3038 0.930 . S
H3047 C3039 0.929 . S
H3048 C3056 0.929 . S
H3049 C3058 0.930 . S
H3050 C3060 0.930 . S
H3051 C3063 0.929 . S
H3052 C3066 0.930 . S
H3053 C3068 0.960 . S
H3054 C3068 0.960 . S
H3055 C3068 0.960 . S
C3056 H3048 0.929 . S
C3056 C3057 1.377 . S
C3056 C3058 1.384 . S
C3057 C3056 1.377 . S
C3057 C3063 1.390 . S
C3058 H3049 0.930 . S
C3058 C3056 1.384 . S
C3058 C3059 1.372 . S
C3059 C3058 1.372 . S
C3059 C3060 1.400 . S
C3059 C3064 1.490 . S
C3060 H3050 0.930 . S
C3060 C3059 1.400 . S
C3060 C3063 1.386 . S
H3061 C3077 0.930 . S
H3062 C3078 0.931 . S
C3063 H3051 0.929 . S
C3063 C3057 1.390 . S
C3063 C3060 1.386 . S
C3064 C3059 1.490 . S
C3064 C3066 1.395 . S
C3064 C3067 1.403 . S
H3065 C3071 0.930 1_565 S
C3066 H3052 0.930 . S
C3066 C3064 1.395 . S
C3066 C3069 1.403 . S
C3067 C3064 1.403 . S
C3067 C3068 1.524 . S
C3067 C3071 1.400 . S
C3068 H3053 0.960 . S
C3068 H3054 0.960 . S
C3068 H3055 0.960 . S
C3068 C3067 1.524 . S
C3069 C3066 1.403 . S
C3069 C3070 1.372 1_545 S
C3069 C3073 1.495 . S
C3070 C3069 1.372 1_565 S
C3070 C3071 1.375 1_565 S
C3070 C3072 1.509 . S
C3071 H3065 0.930 1_545 S
C3071 C3067 1.400 . S
C3071 C3070 1.375 1_545 S
C3072 C3070 1.509 . S
C3072 C3074 1.381 . S
C3072 C3078 1.383 . S
C3073 C3069 1.495 . S
C3073 H3079 0.959 . S
C3073 H3080 0.961 1_545 S
C3073 H3081 0.960 . S
C3074 C3072 1.381 . S
C3074 C3075 1.394 . S
C3074 H3082 0.930 . S
C3075 C3074 1.394 . S
C3075 C3076 1.383 . S
C3075 H3083 0.929 . S
C3076 C3075 1.383 . S
C3076 C3077 1.377 . S
C3077 H3061 0.930 . S
C3077 C3076 1.377 . S
C3077 C3078 1.379 . S
C3078 H3062 0.931 . S
C3078 C3072 1.383 . S
C3078 C3077 1.379 . S
H3079 C3073 0.959 . S
H3080 C3073 0.961 1_565 S
H3081 C3073 0.960 . S
H3082 C3074 0.930 . S
H3083 C3075 0.929 . S
H3084 C3092 0.929 . S
H3085 C3094 0.930 . S
H3086 C3096 0.930 . S
H3087 C3099 0.929 . S
H3088 C3102 0.930 . S
H3089 C3104 0.960 . S
H3090 C3104 0.960 . S
H3091 C3104 0.960 . S
C3092 H3084 0.929 . S
C3092 C3093 1.377 . S
C3092 C3094 1.384 . S
C3093 C3092 1.377 . S
C3093 C3099 1.390 . S
C3094 H3085 0.930 . S
C3094 C3092 1.384 . S
C3094 C3095 1.372 . S
C3095 C3094 1.372 . S
C3095 C3096 1.400 . S
C3095 C3100 1.490 . S
C3096 H3086 0.930 . S
C3096 C3095 1.400 . S
C3096 C3099 1.386 . S
H3097 C3113 0.930 . S
H3098 C3114 0.931 . S
C3099 H3087 0.929 . S
C3099 C3093 1.390 . S
C3099 C3096 1.386 . S
C3100 C3095 1.490 . S
C3100 C3102 1.395 . S
C3100 C3103 1.403 . S
H3101 C3107 0.930 . S
C3102 H3088 0.930 . S
C3102 C3100 1.395 . S
C3102 C3105 1.403 . S
C3103 C3100 1.403 . S
C3103 C3104 1.524 . S
C3103 C3107 1.400 . S
C3104 H3089 0.960 . S
C3104 H3090 0.960 . S
C3104 H3091 0.960 . S
C3104 C3103 1.524 . S
C3105 C3102 1.403 . S
C3105 C3106 1.392 . S
C3105 C3109 1.495 . S
C3106 C3105 1.392 . S
C3106 C3107 1.385 . S
C3106 C3108 1.478 . S
C3107 H3101 0.930 . S
C3107 C3103 1.400 . S
C3107 C3106 1.385 . S
C3108 C3106 1.478 . S
C3108 C3110 1.381 . S
C3108 C3114 1.383 . S
C3109 C3105 1.495 . S
C3109 H3115 0.959 . S
C3109 H3116 0.961 . S
C3109 H3117 0.960 . S
C3110 C3108 1.381 . S
C3110 C3111 1.394 . S
C3110 H3118 0.930 . S
C3111 C3110 1.394 . S
C3111 C3112 1.383 . S
C3111 H3119 0.929 . S
C3112 C3111 1.383 . S
C3112 C3113 1.377 . S
C3113 H3097 0.930 . S
C3113 C3112 1.377 . S
C3113 C3114 1.379 . S
C3114 H3098 0.931 . S
C3114 C3108 1.383 . S
C3114 C3113 1.379 . S
H3115 C3109 0.959 . S
H3116 C3109 0.961 . S
H3117 C3109 0.960 . S
H3118 C3110 0.930 . S
H3119 C3111 0.929 . S
H3120 C3128 0.929 . S
H3121 C3130 0.930 . S
H3122 C3132 0.930 . S
H3123 C3135 0.929 . S
H3124 C3138 0.930 . S
H3125 C3140 0.960 . S
H3126 C3140 0.960 . S
H3127 C3140 0.960 . S
C3128 H3120 0.929 . S
C3128 C3129 1.377 . S
C3128 C3130 1.384 . S
C3129 C3128 1.377 . S
C3129 C3135 1.390 . S
C3130 H3121 0.930 . S
C3130 C3128 1.384 . S
C3130 C3131 1.372 . S
C3131 C3130 1.372 . S
C3131 C3132 1.400 . S
C3131 C3136 1.490 . S
C3132 H3122 0.930 . S
C3132 C3131 1.400 . S
C3132 C3135 1.386 . S
H3133 C3149 0.930 . S
H3134 C3150 0.931 . S
C3135 H3123 0.929 . S
C3135 C3129 1.390 . S
C3135 C3132 1.386 . S
C3136 C3131 1.490 . S
C3136 C3138 1.395 . S
C3136 C3139 1.403 . S
H3137 C3143 0.930 . S
C3138 H3124 0.930 . S
C3138 C3136 1.395 . S
C3138 C3141 1.403 . S
C3139 C3136 1.403 . S
C3139 C3140 1.524 . S
C3139 C3143 1.400 . S
C3140 H3125 0.960 . S
C3140 H3126 0.960 . S
C3140 H3127 0.960 . S
C3140 C3139 1.524 . S
C3141 C3138 1.403 . S
C3141 C3142 1.392 . S
C3141 C3145 1.495 . S
C3142 C3141 1.392 . S
C3142 C3143 1.385 . S
C3142 C3144 1.478 . S
C3143 H3137 0.930 . S
C3143 C3139 1.400 . S
C3143 C3142 1.385 . S
C3144 C3142 1.478 . S
C3144 C3146 1.381 . S
C3144 C3150 1.383 . S
C3145 C3141 1.495 . S
C3145 H3151 0.959 . S
C3145 H3152 0.961 . S
C3145 H3153 0.960 . S
C3146 C3144 1.381 . S
C3146 C3147 1.394 . S
C3146 H3154 0.930 . S
C3147 C3146 1.394 . S
C3147 C3148 1.383 . S
C3147 H3155 0.929 . S
C3148 C3147 1.383 . S
C3148 C3149 1.377 . S
C3149 H3133 0.930 . S
C3149 C3148 1.377 . S
C3149 C3150 1.379 . S
C3150 H3134 0.931 . S
C3150 C3144 1.383 . S
C3150 C3149 1.379 . S
H3151 C3145 0.959 . S
H3152 C3145 0.961 . S
H3153 C3145 0.960 . S
H3154 C3146 0.930 . S
H3155 C3147 0.929 . S
H3156 C3164 0.929 . S
H3157 C3166 0.930 . S
H3158 C3168 0.930 . S
H3159 C3171 0.929 . S
H3160 C3174 0.930 . S
H3161 C3176 0.960 . S
H3162 C3176 0.960 . S
H3163 C3176 0.960 . S
C3164 H3156 0.929 . S
C3164 C3165 1.377 . S
C3164 C3166 1.384 . S
C3165 C3164 1.377 . S
C3165 C3171 1.390 . S
C3166 H3157 0.930 . S
C3166 C3164 1.384 . S
C3166 C3167 1.372 . S
C3167 C3166 1.372 . S
C3167 C3168 1.400 . S
C3167 C3172 1.490 . S
C3168 H3158 0.930 . S
C3168 C3167 1.400 . S
C3168 C3171 1.386 . S
H3169 C3185 0.930 . S
H3170 C3186 0.931 . S
C3171 H3159 0.929 . S
C3171 C3165 1.390 . S
C3171 C3168 1.386 . S
C3172 C3167 1.490 . S
C3172 C3174 1.395 . S
C3172 C3175 1.403 . S
H3173 C3179 0.930 . S
C3174 H3160 0.930 . S
C3174 C3172 1.395 . S
C3174 C3177 1.403 . S
C3175 C3172 1.403 . S
C3175 C3176 1.524 . S
C3175 C3179 1.400 . S
C3176 H3161 0.960 . S
C3176 H3162 0.960 . S
C3176 H3163 0.960 . S
C3176 C3175 1.524 . S
C3177 C3174 1.403 . S
C3177 C3178 1.392 . S
C3177 C3181 1.495 . S
C3178 C3177 1.392 . S
C3178 C3179 1.385 . S
C3178 C3180 1.478 . S
C3179 H3173 0.930 . S
C3179 C3175 1.400 . S
C3179 C3178 1.385 . S
C3180 C3178 1.478 . S
C3180 C3182 1.381 . S
C3180 C3186 1.383 . S
C3181 C3177 1.495 . S
C3181 H3187 0.959 . S
C3181 H3188 0.961 . S
C3181 H3189 0.960 . S
C3182 C3180 1.381 . S
C3182 C3183 1.394 . S
C3182 H3190 0.930 . S
C3183 C3182 1.394 . S
C3183 C3184 1.383 . S
C3183 H3191 0.929 . S
C3184 C3183 1.383 . S
C3184 C3185 1.377 . S
C3185 H3169 0.930 . S
C3185 C3184 1.377 . S
C3185 C3186 1.379 . S
C3186 H3170 0.931 . S
C3186 C3180 1.383 . S
C3186 C3185 1.379 . S
H3187 C3181 0.959 . S
H3188 C3181 0.961 . S
H3189 C3181 0.960 . S
H3190 C3182 0.930 . S
H3191 C3183 0.929 . S
H3192 C3200 0.929 . S
H3193 C3202 0.930 . S
H3194 C3204 0.930 . S
H3195 C3207 0.929 . S
H3196 C3210 0.937 . S
H3197 C3212 0.960 . S
H3198 C3212 0.960 . S
H3199 C3212 0.960 . S
C3200 H3192 0.929 . S
C3200 C3201 1.377 . S
C3200 C3202 1.384 . S
C3201 C3200 1.377 . S
C3201 C3207 1.390 . S
C3202 H3193 0.930 . S
C3202 C3200 1.384 . S
C3202 C3203 1.372 . S
C3203 C3202 1.372 . S
C3203 C3204 1.400 . S
C3203 C3208 1.490 . S
C3204 H3194 0.930 . S
C3204 C3203 1.400 . S
C3204 C3207 1.386 . S
H3205 C3221 0.930 . S
H3206 C3222 0.931 . S
C3207 H3195 0.929 . S
C3207 C3201 1.390 . S
C3207 C3204 1.386 . S
C3208 C3203 1.490 . S
C3208 C3210 1.395 1_545 S
C3208 C3211 1.403 . S
H3209 C3215 0.930 . S
C3210 H3196 0.937 . S
C3210 C3208 1.395 1_565 S
C3210 C3213 1.403 . S
C3211 C3208 1.403 . S
C3211 C3212 1.524 . S
C3211 C3215 1.400 1_545 S
C3212 H3197 0.960 . S
C3212 H3198 0.960 . S
C3212 H3199 0.960 . S
C3212 C3211 1.524 . S
C3213 C3210 1.403 . S
C3213 C3214 1.392 . S
C3213 C3217 1.495 . S
C3214 C3213 1.392 . S
C3214 C3215 1.385 . S
C3214 C3216 1.478 . S
C3215 H3209 0.930 . S
C3215 C3211 1.400 1_565 S
C3215 C3214 1.385 . S
C3216 C3214 1.478 . S
C3216 C3218 1.381 . S
C3216 C3222 1.383 . S
C3217 C3213 1.495 . S
C3217 H3223 0.959 . S
C3217 H3224 0.961 . S
C3217 H3225 0.960 . S
C3218 C3216 1.381 . S
C3218 C3219 1.394 . S
C3218 H3226 0.930 . S
C3219 C3218 1.394 . S
C3219 C3220 1.383 . S
C3219 H3227 0.929 . S
C3220 C3219 1.383 . S
C3220 C3221 1.377 . S
C3221 H3205 0.930 . S
C3221 C3220 1.377 . S
C3221 C3222 1.379 . S
C3222 H3206 0.931 . S
C3222 C3216 1.383 . S
C3222 C3221 1.379 . S
H3223 C3217 0.959 . S
H3224 C3217 0.961 . S
H3225 C3217 0.960 . S
H3226 C3218 0.930 . S
H3227 C3219 0.929 . S
H3228 C3236 0.929 . S
H3229 C3238 0.930 . S
H3230 C3240 0.930 . S
H3231 C3243 0.929 . S
H3232 C3246 0.930 . S
H3233 C3248 0.960 . S
H3234 C3248 0.960 . S
H3235 C3248 0.960 . S
C3236 H3228 0.929 . S
C3236 C3237 1.377 . S
C3236 C3238 1.384 . S
C3237 C3236 1.377 . S
C3237 C3243 1.390 . S
C3238 H3229 0.930 . S
C3238 C3236 1.384 . S
C3238 C3239 1.372 . S
C3239 C3238 1.372 . S
C3239 C3240 1.400 . S
C3239 C3244 1.490 . S
C3240 H3230 0.930 . S
C3240 C3239 1.400 . S
C3240 C3243 1.386 . S
H3241 C3257 0.930 . S
H3242 C3258 0.931 . S
C3243 H3231 0.929 . S
C3243 C3237 1.390 . S
C3243 C3240 1.386 . S
C3244 C3239 1.490 . S
C3244 C3246 1.395 . S
C3244 C3247 1.403 . S
H3245 C3251 0.930 . S
C3246 H3232 0.930 . S
C3246 C3244 1.395 . S
C3246 C3249 1.403 . S
C3247 C3244 1.403 . S
C3247 C3248 1.524 . S
C3247 C3251 1.400 1_545 S
C3248 H3233 0.960 . S
C3248 H3234 0.960 . S
C3248 H3235 0.960 . S
C3248 C3247 1.524 . S
C3249 C3246 1.403 . S
C3249 C3250 1.392 1_545 S
C3249 C3253 1.495 1_545 S
C3250 C3249 1.392 1_565 S
C3250 C3251 1.385 . S
C3250 C3252 1.478 . S
C3251 H3245 0.930 . S
C3251 C3247 1.400 1_565 S
C3251 C3250 1.385 . S
C3252 C3250 1.478 . S
C3252 C3254 1.381 . S
C3252 C3258 1.383 . S
C3253 C3249 1.495 1_565 S
C3253 H3259 0.959 1_565 S
C3253 H3260 0.961 . S
C3253 H3261 0.960 . S
C3254 C3252 1.381 . S
C3254 C3255 1.394 . S
C3254 H3262 0.930 . S
C3255 C3254 1.394 . S
C3255 C3256 1.383 . S
C3255 H3263 0.929 . S
C3256 C3255 1.383 . S
C3256 C3257 1.377 . S
C3257 H3241 0.930 . S
C3257 C3256 1.377 . S
C3257 C3258 1.379 . S
C3258 H3242 0.931 . S
C3258 C3252 1.383 . S
C3258 C3257 1.379 . S
H3259 C3253 0.959 1_545 S
H3260 C3253 0.961 . S
H3261 C3253 0.960 . S
H3262 C3254 0.930 . S
H3263 C3255 0.929 . S
H3264 C3272 0.929 . S
H3265 C3274 0.930 . S
H3266 C3276 0.930 . S
H3267 C3279 0.929 . S
H3268 C3282 0.930 . S
H3269 C3284 0.960 . S
H3270 C3284 0.960 . S
H3271 C3284 0.960 . S
C3272 H3264 0.929 . S
C3272 C3273 1.377 . S
C3272 C3274 1.384 . S
C3273 C3272 1.377 . S
C3273 C3279 1.390 . S
C3274 H3265 0.930 . S
C3274 C3272 1.384 . S
C3274 C3275 1.372 . S
C3275 C3274 1.372 . S
C3275 C3276 1.400 . S
C3275 C3280 1.490 . S
C3276 H3266 0.930 . S
C3276 C3275 1.400 . S
C3276 C3279 1.386 . S
H3277 C3293 0.930 . S
H3278 C3294 0.931 . S
C3279 H3267 0.929 . S
C3279 C3273 1.390 . S
C3279 C3276 1.386 . S
C3280 C3275 1.490 . S
C3280 C3282 1.395 . S
C3280 C3283 1.403 . S
H3281 C3287 0.930 . S
C3282 H3268 0.930 . S
C3282 C3280 1.395 . S
C3282 C3285 1.403 . S
C3283 C3280 1.403 . S
C3283 C3284 1.524 . S
C3283 C3287 1.400 . S
C3284 H3269 0.960 . S
C3284 H3270 0.960 . S
C3284 H3271 0.960 . S
C3284 C3283 1.524 . S
C3285 C3282 1.403 . S
C3285 C3286 1.392 . S
C3285 C3289 1.495 . S
C3286 C3285 1.392 . S
C3286 C3287 1.385 . S
C3286 C3288 1.478 . S
C3287 H3281 0.930 . S
C3287 C3283 1.400 . S
C3287 C3286 1.385 . S
C3288 C3286 1.478 . S
C3288 C3290 1.381 . S
C3288 C3294 1.383 . S
C3289 C3285 1.495 . S
C3289 H3295 0.959 . S
C3289 H3296 0.961 . S
C3289 H3297 0.960 . S
C3290 C3288 1.381 . S
C3290 C3291 1.394 . S
C3290 H3298 0.930 . S
C3291 C3290 1.394 . S
C3291 C3292 1.383 . S
C3291 H3299 0.929 . S
C3292 C3291 1.383 . S
C3292 C3293 1.377 . S
C3293 H3277 0.930 . S
C3293 C3292 1.377 . S
C3293 C3294 1.379 . S
C3294 H3278 0.931 . S
C3294 C3288 1.383 . S
C3294 C3293 1.379 . S
H3295 C3289 0.959 . S
H3296 C3289 0.961 . S
H3297 C3289 0.960 . S
H3298 C3290 0.930 . S
H3299 C3291 0.929 . S
H3300 C3308 0.929 . S
H3301 C3310 0.930 . S
H3302 C3312 0.930 . S
H3303 C3315 0.929 . S
H3304 C3318 0.930 . S
H3305 C3320 0.960 . S
H3306 C3320 0.960 . S
H3307 C3320 0.960 . S
C3308 H3300 0.929 . S
C3308 C3309 1.377 . S
C3308 C3310 1.384 . S
C3309 C3308 1.377 . S
C3309 C3315 1.390 . S
C3310 H3301 0.930 . S
C3310 C3308 1.384 . S
C3310 C3311 1.372 . S
C3311 C3310 1.372 . S
C3311 C3312 1.400 . S
C3311 C3316 1.490 . S
C3312 H3302 0.930 . S
C3312 C3311 1.400 . S
C3312 C3315 1.386 . S
H3313 C3329 0.930 . S
H3314 C3330 0.931 . S
C3315 H3303 0.929 . S
C3315 C3309 1.390 . S
C3315 C3312 1.386 . S
C3316 C3311 1.490 . S
C3316 C3318 1.395 . S
C3316 C3319 1.403 . S
H3317 C3323 0.930 . S
C3318 H3304 0.930 . S
C3318 C3316 1.395 . S
C3318 C3321 1.403 . S
C3319 C3316 1.403 . S
C3319 C3320 1.524 . S
C3319 C3323 1.400 . S
C3320 H3305 0.960 . S
C3320 H3306 0.960 . S
C3320 H3307 0.960 . S
C3320 C3319 1.524 . S
C3321 C3318 1.403 . S
C3321 C3322 1.392 . S
C3321 C3325 1.495 . S
C3322 C3321 1.392 . S
C3322 C3323 1.385 . S
C3322 C3324 1.478 . S
C3323 H3317 0.930 . S
C3323 C3319 1.400 . S
C3323 C3322 1.385 . S
C3324 C3322 1.478 . S
C3324 C3326 1.381 . S
C3324 C3330 1.383 . S
C3325 C3321 1.495 . S
C3325 H3331 0.959 . S
C3325 H3332 0.961 . S
C3325 H3333 0.960 . S
C3326 C3324 1.381 . S
C3326 C3327 1.394 . S
C3326 H3334 0.930 . S
C3327 C3326 1.394 . S
C3327 C3328 1.383 . S
C3327 H3335 0.929 . S
C3328 C3327 1.383 . S
C3328 C3329 1.377 . S
C3329 H3313 0.930 . S
C3329 C3328 1.377 . S
C3329 C3330 1.379 . S
C3330 H3314 0.931 . S
C3330 C3324 1.383 . S
C3330 C3329 1.379 . S
H3331 C3325 0.959 . S
H3332 C3325 0.961 . S
H3333 C3325 0.960 . S
H3334 C3326 0.930 . S
H3335 C3327 0.929 . S
H3336 C3344 0.929 . S
H3337 C3346 0.930 . S
H3338 C3348 0.930 . S
H3339 C3351 0.929 . S
H3340 C3354 0.930 . S
H3341 C3356 0.960 . S
H3342 C3356 0.960 . S
H3343 C3356 0.960 . S
C3344 H3336 0.929 . S
C3344 C3345 1.377 . S
C3344 C3346 1.384 . S
C3345 C3344 1.377 . S
C3345 C3351 1.390 . S
C3346 H3337 0.930 . S
C3346 C3344 1.384 . S
C3346 C3347 1.372 . S
C3347 C3346 1.372 . S
C3347 C3348 1.400 . S
C3347 C3352 1.490 . S
C3348 H3338 0.930 . S
C3348 C3347 1.400 . S
C3348 C3351 1.386 . S
H3349 C3365 0.930 . S
H3350 C3366 0.931 . S
C3351 H3339 0.929 . S
C3351 C3345 1.390 . S
C3351 C3348 1.386 . S
C3352 C3347 1.490 . S
C3352 C3354 1.395 . S
C3352 C3355 1.403 . S
H3353 C3359 0.930 . S
C3354 H3340 0.930 . S
C3354 C3352 1.395 . S
C3354 C3357 1.403 . S
C3355 C3352 1.403 . S
C3355 C3356 1.524 . S
C3355 C3359 1.400 . S
C3356 H3341 0.960 . S
C3356 H3342 0.960 . S
C3356 H3343 0.960 . S
C3356 C3355 1.524 . S
C3357 C3354 1.403 . S
C3357 C3358 1.392 . S
C3357 C3361 1.495 . S
C3358 C3357 1.392 . S
C3358 C3359 1.385 . S
C3358 C3360 1.478 . S
C3359 H3353 0.930 . S
C3359 C3355 1.400 . S
C3359 C3358 1.385 . S
C3360 C3358 1.478 . S
C3360 C3362 1.381 . S
C3360 C3366 1.383 . S
C3361 C3357 1.495 . S
C3361 H3367 0.959 . S
C3361 H3368 0.961 . S
C3361 H3369 0.960 . S
C3362 C3360 1.381 . S
C3362 C3363 1.394 . S
C3362 H3370 0.930 . S
C3363 C3362 1.394 . S
C3363 C3364 1.383 . S
C3363 H3371 0.929 . S
C3364 C3363 1.383 . S
C3364 C3365 1.377 . S
C3365 H3349 0.930 . S
C3365 C3364 1.377 . S
C3365 C3366 1.379 . S
C3366 H3350 0.931 . S
C3366 C3360 1.383 . S
C3366 C3365 1.379 . S
H3367 C3361 0.959 . S
H3368 C3361 0.961 . S
H3369 C3361 0.960 . S
H3370 C3362 0.930 . S
H3371 C3363 0.929 . S
H3372 C3380 0.929 . S
H3373 C3382 0.930 . S
H3374 C3384 0.930 . S
H3375 C3387 0.929 . S
H3376 C3390 0.930 . S
H3377 C3392 0.960 . S
H3378 C3392 0.960 . S
H3379 C3392 0.960 . S
C3380 H3372 0.929 . S
C3380 C3381 1.377 . S
C3380 C3382 1.384 . S
C3381 C3380 1.377 . S
C3381 C3387 1.390 . S
C3382 H3373 0.930 . S
C3382 C3380 1.384 . S
C3382 C3383 1.372 . S
C3383 C3382 1.372 . S
C3383 C3384 1.400 . S
C3383 C3388 1.490 1_455 S
C3384 H3374 0.930 . S
C3384 C3383 1.400 . S
C3384 C3387 1.386 . S
H3385 C3401 0.930 . S
H3386 C3402 0.931 . S
C3387 H3375 0.929 . S
C3387 C3381 1.390 . S
C3387 C3384 1.386 . S
C3388 C3383 1.490 1_655 S
C3388 C3390 1.395 . S
C3388 C3391 1.403 . S
H3389 C3395 0.930 . S
C3390 H3376 0.930 . S
C3390 C3388 1.395 . S
C3390 C3393 1.403 . S
C3391 C3388 1.403 . S
C3391 C3392 1.524 . S
C3391 C3395 1.400 . S
C3392 H3377 0.960 . S
C3392 H3378 0.960 . S
C3392 H3379 0.960 . S
C3392 C3391 1.524 . S
C3393 C3390 1.403 . S
C3393 C3394 1.392 . S
C3393 C3397 1.495 . S
C3394 C3393 1.392 . S
C3394 C3395 1.385 . S
C3394 C3396 1.478 . S
C3395 H3389 0.930 . S
C3395 C3391 1.400 . S
C3395 C3394 1.385 . S
C3396 C3394 1.478 . S
C3396 C3398 1.381 . S
C3396 C3402 1.383 . S
C3397 C3393 1.495 . S
C3397 H3403 0.959 . S
C3397 H3404 0.961 . S
C3397 H3405 0.960 . S
C3398 C3396 1.381 . S
C3398 C3399 1.394 . S
C3398 H3406 0.930 . S
C3399 C3398 1.394 . S
C3399 C3400 1.383 . S
C3399 H3407 0.929 . S
C3400 C3399 1.383 . S
C3400 C3401 1.377 . S
C3401 H3385 0.930 . S
C3401 C3400 1.377 . S
C3401 C3402 1.379 . S
C3402 H3386 0.931 . S
C3402 C3396 1.383 . S
C3402 C3401 1.379 . S
H3403 C3397 0.959 . S
H3404 C3397 0.961 . S
H3405 C3397 0.960 . S
H3406 C3398 0.930 . S
H3407 C3399 0.929 . S
H3408 C3416 0.929 . S
H3409 C3418 0.930 . S
H3410 C3420 0.930 . S
H3411 C3423 0.929 . S
H3412 C3426 0.930 . S
H3413 C3428 0.960 . S
H3414 C3428 0.960 . S
H3415 C3428 0.960 . S
C3416 H3408 0.929 . S
C3416 C3417 1.377 . S
C3416 C3418 1.384 . S
C3417 C3416 1.377 . S
C3417 C3423 1.390 . S
C3418 H3409 0.930 . S
C3418 C3416 1.384 . S
C3418 C3419 1.372 . S
C3419 C3418 1.372 . S
C3419 C3420 1.400 . S
C3419 C3424 1.490 . S
C3420 H3410 0.930 . S
C3420 C3419 1.400 . S
C3420 C3423 1.386 . S
H3421 C3437 0.930 . S
H3422 C3438 0.931 . S
C3423 H3411 0.929 . S
C3423 C3417 1.390 . S
C3423 C3420 1.386 . S
C3424 C3419 1.490 . S
C3424 C3426 1.395 . S
C3424 C3427 1.403 . S
H3425 C3431 0.930 . S
C3426 H3412 0.930 . S
C3426 C3424 1.395 . S
C3426 C3429 1.403 . S
C3427 C3424 1.403 . S
C3427 C3428 1.524 . S
C3427 C3431 1.400 . S
C3428 H3413 0.960 . S
C3428 H3414 0.960 . S
C3428 H3415 0.960 . S
C3428 C3427 1.524 . S
C3429 C3426 1.403 . S
C3429 C3430 1.392 . S
C3429 C3433 1.495 . S
C3430 C3429 1.392 . S
C3430 C3431 1.385 . S
C3430 C3432 1.478 . S
C3431 H3425 0.930 . S
C3431 C3427 1.400 . S
C3431 C3430 1.385 . S
C3432 C3430 1.478 . S
C3432 C3434 1.381 . S
C3432 C3438 1.383 . S
C3433 C3429 1.495 . S
C3433 H3439 0.959 . S
C3433 H3440 0.961 . S
C3433 H3441 0.960 . S
C3434 C3432 1.381 . S
C3434 C3435 1.394 . S
C3434 H3442 0.930 . S
C3435 C3434 1.394 . S
C3435 C3436 1.383 . S
C3435 H3443 0.929 . S
C3436 C3435 1.383 . S
C3436 C3437 1.377 . S
C3437 H3421 0.930 . S
C3437 C3436 1.377 . S
C3437 C3438 1.379 . S
C3438 H3422 0.931 . S
C3438 C3432 1.383 . S
C3438 C3437 1.379 . S
H3439 C3433 0.959 . S
H3440 C3433 0.961 . S
H3441 C3433 0.960 . S
H3442 C3434 0.930 . S
H3443 C3435 0.929 . S
H3444 C3452 0.929 . S
H3445 C3454 0.930 . S
H3446 C3456 0.930 . S
H3447 C3459 0.929 . S
H3448 C3462 0.930 . S
H3449 C3464 0.934 1_655 S
H3450 C3464 0.977 . S
H3451 C3464 0.996 . S
C3452 H3444 0.929 . S
C3452 C3453 1.377 . S
C3452 C3454 1.384 . S
C3453 C3452 1.377 . S
C3453 C3459 1.390 . S
C3454 H3445 0.930 . S
C3454 C3452 1.384 . S
C3454 C3455 1.372 . S
C3455 C3454 1.372 . S
C3455 C3456 1.400 . S
C3455 C3460 1.490 1_455 S
C3456 H3446 0.930 . S
C3456 C3455 1.400 . S
C3456 C3459 1.386 . S
H3457 C3473 0.930 . S
H3458 C3474 0.931 . S
C3459 H3447 0.929 . S
C3459 C3453 1.390 . S
C3459 C3456 1.386 . S
C3460 C3455 1.490 1_655 S
C3460 C3462 1.395 . S
C3460 C3463 1.403 . S
H3461 C3467 0.930 . S
C3462 H3448 0.930 . S
C3462 C3460 1.395 . S
C3462 C3465 1.403 . S
C3463 C3460 1.403 . S
C3463 C3464 1.499 1_655 S
C3463 C3467 1.400 . S
C3464 H3449 0.934 1_455 S
C3464 H3450 0.977 . S
C3464 H3451 0.996 . S
C3464 C3463 1.499 1_455 S
C3465 C3462 1.403 . S
C3465 C3466 1.392 . S
C3465 C3469 1.495 . S
C3466 C3465 1.392 . S
C3466 C3467 1.385 . S
C3466 C3468 1.478 . S
C3467 H3461 0.930 . S
C3467 C3463 1.400 . S
C3467 C3466 1.385 . S
C3468 C3466 1.478 . S
C3468 C3470 1.381 . S
C3468 C3474 1.383 . S
C3469 C3465 1.495 . S
C3469 H3475 0.959 . S
C3469 H3476 0.961 . S
C3469 H3477 0.960 . S
C3470 C3468 1.381 . S
C3470 C3471 1.394 . S
C3470 H3478 0.930 . S
C3471 C3470 1.394 . S
C3471 C3472 1.383 . S
C3471 H3479 0.929 . S
C3472 C3471 1.383 . S
C3472 C3473 1.377 . S
C3473 H3457 0.930 . S
C3473 C3472 1.377 . S
C3473 C3474 1.379 . S
C3474 H3458 0.931 . S
C3474 C3468 1.383 . S
C3474 C3473 1.379 . S
H3475 C3469 0.959 . S
H3476 C3469 0.961 . S
H3477 C3469 0.960 . S
H3478 C3470 0.930 . S
H3479 C3471 0.929 . S
H3480 C3488 0.929 . S
H3481 C3490 0.930 . S
H3482 C3492 0.930 . S
H3483 C3495 0.929 . S
H3484 C3498 0.930 . S
H3485 C3500 0.960 . S
H3486 C3500 0.960 . S
H3487 C3500 0.960 . S
C3488 H3480 0.929 . S
C3488 C3489 1.377 . S
C3488 C3490 1.384 . S
C3489 C3488 1.377 . S
C3489 C3495 1.390 . S
C3490 H3481 0.930 . S
C3490 C3488 1.384 . S
C3490 C3491 1.372 . S
C3491 C3490 1.372 . S
C3491 C3492 1.400 . S
C3491 C3496 1.490 . S
C3492 H3482 0.930 . S
C3492 C3491 1.400 . S
C3492 C3495 1.386 . S
H3493 C3509 0.930 . S
H3494 C3510 0.931 . S
C3495 H3483 0.929 . S
C3495 C3489 1.390 . S
C3495 C3492 1.386 . S
C3496 C3491 1.490 . S
C3496 C3498 1.395 . S
C3496 C3499 1.403 . S
H3497 C3503 0.930 . S
C3498 H3484 0.930 . S
C3498 C3496 1.395 . S
C3498 C3501 1.403 . S
C3499 C3496 1.403 . S
C3499 C3500 1.524 . S
C3499 C3503 1.400 . S
C3500 H3485 0.960 . S
C3500 H3486 0.960 . S
C3500 H3487 0.960 . S
C3500 C3499 1.524 . S
C3501 C3498 1.403 . S
C3501 C3502 1.392 . S
C3501 C3505 1.495 . S
C3502 C3501 1.392 . S
C3502 C3503 1.385 . S
C3502 C3504 1.478 . S
C3503 H3497 0.930 . S
C3503 C3499 1.400 . S
C3503 C3502 1.385 . S
C3504 C3502 1.478 . S
C3504 C3506 1.381 . S
C3504 C3510 1.383 . S
C3505 C3501 1.495 . S
C3505 H3511 0.959 . S
C3505 H3512 0.961 . S
C3505 H3513 0.960 . S
C3506 C3504 1.381 . S
C3506 C3507 1.394 . S
C3506 H3514 0.930 . S
C3507 C3506 1.394 . S
C3507 C3508 1.383 . S
C3507 H3515 0.929 . S
C3508 C3507 1.383 . S
C3508 C3509 1.377 . S
C3509 H3493 0.930 . S
C3509 C3508 1.377 . S
C3509 C3510 1.379 . S
C3510 H3494 0.931 . S
C3510 C3504 1.383 . S
C3510 C3509 1.379 . S
H3511 C3505 0.959 . S
H3512 C3505 0.961 . S
H3513 C3505 0.960 . S
H3514 C3506 0.930 . S
H3515 C3507 0.929 . S
H3516 C3524 0.929 . S
H3517 C3526 0.930 . S
H3518 C3528 0.930 . S
H3519 C3531 0.929 . S
H3520 C3534 0.930 . S
H3521 C3536 0.960 . S
H3522 C3536 0.960 . S
H3523 C3536 0.960 . S
C3524 H3516 0.929 . S
C3524 C3525 1.377 . S
C3524 C3526 1.384 . S
C3525 C3524 1.377 . S
C3525 C3531 1.390 . S
C3526 H3517 0.930 . S
C3526 C3524 1.384 . S
C3526 C3527 1.372 . S
C3527 C3526 1.372 . S
C3527 C3528 1.400 . S
C3527 C3532 1.490 . S
C3528 H3518 0.930 . S
C3528 C3527 1.400 . S
C3528 C3531 1.386 . S
H3529 C3545 0.930 . S
H3530 C3546 0.931 . S
C3531 H3519 0.929 . S
C3531 C3525 1.390 . S
C3531 C3528 1.386 . S
C3532 C3527 1.490 . S
C3532 C3534 1.395 . S
C3532 C3535 1.403 . S
H3533 C3539 0.930 . S
C3534 H3520 0.930 . S
C3534 C3532 1.395 . S
C3534 C3537 1.403 . S
C3535 C3532 1.403 . S
C3535 C3536 1.524 . S
C3535 C3539 1.400 . S
C3536 H3521 0.960 . S
C3536 H3522 0.960 . S
C3536 H3523 0.960 . S
C3536 C3535 1.524 . S
C3537 C3534 1.403 . S
C3537 C3538 1.392 . S
C3537 C3541 1.495 . S
C3538 C3537 1.392 . S
C3538 C3539 1.385 . S
C3538 C3540 1.478 . S
C3539 H3533 0.930 . S
C3539 C3535 1.400 . S
C3539 C3538 1.385 . S
C3540 C3538 1.478 . S
C3540 C3542 1.381 . S
C3540 C3546 1.383 . S
C3541 C3537 1.495 . S
C3541 H3547 0.959 . S
C3541 H3548 0.961 . S
C3541 H3549 0.960 . S
C3542 C3540 1.381 . S
C3542 C3543 1.394 . S
C3542 H3550 0.930 . S
C3543 C3542 1.394 . S
C3543 C3544 1.383 . S
C3543 H3551 0.929 . S
C3544 C3543 1.383 . S
C3544 C3545 1.377 . S
C3545 H3529 0.930 . S
C3545 C3544 1.377 . S
C3545 C3546 1.379 . S
C3546 H3530 0.931 . S
C3546 C3540 1.383 . S
C3546 C3545 1.379 . S
H3547 C3541 0.959 . S
H3548 C3541 0.961 . S
H3549 C3541 0.960 . S
H3550 C3542 0.930 . S
H3551 C3543 0.929 . S
H3552 C3560 0.929 . S
H3553 C3562 0.930 . S
H3554 C3564 0.930 . S
H3555 C3567 0.929 . S
H3556 C3570 0.930 . S
H3557 C3572 0.960 . S
H3558 C3572 0.960 . S
H3559 C3572 0.960 . S
C3560 H3552 0.929 . S
C3560 C3561 1.377 . S
C3560 C3562 1.384 . S
C3561 C3560 1.377 . S
C3561 C3567 1.390 . S
C3562 H3553 0.930 . S
C3562 C3560 1.384 . S
C3562 C3563 1.372 . S
C3563 C3562 1.372 . S
C3563 C3564 1.400 . S
C3563 C3568 1.490 . S
C3564 H3554 0.930 . S
C3564 C3563 1.400 . S
C3564 C3567 1.386 . S
H3565 C3581 0.930 . S
H3566 C3582 0.931 . S
C3567 H3555 0.929 . S
C3567 C3561 1.390 . S
C3567 C3564 1.386 . S
C3568 C3563 1.490 . S
C3568 C3570 1.395 . S
C3568 C3571 1.403 . S
H3569 C3575 0.930 . S
C3570 H3556 0.930 . S
C3570 C3568 1.395 . S
C3570 C3573 1.403 . S
C3571 C3568 1.403 . S
C3571 C3572 1.524 . S
C3571 C3575 1.400 . S
C3572 H3557 0.960 . S
C3572 H3558 0.960 . S
C3572 H3559 0.960 . S
C3572 C3571 1.524 . S
C3573 C3570 1.403 . S
C3573 C3574 1.392 . S
C3573 C3577 1.495 . S
C3574 C3573 1.392 . S
C3574 C3575 1.385 . S
C3574 C3576 1.478 . S
C3575 H3569 0.930 . S
C3575 C3571 1.400 . S
C3575 C3574 1.385 . S
C3576 C3574 1.478 . S
C3576 C3578 1.381 . S
C3576 C3582 1.383 . S
C3577 C3573 1.495 . S
C3577 H3583 0.959 . S
C3577 H3584 0.961 . S
C3577 H3585 0.960 . S
C3578 C3576 1.381 . S
C3578 C3579 1.394 . S
C3578 H3586 0.930 . S
C3579 C3578 1.394 . S
C3579 C3580 1.383 . S
C3579 H3587 0.929 . S
C3580 C3579 1.383 . S
C3580 C3581 1.377 . S
C3581 H3565 0.930 . S
C3581 C3580 1.377 . S
C3581 C3582 1.379 . S
C3582 H3566 0.931 . S
C3582 C3576 1.383 . S
C3582 C3581 1.379 . S
H3583 C3577 0.959 . S
H3584 C3577 0.961 . S
H3585 C3577 0.960 . S
H3586 C3578 0.930 . S
H3587 C3579 0.929 . S
H3588 C3596 0.929 . S
H3589 C3598 0.930 . S
H3590 C3600 0.930 . S
H3591 C3603 0.929 . S
H3592 C3606 0.930 . S
H3593 C3608 0.960 . S
H3594 C3608 0.960 . S
H3595 C3608 0.960 . S
C3596 H3588 0.929 . S
C3596 C3597 1.377 . S
C3596 C3598 1.384 . S
C3597 C3596 1.377 . S
C3597 C3603 1.390 . S
C3598 H3589 0.930 . S
C3598 C3596 1.384 . S
C3598 C3599 1.372 . S
C3599 C3598 1.372 . S
C3599 C3600 1.400 . S
C3599 C3604 1.490 . S
C3600 H3590 0.930 . S
C3600 C3599 1.400 . S
C3600 C3603 1.386 . S
H3601 C3617 0.930 . S
H3602 C3618 0.931 . S
C3603 H3591 0.929 . S
C3603 C3597 1.390 . S
C3603 C3600 1.386 . S
C3604 C3599 1.490 . S
C3604 C3606 1.395 . S
C3604 C3607 1.403 . S
H3605 C3611 0.930 . S
C3606 H3592 0.930 . S
C3606 C3604 1.395 . S
C3606 C3609 1.403 . S
C3607 C3604 1.403 . S
C3607 C3608 1.524 . S
C3607 C3611 1.400 . S
C3608 H3593 0.960 . S
C3608 H3594 0.960 . S
C3608 H3595 0.960 . S
C3608 C3607 1.524 . S
C3609 C3606 1.403 . S
C3609 C3610 1.392 . S
C3609 C3613 1.464 1_556 S
C3610 C3609 1.392 . S
C3610 C3611 1.385 . S
C3610 C3612 1.478 1_556 S
C3611 H3605 0.930 . S
C3611 C3607 1.400 . S
C3611 C3610 1.385 . S
C3612 C3610 1.478 1_554 S
C3612 C3614 1.381 . S
C3612 C3618 1.383 . S
C3613 C3609 1.464 1_554 S
C3613 H3619 0.930 1_554 S
C3613 H3620 0.992 . S
C3613 H3621 0.993 . S
C3614 C3612 1.381 . S
C3614 C3615 1.394 . S
C3614 H3622 0.930 . S
C3615 C3614 1.394 . S
C3615 C3616 1.383 . S
C3615 H3623 0.929 . S
C3616 C3615 1.383 . S
C3616 C3617 1.377 . S
C3617 H3601 0.930 . S
C3617 C3616 1.377 . S
C3617 C3618 1.379 . S
C3618 H3602 0.931 . S
C3618 C3612 1.383 . S
C3618 C3617 1.379 . S
H3619 C3613 0.930 1_556 S
H3620 C3613 0.992 . S
H3621 C3613 0.993 . S
H3622 C3614 0.930 . S
H3623 C3615 0.929 . S
H3624 C3632 0.929 . S
H3625 C3634 0.930 . S
H3626 C3636 0.930 . S
H3627 C3639 0.929 . S
H3628 C3642 0.930 . S
H3629 C3644 0.960 . S
H3630 C3644 0.960 . S
H3631 C3644 0.960 . S
C3632 H3624 0.929 . S
C3632 C3633 1.377 . S
C3632 C3634 1.384 . S
C3633 C3632 1.377 . S
C3633 C3639 1.390 . S
C3634 H3625 0.930 . S
C3634 C3632 1.384 . S
C3634 C3635 1.372 . S
C3635 C3634 1.372 . S
C3635 C3636 1.400 . S
C3635 C3640 1.490 . S
C3636 H3626 0.930 . S
C3636 C3635 1.400 . S
C3636 C3639 1.386 . S
H3637 C3653 0.930 . S
H3638 C3654 0.931 . S
C3639 H3627 0.929 . S
C3639 C3633 1.390 . S
C3639 C3636 1.386 . S
C3640 C3635 1.490 . S
C3640 C3642 1.395 . S
C3640 C3643 1.403 . S
H3641 C3647 0.930 . S
C3642 H3628 0.930 . S
C3642 C3640 1.395 . S
C3642 C3645 1.403 . S
C3643 C3640 1.403 . S
C3643 C3644 1.524 . S
C3643 C3647 1.400 . S
C3644 H3629 0.960 . S
C3644 H3630 0.960 . S
C3644 H3631 0.960 . S
C3644 C3643 1.524 . S
C3645 C3642 1.403 . S
C3645 C3646 1.392 . S
C3645 C3649 1.495 . S
C3646 C3645 1.392 . S
C3646 C3647 1.385 . S
C3646 C3648 1.478 . S
C3647 H3641 0.930 . S
C3647 C3643 1.400 . S
C3647 C3646 1.385 . S
C3648 C3646 1.478 . S
C3648 C3650 1.381 . S
C3648 C3654 1.383 . S
C3649 C3645 1.495 . S
C3649 H3655 0.959 . S
C3649 H3656 0.961 . S
C3649 H3657 0.960 . S
C3650 C3648 1.381 . S
C3650 C3651 1.394 . S
C3650 H3658 0.930 . S
C3651 C3650 1.394 . S
C3651 C3652 1.383 . S
C3651 H3659 0.929 . S
C3652 C3651 1.383 . S
C3652 C3653 1.377 . S
C3653 H3637 0.930 . S
C3653 C3652 1.377 . S
C3653 C3654 1.379 . S
C3654 H3638 0.931 . S
C3654 C3648 1.383 . S
C3654 C3653 1.379 . S
H3655 C3649 0.959 . S
H3656 C3649 0.961 . S
H3657 C3649 0.960 . S
H3658 C3650 0.930 . S
H3659 C3651 0.929 . S
H3660 C3668 0.929 . S
H3661 C3670 0.930 . S
H3662 C3672 0.930 . S
H3663 C3675 0.929 . S
H3664 C3678 0.930 . S
H3665 C3680 0.960 . S
H3666 C3680 0.960 . S
H3667 C3680 0.960 . S
C3668 H3660 0.929 . S
C3668 C3669 1.377 . S
C3668 C3670 1.384 . S
C3669 C3668 1.377 . S
C3669 C3675 1.390 . S
C3670 H3661 0.930 . S
C3670 C3668 1.384 . S
C3670 C3671 1.372 . S
C3671 C3670 1.372 . S
C3671 C3672 1.400 . S
C3671 C3676 1.490 . S
C3672 H3662 0.930 . S
C3672 C3671 1.400 . S
C3672 C3675 1.386 . S
H3673 C3689 0.930 . S
H3674 C3690 0.931 . S
C3675 H3663 0.929 . S
C3675 C3669 1.390 . S
C3675 C3672 1.386 . S
C3676 C3671 1.490 . S
C3676 C3678 1.395 . S
C3676 C3679 1.403 . S
H3677 C3683 0.930 . S
C3678 H3664 0.930 . S
C3678 C3676 1.395 . S
C3678 C3681 1.403 . S
C3679 C3676 1.403 . S
C3679 C3680 1.524 . S
C3679 C3683 1.400 . S
C3680 H3665 0.960 . S
C3680 H3666 0.960 . S
C3680 H3667 0.960 . S
C3680 C3679 1.524 . S
C3681 C3678 1.403 . S
C3681 C3682 1.392 . S
C3681 C3685 1.495 . S
C3682 C3681 1.392 . S
C3682 C3683 1.385 . S
C3682 C3684 1.478 . S
C3683 H3677 0.930 . S
C3683 C3679 1.400 . S
C3683 C3682 1.385 . S
C3684 C3682 1.478 . S
C3684 C3686 1.381 . S
C3684 C3690 1.383 . S
C3685 C3681 1.495 . S
C3685 H3691 0.959 . S
C3685 H3692 0.961 . S
C3685 H3693 0.960 . S
C3686 C3684 1.381 . S
C3686 C3687 1.394 . S
C3686 H3694 0.930 . S
C3687 C3686 1.394 . S
C3687 C3688 1.383 . S
C3687 H3695 0.929 . S
C3688 C3687 1.383 . S
C3688 C3689 1.377 . S
C3689 H3673 0.930 . S
C3689 C3688 1.377 . S
C3689 C3690 1.379 . S
C3690 H3674 0.931 . S
C3690 C3684 1.383 . S
C3690 C3689 1.379 . S
H3691 C3685 0.959 . S
H3692 C3685 0.961 . S
H3693 C3685 0.960 . S
H3694 C3686 0.930 . S
H3695 C3687 0.929 . S
H3696 C3704 0.929 . S
H3697 C3706 0.930 . S
H3698 C3708 0.930 . S
H3699 C3711 0.929 . S
H3700 C3714 0.930 . S
H3701 C3716 0.960 . S
H3702 C3716 0.960 . S
H3703 C3716 0.960 . S
C3704 H3696 0.929 . S
C3704 C3705 1.377 . S
C3704 C3706 1.384 . S
C3705 C3704 1.377 . S
C3705 C3711 1.390 . S
C3706 H3697 0.930 . S
C3706 C3704 1.384 . S
C3706 C3707 1.372 . S
C3707 C3706 1.372 . S
C3707 C3708 1.400 . S
C3707 C3712 1.490 . S
C3708 H3698 0.930 . S
C3708 C3707 1.400 . S
C3708 C3711 1.386 . S
H3709 C3725 0.930 . S
H3710 C3726 0.931 . S
C3711 H3699 0.929 . S
C3711 C3705 1.390 . S
C3711 C3708 1.386 . S
C3712 C3707 1.490 . S
C3712 C3714 1.395 . S
C3712 C3715 1.403 . S
H3713 C3719 0.930 . S
C3714 H3700 0.930 . S
C3714 C3712 1.395 . S
C3714 C3717 1.403 . S
C3715 C3712 1.403 . S
C3715 C3716 1.524 . S
C3715 C3719 1.400 . S
C3716 H3701 0.960 . S
C3716 H3702 0.960 . S
C3716 H3703 0.960 . S
C3716 C3715 1.524 . S
C3717 C3714 1.403 . S
C3717 C3718 1.392 . S
C3717 C3721 1.495 . S
C3718 C3717 1.392 . S
C3718 C3719 1.385 . S
C3718 C3720 1.478 . S
C3719 H3713 0.930 . S
C3719 C3715 1.400 . S
C3719 C3718 1.385 . S
C3720 C3718 1.478 . S
C3720 C3722 1.381 . S
C3720 C3726 1.383 . S
C3721 C3717 1.495 . S
C3721 H3727 0.959 . S
C3721 H3728 0.961 . S
C3721 H3729 0.960 . S
C3722 C3720 1.381 . S
C3722 C3723 1.394 . S
C3722 H3730 0.930 . S
C3723 C3722 1.394 . S
C3723 C3724 1.383 . S
C3723 H3731 0.929 . S
C3724 C3723 1.383 . S
C3724 C3725 1.377 . S
C3725 H3709 0.930 . S
C3725 C3724 1.377 . S
C3725 C3726 1.379 . S
C3726 H3710 0.931 . S
C3726 C3720 1.383 . S
C3726 C3725 1.379 . S
H3727 C3721 0.959 . S
H3728 C3721 0.961 . S
H3729 C3721 0.960 . S
H3730 C3722 0.930 . S
H3731 C3723 0.929 . S
H3732 C3740 0.929 . S
H3733 C3742 0.930 . S
H3734 C3744 0.930 . S
H3735 C3747 0.929 . S
H3736 C3750 0.930 . S
H3737 C3752 0.960 . S
H3738 C3752 0.960 . S
H3739 C3752 0.960 . S
C3740 H3732 0.929 . S
C3740 C3741 1.377 . S
C3740 C3742 1.384 . S
C3741 C3740 1.377 . S
C3741 C3747 1.390 . S
C3742 H3733 0.930 . S
C3742 C3740 1.384 . S
C3742 C3743 1.372 . S
C3743 C3742 1.372 . S
C3743 C3744 1.400 . S
C3743 C3748 1.490 . S
C3744 H3734 0.930 . S
C3744 C3743 1.400 . S
C3744 C3747 1.386 . S
H3745 C3761 0.930 . S
H3746 C3762 0.931 1_554 S
C3747 H3735 0.929 . S
C3747 C3741 1.390 . S
C3747 C3744 1.386 . S
C3748 C3743 1.490 . S
C3748 C3750 1.395 . S
C3748 C3751 1.403 . S
H3749 C3755 0.930 . S
C3750 H3736 0.930 . S
C3750 C3748 1.395 . S
C3750 C3753 1.403 . S
C3751 C3748 1.403 . S
C3751 C3752 1.524 . S
C3751 C3755 1.400 . S
C3752 H3737 0.960 . S
C3752 H3738 0.960 . S
C3752 H3739 0.960 . S
C3752 C3751 1.524 . S
C3753 C3750 1.403 . S
C3753 C3754 1.392 . S
C3753 C3757 1.495 . S
C3754 C3753 1.392 . S
C3754 C3755 1.385 . S
C3754 C3756 1.478 1_554 S
C3755 H3749 0.930 . S
C3755 C3751 1.400 . S
C3755 C3754 1.385 . S
C3756 C3754 1.478 1_556 S
C3756 C3758 1.381 . S
C3756 C3762 1.383 . S
C3757 C3753 1.495 . S
C3757 H3763 0.959 . S
C3757 H3764 0.961 . S
C3757 H3765 0.960 . S
C3758 C3756 1.381 . S
C3758 C3759 1.394 . S
C3758 H3766 0.930 . S
C3759 C3758 1.394 . S
C3759 C3760 1.383 . S
C3759 H3767 0.929 . S
C3760 C3759 1.383 . S
C3760 C3761 1.377 . S
C3761 H3745 0.930 . S
C3761 C3760 1.377 . S
C3761 C3762 1.379 . S
C3762 H3746 0.931 1_556 S
C3762 C3756 1.383 . S
C3762 C3761 1.379 . S
H3763 C3757 0.959 . S
H3764 C3757 0.961 . S
H3765 C3757 0.960 . S
H3766 C3758 0.930 . S
H3767 C3759 0.929 . S
H3768 C3776 0.929 . S
H3769 C3778 0.930 . S
H3770 C3780 0.930 . S
H3771 C3783 0.929 . S
H3772 C3786 0.930 . S
H3773 C3788 0.960 . S
H3774 C3788 0.960 . S
H3775 C3788 0.960 . S
C3776 H3768 0.929 . S
C3776 C3777 1.377 . S
C3776 C3778 1.384 . S
C3777 C3776 1.377 . S
C3777 C3783 1.390 . S
C3778 H3769 0.930 . S
C3778 C3776 1.384 . S
C3778 C3779 1.372 . S
C3779 C3778 1.372 . S
C3779 C3780 1.400 . S
C3779 C3784 1.490 . S
C3780 H3770 0.930 . S
C3780 C3779 1.400 . S
C3780 C3783 1.386 . S
H3781 C3797 0.930 . S
H3782 C3798 0.931 . S
C3783 H3771 0.929 . S
C3783 C3777 1.390 . S
C3783 C3780 1.386 . S
C3784 C3779 1.490 . S
C3784 C3786 1.395 . S
C3784 C3787 1.403 . S
H3785 C3791 0.930 . S
C3786 H3772 0.930 . S
C3786 C3784 1.395 . S
C3786 C3789 1.403 . S
C3787 C3784 1.403 . S
C3787 C3788 1.524 . S
C3787 C3791 1.400 . S
C3788 H3773 0.960 . S
C3788 H3774 0.960 . S
C3788 H3775 0.960 . S
C3788 C3787 1.524 . S
C3789 C3786 1.403 . S
C3789 C3790 1.392 . S
C3789 C3793 1.495 . S
C3790 C3789 1.392 . S
C3790 C3791 1.385 . S
C3790 C3792 1.478 . S
C3791 H3785 0.930 . S
C3791 C3787 1.400 . S
C3791 C3790 1.385 . S
C3792 C3790 1.478 . S
C3792 C3794 1.381 . S
C3792 C3798 1.383 . S
C3793 C3789 1.495 . S
C3793 H3799 0.959 . S
C3793 H3800 0.961 . S
C3793 H3801 0.960 . S
C3794 C3792 1.381 . S
C3794 C3795 1.394 . S
C3794 H3802 0.930 . S
C3795 C3794 1.394 . S
C3795 C3796 1.383 . S
C3795 H3803 0.929 . S
C3796 C3795 1.383 . S
C3796 C3797 1.377 . S
C3797 H3781 0.930 . S
C3797 C3796 1.377 . S
C3797 C3798 1.379 . S
C3798 H3782 0.931 . S
C3798 C3792 1.383 . S
C3798 C3797 1.379 . S
H3799 C3793 0.959 . S
H3800 C3793 0.961 . S
H3801 C3793 0.960 . S
H3802 C3794 0.930 . S
H3803 C3795 0.929 . S
H3804 C3812 0.929 . S
H3805 C3814 0.930 . S
H3806 C3816 0.930 . S
H3807 C3819 0.929 . S
H3808 C3822 0.930 . S
H3809 C3824 0.960 . S
H3810 C3824 0.960 . S
H3811 C3824 0.960 . S
C3812 H3804 0.929 . S
C3812 C3813 1.377 . S
C3812 C3814 1.384 . S
C3813 C3812 1.377 . S
C3813 C3819 1.390 . S
C3814 H3805 0.930 . S
C3814 C3812 1.384 . S
C3814 C3815 1.372 . S
C3815 C3814 1.372 . S
C3815 C3816 1.400 . S
C3815 C3820 1.490 . S
C3816 H3806 0.930 . S
C3816 C3815 1.400 . S
C3816 C3819 1.386 . S
H3817 C3833 0.930 . S
H3818 C3834 0.931 . S
C3819 H3807 0.929 . S
C3819 C3813 1.390 . S
C3819 C3816 1.386 . S
C3820 C3815 1.490 . S
C3820 C3822 1.395 . S
C3820 C3823 1.403 . S
H3821 C3827 0.930 . S
C3822 H3808 0.930 . S
C3822 C3820 1.395 . S
C3822 C3825 1.403 . S
C3823 C3820 1.403 . S
C3823 C3824 1.524 . S
C3823 C3827 1.400 . S
C3824 H3809 0.960 . S
C3824 H3810 0.960 . S
C3824 H3811 0.960 . S
C3824 C3823 1.524 . S
C3825 C3822 1.403 . S
C3825 C3826 1.392 . S
C3825 C3829 1.495 . S
C3826 C3825 1.392 . S
C3826 C3827 1.385 . S
C3826 C3828 1.478 . S
C3827 H3821 0.930 . S
C3827 C3823 1.400 . S
C3827 C3826 1.385 . S
C3828 C3826 1.478 . S
C3828 C3830 1.381 . S
C3828 C3834 1.383 . S
C3829 C3825 1.495 . S
C3829 H3835 0.959 . S
C3829 H3836 0.961 . S
C3829 H3837 0.960 . S
C3830 C3828 1.381 . S
C3830 C3831 1.394 . S
C3830 H3838 0.930 . S
C3831 C3830 1.394 . S
C3831 C3832 1.383 . S
C3831 H3839 0.929 . S
C3832 C3831 1.383 . S
C3832 C3833 1.377 . S
C3833 H3817 0.930 . S
C3833 C3832 1.377 . S
C3833 C3834 1.379 . S
C3834 H3818 0.931 . S
C3834 C3828 1.383 . S
C3834 C3833 1.379 . S
H3835 C3829 0.959 . S
H3836 C3829 0.961 . S
H3837 C3829 0.960 . S
H3838 C3830 0.930 . S
H3839 C3831 0.929 . S
H3840 C3848 0.929 . S
H3841 C3850 0.930 . S
H3842 C3852 0.930 . S
H3843 C3855 0.929 . S
H3844 C3858 0.930 . S
H3845 C3860 0.960 . S
H3846 C3860 0.960 . S
H3847 C3860 0.960 . S
C3848 H3840 0.929 . S
C3848 C3849 1.377 . S
C3848 C3850 1.384 . S
C3849 C3848 1.377 . S
C3849 C3855 1.390 . S
C3850 H3841 0.930 . S
C3850 C3848 1.384 . S
C3850 C3851 1.372 . S
C3851 C3850 1.372 . S
C3851 C3852 1.400 . S
C3851 C3856 1.490 . S
C3852 H3842 0.930 . S
C3852 C3851 1.400 . S
C3852 C3855 1.386 . S
H3853 C3869 0.930 . S
H3854 C3870 0.931 . S
C3855 H3843 0.929 . S
C3855 C3849 1.390 . S
C3855 C3852 1.386 . S
C3856 C3851 1.490 . S
C3856 C3858 1.395 . S
C3856 C3859 1.403 . S
H3857 C3863 0.930 . S
C3858 H3844 0.930 . S
C3858 C3856 1.395 . S
C3858 C3861 1.403 . S
C3859 C3856 1.403 . S
C3859 C3860 1.524 . S
C3859 C3863 1.400 . S
C3860 H3845 0.960 . S
C3860 H3846 0.960 . S
C3860 H3847 0.960 . S
C3860 C3859 1.524 . S
C3861 C3858 1.403 . S
C3861 C3862 1.392 . S
C3861 C3865 1.495 . S
C3862 C3861 1.392 . S
C3862 C3863 1.385 . S
C3862 C3864 1.478 . S
C3863 H3857 0.930 . S
C3863 C3859 1.400 . S
C3863 C3862 1.385 . S
C3864 C3862 1.478 . S
C3864 C3866 1.381 . S
C3864 C3870 1.383 . S
C3865 C3861 1.495 . S
C3865 H3871 0.959 . S
C3865 H3872 0.961 . S
C3865 H3873 0.960 . S
C3866 C3864 1.381 . S
C3866 C3867 1.394 . S
C3866 H3874 0.930 . S
C3867 C3866 1.394 . S
C3867 C3868 1.383 . S
C3867 H3875 0.929 . S
C3868 C3867 1.383 . S
C3868 C3869 1.377 . S
C3869 H3853 0.930 . S
C3869 C3868 1.377 . S
C3869 C3870 1.379 . S
C3870 H3854 0.931 . S
C3870 C3864 1.383 . S
C3870 C3869 1.379 . S
H3871 C3865 0.959 . S
H3872 C3865 0.961 . S
H3873 C3865 0.960 . S
H3874 C3866 0.930 . S
H3875 C3867 0.929 . S
H3876 C3884 0.929 . S
H3877 C3886 0.930 . S
H3878 C3888 0.930 . S
H3879 C3891 0.929 . S
H3880 C3894 0.930 . S
H3881 C3896 0.960 . S
H3882 C3896 0.960 . S
H3883 C3896 0.960 . S
C3884 H3876 0.929 . S
C3884 C3885 1.377 . S
C3884 C3886 1.384 . S
C3885 C3884 1.377 . S
C3885 C3891 1.390 . S
C3886 H3877 0.930 . S
C3886 C3884 1.384 . S
C3886 C3887 1.372 . S
C3887 C3886 1.372 . S
C3887 C3888 1.400 . S
C3887 C3892 1.490 . S
C3888 H3878 0.930 . S
C3888 C3887 1.400 . S
C3888 C3891 1.386 . S
H3889 C3905 0.930 . S
H3890 C3906 0.931 . S
C3891 H3879 0.929 . S
C3891 C3885 1.390 . S
C3891 C3888 1.386 . S
C3892 C3887 1.490 . S
C3892 C3894 1.395 . S
C3892 C3895 1.403 . S
H3893 C3899 0.930 . S
C3894 H3880 0.930 . S
C3894 C3892 1.395 . S
C3894 C3897 1.403 . S
C3895 C3892 1.403 . S
C3895 C3896 1.524 . S
C3895 C3899 1.400 . S
C3896 H3881 0.960 . S
C3896 H3882 0.960 . S
C3896 H3883 0.960 . S
C3896 C3895 1.524 . S
C3897 C3894 1.403 . S
C3897 C3898 1.392 . S
C3897 C3901 1.495 . S
C3898 C3897 1.392 . S
C3898 C3899 1.385 . S
C3898 C3900 1.478 . S
C3899 H3893 0.930 . S
C3899 C3895 1.400 . S
C3899 C3898 1.385 . S
C3900 C3898 1.478 . S
C3900 C3902 1.381 . S
C3900 C3906 1.383 . S
C3901 C3897 1.495 . S
C3901 H3907 0.959 . S
C3901 H3908 0.961 . S
C3901 H3909 0.960 . S
C3902 C3900 1.381 . S
C3902 C3903 1.394 . S
C3902 H3910 0.930 . S
C3903 C3902 1.394 . S
C3903 C3904 1.383 . S
C3903 H3911 0.929 . S
C3904 C3903 1.383 . S
C3904 C3905 1.377 . S
C3905 H3889 0.930 . S
C3905 C3904 1.377 . S
C3905 C3906 1.379 . S
C3906 H3890 0.931 . S
C3906 C3900 1.383 . S
C3906 C3905 1.379 . S
H3907 C3901 0.959 . S
H3908 C3901 0.961 . S
H3909 C3901 0.960 . S
H3910 C3902 0.930 . S
H3911 C3903 0.929 . S
H3912 C3920 0.929 . S
H3913 C3922 0.930 . S
H3914 C3924 0.930 . S
H3915 C3927 0.929 . S
H3916 C3930 0.930 . S
H3917 C3932 0.960 . S
H3918 C3932 0.960 . S
H3919 C3932 0.960 . S
C3920 H3912 0.929 . S
C3920 C3921 1.377 . S
C3920 C3922 1.384 . S
C3921 C3920 1.377 . S
C3921 C3927 1.390 . S
C3922 H3913 0.930 . S
C3922 C3920 1.384 . S
C3922 C3923 1.372 . S
C3923 C3922 1.372 . S
C3923 C3924 1.400 . S
C3923 C3928 1.490 . S
C3924 H3914 0.930 . S
C3924 C3923 1.400 . S
C3924 C3927 1.386 . S
H3925 C3941 0.930 . S
H3926 C3942 0.931 . S
C3927 H3915 0.929 . S
C3927 C3921 1.390 . S
C3927 C3924 1.386 . S
C3928 C3923 1.490 . S
C3928 C3930 1.395 . S
C3928 C3931 1.403 . S
H3929 C3935 0.930 . S
C3930 H3916 0.930 . S
C3930 C3928 1.395 . S
C3930 C3933 1.403 . S
C3931 C3928 1.403 . S
C3931 C3932 1.524 . S
C3931 C3935 1.400 . S
C3932 H3917 0.960 . S
C3932 H3918 0.960 . S
C3932 H3919 0.960 . S
C3932 C3931 1.524 . S
C3933 C3930 1.403 . S
C3933 C3934 1.392 . S
C3933 C3937 1.495 . S
C3934 C3933 1.392 . S
C3934 C3935 1.385 . S
C3934 C3936 1.478 1_565 S
C3935 H3929 0.930 . S
C3935 C3931 1.400 . S
C3935 C3934 1.385 . S
C3936 C3934 1.478 1_545 S
C3936 C3938 1.381 . S
C3936 C3942 1.383 . S
C3937 C3933 1.495 . S
C3937 H3943 0.959 . S
C3937 H3944 0.961 . S
C3937 H3945 0.960 . S
C3938 C3936 1.381 . S
C3938 C3939 1.394 . S
C3938 H3946 0.930 . S
C3939 C3938 1.394 . S
C3939 C3940 1.383 . S
C3939 H3947 0.929 . S
C3940 C3939 1.383 . S
C3940 C3941 1.377 . S
C3941 H3925 0.930 . S
C3941 C3940 1.377 . S
C3941 C3942 1.379 . S
C3942 H3926 0.931 . S
C3942 C3936 1.383 . S
C3942 C3941 1.379 . S
H3943 C3937 0.959 . S
H3944 C3937 0.961 . S
H3945 C3937 0.960 . S
H3946 C3938 0.930 . S
H3947 C3939 0.929 . S
H3948 C3956 0.929 . S
H3949 C3958 0.930 . S
H3950 C3960 0.930 . S
H3951 C3963 0.929 . S
H3952 C3966 0.930 . S
H3953 C3968 0.960 . S
H3954 C3968 0.960 . S
H3955 C3968 0.960 . S
C3956 H3948 0.929 . S
C3956 C3957 1.377 . S
C3956 C3958 1.384 . S
C3957 C3956 1.377 . S
C3957 C3963 1.390 . S
C3958 H3949 0.930 . S
C3958 C3956 1.384 . S
C3958 C3959 1.372 . S
C3959 C3958 1.372 . S
C3959 C3960 1.400 . S
C3959 C3964 1.490 . S
C3960 H3950 0.930 . S
C3960 C3959 1.400 . S
C3960 C3963 1.386 . S
H3961 C3977 0.930 . S
H3962 C3978 0.931 . S
C3963 H3951 0.929 . S
C3963 C3957 1.390 . S
C3963 C3960 1.386 . S
C3964 C3959 1.490 . S
C3964 C3966 1.395 . S
C3964 C3967 1.403 . S
H3965 C3971 0.930 . S
C3966 H3952 0.930 . S
C3966 C3964 1.395 . S
C3966 C3969 1.403 . S
C3967 C3964 1.403 . S
C3967 C3968 1.524 . S
C3967 C3971 1.400 . S
C3968 H3953 0.960 . S
C3968 H3954 0.960 . S
C3968 H3955 0.960 . S
C3968 C3967 1.524 . S
C3969 C3966 1.403 . S
C3969 C3970 1.392 . S
C3969 C3973 1.495 . S
C3970 C3969 1.392 . S
C3970 C3971 1.385 . S
C3970 C3972 1.478 . S
C3971 H3965 0.930 . S
C3971 C3967 1.400 . S
C3971 C3970 1.385 . S
C3972 C3970 1.478 . S
C3972 C3974 1.381 . S
C3972 C3978 1.383 . S
C3973 C3969 1.495 . S
C3973 H3979 0.959 . S
C3973 H3980 0.961 . S
C3973 H3981 0.960 . S
C3974 C3972 1.381 . S
C3974 C3975 1.394 . S
C3974 H3982 0.930 . S
C3975 C3974 1.394 . S
C3975 C3976 1.383 . S
C3975 H3983 0.929 . S
C3976 C3975 1.383 . S
C3976 C3977 1.377 . S
C3977 H3961 0.930 . S
C3977 C3976 1.377 . S
C3977 C3978 1.379 . S
C3978 H3962 0.931 . S
C3978 C3972 1.383 . S
C3978 C3977 1.379 . S
H3979 C3973 0.959 . S
H3980 C3973 0.961 . S
H3981 C3973 0.960 . S
H3982 C3974 0.930 . S
H3983 C3975 0.929 . S
H3984 C3992 0.929 . S
H3985 C3994 0.930 . S
H3986 C3996 0.930 . S
H3987 C3999 0.929 . S
H3988 C4002 0.930 . S
H3989 C4004 0.960 . S
H3990 C4004 0.960 . S
H3991 C4004 0.960 . S
C3992 H3984 0.929 . S
C3992 C3993 1.377 . S
C3992 C3994 1.384 . S
C3993 C3992 1.377 . S
C3993 C3999 1.390 . S
C3994 H3985 0.930 . S
C3994 C3992 1.384 . S
C3994 C3995 1.372 . S
C3995 C3994 1.372 . S
C3995 C3996 1.400 . S
C3995 C4000 1.490 . S
C3996 H3986 0.930 . S
C3996 C3995 1.400 . S
C3996 C3999 1.386 . S
H3997 C4013 0.930 . S
H3998 C4014 0.931 . S
C3999 H3987 0.929 . S
C3999 C3993 1.390 . S
C3999 C3996 1.386 . S
C4000 C3995 1.490 . S
C4000 C4002 1.395 . S
C4000 C4003 1.403 . S
H4001 C4007 0.930 . S
C4002 H3988 0.930 . S
C4002 C4000 1.395 . S
C4002 C4005 1.403 . S
C4003 C4000 1.403 . S
C4003 C4004 1.524 . S
C4003 C4007 1.400 . S
C4004 H3989 0.960 . S
C4004 H3990 0.960 . S
C4004 H3991 0.960 . S
C4004 C4003 1.524 . S
C4005 C4002 1.403 . S
C4005 C4006 1.392 . S
C4005 C4009 1.495 . S
C4006 C4005 1.392 . S
C4006 C4007 1.385 . S
C4006 C4008 1.478 . S
C4007 H4001 0.930 . S
C4007 C4003 1.400 . S
C4007 C4006 1.385 . S
C4008 C4006 1.478 . S
C4008 C4010 1.381 . S
C4008 C4014 1.383 . S
C4009 C4005 1.495 . S
C4009 H4015 0.959 . S
C4009 H4016 0.961 . S
C4009 H4017 0.960 . S
C4010 C4008 1.381 . S
C4010 C4011 1.394 . S
C4010 H4018 0.930 . S
C4011 C4010 1.394 . S
C4011 C4012 1.383 . S
C4011 H4019 0.929 . S
C4012 C4011 1.383 . S
C4012 C4013 1.377 . S
C4013 H3997 0.930 . S
C4013 C4012 1.377 . S
C4013 C4014 1.379 . S
C4014 H3998 0.931 . S
C4014 C4008 1.383 . S
C4014 C4013 1.379 . S
H4015 C4009 0.959 . S
H4016 C4009 0.961 . S
H4017 C4009 0.960 . S
H4018 C4010 0.930 . S
H4019 C4011 0.929 . S
H4020 C4028 0.929 . S
H4021 C4030 0.930 . S
H4022 C4032 0.930 . S
H4023 C4035 0.929 . S
H4024 C4038 0.930 . S
H4025 C4040 0.960 . S
H4026 C4040 0.960 . S
H4027 C4040 0.960 . S
C4028 H4020 0.929 . S
C4028 C4029 1.377 . S
C4028 C4030 1.384 . S
C4029 C4028 1.377 . S
C4029 C4035 1.390 . S
C4030 H4021 0.930 . S
C4030 C4028 1.384 . S
C4030 C4031 1.372 . S
C4031 C4030 1.372 . S
C4031 C4032 1.400 . S
C4031 C4036 1.490 . S
C4032 H4022 0.930 . S
C4032 C4031 1.400 . S
C4032 C4035 1.386 . S
H4033 C4049 0.930 . S
H4034 C4050 0.931 . S
C4035 H4023 0.929 . S
C4035 C4029 1.390 . S
C4035 C4032 1.386 . S
C4036 C4031 1.490 . S
C4036 C4038 1.395 . S
C4036 C4039 1.403 . S
H4037 C4043 0.930 . S
C4038 H4024 0.930 . S
C4038 C4036 1.395 . S
C4038 C4041 1.403 . S
C4039 C4036 1.403 . S
C4039 C4040 1.524 . S
C4039 C4043 1.400 . S
C4040 H4025 0.960 . S
C4040 H4026 0.960 . S
C4040 H4027 0.960 . S
C4040 C4039 1.524 . S
C4041 C4038 1.403 . S
C4041 C4042 1.392 . S
C4041 C4045 1.495 . S
C4042 C4041 1.392 . S
C4042 C4043 1.385 . S
C4042 C4044 1.478 . S
C4043 H4037 0.930 . S
C4043 C4039 1.400 . S
C4043 C4042 1.385 . S
C4044 C4042 1.478 . S
C4044 C4046 1.381 . S
C4044 C4050 1.383 . S
C4045 C4041 1.495 . S
C4045 H4051 0.959 . S
C4045 H4052 0.961 . S
C4045 H4053 0.960 . S
C4046 C4044 1.381 . S
C4046 C4047 1.394 . S
C4046 H4054 0.930 . S
C4047 C4046 1.394 . S
C4047 C4048 1.383 . S
C4047 H4055 0.929 . S
C4048 C4047 1.383 . S
C4048 C4049 1.377 . S
C4049 H4033 0.930 . S
C4049 C4048 1.377 . S
C4049 C4050 1.379 . S
C4050 H4034 0.931 . S
C4050 C4044 1.383 . S
C4050 C4049 1.379 . S
H4051 C4045 0.959 . S
H4052 C4045 0.961 . S
H4053 C4045 0.960 . S
H4054 C4046 0.930 . S
H4055 C4047 0.929 . S
H4056 C4064 0.929 . S
H4057 C4066 0.930 . S
H4058 C4068 0.930 . S
H4059 C4071 0.929 . S
H4060 C4074 0.930 1_565 S
H4061 C4076 0.960 . S
H4062 C4076 0.960 1_565 S
H4063 C4076 0.939 1_565 S
C4064 H4056 0.929 . S
C4064 C4065 1.377 . S
C4064 C4066 1.384 . S
C4065 C4064 1.377 . S
C4065 C4071 1.390 . S
C4066 H4057 0.930 . S
C4066 C4064 1.384 . S
C4066 C4067 1.372 . S
C4067 C4066 1.372 . S
C4067 C4068 1.400 . S
C4067 C4072 1.490 . S
C4068 H4058 0.930 . S
C4068 C4067 1.400 . S
C4068 C4071 1.386 . S
H4069 C4085 0.930 . S
H4070 C4086 0.931 . S
C4071 H4059 0.929 . S
C4071 C4065 1.390 . S
C4071 C4068 1.386 . S
C4072 C4067 1.490 . S
C4072 C4074 1.395 1_565 S
C4072 C4075 1.403 1_565 S
H4073 C4079 0.930 . S
C4074 H4060 0.930 1_545 S
C4074 C4072 1.395 1_545 S
C4074 C4077 1.403 . S
C4075 C4072 1.403 1_545 S
C4075 C4076 1.524 . S
C4075 C4079 1.400 . S
C4076 H4061 0.960 . S
C4076 H4062 0.960 1_545 S
C4076 H4063 0.939 1_545 S
C4076 C4075 1.524 . S
C4077 C4074 1.403 . S
C4077 C4078 1.392 . S
C4077 C4081 1.495 . S
C4078 C4077 1.392 . S
C4078 C4079 1.385 . S
C4078 C4080 1.478 . S
C4079 H4073 0.930 . S
C4079 C4075 1.400 . S
C4079 C4078 1.385 . S
C4080 C4078 1.478 . S
C4080 C4082 1.381 . S
C4080 C4086 1.383 . S
C4081 C4077 1.495 . S
C4081 H4087 0.959 . S
C4081 H4088 0.961 . S
C4081 H4089 0.960 . S
C4082 C4080 1.381 . S
C4082 C4083 1.394 . S
C4082 H4090 0.930 . S
C4083 C4082 1.394 . S
C4083 C4084 1.383 . S
C4083 H4091 0.929 . S
C4084 C4083 1.383 . S
C4084 C4085 1.377 . S
C4085 H4069 0.930 . S
C4085 C4084 1.377 . S
C4085 C4086 1.379 . S
C4086 H4070 0.931 . S
C4086 C4080 1.383 . S
C4086 C4085 1.379 . S
H4087 C4081 0.959 . S
H4088 C4081 0.961 . S
H4089 C4081 0.960 . S
H4090 C4082 0.930 . S
H4091 C4083 0.929 . S
H4092 C4100 0.929 . S
H4093 C4102 0.930 . S
H4094 C4104 0.930 . S
H4095 C4107 0.929 . S
H4096 C4110 0.930 . S
H4097 C4112 0.960 . S
H4098 C4112 0.960 . S
H4099 C4112 0.960 . S
C4100 H4092 0.929 . S
C4100 C4101 1.377 . S
C4100 C4102 1.384 . S
C4101 C4100 1.377 . S
C4101 C4107 1.390 . S
C4102 H4093 0.930 . S
C4102 C4100 1.384 . S
C4102 C4103 1.372 . S
C4103 C4102 1.372 . S
C4103 C4104 1.400 . S
C4103 C4108 1.490 . S
C4104 H4094 0.930 . S
C4104 C4103 1.400 . S
C4104 C4107 1.386 . S
H4105 C4121 0.930 . S
H4106 C4122 0.931 . S
C4107 H4095 0.929 . S
C4107 C4101 1.390 . S
C4107 C4104 1.386 . S
C4108 C4103 1.490 . S
C4108 C4110 1.395 . S
C4108 C4111 1.403 . S
H4109 C4115 0.924 1_545 S
C4110 H4096 0.930 . S
C4110 C4108 1.395 . S
C4110 C4113 1.403 . S
C4111 C4108 1.403 . S
C4111 C4112 1.524 . S
C4111 C4115 1.407 . S
C4112 H4097 0.960 . S
C4112 H4098 0.960 . S
C4112 H4099 0.960 . S
C4112 C4111 1.524 . S
C4113 C4110 1.403 . S
C4113 C4114 1.392 1_565 S
C4113 C4117 1.495 . S
C4114 C4113 1.392 1_545 S
C4114 C4115 1.383 1_545 S
C4114 C4116 1.478 . S
C4115 H4109 0.924 1_565 S
C4115 C4111 1.407 . S
C4115 C4114 1.383 1_565 S
C4116 C4114 1.478 . S
C4116 C4118 1.381 . S
C4116 C4122 1.383 . S
C4117 C4113 1.495 . S
C4117 H4123 0.959 . S
C4117 H4124 0.961 1_565 S
C4117 H4125 0.933 1_565 S
C4118 C4116 1.381 . S
C4118 C4119 1.394 . S
C4118 H4126 0.930 . S
C4119 C4118 1.394 . S
C4119 C4120 1.383 . S
C4119 H4127 0.929 . S
C4120 C4119 1.383 . S
C4120 C4121 1.377 . S
C4121 H4105 0.930 . S
C4121 C4120 1.377 . S
C4121 C4122 1.379 . S
C4122 H4106 0.931 . S
C4122 C4116 1.383 . S
C4122 C4121 1.379 . S
H4123 C4117 0.959 . S
H4124 C4117 0.961 1_545 S
H4125 C4117 0.933 1_545 S
H4126 C4118 0.930 . S
H4127 C4119 0.929 . S
C681 C592 0.989 . S
C700 C5 0.853 . S
C717 C26 1.095 . S
C736 C222 1.066 . S
C753 C33 0.927 . S
C772 C564 1.030 . S
C789 C54 1.137 . S
C808 C250 1.096 . S
C825 C620 1.053 . S
C844 C68 1.065 . S
C861 C75 0.971 . S
C880 C299 1.004 . S
C897 C96 1.012 . S
C916 C648 0.985 . S
C933 C103 0.939 . S
C952 C271 0.990 . S
C969 C47 0.915 . S
C988 C669 1.062 . S
C1005 C12 1.109 . S
C1024 C354 1.120 . S
C1041 C375 0.963 . S
C1060 C19 0.935 . S
C1077 C40 1.044 . S
C1096 C340 1.015 . S
C1113 C82 1.039 . S
C1132 C347 1.013 . S
C1149 C89 0.908 . S
C1168 C662 1.001 . S
C1185 C110 1.121 . S
C1204 C361 1.125 . S
C1221 C61 0.918 . S
C1240 C368 1.030 . S
C1257 C551 0.975 . S
C1276 C117 1.004 . S
C1293 C138 1.150 . S
C1312 C278 1.141 . S
C1329 C124 1.066 . S
C1348 C627 1.051 . S
C1365 C306 1.135 . S
C1384 C152 1.155 . S
C1401 C319 1.029 . S
C1420 C159 0.861 . S
C1437 C579 1.027 . S
C1456 C180 1.104 . S
C1473 C599 1.012 . S
C1492 C187 0.829 . S
C1509 C571 1.077 . S
C1528 C208 1.090 . S
C1545 C473 0.974 . S
C1564 C221 0.950 . S
C1581 C229 0.969 . S
C1600 C4 1.118 . S
C1617 C249 0.995 . S
C1636 C445 0.994 . S
C1653 C32 1.041 . S
C1672 C257 0.985 . S
C1689 C270 0.954 . S
C1708 C494 0.933 . S
C1725 C95 1.138 . S
C1744 C285 0.983 . S
C1761 C298 1.066 . S
C1780 C522 1.049 . S
C1797 C67 1.148 . S
C1816 C313 1.079 . S
C1833 C543 1.016 . S
C1852 C264 1.047 . S
C1869 C214 0.947 . S
C1888 C151 0.960 . S
C1905 C158 1.127 . S
C1924 C236 1.124 . S
C1941 C137 1.100 . S
C1960 C242 1.100 . S
C1977 C130 1.212 . S
C1996 C292 1.221 . S
C2013 C305 1.074 . S
C2032 C536 1.089 . S
C2049 C144 1.090 . S
C2068 C320 1.096 . S
C2085 C277 0.980 . S
C2104 C165 0.953 . S
C2121 C327 0.921 . S
C2140 C431 1.005 . S
C2157 C341 1.040 . S
C2176 C60 1.184 . S
C2193 C334 1.016 . S
C2212 C501 0.964 . S
C2229 C355 1.064 . S
C2248 C88 1.211 . S
C2265 C376 1.036 . S
C2284 C109 1.047 . S
C2301 C459 0.953 . S
C2320 C383 0.938 . S
C2337 C404 1.227 . S
C2356 C466 1.228 . S
C2373 C418 1.206 . S
C2392 C438 1.196 . S
C2409 C425 0.935 . S
C2428 C256 1.024 . S
C2445 C446 1.116 . S
C2464 C558 1.096 . S
C2481 C228 1.040 . S
C2500 C453 0.973 . S
C2517 C474 1.155 . S
C2536 C586 1.116 . S
C2553 C488 1.084 . S
C2572 C284 1.085 . S
C2589 C635 0.986 . S
C2608 C495 0.920 . S
C2625 C516 1.032 . S
C2644 C312 1.034 . S
C2661 C607 1.021 . S
C2680 C523 1.035 . S
C2697 C333 1.026 . S
C2716 C467 0.926 . S
C2733 C410 1.059 . S
C2752 C432 1.055 . S
C2769 C439 0.888 . S
C2788 C389 1.030 . S
C2805 C396 1.043 . S
C2824 C460 1.036 . S
C2841 C502 1.059 . S
C2860 C403 1.062 . S
C2877 C326 1.056 . S
C2896 C509 0.985 . S
C2913 C530 1.077 . S
C2932 C417 1.022 . S
C2949 C481 0.916 . S
C2968 C382 1.025 . S
C2985 C537 0.923 . S
C3004 C215 0.998 . S
C3021 C194 1.170 . S
C3040 C614 1.163 . S
C3057 C291 1.084 . S
C3076 C544 1.097 . S
C3093 C642 1.093 . S
C3112 C201 1.006 . S
C3129 C655 1.025 . S
C3148 C173 0.867 . S
C3165 C166 1.071 . S
C3184 C243 1.040 . S
C3201 C131 0.937 . S
C3220 C263 1.036 . S
C3237 C235 1.027 . S
C3256 C145 0.858 . S
C3273 C557 1.077 . S
C3292 C53 1.058 . S
C3309 C424 1.131 . S
C3328 C565 0.940 . S
C3345 C585 0.990 . S
C3364 C25 1.011 . S
C3381 C593 0.921 . S
C3400 C452 1.010 . S
C3417 C74 0.977 . S
C3436 C606 0.953 . S
C3453 C621 1.003 . S
C3472 C515 1.118 . S
C3489 C634 1.037 . S
C3508 C102 1.025 . S
C3525 C487 1.064 . S
C3544 C649 1.015 . S
C3561 C600 1.036 . S
C3580 C123 1.039 . S
C3597 C200 1.033 . S
C3616 C550 1.059 . S
C3633 C172 1.247 . S
C3652 C572 1.251 . S
C3669 C578 1.079 . S
C3688 C193 1.063 . S
C3705 C628 1.251 . S
C3724 C186 1.252 . S
C3741 C116 0.952 . S
C3760 C641 0.924 . S
C3777 C207 0.992 . S
C3796 C656 1.023 . S
C3813 C613 0.994 . S
C3832 C179 0.959 . S
C3849 C11 0.981 . S
C3868 C663 0.910 . S
C3885 C397 1.010 . S
C3904 C480 1.194 . S
C3921 C81 0.985 . S
C3940 C670 1.028 . S
C3957 C508 1.177 . S
C3976 C411 1.087 . S
C3993 C529 1.023 . S
C4012 C390 1.034 . S
C4029 C369 0.882 . S
C4048 C39 0.947 . S
C4065 C348 1.240 . S
C4084 C46 1.220 . S
C4101 C18 1.242 . S
C4120 C362 1.248 . S
