# Generated by pormake.
# Topology tfs, (6)-cn, num edge types: 1
# Building blocks:
#     Node 0, Type 0, BuildingBlock: INOVEN_clean_sbu_0, # of connection points: 6
#     Node 1, Type 0, BuildingBlock: INOVEN_clean_sbu_0, # of connection points: 6
#     Node 2, Type 0, BuildingBlock: INOVEN_clean_sbu_0, # of connection points: 6
#     Node 3, Type 0, BuildingBlock: INOVEN_clean_sbu_0, # of connection points: 6
#     Node 4, Type 0, BuildingBlock: INOVEN_clean_sbu_0, # of connection points: 6
#     Node 5, Type 0, BuildingBlock: INOVEN_clean_sbu_0, # of connection points: 6
#     Edge 6, Type (0, 0), BuildingBlock: CIFDUS_clean_linker_0, # of connection points: 2
#     Edge 7, Type (0, 0), BuildingBlock: CIFDUS_clean_linker_0, # of connection points: 2
#     Edge 8, Type (0, 0), BuildingBlock: CIFDUS_clean_linker_0, # of connection points: 2
#     Edge 9, Type (0, 0), BuildingBlock: CIFDUS_clean_linker_0, # of connection points: 2
#     Edge 10, Type (0, 0), BuildingBlock: CIFDUS_clean_linker_0, # of connection points: 2
#     Edge 11, Type (0, 0), BuildingBlock: CIFDUS_clean_linker_0, # of connection points: 2
#     Edge 12, Type (0, 0), BuildingBlock: CIFDUS_clean_linker_0, # of connection points: 2
#     Edge 13, Type (0, 0), BuildingBlock: CIFDUS_clean_linker_0, # of connection points: 2
#     Edge 14, Type (0, 0), BuildingBlock: CIFDUS_clean_linker_0, # of connection points: 2
#     Edge 15, Type (0, 0), BuildingBlock: CIFDUS_clean_linker_0, # of connection points: 2
#     Edge 16, Type (0, 0), BuildingBlock: CIFDUS_clean_linker_0, # of connection points: 2
#     Edge 17, Type (0, 0), BuildingBlock: CIFDUS_clean_linker_0, # of connection points: 2
#     Edge 18, Type (0, 0), BuildingBlock: CIFDUS_clean_linker_0, # of connection points: 2
#     Edge 19, Type (0, 0), BuildingBlock: CIFDUS_clean_linker_0, # of connection points: 2
#     Edge 20, Type (0, 0), BuildingBlock: CIFDUS_clean_linker_0, # of connection points: 2
#     Edge 21, Type (0, 0), BuildingBlock: CIFDUS_clean_linker_0, # of connection points: 2
#     Edge 22, Type (0, 0), BuildingBlock: CIFDUS_clean_linker_0, # of connection points: 2
#     Edge 23, Type (0, 0), BuildingBlock: CIFDUS_clean_linker_0, # of connection points: 2
# Relax obj value: 0.477
# Max RMSD: 0.389
# Mean RMSD: 0.355
data_MOF--net-tfs--node1-INOVEN_clean_sbu_0--edge1-CIFDUS_clean_linker_0
_symmetry_space_group_name_H-M    P1
_symmetry_Int_Tables_number       1
_symmetry_cell_setting            triclinic
loop_
_symmetry_equiv_pos_as_xyz
'x, y, z'
_cell_length_a     46.905083
_cell_length_b     46.414219
_cell_length_c     11.360417
_cell_angle_alpha  93.268833
_cell_angle_beta   97.785764
_cell_angle_gamma 119.7356
loop_
_atom_site_label
_atom_site_type_symbol
_atom_site_fract_x
_atom_site_fract_y
_atom_site_fract_z
_atom_type_partial_charge
Gd0 Gd 0.20743 0.36828 0.0805 0.0
Gd1 Gd 0.18057 0.41973 0.04487 0.0
C2 C 0.14238 0.35599 0.17928 0.0
C3 C 0.23178 0.33041 0.13246 0.0
C4 C 0.24397 0.31255 0.20747 0.0
C5 C 0.24927 0.2885 0.15039 0.0
C6 C 0.25116 0.31935 0.33282 0.0
C7 C 0.27 0.27881 0.34369 0.0
C8 C 0.26371 0.3024 0.40052 0.0
C9 C 0.26226 0.27189 0.2175 0.0
C10 C 0.17275 0.35922 0.85728 0.0
C11 C 0.25032 0.43758 0.96812 0.0
C12 C 0.15309 0.45434 -0.02223 0.0
C13 C 0.1581 0.48829 0.97183 0.0
C14 C 0.16018 0.50874 0.07278 0.0
C15 C 0.15785 0.49916 0.85907 0.0
C16 C 0.1609 0.54986 0.94634 0.0
C17 C 0.15937 0.52957 0.84647 0.0
C18 C 0.16165 0.5393 0.06009 0.0
C19 C 0.2202 0.43168 0.26212 0.0
O20 O 0.16955 0.35378 0.1998 0.0
O21 O 0.1384 0.3748 0.10263 0.0
O22 O 0.19961 0.31917 0.10772 0.0
O23 O 0.25046 0.36301 0.13824 0.0
O24 O 0.19207 0.34745 0.88651 0.0
O25 O 0.16824 0.37034 0.95344 0.0
O26 O 0.22461 0.44238 0.95473 0.0
O27 O 0.25042 0.4127 0.02086 0.0
O28 O 0.15172 0.44316 0.08131 0.0
O29 O 0.16867 0.44529 0.9111 0.0
O30 O 0.20237 0.44542 0.23658 0.0
O31 O 0.22028 0.41778 0.16425 0.0
H32 H 0.24401 0.28306 0.05325 0.0
H33 H 0.24758 0.33806 0.37801 0.0
H34 H 0.26884 0.30811 0.49742 0.0
H35 H 0.26725 0.25448 0.16998 0.0
H36 H 0.16001 0.50091 0.16082 0.0
H37 H 0.15586 0.48374 0.77954 0.0
H38 H 0.15931 0.53715 0.75808 0.0
H39 H 0.1625 0.55421 0.13884 0.0
Gd40 Gd 0.79733 0.21191 0.90282 0.0
Gd41 Gd 0.86702 0.23852 0.82664 0.0
C42 C 0.8506 0.29228 0.93355 0.0
C43 C 0.74932 0.19692 0.02139 0.0
C44 C 0.72044 0.2019 0.01456 0.0
C45 C 0.70191 0.19933 0.90265 0.0
C46 C 0.71072 0.20857 0.11969 0.0
C47 C 0.66442 0.21031 0.00025 0.0
C48 C 0.68288 0.21273 0.11268 0.0
C49 C 0.67414 0.20322 0.89563 0.0
C50 C 0.79889 0.22348 0.67205 0.0
C51 C 0.81177 0.15895 0.77162 0.0
C52 C 0.9147 0.25659 0.70632 0.0
C53 C 0.9438 0.25694 0.66923 0.0
C54 C 0.97443 0.27056 0.74946 0.0
C55 C 0.94267 0.24973 0.54653 0.0
C56 C 1.00322 0.27534 0.58183 0.0
C57 C 0.97204 0.25882 0.50317 0.0
C58 C 1.00388 0.27957 0.70613 0.0
C59 C 0.86484 0.22711 0.05825 0.0
O60 O 0.82506 0.26778 0.97149 0.0
O61 O 0.86665 0.28622 0.85796 0.0
O62 O 0.74794 0.17687 0.93234 0.0
O63 O 0.77901 0.22363 0.0545 0.0
O64 O 0.77181 0.20257 0.70813 0.0
O65 O 0.82161 0.23994 0.76209 0.0
O66 O 0.83905 0.18413 0.74582 0.0
O67 O 0.7947 0.16319 0.84788 0.0
O68 O 0.91841 0.27162 0.81307 0.0
O69 O 0.88463 0.23092 0.66636 0.0
O70 O 0.89171 0.24866 0.02274 0.0
O71 O 0.84246 0.21017 0.96767 0.0
H72 H 0.7088 0.19417 0.82013 0.0
H73 H 0.72471 0.21065 0.20705 0.0
H74 H 0.67622 0.21847 0.19485 0.0
H75 H 0.6602 0.2006 0.8076 0.0
H76 H 0.97602 0.27627 0.84474 0.0
H77 H 0.91939 0.23937 0.48275 0.0
H78 H 0.97045 0.25533 0.40695 0.0
H79 H 0.02738 0.29159 0.76944 0.0
Gd80 Gd 0.55963 0.75405 0.06995 0.0
Gd81 Gd 0.60991 0.83174 0.10308 0.0
C82 C 0.5315 0.79929 0.96915 0.0
C83 C 0.52071 0.69133 0.08278 0.0
C84 C 0.48514 0.6646 0.05216 0.0
C85 C 0.47378 0.64042 0.95 0.0
C86 C 0.46282 0.66144 0.12821 0.0
C87 C 0.41868 0.61021 0.00172 0.0
C88 C 0.42994 0.63457 0.10308 0.0
C89 C 0.44087 0.6135 0.92497 0.0
C90 C 0.59411 0.77649 0.89576 0.0
C91 C 0.63318 0.78521 0.23771 0.0
C92 C 0.65095 0.89406 0.08755 0.0
C93 C 0.67587 0.92385 0.17479 0.0
C94 C 0.67688 0.92319 0.29882 0.0
C95 C 0.69583 0.95435 0.13419 0.0
C96 C 0.71431 0.98369 0.33881 0.0
C97 C 0.71498 0.9841 0.21568 0.0
C98 C 0.69582 0.95292 0.38009 0.0
C99 C 0.57679 0.81131 0.28127 0.0
O100 O 0.52397 0.77063 0.00886 0.0
O101 O 0.5631 0.8237 -0.02392 0.0
O102 O 0.53586 0.70212 -0.00752 0.0
O103 O 0.52978 0.71533 0.17147 0.0
O104 O 0.56331 0.75223 0.8773 0.0
O105 O 0.60562 0.78761 0.00476 0.0
O106 O 0.6433 0.8158 0.2096 0.0
O107 O 0.60282 0.75969 0.1967 0.0
O108 O 0.61994 0.88235 0.09952 0.0
O109 O 0.65767 0.87025 0.06601 0.0
O110 O 0.60652 0.83741 0.29525 0.0
O111 O 0.56511 0.79858 0.17315 0.0
H112 H 0.49051 0.642 0.89029 0.0
H113 H 0.47087 0.67934 0.20844 0.0
H114 H 0.41354 0.63238 0.16498 0.0
H115 H 0.43281 0.59522 0.84583 0.0
H116 H 0.66167 0.89998 0.33231 0.0
H117 H 0.69527 0.95545 0.03896 0.0
H118 H 0.72878 1.00764 0.18193 0.0
H119 H 0.69477 0.95214 0.47462 0.0
Gd120 Gd 0.85441 0.60364 0.90891 0.0
Gd121 Gd 0.82216 0.64752 0.84681 0.0
C122 C 0.77995 0.57967 0.95152 0.0
C123 C 0.8797 0.57008 0.00701 0.0
C124 C 0.87341 0.53531 -0.00099 0.0
C125 C 0.88396 0.52228 0.91041 0.0
C126 C 0.85783 0.5152 0.08484 0.0
C127 C 0.86254 0.46963 -0.00764 0.0
C128 C 0.85224 0.48267 0.08096 0.0
C129 C 0.87868 0.48974 0.90747 0.0
C130 C 0.81897 0.58729 0.6811 0.0
C131 C 0.89107 0.66474 0.76576 0.0
C132 C 0.80055 0.68387 0.75409 0.0
C133 C 0.78818 0.70472 0.70085 0.0
C134 C 0.76727 0.71208 0.75715 0.0
C135 C 0.79795 0.71834 0.59593 0.0
C136 C 0.76364 0.74395 0.59885 0.0
C137 C 0.78573 0.7378 0.54518 0.0
C138 C 0.7552 0.73158 0.70686 0.0
C139 C 0.8562 0.66241 0.07606 0.0
O140 O 0.80876 0.58197 -0.00611 0.0
O141 O 0.77772 0.59917 0.87424 0.0
O142 O 0.89012 0.58661 0.91761 0.0
O143 O 0.85796 0.57539 0.04987 0.0
O144 O 0.84065 0.57864 0.71723 0.0
O145 O 0.81316 0.59836 0.77286 0.0
O146 O 0.86216 0.66317 0.73842 0.0
O147 O 0.89666 0.64873 0.85093 0.0
O148 O 0.82654 0.68354 0.72609 0.0
O149 O 0.78539 0.66323 0.82852 0.0
O150 O 0.83375 0.66994 0.0396 0.0
O151 O 0.86347 0.65282 -0.01564 0.0
H152 H 0.89632 0.53718 0.84354 0.0
H153 H 0.84997 0.52466 0.15551 0.0
H154 H 0.84007 0.46772 0.14807 0.0
H155 H 0.88669 0.48008 0.83789 0.0
H156 H 0.76001 0.70256 0.83964 0.0
H157 H 0.81438 0.7133 0.55154 0.0
H158 H 0.79234 0.74674 0.46132 0.0
H159 H 0.73847 0.73625 0.75077 0.0
Gd160 Gd 0.1636 0.78313 0.10071 0.0
Gd161 Gd 0.23484 0.81168 0.0407 0.0
C162 C 0.21912 0.86224 0.17375 0.0
C163 C 0.11192 0.76244 0.20142 0.0
C164 C 0.08843 0.76672 0.26439 0.0
C165 C 0.05402 0.74624 0.21908 0.0
C166 C 0.09909 0.78479 0.38073 0.0
C167 C 0.04177 0.75602 0.41359 0.0
C168 C 0.07589 0.77944 0.45473 0.0
C169 C 0.03083 0.74102 0.29288 0.0
C170 C 0.17159 0.80232 0.88093 0.0
C171 C 0.18161 0.73129 -0.01747 0.0
C172 C 0.28609 0.8304 0.93777 0.0
C173 C 0.31332 0.82348 0.92596 0.0
C174 C 0.33874 0.8317 0.02492 0.0
C175 C 0.31606 0.81191 0.81328 0.0
C176 C 0.36989 0.81814 0.89874 0.0
C177 C 0.3439 0.80899 0.79992 0.0
C178 C 0.3667 0.82951 0.01127 0.0
C179 C 0.22723 0.79178 0.25991 0.0
O180 O 0.19312 0.83615 0.20325 0.0
O181 O 0.23435 0.8587 0.08916 0.0
O182 O 0.10987 0.76288 0.08547 0.0
O183 O 0.14226 0.7736 0.26001 0.0
O184 O 0.14454 0.77664 0.90056 0.0
O185 O 0.19164 0.81684 -0.02185 0.0
O186 O 0.20789 0.75724 0.95385 0.0
O187 O 0.16319 0.73533 0.05282 0.0
O188 O 0.28727 0.8442 0.04352 0.0
O189 O 0.25558 0.80809 0.88336 0.0
O190 O 0.25498 0.81639 0.2398 0.0
O191 O 0.20703 0.77834 0.16283 0.0
H192 H 0.04519 0.73191 0.12999 0.0
H193 H 0.12547 0.80094 0.41806 0.0
H194 H 0.08486 0.7918 0.54685 0.0
H195 H 1.00468 0.72284 0.25865 0.0
H196 H 0.33773 0.84096 0.11303 0.0
H197 H 0.29695 0.80568 0.73506 0.0
H198 H 0.345 0.79968 0.71212 0.0
H199 H 0.38626 0.83785 0.08952 0.0
Gd200 Gd 0.42351 0.18951 0.84859 0.0
Gd201 Gd 0.46772 0.26641 0.89704 0.0
C202 C 0.39634 0.23824 0.73991 0.0
C203 C 0.37738 0.12767 0.84334 0.0
C204 C 0.35215 0.09769 0.75832 0.0
C205 C 0.35936 0.08879 0.65082 0.0
C206 C 0.32155 0.07593 0.79077 0.0
C207 C 0.3069 0.0351 0.61513 0.0
C208 C 0.29905 0.04505 0.71967 0.0
C209 C 0.3371 0.05776 0.58043 0.0
C210 C 0.46227 0.21631 0.68445 0.0
C211 C 0.49882 0.22108 0.97385 0.0
C212 C 0.51113 0.32972 0.93915 0.0
C213 C 0.54644 0.35674 0.96116 0.0
C214 C 0.56095 0.37642 0.07479 0.0
C215 C 0.56415 0.36636 0.86671 0.0
C216 C 0.60904 0.41643 -0.00319 0.0
C217 C 0.59515 0.39592 0.88441 0.0
C218 C 0.59199 0.40594 0.09259 0.0
C219 C 0.4232 0.23658 0.04126 0.0
O220 O 0.38841 0.20791 0.76778 0.0
O221 O 0.42723 0.26385 0.76529 0.0
O222 O 0.40868 0.13737 0.84203 0.0
O223 O 0.37208 0.1527 0.85765 0.0
O224 O 0.4517 0.186 0.70806 0.0
O225 O 0.4483 0.22842 0.73894 0.0
O226 O 0.50397 0.24828 0.92724 0.0
O227 O 0.46826 0.19707 -0.0201 0.0
O228 O 0.50063 0.31126 0.02419 0.0
O229 O 0.49699 0.3131 0.83045 0.0
O230 O 0.43049 0.26509 0.00628 0.0
O231 O 0.44147 0.22692 0.00459 0.0
H232 H 0.38281 0.10522 0.62355 0.0
H233 H 0.31547 0.08239 0.87326 0.0
H234 H 0.27579 0.02875 0.74811 0.0
H235 H 0.34441 0.05107 0.50171 0.0
H236 H 0.54763 0.36972 0.14886 0.0
H237 H 0.55349 0.35192 0.77778 0.0
H238 H 0.60746 0.40347 0.8083 0.0
H239 H 0.60226 0.42095 0.18056 0.0
H240 H 0.33961 0.20071 0.56285 0.0
H241 H 0.39655 0.29469 0.8013 0.0
H242 H 0.3617 0.3147 0.70493 0.0
H243 H 0.31878 0.3082 0.54317 0.0
H244 H 0.25964 0.21474 0.3032 0.0
H245 H 0.29164 0.19219 0.4084 0.0
C246 C 0.34381 0.22522 0.59472 0.0
C247 C 0.37083 0.24627 0.68841 0.0
C248 C 0.32364 0.23702 0.53745 0.0
C249 C 0.37618 0.27813 0.72833 0.0
C250 C 0.35626 0.28969 0.67331 0.0
C251 C 0.31215 0.28258 0.51516 0.0
C252 C 0.28684 0.26341 0.41464 0.0
C253 C 0.33044 0.26972 0.57623 0.0
C254 C 0.27939 0.23044 0.37893 0.0
C255 C 0.29758 0.2174 0.43957 0.0
H256 H 0.13214 0.37563 0.38954 0.0
H257 H 0.09328 0.2913 0.11249 0.0
H258 H 0.04851 0.25706 0.21983 0.0
H259 H 0.01902 0.25228 0.38786 0.0
H260 H 0.05755 0.33761 0.66241 0.0
H261 H 0.10394 0.36998 0.56233 0.0
C262 C 0.11381 0.34975 0.35338 0.0
C263 C 0.11535 0.33593 0.24304 0.0
C264 C 0.0884 0.3303 0.41599 0.0
C265 C 0.09197 0.30236 0.19672 0.0
C266 C 0.0666 0.28283 0.25834 0.0
C267 C 0.03781 0.27783 0.42662 0.0
C268 C 0.03457 0.29239 0.53252 0.0
C269 C 0.06435 0.29665 0.36751 0.0
C270 C 0.05951 0.32542 0.58227 0.0
C271 C 0.08606 0.34416 0.52456 0.0
H272 H 0.74743 0.11372 0.67405 0.0
H273 H 0.84726 0.13027 0.71187 0.0
H274 H 0.82627 0.07712 0.58215 0.0
H275 H 0.77918 0.02638 0.45146 0.0
H276 H 0.68003 0.01178 0.40799 0.0
H277 H 0.7009 0.06379 0.54386 0.0
C278 C 0.76442 0.10529 0.6556 0.0
C279 C 0.79868 0.12537 0.70427 0.0
C280 C 0.75229 0.07528 0.57802 0.0
C281 C 0.82069 0.11489 0.67641 0.0
C282 C 0.80871 0.08462 0.60178 0.0
C283 C 0.76232 0.03471 0.47241 0.0
C284 C 0.72814 0.01541 0.42088 0.0
C285 C 0.77457 0.06472 0.55094 0.0
C286 C 0.70639 0.0263 0.44771 0.0
C287 C 0.7183 0.05595 0.52534 0.0
H288 H 0.69778 0.71909 0.5571 0.0
H289 H 0.78943 0.80182 0.4934 0.0
H290 H 0.75774 0.82416 0.38153 0.0
H291 H 0.70266 0.81857 0.29683 0.0
H292 H 0.61254 0.73151 0.35387 0.0
H293 H 0.6449 0.71322 0.47496 0.0
C294 C 0.71095 0.74237 0.52067 0.0
C295 C 0.7458 0.7591 0.53513 0.0
C296 C 0.69273 0.75447 0.4554 0.0
C297 C 0.76247 0.78862 0.48384 0.0
C298 C 0.74437 0.80137 0.42013 0.0
C299 C 0.69029 0.79593 0.33727 0.0
C300 C 0.65511 0.77702 0.31762 0.0
C301 C 0.70929 0.78437 0.40471 0.0
C302 C 0.63951 0.74713 0.36822 0.0
C303 C 0.65797 0.73632 0.43756 0.0
H304 H 0.9786 0.74564 0.39437 0.0
H305 H 0.05315 0.73539 0.62423 0.0
H306 H 1.01354 0.70641 0.75473 0.0
H307 H 0.95669 0.68127 0.79856 0.0
H308 H 0.88254 0.69249 0.56889 0.0
H309 H 0.92268 0.72334 0.44436 0.0
C310 C 0.9862 0.73737 0.47385 0.0
C311 C 0.01877 0.74282 0.49996 0.0
C312 C 0.96323 0.72053 0.54841 0.0
C313 C 0.02836 0.73202 0.60331 0.0
C314 C 1.00562 0.71513 0.67742 0.0
C315 C 0.9494 0.6906 0.72168 0.0
C316 C 0.91659 0.68433 0.69368 0.0
C317 C 0.97283 0.70882 0.6501 0.0
C318 C 0.90761 0.69677 0.59341 0.0
C319 C 0.93059 0.71454 0.52154 0.0
H320 H 0.21935 0.88044 0.40608 0.0
H321 H 0.24937 0.92032 0.08143 0.0
H322 H 0.2768 0.97735 0.18713 0.0
H323 H 0.29457 0.01581 0.37285 0.0
H324 H 0.26975 0.97619 0.70319 0.0
H325 H 0.23716 0.91949 0.59376 0.0
C326 C 0.23138 0.90169 0.35835 0.0
C327 C 0.23212 0.89629 0.23606 0.0
C328 C 0.24805 0.93453 0.4207 0.0
C329 C 0.24842 0.92393 0.1756 0.0
C330 C 0.26415 0.95654 0.23598 0.0
C331 C 0.2823 0.99487 0.42158 0.0
C332 C 0.28488 1.00062 0.54663 0.0
C333 C 0.26461 0.96214 0.35892 0.0
C334 C 0.26793 0.97291 0.60684 0.0
C335 C 0.24948 0.94028 0.54444 0.0
H336 H 0.14591 0.67379 0.81951 0.0
H337 H 0.21814 0.71957 0.14966 0.0
H338 H 0.21865 0.66772 0.16794 0.0
H339 H 0.19817 0.6094 0.09262 0.0
H340 H 0.1251 0.56204 0.76438 0.0
H341 H 0.12589 0.61444 0.74088 0.0
C342 C 0.16187 0.67221 0.8943 0.0
C343 C 0.18218 0.70013 -0.01727 0.0
C344 C 0.16198 0.64216 0.90445 0.0
C345 C 0.20263 0.69818 0.08024 0.0
C346 C 0.20284 0.66861 0.09096 0.0
C347 C 0.18213 0.61038 0.01658 0.0
C348 C 0.16147 0.58175 0.93118 0.0
C349 C 0.18248 0.64039 0.00417 0.0
C350 C 0.14147 0.58379 0.83138 0.0
C351 C 0.14174 0.6137 0.81806 0.0
H352 H 0.55131 0.2447 0.86454 0.0
H353 H 0.51082 0.18579 0.14327 0.0
H354 H 0.55972 0.17855 0.18185 0.0
H355 H 0.61353 0.18803 0.12977 0.0
H356 H 0.65135 0.2466 0.8463 0.0
H357 H 0.60364 0.25455 0.81534 0.0
C358 C 0.55322 0.23049 0.93475 0.0
C359 C 0.52768 0.21607 0.00172 0.0
C360 C 0.5808 0.2261 0.95454 0.0
C361 C 0.53019 0.19711 0.09039 0.0
C362 C 0.55815 0.19305 0.11243 0.0
C363 C 0.61144 0.20282 0.06228 0.0
C364 C 0.63593 0.21641 -0.01036 0.0
C365 C 0.5836 0.20733 0.04436 0.0
C366 C 0.63269 0.23533 0.90199 0.0
C367 C 0.60547 0.24007 0.88452 0.0
H368 H 0.39853 0.54442 0.93869 0.0
H369 H 0.36146 0.61063 0.01549 0.0
H370 H 0.30519 0.56258 -0.00236 0.0
H371 H 0.26778 0.50235 -0.02392 0.0
H372 H 0.30442 0.43508 0.91283 0.0
H373 H 0.35959 0.4831 0.9053 0.0
C374 C 0.37798 0.54829 0.94925 0.0
C375 C 0.38414 0.58102 -0.02098 0.0
C376 C 0.34572 0.52045 0.94075 0.0
C377 C 0.3574 0.58568 -0.00597 0.0
C378 C 0.32522 0.55824 -0.01666 0.0
C379 C 0.28758 0.49799 0.9582 0.0
C380 C 0.28207 0.46519 0.94489 0.0
C381 C 0.31926 0.52558 0.95891 0.0
C382 C 0.30817 0.46014 0.92376 0.0
C383 C 0.33966 0.48757 0.91994 0.0
H384 H 0.90669 0.4478 -0.00938 0.0
H385 H 0.80259 0.4136 -0.0151 0.0
H386 H 0.79004 0.35567 -0.02189 0.0
H387 H 0.80821 0.31448 0.96496 0.0
H388 H 0.91199 0.3482 0.96533 0.0
H389 H 0.92541 0.40658 -0.01323 0.0
C390 C 0.88131 0.42757 -0.01232 0.0
C391 C 0.85552 0.43475 -0.0123 0.0
C392 C 0.87433 0.39434 -0.01561 0.0
C393 C 0.82278 0.40851 -0.01465 0.0
C394 C 0.81562 0.37546 -0.01846 0.0
C395 C 0.83381 0.33469 0.97168 0.0
C396 C 0.85907 0.32724 0.96315 0.0
C397 C 0.84113 0.36804 -0.01955 0.0
C398 C 0.89212 0.35351 0.97075 0.0
C399 C 0.89977 0.38682 -0.01747 0.0
H400 H 0.40728 0.80497 0.06696 0.0
H401 H 0.40165 0.82661 0.70271 0.0
H402 H 0.45222 0.82439 0.68963 0.0
H403 H 0.4985 0.81542 0.78444 0.0
H404 H 0.50509 0.80132 0.15743 0.0
H405 H 0.45496 0.80358 0.16598 0.0
C406 C 0.41734 0.81031 -0.01471 0.0
C407 C 0.4004 0.81626 0.88671 0.0
C408 C 0.4472 0.81082 -0.01959 0.0
C409 C 0.41359 0.82143 0.7802 0.0
C410 C 0.44288 0.82061 0.77297 0.0
C411 C 0.48922 0.81365 0.86769 0.0
C412 C 0.50525 0.80793 0.97002 0.0
C413 C 0.46005 0.81534 0.8729 0.0
C414 C 0.49301 0.80554 0.07743 0.0
C415 C 0.46421 0.80662 0.08242 0.0
H416 H 0.72728 0.56743 0.06215 0.0
H417 H 0.76696 0.52037 0.85185 0.0
H418 H 0.71847 0.46534 0.85223 0.0
H419 H 0.6646 0.43071 0.90833 0.0
H420 H 0.62344 0.47632 0.11795 0.0
H421 H 0.67304 0.53149 0.12599 0.0
C422 C 0.72501 0.54501 0.01656 0.0
C423 C 0.75015 0.54758 0.95602 0.0
C424 C 0.69712 0.51323 0.0184 0.0
C425 C 0.74758 0.51862 0.89852 0.0
C426 C 0.71999 0.48724 0.89885 0.0
C427 C 0.66638 0.45273 0.95534 0.0
C428 C 0.64027 0.44944 0.01129 0.0
C429 C 0.69456 0.48426 0.95785 0.0
C430 C 0.64335 0.47812 0.07459 0.0
C431 C 0.67156 0.50975 0.0783 0.0
H432 H 0.19409 0.34308 0.67035 0.0
H433 H 0.14921 0.39926 0.77125 0.0
H434 H 0.17261 0.43649 0.62026 0.0
H435 H 0.20404 0.45044 0.45694 0.0
H436 H 0.23734 0.38527 0.32655 0.0
H437 H 0.22051 0.35351 0.4953 0.0
C438 C 0.1893 0.36346 0.65918 0.0
C439 C 0.17366 0.37182 0.74115 0.0
C440 C 0.20088 0.38261 0.56769 0.0
C441 C 0.16536 0.39622 0.71979 0.0
C442 C 0.17792 0.4165 0.63168 0.0
C443 C 0.20815 0.42958 0.46617 0.0
C444 C 0.22114 0.41957 0.37835 0.0
C445 C 0.19641 0.41028 0.55714 0.0
C446 C 0.22719 0.39317 0.39283 0.0
C447 C 0.21712 0.37479 0.48754 0.0
H448 H 0.85313 0.26625 0.58362 0.0
H449 H 0.75864 0.17359 0.48556 0.0
H450 H 0.77143 0.16563 0.28863 0.0
H451 H 0.80999 0.18462 0.14527 0.0
H452 H 0.90515 0.27651 0.246 0.0
H453 H 0.89208 0.2847 0.44197 0.0
C454 C 0.83532 0.2444 0.51878 0.0
C455 C 0.80505 0.22053 0.54895 0.0
C456 C 0.84319 0.23962 0.40692 0.0
C457 C 0.78205 0.19243 0.4641 0.0
C458 C 0.78948 0.18771 0.35193 0.0
C459 C 0.82789 0.20633 0.21052 0.0
C460 C 0.85836 0.23002 0.18099 0.0
C461 C 0.82009 0.211 0.32272 0.0
C462 C 0.8815 0.25791 0.26654 0.0
C463 C 0.87393 0.26275 0.37827 0.0
H464 H 0.59426 0.82882 0.81084 0.0
H465 H 0.62485 0.7565 0.7584 0.0
H466 H 0.60647 0.74916 0.54286 0.0
H467 H 0.57754 0.76016 0.37202 0.0
H468 H 0.54791 0.8333 0.42245 0.0
H469 H 0.56488 0.83965 0.64024 0.0
C470 C 0.59797 0.81248 0.75106 0.0
C471 C 0.6093 0.79209 0.79814 0.0
C472 C 0.58488 0.80652 0.62904 0.0
C473 C 0.61582 0.77221 0.72205 0.0
C474 C 0.60429 0.76718 0.59935 0.0
C475 C 0.57416 0.77685 0.43103 0.0
C476 C 0.56285 0.79715 0.38318 0.0
C477 C 0.5874 0.78303 0.55287 0.0
C478 C 0.55688 0.81759 0.45924 0.0
C479 C 0.56787 0.82228 0.58257 0.0
H480 H 0.84959 0.58181 0.50497 0.0
H481 H 0.78679 0.61976 0.59606 0.0
H482 H 0.7967 0.65031 0.42279 0.0
H483 H 0.82429 0.66686 0.24991 0.0
H484 H 0.89061 0.63265 0.16841 0.0
H485 H 0.87893 0.60024 0.33727 0.0
C486 C 0.83771 0.59643 0.48613 0.0
C487 C 0.81786 0.59899 0.56374 0.0
C488 C 0.84454 0.61475 0.38978 0.0
C489 C 0.80226 0.6176 0.53757 0.0
C490 C 0.80823 0.6353 0.43955 0.0
C491 C 0.83643 0.6525 0.26945 0.0
C492 C 0.85691 0.65048 0.19331 0.0
C493 C 0.82979 0.63445 0.36655 0.0
C494 C 0.87351 0.63306 0.22265 0.0
C495 C 0.86687 0.6147 0.31895 0.0
H496 H 0.24847 0.83983 0.4507 0.0
H497 H 0.17996 0.73479 0.32402 0.0
H498 H 0.15364 0.72932 0.49974 0.0
H499 H 0.1498 0.75469 0.68836 0.0
H500 H 0.21951 0.85932 0.81853 0.0
H501 H 0.24504 0.86508 0.64072 0.0
C502 C 0.22826 0.81567 0.46327 0.0
C503 C 0.21619 0.78772 0.37581 0.0
C504 C 0.21292 0.81288 0.56323 0.0
C505 C 0.18971 0.75656 0.39143 0.0
C506 C 0.17446 0.7535 0.49094 0.0
C507 C 0.17023 0.7788 0.6765 0.0
C508 C 0.18276 0.80656 0.76528 0.0
C509 C 0.18556 0.7816 0.57657 0.0
C510 C 0.20947 0.83766 0.75038 0.0
C511 C 0.22426 0.84089 0.6496 0.0
H512 H 0.4301 0.17352 0.48188 0.0
H513 H 0.50023 0.27731 0.62408 0.0
H514 H 0.48435 0.29455 0.43892 0.0
H515 H 0.4492 0.27976 0.24154 0.0
H516 H 0.38086 0.17597 0.09642 0.0
H517 H 0.39433 0.15881 0.28545 0.0
C518 C 0.44281 0.19979 0.47019 0.0
C519 C 0.46633 0.22426 0.56464 0.0
C520 C 0.43193 0.20945 0.36801 0.0
C521 C 0.48245 0.25823 0.55035 0.0
C522 C 0.47259 0.26807 0.44676 0.0
C523 C 0.43623 0.25353 0.25374 0.0
C524 C 0.41445 0.22899 0.15688 0.0
C525 C 0.44657 0.24392 0.35712 0.0
C526 C 0.3976 0.19508 0.17161 0.0
C527 C 0.40618 0.18529 0.2776 0.0
loop_
_geom_bond_atom_site_label_1
_geom_bond_atom_site_label_2
_geom_bond_distance
_geom_bond_site_symmetry_2
_ccdc_geom_bond_type
Gd0 C3 2.818 . S
Gd0 O20 2.377 1_554 S
Gd0 O22 2.448 1_554 S
Gd0 O23 2.506 . S
Gd0 O24 2.435 1_554 S
Gd0 O25 2.717 1_554 S
Gd0 O27 2.395 1_554 S
Gd0 O31 2.327 . S
Gd1 C12 2.818 . S
Gd1 O21 2.395 1_556 S
Gd1 O25 2.327 . S
Gd1 O26 2.377 1_556 S
Gd1 O28 2.448 1_556 S
Gd1 O29 2.506 . S
Gd1 O30 2.435 1_556 S
Gd1 O31 2.717 1_556 S
C2 O20 1.240 1_554 S
C2 O21 1.240 . S
C3 Gd0 2.818 . S
C3 C4 1.510 . S
C3 O22 1.249 1_554 S
C3 O23 1.252 . S
C4 C3 1.510 . S
C4 C5 1.404 . S
C4 C6 1.352 . S
C5 C4 1.404 . S
C5 C9 1.389 . S
C5 H32 0.930 1_554 S
C6 C4 1.352 . S
C6 C8 1.374 . S
C6 H33 0.931 . S
C7 C8 1.359 . S
C7 C9 1.364 . S
C8 C6 1.374 . S
C8 C7 1.359 . S
C8 H34 0.931 . S
C9 C5 1.389 . S
C9 C7 1.364 . S
C9 H35 0.931 . S
C10 O24 1.256 . S
C10 O25 1.257 . S
C11 O26 1.240 1_556 S
C11 O27 1.240 . S
C12 Gd1 2.818 . S
C12 C13 1.510 . S
C12 O28 1.249 1_556 S
C12 O29 1.252 . S
C13 C12 1.510 . S
C13 C14 1.404 . S
C13 C15 1.352 . S
C14 C13 1.404 . S
C14 C18 1.389 . S
C14 H36 0.930 1_556 S
C15 C13 1.352 . S
C15 C17 1.374 . S
C15 H37 0.931 . S
C16 C17 1.359 . S
C16 C18 1.364 . S
C17 C15 1.374 . S
C17 C16 1.359 . S
C17 H38 0.931 . S
C18 C14 1.389 . S
C18 C16 1.364 . S
C18 H39 0.931 . S
C19 O30 1.256 . S
C19 O31 1.257 . S
O20 Gd0 2.377 1_556 S
O20 C2 1.240 1_556 S
O21 Gd1 2.395 1_554 S
O21 C2 1.240 . S
O22 Gd0 2.448 1_556 S
O22 C3 1.249 1_556 S
O23 Gd0 2.506 . S
O23 C3 1.252 . S
O24 Gd0 2.435 1_556 S
O24 C10 1.256 . S
O25 Gd0 2.717 1_556 S
O25 Gd1 2.327 . S
O25 C10 1.257 . S
O26 Gd1 2.377 1_554 S
O26 C11 1.240 1_554 S
O27 Gd0 2.395 1_556 S
O27 C11 1.240 . S
O28 Gd1 2.448 1_554 S
O28 C12 1.249 1_554 S
O29 Gd1 2.506 . S
O29 C12 1.252 . S
O30 Gd1 2.435 1_554 S
O30 C19 1.256 . S
O31 Gd0 2.327 . S
O31 Gd1 2.717 1_554 S
O31 C19 1.257 . S
H32 C5 0.930 1_556 S
H33 C6 0.931 . S
H34 C8 0.931 . S
H35 C9 0.931 . S
H36 C14 0.930 1_554 S
H37 C15 0.931 . S
H38 C17 0.931 . S
H39 C18 0.931 . S
Gd40 C43 2.818 1_556 S
Gd40 O60 2.377 . S
Gd40 O62 2.448 . S
Gd40 O63 2.506 1_556 S
Gd40 O64 2.435 . S
Gd40 O65 2.717 . S
Gd40 O67 2.395 . S
Gd40 O71 2.327 1_556 S
Gd41 C52 2.818 1_554 S
Gd41 O61 2.395 . S
Gd41 O65 2.327 1_554 S
Gd41 O66 2.377 . S
Gd41 O68 2.448 . S
Gd41 O69 2.506 1_554 S
Gd41 O70 2.435 . S
Gd41 O71 2.717 . S
C42 O60 1.240 1_554 S
C42 O61 1.240 . S
C43 Gd40 2.818 1_554 S
C43 C44 1.510 . S
C43 O62 1.249 1_554 S
C43 O63 1.252 . S
C44 C43 1.510 . S
C44 C45 1.404 1_554 S
C44 C46 1.352 . S
C45 C44 1.404 1_556 S
C45 C49 1.389 1_556 S
C45 H72 0.930 . S
C46 C44 1.352 . S
C46 C48 1.374 . S
C46 H73 0.931 . S
C47 C48 1.359 . S
C47 C49 1.364 . S
C48 C46 1.374 . S
C48 C47 1.359 . S
C48 H74 0.931 . S
C49 C45 1.389 1_554 S
C49 C47 1.364 . S
C49 H75 0.931 1_554 S
C50 O64 1.256 . S
C50 O65 1.257 . S
C51 O66 1.240 1_556 S
C51 O67 1.240 . S
C52 Gd41 2.818 1_556 S
C52 C53 1.510 . S
C52 O68 1.249 1_556 S
C52 O69 1.252 . S
C53 C52 1.510 . S
C53 C54 1.404 1_556 S
C53 C55 1.352 . S
C54 C53 1.404 1_554 S
C54 C58 1.389 1_654 S
C54 H76 0.930 . S
C55 C53 1.352 . S
C55 C57 1.374 . S
C55 H77 0.931 . S
C56 C57 1.359 1_455 S
C56 C58 1.364 . S
C57 C55 1.374 . S
C57 C56 1.359 1_655 S
C57 H78 0.931 . S
C58 C54 1.389 1_456 S
C58 C56 1.364 . S
C58 H79 0.931 1_556 S
C59 O70 1.256 . S
C59 O71 1.257 . S
O60 Gd40 2.377 . S
O60 C42 1.240 1_556 S
O61 Gd41 2.395 . S
O61 C42 1.240 . S
O62 Gd40 2.448 . S
O62 C43 1.249 1_556 S
O63 Gd40 2.506 1_554 S
O63 C43 1.252 . S
O64 Gd40 2.435 . S
O64 C50 1.256 . S
O65 Gd40 2.717 . S
O65 Gd41 2.327 1_556 S
O65 C50 1.257 . S
O66 Gd41 2.377 . S
O66 C51 1.240 1_554 S
O67 Gd40 2.395 . S
O67 C51 1.240 . S
O68 Gd41 2.448 . S
O68 C52 1.249 1_554 S
O69 Gd41 2.506 1_556 S
O69 C52 1.252 . S
O70 Gd41 2.435 . S
O70 C59 1.256 . S
O71 Gd40 2.327 1_554 S
O71 Gd41 2.717 . S
O71 C59 1.257 . S
H72 C45 0.930 . S
H73 C46 0.931 . S
H74 C48 0.931 . S
H75 C49 0.931 1_556 S
H76 C54 0.930 . S
H77 C55 0.931 . S
H78 C57 0.931 . S
H79 C58 0.931 1_554 S
Gd80 C83 2.818 . S
Gd80 O100 2.377 . S
Gd80 O102 2.448 . S
Gd80 O103 2.506 1_556 S
Gd80 O104 2.435 . S
Gd80 O105 2.717 . S
Gd80 O107 2.395 1_556 S
Gd80 O111 2.327 1_556 S
Gd81 C92 2.818 . S
Gd81 O101 2.395 1_554 S
Gd81 O105 2.327 1_554 S
Gd81 O106 2.377 . S
Gd81 O108 2.448 . S
Gd81 O109 2.506 1_554 S
Gd81 O110 2.435 . S
Gd81 O111 2.717 . S
C82 O100 1.240 . S
C82 O101 1.240 . S
C83 Gd80 2.818 . S
C83 C84 1.510 . S
C83 O102 1.249 . S
C83 O103 1.252 1_556 S
C84 C83 1.510 . S
C84 C85 1.404 . S
C84 C86 1.352 . S
C85 C84 1.404 . S
C85 C89 1.389 . S
C85 H112 0.930 . S
C86 C84 1.352 . S
C86 C88 1.374 . S
C86 H113 0.931 1_556 S
C87 C88 1.359 . S
C87 C89 1.364 . S
C88 C86 1.374 . S
C88 C87 1.359 . S
C88 H114 0.931 1_556 S
C89 C85 1.389 . S
C89 C87 1.364 . S
C89 H115 0.931 . S
C90 O104 1.256 . S
C90 O105 1.257 . S
C91 O106 1.240 . S
C91 O107 1.240 . S
C92 Gd81 2.818 . S
C92 C93 1.510 . S
C92 O108 1.249 . S
C92 O109 1.252 1_554 S
C93 C92 1.510 . S
C93 C94 1.404 . S
C93 C95 1.352 . S
C94 C93 1.404 . S
C94 C98 1.389 . S
C94 H116 0.930 . S
C95 C93 1.352 . S
C95 C97 1.374 . S
C95 H117 0.931 1_554 S
C96 C97 1.359 . S
C96 C98 1.364 . S
C97 C95 1.374 . S
C97 C96 1.359 . S
C97 H118 0.931 1_554 S
C98 C94 1.389 . S
C98 C96 1.364 . S
C98 H119 0.931 . S
C99 O110 1.256 . S
C99 O111 1.257 . S
O100 Gd80 2.377 . S
O100 C82 1.240 . S
O101 Gd81 2.395 1_556 S
O101 C82 1.240 . S
O102 Gd80 2.448 . S
O102 C83 1.249 . S
O103 Gd80 2.506 1_554 S
O103 C83 1.252 1_554 S
O104 Gd80 2.435 . S
O104 C90 1.256 . S
O105 Gd80 2.717 . S
O105 Gd81 2.327 1_556 S
O105 C90 1.257 . S
O106 Gd81 2.377 . S
O106 C91 1.240 . S
O107 Gd80 2.395 1_554 S
O107 C91 1.240 . S
O108 Gd81 2.448 . S
O108 C92 1.249 . S
O109 Gd81 2.506 1_556 S
O109 C92 1.252 1_556 S
O110 Gd81 2.435 . S
O110 C99 1.256 . S
O111 Gd80 2.327 1_554 S
O111 Gd81 2.717 . S
O111 C99 1.257 . S
H112 C85 0.930 . S
H113 C86 0.931 1_554 S
H114 C88 0.931 1_554 S
H115 C89 0.931 . S
H116 C94 0.930 . S
H117 C95 0.931 1_556 S
H118 C97 0.931 1_556 S
H119 C98 0.931 . S
Gd120 C123 2.818 . S
Gd120 O140 2.377 1_554 S
Gd120 O142 2.448 1_554 S
Gd120 O143 2.506 . S
Gd120 O144 2.435 1_554 S
Gd120 O145 2.717 1_554 S
Gd120 O147 2.395 1_554 S
Gd120 O151 2.327 . S
Gd121 C132 2.818 . S
Gd121 O141 2.395 1_556 S
Gd121 O145 2.327 . S
Gd121 O146 2.377 1_556 S
Gd121 O148 2.448 1_556 S
Gd121 O149 2.506 . S
Gd121 O150 2.435 1_556 S
Gd121 O151 2.717 1_556 S
C122 O140 1.240 1_554 S
C122 O141 1.240 . S
C123 Gd120 2.818 . S
C123 C124 1.510 . S
C123 O142 1.249 1_554 S
C123 O143 1.252 . S
C124 C123 1.510 . S
C124 C125 1.404 . S
C124 C126 1.352 . S
C125 C124 1.404 . S
C125 C129 1.389 . S
C125 H152 0.930 1_554 S
C126 C124 1.352 . S
C126 C128 1.374 . S
C126 H153 0.931 . S
C127 C128 1.359 . S
C127 C129 1.364 . S
C128 C126 1.374 . S
C128 C127 1.359 . S
C128 H154 0.931 . S
C129 C125 1.389 . S
C129 C127 1.364 . S
C129 H155 0.931 . S
C130 O144 1.256 . S
C130 O145 1.257 . S
C131 O146 1.240 1_556 S
C131 O147 1.240 . S
C132 Gd121 2.818 . S
C132 C133 1.510 . S
C132 O148 1.249 1_556 S
C132 O149 1.252 . S
C133 C132 1.510 . S
C133 C134 1.404 . S
C133 C135 1.352 . S
C134 C133 1.404 . S
C134 C138 1.389 . S
C134 H156 0.930 1_556 S
C135 C133 1.352 . S
C135 C137 1.374 . S
C135 H157 0.931 . S
C136 C137 1.359 . S
C136 C138 1.364 . S
C137 C135 1.374 . S
C137 C136 1.359 . S
C137 H158 0.931 . S
C138 C134 1.389 . S
C138 C136 1.364 . S
C138 H159 0.931 . S
C139 O150 1.256 . S
C139 O151 1.257 . S
O140 Gd120 2.377 1_556 S
O140 C122 1.240 1_556 S
O141 Gd121 2.395 1_554 S
O141 C122 1.240 . S
O142 Gd120 2.448 1_556 S
O142 C123 1.249 1_556 S
O143 Gd120 2.506 . S
O143 C123 1.252 . S
O144 Gd120 2.435 1_556 S
O144 C130 1.256 . S
O145 Gd120 2.717 1_556 S
O145 Gd121 2.327 . S
O145 C130 1.257 . S
O146 Gd121 2.377 1_554 S
O146 C131 1.240 1_554 S
O147 Gd120 2.395 1_556 S
O147 C131 1.240 . S
O148 Gd121 2.448 1_554 S
O148 C132 1.249 1_554 S
O149 Gd121 2.506 . S
O149 C132 1.252 . S
O150 Gd121 2.435 1_554 S
O150 C139 1.256 . S
O151 Gd120 2.327 . S
O151 Gd121 2.717 1_554 S
O151 C139 1.257 . S
H152 C125 0.930 1_556 S
H153 C126 0.931 . S
H154 C128 0.931 . S
H155 C129 0.931 . S
H156 C134 0.930 1_554 S
H157 C135 0.931 . S
H158 C137 0.931 . S
H159 C138 0.931 . S
Gd160 C163 2.818 1_556 S
Gd160 O180 2.377 . S
Gd160 O182 2.448 . S
Gd160 O183 2.506 1_556 S
Gd160 O184 2.435 . S
Gd160 O185 2.717 . S
Gd160 O187 2.395 . S
Gd160 O191 2.327 1_556 S
Gd161 C172 2.818 1_554 S
Gd161 O181 2.395 . S
Gd161 O185 2.327 1_554 S
Gd161 O186 2.377 . S
Gd161 O188 2.448 . S
Gd161 O189 2.506 1_554 S
Gd161 O190 2.435 . S
Gd161 O191 2.717 . S
C162 O180 1.240 1_554 S
C162 O181 1.240 . S
C163 Gd160 2.818 1_554 S
C163 C164 1.510 . S
C163 O182 1.249 1_554 S
C163 O183 1.252 . S
C164 C163 1.510 . S
C164 C165 1.404 1_554 S
C164 C166 1.352 . S
C165 C164 1.404 1_556 S
C165 C169 1.389 1_456 S
C165 H192 0.930 . S
C166 C164 1.352 . S
C166 C168 1.374 . S
C166 H193 0.931 . S
C167 C168 1.359 1_655 S
C167 C169 1.364 . S
C168 C166 1.374 . S
C168 C167 1.359 1_455 S
C168 H194 0.931 . S
C169 C165 1.389 1_654 S
C169 C167 1.364 . S
C169 H195 0.931 1_554 S
C170 O184 1.256 . S
C170 O185 1.257 . S
C171 O186 1.240 1_556 S
C171 O187 1.240 . S
C172 Gd161 2.818 1_556 S
C172 C173 1.510 . S
C172 O188 1.249 1_556 S
C172 O189 1.252 . S
C173 C172 1.510 . S
C173 C174 1.404 1_556 S
C173 C175 1.352 . S
C174 C173 1.404 1_554 S
C174 C178 1.389 1_554 S
C174 H196 0.930 . S
C175 C173 1.352 . S
C175 C177 1.374 . S
C175 H197 0.931 . S
C176 C177 1.359 . S
C176 C178 1.364 . S
C177 C175 1.374 . S
C177 C176 1.359 . S
C177 H198 0.931 . S
C178 C174 1.389 1_556 S
C178 C176 1.364 . S
C178 H199 0.931 1_556 S
C179 O190 1.256 . S
C179 O191 1.257 . S
O180 Gd160 2.377 . S
O180 C162 1.240 1_556 S
O181 Gd161 2.395 . S
O181 C162 1.240 . S
O182 Gd160 2.448 . S
O182 C163 1.249 1_556 S
O183 Gd160 2.506 1_554 S
O183 C163 1.252 . S
O184 Gd160 2.435 . S
O184 C170 1.256 . S
O185 Gd160 2.717 . S
O185 Gd161 2.327 1_556 S
O185 C170 1.257 . S
O186 Gd161 2.377 . S
O186 C171 1.240 1_554 S
O187 Gd160 2.395 . S
O187 C171 1.240 . S
O188 Gd161 2.448 . S
O188 C172 1.249 1_554 S
O189 Gd161 2.506 1_556 S
O189 C172 1.252 . S
O190 Gd161 2.435 . S
O190 C179 1.256 . S
O191 Gd160 2.327 1_554 S
O191 Gd161 2.717 . S
O191 C179 1.257 . S
H192 C165 0.930 . S
H193 C166 0.931 . S
H194 C168 0.931 . S
H195 C169 0.931 1_556 S
H196 C174 0.930 . S
H197 C175 0.931 . S
H198 C177 0.931 . S
H199 C178 0.931 1_554 S
Gd200 C203 2.818 . S
Gd200 O220 2.377 . S
Gd200 O222 2.448 . S
Gd200 O223 2.506 1_556 S
Gd200 O224 2.435 . S
Gd200 O225 2.717 . S
Gd200 O227 2.395 1_556 S
Gd200 O231 2.327 1_556 S
Gd201 C212 2.818 . S
Gd201 O221 2.395 1_554 S
Gd201 O225 2.327 1_554 S
Gd201 O226 2.377 . S
Gd201 O228 2.448 . S
Gd201 O229 2.506 1_554 S
Gd201 O230 2.435 . S
Gd201 O231 2.717 . S
C202 O220 1.240 . S
C202 O221 1.240 . S
C203 Gd200 2.818 . S
C203 C204 1.510 . S
C203 O222 1.249 . S
C203 O223 1.252 1_556 S
C204 C203 1.510 . S
C204 C205 1.404 . S
C204 C206 1.352 . S
C205 C204 1.404 . S
C205 C209 1.389 . S
C205 H232 0.930 . S
C206 C204 1.352 . S
C206 C208 1.374 . S
C206 H233 0.931 1_556 S
C207 C208 1.359 . S
C207 C209 1.364 . S
C208 C206 1.374 . S
C208 C207 1.359 . S
C208 H234 0.931 1_556 S
C209 C205 1.389 . S
C209 C207 1.364 . S
C209 H235 0.931 . S
C210 O224 1.256 . S
C210 O225 1.257 . S
C211 O226 1.240 . S
C211 O227 1.240 . S
C212 Gd201 2.818 . S
C212 C213 1.510 . S
C212 O228 1.249 . S
C212 O229 1.252 1_554 S
C213 C212 1.510 . S
C213 C214 1.404 . S
C213 C215 1.352 . S
C214 C213 1.404 . S
C214 C218 1.389 . S
C214 H236 0.930 . S
C215 C213 1.352 . S
C215 C217 1.374 . S
C215 H237 0.931 1_554 S
C216 C217 1.359 . S
C216 C218 1.364 . S
C217 C215 1.374 . S
C217 C216 1.359 . S
C217 H238 0.931 1_554 S
C218 C214 1.389 . S
C218 C216 1.364 . S
C218 H239 0.931 . S
C219 O230 1.256 . S
C219 O231 1.257 . S
O220 Gd200 2.377 . S
O220 C202 1.240 . S
O221 Gd201 2.395 1_556 S
O221 C202 1.240 . S
O222 Gd200 2.448 . S
O222 C203 1.249 . S
O223 Gd200 2.506 1_554 S
O223 C203 1.252 1_554 S
O224 Gd200 2.435 . S
O224 C210 1.256 . S
O225 Gd200 2.717 . S
O225 Gd201 2.327 1_556 S
O225 C210 1.257 . S
O226 Gd201 2.377 . S
O226 C211 1.240 . S
O227 Gd200 2.395 1_554 S
O227 C211 1.240 . S
O228 Gd201 2.448 . S
O228 C212 1.249 . S
O229 Gd201 2.506 1_556 S
O229 C212 1.252 1_556 S
O230 Gd201 2.435 . S
O230 C219 1.256 . S
O231 Gd200 2.327 1_554 S
O231 Gd201 2.717 . S
O231 C219 1.257 . S
H232 C205 0.930 . S
H233 C206 0.931 1_554 S
H234 C208 0.931 1_554 S
H235 C209 0.931 . S
H236 C214 0.930 . S
H237 C215 0.931 1_556 S
H238 C217 0.931 1_556 S
H239 C218 0.931 . S
H240 C246 0.930 . S
H241 C249 0.930 . S
H242 C250 0.930 . S
H243 C251 0.930 . S
H244 C254 0.930 . S
H245 C255 0.930 . S
C246 H240 0.930 . S
C246 C247 1.355 . S
C246 C248 1.415 . S
C247 C246 1.355 . S
C247 C249 1.419 . S
C248 C246 1.415 . S
C248 C253 1.425 . S
C248 C255 1.409 . S
C249 H241 0.930 . S
C249 C247 1.419 . S
C249 C250 1.362 . S
C250 H242 0.930 . S
C250 C249 1.362 . S
C250 C253 1.409 . S
C251 H243 0.930 . S
C251 C252 1.355 . S
C251 C253 1.415 . S
C252 C251 1.355 . S
C252 C254 1.419 . S
C253 C248 1.425 . S
C253 C250 1.409 . S
C253 C251 1.415 . S
C254 H244 0.930 . S
C254 C252 1.419 . S
C254 C255 1.362 . S
C255 H245 0.930 . S
C255 C248 1.409 . S
C255 C254 1.362 . S
H256 C262 0.930 . S
H257 C265 0.930 . S
H258 C266 0.930 . S
H259 C267 0.930 . S
H260 C270 0.930 . S
H261 C271 0.930 . S
C262 H256 0.930 . S
C262 C263 1.355 . S
C262 C264 1.415 . S
C263 C262 1.355 . S
C263 C265 1.419 . S
C264 C262 1.415 . S
C264 C269 1.425 . S
C264 C271 1.409 . S
C265 H257 0.930 . S
C265 C263 1.419 . S
C265 C266 1.362 . S
C266 H258 0.930 . S
C266 C265 1.362 . S
C266 C269 1.409 . S
C267 H259 0.930 . S
C267 C268 1.355 . S
C267 C269 1.415 . S
C268 C267 1.355 . S
C268 C270 1.419 . S
C269 C264 1.425 . S
C269 C266 1.409 . S
C269 C267 1.415 . S
C270 H260 0.930 . S
C270 C268 1.419 . S
C270 C271 1.362 . S
C271 H261 0.930 . S
C271 C264 1.409 . S
C271 C270 1.362 . S
H272 C278 0.930 . S
H273 C281 0.930 . S
H274 C282 0.930 . S
H275 C283 0.930 . S
H276 C286 0.938 . S
H277 C287 0.930 . S
C278 H272 0.930 . S
C278 C279 1.355 . S
C278 C280 1.415 . S
C279 C278 1.355 . S
C279 C281 1.419 . S
C280 C278 1.415 . S
C280 C285 1.425 . S
C280 C287 1.409 . S
C281 H273 0.930 . S
C281 C279 1.419 . S
C281 C282 1.362 . S
C282 H274 0.930 . S
C282 C281 1.362 . S
C282 C285 1.409 . S
C283 H275 0.930 . S
C283 C284 1.355 . S
C283 C285 1.415 . S
C284 C283 1.355 . S
C284 C286 1.419 . S
C285 C280 1.425 . S
C285 C282 1.409 . S
C285 C283 1.415 . S
C286 H276 0.938 . S
C286 C284 1.419 . S
C286 C287 1.362 . S
C287 H277 0.930 . S
C287 C280 1.409 . S
C287 C286 1.362 . S
H288 C294 0.930 . S
H289 C297 0.930 . S
H290 C298 0.930 . S
H291 C299 0.930 . S
H292 C302 0.930 . S
H293 C303 0.930 . S
C294 H288 0.930 . S
C294 C295 1.355 . S
C294 C296 1.415 . S
C295 C294 1.355 . S
C295 C297 1.419 . S
C296 C294 1.415 . S
C296 C301 1.425 . S
C296 C303 1.409 . S
C297 H289 0.930 . S
C297 C295 1.419 . S
C297 C298 1.362 . S
C298 H290 0.930 . S
C298 C297 1.362 . S
C298 C301 1.409 . S
C299 H291 0.930 . S
C299 C300 1.355 . S
C299 C301 1.415 . S
C300 C299 1.355 . S
C300 C302 1.419 . S
C301 C296 1.425 . S
C301 C298 1.409 . S
C301 C299 1.415 . S
C302 H292 0.930 . S
C302 C300 1.419 . S
C302 C303 1.362 . S
C303 H293 0.930 . S
C303 C296 1.409 . S
C303 C302 1.362 . S
H304 C310 0.930 . S
H305 C313 0.930 1_455 S
H306 C314 0.930 1_455 S
H307 C315 0.930 . S
H308 C318 0.930 . S
H309 C319 0.930 . S
C310 H304 0.930 . S
C310 C311 1.355 . S
C310 C312 1.415 . S
C311 C310 1.355 . S
C311 C313 1.419 . S
C312 C310 1.415 . S
C312 C317 1.425 . S
C312 C319 1.409 . S
C313 H305 0.930 1_655 S
C313 C311 1.419 . S
C313 C314 1.362 . S
C314 H306 0.930 1_655 S
C314 C313 1.362 . S
C314 C317 1.409 . S
C315 H307 0.930 . S
C315 C316 1.355 . S
C315 C317 1.415 . S
C316 C315 1.355 . S
C316 C318 1.419 . S
C317 C312 1.425 . S
C317 C314 1.409 . S
C317 C315 1.415 . S
C318 H308 0.930 . S
C318 C316 1.419 . S
C318 C319 1.362 . S
C319 H309 0.930 . S
C319 C312 1.409 . S
C319 C318 1.362 . S
H320 C326 0.930 . S
H321 C329 0.930 . S
H322 C330 0.930 . S
H323 C331 0.930 1_545 S
H324 C334 0.930 . S
H325 C335 0.930 . S
C326 H320 0.930 . S
C326 C327 1.355 . S
C326 C328 1.415 . S
C327 C326 1.355 . S
C327 C329 1.419 . S
C328 C326 1.415 . S
C328 C333 1.425 . S
C328 C335 1.409 . S
C329 H321 0.930 . S
C329 C327 1.419 . S
C329 C330 1.362 . S
C330 H322 0.930 . S
C330 C329 1.362 . S
C330 C333 1.409 . S
C331 H323 0.930 1_565 S
C331 C332 1.355 . S
C331 C333 1.415 . S
C332 C331 1.355 . S
C332 C334 1.419 . S
C333 C328 1.425 . S
C333 C330 1.409 . S
C333 C331 1.415 . S
C334 H324 0.930 . S
C334 C332 1.419 . S
C334 C335 1.362 . S
C335 H325 0.930 . S
C335 C328 1.409 . S
C335 C334 1.362 . S
H336 C342 0.930 . S
H337 C345 0.925 1_554 S
H338 C346 0.930 1_554 S
H339 C347 0.930 . S
H340 C350 0.930 . S
H341 C351 0.930 . S
C342 H336 0.930 . S
C342 C343 1.355 . S
C342 C344 1.415 . S
C343 C342 1.355 . S
C343 C345 1.424 . S
C344 C342 1.415 . S
C344 C349 1.425 . S
C344 C351 1.409 . S
C345 H337 0.925 1_556 S
C345 C343 1.424 . S
C345 C346 1.362 . S
C346 H338 0.930 1_556 S
C346 C345 1.362 . S
C346 C349 1.409 . S
C347 H339 0.930 . S
C347 C348 1.355 . S
C347 C349 1.415 . S
C348 C347 1.355 . S
C348 C350 1.419 . S
C349 C344 1.425 . S
C349 C346 1.409 . S
C349 C347 1.415 . S
C350 H340 0.930 . S
C350 C348 1.419 . S
C350 C351 1.362 . S
C351 H341 0.930 . S
C351 C344 1.409 . S
C351 C350 1.362 . S
H352 C358 0.930 . S
H353 C361 0.930 . S
H354 C362 0.930 . S
H355 C363 0.930 . S
H356 C366 0.930 . S
H357 C367 0.930 . S
C358 H352 0.930 . S
C358 C359 1.355 1_556 S
C358 C360 1.415 1_556 S
C359 C358 1.355 1_554 S
C359 C361 1.419 . S
C360 C358 1.415 1_554 S
C360 C365 1.425 . S
C360 C367 1.409 1_554 S
C361 H353 0.930 . S
C361 C359 1.419 . S
C361 C362 1.362 . S
C362 H354 0.930 . S
C362 C361 1.362 . S
C362 C365 1.409 . S
C363 H355 0.930 . S
C363 C364 1.355 . S
C363 C365 1.415 . S
C364 C363 1.355 . S
C364 C366 1.419 1_554 S
C365 C360 1.425 . S
C365 C362 1.409 . S
C365 C363 1.415 . S
C366 H356 0.930 . S
C366 C364 1.419 1_556 S
C366 C367 1.362 . S
C367 H357 0.930 . S
C367 C360 1.409 1_556 S
C367 C366 1.362 . S
H368 C374 0.930 . S
H369 C377 0.930 . S
H370 C378 0.930 1_554 S
H371 C379 0.930 1_554 S
H372 C382 0.930 . S
H373 C383 0.930 . S
C374 H368 0.930 . S
C374 C375 1.355 . S
C374 C376 1.415 . S
C375 C374 1.355 . S
C375 C377 1.419 . S
C376 C374 1.415 . S
C376 C381 1.425 . S
C376 C383 1.409 . S
C377 H369 0.930 . S
C377 C375 1.419 . S
C377 C378 1.362 . S
C378 H370 0.930 1_556 S
C378 C377 1.362 . S
C378 C381 1.409 . S
C379 H371 0.930 1_556 S
C379 C380 1.355 . S
C379 C381 1.415 . S
C380 C379 1.355 . S
C380 C382 1.419 . S
C381 C376 1.425 . S
C381 C378 1.409 . S
C381 C379 1.415 . S
C382 H372 0.930 . S
C382 C380 1.419 . S
C382 C383 1.362 . S
C383 H373 0.930 . S
C383 C376 1.409 . S
C383 C382 1.362 . S
H384 C390 0.930 . S
H385 C393 0.930 . S
H386 C394 0.930 . S
H387 C395 0.930 . S
H388 C398 0.930 . S
H389 C399 0.930 . S
C390 H384 0.930 . S
C390 C391 1.355 . S
C390 C392 1.415 . S
C391 C390 1.355 . S
C391 C393 1.419 . S
C392 C390 1.415 . S
C392 C397 1.425 . S
C392 C399 1.409 . S
C393 H385 0.930 . S
C393 C391 1.419 . S
C393 C394 1.362 . S
C394 H386 0.930 . S
C394 C393 1.362 . S
C394 C397 1.409 . S
C395 H387 0.930 . S
C395 C396 1.355 . S
C395 C397 1.415 . S
C396 C395 1.355 . S
C396 C398 1.419 . S
C397 C392 1.425 . S
C397 C394 1.409 . S
C397 C395 1.415 . S
C398 H388 0.930 . S
C398 C396 1.419 . S
C398 C399 1.362 . S
C399 H389 0.930 . S
C399 C392 1.409 . S
C399 C398 1.362 . S
H400 C406 0.930 1_554 S
H401 C409 0.930 . S
H402 C410 0.930 . S
H403 C411 0.930 . S
H404 C414 0.930 . S
H405 C415 0.930 . S
C406 H400 0.930 1_556 S
C406 C407 1.355 . S
C406 C408 1.415 . S
C407 C406 1.355 . S
C407 C409 1.419 . S
C408 C406 1.415 . S
C408 C413 1.425 . S
C408 C415 1.409 1_556 S
C409 H401 0.930 . S
C409 C407 1.419 . S
C409 C410 1.362 . S
C410 H402 0.930 . S
C410 C409 1.362 . S
C410 C413 1.409 . S
C411 H403 0.930 . S
C411 C412 1.355 . S
C411 C413 1.415 . S
C412 C411 1.355 . S
C412 C414 1.419 1_556 S
C413 C408 1.425 . S
C413 C410 1.409 . S
C413 C411 1.415 . S
C414 H404 0.930 . S
C414 C412 1.419 1_554 S
C414 C415 1.362 . S
C415 H405 0.930 . S
C415 C408 1.409 1_554 S
C415 C414 1.362 . S
H416 C422 0.930 . S
H417 C425 0.930 . S
H418 C426 0.930 . S
H419 C427 0.930 . S
H420 C430 0.930 . S
H421 C431 0.930 . S
C422 H416 0.930 . S
C422 C423 1.355 . S
C422 C424 1.415 . S
C423 C422 1.355 . S
C423 C425 1.419 1_554 S
C424 C422 1.415 . S
C424 C429 1.425 . S
C424 C431 1.409 . S
C425 H417 0.930 . S
C425 C423 1.419 1_556 S
C425 C426 1.362 . S
C426 H418 0.930 . S
C426 C425 1.362 . S
C426 C429 1.409 1_556 S
C427 H419 0.930 . S
C427 C428 1.355 . S
C427 C429 1.415 . S
C428 C427 1.355 . S
C428 C430 1.419 . S
C429 C424 1.425 . S
C429 C426 1.409 1_554 S
C429 C427 1.415 . S
C430 H420 0.930 . S
C430 C428 1.419 . S
C430 C431 1.362 . S
C431 H421 0.930 . S
C431 C424 1.409 . S
C431 C430 1.362 . S
H432 C438 0.930 . S
H433 C441 0.930 . S
H434 C442 0.930 . S
H435 C443 0.930 . S
H436 C446 0.930 . S
H437 C447 0.930 . S
C438 H432 0.930 . S
C438 C439 1.355 . S
C438 C440 1.415 . S
C439 C438 1.355 . S
C439 C441 1.419 . S
C440 C438 1.415 . S
C440 C445 1.425 . S
C440 C447 1.409 . S
C441 H433 0.930 . S
C441 C439 1.419 . S
C441 C442 1.362 . S
C442 H434 0.930 . S
C442 C441 1.362 . S
C442 C445 1.409 . S
C443 H435 0.930 . S
C443 C444 1.355 . S
C443 C445 1.415 . S
C444 C443 1.355 . S
C444 C446 1.419 . S
C445 C440 1.425 . S
C445 C442 1.409 . S
C445 C443 1.415 . S
C446 H436 0.930 . S
C446 C444 1.419 . S
C446 C447 1.362 . S
C447 H437 0.930 . S
C447 C440 1.409 . S
C447 C446 1.362 . S
H448 C454 0.930 . S
H449 C457 0.930 . S
H450 C458 0.930 . S
H451 C459 0.930 . S
H452 C462 0.930 . S
H453 C463 0.930 . S
C454 H448 0.930 . S
C454 C455 1.355 . S
C454 C456 1.415 . S
C455 C454 1.355 . S
C455 C457 1.419 . S
C456 C454 1.415 . S
C456 C461 1.425 . S
C456 C463 1.409 . S
C457 H449 0.930 . S
C457 C455 1.419 . S
C457 C458 1.362 . S
C458 H450 0.930 . S
C458 C457 1.362 . S
C458 C461 1.409 . S
C459 H451 0.930 . S
C459 C460 1.355 . S
C459 C461 1.415 . S
C460 C459 1.355 . S
C460 C462 1.419 . S
C461 C456 1.425 . S
C461 C458 1.409 . S
C461 C459 1.415 . S
C462 H452 0.930 . S
C462 C460 1.419 . S
C462 C463 1.362 . S
C463 H453 0.930 . S
C463 C456 1.409 . S
C463 C462 1.362 . S
H464 C470 0.930 . S
H465 C473 0.930 . S
H466 C474 0.930 . S
H467 C475 0.930 . S
H468 C478 0.930 . S
H469 C479 0.930 . S
C470 H464 0.930 . S
C470 C471 1.355 . S
C470 C472 1.415 . S
C471 C470 1.355 . S
C471 C473 1.419 . S
C472 C470 1.415 . S
C472 C477 1.425 . S
C472 C479 1.409 . S
C473 H465 0.930 . S
C473 C471 1.419 . S
C473 C474 1.362 . S
C474 H466 0.930 . S
C474 C473 1.362 . S
C474 C477 1.409 . S
C475 H467 0.930 . S
C475 C476 1.355 . S
C475 C477 1.415 . S
C476 C475 1.355 . S
C476 C478 1.419 . S
C477 C472 1.425 . S
C477 C474 1.409 . S
C477 C475 1.415 . S
C478 H468 0.930 . S
C478 C476 1.419 . S
C478 C479 1.362 . S
C479 H469 0.930 . S
C479 C472 1.409 . S
C479 C478 1.362 . S
H480 C486 0.930 . S
H481 C489 0.930 . S
H482 C490 0.930 . S
H483 C491 0.930 . S
H484 C494 0.930 . S
H485 C495 0.930 . S
C486 H480 0.930 . S
C486 C487 1.355 . S
C486 C488 1.415 . S
C487 C486 1.355 . S
C487 C489 1.419 . S
C488 C486 1.415 . S
C488 C493 1.425 . S
C488 C495 1.409 . S
C489 H481 0.930 . S
C489 C487 1.419 . S
C489 C490 1.362 . S
C490 H482 0.930 . S
C490 C489 1.362 . S
C490 C493 1.409 . S
C491 H483 0.930 . S
C491 C492 1.355 . S
C491 C493 1.415 . S
C492 C491 1.355 . S
C492 C494 1.419 . S
C493 C488 1.425 . S
C493 C490 1.409 . S
C493 C491 1.415 . S
C494 H484 0.930 . S
C494 C492 1.419 . S
C494 C495 1.362 . S
C495 H485 0.930 . S
C495 C488 1.409 . S
C495 C494 1.362 . S
H496 C502 0.930 . S
H497 C505 0.930 . S
H498 C506 0.930 . S
H499 C507 0.930 . S
H500 C510 0.930 . S
H501 C511 0.930 . S
C502 H496 0.930 . S
C502 C503 1.355 . S
C502 C504 1.415 . S
C503 C502 1.355 . S
C503 C505 1.419 . S
C504 C502 1.415 . S
C504 C509 1.425 . S
C504 C511 1.409 . S
C505 H497 0.930 . S
C505 C503 1.419 . S
C505 C506 1.362 . S
C506 H498 0.930 . S
C506 C505 1.362 . S
C506 C509 1.409 . S
C507 H499 0.930 . S
C507 C508 1.355 . S
C507 C509 1.415 . S
C508 C507 1.355 . S
C508 C510 1.419 . S
C509 C504 1.425 . S
C509 C506 1.409 . S
C509 C507 1.415 . S
C510 H500 0.930 . S
C510 C508 1.419 . S
C510 C511 1.362 . S
C511 H501 0.930 . S
C511 C504 1.409 . S
C511 C510 1.362 . S
H512 C518 0.930 . S
H513 C521 0.930 . S
H514 C522 0.930 . S
H515 C523 0.930 . S
H516 C526 0.930 . S
H517 C527 0.930 . S
C518 H512 0.930 . S
C518 C519 1.355 . S
C518 C520 1.415 . S
C519 C518 1.355 . S
C519 C521 1.419 . S
C520 C518 1.415 . S
C520 C525 1.425 . S
C520 C527 1.409 . S
C521 H513 0.930 . S
C521 C519 1.419 . S
C521 C522 1.362 . S
C522 H514 0.930 . S
C522 C521 1.362 . S
C522 C525 1.409 . S
C523 H515 0.930 . S
C523 C524 1.355 . S
C523 C525 1.415 . S
C524 C523 1.355 . S
C524 C526 1.419 . S
C525 C520 1.425 . S
C525 C522 1.409 . S
C525 C523 1.415 . S
C526 H516 0.930 . S
C526 C524 1.419 . S
C526 C527 1.362 . S
C527 H517 0.930 . S
C527 C520 1.409 . S
C527 C526 1.362 . S
C247 C202 3.129 . S
C252 C7 2.963 . S
C263 C2 3.385 . S
C268 C56 3.049 . S
C279 C51 3.196 . S
C284 C96 2.930 1_545 S
C295 C136 2.946 . S
C300 C91 3.113 . S
C311 C167 3.047 . S
C316 C131 3.352 . S
C327 C162 3.200 . S
C332 C207 2.963 1_565 S
C343 C171 2.191 . S
C348 C16 2.189 . S
C359 C211 2.047 . S
C364 C47 2.026 . S
C375 C87 2.048 . S
C380 C11 2.084 . S
C391 C127 2.166 . S
C396 C42 2.205 . S
C407 C176 2.028 . S
C412 C82 2.054 . S
C423 C122 2.091 . S
C428 C216 2.049 . S
C439 C10 0.532 . S
C444 C19 0.532 . S
C455 C50 0.480 . S
C460 C59 0.480 . S
C471 C90 0.492 . S
C476 C99 0.492 . S
C487 C130 0.552 . S
C492 C139 0.552 . S
C503 C179 0.586 . S
C508 C170 0.586 . S
C519 C210 0.704 . S
C524 C219 0.704 . S
