# Generated by pormake.
# Topology lcy-e, (6)-cn, num edge types: 1
# Building blocks:
#     Node 0, Type 0, BuildingBlock: KUMBOL_clean_sbu_1, # of connection points: 6
#     Node 1, Type 0, BuildingBlock: KUMBOL_clean_sbu_1, # of connection points: 6
#     Node 2, Type 0, BuildingBlock: KUMBOL_clean_sbu_1, # of connection points: 6
#     Node 3, Type 0, BuildingBlock: KUMBOL_clean_sbu_1, # of connection points: 6
#     Node 4, Type 0, BuildingBlock: KUMBOL_clean_sbu_1, # of connection points: 6
#     Node 5, Type 0, BuildingBlock: KUMBOL_clean_sbu_1, # of connection points: 6
#     Node 6, Type 0, BuildingBlock: KUMBOL_clean_sbu_1, # of connection points: 6
#     Node 7, Type 0, BuildingBlock: KUMBOL_clean_sbu_1, # of connection points: 6
#     Node 8, Type 0, BuildingBlock: KUMBOL_clean_sbu_1, # of connection points: 6
#     Node 9, Type 0, BuildingBlock: KUMBOL_clean_sbu_1, # of connection points: 6
#     Node 10, Type 0, BuildingBlock: KUMBOL_clean_sbu_1, # of connection points: 6
#     Node 11, Type 0, BuildingBlock: KUMBOL_clean_sbu_1, # of connection points: 6
#     Edge 12, Type (0, 0), BuildingBlock: ZUJKAS_clean_linker_0, # of connection points: 2
#     Edge 13, Type (0, 0), BuildingBlock: ZUJKAS_clean_linker_0, # of connection points: 2
#     Edge 14, Type (0, 0), BuildingBlock: ZUJKAS_clean_linker_0, # of connection points: 2
#     Edge 15, Type (0, 0), BuildingBlock: ZUJKAS_clean_linker_0, # of connection points: 2
#     Edge 16, Type (0, 0), BuildingBlock: ZUJKAS_clean_linker_0, # of connection points: 2
#     Edge 17, Type (0, 0), BuildingBlock: ZUJKAS_clean_linker_0, # of connection points: 2
#     Edge 18, Type (0, 0), BuildingBlock: ZUJKAS_clean_linker_0, # of connection points: 2
#     Edge 19, Type (0, 0), BuildingBlock: ZUJKAS_clean_linker_0, # of connection points: 2
#     Edge 20, Type (0, 0), BuildingBlock: ZUJKAS_clean_linker_0, # of connection points: 2
#     Edge 21, Type (0, 0), BuildingBlock: ZUJKAS_clean_linker_0, # of connection points: 2
#     Edge 22, Type (0, 0), BuildingBlock: ZUJKAS_clean_linker_0, # of connection points: 2
#     Edge 23, Type (0, 0), BuildingBlock: ZUJKAS_clean_linker_0, # of connection points: 2
#     Edge 24, Type (0, 0), BuildingBlock: ZUJKAS_clean_linker_0, # of connection points: 2
#     Edge 25, Type (0, 0), BuildingBlock: ZUJKAS_clean_linker_0, # of connection points: 2
#     Edge 26, Type (0, 0), BuildingBlock: ZUJKAS_clean_linker_0, # of connection points: 2
#     Edge 27, Type (0, 0), BuildingBlock: ZUJKAS_clean_linker_0, # of connection points: 2
#     Edge 28, Type (0, 0), BuildingBlock: ZUJKAS_clean_linker_0, # of connection points: 2
#     Edge 29, Type (0, 0), BuildingBlock: ZUJKAS_clean_linker_0, # of connection points: 2
#     Edge 30, Type (0, 0), BuildingBlock: ZUJKAS_clean_linker_0, # of connection points: 2
#     Edge 31, Type (0, 0), BuildingBlock: ZUJKAS_clean_linker_0, # of connection points: 2
#     Edge 32, Type (0, 0), BuildingBlock: ZUJKAS_clean_linker_0, # of connection points: 2
#     Edge 33, Type (0, 0), BuildingBlock: ZUJKAS_clean_linker_0, # of connection points: 2
#     Edge 34, Type (0, 0), BuildingBlock: ZUJKAS_clean_linker_0, # of connection points: 2
#     Edge 35, Type (0, 0), BuildingBlock: ZUJKAS_clean_linker_0, # of connection points: 2
#     Edge 36, Type (0, 0), BuildingBlock: ZUJKAS_clean_linker_0, # of connection points: 2
#     Edge 37, Type (0, 0), BuildingBlock: ZUJKAS_clean_linker_0, # of connection points: 2
#     Edge 38, Type (0, 0), BuildingBlock: ZUJKAS_clean_linker_0, # of connection points: 2
#     Edge 39, Type (0, 0), BuildingBlock: ZUJKAS_clean_linker_0, # of connection points: 2
#     Edge 40, Type (0, 0), BuildingBlock: ZUJKAS_clean_linker_0, # of connection points: 2
#     Edge 41, Type (0, 0), BuildingBlock: ZUJKAS_clean_linker_0, # of connection points: 2
#     Edge 42, Type (0, 0), BuildingBlock: ZUJKAS_clean_linker_0, # of connection points: 2
#     Edge 43, Type (0, 0), BuildingBlock: ZUJKAS_clean_linker_0, # of connection points: 2
#     Edge 44, Type (0, 0), BuildingBlock: ZUJKAS_clean_linker_0, # of connection points: 2
#     Edge 45, Type (0, 0), BuildingBlock: ZUJKAS_clean_linker_0, # of connection points: 2
#     Edge 46, Type (0, 0), BuildingBlock: ZUJKAS_clean_linker_0, # of connection points: 2
#     Edge 47, Type (0, 0), BuildingBlock: ZUJKAS_clean_linker_0, # of connection points: 2
# Relax obj value: 0.094
# Max RMSD: 0.235
# Mean RMSD: 0.234
data_MOF--net-lcy-e--node1-KUMBOL_clean_sbu_1--edge1-ZUJKAS_clean_linker_0
_symmetry_space_group_name_H-M    P1
_symmetry_Int_Tables_number       1
_symmetry_cell_setting            triclinic
loop_
_symmetry_equiv_pos_as_xyz
'x, y, z'
_cell_length_a     54.633328
_cell_length_b     54.331392
_cell_length_c     54.617923
_cell_angle_alpha  89.838901
_cell_angle_beta   89.930963
_cell_angle_gamma 89.829307
loop_
_atom_site_label
_atom_site_type_symbol
_atom_site_fract_x
_atom_site_fract_y
_atom_site_fract_z
_atom_type_partial_charge
C0 C 0.0791 0.30185 0.47789 0.0
C1 C 0.09818 0.33951 0.49176 0.0
C2 C 0.10003 0.31546 0.48231 0.0
C3 C 0.075 0.34928 0.49739 0.0
C4 C 0.05575 0.3119 0.48255 0.0
C5 C 0.05383 0.33554 0.49272 0.0
N6 N 0.08157 0.2789 0.46848 0.0
C7 C 0.06157 0.26573 0.46142 0.0
C8 C 0.03507 0.29798 0.47656 0.0
C9 C 0.03801 0.2749 0.46567 0.0
Gd10 Gd 0.14396 0.20808 0.50508 0.0
Gd11 Gd 0.12157 0.26491 0.46202 0.0
N12 N 0.1221 0.30563 0.47624 0.0
C13 C 0.11962 0.35324 0.49464 0.0
C14 C 0.14285 0.31948 0.4775 0.0
C15 C 0.14202 0.34329 0.48715 0.0
H16 H 0.16012 0.31223 0.47105 0.0
H17 H 0.15862 0.35401 0.48866 0.0
H18 H 0.12566 0.16226 0.46971 0.0
H19 H 0.0638 0.24812 0.45262 0.0
H20 H 0.14421 0.12882 0.44494 0.0
H21 H 0.119 0.37175 0.50194 0.0
H22 H 0.07322 0.36766 0.50483 0.0
H23 H 0.191 0.23387 0.53696 0.0
H24 H 0.0168 0.30505 0.47983 0.0
H25 H 0.02216 0.26423 0.46046 0.0
H26 H 0.2308 0.14029 0.45496 0.0
H27 H 0.03606 0.3435 0.49669 0.0
H28 H 0.25766 0.20369 0.5093 0.0
H29 H 0.23584 0.23267 0.53653 0.0
N30 N 0.18699 0.20783 0.50801 0.0
C31 C 0.19861 0.19073 0.49398 0.0
C32 C 0.20004 0.22203 0.52395 0.0
C33 C 0.23785 0.20458 0.50887 0.0
C34 C 0.22561 0.22103 0.5242 0.0
C35 C 0.22436 0.18875 0.49394 0.0
H36 H 0.25558 0.16905 0.47915 0.0
N37 N 0.15997 0.17708 0.48024 0.0
C38 C 0.18469 0.17454 0.48018 0.0
C39 C 0.18126 0.13946 0.4533 0.0
C40 C 0.19605 0.15589 0.4663 0.0
C41 C 0.14535 0.16053 0.46854 0.0
C42 C 0.15579 0.14165 0.45462 0.0
O43 O 0.09866 0.25729 0.49647 0.0
O44 O 0.12505 0.23912 0.5245 0.0
O45 O 0.12161 0.17836 0.51926 0.0
O46 O 0.15433 0.18892 0.53857 0.0
O47 O 0.15791 0.26826 0.48183 0.0
O48 O 0.1545 0.24655 0.51812 0.0
O49 O 0.15006 0.21051 0.46399 0.0
O50 O 0.15997 0.2505 0.45834 0.0
O51 O 0.12456 0.29214 0.4321 0.0
O52 O 0.11533 0.25357 0.42484 0.0
O53 O 0.10502 0.20709 0.49178 0.0
O54 O 0.10634 0.22687 0.45437 0.0
C55 C 0.10587 0.25288 0.51915 0.0
C56 C 0.16153 0.26611 0.50553 0.0
C57 C 0.1216 0.17236 0.56171 0.0
C58 C 0.10193 0.14584 0.59206 0.0
C59 C 0.09929 0.19045 0.59558 0.0
C60 C 0.11312 0.19317 0.57425 0.0
C61 C 0.09369 0.16699 0.60446 0.0
C62 C 0.11603 0.14875 0.57064 0.0
C63 C 0.13506 0.17488 0.53856 0.0
C64 C 0.2217 0.15428 0.46578 0.0
C65 C 0.23581 0.17073 0.47949 0.0
H66 H 0.18931 0.1249 0.4424 0.0
C67 C 0.16434 0.2272 0.45426 0.0
C68 C 0.09655 0.21083 0.46959 0.0
C69 C 0.11698 0.28009 0.38928 0.0
C70 C 0.12515 0.30433 0.35232 0.0
C71 C 0.10061 0.26714 0.35005 0.0
C72 C 0.10334 0.2635 0.37512 0.0
C73 C 0.11138 0.28736 0.33871 0.0
C74 C 0.12807 0.30055 0.37776 0.0
C75 C 0.1193 0.27544 0.41586 0.0
H76 H 0.09282 0.20658 0.60523 0.0
H77 H 0.11706 0.21143 0.56744 0.0
H78 H 0.0831 0.1654 0.62116 0.0
H79 H 0.12218 0.13271 0.56058 0.0
H80 H 0.0901 0.25421 0.33933 0.0
H81 H 0.09461 0.24768 0.38346 0.0
H82 H 0.10916 0.28959 0.31912 0.0
H83 H 0.13869 0.31345 0.38845 0.0
C84 C 0.97218 0.82451 0.72278 0.0
C85 C 0.93545 0.83149 0.74687 0.0
C86 C 0.95663 0.84054 0.73517 0.0
C87 C 0.93019 0.80621 0.74602 0.0
C88 C 0.96667 0.7992 0.72148 0.0
C89 C 0.94571 0.79014 0.7333 0.0
N90 N 0.99268 0.83368 0.71202 0.0
C91 C 0.00722 0.81897 0.69792 0.0
C92 C 0.98233 0.78377 0.70818 0.0
C93 C 1.00253 0.79377 0.69609 0.0
Gd94 Gd 0.05477 0.89502 0.76174 0.0
Gd95 Gd 0.99894 0.8761 0.7164 0.0
N96 N 0.9623 0.86491 0.73591 0.0
C97 C 0.92018 0.8481 0.75911 0.0
C98 C 0.94681 0.88133 0.74673 0.0
C99 C 0.92579 0.87314 0.75887 0.0
H100 H 0.95027 0.90076 0.74564 0.0
H101 H 0.9138 0.88611 0.76791 0.0
H102 H 0.09971 0.87364 0.72684 0.0
H103 H 0.02187 0.8267 0.68724 0.0
H104 H 0.13613 0.88976 0.70507 0.0
H105 H 0.90383 0.84185 0.76847 0.0
H106 H 0.91406 0.79894 0.75501 0.0
H107 H 0.03127 0.94327 0.79417 0.0
H108 H 0.9787 0.76424 0.7067 0.0
H109 H 0.01428 0.78216 0.68507 0.0
H110 H 0.13467 0.97638 0.72201 0.0
H111 H 0.94127 0.77073 0.73262 0.0
H112 H 0.07114 0.00748 0.77385 0.0
H113 H 0.0377 0.98772 0.79711 0.0
N114 N 0.05863 0.93785 0.76668 0.0
C115 C 0.07779 0.94821 0.75449 0.0
C116 C 0.0449 0.9516 0.78255 0.0
C117 C 0.06783 0.98795 0.7717 0.0
C118 C 0.04888 0.97689 0.7848 0.0
C119 C 0.08294 0.97353 0.75681 0.0
H120 H 0.10771 1.00289 0.7466 0.0
N121 N 0.08784 0.90893 0.7386 0.0
C122 C 0.09309 0.93328 0.74051 0.0
C123 C 0.12921 0.92737 0.71555 0.0
C124 C 0.11384 0.9432 0.72877 0.0
C125 C 0.1034 0.89316 0.72688 0.0
C126 C 0.12407 0.90221 0.71477 0.0
O127 O 1.00477 0.85265 0.75099 0.0
O128 O 0.02208 0.8783 0.78004 0.0
O129 O 0.08056 0.86868 0.7772 0.0
O130 O 0.075 0.9038 0.79478 0.0
O131 O 0.99367 0.91133 0.73799 0.0
O132 O 0.01685 0.90853 0.77373 0.0
O133 O 0.05474 0.90496 0.72146 0.0
O134 O 0.01483 0.91426 0.715 0.0
O135 O 0.96746 0.88659 0.69438 0.0
O136 O 1.00114 0.87549 0.67663 0.0
O137 O 0.05372 0.85715 0.74525 0.0
O138 O 0.03748 0.86355 0.70696 0.0
C139 C 0.00839 0.85938 0.77395 0.0
C140 C 0.99767 0.91667 0.7612 0.0
C141 C 0.08997 0.8712 0.81932 0.0
C142 C 0.11766 0.85642 0.85128 0.0
C143 C 0.07349 0.85499 0.85725 0.0
C144 C 0.06983 0.86524 0.83406 0.0
C145 C 0.09722 0.85072 0.8659 0.0
C146 C 0.11383 0.86654 0.82784 0.0
C147 C 0.08666 0.8829 0.7953 0.0
C148 C 0.11881 0.96842 0.7309 0.0
C149 C 0.10342 0.98352 0.74487 0.0
H150 H 0.14531 0.93433 0.70625 0.0
C151 C 0.038 0.91906 0.7116 0.0
C152 C 0.05244 0.85178 0.72189 0.0
C153 C 0.96407 0.87046 0.65442 0.0
C154 C 0.93751 0.87351 0.61836 0.0
C155 C 0.94872 0.83345 0.63521 0.0
C156 C 0.96233 0.84477 0.65355 0.0
C157 C 0.9365 0.84762 0.61771 0.0
C158 C 0.9516 0.88481 0.63683 0.0
C159 C 0.9785 0.88266 0.67363 0.0
H160 H 0.0579 0.85043 0.86862 0.0
H161 H 0.05138 0.86868 0.82769 0.0
H162 H 0.09959 0.84273 0.88393 0.0
H163 H 0.12939 0.87131 0.81646 0.0
H164 H 0.94765 0.81357 0.63454 0.0
H165 H 0.97145 0.83342 0.66695 0.0
H166 H 0.9264 0.8382 0.60351 0.0
H167 H 0.95259 0.9047 0.63781 0.0
C168 C 0.31951 0.79481 0.03753 0.0
C169 C 0.3231 0.77311 0.07632 0.0
C170 C 0.33387 0.78304 0.05503 0.0
C171 C 0.29767 0.77498 0.07968 0.0
C172 C 0.29413 0.7977 0.04142 0.0
C173 C 0.28324 0.78729 0.06232 0.0
N174 N 0.33055 0.80474 0.01748 0.0
C175 C 0.31794 0.82058 1.00269 0.0
C176 C 0.28061 0.81175 0.02467 0.0
C177 C 0.29269 0.82371 1.00553 0.0
Gd178 Gd 0.39425 0.75095 0.95839 0.0
Gd179 Gd 0.37286 0.79756 0.01416 0.0
N180 N 0.35844 0.78131 0.05119 0.0
C181 C 0.33825 0.76172 0.09365 0.0
C182 C 0.3734 0.77106 0.06837 0.0
C183 C 0.36351 0.76084 0.08973 0.0
H184 H 0.39293 0.77102 0.06567 0.0
H185 H 0.37529 0.75227 0.10317 0.0
H186 H 0.37678 0.78408 0.91022 0.0
H187 H 0.3274 0.83148 0.98921 0.0
H188 H 0.39623 0.80763 0.87644 0.0
H189 H 0.33067 0.75378 0.11021 0.0
H190 H 0.28905 0.76733 0.09586 0.0
H191 H 0.44141 0.72235 0.989 0.0
H192 H 0.26109 0.81442 0.02701 0.0
H193 H 0.28268 0.83577 0.99329 0.0
H194 H 0.48235 0.80042 0.89243 0.0
H195 H 0.26374 0.78912 0.06548 0.0
H196 H 0.50809 0.75087 0.96023 0.0
H197 H 0.48607 0.72456 0.98985 0.0
N198 N 0.4373 0.74974 0.96109 0.0
C199 C 0.44915 0.76296 0.94343 0.0
C200 C 0.45033 0.73515 0.97685 0.0
C201 C 0.48826 0.75057 0.96016 0.0
C202 C 0.4759 0.73581 0.97701 0.0
C203 C 0.47495 0.76393 0.94274 0.0
H204 H 0.50651 0.7789 0.92385 0.0
N205 N 0.41067 0.77467 0.92684 0.0
C206 C 0.43552 0.77522 0.92554 0.0
C207 C 0.43295 0.80044 0.88906 0.0
C208 C 0.44732 0.78859 0.9068 0.0
C209 C 0.39651 0.78545 0.90922 0.0
C210 C 0.40744 0.79871 0.89019 0.0
O211 O 0.35441 0.76005 0.01591 0.0
O212 O 0.36622 0.73437 0.98347 0.0
O213 O 0.37629 0.73578 0.92631 0.0
O214 O 0.40627 0.71611 0.94305 0.0
O215 O 0.40708 0.77432 0.01757 0.0
O216 O 0.4023 0.73752 0.99718 0.0
O217 O 0.40128 0.79209 0.95874 0.0
O218 O 0.41087 0.79743 0.99852 0.0
O219 O 0.38507 0.81945 0.04503 0.0
O220 O 0.37436 0.83743 0.01128 0.0
O221 O 0.35595 0.76604 0.95678 0.0
O222 O 0.35945 0.80416 0.97522 0.0
C223 C 0.35323 0.73941 1.00321 0.0
C224 C 0.40821 0.75016 0.01693 0.0
C225 C 0.37592 0.69264 0.923 0.0
C226 C 0.35838 0.66191 0.89566 0.0
C227 C 0.35649 0.65624 0.93982 0.0
C228 C 0.3687 0.6785 0.94328 0.0
C229 C 0.35153 0.64786 0.91619 0.0
C230 C 0.37042 0.68448 0.89922 0.0
C231 C 0.38939 0.71581 0.92626 0.0
C232 C 0.47296 0.78998 0.90651 0.0
C233 C 0.48672 0.77779 0.92446 0.0
H234 H 0.44136 0.81091 0.87441 0.0
C235 C 0.41473 0.80255 0.97551 0.0
C236 C 0.34788 0.78844 0.96098 0.0
C237 C 0.36955 0.85987 0.04805 0.0
C238 C 0.372 0.89872 0.07041 0.0
C239 C 0.33302 0.87755 0.06617 0.0
C240 C 0.34438 0.85887 0.05288 0.0
C241 C 0.34666 0.89734 0.07488 0.0
C242 C 0.38337 0.87973 0.05697 0.0
C243 C 0.38165 0.84035 0.03383 0.0
H244 H 0.35098 0.64537 0.95551 0.0
H245 H 0.37262 0.68458 0.96173 0.0
H246 H 0.34212 0.63049 0.91391 0.0
H247 H 0.37596 0.69538 0.88352 0.0
H248 H 0.31357 0.87663 0.06985 0.0
H249 H 0.33349 0.84369 0.0465 0.0
H250 H 0.33739 0.91138 0.08548 0.0
H251 H 0.40284 0.88053 0.0532 0.0
C252 C 0.53064 0.19526 0.20706 0.0
C253 C 0.56863 0.19738 0.22994 0.0
C254 C 0.54813 0.18406 0.22171 0.0
C255 C 0.57073 0.22245 0.224 0.0
C256 C 0.53317 0.22019 0.20027 0.0
C257 C 0.55302 0.23384 0.20923 0.0
N258 N 0.51203 0.1814 0.19818 0.0
C259 C 0.49654 0.19075 0.18093 0.0
C260 C 0.51613 0.23041 0.18401 0.0
C261 C 0.49793 0.2155 0.17402 0.0
Gd262 Gd 0.45956 0.11863 0.26272 0.0
Gd263 Gd 0.51081 0.14017 0.21107 0.0
N264 N 0.54555 0.15978 0.22718 0.0
C265 C 0.58658 0.18497 0.24353 0.0
C266 C 0.56383 0.1472 0.23893 0.0
C267 C 0.58429 0.15971 0.2478 0.0
H268 H 0.56238 0.12761 0.24163 0.0
H269 H 0.5984 0.14983 0.25769 0.0
H270 H 0.41591 0.14755 0.22813 0.0
H271 H 0.48341 0.17892 0.17212 0.0
H272 H 0.38092 0.13585 0.20278 0.0
H273 H 0.60254 0.19458 0.25027 0.0
H274 H 0.58624 0.23306 0.23033 0.0
H275 H 0.48131 0.06657 0.28642 0.0
H276 H 0.5174 0.2495 0.17837 0.0
H277 H 0.48525 0.22295 0.16069 0.0
H278 H 0.37424 0.0487 0.21418 0.0
H279 H 0.55518 0.25305 0.20434 0.0
H280 H 0.43393 0.008 0.26424 0.0
H281 H 0.47033 0.02236 0.28696 0.0
N282 N 0.45172 0.07661 0.26327 0.0
C283 C 0.43148 0.0693 0.25084 0.0
C284 C 0.46555 0.06029 0.27629 0.0
C285 C 0.4387 0.02734 0.2639 0.0
C286 C 0.45931 0.03536 0.2767 0.0
C287 C 0.42449 0.04435 0.25077 0.0
H288 H 0.39798 0.01807 0.2374 0.0
N289 N 0.4255 0.11075 0.23766 0.0
C290 C 0.41821 0.08673 0.23746 0.0
C291 C 0.38434 0.09721 0.21094 0.0
C292 C 0.39747 0.07938 0.22401 0.0
C293 C 0.41186 0.12836 0.2261 0.0
C294 C 0.39146 0.12181 0.21216 0.0
O295 O 0.51667 0.15564 0.24957 0.0
O296 O 0.48193 0.15097 0.2741 0.0
O297 O 0.42685 0.12973 0.28303 0.0
O298 O 0.45665 0.10992 0.30145 0.0
O299 O 0.51703 0.10577 0.23364 0.0
O300 O 0.49898 0.10884 0.27212 0.0
O301 O 0.47221 0.09329 0.23256 0.0
O302 O 0.47595 0.12032 0.20093 0.0
O303 O 0.53481 0.11304 0.19392 0.0
O304 O 0.52103 0.14348 0.17275 0.0
O305 O 0.45605 0.15673 0.24654 0.0
O306 O 0.47126 0.15184 0.2077 0.0
C307 C 0.50392 0.15966 0.26974 0.0
C308 C 0.51756 0.10297 0.25762 0.0
C309 C 0.42178 0.12172 0.32686 0.0
C310 C 0.38812 0.13736 0.35205 0.0
C311 C 0.42125 0.11414 0.37073 0.0
C312 C 0.43244 0.11145 0.34796 0.0
C313 C 0.39934 0.12714 0.37283 0.0
C314 C 0.39926 0.13447 0.32894 0.0
C315 C 0.43538 0.12069 0.30343 0.0
C316 C 0.39025 0.05459 0.22426 0.0
C317 C 0.40372 0.03714 0.23755 0.0
H318 H 0.36836 0.09227 0.20032 0.0
C319 C 0.47145 0.09804 0.20905 0.0
C320 C 0.45974 0.16501 0.22423 0.0
C321 C 0.55987 0.12838 0.16185 0.0
C322 C 0.58946 0.12065 0.12908 0.0
C323 C 0.59943 0.14861 0.16225 0.0
C324 C 0.57658 0.1445 0.17276 0.0
C325 C 0.60589 0.13676 0.14061 0.0
C326 C 0.56627 0.11662 0.13976 0.0
C327 C 0.53553 0.12452 0.17296 0.0
H328 H 0.42973 0.10632 0.38689 0.0
H329 H 0.44973 0.10169 0.34697 0.0
H330 H 0.39103 0.12916 0.39074 0.0
H331 H 0.39083 0.1427 0.31293 0.0
H332 H 0.61213 0.16114 0.17085 0.0
H333 H 0.57198 0.15416 0.18925 0.0
H334 H 0.62368 0.1405 0.13266 0.0
H335 H 0.55339 0.10427 0.13108 0.0
C336 C 0.57326 0.21325 0.5341 0.0
C337 C 0.58934 0.17416 0.52009 0.0
C338 C 0.5931 0.19816 0.52904 0.0
C339 C 0.56539 0.16593 0.51564 0.0
C340 C 0.54917 0.20482 0.53051 0.0
C341 C 0.54535 0.18121 0.52088 0.0
N342 N 0.57756 0.23611 0.54299 0.0
C343 C 0.55875 0.25061 0.5509 0.0
C344 C 0.52968 0.22024 0.53713 0.0
C345 C 0.53451 0.2431 0.54773 0.0
Gd346 Gd 0.64251 0.30302 0.50235 0.0
Gd347 Gd 0.61857 0.24758 0.54701 0.0
N348 N 0.61601 0.20668 0.53358 0.0
C349 C 0.60972 0.15901 0.51633 0.0
C350 C 0.63585 0.19157 0.53116 0.0
C351 C 0.63301 0.16763 0.52224 0.0
H352 H 0.65388 0.19791 0.5362 0.0
H353 H 0.64869 0.15572 0.52004 0.0
H354 H 0.62473 0.34998 0.53664 0.0
H355 H 0.56244 0.26788 0.55975 0.0
H356 H 0.64376 0.38414 0.55981 0.0
H357 H 0.60763 0.14045 0.50946 0.0
H358 H 0.56216 0.14761 0.50859 0.0
H359 H 0.68955 0.27273 0.47389 0.0
H360 H 0.51088 0.21443 0.53472 0.0
H361 H 0.5196 0.25485 0.55362 0.0
H362 H 0.73014 0.37044 0.55026 0.0
H363 H 0.52698 0.17446 0.51778 0.0
H364 H 0.75632 0.30282 0.50063 0.0
H365 H 0.73433 0.27255 0.4752 0.0
N366 N 0.68555 0.3009 0.50083 0.0
C367 C 0.69733 0.31857 0.51395 0.0
C368 C 0.69856 0.28515 0.48627 0.0
C369 C 0.73649 0.30255 0.50075 0.0
C370 C 0.72414 0.28536 0.48646 0.0
C371 C 0.72313 0.31979 0.51429 0.0
H372 H 0.75456 0.3396 0.52813 0.0
N373 N 0.65881 0.33403 0.52668 0.0
C374 C 0.68359 0.33597 0.52666 0.0
C375 C 0.68065 0.37243 0.55179 0.0
C376 C 0.69521 0.35505 0.53962 0.0
C377 C 0.64444 0.35132 0.53775 0.0
C378 C 0.65515 0.37064 0.55071 0.0
O379 O 0.59518 0.25481 0.51301 0.0
O380 O 0.61999 0.27409 0.48381 0.0
O381 O 0.62249 0.33403 0.487 0.0
O382 O 0.65509 0.32083 0.46893 0.0
O383 O 0.65367 0.24252 0.52549 0.0
O384 O 0.65036 0.26395 0.489 0.0
O385 O 0.64971 0.30075 0.5433 0.0
O386 O 0.65754 0.26015 0.54855 0.0
O387 O 0.6226 0.2208 0.57724 0.0
O388 O 0.61396 0.25961 0.58424 0.0
O389 O 0.60401 0.30664 0.5165 0.0
O390 O 0.60586 0.28675 0.55386 0.0
C391 C 0.60051 0.26135 0.49028 0.0
C392 C 0.65608 0.24392 0.50158 0.0
C393 C 0.62496 0.34059 0.44447 0.0
C394 C 0.6063 0.36912 0.4151 0.0
C395 C 0.60736 0.32507 0.40687 0.0
C396 C 0.61947 0.32085 0.42898 0.0
C397 C 0.60079 0.34897 0.39996 0.0
C398 C 0.61847 0.3647 0.43744 0.0
C399 C 0.63696 0.33643 0.46825 0.0
C400 C 0.72087 0.35607 0.5402 0.0
C401 C 0.73477 0.33844 0.52765 0.0
H402 H 0.6889 0.38734 0.56196 0.0
C403 C 0.66281 0.2831 0.55319 0.0
C404 C 0.59529 0.3021 0.53846 0.0
C405 C 0.61708 0.23367 0.62021 0.0
C406 C 0.62582 0.2095 0.65716 0.0
C407 C 0.60366 0.24827 0.66007 0.0
C408 C 0.60521 0.25132 0.63482 0.0
C409 C 0.61384 0.22757 0.67117 0.0
C410 C 0.6276 0.2127 0.63151 0.0
C411 C 0.61818 0.23784 0.59342 0.0
H412 H 0.6031 0.30975 0.39501 0.0
H413 H 0.62445 0.30221 0.43404 0.0
H414 H 0.59171 0.35172 0.38254 0.0
H415 H 0.62259 0.37993 0.44952 0.0
H416 H 0.59452 0.26203 0.6711 0.0
H417 H 0.59696 0.26756 0.62671 0.0
H418 H 0.61254 0.2258 0.69089 0.0
H419 H 0.63686 0.19896 0.62051 0.0
C420 C 0.95524 0.44185 0.72975 0.0
C421 C 0.97852 0.44622 0.69214 0.0
C422 C 0.9708 0.43194 0.71229 0.0
C423 C 0.97192 0.47119 0.69087 0.0
C424 C 0.94667 0.46623 0.72721 0.0
C425 C 0.95597 0.48118 0.70837 0.0
N426 N 0.94576 0.42655 0.74701 0.0
C427 C 0.9258 0.43362 0.76044 0.0
C428 C 0.92772 0.47428 0.74253 0.0
C429 C 0.9168 0.45769 0.75875 0.0
Gd430 Gd 0.01789 0.36916 0.79954 0.0
Gd431 Gd 0.96275 0.38668 0.74901 0.0
N432 N 0.97595 0.40751 0.71354 0.0
C433 C 0.99128 0.43459 0.67313 0.0
C434 C 0.98641 0.39567 0.69406 0.0
C435 C 0.99472 0.4091 0.67383 0.0
H436 H 0.9891 0.376 0.69465 0.0
H437 H 1.00376 0.39981 0.65882 0.0
H438 H 0.97373 0.37931 0.84276 0.0
H439 H 0.91732 0.42084 0.77306 0.0
H440 H 0.95488 0.35705 0.87681 0.0
H441 H 0.99752 0.44493 0.65733 0.0
H442 H 0.97797 0.48258 0.67572 0.0
H443 H 0.05621 0.32908 0.77303 0.0
H444 H 0.92056 0.49284 0.74111 0.0
H445 H 0.90151 0.46343 0.77001 0.0
H446 H 0.99371 0.27794 0.87585 0.0
H447 H 0.94992 0.50009 0.70638 0.0
H448 H 0.05253 0.26136 0.81295 0.0
H449 H 0.06951 0.28608 0.77888 0.0
N450 N 0.0313 0.32847 0.80301 0.0
C451 C 0.02238 0.31556 0.82242 0.0
C452 C 0.04832 0.31838 0.78772 0.0
C453 C 0.04657 0.28023 0.81046 0.0
C454 C 0.0561 0.29408 0.79112 0.0
C455 C 0.02951 0.2909 0.8264 0.0
H456 H 0.02446 0.2586 0.84919 0.0
N457 N 0.99813 0.35031 0.83308 0.0
C458 C 1.00533 0.32673 0.83785 0.0
C459 C 0.97646 0.32432 0.87136 0.0
C460 C 0.9946 0.31313 0.8571 0.0
C461 C 0.9802 0.36113 0.8468 0.0
C462 C 0.96918 0.34838 0.86612 0.0
O463 O 1.00119 0.39995 0.74038 0.0
O464 O 0.01399 0.40514 0.77932 0.0
O465 O 0.03888 0.3799 0.83203 0.0
O466 O 0.05716 0.37338 0.79685 0.0
O467 O 0.98599 0.35217 0.74653 0.0
O468 O 0.02537 0.35913 0.7598 0.0
O469 O 0.98817 0.34159 0.79175 0.0
O470 O 0.95543 0.36709 0.78511 0.0
O471 O 0.94769 0.36331 0.72025 0.0
O472 O 0.92355 0.38077 0.74581 0.0
O473 O 0.99415 0.40134 0.81161 0.0
O474 O 0.96169 0.40904 0.78417 0.0
C475 C 0.01773 0.40779 0.75585 0.0
C476 C 0.00981 0.35103 0.74319 0.0
C477 C 0.08354 0.38501 0.83071 0.0
C478 C 0.10918 0.39953 0.86446 0.0
C479 C 0.12755 0.38871 0.82536 0.0
C480 C 0.1046 0.38281 0.81606 0.0
C481 C 0.12985 0.39708 0.84931 0.0
C482 C 0.08594 0.39315 0.85517 0.0
C483 C 0.0594 0.37936 0.81984 0.0
C484 C 1.00177 0.28862 0.86114 0.0
C485 C 0.01924 0.27758 0.84591 0.0
H486 H 0.96767 0.31442 0.8862 0.0
C487 C 0.96442 0.34533 0.79083 0.0
C488 C 0.97407 0.41321 0.80461 0.0
C489 C 0.90954 0.37741 0.7054 0.0
C490 C 0.87601 0.37195 0.67627 0.0
C491 C 0.89701 0.41126 0.67912 0.0
C492 C 0.91224 0.40168 0.69713 0.0
C493 C 0.87889 0.39666 0.6689 0.0
C494 C 0.89142 0.36244 0.69484 0.0
C495 C 0.92507 0.36837 0.72562 0.0
H496 H 0.14363 0.38691 0.8139 0.0
H497 H 0.10338 0.37661 0.79726 0.0
H498 H 0.14792 0.40157 0.85609 0.0
H499 H 0.06989 0.39509 0.86667 0.0
H500 H 0.89911 0.43019 0.67324 0.0
H501 H 0.92585 0.41342 0.70485 0.0
H502 H 0.86691 0.40493 0.6554 0.0
H503 H 0.88946 0.34357 0.70098 0.0
C504 C 0.94108 0.7844 0.04324 0.0
C505 C 0.93787 0.82384 0.02235 0.0
C506 C 0.92687 0.80276 0.0326 0.0
C507 C 0.96346 0.82606 0.02263 0.0
C508 C 0.96668 0.78734 0.04486 0.0
C509 C 0.97783 0.8079 0.03393 0.0
N510 N 0.92974 0.76476 0.0538 0.0
C511 C 0.94247 0.74997 0.06956 0.0
C512 C 0.98018 0.77018 0.05846 0.0
C513 C 0.96791 0.7518 0.07142 0.0
Gd514 Gd 0.87103 0.70896 0.99899 0.0
Gd515 Gd 0.88693 0.76305 0.04853 0.0
N516 N 0.90214 0.80004 0.03245 0.0
C517 C 0.92276 0.84219 0.01239 0.0
C518 C 0.88728 0.81825 0.0237 0.0
C519 C 0.89734 0.83949 0.01332 0.0
H520 H 0.8677 0.81625 0.0247 0.0
H521 H 0.8855 0.85374 1.00603 0.0
H522 H 0.89595 0.65947 0.02499 0.0
H523 H 0.93305 0.73717 0.08132 0.0
H524 H 0.88222 0.62044 0.04401 0.0
H525 H 0.93052 0.85865 1.00432 0.0
H526 H 0.97228 0.84204 0.01469 0.0
H527 H 0.8189 0.73759 0.97806 0.0
H528 H 0.99986 0.7718 0.06021 0.0
H529 H 0.97795 0.73942 0.08333 0.0
H530 H 0.79457 0.62419 0.03899 0.0
H531 H 0.9975 0.81028 0.03474 0.0
H532 H 0.75795 0.69532 1.00228 0.0
H533 H 0.7747 0.73203 0.98147 0.0
N534 N 0.82793 0.70586 0.99948 0.0
C535 C 0.81908 0.68456 0.00936 0.0
C536 C 0.81228 0.72219 0.98852 0.0
C537 C 0.77759 0.69793 1.00139 0.0
C538 C 0.78697 0.71876 0.9898 0.0
C539 C 0.79365 0.68027 0.01092 0.0
H540 H 0.76555 0.65495 0.02311 0.0
N541 N 0.85986 0.6718 0.01729 0.0
C542 C 0.83547 0.6669 0.01812 0.0
C543 C 0.84392 0.62812 0.03826 0.0
C544 C 0.82684 0.64499 0.02892 0.0
C545 C 0.87663 0.65544 0.02618 0.0
C546 C 0.86891 0.63337 0.03684 0.0
O547 O 0.89939 0.76933 0.00928 0.0
O548 O 0.90659 0.72996 0.99661 0.0
O549 O 0.88553 0.67793 0.97774 0.0
O550 O 0.86441 0.70713 0.9599 0.0
O551 O 0.85193 0.76584 0.02653 0.0
O552 O 0.85917 0.74789 0.98893 0.0
O553 O 0.85941 0.70509 0.03881 0.0
O554 O 0.85 0.7447 0.04888 0.0
O555 O 0.8727 0.79399 0.06945 0.0
O556 O 0.88663 0.76203 0.08829 0.0
O557 O 0.90774 0.70684 0.0175 0.0
O558 O 0.90023 0.72365 0.05572 0.0
C559 C 0.90845 0.75376 0.99328 0.0
C560 C 0.85034 0.76596 1.00248 0.0
C561 C 0.87898 0.67411 0.93352 0.0
C562 C 0.89318 0.63986 0.90806 0.0
C563 C 0.87355 0.67546 0.88939 0.0
C564 C 0.8707 0.68624 0.91232 0.0
C565 C 0.88476 0.65252 0.88722 0.0
C566 C 0.89005 0.65066 0.93134 0.0
C567 C 0.87627 0.68644 0.95751 0.0
C568 C 0.80155 0.64086 0.03063 0.0
C569 C 0.78502 0.65845 0.02168 0.0
H570 H 0.838 0.6111 0.04674 0.0
C571 C 0.84621 0.72102 0.0511 0.0
C572 C 0.91236 0.70853 0.04109 0.0
C573 C 0.89038 0.80027 0.1082 0.0
C574 C 0.88907 0.82517 0.14534 0.0
C575 C 0.92731 0.81979 0.12309 0.0
C576 C 0.91545 0.80516 0.10588 0.0
C577 C 0.91428 0.82966 0.14276 0.0
C578 C 0.87714 0.81052 0.12781 0.0
C579 C 0.87795 0.78425 0.09053 0.0
H580 H 0.86709 0.68497 0.87319 0.0
H581 H 0.86213 0.7042 0.9134 0.0
H582 H 0.88666 0.64451 0.86917 0.0
H583 H 0.89655 0.64107 0.94751 0.0
H584 H 0.94668 0.82347 0.12121 0.0
H585 H 0.9259 0.79761 0.09088 0.0
H586 H 0.92387 0.84107 0.15583 0.0
H587 H 0.85775 0.80674 0.12966 0.0
C588 C 0.54522 0.56914 0.22798 0.0
C589 C 0.5247 0.57133 0.18858 0.0
C590 C 0.5335 0.58285 0.20991 0.0
C591 C 0.52744 0.54579 0.18584 0.0
C592 C 0.54909 0.54368 0.22465 0.0
C593 C 0.53964 0.532 0.2038 0.0
N594 N 0.55436 0.58097 0.2479 0.0
C595 C 0.5703 0.5691 0.26314 0.0
C596 C 0.56335 0.53092 0.24178 0.0
C597 C 0.57451 0.54385 0.26074 0.0
Gd598 Gd 0.49901 0.64452 0.30496 0.0
Gd599 Gd 0.54637 0.62349 0.24964 0.0
N600 N 0.53094 0.60755 0.21311 0.0
C601 C 0.51376 0.58593 0.17047 0.0
C602 C 0.52093 0.62197 0.19529 0.0
C603 C 0.51215 0.61136 0.17375 0.0
H604 H 0.52015 0.64164 0.19758 0.0
H605 H 0.50435 0.62277 0.1596 0.0
H606 H 0.533 0.62784 0.35271 0.0
H607 H 0.58066 0.57919 0.27653 0.0
H608 H 0.55532 0.64801 0.38669 0.0
H609 H 0.50687 0.57781 0.15375 0.0
H610 H 0.52064 0.5366 0.16964 0.0
H611 H 0.46916 0.69104 0.27431 0.0
H612 H 0.5669 0.5114 0.23979 0.0
H613 H 0.58695 0.53454 0.27307 0.0
H614 H 0.54405 0.73438 0.37163 0.0
H615 H 0.54225 0.51242 0.20108 0.0
H616 H 0.49439 0.75891 0.30373 0.0
H617 H 0.46948 0.73602 0.27379 0.0
N618 N 0.4963 0.68774 0.30233 0.0
C619 C 0.50884 0.7 0.3201 0.0
C620 C 0.4814 0.70041 0.28658 0.0
C621 C 0.49496 0.73897 0.30364 0.0
C622 C 0.48098 0.72612 0.28661 0.0
C623 C 0.50866 0.72597 0.32102 0.0
H624 H 0.5219 0.7581 0.34029 0.0
N625 N 0.52219 0.66166 0.33635 0.0
C626 C 0.52156 0.68663 0.33789 0.0
C627 C 0.54648 0.68473 0.37442 0.0
C628 C 0.53414 0.69885 0.3568 0.0
C629 C 0.53348 0.6477 0.35386 0.0
C630 C 0.54602 0.65905 0.37303 0.0
O631 O 0.5091 0.60475 0.24753 0.0
O632 O 0.48302 0.61611 0.27982 0.0
O633 O 0.48476 0.62671 0.33766 0.0
O634 O 0.46372 0.65531 0.32008 0.0
O635 O 0.52265 0.65738 0.24516 0.0
O636 O 0.4861 0.65257 0.266 0.0
O637 O 0.53971 0.6531 0.30436 0.0
O638 O 0.54594 0.66207 0.26442 0.0
O639 O 0.56763 0.63611 0.21836 0.0
O640 O 0.58612 0.62507 0.25156 0.0
O641 O 0.51462 0.60623 0.30663 0.0
O642 O 0.55275 0.61116 0.28902 0.0
C643 C 0.48837 0.60326 0.26001 0.0
C644 C 0.4986 0.65853 0.2461 0.0
C645 C 0.44202 0.62457 0.34203 0.0
C646 C 0.41388 0.60467 0.3708 0.0
C647 C 0.40773 0.60093 0.32679 0.0
C648 C 0.42833 0.61541 0.32239 0.0
C649 C 0.40056 0.59553 0.35076 0.0
C650 C 0.43466 0.61932 0.36623 0.0
C651 C 0.46436 0.63903 0.33762 0.0
C652 C 0.53427 0.72467 0.35738 0.0
C653 C 0.52171 0.73817 0.33948 0.0
H654 H 0.55638 0.69347 0.3892 0.0
C655 C 0.54982 0.66687 0.28747 0.0
C656 C 0.53723 0.59887 0.30293 0.0
C657 C 0.60748 0.61988 0.21405 0.0
C658 C 0.64278 0.62194 0.1864 0.0
C659 C 0.62567 0.58234 0.1983 0.0
C660 C 0.60796 0.59415 0.21239 0.0
C661 C 0.64299 0.59605 0.18547 0.0
C662 C 0.62496 0.63378 0.201 0.0
C663 C 0.58864 0.63237 0.22891 0.0
H664 H 0.39725 0.59388 0.31154 0.0
H665 H 0.43361 0.61942 0.30369 0.0
H666 H 0.38434 0.58446 0.35364 0.0
H667 H 0.44532 0.62628 0.38143 0.0
H668 H 0.62598 0.56245 0.19733 0.0
H669 H 0.59472 0.58311 0.22195 0.0
H670 H 0.65673 0.58628 0.17496 0.0
H671 H 0.62438 0.6537 0.20192 0.0
C672 C 0.21979 0.5356 0.1927 0.0
C673 C 0.24673 0.57085 0.18861 0.0
C674 C 0.23364 0.55126 0.17802 0.0
C675 C 0.24569 0.57451 0.21403 0.0
C676 C 0.21818 0.53965 0.21815 0.0
C677 C 0.23139 0.55902 0.22874 0.0
N678 N 0.2075 0.51673 0.18204 0.0
C679 C 0.19146 0.50287 0.19531 0.0
C680 C 0.203 0.52437 0.23214 0.0
C681 C 0.18929 0.50613 0.22059 0.0
Gd682 Gd 0.25612 0.45625 0.1169 0.0
Gd683 Gd 0.21264 0.51281 0.13966 0.0
N684 N 0.23454 0.54713 0.15345 0.0
C685 C 0.26057 0.58615 0.17333 0.0
C686 C 0.24717 0.56259 0.13838 0.0
C687 C 0.26067 0.58208 0.1481 0.0
H688 H 0.24665 0.56017 0.11888 0.0
H689 H 0.27108 0.59403 0.13618 0.0
H690 H 0.22187 0.4102 0.13722 0.0
H691 H 0.1797 0.4898 0.18638 0.0
H692 H 0.19729 0.37599 0.12012 0.0
H693 H 0.27101 0.60131 0.18077 0.0
H694 H 0.25572 0.58941 0.22249 0.0
H695 H 0.28864 0.47969 0.06892 0.0
H696 H 0.20121 0.52693 0.25172 0.0
H697 H 0.17677 0.49484 0.23108 0.0
H698 H 0.2067 0.38483 0.03304 0.0
H699 H 0.2305 0.5623 0.24828 0.0
H700 H 0.26106 0.4472 1.0035 0.0
H701 H 0.28843 0.47677 0.02411 0.0
N702 N 0.25953 0.45401 0.07394 0.0
C703 C 0.24551 0.43652 0.06305 0.0
C704 C 0.27563 0.46758 0.06033 0.0
C705 C 0.26058 0.44883 0.02326 0.0
C706 C 0.27598 0.46561 0.03482 0.0
C707 C 0.24553 0.43359 0.0374 0.0
H708 H 0.23073 0.41281 1.00703 0.0
N709 N 0.23188 0.42416 0.10228 0.0
C710 C 0.23178 0.42077 0.07766 0.0
C711 C 0.20524 0.3856 0.08261 0.0
C712 C 0.21802 0.40165 0.06711 0.0
C713 C 0.22054 0.40789 0.11761 0.0
C714 C 0.20674 0.38857 0.10799 0.0
O715 O 0.24845 0.50555 0.16058 0.0
O716 O 0.27581 0.48857 0.13286 0.0
O717 O 0.27175 0.4295 0.14208 0.0
O718 O 0.28867 0.4355 0.10687 0.0
O719 O 0.23242 0.51893 0.10375 0.0
O720 O 0.26762 0.4945 0.10344 0.0
O721 O 0.21534 0.45731 0.11006 0.0
O722 O 0.20855 0.49752 0.10154 0.0
O723 O 0.19269 0.54627 0.13082 0.0
O724 O 0.17282 0.51338 0.14108 0.0
O725 O 0.24133 0.45675 0.15544 0.0
O726 O 0.20306 0.47406 0.15162 0.0
C727 C 0.27095 0.50181 0.15242 0.0
C728 C 0.25495 0.51416 0.09645 0.0
C729 C 0.31394 0.42119 0.13901 0.0
C730 C 0.34628 0.39454 0.15504 0.0
C731 C 0.3513 0.43907 0.15475 0.0
C732 C 0.32817 0.44193 0.14426 0.0
C733 C 0.36038 0.41556 0.16002 0.0
C734 C 0.32292 0.39757 0.14462 0.0
C735 C 0.28975 0.42371 0.1276 0.0
C736 C 0.21745 0.39918 0.04153 0.0
C737 C 0.23108 0.41518 0.02672 0.0
H738 H 0.19444 0.37069 0.0752 0.0
C739 C 0.20518 0.4743 0.0965 0.0
C740 C 0.21834 0.45858 0.16225 0.0
C741 C 0.15323 0.55193 0.1476 0.0
C742 C 0.11725 0.57886 0.14601 0.0
C743 C 0.13798 0.57093 0.18471 0.0
C744 C 0.155 0.55597 0.17285 0.0
C745 C 0.11923 0.58228 0.17147 0.0
C746 C 0.13432 0.56338 0.13421 0.0
C747 C 0.17129 0.53651 0.13473 0.0
H748 H 0.36226 0.45511 0.15877 0.0
H749 H 0.32141 0.46024 0.14017 0.0
H750 H 0.37833 0.41382 0.16826 0.0
H751 H 0.31189 0.38155 0.14048 0.0
H752 H 0.13937 0.57383 0.20426 0.0
H753 H 0.16953 0.54772 0.18341 0.0
H754 H 0.10618 0.59365 0.18124 0.0
H755 H 0.13325 0.56064 0.11459 0.0
C756 C 0.71257 0.9829 0.81428 0.0
C757 C 0.73558 0.94469 0.81209 0.0
C758 C 0.72623 0.96464 0.82564 0.0
C759 C 0.73242 0.94428 0.78658 0.0
C760 C 0.70795 0.98168 0.78892 0.0
C761 C 0.71868 0.96279 0.775 0.0
N762 N 0.7018 1.00038 0.82843 0.0
C763 C 0.68383 0.01505 0.81894 0.0
C764 C 0.69157 0.99865 0.7786 0.0
C765 C 0.67899 0.015 0.79381 0.0
Gd766 Gd 0.76328 0.05296 0.8884 0.0
Gd767 Gd 0.71267 1.00012 0.87008 0.0
N768 N 0.72893 0.96556 0.85031 0.0
C769 C 0.74689 0.92527 0.82475 0.0
C770 C 0.73834 0.94599 0.86295 0.0
C771 C 0.74781 0.9257 0.85034 0.0
H772 H 0.73892 0.9464 0.8827 0.0
H773 H 0.75586 0.91047 0.86034 0.0
H774 H 0.73366 0.09957 0.85857 0.0
H775 H 0.67302 0.02664 0.83081 0.0
H776 H 0.70638 0.13393 0.86903 0.0
H777 H 0.75423 0.90955 0.81501 0.0
H778 H 0.73976 0.92929 0.77576 0.0
H779 H 0.78747 0.03349 0.94069 0.0
H780 H 0.68751 0.99836 0.75919 0.0
H781 H 0.66523 0.02722 0.78629 0.0
H782 H 0.7078 0.13634 0.95678 0.0
H783 H 0.71558 0.96173 0.75544 0.0
H784 H 0.75932 0.07839 0.99874 0.0
H785 H 0.78543 0.04384 0.98479 0.0
N786 N 0.76267 0.06175 0.9302 0.0
C787 C 0.74905 0.08146 0.93726 0.0
C788 C 0.77609 0.0486 0.94673 0.0
C789 C 0.7603 0.07405 0.97941 0.0
C790 C 0.77501 0.05446 0.97163 0.0
C791 C 0.74712 0.08786 0.96217 0.0
H792 H 0.73005 0.11263 0.98814 0.0
N793 N 0.73894 0.08816 0.89554 0.0
C794 C 0.73644 0.09473 0.91948 0.0
C795 C 0.71014 0.12863 0.90793 0.0
C796 C 0.72168 0.11491 0.92633 0.0
C797 C 0.72934 0.10273 0.87753 0.0
C798 C 0.71435 0.12277 0.88342 0.0
O799 O 0.75225 0.994 0.8584 0.0
O800 O 0.76446 0.03347 0.85214 0.0
O801 O 0.78475 0.08589 0.88048 0.0
O802 O 0.80301 0.05178 0.89173 0.0
O803 O 0.73646 0.99372 0.9036 0.0
O804 O 0.77401 0.01397 0.89983 0.0
O805 O 0.73441 0.03927 0.91474 0.0
O806 O 0.70118 0.03472 0.89003 0.0
O807 O 0.69539 0.97897 0.8992 0.0
O808 O 0.67762 0.98222 0.86425 0.0
O809 O 0.74376 0.05662 0.85194 0.0
O810 O 0.70549 0.03988 0.85873 0.0
C811 C 0.76837 0.00983 0.85003 0.0
C812 C 0.76041 0.99505 0.90702 0.0
C813 C 0.82936 0.08721 0.88349 0.0
C814 C 0.8551 0.12201 0.87091 0.0
C815 C 0.8733 0.08584 0.89004 0.0
C816 C 0.85036 0.07487 0.89188 0.0
C817 C 0.87571 0.10913 0.87959 0.0
C818 C 0.83177 0.11106 0.87321 0.0
C819 C 0.80531 0.07478 0.88526 0.0
C820 C 0.71924 0.12103 0.9512 0.0
C821 C 0.73198 0.10758 0.96906 0.0
H822 H 0.69862 0.14425 0.91243 0.0
C823 C 0.71072 0.04073 0.91122 0.0
C824 C 0.72046 0.05408 0.84612 0.0
C825 C 0.65232 0.97858 0.89883 0.0
C826 C 0.61419 0.96322 0.91654 0.0
C827 C 0.62326 0.00708 0.91682 0.0
C828 C 0.64533 1.00265 0.90479 0.0
C829 C 0.60778 0.98755 0.9227 0.0
C830 C 0.63664 0.95887 0.90451 0.0
C831 C 0.67586 0.9741 0.88655 0.0
H832 H 0.88935 0.07618 0.89665 0.0
H833 H 0.84909 0.05666 0.8999 0.0
H834 H 0.89379 0.1172 0.87839 0.0
H835 H 0.81577 0.12076 0.86649 0.0
H836 H 0.61802 0.02573 0.92143 0.0
H837 H 0.65692 0.01796 0.89994 0.0
H838 H 0.59054 0.99155 0.93167 0.0
H839 H 0.642 0.94024 0.89979 0.0
C840 C 0.78252 0.04342 0.32347 0.0
C841 C 0.76246 0.08117 0.33604 0.0
C842 C 0.77406 0.05872 0.34193 0.0
C843 C 0.75865 0.08746 0.31135 0.0
C844 C 0.77959 0.05006 0.29868 0.0
C845 C 0.76725 0.07198 0.29272 0.0
N846 N 0.7938 0.02204 0.32984 0.0
C847 C 0.80449 0.00757 0.31249 0.0
C848 C 0.78931 0.03453 0.28068 0.0
C849 C 0.80212 0.01336 0.28765 0.0
Gd850 Gd 0.75342 0.95711 0.39514 0.0
Gd851 Gd 0.7968 0.01367 0.37182 0.0
N852 N 0.77818 0.05216 0.3656 0.0
C853 C 0.75578 0.09698 0.35513 0.0
C854 C 0.77343 0.06829 0.38406 0.0
C855 C 0.76181 0.09073 0.37921 0.0
H856 H 0.77944 0.06426 0.40239 0.0
H857 H 0.75798 0.10339 0.39399 0.0
H858 H 0.78765 0.91027 0.37667 0.0
H859 H 0.81525 0.99182 0.31774 0.0
H860 H 0.81215 0.87644 0.39507 0.0
H861 H 0.74689 0.11444 0.35139 0.0
H862 H 0.74957 0.10454 0.30647 0.0
H863 H 0.72084 0.98224 0.44219 0.0
H864 H 0.7875 0.03899 0.26142 0.0
H865 H 0.81037 1.00162 0.27392 0.0
H866 H 0.80338 0.88872 0.48177 0.0
H867 H 0.76459 0.07728 0.27377 0.0
H868 H 0.74886 0.95227 0.50885 0.0
H869 H 0.72122 0.98101 0.48709 0.0
N870 N 0.7501 0.95641 0.43817 0.0
C871 C 0.76427 0.93936 0.44975 0.0
C872 C 0.73396 0.97047 0.45125 0.0
C873 C 0.74928 0.95316 0.48904 0.0
C874 C 0.73371 0.96946 0.47682 0.0
C875 C 0.76438 0.93741 0.47551 0.0
H876 H 0.77951 0.91785 0.50668 0.0
N877 N 0.77773 0.9255 0.41104 0.0
C878 C 0.77796 0.92303 0.43577 0.0
C879 C 0.8044 0.88748 0.43219 0.0
C880 C 0.79178 0.90423 0.44707 0.0
C881 C 0.78903 0.90863 0.39635 0.0
C882 C 0.80278 0.88953 0.40671 0.0
O883 O 0.76186 1.0054 0.34987 0.0
O884 O 0.73411 0.98893 0.3775 0.0
O885 O 0.73852 0.92904 0.37122 0.0
O886 O 0.72041 0.9372 0.40533 0.0
O887 O 0.77708 0.01886 0.40812 0.0
O888 O 0.74132 0.99576 0.40675 0.0
O889 O 0.79422 0.95862 0.40188 0.0
O890 O 0.80076 0.9989 0.41033 0.0
O891 O 0.82214 0.04414 0.37724 0.0
O892 O 0.83574 0.00886 0.3653 0.0
O893 O 0.76836 0.95655 0.35671 0.0
O894 O 0.80618 0.97498 0.35947 0.0
C895 C 0.73923 1.00201 0.35783 0.0
C896 C 0.7538 0.01545 0.41364 0.0
C897 C 0.69616 0.92174 0.37294 0.0
C898 C 0.66493 0.89526 0.35467 0.0
C899 C 0.66019 0.93991 0.35425 0.0
C900 C 0.68248 0.94256 0.36638 0.0
C901 C 0.65143 0.91651 0.34846 0.0
C902 C 0.68739 0.89814 0.36707 0.0
C903 C 0.71992 0.9243 0.38529 0.0
C904 C 0.79255 0.90278 0.47272 0.0
C905 C 0.779 0.91942 0.48691 0.0
H906 H 0.81522 0.87277 0.44017 0.0
C907 C 0.80421 0.9756 0.41548 0.0
C908 C 0.79128 0.95867 0.34977 0.0
C909 C 0.86059 0.03158 0.39258 0.0
C910 C 0.8939 0.05295 0.41367 0.0
C911 C 0.87948 0.01331 0.42859 0.0
C912 C 0.86251 0.01229 0.40964 0.0
C913 C 0.89503 0.03346 0.43066 0.0
C914 C 0.87654 0.05189 0.39451 0.0
C915 C 0.84147 0.03066 0.3734 0.0
H916 H 0.64963 0.95607 0.34934 0.0
H917 H 0.68907 0.9608 0.37065 0.0
H918 H 0.63391 0.91506 0.33934 0.0
H919 H 0.69829 0.88211 0.37178 0.0
H920 H 0.88067 0.99835 0.44167 0.0
H921 H 0.85095 0.9963 0.40823 0.0
H922 H 0.90832 0.03357 0.44536 0.0
H923 H 0.87524 0.06686 0.38142 0.0
C924 C 0.21726 0.54184 0.57528 0.0
C925 C 0.17833 0.52269 0.58502 0.0
C926 C 0.20104 0.53235 0.59246 0.0
C927 C 0.17224 0.52257 0.56004 0.0
C928 C 0.21088 0.54244 0.55028 0.0
C929 C 0.18844 0.53247 0.54273 0.0
N930 N 0.23905 0.55098 0.58312 0.0
C931 C 0.25388 0.56344 0.56729 0.0
C932 C 0.22703 0.55349 0.53368 0.0
C933 C 0.24842 0.56443 0.54231 0.0
Gd934 Gd 0.30263 0.50119 0.64467 0.0
Gd935 Gd 0.24642 0.54814 0.62545 0.0
N936 N 0.20757 0.53246 0.61648 0.0
C937 C 0.16241 0.51348 0.60293 0.0
C938 C 0.19178 0.52447 0.63407 0.0
C939 C 0.1691 0.51457 0.6276 0.0
H940 H 0.19647 0.52626 0.6531 0.0
H941 H 0.15672 0.50798 0.64163 0.0
H942 H 0.34921 0.5348 0.62459 0.0
H943 H 0.2693 0.57363 0.57393 0.0
H944 H 0.38521 0.55622 0.64201 0.0
H945 H 0.14482 0.50584 0.59796 0.0
H946 H 0.15492 0.51511 0.55394 0.0
H947 H 0.27415 0.47278 0.69325 0.0
H948 H 0.22276 0.55442 0.51433 0.0
H949 H 0.26047 0.57407 0.52982 0.0
H950 H 0.37693 0.54454 0.72877 0.0
H951 H 0.18331 0.53261 0.52357 0.0
H952 H 0.30937 0.49718 0.75827 0.0
H953 H 0.27688 0.47332 0.73787 0.0
N954 N 0.30276 0.49902 0.68777 0.0
C955 C 0.32172 0.51111 0.69859 0.0
C956 C 0.28745 0.48469 0.70156 0.0
C957 C 0.3078 0.49773 0.7385 0.0
C958 C 0.28935 0.48436 0.72706 0.0
C959 C 0.32464 0.51083 0.72427 0.0
H960 H 0.34695 0.5231 0.75464 0.0
N961 N 0.33531 0.52418 0.65935 0.0
C962 C 0.33877 0.52341 0.68399 0.0
C963 C 0.37574 0.54737 0.67934 0.0
C964 C 0.35897 0.53536 0.69467 0.0
C965 C 0.35188 0.53521 0.6442 0.0
C966 C 0.37223 0.54719 0.65399 0.0
O967 O 0.24532 0.51135 0.60568 0.0
O968 O 0.27561 0.48375 0.61914 0.0
O969 O 0.33369 0.48623 0.62474 0.0
O970 O 0.31867 0.4661 0.65534 0.0
O971 O 0.24365 0.52508 0.65993 0.0
O972 O 0.26431 0.48827 0.65469 0.0
O973 O 0.30239 0.54217 0.65311 0.0
O974 O 0.26269 0.54817 0.66314 0.0
O975 O 0.21737 0.57207 0.63868 0.0
O976 O 0.25014 0.58795 0.62314 0.0
O977 O 0.30236 0.51673 0.60652 0.0
O978 O 0.285 0.55526 0.61122 0.0
C979 C 0.25651 0.48978 0.6056 0.0
C980 C 0.24484 0.50092 0.66164 0.0
C981 C 0.3379 0.44323 0.62383 0.0
C982 C 0.36528 0.41352 0.60422 0.0
C983 C 0.32103 0.40849 0.6019 0.0
C984 C 0.31762 0.42983 0.61567 0.0
C985 C 0.34465 0.40036 0.59619 0.0
C986 C 0.36166 0.43502 0.61813 0.0
C987 C 0.33471 0.46617 0.63769 0.0
C988 C 0.36165 0.53526 0.72021 0.0
C989 C 0.3445 0.52313 0.73495 0.0
H990 H 0.39146 0.55678 0.68688 0.0
C991 C 0.28582 0.55252 0.66707 0.0
C992 C 0.29945 0.53968 0.59954 0.0
C993 C 0.2131 0.61073 0.61957 0.0
C994 C 0.18555 0.64634 0.62148 0.0
C995 C 0.19517 0.62718 0.58236 0.0
C996 C 0.21004 0.60996 0.59412 0.0
C997 C 0.18304 0.64524 0.59585 0.0
C998 C 0.20085 0.62899 0.63324 0.0
C999 C 0.22839 0.59223 0.63216 0.0
H1000 H 0.30532 0.39818 0.59565 0.0
H1001 H 0.2992 0.4359 0.6199 0.0
H1002 H 0.34676 0.38358 0.58573 0.0
H1003 H 0.3773 0.44563 0.62419 0.0
H1004 H 0.19303 0.62652 0.56267 0.0
H1005 H 0.21909 0.59611 0.58329 0.0
H1006 H 0.17185 0.65853 0.58615 0.0
H1007 H 0.2029 0.62938 0.65297 0.0
H1008 H 0.20624 0.28646 0.49827 0.0
H1009 H 0.22176 0.32484 0.51597 0.0
H1010 H 0.15438 0.33327 0.55654 0.0
H1011 H 0.13973 0.29432 0.53994 0.0
H1012 H 0.20638 0.36894 0.51065 0.0
H1013 H 0.19999 0.34863 0.60983 0.0
H1014 H 0.19603 0.32511 0.587 0.0
H1015 H 0.17101 0.34528 0.59497 0.0
C1016 C 0.19521 0.29622 0.51161 0.0
C1017 C 0.17219 0.28719 0.51844 0.0
C1018 C 0.20392 0.31821 0.52155 0.0
C1019 C 0.18952 0.33183 0.5381 0.0
C1020 C 0.16636 0.32275 0.54472 0.0
H1021 H 0.208 0.47902 0.60034 0.0
H1022 H 0.19039 0.44169 0.58232 0.0
C1023 C 0.15795 0.30044 0.53526 0.0
C1024 C 0.19817 0.35616 0.54716 0.0
H1025 H 0.20663 0.39059 0.5988 0.0
C1026 C 0.20657 0.37352 0.52996 0.0
C1027 C 0.19835 0.36236 0.57238 0.0
C1028 C 0.19109 0.34425 0.59209 0.0
C1029 C 0.21516 0.39671 0.53724 0.0
C1030 C 0.21508 0.40289 0.56232 0.0
C1031 C 0.20639 0.38582 0.57953 0.0
C1032 C 0.2253 0.42645 0.57121 0.0
C1033 C 0.22431 0.41452 0.5181 0.0
C1034 C 0.25067 0.43031 0.57064 0.0
C1035 C 0.26067 0.4516 0.58076 0.0
C1036 C 0.24549 0.46946 0.59156 0.0
C1037 C 0.22003 0.46592 0.59151 0.0
C1038 C 0.21001 0.44447 0.58152 0.0
H1039 H 0.21899 0.40889 0.4993 0.0
H1040 H 0.21713 0.43332 0.52165 0.0
H1041 H 0.24459 0.41535 0.51896 0.0
H1042 H 0.26279 0.41649 0.56301 0.0
H1043 H 0.28036 0.45387 0.58066 0.0
H1044 H 0.7828 0.96238 0.84132 0.0
H1045 H 0.82306 0.94763 0.82856 0.0
H1046 H 0.84955 0.02228 0.82701 0.0
H1047 H 0.80918 0.03721 0.83962 0.0
H1048 H 0.84926 0.96114 0.78513 0.0
H1049 H 0.90016 0.98417 0.86996 0.0
H1050 H 0.86718 0.98198 0.86899 0.0
H1051 H 0.88222 0.00884 0.85715 0.0
C1052 C 0.79708 0.97568 0.83821 0.0
C1053 C 0.79262 1.00096 0.84144 0.0
C1054 C 0.82015 0.96721 0.83098 0.0
C1055 C 0.83937 0.98383 0.82714 0.0
C1056 C 0.83505 0.00911 0.83023 0.0
H1057 H 0.97103 0.95471 0.74296 0.0
H1058 H 0.93327 0.97194 0.75997 0.0
C1059 C 0.81188 0.01761 0.83726 0.0
C1060 C 0.8637 0.97475 0.81909 0.0
H1061 H 0.92383 0.97108 0.83589 0.0
C1062 C 0.86557 0.96324 0.79623 0.0
C1063 C 0.88485 0.97725 0.83376 0.0
C1064 C 0.88361 0.98854 0.85894 0.0
C1065 C 0.88812 0.95457 0.78737 0.0
C1066 C 0.90953 0.95779 0.80167 0.0
C1067 C 0.90752 0.96882 0.82482 0.0
C1068 C 0.93407 0.94972 0.79292 0.0
C1069 C 0.88857 0.94192 0.76279 0.0
C1070 C 0.94802 0.93275 0.80655 0.0
C1071 C 0.97002 0.92336 0.79712 0.0
C1072 C 0.97823 0.93067 0.77385 0.0
C1073 C 0.96504 0.94874 0.76094 0.0
C1074 C 0.94332 0.95836 0.7705 0.0
H1075 H 0.87065 0.93328 0.75861 0.0
H1076 H 0.8923 0.95579 0.74832 0.0
H1077 H 0.90298 0.92757 0.76189 0.0
H1078 H 0.94136 0.92594 0.82398 0.0
H1079 H 0.97969 0.90925 0.8073 0.0
H1080 H 0.34511 0.72768 0.05135 0.0
H1081 H 0.32905 0.68876 0.06736 0.0
H1082 H 0.31481 0.66441 0.99365 0.0
H1083 H 0.33076 0.70321 0.97766 0.0
H1084 H 0.28466 0.66451 0.06268 0.0
H1085 H 0.35944 0.6103 0.02021 0.0
H1086 H 0.36012 0.64347 0.02201 0.0
H1087 H 0.34268 0.62849 0.99846 0.0
C1088 C 0.3379 0.71435 0.03865 0.0
C1089 C 0.33923 0.71848 0.01328 0.0
C1090 C 0.32902 0.69197 0.04778 0.0
C1091 C 0.32137 0.67343 0.03164 0.0
C1092 C 0.32126 0.67817 1.00639 0.0
H1093 H 0.23361 0.54599 0.06453 0.0
H1094 H 0.25096 0.58418 0.04857 0.0
C1095 C 0.3302 0.70043 0.9973 0.0
C1096 C 0.31375 0.64899 0.04103 0.0
H1097 H 0.32567 0.58741 0.03614 0.0
C1098 C 0.29372 0.64766 0.05703 0.0
C1099 C 0.32586 0.62704 0.03395 0.0
C1100 C 0.34838 0.62735 0.01791 0.0
C1101 C 0.2849 0.62492 0.06547 0.0
C1102 C 0.29623 0.60288 0.05737 0.0
C1103 C 0.31681 0.60427 0.04207 0.0
C1104 C 0.28678 0.57828 0.06443 0.0
C1105 C 0.26353 0.62485 0.08299 0.0
C1106 C 0.30167 0.56142 0.07715 0.0
C1107 C 0.2919 0.53925 0.08587 0.0
C1108 C 0.26708 0.53377 0.08215 0.0
C1109 C 0.25277 0.54985 0.06787 0.0
C1110 C 0.26257 0.57181 0.05898 0.0
H1111 H 0.26259 0.64222 0.09365 0.0
H1112 H 0.24628 0.62322 0.07241 0.0
H1113 H 0.26459 0.60917 0.09596 0.0
H1114 H 0.32052 0.56591 0.08128 0.0
H1115 H 0.30333 0.52723 0.0968 0.0
H1116 H 0.53546 0.10637 0.30436 0.0
H1117 H 0.57441 0.08965 0.31974 0.0
H1118 H 0.58805 0.05595 0.24965 0.0
H1119 H 0.54938 0.07236 0.23425 0.0
H1120 H 0.59656 0.02481 0.29194 0.0
H1121 H 0.64355 0.11533 0.29726 0.0
H1122 H 0.61392 0.11345 0.31158 0.0
H1123 H 0.61646 0.11049 0.27897 0.0
C1124 C 0.5466 0.09507 0.2924 0.0
C1125 C 0.53936 0.09067 0.26813 0.0
C1126 C 0.56894 0.08579 0.30109 0.0
C1127 C 0.58424 0.0719 0.28567 0.0
C1128 C 0.57659 0.06677 0.26176 0.0
H1129 H 0.7367 0.02402 0.3119 0.0
H1130 H 0.70025 0.04216 0.29235 0.0
C1131 C 0.55445 0.07614 0.25304 0.0
C1132 C 0.60823 0.06252 0.29431 0.0
H1133 H 0.66514 0.08068 0.31277 0.0
C1134 C 0.61159 0.037 0.29639 0.0
C1135 C 0.62791 0.07848 0.29967 0.0
C1136 C 0.62551 0.10598 0.29662 0.0
C1137 C 0.63389 0.02703 0.30448 0.0
C1138 C 0.6533 0.043 0.31072 0.0
C1139 C 0.65023 0.0685 0.30792 0.0
C1140 C 0.67589 0.03353 0.32244 0.0
C1141 C 0.6364 0.99944 0.30667 0.0
C1142 C 0.67432 0.02328 0.34588 0.0
C1143 C 0.69499 0.01344 0.35711 0.0
C1144 C 0.71792 0.01351 0.34524 0.0
C1145 C 0.71957 0.02411 0.32177 0.0
C1146 C 0.69871 0.03426 0.31052 0.0
H1147 H 0.62275 0.98972 0.29518 0.0
H1148 H 0.65504 0.99327 0.3013 0.0
H1149 H 0.6333 0.99396 0.32601 0.0
H1150 H 0.65697 0.02276 0.3555 0.0
H1151 H 0.69276 1.00558 0.37519 0.0
H1152 H 0.63451 0.21417 0.46835 0.0
H1153 H 0.64953 0.174 0.45438 0.0
H1154 H 0.71764 0.18624 0.49247 0.0
H1155 H 0.70174 0.22549 0.50788 0.0
H1156 H 0.68424 0.15764 0.42785 0.0
H1157 H 0.70138 0.12233 0.52109 0.0
H1158 H 0.69006 0.15305 0.51629 0.0
H1159 H 0.7223 0.1467 0.51431 0.0
C1160 C 0.65282 0.20833 0.47334 0.0
C1161 C 0.66708 0.22273 0.48904 0.0
C1162 C 0.66137 0.18534 0.46552 0.0
C1163 C 0.68449 0.1766 0.47297 0.0
C1164 C 0.6994 0.192 0.48723 0.0
H1165 H 0.7729 0.04794 0.44624 0.0
H1166 H 0.7544 0.08636 0.46025 0.0
C1167 C 0.69053 0.2146 0.49569 0.0
C1168 C 0.69287 0.15144 0.46584 0.0
H1169 H 0.71759 0.09802 0.48813 0.0
C1170 C 0.69134 0.14455 0.4411 0.0
C1171 C 0.70219 0.13418 0.48307 0.0
C1172 C 0.70381 0.13943 0.51015 0.0
C1173 C 0.69947 0.12139 0.43297 0.0
C1174 C 0.70909 0.10433 0.45017 0.0
C1175 C 0.71027 0.11105 0.47493 0.0
C1176 C 0.71937 0.08001 0.44288 0.0
C1177 C 0.69821 0.11585 0.40594 0.0
C1178 C 0.70556 0.06299 0.42937 0.0
C1179 C 0.71627 0.04107 0.42111 0.0
C1180 C 0.7409 0.03573 0.42636 0.0
C1181 C 0.754 0.05178 0.44157 0.0
C1182 C 0.74343 0.07377 0.44955 0.0
H1183 H 0.69783 0.13297 0.39477 0.0
H1184 H 0.71391 0.10445 0.39987 0.0
H1185 H 0.68113 0.10556 0.40211 0.0
H1186 H 0.68669 0.06691 0.42472 0.0
H1187 H 0.70562 0.02889 0.40972 0.0
H1188 H 0.0569 0.42421 0.78258 0.0
H1189 H 0.09681 0.43773 0.7672 0.0
H1190 H 0.07325 0.42409 0.69318 0.0
H1191 H 0.03358 0.41031 0.70835 0.0
H1192 H 0.13176 0.41178 0.73714 0.0
H1193 H 0.09636 0.49662 0.69224 0.0
H1194 H 0.07888 0.47966 0.71468 0.0
H1195 H 0.08108 0.46867 0.68377 0.0
C1196 C 0.06017 0.4241 0.76302 0.0
C1197 C 0.04184 0.41642 0.74668 0.0
C1198 C 0.08302 0.4318 0.75427 0.0
C1199 C 0.08787 0.43225 0.72903 0.0
C1200 C 0.06975 0.42431 0.71271 0.0
H1201 H 0.22742 0.45463 0.65311 0.0
H1202 H 0.19003 0.43621 0.67021 0.0
C1203 C 0.04701 0.41648 0.72144 0.0
C1204 C 0.11179 0.44121 0.71972 0.0
H1205 H 0.13802 0.48676 0.68546 0.0
C1206 C 0.13317 0.42816 0.72583 0.0
C1207 C 0.11356 0.46267 0.70511 0.0
C1208 C 0.09131 0.47789 0.69868 0.0
C1209 C 0.15629 0.43595 0.71756 0.0
C1210 C 0.15799 0.45725 0.70273 0.0
C1211 C 0.13662 0.47033 0.69672 0.0
C1212 C 0.18182 0.46695 0.69401 0.0
C1213 C 0.17878 0.42169 0.7251 0.0
C1214 C 0.18973 0.49011 0.70196 0.0
C1215 C 0.21105 0.5005 0.69241 0.0
C1216 C 0.22468 0.4881 0.6744 0.0
C1217 C 0.21734 0.46447 0.66711 0.0
C1218 C 0.19597 0.454 0.67679 0.0
H1219 H 0.17487 0.40854 0.7402 0.0
H1220 H 0.18572 0.41111 0.70917 0.0
H1221 H 0.19351 0.4344 0.73102 0.0
H1222 H 0.1791 0.50039 0.71524 0.0
H1223 H 0.21637 0.51869 0.69846 0.0
H1224 H 0.73824 0.95862 0.93314 0.0
H1225 H 0.75616 0.92019 0.94764 0.0
H1226 H 0.82703 0.94322 0.92162 0.0
H1227 H 0.80911 0.98198 0.90664 0.0
H1228 H 0.78177 0.88529 0.91653 0.0
H1229 H 0.83778 0.91964 0.99434 0.0
H1230 H 0.81274 0.93721 0.98152 0.0
H1231 H 0.84122 0.93502 0.96529 0.0
C1232 C 0.75771 0.95575 0.93069 0.0
C1233 C 0.77225 0.97343 0.9187 0.0
C1234 C 0.76789 0.93369 0.93895 0.0
C1235 C 0.79288 0.92887 0.93572 0.0
C1236 C 0.80771 0.94672 0.92447 0.0
H1237 H 0.85876 0.7825 0.95589 0.0
H1238 H 0.84556 0.82181 0.93802 0.0
C1239 C 0.79748 0.96888 0.91603 0.0
C1240 C 0.8029 0.90471 0.94349 0.0
H1241 H 0.83874 0.87696 0.98674 0.0
C1242 C 0.79441 0.88343 0.93173 0.0
C1243 C 0.81917 0.90242 0.96346 0.0
C1244 C 0.82823 0.92471 0.97709 0.0
C1245 C 0.80153 0.85985 0.93963 0.0
C1246 C 0.81768 0.85755 0.9597 0.0
C1247 C 0.82642 0.87884 0.97128 0.0
C1248 C 0.82475 0.8332 0.96979 0.0
C1249 C 0.79111 0.83755 0.92702 0.0
C1250 C 0.81724 0.82651 0.99344 0.0
C1251 C 0.82456 0.80405 1.00359 0.0
C1252 C 0.83984 0.78799 0.9904 0.0
C1253 C 0.8468 0.79439 0.96642 0.0
C1254 C 0.83938 0.81688 0.95623 0.0
H1255 H 0.77555 0.84238 0.91483 0.0
H1256 H 0.8056 0.82877 0.91575 0.0
H1257 H 0.78478 0.8238 0.9407 0.0
H1258 H 0.80589 0.83883 1.00416 0.0
H1259 H 0.81887 0.79961 0.02209 0.0
H1260 H 0.47921 0.59224 0.21183 0.0
H1261 H 0.442 0.57383 0.19488 0.0
H1262 H 0.41305 0.56489 0.26779 0.0
H1263 H 0.45056 0.58229 0.28484 0.0
H1264 H 0.41701 0.52381 0.21136 0.0
H1265 H 0.36287 0.60978 0.22475 0.0
H1266 H 0.39578 0.61006 0.22138 0.0
H1267 H 0.38229 0.59941 0.24938 0.0
C1268 C 0.46529 0.58571 0.22426 0.0
C1269 C 0.46786 0.58882 0.24967 0.0
C1270 C 0.4439 0.57546 0.21455 0.0
C1271 C 0.42468 0.56838 0.23011 0.0
C1272 C 0.42757 0.57055 0.25549 0.0
H1273 H 0.27399 0.52098 0.19929 0.0
H1274 H 0.31079 0.53719 0.21949 0.0
C1275 C 0.44899 0.58054 0.26517 0.0
C1276 C 0.40136 0.55909 0.21992 0.0
H1277 H 0.34185 0.57537 0.20918 0.0
C1278 C 0.40056 0.53503 0.21084 0.0
C1279 C 0.37992 0.57372 0.21965 0.0
C1280 C 0.38006 0.59975 0.22918 0.0
C1281 C 0.37879 0.52513 0.20147 0.0
C1282 C 0.35741 0.54 0.20046 0.0
C1283 C 0.35818 0.56399 0.20993 0.0
C1284 C 0.33464 0.5314 0.18831 0.0
C1285 C 0.37889 0.49868 0.19309 0.0
C1286 C 0.33558 0.52362 0.1639 0.0
C1287 C 0.31481 0.51435 0.15249 0.0
C1288 C 0.29228 0.51303 0.16496 0.0
C1289 C 0.29099 0.5218 0.18913 0.0
C1290 C 0.31203 0.53097 0.20071 0.0
H1291 H 0.39327 0.48779 0.20262 0.0
H1292 H 0.36092 0.48975 0.19633 0.0
H1293 H 0.38295 0.49806 0.17318 0.0
H1294 H 0.35254 0.5245 0.15365 0.0
H1295 H 0.31659 0.50801 0.13381 0.0
H1296 H 0.53625 0.1989 0.26992 0.0
H1297 H 0.5541 0.21907 0.30615 0.0
H1298 H 0.51523 0.16871 0.35315 0.0
H1299 H 0.49793 0.14839 0.3175 0.0
H1300 H 0.51458 0.23226 0.35632 0.0
H1301 H 0.59883 0.17501 0.36617 0.0
H1302 H 0.58701 0.18364 0.33643 0.0
H1303 H 0.57117 0.16124 0.35456 0.0
C1304 C 0.53191 0.19194 0.28793 0.0
C1305 C 0.51568 0.1721 0.29079 0.0
C1306 C 0.54191 0.20357 0.30859 0.0
C1307 C 0.53584 0.19533 0.33225 0.0
C1308 C 0.52002 0.17535 0.33504 0.0
H1309 H 0.58297 0.21498 0.48167 0.0
H1310 H 0.56541 0.19999 0.44321 0.0
C1311 C 0.51007 0.16387 0.3146 0.0
C1312 C 0.54529 0.20748 0.3545 0.0
H1313 H 0.58865 0.20124 0.39902 0.0
C1314 C 0.53099 0.22584 0.36554 0.0
C1315 C 0.56633 0.19856 0.36662 0.0
C1316 C 0.5819 0.17855 0.35546 0.0
C1317 C 0.53692 0.2352 0.38875 0.0
C1318 C 0.55797 0.22619 0.40101 0.0
C1319 C 0.57246 0.20806 0.3897 0.0
C1320 C 0.56562 0.23564 0.42533 0.0
C1321 C 0.52006 0.25393 0.40029 0.0
C1322 C 0.57095 0.26069 0.42833 0.0
C1323 C 0.58039 0.26925 0.45043 0.0
C1324 C 0.5851 0.25294 0.46985 0.0
C1325 C 0.57891 0.22804 0.46728 0.0
C1326 C 0.56927 0.21943 0.44515 0.0
H1327 H 0.50143 0.25326 0.3922 0.0
H1328 H 0.51853 0.25099 0.42036 0.0
H1329 H 0.52748 0.27265 0.39705 0.0
H1330 H 0.56878 0.27349 0.41325 0.0
H1331 H 0.58498 0.28854 0.45206 0.0
H1332 H 0.12299 0.25625 0.56565 0.0
H1333 H 0.10329 0.2739 0.6012 0.0
H1334 H 0.0411 0.29479 0.55726 0.0
H1335 H 0.06061 0.27614 0.52104 0.0
H1336 H 0.06235 0.33277 0.59273 0.0
H1337 H 0.04155 0.24196 0.63457 0.0
H1338 H 0.07257 0.24536 0.62419 0.0
H1339 H 0.04802 0.24566 0.60232 0.0
C1340 C 0.10499 0.2643 0.56331 0.0
C1341 C 0.09332 0.26458 0.5403 0.0
C1342 C 0.09384 0.27455 0.58377 0.0
C1343 C 0.0707 0.28541 0.58192 0.0
C1344 C 0.05903 0.28641 0.55901 0.0
H1345 H 0.98524 0.32168 0.71129 0.0
H1346 H 0.99904 0.30699 0.67139 0.0
C1347 C 0.07022 0.27589 0.53832 0.0
C1348 C 0.05896 0.29506 0.60437 0.0
H1349 H 0.03931 0.27683 0.66092 0.0
C1350 C 0.05695 0.3206 0.60755 0.0
C1351 C 0.05205 0.27908 0.62365 0.0
C1352 C 0.05343 0.25147 0.62102 0.0
C1353 C 0.04884 0.33061 0.62987 0.0
C1354 C 0.04284 0.3146 0.64946 0.0
C1355 C 0.04413 0.28906 0.64595 0.0
C1356 C 0.03476 0.32386 0.67367 0.0
C1357 C 0.04671 0.35817 0.63235 0.0
C1358 C 0.0505 0.33783 0.68844 0.0
C1359 C 0.04271 0.34616 0.71142 0.0
C1360 C 0.01904 0.34067 0.71993 0.0
C1361 C 1.00356 0.32629 0.70525 0.0
C1362 C 0.01138 0.31791 0.6824 0.0
H1363 H 0.0465 0.3675 0.61423 0.0
H1364 H 0.02983 0.36326 0.64251 0.0
H1365 H 0.06264 0.36516 0.64281 0.0
H1366 H 0.06881 0.34222 0.68222 0.0
H1367 H 0.05501 0.35729 0.72227 0.0
H1368 H 0.98341 0.81499 0.77335 0.0
H1369 H 0.96421 0.79404 0.8084 0.0
H1370 H 0.98838 0.85213 0.85611 0.0
H1371 H 1.00654 0.87345 0.82163 0.0
H1372 H 1.00039 0.8006 0.87065 0.0
H1373 H 0.9021 0.8192 0.85028 0.0
H1374 H 0.92149 0.80787 0.82602 0.0
H1375 H 0.92635 0.83812 0.83798 0.0
C1376 C 0.98422 0.82351 0.79119 0.0
C1377 C 0.99642 0.84603 0.79448 0.0
C1378 C 0.97338 0.81145 0.81122 0.0
C1379 C 0.97488 0.82163 0.8348 0.0
C1380 C 0.98703 0.84399 0.83807 0.0
H1381 H 0.90739 0.80096 0.97559 0.0
H1382 H 0.92333 0.81598 0.93647 0.0
C1383 C 0.99751 0.8561 0.8182 0.0
C1384 C 0.96457 0.80903 0.85653 0.0
H1385 H 0.91111 0.79859 0.88727 0.0
C1386 C 0.98086 0.7998 0.87417 0.0
C1387 C 0.93914 0.80855 0.86117 0.0
C1388 C 0.9211 0.81903 0.84301 0.0
C1389 C 0.97238 0.79026 0.89653 0.0
C1390 C 0.94693 0.78978 0.90123 0.0
C1391 C 0.9306 0.79887 0.8835 0.0
C1392 C 0.93706 0.78051 0.92479 0.0
C1393 C 0.99072 0.78156 0.91531 0.0
C1394 C 0.93945 0.75559 0.93114 0.0
C1395 C 0.93046 0.74696 0.95355 0.0
C1396 C 0.91895 0.76313 0.97005 0.0
C1397 C 0.91652 0.78809 0.96354 0.0
C1398 C 0.92541 0.79668 0.94108 0.0
H1399 H 0.00961 0.78765 0.91085 0.0
H1400 H 0.98581 0.78848 0.9338 0.0
H1401 H 0.99062 0.76115 0.91602 0.0
H1402 H 0.94815 0.74278 0.91868 0.0
H1403 H 0.93246 0.72759 0.95786 0.0
H1404 H 0.45273 0.64746 0.22929 0.0
H1405 H 0.43396 0.66129 0.19063 0.0
H1406 H 0.49708 0.70633 0.17565 0.0
H1407 H 0.51574 0.69284 0.21411 0.0
H1408 H 0.44681 0.72894 0.16898 0.0
H1409 H 0.4578 0.63923 0.12105 0.0
H1410 H 0.45627 0.6408 0.15399 0.0
H1411 H 0.48318 0.65123 0.13814 0.0
C1412 C 0.46234 0.66065 0.21792 0.0
C1413 C 0.48569 0.66906 0.22466 0.0
C1414 C 0.45176 0.66831 0.19576 0.0
C1415 C 0.46435 0.6845 0.1801 0.0
C1416 C 0.48718 0.69364 0.18734 0.0
H1417 H 0.44614 0.76515 0.04513 0.0
H1418 H 0.45873 0.74836 0.08475 0.0
C1419 C 0.49777 0.68597 0.20935 0.0
C1420 C 0.45391 0.69222 0.15618 0.0
H1421 H 0.44587 0.67329 0.09715 0.0
C1422 C 0.44625 0.7167 0.15333 0.0
C1423 C 0.45329 0.67625 0.13579 0.0
C1424 C 0.46295 0.65032 0.13731 0.0
C1425 C 0.43827 0.72577 0.13057 0.0
C1426 C 0.43841 0.70999 0.1099 0.0
C1427 C 0.4455 0.68532 0.11296 0.0
C1428 C 0.43215 0.71886 0.08483 0.0
C1429 C 0.42996 0.75224 0.12912 0.0
C1430 C 0.41427 0.70682 0.07076 0.0
C1431 C 0.4076 0.71596 0.04767 0.0
C1432 C 0.41854 0.73743 0.03847 0.0
C1433 C 0.43731 0.74865 0.05194 0.0
C1434 C 0.44426 0.73928 0.07473 0.0
H1435 H 0.42178 0.75832 0.14674 0.0
H1436 H 0.44606 0.76411 0.12544 0.0
H1437 H 0.41639 0.75524 0.11436 0.0
H1438 H 0.4049 0.69082 0.07797 0.0
H1439 H 0.39301 0.70706 0.03766 0.0
H1440 H 0.10263 0.3361 0.32118 0.0
H1441 H 0.12185 0.36522 0.29308 0.0
H1442 H 0.19224 0.34977 0.32544 0.0
H1443 H 0.17299 0.31991 0.35337 0.0
H1444 H 0.14942 0.4068 0.29773 0.0
H1445 H 0.20362 0.33201 0.25395 0.0
H1446 H 0.1795 0.3258 0.27567 0.0
H1447 H 0.20889 0.33619 0.28612 0.0
C1448 C 0.12217 0.33913 0.32251 0.0
C1449 C 0.13637 0.32549 0.33921 0.0
C1450 C 0.13314 0.35581 0.30647 0.0
C1451 C 0.15857 0.35925 0.30671 0.0
C1452 C 0.17265 0.34697 0.32454 0.0
H1453 H 0.24667 0.43789 0.19793 0.0
H1454 H 0.23318 0.41494 0.23405 0.0
C1455 C 0.16162 0.33017 0.34069 0.0
C1456 C 0.17004 0.37465 0.2873 0.0
H1457 H 0.20737 0.37165 0.23712 0.0
C1458 C 0.16225 0.39917 0.28459 0.0
C1459 C 0.18671 0.36465 0.27007 0.0
C1460 C 0.19507 0.33818 0.27137 0.0
C1461 C 0.17045 0.41387 0.26505 0.0
C1462 C 0.18657 0.40366 0.24749 0.0
C1463 C 0.19493 0.37939 0.25056 0.0
C1464 C 0.19461 0.41765 0.22552 0.0
C1465 C 0.16184 0.44025 0.26343 0.0
C1466 C 0.17744 0.42633 0.2084 0.0
C1467 C 0.1851 0.43939 0.18767 0.0
C1468 C 0.21008 0.44401 0.18366 0.0
C1469 C 0.22727 0.43474 0.20052 0.0
C1470 C 0.2196 0.42168 0.22122 0.0
H1471 H 0.15545 0.44717 0.28147 0.0
H1472 H 0.17664 0.45245 0.25662 0.0
H1473 H 0.14625 0.44145 0.25047 0.0
H1474 H 0.1581 0.42283 0.21097 0.0
H1475 H 0.17147 0.44587 0.17477 0.0
H1476 H 0.95185 0.91604 0.59465 0.0
H1477 H 0.92991 0.9384 0.56232 0.0
H1478 H 0.87098 0.88593 0.56663 0.0
H1479 H 0.89198 0.86443 0.59964 0.0
H1480 H 0.91743 0.92324 0.51782 0.0
H1481 H 0.83262 0.94841 0.56691 0.0
H1482 H 0.85939 0.93702 0.58265 0.0
H1483 H 0.83815 0.91594 0.56874 0.0
C1484 C 0.93396 0.90959 0.58911 0.0
C1485 C 0.92378 0.88831 0.59975 0.0
C1486 C 0.92151 0.9223 0.57047 0.0
C1487 C 0.89858 0.9141 0.5622 0.0
C1488 C 0.88833 0.89304 0.573 0.0
H1489 H 0.8327 0.9347 0.42006 0.0
H1490 H 0.85606 0.92131 0.45584 0.0
C1491 C 0.90062 0.88049 0.59168 0.0
C1492 C 0.88592 0.9265 0.54135 0.0
H1493 H 0.83036 0.94886 0.52289 0.0
C1494 C 0.8985 0.92916 0.51905 0.0
C1495 C 0.86129 0.9346 0.54292 0.0
C1496 C 0.84719 0.93409 0.56669 0.0
C1497 C 0.8869 0.93881 0.49813 0.0
C1498 C 0.86182 0.94538 0.49932 0.0
C1499 C 0.8495 0.94356 0.52183 0.0
C1500 C 0.84786 0.95372 0.4774 0.0
C1501 C 0.90175 0.94196 0.47502 0.0
C1502 C 0.83481 0.97606 0.47773 0.0
C1503 C 0.8209 0.98341 0.45745 0.0
C1504 C 0.81963 0.96845 0.43658 0.0
C1505 C 0.83302 0.94636 0.43609 0.0
C1506 C 0.84671 0.9389 0.4564 0.0
H1507 H 0.92156 0.94393 0.47914 0.0
H1508 H 0.89956 0.9254 0.46339 0.0
H1509 H 0.89565 0.95831 0.4644 0.0
H1510 H 0.83533 0.98778 0.49373 0.0
H1511 H 0.81078 1.00057 0.45827 0.0
H1512 H 0.32866 0.57692 0.67537 0.0
H1513 H 0.34236 0.59546 0.71372 0.0
H1514 H 0.27175 0.58064 0.74601 0.0
H1515 H 0.25899 0.55996 0.70855 0.0
H1516 H 0.33032 0.63248 0.73874 0.0
H1517 H 0.31248 0.55181 0.79767 0.0
H1518 H 0.30896 0.55047 0.76496 0.0
H1519 H 0.28459 0.56225 0.78389 0.0
C1520 C 0.31631 0.57715 0.69087 0.0
C1521 C 0.29317 0.56615 0.68928 0.0
C1522 C 0.32401 0.58802 0.71271 0.0
C1523 C 0.30841 0.58879 0.73319 0.0
C1524 C 0.28459 0.57936 0.73096 0.0
H1525 H 0.33385 0.6854 0.85871 0.0
H1526 H 0.32237 0.6685 0.81877 0.0
C1527 C 0.27715 0.56786 0.70935 0.0
C1528 C 0.31695 0.59977 0.75666 0.0
H1529 H 0.31945 0.58994 0.81838 0.0
C1530 C 0.32815 0.62303 0.75613 0.0
C1531 C 0.31455 0.58739 0.77942 0.0
C1532 C 0.30475 0.5615 0.78148 0.0
C1533 C 0.33676 0.63431 0.77758 0.0
C1534 C 0.33313 0.62252 0.80047 0.0
C1535 C 0.32209 0.59919 0.80096 0.0
C1536 C 0.34095 0.63359 0.82416 0.0
C1537 C 0.35027 0.6584 0.77526 0.0
C1538 C 0.35471 0.61952 0.84088 0.0
C1539 C 0.3606 0.62889 0.86392 0.0
C1540 C 0.3532 0.65269 0.87067 0.0
C1541 C 0.33998 0.66708 0.85382 0.0
C1542 C 0.3336 0.65748 0.83091 0.0
H1543 H 0.35868 0.66046 0.75683 0.0
H1544 H 0.33716 0.67383 0.77774 0.0
H1545 H 0.36493 0.65999 0.78923 0.0
H1546 H 0.36067 0.60109 0.83622 0.0
H1547 H 0.37092 0.61749 0.87655 0.0
H1548 H 0.63229 0.09681 0.11994 0.0
H1549 H 0.64741 0.08149 0.08073 0.0
H1550 H 0.57907 0.1015 0.04652 0.0
H1551 H 0.56387 0.11731 0.08591 0.0
H1552 H 0.62863 0.04527 0.04884 0.0
H1553 H 0.63131 0.13795 1.00516 0.0
H1554 H 0.62791 0.13389 0.03781 0.0
H1555 H 0.60245 0.1284 0.01783 0.0
C1556 C 0.62042 0.09785 0.10409 0.0
C1557 C 0.597 0.10848 0.10593 0.0
C1558 C 0.62906 0.08904 0.08172 0.0
C1559 C 0.61455 0.09075 0.06062 0.0
C1560 C 0.59072 0.10039 0.06251 0.0
H1561 H 0.66473 0.06123 0.91023 0.0
H1562 H 0.63888 0.07201 0.94548 0.0
C1563 C 0.58197 0.10916 0.08504 0.0
C1564 C 0.62493 0.08282 0.03676 0.0
H1565 H 0.64618 0.10471 0.98201 0.0
C1566 C 0.63225 0.0582 0.03411 0.0
C1567 C 0.62959 0.09972 0.01755 0.0
C1568 C 0.6226 0.12653 0.01963 0.0
C1569 C 0.64442 0.05006 0.01296 0.0
C1570 C 0.65 0.06716 0.99415 0.0
C1571 C 0.64196 0.09163 0.99644 0.0
C1572 C 0.6653 0.06031 0.97267 0.0
C1573 C 0.65117 0.02318 0.01104 0.0
C1574 C 0.68883 0.0505 0.97619 0.0
C1575 C 0.70327 0.04381 0.95619 0.0
C1576 C 0.69479 0.04734 0.93215 0.0
C1577 C 0.67152 0.0578 0.92855 0.0
C1578 C 0.65685 0.06416 0.94866 0.0
H1579 H 0.63885 0.01154 0.02237 0.0
H1580 H 0.65036 0.01668 0.9918 0.0
H1581 H 0.67009 0.02047 0.01793 0.0
H1582 H 0.69613 0.04809 0.99447 0.0
H1583 H 0.72115 0.03587 0.9596 0.0
H1584 H 0.60284 0.17969 0.68974 0.0
H1585 H 0.62153 0.15012 0.71779 0.0
H1586 H 0.69133 0.16048 0.68229 0.0
H1587 H 0.67265 0.19086 0.65444 0.0
H1588 H 0.64605 0.10707 0.71372 0.0
H1589 H 0.70714 0.17882 0.75239 0.0
H1590 H 0.68268 0.18615 0.73143 0.0
H1591 H 0.7109 0.17331 0.7202 0.0
C1592 C 0.62212 0.17543 0.6877 0.0
C1593 C 0.63636 0.18783 0.67013 0.0
C1594 C 0.63279 0.15849 0.70373 0.0
C1595 C 0.65797 0.15352 0.70262 0.0
C1596 C 0.67197 0.1645 0.68391 0.0
H1597 H 0.74668 0.06932 0.80661 0.0
H1598 H 0.73216 0.0924 0.77095 0.0
C1599 C 0.66125 0.18158 0.66779 0.0
C1600 C 0.66933 0.13786 0.72197 0.0
H1601 H 0.70956 0.13928 0.76988 0.0
C1602 C 0.66004 0.11408 0.7259 0.0
C1603 C 0.68753 0.14703 0.738 0.0
C1604 C 0.69755 0.17278 0.73552 0.0
C1605 C 0.66827 0.09933 0.74544 0.0
C1606 C 0.68606 0.10871 0.76168 0.0
C1607 C 0.69583 0.1322 0.75744 0.0
C1608 C 0.69462 0.09455 0.78334 0.0
C1609 C 0.65802 0.07375 0.74847 0.0
C1610 C 0.6784 0.08849 0.80241 0.0
C1611 C 0.68669 0.07545 0.82296 0.0
C1612 C 0.71131 0.06811 0.82469 0.0
C1613 C 0.72756 0.0746 0.80576 0.0
C1614 C 0.7193 0.08772 0.78533 0.0
H1615 H 0.64887 0.06726 0.73153 0.0
H1616 H 0.67274 0.0605 0.75342 0.0
H1617 H 0.6443 0.07377 0.76346 0.0
H1618 H 0.65938 0.0941 0.80152 0.0
H1619 H 0.67391 0.07125 0.83754 0.0
H1620 H 0.20611 0.49749 0.05228 0.0
H1621 H 0.1863 0.48431 0.01423 0.0
H1622 H 0.15569 0.42163 0.05187 0.0
H1623 H 0.17517 0.435 0.09001 0.0
H1624 H 0.19338 0.43912 0.98997 0.0
H1625 H 0.09602 0.45161 0.01696 0.0
H1626 H 0.12094 0.46545 0.03364 0.0
H1627 H 0.11424 0.43333 0.03753 0.0
C1628 C 0.19479 0.48115 0.05247 0.0
C1629 C 0.19206 0.46725 0.074 0.0
C1630 C 0.18363 0.47355 0.03074 0.0
C1631 C 0.16923 0.45217 0.03028 0.0
C1632 C 0.16628 0.43844 0.05189 0.0
H1633 H 0.09502 0.37848 0.90805 0.0
H1634 H 0.1083 0.39075 0.94935 0.0
C1635 C 0.17753 0.44599 0.0736 0.0
C1636 C 0.15813 0.4438 1.00695 0.0
H1637 H 0.1035 0.43334 0.97834 0.0
C1638 C 0.17373 0.43786 0.98743 0.0
C1639 C 0.13249 0.44193 1.00376 0.0
C1640 C 0.11487 0.44858 0.02398 0.0
C1641 C 0.16444 0.43015 0.96477 0.0
C1642 C 0.13876 0.42895 0.96128 0.0
C1643 C 0.12313 0.43438 0.98098 0.0
C1644 C 0.12803 0.42299 0.937 0.0
C1645 C 0.18228 0.42306 0.94486 0.0
C1646 C 0.13361 0.43769 0.9166 0.0
C1647 C 0.12616 0.43072 0.89321 0.0
C1648 C 0.11264 0.40904 0.88969 0.0
C1649 C 0.10541 0.39527 0.91028 0.0
C1650 C 0.11309 0.4022 0.93381 0.0
H1651 H 0.2004 0.41781 0.95254 0.0
H1652 H 0.17526 0.40747 0.93383 0.0
H1653 H 0.1851 0.43904 0.93248 0.0
H1654 H 0.14449 0.4542 0.91869 0.0
H1655 H 0.1317 0.44183 0.87767 0.0
H1656 H 0.76395 0.93023 0.31899 0.0
H1657 H 0.77817 0.90596 0.28417 0.0
H1658 H 0.85255 0.92744 0.29915 0.0
H1659 H 0.83851 0.95191 0.33407 0.0
H1660 H 0.83864 0.93276 0.24959 0.0
H1661 H 0.81525 0.84007 0.28581 0.0
H1662 H 0.79054 0.86197 0.28604 0.0
H1663 H 0.81683 0.86695 0.3051 0.0
C1664 C 0.78338 0.92965 0.31506 0.0
C1665 C 0.8001 0.94308 0.32932 0.0
C1666 C 0.79146 0.9157 0.29516 0.0
C1667 C 0.81643 0.9147 0.28923 0.0
C1668 C 0.8332 0.92794 0.30347 0.0
H1669 H 0.90201 0.82379 0.19343 0.0
H1670 H 0.88222 0.84491 0.22775 0.0
C1671 C 0.82514 0.94189 0.32342 0.0
C1672 C 0.82501 0.90037 0.26779 0.0
H1673 H 0.82907 0.8421 0.24469 0.0
C1674 C 0.8365 0.91295 0.24847 0.0
C1675 C 0.82225 0.87452 0.26645 0.0
C1676 C 0.81074 0.85998 0.28702 0.0
C1677 C 0.84531 0.90035 0.22784 0.0
C1678 C 0.84243 0.87454 0.22647 0.0
C1679 C 0.83096 0.86194 0.24574 0.0
C1680 C 0.85288 0.86023 0.20592 0.0
C1681 C 0.85818 0.91454 0.20787 0.0
C1682 C 0.84253 0.86139 0.18243 0.0
C1683 C 0.85372 0.84919 0.16279 0.0
C1684 C 0.87557 0.83591 0.16637 0.0
C1685 C 0.88536 0.83415 0.19011 0.0
C1686 C 0.87405 0.8461 0.20971 0.0
H1687 H 0.86145 0.93402 0.21304 0.0
H1688 H 0.87602 0.90574 0.20348 0.0
H1689 H 0.84686 0.91429 0.19101 0.0
H1690 H 0.82609 0.87212 0.17922 0.0
H1691 H 0.84583 0.8509 0.14468 0.0
H1692 H 0.31635 0.51145 0.56204 0.0
H1693 H 0.33777 0.52482 0.52505 0.0
H1694 H 0.33485 0.60001 0.54995 0.0
H1695 H 0.31363 0.58667 0.58735 0.0
H1696 H 0.31975 0.5589 0.48995 0.0
H1697 H 0.40751 0.59022 0.53068 0.0
H1698 H 0.38644 0.57048 0.54694 0.0
H1699 H 0.38003 0.60276 0.54391 0.0
C1700 C 0.32051 0.53081 0.55983 0.0
C1701 C 0.31325 0.54802 0.57762 0.0
C1702 C 0.33268 0.53843 0.53861 0.0
C1703 C 0.33813 0.56337 0.53482 0.0
C1704 C 0.33117 0.58062 0.55266 0.0
H1705 H 0.40923 0.63614 0.40987 0.0
H1706 H 0.39138 0.62707 0.45019 0.0
C1707 C 0.31892 0.573 0.57393 0.0
C1708 C 0.35015 0.57122 0.51165 0.0
H1709 H 0.40265 0.5959 0.48802 0.0
C1710 C 0.33787 0.567 0.48952 0.0
C1711 C 0.37368 0.58201 0.51115 0.0
C1712 C 0.38786 0.58653 0.53438 0.0
C1713 C 0.34846 0.5732 0.4669 0.0
C1714 C 0.37235 0.58329 0.46627 0.0
C1715 C 0.38444 0.58802 0.48846 0.0
C1716 C 0.38512 0.5885 0.44269 0.0
C1717 C 0.33369 0.5692 0.44391 0.0
C1718 C 0.38849 0.56969 0.42543 0.0
C1719 C 0.39847 0.57485 0.40241 0.0
C1720 C 0.40573 0.59889 0.39623 0.0
C1721 C 0.40376 0.61745 0.41406 0.0
C1722 C 0.3935 0.6123 0.43708 0.0
H1723 H 0.31374 0.56891 0.44784 0.0
H1724 H 0.33734 0.58377 0.4301 0.0
H1725 H 0.33869 0.55114 0.43586 0.0
H1726 H 0.38297 0.55101 0.42959 0.0
H1727 H 0.40026 0.56004 0.38929 0.0
H1728 H 0.20893 0.2492 0.4553 0.0
H1729 H 0.24642 0.23593 0.43433 0.0
H1730 H 0.20736 0.17503 0.4025 0.0
H1731 H 0.16975 0.18854 0.42311 0.0
H1732 H 0.2704 0.19075 0.43933 0.0
H1733 H 0.24136 0.2059 0.34308 0.0
H1734 H 0.2252 0.21909 0.36877 0.0
H1735 H 0.22093 0.18728 0.361 0.0
C1736 C 0.20831 0.23322 0.44349 0.0
C1737 C 0.18654 0.21985 0.44073 0.0
C1738 C 0.22972 0.22558 0.43166 0.0
C1739 C 0.2296 0.20472 0.41654 0.0
C1740 C 0.20776 0.19149 0.41361 0.0
H1741 H 0.34235 0.12373 0.33766 0.0
H1742 H 0.30342 0.14133 0.35211 0.0
C1743 C 0.18636 0.19908 0.42553 0.0
C1744 C 0.25258 0.19627 0.40466 0.0
H1745 H 0.27921 0.18517 0.34909 0.0
C1746 C 0.27237 0.18961 0.41961 0.0
C1747 C 0.25505 0.1947 0.37892 0.0
C1748 C 0.2346 0.20231 0.36194 0.0
C1749 C 0.29445 0.18098 0.40959 0.0
C1750 C 0.29711 0.17968 0.38378 0.0
C1751 C 0.27724 0.18629 0.36882 0.0
C1752 C 0.32027 0.17113 0.37215 0.0
C1753 C 0.31443 0.17269 0.42685 0.0
C1754 C 0.34255 0.18278 0.37748 0.0
C1755 C 0.36468 0.17265 0.36942 0.0
C1756 C 0.3649 0.15105 0.35537 0.0
C1757 C 0.34257 0.14051 0.34832 0.0
C1758 C 0.32039 0.15048 0.35668 0.0
H1759 H 0.30702 0.16799 0.44523 0.0
H1760 H 0.32431 0.15638 0.41958 0.0
H1761 H 0.32778 0.18785 0.42921 0.0
H1762 H 0.34291 0.19915 0.38873 0.0
H1763 H 0.38171 0.18106 0.37506 0.0
H1764 H 0.13167 0.10517 0.59543 0.0
H1765 H 0.12145 0.0647 0.61252 0.0
H1766 H 0.04806 0.08992 0.62756 0.0
H1767 H 0.0579 0.1301 0.60999 0.0
H1768 H 0.10585 0.05537 0.66039 0.0
H1769 H 0.03627 0.0241 0.59365 0.0
H1770 H 0.05701 0.04914 0.58727 0.0
H1771 H 0.03024 0.05418 0.60581 0.0
C1772 C 0.11324 0.10196 0.602 0.0
C1773 C 0.09561 0.12089 0.60141 0.0
C1774 C 0.10747 0.07887 0.61185 0.0
C1775 C 0.08391 0.07421 0.62102 0.0
C1776 C 0.06622 0.09296 0.62018 0.0
H1777 H 0.01093 0.96061 0.70395 0.0
H1778 H 0.02303 0.99777 0.68156 0.0
C1779 C 0.07198 0.11602 0.61042 0.0
C1780 C 0.07816 0.05031 0.63288 0.0
H1781 H 0.0386 1.00175 0.63128 0.0
C1782 C 0.09137 0.04348 0.65385 0.0
C1783 C 0.05913 0.03492 0.62441 0.0
C1784 C 0.04498 0.0408 0.60142 0.0
C1785 C 0.08554 0.02206 0.66702 0.0
C1786 C 0.06631 0.00685 0.65877 0.0
C1787 C 0.05332 0.01348 0.6376 0.0
C1788 C 0.05909 0.98421 0.67214 0.0
C1789 C 0.09927 0.01638 0.69026 0.0
C1790 C 0.07521 0.96413 0.6739 0.0
C1791 C 0.06824 0.9428 0.68645 0.0
C1792 C 0.04515 0.94128 0.69768 0.0
C1793 C 0.02888 0.96126 0.69554 0.0
C1794 C 0.03579 0.98252 0.68283 0.0
H1795 H 0.1104 0.03221 0.69658 0.0
H1796 H 0.08621 0.01125 0.70498 0.0
H1797 H 0.11174 1.00056 0.68708 0.0
H1798 H 0.0931 0.96486 0.66537 0.0
H1799 H 0.08086 0.92742 0.6872 0.0
H1800 H 0.13618 0.86922 0.89578 0.0
H1801 H 0.17677 0.86012 0.91232 0.0
H1802 H 0.19629 0.8235 0.84502 0.0
H1803 H 0.1559 0.83339 0.82811 0.0
H1804 H 0.19617 0.81778 0.92235 0.0
H1805 H 0.25635 0.86363 0.85469 0.0
H1806 H 0.22369 0.86857 0.85528 0.0
H1807 H 0.23636 0.8417 0.84067 0.0
C1808 C 0.14922 0.85941 0.88444 0.0
C1809 C 0.14284 0.85196 0.86068 0.0
C1810 C 0.17244 0.85424 0.89389 0.0
C1811 C 0.18982 0.84133 0.87989 0.0
C1812 C 0.18355 0.83404 0.85602 0.0
H1813 H 0.30997 0.75981 0.94625 0.0
H1814 H 0.27223 0.77276 0.9259 0.0
C1815 C 0.16038 0.83956 0.8464 0.0
C1816 C 0.21376 0.83424 0.89101 0.0
H1817 H 0.27578 0.83585 0.88259 0.0
C1818 C 0.21355 0.82191 0.91367 0.0
C1819 C 0.23656 0.83981 0.87992 0.0
C1820 C 0.23832 0.85438 0.85643 0.0
C1821 C 0.23533 0.81484 0.92541 0.0
C1822 C 0.25804 0.81944 0.91381 0.0
C1823 C 0.25835 0.83205 0.89132 0.0
C1824 C 0.28163 0.81143 0.92485 0.0
C1825 C 0.23375 0.80301 0.95041 0.0
C1826 C 0.30002 0.82866 0.93003 0.0
C1827 C 0.32184 0.82122 0.94128 0.0
C1828 C 0.32557 0.79643 0.94775 0.0
C1829 C 0.30753 0.77909 0.94172 0.0
C1830 C 0.28583 0.7865 0.93031 0.0
H1831 H 0.21616 0.80745 0.95965 0.0
H1832 H 0.23484 0.78272 0.94843 0.0
H1833 H 0.24902 0.80906 0.96236 0.0
H1834 H 0.29731 0.84796 0.92573 0.0
H1835 H 0.33568 0.83489 0.94518 0.0
H1836 H 0.45596 0.10147 0.16122 0.0
H1837 H 0.44187 0.0677 0.13491 0.0
H1838 H 0.45752 0.01558 0.1925 0.0
H1839 H 0.47173 0.04888 0.21861 0.0
H1840 H 0.46622 0.02263 0.11922 0.0
H1841 H 0.38445 1.00443 0.17708 0.0
H1842 H 0.40149 0.0328 0.17848 0.0
H1843 H 0.41305 1.00551 0.19325 0.0
C1844 C 0.45658 0.08278 0.16816 0.0
C1845 C 0.46459 0.07792 0.19214 0.0
C1846 C 0.44851 0.06353 0.15314 0.0
C1847 C 0.44829 0.03919 0.16191 0.0
C1848 C 0.45711 0.03426 0.18551 0.0
H1849 H 0.41695 0.89796 0.09303 0.0
H1850 H 0.43774 0.93246 0.11317 0.0
C1851 C 0.46519 0.05337 0.20043 0.0
C1852 C 0.43827 0.01891 0.1468 0.0
H1853 H 0.3927 0.97601 0.14545 0.0
C1854 C 0.45014 0.01244 0.1249 0.0
C1855 C 0.41721 1.00572 0.15419 0.0
C1856 C 0.40311 0.01251 0.17694 0.0
C1857 C 0.44161 0.99288 0.11041 0.0
C1858 C 0.42078 0.97958 0.11806 0.0
C1859 C 0.40883 0.98616 0.1398 0.0
C1860 C 0.41023 0.95941 0.10332 0.0
C1861 C 0.45458 0.98666 0.08685 0.0
C1862 C 0.38813 0.96329 0.09089 0.0
C1863 C 0.37633 0.94377 0.07933 0.0
C1864 C 0.38624 0.91985 0.08019 0.0
C1865 C 0.40892 0.91618 0.09188 0.0
C1866 C 0.42079 0.93583 0.10343 0.0
H1867 H 0.46948 0.99987 0.08256 0.0
H1868 H 0.46254 0.96789 0.08822 0.0
H1869 H 0.44129 0.9866 0.07148 0.0
H1870 H 0.37972 0.98138 0.09064 0.0
H1871 H 0.35912 0.94731 0.07012 0.0
H1872 H 0.86192 0.3724 0.62833 0.0
H1873 H 0.82607 0.35351 0.61043 0.0
H1874 H 0.81131 0.31599 0.6786 0.0
H1875 H 0.84608 0.33694 0.69751 0.0
H1876 H 0.81233 0.31072 0.6004 0.0
H1877 H 0.74666 0.34705 0.66898 0.0
H1878 H 0.77834 0.35609 0.66852 0.0
H1879 H 0.7694 0.32726 0.68221 0.0
C1880 C 0.85088 0.36045 0.63975 0.0
C1881 C 0.85651 0.35687 0.66464 0.0
C1882 C 0.83047 0.34937 0.62933 0.0
C1883 C 0.81543 0.33384 0.6433 0.0
C1884 C 0.82205 0.32862 0.66766 0.0
H1885 H 0.70247 0.25387 0.56193 0.0
H1886 H 0.73907 0.26407 0.58538 0.0
C1887 C 0.84224 0.34027 0.67834 0.0
C1888 C 0.79276 0.32378 0.6321 0.0
H1889 H 0.73069 0.32056 0.63887 0.0
C1890 C 0.79447 0.31292 0.60884 0.0
C1891 C 0.76935 0.32695 0.64287 0.0
C1892 C 0.76573 0.34019 0.66689 0.0
C1893 C 0.77358 0.30578 0.59579 0.0
C1894 C 0.75025 0.3082 0.6069 0.0
C1895 C 0.74855 0.31853 0.63039 0.0
C1896 C 0.7273 0.30114 0.59414 0.0
C1897 C 0.77686 0.29683 0.56983 0.0
C1898 C 0.70771 0.31789 0.59262 0.0
C1899 C 0.68634 0.31167 0.58011 0.0
C1900 C 0.68444 0.2889 0.56824 0.0
C1901 C 0.70359 0.27176 0.57056 0.0
C1902 C 0.7247 0.27771 0.58366 0.0
H1903 H 0.79391 0.30418 0.5615 0.0
H1904 H 0.77832 0.27646 0.56989 0.0
H1905 H 0.76124 0.30226 0.55803 0.0
H1906 H 0.70906 0.33599 0.60078 0.0
H1907 H 0.67147 0.32484 0.57937 0.0
H1908 H 0.9595 0.45768 0.78723 0.0
H1909 H 0.94597 0.49366 0.81028 0.0
H1910 H 0.96245 0.45591 0.87783 0.0
H1911 H 0.97507 0.41941 0.8547 0.0
H1912 H 0.90772 0.49567 0.84794 0.0
H1913 H 1.00007 0.523 0.88088 0.0
H1914 H 0.99574 0.50257 0.85523 0.0
H1915 H 0.99121 0.49149 0.88587 0.0
C1916 C 0.95913 0.4566 0.80696 0.0
C1917 C 0.96678 0.43508 0.81908 0.0
C1918 C 0.95194 0.47738 0.82014 0.0
C1919 C 0.95295 0.47737 0.84578 0.0
C1920 C 0.96143 0.45625 0.85803 0.0
H1921 H 0.88174 0.59601 0.93037 0.0
H1922 H 0.89687 0.55486 0.91898 0.0
C1923 C 0.96847 0.43533 0.84478 0.0
C1924 C 0.94514 0.49959 0.85946 0.0
H1925 H 0.96675 0.54773 0.89317 0.0
C1926 C 0.92053 0.50693 0.8581 0.0
C1927 C 0.962 0.51433 0.87241 0.0
C1928 C 0.98879 0.50767 0.87365 0.0
C1929 C 0.91236 0.52884 0.86906 0.0
C1930 C 0.92923 0.54367 0.88197 0.0
C1931 C 0.9538 0.53615 0.88359 0.0
C1932 C 0.92221 0.56827 0.89155 0.0
C1933 C 0.88598 0.53649 0.86585 0.0
C1934 C 0.93222 0.5894 0.88072 0.0
C1935 C 0.92368 0.61274 0.88719 0.0
C1936 C 0.90507 0.61547 0.90478 0.0
C1937 C 0.89613 0.59441 0.9168 0.0
C1938 C 0.9046 0.57094 0.91016 0.0
H1939 H 0.87645 0.52518 0.8519 0.0
H1940 H 0.87617 0.53431 0.88352 0.0
H1941 H 0.88474 0.55614 0.86035 0.0
H1942 H 0.9459 0.58779 0.86642 0.0
H1943 H 0.93101 0.62868 0.87779 0.0
H1944 H 0.83949 0.67583 0.07211 0.0
H1945 H 0.80346 0.66121 0.09457 0.0
H1946 H 0.76949 0.73249 0.0861 0.0
H1947 H 0.80503 0.74689 0.06291 0.0
H1948 H 0.78326 0.67891 0.13771 0.0
H1949 H 0.71664 0.68575 0.06145 0.0
H1950 H 0.74929 0.68734 0.05672 0.0
H1951 H 0.73274 0.71387 0.06737 0.0
C1952 C 0.82419 0.68825 0.07478 0.0
C1953 C 0.82493 0.71237 0.06547 0.0
C1954 C 0.80371 0.67996 0.08776 0.0
C1955 C 0.78363 0.69566 0.09172 0.0
C1956 C 0.78455 0.71991 0.08285 0.0
H1957 H 0.66865 0.66317 0.20018 0.0
H1958 H 0.70178 0.68348 0.17754 0.0
C1959 C 0.80498 0.72818 0.06982 0.0
C1960 C 0.76193 0.68682 0.10554 0.0
H1961 H 0.70033 0.67742 0.10092 0.0
C1962 C 0.76511 0.67856 0.1297 0.0
C1963 C 0.73832 0.68617 0.09495 0.0
C1964 C 0.73399 0.69352 0.06863 0.0
C1965 C 0.74533 0.66966 0.1436 0.0
C1966 C 0.72157 0.66953 0.13322 0.0
C1967 C 0.71844 0.67782 0.10902 0.0
C1968 C 0.70011 0.659 0.14636 0.0
C1969 C 0.75028 0.65971 0.16895 0.0
C1970 C 0.68725 0.63938 0.13586 0.0
C1971 C 0.66808 0.62812 0.1485 0.0
C1972 C 0.66132 0.63606 0.17207 0.0
C1973 C 0.67341 0.65652 0.18212 0.0
C1974 C 0.69258 0.66794 0.16933 0.0
H1975 H 0.76999 0.65544 0.1717 0.0
H1976 H 0.7449 0.67372 0.18269 0.0
H1977 H 0.73954 0.64275 0.17249 0.0
H1978 H 0.69247 0.63232 0.11807 0.0
H1979 H 0.65877 0.61284 0.13991 0.0
H1980 H 0.63403 0.41114 0.41747 0.0
H1981 H 0.62351 0.45226 0.40188 0.0
H1982 H 0.55294 0.42551 0.37908 0.0
H1983 H 0.56314 0.3846 0.39487 0.0
H1984 H 0.61052 0.46332 0.35206 0.0
H1985 H 0.53639 0.48927 0.41659 0.0
H1986 H 0.5582 0.46509 0.42319 0.0
H1987 H 0.5329 0.45942 0.403 0.0
C1988 C 0.61612 0.41414 0.40951 0.0
C1989 C 0.59945 0.39455 0.40734 0.0
C1990 C 0.61019 0.4376 0.4005 0.0
C1991 C 0.58735 0.44201 0.38951 0.0
C1992 C 0.57053 0.42264 0.38779 0.0
H1993 H 0.51062 0.55824 0.31401 0.0
H1994 H 0.52423 0.52093 0.33523 0.0
C1995 C 0.57648 0.39919 0.39662 0.0
C1996 C 0.58151 0.4664 0.37854 0.0
H1997 H 0.54037 0.51379 0.38068 0.0
C1998 C 0.59538 0.47455 0.35847 0.0
C1999 C 0.56162 0.48087 0.38682 0.0
C2000 C 0.54651 0.47338 0.40872 0.0
C2001 C 0.58932 0.49633 0.34584 0.0
C2002 C 0.56925 0.51075 0.35396 0.0
C2003 C 0.55573 0.5028 0.3744 0.0
C2004 C 0.5613 0.53362 0.34103 0.0
C2005 C 0.60374 0.50297 0.32322 0.0
C2006 C 0.57745 0.55343 0.33749 0.0
C2007 C 0.56971 0.57473 0.32518 0.0
C2008 C 0.54561 0.57672 0.31641 0.0
C2009 C 0.52931 0.55719 0.32054 0.0
C2010 C 0.53709 0.53585 0.33263 0.0
H2011 H 0.6141 0.48695 0.31592 0.0
H2012 H 0.59144 0.50998 0.30864 0.0
H2013 H 0.61712 0.51758 0.32775 0.0
H2014 H 0.59599 0.55252 0.34441 0.0
H2015 H 0.58252 0.5897 0.3226 0.0
H2016 H 0.32311 0.35648 0.17855 0.0
H2017 H 0.34058 0.31652 0.19037 0.0
H2018 H 0.40855 0.33605 0.15515 0.0
H2019 H 0.39145 0.37616 0.14401 0.0
H2020 H 0.3587 0.27809 0.16649 0.0
H2021 H 0.43274 0.31877 0.222 0.0
H2022 H 0.40785 0.33694 0.20993 0.0
H2023 H 0.43384 0.32949 0.19096 0.0
C2024 C 0.34176 0.35217 0.17329 0.0
C2025 C 0.35608 0.3696 0.16073 0.0
C2026 C 0.35173 0.32936 0.18006 0.0
C2027 C 0.37614 0.32351 0.17426 0.0
C2028 C 0.38999 0.34044 0.16062 0.0
H2029 H 0.44121 0.17689 0.179 0.0
H2030 H 0.42075 0.21512 0.16698 0.0
C2031 C 0.38017 0.36333 0.15417 0.0
C2032 C 0.38726 0.29991 0.18265 0.0
H2033 H 0.43682 0.27611 0.21261 0.0
C2034 C 0.37569 0.27765 0.17673 0.0
C2035 C 0.40915 0.29928 0.19651 0.0
C2036 C 0.42146 0.32241 0.20546 0.0
C2037 C 0.38572 0.25482 0.18375 0.0
C2038 C 0.40839 0.2542 0.19633 0.0
C2039 C 0.41964 0.27649 0.20269 0.0
C2040 C 0.42074 0.23078 0.20343 0.0
C2041 C 0.37158 0.23171 0.17806 0.0
C2042 C 0.42839 0.22708 0.22772 0.0
C2043 C 0.44104 0.20569 0.23436 0.0
C2044 C 0.44626 0.18751 0.21687 0.0
C2045 C 0.43813 0.19092 0.19271 0.0
C2046 C 0.42591 0.21255 0.18594 0.0
H2047 H 0.35171 0.2356 0.17607 0.0
H2048 H 0.37817 0.224 0.16045 0.0
H2049 H 0.37404 0.21757 0.19257 0.0
H2050 H 0.42467 0.24081 0.24158 0.0
H2051 H 0.44694 0.2035 0.25317 0.0
H2052 H 0.91429 0.34544 0.79767 0.0
H2053 H 0.88852 0.3105 0.8104 0.0
H2054 H 0.9522 0.26361 0.81277 0.0
H2055 H 0.97777 0.29774 0.79962 0.0
H2056 H 0.89439 0.25348 0.78359 0.0
H2057 H 0.908 0.26581 0.88388 0.0
H2058 H 0.90696 0.2917 0.86302 0.0
H2059 H 0.93318 0.27185 0.86333 0.0
C2060 C 0.92276 0.32767 0.80083 0.0
C2061 C 0.94817 0.32456 0.79789 0.0
C2062 C 0.90803 0.30777 0.80812 0.0
C2063 C 0.91854 0.28457 0.81265 0.0
C2064 C 0.94377 0.28139 0.80949 0.0
H2065 H 0.88718 0.13368 0.83472 0.0
H2066 H 0.89831 0.17451 0.81978 0.0
C2067 C 0.95838 0.30107 0.80208 0.0
C2068 C 0.90349 0.26331 0.82058 0.0
H2069 H 0.88931 0.22882 0.87099 0.0
C2070 C 0.89286 0.24827 0.80271 0.0
C2071 C 0.90165 0.25657 0.8455 0.0
C2072 C 0.91294 0.27226 0.86521 0.0
C2073 C 0.88107 0.22617 0.8091 0.0
C2074 C 0.88015 0.21879 0.83399 0.0
C2075 C 0.88992 0.23444 0.85194 0.0
C2076 C 0.87137 0.19392 0.84153 0.0
C2077 C 0.87007 0.21073 0.78905 0.0
C2078 C 0.85245 0.19106 0.85881 0.0
C2079 C 0.84602 0.16754 0.86744 0.0
C2080 C 0.85873 0.14656 0.85925 0.0
C2081 C 0.8771 0.1495 0.84142 0.0
C2082 C 0.88338 0.17285 0.83274 0.0
H2083 H 0.86521 0.22213 0.77284 0.0
H2084 H 0.88367 0.19677 0.78307 0.0
H2085 H 0.85342 0.20098 0.79552 0.0
H2086 H 0.84303 0.20707 0.86599 0.0
H2087 H 0.83194 0.16587 0.88132 0.0
H2088 H 0.0882 0.56067 0.1091 0.0
H2089 H 0.05418 0.58161 0.08828 0.0
H2090 H 0.06714 0.64666 0.13135 0.0
H2091 H 0.10147 0.62629 0.15153 0.0
H2092 H 0.01183 0.60024 0.10915 0.0
H2093 H 0.06292 0.67489 0.06272 0.0
H2094 H 0.0779 0.64811 0.07545 0.0
H2095 H 0.06915 0.67332 0.09493 0.0
C2096 C 0.08407 0.57958 0.11381 0.0
C2097 C 0.09751 0.59175 0.13209 0.0
C2098 C 0.06452 0.59147 0.10201 0.0
C2099 C 0.05824 0.6158 0.10808 0.0
C2100 C 0.07186 0.62805 0.12604 0.0
H2101 H 0.91986 0.69298 0.08842 0.0
H2102 H 0.95501 0.66973 0.10431 0.0
C2103 C 0.09133 0.61624 0.13779 0.0
C2104 C 0.03681 0.62816 0.09658 0.0
H2105 H 0.01956 0.68015 0.06571 0.0
C2106 C 0.01354 0.6176 0.09945 0.0
C2107 C 0.03905 0.65071 0.08372 0.0
C2108 C 0.06363 0.66231 0.07878 0.0
C2109 C 0.9924 0.62931 0.09041 0.0
C2110 C 0.99455 0.65239 0.07854 0.0
C2111 C 0.01788 0.66261 0.07509 0.0
C2112 C 0.97292 0.66608 0.0691 0.0
C2113 C 0.96799 0.61673 0.09341 0.0
C2114 C 0.97151 0.67216 0.04417 0.0
C2115 C 0.95165 0.68564 0.03516 0.0
C2116 C 0.93284 0.69353 0.05092 0.0
C2117 C 0.93414 0.68727 0.07587 0.0
C2118 C 0.9541 0.67381 0.08491 0.0
H2119 H 0.97017 0.59667 0.09681 0.0
H2120 H 0.95824 0.62479 0.10934 0.0
H2121 H 0.95639 0.6194 0.07693 0.0
H2122 H 0.98584 0.66649 0.03165 0.0
H2123 H 0.95128 0.69024 0.01585 0.0
H2124 H 0.64203 0.88134 0.31234 0.0
H2125 H 0.62411 0.84148 0.30254 0.0
H2126 H 0.64944 0.81232 0.37153 0.0
H2127 H 0.6666 0.85255 0.38197 0.0
H2128 H 0.64473 0.79633 0.2973 0.0
H2129 H 0.57747 0.79437 0.3736 0.0
H2130 H 0.59426 0.82176 0.36549 0.0
H2131 H 0.6087 0.79782 0.38314 0.0
C2132 C 0.64356 0.86657 0.32562 0.0
C2133 C 0.65546 0.87036 0.34814 0.0
C2134 C 0.63345 0.8437 0.31988 0.0
C2135 C 0.63494 0.82399 0.33649 0.0
C2136 C 0.64751 0.82739 0.35866 0.0
H2137 H 0.57836 0.67379 0.32779 0.0
H2138 H 0.59954 0.71157 0.34006 0.0
C2139 C 0.6576 0.85035 0.36446 0.0
C2140 C 0.62344 0.79998 0.3303 0.0
H2141 H 0.57981 0.75887 0.34874 0.0
C2142 C 0.63055 0.78815 0.30857 0.0
C2143 C 0.6049 0.78926 0.34499 0.0
C2144 C 0.59567 0.80152 0.36799 0.0
C2145 C 0.61972 0.76595 0.30117 0.0
C2146 C 0.60103 0.7554 0.31572 0.0
C2147 C 0.59414 0.76699 0.33762 0.0
C2148 C 0.58816 0.73256 0.3083 0.0
C2149 C 0.62858 0.75385 0.27795 0.0
C2150 C 0.57454 0.73188 0.28652 0.0
C2151 C 0.56243 0.71036 0.27954 0.0
C2152 C 0.56347 0.68924 0.29439 0.0
C2153 C 0.57714 0.6899 0.31613 0.0
C2154 C 0.58924 0.71143 0.32312 0.0
H2155 H 0.64704 0.76047 0.27257 0.0
H2156 H 0.62925 0.73352 0.28002 0.0
H2157 H 0.61574 0.75833 0.26285 0.0
H2158 H 0.57305 0.74809 0.27503 0.0
H2159 H 0.55182 0.71043 0.2628 0.0
H2160 H 0.58189 0.31487 0.585 0.0
H2161 H 0.54445 0.33614 0.59779 0.0
H2162 H 0.52053 0.33946 0.52256 0.0
H2163 H 0.55846 0.31936 0.50964 0.0
H2164 H 0.5114 0.38124 0.54366 0.0
H2165 H 0.47831 0.30752 0.60562 0.0
H2166 H 0.50772 0.31897 0.61444 0.0
H2167 H 0.50426 0.30324 0.58565 0.0
C2168 C 0.56864 0.32023 0.57123 0.0
C2169 C 0.57306 0.31548 0.54633 0.0
C2170 C 0.54712 0.33216 0.57857 0.0
C2171 C 0.5293 0.33892 0.56123 0.0
C2172 C 0.53391 0.33439 0.53633 0.0
H2173 H 0.3817 0.39569 0.56036 0.0
H2174 H 0.42223 0.37912 0.55072 0.0
C2175 C 0.55562 0.32294 0.52894 0.0
C2176 C 0.50605 0.35109 0.56881 0.0
H2177 H 0.45613 0.34519 0.60621 0.0
C2178 C 0.49933 0.37328 0.5573 0.0
C2179 C 0.49017 0.34074 0.58662 0.0
C2180 C 0.49534 0.3162 0.5986 0.0
C2181 C 0.4773 0.38535 0.56306 0.0
C2182 C 0.46157 0.37504 0.58087 0.0
C2183 C 0.46838 0.35312 0.5927 0.0
C2184 C 0.43736 0.38607 0.5866 0.0
C2185 C 0.47103 0.40907 0.55005 0.0
C2186 C 0.43236 0.39529 0.61007 0.0
C2187 C 0.40913 0.4047 0.61569 0.0
C2188 C 0.39039 0.40475 0.59802 0.0
C2189 C 0.39561 0.39567 0.57448 0.0
C2190 C 0.41884 0.38641 0.56885 0.0
H2191 H 0.48736 0.41751 0.54131 0.0
H2192 H 0.45741 0.40526 0.5355 0.0
H2193 H 0.46281 0.42255 0.56294 0.0
H2194 H 0.4464 0.39506 0.62406 0.0
H2195 H 0.40566 0.41136 0.63405 0.0
H2196 H 0.13831 0.66156 0.61504 0.0
H2197 H 0.11739 0.69605 0.63454 0.0
H2198 H 0.18063 0.70893 0.67984 0.0
H2199 H 0.20214 0.67479 0.65969 0.0
H2200 H 0.10469 0.70543 0.68182 0.0
H2201 H 0.16998 0.77605 0.648 0.0
H2202 H 0.16999 0.74488 0.63669 0.0
H2203 H 0.18357 0.75179 0.66583 0.0
C2204 C 0.14788 0.67179 0.62906 0.0
C2205 C 0.17209 0.66566 0.63546 0.0
C2206 C 0.1358 0.69143 0.64032 0.0
C2207 C 0.14759 0.70545 0.65828 0.0
C2208 C 0.17136 0.69874 0.6656 0.0
H2209 H 0.07261 0.81444 0.74863 0.0
H2210 H 0.09612 0.77919 0.73376 0.0
C2211 C 0.18353 0.67903 0.65428 0.0
C2212 C 0.13489 0.72726 0.66884 0.0
H2213 H 0.13788 0.78994 0.67355 0.0
C2214 C 0.11201 0.72389 0.68012 0.0
C2215 C 0.14427 0.75142 0.66627 0.0
C2216 C 0.16819 0.7564 0.65336 0.0
C2217 C 0.09829 0.74394 0.68887 0.0
C2218 C 0.10785 0.76801 0.68662 0.0
C2219 C 0.13069 0.77144 0.67536 0.0
C2220 C 0.09422 0.78986 0.69564 0.0
C2221 C 0.07338 0.7393 0.6999 0.0
C2222 C 0.08586 0.80793 0.67918 0.0
C2223 C 0.07243 0.82821 0.68763 0.0
C2224 C 0.06724 0.83081 0.71271 0.0
C2225 C 0.0762 0.81297 0.72918 0.0
C2226 C 0.08951 0.7927 0.72071 0.0
H2227 H 0.0664 0.7207 0.69531 0.0
H2228 H 0.07462 0.74068 0.72013 0.0
H2229 H 0.05994 0.75326 0.69347 0.0
H2230 H 0.08944 0.80614 0.65975 0.0
H2231 H 0.06602 0.84177 0.67455 0.0
H2232 H 0.45836 0.80643 0.99921 0.0
H2233 H 0.49386 0.83119 0.98708 0.0
H2234 H 0.45475 0.85672 0.92329 0.0
H2235 H 0.41904 0.83238 0.93563 0.0
H2236 H 0.52198 0.83083 0.9424 0.0
H2237 H 0.47527 0.9203 0.95914 0.0
H2238 H 0.46365 0.89152 0.97085 0.0
H2239 H 0.45939 0.89951 0.9392 0.0
C2240 C 0.45731 0.81751 0.98272 0.0
C2241 C 0.43599 0.81764 0.96837 0.0
C2242 C 0.47764 0.83142 0.97569 0.0
C2243 C 0.47685 0.84592 0.9544 0.0
C2244 C 0.45562 0.84588 0.93994 0.0
H2245 H 0.59984 0.92498 0.88708 0.0
H2246 H 0.56776 0.89457 0.89554 0.0
C2247 C 0.43531 0.83195 0.94694 0.0
C2248 C 0.49791 0.86177 0.94787 0.0
H2249 H 0.51496 0.92188 0.94227 0.0
C2250 C 0.52052 0.85075 0.94232 0.0
C2251 C 0.49592 0.88772 0.94799 0.0
C2252 C 0.47234 0.90056 0.9548 0.0
C2253 C 0.54128 0.86507 0.93694 0.0
C2254 C 0.53921 0.89105 0.93686 0.0
C2255 C 0.51652 0.90197 0.94227 0.0
C2256 C 0.56041 0.90751 0.93228 0.0
C2257 C 0.56533 0.85232 0.93203 0.0
C2258 C 0.56704 0.92479 0.95011 0.0
C2259 C 0.58517 0.94219 0.94528 0.0
C2260 C 0.59708 0.94279 0.92246 0.0
C2261 C 0.59114 0.92485 0.90491 0.0
C2262 C 0.57284 0.90745 0.90974 0.0
H2263 H 0.56521 0.83292 0.93855 0.0
H2264 H 0.56884 0.8522 0.91201 0.0
H2265 H 0.58066 0.86215 0.94102 0.0
H2266 H 0.55778 0.92515 0.96766 0.0
H2267 H 0.58957 0.95552 0.9593 0.0
H2268 H 0.92264 0.07427 0.37813 0.0
H2269 H 0.95637 0.10351 0.38438 0.0
H2270 H 0.93857 0.10741 0.46118 0.0
H2271 H 0.90502 0.07841 0.4551 0.0
H2272 H 0.95898 0.15306 0.4072 0.0
H2273 H 0.01035 0.08125 0.45848 0.0
H2274 H 0.98452 0.07412 0.43917 0.0
H2275 H 0.97972 0.08665 0.46922 0.0
C2276 C 0.92562 0.0818 0.39622 0.0
C2277 C 0.9114 0.07377 0.41619 0.0
C2278 C 0.94494 0.0984 0.39979 0.0
C2279 C 0.95029 0.10719 0.42335 0.0
C2280 C 0.93509 0.10046 0.44294 0.0
H2281 H 0.06412 0.18578 0.49829 0.0
H2282 H 0.02876 0.16184 0.48537 0.0
C2283 C 0.91591 0.08391 0.43943 0.0
C2284 C 0.97248 0.12223 0.42799 0.0
H2285 H 0.02644 0.12161 0.45947 0.0
C2286 C 0.97386 0.1462 0.41846 0.0
C2287 C 0.99185 0.1132 0.44269 0.0
C2288 C 0.99175 0.08732 0.45284 0.0
C2289 C 0.99365 0.16176 0.4241 0.0
C2290 C 0.01291 0.15281 0.43911 0.0
C2291 C 0.01171 0.12858 0.44808 0.0
C2292 C 0.0341 0.16832 0.44659 0.0
C2293 C 0.99316 0.18791 0.41472 0.0
C2294 C 0.04911 0.17996 0.42915 0.0
C2295 C 0.06925 0.19403 0.43656 0.0
C2296 C 0.0751 0.19628 0.46153 0.0
C2297 C 0.06023 0.18437 0.4789 0.0
C2298 C 0.03995 0.17066 0.47152 0.0
H2299 H 0.97431 0.19386 0.40983 0.0
H2300 H 1.00057 0.20088 0.42851 0.0
H2301 H 1.00458 0.18919 0.39795 0.0
H2302 H 0.04551 0.1779 0.40979 0.0
H2303 H 0.08046 0.2028 0.4227 0.0
loop_
_geom_bond_atom_site_label_1
_geom_bond_atom_site_label_2
_geom_bond_distance
_geom_bond_site_symmetry_2
_ccdc_geom_bond_type
C0 C2 1.422 . S
C0 C4 1.415 . S
C0 N6 1.369 . S
C1 C2 1.421 . S
C1 C3 1.417 . S
C1 C13 1.422 . S
C2 C0 1.422 . S
C2 C1 1.421 . S
C2 N12 1.359 . S
C3 C1 1.417 . S
C3 C5 1.329 . S
C3 H22 0.930 . S
C4 C0 1.415 . S
C4 C5 1.437 . S
C4 C8 1.413 . S
C5 C3 1.329 . S
C5 C4 1.437 . S
C5 H27 0.929 1_455 S
N6 C0 1.369 . S
N6 C7 1.338 . S
N6 Gd11 2.622 . S
C7 N6 1.338 . S
C7 C9 1.378 . S
C7 H19 0.929 . S
C8 C4 1.413 . S
C8 C9 1.348 . S
C8 H24 0.931 1_455 S
C9 C7 1.378 . S
C9 C8 1.348 . S
C9 H25 0.930 . S
Gd10 N30 2.622 . S
Gd10 N37 2.570 . S
Gd10 O44 2.353 . S
Gd10 O45 2.468 . S
Gd10 O46 2.427 . S
Gd10 O48 2.388 . S
Gd10 O49 2.386 . S
Gd10 O53 2.307 . S
Gd10 C63 2.805 . S
Gd11 N6 2.622 . S
Gd11 N12 2.570 . S
Gd11 O43 2.386 . S
Gd11 O47 2.307 . S
Gd11 O50 2.353 . S
Gd11 O51 2.468 . S
Gd11 O52 2.427 . S
Gd11 O54 2.388 . S
Gd11 C75 2.805 . S
N12 C2 1.359 . S
N12 Gd11 2.570 . S
N12 C14 1.343 . S
C13 C1 1.422 . S
C13 C15 1.321 . S
C13 H21 0.931 . S
C14 N12 1.343 . S
C14 C15 1.390 . S
C14 H16 0.931 . S
C15 C13 1.321 . S
C15 C14 1.390 . S
C15 H17 0.930 . S
H16 C14 0.931 . S
H17 C15 0.930 . S
H18 C41 0.931 . S
H19 C7 0.929 . S
H20 C42 0.930 . S
H21 C13 0.931 . S
H22 C3 0.930 . S
H23 C32 0.929 . S
H24 C8 0.931 1_655 S
H25 C9 0.930 . S
H26 C64 0.930 . S
H27 C5 0.929 1_655 S
H28 C33 0.931 . S
H29 C34 0.930 . S
N30 Gd10 2.622 . S
N30 C31 1.369 . S
N30 C32 1.338 . S
C31 N30 1.369 . S
C31 C35 1.415 . S
C31 C38 1.422 . S
C32 H23 0.929 . S
C32 N30 1.338 . S
C32 C34 1.378 . S
C33 H28 0.931 . S
C33 C34 1.348 . S
C33 C35 1.413 . S
C34 H29 0.930 . S
C34 C32 1.378 . S
C34 C33 1.348 . S
C35 C31 1.415 . S
C35 C33 1.413 . S
C35 C65 1.437 . S
H36 C65 0.929 . S
N37 Gd10 2.570 . S
N37 C38 1.359 . S
N37 C41 1.343 . S
C38 C31 1.422 . S
C38 N37 1.359 . S
C38 C40 1.421 . S
C39 C40 1.422 . S
C39 C42 1.321 . S
C39 H66 0.931 . S
C40 C38 1.421 . S
C40 C39 1.422 . S
C40 C64 1.417 . S
C41 H18 0.931 . S
C41 N37 1.343 . S
C41 C42 1.390 . S
C42 H20 0.930 . S
C42 C39 1.321 . S
C42 C41 1.390 . S
O43 Gd11 2.386 . S
O43 C55 1.265 . S
O44 Gd10 2.353 . S
O44 C55 1.242 . S
O45 Gd10 2.468 . S
O45 C63 1.263 . S
O46 Gd10 2.427 . S
O46 C63 1.252 . S
O47 Gd11 2.307 . S
O47 C56 1.261 . S
O48 Gd10 2.388 . S
O48 C56 1.252 . S
O49 Gd10 2.386 . S
O49 C67 1.265 . S
O50 Gd11 2.353 . S
O50 C67 1.242 . S
O51 Gd11 2.468 . S
O51 C75 1.263 . S
O52 Gd11 2.427 . S
O52 C75 1.252 . S
O53 Gd10 2.307 . S
O53 C68 1.261 . S
O54 Gd11 2.388 . S
O54 C68 1.252 . S
C55 O43 1.265 . S
C55 O44 1.242 . S
C56 O47 1.261 . S
C56 O48 1.252 . S
C57 C60 1.394 . S
C57 C62 1.370 . S
C57 C63 1.500 . S
C58 C61 1.383 . S
C58 C62 1.395 . S
C59 C60 1.396 . S
C59 C61 1.365 . S
C59 H76 0.929 . S
C60 C57 1.394 . S
C60 C59 1.396 . S
C60 H77 0.930 . S
C61 C58 1.383 . S
C61 C59 1.365 . S
C61 H78 0.931 . S
C62 C57 1.370 . S
C62 C58 1.395 . S
C62 H79 0.930 . S
C63 Gd10 2.805 . S
C63 O45 1.263 . S
C63 O46 1.252 . S
C63 C57 1.500 . S
C64 H26 0.930 . S
C64 C40 1.417 . S
C64 C65 1.329 . S
C65 C35 1.437 . S
C65 H36 0.929 . S
C65 C64 1.329 . S
H66 C39 0.931 . S
C67 O49 1.265 . S
C67 O50 1.242 . S
C68 O53 1.261 . S
C68 O54 1.252 . S
C69 C72 1.394 . S
C69 C74 1.370 . S
C69 C75 1.500 . S
C70 C73 1.383 . S
C70 C74 1.395 . S
C71 C72 1.396 . S
C71 C73 1.365 . S
C71 H80 0.929 . S
C72 C69 1.394 . S
C72 C71 1.396 . S
C72 H81 0.930 . S
C73 C70 1.383 . S
C73 C71 1.365 . S
C73 H82 0.931 . S
C74 C69 1.370 . S
C74 C70 1.395 . S
C74 H83 0.930 . S
C75 Gd11 2.805 . S
C75 O51 1.263 . S
C75 O52 1.252 . S
C75 C69 1.500 . S
H76 C59 0.929 . S
H77 C60 0.930 . S
H78 C61 0.931 . S
H79 C62 0.930 . S
H80 C71 0.929 . S
H81 C72 0.930 . S
H82 C73 0.931 . S
H83 C74 0.930 . S
C84 C86 1.422 . S
C84 C88 1.415 . S
C84 N90 1.369 . S
C85 C86 1.421 . S
C85 C87 1.417 . S
C85 C97 1.422 . S
C86 C84 1.422 . S
C86 C85 1.421 . S
C86 N96 1.359 . S
C87 C85 1.417 . S
C87 C89 1.329 . S
C87 H106 0.930 . S
C88 C84 1.415 . S
C88 C89 1.437 . S
C88 C92 1.413 . S
C89 C87 1.329 . S
C89 C88 1.437 . S
C89 H111 0.929 . S
N90 C84 1.369 . S
N90 C91 1.338 1_655 S
N90 Gd95 2.622 . S
C91 N90 1.338 1_455 S
C91 C93 1.384 . S
C91 H103 0.929 . S
C92 C88 1.413 . S
C92 C93 1.314 1_655 S
C92 H108 0.931 . S
C93 C91 1.384 . S
C93 C92 1.314 1_455 S
C93 H109 0.959 . S
Gd94 N114 2.622 . S
Gd94 N121 2.570 . S
Gd94 O128 2.353 . S
Gd94 O129 2.468 . S
Gd94 O130 2.427 . S
Gd94 O132 2.388 . S
Gd94 O133 2.386 . S
Gd94 O137 2.307 . S
Gd94 C147 2.805 . S
Gd95 N90 2.622 . S
Gd95 N96 2.570 . S
Gd95 O127 2.385 1_655 S
Gd95 O131 2.307 . S
Gd95 O134 2.353 1_655 S
Gd95 O135 2.468 . S
Gd95 O136 2.427 . S
Gd95 O138 2.388 1_655 S
Gd95 C159 2.805 . S
N96 C86 1.359 . S
N96 Gd95 2.570 . S
N96 C98 1.343 . S
C97 C85 1.422 . S
C97 C99 1.321 . S
C97 H105 0.931 . S
C98 N96 1.343 . S
C98 C99 1.390 . S
C98 H100 0.931 . S
C99 C97 1.321 . S
C99 C98 1.390 . S
C99 H101 0.930 . S
H100 C98 0.931 . S
H101 C99 0.930 . S
H102 C125 0.931 . S
H103 C91 0.929 . S
H104 C126 0.930 . S
H105 C97 0.931 . S
H106 C87 0.930 . S
H107 C116 0.929 . S
H108 C92 0.931 . S
H109 C93 0.959 . S
H110 C148 0.930 . S
H111 C89 0.929 . S
H112 C117 0.931 1_545 S
H113 C118 0.930 . S
N114 Gd94 2.622 . S
N114 C115 1.369 . S
N114 C116 1.338 . S
C115 N114 1.369 . S
C115 C119 1.415 . S
C115 C122 1.422 . S
C116 H107 0.929 . S
C116 N114 1.338 . S
C116 C118 1.378 . S
C117 H112 0.931 1_565 S
C117 C118 1.348 . S
C117 C119 1.413 . S
C118 H113 0.930 . S
C118 C116 1.378 . S
C118 C117 1.348 . S
C119 C115 1.415 . S
C119 C117 1.413 . S
C119 C149 1.437 . S
H120 C149 0.929 1_545 S
N121 Gd94 2.570 . S
N121 C122 1.359 . S
N121 C125 1.343 . S
C122 C115 1.422 . S
C122 N121 1.359 . S
C122 C124 1.421 . S
C123 C124 1.422 . S
C123 C126 1.321 . S
C123 H150 0.931 . S
C124 C122 1.421 . S
C124 C123 1.422 . S
C124 C148 1.417 . S
C125 H102 0.931 . S
C125 N121 1.343 . S
C125 C126 1.390 . S
C126 H104 0.930 . S
C126 C123 1.321 . S
C126 C125 1.390 . S
O127 Gd95 2.385 1_455 S
O127 C139 1.268 . S
O128 Gd94 2.353 . S
O128 C139 1.242 . S
O129 Gd94 2.468 . S
O129 C147 1.263 . S
O130 Gd94 2.427 . S
O130 C147 1.252 . S
O131 Gd95 2.307 . S
O131 C140 1.261 . S
O132 Gd94 2.388 . S
O132 C140 1.252 1_455 S
O133 Gd94 2.386 . S
O133 C151 1.265 . S
O134 Gd95 2.353 1_455 S
O134 C151 1.242 . S
O135 Gd95 2.468 . S
O135 C159 1.263 . S
O136 Gd95 2.427 . S
O136 C159 1.252 . S
O137 Gd94 2.307 . S
O137 C152 1.261 . S
O138 Gd95 2.388 1_455 S
O138 C152 1.252 . S
C139 O127 1.268 . S
C139 O128 1.242 . S
C140 O131 1.261 . S
C140 O132 1.252 1_655 S
C141 C144 1.394 . S
C141 C146 1.370 . S
C141 C147 1.500 . S
C142 C145 1.383 . S
C142 C146 1.395 . S
C143 C144 1.396 . S
C143 C145 1.365 . S
C143 H160 0.929 . S
C144 C141 1.394 . S
C144 C143 1.396 . S
C144 H161 0.930 . S
C145 C142 1.383 . S
C145 C143 1.365 . S
C145 H162 0.931 . S
C146 C141 1.370 . S
C146 C142 1.395 . S
C146 H163 0.930 . S
C147 Gd94 2.805 . S
C147 O129 1.263 . S
C147 O130 1.252 . S
C147 C141 1.500 . S
C148 H110 0.930 . S
C148 C124 1.417 . S
C148 C149 1.329 . S
C149 C119 1.437 . S
C149 H120 0.929 1_565 S
C149 C148 1.329 . S
H150 C123 0.931 . S
C151 O133 1.265 . S
C151 O134 1.242 . S
C152 O137 1.261 . S
C152 O138 1.252 . S
C153 C156 1.394 . S
C153 C158 1.370 . S
C153 C159 1.500 . S
C154 C157 1.383 . S
C154 C158 1.395 . S
C155 C156 1.396 . S
C155 C157 1.365 . S
C155 H164 0.929 . S
C156 C153 1.394 . S
C156 C155 1.396 . S
C156 H165 0.930 . S
C157 C154 1.383 . S
C157 C155 1.365 . S
C157 H166 0.931 . S
C158 C153 1.370 . S
C158 C154 1.395 . S
C158 H167 0.930 . S
C159 Gd95 2.805 . S
C159 O135 1.263 . S
C159 O136 1.252 . S
C159 C153 1.500 . S
H160 C143 0.929 . S
H161 C144 0.930 . S
H162 C145 0.931 . S
H163 C146 0.930 . S
H164 C155 0.929 . S
H165 C156 0.930 . S
H166 C157 0.931 . S
H167 C158 0.930 . S
C168 C170 1.422 . S
C168 C172 1.415 . S
C168 N174 1.369 . S
C169 C170 1.421 . S
C169 C171 1.417 . S
C169 C181 1.422 . S
C170 C168 1.422 . S
C170 C169 1.421 . S
C170 N180 1.359 . S
C171 C169 1.417 . S
C171 C173 1.329 . S
C171 H190 0.930 . S
C172 C168 1.415 . S
C172 C173 1.437 . S
C172 C176 1.413 . S
C173 C171 1.329 . S
C173 C172 1.437 . S
C173 H195 0.929 . S
N174 C168 1.369 . S
N174 C175 1.338 1_554 S
N174 Gd179 2.622 . S
C175 N174 1.338 1_556 S
C175 C177 1.378 . S
C175 H187 0.929 . S
C176 C172 1.413 . S
C176 C177 1.348 1_554 S
C176 H192 0.931 . S
C177 C175 1.378 . S
C177 C176 1.348 1_556 S
C177 H193 0.930 . S
Gd178 N198 2.622 . S
Gd178 N205 2.570 . S
Gd178 O212 2.353 . S
Gd178 O213 2.468 . S
Gd178 O214 2.427 . S
Gd178 O216 2.388 . S
Gd178 O217 2.386 . S
Gd178 O221 2.307 . S
Gd178 C231 2.805 . S
Gd179 N174 2.622 . S
Gd179 N180 2.570 . S
Gd179 O211 2.381 1_554 S
Gd179 O215 2.307 . S
Gd179 O218 2.353 1_554 S
Gd179 O219 2.468 . S
Gd179 O220 2.427 . S
Gd179 O222 2.388 1_554 S
Gd179 C243 2.805 . S
N180 C170 1.359 . S
N180 Gd179 2.570 . S
N180 C182 1.343 . S
C181 C169 1.422 . S
C181 C183 1.321 . S
C181 H189 0.931 . S
C182 N180 1.343 . S
C182 C183 1.390 . S
C182 H184 0.931 . S
C183 C181 1.321 . S
C183 C182 1.390 . S
C183 H185 0.930 . S
H184 C182 0.931 . S
H185 C183 0.930 . S
H186 C209 0.931 . S
H187 C175 0.929 . S
H188 C210 0.930 . S
H189 C181 0.931 . S
H190 C171 0.930 . S
H191 C200 0.929 . S
H192 C176 0.931 . S
H193 C177 0.930 . S
H194 C232 0.930 . S
H195 C173 0.929 . S
H196 C201 0.931 . S
H197 C202 0.930 . S
N198 Gd178 2.622 . S
N198 C199 1.369 . S
N198 C200 1.338 . S
C199 N198 1.369 . S
C199 C203 1.415 . S
C199 C206 1.422 . S
C200 H191 0.929 . S
C200 N198 1.338 . S
C200 C202 1.378 . S
C201 H196 0.931 . S
C201 C202 1.348 . S
C201 C203 1.413 . S
C202 H197 0.930 . S
C202 C200 1.378 . S
C202 C201 1.348 . S
C203 C199 1.415 . S
C203 C201 1.413 . S
C203 C233 1.437 . S
H204 C233 0.929 . S
N205 Gd178 2.570 . S
N205 C206 1.359 . S
N205 C209 1.343 . S
C206 C199 1.422 . S
C206 N205 1.359 . S
C206 C208 1.421 . S
C207 C208 1.422 . S
C207 C210 1.321 . S
C207 H234 0.931 . S
C208 C206 1.421 . S
C208 C207 1.422 . S
C208 C232 1.417 . S
C209 H186 0.931 . S
C209 N205 1.343 . S
C209 C210 1.390 . S
C210 H188 0.930 . S
C210 C207 1.321 . S
C210 C209 1.390 . S
O211 Gd179 2.381 1_556 S
O211 C223 1.277 . S
O212 Gd178 2.353 . S
O212 C223 1.242 . S
O213 Gd178 2.468 . S
O213 C231 1.263 . S
O214 Gd178 2.427 . S
O214 C231 1.252 . S
O215 Gd179 2.307 . S
O215 C224 1.261 . S
O216 Gd178 2.388 . S
O216 C224 1.252 1_556 S
O217 Gd178 2.386 . S
O217 C235 1.265 . S
O218 Gd179 2.353 1_556 S
O218 C235 1.242 . S
O219 Gd179 2.468 . S
O219 C243 1.263 . S
O220 Gd179 2.427 . S
O220 C243 1.252 . S
O221 Gd178 2.307 . S
O221 C236 1.261 . S
O222 Gd179 2.388 1_556 S
O222 C236 1.252 . S
C223 O211 1.277 . S
C223 O212 1.242 . S
C224 O215 1.261 . S
C224 O216 1.252 1_554 S
C225 C228 1.394 . S
C225 C230 1.370 . S
C225 C231 1.500 . S
C226 C229 1.383 . S
C226 C230 1.395 . S
C227 C228 1.396 . S
C227 C229 1.365 . S
C227 H244 0.929 . S
C228 C225 1.394 . S
C228 C227 1.396 . S
C228 H245 0.930 . S
C229 C226 1.383 . S
C229 C227 1.365 . S
C229 H246 0.931 . S
C230 C225 1.370 . S
C230 C226 1.395 . S
C230 H247 0.930 . S
C231 Gd178 2.805 . S
C231 O213 1.263 . S
C231 O214 1.252 . S
C231 C225 1.500 . S
C232 H194 0.930 . S
C232 C208 1.417 . S
C232 C233 1.329 . S
C233 C203 1.437 . S
C233 H204 0.929 . S
C233 C232 1.329 . S
H234 C207 0.931 . S
C235 O217 1.265 . S
C235 O218 1.242 . S
C236 O221 1.261 . S
C236 O222 1.252 . S
C237 C240 1.394 . S
C237 C242 1.370 . S
C237 C243 1.500 . S
C238 C241 1.383 . S
C238 C242 1.395 . S
C239 C240 1.396 . S
C239 C241 1.365 . S
C239 H248 0.929 . S
C240 C237 1.394 . S
C240 C239 1.396 . S
C240 H249 0.930 . S
C241 C238 1.383 . S
C241 C239 1.365 . S
C241 H250 0.931 . S
C242 C237 1.370 . S
C242 C238 1.395 . S
C242 H251 0.930 . S
C243 Gd179 2.805 . S
C243 O219 1.263 . S
C243 O220 1.252 . S
C243 C237 1.500 . S
H244 C227 0.929 . S
H245 C228 0.930 . S
H246 C229 0.931 . S
H247 C230 0.930 . S
H248 C239 0.929 . S
H249 C240 0.930 . S
H250 C241 0.931 . S
H251 C242 0.930 . S
C252 C254 1.422 . S
C252 C256 1.415 . S
C252 N258 1.369 . S
C253 C254 1.421 . S
C253 C255 1.417 . S
C253 C265 1.422 . S
C254 C252 1.422 . S
C254 C253 1.421 . S
C254 N264 1.359 . S
C255 C253 1.417 . S
C255 C257 1.329 . S
C255 H274 0.930 . S
C256 C252 1.415 . S
C256 C257 1.437 . S
C256 C260 1.413 . S
C257 C255 1.329 . S
C257 C256 1.437 . S
C257 H279 0.929 . S
N258 C252 1.369 . S
N258 C259 1.338 . S
N258 Gd263 2.622 . S
C259 N258 1.338 . S
C259 C261 1.378 . S
C259 H271 0.929 . S
C260 C256 1.413 . S
C260 C261 1.348 . S
C260 H276 0.931 . S
C261 C259 1.378 . S
C261 C260 1.348 . S
C261 H277 0.930 . S
Gd262 N282 2.622 . S
Gd262 N289 2.570 . S
Gd262 O296 2.353 . S
Gd262 O297 2.468 . S
Gd262 O298 2.427 . S
Gd262 O300 2.388 . S
Gd262 O301 2.386 . S
Gd262 O305 2.307 . S
Gd262 C315 2.805 . S
Gd263 N258 2.622 . S
Gd263 N264 2.570 . S
Gd263 O295 2.386 . S
Gd263 O299 2.307 . S
Gd263 O302 2.353 . S
Gd263 O303 2.468 . S
Gd263 O304 2.427 . S
Gd263 O306 2.388 . S
Gd263 C327 2.805 . S
N264 C254 1.359 . S
N264 Gd263 2.570 . S
N264 C266 1.343 . S
C265 C253 1.422 . S
C265 C267 1.321 . S
C265 H273 0.931 . S
C266 N264 1.343 . S
C266 C267 1.390 . S
C266 H268 0.931 . S
C267 C265 1.321 . S
C267 C266 1.390 . S
C267 H269 0.930 . S
H268 C266 0.931 . S
H269 C267 0.930 . S
H270 C293 0.931 . S
H271 C259 0.929 . S
H272 C294 0.930 . S
H273 C265 0.931 . S
H274 C255 0.930 . S
H275 C284 0.929 . S
H276 C260 0.931 . S
H277 C261 0.930 . S
H278 C316 0.930 . S
H279 C257 0.929 . S
H280 C285 0.931 1_565 S
H281 C286 0.930 . S
N282 Gd262 2.622 . S
N282 C283 1.369 . S
N282 C284 1.338 . S
C283 N282 1.369 . S
C283 C287 1.415 . S
C283 C290 1.422 . S
C284 H275 0.929 . S
C284 N282 1.338 . S
C284 C286 1.378 . S
C285 H280 0.931 1_545 S
C285 C286 1.348 . S
C285 C287 1.413 . S
C286 H281 0.930 . S
C286 C284 1.378 . S
C286 C285 1.348 . S
C287 C283 1.415 . S
C287 C285 1.413 . S
C287 C317 1.437 . S
H288 C317 0.922 1_565 S
N289 Gd262 2.570 . S
N289 C290 1.359 . S
N289 C293 1.343 . S
C290 C283 1.422 . S
C290 N289 1.359 . S
C290 C292 1.421 . S
C291 C292 1.422 . S
C291 C294 1.321 . S
C291 H318 0.931 . S
C292 C290 1.421 . S
C292 C291 1.422 . S
C292 C316 1.417 . S
C293 H270 0.931 . S
C293 N289 1.343 . S
C293 C294 1.390 . S
C294 H272 0.930 . S
C294 C291 1.321 . S
C294 C293 1.390 . S
O295 Gd263 2.386 . S
O295 C307 1.265 . S
O296 Gd262 2.353 . S
O296 C307 1.242 . S
O297 Gd262 2.468 . S
O297 C315 1.263 . S
O298 Gd262 2.427 . S
O298 C315 1.252 . S
O299 Gd263 2.307 . S
O299 C308 1.261 . S
O300 Gd262 2.388 . S
O300 C308 1.252 . S
O301 Gd262 2.386 . S
O301 C319 1.265 . S
O302 Gd263 2.353 . S
O302 C319 1.242 . S
O303 Gd263 2.468 . S
O303 C327 1.263 . S
O304 Gd263 2.427 . S
O304 C327 1.252 . S
O305 Gd262 2.307 . S
O305 C320 1.261 . S
O306 Gd263 2.388 . S
O306 C320 1.252 . S
C307 O295 1.265 . S
C307 O296 1.242 . S
C308 O299 1.261 . S
C308 O300 1.252 . S
C309 C312 1.394 . S
C309 C314 1.370 . S
C309 C315 1.500 . S
C310 C313 1.383 . S
C310 C314 1.395 . S
C311 C312 1.396 . S
C311 C313 1.365 . S
C311 H328 0.929 . S
C312 C309 1.394 . S
C312 C311 1.396 . S
C312 H329 0.930 . S
C313 C310 1.383 . S
C313 C311 1.365 . S
C313 H330 0.931 . S
C314 C309 1.370 . S
C314 C310 1.395 . S
C314 H331 0.930 . S
C315 Gd262 2.805 . S
C315 O297 1.263 . S
C315 O298 1.252 . S
C315 C309 1.500 . S
C316 H278 0.930 . S
C316 C292 1.417 . S
C316 C317 1.329 . S
C317 C287 1.437 . S
C317 H288 0.922 1_545 S
C317 C316 1.329 . S
H318 C291 0.931 . S
C319 O301 1.265 . S
C319 O302 1.242 . S
C320 O305 1.261 . S
C320 O306 1.252 . S
C321 C324 1.394 . S
C321 C326 1.370 . S
C321 C327 1.500 . S
C322 C325 1.383 . S
C322 C326 1.395 . S
C323 C324 1.396 . S
C323 C325 1.365 . S
C323 H332 0.929 . S
C324 C321 1.394 . S
C324 C323 1.396 . S
C324 H333 0.930 . S
C325 C322 1.383 . S
C325 C323 1.365 . S
C325 H334 0.931 . S
C326 C321 1.370 . S
C326 C322 1.395 . S
C326 H335 0.930 . S
C327 Gd263 2.805 . S
C327 O303 1.263 . S
C327 O304 1.252 . S
C327 C321 1.500 . S
H328 C311 0.929 . S
H329 C312 0.930 . S
H330 C313 0.931 . S
H331 C314 0.930 . S
H332 C323 0.929 . S
H333 C324 0.930 . S
H334 C325 0.931 . S
H335 C326 0.930 . S
C336 C338 1.422 . S
C336 C340 1.415 . S
C336 N342 1.369 . S
C337 C338 1.421 . S
C337 C339 1.417 . S
C337 C349 1.422 . S
C338 C336 1.422 . S
C338 C337 1.421 . S
C338 N348 1.359 . S
C339 C337 1.417 . S
C339 C341 1.329 . S
C339 H358 0.930 . S
C340 C336 1.415 . S
C340 C341 1.437 . S
C340 C344 1.413 . S
C341 C339 1.329 . S
C341 C340 1.437 . S
C341 H363 0.929 . S
N342 C336 1.369 . S
N342 C343 1.338 . S
N342 Gd347 2.622 . S
C343 N342 1.338 . S
C343 C345 1.378 . S
C343 H355 0.929 . S
C344 C340 1.413 . S
C344 C345 1.348 . S
C344 H360 0.931 . S
C345 C343 1.378 . S
C345 C344 1.348 . S
C345 H361 0.930 . S
Gd346 N366 2.622 . S
Gd346 N373 2.570 . S
Gd346 O380 2.353 . S
Gd346 O381 2.468 . S
Gd346 O382 2.427 . S
Gd346 O384 2.388 . S
Gd346 O385 2.386 . S
Gd346 O389 2.307 . S
Gd346 C399 2.805 . S
Gd347 N342 2.622 . S
Gd347 N348 2.570 . S
Gd347 O379 2.386 . S
Gd347 O383 2.307 . S
Gd347 O386 2.353 . S
Gd347 O387 2.468 . S
Gd347 O388 2.427 . S
Gd347 O390 2.388 . S
Gd347 C411 2.805 . S
N348 C338 1.359 . S
N348 Gd347 2.570 . S
N348 C350 1.343 . S
C349 C337 1.422 . S
C349 C351 1.321 . S
C349 H357 0.931 . S
C350 N348 1.343 . S
C350 C351 1.390 . S
C350 H352 0.931 . S
C351 C349 1.321 . S
C351 C350 1.390 . S
C351 H353 0.930 . S
H352 C350 0.931 . S
H353 C351 0.930 . S
H354 C377 0.931 . S
H355 C343 0.929 . S
H356 C378 0.930 . S
H357 C349 0.931 . S
H358 C339 0.930 . S
H359 C368 0.929 . S
H360 C344 0.931 . S
H361 C345 0.930 . S
H362 C400 0.930 . S
H363 C341 0.929 . S
H364 C369 0.931 . S
H365 C370 0.930 . S
N366 Gd346 2.622 . S
N366 C367 1.369 . S
N366 C368 1.338 . S
C367 N366 1.369 . S
C367 C371 1.415 . S
C367 C374 1.422 . S
C368 H359 0.929 . S
C368 N366 1.338 . S
C368 C370 1.378 . S
C369 H364 0.931 . S
C369 C370 1.348 . S
C369 C371 1.413 . S
C370 H365 0.930 . S
C370 C368 1.378 . S
C370 C369 1.348 . S
C371 C367 1.415 . S
C371 C369 1.413 . S
C371 C401 1.437 . S
H372 C401 0.929 . S
N373 Gd346 2.570 . S
N373 C374 1.359 . S
N373 C377 1.343 . S
C374 C367 1.422 . S
C374 N373 1.359 . S
C374 C376 1.421 . S
C375 C376 1.422 . S
C375 C378 1.321 . S
C375 H402 0.931 . S
C376 C374 1.421 . S
C376 C375 1.422 . S
C376 C400 1.417 . S
C377 H354 0.931 . S
C377 N373 1.343 . S
C377 C378 1.390 . S
C378 H356 0.930 . S
C378 C375 1.321 . S
C378 C377 1.390 . S
O379 Gd347 2.386 . S
O379 C391 1.265 . S
O380 Gd346 2.353 . S
O380 C391 1.242 . S
O381 Gd346 2.468 . S
O381 C399 1.263 . S
O382 Gd346 2.427 . S
O382 C399 1.252 . S
O383 Gd347 2.307 . S
O383 C392 1.261 . S
O384 Gd346 2.388 . S
O384 C392 1.252 . S
O385 Gd346 2.386 . S
O385 C403 1.265 . S
O386 Gd347 2.353 . S
O386 C403 1.242 . S
O387 Gd347 2.468 . S
O387 C411 1.263 . S
O388 Gd347 2.427 . S
O388 C411 1.252 . S
O389 Gd346 2.307 . S
O389 C404 1.261 . S
O390 Gd347 2.388 . S
O390 C404 1.252 . S
C391 O379 1.265 . S
C391 O380 1.242 . S
C392 O383 1.261 . S
C392 O384 1.252 . S
C393 C396 1.394 . S
C393 C398 1.370 . S
C393 C399 1.500 . S
C394 C397 1.383 . S
C394 C398 1.395 . S
C395 C396 1.396 . S
C395 C397 1.365 . S
C395 H412 0.929 . S
C396 C393 1.394 . S
C396 C395 1.396 . S
C396 H413 0.930 . S
C397 C394 1.383 . S
C397 C395 1.365 . S
C397 H414 0.931 . S
C398 C393 1.370 . S
C398 C394 1.395 . S
C398 H415 0.930 . S
C399 Gd346 2.805 . S
C399 O381 1.263 . S
C399 O382 1.252 . S
C399 C393 1.500 . S
C400 H362 0.930 . S
C400 C376 1.417 . S
C400 C401 1.329 . S
C401 C371 1.437 . S
C401 H372 0.929 . S
C401 C400 1.329 . S
H402 C375 0.931 . S
C403 O385 1.265 . S
C403 O386 1.242 . S
C404 O389 1.261 . S
C404 O390 1.252 . S
C405 C408 1.394 . S
C405 C410 1.370 . S
C405 C411 1.500 . S
C406 C409 1.383 . S
C406 C410 1.395 . S
C407 C408 1.396 . S
C407 C409 1.365 . S
C407 H416 0.929 . S
C408 C405 1.394 . S
C408 C407 1.396 . S
C408 H417 0.930 . S
C409 C406 1.383 . S
C409 C407 1.365 . S
C409 H418 0.931 . S
C410 C405 1.370 . S
C410 C406 1.395 . S
C410 H419 0.930 . S
C411 Gd347 2.805 . S
C411 O387 1.263 . S
C411 O388 1.252 . S
C411 C405 1.500 . S
H412 C395 0.929 . S
H413 C396 0.930 . S
H414 C397 0.931 . S
H415 C398 0.930 . S
H416 C407 0.929 . S
H417 C408 0.930 . S
H418 C409 0.931 . S
H419 C410 0.930 . S
C420 C422 1.422 . S
C420 C424 1.415 . S
C420 N426 1.369 . S
C421 C422 1.421 . S
C421 C423 1.417 . S
C421 C433 1.422 . S
C422 C420 1.422 . S
C422 C421 1.421 . S
C422 N432 1.359 . S
C423 C421 1.417 . S
C423 C425 1.329 . S
C423 H442 0.930 . S
C424 C420 1.415 . S
C424 C425 1.437 . S
C424 C428 1.413 . S
C425 C423 1.329 . S
C425 C424 1.437 . S
C425 H447 0.929 . S
N426 C420 1.369 . S
N426 C427 1.338 . S
N426 Gd431 2.622 . S
C427 N426 1.338 . S
C427 C429 1.378 . S
C427 H439 0.929 . S
C428 C424 1.413 . S
C428 C429 1.348 . S
C428 H444 0.931 . S
C429 C427 1.378 . S
C429 C428 1.348 . S
C429 H445 0.930 . S
Gd430 N450 2.622 . S
Gd430 N457 2.570 1_455 S
Gd430 O464 2.353 . S
Gd430 O465 2.468 . S
Gd430 O466 2.427 . S
Gd430 O468 2.388 . S
Gd430 O469 2.386 1_455 S
Gd430 O473 2.307 1_455 S
Gd430 C483 2.805 . S
Gd431 N426 2.622 . S
Gd431 N432 2.570 . S
Gd431 O463 2.386 . S
Gd431 O467 2.307 . S
Gd431 O470 2.353 . S
Gd431 O471 2.468 . S
Gd431 O472 2.427 . S
Gd431 O474 2.388 . S
Gd431 C495 2.805 . S
N432 C422 1.359 . S
N432 Gd431 2.570 . S
N432 C434 1.343 . S
C433 C421 1.422 . S
C433 C435 1.321 . S
C433 H441 0.931 . S
C434 N432 1.343 . S
C434 C435 1.390 . S
C434 H436 0.931 . S
C435 C433 1.321 . S
C435 C434 1.390 . S
C435 H437 0.930 . S
H436 C434 0.931 . S
H437 C435 0.930 . S
H438 C461 0.931 . S
H439 C427 0.929 . S
H440 C462 0.930 . S
H441 C433 0.931 . S
H442 C423 0.930 . S
H443 C452 0.929 . S
H444 C428 0.931 . S
H445 C429 0.930 . S
H446 C484 0.930 . S
H447 C425 0.929 . S
H448 C453 0.931 . S
H449 C454 0.930 . S
N450 Gd430 2.622 . S
N450 C451 1.369 . S
N450 C452 1.338 . S
C451 N450 1.369 . S
C451 C455 1.415 . S
C451 C458 1.422 1_455 S
C452 H443 0.929 . S
C452 N450 1.338 . S
C452 C454 1.378 . S
C453 H448 0.931 . S
C453 C454 1.348 . S
C453 C455 1.413 . S
C454 H449 0.930 . S
C454 C452 1.378 . S
C454 C453 1.348 . S
C455 C451 1.415 . S
C455 C453 1.413 . S
C455 C485 1.437 1_455 S
H456 C485 0.931 . S
N457 Gd430 2.570 1_655 S
N457 C458 1.359 . S
N457 C461 1.343 . S
C458 C451 1.422 1_655 S
C458 N457 1.359 . S
C458 C460 1.421 . S
C459 C460 1.422 . S
C459 C462 1.321 . S
C459 H486 0.931 . S
C460 C458 1.421 . S
C460 C459 1.422 . S
C460 C484 1.417 . S
C461 H438 0.931 . S
C461 N457 1.343 . S
C461 C462 1.390 . S
C462 H440 0.930 . S
C462 C459 1.321 . S
C462 C461 1.390 . S
O463 Gd431 2.386 . S
O463 C475 1.265 1_655 S
O464 Gd430 2.353 . S
O464 C475 1.242 . S
O465 Gd430 2.468 . S
O465 C483 1.263 . S
O466 Gd430 2.427 . S
O466 C483 1.252 . S
O467 Gd431 2.307 . S
O467 C476 1.261 . S
O468 Gd430 2.388 . S
O468 C476 1.252 1_455 S
O469 Gd430 2.386 1_655 S
O469 C487 1.265 . S
O470 Gd431 2.353 . S
O470 C487 1.242 . S
O471 Gd431 2.468 . S
O471 C495 1.263 . S
O472 Gd431 2.427 . S
O472 C495 1.252 . S
O473 Gd430 2.307 1_655 S
O473 C488 1.261 . S
O474 Gd431 2.388 . S
O474 C488 1.252 . S
C475 O463 1.265 1_455 S
C475 O464 1.242 . S
C476 O467 1.261 . S
C476 O468 1.252 1_655 S
C477 C480 1.394 . S
C477 C482 1.370 . S
C477 C483 1.500 . S
C478 C481 1.383 . S
C478 C482 1.395 . S
C479 C480 1.396 . S
C479 C481 1.365 . S
C479 H496 0.929 . S
C480 C477 1.394 . S
C480 C479 1.396 . S
C480 H497 0.930 . S
C481 C478 1.383 . S
C481 C479 1.365 . S
C481 H498 0.931 . S
C482 C477 1.370 . S
C482 C478 1.395 . S
C482 H499 0.930 . S
C483 Gd430 2.805 . S
C483 O465 1.263 . S
C483 O466 1.252 . S
C483 C477 1.500 . S
C484 H446 0.930 . S
C484 C460 1.417 . S
C484 C485 1.329 . S
C485 C455 1.437 1_655 S
C485 H456 0.931 . S
C485 C484 1.329 . S
H486 C459 0.931 . S
C487 O469 1.265 . S
C487 O470 1.242 . S
C488 O473 1.261 . S
C488 O474 1.252 . S
C489 C492 1.394 . S
C489 C494 1.370 . S
C489 C495 1.500 . S
C490 C493 1.383 . S
C490 C494 1.395 . S
C491 C492 1.396 . S
C491 C493 1.365 . S
C491 H500 0.929 . S
C492 C489 1.394 . S
C492 C491 1.396 . S
C492 H501 0.930 . S
C493 C490 1.383 . S
C493 C491 1.365 . S
C493 H502 0.931 . S
C494 C489 1.370 . S
C494 C490 1.395 . S
C494 H503 0.930 . S
C495 Gd431 2.805 . S
C495 O471 1.263 . S
C495 O472 1.252 . S
C495 C489 1.500 . S
H496 C479 0.929 . S
H497 C480 0.930 . S
H498 C481 0.931 . S
H499 C482 0.930 . S
H500 C491 0.929 . S
H501 C492 0.930 . S
H502 C493 0.931 . S
H503 C494 0.930 . S
C504 C506 1.422 . S
C504 C508 1.415 . S
C504 N510 1.369 . S
C505 C506 1.421 . S
C505 C507 1.417 . S
C505 C517 1.422 . S
C506 C504 1.422 . S
C506 C505 1.421 . S
C506 N516 1.359 . S
C507 C505 1.417 . S
C507 C509 1.329 . S
C507 H526 0.930 . S
C508 C504 1.415 . S
C508 C509 1.437 . S
C508 C512 1.413 . S
C509 C507 1.329 . S
C509 C508 1.437 . S
C509 H531 0.929 . S
N510 C504 1.369 . S
N510 C511 1.338 . S
N510 Gd515 2.622 . S
C511 N510 1.338 . S
C511 C513 1.378 . S
C511 H523 0.929 . S
C512 C508 1.413 . S
C512 C513 1.348 . S
C512 H528 0.931 1_655 S
C513 C511 1.378 . S
C513 C512 1.348 . S
C513 H529 0.930 . S
Gd514 N534 2.622 . S
Gd514 N541 2.570 1_556 S
Gd514 O548 2.353 . S
Gd514 O549 2.468 . S
Gd514 O550 2.427 . S
Gd514 O552 2.388 . S
Gd514 O553 2.386 1_556 S
Gd514 O557 2.307 1_556 S
Gd514 C567 2.805 . S
Gd515 N510 2.622 . S
Gd515 N516 2.570 . S
Gd515 O547 2.386 . S
Gd515 O551 2.307 . S
Gd515 O554 2.353 . S
Gd515 O555 2.468 . S
Gd515 O556 2.427 . S
Gd515 O558 2.388 . S
Gd515 C579 2.805 . S
N516 C506 1.359 . S
N516 Gd515 2.570 . S
N516 C518 1.343 . S
C517 C505 1.422 . S
C517 C519 1.321 . S
C517 H525 0.931 . S
C518 N516 1.343 . S
C518 C519 1.390 . S
C518 H520 0.931 . S
C519 C517 1.321 . S
C519 C518 1.390 . S
C519 H521 0.947 . S
H520 C518 0.931 . S
H521 C519 0.947 . S
H522 C545 0.931 . S
H523 C511 0.929 . S
H524 C546 0.930 . S
H525 C517 0.931 . S
H526 C507 0.930 . S
H527 C536 0.929 . S
H528 C512 0.931 1_455 S
H529 C513 0.930 . S
H530 C568 0.930 . S
H531 C509 0.929 . S
H532 C537 0.931 . S
H533 C538 0.930 . S
N534 Gd514 2.622 . S
N534 C535 1.369 . S
N534 C536 1.338 . S
C535 N534 1.369 . S
C535 C539 1.415 . S
C535 C542 1.422 1_556 S
C536 H527 0.929 . S
C536 N534 1.338 . S
C536 C538 1.378 . S
C537 H532 0.931 . S
C537 C538 1.348 . S
C537 C539 1.413 . S
C538 H533 0.930 . S
C538 C536 1.378 . S
C538 C537 1.348 . S
C539 C535 1.415 . S
C539 C537 1.413 . S
C539 C569 1.443 . S
H540 C569 0.931 . S
N541 Gd514 2.570 1_554 S
N541 C542 1.359 . S
N541 C545 1.343 . S
C542 C535 1.422 1_554 S
C542 N541 1.359 . S
C542 C544 1.421 . S
C543 C544 1.422 . S
C543 C546 1.321 . S
C543 H570 0.931 . S
C544 C542 1.421 . S
C544 C543 1.422 . S
C544 C568 1.417 . S
C545 H522 0.931 . S
C545 N541 1.343 . S
C545 C546 1.390 . S
C546 H524 0.930 . S
C546 C543 1.321 . S
C546 C545 1.390 . S
O547 Gd515 2.386 . S
O547 C559 1.265 1_554 S
O548 Gd514 2.353 . S
O548 C559 1.242 . S
O549 Gd514 2.468 . S
O549 C567 1.263 . S
O550 Gd514 2.427 . S
O550 C567 1.252 . S
O551 Gd515 2.307 . S
O551 C560 1.278 . S
O552 Gd514 2.388 . S
O552 C560 1.235 1_556 S
O553 Gd514 2.386 1_554 S
O553 C571 1.265 . S
O554 Gd515 2.353 . S
O554 C571 1.242 . S
O555 Gd515 2.468 . S
O555 C579 1.263 . S
O556 Gd515 2.427 . S
O556 C579 1.252 . S
O557 Gd514 2.307 1_554 S
O557 C572 1.261 . S
O558 Gd515 2.388 . S
O558 C572 1.252 . S
C559 O547 1.265 1_556 S
C559 O548 1.242 . S
C560 O551 1.278 . S
C560 O552 1.235 1_554 S
C561 C564 1.394 . S
C561 C566 1.370 . S
C561 C567 1.500 . S
C562 C565 1.383 . S
C562 C566 1.395 . S
C563 C564 1.396 . S
C563 C565 1.365 . S
C563 H580 0.929 . S
C564 C561 1.394 . S
C564 C563 1.396 . S
C564 H581 0.930 . S
C565 C562 1.383 . S
C565 C563 1.365 . S
C565 H582 0.931 . S
C566 C561 1.370 . S
C566 C562 1.395 . S
C566 H583 0.930 . S
C567 Gd514 2.805 . S
C567 O549 1.263 . S
C567 O550 1.252 . S
C567 C561 1.500 . S
C568 H530 0.930 . S
C568 C544 1.417 . S
C568 C569 1.322 1_554 S
C569 C539 1.443 . S
C569 H540 0.931 . S
C569 C568 1.322 1_556 S
H570 C543 0.931 . S
C571 O553 1.265 . S
C571 O554 1.242 . S
C572 O557 1.261 . S
C572 O558 1.252 . S
C573 C576 1.394 . S
C573 C578 1.370 . S
C573 C579 1.500 . S
C574 C577 1.383 . S
C574 C578 1.395 . S
C575 C576 1.396 . S
C575 C577 1.365 . S
C575 H584 0.929 . S
C576 C573 1.394 . S
C576 C575 1.396 . S
C576 H585 0.930 . S
C577 C574 1.383 . S
C577 C575 1.365 . S
C577 H586 0.931 . S
C578 C573 1.370 . S
C578 C574 1.395 . S
C578 H587 0.930 . S
C579 Gd515 2.805 . S
C579 O555 1.263 . S
C579 O556 1.252 . S
C579 C573 1.500 . S
H580 C563 0.929 . S
H581 C564 0.930 . S
H582 C565 0.931 . S
H583 C566 0.930 . S
H584 C575 0.929 . S
H585 C576 0.930 . S
H586 C577 0.931 . S
H587 C578 0.930 . S
C588 C590 1.422 . S
C588 C592 1.415 . S
C588 N594 1.369 . S
C589 C590 1.421 . S
C589 C591 1.417 . S
C589 C601 1.422 . S
C590 C588 1.422 . S
C590 C589 1.421 . S
C590 N600 1.359 . S
C591 C589 1.417 . S
C591 C593 1.329 . S
C591 H610 0.930 . S
C592 C588 1.415 . S
C592 C593 1.437 . S
C592 C596 1.413 . S
C593 C591 1.329 . S
C593 C592 1.437 . S
C593 H615 0.929 . S
N594 C588 1.369 . S
N594 C595 1.338 . S
N594 Gd599 2.622 . S
C595 N594 1.338 . S
C595 C597 1.378 . S
C595 H607 0.929 . S
C596 C592 1.413 . S
C596 C597 1.348 . S
C596 H612 0.931 . S
C597 C595 1.378 . S
C597 C596 1.348 . S
C597 H613 0.930 . S
Gd598 N618 2.622 . S
Gd598 N625 2.570 . S
Gd598 O632 2.353 . S
Gd598 O633 2.468 . S
Gd598 O634 2.427 . S
Gd598 O636 2.388 . S
Gd598 O637 2.386 . S
Gd598 O641 2.307 . S
Gd598 C651 2.805 . S
Gd599 N594 2.622 . S
Gd599 N600 2.570 . S
Gd599 O631 2.386 . S
Gd599 O635 2.307 . S
Gd599 O638 2.353 . S
Gd599 O639 2.468 . S
Gd599 O640 2.427 . S
Gd599 O642 2.388 . S
Gd599 C663 2.805 . S
N600 C590 1.359 . S
N600 Gd599 2.570 . S
N600 C602 1.343 . S
C601 C589 1.422 . S
C601 C603 1.321 . S
C601 H609 0.931 . S
C602 N600 1.343 . S
C602 C603 1.390 . S
C602 H604 0.931 . S
C603 C601 1.321 . S
C603 C602 1.390 . S
C603 H605 0.930 . S
H604 C602 0.931 . S
H605 C603 0.930 . S
H606 C629 0.931 . S
H607 C595 0.929 . S
H608 C630 0.930 . S
H609 C601 0.931 . S
H610 C591 0.930 . S
H611 C620 0.929 . S
H612 C596 0.931 . S
H613 C597 0.930 . S
H614 C652 0.930 . S
H615 C593 0.929 . S
H616 C621 0.931 . S
H617 C622 0.930 . S
N618 Gd598 2.622 . S
N618 C619 1.369 . S
N618 C620 1.338 . S
C619 N618 1.369 . S
C619 C623 1.415 . S
C619 C626 1.422 . S
C620 H611 0.929 . S
C620 N618 1.338 . S
C620 C622 1.378 . S
C621 H616 0.931 . S
C621 C622 1.348 . S
C621 C623 1.413 . S
C622 H617 0.930 . S
C622 C620 1.378 . S
C622 C621 1.348 . S
C623 C619 1.415 . S
C623 C621 1.413 . S
C623 C653 1.437 . S
H624 C653 0.929 . S
N625 Gd598 2.570 . S
N625 C626 1.359 . S
N625 C629 1.343 . S
C626 C619 1.422 . S
C626 N625 1.359 . S
C626 C628 1.421 . S
C627 C628 1.422 . S
C627 C630 1.321 . S
C627 H654 0.931 . S
C628 C626 1.421 . S
C628 C627 1.422 . S
C628 C652 1.417 . S
C629 H606 0.931 . S
C629 N625 1.343 . S
C629 C630 1.390 . S
C630 H608 0.930 . S
C630 C627 1.321 . S
C630 C629 1.390 . S
O631 Gd599 2.386 . S
O631 C643 1.265 . S
O632 Gd598 2.353 . S
O632 C643 1.242 . S
O633 Gd598 2.468 . S
O633 C651 1.263 . S
O634 Gd598 2.427 . S
O634 C651 1.252 . S
O635 Gd599 2.307 . S
O635 C644 1.261 . S
O636 Gd598 2.388 . S
O636 C644 1.252 . S
O637 Gd598 2.386 . S
O637 C655 1.265 . S
O638 Gd599 2.353 . S
O638 C655 1.242 . S
O639 Gd599 2.468 . S
O639 C663 1.263 . S
O640 Gd599 2.427 . S
O640 C663 1.252 . S
O641 Gd598 2.307 . S
O641 C656 1.261 . S
O642 Gd599 2.388 . S
O642 C656 1.252 . S
C643 O631 1.265 . S
C643 O632 1.242 . S
C644 O635 1.261 . S
C644 O636 1.252 . S
C645 C648 1.394 . S
C645 C650 1.370 . S
C645 C651 1.500 . S
C646 C649 1.383 . S
C646 C650 1.395 . S
C647 C648 1.396 . S
C647 C649 1.365 . S
C647 H664 0.929 . S
C648 C645 1.394 . S
C648 C647 1.396 . S
C648 H665 0.930 . S
C649 C646 1.383 . S
C649 C647 1.365 . S
C649 H666 0.931 . S
C650 C645 1.370 . S
C650 C646 1.395 . S
C650 H667 0.930 . S
C651 Gd598 2.805 . S
C651 O633 1.263 . S
C651 O634 1.252 . S
C651 C645 1.500 . S
C652 H614 0.930 . S
C652 C628 1.417 . S
C652 C653 1.329 . S
C653 C623 1.437 . S
C653 H624 0.929 . S
C653 C652 1.329 . S
H654 C627 0.931 . S
C655 O637 1.265 . S
C655 O638 1.242 . S
C656 O641 1.261 . S
C656 O642 1.252 . S
C657 C660 1.394 . S
C657 C662 1.370 . S
C657 C663 1.500 . S
C658 C661 1.383 . S
C658 C662 1.395 . S
C659 C660 1.396 . S
C659 C661 1.365 . S
C659 H668 0.929 . S
C660 C657 1.394 . S
C660 C659 1.396 . S
C660 H669 0.930 . S
C661 C658 1.383 . S
C661 C659 1.365 . S
C661 H670 0.931 . S
C662 C657 1.370 . S
C662 C658 1.395 . S
C662 H671 0.930 . S
C663 Gd599 2.805 . S
C663 O639 1.263 . S
C663 O640 1.252 . S
C663 C657 1.500 . S
H664 C647 0.929 . S
H665 C648 0.930 . S
H666 C649 0.931 . S
H667 C650 0.930 . S
H668 C659 0.929 . S
H669 C660 0.930 . S
H670 C661 0.931 . S
H671 C662 0.930 . S
C672 C674 1.422 . S
C672 C676 1.415 . S
C672 N678 1.369 . S
C673 C674 1.421 . S
C673 C675 1.417 . S
C673 C685 1.422 . S
C674 C672 1.422 . S
C674 C673 1.421 . S
C674 N684 1.359 . S
C675 C673 1.417 . S
C675 C677 1.329 . S
C675 H694 0.930 . S
C676 C672 1.415 . S
C676 C677 1.437 . S
C676 C680 1.413 . S
C677 C675 1.329 . S
C677 C676 1.437 . S
C677 H699 0.929 . S
N678 C672 1.369 . S
N678 C679 1.338 . S
N678 Gd683 2.622 . S
C679 N678 1.338 . S
C679 C681 1.378 . S
C679 H691 0.929 . S
C680 C676 1.413 . S
C680 C681 1.348 . S
C680 H696 0.931 . S
C681 C679 1.378 . S
C681 C680 1.348 . S
C681 H697 0.930 . S
Gd682 N702 2.622 . S
Gd682 N709 2.570 . S
Gd682 O716 2.353 . S
Gd682 O717 2.468 . S
Gd682 O718 2.427 . S
Gd682 O720 2.388 . S
Gd682 O721 2.386 . S
Gd682 O725 2.307 . S
Gd682 C735 2.805 . S
Gd683 N678 2.622 . S
Gd683 N684 2.570 . S
Gd683 O715 2.386 . S
Gd683 O719 2.307 . S
Gd683 O722 2.353 . S
Gd683 O723 2.468 . S
Gd683 O724 2.427 . S
Gd683 O726 2.388 . S
Gd683 C747 2.805 . S
N684 C674 1.359 . S
N684 Gd683 2.570 . S
N684 C686 1.343 . S
C685 C673 1.422 . S
C685 C687 1.321 . S
C685 H693 0.931 . S
C686 N684 1.343 . S
C686 C687 1.390 . S
C686 H688 0.931 . S
C687 C685 1.321 . S
C687 C686 1.390 . S
C687 H689 0.930 . S
H688 C686 0.931 . S
H689 C687 0.930 . S
H690 C713 0.931 . S
H691 C679 0.929 . S
H692 C714 0.930 . S
H693 C685 0.931 . S
H694 C675 0.930 . S
H695 C704 0.929 . S
H696 C680 0.931 . S
H697 C681 0.930 . S
H698 C736 0.930 . S
H699 C677 0.929 . S
H700 C705 0.931 1_556 S
H701 C706 0.930 . S
N702 Gd682 2.622 . S
N702 C703 1.369 . S
N702 C704 1.338 . S
C703 N702 1.369 . S
C703 C707 1.415 . S
C703 C710 1.422 . S
C704 H695 0.929 . S
C704 N702 1.338 . S
C704 C706 1.378 . S
C705 H700 0.931 1_554 S
C705 C706 1.348 . S
C705 C707 1.413 . S
C706 H701 0.930 . S
C706 C704 1.378 . S
C706 C705 1.348 . S
C707 C703 1.415 . S
C707 C705 1.413 . S
C707 C737 1.437 . S
H708 C737 0.929 1_556 S
N709 Gd682 2.570 . S
N709 C710 1.359 . S
N709 C713 1.343 . S
C710 C703 1.422 . S
C710 N709 1.359 . S
C710 C712 1.421 . S
C711 C712 1.422 . S
C711 C714 1.321 . S
C711 H738 0.931 . S
C712 C710 1.421 . S
C712 C711 1.422 . S
C712 C736 1.417 . S
C713 H690 0.931 . S
C713 N709 1.343 . S
C713 C714 1.390 . S
C714 H692 0.930 . S
C714 C711 1.321 . S
C714 C713 1.390 . S
O715 Gd683 2.386 . S
O715 C727 1.265 . S
O716 Gd682 2.353 . S
O716 C727 1.242 . S
O717 Gd682 2.468 . S
O717 C735 1.263 . S
O718 Gd682 2.427 . S
O718 C735 1.252 . S
O719 Gd683 2.307 . S
O719 C728 1.261 . S
O720 Gd682 2.388 . S
O720 C728 1.252 . S
O721 Gd682 2.386 . S
O721 C739 1.265 . S
O722 Gd683 2.353 . S
O722 C739 1.242 . S
O723 Gd683 2.468 . S
O723 C747 1.263 . S
O724 Gd683 2.427 . S
O724 C747 1.252 . S
O725 Gd682 2.307 . S
O725 C740 1.261 . S
O726 Gd683 2.388 . S
O726 C740 1.252 . S
C727 O715 1.265 . S
C727 O716 1.242 . S
C728 O719 1.261 . S
C728 O720 1.252 . S
C729 C732 1.394 . S
C729 C734 1.370 . S
C729 C735 1.500 . S
C730 C733 1.383 . S
C730 C734 1.395 . S
C731 C732 1.396 . S
C731 C733 1.365 . S
C731 H748 0.929 . S
C732 C729 1.394 . S
C732 C731 1.396 . S
C732 H749 0.930 . S
C733 C730 1.383 . S
C733 C731 1.365 . S
C733 H750 0.931 . S
C734 C729 1.370 . S
C734 C730 1.395 . S
C734 H751 0.930 . S
C735 Gd682 2.805 . S
C735 O717 1.263 . S
C735 O718 1.252 . S
C735 C729 1.500 . S
C736 H698 0.930 . S
C736 C712 1.417 . S
C736 C737 1.329 . S
C737 C707 1.437 . S
C737 H708 0.929 1_554 S
C737 C736 1.329 . S
H738 C711 0.931 . S
C739 O721 1.265 . S
C739 O722 1.242 . S
C740 O725 1.261 . S
C740 O726 1.252 . S
C741 C744 1.394 . S
C741 C746 1.370 . S
C741 C747 1.500 . S
C742 C745 1.383 . S
C742 C746 1.395 . S
C743 C744 1.396 . S
C743 C745 1.365 . S
C743 H752 0.929 . S
C744 C741 1.394 . S
C744 C743 1.396 . S
C744 H753 0.930 . S
C745 C742 1.383 . S
C745 C743 1.365 . S
C745 H754 0.931 . S
C746 C741 1.370 . S
C746 C742 1.395 . S
C746 H755 0.930 . S
C747 Gd683 2.805 . S
C747 O723 1.263 . S
C747 O724 1.252 . S
C747 C741 1.500 . S
H748 C731 0.929 . S
H749 C732 0.930 . S
H750 C733 0.931 . S
H751 C734 0.930 . S
H752 C743 0.929 . S
H753 C744 0.930 . S
H754 C745 0.931 . S
H755 C746 0.930 . S
C756 C758 1.422 . S
C756 C760 1.415 . S
C756 N762 1.369 . S
C757 C758 1.421 . S
C757 C759 1.417 . S
C757 C769 1.422 . S
C758 C756 1.422 . S
C758 C757 1.421 . S
C758 N768 1.359 . S
C759 C757 1.417 . S
C759 C761 1.329 . S
C759 H778 0.930 . S
C760 C756 1.415 . S
C760 C761 1.437 . S
C760 C764 1.413 . S
C761 C759 1.329 . S
C761 C760 1.437 . S
C761 H783 0.929 . S
N762 C756 1.369 . S
N762 C763 1.338 1_565 S
N762 Gd767 2.622 . S
C763 N762 1.338 1_545 S
C763 C765 1.376 1_545 S
C763 H775 0.929 . S
C764 C760 1.413 . S
C764 C765 1.365 . S
C764 H780 0.931 . S
C765 C763 1.376 1_565 S
C765 C764 1.365 . S
C765 H781 0.915 1_565 S
Gd766 N786 2.622 . S
Gd766 N793 2.570 . S
Gd766 O800 2.353 . S
Gd766 O801 2.468 . S
Gd766 O802 2.427 . S
Gd766 O804 2.388 . S
Gd766 O805 2.386 . S
Gd766 O809 2.307 . S
Gd766 C819 2.805 . S
Gd767 N762 2.622 . S
Gd767 N768 2.570 . S
Gd767 O799 2.391 . S
Gd767 O803 2.307 . S
Gd767 O806 2.353 1_565 S
Gd767 O807 2.468 . S
Gd767 O808 2.427 . S
Gd767 O810 2.388 1_565 S
Gd767 C831 2.805 . S
N768 C758 1.359 . S
N768 Gd767 2.570 . S
N768 C770 1.343 . S
C769 C757 1.422 . S
C769 C771 1.321 . S
C769 H777 0.931 . S
C770 N768 1.343 . S
C770 C771 1.390 . S
C770 H772 0.931 . S
C771 C769 1.321 . S
C771 C770 1.390 . S
C771 H773 0.930 . S
H772 C770 0.931 . S
H773 C771 0.930 . S
H774 C797 0.931 . S
H775 C763 0.929 . S
H776 C798 0.930 . S
H777 C769 0.931 . S
H778 C759 0.930 . S
H779 C788 0.929 . S
H780 C764 0.931 . S
H781 C765 0.915 1_545 S
H782 C820 0.930 . S
H783 C761 0.929 . S
H784 C789 0.931 1_554 S
H785 C790 0.930 . S
N786 Gd766 2.622 . S
N786 C787 1.369 . S
N786 C788 1.338 . S
C787 N786 1.369 . S
C787 C791 1.415 . S
C787 C794 1.422 . S
C788 H779 0.929 . S
C788 N786 1.338 . S
C788 C790 1.378 . S
C789 H784 0.931 1_556 S
C789 C790 1.348 . S
C789 C791 1.413 . S
C790 H785 0.930 . S
C790 C788 1.378 . S
C790 C789 1.348 . S
C791 C787 1.415 . S
C791 C789 1.413 . S
C791 C821 1.437 . S
H792 C821 0.929 . S
N793 Gd766 2.570 . S
N793 C794 1.359 . S
N793 C797 1.343 . S
C794 C787 1.422 . S
C794 N793 1.359 . S
C794 C796 1.421 . S
C795 C796 1.422 . S
C795 C798 1.321 . S
C795 H822 0.931 . S
C796 C794 1.421 . S
C796 C795 1.422 . S
C796 C820 1.417 . S
C797 H774 0.931 . S
C797 N793 1.343 . S
C797 C798 1.390 . S
C798 H776 0.930 . S
C798 C795 1.321 . S
C798 C797 1.390 . S
O799 Gd767 2.391 . S
O799 C811 1.255 1_565 S
O800 Gd766 2.353 . S
O800 C811 1.242 . S
O801 Gd766 2.468 . S
O801 C819 1.263 . S
O802 Gd766 2.427 . S
O802 C819 1.252 . S
O803 Gd767 2.307 . S
O803 C812 1.261 . S
O804 Gd766 2.388 . S
O804 C812 1.252 1_545 S
O805 Gd766 2.386 . S
O805 C823 1.265 . S
O806 Gd767 2.353 1_545 S
O806 C823 1.242 . S
O807 Gd767 2.468 . S
O807 C831 1.263 . S
O808 Gd767 2.427 . S
O808 C831 1.252 . S
O809 Gd766 2.307 . S
O809 C824 1.261 . S
O810 Gd767 2.388 1_545 S
O810 C824 1.252 . S
C811 O799 1.255 1_545 S
C811 O800 1.242 . S
C812 O803 1.261 . S
C812 O804 1.252 1_565 S
C813 C816 1.394 . S
C813 C818 1.370 . S
C813 C819 1.500 . S
C814 C817 1.383 . S
C814 C818 1.395 . S
C815 C816 1.396 . S
C815 C817 1.365 . S
C815 H832 0.929 . S
C816 C813 1.394 . S
C816 C815 1.396 . S
C816 H833 0.930 . S
C817 C814 1.383 . S
C817 C815 1.365 . S
C817 H834 0.931 . S
C818 C813 1.370 . S
C818 C814 1.395 . S
C818 H835 0.930 . S
C819 Gd766 2.805 . S
C819 O801 1.263 . S
C819 O802 1.252 . S
C819 C813 1.500 . S
C820 H782 0.930 . S
C820 C796 1.417 . S
C820 C821 1.329 . S
C821 C791 1.437 . S
C821 H792 0.929 . S
C821 C820 1.329 . S
H822 C795 0.931 . S
C823 O805 1.265 . S
C823 O806 1.242 . S
C824 O809 1.261 . S
C824 O810 1.252 . S
C825 C828 1.394 . S
C825 C830 1.370 . S
C825 C831 1.500 . S
C826 C829 1.383 . S
C826 C830 1.395 . S
C827 C828 1.396 . S
C827 C829 1.365 . S
C827 H836 0.929 . S
C828 C825 1.394 . S
C828 C827 1.396 . S
C828 H837 0.930 . S
C829 C826 1.383 . S
C829 C827 1.365 . S
C829 H838 0.931 . S
C830 C825 1.370 . S
C830 C826 1.395 . S
C830 H839 0.930 . S
C831 Gd767 2.805 . S
C831 O807 1.263 . S
C831 O808 1.252 . S
C831 C825 1.500 . S
H832 C815 0.929 . S
H833 C816 0.930 . S
H834 C817 0.931 . S
H835 C818 0.930 . S
H836 C827 0.929 . S
H837 C828 0.930 . S
H838 C829 0.931 . S
H839 C830 0.930 . S
C840 C842 1.422 . S
C840 C844 1.415 . S
C840 N846 1.369 . S
C841 C842 1.421 . S
C841 C843 1.417 . S
C841 C853 1.422 . S
C842 C840 1.422 . S
C842 C841 1.421 . S
C842 N852 1.359 . S
C843 C841 1.417 . S
C843 C845 1.329 . S
C843 H862 0.930 . S
C844 C840 1.415 . S
C844 C845 1.437 . S
C844 C848 1.413 . S
C845 C843 1.329 . S
C845 C844 1.437 . S
C845 H867 0.929 . S
N846 C840 1.369 . S
N846 C847 1.338 1_545 S
N846 Gd851 2.622 . S
C847 N846 1.338 1_565 S
C847 C849 1.379 . S
C847 H859 0.929 . S
C848 C844 1.413 . S
C848 C849 1.339 1_545 S
C848 H864 0.931 . S
C849 C847 1.379 . S
C849 C848 1.339 1_565 S
C849 H865 0.937 . S
Gd850 N870 2.622 . S
Gd850 N877 2.570 . S
Gd850 O884 2.353 . S
Gd850 O885 2.468 . S
Gd850 O886 2.427 . S
Gd850 O888 2.388 . S
Gd850 O889 2.386 . S
Gd850 O893 2.307 . S
Gd850 C903 2.805 . S
Gd851 N846 2.622 . S
Gd851 N852 2.570 . S
Gd851 O883 2.385 . S
Gd851 O887 2.307 . S
Gd851 O890 2.353 1_545 S
Gd851 O891 2.468 . S
Gd851 O892 2.427 . S
Gd851 O894 2.388 1_545 S
Gd851 C915 2.805 . S
N852 C842 1.359 . S
N852 Gd851 2.570 . S
N852 C854 1.343 . S
C853 C841 1.422 . S
C853 C855 1.321 . S
C853 H861 0.931 . S
C854 N852 1.343 . S
C854 C855 1.390 . S
C854 H856 0.931 . S
C855 C853 1.321 . S
C855 C854 1.390 . S
C855 H857 0.930 . S
H856 C854 0.931 . S
H857 C855 0.930 . S
H858 C881 0.931 . S
H859 C847 0.929 . S
H860 C882 0.930 . S
H861 C853 0.931 . S
H862 C843 0.930 . S
H863 C872 0.929 . S
H864 C848 0.931 . S
H865 C849 0.937 . S
H866 C904 0.930 . S
H867 C845 0.929 . S
H868 C873 0.931 . S
H869 C874 0.930 . S
N870 Gd850 2.622 . S
N870 C871 1.369 . S
N870 C872 1.338 . S
C871 N870 1.369 . S
C871 C875 1.415 . S
C871 C878 1.422 . S
C872 H863 0.929 . S
C872 N870 1.338 . S
C872 C874 1.378 . S
C873 H868 0.931 . S
C873 C874 1.348 . S
C873 C875 1.413 . S
C874 H869 0.930 . S
C874 C872 1.378 . S
C874 C873 1.348 . S
C875 C871 1.415 . S
C875 C873 1.413 . S
C875 C905 1.437 . S
H876 C905 0.929 . S
N877 Gd850 2.570 . S
N877 C878 1.359 . S
N877 C881 1.343 . S
C878 C871 1.422 . S
C878 N877 1.359 . S
C878 C880 1.421 . S
C879 C880 1.422 . S
C879 C882 1.321 . S
C879 H906 0.931 . S
C880 C878 1.421 . S
C880 C879 1.422 . S
C880 C904 1.417 . S
C881 H858 0.931 . S
C881 N877 1.343 . S
C881 C882 1.390 . S
C882 H860 0.930 . S
C882 C879 1.321 . S
C882 C881 1.390 . S
O883 Gd851 2.385 . S
O883 C895 1.266 1_545 S
O884 Gd850 2.353 . S
O884 C895 1.242 . S
O885 Gd850 2.468 . S
O885 C903 1.263 . S
O886 Gd850 2.427 . S
O886 C903 1.252 . S
O887 Gd851 2.307 . S
O887 C896 1.261 . S
O888 Gd850 2.388 . S
O888 C896 1.252 1_565 S
O889 Gd850 2.386 . S
O889 C907 1.265 . S
O890 Gd851 2.353 1_565 S
O890 C907 1.242 . S
O891 Gd851 2.468 . S
O891 C915 1.263 . S
O892 Gd851 2.427 . S
O892 C915 1.252 . S
O893 Gd850 2.307 . S
O893 C908 1.261 . S
O894 Gd851 2.388 1_565 S
O894 C908 1.252 . S
C895 O883 1.266 1_565 S
C895 O884 1.242 . S
C896 O887 1.261 . S
C896 O888 1.252 1_545 S
C897 C900 1.394 . S
C897 C902 1.370 . S
C897 C903 1.500 . S
C898 C901 1.383 . S
C898 C902 1.395 . S
C899 C900 1.396 . S
C899 C901 1.365 . S
C899 H916 0.929 . S
C900 C897 1.394 . S
C900 C899 1.396 . S
C900 H917 0.930 . S
C901 C898 1.383 . S
C901 C899 1.365 . S
C901 H918 0.931 . S
C902 C897 1.370 . S
C902 C898 1.395 . S
C902 H919 0.930 . S
C903 Gd850 2.805 . S
C903 O885 1.263 . S
C903 O886 1.252 . S
C903 C897 1.500 . S
C904 H866 0.930 . S
C904 C880 1.417 . S
C904 C905 1.329 . S
C905 C875 1.437 . S
C905 H876 0.929 . S
C905 C904 1.329 . S
H906 C879 0.931 . S
C907 O889 1.265 . S
C907 O890 1.242 . S
C908 O893 1.261 . S
C908 O894 1.252 . S
C909 C912 1.394 . S
C909 C914 1.370 . S
C909 C915 1.500 . S
C910 C913 1.383 . S
C910 C914 1.395 . S
C911 C912 1.396 . S
C911 C913 1.365 . S
C911 H920 0.929 . S
C912 C909 1.394 . S
C912 C911 1.396 . S
C912 H921 0.930 . S
C913 C910 1.383 . S
C913 C911 1.365 . S
C913 H922 0.931 . S
C914 C909 1.370 . S
C914 C910 1.395 . S
C914 H923 0.930 . S
C915 Gd851 2.805 . S
C915 O891 1.263 . S
C915 O892 1.252 . S
C915 C909 1.500 . S
H916 C899 0.929 . S
H917 C900 0.930 . S
H918 C901 0.931 . S
H919 C902 0.930 . S
H920 C911 0.929 . S
H921 C912 0.930 . S
H922 C913 0.931 . S
H923 C914 0.930 . S
C924 C926 1.422 . S
C924 C928 1.415 . S
C924 N930 1.369 . S
C925 C926 1.421 . S
C925 C927 1.417 . S
C925 C937 1.422 . S
C926 C924 1.422 . S
C926 C925 1.421 . S
C926 N936 1.359 . S
C927 C925 1.417 . S
C927 C929 1.329 . S
C927 H946 0.930 . S
C928 C924 1.415 . S
C928 C929 1.437 . S
C928 C932 1.413 . S
C929 C927 1.329 . S
C929 C928 1.437 . S
C929 H951 0.929 . S
N930 C924 1.369 . S
N930 C931 1.338 . S
N930 Gd935 2.622 . S
C931 N930 1.338 . S
C931 C933 1.378 . S
C931 H943 0.929 . S
C932 C928 1.413 . S
C932 C933 1.348 . S
C932 H948 0.931 . S
C933 C931 1.378 . S
C933 C932 1.348 . S
C933 H949 0.930 . S
Gd934 N954 2.622 . S
Gd934 N961 2.570 . S
Gd934 O968 2.353 . S
Gd934 O969 2.468 . S
Gd934 O970 2.427 . S
Gd934 O972 2.388 . S
Gd934 O973 2.386 . S
Gd934 O977 2.307 . S
Gd934 C987 2.805 . S
Gd935 N930 2.622 . S
Gd935 N936 2.570 . S
Gd935 O967 2.386 . S
Gd935 O971 2.307 . S
Gd935 O974 2.353 . S
Gd935 O975 2.468 . S
Gd935 O976 2.427 . S
Gd935 O978 2.388 . S
Gd935 C999 2.805 . S
N936 C926 1.359 . S
N936 Gd935 2.570 . S
N936 C938 1.343 . S
C937 C925 1.422 . S
C937 C939 1.321 . S
C937 H945 0.931 . S
C938 N936 1.343 . S
C938 C939 1.390 . S
C938 H940 0.931 . S
C939 C937 1.321 . S
C939 C938 1.390 . S
C939 H941 0.930 . S
H940 C938 0.931 . S
H941 C939 0.930 . S
H942 C965 0.931 . S
H943 C931 0.929 . S
H944 C966 0.930 . S
H945 C937 0.931 . S
H946 C927 0.930 . S
H947 C956 0.929 . S
H948 C932 0.931 . S
H949 C933 0.930 . S
H950 C988 0.930 . S
H951 C929 0.929 . S
H952 C957 0.931 . S
H953 C958 0.930 . S
N954 Gd934 2.622 . S
N954 C955 1.369 . S
N954 C956 1.338 . S
C955 N954 1.369 . S
C955 C959 1.415 . S
C955 C962 1.422 . S
C956 H947 0.929 . S
C956 N954 1.338 . S
C956 C958 1.378 . S
C957 H952 0.931 . S
C957 C958 1.348 . S
C957 C959 1.413 . S
C958 H953 0.930 . S
C958 C956 1.378 . S
C958 C957 1.348 . S
C959 C955 1.415 . S
C959 C957 1.413 . S
C959 C989 1.437 . S
H960 C989 0.929 . S
N961 Gd934 2.570 . S
N961 C962 1.359 . S
N961 C965 1.343 . S
C962 C955 1.422 . S
C962 N961 1.359 . S
C962 C964 1.421 . S
C963 C964 1.422 . S
C963 C966 1.321 . S
C963 H990 0.931 . S
C964 C962 1.421 . S
C964 C963 1.422 . S
C964 C988 1.417 . S
C965 H942 0.931 . S
C965 N961 1.343 . S
C965 C966 1.390 . S
C966 H944 0.930 . S
C966 C963 1.321 . S
C966 C965 1.390 . S
O967 Gd935 2.386 . S
O967 C979 1.265 . S
O968 Gd934 2.353 . S
O968 C979 1.242 . S
O969 Gd934 2.468 . S
O969 C987 1.263 . S
O970 Gd934 2.427 . S
O970 C987 1.252 . S
O971 Gd935 2.307 . S
O971 C980 1.261 . S
O972 Gd934 2.388 . S
O972 C980 1.252 . S
O973 Gd934 2.386 . S
O973 C991 1.265 . S
O974 Gd935 2.353 . S
O974 C991 1.242 . S
O975 Gd935 2.468 . S
O975 C999 1.263 . S
O976 Gd935 2.427 . S
O976 C999 1.252 . S
O977 Gd934 2.307 . S
O977 C992 1.261 . S
O978 Gd935 2.388 . S
O978 C992 1.252 . S
C979 O967 1.265 . S
C979 O968 1.242 . S
C980 O971 1.261 . S
C980 O972 1.252 . S
C981 C984 1.394 . S
C981 C986 1.370 . S
C981 C987 1.500 . S
C982 C985 1.383 . S
C982 C986 1.395 . S
C983 C984 1.396 . S
C983 C985 1.365 . S
C983 H1000 0.929 . S
C984 C981 1.394 . S
C984 C983 1.396 . S
C984 H1001 0.930 . S
C985 C982 1.383 . S
C985 C983 1.365 . S
C985 H1002 0.931 . S
C986 C981 1.370 . S
C986 C982 1.395 . S
C986 H1003 0.930 . S
C987 Gd934 2.805 . S
C987 O969 1.263 . S
C987 O970 1.252 . S
C987 C981 1.500 . S
C988 H950 0.930 . S
C988 C964 1.417 . S
C988 C989 1.329 . S
C989 C959 1.437 . S
C989 H960 0.929 . S
C989 C988 1.329 . S
H990 C963 0.931 . S
C991 O973 1.265 . S
C991 O974 1.242 . S
C992 O977 1.261 . S
C992 O978 1.252 . S
C993 C996 1.394 . S
C993 C998 1.370 . S
C993 C999 1.500 . S
C994 C997 1.383 . S
C994 C998 1.395 . S
C995 C996 1.396 . S
C995 C997 1.365 . S
C995 H1004 0.929 . S
C996 C993 1.394 . S
C996 C995 1.396 . S
C996 H1005 0.930 . S
C997 C994 1.383 . S
C997 C995 1.365 . S
C997 H1006 0.931 . S
C998 C993 1.370 . S
C998 C994 1.395 . S
C998 H1007 0.930 . S
C999 Gd935 2.805 . S
C999 O975 1.263 . S
C999 O976 1.252 . S
C999 C993 1.500 . S
H1000 C983 0.929 . S
H1001 C984 0.930 . S
H1002 C985 0.931 . S
H1003 C986 0.930 . S
H1004 C995 0.929 . S
H1005 C996 0.930 . S
H1006 C997 0.931 . S
H1007 C998 0.930 . S
H1008 C1016 0.929 . S
H1009 C1018 0.930 . S
H1010 C1020 0.930 . S
H1011 C1023 0.929 . S
H1012 C1026 0.930 . S
H1013 C1028 0.960 . S
H1014 C1028 0.960 . S
H1015 C1028 0.960 . S
C1016 H1008 0.929 . S
C1016 C1017 1.377 . S
C1016 C1018 1.384 . S
C1017 C1016 1.377 . S
C1017 C1023 1.390 . S
C1018 H1009 0.930 . S
C1018 C1016 1.384 . S
C1018 C1019 1.372 . S
C1019 C1018 1.372 . S
C1019 C1020 1.400 . S
C1019 C1024 1.490 . S
C1020 H1010 0.930 . S
C1020 C1019 1.400 . S
C1020 C1023 1.386 . S
H1021 C1037 0.930 . S
H1022 C1038 0.931 . S
C1023 H1011 0.929 . S
C1023 C1017 1.390 . S
C1023 C1020 1.386 . S
C1024 C1019 1.490 . S
C1024 C1026 1.395 . S
C1024 C1027 1.403 . S
H1025 C1031 0.930 . S
C1026 H1012 0.930 . S
C1026 C1024 1.395 . S
C1026 C1029 1.403 . S
C1027 C1024 1.403 . S
C1027 C1028 1.524 . S
C1027 C1031 1.400 . S
C1028 H1013 0.960 . S
C1028 H1014 0.960 . S
C1028 H1015 0.960 . S
C1028 C1027 1.524 . S
C1029 C1026 1.403 . S
C1029 C1030 1.392 . S
C1029 C1033 1.495 . S
C1030 C1029 1.392 . S
C1030 C1031 1.385 . S
C1030 C1032 1.478 . S
C1031 H1025 0.930 . S
C1031 C1027 1.400 . S
C1031 C1030 1.385 . S
C1032 C1030 1.478 . S
C1032 C1034 1.381 . S
C1032 C1038 1.383 . S
C1033 C1029 1.495 . S
C1033 H1039 0.959 . S
C1033 H1040 0.961 . S
C1033 H1041 0.960 . S
C1034 C1032 1.381 . S
C1034 C1035 1.394 . S
C1034 H1042 0.930 . S
C1035 C1034 1.394 . S
C1035 C1036 1.383 . S
C1035 H1043 0.929 . S
C1036 C1035 1.383 . S
C1036 C1037 1.377 . S
C1037 H1021 0.930 . S
C1037 C1036 1.377 . S
C1037 C1038 1.379 . S
C1038 H1022 0.931 . S
C1038 C1032 1.383 . S
C1038 C1037 1.379 . S
H1039 C1033 0.959 . S
H1040 C1033 0.961 . S
H1041 C1033 0.960 . S
H1042 C1034 0.930 . S
H1043 C1035 0.929 . S
H1044 C1052 0.929 . S
H1045 C1054 0.930 . S
H1046 C1056 0.930 1_545 S
H1047 C1059 0.929 . S
H1048 C1062 0.930 . S
H1049 C1064 0.960 . S
H1050 C1064 0.960 . S
H1051 C1064 0.960 . S
C1052 H1044 0.929 . S
C1052 C1053 1.377 . S
C1052 C1054 1.384 . S
C1053 C1052 1.377 . S
C1053 C1059 1.390 1_565 S
C1054 H1045 0.930 . S
C1054 C1052 1.384 . S
C1054 C1055 1.372 . S
C1055 C1054 1.372 . S
C1055 C1056 1.400 . S
C1055 C1060 1.490 . S
C1056 H1046 0.930 1_565 S
C1056 C1055 1.400 . S
C1056 C1059 1.386 1_565 S
H1057 C1073 0.930 . S
H1058 C1074 0.931 . S
C1059 H1047 0.929 . S
C1059 C1053 1.390 1_545 S
C1059 C1056 1.386 1_545 S
C1060 C1055 1.490 . S
C1060 C1062 1.395 . S
C1060 C1063 1.403 . S
H1061 C1067 0.930 . S
C1062 H1048 0.930 . S
C1062 C1060 1.395 . S
C1062 C1065 1.403 . S
C1063 C1060 1.403 . S
C1063 C1064 1.524 . S
C1063 C1067 1.400 . S
C1064 H1049 0.960 . S
C1064 H1050 0.960 . S
C1064 H1051 0.960 . S
C1064 C1063 1.524 . S
C1065 C1062 1.403 . S
C1065 C1066 1.392 . S
C1065 C1069 1.495 . S
C1066 C1065 1.392 . S
C1066 C1067 1.385 . S
C1066 C1068 1.478 . S
C1067 H1061 0.930 . S
C1067 C1063 1.400 . S
C1067 C1066 1.385 . S
C1068 C1066 1.478 . S
C1068 C1070 1.381 . S
C1068 C1074 1.383 . S
C1069 C1065 1.495 . S
C1069 H1075 0.959 . S
C1069 H1076 0.961 . S
C1069 H1077 0.960 . S
C1070 C1068 1.381 . S
C1070 C1071 1.394 . S
C1070 H1078 0.930 . S
C1071 C1070 1.394 . S
C1071 C1072 1.383 . S
C1071 H1079 0.929 . S
C1072 C1071 1.383 . S
C1072 C1073 1.377 . S
C1073 H1057 0.930 . S
C1073 C1072 1.377 . S
C1073 C1074 1.379 . S
C1074 H1058 0.931 . S
C1074 C1068 1.383 . S
C1074 C1073 1.379 . S
H1075 C1069 0.959 . S
H1076 C1069 0.961 . S
H1077 C1069 0.960 . S
H1078 C1070 0.930 . S
H1079 C1071 0.929 . S
H1080 C1088 0.929 . S
H1081 C1090 0.930 . S
H1082 C1092 0.938 . S
H1083 C1095 0.929 . S
H1084 C1098 0.930 . S
H1085 C1100 0.960 1_556 S
H1086 C1100 0.960 . S
H1087 C1100 0.960 1_556 S
C1088 H1080 0.929 . S
C1088 C1089 1.377 . S
C1088 C1090 1.384 . S
C1089 C1088 1.377 . S
C1089 C1095 1.390 1_554 S
C1090 H1081 0.930 . S
C1090 C1088 1.384 . S
C1090 C1091 1.372 . S
C1091 C1090 1.372 . S
C1091 C1092 1.387 1_554 S
C1091 C1096 1.490 . S
C1092 H1082 0.938 . S
C1092 C1091 1.387 1_556 S
C1092 C1095 1.391 . S
H1093 C1109 0.930 . S
H1094 C1110 0.931 . S
C1095 H1083 0.929 . S
C1095 C1089 1.390 1_556 S
C1095 C1092 1.391 . S
C1096 C1091 1.490 . S
C1096 C1098 1.395 . S
C1096 C1099 1.403 . S
H1097 C1103 0.930 . S
C1098 H1084 0.930 . S
C1098 C1096 1.395 . S
C1098 C1101 1.403 . S
C1099 C1096 1.403 . S
C1099 C1100 1.524 . S
C1099 C1103 1.400 . S
C1100 H1085 0.960 1_554 S
C1100 H1086 0.960 . S
C1100 H1087 0.960 1_554 S
C1100 C1099 1.524 . S
C1101 C1098 1.403 . S
C1101 C1102 1.392 . S
C1101 C1105 1.495 . S
C1102 C1101 1.392 . S
C1102 C1103 1.385 . S
C1102 C1104 1.478 . S
C1103 H1097 0.930 . S
C1103 C1099 1.400 . S
C1103 C1102 1.385 . S
C1104 C1102 1.478 . S
C1104 C1106 1.381 . S
C1104 C1110 1.383 . S
C1105 C1101 1.495 . S
C1105 H1111 0.959 . S
C1105 H1112 0.961 . S
C1105 H1113 0.960 . S
C1106 C1104 1.381 . S
C1106 C1107 1.394 . S
C1106 H1114 0.930 . S
C1107 C1106 1.394 . S
C1107 C1108 1.383 . S
C1107 H1115 0.929 . S
C1108 C1107 1.383 . S
C1108 C1109 1.377 . S
C1109 H1093 0.930 . S
C1109 C1108 1.377 . S
C1109 C1110 1.379 . S
C1110 H1094 0.931 . S
C1110 C1104 1.383 . S
C1110 C1109 1.379 . S
H1111 C1105 0.959 . S
H1112 C1105 0.961 . S
H1113 C1105 0.960 . S
H1114 C1106 0.930 . S
H1115 C1107 0.929 . S
H1116 C1124 0.929 . S
H1117 C1126 0.930 . S
H1118 C1128 0.930 . S
H1119 C1131 0.929 . S
H1120 C1134 0.930 . S
H1121 C1136 0.960 . S
H1122 C1136 0.960 . S
H1123 C1136 0.960 . S
C1124 H1116 0.929 . S
C1124 C1125 1.377 . S
C1124 C1126 1.384 . S
C1125 C1124 1.377 . S
C1125 C1131 1.390 . S
C1126 H1117 0.930 . S
C1126 C1124 1.384 . S
C1126 C1127 1.372 . S
C1127 C1126 1.372 . S
C1127 C1128 1.400 . S
C1127 C1132 1.490 . S
C1128 H1118 0.930 . S
C1128 C1127 1.400 . S
C1128 C1131 1.386 . S
H1129 C1145 0.930 . S
H1130 C1146 0.931 . S
C1131 H1119 0.929 . S
C1131 C1125 1.390 . S
C1131 C1128 1.386 . S
C1132 C1127 1.490 . S
C1132 C1134 1.395 . S
C1132 C1135 1.403 . S
H1133 C1139 0.930 . S
C1134 H1120 0.930 . S
C1134 C1132 1.395 . S
C1134 C1137 1.403 . S
C1135 C1132 1.403 . S
C1135 C1136 1.524 . S
C1135 C1139 1.400 . S
C1136 H1121 0.960 . S
C1136 H1122 0.960 . S
C1136 H1123 0.960 . S
C1136 C1135 1.524 . S
C1137 C1134 1.403 . S
C1137 C1138 1.392 . S
C1137 C1141 1.495 1_545 S
C1138 C1137 1.392 . S
C1138 C1139 1.385 . S
C1138 C1140 1.478 . S
C1139 H1133 0.930 . S
C1139 C1135 1.400 . S
C1139 C1138 1.385 . S
C1140 C1138 1.478 . S
C1140 C1142 1.381 . S
C1140 C1146 1.383 . S
C1141 C1137 1.495 1_565 S
C1141 H1147 0.959 . S
C1141 H1148 0.961 . S
C1141 H1149 0.960 . S
C1142 C1140 1.381 . S
C1142 C1143 1.394 . S
C1142 H1150 0.930 . S
C1143 C1142 1.394 . S
C1143 C1144 1.383 . S
C1143 H1151 0.929 1_545 S
C1144 C1143 1.383 . S
C1144 C1145 1.377 . S
C1145 H1129 0.930 . S
C1145 C1144 1.377 . S
C1145 C1146 1.379 . S
C1146 H1130 0.931 . S
C1146 C1140 1.383 . S
C1146 C1145 1.379 . S
H1147 C1141 0.959 . S
H1148 C1141 0.961 . S
H1149 C1141 0.960 . S
H1150 C1142 0.930 . S
H1151 C1143 0.929 1_565 S
H1152 C1160 0.929 . S
H1153 C1162 0.930 . S
H1154 C1164 0.930 . S
H1155 C1167 0.929 . S
H1156 C1170 0.930 . S
H1157 C1172 0.960 . S
H1158 C1172 0.960 . S
H1159 C1172 0.960 . S
C1160 H1152 0.929 . S
C1160 C1161 1.377 . S
C1160 C1162 1.384 . S
C1161 C1160 1.377 . S
C1161 C1167 1.390 . S
C1162 H1153 0.930 . S
C1162 C1160 1.384 . S
C1162 C1163 1.372 . S
C1163 C1162 1.372 . S
C1163 C1164 1.400 . S
C1163 C1168 1.490 . S
C1164 H1154 0.930 . S
C1164 C1163 1.400 . S
C1164 C1167 1.386 . S
H1165 C1181 0.930 . S
H1166 C1182 0.931 . S
C1167 H1155 0.929 . S
C1167 C1161 1.390 . S
C1167 C1164 1.386 . S
C1168 C1163 1.490 . S
C1168 C1170 1.395 . S
C1168 C1171 1.403 . S
H1169 C1175 0.930 . S
C1170 H1156 0.930 . S
C1170 C1168 1.395 . S
C1170 C1173 1.403 . S
C1171 C1168 1.403 . S
C1171 C1172 1.524 . S
C1171 C1175 1.400 . S
C1172 H1157 0.960 . S
C1172 H1158 0.960 . S
C1172 H1159 0.960 . S
C1172 C1171 1.524 . S
C1173 C1170 1.403 . S
C1173 C1174 1.392 . S
C1173 C1177 1.495 . S
C1174 C1173 1.392 . S
C1174 C1175 1.385 . S
C1174 C1176 1.478 . S
C1175 H1169 0.930 . S
C1175 C1171 1.400 . S
C1175 C1174 1.385 . S
C1176 C1174 1.478 . S
C1176 C1178 1.381 . S
C1176 C1182 1.383 . S
C1177 C1173 1.495 . S
C1177 H1183 0.959 . S
C1177 H1184 0.961 . S
C1177 H1185 0.960 . S
C1178 C1176 1.381 . S
C1178 C1179 1.394 . S
C1178 H1186 0.930 . S
C1179 C1178 1.394 . S
C1179 C1180 1.383 . S
C1179 H1187 0.929 . S
C1180 C1179 1.383 . S
C1180 C1181 1.377 . S
C1181 H1165 0.930 . S
C1181 C1180 1.377 . S
C1181 C1182 1.379 . S
C1182 H1166 0.931 . S
C1182 C1176 1.383 . S
C1182 C1181 1.379 . S
H1183 C1177 0.959 . S
H1184 C1177 0.961 . S
H1185 C1177 0.960 . S
H1186 C1178 0.930 . S
H1187 C1179 0.929 . S
H1188 C1196 0.929 . S
H1189 C1198 0.930 . S
H1190 C1200 0.930 . S
H1191 C1203 0.929 . S
H1192 C1206 0.930 . S
H1193 C1208 0.960 . S
H1194 C1208 0.960 . S
H1195 C1208 0.960 . S
C1196 H1188 0.929 . S
C1196 C1197 1.377 . S
C1196 C1198 1.384 . S
C1197 C1196 1.377 . S
C1197 C1203 1.390 . S
C1198 H1189 0.930 . S
C1198 C1196 1.384 . S
C1198 C1199 1.372 . S
C1199 C1198 1.372 . S
C1199 C1200 1.400 . S
C1199 C1204 1.490 . S
C1200 H1190 0.930 . S
C1200 C1199 1.400 . S
C1200 C1203 1.386 . S
H1201 C1217 0.930 . S
H1202 C1218 0.931 . S
C1203 H1191 0.929 . S
C1203 C1197 1.390 . S
C1203 C1200 1.386 . S
C1204 C1199 1.490 . S
C1204 C1206 1.395 . S
C1204 C1207 1.403 . S
H1205 C1211 0.930 . S
C1206 H1192 0.930 . S
C1206 C1204 1.395 . S
C1206 C1209 1.403 . S
C1207 C1204 1.403 . S
C1207 C1208 1.524 . S
C1207 C1211 1.400 . S
C1208 H1193 0.960 . S
C1208 H1194 0.960 . S
C1208 H1195 0.960 . S
C1208 C1207 1.524 . S
C1209 C1206 1.403 . S
C1209 C1210 1.392 . S
C1209 C1213 1.495 . S
C1210 C1209 1.392 . S
C1210 C1211 1.385 . S
C1210 C1212 1.478 . S
C1211 H1205 0.930 . S
C1211 C1207 1.400 . S
C1211 C1210 1.385 . S
C1212 C1210 1.478 . S
C1212 C1214 1.381 . S
C1212 C1218 1.383 . S
C1213 C1209 1.495 . S
C1213 H1219 0.959 . S
C1213 H1220 0.961 . S
C1213 H1221 0.960 . S
C1214 C1212 1.381 . S
C1214 C1215 1.394 . S
C1214 H1222 0.930 . S
C1215 C1214 1.394 . S
C1215 C1216 1.383 . S
C1215 H1223 0.929 . S
C1216 C1215 1.383 . S
C1216 C1217 1.377 . S
C1217 H1201 0.930 . S
C1217 C1216 1.377 . S
C1217 C1218 1.379 . S
C1218 H1202 0.931 . S
C1218 C1212 1.383 . S
C1218 C1217 1.379 . S
H1219 C1213 0.959 . S
H1220 C1213 0.961 . S
H1221 C1213 0.960 . S
H1222 C1214 0.930 . S
H1223 C1215 0.929 . S
H1224 C1232 0.929 . S
H1225 C1234 0.930 . S
H1226 C1236 0.930 . S
H1227 C1239 0.929 . S
H1228 C1242 0.930 . S
H1229 C1244 0.960 . S
H1230 C1244 0.960 . S
H1231 C1244 0.960 . S
C1232 H1224 0.929 . S
C1232 C1233 1.377 . S
C1232 C1234 1.384 . S
C1233 C1232 1.377 . S
C1233 C1239 1.390 . S
C1234 H1225 0.930 . S
C1234 C1232 1.384 . S
C1234 C1235 1.372 . S
C1235 C1234 1.372 . S
C1235 C1236 1.400 . S
C1235 C1240 1.490 . S
C1236 H1226 0.930 . S
C1236 C1235 1.400 . S
C1236 C1239 1.386 . S
H1237 C1253 0.930 . S
H1238 C1254 0.931 . S
C1239 H1227 0.929 . S
C1239 C1233 1.390 . S
C1239 C1236 1.386 . S
C1240 C1235 1.490 . S
C1240 C1242 1.395 . S
C1240 C1243 1.403 . S
H1241 C1247 0.930 . S
C1242 H1228 0.930 . S
C1242 C1240 1.395 . S
C1242 C1245 1.403 . S
C1243 C1240 1.403 . S
C1243 C1244 1.524 . S
C1243 C1247 1.400 . S
C1244 H1229 0.960 . S
C1244 H1230 0.960 . S
C1244 H1231 0.960 . S
C1244 C1243 1.524 . S
C1245 C1242 1.403 . S
C1245 C1246 1.392 . S
C1245 C1249 1.495 . S
C1246 C1245 1.392 . S
C1246 C1247 1.385 . S
C1246 C1248 1.478 . S
C1247 H1241 0.930 . S
C1247 C1243 1.400 . S
C1247 C1246 1.385 . S
C1248 C1246 1.478 . S
C1248 C1250 1.381 . S
C1248 C1254 1.383 . S
C1249 C1245 1.495 . S
C1249 H1255 0.959 . S
C1249 H1256 0.961 . S
C1249 H1257 0.960 . S
C1250 C1248 1.381 . S
C1250 C1251 1.394 . S
C1250 H1258 0.930 . S
C1251 C1250 1.394 . S
C1251 C1252 1.383 . S
C1251 H1259 0.929 1_556 S
C1252 C1251 1.383 . S
C1252 C1253 1.377 . S
C1253 H1237 0.930 . S
C1253 C1252 1.377 . S
C1253 C1254 1.379 . S
C1254 H1238 0.931 . S
C1254 C1248 1.383 . S
C1254 C1253 1.379 . S
H1255 C1249 0.959 . S
H1256 C1249 0.961 . S
H1257 C1249 0.960 . S
H1258 C1250 0.930 . S
H1259 C1251 0.929 1_554 S
H1260 C1268 0.929 . S
H1261 C1270 0.930 . S
H1262 C1272 0.930 . S
H1263 C1275 0.929 . S
H1264 C1278 0.930 . S
H1265 C1280 0.960 . S
H1266 C1280 0.960 . S
H1267 C1280 0.960 . S
C1268 H1260 0.929 . S
C1268 C1269 1.377 . S
C1268 C1270 1.384 . S
C1269 C1268 1.377 . S
C1269 C1275 1.390 . S
C1270 H1261 0.930 . S
C1270 C1268 1.384 . S
C1270 C1271 1.372 . S
C1271 C1270 1.372 . S
C1271 C1272 1.400 . S
C1271 C1276 1.490 . S
C1272 H1262 0.930 . S
C1272 C1271 1.400 . S
C1272 C1275 1.386 . S
H1273 C1289 0.930 . S
H1274 C1290 0.931 . S
C1275 H1263 0.929 . S
C1275 C1269 1.390 . S
C1275 C1272 1.386 . S
C1276 C1271 1.490 . S
C1276 C1278 1.395 . S
C1276 C1279 1.403 . S
H1277 C1283 0.930 . S
C1278 H1264 0.930 . S
C1278 C1276 1.395 . S
C1278 C1281 1.403 . S
C1279 C1276 1.403 . S
C1279 C1280 1.524 . S
C1279 C1283 1.400 . S
C1280 H1265 0.960 . S
C1280 H1266 0.960 . S
C1280 H1267 0.960 . S
C1280 C1279 1.524 . S
C1281 C1278 1.403 . S
C1281 C1282 1.392 . S
C1281 C1285 1.495 . S
C1282 C1281 1.392 . S
C1282 C1283 1.385 . S
C1282 C1284 1.478 . S
C1283 H1277 0.930 . S
C1283 C1279 1.400 . S
C1283 C1282 1.385 . S
C1284 C1282 1.478 . S
C1284 C1286 1.381 . S
C1284 C1290 1.383 . S
C1285 C1281 1.495 . S
C1285 H1291 0.959 . S
C1285 H1292 0.961 . S
C1285 H1293 0.960 . S
C1286 C1284 1.381 . S
C1286 C1287 1.394 . S
C1286 H1294 0.930 . S
C1287 C1286 1.394 . S
C1287 C1288 1.383 . S
C1287 H1295 0.929 . S
C1288 C1287 1.383 . S
C1288 C1289 1.377 . S
C1289 H1273 0.930 . S
C1289 C1288 1.377 . S
C1289 C1290 1.379 . S
C1290 H1274 0.931 . S
C1290 C1284 1.383 . S
C1290 C1289 1.379 . S
H1291 C1285 0.959 . S
H1292 C1285 0.961 . S
H1293 C1285 0.960 . S
H1294 C1286 0.930 . S
H1295 C1287 0.929 . S
H1296 C1304 0.929 . S
H1297 C1306 0.930 . S
H1298 C1308 0.930 . S
H1299 C1311 0.929 . S
H1300 C1314 0.930 . S
H1301 C1316 0.960 . S
H1302 C1316 0.960 . S
H1303 C1316 0.960 . S
C1304 H1296 0.929 . S
C1304 C1305 1.377 . S
C1304 C1306 1.384 . S
C1305 C1304 1.377 . S
C1305 C1311 1.390 . S
C1306 H1297 0.930 . S
C1306 C1304 1.384 . S
C1306 C1307 1.372 . S
C1307 C1306 1.372 . S
C1307 C1308 1.400 . S
C1307 C1312 1.490 . S
C1308 H1298 0.930 . S
C1308 C1307 1.400 . S
C1308 C1311 1.386 . S
H1309 C1325 0.930 . S
H1310 C1326 0.931 . S
C1311 H1299 0.929 . S
C1311 C1305 1.390 . S
C1311 C1308 1.386 . S
C1312 C1307 1.490 . S
C1312 C1314 1.395 . S
C1312 C1315 1.403 . S
H1313 C1319 0.930 . S
C1314 H1300 0.930 . S
C1314 C1312 1.395 . S
C1314 C1317 1.403 . S
C1315 C1312 1.403 . S
C1315 C1316 1.524 . S
C1315 C1319 1.400 . S
C1316 H1301 0.960 . S
C1316 H1302 0.960 . S
C1316 H1303 0.960 . S
C1316 C1315 1.524 . S
C1317 C1314 1.403 . S
C1317 C1318 1.392 . S
C1317 C1321 1.495 . S
C1318 C1317 1.392 . S
C1318 C1319 1.385 . S
C1318 C1320 1.478 . S
C1319 H1313 0.930 . S
C1319 C1315 1.400 . S
C1319 C1318 1.385 . S
C1320 C1318 1.478 . S
C1320 C1322 1.381 . S
C1320 C1326 1.383 . S
C1321 C1317 1.495 . S
C1321 H1327 0.959 . S
C1321 H1328 0.961 . S
C1321 H1329 0.960 . S
C1322 C1320 1.381 . S
C1322 C1323 1.394 . S
C1322 H1330 0.930 . S
C1323 C1322 1.394 . S
C1323 C1324 1.383 . S
C1323 H1331 0.929 . S
C1324 C1323 1.383 . S
C1324 C1325 1.377 . S
C1325 H1309 0.930 . S
C1325 C1324 1.377 . S
C1325 C1326 1.379 . S
C1326 H1310 0.931 . S
C1326 C1320 1.383 . S
C1326 C1325 1.379 . S
H1327 C1321 0.959 . S
H1328 C1321 0.961 . S
H1329 C1321 0.960 . S
H1330 C1322 0.930 . S
H1331 C1323 0.929 . S
H1332 C1340 0.929 . S
H1333 C1342 0.930 . S
H1334 C1344 0.930 . S
H1335 C1347 0.929 . S
H1336 C1350 0.930 . S
H1337 C1352 0.960 . S
H1338 C1352 0.960 . S
H1339 C1352 0.960 . S
C1340 H1332 0.929 . S
C1340 C1341 1.377 . S
C1340 C1342 1.384 . S
C1341 C1340 1.377 . S
C1341 C1347 1.390 . S
C1342 H1333 0.930 . S
C1342 C1340 1.384 . S
C1342 C1343 1.372 . S
C1343 C1342 1.372 . S
C1343 C1344 1.400 . S
C1343 C1348 1.490 . S
C1344 H1334 0.930 . S
C1344 C1343 1.400 . S
C1344 C1347 1.386 . S
H1345 C1361 0.930 . S
H1346 C1362 0.931 . S
C1347 H1335 0.929 . S
C1347 C1341 1.390 . S
C1347 C1344 1.386 . S
C1348 C1343 1.490 . S
C1348 C1350 1.395 . S
C1348 C1351 1.403 . S
H1349 C1355 0.930 . S
C1350 H1336 0.930 . S
C1350 C1348 1.395 . S
C1350 C1353 1.403 . S
C1351 C1348 1.403 . S
C1351 C1352 1.524 . S
C1351 C1355 1.400 . S
C1352 H1337 0.960 . S
C1352 H1338 0.960 . S
C1352 H1339 0.960 . S
C1352 C1351 1.524 . S
C1353 C1350 1.403 . S
C1353 C1354 1.392 . S
C1353 C1357 1.495 . S
C1354 C1353 1.392 . S
C1354 C1355 1.385 . S
C1354 C1356 1.478 . S
C1355 H1349 0.930 . S
C1355 C1351 1.400 . S
C1355 C1354 1.385 . S
C1356 C1354 1.478 . S
C1356 C1358 1.381 . S
C1356 C1362 1.383 1_455 S
C1357 C1353 1.495 . S
C1357 H1363 0.959 . S
C1357 H1364 0.961 . S
C1357 H1365 0.960 . S
C1358 C1356 1.381 . S
C1358 C1359 1.394 . S
C1358 H1366 0.930 . S
C1359 C1358 1.394 . S
C1359 C1360 1.383 . S
C1359 H1367 0.929 . S
C1360 C1359 1.383 . S
C1360 C1361 1.377 1_455 S
C1361 H1345 0.930 . S
C1361 C1360 1.377 1_655 S
C1361 C1362 1.379 . S
C1362 H1346 0.931 . S
C1362 C1356 1.383 1_655 S
C1362 C1361 1.379 . S
H1363 C1357 0.959 . S
H1364 C1357 0.961 . S
H1365 C1357 0.960 . S
H1366 C1358 0.930 . S
H1367 C1359 0.929 . S
H1368 C1376 0.915 1_455 S
H1369 C1378 0.930 . S
H1370 C1380 0.930 . S
H1371 C1383 0.929 . S
H1372 C1386 0.930 1_455 S
H1373 C1388 0.960 . S
H1374 C1388 0.960 . S
H1375 C1388 0.960 . S
C1376 H1368 0.915 1_655 S
C1376 C1377 1.382 . S
C1376 C1378 1.394 . S
C1377 C1376 1.382 . S
C1377 C1383 1.390 . S
C1378 H1369 0.930 . S
C1378 C1376 1.394 . S
C1378 C1379 1.372 . S
C1379 C1378 1.372 . S
C1379 C1380 1.400 . S
C1379 C1384 1.490 . S
C1380 H1370 0.930 . S
C1380 C1379 1.400 . S
C1380 C1383 1.386 . S
H1381 C1397 0.930 . S
H1382 C1398 0.931 . S
C1383 H1371 0.929 . S
C1383 C1377 1.390 . S
C1383 C1380 1.386 . S
C1384 C1379 1.490 . S
C1384 C1386 1.395 . S
C1384 C1387 1.403 . S
H1385 C1391 0.930 . S
C1386 H1372 0.930 1_655 S
C1386 C1384 1.395 . S
C1386 C1389 1.403 . S
C1387 C1384 1.403 . S
C1387 C1388 1.524 . S
C1387 C1391 1.400 . S
C1388 H1373 0.960 . S
C1388 H1374 0.960 . S
C1388 H1375 0.960 . S
C1388 C1387 1.524 . S
C1389 C1386 1.403 . S
C1389 C1390 1.392 . S
C1389 C1393 1.495 . S
C1390 C1389 1.392 . S
C1390 C1391 1.385 . S
C1390 C1392 1.478 . S
C1391 H1385 0.930 . S
C1391 C1387 1.400 . S
C1391 C1390 1.385 . S
C1392 C1390 1.478 . S
C1392 C1394 1.381 . S
C1392 C1398 1.383 . S
C1393 C1389 1.495 . S
C1393 H1399 0.959 1_655 S
C1393 H1400 0.961 . S
C1393 H1401 0.960 . S
C1394 C1392 1.381 . S
C1394 C1395 1.394 . S
C1394 H1402 0.930 . S
C1395 C1394 1.394 . S
C1395 C1396 1.383 . S
C1395 H1403 0.929 . S
C1396 C1395 1.383 . S
C1396 C1397 1.377 . S
C1397 H1381 0.930 . S
C1397 C1396 1.377 . S
C1397 C1398 1.379 . S
C1398 H1382 0.931 . S
C1398 C1392 1.383 . S
C1398 C1397 1.379 . S
H1399 C1393 0.959 1_455 S
H1400 C1393 0.961 . S
H1401 C1393 0.960 . S
H1402 C1394 0.930 . S
H1403 C1395 0.929 . S
H1404 C1412 0.929 . S
H1405 C1414 0.930 . S
H1406 C1416 0.930 . S
H1407 C1419 0.929 . S
H1408 C1422 0.930 . S
H1409 C1424 0.960 . S
H1410 C1424 0.960 . S
H1411 C1424 0.960 . S
C1412 H1404 0.929 . S
C1412 C1413 1.377 . S
C1412 C1414 1.384 . S
C1413 C1412 1.377 . S
C1413 C1419 1.390 . S
C1414 H1405 0.930 . S
C1414 C1412 1.384 . S
C1414 C1415 1.372 . S
C1415 C1414 1.372 . S
C1415 C1416 1.400 . S
C1415 C1420 1.490 . S
C1416 H1406 0.930 . S
C1416 C1415 1.400 . S
C1416 C1419 1.386 . S
H1417 C1433 0.930 . S
H1418 C1434 0.931 . S
C1419 H1407 0.929 . S
C1419 C1413 1.390 . S
C1419 C1416 1.386 . S
C1420 C1415 1.490 . S
C1420 C1422 1.395 . S
C1420 C1423 1.403 . S
H1421 C1427 0.930 . S
C1422 H1408 0.930 . S
C1422 C1420 1.395 . S
C1422 C1425 1.403 . S
C1423 C1420 1.403 . S
C1423 C1424 1.524 . S
C1423 C1427 1.400 . S
C1424 H1409 0.960 . S
C1424 H1410 0.960 . S
C1424 H1411 0.960 . S
C1424 C1423 1.524 . S
C1425 C1422 1.403 . S
C1425 C1426 1.392 . S
C1425 C1429 1.495 . S
C1426 C1425 1.392 . S
C1426 C1427 1.385 . S
C1426 C1428 1.478 . S
C1427 H1421 0.930 . S
C1427 C1423 1.400 . S
C1427 C1426 1.385 . S
C1428 C1426 1.478 . S
C1428 C1430 1.381 . S
C1428 C1434 1.383 . S
C1429 C1425 1.495 . S
C1429 H1435 0.959 . S
C1429 H1436 0.961 . S
C1429 H1437 0.960 . S
C1430 C1428 1.381 . S
C1430 C1431 1.394 . S
C1430 H1438 0.930 . S
C1431 C1430 1.394 . S
C1431 C1432 1.383 . S
C1431 H1439 0.929 . S
C1432 C1431 1.383 . S
C1432 C1433 1.377 . S
C1433 H1417 0.930 . S
C1433 C1432 1.377 . S
C1433 C1434 1.379 . S
C1434 H1418 0.931 . S
C1434 C1428 1.383 . S
C1434 C1433 1.379 . S
H1435 C1429 0.959 . S
H1436 C1429 0.961 . S
H1437 C1429 0.960 . S
H1438 C1430 0.930 . S
H1439 C1431 0.929 . S
H1440 C1448 0.929 . S
H1441 C1450 0.930 . S
H1442 C1452 0.930 . S
H1443 C1455 0.929 . S
H1444 C1458 0.930 . S
H1445 C1460 0.960 . S
H1446 C1460 0.960 . S
H1447 C1460 0.960 . S
C1448 H1440 0.929 . S
C1448 C1449 1.377 . S
C1448 C1450 1.384 . S
C1449 C1448 1.377 . S
C1449 C1455 1.390 . S
C1450 H1441 0.930 . S
C1450 C1448 1.384 . S
C1450 C1451 1.372 . S
C1451 C1450 1.372 . S
C1451 C1452 1.400 . S
C1451 C1456 1.490 . S
C1452 H1442 0.930 . S
C1452 C1451 1.400 . S
C1452 C1455 1.386 . S
H1453 C1469 0.930 . S
H1454 C1470 0.931 . S
C1455 H1443 0.929 . S
C1455 C1449 1.390 . S
C1455 C1452 1.386 . S
C1456 C1451 1.490 . S
C1456 C1458 1.395 . S
C1456 C1459 1.403 . S
H1457 C1463 0.930 . S
C1458 H1444 0.930 . S
C1458 C1456 1.395 . S
C1458 C1461 1.403 . S
C1459 C1456 1.403 . S
C1459 C1460 1.524 . S
C1459 C1463 1.400 . S
C1460 H1445 0.960 . S
C1460 H1446 0.960 . S
C1460 H1447 0.960 . S
C1460 C1459 1.524 . S
C1461 C1458 1.403 . S
C1461 C1462 1.392 . S
C1461 C1465 1.495 . S
C1462 C1461 1.392 . S
C1462 C1463 1.385 . S
C1462 C1464 1.478 . S
C1463 H1457 0.930 . S
C1463 C1459 1.400 . S
C1463 C1462 1.385 . S
C1464 C1462 1.478 . S
C1464 C1466 1.381 . S
C1464 C1470 1.383 . S
C1465 C1461 1.495 . S
C1465 H1471 0.959 . S
C1465 H1472 0.961 . S
C1465 H1473 0.960 . S
C1466 C1464 1.381 . S
C1466 C1467 1.394 . S
C1466 H1474 0.930 . S
C1467 C1466 1.394 . S
C1467 C1468 1.383 . S
C1467 H1475 0.929 . S
C1468 C1467 1.383 . S
C1468 C1469 1.377 . S
C1469 H1453 0.930 . S
C1469 C1468 1.377 . S
C1469 C1470 1.379 . S
C1470 H1454 0.931 . S
C1470 C1464 1.383 . S
C1470 C1469 1.379 . S
H1471 C1465 0.959 . S
H1472 C1465 0.961 . S
H1473 C1465 0.960 . S
H1474 C1466 0.930 . S
H1475 C1467 0.929 . S
H1476 C1484 0.929 . S
H1477 C1486 0.930 . S
H1478 C1488 0.930 . S
H1479 C1491 0.929 . S
H1480 C1494 0.930 . S
H1481 C1496 0.960 . S
H1482 C1496 0.960 . S
H1483 C1496 0.960 . S
C1484 H1476 0.929 . S
C1484 C1485 1.377 . S
C1484 C1486 1.384 . S
C1485 C1484 1.377 . S
C1485 C1491 1.390 . S
C1486 H1477 0.930 . S
C1486 C1484 1.384 . S
C1486 C1487 1.372 . S
C1487 C1486 1.372 . S
C1487 C1488 1.400 . S
C1487 C1492 1.490 . S
C1488 H1478 0.930 . S
C1488 C1487 1.400 . S
C1488 C1491 1.386 . S
H1489 C1505 0.930 . S
H1490 C1506 0.931 . S
C1491 H1479 0.929 . S
C1491 C1485 1.390 . S
C1491 C1488 1.386 . S
C1492 C1487 1.490 . S
C1492 C1494 1.395 . S
C1492 C1495 1.403 . S
H1493 C1499 0.930 . S
C1494 H1480 0.930 . S
C1494 C1492 1.395 . S
C1494 C1497 1.403 . S
C1495 C1492 1.403 . S
C1495 C1496 1.524 . S
C1495 C1499 1.400 . S
C1496 H1481 0.960 . S
C1496 H1482 0.960 . S
C1496 H1483 0.960 . S
C1496 C1495 1.524 . S
C1497 C1494 1.403 . S
C1497 C1498 1.392 . S
C1497 C1501 1.495 . S
C1498 C1497 1.392 . S
C1498 C1499 1.385 . S
C1498 C1500 1.478 . S
C1499 H1493 0.930 . S
C1499 C1495 1.400 . S
C1499 C1498 1.385 . S
C1500 C1498 1.478 . S
C1500 C1502 1.381 . S
C1500 C1506 1.383 . S
C1501 C1497 1.495 . S
C1501 H1507 0.959 . S
C1501 H1508 0.961 . S
C1501 H1509 0.960 . S
C1502 C1500 1.381 . S
C1502 C1503 1.394 . S
C1502 H1510 0.930 . S
C1503 C1502 1.394 . S
C1503 C1504 1.383 . S
C1503 H1511 0.929 . S
C1504 C1503 1.383 . S
C1504 C1505 1.377 . S
C1505 H1489 0.930 . S
C1505 C1504 1.377 . S
C1505 C1506 1.379 . S
C1506 H1490 0.931 . S
C1506 C1500 1.383 . S
C1506 C1505 1.379 . S
H1507 C1501 0.959 . S
H1508 C1501 0.961 . S
H1509 C1501 0.960 . S
H1510 C1502 0.930 . S
H1511 C1503 0.929 . S
H1512 C1520 0.929 . S
H1513 C1522 0.930 . S
H1514 C1524 0.930 . S
H1515 C1527 0.929 . S
H1516 C1530 0.930 . S
H1517 C1532 0.960 . S
H1518 C1532 0.960 . S
H1519 C1532 0.960 . S
C1520 H1512 0.929 . S
C1520 C1521 1.377 . S
C1520 C1522 1.384 . S
C1521 C1520 1.377 . S
C1521 C1527 1.390 . S
C1522 H1513 0.930 . S
C1522 C1520 1.384 . S
C1522 C1523 1.372 . S
C1523 C1522 1.372 . S
C1523 C1524 1.400 . S
C1523 C1528 1.490 . S
C1524 H1514 0.930 . S
C1524 C1523 1.400 . S
C1524 C1527 1.386 . S
H1525 C1541 0.930 . S
H1526 C1542 0.931 . S
C1527 H1515 0.929 . S
C1527 C1521 1.390 . S
C1527 C1524 1.386 . S
C1528 C1523 1.490 . S
C1528 C1530 1.395 . S
C1528 C1531 1.403 . S
H1529 C1535 0.930 . S
C1530 H1516 0.930 . S
C1530 C1528 1.395 . S
C1530 C1533 1.403 . S
C1531 C1528 1.403 . S
C1531 C1532 1.524 . S
C1531 C1535 1.400 . S
C1532 H1517 0.960 . S
C1532 H1518 0.960 . S
C1532 H1519 0.960 . S
C1532 C1531 1.524 . S
C1533 C1530 1.403 . S
C1533 C1534 1.392 . S
C1533 C1537 1.495 . S
C1534 C1533 1.392 . S
C1534 C1535 1.385 . S
C1534 C1536 1.478 . S
C1535 H1529 0.930 . S
C1535 C1531 1.400 . S
C1535 C1534 1.385 . S
C1536 C1534 1.478 . S
C1536 C1538 1.381 . S
C1536 C1542 1.383 . S
C1537 C1533 1.495 . S
C1537 H1543 0.959 . S
C1537 H1544 0.961 . S
C1537 H1545 0.960 . S
C1538 C1536 1.381 . S
C1538 C1539 1.394 . S
C1538 H1546 0.930 . S
C1539 C1538 1.394 . S
C1539 C1540 1.383 . S
C1539 H1547 0.929 . S
C1540 C1539 1.383 . S
C1540 C1541 1.377 . S
C1541 H1525 0.930 . S
C1541 C1540 1.377 . S
C1541 C1542 1.379 . S
C1542 H1526 0.931 . S
C1542 C1536 1.383 . S
C1542 C1541 1.379 . S
H1543 C1537 0.959 . S
H1544 C1537 0.961 . S
H1545 C1537 0.960 . S
H1546 C1538 0.930 . S
H1547 C1539 0.929 . S
H1548 C1556 0.929 . S
H1549 C1558 0.930 . S
H1550 C1560 0.930 . S
H1551 C1563 0.929 . S
H1552 C1566 0.930 . S
H1553 C1568 0.960 . S
H1554 C1568 0.960 . S
H1555 C1568 0.960 . S
C1556 H1548 0.929 . S
C1556 C1557 1.377 . S
C1556 C1558 1.384 . S
C1557 C1556 1.377 . S
C1557 C1563 1.390 . S
C1558 H1549 0.930 . S
C1558 C1556 1.384 . S
C1558 C1559 1.372 . S
C1559 C1558 1.372 . S
C1559 C1560 1.400 . S
C1559 C1564 1.490 . S
C1560 H1550 0.930 . S
C1560 C1559 1.400 . S
C1560 C1563 1.386 . S
H1561 C1577 0.930 . S
H1562 C1578 0.931 . S
C1563 H1551 0.929 . S
C1563 C1557 1.390 . S
C1563 C1560 1.386 . S
C1564 C1559 1.490 . S
C1564 C1566 1.395 . S
C1564 C1567 1.403 . S
H1565 C1571 0.930 . S
C1566 H1552 0.930 . S
C1566 C1564 1.395 . S
C1566 C1569 1.403 . S
C1567 C1564 1.403 . S
C1567 C1568 1.524 . S
C1567 C1571 1.400 1_554 S
C1568 H1553 0.960 . S
C1568 H1554 0.960 . S
C1568 H1555 0.960 . S
C1568 C1567 1.524 . S
C1569 C1566 1.403 . S
C1569 C1570 1.392 1_554 S
C1569 C1573 1.495 . S
C1570 C1569 1.392 1_556 S
C1570 C1571 1.385 . S
C1570 C1572 1.478 . S
C1571 H1565 0.930 . S
C1571 C1567 1.400 1_556 S
C1571 C1570 1.385 . S
C1572 C1570 1.478 . S
C1572 C1574 1.381 . S
C1572 C1578 1.383 . S
C1573 C1569 1.495 . S
C1573 H1579 0.959 . S
C1573 H1580 0.961 . S
C1573 H1581 0.960 . S
C1574 C1572 1.381 . S
C1574 C1575 1.394 . S
C1574 H1582 0.930 . S
C1575 C1574 1.394 . S
C1575 C1576 1.383 . S
C1575 H1583 0.929 . S
C1576 C1575 1.383 . S
C1576 C1577 1.377 . S
C1577 H1561 0.930 . S
C1577 C1576 1.377 . S
C1577 C1578 1.379 . S
C1578 H1562 0.931 . S
C1578 C1572 1.383 . S
C1578 C1577 1.379 . S
H1579 C1573 0.959 . S
H1580 C1573 0.961 . S
H1581 C1573 0.960 . S
H1582 C1574 0.930 . S
H1583 C1575 0.929 . S
H1584 C1592 0.929 . S
H1585 C1594 0.930 . S
H1586 C1596 0.930 . S
H1587 C1599 0.929 . S
H1588 C1602 0.930 . S
H1589 C1604 0.960 . S
H1590 C1604 0.960 . S
H1591 C1604 0.960 . S
C1592 H1584 0.929 . S
C1592 C1593 1.377 . S
C1592 C1594 1.384 . S
C1593 C1592 1.377 . S
C1593 C1599 1.390 . S
C1594 H1585 0.930 . S
C1594 C1592 1.384 . S
C1594 C1595 1.372 . S
C1595 C1594 1.372 . S
C1595 C1596 1.400 . S
C1595 C1600 1.490 . S
C1596 H1586 0.930 . S
C1596 C1595 1.400 . S
C1596 C1599 1.386 . S
H1597 C1613 0.930 . S
H1598 C1614 0.931 . S
C1599 H1587 0.929 . S
C1599 C1593 1.390 . S
C1599 C1596 1.386 . S
C1600 C1595 1.490 . S
C1600 C1602 1.395 . S
C1600 C1603 1.403 . S
H1601 C1607 0.930 . S
C1602 H1588 0.930 . S
C1602 C1600 1.395 . S
C1602 C1605 1.403 . S
C1603 C1600 1.403 . S
C1603 C1604 1.524 . S
C1603 C1607 1.400 . S
C1604 H1589 0.960 . S
C1604 H1590 0.960 . S
C1604 H1591 0.960 . S
C1604 C1603 1.524 . S
C1605 C1602 1.403 . S
C1605 C1606 1.392 . S
C1605 C1609 1.495 . S
C1606 C1605 1.392 . S
C1606 C1607 1.385 . S
C1606 C1608 1.478 . S
C1607 H1601 0.930 . S
C1607 C1603 1.400 . S
C1607 C1606 1.385 . S
C1608 C1606 1.478 . S
C1608 C1610 1.381 . S
C1608 C1614 1.383 . S
C1609 C1605 1.495 . S
C1609 H1615 0.959 . S
C1609 H1616 0.961 . S
C1609 H1617 0.960 . S
C1610 C1608 1.381 . S
C1610 C1611 1.394 . S
C1610 H1618 0.930 . S
C1611 C1610 1.394 . S
C1611 C1612 1.383 . S
C1611 H1619 0.929 . S
C1612 C1611 1.383 . S
C1612 C1613 1.377 . S
C1613 H1597 0.930 . S
C1613 C1612 1.377 . S
C1613 C1614 1.379 . S
C1614 H1598 0.931 . S
C1614 C1608 1.383 . S
C1614 C1613 1.379 . S
H1615 C1609 0.959 . S
H1616 C1609 0.961 . S
H1617 C1609 0.960 . S
H1618 C1610 0.930 . S
H1619 C1611 0.929 . S
H1620 C1628 0.929 . S
H1621 C1630 0.930 . S
H1622 C1632 0.930 . S
H1623 C1635 0.929 . S
H1624 C1638 0.930 . S
H1625 C1640 0.960 . S
H1626 C1640 0.960 . S
H1627 C1640 0.960 . S
C1628 H1620 0.929 . S
C1628 C1629 1.377 . S
C1628 C1630 1.384 . S
C1629 C1628 1.377 . S
C1629 C1635 1.390 . S
C1630 H1621 0.930 . S
C1630 C1628 1.384 . S
C1630 C1631 1.372 . S
C1631 C1630 1.372 . S
C1631 C1632 1.400 . S
C1631 C1636 1.490 1_554 S
C1632 H1622 0.930 . S
C1632 C1631 1.400 . S
C1632 C1635 1.386 . S
H1633 C1649 0.930 . S
H1634 C1650 0.931 . S
C1635 H1623 0.929 . S
C1635 C1629 1.390 . S
C1635 C1632 1.386 . S
C1636 C1631 1.490 1_556 S
C1636 C1638 1.395 . S
C1636 C1639 1.403 . S
H1637 C1643 0.930 . S
C1638 H1624 0.930 . S
C1638 C1636 1.395 . S
C1638 C1641 1.403 . S
C1639 C1636 1.403 . S
C1639 C1640 1.524 1_556 S
C1639 C1643 1.400 . S
C1640 H1625 0.960 . S
C1640 H1626 0.960 . S
C1640 H1627 0.960 . S
C1640 C1639 1.524 1_554 S
C1641 C1638 1.403 . S
C1641 C1642 1.392 . S
C1641 C1645 1.495 . S
C1642 C1641 1.392 . S
C1642 C1643 1.385 . S
C1642 C1644 1.478 . S
C1643 H1637 0.930 . S
C1643 C1639 1.400 . S
C1643 C1642 1.385 . S
C1644 C1642 1.478 . S
C1644 C1646 1.381 . S
C1644 C1650 1.383 . S
C1645 C1641 1.495 . S
C1645 H1651 0.959 . S
C1645 H1652 0.961 . S
C1645 H1653 0.960 . S
C1646 C1644 1.381 . S
C1646 C1647 1.394 . S
C1646 H1654 0.930 . S
C1647 C1646 1.394 . S
C1647 C1648 1.383 . S
C1647 H1655 0.929 . S
C1648 C1647 1.383 . S
C1648 C1649 1.377 . S
C1649 H1633 0.930 . S
C1649 C1648 1.377 . S
C1649 C1650 1.379 . S
C1650 H1634 0.931 . S
C1650 C1644 1.383 . S
C1650 C1649 1.379 . S
H1651 C1645 0.959 . S
H1652 C1645 0.961 . S
H1653 C1645 0.960 . S
H1654 C1646 0.930 . S
H1655 C1647 0.929 . S
H1656 C1664 0.929 . S
H1657 C1666 0.930 . S
H1658 C1668 0.930 . S
H1659 C1671 0.929 . S
H1660 C1674 0.930 . S
H1661 C1676 0.960 . S
H1662 C1676 0.960 . S
H1663 C1676 0.960 . S
C1664 H1656 0.929 . S
C1664 C1665 1.377 . S
C1664 C1666 1.384 . S
C1665 C1664 1.377 . S
C1665 C1671 1.390 . S
C1666 H1657 0.930 . S
C1666 C1664 1.384 . S
C1666 C1667 1.372 . S
C1667 C1666 1.372 . S
C1667 C1668 1.400 . S
C1667 C1672 1.490 . S
C1668 H1658 0.930 . S
C1668 C1667 1.400 . S
C1668 C1671 1.386 . S
H1669 C1685 0.930 . S
H1670 C1686 0.931 . S
C1671 H1659 0.929 . S
C1671 C1665 1.390 . S
C1671 C1668 1.386 . S
C1672 C1667 1.490 . S
C1672 C1674 1.395 . S
C1672 C1675 1.403 . S
H1673 C1679 0.930 . S
C1674 H1660 0.930 . S
C1674 C1672 1.395 . S
C1674 C1677 1.403 . S
C1675 C1672 1.403 . S
C1675 C1676 1.524 . S
C1675 C1679 1.400 . S
C1676 H1661 0.960 . S
C1676 H1662 0.960 . S
C1676 H1663 0.960 . S
C1676 C1675 1.524 . S
C1677 C1674 1.403 . S
C1677 C1678 1.392 . S
C1677 C1681 1.495 . S
C1678 C1677 1.392 . S
C1678 C1679 1.385 . S
C1678 C1680 1.478 . S
C1679 H1673 0.930 . S
C1679 C1675 1.400 . S
C1679 C1678 1.385 . S
C1680 C1678 1.478 . S
C1680 C1682 1.381 . S
C1680 C1686 1.383 . S
C1681 C1677 1.495 . S
C1681 H1687 0.959 . S
C1681 H1688 0.961 . S
C1681 H1689 0.960 . S
C1682 C1680 1.381 . S
C1682 C1683 1.394 . S
C1682 H1690 0.930 . S
C1683 C1682 1.394 . S
C1683 C1684 1.383 . S
C1683 H1691 0.929 . S
C1684 C1683 1.383 . S
C1684 C1685 1.377 . S
C1685 H1669 0.930 . S
C1685 C1684 1.377 . S
C1685 C1686 1.379 . S
C1686 H1670 0.931 . S
C1686 C1680 1.383 . S
C1686 C1685 1.379 . S
H1687 C1681 0.959 . S
H1688 C1681 0.961 . S
H1689 C1681 0.960 . S
H1690 C1682 0.930 . S
H1691 C1683 0.929 . S
H1692 C1700 0.929 . S
H1693 C1702 0.930 . S
H1694 C1704 0.930 . S
H1695 C1707 0.929 . S
H1696 C1710 0.930 . S
H1697 C1712 0.960 . S
H1698 C1712 0.960 . S
H1699 C1712 0.960 . S
C1700 H1692 0.929 . S
C1700 C1701 1.377 . S
C1700 C1702 1.384 . S
C1701 C1700 1.377 . S
C1701 C1707 1.390 . S
C1702 H1693 0.930 . S
C1702 C1700 1.384 . S
C1702 C1703 1.372 . S
C1703 C1702 1.372 . S
C1703 C1704 1.400 . S
C1703 C1708 1.490 . S
C1704 H1694 0.930 . S
C1704 C1703 1.400 . S
C1704 C1707 1.386 . S
H1705 C1721 0.930 . S
H1706 C1722 0.931 . S
C1707 H1695 0.929 . S
C1707 C1701 1.390 . S
C1707 C1704 1.386 . S
C1708 C1703 1.490 . S
C1708 C1710 1.395 . S
C1708 C1711 1.403 . S
H1709 C1715 0.930 . S
C1710 H1696 0.930 . S
C1710 C1708 1.395 . S
C1710 C1713 1.403 . S
C1711 C1708 1.403 . S
C1711 C1712 1.524 . S
C1711 C1715 1.400 . S
C1712 H1697 0.960 . S
C1712 H1698 0.960 . S
C1712 H1699 0.960 . S
C1712 C1711 1.524 . S
C1713 C1710 1.403 . S
C1713 C1714 1.392 . S
C1713 C1717 1.495 . S
C1714 C1713 1.392 . S
C1714 C1715 1.385 . S
C1714 C1716 1.478 . S
C1715 H1709 0.930 . S
C1715 C1711 1.400 . S
C1715 C1714 1.385 . S
C1716 C1714 1.478 . S
C1716 C1718 1.381 . S
C1716 C1722 1.383 . S
C1717 C1713 1.495 . S
C1717 H1723 0.959 . S
C1717 H1724 0.961 . S
C1717 H1725 0.960 . S
C1718 C1716 1.381 . S
C1718 C1719 1.394 . S
C1718 H1726 0.930 . S
C1719 C1718 1.394 . S
C1719 C1720 1.383 . S
C1719 H1727 0.929 . S
C1720 C1719 1.383 . S
C1720 C1721 1.377 . S
C1721 H1705 0.930 . S
C1721 C1720 1.377 . S
C1721 C1722 1.379 . S
C1722 H1706 0.931 . S
C1722 C1716 1.383 . S
C1722 C1721 1.379 . S
H1723 C1717 0.959 . S
H1724 C1717 0.961 . S
H1725 C1717 0.960 . S
H1726 C1718 0.930 . S
H1727 C1719 0.929 . S
H1728 C1736 0.929 . S
H1729 C1738 0.930 . S
H1730 C1740 0.930 . S
H1731 C1743 0.929 . S
H1732 C1746 0.930 . S
H1733 C1748 0.960 . S
H1734 C1748 0.960 . S
H1735 C1748 0.960 . S
C1736 H1728 0.929 . S
C1736 C1737 1.377 . S
C1736 C1738 1.384 . S
C1737 C1736 1.377 . S
C1737 C1743 1.390 . S
C1738 H1729 0.930 . S
C1738 C1736 1.384 . S
C1738 C1739 1.372 . S
C1739 C1738 1.372 . S
C1739 C1740 1.400 . S
C1739 C1744 1.490 . S
C1740 H1730 0.930 . S
C1740 C1739 1.400 . S
C1740 C1743 1.386 . S
H1741 C1757 0.930 . S
H1742 C1758 0.931 . S
C1743 H1731 0.929 . S
C1743 C1737 1.390 . S
C1743 C1740 1.386 . S
C1744 C1739 1.490 . S
C1744 C1746 1.395 . S
C1744 C1747 1.403 . S
H1745 C1751 0.930 . S
C1746 H1732 0.930 . S
C1746 C1744 1.395 . S
C1746 C1749 1.403 . S
C1747 C1744 1.403 . S
C1747 C1748 1.524 . S
C1747 C1751 1.400 . S
C1748 H1733 0.960 . S
C1748 H1734 0.960 . S
C1748 H1735 0.960 . S
C1748 C1747 1.524 . S
C1749 C1746 1.403 . S
C1749 C1750 1.392 . S
C1749 C1753 1.495 . S
C1750 C1749 1.392 . S
C1750 C1751 1.385 . S
C1750 C1752 1.478 . S
C1751 H1745 0.930 . S
C1751 C1747 1.400 . S
C1751 C1750 1.385 . S
C1752 C1750 1.478 . S
C1752 C1754 1.381 . S
C1752 C1758 1.383 . S
C1753 C1749 1.495 . S
C1753 H1759 0.959 . S
C1753 H1760 0.961 . S
C1753 H1761 0.960 . S
C1754 C1752 1.381 . S
C1754 C1755 1.394 . S
C1754 H1762 0.930 . S
C1755 C1754 1.394 . S
C1755 C1756 1.383 . S
C1755 H1763 0.929 . S
C1756 C1755 1.383 . S
C1756 C1757 1.377 . S
C1757 H1741 0.930 . S
C1757 C1756 1.377 . S
C1757 C1758 1.379 . S
C1758 H1742 0.931 . S
C1758 C1752 1.383 . S
C1758 C1757 1.379 . S
H1759 C1753 0.959 . S
H1760 C1753 0.961 . S
H1761 C1753 0.960 . S
H1762 C1754 0.930 . S
H1763 C1755 0.929 . S
H1764 C1772 0.929 . S
H1765 C1774 0.930 . S
H1766 C1776 0.930 . S
H1767 C1779 0.929 . S
H1768 C1782 0.930 . S
H1769 C1784 0.960 . S
H1770 C1784 0.960 . S
H1771 C1784 0.960 . S
C1772 H1764 0.929 . S
C1772 C1773 1.377 . S
C1772 C1774 1.384 . S
C1773 C1772 1.377 . S
C1773 C1779 1.390 . S
C1774 H1765 0.930 . S
C1774 C1772 1.384 . S
C1774 C1775 1.372 . S
C1775 C1774 1.372 . S
C1775 C1776 1.400 . S
C1775 C1780 1.490 . S
C1776 H1766 0.930 . S
C1776 C1775 1.400 . S
C1776 C1779 1.386 . S
H1777 C1793 0.930 . S
H1778 C1794 0.931 . S
C1779 H1767 0.929 . S
C1779 C1773 1.390 . S
C1779 C1776 1.386 . S
C1780 C1775 1.490 . S
C1780 C1782 1.395 . S
C1780 C1783 1.403 . S
H1781 C1787 0.930 1_565 S
C1782 H1768 0.930 . S
C1782 C1780 1.395 . S
C1782 C1785 1.403 . S
C1783 C1780 1.403 . S
C1783 C1784 1.524 . S
C1783 C1787 1.400 . S
C1784 H1769 0.960 . S
C1784 H1770 0.960 . S
C1784 H1771 0.960 . S
C1784 C1783 1.524 . S
C1785 C1782 1.403 . S
C1785 C1786 1.378 1_545 S
C1785 C1789 1.495 . S
C1786 C1785 1.378 1_565 S
C1786 C1787 1.384 1_565 S
C1786 C1788 1.494 . S
C1787 H1781 0.930 1_545 S
C1787 C1783 1.400 . S
C1787 C1786 1.384 1_545 S
C1788 C1786 1.494 . S
C1788 C1790 1.381 . S
C1788 C1794 1.383 . S
C1789 C1785 1.495 . S
C1789 H1795 0.959 . S
C1789 H1796 0.961 . S
C1789 H1797 0.960 . S
C1790 C1788 1.381 . S
C1790 C1791 1.394 . S
C1790 H1798 0.930 . S
C1791 C1790 1.394 . S
C1791 C1792 1.383 . S
C1791 H1799 0.929 . S
C1792 C1791 1.383 . S
C1792 C1793 1.377 . S
C1793 H1777 0.930 . S
C1793 C1792 1.377 . S
C1793 C1794 1.379 . S
C1794 H1778 0.931 . S
C1794 C1788 1.383 . S
C1794 C1793 1.379 . S
H1795 C1789 0.959 . S
H1796 C1789 0.961 . S
H1797 C1789 0.960 . S
H1798 C1790 0.930 . S
H1799 C1791 0.929 . S
H1800 C1808 0.929 . S
H1801 C1810 0.930 . S
H1802 C1812 0.930 . S
H1803 C1815 0.929 . S
H1804 C1818 0.930 . S
H1805 C1820 0.960 . S
H1806 C1820 0.960 . S
H1807 C1820 0.960 . S
C1808 H1800 0.929 . S
C1808 C1809 1.377 . S
C1808 C1810 1.384 . S
C1809 C1808 1.377 . S
C1809 C1815 1.390 . S
C1810 H1801 0.930 . S
C1810 C1808 1.384 . S
C1810 C1811 1.372 . S
C1811 C1810 1.372 . S
C1811 C1812 1.400 . S
C1811 C1816 1.490 . S
C1812 H1802 0.930 . S
C1812 C1811 1.400 . S
C1812 C1815 1.386 . S
H1813 C1829 0.930 . S
H1814 C1830 0.931 . S
C1815 H1803 0.929 . S
C1815 C1809 1.390 . S
C1815 C1812 1.386 . S
C1816 C1811 1.490 . S
C1816 C1818 1.395 . S
C1816 C1819 1.403 . S
H1817 C1823 0.930 . S
C1818 H1804 0.930 . S
C1818 C1816 1.395 . S
C1818 C1821 1.403 . S
C1819 C1816 1.403 . S
C1819 C1820 1.524 . S
C1819 C1823 1.400 . S
C1820 H1805 0.960 . S
C1820 H1806 0.960 . S
C1820 H1807 0.960 . S
C1820 C1819 1.524 . S
C1821 C1818 1.403 . S
C1821 C1822 1.392 . S
C1821 C1825 1.495 . S
C1822 C1821 1.392 . S
C1822 C1823 1.385 . S
C1822 C1824 1.478 . S
C1823 H1817 0.930 . S
C1823 C1819 1.400 . S
C1823 C1822 1.385 . S
C1824 C1822 1.478 . S
C1824 C1826 1.381 . S
C1824 C1830 1.383 . S
C1825 C1821 1.495 . S
C1825 H1831 0.959 . S
C1825 H1832 0.961 . S
C1825 H1833 0.960 . S
C1826 C1824 1.381 . S
C1826 C1827 1.394 . S
C1826 H1834 0.930 . S
C1827 C1826 1.394 . S
C1827 C1828 1.383 . S
C1827 H1835 0.929 . S
C1828 C1827 1.383 . S
C1828 C1829 1.377 . S
C1829 H1813 0.930 . S
C1829 C1828 1.377 . S
C1829 C1830 1.379 . S
C1830 H1814 0.931 . S
C1830 C1824 1.383 . S
C1830 C1829 1.379 . S
H1831 C1825 0.959 . S
H1832 C1825 0.961 . S
H1833 C1825 0.960 . S
H1834 C1826 0.930 . S
H1835 C1827 0.929 . S
H1836 C1844 0.929 . S
H1837 C1846 0.930 . S
H1838 C1848 0.930 . S
H1839 C1851 0.929 . S
H1840 C1854 0.930 1_545 S
H1841 C1856 0.960 . S
H1842 C1856 0.960 1_545 S
H1843 C1856 0.960 . S
C1844 H1836 0.929 . S
C1844 C1845 1.377 . S
C1844 C1846 1.384 . S
C1845 C1844 1.377 . S
C1845 C1851 1.390 . S
C1846 H1837 0.930 . S
C1846 C1844 1.384 . S
C1846 C1847 1.372 . S
C1847 C1846 1.372 . S
C1847 C1848 1.400 . S
C1847 C1852 1.490 . S
C1848 H1838 0.930 . S
C1848 C1847 1.400 . S
C1848 C1851 1.386 . S
H1849 C1865 0.930 . S
H1850 C1866 0.931 . S
C1851 H1839 0.929 . S
C1851 C1845 1.390 . S
C1851 C1848 1.386 . S
C1852 C1847 1.490 . S
C1852 C1854 1.395 1_545 S
C1852 C1855 1.403 1_545 S
H1853 C1859 0.930 . S
C1854 H1840 0.930 1_565 S
C1854 C1852 1.395 1_565 S
C1854 C1857 1.403 . S
C1855 C1852 1.403 1_565 S
C1855 C1856 1.524 . S
C1855 C1859 1.400 . S
C1856 H1841 0.960 . S
C1856 H1842 0.960 1_565 S
C1856 H1843 0.960 . S
C1856 C1855 1.524 . S
C1857 C1854 1.403 . S
C1857 C1858 1.392 . S
C1857 C1861 1.495 . S
C1858 C1857 1.392 . S
C1858 C1859 1.385 . S
C1858 C1860 1.478 . S
C1859 H1853 0.930 . S
C1859 C1855 1.400 . S
C1859 C1858 1.385 . S
C1860 C1858 1.478 . S
C1860 C1862 1.381 . S
C1860 C1866 1.383 . S
C1861 C1857 1.495 . S
C1861 H1867 0.959 . S
C1861 H1868 0.961 . S
C1861 H1869 0.960 . S
C1862 C1860 1.381 . S
C1862 C1863 1.394 . S
C1862 H1870 0.930 . S
C1863 C1862 1.394 . S
C1863 C1864 1.383 . S
C1863 H1871 0.929 . S
C1864 C1863 1.383 . S
C1864 C1865 1.377 . S
C1865 H1849 0.930 . S
C1865 C1864 1.377 . S
C1865 C1866 1.379 . S
C1866 H1850 0.931 . S
C1866 C1860 1.383 . S
C1866 C1865 1.379 . S
H1867 C1861 0.959 . S
H1868 C1861 0.961 . S
H1869 C1861 0.960 . S
H1870 C1862 0.930 . S
H1871 C1863 0.929 . S
H1872 C1880 0.929 . S
H1873 C1882 0.930 . S
H1874 C1884 0.930 . S
H1875 C1887 0.929 . S
H1876 C1890 0.930 . S
H1877 C1892 0.960 . S
H1878 C1892 0.960 . S
H1879 C1892 0.960 . S
C1880 H1872 0.929 . S
C1880 C1881 1.377 . S
C1880 C1882 1.384 . S
C1881 C1880 1.377 . S
C1881 C1887 1.390 . S
C1882 H1873 0.930 . S
C1882 C1880 1.384 . S
C1882 C1883 1.372 . S
C1883 C1882 1.372 . S
C1883 C1884 1.400 . S
C1883 C1888 1.490 . S
C1884 H1874 0.930 . S
C1884 C1883 1.400 . S
C1884 C1887 1.386 . S
H1885 C1901 0.930 . S
H1886 C1902 0.931 . S
C1887 H1875 0.929 . S
C1887 C1881 1.390 . S
C1887 C1884 1.386 . S
C1888 C1883 1.490 . S
C1888 C1890 1.395 . S
C1888 C1891 1.403 . S
H1889 C1895 0.930 . S
C1890 H1876 0.930 . S
C1890 C1888 1.395 . S
C1890 C1893 1.403 . S
C1891 C1888 1.403 . S
C1891 C1892 1.524 . S
C1891 C1895 1.400 . S
C1892 H1877 0.960 . S
C1892 H1878 0.960 . S
C1892 H1879 0.960 . S
C1892 C1891 1.524 . S
C1893 C1890 1.403 . S
C1893 C1894 1.392 . S
C1893 C1897 1.495 . S
C1894 C1893 1.392 . S
C1894 C1895 1.385 . S
C1894 C1896 1.478 . S
C1895 H1889 0.930 . S
C1895 C1891 1.400 . S
C1895 C1894 1.385 . S
C1896 C1894 1.478 . S
C1896 C1898 1.381 . S
C1896 C1902 1.383 . S
C1897 C1893 1.495 . S
C1897 H1903 0.959 . S
C1897 H1904 0.961 . S
C1897 H1905 0.960 . S
C1898 C1896 1.381 . S
C1898 C1899 1.394 . S
C1898 H1906 0.930 . S
C1899 C1898 1.394 . S
C1899 C1900 1.383 . S
C1899 H1907 0.929 . S
C1900 C1899 1.383 . S
C1900 C1901 1.377 . S
C1901 H1885 0.930 . S
C1901 C1900 1.377 . S
C1901 C1902 1.379 . S
C1902 H1886 0.931 . S
C1902 C1896 1.383 . S
C1902 C1901 1.379 . S
H1903 C1897 0.959 . S
H1904 C1897 0.961 . S
H1905 C1897 0.960 . S
H1906 C1898 0.930 . S
H1907 C1899 0.929 . S
H1908 C1916 0.929 . S
H1909 C1918 0.930 . S
H1910 C1920 0.930 . S
H1911 C1923 0.929 . S
H1912 C1926 0.930 . S
H1913 C1928 0.960 . S
H1914 C1928 0.960 . S
H1915 C1928 0.960 . S
C1916 H1908 0.929 . S
C1916 C1917 1.377 . S
C1916 C1918 1.384 . S
C1917 C1916 1.377 . S
C1917 C1923 1.390 . S
C1918 H1909 0.930 . S
C1918 C1916 1.384 . S
C1918 C1919 1.372 . S
C1919 C1918 1.372 . S
C1919 C1920 1.400 . S
C1919 C1924 1.490 . S
C1920 H1910 0.930 . S
C1920 C1919 1.400 . S
C1920 C1923 1.386 . S
H1921 C1937 0.930 . S
H1922 C1938 0.931 . S
C1923 H1911 0.929 . S
C1923 C1917 1.390 . S
C1923 C1920 1.386 . S
C1924 C1919 1.490 . S
C1924 C1926 1.395 . S
C1924 C1927 1.403 . S
H1925 C1931 0.930 . S
C1926 H1912 0.930 . S
C1926 C1924 1.395 . S
C1926 C1929 1.403 . S
C1927 C1924 1.403 . S
C1927 C1928 1.524 . S
C1927 C1931 1.400 . S
C1928 H1913 0.960 . S
C1928 H1914 0.960 . S
C1928 H1915 0.960 . S
C1928 C1927 1.524 . S
C1929 C1926 1.403 . S
C1929 C1930 1.392 . S
C1929 C1933 1.495 . S
C1930 C1929 1.392 . S
C1930 C1931 1.385 . S
C1930 C1932 1.478 . S
C1931 H1925 0.930 . S
C1931 C1927 1.400 . S
C1931 C1930 1.385 . S
C1932 C1930 1.478 . S
C1932 C1934 1.381 . S
C1932 C1938 1.383 . S
C1933 C1929 1.495 . S
C1933 H1939 0.959 . S
C1933 H1940 0.961 . S
C1933 H1941 0.960 . S
C1934 C1932 1.381 . S
C1934 C1935 1.394 . S
C1934 H1942 0.930 . S
C1935 C1934 1.394 . S
C1935 C1936 1.383 . S
C1935 H1943 0.929 . S
C1936 C1935 1.383 . S
C1936 C1937 1.377 . S
C1937 H1921 0.930 . S
C1937 C1936 1.377 . S
C1937 C1938 1.379 . S
C1938 H1922 0.931 . S
C1938 C1932 1.383 . S
C1938 C1937 1.379 . S
H1939 C1933 0.959 . S
H1940 C1933 0.961 . S
H1941 C1933 0.960 . S
H1942 C1934 0.930 . S
H1943 C1935 0.929 . S
H1944 C1952 0.929 . S
H1945 C1954 0.930 . S
H1946 C1956 0.930 . S
H1947 C1959 0.929 . S
H1948 C1962 0.930 . S
H1949 C1964 0.960 . S
H1950 C1964 0.960 . S
H1951 C1964 0.960 . S
C1952 H1944 0.929 . S
C1952 C1953 1.377 . S
C1952 C1954 1.384 . S
C1953 C1952 1.377 . S
C1953 C1959 1.390 . S
C1954 H1945 0.930 . S
C1954 C1952 1.384 . S
C1954 C1955 1.372 . S
C1955 C1954 1.372 . S
C1955 C1956 1.400 . S
C1955 C1960 1.490 . S
C1956 H1946 0.930 . S
C1956 C1955 1.400 . S
C1956 C1959 1.386 . S
H1957 C1973 0.930 . S
H1958 C1974 0.931 . S
C1959 H1947 0.929 . S
C1959 C1953 1.390 . S
C1959 C1956 1.386 . S
C1960 C1955 1.490 . S
C1960 C1962 1.395 . S
C1960 C1963 1.403 . S
H1961 C1967 0.930 . S
C1962 H1948 0.930 . S
C1962 C1960 1.395 . S
C1962 C1965 1.403 . S
C1963 C1960 1.403 . S
C1963 C1964 1.524 . S
C1963 C1967 1.400 . S
C1964 H1949 0.960 . S
C1964 H1950 0.960 . S
C1964 H1951 0.960 . S
C1964 C1963 1.524 . S
C1965 C1962 1.403 . S
C1965 C1966 1.392 . S
C1965 C1969 1.495 . S
C1966 C1965 1.392 . S
C1966 C1967 1.385 . S
C1966 C1968 1.478 . S
C1967 H1961 0.930 . S
C1967 C1963 1.400 . S
C1967 C1966 1.385 . S
C1968 C1966 1.478 . S
C1968 C1970 1.381 . S
C1968 C1974 1.383 . S
C1969 C1965 1.495 . S
C1969 H1975 0.959 . S
C1969 H1976 0.961 . S
C1969 H1977 0.960 . S
C1970 C1968 1.381 . S
C1970 C1971 1.394 . S
C1970 H1978 0.930 . S
C1971 C1970 1.394 . S
C1971 C1972 1.383 . S
C1971 H1979 0.929 . S
C1972 C1971 1.383 . S
C1972 C1973 1.377 . S
C1973 H1957 0.930 . S
C1973 C1972 1.377 . S
C1973 C1974 1.379 . S
C1974 H1958 0.931 . S
C1974 C1968 1.383 . S
C1974 C1973 1.379 . S
H1975 C1969 0.959 . S
H1976 C1969 0.961 . S
H1977 C1969 0.960 . S
H1978 C1970 0.930 . S
H1979 C1971 0.929 . S
H1980 C1988 0.929 . S
H1981 C1990 0.930 . S
H1982 C1992 0.930 . S
H1983 C1995 0.929 . S
H1984 C1998 0.930 . S
H1985 C2000 0.960 . S
H1986 C2000 0.960 . S
H1987 C2000 0.960 . S
C1988 H1980 0.929 . S
C1988 C1989 1.377 . S
C1988 C1990 1.384 . S
C1989 C1988 1.377 . S
C1989 C1995 1.390 . S
C1990 H1981 0.930 . S
C1990 C1988 1.384 . S
C1990 C1991 1.372 . S
C1991 C1990 1.372 . S
C1991 C1992 1.400 . S
C1991 C1996 1.490 . S
C1992 H1982 0.930 . S
C1992 C1991 1.400 . S
C1992 C1995 1.386 . S
H1993 C2009 0.930 . S
H1994 C2010 0.931 . S
C1995 H1983 0.929 . S
C1995 C1989 1.390 . S
C1995 C1992 1.386 . S
C1996 C1991 1.490 . S
C1996 C1998 1.395 . S
C1996 C1999 1.403 . S
H1997 C2003 0.930 . S
C1998 H1984 0.930 . S
C1998 C1996 1.395 . S
C1998 C2001 1.403 . S
C1999 C1996 1.403 . S
C1999 C2000 1.524 . S
C1999 C2003 1.400 . S
C2000 H1985 0.960 . S
C2000 H1986 0.960 . S
C2000 H1987 0.960 . S
C2000 C1999 1.524 . S
C2001 C1998 1.403 . S
C2001 C2002 1.392 . S
C2001 C2005 1.495 . S
C2002 C2001 1.392 . S
C2002 C2003 1.385 . S
C2002 C2004 1.478 . S
C2003 H1997 0.930 . S
C2003 C1999 1.400 . S
C2003 C2002 1.385 . S
C2004 C2002 1.478 . S
C2004 C2006 1.381 . S
C2004 C2010 1.383 . S
C2005 C2001 1.495 . S
C2005 H2011 0.959 . S
C2005 H2012 0.961 . S
C2005 H2013 0.960 . S
C2006 C2004 1.381 . S
C2006 C2007 1.394 . S
C2006 H2014 0.930 . S
C2007 C2006 1.394 . S
C2007 C2008 1.383 . S
C2007 H2015 0.929 . S
C2008 C2007 1.383 . S
C2008 C2009 1.377 . S
C2009 H1993 0.930 . S
C2009 C2008 1.377 . S
C2009 C2010 1.379 . S
C2010 H1994 0.931 . S
C2010 C2004 1.383 . S
C2010 C2009 1.379 . S
H2011 C2005 0.959 . S
H2012 C2005 0.961 . S
H2013 C2005 0.960 . S
H2014 C2006 0.930 . S
H2015 C2007 0.929 . S
H2016 C2024 0.929 . S
H2017 C2026 0.930 . S
H2018 C2028 0.930 . S
H2019 C2031 0.929 . S
H2020 C2034 0.930 . S
H2021 C2036 0.960 . S
H2022 C2036 0.960 . S
H2023 C2036 0.960 . S
C2024 H2016 0.929 . S
C2024 C2025 1.377 . S
C2024 C2026 1.384 . S
C2025 C2024 1.377 . S
C2025 C2031 1.390 . S
C2026 H2017 0.930 . S
C2026 C2024 1.384 . S
C2026 C2027 1.372 . S
C2027 C2026 1.372 . S
C2027 C2028 1.400 . S
C2027 C2032 1.490 . S
C2028 H2018 0.930 . S
C2028 C2027 1.400 . S
C2028 C2031 1.386 . S
H2029 C2045 0.930 . S
H2030 C2046 0.931 . S
C2031 H2019 0.929 . S
C2031 C2025 1.390 . S
C2031 C2028 1.386 . S
C2032 C2027 1.490 . S
C2032 C2034 1.395 . S
C2032 C2035 1.403 . S
H2033 C2039 0.930 . S
C2034 H2020 0.930 . S
C2034 C2032 1.395 . S
C2034 C2037 1.403 . S
C2035 C2032 1.403 . S
C2035 C2036 1.524 . S
C2035 C2039 1.400 . S
C2036 H2021 0.960 . S
C2036 H2022 0.960 . S
C2036 H2023 0.960 . S
C2036 C2035 1.524 . S
C2037 C2034 1.403 . S
C2037 C2038 1.392 . S
C2037 C2041 1.495 . S
C2038 C2037 1.392 . S
C2038 C2039 1.385 . S
C2038 C2040 1.478 . S
C2039 H2033 0.930 . S
C2039 C2035 1.400 . S
C2039 C2038 1.385 . S
C2040 C2038 1.478 . S
C2040 C2042 1.381 . S
C2040 C2046 1.383 . S
C2041 C2037 1.495 . S
C2041 H2047 0.959 . S
C2041 H2048 0.961 . S
C2041 H2049 0.960 . S
C2042 C2040 1.381 . S
C2042 C2043 1.394 . S
C2042 H2050 0.930 . S
C2043 C2042 1.394 . S
C2043 C2044 1.383 . S
C2043 H2051 0.929 . S
C2044 C2043 1.383 . S
C2044 C2045 1.377 . S
C2045 H2029 0.930 . S
C2045 C2044 1.377 . S
C2045 C2046 1.379 . S
C2046 H2030 0.931 . S
C2046 C2040 1.383 . S
C2046 C2045 1.379 . S
H2047 C2041 0.959 . S
H2048 C2041 0.961 . S
H2049 C2041 0.960 . S
H2050 C2042 0.930 . S
H2051 C2043 0.929 . S
H2052 C2060 0.929 . S
H2053 C2062 0.930 . S
H2054 C2064 0.930 . S
H2055 C2067 0.929 . S
H2056 C2070 0.930 . S
H2057 C2072 0.960 . S
H2058 C2072 0.960 . S
H2059 C2072 0.960 . S
C2060 H2052 0.929 . S
C2060 C2061 1.377 . S
C2060 C2062 1.384 . S
C2061 C2060 1.377 . S
C2061 C2067 1.390 . S
C2062 H2053 0.930 . S
C2062 C2060 1.384 . S
C2062 C2063 1.372 . S
C2063 C2062 1.372 . S
C2063 C2064 1.400 . S
C2063 C2068 1.490 . S
C2064 H2054 0.930 . S
C2064 C2063 1.400 . S
C2064 C2067 1.386 . S
H2065 C2081 0.930 . S
H2066 C2082 0.931 . S
C2067 H2055 0.929 . S
C2067 C2061 1.390 . S
C2067 C2064 1.386 . S
C2068 C2063 1.490 . S
C2068 C2070 1.395 . S
C2068 C2071 1.403 . S
H2069 C2075 0.930 . S
C2070 H2056 0.930 . S
C2070 C2068 1.395 . S
C2070 C2073 1.403 . S
C2071 C2068 1.403 . S
C2071 C2072 1.524 . S
C2071 C2075 1.400 . S
C2072 H2057 0.960 . S
C2072 H2058 0.960 . S
C2072 H2059 0.960 . S
C2072 C2071 1.524 . S
C2073 C2070 1.403 . S
C2073 C2074 1.392 . S
C2073 C2077 1.495 . S
C2074 C2073 1.392 . S
C2074 C2075 1.385 . S
C2074 C2076 1.478 . S
C2075 H2069 0.930 . S
C2075 C2071 1.400 . S
C2075 C2074 1.385 . S
C2076 C2074 1.478 . S
C2076 C2078 1.381 . S
C2076 C2082 1.383 . S
C2077 C2073 1.495 . S
C2077 H2083 0.959 . S
C2077 H2084 0.961 . S
C2077 H2085 0.960 . S
C2078 C2076 1.381 . S
C2078 C2079 1.394 . S
C2078 H2086 0.930 . S
C2079 C2078 1.394 . S
C2079 C2080 1.383 . S
C2079 H2087 0.929 . S
C2080 C2079 1.383 . S
C2080 C2081 1.377 . S
C2081 H2065 0.930 . S
C2081 C2080 1.377 . S
C2081 C2082 1.379 . S
C2082 H2066 0.931 . S
C2082 C2076 1.383 . S
C2082 C2081 1.379 . S
H2083 C2077 0.959 . S
H2084 C2077 0.961 . S
H2085 C2077 0.960 . S
H2086 C2078 0.930 . S
H2087 C2079 0.929 . S
H2088 C2096 0.929 . S
H2089 C2098 0.930 . S
H2090 C2100 0.930 . S
H2091 C2103 0.929 . S
H2092 C2106 0.930 . S
H2093 C2108 0.960 . S
H2094 C2108 0.960 . S
H2095 C2108 0.960 . S
C2096 H2088 0.929 . S
C2096 C2097 1.377 . S
C2096 C2098 1.384 . S
C2097 C2096 1.377 . S
C2097 C2103 1.390 . S
C2098 H2089 0.930 . S
C2098 C2096 1.384 . S
C2098 C2099 1.372 . S
C2099 C2098 1.372 . S
C2099 C2100 1.400 . S
C2099 C2104 1.490 . S
C2100 H2090 0.930 . S
C2100 C2099 1.400 . S
C2100 C2103 1.386 . S
H2101 C2117 0.930 . S
H2102 C2118 0.931 . S
C2103 H2091 0.929 . S
C2103 C2097 1.390 . S
C2103 C2100 1.386 . S
C2104 C2099 1.490 . S
C2104 C2106 1.395 . S
C2104 C2107 1.403 . S
H2105 C2111 0.930 . S
C2106 H2092 0.930 . S
C2106 C2104 1.395 . S
C2106 C2109 1.403 1_455 S
C2107 C2104 1.403 . S
C2107 C2108 1.524 . S
C2107 C2111 1.400 . S
C2108 H2093 0.960 . S
C2108 H2094 0.960 . S
C2108 H2095 0.960 . S
C2108 C2107 1.524 . S
C2109 C2106 1.403 1_655 S
C2109 C2110 1.392 . S
C2109 C2113 1.495 . S
C2110 C2109 1.392 . S
C2110 C2111 1.385 1_655 S
C2110 C2112 1.478 . S
C2111 H2105 0.930 . S
C2111 C2107 1.400 . S
C2111 C2110 1.385 1_455 S
C2112 C2110 1.478 . S
C2112 C2114 1.381 . S
C2112 C2118 1.383 . S
C2113 C2109 1.495 . S
C2113 H2119 0.959 . S
C2113 H2120 0.961 . S
C2113 H2121 0.960 . S
C2114 C2112 1.381 . S
C2114 C2115 1.394 . S
C2114 H2122 0.930 . S
C2115 C2114 1.394 . S
C2115 C2116 1.383 . S
C2115 H2123 0.929 . S
C2116 C2115 1.383 . S
C2116 C2117 1.377 . S
C2117 H2101 0.930 . S
C2117 C2116 1.377 . S
C2117 C2118 1.379 . S
C2118 H2102 0.931 . S
C2118 C2112 1.383 . S
C2118 C2117 1.379 . S
H2119 C2113 0.959 . S
H2120 C2113 0.961 . S
H2121 C2113 0.960 . S
H2122 C2114 0.930 . S
H2123 C2115 0.929 . S
H2124 C2132 0.929 . S
H2125 C2134 0.930 . S
H2126 C2136 0.930 . S
H2127 C2139 0.929 . S
H2128 C2142 0.930 . S
H2129 C2144 0.960 . S
H2130 C2144 0.960 . S
H2131 C2144 0.960 . S
C2132 H2124 0.929 . S
C2132 C2133 1.377 . S
C2132 C2134 1.384 . S
C2133 C2132 1.377 . S
C2133 C2139 1.390 . S
C2134 H2125 0.930 . S
C2134 C2132 1.384 . S
C2134 C2135 1.372 . S
C2135 C2134 1.372 . S
C2135 C2136 1.400 . S
C2135 C2140 1.490 . S
C2136 H2126 0.930 . S
C2136 C2135 1.400 . S
C2136 C2139 1.386 . S
H2137 C2153 0.930 . S
H2138 C2154 0.931 . S
C2139 H2127 0.929 . S
C2139 C2133 1.390 . S
C2139 C2136 1.386 . S
C2140 C2135 1.490 . S
C2140 C2142 1.395 . S
C2140 C2143 1.403 . S
H2141 C2147 0.930 . S
C2142 H2128 0.930 . S
C2142 C2140 1.395 . S
C2142 C2145 1.403 . S
C2143 C2140 1.403 . S
C2143 C2144 1.524 . S
C2143 C2147 1.400 . S
C2144 H2129 0.960 . S
C2144 H2130 0.960 . S
C2144 H2131 0.960 . S
C2144 C2143 1.524 . S
C2145 C2142 1.403 . S
C2145 C2146 1.392 . S
C2145 C2149 1.495 . S
C2146 C2145 1.392 . S
C2146 C2147 1.385 . S
C2146 C2148 1.478 . S
C2147 H2141 0.930 . S
C2147 C2143 1.400 . S
C2147 C2146 1.385 . S
C2148 C2146 1.478 . S
C2148 C2150 1.381 . S
C2148 C2154 1.383 . S
C2149 C2145 1.495 . S
C2149 H2155 0.959 . S
C2149 H2156 0.961 . S
C2149 H2157 0.960 . S
C2150 C2148 1.381 . S
C2150 C2151 1.394 . S
C2150 H2158 0.930 . S
C2151 C2150 1.394 . S
C2151 C2152 1.383 . S
C2151 H2159 0.929 . S
C2152 C2151 1.383 . S
C2152 C2153 1.377 . S
C2153 H2137 0.930 . S
C2153 C2152 1.377 . S
C2153 C2154 1.379 . S
C2154 H2138 0.931 . S
C2154 C2148 1.383 . S
C2154 C2153 1.379 . S
H2155 C2149 0.959 . S
H2156 C2149 0.961 . S
H2157 C2149 0.960 . S
H2158 C2150 0.930 . S
H2159 C2151 0.929 . S
H2160 C2168 0.929 . S
H2161 C2170 0.930 . S
H2162 C2172 0.930 . S
H2163 C2175 0.929 . S
H2164 C2178 0.930 . S
H2165 C2180 0.960 . S
H2166 C2180 0.960 . S
H2167 C2180 0.960 . S
C2168 H2160 0.929 . S
C2168 C2169 1.377 . S
C2168 C2170 1.384 . S
C2169 C2168 1.377 . S
C2169 C2175 1.390 . S
C2170 H2161 0.930 . S
C2170 C2168 1.384 . S
C2170 C2171 1.372 . S
C2171 C2170 1.372 . S
C2171 C2172 1.400 . S
C2171 C2176 1.490 . S
C2172 H2162 0.930 . S
C2172 C2171 1.400 . S
C2172 C2175 1.386 . S
H2173 C2189 0.930 . S
H2174 C2190 0.931 . S
C2175 H2163 0.929 . S
C2175 C2169 1.390 . S
C2175 C2172 1.386 . S
C2176 C2171 1.490 . S
C2176 C2178 1.395 . S
C2176 C2179 1.403 . S
H2177 C2183 0.930 . S
C2178 H2164 0.930 . S
C2178 C2176 1.395 . S
C2178 C2181 1.403 . S
C2179 C2176 1.403 . S
C2179 C2180 1.524 . S
C2179 C2183 1.400 . S
C2180 H2165 0.960 . S
C2180 H2166 0.960 . S
C2180 H2167 0.960 . S
C2180 C2179 1.524 . S
C2181 C2178 1.403 . S
C2181 C2182 1.392 . S
C2181 C2185 1.495 . S
C2182 C2181 1.392 . S
C2182 C2183 1.385 . S
C2182 C2184 1.478 . S
C2183 H2177 0.930 . S
C2183 C2179 1.400 . S
C2183 C2182 1.385 . S
C2184 C2182 1.478 . S
C2184 C2186 1.381 . S
C2184 C2190 1.383 . S
C2185 C2181 1.495 . S
C2185 H2191 0.959 . S
C2185 H2192 0.961 . S
C2185 H2193 0.960 . S
C2186 C2184 1.381 . S
C2186 C2187 1.394 . S
C2186 H2194 0.930 . S
C2187 C2186 1.394 . S
C2187 C2188 1.383 . S
C2187 H2195 0.929 . S
C2188 C2187 1.383 . S
C2188 C2189 1.377 . S
C2189 H2173 0.930 . S
C2189 C2188 1.377 . S
C2189 C2190 1.379 . S
C2190 H2174 0.931 . S
C2190 C2184 1.383 . S
C2190 C2189 1.379 . S
H2191 C2185 0.959 . S
H2192 C2185 0.961 . S
H2193 C2185 0.960 . S
H2194 C2186 0.930 . S
H2195 C2187 0.929 . S
H2196 C2204 0.929 . S
H2197 C2206 0.930 . S
H2198 C2208 0.930 . S
H2199 C2211 0.929 . S
H2200 C2214 0.930 . S
H2201 C2216 0.960 . S
H2202 C2216 0.960 . S
H2203 C2216 0.960 . S
C2204 H2196 0.929 . S
C2204 C2205 1.377 . S
C2204 C2206 1.384 . S
C2205 C2204 1.377 . S
C2205 C2211 1.390 . S
C2206 H2197 0.930 . S
C2206 C2204 1.384 . S
C2206 C2207 1.372 . S
C2207 C2206 1.372 . S
C2207 C2208 1.400 . S
C2207 C2212 1.490 . S
C2208 H2198 0.930 . S
C2208 C2207 1.400 . S
C2208 C2211 1.386 . S
H2209 C2225 0.930 . S
H2210 C2226 0.931 . S
C2211 H2199 0.929 . S
C2211 C2205 1.390 . S
C2211 C2208 1.386 . S
C2212 C2207 1.490 . S
C2212 C2214 1.395 . S
C2212 C2215 1.403 . S
H2213 C2219 0.930 . S
C2214 H2200 0.930 . S
C2214 C2212 1.395 . S
C2214 C2217 1.403 . S
C2215 C2212 1.403 . S
C2215 C2216 1.524 . S
C2215 C2219 1.400 . S
C2216 H2201 0.960 . S
C2216 H2202 0.960 . S
C2216 H2203 0.960 . S
C2216 C2215 1.524 . S
C2217 C2214 1.403 . S
C2217 C2218 1.392 . S
C2217 C2221 1.495 . S
C2218 C2217 1.392 . S
C2218 C2219 1.385 . S
C2218 C2220 1.478 . S
C2219 H2213 0.930 . S
C2219 C2215 1.400 . S
C2219 C2218 1.385 . S
C2220 C2218 1.478 . S
C2220 C2222 1.381 . S
C2220 C2226 1.383 . S
C2221 C2217 1.495 . S
C2221 H2227 0.959 . S
C2221 H2228 0.961 . S
C2221 H2229 0.960 . S
C2222 C2220 1.381 . S
C2222 C2223 1.394 . S
C2222 H2230 0.930 . S
C2223 C2222 1.394 . S
C2223 C2224 1.383 . S
C2223 H2231 0.929 . S
C2224 C2223 1.383 . S
C2224 C2225 1.377 . S
C2225 H2209 0.930 . S
C2225 C2224 1.377 . S
C2225 C2226 1.379 . S
C2226 H2210 0.931 . S
C2226 C2220 1.383 . S
C2226 C2225 1.379 . S
H2227 C2221 0.959 . S
H2228 C2221 0.961 . S
H2229 C2221 0.960 . S
H2230 C2222 0.930 . S
H2231 C2223 0.929 . S
H2232 C2240 0.929 . S
H2233 C2242 0.930 . S
H2234 C2244 0.930 . S
H2235 C2247 0.929 . S
H2236 C2250 0.930 . S
H2237 C2252 0.960 . S
H2238 C2252 0.960 . S
H2239 C2252 0.960 . S
C2240 H2232 0.929 . S
C2240 C2241 1.377 . S
C2240 C2242 1.384 . S
C2241 C2240 1.377 . S
C2241 C2247 1.390 . S
C2242 H2233 0.930 . S
C2242 C2240 1.384 . S
C2242 C2243 1.372 . S
C2243 C2242 1.372 . S
C2243 C2244 1.400 . S
C2243 C2248 1.490 . S
C2244 H2234 0.930 . S
C2244 C2243 1.400 . S
C2244 C2247 1.386 . S
H2245 C2261 0.930 . S
H2246 C2262 0.931 . S
C2247 H2235 0.929 . S
C2247 C2241 1.390 . S
C2247 C2244 1.386 . S
C2248 C2243 1.490 . S
C2248 C2250 1.395 . S
C2248 C2251 1.403 . S
H2249 C2255 0.930 . S
C2250 H2236 0.930 . S
C2250 C2248 1.395 . S
C2250 C2253 1.403 . S
C2251 C2248 1.403 . S
C2251 C2252 1.524 . S
C2251 C2255 1.400 . S
C2252 H2237 0.960 . S
C2252 H2238 0.960 . S
C2252 H2239 0.960 . S
C2252 C2251 1.524 . S
C2253 C2250 1.403 . S
C2253 C2254 1.392 . S
C2253 C2257 1.495 . S
C2254 C2253 1.392 . S
C2254 C2255 1.385 . S
C2254 C2256 1.478 . S
C2255 H2249 0.930 . S
C2255 C2251 1.400 . S
C2255 C2254 1.385 . S
C2256 C2254 1.478 . S
C2256 C2258 1.381 . S
C2256 C2262 1.383 . S
C2257 C2253 1.495 . S
C2257 H2263 0.959 . S
C2257 H2264 0.961 . S
C2257 H2265 0.960 . S
C2258 C2256 1.381 . S
C2258 C2259 1.394 . S
C2258 H2266 0.930 . S
C2259 C2258 1.394 . S
C2259 C2260 1.383 . S
C2259 H2267 0.929 . S
C2260 C2259 1.383 . S
C2260 C2261 1.377 . S
C2261 H2245 0.930 . S
C2261 C2260 1.377 . S
C2261 C2262 1.379 . S
C2262 H2246 0.931 . S
C2262 C2256 1.383 . S
C2262 C2261 1.379 . S
H2263 C2257 0.959 . S
H2264 C2257 0.961 . S
H2265 C2257 0.960 . S
H2266 C2258 0.930 . S
H2267 C2259 0.929 . S
H2268 C2276 0.929 . S
H2269 C2278 0.930 . S
H2270 C2280 0.930 . S
H2271 C2283 0.929 . S
H2272 C2286 0.930 . S
H2273 C2288 0.960 . S
H2274 C2288 0.960 . S
H2275 C2288 0.960 . S
C2276 H2268 0.929 . S
C2276 C2277 1.377 . S
C2276 C2278 1.384 . S
C2277 C2276 1.377 . S
C2277 C2283 1.390 . S
C2278 H2269 0.930 . S
C2278 C2276 1.384 . S
C2278 C2279 1.372 . S
C2279 C2278 1.372 . S
C2279 C2280 1.400 . S
C2279 C2284 1.490 . S
C2280 H2270 0.930 . S
C2280 C2279 1.400 . S
C2280 C2283 1.386 . S
H2281 C2297 0.930 . S
H2282 C2298 0.931 . S
C2283 H2271 0.929 . S
C2283 C2277 1.390 . S
C2283 C2280 1.386 . S
C2284 C2279 1.490 . S
C2284 C2286 1.395 . S
C2284 C2287 1.403 . S
H2285 C2291 0.930 1_455 S
C2286 H2272 0.930 . S
C2286 C2284 1.395 . S
C2286 C2289 1.403 . S
C2287 C2284 1.403 . S
C2287 C2288 1.524 . S
C2287 C2291 1.400 . S
C2288 H2273 0.960 . S
C2288 H2274 0.960 . S
C2288 H2275 0.960 . S
C2288 C2287 1.524 . S
C2289 C2286 1.403 . S
C2289 C2290 1.392 1_655 S
C2289 C2293 1.495 . S
C2290 C2289 1.392 1_455 S
C2290 C2291 1.385 1_455 S
C2290 C2292 1.478 . S
C2291 H2285 0.930 1_655 S
C2291 C2287 1.400 . S
C2291 C2290 1.385 1_655 S
C2292 C2290 1.478 . S
C2292 C2294 1.381 . S
C2292 C2298 1.383 . S
C2293 C2289 1.495 . S
C2293 H2299 0.959 . S
C2293 H2300 0.961 1_655 S
C2293 H2301 0.960 1_655 S
C2294 C2292 1.381 . S
C2294 C2295 1.394 . S
C2294 H2302 0.930 . S
C2295 C2294 1.394 . S
C2295 C2296 1.383 . S
C2295 H2303 0.929 . S
C2296 C2295 1.383 . S
C2296 C2297 1.377 . S
C2297 H2281 0.930 . S
C2297 C2296 1.377 . S
C2297 C2298 1.379 . S
C2298 H2282 0.931 . S
C2298 C2292 1.383 . S
C2298 C2297 1.379 . S
H2299 C2293 0.959 . S
H2300 C2293 0.961 1_455 S
H2301 C2293 0.960 1_455 S
H2302 C2294 0.930 . S
H2303 C2295 0.929 . S
C1017 C56 1.566 . S
C1036 C979 1.614 . S
C1053 C811 1.652 1_565 S
C1072 C140 1.622 . S
C1089 C223 1.618 1_554 S
C1108 C728 1.568 . S
C1125 C308 1.610 . S
C1144 C895 1.653 1_545 S
C1161 C392 1.612 . S
C1180 C896 1.582 . S
C1197 C475 1.634 . S
C1216 C980 1.576 . S
C1233 C812 1.621 . S
C1252 C560 1.602 1_556 S
C1269 C643 1.615 . S
C1288 C727 1.604 . S
C1305 C307 1.617 . S
C1324 C391 1.617 . S
C1341 C55 1.646 . S
C1360 C476 1.587 1_455 S
C1377 C139 1.632 1_655 S
C1396 C559 1.636 . S
C1413 C644 1.619 . S
C1432 C224 1.628 . S
C1449 C70 1.382 . S
C1468 C740 1.582 . S
C1485 C154 1.430 . S
C1504 C907 1.643 . S
C1521 C991 1.608 . S
C1540 C226 1.537 . S
C1557 C322 1.371 . S
C1576 C823 1.547 . S
C1593 C406 1.371 . S
C1612 C824 1.568 . S
C1629 C739 1.598 . S
C1648 C478 1.524 . S
C1665 C908 1.594 . S
C1684 C574 1.396 . S
C1701 C992 1.666 . S
C1720 C646 1.601 . S
C1737 C67 1.597 . S
C1756 C310 1.527 . S
C1773 C58 1.485 . S
C1792 C151 1.518 . S
C1809 C142 1.534 . S
C1828 C236 1.581 . S
C1845 C319 1.560 . S
C1864 C238 1.357 . S
C1881 C490 1.417 . S
C1900 C403 1.604 . S
C1917 C488 1.626 . S
C1936 C562 1.529 . S
C1953 C571 1.625 . S
C1972 C658 1.382 . S
C1989 C394 1.556 . S
C2008 C656 1.599 . S
C2025 C730 1.495 . S
C2044 C320 1.559 . S
C2061 C487 1.579 . S
C2080 C814 1.545 . S
C2097 C742 1.375 . S
C2116 C572 1.585 . S
C2133 C898 1.557 . S
C2152 C655 1.619 . S
C2169 C404 1.599 . S
C2188 C982 1.562 . S
C2205 C994 1.381 . S
C2224 C152 1.586 . S
C2241 C235 1.605 . S
C2260 C826 1.426 . S
C2277 C910 1.398 . S
C2296 C68 1.598 . S
