# Generated by pormake.
# Topology ecc, (8)-cn, num edge types: 1
# Building blocks:
#     Node 0, Type 0, BuildingBlock: LIZSOE_clean_sbu_0, # of connection points: 8
#     Node 1, Type 0, BuildingBlock: LIZSOE_clean_sbu_0, # of connection points: 8
#     Node 2, Type 0, BuildingBlock: LIZSOE_clean_sbu_0, # of connection points: 8
#     Node 3, Type 0, BuildingBlock: LIZSOE_clean_sbu_0, # of connection points: 8
#     Node 4, Type 0, BuildingBlock: LIZSOE_clean_sbu_0, # of connection points: 8
#     Node 5, Type 0, BuildingBlock: LIZSOE_clean_sbu_0, # of connection points: 8
#     Node 6, Type 0, BuildingBlock: LIZSOE_clean_sbu_0, # of connection points: 8
#     Node 7, Type 0, BuildingBlock: LIZSOE_clean_sbu_0, # of connection points: 8
#     Node 8, Type 0, BuildingBlock: LIZSOE_clean_sbu_0, # of connection points: 8
#     Node 9, Type 0, BuildingBlock: LIZSOE_clean_sbu_0, # of connection points: 8
#     Node 10, Type 0, BuildingBlock: LIZSOE_clean_sbu_0, # of connection points: 8
#     Node 11, Type 0, BuildingBlock: LIZSOE_clean_sbu_0, # of connection points: 8
#     Node 12, Type 0, BuildingBlock: LIZSOE_clean_sbu_0, # of connection points: 8
#     Node 13, Type 0, BuildingBlock: LIZSOE_clean_sbu_0, # of connection points: 8
#     Node 14, Type 0, BuildingBlock: LIZSOE_clean_sbu_0, # of connection points: 8
#     Node 15, Type 0, BuildingBlock: LIZSOE_clean_sbu_0, # of connection points: 8
#     Node 16, Type 0, BuildingBlock: LIZSOE_clean_sbu_0, # of connection points: 8
#     Node 17, Type 0, BuildingBlock: LIZSOE_clean_sbu_0, # of connection points: 8
#     Edge 18, Type (0, 0), BuildingBlock: OJICUG_clean_linker_0, # of connection points: 2
#     Edge 19, Type (0, 0), BuildingBlock: OJICUG_clean_linker_0, # of connection points: 2
#     Edge 20, Type (0, 0), BuildingBlock: OJICUG_clean_linker_0, # of connection points: 2
#     Edge 21, Type (0, 0), BuildingBlock: OJICUG_clean_linker_0, # of connection points: 2
#     Edge 22, Type (0, 0), BuildingBlock: OJICUG_clean_linker_0, # of connection points: 2
#     Edge 23, Type (0, 0), BuildingBlock: OJICUG_clean_linker_0, # of connection points: 2
#     Edge 24, Type (0, 0), BuildingBlock: OJICUG_clean_linker_0, # of connection points: 2
#     Edge 25, Type (0, 0), BuildingBlock: OJICUG_clean_linker_0, # of connection points: 2
#     Edge 26, Type (0, 0), BuildingBlock: OJICUG_clean_linker_0, # of connection points: 2
#     Edge 27, Type (0, 0), BuildingBlock: OJICUG_clean_linker_0, # of connection points: 2
#     Edge 28, Type (0, 0), BuildingBlock: OJICUG_clean_linker_0, # of connection points: 2
#     Edge 29, Type (0, 0), BuildingBlock: OJICUG_clean_linker_0, # of connection points: 2
#     Edge 30, Type (0, 0), BuildingBlock: OJICUG_clean_linker_0, # of connection points: 2
#     Edge 31, Type (0, 0), BuildingBlock: OJICUG_clean_linker_0, # of connection points: 2
#     Edge 32, Type (0, 0), BuildingBlock: OJICUG_clean_linker_0, # of connection points: 2
#     Edge 33, Type (0, 0), BuildingBlock: OJICUG_clean_linker_0, # of connection points: 2
#     Edge 34, Type (0, 0), BuildingBlock: OJICUG_clean_linker_0, # of connection points: 2
#     Edge 35, Type (0, 0), BuildingBlock: OJICUG_clean_linker_0, # of connection points: 2
#     Edge 36, Type (0, 0), BuildingBlock: OJICUG_clean_linker_0, # of connection points: 2
#     Edge 37, Type (0, 0), BuildingBlock: OJICUG_clean_linker_0, # of connection points: 2
#     Edge 38, Type (0, 0), BuildingBlock: OJICUG_clean_linker_0, # of connection points: 2
#     Edge 39, Type (0, 0), BuildingBlock: OJICUG_clean_linker_0, # of connection points: 2
#     Edge 40, Type (0, 0), BuildingBlock: OJICUG_clean_linker_0, # of connection points: 2
#     Edge 41, Type (0, 0), BuildingBlock: OJICUG_clean_linker_0, # of connection points: 2
#     Edge 42, Type (0, 0), BuildingBlock: OJICUG_clean_linker_0, # of connection points: 2
#     Edge 43, Type (0, 0), BuildingBlock: OJICUG_clean_linker_0, # of connection points: 2
#     Edge 44, Type (0, 0), BuildingBlock: OJICUG_clean_linker_0, # of connection points: 2
#     Edge 45, Type (0, 0), BuildingBlock: OJICUG_clean_linker_0, # of connection points: 2
#     Edge 46, Type (0, 0), BuildingBlock: OJICUG_clean_linker_0, # of connection points: 2
#     Edge 47, Type (0, 0), BuildingBlock: OJICUG_clean_linker_0, # of connection points: 2
#     Edge 48, Type (0, 0), BuildingBlock: OJICUG_clean_linker_0, # of connection points: 2
#     Edge 49, Type (0, 0), BuildingBlock: OJICUG_clean_linker_0, # of connection points: 2
#     Edge 50, Type (0, 0), BuildingBlock: OJICUG_clean_linker_0, # of connection points: 2
#     Edge 51, Type (0, 0), BuildingBlock: OJICUG_clean_linker_0, # of connection points: 2
#     Edge 52, Type (0, 0), BuildingBlock: OJICUG_clean_linker_0, # of connection points: 2
#     Edge 53, Type (0, 0), BuildingBlock: OJICUG_clean_linker_0, # of connection points: 2
#     Edge 54, Type (0, 0), BuildingBlock: OJICUG_clean_linker_0, # of connection points: 2
#     Edge 55, Type (0, 0), BuildingBlock: OJICUG_clean_linker_0, # of connection points: 2
#     Edge 56, Type (0, 0), BuildingBlock: OJICUG_clean_linker_0, # of connection points: 2
#     Edge 57, Type (0, 0), BuildingBlock: OJICUG_clean_linker_0, # of connection points: 2
#     Edge 58, Type (0, 0), BuildingBlock: OJICUG_clean_linker_0, # of connection points: 2
#     Edge 59, Type (0, 0), BuildingBlock: OJICUG_clean_linker_0, # of connection points: 2
#     Edge 60, Type (0, 0), BuildingBlock: OJICUG_clean_linker_0, # of connection points: 2
#     Edge 61, Type (0, 0), BuildingBlock: OJICUG_clean_linker_0, # of connection points: 2
#     Edge 62, Type (0, 0), BuildingBlock: OJICUG_clean_linker_0, # of connection points: 2
#     Edge 63, Type (0, 0), BuildingBlock: OJICUG_clean_linker_0, # of connection points: 2
#     Edge 64, Type (0, 0), BuildingBlock: OJICUG_clean_linker_0, # of connection points: 2
#     Edge 65, Type (0, 0), BuildingBlock: OJICUG_clean_linker_0, # of connection points: 2
#     Edge 66, Type (0, 0), BuildingBlock: OJICUG_clean_linker_0, # of connection points: 2
#     Edge 67, Type (0, 0), BuildingBlock: OJICUG_clean_linker_0, # of connection points: 2
#     Edge 68, Type (0, 0), BuildingBlock: OJICUG_clean_linker_0, # of connection points: 2
#     Edge 69, Type (0, 0), BuildingBlock: OJICUG_clean_linker_0, # of connection points: 2
#     Edge 70, Type (0, 0), BuildingBlock: OJICUG_clean_linker_0, # of connection points: 2
#     Edge 71, Type (0, 0), BuildingBlock: OJICUG_clean_linker_0, # of connection points: 2
#     Edge 72, Type (0, 0), BuildingBlock: OJICUG_clean_linker_0, # of connection points: 2
#     Edge 73, Type (0, 0), BuildingBlock: OJICUG_clean_linker_0, # of connection points: 2
#     Edge 74, Type (0, 0), BuildingBlock: OJICUG_clean_linker_0, # of connection points: 2
#     Edge 75, Type (0, 0), BuildingBlock: OJICUG_clean_linker_0, # of connection points: 2
#     Edge 76, Type (0, 0), BuildingBlock: OJICUG_clean_linker_0, # of connection points: 2
#     Edge 77, Type (0, 0), BuildingBlock: OJICUG_clean_linker_0, # of connection points: 2
#     Edge 78, Type (0, 0), BuildingBlock: OJICUG_clean_linker_0, # of connection points: 2
#     Edge 79, Type (0, 0), BuildingBlock: OJICUG_clean_linker_0, # of connection points: 2
#     Edge 80, Type (0, 0), BuildingBlock: OJICUG_clean_linker_0, # of connection points: 2
#     Edge 81, Type (0, 0), BuildingBlock: OJICUG_clean_linker_0, # of connection points: 2
#     Edge 82, Type (0, 0), BuildingBlock: OJICUG_clean_linker_0, # of connection points: 2
#     Edge 83, Type (0, 0), BuildingBlock: OJICUG_clean_linker_0, # of connection points: 2
#     Edge 84, Type (0, 0), BuildingBlock: OJICUG_clean_linker_0, # of connection points: 2
#     Edge 85, Type (0, 0), BuildingBlock: OJICUG_clean_linker_0, # of connection points: 2
#     Edge 86, Type (0, 0), BuildingBlock: OJICUG_clean_linker_0, # of connection points: 2
#     Edge 87, Type (0, 0), BuildingBlock: OJICUG_clean_linker_0, # of connection points: 2
#     Edge 88, Type (0, 0), BuildingBlock: OJICUG_clean_linker_0, # of connection points: 2
#     Edge 89, Type (0, 0), BuildingBlock: OJICUG_clean_linker_0, # of connection points: 2
# Relax obj value: 0.353
# Max RMSD: 0.270
# Mean RMSD: 0.270
data_MOF--net-ecc--node1-LIZSOE_clean_sbu_0--edge1-OJICUG_clean_linker_0
_symmetry_space_group_name_H-M    P1
_symmetry_Int_Tables_number       1
_symmetry_cell_setting            triclinic
loop_
_symmetry_equiv_pos_as_xyz
'x, y, z'
_cell_length_a     33.223506
_cell_length_b     33.252448
_cell_length_c     25.093707
_cell_angle_alpha  89.707299
_cell_angle_beta   89.914536
_cell_angle_gamma 119.86169
loop_
_atom_site_label
_atom_site_type_symbol
_atom_site_fract_x
_atom_site_fract_y
_atom_site_fract_z
_atom_type_partial_charge
Co0 Co 0.22148 1.02667 0.90854 0.0
N1 N 0.22071 0.05011 0.97559 0.0
C2 C 0.18859 0.06105 0.99162 0.0
N3 N 0.24306 0.08845 0.05309 0.0
C4 C 0.25288 0.06623 1.0151 0.0
C5 C 0.20262 0.08523 0.0386 0.0
Co6 Co 0.23161 1.02945 0.65824 0.0
N7 N 0.20769 0.99603 0.5968 0.0
N8 N 0.20505 0.9662 0.51637 0.0
C9 C 0.16764 0.93548 0.5444 0.0
C10 C 0.16938 0.95374 0.59382 0.0
C11 C 0.22844 1.00268 0.54861 0.0
Co12 Co 0.24948 1.03158 0.78185 0.0
C13 C 0.29736 0.07872 0.68126 0.0
H14 H 0.14509 0.93653 0.62613 0.0
O15 O 0.22513 0.99945 0.84972 0.0
O16 O 0.27667 0.99078 0.74895 0.0
O17 O 0.3132 0.07659 0.81906 0.0
O18 O 0.22608 0.07506 0.79603 0.0
O19 O 0.1964 0.06484 0.87662 0.0
O20 O 0.22683 0.97463 0.68589 0.0
O21 O 0.26248 0.06447 0.71372 0.0
O22 O 0.16867 1.00991 0.686 0.0
O23 O 0.2828 0.07403 0.90007 0.0
O24 O 0.24247 0.9887 0.93092 0.0
O25 O 0.18398 0.9855 0.76089 0.0
O26 O 0.29228 0.05197 0.64124 0.0
C27 C 0.3176 0.08945 0.86917 0.0
C28 C 0.27366 0.04398 0.53371 0.0
H29 H 0.30239 0.03814 0.54603 0.0
H30 H 0.27691 0.04949 0.49005 0.0
H31 H 0.27692 0.07483 0.55418 0.0
C32 C 0.26092 0.97201 0.70248 0.0
C33 C 0.20215 0.08218 0.8298 0.0
H34 H 0.15843 0.05472 0.96878 0.0
H35 H 0.28789 1.03522 0.05352 0.0
H36 H 0.32507 0.09231 0.02942 0.0
H37 H 0.3003 0.04443 0.98375 0.0
C38 C 0.29382 0.05906 1.01955 0.0
C39 C 0.23638 0.97584 0.88129 0.0
C40 C 0.15536 0.99025 0.73171 0.0
H41 H 0.18652 0.10266 0.05814 0.0
H42 H 0.14024 0.90281 0.52941 0.0
Co43 Co 0.08505 0.22816 0.67409 0.0
N44 N 0.1326 0.24508 0.62559 0.0
C45 C 0.17643 0.25754 0.63902 0.0
N46 N 0.17933 0.27983 0.55507 0.0
C47 C 0.13523 0.25923 0.57413 0.0
C48 C 0.20503 0.27858 0.59598 0.0
Co49 Co 0.06568 0.21065 0.90832 0.0
N50 N 1.03973 0.18729 0.97576 0.0
N51 N 1.00692 0.17799 0.05682 0.0
C52 C 1.00792 0.13913 0.0447 0.0
C53 C 1.02847 0.14509 0.99535 0.0
C54 C 1.0266 0.20676 1.01495 0.0
Co55 Co 0.06544 0.23257 0.78025 0.0
C56 C 0.1151 0.27701 0.88112 0.0
H57 H 1.0335 0.11957 0.97443 0.0
O58 O 1.03427 0.21439 0.71247 0.0
O59 O 1.01844 0.25031 0.81413 0.0
O60 O 0.10534 0.30098 0.74304 0.0
O61 O 0.1163 0.21844 0.76337 0.0
O62 O 0.09091 0.17345 0.69604 0.0
O63 O 1.01494 0.219 0.89467 0.0
O64 O 0.09566 0.24181 0.84946 0.0
O65 O 1.03331 0.14675 0.87753 0.0
O66 O 0.08238 0.27812 0.65831 0.0
O67 O 1.03987 0.19052 0.63132 0.0
O68 O 1.02309 0.16459 0.79574 0.0
O69 O 0.09817 0.26996 0.92918 0.0
C70 C 0.10234 0.31042 0.69163 0.0
C71 C 1.03577 0.25573 1.01518 0.0
H72 H 1.03537 0.26797 0.97498 0.0
H73 H 1.01025 0.25945 0.04001 0.0
H74 H 0.07044 0.27881 0.03229 0.0
C75 C 1.00234 0.24039 0.86301 0.0
C76 C 0.11148 0.18269 0.74042 0.0
H77 H 0.1873 0.2537 0.6784 0.0
H78 H 0.07669 0.22229 0.52284 0.0
H79 H 0.1067 0.28458 0.51359 0.0
H80 H 0.06864 0.25793 0.56883 0.0
C81 C 0.09477 0.25617 0.54347 0.0
C82 C 1.01786 0.18293 0.67628 0.0
C83 C 1.01668 0.13425 0.83066 0.0
H84 H 0.24213 0.292 0.59496 0.0
H85 H 0.99236 0.10764 0.06849 0.0
Co86 Co 0.88638 0.87606 0.6505 0.0
N87 N 0.87966 0.90555 0.59032 0.0
C88 C 0.86804 0.93902 0.59283 0.0
N89 N 0.84491 0.90664 0.51383 0.0
C90 C 0.86659 0.88754 0.54069 0.0
C91 C 0.84601 0.93905 0.54662 0.0
Co92 Co 0.89059 0.86019 0.87954 0.0
N93 N 0.91804 0.84009 0.92899 0.0
N94 N 0.9289 0.80287 0.9978 0.0
C95 C 0.95504 0.8038 0.95613 0.0
C96 C 0.94824 0.82634 0.91428 0.0
C97 C 0.90642 0.82507 0.9802 0.0
Co98 Co 0.86722 0.8508 0.77394 0.0
C99 C 0.85621 0.89629 0.88194 0.0
H100 H 0.96268 0.83041 0.87469 0.0
O101 O 0.88723 0.83846 0.70418 0.0
O102 O 0.84422 0.78461 0.81443 0.0
O103 O 0.80086 0.82723 0.742 0.0
O104 O 0.88736 0.91763 0.75505 0.0
O105 O 0.93074 0.9375 0.68349 0.0
O106 O 0.83544 0.80945 0.89323 0.0
O107 O 0.86001 0.87852 0.8382 0.0
O108 O 0.95121 0.91356 0.86091 0.0
O109 O 0.83438 0.8785 0.67882 0.0
O110 O 0.8481 0.81866 0.62796 0.0
O111 O 0.93383 0.87069 0.79005 0.0
O112 O 0.87714 0.89371 0.92422 0.0
C113 C 0.79779 0.84443 0.69659 0.0
C114 C 0.86957 0.82845 1.01163 0.0
H115 H 0.8409 0.82498 0.98636 0.0
H116 H 0.85437 0.80107 0.04282 0.0
H117 H 0.88525 0.863 0.03072 0.0
C118 C 0.8286 0.776 0.8644 0.0
C119 C 0.92173 0.94843 0.72901 0.0
H120 H 0.87035 0.95839 0.6283 0.0
H121 H 0.89756 0.84447 0.54398 0.0
H122 H 0.88148 0.85303 0.47816 0.0
H123 H 0.83708 0.81537 0.5238 0.0
C124 C 0.87111 0.84779 0.5206 0.0
C125 C 0.86547 0.80725 0.66773 0.0
C126 C 0.96399 0.90444 0.81684 0.0
H127 H 0.82955 0.95951 0.53882 0.0
H128 H 0.97774 0.78918 0.95583 0.0
Co129 Co 0.88528 1.023 0.39922 0.0
N130 N 0.90917 0.03961 0.46595 0.0
C131 C 0.9457 1.03553 0.48148 0.0
N132 N 0.92154 0.05611 0.55273 0.0
C133 C 0.89441 0.05135 0.51057 0.0
C134 C 0.95374 0.04613 0.53437 0.0
Co135 Co 0.88407 0.04297 0.1528 0.0
N136 N 0.87619 1.01397 0.08847 0.0
N137 N 0.83926 0.98334 1.01217 0.0
C138 C 0.84571 0.95138 0.03797 0.0
C139 C 0.86839 0.97019 0.08454 0.0
C140 C 0.85954 1.02155 0.04254 0.0
Co141 Co 0.86418 0.03612 0.27616 0.0
C142 C 0.87024 0.09261 0.17945 0.0
H143 H 0.87515 0.95166 0.11554 0.0
O144 O 0.85422 0.99898 0.34017 0.0
O145 O 0.79716 0.99798 0.24254 0.0
O146 O 0.84651 0.07995 0.31799 0.0
O147 O 0.93123 0.07777 0.29172 0.0
O148 O 0.94949 0.05925 0.36829 0.0
O149 O 0.83129 0.98753 0.17416 0.0
O150 O 0.88654 0.07331 0.21108 0.0
O151 O 0.92492 1.01894 0.17887 0.0
O152 O 0.87564 0.0742 0.39667 0.0
O153 O 0.82648 0.98917 0.42126 0.0
O154 O 0.88121 0.9897 0.25006 0.0
O155 O 0.84822 0.06894 0.13756 0.0
C156 C 0.85576 0.09094 0.36843 0.0
C157 C 0.86264 0.0666 0.02729 0.0
H158 H 0.83118 0.06699 0.04139 0.0
H159 H 0.86428 0.07174 0.98356 0.0
H160 H 0.89399 0.09522 0.0453 0.0
C161 C 0.79461 0.9828 0.19413 0.0
C162 C 0.96186 0.08033 0.32341 0.0
H163 H 0.9651 1.02517 0.45585 0.0
H164 H 0.83854 0.05062 0.55589 0.0
H165 H 0.8616 0.09169 0.50162 0.0
H166 H 0.823 1.03174 0.48948 0.0
C167 C 0.85187 0.05617 0.51438 0.0
C168 C 0.81989 0.97481 0.37252 0.0
C169 C 0.91568 0.99559 0.22236 0.0
H170 H 0.98227 0.04798 0.55712 0.0
H171 H 0.83538 0.91696 0.02349 0.0
Co172 Co 0.07302 0.87399 0.14692 0.0
N173 N 0.11111 0.90014 0.08751 0.0
C174 C 0.15519 0.93566 0.08929 0.0
N175 N 0.14861 0.90012 1.01295 0.0
C176 C 0.10767 0.88002 0.03944 0.0
C177 C 0.17823 0.93544 0.04395 0.0
Co178 Co 1.03987 0.85698 0.37972 0.0
N179 N 0.9947 0.84003 0.43098 0.0
N180 N 0.95007 0.80041 0.50133 0.0
C181 C 0.92261 0.79776 0.46028 0.0
C182 C 0.9499 0.82199 0.41759 0.0
C183 C 0.99406 0.82623 0.48219 0.0
Co184 Co 0.06006 0.85102 0.27172 0.0
C185 C 0.10938 0.90387 0.37171 0.0
H186 H 0.93781 0.82346 0.37803 0.0
O187 O 1.03279 0.83975 0.19976 0.0
O188 O 1.0179 0.78453 0.31207 0.0
O189 O 0.10543 0.82868 0.2457 0.0
O190 O 0.10493 0.91859 0.25457 0.0
O191 O 0.08984 0.93625 0.17488 0.0
O192 O 1.04615 0.80855 0.39533 0.0
O193 O 0.08677 0.87034 0.3397 0.0
O194 O 1.02979 0.90795 0.35618 0.0
O195 O 0.12584 0.87911 0.18158 0.0
O196 O 1.05423 0.81505 0.12906 0.0
O197 O 1.01087 0.86858 0.28285 0.0
O198 O 0.08987 0.90036 0.41775 0.0
C199 C 0.12827 0.84588 0.20188 0.0
C200 C 1.03676 0.83359 0.51131 0.0
H201 H 0.06403 0.83592 0.48427 0.0
H202 H 1.02815 0.80499 0.54015 0.0
H203 H 1.05184 0.86697 0.53292 0.0
C204 C 1.02311 0.77565 0.36311 0.0
C205 C 0.1061 0.94856 0.22201 0.0
H206 H 0.17082 0.95772 0.12343 0.0
H207 H 1.03365 0.83586 0.0397 0.0
H208 H 0.06093 0.83889 0.97668 0.0
H209 H 0.06679 0.80652 0.02988 0.0
C210 C 0.06466 0.83803 1.02033 0.0
C211 C 1.02335 0.8069 0.16565 0.0
C212 C 1.01147 0.90062 0.3103 0.0
H213 H 0.21457 0.95851 0.0352 0.0
H214 H 0.88507 0.77953 0.46085 0.0
Co215 Co 0.22506 0.21806 0.15177 0.0
N216 N 0.19697 0.22824 0.09269 0.0
C217 C 0.15878 0.23254 0.09647 0.0
N218 N 0.19042 0.26269 1.01839 0.0
C219 C 0.21491 0.24579 0.0436 0.0
C220 C 0.15492 0.25371 0.05135 0.0
Co221 Co 0.2432 0.20542 0.39883 0.0
N222 N 0.25511 0.17593 0.45446 0.0
N223 N 0.29631 0.17395 0.52444 0.0
C224 C 0.29588 0.14544 0.48629 0.0
C225 C 0.26908 0.14495 0.44497 0.0
C226 C 0.27085 0.19211 0.50421 0.0
Co227 Co 0.25458 0.23324 0.27563 0.0
C228 C 0.26117 0.27358 0.38449 0.0
H229 H 0.26537 0.12767 0.40738 0.0
O230 O 0.25973 0.21345 0.20337 0.0
O231 O 0.32337 0.25863 0.30278 0.0
O232 O 0.27735 0.30009 0.24416 0.0
O233 O 0.18612 0.21083 0.26495 0.0
O234 O 0.16403 0.17723 0.18616 0.0
O235 O 0.2932 0.20518 0.36268 0.0
O236 O 0.23768 0.24212 0.34896 0.0
O237 O 0.19891 0.14492 0.36628 0.0
O238 O 0.22463 0.26923 0.18359 0.0
O239 O 0.28442 0.25338 0.12827 0.0
O240 O 0.23576 0.16605 0.28941 0.0
O241 O 0.28109 0.26266 0.42185 0.0
C242 C 0.26079 0.30453 0.199 0.0
C243 C 0.26823 0.23204 0.52824 0.0
H244 H 0.30126 0.26459 0.52014 0.0
H245 H 0.2639 0.22933 0.57185 0.0
H246 H 0.23896 0.2346 0.51065 0.0
C247 C 0.32861 0.24126 0.34693 0.0
C248 C 0.15422 0.18191 0.23445 0.0
H249 H 0.1373 0.22467 0.1317 0.0
H250 H 0.26236 0.21999 0.03609 0.0
H251 H 0.25992 0.25034 0.97803 0.0
H252 H 0.28892 0.2827 0.03555 0.0
C253 C 0.25887 0.24971 1.022 0.0
C254 C 0.29188 0.23189 0.16719 0.0
C255 C 0.20501 0.13467 0.31901 0.0
H256 H 0.12913 0.26373 0.04423 0.0
H257 H 0.31594 0.12805 0.48679 0.0
Co258 Co 0.8923 0.35874 0.97943 0.0
N259 N 0.86598 0.3214 0.92011 0.0
C260 C 0.8293 0.27798 0.92255 0.0
N261 N 0.8643 0.28316 0.84588 0.0
C262 C 0.88588 0.32402 0.87187 0.0
C263 C 0.82837 0.25451 0.87735 0.0
Co264 Co 0.89478 0.37382 0.23155 0.0
N265 N 0.89803 0.40196 0.29647 0.0
N266 N 0.92287 0.44045 0.37341 0.0
C267 C 0.88301 0.43899 0.36003 0.0
C268 C 0.86745 0.41474 0.31328 0.0
C269 C 0.9312 0.4176 0.3349 0.0
Co270 Co 0.91553 0.36993 0.10379 0.0
C271 C 0.9089 0.32189 0.20806 0.0
H272 H 0.83675 0.40862 0.29175 0.0
O273 O 0.92577 0.39761 0.03209 0.0
O274 O 0.98108 0.41681 0.13565 0.0
O275 O 0.94145 0.32763 0.07527 0.0
O276 O 0.8497 0.32211 0.08712 0.0
O277 O 0.83053 0.34 1.01009 0.0
O278 O 0.95532 0.42117 0.21708 0.0
O279 O 0.89477 0.34219 0.17486 0.0
O280 O 0.86731 0.40872 0.19796 0.0
O281 O 0.89026 0.30621 1.01195 0.0
O282 O 0.95136 0.38035 0.95915 0.0
O283 O 0.89205 0.41398 0.11538 0.0
O284 O 0.91778 0.33852 0.25609 0.0
C285 C 0.92489 0.30553 0.03079 0.0
C286 C 0.97112 0.40855 0.33795 0.0
H287 H 0.98038 0.40028 0.29933 0.0
H288 H 1.00209 0.43879 0.35501 0.0
H289 H 0.96153 0.37881 0.3653 0.0
C290 C 0.98846 0.43327 0.18429 0.0
C291 C 0.81936 0.32331 0.0574 0.0
H292 H 0.80703 0.26295 0.95699 0.0
H293 H 0.93204 0.39767 0.87005 0.0
H294 H 0.92915 0.36929 0.80823 0.0
H295 H 0.95971 0.36273 0.86263 0.0
C296 C 0.92902 0.36592 0.85202 0.0
C297 C 0.95955 0.40847 0.99864 0.0
C298 C 0.87001 0.42299 0.15003 0.0
H299 H 0.80394 0.21849 0.86897 0.0
H300 H 0.8678 0.45664 0.38095 0.0
Co301 Co 0.70524 0.54129 0.23859 0.0
N302 N 0.66259 0.51277 0.2941 0.0
C303 C 0.6215 0.47414 0.28504 0.0
N304 N 0.61149 0.50448 0.35817 0.0
C305 C 0.6557 0.53023 0.34007 0.0
C306 C 0.59044 0.46944 0.32344 0.0
Co307 Co 0.74024 0.56149 0.99258 0.0
N308 N 0.77901 0.57464 0.93471 0.0
N309 N 0.81582 0.60622 0.85797 0.0
C310 C 0.84373 0.59721 0.88847 0.0
C311 C 0.82116 0.57794 0.93555 0.0
C312 C 0.77658 0.59176 0.88643 0.0
Co313 Co 0.72397 0.57058 0.11559 0.0
C314 C 0.68824 0.57652 1.01061 0.0
H315 H 0.83539 0.56867 0.96906 0.0
O316 O 0.74729 0.57606 0.18857 0.0
O317 O 0.76883 0.63895 0.08799 0.0
O318 O 0.68042 0.59532 0.14274 0.0
O319 O 0.6764 0.50304 0.12685 0.0
O320 O 0.68708 0.4807 0.20597 0.0
O321 O 0.79185 0.60948 0.02763 0.0
O322 O 0.69961 0.55396 0.04371 0.0
O323 O 0.75899 0.51811 1.02226 0.0
O324 O 0.65553 0.54181 0.2029 0.0
O325 O 0.7288 0.60048 0.26133 0.0
O326 O 0.76993 0.54846 0.10296 0.0
O327 O 0.71821 0.59964 0.97347 0.0
C328 C 0.65675 0.57788 0.18608 0.0
C329 C 0.7371 0.59833 0.86867 0.0
H330 H 0.74189 0.63134 0.88487 0.0
H331 H 0.73552 0.60166 0.82506 0.0
H332 H 0.70401 0.56907 0.88351 0.0
C333 C 0.79181 0.64487 0.04401 0.0
C334 C 0.6732 0.47109 0.15775 0.0
H335 H 0.61263 0.45306 0.24973 0.0
H336 H 0.72599 0.58163 0.35758 0.0
H337 H 0.68463 0.57974 0.40556 0.0
H338 H 0.68802 0.60404 0.34212 0.0
C339 C 0.69057 0.57611 0.36307 0.0
C340 C 0.75796 0.60903 0.22234 0.0
C341 C 0.77363 0.52124 0.07022 0.0
H342 H 0.55427 0.44298 0.32457 0.0
H343 H 0.87768 0.60321 0.87686 0.0
Co344 Co 0.56144 0.18901 0.23114 0.0
N345 N 0.59222 0.17586 0.28425 0.0
C346 C 0.62866 0.17001 0.27299 0.0
N347 N 0.60339 0.13824 0.3522 0.0
C348 C 0.57787 0.1568 0.33351 0.0
C349 C 0.63498 0.14651 0.31382 0.0
Co350 Co 0.53861 0.21203 0.98665 0.0
N351 N 0.52339 0.24054 0.93254 0.0
N352 N 0.48332 0.24935 0.86574 0.0
C353 C 0.49327 0.28246 0.9023 0.0
C354 C 0.51805 0.27745 0.94244 0.0
C355 C 0.50238 0.22432 0.88468 0.0
Co356 Co 0.53021 0.18058 0.10899 0.0
C357 C 0.52676 0.1454 0.99921 0.0
H358 H 0.5278 0.29716 0.97891 0.0
O359 O 0.52452 0.19509 0.18338 0.0
O360 O 0.46155 0.1562 0.08403 0.0
O361 O 0.50719 0.11173 0.13422 0.0
O362 O 0.59808 0.20164 0.11776 0.0
O363 O 0.62085 0.23279 0.19719 0.0
O364 O 0.48929 0.21066 0.02517 0.0
O365 O 0.54718 0.17725 0.03475 0.0
O366 O 0.58045 0.27224 1.01976 0.0
O367 O 0.56169 0.14065 0.19236 0.0
O368 O 0.50306 0.15166 0.25626 0.0
O369 O 0.5502 0.24855 0.10022 0.0
O370 O 0.50337 0.15318 0.96308 0.0
C371 C 0.52527 0.10568 0.17717 0.0
C372 C 0.49524 0.17999 0.86028 0.0
H373 H 0.4657 0.15027 0.88038 0.0
H374 H 0.48559 0.17611 0.81789 0.0
H375 H 0.52692 0.17717 0.86526 0.0
C376 C 0.45491 0.17396 0.04122 0.0
C377 C 0.63005 0.22983 0.14837 0.0
H378 H 0.64687 0.17827 0.23525 0.0
H379 H 0.52951 0.18004 0.34762 0.0
H380 H 0.53452 0.14823 0.40319 0.0
H381 H 0.50451 0.11794 0.34547 0.0
C382 C 0.53449 0.15072 0.35939 0.0
C383 C 0.49199 0.17005 0.21707 0.0
C384 C 0.57729 0.28112 0.06872 0.0
H385 H 0.65995 0.13476 0.31417 0.0
H386 H 0.48226 0.30804 0.90089 0.0
Co387 Co 0.5607 0.39339 0.72707 0.0
N388 N 0.59051 0.43583 0.78117 0.0
C389 C 0.62661 0.47849 0.77106 0.0
N390 N 0.59915 0.48272 0.84963 0.0
C391 C 0.5749 0.43909 0.83014 0.0
C392 C 0.63125 0.50722 0.81211 0.0
Co393 Co 0.54231 0.35245 0.48253 0.0
N394 N 0.52941 0.30929 0.42864 0.0
N395 N 0.48838 0.25873 0.36406 0.0
C396 C 0.50004 0.23693 0.40104 0.0
C397 C 0.52549 0.26774 0.43969 0.0
C398 C 0.50712 0.30306 0.38132 0.0
Co399 Co 0.53146 0.37303 0.60449 0.0
C400 C 0.52391 0.40334 0.49762 0.0
H401 H 0.53584 0.25855 0.47647 0.0
O402 O 0.52455 0.35142 0.67858 0.0
O403 O 0.46268 0.32901 0.57732 0.0
O404 O 0.50878 0.41918 0.62944 0.0
O405 O 0.60005 0.41912 0.61442 0.0
O406 O 0.62072 0.40873 0.69461 0.0
O407 O 0.49217 0.30347 0.51931 0.0
O408 O 0.54819 0.3945 0.5308 0.0
O409 O 0.58461 0.33492 0.5174 0.0
O410 O 0.56243 0.44321 0.68871 0.0
O411 O 0.50207 0.37323 0.75045 0.0
O412 O 0.55101 0.32463 0.59607 0.0
O413 O 0.5063 0.37548 0.45735 0.0
C414 C 0.5268 0.44305 0.67233 0.0
C415 C 0.49845 0.33913 0.35635 0.0
H416 H 0.46755 0.3375 0.37505 0.0
H417 H 0.49089 0.33451 0.31347 0.0
H418 H 0.52892 0.37374 0.36317 0.0
C419 C 0.45711 0.30522 0.53425 0.0
C420 C 0.63133 0.42184 0.64606 0.0
H421 H 0.64549 0.48943 0.73376 0.0
H422 H 0.52654 0.36695 0.84169 0.0
H423 H 0.53158 0.40169 0.89881 0.0
H424 H 0.50148 0.40433 0.84196 0.0
C425 C 0.53148 0.40083 0.85491 0.0
C426 C 0.49169 0.34363 0.71195 0.0
C427 C 0.58005 0.32123 0.56594 0.0
H428 H 0.65524 0.544 0.81299 0.0
H429 H 0.48898 0.2004 0.40161 0.0
Co430 Co 0.73436 0.21233 0.73803 0.0
N431 N 0.70851 0.2128 0.80336 0.0
C432 C 0.69871 0.24592 0.81826 0.0
N433 N 0.66897 0.19172 0.88053 0.0
C434 C 0.69101 0.18085 0.84332 0.0
C435 C 0.67374 0.23265 0.86509 0.0
Co436 Co 0.75052 0.2083 0.48636 0.0
N437 N 0.78941 0.234 0.42699 0.0
N438 N 0.82856 0.23919 0.35162 0.0
C439 C 0.85561 0.27564 0.38267 0.0
C440 C 0.83167 0.27246 0.42861 0.0
C441 C 0.78823 0.2148 0.37884 0.0
Co442 Co 0.73716 0.18711 0.61166 0.0
C443 C 0.7 0.14131 0.50742 0.0
H444 H 0.84543 0.29533 0.46242 0.0
O445 O 0.76401 0.20964 0.68145 0.0
O446 O 0.77975 0.16061 0.58544 0.0
O447 O 0.69048 0.12237 0.64781 0.0
O448 O 0.69276 0.21031 0.62101 0.0
O449 O 0.69549 0.23489 0.70291 0.0
O450 O 0.80248 0.21135 0.52128 0.0
O451 O 0.7106 0.17558 0.53954 0.0
O452 O 0.76816 0.27053 0.51423 0.0
O453 O 0.68903 0.15006 0.72936 0.0
O454 O 0.77325 0.1937 0.76395 0.0
O455 O 0.78477 0.25281 0.59279 0.0
O456 O 0.7289 0.14858 0.46859 0.0
C457 C 0.67622 0.11613 0.69788 0.0
C458 C 0.7487 0.16961 0.36049 0.0
H459 H 0.75412 0.14097 0.37446 0.0
H460 H 0.74626 0.1675 0.31657 0.0
H461 H 0.71581 0.16493 0.37731 0.0
C462 C 0.80243 0.1765 0.5408 0.0
C463 C 0.68165 0.23123 0.65477 0.0
H464 H 0.70654 0.27632 0.79474 0.0
H465 H 0.70601 0.13496 0.88771 0.0
H466 H 0.65856 0.1076 0.84315 0.0
H467 H 0.71721 0.1354 0.81772 0.0
C468 C 0.69394 0.13749 0.84726 0.0
C469 C 0.78694 0.19888 0.71452 0.0
C470 C 0.78338 0.28241 0.56175 0.0
H471 H 0.65692 0.24969 0.8839 0.0
H472 H 0.89058 0.30249 0.37294 0.0
Co473 Co 0.91504 0.54164 0.71797 0.0
N474 N 0.92667 0.50952 0.76926 0.0
C475 C 0.94183 0.48036 0.75533 0.0
N476 N 0.96523 0.5014 0.83821 0.0
C477 C 0.94134 0.52198 0.82013 0.0
C478 C 0.96533 0.47533 0.79723 0.0
Co479 Co 0.89809 0.55365 0.48675 0.0
N480 N 0.86824 0.56434 0.42999 0.0
N481 N 0.8564 0.60271 0.36344 0.0
C482 C 0.82078 0.5873 0.39798 0.0
C483 C 0.82788 0.564 0.43813 0.0
C484 C 0.88443 0.58728 0.38278 0.0
Co485 Co 0.92481 0.568 0.61034 0.0
C486 C 0.96562 0.5703 0.50206 0.0
H487 H 0.80705 0.55232 0.47388 0.0
O488 O 0.90729 0.57932 0.67756 0.0
O489 O 0.94812 0.63483 0.5799 0.0
O490 O 0.99142 0.59231 0.65073 0.0
O491 O 0.90747 0.50202 0.62609 0.0
O492 O 0.86135 0.48345 0.69373 0.0
O493 O 0.89502 0.60307 0.5205 0.0
O494 O 0.93402 0.54902 0.53856 0.0
O495 O 0.8377 0.50894 0.51825 0.0
O496 O 0.96599 0.5932 0.73482 0.0
O497 O 0.8739 0.55337 0.7547 0.0
O498 O 0.8561 0.54434 0.59563 0.0
O499 O 0.95649 0.59183 0.46449 0.0
C500 C 0.99941 0.60424 0.70252 0.0
C501 C 0.93005 0.59824 0.35835 0.0
H502 H 0.95826 0.62979 0.37702 0.0
H503 H 0.93144 0.60539 0.31514 0.0
H504 H 0.93658 0.569 0.3652 0.0
C505 C 0.9303 0.63917 0.53602 0.0
C506 C 0.87158 0.47165 0.65001 0.0
H507 H 0.93969 0.46697 0.71564 0.0
H508 H 0.90421 0.54229 0.87301 0.0
H509 H 0.96664 0.57769 0.87745 0.0
H510 H 0.93562 0.58458 0.82308 0.0
C511 C 0.93708 0.55891 0.84981 0.0
C512 C 0.87457 0.57278 0.70933 0.0
C513 C 0.82567 0.51393 0.56495 0.0
H514 H 0.98216 0.45463 0.79698 0.0
H515 H 0.79256 0.59452 0.39583 0.0
Co516 Co 0.57373 0.7329 0.313 0.0
N517 N 0.55365 0.71529 0.24383 0.0
C518 C 0.51646 0.71529 0.22239 0.0
N519 N 0.54541 0.69114 0.15912 0.0
C520 C 0.57146 0.70194 0.20335 0.0
C521 C 0.51093 0.69983 0.17067 0.0
Co522 Co 0.56319 0.71549 0.56482 0.0
N523 N 0.56434 0.74141 0.63119 0.0
N524 N 0.5893 0.77993 0.70826 0.0
C525 C 0.55113 0.78111 0.69308 0.0
C526 C 0.53541 0.75682 0.64643 0.0
C527 C 0.59625 0.75515 0.67095 0.0
Co528 Co 0.58849 0.72171 0.4403 0.0
C529 C 0.58031 0.66677 0.53877 0.0
H530 H 0.50617 0.75312 0.6237 0.0
O531 O 0.60162 0.7571 0.37404 0.0
O532 O 0.6539 0.75895 0.47591 0.0
O533 O 0.60516 0.67515 0.40312 0.0
O534 O 0.52166 0.68283 0.42166 0.0
O535 O 0.50824 0.69794 0.33997 0.0
O536 O 0.6227 0.76858 0.55054 0.0
O537 O 0.56457 0.68637 0.50674 0.0
O538 O 0.52991 0.74529 0.53288 0.0
O539 O 0.58203 0.68131 0.32073 0.0
O540 O 0.6336 0.76579 0.29534 0.0
O541 O 0.5749 0.7712 0.46274 0.0
O542 O 0.59138 0.68412 0.58639 0.0
C543 C 0.59872 0.66368 0.3526 0.0
C544 C 0.63368 0.74272 0.67581 0.0
H545 H 0.64949 0.74473 0.63714 0.0
H546 H 0.66108 0.7655 0.70416 0.0
H547 H 0.6184 0.70659 0.69051 0.0
C548 C 0.65838 0.7754 0.52422 0.0
C549 C 0.49331 0.67924 0.38583 0.0
H550 H 0.49373 0.72425 0.24373 0.0
H551 H 0.62794 0.69839 0.16555 0.0
H552 H 0.60252 0.66195 0.22235 0.0
H553 H 0.64183 0.72285 0.23042 0.0
C554 C 0.61364 0.69666 0.20605 0.0
C555 C 0.63801 0.78005 0.34408 0.0
C556 C 0.54096 0.7679 0.48906 0.0
H557 H 0.48166 0.69179 0.14512 0.0
H558 H 0.53769 0.80113 0.71228 0.0
Co559 Co 0.37288 0.87312 0.55841 0.0
N560 N 0.33269 0.84286 0.61473 0.0
C561 C 0.28838 0.80961 0.60664 0.0
N562 N 0.28987 0.83816 0.68639 0.0
C563 C 0.33297 0.85893 0.66447 0.0
C564 C 0.26211 0.80788 0.64939 0.0
Co565 Co 0.40931 0.89496 0.3134 0.0
N566 N 0.45248 0.90966 0.25881 0.0
N567 N 0.50083 0.9509 0.19182 0.0
C568 C 0.52506 0.94366 0.22986 0.0
C569 C 0.49561 0.91779 0.26978 0.0
C570 C 0.45637 0.92947 0.21008 0.0
Co571 Co 0.38913 0.90442 0.43616 0.0
C572 C 0.35551 0.90892 0.32746 0.0
H573 H 0.50629 0.9096 0.30702 0.0
O574 O 0.41325 0.91006 0.50864 0.0
O575 O 0.43241 0.97337 0.40919 0.0
O576 O 0.34355 0.92675 0.46558 0.0
O577 O 0.34295 0.83559 0.44611 0.0
O578 O 0.35609 0.813 0.52378 0.0
O579 O 0.4574 0.94442 0.35012 0.0
O580 O 0.36651 0.8874 0.3626 0.0
O581 O 0.42857 0.85324 0.34681 0.0
O582 O 0.3219 0.87268 0.52458 0.0
O583 O 0.39392 0.93141 0.58291 0.0
O584 O 0.43778 0.88599 0.42541 0.0
O585 O 0.3856 0.93036 0.28945 0.0
C586 C 0.32181 0.90874 0.51016 0.0
C587 C 0.4175 0.93307 0.18414 0.0
H588 H 0.41614 0.96309 0.2009 0.0
H589 H 0.42223 0.93962 0.14086 0.0
H590 H 0.38388 0.90113 0.19211 0.0
C591 C 0.45572 0.97915 0.36556 0.0
C592 C 0.34191 0.80372 0.47553 0.0
H593 H 0.27484 0.79187 0.56932 0.0
H594 H 0.40641 0.90473 0.66858 0.0
H595 H 0.37728 0.89921 0.73054 0.0
H596 H 0.37126 0.93191 0.67865 0.0
C597 C 0.37429 0.90074 0.68705 0.0
C598 C 0.42307 0.94203 0.54362 0.0
C599 C 0.44261 0.85823 0.39507 0.0
H600 H 0.22478 0.78794 0.6513 0.0
H601 H 0.5621 0.95699 0.22932 0.0
Co602 Co 0.22305 0.5398 0.3062 0.0
N603 N 0.21659 0.56558 0.24352 0.0
C604 C 0.21207 0.60371 0.24167 0.0
N605 N 0.18238 0.56612 0.16689 0.0
C606 C 0.19948 0.54407 0.19629 0.0
C607 C 0.19089 0.60393 0.195 0.0
Co608 Co 0.22932 0.53953 0.53015 0.0
N609 N 0.2637 0.52662 0.57891 0.0
N610 N 0.27693 0.49143 0.64824 0.0
C611 C 0.30256 0.49202 0.6063 0.0
C612 C 0.29428 0.51329 0.56405 0.0
C613 C 0.25365 0.51277 0.63081 0.0
Co614 Co 0.20285 0.52129 0.42895 0.0
C615 C 0.19004 0.56988 0.53398 0.0
H616 H 0.30715 0.51556 0.52395 0.0
O617 O 0.22471 0.50552 0.36304 0.0
O618 O 0.18044 0.45714 0.47253 0.0
O619 O 0.13688 0.49492 0.39464 0.0
O620 O 0.22185 0.58653 0.40478 0.0
O621 O 0.26709 0.60317 0.33519 0.0
O622 O 0.17876 0.48652 0.55118 0.0
O623 O 0.18966 0.55029 0.48943 0.0
O624 O 0.28535 0.59582 0.50633 0.0
O625 O 0.17062 0.54404 0.32971 0.0
O626 O 0.18414 0.48127 0.28817 0.0
O627 O 0.27025 0.54402 0.44675 0.0
O628 O 0.2165 0.5723 0.57301 0.0
C629 C 0.13379 0.51117 0.34866 0.0
C630 C 0.21765 0.51643 0.66379 0.0
H631 H 0.18776 0.51224 0.64045 0.0
H632 H 0.20361 0.48972 0.69576 0.0
H633 H 0.23421 0.55127 0.68219 0.0
C634 C 0.16862 0.4515 0.5236 0.0
C635 C 0.25587 0.61647 0.37764 0.0
H636 H 0.21952 0.62753 0.27425 0.0
H637 H 0.22375 0.49534 0.20007 0.0
H638 H 0.19791 0.49587 0.13739 0.0
H639 H 0.16129 0.46992 0.19328 0.0
C640 C 0.1957 0.49887 0.18086 0.0
C641 C 0.20339 0.47267 0.32809 0.0
C642 C 0.29913 0.58289 0.46625 0.0
H643 H 0.18132 0.62939 0.18313 0.0
H644 H 0.32498 0.47708 0.60577 0.0
Co645 Co 0.22822 0.71365 0.07478 0.0
N646 N 0.26033 0.73818 0.13597 0.0
C647 C 0.30566 0.7586 0.14849 0.0
N648 N 0.2712 0.77618 0.21254 0.0
C649 C 0.24025 0.74846 0.17624 0.0
C650 C 0.31243 0.78239 0.19541 0.0
Co651 Co 0.21886 0.70338 0.82912 0.0
N652 N 0.20613 0.66649 0.76985 0.0
N653 N 0.17137 0.62937 0.69499 0.0
C654 C 0.18213 0.60184 0.72375 0.0
C655 C 0.2035 0.62464 0.7696 0.0
C656 C 0.18663 0.66852 0.72323 0.0
Co657 Co 0.206 0.71315 0.95215 0.0
C658 C 0.20353 0.75451 0.85039 0.0
H659 H 0.21379 0.61031 0.80211 0.0
O660 O 0.19188 0.68453 1.02196 0.0
O661 O 0.13854 0.67136 0.92154 0.0
O662 O 0.1858 0.75747 0.98658 0.0
O663 O 0.27158 0.75997 0.96755 0.0
O664 O 0.28838 0.73229 0.03692 0.0
O665 O 0.16996 0.65001 0.86189 0.0
O666 O 0.2261 0.7423 0.88244 0.0
O667 O 0.26242 0.6841 0.85646 0.0
O668 O 0.23168 0.77103 0.05804 0.0
O669 O 0.22061 0.65748 0.0841 0.0
O670 O 0.22885 0.66767 0.93588 0.0
O671 O 0.18072 0.72586 0.81249 0.0
C672 C 0.20072 0.77605 0.0337 0.0
C673 C 0.17763 0.70689 0.70772 0.0
H674 H 0.14475 0.70065 0.72623 0.0
H675 H 0.17274 0.70876 0.66451 0.0
H676 H 0.20659 0.74019 0.72175 0.0
C677 C 0.13383 0.64903 0.8778 0.0
C678 C 0.30114 0.75489 0.99328 0.0
H679 H 0.33261 0.75986 0.1232 0.0
H680 H 0.17393 0.70817 0.2127 0.0
H681 H 0.18451 0.76245 0.18626 0.0
H682 H 0.17197 0.71456 0.14136 0.0
C683 C 0.18958 0.73253 0.17859 0.0
C684 C 0.19588 0.65049 0.04103 0.0
C685 C 0.25848 0.66737 0.90355 0.0
H686 H 0.34574 0.80647 0.21256 0.0
H687 H 0.17496 0.5676 0.71227 0.0
Co688 Co 0.38085 0.51739 0.04007 0.0
N689 N 0.33261 0.4939 0.08954 0.0
C690 C 0.28817 0.47916 0.07659 0.0
N691 N 0.28701 0.45791 0.16075 0.0
C692 C 0.33094 0.48001 0.14105 0.0
C693 C 0.26026 0.45698 0.11982 0.0
Co694 Co 0.40589 0.5391 0.80953 0.0
N695 N 0.44491 0.56808 0.75098 0.0
N696 N 0.48741 0.57722 0.67736 0.0
C697 C 0.51248 0.6126 0.71051 0.0
C698 C 0.48654 0.60709 0.75526 0.0
C699 C 0.4461 0.55111 0.7021 0.0
Co700 Co 0.39603 0.51338 0.93364 0.0
C701 C 0.35519 0.47291 0.82393 0.0
H702 H 0.49891 0.6284 0.79045 0.0
O703 O 0.43214 0.53954 0.99915 0.0
O704 O 0.43853 0.48888 0.90152 0.0
O705 O 0.35219 0.44616 0.972 0.0
O706 O 0.34976 0.53422 0.9503 0.0
O707 O 0.37183 0.57045 0.02582 0.0
O708 O 0.45898 0.54229 0.84159 0.0
O709 O 0.36468 0.50254 0.86265 0.0
O710 O 0.42214 0.60028 0.84031 0.0
O711 O 0.38735 0.46717 0.05015 0.0
O712 O 0.42454 0.54895 0.08628 0.0
O713 O 0.44122 0.58093 0.91604 0.0
O714 O 0.38736 0.48153 0.78889 0.0
C715 C 0.35966 0.43515 1.0206 0.0
C716 C 0.40771 0.50685 0.68008 0.0
H717 H 0.41163 0.47737 0.69425 0.0
H718 H 0.40831 0.5065 0.63604 0.0
H719 H 0.37402 0.50215 0.69382 0.0
C720 C 0.46032 0.5071 0.85726 0.0
C721 C 0.35246 0.56581 0.9807 0.0
H722 H 0.27664 0.48274 0.03749 0.0
H723 H 0.39276 0.5197 0.18678 0.0
H724 H 0.36096 0.45878 0.20433 0.0
H725 H 0.3951 0.47758 0.14493 0.0
C726 C 0.3721 0.48405 0.17087 0.0
C727 C 0.45068 0.55492 0.04541 0.0
C728 C 0.43947 0.61152 0.88701 0.0
H729 H 0.22293 0.44155 0.12107 0.0
H730 H 0.54766 0.63997 0.70329 0.0
Co731 Co 0.55955 0.89048 0.81701 0.0
N732 N 0.52948 0.90325 0.76264 0.0
C733 C 0.49236 0.90813 0.77336 0.0
N734 N 0.51957 0.94285 0.69595 0.0
C735 C 0.545 0.924 0.71423 0.0
C736 C 0.4869 0.9329 0.73346 0.0
Co737 Co 0.57687 0.8704 0.06298 0.0
N738 N 0.58718 0.84197 0.12131 0.0
N739 N 0.62204 0.84458 0.19907 0.0
C740 C 0.6266 0.81528 0.16593 0.0
C741 C 0.60478 0.81323 0.11875 0.0
C742 C 0.59629 0.85886 0.17158 0.0
Co743 Co 0.58964 0.90035 0.93953 0.0
C744 C 0.59418 0.93876 0.0461 0.0
H745 H 0.60601 0.79572 0.0831 0.0
O746 O 0.5959 0.88435 0.86567 0.0
O747 O 0.65769 0.92426 0.9675 0.0
O748 O 0.61272 0.96873 0.91264 0.0
O749 O 0.52171 0.87907 0.92946 0.0
O750 O 0.49958 0.8464 0.85065 0.0
O751 O 0.62845 0.87136 0.02939 0.0
O752 O 0.57232 0.90561 1.01246 0.0
O753 O 0.5357 0.80966 0.02895 0.0
O754 O 0.55855 0.93924 0.85411 0.0
O755 O 0.61801 0.92807 0.79293 0.0
O756 O 0.56999 0.83281 0.95043 0.0
O757 O 0.61266 0.92972 0.08692 0.0
C758 C 0.59458 0.97446 0.86955 0.0
C759 C 0.58156 0.89154 0.19243 0.0
H760 H 0.61243 0.9242 0.20537 0.0
H761 H 0.55814 0.87568 0.22703 0.0
H762 H 0.56141 0.8985 0.16231 0.0
C763 C 0.66323 0.90756 1.01218 0.0
C764 C 0.49006 0.84977 0.8993 0.0
H765 H 0.47329 0.89874 0.81054 0.0
H766 H 0.59415 0.90143 0.69703 0.0
H767 H 0.59063 0.93747 0.64545 0.0
H768 H 0.6188 0.96325 0.70564 0.0
C769 C 0.58926 0.93154 0.68883 0.0
C770 C 0.62802 0.90732 0.83049 0.0
C771 C 0.54003 0.80071 0.98023 0.0
H772 H 0.46183 0.94454 0.73324 0.0
H773 H 0.64626 0.79805 0.17439 0.0
C774 C 0.14236 0.15695 0.81927 0.0
C775 C 0.13397 0.15644 0.76372 0.0
H776 H 0.16879 0.13376 0.88434 0.0
C777 C 0.14738 0.13069 0.73157 0.0
H778 H 0.13189 0.17569 0.8458 0.0
C779 C 0.16931 0.10747 0.75366 0.0
C780 C 0.17782 0.10772 0.80913 0.0
H781 H 0.14172 0.12913 0.68895 0.0
H782 H 0.17955 0.08892 0.72663 0.0
C783 C 0.16329 0.13251 0.84171 0.0
C784 C 0.94369 0.06108 0.7997 0.0
C785 C 0.99146 0.08388 0.81215 0.0
H786 H 0.8849 1.00193 0.76416 0.0
C787 C 1.01651 0.06252 0.79362 0.0
H788 H 0.92311 0.07669 0.8111 0.0
C789 C 0.99503 1.02083 0.76355 0.0
C790 C 0.94705 0.99746 0.75216 0.0
H791 H 1.05338 0.07897 0.8006 0.0
H792 H 1.01624 1.00681 0.74966 0.0
C793 C 0.92189 1.0185 0.7713 0.0
C794 C 1.05241 0.95087 0.82919 0.0
C795 C 1.01346 0.92885 0.79591 0.0
H796 H 0.12673 0.98547 0.83532 0.0
C797 C 1.0219 0.92815 0.74054 0.0
H798 H 1.04782 0.95176 0.87182 0.0
C799 C 0.06732 0.94939 0.71909 0.0
C800 C 0.10621 0.97031 0.7525 0.0
H801 H 0.99306 0.91147 0.71327 0.0
H802 H 0.0719 0.94807 0.67652 0.0
C803 C 0.09786 0.97035 0.80795 0.0
C804 C 0.98406 0.92988 0.23203 0.0
C805 C 0.98816 0.92623 0.28795 0.0
H806 H 0.96016 0.95561 0.16708 0.0
C807 C 0.96971 0.94706 0.3209 0.0
H808 H 0.99822 0.91476 0.20504 0.0
C809 C 0.94692 0.96942 0.29888 0.0
C810 C 0.94293 0.97342 0.24313 0.0
H811 H 0.97175 0.94505 0.36382 0.0
H812 H 0.93181 0.98331 0.32607 0.0
C813 C 0.96259 0.95378 0.20996 0.0
C814 C 0.20353 0.06693 0.27012 0.0
C815 C 0.17929 0.0858 0.29691 0.0
H816 H 0.20007 1.00979 0.22573 0.0
C817 C 0.13047 0.06017 0.29495 0.0
H818 H 0.24108 0.08528 0.27054 0.0
C819 C 0.10698 1.01769 0.26698 0.0
C820 C 0.13112 0.99855 0.2406 0.0
H821 H 0.11026 0.07336 0.31413 0.0
H822 H 0.06969 0.99955 0.26689 0.0
C823 C 0.17996 1.02381 0.24346 0.0
C824 C 0.06554 0.13382 0.22454 0.0
C825 C 0.10495 0.15531 0.25721 0.0
H826 H 0.99143 0.09545 0.21925 0.0
C827 C 0.0968 0.15121 0.3132 0.0
H828 H 0.06955 0.13586 0.1816 0.0
C829 C 1.05131 0.12634 0.3354 0.0
C830 C 1.01186 0.1058 0.3025 0.0
H831 H 0.12589 0.16683 0.3403 0.0
H832 H 1.0471 0.12406 0.3783 0.0
C833 C 1.02025 0.11032 0.24663 0.0
C834 C 0.82658 0.46809 0.16543 0.0
C835 C 0.84525 0.44846 0.13065 0.0
H836 H 0.79018 0.50603 0.17406 0.0
C837 C 0.83916 0.45237 0.07519 0.0
H838 H 0.82995 0.46586 0.20811 0.0
C839 C 0.8157 0.47501 0.05535 0.0
C840 C 0.79777 0.49535 0.09006 0.0
H841 H 0.85229 0.43742 0.04655 0.0
H842 H 0.81214 0.47702 1.01268 0.0
C843 C 0.80367 0.49133 0.14553 0.0
C844 C 0.62919 0.38244 0.16888 0.0
C845 C 0.64992 0.42208 0.13591 0.0
H846 H 0.59014 0.30804 0.17401 0.0
C847 C 0.64749 0.41468 0.08011 0.0
H848 H 0.63015 0.38617 0.21177 0.0
C849 C 0.62478 0.36964 0.0581 0.0
C850 C 0.60301 0.33 0.09099 0.0
H851 H 0.6635 0.444 0.053 0.0
H852 H 0.6238 0.36597 1.01519 0.0
C853 C 0.60592 0.33737 0.14685 0.0
C854 C 0.76326 0.29796 0.13539 0.0
C855 C 0.7705 0.30157 0.07946 0.0
H856 H 0.71466 0.27356 0.20099 0.0
C857 C 0.73096 0.28312 0.04692 0.0
H858 H 0.79265 0.31226 0.16213 0.0
C859 C 0.68593 0.26052 0.06958 0.0
C860 C 0.67873 0.25606 0.12556 0.0
H861 H 0.73471 0.28509 1.00395 0.0
H862 H 0.65649 0.24628 0.0429 0.0
C863 C 0.71832 0.2759 0.15802 0.0
C864 C 0.60833 0.29246 0.64452 0.0
C865 C 0.60608 0.29818 0.58866 0.0
H866 H 0.63352 0.268 0.70944 0.0
C867 C 0.62906 0.28178 0.55584 0.0
H868 H 0.59156 0.30486 0.67161 0.0
C869 C 0.65262 0.26005 0.57774 0.0
C870 C 0.65494 0.25418 0.63356 0.0
H871 H 0.62857 0.28536 0.51296 0.0
H872 H 0.66967 0.24819 0.55035 0.0
C873 C 0.63259 0.27127 0.66657 0.0
C874 C 0.84766 0.41591 0.57199 0.0
C875 C 0.8458 0.42312 0.62739 0.0
H876 H 0.82904 0.36714 0.50738 0.0
C877 C 0.82131 0.38358 0.6598 0.0
H878 H 0.86612 0.44533 0.54545 0.0
C879 C 0.80102 0.3386 0.63791 0.0
C880 C 0.80322 0.33132 0.5826 0.0
H881 H 0.81913 0.38729 0.70239 0.0
H882 H 0.78368 0.30919 0.66474 0.0
C883 C 0.82621 0.3709 0.54985 0.0
C884 C 0.76495 0.4777 0.6391 0.0
C885 C 0.77533 0.48733 0.58423 0.0
H886 H 0.71345 0.45053 0.70174 0.0
C887 C 0.73715 0.47278 0.54975 0.0
H888 H 0.79265 0.48779 0.66735 0.0
C889 C 0.69103 0.45178 0.56983 0.0
C890 C 0.68099 0.44355 0.62515 0.0
H891 H 0.74284 0.47867 0.50727 0.0
H892 H 0.66305 0.44207 0.54167 0.0
C893 C 0.719 0.45625 0.65918 0.0
C894 C 0.49197 0.80751 0.49766 0.0
C895 C 0.51475 0.7903 0.46586 0.0
H896 H 0.45246 0.84249 0.50056 0.0
C897 C 0.51258 0.79466 0.40983 0.0
H898 H 0.49237 0.8047 0.54065 0.0
C899 C 0.48906 0.81585 0.38639 0.0
C900 C 0.46743 0.8343 0.41821 0.0
H901 H 0.52891 0.78122 0.38365 0.0
H902 H 0.48843 0.81832 0.34338 0.0
C903 C 0.4693 0.82959 0.4743 0.0
C904 C 0.2718 0.72703 0.44711 0.0
C905 C 0.32025 0.75493 0.45247 0.0
H906 H 0.21413 0.66272 0.41992 0.0
C907 C 0.34757 0.73833 0.42801 0.0
H908 H 0.24925 0.73867 0.46364 0.0
C909 C 0.32743 0.69548 0.40022 0.0
C910 C 0.27886 0.66661 0.39694 0.0
H911 H 0.38482 0.75853 0.43004 0.0
H912 H 0.35006 0.68437 0.38286 0.0
C913 C 0.25162 0.68354 0.42097 0.0
C914 C 0.38597 0.6393 0.47645 0.0
C915 C 0.34851 0.60897 0.44456 0.0
H916 H 0.45929 0.68295 0.48367 0.0
C917 C 0.35892 0.60306 0.39122 0.0
H918 H 0.38004 0.64486 0.51753 0.0
C919 C 0.40497 0.62694 0.37055 0.0
C920 C 0.4426 0.65624 0.40321 0.0
H921 H 0.33121 0.58014 0.36503 0.0
H922 H 0.41118 0.62122 0.32966 0.0
C923 C 0.43186 0.66155 0.45654 0.0
C924 C 0.32318 0.59741 0.90646 0.0
C925 C 0.33142 0.5949 0.96154 0.0
H926 H 0.29509 0.62184 0.84476 0.0
C927 C 0.31831 0.61938 0.99634 0.0
H928 H 0.33366 0.5802 0.87783 0.0
C929 C 0.29607 0.64347 0.97703 0.0
C930 C 0.28611 0.64449 0.9222 0.0
H931 H 0.32393 0.61884 0.03877 0.0
H932 H 0.2852 0.66009 1.00581 0.0
C933 C 0.3013 0.62187 0.88712 0.0
C934 C 0.45925 0.66848 0.96373 0.0
C935 C 0.46195 0.66092 0.90861 0.0
H936 H 0.48 0.71628 0.02939 0.0
C937 C 0.48899 0.70066 0.87711 0.0
H938 H 0.43984 0.63947 0.99003 0.0
C939 C 0.51381 0.74536 0.90043 0.0
C940 C 0.51212 0.75242 0.9561 0.0
H941 H 0.49238 0.69715 0.83471 0.0
H942 H 0.53472 0.77461 0.87448 0.0
C943 C 0.48318 0.71303 0.98688 0.0
C944 C 0.40139 0.80503 0.89078 0.0
C945 C 0.44138 0.82262 0.92248 0.0
H946 H 0.32704 0.77099 0.88807 0.0
C947 C 0.43461 0.81551 0.97837 0.0
H948 H 0.40461 0.80959 0.84792 0.0
C949 C 0.38974 0.7922 1.00165 0.0
C950 C 0.34981 0.77622 0.97006 0.0
H951 H 0.4643 0.82833 1.00454 0.0
H952 H 0.38648 0.78811 0.04452 0.0
C953 C 0.35663 0.78288 0.91417 0.0
C954 C 0.35535 0.14494 0.62764 0.0
C955 C 0.31984 0.12832 0.66604 0.0
H956 H 0.37615 0.17537 0.55033 0.0
C957 C 0.29135 0.14852 0.66775 0.0
H958 H 0.37918 0.1316 0.62635 0.0
C959 C 0.28636 0.16942 0.62192 0.0
C960 C 0.31455 0.17619 0.57718 0.0
H961 H 0.26514 0.13869 0.69852 0.0
H962 H 0.25557 0.17241 0.6193 0.0
C963 C 0.35294 0.16941 0.58343 0.0
C964 C 0.96993 0.10135 0.68255 0.0
C965 C 0.97137 0.14395 0.67893 0.0
H966 H 0.94907 0.03681 0.64477 0.0
C967 C 0.93913 0.1479 0.64712 0.0
H968 H 0.9961 0.0985 0.70498 0.0
C969 C 0.91711 0.11548 0.60718 0.0
C970 C 0.92343 0.07664 0.60351 0.0
H971 H 0.93976 0.18076 0.6442 0.0
H972 H 0.90195 0.12543 0.57554 0.0
C973 C 0.94461 0.06691 0.64588 0.0
C974 C 0.86436 0.74672 0.61061 0.0
C975 C 0.88763 0.78067 0.64962 0.0
H976 H 0.86747 0.72606 0.53081 0.0
C977 C 0.93634 0.80569 0.64774 0.0
H978 H 0.8269 0.72533 0.61201 0.0
C979 C 0.95894 0.80959 0.59952 0.0
C980 C 0.9337 0.7839 0.55496 0.0
H981 H 0.95586 0.83043 0.67859 0.0
H982 H 0.99434 0.83729 0.59626 0.0
C983 C 0.88749 0.74832 0.56328 0.0
C984 C 0.18331 0.34099 0.91884 0.0
C985 C 0.16616 0.30765 0.87827 0.0
H986 H 0.19522 0.34554 1.003 0.0
C987 C 0.18864 0.28149 0.87331 0.0
H988 H 0.17265 0.36691 0.92035 0.0
C989 C 0.20057 0.26728 0.92053 0.0
C990 C 0.19967 0.288 0.96895 0.0
H991 H 0.18357 0.26116 0.83783 0.0
H992 H 0.20388 0.23653 0.91978 0.0
C993 C 0.19579 0.32836 0.96679 0.0
C994 C 0.78713 0.93743 0.94266 0.0
C995 C 0.82605 0.97943 0.95762 0.0
H996 H 0.76713 0.87364 0.90257 0.0
C997 C 0.86298 1.00134 0.92147 0.0
H998 H 0.75722 0.92097 0.96881 0.0
C999 C 0.86961 0.97393 0.88514 0.0
C1000 C 0.83694 0.92677 0.88217 0.0
H1001 H 0.89294 1.03439 0.93119 0.0
H1002 H 0.90432 0.98664 0.86982 0.0
C1003 C 0.79303 0.91007 0.90509 0.0
C1004 C 0.2288 0.90343 0.91103 0.0
C1005 C 0.21456 0.92514 0.87334 0.0
H1006 H 0.21906 0.88302 0.9934 0.0
C1007 C 0.1662 0.90539 0.86828 0.0
H1008 H 0.26464 0.91142 0.91158 0.0
C1009 C 0.13997 0.89179 0.91549 0.0
C1010 C 0.1608 0.88822 0.96276 0.0
H1011 H 0.1521 0.91455 0.83446 0.0
H1012 H 0.1073 0.89151 0.91626 0.0
C1013 C 0.20293 0.88781 0.95842 0.0
C1014 C 0.77707 0.88952 0.45888 0.0
C1015 C 0.82156 0.8944 0.46318 0.0
H1016 H 0.73389 0.90621 0.41204 0.0
C1017 C 0.84658 0.8996 0.41591 0.0
H1018 H 0.75614 0.88393 0.49409 0.0
C1019 C 0.8312 0.9093 0.36802 0.0
C1020 C 0.79786 0.92356 0.37122 0.0
H1021 H 0.88046 0.9025 0.41681 0.0
H1022 H 0.85376 0.91881 0.33357 0.0
C1023 C 0.76366 0.90114 0.4109 0.0
C1024 C 0.17637 0.97866 0.38123 0.0
C1025 C 0.15961 0.9322 0.36803 0.0
H1026 H 0.20348 1.02618 0.44573 0.0
C1027 C 0.18272 0.90984 0.38834 0.0
H1028 H 0.16085 0.99753 0.36366 0.0
C1029 C 0.20591 0.9252 0.4367 0.0
C1030 C 0.20936 0.965 0.45995 0.0
H1031 H 0.17253 0.87489 0.37588 0.0
H1032 H 0.21407 0.9025 0.45963 0.0
C1033 C 0.2003 0.99481 0.42887 0.0
C1034 C 0.19184 0.2765 0.4079 0.0
C1035 C 0.24049 0.30068 0.40508 0.0
H1036 H 0.13466 0.24431 0.46056 0.0
C1037 C 0.26504 0.33318 0.44512 0.0
H1038 H 0.17145 0.25288 0.3765 0.0
C1039 C 0.24305 0.33039 0.49369 0.0
C1040 C 0.19647 0.29585 0.50172 0.0
H1041 H 0.30255 0.35386 0.44309 0.0
H1042 H 0.2638 0.35116 0.52671 0.0
C1043 C 0.17027 0.27157 0.45702 0.0
C1044 C 0.95268 0.80905 0.14289 0.0
C1045 C 0.97576 0.78327 0.1438 0.0
H1046 H 0.92456 0.8403 0.09288 0.0
C1047 C 0.96511 0.74998 0.10387 0.0
H1048 H 0.95815 0.83356 0.17415 0.0
C1049 C 0.94286 0.75185 0.05742 0.0
C1050 C 0.93131 0.78697 0.05077 0.0
H1051 H 0.98112 0.72846 0.10423 0.0
H1052 H 0.94044 0.7301 0.02423 0.0
C1053 C 0.93276 0.81278 0.09564 0.0
C1054 C 0.29233 0.15806 0.17439 0.0
C1055 C 0.31144 0.20227 0.15025 0.0
H1056 H 0.24947 0.08497 0.15995 0.0
C1057 C 0.32685 0.20661 0.09715 0.0
H1058 H 0.28418 0.15374 0.21645 0.0
C1059 C 0.30786 0.16726 0.065 0.0
C1060 C 0.27625 0.12388 0.087 0.0
H1061 H 0.34479 0.24035 0.07792 0.0
H1062 H 0.31281 0.17143 1.02223 0.0
C1063 C 0.27203 0.11866 0.1423 0.0
C1064 C 0.98617 0.17608 0.15108 0.0
C1065 C 0.97826 0.18125 0.09748 0.0
H1066 H 0.95512 0.15099 0.22714 0.0
C1067 C 0.9365 0.17942 0.08326 0.0
H1068 H 1.01907 0.17986 0.16343 0.0
C1069 C 0.89917 0.16081 0.11913 0.0
C1070 C 0.90383 0.14242 0.16783 0.0
H1071 H 0.93032 0.18475 0.04221 0.0
H1072 H 0.86504 0.15129 0.10404 0.0
C1073 C 0.94936 0.15986 0.18741 0.0
C1074 C 0.96391 0.48284 0.98404 0.0
C1075 C 0.98772 0.45781 0.98327 0.0
H1076 H 0.93187 0.51055 0.93491 0.0
C1077 C 1.02137 0.46892 0.94331 0.0
H1078 H 0.94006 0.4779 1.01622 0.0
C1079 C 1.0189 0.4907 0.89661 0.0
C1080 C 0.98336 0.50177 0.89064 0.0
H1081 H 1.04241 0.45237 0.94308 0.0
H1082 H 1.04014 0.49264 0.86286 0.0
C1083 C 0.95918 0.50202 0.93659 0.0
C1084 C 0.59832 0.47828 0.94753 0.0
C1085 C 0.59688 0.5009 0.90079 0.0
H1086 H 0.62243 0.48588 0.02709 0.0
C1087 C 0.60692 0.54722 0.90433 0.0
H1088 H 0.59239 0.44327 0.94663 0.0
C1089 C 0.62821 0.57297 0.94997 0.0
C1090 C 0.63973 0.55221 0.99163 0.0
H1091 H 0.60523 0.56532 0.8692 0.0
H1092 H 0.64378 0.61036 0.94792 0.0
C1093 C 0.61671 0.50348 0.99405 0.0
C1094 C 0.58845 0.13035 0.89248 0.0
C1095 C 0.63245 0.15915 0.91428 0.0
H1096 H 0.51548 0.09605 0.90679 0.0
C1097 C 0.63806 0.16094 0.9695 0.0
H1098 H 0.58403 0.12717 0.84966 0.0
C1099 C 0.5988 0.14122 1.00235 0.0
C1100 C 0.55465 0.12491 0.97928 0.0
H1101 H 0.67218 0.18136 0.98682 0.0
H1102 H 0.60383 0.14795 0.04467 0.0
C1103 C 0.54932 0.11178 0.92541 0.0
C1104 C 0.83573 0.61781 0.22463 0.0
C1105 C 0.8077 0.63758 0.23577 0.0
H1106 H 0.87043 0.58568 0.26131 0.0
C1107 C 0.8192 0.66679 0.28003 0.0
H1108 H 0.83037 0.59778 0.18878 0.0
C1109 C 0.8455 0.66262 0.32072 0.0
C1110 C 0.85984 0.62936 0.31668 0.0
H1111 H 0.80013 0.68466 0.28843 0.0
H1112 H 0.84653 0.67821 0.35885 0.0
C1113 C 0.85967 0.61125 0.26633 0.0
C1114 C 0.48177 0.25858 0.26616 0.0
C1115 C 0.464 0.23709 0.31576 0.0
H1116 H 0.49254 0.24898 0.18507 0.0
C1117 C 0.43156 0.18918 0.31649 0.0
H1118 H 0.50812 0.29463 0.26294 0.0
C1119 C 0.42763 0.16227 0.27214 0.0
C1120 C 0.45701 0.18393 0.22838 0.0
H1121 H 0.41584 0.17164 0.35364 0.0
H1122 H 0.411 0.125 0.27726 0.0
C1123 C 0.47345 0.23151 0.22092 0.0
C1124 C 0.88581 0.23688 0.2915 0.0
C1125 C 0.84149 0.2317 0.29941 0.0
H1126 H 0.94542 0.26574 0.24056 0.0
C1127 C 0.81681 0.23279 0.25444 0.0
H1128 H 0.90502 0.23438 0.32494 0.0
C1129 C 0.84005 0.24843 0.20552 0.0
C1130 C 0.88882 0.27107 0.20582 0.0
H1131 H 0.78238 0.22833 0.25844 0.0
H1132 H 0.82232 0.25547 0.17378 0.0
C1133 C 0.90859 0.25387 0.24252 0.0
C1134 C 0.42751 0.28648 0.7675 0.0
C1135 C 0.45886 0.29478 0.72569 0.0
H1136 H 0.41065 0.26288 0.84822 0.0
C1137 C 0.47739 0.26506 0.72133 0.0
H1138 H 0.41009 0.30661 0.7704 0.0
C1139 C 0.48294 0.24529 0.76776 0.0
C1140 C 0.46181 0.24751 0.81537 0.0
H1141 H 0.49879 0.26769 0.68737 0.0
H1142 H 0.50962 0.23577 0.76749 0.0
C1143 C 0.42893 0.26245 0.81265 0.0
C1144 C 0.87332 0.22696 0.79161 0.0
C1145 C 0.87541 0.27024 0.79572 0.0
H1146 H 0.84696 0.16525 0.74521 0.0
C1147 C 0.87354 0.29217 0.74838 0.0
H1148 H 0.87679 0.20995 0.82674 0.0
C1149 C 0.85933 0.26642 0.70125 0.0
C1150 C 0.83731 0.21792 0.70645 0.0
H1151 H 0.87554 0.32563 0.74903 0.0
H1152 H 0.85159 0.28176 0.66744 0.0
C1153 C 0.85698 0.20163 0.74434 0.0
C1154 C 0.79167 0.58568 0.76582 0.0
C1155 C 0.82315 0.61747 0.80255 0.0
H1156 H 0.78463 0.5528 0.69173 0.0
C1157 C 0.86742 0.65112 0.78473 0.0
H1158 H 0.75727 0.55905 0.77792 0.0
C1159 C 0.88316 0.64536 0.73534 0.0
C1160 C 0.85553 0.60393 0.70784 0.0
H1161 H 0.8918 0.67686 0.81197 0.0
H1162 H 0.91997 0.66584 0.72669 0.0
C1163 C 0.80767 0.5816 0.71619 0.0
C1164 C 0.61556 0.0837 0.40658 0.0
C1165 C 0.60302 0.11833 0.40339 0.0
H1166 H 0.65683 0.06112 0.44842 0.0
C1167 C 0.60422 0.14195 0.45011 0.0
H1168 H 0.61389 0.06406 0.37155 0.0
C1169 C 0.62489 0.13671 0.49587 0.0
C1170 C 0.65064 0.11369 0.49214 0.0
H1171 H 0.59643 0.16984 0.44954 0.0
H1172 H 0.6303 0.15991 0.52868 0.0
C1173 C 0.63934 0.08119 0.45121 0.0
C1174 C 1.00564 0.55342 0.43023 0.0
C1175 C 0.98819 0.54414 0.48272 0.0
H1176 H 0.99383 0.52528 0.35133 0.0
C1177 C 0.96917 0.49814 0.50165 0.0
H1178 H 1.02371 0.58871 0.4151 0.0
C1179 C 0.95003 0.46192 0.46503 0.0
C1180 C 0.95568 0.47223 0.41056 0.0
H1181 H 0.95924 0.4898 0.54312 0.0
H1182 H 0.92686 0.42685 0.47879 0.0
C1183 C 0.98777 0.51728 0.39349 0.0
C1184 C 0.58331 0.48436 0.49922 0.0
C1185 C 0.53634 0.4522 0.48987 0.0
H1186 H 0.64761 0.52109 0.45859 0.0
C1187 C 0.51436 0.46191 0.44817 0.0
H1188 H 0.60069 0.48068 0.53385 0.0
C1189 C 0.54159 0.49025 0.40624 0.0
C1190 C 0.58984 0.50727 0.40662 0.0
H1191 H 0.4774 0.44001 0.4419 0.0
H1192 H 0.52452 0.49052 0.36961 0.0
C1193 C 0.6109 0.50894 0.45572 0.0
C1194 C 0.69912 0.85223 0.30866 0.0
C1195 C 0.66319 0.83142 0.34668 0.0
H1196 H 0.71001 0.86682 0.22509 0.0
C1197 C 0.63193 0.84832 0.34636 0.0
H1198 H 0.72822 0.84616 0.31079 0.0
C1199 C 0.61809 0.85633 0.29643 0.0
C1200 C 0.64379 0.85836 0.25071 0.0
H1201 H 0.609 0.84136 0.38005 0.0
H1202 H 0.58488 0.85455 0.29377 0.0
C1203 C 0.68788 0.86277 0.25861 0.0
C1204 C 0.27803 0.84021 0.33391 0.0
C1205 C 0.30594 0.88472 0.31134 0.0
H1206 H 0.24976 0.76765 0.31751 0.0
C1207 C 0.29712 0.89089 0.258 0.0
H1208 H 0.27962 0.83462 0.37623 0.0
C1209 C 0.27934 0.85262 0.22426 0.0
C1210 C 0.2667 0.8087 0.2454 0.0
H1211 H 0.31441 0.92516 0.24002 0.0
H1212 H 0.28207 0.85821 0.18154 0.0
C1213 C 0.2613 0.8017 0.30052 0.0
C1214 C 0.22545 0.41048 0.22611 0.0
C1215 C 0.27129 0.44562 0.21532 0.0
H1216 H 0.16618 0.38915 0.27661 0.0
C1217 C 0.29723 0.47503 0.25727 0.0
H1218 H 0.20492 0.38632 0.19527 0.0
C1219 C 0.27569 0.47435 0.30532 0.0
C1220 C 0.22718 0.44761 0.30989 0.0
H1221 H 0.33238 0.50282 0.25115 0.0
H1222 H 0.2955 0.50156 0.33362 0.0
C1223 C 0.20349 0.41124 0.27349 0.0
C1224 C 0.48287 1.00156 0.60101 0.0
C1225 C 0.47232 0.97039 0.55881 0.0
H1226 H 0.50875 1.01732 0.68057 0.0
C1227 C 0.49926 0.94878 0.5531 0.0
H1228 H 0.4644 1.02056 0.60533 0.0
C1229 C 0.52057 0.943 0.59797 0.0
C1230 C 0.52097 0.96483 0.64587 0.0
H1231 H 0.49447 0.92688 0.51915 0.0
H1232 H 0.52938 0.91582 0.5969 0.0
C1233 C 0.50752 0.99886 0.64463 0.0
C1234 C 0.18357 0.63639 0.55038 0.0
C1235 C 0.15934 0.58855 0.54218 0.0
H1236 H 0.2121 0.68666 0.61146 0.0
C1237 C 0.12151 0.56081 0.57542 0.0
H1238 H 0.21148 0.6587 0.52364 0.0
C1239 C 0.12079 0.57674 0.62645 0.0
C1240 C 0.15578 0.62117 0.64112 0.0
H1241 H 0.10036 0.52398 0.56784 0.0
H1242 H 0.098 0.55239 0.65631 0.0
C1243 C 0.18415 0.65244 0.60143 0.0
C1244 C 0.48227 0.57529 0.57967 0.0
C1245 C 0.50359 0.57164 0.6263 0.0
H1246 H 0.4937 0.60343 0.50112 0.0
C1247 C 0.54834 0.57719 0.62221 0.0
H1248 H 0.44765 0.57065 0.58096 0.0
C1249 C 0.57473 0.59675 0.57599 0.0
C1250 C 0.55766 0.6156 0.53799 0.0
H1251 H 0.56527 0.57351 0.65712 0.0
H1252 H 0.61161 0.60887 0.57771 0.0
C1253 C 0.50904 0.59404 0.5335 0.0
C1254 C 0.12341 0.58399 0.05727 0.0
C1255 C 0.16345 0.60223 0.02537 0.0
H1256 H 0.10092 0.5598 0.13721 0.0
C1257 C 0.18492 0.57519 0.02332 0.0
H1258 H 0.10034 0.59815 0.05428 0.0
C1259 C 0.18843 0.55565 0.07127 0.0
C1260 C 0.16164 0.55518 0.11511 0.0
H1261 H 0.20881 0.5803 0.99145 0.0
H1262 H 0.21717 0.54937 0.07586 0.0
C1263 C 0.12398 0.56243 0.10514 0.0
C1264 C 0.51987 0.62894 0.03091 0.0
C1265 C 0.50068 0.58407 0.05218 0.0
H1266 H 0.54678 0.70062 0.05172 0.0
C1267 C 0.5168 0.57829 0.10148 0.0
H1268 H 0.51245 0.63392 0.99036 0.0
C1269 C 0.53544 0.61528 0.13654 0.0
C1270 C 0.54244 0.65874 0.11986 0.0
H1271 H 0.50445 0.54375 0.11758 0.0
H1272 H 0.53814 0.60816 0.17807 0.0
C1273 C 0.53884 0.66661 0.06571 0.0
C1274 C 0.52569 0.94748 0.0507 0.0
C1275 C 0.5741 0.96871 0.05687 0.0
H1276 H 0.46284 0.9184 0.09433 0.0
C1277 C 0.59503 1.00283 0.09602 0.0
H1278 H 0.50835 0.92296 1.01889 0.0
C1279 C 0.56774 1.00437 0.13748 0.0
C1280 C 0.52029 0.97056 0.14047 0.0
H1281 H 0.63243 1.02148 0.10041 0.0
H1282 H 0.58513 1.02541 0.17182 0.0
C1283 C 0.49874 0.94556 0.09421 0.0
C1284 C 0.2988 0.42592 0.7542 0.0
C1285 C 0.31043 0.45739 0.79653 0.0
H1286 H 0.27912 0.41296 0.67199 0.0
C1287 C 0.29432 0.48927 0.7946 0.0
H1288 H 0.30985 0.40027 0.75485 0.0
C1289 C 0.28003 0.49875 0.74627 0.0
C1290 C 0.27715 0.47329 0.70057 0.0
H1291 H 0.30097 0.51299 0.82706 0.0
H1292 H 0.27655 0.52933 0.74376 0.0
C1293 C 0.28241 0.43403 0.70625 0.0
C1294 C 0.6401 0.84052 0.83373 0.0
C1295 C 0.65565 0.88563 0.81358 0.0
H1296 H 0.599 0.76845 0.81316 0.0
C1297 C 0.67213 0.89455 0.76073 0.0
H1298 H 0.63189 0.83296 0.87567 0.0
C1299 C 0.65383 0.85776 0.72484 0.0
C1300 C 0.62345 0.81272 0.74351 0.0
H1301 H 0.68845 0.92952 0.74472 0.0
H1302 H 0.65796 0.86506 0.68244 0.0
C1303 C 0.62057 0.80344 0.79819 0.0
C1304 C 0.27579 0.82574 0.83283 0.0
C1305 C 0.22712 0.80371 0.83358 0.0
H1306 H 0.33256 0.84401 0.78111 0.0
C1307 C 0.20557 0.81603 0.7937 0.0
H1308 H 0.29415 0.82009 0.86498 0.0
C1309 C 0.2294 0.83509 0.74593 0.0
C1310 C 0.27467 0.84243 0.73886 0.0
H1311 H 0.16831 0.80187 0.7945 0.0
H1312 H 0.21005 0.83683 0.71228 0.0
C1313 C 0.29879 0.84099 0.78414 0.0
C1314 C 0.32516 0.9842 0.63253 0.0
C1315 C 0.28241 0.9549 0.65928 0.0
H1316 H 0.37014 0.99605 0.56401 0.0
C1317 C 0.25197 0.91415 0.63089 0.0
H1318 H 0.3494 1.01715 0.65014 0.0
C1319 C 0.26374 0.90209 0.58123 0.0
C1320 C 0.3061 0.93086 0.55421 0.0
H1321 H 0.21751 0.89153 0.64668 0.0
H1322 H 0.23921 0.86908 0.56392 0.0
C1323 C 0.3365 0.97272 0.58133 0.0
C1324 C 0.09631 0.3706 0.63692 0.0
C1325 C 0.12564 0.35626 0.66106 0.0
H1326 H 0.08461 0.40773 0.57372 0.0
C1327 C 0.16738 0.36906 0.63251 0.0
H1328 H 0.06261 0.35977 0.65452 0.0
C1329 C 0.17911 0.39493 0.58363 0.0
C1330 C 0.1491 0.40836 0.55921 0.0
H1331 H 0.19025 0.35693 0.64672 0.0
H1332 H 0.21263 0.40563 0.56566 0.0
C1333 C 0.10783 0.39607 0.58816 0.0
C1334 C 0.71264 0.83747 0.58807 0.0
C1335 C 0.7024 0.79741 0.55823 0.0
H1336 H 0.74882 0.88272 0.65371 0.0
C1337 C 0.72167 0.77071 0.57822 0.0
H1338 H 0.69745 0.85838 0.57628 0.0
C1339 C 0.74809 0.78269 0.62643 0.0
C1340 C 0.75802 0.82283 0.65616 0.0
H1341 H 0.7131 0.73831 0.55908 0.0
H1342 H 0.76136 0.76058 0.63997 0.0
C1343 C 0.74067 0.85047 0.63445 0.0
C1344 C 0.98932 0.31954 0.96272 0.0
C1345 C 0.94825 0.28864 0.99092 0.0
H1346 H 1.03598 0.33072 0.89679 0.0
C1347 C 0.92126 0.24448 0.9675 0.0
H1348 H 1.01097 0.3544 0.97739 0.0
C1349 C 0.93596 0.23065 0.92137 0.0
C1350 C 0.97712 0.2611 0.89328 0.0
H1351 H 0.88826 0.21999 0.98544 0.0
H1352 H 0.91578 0.19489 0.90882 0.0
C1353 C 1.00281 0.30647 0.91454 0.0
C1354 C 0.83754 0.69058 0.96111 0.0
C1355 C 0.80284 0.68189 1.0002 0.0
H1356 H 0.87188 0.72375 0.88692 0.0
C1357 C 0.77298 0.69924 0.98755 0.0
H1358 H 0.86119 0.67758 0.96794 0.0
C1359 C 0.77758 0.72353 0.93883 0.0
C1360 C 0.81269 0.73289 0.89989 0.0
H1361 H 0.74482 0.69264 1.01447 0.0
H1362 H 0.75472 0.73763 0.93281 0.0
C1363 C 0.84269 0.71571 0.9128 0.0
C1364 C 0.37459 0.15885 0.92261 0.0
C1365 C 0.36244 0.11517 0.90087 0.0
H1366 H 0.41107 0.21025 0.98286 0.0
C1367 C 0.37891 0.08921 0.92942 0.0
H1368 H 0.36109 0.17937 0.9046 0.0
C1369 C 0.40508 0.10561 0.97749 0.0
C1370 C 0.41699 0.14939 0.99905 0.0
H1371 H 0.36853 0.05432 0.91665 0.0
H1372 H 0.41685 0.08428 0.99714 0.0
C1373 C 0.40185 0.17582 0.96943 0.0
C1374 C 0.79576 0.08953 0.43301 0.0
C1375 C 0.83709 0.11599 0.4027 0.0
H1376 H 0.75366 0.08488 0.50155 0.0
C1377 C 0.8679 0.1605 0.42279 0.0
H1378 H 0.7719 0.05414 0.42144 0.0
C1379 C 0.85766 0.17796 0.46942 0.0
C1380 C 0.81707 0.15127 0.50065 0.0
H1381 H 0.90115 0.18152 0.40336 0.0
H1382 H 0.88195 0.21319 0.48116 0.0
C1383 C 0.78613 0.1065 0.48088 0.0
C1384 C 0.94957 0.71326 0.40834 0.0
C1385 C 0.9967 0.73078 0.39512 0.0
H1386 H 0.8928 0.67301 0.46256 0.0
C1387 C 1.02248 0.72001 0.43221 0.0
H1388 H 0.92883 0.72293 0.38407 0.0
C1389 C 1.00265 0.69388 0.47974 0.0
C1390 C 0.9555 0.67631 0.49267 0.0
H1391 H 0.05945 0.73459 0.426 0.0
H1392 H 1.02415 0.68641 0.50569 0.0
C1393 C 0.92941 0.68618 0.45526 0.0
C1394 C 0.40696 0.24772 0.46359 0.0
C1395 C 0.41854 0.289 0.49147 0.0
H1396 H 0.372 0.20179 0.39841 0.0
C1397 C 0.40405 0.3181 0.46628 0.0
H1398 H 0.41869 0.22481 0.4788 0.0
C1399 C 0.37945 0.30604 0.41631 0.0
C1400 C 0.36746 0.26394 0.38926 0.0
H1401 H 0.41341 0.35124 0.48393 0.0
H1402 H 0.36844 0.32914 0.39985 0.0
C1403 C 0.38162 0.23526 0.41524 0.0
C1404 C 0.11913 0.78081 0.13918 0.0
C1405 C 0.14775 0.82379 0.16445 0.0
H1406 H 0.11151 0.7334 0.07598 0.0
C1407 C 0.19147 0.85259 0.14044 0.0
H1408 H 0.08466 0.75784 0.15475 0.0
C1409 C 0.20669 0.83869 0.09508 0.0
C1410 C 0.17812 0.79623 0.06913 0.0
H1411 H 0.21415 0.88666 0.15673 0.0
H1412 H 0.24179 0.86106 0.08082 0.0
C1413 C 0.13388 0.76748 0.09234 0.0
C1414 C 0.35508 0.37986 0.09347 0.0
C1415 C 0.33088 0.39162 0.05502 0.0
H1416 H 0.35488 0.34751 0.16879 0.0
C1417 C 0.28406 0.37611 0.06766 0.0
H1418 H 0.39177 0.39243 0.08761 0.0
C1419 C 0.2628 0.35043 0.11528 0.0
C1420 C 0.28757 0.34029 0.15443 0.0
H1421 H 0.26472 0.38683 0.0426 0.0
H1422 H 0.22642 0.33888 0.12192 0.0
C1423 C 0.33437 0.35553 0.14187 0.0
C1424 C 0.71672 0.90454 0.08223 0.0
C1425 C 0.70218 0.93185 0.05369 0.0
H1426 H 0.75517 0.89804 0.1473 0.0
C1427 C 0.71455 0.97533 0.07703 0.0
H1428 H 0.70765 0.87053 0.06741 0.0
C1429 C 0.73976 0.99005 0.12626 0.0
C1430 C 0.7537 0.96204 0.15496 0.0
H1431 H 0.70336 0.99746 0.05824 0.0
H1432 H 0.74988 1.02437 0.14083 0.0
C1433 C 0.74245 0.91955 0.13022 0.0
C1434 C 0.59974 0.57583 0.25573 0.0
C1435 C 0.64193 0.60222 0.22714 0.0
H1436 H 0.55344 0.57288 0.31815 0.0
C1437 C 0.67303 0.64616 0.24879 0.0
H1438 H 0.57526 0.54114 0.24248 0.0
C1439 C 0.66162 0.66314 0.29538 0.0
C1440 C 0.61836 0.63745 0.32243 0.0
H1441 H 0.70661 0.66736 0.23017 0.0
H1442 H 0.68558 0.69818 0.30802 0.0
C1443 C 0.58783 0.59332 0.3011 0.0
C1444 C 0.4576 0.05363 0.24357 0.0
C1445 C 0.50186 0.06776 0.22055 0.0
H1446 H 0.40914 1.01867 0.30884 0.0
C1447 C 0.53087 0.05657 0.25084 0.0
H1448 H 0.43422 0.06256 0.22361 0.0
C1449 C 0.51695 1.03243 0.30008 0.0
C1450 C 0.47332 1.0185 0.32383 0.0
H1451 H 0.56568 0.06764 0.23675 0.0
H1452 H 0.54044 1.02317 0.31919 0.0
C1453 C 0.4438 1.02984 0.29413 0.0
C1454 C 0.07747 0.51632 0.28376 0.0
C1455 C 0.09373 0.48882 0.30867 0.0
H1456 H 1.03338 0.52181 0.22451 0.0
C1457 C 0.08163 0.44645 0.28299 0.0
H1458 H 0.08732 0.55012 0.2999 0.0
C1459 C 1.05344 0.43179 0.23624 0.0
C1460 C 1.03497 0.45821 0.21318 0.0
H1461 H 0.09437 0.42452 0.29871 0.0
H1462 H 1.04286 0.39763 0.22072 0.0
C1463 C 1.04795 0.50092 0.23847 0.0
C1464 C 0.53334 0.50186 0.74079 0.0
C1465 C 0.5042 0.45996 0.71383 0.0
H1466 H 0.54319 0.54859 0.80488 0.0
C1467 C 0.46084 0.4307 0.73916 0.0
H1468 H 0.56782 0.52487 0.72528 0.0
C1469 C 0.44813 0.44281 0.78887 0.0
C1470 C 0.4775 0.48546 0.81496 0.0
H1471 H 0.43746 0.39727 0.72194 0.0
H1472 H 0.41434 0.41937 0.80577 0.0
C1473 C 0.51995 0.51471 0.78859 0.0
C1474 C 0.67966 0.05623 0.75874 0.0
C1475 C 0.65215 0.07032 0.72917 0.0
H1476 H 0.6859 1.01881 0.82658 0.0
C1477 C 0.60694 0.05414 0.74959 0.0
H1478 H 0.71553 0.06957 0.74716 0.0
C1479 C 0.59013 1.02553 0.79597 0.0
C1480 C 0.61805 1.01292 0.82675 0.0
H1481 H 0.58499 0.06566 0.73107 0.0
H1482 H 0.55471 1.01359 0.80843 0.0
C1483 C 0.66326 1.02856 0.80631 0.0
C1484 C 1.05367 0.65949 0.77181 0.0
C1485 C 1.04403 0.62316 0.73506 0.0
H1486 H 0.08577 0.69502 0.8453 0.0
C1487 C 0.06142 0.5937 0.74995 0.0
H1488 H 1.03894 0.68167 0.76467 0.0
C1489 C 0.08754 0.60077 0.79754 0.0
C1490 C 0.09669 0.63677 0.83433 0.0
H1491 H 1.05242 0.5632 0.72643 0.0
H1492 H 0.1007 0.57744 0.80581 0.0
C1493 C 0.07898 0.66605 0.82 0.0
loop_
_geom_bond_atom_site_label_1
_geom_bond_atom_site_label_2
_geom_bond_distance
_geom_bond_site_symmetry_2
_ccdc_geom_bond_type
Co0 N1 2.034 . S
Co0 O15 2.262 1_545 S
Co0 O19 1.958 . S
Co0 O23 1.950 . S
Co0 O24 2.057 1_545 S
N1 Co0 2.034 . S
N1 C2 1.366 . S
N1 C4 1.332 . S
C2 N1 1.366 . S
C2 C5 1.381 . S
C2 H34 0.931 . S
N3 C4 1.346 1_554 S
N3 C5 1.336 1_554 S
C4 N1 1.332 . S
C4 N3 1.346 1_556 S
C4 C38 1.361 . S
C5 C2 1.381 . S
C5 N3 1.336 1_556 S
C5 H41 0.928 1_556 S
Co6 N7 2.034 . S
Co6 O20 1.950 . S
Co6 O21 2.262 1_565 S
Co6 O22 1.958 . S
Co6 O26 2.057 1_565 S
N7 Co6 2.034 . S
N7 C10 1.366 . S
N7 C11 1.332 . S
N8 C9 1.337 . S
N8 C11 1.346 . S
C9 N8 1.337 . S
C9 C10 1.377 . S
C9 H42 0.930 . S
C10 N7 1.366 . S
C10 C9 1.377 . S
C10 H14 0.931 . S
C11 N7 1.332 . S
C11 N8 1.346 . S
C11 C28 1.361 . S
Co12 O15 2.097 1_545 S
Co12 O16 2.065 1_545 S
Co12 O17 2.065 . S
Co12 O18 2.042 . S
Co12 O21 2.097 . S
Co12 O25 2.042 1_545 S
C13 O21 1.253 . S
C13 O26 1.263 . S
H14 C10 0.931 . S
O15 Co0 2.262 1_565 S
O15 Co12 2.097 1_565 S
O15 C39 1.253 . S
O16 Co12 2.065 1_565 S
O16 C32 1.221 . S
O17 Co12 2.065 . S
O17 C27 1.221 . S
O18 Co12 2.042 . S
O18 C33 1.237 . S
O19 Co0 1.958 . S
O19 C33 1.278 . S
O20 Co6 1.950 . S
O20 C32 1.277 . S
O21 Co6 2.262 1_545 S
O21 Co12 2.097 . S
O21 C13 1.253 . S
O22 Co6 1.958 . S
O22 C40 1.278 . S
O23 Co0 1.950 . S
O23 C27 1.277 . S
O24 Co0 2.057 1_565 S
O24 C39 1.263 . S
O25 Co12 2.042 1_565 S
O25 C40 1.237 . S
O26 Co6 2.057 1_545 S
O26 C13 1.263 . S
C27 O17 1.221 . S
C27 O23 1.277 . S
C28 C11 1.361 . S
C28 H29 0.960 . S
C28 H30 0.961 . S
C28 H31 0.961 . S
H29 C28 0.960 . S
H30 C28 0.961 . S
H31 C28 0.961 . S
C32 O16 1.221 . S
C32 O20 1.277 . S
C33 O18 1.237 . S
C33 O19 1.278 . S
H34 C2 0.931 . S
H35 C38 0.961 1_554 S
H36 C38 0.961 . S
H37 C38 0.960 . S
C38 C4 1.361 . S
C38 H35 0.961 1_556 S
C38 H36 0.961 . S
C38 H37 0.960 . S
C39 O15 1.253 . S
C39 O24 1.263 . S
C40 O22 1.278 . S
C40 O25 1.237 . S
H41 C5 0.928 1_554 S
H42 C9 0.930 . S
Co43 N44 2.034 . S
Co43 O58 2.262 1_455 S
Co43 O62 1.958 . S
Co43 O66 1.950 . S
Co43 O67 2.057 1_455 S
N44 Co43 2.034 . S
N44 C45 1.366 . S
N44 C47 1.332 . S
C45 N44 1.366 . S
C45 C48 1.377 . S
C45 H77 0.931 . S
N46 C47 1.346 . S
N46 C48 1.337 . S
C47 N44 1.332 . S
C47 N46 1.346 . S
C47 C81 1.361 . S
C48 C45 1.377 . S
C48 N46 1.337 . S
C48 H84 0.930 . S
Co49 N50 2.034 . S
Co49 O63 1.950 . S
Co49 O64 2.262 1_655 S
Co49 O65 1.958 . S
Co49 O69 2.057 1_655 S
N50 Co49 2.034 . S
N50 C53 1.366 . S
N50 C54 1.332 . S
N51 C52 1.336 1_554 S
N51 C54 1.346 1_554 S
C52 N51 1.336 1_556 S
C52 C53 1.381 . S
C52 H85 0.928 1_556 S
C53 N50 1.366 . S
C53 C52 1.381 . S
C53 H57 0.931 . S
C54 N50 1.332 . S
C54 N51 1.346 1_556 S
C54 C71 1.361 . S
Co55 O58 2.097 1_455 S
Co55 O59 2.065 1_455 S
Co55 O60 2.065 . S
Co55 O61 2.042 . S
Co55 O64 2.097 . S
Co55 O68 2.042 1_455 S
C56 O64 1.253 . S
C56 O69 1.263 . S
H57 C53 0.931 . S
O58 Co43 2.262 1_655 S
O58 Co55 2.097 1_655 S
O58 C82 1.253 . S
O59 Co55 2.065 1_655 S
O59 C75 1.221 . S
O60 Co55 2.065 . S
O60 C70 1.221 . S
O61 Co55 2.042 . S
O61 C76 1.237 . S
O62 Co43 1.958 . S
O62 C76 1.278 . S
O63 Co49 1.950 . S
O63 C75 1.277 . S
O64 Co49 2.262 1_455 S
O64 Co55 2.097 . S
O64 C56 1.253 . S
O65 Co49 1.958 . S
O65 C83 1.278 . S
O66 Co43 1.950 . S
O66 C70 1.277 . S
O67 Co43 2.057 1_655 S
O67 C82 1.263 . S
O68 Co55 2.042 1_655 S
O68 C83 1.237 . S
O69 Co49 2.057 1_455 S
O69 C56 1.263 . S
C70 O60 1.221 . S
C70 O66 1.277 . S
C71 C54 1.361 . S
C71 H72 0.960 . S
C71 H73 0.961 . S
C71 H74 0.961 1_556 S
H72 C71 0.960 . S
H73 C71 0.961 . S
H74 C71 0.961 1_554 S
C75 O59 1.221 . S
C75 O63 1.277 . S
C76 O61 1.237 . S
C76 O62 1.278 . S
H77 C45 0.931 . S
H78 C81 0.961 . S
H79 C81 0.961 . S
H80 C81 0.960 . S
C81 C47 1.361 . S
C81 H78 0.961 . S
C81 H79 0.961 . S
C81 H80 0.960 . S
C82 O58 1.253 . S
C82 O67 1.263 . S
C83 O65 1.278 . S
C83 O68 1.237 . S
H84 C48 0.930 . S
H85 C52 0.928 1_554 S
Co86 N87 2.034 . S
Co86 O101 2.262 . S
Co86 O105 1.958 . S
Co86 O109 1.950 . S
Co86 O110 2.057 . S
N87 Co86 2.034 . S
N87 C88 1.366 . S
N87 C90 1.332 . S
C88 N87 1.366 . S
C88 C91 1.377 . S
C88 H120 0.931 . S
N89 C90 1.346 . S
N89 C91 1.337 . S
C90 N87 1.332 . S
C90 N89 1.346 . S
C90 C124 1.361 . S
C91 C88 1.377 . S
C91 N89 1.337 . S
C91 H127 0.930 . S
Co92 N93 2.034 . S
Co92 O106 1.950 . S
Co92 O107 2.262 . S
Co92 O108 1.958 . S
Co92 O112 2.057 . S
N93 Co92 2.034 . S
N93 C96 1.366 . S
N93 C97 1.332 . S
N94 C95 1.336 1_554 S
N94 C97 1.346 1_554 S
C95 N94 1.336 1_556 S
C95 C96 1.381 . S
C95 H128 0.928 1_556 S
C96 N93 1.366 . S
C96 C95 1.381 . S
C96 H100 0.931 . S
C97 N93 1.332 . S
C97 N94 1.346 1_556 S
C97 C114 1.361 . S
Co98 O101 2.097 . S
Co98 O102 2.065 . S
Co98 O103 2.065 . S
Co98 O104 2.042 . S
Co98 O107 2.097 . S
Co98 O111 2.042 . S
C99 O107 1.253 . S
C99 O112 1.263 . S
H100 C96 0.931 . S
O101 Co86 2.262 . S
O101 Co98 2.097 . S
O101 C125 1.253 . S
O102 Co98 2.065 . S
O102 C118 1.221 . S
O103 Co98 2.065 . S
O103 C113 1.221 . S
O104 Co98 2.042 . S
O104 C119 1.237 . S
O105 Co86 1.958 . S
O105 C119 1.278 . S
O106 Co92 1.950 . S
O106 C118 1.277 . S
O107 Co92 2.262 . S
O107 Co98 2.097 . S
O107 C99 1.253 . S
O108 Co92 1.958 . S
O108 C126 1.278 . S
O109 Co86 1.950 . S
O109 C113 1.277 . S
O110 Co86 2.057 . S
O110 C125 1.263 . S
O111 Co98 2.042 . S
O111 C126 1.237 . S
O112 Co92 2.057 . S
O112 C99 1.263 . S
C113 O103 1.221 . S
C113 O109 1.277 . S
C114 C97 1.361 . S
C114 H115 0.960 . S
C114 H116 0.961 . S
C114 H117 0.961 1_556 S
H115 C114 0.960 . S
H116 C114 0.961 . S
H117 C114 0.961 1_554 S
C118 O102 1.221 . S
C118 O106 1.277 . S
C119 O104 1.237 . S
C119 O105 1.278 . S
H120 C88 0.931 . S
H121 C124 0.961 . S
H122 C124 0.961 . S
H123 C124 0.960 . S
C124 C90 1.361 . S
C124 H121 0.961 . S
C124 H122 0.961 . S
C124 H123 0.960 . S
C125 O101 1.253 . S
C125 O110 1.263 . S
C126 O108 1.278 . S
C126 O111 1.237 . S
H127 C91 0.930 . S
H128 C95 0.928 1_554 S
Co129 N130 2.034 . S
Co129 O144 2.262 1_545 S
Co129 O148 1.958 . S
Co129 O152 1.950 . S
Co129 O153 2.057 1_545 S
N130 Co129 2.034 . S
N130 C131 1.366 . S
N130 C133 1.332 . S
C131 N130 1.366 . S
C131 C134 1.377 . S
C131 H163 0.931 . S
N132 C133 1.346 . S
N132 C134 1.337 . S
C133 N130 1.332 . S
C133 N132 1.346 . S
C133 C167 1.361 . S
C134 C131 1.377 . S
C134 N132 1.337 . S
C134 H170 0.930 . S
Co135 N136 2.034 . S
Co135 O149 1.950 . S
Co135 O150 2.262 1_565 S
Co135 O151 1.958 . S
Co135 O155 2.057 1_565 S
N136 Co135 2.034 . S
N136 C139 1.366 . S
N136 C140 1.332 . S
N137 C138 1.336 1_556 S
N137 C140 1.346 1_556 S
C138 N137 1.336 1_554 S
C138 C139 1.381 . S
C138 H171 0.928 1_554 S
C139 N136 1.366 . S
C139 C138 1.381 . S
C139 H143 0.931 . S
C140 N136 1.332 . S
C140 N137 1.346 1_554 S
C140 C157 1.361 . S
Co141 O144 2.097 1_545 S
Co141 O145 2.065 1_545 S
Co141 O146 2.065 . S
Co141 O147 2.042 . S
Co141 O150 2.097 . S
Co141 O154 2.042 1_545 S
C142 O150 1.253 . S
C142 O155 1.263 . S
H143 C139 0.931 . S
O144 Co129 2.262 1_565 S
O144 Co141 2.097 1_565 S
O144 C168 1.253 . S
O145 Co141 2.065 1_565 S
O145 C161 1.221 . S
O146 Co141 2.065 . S
O146 C156 1.221 . S
O147 Co141 2.042 . S
O147 C162 1.237 . S
O148 Co129 1.958 . S
O148 C162 1.278 . S
O149 Co135 1.950 . S
O149 C161 1.277 . S
O150 Co135 2.262 1_545 S
O150 Co141 2.097 . S
O150 C142 1.253 . S
O151 Co135 1.958 . S
O151 C169 1.278 . S
O152 Co129 1.950 . S
O152 C156 1.277 . S
O153 Co129 2.057 1_565 S
O153 C168 1.263 . S
O154 Co141 2.042 1_565 S
O154 C169 1.237 . S
O155 Co135 2.057 1_545 S
O155 C142 1.263 . S
C156 O146 1.221 . S
C156 O152 1.277 . S
C157 C140 1.361 . S
C157 H158 0.960 . S
C157 H159 0.961 . S
C157 H160 0.961 1_554 S
H158 C157 0.960 . S
H159 C157 0.961 . S
H160 C157 0.961 1_556 S
C161 O145 1.221 . S
C161 O149 1.277 . S
C162 O147 1.237 . S
C162 O148 1.278 . S
H163 C131 0.931 . S
H164 C167 0.961 . S
H165 C167 0.961 . S
H166 C167 0.960 . S
C167 C133 1.361 . S
C167 H164 0.961 . S
C167 H165 0.961 . S
C167 H166 0.960 . S
C168 O144 1.253 . S
C168 O153 1.263 . S
C169 O151 1.278 . S
C169 O154 1.237 . S
H170 C134 0.930 . S
H171 C138 0.928 1_556 S
Co172 N173 2.034 . S
Co172 O187 2.262 1_455 S
Co172 O191 1.958 . S
Co172 O195 1.950 . S
Co172 O196 2.057 1_455 S
N173 Co172 2.034 . S
N173 C174 1.366 . S
N173 C176 1.332 . S
C174 N173 1.366 . S
C174 C177 1.381 . S
C174 H206 0.931 . S
N175 C176 1.346 1_556 S
N175 C177 1.336 1_556 S
C176 N173 1.332 . S
C176 N175 1.346 1_554 S
C176 C210 1.361 . S
C177 C174 1.381 . S
C177 N175 1.336 1_554 S
C177 H213 0.928 1_554 S
Co178 N179 2.034 . S
Co178 O192 1.950 . S
Co178 O193 2.262 1_655 S
Co178 O194 1.958 . S
Co178 O198 2.057 1_655 S
N179 Co178 2.034 . S
N179 C182 1.366 . S
N179 C183 1.332 . S
N180 C181 1.337 . S
N180 C183 1.346 . S
C181 N180 1.337 . S
C181 C182 1.377 . S
C181 H214 0.930 . S
C182 N179 1.366 . S
C182 C181 1.377 . S
C182 H186 0.931 . S
C183 N179 1.332 . S
C183 N180 1.346 . S
C183 C200 1.361 . S
Co184 O187 2.097 1_455 S
Co184 O188 2.065 1_455 S
Co184 O189 2.065 . S
Co184 O190 2.042 . S
Co184 O193 2.097 . S
Co184 O197 2.042 1_455 S
C185 O193 1.253 . S
C185 O198 1.263 . S
H186 C182 0.931 . S
O187 Co172 2.262 1_655 S
O187 Co184 2.097 1_655 S
O187 C211 1.253 . S
O188 Co184 2.065 1_655 S
O188 C204 1.221 . S
O189 Co184 2.065 . S
O189 C199 1.221 . S
O190 Co184 2.042 . S
O190 C205 1.237 . S
O191 Co172 1.958 . S
O191 C205 1.278 . S
O192 Co178 1.950 . S
O192 C204 1.277 . S
O193 Co178 2.262 1_455 S
O193 Co184 2.097 . S
O193 C185 1.253 . S
O194 Co178 1.958 . S
O194 C212 1.278 . S
O195 Co172 1.950 . S
O195 C199 1.277 . S
O196 Co172 2.057 1_655 S
O196 C211 1.263 . S
O197 Co184 2.042 1_655 S
O197 C212 1.237 . S
O198 Co178 2.057 1_455 S
O198 C185 1.263 . S
C199 O189 1.221 . S
C199 O195 1.277 . S
C200 C183 1.361 . S
C200 H201 0.960 . S
C200 H202 0.961 . S
C200 H203 0.961 . S
H201 C200 0.960 . S
H202 C200 0.961 . S
H203 C200 0.961 . S
C204 O188 1.221 . S
C204 O192 1.277 . S
C205 O190 1.237 . S
C205 O191 1.278 . S
H206 C174 0.931 . S
H207 C210 0.961 1_556 S
H208 C210 0.961 . S
H209 C210 0.960 . S
C210 C176 1.361 . S
C210 H207 0.961 1_554 S
C210 H208 0.961 . S
C210 H209 0.960 . S
C211 O187 1.253 . S
C211 O196 1.263 . S
C212 O194 1.278 . S
C212 O197 1.237 . S
H213 C177 0.928 1_556 S
H214 C181 0.930 . S
Co215 N216 2.034 . S
Co215 O230 2.262 . S
Co215 O234 1.958 . S
Co215 O238 1.950 . S
Co215 O239 2.057 . S
N216 Co215 2.034 . S
N216 C217 1.366 . S
N216 C219 1.332 . S
C217 N216 1.366 . S
C217 C220 1.381 . S
C217 H249 0.931 . S
N218 C219 1.346 1_556 S
N218 C220 1.336 1_556 S
C219 N216 1.332 . S
C219 N218 1.346 1_554 S
C219 C253 1.361 . S
C220 C217 1.381 . S
C220 N218 1.336 1_554 S
C220 H256 0.928 1_554 S
Co221 N222 2.034 . S
Co221 O235 1.950 . S
Co221 O236 2.262 . S
Co221 O237 1.958 . S
Co221 O241 2.057 . S
N222 Co221 2.034 . S
N222 C225 1.366 . S
N222 C226 1.332 . S
N223 C224 1.337 . S
N223 C226 1.346 . S
C224 N223 1.337 . S
C224 C225 1.377 . S
C224 H257 0.930 . S
C225 N222 1.366 . S
C225 C224 1.377 . S
C225 H229 0.931 . S
C226 N222 1.332 . S
C226 N223 1.346 . S
C226 C243 1.361 . S
Co227 O230 2.097 . S
Co227 O231 2.065 . S
Co227 O232 2.065 . S
Co227 O233 2.042 . S
Co227 O236 2.097 . S
Co227 O240 2.042 . S
C228 O236 1.253 . S
C228 O241 1.263 . S
H229 C225 0.931 . S
O230 Co215 2.262 . S
O230 Co227 2.097 . S
O230 C254 1.253 . S
O231 Co227 2.065 . S
O231 C247 1.221 . S
O232 Co227 2.065 . S
O232 C242 1.221 . S
O233 Co227 2.042 . S
O233 C248 1.237 . S
O234 Co215 1.958 . S
O234 C248 1.278 . S
O235 Co221 1.950 . S
O235 C247 1.277 . S
O236 Co221 2.262 . S
O236 Co227 2.097 . S
O236 C228 1.253 . S
O237 Co221 1.958 . S
O237 C255 1.278 . S
O238 Co215 1.950 . S
O238 C242 1.277 . S
O239 Co215 2.057 . S
O239 C254 1.263 . S
O240 Co227 2.042 . S
O240 C255 1.237 . S
O241 Co221 2.057 . S
O241 C228 1.263 . S
C242 O232 1.221 . S
C242 O238 1.277 . S
C243 C226 1.361 . S
C243 H244 0.960 . S
C243 H245 0.961 . S
C243 H246 0.961 . S
H244 C243 0.960 . S
H245 C243 0.961 . S
H246 C243 0.961 . S
C247 O231 1.221 . S
C247 O235 1.277 . S
C248 O233 1.237 . S
C248 O234 1.278 . S
H249 C217 0.931 . S
H250 C253 0.961 1_556 S
H251 C253 0.961 . S
H252 C253 0.960 . S
C253 C219 1.361 . S
C253 H250 0.961 1_554 S
C253 H251 0.961 . S
C253 H252 0.960 . S
C254 O230 1.253 . S
C254 O239 1.263 . S
C255 O237 1.278 . S
C255 O240 1.237 . S
H256 C220 0.928 1_556 S
H257 C224 0.930 . S
Co258 N259 2.034 . S
Co258 O273 2.262 1_556 S
Co258 O277 1.958 . S
Co258 O281 1.950 . S
Co258 O282 2.057 . S
N259 Co258 2.034 . S
N259 C260 1.366 . S
N259 C262 1.332 . S
C260 N259 1.366 . S
C260 C263 1.377 . S
C260 H292 0.931 . S
N261 C262 1.346 . S
N261 C263 1.337 . S
C262 N259 1.332 . S
C262 N261 1.346 . S
C262 C296 1.361 . S
C263 C260 1.377 . S
C263 N261 1.337 . S
C263 H299 0.930 . S
Co264 N265 2.034 . S
Co264 O278 1.950 . S
Co264 O279 2.262 . S
Co264 O280 1.958 . S
Co264 O284 2.057 . S
N265 Co264 2.034 . S
N265 C268 1.366 . S
N265 C269 1.332 . S
N266 C267 1.337 . S
N266 C269 1.346 . S
C267 N266 1.337 . S
C267 C268 1.377 . S
C267 H300 0.930 . S
C268 N265 1.366 . S
C268 C267 1.377 . S
C268 H272 0.931 . S
C269 N265 1.332 . S
C269 N266 1.346 . S
C269 C286 1.361 . S
Co270 O273 2.097 . S
Co270 O274 2.065 . S
Co270 O275 2.065 . S
Co270 O276 2.042 . S
Co270 O279 2.097 . S
Co270 O283 2.042 . S
C271 O279 1.253 . S
C271 O284 1.263 . S
H272 C268 0.931 . S
O273 Co258 2.262 1_554 S
O273 Co270 2.097 . S
O273 C297 1.253 1_554 S
O274 Co270 2.065 . S
O274 C290 1.221 . S
O275 Co270 2.065 . S
O275 C285 1.221 . S
O276 Co270 2.042 . S
O276 C291 1.237 . S
O277 Co258 1.958 . S
O277 C291 1.278 1_556 S
O278 Co264 1.950 . S
O278 C290 1.277 . S
O279 Co264 2.262 . S
O279 Co270 2.097 . S
O279 C271 1.253 . S
O280 Co264 1.958 . S
O280 C298 1.278 . S
O281 Co258 1.950 . S
O281 C285 1.277 1_556 S
O282 Co258 2.057 . S
O282 C297 1.263 . S
O283 Co270 2.042 . S
O283 C298 1.237 . S
O284 Co264 2.057 . S
O284 C271 1.263 . S
C285 O275 1.221 . S
C285 O281 1.277 1_554 S
C286 C269 1.361 . S
C286 H287 0.960 . S
C286 H288 0.961 . S
C286 H289 0.961 . S
H287 C286 0.960 . S
H288 C286 0.961 . S
H289 C286 0.961 . S
C290 O274 1.221 . S
C290 O278 1.277 . S
C291 O276 1.237 . S
C291 O277 1.278 1_554 S
H292 C260 0.931 . S
H293 C296 0.961 . S
H294 C296 0.961 . S
H295 C296 0.960 . S
C296 C262 1.361 . S
C296 H293 0.961 . S
C296 H294 0.961 . S
C296 H295 0.960 . S
C297 O273 1.253 1_556 S
C297 O282 1.263 . S
C298 O280 1.278 . S
C298 O283 1.237 . S
H299 C263 0.930 . S
H300 C267 0.930 . S
Co301 N302 2.034 . S
Co301 O316 2.262 . S
Co301 O320 1.958 . S
Co301 O324 1.950 . S
Co301 O325 2.057 . S
N302 Co301 2.034 . S
N302 C303 1.366 . S
N302 C305 1.332 . S
C303 N302 1.366 . S
C303 C306 1.377 . S
C303 H335 0.931 . S
N304 C305 1.346 . S
N304 C306 1.337 . S
C305 N302 1.332 . S
C305 N304 1.346 . S
C305 C339 1.361 . S
C306 C303 1.377 . S
C306 N304 1.337 . S
C306 H342 0.930 . S
Co307 N308 2.034 . S
Co307 O321 1.950 . S
Co307 O322 2.262 1_556 S
Co307 O323 1.958 . S
Co307 O327 2.057 . S
N308 Co307 2.034 . S
N308 C311 1.366 . S
N308 C312 1.332 . S
N309 C310 1.337 . S
N309 C312 1.346 . S
C310 N309 1.337 . S
C310 C311 1.377 . S
C310 H343 0.930 . S
C311 N308 1.366 . S
C311 C310 1.377 . S
C311 H315 0.931 . S
C312 N308 1.332 . S
C312 N309 1.346 . S
C312 C329 1.361 . S
Co313 O316 2.097 . S
Co313 O317 2.065 . S
Co313 O318 2.065 . S
Co313 O319 2.042 . S
Co313 O322 2.097 . S
Co313 O326 2.042 . S
C314 O322 1.253 1_556 S
C314 O327 1.263 . S
H315 C311 0.931 . S
O316 Co301 2.262 . S
O316 Co313 2.097 . S
O316 C340 1.253 . S
O317 Co313 2.065 . S
O317 C333 1.221 . S
O318 Co313 2.065 . S
O318 C328 1.221 . S
O319 Co313 2.042 . S
O319 C334 1.237 . S
O320 Co301 1.958 . S
O320 C334 1.278 . S
O321 Co307 1.950 . S
O321 C333 1.277 1_556 S
O322 Co307 2.262 1_554 S
O322 Co313 2.097 . S
O322 C314 1.253 1_554 S
O323 Co307 1.958 . S
O323 C341 1.278 1_556 S
O324 Co301 1.950 . S
O324 C328 1.277 . S
O325 Co301 2.057 . S
O325 C340 1.263 . S
O326 Co313 2.042 . S
O326 C341 1.237 . S
O327 Co307 2.057 . S
O327 C314 1.263 . S
C328 O318 1.221 . S
C328 O324 1.277 . S
C329 C312 1.361 . S
C329 H330 0.960 . S
C329 H331 0.961 . S
C329 H332 0.961 . S
H330 C329 0.960 . S
H331 C329 0.961 . S
H332 C329 0.961 . S
C333 O317 1.221 . S
C333 O321 1.277 1_554 S
C334 O319 1.237 . S
C334 O320 1.278 . S
H335 C303 0.931 . S
H336 C339 0.961 . S
H337 C339 0.961 . S
H338 C339 0.960 . S
C339 C305 1.361 . S
C339 H336 0.961 . S
C339 H337 0.961 . S
C339 H338 0.960 . S
C340 O316 1.253 . S
C340 O325 1.263 . S
C341 O323 1.278 1_554 S
C341 O326 1.237 . S
H342 C306 0.930 . S
H343 C310 0.930 . S
Co344 N345 2.034 . S
Co344 O359 2.262 . S
Co344 O363 1.958 . S
Co344 O367 1.950 . S
Co344 O368 2.057 . S
N345 Co344 2.034 . S
N345 C346 1.366 . S
N345 C348 1.332 . S
C346 N345 1.366 . S
C346 C349 1.377 . S
C346 H378 0.931 . S
N347 C348 1.346 . S
N347 C349 1.337 . S
C348 N345 1.332 . S
C348 N347 1.346 . S
C348 C382 1.361 . S
C349 C346 1.377 . S
C349 N347 1.337 . S
C349 H385 0.930 . S
Co350 N351 2.034 . S
Co350 O364 1.950 . S
Co350 O365 2.262 1_556 S
Co350 O366 1.958 . S
Co350 O370 2.057 . S
N351 Co350 2.034 . S
N351 C354 1.366 . S
N351 C355 1.332 . S
N352 C353 1.337 . S
N352 C355 1.346 . S
C353 N352 1.337 . S
C353 C354 1.377 . S
C353 H386 0.930 . S
C354 N351 1.366 . S
C354 C353 1.377 . S
C354 H358 0.931 . S
C355 N351 1.332 . S
C355 N352 1.346 . S
C355 C372 1.361 . S
Co356 O359 2.097 . S
Co356 O360 2.065 . S
Co356 O361 2.065 . S
Co356 O362 2.042 . S
Co356 O365 2.097 . S
Co356 O369 2.042 . S
C357 O365 1.253 1_556 S
C357 O370 1.263 . S
H358 C354 0.931 . S
O359 Co344 2.262 . S
O359 Co356 2.097 . S
O359 C383 1.253 . S
O360 Co356 2.065 . S
O360 C376 1.221 . S
O361 Co356 2.065 . S
O361 C371 1.221 . S
O362 Co356 2.042 . S
O362 C377 1.237 . S
O363 Co344 1.958 . S
O363 C377 1.278 . S
O364 Co350 1.950 . S
O364 C376 1.277 1_556 S
O365 Co350 2.262 1_554 S
O365 Co356 2.097 . S
O365 C357 1.253 1_554 S
O366 Co350 1.958 . S
O366 C384 1.278 1_556 S
O367 Co344 1.950 . S
O367 C371 1.277 . S
O368 Co344 2.057 . S
O368 C383 1.263 . S
O369 Co356 2.042 . S
O369 C384 1.237 . S
O370 Co350 2.057 . S
O370 C357 1.263 . S
C371 O361 1.221 . S
C371 O367 1.277 . S
C372 C355 1.361 . S
C372 H373 0.960 . S
C372 H374 0.961 . S
C372 H375 0.961 . S
H373 C372 0.960 . S
H374 C372 0.961 . S
H375 C372 0.961 . S
C376 O360 1.221 . S
C376 O364 1.277 1_554 S
C377 O362 1.237 . S
C377 O363 1.278 . S
H378 C346 0.931 . S
H379 C382 0.961 . S
H380 C382 0.961 . S
H381 C382 0.960 . S
C382 C348 1.361 . S
C382 H379 0.961 . S
C382 H380 0.961 . S
C382 H381 0.960 . S
C383 O359 1.253 . S
C383 O368 1.263 . S
C384 O366 1.278 1_554 S
C384 O369 1.237 . S
H385 C349 0.930 . S
H386 C353 0.930 . S
Co387 N388 2.034 . S
Co387 O402 2.262 . S
Co387 O406 1.958 . S
Co387 O410 1.950 . S
Co387 O411 2.057 . S
N388 Co387 2.034 . S
N388 C389 1.366 . S
N388 C391 1.332 . S
C389 N388 1.366 . S
C389 C392 1.377 . S
C389 H421 0.931 . S
N390 C391 1.346 . S
N390 C392 1.337 . S
C391 N388 1.332 . S
C391 N390 1.346 . S
C391 C425 1.361 . S
C392 C389 1.377 . S
C392 N390 1.337 . S
C392 H428 0.930 . S
Co393 N394 2.034 . S
Co393 O407 1.950 . S
Co393 O408 2.262 . S
Co393 O409 1.958 . S
Co393 O413 2.057 . S
N394 Co393 2.034 . S
N394 C397 1.366 . S
N394 C398 1.332 . S
N395 C396 1.337 . S
N395 C398 1.346 . S
C396 N395 1.337 . S
C396 C397 1.377 . S
C396 H429 0.930 . S
C397 N394 1.366 . S
C397 C396 1.377 . S
C397 H401 0.931 . S
C398 N394 1.332 . S
C398 N395 1.346 . S
C398 C415 1.361 . S
Co399 O402 2.097 . S
Co399 O403 2.065 . S
Co399 O404 2.065 . S
Co399 O405 2.042 . S
Co399 O408 2.097 . S
Co399 O412 2.042 . S
C400 O408 1.253 . S
C400 O413 1.263 . S
H401 C397 0.931 . S
O402 Co387 2.262 . S
O402 Co399 2.097 . S
O402 C426 1.253 . S
O403 Co399 2.065 . S
O403 C419 1.221 . S
O404 Co399 2.065 . S
O404 C414 1.221 . S
O405 Co399 2.042 . S
O405 C420 1.237 . S
O406 Co387 1.958 . S
O406 C420 1.278 . S
O407 Co393 1.950 . S
O407 C419 1.277 . S
O408 Co393 2.262 . S
O408 Co399 2.097 . S
O408 C400 1.253 . S
O409 Co393 1.958 . S
O409 C427 1.278 . S
O410 Co387 1.950 . S
O410 C414 1.277 . S
O411 Co387 2.057 . S
O411 C426 1.263 . S
O412 Co399 2.042 . S
O412 C427 1.237 . S
O413 Co393 2.057 . S
O413 C400 1.263 . S
C414 O404 1.221 . S
C414 O410 1.277 . S
C415 C398 1.361 . S
C415 H416 0.960 . S
C415 H417 0.961 . S
C415 H418 0.961 . S
H416 C415 0.960 . S
H417 C415 0.961 . S
H418 C415 0.961 . S
C419 O403 1.221 . S
C419 O407 1.277 . S
C420 O405 1.237 . S
C420 O406 1.278 . S
H421 C389 0.931 . S
H422 C425 0.961 . S
H423 C425 0.961 . S
H424 C425 0.960 . S
C425 C391 1.361 . S
C425 H422 0.961 . S
C425 H423 0.961 . S
C425 H424 0.960 . S
C426 O402 1.253 . S
C426 O411 1.263 . S
C427 O409 1.278 . S
C427 O412 1.237 . S
H428 C392 0.930 . S
H429 C396 0.930 . S
Co430 N431 2.034 . S
Co430 O445 2.262 . S
Co430 O449 1.958 . S
Co430 O453 1.950 . S
Co430 O454 2.057 . S
N431 Co430 2.034 . S
N431 C432 1.366 . S
N431 C434 1.332 . S
C432 N431 1.366 . S
C432 C435 1.377 . S
C432 H464 0.931 . S
N433 C434 1.346 . S
N433 C435 1.337 . S
C434 N431 1.332 . S
C434 N433 1.346 . S
C434 C468 1.361 . S
C435 C432 1.377 . S
C435 N433 1.337 . S
C435 H471 0.930 . S
Co436 N437 2.034 . S
Co436 O450 1.950 . S
Co436 O451 2.262 . S
Co436 O452 1.958 . S
Co436 O456 2.057 . S
N437 Co436 2.034 . S
N437 C440 1.366 . S
N437 C441 1.332 . S
N438 C439 1.337 . S
N438 C441 1.346 . S
C439 N438 1.337 . S
C439 C440 1.377 . S
C439 H472 0.930 . S
C440 N437 1.366 . S
C440 C439 1.377 . S
C440 H444 0.931 . S
C441 N437 1.332 . S
C441 N438 1.346 . S
C441 C458 1.361 . S
Co442 O445 2.097 . S
Co442 O446 2.065 . S
Co442 O447 2.065 . S
Co442 O448 2.042 . S
Co442 O451 2.097 . S
Co442 O455 2.042 . S
C443 O451 1.253 . S
C443 O456 1.263 . S
H444 C440 0.931 . S
O445 Co430 2.262 . S
O445 Co442 2.097 . S
O445 C469 1.253 . S
O446 Co442 2.065 . S
O446 C462 1.221 . S
O447 Co442 2.065 . S
O447 C457 1.221 . S
O448 Co442 2.042 . S
O448 C463 1.237 . S
O449 Co430 1.958 . S
O449 C463 1.278 . S
O450 Co436 1.950 . S
O450 C462 1.277 . S
O451 Co436 2.262 . S
O451 Co442 2.097 . S
O451 C443 1.253 . S
O452 Co436 1.958 . S
O452 C470 1.278 . S
O453 Co430 1.950 . S
O453 C457 1.277 . S
O454 Co430 2.057 . S
O454 C469 1.263 . S
O455 Co442 2.042 . S
O455 C470 1.237 . S
O456 Co436 2.057 . S
O456 C443 1.263 . S
C457 O447 1.221 . S
C457 O453 1.277 . S
C458 C441 1.361 . S
C458 H459 0.960 . S
C458 H460 0.961 . S
C458 H461 0.961 . S
H459 C458 0.960 . S
H460 C458 0.961 . S
H461 C458 0.961 . S
C462 O446 1.221 . S
C462 O450 1.277 . S
C463 O448 1.237 . S
C463 O449 1.278 . S
H464 C432 0.931 . S
H465 C468 0.961 . S
H466 C468 0.961 . S
H467 C468 0.960 . S
C468 C434 1.361 . S
C468 H465 0.961 . S
C468 H466 0.961 . S
C468 H467 0.960 . S
C469 O445 1.253 . S
C469 O454 1.263 . S
C470 O452 1.278 . S
C470 O455 1.237 . S
H471 C435 0.930 . S
H472 C439 0.930 . S
Co473 N474 2.034 . S
Co473 O488 2.262 . S
Co473 O492 1.958 . S
Co473 O496 1.950 . S
Co473 O497 2.057 . S
N474 Co473 2.034 . S
N474 C475 1.366 . S
N474 C477 1.332 . S
C475 N474 1.366 . S
C475 C478 1.377 . S
C475 H507 0.931 . S
N476 C477 1.346 . S
N476 C478 1.337 . S
C477 N474 1.332 . S
C477 N476 1.346 . S
C477 C511 1.361 . S
C478 C475 1.377 . S
C478 N476 1.337 . S
C478 H514 0.930 . S
Co479 N480 2.034 . S
Co479 O493 1.950 . S
Co479 O494 2.262 . S
Co479 O495 1.958 . S
Co479 O499 2.057 . S
N480 Co479 2.034 . S
N480 C483 1.366 . S
N480 C484 1.332 . S
N481 C482 1.337 . S
N481 C484 1.346 . S
C482 N481 1.337 . S
C482 C483 1.377 . S
C482 H515 0.930 . S
C483 N480 1.366 . S
C483 C482 1.377 . S
C483 H487 0.931 . S
C484 N480 1.332 . S
C484 N481 1.346 . S
C484 C501 1.361 . S
Co485 O488 2.097 . S
Co485 O489 2.065 . S
Co485 O490 2.065 . S
Co485 O491 2.042 . S
Co485 O494 2.097 . S
Co485 O498 2.042 . S
C486 O494 1.253 . S
C486 O499 1.263 . S
H487 C483 0.931 . S
O488 Co473 2.262 . S
O488 Co485 2.097 . S
O488 C512 1.253 . S
O489 Co485 2.065 . S
O489 C505 1.221 . S
O490 Co485 2.065 . S
O490 C500 1.221 . S
O491 Co485 2.042 . S
O491 C506 1.237 . S
O492 Co473 1.958 . S
O492 C506 1.278 . S
O493 Co479 1.950 . S
O493 C505 1.277 . S
O494 Co479 2.262 . S
O494 Co485 2.097 . S
O494 C486 1.253 . S
O495 Co479 1.958 . S
O495 C513 1.278 . S
O496 Co473 1.950 . S
O496 C500 1.277 . S
O497 Co473 2.057 . S
O497 C512 1.263 . S
O498 Co485 2.042 . S
O498 C513 1.237 . S
O499 Co479 2.057 . S
O499 C486 1.263 . S
C500 O490 1.221 . S
C500 O496 1.277 . S
C501 C484 1.361 . S
C501 H502 0.960 . S
C501 H503 0.961 . S
C501 H504 0.961 . S
H502 C501 0.960 . S
H503 C501 0.961 . S
H504 C501 0.961 . S
C505 O489 1.221 . S
C505 O493 1.277 . S
C506 O491 1.237 . S
C506 O492 1.278 . S
H507 C475 0.931 . S
H508 C511 0.961 . S
H509 C511 0.961 . S
H510 C511 0.960 . S
C511 C477 1.361 . S
C511 H508 0.961 . S
C511 H509 0.961 . S
C511 H510 0.960 . S
C512 O488 1.253 . S
C512 O497 1.263 . S
C513 O495 1.278 . S
C513 O498 1.237 . S
H514 C478 0.930 . S
H515 C482 0.930 . S
Co516 N517 2.034 . S
Co516 O531 2.262 . S
Co516 O535 1.958 . S
Co516 O539 1.950 . S
Co516 O540 2.057 . S
N517 Co516 2.034 . S
N517 C518 1.366 . S
N517 C520 1.332 . S
C518 N517 1.366 . S
C518 C521 1.377 . S
C518 H550 0.931 . S
N519 C520 1.346 . S
N519 C521 1.337 . S
C520 N517 1.332 . S
C520 N519 1.346 . S
C520 C554 1.361 . S
C521 C518 1.377 . S
C521 N519 1.337 . S
C521 H557 0.930 . S
Co522 N523 2.034 . S
Co522 O536 1.950 . S
Co522 O537 2.262 . S
Co522 O538 1.958 . S
Co522 O542 2.057 . S
N523 Co522 2.034 . S
N523 C526 1.366 . S
N523 C527 1.332 . S
N524 C525 1.337 . S
N524 C527 1.346 . S
C525 N524 1.337 . S
C525 C526 1.377 . S
C525 H558 0.930 . S
C526 N523 1.366 . S
C526 C525 1.377 . S
C526 H530 0.931 . S
C527 N523 1.332 . S
C527 N524 1.346 . S
C527 C544 1.361 . S
Co528 O531 2.097 . S
Co528 O532 2.065 . S
Co528 O533 2.065 . S
Co528 O534 2.042 . S
Co528 O537 2.097 . S
Co528 O541 2.042 . S
C529 O537 1.253 . S
C529 O542 1.263 . S
H530 C526 0.931 . S
O531 Co516 2.262 . S
O531 Co528 2.097 . S
O531 C555 1.253 . S
O532 Co528 2.065 . S
O532 C548 1.221 . S
O533 Co528 2.065 . S
O533 C543 1.221 . S
O534 Co528 2.042 . S
O534 C549 1.237 . S
O535 Co516 1.958 . S
O535 C549 1.278 . S
O536 Co522 1.950 . S
O536 C548 1.277 . S
O537 Co522 2.262 . S
O537 Co528 2.097 . S
O537 C529 1.253 . S
O538 Co522 1.958 . S
O538 C556 1.278 . S
O539 Co516 1.950 . S
O539 C543 1.277 . S
O540 Co516 2.057 . S
O540 C555 1.263 . S
O541 Co528 2.042 . S
O541 C556 1.237 . S
O542 Co522 2.057 . S
O542 C529 1.263 . S
C543 O533 1.221 . S
C543 O539 1.277 . S
C544 C527 1.361 . S
C544 H545 0.960 . S
C544 H546 0.961 . S
C544 H547 0.961 . S
H545 C544 0.960 . S
H546 C544 0.961 . S
H547 C544 0.961 . S
C548 O532 1.221 . S
C548 O536 1.277 . S
C549 O534 1.237 . S
C549 O535 1.278 . S
H550 C518 0.931 . S
H551 C554 0.961 . S
H552 C554 0.961 . S
H553 C554 0.960 . S
C554 C520 1.361 . S
C554 H551 0.961 . S
C554 H552 0.961 . S
C554 H553 0.960 . S
C555 O531 1.253 . S
C555 O540 1.263 . S
C556 O538 1.278 . S
C556 O541 1.237 . S
H557 C521 0.930 . S
H558 C525 0.930 . S
Co559 N560 2.034 . S
Co559 O574 2.262 . S
Co559 O578 1.958 . S
Co559 O582 1.950 . S
Co559 O583 2.057 . S
N560 Co559 2.034 . S
N560 C561 1.366 . S
N560 C563 1.332 . S
C561 N560 1.366 . S
C561 C564 1.377 . S
C561 H593 0.931 . S
N562 C563 1.346 . S
N562 C564 1.337 . S
C563 N560 1.332 . S
C563 N562 1.346 . S
C563 C597 1.361 . S
C564 C561 1.377 . S
C564 N562 1.337 . S
C564 H600 0.930 . S
Co565 N566 2.034 . S
Co565 O579 1.950 . S
Co565 O580 2.262 . S
Co565 O581 1.958 . S
Co565 O585 2.057 . S
N566 Co565 2.034 . S
N566 C569 1.366 . S
N566 C570 1.332 . S
N567 C568 1.337 . S
N567 C570 1.346 . S
C568 N567 1.337 . S
C568 C569 1.377 . S
C568 H601 0.930 . S
C569 N566 1.366 . S
C569 C568 1.377 . S
C569 H573 0.931 . S
C570 N566 1.332 . S
C570 N567 1.346 . S
C570 C587 1.361 . S
Co571 O574 2.097 . S
Co571 O575 2.065 . S
Co571 O576 2.065 . S
Co571 O577 2.042 . S
Co571 O580 2.097 . S
Co571 O584 2.042 . S
C572 O580 1.253 . S
C572 O585 1.263 . S
H573 C569 0.931 . S
O574 Co559 2.262 . S
O574 Co571 2.097 . S
O574 C598 1.253 . S
O575 Co571 2.065 . S
O575 C591 1.221 . S
O576 Co571 2.065 . S
O576 C586 1.221 . S
O577 Co571 2.042 . S
O577 C592 1.237 . S
O578 Co559 1.958 . S
O578 C592 1.278 . S
O579 Co565 1.950 . S
O579 C591 1.277 . S
O580 Co565 2.262 . S
O580 Co571 2.097 . S
O580 C572 1.253 . S
O581 Co565 1.958 . S
O581 C599 1.278 . S
O582 Co559 1.950 . S
O582 C586 1.277 . S
O583 Co559 2.057 . S
O583 C598 1.263 . S
O584 Co571 2.042 . S
O584 C599 1.237 . S
O585 Co565 2.057 . S
O585 C572 1.263 . S
C586 O576 1.221 . S
C586 O582 1.277 . S
C587 C570 1.361 . S
C587 H588 0.960 . S
C587 H589 0.961 . S
C587 H590 0.961 . S
H588 C587 0.960 . S
H589 C587 0.961 . S
H590 C587 0.961 . S
C591 O575 1.221 . S
C591 O579 1.277 . S
C592 O577 1.237 . S
C592 O578 1.278 . S
H593 C561 0.931 . S
H594 C597 0.961 . S
H595 C597 0.961 . S
H596 C597 0.960 . S
C597 C563 1.361 . S
C597 H594 0.961 . S
C597 H595 0.961 . S
C597 H596 0.960 . S
C598 O574 1.253 . S
C598 O583 1.263 . S
C599 O581 1.278 . S
C599 O584 1.237 . S
H600 C564 0.930 . S
H601 C568 0.930 . S
Co602 N603 2.034 . S
Co602 O617 2.262 . S
Co602 O621 1.958 . S
Co602 O625 1.950 . S
Co602 O626 2.057 . S
N603 Co602 2.034 . S
N603 C604 1.366 . S
N603 C606 1.332 . S
C604 N603 1.366 . S
C604 C607 1.377 . S
C604 H636 0.931 . S
N605 C606 1.346 . S
N605 C607 1.337 . S
C606 N603 1.332 . S
C606 N605 1.346 . S
C606 C640 1.361 . S
C607 C604 1.377 . S
C607 N605 1.337 . S
C607 H643 0.930 . S
Co608 N609 2.034 . S
Co608 O622 1.950 . S
Co608 O623 2.262 . S
Co608 O624 1.958 . S
Co608 O628 2.057 . S
N609 Co608 2.034 . S
N609 C612 1.366 . S
N609 C613 1.332 . S
N610 C611 1.337 . S
N610 C613 1.346 . S
C611 N610 1.337 . S
C611 C612 1.377 . S
C611 H644 0.930 . S
C612 N609 1.366 . S
C612 C611 1.377 . S
C612 H616 0.931 . S
C613 N609 1.332 . S
C613 N610 1.346 . S
C613 C630 1.361 . S
Co614 O617 2.097 . S
Co614 O618 2.065 . S
Co614 O619 2.065 . S
Co614 O620 2.042 . S
Co614 O623 2.097 . S
Co614 O627 2.042 . S
C615 O623 1.253 . S
C615 O628 1.263 . S
H616 C612 0.931 . S
O617 Co602 2.262 . S
O617 Co614 2.097 . S
O617 C641 1.253 . S
O618 Co614 2.065 . S
O618 C634 1.221 . S
O619 Co614 2.065 . S
O619 C629 1.221 . S
O620 Co614 2.042 . S
O620 C635 1.237 . S
O621 Co602 1.958 . S
O621 C635 1.278 . S
O622 Co608 1.950 . S
O622 C634 1.277 . S
O623 Co608 2.262 . S
O623 Co614 2.097 . S
O623 C615 1.253 . S
O624 Co608 1.958 . S
O624 C642 1.278 . S
O625 Co602 1.950 . S
O625 C629 1.277 . S
O626 Co602 2.057 . S
O626 C641 1.263 . S
O627 Co614 2.042 . S
O627 C642 1.237 . S
O628 Co608 2.057 . S
O628 C615 1.263 . S
C629 O619 1.221 . S
C629 O625 1.277 . S
C630 C613 1.361 . S
C630 H631 0.960 . S
C630 H632 0.961 . S
C630 H633 0.961 . S
H631 C630 0.960 . S
H632 C630 0.961 . S
H633 C630 0.961 . S
C634 O618 1.221 . S
C634 O622 1.277 . S
C635 O620 1.237 . S
C635 O621 1.278 . S
H636 C604 0.931 . S
H637 C640 0.961 . S
H638 C640 0.961 . S
H639 C640 0.960 . S
C640 C606 1.361 . S
C640 H637 0.961 . S
C640 H638 0.961 . S
C640 H639 0.960 . S
C641 O617 1.253 . S
C641 O626 1.263 . S
C642 O624 1.278 . S
C642 O627 1.237 . S
H643 C607 0.930 . S
H644 C611 0.930 . S
Co645 N646 2.034 . S
Co645 O660 2.262 1_554 S
Co645 O664 1.958 . S
Co645 O668 1.950 . S
Co645 O669 2.057 . S
N646 Co645 2.034 . S
N646 C647 1.366 . S
N646 C649 1.332 . S
C647 N646 1.366 . S
C647 C650 1.377 . S
C647 H679 0.931 . S
N648 C649 1.346 . S
N648 C650 1.337 . S
C649 N646 1.332 . S
C649 N648 1.346 . S
C649 C683 1.361 . S
C650 C647 1.377 . S
C650 N648 1.337 . S
C650 H686 0.930 . S
Co651 N652 2.034 . S
Co651 O665 1.950 . S
Co651 O666 2.262 . S
Co651 O667 1.958 . S
Co651 O671 2.057 . S
N652 Co651 2.034 . S
N652 C655 1.366 . S
N652 C656 1.332 . S
N653 C654 1.337 . S
N653 C656 1.346 . S
C654 N653 1.337 . S
C654 C655 1.377 . S
C654 H687 0.930 . S
C655 N652 1.366 . S
C655 C654 1.377 . S
C655 H659 0.931 . S
C656 N652 1.332 . S
C656 N653 1.346 . S
C656 C673 1.361 . S
Co657 O660 2.097 . S
Co657 O661 2.065 . S
Co657 O662 2.065 . S
Co657 O663 2.042 . S
Co657 O666 2.097 . S
Co657 O670 2.042 . S
C658 O666 1.253 . S
C658 O671 1.263 . S
H659 C655 0.931 . S
O660 Co645 2.262 1_556 S
O660 Co657 2.097 . S
O660 C684 1.253 1_556 S
O661 Co657 2.065 . S
O661 C677 1.221 . S
O662 Co657 2.065 . S
O662 C672 1.221 . S
O663 Co657 2.042 . S
O663 C678 1.237 . S
O664 Co645 1.958 . S
O664 C678 1.278 1_554 S
O665 Co651 1.950 . S
O665 C677 1.277 . S
O666 Co651 2.262 . S
O666 Co657 2.097 . S
O666 C658 1.253 . S
O667 Co651 1.958 . S
O667 C685 1.278 . S
O668 Co645 1.950 . S
O668 C672 1.277 1_554 S
O669 Co645 2.057 . S
O669 C684 1.263 . S
O670 Co657 2.042 . S
O670 C685 1.237 . S
O671 Co651 2.057 . S
O671 C658 1.263 . S
C672 O662 1.221 . S
C672 O668 1.277 1_556 S
C673 C656 1.361 . S
C673 H674 0.960 . S
C673 H675 0.961 . S
C673 H676 0.961 . S
H674 C673 0.960 . S
H675 C673 0.961 . S
H676 C673 0.961 . S
C677 O661 1.221 . S
C677 O665 1.277 . S
C678 O663 1.237 . S
C678 O664 1.278 1_556 S
H679 C647 0.931 . S
H680 C683 0.961 . S
H681 C683 0.961 . S
H682 C683 0.960 . S
C683 C649 1.361 . S
C683 H680 0.961 . S
C683 H681 0.961 . S
C683 H682 0.960 . S
C684 O660 1.253 1_554 S
C684 O669 1.263 . S
C685 O667 1.278 . S
C685 O670 1.237 . S
H686 C650 0.930 . S
H687 C654 0.930 . S
Co688 N689 2.034 . S
Co688 O703 2.262 1_554 S
Co688 O707 1.958 . S
Co688 O711 1.950 . S
Co688 O712 2.057 . S
N689 Co688 2.034 . S
N689 C690 1.366 . S
N689 C692 1.332 . S
C690 N689 1.366 . S
C690 C693 1.377 . S
C690 H722 0.931 . S
N691 C692 1.346 . S
N691 C693 1.337 . S
C692 N689 1.332 . S
C692 N691 1.346 . S
C692 C726 1.361 . S
C693 C690 1.377 . S
C693 N691 1.337 . S
C693 H729 0.930 . S
Co694 N695 2.034 . S
Co694 O708 1.950 . S
Co694 O709 2.262 . S
Co694 O710 1.958 . S
Co694 O714 2.057 . S
N695 Co694 2.034 . S
N695 C698 1.366 . S
N695 C699 1.332 . S
N696 C697 1.337 . S
N696 C699 1.346 . S
C697 N696 1.337 . S
C697 C698 1.377 . S
C697 H730 0.930 . S
C698 N695 1.366 . S
C698 C697 1.377 . S
C698 H702 0.931 . S
C699 N695 1.332 . S
C699 N696 1.346 . S
C699 C716 1.361 . S
Co700 O703 2.097 . S
Co700 O704 2.065 . S
Co700 O705 2.065 . S
Co700 O706 2.042 . S
Co700 O709 2.097 . S
Co700 O713 2.042 . S
C701 O709 1.253 . S
C701 O714 1.263 . S
H702 C698 0.931 . S
O703 Co688 2.262 1_556 S
O703 Co700 2.097 . S
O703 C727 1.253 1_556 S
O704 Co700 2.065 . S
O704 C720 1.221 . S
O705 Co700 2.065 . S
O705 C715 1.221 . S
O706 Co700 2.042 . S
O706 C721 1.237 . S
O707 Co688 1.958 . S
O707 C721 1.278 1_554 S
O708 Co694 1.950 . S
O708 C720 1.277 . S
O709 Co694 2.262 . S
O709 Co700 2.097 . S
O709 C701 1.253 . S
O710 Co694 1.958 . S
O710 C728 1.278 . S
O711 Co688 1.950 . S
O711 C715 1.277 1_554 S
O712 Co688 2.057 . S
O712 C727 1.263 . S
O713 Co700 2.042 . S
O713 C728 1.237 . S
O714 Co694 2.057 . S
O714 C701 1.263 . S
C715 O705 1.221 . S
C715 O711 1.277 1_556 S
C716 C699 1.361 . S
C716 H717 0.960 . S
C716 H718 0.961 . S
C716 H719 0.961 . S
H717 C716 0.960 . S
H718 C716 0.961 . S
H719 C716 0.961 . S
C720 O704 1.221 . S
C720 O708 1.277 . S
C721 O706 1.237 . S
C721 O707 1.278 1_556 S
H722 C690 0.931 . S
H723 C726 0.961 . S
H724 C726 0.961 . S
H725 C726 0.960 . S
C726 C692 1.361 . S
C726 H723 0.961 . S
C726 H724 0.961 . S
C726 H725 0.960 . S
C727 O703 1.253 1_554 S
C727 O712 1.263 . S
C728 O710 1.278 . S
C728 O713 1.237 . S
H729 C693 0.930 . S
H730 C697 0.930 . S
Co731 N732 2.034 . S
Co731 O746 2.262 . S
Co731 O750 1.958 . S
Co731 O754 1.950 . S
Co731 O755 2.057 . S
N732 Co731 2.034 . S
N732 C733 1.366 . S
N732 C735 1.332 . S
C733 N732 1.366 . S
C733 C736 1.377 . S
C733 H765 0.931 . S
N734 C735 1.346 . S
N734 C736 1.337 . S
C735 N732 1.332 . S
C735 N734 1.346 . S
C735 C769 1.361 . S
C736 C733 1.377 . S
C736 N734 1.337 . S
C736 H772 0.930 . S
Co737 N738 2.034 . S
Co737 O751 1.950 . S
Co737 O752 2.262 1_554 S
Co737 O753 1.958 . S
Co737 O757 2.057 . S
N738 Co737 2.034 . S
N738 C741 1.366 . S
N738 C742 1.332 . S
N739 C740 1.337 . S
N739 C742 1.346 . S
C740 N739 1.337 . S
C740 C741 1.377 . S
C740 H773 0.930 . S
C741 N738 1.366 . S
C741 C740 1.377 . S
C741 H745 0.931 . S
C742 N738 1.332 . S
C742 N739 1.346 . S
C742 C759 1.361 . S
Co743 O746 2.097 . S
Co743 O747 2.065 . S
Co743 O748 2.065 . S
Co743 O749 2.042 . S
Co743 O752 2.097 . S
Co743 O756 2.042 . S
C744 O752 1.253 1_554 S
C744 O757 1.263 . S
H745 C741 0.931 . S
O746 Co731 2.262 . S
O746 Co743 2.097 . S
O746 C770 1.253 . S
O747 Co743 2.065 . S
O747 C763 1.221 . S
O748 Co743 2.065 . S
O748 C758 1.221 . S
O749 Co743 2.042 . S
O749 C764 1.237 . S
O750 Co731 1.958 . S
O750 C764 1.278 . S
O751 Co737 1.950 . S
O751 C763 1.277 1_554 S
O752 Co737 2.262 1_556 S
O752 Co743 2.097 . S
O752 C744 1.253 1_556 S
O753 Co737 1.958 . S
O753 C771 1.278 1_554 S
O754 Co731 1.950 . S
O754 C758 1.277 . S
O755 Co731 2.057 . S
O755 C770 1.263 . S
O756 Co743 2.042 . S
O756 C771 1.237 . S
O757 Co737 2.057 . S
O757 C744 1.263 . S
C758 O748 1.221 . S
C758 O754 1.277 . S
C759 C742 1.361 . S
C759 H760 0.960 . S
C759 H761 0.961 . S
C759 H762 0.961 . S
H760 C759 0.960 . S
H761 C759 0.961 . S
H762 C759 0.961 . S
C763 O747 1.221 . S
C763 O751 1.277 1_556 S
C764 O749 1.237 . S
C764 O750 1.278 . S
H765 C733 0.931 . S
H766 C769 0.961 . S
H767 C769 0.961 . S
H768 C769 0.960 . S
C769 C735 1.361 . S
C769 H766 0.961 . S
C769 H767 0.961 . S
C769 H768 0.960 . S
C770 O746 1.253 . S
C770 O755 1.263 . S
C771 O753 1.278 1_556 S
C771 O756 1.237 . S
H772 C736 0.930 . S
H773 C740 0.930 . S
C774 C775 1.387 . S
C774 H778 0.950 . S
C774 C783 1.390 . S
C775 C774 1.387 . S
C775 C777 1.387 . S
H776 C783 0.950 . S
C777 C775 1.387 . S
C777 C779 1.390 . S
C777 H781 0.950 . S
H778 C774 0.950 . S
C779 C777 1.390 . S
C779 C780 1.387 . S
C779 H782 0.950 . S
C780 C779 1.387 . S
C780 C783 1.387 . S
H781 C777 0.950 . S
H782 C779 0.950 . S
C783 C774 1.390 . S
C783 H776 0.950 . S
C783 C780 1.387 . S
C784 C785 1.387 . S
C784 H788 0.950 . S
C784 C793 1.390 1_545 S
C785 C784 1.387 . S
C785 C787 1.387 . S
H786 C793 0.950 . S
C787 C785 1.387 . S
C787 C789 1.390 1_545 S
C787 H791 0.950 . S
H788 C784 0.950 . S
C789 C787 1.390 1_565 S
C789 C790 1.387 . S
C789 H792 0.950 . S
C790 C789 1.387 . S
C790 C793 1.387 . S
H791 C787 0.950 . S
H792 C789 0.950 . S
C793 C784 1.390 1_565 S
C793 H786 0.950 . S
C793 C790 1.387 . S
C794 C795 1.387 . S
C794 H798 0.950 . S
C794 C803 1.390 1_655 S
C795 C794 1.387 . S
C795 C797 1.387 . S
H796 C803 0.950 . S
C797 C795 1.387 . S
C797 C799 1.390 1_655 S
C797 H801 0.950 . S
H798 C794 0.950 . S
C799 C797 1.390 1_455 S
C799 C800 1.387 . S
C799 H802 0.950 . S
C800 C799 1.387 . S
C800 C803 1.387 . S
H801 C797 0.950 . S
H802 C799 0.950 . S
C803 C794 1.390 1_455 S
C803 H796 0.950 . S
C803 C800 1.387 . S
C804 C805 1.387 . S
C804 H808 0.950 . S
C804 C813 1.390 . S
C805 C804 1.387 . S
C805 C807 1.387 . S
H806 C813 0.950 . S
C807 C805 1.387 . S
C807 C809 1.390 . S
C807 H811 0.950 . S
H808 C804 0.950 . S
C809 C807 1.390 . S
C809 C810 1.387 . S
C809 H812 0.950 . S
C810 C809 1.387 . S
C810 C813 1.387 . S
H811 C807 0.950 . S
H812 C809 0.950 . S
C813 C804 1.390 . S
C813 H806 0.950 . S
C813 C810 1.387 . S
C814 C815 1.387 . S
C814 H818 0.950 . S
C814 C823 1.390 1_545 S
C815 C814 1.387 . S
C815 C817 1.387 . S
H816 C823 0.950 . S
C817 C815 1.387 . S
C817 C819 1.390 1_545 S
C817 H821 0.950 . S
H818 C814 0.950 . S
C819 C817 1.390 1_565 S
C819 C820 1.387 . S
C819 H822 0.950 . S
C820 C819 1.387 . S
C820 C823 1.387 . S
H821 C817 0.950 . S
H822 C819 0.950 . S
C823 C814 1.390 1_565 S
C823 H816 0.950 . S
C823 C820 1.387 . S
C824 C825 1.387 . S
C824 H828 0.950 . S
C824 C833 1.390 1_455 S
C825 C824 1.387 . S
C825 C827 1.387 . S
H826 C833 0.950 . S
C827 C825 1.387 . S
C827 C829 1.377 1_455 S
C827 H831 0.950 . S
H828 C824 0.950 . S
C829 C827 1.377 1_655 S
C829 C830 1.395 . S
C829 H832 0.956 . S
C830 C829 1.395 . S
C830 C833 1.387 . S
H831 C827 0.950 . S
H832 C829 0.956 . S
C833 C824 1.390 1_655 S
C833 H826 0.950 . S
C833 C830 1.387 . S
C834 C835 1.387 . S
C834 H838 0.950 . S
C834 C843 1.390 . S
C835 C834 1.387 . S
C835 C837 1.387 . S
H836 C843 0.950 . S
C837 C835 1.387 . S
C837 C839 1.390 . S
C837 H841 0.950 . S
H838 C834 0.950 . S
C839 C837 1.390 . S
C839 C840 1.387 . S
C839 H842 0.950 . S
C840 C839 1.387 . S
C840 C843 1.387 . S
H841 C837 0.950 . S
H842 C839 0.950 . S
C843 C834 1.390 . S
C843 H836 0.950 . S
C843 C840 1.387 . S
C844 C845 1.387 . S
C844 H848 0.950 . S
C844 C853 1.390 . S
C845 C844 1.387 . S
C845 C847 1.387 . S
H846 C853 0.950 . S
C847 C845 1.387 . S
C847 C849 1.390 . S
C847 H851 0.950 . S
H848 C844 0.950 . S
C849 C847 1.390 . S
C849 C850 1.387 . S
C849 H852 0.950 . S
C850 C849 1.387 . S
C850 C853 1.387 . S
H851 C847 0.950 . S
H852 C849 0.950 . S
C853 C844 1.390 . S
C853 H846 0.950 . S
C853 C850 1.387 . S
C854 C855 1.387 . S
C854 H858 0.950 . S
C854 C863 1.390 . S
C855 C854 1.387 . S
C855 C857 1.387 . S
H856 C863 0.950 . S
C857 C855 1.387 . S
C857 C859 1.390 . S
C857 H861 0.950 . S
H858 C854 0.950 . S
C859 C857 1.390 . S
C859 C860 1.387 . S
C859 H862 0.950 . S
C860 C859 1.387 . S
C860 C863 1.387 . S
H861 C857 0.950 . S
H862 C859 0.950 . S
C863 C854 1.390 . S
C863 H856 0.950 . S
C863 C860 1.387 . S
C864 C865 1.387 . S
C864 H868 0.950 . S
C864 C873 1.390 . S
C865 C864 1.387 . S
C865 C867 1.387 . S
H866 C873 0.950 . S
C867 C865 1.387 . S
C867 C869 1.390 . S
C867 H871 0.950 . S
H868 C864 0.950 . S
C869 C867 1.390 . S
C869 C870 1.387 . S
C869 H872 0.950 . S
C870 C869 1.387 . S
C870 C873 1.387 . S
H871 C867 0.950 . S
H872 C869 0.950 . S
C873 C864 1.390 . S
C873 H866 0.950 . S
C873 C870 1.387 . S
C874 C875 1.387 . S
C874 H878 0.950 . S
C874 C883 1.390 . S
C875 C874 1.387 . S
C875 C877 1.387 . S
H876 C883 0.950 . S
C877 C875 1.387 . S
C877 C879 1.390 . S
C877 H881 0.950 . S
H878 C874 0.950 . S
C879 C877 1.390 . S
C879 C880 1.387 . S
C879 H882 0.950 . S
C880 C879 1.387 . S
C880 C883 1.387 . S
H881 C877 0.950 . S
H882 C879 0.950 . S
C883 C874 1.390 . S
C883 H876 0.950 . S
C883 C880 1.387 . S
C884 C885 1.387 . S
C884 H888 0.950 . S
C884 C893 1.390 . S
C885 C884 1.387 . S
C885 C887 1.387 . S
H886 C893 0.950 . S
C887 C885 1.387 . S
C887 C889 1.390 . S
C887 H891 0.950 . S
H888 C884 0.950 . S
C889 C887 1.390 . S
C889 C890 1.387 . S
C889 H892 0.950 . S
C890 C889 1.387 . S
C890 C893 1.387 . S
H891 C887 0.950 . S
H892 C889 0.950 . S
C893 C884 1.390 . S
C893 H886 0.950 . S
C893 C890 1.387 . S
C894 C895 1.387 . S
C894 H898 0.950 . S
C894 C903 1.390 . S
C895 C894 1.387 . S
C895 C897 1.387 . S
H896 C903 0.950 . S
C897 C895 1.387 . S
C897 C899 1.390 . S
C897 H901 0.950 . S
H898 C894 0.950 . S
C899 C897 1.390 . S
C899 C900 1.387 . S
C899 H902 0.950 . S
C900 C899 1.387 . S
C900 C903 1.387 . S
H901 C897 0.950 . S
H902 C899 0.950 . S
C903 C894 1.390 . S
C903 H896 0.950 . S
C903 C900 1.387 . S
C904 C905 1.387 . S
C904 H908 0.950 . S
C904 C913 1.390 . S
C905 C904 1.387 . S
C905 C907 1.387 . S
H906 C913 0.950 . S
C907 C905 1.387 . S
C907 C909 1.390 . S
C907 H911 0.950 . S
H908 C904 0.950 . S
C909 C907 1.390 . S
C909 C910 1.387 . S
C909 H912 0.950 . S
C910 C909 1.387 . S
C910 C913 1.387 . S
H911 C907 0.950 . S
H912 C909 0.950 . S
C913 C904 1.390 . S
C913 H906 0.950 . S
C913 C910 1.387 . S
C914 C915 1.387 . S
C914 H918 0.950 . S
C914 C923 1.390 . S
C915 C914 1.387 . S
C915 C917 1.387 . S
H916 C923 0.950 . S
C917 C915 1.387 . S
C917 C919 1.390 . S
C917 H921 0.950 . S
H918 C914 0.950 . S
C919 C917 1.390 . S
C919 C920 1.387 . S
C919 H922 0.950 . S
C920 C919 1.387 . S
C920 C923 1.387 . S
H921 C917 0.950 . S
H922 C919 0.950 . S
C923 C914 1.390 . S
C923 H916 0.950 . S
C923 C920 1.387 . S
C924 C925 1.387 . S
C924 H928 0.950 . S
C924 C933 1.390 . S
C925 C924 1.387 . S
C925 C927 1.387 . S
H926 C933 0.950 . S
C927 C925 1.387 . S
C927 C929 1.390 . S
C927 H931 0.950 1_556 S
H928 C924 0.950 . S
C929 C927 1.390 . S
C929 C930 1.387 . S
C929 H932 0.950 . S
C930 C929 1.387 . S
C930 C933 1.387 . S
H931 C927 0.950 1_554 S
H932 C929 0.950 . S
C933 C924 1.390 . S
C933 H926 0.950 . S
C933 C930 1.387 . S
C934 C935 1.387 . S
C934 H938 0.950 . S
C934 C943 1.390 . S
C935 C934 1.387 . S
C935 C937 1.387 . S
H936 C943 0.950 . S
C937 C935 1.387 . S
C937 C939 1.390 . S
C937 H941 0.950 . S
H938 C934 0.950 . S
C939 C937 1.390 . S
C939 C940 1.387 . S
C939 H942 0.950 . S
C940 C939 1.387 . S
C940 C943 1.387 . S
H941 C937 0.950 . S
H942 C939 0.950 . S
C943 C934 1.390 . S
C943 H936 0.950 . S
C943 C940 1.387 . S
C944 C945 1.387 . S
C944 H948 0.950 . S
C944 C953 1.390 . S
C945 C944 1.387 . S
C945 C947 1.387 . S
H946 C953 0.950 . S
C947 C945 1.387 . S
C947 C949 1.390 . S
C947 H951 0.950 . S
H948 C944 0.950 . S
C949 C947 1.390 . S
C949 C950 1.387 . S
C949 H952 0.950 . S
C950 C949 1.387 . S
C950 C953 1.387 . S
H951 C947 0.950 . S
H952 C949 0.950 . S
C953 C944 1.390 . S
C953 H946 0.950 . S
C953 C950 1.387 . S
C954 C955 1.387 . S
C954 H958 0.950 . S
C954 C963 1.390 . S
C955 C954 1.387 . S
C955 C957 1.387 . S
H956 C963 0.950 . S
C957 C955 1.387 . S
C957 C959 1.390 . S
C957 H961 0.950 . S
H958 C954 0.950 . S
C959 C957 1.390 . S
C959 C960 1.387 . S
C959 H962 0.950 . S
C960 C959 1.387 . S
C960 C963 1.387 . S
H961 C957 0.950 . S
H962 C959 0.950 . S
C963 C954 1.390 . S
C963 H956 0.950 . S
C963 C960 1.387 . S
C964 C965 1.387 . S
C964 H968 0.950 . S
C964 C973 1.390 . S
C965 C964 1.387 . S
C965 C967 1.387 . S
H966 C973 0.950 . S
C967 C965 1.387 . S
C967 C969 1.390 . S
C967 H971 0.950 . S
H968 C964 0.950 . S
C969 C967 1.390 . S
C969 C970 1.387 . S
C969 H972 0.950 . S
C970 C969 1.387 . S
C970 C973 1.387 . S
H971 C967 0.950 . S
H972 C969 0.950 . S
C973 C964 1.390 . S
C973 H966 0.950 . S
C973 C970 1.387 . S
C974 C975 1.387 . S
C974 H978 0.950 . S
C974 C983 1.390 . S
C975 C974 1.387 . S
C975 C977 1.387 . S
H976 C983 0.950 . S
C977 C975 1.387 . S
C977 C979 1.390 . S
C977 H981 0.950 . S
H978 C974 0.950 . S
C979 C977 1.390 . S
C979 C980 1.387 . S
C979 H982 0.950 . S
C980 C979 1.387 . S
C980 C983 1.387 . S
H981 C977 0.950 . S
H982 C979 0.950 . S
C983 C974 1.390 . S
C983 H976 0.950 . S
C983 C980 1.387 . S
C984 C985 1.387 . S
C984 H988 0.950 . S
C984 C993 1.390 . S
C985 C984 1.387 . S
C985 C987 1.387 . S
H986 C993 0.950 . S
C987 C985 1.387 . S
C987 C989 1.390 . S
C987 H991 0.950 . S
H988 C984 0.950 . S
C989 C987 1.390 . S
C989 C990 1.387 . S
C989 H992 0.950 . S
C990 C989 1.387 . S
C990 C993 1.387 . S
H991 C987 0.950 . S
H992 C989 0.950 . S
C993 C984 1.390 . S
C993 H986 0.950 . S
C993 C990 1.387 . S
C994 C995 1.387 . S
C994 H998 0.950 1_556 S
C994 C1003 1.390 . S
C995 C994 1.387 . S
C995 C997 1.387 . S
H996 C1003 0.950 . S
C997 C995 1.387 . S
C997 C999 1.390 . S
C997 H1001 0.950 . S
H998 C994 0.950 1_554 S
C999 C997 1.390 . S
C999 C1000 1.387 . S
C999 H1002 0.950 . S
C1000 C999 1.387 . S
C1000 C1003 1.387 . S
H1001 C997 0.950 . S
H1002 C999 0.950 . S
C1003 C994 1.390 . S
C1003 H996 0.950 . S
C1003 C1000 1.387 . S
C1004 C1005 1.387 . S
C1004 H1008 0.950 . S
C1004 C1013 1.390 . S
C1005 C1004 1.387 . S
C1005 C1007 1.387 . S
H1006 C1013 0.950 . S
C1007 C1005 1.387 . S
C1007 C1009 1.390 . S
C1007 H1011 0.950 . S
H1008 C1004 0.950 . S
C1009 C1007 1.390 . S
C1009 C1010 1.387 . S
C1009 H1012 0.950 . S
C1010 C1009 1.387 . S
C1010 C1013 1.387 . S
H1011 C1007 0.950 . S
H1012 C1009 0.950 . S
C1013 C1004 1.390 . S
C1013 H1006 0.950 . S
C1013 C1010 1.387 . S
C1014 C1015 1.387 . S
C1014 H1018 0.950 . S
C1014 C1023 1.390 . S
C1015 C1014 1.387 . S
C1015 C1017 1.387 . S
H1016 C1023 0.950 . S
C1017 C1015 1.387 . S
C1017 C1019 1.390 . S
C1017 H1021 0.950 . S
H1018 C1014 0.950 . S
C1019 C1017 1.390 . S
C1019 C1020 1.387 . S
C1019 H1022 0.950 . S
C1020 C1019 1.387 . S
C1020 C1023 1.387 . S
H1021 C1017 0.950 . S
H1022 C1019 0.950 . S
C1023 C1014 1.390 . S
C1023 H1016 0.950 . S
C1023 C1020 1.387 . S
C1024 C1025 1.387 . S
C1024 H1028 0.950 . S
C1024 C1033 1.390 . S
C1025 C1024 1.387 . S
C1025 C1027 1.387 . S
H1026 C1033 0.950 . S
C1027 C1025 1.387 . S
C1027 C1029 1.390 . S
C1027 H1031 0.950 . S
H1028 C1024 0.950 . S
C1029 C1027 1.390 . S
C1029 C1030 1.387 . S
C1029 H1032 0.950 . S
C1030 C1029 1.387 . S
C1030 C1033 1.387 . S
H1031 C1027 0.950 . S
H1032 C1029 0.950 . S
C1033 C1024 1.390 . S
C1033 H1026 0.950 . S
C1033 C1030 1.387 . S
C1034 C1035 1.387 . S
C1034 H1038 0.950 . S
C1034 C1043 1.390 . S
C1035 C1034 1.387 . S
C1035 C1037 1.387 . S
H1036 C1043 0.950 . S
C1037 C1035 1.387 . S
C1037 C1039 1.390 . S
C1037 H1041 0.950 . S
H1038 C1034 0.950 . S
C1039 C1037 1.390 . S
C1039 C1040 1.387 . S
C1039 H1042 0.950 . S
C1040 C1039 1.387 . S
C1040 C1043 1.387 . S
H1041 C1037 0.950 . S
H1042 C1039 0.950 . S
C1043 C1034 1.390 . S
C1043 H1036 0.950 . S
C1043 C1040 1.387 . S
C1044 C1045 1.387 . S
C1044 H1048 0.950 . S
C1044 C1053 1.390 . S
C1045 C1044 1.387 . S
C1045 C1047 1.387 . S
H1046 C1053 0.942 1_556 S
C1047 C1045 1.387 . S
C1047 C1049 1.390 . S
C1047 H1051 0.950 . S
H1048 C1044 0.950 . S
C1049 C1047 1.390 . S
C1049 C1050 1.387 . S
C1049 H1052 0.950 . S
C1050 C1049 1.387 . S
C1050 C1053 1.387 . S
H1051 C1047 0.950 . S
H1052 C1049 0.950 . S
C1053 C1044 1.390 . S
C1053 H1046 0.942 1_554 S
C1053 C1050 1.387 . S
C1054 C1055 1.387 . S
C1054 H1058 0.950 . S
C1054 C1063 1.390 . S
C1055 C1054 1.387 . S
C1055 C1057 1.387 . S
H1056 C1063 0.950 . S
C1057 C1055 1.387 . S
C1057 C1059 1.390 . S
C1057 H1061 0.950 . S
H1058 C1054 0.950 . S
C1059 C1057 1.390 . S
C1059 C1060 1.387 . S
C1059 H1062 0.950 1_554 S
C1060 C1059 1.387 . S
C1060 C1063 1.387 . S
H1061 C1057 0.950 . S
H1062 C1059 0.950 1_556 S
C1063 C1054 1.390 . S
C1063 H1056 0.950 . S
C1063 C1060 1.387 . S
C1064 C1065 1.387 . S
C1064 H1068 0.950 . S
C1064 C1073 1.390 . S
C1065 C1064 1.387 . S
C1065 C1067 1.387 . S
H1066 C1073 0.950 . S
C1067 C1065 1.387 . S
C1067 C1069 1.390 . S
C1067 H1071 0.950 . S
H1068 C1064 0.950 . S
C1069 C1067 1.390 . S
C1069 C1070 1.387 . S
C1069 H1072 0.950 . S
C1070 C1069 1.387 . S
C1070 C1073 1.387 . S
H1071 C1067 0.950 . S
H1072 C1069 0.950 . S
C1073 C1064 1.390 . S
C1073 H1066 0.950 . S
C1073 C1070 1.387 . S
C1074 C1075 1.387 . S
C1074 H1078 0.950 . S
C1074 C1083 1.390 . S
C1075 C1074 1.387 . S
C1075 C1077 1.387 . S
H1076 C1083 0.950 . S
C1077 C1075 1.387 . S
C1077 C1079 1.390 . S
C1077 H1081 0.950 . S
H1078 C1074 0.950 . S
C1079 C1077 1.390 . S
C1079 C1080 1.387 . S
C1079 H1082 0.950 . S
C1080 C1079 1.387 . S
C1080 C1083 1.387 . S
H1081 C1077 0.950 . S
H1082 C1079 0.950 . S
C1083 C1074 1.390 . S
C1083 H1076 0.950 . S
C1083 C1080 1.387 . S
C1084 C1085 1.387 . S
C1084 H1088 0.950 . S
C1084 C1093 1.390 . S
C1085 C1084 1.387 . S
C1085 C1087 1.387 . S
H1086 C1093 0.950 . S
C1087 C1085 1.387 . S
C1087 C1089 1.390 . S
C1087 H1091 0.950 . S
H1088 C1084 0.950 . S
C1089 C1087 1.390 . S
C1089 C1090 1.387 . S
C1089 H1092 0.950 . S
C1090 C1089 1.387 . S
C1090 C1093 1.387 . S
H1091 C1087 0.950 . S
H1092 C1089 0.950 . S
C1093 C1084 1.390 . S
C1093 H1086 0.950 . S
C1093 C1090 1.387 . S
C1094 C1095 1.387 . S
C1094 H1098 0.950 . S
C1094 C1103 1.390 . S
C1095 C1094 1.387 . S
C1095 C1097 1.387 . S
H1096 C1103 0.950 . S
C1097 C1095 1.387 . S
C1097 C1099 1.390 . S
C1097 H1101 0.950 . S
H1098 C1094 0.950 . S
C1099 C1097 1.390 . S
C1099 C1100 1.387 . S
C1099 H1102 0.950 . S
C1100 C1099 1.387 . S
C1100 C1103 1.387 . S
H1101 C1097 0.950 . S
H1102 C1099 0.950 . S
C1103 C1094 1.390 . S
C1103 H1096 0.950 . S
C1103 C1100 1.387 . S
C1104 C1105 1.387 . S
C1104 H1108 0.950 . S
C1104 C1113 1.390 . S
C1105 C1104 1.387 . S
C1105 C1107 1.387 . S
H1106 C1113 0.950 . S
C1107 C1105 1.387 . S
C1107 C1109 1.390 . S
C1107 H1111 0.950 . S
H1108 C1104 0.950 . S
C1109 C1107 1.390 . S
C1109 C1110 1.387 . S
C1109 H1112 0.950 . S
C1110 C1109 1.387 . S
C1110 C1113 1.387 . S
H1111 C1107 0.950 . S
H1112 C1109 0.950 . S
C1113 C1104 1.390 . S
C1113 H1106 0.950 . S
C1113 C1110 1.387 . S
C1114 C1115 1.387 . S
C1114 H1118 0.950 . S
C1114 C1123 1.390 . S
C1115 C1114 1.387 . S
C1115 C1117 1.387 . S
H1116 C1123 0.950 . S
C1117 C1115 1.387 . S
C1117 C1119 1.390 . S
C1117 H1121 0.950 . S
H1118 C1114 0.950 . S
C1119 C1117 1.390 . S
C1119 C1120 1.387 . S
C1119 H1122 0.950 . S
C1120 C1119 1.387 . S
C1120 C1123 1.387 . S
H1121 C1117 0.950 . S
H1122 C1119 0.950 . S
C1123 C1114 1.390 . S
C1123 H1116 0.950 . S
C1123 C1120 1.387 . S
C1124 C1125 1.387 . S
C1124 H1128 0.950 . S
C1124 C1133 1.390 . S
C1125 C1124 1.387 . S
C1125 C1127 1.387 . S
H1126 C1133 0.950 . S
C1127 C1125 1.387 . S
C1127 C1129 1.390 . S
C1127 H1131 0.950 . S
H1128 C1124 0.950 . S
C1129 C1127 1.390 . S
C1129 C1130 1.387 . S
C1129 H1132 0.950 . S
C1130 C1129 1.387 . S
C1130 C1133 1.387 . S
H1131 C1127 0.950 . S
H1132 C1129 0.950 . S
C1133 C1124 1.390 . S
C1133 H1126 0.950 . S
C1133 C1130 1.387 . S
C1134 C1135 1.387 . S
C1134 H1138 0.950 . S
C1134 C1143 1.390 . S
C1135 C1134 1.387 . S
C1135 C1137 1.387 . S
H1136 C1143 0.950 . S
C1137 C1135 1.387 . S
C1137 C1139 1.390 . S
C1137 H1141 0.950 . S
H1138 C1134 0.950 . S
C1139 C1137 1.390 . S
C1139 C1140 1.387 . S
C1139 H1142 0.950 . S
C1140 C1139 1.387 . S
C1140 C1143 1.387 . S
H1141 C1137 0.950 . S
H1142 C1139 0.950 . S
C1143 C1134 1.390 . S
C1143 H1136 0.950 . S
C1143 C1140 1.387 . S
C1144 C1145 1.387 . S
C1144 H1148 0.950 . S
C1144 C1153 1.390 . S
C1145 C1144 1.387 . S
C1145 C1147 1.387 . S
H1146 C1153 0.950 . S
C1147 C1145 1.387 . S
C1147 C1149 1.390 . S
C1147 H1151 0.950 . S
H1148 C1144 0.950 . S
C1149 C1147 1.390 . S
C1149 C1150 1.387 . S
C1149 H1152 0.950 . S
C1150 C1149 1.387 . S
C1150 C1153 1.387 . S
H1151 C1147 0.950 . S
H1152 C1149 0.950 . S
C1153 C1144 1.390 . S
C1153 H1146 0.950 . S
C1153 C1150 1.387 . S
C1154 C1155 1.387 . S
C1154 H1158 0.950 . S
C1154 C1163 1.390 . S
C1155 C1154 1.387 . S
C1155 C1157 1.387 . S
H1156 C1163 0.950 . S
C1157 C1155 1.387 . S
C1157 C1159 1.390 . S
C1157 H1161 0.950 . S
H1158 C1154 0.950 . S
C1159 C1157 1.390 . S
C1159 C1160 1.387 . S
C1159 H1162 0.950 . S
C1160 C1159 1.387 . S
C1160 C1163 1.387 . S
H1161 C1157 0.950 . S
H1162 C1159 0.950 . S
C1163 C1154 1.390 . S
C1163 H1156 0.950 . S
C1163 C1160 1.387 . S
C1164 C1165 1.387 . S
C1164 H1168 0.950 . S
C1164 C1173 1.390 . S
C1165 C1164 1.387 . S
C1165 C1167 1.387 . S
H1166 C1173 0.950 . S
C1167 C1165 1.387 . S
C1167 C1169 1.390 . S
C1167 H1171 0.950 . S
H1168 C1164 0.950 . S
C1169 C1167 1.390 . S
C1169 C1170 1.387 . S
C1169 H1172 0.950 . S
C1170 C1169 1.387 . S
C1170 C1173 1.387 . S
H1171 C1167 0.950 . S
H1172 C1169 0.950 . S
C1173 C1164 1.390 . S
C1173 H1166 0.950 . S
C1173 C1170 1.387 . S
C1174 C1175 1.387 . S
C1174 H1178 0.950 . S
C1174 C1183 1.390 . S
C1175 C1174 1.387 . S
C1175 C1177 1.387 . S
H1176 C1183 0.950 . S
C1177 C1175 1.387 . S
C1177 C1179 1.390 . S
C1177 H1181 0.950 . S
H1178 C1174 0.950 . S
C1179 C1177 1.390 . S
C1179 C1180 1.387 . S
C1179 H1182 0.950 . S
C1180 C1179 1.387 . S
C1180 C1183 1.387 . S
H1181 C1177 0.950 . S
H1182 C1179 0.950 . S
C1183 C1174 1.390 . S
C1183 H1176 0.950 . S
C1183 C1180 1.387 . S
C1184 C1185 1.387 . S
C1184 H1188 0.950 . S
C1184 C1193 1.390 . S
C1185 C1184 1.387 . S
C1185 C1187 1.387 . S
H1186 C1193 0.950 . S
C1187 C1185 1.387 . S
C1187 C1189 1.390 . S
C1187 H1191 0.950 . S
H1188 C1184 0.950 . S
C1189 C1187 1.390 . S
C1189 C1190 1.387 . S
C1189 H1192 0.950 . S
C1190 C1189 1.387 . S
C1190 C1193 1.387 . S
H1191 C1187 0.950 . S
H1192 C1189 0.950 . S
C1193 C1184 1.390 . S
C1193 H1186 0.950 . S
C1193 C1190 1.387 . S
C1194 C1195 1.387 . S
C1194 H1198 0.950 . S
C1194 C1203 1.390 . S
C1195 C1194 1.387 . S
C1195 C1197 1.387 . S
H1196 C1203 0.950 . S
C1197 C1195 1.387 . S
C1197 C1199 1.390 . S
C1197 H1201 0.950 . S
H1198 C1194 0.950 . S
C1199 C1197 1.390 . S
C1199 C1200 1.387 . S
C1199 H1202 0.950 . S
C1200 C1199 1.387 . S
C1200 C1203 1.387 . S
H1201 C1197 0.950 . S
H1202 C1199 0.950 . S
C1203 C1194 1.390 . S
C1203 H1196 0.950 . S
C1203 C1200 1.387 . S
C1204 C1205 1.387 . S
C1204 H1208 0.950 . S
C1204 C1213 1.390 . S
C1205 C1204 1.387 . S
C1205 C1207 1.387 . S
H1206 C1213 0.950 . S
C1207 C1205 1.387 . S
C1207 C1209 1.390 . S
C1207 H1211 0.950 . S
H1208 C1204 0.950 . S
C1209 C1207 1.390 . S
C1209 C1210 1.387 . S
C1209 H1212 0.950 . S
C1210 C1209 1.387 . S
C1210 C1213 1.387 . S
H1211 C1207 0.950 . S
H1212 C1209 0.950 . S
C1213 C1204 1.390 . S
C1213 H1206 0.950 . S
C1213 C1210 1.387 . S
C1214 C1215 1.387 . S
C1214 H1218 0.950 . S
C1214 C1223 1.390 . S
C1215 C1214 1.387 . S
C1215 C1217 1.387 . S
H1216 C1223 0.950 . S
C1217 C1215 1.387 . S
C1217 C1219 1.390 . S
C1217 H1221 0.950 . S
H1218 C1214 0.950 . S
C1219 C1217 1.390 . S
C1219 C1220 1.387 . S
C1219 H1222 0.950 . S
C1220 C1219 1.387 . S
C1220 C1223 1.387 . S
H1221 C1217 0.950 . S
H1222 C1219 0.950 . S
C1223 C1214 1.390 . S
C1223 H1216 0.950 . S
C1223 C1220 1.387 . S
C1224 C1225 1.387 . S
C1224 H1228 0.950 . S
C1224 C1233 1.390 . S
C1225 C1224 1.387 . S
C1225 C1227 1.387 . S
H1226 C1233 0.950 . S
C1227 C1225 1.387 . S
C1227 C1229 1.390 . S
C1227 H1231 0.950 . S
H1228 C1224 0.950 . S
C1229 C1227 1.390 . S
C1229 C1230 1.387 . S
C1229 H1232 0.950 . S
C1230 C1229 1.387 . S
C1230 C1233 1.387 . S
H1231 C1227 0.950 . S
H1232 C1229 0.950 . S
C1233 C1224 1.390 . S
C1233 H1226 0.950 . S
C1233 C1230 1.387 . S
C1234 C1235 1.387 . S
C1234 H1238 0.950 . S
C1234 C1243 1.390 . S
C1235 C1234 1.387 . S
C1235 C1237 1.387 . S
H1236 C1243 0.950 . S
C1237 C1235 1.387 . S
C1237 C1239 1.390 . S
C1237 H1241 0.950 . S
H1238 C1234 0.950 . S
C1239 C1237 1.390 . S
C1239 C1240 1.387 . S
C1239 H1242 0.950 . S
C1240 C1239 1.387 . S
C1240 C1243 1.387 . S
H1241 C1237 0.950 . S
H1242 C1239 0.950 . S
C1243 C1234 1.390 . S
C1243 H1236 0.950 . S
C1243 C1240 1.387 . S
C1244 C1245 1.387 . S
C1244 H1248 0.950 . S
C1244 C1253 1.390 . S
C1245 C1244 1.387 . S
C1245 C1247 1.387 . S
H1246 C1253 0.950 . S
C1247 C1245 1.387 . S
C1247 C1249 1.390 . S
C1247 H1251 0.950 . S
H1248 C1244 0.950 . S
C1249 C1247 1.390 . S
C1249 C1250 1.387 . S
C1249 H1252 0.950 . S
C1250 C1249 1.387 . S
C1250 C1253 1.387 . S
H1251 C1247 0.950 . S
H1252 C1249 0.950 . S
C1253 C1244 1.390 . S
C1253 H1246 0.950 . S
C1253 C1250 1.387 . S
C1254 C1255 1.387 . S
C1254 H1258 0.950 . S
C1254 C1263 1.390 . S
C1255 C1254 1.387 . S
C1255 C1257 1.387 . S
H1256 C1263 0.950 . S
C1257 C1255 1.387 . S
C1257 C1259 1.390 . S
C1257 H1261 0.950 . S
H1258 C1254 0.950 . S
C1259 C1257 1.390 . S
C1259 C1260 1.387 . S
C1259 H1262 0.950 . S
C1260 C1259 1.387 . S
C1260 C1263 1.387 . S
H1261 C1257 0.950 . S
H1262 C1259 0.950 . S
C1263 C1254 1.390 . S
C1263 H1256 0.950 . S
C1263 C1260 1.387 . S
C1264 C1265 1.387 . S
C1264 H1268 0.950 1_554 S
C1264 C1273 1.390 . S
C1265 C1264 1.387 . S
C1265 C1267 1.387 . S
H1266 C1273 0.950 . S
C1267 C1265 1.387 . S
C1267 C1269 1.390 . S
C1267 H1271 0.950 . S
H1268 C1264 0.950 1_556 S
C1269 C1267 1.390 . S
C1269 C1270 1.387 . S
C1269 H1272 0.950 . S
C1270 C1269 1.387 . S
C1270 C1273 1.387 . S
H1271 C1267 0.950 . S
H1272 C1269 0.950 . S
C1273 C1264 1.390 . S
C1273 H1266 0.950 . S
C1273 C1270 1.387 . S
C1274 C1275 1.387 . S
C1274 H1278 0.950 . S
C1274 C1283 1.390 . S
C1275 C1274 1.387 . S
C1275 C1277 1.387 . S
H1276 C1283 0.950 . S
C1277 C1275 1.387 . S
C1277 C1279 1.390 . S
C1277 H1281 0.950 . S
H1278 C1274 0.950 . S
C1279 C1277 1.390 . S
C1279 C1280 1.387 . S
C1279 H1282 0.950 . S
C1280 C1279 1.387 . S
C1280 C1283 1.387 . S
H1281 C1277 0.950 . S
H1282 C1279 0.950 . S
C1283 C1274 1.390 . S
C1283 H1276 0.950 . S
C1283 C1280 1.387 . S
C1284 C1285 1.387 . S
C1284 H1288 0.950 . S
C1284 C1293 1.390 . S
C1285 C1284 1.387 . S
C1285 C1287 1.387 . S
H1286 C1293 0.950 . S
C1287 C1285 1.387 . S
C1287 C1289 1.390 . S
C1287 H1291 0.950 . S
H1288 C1284 0.950 . S
C1289 C1287 1.390 . S
C1289 C1290 1.387 . S
C1289 H1292 0.950 . S
C1290 C1289 1.387 . S
C1290 C1293 1.387 . S
H1291 C1287 0.950 . S
H1292 C1289 0.950 . S
C1293 C1284 1.390 . S
C1293 H1286 0.950 . S
C1293 C1290 1.387 . S
C1294 C1295 1.387 . S
C1294 H1298 0.950 . S
C1294 C1303 1.390 . S
C1295 C1294 1.387 . S
C1295 C1297 1.387 . S
H1296 C1303 0.950 . S
C1297 C1295 1.387 . S
C1297 C1299 1.390 . S
C1297 H1301 0.950 . S
H1298 C1294 0.950 . S
C1299 C1297 1.390 . S
C1299 C1300 1.387 . S
C1299 H1302 0.950 . S
C1300 C1299 1.387 . S
C1300 C1303 1.387 . S
H1301 C1297 0.950 . S
H1302 C1299 0.950 . S
C1303 C1294 1.390 . S
C1303 H1296 0.950 . S
C1303 C1300 1.387 . S
C1304 C1305 1.387 . S
C1304 H1308 0.950 . S
C1304 C1313 1.390 . S
C1305 C1304 1.387 . S
C1305 C1307 1.387 . S
H1306 C1313 0.950 . S
C1307 C1305 1.387 . S
C1307 C1309 1.390 . S
C1307 H1311 0.950 . S
H1308 C1304 0.950 . S
C1309 C1307 1.390 . S
C1309 C1310 1.387 . S
C1309 H1312 0.950 . S
C1310 C1309 1.387 . S
C1310 C1313 1.387 . S
H1311 C1307 0.950 . S
H1312 C1309 0.950 . S
C1313 C1304 1.390 . S
C1313 H1306 0.950 . S
C1313 C1310 1.387 . S
C1314 C1315 1.387 . S
C1314 H1318 0.950 . S
C1314 C1323 1.390 . S
C1315 C1314 1.387 . S
C1315 C1317 1.387 . S
H1316 C1323 0.950 . S
C1317 C1315 1.387 . S
C1317 C1319 1.390 . S
C1317 H1321 0.950 . S
H1318 C1314 0.950 . S
C1319 C1317 1.390 . S
C1319 C1320 1.387 . S
C1319 H1322 0.950 . S
C1320 C1319 1.387 . S
C1320 C1323 1.387 . S
H1321 C1317 0.950 . S
H1322 C1319 0.950 . S
C1323 C1314 1.390 . S
C1323 H1316 0.950 . S
C1323 C1320 1.387 . S
C1324 C1325 1.387 . S
C1324 H1328 0.950 . S
C1324 C1333 1.390 . S
C1325 C1324 1.387 . S
C1325 C1327 1.387 . S
H1326 C1333 0.950 . S
C1327 C1325 1.387 . S
C1327 C1329 1.390 . S
C1327 H1331 0.950 . S
H1328 C1324 0.950 . S
C1329 C1327 1.390 . S
C1329 C1330 1.387 . S
C1329 H1332 0.950 . S
C1330 C1329 1.387 . S
C1330 C1333 1.387 . S
H1331 C1327 0.950 . S
H1332 C1329 0.950 . S
C1333 C1324 1.390 . S
C1333 H1326 0.950 . S
C1333 C1330 1.387 . S
C1334 C1335 1.387 . S
C1334 H1338 0.950 . S
C1334 C1343 1.390 . S
C1335 C1334 1.387 . S
C1335 C1337 1.387 . S
H1336 C1343 0.950 . S
C1337 C1335 1.387 . S
C1337 C1339 1.390 . S
C1337 H1341 0.950 . S
H1338 C1334 0.950 . S
C1339 C1337 1.390 . S
C1339 C1340 1.387 . S
C1339 H1342 0.950 . S
C1340 C1339 1.387 . S
C1340 C1343 1.387 . S
H1341 C1337 0.950 . S
H1342 C1339 0.950 . S
C1343 C1334 1.390 . S
C1343 H1336 0.950 . S
C1343 C1340 1.387 . S
C1344 C1345 1.387 . S
C1344 H1348 0.950 . S
C1344 C1353 1.390 . S
C1345 C1344 1.387 . S
C1345 C1347 1.387 . S
H1346 C1353 0.950 . S
C1347 C1345 1.387 . S
C1347 C1349 1.390 . S
C1347 H1351 0.950 . S
H1348 C1344 0.950 . S
C1349 C1347 1.390 . S
C1349 C1350 1.387 . S
C1349 H1352 0.950 . S
C1350 C1349 1.387 . S
C1350 C1353 1.387 . S
H1351 C1347 0.950 . S
H1352 C1349 0.950 . S
C1353 C1344 1.390 . S
C1353 H1346 0.950 . S
C1353 C1350 1.387 . S
C1354 C1355 1.387 . S
C1354 H1358 0.950 . S
C1354 C1363 1.390 . S
C1355 C1354 1.387 . S
C1355 C1357 1.387 . S
H1356 C1363 0.950 . S
C1357 C1355 1.387 . S
C1357 C1359 1.390 . S
C1357 H1361 0.950 . S
H1358 C1354 0.950 . S
C1359 C1357 1.390 . S
C1359 C1360 1.387 . S
C1359 H1362 0.950 . S
C1360 C1359 1.387 . S
C1360 C1363 1.387 . S
H1361 C1357 0.950 . S
H1362 C1359 0.950 . S
C1363 C1354 1.390 . S
C1363 H1356 0.950 . S
C1363 C1360 1.387 . S
C1364 C1365 1.387 . S
C1364 H1368 0.950 . S
C1364 C1373 1.390 . S
C1365 C1364 1.387 . S
C1365 C1367 1.387 . S
H1366 C1373 0.950 . S
C1367 C1365 1.387 . S
C1367 C1369 1.390 . S
C1367 H1371 0.950 . S
H1368 C1364 0.950 . S
C1369 C1367 1.390 . S
C1369 C1370 1.387 . S
C1369 H1372 0.950 . S
C1370 C1369 1.387 . S
C1370 C1373 1.387 . S
H1371 C1367 0.950 . S
H1372 C1369 0.950 . S
C1373 C1364 1.390 . S
C1373 H1366 0.950 . S
C1373 C1370 1.387 . S
C1374 C1375 1.387 . S
C1374 H1378 0.950 . S
C1374 C1383 1.390 . S
C1375 C1374 1.387 . S
C1375 C1377 1.387 . S
H1376 C1383 0.950 . S
C1377 C1375 1.387 . S
C1377 C1379 1.390 . S
C1377 H1381 0.950 . S
H1378 C1374 0.950 . S
C1379 C1377 1.390 . S
C1379 C1380 1.387 . S
C1379 H1382 0.950 . S
C1380 C1379 1.387 . S
C1380 C1383 1.387 . S
H1381 C1377 0.950 . S
H1382 C1379 0.950 . S
C1383 C1374 1.390 . S
C1383 H1376 0.950 . S
C1383 C1380 1.387 . S
C1384 C1385 1.387 . S
C1384 H1388 0.950 . S
C1384 C1393 1.390 . S
C1385 C1384 1.387 . S
C1385 C1387 1.387 . S
H1386 C1393 0.950 . S
C1387 C1385 1.387 . S
C1387 C1389 1.390 . S
C1387 H1391 0.950 . S
H1388 C1384 0.950 . S
C1389 C1387 1.390 . S
C1389 C1390 1.387 . S
C1389 H1392 0.950 . S
C1390 C1389 1.387 . S
C1390 C1393 1.387 . S
H1391 C1387 0.950 . S
H1392 C1389 0.950 . S
C1393 C1384 1.390 . S
C1393 H1386 0.950 . S
C1393 C1390 1.387 . S
C1394 C1395 1.387 . S
C1394 H1398 0.950 . S
C1394 C1403 1.390 . S
C1395 C1394 1.387 . S
C1395 C1397 1.387 . S
H1396 C1403 0.950 . S
C1397 C1395 1.387 . S
C1397 C1399 1.390 . S
C1397 H1401 0.950 . S
H1398 C1394 0.950 . S
C1399 C1397 1.390 . S
C1399 C1400 1.387 . S
C1399 H1402 0.950 . S
C1400 C1399 1.387 . S
C1400 C1403 1.387 . S
H1401 C1397 0.950 . S
H1402 C1399 0.950 . S
C1403 C1394 1.390 . S
C1403 H1396 0.950 . S
C1403 C1400 1.387 . S
C1404 C1405 1.387 . S
C1404 H1408 0.950 . S
C1404 C1413 1.390 . S
C1405 C1404 1.387 . S
C1405 C1407 1.387 . S
H1406 C1413 0.950 . S
C1407 C1405 1.387 . S
C1407 C1409 1.390 . S
C1407 H1411 0.950 . S
H1408 C1404 0.950 . S
C1409 C1407 1.390 . S
C1409 C1410 1.387 . S
C1409 H1412 0.950 . S
C1410 C1409 1.387 . S
C1410 C1413 1.387 . S
H1411 C1407 0.950 . S
H1412 C1409 0.950 . S
C1413 C1404 1.390 . S
C1413 H1406 0.950 . S
C1413 C1410 1.387 . S
C1414 C1415 1.387 . S
C1414 H1418 0.950 . S
C1414 C1423 1.390 . S
C1415 C1414 1.387 . S
C1415 C1417 1.387 . S
H1416 C1423 0.950 . S
C1417 C1415 1.387 . S
C1417 C1419 1.390 . S
C1417 H1421 0.950 . S
H1418 C1414 0.950 . S
C1419 C1417 1.390 . S
C1419 C1420 1.387 . S
C1419 H1422 0.950 . S
C1420 C1419 1.387 . S
C1420 C1423 1.387 . S
H1421 C1417 0.950 . S
H1422 C1419 0.950 . S
C1423 C1414 1.390 . S
C1423 H1416 0.950 . S
C1423 C1420 1.387 . S
C1424 C1425 1.387 . S
C1424 H1428 0.950 . S
C1424 C1433 1.390 . S
C1425 C1424 1.387 . S
C1425 C1427 1.387 . S
H1426 C1433 0.950 . S
C1427 C1425 1.387 . S
C1427 C1429 1.390 . S
C1427 H1431 0.950 . S
H1428 C1424 0.950 . S
C1429 C1427 1.390 . S
C1429 C1430 1.387 . S
C1429 H1432 0.950 . S
C1430 C1429 1.387 . S
C1430 C1433 1.387 . S
H1431 C1427 0.950 . S
H1432 C1429 0.950 . S
C1433 C1424 1.390 . S
C1433 H1426 0.950 . S
C1433 C1430 1.387 . S
C1434 C1435 1.387 . S
C1434 H1438 0.950 . S
C1434 C1443 1.390 . S
C1435 C1434 1.387 . S
C1435 C1437 1.387 . S
H1436 C1443 0.950 . S
C1437 C1435 1.387 . S
C1437 C1439 1.390 . S
C1437 H1441 0.950 . S
H1438 C1434 0.950 . S
C1439 C1437 1.390 . S
C1439 C1440 1.387 . S
C1439 H1442 0.950 . S
C1440 C1439 1.387 . S
C1440 C1443 1.387 . S
H1441 C1437 0.950 . S
H1442 C1439 0.950 . S
C1443 C1434 1.390 . S
C1443 H1436 0.950 . S
C1443 C1440 1.387 . S
C1444 C1445 1.387 . S
C1444 H1448 0.950 . S
C1444 C1453 1.386 1_545 S
C1445 C1444 1.387 . S
C1445 C1447 1.387 . S
H1446 C1453 0.945 . S
C1447 C1445 1.387 . S
C1447 C1449 1.389 1_545 S
C1447 H1451 0.950 . S
H1448 C1444 0.950 . S
C1449 C1447 1.389 1_565 S
C1449 C1450 1.386 . S
C1449 H1452 0.953 . S
C1450 C1449 1.386 . S
C1450 C1453 1.396 . S
H1451 C1447 0.950 . S
H1452 C1449 0.953 . S
C1453 C1444 1.386 1_565 S
C1453 H1446 0.945 . S
C1453 C1450 1.396 . S
C1454 C1455 1.387 . S
C1454 H1458 0.950 . S
C1454 C1463 1.390 . S
C1455 C1454 1.387 . S
C1455 C1457 1.387 . S
H1456 C1463 0.950 . S
C1457 C1455 1.387 . S
C1457 C1459 1.390 1_455 S
C1457 H1461 0.949 1_455 S
H1458 C1454 0.950 . S
C1459 C1457 1.390 1_655 S
C1459 C1460 1.387 . S
C1459 H1462 0.950 . S
C1460 C1459 1.387 . S
C1460 C1463 1.387 1_655 S
H1461 C1457 0.949 1_655 S
H1462 C1459 0.950 . S
C1463 C1454 1.390 . S
C1463 H1456 0.950 . S
C1463 C1460 1.387 1_455 S
C1464 C1465 1.387 . S
C1464 H1468 0.950 . S
C1464 C1473 1.390 . S
C1465 C1464 1.387 . S
C1465 C1467 1.387 . S
H1466 C1473 0.950 . S
C1467 C1465 1.387 . S
C1467 C1469 1.390 . S
C1467 H1471 0.950 . S
H1468 C1464 0.950 . S
C1469 C1467 1.390 . S
C1469 C1470 1.387 . S
C1469 H1472 0.950 . S
C1470 C1469 1.387 . S
C1470 C1473 1.387 . S
H1471 C1467 0.950 . S
H1472 C1469 0.950 . S
C1473 C1464 1.390 . S
C1473 H1466 0.950 . S
C1473 C1470 1.387 . S
C1474 C1475 1.387 . S
C1474 H1478 0.950 . S
C1474 C1483 1.389 1_545 S
C1475 C1474 1.387 . S
C1475 C1477 1.387 . S
H1476 C1483 0.952 . S
C1477 C1475 1.387 . S
C1477 C1479 1.390 . S
C1477 H1481 0.950 . S
H1478 C1474 0.950 . S
C1479 C1477 1.390 . S
C1479 C1480 1.388 1_545 S
C1479 H1482 0.949 1_545 S
C1480 C1479 1.388 1_565 S
C1480 C1483 1.386 . S
H1481 C1477 0.950 . S
H1482 C1479 0.949 1_565 S
C1483 C1474 1.389 1_565 S
C1483 H1476 0.952 . S
C1483 C1480 1.386 . S
C1484 C1485 1.387 1_455 S
C1484 H1488 0.950 . S
C1484 C1493 1.390 . S
C1485 C1484 1.387 1_655 S
C1485 C1487 1.387 . S
H1486 C1493 0.950 . S
C1487 C1485 1.387 . S
C1487 C1489 1.390 . S
C1487 H1491 0.950 . S
H1488 C1484 0.950 . S
C1489 C1487 1.390 . S
C1489 C1490 1.387 1_655 S
C1489 H1492 0.950 . S
C1490 C1489 1.387 1_455 S
C1490 C1493 1.387 . S
H1491 C1487 0.950 . S
H1492 C1489 0.950 . S
C1493 C1484 1.390 . S
C1493 H1486 0.950 . S
C1493 C1490 1.387 . S
C775 C76 1.930 . S
C780 C33 1.930 . S
C785 C83 1.931 . S
C790 C119 1.931 . S
C795 C126 1.930 . S
C800 C40 1.930 . S
C805 C212 1.930 . S
C810 C169 1.930 . S
C815 C255 1.930 . S
C820 C205 1.930 . S
C825 C248 1.930 . S
C830 C162 1.930 . S
C835 C298 1.931 . S
C840 C341 1.931 . S
C845 C334 1.930 . S
C850 C384 1.930 . S
C855 C291 1.930 . S
C860 C377 1.930 . S
C865 C427 1.930 . S
C870 C463 1.930 . S
C875 C506 1.930 . S
C880 C470 1.930 . S
C885 C513 1.930 . S
C890 C420 1.930 . S
C895 C556 1.931 . S
C900 C599 1.931 . S
C905 C592 1.931 . S
C910 C635 1.931 . S
C915 C642 1.930 . S
C920 C549 1.930 . S
C925 C721 1.930 . S
C930 C685 1.930 . S
C935 C728 1.931 . S
C940 C771 1.931 . S
C945 C764 1.931 . S
C950 C678 1.931 . S
C955 C13 1.127 . S
C960 N223 1.025 . S
C965 C82 1.124 . S
C970 N132 1.030 . S
C975 C125 1.127 . S
C980 N180 1.025 . S
C985 C56 1.127 . S
C990 N218 1.025 . S
C995 N137 1.028 . S
C1000 C99 1.126 . S
C1005 C39 1.128 . S
C1010 N175 1.025 . S
C1015 N89 1.032 . S
C1020 C168 1.123 . S
C1025 C185 1.126 . S
C1030 N8 1.027 . S
C1035 C228 1.127 . S
C1040 N46 1.025 . S
C1045 C211 1.125 . S
C1050 N94 1.028 . S
C1055 C254 1.126 . S
C1060 N3 1.028 . S
C1065 N51 1.027 . S
C1070 C142 1.125 . S
C1075 C297 1.123 . S
C1080 N476 1.032 . S
C1085 N390 1.031 . S
C1090 C314 1.123 . S
C1095 N433 1.025 . S
C1100 C357 1.127 . S
C1105 C340 1.124 . S
C1110 N481 1.031 . S
C1115 N395 1.032 . S
C1120 C383 1.123 . S
C1125 N438 1.024 . S
C1130 C271 1.128 . S
C1135 C426 1.123 . S
C1140 N352 1.032 . S
C1145 N261 1.032 . S
C1150 C469 1.123 . S
C1155 N309 1.027 . S
C1160 C512 1.127 . S
C1165 N347 1.031 . S
C1170 C443 1.124 . S
C1175 C486 1.123 . S
C1180 N266 1.032 . S
C1185 C400 1.127 . S
C1190 N304 1.025 . S
C1195 C555 1.128 . S
C1200 N739 1.025 . S
C1205 C572 1.125 . S
C1210 N648 1.029 . S
C1215 N691 1.025 . S
C1220 C641 1.127 . S
C1225 C598 1.127 . S
C1230 N734 1.025 . S
C1235 C615 1.124 . S
C1240 N653 1.030 . S
C1245 N696 1.032 . S
C1250 C529 1.123 . S
C1255 C684 1.123 . S
C1260 N605 1.032 . S
C1265 C727 1.127 . S
C1270 N519 1.027 . S
C1275 C744 1.126 . S
C1280 N567 1.026 . S
C1285 C701 1.123 . S
C1290 N610 1.032 . S
C1295 C770 1.127 . S
C1300 N524 1.026 . S
C1305 C658 1.127 . S
C1310 N562 1.025 . S
C1315 C32 2.190 . S
C1320 C586 2.190 . S
C1325 C70 2.190 . S
C1330 C634 2.190 . S
C1335 C548 2.194 . S
C1340 C113 2.193 . S
C1345 C285 2.190 1_556 S
C1350 C75 2.190 . S
C1355 C333 2.194 1_556 S
C1360 C118 2.194 . S
C1365 C27 2.193 . S
C1370 C376 2.192 1_556 S
C1375 C156 2.194 . S
C1380 C462 2.194 . S
C1385 C204 2.190 . S
C1390 C505 2.190 . S
C1395 C419 2.190 . S
C1400 C247 2.190 . S
C1405 C199 2.192 . S
C1410 C672 2.193 1_554 S
C1415 C715 2.194 1_554 S
C1420 C242 2.194 . S
C1425 C763 2.190 1_554 S
C1430 C161 2.190 . S
C1435 C328 2.194 . S
C1440 C543 2.194 . S
C1445 C371 2.190 . S
C1450 C591 2.190 . S
C1455 C629 2.194 . S
C1460 C290 2.194 . S
C1465 C414 2.191 . S
C1470 C720 2.191 . S
C1475 C457 2.194 . S
C1480 C758 2.194 . S
C1485 C500 2.193 . S
C1490 C677 2.194 . S
