# Generated by pormake.
# Topology upb, (4)-cn, num edge types: 1
# Building blocks:
#     Node 0, Type 0, BuildingBlock: NAHDIM_clean_sbu_0, # of connection points: 4
#     Node 1, Type 0, BuildingBlock: NAHDIM_clean_sbu_0, # of connection points: 4
#     Node 2, Type 0, BuildingBlock: NAHDIM_clean_sbu_0, # of connection points: 4
#     Node 3, Type 0, BuildingBlock: NAHDIM_clean_sbu_0, # of connection points: 4
#     Node 4, Type 0, BuildingBlock: NAHDIM_clean_sbu_0, # of connection points: 4
#     Node 5, Type 0, BuildingBlock: NAHDIM_clean_sbu_0, # of connection points: 4
#     Node 6, Type 0, BuildingBlock: NAHDIM_clean_sbu_0, # of connection points: 4
#     Node 7, Type 0, BuildingBlock: NAHDIM_clean_sbu_0, # of connection points: 4
#     Node 8, Type 0, BuildingBlock: NAHDIM_clean_sbu_0, # of connection points: 4
#     Node 9, Type 0, BuildingBlock: NAHDIM_clean_sbu_0, # of connection points: 4
#     Node 10, Type 0, BuildingBlock: NAHDIM_clean_sbu_0, # of connection points: 4
#     Node 11, Type 0, BuildingBlock: NAHDIM_clean_sbu_0, # of connection points: 4
#     Node 12, Type 0, BuildingBlock: NAHDIM_clean_sbu_0, # of connection points: 4
#     Node 13, Type 0, BuildingBlock: NAHDIM_clean_sbu_0, # of connection points: 4
#     Node 14, Type 0, BuildingBlock: NAHDIM_clean_sbu_0, # of connection points: 4
#     Node 15, Type 0, BuildingBlock: NAHDIM_clean_sbu_0, # of connection points: 4
#     Edge 16, Type (0, 0), BuildingBlock: MIFKUJ_clean_linker_0, # of connection points: 2
#     Edge 17, Type (0, 0), BuildingBlock: MIFKUJ_clean_linker_0, # of connection points: 2
#     Edge 18, Type (0, 0), BuildingBlock: MIFKUJ_clean_linker_0, # of connection points: 2
#     Edge 19, Type (0, 0), BuildingBlock: MIFKUJ_clean_linker_0, # of connection points: 2
#     Edge 20, Type (0, 0), BuildingBlock: MIFKUJ_clean_linker_0, # of connection points: 2
#     Edge 21, Type (0, 0), BuildingBlock: MIFKUJ_clean_linker_0, # of connection points: 2
#     Edge 22, Type (0, 0), BuildingBlock: MIFKUJ_clean_linker_0, # of connection points: 2
#     Edge 23, Type (0, 0), BuildingBlock: MIFKUJ_clean_linker_0, # of connection points: 2
#     Edge 24, Type (0, 0), BuildingBlock: MIFKUJ_clean_linker_0, # of connection points: 2
#     Edge 25, Type (0, 0), BuildingBlock: MIFKUJ_clean_linker_0, # of connection points: 2
#     Edge 26, Type (0, 0), BuildingBlock: MIFKUJ_clean_linker_0, # of connection points: 2
#     Edge 27, Type (0, 0), BuildingBlock: MIFKUJ_clean_linker_0, # of connection points: 2
#     Edge 28, Type (0, 0), BuildingBlock: MIFKUJ_clean_linker_0, # of connection points: 2
#     Edge 29, Type (0, 0), BuildingBlock: MIFKUJ_clean_linker_0, # of connection points: 2
#     Edge 30, Type (0, 0), BuildingBlock: MIFKUJ_clean_linker_0, # of connection points: 2
#     Edge 31, Type (0, 0), BuildingBlock: MIFKUJ_clean_linker_0, # of connection points: 2
#     Edge 32, Type (0, 0), BuildingBlock: MIFKUJ_clean_linker_0, # of connection points: 2
#     Edge 33, Type (0, 0), BuildingBlock: MIFKUJ_clean_linker_0, # of connection points: 2
#     Edge 34, Type (0, 0), BuildingBlock: MIFKUJ_clean_linker_0, # of connection points: 2
#     Edge 35, Type (0, 0), BuildingBlock: MIFKUJ_clean_linker_0, # of connection points: 2
#     Edge 36, Type (0, 0), BuildingBlock: MIFKUJ_clean_linker_0, # of connection points: 2
#     Edge 37, Type (0, 0), BuildingBlock: MIFKUJ_clean_linker_0, # of connection points: 2
#     Edge 38, Type (0, 0), BuildingBlock: MIFKUJ_clean_linker_0, # of connection points: 2
#     Edge 39, Type (0, 0), BuildingBlock: MIFKUJ_clean_linker_0, # of connection points: 2
#     Edge 40, Type (0, 0), BuildingBlock: MIFKUJ_clean_linker_0, # of connection points: 2
#     Edge 41, Type (0, 0), BuildingBlock: MIFKUJ_clean_linker_0, # of connection points: 2
#     Edge 42, Type (0, 0), BuildingBlock: MIFKUJ_clean_linker_0, # of connection points: 2
#     Edge 43, Type (0, 0), BuildingBlock: MIFKUJ_clean_linker_0, # of connection points: 2
#     Edge 44, Type (0, 0), BuildingBlock: MIFKUJ_clean_linker_0, # of connection points: 2
#     Edge 45, Type (0, 0), BuildingBlock: MIFKUJ_clean_linker_0, # of connection points: 2
#     Edge 46, Type (0, 0), BuildingBlock: MIFKUJ_clean_linker_0, # of connection points: 2
#     Edge 47, Type (0, 0), BuildingBlock: MIFKUJ_clean_linker_0, # of connection points: 2
# Relax obj value: 0.223
# Max RMSD: 0.103
# Mean RMSD: 0.103
data_MOF--net-upb--node1-NAHDIM_clean_sbu_0--edge1-MIFKUJ_clean_linker_0
_symmetry_space_group_name_H-M    P1
_symmetry_Int_Tables_number       1
_symmetry_cell_setting            triclinic
loop_
_symmetry_equiv_pos_as_xyz
'x, y, z'
_cell_length_a     50.830222
_cell_length_b     50.840775
_cell_length_c     58.19517
_cell_angle_alpha  89.98772
_cell_angle_beta   89.995388
_cell_angle_gamma 89.999407
loop_
_atom_site_label
_atom_site_type_symbol
_atom_site_fract_x
_atom_site_fract_y
_atom_site_fract_z
_atom_type_partial_charge
C0 C 0.02297 0.32699 0.31886 0.0
O1 O 0.03466 0.32308 0.33869 0.0
O2 O 0.00039 0.2829 0.36315 0.0
Zn3 Zn 0.00316 0.27581 0.32908 0.0
O4 O 0.03497 0.25303 0.32346 0.0
C5 C 0.94873 0.25935 0.32842 0.0
O6 O 0.94617 0.27808 0.34381 0.0
O7 O 0.00746 0.30947 0.31118 0.0
C8 C 0.03333 0.22828 0.32619 0.0
O9 O 0.01063 0.21796 0.33215 0.0
C10 C 0.02021 0.28058 0.37632 0.0
O11 O 0.04313 0.27431 0.36745 0.0
O12 O 0.97101 0.25569 0.31906 0.0
C13 C 0.67534 0.01789 0.32291 0.0
O14 O 0.67147 0.02136 0.34502 0.0
O15 O 0.71777 0.00196 0.37021 0.0
Zn16 Zn 0.72903 0.00742 0.33728 0.0
O17 O 0.75038 0.04079 0.33508 0.0
C18 C 0.74818 0.95368 0.33449 0.0
O19 O 0.7272 0.94842 0.34686 0.0
O20 O 0.69801 0.01097 0.3159 0.0
C21 C 0.76863 0.0432 0.3203 0.0
O22 O 0.77354 0.02361 0.30622 0.0
C23 C 0.71582 0.02114 0.38412 0.0
O24 O 0.72023 0.04512 0.37663 0.0
O25 O 0.75232 0.97719 0.32802 0.0
C26 C 0.98506 0.67546 0.32545 0.0
O27 O 0.98284 0.67519 0.34794 0.0
O28 O 0.00272 0.72393 0.36672 0.0
Zn29 Zn 0.998 0.73031 0.33282 0.0
O30 O 0.96588 0.75324 0.32905 0.0
C31 C 0.05305 0.74231 0.32735 0.0
O32 O 0.05586 0.72107 0.33999 0.0
O33 O 0.99206 0.69658 0.31548 0.0
C34 C 0.96674 0.77649 0.32104 0.0
O35 O 0.98944 0.78629 0.31447 0.0
C36 C 0.01147 0.74276 0.37888 0.0
O37 O 0.01717 0.76524 0.3689 0.0
O38 O 0.03009 0.74924 0.32119 0.0
C39 C 0.32597 0.99276 0.31235 0.0
O40 O 0.33094 0.99544 0.33436 0.0
O41 O 0.2819 0.00149 0.35967 0.0
Zn42 Zn 0.27114 0.99652 0.32669 0.0
O43 O 0.25037 0.96291 0.32421 0.0
C44 C 0.25211 0.05013 0.32037 0.0
O45 O 0.27586 0.05701 0.32693 0.0
O46 O 0.3023 0.99391 0.30533 0.0
C47 C 0.23379 0.95698 0.33971 0.0
O48 O 0.23063 0.97289 0.35729 0.0
C49 C 0.29059 0.9827 0.37193 0.0
O50 O 0.29417 0.95949 0.3625 0.0
O51 O 0.24657 0.02589 0.31828 0.0
C52 C 0.02348 0.68016 0.68009 0.0
O53 O 0.03607 0.68746 0.66144 0.0
O54 O 0.00406 0.72153 0.63556 0.0
Zn55 Zn 0.99782 0.7279 0.66961 0.0
O56 O 0.02367 0.7554 0.68037 0.0
C57 C 0.94838 0.751 0.65691 0.0
O58 O 0.95902 0.74867 0.63646 0.0
O59 O 0.00474 0.69446 0.68743 0.0
C60 C 0.0199 0.77942 0.67527 0.0
O61 O 0.99848 0.78596 0.66402 0.0
C62 C 0.02355 0.7313 0.62481 0.0
O63 O 0.04125 0.74489 0.63617 0.0
O64 O 0.96085 0.74226 0.67429 0.0
C65 C 0.32576 0.01317 0.67267 0.0
O66 O 0.32214 0.0228 0.65197 0.0
O67 O 0.28072 0.99548 0.63005 0.0
Zn68 Zn 0.2732 0.99861 0.66409 0.0
O69 O 0.25328 0.03219 0.6701 0.0
C70 C 0.22754 0.96897 0.66245 0.0
O71 O 0.22294 0.98834 0.64803 0.0
O72 O 0.30718 0.00028 0.68202 0.0
C73 C 0.23891 0.0352 0.68777 0.0
O74 O 0.23749 0.01616 0.70299 0.0
C75 C 0.2748 0.01383 0.61612 0.0
O76 O 0.264 0.03546 0.62406 0.0
O77 O 0.24959 0.9683 0.67279 0.0
C78 C 0.98964 0.3179 0.67998 0.0
O79 O 0.99147 0.32244 0.65783 0.0
O80 O 0.00447 0.27238 0.63426 0.0
Zn81 Zn 0.99866 0.26281 0.66747 0.0
O82 O 0.96604 0.24041 0.66942 0.0
C83 C 0.05222 0.24374 0.6698 0.0
O84 O 0.05602 0.26139 0.65365 0.0
O85 O 0.99293 0.29463 0.68747 0.0
C86 C 0.96292 0.22378 0.6855 0.0
O87 O 0.98139 0.22116 0.70112 0.0
C88 C 0.98525 0.277 0.62089 0.0
O89 O 0.96122 0.27671 0.62921 0.0
O90 O 0.02949 0.24141 0.67866 0.0
C91 C 0.66528 0.99001 0.68613 0.0
O92 O 0.66162 0.98935 0.6638 0.0
O93 O 0.71107 0.99992 0.64013 0.0
Zn94 Zn 0.72061 0.99564 0.67365 0.0
O95 O 0.74192 0.9624 0.67725 0.0
C96 C 0.74262 0.04821 0.67351 0.0
O97 O 0.72444 0.05242 0.65789 0.0
O98 O 0.68841 0.99326 0.69397 0.0
C99 C 0.76046 0.95799 0.6631 0.0
O100 O 0.76507 0.97516 0.64671 0.0
C101 C 0.7054 0.98034 0.62747 0.0
O102 O 0.70448 0.95674 0.63664 0.0
O103 O 0.74396 0.02577 0.68308 0.0
C104 C 0.50722 0.82885 0.82111 0.0
O105 O 0.50161 0.82983 0.84312 0.0
O106 O 0.50386 0.77841 0.86256 0.0
Zn107 Zn 0.50407 0.77236 0.82834 0.0
O108 O 0.53458 0.74828 0.82147 0.0
C109 C 0.45102 0.75372 0.83343 0.0
O110 O 0.45213 0.76858 0.85186 0.0
O111 O 0.50844 0.80662 0.81112 0.0
C112 C 0.53647 0.72779 0.83388 0.0
O113 O 0.51854 0.72349 0.84971 0.0
C114 C 0.52389 0.78484 0.87434 0.0
O115 O 0.54647 0.7889 0.86394 0.0
O116 O 0.47057 0.75328 0.81979 0.0
C117 C 0.17573 0.50618 0.81561 0.0
O118 O 0.17099 0.5012 0.83736 0.0
O119 O 0.22144 0.49605 0.8617 0.0
Zn120 Zn 0.23123 0.49969 0.82827 0.0
O121 O 0.25502 0.53122 0.82465 0.0
C122 C 0.24805 0.4451 0.82655 0.0
O123 O 0.22836 0.44139 0.84082 0.0
O124 O 0.19931 0.50549 0.80828 0.0
C125 C 0.27249 0.53633 0.83963 0.0
O126 O 0.27496 0.52079 0.85754 0.0
C127 C 0.21549 0.51607 0.87371 0.0
O128 O 0.21447 0.53927 0.8638 0.0
O129 O 0.25212 0.46798 0.81851 0.0
C130 C 0.48874 0.16617 0.8137 0.0
O131 O 0.48785 0.1629 0.83608 0.0
O132 O 0.5018 0.2124 0.85871 0.0
Zn133 Zn 0.4976 0.22135 0.82521 0.0
O134 O 0.46452 0.24319 0.82239 0.0
C135 C 0.55137 0.24108 0.82357 0.0
O136 O 0.55558 0.22328 0.83952 0.0
O137 O 0.49334 0.18894 0.8056 0.0
C138 C 0.46374 0.26467 0.8112 0.0
O139 O 0.48502 0.27291 0.80061 0.0
C140 C 0.50347 0.2317 0.8725 0.0
O141 O 0.50297 0.25571 0.86414 0.0
O142 O 0.5286 0.24303 0.81472 0.0
C143 C 0.82135 0.46823 0.82135 0.0
O144 O 0.81457 0.45664 0.84066 0.0
O145 O 0.77805 0.49067 0.86389 0.0
Zn146 Zn 0.77128 0.4892 0.82953 0.0
O147 O 0.74906 0.45725 0.82268 0.0
C148 C 0.7299 0.52497 0.8323 0.0
O149 O 0.72334 0.50677 0.84726 0.0
O150 O 0.80568 0.48494 0.81257 0.0
C151 C 0.73189 0.45598 0.80684 0.0
O152 O 0.72835 0.47631 0.79326 0.0
C153 C 0.76497 0.47618 0.87758 0.0
O154 O 0.74753 0.45975 0.86916 0.0
O155 O 0.75107 0.52208 0.82091 0.0
C156 C 0.52266 0.17326 0.1733 0.0
O157 O 0.52833 0.17425 0.1513 0.0
O158 O 0.50471 0.22034 0.13078 0.0
Zn159 Zn 0.50811 0.22715 0.16492 0.0
O160 O 0.53992 0.2498 0.17073 0.0
C161 C 0.45378 0.24516 0.16736 0.0
O162 O 0.44933 0.22603 0.1527 0.0
O163 O 0.51257 0.19336 0.18287 0.0
C164 C 0.5417 0.27191 0.16066 0.0
O165 O 0.52289 0.27917 0.14652 0.0
C166 C 0.52464 0.22063 0.11757 0.0
O167 O 0.5481 0.22456 0.12639 0.0
O168 O 0.47682 0.24821 0.17541 0.0
C169 C 0.82456 0.52574 0.18059 0.0
O170 O 0.82139 0.53706 0.16048 0.0
O171 O 0.78138 0.50356 0.13588 0.0
Zn172 Zn 0.77342 0.50678 0.16965 0.0
O173 O 0.75156 0.53952 0.17343 0.0
C174 C 0.75597 0.45276 0.17078 0.0
O175 O 0.77501 0.44975 0.15574 0.0
O176 O 0.80652 0.51077 0.18818 0.0
C177 C 0.73314 0.54156 0.18809 0.0
O178 O 0.72819 0.52172 0.2019 0.0
C179 C 0.76183 0.49893 0.12289 0.0
O180 O 0.73841 0.49619 0.13217 0.0
O181 O 0.7523 0.47524 0.17978 0.0
C182 C 0.47708 0.82317 0.17345 0.0
O183 O 0.46878 0.81853 0.15246 0.0
O184 O 0.50275 0.77845 0.13303 0.0
Zn185 Zn 0.4965 0.77151 0.16684 0.0
O186 O 0.46395 0.74919 0.17051 0.0
C187 C 0.55042 0.75491 0.17088 0.0
O188 O 0.55394 0.77341 0.15541 0.0
O189 O 0.49063 0.80568 0.18365 0.0
C190 C 0.46093 0.73307 0.18698 0.0
O191 O 0.47949 0.73089 0.20257 0.0
C192 C 0.48602 0.77187 0.11784 0.0
O193 O 0.46392 0.76068 0.12426 0.0
O194 O 0.52755 0.75132 0.17912 0.0
C195 C 0.17524 0.48659 0.17572 0.0
O196 O 0.17326 0.48746 0.15323 0.0
O197 O 0.22182 0.49915 0.13263 0.0
Zn198 Zn 0.23054 0.4953 0.16619 0.0
O199 O 0.25316 0.46279 0.16932 0.0
C200 C 0.24826 0.54978 0.16823 0.0
O201 O 0.23016 0.55356 0.15245 0.0
O202 O 0.1976 0.49017 0.18502 0.0
C203 C 0.27499 0.46289 0.18 0.0
O204 O 0.28306 0.48471 0.1898 0.0
C205 C 0.24026 0.50352 0.1184 0.0
O206 O 0.26444 0.50603 0.12609 0.0
O207 O 0.25108 0.52699 0.17687 0.0
H208 H 0.03526 0.17468 0.32592 0.0
H209 H 0.07417 0.14673 0.32358 0.0
H210 H 0.12363 0.21552 0.31918 0.0
H211 H 0.08462 0.2437 0.32096 0.0
H212 H 0.14058 0.1788 0.29032 0.0
H213 H 0.11788 0.18166 0.36953 0.0
H214 H 0.089 0.17872 0.40348 0.0
H215 H 0.07455 0.09714 0.3892 0.0
H216 H 0.10304 0.09968 0.35495 0.0
H217 H 0.25684 0.1039 0.32074 0.0
H218 H 0.22116 0.13638 0.32004 0.0
H219 H 0.16421 0.07384 0.31448 0.0
H220 H 0.19954 0.04137 0.31498 0.0
H221 H 0.15363 0.11017 0.34988 0.0
H222 H 0.17648 0.10959 0.26907 0.0
H223 H 0.20681 0.11416 0.23623 0.0
H224 H 0.2234 0.19386 0.25587 0.0
H225 H 0.19343 0.18964 0.28903 0.0
C226 C 0.05439 0.1839 0.32438 0.0
C227 C 0.05687 0.21141 0.32379 0.0
C228 C 0.07664 0.16788 0.32313 0.0
C229 C 0.10186 0.17904 0.32163 0.0
C230 C 0.10437 0.20649 0.32042 0.0
C231 C 0.08207 0.22256 0.32148 0.0
C232 C 0.12551 0.16192 0.32165 0.0
C233 C 0.14364 0.16406 0.30353 0.0
C234 C 0.12948 0.14261 0.33885 0.0
C235 C 0.11244 0.14093 0.35954 0.0
C236 C 0.1084 0.16314 0.37353 0.0
C237 C 0.09212 0.16154 0.39284 0.0
C238 C 0.07991 0.13778 0.39846 0.0
C239 C 0.08401 0.11554 0.38481 0.0
C240 C 0.10024 0.11704 0.36545 0.0
C241 C 0.23674 0.09709 0.31912 0.0
C242 C 0.23104 0.07005 0.31797 0.0
C243 C 0.21641 0.11566 0.31869 0.0
C244 C 0.19009 0.10745 0.31725 0.0
C245 C 0.18441 0.08054 0.31567 0.0
C246 C 0.20466 0.06203 0.31586 0.0
C247 C 0.16827 0.1267 0.31831 0.0
C248 C 0.15058 0.12501 0.33674 0.0
C249 C 0.16499 0.14665 0.30163 0.0
C250 C 0.18295 0.1492 0.28167 0.0
C251 C 0.18678 0.12801 0.26651 0.0
C252 C 0.20387 0.13056 0.24781 0.0
C253 C 0.21709 0.15426 0.24401 0.0
C254 C 0.21318 0.1755 0.25886 0.0
C255 C 0.19614 0.17305 0.2776 0.0
H256 H 0.2303 0.15619 0.22952 0.0
H257 H 0.06731 0.13658 0.41342 0.0
H258 H 0.94929 0.21562 0.30106 0.0
H259 H 0.9151 0.18221 0.29745 0.0
H260 H 0.86466 0.22707 0.34238 0.0
H261 H 0.899 0.26045 0.34643 0.0
H262 H 0.86727 0.17711 0.35573 0.0
H263 H 0.8514 0.22141 0.28449 0.0
H264 H 0.86306 0.24093 0.24706 0.0
H265 H 0.89 0.16573 0.22309 0.0
H266 H 0.87883 0.14582 0.2605 0.0
H267 H 0.75972 0.08974 0.34258 0.0
H268 H 0.78686 0.12941 0.34168 0.0
H269 H 0.8411 0.0911 0.29548 0.0
H270 H 0.81366 0.05166 0.29577 0.0
H271 H 0.83368 0.14028 0.28246 0.0
H272 H 0.85342 0.09689 0.35408 0.0
H273 H 0.84289 0.07682 0.39156 0.0
H274 H 0.80994 0.14991 0.41478 0.0
H275 H 0.81998 0.17032 0.37731 0.0
C276 C 0.93079 0.21861 0.30993 0.0
C277 C 0.92691 0.24069 0.3241 0.0
C278 C 0.9112 0.19951 0.30776 0.0
C279 C 0.88722 0.20221 0.31952 0.0
C280 C 0.88301 0.22459 0.33316 0.0
C281 C 0.90264 0.24369 0.33539 0.0
C282 C 0.86739 0.1808 0.31885 0.0
C283 C 0.85953 0.1694 0.33972 0.0
C284 C 0.85783 0.17027 0.29794 0.0
C285 C 0.86446 0.18217 0.27538 0.0
C286 C 0.85999 0.20907 0.2713 0.0
C287 C 0.86647 0.2202 0.25007 0.0
C288 C 0.87731 0.20459 0.23272 0.0
C289 C 0.88162 0.1778 0.23655 0.0
C290 C 0.87518 0.16658 0.25775 0.0
C291 C 0.77738 0.08979 0.33217 0.0
C292 C 0.78463 0.06749 0.31936 0.0
C293 C 0.79292 0.11246 0.33172 0.0
C294 C 0.81625 0.11312 0.31878 0.0
C295 C 0.82321 0.09107 0.3056 0.0
C296 C 0.80754 0.06849 0.30585 0.0
C297 C 0.83375 0.1365 0.31933 0.0
C298 C 0.84122 0.1482 0.29847 0.0
C299 C 0.8431 0.14724 0.34024 0.0
C300 C 0.8372 0.13504 0.36282 0.0
C301 C 0.84376 0.10862 0.36713 0.0
C302 C 0.83791 0.0972 0.38838 0.0
C303 C 0.82568 0.11206 0.40552 0.0
C304 C 0.81937 0.13841 0.40147 0.0
C305 C 0.82515 0.14992 0.38024 0.0
H306 H 0.82116 0.10318 0.42196 0.0
H307 H 0.88232 0.21325 0.2163 0.0
H308 H 0.79515 0.95907 0.31212 0.0
H309 H 0.82944 0.92602 0.30721 0.0
H310 H 0.78065 0.86845 0.34115 0.0
H311 H 0.74634 0.90163 0.34656 0.0
H312 H 0.82887 0.86782 0.35833 0.0
H313 H 0.79232 0.86553 0.28285 0.0
H314 H 0.7763 0.88363 0.24612 0.0
H315 H 0.85314 0.91463 0.23174 0.0
H316 H 0.86955 0.89703 0.26855 0.0
H317 H 0.91707 0.76292 0.33481 0.0
H318 H 0.87762 0.79041 0.33448 0.0
H319 H 0.92211 0.85413 0.30474 0.0
H320 H 0.96164 0.82672 0.3048 0.0
H321 H 0.8738 0.8487 0.2845 0.0
H322 H 0.90904 0.85365 0.36134 0.0
H323 H 0.92498 0.83546 0.39807 0.0
H324 H 0.84988 0.7991 0.40964 0.0
H325 H 0.83361 0.81679 0.37279 0.0
C326 C 0.79155 0.93932 0.31834 0.0
C327 C 0.768 0.93301 0.32978 0.0
C328 C 0.81115 0.92038 0.31541 0.0
C329 C 0.80754 0.89466 0.32361 0.0
C330 C 0.78385 0.88817 0.33466 0.0
C331 C 0.76423 0.90714 0.33768 0.0
C332 C 0.82912 0.87508 0.32184 0.0
C333 C 0.83834 0.86326 0.3421 0.0
C334 C 0.84188 0.86955 0.30075 0.0
C335 C 0.83211 0.88014 0.27856 0.0
C336 C 0.80576 0.87638 0.27194 0.0
C337 C 0.79661 0.88652 0.25109 0.0
C338 C 0.81367 0.90032 0.23663 0.0
C339 C 0.83994 0.90396 0.24297 0.0
C340 C 0.84918 0.89387 0.26381 0.0
C341 C 0.91846 0.78274 0.32809 0.0
C342 C 0.94256 0.79269 0.31996 0.0
C343 C 0.8959 0.79843 0.32797 0.0
C344 C 0.89701 0.8244 0.31982 0.0
C345 C 0.92084 0.83415 0.31112 0.0
C346 C 0.94343 0.81848 0.31125 0.0
C347 C 0.87356 0.84169 0.32098 0.0
C348 C 0.86408 0.8531 0.30065 0.0
C349 C 0.86049 0.84682 0.34198 0.0
C350 C 0.8702 0.8363 0.3642 0.0
C351 C 0.89599 0.8416 0.37163 0.0
C352 C 0.90508 0.83141 0.39249 0.0
C353 C 0.88848 0.81607 0.40615 0.0
C354 C 0.86273 0.81095 0.39902 0.0
C355 C 0.85356 0.82106 0.37816 0.0
H356 H 0.89555 0.8082 0.42229 0.0
H357 H 0.80656 0.90815 0.22049 0.0
H358 H 0.10282 0.73839 0.34499 0.0
H359 H 0.13686 0.77241 0.34486 0.0
H360 H 0.08802 0.82126 0.30184 0.0
H361 H 0.05376 0.78761 0.30211 0.0
H362 H 0.16622 0.80028 0.31346 0.0
H363 H 0.08873 0.88282 0.3239 0.0
H364 H 0.04324 0.88793 0.33805 0.0
H365 H 0.05375 0.82191 0.38318 0.0
H366 H 0.0994 0.81672 0.3696 0.0
H367 H 0.22741 0.92543 0.30205 0.0
H368 H 0.19946 0.88652 0.29863 0.0
H369 H 0.17684 0.89446 0.36979 0.0
H370 H 0.20401 0.93389 0.37307 0.0
H371 H 0.13554 0.88524 0.34582 0.0
H372 H 0.22083 0.84587 0.35039 0.0
H373 H 0.26726 0.8389 0.3397 0.0
H374 H 0.24373 0.81567 0.27181 0.0
H375 H 0.19716 0.82283 0.28201 0.0
C376 C 0.09952 0.75615 0.33513 0.0
C377 C 0.07542 0.76048 0.32386 0.0
C378 C 0.11904 0.77553 0.33502 0.0
C379 C 0.11474 0.7995 0.32368 0.0
C380 C 0.09153 0.80303 0.31099 0.0
C381 C 0.07199 0.78376 0.31115 0.0
C382 C 0.13317 0.82175 0.32699 0.0
C383 C 0.15957 0.81891 0.32046 0.0
C384 C 0.12459 0.84576 0.33674 0.0
C385 C 0.09739 0.84924 0.34554 0.0
C386 C 0.08137 0.86951 0.33694 0.0
C387 C 0.05556 0.8724 0.34485 0.0
C388 C 0.04558 0.85521 0.36145 0.0
C389 C 0.06146 0.83517 0.37028 0.0
C390 C 0.0873 0.83225 0.36247 0.0
C391 C 0.21658 0.9188 0.317 0.0
C392 C 0.21786 0.93275 0.33783 0.0
C393 C 0.2007 0.89646 0.31506 0.0
C394 C 0.18623 0.88735 0.33403 0.0
C395 C 0.18776 0.90112 0.3549 0.0
C396 C 0.20334 0.92364 0.35677 0.0
C397 C 0.1687 0.86409 0.33194 0.0
C398 C 0.14233 0.86671 0.33875 0.0
C399 C 0.17756 0.83969 0.32303 0.0
C400 C 0.20552 0.83511 0.31691 0.0
C401 C 0.22557 0.83944 0.33314 0.0
C402 C 0.25191 0.83543 0.32717 0.0
C403 C 0.25844 0.82691 0.30507 0.0
C404 C 0.23864 0.82229 0.28891 0.0
C405 C 0.21227 0.82629 0.29479 0.0
H406 H 0.27885 0.82384 0.30048 0.0
H407 H 0.02557 0.85744 0.3675 0.0
H408 H 0.02058 0.83052 0.66105 0.0
H409 H 0.05749 0.86117 0.66244 0.0
H410 H 0.104 0.80366 0.69869 0.0
H411 H 0.06711 0.77263 0.69731 0.0
H412 H 0.10967 0.85751 0.71498 0.0
H413 H 0.11457 0.80683 0.64553 0.0
H414 H 0.09615 0.7871 0.61035 0.0
H415 H 0.07847 0.864 0.58403 0.0
H416 H 0.09646 0.8842 0.61926 0.0
H417 H 0.23082 0.92434 0.689 0.0
H418 H 0.19698 0.89044 0.69411 0.0
H419 H 0.14465 0.93387 0.64974 0.0
H420 H 0.17826 0.9674 0.6443 0.0
H421 H 0.14469 0.88322 0.63858 0.0
H422 H 0.13722 0.93393 0.7083 0.0
H423 H 0.15333 0.9542 0.74413 0.0
H424 H 0.17463 0.87808 0.77015 0.0
H425 H 0.15895 0.85738 0.73432 0.0
C426 C 0.03849 0.82445 0.66962 0.0
C427 C 0.04101 0.79902 0.67886 0.0
C428 C 0.05956 0.842 0.67037 0.0
C429 C 0.0835 0.83451 0.68043 0.0
C430 C 0.08566 0.80973 0.69083 0.0
C431 C 0.0646 0.79203 0.68995 0.0
C432 C 0.10669 0.85192 0.67841 0.0
C433 C 0.11768 0.86285 0.69834 0.0
C434 C 0.1168 0.85903 0.65664 0.0
C435 C 0.10668 0.84702 0.63513 0.0
C436 C 0.10663 0.81954 0.6323 0.0
C437 C 0.09627 0.80826 0.61235 0.0
C438 C 0.08607 0.82428 0.59499 0.0
C439 C 0.08635 0.85161 0.59751 0.0
C440 C 0.09666 0.86299 0.61745 0.0
C441 C 0.21208 0.92665 0.68039 0.0
C442 C 0.20725 0.94854 0.66622 0.0
C443 C 0.19274 0.90732 0.68337 0.0
C444 C 0.16823 0.90969 0.67238 0.0
C445 C 0.16343 0.93156 0.65831 0.0
C446 C 0.18269 0.95078 0.65528 0.0
C447 C 0.14749 0.88938 0.67515 0.0
C448 C 0.13695 0.87777 0.65529 0.0
C449 C 0.1378 0.88175 0.69698 0.0
C450 C 0.14721 0.89415 0.71853 0.0
C451 C 0.14555 0.92154 0.72158 0.0
C452 C 0.15456 0.9331 0.7419 0.0
C453 C 0.16508 0.91745 0.75937 0.0
C454 C 0.16653 0.89019 0.75658 0.0
C455 C 0.15757 0.87853 0.73628 0.0
H456 H 0.17204 0.92643 0.7751 0.0
H457 H 0.07799 0.8155 0.57958 0.0
H458 H 0.20063 0.04481 0.71975 0.0
H459 H 0.17082 0.08254 0.72142 0.0
H460 H 0.20969 0.11691 0.66278 0.0
H461 H 0.23964 0.07936 0.66099 0.0
H462 H 0.19759 0.1538 0.69645 0.0
H463 H 0.1547 0.08349 0.65497 0.0
H464 H 0.13814 0.03825 0.65006 0.0
H465 H 0.08766 0.04792 0.70862 0.0
H466 H 0.10425 0.09312 0.71409 0.0
H467 H 0.10099 0.23923 0.65041 0.0
H468 H 0.13438 0.20602 0.65845 0.0
H469 H 0.08519 0.17312 0.71162 0.0
H470 H 0.05138 0.20596 0.7033 0.0
H471 H 0.10262 0.13566 0.68468 0.0
H472 H 0.14236 0.2074 0.72438 0.0
H473 H 0.1591 0.2525 0.72974 0.0
H474 H 0.21531 0.24055 0.67566 0.0
H475 H 0.19866 0.19549 0.66974 0.0
C476 C 0.20304 0.06053 0.70736 0.0
C477 C 0.22236 0.05898 0.69011 0.0
C478 C 0.18596 0.08204 0.70832 0.0
C479 C 0.1879 0.10236 0.69208 0.0
C480 C 0.20787 0.10142 0.67546 0.0
C481 C 0.22487 0.07987 0.67441 0.0
C482 C 0.16823 0.12384 0.69149 0.0
C483 C 0.17683 0.14993 0.69373 0.0
C484 C 0.1411 0.11864 0.68851 0.0
C485 C 0.13093 0.09157 0.6851 0.0
C486 C 0.14022 0.0759 0.66691 0.0
C487 C 0.13081 0.05027 0.66401 0.0
C488 C 0.11192 0.04019 0.67906 0.0
C489 C 0.10233 0.05574 0.697 0.0
C490 C 0.11173 0.08136 0.70001 0.0
C491 C 0.09738 0.22514 0.664 0.0
C492 C 0.07348 0.22521 0.67616 0.0
C493 C 0.11658 0.20622 0.66867 0.0
C494 C 0.11242 0.18719 0.68579 0.0
C495 C 0.08883 0.18761 0.69834 0.0
C496 C 0.06955 0.20643 0.69359 0.0
C497 C 0.13191 0.16584 0.68949 0.0
C498 C 0.1233 0.13967 0.68773 0.0
C499 C 0.159 0.17102 0.693 0.0
C500 C 0.1691 0.19812 0.6965 0.0
C501 C 0.15815 0.21445 0.7135 0.0
C502 C 0.16765 0.24 0.71666 0.0
C503 C 0.18822 0.2494 0.70301 0.0
C504 C 0.19936 0.23325 0.6862 0.0
C505 C 0.18992 0.20769 0.68296 0.0
H506 H 0.19555 0.26919 0.70549 0.0
H507 H 0.10466 0.02034 0.67679 0.0
H508 H 0.95327 0.18177 0.71357 0.0
H509 H 0.91439 0.15345 0.71395 0.0
H510 H 0.87962 0.19985 0.65985 0.0
H511 H 0.91845 0.2283 0.65931 0.0
H512 H 0.84405 0.18724 0.69481 0.0
H513 H 0.90701 0.14366 0.64627 0.0
H514 H 0.95016 0.1245 0.63653 0.0
H515 H 0.94268 0.0695 0.69216 0.0
H516 H 0.89962 0.0886 0.70244 0.0
H517 H 0.74759 0.09693 0.65398 0.0
H518 H 0.78352 0.12829 0.65913 0.0
H519 H 0.81959 0.07658 0.70876 0.0
H520 H 0.78394 0.04493 0.70349 0.0
H521 H 0.85447 0.09223 0.67759 0.0
H522 H 0.79059 0.13429 0.7253 0.0
H523 H 0.74756 0.15349 0.73532 0.0
H524 H 0.75652 0.21116 0.68198 0.0
H525 H 0.79947 0.19207 0.67142 0.0
C526 C 0.93732 0.18604 0.70181 0.0
C527 C 0.93902 0.20719 0.68631 0.0
C528 C 0.91514 0.16981 0.70203 0.0
C529 C 0.89424 0.17446 0.6868 0.0
C530 C 0.89556 0.19594 0.67172 0.0
C531 C 0.91782 0.21208 0.67137 0.0
C532 C 0.87136 0.15643 0.68614 0.0
C533 C 0.84622 0.16651 0.69081 0.0
C534 C 0.87437 0.1293 0.68145 0.0
C535 C 0.90023 0.11775 0.67528 0.0
C536 C 0.91467 0.12763 0.65655 0.0
C537 C 0.93909 0.11676 0.65091 0.0
C538 C 0.94919 0.09585 0.66376 0.0
C539 C 0.93485 0.08573 0.68225 0.0
C540 C 0.91043 0.09656 0.68798 0.0
C541 C 0.763 0.09235 0.6662 0.0
C542 C 0.76293 0.06837 0.67826 0.0
C543 C 0.78348 0.11036 0.6692 0.0
C544 C 0.80419 0.10485 0.68443 0.0
C545 C 0.80383 0.08123 0.6969 0.0
C546 C 0.78338 0.06319 0.69391 0.0
C547 C 0.82701 0.12295 0.6863 0.0
C548 C 0.85221 0.1129 0.68176 0.0
C549 C 0.82401 0.15007 0.69116 0.0
C550 C 0.79815 0.16158 0.69742 0.0
C551 C 0.78329 0.15092 0.71557 0.0
C552 C 0.75893 0.16181 0.72137 0.0
C553 C 0.74928 0.18349 0.70925 0.0
C554 C 0.764 0.19435 0.69133 0.0
C555 C 0.78837 0.18352 0.68544 0.0
H556 H 0.73042 0.1919 0.71378 0.0
H557 H 0.9681 0.08745 0.65936 0.0
H558 H 0.79295 0.93741 0.63052 0.0
H559 H 0.81969 0.89759 0.63312 0.0
H560 H 0.79135 0.88404 0.70195 0.0
H561 H 0.76416 0.92384 0.69941 0.0
H562 H 0.84774 0.88026 0.69615 0.0
H563 H 0.76829 0.84599 0.66343 0.0
H564 H 0.73128 0.84503 0.63605 0.0
H565 H 0.78534 0.83578 0.57994 0.0
H566 H 0.82272 0.83708 0.60694 0.0
H567 H 0.92012 0.76039 0.69639 0.0
H568 H 0.88286 0.79056 0.70098 0.0
H569 H 0.88573 0.80851 0.62853 0.0
H570 H 0.92206 0.77793 0.6237 0.0
H571 H 0.83704 0.8064 0.64121 0.0
H572 H 0.91561 0.84791 0.67082 0.0
H573 H 0.95441 0.85164 0.69607 0.0
H574 H 0.90435 0.85017 0.7555 0.0
H575 H 0.86526 0.84606 0.73058 0.0
C576 C 0.79233 0.92596 0.64621 0.0
C577 C 0.77643 0.93375 0.66476 0.0
C578 C 0.80755 0.90317 0.64763 0.0
C579 C 0.80733 0.88783 0.66767 0.0
C580 C 0.79169 0.89562 0.68633 0.0
C581 C 0.77614 0.91828 0.68481 0.0
C582 C 0.82397 0.86399 0.66905 0.0
C583 C 0.84512 0.86379 0.68451 0.0
C584 C 0.82078 0.84287 0.6535 0.0
C585 C 0.79832 0.8418 0.63722 0.0
C586 C 0.77231 0.84394 0.64524 0.0
C587 C 0.75126 0.8433 0.62978 0.0
C588 C 0.75596 0.84039 0.60627 0.0
C589 C 0.78173 0.83804 0.59816 0.0
C590 C 0.80285 0.83869 0.61353 0.0
C591 C 0.91253 0.7705 0.6814 0.0
C592 C 0.9242 0.76691 0.65972 0.0
C593 C 0.89133 0.78784 0.68407 0.0
C594 C 0.88176 0.80218 0.66516 0.0
C595 C 0.89272 0.79772 0.64338 0.0
C596 C 0.91362 0.78024 0.64067 0.0
C597 C 0.86134 0.82288 0.66793 0.0
C598 C 0.83944 0.82255 0.65321 0.0
C599 C 0.86413 0.84376 0.68388 0.0
C600 C 0.88757 0.84635 0.69886 0.0
C601 C 0.9129 0.84819 0.68928 0.0
C602 C 0.93494 0.8504 0.70352 0.0
C603 C 0.93185 0.85106 0.72738 0.0
C604 C 0.90671 0.84959 0.73703 0.0
C605 C 0.88462 0.84732 0.72285 0.0
H606 H 0.94893 0.85277 0.73838 0.0
H607 H 0.73964 0.83991 0.59433 0.0
H608 H 0.5744 0.72743 0.80025 0.0
H609 H 0.61142 0.69675 0.79645 0.0
H610 H 0.58597 0.6561 0.85759 0.0
H611 H 0.54909 0.68643 0.86149 0.0
H612 H 0.63923 0.66661 0.85765 0.0
H613 H 0.57352 0.63056 0.80616 0.0
H614 H 0.54301 0.63198 0.77325 0.0
H615 H 0.60744 0.6484 0.72772 0.0
H616 H 0.63831 0.64743 0.76046 0.0
H617 H 0.68878 0.53935 0.85927 0.0
H618 H 0.66095 0.57806 0.85581 0.0
H619 H 0.70446 0.60291 0.796 0.0
H620 H 0.73282 0.56386 0.7994 0.0
H621 H 0.64859 0.60623 0.79115 0.0
H622 H 0.71516 0.63558 0.84236 0.0
H623 H 0.74534 0.63316 0.87544 0.0
H624 H 0.67952 0.62931 0.92156 0.0
H625 H 0.64891 0.6313 0.88873 0.0
C626 C 0.57671 0.71193 0.81286 0.0
C627 C 0.55878 0.70934 0.83116 0.0
C628 C 0.59782 0.69441 0.81063 0.0
C629 C 0.60139 0.67414 0.82672 0.0
C630 C 0.58361 0.67166 0.84503 0.0
C631 C 0.56246 0.68897 0.84717 0.0
C632 C 0.62354 0.65532 0.82474 0.0
C633 C 0.64126 0.65337 0.84314 0.0
C634 C 0.62669 0.63868 0.80544 0.0
C635 C 0.60816 0.63928 0.78578 0.0
C636 C 0.58115 0.63473 0.78916 0.0
C637 C 0.56379 0.6354 0.77054 0.0
C638 C 0.57327 0.64038 0.74842 0.0
C639 C 0.60013 0.64462 0.74488 0.0
C640 C 0.61756 0.644 0.76346 0.0
C641 C 0.69254 0.55296 0.84533 0.0
C642 C 0.71309 0.54855 0.82963 0.0
C643 C 0.67664 0.57517 0.84345 0.0
C644 C 0.68083 0.59347 0.82581 0.0
C645 C 0.70101 0.58902 0.8098 0.0
C646 C 0.7172 0.56679 0.8118 0.0
C647 C 0.66372 0.61701 0.82441 0.0
C648 C 0.64695 0.61987 0.80542 0.0
C649 C 0.66141 0.63454 0.84317 0.0
C650 C 0.67973 0.63344 0.86304 0.0
C651 C 0.70711 0.63402 0.85954 0.0
C652 C 0.7243 0.63275 0.87825 0.0
C653 C 0.71436 0.63104 0.90059 0.0
C654 C 0.6872 0.63064 0.90425 0.0
C655 C 0.66991 0.63187 0.88559 0.0
H656 H 0.72771 0.63007 0.91505 0.0
H657 H 0.5598 0.64087 0.73402 0.0
H658 H 0.41508 0.73889 0.86562 0.0
H659 H 0.383 0.70326 0.86288 0.0
H660 H 0.40514 0.68992 0.79236 0.0
H661 H 0.43798 0.72523 0.79506 0.0
H662 H 0.34301 0.69081 0.81056 0.0
H663 H 0.43037 0.64983 0.81544 0.0
H664 H 0.47462 0.64643 0.83259 0.0
H665 H 0.44026 0.63354 0.89907 0.0
H666 H 0.39579 0.63733 0.88232 0.0
H667 H 0.28203 0.56508 0.80077 0.0
H668 H 0.31104 0.60317 0.79673 0.0
H669 H 0.32974 0.59894 0.86901 0.0
H670 H 0.30169 0.56023 0.87288 0.0
H671 H 0.3722 0.60752 0.84706 0.0
H672 H 0.28626 0.64627 0.84477 0.0
H673 H 0.24082 0.65264 0.83101 0.0
H674 H 0.26976 0.67248 0.76389 0.0
H675 H 0.3154 0.66589 0.77718 0.0
C676 C 0.41289 0.72872 0.84938 0.0
C677 C 0.42919 0.73477 0.83058 0.0
C678 C 0.39454 0.70839 0.84787 0.0
C679 C 0.39185 0.69405 0.82746 0.0
C680 C 0.40699 0.7009 0.80823 0.0
C681 C 0.42574 0.72097 0.80983 0.0
C682 C 0.37489 0.67049 0.82711 0.0
C683 C 0.34941 0.67238 0.81811 0.0
C684 C 0.38313 0.6469 0.83768 0.0
C685 C 0.40981 0.64415 0.84768 0.0
C686 C 0.43227 0.64652 0.83375 0.0
C687 C 0.45738 0.64447 0.84338 0.0
C688 C 0.46025 0.63985 0.86692 0.0
C689 C 0.43801 0.63716 0.88085 0.0
C690 C 0.41285 0.63924 0.87129 0.0
C691 C 0.29231 0.57232 0.81579 0.0
C692 C 0.28959 0.55967 0.83715 0.0
C693 C 0.30879 0.5942 0.8135 0.0
C694 C 0.32235 0.60423 0.83263 0.0
C695 C 0.31956 0.59159 0.85396 0.0
C696 C 0.30347 0.56947 0.85618 0.0
C697 C 0.33991 0.62751 0.83045 0.0
C698 C 0.36562 0.6257 0.83916 0.0
C699 C 0.33163 0.6513 0.81992 0.0
C700 C 0.30423 0.6553 0.8119 0.0
C701 C 0.28293 0.65179 0.82702 0.0
C702 C 0.25714 0.65547 0.81932 0.0
C703 C 0.2524 0.66288 0.79657 0.0
C704 C 0.27346 0.6667 0.78149 0.0
C705 C 0.29929 0.66301 0.78911 0.0
H706 H 0.23242 0.66573 0.79064 0.0
H707 H 0.47971 0.63827 0.87435 0.0
H708 H 0.24579 0.39386 0.84104 0.0
H709 H 0.2793 0.35978 0.83608 0.0
H710 H 0.32699 0.41393 0.79705 0.0
H711 H 0.29343 0.44786 0.80148 0.0
H712 H 0.32885 0.3661 0.77841 0.0
H713 H 0.3382 0.4026 0.85458 0.0
H714 H 0.32305 0.41487 0.89339 0.0
H715 H 0.30486 0.33407 0.90789 0.0
H716 H 0.31959 0.32138 0.86903 0.0
H717 H 0.45655 0.31285 0.79134 0.0
H718 H 0.41697 0.34001 0.79188 0.0
H719 H 0.37622 0.28008 0.83047 0.0
H720 H 0.41594 0.25292 0.83036 0.0
H721 H 0.36811 0.32739 0.84876 0.0
H722 H 0.36274 0.29053 0.77328 0.0
H723 H 0.37879 0.27877 0.73464 0.0
H724 H 0.39025 0.36048 0.71885 0.0
H725 H 0.3746 0.37272 0.75752 0.0
C726 C 0.26328 0.39843 0.83119 0.0
C727 C 0.26703 0.42366 0.82182 0.0
C728 C 0.28247 0.37896 0.82845 0.0
C729 C 0.30587 0.38444 0.81652 0.0
C730 C 0.30914 0.40926 0.80637 0.0
C731 C 0.28993 0.42867 0.80898 0.0
C732 C 0.32748 0.36484 0.81538 0.0
C733 C 0.33756 0.35777 0.79379 0.0
C734 C 0.33847 0.35349 0.83543 0.0
C735 C 0.32971 0.36109 0.85882 0.0
C736 C 0.33078 0.38749 0.86598 0.0
C737 C 0.3223 0.39451 0.888 0.0
C738 C 0.31292 0.37527 0.90307 0.0
C739 C 0.31208 0.34896 0.89618 0.0
C740 C 0.32051 0.34184 0.87417 0.0
C741 C 0.43914 0.30533 0.79982 0.0
C742 C 0.43941 0.28068 0.81078 0.0
C743 C 0.41646 0.32085 0.80002 0.0
C744 C 0.3935 0.31195 0.81096 0.0
C745 C 0.39368 0.28732 0.82186 0.0
C746 C 0.41639 0.2718 0.82174 0.0
C747 C 0.36969 0.32884 0.81179 0.0
C748 C 0.35921 0.33544 0.83334 0.0
C749 C 0.35841 0.33981 0.79171 0.0
C750 C 0.36768 0.33252 0.76838 0.0
C751 C 0.36885 0.30598 0.76163 0.0
C752 C 0.37785 0.29923 0.73971 0.0
C753 C 0.38558 0.31886 0.72432 0.0
C754 C 0.38427 0.34529 0.7308 0.0
C755 C 0.3753 0.35215 0.7527 0.0
H756 H 0.39255 0.31359 0.70736 0.0
H757 H 0.30637 0.38075 0.9201 0.0
H758 H 0.73494 0.41053 0.83176 0.0
H759 H 0.70574 0.37252 0.82992 0.0
H760 H 0.66158 0.40955 0.77552 0.0
H761 H 0.69062 0.44792 0.77739 0.0
H762 H 0.62974 0.39046 0.80867 0.0
H763 H 0.70147 0.3577 0.76397 0.0
H764 H 0.74782 0.34741 0.75531 0.0
H765 H 0.75117 0.29593 0.81374 0.0
H766 H 0.70493 0.3062 0.82295 0.0
H767 H 0.54964 0.27906 0.79031 0.0
H768 H 0.58194 0.31364 0.78302 0.0
H769 H 0.63173 0.28213 0.83637 0.0
H770 H 0.59977 0.24712 0.84346 0.0
H771 H 0.66059 0.29836 0.80026 0.0
H772 H 0.59077 0.33392 0.84688 0.0
H773 H 0.54462 0.34426 0.85634 0.0
H774 H 0.53813 0.39078 0.79501 0.0
H775 H 0.58416 0.3804 0.78502 0.0
C776 C 0.71916 0.41056 0.81925 0.0
C777 C 0.71511 0.43229 0.80472 0.0
C778 C 0.70256 0.38872 0.81815 0.0
C779 C 0.68163 0.38808 0.80243 0.0
C780 C 0.67766 0.40962 0.78774 0.0
C781 C 0.69431 0.43149 0.78879 0.0
C782 C 0.66316 0.36548 0.80223 0.0
C783 C 0.63641 0.37036 0.80638 0.0
C784 C 0.67198 0.33921 0.7998 0.0
C785 C 0.69977 0.33289 0.79426 0.0
C786 C 0.71214 0.34434 0.77508 0.0
C787 C 0.73839 0.33848 0.77005 0.0
C788 C 0.75245 0.32107 0.78399 0.0
C789 C 0.74026 0.30943 0.80296 0.0
C790 C 0.71402 0.31523 0.80808 0.0
C791 C 0.56759 0.27929 0.80034 0.0
C792 C 0.57202 0.26047 0.81763 0.0
C793 C 0.586 0.29914 0.79619 0.0
C794 C 0.60903 0.30074 0.80943 0.0
C795 C 0.61405 0.28131 0.826 0.0
C796 C 0.59572 0.26135 0.83007 0.0
C797 C 0.62724 0.32337 0.80685 0.0
C798 C 0.65391 0.31849 0.80227 0.0
C799 C 0.6184 0.34968 0.80898 0.0
C800 C 0.59081 0.35615 0.81508 0.0
C801 C 0.57944 0.3462 0.83533 0.0
C802 C 0.55331 0.35209 0.8408 0.0
C803 C 0.53843 0.3681 0.82625 0.0
C804 C 0.54967 0.37834 0.80624 0.0
C805 C 0.57578 0.37248 0.80067 0.0
H806 H 0.5182 0.37263 0.8305 0.0
H807 H 0.77277 0.31656 0.78007 0.0
H808 H 0.71849 0.44976 0.2044 0.0
H809 H 0.68414 0.41643 0.20861 0.0
H810 H 0.71495 0.37499 0.14974 0.0
H811 H 0.74982 0.40761 0.146 0.0
H812 H 0.64608 0.40589 0.1818 0.0
H813 H 0.70011 0.31105 0.15067 0.0
H814 H 0.74406 0.29077 0.15367 0.0
H815 H 0.75912 0.33429 0.21551 0.0
H816 H 0.71515 0.35456 0.21307 0.0
H817 H 0.55529 0.31614 0.13693 0.0
H818 H 0.59297 0.34487 0.14356 0.0
H819 H 0.6174 0.29604 0.20035 0.0
H820 H 0.5801 0.26669 0.19333 0.0
H821 H 0.65852 0.3093 0.17654 0.0
H822 H 0.58706 0.35623 0.20928 0.0
H823 H 0.54287 0.3761 0.21113 0.0
H824 H 0.56256 0.42777 0.15534 0.0
H825 H 0.60677 0.40795 0.15294 0.0
C826 C 0.7182 0.43327 0.19261 0.0
C827 C 0.73687 0.43131 0.17487 0.0
C828 C 0.69851 0.41428 0.19499 0.0
C829 C 0.69699 0.39305 0.1796 0.0
C830 C 0.71598 0.39081 0.16216 0.0
C831 C 0.73587 0.40959 0.15997 0.0
C832 C 0.67447 0.37441 0.18061 0.0
C833 C 0.64886 0.38477 0.18082 0.0
C834 C 0.67796 0.34678 0.17985 0.0
C835 C 0.70438 0.33449 0.18156 0.0
C836 C 0.71275 0.3162 0.16497 0.0
C837 C 0.73768 0.30473 0.16656 0.0
C838 C 0.7544 0.31129 0.18473 0.0
C839 C 0.74619 0.32929 0.20139 0.0
C840 C 0.72128 0.34081 0.19989 0.0
C841 C 0.56865 0.31151 0.15085 0.0
C842 C 0.56463 0.28921 0.16468 0.0
C843 C 0.59013 0.32803 0.1547 0.0
C844 C 0.60778 0.3229 0.17272 0.0
C845 C 0.60401 0.30045 0.18639 0.0
C846 C 0.58265 0.28373 0.18239 0.0
C847 C 0.63027 0.34089 0.17706 0.0
C848 C 0.65582 0.33042 0.1778 0.0
C849 C 0.62673 0.36837 0.17941 0.0
C850 C 0.60018 0.38046 0.18083 0.0
C851 C 0.58191 0.37171 0.1973 0.0
C852 C 0.55686 0.38298 0.19846 0.0
C853 C 0.54989 0.40315 0.18333 0.0
C854 C 0.56798 0.41213 0.16704 0.0
C855 C 0.59305 0.40091 0.16579 0.0
H856 H 0.53049 0.41185 0.18426 0.0
H857 H 0.77369 0.30239 0.18593 0.0
H858 H 0.60006 0.75381 0.15283 0.0
H859 H 0.63364 0.72003 0.15847 0.0
H860 H 0.58309 0.67996 0.20661 0.0
H861 H 0.5494 0.71375 0.20122 0.0
H862 H 0.63512 0.67972 0.22045 0.0
H863 H 0.5849 0.65939 0.1527 0.0
H864 H 0.5652 0.66832 0.11477 0.0
H865 H 0.64195 0.68191 0.08634 0.0
H866 H 0.66211 0.6734 0.12422 0.0
H867 H 0.68974 0.55095 0.21472 0.0
H868 H 0.66134 0.58973 0.21419 0.0
H869 H 0.71094 0.62536 0.1627 0.0
H870 H 0.73917 0.58648 0.16281 0.0
H871 H 0.66065 0.62921 0.15098 0.0
H872 H 0.71117 0.6469 0.21873 0.0
H873 H 0.73041 0.63724 0.25669 0.0
H874 H 0.65307 0.62814 0.28528 0.0
H875 H 0.63335 0.63738 0.24739 0.0
C876 C 0.59619 0.73802 0.16486 0.0
C877 C 0.57194 0.73634 0.1764 0.0
C878 C 0.61538 0.7187 0.16801 0.0
C879 C 0.61067 0.69731 0.1827 0.0
C880 C 0.58707 0.69628 0.19515 0.0
C881 C 0.56782 0.71558 0.19199 0.0
C882 C 0.62963 0.67521 0.18398 0.0
C883 C 0.64057 0.6685 0.20532 0.0
C884 C 0.63704 0.66091 0.16414 0.0
C885 C 0.62499 0.66602 0.14134 0.0
C886 C 0.59756 0.6645 0.13841 0.0
C887 C 0.58632 0.66944 0.11691 0.0
C888 C 0.60231 0.67572 0.09817 0.0
C889 C 0.62959 0.67706 0.10089 0.0
C890 C 0.64094 0.67216 0.12236 0.0
C891 C 0.69473 0.56711 0.2034 0.0
C892 C 0.71671 0.56559 0.18878 0.0
C893 C 0.67853 0.58933 0.2032 0.0
C894 C 0.68414 0.61057 0.18855 0.0
C895 C 0.70624 0.60921 0.17414 0.0
C896 C 0.72238 0.58698 0.17427 0.0
C897 C 0.66632 0.63367 0.18747 0.0
C898 C 0.65546 0.64052 0.16612 0.0
C899 C 0.659 0.64803 0.20732 0.0
C900 C 0.67079 0.6426 0.23016 0.0
C901 C 0.69827 0.64264 0.23306 0.0
C902 C 0.70926 0.63728 0.25458 0.0
C903 C 0.69297 0.63202 0.27337 0.0
C904 C 0.66566 0.63219 0.2707 0.0
C905 C 0.65456 0.63752 0.24921 0.0
H906 H 0.70152 0.62787 0.29002 0.0
H907 H 0.59356 0.67942 0.08154 0.0
H908 H 0.45043 0.69318 0.21721 0.0
H909 H 0.41228 0.66386 0.21744 0.0
H910 H 0.37977 0.70521 0.15928 0.0
H911 H 0.41777 0.73469 0.15896 0.0
H912 H 0.34215 0.69359 0.19212 0.0
H913 H 0.41112 0.64878 0.15085 0.0
H914 H 0.45567 0.63053 0.14563 0.0
H915 H 0.44425 0.57976 0.20377 0.0
H916 H 0.39974 0.598 0.20952 0.0
H917 H 0.25307 0.5982 0.14814 0.0
H918 H 0.28713 0.63111 0.15515 0.0
H919 H 0.32006 0.58235 0.20861 0.0
H920 H 0.28641 0.54907 0.20133 0.0
H921 H 0.35726 0.59808 0.18068 0.0
H922 H 0.28713 0.64061 0.22072 0.0
H923 H 0.24262 0.65884 0.22616 0.0
H924 H 0.25578 0.71365 0.1712 0.0
H925 H 0.30026 0.6955 0.16521 0.0
C926 C 0.4351 0.69616 0.20455 0.0
C927 C 0.43723 0.71616 0.18796 0.0
C928 C 0.41333 0.67936 0.20469 0.0
C929 C 0.39334 0.68222 0.18824 0.0
C930 C 0.395 0.70267 0.17212 0.0
C931 C 0.41679 0.71942 0.1719 0.0
C932 C 0.37119 0.66328 0.18723 0.0
C933 C 0.34537 0.67272 0.18942 0.0
C934 C 0.37551 0.63601 0.18425 0.0
C935 C 0.40222 0.62497 0.18077 0.0
C936 C 0.4182 0.63389 0.16263 0.0
C937 C 0.44342 0.62351 0.15956 0.0
C938 C 0.45282 0.60405 0.1744 0.0
C939 C 0.43697 0.59487 0.19231 0.0
C940 C 0.41174 0.60521 0.19548 0.0
C941 C 0.26734 0.59462 0.1616 0.0
C942 C 0.26707 0.57097 0.17412 0.0
C943 C 0.28676 0.61353 0.16567 0.0
C944 C 0.30608 0.60931 0.18253 0.0
C945 C 0.30538 0.58603 0.19549 0.0
C946 C 0.28608 0.56705 0.19134 0.0
C947 C 0.32803 0.62829 0.18555 0.0
C948 C 0.35391 0.61888 0.18363 0.0
C949 C 0.32371 0.65555 0.18884 0.0
C950 C 0.29696 0.66653 0.19239 0.0
C951 C 0.28046 0.65641 0.20967 0.0
C952 C 0.25525 0.66675 0.21287 0.0
C953 C 0.24635 0.68735 0.199 0.0
C954 C 0.26268 0.69768 0.18192 0.0
C955 C 0.28792 0.68739 0.17863 0.0
H956 H 0.22682 0.69533 0.20151 0.0
H957 H 0.47235 0.59604 0.17199 0.0
H958 H 0.32416 0.45775 0.19838 0.0
H959 H 0.3525 0.41898 0.19783 0.0
H960 H 0.29223 0.37524 0.16233 0.0
H961 H 0.26359 0.41396 0.1629 0.0
H962 H 0.31571 0.346 0.19647 0.0
H963 H 0.34249 0.39851 0.13253 0.0
H964 H 0.35666 0.43881 0.11248 0.0
H965 H 0.42594 0.44242 0.15459 0.0
H966 H 0.41197 0.40232 0.17513 0.0
H967 H 0.40202 0.24455 0.15411 0.0
H968 H 0.36962 0.27982 0.15871 0.0
H969 H 0.4267 0.32611 0.19571 0.0
H970 H 0.45913 0.29107 0.19127 0.0
H971 H 0.40372 0.35325 0.16012 0.0
H972 H 0.37632 0.29979 0.22387 0.0
H973 H 0.36169 0.25909 0.24305 0.0
H974 H 0.29321 0.25653 0.19991 0.0
H975 H 0.30763 0.29704 0.18024 0.0
C976 C 0.31683 0.43988 0.19055 0.0
C977 C 0.29166 0.43901 0.18056 0.0
C978 C 0.3331 0.41775 0.1902 0.0
C979 C 0.32457 0.39433 0.17981 0.0
C980 C 0.29919 0.39314 0.1704 0.0
C981 C 0.28291 0.41532 0.17067 0.0
C982 C 0.3425 0.37139 0.17828 0.0
C983 C 0.33482 0.34745 0.18826 0.0
C984 C 0.36756 0.37343 0.16784 0.0
C985 C 0.37604 0.39756 0.15554 0.0
C986 C 0.36063 0.40802 0.13766 0.0
C987 C 0.36864 0.43081 0.12618 0.0
C988 C 0.39215 0.44321 0.1323 0.0
C989 C 0.40771 0.43281 0.14989 0.0
C990 C 0.39977 0.41005 0.16145 0.0
C991 C 0.40757 0.26209 0.1635 0.0
C992 C 0.4332 0.26503 0.17224 0.0
C993 C 0.38901 0.28219 0.16616 0.0
C994 C 0.39579 0.30557 0.17755 0.0
C995 C 0.42111 0.30824 0.18683 0.0
C996 C 0.43959 0.28813 0.18433 0.0
C997 C 0.37711 0.32793 0.17858 0.0
C998 C 0.38463 0.35178 0.16837 0.0
C999 C 0.35188 0.32569 0.18865 0.0
C1000 C 0.34321 0.30129 0.20041 0.0
C1001 C 0.35827 0.29041 0.21832 0.0
C1002 C 0.34999 0.26741 0.22931 0.0
C1003 C 0.32658 0.25519 0.22265 0.0
C1004 C 0.31137 0.26599 0.20502 0.0
C1005 C 0.31957 0.28899 0.19395 0.0
H1006 H 0.32019 0.23739 0.2312 0.0
H1007 H 0.39833 0.46084 0.12338 0.0
H1008 H 0.00361 0.34074 0.27654 0.0
H1009 H 0.02011 0.37531 0.25107 0.0
H1010 H 0.07576 0.39907 0.30304 0.0
H1011 H 0.05905 0.36507 0.32873 0.0
H1012 H 0.05719 0.4413 0.28 0.0
H1013 H 0.0928 0.35517 0.26092 0.0
H1014 H 0.08943 0.30851 0.24968 0.0
H1015 H 0.04831 0.33049 0.18814 0.0
H1016 H 0.05117 0.37729 0.19919 0.0
H1017 H 0.17234 0.48339 0.22258 0.0
H1018 H 0.13699 0.46406 0.24541 0.0
H1019 H 0.09138 0.45159 0.18386 0.0
H1020 H 0.12672 0.47081 0.16084 0.0
H1021 H 0.097 0.40715 0.20811 0.0
H1022 H 0.06996 0.49429 0.22377 0.0
H1023 H 0.0744 0.54081 0.23485 0.0
H1024 H 0.09956 0.51787 0.30236 0.0
H1025 H 0.09586 0.47112 0.29154 0.0
C1026 C 0.01906 0.35361 0.28269 0.0
C1027 C 0.0303 0.3499 0.30454 0.0
C1028 C 0.02848 0.37334 0.2681 0.0
C1029 C 0.04947 0.38946 0.27502 0.0
C1030 C 0.05958 0.38683 0.29733 0.0
C1031 C 0.05009 0.36725 0.31196 0.0
C1032 C 0.06272 0.40728 0.2585 0.0
C1033 C 0.06597 0.4339 0.26428 0.0
C1034 C 0.07352 0.39774 0.23769 0.0
C1035 C 0.07192 0.36965 0.23101 0.0
C1036 C 0.08288 0.35002 0.24507 0.0
C1037 C 0.08109 0.32356 0.23873 0.0
C1038 C 0.06859 0.31653 0.21824 0.0
C1039 C 0.05793 0.33596 0.20403 0.0
C1040 C 0.05964 0.36245 0.21031 0.0
C1041 C 0.1546 0.47697 0.21392 0.0
C1042 C 0.15247 0.47839 0.18986 0.0
C1043 C 0.13432 0.46609 0.22702 0.0
C1044 C 0.1115 0.45647 0.21634 0.0
C1045 C 0.10881 0.45893 0.19244 0.0
C1046 C 0.12904 0.46992 0.17932 0.0
C1047 C 0.09207 0.44113 0.22981 0.0
C1048 C 0.08775 0.41485 0.22351 0.0
C1049 C 0.08041 0.45103 0.25013 0.0
C1050 C 0.0828 0.47914 0.25676 0.0
C1051 C 0.07668 0.49913 0.24092 0.0
C1052 C 0.07901 0.52557 0.24717 0.0
C1053 C 0.08724 0.53232 0.2693 0.0
C1054 C 0.09317 0.51262 0.28522 0.0
C1055 C 0.09096 0.48613 0.27904 0.0
H1056 H 0.08898 0.55281 0.27411 0.0
H1057 H 0.06722 0.29604 0.21336 0.0
H1058 H 0.62655 0.03815 0.3319 0.0
H1059 H 0.59547 0.05665 0.30429 0.0
H1060 H 0.64624 0.03328 0.24851 0.0
H1061 H 0.67762 0.01506 0.27601 0.0
H1062 H 0.63486 0.08363 0.24569 0.0
H1063 H 0.58576 0.0052 0.25605 0.0
H1064 H 0.56305 0.96967 0.27692 0.0
H1065 H 0.50866 0.02554 0.30525 0.0
H1066 H 0.53141 0.06156 0.28496 0.0
H1067 H 0.55165 0.13116 0.15906 0.0
H1068 H 0.57221 0.09756 0.18303 0.0
H1069 H 0.53463 0.13017 0.24301 0.0
H1070 H 0.51403 0.16415 0.21916 0.0
H1071 H 0.53803 0.0721 0.24153 0.0
H1072 H 0.59171 0.15053 0.23405 0.0
H1073 H 0.61432 0.18529 0.21205 0.0
H1074 H 0.6602 0.12688 0.17691 0.0
H1075 H 0.63753 0.09174 0.19848 0.0
C1076 C 0.6309 0.0365 0.31374 0.0
C1077 C 0.65472 0.02539 0.30617 0.0
C1078 C 0.613 0.04696 0.29795 0.0
C1079 C 0.61849 0.04633 0.27431 0.0
C1080 C 0.64163 0.03404 0.26667 0.0
C1081 C 0.65954 0.02362 0.28243 0.0
C1082 C 0.60173 0.0611 0.25789 0.0
C1083 C 0.61377 0.08065 0.2445 0.0
C1084 C 0.57409 0.0577 0.25667 0.0
C1085 C 0.56049 0.03615 0.26914 0.0
C1086 C 0.56914 0.00998 0.26693 0.0
C1087 C 0.55622 0.98973 0.27862 0.0
C1088 C 0.53443 0.99534 0.29242 0.0
C1089 C 0.52555 0.02123 0.29457 0.0
C1090 C 0.53846 0.04158 0.28298 0.0
C1091 C 0.54731 0.13096 0.17727 0.0
C1092 C 0.53149 0.15057 0.18725 0.0
C1093 C 0.55905 0.11169 0.19093 0.0
C1094 C 0.55508 0.11158 0.21477 0.0
C1095 C 0.53787 0.12996 0.22461 0.0
C1096 C 0.52625 0.14942 0.21098 0.0
C1097 C 0.5713 0.09439 0.22959 0.0
C1098 C 0.55917 0.07465 0.24268 0.0
C1099 C 0.59893 0.0974 0.2305 0.0
C1100 C 0.61272 0.11851 0.21767 0.0
C1101 C 0.60645 0.1451 0.22148 0.0
C1102 C 0.6193 0.16487 0.20912 0.0
C1103 C 0.63863 0.1583 0.19304 0.0
C1104 C 0.64519 0.13194 0.18934 0.0
C1105 C 0.63236 0.11209 0.20163 0.0
H1106 H 0.64856 0.17363 0.18349 0.0
H1107 H 0.52442 0.97963 0.30141 0.0
H1108 H 0.83607 0.50754 0.22374 0.0
H1109 H 0.8702 0.52377 0.24974 0.0
H1110 H 0.89804 0.57645 0.19696 0.0
H1111 H 0.86432 0.56007 0.17075 0.0
H1112 H 0.93876 0.5567 0.22224 0.0
H1113 H 0.85401 0.59745 0.23621 0.0
H1114 H 0.80659 0.59733 0.24522 0.0
H1115 H 0.82218 0.55809 0.30914 0.0
H1116 H 0.86969 0.55769 0.30034 0.0
H1117 H 0.98521 0.67046 0.27869 0.0
H1118 H 0.96496 0.63566 0.25596 0.0
H1119 H 0.94476 0.5939 0.31805 0.0
H1120 H 0.96469 0.62891 0.34101 0.0
H1121 H 0.90289 0.60083 0.29153 0.0
H1122 H 0.98949 0.56788 0.27992 0.0
H1123 H 0.03675 0.57027 0.2706 0.0
H1124 H 0.01825 0.59636 0.20232 0.0
H1125 H 0.97088 0.59444 0.21129 0.0
C1126 C 0.84973 0.52227 0.21753 0.0
C1127 C 0.84723 0.53281 0.19529 0.0
C1128 C 0.86921 0.53152 0.23242 0.0
C1129 C 0.88637 0.5516 0.22538 0.0
C1130 C 0.88498 0.56097 0.20274 0.0
C1131 C 0.86557 0.55167 0.18782 0.0
C1132 C 0.90396 0.56478 0.24212 0.0
C1133 C 0.931 0.56638 0.23741 0.0
C1134 C 0.89386 0.57691 0.26216 0.0
C1135 C 0.86533 0.57724 0.2675 0.0
C1136 C 0.84729 0.58862 0.25211 0.0
C1137 C 0.82041 0.58868 0.25718 0.0
C1138 C 0.81136 0.57763 0.27771 0.0
C1139 C 0.8292 0.56658 0.29323 0.0
C1140 C 0.85611 0.56644 0.28821 0.0
C1141 C 0.97689 0.65366 0.28754 0.0
C1142 C 0.97632 0.6526 0.31168 0.0
C1143 C 0.96548 0.63365 0.27449 0.0
C1144 C 0.95347 0.61208 0.28529 0.0
C1145 C 0.95395 0.61036 0.30936 0.0
C1146 C 0.96537 0.63039 0.32245 0.0
C1147 C 0.93777 0.59316 0.27156 0.0
C1148 C 0.91094 0.5906 0.27675 0.0
C1149 C 0.94811 0.58033 0.25195 0.0
C1150 C 0.9766 0.58118 0.24635 0.0
C1151 C 0.99549 0.57428 0.26296 0.0
C1152 C 0.02231 0.57552 0.25772 0.0
C1153 C 0.03049 0.58355 0.23591 0.0
C1154 C 0.01188 0.59017 0.21922 0.0
C1155 C 0.98503 0.58896 0.22436 0.0
H1156 H 0.05126 0.58466 0.23192 0.0
H1157 H 0.79055 0.5777 0.28161 0.0
H1158 H 0.32499 0.99264 0.26542 0.0
H1159 H 0.35628 0.97114 0.23966 0.0
H1160 H 0.40477 0.9502 0.2977 0.0
H1161 H 0.37408 0.97249 0.32346 0.0
H1162 H 0.43502 0.95964 0.26151 0.0
H1163 H 0.35843 0.90749 0.27682 0.0
H1164 H 0.31093 0.89785 0.27898 0.0
H1165 H 0.30372 0.90993 0.20622 0.0
H1166 H 0.35114 0.91998 0.20368 0.0
H1167 H 0.48751 0.83766 0.21797 0.0
H1168 H 0.46747 0.87393 0.23941 0.0
H1169 H 0.42617 0.89859 0.17836 0.0
H1170 H 0.44599 0.86251 0.15684 0.0
H1171 H 0.39351 0.88939 0.21476 0.0
H1172 H 0.47364 0.93736 0.20055 0.0
H1173 H 0.52162 0.94461 0.20073 0.0
H1174 H 0.52295 0.93624 0.27415 0.0
H1175 H 0.47501 0.92886 0.2744 0.0
C1176 C 0.3426 0.98392 0.27264 0.0
C1177 C 0.34688 0.98389 0.29649 0.0
C1178 C 0.36042 0.97158 0.25792 0.0
C1179 C 0.3825 0.95846 0.26683 0.0
C1180 C 0.3878 0.96006 0.29045 0.0
C1181 C 0.37017 0.97276 0.30517 0.0
C1182 C 0.39855 0.94103 0.25195 0.0
C1183 C 0.426 0.94419 0.25137 0.0
C1184 C 0.38677 0.92089 0.23866 0.0
C1185 C 0.35826 0.91478 0.24011 0.0
C1186 C 0.34667 0.90828 0.26131 0.0
C1187 C 0.31978 0.90271 0.2626 0.0
C1188 C 0.30431 0.90335 0.24277 0.0
C1189 C 0.31572 0.90949 0.22158 0.0
C1190 C 0.3426 0.91511 0.2202 0.0
C1191 C 0.47454 0.85109 0.209 0.0
C1192 C 0.4681 0.84701 0.18577 0.0
C1193 C 0.46322 0.8719 0.22125 0.0
C1194 C 0.44536 0.88895 0.21045 0.0
C1195 C 0.43991 0.88564 0.187 0.0
C1196 C 0.45125 0.86496 0.17475 0.0
C1197 C 0.42998 0.90816 0.22406 0.0
C1198 C 0.40256 0.90511 0.2246 0.0
C1199 C 0.44191 0.92795 0.23761 0.0
C1200 C 0.47076 0.93234 0.23747 0.0
C1201 C 0.48419 0.93688 0.21672 0.0
C1202 C 0.51138 0.94111 0.21675 0.0
C1203 C 0.52533 0.9409 0.23744 0.0
C1204 C 0.51212 0.93649 0.25814 0.0
C1205 C 0.48494 0.93234 0.25821 0.0
H1206 H 0.54637 0.94417 0.23743 0.0
H1207 H 0.28349 0.89903 0.2438 0.0
H1208 H 0.12542 0.52009 0.82757 0.0
H1209 H 0.09357 0.54397 0.80391 0.0
H1210 H 0.14637 0.53929 0.74603 0.0
H1211 H 0.17837 0.5158 0.76954 0.0
H1212 H 0.13311 0.58889 0.75556 0.0
H1213 H 0.08723 0.5066 0.74674 0.0
H1214 H 0.06419 0.4664 0.75929 0.0
H1215 H 0.00648 0.51323 0.79433 0.0
H1216 H 0.02928 0.55372 0.78216 0.0
H1217 H 0.06132 0.64528 0.66737 0.0
H1218 H 0.08121 0.61082 0.69067 0.0
H1219 H 0.02751 0.62821 0.74597 0.0
H1220 H 0.00722 0.66296 0.72261 0.0
H1221 H 0.03848 0.57287 0.74003 0.0
H1222 H 0.08394 0.65451 0.74981 0.0
H1223 H 0.10595 0.69522 0.73714 0.0
H1224 H 0.1643 0.64971 0.70156 0.0
H1225 H 0.14238 0.6087 0.71372 0.0
C1226 C 0.13002 0.52365 0.80967 0.0
C1227 C 0.1546 0.51638 0.80052 0.0
C1228 C 0.11171 0.53721 0.79614 0.0
C1229 C 0.11763 0.54349 0.77322 0.0
C1230 C 0.14146 0.53476 0.76371 0.0
C1231 C 0.15975 0.52134 0.77719 0.0
C1232 C 0.1008 0.56189 0.75999 0.0
C1233 C 0.11252 0.58511 0.7519 0.0
C1234 C 0.07363 0.55757 0.75608 0.0
C1235 C 0.06017 0.5332 0.76376 0.0
C1236 C 0.06979 0.50833 0.75733 0.0
C1237 C 0.0567 0.48549 0.7643 0.0
C1238 C 0.03389 0.48726 0.77761 0.0
C1239 C 0.02412 0.51188 0.78399 0.0
C1240 C 0.03711 0.53478 0.77705 0.0
C1241 C 0.05343 0.64163 0.68437 0.0
C1242 C 0.03293 0.65714 0.69327 0.0
C1243 C 0.06481 0.62186 0.69763 0.0
C1244 C 0.05605 0.61725 0.72012 0.0
C1245 C 0.03455 0.63154 0.72865 0.0
C1246 C 0.02307 0.65143 0.71532 0.0
C1247 C 0.07112 0.59925 0.73516 0.0
C1248 C 0.05908 0.57644 0.74375 0.0
C1249 C 0.09803 0.60391 0.73976 0.0
C1250 C 0.11136 0.62854 0.7325 0.0
C1251 C 0.10134 0.65318 0.73912 0.0
C1252 C 0.11381 0.67631 0.73206 0.0
C1253 C 0.13647 0.67506 0.71851 0.0
C1254 C 0.14673 0.65066 0.71204 0.0
C1255 C 0.13429 0.62746 0.71902 0.0
H1256 H 0.14611 0.69299 0.71306 0.0
H1257 H 0.02375 0.46956 0.78295 0.0
H1258 H 0.47169 0.11669 0.82515 0.0
H1259 H 0.45216 0.08399 0.79944 0.0
H1260 H 0.4685 0.13401 0.7413 0.0
H1261 H 0.48783 0.16681 0.76679 0.0
H1262 H 0.41755 0.12189 0.7442 0.0
H1263 H 0.49888 0.07618 0.74817 0.0
H1264 H 0.53697 0.05391 0.76564 0.0
H1265 H 0.48607 0.9949 0.79402 0.0
H1266 H 0.44748 0.01736 0.7775 0.0
H1267 H 0.36725 0.04239 0.65768 0.0
H1268 H 0.40234 0.06146 0.68083 0.0
H1269 H 0.37349 0.02048 0.74058 0.0
H1270 H 0.33795 0.00128 0.71751 0.0
H1271 H 0.4326 0.0259 0.73606 0.0
H1272 H 0.35145 0.07616 0.7364 0.0
H1273 H 0.31369 0.09788 0.71775 0.0
H1274 H 0.36636 0.14782 0.67998 0.0
H1275 H 0.40447 0.12604 0.69814 0.0
C1276 C 0.47162 0.1205 0.80684 0.0
C1277 C 0.48095 0.14455 0.79805 0.0
C1278 C 0.46057 0.1017 0.79216 0.0
C1279 C 0.45881 0.1066 0.76847 0.0
C1280 C 0.46959 0.12988 0.75954 0.0
C1281 C 0.4806 0.14863 0.77416 0.0
C1282 C 0.44268 0.0894 0.75347 0.0
C1283 C 0.4212 0.10099 0.7422 0.0
C1284 C 0.44699 0.06195 0.75133 0.0
C1285 C 0.47015 0.04874 0.76183 0.0
C1286 C 0.49568 0.05874 0.75849 0.0
C1287 C 0.5174 0.04606 0.76823 0.0
C1288 C 0.51394 0.02304 0.78097 0.0
C1289 C 0.48872 0.01276 0.78417 0.0
C1290 C 0.4669 0.02553 0.7747 0.0
C1291 C 0.36859 0.03694 0.67563 0.0
C1292 C 0.34952 0.02066 0.68585 0.0
C1293 C 0.38876 0.04779 0.6888 0.0
C1294 C 0.39032 0.04251 0.7124 0.0
C1295 C 0.3726 0.02468 0.72235 0.0
C1296 C 0.35225 0.01387 0.70917 0.0
C1297 C 0.40784 0.0586 0.72701 0.0
C1298 C 0.42928 0.04684 0.73818 0.0
C1299 C 0.40368 0.08596 0.72917 0.0
C1300 C 0.38079 0.09927 0.71843 0.0
C1301 C 0.35498 0.0916 0.72396 0.0
C1302 C 0.33352 0.10395 0.71351 0.0
C1303 C 0.33762 0.12417 0.69764 0.0
C1304 C 0.36321 0.13212 0.69225 0.0
C1305 C 0.38474 0.11979 0.70262 0.0
H1306 H 0.32098 0.13371 0.68957 0.0
H1307 H 0.53081 0.01311 0.78828 0.0
H1308 H 0.98521 0.31533 0.72668 0.0
H1309 H 0.96301 0.34658 0.7519 0.0
H1310 H 0.94976 0.39846 0.69442 0.0
H1311 H 0.97228 0.36738 0.66899 0.0
H1312 H 0.96029 0.42569 0.73561 0.0
H1313 H 0.90302 0.35756 0.70783 0.0
H1314 H 0.88987 0.31172 0.70012 0.0
H1315 H 0.89182 0.29477 0.77239 0.0
H1316 H 0.9054 0.34044 0.7805 0.0
H1317 H 0.83974 0.4847 0.77928 0.0
H1318 H 0.87548 0.46489 0.75683 0.0
H1319 H 0.89206 0.41169 0.81269 0.0
H1320 H 0.85673 0.43129 0.83519 0.0
H1321 H 0.88086 0.38675 0.77168 0.0
H1322 H 0.936 0.45617 0.79954 0.0
H1323 H 0.9502 0.50177 0.80678 0.0
H1324 H 0.95184 0.51689 0.73421 0.0
H1325 H 0.93724 0.47146 0.72652 0.0
C1326 C 0.97802 0.33358 0.71943 0.0
C1327 C 0.98012 0.33867 0.69575 0.0
C1328 C 0.96535 0.35144 0.73388 0.0
C1329 C 0.95436 0.37459 0.72492 0.0
C1330 C 0.95806 0.38065 0.70163 0.0
C1331 C 0.97084 0.36281 0.68713 0.0
C1332 C 0.93665 0.39081 0.73933 0.0
C1333 C 0.94275 0.41735 0.74333 0.0
C1334 C 0.91395 0.37975 0.74954 0.0
C1335 C 0.90549 0.35234 0.74475 0.0
C1336 C 0.90083 0.344 0.72206 0.0
C1337 C 0.89328 0.31806 0.71762 0.0
C1338 C 0.89008 0.30032 0.73575 0.0
C1339 C 0.89435 0.30852 0.75836 0.0
C1340 C 0.90196 0.33443 0.76289 0.0
C1341 C 0.85136 0.46914 0.78694 0.0
C1342 C 0.84516 0.45934 0.80891 0.0
C1343 C 0.87183 0.45794 0.77414 0.0
C1344 C 0.88633 0.43679 0.78311 0.0
C1345 C 0.88106 0.42797 0.80546 0.0
C1346 C 0.86079 0.4392 0.81828 0.0
C1347 C 0.90462 0.42164 0.76837 0.0
C1348 C 0.89844 0.3952 0.76409 0.0
C1349 C 0.92705 0.43294 0.75787 0.0
C1350 C 0.93516 0.46048 0.76246 0.0
C1351 C 0.93902 0.46931 0.78512 0.0
C1352 C 0.94723 0.49511 0.78931 0.0
C1353 C 0.9518 0.51225 0.77097 0.0
C1354 C 0.94821 0.50361 0.7484 0.0
C1355 C 0.93997 0.47783 0.74412 0.0
H1356 H 0.95825 0.53219 0.77425 0.0
H1357 H 0.88423 0.28024 0.73227 0.0
H1358 H 0.61723 0.96954 0.67515 0.0
H1359 H 0.5841 0.95249 0.70149 0.0
H1360 H 0.63022 0.97929 0.7592 0.0
H1361 H 0.66396 0.99556 0.73287 0.0
H1362 H 0.61921 0.93134 0.76534 0.0
H1363 H 0.56812 0.00482 0.74523 0.0
H1364 H 0.54587 0.0379 0.72118 0.0
H1365 H 0.49643 0.97796 0.69234 0.0
H1366 H 0.51896 0.94431 0.71559 0.0
H1367 H 0.52392 0.87514 0.83979 0.0
H1368 H 0.54416 0.91223 0.81961 0.0
H1369 H 0.52946 0.87423 0.75467 0.0
H1370 H 0.5097 0.83673 0.77471 0.0
H1371 H 0.52204 0.93454 0.75772 0.0
H1372 H 0.58369 0.86165 0.77296 0.0
H1373 H 0.6051 0.83026 0.79934 0.0
H1374 H 0.63315 0.89434 0.8407 0.0
H1375 H 0.61152 0.92608 0.81471 0.0
C1376 C 0.62011 0.97228 0.69343 0.0
C1377 C 0.64338 0.98361 0.70193 0.0
C1378 C 0.601 0.96268 0.70852 0.0
C1379 C 0.60452 0.96467 0.7324 0.0
C1380 C 0.62706 0.97742 0.74086 0.0
C1381 C 0.64635 0.98671 0.72579 0.0
C1382 C 0.58661 0.95041 0.74832 0.0
C1383 C 0.59797 0.93267 0.76395 0.0
C1384 C 0.55879 0.95179 0.74653 0.0
C1385 C 0.54546 0.97192 0.73209 0.0
C1386 C 0.55278 0.99857 0.73352 0.0
C1387 C 0.54008 0.01745 0.72003 0.0
C1388 C 0.51974 0.01005 0.70526 0.0
C1389 C 0.51218 0.98369 0.70382 0.0
C1390 C 0.52495 0.96468 0.71712 0.0
C1391 C 0.52446 0.87491 0.82119 0.0
C1392 C 0.51549 0.85291 0.80882 0.0
C1393 C 0.53596 0.89615 0.80972 0.0
C1394 C 0.53824 0.89588 0.78571 0.0
C1395 C 0.52767 0.8748 0.77321 0.0
C1396 C 0.5166 0.85334 0.78469 0.0
C1397 C 0.55491 0.91547 0.77389 0.0
C1398 C 0.54331 0.93395 0.75917 0.0
C1399 C 0.58248 0.91522 0.77669 0.0
C1400 C 0.59575 0.89617 0.79209 0.0
C1401 C 0.59423 0.86901 0.7878 0.0
C1402 C 0.60643 0.85117 0.80265 0.0
C1403 C 0.62041 0.8603 0.82173 0.0
C1404 C 0.62227 0.8873 0.82595 0.0
C1405 C 0.61006 0.90521 0.81116 0.0
H1406 H 0.62984 0.84646 0.83321 0.0
H1407 H 0.50982 0.02474 0.69496 0.0
H1408 H 0.05869 0.27732 0.40894 0.0
H1409 H 0.05358 0.27991 0.45059 0.0
H1410 H 0.97025 0.29299 0.44238 0.0
H1411 H 0.97523 0.29081 0.40061 0.0
H1412 H 0.99107 0.32458 0.47549 0.0
H1413 H 0.99291 0.23273 0.45594 0.0
H1414 H 0.01135 0.19298 0.43777 0.0
H1415 H 0.08124 0.20033 0.47871 0.0
H1416 H 0.06336 0.24037 0.4969 0.0
H1417 H 0.94878 0.28819 0.58775 0.0
H1418 H 0.95602 0.29203 0.54637 0.0
H1419 H 0.03906 0.27872 0.55631 0.0
H1420 H 0.032 0.27464 0.59771 0.0
H1421 H 0.01933 0.24812 0.52241 0.0
H1422 H 0.01678 0.33927 0.54295 0.0
H1423 H 0.99848 0.37932 0.56068 0.0
H1424 H 0.92989 0.37335 0.51794 0.0
H1425 H 0.94762 0.33302 0.50016 0.0
C1426 C 0.03929 0.28091 0.41595 0.0
C1427 C 0.01733 0.28366 0.40146 0.0
C1428 C 0.0364 0.28231 0.43978 0.0
C1429 C 0.01148 0.28626 0.44957 0.0
C1430 C 0.98965 0.28986 0.43516 0.0
C1431 C 0.99252 0.28853 0.4113 0.0
C1432 C 0.00808 0.2858 0.47486 0.0
C1433 C 0.99696 0.30776 0.48575 0.0
C1434 C 0.01629 0.26404 0.48824 0.0
C1435 C 0.0269 0.2397 0.47761 0.0
C1436 C 0.01228 0.22597 0.46096 0.0
C1437 C 0.02263 0.20338 0.45067 0.0
C1438 C 0.04749 0.19418 0.45702 0.0
C1439 C 0.062 0.2075 0.47377 0.0
C1440 C 0.05176 0.23013 0.48409 0.0
C1441 C 0.96862 0.28628 0.58117 0.0
C1442 C 0.98981 0.28107 0.59603 0.0
C1443 C 0.97273 0.28859 0.55752 0.0
C1444 C 0.9981 0.28581 0.54829 0.0
C1445 C 0.01933 0.28092 0.56309 0.0
C1446 C 0.01525 0.27868 0.58675 0.0
C1447 C 0.00231 0.28693 0.5231 0.0
C1448 C 0.01353 0.26501 0.5122 0.0
C1449 C 0.99414 0.30871 0.50973 0.0
C1450 C 0.98342 0.33296 0.52038 0.0
C1451 C 0.99769 0.34636 0.53747 0.0
C1452 C 0.98744 0.36914 0.5475 0.0
C1453 C 0.96301 0.37884 0.54048 0.0
C1454 C 0.9488 0.3658 0.52338 0.0
C1455 C 0.95895 0.34299 0.5133 0.0
H1456 H 0.95511 0.39648 0.54827 0.0
H1457 H 0.05548 0.17671 0.449 0.0
H1458 H 0.70607 0.02636 0.60313 0.0
H1459 H 0.70311 0.03183 0.56152 0.0
H1460 H 0.69356 0.94803 0.55345 0.0
H1461 H 0.69678 0.94232 0.59509 0.0
H1462 H 0.73036 0.96713 0.5247 0.0
H1463 H 0.64192 0.9893 0.54502 0.0
H1464 H 0.60696 0.01255 0.56624 0.0
H1465 H 0.63468 0.08647 0.54002 0.0
H1466 H 0.67005 0.0637 0.51889 0.0
H1467 H 0.70541 0.97414 0.4052 0.0
H1468 H 0.69908 0.96611 0.44625 0.0
H1469 H 0.70775 0.04907 0.45981 0.0
H1470 H 0.71364 0.05736 0.41877 0.0
H1471 H 0.66892 0.02828 0.48549 0.0
H1472 H 0.75893 0.00689 0.46772 0.0
H1473 H 0.79455 0.98426 0.44684 0.0
H1474 H 0.76443 0.90944 0.46875 0.0
H1475 H 0.72839 0.93163 0.48953 0.0
C1476 C 0.70309 0.0091 0.59255 0.0
C1477 C 0.70169 0.98389 0.60243 0.0
C1478 C 0.70129 0.01228 0.56876 0.0
C1479 C 0.6979 0.99035 0.5544 0.0
C1480 C 0.69613 0.96521 0.56423 0.0
C1481 C 0.6979 0.962 0.58804 0.0
C1482 C 0.69762 0.99357 0.52906 0.0
C1483 C 0.7166 0.98013 0.51608 0.0
C1484 C 0.68009 0.01103 0.5179 0.0
C1485 C 0.65878 0.02479 0.53052 0.0
C1486 C 0.64069 0.01053 0.54392 0.0
C1487 C 0.62078 0.02362 0.5559 0.0
C1488 C 0.61864 0.05097 0.55452 0.0
C1489 C 0.63637 0.06529 0.54109 0.0
C1490 C 0.65634 0.05229 0.52909 0.0
C1491 C 0.70578 0.99072 0.41689 0.0
C1492 C 0.71024 0.01638 0.40873 0.0
C1493 C 0.70223 0.98607 0.44035 0.0
C1494 C 0.70333 0.00695 0.45612 0.0
C1495 C 0.70688 0.03267 0.44795 0.0
C1496 C 0.71033 0.03735 0.42448 0.0
C1497 C 0.70174 0.00193 0.4812 0.0
C1498 C 0.68249 0.01509 0.49412 0.0
C1499 C 0.71908 0.98428 0.49236 0.0
C1500 C 0.7408 0.97091 0.47996 0.0
C1501 C 0.75978 0.9856 0.46794 0.0
C1502 C 0.78007 0.97286 0.45615 0.0
C1503 C 0.78171 0.94542 0.45641 0.0
C1504 C 0.7631 0.93068 0.46853 0.0
C1505 C 0.74275 0.94333 0.48033 0.0
H1506 H 0.79743 0.93559 0.44727 0.0
H1507 H 0.6032 0.06107 0.56381 0.0
H1508 H 0.05529 0.75926 0.59599 0.0
H1509 H 0.05534 0.75868 0.55401 0.0
H1510 H 0.99569 0.69837 0.55435 0.0
H1511 H 0.99531 0.69894 0.59647 0.0
H1512 H 0.03818 0.69081 0.52124 0.0
H1513 H 0.97514 0.75632 0.54597 0.0
H1514 H 0.96151 0.79501 0.56859 0.0
H1515 H 0.02103 0.84168 0.53572 0.0
H1516 H 0.03524 0.80314 0.51311 0.0
H1517 H 0.99291 0.70319 0.40631 0.0
H1518 H 0.99708 0.69932 0.44801 0.0
H1519 H 0.04231 0.77115 0.44973 0.0
H1520 H 0.03746 0.77558 0.40816 0.0
H1521 H 0.00787 0.77223 0.48233 0.0
H1522 H 0.07082 0.70888 0.45677 0.0
H1523 H 0.08725 0.67065 0.43502 0.0
H1524 H 0.03191 0.62055 0.46955 0.0
H1525 H 0.01487 0.65857 0.4913 0.0
C1526 C 0.0424 0.74562 0.58718 0.0
C1527 C 0.02518 0.72923 0.59953 0.0
C1528 C 0.04244 0.74536 0.5632 0.0
C1529 C 0.02541 0.72859 0.55117 0.0
C1530 C 0.00897 0.71142 0.5634 0.0
C1531 C 0.00871 0.71187 0.58742 0.0
C1532 C 0.02364 0.73019 0.52585 0.0
C1533 C 0.03127 0.70844 0.51265 0.0
C1534 C 0.01528 0.75349 0.5148 0.0
C1535 C 0.00639 0.77681 0.528 0.0
C1536 C 0.98542 0.7748 0.54367 0.0
C1537 C 0.97757 0.7967 0.55647 0.0
C1538 C 0.99043 0.82078 0.55363 0.0
C1539 C 0.0111 0.82302 0.53791 0.0
C1540 C 0.01904 0.80116 0.52508 0.0
C1541 C 0.00386 0.71809 0.41557 0.0
C1542 C 0.01484 0.7397 0.40396 0.0
C1543 C 0.00635 0.71578 0.4394 0.0
C1544 C 0.02029 0.73478 0.45202 0.0
C1545 C 0.03144 0.75626 0.44039 0.0
C1546 C 0.02869 0.75874 0.41662 0.0
C1547 C 0.02251 0.7328 0.47741 0.0
C1548 C 0.01487 0.75452 0.49074 0.0
C1549 C 0.0312 0.70955 0.48853 0.0
C1550 C 0.04139 0.68663 0.4755 0.0
C1551 C 0.062 0.68975 0.45959 0.0
C1552 C 0.07145 0.66811 0.44729 0.0
C1553 C 0.06058 0.6432 0.45085 0.0
C1554 C 0.04028 0.63987 0.46678 0.0
C1555 C 0.03074 0.66145 0.47912 0.0
H1556 H 0.06793 0.62647 0.44131 0.0
H1557 H 0.98434 0.83771 0.56357 0.0
H1558 H 0.29747 0.97212 0.59383 0.0
H1559 H 0.30347 0.96659 0.55239 0.0
H1560 H 0.26861 0.04278 0.54065 0.0
H1561 H 0.26232 0.04838 0.58194 0.0
H1562 H 0.24783 0.0059 0.5128 0.0
H1563 H 0.33428 0.03398 0.53545 0.0
H1564 H 0.37543 0.03234 0.55784 0.0
H1565 H 0.39115 0.95472 0.53222 0.0
H1566 H 0.34987 0.95574 0.50992 0.0
H1567 H 0.27964 0.0266 0.39714 0.0
H1568 H 0.28057 0.03113 0.43887 0.0
H1569 H 0.30975 0.95182 0.44527 0.0
H1570 H 0.3089 0.94703 0.40338 0.0
H1571 H 0.334 0.98816 0.47577 0.0
H1572 H 0.24779 0.96036 0.45287 0.0
H1573 H 0.20697 0.9623 0.43006 0.0
H1574 H 0.19088 0.03957 0.45632 0.0
H1575 H 0.23188 0.03827 0.479 0.0
C1576 C 0.29119 0.98775 0.58243 0.0
C1577 C 0.27939 0.01069 0.59118 0.0
C1578 C 0.29474 0.9846 0.55877 0.0
C1579 C 0.28664 0.00436 0.54348 0.0
C1580 C 0.27499 0.0273 0.55218 0.0
C1581 C 0.27147 0.03048 0.57579 0.0
C1582 C 0.28944 0.00084 0.51833 0.0
C1583 C 0.26673 0.00235 0.5047 0.0
C1584 C 0.314 0.99548 0.50784 0.0
C1585 C 0.33884 0.99482 0.52121 0.0
C1586 C 0.34639 0.01646 0.53475 0.0
C1587 C 0.36976 0.01567 0.54739 0.0
C1588 C 0.38586 0.99341 0.54651 0.0
C1589 C 0.37864 0.97193 0.53292 0.0
C1590 C 0.35527 0.97261 0.52026 0.0
C1591 C 0.28657 0.01019 0.40735 0.0
C1592 C 0.29395 0.98634 0.39695 0.0
C1593 C 0.28705 0.01282 0.4312 0.0
C1594 C 0.29491 0.9917 0.44509 0.0
C1595 C 0.30356 0.96831 0.43479 0.0
C1596 C 0.30297 0.9656 0.41088 0.0
C1597 C 0.29246 0.99361 0.47036 0.0
C1598 C 0.31515 0.99168 0.48396 0.0
C1599 C 0.26788 0.99858 0.48088 0.0
C1600 C 0.24305 0.99932 0.46747 0.0
C1601 C 0.23566 0.97785 0.45365 0.0
C1602 C 0.21248 0.97882 0.44076 0.0
C1603 C 0.19637 0.00107 0.4417 0.0
C1604 C 0.2034 0.02236 0.45559 0.0
C1605 C 0.2266 0.02152 0.46847 0.0
H1606 H 0.17843 0.00178 0.43171 0.0
H1607 H 0.40395 0.99283 0.5563 0.0
H1608 H 0.48211 0.77094 0.90102 0.0
H1609 H 0.47849 0.7732 0.94267 0.0
H1610 H 0.55666 0.80596 0.94678 0.0
H1611 H 0.56073 0.8031 0.90487 0.0
H1612 H 0.55022 0.76932 0.97863 0.0
H1613 H 0.50181 0.84477 0.9551 0.0
H1614 H 0.46915 0.86998 0.93283 0.0
H1615 H 0.40691 0.82285 0.96099 0.0
H1616 H 0.43923 0.79709 0.98319 0.0
H1617 H 0.52952 0.7948 0.09847 0.0
H1618 H 0.53843 0.80146 0.05753 0.0
H1619 H 0.464 0.76553 0.04066 0.0
H1620 H 0.45476 0.75919 0.08141 0.0
H1621 H 0.47221 0.80957 0.0159 0.0
H1622 H 0.52237 0.73171 0.0366 0.0
H1623 H 0.55565 0.70739 0.05898 0.0
H1624 H 0.61549 0.76105 0.03629 0.0
H1625 H 0.58248 0.78592 0.01403 0.0
C1626 C 0.49852 0.77877 0.91072 0.0
C1627 C 0.52168 0.78697 0.89961 0.0
C1628 C 0.49637 0.78017 0.93456 0.0
C1629 C 0.51712 0.79019 0.94784 0.0
C1630 C 0.54036 0.79828 0.93685 0.0
C1631 C 0.54263 0.79668 0.91292 0.0
C1632 C 0.51459 0.79146 0.97322 0.0
C1633 C 0.53342 0.77857 0.98682 0.0
C1634 C 0.49255 0.80331 0.98391 0.0
C1635 C 0.47299 0.81888 0.97071 0.0
C1636 C 0.48118 0.83966 0.95644 0.0
C1637 C 0.46272 0.85407 0.94384 0.0
C1638 C 0.43598 0.84799 0.94547 0.0
C1639 C 0.42763 0.82753 0.95974 0.0
C1640 C 0.44601 0.81304 0.97237 0.0
C1641 C 0.51502 0.78838 0.08603 0.0
C1642 C 0.49145 0.77639 0.09319 0.0
C1643 C 0.52019 0.79212 0.06266 0.0
C1644 C 0.50198 0.78376 0.04606 0.0
C1645 C 0.47832 0.77214 0.05319 0.0
C1646 C 0.47311 0.76846 0.0765 0.0
C1647 C 0.50743 0.78684 0.02118 0.0
C1648 C 0.48916 0.80062 0.00771 0.0
C1649 C 0.53006 0.77597 0.01066 0.0
C1650 C 0.54991 0.76084 0.02386 0.0
C1651 C 0.54259 0.73843 0.03652 0.0
C1652 C 0.56141 0.72453 0.04917 0.0
C1653 C 0.58766 0.73272 0.04911 0.0
C1654 C 0.59515 0.75477 0.03635 0.0
C1655 C 0.5764 0.76876 0.02371 0.0
H1656 H 0.60221 0.72197 0.05891 0.0
H1657 H 0.42172 0.85917 0.93569 0.0
H1658 H 0.21217 0.47091 0.89905 0.0
H1659 H 0.21084 0.46691 0.94088 0.0
H1660 H 0.21178 0.55149 0.94712 0.0
H1661 H 0.21237 0.55563 0.90535 0.0
H1662 H 0.24603 0.48034 0.97059 0.0
H1663 H 0.18245 0.57106 0.99612 0.0
H1664 H 0.14416 0.59567 0.98141 0.0
H1665 H 0.11813 0.52725 0.94462 0.0
H1666 H 0.15604 0.50213 0.95935 0.0
H1667 H 0.2742 0.51714 0.08404 0.0
H1668 H 0.2656 0.51784 0.04278 0.0
H1669 H 0.18557 0.49323 0.05497 0.0
H1670 H 0.19384 0.49309 0.09638 0.0
H1671 H 0.1866 0.52966 0.02272 0.0
H1672 H 0.23192 0.44923 0.03661 0.0
H1673 H 0.26717 0.42069 0.05163 0.0
H1674 H 0.32382 0.46099 0.00971 0.0
H1675 H 0.28895 0.49004 0.99468 0.0
C1676 C 0.21173 0.48866 0.90933 0.0
C1677 C 0.2124 0.51359 0.89888 0.0
C1678 C 0.21103 0.48634 0.93324 0.0
C1679 C 0.21106 0.50888 0.94718 0.0
C1680 C 0.21125 0.5338 0.93676 0.0
C1681 C 0.21171 0.53614 0.91284 0.0
C1682 C 0.21263 0.50636 0.97257 0.0
C1683 C 0.23293 0.49104 0.98196 0.0
C1684 C 0.19526 0.5199 0.98747 0.0
C1685 C 0.17224 0.53479 0.97869 0.0
C1686 C 0.1685 0.56124 0.98497 0.0
C1687 C 0.14687 0.57528 0.97661 0.0
C1688 C 0.12877 0.56306 0.96203 0.0
C1689 C 0.13222 0.53673 0.95584 0.0
C1690 C 0.1538 0.52259 0.96416 0.0
C1691 C 0.25474 0.51195 0.07798 0.0
C1692 C 0.23475 0.50489 0.09348 0.0
C1693 C 0.24988 0.51227 0.05437 0.0
C1694 C 0.22507 0.50516 0.04576 0.0
C1695 C 0.20488 0.49871 0.06123 0.0
C1696 C 0.20967 0.49858 0.08488 0.0
C1697 C 0.22037 0.50418 0.02061 0.0
C1698 C 0.19954 0.51885 0.0113 0.0
C1699 C 0.23681 0.48948 0.00577 0.0
C1700 C 0.25784 0.47195 0.01466 0.0
C1701 C 0.25192 0.45212 0.03071 0.0
C1702 C 0.27183 0.43584 0.03921 0.0
C1703 C 0.29773 0.43906 0.03167 0.0
C1704 C 0.30375 0.45854 0.01556 0.0
C1705 C 0.28392 0.4749 0.00702 0.0
H1706 H 0.31312 0.42644 0.03828 0.0
H1707 H 0.11205 0.57397 0.95557 0.0
H1708 H 0.47987 0.2077 0.09398 0.0
H1709 H 0.47447 0.20392 0.05234 0.0
H1710 H 0.55638 0.22342 0.04282 0.0
H1711 H 0.56208 0.22655 0.08434 0.0
H1712 H 0.47877 0.23917 0.0203 0.0
H1713 H 0.58063 0.19531 0.99516 0.0
H1714 H 0.61344 0.16453 0.01104 0.0
H1715 H 0.55333 0.1268 0.05106 0.0
H1716 H 0.5201 0.1571 0.03519 0.0
H1717 H 0.50948 0.26884 0.90589 0.0
H1718 H 0.5111 0.26218 0.94736 0.0
H1719 H 0.50272 0.17848 0.93763 0.0
H1720 H 0.50151 0.18494 0.89592 0.0
H1721 H 0.53882 0.18859 0.96963 0.0
H1722 H 0.45059 0.21482 0.95526 0.0
H1723 H 0.41489 0.24217 0.9394 0.0
H1724 H 0.44212 0.30831 0.97862 0.0
H1725 H 0.47824 0.28145 0.99448 0.0
C1726 C 0.49679 0.21095 0.08302 0.0
C1727 C 0.52142 0.21738 0.09247 0.0
C1728 C 0.49366 0.20882 0.05922 0.0
C1729 C 0.51507 0.2131 0.04444 0.0
C1730 C 0.53968 0.21947 0.05387 0.0
C1731 C 0.54288 0.2214 0.07764 0.0
C1732 C 0.51147 0.21222 0.01913 0.0
C1733 C 0.49183 0.22799 0.00925 0.0
C1734 C 0.5281 0.19719 0.00468 0.0
C1735 C 0.54791 0.17864 0.0141 0.0
C1736 C 0.57439 0.18036 0.00726 0.0
C1737 C 0.59307 0.16301 0.01628 0.0
C1738 C 0.58549 0.14377 0.03209 0.0
C1739 C 0.55919 0.14178 0.03887 0.0
C1740 C 0.54043 0.15906 0.02989 0.0
C1741 C 0.50801 0.24898 0.91252 0.0
C1742 C 0.50522 0.22742 0.8976 0.0
C1743 C 0.50883 0.24523 0.93626 0.0
C1744 C 0.5066 0.21987 0.94561 0.0
C1745 C 0.50436 0.19822 0.93077 0.0
C1746 C 0.50363 0.20196 0.90696 0.0
C1747 C 0.50668 0.21615 0.97089 0.0
C1748 C 0.52564 0.19955 0.98073 0.0
C1749 C 0.48901 0.22992 0.98534 0.0
C1750 C 0.46725 0.24615 0.97592 0.0
C1751 C 0.44908 0.23525 0.96038 0.0
C1752 C 0.42875 0.25066 0.95141 0.0
C1753 C 0.42627 0.27697 0.95797 0.0
C1754 C 0.44408 0.28792 0.97355 0.0
C1755 C 0.46447 0.2726 0.98255 0.0
H1756 H 0.41051 0.28887 0.951 0.0
H1757 H 0.59998 0.13037 0.03907 0.0
H1758 H 0.80317 0.5029 0.90139 0.0
H1759 H 0.80636 0.50853 0.9432 0.0
H1760 H 0.7363 0.46181 0.95215 0.0
H1761 H 0.73307 0.45587 0.91066 0.0
H1762 H 0.73587 0.51053 0.97584 0.0
H1763 H 0.79277 0.435 0.96379 0.0
H1764 H 0.83066 0.41203 0.94655 0.0
H1765 H 0.88316 0.46947 0.97523 0.0
H1766 H 0.8455 0.493 0.99238 0.0
H1767 H 0.72674 0.47938 0.09203 0.0
H1768 H 0.73101 0.47752 0.05037 0.0
H1769 H 0.80802 0.51289 0.05491 0.0
H1770 H 0.80419 0.51402 0.0969 0.0
H1771 H 0.80847 0.47528 0.02381 0.0
H1772 H 0.75387 0.54926 0.03833 0.0
H1773 H 0.71706 0.57418 0.05527 0.0
H1774 H 0.66171 0.52352 0.0214 0.0
H1775 H 0.6982 0.49804 0.00452 0.0
C1776 C 0.78854 0.49372 0.9123 0.0
C1777 C 0.76786 0.47895 0.90273 0.0
C1778 C 0.79043 0.49692 0.93613 0.0
C1779 C 0.77155 0.48556 0.95067 0.0
C1780 C 0.75101 0.47075 0.94116 0.0
C1781 C 0.74928 0.4673 0.91745 0.0
C1782 C 0.77259 0.48949 0.97583 0.0
C1783 C 0.75162 0.50268 0.98639 0.0
C1784 C 0.79369 0.48012 0.98938 0.0
C1785 C 0.8163 0.46593 0.97913 0.0
C1786 C 0.81237 0.44287 0.96624 0.0
C1787 C 0.83381 0.42972 0.95652 0.0
C1788 C 0.8593 0.43934 0.95973 0.0
C1789 C 0.86341 0.46208 0.97272 0.0
C1790 C 0.84202 0.47532 0.98245 0.0
C1791 C 0.74462 0.48674 0.0842 0.0
C1792 C 0.76504 0.49705 0.09772 0.0
C1793 C 0.74699 0.48578 0.06035 0.0
C1794 C 0.76959 0.49562 0.04945 0.0
C1795 C 0.79034 0.50533 0.06294 0.0
C1796 C 0.78811 0.506 0.0869 0.0
C1797 C 0.77129 0.49572 0.02399 0.0
C1798 C 0.79281 0.48342 0.01332 0.0
C1799 C 0.75085 0.50627 0.01025 0.0
C1800 C 0.7288 0.52162 0.02029 0.0
C1801 C 0.73385 0.54332 0.03462 0.0
C1802 C 0.71304 0.55756 0.04419 0.0
C1803 C 0.68706 0.55041 0.03945 0.0
C1804 C 0.68185 0.52903 0.02507 0.0
C1805 C 0.70259 0.5147 0.01547 0.0
H1806 H 0.67098 0.56146 0.04688 0.0
H1807 H 0.87587 0.42912 0.95219 0.0
loop_
_geom_bond_atom_site_label_1
_geom_bond_atom_site_label_2
_geom_bond_distance
_geom_bond_site_symmetry_2
_ccdc_geom_bond_type
C0 O1 1.160 . S
C0 O7 1.185 . S
O1 C0 1.160 . S
O2 Zn3 1.899 . S
O2 C10 1.284 . S
Zn3 O2 1.899 . S
Zn3 O4 2.032 . S
Zn3 O7 2.086 . S
Zn3 O12 1.977 1_455 S
O4 Zn3 2.032 . S
O4 C8 1.278 . S
C5 O6 1.203 . S
C5 O12 1.267 . S
O6 C5 1.203 . S
O7 C0 1.185 . S
O7 Zn3 2.086 . S
C8 O4 1.278 . S
C8 O9 1.211 . S
O9 C8 1.211 . S
C10 O2 1.284 . S
C10 O11 1.273 . S
O11 C10 1.273 . S
O12 Zn3 1.977 1_655 S
O12 C5 1.267 . S
C13 O14 1.160 . S
C13 O20 1.185 . S
O14 C13 1.160 . S
O15 Zn16 1.899 . S
O15 C23 1.284 . S
Zn16 O15 1.899 . S
Zn16 O17 2.032 . S
Zn16 O20 2.086 . S
Zn16 O25 1.977 1_545 S
O17 Zn16 2.032 . S
O17 C21 1.278 . S
C18 O19 1.203 . S
C18 O25 1.267 . S
O19 C18 1.203 . S
O20 C13 1.185 . S
O20 Zn16 2.086 . S
C21 O17 1.278 . S
C21 O22 1.211 . S
O22 C21 1.211 . S
C23 O15 1.284 . S
C23 O24 1.273 . S
O24 C23 1.273 . S
O25 Zn16 1.977 1_565 S
O25 C18 1.267 . S
C26 O27 1.160 . S
C26 O33 1.185 . S
O27 C26 1.160 . S
O28 Zn29 1.899 . S
O28 C36 1.284 . S
Zn29 O28 1.899 . S
Zn29 O30 2.032 . S
Zn29 O33 2.086 . S
Zn29 O38 1.977 1_655 S
O30 Zn29 2.032 . S
O30 C34 1.278 . S
C31 O32 1.203 . S
C31 O38 1.267 . S
O32 C31 1.203 . S
O33 C26 1.185 . S
O33 Zn29 2.086 . S
C34 O30 1.278 . S
C34 O35 1.211 . S
O35 C34 1.211 . S
C36 O28 1.284 . S
C36 O37 1.273 . S
O37 C36 1.273 . S
O38 Zn29 1.977 1_455 S
O38 C31 1.267 . S
C39 O40 1.160 . S
C39 O46 1.185 . S
O40 C39 1.160 . S
O41 Zn42 1.899 . S
O41 C49 1.284 . S
Zn42 O41 1.899 . S
Zn42 O43 2.032 . S
Zn42 O46 2.086 . S
Zn42 O51 1.977 1_565 S
O43 Zn42 2.032 . S
O43 C47 1.278 . S
C44 O45 1.203 . S
C44 O51 1.267 . S
O45 C44 1.203 . S
O46 C39 1.185 . S
O46 Zn42 2.086 . S
C47 O43 1.278 . S
C47 O48 1.211 . S
O48 C47 1.211 . S
C49 O41 1.284 . S
C49 O50 1.273 . S
O50 C49 1.273 . S
O51 Zn42 1.977 1_545 S
O51 C44 1.267 . S
C52 O53 1.160 . S
C52 O59 1.185 . S
O53 C52 1.160 . S
O54 Zn55 1.899 . S
O54 C62 1.284 . S
Zn55 O54 1.899 . S
Zn55 O56 2.032 . S
Zn55 O59 2.086 . S
Zn55 O64 1.977 1_455 S
O56 Zn55 2.032 . S
O56 C60 1.278 . S
C57 O58 1.203 . S
C57 O64 1.267 . S
O58 C57 1.203 . S
O59 C52 1.185 . S
O59 Zn55 2.086 . S
C60 O56 1.278 . S
C60 O61 1.211 . S
O61 C60 1.211 . S
C62 O54 1.284 . S
C62 O63 1.273 . S
O63 C62 1.273 . S
O64 Zn55 1.977 1_655 S
O64 C57 1.267 . S
C65 O66 1.160 . S
C65 O72 1.185 . S
O66 C65 1.160 . S
O67 Zn68 1.899 . S
O67 C75 1.284 . S
Zn68 O67 1.899 . S
Zn68 O69 2.032 . S
Zn68 O72 2.086 . S
Zn68 O77 1.977 1_545 S
O69 Zn68 2.032 . S
O69 C73 1.278 . S
C70 O71 1.203 . S
C70 O77 1.267 . S
O71 C70 1.203 . S
O72 C65 1.185 . S
O72 Zn68 2.086 . S
C73 O69 1.278 . S
C73 O74 1.211 . S
O74 C73 1.211 . S
C75 O67 1.284 . S
C75 O76 1.273 . S
O76 C75 1.273 . S
O77 Zn68 1.977 1_565 S
O77 C70 1.267 . S
C78 O79 1.160 . S
C78 O85 1.185 . S
O79 C78 1.160 . S
O80 Zn81 1.899 . S
O80 C88 1.284 . S
Zn81 O80 1.899 . S
Zn81 O82 2.032 . S
Zn81 O85 2.086 . S
Zn81 O90 1.977 1_655 S
O82 Zn81 2.032 . S
O82 C86 1.278 . S
C83 O84 1.203 . S
C83 O90 1.267 . S
O84 C83 1.203 . S
O85 C78 1.185 . S
O85 Zn81 2.086 . S
C86 O82 1.278 . S
C86 O87 1.211 . S
O87 C86 1.211 . S
C88 O80 1.284 . S
C88 O89 1.273 . S
O89 C88 1.273 . S
O90 Zn81 1.977 1_455 S
O90 C83 1.267 . S
C91 O92 1.160 . S
C91 O98 1.185 . S
O92 C91 1.160 . S
O93 Zn94 1.899 . S
O93 C101 1.284 . S
Zn94 O93 1.899 . S
Zn94 O95 2.032 . S
Zn94 O98 2.086 . S
Zn94 O103 1.977 1_565 S
O95 Zn94 2.032 . S
O95 C99 1.278 . S
C96 O97 1.203 . S
C96 O103 1.267 . S
O97 C96 1.203 . S
O98 C91 1.185 . S
O98 Zn94 2.086 . S
C99 O95 1.278 . S
C99 O100 1.211 . S
O100 C99 1.211 . S
C101 O93 1.284 . S
C101 O102 1.273 . S
O102 C101 1.273 . S
O103 Zn94 1.977 1_545 S
O103 C96 1.267 . S
C104 O105 1.160 . S
C104 O111 1.185 . S
O105 C104 1.160 . S
O106 Zn107 1.899 . S
O106 C114 1.284 . S
Zn107 O106 1.899 . S
Zn107 O108 2.032 . S
Zn107 O111 2.086 . S
Zn107 O116 1.977 . S
O108 Zn107 2.032 . S
O108 C112 1.278 . S
C109 O110 1.203 . S
C109 O116 1.267 . S
O110 C109 1.203 . S
O111 C104 1.185 . S
O111 Zn107 2.086 . S
C112 O108 1.278 . S
C112 O113 1.211 . S
O113 C112 1.211 . S
C114 O106 1.284 . S
C114 O115 1.273 . S
O115 C114 1.273 . S
O116 Zn107 1.977 . S
O116 C109 1.267 . S
C117 O118 1.160 . S
C117 O124 1.185 . S
O118 C117 1.160 . S
O119 Zn120 1.899 . S
O119 C127 1.284 . S
Zn120 O119 1.899 . S
Zn120 O121 2.032 . S
Zn120 O124 2.086 . S
Zn120 O129 1.977 . S
O121 Zn120 2.032 . S
O121 C125 1.278 . S
C122 O123 1.203 . S
C122 O129 1.267 . S
O123 C122 1.203 . S
O124 C117 1.185 . S
O124 Zn120 2.086 . S
C125 O121 1.278 . S
C125 O126 1.211 . S
O126 C125 1.211 . S
C127 O119 1.284 . S
C127 O128 1.273 . S
O128 C127 1.273 . S
O129 Zn120 1.977 . S
O129 C122 1.267 . S
C130 O131 1.160 . S
C130 O137 1.185 . S
O131 C130 1.160 . S
O132 Zn133 1.899 . S
O132 C140 1.284 . S
Zn133 O132 1.899 . S
Zn133 O134 2.032 . S
Zn133 O137 2.086 . S
Zn133 O142 1.977 . S
O134 Zn133 2.032 . S
O134 C138 1.278 . S
C135 O136 1.203 . S
C135 O142 1.267 . S
O136 C135 1.203 . S
O137 C130 1.185 . S
O137 Zn133 2.086 . S
C138 O134 1.278 . S
C138 O139 1.211 . S
O139 C138 1.211 . S
C140 O132 1.284 . S
C140 O141 1.273 . S
O141 C140 1.273 . S
O142 Zn133 1.977 . S
O142 C135 1.267 . S
C143 O144 1.160 . S
C143 O150 1.185 . S
O144 C143 1.160 . S
O145 Zn146 1.899 . S
O145 C153 1.284 . S
Zn146 O145 1.899 . S
Zn146 O147 2.032 . S
Zn146 O150 2.086 . S
Zn146 O155 1.977 . S
O147 Zn146 2.032 . S
O147 C151 1.278 . S
C148 O149 1.203 . S
C148 O155 1.267 . S
O149 C148 1.203 . S
O150 C143 1.185 . S
O150 Zn146 2.086 . S
C151 O147 1.278 . S
C151 O152 1.211 . S
O152 C151 1.211 . S
C153 O145 1.284 . S
C153 O154 1.273 . S
O154 C153 1.273 . S
O155 Zn146 1.977 . S
O155 C148 1.267 . S
C156 O157 1.160 . S
C156 O163 1.185 . S
O157 C156 1.160 . S
O158 Zn159 1.899 . S
O158 C166 1.284 . S
Zn159 O158 1.899 . S
Zn159 O160 2.032 . S
Zn159 O163 2.086 . S
Zn159 O168 1.977 . S
O160 Zn159 2.032 . S
O160 C164 1.278 . S
C161 O162 1.203 . S
C161 O168 1.267 . S
O162 C161 1.203 . S
O163 C156 1.185 . S
O163 Zn159 2.086 . S
C164 O160 1.278 . S
C164 O165 1.211 . S
O165 C164 1.211 . S
C166 O158 1.284 . S
C166 O167 1.273 . S
O167 C166 1.273 . S
O168 Zn159 1.977 . S
O168 C161 1.267 . S
C169 O170 1.160 . S
C169 O176 1.185 . S
O170 C169 1.160 . S
O171 Zn172 1.899 . S
O171 C179 1.284 . S
Zn172 O171 1.899 . S
Zn172 O173 2.032 . S
Zn172 O176 2.086 . S
Zn172 O181 1.977 . S
O173 Zn172 2.032 . S
O173 C177 1.278 . S
C174 O175 1.203 . S
C174 O181 1.267 . S
O175 C174 1.203 . S
O176 C169 1.185 . S
O176 Zn172 2.086 . S
C177 O173 1.278 . S
C177 O178 1.211 . S
O178 C177 1.211 . S
C179 O171 1.284 . S
C179 O180 1.273 . S
O180 C179 1.273 . S
O181 Zn172 1.977 . S
O181 C174 1.267 . S
C182 O183 1.160 . S
C182 O189 1.185 . S
O183 C182 1.160 . S
O184 Zn185 1.899 . S
O184 C192 1.284 . S
Zn185 O184 1.899 . S
Zn185 O186 2.032 . S
Zn185 O189 2.086 . S
Zn185 O194 1.977 . S
O186 Zn185 2.032 . S
O186 C190 1.278 . S
C187 O188 1.203 . S
C187 O194 1.267 . S
O188 C187 1.203 . S
O189 C182 1.185 . S
O189 Zn185 2.086 . S
C190 O186 1.278 . S
C190 O191 1.211 . S
O191 C190 1.211 . S
C192 O184 1.284 . S
C192 O193 1.273 . S
O193 C192 1.273 . S
O194 Zn185 1.977 . S
O194 C187 1.267 . S
C195 O196 1.160 . S
C195 O202 1.185 . S
O196 C195 1.160 . S
O197 Zn198 1.899 . S
O197 C205 1.284 . S
Zn198 O197 1.899 . S
Zn198 O199 2.032 . S
Zn198 O202 2.086 . S
Zn198 O207 1.977 . S
O199 Zn198 2.032 . S
O199 C203 1.278 . S
C200 O201 1.203 . S
C200 O207 1.267 . S
O201 C200 1.203 . S
O202 C195 1.185 . S
O202 Zn198 2.086 . S
C203 O199 1.278 . S
C203 O204 1.211 . S
O204 C203 1.211 . S
C205 O197 1.284 . S
C205 O206 1.273 . S
O206 C205 1.273 . S
O207 Zn198 1.977 . S
O207 C200 1.267 . S
H208 C226 0.951 . S
H209 C228 0.951 . S
H210 C230 0.950 . S
H211 C231 0.950 . S
H212 C233 0.950 . S
H213 C236 0.950 . S
H214 C237 0.950 . S
H215 C239 0.950 . S
H216 C240 0.950 . S
H217 C241 0.951 . S
H218 C243 0.951 . S
H219 C245 0.950 . S
H220 C246 0.950 . S
H221 C248 0.950 . S
H222 C251 0.950 . S
H223 C252 0.950 . S
H224 C254 0.950 . S
H225 C255 0.950 . S
C226 H208 0.951 . S
C226 C227 1.366 . S
C226 C228 1.388 . S
C227 C226 1.366 . S
C227 C231 1.385 . S
C228 H209 0.951 . S
C228 C226 1.388 . S
C228 C229 1.366 . S
C229 C228 1.366 . S
C229 C230 1.414 . S
C229 C232 1.499 . S
C230 H210 0.950 . S
C230 C229 1.414 . S
C230 C231 1.374 . S
C231 H211 0.950 . S
C231 C227 1.385 . S
C231 C230 1.374 . S
C232 C229 1.499 . S
C232 C233 1.373 . S
C232 C234 1.389 . S
C233 H212 0.950 . S
C233 C232 1.373 . S
C233 C249 1.377 . S
C234 C232 1.389 . S
C234 C235 1.524 . S
C234 C248 1.377 . S
C235 C234 1.524 . S
C235 C236 1.397 . S
C235 C240 1.363 . S
C236 H213 0.950 . S
C236 C235 1.397 . S
C236 C237 1.334 . S
C237 H214 0.950 . S
C237 C236 1.334 . S
C237 C238 1.287 . S
C238 C237 1.287 . S
C238 C239 1.524 . S
C238 H257 0.913 . S
C239 H215 0.950 . S
C239 C238 1.524 . S
C239 C240 1.415 . S
C240 H216 0.950 . S
C240 C235 1.363 . S
C240 C239 1.415 . S
C241 H217 0.951 . S
C241 C242 1.366 . S
C241 C243 1.388 . S
C242 C241 1.366 . S
C242 C246 1.385 . S
C243 H218 0.951 . S
C243 C241 1.388 . S
C243 C244 1.366 . S
C244 C243 1.366 . S
C244 C245 1.414 . S
C244 C247 1.499 . S
C245 H219 0.950 . S
C245 C244 1.414 . S
C245 C246 1.374 . S
C246 H220 0.950 . S
C246 C242 1.385 . S
C246 C245 1.374 . S
C247 C244 1.499 . S
C247 C248 1.373 . S
C247 C249 1.389 . S
C248 H221 0.950 . S
C248 C234 1.377 . S
C248 C247 1.373 . S
C249 C233 1.377 . S
C249 C247 1.389 . S
C249 C250 1.524 . S
C250 C249 1.524 . S
C250 C251 1.397 . S
C250 C255 1.363 . S
C251 H222 0.950 . S
C251 C250 1.397 . S
C251 C252 1.334 . S
C252 H223 0.950 . S
C252 C251 1.334 . S
C252 C253 1.287 . S
C253 C252 1.287 . S
C253 C254 1.524 . S
C253 H256 0.999 . S
C254 H224 0.950 . S
C254 C253 1.524 . S
C254 C255 1.415 . S
C255 H225 0.950 . S
C255 C250 1.363 . S
C255 C254 1.415 . S
H256 C253 0.999 . S
H257 C238 0.913 . S
H258 C276 0.951 . S
H259 C278 0.951 . S
H260 C280 0.950 . S
H261 C281 0.950 . S
H262 C283 0.950 . S
H263 C286 0.950 . S
H264 C287 0.950 . S
H265 C289 0.950 . S
H266 C290 0.950 . S
H267 C291 0.951 . S
H268 C293 0.951 . S
H269 C295 0.950 . S
H270 C296 0.950 . S
H271 C298 0.950 . S
H272 C301 0.950 . S
H273 C302 0.950 . S
H274 C304 0.950 . S
H275 C305 0.950 . S
C276 H258 0.951 . S
C276 C277 1.366 . S
C276 C278 1.388 . S
C277 C276 1.366 . S
C277 C281 1.385 . S
C278 H259 0.951 . S
C278 C276 1.388 . S
C278 C279 1.366 . S
C279 C278 1.366 . S
C279 C280 1.414 . S
C279 C282 1.499 . S
C280 H260 0.950 . S
C280 C279 1.414 . S
C280 C281 1.374 . S
C281 H261 0.950 . S
C281 C277 1.385 . S
C281 C280 1.374 . S
C282 C279 1.499 . S
C282 C283 1.373 . S
C282 C284 1.389 . S
C283 H262 0.950 . S
C283 C282 1.373 . S
C283 C299 1.377 . S
C284 C282 1.389 . S
C284 C285 1.524 . S
C284 C298 1.377 . S
C285 C284 1.524 . S
C285 C286 1.397 . S
C285 C290 1.363 . S
C286 H263 0.950 . S
C286 C285 1.397 . S
C286 C287 1.334 . S
C287 H264 0.950 . S
C287 C286 1.334 . S
C287 C288 1.287 . S
C288 C287 1.287 . S
C288 C289 1.524 . S
C288 H307 0.913 . S
C289 H265 0.950 . S
C289 C288 1.524 . S
C289 C290 1.415 . S
C290 H266 0.950 . S
C290 C285 1.363 . S
C290 C289 1.415 . S
C291 H267 0.951 . S
C291 C292 1.366 . S
C291 C293 1.388 . S
C292 C291 1.366 . S
C292 C296 1.385 . S
C293 H268 0.951 . S
C293 C291 1.388 . S
C293 C294 1.366 . S
C294 C293 1.366 . S
C294 C295 1.414 . S
C294 C297 1.499 . S
C295 H269 0.950 . S
C295 C294 1.414 . S
C295 C296 1.374 . S
C296 H270 0.950 . S
C296 C292 1.385 . S
C296 C295 1.374 . S
C297 C294 1.499 . S
C297 C298 1.373 . S
C297 C299 1.389 . S
C298 H271 0.950 . S
C298 C284 1.377 . S
C298 C297 1.373 . S
C299 C283 1.377 . S
C299 C297 1.389 . S
C299 C300 1.524 . S
C300 C299 1.524 . S
C300 C301 1.397 . S
C300 C305 1.363 . S
C301 H272 0.950 . S
C301 C300 1.397 . S
C301 C302 1.334 . S
C302 H273 0.950 . S
C302 C301 1.334 . S
C302 C303 1.287 . S
C303 C302 1.287 . S
C303 C304 1.524 . S
C303 H306 0.999 . S
C304 H274 0.950 . S
C304 C303 1.524 . S
C304 C305 1.415 . S
C305 H275 0.950 . S
C305 C300 1.363 . S
C305 C304 1.415 . S
H306 C303 0.999 . S
H307 C288 0.913 . S
H308 C326 0.951 . S
H309 C328 0.951 . S
H310 C330 0.950 . S
H311 C331 0.950 . S
H312 C333 0.950 . S
H313 C336 0.950 . S
H314 C337 0.950 . S
H315 C339 0.950 . S
H316 C340 0.950 . S
H317 C341 0.951 . S
H318 C343 0.951 . S
H319 C345 0.950 . S
H320 C346 0.950 . S
H321 C348 0.950 . S
H322 C351 0.950 . S
H323 C352 0.950 . S
H324 C354 0.950 . S
H325 C355 0.950 . S
C326 H308 0.951 . S
C326 C327 1.366 . S
C326 C328 1.388 . S
C327 C326 1.366 . S
C327 C331 1.385 . S
C328 H309 0.951 . S
C328 C326 1.388 . S
C328 C329 1.366 . S
C329 C328 1.366 . S
C329 C330 1.414 . S
C329 C332 1.499 . S
C330 H310 0.950 . S
C330 C329 1.414 . S
C330 C331 1.374 . S
C331 H311 0.950 . S
C331 C327 1.385 . S
C331 C330 1.374 . S
C332 C329 1.499 . S
C332 C333 1.373 . S
C332 C334 1.389 . S
C333 H312 0.950 . S
C333 C332 1.373 . S
C333 C349 1.377 . S
C334 C332 1.389 . S
C334 C335 1.524 . S
C334 C348 1.377 . S
C335 C334 1.524 . S
C335 C336 1.397 . S
C335 C340 1.363 . S
C336 H313 0.950 . S
C336 C335 1.397 . S
C336 C337 1.334 . S
C337 H314 0.950 . S
C337 C336 1.334 . S
C337 C338 1.287 . S
C338 C337 1.287 . S
C338 C339 1.524 . S
C338 H357 0.913 . S
C339 H315 0.950 . S
C339 C338 1.524 . S
C339 C340 1.415 . S
C340 H316 0.950 . S
C340 C335 1.363 . S
C340 C339 1.415 . S
C341 H317 0.951 . S
C341 C342 1.366 . S
C341 C343 1.388 . S
C342 C341 1.366 . S
C342 C346 1.385 . S
C343 H318 0.951 . S
C343 C341 1.388 . S
C343 C344 1.366 . S
C344 C343 1.366 . S
C344 C345 1.414 . S
C344 C347 1.499 . S
C345 H319 0.950 . S
C345 C344 1.414 . S
C345 C346 1.374 . S
C346 H320 0.950 . S
C346 C342 1.385 . S
C346 C345 1.374 . S
C347 C344 1.499 . S
C347 C348 1.373 . S
C347 C349 1.389 . S
C348 H321 0.950 . S
C348 C334 1.377 . S
C348 C347 1.373 . S
C349 C333 1.377 . S
C349 C347 1.389 . S
C349 C350 1.524 . S
C350 C349 1.524 . S
C350 C351 1.397 . S
C350 C355 1.363 . S
C351 H322 0.950 . S
C351 C350 1.397 . S
C351 C352 1.334 . S
C352 H323 0.950 . S
C352 C351 1.334 . S
C352 C353 1.287 . S
C353 C352 1.287 . S
C353 C354 1.524 . S
C353 H356 0.999 . S
C354 H324 0.950 . S
C354 C353 1.524 . S
C354 C355 1.415 . S
C355 H325 0.950 . S
C355 C350 1.363 . S
C355 C354 1.415 . S
H356 C353 0.999 . S
H357 C338 0.913 . S
H358 C376 0.951 . S
H359 C378 0.951 . S
H360 C380 0.950 . S
H361 C381 0.950 . S
H362 C383 0.950 . S
H363 C386 0.950 . S
H364 C387 0.950 . S
H365 C389 0.950 . S
H366 C390 0.950 . S
H367 C391 0.951 . S
H368 C393 0.951 . S
H369 C395 0.950 . S
H370 C396 0.950 . S
H371 C398 0.950 . S
H372 C401 0.950 . S
H373 C402 0.950 . S
H374 C404 0.950 . S
H375 C405 0.950 . S
C376 H358 0.951 . S
C376 C377 1.366 . S
C376 C378 1.388 . S
C377 C376 1.366 . S
C377 C381 1.385 . S
C378 H359 0.951 . S
C378 C376 1.388 . S
C378 C379 1.366 . S
C379 C378 1.366 . S
C379 C380 1.414 . S
C379 C382 1.499 . S
C380 H360 0.950 . S
C380 C379 1.414 . S
C380 C381 1.374 . S
C381 H361 0.950 . S
C381 C377 1.385 . S
C381 C380 1.374 . S
C382 C379 1.499 . S
C382 C383 1.373 . S
C382 C384 1.389 . S
C383 H362 0.950 . S
C383 C382 1.373 . S
C383 C399 1.377 . S
C384 C382 1.389 . S
C384 C385 1.524 . S
C384 C398 1.377 . S
C385 C384 1.524 . S
C385 C386 1.397 . S
C385 C390 1.363 . S
C386 H363 0.950 . S
C386 C385 1.397 . S
C386 C387 1.334 . S
C387 H364 0.950 . S
C387 C386 1.334 . S
C387 C388 1.287 . S
C388 C387 1.287 . S
C388 C389 1.524 . S
C388 H407 0.913 . S
C389 H365 0.950 . S
C389 C388 1.524 . S
C389 C390 1.415 . S
C390 H366 0.950 . S
C390 C385 1.363 . S
C390 C389 1.415 . S
C391 H367 0.951 . S
C391 C392 1.366 . S
C391 C393 1.388 . S
C392 C391 1.366 . S
C392 C396 1.385 . S
C393 H368 0.951 . S
C393 C391 1.388 . S
C393 C394 1.366 . S
C394 C393 1.366 . S
C394 C395 1.414 . S
C394 C397 1.499 . S
C395 H369 0.950 . S
C395 C394 1.414 . S
C395 C396 1.374 . S
C396 H370 0.950 . S
C396 C392 1.385 . S
C396 C395 1.374 . S
C397 C394 1.499 . S
C397 C398 1.373 . S
C397 C399 1.389 . S
C398 H371 0.950 . S
C398 C384 1.377 . S
C398 C397 1.373 . S
C399 C383 1.377 . S
C399 C397 1.389 . S
C399 C400 1.524 . S
C400 C399 1.524 . S
C400 C401 1.397 . S
C400 C405 1.363 . S
C401 H372 0.950 . S
C401 C400 1.397 . S
C401 C402 1.334 . S
C402 H373 0.950 . S
C402 C401 1.334 . S
C402 C403 1.287 . S
C403 C402 1.287 . S
C403 C404 1.524 . S
C403 H406 0.999 . S
C404 H374 0.950 . S
C404 C403 1.524 . S
C404 C405 1.415 . S
C405 H375 0.950 . S
C405 C400 1.363 . S
C405 C404 1.415 . S
H406 C403 0.999 . S
H407 C388 0.913 . S
H408 C426 0.951 . S
H409 C428 0.951 . S
H410 C430 0.950 . S
H411 C431 0.950 . S
H412 C433 0.950 . S
H413 C436 0.950 . S
H414 C437 0.950 . S
H415 C439 0.950 . S
H416 C440 0.950 . S
H417 C441 0.951 . S
H418 C443 0.951 . S
H419 C445 0.950 . S
H420 C446 0.950 . S
H421 C448 0.950 . S
H422 C451 0.950 . S
H423 C452 0.950 . S
H424 C454 0.950 . S
H425 C455 0.950 . S
C426 H408 0.951 . S
C426 C427 1.366 . S
C426 C428 1.388 . S
C427 C426 1.366 . S
C427 C431 1.385 . S
C428 H409 0.951 . S
C428 C426 1.388 . S
C428 C429 1.366 . S
C429 C428 1.366 . S
C429 C430 1.414 . S
C429 C432 1.499 . S
C430 H410 0.950 . S
C430 C429 1.414 . S
C430 C431 1.374 . S
C431 H411 0.950 . S
C431 C427 1.385 . S
C431 C430 1.374 . S
C432 C429 1.499 . S
C432 C433 1.373 . S
C432 C434 1.389 . S
C433 H412 0.950 . S
C433 C432 1.373 . S
C433 C449 1.377 . S
C434 C432 1.389 . S
C434 C435 1.524 . S
C434 C448 1.377 . S
C435 C434 1.524 . S
C435 C436 1.397 . S
C435 C440 1.363 . S
C436 H413 0.950 . S
C436 C435 1.397 . S
C436 C437 1.334 . S
C437 H414 0.950 . S
C437 C436 1.334 . S
C437 C438 1.287 . S
C438 C437 1.287 . S
C438 C439 1.524 . S
C438 H457 0.913 . S
C439 H415 0.950 . S
C439 C438 1.524 . S
C439 C440 1.415 . S
C440 H416 0.950 . S
C440 C435 1.363 . S
C440 C439 1.415 . S
C441 H417 0.951 . S
C441 C442 1.366 . S
C441 C443 1.388 . S
C442 C441 1.366 . S
C442 C446 1.385 . S
C443 H418 0.951 . S
C443 C441 1.388 . S
C443 C444 1.366 . S
C444 C443 1.366 . S
C444 C445 1.414 . S
C444 C447 1.499 . S
C445 H419 0.950 . S
C445 C444 1.414 . S
C445 C446 1.374 . S
C446 H420 0.950 . S
C446 C442 1.385 . S
C446 C445 1.374 . S
C447 C444 1.499 . S
C447 C448 1.373 . S
C447 C449 1.389 . S
C448 H421 0.950 . S
C448 C434 1.377 . S
C448 C447 1.373 . S
C449 C433 1.377 . S
C449 C447 1.389 . S
C449 C450 1.524 . S
C450 C449 1.524 . S
C450 C451 1.397 . S
C450 C455 1.363 . S
C451 H422 0.950 . S
C451 C450 1.397 . S
C451 C452 1.334 . S
C452 H423 0.950 . S
C452 C451 1.334 . S
C452 C453 1.287 . S
C453 C452 1.287 . S
C453 C454 1.524 . S
C453 H456 0.999 . S
C454 H424 0.950 . S
C454 C453 1.524 . S
C454 C455 1.415 . S
C455 H425 0.950 . S
C455 C450 1.363 . S
C455 C454 1.415 . S
H456 C453 0.999 . S
H457 C438 0.913 . S
H458 C476 0.951 . S
H459 C478 0.951 . S
H460 C480 0.950 . S
H461 C481 0.950 . S
H462 C483 0.950 . S
H463 C486 0.950 . S
H464 C487 0.950 . S
H465 C489 0.950 . S
H466 C490 0.950 . S
H467 C491 0.951 . S
H468 C493 0.951 . S
H469 C495 0.950 . S
H470 C496 0.950 . S
H471 C498 0.950 . S
H472 C501 0.950 . S
H473 C502 0.950 . S
H474 C504 0.950 . S
H475 C505 0.950 . S
C476 H458 0.951 . S
C476 C477 1.366 . S
C476 C478 1.388 . S
C477 C476 1.366 . S
C477 C481 1.385 . S
C478 H459 0.951 . S
C478 C476 1.388 . S
C478 C479 1.366 . S
C479 C478 1.366 . S
C479 C480 1.414 . S
C479 C482 1.499 . S
C480 H460 0.950 . S
C480 C479 1.414 . S
C480 C481 1.374 . S
C481 H461 0.950 . S
C481 C477 1.385 . S
C481 C480 1.374 . S
C482 C479 1.499 . S
C482 C483 1.373 . S
C482 C484 1.389 . S
C483 H462 0.950 . S
C483 C482 1.373 . S
C483 C499 1.377 . S
C484 C482 1.389 . S
C484 C485 1.524 . S
C484 C498 1.377 . S
C485 C484 1.524 . S
C485 C486 1.397 . S
C485 C490 1.363 . S
C486 H463 0.950 . S
C486 C485 1.397 . S
C486 C487 1.334 . S
C487 H464 0.950 . S
C487 C486 1.334 . S
C487 C488 1.287 . S
C488 C487 1.287 . S
C488 C489 1.524 . S
C488 H507 0.913 . S
C489 H465 0.950 . S
C489 C488 1.524 . S
C489 C490 1.415 . S
C490 H466 0.950 . S
C490 C485 1.363 . S
C490 C489 1.415 . S
C491 H467 0.951 . S
C491 C492 1.366 . S
C491 C493 1.388 . S
C492 C491 1.366 . S
C492 C496 1.385 . S
C493 H468 0.951 . S
C493 C491 1.388 . S
C493 C494 1.366 . S
C494 C493 1.366 . S
C494 C495 1.414 . S
C494 C497 1.499 . S
C495 H469 0.950 . S
C495 C494 1.414 . S
C495 C496 1.374 . S
C496 H470 0.950 . S
C496 C492 1.385 . S
C496 C495 1.374 . S
C497 C494 1.499 . S
C497 C498 1.373 . S
C497 C499 1.389 . S
C498 H471 0.950 . S
C498 C484 1.377 . S
C498 C497 1.373 . S
C499 C483 1.377 . S
C499 C497 1.389 . S
C499 C500 1.524 . S
C500 C499 1.524 . S
C500 C501 1.397 . S
C500 C505 1.363 . S
C501 H472 0.950 . S
C501 C500 1.397 . S
C501 C502 1.334 . S
C502 H473 0.950 . S
C502 C501 1.334 . S
C502 C503 1.287 . S
C503 C502 1.287 . S
C503 C504 1.524 . S
C503 H506 0.999 . S
C504 H474 0.950 . S
C504 C503 1.524 . S
C504 C505 1.415 . S
C505 H475 0.950 . S
C505 C500 1.363 . S
C505 C504 1.415 . S
H506 C503 0.999 . S
H507 C488 0.913 . S
H508 C526 0.951 . S
H509 C528 0.951 . S
H510 C530 0.950 . S
H511 C531 0.950 . S
H512 C533 0.950 . S
H513 C536 0.950 . S
H514 C537 0.950 . S
H515 C539 0.950 . S
H516 C540 0.950 . S
H517 C541 0.951 . S
H518 C543 0.951 . S
H519 C545 0.950 . S
H520 C546 0.950 . S
H521 C548 0.950 . S
H522 C551 0.950 . S
H523 C552 0.950 . S
H524 C554 0.950 . S
H525 C555 0.950 . S
C526 H508 0.951 . S
C526 C527 1.366 . S
C526 C528 1.388 . S
C527 C526 1.366 . S
C527 C531 1.385 . S
C528 H509 0.951 . S
C528 C526 1.388 . S
C528 C529 1.366 . S
C529 C528 1.366 . S
C529 C530 1.414 . S
C529 C532 1.499 . S
C530 H510 0.950 . S
C530 C529 1.414 . S
C530 C531 1.374 . S
C531 H511 0.950 . S
C531 C527 1.385 . S
C531 C530 1.374 . S
C532 C529 1.499 . S
C532 C533 1.373 . S
C532 C534 1.389 . S
C533 H512 0.950 . S
C533 C532 1.373 . S
C533 C549 1.377 . S
C534 C532 1.389 . S
C534 C535 1.524 . S
C534 C548 1.377 . S
C535 C534 1.524 . S
C535 C536 1.397 . S
C535 C540 1.363 . S
C536 H513 0.950 . S
C536 C535 1.397 . S
C536 C537 1.334 . S
C537 H514 0.950 . S
C537 C536 1.334 . S
C537 C538 1.287 . S
C538 C537 1.287 . S
C538 C539 1.524 . S
C538 H557 0.913 . S
C539 H515 0.950 . S
C539 C538 1.524 . S
C539 C540 1.415 . S
C540 H516 0.950 . S
C540 C535 1.363 . S
C540 C539 1.415 . S
C541 H517 0.951 . S
C541 C542 1.366 . S
C541 C543 1.388 . S
C542 C541 1.366 . S
C542 C546 1.385 . S
C543 H518 0.951 . S
C543 C541 1.388 . S
C543 C544 1.366 . S
C544 C543 1.366 . S
C544 C545 1.414 . S
C544 C547 1.499 . S
C545 H519 0.950 . S
C545 C544 1.414 . S
C545 C546 1.374 . S
C546 H520 0.950 . S
C546 C542 1.385 . S
C546 C545 1.374 . S
C547 C544 1.499 . S
C547 C548 1.373 . S
C547 C549 1.389 . S
C548 H521 0.950 . S
C548 C534 1.377 . S
C548 C547 1.373 . S
C549 C533 1.377 . S
C549 C547 1.389 . S
C549 C550 1.524 . S
C550 C549 1.524 . S
C550 C551 1.397 . S
C550 C555 1.363 . S
C551 H522 0.950 . S
C551 C550 1.397 . S
C551 C552 1.334 . S
C552 H523 0.950 . S
C552 C551 1.334 . S
C552 C553 1.287 . S
C553 C552 1.287 . S
C553 C554 1.524 . S
C553 H556 0.999 . S
C554 H524 0.950 . S
C554 C553 1.524 . S
C554 C555 1.415 . S
C555 H525 0.950 . S
C555 C550 1.363 . S
C555 C554 1.415 . S
H556 C553 0.999 . S
H557 C538 0.913 . S
H558 C576 0.951 . S
H559 C578 0.951 . S
H560 C580 0.950 . S
H561 C581 0.950 . S
H562 C583 0.950 . S
H563 C586 0.950 . S
H564 C587 0.950 . S
H565 C589 0.950 . S
H566 C590 0.950 . S
H567 C591 0.951 . S
H568 C593 0.951 . S
H569 C595 0.950 . S
H570 C596 0.950 . S
H571 C598 0.950 . S
H572 C601 0.950 . S
H573 C602 0.950 . S
H574 C604 0.950 . S
H575 C605 0.950 . S
C576 H558 0.951 . S
C576 C577 1.366 . S
C576 C578 1.388 . S
C577 C576 1.366 . S
C577 C581 1.385 . S
C578 H559 0.951 . S
C578 C576 1.388 . S
C578 C579 1.366 . S
C579 C578 1.366 . S
C579 C580 1.414 . S
C579 C582 1.499 . S
C580 H560 0.950 . S
C580 C579 1.414 . S
C580 C581 1.374 . S
C581 H561 0.950 . S
C581 C577 1.385 . S
C581 C580 1.374 . S
C582 C579 1.499 . S
C582 C583 1.373 . S
C582 C584 1.389 . S
C583 H562 0.950 . S
C583 C582 1.373 . S
C583 C599 1.377 . S
C584 C582 1.389 . S
C584 C585 1.524 . S
C584 C598 1.377 . S
C585 C584 1.524 . S
C585 C586 1.397 . S
C585 C590 1.363 . S
C586 H563 0.950 . S
C586 C585 1.397 . S
C586 C587 1.334 . S
C587 H564 0.950 . S
C587 C586 1.334 . S
C587 C588 1.287 . S
C588 C587 1.287 . S
C588 C589 1.524 . S
C588 H607 0.913 . S
C589 H565 0.950 . S
C589 C588 1.524 . S
C589 C590 1.415 . S
C590 H566 0.950 . S
C590 C585 1.363 . S
C590 C589 1.415 . S
C591 H567 0.951 . S
C591 C592 1.366 . S
C591 C593 1.388 . S
C592 C591 1.366 . S
C592 C596 1.385 . S
C593 H568 0.951 . S
C593 C591 1.388 . S
C593 C594 1.366 . S
C594 C593 1.366 . S
C594 C595 1.414 . S
C594 C597 1.499 . S
C595 H569 0.950 . S
C595 C594 1.414 . S
C595 C596 1.374 . S
C596 H570 0.950 . S
C596 C592 1.385 . S
C596 C595 1.374 . S
C597 C594 1.499 . S
C597 C598 1.373 . S
C597 C599 1.389 . S
C598 H571 0.950 . S
C598 C584 1.377 . S
C598 C597 1.373 . S
C599 C583 1.377 . S
C599 C597 1.389 . S
C599 C600 1.524 . S
C600 C599 1.524 . S
C600 C601 1.397 . S
C600 C605 1.363 . S
C601 H572 0.950 . S
C601 C600 1.397 . S
C601 C602 1.334 . S
C602 H573 0.950 . S
C602 C601 1.334 . S
C602 C603 1.287 . S
C603 C602 1.287 . S
C603 C604 1.524 . S
C603 H606 0.999 . S
C604 H574 0.950 . S
C604 C603 1.524 . S
C604 C605 1.415 . S
C605 H575 0.950 . S
C605 C600 1.363 . S
C605 C604 1.415 . S
H606 C603 0.999 . S
H607 C588 0.913 . S
H608 C626 0.951 . S
H609 C628 0.951 . S
H610 C630 0.950 . S
H611 C631 0.950 . S
H612 C633 0.950 . S
H613 C636 0.950 . S
H614 C637 0.950 . S
H615 C639 0.950 . S
H616 C640 0.950 . S
H617 C641 0.951 . S
H618 C643 0.951 . S
H619 C645 0.950 . S
H620 C646 0.950 . S
H621 C648 0.950 . S
H622 C651 0.950 . S
H623 C652 0.950 . S
H624 C654 0.950 . S
H625 C655 0.950 . S
C626 H608 0.951 . S
C626 C627 1.366 . S
C626 C628 1.388 . S
C627 C626 1.366 . S
C627 C631 1.385 . S
C628 H609 0.951 . S
C628 C626 1.388 . S
C628 C629 1.366 . S
C629 C628 1.366 . S
C629 C630 1.414 . S
C629 C632 1.499 . S
C630 H610 0.950 . S
C630 C629 1.414 . S
C630 C631 1.374 . S
C631 H611 0.950 . S
C631 C627 1.385 . S
C631 C630 1.374 . S
C632 C629 1.499 . S
C632 C633 1.373 . S
C632 C634 1.389 . S
C633 H612 0.950 . S
C633 C632 1.373 . S
C633 C649 1.377 . S
C634 C632 1.389 . S
C634 C635 1.524 . S
C634 C648 1.377 . S
C635 C634 1.524 . S
C635 C636 1.397 . S
C635 C640 1.363 . S
C636 H613 0.950 . S
C636 C635 1.397 . S
C636 C637 1.334 . S
C637 H614 0.950 . S
C637 C636 1.334 . S
C637 C638 1.287 . S
C638 C637 1.287 . S
C638 C639 1.524 . S
C638 H657 0.913 . S
C639 H615 0.950 . S
C639 C638 1.524 . S
C639 C640 1.415 . S
C640 H616 0.950 . S
C640 C635 1.363 . S
C640 C639 1.415 . S
C641 H617 0.951 . S
C641 C642 1.366 . S
C641 C643 1.388 . S
C642 C641 1.366 . S
C642 C646 1.385 . S
C643 H618 0.951 . S
C643 C641 1.388 . S
C643 C644 1.366 . S
C644 C643 1.366 . S
C644 C645 1.414 . S
C644 C647 1.499 . S
C645 H619 0.950 . S
C645 C644 1.414 . S
C645 C646 1.374 . S
C646 H620 0.950 . S
C646 C642 1.385 . S
C646 C645 1.374 . S
C647 C644 1.499 . S
C647 C648 1.373 . S
C647 C649 1.389 . S
C648 H621 0.950 . S
C648 C634 1.377 . S
C648 C647 1.373 . S
C649 C633 1.377 . S
C649 C647 1.389 . S
C649 C650 1.524 . S
C650 C649 1.524 . S
C650 C651 1.397 . S
C650 C655 1.363 . S
C651 H622 0.950 . S
C651 C650 1.397 . S
C651 C652 1.334 . S
C652 H623 0.950 . S
C652 C651 1.334 . S
C652 C653 1.287 . S
C653 C652 1.287 . S
C653 C654 1.524 . S
C653 H656 0.999 . S
C654 H624 0.950 . S
C654 C653 1.524 . S
C654 C655 1.415 . S
C655 H625 0.950 . S
C655 C650 1.363 . S
C655 C654 1.415 . S
H656 C653 0.999 . S
H657 C638 0.913 . S
H658 C676 0.951 . S
H659 C678 0.951 . S
H660 C680 0.950 . S
H661 C681 0.950 . S
H662 C683 0.950 . S
H663 C686 0.950 . S
H664 C687 0.950 . S
H665 C689 0.950 . S
H666 C690 0.950 . S
H667 C691 0.951 . S
H668 C693 0.951 . S
H669 C695 0.950 . S
H670 C696 0.950 . S
H671 C698 0.950 . S
H672 C701 0.950 . S
H673 C702 0.950 . S
H674 C704 0.950 . S
H675 C705 0.950 . S
C676 H658 0.951 . S
C676 C677 1.366 . S
C676 C678 1.388 . S
C677 C676 1.366 . S
C677 C681 1.385 . S
C678 H659 0.951 . S
C678 C676 1.388 . S
C678 C679 1.366 . S
C679 C678 1.366 . S
C679 C680 1.414 . S
C679 C682 1.499 . S
C680 H660 0.950 . S
C680 C679 1.414 . S
C680 C681 1.374 . S
C681 H661 0.950 . S
C681 C677 1.385 . S
C681 C680 1.374 . S
C682 C679 1.499 . S
C682 C683 1.373 . S
C682 C684 1.389 . S
C683 H662 0.950 . S
C683 C682 1.373 . S
C683 C699 1.377 . S
C684 C682 1.389 . S
C684 C685 1.524 . S
C684 C698 1.377 . S
C685 C684 1.524 . S
C685 C686 1.397 . S
C685 C690 1.363 . S
C686 H663 0.950 . S
C686 C685 1.397 . S
C686 C687 1.334 . S
C687 H664 0.950 . S
C687 C686 1.334 . S
C687 C688 1.287 . S
C688 C687 1.287 . S
C688 C689 1.524 . S
C688 H707 0.913 . S
C689 H665 0.950 . S
C689 C688 1.524 . S
C689 C690 1.415 . S
C690 H666 0.950 . S
C690 C685 1.363 . S
C690 C689 1.415 . S
C691 H667 0.951 . S
C691 C692 1.366 . S
C691 C693 1.388 . S
C692 C691 1.366 . S
C692 C696 1.385 . S
C693 H668 0.951 . S
C693 C691 1.388 . S
C693 C694 1.366 . S
C694 C693 1.366 . S
C694 C695 1.414 . S
C694 C697 1.499 . S
C695 H669 0.950 . S
C695 C694 1.414 . S
C695 C696 1.374 . S
C696 H670 0.950 . S
C696 C692 1.385 . S
C696 C695 1.374 . S
C697 C694 1.499 . S
C697 C698 1.373 . S
C697 C699 1.389 . S
C698 H671 0.950 . S
C698 C684 1.377 . S
C698 C697 1.373 . S
C699 C683 1.377 . S
C699 C697 1.389 . S
C699 C700 1.524 . S
C700 C699 1.524 . S
C700 C701 1.397 . S
C700 C705 1.363 . S
C701 H672 0.950 . S
C701 C700 1.397 . S
C701 C702 1.334 . S
C702 H673 0.950 . S
C702 C701 1.334 . S
C702 C703 1.287 . S
C703 C702 1.287 . S
C703 C704 1.524 . S
C703 H706 0.999 . S
C704 H674 0.950 . S
C704 C703 1.524 . S
C704 C705 1.415 . S
C705 H675 0.950 . S
C705 C700 1.363 . S
C705 C704 1.415 . S
H706 C703 0.999 . S
H707 C688 0.913 . S
H708 C726 0.951 . S
H709 C728 0.951 . S
H710 C730 0.950 . S
H711 C731 0.950 . S
H712 C733 0.950 . S
H713 C736 0.950 . S
H714 C737 0.950 . S
H715 C739 0.950 . S
H716 C740 0.950 . S
H717 C741 0.951 . S
H718 C743 0.951 . S
H719 C745 0.950 . S
H720 C746 0.950 . S
H721 C748 0.950 . S
H722 C751 0.950 . S
H723 C752 0.950 . S
H724 C754 0.950 . S
H725 C755 0.950 . S
C726 H708 0.951 . S
C726 C727 1.366 . S
C726 C728 1.388 . S
C727 C726 1.366 . S
C727 C731 1.385 . S
C728 H709 0.951 . S
C728 C726 1.388 . S
C728 C729 1.366 . S
C729 C728 1.366 . S
C729 C730 1.414 . S
C729 C732 1.499 . S
C730 H710 0.950 . S
C730 C729 1.414 . S
C730 C731 1.374 . S
C731 H711 0.950 . S
C731 C727 1.385 . S
C731 C730 1.374 . S
C732 C729 1.499 . S
C732 C733 1.373 . S
C732 C734 1.389 . S
C733 H712 0.950 . S
C733 C732 1.373 . S
C733 C749 1.377 . S
C734 C732 1.389 . S
C734 C735 1.524 . S
C734 C748 1.377 . S
C735 C734 1.524 . S
C735 C736 1.397 . S
C735 C740 1.363 . S
C736 H713 0.950 . S
C736 C735 1.397 . S
C736 C737 1.334 . S
C737 H714 0.950 . S
C737 C736 1.334 . S
C737 C738 1.287 . S
C738 C737 1.287 . S
C738 C739 1.524 . S
C738 H757 0.913 . S
C739 H715 0.950 . S
C739 C738 1.524 . S
C739 C740 1.415 . S
C740 H716 0.950 . S
C740 C735 1.363 . S
C740 C739 1.415 . S
C741 H717 0.951 . S
C741 C742 1.366 . S
C741 C743 1.388 . S
C742 C741 1.366 . S
C742 C746 1.385 . S
C743 H718 0.951 . S
C743 C741 1.388 . S
C743 C744 1.366 . S
C744 C743 1.366 . S
C744 C745 1.414 . S
C744 C747 1.499 . S
C745 H719 0.950 . S
C745 C744 1.414 . S
C745 C746 1.374 . S
C746 H720 0.950 . S
C746 C742 1.385 . S
C746 C745 1.374 . S
C747 C744 1.499 . S
C747 C748 1.373 . S
C747 C749 1.389 . S
C748 H721 0.950 . S
C748 C734 1.377 . S
C748 C747 1.373 . S
C749 C733 1.377 . S
C749 C747 1.389 . S
C749 C750 1.524 . S
C750 C749 1.524 . S
C750 C751 1.397 . S
C750 C755 1.363 . S
C751 H722 0.950 . S
C751 C750 1.397 . S
C751 C752 1.334 . S
C752 H723 0.950 . S
C752 C751 1.334 . S
C752 C753 1.287 . S
C753 C752 1.287 . S
C753 C754 1.524 . S
C753 H756 0.999 . S
C754 H724 0.950 . S
C754 C753 1.524 . S
C754 C755 1.415 . S
C755 H725 0.950 . S
C755 C750 1.363 . S
C755 C754 1.415 . S
H756 C753 0.999 . S
H757 C738 0.913 . S
H758 C776 0.951 . S
H759 C778 0.951 . S
H760 C780 0.950 . S
H761 C781 0.950 . S
H762 C783 0.950 . S
H763 C786 0.950 . S
H764 C787 0.950 . S
H765 C789 0.950 . S
H766 C790 0.950 . S
H767 C791 0.951 . S
H768 C793 0.951 . S
H769 C795 0.950 . S
H770 C796 0.950 . S
H771 C798 0.950 . S
H772 C801 0.950 . S
H773 C802 0.950 . S
H774 C804 0.950 . S
H775 C805 0.950 . S
C776 H758 0.951 . S
C776 C777 1.366 . S
C776 C778 1.388 . S
C777 C776 1.366 . S
C777 C781 1.385 . S
C778 H759 0.951 . S
C778 C776 1.388 . S
C778 C779 1.366 . S
C779 C778 1.366 . S
C779 C780 1.414 . S
C779 C782 1.499 . S
C780 H760 0.950 . S
C780 C779 1.414 . S
C780 C781 1.374 . S
C781 H761 0.950 . S
C781 C777 1.385 . S
C781 C780 1.374 . S
C782 C779 1.499 . S
C782 C783 1.373 . S
C782 C784 1.389 . S
C783 H762 0.950 . S
C783 C782 1.373 . S
C783 C799 1.377 . S
C784 C782 1.389 . S
C784 C785 1.524 . S
C784 C798 1.377 . S
C785 C784 1.524 . S
C785 C786 1.397 . S
C785 C790 1.363 . S
C786 H763 0.950 . S
C786 C785 1.397 . S
C786 C787 1.334 . S
C787 H764 0.950 . S
C787 C786 1.334 . S
C787 C788 1.287 . S
C788 C787 1.287 . S
C788 C789 1.524 . S
C788 H807 0.913 . S
C789 H765 0.950 . S
C789 C788 1.524 . S
C789 C790 1.415 . S
C790 H766 0.950 . S
C790 C785 1.363 . S
C790 C789 1.415 . S
C791 H767 0.951 . S
C791 C792 1.366 . S
C791 C793 1.388 . S
C792 C791 1.366 . S
C792 C796 1.385 . S
C793 H768 0.951 . S
C793 C791 1.388 . S
C793 C794 1.366 . S
C794 C793 1.366 . S
C794 C795 1.414 . S
C794 C797 1.499 . S
C795 H769 0.950 . S
C795 C794 1.414 . S
C795 C796 1.374 . S
C796 H770 0.950 . S
C796 C792 1.385 . S
C796 C795 1.374 . S
C797 C794 1.499 . S
C797 C798 1.373 . S
C797 C799 1.389 . S
C798 H771 0.950 . S
C798 C784 1.377 . S
C798 C797 1.373 . S
C799 C783 1.377 . S
C799 C797 1.389 . S
C799 C800 1.524 . S
C800 C799 1.524 . S
C800 C801 1.397 . S
C800 C805 1.363 . S
C801 H772 0.950 . S
C801 C800 1.397 . S
C801 C802 1.334 . S
C802 H773 0.950 . S
C802 C801 1.334 . S
C802 C803 1.287 . S
C803 C802 1.287 . S
C803 C804 1.524 . S
C803 H806 0.999 . S
C804 H774 0.950 . S
C804 C803 1.524 . S
C804 C805 1.415 . S
C805 H775 0.950 . S
C805 C800 1.363 . S
C805 C804 1.415 . S
H806 C803 0.999 . S
H807 C788 0.913 . S
H808 C826 0.951 . S
H809 C828 0.951 . S
H810 C830 0.950 . S
H811 C831 0.950 . S
H812 C833 0.950 . S
H813 C836 0.950 . S
H814 C837 0.950 . S
H815 C839 0.950 . S
H816 C840 0.950 . S
H817 C841 0.951 . S
H818 C843 0.951 . S
H819 C845 0.950 . S
H820 C846 0.950 . S
H821 C848 0.950 . S
H822 C851 0.950 . S
H823 C852 0.950 . S
H824 C854 0.950 . S
H825 C855 0.950 . S
C826 H808 0.951 . S
C826 C827 1.366 . S
C826 C828 1.388 . S
C827 C826 1.366 . S
C827 C831 1.385 . S
C828 H809 0.951 . S
C828 C826 1.388 . S
C828 C829 1.366 . S
C829 C828 1.366 . S
C829 C830 1.414 . S
C829 C832 1.499 . S
C830 H810 0.950 . S
C830 C829 1.414 . S
C830 C831 1.374 . S
C831 H811 0.950 . S
C831 C827 1.385 . S
C831 C830 1.374 . S
C832 C829 1.499 . S
C832 C833 1.373 . S
C832 C834 1.389 . S
C833 H812 0.950 . S
C833 C832 1.373 . S
C833 C849 1.377 . S
C834 C832 1.389 . S
C834 C835 1.524 . S
C834 C848 1.377 . S
C835 C834 1.524 . S
C835 C836 1.397 . S
C835 C840 1.363 . S
C836 H813 0.950 . S
C836 C835 1.397 . S
C836 C837 1.334 . S
C837 H814 0.950 . S
C837 C836 1.334 . S
C837 C838 1.287 . S
C838 C837 1.287 . S
C838 C839 1.524 . S
C838 H857 0.913 . S
C839 H815 0.950 . S
C839 C838 1.524 . S
C839 C840 1.415 . S
C840 H816 0.950 . S
C840 C835 1.363 . S
C840 C839 1.415 . S
C841 H817 0.951 . S
C841 C842 1.366 . S
C841 C843 1.388 . S
C842 C841 1.366 . S
C842 C846 1.385 . S
C843 H818 0.951 . S
C843 C841 1.388 . S
C843 C844 1.366 . S
C844 C843 1.366 . S
C844 C845 1.414 . S
C844 C847 1.499 . S
C845 H819 0.950 . S
C845 C844 1.414 . S
C845 C846 1.374 . S
C846 H820 0.950 . S
C846 C842 1.385 . S
C846 C845 1.374 . S
C847 C844 1.499 . S
C847 C848 1.373 . S
C847 C849 1.389 . S
C848 H821 0.950 . S
C848 C834 1.377 . S
C848 C847 1.373 . S
C849 C833 1.377 . S
C849 C847 1.389 . S
C849 C850 1.524 . S
C850 C849 1.524 . S
C850 C851 1.397 . S
C850 C855 1.363 . S
C851 H822 0.950 . S
C851 C850 1.397 . S
C851 C852 1.334 . S
C852 H823 0.950 . S
C852 C851 1.334 . S
C852 C853 1.287 . S
C853 C852 1.287 . S
C853 C854 1.524 . S
C853 H856 0.999 . S
C854 H824 0.950 . S
C854 C853 1.524 . S
C854 C855 1.415 . S
C855 H825 0.950 . S
C855 C850 1.363 . S
C855 C854 1.415 . S
H856 C853 0.999 . S
H857 C838 0.913 . S
H858 C876 0.951 . S
H859 C878 0.951 . S
H860 C880 0.950 . S
H861 C881 0.950 . S
H862 C883 0.950 . S
H863 C886 0.950 . S
H864 C887 0.950 . S
H865 C889 0.950 . S
H866 C890 0.950 . S
H867 C891 0.951 . S
H868 C893 0.951 . S
H869 C895 0.950 . S
H870 C896 0.950 . S
H871 C898 0.950 . S
H872 C901 0.950 . S
H873 C902 0.950 . S
H874 C904 0.950 . S
H875 C905 0.950 . S
C876 H858 0.951 . S
C876 C877 1.366 . S
C876 C878 1.388 . S
C877 C876 1.366 . S
C877 C881 1.385 . S
C878 H859 0.951 . S
C878 C876 1.388 . S
C878 C879 1.366 . S
C879 C878 1.366 . S
C879 C880 1.414 . S
C879 C882 1.499 . S
C880 H860 0.950 . S
C880 C879 1.414 . S
C880 C881 1.374 . S
C881 H861 0.950 . S
C881 C877 1.385 . S
C881 C880 1.374 . S
C882 C879 1.499 . S
C882 C883 1.373 . S
C882 C884 1.389 . S
C883 H862 0.950 . S
C883 C882 1.373 . S
C883 C899 1.377 . S
C884 C882 1.389 . S
C884 C885 1.524 . S
C884 C898 1.377 . S
C885 C884 1.524 . S
C885 C886 1.397 . S
C885 C890 1.363 . S
C886 H863 0.950 . S
C886 C885 1.397 . S
C886 C887 1.334 . S
C887 H864 0.950 . S
C887 C886 1.334 . S
C887 C888 1.287 . S
C888 C887 1.287 . S
C888 C889 1.524 . S
C888 H907 0.913 . S
C889 H865 0.950 . S
C889 C888 1.524 . S
C889 C890 1.415 . S
C890 H866 0.950 . S
C890 C885 1.363 . S
C890 C889 1.415 . S
C891 H867 0.951 . S
C891 C892 1.366 . S
C891 C893 1.388 . S
C892 C891 1.366 . S
C892 C896 1.385 . S
C893 H868 0.951 . S
C893 C891 1.388 . S
C893 C894 1.366 . S
C894 C893 1.366 . S
C894 C895 1.414 . S
C894 C897 1.499 . S
C895 H869 0.950 . S
C895 C894 1.414 . S
C895 C896 1.374 . S
C896 H870 0.950 . S
C896 C892 1.385 . S
C896 C895 1.374 . S
C897 C894 1.499 . S
C897 C898 1.373 . S
C897 C899 1.389 . S
C898 H871 0.950 . S
C898 C884 1.377 . S
C898 C897 1.373 . S
C899 C883 1.377 . S
C899 C897 1.389 . S
C899 C900 1.524 . S
C900 C899 1.524 . S
C900 C901 1.397 . S
C900 C905 1.363 . S
C901 H872 0.950 . S
C901 C900 1.397 . S
C901 C902 1.334 . S
C902 H873 0.950 . S
C902 C901 1.334 . S
C902 C903 1.287 . S
C903 C902 1.287 . S
C903 C904 1.524 . S
C903 H906 0.999 . S
C904 H874 0.950 . S
C904 C903 1.524 . S
C904 C905 1.415 . S
C905 H875 0.950 . S
C905 C900 1.363 . S
C905 C904 1.415 . S
H906 C903 0.999 . S
H907 C888 0.913 . S
H908 C926 0.951 . S
H909 C928 0.951 . S
H910 C930 0.950 . S
H911 C931 0.950 . S
H912 C933 0.950 . S
H913 C936 0.950 . S
H914 C937 0.950 . S
H915 C939 0.950 . S
H916 C940 0.950 . S
H917 C941 0.951 . S
H918 C943 0.951 . S
H919 C945 0.950 . S
H920 C946 0.950 . S
H921 C948 0.950 . S
H922 C951 0.950 . S
H923 C952 0.950 . S
H924 C954 0.950 . S
H925 C955 0.950 . S
C926 H908 0.951 . S
C926 C927 1.366 . S
C926 C928 1.388 . S
C927 C926 1.366 . S
C927 C931 1.385 . S
C928 H909 0.951 . S
C928 C926 1.388 . S
C928 C929 1.366 . S
C929 C928 1.366 . S
C929 C930 1.414 . S
C929 C932 1.499 . S
C930 H910 0.950 . S
C930 C929 1.414 . S
C930 C931 1.374 . S
C931 H911 0.950 . S
C931 C927 1.385 . S
C931 C930 1.374 . S
C932 C929 1.499 . S
C932 C933 1.373 . S
C932 C934 1.389 . S
C933 H912 0.950 . S
C933 C932 1.373 . S
C933 C949 1.377 . S
C934 C932 1.389 . S
C934 C935 1.524 . S
C934 C948 1.377 . S
C935 C934 1.524 . S
C935 C936 1.397 . S
C935 C940 1.363 . S
C936 H913 0.950 . S
C936 C935 1.397 . S
C936 C937 1.334 . S
C937 H914 0.950 . S
C937 C936 1.334 . S
C937 C938 1.287 . S
C938 C937 1.287 . S
C938 C939 1.524 . S
C938 H957 0.913 . S
C939 H915 0.950 . S
C939 C938 1.524 . S
C939 C940 1.415 . S
C940 H916 0.950 . S
C940 C935 1.363 . S
C940 C939 1.415 . S
C941 H917 0.951 . S
C941 C942 1.366 . S
C941 C943 1.388 . S
C942 C941 1.366 . S
C942 C946 1.385 . S
C943 H918 0.951 . S
C943 C941 1.388 . S
C943 C944 1.366 . S
C944 C943 1.366 . S
C944 C945 1.414 . S
C944 C947 1.499 . S
C945 H919 0.950 . S
C945 C944 1.414 . S
C945 C946 1.374 . S
C946 H920 0.950 . S
C946 C942 1.385 . S
C946 C945 1.374 . S
C947 C944 1.499 . S
C947 C948 1.373 . S
C947 C949 1.389 . S
C948 H921 0.950 . S
C948 C934 1.377 . S
C948 C947 1.373 . S
C949 C933 1.377 . S
C949 C947 1.389 . S
C949 C950 1.524 . S
C950 C949 1.524 . S
C950 C951 1.397 . S
C950 C955 1.363 . S
C951 H922 0.950 . S
C951 C950 1.397 . S
C951 C952 1.334 . S
C952 H923 0.950 . S
C952 C951 1.334 . S
C952 C953 1.287 . S
C953 C952 1.287 . S
C953 C954 1.524 . S
C953 H956 0.999 . S
C954 H924 0.950 . S
C954 C953 1.524 . S
C954 C955 1.415 . S
C955 H925 0.950 . S
C955 C950 1.363 . S
C955 C954 1.415 . S
H956 C953 0.999 . S
H957 C938 0.913 . S
H958 C976 0.951 . S
H959 C978 0.951 . S
H960 C980 0.950 . S
H961 C981 0.950 . S
H962 C983 0.950 . S
H963 C986 0.950 . S
H964 C987 0.950 . S
H965 C989 0.950 . S
H966 C990 0.950 . S
H967 C991 0.951 . S
H968 C993 0.951 . S
H969 C995 0.950 . S
H970 C996 0.950 . S
H971 C998 0.950 . S
H972 C1001 0.950 . S
H973 C1002 0.950 . S
H974 C1004 0.950 . S
H975 C1005 0.950 . S
C976 H958 0.951 . S
C976 C977 1.366 . S
C976 C978 1.388 . S
C977 C976 1.366 . S
C977 C981 1.385 . S
C978 H959 0.951 . S
C978 C976 1.388 . S
C978 C979 1.366 . S
C979 C978 1.366 . S
C979 C980 1.414 . S
C979 C982 1.499 . S
C980 H960 0.950 . S
C980 C979 1.414 . S
C980 C981 1.374 . S
C981 H961 0.950 . S
C981 C977 1.385 . S
C981 C980 1.374 . S
C982 C979 1.499 . S
C982 C983 1.373 . S
C982 C984 1.389 . S
C983 H962 0.950 . S
C983 C982 1.373 . S
C983 C999 1.377 . S
C984 C982 1.389 . S
C984 C985 1.524 . S
C984 C998 1.377 . S
C985 C984 1.524 . S
C985 C986 1.397 . S
C985 C990 1.363 . S
C986 H963 0.950 . S
C986 C985 1.397 . S
C986 C987 1.334 . S
C987 H964 0.950 . S
C987 C986 1.334 . S
C987 C988 1.287 . S
C988 C987 1.287 . S
C988 C989 1.524 . S
C988 H1007 0.913 . S
C989 H965 0.950 . S
C989 C988 1.524 . S
C989 C990 1.415 . S
C990 H966 0.950 . S
C990 C985 1.363 . S
C990 C989 1.415 . S
C991 H967 0.951 . S
C991 C992 1.366 . S
C991 C993 1.388 . S
C992 C991 1.366 . S
C992 C996 1.385 . S
C993 H968 0.951 . S
C993 C991 1.388 . S
C993 C994 1.366 . S
C994 C993 1.366 . S
C994 C995 1.414 . S
C994 C997 1.499 . S
C995 H969 0.950 . S
C995 C994 1.414 . S
C995 C996 1.374 . S
C996 H970 0.950 . S
C996 C992 1.385 . S
C996 C995 1.374 . S
C997 C994 1.499 . S
C997 C998 1.373 . S
C997 C999 1.389 . S
C998 H971 0.950 . S
C998 C984 1.377 . S
C998 C997 1.373 . S
C999 C983 1.377 . S
C999 C997 1.389 . S
C999 C1000 1.524 . S
C1000 C999 1.524 . S
C1000 C1001 1.397 . S
C1000 C1005 1.363 . S
C1001 H972 0.950 . S
C1001 C1000 1.397 . S
C1001 C1002 1.334 . S
C1002 H973 0.950 . S
C1002 C1001 1.334 . S
C1002 C1003 1.287 . S
C1003 C1002 1.287 . S
C1003 C1004 1.524 . S
C1003 H1006 0.999 . S
C1004 H974 0.950 . S
C1004 C1003 1.524 . S
C1004 C1005 1.415 . S
C1005 H975 0.950 . S
C1005 C1000 1.363 . S
C1005 C1004 1.415 . S
H1006 C1003 0.999 . S
H1007 C988 0.913 . S
H1008 C1026 0.951 . S
H1009 C1028 0.951 . S
H1010 C1030 0.950 . S
H1011 C1031 0.950 . S
H1012 C1033 0.950 . S
H1013 C1036 0.950 . S
H1014 C1037 0.950 . S
H1015 C1039 0.950 . S
H1016 C1040 0.950 . S
H1017 C1041 0.951 . S
H1018 C1043 0.951 . S
H1019 C1045 0.950 . S
H1020 C1046 0.950 . S
H1021 C1048 0.950 . S
H1022 C1051 0.950 . S
H1023 C1052 0.950 . S
H1024 C1054 0.950 . S
H1025 C1055 0.950 . S
C1026 H1008 0.951 . S
C1026 C1027 1.366 . S
C1026 C1028 1.388 . S
C1027 C1026 1.366 . S
C1027 C1031 1.385 . S
C1028 H1009 0.951 . S
C1028 C1026 1.388 . S
C1028 C1029 1.366 . S
C1029 C1028 1.366 . S
C1029 C1030 1.414 . S
C1029 C1032 1.499 . S
C1030 H1010 0.950 . S
C1030 C1029 1.414 . S
C1030 C1031 1.374 . S
C1031 H1011 0.950 . S
C1031 C1027 1.385 . S
C1031 C1030 1.374 . S
C1032 C1029 1.499 . S
C1032 C1033 1.373 . S
C1032 C1034 1.389 . S
C1033 H1012 0.950 . S
C1033 C1032 1.373 . S
C1033 C1049 1.377 . S
C1034 C1032 1.389 . S
C1034 C1035 1.524 . S
C1034 C1048 1.377 . S
C1035 C1034 1.524 . S
C1035 C1036 1.397 . S
C1035 C1040 1.363 . S
C1036 H1013 0.950 . S
C1036 C1035 1.397 . S
C1036 C1037 1.334 . S
C1037 H1014 0.950 . S
C1037 C1036 1.334 . S
C1037 C1038 1.287 . S
C1038 C1037 1.287 . S
C1038 C1039 1.524 . S
C1038 H1057 0.913 . S
C1039 H1015 0.950 . S
C1039 C1038 1.524 . S
C1039 C1040 1.415 . S
C1040 H1016 0.950 . S
C1040 C1035 1.363 . S
C1040 C1039 1.415 . S
C1041 H1017 0.951 . S
C1041 C1042 1.366 . S
C1041 C1043 1.388 . S
C1042 C1041 1.366 . S
C1042 C1046 1.385 . S
C1043 H1018 0.951 . S
C1043 C1041 1.388 . S
C1043 C1044 1.366 . S
C1044 C1043 1.366 . S
C1044 C1045 1.414 . S
C1044 C1047 1.499 . S
C1045 H1019 0.950 . S
C1045 C1044 1.414 . S
C1045 C1046 1.374 . S
C1046 H1020 0.950 . S
C1046 C1042 1.385 . S
C1046 C1045 1.374 . S
C1047 C1044 1.499 . S
C1047 C1048 1.373 . S
C1047 C1049 1.389 . S
C1048 H1021 0.950 . S
C1048 C1034 1.377 . S
C1048 C1047 1.373 . S
C1049 C1033 1.377 . S
C1049 C1047 1.389 . S
C1049 C1050 1.524 . S
C1050 C1049 1.524 . S
C1050 C1051 1.397 . S
C1050 C1055 1.363 . S
C1051 H1022 0.950 . S
C1051 C1050 1.397 . S
C1051 C1052 1.334 . S
C1052 H1023 0.950 . S
C1052 C1051 1.334 . S
C1052 C1053 1.287 . S
C1053 C1052 1.287 . S
C1053 C1054 1.524 . S
C1053 H1056 0.999 . S
C1054 H1024 0.950 . S
C1054 C1053 1.524 . S
C1054 C1055 1.415 . S
C1055 H1025 0.950 . S
C1055 C1050 1.363 . S
C1055 C1054 1.415 . S
H1056 C1053 0.999 . S
H1057 C1038 0.913 . S
H1058 C1076 0.951 . S
H1059 C1078 0.951 . S
H1060 C1080 0.950 . S
H1061 C1081 0.950 . S
H1062 C1083 0.950 . S
H1063 C1086 0.950 . S
H1064 C1087 0.943 1_565 S
H1065 C1089 0.950 . S
H1066 C1090 0.950 . S
H1067 C1091 0.951 . S
H1068 C1093 0.951 . S
H1069 C1095 0.950 . S
H1070 C1096 0.950 . S
H1071 C1098 0.950 . S
H1072 C1101 0.950 . S
H1073 C1102 0.950 . S
H1074 C1104 0.950 . S
H1075 C1105 0.950 . S
C1076 H1058 0.951 . S
C1076 C1077 1.366 . S
C1076 C1078 1.388 . S
C1077 C1076 1.366 . S
C1077 C1081 1.385 . S
C1078 H1059 0.951 . S
C1078 C1076 1.388 . S
C1078 C1079 1.366 . S
C1079 C1078 1.366 . S
C1079 C1080 1.414 . S
C1079 C1082 1.499 . S
C1080 H1060 0.950 . S
C1080 C1079 1.414 . S
C1080 C1081 1.374 . S
C1081 H1061 0.950 . S
C1081 C1077 1.385 . S
C1081 C1080 1.374 . S
C1082 C1079 1.499 . S
C1082 C1083 1.373 . S
C1082 C1084 1.389 . S
C1083 H1062 0.950 . S
C1083 C1082 1.373 . S
C1083 C1099 1.377 . S
C1084 C1082 1.389 . S
C1084 C1085 1.524 . S
C1084 C1098 1.377 . S
C1085 C1084 1.524 . S
C1085 C1086 1.397 . S
C1085 C1090 1.363 . S
C1086 H1063 0.950 . S
C1086 C1085 1.397 . S
C1086 C1087 1.334 . S
C1087 H1064 0.943 1_545 S
C1087 C1086 1.334 . S
C1087 C1088 1.287 . S
C1088 C1087 1.287 . S
C1088 C1089 1.524 . S
C1088 H1107 0.913 1_545 S
C1089 H1065 0.950 . S
C1089 C1088 1.524 . S
C1089 C1090 1.415 . S
C1090 H1066 0.950 . S
C1090 C1085 1.363 . S
C1090 C1089 1.415 . S
C1091 H1067 0.951 . S
C1091 C1092 1.366 . S
C1091 C1093 1.388 . S
C1092 C1091 1.366 . S
C1092 C1096 1.385 . S
C1093 H1068 0.951 . S
C1093 C1091 1.388 . S
C1093 C1094 1.366 . S
C1094 C1093 1.366 . S
C1094 C1095 1.414 . S
C1094 C1097 1.499 . S
C1095 H1069 0.950 . S
C1095 C1094 1.414 . S
C1095 C1096 1.374 . S
C1096 H1070 0.950 . S
C1096 C1092 1.385 . S
C1096 C1095 1.374 . S
C1097 C1094 1.499 . S
C1097 C1098 1.373 . S
C1097 C1099 1.389 . S
C1098 H1071 0.950 . S
C1098 C1084 1.377 . S
C1098 C1097 1.373 . S
C1099 C1083 1.377 . S
C1099 C1097 1.389 . S
C1099 C1100 1.524 . S
C1100 C1099 1.524 . S
C1100 C1101 1.397 . S
C1100 C1105 1.363 . S
C1101 H1072 0.950 . S
C1101 C1100 1.397 . S
C1101 C1102 1.334 . S
C1102 H1073 0.950 . S
C1102 C1101 1.334 . S
C1102 C1103 1.287 . S
C1103 C1102 1.287 . S
C1103 C1104 1.524 . S
C1103 H1106 0.999 . S
C1104 H1074 0.950 . S
C1104 C1103 1.524 . S
C1104 C1105 1.415 . S
C1105 H1075 0.950 . S
C1105 C1100 1.363 . S
C1105 C1104 1.415 . S
H1106 C1103 0.999 . S
H1107 C1088 0.913 1_565 S
H1108 C1126 0.951 . S
H1109 C1128 0.951 . S
H1110 C1130 0.950 . S
H1111 C1131 0.950 . S
H1112 C1133 0.950 . S
H1113 C1136 0.950 . S
H1114 C1137 0.950 . S
H1115 C1139 0.950 . S
H1116 C1140 0.950 . S
H1117 C1141 0.951 . S
H1118 C1143 0.951 . S
H1119 C1145 0.950 . S
H1120 C1146 0.950 . S
H1121 C1148 0.950 . S
H1122 C1151 0.950 . S
H1123 C1152 0.921 1_455 S
H1124 C1154 0.950 . S
H1125 C1155 0.950 . S
C1126 H1108 0.951 . S
C1126 C1127 1.366 . S
C1126 C1128 1.388 . S
C1127 C1126 1.366 . S
C1127 C1131 1.385 . S
C1128 H1109 0.951 . S
C1128 C1126 1.388 . S
C1128 C1129 1.366 . S
C1129 C1128 1.366 . S
C1129 C1130 1.414 . S
C1129 C1132 1.499 . S
C1130 H1110 0.950 . S
C1130 C1129 1.414 . S
C1130 C1131 1.374 . S
C1131 H1111 0.950 . S
C1131 C1127 1.385 . S
C1131 C1130 1.374 . S
C1132 C1129 1.499 . S
C1132 C1133 1.373 . S
C1132 C1134 1.389 . S
C1133 H1112 0.950 . S
C1133 C1132 1.373 . S
C1133 C1149 1.377 . S
C1134 C1132 1.389 . S
C1134 C1135 1.524 . S
C1134 C1148 1.377 . S
C1135 C1134 1.524 . S
C1135 C1136 1.397 . S
C1135 C1140 1.363 . S
C1136 H1113 0.950 . S
C1136 C1135 1.397 . S
C1136 C1137 1.334 . S
C1137 H1114 0.950 . S
C1137 C1136 1.334 . S
C1137 C1138 1.287 . S
C1138 C1137 1.287 . S
C1138 C1139 1.524 . S
C1138 H1157 0.913 . S
C1139 H1115 0.950 . S
C1139 C1138 1.524 . S
C1139 C1140 1.415 . S
C1140 H1116 0.950 . S
C1140 C1135 1.363 . S
C1140 C1139 1.415 . S
C1141 H1117 0.951 . S
C1141 C1142 1.366 . S
C1141 C1143 1.388 . S
C1142 C1141 1.366 . S
C1142 C1146 1.385 . S
C1143 H1118 0.951 . S
C1143 C1141 1.388 . S
C1143 C1144 1.366 . S
C1144 C1143 1.366 . S
C1144 C1145 1.414 . S
C1144 C1147 1.499 . S
C1145 H1119 0.950 . S
C1145 C1144 1.414 . S
C1145 C1146 1.374 . S
C1146 H1120 0.950 . S
C1146 C1142 1.385 . S
C1146 C1145 1.374 . S
C1147 C1144 1.499 . S
C1147 C1148 1.373 . S
C1147 C1149 1.389 . S
C1148 H1121 0.950 . S
C1148 C1134 1.377 . S
C1148 C1147 1.373 . S
C1149 C1133 1.377 . S
C1149 C1147 1.389 . S
C1149 C1150 1.524 . S
C1150 C1149 1.524 . S
C1150 C1151 1.397 . S
C1150 C1155 1.363 . S
C1151 H1122 0.950 . S
C1151 C1150 1.397 . S
C1151 C1152 1.334 . S
C1152 H1123 0.921 1_655 S
C1152 C1151 1.334 . S
C1152 C1153 1.287 . S
C1153 C1152 1.287 . S
C1153 C1154 1.524 . S
C1153 H1156 0.999 1_655 S
C1154 H1124 0.950 . S
C1154 C1153 1.524 . S
C1154 C1155 1.415 . S
C1155 H1125 0.950 . S
C1155 C1150 1.363 . S
C1155 C1154 1.415 . S
H1156 C1153 0.999 1_455 S
H1157 C1138 0.913 . S
H1158 C1176 0.951 . S
H1159 C1178 0.951 . S
H1160 C1180 0.950 . S
H1161 C1181 0.950 . S
H1162 C1183 0.950 . S
H1163 C1186 0.950 . S
H1164 C1187 0.950 . S
H1165 C1189 0.950 . S
H1166 C1190 0.950 . S
H1167 C1191 0.951 . S
H1168 C1193 0.951 . S
H1169 C1195 0.950 . S
H1170 C1196 0.950 . S
H1171 C1198 0.950 . S
H1172 C1201 0.950 . S
H1173 C1202 0.950 . S
H1174 C1204 0.950 . S
H1175 C1205 0.950 . S
C1176 H1158 0.951 . S
C1176 C1177 1.366 . S
C1176 C1178 1.388 . S
C1177 C1176 1.366 . S
C1177 C1181 1.385 . S
C1178 H1159 0.951 . S
C1178 C1176 1.388 . S
C1178 C1179 1.366 . S
C1179 C1178 1.366 . S
C1179 C1180 1.414 . S
C1179 C1182 1.499 . S
C1180 H1160 0.950 . S
C1180 C1179 1.414 . S
C1180 C1181 1.374 . S
C1181 H1161 0.950 . S
C1181 C1177 1.385 . S
C1181 C1180 1.374 . S
C1182 C1179 1.499 . S
C1182 C1183 1.373 . S
C1182 C1184 1.389 . S
C1183 H1162 0.950 . S
C1183 C1182 1.373 . S
C1183 C1199 1.377 . S
C1184 C1182 1.389 . S
C1184 C1185 1.524 . S
C1184 C1198 1.377 . S
C1185 C1184 1.524 . S
C1185 C1186 1.397 . S
C1185 C1190 1.363 . S
C1186 H1163 0.950 . S
C1186 C1185 1.397 . S
C1186 C1187 1.334 . S
C1187 H1164 0.950 . S
C1187 C1186 1.334 . S
C1187 C1188 1.287 . S
C1188 C1187 1.287 . S
C1188 C1189 1.524 . S
C1188 H1207 0.913 . S
C1189 H1165 0.950 . S
C1189 C1188 1.524 . S
C1189 C1190 1.415 . S
C1190 H1166 0.950 . S
C1190 C1185 1.363 . S
C1190 C1189 1.415 . S
C1191 H1167 0.951 . S
C1191 C1192 1.366 . S
C1191 C1193 1.388 . S
C1192 C1191 1.366 . S
C1192 C1196 1.385 . S
C1193 H1168 0.951 . S
C1193 C1191 1.388 . S
C1193 C1194 1.366 . S
C1194 C1193 1.366 . S
C1194 C1195 1.414 . S
C1194 C1197 1.499 . S
C1195 H1169 0.950 . S
C1195 C1194 1.414 . S
C1195 C1196 1.374 . S
C1196 H1170 0.950 . S
C1196 C1192 1.385 . S
C1196 C1195 1.374 . S
C1197 C1194 1.499 . S
C1197 C1198 1.373 . S
C1197 C1199 1.389 . S
C1198 H1171 0.950 . S
C1198 C1184 1.377 . S
C1198 C1197 1.373 . S
C1199 C1183 1.377 . S
C1199 C1197 1.389 . S
C1199 C1200 1.524 . S
C1200 C1199 1.524 . S
C1200 C1201 1.397 . S
C1200 C1205 1.363 . S
C1201 H1172 0.950 . S
C1201 C1200 1.397 . S
C1201 C1202 1.334 . S
C1202 H1173 0.950 . S
C1202 C1201 1.334 . S
C1202 C1203 1.287 . S
C1203 C1202 1.287 . S
C1203 C1204 1.524 . S
C1203 H1206 0.999 . S
C1204 H1174 0.950 . S
C1204 C1203 1.524 . S
C1204 C1205 1.415 . S
C1205 H1175 0.950 . S
C1205 C1200 1.363 . S
C1205 C1204 1.415 . S
H1206 C1203 0.999 . S
H1207 C1188 0.913 . S
H1208 C1226 0.951 . S
H1209 C1228 0.951 . S
H1210 C1230 0.950 . S
H1211 C1231 0.950 . S
H1212 C1233 0.950 . S
H1213 C1236 0.950 . S
H1214 C1237 0.950 . S
H1215 C1239 0.950 . S
H1216 C1240 0.950 . S
H1217 C1241 0.951 . S
H1218 C1243 0.951 . S
H1219 C1245 0.950 . S
H1220 C1246 0.950 . S
H1221 C1248 0.950 . S
H1222 C1251 0.950 . S
H1223 C1252 0.950 . S
H1224 C1254 0.950 . S
H1225 C1255 0.950 . S
C1226 H1208 0.951 . S
C1226 C1227 1.366 . S
C1226 C1228 1.388 . S
C1227 C1226 1.366 . S
C1227 C1231 1.385 . S
C1228 H1209 0.951 . S
C1228 C1226 1.388 . S
C1228 C1229 1.366 . S
C1229 C1228 1.366 . S
C1229 C1230 1.414 . S
C1229 C1232 1.499 . S
C1230 H1210 0.950 . S
C1230 C1229 1.414 . S
C1230 C1231 1.374 . S
C1231 H1211 0.950 . S
C1231 C1227 1.385 . S
C1231 C1230 1.374 . S
C1232 C1229 1.499 . S
C1232 C1233 1.373 . S
C1232 C1234 1.389 . S
C1233 H1212 0.950 . S
C1233 C1232 1.373 . S
C1233 C1249 1.377 . S
C1234 C1232 1.389 . S
C1234 C1235 1.524 . S
C1234 C1248 1.377 . S
C1235 C1234 1.524 . S
C1235 C1236 1.397 . S
C1235 C1240 1.363 . S
C1236 H1213 0.950 . S
C1236 C1235 1.397 . S
C1236 C1237 1.334 . S
C1237 H1214 0.950 . S
C1237 C1236 1.334 . S
C1237 C1238 1.287 . S
C1238 C1237 1.287 . S
C1238 C1239 1.524 . S
C1238 H1257 0.913 . S
C1239 H1215 0.950 . S
C1239 C1238 1.524 . S
C1239 C1240 1.415 . S
C1240 H1216 0.950 . S
C1240 C1235 1.363 . S
C1240 C1239 1.415 . S
C1241 H1217 0.951 . S
C1241 C1242 1.366 . S
C1241 C1243 1.388 . S
C1242 C1241 1.366 . S
C1242 C1246 1.385 . S
C1243 H1218 0.951 . S
C1243 C1241 1.388 . S
C1243 C1244 1.366 . S
C1244 C1243 1.366 . S
C1244 C1245 1.414 . S
C1244 C1247 1.499 . S
C1245 H1219 0.950 . S
C1245 C1244 1.414 . S
C1245 C1246 1.374 . S
C1246 H1220 0.950 . S
C1246 C1242 1.385 . S
C1246 C1245 1.374 . S
C1247 C1244 1.499 . S
C1247 C1248 1.373 . S
C1247 C1249 1.389 . S
C1248 H1221 0.950 . S
C1248 C1234 1.377 . S
C1248 C1247 1.373 . S
C1249 C1233 1.377 . S
C1249 C1247 1.389 . S
C1249 C1250 1.524 . S
C1250 C1249 1.524 . S
C1250 C1251 1.397 . S
C1250 C1255 1.363 . S
C1251 H1222 0.950 . S
C1251 C1250 1.397 . S
C1251 C1252 1.334 . S
C1252 H1223 0.950 . S
C1252 C1251 1.334 . S
C1252 C1253 1.287 . S
C1253 C1252 1.287 . S
C1253 C1254 1.524 . S
C1253 H1256 0.999 . S
C1254 H1224 0.950 . S
C1254 C1253 1.524 . S
C1254 C1255 1.415 . S
C1255 H1225 0.950 . S
C1255 C1250 1.363 . S
C1255 C1254 1.415 . S
H1256 C1253 0.999 . S
H1257 C1238 0.913 . S
H1258 C1276 0.951 . S
H1259 C1278 0.951 . S
H1260 C1280 0.950 . S
H1261 C1281 0.950 . S
H1262 C1283 0.950 . S
H1263 C1286 0.950 . S
H1264 C1287 0.950 . S
H1265 C1289 0.950 . S
H1266 C1290 0.950 . S
H1267 C1291 0.951 . S
H1268 C1293 0.951 . S
H1269 C1295 0.950 . S
H1270 C1296 0.950 . S
H1271 C1298 0.950 . S
H1272 C1301 0.950 . S
H1273 C1302 0.950 . S
H1274 C1304 0.950 . S
H1275 C1305 0.950 . S
C1276 H1258 0.951 . S
C1276 C1277 1.366 . S
C1276 C1278 1.388 . S
C1277 C1276 1.366 . S
C1277 C1281 1.385 . S
C1278 H1259 0.951 . S
C1278 C1276 1.388 . S
C1278 C1279 1.366 . S
C1279 C1278 1.366 . S
C1279 C1280 1.414 . S
C1279 C1282 1.499 . S
C1280 H1260 0.950 . S
C1280 C1279 1.414 . S
C1280 C1281 1.374 . S
C1281 H1261 0.950 . S
C1281 C1277 1.385 . S
C1281 C1280 1.374 . S
C1282 C1279 1.499 . S
C1282 C1283 1.373 . S
C1282 C1284 1.389 . S
C1283 H1262 0.950 . S
C1283 C1282 1.373 . S
C1283 C1299 1.377 . S
C1284 C1282 1.389 . S
C1284 C1285 1.524 . S
C1284 C1298 1.377 . S
C1285 C1284 1.524 . S
C1285 C1286 1.397 . S
C1285 C1290 1.363 . S
C1286 H1263 0.950 . S
C1286 C1285 1.397 . S
C1286 C1287 1.334 . S
C1287 H1264 0.950 . S
C1287 C1286 1.334 . S
C1287 C1288 1.287 . S
C1288 C1287 1.287 . S
C1288 C1289 1.524 . S
C1288 H1307 0.913 . S
C1289 H1265 0.950 . S
C1289 C1288 1.524 . S
C1289 C1290 1.415 . S
C1290 H1266 0.950 . S
C1290 C1285 1.363 . S
C1290 C1289 1.415 . S
C1291 H1267 0.951 . S
C1291 C1292 1.366 . S
C1291 C1293 1.388 . S
C1292 C1291 1.366 . S
C1292 C1296 1.385 . S
C1293 H1268 0.951 . S
C1293 C1291 1.388 . S
C1293 C1294 1.366 . S
C1294 C1293 1.366 . S
C1294 C1295 1.414 . S
C1294 C1297 1.499 . S
C1295 H1269 0.950 . S
C1295 C1294 1.414 . S
C1295 C1296 1.374 . S
C1296 H1270 0.950 . S
C1296 C1292 1.385 . S
C1296 C1295 1.374 . S
C1297 C1294 1.499 . S
C1297 C1298 1.373 . S
C1297 C1299 1.389 . S
C1298 H1271 0.950 . S
C1298 C1284 1.377 . S
C1298 C1297 1.373 . S
C1299 C1283 1.377 . S
C1299 C1297 1.389 . S
C1299 C1300 1.524 . S
C1300 C1299 1.524 . S
C1300 C1301 1.397 . S
C1300 C1305 1.363 . S
C1301 H1272 0.950 . S
C1301 C1300 1.397 . S
C1301 C1302 1.334 . S
C1302 H1273 0.950 . S
C1302 C1301 1.334 . S
C1302 C1303 1.287 . S
C1303 C1302 1.287 . S
C1303 C1304 1.524 . S
C1303 H1306 0.999 . S
C1304 H1274 0.950 . S
C1304 C1303 1.524 . S
C1304 C1305 1.415 . S
C1305 H1275 0.950 . S
C1305 C1300 1.363 . S
C1305 C1304 1.415 . S
H1306 C1303 0.999 . S
H1307 C1288 0.913 . S
H1308 C1326 0.951 . S
H1309 C1328 0.951 . S
H1310 C1330 0.950 . S
H1311 C1331 0.950 . S
H1312 C1333 0.950 . S
H1313 C1336 0.950 . S
H1314 C1337 0.950 . S
H1315 C1339 0.950 . S
H1316 C1340 0.950 . S
H1317 C1341 0.951 . S
H1318 C1343 0.951 . S
H1319 C1345 0.950 . S
H1320 C1346 0.950 . S
H1321 C1348 0.950 . S
H1322 C1351 0.950 . S
H1323 C1352 0.950 . S
H1324 C1354 0.950 . S
H1325 C1355 0.950 . S
C1326 H1308 0.951 . S
C1326 C1327 1.366 . S
C1326 C1328 1.388 . S
C1327 C1326 1.366 . S
C1327 C1331 1.385 . S
C1328 H1309 0.951 . S
C1328 C1326 1.388 . S
C1328 C1329 1.366 . S
C1329 C1328 1.366 . S
C1329 C1330 1.414 . S
C1329 C1332 1.499 . S
C1330 H1310 0.950 . S
C1330 C1329 1.414 . S
C1330 C1331 1.374 . S
C1331 H1311 0.950 . S
C1331 C1327 1.385 . S
C1331 C1330 1.374 . S
C1332 C1329 1.499 . S
C1332 C1333 1.373 . S
C1332 C1334 1.389 . S
C1333 H1312 0.950 . S
C1333 C1332 1.373 . S
C1333 C1349 1.377 . S
C1334 C1332 1.389 . S
C1334 C1335 1.524 . S
C1334 C1348 1.377 . S
C1335 C1334 1.524 . S
C1335 C1336 1.397 . S
C1335 C1340 1.363 . S
C1336 H1313 0.950 . S
C1336 C1335 1.397 . S
C1336 C1337 1.334 . S
C1337 H1314 0.950 . S
C1337 C1336 1.334 . S
C1337 C1338 1.287 . S
C1338 C1337 1.287 . S
C1338 C1339 1.524 . S
C1338 H1357 0.913 . S
C1339 H1315 0.950 . S
C1339 C1338 1.524 . S
C1339 C1340 1.415 . S
C1340 H1316 0.950 . S
C1340 C1335 1.363 . S
C1340 C1339 1.415 . S
C1341 H1317 0.951 . S
C1341 C1342 1.366 . S
C1341 C1343 1.388 . S
C1342 C1341 1.366 . S
C1342 C1346 1.385 . S
C1343 H1318 0.951 . S
C1343 C1341 1.388 . S
C1343 C1344 1.366 . S
C1344 C1343 1.366 . S
C1344 C1345 1.414 . S
C1344 C1347 1.499 . S
C1345 H1319 0.950 . S
C1345 C1344 1.414 . S
C1345 C1346 1.374 . S
C1346 H1320 0.950 . S
C1346 C1342 1.385 . S
C1346 C1345 1.374 . S
C1347 C1344 1.499 . S
C1347 C1348 1.373 . S
C1347 C1349 1.389 . S
C1348 H1321 0.950 . S
C1348 C1334 1.377 . S
C1348 C1347 1.373 . S
C1349 C1333 1.377 . S
C1349 C1347 1.389 . S
C1349 C1350 1.524 . S
C1350 C1349 1.524 . S
C1350 C1351 1.397 . S
C1350 C1355 1.363 . S
C1351 H1322 0.950 . S
C1351 C1350 1.397 . S
C1351 C1352 1.334 . S
C1352 H1323 0.950 . S
C1352 C1351 1.334 . S
C1352 C1353 1.287 . S
C1353 C1352 1.287 . S
C1353 C1354 1.524 . S
C1353 H1356 0.999 . S
C1354 H1324 0.950 . S
C1354 C1353 1.524 . S
C1354 C1355 1.415 . S
C1355 H1325 0.950 . S
C1355 C1350 1.363 . S
C1355 C1354 1.415 . S
H1356 C1353 0.999 . S
H1357 C1338 0.913 . S
H1358 C1376 0.951 . S
H1359 C1378 0.951 . S
H1360 C1380 0.950 . S
H1361 C1381 0.950 . S
H1362 C1383 0.950 . S
H1363 C1386 0.950 . S
H1364 C1387 0.950 . S
H1365 C1389 0.950 . S
H1366 C1390 0.950 . S
H1367 C1391 0.951 . S
H1368 C1393 0.951 . S
H1369 C1395 0.950 . S
H1370 C1396 0.950 . S
H1371 C1398 0.950 . S
H1372 C1401 0.950 . S
H1373 C1402 0.950 . S
H1374 C1404 0.950 . S
H1375 C1405 0.950 . S
C1376 H1358 0.951 . S
C1376 C1377 1.366 . S
C1376 C1378 1.388 . S
C1377 C1376 1.366 . S
C1377 C1381 1.385 . S
C1378 H1359 0.951 . S
C1378 C1376 1.388 . S
C1378 C1379 1.366 . S
C1379 C1378 1.366 . S
C1379 C1380 1.414 . S
C1379 C1382 1.499 . S
C1380 H1360 0.950 . S
C1380 C1379 1.414 . S
C1380 C1381 1.374 . S
C1381 H1361 0.950 . S
C1381 C1377 1.385 . S
C1381 C1380 1.374 . S
C1382 C1379 1.499 . S
C1382 C1383 1.373 . S
C1382 C1384 1.389 . S
C1383 H1362 0.950 . S
C1383 C1382 1.373 . S
C1383 C1399 1.377 . S
C1384 C1382 1.389 . S
C1384 C1385 1.524 . S
C1384 C1398 1.377 . S
C1385 C1384 1.524 . S
C1385 C1386 1.397 . S
C1385 C1390 1.363 . S
C1386 H1363 0.950 . S
C1386 C1385 1.397 . S
C1386 C1387 1.334 . S
C1387 H1364 0.950 . S
C1387 C1386 1.334 . S
C1387 C1388 1.287 . S
C1388 C1387 1.287 . S
C1388 C1389 1.524 . S
C1388 H1407 0.913 . S
C1389 H1365 0.950 . S
C1389 C1388 1.524 . S
C1389 C1390 1.415 . S
C1390 H1366 0.950 . S
C1390 C1385 1.363 . S
C1390 C1389 1.415 . S
C1391 H1367 0.951 . S
C1391 C1392 1.366 . S
C1391 C1393 1.388 . S
C1392 C1391 1.366 . S
C1392 C1396 1.385 . S
C1393 H1368 0.951 . S
C1393 C1391 1.388 . S
C1393 C1394 1.366 . S
C1394 C1393 1.366 . S
C1394 C1395 1.414 . S
C1394 C1397 1.499 . S
C1395 H1369 0.950 . S
C1395 C1394 1.414 . S
C1395 C1396 1.374 . S
C1396 H1370 0.950 . S
C1396 C1392 1.385 . S
C1396 C1395 1.374 . S
C1397 C1394 1.499 . S
C1397 C1398 1.373 . S
C1397 C1399 1.389 . S
C1398 H1371 0.950 . S
C1398 C1384 1.377 . S
C1398 C1397 1.373 . S
C1399 C1383 1.377 . S
C1399 C1397 1.389 . S
C1399 C1400 1.524 . S
C1400 C1399 1.524 . S
C1400 C1401 1.397 . S
C1400 C1405 1.363 . S
C1401 H1372 0.950 . S
C1401 C1400 1.397 . S
C1401 C1402 1.334 . S
C1402 H1373 0.950 . S
C1402 C1401 1.334 . S
C1402 C1403 1.287 . S
C1403 C1402 1.287 . S
C1403 C1404 1.524 . S
C1403 H1406 0.999 . S
C1404 H1374 0.950 . S
C1404 C1403 1.524 . S
C1404 C1405 1.415 . S
C1405 H1375 0.950 . S
C1405 C1400 1.363 . S
C1405 C1404 1.415 . S
H1406 C1403 0.999 . S
H1407 C1388 0.913 . S
H1408 C1426 0.951 . S
H1409 C1428 0.951 . S
H1410 C1430 0.950 . S
H1411 C1431 0.950 . S
H1412 C1433 0.950 . S
H1413 C1436 0.950 . S
H1414 C1437 0.950 . S
H1415 C1439 0.950 . S
H1416 C1440 0.950 . S
H1417 C1441 0.951 . S
H1418 C1443 0.951 . S
H1419 C1445 0.950 . S
H1420 C1446 0.950 . S
H1421 C1448 0.950 . S
H1422 C1451 0.950 . S
H1423 C1452 0.950 . S
H1424 C1454 0.950 . S
H1425 C1455 0.950 . S
C1426 H1408 0.951 . S
C1426 C1427 1.366 . S
C1426 C1428 1.388 . S
C1427 C1426 1.366 . S
C1427 C1431 1.385 1_455 S
C1428 H1409 0.951 . S
C1428 C1426 1.388 . S
C1428 C1429 1.366 . S
C1429 C1428 1.366 . S
C1429 C1430 1.414 1_455 S
C1429 C1432 1.500 . S
C1430 H1410 0.950 . S
C1430 C1429 1.414 1_655 S
C1430 C1431 1.374 . S
C1431 H1411 0.950 . S
C1431 C1427 1.385 1_655 S
C1431 C1430 1.374 . S
C1432 C1429 1.500 . S
C1432 C1433 1.374 . S
C1432 C1434 1.389 1_455 S
C1433 H1412 0.950 . S
C1433 C1432 1.374 . S
C1433 C1449 1.377 . S
C1434 C1432 1.389 1_655 S
C1434 C1435 1.524 . S
C1434 C1448 1.377 . S
C1435 C1434 1.524 . S
C1435 C1436 1.397 . S
C1435 C1440 1.363 1_655 S
C1436 H1413 0.950 . S
C1436 C1435 1.397 . S
C1436 C1437 1.334 . S
C1437 H1414 0.950 . S
C1437 C1436 1.334 . S
C1437 C1438 1.287 . S
C1438 C1437 1.287 . S
C1438 C1439 1.524 1_655 S
C1438 H1457 0.913 . S
C1439 H1415 0.950 . S
C1439 C1438 1.524 1_455 S
C1439 C1440 1.415 . S
C1440 H1416 0.950 . S
C1440 C1435 1.363 1_455 S
C1440 C1439 1.415 . S
C1441 H1417 0.951 . S
C1441 C1442 1.366 . S
C1441 C1443 1.388 . S
C1442 C1441 1.366 . S
C1442 C1446 1.385 1_655 S
C1443 H1418 0.951 . S
C1443 C1441 1.388 . S
C1443 C1444 1.366 . S
C1444 C1443 1.366 . S
C1444 C1445 1.414 1_655 S
C1444 C1447 1.500 . S
C1445 H1419 0.950 . S
C1445 C1444 1.414 1_455 S
C1445 C1446 1.374 . S
C1446 H1420 0.950 . S
C1446 C1442 1.385 1_455 S
C1446 C1445 1.374 . S
C1447 C1444 1.500 . S
C1447 C1448 1.374 . S
C1447 C1449 1.389 1_655 S
C1448 H1421 0.950 . S
C1448 C1434 1.377 . S
C1448 C1447 1.374 . S
C1449 C1433 1.377 . S
C1449 C1447 1.389 1_455 S
C1449 C1450 1.524 . S
C1450 C1449 1.524 . S
C1450 C1451 1.397 . S
C1450 C1455 1.363 1_455 S
C1451 H1422 0.950 . S
C1451 C1450 1.397 . S
C1451 C1452 1.334 . S
C1452 H1423 0.950 . S
C1452 C1451 1.334 . S
C1452 C1453 1.287 . S
C1453 C1452 1.287 . S
C1453 C1454 1.524 1_455 S
C1453 H1456 0.999 . S
C1454 H1424 0.950 . S
C1454 C1453 1.524 1_655 S
C1454 C1455 1.415 . S
C1455 H1425 0.950 . S
C1455 C1450 1.363 1_655 S
C1455 C1454 1.415 . S
H1456 C1453 0.999 . S
H1457 C1438 0.913 . S
H1458 C1476 0.951 . S
H1459 C1478 0.951 . S
H1460 C1480 0.950 . S
H1461 C1481 0.950 . S
H1462 C1483 0.950 . S
H1463 C1486 0.950 . S
H1464 C1487 0.950 . S
H1465 C1489 0.950 . S
H1466 C1490 0.950 . S
H1467 C1491 0.951 . S
H1468 C1493 0.951 . S
H1469 C1495 0.950 . S
H1470 C1496 0.950 . S
H1471 C1498 0.950 . S
H1472 C1501 0.950 . S
H1473 C1502 0.950 . S
H1474 C1504 0.950 . S
H1475 C1505 0.950 . S
C1476 H1458 0.951 . S
C1476 C1477 1.366 1_545 S
C1476 C1478 1.388 . S
C1477 C1476 1.366 1_565 S
C1477 C1481 1.385 . S
C1478 H1459 0.951 . S
C1478 C1476 1.388 . S
C1478 C1479 1.366 1_545 S
C1479 C1478 1.366 1_565 S
C1479 C1480 1.414 . S
C1479 C1482 1.499 . S
C1480 H1460 0.950 . S
C1480 C1479 1.414 . S
C1480 C1481 1.374 . S
C1481 H1461 0.950 . S
C1481 C1477 1.385 . S
C1481 C1480 1.374 . S
C1482 C1479 1.499 . S
C1482 C1483 1.373 . S
C1482 C1484 1.389 1_565 S
C1483 H1462 0.950 . S
C1483 C1482 1.373 . S
C1483 C1499 1.377 . S
C1484 C1482 1.389 1_545 S
C1484 C1485 1.524 . S
C1484 C1498 1.377 . S
C1485 C1484 1.524 . S
C1485 C1486 1.397 . S
C1485 C1490 1.363 . S
C1486 H1463 0.950 . S
C1486 C1485 1.397 . S
C1486 C1487 1.334 . S
C1487 H1464 0.950 . S
C1487 C1486 1.334 . S
C1487 C1488 1.287 . S
C1488 C1487 1.287 . S
C1488 C1489 1.524 . S
C1488 H1507 0.913 . S
C1489 H1465 0.950 . S
C1489 C1488 1.524 . S
C1489 C1490 1.415 . S
C1490 H1466 0.950 . S
C1490 C1485 1.363 . S
C1490 C1489 1.415 . S
C1491 H1467 0.951 . S
C1491 C1492 1.366 1_565 S
C1491 C1493 1.388 . S
C1492 C1491 1.366 1_545 S
C1492 C1496 1.385 . S
C1493 H1468 0.951 . S
C1493 C1491 1.388 . S
C1493 C1494 1.366 1_565 S
C1494 C1493 1.366 1_545 S
C1494 C1495 1.414 . S
C1494 C1497 1.499 . S
C1495 H1469 0.950 . S
C1495 C1494 1.414 . S
C1495 C1496 1.374 . S
C1496 H1470 0.950 . S
C1496 C1492 1.385 . S
C1496 C1495 1.374 . S
C1497 C1494 1.499 . S
C1497 C1498 1.373 . S
C1497 C1499 1.389 1_545 S
C1498 H1471 0.950 . S
C1498 C1484 1.377 . S
C1498 C1497 1.373 . S
C1499 C1483 1.377 . S
C1499 C1497 1.389 1_565 S
C1499 C1500 1.524 . S
C1500 C1499 1.524 . S
C1500 C1501 1.397 . S
C1500 C1505 1.363 . S
C1501 H1472 0.950 . S
C1501 C1500 1.397 . S
C1501 C1502 1.334 . S
C1502 H1473 0.950 . S
C1502 C1501 1.334 . S
C1502 C1503 1.287 . S
C1503 C1502 1.287 . S
C1503 C1504 1.524 . S
C1503 H1506 0.999 . S
C1504 H1474 0.950 . S
C1504 C1503 1.524 . S
C1504 C1505 1.415 . S
C1505 H1475 0.950 . S
C1505 C1500 1.363 . S
C1505 C1504 1.415 . S
H1506 C1503 0.999 . S
H1507 C1488 0.913 . S
H1508 C1526 0.951 . S
H1509 C1528 0.951 . S
H1510 C1530 0.950 . S
H1511 C1531 0.953 . S
H1512 C1533 0.950 . S
H1513 C1536 0.950 . S
H1514 C1537 0.950 . S
H1515 C1539 0.950 . S
H1516 C1540 0.950 . S
H1517 C1541 0.951 . S
H1518 C1543 0.951 . S
H1519 C1545 0.950 . S
H1520 C1546 0.953 . S
H1521 C1548 0.950 . S
H1522 C1551 0.950 . S
H1523 C1552 0.950 . S
H1524 C1554 0.950 . S
H1525 C1555 0.950 . S
C1526 H1508 0.951 . S
C1526 C1527 1.366 . S
C1526 C1528 1.388 . S
C1527 C1526 1.366 . S
C1527 C1531 1.381 1_455 S
C1528 H1509 0.951 . S
C1528 C1526 1.388 . S
C1528 C1529 1.366 . S
C1529 C1528 1.366 . S
C1529 C1530 1.414 1_455 S
C1529 C1532 1.500 . S
C1530 H1510 0.950 . S
C1530 C1529 1.414 1_655 S
C1530 C1531 1.375 . S
C1531 H1511 0.953 . S
C1531 C1527 1.381 1_655 S
C1531 C1530 1.375 . S
C1532 C1529 1.500 . S
C1532 C1533 1.378 . S
C1532 C1534 1.385 1_455 S
C1533 H1512 0.950 . S
C1533 C1532 1.378 . S
C1533 C1549 1.377 . S
C1534 C1532 1.385 1_655 S
C1534 C1535 1.524 . S
C1534 C1548 1.377 . S
C1535 C1534 1.524 . S
C1535 C1536 1.397 . S
C1535 C1540 1.363 . S
C1536 H1513 0.950 . S
C1536 C1535 1.397 . S
C1536 C1537 1.334 . S
C1537 H1514 0.950 . S
C1537 C1536 1.334 . S
C1537 C1538 1.287 . S
C1538 C1537 1.287 . S
C1538 C1539 1.524 . S
C1538 H1557 0.913 . S
C1539 H1515 0.950 . S
C1539 C1538 1.524 . S
C1539 C1540 1.415 . S
C1540 H1516 0.950 . S
C1540 C1535 1.363 . S
C1540 C1539 1.415 . S
C1541 H1517 0.951 . S
C1541 C1542 1.366 . S
C1541 C1543 1.388 . S
C1542 C1541 1.366 . S
C1542 C1546 1.381 1_655 S
C1543 H1518 0.951 . S
C1543 C1541 1.388 . S
C1543 C1544 1.366 . S
C1544 C1543 1.366 . S
C1544 C1545 1.414 1_655 S
C1544 C1547 1.500 . S
C1545 H1519 0.950 . S
C1545 C1544 1.414 1_455 S
C1545 C1546 1.375 . S
C1546 H1520 0.953 . S
C1546 C1542 1.381 1_455 S
C1546 C1545 1.375 . S
C1547 C1544 1.500 . S
C1547 C1548 1.378 . S
C1547 C1549 1.385 1_655 S
C1548 H1521 0.950 . S
C1548 C1534 1.377 . S
C1548 C1547 1.378 . S
C1549 C1533 1.377 . S
C1549 C1547 1.385 1_455 S
C1549 C1550 1.524 . S
C1550 C1549 1.524 . S
C1550 C1551 1.397 . S
C1550 C1555 1.363 . S
C1551 H1522 0.950 . S
C1551 C1550 1.397 . S
C1551 C1552 1.334 . S
C1552 H1523 0.950 . S
C1552 C1551 1.334 . S
C1552 C1553 1.287 . S
C1553 C1552 1.287 . S
C1553 C1554 1.524 . S
C1553 H1556 0.999 . S
C1554 H1524 0.950 . S
C1554 C1553 1.524 . S
C1554 C1555 1.415 . S
C1555 H1525 0.950 . S
C1555 C1550 1.363 . S
C1555 C1554 1.415 . S
H1556 C1553 0.999 . S
H1557 C1538 0.913 . S
H1558 C1576 0.959 . S
H1559 C1578 0.951 . S
H1560 C1580 0.950 . S
H1561 C1581 0.950 . S
H1562 C1583 0.950 . S
H1563 C1586 0.950 . S
H1564 C1587 0.950 . S
H1565 C1589 0.950 . S
H1566 C1590 0.950 . S
H1567 C1591 0.959 . S
H1568 C1593 0.951 . S
H1569 C1595 0.950 . S
H1570 C1596 0.950 . S
H1571 C1598 0.950 . S
H1572 C1601 0.950 . S
H1573 C1602 0.950 . S
H1574 C1604 0.950 . S
H1575 C1605 0.950 . S
C1576 H1558 0.959 . S
C1576 C1577 1.357 1_565 S
C1576 C1578 1.389 . S
C1577 C1576 1.357 1_545 S
C1577 C1581 1.385 . S
C1578 H1559 0.951 . S
C1578 C1576 1.389 . S
C1578 C1579 1.366 1_565 S
C1579 C1578 1.366 1_545 S
C1579 C1580 1.414 . S
C1579 C1582 1.499 . S
C1580 H1560 0.950 . S
C1580 C1579 1.414 . S
C1580 C1581 1.374 . S
C1581 H1561 0.950 . S
C1581 C1577 1.385 . S
C1581 C1580 1.374 . S
C1582 C1579 1.499 . S
C1582 C1583 1.373 1_545 S
C1582 C1584 1.389 . S
C1583 H1562 0.950 . S
C1583 C1582 1.373 1_565 S
C1583 C1599 1.377 . S
C1584 C1582 1.389 . S
C1584 C1585 1.524 . S
C1584 C1598 1.377 . S
C1585 C1584 1.524 . S
C1585 C1586 1.397 . S
C1585 C1590 1.363 . S
C1586 H1563 0.950 . S
C1586 C1585 1.397 . S
C1586 C1587 1.334 . S
C1587 H1564 0.950 . S
C1587 C1586 1.334 . S
C1587 C1588 1.287 . S
C1588 C1587 1.287 . S
C1588 C1589 1.524 . S
C1588 H1607 0.913 . S
C1589 H1565 0.950 . S
C1589 C1588 1.524 . S
C1589 C1590 1.415 . S
C1590 H1566 0.950 . S
C1590 C1585 1.363 . S
C1590 C1589 1.415 . S
C1591 H1567 0.959 . S
C1591 C1592 1.357 1_545 S
C1591 C1593 1.389 . S
C1592 C1591 1.357 1_565 S
C1592 C1596 1.385 . S
C1593 H1568 0.951 . S
C1593 C1591 1.389 . S
C1593 C1594 1.366 1_545 S
C1594 C1593 1.366 1_565 S
C1594 C1595 1.414 . S
C1594 C1597 1.499 . S
C1595 H1569 0.950 . S
C1595 C1594 1.414 . S
C1595 C1596 1.374 . S
C1596 H1570 0.950 . S
C1596 C1592 1.385 . S
C1596 C1595 1.374 . S
C1597 C1594 1.499 . S
C1597 C1598 1.373 1_565 S
C1597 C1599 1.389 . S
C1598 H1571 0.950 . S
C1598 C1584 1.377 . S
C1598 C1597 1.373 1_545 S
C1599 C1583 1.377 . S
C1599 C1597 1.389 . S
C1599 C1600 1.524 . S
C1600 C1599 1.524 . S
C1600 C1601 1.397 . S
C1600 C1605 1.363 . S
C1601 H1572 0.950 . S
C1601 C1600 1.397 . S
C1601 C1602 1.334 . S
C1602 H1573 0.950 . S
C1602 C1601 1.334 . S
C1602 C1603 1.287 . S
C1603 C1602 1.287 . S
C1603 C1604 1.524 . S
C1603 H1606 0.999 . S
C1604 H1574 0.950 . S
C1604 C1603 1.524 . S
C1604 C1605 1.415 . S
C1605 H1575 0.950 . S
C1605 C1600 1.363 . S
C1605 C1604 1.415 . S
H1606 C1603 0.999 . S
H1607 C1588 0.913 . S
H1608 C1626 0.951 . S
H1609 C1628 0.951 . S
H1610 C1630 0.950 . S
H1611 C1631 0.950 . S
H1612 C1633 0.950 . S
H1613 C1636 0.950 . S
H1614 C1637 0.950 . S
H1615 C1639 0.950 . S
H1616 C1640 0.950 . S
H1617 C1641 0.951 . S
H1618 C1643 0.951 . S
H1619 C1645 0.950 . S
H1620 C1646 0.950 . S
H1621 C1648 0.950 . S
H1622 C1651 0.950 . S
H1623 C1652 0.950 . S
H1624 C1654 0.950 . S
H1625 C1655 0.950 . S
C1626 H1608 0.951 . S
C1626 C1627 1.366 . S
C1626 C1628 1.388 . S
C1627 C1626 1.366 . S
C1627 C1631 1.385 . S
C1628 H1609 0.951 . S
C1628 C1626 1.388 . S
C1628 C1629 1.366 . S
C1629 C1628 1.366 . S
C1629 C1630 1.414 . S
C1629 C1632 1.499 . S
C1630 H1610 0.950 . S
C1630 C1629 1.414 . S
C1630 C1631 1.374 . S
C1631 H1611 0.950 . S
C1631 C1627 1.385 . S
C1631 C1630 1.374 . S
C1632 C1629 1.499 . S
C1632 C1633 1.373 . S
C1632 C1634 1.389 . S
C1633 H1612 0.950 . S
C1633 C1632 1.373 . S
C1633 C1649 1.377 1_556 S
C1634 C1632 1.389 . S
C1634 C1635 1.524 . S
C1634 C1648 1.377 1_556 S
C1635 C1634 1.524 . S
C1635 C1636 1.397 . S
C1635 C1640 1.363 . S
C1636 H1613 0.950 . S
C1636 C1635 1.397 . S
C1636 C1637 1.334 . S
C1637 H1614 0.950 . S
C1637 C1636 1.334 . S
C1637 C1638 1.287 . S
C1638 C1637 1.287 . S
C1638 C1639 1.524 . S
C1638 H1657 0.913 . S
C1639 H1615 0.950 . S
C1639 C1638 1.524 . S
C1639 C1640 1.415 . S
C1640 H1616 0.950 . S
C1640 C1635 1.363 . S
C1640 C1639 1.415 . S
C1641 H1617 0.951 . S
C1641 C1642 1.366 . S
C1641 C1643 1.388 . S
C1642 C1641 1.366 . S
C1642 C1646 1.385 . S
C1643 H1618 0.951 . S
C1643 C1641 1.388 . S
C1643 C1644 1.366 . S
C1644 C1643 1.366 . S
C1644 C1645 1.414 . S
C1644 C1647 1.499 . S
C1645 H1619 0.950 . S
C1645 C1644 1.414 . S
C1645 C1646 1.374 . S
C1646 H1620 0.950 . S
C1646 C1642 1.385 . S
C1646 C1645 1.374 . S
C1647 C1644 1.499 . S
C1647 C1648 1.373 . S
C1647 C1649 1.389 . S
C1648 H1621 0.950 . S
C1648 C1634 1.377 1_554 S
C1648 C1647 1.373 . S
C1649 C1633 1.377 1_554 S
C1649 C1647 1.389 . S
C1649 C1650 1.524 . S
C1650 C1649 1.524 . S
C1650 C1651 1.397 . S
C1650 C1655 1.363 . S
C1651 H1622 0.950 . S
C1651 C1650 1.397 . S
C1651 C1652 1.334 . S
C1652 H1623 0.950 . S
C1652 C1651 1.334 . S
C1652 C1653 1.287 . S
C1653 C1652 1.287 . S
C1653 C1654 1.524 . S
C1653 H1656 0.999 . S
C1654 H1624 0.950 . S
C1654 C1653 1.524 . S
C1654 C1655 1.415 . S
C1655 H1625 0.950 . S
C1655 C1650 1.363 . S
C1655 C1654 1.415 . S
H1656 C1653 0.999 . S
H1657 C1638 0.913 . S
H1658 C1676 0.951 . S
H1659 C1678 0.951 . S
H1660 C1680 0.950 . S
H1661 C1681 0.950 . S
H1662 C1683 0.950 . S
H1663 C1686 0.950 . S
H1664 C1687 0.950 . S
H1665 C1689 0.950 . S
H1666 C1690 0.950 . S
H1667 C1691 0.951 . S
H1668 C1693 0.951 . S
H1669 C1695 0.950 . S
H1670 C1696 0.950 . S
H1671 C1698 0.950 . S
H1672 C1701 0.950 . S
H1673 C1702 0.950 . S
H1674 C1704 0.950 . S
H1675 C1705 0.950 . S
C1676 H1658 0.951 . S
C1676 C1677 1.366 . S
C1676 C1678 1.388 . S
C1677 C1676 1.366 . S
C1677 C1681 1.385 . S
C1678 H1659 0.951 . S
C1678 C1676 1.388 . S
C1678 C1679 1.366 . S
C1679 C1678 1.366 . S
C1679 C1680 1.414 . S
C1679 C1682 1.499 . S
C1680 H1660 0.950 . S
C1680 C1679 1.414 . S
C1680 C1681 1.374 . S
C1681 H1661 0.950 . S
C1681 C1677 1.385 . S
C1681 C1680 1.374 . S
C1682 C1679 1.499 . S
C1682 C1683 1.373 . S
C1682 C1684 1.389 . S
C1683 H1662 0.950 . S
C1683 C1682 1.373 . S
C1683 C1699 1.377 1_556 S
C1684 C1682 1.389 . S
C1684 C1685 1.524 . S
C1684 C1698 1.377 1_556 S
C1685 C1684 1.524 . S
C1685 C1686 1.397 . S
C1685 C1690 1.363 . S
C1686 H1663 0.950 . S
C1686 C1685 1.397 . S
C1686 C1687 1.334 . S
C1687 H1664 0.950 . S
C1687 C1686 1.334 . S
C1687 C1688 1.287 . S
C1688 C1687 1.287 . S
C1688 C1689 1.524 . S
C1688 H1707 0.913 . S
C1689 H1665 0.950 . S
C1689 C1688 1.524 . S
C1689 C1690 1.415 . S
C1690 H1666 0.950 . S
C1690 C1685 1.363 . S
C1690 C1689 1.415 . S
C1691 H1667 0.951 . S
C1691 C1692 1.366 . S
C1691 C1693 1.388 . S
C1692 C1691 1.366 . S
C1692 C1696 1.385 . S
C1693 H1668 0.951 . S
C1693 C1691 1.388 . S
C1693 C1694 1.366 . S
C1694 C1693 1.366 . S
C1694 C1695 1.414 . S
C1694 C1697 1.499 . S
C1695 H1669 0.950 . S
C1695 C1694 1.414 . S
C1695 C1696 1.374 . S
C1696 H1670 0.950 . S
C1696 C1692 1.385 . S
C1696 C1695 1.374 . S
C1697 C1694 1.499 . S
C1697 C1698 1.373 . S
C1697 C1699 1.389 . S
C1698 H1671 0.950 . S
C1698 C1684 1.377 1_554 S
C1698 C1697 1.373 . S
C1699 C1683 1.377 1_554 S
C1699 C1697 1.389 . S
C1699 C1700 1.524 . S
C1700 C1699 1.524 . S
C1700 C1701 1.397 . S
C1700 C1705 1.363 . S
C1701 H1672 0.950 . S
C1701 C1700 1.397 . S
C1701 C1702 1.334 . S
C1702 H1673 0.950 . S
C1702 C1701 1.334 . S
C1702 C1703 1.287 . S
C1703 C1702 1.287 . S
C1703 C1704 1.524 . S
C1703 H1706 0.999 . S
C1704 H1674 0.950 . S
C1704 C1703 1.524 . S
C1704 C1705 1.415 . S
C1705 H1675 0.950 . S
C1705 C1700 1.363 . S
C1705 C1704 1.415 . S
H1706 C1703 0.999 . S
H1707 C1688 0.913 . S
H1708 C1726 0.951 . S
H1709 C1728 0.951 . S
H1710 C1730 0.950 . S
H1711 C1731 0.950 . S
H1712 C1733 0.950 . S
H1713 C1736 0.950 . S
H1714 C1737 0.950 . S
H1715 C1739 0.950 . S
H1716 C1740 0.950 . S
H1717 C1741 0.951 . S
H1718 C1743 0.951 . S
H1719 C1745 0.950 . S
H1720 C1746 0.950 . S
H1721 C1748 0.950 . S
H1722 C1751 0.950 . S
H1723 C1752 0.950 . S
H1724 C1754 0.950 . S
H1725 C1755 0.950 . S
C1726 H1708 0.951 . S
C1726 C1727 1.366 . S
C1726 C1728 1.388 . S
C1727 C1726 1.366 . S
C1727 C1731 1.385 . S
C1728 H1709 0.951 . S
C1728 C1726 1.388 . S
C1728 C1729 1.366 . S
C1729 C1728 1.366 . S
C1729 C1730 1.414 . S
C1729 C1732 1.499 . S
C1730 H1710 0.950 . S
C1730 C1729 1.414 . S
C1730 C1731 1.374 . S
C1731 H1711 0.950 . S
C1731 C1727 1.385 . S
C1731 C1730 1.374 . S
C1732 C1729 1.499 . S
C1732 C1733 1.373 . S
C1732 C1734 1.389 . S
C1733 H1712 0.950 . S
C1733 C1732 1.373 . S
C1733 C1749 1.377 1_554 S
C1734 C1732 1.389 . S
C1734 C1735 1.524 . S
C1734 C1748 1.377 1_554 S
C1735 C1734 1.524 . S
C1735 C1736 1.397 . S
C1735 C1740 1.363 . S
C1736 H1713 0.950 . S
C1736 C1735 1.397 . S
C1736 C1737 1.334 . S
C1737 H1714 0.950 . S
C1737 C1736 1.334 . S
C1737 C1738 1.287 . S
C1738 C1737 1.287 . S
C1738 C1739 1.524 . S
C1738 H1757 0.913 . S
C1739 H1715 0.950 . S
C1739 C1738 1.524 . S
C1739 C1740 1.415 . S
C1740 H1716 0.950 . S
C1740 C1735 1.363 . S
C1740 C1739 1.415 . S
C1741 H1717 0.951 . S
C1741 C1742 1.366 . S
C1741 C1743 1.388 . S
C1742 C1741 1.366 . S
C1742 C1746 1.385 . S
C1743 H1718 0.951 . S
C1743 C1741 1.388 . S
C1743 C1744 1.366 . S
C1744 C1743 1.366 . S
C1744 C1745 1.414 . S
C1744 C1747 1.499 . S
C1745 H1719 0.950 . S
C1745 C1744 1.414 . S
C1745 C1746 1.374 . S
C1746 H1720 0.950 . S
C1746 C1742 1.385 . S
C1746 C1745 1.374 . S
C1747 C1744 1.499 . S
C1747 C1748 1.373 . S
C1747 C1749 1.389 . S
C1748 H1721 0.950 . S
C1748 C1734 1.377 1_556 S
C1748 C1747 1.373 . S
C1749 C1733 1.377 1_556 S
C1749 C1747 1.389 . S
C1749 C1750 1.524 . S
C1750 C1749 1.524 . S
C1750 C1751 1.397 . S
C1750 C1755 1.363 . S
C1751 H1722 0.950 . S
C1751 C1750 1.397 . S
C1751 C1752 1.334 . S
C1752 H1723 0.950 . S
C1752 C1751 1.334 . S
C1752 C1753 1.287 . S
C1753 C1752 1.287 . S
C1753 C1754 1.524 . S
C1753 H1756 0.999 . S
C1754 H1724 0.950 . S
C1754 C1753 1.524 . S
C1754 C1755 1.415 . S
C1755 H1725 0.950 . S
C1755 C1750 1.363 . S
C1755 C1754 1.415 . S
H1756 C1753 0.999 . S
H1757 C1738 0.913 . S
H1758 C1776 0.951 . S
H1759 C1778 0.951 . S
H1760 C1780 0.950 . S
H1761 C1781 0.950 . S
H1762 C1783 0.950 . S
H1763 C1786 0.950 . S
H1764 C1787 0.950 . S
H1765 C1789 0.950 . S
H1766 C1790 0.950 . S
H1767 C1791 0.951 . S
H1768 C1793 0.951 . S
H1769 C1795 0.950 . S
H1770 C1796 0.950 . S
H1771 C1798 0.950 . S
H1772 C1801 0.950 . S
H1773 C1802 0.950 . S
H1774 C1804 0.950 . S
H1775 C1805 0.950 . S
C1776 H1758 0.951 . S
C1776 C1777 1.366 . S
C1776 C1778 1.388 . S
C1777 C1776 1.366 . S
C1777 C1781 1.385 . S
C1778 H1759 0.951 . S
C1778 C1776 1.388 . S
C1778 C1779 1.366 . S
C1779 C1778 1.366 . S
C1779 C1780 1.414 . S
C1779 C1782 1.499 . S
C1780 H1760 0.950 . S
C1780 C1779 1.414 . S
C1780 C1781 1.374 . S
C1781 H1761 0.950 . S
C1781 C1777 1.385 . S
C1781 C1780 1.374 . S
C1782 C1779 1.499 . S
C1782 C1783 1.373 . S
C1782 C1784 1.389 . S
C1783 H1762 0.950 . S
C1783 C1782 1.373 . S
C1783 C1799 1.377 1_556 S
C1784 C1782 1.389 . S
C1784 C1785 1.524 . S
C1784 C1798 1.377 1_556 S
C1785 C1784 1.524 . S
C1785 C1786 1.397 . S
C1785 C1790 1.363 . S
C1786 H1763 0.950 . S
C1786 C1785 1.397 . S
C1786 C1787 1.334 . S
C1787 H1764 0.950 . S
C1787 C1786 1.334 . S
C1787 C1788 1.287 . S
C1788 C1787 1.287 . S
C1788 C1789 1.524 . S
C1788 H1807 0.913 . S
C1789 H1765 0.950 . S
C1789 C1788 1.524 . S
C1789 C1790 1.415 . S
C1790 H1766 0.950 . S
C1790 C1785 1.363 . S
C1790 C1789 1.415 . S
C1791 H1767 0.951 . S
C1791 C1792 1.366 . S
C1791 C1793 1.388 . S
C1792 C1791 1.366 . S
C1792 C1796 1.385 . S
C1793 H1768 0.951 . S
C1793 C1791 1.388 . S
C1793 C1794 1.366 . S
C1794 C1793 1.366 . S
C1794 C1795 1.414 . S
C1794 C1797 1.499 . S
C1795 H1769 0.950 . S
C1795 C1794 1.414 . S
C1795 C1796 1.374 . S
C1796 H1770 0.950 . S
C1796 C1792 1.385 . S
C1796 C1795 1.374 . S
C1797 C1794 1.499 . S
C1797 C1798 1.373 . S
C1797 C1799 1.389 . S
C1798 H1771 0.950 . S
C1798 C1784 1.377 1_554 S
C1798 C1797 1.373 . S
C1799 C1783 1.377 1_554 S
C1799 C1797 1.389 . S
C1799 C1800 1.524 . S
C1800 C1799 1.524 . S
C1800 C1801 1.397 . S
C1800 C1805 1.363 . S
C1801 H1772 0.950 . S
C1801 C1800 1.397 . S
C1801 C1802 1.334 . S
C1802 H1773 0.950 . S
C1802 C1801 1.334 . S
C1802 C1803 1.287 . S
C1803 C1802 1.287 . S
C1803 C1804 1.524 . S
C1803 H1806 0.999 . S
C1804 H1774 0.950 . S
C1804 C1803 1.524 . S
C1804 C1805 1.415 . S
C1805 H1775 0.950 . S
C1805 C1800 1.363 . S
C1805 C1804 1.415 . S
H1806 C1803 0.999 . S
H1807 C1788 0.913 . S
C227 C8 1.330 . S
C242 C44 1.261 . S
C277 C5 1.261 . S
C292 C21 1.330 . S
C327 C18 1.261 . S
C342 C34 1.330 . S
C377 C31 1.263 . S
C392 C47 1.329 . S
C427 C60 1.330 . S
C442 C70 1.262 . S
C477 C73 1.330 . S
C492 C83 1.261 . S
C527 C86 1.330 . S
C542 C96 1.261 . S
C577 C99 1.330 . S
C592 C57 1.262 . S
C627 C112 1.330 . S
C642 C148 1.262 . S
C677 C109 1.263 . S
C692 C125 1.329 . S
C727 C122 1.263 . S
C742 C138 1.330 . S
C777 C151 1.330 . S
C792 C135 1.263 . S
C827 C174 1.262 . S
C842 C164 1.330 . S
C877 C187 1.263 . S
C892 C177 1.330 . S
C927 C190 1.330 . S
C942 C200 1.261 . S
C977 C203 1.330 . S
C992 C161 1.261 . S
C1027 C0 0.858 . S
C1042 C195 0.858 . S
C1077 C13 0.858 . S
C1092 C156 0.858 . S
C1127 C169 0.858 . S
C1142 C26 0.858 . S
C1177 C39 0.858 . S
C1192 C182 0.858 . S
C1227 C117 0.858 . S
C1242 C52 0.858 . S
C1277 C130 0.858 . S
C1292 C65 0.858 . S
C1327 C78 0.859 . S
C1342 C143 0.859 . S
C1377 C91 0.858 . S
C1392 C104 0.859 . S
C1427 C10 1.349 . S
C1442 C88 1.348 . S
C1477 C101 1.348 . S
C1492 C23 1.349 . S
C1527 C62 1.348 . S
C1542 C36 1.348 . S
C1577 C75 1.348 . S
C1592 C49 1.349 . S
C1627 C114 1.348 . S
C1642 C192 1.348 . S
C1677 C127 1.348 . S
C1692 C205 1.349 . S
C1727 C166 1.348 . S
C1742 C140 1.349 . S
C1777 C153 1.348 . S
C1792 C179 1.349 . S
