# Generated by pormake.
# Topology uke, (4)-cn, num edge types: 1
# Building blocks:
#     Node 0, Type 0, BuildingBlock: CEKHIL_clean_sbu_0, # of connection points: 4
#     Node 1, Type 0, BuildingBlock: CEKHIL_clean_sbu_0, # of connection points: 4
#     Node 2, Type 0, BuildingBlock: CEKHIL_clean_sbu_0, # of connection points: 4
#     Node 3, Type 0, BuildingBlock: CEKHIL_clean_sbu_0, # of connection points: 4
#     Node 4, Type 0, BuildingBlock: CEKHIL_clean_sbu_0, # of connection points: 4
#     Node 5, Type 0, BuildingBlock: CEKHIL_clean_sbu_0, # of connection points: 4
#     Node 6, Type 0, BuildingBlock: CEKHIL_clean_sbu_0, # of connection points: 4
#     Node 7, Type 0, BuildingBlock: CEKHIL_clean_sbu_0, # of connection points: 4
#     Node 8, Type 0, BuildingBlock: CEKHIL_clean_sbu_0, # of connection points: 4
#     Node 9, Type 0, BuildingBlock: CEKHIL_clean_sbu_0, # of connection points: 4
#     Node 10, Type 0, BuildingBlock: CEKHIL_clean_sbu_0, # of connection points: 4
#     Node 11, Type 0, BuildingBlock: CEKHIL_clean_sbu_0, # of connection points: 4
#     Node 12, Type 0, BuildingBlock: CEKHIL_clean_sbu_0, # of connection points: 4
#     Node 13, Type 0, BuildingBlock: CEKHIL_clean_sbu_0, # of connection points: 4
#     Node 14, Type 0, BuildingBlock: CEKHIL_clean_sbu_0, # of connection points: 4
#     Node 15, Type 0, BuildingBlock: CEKHIL_clean_sbu_0, # of connection points: 4
#     Node 16, Type 0, BuildingBlock: CEKHIL_clean_sbu_0, # of connection points: 4
#     Node 17, Type 0, BuildingBlock: CEKHIL_clean_sbu_0, # of connection points: 4
#     Node 18, Type 0, BuildingBlock: CEKHIL_clean_sbu_0, # of connection points: 4
#     Node 19, Type 0, BuildingBlock: CEKHIL_clean_sbu_0, # of connection points: 4
#     Node 20, Type 0, BuildingBlock: CEKHIL_clean_sbu_0, # of connection points: 4
#     Node 21, Type 0, BuildingBlock: CEKHIL_clean_sbu_0, # of connection points: 4
#     Node 22, Type 0, BuildingBlock: CEKHIL_clean_sbu_0, # of connection points: 4
#     Node 23, Type 0, BuildingBlock: CEKHIL_clean_sbu_0, # of connection points: 4
#     Node 24, Type 0, BuildingBlock: CEKHIL_clean_sbu_0, # of connection points: 4
#     Node 25, Type 0, BuildingBlock: CEKHIL_clean_sbu_0, # of connection points: 4
#     Node 26, Type 0, BuildingBlock: CEKHIL_clean_sbu_0, # of connection points: 4
#     Node 27, Type 0, BuildingBlock: CEKHIL_clean_sbu_0, # of connection points: 4
#     Node 28, Type 0, BuildingBlock: CEKHIL_clean_sbu_0, # of connection points: 4
#     Node 29, Type 0, BuildingBlock: CEKHIL_clean_sbu_0, # of connection points: 4
#     Node 30, Type 0, BuildingBlock: CEKHIL_clean_sbu_0, # of connection points: 4
#     Node 31, Type 0, BuildingBlock: CEKHIL_clean_sbu_0, # of connection points: 4
#     Edge 32, Type (0, 0), BuildingBlock: XIVTED_clean_linker_0, # of connection points: 2
#     Edge 33, Type (0, 0), BuildingBlock: XIVTED_clean_linker_0, # of connection points: 2
#     Edge 34, Type (0, 0), BuildingBlock: XIVTED_clean_linker_0, # of connection points: 2
#     Edge 35, Type (0, 0), BuildingBlock: XIVTED_clean_linker_0, # of connection points: 2
#     Edge 36, Type (0, 0), BuildingBlock: XIVTED_clean_linker_0, # of connection points: 2
#     Edge 37, Type (0, 0), BuildingBlock: XIVTED_clean_linker_0, # of connection points: 2
#     Edge 38, Type (0, 0), BuildingBlock: XIVTED_clean_linker_0, # of connection points: 2
#     Edge 39, Type (0, 0), BuildingBlock: XIVTED_clean_linker_0, # of connection points: 2
#     Edge 40, Type (0, 0), BuildingBlock: XIVTED_clean_linker_0, # of connection points: 2
#     Edge 41, Type (0, 0), BuildingBlock: XIVTED_clean_linker_0, # of connection points: 2
#     Edge 42, Type (0, 0), BuildingBlock: XIVTED_clean_linker_0, # of connection points: 2
#     Edge 43, Type (0, 0), BuildingBlock: XIVTED_clean_linker_0, # of connection points: 2
#     Edge 44, Type (0, 0), BuildingBlock: XIVTED_clean_linker_0, # of connection points: 2
#     Edge 45, Type (0, 0), BuildingBlock: XIVTED_clean_linker_0, # of connection points: 2
#     Edge 46, Type (0, 0), BuildingBlock: XIVTED_clean_linker_0, # of connection points: 2
#     Edge 47, Type (0, 0), BuildingBlock: XIVTED_clean_linker_0, # of connection points: 2
#     Edge 48, Type (0, 0), BuildingBlock: XIVTED_clean_linker_0, # of connection points: 2
#     Edge 49, Type (0, 0), BuildingBlock: XIVTED_clean_linker_0, # of connection points: 2
#     Edge 50, Type (0, 0), BuildingBlock: XIVTED_clean_linker_0, # of connection points: 2
#     Edge 51, Type (0, 0), BuildingBlock: XIVTED_clean_linker_0, # of connection points: 2
#     Edge 52, Type (0, 0), BuildingBlock: XIVTED_clean_linker_0, # of connection points: 2
#     Edge 53, Type (0, 0), BuildingBlock: XIVTED_clean_linker_0, # of connection points: 2
#     Edge 54, Type (0, 0), BuildingBlock: XIVTED_clean_linker_0, # of connection points: 2
#     Edge 55, Type (0, 0), BuildingBlock: XIVTED_clean_linker_0, # of connection points: 2
#     Edge 56, Type (0, 0), BuildingBlock: XIVTED_clean_linker_0, # of connection points: 2
#     Edge 57, Type (0, 0), BuildingBlock: XIVTED_clean_linker_0, # of connection points: 2
#     Edge 58, Type (0, 0), BuildingBlock: XIVTED_clean_linker_0, # of connection points: 2
#     Edge 59, Type (0, 0), BuildingBlock: XIVTED_clean_linker_0, # of connection points: 2
#     Edge 60, Type (0, 0), BuildingBlock: XIVTED_clean_linker_0, # of connection points: 2
#     Edge 61, Type (0, 0), BuildingBlock: XIVTED_clean_linker_0, # of connection points: 2
#     Edge 62, Type (0, 0), BuildingBlock: XIVTED_clean_linker_0, # of connection points: 2
#     Edge 63, Type (0, 0), BuildingBlock: XIVTED_clean_linker_0, # of connection points: 2
#     Edge 64, Type (0, 0), BuildingBlock: XIVTED_clean_linker_0, # of connection points: 2
#     Edge 65, Type (0, 0), BuildingBlock: XIVTED_clean_linker_0, # of connection points: 2
#     Edge 66, Type (0, 0), BuildingBlock: XIVTED_clean_linker_0, # of connection points: 2
#     Edge 67, Type (0, 0), BuildingBlock: XIVTED_clean_linker_0, # of connection points: 2
#     Edge 68, Type (0, 0), BuildingBlock: XIVTED_clean_linker_0, # of connection points: 2
#     Edge 69, Type (0, 0), BuildingBlock: XIVTED_clean_linker_0, # of connection points: 2
#     Edge 70, Type (0, 0), BuildingBlock: XIVTED_clean_linker_0, # of connection points: 2
#     Edge 71, Type (0, 0), BuildingBlock: XIVTED_clean_linker_0, # of connection points: 2
#     Edge 72, Type (0, 0), BuildingBlock: XIVTED_clean_linker_0, # of connection points: 2
#     Edge 73, Type (0, 0), BuildingBlock: XIVTED_clean_linker_0, # of connection points: 2
#     Edge 74, Type (0, 0), BuildingBlock: XIVTED_clean_linker_0, # of connection points: 2
#     Edge 75, Type (0, 0), BuildingBlock: XIVTED_clean_linker_0, # of connection points: 2
#     Edge 76, Type (0, 0), BuildingBlock: XIVTED_clean_linker_0, # of connection points: 2
#     Edge 77, Type (0, 0), BuildingBlock: XIVTED_clean_linker_0, # of connection points: 2
#     Edge 78, Type (0, 0), BuildingBlock: XIVTED_clean_linker_0, # of connection points: 2
#     Edge 79, Type (0, 0), BuildingBlock: XIVTED_clean_linker_0, # of connection points: 2
#     Edge 80, Type (0, 0), BuildingBlock: XIVTED_clean_linker_0, # of connection points: 2
#     Edge 81, Type (0, 0), BuildingBlock: XIVTED_clean_linker_0, # of connection points: 2
#     Edge 82, Type (0, 0), BuildingBlock: XIVTED_clean_linker_0, # of connection points: 2
#     Edge 83, Type (0, 0), BuildingBlock: XIVTED_clean_linker_0, # of connection points: 2
#     Edge 84, Type (0, 0), BuildingBlock: XIVTED_clean_linker_0, # of connection points: 2
#     Edge 85, Type (0, 0), BuildingBlock: XIVTED_clean_linker_0, # of connection points: 2
#     Edge 86, Type (0, 0), BuildingBlock: XIVTED_clean_linker_0, # of connection points: 2
#     Edge 87, Type (0, 0), BuildingBlock: XIVTED_clean_linker_0, # of connection points: 2
#     Edge 88, Type (0, 0), BuildingBlock: XIVTED_clean_linker_0, # of connection points: 2
#     Edge 89, Type (0, 0), BuildingBlock: XIVTED_clean_linker_0, # of connection points: 2
#     Edge 90, Type (0, 0), BuildingBlock: XIVTED_clean_linker_0, # of connection points: 2
#     Edge 91, Type (0, 0), BuildingBlock: XIVTED_clean_linker_0, # of connection points: 2
#     Edge 92, Type (0, 0), BuildingBlock: XIVTED_clean_linker_0, # of connection points: 2
#     Edge 93, Type (0, 0), BuildingBlock: XIVTED_clean_linker_0, # of connection points: 2
#     Edge 94, Type (0, 0), BuildingBlock: XIVTED_clean_linker_0, # of connection points: 2
#     Edge 95, Type (0, 0), BuildingBlock: XIVTED_clean_linker_0, # of connection points: 2
# Relax obj value: 0.083
# Max RMSD: 0.185
# Mean RMSD: 0.185
data_MOF--net-uke--node1-CEKHIL_clean_sbu_0--edge1-XIVTED_clean_linker_0
_symmetry_space_group_name_H-M    P1
_symmetry_Int_Tables_number       1
_symmetry_cell_setting            triclinic
loop_
_symmetry_equiv_pos_as_xyz
'x, y, z'
_cell_length_a     19.771622
_cell_length_b     109.58365
_cell_length_c     53.959279
_cell_angle_alpha  89.993113
_cell_angle_beta   89.988333
_cell_angle_gamma 90.001437
loop_
_atom_site_label
_atom_site_type_symbol
_atom_site_fract_x
_atom_site_fract_y
_atom_site_fract_z
_atom_type_partial_charge
Co0 Co 0.08811 0.04663 0.27653 0.0
O1 O 0.06946 0.0451 0.31092 0.0
O2 O 0.99594 0.05215 0.28351 0.0
C3 C 0.13528 0.02821 0.27206 0.0
O4 O 0.09578 0.04896 0.23882 0.0
Co5 Co 0.24075 0.04773 0.26477 0.0
O6 O 0.20686 0.04655 0.23035 0.0
C7 C 0.17605 0.06939 0.28484 0.0
C8 C 0.0108 0.0498 0.30662 0.0
C9 C 0.14577 0.04809 0.2234 0.0
O10 O 0.11999 0.06368 0.28252 0.0
O11 O 0.23327 0.06443 0.28022 0.0
O12 O 0.07005 0.02948 0.2711 0.0
O13 O 0.16873 0.03782 0.27882 0.0
Co14 Co 0.1742 0.18266 0.27023 0.0
O15 O 0.19675 0.18334 0.30438 0.0
O16 O 0.26965 0.1786 0.27463 0.0
C17 C 0.1183 0.20037 0.26914 0.0
O18 O 0.16253 0.18148 0.23249 0.0
Co19 Co 0.02165 0.17955 0.26055 0.0
O20 O 0.05022 0.18341 0.22622 0.0
C21 C 0.09853 0.1586 0.27801 0.0
C22 C 0.257 0.18 0.29822 0.0
C23 C 0.11073 0.18282 0.21807 0.0
O24 O 0.1516 0.16503 0.27439 0.0
O25 O 0.03878 0.16291 0.27539 0.0
O26 O 0.18363 0.2001 0.26698 0.0
O27 O 0.08997 0.1901 0.27509 0.0
Co28 Co 0.09239 0.18598 0.98028 0.0
O29 O 0.06855 0.18766 0.94635 0.0
O30 O 0.00022 0.18016 0.97513 0.0
C31 C 0.13909 0.20436 0.98478 0.0
O32 O 0.10535 0.18338 0.01767 0.0
Co33 Co 0.24732 0.18534 0.98964 0.0
O34 O 0.21699 0.18619 0.02458 0.0
C35 C 0.18167 0.16366 0.96998 0.0
C36 C 0.01133 0.18264 0.95181 0.0
C37 C 0.15688 0.18435 0.03235 0.0
O38 O 0.12525 0.16914 0.97316 0.0
O39 O 0.23893 0.1687 0.97414 0.0
O40 O 0.07391 0.2031 0.98652 0.0
O41 O 0.17188 0.19486 0.9771 0.0
Co42 Co 0.15876 0.05229 0.98504 0.0
O43 O 0.17781 0.05349 0.9506 0.0
O44 O 0.25251 0.0574 0.98011 0.0
C45 C 0.10747 0.0342 0.98345 0.0
O46 O 0.15042 0.05161 0.02293 0.0
Co47 Co 0.00559 0.05367 0.99679 0.0
O48 O 0.03884 0.04891 0.03015 0.0
C49 C 0.07688 0.07593 0.98402 0.0
C50 C 0.238 0.05699 0.9565 0.0
C51 C 0.09997 0.04956 0.03768 0.0
O52 O 0.13139 0.06972 0.98529 0.0
O53 O 0.01798 0.07115 0.98556 0.0
O54 O 0.17293 0.0349 0.9844 0.0
O55 O 0.07604 0.04445 0.98005 0.0
Co56 Co 0.90578 0.93579 0.73452 0.0
O57 O 0.92353 0.93927 0.70067 0.0
O58 O 0.99819 0.93099 0.72617 0.0
C59 C 0.85661 0.9536 0.74342 0.0
O60 O 0.89988 0.93152 0.7715 0.0
Co61 Co 0.75437 0.9332 0.74661 0.0
O62 O 0.78885 0.93275 0.78102 0.0
C63 C 0.82133 0.91309 0.72172 0.0
C64 C 0.98282 0.93459 0.70377 0.0
C65 C 0.85056 0.93135 0.78727 0.0
O66 O 0.8763 0.91902 0.72492 0.0
O67 O 0.76351 0.91741 0.72772 0.0
O68 O 0.92201 0.95254 0.7437 0.0
O69 O 0.82372 0.94434 0.7345 0.0
Co70 Co 0.82265 0.80126 0.73516 0.0
O71 O 0.79273 0.80078 0.70178 0.0
O72 O 0.72787 0.8061 0.73366 0.0
C73 C 0.87402 0.78315 0.73465 0.0
O74 O 0.84145 0.80221 0.77243 0.0
Co75 Co 0.97612 0.80353 0.74116 0.0
O76 O 0.95452 0.80043 0.77647 0.0
C77 C 0.90095 0.82468 0.72442 0.0
C78 C 0.7349 0.80453 0.70983 0.0
C79 C 0.89531 0.80099 0.78579 0.0
O80 O 0.84806 0.81867 0.73034 0.0
O81 O 0.96029 0.82006 0.7255 0.0
O82 O 0.8095 0.784 0.73862 0.0
O83 O 0.90424 0.79317 0.72801 0.0
Co84 Co 0.92083 0.80011 0.02387 0.0
O85 O 0.93745 0.80162 0.05839 0.0
O86 O 0.01571 0.80408 0.0293 0.0
C87 C 0.86285 0.78269 0.02555 0.0
O88 O 0.91542 0.79899 0.98604 0.0
Co89 Co 0.76936 0.80313 0.01033 0.0
O90 O 0.80375 0.79715 0.97796 0.0
C91 C 0.8479 0.8247 0.02277 0.0
C92 C -0.00079 0.80424 0.05273 0.0
C93 C 0.86551 0.79707 0.97102 0.0
O94 O 0.90018 0.81786 0.02239 0.0
O95 O 0.78763 0.82055 0.0207 0.0
O96 O 0.92844 0.78258 0.02565 0.0
O97 O 0.83507 0.79333 0.02817 0.0
Co98 Co 0.8498 0.93535 0.02479 0.0
O99 O 0.82976 0.93651 0.05914 0.0
O100 O 0.75899 0.9291 0.03104 0.0
C101 C 0.89249 0.95404 0.02048 0.0
O102 O 0.85912 0.93326 0.98709 0.0
Co103 Co 0.00333 0.9357 0.01302 0.0
O104 O 0.96806 0.93799 0.97899 0.0
C105 C 0.94354 0.91333 0.03211 0.0
C106 C 0.77233 0.93145 0.05426 0.0
C107 C 0.90809 0.93552 0.97181 0.0
O108 O 0.88608 0.91863 0.03053 0.0
O109 O -0.00057 0.91868 0.02711 0.0
O110 O 0.8275 0.95238 0.0197 0.0
O111 O 0.92806 0.94468 0.02723 0.0
Co112 Co 0.12416 0.55675 0.77591 0.0
O113 O 0.10424 0.55641 0.81039 0.0
O114 O 0.0334 0.56315 0.78168 0.0
C115 C 0.16565 0.53785 0.77361 0.0
O116 O 0.13247 0.55795 0.73803 0.0
Co117 Co 0.27642 0.5561 0.7636 0.0
O118 O 0.24175 0.55376 0.72953 0.0
C119 C 0.21785 0.57891 0.78037 0.0
C120 C 0.04646 0.56124 0.80508 0.0
C121 C 0.18122 0.55587 0.72257 0.0
O122 O 0.16051 0.57357 0.77985 0.0
O123 O 0.27371 0.57355 0.77553 0.0
O124 O 0.10097 0.53977 0.77251 0.0
O125 O 0.2025 0.54725 0.77933 0.0
Co126 Co 0.12617 0.68369 0.77276 0.0
O127 O 0.14078 0.68706 0.80687 0.0
O128 O 0.21659 0.67834 0.78243 0.0
C129 C 0.08175 0.70175 0.76292 0.0
O130 O 0.12333 0.67937 0.7357 0.0
Co131 Co 0.97512 0.68218 0.75833 0.0
O132 O 0.01371 0.68147 0.72461 0.0
C133 C 0.03653 0.66122 0.78223 0.0
C134 C 0.19949 0.68203 0.80459 0.0
C135 C 0.07556 0.67948 0.71928 0.0
O136 O 0.09208 0.66717 0.78185 0.0
O137 O 0.9807 0.66556 0.77416 0.0
O138 O 0.1469 0.70034 0.76383 0.0
O139 O 0.04609 0.69272 0.77136 0.0
Co140 Co 0.08106 0.68416 0.48275 0.0
O141 O 0.06182 0.68777 0.44914 0.0
O142 O 0.98668 0.68016 0.47533 0.0
C143 C 0.1355 0.70162 0.49044 0.0
O144 O 0.08937 0.68003 0.51978 0.0
Co145 Co 0.23279 0.68049 0.49317 0.0
O146 O 0.20061 0.68243 0.5277 0.0
C147 C 0.15886 0.66074 0.46959 0.0
C148 C 0.00133 0.68379 0.45288 0.0
C149 C 0.13977 0.68096 0.53499 0.0
O150 O 0.1055 0.66711 0.47313 0.0
O151 O 0.21805 0.66467 0.4749 0.0
O152 O 0.07 0.70112 0.49172 0.0
O153 O 0.16492 0.69199 0.48152 0.0
Co154 Co 0.16922 0.54978 0.48456 0.0
O155 O 0.1859 0.54684 0.45042 0.0
O156 O 0.26199 0.55443 0.47629 0.0
C157 C 0.11839 0.53196 0.49242 0.0
O158 O 0.16384 0.55354 0.52181 0.0
Co159 Co 0.01733 0.55241 0.49697 0.0
O160 O 0.05304 0.55171 0.53125 0.0
C161 C 0.08512 0.57254 0.47225 0.0
C162 C 0.2455 0.55137 0.45368 0.0
C163 C 0.11465 0.55317 0.53766 0.0
O164 O 0.14037 0.56674 0.47598 0.0
O165 O 0.02718 0.5681 0.47776 0.0
O166 O 0.18394 0.53273 0.49259 0.0
O167 O 0.08683 0.54152 0.48431 0.0
Co168 Co 0.9026 0.42928 0.23253 0.0
O169 O 0.92825 0.42991 0.19865 0.0
O170 O 0.99593 0.42383 0.22908 0.0
C171 C 0.85462 0.44769 0.23402 0.0
O172 O 0.88829 0.42798 0.27006 0.0
Co173 Co 0.74888 0.42813 0.24105 0.0
O174 O 0.7763 0.4306 0.27606 0.0
C175 C 0.81718 0.40683 0.22118 0.0
C176 C 0.98609 0.42557 0.20541 0.0
C177 C 0.8364 0.42946 0.28435 0.0
O178 O 0.87237 0.41213 0.2272 0.0
O179 O 0.75939 0.41197 0.22345 0.0
O180 O 0.91953 0.44648 0.23661 0.0
O181 O 0.82218 0.43793 0.22737 0.0
Co182 Co 0.81891 0.29637 0.23654 0.0
O183 O 0.79525 0.29172 0.20384 0.0
O184 O 0.72453 0.30058 0.2302 0.0
C185 C 0.87298 0.27908 0.24588 0.0
O186 O 0.83104 0.3017 0.27266 0.0
Co187 Co 0.97206 0.29991 0.24468 0.0
O188 O 0.94323 0.30033 0.27982 0.0
C189 C 0.89766 0.31901 0.21916 0.0
C190 C 0.73595 0.29616 0.20811 0.0
C191 C 0.8827 0.30192 0.28736 0.0
O192 O 0.84399 0.31299 0.22426 0.0
O193 O 0.95692 0.31504 0.22422 0.0
O194 O 0.80764 0.27975 0.24798 0.0
O195 O 0.90196 0.28833 0.23533 0.0
Co196 Co 0.89895 0.29997 0.52433 0.0
O197 O 0.92355 0.29838 0.55809 0.0
O198 O 0.99085 0.30606 0.52919 0.0
C199 C 0.85453 0.28131 0.52063 0.0
O200 O 0.88482 0.3025 0.48702 0.0
Co201 Co 0.74509 0.30028 0.51561 0.0
O202 O 0.77388 0.29892 0.48058 0.0
C203 C 0.80876 0.32218 0.53494 0.0
C204 C 0.98016 0.30355 0.55254 0.0
C205 C 0.83335 0.30106 0.47251 0.0
O206 O 0.86518 0.31674 0.53154 0.0
O207 O 0.75171 0.31702 0.53102 0.0
O208 O 0.91917 0.28299 0.51805 0.0
O209 O 0.82042 0.29069 0.52828 0.0
Co210 Co 0.82084 0.43546 0.52247 0.0
O211 O 0.80052 0.43603 0.55681 0.0
O212 O 0.72585 0.43134 0.52765 0.0
C213 C 0.8773 0.45312 0.52102 0.0
O214 O 0.82977 0.43431 0.48469 0.0
Co215 Co 0.97221 0.43203 0.51139 0.0
O216 O 0.94171 0.43579 0.47723 0.0
C217 C 0.89515 0.4111 0.52856 0.0
C218 C 0.7401 0.43255 0.55116 0.0
C219 C 0.88057 0.43536 0.46971 0.0
O220 O 0.8428 0.41781 0.52604 0.0
O221 O 0.95518 0.4152 0.52546 0.0
O222 O 0.8118 0.45292 0.51957 0.0
O223 O 0.90578 0.44281 0.52658 0.0
Co224 Co 0.60814 0.05431 0.77702 0.0
O225 O 0.5916 0.05247 0.81153 0.0
O226 O 0.51692 0.05994 0.78505 0.0
C227 C 0.65333 0.03584 0.77136 0.0
O228 O 0.6126 0.05703 0.73928 0.0
Co229 Co 0.75927 0.05505 0.76278 0.0
O230 O 0.72183 0.05391 0.72892 0.0
C231 C 0.6978 0.07698 0.78296 0.0
C232 C 0.53269 0.05721 0.8079 0.0
C233 C 0.6604 0.05593 0.72301 0.0
O234 O 0.64174 0.07119 0.7833 0.0
O235 O 0.75364 0.07223 0.77594 0.0
O236 O 0.5882 0.03732 0.77112 0.0
O237 O 0.68848 0.04527 0.77808 0.0
Co238 Co 0.63512 0.18258 0.7758 0.0
O239 O 0.65457 0.18412 0.81019 0.0
O240 O 0.72453 0.17593 0.78274 0.0
C241 C 0.59605 0.20149 0.77027 0.0
O242 O 0.62739 0.17996 0.73818 0.0
Co243 Co 0.48299 0.18359 0.76252 0.0
O244 O 0.52014 0.18516 0.72864 0.0
C245 C 0.53778 0.16101 0.78248 0.0
C246 C 0.71141 0.17873 0.80576 0.0
C247 C 0.58002 0.1822 0.72225 0.0
O248 O 0.59582 0.16614 0.78233 0.0
O249 O 0.48336 0.16639 0.7758 0.0
O250 O 0.66063 0.19937 0.76985 0.0
O251 O 0.55822 0.19245 0.77726 0.0
Co252 Co 0.59301 0.18263 0.4858 0.0
O253 O 0.57752 0.18759 0.45255 0.0
O254 O 0.49865 0.17974 0.47695 0.0
C255 C 0.65129 0.19911 0.49719 0.0
O256 O 0.59567 0.17716 0.52214 0.0
Co257 Co 0.74097 0.17681 0.49773 0.0
O258 O 0.70638 0.17678 0.53216 0.0
C259 C 0.66441 0.15897 0.46985 0.0
C260 C 0.51592 0.18391 0.45515 0.0
C261 C 0.64408 0.1762 0.53815 0.0
O262 O 0.61313 0.16577 0.47388 0.0
O263 O 0.72419 0.16198 0.4765 0.0
O264 O 0.58562 0.19917 0.49732 0.0
O265 O 0.67955 0.18969 0.48688 0.0
Co266 Co 0.64056 0.05123 0.4864 0.0
O267 O 0.66086 0.04782 0.45269 0.0
O268 O 0.73307 0.05634 0.47885 0.0
C269 C 0.59279 0.03326 0.4949 0.0
O270 O 0.63158 0.05556 0.52332 0.0
Co271 Co 0.48851 0.05339 0.49717 0.0
O272 O 0.52081 0.05307 0.53192 0.0
C273 C 0.5541 0.07318 0.47098 0.0
C274 C 0.71919 0.05279 0.4563 0.0
C275 C 0.58165 0.05495 0.53882 0.0
O276 O 0.60963 0.06778 0.4761 0.0
O277 O 0.49634 0.06868 0.47647 0.0
O278 O 0.65802 0.03456 0.49589 0.0
O279 O 0.55955 0.04241 0.48567 0.0
Co280 Co 0.41219 0.93031 0.23689 0.0
O281 O 0.42955 0.93455 0.20338 0.0
O282 O 0.50629 0.92672 0.22864 0.0
C283 C 0.35663 0.94736 0.24678 0.0
O284 O 0.40706 0.92542 0.27355 0.0
Co285 Co 0.2623 0.92568 0.2482 0.0
O286 O 0.29575 0.92557 0.28279 0.0
C287 C 0.33595 0.90721 0.2209 0.0
C288 C 0.49019 0.93046 0.20641 0.0
C289 C 0.35766 0.92476 0.28924 0.0
O290 O 0.38891 0.91344 0.22585 0.0
O291 O 0.27654 0.91083 0.22673 0.0
O292 O 0.42226 0.94703 0.2473 0.0
O293 O 0.32722 0.93791 0.23706 0.0
Co294 Co 0.34003 0.79961 0.23849 0.0
O295 O 0.32049 0.79417 0.20594 0.0
O296 O 0.24789 0.80424 0.22961 0.0
C297 C 0.38821 0.78235 0.25139 0.0
O298 O 0.34792 0.80595 0.27409 0.0
Co299 Co 0.49226 0.80255 0.24887 0.0
O300 O 0.45909 0.80456 0.28324 0.0
C301 C 0.42581 0.8211 0.21945 0.0
C302 C 0.26184 0.79922 0.20824 0.0
C303 C 0.39787 0.80654 0.28952 0.0
O304 O 0.37062 0.81559 0.22463 0.0
O305 O 0.48366 0.81706 0.22613 0.0
O306 O 0.32286 0.78354 0.25176 0.0
O307 O 0.42124 0.79096 0.24016 0.0
Co308 Co 0.42021 0.7991 0.52386 0.0
O309 O 0.44856 0.79448 0.55606 0.0
O310 O 0.51582 0.80302 0.52806 0.0
C311 C 0.36371 0.78187 0.51615 0.0
O312 O 0.40334 0.80435 0.48793 0.0
Co313 Co 0.26748 0.80313 0.51824 0.0
O314 O 0.29086 0.8024 0.48259 0.0
C315 C 0.34676 0.82218 0.54184 0.0
C316 C 0.50754 0.79866 0.55038 0.0
C317 C 0.35021 0.80405 0.47397 0.0
O318 O 0.3988 0.81581 0.53637 0.0
O319 O 0.28646 0.81853 0.53752 0.0
O320 O 0.42853 0.78249 0.5125 0.0
O321 O 0.33656 0.79121 0.52707 0.0
Co322 Co 0.35533 0.93144 0.52587 0.0
O323 O 0.33096 0.93386 0.55957 0.0
O324 O 0.26249 0.92599 0.53119 0.0
C325 C 0.40213 0.94978 0.52021 0.0
O326 O 0.36838 0.92808 0.48874 0.0
Co327 Co 0.50832 0.93013 0.51658 0.0
O328 O 0.47914 0.93142 0.48154 0.0
C329 C 0.44256 0.90937 0.53973 0.0
C330 C 0.27333 0.92898 0.55428 0.0
C331 C 0.41921 0.92937 0.47385 0.0
O332 O 0.38676 0.91473 0.53478 0.0
O333 O 0.50017 0.91423 0.5353 0.0
O334 O 0.33728 0.94829 0.51802 0.0
O335 O 0.43541 0.94049 0.52879 0.0
Co336 Co 0.59474 0.54741 0.26781 0.0
O337 O 0.58197 0.54532 0.30246 0.0
O338 O 0.50363 0.5526 0.27719 0.0
C339 C 0.64196 0.52921 0.2608 0.0
O340 O 0.59609 0.55031 0.23016 0.0
Co341 Co 0.74571 0.54897 0.25293 0.0
O342 O 0.70619 0.54862 0.21929 0.0
C343 C 0.68193 0.57043 0.27432 0.0
C344 C 0.5223 0.54989 0.29976 0.0
C345 C 0.64394 0.55002 0.21377 0.0
O346 O 0.62643 0.56444 0.27398 0.0
O347 O 0.73858 0.56576 0.26788 0.0
O348 O 0.57664 0.53032 0.2617 0.0
O349 O 0.67606 0.53874 0.26758 0.0
Co350 Co 0.65517 0.68368 0.27148 0.0
O351 O 0.67803 0.68138 0.30531 0.0
O352 O 0.75064 0.6793 0.27427 0.0
C353 C 0.60066 0.70135 0.27677 0.0
O354 O 0.64253 0.68571 0.23397 0.0
Co355 Co 0.50202 0.68145 0.262 0.0
O356 O 0.52959 0.68733 0.22874 0.0
C357 C 0.5795 0.65934 0.27044 0.0
C358 C 0.73841 0.67875 0.29804 0.0
C359 C 0.58984 0.68761 0.22025 0.0
O360 O 0.6322 0.66605 0.26907 0.0
O361 O 0.51951 0.66373 0.27045 0.0
O362 O 0.66589 0.70106 0.2745 0.0
O363 O 0.57138 0.6908 0.27911 0.0
Co364 Co 0.56822 0.68808 0.98255 0.0
O365 O 0.55044 0.68624 0.94815 0.0
O366 O 0.47411 0.68328 0.97763 0.0
C367 C 0.62221 0.70591 0.98005 0.0
O368 O 0.57531 0.6895 0.02037 0.0
Co369 Co 0.72116 0.68636 0.99513 0.0
O370 O 0.68693 0.6921 0.02767 0.0
C371 C 0.64711 0.66405 0.98444 0.0
C372 C 0.48965 0.68311 0.9541 0.0
C373 C 0.62559 0.69178 0.03505 0.0
O374 O 0.59326 0.6705 0.98444 0.0
O375 O 0.70641 0.66867 0.98611 0.0
O376 O 0.55662 0.70558 0.98035 0.0
O377 O 0.65197 0.69545 0.97754 0.0
Co378 Co 0.65478 0.55179 0.97559 0.0
O379 O 0.67479 0.55237 0.94115 0.0
O380 O 0.74656 0.55786 0.97062 0.0
C381 C 0.60919 0.53318 0.97548 0.0
O382 O 0.64627 0.55192 0.01359 0.0
Co383 Co 0.50202 0.5514 0.98831 0.0
O384 O 0.53761 0.54691 0.02138 0.0
C385 C 0.56438 0.57448 0.97406 0.0
C386 C 0.73318 0.55679 0.94702 0.0
C387 C 0.59799 0.54892 0.02863 0.0
O388 O 0.62112 0.56889 0.97372 0.0
O389 O 0.5081 0.56912 0.97841 0.0
O390 O 0.67436 0.53451 0.97673 0.0
O391 O 0.57486 0.54303 0.97116 0.0
Co392 Co 0.3902 0.43577 0.73598 0.0
O393 O 0.4005 0.43842 0.7014 0.0
O394 O 0.4796 0.43034 0.72534 0.0
C395 C 0.34669 0.45405 0.74487 0.0
O396 O 0.39216 0.43224 0.77334 0.0
Co397 Co 0.24149 0.43447 0.75287 0.0
O398 O 0.28365 0.43406 0.78602 0.0
C399 C 0.30094 0.41293 0.73031 0.0
C400 C 0.4598 0.43358 0.7032 0.0
C401 C 0.34628 0.43237 0.79045 0.0
O402 O 0.35607 0.41898 0.72911 0.0
O403 O 0.24577 0.41752 0.73846 0.0
O404 O 0.41161 0.45256 0.74308 0.0
O405 O 0.30997 0.44487 0.73777 0.0
Co406 Co 0.34673 0.30095 0.73062 0.0
O407 O 0.33425 0.30255 0.69587 0.0
O408 O 0.25386 0.30585 0.72366 0.0
C409 C 0.3994 0.28294 0.72957 0.0
O410 O 0.34756 0.29978 0.76852 0.0
Co411 Co 0.49633 0.30272 0.74646 0.0
O412 O 0.45738 0.29662 0.778 0.0
C413 C 0.42435 0.3251 0.73509 0.0
C414 C 0.27263 0.30571 0.70045 0.0
C415 C 0.39512 0.29722 0.78415 0.0
O416 O 0.37158 0.31849 0.73276 0.0
O417 O 0.4834 0.32065 0.73864 0.0
O418 O 0.33398 0.28359 0.72868 0.0
O419 O 0.43113 0.29328 0.7274 0.0
Co420 Co 0.42671 0.30104 0.02032 0.0
O421 O 0.45294 0.29996 0.05406 0.0
O422 O 0.52258 0.30491 0.02332 0.0
C423 C 0.36944 0.28356 0.01896 0.0
O424 O 0.41156 0.30255 0.9829 0.0
Co425 Co 0.27383 0.30491 0.01294 0.0
O426 O 0.29826 0.30218 0.97771 0.0
C427 C 0.35464 0.32493 0.03189 0.0
C428 C 0.51254 0.30326 0.04699 0.0
C429 C 0.35828 0.30215 0.96901 0.0
O430 O 0.4061 0.31862 0.02555 0.0
O431 O 0.29418 0.32083 0.03033 0.0
O432 O 0.43466 0.28368 0.01625 0.0
O433 O 0.34223 0.2938 0.02584 0.0
Co434 Co 0.35579 0.43518 0.02761 0.0
O435 O 0.33847 0.43784 0.06175 0.0
O436 O 0.2641 0.4299 0.03567 0.0
C437 C 0.40334 0.4532 0.02005 0.0
O438 O 0.36186 0.43177 0.99025 0.0
Co439 Co 0.50795 0.43337 0.01486 0.0
O440 O 0.47115 0.43565 0.98101 0.0
C441 C 0.44307 0.41263 0.03844 0.0
C442 C 0.27962 0.43303 0.05834 0.0
C443 C 0.41018 0.4336 0.97447 0.0
O444 O 0.38735 0.41837 0.03565 0.0
O445 O 0.50038 0.41722 0.03256 0.0
O446 O 0.33791 0.45211 0.02012 0.0
O447 O 0.43686 0.44381 0.028 0.0
H448 H 0.2144 0.05474 0.06523 0.0
H449 H 0.02834 0.04439 0.19629 0.0
H450 H 0.00824 0.04218 0.07246 0.0
H451 H 0.23942 0.05372 0.18834 0.0
H452 H 0.01791 0.0444 0.15085 0.0
H453 H 0.224 0.05473 0.11054 0.0
C454 C 0.17145 0.05188 0.07626 0.0
C455 C 0.11041 0.04853 0.0649 0.0
C456 C 0.06644 0.04646 0.15915 0.0
C457 C 0.1206 0.04864 0.1168 0.0
C458 C 0.0722 0.04653 0.18507 0.0
C459 C 0.13487 0.04895 0.19621 0.0
C460 C 0.12364 0.04891 0.14435 0.0
C461 C 0.19017 0.05163 0.18068 0.0
C462 C 0.17674 0.05194 0.10215 0.0
C463 C 0.05626 0.04495 0.08027 0.0
N464 N 0.18327 0.05152 0.15567 0.0
N465 N 0.06254 0.04516 0.10533 0.0
H466 H 0.25531 0.17988 0.06648 0.0
H467 H 0.01409 0.18831 0.18372 0.0
H468 H 0.04059 0.1865 0.06065 0.0
H469 H 0.22534 0.17868 0.18967 0.0
H470 H 0.02396 0.18818 0.13892 0.0
H471 H 0.24533 0.17957 0.11133 0.0
C472 C 0.20579 0.18126 0.07461 0.0
C473 C 0.14863 0.18332 0.05963 0.0
C474 C 0.06821 0.18608 0.14994 0.0
C475 C 0.13718 0.18299 0.11142 0.0
C476 C 0.06283 0.18616 0.17567 0.0
C477 C 0.11902 0.18341 0.1907 0.0
C478 C 0.1303 0.18325 0.13887 0.0
C479 C 0.18068 0.18084 0.17893 0.0
C480 C 0.20029 0.18106 0.10033 0.0
C481 C 0.08596 0.18488 0.07138 0.0
N482 N 0.18461 0.1808 0.1537 0.0
N483 N 0.082 0.18476 0.09661 0.0
H484 H 0.99412 0.94348 0.93584 0.0
H485 H 0.76415 0.92255 0.82219 0.0
H486 H 0.79975 0.92609 0.94533 0.0
H487 H 0.96527 0.93728 0.81382 0.0
H488 H 0.77734 0.92315 0.86705 0.0
H489 H 0.98366 0.94119 0.89134 0.0
C490 C 0.94892 0.93918 0.92861 0.0
C491 C 0.89776 0.93491 0.94456 0.0
C492 C 0.81885 0.92617 0.85547 0.0
C493 C 0.8858 0.93224 0.89305 0.0
C494 C 0.81152 0.92581 0.8298 0.0
C495 C 0.8636 0.92997 0.81417 0.0
C496 C 0.87856 0.9308 0.86577 0.0
C497 C 0.92393 0.93397 0.82512 0.0
C498 C 0.94323 0.93785 0.90306 0.0
C499 C 0.84036 0.92954 0.93384 0.0
N500 N 0.92948 0.9344 0.85028 0.0
N501 N 0.83599 0.92834 0.90873 0.0
H502 H 0.9794 0.80275 0.94364 0.0
H503 H 0.78278 0.79625 0.81446 0.0
H504 H 0.77723 0.78823 0.9367 0.0
H505 H 0.99699 0.80354 0.81962 0.0
H506 H 0.77899 0.79398 0.85964 0.0
H507 H 0.98787 0.80319 0.89824 0.0
C508 C 0.93729 0.79949 0.93264 0.0
C509 C 0.87727 0.79561 0.94404 0.0
C510 C 0.82683 0.79606 0.85082 0.0
C511 C 0.88601 0.79628 0.89224 0.0
C512 C 0.82885 0.79744 0.82505 0.0
C513 C 0.89019 0.80009 0.81316 0.0
C514 C 0.88644 0.79745 0.86482 0.0
C515 C 0.94849 0.80144 0.8279 0.0
C516 C 0.94191 0.79981 0.90674 0.0
C517 C 0.82418 0.7915 0.9288 0.0
N518 N 0.94513 0.80015 0.85289 0.0
N519 N 0.82955 0.79206 0.90377 0.0
H520 H 0.06015 0.55778 0.69702 0.0
H521 H 0.23691 0.55387 0.56284 0.0
H522 H 0.27578 0.55456 0.68578 0.0
H523 H 0.02083 0.55534 0.57448 0.0
H524 H 0.25293 0.55513 0.60791 0.0
H525 H 0.04489 0.55782 0.65189 0.0
C526 C 0.10418 0.5571 0.68516 0.0
C527 C 0.1692 0.5561 0.69536 0.0
C528 C 0.20205 0.55519 0.6005 0.0
C529 C 0.15231 0.55617 0.64369 0.0
C530 C 0.19297 0.55451 0.57476 0.0
C531 C 0.12753 0.55443 0.56471 0.0
C532 C 0.14529 0.55584 0.61626 0.0
C533 C 0.0724 0.55528 0.58119 0.0
C534 C 0.09554 0.55712 0.65938 0.0
C535 C 0.22448 0.55526 0.67894 0.0
N536 N 0.08255 0.55591 0.60602 0.0
N537 N 0.21476 0.55531 0.65405 0.0
H538 H 0.99073 0.67016 0.68459 0.0
H539 H 0.22998 0.68732 0.57082 0.0
H540 H 0.19238 0.68461 0.69314 0.0
H541 H 0.02745 0.67323 0.56165 0.0
H542 H 0.21811 0.68559 0.61536 0.0
H543 H 0.00596 0.66992 0.63983 0.0
C544 C 0.03866 0.67319 0.67703 0.0
C545 C 0.09025 0.67754 0.69266 0.0
C546 C 0.17623 0.68283 0.60371 0.0
C547 C 0.10762 0.67739 0.64116 0.0
C548 C 0.18278 0.68381 0.57812 0.0
C549 C 0.12965 0.68033 0.56225 0.0
C550 C 0.11602 0.67834 0.61383 0.0
C551 C 0.0697 0.67603 0.57308 0.0
C552 C 0.04713 0.67307 0.65142 0.0
C553 C 0.15139 0.68118 0.68182 0.0
N554 N 0.06457 0.67513 0.59822 0.0
N555 N 0.15813 0.68114 0.65668 0.0
H556 H 0.76294 0.43142 0.44307 0.0
H557 H 0.95392 0.43209 0.31156 0.0
H558 H 0.97544 0.43942 0.43388 0.0
H559 H 0.73755 0.42835 0.31963 0.0
H560 H 0.96336 0.43408 0.35669 0.0
H561 H 0.75225 0.42998 0.39785 0.0
C562 C 0.80714 0.43295 0.43163 0.0
C563 C 0.8702 0.43544 0.44243 0.0
C564 C 0.91383 0.43282 0.34853 0.0
C565 C 0.8586 0.4337 0.39072 0.0
C566 C 0.90853 0.43161 0.32276 0.0
C567 C 0.84493 0.43007 0.31168 0.0
C568 C 0.85517 0.4324 0.36333 0.0
C569 C 0.78774 0.42959 0.32723 0.0
C570 C 0.80113 0.43209 0.40581 0.0
C571 C 0.92579 0.43736 0.42656 0.0
N572 N 0.79424 0.43074 0.35216 0.0
N573 N 0.91873 0.43638 0.40163 0.0
H574 H 0.98027 0.30684 0.32168 0.0
H575 H 0.73343 0.29983 0.43769 0.0
H576 H 0.76522 0.30073 0.31507 0.0
H577 H 0.94949 0.30469 0.44467 0.0
H578 H 0.74378 0.30133 0.39305 0.0
H579 H 0.96873 0.30749 0.36648 0.0
C580 C 0.93033 0.3057 0.32961 0.0
C581 C 0.87358 0.3036 0.31445 0.0
C582 C 0.789 0.30209 0.40427 0.0
C583 C 0.86034 0.30432 0.36613 0.0
C584 C 0.78334 0.30121 0.42991 0.0
C585 C 0.84089 0.30208 0.44518 0.0
C586 C 0.8527 0.30383 0.39351 0.0
C587 C 0.90379 0.30394 0.43373 0.0
C588 C 0.92395 0.30607 0.35529 0.0
C589 C 0.81034 0.30234 0.32594 0.0
N590 N 0.90802 0.30471 0.40857 0.0
N591 N 0.80552 0.30263 0.35112 0.0
H592 H 0.75217 0.05989 0.68626 0.0
H593 H 0.48652 0.0545 0.57558 0.0
H594 H 0.53787 0.05487 0.69794 0.0
H595 H 0.70189 0.05828 0.56441 0.0
H596 H 0.50364 0.05575 0.62004 0.0
H597 H 0.73324 0.06056 0.6419 0.0
C598 C 0.70083 0.05892 0.67954 0.0
C599 C 0.64649 0.05717 0.69604 0.0
C600 C 0.5472 0.05635 0.60793 0.0
C601 C 0.62466 0.05796 0.64468 0.0
C602 C 0.53766 0.05564 0.58239 0.0
C603 C 0.59302 0.05624 0.56597 0.0
C604 C 0.61264 0.05769 0.61744 0.0
C605 C 0.65771 0.05775 0.57621 0.0
C606 C 0.69021 0.05933 0.65406 0.0
C607 C 0.58126 0.0562 0.68601 0.0
N608 N 0.66571 0.05839 0.60128 0.0
N609 N 0.57223 0.05652 0.66094 0.0
H610 H 0.69305 0.17327 0.69779 0.0
H611 H 0.5258 0.18161 0.56296 0.0
H612 H 0.49373 0.1881 0.68471 0.0
H613 H 0.72937 0.16858 0.57473 0.0
H614 H 0.51011 0.18245 0.60799 0.0
H615 H 0.70615 0.17047 0.65286 0.0
C616 C 0.65228 0.17598 0.68557 0.0
C617 C 0.59227 0.18091 0.69519 0.0
C618 C 0.55808 0.17933 0.60068 0.0
C619 C 0.60647 0.17763 0.64386 0.0
C620 C 0.56677 0.17876 0.57496 0.0
C621 C 0.6291 0.17513 0.565 0.0
C622 C 0.61205 0.17623 0.61653 0.0
C623 C 0.68062 0.17158 0.58153 0.0
C624 C 0.65957 0.17433 0.65994 0.0
C625 C 0.54096 0.18421 0.67835 0.0
N626 N 0.67111 0.1723 0.6064 0.0
N627 N 0.54924 0.1825 0.65365 0.0
H628 H 0.51247 0.93422 0.43782 0.0
H629 H 0.26995 0.91699 0.32485 0.0
H630 H 0.30621 0.92208 0.44732 0.0
H631 H 0.47429 0.93007 0.31538 0.0
H632 H 0.28483 0.91761 0.36957 0.0
H633 H 0.50059 0.93197 0.39329 0.0
C634 C 0.46446 0.93106 0.43061 0.0
C635 C 0.41019 0.9283 0.44656 0.0
C636 C 0.32663 0.92028 0.35778 0.0
C637 C 0.39658 0.92568 0.39506 0.0
C638 C 0.31833 0.91991 0.33216 0.0
C639 C 0.37088 0.92358 0.31621 0.0
C640 C 0.38792 0.92439 0.36778 0.0
C641 C 0.43248 0.92714 0.32689 0.0
C642 C 0.4579 0.92977 0.40504 0.0
C643 C 0.34938 0.92433 0.43585 0.0
N644 N 0.4391 0.92755 0.35202 0.0
N645 N 0.34427 0.92312 0.41077 0.0
H646 H 0.25039 0.80136 0.43947 0.0
H647 H 0.48823 0.81511 0.32334 0.0
H648 H 0.46261 0.8102 0.44601 0.0
H649 H 0.28134 0.80296 0.31672 0.0
H650 H 0.47592 0.8156 0.3682 0.0
H651 H 0.25835 0.80372 0.39486 0.0
C652 C 0.29885 0.80386 0.43159 0.0
C653 C 0.35607 0.8056 0.44671 0.0
C654 C 0.43298 0.81292 0.35699 0.0
C655 C 0.36514 0.80833 0.39517 0.0
C656 C 0.43979 0.81266 0.33132 0.0
C657 C 0.38583 0.80885 0.3162 0.0
C658 C 0.37177 0.80931 0.36781 0.0
C659 C 0.3242 0.80595 0.32762 0.0
C660 C 0.30317 0.8052 0.406 0.0
C661 C 0.41724 0.80875 0.43518 0.0
N662 N 0.31906 0.80612 0.35279 0.0
N663 N 0.42015 0.81001 0.41008 0.0
H664 H 0.70319 0.55867 0.05594 0.0
H665 H 0.53249 0.54213 0.18723 0.0
H666 H 0.51706 0.5384 0.06355 0.0
H667 H 0.72399 0.56059 0.17925 0.0
H668 H 0.52194 0.54173 0.14177 0.0
H669 H 0.71079 0.5598 0.10127 0.0
C670 C 0.66443 0.55435 0.06708 0.0
C671 C 0.60929 0.54851 0.05584 0.0
C672 C 0.56602 0.54594 0.15004 0.0
C673 C 0.6169 0.54992 0.1077 0.0
C674 C 0.57157 0.54628 0.17596 0.0
C675 C 0.62933 0.55131 0.18699 0.0
C676 C 0.61846 0.55073 0.13521 0.0
C677 C 0.67892 0.55647 0.1715 0.0
C678 C 0.66839 0.55507 0.09297 0.0
C679 C 0.56023 0.54312 0.07131 0.0
N680 N 0.67253 0.556 0.1465 0.0
N681 N 0.56505 0.544 0.09634 0.0
H682 H 0.70615 0.69061 0.19219 0.0
H683 H 0.5095 0.68793 0.06266 0.0
H684 H 0.48833 0.68921 0.18614 0.0
H685 H 0.71861 0.69887 0.06953 0.0
H686 H 0.50052 0.68802 0.10802 0.0
H687 H 0.71273 0.69305 0.147 0.0
C688 C 0.65985 0.69086 0.18148 0.0
C689 C 0.59674 0.68966 0.19312 0.0
C690 C 0.54818 0.69049 0.0995 0.0
C691 C 0.60379 0.69237 0.14147 0.0
C692 C 0.55318 0.69048 0.0736 0.0
C693 C 0.61499 0.69325 0.06215 0.0
C694 C 0.6055 0.6932 0.11401 0.0
C695 C 0.67001 0.69649 0.07741 0.0
C696 C 0.66355 0.69228 0.15569 0.0
C697 C 0.53833 0.69008 0.17816 0.0
N698 N 0.66415 0.69625 0.10245 0.0
N699 N 0.54333 0.69131 0.15322 0.0
H700 H 0.45997 0.44013 0.81547 0.0
H701 H 0.30426 0.42292 0.94882 0.0
H702 H 0.27117 0.42103 0.82549 0.0
H703 H 0.48813 0.44355 0.93827 0.0
H704 H 0.29274 0.4214 0.90356 0.0
H705 H 0.47569 0.44011 0.86066 0.0
C706 C 0.42266 0.43573 0.82714 0.0
C707 C 0.36409 0.43066 0.81681 0.0
C708 C 0.33558 0.42626 0.91124 0.0
C709 C 0.38077 0.43074 0.86831 0.0
C710 C 0.34181 0.42719 0.93705 0.0
C711 C 0.39745 0.43327 0.94739 0.0
C712 C 0.38518 0.43149 0.89576 0.0
C713 C 0.44481 0.43861 0.9312 0.0
C714 C 0.43112 0.43581 0.85292 0.0
C715 C 0.31676 0.42517 0.83277 0.0
N716 N 0.43767 0.43758 0.9063 0.0
N717 N 0.3259 0.42543 0.85767 0.0
H718 H 0.28427 0.30538 0.81054 0.0
H719 H 0.46883 0.29519 0.94118 0.0
H720 H 0.47429 0.28643 0.81908 0.0
H721 H 0.26165 0.30721 0.93444 0.0
H722 H 0.47341 0.29276 0.89603 0.0
H723 H 0.27413 0.30628 0.85587 0.0
C724 C 0.32315 0.30122 0.82189 0.0
C725 C 0.38052 0.29596 0.81097 0.0
C726 C 0.42695 0.29592 0.90449 0.0
C727 C 0.37013 0.29718 0.86269 0.0
C728 C 0.42458 0.2974 0.93024 0.0
C729 C 0.36483 0.30139 0.94167 0.0
C730 C 0.36939 0.29855 0.89007 0.0
C731 C 0.30877 0.30404 0.92651 0.0
C732 C 0.3177 0.30183 0.84775 0.0
C733 C 0.4296 0.29076 0.82664 0.0
N734 N 0.31246 0.3026 0.90156 0.0
N735 N 0.42364 0.29162 0.85162 0.0
H736 H 0.40944 0.96725 0.26942 0.0
H737 H 0.07372 0.00723 0.25732 0.0
H738 H 0.22281 0.95314 0.23939 0.0
H739 H 0.26814 0.02188 0.27829 0.0
H740 H 0.12472 0.98706 0.25317 0.0
H741 H 0.35487 0.98683 0.27633 0.0
C742 C 0.35666 0.96826 0.26442 0.0
C743 C 0.32065 0.95861 0.25356 0.0
C744 C 0.15626 -0.00532 0.25864 0.0
C745 C 0.25799 0.98108 0.26127 0.0
C746 C 0.1273 0.00621 0.26096 0.0
C747 C 0.16693 0.01622 0.26818 0.0
C748 C 0.22532 -0.00684 0.26363 0.0
C749 C 0.23589 0.01439 0.27266 0.0
C750 C 0.32563 0.97947 0.26831 0.0
C751 C 0.25234 0.96038 0.24771 0.0
N752 N 0.26293 0.00305 0.27036 0.0
N753 N 0.2232 0.97147 0.25149 0.0
H754 H 0.81985 0.25802 0.26427 0.0
H755 H 0.1715 0.22245 0.25787 0.0
H756 H 0.0085 0.27455 0.242 0.0
H757 H 0.98203 0.20471 0.27477 0.0
H758 H 0.11284 0.24183 0.25456 0.0
H759 H 0.87895 0.23878 0.27134 0.0
C760 C 0.87388 0.25762 0.26104 0.0
C761 C 0.90943 0.26784 0.25232 0.0
C762 C 0.08388 0.23373 0.25898 0.0
C763 C 0.97706 0.24587 0.26027 0.0
C764 C 0.11732 0.22263 0.26084 0.0
C765 C 0.08141 0.21195 0.26657 0.0
C766 C 0.01384 0.2342 0.26282 0.0
C767 C 0.01144 0.21274 0.27027 0.0
C768 C 0.90746 0.24662 0.26501 0.0
C769 C 0.97922 0.26685 0.24856 0.0
N770 N 0.97975 0.22372 0.26832 0.0
N771 N 0.01076 0.25602 0.25245 0.0
H772 H 0.27431 0.20899 0.98608 0.0
H773 H 0.2315 0.27975 0.02012 0.0
H774 H 0.0797 0.22585 0.99809 0.0
H775 H 0.42254 0.26136 0.00962 0.0
H776 H 0.17319 0.26021 0.0131 0.0
H777 H 0.32881 0.22834 0.99583 0.0
C778 C 0.24313 0.21679 0.99078 0.0
C779 C 0.17261 0.21588 0.99115 0.0
C780 C 0.22789 0.26051 0.01243 0.0
C781 C 0.23427 0.23806 1.00229 0.0
C782 C 0.26098 0.27163 0.01642 0.0
C783 C 0.33172 0.27215 0.01535 0.0
C784 C 0.2662 0.24997 0.00739 0.0
C785 C 0.36784 0.2614 0.0105 0.0
C786 C 0.27414 0.22783 0.99638 0.0
C787 C 0.1344 0.22622 0.99752 0.0
N788 N 0.3347 0.25079 0.00668 0.0
N789 N 0.16576 0.23693 1.00276 0.0
H790 H 0.16754 0.0121 0.98576 0.0
H791 H 0.82633 0.975 0.00845 0.0
H792 H 0.97135 0.02938 0.98797 0.0
H793 H 0.02645 0.95975 0.01657 0.0
H794 H 0.87665 -0.0054 0.99728 0.0
H795 H 0.11447 -0.00752 0.99298 0.0
C796 C 0.11304 0.01176 0.98773 0.0
C797 C 0.07365 0.02238 0.98647 0.0
C798 C 0.90949 0.98697 1.00149 0.0
C799 C 0.01253 -0.00012 0.99486 0.0
C800 C 0.88093 0.97579 0.00786 0.0
C801 C 0.92252 0.96579 0.01357 0.0
C802 C 0.98005 0.98811 1.00075 0.0
C803 C 0.9927 0.96726 0.01244 0.0
C804 C 0.0828 0.00053 0.99188 0.0
C805 C 0.00336 0.02138 0.98891 0.0
N806 N 0.01931 0.97824 0.00616 0.0
N807 N 0.97486 0.01027 0.99313 0.0
H808 H 0.58767 0.01528 0.7568 0.0
H809 H 0.91751 0.97346 0.76342 0.0
H810 H 0.78595 0.02886 0.77581 0.0
H811 H 0.7235 0.96032 0.73823 0.0
H812 H 0.86811 -0.00653 0.77062 0.0
H813 H 0.63511 -0.00507 0.75159 0.0
C814 C 0.64138 0.01398 0.75978 0.0
C815 C 0.6831 0.02375 0.76678 0.0
C816 C 0.83617 0.98622 0.76358 0.0
C817 C 0.73752 0.00046 0.76097 0.0
C818 C 0.86426 0.97477 0.75952 0.0
C819 C 0.82453 0.96526 0.74999 0.0
C820 C 0.76778 0.9882 0.75808 0.0
C821 C 0.75585 0.96744 0.74549 0.0
C822 C 0.66833 0.00235 0.75684 0.0
C823 C 0.75214 0.02157 0.77037 0.0
N824 N 0.72961 0.97874 0.74946 0.0
N825 N 0.77724 0.01011 0.76748 0.0
H826 H 0.14899 0.72221 0.74842 0.0
H827 H 0.81109 0.76131 0.73618 0.0
H828 H 0.94788 0.7077 0.75861 0.0
H829 H 0.01011 0.7775 0.73405 0.0
H830 H 0.86183 0.74127 0.73911 0.0
H831 H 0.10027 0.74201 0.73796 0.0
C832 C 0.09446 0.72317 0.7483 0.0
C833 C 0.05219 0.71336 0.75469 0.0
C834 C 0.89467 0.74916 0.73797 0.0
C835 C 0.99645 0.73596 0.74272 0.0
C836 C 0.86576 0.76065 0.73634 0.0
C837 C 0.90662 0.7711 0.73518 0.0
C838 C 0.96517 0.74804 0.73865 0.0
C839 C 0.97698 0.76965 0.73505 0.0
C840 C 0.06682 0.73448 0.74234 0.0
C841 C 0.98216 0.71507 0.75404 0.0
N842 N 0.00424 0.75828 0.73699 0.0
N843 N 0.95645 0.7262 0.7483 0.0
H844 H 0.56791 0.72861 0.98263 0.0
H845 H 0.91332 0.75977 0.02497 0.0
H846 H 0.75732 0.70928 0.98913 0.0
H847 H 0.728 0.77992 0.01429 0.0
H848 H 0.85546 0.74113 0.01311 0.0
H849 H 0.62485 0.74745 0.99437 0.0
C850 C 0.62171 0.72835 0.98641 0.0
C851 C 0.65811 0.71738 0.98503 0.0
C852 C 0.82724 0.7496 0.01336 0.0
C853 C 0.72329 0.73888 0.99865 0.0
C854 C 0.86016 0.76026 0.02021 0.0
C855 C 0.82529 0.7714 0.02048 0.0
C856 C 0.75885 0.75006 0.00668 0.0
C857 C 0.75654 0.7715 0.01433 0.0
C858 C 0.65407 0.73911 0.99315 0.0
C859 C 0.72753 0.71755 0.98999 0.0
N860 N 0.72545 0.76094 0.00754 0.0
N861 N 0.75791 0.72816 0.99672 0.0
H862 H 0.09418 0.5174 0.76315 0.0
H863 H 0.41673 0.47377 0.76111 0.0
H864 H 0.29768 0.53008 0.77652 0.0
H865 H 0.21405 0.46151 0.74481 0.0
H866 H 0.37321 0.49412 0.76943 0.0
H867 H 0.13671 0.49674 0.75841 0.0
C868 C 0.14803 0.51583 0.76505 0.0
C869 C 0.19265 0.52547 0.77021 0.0
C870 C 0.33812 0.48699 0.76414 0.0
C871 C 0.2416 0.50176 0.76483 0.0
C872 C 0.36284 0.47535 0.75942 0.0
C873 C 0.31882 0.46598 0.75203 0.0
C874 C 0.26884 0.4893 0.76145 0.0
C875 C 0.24962 0.46851 0.75034 0.0
C876 C 0.17219 0.504 0.76238 0.0
C877 C 0.2617 0.5229 0.77251 0.0
N878 N 0.22672 0.47999 0.75488 0.0
N879 N 0.28417 0.51125 0.76978 0.0
H880 H 0.23077 0.77653 0.52598 0.0
H881 H 0.27031 0.70662 0.48456 0.0
H882 H 0.41436 0.76109 0.49606 0.0
H883 H 0.08198 0.72254 0.50893 0.0
H884 H 0.32571 0.72636 0.4908 0.0
H885 H 0.17539 0.75667 0.52091 0.0
C886 C 0.25918 0.76899 0.51821 0.0
C887 C 0.32713 0.77042 0.51151 0.0
C888 C 0.27226 0.72552 0.49483 0.0
C889 C 0.26484 0.74775 0.50591 0.0
C890 C 0.24084 0.71425 0.49137 0.0
C891 C 0.17157 0.71301 0.49606 0.0
C892 C 0.23396 0.73556 0.50304 0.0
C893 C 0.13554 0.72314 0.50493 0.0
C894 C 0.22777 0.75766 0.51541 0.0
C895 C 0.36184 0.76038 0.50154 0.0
N896 N 0.16711 0.73401 0.50804 0.0
N897 N 0.33038 0.74946 0.49914 0.0
H898 H 0.82275 0.4755 0.51401 0.0
H899 H 0.17619 0.51047 0.50643 0.0
H900 H 0.01492 0.4572 0.52189 0.0
H901 H 0.98237 0.52752 0.49395 0.0
H902 H 0.11887 0.49119 0.51512 0.0
H903 H 0.88128 0.49481 0.5094 0.0
C904 C 0.8775 0.47554 0.51473 0.0
C905 C 0.91416 0.46471 0.51823 0.0
C906 C 0.08888 0.49915 0.51058 0.0
C907 C 0.98171 0.48691 0.5129 0.0
C908 C 0.12147 0.51017 0.50565 0.0
C909 C 0.08381 0.52057 0.49926 0.0
C910 C 0.01816 0.49856 0.50914 0.0
C911 C 0.01324 0.51969 0.49863 0.0
C912 C 0.9109 0.48661 0.51212 0.0
C913 C 0.98489 0.46535 0.51916 0.0
N914 N 0.98268 0.50885 0.50342 0.0
N915 N 0.01654 0.4763 0.51643 0.0
H916 H 0.57822 0.50841 0.24641 0.0
H917 H 0.91743 0.46907 0.24431 0.0
H918 H 0.77664 0.52335 0.26029 0.0
H919 H 0.72004 0.45374 0.23009 0.0
H920 H 0.86657 0.48911 0.24865 0.0
H921 H 0.62923 0.48856 0.23838 0.0
C922 C 0.63268 0.50752 0.24765 0.0
C923 C 0.67341 0.5175 0.25424 0.0
C924 C 0.83421 0.4814 0.24456 0.0
C925 C 0.73193 0.4948 0.24514 0.0
C926 C 0.86317 0.46992 0.24212 0.0
C927 C 0.82271 0.45972 0.23688 0.0
C928 C 0.76413 0.48273 0.24184 0.0
C929 C 0.75289 0.46138 0.23417 0.0
C930 C 0.66169 0.49618 0.24307 0.0
C931 C 0.74351 0.51587 0.25541 0.0
N932 N 0.72565 0.4727 0.23675 0.0
N933 N 0.7706 0.50468 0.25103 0.0
H934 H 0.72542 0.27409 0.53133 0.0
H935 H 0.78403 0.20511 0.48795 0.0
H936 H 0.91715 0.26069 0.50439 0.0
H937 H 0.60224 0.21815 0.52347 0.0
H938 H 0.83666 0.22507 0.49536 0.0
H939 H 0.68011 0.25338 0.52886 0.0
C940 C 0.7578 0.26679 0.5248 0.0
C941 C 0.8249 0.26908 0.51802 0.0
C942 C 0.78546 0.22349 0.50172 0.0
C943 C 0.77393 0.24539 0.51528 0.0
C944 C 0.75569 0.2121 0.49761 0.0
C945 C 0.68852 0.21009 0.50476 0.0
C946 C 0.74744 0.23284 0.51296 0.0
C947 C 0.65388 0.2194 0.51729 0.0
C948 C 0.73217 0.25496 0.52353 0.0
C949 C 0.86496 0.25931 0.50978 0.0
N950 N 0.68348 0.23041 0.52076 0.0
N951 N 0.83881 0.24788 0.50859 0.0
H952 H 0.33838 0.26095 0.72839 0.0
H953 H 0.66765 0.22212 0.76007 0.0
H954 H 0.53381 0.27772 0.73916 0.0
H955 H 0.46379 0.20818 0.76444 0.0
H956 H 0.62283 0.24211 0.74855 0.0
H957 H 0.38735 0.24118 0.73708 0.0
C958 C 0.39192 0.26048 0.73255 0.0
C959 C 0.43212 0.27102 0.73325 0.0
C960 C 0.58799 0.23468 0.75205 0.0
C961 C 0.48858 0.24826 0.74337 0.0
C962 C 0.61339 0.22327 0.75859 0.0
C963 C 0.56914 0.21351 0.76328 0.0
C964 C 0.51793 0.23629 0.75001 0.0
C965 C 0.49954 0.21548 0.76108 0.0
C966 C 0.41978 0.24914 0.73757 0.0
C967 C 0.50118 0.2698 0.73848 0.0
N968 N 0.47607 0.22666 0.75456 0.0
N969 N 0.52739 0.25856 0.74348 0.0
H970 H 0.46025 0.02638 0.48931 0.0
H971 H 0.53363 0.95692 0.52787 0.0
H972 H 0.65503 0.0132 0.51362 0.0
H973 H 0.33918 0.97015 0.50334 0.0
H974 H 0.57933 0.97758 0.52313 0.0
H975 H 0.41365 0.0059 0.49573 0.0
C976 C 0.49297 0.0192 0.49616 0.0
C977 C 0.56153 0.02143 0.50075 0.0
C978 C 0.52666 0.97594 0.51877 0.0
C979 C 0.50921 -0.00194 0.50792 0.0
C980 C 0.50077 0.96415 0.52138 0.0
C981 C 0.43266 0.96185 0.51605 0.0
C982 C 0.48396 0.98543 0.51078 0.0
C983 C 0.39206 0.97153 0.50772 0.0
C984 C 0.46656 0.00752 0.49973 0.0
C985 C 0.60187 0.01185 0.50967 0.0
N986 N 0.41829 0.9829 0.50539 0.0
N987 N 0.57519 0.00056 0.51284 0.0
H988 H 0.46344 0.70605 0.27631 0.0
H989 H 0.5232 0.77724 0.25497 0.0
H990 H 0.65894 0.72358 0.27891 0.0
H991 H 0.32535 0.76174 0.26748 0.0
H992 H 0.5737 0.75754 0.26541 0.0
H993 H 0.41018 0.72633 0.27452 0.0
C994 C 0.49492 0.71414 0.27671 0.0
C995 C 0.56549 0.71316 0.27743 0.0
C996 C 0.51921 0.75847 0.26608 0.0
C997 C 0.50575 0.73619 0.27537 0.0
C998 C 0.49054 0.76971 0.26009 0.0
C999 C 0.42022 0.77104 0.26006 0.0
C1000 C 0.47707 0.7485 0.27174 0.0
C1001 C 0.37996 0.76105 0.26707 0.0
C1002 C 0.46473 0.72568 0.27573 0.0
C1003 C 0.60427 0.72389 0.27801 0.0
N1004 N 0.40893 0.75014 0.27234 0.0
N1005 N 0.57394 0.73493 0.27678 0.0
H1006 H 0.53867 0.45817 0.01591 0.0
H1007 H 0.47442 0.52752 0.97565 0.0
H1008 H 0.34075 0.47378 0.00417 0.0
H1009 H 0.67288 0.51168 0.98459 0.0
H1010 H 0.42432 0.50754 0.98419 0.0
H1011 H 0.58949 0.47747 1.00254 0.0
C1012 C 0.50606 0.46565 0.01049 0.0
C1013 C 0.43562 0.46446 0.01135 0.0
C1014 C 0.47886 0.50844 0.98418 0.0
C1015 C 0.49284 0.48644 0.99612 0.0
C1016 C 0.50733 0.51982 0.97932 0.0
C1017 C 0.57767 0.52123 0.97958 0.0
C1018 C 0.52121 0.49845 0.98941 0.0
C1019 C 0.61826 0.51099 0.98436 0.0
C1020 C 0.53493 0.47664 1.00283 0.0
C1021 C 0.39541 0.47436 0.00394 0.0
N1022 N 0.58941 0.50003 0.9892 0.0
N1023 N 0.4246 0.48496 0.99676 0.0
H1024 H 0.00339 0.14052 0.28563 0.0
H1025 H 0.27409 0.08719 0.2807 0.0
H1026 H 0.219 0.14703 0.28563 0.0
H1027 H 0.06665 0.08155 0.30312 0.0
H1028 H 0.25647 0.10925 0.28423 0.0
H1029 H 0.02559 0.11885 0.29327 0.0
C1030 C 0.0552 0.13744 0.28739 0.0
C1031 C 0.10923 0.14561 0.28456 0.0
C1032 C 0.21514 0.10315 0.28869 0.0
C1033 C 0.13508 0.12087 0.29319 0.0
C1034 C 0.22532 0.09056 0.28676 0.0
C1035 C 0.17148 0.08251 0.2911 0.0
C1036 C 0.1506 0.10767 0.29478 0.0
C1037 C 0.1093 0.08741 0.29901 0.0
C1038 C 0.06792 0.12508 0.29183 0.0
C1039 C 0.17551 0.14108 0.28725 0.0
N1040 N 0.10028 0.09966 0.30021 0.0
N1041 N 0.18651 0.12902 0.29111 0.0
H1042 H 0.27067 0.14561 0.98285 0.0
H1043 H 0.0033 0.09223 0.95578 0.0
H1044 H 0.08129 0.15189 0.94516 0.0
H1045 H 0.17426 0.08946 0.00516 0.0
H1046 H 0.03588 0.1135 0.94677 0.0
H1047 H 0.2453 0.12379 0.98373 0.0
C1048 C 0.2247 0.14236 0.97417 0.0
C1049 C 0.17741 0.15054 0.96439 0.0
C1050 C 0.0659 0.1082 0.95965 0.0
C1051 C 0.14704 0.12574 0.96592 0.0
C1052 C 0.04676 0.09617 0.96501 0.0
C1053 C 0.08621 0.08916 0.98118 0.0
C1054 C 0.12468 0.11308 0.97058 0.0
C1055 C 0.14279 0.09456 0.9924 0.0
C1056 C 0.20967 0.12993 0.97496 0.0
C1057 C 0.11845 0.14585 0.95336 0.0
N1058 N 0.16041 0.10616 0.98683 0.0
N1059 N 0.10435 0.13375 0.95476 0.0
H1060 H 0.93295 0.90237 0.7014 0.0
H1061 H 0.78078 0.83547 0.71346 0.0
H1062 H 0.72654 0.89465 0.72251 0.0
H1063 H 0.99483 0.84319 0.71754 0.0
H1064 H 0.75885 0.85684 0.70523 0.0
H1065 H 0.95254 0.88061 0.69555 0.0
C1066 C 0.8913 0.89612 0.70449 0.0
C1067 C 0.82825 0.90034 0.7131 0.0
C1068 C 0.81065 0.85386 0.70773 0.0
C1069 C 0.85085 0.87541 0.70629 0.0
C1070 C 0.82352 0.84163 0.71248 0.0
C1071 C 0.88995 0.83751 0.71675 0.0
C1072 C 0.86439 0.86215 0.70723 0.0
C1073 C 0.94288 0.84597 0.7147 0.0
C1074 C 0.9028 0.8837 0.70116 0.0
C1075 C 0.77606 0.89182 0.71617 0.0
N1076 N 0.92887 0.85795 0.71035 0.0
N1077 N 0.78881 0.87972 0.71308 0.0
H1078 H 0.03398 0.89567 0.01785 0.0
H1079 H 0.76481 0.84251 0.04226 0.0
H1080 H 0.84705 0.90102 0.05775 0.0
H1081 H 0.96204 0.83678 0.00991 0.0
H1082 H 0.795 0.86398 0.0494 0.0
H1083 H 0.01272 0.87367 0.01792 0.0
C1084 C 0.98942 0.89219 0.02716 0.0
C1085 C 0.94166 0.90015 0.0374 0.0
C1086 C 0.8316 0.85798 0.04078 0.0
C1087 C 0.91598 0.87514 0.03701 0.0
C1088 C 0.81403 0.84579 0.03649 0.0
C1089 C 0.86092 0.83788 0.02554 0.0
C1090 C 0.89613 0.86222 0.03381 0.0
C1091 C 0.92442 0.84254 0.01861 0.0
C1092 C 0.97681 0.87965 0.02698 0.0
C1093 C 0.88454 0.89518 0.04918 0.0
N1094 N 0.94005 0.85438 0.02281 0.0
N1095 N 0.87275 0.883 0.04834 0.0
H1096 H 0.20865 0.59137 0.82374 0.0
H1097 H 0.99671 0.64201 0.75426 0.0
H1098 H 0.20795 0.59568 0.74442 0.0
H1099 H 0.09841 0.65128 0.82235 0.0
H1100 H 0.04989 0.62181 0.75558 0.0
H1101 H 0.15375 0.61145 0.82784 0.0
C1102 C 0.19981 0.59683 0.8073 0.0
C1103 C 0.21442 0.59212 0.78374 0.0
C1104 C 0.05917 0.62819 0.77053 0.0
C1105 C 0.14725 0.61435 0.78815 0.0
C1106 C 0.02764 0.63958 0.77008 0.0
C1107 C 0.04321 0.64823 0.78826 0.0
C1108 C 0.10554 0.62547 0.78947 0.0
C1109 C 0.0851 0.64476 0.80808 0.0
C1110 C 0.16729 0.6081 0.80962 0.0
C1111 C 0.19912 0.5992 0.7629 0.0
N1112 N 0.11549 0.63364 0.80809 0.0
N1113 N 0.16512 0.60988 0.76555 0.0
H1114 H 0.04078 0.65009 0.45453 0.0
H1115 H 0.19653 0.58315 0.45167 0.0
H1116 H 0.25311 0.6423 0.46509 0.0
H1117 H 0.98896 0.5908 0.4713 0.0
H1118 H 0.21421 0.60475 0.44338 0.0
H1119 H 0.01998 0.62846 0.44759 0.0
C1120 C 0.08337 0.64387 0.45511 0.0
C1121 C 0.14881 0.64802 0.46105 0.0
C1122 C 0.16464 0.60167 0.44921 0.0
C1123 C 0.12475 0.62322 0.45285 0.0
C1124 C 0.15429 0.58934 0.454 0.0
C1125 C 0.09146 0.58518 0.46289 0.0
C1126 C 0.11181 0.60994 0.45318 0.0
C1127 C 0.0384 0.59362 0.46485 0.0
C1128 C 0.07118 0.63152 0.45112 0.0
C1129 C 0.20182 0.63952 0.46094 0.0
N1130 N 0.05003 0.60566 0.46035 0.0
N1131 N 0.18848 0.62748 0.45721 0.0
H1132 H 0.99332 0.33699 0.21238 0.0
H1133 H 0.71904 0.38891 0.21843 0.0
H1134 H 0.77971 0.32972 0.20413 0.0
H1135 H 0.92992 0.39586 0.203 0.0
H1136 H 0.73816 0.36723 0.20935 0.0
H1137 H 0.97105 0.3586 0.20476 0.0
C1138 C 0.942 0.33988 0.20854 0.0
C1139 C 0.88823 0.33156 0.20958 0.0
C1140 C 0.77993 0.37356 0.2076 0.0
C1141 C 0.86212 0.35629 0.20127 0.0
C1142 C 0.76895 0.38592 0.2128 0.0
C1143 C 0.82326 0.39413 0.21219 0.0
C1144 C 0.84567 0.36946 0.20197 0.0
C1145 C 0.88687 0.38979 0.20449 0.0
C1146 C 0.92919 0.35223 0.20422 0.0
C1147 C 0.8227 0.33584 0.20418 0.0
N1148 N 0.89653 0.37775 0.2001 0.0
N1149 N 0.81131 0.34793 0.20077 0.0
H1150 H 0.71244 0.34013 0.52907 0.0
H1151 H 0.98766 0.39274 0.53821 0.0
H1152 H 0.91562 0.334 0.55567 0.0
H1153 H 0.77302 0.39974 0.53261 0.0
H1154 H 0.96224 0.37114 0.54575 0.0
H1155 H 0.73183 0.36217 0.53227 0.0
C1156 C 0.7605 0.3434 0.53605 0.0
C1157 C 0.81285 0.33524 0.5416 0.0
C1158 C 0.92084 0.37747 0.54307 0.0
C1159 C 0.83596 0.36033 0.54483 0.0
C1160 C 0.93542 0.38978 0.53866 0.0
C1161 C 0.88269 0.39808 0.53447 0.0
C1162 C 0.85318 0.37345 0.54299 0.0
C1163 C 0.81569 0.39371 0.53549 0.0
C1164 C 0.77179 0.35597 0.53774 0.0
C1165 C 0.87426 0.33998 0.55061 0.0
N1166 N 0.803 0.38171 0.53937 0.0
N1167 N 0.88449 0.3522 0.55155 0.0
H1168 H 0.66333 0.08829 0.82587 0.0
H1169 H 0.50711 0.14298 0.75033 0.0
H1170 H 0.71033 0.09486 0.74907 0.0
H1171 H 0.57912 0.14966 0.82445 0.0
H1172 H 0.55359 0.12224 0.75253 0.0
H1173 H 0.61352 0.10884 0.82859 0.0
C1174 C 0.66554 0.09428 0.80991 0.0
C1175 C 0.69235 0.0901 0.78738 0.0
C1176 C 0.5576 0.12817 0.76852 0.0
C1177 C 0.63133 0.11295 0.78983 0.0
C1178 C 0.52978 0.13985 0.76748 0.0
C1179 C 0.53874 0.14789 0.78736 0.0
C1180 C 0.59358 0.12454 0.7897 0.0
C1181 C 0.57057 0.14359 0.80892 0.0
C1182 C 0.63617 0.10584 0.81135 0.0
C1183 C 0.69173 0.09793 0.7669 0.0
N1184 N 0.59734 0.13218 0.80952 0.0
N1185 N 0.66035 0.10892 0.76846 0.0
H1186 H 0.75206 0.13961 0.4635 0.0
H1187 H 0.46232 0.09219 0.47142 0.0
H1188 H 0.54384 0.15032 0.45248 0.0
H1189 H 0.66147 0.08221 0.44553 0.0
H1190 H 0.48808 0.11357 0.4617 0.0
H1191 H 0.72022 0.11852 0.45422 0.0
C1192 C 0.70006 0.13759 0.45871 0.0
C1193 C 0.6504 0.14671 0.45947 0.0
C1194 C 0.5255 0.10663 0.45767 0.0
C1195 C 0.61345 0.12263 0.44925 0.0
C1196 C 0.51068 0.09444 0.46317 0.0
C1197 C 0.56048 0.08548 0.46 0.0
C1198 C 0.59067 0.10979 0.44931 0.0
C1199 C 0.62228 0.08889 0.44905 0.0
C1200 C 0.68184 0.12555 0.45339 0.0
C1201 C 0.58373 0.14355 0.45281 0.0
N1202 N 0.63622 0.1008 0.44465 0.0
N1203 N 0.56691 0.13174 0.44856 0.0
H1204 H 0.45302 0.8983 0.20117 0.0
H1205 H 0.31558 0.83025 0.19546 0.0
H1206 H 0.24517 0.88825 0.2152 0.0
H1207 H 0.51941 0.83974 0.21688 0.0
H1208 H 0.29314 0.85165 0.1863 0.0
H1209 H 0.47829 0.87715 0.19086 0.0
C1210 C 0.41228 0.89169 0.20178 0.0
C1211 C 0.34708 0.89501 0.20986 0.0
C1212 C 0.34311 0.84899 0.19254 0.0
C1213 C 0.37614 0.87082 0.19766 0.0
C1214 C 0.35619 0.83679 0.19779 0.0
C1215 C 0.419 0.83325 0.20775 0.0
C1216 C 0.39327 0.85771 0.19704 0.0
C1217 C 0.47001 0.84208 0.20966 0.0
C1218 C 0.42698 0.87964 0.1958 0.0
C1219 C 0.29628 0.88609 0.20952 0.0
N1220 N 0.45564 0.85398 0.20477 0.0
N1221 N 0.31214 0.87432 0.20389 0.0
H1222 H 0.53752 0.89088 0.53906 0.0
H1223 H 0.25571 0.84091 0.54932 0.0
H1224 H 0.33405 0.89923 0.56273 0.0
H1225 H 0.46798 0.83205 0.55556 0.0
H1226 H 0.28355 0.86233 0.55709 0.0
H1227 H 0.51573 0.86926 0.54791 0.0
C1228 C 0.4889 0.88821 0.54657 0.0
C1229 C 0.43704 0.8968 0.54951 0.0
C1230 C 0.32384 0.85564 0.55717 0.0
C1231 C 0.41141 0.87221 0.55929 0.0
C1232 C 0.30788 0.84341 0.55275 0.0
C1233 C 0.35958 0.83469 0.55118 0.0
C1234 C 0.39196 0.85917 0.55967 0.0
C1235 C 0.42642 0.83847 0.55598 0.0
C1236 C 0.47635 0.87589 0.55158 0.0
C1237 C 0.37497 0.89286 0.55946 0.0
N1238 N 0.44082 0.85045 0.5595 0.0
N1239 N 0.36347 0.88083 0.56353 0.0
H1240 H 0.49809 0.64128 0.29024 0.0
H1241 H 0.76968 0.58879 0.26136 0.0
H1242 H 0.69042 0.64724 0.25429 0.0
H1243 H 0.58016 0.58213 0.29877 0.0
H1244 H 0.74547 0.61066 0.26228 0.0
H1245 H 0.52829 0.61964 0.29538 0.0
C1246 C 0.54618 0.63802 0.28325 0.0
C1247 C 0.59179 0.64607 0.27192 0.0
C1248 C 0.70948 0.60442 0.27054 0.0
C1249 C 0.62704 0.62153 0.27796 0.0
C1250 C 0.72374 0.59194 0.27023 0.0
C1251 C 0.67645 0.58362 0.27962 0.0
C1252 C 0.64749 0.60857 0.28025 0.0
C1253 C 0.61753 0.58822 0.29088 0.0
C1254 C 0.56374 0.62573 0.28638 0.0
C1255 C 0.65383 0.64141 0.26338 0.0
N1256 N 0.6043 0.60037 0.2906 0.0
N1257 N 0.66953 0.62949 0.26657 0.0
H1258 H 0.73468 0.64658 0.96642 0.0
H1259 H 0.47493 0.59175 0.99114 0.0
H1260 H 0.53628 0.65128 0.99849 0.0
H1261 H 0.66255 0.58761 0.95104 0.0
H1262 H 0.49474 0.6138 0.99286 0.0
H1263 H 0.71004 0.62478 0.96098 0.0
C1264 C 0.68635 0.64301 0.97248 0.0
C1265 C 0.63738 0.65074 0.98275 0.0
C1266 C 0.53121 0.60806 0.98346 0.0
C1267 C 0.60858 0.62598 0.97648 0.0
C1268 C 0.51949 0.5955 0.98228 0.0
C1269 C 0.56749 0.58785 0.97121 0.0
C1270 C 0.59131 0.61292 0.97352 0.0
C1271 C 0.6247 0.59317 0.96013 0.0
C1272 C 0.67199 0.63062 0.9692 0.0
C1273 C 0.57528 0.64567 0.9902 0.0
N1274 N 0.63536 0.60536 0.96179 0.0
N1275 N 0.56271 0.63364 0.98693 0.0
H1276 H 0.22347 0.39433 0.7491 0.0
H1277 H 0.49689 0.34336 0.7118 0.0
H1278 H 0.39394 0.40147 0.70125 0.0
H1279 H 0.32158 0.33673 0.75743 0.0
H1280 H 0.46027 0.36473 0.70699 0.0
H1281 H 0.25443 0.37273 0.74959 0.0
C1282 C 0.26626 0.39131 0.73816 0.0
C1283 C 0.30661 0.39972 0.72539 0.0
C1284 C 0.43012 0.35858 0.71815 0.0
C1285 C 0.34373 0.37513 0.72645 0.0
C1286 C 0.45157 0.34648 0.72114 0.0
C1287 C 0.41214 0.33835 0.73499 0.0
C1288 C 0.36921 0.36248 0.72923 0.0
C1289 C 0.35318 0.34273 0.74645 0.0
C1290 C 0.28461 0.379 0.73871 0.0
C1291 C 0.36197 0.3953 0.71167 0.0
N1292 N 0.33348 0.35446 0.74327 0.0
N1293 N 0.37946 0.38334 0.71283 0.0
H1294 H 0.33579 0.40201 0.0616 0.0
H1295 H 0.47738 0.33478 0.04296 0.0
H1296 H 0.53642 0.39405 0.03431 0.0
H1297 H 0.26457 0.34375 0.04081 0.0
H1298 H 0.50336 0.35592 0.05233 0.0
H1299 H 0.31552 0.38024 0.06691 0.0
C1300 C 0.37611 0.3957 0.05705 0.0
C1301 C 0.43745 0.39984 0.04682 0.0
C1302 C 0.45099 0.35325 0.05001 0.0
C1303 C 0.41416 0.37493 0.05304 0.0
C1304 C 0.43581 0.34117 0.04458 0.0
C1305 C 0.36848 0.33751 0.04043 0.0
C1306 C 0.39866 0.36179 0.05147 0.0
C1307 C 0.31712 0.34619 0.04347 0.0
C1308 C 0.36424 0.38328 0.06009 0.0
C1309 C 0.4882 0.39125 0.04193 0.0
N1310 N 0.33337 0.358 0.04855 0.0
N1311 N 0.47504 0.37915 0.04476 0.0
H1312 H 0.05116 0.05288 0.35395 0.0
H1313 H 0.67892 0.05467 0.40872 0.0
H1314 H 0.87246 0.05391 0.30808 0.0
H1315 H 0.85795 0.05625 0.45433 0.0
H1316 H 0.7487 0.05642 0.37188 0.0
H1317 H 0.9817 0.0561 0.39042 0.0
C1318 C 0.99701 0.05381 0.35153 0.0
C1319 C 0.96729 0.05289 0.32794 0.0
C1320 C 0.77296 0.05647 0.38987 0.0
C1321 C 0.8872 0.0566 0.36995 0.0
C1322 C 0.73322 0.05541 0.41099 0.0
C1323 C 0.76296 0.05505 0.43464 0.0
C1324 C 0.84334 0.05707 0.39225 0.0
C1325 C 0.83317 0.05636 0.43645 0.0
C1326 C 0.95744 0.05571 0.37244 0.0
C1327 C 0.89725 0.05445 0.32593 0.0
N1328 N 0.87122 0.05715 0.41544 0.0
N1329 N 0.85934 0.05608 0.34678 0.0
H1330 H 0.38769 0.18816 0.30289 0.0
H1331 H 0.40091 0.17015 0.44723 0.0
H1332 H 0.23337 0.16698 0.33939 0.0
H1333 H 0.53486 0.19601 0.4121 0.0
H1334 H 0.34357 0.16721 0.40722 0.0
H1335 H 0.45228 0.18852 0.34182 0.0
C1336 C 0.36866 0.18327 0.31889 0.0
C1337 C 0.3055 0.17756 0.31815 0.0
C1338 C 0.3854 0.17356 0.40838 0.0
C1339 C 0.37709 0.17821 0.36263 0.0
C1340 C 0.41742 0.17534 0.43126 0.0
C1341 C 0.47251 0.18333 0.43297 0.0
C1342 C 0.40909 0.17979 0.38724 0.0
C1343 C 0.49268 0.18971 0.41161 0.0
C1344 C 0.40475 0.18362 0.34118 0.0
C1345 C 0.28203 0.17153 0.33942 0.0
N1346 N 0.46127 0.18776 0.38967 0.0
N1347 N 0.31748 0.1721 0.36088 0.0
H1348 H 0.84833 0.1739 0.80522 0.0
H1349 H 0.87479 0.17713 0.95357 0.0
H1350 H 0.6762 0.17693 0.85402 0.0
H1351 H 0.04462 0.18001 0.90362 0.0
H1352 H 0.80123 0.173 0.91771 0.0
H1353 H 0.92179 0.1719 0.84173 0.0
C1354 C 0.82604 0.17399 0.82356 0.0
C1355 C 0.75657 0.17586 0.82668 0.0
C1356 C 0.85479 0.17446 0.91473 0.0
C1357 C 0.83943 0.1736 0.86831 0.0
C1358 C 0.89653 0.17681 0.93516 0.0
C1359 C 0.96536 0.1792 0.93147 0.0
C1360 C 0.88259 0.1744 0.89066 0.0
C1361 C 0.9914 0.17852 0.90727 0.0
C1362 C 0.86778 0.17288 0.84438 0.0
C1363 C 0.7299 0.1758 0.85083 0.0
N1364 N 0.95001 0.17627 0.88782 0.0
N1365 N 0.77138 0.17481 0.87071 0.0
H1366 H 0.37771 0.05741 0.95712 0.0
H1367 H 0.39833 0.06432 0.80915 0.0
H1368 H 0.20504 0.06403 0.91011 0.0
H1369 H 0.56866 0.05588 0.85619 0.0
H1370 H 0.32852 0.06705 0.84648 0.0
H1371 H 0.45164 0.0599 0.92083 0.0
C1372 C 0.35558 0.05957 0.93929 0.0
C1373 C 0.28535 0.06028 0.93648 0.0
C1374 C 0.38138 0.06467 0.84854 0.0
C1375 C 0.36871 0.06304 0.89503 0.0
C1376 C 0.42102 0.06311 0.82725 0.0
C1377 C 0.48893 0.05966 0.82953 0.0
C1378 C 0.41021 0.06281 0.87215 0.0
C1379 C 0.51613 0.05832 0.85347 0.0
C1380 C 0.39754 0.06093 0.91856 0.0
C1381 C 0.25902 0.06314 0.91298 0.0
N1382 N 0.47669 0.05981 0.87376 0.0
N1383 N 0.30057 0.06429 0.89315 0.0
H1384 H 0.30637 0.92121 0.59994 0.0
H1385 H 0.95223 0.94035 0.65633 0.0
H1386 H 0.13457 0.93126 0.55521 0.0
H1387 H 0.11006 0.92404 0.70066 0.0
H1388 H 0.01769 0.93641 0.61931 0.0
H1389 H 0.23424 0.92086 0.63658 0.0
C1390 C 0.25294 0.92317 0.59784 0.0
C1391 C 0.22621 0.92642 0.57467 0.0
C1392 C 0.03815 0.93364 0.63705 0.0
C1393 C 0.14373 0.92625 0.61657 0.0
C1394 C 0.00102 0.93596 0.65836 0.0
C1395 C 0.02596 0.9326 0.68178 0.0
C1396 C 0.10139 0.92799 0.63897 0.0
C1397 C 0.08922 0.92688 0.68303 0.0
C1398 C 0.2119 0.92297 0.61876 0.0
C1399 C 0.1569 0.92873 0.57279 0.0
N1400 N 0.12509 0.92481 0.66186 0.0
N1401 N 0.11807 0.9288 0.59363 0.0
H1402 H 0.72761 0.82366 0.67863 0.0
H1403 H 0.54099 0.78078 0.58189 0.0
H1404 H 0.63132 0.78968 0.69753 0.0
H1405 H 0.58024 0.8186 0.56546 0.0
H1406 H 0.58686 0.78369 0.62332 0.0
H1407 H 0.6768 0.82263 0.63729 0.0
C1408 C 0.69279 0.81631 0.67444 0.0
C1409 C 0.68218 0.80686 0.69154 0.0
C1410 C 0.58647 0.79134 0.61062 0.0
C1411 C 0.62796 0.8052 0.64403 0.0
C1412 C 0.56172 0.78961 0.58681 0.0
C1413 C 0.55766 0.79943 0.57028 0.0
C1414 C 0.60718 0.80302 0.61805 0.0
C1415 C 0.58381 0.81076 0.5776 0.0
C1416 C 0.66506 0.81559 0.6507 0.0
C1417 C 0.63925 0.79727 0.685 0.0
N1418 N 0.60701 0.8123 0.60118 0.0
N1419 N 0.61459 0.79657 0.66156 0.0
H1420 H 0.27466 0.78627 0.16601 0.0
H1421 H 0.97253 0.81728 0.09389 0.0
H1422 H 0.15385 0.81469 0.19936 0.0
H1423 H 0.13078 0.79682 0.05793 0.0
H1424 H 0.03783 0.81719 0.1323 0.0
H1425 H 0.21882 0.78982 0.12674 0.0
C1426 C 0.23569 0.79321 0.16514 0.0
C1427 C 0.21883 0.80021 0.18604 0.0
C1428 C 0.05899 0.81293 0.11593 0.0
C1429 C 0.15496 0.8044 0.14072 0.0
C1430 C 0.02201 0.81302 0.094 0.0
C1431 C 0.04645 0.80696 0.07291 0.0
C1432 C 0.12018 0.80652 0.11683 0.0
C1433 C 0.11051 0.80162 0.07383 0.0
C1434 C 0.20433 0.7953 0.14256 0.0
C1435 C 0.16786 0.80902 0.18375 0.0
N1436 N 0.14479 0.80132 0.09567 0.0
N1437 N 0.13751 0.81088 0.16139 0.0
H1438 H 0.63305 0.93017 0.05536 0.0
H1439 H 0.62277 0.92235 0.20348 0.0
H1440 H 0.81113 0.92545 0.10053 0.0
H1441 H 0.45613 0.93532 0.15891 0.0
H1442 H 0.69 0.92 0.16534 0.0
H1443 H 0.56303 0.92801 0.09279 0.0
C1444 C 0.65715 0.92847 0.07305 0.0
C1445 C 0.72764 0.92822 0.07504 0.0
C1446 C 0.63855 0.92333 0.16406 0.0
C1447 C 0.6489 0.92581 0.11767 0.0
C1448 C 0.6005 0.92472 0.18579 0.0
C1449 C 0.53418 0.92918 0.18443 0.0
C1450 C 0.60954 0.92629 0.14097 0.0
C1451 C 0.50733 0.93197 0.16097 0.0
C1452 C 0.61749 0.92733 0.09441 0.0
C1453 C 0.75675 0.92596 0.09836 0.0
N1454 N 0.54501 0.93049 0.14025 0.0
N1455 N 0.71735 0.92495 0.1188 0.0
H1456 H 0.07989 0.56512 0.85298 0.0
H1457 H 0.69925 0.5616 0.89952 0.0
H1458 H 0.90787 0.56426 0.80383 0.0
H1459 H 0.87112 0.56093 0.9488 0.0
H1460 H 0.77412 0.56584 0.86493 0.0
H1461 H 0.00401 0.56699 0.88825 0.0
C1462 C 0.0259 0.56543 0.8496 0.0
C1463 C -0.00011 0.56429 0.82548 0.0
C1464 C 0.79566 0.56487 0.88327 0.0
C1465 C 0.91265 0.56637 0.86594 0.0
C1466 C 0.75298 0.5624 0.9031 0.0
C1467 C 0.77928 0.56066 0.92703 0.0
C1468 C 0.86551 0.56554 0.88724 0.0
C1469 C 0.84895 0.56208 0.93061 0.0
C1470 C 0.98266 0.56652 0.86979 0.0
C1471 C 0.92984 0.56501 0.82214 0.0
N1472 N 0.88993 0.56428 0.9108 0.0
N1473 N 0.88845 0.56583 0.84225 0.0
H1474 H 0.16035 0.68572 0.85204 0.0
H1475 H 0.52315 0.67335 0.90988 0.0
H1476 H 0.33133 0.67368 0.80865 0.0
H1477 H 0.35051 0.68485 0.95282 0.0
H1478 H 0.45065 0.6708 0.87381 0.0
H1479 H 0.22617 0.6832 0.88952 0.0
C1480 C 0.21204 0.68255 0.85034 0.0
C1481 C 0.24081 0.6801 0.82704 0.0
C1482 C 0.42827 0.67375 0.89113 0.0
C1483 C 0.31668 0.67714 0.87033 0.0
C1484 C 0.46956 0.67521 0.91176 0.0
C1485 C 0.44275 0.67952 0.93422 0.0
C1486 C 0.3596 0.67675 0.89284 0.0
C1487 C 0.37309 0.68157 0.93579 0.0
C1488 C 0.24947 0.68105 0.87189 0.0
C1489 C 0.30749 0.67581 0.82619 0.0
N1490 N 0.33393 0.68034 0.91519 0.0
N1491 N 0.34351 0.67457 0.84757 0.0
H1492 H 0.89363 0.66805 0.44542 0.0
H1493 H 0.86861 0.68705 0.30189 0.0
H1494 H 0.00971 0.69665 0.41056 0.0
H1495 H 0.71976 0.6645 0.33808 0.0
H1496 H 0.93473 0.68727 0.34038 0.0
H1497 H 0.83652 0.66435 0.40548 0.0
C1498 C 0.90609 0.67367 0.42956 0.0
C1499 C 0.95625 0.68267 0.43126 0.0
C1500 C 0.88815 0.68208 0.33976 0.0
C1501 C 0.89373 0.67824 0.38569 0.0
C1502 C 0.85124 0.6818 0.31767 0.0
C1503 C 0.78887 0.67582 0.31703 0.0
C1504 C 0.86214 0.67634 0.36112 0.0
C1505 C 0.76769 0.6693 0.33806 0.0
C1506 C 0.87441 0.67146 0.40674 0.0
C1507 C 0.97152 0.68957 0.41005 0.0
N1508 N 0.80378 0.66985 0.35939 0.0
N1509 N 0.9408 0.68717 0.3882 0.0
H1510 H 0.56756 0.55067 0.34699 0.0
H1511 H 0.20162 0.55455 0.40686 0.0
H1512 H 0.38537 0.55494 0.30378 0.0
H1513 H 0.38485 0.55362 0.45025 0.0
H1514 H 0.26844 0.5564 0.36932 0.0
H1515 H 0.50247 0.55333 0.38471 0.0
C1516 C 0.51358 0.55218 0.3454 0.0
C1517 C 0.48155 0.55237 0.32214 0.0
C1518 C 0.29431 0.55587 0.38697 0.0
C1519 C 0.40653 0.55546 0.36561 0.0
C1520 C 0.25623 0.55475 0.40849 0.0
C1521 C 0.28792 0.55368 0.4317 0.0
C1522 C 0.36494 0.5558 0.3885 0.0
C1523 C 0.35855 0.55431 0.43271 0.0
C1524 C 0.47654 0.55377 0.36705 0.0
C1525 C 0.4119 0.55462 0.32132 0.0
N1526 N 0.39488 0.55517 0.4113 0.0
N1527 N 0.37647 0.55594 0.34282 0.0
H1528 H 0.95984 0.41557 0.16095 0.0
H1529 H 0.30973 0.4382 0.10607 0.0
H1530 H 0.12351 0.42928 0.20574 0.0
H1531 H 0.1546 0.42164 0.06085 0.0
H1532 H 0.24539 0.43333 0.14285 0.0
H1533 H 0.03441 0.41531 0.12494 0.0
C1534 C 0.01216 0.4183 0.16323 0.0
C1535 C 0.0357 0.42262 0.18614 0.0
C1536 C 0.22524 0.4307 0.12497 0.0
C1537 C 0.12069 0.42261 0.14499 0.0
C1538 C 0.26175 0.43356 0.1038 0.0
C1539 C 0.23715 0.43043 0.08021 0.0
C1540 C 0.16298 0.42474 0.12274 0.0
C1541 C 0.17503 0.42433 0.07864 0.0
C1542 C 0.05454 0.41819 0.14267 0.0
C1543 C 0.10366 0.42592 0.18834 0.0
N1544 N 0.13971 0.42175 0.09968 0.0
N1545 N 0.14366 0.42606 0.16782 0.0
H1546 H 0.65525 0.31557 0.1952 0.0
H1547 H 0.62257 0.28935 0.05709 0.0
H1548 H 0.71748 0.27962 0.17212 0.0
H1549 H 0.51094 0.32083 0.08171 0.0
H1550 H 0.67535 0.28798 0.09807 0.0
H1551 H 0.60966 0.31917 0.15333 0.0
C1552 C 0.65707 0.30831 0.1816 0.0
C1553 C 0.6895 0.29726 0.18702 0.0
C1554 C 0.64046 0.29537 0.09436 0.0
C1555 C 0.64124 0.30148 0.1392 0.0
C1556 C 0.61172 0.2963 0.07081 0.0
C1557 C 0.56345 0.30531 0.06612 0.0
C1558 C 0.62014 0.30347 0.11321 0.0
C1559 C 0.54894 0.31387 0.08471 0.0
C1560 C 0.63243 0.31044 0.15763 0.0
C1561 C 0.69255 0.28825 0.16861 0.0
N1562 N 0.57657 0.31267 0.10762 0.0
N1563 N 0.66948 0.2906 0.14548 0.0
H1564 H 0.11834 0.30782 0.55183 0.0
H1565 H 0.13398 0.3085 0.70009 0.0
H1566 H 0.94354 0.30767 0.59976 0.0
H1567 H 0.31036 0.30993 0.65299 0.0
H1568 H 0.06265 0.31102 0.66325 0.0
H1569 H 0.19015 0.3114 0.58842 0.0
C1570 C 0.09519 0.30868 0.56994 0.0
C1571 C 0.02541 0.30715 0.57292 0.0
C1572 C 0.11708 0.31091 0.66105 0.0
C1573 C 0.10609 0.31123 0.61454 0.0
C1574 C 0.1576 0.30949 0.68208 0.0
C1575 C 0.22788 0.30876 0.67951 0.0
C1576 C 0.14734 0.31156 0.63741 0.0
C1577 C 0.25615 0.31019 0.65576 0.0
C1578 C 0.13591 0.3107 0.5908 0.0
C1579 C 0.99751 0.30846 0.59673 0.0
N1580 N 0.21582 0.31138 0.63562 0.0
N1581 N 0.03789 0.31029 0.61659 0.0
H1582 H 0.41736 0.43723 0.65608 0.0
H1583 H 0.77423 0.42286 0.59515 0.0
H1584 H 0.59047 0.42489 0.69795 0.0
H1585 H 0.60135 0.43526 0.55345 0.0
H1586 H 0.70365 0.42091 0.63185 0.0
H1587 H 0.48014 0.43433 0.61797 0.0
C1588 C 0.46884 0.43391 0.65731 0.0
C1589 C 0.49914 0.43147 0.68035 0.0
C1590 C 0.68073 0.42394 0.6147 0.0
C1591 C 0.57139 0.42806 0.63639 0.0
C1592 C 0.72093 0.42506 0.59371 0.0
C1593 C 0.69355 0.42944 0.57142 0.0
C1594 C 0.61261 0.42736 0.61351 0.0
C1595 C 0.62426 0.43192 0.57036 0.0
C1596 C 0.50451 0.43219 0.63541 0.0
C1597 C 0.56548 0.427 0.68063 0.0
N1598 N 0.58618 0.43103 0.59131 0.0
N1599 N 0.59969 0.42554 0.65892 0.0
loop_
_geom_bond_atom_site_label_1
_geom_bond_atom_site_label_2
_geom_bond_distance
_geom_bond_site_symmetry_2
_ccdc_geom_bond_type
Co0 O1 2.216 . S
Co0 O2 2.091 1_455 S
Co0 O4 2.004 . S
Co0 O10 2.021 . S
Co0 O12 2.137 . S
Co0 O13 2.244 . S
O1 Co0 2.216 . S
O1 C8 1.247 1_455 S
O2 Co0 2.091 1_655 S
O2 C8 1.261 . S
C3 O12 1.247 . S
C3 O13 1.272 . S
O4 Co0 2.004 . S
O4 C9 1.259 . S
Co5 O6 2.061 . S
Co5 O11 2.052 . S
Co5 O13 2.135 . S
O6 Co5 2.061 . S
O6 C9 1.235 . S
C7 O10 1.238 . S
C7 O11 1.241 . S
C8 O1 1.247 1_655 S
C8 O2 1.261 . S
C9 O4 1.259 . S
C9 O6 1.235 . S
O10 Co0 2.021 . S
O10 C7 1.238 . S
O11 Co5 2.052 . S
O11 C7 1.241 . S
O12 Co0 2.137 . S
O12 C3 1.247 . S
O13 Co0 2.244 . S
O13 C3 1.272 . S
O13 Co5 2.135 . S
Co14 O15 2.216 . S
Co14 O16 2.091 . S
Co14 O18 2.004 . S
Co14 O24 2.021 . S
Co14 O26 2.137 . S
Co14 O27 2.244 . S
O15 Co14 2.216 . S
O15 C22 1.247 . S
O16 Co14 2.091 . S
O16 C22 1.261 . S
C17 O26 1.247 . S
C17 O27 1.272 . S
O18 Co14 2.004 . S
O18 C23 1.259 . S
Co19 O20 2.061 . S
Co19 O25 2.052 . S
Co19 O27 2.135 . S
O20 Co19 2.061 . S
O20 C23 1.235 . S
C21 O24 1.238 . S
C21 O25 1.241 . S
C22 O15 1.247 . S
C22 O16 1.261 . S
C23 O18 1.259 . S
C23 O20 1.235 . S
O24 Co14 2.021 . S
O24 C21 1.238 . S
O25 Co19 2.052 . S
O25 C21 1.241 . S
O26 Co14 2.137 . S
O26 C17 1.247 . S
O27 Co14 2.244 . S
O27 C17 1.272 . S
O27 Co19 2.135 . S
Co28 O29 2.216 . S
Co28 O30 2.091 1_455 S
Co28 O32 2.004 1_556 S
Co28 O38 2.021 . S
Co28 O40 2.137 . S
Co28 O41 2.244 . S
O29 Co28 2.216 . S
O29 C36 1.247 1_455 S
O30 Co28 2.091 1_655 S
O30 C36 1.261 . S
C31 O40 1.247 . S
C31 O41 1.272 . S
O32 Co28 2.004 1_554 S
O32 C37 1.259 . S
Co33 O34 2.061 . S
Co33 O39 2.052 1_554 S
Co33 O41 2.135 1_554 S
O34 Co33 2.061 . S
O34 C37 1.235 . S
C35 O38 1.238 . S
C35 O39 1.241 . S
C36 O29 1.247 1_655 S
C36 O30 1.261 . S
C37 O32 1.259 . S
C37 O34 1.235 . S
O38 Co28 2.021 . S
O38 C35 1.238 . S
O39 Co33 2.052 1_556 S
O39 C35 1.241 . S
O40 Co28 2.137 . S
O40 C31 1.247 . S
O41 Co28 2.244 . S
O41 C31 1.272 . S
O41 Co33 2.135 1_556 S
Co42 O43 2.216 . S
Co42 O44 2.091 . S
Co42 O46 2.004 1_556 S
Co42 O52 2.021 . S
Co42 O54 2.137 . S
Co42 O55 2.244 . S
O43 Co42 2.216 . S
O43 C50 1.247 . S
O44 Co42 2.091 . S
O44 C50 1.261 . S
C45 O54 1.247 . S
C45 O55 1.272 . S
O46 Co42 2.004 1_554 S
O46 C51 1.259 . S
Co47 O48 2.061 . S
Co47 O53 2.052 1_554 S
Co47 O55 2.135 1_554 S
O48 Co47 2.061 . S
O48 C51 1.235 . S
C49 O52 1.238 . S
C49 O53 1.241 . S
C50 O43 1.247 . S
C50 O44 1.261 . S
C51 O46 1.259 . S
C51 O48 1.235 . S
O52 Co42 2.021 . S
O52 C49 1.238 . S
O53 Co47 2.052 1_556 S
O53 C49 1.241 . S
O54 Co42 2.137 . S
O54 C45 1.247 . S
O55 Co42 2.244 . S
O55 C45 1.272 . S
O55 Co47 2.135 1_556 S
Co56 O57 2.216 . S
Co56 O58 2.091 1_655 S
Co56 O60 2.004 . S
Co56 O66 2.021 . S
Co56 O68 2.137 . S
Co56 O69 2.244 . S
O57 Co56 2.216 . S
O57 C64 1.247 1_655 S
O58 Co56 2.091 1_455 S
O58 C64 1.261 . S
C59 O68 1.247 . S
C59 O69 1.272 . S
O60 Co56 2.004 . S
O60 C65 1.259 . S
Co61 O62 2.061 . S
Co61 O67 2.052 . S
Co61 O69 2.135 . S
O62 Co61 2.061 . S
O62 C65 1.235 . S
C63 O66 1.238 . S
C63 O67 1.241 . S
C64 O57 1.247 1_455 S
C64 O58 1.261 . S
C65 O60 1.259 . S
C65 O62 1.235 . S
O66 Co56 2.021 . S
O66 C63 1.238 . S
O67 Co61 2.052 . S
O67 C63 1.241 . S
O68 Co56 2.137 . S
O68 C59 1.247 . S
O69 Co56 2.244 . S
O69 C59 1.272 . S
O69 Co61 2.135 . S
Co70 O71 2.216 . S
Co70 O72 2.091 . S
Co70 O74 2.004 . S
Co70 O80 2.021 . S
Co70 O82 2.137 . S
Co70 O83 2.244 . S
O71 Co70 2.216 . S
O71 C78 1.247 . S
O72 Co70 2.091 . S
O72 C78 1.261 . S
C73 O82 1.247 . S
C73 O83 1.272 . S
O74 Co70 2.004 . S
O74 C79 1.259 . S
Co75 O76 2.061 . S
Co75 O81 2.052 . S
Co75 O83 2.135 . S
O76 Co75 2.061 . S
O76 C79 1.235 . S
C77 O80 1.238 . S
C77 O81 1.241 . S
C78 O71 1.247 . S
C78 O72 1.261 . S
C79 O74 1.259 . S
C79 O76 1.235 . S
O80 Co70 2.021 . S
O80 C77 1.238 . S
O81 Co75 2.052 . S
O81 C77 1.241 . S
O82 Co70 2.137 . S
O82 C73 1.247 . S
O83 Co70 2.244 . S
O83 C73 1.272 . S
O83 Co75 2.135 . S
Co84 O85 2.216 . S
Co84 O86 2.091 1_655 S
Co84 O88 2.004 1_554 S
Co84 O94 2.021 . S
Co84 O96 2.137 . S
Co84 O97 2.244 . S
O85 Co84 2.216 . S
O85 C92 1.247 1_655 S
O86 Co84 2.091 1_455 S
O86 C92 1.261 . S
C87 O96 1.247 . S
C87 O97 1.272 . S
O88 Co84 2.004 1_556 S
O88 C93 1.259 . S
Co89 O90 2.061 . S
Co89 O95 2.052 1_556 S
Co89 O97 2.135 1_556 S
O90 Co89 2.061 . S
O90 C93 1.235 . S
C91 O94 1.238 . S
C91 O95 1.241 . S
C92 O85 1.247 1_455 S
C92 O86 1.261 . S
C93 O88 1.259 . S
C93 O90 1.235 . S
O94 Co84 2.021 . S
O94 C91 1.238 . S
O95 Co89 2.052 1_554 S
O95 C91 1.241 . S
O96 Co84 2.137 . S
O96 C87 1.247 . S
O97 Co84 2.244 . S
O97 C87 1.272 . S
O97 Co89 2.135 1_554 S
Co98 O99 2.216 . S
Co98 O100 2.091 . S
Co98 O102 2.004 1_554 S
Co98 O108 2.021 . S
Co98 O110 2.137 . S
Co98 O111 2.244 . S
O99 Co98 2.216 . S
O99 C106 1.247 . S
O100 Co98 2.091 . S
O100 C106 1.261 . S
C101 O110 1.247 . S
C101 O111 1.272 . S
O102 Co98 2.004 1_556 S
O102 C107 1.259 . S
Co103 O104 2.061 . S
Co103 O109 2.052 1_556 S
Co103 O111 2.135 1_556 S
O104 Co103 2.061 . S
O104 C107 1.235 . S
C105 O108 1.238 . S
C105 O109 1.241 . S
C106 O99 1.247 . S
C106 O100 1.261 . S
C107 O102 1.259 . S
C107 O104 1.235 . S
O108 Co98 2.021 . S
O108 C105 1.238 . S
O109 Co103 2.052 1_554 S
O109 C105 1.241 . S
O110 Co98 2.137 . S
O110 C101 1.247 . S
O111 Co98 2.244 . S
O111 C101 1.272 . S
O111 Co103 2.135 1_554 S
Co112 O113 2.216 . S
Co112 O114 2.091 1_455 S
Co112 O116 2.004 . S
Co112 O122 2.021 . S
Co112 O124 2.137 . S
Co112 O125 2.244 . S
O113 Co112 2.216 . S
O113 C120 1.247 1_455 S
O114 Co112 2.091 1_655 S
O114 C120 1.261 . S
C115 O124 1.247 . S
C115 O125 1.272 . S
O116 Co112 2.004 . S
O116 C121 1.259 . S
Co117 O118 2.061 . S
Co117 O123 2.052 . S
Co117 O125 2.135 . S
O118 Co117 2.061 . S
O118 C121 1.235 . S
C119 O122 1.238 . S
C119 O123 1.241 . S
C120 O113 1.247 1_655 S
C120 O114 1.261 . S
C121 O116 1.259 . S
C121 O118 1.235 . S
O122 Co112 2.021 . S
O122 C119 1.238 . S
O123 Co117 2.052 . S
O123 C119 1.241 . S
O124 Co112 2.137 . S
O124 C115 1.247 . S
O125 Co112 2.244 . S
O125 C115 1.272 . S
O125 Co117 2.135 . S
Co126 O127 2.216 . S
Co126 O128 2.091 . S
Co126 O130 2.004 . S
Co126 O136 2.021 . S
Co126 O138 2.137 . S
Co126 O139 2.244 . S
O127 Co126 2.216 . S
O127 C134 1.247 . S
O128 Co126 2.091 . S
O128 C134 1.261 . S
C129 O138 1.247 . S
C129 O139 1.272 . S
O130 Co126 2.004 . S
O130 C135 1.259 . S
Co131 O132 2.061 . S
Co131 O137 2.052 . S
Co131 O139 2.135 . S
O132 Co131 2.061 . S
O132 C135 1.235 . S
C133 O136 1.238 . S
C133 O137 1.241 . S
C134 O127 1.247 . S
C134 O128 1.261 . S
C135 O130 1.259 . S
C135 O132 1.235 . S
O136 Co126 2.021 . S
O136 C133 1.238 . S
O137 Co131 2.052 . S
O137 C133 1.241 . S
O138 Co126 2.137 . S
O138 C129 1.247 . S
O139 Co126 2.244 . S
O139 C129 1.272 . S
O139 Co131 2.135 . S
Co140 O141 2.216 . S
Co140 O142 2.091 1_455 S
Co140 O144 2.004 . S
Co140 O150 2.021 . S
Co140 O152 2.137 . S
Co140 O153 2.244 . S
O141 Co140 2.216 . S
O141 C148 1.247 1_455 S
O142 Co140 2.091 1_655 S
O142 C148 1.261 . S
C143 O152 1.247 . S
C143 O153 1.272 . S
O144 Co140 2.004 . S
O144 C149 1.259 . S
Co145 O146 2.061 . S
Co145 O151 2.052 . S
Co145 O153 2.135 . S
O146 Co145 2.061 . S
O146 C149 1.235 . S
C147 O150 1.238 . S
C147 O151 1.241 . S
C148 O141 1.247 1_655 S
C148 O142 1.261 . S
C149 O144 1.259 . S
C149 O146 1.235 . S
O150 Co140 2.021 . S
O150 C147 1.238 . S
O151 Co145 2.052 . S
O151 C147 1.241 . S
O152 Co140 2.137 . S
O152 C143 1.247 . S
O153 Co140 2.244 . S
O153 C143 1.272 . S
O153 Co145 2.135 . S
Co154 O155 2.216 . S
Co154 O156 2.091 . S
Co154 O158 2.004 . S
Co154 O164 2.021 . S
Co154 O166 2.137 . S
Co154 O167 2.244 . S
O155 Co154 2.216 . S
O155 C162 1.247 . S
O156 Co154 2.091 . S
O156 C162 1.261 . S
C157 O166 1.247 . S
C157 O167 1.272 . S
O158 Co154 2.004 . S
O158 C163 1.259 . S
Co159 O160 2.061 . S
Co159 O165 2.052 . S
Co159 O167 2.135 . S
O160 Co159 2.061 . S
O160 C163 1.235 . S
C161 O164 1.238 . S
C161 O165 1.241 . S
C162 O155 1.247 . S
C162 O156 1.261 . S
C163 O158 1.259 . S
C163 O160 1.235 . S
O164 Co154 2.021 . S
O164 C161 1.238 . S
O165 Co159 2.052 . S
O165 C161 1.241 . S
O166 Co154 2.137 . S
O166 C157 1.247 . S
O167 Co154 2.244 . S
O167 C157 1.272 . S
O167 Co159 2.135 . S
Co168 O169 2.216 . S
Co168 O170 2.091 1_655 S
Co168 O172 2.004 . S
Co168 O178 2.021 . S
Co168 O180 2.137 . S
Co168 O181 2.244 . S
O169 Co168 2.216 . S
O169 C176 1.247 1_655 S
O170 Co168 2.091 1_455 S
O170 C176 1.261 . S
C171 O180 1.247 . S
C171 O181 1.272 . S
O172 Co168 2.004 . S
O172 C177 1.259 . S
Co173 O174 2.061 . S
Co173 O179 2.052 . S
Co173 O181 2.135 . S
O174 Co173 2.061 . S
O174 C177 1.235 . S
C175 O178 1.238 . S
C175 O179 1.241 . S
C176 O169 1.247 1_455 S
C176 O170 1.261 . S
C177 O172 1.259 . S
C177 O174 1.235 . S
O178 Co168 2.021 . S
O178 C175 1.238 . S
O179 Co173 2.052 . S
O179 C175 1.241 . S
O180 Co168 2.137 . S
O180 C171 1.247 . S
O181 Co168 2.244 . S
O181 C171 1.272 . S
O181 Co173 2.135 . S
Co182 O183 2.216 . S
Co182 O184 2.091 . S
Co182 O186 2.004 . S
Co182 O192 2.021 . S
Co182 O194 2.137 . S
Co182 O195 2.244 . S
O183 Co182 2.216 . S
O183 C190 1.247 . S
O184 Co182 2.091 . S
O184 C190 1.261 . S
C185 O194 1.247 . S
C185 O195 1.272 . S
O186 Co182 2.004 . S
O186 C191 1.259 . S
Co187 O188 2.061 . S
Co187 O193 2.052 . S
Co187 O195 2.135 . S
O188 Co187 2.061 . S
O188 C191 1.235 . S
C189 O192 1.238 . S
C189 O193 1.241 . S
C190 O183 1.247 . S
C190 O184 1.261 . S
C191 O186 1.259 . S
C191 O188 1.235 . S
O192 Co182 2.021 . S
O192 C189 1.238 . S
O193 Co187 2.052 . S
O193 C189 1.241 . S
O194 Co182 2.137 . S
O194 C185 1.247 . S
O195 Co182 2.244 . S
O195 C185 1.272 . S
O195 Co187 2.135 . S
Co196 O197 2.216 . S
Co196 O198 2.091 1_655 S
Co196 O200 2.004 . S
Co196 O206 2.021 . S
Co196 O208 2.137 . S
Co196 O209 2.244 . S
O197 Co196 2.216 . S
O197 C204 1.247 1_655 S
O198 Co196 2.091 1_455 S
O198 C204 1.261 . S
C199 O208 1.247 . S
C199 O209 1.272 . S
O200 Co196 2.004 . S
O200 C205 1.259 . S
Co201 O202 2.061 . S
Co201 O207 2.052 . S
Co201 O209 2.135 . S
O202 Co201 2.061 . S
O202 C205 1.235 . S
C203 O206 1.238 . S
C203 O207 1.241 . S
C204 O197 1.247 1_455 S
C204 O198 1.261 . S
C205 O200 1.259 . S
C205 O202 1.235 . S
O206 Co196 2.021 . S
O206 C203 1.238 . S
O207 Co201 2.052 . S
O207 C203 1.241 . S
O208 Co196 2.137 . S
O208 C199 1.247 . S
O209 Co196 2.244 . S
O209 C199 1.272 . S
O209 Co201 2.135 . S
Co210 O211 2.216 . S
Co210 O212 2.091 . S
Co210 O214 2.004 . S
Co210 O220 2.021 . S
Co210 O222 2.137 . S
Co210 O223 2.244 . S
O211 Co210 2.216 . S
O211 C218 1.247 . S
O212 Co210 2.091 . S
O212 C218 1.261 . S
C213 O222 1.247 . S
C213 O223 1.272 . S
O214 Co210 2.004 . S
O214 C219 1.259 . S
Co215 O216 2.061 . S
Co215 O221 2.052 . S
Co215 O223 2.135 . S
O216 Co215 2.061 . S
O216 C219 1.235 . S
C217 O220 1.238 . S
C217 O221 1.241 . S
C218 O211 1.247 . S
C218 O212 1.261 . S
C219 O214 1.259 . S
C219 O216 1.235 . S
O220 Co210 2.021 . S
O220 C217 1.238 . S
O221 Co215 2.052 . S
O221 C217 1.241 . S
O222 Co210 2.137 . S
O222 C213 1.247 . S
O223 Co210 2.244 . S
O223 C213 1.272 . S
O223 Co215 2.135 . S
Co224 O225 2.216 . S
Co224 O226 2.091 . S
Co224 O228 2.004 . S
Co224 O234 2.021 . S
Co224 O236 2.137 . S
Co224 O237 2.244 . S
O225 Co224 2.216 . S
O225 C232 1.247 . S
O226 Co224 2.091 . S
O226 C232 1.261 . S
C227 O236 1.247 . S
C227 O237 1.272 . S
O228 Co224 2.004 . S
O228 C233 1.259 . S
Co229 O230 2.061 . S
Co229 O235 2.052 . S
Co229 O237 2.135 . S
O230 Co229 2.061 . S
O230 C233 1.235 . S
C231 O234 1.238 . S
C231 O235 1.241 . S
C232 O225 1.247 . S
C232 O226 1.261 . S
C233 O228 1.259 . S
C233 O230 1.235 . S
O234 Co224 2.021 . S
O234 C231 1.238 . S
O235 Co229 2.052 . S
O235 C231 1.241 . S
O236 Co224 2.137 . S
O236 C227 1.247 . S
O237 Co224 2.244 . S
O237 C227 1.272 . S
O237 Co229 2.135 . S
Co238 O239 2.216 . S
Co238 O240 2.091 . S
Co238 O242 2.004 . S
Co238 O248 2.021 . S
Co238 O250 2.137 . S
Co238 O251 2.244 . S
O239 Co238 2.216 . S
O239 C246 1.247 . S
O240 Co238 2.091 . S
O240 C246 1.261 . S
C241 O250 1.247 . S
C241 O251 1.272 . S
O242 Co238 2.004 . S
O242 C247 1.259 . S
Co243 O244 2.061 . S
Co243 O249 2.052 . S
Co243 O251 2.135 . S
O244 Co243 2.061 . S
O244 C247 1.235 . S
C245 O248 1.238 . S
C245 O249 1.241 . S
C246 O239 1.247 . S
C246 O240 1.261 . S
C247 O242 1.259 . S
C247 O244 1.235 . S
O248 Co238 2.021 . S
O248 C245 1.238 . S
O249 Co243 2.052 . S
O249 C245 1.241 . S
O250 Co238 2.137 . S
O250 C241 1.247 . S
O251 Co238 2.244 . S
O251 C241 1.272 . S
O251 Co243 2.135 . S
Co252 O253 2.216 . S
Co252 O254 2.091 . S
Co252 O256 2.004 . S
Co252 O262 2.021 . S
Co252 O264 2.137 . S
Co252 O265 2.244 . S
O253 Co252 2.216 . S
O253 C260 1.247 . S
O254 Co252 2.091 . S
O254 C260 1.261 . S
C255 O264 1.247 . S
C255 O265 1.272 . S
O256 Co252 2.004 . S
O256 C261 1.259 . S
Co257 O258 2.061 . S
Co257 O263 2.052 . S
Co257 O265 2.135 . S
O258 Co257 2.061 . S
O258 C261 1.235 . S
C259 O262 1.238 . S
C259 O263 1.241 . S
C260 O253 1.247 . S
C260 O254 1.261 . S
C261 O256 1.259 . S
C261 O258 1.235 . S
O262 Co252 2.021 . S
O262 C259 1.238 . S
O263 Co257 2.052 . S
O263 C259 1.241 . S
O264 Co252 2.137 . S
O264 C255 1.247 . S
O265 Co252 2.244 . S
O265 C255 1.272 . S
O265 Co257 2.135 . S
Co266 O267 2.216 . S
Co266 O268 2.091 . S
Co266 O270 2.004 . S
Co266 O276 2.021 . S
Co266 O278 2.137 . S
Co266 O279 2.244 . S
O267 Co266 2.216 . S
O267 C274 1.247 . S
O268 Co266 2.091 . S
O268 C274 1.261 . S
C269 O278 1.247 . S
C269 O279 1.272 . S
O270 Co266 2.004 . S
O270 C275 1.259 . S
Co271 O272 2.061 . S
Co271 O277 2.052 . S
Co271 O279 2.135 . S
O272 Co271 2.061 . S
O272 C275 1.235 . S
C273 O276 1.238 . S
C273 O277 1.241 . S
C274 O267 1.247 . S
C274 O268 1.261 . S
C275 O270 1.259 . S
C275 O272 1.235 . S
O276 Co266 2.021 . S
O276 C273 1.238 . S
O277 Co271 2.052 . S
O277 C273 1.241 . S
O278 Co266 2.137 . S
O278 C269 1.247 . S
O279 Co266 2.244 . S
O279 C269 1.272 . S
O279 Co271 2.135 . S
Co280 O281 2.216 . S
Co280 O282 2.091 . S
Co280 O284 2.004 . S
Co280 O290 2.021 . S
Co280 O292 2.137 . S
Co280 O293 2.244 . S
O281 Co280 2.216 . S
O281 C288 1.247 . S
O282 Co280 2.091 . S
O282 C288 1.261 . S
C283 O292 1.247 . S
C283 O293 1.272 . S
O284 Co280 2.004 . S
O284 C289 1.259 . S
Co285 O286 2.061 . S
Co285 O291 2.052 . S
Co285 O293 2.135 . S
O286 Co285 2.061 . S
O286 C289 1.235 . S
C287 O290 1.238 . S
C287 O291 1.241 . S
C288 O281 1.247 . S
C288 O282 1.261 . S
C289 O284 1.259 . S
C289 O286 1.235 . S
O290 Co280 2.021 . S
O290 C287 1.238 . S
O291 Co285 2.052 . S
O291 C287 1.241 . S
O292 Co280 2.137 . S
O292 C283 1.247 . S
O293 Co280 2.244 . S
O293 C283 1.272 . S
O293 Co285 2.135 . S
Co294 O295 2.216 . S
Co294 O296 2.091 . S
Co294 O298 2.004 . S
Co294 O304 2.021 . S
Co294 O306 2.137 . S
Co294 O307 2.244 . S
O295 Co294 2.216 . S
O295 C302 1.247 . S
O296 Co294 2.091 . S
O296 C302 1.261 . S
C297 O306 1.247 . S
C297 O307 1.272 . S
O298 Co294 2.004 . S
O298 C303 1.259 . S
Co299 O300 2.061 . S
Co299 O305 2.052 . S
Co299 O307 2.135 . S
O300 Co299 2.061 . S
O300 C303 1.235 . S
C301 O304 1.238 . S
C301 O305 1.241 . S
C302 O295 1.247 . S
C302 O296 1.261 . S
C303 O298 1.259 . S
C303 O300 1.235 . S
O304 Co294 2.021 . S
O304 C301 1.238 . S
O305 Co299 2.052 . S
O305 C301 1.241 . S
O306 Co294 2.137 . S
O306 C297 1.247 . S
O307 Co294 2.244 . S
O307 C297 1.272 . S
O307 Co299 2.135 . S
Co308 O309 2.216 . S
Co308 O310 2.091 . S
Co308 O312 2.004 . S
Co308 O318 2.021 . S
Co308 O320 2.137 . S
Co308 O321 2.244 . S
O309 Co308 2.216 . S
O309 C316 1.247 . S
O310 Co308 2.091 . S
O310 C316 1.261 . S
C311 O320 1.247 . S
C311 O321 1.272 . S
O312 Co308 2.004 . S
O312 C317 1.259 . S
Co313 O314 2.061 . S
Co313 O319 2.052 . S
Co313 O321 2.135 . S
O314 Co313 2.061 . S
O314 C317 1.235 . S
C315 O318 1.238 . S
C315 O319 1.241 . S
C316 O309 1.247 . S
C316 O310 1.261 . S
C317 O312 1.259 . S
C317 O314 1.235 . S
O318 Co308 2.021 . S
O318 C315 1.238 . S
O319 Co313 2.052 . S
O319 C315 1.241 . S
O320 Co308 2.137 . S
O320 C311 1.247 . S
O321 Co308 2.244 . S
O321 C311 1.272 . S
O321 Co313 2.135 . S
Co322 O323 2.216 . S
Co322 O324 2.091 . S
Co322 O326 2.004 . S
Co322 O332 2.021 . S
Co322 O334 2.137 . S
Co322 O335 2.244 . S
O323 Co322 2.216 . S
O323 C330 1.247 . S
O324 Co322 2.091 . S
O324 C330 1.261 . S
C325 O334 1.247 . S
C325 O335 1.272 . S
O326 Co322 2.004 . S
O326 C331 1.259 . S
Co327 O328 2.061 . S
Co327 O333 2.052 . S
Co327 O335 2.135 . S
O328 Co327 2.061 . S
O328 C331 1.235 . S
C329 O332 1.238 . S
C329 O333 1.241 . S
C330 O323 1.247 . S
C330 O324 1.261 . S
C331 O326 1.259 . S
C331 O328 1.235 . S
O332 Co322 2.021 . S
O332 C329 1.238 . S
O333 Co327 2.052 . S
O333 C329 1.241 . S
O334 Co322 2.137 . S
O334 C325 1.247 . S
O335 Co322 2.244 . S
O335 C325 1.272 . S
O335 Co327 2.135 . S
Co336 O337 2.216 . S
Co336 O338 2.091 . S
Co336 O340 2.004 . S
Co336 O346 2.021 . S
Co336 O348 2.137 . S
Co336 O349 2.244 . S
O337 Co336 2.216 . S
O337 C344 1.247 . S
O338 Co336 2.091 . S
O338 C344 1.261 . S
C339 O348 1.247 . S
C339 O349 1.272 . S
O340 Co336 2.004 . S
O340 C345 1.259 . S
Co341 O342 2.061 . S
Co341 O347 2.052 . S
Co341 O349 2.135 . S
O342 Co341 2.061 . S
O342 C345 1.235 . S
C343 O346 1.238 . S
C343 O347 1.241 . S
C344 O337 1.247 . S
C344 O338 1.261 . S
C345 O340 1.259 . S
C345 O342 1.235 . S
O346 Co336 2.021 . S
O346 C343 1.238 . S
O347 Co341 2.052 . S
O347 C343 1.241 . S
O348 Co336 2.137 . S
O348 C339 1.247 . S
O349 Co336 2.244 . S
O349 C339 1.272 . S
O349 Co341 2.135 . S
Co350 O351 2.216 . S
Co350 O352 2.091 . S
Co350 O354 2.004 . S
Co350 O360 2.021 . S
Co350 O362 2.137 . S
Co350 O363 2.244 . S
O351 Co350 2.216 . S
O351 C358 1.247 . S
O352 Co350 2.091 . S
O352 C358 1.261 . S
C353 O362 1.247 . S
C353 O363 1.272 . S
O354 Co350 2.004 . S
O354 C359 1.259 . S
Co355 O356 2.061 . S
Co355 O361 2.052 . S
Co355 O363 2.135 . S
O356 Co355 2.061 . S
O356 C359 1.235 . S
C357 O360 1.238 . S
C357 O361 1.241 . S
C358 O351 1.247 . S
C358 O352 1.261 . S
C359 O354 1.259 . S
C359 O356 1.235 . S
O360 Co350 2.021 . S
O360 C357 1.238 . S
O361 Co355 2.052 . S
O361 C357 1.241 . S
O362 Co350 2.137 . S
O362 C353 1.247 . S
O363 Co350 2.244 . S
O363 C353 1.272 . S
O363 Co355 2.135 . S
Co364 O365 2.216 . S
Co364 O366 2.091 . S
Co364 O368 2.004 1_556 S
Co364 O374 2.021 . S
Co364 O376 2.137 . S
Co364 O377 2.244 . S
O365 Co364 2.216 . S
O365 C372 1.247 . S
O366 Co364 2.091 . S
O366 C372 1.261 . S
C367 O376 1.247 . S
C367 O377 1.272 . S
O368 Co364 2.004 1_554 S
O368 C373 1.259 . S
Co369 O370 2.061 . S
Co369 O375 2.052 1_554 S
Co369 O377 2.135 1_554 S
O370 Co369 2.061 . S
O370 C373 1.235 . S
C371 O374 1.238 . S
C371 O375 1.241 . S
C372 O365 1.247 . S
C372 O366 1.261 . S
C373 O368 1.259 . S
C373 O370 1.235 . S
O374 Co364 2.021 . S
O374 C371 1.238 . S
O375 Co369 2.052 1_556 S
O375 C371 1.241 . S
O376 Co364 2.137 . S
O376 C367 1.247 . S
O377 Co364 2.244 . S
O377 C367 1.272 . S
O377 Co369 2.135 1_556 S
Co378 O379 2.216 . S
Co378 O380 2.091 . S
Co378 O382 2.004 1_556 S
Co378 O388 2.021 . S
Co378 O390 2.137 . S
Co378 O391 2.244 . S
O379 Co378 2.216 . S
O379 C386 1.247 . S
O380 Co378 2.091 . S
O380 C386 1.261 . S
C381 O390 1.247 . S
C381 O391 1.272 . S
O382 Co378 2.004 1_554 S
O382 C387 1.259 . S
Co383 O384 2.061 . S
Co383 O389 2.052 1_554 S
Co383 O391 2.135 1_554 S
O384 Co383 2.061 . S
O384 C387 1.235 . S
C385 O388 1.238 . S
C385 O389 1.241 . S
C386 O379 1.247 . S
C386 O380 1.261 . S
C387 O382 1.259 . S
C387 O384 1.235 . S
O388 Co378 2.021 . S
O388 C385 1.238 . S
O389 Co383 2.052 1_556 S
O389 C385 1.241 . S
O390 Co378 2.137 . S
O390 C381 1.247 . S
O391 Co378 2.244 . S
O391 C381 1.272 . S
O391 Co383 2.135 1_556 S
Co392 O393 2.216 . S
Co392 O394 2.091 . S
Co392 O396 2.004 . S
Co392 O402 2.021 . S
Co392 O404 2.137 . S
Co392 O405 2.244 . S
O393 Co392 2.216 . S
O393 C400 1.247 . S
O394 Co392 2.091 . S
O394 C400 1.261 . S
C395 O404 1.247 . S
C395 O405 1.272 . S
O396 Co392 2.004 . S
O396 C401 1.259 . S
Co397 O398 2.061 . S
Co397 O403 2.052 . S
Co397 O405 2.135 . S
O398 Co397 2.061 . S
O398 C401 1.235 . S
C399 O402 1.238 . S
C399 O403 1.241 . S
C400 O393 1.247 . S
C400 O394 1.261 . S
C401 O396 1.259 . S
C401 O398 1.235 . S
O402 Co392 2.021 . S
O402 C399 1.238 . S
O403 Co397 2.052 . S
O403 C399 1.241 . S
O404 Co392 2.137 . S
O404 C395 1.247 . S
O405 Co392 2.244 . S
O405 C395 1.272 . S
O405 Co397 2.135 . S
Co406 O407 2.216 . S
Co406 O408 2.091 . S
Co406 O410 2.004 . S
Co406 O416 2.021 . S
Co406 O418 2.137 . S
Co406 O419 2.244 . S
O407 Co406 2.216 . S
O407 C414 1.247 . S
O408 Co406 2.091 . S
O408 C414 1.261 . S
C409 O418 1.247 . S
C409 O419 1.272 . S
O410 Co406 2.004 . S
O410 C415 1.259 . S
Co411 O412 2.061 . S
Co411 O417 2.052 . S
Co411 O419 2.135 . S
O412 Co411 2.061 . S
O412 C415 1.235 . S
C413 O416 1.238 . S
C413 O417 1.241 . S
C414 O407 1.247 . S
C414 O408 1.261 . S
C415 O410 1.259 . S
C415 O412 1.235 . S
O416 Co406 2.021 . S
O416 C413 1.238 . S
O417 Co411 2.052 . S
O417 C413 1.241 . S
O418 Co406 2.137 . S
O418 C409 1.247 . S
O419 Co406 2.244 . S
O419 C409 1.272 . S
O419 Co411 2.135 . S
Co420 O421 2.216 . S
Co420 O422 2.091 . S
Co420 O424 2.004 1_554 S
Co420 O430 2.021 . S
Co420 O432 2.137 . S
Co420 O433 2.244 . S
O421 Co420 2.216 . S
O421 C428 1.247 . S
O422 Co420 2.091 . S
O422 C428 1.261 . S
C423 O432 1.247 . S
C423 O433 1.272 . S
O424 Co420 2.004 1_556 S
O424 C429 1.259 . S
Co425 O426 2.061 . S
Co425 O431 2.052 1_556 S
Co425 O433 2.135 1_556 S
O426 Co425 2.061 . S
O426 C429 1.235 . S
C427 O430 1.238 . S
C427 O431 1.241 . S
C428 O421 1.247 . S
C428 O422 1.261 . S
C429 O424 1.259 . S
C429 O426 1.235 . S
O430 Co420 2.021 . S
O430 C427 1.238 . S
O431 Co425 2.052 1_554 S
O431 C427 1.241 . S
O432 Co420 2.137 . S
O432 C423 1.247 . S
O433 Co420 2.244 . S
O433 C423 1.272 . S
O433 Co425 2.135 1_554 S
Co434 O435 2.216 . S
Co434 O436 2.091 . S
Co434 O438 2.004 1_554 S
Co434 O444 2.021 . S
Co434 O446 2.137 . S
Co434 O447 2.244 . S
O435 Co434 2.216 . S
O435 C442 1.247 . S
O436 Co434 2.091 . S
O436 C442 1.261 . S
C437 O446 1.247 . S
C437 O447 1.272 . S
O438 Co434 2.004 1_556 S
O438 C443 1.259 . S
Co439 O440 2.061 . S
Co439 O445 2.052 1_556 S
Co439 O447 2.135 1_556 S
O440 Co439 2.061 . S
O440 C443 1.235 . S
C441 O444 1.238 . S
C441 O445 1.241 . S
C442 O435 1.247 . S
C442 O436 1.261 . S
C443 O438 1.259 . S
C443 O440 1.235 . S
O444 Co434 2.021 . S
O444 C441 1.238 . S
O445 Co439 2.052 1_554 S
O445 C441 1.241 . S
O446 Co434 2.137 . S
O446 C437 1.247 . S
O447 Co434 2.244 . S
O447 C437 1.272 . S
O447 Co439 2.135 1_554 S
H448 C454 0.930 . S
H449 C458 0.930 . S
H450 C463 0.929 . S
H451 C461 0.929 . S
H452 C456 0.929 . S
H453 C462 0.929 . S
C454 H448 0.930 . S
C454 C455 1.367 . S
C454 C462 1.378 . S
C455 C454 1.367 . S
C455 C463 1.433 . S
C456 H452 0.929 . S
C456 C458 1.378 . S
C456 C460 1.350 . S
C457 C460 1.463 . S
C457 C462 1.350 . S
C457 N465 1.427 . S
C458 H449 0.930 . S
C458 C456 1.378 . S
C458 C459 1.367 . S
C459 C458 1.367 . S
C459 C461 1.433 . S
C460 C456 1.350 . S
C460 C457 1.463 . S
C460 N464 1.427 . S
C461 H451 0.929 . S
C461 C459 1.433 . S
C461 N464 1.384 . S
C462 H453 0.929 . S
C462 C454 1.378 . S
C462 C457 1.350 . S
C463 H450 0.929 . S
C463 C455 1.433 . S
C463 N465 1.384 . S
N464 C460 1.427 . S
N464 C461 1.384 . S
N465 C457 1.427 . S
N465 C463 1.384 . S
H466 C472 0.930 . S
H467 C476 0.930 . S
H468 C481 0.929 . S
H469 C479 0.929 . S
H470 C474 0.929 . S
H471 C480 0.929 . S
C472 H466 0.930 . S
C472 C473 1.367 . S
C472 C480 1.378 . S
C473 C472 1.367 . S
C473 C481 1.433 . S
C474 H470 0.929 . S
C474 C476 1.378 . S
C474 C478 1.350 . S
C475 C478 1.463 . S
C475 C480 1.350 . S
C475 N483 1.427 . S
C476 H467 0.930 . S
C476 C474 1.378 . S
C476 C477 1.367 . S
C477 C476 1.367 . S
C477 C479 1.433 . S
C478 C474 1.350 . S
C478 C475 1.463 . S
C478 N482 1.427 . S
C479 H469 0.929 . S
C479 C477 1.433 . S
C479 N482 1.384 . S
C480 H471 0.929 . S
C480 C472 1.378 . S
C480 C475 1.350 . S
C481 H468 0.929 . S
C481 C473 1.433 . S
C481 N483 1.384 . S
N482 C478 1.427 . S
N482 C479 1.384 . S
N483 C475 1.427 . S
N483 C481 1.384 . S
H484 C490 0.930 . S
H485 C494 0.930 . S
H486 C499 0.929 . S
H487 C497 0.929 . S
H488 C492 0.929 . S
H489 C498 0.929 . S
C490 H484 0.930 . S
C490 C491 1.367 . S
C490 C498 1.378 . S
C491 C490 1.367 . S
C491 C499 1.433 . S
C492 H488 0.929 . S
C492 C494 1.378 . S
C492 C496 1.350 . S
C493 C496 1.463 . S
C493 C498 1.350 . S
C493 N501 1.427 . S
C494 H485 0.930 . S
C494 C492 1.378 . S
C494 C495 1.367 . S
C495 C494 1.367 . S
C495 C497 1.433 . S
C496 C492 1.350 . S
C496 C493 1.463 . S
C496 N500 1.427 . S
C497 H487 0.929 . S
C497 C495 1.433 . S
C497 N500 1.384 . S
C498 H489 0.929 . S
C498 C490 1.378 . S
C498 C493 1.350 . S
C499 H486 0.929 . S
C499 C491 1.433 . S
C499 N501 1.384 . S
N500 C496 1.427 . S
N500 C497 1.384 . S
N501 C493 1.427 . S
N501 C499 1.384 . S
H502 C508 0.930 1_455 S
H503 C512 0.930 . S
H504 C517 0.929 . S
H505 C515 0.929 . S
H506 C510 0.929 . S
H507 C516 0.929 . S
C508 H502 0.930 1_655 S
C508 C509 1.367 . S
C508 C516 1.378 . S
C509 C508 1.367 . S
C509 C517 1.433 . S
C510 H506 0.929 . S
C510 C512 1.378 . S
C510 C514 1.350 . S
C511 C514 1.463 . S
C511 C516 1.350 . S
C511 N519 1.427 . S
C512 H503 0.930 . S
C512 C510 1.378 . S
C512 C513 1.367 . S
C513 C512 1.367 . S
C513 C515 1.433 . S
C514 C510 1.350 . S
C514 C511 1.463 . S
C514 N518 1.427 . S
C515 H505 0.929 . S
C515 C513 1.433 . S
C515 N518 1.384 . S
C516 H507 0.929 . S
C516 C508 1.378 . S
C516 C511 1.350 . S
C517 H504 0.929 . S
C517 C509 1.433 . S
C517 N519 1.384 . S
N518 C514 1.427 . S
N518 C515 1.384 . S
N519 C511 1.427 . S
N519 C517 1.384 . S
H520 C526 0.930 . S
H521 C530 0.930 . S
H522 C535 0.929 . S
H523 C533 0.929 . S
H524 C528 0.929 . S
H525 C534 0.929 . S
C526 H520 0.930 . S
C526 C527 1.367 . S
C526 C534 1.378 . S
C527 C526 1.367 . S
C527 C535 1.433 . S
C528 H524 0.929 . S
C528 C530 1.378 . S
C528 C532 1.350 . S
C529 C532 1.463 . S
C529 C534 1.350 . S
C529 N537 1.427 . S
C530 H521 0.930 . S
C530 C528 1.378 . S
C530 C531 1.367 . S
C531 C530 1.367 . S
C531 C533 1.433 . S
C532 C528 1.350 . S
C532 C529 1.463 . S
C532 N536 1.427 . S
C533 H523 0.929 . S
C533 C531 1.433 . S
C533 N536 1.384 . S
C534 H525 0.929 . S
C534 C526 1.378 . S
C534 C529 1.350 . S
C535 H522 0.929 . S
C535 C527 1.433 . S
C535 N537 1.384 . S
N536 C532 1.427 . S
N536 C533 1.384 . S
N537 C529 1.427 . S
N537 C535 1.384 . S
H538 C544 0.930 . S
H539 C548 0.930 . S
H540 C553 0.929 . S
H541 C551 0.929 . S
H542 C546 0.929 . S
H543 C552 0.929 . S
C544 H538 0.930 . S
C544 C545 1.367 . S
C544 C552 1.378 . S
C545 C544 1.367 . S
C545 C553 1.433 . S
C546 H542 0.929 . S
C546 C548 1.378 . S
C546 C550 1.350 . S
C547 C550 1.463 . S
C547 C552 1.350 . S
C547 N555 1.427 . S
C548 H539 0.930 . S
C548 C546 1.378 . S
C548 C549 1.367 . S
C549 C548 1.367 . S
C549 C551 1.433 . S
C550 C546 1.350 . S
C550 C547 1.463 . S
C550 N554 1.427 . S
C551 H541 0.929 . S
C551 C549 1.433 . S
C551 N554 1.384 . S
C552 H543 0.929 . S
C552 C544 1.378 . S
C552 C547 1.350 . S
C553 H540 0.929 . S
C553 C545 1.433 . S
C553 N555 1.384 . S
N554 C550 1.427 . S
N554 C551 1.384 . S
N555 C547 1.427 . S
N555 C553 1.384 . S
H556 C562 0.930 . S
H557 C566 0.930 1_455 S
H558 C571 0.929 . S
H559 C569 0.929 . S
H560 C564 0.929 . S
H561 C570 0.929 . S
C562 H556 0.930 . S
C562 C563 1.367 . S
C562 C570 1.378 . S
C563 C562 1.367 . S
C563 C571 1.433 . S
C564 H560 0.929 . S
C564 C566 1.378 . S
C564 C568 1.350 . S
C565 C568 1.463 . S
C565 C570 1.350 . S
C565 N573 1.427 . S
C566 H557 0.930 1_655 S
C566 C564 1.378 . S
C566 C567 1.367 . S
C567 C566 1.367 . S
C567 C569 1.433 . S
C568 C564 1.350 . S
C568 C565 1.463 . S
C568 N572 1.427 . S
C569 H559 0.929 . S
C569 C567 1.433 . S
C569 N572 1.384 . S
C570 H561 0.929 . S
C570 C562 1.378 . S
C570 C565 1.350 . S
C571 H558 0.929 . S
C571 C563 1.433 . S
C571 N573 1.384 . S
N572 C568 1.427 . S
N572 C569 1.384 . S
N573 C565 1.427 . S
N573 C571 1.384 . S
H574 C580 0.930 . S
H575 C584 0.930 . S
H576 C589 0.929 . S
H577 C587 0.929 . S
H578 C582 0.929 . S
H579 C588 0.929 . S
C580 H574 0.930 . S
C580 C581 1.367 . S
C580 C588 1.378 . S
C581 C580 1.367 . S
C581 C589 1.433 . S
C582 H578 0.929 . S
C582 C584 1.378 . S
C582 C586 1.350 . S
C583 C586 1.463 . S
C583 C588 1.350 . S
C583 N591 1.427 . S
C584 H575 0.930 . S
C584 C582 1.378 . S
C584 C585 1.367 . S
C585 C584 1.367 . S
C585 C587 1.433 . S
C586 C582 1.350 . S
C586 C583 1.463 . S
C586 N590 1.427 . S
C587 H577 0.929 . S
C587 C585 1.433 . S
C587 N590 1.384 . S
C588 H579 0.929 . S
C588 C580 1.378 . S
C588 C583 1.350 . S
C589 H576 0.929 . S
C589 C581 1.433 . S
C589 N591 1.384 . S
N590 C586 1.427 . S
N590 C587 1.384 . S
N591 C583 1.427 . S
N591 C589 1.384 . S
H592 C598 0.930 . S
H593 C602 0.930 . S
H594 C607 0.929 . S
H595 C605 0.929 . S
H596 C600 0.929 . S
H597 C606 0.929 . S
C598 H592 0.930 . S
C598 C599 1.367 . S
C598 C606 1.378 . S
C599 C598 1.367 . S
C599 C607 1.433 . S
C600 H596 0.929 . S
C600 C602 1.378 . S
C600 C604 1.350 . S
C601 C604 1.463 . S
C601 C606 1.350 . S
C601 N609 1.427 . S
C602 H593 0.930 . S
C602 C600 1.378 . S
C602 C603 1.367 . S
C603 C602 1.367 . S
C603 C605 1.433 . S
C604 C600 1.350 . S
C604 C601 1.463 . S
C604 N608 1.427 . S
C605 H595 0.929 . S
C605 C603 1.433 . S
C605 N608 1.384 . S
C606 H597 0.929 . S
C606 C598 1.378 . S
C606 C601 1.350 . S
C607 H594 0.929 . S
C607 C599 1.433 . S
C607 N609 1.384 . S
N608 C604 1.427 . S
N608 C605 1.384 . S
N609 C601 1.427 . S
N609 C607 1.384 . S
H610 C616 0.930 . S
H611 C620 0.930 . S
H612 C625 0.929 . S
H613 C623 0.929 . S
H614 C618 0.929 . S
H615 C624 0.929 . S
C616 H610 0.930 . S
C616 C617 1.367 . S
C616 C624 1.378 . S
C617 C616 1.367 . S
C617 C625 1.433 . S
C618 H614 0.929 . S
C618 C620 1.378 . S
C618 C622 1.350 . S
C619 C622 1.463 . S
C619 C624 1.350 . S
C619 N627 1.427 . S
C620 H611 0.930 . S
C620 C618 1.378 . S
C620 C621 1.367 . S
C621 C620 1.367 . S
C621 C623 1.433 . S
C622 C618 1.350 . S
C622 C619 1.463 . S
C622 N626 1.427 . S
C623 H613 0.929 . S
C623 C621 1.433 . S
C623 N626 1.384 . S
C624 H615 0.929 . S
C624 C616 1.378 . S
C624 C619 1.350 . S
C625 H612 0.929 . S
C625 C617 1.433 . S
C625 N627 1.384 . S
N626 C622 1.427 . S
N626 C623 1.384 . S
N627 C619 1.427 . S
N627 C625 1.384 . S
H628 C634 0.930 . S
H629 C638 0.930 . S
H630 C643 0.929 . S
H631 C641 0.929 . S
H632 C636 0.929 . S
H633 C642 0.929 . S
C634 H628 0.930 . S
C634 C635 1.367 . S
C634 C642 1.378 . S
C635 C634 1.367 . S
C635 C643 1.433 . S
C636 H632 0.929 . S
C636 C638 1.378 . S
C636 C640 1.350 . S
C637 C640 1.463 . S
C637 C642 1.350 . S
C637 N645 1.427 . S
C638 H629 0.930 . S
C638 C636 1.378 . S
C638 C639 1.367 . S
C639 C638 1.367 . S
C639 C641 1.433 . S
C640 C636 1.350 . S
C640 C637 1.463 . S
C640 N644 1.427 . S
C641 H631 0.929 . S
C641 C639 1.433 . S
C641 N644 1.384 . S
C642 H633 0.929 . S
C642 C634 1.378 . S
C642 C637 1.350 . S
C643 H630 0.929 . S
C643 C635 1.433 . S
C643 N645 1.384 . S
N644 C640 1.427 . S
N644 C641 1.384 . S
N645 C637 1.427 . S
N645 C643 1.384 . S
H646 C652 0.930 . S
H647 C656 0.930 . S
H648 C661 0.929 . S
H649 C659 0.929 . S
H650 C654 0.929 . S
H651 C660 0.929 . S
C652 H646 0.930 . S
C652 C653 1.367 . S
C652 C660 1.378 . S
C653 C652 1.367 . S
C653 C661 1.433 . S
C654 H650 0.929 . S
C654 C656 1.378 . S
C654 C658 1.350 . S
C655 C658 1.463 . S
C655 C660 1.350 . S
C655 N663 1.427 . S
C656 H647 0.930 . S
C656 C654 1.378 . S
C656 C657 1.367 . S
C657 C656 1.367 . S
C657 C659 1.433 . S
C658 C654 1.350 . S
C658 C655 1.463 . S
C658 N662 1.427 . S
C659 H649 0.929 . S
C659 C657 1.433 . S
C659 N662 1.384 . S
C660 H651 0.929 . S
C660 C652 1.378 . S
C660 C655 1.350 . S
C661 H648 0.929 . S
C661 C653 1.433 . S
C661 N663 1.384 . S
N662 C658 1.427 . S
N662 C659 1.384 . S
N663 C655 1.427 . S
N663 C661 1.384 . S
H664 C670 0.930 . S
H665 C674 0.930 . S
H666 C679 0.929 . S
H667 C677 0.929 . S
H668 C672 0.929 . S
H669 C678 0.929 . S
C670 H664 0.930 . S
C670 C671 1.367 . S
C670 C678 1.378 . S
C671 C670 1.367 . S
C671 C679 1.433 . S
C672 H668 0.929 . S
C672 C674 1.378 . S
C672 C676 1.350 . S
C673 C676 1.463 . S
C673 C678 1.350 . S
C673 N681 1.427 . S
C674 H665 0.930 . S
C674 C672 1.378 . S
C674 C675 1.367 . S
C675 C674 1.367 . S
C675 C677 1.433 . S
C676 C672 1.350 . S
C676 C673 1.463 . S
C676 N680 1.427 . S
C677 H667 0.929 . S
C677 C675 1.433 . S
C677 N680 1.384 . S
C678 H669 0.929 . S
C678 C670 1.378 . S
C678 C673 1.350 . S
C679 H666 0.929 . S
C679 C671 1.433 . S
C679 N681 1.384 . S
N680 C676 1.427 . S
N680 C677 1.384 . S
N681 C673 1.427 . S
N681 C679 1.384 . S
H682 C688 0.930 . S
H683 C692 0.930 . S
H684 C697 0.929 . S
H685 C695 0.929 . S
H686 C690 0.929 . S
H687 C696 0.929 . S
C688 H682 0.930 . S
C688 C689 1.367 . S
C688 C696 1.378 . S
C689 C688 1.367 . S
C689 C697 1.433 . S
C690 H686 0.929 . S
C690 C692 1.378 . S
C690 C694 1.350 . S
C691 C694 1.463 . S
C691 C696 1.350 . S
C691 N699 1.427 . S
C692 H683 0.930 . S
C692 C690 1.378 . S
C692 C693 1.367 . S
C693 C692 1.367 . S
C693 C695 1.433 . S
C694 C690 1.350 . S
C694 C691 1.463 . S
C694 N698 1.427 . S
C695 H685 0.929 . S
C695 C693 1.433 . S
C695 N698 1.384 . S
C696 H687 0.929 . S
C696 C688 1.378 . S
C696 C691 1.350 . S
C697 H684 0.929 . S
C697 C689 1.433 . S
C697 N699 1.384 . S
N698 C694 1.427 . S
N698 C695 1.384 . S
N699 C691 1.427 . S
N699 C697 1.384 . S
H700 C706 0.930 . S
H701 C710 0.930 . S
H702 C715 0.929 . S
H703 C713 0.929 . S
H704 C708 0.929 . S
H705 C714 0.929 . S
C706 H700 0.930 . S
C706 C707 1.367 . S
C706 C714 1.378 . S
C707 C706 1.367 . S
C707 C715 1.433 . S
C708 H704 0.929 . S
C708 C710 1.378 . S
C708 C712 1.350 . S
C709 C712 1.463 . S
C709 C714 1.350 . S
C709 N717 1.427 . S
C710 H701 0.930 . S
C710 C708 1.378 . S
C710 C711 1.367 . S
C711 C710 1.367 . S
C711 C713 1.433 . S
C712 C708 1.350 . S
C712 C709 1.463 . S
C712 N716 1.427 . S
C713 H703 0.929 . S
C713 C711 1.433 . S
C713 N716 1.384 . S
C714 H705 0.929 . S
C714 C706 1.378 . S
C714 C709 1.350 . S
C715 H702 0.929 . S
C715 C707 1.433 . S
C715 N717 1.384 . S
N716 C712 1.427 . S
N716 C713 1.384 . S
N717 C709 1.427 . S
N717 C715 1.384 . S
H718 C724 0.930 . S
H719 C728 0.930 . S
H720 C733 0.929 . S
H721 C731 0.929 . S
H722 C726 0.929 . S
H723 C732 0.929 . S
C724 H718 0.930 . S
C724 C725 1.367 . S
C724 C732 1.378 . S
C725 C724 1.367 . S
C725 C733 1.433 . S
C726 H722 0.929 . S
C726 C728 1.378 . S
C726 C730 1.350 . S
C727 C730 1.463 . S
C727 C732 1.350 . S
C727 N735 1.427 . S
C728 H719 0.930 . S
C728 C726 1.378 . S
C728 C729 1.367 . S
C729 C728 1.367 . S
C729 C731 1.433 . S
C730 C726 1.350 . S
C730 C727 1.463 . S
C730 N734 1.427 . S
C731 H721 0.929 . S
C731 C729 1.433 . S
C731 N734 1.384 . S
C732 H723 0.929 . S
C732 C724 1.378 . S
C732 C727 1.350 . S
C733 H720 0.929 . S
C733 C725 1.433 . S
C733 N735 1.384 . S
N734 C730 1.427 . S
N734 C731 1.384 . S
N735 C727 1.427 . S
N735 C733 1.384 . S
H736 C742 0.930 . S
H737 C746 0.930 . S
H738 C751 0.929 . S
H739 C749 0.929 . S
H740 C744 0.929 . S
H741 C750 0.929 . S
C742 H736 0.930 . S
C742 C743 1.367 . S
C742 C750 1.378 . S
C743 C742 1.367 . S
C743 C751 1.433 . S
C744 H740 0.929 . S
C744 C746 1.378 . S
C744 C748 1.350 . S
C745 C748 1.463 1_565 S
C745 C750 1.350 . S
C745 N753 1.427 . S
C746 H737 0.930 . S
C746 C744 1.378 . S
C746 C747 1.367 . S
C747 C746 1.367 . S
C747 C749 1.433 . S
C748 C744 1.350 . S
C748 C745 1.463 1_545 S
C748 N752 1.427 . S
C749 H739 0.929 . S
C749 C747 1.433 . S
C749 N752 1.384 . S
C750 H741 0.929 . S
C750 C742 1.378 . S
C750 C745 1.350 . S
C751 H738 0.929 . S
C751 C743 1.433 . S
C751 N753 1.384 . S
N752 C748 1.427 . S
N752 C749 1.384 . S
N753 C745 1.427 . S
N753 C751 1.384 . S
H754 C760 0.930 . S
H755 C764 0.930 . S
H756 C769 0.929 . S
H757 C767 0.929 . S
H758 C762 0.929 . S
H759 C768 0.929 . S
C760 H754 0.930 . S
C760 C761 1.367 . S
C760 C768 1.378 . S
C761 C760 1.367 . S
C761 C769 1.433 . S
C762 H758 0.929 . S
C762 C764 1.378 . S
C762 C766 1.350 . S
C763 C766 1.463 1_655 S
C763 C768 1.350 . S
C763 N771 1.427 . S
C764 H755 0.930 . S
C764 C762 1.378 . S
C764 C765 1.367 . S
C765 C764 1.367 . S
C765 C767 1.433 . S
C766 C762 1.350 . S
C766 C763 1.463 1_455 S
C766 N770 1.427 . S
C767 H757 0.929 . S
C767 C765 1.433 . S
C767 N770 1.384 . S
C768 H759 0.929 . S
C768 C760 1.378 . S
C768 C763 1.350 . S
C769 H756 0.929 . S
C769 C761 1.433 . S
C769 N771 1.384 . S
N770 C766 1.427 . S
N770 C767 1.384 . S
N771 C763 1.427 . S
N771 C769 1.384 . S
H772 C778 0.930 . S
H773 C782 0.930 . S
H774 C787 0.929 . S
H775 C785 0.929 . S
H776 C780 0.929 . S
H777 C786 0.929 . S
C778 H772 0.930 . S
C778 C779 1.367 . S
C778 C786 1.378 . S
C779 C778 1.367 . S
C779 C787 1.433 . S
C780 H776 0.929 . S
C780 C782 1.378 . S
C780 C784 1.350 . S
C781 C784 1.463 1_556 S
C781 C786 1.350 . S
C781 N789 1.427 . S
C782 H773 0.930 . S
C782 C780 1.378 . S
C782 C783 1.367 . S
C783 C782 1.367 . S
C783 C785 1.433 . S
C784 C780 1.350 . S
C784 C781 1.463 1_554 S
C784 N788 1.427 . S
C785 H775 0.929 . S
C785 C783 1.433 . S
C785 N788 1.384 . S
C786 H777 0.929 . S
C786 C778 1.378 . S
C786 C781 1.350 . S
C787 H774 0.929 . S
C787 C779 1.433 . S
C787 N789 1.384 . S
N788 C784 1.427 . S
N788 C785 1.384 . S
N789 C781 1.427 . S
N789 C787 1.384 . S
H790 C796 0.930 . S
H791 C800 0.930 . S
H792 C805 0.929 . S
H793 C803 0.929 . S
H794 C798 0.929 . S
H795 C804 0.929 . S
C796 H790 0.930 . S
C796 C797 1.367 . S
C796 C804 1.378 . S
C797 C796 1.367 . S
C797 C805 1.433 1_455 S
C798 H794 0.929 . S
C798 C800 1.378 . S
C798 C802 1.350 . S
C799 C802 1.463 1_446 S
C799 C804 1.350 . S
C799 N807 1.427 1_455 S
C800 H791 0.930 . S
C800 C798 1.378 . S
C800 C801 1.367 . S
C801 C800 1.367 . S
C801 C803 1.433 1_655 S
C802 C798 1.350 . S
C802 C799 1.463 1_664 S
C802 N806 1.427 1_655 S
C803 H793 0.929 . S
C803 C801 1.433 1_455 S
C803 N806 1.384 . S
C804 H795 0.929 . S
C804 C796 1.378 . S
C804 C799 1.350 . S
C805 H792 0.929 . S
C805 C797 1.433 1_655 S
C805 N807 1.384 . S
N806 C802 1.427 1_455 S
N806 C803 1.384 . S
N807 C799 1.427 1_655 S
N807 C805 1.384 . S
H808 C814 0.930 . S
H809 C818 0.930 . S
H810 C823 0.929 . S
H811 C821 0.929 . S
H812 C816 0.990 . S
H813 C822 0.990 . S
C814 H808 0.930 . S
C814 C815 1.367 . S
C814 C822 1.378 . S
C815 C814 1.367 . S
C815 C823 1.433 . S
C816 H812 0.990 . S
C816 C818 1.378 . S
C816 C820 1.350 . S
C817 C820 1.463 1_545 S
C817 C822 1.350 . S
C817 N825 1.427 . S
C818 H809 0.930 . S
C818 C816 1.378 . S
C818 C819 1.367 . S
C819 C818 1.367 . S
C819 C821 1.433 . S
C820 C816 1.350 . S
C820 C817 1.463 1_565 S
C820 N824 1.427 . S
C821 H811 0.929 . S
C821 C819 1.433 . S
C821 N824 1.384 . S
C822 H813 0.990 . S
C822 C814 1.378 . S
C822 C817 1.350 . S
C823 H810 0.929 . S
C823 C815 1.433 . S
C823 N825 1.384 . S
N824 C820 1.427 . S
N824 C821 1.384 . S
N825 C817 1.427 . S
N825 C823 1.384 . S
H826 C832 0.930 . S
H827 C836 0.930 . S
H828 C841 0.929 . S
H829 C839 0.929 . S
H830 C834 0.929 . S
H831 C840 0.929 . S
C832 H826 0.930 . S
C832 C833 1.367 . S
C832 C840 1.378 . S
C833 C832 1.367 . S
C833 C841 1.433 . S
C834 H830 0.929 . S
C834 C836 1.378 . S
C834 C838 1.350 . S
C835 C838 1.463 1_455 S
C835 C840 1.350 . S
C835 N843 1.427 . S
C836 H827 0.930 . S
C836 C834 1.378 . S
C836 C837 1.367 . S
C837 C836 1.367 . S
C837 C839 1.433 . S
C838 C834 1.350 . S
C838 C835 1.463 1_655 S
C838 N842 1.427 . S
C839 H829 0.929 . S
C839 C837 1.433 . S
C839 N842 1.384 . S
C840 H831 0.929 . S
C840 C832 1.378 . S
C840 C835 1.350 . S
C841 H828 0.929 . S
C841 C833 1.433 . S
C841 N843 1.384 . S
N842 C838 1.427 . S
N842 C839 1.384 . S
N843 C835 1.427 . S
N843 C841 1.384 . S
H844 C850 0.930 . S
H845 C854 0.930 . S
H846 C859 0.929 . S
H847 C857 0.929 . S
H848 C852 0.929 . S
H849 C858 0.929 . S
C850 H844 0.930 . S
C850 C851 1.367 . S
C850 C858 1.378 . S
C851 C850 1.367 . S
C851 C859 1.433 1_556 S
C852 H848 0.929 . S
C852 C854 1.378 . S
C852 C856 1.350 . S
C853 C856 1.463 1_556 S
C853 C858 1.350 . S
C853 N861 1.427 1_556 S
C854 H845 0.930 . S
C854 C852 1.378 . S
C854 C855 1.367 . S
C855 C854 1.367 . S
C855 C857 1.433 1_554 S
C856 C852 1.350 . S
C856 C853 1.463 1_554 S
C856 N860 1.427 1_554 S
C857 H847 0.929 . S
C857 C855 1.433 1_556 S
C857 N860 1.384 . S
C858 H849 0.929 . S
C858 C850 1.378 . S
C858 C853 1.350 . S
C859 H846 0.929 . S
C859 C851 1.433 1_554 S
C859 N861 1.384 . S
N860 C856 1.427 1_556 S
N860 C857 1.384 . S
N861 C853 1.427 1_554 S
N861 C859 1.384 . S
H862 C868 0.930 . S
H863 C872 0.930 . S
H864 C877 0.929 . S
H865 C875 0.929 . S
H866 C870 0.929 . S
H867 C876 0.929 . S
C868 H862 0.930 . S
C868 C869 1.367 . S
C868 C876 1.378 . S
C869 C868 1.367 . S
C869 C877 1.433 . S
C870 H866 0.929 . S
C870 C872 1.378 . S
C870 C874 1.350 . S
C871 C874 1.463 . S
C871 C876 1.350 . S
C871 N879 1.427 . S
C872 H863 0.930 . S
C872 C870 1.378 . S
C872 C873 1.367 . S
C873 C872 1.367 . S
C873 C875 1.433 . S
C874 C870 1.350 . S
C874 C871 1.463 . S
C874 N878 1.427 . S
C875 H865 0.929 . S
C875 C873 1.433 . S
C875 N878 1.384 . S
C876 H867 0.929 . S
C876 C868 1.378 . S
C876 C871 1.350 . S
C877 H864 0.929 . S
C877 C869 1.433 . S
C877 N879 1.384 . S
N878 C874 1.427 . S
N878 C875 1.384 . S
N879 C871 1.427 . S
N879 C877 1.384 . S
H880 C886 0.930 . S
H881 C890 0.930 . S
H882 C895 0.929 . S
H883 C893 0.929 . S
H884 C888 0.929 . S
H885 C894 0.929 . S
C886 H880 0.930 . S
C886 C887 1.367 . S
C886 C894 1.378 . S
C887 C886 1.367 . S
C887 C895 1.433 . S
C888 H884 0.929 . S
C888 C890 1.378 . S
C888 C892 1.350 . S
C889 C892 1.463 . S
C889 C894 1.350 . S
C889 N897 1.427 . S
C890 H881 0.930 . S
C890 C888 1.378 . S
C890 C891 1.367 . S
C891 C890 1.367 . S
C891 C893 1.433 . S
C892 C888 1.350 . S
C892 C889 1.463 . S
C892 N896 1.427 . S
C893 H883 0.929 . S
C893 C891 1.433 . S
C893 N896 1.384 . S
C894 H885 0.929 . S
C894 C886 1.378 . S
C894 C889 1.350 . S
C895 H882 0.929 . S
C895 C887 1.433 . S
C895 N897 1.384 . S
N896 C892 1.427 . S
N896 C893 1.384 . S
N897 C889 1.427 . S
N897 C895 1.384 . S
H898 C904 0.930 . S
H899 C908 0.930 . S
H900 C913 0.929 . S
H901 C911 0.929 . S
H902 C906 0.929 . S
H903 C912 0.929 . S
C904 H898 0.930 . S
C904 C905 1.367 . S
C904 C912 1.378 . S
C905 C904 1.367 . S
C905 C913 1.433 1_655 S
C906 H902 0.929 . S
C906 C908 1.378 . S
C906 C910 1.350 . S
C907 C910 1.463 1_655 S
C907 C912 1.350 . S
C907 N915 1.427 1_655 S
C908 H899 0.930 . S
C908 C906 1.378 . S
C908 C909 1.367 . S
C909 C908 1.367 . S
C909 C911 1.433 1_455 S
C910 C906 1.350 . S
C910 C907 1.463 1_455 S
C910 N914 1.427 1_455 S
C911 H901 0.929 . S
C911 C909 1.433 1_655 S
C911 N914 1.384 . S
C912 H903 0.929 . S
C912 C904 1.378 . S
C912 C907 1.350 . S
C913 H900 0.929 . S
C913 C905 1.433 1_455 S
C913 N915 1.384 . S
N914 C910 1.427 1_655 S
N914 C911 1.384 . S
N915 C907 1.427 1_455 S
N915 C913 1.384 . S
H916 C922 0.930 . S
H917 C926 0.930 . S
H918 C931 0.929 . S
H919 C929 0.929 . S
H920 C924 0.929 . S
H921 C930 0.929 . S
C922 H916 0.930 . S
C922 C923 1.367 . S
C922 C930 1.378 . S
C923 C922 1.367 . S
C923 C931 1.433 . S
C924 H920 0.929 . S
C924 C926 1.378 . S
C924 C928 1.350 . S
C925 C928 1.463 . S
C925 C930 1.350 . S
C925 N933 1.427 . S
C926 H917 0.930 . S
C926 C924 1.378 . S
C926 C927 1.367 . S
C927 C926 1.367 . S
C927 C929 1.433 . S
C928 C924 1.350 . S
C928 C925 1.463 . S
C928 N932 1.427 . S
C929 H919 0.929 . S
C929 C927 1.433 . S
C929 N932 1.384 . S
C930 H921 0.929 . S
C930 C922 1.378 . S
C930 C925 1.350 . S
C931 H918 0.929 . S
C931 C923 1.433 . S
C931 N933 1.384 . S
N932 C928 1.427 . S
N932 C929 1.384 . S
N933 C925 1.427 . S
N933 C931 1.384 . S
H934 C940 0.930 . S
H935 C944 0.930 . S
H936 C949 0.929 . S
H937 C947 0.929 . S
H938 C942 0.929 . S
H939 C948 0.929 . S
C940 H934 0.930 . S
C940 C941 1.367 . S
C940 C948 1.378 . S
C941 C940 1.367 . S
C941 C949 1.433 . S
C942 H938 0.929 . S
C942 C944 1.378 . S
C942 C946 1.350 . S
C943 C946 1.463 . S
C943 C948 1.350 . S
C943 N951 1.427 . S
C944 H935 0.930 . S
C944 C942 1.378 . S
C944 C945 1.367 . S
C945 C944 1.367 . S
C945 C947 1.433 . S
C946 C942 1.350 . S
C946 C943 1.463 . S
C946 N950 1.427 . S
C947 H937 0.929 . S
C947 C945 1.433 . S
C947 N950 1.384 . S
C948 H939 0.929 . S
C948 C940 1.378 . S
C948 C943 1.350 . S
C949 H936 0.929 . S
C949 C941 1.433 . S
C949 N951 1.384 . S
N950 C946 1.427 . S
N950 C947 1.384 . S
N951 C943 1.427 . S
N951 C949 1.384 . S
H952 C958 0.930 . S
H953 C962 0.930 . S
H954 C967 0.929 . S
H955 C965 0.929 . S
H956 C960 0.929 . S
H957 C966 0.929 . S
C958 H952 0.930 . S
C958 C959 1.367 . S
C958 C966 1.378 . S
C959 C958 1.367 . S
C959 C967 1.433 . S
C960 H956 0.929 . S
C960 C962 1.378 . S
C960 C964 1.350 . S
C961 C964 1.463 . S
C961 C966 1.350 . S
C961 N969 1.427 . S
C962 H953 0.930 . S
C962 C960 1.378 . S
C962 C963 1.367 . S
C963 C962 1.367 . S
C963 C965 1.433 . S
C964 C960 1.350 . S
C964 C961 1.463 . S
C964 N968 1.427 . S
C965 H955 0.929 . S
C965 C963 1.433 . S
C965 N968 1.384 . S
C966 H957 0.929 . S
C966 C958 1.378 . S
C966 C961 1.350 . S
C967 H954 0.929 . S
C967 C959 1.433 . S
C967 N969 1.384 . S
N968 C964 1.427 . S
N968 C965 1.384 . S
N969 C961 1.427 . S
N969 C967 1.384 . S
H970 C976 0.930 . S
H971 C980 0.930 . S
H972 C985 0.929 . S
H973 C983 0.929 . S
H974 C978 0.929 . S
H975 C984 0.929 . S
C976 H970 0.930 . S
C976 C977 1.367 . S
C976 C984 1.378 . S
C977 C976 1.367 . S
C977 C985 1.433 . S
C978 H974 0.929 . S
C978 C980 1.378 . S
C978 C982 1.350 . S
C979 C982 1.463 1_545 S
C979 C984 1.350 . S
C979 N987 1.427 . S
C980 H971 0.930 . S
C980 C978 1.378 . S
C980 C981 1.367 . S
C981 C980 1.367 . S
C981 C983 1.433 . S
C982 C978 1.350 . S
C982 C979 1.463 1_565 S
C982 N986 1.427 . S
C983 H973 0.929 . S
C983 C981 1.433 . S
C983 N986 1.384 . S
C984 H975 0.929 . S
C984 C976 1.378 . S
C984 C979 1.350 . S
C985 H972 0.929 . S
C985 C977 1.433 . S
C985 N987 1.384 . S
N986 C982 1.427 . S
N986 C983 1.384 . S
N987 C979 1.427 . S
N987 C985 1.384 . S
H988 C994 0.930 . S
H989 C998 0.930 . S
H990 C1003 0.929 . S
H991 C1001 0.929 . S
H992 C996 0.929 . S
H993 C1002 0.929 . S
C994 H988 0.930 . S
C994 C995 1.367 . S
C994 C1002 1.378 . S
C995 C994 1.367 . S
C995 C1003 1.433 . S
C996 H992 0.929 . S
C996 C998 1.378 . S
C996 C1000 1.350 . S
C997 C1000 1.463 . S
C997 C1002 1.350 . S
C997 N1005 1.427 . S
C998 H989 0.930 . S
C998 C996 1.378 . S
C998 C999 1.367 . S
C999 C998 1.367 . S
C999 C1001 1.433 . S
C1000 C996 1.350 . S
C1000 C997 1.463 . S
C1000 N1004 1.427 . S
C1001 H991 0.929 . S
C1001 C999 1.433 . S
C1001 N1004 1.384 . S
C1002 H993 0.929 . S
C1002 C994 1.378 . S
C1002 C997 1.350 . S
C1003 H990 0.929 . S
C1003 C995 1.433 . S
C1003 N1005 1.384 . S
N1004 C1000 1.427 . S
N1004 C1001 1.384 . S
N1005 C997 1.427 . S
N1005 C1003 1.384 . S
H1006 C1012 0.930 . S
H1007 C1016 0.930 . S
H1008 C1021 0.929 . S
H1009 C1019 0.929 . S
H1010 C1014 0.929 . S
H1011 C1020 0.929 . S
C1012 H1006 0.930 . S
C1012 C1013 1.367 . S
C1012 C1020 1.378 . S
C1013 C1012 1.367 . S
C1013 C1021 1.433 1_554 S
C1014 H1010 0.929 . S
C1014 C1016 1.378 . S
C1014 C1018 1.350 . S
C1015 C1018 1.463 1_554 S
C1015 C1020 1.350 . S
C1015 N1023 1.427 1_554 S
C1016 H1007 0.930 . S
C1016 C1014 1.378 . S
C1016 C1017 1.367 . S
C1017 C1016 1.367 . S
C1017 C1019 1.433 1_556 S
C1018 C1014 1.350 . S
C1018 C1015 1.463 1_556 S
C1018 N1022 1.427 1_556 S
C1019 H1009 0.929 . S
C1019 C1017 1.433 1_554 S
C1019 N1022 1.384 . S
C1020 H1011 0.929 . S
C1020 C1012 1.378 . S
C1020 C1015 1.350 . S
C1021 H1008 0.929 . S
C1021 C1013 1.433 1_556 S
C1021 N1023 1.384 . S
N1022 C1018 1.427 1_554 S
N1022 C1019 1.384 . S
N1023 C1015 1.427 1_556 S
N1023 C1021 1.384 . S
H1024 C1030 0.930 . S
H1025 C1034 0.930 . S
H1026 C1039 0.929 . S
H1027 C1037 0.929 . S
H1028 C1032 0.929 . S
H1029 C1038 0.929 . S
C1030 H1024 0.930 . S
C1030 C1031 1.367 . S
C1030 C1038 1.378 . S
C1031 C1030 1.367 . S
C1031 C1039 1.433 . S
C1032 H1028 0.929 . S
C1032 C1034 1.378 . S
C1032 C1036 1.350 . S
C1033 C1036 1.463 . S
C1033 C1038 1.350 . S
C1033 N1041 1.427 . S
C1034 H1025 0.930 . S
C1034 C1032 1.378 . S
C1034 C1035 1.367 . S
C1035 C1034 1.367 . S
C1035 C1037 1.433 . S
C1036 C1032 1.350 . S
C1036 C1033 1.463 . S
C1036 N1040 1.427 . S
C1037 H1027 0.929 . S
C1037 C1035 1.433 . S
C1037 N1040 1.384 . S
C1038 H1029 0.929 . S
C1038 C1030 1.378 . S
C1038 C1033 1.350 . S
C1039 H1026 0.929 . S
C1039 C1031 1.433 . S
C1039 N1041 1.384 . S
N1040 C1036 1.427 . S
N1040 C1037 1.384 . S
N1041 C1033 1.427 . S
N1041 C1039 1.384 . S
H1042 C1048 0.930 . S
H1043 C1052 0.930 . S
H1044 C1057 0.929 . S
H1045 C1055 0.929 . S
H1046 C1050 0.929 . S
H1047 C1056 0.929 . S
C1048 H1042 0.930 . S
C1048 C1049 1.367 1_554 S
C1048 C1056 1.378 . S
C1049 C1048 1.367 1_556 S
C1049 C1057 1.433 . S
C1050 H1046 0.929 . S
C1050 C1052 1.378 . S
C1050 C1054 1.350 . S
C1051 C1054 1.463 . S
C1051 C1056 1.350 1_556 S
C1051 N1059 1.427 . S
C1052 H1043 0.930 . S
C1052 C1050 1.378 . S
C1052 C1053 1.367 . S
C1053 C1052 1.367 . S
C1053 C1055 1.433 1_556 S
C1054 C1050 1.350 . S
C1054 C1051 1.463 . S
C1054 N1058 1.427 1_556 S
C1055 H1045 0.929 . S
C1055 C1053 1.433 1_554 S
C1055 N1058 1.384 . S
C1056 H1047 0.929 . S
C1056 C1048 1.378 . S
C1056 C1051 1.350 1_554 S
C1057 H1044 0.929 . S
C1057 C1049 1.433 . S
C1057 N1059 1.384 . S
N1058 C1054 1.427 1_554 S
N1058 C1055 1.384 . S
N1059 C1051 1.427 . S
N1059 C1057 1.384 . S
H1060 C1066 0.930 . S
H1061 C1070 0.930 . S
H1062 C1075 0.929 . S
H1063 C1073 0.929 . S
H1064 C1068 0.929 . S
H1065 C1074 0.929 . S
C1066 H1060 0.930 . S
C1066 C1067 1.367 . S
C1066 C1074 1.378 . S
C1067 C1066 1.367 . S
C1067 C1075 1.433 . S
C1068 H1064 0.929 . S
C1068 C1070 1.378 . S
C1068 C1072 1.350 . S
C1069 C1072 1.463 . S
C1069 C1074 1.350 . S
C1069 N1077 1.427 . S
C1070 H1061 0.930 . S
C1070 C1068 1.378 . S
C1070 C1071 1.367 . S
C1071 C1070 1.367 . S
C1071 C1073 1.433 . S
C1072 C1068 1.350 . S
C1072 C1069 1.463 . S
C1072 N1076 1.427 . S
C1073 H1063 0.929 . S
C1073 C1071 1.433 . S
C1073 N1076 1.384 . S
C1074 H1065 0.929 . S
C1074 C1066 1.378 . S
C1074 C1069 1.350 . S
C1075 H1062 0.929 . S
C1075 C1067 1.433 . S
C1075 N1077 1.384 . S
N1076 C1072 1.427 . S
N1076 C1073 1.384 . S
N1077 C1069 1.427 . S
N1077 C1075 1.384 . S
H1078 C1084 0.930 . S
H1079 C1088 0.930 . S
H1080 C1093 0.929 . S
H1081 C1091 0.929 . S
H1082 C1086 0.929 . S
H1083 C1092 0.929 . S
C1084 H1078 0.930 . S
C1084 C1085 1.367 1_556 S
C1084 C1092 1.378 . S
C1085 C1084 1.367 1_554 S
C1085 C1093 1.433 . S
C1086 H1082 0.929 . S
C1086 C1088 1.378 . S
C1086 C1090 1.350 . S
C1087 C1090 1.463 . S
C1087 C1092 1.350 1_554 S
C1087 N1095 1.427 . S
C1088 H1079 0.930 . S
C1088 C1086 1.378 . S
C1088 C1089 1.367 . S
C1089 C1088 1.367 . S
C1089 C1091 1.433 1_554 S
C1090 C1086 1.350 . S
C1090 C1087 1.463 . S
C1090 N1094 1.427 1_554 S
C1091 H1081 0.929 . S
C1091 C1089 1.433 1_556 S
C1091 N1094 1.384 . S
C1092 H1083 0.929 . S
C1092 C1084 1.378 . S
C1092 C1087 1.350 1_556 S
C1093 H1080 0.929 . S
C1093 C1085 1.433 . S
C1093 N1095 1.384 . S
N1094 C1090 1.427 1_556 S
N1094 C1091 1.384 . S
N1095 C1087 1.427 . S
N1095 C1093 1.384 . S
H1096 C1102 0.930 . S
H1097 C1106 0.930 . S
H1098 C1111 0.929 . S
H1099 C1109 0.929 . S
H1100 C1104 0.929 . S
H1101 C1110 0.929 . S
C1102 H1096 0.930 . S
C1102 C1103 1.367 . S
C1102 C1110 1.378 . S
C1103 C1102 1.367 . S
C1103 C1111 1.433 . S
C1104 H1100 0.929 . S
C1104 C1106 1.378 . S
C1104 C1108 1.350 . S
C1105 C1108 1.463 . S
C1105 C1110 1.350 . S
C1105 N1113 1.427 . S
C1106 H1097 0.930 . S
C1106 C1104 1.378 . S
C1106 C1107 1.367 . S
C1107 C1106 1.367 . S
C1107 C1109 1.433 . S
C1108 C1104 1.350 . S
C1108 C1105 1.463 . S
C1108 N1112 1.427 . S
C1109 H1099 0.929 . S
C1109 C1107 1.433 . S
C1109 N1112 1.384 . S
C1110 H1101 0.929 . S
C1110 C1102 1.378 . S
C1110 C1105 1.350 . S
C1111 H1098 0.929 . S
C1111 C1103 1.433 . S
C1111 N1113 1.384 . S
N1112 C1108 1.427 . S
N1112 C1109 1.384 . S
N1113 C1105 1.427 . S
N1113 C1111 1.384 . S
H1114 C1120 0.930 . S
H1115 C1124 0.930 . S
H1116 C1129 0.929 . S
H1117 C1127 0.929 . S
H1118 C1122 0.929 . S
H1119 C1128 0.929 . S
C1120 H1114 0.930 . S
C1120 C1121 1.367 . S
C1120 C1128 1.378 . S
C1121 C1120 1.367 . S
C1121 C1129 1.433 . S
C1122 H1118 0.929 . S
C1122 C1124 1.378 . S
C1122 C1126 1.350 . S
C1123 C1126 1.463 . S
C1123 C1128 1.350 . S
C1123 N1131 1.427 . S
C1124 H1115 0.930 . S
C1124 C1122 1.378 . S
C1124 C1125 1.367 . S
C1125 C1124 1.367 . S
C1125 C1127 1.433 . S
C1126 C1122 1.350 . S
C1126 C1123 1.463 . S
C1126 N1130 1.427 . S
C1127 H1117 0.929 . S
C1127 C1125 1.433 . S
C1127 N1130 1.384 . S
C1128 H1119 0.929 . S
C1128 C1120 1.378 . S
C1128 C1123 1.350 . S
C1129 H1116 0.929 . S
C1129 C1121 1.433 . S
C1129 N1131 1.384 . S
N1130 C1126 1.427 . S
N1130 C1127 1.384 . S
N1131 C1123 1.427 . S
N1131 C1129 1.384 . S
H1132 C1138 0.930 . S
H1133 C1142 0.930 . S
H1134 C1147 0.929 . S
H1135 C1145 0.929 . S
H1136 C1140 0.929 . S
H1137 C1146 0.929 . S
C1138 H1132 0.930 . S
C1138 C1139 1.367 . S
C1138 C1146 1.378 . S
C1139 C1138 1.367 . S
C1139 C1147 1.433 . S
C1140 H1136 0.929 . S
C1140 C1142 1.378 . S
C1140 C1144 1.350 . S
C1141 C1144 1.463 . S
C1141 C1146 1.350 . S
C1141 N1149 1.427 . S
C1142 H1133 0.930 . S
C1142 C1140 1.378 . S
C1142 C1143 1.367 . S
C1143 C1142 1.367 . S
C1143 C1145 1.433 . S
C1144 C1140 1.350 . S
C1144 C1141 1.463 . S
C1144 N1148 1.427 . S
C1145 H1135 0.929 . S
C1145 C1143 1.433 . S
C1145 N1148 1.384 . S
C1146 H1137 0.929 . S
C1146 C1138 1.378 . S
C1146 C1141 1.350 . S
C1147 H1134 0.929 . S
C1147 C1139 1.433 . S
C1147 N1149 1.384 . S
N1148 C1144 1.427 . S
N1148 C1145 1.384 . S
N1149 C1141 1.427 . S
N1149 C1147 1.384 . S
H1150 C1156 0.930 . S
H1151 C1160 0.930 . S
H1152 C1165 0.929 . S
H1153 C1163 0.929 . S
H1154 C1158 0.929 . S
H1155 C1164 0.929 . S
C1156 H1150 0.930 . S
C1156 C1157 1.367 . S
C1156 C1164 1.378 . S
C1157 C1156 1.367 . S
C1157 C1165 1.433 . S
C1158 H1154 0.929 . S
C1158 C1160 1.378 . S
C1158 C1162 1.350 . S
C1159 C1162 1.463 . S
C1159 C1164 1.350 . S
C1159 N1167 1.427 . S
C1160 H1151 0.930 . S
C1160 C1158 1.378 . S
C1160 C1161 1.367 . S
C1161 C1160 1.367 . S
C1161 C1163 1.433 . S
C1162 C1158 1.350 . S
C1162 C1159 1.463 . S
C1162 N1166 1.427 . S
C1163 H1153 0.929 . S
C1163 C1161 1.433 . S
C1163 N1166 1.384 . S
C1164 H1155 0.929 . S
C1164 C1156 1.378 . S
C1164 C1159 1.350 . S
C1165 H1152 0.929 . S
C1165 C1157 1.433 . S
C1165 N1167 1.384 . S
N1166 C1162 1.427 . S
N1166 C1163 1.384 . S
N1167 C1159 1.427 . S
N1167 C1165 1.384 . S
H1168 C1174 0.930 . S
H1169 C1178 0.930 . S
H1170 C1183 0.929 . S
H1171 C1181 0.929 . S
H1172 C1176 0.929 . S
H1173 C1182 0.929 . S
C1174 H1168 0.930 . S
C1174 C1175 1.367 . S
C1174 C1182 1.378 . S
C1175 C1174 1.367 . S
C1175 C1183 1.433 . S
C1176 H1172 0.929 . S
C1176 C1178 1.378 . S
C1176 C1180 1.350 . S
C1177 C1180 1.463 . S
C1177 C1182 1.350 . S
C1177 N1185 1.427 . S
C1178 H1169 0.930 . S
C1178 C1176 1.378 . S
C1178 C1179 1.367 . S
C1179 C1178 1.367 . S
C1179 C1181 1.433 . S
C1180 C1176 1.350 . S
C1180 C1177 1.463 . S
C1180 N1184 1.427 . S
C1181 H1171 0.929 . S
C1181 C1179 1.433 . S
C1181 N1184 1.384 . S
C1182 H1173 0.929 . S
C1182 C1174 1.378 . S
C1182 C1177 1.350 . S
C1183 H1170 0.929 . S
C1183 C1175 1.433 . S
C1183 N1185 1.384 . S
N1184 C1180 1.427 . S
N1184 C1181 1.384 . S
N1185 C1177 1.427 . S
N1185 C1183 1.384 . S
H1186 C1192 0.930 . S
H1187 C1196 0.930 . S
H1188 C1201 0.929 . S
H1189 C1199 0.929 . S
H1190 C1194 0.929 . S
H1191 C1200 0.929 . S
C1192 H1186 0.930 . S
C1192 C1193 1.367 . S
C1192 C1200 1.378 . S
C1193 C1192 1.367 . S
C1193 C1201 1.433 . S
C1194 H1190 0.929 . S
C1194 C1196 1.378 . S
C1194 C1198 1.350 . S
C1195 C1198 1.463 . S
C1195 C1200 1.350 . S
C1195 N1203 1.427 . S
C1196 H1187 0.930 . S
C1196 C1194 1.378 . S
C1196 C1197 1.367 . S
C1197 C1196 1.367 . S
C1197 C1199 1.433 . S
C1198 C1194 1.350 . S
C1198 C1195 1.463 . S
C1198 N1202 1.427 . S
C1199 H1189 0.929 . S
C1199 C1197 1.433 . S
C1199 N1202 1.384 . S
C1200 H1191 0.929 . S
C1200 C1192 1.378 . S
C1200 C1195 1.350 . S
C1201 H1188 0.929 . S
C1201 C1193 1.433 . S
C1201 N1203 1.384 . S
N1202 C1198 1.427 . S
N1202 C1199 1.384 . S
N1203 C1195 1.427 . S
N1203 C1201 1.384 . S
H1204 C1210 0.930 . S
H1205 C1214 0.930 . S
H1206 C1219 0.929 . S
H1207 C1217 0.929 . S
H1208 C1212 0.929 . S
H1209 C1218 0.929 . S
C1210 H1204 0.930 . S
C1210 C1211 1.367 . S
C1210 C1218 1.378 . S
C1211 C1210 1.367 . S
C1211 C1219 1.433 . S
C1212 H1208 0.929 . S
C1212 C1214 1.378 . S
C1212 C1216 1.350 . S
C1213 C1216 1.463 . S
C1213 C1218 1.350 . S
C1213 N1221 1.427 . S
C1214 H1205 0.930 . S
C1214 C1212 1.378 . S
C1214 C1215 1.367 . S
C1215 C1214 1.367 . S
C1215 C1217 1.433 . S
C1216 C1212 1.350 . S
C1216 C1213 1.463 . S
C1216 N1220 1.427 . S
C1217 H1207 0.929 . S
C1217 C1215 1.433 . S
C1217 N1220 1.384 . S
C1218 H1209 0.929 . S
C1218 C1210 1.378 . S
C1218 C1213 1.350 . S
C1219 H1206 0.929 . S
C1219 C1211 1.433 . S
C1219 N1221 1.384 . S
N1220 C1216 1.427 . S
N1220 C1217 1.384 . S
N1221 C1213 1.427 . S
N1221 C1219 1.384 . S
H1222 C1228 0.930 . S
H1223 C1232 0.930 . S
H1224 C1237 0.929 . S
H1225 C1235 0.929 . S
H1226 C1230 0.929 . S
H1227 C1236 0.929 . S
C1228 H1222 0.930 . S
C1228 C1229 1.367 . S
C1228 C1236 1.378 . S
C1229 C1228 1.367 . S
C1229 C1237 1.433 . S
C1230 H1226 0.929 . S
C1230 C1232 1.378 . S
C1230 C1234 1.350 . S
C1231 C1234 1.463 . S
C1231 C1236 1.350 . S
C1231 N1239 1.427 . S
C1232 H1223 0.930 . S
C1232 C1230 1.378 . S
C1232 C1233 1.367 . S
C1233 C1232 1.367 . S
C1233 C1235 1.433 . S
C1234 C1230 1.350 . S
C1234 C1231 1.463 . S
C1234 N1238 1.427 . S
C1235 H1225 0.929 . S
C1235 C1233 1.433 . S
C1235 N1238 1.384 . S
C1236 H1227 0.929 . S
C1236 C1228 1.378 . S
C1236 C1231 1.350 . S
C1237 H1224 0.929 . S
C1237 C1229 1.433 . S
C1237 N1239 1.384 . S
N1238 C1234 1.427 . S
N1238 C1235 1.384 . S
N1239 C1231 1.427 . S
N1239 C1237 1.384 . S
H1240 C1246 0.930 . S
H1241 C1250 0.930 . S
H1242 C1255 0.929 . S
H1243 C1253 0.929 . S
H1244 C1248 0.929 . S
H1245 C1254 0.929 . S
C1246 H1240 0.930 . S
C1246 C1247 1.367 . S
C1246 C1254 1.378 . S
C1247 C1246 1.367 . S
C1247 C1255 1.433 . S
C1248 H1244 0.929 . S
C1248 C1250 1.378 . S
C1248 C1252 1.350 . S
C1249 C1252 1.463 . S
C1249 C1254 1.350 . S
C1249 N1257 1.427 . S
C1250 H1241 0.930 . S
C1250 C1248 1.378 . S
C1250 C1251 1.367 . S
C1251 C1250 1.367 . S
C1251 C1253 1.433 . S
C1252 C1248 1.350 . S
C1252 C1249 1.463 . S
C1252 N1256 1.427 . S
C1253 H1243 0.929 . S
C1253 C1251 1.433 . S
C1253 N1256 1.384 . S
C1254 H1245 0.929 . S
C1254 C1246 1.378 . S
C1254 C1249 1.350 . S
C1255 H1242 0.929 . S
C1255 C1247 1.433 . S
C1255 N1257 1.384 . S
N1256 C1252 1.427 . S
N1256 C1253 1.384 . S
N1257 C1249 1.427 . S
N1257 C1255 1.384 . S
H1258 C1264 0.930 . S
H1259 C1268 0.930 . S
H1260 C1273 0.929 . S
H1261 C1271 0.929 . S
H1262 C1266 0.929 . S
H1263 C1272 0.929 . S
C1264 H1258 0.930 . S
C1264 C1265 1.367 . S
C1264 C1272 1.378 . S
C1265 C1264 1.367 . S
C1265 C1273 1.433 1_556 S
C1266 H1262 0.929 . S
C1266 C1268 1.378 . S
C1266 C1270 1.350 1_554 S
C1267 C1270 1.463 . S
C1267 C1272 1.350 . S
C1267 N1275 1.427 1_556 S
C1268 H1259 0.930 . S
C1268 C1266 1.378 . S
C1268 C1269 1.367 1_554 S
C1269 C1268 1.367 1_556 S
C1269 C1271 1.433 . S
C1270 C1266 1.350 1_556 S
C1270 C1267 1.463 . S
C1270 N1274 1.427 . S
C1271 H1261 0.929 . S
C1271 C1269 1.433 . S
C1271 N1274 1.384 . S
C1272 H1263 0.929 . S
C1272 C1264 1.378 . S
C1272 C1267 1.350 . S
C1273 H1260 0.929 . S
C1273 C1265 1.433 1_554 S
C1273 N1275 1.384 . S
N1274 C1270 1.427 . S
N1274 C1271 1.384 . S
N1275 C1267 1.427 1_554 S
N1275 C1273 1.384 . S
H1276 C1282 0.930 . S
H1277 C1286 0.930 . S
H1278 C1291 0.929 . S
H1279 C1289 0.929 . S
H1280 C1284 0.929 . S
H1281 C1290 0.929 . S
C1282 H1276 0.930 . S
C1282 C1283 1.367 . S
C1282 C1290 1.378 . S
C1283 C1282 1.367 . S
C1283 C1291 1.433 . S
C1284 H1280 0.929 . S
C1284 C1286 1.378 . S
C1284 C1288 1.350 . S
C1285 C1288 1.463 . S
C1285 C1290 1.350 . S
C1285 N1293 1.427 . S
C1286 H1277 0.930 . S
C1286 C1284 1.378 . S
C1286 C1287 1.367 . S
C1287 C1286 1.367 . S
C1287 C1289 1.433 . S
C1288 C1284 1.350 . S
C1288 C1285 1.463 . S
C1288 N1292 1.427 . S
C1289 H1279 0.929 . S
C1289 C1287 1.433 . S
C1289 N1292 1.384 . S
C1290 H1281 0.929 . S
C1290 C1282 1.378 . S
C1290 C1285 1.350 . S
C1291 H1278 0.929 . S
C1291 C1283 1.433 . S
C1291 N1293 1.384 . S
N1292 C1288 1.427 . S
N1292 C1289 1.384 . S
N1293 C1285 1.427 . S
N1293 C1291 1.384 . S
H1294 C1300 0.930 . S
H1295 C1304 0.930 . S
H1296 C1309 0.929 . S
H1297 C1307 0.929 . S
H1298 C1302 0.929 . S
H1299 C1308 0.929 . S
C1300 H1294 0.930 . S
C1300 C1301 1.367 . S
C1300 C1308 1.378 . S
C1301 C1300 1.367 . S
C1301 C1309 1.433 1_554 S
C1302 H1298 0.929 . S
C1302 C1304 1.378 . S
C1302 C1306 1.350 1_556 S
C1303 C1306 1.463 . S
C1303 C1308 1.350 . S
C1303 N1311 1.427 1_554 S
C1304 H1295 0.930 . S
C1304 C1302 1.378 . S
C1304 C1305 1.367 1_556 S
C1305 C1304 1.367 1_554 S
C1305 C1307 1.433 . S
C1306 C1302 1.350 1_554 S
C1306 C1303 1.463 . S
C1306 N1310 1.427 . S
C1307 H1297 0.929 . S
C1307 C1305 1.433 . S
C1307 N1310 1.384 . S
C1308 H1299 0.929 . S
C1308 C1300 1.378 . S
C1308 C1303 1.350 . S
C1309 H1296 0.929 . S
C1309 C1301 1.433 1_556 S
C1309 N1311 1.384 . S
N1310 C1306 1.427 . S
N1310 C1307 1.384 . S
N1311 C1303 1.427 1_556 S
N1311 C1309 1.384 . S
H1312 C1318 0.930 1_455 S
H1313 C1322 0.930 . S
H1314 C1327 0.929 . S
H1315 C1325 0.929 . S
H1316 C1320 0.929 . S
H1317 C1326 0.929 . S
C1318 H1312 0.930 1_655 S
C1318 C1319 1.367 . S
C1318 C1326 1.378 . S
C1319 C1318 1.367 . S
C1319 C1327 1.433 . S
C1320 H1316 0.929 . S
C1320 C1322 1.378 . S
C1320 C1324 1.350 . S
C1321 C1324 1.463 . S
C1321 C1326 1.350 . S
C1321 N1329 1.427 . S
C1322 H1313 0.930 . S
C1322 C1320 1.378 . S
C1322 C1323 1.367 . S
C1323 C1322 1.367 . S
C1323 C1325 1.433 . S
C1324 C1320 1.350 . S
C1324 C1321 1.463 . S
C1324 N1328 1.427 . S
C1325 H1315 0.929 . S
C1325 C1323 1.433 . S
C1325 N1328 1.384 . S
C1326 H1317 0.929 . S
C1326 C1318 1.378 . S
C1326 C1321 1.350 . S
C1327 H1314 0.929 . S
C1327 C1319 1.433 . S
C1327 N1329 1.384 . S
N1328 C1324 1.427 . S
N1328 C1325 1.384 . S
N1329 C1321 1.427 . S
N1329 C1327 1.384 . S
H1330 C1336 0.930 . S
H1331 C1340 0.930 . S
H1332 C1345 0.929 . S
H1333 C1343 0.929 . S
H1334 C1338 0.929 . S
H1335 C1344 0.929 . S
C1336 H1330 0.930 . S
C1336 C1337 1.367 . S
C1336 C1344 1.378 . S
C1337 C1336 1.367 . S
C1337 C1345 1.433 . S
C1338 H1334 0.929 . S
C1338 C1340 1.378 . S
C1338 C1342 1.350 . S
C1339 C1342 1.463 . S
C1339 C1344 1.350 . S
C1339 N1347 1.427 . S
C1340 H1331 0.930 . S
C1340 C1338 1.378 . S
C1340 C1341 1.367 . S
C1341 C1340 1.367 . S
C1341 C1343 1.433 . S
C1342 C1338 1.350 . S
C1342 C1339 1.463 . S
C1342 N1346 1.427 . S
C1343 H1333 0.929 . S
C1343 C1341 1.433 . S
C1343 N1346 1.384 . S
C1344 H1335 0.929 . S
C1344 C1336 1.378 . S
C1344 C1339 1.350 . S
C1345 H1332 0.929 . S
C1345 C1337 1.433 . S
C1345 N1347 1.384 . S
N1346 C1342 1.427 . S
N1346 C1343 1.384 . S
N1347 C1339 1.427 . S
N1347 C1345 1.384 . S
H1348 C1354 0.930 . S
H1349 C1358 0.930 . S
H1350 C1363 0.929 . S
H1351 C1361 0.929 1_455 S
H1352 C1356 0.929 . S
H1353 C1362 0.929 . S
C1354 H1348 0.930 . S
C1354 C1355 1.367 . S
C1354 C1362 1.378 . S
C1355 C1354 1.367 . S
C1355 C1363 1.433 . S
C1356 H1352 0.929 . S
C1356 C1358 1.378 . S
C1356 C1360 1.350 . S
C1357 C1360 1.463 . S
C1357 C1362 1.350 . S
C1357 N1365 1.427 . S
C1358 H1349 0.930 . S
C1358 C1356 1.378 . S
C1358 C1359 1.367 . S
C1359 C1358 1.367 . S
C1359 C1361 1.433 . S
C1360 C1356 1.350 . S
C1360 C1357 1.463 . S
C1360 N1364 1.427 . S
C1361 H1351 0.929 1_655 S
C1361 C1359 1.433 . S
C1361 N1364 1.384 . S
C1362 H1353 0.929 . S
C1362 C1354 1.378 . S
C1362 C1357 1.350 . S
C1363 H1350 0.929 . S
C1363 C1355 1.433 . S
C1363 N1365 1.384 . S
N1364 C1360 1.427 . S
N1364 C1361 1.384 . S
N1365 C1357 1.427 . S
N1365 C1363 1.384 . S
H1366 C1372 0.930 . S
H1367 C1376 0.930 . S
H1368 C1381 0.929 . S
H1369 C1379 0.929 . S
H1370 C1374 0.929 . S
H1371 C1380 0.929 . S
C1372 H1366 0.930 . S
C1372 C1373 1.367 . S
C1372 C1380 1.378 . S
C1373 C1372 1.367 . S
C1373 C1381 1.433 . S
C1374 H1370 0.929 . S
C1374 C1376 1.378 . S
C1374 C1378 1.350 . S
C1375 C1378 1.463 . S
C1375 C1380 1.350 . S
C1375 N1383 1.427 . S
C1376 H1367 0.930 . S
C1376 C1374 1.378 . S
C1376 C1377 1.367 . S
C1377 C1376 1.367 . S
C1377 C1379 1.433 . S
C1378 C1374 1.350 . S
C1378 C1375 1.463 . S
C1378 N1382 1.427 . S
C1379 H1369 0.929 . S
C1379 C1377 1.433 . S
C1379 N1382 1.384 . S
C1380 H1371 0.929 . S
C1380 C1372 1.378 . S
C1380 C1375 1.350 . S
C1381 H1368 0.929 . S
C1381 C1373 1.433 . S
C1381 N1383 1.384 . S
N1382 C1378 1.427 . S
N1382 C1379 1.384 . S
N1383 C1375 1.427 . S
N1383 C1381 1.384 . S
H1384 C1390 0.930 . S
H1385 C1394 0.930 . S
H1386 C1399 0.929 . S
H1387 C1397 0.929 . S
H1388 C1392 0.929 . S
H1389 C1398 0.929 . S
C1390 H1384 0.930 . S
C1390 C1391 1.367 . S
C1390 C1398 1.378 . S
C1391 C1390 1.367 . S
C1391 C1399 1.433 . S
C1392 H1388 0.929 . S
C1392 C1394 1.378 . S
C1392 C1396 1.350 . S
C1393 C1396 1.463 . S
C1393 C1398 1.350 . S
C1393 N1401 1.427 . S
C1394 H1385 0.930 . S
C1394 C1392 1.378 . S
C1394 C1395 1.367 . S
C1395 C1394 1.367 . S
C1395 C1397 1.433 . S
C1396 C1392 1.350 . S
C1396 C1393 1.463 . S
C1396 N1400 1.427 . S
C1397 H1387 0.929 . S
C1397 C1395 1.433 . S
C1397 N1400 1.384 . S
C1398 H1389 0.929 . S
C1398 C1390 1.378 . S
C1398 C1393 1.350 . S
C1399 H1386 0.929 . S
C1399 C1391 1.433 . S
C1399 N1401 1.384 . S
N1400 C1396 1.427 . S
N1400 C1397 1.384 . S
N1401 C1393 1.427 . S
N1401 C1399 1.384 . S
H1402 C1408 0.930 . S
H1403 C1412 0.930 . S
H1404 C1417 0.929 . S
H1405 C1415 0.929 . S
H1406 C1410 0.929 . S
H1407 C1416 0.929 . S
C1408 H1402 0.930 . S
C1408 C1409 1.367 . S
C1408 C1416 1.378 . S
C1409 C1408 1.367 . S
C1409 C1417 1.433 . S
C1410 H1406 0.929 . S
C1410 C1412 1.378 . S
C1410 C1414 1.350 . S
C1411 C1414 1.463 . S
C1411 C1416 1.350 . S
C1411 N1419 1.427 . S
C1412 H1403 0.930 . S
C1412 C1410 1.378 . S
C1412 C1413 1.367 . S
C1413 C1412 1.367 . S
C1413 C1415 1.433 . S
C1414 C1410 1.350 . S
C1414 C1411 1.463 . S
C1414 N1418 1.427 . S
C1415 H1405 0.929 . S
C1415 C1413 1.433 . S
C1415 N1418 1.384 . S
C1416 H1407 0.929 . S
C1416 C1408 1.378 . S
C1416 C1411 1.350 . S
C1417 H1404 0.929 . S
C1417 C1409 1.433 . S
C1417 N1419 1.384 . S
N1418 C1414 1.427 . S
N1418 C1415 1.384 . S
N1419 C1411 1.427 . S
N1419 C1417 1.384 . S
H1420 C1426 0.930 . S
H1421 C1430 0.930 1_655 S
H1422 C1435 0.929 . S
H1423 C1433 0.929 . S
H1424 C1428 0.929 . S
H1425 C1434 0.929 . S
C1426 H1420 0.930 . S
C1426 C1427 1.367 . S
C1426 C1434 1.378 . S
C1427 C1426 1.367 . S
C1427 C1435 1.433 . S
C1428 H1424 0.929 . S
C1428 C1430 1.378 . S
C1428 C1432 1.350 . S
C1429 C1432 1.463 . S
C1429 C1434 1.350 . S
C1429 N1437 1.427 . S
C1430 H1421 0.930 1_455 S
C1430 C1428 1.378 . S
C1430 C1431 1.367 . S
C1431 C1430 1.367 . S
C1431 C1433 1.433 . S
C1432 C1428 1.350 . S
C1432 C1429 1.463 . S
C1432 N1436 1.427 . S
C1433 H1423 0.929 . S
C1433 C1431 1.433 . S
C1433 N1436 1.384 . S
C1434 H1425 0.929 . S
C1434 C1426 1.378 . S
C1434 C1429 1.350 . S
C1435 H1422 0.929 . S
C1435 C1427 1.433 . S
C1435 N1437 1.384 . S
N1436 C1432 1.427 . S
N1436 C1433 1.384 . S
N1437 C1429 1.427 . S
N1437 C1435 1.384 . S
H1438 C1444 0.930 . S
H1439 C1448 0.930 . S
H1440 C1453 0.929 . S
H1441 C1451 0.929 . S
H1442 C1446 0.929 . S
H1443 C1452 0.929 . S
C1444 H1438 0.930 . S
C1444 C1445 1.367 . S
C1444 C1452 1.378 . S
C1445 C1444 1.367 . S
C1445 C1453 1.433 . S
C1446 H1442 0.929 . S
C1446 C1448 1.378 . S
C1446 C1450 1.350 . S
C1447 C1450 1.463 . S
C1447 C1452 1.350 . S
C1447 N1455 1.427 . S
C1448 H1439 0.930 . S
C1448 C1446 1.378 . S
C1448 C1449 1.367 . S
C1449 C1448 1.367 . S
C1449 C1451 1.433 . S
C1450 C1446 1.350 . S
C1450 C1447 1.463 . S
C1450 N1454 1.427 . S
C1451 H1441 0.929 . S
C1451 C1449 1.433 . S
C1451 N1454 1.384 . S
C1452 H1443 0.929 . S
C1452 C1444 1.378 . S
C1452 C1447 1.350 . S
C1453 H1440 0.929 . S
C1453 C1445 1.433 . S
C1453 N1455 1.384 . S
N1454 C1450 1.427 . S
N1454 C1451 1.384 . S
N1455 C1447 1.427 . S
N1455 C1453 1.384 . S
H1456 C1462 0.930 1_455 S
H1457 C1466 0.930 . S
H1458 C1471 0.929 . S
H1459 C1469 0.929 . S
H1460 C1464 0.929 . S
H1461 C1470 0.929 . S
C1462 H1456 0.930 1_655 S
C1462 C1463 1.367 . S
C1462 C1470 1.378 . S
C1463 C1462 1.367 . S
C1463 C1471 1.433 . S
C1464 H1460 0.929 . S
C1464 C1466 1.378 . S
C1464 C1468 1.350 . S
C1465 C1468 1.463 . S
C1465 C1470 1.350 . S
C1465 N1473 1.427 . S
C1466 H1457 0.930 . S
C1466 C1464 1.378 . S
C1466 C1467 1.367 . S
C1467 C1466 1.367 . S
C1467 C1469 1.433 . S
C1468 C1464 1.350 . S
C1468 C1465 1.463 . S
C1468 N1472 1.427 . S
C1469 H1459 0.929 . S
C1469 C1467 1.433 . S
C1469 N1472 1.384 . S
C1470 H1461 0.929 . S
C1470 C1462 1.378 . S
C1470 C1465 1.350 . S
C1471 H1458 0.929 . S
C1471 C1463 1.433 . S
C1471 N1473 1.384 . S
N1472 C1468 1.427 . S
N1472 C1469 1.384 . S
N1473 C1465 1.427 . S
N1473 C1471 1.384 . S
H1474 C1480 0.930 . S
H1475 C1484 0.930 . S
H1476 C1489 0.929 . S
H1477 C1487 0.929 . S
H1478 C1482 0.929 . S
H1479 C1488 0.929 . S
C1480 H1474 0.930 . S
C1480 C1481 1.367 . S
C1480 C1488 1.378 . S
C1481 C1480 1.367 . S
C1481 C1489 1.433 . S
C1482 H1478 0.929 . S
C1482 C1484 1.378 . S
C1482 C1486 1.350 . S
C1483 C1486 1.463 . S
C1483 C1488 1.350 . S
C1483 N1491 1.427 . S
C1484 H1475 0.930 . S
C1484 C1482 1.378 . S
C1484 C1485 1.367 . S
C1485 C1484 1.367 . S
C1485 C1487 1.433 . S
C1486 C1482 1.350 . S
C1486 C1483 1.463 . S
C1486 N1490 1.427 . S
C1487 H1477 0.929 . S
C1487 C1485 1.433 . S
C1487 N1490 1.384 . S
C1488 H1479 0.929 . S
C1488 C1480 1.378 . S
C1488 C1483 1.350 . S
C1489 H1476 0.929 . S
C1489 C1481 1.433 . S
C1489 N1491 1.384 . S
N1490 C1486 1.427 . S
N1490 C1487 1.384 . S
N1491 C1483 1.427 . S
N1491 C1489 1.384 . S
H1492 C1498 0.930 . S
H1493 C1502 0.930 . S
H1494 C1507 0.929 1_455 S
H1495 C1505 0.929 . S
H1496 C1500 0.929 . S
H1497 C1506 0.929 . S
C1498 H1492 0.930 . S
C1498 C1499 1.367 . S
C1498 C1506 1.378 . S
C1499 C1498 1.367 . S
C1499 C1507 1.433 . S
C1500 H1496 0.929 . S
C1500 C1502 1.378 . S
C1500 C1504 1.350 . S
C1501 C1504 1.463 . S
C1501 C1506 1.350 . S
C1501 N1509 1.427 . S
C1502 H1493 0.930 . S
C1502 C1500 1.378 . S
C1502 C1503 1.367 . S
C1503 C1502 1.367 . S
C1503 C1505 1.433 . S
C1504 C1500 1.350 . S
C1504 C1501 1.463 . S
C1504 N1508 1.427 . S
C1505 H1495 0.929 . S
C1505 C1503 1.433 . S
C1505 N1508 1.384 . S
C1506 H1497 0.929 . S
C1506 C1498 1.378 . S
C1506 C1501 1.350 . S
C1507 H1494 0.929 1_655 S
C1507 C1499 1.433 . S
C1507 N1509 1.384 . S
N1508 C1504 1.427 . S
N1508 C1505 1.384 . S
N1509 C1501 1.427 . S
N1509 C1507 1.384 . S
H1510 C1516 0.930 . S
H1511 C1520 0.930 . S
H1512 C1525 0.929 . S
H1513 C1523 0.929 . S
H1514 C1518 0.929 . S
H1515 C1524 0.929 . S
C1516 H1510 0.930 . S
C1516 C1517 1.367 . S
C1516 C1524 1.378 . S
C1517 C1516 1.367 . S
C1517 C1525 1.433 . S
C1518 H1514 0.929 . S
C1518 C1520 1.378 . S
C1518 C1522 1.350 . S
C1519 C1522 1.463 . S
C1519 C1524 1.350 . S
C1519 N1527 1.427 . S
C1520 H1511 0.930 . S
C1520 C1518 1.378 . S
C1520 C1521 1.367 . S
C1521 C1520 1.367 . S
C1521 C1523 1.433 . S
C1522 C1518 1.350 . S
C1522 C1519 1.463 . S
C1522 N1526 1.427 . S
C1523 H1513 0.929 . S
C1523 C1521 1.433 . S
C1523 N1526 1.384 . S
C1524 H1515 0.929 . S
C1524 C1516 1.378 . S
C1524 C1519 1.350 . S
C1525 H1512 0.929 . S
C1525 C1517 1.433 . S
C1525 N1527 1.384 . S
N1526 C1522 1.427 . S
N1526 C1523 1.384 . S
N1527 C1519 1.427 . S
N1527 C1525 1.384 . S
H1528 C1534 0.930 1_655 S
H1529 C1538 0.930 . S
H1530 C1543 0.929 . S
H1531 C1541 0.929 . S
H1532 C1536 0.929 . S
H1533 C1542 0.929 . S
C1534 H1528 0.930 1_455 S
C1534 C1535 1.367 . S
C1534 C1542 1.378 . S
C1535 C1534 1.367 . S
C1535 C1543 1.433 . S
C1536 H1532 0.929 . S
C1536 C1538 1.378 . S
C1536 C1540 1.350 . S
C1537 C1540 1.463 . S
C1537 C1542 1.350 . S
C1537 N1545 1.427 . S
C1538 H1529 0.930 . S
C1538 C1536 1.378 . S
C1538 C1539 1.367 . S
C1539 C1538 1.367 . S
C1539 C1541 1.433 . S
C1540 C1536 1.350 . S
C1540 C1537 1.463 . S
C1540 N1544 1.427 . S
C1541 H1531 0.929 . S
C1541 C1539 1.433 . S
C1541 N1544 1.384 . S
C1542 H1533 0.929 . S
C1542 C1534 1.378 . S
C1542 C1537 1.350 . S
C1543 H1530 0.929 . S
C1543 C1535 1.433 . S
C1543 N1545 1.384 . S
N1544 C1540 1.427 . S
N1544 C1541 1.384 . S
N1545 C1537 1.427 . S
N1545 C1543 1.384 . S
H1546 C1552 0.930 . S
H1547 C1556 0.930 . S
H1548 C1561 0.929 . S
H1549 C1559 0.929 . S
H1550 C1554 0.929 . S
H1551 C1560 0.929 . S
C1552 H1546 0.930 . S
C1552 C1553 1.367 . S
C1552 C1560 1.378 . S
C1553 C1552 1.367 . S
C1553 C1561 1.433 . S
C1554 H1550 0.929 . S
C1554 C1556 1.378 . S
C1554 C1558 1.350 . S
C1555 C1558 1.463 . S
C1555 C1560 1.350 . S
C1555 N1563 1.427 . S
C1556 H1547 0.930 . S
C1556 C1554 1.378 . S
C1556 C1557 1.367 . S
C1557 C1556 1.367 . S
C1557 C1559 1.433 . S
C1558 C1554 1.350 . S
C1558 C1555 1.463 . S
C1558 N1562 1.427 . S
C1559 H1549 0.929 . S
C1559 C1557 1.433 . S
C1559 N1562 1.384 . S
C1560 H1551 0.929 . S
C1560 C1552 1.378 . S
C1560 C1555 1.350 . S
C1561 H1548 0.929 . S
C1561 C1553 1.433 . S
C1561 N1563 1.384 . S
N1562 C1558 1.427 . S
N1562 C1559 1.384 . S
N1563 C1555 1.427 . S
N1563 C1561 1.384 . S
H1564 C1570 0.930 . S
H1565 C1574 0.930 . S
H1566 C1579 0.929 1_655 S
H1567 C1577 0.929 . S
H1568 C1572 0.929 . S
H1569 C1578 0.929 . S
C1570 H1564 0.930 . S
C1570 C1571 1.367 . S
C1570 C1578 1.378 . S
C1571 C1570 1.367 . S
C1571 C1579 1.433 . S
C1572 H1568 0.929 . S
C1572 C1574 1.378 . S
C1572 C1576 1.350 . S
C1573 C1576 1.463 . S
C1573 C1578 1.350 . S
C1573 N1581 1.427 . S
C1574 H1565 0.930 . S
C1574 C1572 1.378 . S
C1574 C1575 1.367 . S
C1575 C1574 1.367 . S
C1575 C1577 1.433 . S
C1576 C1572 1.350 . S
C1576 C1573 1.463 . S
C1576 N1580 1.427 . S
C1577 H1567 0.929 . S
C1577 C1575 1.433 . S
C1577 N1580 1.384 . S
C1578 H1569 0.929 . S
C1578 C1570 1.378 . S
C1578 C1573 1.350 . S
C1579 H1566 0.929 1_455 S
C1579 C1571 1.433 . S
C1579 N1581 1.384 . S
N1580 C1576 1.427 . S
N1580 C1577 1.384 . S
N1581 C1573 1.427 . S
N1581 C1579 1.384 . S
H1582 C1588 0.930 . S
H1583 C1592 0.930 . S
H1584 C1597 0.929 . S
H1585 C1595 0.929 . S
H1586 C1590 0.929 . S
H1587 C1596 0.929 . S
C1588 H1582 0.930 . S
C1588 C1589 1.367 . S
C1588 C1596 1.378 . S
C1589 C1588 1.367 . S
C1589 C1597 1.433 . S
C1590 H1586 0.929 . S
C1590 C1592 1.378 . S
C1590 C1594 1.350 . S
C1591 C1594 1.463 . S
C1591 C1596 1.350 . S
C1591 N1599 1.427 . S
C1592 H1583 0.930 . S
C1592 C1590 1.378 . S
C1592 C1593 1.367 . S
C1593 C1592 1.367 . S
C1593 C1595 1.433 . S
C1594 C1590 1.350 . S
C1594 C1591 1.463 . S
C1594 N1598 1.427 . S
C1595 H1585 0.929 . S
C1595 C1593 1.433 . S
C1595 N1598 1.384 . S
C1596 H1587 0.929 . S
C1596 C1588 1.378 . S
C1596 C1591 1.350 . S
C1597 H1584 0.929 . S
C1597 C1589 1.433 . S
C1597 N1599 1.384 . S
N1598 C1594 1.427 . S
N1598 C1595 1.384 . S
N1599 C1591 1.427 . S
N1599 C1597 1.384 . S
C455 C51 1.057 . S
C459 C9 1.058 . S
C473 C37 1.052 . S
C477 C23 1.053 . S
C491 C107 1.054 . S
C495 C65 1.053 . S
C509 C93 1.072 . S
C513 C79 1.072 . S
C527 C121 1.068 . S
C531 C163 1.066 . S
C545 C135 1.053 . S
C549 C149 1.055 . S
C563 C219 1.071 . S
C567 C177 1.072 . S
C581 C191 1.054 . S
C585 C205 1.052 . S
C599 C233 1.055 . S
C603 C275 1.056 . S
C617 C247 1.072 . S
C621 C261 1.073 . S
C635 C331 1.051 . S
C639 C289 1.050 . S
C653 C317 1.051 . S
C657 C303 1.050 . S
C671 C387 1.053 . S
C675 C345 1.054 . S
C689 C359 1.066 . S
C693 C373 1.065 . S
C707 C401 1.058 . S
C711 C443 1.057 . S
C725 C415 1.066 . S
C729 C429 1.068 . S
C743 C283 1.269 . S
C747 C3 1.269 . S
C761 C185 1.265 . S
C765 C17 1.265 . S
C779 C31 1.275 . S
C783 C423 1.275 . S
C797 C45 1.264 . S
C801 C101 1.264 . S
C815 C227 1.268 . S
C819 C59 1.268 . S
C833 C129 1.265 . S
C837 C73 1.265 . S
C851 C367 1.272 . S
C855 C87 1.272 . S
C869 C115 1.270 . S
C873 C395 1.270 . S
C887 C311 1.274 . S
C891 C143 1.274 . S
C905 C213 1.264 . S
C909 C157 1.264 . S
C923 C339 1.264 . S
C927 C171 1.264 . S
C941 C199 1.276 . S
C945 C255 1.276 . S
C959 C409 1.266 . S
C963 C241 1.266 . S
C977 C269 1.276 . S
C981 C325 1.276 . S
C995 C353 1.273 . S
C999 C297 1.273 . S
C1013 C437 1.278 . S
C1017 C381 1.278 . S
C1031 C21 1.328 . S
C1035 C7 1.321 . S
C1049 C35 1.320 . S
C1053 C49 1.330 . S
C1067 C63 1.329 . S
C1071 C77 1.321 . S
C1085 C105 1.321 . S
C1089 C91 1.329 . S
C1103 C119 1.330 . S
C1107 C133 1.320 . S
C1121 C147 1.325 . S
C1125 C161 1.326 . S
C1139 C189 1.321 . S
C1143 C175 1.329 . S
C1157 C203 1.321 . S
C1161 C217 1.328 . S
C1175 C231 1.330 . S
C1179 C245 1.320 . S
C1193 C259 1.327 . S
C1197 C273 1.323 . S
C1211 C287 1.329 . S
C1215 C301 1.322 . S
C1229 C329 1.320 . S
C1233 C315 1.330 . S
C1247 C357 1.329 . S
C1251 C343 1.321 . S
C1265 C371 1.329 . S
C1269 C385 1.320 . S
C1283 C399 1.320 . S
C1287 C413 1.330 . S
C1301 C441 1.329 . S
C1305 C427 1.321 . S
C1319 C8 1.518 . S
C1323 C274 1.518 . S
C1337 C22 1.522 . S
C1341 C260 1.522 . S
C1355 C246 1.523 . S
C1359 C36 1.523 . S
C1373 C50 1.524 . S
C1377 C232 1.524 . S
C1391 C330 1.520 . S
C1395 C64 1.520 . S
C1409 C78 1.519 . S
C1413 C316 1.520 . S
C1427 C302 1.519 . S
C1431 C92 1.519 . S
C1445 C106 1.522 . S
C1449 C288 1.522 . S
C1463 C120 1.519 . S
C1467 C386 1.519 . S
C1481 C134 1.520 . S
C1485 C372 1.520 . S
C1499 C148 1.523 . S
C1503 C358 1.523 . S
C1517 C344 1.518 . S
C1521 C162 1.518 . S
C1535 C176 1.518 . S
C1539 C442 1.518 . S
C1553 C190 1.521 . S
C1557 C428 1.522 . S
C1571 C204 1.523 . S
C1575 C414 1.523 . S
C1589 C400 1.519 . S
C1593 C218 1.519 . S
