# Generated by pormake.
# Topology wgs, (5)-cn, num edge types: 1
# Building blocks:
#     Node 0, Type 0, BuildingBlock: BEQFEK_clean_sbu_0, # of connection points: 5
#     Node 1, Type 0, BuildingBlock: BEQFEK_clean_sbu_0, # of connection points: 5
#     Node 2, Type 0, BuildingBlock: BEQFEK_clean_sbu_0, # of connection points: 5
#     Node 3, Type 0, BuildingBlock: BEQFEK_clean_sbu_0, # of connection points: 5
#     Node 4, Type 0, BuildingBlock: BEQFEK_clean_sbu_0, # of connection points: 5
#     Node 5, Type 0, BuildingBlock: BEQFEK_clean_sbu_0, # of connection points: 5
#     Node 6, Type 0, BuildingBlock: BEQFEK_clean_sbu_0, # of connection points: 5
#     Node 7, Type 0, BuildingBlock: BEQFEK_clean_sbu_0, # of connection points: 5
#     Node 8, Type 0, BuildingBlock: BEQFEK_clean_sbu_0, # of connection points: 5
#     Node 9, Type 0, BuildingBlock: BEQFEK_clean_sbu_0, # of connection points: 5
#     Node 10, Type 0, BuildingBlock: BEQFEK_clean_sbu_0, # of connection points: 5
#     Node 11, Type 0, BuildingBlock: BEQFEK_clean_sbu_0, # of connection points: 5
#     Node 12, Type 0, BuildingBlock: BEQFEK_clean_sbu_0, # of connection points: 5
#     Node 13, Type 0, BuildingBlock: BEQFEK_clean_sbu_0, # of connection points: 5
#     Node 14, Type 0, BuildingBlock: BEQFEK_clean_sbu_0, # of connection points: 5
#     Node 15, Type 0, BuildingBlock: BEQFEK_clean_sbu_0, # of connection points: 5
#     Node 16, Type 0, BuildingBlock: BEQFEK_clean_sbu_0, # of connection points: 5
#     Node 17, Type 0, BuildingBlock: BEQFEK_clean_sbu_0, # of connection points: 5
#     Node 18, Type 0, BuildingBlock: BEQFEK_clean_sbu_0, # of connection points: 5
#     Node 19, Type 0, BuildingBlock: BEQFEK_clean_sbu_0, # of connection points: 5
#     Node 20, Type 0, BuildingBlock: BEQFEK_clean_sbu_0, # of connection points: 5
#     Node 21, Type 0, BuildingBlock: BEQFEK_clean_sbu_0, # of connection points: 5
#     Node 22, Type 0, BuildingBlock: BEQFEK_clean_sbu_0, # of connection points: 5
#     Node 23, Type 0, BuildingBlock: BEQFEK_clean_sbu_0, # of connection points: 5
#     Node 24, Type 0, BuildingBlock: BEQFEK_clean_sbu_0, # of connection points: 5
#     Node 25, Type 0, BuildingBlock: BEQFEK_clean_sbu_0, # of connection points: 5
#     Node 26, Type 0, BuildingBlock: BEQFEK_clean_sbu_0, # of connection points: 5
#     Node 27, Type 0, BuildingBlock: BEQFEK_clean_sbu_0, # of connection points: 5
#     Node 28, Type 0, BuildingBlock: BEQFEK_clean_sbu_0, # of connection points: 5
#     Node 29, Type 0, BuildingBlock: BEQFEK_clean_sbu_0, # of connection points: 5
#     Node 30, Type 0, BuildingBlock: BEQFEK_clean_sbu_0, # of connection points: 5
#     Node 31, Type 0, BuildingBlock: BEQFEK_clean_sbu_0, # of connection points: 5
#     Edge 32, Type (0, 0), BuildingBlock: KIFKEQ_clean_linker_1, # of connection points: 2
#     Edge 33, Type (0, 0), BuildingBlock: KIFKEQ_clean_linker_1, # of connection points: 2
#     Edge 34, Type (0, 0), BuildingBlock: KIFKEQ_clean_linker_1, # of connection points: 2
#     Edge 35, Type (0, 0), BuildingBlock: KIFKEQ_clean_linker_1, # of connection points: 2
#     Edge 36, Type (0, 0), BuildingBlock: KIFKEQ_clean_linker_1, # of connection points: 2
#     Edge 37, Type (0, 0), BuildingBlock: KIFKEQ_clean_linker_1, # of connection points: 2
#     Edge 38, Type (0, 0), BuildingBlock: KIFKEQ_clean_linker_1, # of connection points: 2
#     Edge 39, Type (0, 0), BuildingBlock: KIFKEQ_clean_linker_1, # of connection points: 2
#     Edge 40, Type (0, 0), BuildingBlock: KIFKEQ_clean_linker_1, # of connection points: 2
#     Edge 41, Type (0, 0), BuildingBlock: KIFKEQ_clean_linker_1, # of connection points: 2
#     Edge 42, Type (0, 0), BuildingBlock: KIFKEQ_clean_linker_1, # of connection points: 2
#     Edge 43, Type (0, 0), BuildingBlock: KIFKEQ_clean_linker_1, # of connection points: 2
#     Edge 44, Type (0, 0), BuildingBlock: KIFKEQ_clean_linker_1, # of connection points: 2
#     Edge 45, Type (0, 0), BuildingBlock: KIFKEQ_clean_linker_1, # of connection points: 2
#     Edge 46, Type (0, 0), BuildingBlock: KIFKEQ_clean_linker_1, # of connection points: 2
#     Edge 47, Type (0, 0), BuildingBlock: KIFKEQ_clean_linker_1, # of connection points: 2
#     Edge 48, Type (0, 0), BuildingBlock: KIFKEQ_clean_linker_1, # of connection points: 2
#     Edge 49, Type (0, 0), BuildingBlock: KIFKEQ_clean_linker_1, # of connection points: 2
#     Edge 50, Type (0, 0), BuildingBlock: KIFKEQ_clean_linker_1, # of connection points: 2
#     Edge 51, Type (0, 0), BuildingBlock: KIFKEQ_clean_linker_1, # of connection points: 2
#     Edge 52, Type (0, 0), BuildingBlock: KIFKEQ_clean_linker_1, # of connection points: 2
#     Edge 53, Type (0, 0), BuildingBlock: KIFKEQ_clean_linker_1, # of connection points: 2
#     Edge 54, Type (0, 0), BuildingBlock: KIFKEQ_clean_linker_1, # of connection points: 2
#     Edge 55, Type (0, 0), BuildingBlock: KIFKEQ_clean_linker_1, # of connection points: 2
#     Edge 56, Type (0, 0), BuildingBlock: KIFKEQ_clean_linker_1, # of connection points: 2
#     Edge 57, Type (0, 0), BuildingBlock: KIFKEQ_clean_linker_1, # of connection points: 2
#     Edge 58, Type (0, 0), BuildingBlock: KIFKEQ_clean_linker_1, # of connection points: 2
#     Edge 59, Type (0, 0), BuildingBlock: KIFKEQ_clean_linker_1, # of connection points: 2
#     Edge 60, Type (0, 0), BuildingBlock: KIFKEQ_clean_linker_1, # of connection points: 2
#     Edge 61, Type (0, 0), BuildingBlock: KIFKEQ_clean_linker_1, # of connection points: 2
#     Edge 62, Type (0, 0), BuildingBlock: KIFKEQ_clean_linker_1, # of connection points: 2
#     Edge 63, Type (0, 0), BuildingBlock: KIFKEQ_clean_linker_1, # of connection points: 2
#     Edge 64, Type (0, 0), BuildingBlock: KIFKEQ_clean_linker_1, # of connection points: 2
#     Edge 65, Type (0, 0), BuildingBlock: KIFKEQ_clean_linker_1, # of connection points: 2
#     Edge 66, Type (0, 0), BuildingBlock: KIFKEQ_clean_linker_1, # of connection points: 2
#     Edge 67, Type (0, 0), BuildingBlock: KIFKEQ_clean_linker_1, # of connection points: 2
#     Edge 68, Type (0, 0), BuildingBlock: KIFKEQ_clean_linker_1, # of connection points: 2
#     Edge 69, Type (0, 0), BuildingBlock: KIFKEQ_clean_linker_1, # of connection points: 2
#     Edge 70, Type (0, 0), BuildingBlock: KIFKEQ_clean_linker_1, # of connection points: 2
#     Edge 71, Type (0, 0), BuildingBlock: KIFKEQ_clean_linker_1, # of connection points: 2
#     Edge 72, Type (0, 0), BuildingBlock: KIFKEQ_clean_linker_1, # of connection points: 2
#     Edge 73, Type (0, 0), BuildingBlock: KIFKEQ_clean_linker_1, # of connection points: 2
#     Edge 74, Type (0, 0), BuildingBlock: KIFKEQ_clean_linker_1, # of connection points: 2
#     Edge 75, Type (0, 0), BuildingBlock: KIFKEQ_clean_linker_1, # of connection points: 2
#     Edge 76, Type (0, 0), BuildingBlock: KIFKEQ_clean_linker_1, # of connection points: 2
#     Edge 77, Type (0, 0), BuildingBlock: KIFKEQ_clean_linker_1, # of connection points: 2
#     Edge 78, Type (0, 0), BuildingBlock: KIFKEQ_clean_linker_1, # of connection points: 2
#     Edge 79, Type (0, 0), BuildingBlock: KIFKEQ_clean_linker_1, # of connection points: 2
#     Edge 80, Type (0, 0), BuildingBlock: KIFKEQ_clean_linker_1, # of connection points: 2
#     Edge 81, Type (0, 0), BuildingBlock: KIFKEQ_clean_linker_1, # of connection points: 2
#     Edge 82, Type (0, 0), BuildingBlock: KIFKEQ_clean_linker_1, # of connection points: 2
#     Edge 83, Type (0, 0), BuildingBlock: KIFKEQ_clean_linker_1, # of connection points: 2
#     Edge 84, Type (0, 0), BuildingBlock: KIFKEQ_clean_linker_1, # of connection points: 2
#     Edge 85, Type (0, 0), BuildingBlock: KIFKEQ_clean_linker_1, # of connection points: 2
#     Edge 86, Type (0, 0), BuildingBlock: KIFKEQ_clean_linker_1, # of connection points: 2
#     Edge 87, Type (0, 0), BuildingBlock: KIFKEQ_clean_linker_1, # of connection points: 2
#     Edge 88, Type (0, 0), BuildingBlock: KIFKEQ_clean_linker_1, # of connection points: 2
#     Edge 89, Type (0, 0), BuildingBlock: KIFKEQ_clean_linker_1, # of connection points: 2
#     Edge 90, Type (0, 0), BuildingBlock: KIFKEQ_clean_linker_1, # of connection points: 2
#     Edge 91, Type (0, 0), BuildingBlock: KIFKEQ_clean_linker_1, # of connection points: 2
#     Edge 92, Type (0, 0), BuildingBlock: KIFKEQ_clean_linker_1, # of connection points: 2
#     Edge 93, Type (0, 0), BuildingBlock: KIFKEQ_clean_linker_1, # of connection points: 2
#     Edge 94, Type (0, 0), BuildingBlock: KIFKEQ_clean_linker_1, # of connection points: 2
#     Edge 95, Type (0, 0), BuildingBlock: KIFKEQ_clean_linker_1, # of connection points: 2
#     Edge 96, Type (0, 0), BuildingBlock: KIFKEQ_clean_linker_1, # of connection points: 2
#     Edge 97, Type (0, 0), BuildingBlock: KIFKEQ_clean_linker_1, # of connection points: 2
#     Edge 98, Type (0, 0), BuildingBlock: KIFKEQ_clean_linker_1, # of connection points: 2
#     Edge 99, Type (0, 0), BuildingBlock: KIFKEQ_clean_linker_1, # of connection points: 2
#     Edge 100, Type (0, 0), BuildingBlock: KIFKEQ_clean_linker_1, # of connection points: 2
#     Edge 101, Type (0, 0), BuildingBlock: KIFKEQ_clean_linker_1, # of connection points: 2
#     Edge 102, Type (0, 0), BuildingBlock: KIFKEQ_clean_linker_1, # of connection points: 2
#     Edge 103, Type (0, 0), BuildingBlock: KIFKEQ_clean_linker_1, # of connection points: 2
#     Edge 104, Type (0, 0), BuildingBlock: KIFKEQ_clean_linker_1, # of connection points: 2
#     Edge 105, Type (0, 0), BuildingBlock: KIFKEQ_clean_linker_1, # of connection points: 2
#     Edge 106, Type (0, 0), BuildingBlock: KIFKEQ_clean_linker_1, # of connection points: 2
#     Edge 107, Type (0, 0), BuildingBlock: KIFKEQ_clean_linker_1, # of connection points: 2
#     Edge 108, Type (0, 0), BuildingBlock: KIFKEQ_clean_linker_1, # of connection points: 2
#     Edge 109, Type (0, 0), BuildingBlock: KIFKEQ_clean_linker_1, # of connection points: 2
#     Edge 110, Type (0, 0), BuildingBlock: KIFKEQ_clean_linker_1, # of connection points: 2
#     Edge 111, Type (0, 0), BuildingBlock: KIFKEQ_clean_linker_1, # of connection points: 2
# Relax obj value: 0.109
# Max RMSD: 0.161
# Mean RMSD: 0.161
data_MOF--net-wgs--node1-BEQFEK_clean_sbu_0--edge1-KIFKEQ_clean_linker_1
_symmetry_space_group_name_H-M    P1
_symmetry_Int_Tables_number       1
_symmetry_cell_setting            triclinic
loop_
_symmetry_equiv_pos_as_xyz
'x, y, z'
_cell_length_a     29.296057
_cell_length_b     29.30022
_cell_length_c     156.67276
_cell_angle_alpha  90.03778
_cell_angle_beta   89.977948
_cell_angle_gamma 89.985784
loop_
_atom_site_label
_atom_site_type_symbol
_atom_site_fract_x
_atom_site_fract_y
_atom_site_fract_z
_atom_type_partial_charge
Co0 Co 0.32958 0.06166 0.32629 0.0
Co1 Co 0.31631 0.06043 0.30641 0.0
C2 C 0.39241 0.11225 0.3142 0.0
O3 O 0.3804 0.09921 0.32165 0.0
O4 O 0.37104 0.09938 0.30753 0.0
C5 C 0.34208 0.09175 0.34306 0.0
O6 O 0.34778 0.13043 0.33896 0.0
C7 C 0.32754 0.04991 0.2877 0.0
C8 C 0.26085 0.01914 0.28443 0.0
C9 C 0.30247 0.03178 0.28099 0.0
N10 N 0.30188 0.04756 0.29481 0.0
N11 N 0.26188 0.02978 0.29277 0.0
C12 C 0.37621 0.06529 0.28756 0.0
H13 H 0.39422 0.05244 0.2933 0.0
H14 H 0.39404 0.05328 0.28172 0.0
H15 H 0.37716 0.10313 0.28775 0.0
C16 C 0.33079 0.96144 0.32361 0.0
N17 N 0.32704 0.00464 0.32075 0.0
N18 N 0.32423 0.00432 0.31238 0.0
C19 C 0.32771 0.96091 0.30961 0.0
C20 C 0.3314 0.93214 0.31663 0.0
C21 C 0.33176 0.94881 0.33286 0.0
H22 H 0.30917 0.97194 0.33655 0.0
H23 H 0.36708 0.95282 0.33531 0.0
H24 H 0.32062 0.91303 0.33386 0.0
O25 O 0.27334 0.09696 0.32476 0.0
O26 O 0.26435 0.09748 0.31074 0.0
H27 H 0.29732 0.94662 0.29749 0.0
H28 H 0.3478 0.91343 0.29969 0.0
C29 C 0.33177 0.94753 0.30041 0.0
H30 H 0.35294 0.97279 0.29696 0.0
H31 H 0.23581 0.0235 0.29716 0.0
O32 O 0.33605 0.05534 0.33879 0.0
C33 C 0.2517 0.10984 0.31816 0.0
Co34 Co 0.19879 0.06457 0.57733 0.0
Co35 Co 0.20314 0.05848 0.55732 0.0
C36 C 0.14782 0.12991 0.56584 0.0
O37 O 0.16022 0.1159 0.5732 0.0
O38 O 0.1623 0.11122 0.559 0.0
C39 C 0.20754 0.10145 0.59461 0.0
O40 O 0.21672 0.14102 0.59106 0.0
C41 C 0.2153 0.07669 0.53878 0.0
C42 C 0.246 0.01119 0.53474 0.0
C43 C 0.23347 0.05389 0.53178 0.0
N44 N 0.21754 0.04869 0.54558 0.0
N45 N 0.23542 0.00949 0.54308 0.0
C46 C 0.19974 0.12526 0.53922 0.0
H47 H 0.16203 0.12629 0.53859 0.0
H48 H 0.20897 0.14031 0.54548 0.0
H49 H 0.21508 0.14584 0.53401 0.0
C50 C 0.29985 0.06995 0.57504 0.0
N51 N 0.25688 0.06586 0.57204 0.0
N52 N 0.25797 0.06585 0.56364 0.0
C53 C 0.30139 0.07143 0.56104 0.0
C54 C 0.32953 0.07354 0.56815 0.0
C55 C 0.31212 0.06875 0.5843 0.0
H56 H 0.28846 0.0459 0.5878 0.0
H57 H 0.30885 0.10364 0.58699 0.0
H58 H 0.34774 0.05686 0.58523 0.0
O59 O 0.16499 0.00815 0.57486 0.0
O60 O 0.16751 0.00413 0.56078 0.0
H61 H 0.31661 0.04561 0.54859 0.0
H62 H 0.34924 0.09543 0.55149 0.0
C63 C 0.31526 0.0789 0.55194 0.0
H64 H 0.29002 0.10112 0.54873 0.0
H65 H 0.24144 0.98191 0.54714 0.0
O66 O 0.20141 0.0666 0.58993 0.0
C67 C 0.15401 0.98858 0.56792 0.0
Co68 Co 0.17545 0.91745 0.82544 0.0
Co69 Co 0.1787 0.9177 0.80535 0.0
C70 C 0.10657 0.86693 0.81482 0.0
O71 O 0.12188 0.87994 0.82205 0.0
O72 O 0.12502 0.87957 0.80784 0.0
C73 C 0.14282 0.92932 0.84296 0.0
O74 O 0.10185 0.93391 0.83966 0.0
C75 C 0.15264 0.93197 0.78726 0.0
C76 C 0.22076 0.93342 0.78119 0.0
C77 C 0.17456 0.93648 0.77945 0.0
N78 N 0.18465 0.92668 0.79335 0.0
N79 N 0.22521 0.92742 0.78966 0.0
C80 C 0.10237 0.92947 0.7889 0.0
H81 H 0.09084 0.89381 0.78788 0.0
H82 H 0.09468 0.93912 0.7956 0.0
H83 H 0.08316 0.95168 0.78445 0.0
C84 C 0.17342 0.01765 0.8225 0.0
N85 N 0.17529 0.97425 0.81968 0.0
N86 N 0.17553 0.97423 0.81127 0.0
C87 C 0.1731 0.01759 0.80847 0.0
C88 C 0.17179 0.04663 0.81548 0.0
C89 C 0.17551 0.03087 0.83171 0.0
H90 H 0.19974 0.00832 0.83514 0.0
H91 H 0.14122 0.02645 0.83461 0.0
H92 H 0.1864 0.06687 0.83252 0.0
O93 O 0.23035 0.88147 0.82277 0.0
O94 O 0.23266 0.8814 0.80865 0.0
H95 H 0.20079 0.02093 0.79584 0.0
H96 H 0.16234 0.06744 0.79838 0.0
C97 C 0.16902 0.03053 0.79926 0.0
H98 H 0.14029 0.01153 0.79637 0.0
H99 H 0.25602 0.92388 0.79293 0.0
O100 O 0.17688 0.92393 0.83804 0.0
C101 C 0.24887 0.86898 0.81581 0.0
Co102 Co 0.32369 0.93179 0.07604 0.0
Co103 Co 0.31577 0.92704 0.05611 0.0
C104 C 0.37366 0.86143 0.06494 0.0
O105 O 0.36345 0.88115 0.07196 0.0
O106 O 0.35591 0.87378 0.05788 0.0
C107 C 0.31421 0.89772 0.09342 0.0
O108 O 0.30041 0.85924 0.08997 0.0
C109 C 0.29782 0.90742 0.03773 0.0
C110 C 0.26408 0.97218 0.03415 0.0
C111 C 0.27631 0.92974 0.03102 0.0
N112 N 0.29768 0.93547 0.04454 0.0
N113 N 0.27797 0.97422 0.0423 0.0
C114 C 0.31476 0.85929 0.03791 0.0
H115 H 0.3521 0.85925 0.03672 0.0
H116 H 0.30865 0.84405 0.04429 0.0
H117 H 0.29783 0.83833 0.03293 0.0
C118 C 0.22243 0.92598 0.07463 0.0
N119 N 0.26481 0.92734 0.07128 0.0
N120 N 0.26219 0.9223 0.06296 0.0
C121 C 0.21825 0.91561 0.06078 0.0
C122 C 0.19138 0.91845 0.06807 0.0
C123 C 0.21187 0.9346 0.08384 0.0
H124 H 0.23817 0.95708 0.08671 0.0
H125 H 0.21179 0.90162 0.08731 0.0
H126 H 0.17778 0.95065 0.08457 0.0
O127 O 0.3539 0.9886 0.07284 0.0
O128 O 0.35396 0.9816 0.05878 0.0
H129 H 0.19887 0.93412 0.04809 0.0
H130 H 0.16932 0.88485 0.05219 0.0
C131 C 0.20264 0.90284 0.052 0.0
H132 H 0.22812 0.88017 0.04894 0.0
H133 H 0.27287 0.00167 0.04644 0.0
O134 O 0.32373 0.93145 0.08865 0.0
C135 C 0.36614 0.00261 0.06552 0.0
Co136 Co 0.31834 0.93361 0.1742 0.0
Co137 Co 0.3016 0.94088 0.19394 0.0
C138 C 0.37965 0.88681 0.18666 0.0
O139 O 0.36914 0.89783 0.17903 0.0
O140 O 0.35678 0.90122 0.19306 0.0
C141 C 0.35669 0.9286 0.15699 0.0
O142 O 0.39629 0.92052 0.16062 0.0
C143 C 0.31817 0.9627 0.21207 0.0
C144 C 0.24788 0.97724 0.21644 0.0
C145 C 0.29293 0.97667 0.21909 0.0
N146 N 0.28926 0.95578 0.20553 0.0
N147 N 0.24728 0.96399 0.20822 0.0
C148 C 0.36895 0.95924 0.21136 0.0
H149 H 0.37948 0.92373 0.21283 0.0
H150 H 0.37998 0.96727 0.20475 0.0
H151 H 0.38595 0.98262 0.21594 0.0
C152 C 0.32576 0.03362 0.17596 0.0
N153 N 0.31683 0.99201 0.17919 0.0
N154 N 0.30912 0.99551 0.18744 0.0
C155 C 0.31223 0.03986 0.1897 0.0
C156 C 0.32332 0.06544 0.18252 0.0
C157 C 0.34017 0.04168 0.16692 0.0
H158 H 0.36714 0.01683 0.16516 0.0
H159 H 0.35344 0.07675 0.16596 0.0
H160 H 0.31059 0.03587 0.16264 0.0
O161 O 0.26235 0.89817 0.17624 0.0
O162 O 0.24956 0.90287 0.19012 0.0
H163 H 0.29926 0.09518 0.1986 0.0
H164 H 0.33163 0.04767 0.20277 0.0
C165 C 0.3031 0.05755 0.1985 0.0
H166 H 0.27121 0.0423 0.20099 0.0
H167 H 0.21832 0.9617 0.20437 0.0
O168 O 0.32195 0.93663 0.16161 0.0
C169 C 0.239 0.88761 0.18278 0.0
Co170 Co 0.29443 0.06385 0.42364 0.0
Co171 Co 0.29202 0.06205 0.44366 0.0
C172 C 0.34789 0.13026 0.43482 0.0
O173 O 0.33564 0.11326 0.42767 0.0
O174 O 0.33207 0.11539 0.44188 0.0
C175 C 0.28876 0.10341 0.40671 0.0
O176 O 0.28664 0.14296 0.41065 0.0
C177 C 0.28078 0.07954 0.46226 0.0
C178 C 0.24982 0.01399 0.46619 0.0
C179 C 0.26267 0.05644 0.46922 0.0
N180 N 0.27822 0.05192 0.4554 0.0
N181 N 0.26018 0.0127 0.45784 0.0
C182 C 0.29663 0.12802 0.46193 0.0
H183 H 0.33439 0.12874 0.46245 0.0
H184 H 0.28704 0.14359 0.45573 0.0
H185 H 0.28184 0.14831 0.46723 0.0
C186 C 0.19396 0.07067 0.42615 0.0
N187 N 0.23706 0.06719 0.42909 0.0
N188 N 0.23654 0.06868 0.43748 0.0
C189 C 0.19322 0.07456 0.44014 0.0
C190 C 0.16463 0.07542 0.43308 0.0
C191 C 0.1813 0.06732 0.41692 0.0
H192 H 0.20472 0.04352 0.41358 0.0
H193 H 0.18471 0.1015 0.41394 0.0
H194 H 0.14561 0.05538 0.41613 0.0
O195 O 0.32619 0.00644 0.42598 0.0
O196 O 0.32863 0.008 0.44008 0.0
H197 H 0.17832 0.04987 0.45267 0.0
H198 H 0.14589 0.09965 0.44967 0.0
C199 C 0.17978 0.08288 0.44923 0.0
H200 H 0.20536 0.10509 0.45236 0.0
H201 H 0.25385 0.9854 0.45372 0.0
O202 O 0.29009 0.06692 0.41107 0.0
C203 C 0.33973 0.9897 0.43301 0.0
Co204 Co 0.17218 0.0799 0.67549 0.0
Co205 Co 0.17929 0.0765 0.69551 0.0
C206 C 0.10442 0.12766 0.68631 0.0
O207 O 0.11838 0.11554 0.67895 0.0
O208 O 0.12463 0.1148 0.69311 0.0
C209 C 0.14309 0.0795 0.65767 0.0
O210 O 0.10145 0.08584 0.66055 0.0
C211 C 0.15265 0.05044 0.71308 0.0
C212 C 0.21499 0.06969 0.72016 0.0
C213 C 0.17167 0.05171 0.72119 0.0
N214 N 0.18357 0.06686 0.70752 0.0
N215 N 0.22067 0.07829 0.71181 0.0
C216 C 0.10496 0.03725 0.71074 0.0
H217 H 0.09915 0.04174 0.70379 0.0
H218 H 0.09857 0.00118 0.71249 0.0
H219 H 0.08046 0.05858 0.71439 0.0
C220 C 0.16728 0.98023 0.67781 0.0
N221 N 0.17217 0.02263 0.68097 0.0
N222 N 0.17719 0.02054 0.68931 0.0
C223 C 0.17716 0.97631 0.69169 0.0
C224 C 0.17026 0.94934 0.6845 0.0
C225 C 0.15699 0.9702 0.66865 0.0
H226 H 0.18845 0.97498 0.6648 0.0
H227 H 0.13094 0.99454 0.66628 0.0
H228 H 0.14412 0.93493 0.66776 0.0
O229 O 0.22648 0.1165 0.67836 0.0
O230 O 0.2329 0.11362 0.69241 0.0
H231 H 0.21041 0.98392 0.70385 0.0
H232 H 0.20318 0.92558 0.70041 0.0
C233 C 0.18716 0.95991 0.70054 0.0
H234 H 0.15481 0.95745 0.70418 0.0
H235 H 0.2499 0.09223 0.70903 0.0
O236 O 0.17575 0.07433 0.66291 0.0
C237 C 0.24685 0.12776 0.6852 0.0
Co238 Co 0.17579 0.93506 0.92417 0.0
Co239 Co 0.18337 0.93847 0.94421 0.0
C240 C 0.1281 0.86721 0.9357 0.0
O241 O 0.13875 0.88252 0.92833 0.0
O242 O 0.14353 0.88519 0.94253 0.0
C243 C 0.18353 0.90036 0.90673 0.0
O244 O 0.19196 0.86037 0.91018 0.0
C245 C 0.20066 0.91754 0.96249 0.0
C246 C 0.22999 0.98342 0.96666 0.0
C247 C 0.22007 0.9397 0.96944 0.0
N248 N 0.19979 0.94688 0.95588 0.0
N249 N 0.21677 0.98629 0.95847 0.0
C250 C 0.18715 0.86842 0.96187 0.0
H251 H 0.14989 0.86549 0.96302 0.0
H252 H 0.19445 0.85516 0.95538 0.0
H253 H 0.20543 0.84749 0.96668 0.0
C254 C 0.27707 0.93113 0.92584 0.0
N255 N 0.23461 0.93407 0.92913 0.0
N256 N 0.23716 0.93299 0.93751 0.0
C257 C 0.2811 0.92774 0.93981 0.0
C258 C 0.30797 0.92707 0.93252 0.0
C259 C 0.28772 0.93401 0.91651 0.0
H260 H 0.26357 0.9576 0.91332 0.0
H261 H 0.28382 0.89966 0.91362 0.0
H262 H 0.32319 0.94596 0.91544 0.0
O263 O 0.14184 0.99066 0.92717 0.0
O264 O 0.14589 0.99248 0.94126 0.0
H265 H 0.29753 0.95187 0.95233 0.0
H266 H 0.33126 0.90365 0.94893 0.0
C267 C 0.29673 0.91916 0.94877 0.0
H268 H 0.27277 0.89555 0.95198 0.0
H269 H 0.22062 0.0148 0.95455 0.0
O270 O 0.17741 0.93481 0.91152 0.0
C271 C 0.13137 0.00893 0.93426 0.0
Co272 Co 0.68989 0.93926 0.67444 0.0
Co273 Co 0.68999 0.93714 0.69446 0.0
C274 C 0.62075 0.88565 0.68458 0.0
O275 O 0.63817 0.89887 0.67754 0.0
O276 O 0.63641 0.89899 0.69175 0.0
C277 C 0.65734 0.9474 0.65698 0.0
O278 O 0.61592 0.94712 0.66019 0.0
C279 C 0.66388 0.94943 0.71262 0.0
C280 C 0.73193 0.94717 0.7187 0.0
C281 C 0.68585 0.95137 0.72044 0.0
N282 N 0.69574 0.94438 0.7065 0.0
N283 N 0.73626 0.943 0.71019 0.0
C284 C 0.61351 0.94944 0.71106 0.0
H285 H 0.60602 0.95293 0.70415 0.0
H286 H 0.59703 0.97767 0.71463 0.0
H287 H 0.59883 0.91692 0.71343 0.0
C288 C 0.6829 0.03876 0.67773 0.0
N289 N 0.68685 0.99529 0.68041 0.0
N290 N 0.68633 0.99444 0.68881 0.0
C291 C 0.68161 0.0374 0.69175 0.0
C292 C 0.67922 0.06696 0.68483 0.0
C293 C 0.68438 0.05276 0.66855 0.0
H294 H 0.71018 0.03214 0.66509 0.0
H295 H 0.65057 0.04616 0.66561 0.0
H296 H 0.69281 0.08948 0.66786 0.0
O297 O 0.74598 0.90548 0.67692 0.0
O298 O 0.74455 0.90153 0.691 0.0
H299 H 0.70702 0.03884 0.70456 0.0
H300 H 0.66938 0.08599 0.70202 0.0
C301 C 0.67599 0.04918 0.70099 0.0
H302 H 0.64663 0.03 0.7036 0.0
H303 H 0.76697 0.93901 0.7069 0.0
O304 O 0.69154 0.94675 0.66194 0.0
C305 C 0.7629 0.89137 0.68389 0.0
Co306 Co 0.79498 0.92992 0.42276 0.0
Co307 Co 0.79136 0.92888 0.4428 0.0
C308 C 0.8472 0.86145 0.43372 0.0
O309 O 0.83552 0.87951 0.42664 0.0
O310 O 0.83114 0.8756 0.44082 0.0
C311 C 0.78955 0.8919 0.40575 0.0
O312 O 0.78604 0.85237 0.40965 0.0
C313 C 0.77938 0.90976 0.46135 0.0
C314 C 0.74762 0.97477 0.46539 0.0
C315 C 0.76076 0.93226 0.46835 0.0
N316 N 0.77682 0.93777 0.45456 0.0
N317 N 0.75828 0.97665 0.45706 0.0
C318 C 0.7959 0.86151 0.46093 0.0
H319 H 0.83365 0.86126 0.46151 0.0
H320 H 0.78676 0.84617 0.45469 0.0
H321 H 0.78118 0.84075 0.46618 0.0
C322 C 0.69416 0.92353 0.42508 0.0
N323 N 0.7372 0.92626 0.42809 0.0
N324 N 0.73633 0.92345 0.43647 0.0
C325 C 0.69292 0.91737 0.43904 0.0
C326 C 0.66457 0.91791 0.43195 0.0
C327 C 0.68179 0.92819 0.41586 0.0
H328 H 0.70562 0.95206 0.41265 0.0
H329 H 0.68482 0.89434 0.41273 0.0
H330 H 0.64626 0.94065 0.4151 0.0
O331 O 0.82717 0.98677 0.42548 0.0
O332 O 0.82833 0.98313 0.43958 0.0
H333 H 0.67712 0.9398 0.45169 0.0
H334 H 0.64539 0.89028 0.44833 0.0
C335 C 0.67913 0.9074 0.44806 0.0
H336 H 0.70476 0.8849 0.4511 0.0
H337 H 0.75189 0.00416 0.453 0.0
O338 O 0.79147 0.92825 0.41015 0.0
C339 C 0.84014 0.0024 0.43264 0.0
Co340 Co 0.82969 0.07485 0.17413 0.0
Co341 Co 0.81902 0.07526 0.19412 0.0
C342 C 0.89585 0.12397 0.18556 0.0
O343 O 0.88142 0.11161 0.17824 0.0
O344 O 0.876 0.11125 0.1924 0.0
C345 C 0.8449 0.10241 0.15725 0.0
O346 O 0.85494 0.14037 0.1613 0.0
C347 C 0.83597 0.05329 0.21233 0.0
C348 C 0.77013 0.07446 0.21798 0.0
C349 C 0.81261 0.05693 0.22 0.0
N350 N 0.80832 0.06804 0.20605 0.0
N351 N 0.76904 0.08049 0.20949 0.0
C352 C 0.88458 0.03935 0.21106 0.0
H353 H 0.90719 0.0633 0.21456 0.0
H354 H 0.89355 0.03944 0.20417 0.0
H355 H 0.89024 0.0048 0.21374 0.0
C356 C 0.8309 0.97544 0.17706 0.0
N357 N 0.82742 0.01853 0.17995 0.0
N358 N 0.82139 0.01807 0.18828 0.0
C359 C 0.81954 0.97429 0.19092 0.0
C360 C 0.82603 0.94581 0.18392 0.0
C361 C 0.84093 0.96343 0.16797 0.0
H362 H 0.86694 0.98715 0.16537 0.0
H363 H 0.85359 0.92789 0.16735 0.0
H364 H 0.80933 0.96738 0.16413 0.0
O365 O 0.77419 0.11149 0.17589 0.0
O366 O 0.76814 0.1138 0.18996 0.0
H367 H 0.79261 0.92531 0.19992 0.0
H368 H 0.83968 0.95914 0.20371 0.0
C369 C 0.80805 0.95988 0.19983 0.0
H370 H 0.78372 0.98427 0.20275 0.0
H371 H 0.74154 0.0936 0.20604 0.0
O372 O 0.83415 0.06727 0.16157 0.0
C373 C 0.75422 0.12556 0.18259 0.0
Co374 Co 0.67846 0.07016 0.92424 0.0
Co375 Co 0.678 0.0656 0.94429 0.0
C376 C 0.62535 0.13691 0.93488 0.0
O377 O 0.63827 0.12064 0.92773 0.0
O378 O 0.63937 0.12031 0.94195 0.0
C379 C 0.67749 0.10241 0.90671 0.0
O380 O 0.66726 0.14264 0.90989 0.0
C381 C 0.69596 0.08593 0.96268 0.0
C382 C 0.67923 0.01872 0.96827 0.0
C383 C 0.69258 0.06256 0.97036 0.0
N384 N 0.68489 0.05697 0.95632 0.0
N385 N 0.67521 0.01688 0.95974 0.0
C386 C 0.70633 0.13542 0.96146 0.0
H387 H 0.68061 0.15622 0.96492 0.0
H388 H 0.70604 0.14441 0.95457 0.0
H389 H 0.74025 0.14344 0.96422 0.0
C390 C 0.77737 0.07868 0.92723 0.0
N391 N 0.73456 0.07294 0.93012 0.0
N392 N 0.73519 0.06944 0.9385 0.0
C393 C 0.77889 0.07161 0.94118 0.0
C394 C 0.80708 0.07792 0.93413 0.0
C395 C 0.78876 0.08766 0.91807 0.0
H396 H 0.76399 0.11235 0.91537 0.0
H397 H 0.8237 0.10168 0.91732 0.0
H398 H 0.78585 0.05537 0.9144 0.0
O399 O 0.645 0.01347 0.92644 0.0
O400 O 0.64189 0.01215 0.94051 0.0
H401 H 0.82945 0.05288 0.9506 0.0
H402 H 0.79076 0.09772 0.95371 0.0
C403 C 0.79357 0.06484 0.95024 0.0
H404 H 0.7713 0.03942 0.95341 0.0
H405 H 0.66519 0.98825 0.95625 0.0
O406 O 0.68588 0.06938 0.91171 0.0
C407 C 0.6313 0.9952 0.93331 0.0
Co408 Co 0.67708 0.05545 0.82629 0.0
Co409 Co 0.68541 0.05382 0.80634 0.0
C410 C 0.61151 0.10614 0.81509 0.0
O411 O 0.6247 0.0931 0.82245 0.0
O412 O 0.63176 0.09313 0.80831 0.0
C413 C 0.64199 0.04481 0.84371 0.0
O414 O 0.60172 0.03618 0.84039 0.0
C415 C 0.66222 0.03865 0.78818 0.0
C416 C 0.73097 0.04003 0.78236 0.0
C417 C 0.68509 0.03564 0.78046 0.0
N418 N 0.69335 0.04445 0.7944 0.0
N419 N 0.73432 0.04526 0.79087 0.0
C420 C 0.6117 0.03902 0.78956 0.0
H421 H 0.60348 0.03411 0.79641 0.0
H422 H 0.5951 0.01195 0.78571 0.0
H423 H 0.5978 0.07236 0.78743 0.0
C424 C 0.67458 0.95495 0.8236 0.0
N425 N 0.67771 0.99812 0.82071 0.0
N426 N 0.68006 0.99754 0.81232 0.0
C427 C 0.67784 0.95399 0.80959 0.0
C428 C 0.67436 0.92547 0.81665 0.0
C429 C 0.67414 0.94237 0.83286 0.0
H430 H 0.69693 0.9655 0.83649 0.0
H431 H 0.63896 0.94632 0.83537 0.0
H432 H 0.68534 0.90658 0.83384 0.0
O433 O 0.73282 0.09065 0.82405 0.0
O434 O 0.73942 0.08933 0.81 0.0
H435 H 0.70829 0.95046 0.79718 0.0
H436 H 0.66999 0.90349 0.7995 0.0
C437 C 0.67598 0.94051 0.80037 0.0
H438 H 0.64762 0.95896 0.79725 0.0
H439 H 0.76462 0.04974 0.79426 0.0
O440 O 0.67604 0.05116 0.83884 0.0
C441 C 0.75365 0.10218 0.81728 0.0
Co442 Co 0.69884 0.93484 0.57634 0.0
Co443 Co 0.70345 0.93893 0.55634 0.0
C444 C 0.64764 0.86859 0.56514 0.0
O445 O 0.66011 0.88313 0.57246 0.0
O446 O 0.66223 0.88663 0.55825 0.0
C447 C 0.70588 0.90154 0.5939 0.0
O448 O 0.71222 0.8605 0.59072 0.0
C449 C 0.71559 0.91778 0.53791 0.0
C450 C 0.74697 0.9823 0.53354 0.0
C451 C 0.73399 0.93931 0.5308 0.0
N452 N 0.71809 0.9468 0.54456 0.0
N453 N 0.73642 0.98539 0.54187 0.0
C454 C 0.69954 0.86947 0.53859 0.0
H455 H 0.70893 0.85521 0.54491 0.0
H456 H 0.71441 0.84799 0.53346 0.0
H457 H 0.66179 0.86878 0.53804 0.0
C458 C 0.79957 0.9285 0.5742 0.0
N459 N 0.75685 0.93271 0.57111 0.0
N460 N 0.75829 0.93192 0.56272 0.0
C461 C 0.80181 0.92563 0.56021 0.0
C462 C 0.82958 0.92383 0.56738 0.0
C463 C 0.81128 0.93077 0.58349 0.0
H464 H 0.78805 0.95483 0.58681 0.0
H465 H 0.80682 0.89643 0.58635 0.0
H466 H 0.84711 0.94189 0.58445 0.0
O467 O 0.66545 0.99091 0.57363 0.0
O468 O 0.66783 0.99402 0.55955 0.0
H469 H 0.81776 0.95013 0.5477 0.0
H470 H 0.84988 0.9003 0.55081 0.0
C471 C 0.81602 0.91717 0.55116 0.0
H472 H 0.79071 0.8949 0.54797 0.0
H473 H 0.74272 0.01351 0.54578 0.0
O474 O 0.70173 0.93537 0.58891 0.0
C475 C 0.65445 0.01007 0.56667 0.0
Co476 Co 0.83755 0.92597 0.32539 0.0
Co477 Co 0.82089 0.92368 0.30556 0.0
C478 C 0.90027 0.87577 0.31333 0.0
O479 O 0.889 0.88948 0.32077 0.0
O480 O 0.87738 0.88696 0.30673 0.0
C481 C 0.85031 0.89881 0.3423 0.0
O482 O 0.85558 0.85951 0.33838 0.0
C483 C 0.83069 0.94018 0.2869 0.0
C484 C 0.75793 0.94612 0.28336 0.0
C485 C 0.80174 0.9497 0.28008 0.0
N486 N 0.80488 0.93228 0.29387 0.0
N487 N 0.7615 0.93505 0.29164 0.0
C488 C 0.88169 0.94271 0.28705 0.0
H489 H 0.89591 0.91095 0.28425 0.0
H490 H 0.89431 0.94595 0.2937 0.0
H491 H 0.89381 0.97205 0.28319 0.0
C492 C 0.83394 0.02538 0.32229 0.0
N493 N 0.83196 0.98186 0.31955 0.0
N494 N 0.82621 0.98126 0.31122 0.0
C495 C 0.82498 0.02467 0.30837 0.0
C496 C 0.82977 0.05411 0.31528 0.0
C497 C 0.83717 0.03867 0.33149 0.0
H498 H 0.81415 0.01683 0.33535 0.0
H499 H 0.87261 0.03292 0.33375 0.0
H500 H 0.82784 0.07495 0.33251 0.0
O501 O 0.78224 0.88877 0.32431 0.0
O502 O 0.77083 0.88588 0.31037 0.0
H503 H 0.78882 0.02649 0.29651 0.0
H504 H 0.82655 0.07466 0.29811 0.0
C505 C 0.82218 0.03752 0.29914 0.0
H506 H 0.84959 0.01981 0.2956 0.0
H507 H 0.73427 0.93107 0.29587 0.0
O508 O 0.84468 0.93465 0.33785 0.0
C509 C 0.75972 0.87449 0.31793 0.0
Co510 Co 0.81881 0.07347 0.07612 0.0
Co511 Co 0.81708 0.05679 0.05626 0.0
C512 C 0.86841 0.13502 0.06411 0.0
O513 O 0.85571 0.12419 0.07163 0.0
O514 O 0.85556 0.11237 0.05758 0.0
C515 C 0.81747 0.11491 0.093 0.0
O516 O 0.82497 0.15365 0.08903 0.0
C517 C 0.79455 0.0722 0.03803 0.0
C518 C 0.798 0.00149 0.03316 0.0
C519 C 0.78804 0.04586 0.03074 0.0
N520 N 0.80729 0.04437 0.04444 0.0
N521 N 0.80987 0.00231 0.04144 0.0
C522 C 0.78531 0.12204 0.03913 0.0
H523 H 0.81485 0.14172 0.03667 0.0
H524 H 0.78067 0.13043 0.04599 0.0
H525 H 0.75454 0.1322 0.03546 0.0
C526 C 0.71921 0.07859 0.07334 0.0
N527 N 0.76189 0.07127 0.07048 0.0
N528 N 0.76065 0.06279 0.06223 0.0
C529 C 0.71674 0.06308 0.05964 0.0
C530 C 0.68905 0.07372 0.06657 0.0
C531 C 0.70837 0.09333 0.08227 0.0
H532 H 0.73232 0.12067 0.08422 0.0
H533 H 0.67295 0.10632 0.08285 0.0
H534 H 0.71317 0.064 0.08665 0.0
O535 O 0.85538 0.01745 0.07453 0.0
O536 O 0.85393 0.0054 0.0606 0.0
H537 H 0.66533 0.03847 0.05086 0.0
H538 H 0.70386 0.0806 0.04662 0.0
C539 C 0.70127 0.05038 0.05084 0.0
H540 H 0.72305 0.02279 0.04825 0.0
H541 H 0.81847 0.9739 0.04512 0.0
O542 O 0.81204 0.07861 0.08868 0.0
C543 C 0.86742 0.99443 0.06803 0.0
Co544 Co 0.81778 0.55591 0.82733 0.0
Co545 Co 0.8131 0.5499 0.80731 0.0
C546 C 0.88467 0.60475 0.81571 0.0
O547 O 0.86965 0.59352 0.82307 0.0
O548 O 0.86651 0.58976 0.80887 0.0
C549 C 0.8567 0.54839 0.84432 0.0
O550 O 0.89599 0.54272 0.84041 0.0
C551 C 0.83003 0.53567 0.78876 0.0
C552 C 0.76419 0.50451 0.78506 0.0
C553 C 0.80664 0.51662 0.78192 0.0
N554 N 0.8026 0.53433 0.79565 0.0
N555 N 0.76319 0.51617 0.79335 0.0
C556 C 0.87862 0.55127 0.78897 0.0
H557 H 0.89419 0.54297 0.79523 0.0
H558 H 0.89877 0.53519 0.78377 0.0
H559 H 0.87956 0.58888 0.78815 0.0
C560 C 0.82185 0.45483 0.82534 0.0
N561 N 0.8186 0.49754 0.82219 0.0
N562 N 0.81954 0.49572 0.8138 0.0
C563 C 0.82505 0.45208 0.81135 0.0
C564 C 0.82599 0.42454 0.81854 0.0
C565 C 0.81925 0.44342 0.83463 0.0
H566 H 0.79596 0.46747 0.83793 0.0
H567 H 0.85374 0.44684 0.83748 0.0
H568 H 0.80707 0.40796 0.83561 0.0
O569 O 0.76163 0.59012 0.82478 0.0
O570 O 0.7595 0.58679 0.81068 0.0
H571 H 0.80068 0.43541 0.79886 0.0
H572 H 0.85048 0.40355 0.80205 0.0
C573 C 0.83361 0.43742 0.80232 0.0
H574 H 0.85589 0.46257 0.7991 0.0
H575 H 0.73596 0.51067 0.79753 0.0
O576 O 0.82055 0.55285 0.83993 0.0
C577 C 0.74317 0.60093 0.81773 0.0
Co578 Co 0.67898 0.56548 0.07754 0.0
Co579 Co 0.69316 0.56802 0.05767 0.0
C580 C 0.63434 0.63619 0.06608 0.0
O581 O 0.6421 0.61689 0.07322 0.0
O582 O 0.65343 0.62249 0.05921 0.0
C583 C 0.67487 0.60207 0.09461 0.0
O584 O 0.67783 0.64194 0.09082 0.0
C585 C 0.71616 0.59049 0.03965 0.0
C586 C 0.74076 0.52311 0.03525 0.0
C587 C 0.73437 0.56778 0.03265 0.0
N588 N 0.71249 0.56051 0.04612 0.0
N589 N 0.72677 0.52027 0.0434 0.0
C590 C 0.70495 0.64012 0.04038 0.0
H591 H 0.66792 0.6449 0.03919 0.0
H592 H 0.71252 0.65245 0.04693 0.0
H593 H 0.72443 0.66045 0.03564 0.0
C594 C 0.77985 0.57209 0.07724 0.0
N595 N 0.73908 0.56907 0.07331 0.0
N596 N 0.74513 0.57077 0.065 0.0
C597 C 0.79011 0.57518 0.06336 0.0
C598 C 0.81363 0.57631 0.07106 0.0
C599 C 0.78567 0.57316 0.08672 0.0
H600 H 0.7692 0.54265 0.08957 0.0
H601 H 0.7682 0.60377 0.0893 0.0
H602 H 0.82208 0.57455 0.08863 0.0
O603 O 0.64751 0.5094 0.07401 0.0
O604 O 0.65349 0.51454 0.05997 0.0
H605 H 0.80278 0.5424 0.05143 0.0
H606 H 0.84761 0.58025 0.05458 0.0
C607 C 0.81014 0.57546 0.05456 0.0
H608 H 0.79408 0.603 0.05075 0.0
H609 H 0.72774 0.49097 0.04718 0.0
O610 O 0.67657 0.56586 0.09016 0.0
C611 C 0.63793 0.49478 0.06659 0.0
Co612 Co 0.67601 0.42094 0.32713 0.0
Co613 Co 0.68171 0.43483 0.30725 0.0
C614 C 0.60809 0.37851 0.31512 0.0
O615 O 0.6231 0.38674 0.32261 0.0
O616 O 0.62702 0.39531 0.30849 0.0
C617 C 0.64005 0.42048 0.34445 0.0
O618 O 0.5996 0.42486 0.34093 0.0
C619 C 0.66009 0.45725 0.28923 0.0
C620 C 0.7277 0.48067 0.28475 0.0
C621 C 0.68289 0.47476 0.28219 0.0
N622 N 0.69014 0.45349 0.29569 0.0
N623 N 0.73054 0.46702 0.29292 0.0
C624 C 0.61032 0.44677 0.29 0.0
H625 H 0.5979 0.4564 0.29645 0.0
H626 H 0.59028 0.465 0.28505 0.0
H627 H 0.60523 0.40949 0.2892 0.0
C628 C 0.67238 0.52198 0.32668 0.0
N629 N 0.67607 0.48106 0.32282 0.0
N630 N 0.67775 0.48697 0.3145 0.0
C631 C 0.67494 0.53199 0.31279 0.0
C632 C 0.67122 0.55564 0.32045 0.0
C633 C 0.66749 0.52816 0.33612 0.0
H634 H 0.63528 0.51189 0.33823 0.0
H635 H 0.66654 0.56466 0.33797 0.0
H636 H 0.69614 0.51083 0.33942 0.0
O637 O 0.73109 0.38643 0.3239 0.0
O638 O 0.73473 0.39553 0.3099 0.0
H639 H 0.67551 0.5896 0.30402 0.0
H640 H 0.65104 0.53738 0.29993 0.0
C641 C 0.67829 0.55192 0.30402 0.0
H642 H 0.71176 0.54274 0.30122 0.0
H643 H 0.75994 0.46775 0.29668 0.0
O644 O 0.67539 0.41957 0.33976 0.0
C645 C 0.74999 0.37812 0.31676 0.0
Co646 Co 0.83242 0.41796 0.57555 0.0
Co647 Co 0.83118 0.41964 0.55541 0.0
C648 C 0.88214 0.34799 0.56508 0.0
O649 O 0.86932 0.36367 0.5723 0.0
O650 O 0.86934 0.36616 0.55809 0.0
C651 C 0.81956 0.3883 0.59327 0.0
O652 O 0.8129 0.34699 0.59025 0.0
C653 C 0.81448 0.39325 0.53724 0.0
C654 C 0.81749 0.46126 0.53118 0.0
C655 C 0.81119 0.41541 0.52943 0.0
N656 N 0.82205 0.42483 0.54334 0.0
N657 N 0.82394 0.4653 0.53963 0.0
C658 C 0.81276 0.34288 0.53879 0.0
H659 H 0.82426 0.33453 0.54534 0.0
H660 H 0.77728 0.33044 0.53799 0.0
H661 H 0.83434 0.3249 0.53403 0.0
C662 C 0.732 0.41876 0.57274 0.0
N663 N 0.77533 0.41834 0.56985 0.0
N664 N 0.77493 0.41802 0.56144 0.0
C665 C 0.73135 0.41767 0.55872 0.0
C666 C 0.70263 0.41821 0.56577 0.0
C667 C 0.71934 0.4227 0.58196 0.0
H668 H 0.74273 0.44683 0.58521 0.0
H669 H 0.72301 0.38879 0.58503 0.0
H670 H 0.68369 0.43471 0.58278 0.0
O671 O 0.86908 0.47211 0.57268 0.0
O672 O 0.86789 0.4736 0.55857 0.0
H673 H 0.72903 0.44593 0.54613 0.0
H674 H 0.68047 0.41016 0.5487 0.0
C675 C 0.71775 0.41468 0.54953 0.0
H676 H 0.73496 0.38501 0.54659 0.0
H677 H 0.82964 0.49583 0.54289 0.0
O678 O 0.82643 0.4211 0.58813 0.0
C679 C 0.88107 0.49011 0.56566 0.0
Co680 Co 0.81283 0.43584 0.67412 0.0
Co681 Co 0.80895 0.44297 0.69416 0.0
C682 C 0.88019 0.38754 0.68569 0.0
O683 O 0.86498 0.39842 0.67832 0.0
O684 O 0.86216 0.40284 0.69253 0.0
C685 C 0.84847 0.44111 0.65672 0.0
O686 O 0.88886 0.44686 0.6602 0.0
C687 C 0.82734 0.45771 0.71264 0.0
C688 C 0.76213 0.48978 0.71648 0.0
C689 C 0.80464 0.47724 0.71952 0.0
N690 N 0.79946 0.45921 0.70582 0.0
N691 N 0.76043 0.47791 0.7082 0.0
C692 C 0.87572 0.44146 0.71233 0.0
H693 H 0.89105 0.44964 0.70604 0.0
H694 H 0.89636 0.4572 0.71749 0.0
H695 H 0.87621 0.40383 0.71313 0.0
C696 C 0.81856 0.53698 0.67593 0.0
N697 N 0.81434 0.4945 0.67915 0.0
N698 N 0.81527 0.49672 0.68754 0.0
C699 C 0.82159 0.54037 0.68992 0.0
C700 C 0.8232 0.56749 0.68267 0.0
C701 C 0.81696 0.54796 0.66662 0.0
H702 H 0.79277 0.52478 0.66332 0.0
H703 H 0.85139 0.54273 0.66383 0.0
H704 H 0.80649 0.58389 0.66554 0.0
O705 O 0.75687 0.40201 0.67695 0.0
O706 O 0.75493 0.40623 0.69103 0.0
H707 H 0.79783 0.55785 0.70241 0.0
H708 H 0.84786 0.58902 0.69911 0.0
C709 C 0.83061 0.55533 0.6989 0.0
H710 H 0.85277 0.53009 0.70214 0.0
H711 H 0.73298 0.48362 0.70409 0.0
O712 O 0.81354 0.43769 0.66148 0.0
C713 C 0.73845 0.39173 0.68403 0.0
Co714 Co 0.81373 0.58287 0.92505 0.0
Co715 Co 0.80988 0.5766 0.94509 0.0
C716 C 0.86264 0.64973 0.93662 0.0
O717 O 0.85065 0.63515 0.92927 0.0
O718 O 0.84887 0.63075 0.94348 0.0
C719 C 0.84534 0.59154 0.90827 0.0
O720 O 0.88379 0.59728 0.91245 0.0
C721 C 0.79739 0.5935 0.96366 0.0
C722 C 0.7671 0.52754 0.96752 0.0
C723 C 0.77912 0.57019 0.97058 0.0
N724 N 0.7957 0.56583 0.9568 0.0
N725 N 0.77812 0.52634 0.9592 0.0
C726 C 0.81248 0.64222 0.96336 0.0
H727 H 0.8503 0.64344 0.96365 0.0
H728 H 0.80167 0.65799 0.95724 0.0
H729 H 0.79828 0.66201 0.96878 0.0
C730 C 0.71319 0.58465 0.92734 0.0
N731 N 0.7561 0.58217 0.9304 0.0
N732 N 0.75481 0.58238 0.93879 0.0
C733 C 0.71112 0.58656 0.94134 0.0
C734 C 0.68317 0.58752 0.93419 0.0
C735 C 0.70153 0.58226 0.91805 0.0
H736 H 0.72502 0.55839 0.91474 0.0
H737 H 0.70586 0.6166 0.91518 0.0
H738 H 0.66582 0.57082 0.91706 0.0
O739 O 0.84911 0.52726 0.92735 0.0
O740 O 0.84727 0.52361 0.94145 0.0
H741 H 0.69574 0.56005 0.95372 0.0
H742 H 0.66232 0.60931 0.95082 0.0
C743 C 0.69666 0.59348 0.95042 0.0
H744 H 0.72133 0.616 0.95372 0.0
H745 H 0.77244 0.49895 0.95507 0.0
O746 O 0.80856 0.58636 0.91247 0.0
C747 C 0.86091 0.50825 0.93429 0.0
Co748 Co 0.66237 0.57893 0.17555 0.0
Co749 Co 0.67167 0.56765 0.19543 0.0
C750 C 0.59563 0.62171 0.18771 0.0
O751 O 0.60966 0.61271 0.18018 0.0
O752 O 0.61593 0.60624 0.19432 0.0
C753 C 0.62621 0.57896 0.15813 0.0
O754 O 0.58526 0.57657 0.16152 0.0
C755 C 0.6531 0.54556 0.21358 0.0
C756 C 0.72208 0.52464 0.21777 0.0
C757 C 0.67744 0.52908 0.22053 0.0
N758 N 0.68214 0.55015 0.20698 0.0
N759 N 0.72335 0.53812 0.20957 0.0
C760 C 0.6029 0.55418 0.21304 0.0
H761 H 0.59648 0.5912 0.21394 0.0
H762 H 0.5901 0.54442 0.20663 0.0
H763 H 0.58418 0.53497 0.21804 0.0
C764 C 0.66057 0.47833 0.17634 0.0
N765 N 0.66405 0.51956 0.18007 0.0
N766 N 0.66762 0.51444 0.18839 0.0
C767 C 0.66646 0.46945 0.19022 0.0
C768 C 0.66182 0.44511 0.18264 0.0
C769 C 0.65373 0.4714 0.16697 0.0
H770 H 0.68279 0.48665 0.16343 0.0
H771 H 0.6222 0.48934 0.16496 0.0
H772 H 0.65042 0.43481 0.16527 0.0
O773 O 0.71737 0.61407 0.17838 0.0
O774 O 0.72389 0.60759 0.19239 0.0
H775 H 0.70591 0.46097 0.20155 0.0
H776 H 0.67107 0.41249 0.19909 0.0
C777 C 0.67233 0.45025 0.199 0.0
H778 H 0.64531 0.46396 0.20325 0.0
H779 H 0.75223 0.53821 0.20567 0.0
O780 O 0.66111 0.57888 0.16293 0.0
C781 C 0.73763 0.62377 0.18531 0.0
Co782 Co 0.66607 0.41676 0.42553 0.0
Co783 Co 0.66735 0.41675 0.44562 0.0
C784 C 0.61569 0.34646 0.4357 0.0
O785 O 0.62778 0.36439 0.42866 0.0
O786 O 0.62979 0.36201 0.44284 0.0
C787 C 0.67054 0.384 0.40813 0.0
O788 O 0.66794 0.34318 0.41156 0.0
C789 C 0.6928 0.38928 0.46321 0.0
C790 C 0.67111 0.45043 0.47042 0.0
C791 C 0.6906 0.40772 0.47136 0.0
N792 N 0.67551 0.41997 0.45769 0.0
N793 N 0.66253 0.45632 0.46206 0.0
C794 C 0.70786 0.34229 0.46076 0.0
H795 H 0.70462 0.3371 0.45377 0.0
H796 H 0.74379 0.33671 0.4627 0.0
H797 H 0.68667 0.3168 0.46419 0.0
C798 C 0.76588 0.41217 0.4282 0.0
N799 N 0.72296 0.41448 0.43123 0.0
N800 N 0.72405 0.41681 0.43962 0.0
C801 C 0.76802 0.41778 0.44218 0.0
C802 C 0.79599 0.41421 0.43504 0.0
C803 C 0.77726 0.40595 0.41896 0.0
H804 H 0.76973 0.43802 0.41547 0.0
H805 H 0.75556 0.37861 0.41625 0.0
H806 H 0.81355 0.39649 0.418 0.0
O807 O 0.63069 0.47187 0.42846 0.0
O808 O 0.62987 0.47036 0.44258 0.0
H809 H 0.75789 0.44851 0.4545 0.0
H810 H 0.81674 0.44423 0.45126 0.0
C811 C 0.78312 0.42681 0.45115 0.0
H812 H 0.78655 0.39395 0.45458 0.0
H813 H 0.64779 0.48528 0.45934 0.0
O814 O 0.67236 0.41889 0.41294 0.0
C815 C 0.61764 0.48836 0.43556 0.0
Co816 Co 0.19001 0.43118 0.17393 0.0
Co817 Co 0.19388 0.43974 0.194 0.0
C818 C 0.12584 0.37993 0.18576 0.0
O819 O 0.14238 0.39023 0.17848 0.0
O820 O 0.14047 0.3983 0.19263 0.0
C821 C 0.15459 0.41621 0.15691 0.0
O822 O 0.11915 0.39901 0.16092 0.0
C823 C 0.17469 0.45789 0.21236 0.0
C824 C 0.24242 0.48242 0.21655 0.0
C825 C 0.19833 0.47471 0.21937 0.0
N826 N 0.20358 0.45619 0.20567 0.0
N827 N 0.24407 0.47041 0.20828 0.0
C828 C 0.12509 0.44625 0.21184 0.0
H829 H 0.12093 0.40894 0.21276 0.0
H830 H 0.11157 0.45516 0.20544 0.0
H831 H 0.10536 0.46437 0.21686 0.0
C832 C 0.17733 0.53069 0.17535 0.0
N833 N 0.18473 0.48946 0.17885 0.0
N834 N 0.18661 0.49351 0.18721 0.0
C835 C 0.18068 0.53782 0.18929 0.0
C836 C 0.17444 0.56288 0.18183 0.0
C837 C 0.17075 0.53827 0.16598 0.0
H838 H 0.14562 0.51328 0.16349 0.0
H839 H 0.15843 0.57327 0.16458 0.0
H840 H 0.20358 0.53227 0.16263 0.0
O841 O 0.24836 0.40178 0.17657 0.0
O842 O 0.24791 0.40232 0.19069 0.0
H843 H 0.17974 0.59344 0.19851 0.0
H844 H 0.15675 0.53964 0.20219 0.0
C845 C 0.18355 0.55589 0.19822 0.0
H846 H 0.21724 0.54698 0.20094 0.0
H847 H 0.27268 0.47279 0.20433 0.0
O848 O 0.18715 0.43318 0.16124 0.0
C849 C 0.26575 0.38989 0.18365 0.0
Co850 Co 0.31458 0.43331 0.92392 0.0
Co851 Co 0.31368 0.43344 0.94401 0.0
C852 C 0.36598 0.36366 0.93458 0.0
O853 O 0.35401 0.38154 0.9275 0.0
O854 O 0.35148 0.37901 0.9417 0.0
C855 C 0.30081 0.39826 0.90662 0.0
O856 O 0.29079 0.35895 0.91019 0.0
C857 C 0.29764 0.41173 0.96238 0.0
C858 C 0.29959 0.48135 0.96781 0.0
C859 C 0.29431 0.43592 0.96997 0.0
N860 N 0.30441 0.44174 0.95599 0.0
N861 N 0.30559 0.48321 0.95932 0.0
C862 C 0.297 0.36101 0.96131 0.0
H863 H 0.29847 0.35153 0.95446 0.0
H864 H 0.26563 0.34661 0.96421 0.0
H865 H 0.32666 0.34601 0.96471 0.0
C866 C 0.21405 0.4312 0.92677 0.0
N867 N 0.25746 0.43191 0.92961 0.0
N868 N 0.25731 0.43073 0.93801 0.0
C869 C 0.21385 0.42844 0.94078 0.0
C870 C 0.1849 0.42883 0.93375 0.0
C871 C 0.20093 0.43555 0.91757 0.0
H872 H 0.22532 0.4582 0.91421 0.0
H873 H 0.20224 0.40134 0.91454 0.0
H874 H 0.16589 0.44943 0.91689 0.0
O875 O 0.34853 0.4894 0.92644 0.0
O876 O 0.35068 0.48696 0.94054 0.0
H877 H 0.20982 0.45472 0.9535 0.0
H878 H 0.16379 0.41609 0.95077 0.0
C879 C 0.20068 0.42323 0.94996 0.0
H880 H 0.21993 0.3944 0.95274 0.0
H881 H 0.31061 0.51292 0.95577 0.0
O882 O 0.3095 0.43257 0.91131 0.0
C883 C 0.36189 0.50568 0.93352 0.0
Co884 Co 0.32047 0.57974 0.67448 0.0
Co885 Co 0.32108 0.57773 0.69465 0.0
C886 C 0.39125 0.62941 0.68476 0.0
O887 O 0.37285 0.618 0.6777 0.0
O888 O 0.37595 0.61502 0.69189 0.0
C889 C 0.35225 0.57793 0.65694 0.0
O890 O 0.39304 0.58305 0.66029 0.0
C891 C 0.34738 0.55497 0.71256 0.0
C892 C 0.28328 0.57274 0.71923 0.0
C893 C 0.32712 0.55677 0.72058 0.0
N894 N 0.31663 0.56921 0.70674 0.0
N895 N 0.27848 0.57971 0.7108 0.0
C896 C 0.39584 0.5432 0.71053 0.0
H897 H 0.41908 0.56379 0.71459 0.0
H898 H 0.4033 0.5495 0.70368 0.0
H899 H 0.4023 0.50676 0.71199 0.0
C900 C 0.32679 0.48021 0.67703 0.0
N901 N 0.32324 0.52287 0.68013 0.0
N902 N 0.32157 0.52139 0.68853 0.0
C903 C 0.32266 0.47735 0.69102 0.0
C904 C 0.32656 0.44984 0.68383 0.0
C905 C 0.33305 0.46947 0.66776 0.0
H906 H 0.35967 0.4921 0.66506 0.0
H907 H 0.34346 0.4335 0.66673 0.0
H908 H 0.30066 0.47628 0.66432 0.0
O909 O 0.26521 0.61427 0.67749 0.0
O910 O 0.26762 0.61558 0.6916 0.0
H911 H 0.30214 0.42667 0.70027 0.0
H912 H 0.35014 0.46138 0.70328 0.0
C913 C 0.31652 0.46168 0.70004 0.0
H914 H 0.29332 0.48505 0.70351 0.0
H915 H 0.24909 0.59193 0.70782 0.0
O916 O 0.31789 0.57377 0.66184 0.0
C917 C 0.2491 0.62745 0.68461 0.0
Co918 Co 0.16712 0.57349 0.42564 0.0
Co919 Co 0.16601 0.57899 0.44574 0.0
C920 C 0.11603 0.64688 0.43536 0.0
O921 O 0.12853 0.6269 0.42851 0.0
O922 O 0.12947 0.63328 0.44267 0.0
C923 C 0.18247 0.60366 0.40814 0.0
O924 O 0.1913 0.64391 0.41145 0.0
C925 C 0.18351 0.60698 0.46377 0.0
C926 C 0.17769 0.53999 0.47016 0.0
C927 C 0.18618 0.5857 0.47167 0.0
N928 N 0.17415 0.57501 0.45784 0.0
N929 N 0.17049 0.53518 0.46173 0.0
C930 C 0.1873 0.65698 0.46198 0.0
H931 H 0.15938 0.67528 0.46533 0.0
H932 H 0.18508 0.66373 0.45503 0.0
H933 H 0.22006 0.67039 0.46447 0.0
C934 C 0.26711 0.5744 0.42875 0.0
N935 N 0.22355 0.57541 0.4315 0.0
N936 N 0.22314 0.57836 0.43989 0.0
C937 C 0.26653 0.57982 0.44273 0.0
C938 C 0.29585 0.57737 0.43578 0.0
C939 C 0.28067 0.56776 0.41963 0.0
H940 H 0.25667 0.54393 0.41645 0.0
H941 H 0.27902 0.60107 0.41628 0.0
H942 H 0.31589 0.5541 0.41909 0.0
O943 O 0.13172 0.51916 0.42871 0.0
O944 O 0.12778 0.52528 0.44277 0.0
H945 H 0.26657 0.55659 0.45569 0.0
H946 H 0.31679 0.58921 0.45281 0.0
C947 C 0.27944 0.58589 0.45191 0.0
H948 H 0.26331 0.6174 0.45435 0.0
H949 H 0.16339 0.5045 0.45862 0.0
O950 O 0.17363 0.57031 0.41305 0.0
C951 C 0.11697 0.5051 0.43587 0.0
Co952 Co 0.18208 0.56522 0.32699 0.0
Co953 Co 0.19099 0.55327 0.30703 0.0
C954 C 0.11695 0.61023 0.31479 0.0
O955 O 0.13048 0.60094 0.32234 0.0
O956 O 0.13675 0.59376 0.30821 0.0
C957 C 0.14607 0.5685 0.34442 0.0
O958 O 0.10528 0.57009 0.34095 0.0
C959 C 0.17229 0.53345 0.28871 0.0
C960 C 0.24024 0.50896 0.28462 0.0
C961 C 0.1962 0.51633 0.28175 0.0
N962 N 0.20097 0.5356 0.29542 0.0
N963 N 0.24159 0.52141 0.29287 0.0
C964 C 0.12269 0.54521 0.28915 0.0
H965 H 0.11869 0.58261 0.28833 0.0
H966 H 0.10875 0.53585 0.2955 0.0
H967 H 0.10321 0.52754 0.28405 0.0
C968 C 0.17555 0.46463 0.32607 0.0
N969 N 0.18154 0.5057 0.32239 0.0
N970 N 0.18489 0.50049 0.31407 0.0
C971 C 0.18112 0.45572 0.31219 0.0
C972 C 0.17488 0.43151 0.31973 0.0
C973 C 0.16773 0.45798 0.33543 0.0
H974 H 0.19786 0.47057 0.33902 0.0
H975 H 0.13781 0.47854 0.33743 0.0
H976 H 0.16129 0.42173 0.33706 0.0
O977 O 0.23803 0.59909 0.32412 0.0
O978 O 0.24433 0.59135 0.31013 0.0
H979 H 0.21979 0.44547 0.30081 0.0
H980 H 0.18246 0.39889 0.30322 0.0
C981 C 0.18574 0.43652 0.30337 0.0
H982 H 0.15943 0.45186 0.29917 0.0
H983 H 0.27014 0.51949 0.29684 0.0
O984 O 0.18102 0.56499 0.33966 0.0
C985 C 0.25847 0.60782 0.31716 0.0
Co986 Co 0.18669 0.41192 0.07581 0.0
Co987 Co 0.18213 0.42928 0.05596 0.0
C988 C 0.13537 0.34952 0.06406 0.0
O989 O 0.15007 0.3599 0.07147 0.0
O990 O 0.14565 0.37323 0.05753 0.0
C991 C 0.17526 0.37784 0.09293 0.0
O992 O 0.14686 0.34918 0.08928 0.0
C993 C 0.19682 0.41172 0.03761 0.0
C994 C 0.18832 0.48089 0.03223 0.0
C995 C 0.19741 0.43604 0.03003 0.0
N996 N 0.18809 0.441 0.04403 0.0
N997 N 0.18284 0.48223 0.04075 0.0
C998 C 0.20151 0.3612 0.03871 0.0
H999 H 0.16957 0.34445 0.03655 0.0
H1000 H 0.20747 0.35251 0.04551 0.0
H1001 H 0.22987 0.34778 0.03476 0.0
C1002 C 0.2857 0.41482 0.07215 0.0
N1003 N 0.24184 0.41757 0.06964 0.0
N1004 N 0.24027 0.42436 0.06134 0.0
C1005 C 0.28328 0.426 0.05829 0.0
C1006 C 0.31354 0.41986 0.06503 0.0
C1007 C 0.30015 0.40975 0.08126 0.0
H1008 H 0.2806 0.43396 0.0853 0.0
H1009 H 0.29204 0.37467 0.08345 0.0
H1010 H 0.33714 0.41631 0.08211 0.0
O1011 O 0.14825 0.46671 0.07467 0.0
O1012 O 0.14519 0.47993 0.06076 0.0
H1013 H 0.27883 0.46186 0.0464 0.0
H1014 H 0.3321 0.43147 0.04784 0.0
C1015 C 0.29485 0.43054 0.04901 0.0
H1016 H 0.28094 0.40079 0.04553 0.0
H1017 H 0.17559 0.51135 0.04435 0.0
O1018 O 0.19745 0.40577 0.08831 0.0
C1019 C 0.13377 0.48996 0.06838 0.0
Co1020 Co 0.32194 0.41638 0.82536 0.0
Co1021 Co 0.31623 0.42091 0.80525 0.0
C1022 C 0.38964 0.36815 0.81445 0.0
O1023 O 0.37518 0.37998 0.82181 0.0
O1024 O 0.37031 0.38181 0.80762 0.0
C1025 C 0.35263 0.41727 0.84308 0.0
O1026 O 0.39398 0.41159 0.84 0.0
C1027 C 0.34217 0.44477 0.7874 0.0
C1028 C 0.27748 0.42933 0.78075 0.0
C1029 C 0.32174 0.44415 0.77939 0.0
N1030 N 0.31116 0.43096 0.79321 0.0
N1031 N 0.27263 0.42191 0.78916 0.0
C1032 C 0.391 0.45496 0.78943 0.0
H1033 H 0.39894 0.4459 0.79614 0.0
H1034 H 0.39777 0.49182 0.78848 0.0
H1035 H 0.41363 0.43581 0.78501 0.0
C1036 C 0.32789 0.51617 0.82315 0.0
N1037 N 0.32285 0.47392 0.81992 0.0
N1038 N 0.31892 0.47641 0.81156 0.0
C1039 C 0.32001 0.52069 0.80923 0.0
C1040 C 0.32629 0.54731 0.81648 0.0
C1041 C 0.33714 0.52577 0.83237 0.0
H1042 H 0.36401 0.50228 0.8347 0.0
H1043 H 0.3486 0.5614 0.83341 0.0
H1044 H 0.30568 0.51931 0.83612 0.0
O1045 O 0.26714 0.38044 0.82246 0.0
O1046 O 0.2624 0.38426 0.8084 0.0
H1047 H 0.29787 0.5726 0.80036 0.0
H1048 H 0.34473 0.53775 0.79682 0.0
C1049 C 0.31191 0.53743 0.80033 0.0
H1050 H 0.28769 0.51466 0.79697 0.0
H1051 H 0.243 0.41021 0.79214 0.0
O1052 O 0.31922 0.42171 0.83798 0.0
C1053 C 0.24748 0.36979 0.81552 0.0
Co1054 Co 0.33246 0.58174 0.57564 0.0
Co1055 Co 0.33053 0.57906 0.5555 0.0
C1056 C 0.38115 0.65161 0.56496 0.0
O1057 O 0.36882 0.63607 0.57221 0.0
O1058 O 0.36814 0.63311 0.55801 0.0
C1059 C 0.31656 0.61269 0.59322 0.0
O1060 O 0.30523 0.65246 0.58999 0.0
C1061 C 0.31131 0.60528 0.53751 0.0
C1062 C 0.31651 0.53797 0.53121 0.0
C1063 C 0.30798 0.58364 0.52965 0.0
N1064 N 0.32104 0.57359 0.54346 0.0
N1065 N 0.32432 0.53354 0.53962 0.0
C1066 C 0.30782 0.65537 0.53925 0.0
H1067 H 0.3359 0.67336 0.53589 0.0
H1068 H 0.30999 0.66237 0.54619 0.0
H1069 H 0.27517 0.66896 0.53674 0.0
C1070 C 0.23178 0.57977 0.57293 0.0
N1071 N 0.27507 0.5805 0.57001 0.0
N1072 N 0.27445 0.58051 0.5616 0.0
C1073 C 0.23081 0.58039 0.55891 0.0
C1074 C 0.20229 0.57985 0.56599 0.0
C1075 C 0.21914 0.57595 0.58215 0.0
H1076 H 0.24358 0.55325 0.58549 0.0
H1077 H 0.22088 0.61026 0.58513 0.0
H1078 H 0.18407 0.56231 0.58295 0.0
O1079 O 0.3695 0.52762 0.57282 0.0
O1080 O 0.36787 0.52561 0.55871 0.0
H1081 H 0.22988 0.55278 0.54625 0.0
H1082 H 0.17942 0.58557 0.54891 0.0
C1083 C 0.21689 0.58311 0.54973 0.0
H1084 H 0.2322 0.61397 0.54686 0.0
H1085 H 0.3317 0.50303 0.54276 0.0
O1086 O 0.32718 0.58004 0.58827 0.0
C1087 C 0.38143 0.50947 0.5658 0.0
H1088 H 0.27735 0.87611 0.30733 0.0
H1089 H 0.38672 0.87436 0.32578 0.0
H1090 H 0.27722 0.79322 0.307 0.0
H1091 H 0.38545 0.79045 0.3257 0.0
H1092 H 0.29434 0.65429 0.33078 0.0
H1093 H 0.32491 0.73152 0.33034 0.0
H1094 H 0.32761 0.72601 0.30282 0.0
H1095 H 0.29681 0.64886 0.3032 0.0
C1096 C 0.30186 0.85791 0.31123 0.0
C1097 C 0.3322 0.88162 0.31654 0.0
C1098 C 0.30191 0.81042 0.31102 0.0
C1099 C 0.33186 0.7854 0.31622 0.0
C1100 C 0.36223 0.80899 0.32158 0.0
C1101 C 0.36265 0.85682 0.32169 0.0
C1102 C 0.303 0.6688 0.32464 0.0
C1103 C 0.29177 0.64588 0.31702 0.0
C1104 C 0.32066 0.71309 0.32439 0.0
C1105 C 0.32739 0.73507 0.31654 0.0
C1106 C 0.32178 0.71005 0.30896 0.0
C1107 C 0.30435 0.66573 0.30919 0.0
H1108 H 0.38618 0.02178 0.55861 0.0
H1109 H 0.38637 0.12843 0.57763 0.0
H1110 H 0.46885 0.02492 0.55785 0.0
H1111 H 0.47031 0.13086 0.57704 0.0
H1112 H 0.61182 0.04683 0.58064 0.0
H1113 H 0.5338 0.07517 0.58087 0.0
H1114 H 0.53222 0.07736 0.55333 0.0
H1115 H 0.61005 0.04825 0.55304 0.0
C1116 C 0.40404 0.04632 0.56256 0.0
C1117 C 0.37997 0.07516 0.56811 0.0
C1118 C 0.45139 0.04836 0.56209 0.0
C1119 C 0.47601 0.07891 0.56724 0.0
C1120 C 0.45209 0.10735 0.57293 0.0
C1121 C 0.40428 0.10566 0.57333 0.0
C1122 C 0.59556 0.05494 0.57462 0.0
C1123 C 0.61661 0.04365 0.56681 0.0
C1124 C 0.55078 0.07136 0.57477 0.0
C1125 C 0.52655 0.07697 0.56712 0.0
C1126 C 0.54987 0.07213 0.55933 0.0
C1127 C 0.59461 0.0557 0.55917 0.0
H1128 H 0.22739 0.10179 0.80635 0.0
H1129 H 0.11694 0.10474 0.82458 0.0
H1130 H 0.22814 0.18481 0.80598 0.0
H1131 H 0.11882 0.18869 0.82447 0.0
H1132 H 0.2127 0.32432 0.82935 0.0
H1133 H 0.18135 0.24733 0.82911 0.0
H1134 H 0.17588 0.25169 0.8016 0.0
H1135 H 0.20726 0.3286 0.80177 0.0
C1136 C 0.20283 0.12034 0.81019 0.0
C1137 C 0.17179 0.09704 0.81541 0.0
C1138 C 0.20312 0.16781 0.80996 0.0
C1139 C 0.17292 0.19309 0.81508 0.0
C1140 C 0.14211 0.16989 0.82041 0.0
C1141 C 0.14131 0.1221 0.82052 0.0
C1142 C 0.20323 0.30963 0.82326 0.0
C1143 C 0.2139 0.33205 0.81556 0.0
C1144 C 0.18513 0.26552 0.82314 0.0
C1145 C 0.17745 0.24331 0.81533 0.0
C1146 C 0.18243 0.26791 0.8077 0.0
C1147 C 0.20027 0.31205 0.80781 0.0
H1148 H 0.13525 0.87487 0.07954 0.0
H1149 H 0.13375 0.96327 0.05751 0.0
H1150 H 0.05134 0.8772 0.08 0.0
H1151 H 0.05096 0.9642 0.05776 0.0
H1152 H 0.90654 0.94259 0.05547 0.0
H1153 H 0.98342 0.9111 0.05581 0.0
H1154 H 0.99283 0.94146 0.08271 0.0
H1155 H 0.91579 0.97266 0.08245 0.0
C1156 C 0.11701 0.89451 0.07479 0.0
C1157 C 0.1409 0.91857 0.06844 0.0
C1158 C 0.06917 0.8955 0.07501 0.0
C1159 C 0.04468 0.92004 0.06881 0.0
C1160 C 0.06881 0.94383 0.06247 0.0
C1161 C 0.11628 0.94338 0.06233 0.0
C1162 C 0.92424 0.94112 0.06154 0.0
C1163 C 0.90552 0.96148 0.06887 0.0
C1164 C 0.96837 0.92321 0.06171 0.0
C1165 C 0.99443 0.9251 0.06923 0.0
C1166 C 0.97358 0.93982 0.07682 0.0
C1167 C 0.92939 0.95782 0.07665 0.0
H1168 H 0.29585 0.33951 0.19726 0.0
H1169 H 0.3098 0.35258 0.1699 0.0
H1170 H 0.32457 0.26181 0.19644 0.0
H1171 H 0.339 0.2749 0.16913 0.0
H1172 H 0.28462 0.12418 0.17127 0.0
H1173 H 0.28952 0.20718 0.17121 0.0
H1174 H 0.38191 0.20248 0.19268 0.0
H1175 H 0.37737 0.1189 0.19262 0.0
C1176 C 0.30682 0.3266 0.19112 0.0
C1177 C 0.29911 0.35183 0.18361 0.0
C1178 C 0.32335 0.2819 0.19065 0.0
C1179 C 0.33268 0.26182 0.18269 0.0
C1180 C 0.3309 0.28915 0.17533 0.0
C1181 C 0.31444 0.33382 0.17579 0.0
C1182 C 0.30682 0.14087 0.17583 0.0
C1183 C 0.33025 0.11536 0.18199 0.0
C1184 C 0.30986 0.1884 0.17578 0.0
C1185 C 0.33624 0.21143 0.18193 0.0
C1186 C 0.36116 0.1857 0.1879 0.0
C1187 C 0.3584 0.13803 0.18789 0.0
H1188 H 0.10877 0.02474 0.443 0.0
H1189 H 0.10685 0.12728 0.42325 0.0
H1190 H 0.02596 0.0244 0.44333 0.0
H1191 H 0.02295 0.12642 0.42343 0.0
H1192 H 0.88596 0.03925 0.41904 0.0
H1193 H 0.96319 0.06946 0.41943 0.0
H1194 H 0.9586 0.0713 0.44697 0.0
H1195 H 0.88157 0.0402 0.44662 0.0
C1196 C 0.0905 0.04781 0.43882 0.0
C1197 C 0.11414 0.07623 0.43314 0.0
C1198 C 0.043 0.04782 0.43903 0.0
C1199 C 0.01784 0.07597 0.4335 0.0
C1200 C 0.04146 0.10452 0.42779 0.0
C1201 C 0.08931 0.10478 0.42764 0.0
C1202 C 0.90067 0.04758 0.42518 0.0
C1203 C 0.87808 0.03586 0.43281 0.0
C1204 C 0.94505 0.06504 0.4254 0.0
C1205 C 0.96742 0.07136 0.43324 0.0
C1206 C 0.94256 0.06554 0.44083 0.0
C1207 C 0.89827 0.04798 0.44063 0.0
H1208 H 0.12167 0.89107 0.69463 0.0
H1209 H 0.21554 0.89452 0.67341 0.0
H1210 H 0.12354 0.80741 0.69443 0.0
H1211 H 0.21697 0.81154 0.67309 0.0
H1212 H 0.20529 0.66557 0.67093 0.0
H1213 H 0.17175 0.74156 0.67054 0.0
H1214 H 0.18423 0.75133 0.69794 0.0
H1215 H 0.21705 0.6752 0.69839 0.0
C1216 C 0.14237 0.87386 0.68989 0.0
C1217 C 0.16856 0.89903 0.68404 0.0
C1218 C 0.14321 0.82614 0.68974 0.0
C1219 C 0.17002 0.80291 0.6837 0.0
C1220 C 0.19507 0.82834 0.6777 0.0
C1221 C 0.19447 0.87588 0.67789 0.0
C1222 C 0.19945 0.68321 0.67691 0.0
C1223 C 0.21519 0.66489 0.68466 0.0
C1224 C 0.18045 0.72686 0.67667 0.0
C1225 C 0.17671 0.75285 0.68418 0.0
C1226 C 0.18691 0.73224 0.69204 0.0
C1227 C 0.20589 0.68853 0.69229 0.0
H1228 H 0.58788 0.96262 0.91907 0.0
H1229 H 0.58908 0.95175 0.9466 0.0
H1230 H 0.51046 0.93257 0.91878 0.0
H1231 H 0.51186 0.92116 0.94624 0.0
H1232 H 0.36527 0.97856 0.94192 0.0
H1233 H 0.44806 0.97625 0.94225 0.0
H1234 H 0.44804 0.87304 0.92255 0.0
H1235 H 0.36396 0.87438 0.92243 0.0
C1236 C 0.57247 0.95205 0.92503 0.0
C1237 C 0.59401 0.9612 0.93289 0.0
C1238 C 0.52807 0.93467 0.92485 0.0
C1239 C 0.50484 0.92597 0.93251 0.0
C1240 C 0.52881 0.92869 0.94026 0.0
C1241 C 0.57312 0.94609 0.94045 0.0
C1242 C 0.38284 0.95478 0.93776 0.0
C1243 C 0.35835 0.92628 0.93223 0.0
C1244 C 0.43023 0.95324 0.93798 0.0
C1245 C 0.45441 0.92362 0.93257 0.0
C1246 C 0.43009 0.89573 0.92686 0.0
C1247 C 0.38223 0.89682 0.92673 0.0
H1248 H 0.70234 0.34458 0.67051 0.0
H1249 H 0.7005 0.35133 0.69809 0.0
H1250 H 0.67411 0.26655 0.67113 0.0
H1251 H 0.67209 0.27333 0.69864 0.0
H1252 H 0.73053 0.12561 0.69411 0.0
H1253 H 0.72601 0.20853 0.69445 0.0
H1254 H 0.61664 0.20514 0.67598 0.0
H1255 H 0.62024 0.1213 0.67588 0.0
C1256 C 0.69418 0.3302 0.67669 0.0
C1257 C 0.70524 0.35366 0.68426 0.0
C1258 C 0.67788 0.28542 0.67703 0.0
C1259 C 0.6723 0.26361 0.68494 0.0
C1260 C 0.67715 0.28919 0.69246 0.0
C1261 C 0.69324 0.33397 0.69213 0.0
C1262 C 0.70481 0.14251 0.69028 0.0
C1263 C 0.67549 0.11723 0.68503 0.0
C1264 C 0.70205 0.18994 0.69049 0.0
C1265 C 0.67041 0.2132 0.68535 0.0
C1266 C 0.64105 0.18795 0.68006 0.0
C1267 C 0.64336 0.14022 0.67995 0.0
H1268 H 0.60932 0.96791 0.4421 0.0
H1269 H 0.6062 0.86783 0.42189 0.0
H1270 H 0.52659 0.9679 0.44267 0.0
H1271 H 0.52226 0.8683 0.42233 0.0
H1272 H 0.3836 0.95448 0.41903 0.0
H1273 H 0.4611 0.92489 0.41889 0.0
H1274 H 0.46046 0.91967 0.44643 0.0
H1275 H 0.38319 0.95027 0.44661 0.0
C1276 C 0.59079 0.94536 0.43785 0.0
C1277 C 0.61408 0.9176 0.432 0.0
C1278 C 0.54334 0.94511 0.43821 0.0
C1279 C 0.51783 0.91739 0.43266 0.0
C1280 C 0.54106 0.88978 0.42672 0.0
C1281 C 0.58891 0.88976 0.42642 0.0
C1282 C 0.39925 0.94553 0.42506 0.0
C1283 C 0.3777 0.95624 0.43285 0.0
C1284 C 0.44379 0.92843 0.42497 0.0
C1285 C 0.46733 0.92141 0.43266 0.0
C1286 C 0.4435 0.92604 0.44041 0.0
C1287 C 0.39906 0.9433 0.4405 0.0
H1288 H 0.87066 0.88655 0.19448 0.0
H1289 H 0.77855 0.8917 0.17302 0.0
H1290 H 0.86449 0.80309 0.1947 0.0
H1291 H 0.77269 0.80889 0.17314 0.0
H1292 H 0.78032 0.6615 0.17151 0.0
H1293 H 0.81443 0.73719 0.1709 0.0
H1294 H 0.80253 0.74903 0.19829 0.0
H1295 H 0.76918 0.67305 0.19894 0.0
C1296 C 0.84939 0.86972 0.18978 0.0
C1297 C 0.82502 0.89538 0.18373 0.0
C1298 C 0.84601 0.82209 0.18989 0.0
C1299 C 0.81844 0.79936 0.1839 0.0
C1300 C 0.79509 0.8252 0.17772 0.0
C1301 C 0.79827 0.87267 0.17766 0.0
C1302 C 0.78631 0.6796 0.17744 0.0
C1303 C 0.77099 0.6617 0.18525 0.0
C1304 C 0.8056 0.7231 0.17707 0.0
C1305 C 0.80992 0.74954 0.18451 0.0
C1306 C 0.79952 0.72957 0.19243 0.0
C1307 C 0.78034 0.68593 0.1928 0.0
H1308 H 0.09152 0.05204 0.9207 0.0
H1309 H 0.084 0.04021 0.94817 0.0
H1310 H 0.01431 0.08272 0.92046 0.0
H1311 H 0.00664 0.07035 0.94788 0.0
H1312 H 0.86355 0.12912 0.94425 0.0
H1313 H 0.94737 0.1296 0.9442 0.0
H1314 H 0.94695 0.03289 0.92338 0.0
H1315 H 0.864 0.03165 0.92359 0.0
C1316 C 0.07408 0.05739 0.92671 0.0
C1317 C 0.09342 0.04231 0.93443 0.0
C1318 C 0.02973 0.07475 0.92656 0.0
C1319 C 0.00404 0.07753 0.93412 0.0
C1320 C 0.02552 0.06832 0.94194 0.0
C1321 C 0.06996 0.05096 0.9421 0.0
C1322 C 0.88161 0.10811 0.93967 0.0
C1323 C 0.85747 0.08037 0.93391 0.0
C1324 C 0.92941 0.10863 0.93961 0.0
C1325 C 0.95368 0.08183 0.93371 0.0
C1326 C 0.92927 0.05488 0.92785 0.0
C1327 C 0.88175 0.05399 0.92799 0.0
H1328 H 0.70739 0.64772 0.83135 0.0
H1329 H 0.70483 0.64173 0.80377 0.0
H1330 H 0.67784 0.72543 0.83083 0.0
H1331 H 0.67544 0.71939 0.80332 0.0
H1332 H 0.73087 0.86825 0.80812 0.0
H1333 H 0.72979 0.78517 0.80798 0.0
H1334 H 0.61647 0.78532 0.8256 0.0
H1335 H 0.61635 0.86929 0.82546 0.0
C1336 C 0.69887 0.66218 0.82519 0.0
C1337 C 0.70991 0.63901 0.81759 0.0
C1338 C 0.68185 0.70674 0.82491 0.0
C1339 C 0.67563 0.72862 0.81703 0.0
C1340 C 0.68084 0.70339 0.80947 0.0
C1341 C 0.69754 0.65882 0.80975 0.0
C1342 C 0.70505 0.85059 0.81181 0.0
C1343 C 0.67333 0.87504 0.81671 0.0
C1344 C 0.70433 0.80309 0.81171 0.0
C1345 C 0.67246 0.77893 0.81666 0.0
C1346 C 0.64105 0.80326 0.82168 0.0
C1347 C 0.64124 0.85107 0.82165 0.0
H1348 H 0.10742 0.95598 0.58182 0.0
H1349 H 0.11377 0.94606 0.5543 0.0
H1350 H 0.02977 0.92659 0.58155 0.0
H1351 H 0.03626 0.91618 0.5541 0.0
H1352 H 0.88816 0.97254 0.55766 0.0
H1353 H 0.97095 0.96944 0.55754 0.0
H1354 H 0.96849 0.86801 0.57753 0.0
H1355 H 0.88455 0.87011 0.57744 0.0
C1356 C 0.09306 0.9458 0.57573 0.0
C1357 C 0.11626 0.95493 0.56805 0.0
C1358 C 0.04849 0.92881 0.5756 0.0
C1359 C 0.02662 0.92051 0.56778 0.0
C1360 C 0.05209 0.92341 0.5602 0.0
C1361 C 0.09661 0.94034 0.56033 0.0
C1362 C 0.90517 0.94883 0.5619 0.0
C1363 C 0.88001 0.92134 0.56751 0.0
C1364 C 0.95262 0.94687 0.56181 0.0
C1365 C 0.97617 0.91782 0.56741 0.0
C1366 C 0.95111 0.89042 0.5731 0.0
C1367 C 0.90328 0.89193 0.5731 0.0
H1368 H 0.88853 0.11391 0.32301 0.0
H1369 H 0.76695 0.10773 0.3075 0.0
H1370 H 0.88403 0.19774 0.32303 0.0
H1371 H 0.76361 0.19081 0.30721 0.0
H1372 H 0.78217 0.33616 0.30237 0.0
H1373 H 0.81285 0.25902 0.30165 0.0
H1374 H 0.8217 0.25469 0.32912 0.0
H1375 H 0.79071 0.33186 0.32992 0.0
C1376 C 0.86111 0.13053 0.31957 0.0
C1377 C 0.82823 0.10455 0.3152 0.0
C1378 C 0.85878 0.17827 0.31953 0.0
C1379 C 0.82402 0.20059 0.31499 0.0
C1380 C 0.79146 0.17447 0.31058 0.0
C1381 C 0.79329 0.12698 0.31076 0.0
C1382 C 0.79214 0.31957 0.30826 0.0
C1383 C 0.7828 0.33975 0.31622 0.0
C1384 C 0.80952 0.27527 0.30783 0.0
C1385 C 0.81856 0.25072 0.31533 0.0
C1386 C 0.81479 0.2729 0.32324 0.0
C1387 C 0.79695 0.31709 0.32369 0.0
H1388 H 0.63425 0.12012 0.05544 0.0
H1389 H 0.63065 0.03529 0.07793 0.0
H1390 H 0.55057 0.12037 0.055 0.0
H1391 H 0.54757 0.03632 0.07764 0.0
H1392 H 0.4016 0.05384 0.07853 0.0
H1393 H 0.47831 0.08568 0.07891 0.0
H1394 H 0.49376 0.05816 0.05199 0.0
H1395 H 0.41698 0.02665 0.05155 0.0
C1396 C 0.61549 0.10196 0.06033 0.0
C1397 C 0.63873 0.07751 0.0667 0.0
C1398 C 0.56775 0.10233 0.06011 0.0
C1399 C 0.54254 0.07873 0.06632 0.0
C1400 C 0.56598 0.05572 0.07287 0.0
C1401 C 0.61356 0.05495 0.07303 0.0
C1402 C 0.42065 0.05604 0.07261 0.0
C1403 C 0.40367 0.03639 0.06506 0.0
C1404 C 0.46472 0.07408 0.07286 0.0
C1405 C 0.49243 0.07309 0.06554 0.0
C1406 C 0.47327 0.05914 0.05775 0.0
C1407 C 0.42916 0.04101 0.0575 0.0
H1408 H 0.77508 0.36815 0.80883 0.0
H1409 H 0.8778 0.36749 0.82857 0.0
H1410 H 0.7765 0.28542 0.80836 0.0
H1411 H 0.8781 0.28344 0.82833 0.0
H1412 H 0.78536 0.14561 0.83159 0.0
H1413 H 0.81686 0.22244 0.83194 0.0
H1414 H 0.83061 0.22042 0.80451 0.0
H1415 H 0.79864 0.14377 0.80409 0.0
C1416 C 0.79844 0.35018 0.813 0.0
C1417 C 0.82668 0.37412 0.81866 0.0
C1418 C 0.79944 0.3028 0.8127 0.0
C1419 C 0.82821 0.27806 0.81817 0.0
C1420 C 0.85603 0.30183 0.82398 0.0
C1421 C 0.85552 0.34967 0.82418 0.0
C1422 C 0.79668 0.16075 0.82565 0.0
C1423 C 0.78791 0.13922 0.81778 0.0
C1424 C 0.81493 0.20479 0.82587 0.0
C1425 C 0.82481 0.2277 0.81823 0.0
C1426 C 0.82225 0.20369 0.81048 0.0
C1427 C 0.80404 0.15971 0.81025 0.0
H1428 H 0.09484 0.51392 0.08361 0.0
H1429 H 0.08616 0.53926 0.05646 0.0
H1430 H 0.01966 0.54779 0.08554 0.0
H1431 H 0.01094 0.57307 0.05846 0.0
H1432 H 0.87515 0.63822 0.06495 0.0
H1433 H 0.95873 0.63222 0.06534 0.0
H1434 H 0.94726 0.50954 0.08046 0.0
H1435 H 0.86428 0.51499 0.07986 0.0
C1436 C 0.07763 0.52795 0.07808 0.0
C1437 C 0.09606 0.52276 0.06984 0.0
C1438 C 0.03446 0.54721 0.07921 0.0
C1439 C 0.00913 0.56209 0.07213 0.0
C1440 C 0.02969 0.56181 0.06403 0.0
C1441 C 0.07281 0.54228 0.06289 0.0
C1442 C 0.89078 0.61034 0.06842 0.0
C1443 C 0.86359 0.57678 0.07231 0.0
C1444 C 0.9384 0.60701 0.06867 0.0
C1445 C 0.95945 0.57052 0.07294 0.0
C1446 C 0.93206 0.53848 0.07723 0.0
C1447 C 0.88458 0.54147 0.07688 0.0
H1448 H 0.73245 0.83681 0.33306 0.0
H1449 H 0.71234 0.82673 0.30577 0.0
H1450 H 0.69726 0.76222 0.33491 0.0
H1451 H 0.67745 0.75204 0.30767 0.0
H1452 H 0.61164 0.61694 0.31356 0.0
H1453 H 0.6175 0.70048 0.31395 0.0
H1454 H 0.735 0.68933 0.33049 0.0
H1455 H 0.72948 0.60637 0.32993 0.0
C1456 C 0.71932 0.8194 0.32747 0.0
C1457 C 0.72633 0.83722 0.31924 0.0
C1458 C 0.69931 0.77657 0.32855 0.0
C1459 C 0.68563 0.75094 0.32142 0.0
C1460 C 0.68775 0.771 0.31328 0.0
C1461 C 0.70792 0.81381 0.3122 0.0
C1462 C 0.63825 0.63266 0.31736 0.0
C1463 C 0.67039 0.60558 0.32166 0.0
C1464 C 0.64153 0.68025 0.3176 0.0
C1465 C 0.67662 0.70139 0.32226 0.0
C1466 C 0.7071 0.6741 0.32695 0.0
C1467 C 0.70411 0.62663 0.32663 0.0
H1468 H 0.42311 0.47024 0.552 0.0
H1469 H 0.42596 0.47314 0.5796 0.0
H1470 H 0.49898 0.43634 0.55188 0.0
H1471 H 0.50195 0.43931 0.57942 0.0
H1472 H 0.64122 0.36733 0.57489 0.0
H1473 H 0.55753 0.37454 0.57478 0.0
H1474 H 0.56832 0.48397 0.55643 0.0
H1475 H 0.65114 0.4778 0.55678 0.0
C1476 C 0.43916 0.46232 0.55805 0.0
C1477 C 0.41902 0.47569 0.56581 0.0
C1478 C 0.48269 0.44303 0.55797 0.0
C1479 C 0.50662 0.43639 0.56563 0.0
C1480 C 0.48428 0.44432 0.57342 0.0
C1481 C 0.44075 0.46384 0.57351 0.0
C1482 C 0.62543 0.39288 0.57086 0.0
C1483 C 0.65235 0.42174 0.56577 0.0
C1484 C 0.57777 0.39676 0.57075 0.0
C1485 C 0.55656 0.42911 0.56546 0.0
C1486 C 0.58371 0.45783 0.56039 0.0
C1487 C 0.63107 0.45444 0.5606 0.0
H1488 H 0.80366 0.84795 0.69734 0.0
H1489 H 0.79793 0.84878 0.66976 0.0
H1490 H 0.83301 0.77025 0.69698 0.0
H1491 H 0.8265 0.77086 0.66946 0.0
H1492 H 0.87836 0.62244 0.67286 0.0
H1493 H 0.88248 0.70639 0.67325 0.0
H1494 H 0.77767 0.70825 0.69266 0.0
H1495 H 0.77281 0.62567 0.69208 0.0
C1496 C 0.81023 0.83232 0.6912 0.0
C1497 C 0.79678 0.85392 0.6836 0.0
C1498 C 0.82689 0.78772 0.691 0.0
C1499 C 0.83042 0.76416 0.68321 0.0
C1500 C 0.82367 0.7881 0.67556 0.0
C1501 C 0.80712 0.83281 0.67575 0.0
C1502 C 0.85618 0.64111 0.67716 0.0
C1503 C 0.82552 0.61781 0.68249 0.0
C1504 C 0.85887 0.68888 0.67744 0.0
C1505 C 0.83131 0.71367 0.68315 0.0
C1506 C 0.80049 0.69005 0.6884 0.0
C1507 C 0.79743 0.64278 0.68803 0.0
H1508 H 0.62498 0.63907 0.92438 0.0
H1509 H 0.62793 0.53443 0.94375 0.0
H1510 H 0.54105 0.63619 0.92436 0.0
H1511 H 0.54514 0.5325 0.94393 0.0
H1512 H 0.40118 0.54713 0.94733 0.0
H1513 H 0.47701 0.58104 0.94763 0.0
H1514 H 0.48333 0.57474 0.92013 0.0
H1515 H 0.40729 0.54139 0.91977 0.0
C1516 C 0.60766 0.61571 0.92865 0.0
C1517 C 0.63274 0.58711 0.9341 0.0
C1518 C 0.55985 0.61436 0.92869 0.0
C1519 C 0.53663 0.58483 0.93427 0.0
C1520 C 0.56199 0.55662 0.93974 0.0
C1521 C 0.60943 0.55755 0.93962 0.0
C1522 C 0.41795 0.55446 0.94132 0.0
C1523 C 0.39881 0.54014 0.93354 0.0
C1524 C 0.46146 0.57376 0.9415 0.0
C1525 C 0.48646 0.57917 0.93392 0.0
C1526 C 0.46492 0.57068 0.92608 0.0
C1527 C 0.42131 0.55139 0.92589 0.0
H1528 H 0.7234 0.16672 0.16802 0.0
H1529 H 0.7099 0.17049 0.1955 0.0
H1530 H 0.68774 0.24162 0.16708 0.0
H1531 H 0.67474 0.24552 0.19453 0.0
H1532 H 0.60659 0.38176 0.19017 0.0
H1533 H 0.61366 0.29838 0.18933 0.0
H1534 H 0.7257 0.31362 0.17161 0.0
H1535 H 0.71893 0.39634 0.17258 0.0
C1536 C 0.71164 0.18282 0.17384 0.0
C1537 C 0.72061 0.16311 0.18186 0.0
C1538 C 0.69141 0.22585 0.1733 0.0
C1539 C 0.67951 0.24983 0.18074 0.0
C1540 C 0.68363 0.22791 0.18868 0.0
C1541 C 0.70398 0.18489 0.18923 0.0
C1542 C 0.63238 0.36697 0.18606 0.0
C1543 C 0.6625 0.39512 0.18149 0.0
C1544 C 0.63631 0.31946 0.18555 0.0
C1545 C 0.67008 0.29949 0.18038 0.0
C1546 C 0.69876 0.3279 0.17553 0.0
C1547 C 0.6951 0.37524 0.1761 0.0
H1548 H 0.06809 0.47449 0.44964 0.0
H1549 H 0.07952 0.46034 0.42224 0.0
H1550 H 0.99247 0.44006 0.44913 0.0
H1551 H 0.00399 0.42583 0.42179 0.0
H1552 H 0.84924 0.4657 0.42461 0.0
H1553 H 0.93212 0.47158 0.42458 0.0
H1554 H 0.93965 0.37397 0.44518 0.0
H1555 H 0.85618 0.36699 0.44501 0.0
C1556 C 0.05525 0.46262 0.44355 0.0
C1557 C 0.07934 0.47138 0.43596 0.0
C1558 C 0.0119 0.44278 0.44327 0.0
C1559 C 0.99203 0.43139 0.43539 0.0
C1560 C 0.01825 0.43522 0.42793 0.0
C1561 C 0.06161 0.45483 0.4282 0.0
C1562 C 0.86862 0.44457 0.42897 0.0
C1563 C 0.84642 0.41572 0.43478 0.0
C1564 C 0.91607 0.44786 0.42896 0.0
C1565 C 0.94233 0.42284 0.43483 0.0
C1566 C 0.92019 0.39354 0.44058 0.0
C1567 C 0.87258 0.38978 0.44052 0.0
H1568 H 0.19848 0.83947 0.19573 0.0
H1569 H 0.20733 0.84707 0.16822 0.0
H1570 H 0.16914 0.762 0.19461 0.0
H1571 H 0.17757 0.76971 0.16714 0.0
H1572 H 0.22508 0.61849 0.1718 0.0
H1573 H 0.22342 0.70152 0.1712 0.0
H1574 H 0.1128 0.70345 0.18945 0.0
H1575 H 0.114 0.61969 0.18988 0.0
C1576 C 0.19248 0.8254 0.18943 0.0
C1577 C 0.20653 0.84902 0.18207 0.0
C1578 C 0.17558 0.78089 0.1888 0.0
C1579 C 0.1723 0.75941 0.1808 0.0
C1580 C 0.18082 0.78511 0.1734 0.0
C1581 C 0.19765 0.82955 0.17403 0.0
C1582 C 0.19972 0.63664 0.17552 0.0
C1583 C 0.17 0.61291 0.18095 0.0
C1584 C 0.19857 0.68417 0.17516 0.0
C1585 C 0.16784 0.70904 0.18027 0.0
C1586 C 0.13694 0.68518 0.18548 0.0
C1587 C 0.13778 0.63743 0.18576 0.0
H1588 H 0.90352 0.46822 0.94791 0.0
H1589 H 0.90604 0.47437 0.92033 0.0
H1590 H 0.98053 0.437 0.94786 0.0
H1591 H 0.98317 0.44335 0.92034 0.0
H1592 H 0.12535 0.37755 0.92427 0.0
H1593 H 0.04147 0.38127 0.92448 0.0
H1594 H 0.04812 0.48686 0.94369 0.0
H1595 H 0.13109 0.48411 0.94327 0.0
C1596 C 0.91975 0.4615 0.94182 0.0
C1597 C 0.89909 0.4751 0.93413 0.0
C1598 C 0.96398 0.44381 0.94181 0.0
C1599 C 0.98814 0.43902 0.93411 0.0
C1600 C 0.9654 0.44696 0.92637 0.0
C1601 C 0.92116 0.46484 0.92638 0.0
C1602 C 0.10862 0.40151 0.92851 0.0
C1603 C 0.13447 0.43025 0.93382 0.0
C1604 C 0.06084 0.40339 0.92868 0.0
C1605 C 0.03838 0.43364 0.93423 0.0
C1606 C 0.06446 0.46225 0.93953 0.0
C1607 C 0.11193 0.46082 0.93927 0.0
H1608 H 0.28552 0.16605 0.67104 0.0
H1609 H 0.28329 0.17568 0.69858 0.0
H1610 H 0.31864 0.24211 0.67023 0.0
H1611 H 0.31586 0.25191 0.69772 0.0
H1612 H 0.37891 0.39156 0.69328 0.0
H1613 H 0.37616 0.30785 0.69327 0.0
H1614 H 0.27342 0.31196 0.6735 0.0
H1615 H 0.27559 0.39495 0.67367 0.0
C1616 C 0.29339 0.18373 0.67693 0.0
C1617 C 0.28049 0.16536 0.68486 0.0
C1618 C 0.31217 0.22739 0.67646 0.0
C1619 C 0.31853 0.25336 0.6839 0.0
C1620 C 0.31112 0.23277 0.69187 0.0
C1621 C 0.29234 0.18902 0.69236 0.0
C1622 C 0.35598 0.37431 0.68893 0.0
C1623 C 0.32747 0.39948 0.68347 0.0
C1624 C 0.35461 0.32658 0.68888 0.0
C1625 C 0.32501 0.30339 0.68332 0.0
C1626 C 0.29744 0.32878 0.67772 0.0
C1627 C 0.29851 0.3763 0.67782 0.0
H1628 H 0.57651 0.52729 0.44945 0.0
H1629 H 0.57242 0.52486 0.42185 0.0
H1630 H 0.50052 0.56088 0.44971 0.0
H1631 H 0.49626 0.55809 0.42218 0.0
H1632 H 0.34793 0.52097 0.44538 0.0
H1633 H 0.4308 0.51536 0.44571 0.0
H1634 H 0.44046 0.62059 0.42649 0.0
H1635 H 0.35678 0.62692 0.42634 0.0
C1636 C 0.56012 0.53521 0.44343 0.0
C1637 C 0.58002 0.52212 0.43564 0.0
C1638 C 0.51648 0.55426 0.4436 0.0
C1639 C 0.4921 0.56083 0.43598 0.0
C1640 C 0.51419 0.55315 0.42815 0.0
C1641 C 0.55788 0.53399 0.42798 0.0
C1642 C 0.3678 0.54357 0.44136 0.0
C1643 C 0.34619 0.57472 0.43591 0.0
C1644 C 0.41521 0.54053 0.44156 0.0
C1645 C 0.4421 0.56813 0.43623 0.0
C1646 C 0.42051 0.59916 0.43071 0.0
C1647 C 0.37283 0.60259 0.43059 0.0
H1648 H 0.20914 0.15804 0.30546 0.0
H1649 H 0.21977 0.14821 0.33293 0.0
H1650 H 0.17662 0.23406 0.30689 0.0
H1651 H 0.18689 0.22415 0.33432 0.0
H1652 H 0.22741 0.37808 0.32984 0.0
H1653 H 0.22906 0.29497 0.3304 0.0
H1654 H 0.11775 0.28903 0.31234 0.0
H1655 H 0.11575 0.37275 0.31193 0.0
C1656 C 0.20299 0.17128 0.31182 0.0
C1657 C 0.21829 0.14751 0.31907 0.0
C1658 C 0.18421 0.21493 0.31264 0.0
C1659 C 0.18034 0.23545 0.32072 0.0
C1660 C 0.19046 0.20949 0.328 0.0
C1661 C 0.2091 0.16585 0.32719 0.0
C1662 C 0.20256 0.35897 0.32617 0.0
C1663 C 0.17179 0.38152 0.32078 0.0
C1664 C 0.20331 0.31141 0.3265 0.0
C1665 C 0.17346 0.28545 0.32141 0.0
C1666 C 0.14127 0.30816 0.3163 0.0
C1667 C 0.14024 0.35587 0.31604 0.0
H1668 H 0.59503 0.469 0.05186 0.0
H1669 H 0.59285 0.44788 0.07918 0.0
H1670 H 0.51758 0.43938 0.05088 0.0
H1671 H 0.51537 0.41806 0.07812 0.0
H1672 H 0.37293 0.35725 0.07168 0.0
H1673 H 0.45683 0.36015 0.07141 0.0
H1674 H 0.45056 0.48652 0.05729 0.0
H1675 H 0.36743 0.4845 0.05787 0.0
C1676 C 0.57883 0.45649 0.05762 0.0
C1677 C 0.5997 0.46209 0.06564 0.0
C1678 C 0.53435 0.43973 0.05704 0.0
C1679 C 0.51028 0.4276 0.06445 0.0
C1680 C 0.53316 0.42744 0.07232 0.0
C1681 C 0.57757 0.44461 0.07291 0.0
C1682 C 0.38973 0.38555 0.06853 0.0
C1683 C 0.36396 0.42049 0.06472 0.0
C1684 C 0.4375 0.38702 0.06833 0.0
C1685 C 0.46002 0.42306 0.06419 0.0
C1686 C 0.43405 0.4577 0.06033 0.0
C1687 C 0.38655 0.45664 0.06067 0.0
H1688 H 0.37774 0.60526 0.8068 0.0
H1689 H 0.27923 0.60227 0.82727 0.0
H1690 H 0.37652 0.68895 0.80703 0.0
H1691 H 0.27834 0.68526 0.82762 0.0
H1692 H 0.28942 0.83101 0.82985 0.0
H1693 H 0.32293 0.75506 0.83052 0.0
H1694 H 0.31717 0.74531 0.80304 0.0
H1695 H 0.28446 0.8214 0.80232 0.0
C1696 C 0.3562 0.6226 0.81139 0.0
C1697 C 0.3285 0.59756 0.81701 0.0
C1698 C 0.3557 0.67032 0.81156 0.0
C1699 C 0.32769 0.69368 0.81739 0.0
C1700 C 0.30115 0.66836 0.82318 0.0
C1701 C 0.30144 0.62083 0.82297 0.0
C1702 C 0.29676 0.81338 0.82392 0.0
C1703 C 0.28291 0.83168 0.81604 0.0
C1704 C 0.31575 0.76976 0.82432 0.0
C1705 C 0.32131 0.74377 0.81686 0.0
C1706 C 0.31306 0.7644 0.80891 0.0
C1707 C 0.29414 0.80809 0.80851 0.0
H1708 H 0.92362 0.52852 0.55189 0.0
H1709 H 0.92439 0.52755 0.5795 0.0
H1710 H -0.00035 0.56201 0.5519 0.0
H1711 H 0.00056 0.56094 0.57944 0.0
H1712 H 0.14096 0.63154 0.57496 0.0
H1713 H 0.0572 0.62494 0.57475 0.0
H1714 H 0.06802 0.51355 0.55679 0.0
H1715 H 0.15087 0.51919 0.55724 0.0
C1716 C 0.93923 0.53683 0.55796 0.0
C1717 C 0.9185 0.52403 0.56569 0.0
C1718 C 0.98285 0.55587 0.55795 0.0
C1719 C 0.00626 0.56283 0.56566 0.0
C1720 C 0.98329 0.55564 0.5734 0.0
C1721 C 0.93967 0.53637 0.57342 0.0
C1722 C 0.12514 0.60569 0.571 0.0
C1723 C 0.15204 0.57622 0.56602 0.0
C1724 C 0.07746 0.60215 0.57084 0.0
C1725 C 0.05627 0.56949 0.5656 0.0
C1726 C 0.08342 0.53996 0.56069 0.0
C1727 C 0.13078 0.54303 0.56096 0.0
H1728 H 0.54808 0.34939 0.32723 0.0
H1729 H 0.58674 0.32874 0.30089 0.0
H1730 H 0.49688 0.28428 0.3264 0.0
H1731 H 0.53666 0.26238 0.30014 0.0
H1732 H 0.41029 0.16759 0.30054 0.0
H1733 H 0.45984 0.23438 0.30027 0.0
H1734 H 0.50513 0.2035 0.32588 0.0
H1735 H 0.45446 0.13788 0.32626 0.0
C1736 C 0.54536 0.33112 0.32124 0.0
C1737 C 0.57169 0.34401 0.31415 0.0
C1738 C 0.51641 0.29344 0.32079 0.0
C1739 C 0.51348 0.26738 0.31327 0.0
C1740 C 0.53804 0.28168 0.30603 0.0
C1741 C 0.56671 0.31978 0.30646 0.0
C1742 C 0.43134 0.1747 0.30606 0.0
C1743 C 0.42813 0.14767 0.31345 0.0
C1744 C 0.45974 0.21305 0.30591 0.0
C1745 C 0.48578 0.22488 0.31311 0.0
C1746 C 0.48447 0.19623 0.32031 0.0
C1747 C 0.4558 0.15825 0.3205 0.0
H1748 H 0.09272 0.14828 0.55225 0.0
H1749 H 0.12003 0.18939 0.57824 0.0
H1750 H 0.02613 0.1976 0.55195 0.0
H1751 H 0.05463 0.24062 0.57782 0.0
H1752 H 0.90972 0.29174 0.57805 0.0
H1753 H 0.97417 0.23915 0.57797 0.0
H1754 H 0.00065 0.27301 0.55156 0.0
H1755 H 0.93513 0.32354 0.55154 0.0
C1756 C 0.08509 0.16867 0.55784 0.0
C1757 C 0.11159 0.16486 0.56528 0.0
C1758 C 0.04683 0.19704 0.55767 0.0
C1759 C 0.03458 0.22287 0.56489 0.0
C1760 C 0.06225 0.22036 0.57222 0.0
C1761 C 0.10013 0.19143 0.57243 0.0
C1762 C 0.92892 0.28733 0.5722 0.0
C1763 C 0.9173 0.31184 0.56481 0.0
C1764 C 0.96623 0.25761 0.57217 0.0
C1765 C 0.99315 0.25224 0.56479 0.0
C1766 C 0.98054 0.27577 0.55733 0.0
C1767 C 0.94289 0.30491 0.55733 0.0
H1768 H 0.94367 0.6324 0.82819 0.0
H1769 H 0.9052 0.65818 0.802 0.0
H1770 H 0.99619 0.69673 0.82771 0.0
H1771 H 0.95584 0.72376 0.80164 0.0
H1772 H 0.08312 0.8129 0.80135 0.0
H1773 H 0.03179 0.74797 0.8014 0.0
H1774 H 0.99563 0.77719 0.82761 0.0
H1775 H 0.04894 0.84098 0.82768 0.0
C1776 C 0.94656 0.65174 0.82232 0.0
C1777 C 0.92034 0.6402 0.81514 0.0
C1778 C 0.97624 0.68899 0.82207 0.0
C1779 C 0.97984 0.71596 0.81467 0.0
C1780 C 0.95441 0.70358 0.80742 0.0
C1781 C 0.92528 0.66591 0.80763 0.0
C1782 C 0.06383 0.80583 0.80711 0.0
C1783 C 0.07027 0.83198 0.81453 0.0
C1784 C 0.03425 0.76854 0.80713 0.0
C1785 C 0.00983 0.7569 0.81454 0.0
C1786 C 0.01478 0.78437 0.82186 0.0
C1787 C 0.04492 0.8213 0.82187 0.0
H1788 H 0.39957 0.80322 0.05203 0.0
H1789 H 0.43238 0.84281 0.0779 0.0
H1790 H 0.46382 0.74987 0.05209 0.0
H1791 H 0.49713 0.79173 0.07781 0.0
H1792 H 0.57763 0.66188 0.07893 0.0
H1793 H 0.51406 0.7141 0.07834 0.0
H1794 H 0.54589 0.74496 0.05202 0.0
H1795 H 0.60907 0.69034 0.0525 0.0
C1796 C 0.42039 0.80049 0.05772 0.0
C1797 C 0.4105 0.82688 0.06499 0.0
C1798 C 0.45751 0.77034 0.05773 0.0
C1799 C 0.48568 0.76636 0.06496 0.0
C1800 C 0.47571 0.79303 0.07219 0.0
C1801 C 0.43846 0.82252 0.07223 0.0
C1802 C 0.57154 0.67996 0.07301 0.0
C1803 C 0.59868 0.67196 0.06576 0.0
C1804 C 0.53498 0.7102 0.07269 0.0
C1805 C 0.52483 0.73403 0.06514 0.0
C1806 C 0.55237 0.72671 0.0579 0.0
C1807 C 0.58887 0.69581 0.0582 0.0
H1808 H 0.53358 0.64747 0.17574 0.0
H1809 H 0.57487 0.67352 0.20177 0.0
H1810 H 0.48235 0.7126 0.17629 0.0
H1811 H 0.52419 0.73978 0.20224 0.0
H1812 H 0.39542 0.83436 0.20084 0.0
H1813 H 0.44522 0.76764 0.20183 0.0
H1814 H 0.49473 0.7941 0.17632 0.0
H1815 H 0.44441 0.85973 0.17525 0.0
C1816 C 0.53136 0.66686 0.18161 0.0
C1817 C 0.55865 0.65564 0.18867 0.0
C1818 C 0.50234 0.70449 0.1819 0.0
C1819 C 0.50016 0.73211 0.18923 0.0
C1820 C 0.52524 0.71927 0.19649 0.0
C1821 C 0.55418 0.68125 0.19623 0.0
C1822 C 0.41752 0.82633 0.19551 0.0
C1823 C 0.41555 0.85199 0.18793 0.0
C1824 C 0.44597 0.78805 0.19607 0.0
C1825 C 0.47307 0.77494 0.18908 0.0
C1826 C 0.47319 0.80244 0.18173 0.0
C1827 C 0.44466 0.84036 0.18114 0.0
H1828 H 0.56268 0.32219 0.42222 0.0
H1829 H 0.58628 0.29171 0.44885 0.0
H1830 H 0.49717 0.27225 0.42218 0.0
H1831 H 0.52152 0.23917 0.4487 0.0
H1832 H 0.3746 0.18651 0.44793 0.0
H1833 H 0.44069 0.23733 0.44821 0.0
H1834 H 0.47416 0.19695 0.42239 0.0
H1835 H 0.40729 0.14869 0.42197 0.0
C1836 C 0.55454 0.30394 0.42804 0.0
C1837 C 0.57984 0.31094 0.43554 0.0
C1838 C 0.51684 0.27504 0.42801 0.0
C1839 C 0.50382 0.25151 0.43544 0.0
C1840 C 0.52998 0.25738 0.4429 0.0
C1841 C 0.56745 0.28704 0.44297 0.0
C1842 C 0.39582 0.18913 0.44228 0.0
C1843 C 0.38542 0.16395 0.4349 0.0
C1844 C 0.43403 0.21779 0.44247 0.0
C1845 C 0.46298 0.22129 0.43532 0.0
C1846 C 0.4523 0.19604 0.42796 0.0
C1847 C 0.41382 0.16817 0.42772 0.0
H1848 H 0.04224 0.15024 0.67406 0.0
H1849 H 0.08405 0.18317 0.69978 0.0
H1850 H 0.98841 0.21348 0.67429 0.0
H1851 H 0.03172 0.24763 0.6999 0.0
H1852 H 0.90342 0.33677 0.69963 0.0
H1853 H 0.9548 0.27164 0.70012 0.0
H1854 H 0.99042 0.29414 0.67366 0.0
H1855 H 0.93748 0.35805 0.67309 0.0
C1856 C 0.03973 0.17086 0.67978 0.0
C1857 C 0.06748 0.16181 0.68689 0.0
C1858 C 0.00927 0.20746 0.67989 0.0
C1859 C 0.0063 0.23624 0.68706 0.0
C1860 C 0.03283 0.22606 0.69429 0.0
C1861 C 0.06289 0.18905 0.69422 0.0
C1862 C 0.92261 0.32813 0.69394 0.0
C1863 C 0.91619 0.3524 0.6863 0.0
C1864 C 0.95214 0.29075 0.69423 0.0
C1865 C 0.97634 0.27717 0.6869 0.0
C1866 C 0.97138 0.30281 0.67936 0.0
C1867 C 0.94142 0.3398 0.67905 0.0
H1868 H 0.91809 0.66974 0.9501 0.0
H1869 H 0.88789 0.70973 0.92416 0.0
H1870 H 0.9843 0.71974 0.95012 0.0
H1871 H 0.95283 0.76145 0.92431 0.0
H1872 H 0.09815 0.80962 0.92317 0.0
H1873 H 0.03321 0.75793 0.92379 0.0
H1874 H 0.01081 0.79533 0.95018 0.0
H1875 H 0.07697 0.84521 0.94965 0.0
C1876 C 0.92495 0.69007 0.94447 0.0
C1877 C 0.89791 0.68562 0.93711 0.0
C1878 C 0.96298 0.71879 0.94448 0.0
C1879 C 0.97441 0.7442 0.93717 0.0
C1880 C 0.94589 0.74141 0.92997 0.0
C1881 C 0.90828 0.71219 0.92991 0.0
C1882 C 0.07972 0.80624 0.92913 0.0
C1883 C 0.09263 0.83157 0.93635 0.0
C1884 C 0.04213 0.77704 0.92947 0.0
C1885 C 0.01617 0.77302 0.937 0.0
C1886 C 0.03012 0.79722 0.94429 0.0
C1887 C 0.06811 0.82591 0.94399 0.0
H1888 H 0.59851 0.82956 0.67138 0.0
H1889 H 0.56313 0.86069 0.69753 0.0
H1890 H 0.54607 0.76559 0.67152 0.0
H1891 H 0.50861 0.79779 0.69755 0.0
H1892 H 0.44837 0.65496 0.6978 0.0
H1893 H 0.5039 0.71707 0.6977 0.0
H1894 H 0.46908 0.74648 0.67145 0.0
H1895 H 0.4158 0.68347 0.67143 0.0
C1896 C 0.57876 0.82332 0.67711 0.0
C1897 C 0.58489 0.85026 0.68444 0.0
C1898 C 0.54855 0.78658 0.67719 0.0
C1899 C 0.52305 0.77632 0.68455 0.0
C1900 C 0.52835 0.80406 0.69182 0.0
C1901 C 0.55919 0.84045 0.69178 0.0
C1902 C 0.45314 0.67438 0.69199 0.0
C1903 C 0.42782 0.66413 0.68462 0.0
C1904 C 0.48458 0.71031 0.69195 0.0
C1905 C 0.49087 0.73708 0.68458 0.0
C1906 C 0.46587 0.72625 0.6772 0.0
C1907 C 0.43508 0.69005 0.6772 0.0
H1908 H 0.90491 0.84086 0.42066 0.0
H1909 H 0.87469 0.80608 0.44687 0.0
H1910 H 0.97197 0.79261 0.42106 0.0
H1911 H 0.94094 0.75563 0.44715 0.0
H1912 H 0.08709 0.70516 0.44796 0.0
H1913 H 0.02182 0.7568 0.44747 0.0
H1914 H 0.9968 0.71726 0.42128 0.0
H1915 H 0.06292 0.66776 0.42165 0.0
C1916 C 0.91202 0.8221 0.42646 0.0
C1917 C 0.88437 0.8273 0.43373 0.0
C1918 C 0.95059 0.79427 0.42669 0.0
C1919 C 0.96215 0.77025 0.43415 0.0
C1920 C 0.93368 0.77437 0.44135 0.0
C1921 C 0.89536 0.80284 0.44116 0.0
C1922 C 0.06803 0.70816 0.44206 0.0
C1923 C 0.0803 0.68243 0.43485 0.0
C1924 C 0.03026 0.73732 0.44181 0.0
C1925 C 0.00363 0.74094 0.43436 0.0
C1926 C 0.01673 0.71597 0.42709 0.0
C1927 C 0.05477 0.68741 0.42731 0.0
H1928 H 0.11342 0.31366 0.17398 0.0
H1929 H 0.06439 0.35971 0.19853 0.0
H1930 H 0.06206 0.24933 0.1745 0.0
H1931 H 0.01031 0.29588 0.19886 0.0
H1932 H 0.93062 0.17291 0.17237 0.0
H1933 H 0.98492 0.23462 0.1729 0.0
H1934 H 0.00093 0.21471 0.20009 0.0
H1935 H 0.94397 0.15362 0.19961 0.0
C1936 C 0.09095 0.3105 0.17944 0.0
C1937 C 0.09245 0.34222 0.18616 0.0
C1938 C 0.06129 0.27351 0.17973 0.0
C1939 C 0.03139 0.26763 0.18666 0.0
C1940 C 0.03311 0.29912 0.19345 0.0
C1941 C 0.06369 0.33593 0.19324 0.0
C1942 C 0.94593 0.18116 0.17847 0.0
C1943 C 0.93305 0.15806 0.18595 0.0
C1944 C 0.97739 0.21665 0.17877 0.0
C1945 C 0.99774 0.2296 0.18653 0.0
C1946 C 0.98553 0.20602 0.19402 0.0
C1947 C 0.95329 0.1707 0.19373 0.0
H1948 H 0.38995 0.3056 0.94756 0.0
H1949 H 0.42363 0.34209 0.92159 0.0
H1950 H 0.45313 0.25123 0.94771 0.0
H1951 H 0.48776 0.29003 0.92187 0.0
H1952 H 0.57129 0.16158 0.92158 0.0
H1953 H 0.50725 0.21353 0.92165 0.0
H1954 H 0.53379 0.24576 0.94814 0.0
H1955 H 0.59701 0.19131 0.94817 0.0
C1956 C 0.41077 0.30192 0.94188 0.0
C1957 C 0.40154 0.32786 0.93454 0.0
C1958 C 0.44733 0.27117 0.942 0.0
C1959 C 0.4758 0.26622 0.93481 0.0
C1960 C 0.46618 0.29209 0.92747 0.0
C1961 C 0.42932 0.32214 0.92731 0.0
C1962 C 0.56386 0.17999 0.92742 0.0
C1963 C 0.58944 0.1724 0.93487 0.0
C1964 C 0.52704 0.21004 0.92745 0.0
C1965 C 0.51521 0.23411 0.93489 0.0
C1966 C 0.54137 0.22724 0.94232 0.0
C1967 C 0.57794 0.19644 0.94233 0.0
H1968 H 0.59014 0.15859 0.80126 0.0
H1969 H 0.55227 0.13404 0.82753 0.0
H1970 H 0.53904 0.22388 0.80081 0.0
H1971 H 0.49961 0.19822 0.82697 0.0
H1972 H 0.44973 0.34317 0.82691 0.0
H1973 H 0.50252 0.27908 0.82669 0.0
H1974 H 0.4622 0.24837 0.80077 0.0
H1975 H 0.41087 0.31363 0.80088 0.0
C1976 C 0.57018 0.16654 0.80689 0.0
C1977 C 0.5755 0.14129 0.81446 0.0
C1978 C 0.54079 0.20402 0.80663 0.0
C1979 C 0.51562 0.21677 0.81389 0.0
C1980 C 0.5194 0.19016 0.82133 0.0
C1981 C 0.54921 0.15301 0.82163 0.0
C1982 C 0.45266 0.32312 0.82113 0.0
C1983 C 0.42605 0.3334 0.81392 0.0
C1984 C 0.48252 0.28602 0.82103 0.0
C1985 C 0.48604 0.25799 0.81377 0.0
C1986 C 0.46064 0.26934 0.80645 0.0
C1987 C 0.43117 0.30682 0.80652 0.0
H1988 H 0.40905 0.70854 0.57781 0.0
H1989 H 0.43361 0.67552 0.55131 0.0
H1990 H 0.47358 0.76098 0.57759 0.0
H1991 H 0.49922 0.72585 0.5512 0.0
H1992 H 0.59214 0.84982 0.55162 0.0
H1993 H 0.52521 0.80099 0.55146 0.0
H1994 H 0.55397 0.75925 0.57739 0.0
H1995 H 0.61971 0.81006 0.57767 0.0
C1996 C 0.42806 0.71267 0.57193 0.0
C1997 C 0.41619 0.68784 0.56459 0.0
C1998 C 0.46544 0.7423 0.57182 0.0
C1999 C 0.49217 0.74723 0.56441 0.0
C2000 C 0.47927 0.72343 0.557 0.0
C2001 C 0.44155 0.6944 0.55707 0.0
C2002 C 0.58449 0.82982 0.55726 0.0
C2003 C 0.61118 0.83387 0.56467 0.0
C2004 C 0.54603 0.80172 0.55717 0.0
C2005 C 0.53376 0.77639 0.56444 0.0
C2006 C 0.5616 0.77914 0.57174 0.0
C2007 C 0.59967 0.80781 0.57188 0.0
H2008 H 0.09639 0.65947 0.30044 0.0
H2009 H 0.05728 0.64124 0.32682 0.0
H2010 H 0.04663 0.72609 0.2995 0.0
H2011 H 0.00665 0.70669 0.3258 0.0
H2012 H 0.96408 0.85277 0.32525 0.0
H2013 H 0.01559 0.78775 0.32497 0.0
H2014 H 0.96897 0.75352 0.2996 0.0
H2015 H 0.91838 0.81961 0.29976 0.0
C2016 C 0.07643 0.66906 0.30598 0.0
C2017 C 0.08112 0.64534 0.31373 0.0
C2018 C 0.04796 0.7073 0.30544 0.0
C2019 C 0.0234 0.72233 0.31263 0.0
C2020 C 0.02618 0.69692 0.32022 0.0
C2021 C 0.05483 0.65905 0.32078 0.0
C2022 C 0.96532 0.83184 0.31956 0.0
C2023 C 0.93685 0.84119 0.31256 0.0
C2024 C 0.99449 0.79422 0.31943 0.0
C2025 C 0.99561 0.76475 0.31234 0.0
C2026 C 0.96897 0.7755 0.30516 0.0
C2027 C 0.93999 0.81345 0.30525 0.0
H2028 H 0.08321 0.32914 0.05008 0.0
H2029 H 0.10797 0.28839 0.0762 0.0
H2030 H 0.01685 0.2792 0.04956 0.0
H2031 H 0.04243 0.23759 0.07558 0.0
H2032 H 0.89463 0.19811 0.07593 0.0
H2033 H 0.96075 0.24808 0.07533 0.0
H2034 H 0.98989 0.20111 0.04975 0.0
H2035 H 0.92284 0.15185 0.05025 0.0
C2036 C 0.07512 0.30883 0.05566 0.0
C2037 C 0.10061 0.31319 0.06323 0.0
C2038 C 0.03702 0.28019 0.05535 0.0
C2039 C 0.0238 0.25516 0.06258 0.0
C2040 C 0.05094 0.25746 0.06997 0.0
C2041 C 0.08883 0.28623 0.0703 0.0
C2042 C 0.91472 0.19889 0.07012 0.0
C2043 C 0.90366 0.17074 0.06317 0.0
C2044 C 0.95294 0.22717 0.06981 0.0
C2045 C 0.9812 0.22775 0.06256 0.0
C2046 C 0.96883 0.20142 0.05543 0.0
C2047 C 0.93033 0.17326 0.05571 0.0
H2048 H 0.36432 0.15994 0.35417 0.0
H2049 H 0.30778 0.0239 0.35315 0.0
H2050 H 0.35111 0.16228 0.36951 0.0
H2051 H 0.29271 0.02687 0.36842 0.0
H2052 H 0.31228 0.02919 0.39718 0.0
H2053 H 0.3272 0.02592 0.38195 0.0
H2054 H 0.2916 0.16863 0.37969 0.0
H2055 H 0.27855 0.1723 0.39505 0.0
C2056 C 0.34906 0.13052 0.35723 0.0
C2057 C 0.33717 0.09172 0.35245 0.0
C2058 C 0.34103 0.13202 0.36602 0.0
C2059 C 0.32044 0.09494 0.37023 0.0
C2060 C 0.30917 0.05586 0.36544 0.0
C2061 C 0.31771 0.05416 0.35667 0.0
C2062 C 0.30738 0.05987 0.39343 0.0
C2063 C 0.29428 0.10107 0.39733 0.0
C2064 C 0.31577 0.05793 0.38467 0.0
C2065 C 0.31075 0.09701 0.37955 0.0
C2066 C 0.2967 0.13804 0.38344 0.0
C2067 C 0.2888 0.1401 0.39224 0.0
H2068 H 0.23366 0.16137 0.60713 0.0
H2069 H 0.164 0.03313 0.60311 0.0
H2070 H 0.21831 0.15557 0.62248 0.0
H2071 H 0.14824 0.02791 0.61836 0.0
H2072 H 0.08285 0.07047 0.64442 0.0
H2073 H 0.09947 0.07573 0.62913 0.0
H2074 H 0.24171 0.09927 0.63477 0.0
H2075 H 0.22548 0.09335 0.65001 0.0
C2076 C 0.2152 0.132 0.60952 0.0
C2077 C 0.20015 0.0977 0.60392 0.0
C2078 C 0.20652 0.12865 0.61828 0.0
C2079 C 0.18191 0.09139 0.62156 0.0
C2080 C 0.16692 0.05715 0.61597 0.0
C2081 C 0.17627 0.06006 0.60726 0.0
C2082 C 0.11766 0.07659 0.64239 0.0
C2083 C 0.15284 0.08134 0.64841 0.0
C2084 C 0.12716 0.0795 0.63366 0.0
C2085 C 0.17184 0.08807 0.6308 0.0
C2086 C 0.20695 0.09301 0.63682 0.0
C2087 C 0.19763 0.08929 0.64553 0.0
H2088 H 0.21929 0.90292 0.85159 0.0
H2089 H 0.08124 0.95058 0.85553 0.0
H2090 H 0.22956 0.89622 0.86698 0.0
H2091 H 0.09179 0.94399 0.87097 0.0
H2092 H 0.14946 0.97325 0.89795 0.0
H2093 H 0.13977 0.98109 0.88257 0.0
H2094 H 0.19732 0.84688 0.87886 0.0
H2095 H 0.20692 0.83877 0.8943 0.0
C2096 C 0.19117 0.91221 0.85574 0.0
C2097 C 0.14938 0.92729 0.85233 0.0
C2098 C 0.19702 0.90804 0.86455 0.0
C2099 C 0.16144 0.9194 0.87017 0.0
C2100 C 0.1199 0.93524 0.86678 0.0
C2101 C 0.11382 0.93887 0.85795 0.0
C2102 C 0.1602 0.9454 0.89387 0.0
C2103 C 0.17899 0.90534 0.89736 0.0
C2104 C 0.15435 0.94984 0.88506 0.0
C2105 C 0.16768 0.91459 0.87952 0.0
C2106 C 0.18701 0.87474 0.88298 0.0
C2107 C 0.19234 0.87003 0.89182 0.0
H2108 H 0.36391 0.96169 0.10194 0.0
H2109 H 0.27916 0.8429 0.10596 0.0
H2110 H 0.37529 0.96859 0.11732 0.0
H2111 H 0.29024 0.85033 0.1214 0.0
H2112 H 0.27732 0.91986 0.14809 0.0
H2113 H 0.26773 0.91115 0.13272 0.0
H2114 H 0.41361 0.92055 0.12929 0.0
H2115 H 0.42352 0.92875 0.14475 0.0
C2116 C 0.34759 0.93712 0.10611 0.0
C2117 C 0.32052 0.90177 0.10275 0.0
C2118 C 0.3544 0.94094 0.1149 0.0
C2119 C 0.3337 0.90997 0.12052 0.0
C2120 C 0.30641 0.87477 0.11718 0.0
C2121 C 0.30019 0.87045 0.10836 0.0
C2122 C 0.30742 0.92023 0.14407 0.0
C2123 C 0.35124 0.92508 0.14763 0.0
C2124 C 0.30187 0.91488 0.13528 0.0
C2125 C 0.33992 0.91499 0.12985 0.0
C2126 C 0.38371 0.92049 0.13336 0.0
C2127 C 0.38937 0.92509 0.14219 0.0
H2128 H 0.59548 0.96106 0.64411 0.0
H2129 H 0.7359 0.92335 0.64883 0.0
H2130 H 0.60764 0.94985 0.62878 0.0
H2131 H 0.74761 0.91172 0.63358 0.0
H2132 H 0.72795 0.84308 0.60691 0.0
H2133 H 0.71606 0.85515 0.62224 0.0
H2134 H 0.65772 0.98756 0.61707 0.0
H2135 H 0.66993 0.97599 0.60183 0.0
C2136 C 0.62888 0.95057 0.64188 0.0
C2137 C 0.66471 0.9432 0.64767 0.0
C2138 C 0.63583 0.94421 0.63313 0.0
C2139 C 0.67849 0.92965 0.63004 0.0
C2140 C 0.7143 0.92249 0.63582 0.0
C2141 C 0.7076 0.92953 0.64454 0.0
C2142 C 0.71273 0.87477 0.60906 0.0
C2143 C 0.70002 0.90859 0.60317 0.0
C2144 C 0.70604 0.88171 0.61781 0.0
C2145 C 0.68583 0.92222 0.6208 0.0
C2146 C 0.67299 0.95589 0.61492 0.0
C2147 C 0.68032 0.94931 0.6062 0.0
H2148 H 0.81691 0.96856 0.3521 0.0
H2149 H 0.87055 0.8315 0.3537 0.0
H2150 H 0.80022 0.96722 0.36732 0.0
H2151 H 0.85563 0.83072 0.36898 0.0
H2152 H 0.77897 0.82322 0.39406 0.0
H2153 H 0.79413 0.82618 0.37877 0.0
H2154 H 0.8326 0.9681 0.3811 0.0
H2155 H 0.81566 0.96555 0.39628 0.0
C2156 C 0.82588 0.93843 0.35573 0.0
C2157 C 0.84492 0.90008 0.35169 0.0
C2158 C 0.8164 0.93766 0.36448 0.0
C2159 C 0.82619 0.8987 0.3694 0.0
C2160 C 0.84659 0.86091 0.36538 0.0
C2161 C 0.85561 0.86151 0.35662 0.0
C2162 C 0.7903 0.85512 0.39129 0.0
C2163 C 0.79607 0.8941 0.39639 0.0
C2164 C 0.79943 0.85676 0.38253 0.0
C2165 C 0.815 0.89731 0.37868 0.0
C2166 C 0.82012 0.93644 0.38379 0.0
C2167 C 0.81054 0.93491 0.39252 0.0
H2168 H 0.82402 0.03877 0.10294 0.0
H2169 H 0.81445 0.18568 0.10439 0.0
H2170 H 0.83186 0.03476 0.11836 0.0
H2171 H 0.82019 0.18168 0.11989 0.0
H2172 H 0.88056 0.16499 0.14627 0.0
H2173 H 0.87328 0.16728 0.13081 0.0
H2174 H 0.79406 0.0428 0.1315 0.0
H2175 H 0.80325 0.03956 0.14694 0.0
C2176 C 0.8229 0.07023 0.10657 0.0
C2177 C 0.81877 0.11259 0.10244 0.0
C2178 C 0.82719 0.06792 0.11544 0.0
C2179 C 0.82688 0.10789 0.12042 0.0
C2180 C 0.8216 0.15021 0.11627 0.0
C2181 C 0.8179 0.15255 0.10738 0.0
C2182 C 0.86186 0.13794 0.14311 0.0
C2183 C 0.84249 0.10209 0.14782 0.0
C2184 C 0.85728 0.13947 0.13424 0.0
C2185 C 0.83266 0.1055 0.12987 0.0
C2186 C 0.81374 0.06929 0.1346 0.0
C2187 C 0.81887 0.06746 0.14347 0.0
H2188 H 0.7107 0.08994 0.85175 0.0
H2189 H 0.58586 0.01574 0.85662 0.0
H2190 H 0.71932 0.10431 0.867 0.0
H2191 H 0.59522 0.02959 0.87197 0.0
H2192 H 0.66758 0.02042 0.89873 0.0
H2193 H 0.65802 0.00609 0.88348 0.0
H2194 H 0.67083 0.15029 0.87844 0.0
H2195 H 0.67956 0.16502 0.89376 0.0
C2196 C 0.68525 0.07638 0.85608 0.0
C2197 C 0.64758 0.0516 0.85299 0.0
C2198 C 0.69011 0.08493 0.86479 0.0
C2199 C 0.65788 0.06818 0.87061 0.0
C2200 C 0.62057 0.04275 0.86758 0.0
C2201 C 0.61518 0.03493 0.85882 0.0
C2202 C 0.6686 0.04911 0.89438 0.0
C2203 C 0.67446 0.0939 0.89743 0.0
C2204 C 0.66275 0.04086 0.88567 0.0
C2205 C 0.66351 0.0771 0.87984 0.0
C2206 C 0.67021 0.1218 0.88284 0.0
C2207 C 0.67517 0.13019 0.89158 0.0
H2208 H 0.92451 0.53218 0.85596 0.0
H2209 H 0.78383 0.57511 0.85394 0.0
H2210 H 0.92103 0.54226 0.87141 0.0
H2211 H 0.78081 0.58686 0.86927 0.0
H2212 H 0.77658 0.56124 0.89791 0.0
H2213 H 0.77941 0.54871 0.88255 0.0
H2214 H 0.91759 0.60041 0.88197 0.0
H2215 H 0.91527 0.61124 0.89737 0.0
C2216 C 0.8929 0.54385 0.85881 0.0
C2217 C 0.85448 0.55279 0.85372 0.0
C2218 C 0.89096 0.55 0.86766 0.0
C2219 C 0.85067 0.56561 0.87161 0.0
C2220 C 0.81219 0.57415 0.86649 0.0
C2221 C 0.81401 0.56761 0.85767 0.0
C2222 C 0.80747 0.57015 0.89449 0.0
C2223 C 0.84573 0.58716 0.89886 0.0
C2224 C 0.80908 0.5631 0.88567 0.0
C2225 C 0.84882 0.57335 0.881 0.0
C2226 C 0.88675 0.59122 0.88537 0.0
C2227 C 0.88528 0.59785 0.8942 0.0
H2228 H 0.68953 0.66838 0.10659 0.0
H2229 H 0.64367 0.52905 0.10368 0.0
H2230 H 0.6766 0.66325 0.122 0.0
H2231 H 0.63024 0.52433 0.11904 0.0
H2232 H 0.56472 0.55805 0.14555 0.0
H2233 H 0.57602 0.56408 0.13008 0.0
H2234 H 0.71246 0.61496 0.13424 0.0
H2235 H 0.70163 0.60843 0.14962 0.0
C2236 C 0.67665 0.63675 0.10923 0.0
C2237 C 0.66777 0.59909 0.10393 0.0
C2238 C 0.66936 0.63381 0.11803 0.0
C2239 C 0.65229 0.59344 0.12167 0.0
C2240 C 0.64304 0.55594 0.11638 0.0
C2241 C 0.65107 0.5586 0.1076 0.0
C2242 C 0.59707 0.57053 0.14315 0.0
C2243 C 0.6323 0.58266 0.14879 0.0
C2244 C 0.60356 0.57382 0.13432 0.0
C2245 C 0.64506 0.5901 0.131 0.0
C2246 C 0.68004 0.60266 0.13664 0.0
C2247 C 0.67387 0.59863 0.14544 0.0
H2248 H 0.68634 0.31974 0.39581 0.0
H2249 H 0.64917 0.46128 0.39931 0.0
H2250 H 0.67936 0.32901 0.38034 0.0
H2251 H 0.64154 0.47012 0.38387 0.0
H2252 H 0.57818 0.44343 0.35682 0.0
H2253 H 0.58679 0.43501 0.37229 0.0
H2254 H 0.72105 0.37762 0.36861 0.0
H2255 H 0.71294 0.3866 0.35319 0.0
C2256 C 0.67678 0.35278 0.39328 0.0
C2257 C 0.66836 0.38977 0.39877 0.0
C2258 C 0.6729 0.35808 0.38444 0.0
C2259 C 0.6597 0.40021 0.38095 0.0
C2260 C 0.65139 0.4372 0.38642 0.0
C2261 C 0.65608 0.43216 0.39524 0.0
C2262 C 0.60951 0.42908 0.35932 0.0
C2263 C 0.64488 0.41574 0.3538 0.0
C2264 C 0.61449 0.42445 0.36815 0.0
C2265 C 0.65455 0.4056 0.37161 0.0
C2266 C 0.68973 0.39196 0.36609 0.0
C2267 C 0.68513 0.39736 0.35728 0.0
H2268 H 0.91201 0.45807 0.64428 0.0
H2269 H 0.77378 0.41058 0.64802 0.0
H2270 H 0.90411 0.44554 0.6289 0.0
H2271 H 0.76618 0.39792 0.63271 0.0
H2272 H 0.79455 0.33086 0.60627 0.0
H2273 H 0.8012 0.34458 0.62163 0.0
H2274 H 0.85726 0.47817 0.61665 0.0
H2275 H 0.85047 0.46478 0.60135 0.0
C2276 C 0.87996 0.44512 0.64183 0.0
C2277 C 0.84355 0.43538 0.64737 0.0
C2278 C 0.8754 0.43808 0.63303 0.0
C2279 C 0.83458 0.42059 0.62963 0.0
C2280 C 0.79817 0.41098 0.63516 0.0
C2281 C 0.80249 0.41857 0.64393 0.0
C2282 C 0.80813 0.36319 0.60845 0.0
C2283 C 0.82195 0.39669 0.60258 0.0
C2284 C 0.81179 0.37109 0.61724 0.0
C2285 C 0.82991 0.41239 0.62032 0.0
C2286 C 0.84361 0.44587 0.61445 0.0
C2287 C 0.8394 0.43825 0.60569 0.0
H2288 H 0.08998 0.38576 0.14569 0.0
H2289 H 0.22783 0.4378 0.14684 0.0
H2290 H 0.09731 0.37607 0.13032 0.0
H2291 H 0.23572 0.42672 0.1315 0.0
H2292 H 0.21566 0.44451 0.10257 0.0
H2293 H 0.211 0.45474 0.11797 0.0
H2294 H 0.13473 0.32897 0.12006 0.0
H2295 H 0.13807 0.31962 0.10463 0.0
C2296 C 0.12188 0.3951 0.14267 0.0
C2297 C 0.1583 0.41254 0.1475 0.0
C2298 C 0.12626 0.38914 0.13385 0.0
C2299 C 0.16728 0.40019 0.12965 0.0
C2300 C 0.20349 0.41825 0.13449 0.0
C2301 C 0.199 0.42446 0.1433 0.0
C2302 C 0.19824 0.41883 0.10632 0.0
C2303 C 0.17697 0.38139 0.10236 0.0
C2304 C 0.19567 0.42463 0.11517 0.0
C2305 C 0.17207 0.39294 0.12028 0.0
C2306 C 0.15225 0.35464 0.11632 0.0
C2307 C 0.15452 0.34903 0.10747 0.0
H2308 H 0.27143 0.40431 0.85126 0.0
H2309 H 0.41496 0.42728 0.85595 0.0
H2310 H 0.25774 0.39978 0.86662 0.0
H2311 H 0.40095 0.42331 0.87134 0.0
H2312 H 0.34326 0.46608 0.89776 0.0
H2313 H 0.35542 0.47112 0.88239 0.0
H2314 H 0.28219 0.34474 0.87885 0.0
H2315 H 0.27037 0.33917 0.8943 0.0
C2316 C 0.30002 0.40868 0.85557 0.0
C2317 C 0.34432 0.41621 0.85239 0.0
C2318 C 0.29216 0.40577 0.86435 0.0
C2319 C 0.32828 0.41111 0.87014 0.0
C2320 C 0.37246 0.4193 0.86699 0.0
C2321 C 0.38049 0.42144 0.8582 0.0
C2322 C 0.3295 0.43942 0.89372 0.0
C2323 C 0.30584 0.40216 0.89725 0.0
C2324 C 0.33677 0.44222 0.88492 0.0
C2325 C 0.31991 0.40825 0.87945 0.0
C2326 C 0.29539 0.37148 0.88294 0.0
C2327 C 0.28875 0.36824 0.89177 0.0
H2328 H 0.28169 0.66732 0.60586 0.0
H2329 H 0.35815 0.54306 0.60176 0.0
H2330 H 0.28907 0.65699 0.62131 0.0
H2331 H 0.36579 0.53319 0.61714 0.0
H2332 H 0.41728 0.56976 0.64451 0.0
H2333 H 0.40699 0.57703 0.62909 0.0
H2334 H 0.26267 0.59917 0.63278 0.0
H2335 H 0.2727 0.59144 0.6482 0.0
C2336 C 0.29994 0.63782 0.60825 0.0
C2337 C 0.31936 0.60607 0.60258 0.0
C2338 C 0.30399 0.63182 0.61708 0.0
C2339 C 0.32815 0.59436 0.62041 0.0
C2340 C 0.34733 0.56255 0.61475 0.0
C2341 C 0.3427 0.56814 0.60594 0.0
C2342 C 0.38332 0.5759 0.64203 0.0
C2343 C 0.34582 0.57998 0.64758 0.0
C2344 C 0.37743 0.57992 0.63321 0.0
C2345 C 0.33405 0.58882 0.62975 0.0
C2346 C 0.29652 0.59269 0.63528 0.0
C2347 C 0.30227 0.58795 0.6441 0.0
H2348 H 0.21327 0.66111 0.39561 0.0
H2349 H 0.14411 0.53251 0.39949 0.0
H2350 H 0.20489 0.65193 0.38015 0.0
H2351 H 0.13543 0.52378 0.38409 0.0
H2352 H 0.08114 0.55822 0.35685 0.0
H2353 H 0.09114 0.56622 0.37229 0.0
H2354 H 0.23392 0.59648 0.36854 0.0
H2355 H 0.22423 0.58806 0.35315 0.0
C2356 C 0.19643 0.63089 0.39317 0.0
C2357 C 0.17939 0.59756 0.39878 0.0
C2358 C 0.19175 0.62559 0.38433 0.0
C2359 C 0.16931 0.58724 0.38094 0.0
C2360 C 0.15247 0.55387 0.38654 0.0
C2361 C 0.15775 0.55879 0.39536 0.0
C2362 C 0.11466 0.56646 0.35932 0.0
C2363 C 0.15188 0.57243 0.35378 0.0
C2364 C 0.1204 0.57087 0.36815 0.0
C2365 C 0.16329 0.58206 0.37159 0.0
C2366 C 0.20043 0.5882 0.36605 0.0
C2367 C 0.19488 0.58308 0.35724 0.0
H2368 H 0.26729 0.05044 0.22828 0.0
H2369 H 0.35238 0.93035 0.22935 0.0
H2370 H 0.28331 0.06593 0.24331 0.0
H2371 H 0.36788 0.94542 0.24449 0.0
H2372 H 0.33881 0.09334 0.26982 0.0
H2373 H 0.34925 0.08274 0.25438 0.0
H2374 H 0.30639 0.94235 0.25677 0.0
H2375 H 0.29514 0.95326 0.27208 0.0
C2376 C 0.29019 0.02794 0.23171 0.0
C2377 C 0.30867 0.98929 0.22771 0.0
C2378 C 0.29962 0.03696 0.24028 0.0
C2379 C 0.32689 0.0069 0.24503 0.0
C2380 C 0.3469 0.96917 0.24093 0.0
C2381 C 0.3382 0.96066 0.23229 0.0
C2382 C 0.33277 0.06003 0.26704 0.0
C2383 C 0.31616 0.02408 0.27207 0.0
C2384 C 0.33859 0.054 0.25824 0.0
C2385 C 0.32877 0.01169 0.25442 0.0
C2386 C 0.31477 0.97511 0.25957 0.0
C2387 C 0.30803 0.98141 0.2683 0.0
H2388 H 0.17307 0.10092 0.52176 0.0
H2389 H 0.30756 0.04079 0.52179 0.0
H2390 H 0.17998 0.11566 0.50641 0.0
H2391 H 0.31451 0.05535 0.50653 0.0
H2392 H 0.32387 0.10162 0.47938 0.0
H2393 H 0.3173 0.11495 0.49479 0.0
H2394 H 0.18167 0.05724 0.49447 0.0
H2395 H 0.18832 0.04402 0.47916 0.0
C2396 C 0.20457 0.09212 0.51853 0.0
C2397 C 0.23982 0.06978 0.52293 0.0
C2398 C 0.20842 0.10027 0.50976 0.0
C2399 C 0.24778 0.08665 0.50528 0.0
C2400 C 0.28402 0.06676 0.50981 0.0
C2401 C 0.2799 0.05807 0.51853 0.0
C2402 C 0.29223 0.09311 0.48258 0.0
C2403 C 0.25657 0.07184 0.47812 0.0
C2404 C 0.28857 0.10045 0.49139 0.0
C2405 C 0.24897 0.08711 0.49582 0.0
C2406 C 0.21235 0.0684 0.49122 0.0
C2407 C 0.21628 0.06048 0.48248 0.0
H2408 H 0.11766 0.00638 0.77513 0.0
H2409 H 0.192 0.89221 0.76468 0.0
H2410 H 0.10049 0.03303 0.76067 0.0
H2411 H 0.17546 0.91889 0.75025 0.0
H2412 H 0.13332 0.96884 0.72475 0.0
H2413 H 0.11784 0.93741 0.73893 0.0
H2414 H 0.15625 0.06613 0.7503 0.0
H2415 H 0.17123 0.09736 0.73616 0.0
C2416 C 0.12865 0.98599 0.76974 0.0
C2417 C 0.15555 0.94691 0.77097 0.0
C2418 C 0.11931 0.0015 0.76147 0.0
C2419 C 0.13667 0.97809 0.75433 0.0
C2420 C 0.16103 0.93733 0.75561 0.0
C2421 C 0.17072 0.92215 0.76386 0.0
C2422 C 0.13654 0.99089 0.73026 0.0
C2423 C 0.15297 0.03564 0.72939 0.0
C2424 C 0.1282 0.97278 0.73838 0.0
C2425 C 0.13587 -0.00072 0.74573 0.0
C2426 C 0.14939 0.04502 0.74477 0.0
C2427 C 0.15823 0.06285 0.73669 0.0
H2428 H 0.19715 0.93928 0.0224 0.0
H2429 H 0.33392 0.88619 0.01993 0.0
H2430 H 0.1842 0.92684 0.00721 0.0
H2431 H 0.32106 0.87373 0.00463 0.0
H2432 H 0.29767 0.95312 0.9784 0.0
H2433 H 0.31153 0.93538 0.99338 0.0
H2434 H 0.17952 0.87034 0.99497 0.0
H2435 H 0.16568 0.88822 0.97989 0.0
C2436 C 0.22403 0.92385 0.01862 0.0
C2437 C 0.26651 0.91373 0.02229 0.0
C2438 C 0.21651 0.91638 0.00994 0.0
C2439 C 0.25165 0.89939 0.00474 0.0
C2440 C 0.29342 0.88691 0.00851 0.0
C2441 C 0.3007 0.89377 0.01725 0.0
C2442 C 0.27206 0.93413 0.98191 0.0
C2443 C 0.23063 0.92206 0.97803 0.0
C2444 C 0.28016 0.92359 0.99046 0.0
C2445 C 0.24661 0.90144 0.99533 0.0
C2446 C 0.20595 0.88741 0.99134 0.0
C2447 C 0.19813 0.89741 0.98272 0.0
H2448 H 0.69758 0.08732 0.76639 0.0
H2449 H 0.63447 0.96302 0.7752 0.0
H2450 H 0.68138 0.06581 0.75162 0.0
H2451 H 0.61857 0.94102 0.76038 0.0
H2452 H 0.69685 0.89893 0.73445 0.0
H2453 H 0.68049 0.92033 0.74922 0.0
H2454 H 0.61909 0.04589 0.74049 0.0
H2455 H 0.63514 0.024 0.72567 0.0
C2456 C 0.67897 0.05606 0.76514 0.0
C2457 C 0.66681 0.02699 0.77187 0.0
C2458 C 0.66948 0.04384 0.75672 0.0
C2459 C 0.64863 0.00179 0.75488 0.0
C2460 C 0.63449 0.9737 0.76165 0.0
C2461 C 0.64327 0.98638 0.7701 0.0
C2462 C 0.67842 0.9303 0.7357 0.0
C2463 C 0.66677 0.95964 0.72898 0.0
C2464 C 0.66888 0.94249 0.74413 0.0
C2465 C 0.6485 0.98476 0.74598 0.0
C2466 C 0.63467 0.01306 0.73921 0.0
C2467 C 0.64351 0.00042 0.73076 0.0
H2468 H 0.68639 0.94394 0.47831 0.0
H2469 H 0.82233 0.88719 0.47844 0.0
H2470 H 0.6803 0.93125 0.49364 0.0
H2471 H 0.8163 0.8743 0.49387 0.0
H2472 H 0.80784 0.95051 0.52067 0.0
H2473 H 0.81409 0.93417 0.50546 0.0
H2474 H 0.67924 0.87464 0.50575 0.0
H2475 H 0.673 0.89128 0.52105 0.0
C2476 C 0.71454 0.9277 0.48161 0.0
C2477 C 0.75481 0.91654 0.47722 0.0
C2478 C 0.71093 0.92008 0.49037 0.0
C2479 C 0.74785 0.90184 0.49495 0.0
C2480 C 0.78735 0.88848 0.49048 0.0
C2481 C 0.7907 0.89555 0.48167 0.0
C2482 C 0.77996 0.93301 0.51752 0.0
C2483 C 0.73997 0.92212 0.52201 0.0
C2484 C 0.78369 0.92327 0.50883 0.0
C2485 C 0.74714 0.90312 0.50442 0.0
C2486 C 0.70791 0.89022 0.509 0.0
C2487 C 0.70444 0.89945 0.51775 0.0
H2488 H 0.75347 0.012 0.27121 0.0
H2489 H 0.87327 0.9266 0.26934 0.0
H2490 H 0.76659 0.03982 0.25689 0.0
H2491 H 0.88752 0.95599 0.25493 0.0
H2492 H 0.84554 0.97509 0.22567 0.0
H2493 H 0.85195 0.95084 0.24058 0.0
H2494 H 0.81739 0.08741 0.24878 0.0
H2495 H 0.80969 0.11087 0.23393 0.0
C2496 C 0.78302 -0.0005 0.26776 0.0
C2497 C 0.81256 0.96741 0.27146 0.0
C2498 C 0.79089 0.01594 0.25957 0.0
C2499 C 0.82855 0.00071 0.25479 0.0
C2500 C 0.85832 0.96853 0.25846 0.0
C2501 C 0.85044 0.95208 0.26675 0.0
C2502 C 0.84091 0.00014 0.23068 0.0
C2503 C 0.82717 0.04479 0.22871 0.0
C2504 C 0.84445 0.98629 0.23922 0.0
C2505 C 0.83438 0.01701 0.24587 0.0
C2506 C 0.82433 0.06264 0.24382 0.0
C2507 C 0.82023 0.07621 0.23533 0.0
H2508 H 0.76975 0.10181 0.97691 0.0
H2509 H 0.63477 0.05562 0.98367 0.0
H2510 H 0.78937 0.10784 0.99208 0.0
H2511 H 0.65357 0.0628 0.99876 0.0
H2512 H 0.73027 0.99654 0.02104 0.0
H2513 H 0.70351 0.01246 0.00672 0.0
H2514 H 0.77726 0.14014 0.00676 0.0
H2515 H 0.80514 0.12344 0.02121 0.0
C2516 C 0.74373 0.09489 0.98164 0.0
C2517 C 0.70082 0.07819 0.97917 0.0
C2518 C 0.75493 0.09821 0.99033 0.0
C2519 C 0.72327 0.08495 0.99662 0.0
C2520 C 0.67904 0.07229 0.99407 0.0
C2521 C 0.66812 0.06848 0.98544 0.0
C2522 C 0.74053 0.02825 0.01805 0.0
C2523 C 0.76952 0.05887 0.02229 0.0
C2524 C 0.72478 0.03765 0.00985 0.0
C2525 C 0.73777 0.07789 0.00562 0.0
C2526 C 0.76653 0.10894 0.00987 0.0
C2527 C 0.7821 0.09961 0.01817 0.0
H2528 H 0.793 0.44096 0.77239 0.0
H2529 H 0.85255 0.57556 0.77142 0.0
H2530 H 0.80625 0.43162 0.75713 0.0
H2531 H 0.86594 0.56626 0.75606 0.0
H2532 H 0.85049 0.41783 0.72994 0.0
H2533 H 0.86487 0.42704 0.74526 0.0
H2534 H 0.80667 0.56238 0.7443 0.0
H2535 H 0.79246 0.55314 0.72906 0.0
C2536 C 0.80988 0.46813 0.76892 0.0
C2537 C 0.82181 0.50893 0.77306 0.0
C2538 C 0.81781 0.46265 0.76021 0.0
C2539 C 0.83714 0.49821 0.75541 0.0
C2540 C 0.85098 0.53832 0.75962 0.0
C2541 C 0.8436 0.54354 0.7684 0.0
C2542 C 0.84209 0.44997 0.73297 0.0
C2543 C 0.82044 0.48482 0.72835 0.0
C2544 C 0.85003 0.45514 0.74173 0.0
C2545 C 0.83688 0.49543 0.74596 0.0
C2546 C 0.8177 0.5312 0.7412 0.0
C2547 C 0.80922 0.52578 0.7325 0.0
H2548 H 0.70259 0.55978 0.98 0.0
H2549 H 0.8394 0.61395 0.98111 0.0
H2550 H 0.69315 0.57392 0.99525 0.0
H2551 H 0.83018 0.62777 0.99648 0.0
H2552 H 0.81043 0.55156 0.02337 0.0
H2553 H 0.82207 0.56656 0.00821 0.0
H2554 H 0.69166 0.63499 0.00709 0.0
H2555 H 0.68025 0.62025 0.02236 0.0
C2556 C 0.73027 0.57564 0.9835 0.0
C2557 C 0.77167 0.58583 0.97942 0.0
C2558 C 0.72476 0.58407 0.99221 0.0
C2559 C 0.76091 0.60201 0.99704 0.0
C2560 C 0.80176 0.61401 0.99288 0.0
C2561 C 0.80697 0.60632 0.98411 0.0
C2562 C 0.78486 0.5709 0.01993 0.0
C2563 C 0.74452 0.58483 0.024 0.0
C2564 C 0.79164 0.57976 0.01127 0.0
C2565 C 0.75774 0.6019 0.00648 0.0
C2566 C 0.71832 0.61789 0.01065 0.0
C2567 C 0.71191 0.60972 0.01938 0.0
H2568 H 0.69436 0.45212 0.22946 0.0
H2569 H 0.62685 0.58266 0.23122 0.0
H2570 H 0.68068 0.43901 0.24465 0.0
H2571 H 0.61395 0.57001 0.24653 0.0
H2572 H 0.69609 0.55216 0.27316 0.0
H2573 H 0.67969 0.56479 0.25806 0.0
H2574 H 0.61699 0.43173 0.25653 0.0
H2575 H 0.63263 0.41952 0.27176 0.0
C2576 C 0.67562 0.47748 0.23308 0.0
C2577 C 0.66155 0.5183 0.22922 0.0
C2578 C 0.66755 0.46989 0.24174 0.0
C2579 C 0.64622 0.50349 0.24674 0.0
C2580 C 0.6303 0.54354 0.24279 0.0
C2581 C 0.6375 0.55068 0.23406 0.0
C2582 C 0.67765 0.5262 0.26964 0.0
C2583 C 0.66549 0.48497 0.27358 0.0
C2584 C 0.66802 0.53352 0.26103 0.0
C2585 C 0.64702 0.49925 0.25615 0.0
C2586 C 0.63303 0.45872 0.26018 0.0
C2587 C 0.6418 0.45182 0.26887 0.0
H2588 H 0.64576 0.40448 0.48642 0.0
H2589 H 0.77558 0.37383 0.47475 0.0
H2590 H 0.67866 0.39142 0.5005 0.0
H2591 H 0.80866 0.36026 0.48886 0.0
H2592 H 0.85197 0.43635 0.51445 0.0
H2593 H 0.82455 0.41903 0.50012 0.0
H2594 H 0.71581 0.33767 0.51083 0.0
H2595 H 0.74311 0.35554 0.52519 0.0
C2596 C 0.68097 0.3934 0.48687 0.0
C2597 C 0.708 0.38961 0.47951 0.0
C2598 C 0.69979 0.38569 0.49493 0.0
C2599 C 0.74629 0.37484 0.49579 0.0
C2600 C 0.77273 0.36857 0.48838 0.0
C2601 C 0.75368 0.37577 0.4803 0.0
C2602 C 0.82299 0.4137 0.51372 0.0
C2603 C 0.79994 0.39694 0.52092 0.0
C2604 C 0.80745 0.40352 0.50552 0.0
C2605 C 0.768 0.37697 0.50434 0.0
C2606 C 0.74631 0.3582 0.51154 0.0
C2607 C 0.76225 0.36799 0.51977 0.0
H2608 H 0.14941 0.41747 0.2297 0.0
H2609 H 0.21339 0.55 0.22895 0.0
H2610 H 0.13564 0.42682 0.24507 0.0
H2611 H 0.199 0.55973 0.2442 0.0
H2612 H 0.14807 0.57357 0.2713 0.0
H2613 H 0.1354 0.56414 0.2559 0.0
H2614 H 0.19824 0.43099 0.25696 0.0
H2615 H 0.21153 0.44079 0.27225 0.0
C2616 C 0.15917 0.44912 0.23277 0.0
C2617 C 0.18237 0.48308 0.22818 0.0
C2618 C 0.15152 0.45437 0.24155 0.0
C2619 C 0.16617 0.49405 0.24581 0.0
C2620 C 0.18684 0.52907 0.24107 0.0
C2621 C 0.19532 0.52341 0.23236 0.0
C2622 C 0.15792 0.54184 0.26826 0.0
C2623 C 0.18068 0.50784 0.27292 0.0
C2624 C 0.15091 0.53654 0.25947 0.0
C2625 C 0.16577 0.49679 0.25526 0.0
C2626 C 0.18594 0.46171 0.26005 0.0
C2627 C 0.19378 0.46741 0.26878 0.0
H2628 H 0.22117 0.38569 0.97519 0.0
H2629 H 0.34309 0.45234 0.98427 0.0
H2630 H 0.19684 0.37264 0.98997 0.0
H2631 H 0.3192 0.43909 0.999 0.0
H2632 H 0.27471 0.39212 0.02496 0.0
H2633 H 0.29979 0.37836 0.01026 0.0
H2634 H 0.17279 0.43403 0.00092 0.0
H2635 H 0.14794 0.44779 0.01561 0.0
C2636 C 0.24353 0.39592 0.98035 0.0
C2637 C 0.28422 0.41947 0.97864 0.0
C2638 C 0.22944 0.38889 0.98879 0.0
C2639 C 0.25618 0.4048 0.99562 0.0
C2640 C 0.29821 0.42591 0.99387 0.0
C2641 C 0.31183 0.43363 0.98546 0.0
C2642 C 0.25158 0.39981 0.01976 0.0
C2643 C 0.20915 0.42033 0.02137 0.0
C2644 C 0.26607 0.39236 0.01137 0.0
C2645 C 0.23815 0.40497 0.00446 0.0
C2646 C 0.19472 0.42334 0.00612 0.0
C2647 C 0.18058 0.43143 0.0145 0.0
H2648 H 0.37139 0.47764 0.72485 0.0
H2649 H 0.32013 0.60372 0.73538 0.0
H2650 H 0.38559 0.44906 0.73929 0.0
H2651 H 0.33373 0.57522 0.74976 0.0
H2652 H 0.37137 0.52032 0.77522 0.0
H2653 H 0.3885 0.54802 0.76084 0.0
H2654 H 0.32776 0.42641 0.75017 0.0
H2655 H 0.31123 0.39874 0.7645 0.0
C2656 C 0.36487 0.49991 0.73023 0.0
C2657 C 0.34507 0.54305 0.72901 0.0
C2658 C 0.37247 0.48336 0.7385 0.0
C2659 C 0.36066 0.50982 0.74567 0.0
C2660 C 0.34376 0.55418 0.74439 0.0
C2661 C 0.33571 0.57043 0.73616 0.0
C2662 C 0.36335 0.49877 0.76982 0.0
C2663 C 0.3403 0.45722 0.77097 0.0
C2664 C 0.37269 0.51484 0.76158 0.0
C2665 C 0.35943 0.48944 0.75436 0.0
C2666 C 0.33899 0.44655 0.75557 0.0
C2667 C 0.32922 0.43082 0.76378 0.0
H2668 H 0.2635 0.63349 0.47542 0.0
H2669 H 0.14213 0.57616 0.48672 0.0
H2670 H 0.29444 0.64837 0.48968 0.0
H2671 H 0.17284 0.59081 0.50094 0.0
H2672 H 0.23119 0.63248 0.52597 0.0
H2673 H 0.2005 0.64872 0.51175 0.0
H2674 H 0.32072 0.58898 0.50034 0.0
H2675 H 0.35125 0.57304 0.51454 0.0
C2676 C 0.24265 0.6259 0.48095 0.0
C2677 C 0.20018 0.60432 0.48001 0.0
C2678 C 0.26056 0.63389 0.4891 0.0
C2679 C 0.23608 0.62074 0.49642 0.0
C2680 C 0.19226 0.60192 0.49544 0.0
C2681 C 0.17472 0.59337 0.48731 0.0
C2682 C 0.25182 0.62464 0.52042 0.0
C2683 C 0.29387 0.60217 0.52131 0.0
C2684 C 0.23405 0.63344 0.51229 0.0
C2685 C 0.25822 0.62017 0.50494 0.0
C2686 C 0.30158 0.60023 0.50588 0.0
C2687 C 0.31899 0.5909 0.51399 0.0
loop_
_geom_bond_atom_site_label_1
_geom_bond_atom_site_label_2
_geom_bond_distance
_geom_bond_site_symmetry_2
_ccdc_geom_bond_type
Co0 O3 1.970 . S
Co0 N17 1.989 . S
Co0 O25 1.967 . S
Co0 O32 1.920 . S
Co1 O4 1.966 . S
Co1 N10 2.022 . S
Co1 N18 1.993 . S
Co1 O26 1.941 . S
C2 O3 1.258 . S
C2 O4 1.263 . S
O3 Co0 1.970 . S
O3 C2 1.258 . S
O4 Co1 1.966 . S
O4 C2 1.263 . S
C5 O6 1.235 . S
C5 O32 1.289 . S
O6 C5 1.235 . S
C7 C9 1.400 . S
C7 N10 1.351 . S
C7 C12 1.501 . S
C8 C9 1.387 . S
C8 N11 1.341 . S
C9 C7 1.400 . S
C9 C8 1.387 . S
N10 Co1 2.022 . S
N10 C7 1.351 . S
N10 N11 1.365 . S
N11 C8 1.341 . S
N11 N10 1.365 . S
N11 H31 0.862 . S
C12 C7 1.501 . S
C12 H13 0.961 . S
C12 H14 0.961 . S
C12 H15 0.960 . S
H13 C12 0.961 . S
H14 C12 0.961 . S
H15 C12 0.960 . S
C16 N17 1.342 1_565 S
C16 C20 1.401 . S
C16 C21 1.499 . S
N17 Co0 1.989 . S
N17 C16 1.342 1_545 S
N17 N18 1.388 . S
N18 Co1 1.993 . S
N18 N17 1.388 . S
N18 C19 1.346 1_545 S
C19 N18 1.346 1_565 S
C19 C20 1.396 . S
C19 C29 1.510 . S
C20 C16 1.401 . S
C20 C19 1.396 . S
C21 C16 1.499 . S
C21 H22 0.959 1_565 S
C21 H23 0.960 . S
C21 H24 0.961 . S
H22 C21 0.959 1_545 S
H23 C21 0.960 . S
H24 C21 0.961 . S
O25 Co0 1.967 . S
O25 C33 1.258 . S
O26 Co1 1.941 . S
O26 C33 1.266 . S
H27 C29 0.959 . S
H28 C29 0.961 . S
C29 C19 1.510 . S
C29 H27 0.959 . S
C29 H28 0.961 . S
C29 H30 0.960 . S
H30 C29 0.960 . S
H31 N11 0.862 . S
O32 Co0 1.920 . S
O32 C5 1.289 . S
C33 O25 1.258 . S
C33 O26 1.266 . S
Co34 O37 1.970 . S
Co34 N51 1.989 . S
Co34 O59 1.967 . S
Co34 O66 1.920 . S
Co35 O38 1.966 . S
Co35 N44 2.022 . S
Co35 N52 1.993 . S
Co35 O60 1.941 . S
C36 O37 1.258 . S
C36 O38 1.263 . S
O37 Co34 1.970 . S
O37 C36 1.258 . S
O38 Co35 1.966 . S
O38 C36 1.263 . S
C39 O40 1.235 . S
C39 O66 1.289 . S
O40 C39 1.235 . S
C41 C43 1.400 . S
C41 N44 1.351 . S
C41 C46 1.501 . S
C42 C43 1.387 . S
C42 N45 1.341 . S
C43 C41 1.400 . S
C43 C42 1.387 . S
N44 Co35 2.022 . S
N44 C41 1.351 . S
N44 N45 1.365 . S
N45 C42 1.341 . S
N45 N44 1.365 . S
N45 H65 0.862 . S
C46 C41 1.501 . S
C46 H47 0.961 . S
C46 H48 0.961 . S
C46 H49 0.960 . S
H47 C46 0.961 . S
H48 C46 0.961 . S
H49 C46 0.960 . S
C50 N51 1.342 . S
C50 C54 1.401 . S
C50 C55 1.499 . S
N51 Co34 1.989 . S
N51 C50 1.342 . S
N51 N52 1.388 . S
N52 Co35 1.993 . S
N52 N51 1.388 . S
N52 C53 1.346 . S
C53 N52 1.346 . S
C53 C54 1.396 . S
C53 C63 1.510 . S
C54 C50 1.401 . S
C54 C53 1.396 . S
C55 C50 1.499 . S
C55 H56 0.959 . S
C55 H57 0.960 . S
C55 H58 0.961 . S
H56 C55 0.959 . S
H57 C55 0.960 . S
H58 C55 0.961 . S
O59 Co34 1.967 . S
O59 C67 1.258 . S
O60 Co35 1.941 . S
O60 C67 1.266 . S
H61 C63 0.959 . S
H62 C63 0.961 . S
C63 C53 1.510 . S
C63 H61 0.959 . S
C63 H62 0.961 . S
C63 H64 0.960 . S
H64 C63 0.960 . S
H65 N45 0.862 . S
O66 Co34 1.920 . S
O66 C39 1.289 . S
C67 O59 1.258 . S
C67 O60 1.266 . S
Co68 O71 1.970 . S
Co68 N85 1.989 . S
Co68 O93 1.967 . S
Co68 O100 1.920 . S
Co69 O72 1.966 . S
Co69 N78 2.022 . S
Co69 N86 1.993 . S
Co69 O94 1.941 . S
C70 O71 1.258 . S
C70 O72 1.263 . S
O71 Co68 1.970 . S
O71 C70 1.258 . S
O72 Co69 1.966 . S
O72 C70 1.263 . S
C73 O74 1.235 . S
C73 O100 1.289 . S
O74 C73 1.235 . S
C75 C77 1.400 . S
C75 N78 1.351 . S
C75 C80 1.501 . S
C76 C77 1.387 . S
C76 N79 1.341 . S
C77 C75 1.400 . S
C77 C76 1.387 . S
N78 Co69 2.022 . S
N78 C75 1.351 . S
N78 N79 1.365 . S
N79 C76 1.341 . S
N79 N78 1.365 . S
N79 H99 0.862 . S
C80 C75 1.501 . S
C80 H81 0.961 . S
C80 H82 0.961 . S
C80 H83 0.960 . S
H81 C80 0.961 . S
H82 C80 0.961 . S
H83 C80 0.960 . S
C84 N85 1.342 1_545 S
C84 C88 1.401 . S
C84 C89 1.499 . S
N85 Co68 1.989 . S
N85 C84 1.342 1_565 S
N85 N86 1.388 . S
N86 Co69 1.993 . S
N86 N85 1.388 . S
N86 C87 1.346 1_565 S
C87 N86 1.346 1_545 S
C87 C88 1.396 . S
C87 C97 1.510 . S
C88 C84 1.401 . S
C88 C87 1.396 . S
C89 C84 1.499 . S
C89 H90 0.959 1_545 S
C89 H91 0.960 . S
C89 H92 0.961 . S
H90 C89 0.959 1_565 S
H91 C89 0.960 . S
H92 C89 0.961 . S
O93 Co68 1.967 . S
O93 C101 1.258 . S
O94 Co69 1.941 . S
O94 C101 1.266 . S
H95 C97 0.959 . S
H96 C97 0.961 . S
C97 C87 1.510 . S
C97 H95 0.959 . S
C97 H96 0.961 . S
C97 H98 0.960 . S
H98 C97 0.960 . S
H99 N79 0.862 . S
O100 Co68 1.920 . S
O100 C73 1.289 . S
C101 O93 1.258 . S
C101 O94 1.266 . S
Co102 O105 1.970 . S
Co102 N119 1.989 . S
Co102 O127 1.967 . S
Co102 O134 1.920 . S
Co103 O106 1.966 . S
Co103 N112 2.022 . S
Co103 N120 1.993 . S
Co103 O128 1.941 . S
C104 O105 1.258 . S
C104 O106 1.263 . S
O105 Co102 1.970 . S
O105 C104 1.258 . S
O106 Co103 1.966 . S
O106 C104 1.263 . S
C107 O108 1.235 . S
C107 O134 1.289 . S
O108 C107 1.235 . S
C109 C111 1.400 . S
C109 N112 1.351 . S
C109 C114 1.501 . S
C110 C111 1.387 . S
C110 N113 1.341 . S
C111 C109 1.400 . S
C111 C110 1.387 . S
N112 Co103 2.022 . S
N112 C109 1.351 . S
N112 N113 1.365 . S
N113 C110 1.341 . S
N113 N112 1.365 . S
N113 H133 0.862 . S
C114 C109 1.501 . S
C114 H115 0.961 . S
C114 H116 0.961 . S
C114 H117 0.960 . S
H115 C114 0.961 . S
H116 C114 0.961 . S
H117 C114 0.960 . S
C118 N119 1.342 . S
C118 C122 1.401 . S
C118 C123 1.499 . S
N119 Co102 1.989 . S
N119 C118 1.342 . S
N119 N120 1.388 . S
N120 Co103 1.993 . S
N120 N119 1.388 . S
N120 C121 1.346 . S
C121 N120 1.346 . S
C121 C122 1.396 . S
C121 C131 1.510 . S
C122 C118 1.401 . S
C122 C121 1.396 . S
C123 C118 1.499 . S
C123 H124 0.959 . S
C123 H125 0.960 . S
C123 H126 0.961 . S
H124 C123 0.959 . S
H125 C123 0.960 . S
H126 C123 0.961 . S
O127 Co102 1.967 . S
O127 C135 1.258 . S
O128 Co103 1.941 . S
O128 C135 1.266 . S
H129 C131 0.959 . S
H130 C131 0.961 . S
C131 C121 1.510 . S
C131 H129 0.959 . S
C131 H130 0.961 . S
C131 H132 0.960 . S
H132 C131 0.960 . S
H133 N113 0.862 . S
O134 Co102 1.920 . S
O134 C107 1.289 . S
C135 O127 1.258 . S
C135 O128 1.266 . S
Co136 O139 1.970 . S
Co136 N153 1.989 . S
Co136 O161 1.967 . S
Co136 O168 1.920 . S
Co137 O140 1.966 . S
Co137 N146 2.022 . S
Co137 N154 1.993 . S
Co137 O162 1.941 . S
C138 O139 1.258 . S
C138 O140 1.263 . S
O139 Co136 1.970 . S
O139 C138 1.258 . S
O140 Co137 1.966 . S
O140 C138 1.263 . S
C141 O142 1.235 . S
C141 O168 1.289 . S
O142 C141 1.235 . S
C143 C145 1.400 . S
C143 N146 1.351 . S
C143 C148 1.501 . S
C144 C145 1.387 . S
C144 N147 1.341 . S
C145 C143 1.400 . S
C145 C144 1.387 . S
N146 Co137 2.022 . S
N146 C143 1.351 . S
N146 N147 1.365 . S
N147 C144 1.341 . S
N147 N146 1.365 . S
N147 H167 0.862 . S
C148 C143 1.501 . S
C148 H149 0.961 . S
C148 H150 0.961 . S
C148 H151 0.960 . S
H149 C148 0.961 . S
H150 C148 0.961 . S
H151 C148 0.960 . S
C152 N153 1.342 1_545 S
C152 C156 1.401 . S
C152 C157 1.499 . S
N153 Co136 1.989 . S
N153 C152 1.342 1_565 S
N153 N154 1.388 . S
N154 Co137 1.993 . S
N154 N153 1.388 . S
N154 C155 1.346 1_565 S
C155 N154 1.346 1_545 S
C155 C156 1.396 . S
C155 C165 1.510 . S
C156 C152 1.401 . S
C156 C155 1.396 . S
C157 C152 1.499 . S
C157 H158 0.959 1_545 S
C157 H159 0.960 . S
C157 H160 0.961 . S
H158 C157 0.959 1_565 S
H159 C157 0.960 . S
H160 C157 0.961 . S
O161 Co136 1.967 . S
O161 C169 1.258 . S
O162 Co137 1.941 . S
O162 C169 1.266 . S
H163 C165 0.959 . S
H164 C165 0.961 . S
C165 C155 1.510 . S
C165 H163 0.959 . S
C165 H164 0.961 . S
C165 H166 0.960 . S
H166 C165 0.960 . S
H167 N147 0.862 . S
O168 Co136 1.920 . S
O168 C141 1.289 . S
C169 O161 1.258 . S
C169 O162 1.266 . S
Co170 O173 1.970 . S
Co170 N187 1.989 . S
Co170 O195 1.967 . S
Co170 O202 1.920 . S
Co171 O174 1.966 . S
Co171 N180 2.022 . S
Co171 N188 1.993 . S
Co171 O196 1.941 . S
C172 O173 1.258 . S
C172 O174 1.263 . S
O173 Co170 1.970 . S
O173 C172 1.258 . S
O174 Co171 1.966 . S
O174 C172 1.263 . S
C175 O176 1.235 . S
C175 O202 1.289 . S
O176 C175 1.235 . S
C177 C179 1.400 . S
C177 N180 1.351 . S
C177 C182 1.501 . S
C178 C179 1.387 . S
C178 N181 1.341 . S
C179 C177 1.400 . S
C179 C178 1.387 . S
N180 Co171 2.022 . S
N180 C177 1.351 . S
N180 N181 1.365 . S
N181 C178 1.341 . S
N181 N180 1.365 . S
N181 H201 0.862 . S
C182 C177 1.501 . S
C182 H183 0.961 . S
C182 H184 0.961 . S
C182 H185 0.960 . S
H183 C182 0.961 . S
H184 C182 0.961 . S
H185 C182 0.960 . S
C186 N187 1.342 . S
C186 C190 1.401 . S
C186 C191 1.499 . S
N187 Co170 1.989 . S
N187 C186 1.342 . S
N187 N188 1.388 . S
N188 Co171 1.993 . S
N188 N187 1.388 . S
N188 C189 1.346 . S
C189 N188 1.346 . S
C189 C190 1.396 . S
C189 C199 1.510 . S
C190 C186 1.401 . S
C190 C189 1.396 . S
C191 C186 1.499 . S
C191 H192 0.959 . S
C191 H193 0.960 . S
C191 H194 0.961 . S
H192 C191 0.959 . S
H193 C191 0.960 . S
H194 C191 0.961 . S
O195 Co170 1.967 . S
O195 C203 1.258 . S
O196 Co171 1.941 . S
O196 C203 1.266 . S
H197 C199 0.959 . S
H198 C199 0.961 . S
C199 C189 1.510 . S
C199 H197 0.959 . S
C199 H198 0.961 . S
C199 H200 0.960 . S
H200 C199 0.960 . S
H201 N181 0.862 . S
O202 Co170 1.920 . S
O202 C175 1.289 . S
C203 O195 1.258 . S
C203 O196 1.266 . S
Co204 O207 1.970 . S
Co204 N221 1.989 . S
Co204 O229 1.967 . S
Co204 O236 1.920 . S
Co205 O208 1.966 . S
Co205 N214 2.022 . S
Co205 N222 1.993 . S
Co205 O230 1.941 . S
C206 O207 1.258 . S
C206 O208 1.263 . S
O207 Co204 1.970 . S
O207 C206 1.258 . S
O208 Co205 1.966 . S
O208 C206 1.263 . S
C209 O210 1.235 . S
C209 O236 1.289 . S
O210 C209 1.235 . S
C211 C213 1.400 . S
C211 N214 1.351 . S
C211 C216 1.501 . S
C212 C213 1.387 . S
C212 N215 1.341 . S
C213 C211 1.400 . S
C213 C212 1.387 . S
N214 Co205 2.022 . S
N214 C211 1.351 . S
N214 N215 1.365 . S
N215 C212 1.341 . S
N215 N214 1.365 . S
N215 H235 0.862 . S
C216 C211 1.501 . S
C216 H217 0.961 . S
C216 H218 0.961 . S
C216 H219 0.960 . S
H217 C216 0.961 . S
H218 C216 0.961 . S
H219 C216 0.960 . S
C220 N221 1.342 1_565 S
C220 C224 1.401 . S
C220 C225 1.499 . S
N221 Co204 1.989 . S
N221 C220 1.342 1_545 S
N221 N222 1.388 . S
N222 Co205 1.993 . S
N222 N221 1.388 . S
N222 C223 1.346 1_545 S
C223 N222 1.346 1_565 S
C223 C224 1.396 . S
C223 C233 1.510 . S
C224 C220 1.401 . S
C224 C223 1.396 . S
C225 C220 1.499 . S
C225 H226 0.959 1_565 S
C225 H227 0.960 . S
C225 H228 0.961 . S
H226 C225 0.959 1_545 S
H227 C225 0.960 . S
H228 C225 0.961 . S
O229 Co204 1.967 . S
O229 C237 1.258 . S
O230 Co205 1.941 . S
O230 C237 1.266 . S
H231 C233 0.959 . S
H232 C233 0.961 . S
C233 C223 1.510 . S
C233 H231 0.959 . S
C233 H232 0.961 . S
C233 H234 0.960 . S
H234 C233 0.960 . S
H235 N215 0.862 . S
O236 Co204 1.920 . S
O236 C209 1.289 . S
C237 O229 1.258 . S
C237 O230 1.266 . S
Co238 O241 1.970 . S
Co238 N255 1.989 . S
Co238 O263 1.967 . S
Co238 O270 1.920 . S
Co239 O242 1.966 . S
Co239 N248 2.022 . S
Co239 N256 1.993 . S
Co239 O264 1.941 . S
C240 O241 1.258 . S
C240 O242 1.263 . S
O241 Co238 1.970 . S
O241 C240 1.258 . S
O242 Co239 1.966 . S
O242 C240 1.263 . S
C243 O244 1.235 . S
C243 O270 1.289 . S
O244 C243 1.235 . S
C245 C247 1.400 . S
C245 N248 1.351 . S
C245 C250 1.501 . S
C246 C247 1.387 . S
C246 N249 1.341 . S
C247 C245 1.400 . S
C247 C246 1.387 . S
N248 Co239 2.022 . S
N248 C245 1.351 . S
N248 N249 1.365 . S
N249 C246 1.341 . S
N249 N248 1.365 . S
N249 H269 0.862 . S
C250 C245 1.501 . S
C250 H251 0.961 . S
C250 H252 0.961 . S
C250 H253 0.960 . S
H251 C250 0.961 . S
H252 C250 0.961 . S
H253 C250 0.960 . S
C254 N255 1.342 . S
C254 C258 1.401 . S
C254 C259 1.499 . S
N255 Co238 1.989 . S
N255 C254 1.342 . S
N255 N256 1.388 . S
N256 Co239 1.993 . S
N256 N255 1.388 . S
N256 C257 1.346 . S
C257 N256 1.346 . S
C257 C258 1.396 . S
C257 C267 1.510 . S
C258 C254 1.401 . S
C258 C257 1.396 . S
C259 C254 1.499 . S
C259 H260 0.959 . S
C259 H261 0.960 . S
C259 H262 0.961 . S
H260 C259 0.959 . S
H261 C259 0.960 . S
H262 C259 0.961 . S
O263 Co238 1.967 . S
O263 C271 1.258 . S
O264 Co239 1.941 . S
O264 C271 1.266 . S
H265 C267 0.959 . S
H266 C267 0.961 . S
C267 C257 1.510 . S
C267 H265 0.959 . S
C267 H266 0.961 . S
C267 H268 0.960 . S
H268 C267 0.960 . S
H269 N249 0.862 . S
O270 Co238 1.920 . S
O270 C243 1.289 . S
C271 O263 1.258 . S
C271 O264 1.266 . S
Co272 O275 1.970 . S
Co272 N289 1.989 . S
Co272 O297 1.967 . S
Co272 O304 1.920 . S
Co273 O276 1.966 . S
Co273 N282 2.022 . S
Co273 N290 1.993 . S
Co273 O298 1.941 . S
C274 O275 1.258 . S
C274 O276 1.263 . S
O275 Co272 1.970 . S
O275 C274 1.258 . S
O276 Co273 1.966 . S
O276 C274 1.263 . S
C277 O278 1.235 . S
C277 O304 1.289 . S
O278 C277 1.235 . S
C279 C281 1.400 . S
C279 N282 1.351 . S
C279 C284 1.501 . S
C280 C281 1.387 . S
C280 N283 1.341 . S
C281 C279 1.400 . S
C281 C280 1.387 . S
N282 Co273 2.022 . S
N282 C279 1.351 . S
N282 N283 1.365 . S
N283 C280 1.341 . S
N283 N282 1.365 . S
N283 H303 0.862 . S
C284 C279 1.501 . S
C284 H285 0.961 . S
C284 H286 0.961 . S
C284 H287 0.960 . S
H285 C284 0.961 . S
H286 C284 0.961 . S
H287 C284 0.960 . S
C288 N289 1.342 1_545 S
C288 C292 1.401 . S
C288 C293 1.499 . S
N289 Co272 1.989 . S
N289 C288 1.342 1_565 S
N289 N290 1.388 . S
N290 Co273 1.993 . S
N290 N289 1.388 . S
N290 C291 1.346 1_565 S
C291 N290 1.346 1_545 S
C291 C292 1.396 . S
C291 C301 1.510 . S
C292 C288 1.401 . S
C292 C291 1.396 . S
C293 C288 1.499 . S
C293 H294 0.959 1_545 S
C293 H295 0.960 . S
C293 H296 0.961 . S
H294 C293 0.959 1_565 S
H295 C293 0.960 . S
H296 C293 0.961 . S
O297 Co272 1.967 . S
O297 C305 1.258 . S
O298 Co273 1.941 . S
O298 C305 1.266 . S
H299 C301 0.959 . S
H300 C301 0.961 . S
C301 C291 1.510 . S
C301 H299 0.959 . S
C301 H300 0.961 . S
C301 H302 0.960 . S
H302 C301 0.960 . S
H303 N283 0.862 . S
O304 Co272 1.920 . S
O304 C277 1.289 . S
C305 O297 1.258 . S
C305 O298 1.266 . S
Co306 O309 1.970 . S
Co306 N323 1.989 . S
Co306 O331 1.967 . S
Co306 O338 1.920 . S
Co307 O310 1.966 . S
Co307 N316 2.022 . S
Co307 N324 1.993 . S
Co307 O332 1.941 . S
C308 O309 1.258 . S
C308 O310 1.263 . S
O309 Co306 1.970 . S
O309 C308 1.258 . S
O310 Co307 1.966 . S
O310 C308 1.263 . S
C311 O312 1.235 . S
C311 O338 1.289 . S
O312 C311 1.235 . S
C313 C315 1.400 . S
C313 N316 1.351 . S
C313 C318 1.501 . S
C314 C315 1.387 . S
C314 N317 1.341 . S
C315 C313 1.400 . S
C315 C314 1.387 . S
N316 Co307 2.022 . S
N316 C313 1.351 . S
N316 N317 1.365 . S
N317 C314 1.341 . S
N317 N316 1.365 . S
N317 H337 0.862 . S
C318 C313 1.501 . S
C318 H319 0.961 . S
C318 H320 0.961 . S
C318 H321 0.960 . S
H319 C318 0.961 . S
H320 C318 0.961 . S
H321 C318 0.960 . S
C322 N323 1.342 . S
C322 C326 1.401 . S
C322 C327 1.499 . S
N323 Co306 1.989 . S
N323 C322 1.342 . S
N323 N324 1.388 . S
N324 Co307 1.993 . S
N324 N323 1.388 . S
N324 C325 1.346 . S
C325 N324 1.346 . S
C325 C326 1.396 . S
C325 C335 1.510 . S
C326 C322 1.401 . S
C326 C325 1.396 . S
C327 C322 1.499 . S
C327 H328 0.959 . S
C327 H329 0.960 . S
C327 H330 0.961 . S
H328 C327 0.959 . S
H329 C327 0.960 . S
H330 C327 0.961 . S
O331 Co306 1.967 . S
O331 C339 1.258 . S
O332 Co307 1.941 . S
O332 C339 1.266 . S
H333 C335 0.959 . S
H334 C335 0.961 . S
C335 C325 1.510 . S
C335 H333 0.959 . S
C335 H334 0.961 . S
C335 H336 0.960 . S
H336 C335 0.960 . S
H337 N317 0.862 . S
O338 Co306 1.920 . S
O338 C311 1.289 . S
C339 O331 1.258 . S
C339 O332 1.266 . S
Co340 O343 1.970 . S
Co340 N357 1.989 . S
Co340 O365 1.967 . S
Co340 O372 1.920 . S
Co341 O344 1.966 . S
Co341 N350 2.022 . S
Co341 N358 1.993 . S
Co341 O366 1.941 . S
C342 O343 1.258 . S
C342 O344 1.263 . S
O343 Co340 1.970 . S
O343 C342 1.258 . S
O344 Co341 1.966 . S
O344 C342 1.263 . S
C345 O346 1.235 . S
C345 O372 1.289 . S
O346 C345 1.235 . S
C347 C349 1.400 . S
C347 N350 1.351 . S
C347 C352 1.501 . S
C348 C349 1.387 . S
C348 N351 1.341 . S
C349 C347 1.400 . S
C349 C348 1.387 . S
N350 Co341 2.022 . S
N350 C347 1.351 . S
N350 N351 1.365 . S
N351 C348 1.341 . S
N351 N350 1.365 . S
N351 H371 0.862 . S
C352 C347 1.501 . S
C352 H353 0.961 . S
C352 H354 0.961 . S
C352 H355 0.960 . S
H353 C352 0.961 . S
H354 C352 0.961 . S
H355 C352 0.960 . S
C356 N357 1.342 1_565 S
C356 C360 1.401 . S
C356 C361 1.499 . S
N357 Co340 1.989 . S
N357 C356 1.342 1_545 S
N357 N358 1.388 . S
N358 Co341 1.993 . S
N358 N357 1.388 . S
N358 C359 1.346 1_545 S
C359 N358 1.346 1_565 S
C359 C360 1.396 . S
C359 C369 1.510 . S
C360 C356 1.401 . S
C360 C359 1.396 . S
C361 C356 1.499 . S
C361 H362 0.959 1_565 S
C361 H363 0.960 . S
C361 H364 0.961 . S
H362 C361 0.959 1_545 S
H363 C361 0.960 . S
H364 C361 0.961 . S
O365 Co340 1.967 . S
O365 C373 1.258 . S
O366 Co341 1.941 . S
O366 C373 1.266 . S
H367 C369 0.959 . S
H368 C369 0.961 . S
C369 C359 1.510 . S
C369 H367 0.959 . S
C369 H368 0.961 . S
C369 H370 0.960 . S
H370 C369 0.960 . S
H371 N351 0.862 . S
O372 Co340 1.920 . S
O372 C345 1.289 . S
C373 O365 1.258 . S
C373 O366 1.266 . S
Co374 O377 1.970 . S
Co374 N391 1.989 . S
Co374 O399 1.967 . S
Co374 O406 1.920 . S
Co375 O378 1.966 . S
Co375 N384 2.022 . S
Co375 N392 1.993 . S
Co375 O400 1.941 . S
C376 O377 1.258 . S
C376 O378 1.263 . S
O377 Co374 1.970 . S
O377 C376 1.258 . S
O378 Co375 1.966 . S
O378 C376 1.263 . S
C379 O380 1.235 . S
C379 O406 1.289 . S
O380 C379 1.235 . S
C381 C383 1.400 . S
C381 N384 1.351 . S
C381 C386 1.501 . S
C382 C383 1.387 . S
C382 N385 1.341 . S
C383 C381 1.400 . S
C383 C382 1.387 . S
N384 Co375 2.022 . S
N384 C381 1.351 . S
N384 N385 1.365 . S
N385 C382 1.341 . S
N385 N384 1.365 . S
N385 H405 0.862 . S
C386 C381 1.501 . S
C386 H387 0.961 . S
C386 H388 0.961 . S
C386 H389 0.960 . S
H387 C386 0.961 . S
H388 C386 0.961 . S
H389 C386 0.960 . S
C390 N391 1.342 . S
C390 C394 1.401 . S
C390 C395 1.499 . S
N391 Co374 1.989 . S
N391 C390 1.342 . S
N391 N392 1.388 . S
N392 Co375 1.993 . S
N392 N391 1.388 . S
N392 C393 1.346 . S
C393 N392 1.346 . S
C393 C394 1.396 . S
C393 C403 1.510 . S
C394 C390 1.401 . S
C394 C393 1.396 . S
C395 C390 1.499 . S
C395 H396 0.959 . S
C395 H397 0.960 . S
C395 H398 0.961 . S
H396 C395 0.959 . S
H397 C395 0.960 . S
H398 C395 0.961 . S
O399 Co374 1.967 . S
O399 C407 1.258 . S
O400 Co375 1.941 . S
O400 C407 1.266 . S
H401 C403 0.959 . S
H402 C403 0.961 . S
C403 C393 1.510 . S
C403 H401 0.959 . S
C403 H402 0.961 . S
C403 H404 0.960 . S
H404 C403 0.960 . S
H405 N385 0.862 . S
O406 Co374 1.920 . S
O406 C379 1.289 . S
C407 O399 1.258 . S
C407 O400 1.266 . S
Co408 O411 1.970 . S
Co408 N425 1.989 . S
Co408 O433 1.967 . S
Co408 O440 1.920 . S
Co409 O412 1.966 . S
Co409 N418 2.022 . S
Co409 N426 1.993 . S
Co409 O434 1.941 . S
C410 O411 1.258 . S
C410 O412 1.263 . S
O411 Co408 1.970 . S
O411 C410 1.258 . S
O412 Co409 1.966 . S
O412 C410 1.263 . S
C413 O414 1.235 . S
C413 O440 1.289 . S
O414 C413 1.235 . S
C415 C417 1.400 . S
C415 N418 1.351 . S
C415 C420 1.501 . S
C416 C417 1.387 . S
C416 N419 1.341 . S
C417 C415 1.400 . S
C417 C416 1.387 . S
N418 Co409 2.022 . S
N418 C415 1.351 . S
N418 N419 1.365 . S
N419 C416 1.341 . S
N419 N418 1.365 . S
N419 H439 0.862 . S
C420 C415 1.501 . S
C420 H421 0.961 . S
C420 H422 0.961 . S
C420 H423 0.960 . S
H421 C420 0.961 . S
H422 C420 0.961 . S
H423 C420 0.960 . S
C424 N425 1.342 1_565 S
C424 C428 1.401 . S
C424 C429 1.499 . S
N425 Co408 1.989 . S
N425 C424 1.342 1_545 S
N425 N426 1.388 . S
N426 Co409 1.993 . S
N426 N425 1.388 . S
N426 C427 1.346 1_545 S
C427 N426 1.346 1_565 S
C427 C428 1.396 . S
C427 C437 1.510 . S
C428 C424 1.401 . S
C428 C427 1.396 . S
C429 C424 1.499 . S
C429 H430 0.959 1_565 S
C429 H431 0.960 . S
C429 H432 0.961 . S
H430 C429 0.959 1_545 S
H431 C429 0.960 . S
H432 C429 0.961 . S
O433 Co408 1.967 . S
O433 C441 1.258 . S
O434 Co409 1.941 . S
O434 C441 1.266 . S
H435 C437 0.959 . S
H436 C437 0.961 . S
C437 C427 1.510 . S
C437 H435 0.959 . S
C437 H436 0.961 . S
C437 H438 0.960 . S
H438 C437 0.960 . S
H439 N419 0.862 . S
O440 Co408 1.920 . S
O440 C413 1.289 . S
C441 O433 1.258 . S
C441 O434 1.266 . S
Co442 O445 1.970 . S
Co442 N459 1.989 . S
Co442 O467 1.967 . S
Co442 O474 1.920 . S
Co443 O446 1.966 . S
Co443 N452 2.022 . S
Co443 N460 1.993 . S
Co443 O468 1.941 . S
C444 O445 1.258 . S
C444 O446 1.263 . S
O445 Co442 1.970 . S
O445 C444 1.258 . S
O446 Co443 1.966 . S
O446 C444 1.263 . S
C447 O448 1.235 . S
C447 O474 1.289 . S
O448 C447 1.235 . S
C449 C451 1.400 . S
C449 N452 1.351 . S
C449 C454 1.501 . S
C450 C451 1.387 . S
C450 N453 1.341 . S
C451 C449 1.400 . S
C451 C450 1.387 . S
N452 Co443 2.022 . S
N452 C449 1.351 . S
N452 N453 1.365 . S
N453 C450 1.341 . S
N453 N452 1.365 . S
N453 H473 0.862 . S
C454 C449 1.501 . S
C454 H455 0.961 . S
C454 H456 0.961 . S
C454 H457 0.960 . S
H455 C454 0.961 . S
H456 C454 0.961 . S
H457 C454 0.960 . S
C458 N459 1.342 . S
C458 C462 1.401 . S
C458 C463 1.499 . S
N459 Co442 1.989 . S
N459 C458 1.342 . S
N459 N460 1.388 . S
N460 Co443 1.993 . S
N460 N459 1.388 . S
N460 C461 1.346 . S
C461 N460 1.346 . S
C461 C462 1.396 . S
C461 C471 1.510 . S
C462 C458 1.401 . S
C462 C461 1.396 . S
C463 C458 1.499 . S
C463 H464 0.959 . S
C463 H465 0.960 . S
C463 H466 0.961 . S
H464 C463 0.959 . S
H465 C463 0.960 . S
H466 C463 0.961 . S
O467 Co442 1.967 . S
O467 C475 1.258 . S
O468 Co443 1.941 . S
O468 C475 1.266 . S
H469 C471 0.959 . S
H470 C471 0.961 . S
C471 C461 1.510 . S
C471 H469 0.959 . S
C471 H470 0.961 . S
C471 H472 0.960 . S
H472 C471 0.960 . S
H473 N453 0.862 . S
O474 Co442 1.920 . S
O474 C447 1.289 . S
C475 O467 1.258 . S
C475 O468 1.266 . S
Co476 O479 1.970 . S
Co476 N493 1.989 . S
Co476 O501 1.967 . S
Co476 O508 1.920 . S
Co477 O480 1.966 . S
Co477 N486 2.022 . S
Co477 N494 1.993 . S
Co477 O502 1.941 . S
C478 O479 1.258 . S
C478 O480 1.263 . S
O479 Co476 1.970 . S
O479 C478 1.258 . S
O480 Co477 1.966 . S
O480 C478 1.263 . S
C481 O482 1.235 . S
C481 O508 1.289 . S
O482 C481 1.235 . S
C483 C485 1.400 . S
C483 N486 1.351 . S
C483 C488 1.501 . S
C484 C485 1.387 . S
C484 N487 1.341 . S
C485 C483 1.400 . S
C485 C484 1.387 . S
N486 Co477 2.022 . S
N486 C483 1.351 . S
N486 N487 1.365 . S
N487 C484 1.341 . S
N487 N486 1.365 . S
N487 H507 0.862 . S
C488 C483 1.501 . S
C488 H489 0.961 . S
C488 H490 0.961 . S
C488 H491 0.960 . S
H489 C488 0.961 . S
H490 C488 0.961 . S
H491 C488 0.960 . S
C492 N493 1.342 1_545 S
C492 C496 1.401 . S
C492 C497 1.499 . S
N493 Co476 1.989 . S
N493 C492 1.342 1_565 S
N493 N494 1.388 . S
N494 Co477 1.993 . S
N494 N493 1.388 . S
N494 C495 1.346 1_565 S
C495 N494 1.346 1_545 S
C495 C496 1.396 . S
C495 C505 1.510 . S
C496 C492 1.401 . S
C496 C495 1.396 . S
C497 C492 1.499 . S
C497 H498 0.959 1_545 S
C497 H499 0.960 . S
C497 H500 0.961 . S
H498 C497 0.959 1_565 S
H499 C497 0.960 . S
H500 C497 0.961 . S
O501 Co476 1.967 . S
O501 C509 1.258 . S
O502 Co477 1.941 . S
O502 C509 1.266 . S
H503 C505 0.959 . S
H504 C505 0.961 . S
C505 C495 1.510 . S
C505 H503 0.959 . S
C505 H504 0.961 . S
C505 H506 0.960 . S
H506 C505 0.960 . S
H507 N487 0.862 . S
O508 Co476 1.920 . S
O508 C481 1.289 . S
C509 O501 1.258 . S
C509 O502 1.266 . S
Co510 O513 1.970 . S
Co510 N527 1.989 . S
Co510 O535 1.967 . S
Co510 O542 1.920 . S
Co511 O514 1.966 . S
Co511 N520 2.022 . S
Co511 N528 1.993 . S
Co511 O536 1.941 . S
C512 O513 1.258 . S
C512 O514 1.263 . S
O513 Co510 1.970 . S
O513 C512 1.258 . S
O514 Co511 1.966 . S
O514 C512 1.263 . S
C515 O516 1.235 . S
C515 O542 1.289 . S
O516 C515 1.235 . S
C517 C519 1.400 . S
C517 N520 1.351 . S
C517 C522 1.501 . S
C518 C519 1.387 . S
C518 N521 1.341 . S
C519 C517 1.400 . S
C519 C518 1.387 . S
N520 Co511 2.022 . S
N520 C517 1.351 . S
N520 N521 1.365 . S
N521 C518 1.341 . S
N521 N520 1.365 . S
N521 H541 0.862 . S
C522 C517 1.501 . S
C522 H523 0.961 . S
C522 H524 0.961 . S
C522 H525 0.960 . S
H523 C522 0.961 . S
H524 C522 0.961 . S
H525 C522 0.960 . S
C526 N527 1.342 . S
C526 C530 1.401 . S
C526 C531 1.499 . S
N527 Co510 1.989 . S
N527 C526 1.342 . S
N527 N528 1.388 . S
N528 Co511 1.993 . S
N528 N527 1.388 . S
N528 C529 1.346 . S
C529 N528 1.346 . S
C529 C530 1.396 . S
C529 C539 1.510 . S
C530 C526 1.401 . S
C530 C529 1.396 . S
C531 C526 1.499 . S
C531 H532 0.959 . S
C531 H533 0.960 . S
C531 H534 0.961 . S
H532 C531 0.959 . S
H533 C531 0.960 . S
H534 C531 0.961 . S
O535 Co510 1.967 . S
O535 C543 1.258 . S
O536 Co511 1.941 . S
O536 C543 1.266 . S
H537 C539 0.959 . S
H538 C539 0.961 . S
C539 C529 1.510 . S
C539 H537 0.959 . S
C539 H538 0.961 . S
C539 H540 0.960 . S
H540 C539 0.960 . S
H541 N521 0.862 . S
O542 Co510 1.920 . S
O542 C515 1.289 . S
C543 O535 1.258 . S
C543 O536 1.266 . S
Co544 O547 1.970 . S
Co544 N561 1.989 . S
Co544 O569 1.967 . S
Co544 O576 1.920 . S
Co545 O548 1.966 . S
Co545 N554 2.022 . S
Co545 N562 1.993 . S
Co545 O570 1.941 . S
C546 O547 1.258 . S
C546 O548 1.263 . S
O547 Co544 1.970 . S
O547 C546 1.258 . S
O548 Co545 1.966 . S
O548 C546 1.263 . S
C549 O550 1.235 . S
C549 O576 1.289 . S
O550 C549 1.235 . S
C551 C553 1.400 . S
C551 N554 1.351 . S
C551 C556 1.501 . S
C552 C553 1.387 . S
C552 N555 1.341 . S
C553 C551 1.400 . S
C553 C552 1.387 . S
N554 Co545 2.022 . S
N554 C551 1.351 . S
N554 N555 1.365 . S
N555 C552 1.341 . S
N555 N554 1.365 . S
N555 H575 0.862 . S
C556 C551 1.501 . S
C556 H557 0.961 . S
C556 H558 0.961 . S
C556 H559 0.960 . S
H557 C556 0.961 . S
H558 C556 0.961 . S
H559 C556 0.960 . S
C560 N561 1.342 . S
C560 C564 1.401 . S
C560 C565 1.499 . S
N561 Co544 1.989 . S
N561 C560 1.342 . S
N561 N562 1.388 . S
N562 Co545 1.993 . S
N562 N561 1.388 . S
N562 C563 1.346 . S
C563 N562 1.346 . S
C563 C564 1.396 . S
C563 C573 1.510 . S
C564 C560 1.401 . S
C564 C563 1.396 . S
C565 C560 1.499 . S
C565 H566 0.959 . S
C565 H567 0.960 . S
C565 H568 0.961 . S
H566 C565 0.959 . S
H567 C565 0.960 . S
H568 C565 0.961 . S
O569 Co544 1.967 . S
O569 C577 1.258 . S
O570 Co545 1.941 . S
O570 C577 1.266 . S
H571 C573 0.959 . S
H572 C573 0.961 . S
C573 C563 1.510 . S
C573 H571 0.959 . S
C573 H572 0.961 . S
C573 H574 0.960 . S
H574 C573 0.960 . S
H575 N555 0.862 . S
O576 Co544 1.920 . S
O576 C549 1.289 . S
C577 O569 1.258 . S
C577 O570 1.266 . S
Co578 O581 1.970 . S
Co578 N595 1.989 . S
Co578 O603 1.967 . S
Co578 O610 1.920 . S
Co579 O582 1.966 . S
Co579 N588 2.022 . S
Co579 N596 1.993 . S
Co579 O604 1.941 . S
C580 O581 1.258 . S
C580 O582 1.263 . S
O581 Co578 1.970 . S
O581 C580 1.258 . S
O582 Co579 1.966 . S
O582 C580 1.263 . S
C583 O584 1.235 . S
C583 O610 1.289 . S
O584 C583 1.235 . S
C585 C587 1.400 . S
C585 N588 1.351 . S
C585 C590 1.501 . S
C586 C587 1.387 . S
C586 N589 1.341 . S
C587 C585 1.400 . S
C587 C586 1.387 . S
N588 Co579 2.022 . S
N588 C585 1.351 . S
N588 N589 1.365 . S
N589 C586 1.341 . S
N589 N588 1.365 . S
N589 H609 0.862 . S
C590 C585 1.501 . S
C590 H591 0.961 . S
C590 H592 0.961 . S
C590 H593 0.960 . S
H591 C590 0.961 . S
H592 C590 0.961 . S
H593 C590 0.960 . S
C594 N595 1.342 . S
C594 C598 1.401 . S
C594 C599 1.499 . S
N595 Co578 1.989 . S
N595 C594 1.342 . S
N595 N596 1.388 . S
N596 Co579 1.993 . S
N596 N595 1.388 . S
N596 C597 1.346 . S
C597 N596 1.346 . S
C597 C598 1.396 . S
C597 C607 1.510 . S
C598 C594 1.401 . S
C598 C597 1.396 . S
C599 C594 1.499 . S
C599 H600 0.959 . S
C599 H601 0.960 . S
C599 H602 0.961 . S
H600 C599 0.959 . S
H601 C599 0.960 . S
H602 C599 0.961 . S
O603 Co578 1.967 . S
O603 C611 1.258 . S
O604 Co579 1.941 . S
O604 C611 1.266 . S
H605 C607 0.959 . S
H606 C607 0.961 . S
C607 C597 1.510 . S
C607 H605 0.959 . S
C607 H606 0.961 . S
C607 H608 0.960 . S
H608 C607 0.960 . S
H609 N589 0.862 . S
O610 Co578 1.920 . S
O610 C583 1.289 . S
C611 O603 1.258 . S
C611 O604 1.266 . S
Co612 O615 1.970 . S
Co612 N629 1.989 . S
Co612 O637 1.967 . S
Co612 O644 1.920 . S
Co613 O616 1.966 . S
Co613 N622 2.022 . S
Co613 N630 1.993 . S
Co613 O638 1.941 . S
C614 O615 1.258 . S
C614 O616 1.263 . S
O615 Co612 1.970 . S
O615 C614 1.258 . S
O616 Co613 1.966 . S
O616 C614 1.263 . S
C617 O618 1.235 . S
C617 O644 1.289 . S
O618 C617 1.235 . S
C619 C621 1.400 . S
C619 N622 1.351 . S
C619 C624 1.501 . S
C620 C621 1.387 . S
C620 N623 1.341 . S
C621 C619 1.400 . S
C621 C620 1.387 . S
N622 Co613 2.022 . S
N622 C619 1.351 . S
N622 N623 1.365 . S
N623 C620 1.341 . S
N623 N622 1.365 . S
N623 H643 0.862 . S
C624 C619 1.501 . S
C624 H625 0.961 . S
C624 H626 0.961 . S
C624 H627 0.960 . S
H625 C624 0.961 . S
H626 C624 0.961 . S
H627 C624 0.960 . S
C628 N629 1.342 . S
C628 C632 1.401 . S
C628 C633 1.499 . S
N629 Co612 1.989 . S
N629 C628 1.342 . S
N629 N630 1.388 . S
N630 Co613 1.993 . S
N630 N629 1.388 . S
N630 C631 1.346 . S
C631 N630 1.346 . S
C631 C632 1.396 . S
C631 C641 1.510 . S
C632 C628 1.401 . S
C632 C631 1.396 . S
C633 C628 1.499 . S
C633 H634 0.959 . S
C633 H635 0.960 . S
C633 H636 0.961 . S
H634 C633 0.959 . S
H635 C633 0.960 . S
H636 C633 0.961 . S
O637 Co612 1.967 . S
O637 C645 1.258 . S
O638 Co613 1.941 . S
O638 C645 1.266 . S
H639 C641 0.959 . S
H640 C641 0.961 . S
C641 C631 1.510 . S
C641 H639 0.959 . S
C641 H640 0.961 . S
C641 H642 0.960 . S
H642 C641 0.960 . S
H643 N623 0.862 . S
O644 Co612 1.920 . S
O644 C617 1.289 . S
C645 O637 1.258 . S
C645 O638 1.266 . S
Co646 O649 1.970 . S
Co646 N663 1.989 . S
Co646 O671 1.967 . S
Co646 O678 1.920 . S
Co647 O650 1.966 . S
Co647 N656 2.022 . S
Co647 N664 1.993 . S
Co647 O672 1.941 . S
C648 O649 1.258 . S
C648 O650 1.263 . S
O649 Co646 1.970 . S
O649 C648 1.258 . S
O650 Co647 1.966 . S
O650 C648 1.263 . S
C651 O652 1.235 . S
C651 O678 1.289 . S
O652 C651 1.235 . S
C653 C655 1.400 . S
C653 N656 1.351 . S
C653 C658 1.501 . S
C654 C655 1.387 . S
C654 N657 1.341 . S
C655 C653 1.400 . S
C655 C654 1.387 . S
N656 Co647 2.022 . S
N656 C653 1.351 . S
N656 N657 1.365 . S
N657 C654 1.341 . S
N657 N656 1.365 . S
N657 H677 0.862 . S
C658 C653 1.501 . S
C658 H659 0.961 . S
C658 H660 0.961 . S
C658 H661 0.960 . S
H659 C658 0.961 . S
H660 C658 0.961 . S
H661 C658 0.960 . S
C662 N663 1.342 . S
C662 C666 1.401 . S
C662 C667 1.499 . S
N663 Co646 1.989 . S
N663 C662 1.342 . S
N663 N664 1.388 . S
N664 Co647 1.993 . S
N664 N663 1.388 . S
N664 C665 1.346 . S
C665 N664 1.346 . S
C665 C666 1.396 . S
C665 C675 1.510 . S
C666 C662 1.401 . S
C666 C665 1.396 . S
C667 C662 1.499 . S
C667 H668 0.959 . S
C667 H669 0.960 . S
C667 H670 0.961 . S
H668 C667 0.959 . S
H669 C667 0.960 . S
H670 C667 0.961 . S
O671 Co646 1.967 . S
O671 C679 1.258 . S
O672 Co647 1.941 . S
O672 C679 1.266 . S
H673 C675 0.959 . S
H674 C675 0.961 . S
C675 C665 1.510 . S
C675 H673 0.959 . S
C675 H674 0.961 . S
C675 H676 0.960 . S
H676 C675 0.960 . S
H677 N657 0.862 . S
O678 Co646 1.920 . S
O678 C651 1.289 . S
C679 O671 1.258 . S
C679 O672 1.266 . S
Co680 O683 1.970 . S
Co680 N697 1.989 . S
Co680 O705 1.967 . S
Co680 O712 1.920 . S
Co681 O684 1.966 . S
Co681 N690 2.022 . S
Co681 N698 1.993 . S
Co681 O706 1.941 . S
C682 O683 1.258 . S
C682 O684 1.263 . S
O683 Co680 1.970 . S
O683 C682 1.258 . S
O684 Co681 1.966 . S
O684 C682 1.263 . S
C685 O686 1.235 . S
C685 O712 1.289 . S
O686 C685 1.235 . S
C687 C689 1.400 . S
C687 N690 1.351 . S
C687 C692 1.501 . S
C688 C689 1.387 . S
C688 N691 1.341 . S
C689 C687 1.400 . S
C689 C688 1.387 . S
N690 Co681 2.022 . S
N690 C687 1.351 . S
N690 N691 1.365 . S
N691 C688 1.341 . S
N691 N690 1.365 . S
N691 H711 0.862 . S
C692 C687 1.501 . S
C692 H693 0.961 . S
C692 H694 0.961 . S
C692 H695 0.960 . S
H693 C692 0.961 . S
H694 C692 0.961 . S
H695 C692 0.960 . S
C696 N697 1.342 . S
C696 C700 1.401 . S
C696 C701 1.499 . S
N697 Co680 1.989 . S
N697 C696 1.342 . S
N697 N698 1.388 . S
N698 Co681 1.993 . S
N698 N697 1.388 . S
N698 C699 1.346 . S
C699 N698 1.346 . S
C699 C700 1.396 . S
C699 C709 1.510 . S
C700 C696 1.401 . S
C700 C699 1.396 . S
C701 C696 1.499 . S
C701 H702 0.959 . S
C701 H703 0.960 . S
C701 H704 0.961 . S
H702 C701 0.959 . S
H703 C701 0.960 . S
H704 C701 0.961 . S
O705 Co680 1.967 . S
O705 C713 1.258 . S
O706 Co681 1.941 . S
O706 C713 1.266 . S
H707 C709 0.959 . S
H708 C709 0.961 . S
C709 C699 1.510 . S
C709 H707 0.959 . S
C709 H708 0.961 . S
C709 H710 0.960 . S
H710 C709 0.960 . S
H711 N691 0.862 . S
O712 Co680 1.920 . S
O712 C685 1.289 . S
C713 O705 1.258 . S
C713 O706 1.266 . S
Co714 O717 1.970 . S
Co714 N731 1.989 . S
Co714 O739 1.967 . S
Co714 O746 1.920 . S
Co715 O718 1.966 . S
Co715 N724 2.022 . S
Co715 N732 1.993 . S
Co715 O740 1.941 . S
C716 O717 1.258 . S
C716 O718 1.263 . S
O717 Co714 1.970 . S
O717 C716 1.258 . S
O718 Co715 1.966 . S
O718 C716 1.263 . S
C719 O720 1.235 . S
C719 O746 1.289 . S
O720 C719 1.235 . S
C721 C723 1.400 . S
C721 N724 1.351 . S
C721 C726 1.501 . S
C722 C723 1.387 . S
C722 N725 1.341 . S
C723 C721 1.400 . S
C723 C722 1.387 . S
N724 Co715 2.022 . S
N724 C721 1.351 . S
N724 N725 1.365 . S
N725 C722 1.341 . S
N725 N724 1.365 . S
N725 H745 0.862 . S
C726 C721 1.501 . S
C726 H727 0.961 . S
C726 H728 0.961 . S
C726 H729 0.960 . S
H727 C726 0.961 . S
H728 C726 0.961 . S
H729 C726 0.960 . S
C730 N731 1.342 . S
C730 C734 1.401 . S
C730 C735 1.499 . S
N731 Co714 1.989 . S
N731 C730 1.342 . S
N731 N732 1.388 . S
N732 Co715 1.993 . S
N732 N731 1.388 . S
N732 C733 1.346 . S
C733 N732 1.346 . S
C733 C734 1.396 . S
C733 C743 1.510 . S
C734 C730 1.401 . S
C734 C733 1.396 . S
C735 C730 1.499 . S
C735 H736 0.959 . S
C735 H737 0.960 . S
C735 H738 0.961 . S
H736 C735 0.959 . S
H737 C735 0.960 . S
H738 C735 0.961 . S
O739 Co714 1.967 . S
O739 C747 1.258 . S
O740 Co715 1.941 . S
O740 C747 1.266 . S
H741 C743 0.959 . S
H742 C743 0.961 . S
C743 C733 1.510 . S
C743 H741 0.959 . S
C743 H742 0.961 . S
C743 H744 0.960 . S
H744 C743 0.960 . S
H745 N725 0.862 . S
O746 Co714 1.920 . S
O746 C719 1.289 . S
C747 O739 1.258 . S
C747 O740 1.266 . S
Co748 O751 1.970 . S
Co748 N765 1.989 . S
Co748 O773 1.967 . S
Co748 O780 1.920 . S
Co749 O752 1.966 . S
Co749 N758 2.022 . S
Co749 N766 1.993 . S
Co749 O774 1.941 . S
C750 O751 1.258 . S
C750 O752 1.263 . S
O751 Co748 1.970 . S
O751 C750 1.258 . S
O752 Co749 1.966 . S
O752 C750 1.263 . S
C753 O754 1.235 . S
C753 O780 1.289 . S
O754 C753 1.235 . S
C755 C757 1.400 . S
C755 N758 1.351 . S
C755 C760 1.501 . S
C756 C757 1.387 . S
C756 N759 1.341 . S
C757 C755 1.400 . S
C757 C756 1.387 . S
N758 Co749 2.022 . S
N758 C755 1.351 . S
N758 N759 1.365 . S
N759 C756 1.341 . S
N759 N758 1.365 . S
N759 H779 0.862 . S
C760 C755 1.501 . S
C760 H761 0.961 . S
C760 H762 0.961 . S
C760 H763 0.960 . S
H761 C760 0.961 . S
H762 C760 0.961 . S
H763 C760 0.960 . S
C764 N765 1.342 . S
C764 C768 1.401 . S
C764 C769 1.499 . S
N765 Co748 1.989 . S
N765 C764 1.342 . S
N765 N766 1.388 . S
N766 Co749 1.993 . S
N766 N765 1.388 . S
N766 C767 1.346 . S
C767 N766 1.346 . S
C767 C768 1.396 . S
C767 C777 1.510 . S
C768 C764 1.401 . S
C768 C767 1.396 . S
C769 C764 1.499 . S
C769 H770 0.959 . S
C769 H771 0.960 . S
C769 H772 0.961 . S
H770 C769 0.959 . S
H771 C769 0.960 . S
H772 C769 0.961 . S
O773 Co748 1.967 . S
O773 C781 1.258 . S
O774 Co749 1.941 . S
O774 C781 1.266 . S
H775 C777 0.959 . S
H776 C777 0.961 . S
C777 C767 1.510 . S
C777 H775 0.959 . S
C777 H776 0.961 . S
C777 H778 0.960 . S
H778 C777 0.960 . S
H779 N759 0.862 . S
O780 Co748 1.920 . S
O780 C753 1.289 . S
C781 O773 1.258 . S
C781 O774 1.266 . S
Co782 O785 1.970 . S
Co782 N799 1.989 . S
Co782 O807 1.967 . S
Co782 O814 1.920 . S
Co783 O786 1.966 . S
Co783 N792 2.022 . S
Co783 N800 1.993 . S
Co783 O808 1.941 . S
C784 O785 1.258 . S
C784 O786 1.263 . S
O785 Co782 1.970 . S
O785 C784 1.258 . S
O786 Co783 1.966 . S
O786 C784 1.263 . S
C787 O788 1.235 . S
C787 O814 1.289 . S
O788 C787 1.235 . S
C789 C791 1.400 . S
C789 N792 1.351 . S
C789 C794 1.501 . S
C790 C791 1.387 . S
C790 N793 1.341 . S
C791 C789 1.400 . S
C791 C790 1.387 . S
N792 Co783 2.022 . S
N792 C789 1.351 . S
N792 N793 1.365 . S
N793 C790 1.341 . S
N793 N792 1.365 . S
N793 H813 0.862 . S
C794 C789 1.501 . S
C794 H795 0.961 . S
C794 H796 0.961 . S
C794 H797 0.960 . S
H795 C794 0.961 . S
H796 C794 0.961 . S
H797 C794 0.960 . S
C798 N799 1.342 . S
C798 C802 1.401 . S
C798 C803 1.499 . S
N799 Co782 1.989 . S
N799 C798 1.342 . S
N799 N800 1.388 . S
N800 Co783 1.993 . S
N800 N799 1.388 . S
N800 C801 1.346 . S
C801 N800 1.346 . S
C801 C802 1.396 . S
C801 C811 1.510 . S
C802 C798 1.401 . S
C802 C801 1.396 . S
C803 C798 1.499 . S
C803 H804 0.959 . S
C803 H805 0.960 . S
C803 H806 0.961 . S
H804 C803 0.959 . S
H805 C803 0.960 . S
H806 C803 0.961 . S
O807 Co782 1.967 . S
O807 C815 1.258 . S
O808 Co783 1.941 . S
O808 C815 1.266 . S
H809 C811 0.959 . S
H810 C811 0.961 . S
C811 C801 1.510 . S
C811 H809 0.959 . S
C811 H810 0.961 . S
C811 H812 0.960 . S
H812 C811 0.960 . S
H813 N793 0.862 . S
O814 Co782 1.920 . S
O814 C787 1.289 . S
C815 O807 1.258 . S
C815 O808 1.266 . S
Co816 O819 1.970 . S
Co816 N833 1.989 . S
Co816 O841 1.967 . S
Co816 O848 1.920 . S
Co817 O820 1.966 . S
Co817 N826 2.022 . S
Co817 N834 1.993 . S
Co817 O842 1.941 . S
C818 O819 1.258 . S
C818 O820 1.263 . S
O819 Co816 1.970 . S
O819 C818 1.258 . S
O820 Co817 1.966 . S
O820 C818 1.263 . S
C821 O822 1.235 . S
C821 O848 1.289 . S
O822 C821 1.235 . S
C823 C825 1.400 . S
C823 N826 1.351 . S
C823 C828 1.501 . S
C824 C825 1.387 . S
C824 N827 1.341 . S
C825 C823 1.400 . S
C825 C824 1.387 . S
N826 Co817 2.022 . S
N826 C823 1.351 . S
N826 N827 1.365 . S
N827 C824 1.341 . S
N827 N826 1.365 . S
N827 H847 0.862 . S
C828 C823 1.501 . S
C828 H829 0.961 . S
C828 H830 0.961 . S
C828 H831 0.960 . S
H829 C828 0.961 . S
H830 C828 0.961 . S
H831 C828 0.960 . S
C832 N833 1.342 . S
C832 C836 1.401 . S
C832 C837 1.499 . S
N833 Co816 1.989 . S
N833 C832 1.342 . S
N833 N834 1.388 . S
N834 Co817 1.993 . S
N834 N833 1.388 . S
N834 C835 1.346 . S
C835 N834 1.346 . S
C835 C836 1.396 . S
C835 C845 1.510 . S
C836 C832 1.401 . S
C836 C835 1.396 . S
C837 C832 1.499 . S
C837 H838 0.959 . S
C837 H839 0.960 . S
C837 H840 0.961 . S
H838 C837 0.959 . S
H839 C837 0.960 . S
H840 C837 0.961 . S
O841 Co816 1.967 . S
O841 C849 1.258 . S
O842 Co817 1.941 . S
O842 C849 1.266 . S
H843 C845 0.959 . S
H844 C845 0.961 . S
C845 C835 1.510 . S
C845 H843 0.959 . S
C845 H844 0.961 . S
C845 H846 0.960 . S
H846 C845 0.960 . S
H847 N827 0.862 . S
O848 Co816 1.920 . S
O848 C821 1.289 . S
C849 O841 1.258 . S
C849 O842 1.266 . S
Co850 O853 1.970 . S
Co850 N867 1.989 . S
Co850 O875 1.967 . S
Co850 O882 1.920 . S
Co851 O854 1.966 . S
Co851 N860 2.022 . S
Co851 N868 1.993 . S
Co851 O876 1.941 . S
C852 O853 1.258 . S
C852 O854 1.263 . S
O853 Co850 1.970 . S
O853 C852 1.258 . S
O854 Co851 1.966 . S
O854 C852 1.263 . S
C855 O856 1.235 . S
C855 O882 1.289 . S
O856 C855 1.235 . S
C857 C859 1.400 . S
C857 N860 1.351 . S
C857 C862 1.501 . S
C858 C859 1.387 . S
C858 N861 1.341 . S
C859 C857 1.400 . S
C859 C858 1.387 . S
N860 Co851 2.022 . S
N860 C857 1.351 . S
N860 N861 1.365 . S
N861 C858 1.341 . S
N861 N860 1.365 . S
N861 H881 0.862 . S
C862 C857 1.501 . S
C862 H863 0.961 . S
C862 H864 0.961 . S
C862 H865 0.960 . S
H863 C862 0.961 . S
H864 C862 0.961 . S
H865 C862 0.960 . S
C866 N867 1.342 . S
C866 C870 1.401 . S
C866 C871 1.499 . S
N867 Co850 1.989 . S
N867 C866 1.342 . S
N867 N868 1.388 . S
N868 Co851 1.993 . S
N868 N867 1.388 . S
N868 C869 1.346 . S
C869 N868 1.346 . S
C869 C870 1.396 . S
C869 C879 1.510 . S
C870 C866 1.401 . S
C870 C869 1.396 . S
C871 C866 1.499 . S
C871 H872 0.959 . S
C871 H873 0.960 . S
C871 H874 0.961 . S
H872 C871 0.959 . S
H873 C871 0.960 . S
H874 C871 0.961 . S
O875 Co850 1.967 . S
O875 C883 1.258 . S
O876 Co851 1.941 . S
O876 C883 1.266 . S
H877 C879 0.959 . S
H878 C879 0.961 . S
C879 C869 1.510 . S
C879 H877 0.959 . S
C879 H878 0.961 . S
C879 H880 0.960 . S
H880 C879 0.960 . S
H881 N861 0.862 . S
O882 Co850 1.920 . S
O882 C855 1.289 . S
C883 O875 1.258 . S
C883 O876 1.266 . S
Co884 O887 1.970 . S
Co884 N901 1.989 . S
Co884 O909 1.967 . S
Co884 O916 1.920 . S
Co885 O888 1.966 . S
Co885 N894 2.022 . S
Co885 N902 1.993 . S
Co885 O910 1.941 . S
C886 O887 1.258 . S
C886 O888 1.263 . S
O887 Co884 1.970 . S
O887 C886 1.258 . S
O888 Co885 1.966 . S
O888 C886 1.263 . S
C889 O890 1.235 . S
C889 O916 1.289 . S
O890 C889 1.235 . S
C891 C893 1.400 . S
C891 N894 1.351 . S
C891 C896 1.501 . S
C892 C893 1.387 . S
C892 N895 1.341 . S
C893 C891 1.400 . S
C893 C892 1.387 . S
N894 Co885 2.022 . S
N894 C891 1.351 . S
N894 N895 1.365 . S
N895 C892 1.341 . S
N895 N894 1.365 . S
N895 H915 0.862 . S
C896 C891 1.501 . S
C896 H897 0.961 . S
C896 H898 0.961 . S
C896 H899 0.960 . S
H897 C896 0.961 . S
H898 C896 0.961 . S
H899 C896 0.960 . S
C900 N901 1.342 . S
C900 C904 1.401 . S
C900 C905 1.499 . S
N901 Co884 1.989 . S
N901 C900 1.342 . S
N901 N902 1.388 . S
N902 Co885 1.993 . S
N902 N901 1.388 . S
N902 C903 1.346 . S
C903 N902 1.346 . S
C903 C904 1.396 . S
C903 C913 1.510 . S
C904 C900 1.401 . S
C904 C903 1.396 . S
C905 C900 1.499 . S
C905 H906 0.959 . S
C905 H907 0.960 . S
C905 H908 0.961 . S
H906 C905 0.959 . S
H907 C905 0.960 . S
H908 C905 0.961 . S
O909 Co884 1.967 . S
O909 C917 1.258 . S
O910 Co885 1.941 . S
O910 C917 1.266 . S
H911 C913 0.959 . S
H912 C913 0.961 . S
C913 C903 1.510 . S
C913 H911 0.959 . S
C913 H912 0.961 . S
C913 H914 0.960 . S
H914 C913 0.960 . S
H915 N895 0.862 . S
O916 Co884 1.920 . S
O916 C889 1.289 . S
C917 O909 1.258 . S
C917 O910 1.266 . S
Co918 O921 1.970 . S
Co918 N935 1.989 . S
Co918 O943 1.967 . S
Co918 O950 1.920 . S
Co919 O922 1.966 . S
Co919 N928 2.022 . S
Co919 N936 1.993 . S
Co919 O944 1.941 . S
C920 O921 1.258 . S
C920 O922 1.263 . S
O921 Co918 1.970 . S
O921 C920 1.258 . S
O922 Co919 1.966 . S
O922 C920 1.263 . S
C923 O924 1.235 . S
C923 O950 1.289 . S
O924 C923 1.235 . S
C925 C927 1.400 . S
C925 N928 1.351 . S
C925 C930 1.501 . S
C926 C927 1.387 . S
C926 N929 1.341 . S
C927 C925 1.400 . S
C927 C926 1.387 . S
N928 Co919 2.022 . S
N928 C925 1.351 . S
N928 N929 1.365 . S
N929 C926 1.341 . S
N929 N928 1.365 . S
N929 H949 0.862 . S
C930 C925 1.501 . S
C930 H931 0.961 . S
C930 H932 0.961 . S
C930 H933 0.960 . S
H931 C930 0.961 . S
H932 C930 0.961 . S
H933 C930 0.960 . S
C934 N935 1.342 . S
C934 C938 1.401 . S
C934 C939 1.499 . S
N935 Co918 1.989 . S
N935 C934 1.342 . S
N935 N936 1.388 . S
N936 Co919 1.993 . S
N936 N935 1.388 . S
N936 C937 1.346 . S
C937 N936 1.346 . S
C937 C938 1.396 . S
C937 C947 1.510 . S
C938 C934 1.401 . S
C938 C937 1.396 . S
C939 C934 1.499 . S
C939 H940 0.959 . S
C939 H941 0.960 . S
C939 H942 0.961 . S
H940 C939 0.959 . S
H941 C939 0.960 . S
H942 C939 0.961 . S
O943 Co918 1.967 . S
O943 C951 1.258 . S
O944 Co919 1.941 . S
O944 C951 1.266 . S
H945 C947 0.959 . S
H946 C947 0.961 . S
C947 C937 1.510 . S
C947 H945 0.959 . S
C947 H946 0.961 . S
C947 H948 0.960 . S
H948 C947 0.960 . S
H949 N929 0.862 . S
O950 Co918 1.920 . S
O950 C923 1.289 . S
C951 O943 1.258 . S
C951 O944 1.266 . S
Co952 O955 1.970 . S
Co952 N969 1.989 . S
Co952 O977 1.967 . S
Co952 O984 1.920 . S
Co953 O956 1.966 . S
Co953 N962 2.022 . S
Co953 N970 1.993 . S
Co953 O978 1.941 . S
C954 O955 1.258 . S
C954 O956 1.263 . S
O955 Co952 1.970 . S
O955 C954 1.258 . S
O956 Co953 1.966 . S
O956 C954 1.263 . S
C957 O958 1.235 . S
C957 O984 1.289 . S
O958 C957 1.235 . S
C959 C961 1.400 . S
C959 N962 1.351 . S
C959 C964 1.501 . S
C960 C961 1.387 . S
C960 N963 1.341 . S
C961 C959 1.400 . S
C961 C960 1.387 . S
N962 Co953 2.022 . S
N962 C959 1.351 . S
N962 N963 1.365 . S
N963 C960 1.341 . S
N963 N962 1.365 . S
N963 H983 0.862 . S
C964 C959 1.501 . S
C964 H965 0.961 . S
C964 H966 0.961 . S
C964 H967 0.960 . S
H965 C964 0.961 . S
H966 C964 0.961 . S
H967 C964 0.960 . S
C968 N969 1.342 . S
C968 C972 1.401 . S
C968 C973 1.499 . S
N969 Co952 1.989 . S
N969 C968 1.342 . S
N969 N970 1.388 . S
N970 Co953 1.993 . S
N970 N969 1.388 . S
N970 C971 1.346 . S
C971 N970 1.346 . S
C971 C972 1.396 . S
C971 C981 1.510 . S
C972 C968 1.401 . S
C972 C971 1.396 . S
C973 C968 1.499 . S
C973 H974 0.959 . S
C973 H975 0.960 . S
C973 H976 0.961 . S
H974 C973 0.959 . S
H975 C973 0.960 . S
H976 C973 0.961 . S
O977 Co952 1.967 . S
O977 C985 1.258 . S
O978 Co953 1.941 . S
O978 C985 1.266 . S
H979 C981 0.959 . S
H980 C981 0.961 . S
C981 C971 1.510 . S
C981 H979 0.959 . S
C981 H980 0.961 . S
C981 H982 0.960 . S
H982 C981 0.960 . S
H983 N963 0.862 . S
O984 Co952 1.920 . S
O984 C957 1.289 . S
C985 O977 1.258 . S
C985 O978 1.266 . S
Co986 O989 1.970 . S
Co986 N1003 1.989 . S
Co986 O1011 1.967 . S
Co986 O1018 1.920 . S
Co987 O990 1.966 . S
Co987 N996 2.022 . S
Co987 N1004 1.993 . S
Co987 O1012 1.941 . S
C988 O989 1.258 . S
C988 O990 1.263 . S
O989 Co986 1.970 . S
O989 C988 1.258 . S
O990 Co987 1.966 . S
O990 C988 1.263 . S
C991 O992 1.235 . S
C991 O1018 1.289 . S
O992 C991 1.235 . S
C993 C995 1.400 . S
C993 N996 1.351 . S
C993 C998 1.501 . S
C994 C995 1.387 . S
C994 N997 1.341 . S
C995 C993 1.400 . S
C995 C994 1.387 . S
N996 Co987 2.022 . S
N996 C993 1.351 . S
N996 N997 1.365 . S
N997 C994 1.341 . S
N997 N996 1.365 . S
N997 H1017 0.862 . S
C998 C993 1.501 . S
C998 H999 0.961 . S
C998 H1000 0.961 . S
C998 H1001 0.960 . S
H999 C998 0.961 . S
H1000 C998 0.961 . S
H1001 C998 0.960 . S
C1002 N1003 1.342 . S
C1002 C1006 1.401 . S
C1002 C1007 1.499 . S
N1003 Co986 1.989 . S
N1003 C1002 1.342 . S
N1003 N1004 1.388 . S
N1004 Co987 1.993 . S
N1004 N1003 1.388 . S
N1004 C1005 1.346 . S
C1005 N1004 1.346 . S
C1005 C1006 1.396 . S
C1005 C1015 1.510 . S
C1006 C1002 1.401 . S
C1006 C1005 1.396 . S
C1007 C1002 1.499 . S
C1007 H1008 0.959 . S
C1007 H1009 0.960 . S
C1007 H1010 0.961 . S
H1008 C1007 0.959 . S
H1009 C1007 0.960 . S
H1010 C1007 0.961 . S
O1011 Co986 1.967 . S
O1011 C1019 1.258 . S
O1012 Co987 1.941 . S
O1012 C1019 1.266 . S
H1013 C1015 0.959 . S
H1014 C1015 0.961 . S
C1015 C1005 1.510 . S
C1015 H1013 0.959 . S
C1015 H1014 0.961 . S
C1015 H1016 0.960 . S
H1016 C1015 0.960 . S
H1017 N997 0.862 . S
O1018 Co986 1.920 . S
O1018 C991 1.289 . S
C1019 O1011 1.258 . S
C1019 O1012 1.266 . S
Co1020 O1023 1.970 . S
Co1020 N1037 1.989 . S
Co1020 O1045 1.967 . S
Co1020 O1052 1.920 . S
Co1021 O1024 1.966 . S
Co1021 N1030 2.022 . S
Co1021 N1038 1.993 . S
Co1021 O1046 1.941 . S
C1022 O1023 1.258 . S
C1022 O1024 1.263 . S
O1023 Co1020 1.970 . S
O1023 C1022 1.258 . S
O1024 Co1021 1.966 . S
O1024 C1022 1.263 . S
C1025 O1026 1.235 . S
C1025 O1052 1.289 . S
O1026 C1025 1.235 . S
C1027 C1029 1.400 . S
C1027 N1030 1.351 . S
C1027 C1032 1.501 . S
C1028 C1029 1.387 . S
C1028 N1031 1.341 . S
C1029 C1027 1.400 . S
C1029 C1028 1.387 . S
N1030 Co1021 2.022 . S
N1030 C1027 1.351 . S
N1030 N1031 1.365 . S
N1031 C1028 1.341 . S
N1031 N1030 1.365 . S
N1031 H1051 0.862 . S
C1032 C1027 1.501 . S
C1032 H1033 0.961 . S
C1032 H1034 0.961 . S
C1032 H1035 0.960 . S
H1033 C1032 0.961 . S
H1034 C1032 0.961 . S
H1035 C1032 0.960 . S
C1036 N1037 1.342 . S
C1036 C1040 1.401 . S
C1036 C1041 1.499 . S
N1037 Co1020 1.989 . S
N1037 C1036 1.342 . S
N1037 N1038 1.388 . S
N1038 Co1021 1.993 . S
N1038 N1037 1.388 . S
N1038 C1039 1.346 . S
C1039 N1038 1.346 . S
C1039 C1040 1.396 . S
C1039 C1049 1.510 . S
C1040 C1036 1.401 . S
C1040 C1039 1.396 . S
C1041 C1036 1.499 . S
C1041 H1042 0.959 . S
C1041 H1043 0.960 . S
C1041 H1044 0.961 . S
H1042 C1041 0.959 . S
H1043 C1041 0.960 . S
H1044 C1041 0.961 . S
O1045 Co1020 1.967 . S
O1045 C1053 1.258 . S
O1046 Co1021 1.941 . S
O1046 C1053 1.266 . S
H1047 C1049 0.959 . S
H1048 C1049 0.961 . S
C1049 C1039 1.510 . S
C1049 H1047 0.959 . S
C1049 H1048 0.961 . S
C1049 H1050 0.960 . S
H1050 C1049 0.960 . S
H1051 N1031 0.862 . S
O1052 Co1020 1.920 . S
O1052 C1025 1.289 . S
C1053 O1045 1.258 . S
C1053 O1046 1.266 . S
Co1054 O1057 1.970 . S
Co1054 N1071 1.989 . S
Co1054 O1079 1.967 . S
Co1054 O1086 1.920 . S
Co1055 O1058 1.966 . S
Co1055 N1064 2.022 . S
Co1055 N1072 1.993 . S
Co1055 O1080 1.941 . S
C1056 O1057 1.258 . S
C1056 O1058 1.263 . S
O1057 Co1054 1.970 . S
O1057 C1056 1.258 . S
O1058 Co1055 1.966 . S
O1058 C1056 1.263 . S
C1059 O1060 1.235 . S
C1059 O1086 1.289 . S
O1060 C1059 1.235 . S
C1061 C1063 1.400 . S
C1061 N1064 1.351 . S
C1061 C1066 1.501 . S
C1062 C1063 1.387 . S
C1062 N1065 1.341 . S
C1063 C1061 1.400 . S
C1063 C1062 1.387 . S
N1064 Co1055 2.022 . S
N1064 C1061 1.351 . S
N1064 N1065 1.365 . S
N1065 C1062 1.341 . S
N1065 N1064 1.365 . S
N1065 H1085 0.862 . S
C1066 C1061 1.501 . S
C1066 H1067 0.961 . S
C1066 H1068 0.961 . S
C1066 H1069 0.960 . S
H1067 C1066 0.961 . S
H1068 C1066 0.961 . S
H1069 C1066 0.960 . S
C1070 N1071 1.342 . S
C1070 C1074 1.401 . S
C1070 C1075 1.499 . S
N1071 Co1054 1.989 . S
N1071 C1070 1.342 . S
N1071 N1072 1.388 . S
N1072 Co1055 1.993 . S
N1072 N1071 1.388 . S
N1072 C1073 1.346 . S
C1073 N1072 1.346 . S
C1073 C1074 1.396 . S
C1073 C1083 1.510 . S
C1074 C1070 1.401 . S
C1074 C1073 1.396 . S
C1075 C1070 1.499 . S
C1075 H1076 0.959 . S
C1075 H1077 0.960 . S
C1075 H1078 0.961 . S
H1076 C1075 0.959 . S
H1077 C1075 0.960 . S
H1078 C1075 0.961 . S
O1079 Co1054 1.967 . S
O1079 C1087 1.258 . S
O1080 Co1055 1.941 . S
O1080 C1087 1.266 . S
H1081 C1083 0.959 . S
H1082 C1083 0.961 . S
C1083 C1073 1.510 . S
C1083 H1081 0.959 . S
C1083 H1082 0.961 . S
C1083 H1084 0.960 . S
H1084 C1083 0.960 . S
H1085 N1065 0.862 . S
O1086 Co1054 1.920 . S
O1086 C1059 1.289 . S
C1087 O1079 1.258 . S
C1087 O1080 1.266 . S
H1088 C1096 0.950 . S
H1089 C1101 0.950 . S
H1090 C1098 0.950 . S
H1091 C1100 0.950 . S
H1092 C1102 0.950 . S
H1093 C1104 0.950 . S
H1094 C1106 0.950 . S
H1095 C1107 0.950 . S
C1096 H1088 0.950 . S
C1096 C1097 1.386 . S
C1096 C1098 1.391 . S
C1097 C1096 1.386 . S
C1097 C1101 1.393 . S
C1098 H1090 0.950 . S
C1098 C1096 1.391 . S
C1098 C1099 1.400 . S
C1099 C1098 1.400 . S
C1099 C1100 1.398 . S
C1099 C1105 1.491 . S
C1100 H1091 0.950 . S
C1100 C1099 1.398 . S
C1100 C1101 1.391 . S
C1101 H1089 0.950 . S
C1101 C1097 1.393 . S
C1101 C1100 1.391 . S
C1102 H1092 0.950 . S
C1102 C1103 1.386 . S
C1102 C1104 1.391 . S
C1103 C1102 1.386 . S
C1103 C1107 1.393 . S
C1104 H1093 0.950 . S
C1104 C1102 1.391 . S
C1104 C1105 1.400 . S
C1105 C1099 1.491 . S
C1105 C1104 1.400 . S
C1105 C1106 1.398 . S
C1106 H1094 0.950 . S
C1106 C1105 1.398 . S
C1106 C1107 1.391 . S
C1107 H1095 0.950 . S
C1107 C1103 1.393 . S
C1107 C1106 1.391 . S
H1108 C1116 0.950 1_565 S
H1109 C1121 0.950 . S
H1110 C1118 0.950 . S
H1111 C1120 0.950 . S
H1112 C1122 0.950 . S
H1113 C1124 0.950 . S
H1114 C1126 0.950 . S
H1115 C1127 0.950 . S
C1116 H1108 0.950 1_545 S
C1116 C1117 1.386 . S
C1116 C1118 1.391 1_545 S
C1117 C1116 1.386 . S
C1117 C1121 1.393 . S
C1118 H1110 0.950 . S
C1118 C1116 1.391 1_565 S
C1118 C1119 1.400 1_565 S
C1119 C1118 1.400 1_545 S
C1119 C1120 1.398 . S
C1119 C1125 1.487 1_545 S
C1120 H1111 0.950 . S
C1120 C1119 1.398 . S
C1120 C1121 1.391 . S
C1121 H1109 0.950 . S
C1121 C1117 1.393 . S
C1121 C1120 1.391 . S
C1122 H1112 0.950 . S
C1122 C1123 1.386 1_545 S
C1122 C1124 1.391 . S
C1123 C1122 1.386 1_565 S
C1123 C1127 1.393 . S
C1124 H1113 0.950 . S
C1124 C1122 1.391 . S
C1124 C1125 1.393 1_545 S
C1125 C1119 1.487 1_565 S
C1125 C1124 1.393 1_565 S
C1125 C1126 1.410 . S
C1126 H1114 0.950 . S
C1126 C1125 1.410 . S
C1126 C1127 1.391 . S
C1127 H1115 0.950 . S
C1127 C1123 1.393 . S
C1127 C1126 1.391 . S
H1128 C1136 0.950 . S
H1129 C1141 0.950 . S
H1130 C1138 0.950 . S
H1131 C1140 0.950 . S
H1132 C1142 0.950 . S
H1133 C1144 0.950 . S
H1134 C1146 0.950 . S
H1135 C1147 0.950 . S
C1136 H1128 0.950 . S
C1136 C1137 1.386 . S
C1136 C1138 1.391 . S
C1137 C1136 1.386 . S
C1137 C1141 1.393 . S
C1138 H1130 0.950 . S
C1138 C1136 1.391 . S
C1138 C1139 1.400 . S
C1139 C1138 1.400 . S
C1139 C1140 1.398 . S
C1139 C1145 1.491 . S
C1140 H1131 0.950 . S
C1140 C1139 1.398 . S
C1140 C1141 1.391 . S
C1141 H1129 0.950 . S
C1141 C1137 1.393 . S
C1141 C1140 1.391 . S
C1142 H1132 0.950 . S
C1142 C1143 1.386 . S
C1142 C1144 1.391 . S
C1143 C1142 1.386 . S
C1143 C1147 1.393 . S
C1144 H1133 0.950 . S
C1144 C1142 1.391 . S
C1144 C1145 1.400 . S
C1145 C1139 1.491 . S
C1145 C1144 1.400 . S
C1145 C1146 1.398 . S
C1146 H1134 0.950 . S
C1146 C1145 1.398 . S
C1146 C1147 1.391 . S
C1147 H1135 0.950 . S
C1147 C1143 1.393 . S
C1147 C1146 1.391 . S
H1148 C1156 0.950 . S
H1149 C1161 0.965 . S
H1150 C1158 0.950 . S
H1151 C1160 0.950 . S
H1152 C1162 0.950 . S
H1153 C1164 0.950 . S
H1154 C1166 0.950 1_455 S
H1155 C1167 0.950 . S
C1156 H1148 0.950 . S
C1156 C1157 1.386 . S
C1156 C1158 1.391 . S
C1157 C1156 1.386 . S
C1157 C1161 1.371 1_565 S
C1158 H1150 0.950 . S
C1158 C1156 1.391 . S
C1158 C1159 1.400 . S
C1159 C1158 1.400 . S
C1159 C1160 1.398 1_565 S
C1159 C1165 1.490 . S
C1160 H1151 0.950 . S
C1160 C1159 1.398 1_545 S
C1160 C1161 1.398 . S
C1161 H1149 0.965 . S
C1161 C1157 1.371 1_545 S
C1161 C1160 1.398 . S
C1162 H1152 0.950 . S
C1162 C1163 1.386 . S
C1162 C1164 1.391 1_655 S
C1163 C1162 1.386 . S
C1163 C1167 1.393 1_545 S
C1164 H1153 0.950 . S
C1164 C1162 1.391 1_455 S
C1164 C1165 1.403 1_545 S
C1165 C1159 1.490 . S
C1165 C1164 1.403 1_565 S
C1165 C1166 1.396 1_455 S
C1166 H1154 0.950 1_655 S
C1166 C1165 1.396 1_655 S
C1166 C1167 1.391 . S
C1167 H1155 0.950 . S
C1167 C1163 1.393 1_565 S
C1167 C1166 1.391 . S
H1168 C1176 0.950 . S
H1169 C1181 0.950 . S
H1170 C1178 0.950 . S
H1171 C1180 0.950 . S
H1172 C1182 0.950 . S
H1173 C1184 0.950 . S
H1174 C1186 0.950 . S
H1175 C1187 0.950 . S
C1176 H1168 0.950 . S
C1176 C1177 1.386 . S
C1176 C1178 1.391 . S
C1177 C1176 1.386 . S
C1177 C1181 1.393 . S
C1178 H1170 0.950 . S
C1178 C1176 1.391 . S
C1178 C1179 1.400 . S
C1179 C1178 1.400 . S
C1179 C1180 1.398 . S
C1179 C1185 1.491 . S
C1180 H1171 0.950 . S
C1180 C1179 1.398 . S
C1180 C1181 1.391 . S
C1181 H1169 0.950 . S
C1181 C1177 1.393 . S
C1181 C1180 1.391 . S
C1182 H1172 0.950 . S
C1182 C1183 1.386 . S
C1182 C1184 1.391 . S
C1183 C1182 1.386 . S
C1183 C1187 1.393 . S
C1184 H1173 0.950 . S
C1184 C1182 1.391 . S
C1184 C1185 1.400 . S
C1185 C1179 1.491 . S
C1185 C1184 1.400 . S
C1185 C1186 1.398 . S
C1186 H1174 0.950 . S
C1186 C1185 1.398 . S
C1186 C1187 1.391 . S
C1187 H1175 0.950 . S
C1187 C1183 1.393 . S
C1187 C1186 1.391 . S
H1188 C1196 0.950 1_565 S
H1189 C1201 0.950 . S
H1190 C1198 0.950 . S
H1191 C1200 0.950 . S
H1192 C1202 0.950 . S
H1193 C1204 0.950 1_455 S
H1194 C1206 0.950 . S
H1195 C1207 0.950 . S
C1196 H1188 0.950 1_545 S
C1196 C1197 1.386 . S
C1196 C1198 1.391 1_545 S
C1197 C1196 1.386 . S
C1197 C1201 1.393 . S
C1198 H1190 0.950 . S
C1198 C1196 1.391 1_565 S
C1198 C1199 1.400 1_565 S
C1199 C1198 1.400 1_545 S
C1199 C1200 1.398 . S
C1199 C1205 1.487 1_545 S
C1200 H1191 0.950 . S
C1200 C1199 1.398 . S
C1200 C1201 1.391 . S
C1201 H1189 0.950 . S
C1201 C1197 1.393 . S
C1201 C1200 1.391 . S
C1202 H1192 0.950 . S
C1202 C1203 1.386 1_545 S
C1202 C1204 1.391 . S
C1203 C1202 1.386 1_565 S
C1203 C1207 1.393 . S
C1204 H1193 0.950 1_655 S
C1204 C1202 1.391 . S
C1204 C1205 1.394 1_645 S
C1205 C1199 1.487 1_565 S
C1205 C1204 1.394 1_465 S
C1205 C1206 1.407 . S
C1206 H1194 0.950 . S
C1206 C1205 1.407 . S
C1206 C1207 1.391 1_455 S
C1207 H1195 0.950 . S
C1207 C1203 1.393 . S
C1207 C1206 1.391 1_655 S
H1208 C1216 0.950 . S
H1209 C1221 0.950 . S
H1210 C1218 0.950 . S
H1211 C1220 0.950 . S
H1212 C1222 0.950 . S
H1213 C1224 0.950 . S
H1214 C1226 0.950 . S
H1215 C1227 0.950 . S
C1216 H1208 0.950 . S
C1216 C1217 1.386 . S
C1216 C1218 1.391 . S
C1217 C1216 1.386 . S
C1217 C1221 1.393 . S
C1218 H1210 0.950 . S
C1218 C1216 1.391 . S
C1218 C1219 1.400 . S
C1219 C1218 1.400 . S
C1219 C1220 1.398 . S
C1219 C1225 1.491 . S
C1220 H1211 0.950 . S
C1220 C1219 1.398 . S
C1220 C1221 1.391 . S
C1221 H1209 0.950 . S
C1221 C1217 1.393 . S
C1221 C1220 1.391 . S
C1222 H1212 0.950 . S
C1222 C1223 1.386 . S
C1222 C1224 1.391 . S
C1223 C1222 1.386 . S
C1223 C1227 1.393 . S
C1224 H1213 0.950 . S
C1224 C1222 1.391 . S
C1224 C1225 1.400 . S
C1225 C1219 1.491 . S
C1225 C1224 1.400 . S
C1225 C1226 1.398 . S
C1226 H1214 0.950 . S
C1226 C1225 1.398 . S
C1226 C1227 1.391 . S
C1227 H1215 0.950 . S
C1227 C1223 1.393 . S
C1227 C1226 1.391 . S
H1228 C1236 0.950 . S
H1229 C1241 0.950 . S
H1230 C1238 0.950 . S
H1231 C1240 0.950 . S
H1232 C1242 0.950 1_545 S
H1233 C1244 0.950 . S
H1234 C1246 0.950 . S
H1235 C1247 0.950 . S
C1236 H1228 0.950 . S
C1236 C1237 1.386 1_565 S
C1236 C1238 1.391 . S
C1237 C1236 1.386 1_545 S
C1237 C1241 1.393 . S
C1238 H1230 0.950 . S
C1238 C1236 1.391 . S
C1238 C1239 1.403 . S
C1239 C1238 1.403 . S
C1239 C1240 1.393 1_565 S
C1239 C1245 1.493 . S
C1240 H1231 0.950 . S
C1240 C1239 1.393 1_545 S
C1240 C1241 1.391 . S
C1241 H1229 0.950 . S
C1241 C1237 1.393 . S
C1241 C1240 1.391 . S
C1242 H1232 0.950 1_565 S
C1242 C1243 1.386 . S
C1242 C1244 1.391 1_565 S
C1243 C1242 1.386 . S
C1243 C1247 1.393 . S
C1244 H1233 0.950 . S
C1244 C1242 1.391 1_545 S
C1244 C1245 1.400 1_545 S
C1245 C1239 1.493 . S
C1245 C1244 1.400 1_565 S
C1245 C1246 1.398 . S
C1246 H1234 0.950 . S
C1246 C1245 1.398 . S
C1246 C1247 1.391 . S
C1247 H1235 0.950 . S
C1247 C1243 1.393 . S
C1247 C1246 1.391 . S
H1248 C1256 0.950 . S
H1249 C1261 0.950 . S
H1250 C1258 0.950 . S
H1251 C1260 0.950 . S
H1252 C1262 0.950 . S
H1253 C1264 0.950 . S
H1254 C1266 0.950 . S
H1255 C1267 0.950 . S
C1256 H1248 0.950 . S
C1256 C1257 1.386 . S
C1256 C1258 1.391 . S
C1257 C1256 1.386 . S
C1257 C1261 1.393 . S
C1258 H1250 0.950 . S
C1258 C1256 1.391 . S
C1258 C1259 1.400 . S
C1259 C1258 1.400 . S
C1259 C1260 1.398 . S
C1259 C1265 1.491 . S
C1260 H1251 0.950 . S
C1260 C1259 1.398 . S
C1260 C1261 1.391 . S
C1261 H1249 0.950 . S
C1261 C1257 1.393 . S
C1261 C1260 1.391 . S
C1262 H1252 0.950 . S
C1262 C1263 1.386 . S
C1262 C1264 1.391 . S
C1263 C1262 1.386 . S
C1263 C1267 1.393 . S
C1264 H1253 0.950 . S
C1264 C1262 1.391 . S
C1264 C1265 1.400 . S
C1265 C1259 1.491 . S
C1265 C1264 1.400 . S
C1265 C1266 1.398 . S
C1266 H1254 0.950 . S
C1266 C1265 1.398 . S
C1266 C1267 1.391 . S
C1267 H1255 0.950 . S
C1267 C1263 1.393 . S
C1267 C1266 1.391 . S
H1268 C1276 0.946 1_545 S
H1269 C1281 0.950 . S
H1270 C1278 0.950 . S
H1271 C1280 0.950 . S
H1272 C1282 0.950 . S
H1273 C1284 0.950 . S
H1274 C1286 0.950 . S
H1275 C1287 0.950 . S
C1276 H1268 0.946 1_565 S
C1276 C1277 1.390 . S
C1276 C1278 1.390 1_565 S
C1277 C1276 1.390 . S
C1277 C1281 1.393 . S
C1278 H1270 0.950 . S
C1278 C1276 1.390 1_545 S
C1278 C1279 1.400 1_545 S
C1279 C1278 1.400 1_565 S
C1279 C1280 1.398 . S
C1279 C1285 1.488 1_565 S
C1280 H1271 0.950 . S
C1280 C1279 1.398 . S
C1280 C1281 1.391 . S
C1281 H1269 0.950 . S
C1281 C1277 1.393 . S
C1281 C1280 1.391 . S
C1282 H1272 0.950 . S
C1282 C1283 1.386 1_565 S
C1282 C1284 1.391 . S
C1283 C1282 1.386 1_545 S
C1283 C1287 1.393 . S
C1284 H1273 0.950 . S
C1284 C1282 1.391 . S
C1284 C1285 1.396 1_565 S
C1285 C1279 1.488 1_545 S
C1285 C1284 1.396 1_545 S
C1285 C1286 1.405 . S
C1286 H1274 0.950 . S
C1286 C1285 1.405 . S
C1286 C1287 1.391 . S
C1287 H1275 0.950 . S
C1287 C1283 1.393 . S
C1287 C1286 1.391 . S
H1288 C1296 0.950 . S
H1289 C1301 0.950 . S
H1290 C1298 0.950 . S
H1291 C1300 0.950 . S
H1292 C1302 0.950 . S
H1293 C1304 0.950 . S
H1294 C1306 0.950 . S
H1295 C1307 0.950 . S
C1296 H1288 0.950 . S
C1296 C1297 1.386 . S
C1296 C1298 1.391 . S
C1297 C1296 1.386 . S
C1297 C1301 1.393 . S
C1298 H1290 0.950 . S
C1298 C1296 1.391 . S
C1298 C1299 1.400 . S
C1299 C1298 1.400 . S
C1299 C1300 1.398 . S
C1299 C1305 1.491 . S
C1300 H1291 0.950 . S
C1300 C1299 1.398 . S
C1300 C1301 1.391 . S
C1301 H1289 0.950 . S
C1301 C1297 1.393 . S
C1301 C1300 1.391 . S
C1302 H1292 0.950 . S
C1302 C1303 1.386 . S
C1302 C1304 1.391 . S
C1303 C1302 1.386 . S
C1303 C1307 1.393 . S
C1304 H1293 0.950 . S
C1304 C1302 1.391 . S
C1304 C1305 1.400 . S
C1305 C1299 1.491 . S
C1305 C1304 1.400 . S
C1305 C1306 1.398 . S
C1306 H1294 0.950 . S
C1306 C1305 1.398 . S
C1306 C1307 1.391 . S
C1307 H1295 0.950 . S
C1307 C1303 1.393 . S
C1307 C1306 1.391 . S
H1308 C1316 0.950 . S
H1309 C1321 0.950 . S
H1310 C1318 0.950 . S
H1311 C1320 0.950 . S
H1312 C1322 0.950 . S
H1313 C1324 0.950 . S
H1314 C1326 0.950 1_565 S
H1315 C1327 0.950 . S
C1316 H1308 0.950 . S
C1316 C1317 1.386 . S
C1316 C1318 1.391 1_455 S
C1317 C1316 1.386 . S
C1317 C1321 1.393 . S
C1318 H1310 0.950 . S
C1318 C1316 1.391 1_655 S
C1318 C1319 1.411 . S
C1319 C1318 1.411 . S
C1319 C1320 1.396 1_565 S
C1319 C1325 1.483 1_565 S
C1320 H1311 0.950 . S
C1320 C1319 1.396 1_545 S
C1320 C1321 1.391 1_645 S
C1321 H1309 0.950 . S
C1321 C1317 1.393 . S
C1321 C1320 1.391 1_465 S
C1322 H1312 0.950 . S
C1322 C1323 1.386 . S
C1322 C1324 1.391 . S
C1323 C1322 1.386 . S
C1323 C1327 1.393 . S
C1324 H1313 0.950 . S
C1324 C1322 1.391 . S
C1324 C1325 1.400 . S
C1325 C1319 1.483 1_545 S
C1325 C1324 1.400 . S
C1325 C1326 1.398 . S
C1326 H1314 0.950 1_545 S
C1326 C1325 1.398 . S
C1326 C1327 1.391 . S
C1327 H1315 0.950 . S
C1327 C1323 1.393 . S
C1327 C1326 1.391 . S
H1328 C1336 0.950 . S
H1329 C1341 0.950 . S
H1330 C1338 0.950 . S
H1331 C1340 0.950 . S
H1332 C1342 0.950 . S
H1333 C1344 0.950 . S
H1334 C1346 0.950 . S
H1335 C1347 0.950 . S
C1336 H1328 0.950 . S
C1336 C1337 1.386 . S
C1336 C1338 1.391 . S
C1337 C1336 1.386 . S
C1337 C1341 1.393 . S
C1338 H1330 0.950 . S
C1338 C1336 1.391 . S
C1338 C1339 1.400 . S
C1339 C1338 1.400 . S
C1339 C1340 1.398 . S
C1339 C1345 1.491 . S
C1340 H1331 0.950 . S
C1340 C1339 1.398 . S
C1340 C1341 1.391 . S
C1341 H1329 0.950 . S
C1341 C1337 1.393 . S
C1341 C1340 1.391 . S
C1342 H1332 0.950 . S
C1342 C1343 1.386 . S
C1342 C1344 1.391 . S
C1343 C1342 1.386 . S
C1343 C1347 1.393 . S
C1344 H1333 0.950 . S
C1344 C1342 1.391 . S
C1344 C1345 1.400 . S
C1345 C1339 1.491 . S
C1345 C1344 1.400 . S
C1345 C1346 1.398 . S
C1346 H1334 0.950 . S
C1346 C1345 1.398 . S
C1346 C1347 1.391 . S
C1347 H1335 0.950 . S
C1347 C1343 1.393 . S
C1347 C1346 1.391 . S
H1348 C1356 0.950 . S
H1349 C1361 0.950 . S
H1350 C1358 0.950 1_565 S
H1351 C1360 0.950 . S
H1352 C1362 0.950 . S
H1353 C1364 0.950 . S
H1354 C1366 0.950 . S
H1355 C1367 0.950 . S
C1356 H1348 0.950 . S
C1356 C1357 1.386 . S
C1356 C1358 1.391 1_455 S
C1357 C1356 1.386 . S
C1357 C1361 1.393 . S
C1358 H1350 0.950 1_545 S
C1358 C1356 1.391 1_655 S
C1358 C1359 1.402 . S
C1359 C1358 1.402 . S
C1359 C1360 1.405 . S
C1359 C1365 1.482 1_545 S
C1360 H1351 0.950 . S
C1360 C1359 1.405 . S
C1360 C1361 1.391 1_655 S
C1361 H1349 0.950 . S
C1361 C1357 1.393 . S
C1361 C1360 1.391 1_455 S
C1362 H1352 0.950 . S
C1362 C1363 1.386 . S
C1362 C1364 1.391 . S
C1363 C1362 1.386 . S
C1363 C1367 1.393 . S
C1364 H1353 0.950 . S
C1364 C1362 1.391 . S
C1364 C1365 1.400 . S
C1365 C1359 1.482 1_565 S
C1365 C1364 1.400 . S
C1365 C1366 1.398 . S
C1366 H1354 0.950 . S
C1366 C1365 1.398 . S
C1366 C1367 1.391 . S
C1367 H1355 0.950 . S
C1367 C1363 1.393 . S
C1367 C1366 1.391 . S
H1368 C1376 0.950 . S
H1369 C1381 0.950 . S
H1370 C1378 0.950 . S
H1371 C1380 0.950 . S
H1372 C1382 0.950 . S
H1373 C1384 0.950 . S
H1374 C1386 0.950 . S
H1375 C1387 0.950 . S
C1376 H1368 0.950 . S
C1376 C1377 1.386 . S
C1376 C1378 1.391 . S
C1377 C1376 1.386 . S
C1377 C1381 1.393 . S
C1378 H1370 0.950 . S
C1378 C1376 1.391 . S
C1378 C1379 1.400 . S
C1379 C1378 1.400 . S
C1379 C1380 1.398 . S
C1379 C1385 1.491 . S
C1380 H1371 0.950 . S
C1380 C1379 1.398 . S
C1380 C1381 1.391 . S
C1381 H1369 0.950 . S
C1381 C1377 1.393 . S
C1381 C1380 1.391 . S
C1382 H1372 0.950 . S
C1382 C1383 1.386 . S
C1382 C1384 1.391 . S
C1383 C1382 1.386 . S
C1383 C1387 1.393 . S
C1384 H1373 0.950 . S
C1384 C1382 1.391 . S
C1384 C1385 1.400 . S
C1385 C1379 1.491 . S
C1385 C1384 1.400 . S
C1385 C1386 1.398 . S
C1386 H1374 0.950 . S
C1386 C1385 1.398 . S
C1386 C1387 1.391 . S
C1387 H1375 0.950 . S
C1387 C1383 1.393 . S
C1387 C1386 1.391 . S
H1388 C1396 0.950 . S
H1389 C1401 0.950 . S
H1390 C1398 0.950 . S
H1391 C1400 0.958 . S
H1392 C1402 0.950 . S
H1393 C1404 0.950 . S
H1394 C1406 0.950 . S
H1395 C1407 0.950 . S
C1396 H1388 0.950 . S
C1396 C1397 1.386 . S
C1396 C1398 1.391 . S
C1397 C1396 1.386 . S
C1397 C1401 1.393 . S
C1398 H1390 0.950 . S
C1398 C1396 1.391 . S
C1398 C1399 1.400 . S
C1399 C1398 1.400 . S
C1399 C1400 1.394 1_545 S
C1399 C1405 1.495 . S
C1400 H1391 0.958 . S
C1400 C1399 1.394 1_565 S
C1400 C1401 1.387 1_565 S
C1401 H1389 0.950 . S
C1401 C1397 1.393 . S
C1401 C1400 1.387 1_545 S
C1402 H1392 0.950 . S
C1402 C1403 1.386 . S
C1402 C1404 1.391 . S
C1403 C1402 1.386 . S
C1403 C1407 1.393 1_565 S
C1404 H1393 0.950 . S
C1404 C1402 1.391 . S
C1404 C1405 1.392 1_565 S
C1405 C1399 1.495 . S
C1405 C1404 1.392 1_545 S
C1405 C1406 1.403 . S
C1406 H1394 0.950 . S
C1406 C1405 1.403 . S
C1406 C1407 1.391 . S
C1407 H1395 0.950 . S
C1407 C1403 1.393 1_545 S
C1407 C1406 1.391 . S
H1408 C1416 0.950 . S
H1409 C1421 0.950 . S
H1410 C1418 0.950 . S
H1411 C1420 0.950 . S
H1412 C1422 0.950 . S
H1413 C1424 0.950 . S
H1414 C1426 0.950 . S
H1415 C1427 0.950 . S
C1416 H1408 0.950 . S
C1416 C1417 1.386 . S
C1416 C1418 1.391 . S
C1417 C1416 1.386 . S
C1417 C1421 1.393 . S
C1418 H1410 0.950 . S
C1418 C1416 1.391 . S
C1418 C1419 1.400 . S
C1419 C1418 1.400 . S
C1419 C1420 1.398 . S
C1419 C1425 1.491 . S
C1420 H1411 0.950 . S
C1420 C1419 1.398 . S
C1420 C1421 1.391 . S
C1421 H1409 0.950 . S
C1421 C1417 1.393 . S
C1421 C1420 1.391 . S
C1422 H1412 0.950 . S
C1422 C1423 1.386 . S
C1422 C1424 1.391 . S
C1423 C1422 1.386 . S
C1423 C1427 1.393 . S
C1424 H1413 0.950 . S
C1424 C1422 1.391 . S
C1424 C1425 1.400 . S
C1425 C1419 1.491 . S
C1425 C1424 1.400 . S
C1425 C1426 1.398 . S
C1426 H1414 0.950 . S
C1426 C1425 1.398 . S
C1426 C1427 1.391 . S
C1427 H1415 0.950 . S
C1427 C1423 1.393 . S
C1427 C1426 1.391 . S
H1428 C1436 0.950 . S
H1429 C1441 0.950 . S
H1430 C1438 0.950 . S
H1431 C1440 0.950 1_655 S
H1432 C1442 0.950 . S
H1433 C1444 0.950 . S
H1434 C1446 0.950 . S
H1435 C1447 0.950 . S
C1436 H1428 0.950 . S
C1436 C1437 1.386 . S
C1436 C1438 1.391 1_455 S
C1437 C1436 1.386 . S
C1437 C1441 1.393 . S
C1438 H1430 0.950 . S
C1438 C1436 1.391 1_655 S
C1438 C1439 1.400 . S
C1439 C1438 1.400 . S
C1439 C1440 1.398 1_655 S
C1439 C1445 1.491 . S
C1440 H1431 0.950 1_455 S
C1440 C1439 1.398 1_455 S
C1440 C1441 1.391 . S
C1441 H1429 0.950 . S
C1441 C1437 1.393 . S
C1441 C1440 1.391 . S
C1442 H1432 0.950 . S
C1442 C1443 1.386 . S
C1442 C1444 1.391 . S
C1443 C1442 1.386 . S
C1443 C1447 1.393 . S
C1444 H1433 0.950 . S
C1444 C1442 1.391 . S
C1444 C1445 1.400 . S
C1445 C1439 1.491 . S
C1445 C1444 1.400 . S
C1445 C1446 1.398 . S
C1446 H1434 0.950 . S
C1446 C1445 1.398 . S
C1446 C1447 1.391 . S
C1447 H1435 0.950 . S
C1447 C1443 1.393 . S
C1447 C1446 1.391 . S
H1448 C1456 0.950 . S
H1449 C1461 0.950 . S
H1450 C1458 0.950 . S
H1451 C1460 0.950 . S
H1452 C1462 0.950 . S
H1453 C1464 0.950 . S
H1454 C1466 0.950 . S
H1455 C1467 0.950 . S
C1456 H1448 0.950 . S
C1456 C1457 1.386 . S
C1456 C1458 1.391 . S
C1457 C1456 1.386 . S
C1457 C1461 1.393 . S
C1458 H1450 0.950 . S
C1458 C1456 1.391 . S
C1458 C1459 1.400 . S
C1459 C1458 1.400 . S
C1459 C1460 1.398 . S
C1459 C1465 1.491 . S
C1460 H1451 0.950 . S
C1460 C1459 1.398 . S
C1460 C1461 1.391 . S
C1461 H1449 0.950 . S
C1461 C1457 1.393 . S
C1461 C1460 1.391 . S
C1462 H1452 0.950 . S
C1462 C1463 1.386 . S
C1462 C1464 1.391 . S
C1463 C1462 1.386 . S
C1463 C1467 1.393 . S
C1464 H1453 0.950 . S
C1464 C1462 1.391 . S
C1464 C1465 1.400 . S
C1465 C1459 1.491 . S
C1465 C1464 1.400 . S
C1465 C1466 1.398 . S
C1466 H1454 0.950 . S
C1466 C1465 1.398 . S
C1466 C1467 1.391 . S
C1467 H1455 0.950 . S
C1467 C1463 1.393 . S
C1467 C1466 1.391 . S
H1468 C1476 0.950 . S
H1469 C1481 0.950 . S
H1470 C1478 0.950 . S
H1471 C1480 0.950 . S
H1472 C1482 0.950 . S
H1473 C1484 0.950 . S
H1474 C1486 0.950 . S
H1475 C1487 0.950 . S
C1476 H1468 0.950 . S
C1476 C1477 1.386 . S
C1476 C1478 1.391 . S
C1477 C1476 1.386 . S
C1477 C1481 1.393 . S
C1478 H1470 0.950 . S
C1478 C1476 1.391 . S
C1478 C1479 1.400 . S
C1479 C1478 1.400 . S
C1479 C1480 1.398 . S
C1479 C1485 1.491 . S
C1480 H1471 0.950 . S
C1480 C1479 1.398 . S
C1480 C1481 1.391 . S
C1481 H1469 0.950 . S
C1481 C1477 1.393 . S
C1481 C1480 1.391 . S
C1482 H1472 0.950 . S
C1482 C1483 1.386 . S
C1482 C1484 1.391 . S
C1483 C1482 1.386 . S
C1483 C1487 1.393 . S
C1484 H1473 0.950 . S
C1484 C1482 1.391 . S
C1484 C1485 1.400 . S
C1485 C1479 1.491 . S
C1485 C1484 1.400 . S
C1485 C1486 1.398 . S
C1486 H1474 0.950 . S
C1486 C1485 1.398 . S
C1486 C1487 1.391 . S
C1487 H1475 0.950 . S
C1487 C1483 1.393 . S
C1487 C1486 1.391 . S
H1488 C1496 0.950 . S
H1489 C1501 0.950 . S
H1490 C1498 0.950 . S
H1491 C1500 0.950 . S
H1492 C1502 0.950 . S
H1493 C1504 0.950 . S
H1494 C1506 0.950 . S
H1495 C1507 0.950 . S
C1496 H1488 0.950 . S
C1496 C1497 1.386 . S
C1496 C1498 1.391 . S
C1497 C1496 1.386 . S
C1497 C1501 1.393 . S
C1498 H1490 0.950 . S
C1498 C1496 1.391 . S
C1498 C1499 1.400 . S
C1499 C1498 1.400 . S
C1499 C1500 1.398 . S
C1499 C1505 1.491 . S
C1500 H1491 0.950 . S
C1500 C1499 1.398 . S
C1500 C1501 1.391 . S
C1501 H1489 0.950 . S
C1501 C1497 1.393 . S
C1501 C1500 1.391 . S
C1502 H1492 0.950 . S
C1502 C1503 1.386 . S
C1502 C1504 1.391 . S
C1503 C1502 1.386 . S
C1503 C1507 1.393 . S
C1504 H1493 0.950 . S
C1504 C1502 1.391 . S
C1504 C1505 1.400 . S
C1505 C1499 1.491 . S
C1505 C1504 1.400 . S
C1505 C1506 1.398 . S
C1506 H1494 0.950 . S
C1506 C1505 1.398 . S
C1506 C1507 1.391 . S
C1507 H1495 0.950 . S
C1507 C1503 1.393 . S
C1507 C1506 1.391 . S
H1508 C1516 0.950 . S
H1509 C1521 0.950 . S
H1510 C1518 0.950 . S
H1511 C1520 0.950 . S
H1512 C1522 0.950 . S
H1513 C1524 0.950 . S
H1514 C1526 0.950 . S
H1515 C1527 0.950 . S
C1516 H1508 0.950 . S
C1516 C1517 1.386 . S
C1516 C1518 1.391 . S
C1517 C1516 1.386 . S
C1517 C1521 1.393 . S
C1518 H1510 0.950 . S
C1518 C1516 1.391 . S
C1518 C1519 1.400 . S
C1519 C1518 1.400 . S
C1519 C1520 1.398 . S
C1519 C1525 1.491 . S
C1520 H1511 0.950 . S
C1520 C1519 1.398 . S
C1520 C1521 1.391 . S
C1521 H1509 0.950 . S
C1521 C1517 1.393 . S
C1521 C1520 1.391 . S
C1522 H1512 0.950 . S
C1522 C1523 1.386 . S
C1522 C1524 1.391 . S
C1523 C1522 1.386 . S
C1523 C1527 1.393 . S
C1524 H1513 0.950 . S
C1524 C1522 1.391 . S
C1524 C1525 1.400 . S
C1525 C1519 1.491 . S
C1525 C1524 1.400 . S
C1525 C1526 1.398 . S
C1526 H1514 0.950 . S
C1526 C1525 1.398 . S
C1526 C1527 1.391 . S
C1527 H1515 0.950 . S
C1527 C1523 1.393 . S
C1527 C1526 1.391 . S
H1528 C1536 0.950 . S
H1529 C1541 0.950 . S
H1530 C1538 0.950 . S
H1531 C1540 0.950 . S
H1532 C1542 0.950 . S
H1533 C1544 0.950 . S
H1534 C1546 0.950 . S
H1535 C1547 0.950 . S
C1536 H1528 0.950 . S
C1536 C1537 1.386 . S
C1536 C1538 1.391 . S
C1537 C1536 1.386 . S
C1537 C1541 1.393 . S
C1538 H1530 0.950 . S
C1538 C1536 1.391 . S
C1538 C1539 1.400 . S
C1539 C1538 1.400 . S
C1539 C1540 1.398 . S
C1539 C1545 1.491 . S
C1540 H1531 0.950 . S
C1540 C1539 1.398 . S
C1540 C1541 1.391 . S
C1541 H1529 0.950 . S
C1541 C1537 1.393 . S
C1541 C1540 1.391 . S
C1542 H1532 0.950 . S
C1542 C1543 1.386 . S
C1542 C1544 1.391 . S
C1543 C1542 1.386 . S
C1543 C1547 1.393 . S
C1544 H1533 0.950 . S
C1544 C1542 1.391 . S
C1544 C1545 1.400 . S
C1545 C1539 1.491 . S
C1545 C1544 1.400 . S
C1545 C1546 1.398 . S
C1546 H1534 0.950 . S
C1546 C1545 1.398 . S
C1546 C1547 1.391 . S
C1547 H1535 0.950 . S
C1547 C1543 1.393 . S
C1547 C1546 1.391 . S
H1548 C1556 0.950 . S
H1549 C1561 0.950 . S
H1550 C1558 0.950 1_655 S
H1551 C1560 0.950 . S
H1552 C1562 0.950 . S
H1553 C1564 0.950 . S
H1554 C1566 0.950 . S
H1555 C1567 0.950 . S
C1556 H1548 0.950 . S
C1556 C1557 1.386 . S
C1556 C1558 1.391 . S
C1557 C1556 1.386 . S
C1557 C1561 1.393 . S
C1558 H1550 0.950 1_455 S
C1558 C1556 1.391 . S
C1558 C1559 1.400 1_455 S
C1559 C1558 1.400 1_655 S
C1559 C1560 1.398 . S
C1559 C1565 1.491 . S
C1560 H1551 0.950 . S
C1560 C1559 1.398 . S
C1560 C1561 1.391 1_655 S
C1561 H1549 0.950 . S
C1561 C1557 1.393 . S
C1561 C1560 1.391 1_455 S
C1562 H1552 0.950 . S
C1562 C1563 1.386 . S
C1562 C1564 1.391 . S
C1563 C1562 1.386 . S
C1563 C1567 1.393 . S
C1564 H1553 0.950 . S
C1564 C1562 1.391 . S
C1564 C1565 1.400 . S
C1565 C1559 1.491 . S
C1565 C1564 1.400 . S
C1565 C1566 1.398 . S
C1566 H1554 0.950 . S
C1566 C1565 1.398 . S
C1566 C1567 1.391 . S
C1567 H1555 0.950 . S
C1567 C1563 1.393 . S
C1567 C1566 1.391 . S
H1568 C1576 0.950 . S
H1569 C1581 0.950 . S
H1570 C1578 0.950 . S
H1571 C1580 0.950 . S
H1572 C1582 0.950 . S
H1573 C1584 0.950 . S
H1574 C1586 0.950 . S
H1575 C1587 0.950 . S
C1576 H1568 0.950 . S
C1576 C1577 1.386 . S
C1576 C1578 1.391 . S
C1577 C1576 1.386 . S
C1577 C1581 1.393 . S
C1578 H1570 0.950 . S
C1578 C1576 1.391 . S
C1578 C1579 1.400 . S
C1579 C1578 1.400 . S
C1579 C1580 1.398 . S
C1579 C1585 1.491 . S
C1580 H1571 0.950 . S
C1580 C1579 1.398 . S
C1580 C1581 1.391 . S
C1581 H1569 0.950 . S
C1581 C1577 1.393 . S
C1581 C1580 1.391 . S
C1582 H1572 0.950 . S
C1582 C1583 1.386 . S
C1582 C1584 1.391 . S
C1583 C1582 1.386 . S
C1583 C1587 1.393 . S
C1584 H1573 0.950 . S
C1584 C1582 1.391 . S
C1584 C1585 1.400 . S
C1585 C1579 1.491 . S
C1585 C1584 1.400 . S
C1585 C1586 1.398 . S
C1586 H1574 0.950 . S
C1586 C1585 1.398 . S
C1586 C1587 1.391 . S
C1587 H1575 0.950 . S
C1587 C1583 1.393 . S
C1587 C1586 1.391 . S
H1588 C1596 0.950 . S
H1589 C1601 0.950 . S
H1590 C1598 0.950 . S
H1591 C1600 0.950 . S
H1592 C1602 0.950 . S
H1593 C1604 0.950 . S
H1594 C1606 0.950 . S
H1595 C1607 0.950 . S
C1596 H1588 0.950 . S
C1596 C1597 1.386 . S
C1596 C1598 1.391 1_655 S
C1597 C1596 1.386 . S
C1597 C1601 1.393 . S
C1598 H1590 0.950 . S
C1598 C1596 1.391 1_455 S
C1598 C1599 1.400 . S
C1599 C1598 1.400 . S
C1599 C1600 1.398 . S
C1599 C1605 1.491 . S
C1600 H1591 0.950 . S
C1600 C1599 1.398 . S
C1600 C1601 1.391 1_455 S
C1601 H1589 0.950 . S
C1601 C1597 1.393 . S
C1601 C1600 1.391 1_655 S
C1602 H1592 0.950 . S
C1602 C1603 1.386 . S
C1602 C1604 1.391 . S
C1603 C1602 1.386 . S
C1603 C1607 1.393 . S
C1604 H1593 0.950 . S
C1604 C1602 1.391 . S
C1604 C1605 1.400 . S
C1605 C1599 1.491 . S
C1605 C1604 1.400 . S
C1605 C1606 1.398 . S
C1606 H1594 0.950 . S
C1606 C1605 1.398 . S
C1606 C1607 1.391 . S
C1607 H1595 0.950 . S
C1607 C1603 1.393 . S
C1607 C1606 1.391 . S
H1608 C1616 0.950 . S
H1609 C1621 0.950 . S
H1610 C1618 0.950 . S
H1611 C1620 0.950 . S
H1612 C1622 0.950 . S
H1613 C1624 0.950 . S
H1614 C1626 0.950 . S
H1615 C1627 0.950 . S
C1616 H1608 0.950 . S
C1616 C1617 1.386 . S
C1616 C1618 1.391 . S
C1617 C1616 1.386 . S
C1617 C1621 1.393 . S
C1618 H1610 0.950 . S
C1618 C1616 1.391 . S
C1618 C1619 1.400 . S
C1619 C1618 1.400 . S
C1619 C1620 1.398 . S
C1619 C1625 1.491 . S
C1620 H1611 0.950 . S
C1620 C1619 1.398 . S
C1620 C1621 1.391 . S
C1621 H1609 0.950 . S
C1621 C1617 1.393 . S
C1621 C1620 1.391 . S
C1622 H1612 0.950 . S
C1622 C1623 1.386 . S
C1622 C1624 1.391 . S
C1623 C1622 1.386 . S
C1623 C1627 1.393 . S
C1624 H1613 0.950 . S
C1624 C1622 1.391 . S
C1624 C1625 1.400 . S
C1625 C1619 1.491 . S
C1625 C1624 1.400 . S
C1625 C1626 1.398 . S
C1626 H1614 0.950 . S
C1626 C1625 1.398 . S
C1626 C1627 1.391 . S
C1627 H1615 0.950 . S
C1627 C1623 1.393 . S
C1627 C1626 1.391 . S
H1628 C1636 0.950 . S
H1629 C1641 0.950 . S
H1630 C1638 0.950 . S
H1631 C1640 0.950 . S
H1632 C1642 0.950 . S
H1633 C1644 0.950 . S
H1634 C1646 0.950 . S
H1635 C1647 0.950 . S
C1636 H1628 0.950 . S
C1636 C1637 1.386 . S
C1636 C1638 1.391 . S
C1637 C1636 1.386 . S
C1637 C1641 1.393 . S
C1638 H1630 0.950 . S
C1638 C1636 1.391 . S
C1638 C1639 1.400 . S
C1639 C1638 1.400 . S
C1639 C1640 1.398 . S
C1639 C1645 1.491 . S
C1640 H1631 0.950 . S
C1640 C1639 1.398 . S
C1640 C1641 1.391 . S
C1641 H1629 0.950 . S
C1641 C1637 1.393 . S
C1641 C1640 1.391 . S
C1642 H1632 0.950 . S
C1642 C1643 1.386 . S
C1642 C1644 1.391 . S
C1643 C1642 1.386 . S
C1643 C1647 1.393 . S
C1644 H1633 0.950 . S
C1644 C1642 1.391 . S
C1644 C1645 1.400 . S
C1645 C1639 1.491 . S
C1645 C1644 1.400 . S
C1645 C1646 1.398 . S
C1646 H1634 0.950 . S
C1646 C1645 1.398 . S
C1646 C1647 1.391 . S
C1647 H1635 0.950 . S
C1647 C1643 1.393 . S
C1647 C1646 1.391 . S
H1648 C1656 0.950 . S
H1649 C1661 0.950 . S
H1650 C1658 0.950 . S
H1651 C1660 0.950 . S
H1652 C1662 0.950 . S
H1653 C1664 0.950 . S
H1654 C1666 0.950 . S
H1655 C1667 0.950 . S
C1656 H1648 0.950 . S
C1656 C1657 1.386 . S
C1656 C1658 1.391 . S
C1657 C1656 1.386 . S
C1657 C1661 1.393 . S
C1658 H1650 0.950 . S
C1658 C1656 1.391 . S
C1658 C1659 1.400 . S
C1659 C1658 1.400 . S
C1659 C1660 1.398 . S
C1659 C1665 1.491 . S
C1660 H1651 0.950 . S
C1660 C1659 1.398 . S
C1660 C1661 1.391 . S
C1661 H1649 0.950 . S
C1661 C1657 1.393 . S
C1661 C1660 1.391 . S
C1662 H1652 0.950 . S
C1662 C1663 1.386 . S
C1662 C1664 1.391 . S
C1663 C1662 1.386 . S
C1663 C1667 1.393 . S
C1664 H1653 0.950 . S
C1664 C1662 1.391 . S
C1664 C1665 1.400 . S
C1665 C1659 1.491 . S
C1665 C1664 1.400 . S
C1665 C1666 1.398 . S
C1666 H1654 0.950 . S
C1666 C1665 1.398 . S
C1666 C1667 1.391 . S
C1667 H1655 0.950 . S
C1667 C1663 1.393 . S
C1667 C1666 1.391 . S
H1668 C1676 0.950 . S
H1669 C1681 0.950 . S
H1670 C1678 0.950 . S
H1671 C1680 0.950 . S
H1672 C1682 0.950 . S
H1673 C1684 0.950 . S
H1674 C1686 0.950 . S
H1675 C1687 0.950 . S
C1676 H1668 0.950 . S
C1676 C1677 1.386 . S
C1676 C1678 1.391 . S
C1677 C1676 1.386 . S
C1677 C1681 1.393 . S
C1678 H1670 0.950 . S
C1678 C1676 1.391 . S
C1678 C1679 1.400 . S
C1679 C1678 1.400 . S
C1679 C1680 1.398 . S
C1679 C1685 1.491 . S
C1680 H1671 0.950 . S
C1680 C1679 1.398 . S
C1680 C1681 1.391 . S
C1681 H1669 0.950 . S
C1681 C1677 1.393 . S
C1681 C1680 1.391 . S
C1682 H1672 0.950 . S
C1682 C1683 1.386 . S
C1682 C1684 1.391 . S
C1683 C1682 1.386 . S
C1683 C1687 1.393 . S
C1684 H1673 0.950 . S
C1684 C1682 1.391 . S
C1684 C1685 1.400 . S
C1685 C1679 1.491 . S
C1685 C1684 1.400 . S
C1685 C1686 1.398 . S
C1686 H1674 0.950 . S
C1686 C1685 1.398 . S
C1686 C1687 1.391 . S
C1687 H1675 0.950 . S
C1687 C1683 1.393 . S
C1687 C1686 1.391 . S
H1688 C1696 0.950 . S
H1689 C1701 0.950 . S
H1690 C1698 0.950 . S
H1691 C1700 0.950 . S
H1692 C1702 0.950 . S
H1693 C1704 0.950 . S
H1694 C1706 0.950 . S
H1695 C1707 0.950 . S
C1696 H1688 0.950 . S
C1696 C1697 1.386 . S
C1696 C1698 1.391 . S
C1697 C1696 1.386 . S
C1697 C1701 1.393 . S
C1698 H1690 0.950 . S
C1698 C1696 1.391 . S
C1698 C1699 1.400 . S
C1699 C1698 1.400 . S
C1699 C1700 1.398 . S
C1699 C1705 1.491 . S
C1700 H1691 0.950 . S
C1700 C1699 1.398 . S
C1700 C1701 1.391 . S
C1701 H1689 0.950 . S
C1701 C1697 1.393 . S
C1701 C1700 1.391 . S
C1702 H1692 0.950 . S
C1702 C1703 1.386 . S
C1702 C1704 1.391 . S
C1703 C1702 1.386 . S
C1703 C1707 1.393 . S
C1704 H1693 0.950 . S
C1704 C1702 1.391 . S
C1704 C1705 1.400 . S
C1705 C1699 1.491 . S
C1705 C1704 1.400 . S
C1705 C1706 1.398 . S
C1706 H1694 0.950 . S
C1706 C1705 1.398 . S
C1706 C1707 1.391 . S
C1707 H1695 0.950 . S
C1707 C1703 1.393 . S
C1707 C1706 1.391 . S
H1708 C1716 0.950 . S
H1709 C1721 0.950 . S
H1710 C1718 0.950 . S
H1711 C1720 0.950 1_455 S
H1712 C1722 0.950 . S
H1713 C1724 0.950 . S
H1714 C1726 0.950 . S
H1715 C1727 0.950 . S
C1716 H1708 0.950 . S
C1716 C1717 1.386 . S
C1716 C1718 1.391 1_655 S
C1717 C1716 1.386 . S
C1717 C1721 1.393 . S
C1718 H1710 0.950 . S
C1718 C1716 1.391 1_455 S
C1718 C1719 1.400 . S
C1719 C1718 1.400 . S
C1719 C1720 1.398 1_455 S
C1719 C1725 1.491 . S
C1720 H1711 0.950 1_655 S
C1720 C1719 1.398 1_655 S
C1720 C1721 1.391 . S
C1721 H1709 0.950 . S
C1721 C1717 1.393 . S
C1721 C1720 1.391 . S
C1722 H1712 0.950 . S
C1722 C1723 1.386 . S
C1722 C1724 1.391 . S
C1723 C1722 1.386 . S
C1723 C1727 1.393 . S
C1724 H1713 0.950 . S
C1724 C1722 1.391 . S
C1724 C1725 1.400 . S
C1725 C1719 1.491 . S
C1725 C1724 1.400 . S
C1725 C1726 1.398 . S
C1726 H1714 0.950 . S
C1726 C1725 1.398 . S
C1726 C1727 1.391 . S
C1727 H1715 0.950 . S
C1727 C1723 1.393 . S
C1727 C1726 1.391 . S
H1728 C1736 0.950 . S
H1729 C1741 0.950 . S
H1730 C1738 0.950 . S
H1731 C1740 0.950 . S
H1732 C1742 0.950 . S
H1733 C1744 0.950 . S
H1734 C1746 0.950 . S
H1735 C1747 0.950 . S
C1736 H1728 0.950 . S
C1736 C1737 1.386 . S
C1736 C1738 1.391 . S
C1737 C1736 1.386 . S
C1737 C1741 1.393 . S
C1738 H1730 0.950 . S
C1738 C1736 1.391 . S
C1738 C1739 1.400 . S
C1739 C1738 1.400 . S
C1739 C1740 1.398 . S
C1739 C1745 1.491 . S
C1740 H1731 0.950 . S
C1740 C1739 1.398 . S
C1740 C1741 1.391 . S
C1741 H1729 0.950 . S
C1741 C1737 1.393 . S
C1741 C1740 1.391 . S
C1742 H1732 0.950 . S
C1742 C1743 1.386 . S
C1742 C1744 1.391 . S
C1743 C1742 1.386 . S
C1743 C1747 1.393 . S
C1744 H1733 0.950 . S
C1744 C1742 1.391 . S
C1744 C1745 1.400 . S
C1745 C1739 1.491 . S
C1745 C1744 1.400 . S
C1745 C1746 1.398 . S
C1746 H1734 0.950 . S
C1746 C1745 1.398 . S
C1746 C1747 1.391 . S
C1747 H1735 0.950 . S
C1747 C1743 1.393 . S
C1747 C1746 1.391 . S
H1748 C1756 0.950 . S
H1749 C1761 0.950 . S
H1750 C1758 0.950 . S
H1751 C1760 0.950 . S
H1752 C1762 0.950 . S
H1753 C1764 0.950 . S
H1754 C1766 0.950 . S
H1755 C1767 0.950 . S
C1756 H1748 0.950 . S
C1756 C1757 1.386 . S
C1756 C1758 1.391 . S
C1757 C1756 1.386 . S
C1757 C1761 1.393 . S
C1758 H1750 0.950 . S
C1758 C1756 1.391 . S
C1758 C1759 1.400 . S
C1759 C1758 1.400 . S
C1759 C1760 1.398 . S
C1759 C1765 1.491 1_455 S
C1760 H1751 0.950 . S
C1760 C1759 1.398 . S
C1760 C1761 1.391 . S
C1761 H1749 0.950 . S
C1761 C1757 1.393 . S
C1761 C1760 1.391 . S
C1762 H1752 0.950 . S
C1762 C1763 1.386 . S
C1762 C1764 1.391 . S
C1763 C1762 1.386 . S
C1763 C1767 1.393 . S
C1764 H1753 0.950 . S
C1764 C1762 1.391 . S
C1764 C1765 1.400 . S
C1765 C1759 1.491 1_655 S
C1765 C1764 1.400 . S
C1765 C1766 1.398 . S
C1766 H1754 0.950 . S
C1766 C1765 1.398 . S
C1766 C1767 1.391 . S
C1767 H1755 0.950 . S
C1767 C1763 1.393 . S
C1767 C1766 1.391 . S
H1768 C1776 0.950 . S
H1769 C1781 0.956 . S
H1770 C1778 0.950 . S
H1771 C1780 0.950 . S
H1772 C1782 0.950 . S
H1773 C1784 0.950 . S
H1774 C1786 0.950 . S
H1775 C1787 0.957 . S
C1776 H1768 0.950 . S
C1776 C1777 1.386 . S
C1776 C1778 1.391 . S
C1777 C1776 1.386 . S
C1777 C1781 1.382 1_655 S
C1778 H1770 0.950 . S
C1778 C1776 1.391 . S
C1778 C1779 1.400 . S
C1779 C1778 1.400 . S
C1779 C1780 1.398 1_655 S
C1779 C1785 1.491 1_655 S
C1780 H1771 0.950 . S
C1780 C1779 1.398 1_455 S
C1780 C1781 1.395 . S
C1781 H1769 0.956 . S
C1781 C1777 1.382 1_455 S
C1781 C1780 1.395 . S
C1782 H1772 0.950 . S
C1782 C1783 1.386 . S
C1782 C1784 1.391 . S
C1783 C1782 1.386 . S
C1783 C1787 1.380 1_455 S
C1784 H1773 0.950 . S
C1784 C1782 1.391 . S
C1784 C1785 1.400 . S
C1785 C1779 1.491 1_455 S
C1785 C1784 1.400 . S
C1785 C1786 1.398 1_455 S
C1786 H1774 0.950 . S
C1786 C1785 1.398 1_655 S
C1786 C1787 1.396 . S
C1787 H1775 0.957 . S
C1787 C1783 1.380 1_655 S
C1787 C1786 1.396 . S
H1788 C1796 0.950 . S
H1789 C1801 0.950 . S
H1790 C1798 0.950 . S
H1791 C1800 0.950 . S
H1792 C1802 0.950 . S
H1793 C1804 0.950 . S
H1794 C1806 0.950 . S
H1795 C1807 0.950 . S
C1796 H1788 0.950 . S
C1796 C1797 1.386 . S
C1796 C1798 1.391 . S
C1797 C1796 1.386 . S
C1797 C1801 1.393 . S
C1798 H1790 0.950 . S
C1798 C1796 1.391 . S
C1798 C1799 1.400 . S
C1799 C1798 1.400 . S
C1799 C1800 1.398 . S
C1799 C1805 1.491 . S
C1800 H1791 0.950 . S
C1800 C1799 1.398 . S
C1800 C1801 1.391 . S
C1801 H1789 0.950 . S
C1801 C1797 1.393 . S
C1801 C1800 1.391 . S
C1802 H1792 0.950 . S
C1802 C1803 1.386 . S
C1802 C1804 1.391 . S
C1803 C1802 1.386 . S
C1803 C1807 1.393 . S
C1804 H1793 0.950 . S
C1804 C1802 1.391 . S
C1804 C1805 1.400 . S
C1805 C1799 1.491 . S
C1805 C1804 1.400 . S
C1805 C1806 1.398 . S
C1806 H1794 0.950 . S
C1806 C1805 1.398 . S
C1806 C1807 1.391 . S
C1807 H1795 0.950 . S
C1807 C1803 1.393 . S
C1807 C1806 1.391 . S
H1808 C1816 0.950 . S
H1809 C1821 0.950 . S
H1810 C1818 0.950 . S
H1811 C1820 0.950 . S
H1812 C1822 0.950 . S
H1813 C1824 0.950 . S
H1814 C1826 0.950 . S
H1815 C1827 0.950 . S
C1816 H1808 0.950 . S
C1816 C1817 1.386 . S
C1816 C1818 1.391 . S
C1817 C1816 1.386 . S
C1817 C1821 1.393 . S
C1818 H1810 0.950 . S
C1818 C1816 1.391 . S
C1818 C1819 1.400 . S
C1819 C1818 1.400 . S
C1819 C1820 1.398 . S
C1819 C1825 1.491 . S
C1820 H1811 0.950 . S
C1820 C1819 1.398 . S
C1820 C1821 1.391 . S
C1821 H1809 0.950 . S
C1821 C1817 1.393 . S
C1821 C1820 1.391 . S
C1822 H1812 0.950 . S
C1822 C1823 1.386 . S
C1822 C1824 1.391 . S
C1823 C1822 1.386 . S
C1823 C1827 1.393 . S
C1824 H1813 0.950 . S
C1824 C1822 1.391 . S
C1824 C1825 1.400 . S
C1825 C1819 1.491 . S
C1825 C1824 1.400 . S
C1825 C1826 1.398 . S
C1826 H1814 0.950 . S
C1826 C1825 1.398 . S
C1826 C1827 1.391 . S
C1827 H1815 0.950 . S
C1827 C1823 1.393 . S
C1827 C1826 1.391 . S
H1828 C1836 0.950 . S
H1829 C1841 0.950 . S
H1830 C1838 0.950 . S
H1831 C1840 0.950 . S
H1832 C1842 0.950 . S
H1833 C1844 0.950 . S
H1834 C1846 0.950 . S
H1835 C1847 0.950 . S
C1836 H1828 0.950 . S
C1836 C1837 1.386 . S
C1836 C1838 1.391 . S
C1837 C1836 1.386 . S
C1837 C1841 1.393 . S
C1838 H1830 0.950 . S
C1838 C1836 1.391 . S
C1838 C1839 1.400 . S
C1839 C1838 1.400 . S
C1839 C1840 1.398 . S
C1839 C1845 1.491 . S
C1840 H1831 0.950 . S
C1840 C1839 1.398 . S
C1840 C1841 1.391 . S
C1841 H1829 0.950 . S
C1841 C1837 1.393 . S
C1841 C1840 1.391 . S
C1842 H1832 0.950 . S
C1842 C1843 1.386 . S
C1842 C1844 1.391 . S
C1843 C1842 1.386 . S
C1843 C1847 1.393 . S
C1844 H1833 0.950 . S
C1844 C1842 1.391 . S
C1844 C1845 1.400 . S
C1845 C1839 1.491 . S
C1845 C1844 1.400 . S
C1845 C1846 1.398 . S
C1846 H1834 0.950 . S
C1846 C1845 1.398 . S
C1846 C1847 1.391 . S
C1847 H1835 0.950 . S
C1847 C1843 1.393 . S
C1847 C1846 1.391 . S
H1848 C1856 0.950 . S
H1849 C1861 0.950 1_655 S
H1850 C1858 0.950 . S
H1851 C1860 0.950 . S
H1852 C1862 0.950 . S
H1853 C1864 0.950 . S
H1854 C1866 0.950 . S
H1855 C1867 0.950 1_455 S
C1856 H1848 0.950 . S
C1856 C1857 1.386 . S
C1856 C1858 1.391 . S
C1857 C1856 1.386 . S
C1857 C1861 1.393 . S
C1858 H1850 0.950 . S
C1858 C1856 1.391 . S
C1858 C1859 1.400 . S
C1859 C1858 1.400 . S
C1859 C1860 1.398 1_455 S
C1859 C1865 1.491 1_455 S
C1860 H1851 0.950 . S
C1860 C1859 1.398 1_655 S
C1860 C1861 1.391 1_655 S
C1861 H1849 0.950 1_455 S
C1861 C1857 1.393 . S
C1861 C1860 1.391 1_455 S
C1862 H1852 0.950 . S
C1862 C1863 1.386 . S
C1862 C1864 1.391 . S
C1863 C1862 1.386 . S
C1863 C1867 1.393 . S
C1864 H1853 0.950 . S
C1864 C1862 1.391 . S
C1864 C1865 1.400 . S
C1865 C1859 1.491 1_655 S
C1865 C1864 1.400 . S
C1865 C1866 1.398 1_655 S
C1866 H1854 0.950 . S
C1866 C1865 1.398 1_455 S
C1866 C1867 1.391 1_455 S
C1867 H1855 0.950 1_655 S
C1867 C1863 1.393 . S
C1867 C1866 1.391 1_655 S
H1868 C1876 0.950 . S
H1869 C1881 0.950 . S
H1870 C1878 0.950 . S
H1871 C1880 0.950 . S
H1872 C1882 0.950 . S
H1873 C1884 0.950 . S
H1874 C1886 0.950 . S
H1875 C1887 0.950 . S
C1876 H1868 0.950 . S
C1876 C1877 1.386 . S
C1876 C1878 1.391 . S
C1877 C1876 1.386 . S
C1877 C1881 1.393 . S
C1878 H1870 0.950 . S
C1878 C1876 1.391 . S
C1878 C1879 1.400 . S
C1879 C1878 1.400 . S
C1879 C1880 1.398 . S
C1879 C1885 1.491 1_655 S
C1880 H1871 0.950 . S
C1880 C1879 1.398 . S
C1880 C1881 1.391 . S
C1881 H1869 0.950 . S
C1881 C1877 1.393 . S
C1881 C1880 1.391 . S
C1882 H1872 0.950 . S
C1882 C1883 1.386 . S
C1882 C1884 1.391 . S
C1883 C1882 1.386 . S
C1883 C1887 1.393 . S
C1884 H1873 0.950 . S
C1884 C1882 1.391 . S
C1884 C1885 1.400 . S
C1885 C1879 1.491 1_455 S
C1885 C1884 1.400 . S
C1885 C1886 1.398 . S
C1886 H1874 0.950 . S
C1886 C1885 1.398 . S
C1886 C1887 1.391 . S
C1887 H1875 0.950 . S
C1887 C1883 1.393 . S
C1887 C1886 1.391 . S
H1888 C1896 0.950 . S
H1889 C1901 0.950 . S
H1890 C1898 0.950 . S
H1891 C1900 0.950 . S
H1892 C1902 0.950 . S
H1893 C1904 0.950 . S
H1894 C1906 0.950 . S
H1895 C1907 0.950 . S
C1896 H1888 0.950 . S
C1896 C1897 1.386 . S
C1896 C1898 1.391 . S
C1897 C1896 1.386 . S
C1897 C1901 1.393 . S
C1898 H1890 0.950 . S
C1898 C1896 1.391 . S
C1898 C1899 1.400 . S
C1899 C1898 1.400 . S
C1899 C1900 1.398 . S
C1899 C1905 1.491 . S
C1900 H1891 0.950 . S
C1900 C1899 1.398 . S
C1900 C1901 1.391 . S
C1901 H1889 0.950 . S
C1901 C1897 1.393 . S
C1901 C1900 1.391 . S
C1902 H1892 0.950 . S
C1902 C1903 1.386 . S
C1902 C1904 1.391 . S
C1903 C1902 1.386 . S
C1903 C1907 1.393 . S
C1904 H1893 0.950 . S
C1904 C1902 1.391 . S
C1904 C1905 1.400 . S
C1905 C1899 1.491 . S
C1905 C1904 1.400 . S
C1905 C1906 1.398 . S
C1906 H1894 0.950 . S
C1906 C1905 1.398 . S
C1906 C1907 1.391 . S
C1907 H1895 0.950 . S
C1907 C1903 1.393 . S
C1907 C1906 1.391 . S
H1908 C1916 0.950 . S
H1909 C1921 0.950 . S
H1910 C1918 0.950 . S
H1911 C1920 0.950 . S
H1912 C1922 0.950 . S
H1913 C1924 0.950 . S
H1914 C1926 0.950 . S
H1915 C1927 0.950 . S
C1916 H1908 0.950 . S
C1916 C1917 1.386 . S
C1916 C1918 1.391 . S
C1917 C1916 1.386 . S
C1917 C1921 1.393 . S
C1918 H1910 0.950 . S
C1918 C1916 1.391 . S
C1918 C1919 1.400 . S
C1919 C1918 1.400 . S
C1919 C1920 1.398 . S
C1919 C1925 1.491 1_655 S
C1920 H1911 0.950 . S
C1920 C1919 1.398 . S
C1920 C1921 1.391 . S
C1921 H1909 0.950 . S
C1921 C1917 1.393 . S
C1921 C1920 1.391 . S
C1922 H1912 0.950 . S
C1922 C1923 1.386 . S
C1922 C1924 1.391 . S
C1923 C1922 1.386 . S
C1923 C1927 1.393 . S
C1924 H1913 0.950 . S
C1924 C1922 1.391 . S
C1924 C1925 1.400 . S
C1925 C1919 1.491 1_455 S
C1925 C1924 1.400 . S
C1925 C1926 1.398 . S
C1926 H1914 0.950 . S
C1926 C1925 1.398 . S
C1926 C1927 1.391 . S
C1927 H1915 0.950 . S
C1927 C1923 1.393 . S
C1927 C1926 1.391 . S
H1928 C1936 0.950 . S
H1929 C1941 0.950 . S
H1930 C1938 0.950 . S
H1931 C1940 0.950 . S
H1932 C1942 0.950 . S
H1933 C1944 0.950 . S
H1934 C1946 0.950 . S
H1935 C1947 0.950 . S
C1936 H1928 0.950 . S
C1936 C1937 1.386 . S
C1936 C1938 1.391 . S
C1937 C1936 1.386 . S
C1937 C1941 1.393 1_455 S
C1938 H1930 0.950 . S
C1938 C1936 1.391 . S
C1938 C1939 1.400 . S
C1939 C1938 1.400 . S
C1939 C1940 1.398 1_455 S
C1939 C1945 1.491 1_455 S
C1940 H1931 0.950 . S
C1940 C1939 1.398 1_655 S
C1940 C1941 1.391 . S
C1941 H1929 0.950 . S
C1941 C1937 1.393 1_655 S
C1941 C1940 1.391 . S
C1942 H1932 0.950 . S
C1942 C1943 1.386 . S
C1942 C1944 1.391 . S
C1943 C1942 1.386 . S
C1943 C1947 1.393 1_655 S
C1944 H1933 0.950 . S
C1944 C1942 1.391 . S
C1944 C1945 1.400 . S
C1945 C1939 1.491 1_655 S
C1945 C1944 1.400 . S
C1945 C1946 1.398 1_655 S
C1946 H1934 0.950 . S
C1946 C1945 1.398 1_455 S
C1946 C1947 1.391 . S
C1947 H1935 0.950 . S
C1947 C1943 1.393 1_455 S
C1947 C1946 1.391 . S
H1948 C1956 0.950 . S
H1949 C1961 0.950 . S
H1950 C1958 0.950 . S
H1951 C1960 0.950 . S
H1952 C1962 0.950 . S
H1953 C1964 0.950 . S
H1954 C1966 0.950 . S
H1955 C1967 0.950 . S
C1956 H1948 0.950 . S
C1956 C1957 1.386 . S
C1956 C1958 1.391 . S
C1957 C1956 1.386 . S
C1957 C1961 1.393 . S
C1958 H1950 0.950 . S
C1958 C1956 1.391 . S
C1958 C1959 1.400 . S
C1959 C1958 1.400 . S
C1959 C1960 1.398 . S
C1959 C1965 1.491 . S
C1960 H1951 0.950 . S
C1960 C1959 1.398 . S
C1960 C1961 1.391 . S
C1961 H1949 0.950 . S
C1961 C1957 1.393 . S
C1961 C1960 1.391 . S
C1962 H1952 0.950 . S
C1962 C1963 1.386 . S
C1962 C1964 1.391 . S
C1963 C1962 1.386 . S
C1963 C1967 1.393 . S
C1964 H1953 0.950 . S
C1964 C1962 1.391 . S
C1964 C1965 1.400 . S
C1965 C1959 1.491 . S
C1965 C1964 1.400 . S
C1965 C1966 1.398 . S
C1966 H1954 0.950 . S
C1966 C1965 1.398 . S
C1966 C1967 1.391 . S
C1967 H1955 0.950 . S
C1967 C1963 1.393 . S
C1967 C1966 1.391 . S
H1968 C1976 0.950 . S
H1969 C1981 0.950 . S
H1970 C1978 0.950 . S
H1971 C1980 0.950 . S
H1972 C1982 0.950 . S
H1973 C1984 0.950 . S
H1974 C1986 0.950 . S
H1975 C1987 0.950 . S
C1976 H1968 0.950 . S
C1976 C1977 1.386 . S
C1976 C1978 1.391 . S
C1977 C1976 1.386 . S
C1977 C1981 1.393 . S
C1978 H1970 0.950 . S
C1978 C1976 1.391 . S
C1978 C1979 1.400 . S
C1979 C1978 1.400 . S
C1979 C1980 1.398 . S
C1979 C1985 1.491 . S
C1980 H1971 0.950 . S
C1980 C1979 1.398 . S
C1980 C1981 1.391 . S
C1981 H1969 0.950 . S
C1981 C1977 1.393 . S
C1981 C1980 1.391 . S
C1982 H1972 0.950 . S
C1982 C1983 1.386 . S
C1982 C1984 1.391 . S
C1983 C1982 1.386 . S
C1983 C1987 1.393 . S
C1984 H1973 0.950 . S
C1984 C1982 1.391 . S
C1984 C1985 1.400 . S
C1985 C1979 1.491 . S
C1985 C1984 1.400 . S
C1985 C1986 1.398 . S
C1986 H1974 0.950 . S
C1986 C1985 1.398 . S
C1986 C1987 1.391 . S
C1987 H1975 0.950 . S
C1987 C1983 1.393 . S
C1987 C1986 1.391 . S
H1988 C1996 0.950 . S
H1989 C2001 0.950 . S
H1990 C1998 0.950 . S
H1991 C2000 0.950 . S
H1992 C2002 0.950 . S
H1993 C2004 0.950 . S
H1994 C2006 0.950 . S
H1995 C2007 0.950 . S
C1996 H1988 0.950 . S
C1996 C1997 1.386 . S
C1996 C1998 1.391 . S
C1997 C1996 1.386 . S
C1997 C2001 1.393 . S
C1998 H1990 0.950 . S
C1998 C1996 1.391 . S
C1998 C1999 1.400 . S
C1999 C1998 1.400 . S
C1999 C2000 1.398 . S
C1999 C2005 1.491 . S
C2000 H1991 0.950 . S
C2000 C1999 1.398 . S
C2000 C2001 1.391 . S
C2001 H1989 0.950 . S
C2001 C1997 1.393 . S
C2001 C2000 1.391 . S
C2002 H1992 0.950 . S
C2002 C2003 1.386 . S
C2002 C2004 1.391 . S
C2003 C2002 1.386 . S
C2003 C2007 1.393 . S
C2004 H1993 0.950 . S
C2004 C2002 1.391 . S
C2004 C2005 1.400 . S
C2005 C1999 1.491 . S
C2005 C2004 1.400 . S
C2005 C2006 1.398 . S
C2006 H1994 0.950 . S
C2006 C2005 1.398 . S
C2006 C2007 1.391 . S
C2007 H1995 0.950 . S
C2007 C2003 1.393 . S
C2007 C2006 1.391 . S
H2008 C2016 0.950 . S
H2009 C2021 0.950 . S
H2010 C2018 0.950 . S
H2011 C2020 0.950 . S
H2012 C2022 0.950 . S
H2013 C2024 0.950 . S
H2014 C2026 0.950 . S
H2015 C2027 0.950 . S
C2016 H2008 0.950 . S
C2016 C2017 1.386 1_655 S
C2016 C2018 1.391 . S
C2017 C2016 1.386 1_455 S
C2017 C2021 1.393 . S
C2018 H2010 0.950 . S
C2018 C2016 1.391 . S
C2018 C2019 1.400 1_655 S
C2019 C2018 1.400 1_455 S
C2019 C2020 1.398 . S
C2019 C2025 1.491 1_455 S
C2020 H2011 0.950 . S
C2020 C2019 1.398 . S
C2020 C2021 1.391 . S
C2021 H2009 0.950 . S
C2021 C2017 1.393 . S
C2021 C2020 1.391 . S
C2022 H2012 0.950 . S
C2022 C2023 1.386 1_455 S
C2022 C2024 1.391 . S
C2023 C2022 1.386 1_655 S
C2023 C2027 1.393 . S
C2024 H2013 0.950 . S
C2024 C2022 1.391 . S
C2024 C2025 1.400 1_455 S
C2025 C2019 1.491 1_655 S
C2025 C2024 1.400 1_655 S
C2025 C2026 1.398 . S
C2026 H2014 0.950 . S
C2026 C2025 1.398 . S
C2026 C2027 1.391 . S
C2027 H2015 0.950 . S
C2027 C2023 1.393 . S
C2027 C2026 1.391 . S
H2028 C2036 0.950 . S
H2029 C2041 0.950 . S
H2030 C2038 0.950 . S
H2031 C2040 0.950 . S
H2032 C2042 0.950 . S
H2033 C2044 0.950 . S
H2034 C2046 0.950 . S
H2035 C2047 0.950 . S
C2036 H2028 0.950 . S
C2036 C2037 1.386 . S
C2036 C2038 1.391 . S
C2037 C2036 1.386 . S
C2037 C2041 1.393 . S
C2038 H2030 0.950 . S
C2038 C2036 1.391 . S
C2038 C2039 1.400 . S
C2039 C2038 1.400 . S
C2039 C2040 1.398 . S
C2039 C2045 1.491 1_455 S
C2040 H2031 0.950 . S
C2040 C2039 1.398 . S
C2040 C2041 1.391 . S
C2041 H2029 0.950 . S
C2041 C2037 1.393 . S
C2041 C2040 1.391 . S
C2042 H2032 0.950 . S
C2042 C2043 1.386 . S
C2042 C2044 1.391 . S
C2043 C2042 1.386 . S
C2043 C2047 1.393 . S
C2044 H2033 0.950 . S
C2044 C2042 1.391 . S
C2044 C2045 1.400 . S
C2045 C2039 1.491 1_655 S
C2045 C2044 1.400 . S
C2045 C2046 1.398 . S
C2046 H2034 0.950 . S
C2046 C2045 1.398 . S
C2046 C2047 1.391 . S
C2047 H2035 0.950 . S
C2047 C2043 1.393 . S
C2047 C2046 1.391 . S
H2048 C2056 0.950 . S
H2049 C2061 0.950 . S
H2050 C2058 0.950 . S
H2051 C2060 0.950 . S
H2052 C2062 0.950 . S
H2053 C2064 0.950 . S
H2054 C2066 0.950 . S
H2055 C2067 0.950 . S
C2056 H2048 0.950 . S
C2056 C2057 1.386 . S
C2056 C2058 1.391 . S
C2057 C2056 1.386 . S
C2057 C2061 1.393 . S
C2058 H2050 0.950 . S
C2058 C2056 1.391 . S
C2058 C2059 1.400 . S
C2059 C2058 1.400 . S
C2059 C2060 1.398 . S
C2059 C2065 1.491 . S
C2060 H2051 0.950 . S
C2060 C2059 1.398 . S
C2060 C2061 1.391 . S
C2061 H2049 0.950 . S
C2061 C2057 1.393 . S
C2061 C2060 1.391 . S
C2062 H2052 0.950 . S
C2062 C2063 1.386 . S
C2062 C2064 1.391 . S
C2063 C2062 1.386 . S
C2063 C2067 1.393 . S
C2064 H2053 0.950 . S
C2064 C2062 1.391 . S
C2064 C2065 1.400 . S
C2065 C2059 1.491 . S
C2065 C2064 1.400 . S
C2065 C2066 1.398 . S
C2066 H2054 0.950 . S
C2066 C2065 1.398 . S
C2066 C2067 1.391 . S
C2067 H2055 0.950 . S
C2067 C2063 1.393 . S
C2067 C2066 1.391 . S
H2068 C2076 0.950 . S
H2069 C2081 0.950 . S
H2070 C2078 0.950 . S
H2071 C2080 0.950 . S
H2072 C2082 0.950 . S
H2073 C2084 0.950 . S
H2074 C2086 0.950 . S
H2075 C2087 0.950 . S
C2076 H2068 0.950 . S
C2076 C2077 1.386 . S
C2076 C2078 1.391 . S
C2077 C2076 1.386 . S
C2077 C2081 1.393 . S
C2078 H2070 0.950 . S
C2078 C2076 1.391 . S
C2078 C2079 1.400 . S
C2079 C2078 1.400 . S
C2079 C2080 1.398 . S
C2079 C2085 1.491 . S
C2080 H2071 0.950 . S
C2080 C2079 1.398 . S
C2080 C2081 1.391 . S
C2081 H2069 0.950 . S
C2081 C2077 1.393 . S
C2081 C2080 1.391 . S
C2082 H2072 0.950 . S
C2082 C2083 1.386 . S
C2082 C2084 1.391 . S
C2083 C2082 1.386 . S
C2083 C2087 1.393 . S
C2084 H2073 0.950 . S
C2084 C2082 1.391 . S
C2084 C2085 1.400 . S
C2085 C2079 1.491 . S
C2085 C2084 1.400 . S
C2085 C2086 1.398 . S
C2086 H2074 0.950 . S
C2086 C2085 1.398 . S
C2086 C2087 1.391 . S
C2087 H2075 0.950 . S
C2087 C2083 1.393 . S
C2087 C2086 1.391 . S
H2088 C2096 0.950 . S
H2089 C2101 0.950 . S
H2090 C2098 0.950 . S
H2091 C2100 0.950 . S
H2092 C2102 0.950 . S
H2093 C2104 0.950 . S
H2094 C2106 0.950 . S
H2095 C2107 0.950 . S
C2096 H2088 0.950 . S
C2096 C2097 1.386 . S
C2096 C2098 1.391 . S
C2097 C2096 1.386 . S
C2097 C2101 1.393 . S
C2098 H2090 0.950 . S
C2098 C2096 1.391 . S
C2098 C2099 1.400 . S
C2099 C2098 1.400 . S
C2099 C2100 1.398 . S
C2099 C2105 1.491 . S
C2100 H2091 0.950 . S
C2100 C2099 1.398 . S
C2100 C2101 1.391 . S
C2101 H2089 0.950 . S
C2101 C2097 1.393 . S
C2101 C2100 1.391 . S
C2102 H2092 0.950 . S
C2102 C2103 1.386 . S
C2102 C2104 1.391 . S
C2103 C2102 1.386 . S
C2103 C2107 1.393 . S
C2104 H2093 0.950 . S
C2104 C2102 1.391 . S
C2104 C2105 1.400 . S
C2105 C2099 1.491 . S
C2105 C2104 1.400 . S
C2105 C2106 1.398 . S
C2106 H2094 0.950 . S
C2106 C2105 1.398 . S
C2106 C2107 1.391 . S
C2107 H2095 0.950 . S
C2107 C2103 1.393 . S
C2107 C2106 1.391 . S
H2108 C2116 0.950 . S
H2109 C2121 0.950 . S
H2110 C2118 0.950 . S
H2111 C2120 0.950 . S
H2112 C2122 0.950 . S
H2113 C2124 0.950 . S
H2114 C2126 0.950 . S
H2115 C2127 0.950 . S
C2116 H2108 0.950 . S
C2116 C2117 1.386 . S
C2116 C2118 1.391 . S
C2117 C2116 1.386 . S
C2117 C2121 1.393 . S
C2118 H2110 0.950 . S
C2118 C2116 1.391 . S
C2118 C2119 1.400 . S
C2119 C2118 1.400 . S
C2119 C2120 1.398 . S
C2119 C2125 1.491 . S
C2120 H2111 0.950 . S
C2120 C2119 1.398 . S
C2120 C2121 1.391 . S
C2121 H2109 0.950 . S
C2121 C2117 1.393 . S
C2121 C2120 1.391 . S
C2122 H2112 0.950 . S
C2122 C2123 1.386 . S
C2122 C2124 1.391 . S
C2123 C2122 1.386 . S
C2123 C2127 1.393 . S
C2124 H2113 0.950 . S
C2124 C2122 1.391 . S
C2124 C2125 1.400 . S
C2125 C2119 1.491 . S
C2125 C2124 1.400 . S
C2125 C2126 1.398 . S
C2126 H2114 0.950 . S
C2126 C2125 1.398 . S
C2126 C2127 1.391 . S
C2127 H2115 0.950 . S
C2127 C2123 1.393 . S
C2127 C2126 1.391 . S
H2128 C2136 0.950 . S
H2129 C2141 0.950 . S
H2130 C2138 0.950 . S
H2131 C2140 0.950 . S
H2132 C2142 0.950 . S
H2133 C2144 0.950 . S
H2134 C2146 0.950 . S
H2135 C2147 0.950 . S
C2136 H2128 0.950 . S
C2136 C2137 1.386 . S
C2136 C2138 1.391 . S
C2137 C2136 1.386 . S
C2137 C2141 1.393 . S
C2138 H2130 0.950 . S
C2138 C2136 1.391 . S
C2138 C2139 1.400 . S
C2139 C2138 1.400 . S
C2139 C2140 1.398 . S
C2139 C2145 1.491 . S
C2140 H2131 0.950 . S
C2140 C2139 1.398 . S
C2140 C2141 1.391 . S
C2141 H2129 0.950 . S
C2141 C2137 1.393 . S
C2141 C2140 1.391 . S
C2142 H2132 0.950 . S
C2142 C2143 1.386 . S
C2142 C2144 1.391 . S
C2143 C2142 1.386 . S
C2143 C2147 1.393 . S
C2144 H2133 0.950 . S
C2144 C2142 1.391 . S
C2144 C2145 1.400 . S
C2145 C2139 1.491 . S
C2145 C2144 1.400 . S
C2145 C2146 1.398 . S
C2146 H2134 0.950 . S
C2146 C2145 1.398 . S
C2146 C2147 1.391 . S
C2147 H2135 0.950 . S
C2147 C2143 1.393 . S
C2147 C2146 1.391 . S
H2148 C2156 0.950 . S
H2149 C2161 0.950 . S
H2150 C2158 0.950 . S
H2151 C2160 0.950 . S
H2152 C2162 0.950 . S
H2153 C2164 0.950 . S
H2154 C2166 0.950 . S
H2155 C2167 0.950 . S
C2156 H2148 0.950 . S
C2156 C2157 1.386 . S
C2156 C2158 1.391 . S
C2157 C2156 1.386 . S
C2157 C2161 1.393 . S
C2158 H2150 0.950 . S
C2158 C2156 1.391 . S
C2158 C2159 1.400 . S
C2159 C2158 1.400 . S
C2159 C2160 1.398 . S
C2159 C2165 1.491 . S
C2160 H2151 0.950 . S
C2160 C2159 1.398 . S
C2160 C2161 1.391 . S
C2161 H2149 0.950 . S
C2161 C2157 1.393 . S
C2161 C2160 1.391 . S
C2162 H2152 0.950 . S
C2162 C2163 1.386 . S
C2162 C2164 1.391 . S
C2163 C2162 1.386 . S
C2163 C2167 1.393 . S
C2164 H2153 0.950 . S
C2164 C2162 1.391 . S
C2164 C2165 1.400 . S
C2165 C2159 1.491 . S
C2165 C2164 1.400 . S
C2165 C2166 1.398 . S
C2166 H2154 0.950 . S
C2166 C2165 1.398 . S
C2166 C2167 1.391 . S
C2167 H2155 0.950 . S
C2167 C2163 1.393 . S
C2167 C2166 1.391 . S
H2168 C2176 0.950 . S
H2169 C2181 0.950 . S
H2170 C2178 0.950 . S
H2171 C2180 0.950 . S
H2172 C2182 0.950 . S
H2173 C2184 0.950 . S
H2174 C2186 0.950 . S
H2175 C2187 0.950 . S
C2176 H2168 0.950 . S
C2176 C2177 1.386 . S
C2176 C2178 1.391 . S
C2177 C2176 1.386 . S
C2177 C2181 1.393 . S
C2178 H2170 0.950 . S
C2178 C2176 1.391 . S
C2178 C2179 1.400 . S
C2179 C2178 1.400 . S
C2179 C2180 1.398 . S
C2179 C2185 1.491 . S
C2180 H2171 0.950 . S
C2180 C2179 1.398 . S
C2180 C2181 1.391 . S
C2181 H2169 0.950 . S
C2181 C2177 1.393 . S
C2181 C2180 1.391 . S
C2182 H2172 0.950 . S
C2182 C2183 1.386 . S
C2182 C2184 1.391 . S
C2183 C2182 1.386 . S
C2183 C2187 1.393 . S
C2184 H2173 0.950 . S
C2184 C2182 1.391 . S
C2184 C2185 1.400 . S
C2185 C2179 1.491 . S
C2185 C2184 1.400 . S
C2185 C2186 1.398 . S
C2186 H2174 0.950 . S
C2186 C2185 1.398 . S
C2186 C2187 1.391 . S
C2187 H2175 0.950 . S
C2187 C2183 1.393 . S
C2187 C2186 1.391 . S
H2188 C2196 0.950 . S
H2189 C2201 0.950 . S
H2190 C2198 0.950 . S
H2191 C2200 0.950 . S
H2192 C2202 0.950 . S
H2193 C2204 0.950 . S
H2194 C2206 0.950 . S
H2195 C2207 0.950 . S
C2196 H2188 0.950 . S
C2196 C2197 1.386 . S
C2196 C2198 1.391 . S
C2197 C2196 1.386 . S
C2197 C2201 1.393 . S
C2198 H2190 0.950 . S
C2198 C2196 1.391 . S
C2198 C2199 1.400 . S
C2199 C2198 1.400 . S
C2199 C2200 1.398 . S
C2199 C2205 1.491 . S
C2200 H2191 0.950 . S
C2200 C2199 1.398 . S
C2200 C2201 1.391 . S
C2201 H2189 0.950 . S
C2201 C2197 1.393 . S
C2201 C2200 1.391 . S
C2202 H2192 0.950 . S
C2202 C2203 1.386 . S
C2202 C2204 1.391 . S
C2203 C2202 1.386 . S
C2203 C2207 1.393 . S
C2204 H2193 0.950 . S
C2204 C2202 1.391 . S
C2204 C2205 1.400 . S
C2205 C2199 1.491 . S
C2205 C2204 1.400 . S
C2205 C2206 1.398 . S
C2206 H2194 0.950 . S
C2206 C2205 1.398 . S
C2206 C2207 1.391 . S
C2207 H2195 0.950 . S
C2207 C2203 1.393 . S
C2207 C2206 1.391 . S
H2208 C2216 0.950 . S
H2209 C2221 0.950 . S
H2210 C2218 0.950 . S
H2211 C2220 0.950 . S
H2212 C2222 0.950 . S
H2213 C2224 0.950 . S
H2214 C2226 0.950 . S
H2215 C2227 0.950 . S
C2216 H2208 0.950 . S
C2216 C2217 1.386 . S
C2216 C2218 1.391 . S
C2217 C2216 1.386 . S
C2217 C2221 1.393 . S
C2218 H2210 0.950 . S
C2218 C2216 1.391 . S
C2218 C2219 1.400 . S
C2219 C2218 1.400 . S
C2219 C2220 1.398 . S
C2219 C2225 1.491 . S
C2220 H2211 0.950 . S
C2220 C2219 1.398 . S
C2220 C2221 1.391 . S
C2221 H2209 0.950 . S
C2221 C2217 1.393 . S
C2221 C2220 1.391 . S
C2222 H2212 0.950 . S
C2222 C2223 1.386 . S
C2222 C2224 1.391 . S
C2223 C2222 1.386 . S
C2223 C2227 1.393 . S
C2224 H2213 0.950 . S
C2224 C2222 1.391 . S
C2224 C2225 1.400 . S
C2225 C2219 1.491 . S
C2225 C2224 1.400 . S
C2225 C2226 1.398 . S
C2226 H2214 0.950 . S
C2226 C2225 1.398 . S
C2226 C2227 1.391 . S
C2227 H2215 0.950 . S
C2227 C2223 1.393 . S
C2227 C2226 1.391 . S
H2228 C2236 0.950 . S
H2229 C2241 0.950 . S
H2230 C2238 0.950 . S
H2231 C2240 0.950 . S
H2232 C2242 0.950 . S
H2233 C2244 0.950 . S
H2234 C2246 0.950 . S
H2235 C2247 0.950 . S
C2236 H2228 0.950 . S
C2236 C2237 1.386 . S
C2236 C2238 1.391 . S
C2237 C2236 1.386 . S
C2237 C2241 1.393 . S
C2238 H2230 0.950 . S
C2238 C2236 1.391 . S
C2238 C2239 1.400 . S
C2239 C2238 1.400 . S
C2239 C2240 1.398 . S
C2239 C2245 1.491 . S
C2240 H2231 0.950 . S
C2240 C2239 1.398 . S
C2240 C2241 1.391 . S
C2241 H2229 0.950 . S
C2241 C2237 1.393 . S
C2241 C2240 1.391 . S
C2242 H2232 0.950 . S
C2242 C2243 1.386 . S
C2242 C2244 1.391 . S
C2243 C2242 1.386 . S
C2243 C2247 1.393 . S
C2244 H2233 0.950 . S
C2244 C2242 1.391 . S
C2244 C2245 1.400 . S
C2245 C2239 1.491 . S
C2245 C2244 1.400 . S
C2245 C2246 1.398 . S
C2246 H2234 0.950 . S
C2246 C2245 1.398 . S
C2246 C2247 1.391 . S
C2247 H2235 0.950 . S
C2247 C2243 1.393 . S
C2247 C2246 1.391 . S
H2248 C2256 0.950 . S
H2249 C2261 0.950 . S
H2250 C2258 0.950 . S
H2251 C2260 0.950 . S
H2252 C2262 0.950 . S
H2253 C2264 0.950 . S
H2254 C2266 0.950 . S
H2255 C2267 0.950 . S
C2256 H2248 0.950 . S
C2256 C2257 1.386 . S
C2256 C2258 1.391 . S
C2257 C2256 1.386 . S
C2257 C2261 1.393 . S
C2258 H2250 0.950 . S
C2258 C2256 1.391 . S
C2258 C2259 1.400 . S
C2259 C2258 1.400 . S
C2259 C2260 1.398 . S
C2259 C2265 1.491 . S
C2260 H2251 0.950 . S
C2260 C2259 1.398 . S
C2260 C2261 1.391 . S
C2261 H2249 0.950 . S
C2261 C2257 1.393 . S
C2261 C2260 1.391 . S
C2262 H2252 0.950 . S
C2262 C2263 1.386 . S
C2262 C2264 1.391 . S
C2263 C2262 1.386 . S
C2263 C2267 1.393 . S
C2264 H2253 0.950 . S
C2264 C2262 1.391 . S
C2264 C2265 1.400 . S
C2265 C2259 1.491 . S
C2265 C2264 1.400 . S
C2265 C2266 1.398 . S
C2266 H2254 0.950 . S
C2266 C2265 1.398 . S
C2266 C2267 1.391 . S
C2267 H2255 0.950 . S
C2267 C2263 1.393 . S
C2267 C2266 1.391 . S
H2268 C2276 0.950 . S
H2269 C2281 0.950 . S
H2270 C2278 0.950 . S
H2271 C2280 0.950 . S
H2272 C2282 0.950 . S
H2273 C2284 0.950 . S
H2274 C2286 0.950 . S
H2275 C2287 0.950 . S
C2276 H2268 0.950 . S
C2276 C2277 1.386 . S
C2276 C2278 1.391 . S
C2277 C2276 1.386 . S
C2277 C2281 1.393 . S
C2278 H2270 0.950 . S
C2278 C2276 1.391 . S
C2278 C2279 1.400 . S
C2279 C2278 1.400 . S
C2279 C2280 1.398 . S
C2279 C2285 1.491 . S
C2280 H2271 0.950 . S
C2280 C2279 1.398 . S
C2280 C2281 1.391 . S
C2281 H2269 0.950 . S
C2281 C2277 1.393 . S
C2281 C2280 1.391 . S
C2282 H2272 0.950 . S
C2282 C2283 1.386 . S
C2282 C2284 1.391 . S
C2283 C2282 1.386 . S
C2283 C2287 1.393 . S
C2284 H2273 0.950 . S
C2284 C2282 1.391 . S
C2284 C2285 1.400 . S
C2285 C2279 1.491 . S
C2285 C2284 1.400 . S
C2285 C2286 1.398 . S
C2286 H2274 0.950 . S
C2286 C2285 1.398 . S
C2286 C2287 1.391 . S
C2287 H2275 0.950 . S
C2287 C2283 1.393 . S
C2287 C2286 1.391 . S
H2288 C2296 0.950 . S
H2289 C2301 0.950 . S
H2290 C2298 0.950 . S
H2291 C2300 0.950 . S
H2292 C2302 0.950 . S
H2293 C2304 0.950 . S
H2294 C2306 0.950 . S
H2295 C2307 0.950 . S
C2296 H2288 0.950 . S
C2296 C2297 1.386 . S
C2296 C2298 1.391 . S
C2297 C2296 1.386 . S
C2297 C2301 1.393 . S
C2298 H2290 0.950 . S
C2298 C2296 1.391 . S
C2298 C2299 1.400 . S
C2299 C2298 1.400 . S
C2299 C2300 1.398 . S
C2299 C2305 1.491 . S
C2300 H2291 0.950 . S
C2300 C2299 1.398 . S
C2300 C2301 1.391 . S
C2301 H2289 0.950 . S
C2301 C2297 1.393 . S
C2301 C2300 1.391 . S
C2302 H2292 0.950 . S
C2302 C2303 1.386 . S
C2302 C2304 1.391 . S
C2303 C2302 1.386 . S
C2303 C2307 1.393 . S
C2304 H2293 0.950 . S
C2304 C2302 1.391 . S
C2304 C2305 1.400 . S
C2305 C2299 1.491 . S
C2305 C2304 1.400 . S
C2305 C2306 1.398 . S
C2306 H2294 0.950 . S
C2306 C2305 1.398 . S
C2306 C2307 1.391 . S
C2307 H2295 0.950 . S
C2307 C2303 1.393 . S
C2307 C2306 1.391 . S
H2308 C2316 0.950 . S
H2309 C2321 0.950 . S
H2310 C2318 0.950 . S
H2311 C2320 0.950 . S
H2312 C2322 0.950 . S
H2313 C2324 0.950 . S
H2314 C2326 0.950 . S
H2315 C2327 0.950 . S
C2316 H2308 0.950 . S
C2316 C2317 1.386 . S
C2316 C2318 1.391 . S
C2317 C2316 1.386 . S
C2317 C2321 1.393 . S
C2318 H2310 0.950 . S
C2318 C2316 1.391 . S
C2318 C2319 1.400 . S
C2319 C2318 1.400 . S
C2319 C2320 1.398 . S
C2319 C2325 1.491 . S
C2320 H2311 0.950 . S
C2320 C2319 1.398 . S
C2320 C2321 1.391 . S
C2321 H2309 0.950 . S
C2321 C2317 1.393 . S
C2321 C2320 1.391 . S
C2322 H2312 0.950 . S
C2322 C2323 1.386 . S
C2322 C2324 1.391 . S
C2323 C2322 1.386 . S
C2323 C2327 1.393 . S
C2324 H2313 0.950 . S
C2324 C2322 1.391 . S
C2324 C2325 1.400 . S
C2325 C2319 1.491 . S
C2325 C2324 1.400 . S
C2325 C2326 1.398 . S
C2326 H2314 0.950 . S
C2326 C2325 1.398 . S
C2326 C2327 1.391 . S
C2327 H2315 0.950 . S
C2327 C2323 1.393 . S
C2327 C2326 1.391 . S
H2328 C2336 0.950 . S
H2329 C2341 0.950 . S
H2330 C2338 0.950 . S
H2331 C2340 0.950 . S
H2332 C2342 0.950 . S
H2333 C2344 0.950 . S
H2334 C2346 0.950 . S
H2335 C2347 0.950 . S
C2336 H2328 0.950 . S
C2336 C2337 1.386 . S
C2336 C2338 1.391 . S
C2337 C2336 1.386 . S
C2337 C2341 1.393 . S
C2338 H2330 0.950 . S
C2338 C2336 1.391 . S
C2338 C2339 1.400 . S
C2339 C2338 1.400 . S
C2339 C2340 1.398 . S
C2339 C2345 1.491 . S
C2340 H2331 0.950 . S
C2340 C2339 1.398 . S
C2340 C2341 1.391 . S
C2341 H2329 0.950 . S
C2341 C2337 1.393 . S
C2341 C2340 1.391 . S
C2342 H2332 0.950 . S
C2342 C2343 1.386 . S
C2342 C2344 1.391 . S
C2343 C2342 1.386 . S
C2343 C2347 1.393 . S
C2344 H2333 0.950 . S
C2344 C2342 1.391 . S
C2344 C2345 1.400 . S
C2345 C2339 1.491 . S
C2345 C2344 1.400 . S
C2345 C2346 1.398 . S
C2346 H2334 0.950 . S
C2346 C2345 1.398 . S
C2346 C2347 1.391 . S
C2347 H2335 0.950 . S
C2347 C2343 1.393 . S
C2347 C2346 1.391 . S
H2348 C2356 0.950 . S
H2349 C2361 0.950 . S
H2350 C2358 0.950 . S
H2351 C2360 0.950 . S
H2352 C2362 0.950 . S
H2353 C2364 0.950 . S
H2354 C2366 0.950 . S
H2355 C2367 0.950 . S
C2356 H2348 0.950 . S
C2356 C2357 1.386 . S
C2356 C2358 1.391 . S
C2357 C2356 1.386 . S
C2357 C2361 1.393 . S
C2358 H2350 0.950 . S
C2358 C2356 1.391 . S
C2358 C2359 1.400 . S
C2359 C2358 1.400 . S
C2359 C2360 1.398 . S
C2359 C2365 1.491 . S
C2360 H2351 0.950 . S
C2360 C2359 1.398 . S
C2360 C2361 1.391 . S
C2361 H2349 0.950 . S
C2361 C2357 1.393 . S
C2361 C2360 1.391 . S
C2362 H2352 0.950 . S
C2362 C2363 1.386 . S
C2362 C2364 1.391 . S
C2363 C2362 1.386 . S
C2363 C2367 1.393 . S
C2364 H2353 0.950 . S
C2364 C2362 1.391 . S
C2364 C2365 1.400 . S
C2365 C2359 1.491 . S
C2365 C2364 1.400 . S
C2365 C2366 1.398 . S
C2366 H2354 0.950 . S
C2366 C2365 1.398 . S
C2366 C2367 1.391 . S
C2367 H2355 0.950 . S
C2367 C2363 1.393 . S
C2367 C2366 1.391 . S
H2368 C2376 0.950 . S
H2369 C2381 0.950 . S
H2370 C2378 0.950 . S
H2371 C2380 0.950 . S
H2372 C2382 0.950 . S
H2373 C2384 0.950 . S
H2374 C2386 0.950 . S
H2375 C2387 0.950 . S
C2376 H2368 0.950 . S
C2376 C2377 1.386 . S
C2376 C2378 1.391 . S
C2377 C2376 1.386 . S
C2377 C2381 1.393 . S
C2378 H2370 0.950 . S
C2378 C2376 1.391 . S
C2378 C2379 1.400 . S
C2379 C2378 1.400 . S
C2379 C2380 1.398 . S
C2379 C2385 1.491 1_565 S
C2380 H2371 0.950 . S
C2380 C2379 1.398 . S
C2380 C2381 1.391 . S
C2381 H2369 0.950 . S
C2381 C2377 1.393 . S
C2381 C2380 1.391 . S
C2382 H2372 0.950 . S
C2382 C2383 1.386 . S
C2382 C2384 1.391 . S
C2383 C2382 1.386 . S
C2383 C2387 1.393 . S
C2384 H2373 0.950 . S
C2384 C2382 1.391 . S
C2384 C2385 1.400 . S
C2385 C2379 1.491 1_545 S
C2385 C2384 1.400 . S
C2385 C2386 1.398 . S
C2386 H2374 0.950 . S
C2386 C2385 1.398 . S
C2386 C2387 1.391 . S
C2387 H2375 0.950 . S
C2387 C2383 1.393 . S
C2387 C2386 1.391 . S
H2388 C2396 0.950 . S
H2389 C2401 0.950 . S
H2390 C2398 0.950 . S
H2391 C2400 0.950 . S
H2392 C2402 0.950 . S
H2393 C2404 0.950 . S
H2394 C2406 0.950 . S
H2395 C2407 0.950 . S
C2396 H2388 0.950 . S
C2396 C2397 1.386 . S
C2396 C2398 1.391 . S
C2397 C2396 1.386 . S
C2397 C2401 1.393 . S
C2398 H2390 0.950 . S
C2398 C2396 1.391 . S
C2398 C2399 1.400 . S
C2399 C2398 1.400 . S
C2399 C2400 1.398 . S
C2399 C2405 1.491 . S
C2400 H2391 0.950 . S
C2400 C2399 1.398 . S
C2400 C2401 1.391 . S
C2401 H2389 0.950 . S
C2401 C2397 1.393 . S
C2401 C2400 1.391 . S
C2402 H2392 0.950 . S
C2402 C2403 1.386 . S
C2402 C2404 1.391 . S
C2403 C2402 1.386 . S
C2403 C2407 1.393 . S
C2404 H2393 0.950 . S
C2404 C2402 1.391 . S
C2404 C2405 1.400 . S
C2405 C2399 1.491 . S
C2405 C2404 1.400 . S
C2405 C2406 1.398 . S
C2406 H2394 0.950 . S
C2406 C2405 1.398 . S
C2406 C2407 1.391 . S
C2407 H2395 0.950 . S
C2407 C2403 1.393 . S
C2407 C2406 1.391 . S
H2408 C2416 0.950 . S
H2409 C2421 0.950 . S
H2410 C2418 0.950 . S
H2411 C2420 0.950 . S
H2412 C2422 0.950 . S
H2413 C2424 0.950 . S
H2414 C2426 0.950 . S
H2415 C2427 0.950 . S
C2416 H2408 0.950 . S
C2416 C2417 1.386 . S
C2416 C2418 1.391 1_565 S
C2417 C2416 1.386 . S
C2417 C2421 1.393 . S
C2418 H2410 0.950 . S
C2418 C2416 1.391 1_545 S
C2418 C2419 1.400 1_545 S
C2419 C2418 1.400 1_565 S
C2419 C2420 1.398 . S
C2419 C2425 1.491 1_565 S
C2420 H2411 0.950 . S
C2420 C2419 1.398 . S
C2420 C2421 1.391 . S
C2421 H2409 0.950 . S
C2421 C2417 1.393 . S
C2421 C2420 1.391 . S
C2422 H2412 0.950 . S
C2422 C2423 1.386 . S
C2422 C2424 1.391 1_545 S
C2423 C2422 1.386 . S
C2423 C2427 1.393 . S
C2424 H2413 0.950 . S
C2424 C2422 1.391 1_565 S
C2424 C2425 1.400 1_565 S
C2425 C2419 1.491 1_545 S
C2425 C2424 1.400 1_545 S
C2425 C2426 1.398 . S
C2426 H2414 0.950 . S
C2426 C2425 1.398 . S
C2426 C2427 1.391 . S
C2427 H2415 0.950 . S
C2427 C2423 1.393 . S
C2427 C2426 1.391 . S
H2428 C2436 0.950 . S
H2429 C2441 0.950 . S
H2430 C2438 0.950 . S
H2431 C2440 0.950 . S
H2432 C2442 0.950 . S
H2433 C2444 0.950 . S
H2434 C2446 0.950 . S
H2435 C2447 0.950 . S
C2436 H2428 0.950 . S
C2436 C2437 1.386 . S
C2436 C2438 1.391 . S
C2437 C2436 1.386 . S
C2437 C2441 1.393 . S
C2438 H2430 0.950 . S
C2438 C2436 1.391 . S
C2438 C2439 1.400 . S
C2439 C2438 1.400 . S
C2439 C2440 1.398 . S
C2439 C2445 1.491 1_554 S
C2440 H2431 0.950 . S
C2440 C2439 1.398 . S
C2440 C2441 1.391 . S
C2441 H2429 0.950 . S
C2441 C2437 1.393 . S
C2441 C2440 1.391 . S
C2442 H2432 0.950 . S
C2442 C2443 1.386 . S
C2442 C2444 1.391 . S
C2443 C2442 1.386 . S
C2443 C2447 1.393 . S
C2444 H2433 0.950 . S
C2444 C2442 1.391 . S
C2444 C2445 1.400 . S
C2445 C2439 1.491 1_556 S
C2445 C2444 1.400 . S
C2445 C2446 1.398 . S
C2446 H2434 0.950 . S
C2446 C2445 1.398 . S
C2446 C2447 1.391 . S
C2447 H2435 0.950 . S
C2447 C2443 1.393 . S
C2447 C2446 1.391 . S
H2448 C2456 0.950 . S
H2449 C2461 0.950 . S
H2450 C2458 0.950 . S
H2451 C2460 0.950 . S
H2452 C2462 0.950 . S
H2453 C2464 0.950 . S
H2454 C2466 0.950 . S
H2455 C2467 0.950 . S
C2456 H2448 0.950 . S
C2456 C2457 1.386 . S
C2456 C2458 1.391 . S
C2457 C2456 1.386 . S
C2457 C2461 1.393 . S
C2458 H2450 0.950 . S
C2458 C2456 1.391 . S
C2458 C2459 1.400 . S
C2459 C2458 1.400 . S
C2459 C2460 1.398 . S
C2459 C2465 1.491 1_545 S
C2460 H2451 0.950 . S
C2460 C2459 1.398 . S
C2460 C2461 1.391 . S
C2461 H2449 0.950 . S
C2461 C2457 1.393 . S
C2461 C2460 1.391 . S
C2462 H2452 0.950 . S
C2462 C2463 1.386 . S
C2462 C2464 1.391 . S
C2463 C2462 1.386 . S
C2463 C2467 1.393 . S
C2464 H2453 0.950 . S
C2464 C2462 1.391 . S
C2464 C2465 1.400 . S
C2465 C2459 1.491 1_565 S
C2465 C2464 1.400 . S
C2465 C2466 1.398 . S
C2466 H2454 0.950 . S
C2466 C2465 1.398 . S
C2466 C2467 1.391 . S
C2467 H2455 0.950 . S
C2467 C2463 1.393 . S
C2467 C2466 1.391 . S
H2468 C2476 0.950 . S
H2469 C2481 0.950 . S
H2470 C2478 0.950 . S
H2471 C2480 0.950 . S
H2472 C2482 0.950 . S
H2473 C2484 0.950 . S
H2474 C2486 0.950 . S
H2475 C2487 0.950 . S
C2476 H2468 0.950 . S
C2476 C2477 1.386 . S
C2476 C2478 1.391 . S
C2477 C2476 1.386 . S
C2477 C2481 1.393 . S
C2478 H2470 0.950 . S
C2478 C2476 1.391 . S
C2478 C2479 1.400 . S
C2479 C2478 1.400 . S
C2479 C2480 1.398 . S
C2479 C2485 1.491 . S
C2480 H2471 0.950 . S
C2480 C2479 1.398 . S
C2480 C2481 1.391 . S
C2481 H2469 0.950 . S
C2481 C2477 1.393 . S
C2481 C2480 1.391 . S
C2482 H2472 0.950 . S
C2482 C2483 1.386 . S
C2482 C2484 1.391 . S
C2483 C2482 1.386 . S
C2483 C2487 1.393 . S
C2484 H2473 0.950 . S
C2484 C2482 1.391 . S
C2484 C2485 1.400 . S
C2485 C2479 1.491 . S
C2485 C2484 1.400 . S
C2485 C2486 1.398 . S
C2486 H2474 0.950 . S
C2486 C2485 1.398 . S
C2486 C2487 1.391 . S
C2487 H2475 0.950 . S
C2487 C2483 1.393 . S
C2487 C2486 1.391 . S
H2488 C2496 0.950 . S
H2489 C2501 0.950 . S
H2490 C2498 0.950 . S
H2491 C2500 0.950 . S
H2492 C2502 0.950 . S
H2493 C2504 0.950 . S
H2494 C2506 0.950 . S
H2495 C2507 0.950 . S
C2496 H2488 0.950 . S
C2496 C2497 1.386 1_545 S
C2496 C2498 1.391 . S
C2497 C2496 1.386 1_565 S
C2497 C2501 1.393 . S
C2498 H2490 0.950 . S
C2498 C2496 1.391 . S
C2498 C2499 1.400 1_545 S
C2499 C2498 1.400 1_565 S
C2499 C2500 1.398 . S
C2499 C2505 1.491 1_565 S
C2500 H2491 0.950 . S
C2500 C2499 1.398 . S
C2500 C2501 1.391 . S
C2501 H2489 0.950 . S
C2501 C2497 1.393 . S
C2501 C2500 1.391 . S
C2502 H2492 0.950 . S
C2502 C2503 1.386 1_565 S
C2502 C2504 1.391 . S
C2503 C2502 1.386 1_545 S
C2503 C2507 1.393 . S
C2504 H2493 0.950 . S
C2504 C2502 1.391 . S
C2504 C2505 1.400 1_565 S
C2505 C2499 1.491 1_545 S
C2505 C2504 1.400 1_545 S
C2505 C2506 1.398 . S
C2506 H2494 0.950 . S
C2506 C2505 1.398 . S
C2506 C2507 1.391 . S
C2507 H2495 0.950 . S
C2507 C2503 1.393 . S
C2507 C2506 1.391 . S
H2508 C2516 0.950 . S
H2509 C2521 0.950 . S
H2510 C2518 0.950 . S
H2511 C2520 0.950 . S
H2512 C2522 0.950 . S
H2513 C2524 0.950 . S
H2514 C2526 0.950 . S
H2515 C2527 0.950 . S
C2516 H2508 0.950 . S
C2516 C2517 1.386 . S
C2516 C2518 1.391 . S
C2517 C2516 1.386 . S
C2517 C2521 1.393 . S
C2518 H2510 0.950 . S
C2518 C2516 1.391 . S
C2518 C2519 1.400 . S
C2519 C2518 1.400 . S
C2519 C2520 1.398 . S
C2519 C2525 1.491 1_556 S
C2520 H2511 0.950 . S
C2520 C2519 1.398 . S
C2520 C2521 1.391 . S
C2521 H2509 0.950 . S
C2521 C2517 1.393 . S
C2521 C2520 1.391 . S
C2522 H2512 0.950 . S
C2522 C2523 1.386 . S
C2522 C2524 1.391 . S
C2523 C2522 1.386 . S
C2523 C2527 1.393 . S
C2524 H2513 0.950 . S
C2524 C2522 1.391 . S
C2524 C2525 1.400 . S
C2525 C2519 1.491 1_554 S
C2525 C2524 1.400 . S
C2525 C2526 1.398 . S
C2526 H2514 0.950 . S
C2526 C2525 1.398 . S
C2526 C2527 1.391 . S
C2527 H2515 0.950 . S
C2527 C2523 1.393 . S
C2527 C2526 1.391 . S
H2528 C2536 0.950 . S
H2529 C2541 0.950 . S
H2530 C2538 0.950 . S
H2531 C2540 0.950 . S
H2532 C2542 0.950 . S
H2533 C2544 0.950 . S
H2534 C2546 0.950 . S
H2535 C2547 0.950 . S
C2536 H2528 0.950 . S
C2536 C2537 1.386 . S
C2536 C2538 1.391 . S
C2537 C2536 1.386 . S
C2537 C2541 1.393 . S
C2538 H2530 0.950 . S
C2538 C2536 1.391 . S
C2538 C2539 1.400 . S
C2539 C2538 1.400 . S
C2539 C2540 1.398 . S
C2539 C2545 1.491 . S
C2540 H2531 0.950 . S
C2540 C2539 1.398 . S
C2540 C2541 1.391 . S
C2541 H2529 0.950 . S
C2541 C2537 1.393 . S
C2541 C2540 1.391 . S
C2542 H2532 0.950 . S
C2542 C2543 1.386 . S
C2542 C2544 1.391 . S
C2543 C2542 1.386 . S
C2543 C2547 1.393 . S
C2544 H2533 0.950 . S
C2544 C2542 1.391 . S
C2544 C2545 1.400 . S
C2545 C2539 1.491 . S
C2545 C2544 1.400 . S
C2545 C2546 1.398 . S
C2546 H2534 0.950 . S
C2546 C2545 1.398 . S
C2546 C2547 1.391 . S
C2547 H2535 0.950 . S
C2547 C2543 1.393 . S
C2547 C2546 1.391 . S
H2548 C2556 0.950 . S
H2549 C2561 0.950 . S
H2550 C2558 0.950 . S
H2551 C2560 0.950 . S
H2552 C2562 0.950 . S
H2553 C2564 0.950 . S
H2554 C2566 0.950 . S
H2555 C2567 0.950 . S
C2556 H2548 0.950 . S
C2556 C2557 1.386 . S
C2556 C2558 1.391 . S
C2557 C2556 1.386 . S
C2557 C2561 1.393 . S
C2558 H2550 0.950 . S
C2558 C2556 1.391 . S
C2558 C2559 1.400 . S
C2559 C2558 1.400 . S
C2559 C2560 1.398 . S
C2559 C2565 1.491 1_556 S
C2560 H2551 0.950 . S
C2560 C2559 1.398 . S
C2560 C2561 1.391 . S
C2561 H2549 0.950 . S
C2561 C2557 1.393 . S
C2561 C2560 1.391 . S
C2562 H2552 0.950 . S
C2562 C2563 1.386 . S
C2562 C2564 1.391 . S
C2563 C2562 1.386 . S
C2563 C2567 1.393 . S
C2564 H2553 0.950 . S
C2564 C2562 1.391 . S
C2564 C2565 1.400 . S
C2565 C2559 1.491 1_554 S
C2565 C2564 1.400 . S
C2565 C2566 1.398 . S
C2566 H2554 0.950 . S
C2566 C2565 1.398 . S
C2566 C2567 1.391 . S
C2567 H2555 0.950 . S
C2567 C2563 1.393 . S
C2567 C2566 1.391 . S
H2568 C2576 0.950 . S
H2569 C2581 0.950 . S
H2570 C2578 0.950 . S
H2571 C2580 0.950 . S
H2572 C2582 0.950 . S
H2573 C2584 0.950 . S
H2574 C2586 0.950 . S
H2575 C2587 0.950 . S
C2576 H2568 0.950 . S
C2576 C2577 1.386 . S
C2576 C2578 1.391 . S
C2577 C2576 1.386 . S
C2577 C2581 1.393 . S
C2578 H2570 0.950 . S
C2578 C2576 1.391 . S
C2578 C2579 1.400 . S
C2579 C2578 1.400 . S
C2579 C2580 1.398 . S
C2579 C2585 1.491 . S
C2580 H2571 0.950 . S
C2580 C2579 1.398 . S
C2580 C2581 1.391 . S
C2581 H2569 0.950 . S
C2581 C2577 1.393 . S
C2581 C2580 1.391 . S
C2582 H2572 0.950 . S
C2582 C2583 1.386 . S
C2582 C2584 1.391 . S
C2583 C2582 1.386 . S
C2583 C2587 1.393 . S
C2584 H2573 0.950 . S
C2584 C2582 1.391 . S
C2584 C2585 1.400 . S
C2585 C2579 1.491 . S
C2585 C2584 1.400 . S
C2585 C2586 1.398 . S
C2586 H2574 0.950 . S
C2586 C2585 1.398 . S
C2586 C2587 1.391 . S
C2587 H2575 0.950 . S
C2587 C2583 1.393 . S
C2587 C2586 1.391 . S
H2588 C2596 0.950 . S
H2589 C2601 0.950 . S
H2590 C2598 0.950 . S
H2591 C2600 0.950 . S
H2592 C2602 0.950 . S
H2593 C2604 0.950 . S
H2594 C2606 0.950 . S
H2595 C2607 0.950 . S
C2596 H2588 0.950 . S
C2596 C2597 1.386 . S
C2596 C2598 1.391 . S
C2597 C2596 1.386 . S
C2597 C2601 1.393 . S
C2598 H2590 0.950 . S
C2598 C2596 1.391 . S
C2598 C2599 1.400 . S
C2599 C2598 1.400 . S
C2599 C2600 1.398 . S
C2599 C2605 1.491 . S
C2600 H2591 0.950 . S
C2600 C2599 1.398 . S
C2600 C2601 1.391 . S
C2601 H2589 0.950 . S
C2601 C2597 1.393 . S
C2601 C2600 1.391 . S
C2602 H2592 0.950 . S
C2602 C2603 1.386 . S
C2602 C2604 1.391 . S
C2603 C2602 1.386 . S
C2603 C2607 1.393 . S
C2604 H2593 0.950 . S
C2604 C2602 1.391 . S
C2604 C2605 1.400 . S
C2605 C2599 1.491 . S
C2605 C2604 1.400 . S
C2605 C2606 1.398 . S
C2606 H2594 0.950 . S
C2606 C2605 1.398 . S
C2606 C2607 1.391 . S
C2607 H2595 0.950 . S
C2607 C2603 1.393 . S
C2607 C2606 1.391 . S
H2608 C2616 0.950 . S
H2609 C2621 0.950 . S
H2610 C2618 0.950 . S
H2611 C2620 0.950 . S
H2612 C2622 0.950 . S
H2613 C2624 0.950 . S
H2614 C2626 0.950 . S
H2615 C2627 0.950 . S
C2616 H2608 0.950 . S
C2616 C2617 1.386 . S
C2616 C2618 1.391 . S
C2617 C2616 1.386 . S
C2617 C2621 1.393 . S
C2618 H2610 0.950 . S
C2618 C2616 1.391 . S
C2618 C2619 1.400 . S
C2619 C2618 1.400 . S
C2619 C2620 1.398 . S
C2619 C2625 1.491 . S
C2620 H2611 0.950 . S
C2620 C2619 1.398 . S
C2620 C2621 1.391 . S
C2621 H2609 0.950 . S
C2621 C2617 1.393 . S
C2621 C2620 1.391 . S
C2622 H2612 0.950 . S
C2622 C2623 1.386 . S
C2622 C2624 1.391 . S
C2623 C2622 1.386 . S
C2623 C2627 1.393 . S
C2624 H2613 0.950 . S
C2624 C2622 1.391 . S
C2624 C2625 1.400 . S
C2625 C2619 1.491 . S
C2625 C2624 1.400 . S
C2625 C2626 1.398 . S
C2626 H2614 0.950 . S
C2626 C2625 1.398 . S
C2626 C2627 1.391 . S
C2627 H2615 0.950 . S
C2627 C2623 1.393 . S
C2627 C2626 1.391 . S
H2628 C2636 0.950 . S
H2629 C2641 0.950 . S
H2630 C2638 0.950 . S
H2631 C2640 0.950 . S
H2632 C2642 0.950 . S
H2633 C2644 0.950 . S
H2634 C2646 0.950 . S
H2635 C2647 0.950 . S
C2636 H2628 0.950 . S
C2636 C2637 1.386 . S
C2636 C2638 1.391 . S
C2637 C2636 1.386 . S
C2637 C2641 1.393 . S
C2638 H2630 0.950 . S
C2638 C2636 1.391 . S
C2638 C2639 1.400 . S
C2639 C2638 1.400 . S
C2639 C2640 1.398 . S
C2639 C2645 1.491 1_556 S
C2640 H2631 0.950 . S
C2640 C2639 1.398 . S
C2640 C2641 1.391 . S
C2641 H2629 0.950 . S
C2641 C2637 1.393 . S
C2641 C2640 1.391 . S
C2642 H2632 0.950 . S
C2642 C2643 1.386 . S
C2642 C2644 1.391 . S
C2643 C2642 1.386 . S
C2643 C2647 1.393 . S
C2644 H2633 0.950 . S
C2644 C2642 1.391 . S
C2644 C2645 1.400 . S
C2645 C2639 1.491 1_554 S
C2645 C2644 1.400 . S
C2645 C2646 1.398 . S
C2646 H2634 0.950 . S
C2646 C2645 1.398 . S
C2646 C2647 1.391 . S
C2647 H2635 0.950 . S
C2647 C2643 1.393 . S
C2647 C2646 1.391 . S
H2648 C2656 0.950 . S
H2649 C2661 0.950 . S
H2650 C2658 0.950 . S
H2651 C2660 0.950 . S
H2652 C2662 0.950 . S
H2653 C2664 0.950 . S
H2654 C2666 0.950 . S
H2655 C2667 0.950 . S
C2656 H2648 0.950 . S
C2656 C2657 1.386 . S
C2656 C2658 1.391 . S
C2657 C2656 1.386 . S
C2657 C2661 1.393 . S
C2658 H2650 0.950 . S
C2658 C2656 1.391 . S
C2658 C2659 1.400 . S
C2659 C2658 1.400 . S
C2659 C2660 1.398 . S
C2659 C2665 1.491 . S
C2660 H2651 0.950 . S
C2660 C2659 1.398 . S
C2660 C2661 1.391 . S
C2661 H2649 0.950 . S
C2661 C2657 1.393 . S
C2661 C2660 1.391 . S
C2662 H2652 0.950 . S
C2662 C2663 1.386 . S
C2662 C2664 1.391 . S
C2663 C2662 1.386 . S
C2663 C2667 1.393 . S
C2664 H2653 0.950 . S
C2664 C2662 1.391 . S
C2664 C2665 1.400 . S
C2665 C2659 1.491 . S
C2665 C2664 1.400 . S
C2665 C2666 1.398 . S
C2666 H2654 0.950 . S
C2666 C2665 1.398 . S
C2666 C2667 1.391 . S
C2667 H2655 0.950 . S
C2667 C2663 1.393 . S
C2667 C2666 1.391 . S
H2668 C2676 0.950 . S
H2669 C2681 0.950 . S
H2670 C2678 0.950 . S
H2671 C2680 0.950 . S
H2672 C2682 0.950 . S
H2673 C2684 0.950 . S
H2674 C2686 0.950 . S
H2675 C2687 0.950 . S
C2676 H2668 0.950 . S
C2676 C2677 1.386 . S
C2676 C2678 1.391 . S
C2677 C2676 1.386 . S
C2677 C2681 1.393 . S
C2678 H2670 0.950 . S
C2678 C2676 1.391 . S
C2678 C2679 1.400 . S
C2679 C2678 1.400 . S
C2679 C2680 1.398 . S
C2679 C2685 1.491 . S
C2680 H2671 0.950 . S
C2680 C2679 1.398 . S
C2680 C2681 1.391 . S
C2681 H2669 0.950 . S
C2681 C2677 1.393 . S
C2681 C2680 1.391 . S
C2682 H2672 0.950 . S
C2682 C2683 1.386 . S
C2682 C2684 1.391 . S
C2683 C2682 1.386 . S
C2683 C2687 1.393 . S
C2684 H2673 0.950 . S
C2684 C2682 1.391 . S
C2684 C2685 1.400 . S
C2685 C2679 1.491 . S
C2685 C2684 1.400 . S
C2685 C2686 1.398 . S
C2686 H2674 0.950 . S
C2686 C2685 1.398 . S
C2686 C2687 1.391 . S
C2687 H2675 0.950 . S
C2687 C2683 1.393 . S
C2687 C2686 1.391 . S
C1097 C20 1.282 . S
C1103 C985 1.257 . S
C1117 C54 1.283 . S
C1123 C475 1.263 . S
C1137 C88 1.282 . S
C1143 C1053 1.256 . S
C1157 C122 1.288 . S
C1163 C543 1.268 . S
C1177 C849 1.256 . S
C1183 C156 1.282 . S
C1197 C190 1.284 . S
C1203 C339 1.264 . S
C1217 C224 1.287 . S
C1223 C917 1.265 . S
C1237 C407 1.273 . S
C1243 C258 1.290 . S
C1257 C713 1.261 . S
C1263 C292 1.283 . S
C1277 C326 1.287 . S
C1283 C203 1.264 . S
C1297 C360 1.290 . S
C1303 C781 1.277 . S
C1317 C271 1.257 . S
C1323 C394 1.283 . S
C1337 C577 1.257 . S
C1343 C428 1.282 . S
C1357 C67 1.256 . S
C1363 C462 1.282 . S
C1377 C496 1.285 . S
C1383 C645 1.268 . S
C1397 C530 1.290 . S
C1403 C135 1.277 . S
C1417 C564 1.283 . S
C1423 C441 1.262 . S
C1437 C1019 1.272 . S
C1443 C598 1.287 . S
C1457 C509 1.278 . S
C1463 C632 1.290 . S
C1477 C1087 1.257 . S
C1483 C666 1.282 . S
C1497 C305 1.256 . S
C1503 C700 1.282 . S
C1517 C734 1.291 . S
C1523 C883 1.278 . S
C1537 C373 1.275 . S
C1543 C768 1.288 . S
C1557 C951 1.260 . S
C1563 C802 1.285 . S
C1577 C169 1.275 . S
C1583 C836 1.288 . S
C1597 C747 1.278 . S
C1603 C870 1.291 . S
C1617 C237 1.257 . S
C1623 C904 1.283 . S
C1637 C815 1.266 . S
C1643 C938 1.284 . S
C1657 C33 1.268 . S
C1663 C972 1.285 . S
C1677 C611 1.269 . S
C1683 C1006 1.289 . S
C1697 C1040 1.290 . S
C1703 C101 1.277 . S
C1717 C679 1.268 . S
C1723 C1074 1.288 . S
C1737 C614 0.825 . S
C1743 C2 0.824 . S
C1757 C36 0.792 . S
C1763 C648 0.799 . S
C1777 C546 0.809 . S
C1783 C70 0.815 . S
C1797 C104 0.784 . S
C1803 C580 0.778 . S
C1817 C750 0.815 . S
C1823 C138 0.819 . S
C1837 C784 0.820 . S
C1843 C172 0.823 . S
C1857 C206 0.818 . S
C1863 C682 0.822 . S
C1877 C716 0.781 . S
C1883 C240 0.776 . S
C1897 C274 0.796 . S
C1903 C886 0.789 . S
C1917 C308 0.778 . S
C1923 C920 0.773 . S
C1937 C818 0.805 . S
C1943 C342 0.798 . S
C1957 C852 0.814 . S
C1963 C376 0.819 . S
C1977 C410 0.790 . S
C1983 C1022 0.798 . S
C1997 C1056 0.775 . S
C2003 C444 0.781 . S
C2017 C954 0.795 . S
C2023 C478 0.802 . S
C2037 C988 0.809 . S
C2043 C512 0.802 . S
C2057 C5 1.544 . S
C2063 C175 1.543 . S
C2077 C39 1.543 . S
C2083 C209 1.544 . S
C2097 C73 1.544 . S
C2103 C243 1.543 . S
C2117 C107 1.544 . S
C2123 C141 1.543 . S
C2137 C277 1.544 . S
C2143 C447 1.543 . S
C2157 C481 1.543 . S
C2163 C311 1.544 . S
C2177 C515 1.543 . S
C2183 C345 1.544 . S
C2197 C413 1.543 . S
C2203 C379 1.544 . S
C2217 C549 1.544 . S
C2223 C719 1.544 . S
C2237 C583 1.543 . S
C2243 C753 1.544 . S
C2257 C787 1.543 . S
C2263 C617 1.544 . S
C2277 C685 1.543 . S
C2283 C651 1.544 . S
C2297 C821 1.543 . S
C2303 C991 1.543 . S
C2317 C1025 1.543 . S
C2323 C855 1.543 . S
C2337 C1059 1.544 . S
C2343 C889 1.543 . S
C2357 C923 1.544 . S
C2363 C957 1.543 . S
C2377 C145 1.437 . S
C2383 C9 1.437 . S
C2397 C43 1.457 . S
C2403 C179 1.432 . S
C2417 C77 1.440 . S
C2423 C213 1.453 . S
C2437 C111 1.426 . S
C2443 C247 1.456 . S
C2457 C417 1.433 . S
C2463 C281 1.441 . S
C2477 C315 1.446 . S
C2483 C451 1.430 . S
C2497 C485 1.457 . S
C2503 C349 1.426 . S
C2517 C383 1.451 . S
C2523 C519 1.427 . S
C2537 C553 1.438 . S
C2543 C689 1.436 . S
C2557 C723 1.426 . S
C2563 C587 1.455 . S
C2577 C757 1.426 . S
C2583 C621 1.456 . S
C2597 C791 1.456 . S
C2603 C655 1.435 . S
C2617 C825 1.426 . S
C2623 C961 1.456 . S
C2637 C859 1.441 . S
C2643 C995 1.434 . S
C2657 C893 1.457 . S
C2663 C1029 1.432 . S
C2677 C927 1.454 . S
C2683 C1063 1.438 . S
