# Generated by pormake.
# Topology snp, (6)-cn, num edge types: 1
# Building blocks:
#     Node 0, Type 0, BuildingBlock: LEVNOQ01_clean_sbu_1, # of connection points: 6
#     Node 1, Type 0, BuildingBlock: LEVNOQ01_clean_sbu_1, # of connection points: 6
#     Node 2, Type 0, BuildingBlock: LEVNOQ01_clean_sbu_1, # of connection points: 6
#     Node 3, Type 0, BuildingBlock: LEVNOQ01_clean_sbu_1, # of connection points: 6
#     Edge 4, Type (0, 0), BuildingBlock: MIFKUJ_clean_linker_0, # of connection points: 2
#     Edge 5, Type (0, 0), BuildingBlock: MIFKUJ_clean_linker_0, # of connection points: 2
#     Edge 6, Type (0, 0), BuildingBlock: MIFKUJ_clean_linker_0, # of connection points: 2
#     Edge 7, Type (0, 0), BuildingBlock: MIFKUJ_clean_linker_0, # of connection points: 2
#     Edge 8, Type (0, 0), BuildingBlock: MIFKUJ_clean_linker_0, # of connection points: 2
#     Edge 9, Type (0, 0), BuildingBlock: MIFKUJ_clean_linker_0, # of connection points: 2
#     Edge 10, Type (0, 0), BuildingBlock: MIFKUJ_clean_linker_0, # of connection points: 2
#     Edge 11, Type (0, 0), BuildingBlock: MIFKUJ_clean_linker_0, # of connection points: 2
#     Edge 12, Type (0, 0), BuildingBlock: MIFKUJ_clean_linker_0, # of connection points: 2
#     Edge 13, Type (0, 0), BuildingBlock: MIFKUJ_clean_linker_0, # of connection points: 2
#     Edge 14, Type (0, 0), BuildingBlock: MIFKUJ_clean_linker_0, # of connection points: 2
#     Edge 15, Type (0, 0), BuildingBlock: MIFKUJ_clean_linker_0, # of connection points: 2
# Relax obj value: 0.511
# Max RMSD: 0.249
# Mean RMSD: 0.247
data_MOF--net-snp--node1-LEVNOQ01_clean_sbu_1--edge1-MIFKUJ_clean_linker_0
_symmetry_space_group_name_H-M    P1
_symmetry_Int_Tables_number       1
_symmetry_cell_setting            triclinic
loop_
_symmetry_equiv_pos_as_xyz
'x, y, z'
_cell_length_a     33.3284
_cell_length_b     33.471648
_cell_length_c     31.884152
_cell_angle_alpha  99.755745
_cell_angle_beta   99.739402
_cell_angle_gamma 92.040612
loop_
_atom_site_label
_atom_site_type_symbol
_atom_site_fract_x
_atom_site_fract_y
_atom_site_fract_z
_atom_type_partial_charge
O0 O 0.2092 0.11812 0.05936 0.0
Mg1 Mg 0.16879 0.06504 0.03966 0.0
O2 O 0.26156 0.07949 0.05982 0.0
Mg3 Mg 0.24752 0.02701 0.09612 0.0
O4 O 0.1825 0.03702 0.08964 0.0
O5 O 0.1188 0.0446 0.06742 0.0
O6 O 0.23366 0.97448 0.13189 0.0
O7 O 0.25823 0.07148 0.16023 0.0
Mg8 Mg 0.32688 0.00309 0.16626 0.0
O9 O 0.31254 0.01634 0.10603 0.0
O10 O 0.28897 0.95037 0.16579 0.0
O11 O 0.31166 0.05732 0.20627 0.0
O12 O 0.37552 0.00561 0.13135 0.0
C13 C 0.21257 0.99041 0.99351 0.0
C14 C 0.24511 0.1121 0.05238 0.0
C15 C 0.14543 0.02504 0.0885 0.0
C16 C 0.25052 0.9488 0.15348 0.0
C17 C 0.28224 0.07942 0.19666 0.0
C18 C 0.34977 0.01665 0.10128 0.0
O19 O 0.18869 0.01947 0.99128 0.0
O20 O 0.23499 0.9856 0.02895 0.0
O21 O 0.99745 0.29407 0.68291 0.0
Mg22 Mg 0.05127 0.32531 0.67181 0.0
O23 O 0.99676 0.23813 0.63317 0.0
Mg24 Mg 0.04673 0.24376 0.5915 0.0
O25 O 0.04698 0.30987 0.60698 0.0
O26 O 0.04877 0.37388 0.63638 0.0
O27 O 0.09842 0.25216 0.5516 0.0
O28 O -0.00189 0.23928 0.52725 0.0
Mg29 Mg 0.06475 0.15989 0.52302 0.0
O30 O 0.0484 0.17848 0.57944 0.0
O31 O 0.12222 0.192 0.53095 0.0
O32 O 0.01668 0.18548 0.48382 0.0
O33 O 0.05297 0.11374 0.55962 0.0
C34 C 0.11504 0.26475 0.68689 0.0
C35 C 0.98238 0.25872 0.6642 0.0
C36 C 0.04479 0.34671 0.60188 0.0
C37 C 0.12516 0.23055 0.53608 0.0
C38 C 0.99411 0.2152 0.49051 0.0
C39 C 0.04388 0.1429 0.58752 0.0
O40 O 0.10604 0.30102 0.69901 0.0
O41 O 0.09579 0.24284 0.65211 0.0
O42 O 0.73091 0.0312 0.89713 0.0
Mg43 Mg 0.71626 0.97474 0.9163 0.0
O44 O 0.78234 0.04727 0.9521 0.0
Mg45 Mg 0.78735 0.00055 0.99793 0.0
O46 O 0.71884 0.98389 0.98199 0.0
O47 O 0.66168 0.96316 0.93492 0.0
O48 O 0.79752 0.95716 0.04785 0.0
O49 O 0.77532 0.05025 0.05704 0.0
Mg50 Mg 0.86831 0.04303 0.07321 0.0
O51 O 0.85171 0.01782 0.01185 0.0
O52 O 0.84588 0.99257 0.10031 0.0
O53 O 0.83015 0.09265 0.0736 0.0
O54 O 0.91593 0.03433 0.0347 0.0
C55 C 0.78595 0.92405 0.90891 0.0
C56 C 0.76111 0.05497 0.91757 0.0
C57 C 0.67989 0.97491 0.97442 0.0
C58 C 0.81999 0.96209 0.08553 0.0
C59 C 0.79415 0.08357 0.07841 0.0
C60 C 0.88764 0.01719 1.00369 0.0
O61 O 0.7483 0.92489 0.89446 0.0
O62 O 0.80356 0.94938 0.94232 0.0
O63 O 0.96964 0.68735 0.38065 0.0
Mg64 Mg 0.02247 0.66886 0.42093 0.0
O65 O 0.94212 0.72778 0.42968 0.0
Mg66 Mg 0.98819 0.74058 0.49346 0.0
O67 O 0.00896 0.68042 0.4803 0.0
O68 O 0.01825 0.61815 0.4537 0.0
O69 O 0.03327 0.75775 0.558 0.0
O70 O 0.94473 0.71363 0.53534 0.0
Mg71 Mg 0.93803 0.79299 0.55024 0.0
O72 O 0.96545 0.80258 0.50056 0.0
O73 O 0.98918 0.78424 0.599 0.0
O74 O 0.89097 0.74711 0.52448 0.0
O75 O 0.93008 0.84903 0.53338 0.0
C76 C 0.0661 0.75121 0.438 0.0
C77 C 0.94188 0.71064 0.39066 0.0
C78 C 0.00703 0.64331 0.48402 0.0
C79 C 0.02454 0.77243 0.59486 0.0
C80 C 0.90835 0.71944 0.54129 0.0
C81 C 0.95238 0.8383 0.5046 0.0
O82 O 0.07123 0.71332 0.4299 0.0
O83 O 0.03645 0.76487 0.45602 0.0
H84 H 0.89002 0.93736 0.99998 0.0
H85 H 0.9379 0.8973 0.96533 0.0
H86 H 0.9531 0.98897 0.88814 0.0
H87 H 0.90854 0.03204 0.92759 0.0
H88 H 0.98606 0.86858 0.91716 0.0
H89 H 0.03664 0.01203 0.89158 0.0
H90 H 0.02434 0.08476 0.89407 0.0
H91 H 0.98999 0.09108 0.0188 0.0
H92 H 0.00187 0.01842 0.01683 0.0
H93 H 0.18481 0.95739 0.06294 0.0
H94 H 0.14454 0.90244 0.01318 0.0
H95 H 0.03914 0.93645 0.06824 0.0
H96 H 0.0784 0.99448 0.11509 0.0
H97 H 0.08127 0.98289 0.99906 0.0
H98 H 0.03522 0.84758 0.03373 0.0
H99 H 0.05203 0.77722 0.03959 0.0
H100 H 0.08138 0.75921 0.9119 0.0
H101 H 0.06538 0.82971 0.90582 0.0
C102 C 0.90256 0.94841 0.97453 0.0
C103 C 0.89778 0.98834 0.96797 0.0
C104 C 0.92979 0.9252 0.95405 0.0
C105 C 0.95259 0.94221 0.92729 0.0
C106 C 0.93868 0.9771 0.91177 0.0
C107 C 0.91301 0.00158 0.93398 0.0
C108 C 0.99671 0.93401 0.93263 0.0
C109 C 0.0072 0.8937 0.93446 0.0
C110 C 0.02652 0.96619 0.95262 0.0
C111 C 0.01952 0.00982 0.95371 0.0
C112 C 0.02636 0.02899 0.91941 0.0
C113 C 0.01938 0.07014 0.92072 0.0
C114 C 0.00623 0.09247 0.95648 0.0
C115 C 0.00011 0.07376 0.99109 0.0
C116 C 0.00691 0.03264 0.98989 0.0
C117 C 0.15374 0.95215 0.06649 0.0
C118 C 0.13402 0.98234 0.09019 0.0
C119 C 0.13069 0.91991 0.03807 0.0
C120 C 0.08833 0.9179 0.03451 0.0
C121 C 0.0718 0.93894 0.0691 0.0
C122 C 0.09427 0.97258 0.09598 0.0
C123 C 0.06458 0.91904 0.99128 0.0
C124 C 0.0607 0.95776 0.98056 0.0
C125 C 0.04036 0.88595 0.9651 0.0
C126 C 0.04906 0.84369 0.96921 0.0
C127 C 0.04542 0.82863 0.00702 0.0
C128 C 0.0548 0.78875 0.0104 0.0
C129 C 0.06774 0.76374 0.97614 0.0
C130 C 0.07127 0.77853 0.93839 0.0
C131 C 0.06196 0.81835 0.93492 0.0
H132 H 0.07503 0.73292 0.97884 0.0
H133 H 0.00091 0.1243 0.95744 0.0
H134 H 0.02885 0.87411 0.51199 0.0
H135 H 0.02625 0.9447 0.5468 0.0
H136 H 0.90185 0.94411 0.4809 0.0
H137 H 0.90622 0.87491 0.44448 0.0
H138 H 0.93031 0.01641 0.50655 0.0
H139 H 0.91286 0.91129 0.60701 0.0
H140 H 0.93701 0.85251 0.63958 0.0
H141 H 0.06065 0.90243 0.6598 0.0
H142 H 0.03704 0.96181 0.62818 0.0
H143 H 0.97133 0.16926 0.6045 0.0
H144 H 0.92412 0.1302 0.63419 0.0
H145 H 0.01917 0.05267 0.66986 0.0
H146 H 0.06802 0.09515 0.64669 0.0
H147 H 0.95922 0.00836 0.66254 0.0
H148 H 0.96305 0.09399 0.52017 0.0
H149 H 0.93109 0.14887 0.48725 0.0
H150 H 0.82712 0.13528 0.54813 0.0
H151 H 0.85853 0.07958 0.58113 0.0
C152 C 0.00203 0.89018 0.50268 0.0
C153 C 0.96551 0.86858 0.4811 0.0
C154 C 2e-05 0.92987 0.524 0.0
C155 C 0.96228 0.94754 0.52012 0.0
C156 C 0.93055 0.92998 0.4865 0.0
C157 C 0.93348 0.89073 0.46476 0.0
C158 C 0.95386 0.98048 0.55372 0.0
C159 C 0.93732 0.01498 0.54077 0.0
C160 C 0.95887 0.97693 0.59793 0.0
C161 C 0.97334 0.94019 0.61413 0.0
C162 C 0.94521 0.90939 0.61795 0.0
C163 C 0.95875 0.87618 0.63651 0.0
C164 C 0.00034 0.87367 0.65141 0.0
C165 C 0.02849 0.90432 0.64793 0.0
C166 C 0.01504 0.93775 0.62981 0.0
C167 C 0.98331 0.14655 0.62268 0.0
C168 C 0.02314 0.13442 0.62217 0.0
C169 C 0.95575 0.123 0.63832 0.0
C170 C 0.96658 0.08432 0.64538 0.0
C171 C 0.00858 0.07996 0.65885 0.0
C172 C 0.03693 0.10405 0.64512 0.0
C173 C 0.94388 0.04782 0.6162 0.0
C174 C 0.95197 0.01011 0.62843 0.0
C175 C 0.93128 0.04839 0.5712 0.0
C176 C 0.91346 0.08334 0.55381 0.0
C177 C 0.93354 0.10299 0.52685 0.0
C178 C 0.91557 0.13436 0.50831 0.0
C179 C 0.87729 0.14611 0.51606 0.0
C180 C 0.85693 0.12642 0.54247 0.0
C181 C 0.87481 0.09497 0.56116 0.0
H182 H 0.86312 0.17004 0.50114 0.0
H183 H 0.0107 0.84814 0.66603 0.0
H184 H 0.6912 0.04127 0.03856 0.0
H185 H 0.63519 0.07451 0.06846 0.0
H186 H 0.55436 0.96885 0.01081 0.0
H187 H 0.60994 0.93556 0.98122 0.0
H188 H 0.54838 0.06042 0.98192 0.0
H189 H 0.54456 0.97014 0.09016 0.0
H190 H 0.57609 0.94239 0.15392 0.0
H191 H 0.60336 0.06336 0.22677 0.0
H192 H 0.57239 0.09174 0.16305 0.0
H193 H 0.369 0.98415 0.02412 0.0
H194 H 0.4266 0.0121 0.99792 0.0
H195 H 0.42692 0.12398 0.08786 0.0
H196 H 0.36782 0.09668 0.11241 0.0
H197 H 0.48426 0.06315 0.11159 0.0
H198 H 0.45002 0.14092 1.00275 0.0
H199 H 0.41145 0.15928 0.93648 0.0
H200 H 0.44963 0.05388 0.86025 0.0
H201 H 0.48785 0.03443 0.92605 0.0
C202 C 0.66212 0.02429 0.0345 0.0
C203 C 0.65453 0.98613 0.00729 0.0
C204 C 0.63012 0.04349 0.05112 0.0
C205 C 0.59084 0.02419 0.04107 0.0
C206 C 0.58463 0.98408 0.01867 0.0
C207 C 0.6164 0.96502 1.00207 0.0
C208 C 0.55487 0.04729 0.04647 0.0
C209 C 0.53433 0.06176 0.01039 0.0
C210 C 0.53759 0.0498 0.08399 0.0
C211 C 0.55703 0.03301 0.12179 0.0
C212 C 0.55786 0.99078 0.1196 0.0
C213 C 0.57544 0.97494 0.15575 0.0
C214 C 0.59193 0.0011 0.19432 0.0
C215 C 0.59076 0.04315 0.19681 0.0
C216 C 0.57326 0.05912 0.1607 0.0
C217 C 0.3793 0.01579 0.03568 0.0
C218 C 0.36488 0.03821 0.07052 0.0
C219 C 0.41222 0.03189 0.02074 0.0
C220 C 0.43151 0.0697 0.04186 0.0
C221 C 0.41242 0.09476 0.07129 0.0
C222 C 0.37874 0.07907 0.08532 0.0
C223 C 0.47616 0.07406 0.04591 0.0
C224 C 0.49883 0.06437 0.0838 0.0
C225 C 0.49467 0.07474 0.00943 0.0
C226 C 0.47195 0.08626 0.96948 0.0
C227 C 0.45006 0.12152 0.9719 0.0
C228 C 0.42825 0.13214 0.93438 0.0
C229 C 0.42814 0.1078 0.89418 0.0
C230 C 0.44984 0.07278 0.89141 0.0
C231 C 0.47168 0.06199 0.92882 0.0
H232 H 0.41122 0.11606 0.86517 0.0
H233 H 0.60544 0.9888 0.22232 0.0
H234 H 0.97632 0.31641 0.54643 0.0
H235 H 0.9342 0.35961 0.50532 0.0
H236 H 0.03722 0.44637 0.52415 0.0
H237 H 0.07883 0.40392 0.56613 0.0
H238 H 0.95648 0.44071 0.58194 0.0
H239 H 0.01836 0.45806 0.45084 0.0
H240 H 0.02935 0.43064 0.37715 0.0
H241 H 0.90046 0.40229 0.33609 0.0
H242 H 0.88897 0.42885 0.40998 0.0
H243 H 0.03657 0.61571 0.55692 0.0
H244 H 0.00212 0.56053 0.57978 0.0
H245 H 0.89013 0.57927 0.49726 0.0
H246 H 0.92525 0.63475 0.47417 0.0
H247 H 0.92869 0.51754 0.46168 0.0
H248 H 0.88628 0.54841 0.5993 0.0
H249 H 0.89301 0.58384 0.6748 0.0
H250 H 0.00582 0.52905 0.70839 0.0
H251 H 0.00013 0.49378 0.63324 0.0
C252 C 0.99076 0.34311 0.53877 0.0
C253 C 0.03031 0.35761 0.55988 0.0
C254 C 0.96658 0.36779 0.51524 0.0
C255 C 0.98251 0.40627 0.51227 0.0
C256 C 0.02451 0.4165 0.52568 0.0
C257 C 0.04832 0.39239 0.55 0.0
C258 C 0.9559 0.44025 0.51428 0.0
C259 C 0.94926 0.45749 0.55562 0.0
C260 C 0.94592 0.46114 0.47975 0.0
C261 C 0.95292 0.44448 0.43592 0.0
C262 C 0.9925 0.44531 0.42627 0.0
C263 C -0.0012 0.4301 0.38446 0.0
C264 C 0.96565 0.41449 0.352 0.0
C265 C 0.92613 0.41414 0.36131 0.0
C266 C 0.91972 0.42915 0.40315 0.0
C267 C 0.00395 0.60984 0.54609 0.0
C268 C 0.98358 0.62833 0.51332 0.0
C269 C 0.98388 0.57842 0.55946 0.0
C270 C 0.94371 0.56486 0.53912 0.0
C271 C 0.9212 0.58896 0.51296 0.0
C272 C 0.94135 0.62051 0.49962 0.0
C273 C 0.93376 0.52054 0.53081 0.0
C274 C 0.933 0.50051 0.48801 0.0
C275 C 0.93976 0.49808 0.56481 0.0
C276 C 0.94241 0.51801 0.61059 0.0
C277 C 0.91243 0.54381 0.62283 0.0
C278 C 0.91614 0.56394 0.66561 0.0
C279 C 0.94977 0.55856 0.6964 0.0
C280 C 0.97967 0.53298 0.68457 0.0
C281 C 0.97609 0.51274 0.64193 0.0
H282 H 0.95288 0.57425 0.72942 0.0
H283 H 0.97055 0.40285 0.3196 0.0
H284 H 0.10865 0.28202 0.47937 0.0
H285 H 0.14433 0.28419 0.41868 0.0
H286 H 0.24107 0.21917 0.47845 0.0
H287 H 0.2049 0.21581 0.5384 0.0
H288 H 0.26513 0.27136 0.4192 0.0
H289 H 0.16605 0.16297 0.43002 0.0
H290 H 0.099 0.13618 0.43979 0.0
H291 H 0.04008 0.18847 0.33339 0.0
H292 H 0.10688 0.21634 0.32359 0.0
H293 H 0.32178 0.10349 0.28043 0.0
H294 H 0.30211 0.15533 0.33557 0.0
H295 H 0.20439 0.18538 0.24126 0.0
H296 H 0.22355 0.13359 0.18601 0.0
H297 H 0.17732 0.16682 0.30989 0.0
H298 H 0.28134 0.25565 0.28635 0.0
H299 H 0.34976 0.27771 0.27594 0.0
H300 H 0.40067 0.26008 0.40395 0.0
H301 H 0.33263 0.23735 0.41498 0.0
C302 C 0.13869 0.27038 0.4808 0.0
C303 C 0.15395 0.24831 0.51311 0.0
C304 C 0.15897 0.27153 0.44603 0.0
C305 C 0.19492 0.25124 0.44391 0.0
C306 C 0.21337 0.23501 0.4796 0.0
C307 C 0.1927 0.23307 0.51384 0.0
C308 C 0.20704 0.23715 0.4017 0.0
C309 C 0.24598 0.2488 0.39497 0.0
C310 C 0.18162 0.20808 0.37002 0.0
C311 C 0.14135 0.19228 0.37652 0.0
C312 C 0.13876 0.16925 0.4091 0.0
C313 C 0.10083 0.15375 0.41456 0.0
C314 C 0.06533 0.16057 0.38719 0.0
C315 C 0.06765 0.1832 0.35453 0.0
C316 C 0.10551 0.19894 0.34909 0.0
C317 C 0.29658 0.12162 0.2712 0.0
C318 C 0.27397 0.11401 0.22894 0.0
C319 C 0.28557 0.15149 0.30269 0.0
C320 C 0.25193 0.17437 0.2924 0.0
C321 C 0.23051 0.16813 0.2498 0.0
C322 C 0.24148 0.13837 0.21832 0.0
C323 C 0.23586 0.2005 0.32725 0.0
C324 C 0.19613 0.19063 0.33295 0.0
C325 C 0.26068 0.23099 0.35778 0.0
C326 C 0.30181 0.24457 0.35141 0.0
C327 C 0.30715 0.25616 0.31219 0.0
C328 C 0.34588 0.26885 0.30619 0.0
C329 C 0.37955 0.27025 0.33924 0.0
C330 C 0.37454 0.259 0.37838 0.0
C331 C 0.33587 0.24627 0.38455 0.0
H332 H 0.4095 0.2801 0.33454 0.0
H333 H 0.03604 0.14824 0.39124 0.0
H334 H 0.90069 0.26876 0.66125 0.0
H335 H 0.85533 0.23713 0.70152 0.0
H336 H 0.95586 0.17309 0.75633 0.0
H337 H 3e-05 0.20301 0.71454 0.0
H338 H 0.89506 0.12576 0.74429 0.0
H339 H 0.92179 0.26387 0.81041 0.0
H340 H 0.92573 0.33836 0.81659 0.0
H341 H 0.79549 0.33605 0.78035 0.0
H342 H 0.7908 0.26134 0.77326 0.0
H343 H 0.83653 0.09475 0.93732 0.0
H344 H 0.86662 0.13681 0.89383 0.0
H345 H 0.75065 0.13289 0.80908 0.0
H346 H 0.72018 0.08969 0.85194 0.0
H347 H 0.81285 0.21395 0.83327 0.0
H348 H 0.79813 0.06532 0.78347 0.0
H349 H 0.80951 -0.00218 0.80235 0.0
H350 H 0.93896 0.02576 0.82725 0.0
H351 H 0.92824 0.09486 0.81261 0.0
C352 C 0.91261 0.24742 0.68148 0.0
C353 C 0.95355 0.23801 0.68488 0.0
C354 C 0.8869 0.2296 0.70474 0.0
C355 C 0.90219 0.20313 0.73274 0.0
C356 C 0.94305 0.19322 0.73506 0.0
C357 C 0.96838 0.21041 0.71132 0.0
C358 C 0.87654 0.18674 0.76092 0.0
C359 C 0.87716 0.14522 0.76363 0.0
C360 C 0.85343 0.21199 0.7869 0.0
C361 C 0.85599 0.2569 0.79068 0.0
C362 C 0.894 0.27917 0.80332 0.0
C363 C 0.89637 0.32145 0.80706 0.0
C364 C 0.86089 0.34191 0.79871 0.0
C365 C 0.82295 0.32012 0.78667 0.0
C366 C 0.82041 0.2778 0.78277 0.0
C367 C 0.81695 0.10374 0.91023 0.0
C368 C 0.77605 0.08824 0.89764 0.0
C369 C 0.83428 0.12792 0.88548 0.0
C370 C 0.81093 0.13754 0.8481 0.0
C371 C 0.76909 0.12573 0.83789 0.0
C372 C 0.75183 0.10084 0.86224 0.0
C373 C 0.83172 0.15349 0.81624 0.0
C374 C 0.83019 0.19469 0.81306 0.0
C375 C 0.85598 0.12848 0.79173 0.0
C376 C 0.86227 0.08576 0.79758 0.0
C377 C 0.82899 0.05749 0.79384 0.0
C378 C 0.83533 0.01894 0.80408 0.0
C379 C 0.87493 0.00744 0.81598 0.0
C380 C 0.90826 0.03469 0.81821 0.0
C381 C 0.90203 0.07375 0.80939 0.0
H382 H 0.87978 0.97734 0.82317 0.0
H383 H 0.86278 0.37465 0.8017 0.0
H384 H 0.87877 0.76064 0.39821 0.0
H385 H 0.84586 0.79831 0.34388 0.0
H386 H 0.91165 0.73509 0.25038 0.0
H387 H 0.9443 0.69696 0.30404 0.0
H388 H 0.9231 0.82052 0.26312 0.0
H389 H 0.8128 0.71681 0.23704 0.0
H390 H 0.75941 0.67506 0.25761 0.0
H391 H 0.7005 0.78253 0.30081 0.0
H392 H 0.75392 0.82503 0.28113 0.0
H393 H 0.83146 0.88127 0.06736 0.0
H394 H 0.83961 0.83396 0.11899 0.0
H395 H 0.80983 0.92695 0.21794 0.0
H396 H 0.8036 0.97482 0.16705 0.0
H397 H 0.77639 0.82829 0.2042 0.0
H398 H 0.88918 0.93192 0.24399 0.0
H399 H 0.94111 0.97724 0.22586 0.0
H400 H 0.99431 0.87393 0.16271 0.0
H401 H 0.94198 0.82801 0.1797 0.0
C402 C 0.88532 0.75374 0.36572 0.0
C403 C 0.91433 0.72565 0.35566 0.0
C404 C 0.86653 0.77547 0.33472 0.0
C405 C 0.87649 0.76969 0.29314 0.0
C406 C 0.90359 0.7401 0.2823 0.0
C407 C 0.92202 0.71805 0.31304 0.0
C408 C 0.86183 0.7969 0.26224 0.0
C409 C 0.89102 0.8218 0.25 0.0
C410 C 0.81987 0.79973 0.24623 0.0
C411 C 0.78766 0.77417 0.258 0.0
C412 C 0.7887 0.7316 0.25131 0.0
C413 C 0.75837 0.70778 0.26273 0.0
C414 C 0.72664 0.72613 0.28061 0.0
C415 C 0.72513 0.76836 0.28701 0.0
C416 C 0.75542 0.79233 0.27569 0.0
C417 C 0.82571 0.89119 0.09983 0.0
C418 C 0.81701 0.93155 0.11341 0.0
C419 C 0.83032 0.86423 0.12923 0.0
C420 C 0.82525 0.87701 0.17221 0.0
C421 C 0.81365 0.91648 0.18488 0.0
C422 C 0.81025 0.94377 0.15589 0.0
C423 C 0.83776 0.85114 0.20498 0.0
C424 C 0.80836 0.8268 0.21756 0.0
C425 C 0.87943 0.84932 0.22226 0.0
C426 C 0.91129 0.87661 0.21245 0.0
C427 C 0.91163 0.9189 0.22574 0.0
C428 C 0.94117 0.94469 0.21578 0.0
C429 C 0.97089 0.92848 0.19297 0.0
C430 C 0.97117 0.88644 0.18024 0.0
C431 C 0.94156 0.86051 0.19 0.0
H432 H 0.99377 0.94848 0.1853 0.0
H433 H 0.70318 0.70764 0.2894 0.0
H434 H 0.02693 0.73987 0.66747 0.0
H435 H 0.07187 0.76292 0.73716 0.0
H436 H 0.13472 0.84959 0.68064 0.0
H437 H 0.09196 0.82386 0.6102 0.0
H438 H 0.18654 0.82966 0.73868 0.0
H439 H 0.04974 0.87707 0.74428 0.0
H440 H 0.97486 0.86932 0.73818 0.0
H441 H 0.98828 0.78509 0.82646 0.0
H442 H 0.06321 0.79187 0.83243 0.0
H443 H 0.21044 0.00257 0.91116 0.0
H444 H 0.19176 0.95164 0.84494 0.0
H445 H 0.18819 0.85742 0.92147 0.0
H446 H 0.20853 0.90822 0.98786 0.0
H447 H 0.11184 0.87078 0.85948 0.0
H448 H 0.2523 0.84414 0.86725 0.0
H449 H 0.32593 0.8622 0.87579 0.0
H450 H 0.3047 0.91628 0.76182 0.0
H451 H 0.23079 0.89909 0.75293 0.0
C452 C 0.05132 0.76286 0.66982 0.0
C453 C 0.05643 0.77991 0.63369 0.0
C454 C 0.07655 0.77658 0.70978 0.0
C455 C 0.10589 0.80913 0.71481 0.0
C456 C 0.11236 0.82457 0.67791 0.0
C457 C 0.08804 0.80981 0.63759 0.0
C458 C 0.12777 0.82902 0.75856 0.0
C459 C 0.17007 0.83874 0.76495 0.0
C460 C 0.10679 0.84029 0.79353 0.0
C461 C 0.06186 0.83488 0.78868 0.0
C462 C 0.0366 0.85665 0.76204 0.0
C463 C 0.99423 0.85244 0.75862 0.0
C464 C 0.97689 0.82672 0.78188 0.0
C465 C 0.00181 0.80498 0.80846 0.0
C466 C 0.04419 0.80903 0.81191 0.0
C467 C 0.20657 0.97086 0.91372 0.0
C468 C 0.21026 0.95925 0.9544 0.0
C469 C 0.19611 0.94184 0.876 0.0
C470 C 0.18854 0.90089 0.87846 0.0
C471 C 0.19412 0.8889 0.91903 0.0
C472 C 0.20571 0.91786 0.9568 0.0
C473 C 0.17003 0.872 0.83892 0.0
C474 C 0.12833 0.86084 0.83337 0.0
C475 C 0.19143 0.86033 0.80465 0.0
C476 C 0.2359 0.87059 0.80964 0.0
C477 C 0.26325 0.86022 0.84421 0.0
C478 C 0.30506 0.87022 0.84907 0.0
C479 C 0.31998 0.89046 0.81942 0.0
C480 C 0.2931 0.90063 0.78478 0.0
C481 C 0.25123 0.8907 0.77978 0.0
H482 H 0.35236 0.89819 0.82324 0.0
H483 H 0.9442 0.82379 0.7795 0.0
H484 H 0.85692 0.94019 0.88127 0.0
H485 H 0.88746 0.8965 0.82672 0.0
H486 H 0.79435 0.80154 0.82005 0.0
H487 H 0.76492 0.84476 0.87525 0.0
H488 H 0.86403 0.7685 0.81247 0.0
H489 H 0.78673 0.86984 0.74888 0.0
H490 H 0.76682 0.93635 0.73187 0.0
H491 H 0.88561 0.96058 0.70302 0.0
H492 H 0.90631 0.89433 0.72011 0.0
H493 H 0.83324 0.72091 0.56389 0.0
H494 H 0.82044 0.74466 0.63683 0.0
H495 H 0.94722 0.73593 0.68868 0.0
H496 H 0.96001 0.71059 0.61588 0.0
H497 H 0.87064 0.82109 0.67735 0.0
H498 H 0.9487 0.72137 0.76593 0.0
H499 H 0.95975 0.6508 0.77634 0.0
H500 H 0.83032 0.62194 0.74849 0.0
H501 H 0.81867 0.69234 0.73785 0.0
C502 C 0.84431 0.90937 0.86954 0.0
C503 C 0.80929 0.89551 0.88325 0.0
C504 C 0.86117 0.88467 0.8377 0.0
C505 C 0.84292 0.84579 0.81876 0.0
C506 C 0.8091 0.8313 0.8341 0.0
C507 C 0.79231 0.85598 0.86573 0.0
C508 C 0.85695 0.82087 0.78121 0.0
C509 C 0.86572 0.78029 0.7831 0.0
C510 C 0.85943 0.8359 0.74264 0.0
C511 C 0.84827 0.87731 0.7364 0.0
C512 C 0.80885 0.88962 0.73964 0.0
C513 C 0.79729 0.92712 0.72958 0.0
C514 C 0.82483 0.9525 0.71605 0.0
C515 C 0.86423 0.94079 0.71328 0.0
C516 C 0.87592 0.9033 0.72323 0.0
C517 C 0.85797 0.72185 0.59097 0.0
C518 C 0.8978 0.7147 0.5838 0.0
C519 C 0.85068 0.7358 0.63269 0.0
C520 C 0.88295 0.7426 0.66813 0.0
C521 C 0.92177 0.73067 0.66189 0.0
C522 C 0.929 0.71612 0.62006 0.0
C523 C 0.87721 0.76908 0.70875 0.0
C524 C 0.86986 0.80988 0.70724 0.0
C525 C 0.87588 0.7544 0.7474 0.0
C526 C 0.88289 0.71175 0.75084 0.0
C527 C 0.9227 0.69978 0.76163 0.0
C528 C 0.92904 0.65992 0.76774 0.0
C529 C 0.89571 0.63199 0.76329 0.0
C530 C 0.85605 0.64365 0.75205 0.0
C531 C 0.84958 0.68346 0.74592 0.0
H532 H 0.90055 0.60131 0.76861 0.0
H533 H 0.81572 0.9814 0.70801 0.0
H534 H 0.17496 0.96183 0.17204 0.0
H535 H 0.14024 0.92715 0.21864 0.0
H536 H 0.23326 0.84103 0.22398 0.0
H537 H 0.26898 0.87627 0.17812 0.0
H538 H 0.13616 0.81449 0.21729 0.0
H539 H 0.25799 0.89865 0.29872 0.0
H540 H 0.30107 0.96276 0.31568 0.0
H541 H 0.19981 0.0284 0.35075 0.0
H542 H 0.15591 0.96464 0.33316 0.0
H543 H 0.13362 0.73309 0.40271 0.0
H544 H 0.16239 0.76933 0.35357 0.0
H545 H 0.08352 0.86657 0.37855 0.0
H546 H 0.05361 0.83004 0.4276 0.0
H547 H 0.16838 0.89024 0.36842 0.0
H548 H 0.04868 0.80731 0.29705 0.0
H549 H 0.00267 0.7452 0.27812 0.0
H550 H 0.09467 0.67948 0.22205 0.0
H551 H 0.14157 0.74113 0.24135 0.0
C552 C 0.18731 0.93465 0.18177 0.0
C553 C 0.22477 0.9218 0.17158 0.0
C554 C 0.16751 0.91504 0.20857 0.0
C555 C 0.18446 0.88185 0.22479 0.0
C556 C 0.21984 0.86664 0.21158 0.0
C557 C 0.24017 0.88679 0.1855 0.0
C558 C 0.16843 0.86674 0.25993 0.0
C559 C 0.14342 0.83072 0.25038 0.0
C560 C 0.17708 0.88882 0.30272 0.0
C561 C 0.20358 0.927 0.31413 0.0
C562 C 0.24482 0.92681 0.30963 0.0
C563 C 0.2694 0.96306 0.31943 0.0
C564 C 0.25315 -0.00034 0.33415 0.0
C565 C 0.21233 3e-05 0.33925 0.0
C566 C 0.18759 0.96385 0.32939 0.0
C567 C 0.12288 0.76261 0.39868 0.0
C568 C 0.09068 0.77829 0.41847 0.0
C569 C 0.1394 0.78322 0.3705 0.0
C570 C 0.12444 0.8201 0.36193 0.0
C571 C 0.09518 0.83793 0.38471 0.0
C572 C 0.07825 0.81706 0.41278 0.0
C573 C 0.13668 0.83744 0.32604 0.0
C574 C 0.1609 0.87399 0.33535 0.0
C575 C 0.12692 0.81601 0.28292 0.0
C576 C 0.09883 0.77879 0.27107 0.0
C577 C 0.05929 0.77953 0.28109 0.0
C578 C 0.033 0.74442 0.27022 0.0
C579 C 0.04578 0.70838 0.249 0.0
C580 C 0.08485 0.70742 0.23855 0.0
C581 C 0.11129 0.74246 0.24942 0.0
H582 H 0.02537 0.68124 0.24056 0.0
H583 H 0.27222 0.0277 0.3417 0.0
H584 H 0.17061 0.30323 0.7562 0.0
H585 H 0.2105 0.27236 0.81224 0.0
H586 H 0.16544 0.15308 0.74206 0.0
H587 H 0.12519 0.18377 0.68575 0.0
H588 H 0.15421 0.16215 0.82415 0.0
H589 H 0.26507 0.18013 0.75396 0.0
H590 H 0.31141 0.21482 0.71703 0.0
H591 H 0.35067 0.30311 0.83263 0.0
H592 H 0.3041 0.26928 0.87017 0.0
H593 H 0.28696 0.0817 0.98884 0.0
H594 H 0.28412 0.10621 0.92051 0.0
H595 H 0.23096 0.21471 0.97333 0.0
H596 H 0.23234 0.1899 0.04136 0.0
H597 H 0.29924 0.19852 0.89228 0.0
H598 H 0.1527 0.18745 0.93476 0.0
H599 H 0.11078 0.14786 0.97231 0.0
H600 H 0.14642 0.03677 0.90417 0.0
H601 H 0.18958 0.07577 0.86719 0.0
C602 C 0.16983 0.27041 0.75217 0.0
C603 C 0.14465 0.24602 0.71657 0.0
C604 C 0.19281 0.25277 0.78417 0.0
C605 C 0.19107 0.2104 0.78126 0.0
C606 C 0.16729 0.18584 0.74487 0.0
C607 C 0.1445 0.20346 0.71261 0.0
C608 C 0.21084 0.19247 0.81838 0.0
C609 C 0.18611 0.16954 0.83838 0.0
C610 C 0.25257 0.20172 0.83703 0.0
C611 C 0.28084 0.22227 0.81483 0.0
C612 C 0.28335 0.20712 0.77146 0.0
C613 C 0.30971 0.2266 0.75042 0.0
C614 C 0.33392 0.26119 0.77245 0.0
C615 C 0.33188 0.27631 0.81561 0.0
C616 C 0.30555 0.25694 0.83682 0.0
C617 C 0.27654 0.11172 0.98677 0.0
C618 C 0.25929 0.1337 0.02029 0.0
C619 C 0.27492 0.1256 0.94758 0.0
C620 C 0.257 0.16199 0.94198 0.0
C621 C 0.24494 0.18653 0.97727 0.0
C622 C 0.2458 0.17236 0.01613 0.0
C623 C 0.24215 0.16985 0.89806 0.0
C624 C 0.26765 0.19069 0.87713 0.0
C625 C 0.20144 0.15797 0.87783 0.0
C626 C 0.17421 0.13445 0.89831 0.0
C627 C 0.15149 0.15457 0.92778 0.0
C628 C 0.12782 0.13226 0.94917 0.0
C629 C 0.12633 0.08983 0.94091 0.0
C630 C 0.1481 0.06962 0.91087 0.0
C631 C 0.17222 0.0918 0.88978 0.0
H632 H 0.10833 0.07261 0.95779 0.0
H633 H 0.3543 0.27624 0.75609 0.0
H634 H 0.76954 0.15899 0.10886 0.0
H635 H 0.78125 0.19166 0.18522 0.0
H636 H 0.82108 0.07882 0.22144 0.0
H637 H 0.80384 0.04561 0.14649 0.0
H638 H 0.80236 0.11371 0.28551 0.0
H639 H 0.88646 0.16692 0.19227 0.0
H640 H 0.89755 0.20174 0.13242 0.0
H641 H 0.84294 0.30693 0.18973 0.0
H642 H 0.83127 0.27254 0.2497 0.0
H643 H 0.00547 0.21617 0.40925 0.0
H644 H 0.95378 0.20335 0.3438 0.0
H645 H 0.85915 0.21088 0.42144 0.0
H646 H 0.91171 0.22411 0.48759 0.0
H647 H 0.89271 0.239 0.30659 0.0
H648 H 0.7838 0.13499 0.3698 0.0
H649 H 0.78512 0.08877 0.4227 0.0
H650 H 0.91114 0.07016 0.41771 0.0
H651 H 0.91057 0.11634 0.36498 0.0
C652 C 0.77848 0.14084 0.13355 0.0
C653 C 0.78551 0.09969 0.1218 0.0
C654 C 0.78634 0.15974 0.17725 0.0
C655 C 0.80442 0.13861 0.20957 0.0
C656 C 0.80764 0.0965 0.19784 0.0
C657 C 0.79761 0.07723 0.15464 0.0
C658 C 0.82436 0.16014 0.25399 0.0
C659 C 0.8217 0.14138 0.2899 0.0
C660 C 0.85015 0.19629 0.26073 0.0
C661 C 0.85749 0.21701 0.22499 0.0
C662 C 0.87673 0.19743 0.19195 0.0
C663 C 0.88309 0.21707 0.15804 0.0
C664 C 0.8708 0.25646 0.15718 0.0
C665 C 0.85231 0.27638 0.19036 0.0
C666 C 0.84582 0.25684 0.22429 0.0
C667 C 0.97363 0.21591 0.41234 0.0
C668 C 0.96258 0.2202 0.45336 0.0
C669 C 0.94401 0.20864 0.37489 0.0
C670 C 0.90243 0.20521 0.37748 0.0
C671 C 0.89105 0.21271 0.41856 0.0
C672 C 0.921 0.2207 0.45631 0.0
C673 C 0.87205 0.19136 0.33695 0.0
C674 C 0.87254 0.21185 0.30211 0.0
C675 C 0.84613 0.1556 0.33065 0.0
C676 C 0.84727 0.12962 0.36406 0.0
C677 C 0.81183 0.12125 0.38028 0.0
C678 C 0.81243 0.09498 0.41012 0.0
C679 C 0.84819 0.07654 0.42353 0.0
C680 C 0.88348 0.0845 0.40732 0.0
C681 C 0.88312 0.11094 0.37771 0.0
H682 H 0.8486 0.0562 0.44661 0.0
H683 H 0.87569 0.27159 0.13087 0.0
loop_
_geom_bond_atom_site_label_1
_geom_bond_atom_site_label_2
_geom_bond_distance
_geom_bond_site_symmetry_2
_ccdc_geom_bond_type
O0 Mg1 1.990 . S
O0 C14 1.253 . S
Mg1 O0 1.990 . S
Mg1 O4 2.180 1_556 S
Mg1 O5 2.117 1_556 S
Mg1 O19 2.030 1_545 S
O2 Mg3 2.072 . S
O2 C14 1.260 1_554 S
Mg3 O2 2.072 . S
Mg3 O4 2.099 . S
Mg3 O6 2.079 1_545 S
Mg3 O7 2.072 . S
Mg3 O9 2.099 . S
Mg3 O20 2.079 1_545 S
O4 Mg1 2.180 1_554 S
O4 Mg3 2.099 . S
O4 C15 1.279 . S
O5 Mg1 2.117 1_554 S
O5 C15 1.250 . S
O6 Mg3 2.079 1_565 S
O6 C16 1.264 . S
O7 Mg3 2.072 . S
O7 C17 1.260 . S
Mg8 O9 2.180 . S
Mg8 O10 2.030 1_545 S
Mg8 O11 1.990 . S
Mg8 O12 2.117 . S
O9 Mg3 2.099 . S
O9 Mg8 2.180 . S
O9 C18 1.279 . S
O10 Mg8 2.030 1_565 S
O10 C16 1.248 . S
O11 Mg8 1.990 . S
O11 C17 1.253 . S
O12 Mg8 2.117 . S
O12 C18 1.250 . S
C13 O19 1.248 . S
C13 O20 1.264 1_556 S
C14 O0 1.253 . S
C14 O2 1.260 1_556 S
C15 O4 1.279 . S
C15 O5 1.250 . S
C16 O6 1.264 . S
C16 O10 1.248 . S
C17 O7 1.260 . S
C17 O11 1.253 . S
C18 O9 1.279 . S
C18 O12 1.250 . S
O19 Mg1 2.030 1_565 S
O19 C13 1.248 . S
O20 Mg3 2.079 1_565 S
O20 C13 1.264 1_554 S
O21 Mg22 1.990 1_655 S
O21 C35 1.253 . S
Mg22 O21 1.990 1_455 S
Mg22 O25 2.180 . S
Mg22 O26 2.123 . S
Mg22 O40 2.030 . S
O23 Mg24 2.072 1_655 S
O23 C35 1.260 . S
Mg24 O23 2.072 1_455 S
Mg24 O25 2.099 . S
Mg24 O27 2.079 . S
Mg24 O28 2.072 1_455 S
Mg24 O30 2.099 . S
Mg24 O41 2.079 . S
O25 Mg22 2.180 . S
O25 Mg24 2.099 . S
O25 C36 1.279 . S
O26 Mg22 2.123 . S
O26 C36 1.261 . S
O27 Mg24 2.079 . S
O27 C37 1.264 . S
O28 Mg24 2.072 1_655 S
O28 C38 1.260 . S
Mg29 O30 2.180 . S
Mg29 O31 2.030 . S
Mg29 O32 1.990 1_455 S
Mg29 O33 2.117 1_455 S
O30 Mg24 2.099 . S
O30 Mg29 2.180 . S
O30 C39 1.279 . S
O31 Mg29 2.030 . S
O31 C37 1.248 . S
O32 Mg29 1.990 1_655 S
O32 C38 1.253 . S
O33 Mg29 2.117 1_655 S
O33 C39 1.250 1_655 S
C34 O40 1.248 . S
C34 O41 1.264 . S
C35 O21 1.253 . S
C35 O23 1.260 . S
C36 O25 1.279 . S
C36 O26 1.261 . S
C37 O27 1.264 . S
C37 O31 1.248 . S
C38 O28 1.260 . S
C38 O32 1.253 . S
C39 O30 1.279 . S
C39 O33 1.250 1_455 S
O40 Mg22 2.030 . S
O40 C34 1.248 . S
O41 Mg24 2.079 . S
O41 C34 1.264 . S
O42 Mg43 1.990 1_545 S
O42 C56 1.253 . S
Mg43 O42 1.990 1_565 S
Mg43 O46 2.180 . S
Mg43 O47 2.117 1_565 S
Mg43 O61 2.030 . S
O44 Mg45 2.072 1_546 S
O44 C56 1.260 . S
Mg45 O44 2.072 1_564 S
Mg45 O46 2.099 1_554 S
Mg45 O48 2.079 . S
Mg45 O49 2.072 1_565 S
Mg45 O51 2.099 . S
Mg45 O62 2.079 1_554 S
O46 Mg43 2.180 . S
O46 Mg45 2.099 1_556 S
O46 C57 1.279 1_565 S
O47 Mg43 2.117 1_545 S
O47 C57 1.250 . S
O48 Mg45 2.079 . S
O48 C58 1.264 . S
O49 Mg45 2.072 1_545 S
O49 C59 1.260 . S
Mg50 O51 2.181 1_545 S
Mg50 O52 2.020 1_545 S
Mg50 O53 2.003 . S
Mg50 O54 2.124 . S
O51 Mg45 2.099 . S
O51 Mg50 2.181 1_565 S
O51 C60 1.279 1_565 S
O52 Mg50 2.020 1_565 S
O52 C58 1.248 . S
O53 Mg50 2.003 . S
O53 C59 1.253 . S
O54 Mg50 2.124 . S
O54 C60 1.250 . S
C55 O61 1.248 . S
C55 O62 1.264 . S
C56 O42 1.253 . S
C56 O44 1.260 . S
C57 O46 1.279 1_545 S
C57 O47 1.250 . S
C58 O48 1.264 . S
C58 O52 1.248 . S
C59 O49 1.260 . S
C59 O53 1.253 . S
C60 O51 1.279 1_545 S
C60 O54 1.250 . S
O61 Mg43 2.030 . S
O61 C55 1.248 . S
O62 Mg45 2.079 1_556 S
O62 C55 1.264 . S
O63 Mg64 1.990 1_655 S
O63 C77 1.253 . S
Mg64 O63 1.990 1_455 S
Mg64 O67 2.180 . S
Mg64 O68 2.117 1_455 S
Mg64 O82 2.030 . S
O65 Mg66 2.072 1_655 S
O65 C77 1.260 . S
Mg66 O65 2.072 1_455 S
Mg66 O67 2.099 . S
Mg66 O69 2.079 . S
Mg66 O70 2.072 1_455 S
Mg66 O72 2.099 . S
Mg66 O83 2.079 . S
O67 Mg64 2.180 . S
O67 Mg66 2.099 . S
O67 C78 1.279 1_455 S
O68 Mg64 2.117 1_655 S
O68 C78 1.250 . S
O69 Mg66 2.079 . S
O69 C79 1.264 . S
O70 Mg66 2.072 1_655 S
O70 C80 1.260 . S
Mg71 O72 2.180 . S
Mg71 O73 2.030 . S
Mg71 O74 1.990 1_455 S
Mg71 O75 2.117 1_455 S
O72 Mg66 2.099 . S
O72 Mg71 2.180 . S
O72 C81 1.279 1_455 S
O73 Mg71 2.030 . S
O73 C79 1.248 . S
O74 Mg71 1.990 1_655 S
O74 C80 1.253 . S
O75 Mg71 2.117 1_655 S
O75 C81 1.250 . S
C76 O82 1.248 . S
C76 O83 1.264 . S
C77 O63 1.253 . S
C77 O65 1.260 . S
C78 O67 1.279 1_655 S
C78 O68 1.250 . S
C79 O69 1.264 . S
C79 O73 1.248 . S
C80 O70 1.260 . S
C80 O74 1.253 . S
C81 O72 1.279 1_655 S
C81 O75 1.250 . S
O82 Mg64 2.030 . S
O82 C76 1.248 . S
O83 Mg66 2.079 . S
O83 C76 1.264 . S
H84 C102 0.951 . S
H85 C104 0.951 . S
H86 C106 0.950 . S
H87 C107 0.950 . S
H88 C109 0.950 1_556 S
H89 C112 0.950 . S
H90 C113 0.950 . S
H91 C115 0.950 . S
H92 C116 0.950 1_455 S
H93 C117 0.951 . S
H94 C119 0.951 1_556 S
H95 C121 0.950 . S
H96 C122 0.950 . S
H97 C124 0.950 . S
H98 C127 0.950 . S
H99 C128 0.950 1_554 S
H100 C130 0.950 . S
H101 C131 0.950 . S
C102 H84 0.951 . S
C102 C103 1.366 1_554 S
C102 C104 1.388 . S
C103 C102 1.366 1_556 S
C103 C107 1.385 . S
C104 H85 0.951 . S
C104 C102 1.388 . S
C104 C105 1.366 . S
C105 C104 1.366 . S
C105 C106 1.414 1_554 S
C105 C108 1.499 . S
C106 H86 0.950 . S
C106 C105 1.414 1_556 S
C106 C107 1.374 . S
C107 H87 0.950 . S
C107 C103 1.385 . S
C107 C106 1.374 . S
C108 C105 1.499 . S
C108 C109 1.373 1_545 S
C108 C110 1.389 . S
C109 H88 0.950 1_554 S
C109 C108 1.373 1_565 S
C109 C125 1.377 1_655 S
C110 C108 1.389 . S
C110 C111 1.524 . S
C110 C124 1.377 1_655 S
C111 C110 1.524 . S
C111 C112 1.397 . S
C111 C116 1.363 . S
C112 H89 0.950 . S
C112 C111 1.397 . S
C112 C113 1.334 . S
C113 H90 0.950 . S
C113 C112 1.334 . S
C113 C114 1.287 . S
C114 C113 1.287 . S
C114 C115 1.524 . S
C114 H133 0.913 . S
C115 H91 0.950 . S
C115 C114 1.524 . S
C115 C116 1.415 . S
C116 H92 0.950 1_655 S
C116 C111 1.363 . S
C116 C115 1.415 . S
C117 H93 0.951 . S
C117 C118 1.366 . S
C117 C119 1.388 . S
C118 C117 1.366 . S
C118 C122 1.385 . S
C119 H94 0.951 1_554 S
C119 C117 1.388 . S
C119 C120 1.366 . S
C120 C119 1.366 . S
C120 C121 1.414 . S
C120 C123 1.499 . S
C121 H95 0.950 . S
C121 C120 1.414 . S
C121 C122 1.374 . S
C122 H96 0.950 . S
C122 C118 1.385 . S
C122 C121 1.374 . S
C123 C120 1.499 . S
C123 C124 1.373 . S
C123 C125 1.389 1_545 S
C124 H97 0.950 . S
C124 C110 1.377 1_455 S
C124 C123 1.373 . S
C125 C109 1.377 1_455 S
C125 C123 1.389 1_565 S
C125 C126 1.524 1_554 S
C126 C125 1.524 1_556 S
C126 C127 1.397 1_556 S
C126 C131 1.363 . S
C127 H98 0.950 . S
C127 C126 1.397 1_554 S
C127 C128 1.334 1_554 S
C128 H99 0.950 1_556 S
C128 C127 1.334 1_556 S
C128 C129 1.287 . S
C129 C128 1.287 . S
C129 C130 1.524 . S
C129 H132 0.999 . S
C130 H100 0.950 . S
C130 C129 1.524 . S
C130 C131 1.415 . S
C131 H101 0.950 . S
C131 C126 1.363 . S
C131 C130 1.415 . S
H132 C129 0.999 . S
H133 C114 0.913 . S
H134 C152 0.951 . S
H135 C154 0.951 . S
H136 C156 0.950 . S
H137 C157 0.950 . S
H138 C159 0.950 . S
H139 C162 0.950 1_655 S
H140 C163 0.950 1_655 S
H141 C165 0.950 . S
H142 C166 0.950 . S
H143 C167 0.951 . S
H144 C169 0.951 . S
H145 C171 0.950 . S
H146 C172 0.950 . S
H147 C174 0.950 . S
H148 C177 0.950 . S
H149 C178 0.950 1_455 S
H150 C180 0.950 . S
H151 C181 0.950 . S
C152 H134 0.951 . S
C152 C153 1.366 1_455 S
C152 C154 1.388 . S
C153 C152 1.366 1_655 S
C153 C157 1.385 . S
C154 H135 0.951 . S
C154 C152 1.388 . S
C154 C155 1.366 1_455 S
C155 C154 1.366 1_655 S
C155 C156 1.414 . S
C155 C158 1.499 . S
C156 H136 0.950 . S
C156 C155 1.414 . S
C156 C157 1.374 . S
C157 H137 0.950 . S
C157 C153 1.385 . S
C157 C156 1.374 . S
C158 C155 1.499 . S
C158 C159 1.373 . S
C158 C160 1.389 1_655 S
C159 H138 0.950 . S
C159 C158 1.373 . S
C159 C175 1.377 1_565 S
C160 C158 1.389 1_455 S
C160 C161 1.524 . S
C160 C174 1.377 1_565 S
C161 C160 1.524 . S
C161 C162 1.397 . S
C161 C166 1.363 . S
C162 H139 0.950 1_455 S
C162 C161 1.397 . S
C162 C163 1.334 . S
C163 H140 0.950 1_455 S
C163 C162 1.334 . S
C163 C164 1.287 . S
C164 C163 1.287 . S
C164 C165 1.524 . S
C164 H183 0.913 . S
C165 H141 0.950 . S
C165 C164 1.524 . S
C165 C166 1.415 . S
C166 H142 0.950 . S
C166 C161 1.363 . S
C166 C165 1.415 . S
C167 H143 0.951 . S
C167 C168 1.366 1_655 S
C167 C169 1.388 . S
C168 C167 1.366 1_455 S
C168 C172 1.385 . S
C169 H144 0.951 . S
C169 C167 1.388 . S
C169 C170 1.366 1_655 S
C170 C169 1.366 1_455 S
C170 C171 1.414 . S
C170 C173 1.499 . S
C171 H145 0.950 . S
C171 C170 1.414 . S
C171 C172 1.374 . S
C172 H146 0.950 . S
C172 C168 1.385 . S
C172 C171 1.374 . S
C173 C170 1.499 . S
C173 C174 1.373 . S
C173 C175 1.389 1_455 S
C174 H147 0.950 . S
C174 C160 1.377 1_545 S
C174 C173 1.373 . S
C175 C159 1.377 1_545 S
C175 C173 1.389 1_655 S
C175 C176 1.524 . S
C176 C175 1.524 . S
C176 C177 1.397 1_655 S
C176 C181 1.363 . S
C177 H148 0.950 . S
C177 C176 1.397 1_455 S
C177 C178 1.334 1_455 S
C178 H149 0.950 1_655 S
C178 C177 1.334 1_655 S
C178 C179 1.287 . S
C179 C178 1.287 . S
C179 C180 1.524 . S
C179 H182 0.999 . S
C180 H150 0.950 . S
C180 C179 1.524 . S
C180 C181 1.415 . S
C181 H151 0.950 . S
C181 C176 1.363 . S
C181 C180 1.415 . S
H182 C179 0.999 . S
H183 C164 0.913 . S
H184 C202 0.951 . S
H185 C204 0.951 . S
H186 C206 0.950 . S
H187 C207 0.950 . S
H188 C209 0.950 1_556 S
H189 C212 0.950 . S
H190 C213 0.950 . S
H191 C215 0.950 . S
H192 C216 0.950 1_545 S
H193 C217 0.938 1_556 S
H194 C219 0.950 1_566 S
H195 C221 0.950 . S
H196 C222 0.950 . S
H197 C224 0.950 1_565 S
H198 C227 0.950 1_554 S
H199 C228 0.950 . S
H200 C230 0.950 . S
H201 C231 0.950 . S
C202 H184 0.951 . S
C202 C203 1.366 . S
C202 C204 1.388 . S
C203 C202 1.366 . S
C203 C207 1.385 1_544 S
C204 H185 0.951 . S
C204 C202 1.388 . S
C204 C205 1.366 . S
C205 C204 1.366 . S
C205 C206 1.414 1_544 S
C205 C208 1.499 . S
C206 H186 0.950 . S
C206 C205 1.414 1_566 S
C206 C207 1.374 . S
C207 H187 0.950 . S
C207 C203 1.385 1_566 S
C207 C206 1.374 . S
C208 C205 1.499 . S
C208 C209 1.373 . S
C208 C210 1.391 . S
C209 H188 0.950 1_554 S
C209 C208 1.373 . S
C209 C225 1.377 . S
C210 C208 1.391 . S
C210 C211 1.522 1_545 S
C210 C224 1.377 . S
C211 C210 1.522 1_565 S
C211 C212 1.397 . S
C211 C216 1.363 . S
C212 H189 0.950 . S
C212 C211 1.397 . S
C212 C213 1.334 . S
C213 H190 0.950 . S
C213 C212 1.334 . S
C213 C214 1.287 . S
C214 C213 1.287 . S
C214 C215 1.524 . S
C214 H233 0.913 . S
C215 H191 0.950 . S
C215 C214 1.524 . S
C215 C216 1.415 . S
C216 H192 0.950 1_565 S
C216 C211 1.363 . S
C216 C215 1.415 . S
C217 H193 0.938 1_554 S
C217 C218 1.366 . S
C217 C219 1.388 . S
C218 C217 1.366 . S
C218 C222 1.385 . S
C219 H194 0.950 1_544 S
C219 C217 1.388 . S
C219 C220 1.366 . S
C220 C219 1.366 . S
C220 C221 1.414 . S
C220 C223 1.499 . S
C221 H195 0.950 . S
C221 C220 1.414 . S
C221 C222 1.374 . S
C222 H196 0.950 . S
C222 C218 1.385 . S
C222 C221 1.374 . S
C223 C220 1.499 . S
C223 C224 1.373 . S
C223 C225 1.389 . S
C224 H197 0.950 1_545 S
C224 C210 1.377 . S
C224 C223 1.373 . S
C225 C209 1.377 . S
C225 C223 1.389 . S
C225 C226 1.524 1_554 S
C226 C225 1.524 1_556 S
C226 C227 1.397 . S
C226 C231 1.363 . S
C227 H198 0.950 1_556 S
C227 C226 1.397 . S
C227 C228 1.334 . S
C228 H199 0.950 . S
C228 C227 1.334 . S
C228 C229 1.287 . S
C229 C228 1.287 . S
C229 C230 1.524 . S
C229 H232 0.999 . S
C230 H200 0.950 . S
C230 C229 1.524 . S
C230 C231 1.415 . S
C231 H201 0.950 . S
C231 C226 1.363 . S
C231 C230 1.415 . S
H232 C229 0.999 . S
H233 C214 0.913 . S
H234 C252 0.951 . S
H235 C254 0.951 . S
H236 C256 0.950 . S
H237 C257 0.950 . S
H238 C259 0.950 . S
H239 C262 0.950 . S
H240 C263 0.950 . S
H241 C265 0.950 . S
H242 C266 0.950 . S
H243 C267 0.951 . S
H244 C269 0.951 . S
H245 C271 0.950 . S
H246 C272 0.950 . S
H247 C274 0.950 . S
H248 C277 0.950 . S
H249 C278 0.950 . S
H250 C280 0.950 . S
H251 C281 0.950 . S
C252 H234 0.951 . S
C252 C253 1.366 1_655 S
C252 C254 1.388 . S
C253 C252 1.366 1_455 S
C253 C257 1.385 . S
C254 H235 0.951 . S
C254 C252 1.388 . S
C254 C255 1.366 1_655 S
C255 C254 1.366 1_455 S
C255 C256 1.414 . S
C255 C258 1.499 . S
C256 H236 0.950 . S
C256 C255 1.414 . S
C256 C257 1.374 . S
C257 H237 0.950 . S
C257 C253 1.385 . S
C257 C256 1.374 . S
C258 C255 1.499 . S
C258 C259 1.373 . S
C258 C260 1.389 . S
C259 H238 0.950 . S
C259 C258 1.373 . S
C259 C275 1.377 . S
C260 C258 1.389 . S
C260 C261 1.524 . S
C260 C274 1.377 1_455 S
C261 C260 1.524 . S
C261 C262 1.397 . S
C261 C266 1.363 1_455 S
C262 H239 0.950 . S
C262 C261 1.397 . S
C262 C263 1.334 . S
C263 H240 0.950 . S
C263 C262 1.334 . S
C263 C264 1.287 . S
C264 C263 1.287 . S
C264 C265 1.524 1_455 S
C264 H283 0.913 . S
C265 H241 0.950 . S
C265 C264 1.524 1_655 S
C265 C266 1.415 . S
C266 H242 0.950 . S
C266 C261 1.363 1_655 S
C266 C265 1.415 . S
C267 H243 0.951 . S
C267 C268 1.366 1_455 S
C267 C269 1.388 . S
C268 C267 1.366 1_655 S
C268 C272 1.385 . S
C269 H244 0.951 . S
C269 C267 1.388 . S
C269 C270 1.366 1_455 S
C270 C269 1.366 1_655 S
C270 C271 1.414 . S
C270 C273 1.500 . S
C271 H245 0.950 . S
C271 C270 1.414 . S
C271 C272 1.374 . S
C272 H246 0.950 . S
C272 C268 1.385 . S
C272 C271 1.374 . S
C273 C270 1.500 . S
C273 C274 1.371 . S
C273 C275 1.389 1_655 S
C274 H247 0.950 . S
C274 C260 1.377 1_655 S
C274 C273 1.371 . S
C275 C259 1.377 . S
C275 C273 1.389 1_455 S
C275 C276 1.524 . S
C276 C275 1.524 . S
C276 C277 1.397 1_455 S
C276 C281 1.363 . S
C277 H248 0.950 . S
C277 C276 1.397 1_655 S
C277 C278 1.334 . S
C278 H249 0.950 . S
C278 C277 1.334 . S
C278 C279 1.287 . S
C279 C278 1.287 . S
C279 C280 1.524 1_655 S
C279 H282 0.999 . S
C280 H250 0.950 . S
C280 C279 1.524 1_455 S
C280 C281 1.415 . S
C281 H251 0.950 . S
C281 C276 1.363 . S
C281 C280 1.415 . S
H282 C279 0.999 . S
H283 C264 0.913 . S
H284 C302 0.951 . S
H285 C304 0.951 . S
H286 C306 0.950 . S
H287 C307 0.950 . S
H288 C309 0.950 . S
H289 C312 0.950 . S
H290 C313 0.950 . S
H291 C315 0.952 . S
H292 C316 0.950 . S
H293 C317 0.951 . S
H294 C319 0.951 . S
H295 C321 0.950 . S
H296 C322 0.950 . S
H297 C324 0.950 . S
H298 C327 0.950 . S
H299 C328 0.950 . S
H300 C330 0.950 . S
H301 C331 0.950 . S
C302 H284 0.951 . S
C302 C303 1.366 . S
C302 C304 1.388 . S
C303 C302 1.366 . S
C303 C307 1.385 . S
C304 H285 0.951 . S
C304 C302 1.388 . S
C304 C305 1.366 . S
C305 C304 1.366 . S
C305 C306 1.414 . S
C305 C308 1.499 . S
C306 H286 0.950 . S
C306 C305 1.414 . S
C306 C307 1.374 . S
C307 H287 0.950 . S
C307 C303 1.385 . S
C307 C306 1.374 . S
C308 C305 1.499 . S
C308 C309 1.373 . S
C308 C310 1.389 . S
C309 H288 0.950 . S
C309 C308 1.373 . S
C309 C325 1.377 . S
C310 C308 1.389 . S
C310 C311 1.524 . S
C310 C324 1.377 . S
C311 C310 1.524 . S
C311 C312 1.397 . S
C311 C316 1.363 . S
C312 H289 0.950 . S
C312 C311 1.397 . S
C312 C313 1.334 . S
C313 H290 0.950 . S
C313 C312 1.334 . S
C313 C314 1.287 . S
C314 C313 1.287 . S
C314 C315 1.524 . S
C314 H333 0.913 . S
C315 H291 0.952 . S
C315 C314 1.524 . S
C315 C316 1.415 . S
C316 H292 0.950 . S
C316 C311 1.363 . S
C316 C315 1.415 . S
C317 H293 0.951 . S
C317 C318 1.366 . S
C317 C319 1.388 . S
C318 C317 1.366 . S
C318 C322 1.385 . S
C319 H294 0.951 . S
C319 C317 1.388 . S
C319 C320 1.366 . S
C320 C319 1.366 . S
C320 C321 1.414 . S
C320 C323 1.499 . S
C321 H295 0.950 . S
C321 C320 1.414 . S
C321 C322 1.374 . S
C322 H296 0.950 . S
C322 C318 1.385 . S
C322 C321 1.374 . S
C323 C320 1.499 . S
C323 C324 1.373 . S
C323 C325 1.389 . S
C324 H297 0.950 . S
C324 C310 1.377 . S
C324 C323 1.373 . S
C325 C309 1.377 . S
C325 C323 1.389 . S
C325 C326 1.524 . S
C326 C325 1.524 . S
C326 C327 1.397 . S
C326 C331 1.363 . S
C327 H298 0.950 . S
C327 C326 1.397 . S
C327 C328 1.334 . S
C328 H299 0.950 . S
C328 C327 1.334 . S
C328 C329 1.287 . S
C329 C328 1.287 . S
C329 C330 1.524 . S
C329 H332 0.999 . S
C330 H300 0.950 . S
C330 C329 1.524 . S
C330 C331 1.415 . S
C331 H301 0.950 . S
C331 C326 1.363 . S
C331 C330 1.415 . S
H332 C329 0.999 . S
H333 C314 0.913 . S
H334 C352 0.951 . S
H335 C354 0.951 . S
H336 C356 0.950 . S
H337 C357 0.950 . S
H338 C359 0.950 . S
H339 C362 0.950 . S
H340 C363 0.950 . S
H341 C365 0.950 . S
H342 C366 0.950 . S
H343 C367 0.951 . S
H344 C369 0.951 . S
H345 C371 0.950 . S
H346 C372 0.950 . S
H347 C374 0.950 . S
H348 C377 0.950 . S
H349 C378 0.950 1_565 S
H350 C380 0.950 . S
H351 C381 0.950 . S
C352 H334 0.951 . S
C352 C353 1.366 . S
C352 C354 1.388 . S
C353 C352 1.366 . S
C353 C357 1.385 . S
C354 H335 0.951 . S
C354 C352 1.388 . S
C354 C355 1.366 . S
C355 C354 1.366 . S
C355 C356 1.414 . S
C355 C358 1.499 . S
C356 H336 0.950 . S
C356 C355 1.414 . S
C356 C357 1.374 . S
C357 H337 0.950 . S
C357 C353 1.385 . S
C357 C356 1.374 . S
C358 C355 1.499 . S
C358 C359 1.373 . S
C358 C360 1.389 . S
C359 H338 0.950 . S
C359 C358 1.373 . S
C359 C375 1.377 . S
C360 C358 1.389 . S
C360 C361 1.524 . S
C360 C374 1.377 . S
C361 C360 1.524 . S
C361 C362 1.397 . S
C361 C366 1.363 . S
C362 H339 0.950 . S
C362 C361 1.397 . S
C362 C363 1.334 . S
C363 H340 0.950 . S
C363 C362 1.334 . S
C363 C364 1.287 . S
C364 C363 1.287 . S
C364 C365 1.524 . S
C364 H383 0.913 . S
C365 H341 0.950 . S
C365 C364 1.524 . S
C365 C366 1.415 . S
C366 H342 0.950 . S
C366 C361 1.363 . S
C366 C365 1.415 . S
C367 H343 0.951 . S
C367 C368 1.366 . S
C367 C369 1.388 . S
C368 C367 1.366 . S
C368 C372 1.385 . S
C369 H344 0.951 . S
C369 C367 1.388 . S
C369 C370 1.366 . S
C370 C369 1.366 . S
C370 C371 1.414 . S
C370 C373 1.499 . S
C371 H345 0.950 . S
C371 C370 1.414 . S
C371 C372 1.374 . S
C372 H346 0.950 . S
C372 C368 1.385 . S
C372 C371 1.374 . S
C373 C370 1.499 . S
C373 C374 1.373 . S
C373 C375 1.389 . S
C374 H347 0.950 . S
C374 C360 1.377 . S
C374 C373 1.373 . S
C375 C359 1.377 . S
C375 C373 1.389 . S
C375 C376 1.524 . S
C376 C375 1.524 . S
C376 C377 1.397 . S
C376 C381 1.363 . S
C377 H348 0.950 . S
C377 C376 1.397 . S
C377 C378 1.334 . S
C378 H349 0.950 1_545 S
C378 C377 1.334 . S
C378 C379 1.287 1_545 S
C379 C378 1.287 1_565 S
C379 C380 1.524 . S
C379 H382 0.999 . S
C380 H350 0.950 . S
C380 C379 1.524 . S
C380 C381 1.415 1_565 S
C381 H351 0.950 . S
C381 C376 1.363 . S
C381 C380 1.415 1_545 S
H382 C379 0.999 . S
H383 C364 0.913 . S
H384 C402 0.951 . S
H385 C404 0.951 . S
H386 C406 0.950 . S
H387 C407 0.950 . S
H388 C409 0.950 . S
H389 C412 0.950 . S
H390 C413 0.950 . S
H391 C415 0.950 . S
H392 C416 0.950 . S
H393 C417 0.951 . S
H394 C419 0.951 . S
H395 C421 0.950 . S
H396 C422 0.950 . S
H397 C424 0.950 . S
H398 C427 0.950 . S
H399 C428 0.950 1_545 S
H400 C430 0.950 1_455 S
H401 C431 0.950 . S
C402 H384 0.951 . S
C402 C403 1.366 . S
C402 C404 1.388 . S
C403 C402 1.366 . S
C403 C407 1.385 . S
C404 H385 0.951 . S
C404 C402 1.388 . S
C404 C405 1.366 . S
C405 C404 1.366 . S
C405 C406 1.414 . S
C405 C408 1.499 . S
C406 H386 0.950 . S
C406 C405 1.414 . S
C406 C407 1.374 . S
C407 H387 0.950 . S
C407 C403 1.385 . S
C407 C406 1.374 . S
C408 C405 1.499 . S
C408 C409 1.373 . S
C408 C410 1.389 . S
C409 H388 0.950 . S
C409 C408 1.373 . S
C409 C425 1.377 . S
C410 C408 1.389 . S
C410 C411 1.524 . S
C410 C424 1.377 . S
C411 C410 1.524 . S
C411 C412 1.397 . S
C411 C416 1.363 . S
C412 H389 0.950 . S
C412 C411 1.397 . S
C412 C413 1.334 . S
C413 H390 0.950 . S
C413 C412 1.334 . S
C413 C414 1.287 . S
C414 C413 1.287 . S
C414 C415 1.524 . S
C414 H433 0.913 . S
C415 H391 0.950 . S
C415 C414 1.524 . S
C415 C416 1.415 . S
C416 H392 0.950 . S
C416 C411 1.363 . S
C416 C415 1.415 . S
C417 H393 0.951 . S
C417 C418 1.366 . S
C417 C419 1.388 . S
C418 C417 1.366 . S
C418 C422 1.385 . S
C419 H394 0.951 . S
C419 C417 1.388 . S
C419 C420 1.366 . S
C420 C419 1.366 . S
C420 C421 1.414 . S
C420 C423 1.499 . S
C421 H395 0.950 . S
C421 C420 1.414 . S
C421 C422 1.374 . S
C422 H396 0.950 . S
C422 C418 1.385 . S
C422 C421 1.374 . S
C423 C420 1.499 . S
C423 C424 1.373 . S
C423 C425 1.389 . S
C424 H397 0.950 . S
C424 C410 1.377 . S
C424 C423 1.373 . S
C425 C409 1.377 . S
C425 C423 1.389 . S
C425 C426 1.524 . S
C426 C425 1.524 . S
C426 C427 1.397 . S
C426 C431 1.363 . S
C427 H398 0.950 . S
C427 C426 1.397 . S
C427 C428 1.334 . S
C428 H399 0.950 1_565 S
C428 C427 1.334 . S
C428 C429 1.287 . S
C429 C428 1.287 . S
C429 C430 1.524 . S
C429 H432 0.999 . S
C430 H400 0.950 1_655 S
C430 C429 1.524 . S
C430 C431 1.415 . S
C431 H401 0.950 . S
C431 C426 1.363 . S
C431 C430 1.415 . S
H432 C429 0.999 . S
H433 C414 0.913 . S
H434 C452 0.951 . S
H435 C454 0.951 . S
H436 C456 0.950 . S
H437 C457 0.950 . S
H438 C459 0.950 . S
H439 C462 0.950 . S
H440 C463 0.950 1_655 S
H441 C465 0.950 1_655 S
H442 C466 0.950 . S
H443 C467 0.951 . S
H444 C469 0.951 . S
H445 C471 0.950 . S
H446 C472 0.950 . S
H447 C474 0.950 . S
H448 C477 0.950 . S
H449 C478 0.950 . S
H450 C480 0.950 . S
H451 C481 0.950 . S
C452 H434 0.951 . S
C452 C453 1.366 . S
C452 C454 1.388 . S
C453 C452 1.366 . S
C453 C457 1.385 . S
C454 H435 0.951 . S
C454 C452 1.388 . S
C454 C455 1.366 . S
C455 C454 1.366 . S
C455 C456 1.414 . S
C455 C458 1.499 . S
C456 H436 0.950 . S
C456 C455 1.414 . S
C456 C457 1.374 . S
C457 H437 0.950 . S
C457 C453 1.385 . S
C457 C456 1.374 . S
C458 C455 1.499 . S
C458 C459 1.373 . S
C458 C460 1.389 . S
C459 H438 0.950 . S
C459 C458 1.373 . S
C459 C475 1.377 . S
C460 C458 1.389 . S
C460 C461 1.524 . S
C460 C474 1.377 . S
C461 C460 1.524 . S
C461 C462 1.397 . S
C461 C466 1.363 . S
C462 H439 0.950 . S
C462 C461 1.397 . S
C462 C463 1.334 . S
C463 H440 0.950 1_455 S
C463 C462 1.334 . S
C463 C464 1.287 1_455 S
C464 C463 1.287 1_655 S
C464 C465 1.524 1_655 S
C464 H483 0.913 . S
C465 H441 0.950 1_455 S
C465 C464 1.524 1_455 S
C465 C466 1.415 . S
C466 H442 0.950 . S
C466 C461 1.363 . S
C466 C465 1.415 . S
C467 H443 0.951 . S
C467 C468 1.366 . S
C467 C469 1.388 . S
C468 C467 1.366 . S
C468 C472 1.385 . S
C469 H444 0.951 . S
C469 C467 1.388 . S
C469 C470 1.366 . S
C470 C469 1.366 . S
C470 C471 1.414 . S
C470 C473 1.499 . S
C471 H445 0.950 . S
C471 C470 1.414 . S
C471 C472 1.374 . S
C472 H446 0.950 . S
C472 C468 1.385 . S
C472 C471 1.374 . S
C473 C470 1.499 . S
C473 C474 1.373 . S
C473 C475 1.389 . S
C474 H447 0.950 . S
C474 C460 1.377 . S
C474 C473 1.373 . S
C475 C459 1.377 . S
C475 C473 1.389 . S
C475 C476 1.524 . S
C476 C475 1.524 . S
C476 C477 1.397 . S
C476 C481 1.363 . S
C477 H448 0.950 . S
C477 C476 1.397 . S
C477 C478 1.334 . S
C478 H449 0.950 . S
C478 C477 1.334 . S
C478 C479 1.287 . S
C479 C478 1.287 . S
C479 C480 1.524 . S
C479 H482 0.999 . S
C480 H450 0.950 . S
C480 C479 1.524 . S
C480 C481 1.415 . S
C481 H451 0.950 . S
C481 C476 1.363 . S
C481 C480 1.415 . S
H482 C479 0.999 . S
H483 C464 0.913 . S
H484 C502 0.951 . S
H485 C504 0.951 . S
H486 C506 0.950 . S
H487 C507 0.950 . S
H488 C509 0.950 . S
H489 C512 0.950 . S
H490 C513 0.950 . S
H491 C515 0.939 1_545 S
H492 C516 0.950 . S
H493 C517 0.951 . S
H494 C519 0.951 . S
H495 C521 0.950 . S
H496 C522 0.950 . S
H497 C524 0.950 . S
H498 C527 0.950 . S
H499 C528 0.950 . S
H500 C530 0.950 . S
H501 C531 0.950 . S
C502 H484 0.951 . S
C502 C503 1.366 . S
C502 C504 1.388 . S
C503 C502 1.366 . S
C503 C507 1.385 . S
C504 H485 0.951 . S
C504 C502 1.388 . S
C504 C505 1.366 . S
C505 C504 1.366 . S
C505 C506 1.414 . S
C505 C508 1.499 . S
C506 H486 0.950 . S
C506 C505 1.414 . S
C506 C507 1.374 . S
C507 H487 0.950 . S
C507 C503 1.385 . S
C507 C506 1.374 . S
C508 C505 1.499 . S
C508 C509 1.373 . S
C508 C510 1.389 . S
C509 H488 0.950 . S
C509 C508 1.373 . S
C509 C525 1.377 . S
C510 C508 1.389 . S
C510 C511 1.524 . S
C510 C524 1.377 . S
C511 C510 1.524 . S
C511 C512 1.397 . S
C511 C516 1.363 . S
C512 H489 0.950 . S
C512 C511 1.397 . S
C512 C513 1.334 . S
C513 H490 0.950 . S
C513 C512 1.334 . S
C513 C514 1.287 1_565 S
C514 C513 1.287 1_545 S
C514 C515 1.523 1_545 S
C514 H533 0.913 . S
C515 H491 0.939 1_565 S
C515 C514 1.523 1_565 S
C515 C516 1.429 . S
C516 H492 0.950 . S
C516 C511 1.363 . S
C516 C515 1.429 . S
C517 H493 0.951 . S
C517 C518 1.366 . S
C517 C519 1.388 . S
C518 C517 1.366 . S
C518 C522 1.385 . S
C519 H494 0.951 . S
C519 C517 1.388 . S
C519 C520 1.366 . S
C520 C519 1.366 . S
C520 C521 1.414 . S
C520 C523 1.499 . S
C521 H495 0.950 . S
C521 C520 1.414 . S
C521 C522 1.374 . S
C522 H496 0.950 . S
C522 C518 1.385 . S
C522 C521 1.374 . S
C523 C520 1.499 . S
C523 C524 1.373 . S
C523 C525 1.389 . S
C524 H497 0.950 . S
C524 C510 1.377 . S
C524 C523 1.373 . S
C525 C509 1.377 . S
C525 C523 1.389 . S
C525 C526 1.524 . S
C526 C525 1.524 . S
C526 C527 1.397 . S
C526 C531 1.363 . S
C527 H498 0.950 . S
C527 C526 1.397 . S
C527 C528 1.334 . S
C528 H499 0.950 . S
C528 C527 1.334 . S
C528 C529 1.287 . S
C529 C528 1.287 . S
C529 C530 1.524 . S
C529 H532 0.999 . S
C530 H500 0.950 . S
C530 C529 1.524 . S
C530 C531 1.415 . S
C531 H501 0.950 . S
C531 C526 1.363 . S
C531 C530 1.415 . S
H532 C529 0.999 . S
H533 C514 0.913 . S
H534 C552 0.951 . S
H535 C554 0.951 . S
H536 C556 0.950 . S
H537 C557 0.950 . S
H538 C559 0.950 . S
H539 C562 0.950 . S
H540 C563 0.950 . S
H541 C565 0.950 1_545 S
H542 C566 0.950 . S
H543 C567 0.951 . S
H544 C569 0.951 . S
H545 C571 0.950 . S
H546 C572 0.950 . S
H547 C574 0.950 . S
H548 C577 0.950 . S
H549 C578 0.950 . S
H550 C580 0.950 . S
H551 C581 0.950 . S
C552 H534 0.951 . S
C552 C553 1.366 . S
C552 C554 1.388 . S
C553 C552 1.366 . S
C553 C557 1.385 . S
C554 H535 0.951 . S
C554 C552 1.388 . S
C554 C555 1.366 . S
C555 C554 1.366 . S
C555 C556 1.414 . S
C555 C558 1.499 . S
C556 H536 0.950 . S
C556 C555 1.414 . S
C556 C557 1.374 . S
C557 H537 0.950 . S
C557 C553 1.385 . S
C557 C556 1.374 . S
C558 C555 1.499 . S
C558 C559 1.373 . S
C558 C560 1.389 . S
C559 H538 0.950 . S
C559 C558 1.373 . S
C559 C575 1.377 . S
C560 C558 1.389 . S
C560 C561 1.524 . S
C560 C574 1.377 . S
C561 C560 1.524 . S
C561 C562 1.397 . S
C561 C566 1.363 . S
C562 H539 0.950 . S
C562 C561 1.397 . S
C562 C563 1.334 . S
C563 H540 0.950 . S
C563 C562 1.334 . S
C563 C564 1.287 . S
C564 C563 1.287 . S
C564 C565 1.524 . S
C564 H583 0.913 1_565 S
C565 H541 0.950 1_565 S
C565 C564 1.524 . S
C565 C566 1.415 . S
C566 H542 0.950 . S
C566 C561 1.363 . S
C566 C565 1.415 . S
C567 H543 0.951 . S
C567 C568 1.366 . S
C567 C569 1.388 . S
C568 C567 1.366 . S
C568 C572 1.385 . S
C569 H544 0.951 . S
C569 C567 1.388 . S
C569 C570 1.366 . S
C570 C569 1.366 . S
C570 C571 1.414 . S
C570 C573 1.499 . S
C571 H545 0.950 . S
C571 C570 1.414 . S
C571 C572 1.374 . S
C572 H546 0.950 . S
C572 C568 1.385 . S
C572 C571 1.374 . S
C573 C570 1.499 . S
C573 C574 1.373 . S
C573 C575 1.389 . S
C574 H547 0.950 . S
C574 C560 1.377 . S
C574 C573 1.373 . S
C575 C559 1.377 . S
C575 C573 1.389 . S
C575 C576 1.524 . S
C576 C575 1.524 . S
C576 C577 1.397 . S
C576 C581 1.363 . S
C577 H548 0.950 . S
C577 C576 1.397 . S
C577 C578 1.334 . S
C578 H549 0.950 . S
C578 C577 1.334 . S
C578 C579 1.287 . S
C579 C578 1.287 . S
C579 C580 1.524 . S
C579 H582 0.999 . S
C580 H550 0.950 . S
C580 C579 1.524 . S
C580 C581 1.415 . S
C581 H551 0.950 . S
C581 C576 1.363 . S
C581 C580 1.415 . S
H582 C579 0.999 . S
H583 C564 0.913 1_545 S
H584 C602 0.951 . S
H585 C604 0.951 . S
H586 C606 0.950 . S
H587 C607 0.950 . S
H588 C609 0.950 . S
H589 C612 0.950 . S
H590 C613 0.950 . S
H591 C615 0.950 . S
H592 C616 0.950 . S
H593 C617 0.951 . S
H594 C619 0.951 . S
H595 C621 0.950 . S
H596 C622 0.950 . S
H597 C624 0.950 . S
H598 C627 0.950 . S
H599 C628 0.950 . S
H600 C630 0.950 . S
H601 C631 0.950 . S
C602 H584 0.951 . S
C602 C603 1.366 . S
C602 C604 1.388 . S
C603 C602 1.366 . S
C603 C607 1.385 . S
C604 H585 0.951 . S
C604 C602 1.388 . S
C604 C605 1.366 . S
C605 C604 1.366 . S
C605 C606 1.414 . S
C605 C608 1.499 . S
C606 H586 0.950 . S
C606 C605 1.414 . S
C606 C607 1.374 . S
C607 H587 0.950 . S
C607 C603 1.385 . S
C607 C606 1.374 . S
C608 C605 1.499 . S
C608 C609 1.373 . S
C608 C610 1.389 . S
C609 H588 0.950 . S
C609 C608 1.373 . S
C609 C625 1.377 . S
C610 C608 1.389 . S
C610 C611 1.524 . S
C610 C624 1.377 . S
C611 C610 1.524 . S
C611 C612 1.397 . S
C611 C616 1.363 . S
C612 H589 0.950 . S
C612 C611 1.397 . S
C612 C613 1.334 . S
C613 H590 0.950 . S
C613 C612 1.334 . S
C613 C614 1.287 . S
C614 C613 1.287 . S
C614 C615 1.524 . S
C614 H633 0.913 . S
C615 H591 0.950 . S
C615 C614 1.524 . S
C615 C616 1.415 . S
C616 H592 0.950 . S
C616 C611 1.363 . S
C616 C615 1.415 . S
C617 H593 0.951 . S
C617 C618 1.366 . S
C617 C619 1.388 . S
C618 C617 1.366 . S
C618 C622 1.385 . S
C619 H594 0.951 . S
C619 C617 1.388 . S
C619 C620 1.366 . S
C620 C619 1.366 . S
C620 C621 1.414 . S
C620 C623 1.499 . S
C621 H595 0.950 . S
C621 C620 1.414 . S
C621 C622 1.374 . S
C622 H596 0.950 . S
C622 C618 1.385 . S
C622 C621 1.374 . S
C623 C620 1.499 . S
C623 C624 1.373 . S
C623 C625 1.389 . S
C624 H597 0.950 . S
C624 C610 1.377 . S
C624 C623 1.373 . S
C625 C609 1.377 . S
C625 C623 1.389 . S
C625 C626 1.524 . S
C626 C625 1.524 . S
C626 C627 1.397 . S
C626 C631 1.363 . S
C627 H598 0.950 . S
C627 C626 1.397 . S
C627 C628 1.334 . S
C628 H599 0.950 . S
C628 C627 1.334 . S
C628 C629 1.287 . S
C629 C628 1.287 . S
C629 C630 1.524 . S
C629 H632 0.999 . S
C630 H600 0.950 . S
C630 C629 1.524 . S
C630 C631 1.415 . S
C631 H601 0.950 . S
C631 C626 1.363 . S
C631 C630 1.415 . S
H632 C629 0.999 . S
H633 C614 0.913 . S
H634 C652 0.951 . S
H635 C654 0.951 . S
H636 C656 0.950 . S
H637 C657 0.950 . S
H638 C659 0.950 . S
H639 C662 0.950 . S
H640 C663 0.950 . S
H641 C665 0.950 . S
H642 C666 0.950 . S
H643 C667 0.951 . S
H644 C669 0.951 . S
H645 C671 0.950 . S
H646 C672 0.950 . S
H647 C674 0.950 . S
H648 C677 0.950 . S
H649 C678 0.950 . S
H650 C680 0.950 . S
H651 C681 0.950 . S
C652 H634 0.951 . S
C652 C653 1.366 . S
C652 C654 1.388 . S
C653 C652 1.366 . S
C653 C657 1.385 . S
C654 H635 0.951 . S
C654 C652 1.388 . S
C654 C655 1.366 . S
C655 C654 1.366 . S
C655 C656 1.414 . S
C655 C658 1.499 . S
C656 H636 0.950 . S
C656 C655 1.414 . S
C656 C657 1.374 . S
C657 H637 0.950 . S
C657 C653 1.385 . S
C657 C656 1.374 . S
C658 C655 1.499 . S
C658 C659 1.373 . S
C658 C660 1.389 . S
C659 H638 0.950 . S
C659 C658 1.373 . S
C659 C675 1.377 . S
C660 C658 1.389 . S
C660 C661 1.524 . S
C660 C674 1.377 . S
C661 C660 1.524 . S
C661 C662 1.397 . S
C661 C666 1.363 . S
C662 H639 0.950 . S
C662 C661 1.397 . S
C662 C663 1.334 . S
C663 H640 0.950 . S
C663 C662 1.334 . S
C663 C664 1.287 . S
C664 C663 1.287 . S
C664 C665 1.524 . S
C664 H683 0.913 . S
C665 H641 0.950 . S
C665 C664 1.524 . S
C665 C666 1.415 . S
C666 H642 0.950 . S
C666 C661 1.363 . S
C666 C665 1.415 . S
C667 H643 0.951 . S
C667 C668 1.366 . S
C667 C669 1.388 . S
C668 C667 1.366 . S
C668 C672 1.385 . S
C669 H644 0.951 . S
C669 C667 1.388 . S
C669 C670 1.366 . S
C670 C669 1.366 . S
C670 C671 1.414 . S
C670 C673 1.499 . S
C671 H645 0.950 . S
C671 C670 1.414 . S
C671 C672 1.374 . S
C672 H646 0.950 . S
C672 C668 1.385 . S
C672 C671 1.374 . S
C673 C670 1.499 . S
C673 C674 1.373 . S
C673 C675 1.389 . S
C674 H647 0.950 . S
C674 C660 1.377 . S
C674 C673 1.373 . S
C675 C659 1.377 . S
C675 C673 1.389 . S
C675 C676 1.524 . S
C676 C675 1.524 . S
C676 C677 1.397 . S
C676 C681 1.363 . S
C677 H648 0.950 . S
C677 C676 1.397 . S
C677 C678 1.334 . S
C678 H649 0.950 . S
C678 C677 1.334 . S
C678 C679 1.287 . S
C679 C678 1.287 . S
C679 C680 1.524 . S
C679 H682 0.999 . S
C680 H650 0.950 . S
C680 C679 1.524 . S
C680 C681 1.415 . S
C681 H651 0.950 . S
C681 C676 1.363 . S
C681 C680 1.415 . S
H682 C679 0.999 . S
H683 C664 0.913 . S
C103 C60 1.563 1_556 S
C118 C15 1.564 . S
C153 C81 1.565 . S
C168 C39 1.564 . S
C203 C57 0.727 1_554 S
C218 C18 0.728 . S
C253 C36 0.727 . S
C268 C78 0.727 . S
C303 C37 1.183 . S
C318 C17 1.324 . S
C353 C35 1.754 . S
C368 C56 1.753 . S
C403 C77 1.324 . S
C418 C58 1.186 . S
C453 C79 0.894 . S
C468 C13 0.891 . S
C503 C55 1.346 . S
C518 C80 1.208 . S
C553 C16 1.626 . S
C568 C76 1.627 . S
C603 C34 1.345 . S
C618 C14 1.210 . S
C653 C59 1.012 . S
C668 C38 1.015 . S
