# Generated by pormake.
# Topology utb, (3)-cn, num edge types: 1
# Building blocks:
#     Node 0, Type 0, BuildingBlock: WUSLED_clean_sbu_0, # of connection points: 3
#     Node 1, Type 0, BuildingBlock: WUSLED_clean_sbu_0, # of connection points: 3
#     Node 2, Type 0, BuildingBlock: WUSLED_clean_sbu_0, # of connection points: 3
#     Node 3, Type 0, BuildingBlock: WUSLED_clean_sbu_0, # of connection points: 3
#     Node 4, Type 0, BuildingBlock: WUSLED_clean_sbu_0, # of connection points: 3
#     Node 5, Type 0, BuildingBlock: WUSLED_clean_sbu_0, # of connection points: 3
#     Node 6, Type 0, BuildingBlock: WUSLED_clean_sbu_0, # of connection points: 3
#     Node 7, Type 0, BuildingBlock: WUSLED_clean_sbu_0, # of connection points: 3
#     Node 8, Type 0, BuildingBlock: WUSLED_clean_sbu_0, # of connection points: 3
#     Node 9, Type 0, BuildingBlock: WUSLED_clean_sbu_0, # of connection points: 3
#     Node 10, Type 0, BuildingBlock: WUSLED_clean_sbu_0, # of connection points: 3
#     Node 11, Type 0, BuildingBlock: WUSLED_clean_sbu_0, # of connection points: 3
#     Node 12, Type 0, BuildingBlock: WUSLED_clean_sbu_0, # of connection points: 3
#     Node 13, Type 0, BuildingBlock: WUSLED_clean_sbu_0, # of connection points: 3
#     Node 14, Type 0, BuildingBlock: WUSLED_clean_sbu_0, # of connection points: 3
#     Node 15, Type 0, BuildingBlock: WUSLED_clean_sbu_0, # of connection points: 3
#     Node 16, Type 0, BuildingBlock: WUSLED_clean_sbu_0, # of connection points: 3
#     Node 17, Type 0, BuildingBlock: WUSLED_clean_sbu_0, # of connection points: 3
#     Node 18, Type 0, BuildingBlock: WUSLED_clean_sbu_0, # of connection points: 3
#     Node 19, Type 0, BuildingBlock: WUSLED_clean_sbu_0, # of connection points: 3
#     Node 20, Type 0, BuildingBlock: WUSLED_clean_sbu_0, # of connection points: 3
#     Node 21, Type 0, BuildingBlock: WUSLED_clean_sbu_0, # of connection points: 3
#     Node 22, Type 0, BuildingBlock: WUSLED_clean_sbu_0, # of connection points: 3
#     Node 23, Type 0, BuildingBlock: WUSLED_clean_sbu_0, # of connection points: 3
#     Edge 24, Type (0, 0), BuildingBlock: OJICUG_clean_linker_0, # of connection points: 2
#     Edge 25, Type (0, 0), BuildingBlock: OJICUG_clean_linker_0, # of connection points: 2
#     Edge 26, Type (0, 0), BuildingBlock: OJICUG_clean_linker_0, # of connection points: 2
#     Edge 27, Type (0, 0), BuildingBlock: OJICUG_clean_linker_0, # of connection points: 2
#     Edge 28, Type (0, 0), BuildingBlock: OJICUG_clean_linker_0, # of connection points: 2
#     Edge 29, Type (0, 0), BuildingBlock: OJICUG_clean_linker_0, # of connection points: 2
#     Edge 30, Type (0, 0), BuildingBlock: OJICUG_clean_linker_0, # of connection points: 2
#     Edge 31, Type (0, 0), BuildingBlock: OJICUG_clean_linker_0, # of connection points: 2
#     Edge 32, Type (0, 0), BuildingBlock: OJICUG_clean_linker_0, # of connection points: 2
#     Edge 33, Type (0, 0), BuildingBlock: OJICUG_clean_linker_0, # of connection points: 2
#     Edge 34, Type (0, 0), BuildingBlock: OJICUG_clean_linker_0, # of connection points: 2
#     Edge 35, Type (0, 0), BuildingBlock: OJICUG_clean_linker_0, # of connection points: 2
#     Edge 36, Type (0, 0), BuildingBlock: OJICUG_clean_linker_0, # of connection points: 2
#     Edge 37, Type (0, 0), BuildingBlock: OJICUG_clean_linker_0, # of connection points: 2
#     Edge 38, Type (0, 0), BuildingBlock: OJICUG_clean_linker_0, # of connection points: 2
#     Edge 39, Type (0, 0), BuildingBlock: OJICUG_clean_linker_0, # of connection points: 2
#     Edge 40, Type (0, 0), BuildingBlock: OJICUG_clean_linker_0, # of connection points: 2
#     Edge 41, Type (0, 0), BuildingBlock: OJICUG_clean_linker_0, # of connection points: 2
#     Edge 42, Type (0, 0), BuildingBlock: OJICUG_clean_linker_0, # of connection points: 2
#     Edge 43, Type (0, 0), BuildingBlock: OJICUG_clean_linker_0, # of connection points: 2
#     Edge 44, Type (0, 0), BuildingBlock: OJICUG_clean_linker_0, # of connection points: 2
#     Edge 45, Type (0, 0), BuildingBlock: OJICUG_clean_linker_0, # of connection points: 2
#     Edge 46, Type (0, 0), BuildingBlock: OJICUG_clean_linker_0, # of connection points: 2
#     Edge 47, Type (0, 0), BuildingBlock: OJICUG_clean_linker_0, # of connection points: 2
#     Edge 48, Type (0, 0), BuildingBlock: OJICUG_clean_linker_0, # of connection points: 2
#     Edge 49, Type (0, 0), BuildingBlock: OJICUG_clean_linker_0, # of connection points: 2
#     Edge 50, Type (0, 0), BuildingBlock: OJICUG_clean_linker_0, # of connection points: 2
#     Edge 51, Type (0, 0), BuildingBlock: OJICUG_clean_linker_0, # of connection points: 2
#     Edge 52, Type (0, 0), BuildingBlock: OJICUG_clean_linker_0, # of connection points: 2
#     Edge 53, Type (0, 0), BuildingBlock: OJICUG_clean_linker_0, # of connection points: 2
#     Edge 54, Type (0, 0), BuildingBlock: OJICUG_clean_linker_0, # of connection points: 2
#     Edge 55, Type (0, 0), BuildingBlock: OJICUG_clean_linker_0, # of connection points: 2
#     Edge 56, Type (0, 0), BuildingBlock: OJICUG_clean_linker_0, # of connection points: 2
#     Edge 57, Type (0, 0), BuildingBlock: OJICUG_clean_linker_0, # of connection points: 2
#     Edge 58, Type (0, 0), BuildingBlock: OJICUG_clean_linker_0, # of connection points: 2
#     Edge 59, Type (0, 0), BuildingBlock: OJICUG_clean_linker_0, # of connection points: 2
# Relax obj value: 0.196
# Max RMSD: 0.190
# Mean RMSD: 0.125
data_MOF--net-utb--node1-WUSLED_clean_sbu_0--edge1-OJICUG_clean_linker_0
_symmetry_space_group_name_H-M    P1
_symmetry_Int_Tables_number       1
_symmetry_cell_setting            triclinic
loop_
_symmetry_equiv_pos_as_xyz
'x, y, z'
_cell_length_a     36.853287
_cell_length_b     85.2239
_cell_length_c     36.183658
_cell_angle_alpha  90.084976
_cell_angle_beta   90.110711
_cell_angle_gamma 90.010428
loop_
_atom_site_label
_atom_site_type_symbol
_atom_site_fract_x
_atom_site_fract_y
_atom_site_fract_z
_atom_type_partial_charge
C0 C 1.00365 0.43415 0.71811 0.0
C1 C 0.96822 0.42883 0.71176 0.0
C2 C 0.98426 0.4032 0.73728 0.0
C3 C 0.95852 0.41346 0.72148 0.0
C4 C 0.01935 0.40888 0.74461 0.0
C5 C 0.02885 0.42419 0.73516 0.0
U6 U 0.01602 0.47678 0.67223 0.0
O7 O 0.0603 0.49249 0.69054 0.0
O8 O 0.06438 0.47997 0.63751 0.0
C9 C 0.0801 0.48947 0.66121 0.0
C10 C 0.01712 0.44914 0.7037 0.0
C11 C 0.10394 0.50179 0.64619 0.0
C12 C 0.16395 0.50816 0.62299 0.0
C13 C 0.13991 0.49752 0.63886 0.0
C14 C 0.11685 0.52798 0.62261 0.0
C15 C 0.15265 0.52342 0.61417 0.0
C16 C 0.09248 0.51718 0.63851 0.0
C17 C 0.91805 0.49354 0.64326 0.0
C18 C 0.8704 0.51212 0.62799 0.0
C19 C 0.85714 0.4843 0.62804 0.0
C20 C 0.89331 0.48113 0.63841 0.0
C21 C 0.84537 0.49987 0.62244 0.0
C22 C 0.90608 0.50898 0.63837 0.0
C23 C 0.95728 0.49129 0.6496 0.0
O24 O 0.01773 0.45111 0.66772 0.0
O25 O 0.01283 0.46216 0.72275 0.0
O26 O 0.9706 0.49308 0.6831 0.0
O27 O 0.97502 0.48112 0.62908 0.0
H28 H 0.9485 0.43636 0.69842 0.0
H29 H 0.93112 0.40951 0.71594 0.0
H30 H 0.04005 0.40129 0.7561 0.0
H31 H 0.05653 0.42805 0.73979 0.0
H32 H 0.19124 0.50431 0.61654 0.0
H33 H 0.14931 0.48572 0.64472 0.0
H34 H 0.10739 0.53963 0.61549 0.0
H35 H 0.06477 0.52071 0.64397 0.0
H36 H 0.8628 0.52422 0.62306 0.0
H37 H 0.83852 0.47461 0.62411 0.0
H38 H 0.90205 0.46909 0.64186 0.0
H39 H 0.92484 0.5187 0.64139 0.0
C40 C 0.03404 0.06229 0.38887 0.0
C41 C 0.04079 0.04662 0.37949 0.0
C42 C 0.04732 0.03989 0.44519 0.0
C43 C 0.04795 0.03558 0.4073 0.0
C44 C 0.04022 0.05575 0.45376 0.0
C45 C 0.03421 0.06676 0.426 0.0
U46 U 1.00232 0.07811 0.29305 0.0
O47 O 0.96213 0.09708 0.28813 0.0
O48 O 0.01778 0.10049 0.26666 0.0
C49 C 0.98587 0.10676 0.27362 0.0
C50 C 0.0246 0.07427 0.36139 0.0
C51 C 0.97268 0.12002 0.25165 0.0
C52 C 0.94788 0.14638 0.25222 0.0
C53 C 0.96241 0.13356 0.27089 0.0
C54 C 0.95491 0.13248 0.1942 0.0
C55 C 0.94357 0.14603 0.21361 0.0
C56 C 0.96922 0.11952 0.21314 0.0
C57 C 0.98243 0.04619 0.21604 0.0
C58 C 0.94318 0.04537 0.16205 0.0
C59 C 0.97684 0.02222 0.18039 0.0
C60 C 0.99222 0.03056 0.20958 0.0
C61 C 0.95094 0.0293 0.15721 0.0
C62 C 0.95876 0.05377 0.19146 0.0
C63 C 0.994 0.05322 0.2512 0.0
O64 O 0.04694 0.07639 0.33355 0.0
O65 O 0.99029 0.07474 0.35181 0.0
O66 O 0.9684 0.05873 0.2729 0.0
O67 O 0.02407 0.06153 0.2517 0.0
H68 H 0.0404 0.04292 0.35082 0.0
H69 H 0.05384 0.02372 0.39864 0.0
H70 H 0.03806 0.05983 0.48193 0.0
H71 H 0.02866 0.07882 0.4337 0.0
H72 H 0.93888 0.15633 0.26842 0.0
H73 H 0.96493 0.1341 0.30072 0.0
H74 H 0.95254 0.13183 0.16442 0.0
H75 H 0.97715 0.10913 0.19788 0.0
H76 H 0.92341 0.05118 0.14464 0.0
H77 H 0.98413 1.00999 0.17697 0.0
H78 H 0.0105 0.02453 0.22829 0.0
H79 H 0.951 0.06588 0.19604 0.0
C80 C 0.70722 0.60376 0.37578 0.0
C81 C 0.72856 0.61286 0.3996 0.0
C82 C 0.75122 0.62833 0.34798 0.0
C83 C 0.75041 0.62487 0.38597 0.0
C84 C 0.72879 0.61948 0.32404 0.0
C85 C 0.70711 0.60722 0.3378 0.0
U86 U 0.63435 0.57016 0.39266 0.0
O87 O 0.60966 0.56569 0.33818 0.0
O88 O 0.58018 0.57983 0.37877 0.0
C89 C 0.57994 0.57362 0.34549 0.0
C90 C 0.68934 0.58982 0.39173 0.0
C91 C 0.54566 0.56669 0.3317 0.0
C92 C 0.49065 0.56813 0.2671 0.0
C93 C 0.52544 0.57534 0.29417 0.0
C94 C 0.47883 0.53783 0.30655 0.0
C95 C 0.4682 0.55059 0.2714 0.0
C96 C 0.53144 0.54869 0.34728 0.0
C97 C 0.66315 0.54272 0.47185 0.0
C98 C 0.68447 0.51636 0.52648 0.0
C99 C 0.7362 0.54273 0.5381 0.0
C100 C 0.69716 0.5553 0.4856 0.0
C101 C 0.72107 0.52437 0.54875 0.0
C102 C 0.65838 0.52464 0.49198 0.0
C103 C 0.63749 0.54749 0.44229 0.0
O104 O 0.66036 0.592 0.41221 0.0
O105 O 0.68821 0.57692 0.37183 0.0
O106 O 0.64897 0.54587 0.40812 0.0
O107 O 0.62059 0.56086 0.44768 0.0
H108 H 0.72948 0.61025 0.4289 0.0
H109 H 0.76773 0.63103 0.40534 0.0
H110 H 0.72821 0.6219 0.29468 0.0
H111 H 0.69097 0.60029 0.31878 0.0
H112 H 0.48313 0.57539 0.24384 0.0
H113 H 0.53681 0.58643 0.28547 0.0
H114 H 0.46476 0.52655 0.30715 0.0
H115 H 0.54638 0.54365 0.37059 0.0
H116 H 0.6773 0.50453 0.53435 0.0
H117 H 0.76026 0.54695 0.5529 0.0
H118 H 0.6989 0.56662 0.47143 0.0
H119 H 0.63647 0.51743 0.48154 0.0
C120 C 0.72607 0.90439 0.9844 0.0
C121 C 0.76389 0.90212 0.98601 0.0
C122 C 0.75467 0.87402 0.99436 0.0
C123 C 0.77814 0.88695 0.99065 0.0
C124 C 0.71705 0.87646 0.99272 0.0
C125 C 0.70297 0.89146 0.98775 0.0
U126 U 0.72614 0.94948 0.99123 0.0
O127 O 0.70012 0.96714 0.95536 0.0
O128 O 0.68368 0.96488 0.01391 0.0
C129 C 0.67987 0.97245 0.98253 0.0
C130 C 0.7093 0.91996 0.98007 0.0
C131 C 0.64502 0.98006 0.97427 0.0
C132 C 0.58128 0.98065 0.95641 0.0
C133 C 0.61371 0.9722 0.9622 0.0
C134 C 0.61236 1.00464 0.97277 0.0
C135 C 0.57973 0.99716 0.96211 0.0
C136 C 0.64389 0.99622 0.97939 0.0
C137 C 0.81629 0.96851 0.02738 0.0
C138 C 0.82915 0.99521 0.04749 0.0
C139 C 0.87411 0.97474 0.05571 0.0
C140 C 0.85091 0.96397 0.03904 0.0
C141 C 0.86316 0.99034 0.06105 0.0
C142 C 0.8056 0.98429 0.03085 0.0
C143 C 0.79185 0.95598 0.01473 0.0
O144 O 0.70227 0.92742 0.01102 0.0
O145 O 0.72237 0.92908 0.95399 0.0
O146 O 0.78306 0.95567 0.97953 0.0
O147 O 0.76492 0.95237 0.03686 0.0
H148 H 0.78222 0.91202 0.98374 0.0
H149 H 0.80729 0.88533 0.99179 0.0
H150 H 0.69839 0.86668 0.9948 0.0
H151 H 0.6738 0.89298 0.98656 0.0
H152 H 0.5578 0.974 0.9479 0.0
H153 H 0.61417 0.95963 0.95772 0.0
H154 H 0.61488 0.01711 0.97604 0.0
H155 H 0.6679 1.00251 0.98847 0.0
H156 H 0.82011 1.00719 0.05153 0.0
H157 H 0.90023 0.97073 0.06572 0.0
H158 H 0.85957 0.95186 0.03653 0.0
H159 H 0.77887 0.98799 0.02196 0.0
C160 C 0.46341 0.56119 0.68722 0.0
C161 C 0.47859 0.54329 0.67176 0.0
C162 C 0.53727 0.54499 0.75149 0.0
C163 C 0.52902 0.53229 0.71575 0.0
C164 C 0.51452 0.56239 0.75482 0.0
C165 C 0.4815 0.56964 0.72598 0.0
U166 U 0.3717 0.56357 0.63038 0.0
O167 O 0.31895 0.57072 0.65347 0.0
O168 O 0.3443 0.58494 0.60993 0.0
C169 C 0.31654 0.5832 0.63232 0.0
C170 C 0.42872 0.5679 0.67375 0.0
C171 C 0.29939 0.59748 0.64773 0.0
C172 C 0.27889 0.61391 0.69892 0.0
C173 C 0.29967 0.60124 0.68562 0.0
C174 C 0.25791 0.61918 0.63674 0.0
C175 C 0.2575 0.62296 0.67456 0.0
C176 C 0.27859 0.60666 0.62359 0.0
C177 C 0.33998 0.53314 0.55655 0.0
C178 C 0.32061 0.52955 0.49227 0.0
C179 C 0.28958 0.51568 0.54105 0.0
C180 C 0.31247 0.52267 0.56734 0.0
C181 C 0.29326 0.51901 0.50311 0.0
C182 C 0.34397 0.53633 0.51856 0.0
C183 C 0.36623 0.53966 0.58425 0.0
O184 O 0.4269 0.57322 0.63971 0.0
O185 O 0.39916 0.56046 0.68391 0.0
O186 O 0.35708 0.5389 0.61934 0.0
O187 O 0.3824 0.55294 0.57583 0.0
H188 H 0.46501 0.53828 0.64754 0.0
H189 H 0.5437 0.52112 0.71596 0.0
H190 H 0.52049 0.56947 0.7789 0.0
H191 H 0.46937 0.58061 0.73456 0.0
H192 H 0.27945 0.61657 0.72819 0.0
H193 H 0.31528 0.59426 0.70492 0.0
H194 H 0.24128 0.6256 0.61724 0.0
H195 H 0.27738 0.60381 0.5944 0.0
H196 H 0.32433 0.53242 0.46338 0.0
H197 H 0.26841 0.50788 0.55064 0.0
H198 H 0.30872 0.5197 0.59617 0.0
H199 H 0.36519 0.54413 0.50905 0.0
C200 C 0.98192 0.06131 0.6292 0.0
C201 C 0.97595 0.04547 0.6377 0.0
C202 C 0.96638 0.03956 0.57196 0.0
C203 C 0.96789 0.0347 0.60934 0.0
C204 C 0.97357 0.05549 0.56423 0.0
C205 C 0.98059 0.06618 0.59243 0.0
U206 U 0.01579 0.07763 0.72441 0.0
O207 O 0.05508 0.097 0.72753 0.0
O208 O 1.00017 0.09997 0.75104 0.0
C209 C 0.03155 0.10651 0.74302 0.0
C210 C 0.99154 0.07321 0.65695 0.0
C211 C 0.04536 0.11953 0.76553 0.0
C212 C 0.06933 0.14605 0.7659 0.0
C213 C 0.05461 0.13334 0.74689 0.0
C214 C 0.06482 0.13149 0.82317 0.0
C215 C 0.07492 0.14534 0.8043 0.0
C216 C 0.05025 0.11863 0.80386 0.0
C217 C 0.04181 0.04707 0.8014 0.0
C218 C 0.07558 0.04959 0.8587 0.0
C219 C 0.05759 0.02386 0.83659 0.0
C220 C 0.0416 0.0308 0.80587 0.0
C221 C 0.07567 0.03316 0.86275 0.0
C222 C 0.05834 0.05656 0.82825 0.0
C223 C 0.02765 0.05315 0.76641 0.0
O224 O 0.96994 0.07509 0.68551 0.0
O225 O 0.0261 0.07412 0.66534 0.0
O226 O 0.05168 0.05871 0.74306 0.0
O227 O 0.99703 0.06108 0.76711 0.0
H228 H 0.9775 0.04146 0.66606 0.0
H229 H 0.96266 0.02266 0.61702 0.0
H230 H 0.97472 0.05988 0.53626 0.0
H231 H 0.98577 0.07833 0.58532 0.0
H232 H 0.0774 0.15624 0.75009 0.0
H233 H 0.05105 0.1342 0.71721 0.0
H234 H 0.06829 0.13054 0.85279 0.0
H235 H 0.04317 0.10803 0.81868 0.0
H236 H 0.08964 0.05694 0.87853 0.0
H237 H 0.05793 1.01117 0.83856 0.0
H238 H 0.03084 0.02344 0.78428 0.0
H239 H 0.05919 0.06919 0.8249 0.0
C240 C 0.0265 0.42238 0.30451 0.0
C241 C 0.06345 0.41868 0.30129 0.0
C242 C 0.0476 0.39185 0.28411 0.0
C243 C 0.07396 0.40342 0.29116 0.0
C244 C 0.01078 0.39576 0.28631 0.0
C245 C 1.00035 0.41089 0.2965 0.0
U246 U 0.01326 0.46546 0.34891 0.0
O247 O 0.96918 0.48095 0.32917 0.0
O248 O 0.96398 0.46856 0.38222 0.0
C249 C 0.94869 0.4779 0.35797 0.0
C250 C 0.01344 0.43757 0.31837 0.0
C251 C 0.92395 0.49005 0.37216 0.0
C252 C 0.86221 0.49623 0.39003 0.0
C253 C 0.88732 0.48591 0.37477 0.0
C254 C 0.9097 0.51547 0.39957 0.0
C255 C 0.87306 0.51099 0.40344 0.0
C256 C 0.93515 0.50499 0.38412 0.0
C257 C 0.10717 0.48525 0.38497 0.0
C258 C 0.14443 0.50549 0.41342 0.0
C259 C 0.17087 0.48026 0.39847 0.0
C260 C 0.13733 0.4752 0.38415 0.0
C261 C 0.17463 0.49543 0.41365 0.0
C262 C 0.11114 0.50044 0.39928 0.0
C263 C 0.07054 0.48022 0.37367 0.0
O264 O 0.01146 0.43975 0.35423 0.0
O265 O 0.01856 0.45047 0.29915 0.0
O266 O 0.0592 0.48172 0.33936 0.0
O267 O 0.05248 0.47001 0.3937 0.0
H268 H 0.08396 0.42742 0.30742 0.0
H269 H 0.10254 0.40056 0.28955 0.0
H270 H 0.9901 0.38698 0.28121 0.0
H271 H 0.97169 0.41353 0.29904 0.0
H272 H 0.8342 0.49247 0.39207 0.0
H273 H 0.87812 0.47447 0.36558 0.0
H274 H 0.91883 0.52676 0.40976 0.0
H275 H 0.96341 0.50839 0.38226 0.0
H276 H 0.14615 0.51712 0.42545 0.0
H277 H 0.19373 0.47228 0.39808 0.0
H278 H 0.13479 0.46342 0.37316 0.0
H279 H 0.08806 0.5083 0.40045 0.0
C280 C 0.30214 0.90824 0.03026 0.0
C281 C 0.26813 0.90626 0.01306 0.0
C282 C 0.27233 0.87804 0.02253 0.0
C283 C 0.25331 0.89114 0.00908 0.0
C284 C 0.30596 0.88017 0.03992 0.0
C285 C 0.32075 0.89512 0.04363 0.0
U286 U 0.3054 0.95343 0.02384 0.0
O287 O 0.33196 0.97029 0.06154 0.0
O288 O 0.34998 0.96826 1.00322 0.0
C289 C 0.35335 0.97546 0.0352 0.0
C290 C 0.31986 0.92362 0.034 0.0
C291 C 0.38707 0.98378 0.04434 0.0
C292 C 0.45038 0.98557 0.06318 0.0
C293 C 0.41893 0.97653 0.05688 0.0
C294 C 0.41722 1.00892 0.0462 0.0
C295 C 0.4505 1.00205 0.05705 0.0
C296 C 0.38653 0.99994 0.03956 0.0
C297 C 0.21617 0.97366 0.9878 0.0
C298 C 0.20268 1.00059 0.97035 0.0
C299 C 0.15818 0.98011 0.96014 0.0
C300 C 0.18168 0.9692 0.97572 0.0
C301 C 0.16828 0.99597 0.9568 0.0
C302 C 0.22663 0.98948 0.98551 0.0
C303 C 0.24049 0.96103 0.99998 0.0
O304 O 0.32682 0.93105 1.00304 0.0
O305 O 0.30768 0.93282 0.06039 0.0
O306 O 0.26754 0.95748 0.97791 0.0
O307 O 0.24883 0.96029 0.03526 0.0
H308 H 0.2533 0.9163 1.00264 0.0
H309 H 0.22711 0.88968 0.99587 0.0
H310 H 0.32096 0.87019 0.05045 0.0
H311 H 0.34698 0.89644 0.05684 0.0
H312 H 0.47421 0.9794 0.07255 0.0
H313 H 0.41966 0.96397 0.06136 0.0
H314 H 0.41362 0.02127 0.04195 0.0
H315 H 0.362 1.00576 0.03023 0.0
H316 H 0.21132 0.01272 0.96888 0.0
H317 H 0.13265 0.97582 0.94933 0.0
H318 H 0.17328 0.95702 0.97712 0.0
H319 H 0.25329 0.99315 0.99476 0.0
C320 C 0.27748 0.11932 0.03413 0.0
C321 C 0.24003 0.11772 0.04013 0.0
C322 C 0.23815 0.14379 0.0685 0.0
C323 C 0.22046 0.12991 0.05696 0.0
C324 C 0.27567 0.14519 0.06204 0.0
C325 C 0.29495 0.13315 0.04488 0.0
U326 U 0.29403 0.07629 1.00687 0.0
O327 O 0.32696 0.06663 0.96121 0.0
O328 O 0.34255 0.0621 0.01985 0.0
C329 C 0.34991 0.06021 0.98461 0.0
C330 C 0.29975 0.10654 0.01902 0.0
C331 C 0.38137 0.05115 0.97207 0.0
C332 C 0.44471 0.05016 0.95429 0.0
C333 C 0.41348 0.05882 0.96226 0.0
C334 C 0.41149 0.02604 0.96439 0.0
C335 C 0.44461 0.03361 0.95659 0.0
C336 C 0.38028 0.03475 0.97236 0.0
C337 C 0.20887 0.04904 0.02573 0.0
C338 C 0.19749 0.02413 0.056 0.0
C339 C 0.14711 0.03999 0.03465 0.0
C340 C 0.17147 0.05094 0.02046 0.0
C341 C 0.15983 0.02692 0.05434 0.0
C342 C 0.22193 0.03518 0.04191 0.0
C343 C 0.23162 0.06309 0.02189 0.0
O344 O 0.30959 0.09585 0.04309 0.0
O345 O 0.28973 0.10064 0.987 0.0
O346 O 0.23988 0.06812 0.98862 0.0
O347 O 0.25747 0.06514 0.04651 0.0
H348 H 0.2261 0.10702 0.03224 0.0
H349 H 0.19157 0.12839 0.061 0.0
H350 H 0.29068 0.15538 0.07127 0.0
H351 H 0.32391 0.13449 0.04083 0.0
H352 H 0.46902 0.05654 0.94699 0.0
H353 H 0.4147 0.07152 0.96174 0.0
H354 H 0.40987 0.01341 0.96643 0.0
H355 H 0.35556 0.02867 0.9799 0.0
H356 H 0.20815 0.01408 0.07075 0.0
H357 H 0.11829 0.04225 0.03211 0.0
H358 H 0.1609 0.06156 1.00801 0.0
H359 H 0.25076 0.03346 0.04616 0.0
C360 C 0.88744 0.22855 0.838 0.0
C361 C 0.89152 0.21393 0.82068 0.0
C362 C 0.86377 0.20106 0.87407 0.0
C363 C 0.87983 0.20024 0.83868 0.0
C364 C 0.85936 0.21591 0.89054 0.0
C365 C 0.87134 0.22941 0.87284 0.0
U366 U 0.92989 0.25717 0.76471 0.0
O367 O 0.90993 0.28115 0.75481 0.0
O368 O 0.96407 0.27747 0.78033 0.0
C369 C 0.93857 0.28745 0.77069 0.0
C370 C 0.89975 0.24332 0.82156 0.0
C371 C 0.94679 0.30409 0.76511 0.0
C372 C 0.95044 0.33024 0.7916 0.0
C373 C 0.94448 0.31417 0.79566 0.0
C374 C 0.9615 0.32633 0.72621 0.0
C375 C 0.95888 0.33654 0.7568 0.0
C376 C 0.95541 0.3102 0.73033 0.0
C377 C 0.96672 0.24115 0.67027 0.0
C378 C 0.98653 0.25491 0.61521 0.0
C379 C 0.99254 0.22664 0.61885 0.0
C380 C 0.97742 0.22694 0.65414 0.0
C381 C 0.9972 0.2406 0.59882 0.0
C382 C 0.97143 0.25519 0.65074 0.0
C383 C 0.94985 0.24059 0.70699 0.0
O384 O 0.93493 0.24534 0.8184 0.0
O385 O 0.88103 0.24882 0.79351 0.0
O386 O 0.91749 0.24694 0.7103 0.0
O387 O 0.97117 0.24322 0.73551 0.0
H388 H 0.90393 0.21309 0.79363 0.0
H389 H 0.88394 0.18905 0.82512 0.0
H390 H 0.8462 0.21723 0.91707 0.0
H391 H 0.8679 0.24065 0.88649 0.0
H392 H 0.94769 0.33776 0.81559 0.0
H393 H 0.93751 0.30962 0.82269 0.0
H394 H 0.96841 0.33081 0.69913 0.0
H395 H 0.95726 0.30254 0.70649 0.0
H396 H 0.98926 0.26587 0.60037 0.0
H397 H 1.00089 0.21546 0.60743 0.0
H398 H 0.97393 0.21599 0.6689 0.0
H399 H 0.96316 0.26628 0.66274 0.0
C400 C 0.0423 0.97086 0.62063 0.0
C401 C 0.0345 0.98668 0.62845 0.0
C402 C 0.05225 0.99411 0.56555 0.0
C403 C 0.03959 0.99823 0.60115 0.0
C404 C 0.06125 0.97832 0.55888 0.0
C405 C 0.05607 0.96689 0.5859 0.0
U406 U 0.01237 0.95316 0.71475 0.0
O407 O 0.98167 0.93149 0.72579 0.0
O408 O 0.03773 0.93409 0.74676 0.0
C409 C 1.00816 0.92547 0.74555 0.0
C410 C 0.03619 0.958 0.64728 0.0
C411 C 0.01129 0.90835 0.748 0.0
C412 C 0.03443 0.88294 0.7288 0.0
C413 C 0.03189 0.89922 0.72344 0.0
C414 C 0.99547 0.88496 0.78254 0.0
C415 C 0.01609 0.87575 0.7584 0.0
C416 C 0.99324 0.90111 0.77742 0.0
C417 C 0.97612 0.98259 0.78933 0.0
C418 C 0.94295 0.97959 0.84705 0.0
C419 C 0.96336 1.00525 0.82724 0.0
C420 C 0.97792 0.99866 0.79557 0.0
C421 C 0.94411 0.99599 0.85261 0.0
C422 C 0.95918 0.97287 0.81552 0.0
C423 C 0.99071 0.97722 0.75381 0.0
O424 O 0.05756 0.9576 0.67639 0.0
O425 O 1.00224 0.95456 0.65486 0.0
O426 O 0.96897 0.96924 0.73197 0.0
O427 O 0.02457 0.9724 0.75338 0.0
H428 H 0.02398 0.99003 0.65526 0.0
H429 H 0.03227 1.01023 0.60756 0.0
H430 H 0.07227 0.97463 0.53257 0.0
H431 H 0.06261 0.9548 0.57944 0.0
H432 H 0.05045 0.87595 0.70986 0.0
H433 H 0.04604 0.90464 0.70055 0.0
H434 H 0.98157 0.8797 0.8058 0.0
H435 H 0.97753 0.90803 0.79679 0.0
H436 H 0.92831 0.9721 0.86602 0.0
H437 H 0.96596 0.01781 0.83091 0.0
H438 H 0.98942 1.00621 0.77476 0.0
H439 H 0.95738 0.96032 0.81101 0.0
C440 C 0.97571 0.77781 0.22328 0.0
C441 C 1.00084 0.78244 0.25033 0.0
C442 C 0.9946 0.80974 0.23087 0.0
C443 C 0.01054 0.79825 0.25382 0.0
C444 C 0.97096 0.80476 0.20256 0.0
C445 C 0.96178 0.78895 0.19877 0.0
U446 U 0.96202 0.73784 0.26808 0.0
O447 O 0.90889 0.72798 0.28206 0.0
O448 O 0.94539 0.71494 0.24477 0.0
C449 C 0.91347 0.71557 0.26098 0.0
C450 C 0.95889 0.76225 0.22425 0.0
C451 C 0.89621 0.70094 0.27302 0.0
C452 C 0.8486 0.68188 0.26124 0.0
C453 C 0.86985 0.69446 0.24961 0.0
C454 C 0.88049 0.68175 0.31989 0.0
C455 C 0.85322 0.67555 0.2967 0.0
C456 C 0.90192 0.6944 0.30811 0.0
C457 C 0.02004 0.73026 0.35535 0.0
C458 C 1.00127 0.71361 0.40597 0.0
C459 C 0.04848 0.73308 0.41517 0.0
C460 C 0.04617 0.73726 0.3781 0.0
C461 C 0.02443 0.72194 0.42985 0.0
C462 C 0.99896 0.71782 0.36874 0.0
C463 C 1.01005 0.73845 0.32152 0.0
O464 O 0.97981 0.75007 0.21747 0.0
O465 O 0.93741 0.76021 0.25266 0.0
O466 O 0.97851 0.74559 0.32315 0.0
O467 O 0.01589 0.73125 0.28993 0.0
H468 H 0.01158 0.77397 0.2698 0.0
H469 H 0.02949 0.80149 0.27541 0.0
H470 H 0.95756 0.81311 0.18466 0.0
H471 H 0.94196 0.78557 0.17808 0.0
H472 H 0.82748 0.67754 0.24304 0.0
H473 H 0.86469 0.69955 0.22267 0.0
H474 H 0.88472 0.67699 0.34731 0.0
H475 H 0.92199 0.69935 0.32666 0.0
H476 H 0.9825 0.70497 0.41668 0.0
H477 H 0.06695 0.73949 0.433 0.0
H478 H 0.06256 0.74691 0.36807 0.0
H479 H 0.97862 0.71236 0.35133 0.0
C480 C 0.98282 0.90712 0.2925 0.0
C481 C 1.00237 0.90406 0.25987 0.0
C482 C 0.99054 0.876 0.26671 0.0
C483 C 1.00611 0.88855 0.24695 0.0
C484 C 0.96953 0.8794 0.29812 0.0
C485 C 0.96592 0.89473 0.31088 0.0
U486 U 0.99485 0.9522 0.29392 0.0
O487 O 0.95951 0.97031 0.31858 0.0
O488 O 0.01564 0.96721 0.33889 0.0
C489 C 0.98521 0.97521 0.34105 0.0
C490 C 0.98081 0.92279 0.30968 0.0
C491 C 0.97526 0.98262 0.37642 0.0
C492 C 0.95684 0.98265 0.44115 0.0
C493 C 0.96443 0.9744 0.4082 0.0
C494 C 0.97078 1.00708 0.41029 0.0
C495 C 0.96002 0.99918 0.44262 0.0
C496 C 0.97813 0.99894 0.37788 0.0
C497 C 0.0334 0.9704 0.20205 0.0
C498 C 0.06077 0.99561 0.18756 0.0
C499 C 0.05541 0.97559 0.14023 0.0
C500 C 0.03853 0.96569 0.16541 0.0
C501 C 0.06778 0.99046 0.15118 0.0
C502 C 0.04375 0.98558 0.21301 0.0
C503 C 0.02014 0.95841 0.22784 0.0
O504 O 0.01194 0.9296 0.31731 0.0
O505 O 0.9563 0.93247 0.29637 0.0
O506 O 0.98532 0.95831 0.23552 0.0
O507 O 0.04101 0.95501 0.2562 0.0
H508 H 0.0154 0.91354 0.24503 0.0
H509 H 0.02218 0.88634 0.22245 0.0
H510 H 0.95614 0.87013 0.31333 0.0
H511 H 0.95045 0.89687 0.33583 0.0
H512 H 0.9485 0.97608 0.46527 0.0
H513 H 0.96211 0.96173 0.40765 0.0
H514 H 0.97509 0.01963 0.41004 0.0
H515 H 0.98686 1.00548 0.35381 0.0
H516 H 0.06986 1.00706 0.19677 0.0
H517 H 0.0596 0.97141 0.11228 0.0
H518 H 0.03057 0.95404 0.15648 0.0
H519 H 0.03982 0.98944 0.24125 0.0
C520 C 0.0988 0.29443 0.24399 0.0
C521 C 0.07922 0.29866 0.27578 0.0
C522 C 0.08132 0.32631 0.25757 0.0
C523 C 0.07049 0.31446 0.28247 0.0
C524 C 0.10107 0.32188 0.22598 0.0
C525 C 0.10958 0.30615 0.2193 0.0
U526 U 0.10783 0.25077 0.26985 0.0
O527 O 0.09648 0.22953 0.23693 0.0
O528 O 0.15189 0.23402 0.25793 0.0
C529 C 0.12997 0.22441 0.24025 0.0
C530 C 0.10854 0.27797 0.23569 0.0
C531 C 0.14487 0.21402 0.21163 0.0
C532 C 0.1682 0.20809 0.15032 0.0
C533 C 0.15464 0.21901 0.17606 0.0
C534 C 0.16277 0.18747 0.19599 0.0
C535 C 0.17212 0.1921 0.15997 0.0
C536 C 0.14914 0.19826 0.22125 0.0
C537 C 0.07184 0.24681 0.37497 0.0
C538 C 0.06518 0.22964 0.42815 0.0
C539 C 0.04594 0.25681 0.43162 0.0
C540 C 0.05645 0.25907 0.3952 0.0
C541 C 0.05058 0.24219 0.44873 0.0
C542 C 0.07605 0.23197 0.39132 0.0
C543 C 0.08359 0.2505 0.33737 0.0
O544 O 0.13665 0.27234 0.2537 0.0
O545 O 0.08147 0.26797 0.23327 0.0
O546 O 0.06224 0.24804 0.30883 0.0
O547 O 0.11812 0.25247 0.32973 0.0
H548 H 0.07063 0.28978 0.29529 0.0
H549 H 0.0549 0.31736 0.30689 0.0
H550 H 0.11056 0.33059 0.20653 0.0
H551 H 0.12484 0.30313 0.19473 0.0
H552 H 0.17506 0.21211 0.12285 0.0
H553 H 0.15163 0.2312 0.16819 0.0
H554 H 0.16639 0.17548 0.20509 0.0
H555 H 0.14197 0.19423 0.24869 0.0
H556 H 0.06891 0.21823 0.44076 0.0
H557 H 0.03408 0.26659 0.44647 0.0
H558 H 0.05288 0.27055 0.38284 0.0
H559 H 0.08788 0.22235 0.37589 0.0
C560 C 0.76557 0.1238 0.98718 0.0
C561 C 0.79714 0.12023 0.96723 0.0
C562 C 0.80475 0.14792 0.95276 0.0
C563 C 0.81661 0.13229 0.94991 0.0
C564 C 0.77391 0.15142 0.97381 0.0
C565 C 0.75441 0.13943 0.99074 0.0
U566 U 0.73194 0.0817 0.01493 0.0
O567 O 0.69442 0.07647 0.0608 0.0
O568 O 0.67636 0.07409 1.00288 0.0
C569 C 0.66757 0.07332 0.03798 0.0
C570 C 0.74122 0.11165 1.00134 0.0
C571 C 0.64054 0.06159 0.04859 0.0
C572 C 0.57897 0.05719 0.06914 0.0
C573 C 0.60789 0.06728 0.0628 0.0
C574 C 0.61536 0.03526 0.04821 0.0
C575 C 0.58167 0.0411 0.06069 0.0
C576 C 0.64461 0.04548 0.04194 0.0
C577 C 0.81145 0.04989 0.99473 0.0
C578 C 0.82782 0.02386 0.97328 0.0
C579 C 0.8723 0.04484 0.97271 0.0
C580 C 0.84697 0.05503 0.98836 0.0
C581 C 0.86241 0.02937 0.96377 0.0
C582 C 0.80229 0.03414 0.98844 0.0
C583 C 0.78298 0.06142 1.00201 0.0
O584 O 0.72855 0.10163 0.97693 0.0
O585 O 0.74912 0.10525 0.03339 0.0
O586 O 0.77988 0.06846 0.03422 0.0
O587 O 0.75881 0.0652 0.97677 0.0
H588 H 0.80601 0.10819 0.96416 0.0
H589 H 0.84053 0.12943 0.9339 0.0
H590 H 0.76417 0.16338 0.97606 0.0
H591 H 0.72982 0.14232 1.00568 0.0
H592 H 0.55421 0.06217 0.08008 0.0
H593 H 0.60431 0.07972 0.06801 0.0
H594 H 0.61875 0.02295 0.04181 0.0
H595 H 0.66979 0.04091 0.03088 0.0
H596 H 0.81957 0.01205 0.96606 0.0
H597 H 0.89875 0.04934 0.96507 0.0
H598 H 0.85429 0.06721 0.99281 0.0
H599 H 0.77484 0.03005 0.9931 0.0
C600 C 0.04539 0.77748 0.79262 0.0
C601 C 0.0225 0.78263 0.76399 0.0
C602 C 0.02759 0.8094 0.78666 0.0
C603 C 0.01341 0.79853 0.76119 0.0
C604 C 0.04867 0.80401 0.81638 0.0
C605 C 0.05743 0.78815 0.81935 0.0
U606 U 0.0587 0.73736 0.74809 0.0
O607 O 0.11172 0.72713 0.73464 0.0
O608 O 0.07454 0.71452 0.77192 0.0
C609 C 0.10662 0.71489 0.75603 0.0
C610 C 0.06202 0.76189 0.79162 0.0
C611 C 0.12352 0.70006 0.74466 0.0
C612 C 0.17233 0.68144 0.75512 0.0
C613 C 0.15286 0.6947 0.76585 0.0
C614 C 0.13323 0.67858 0.70157 0.0
C615 C 0.163 0.67337 0.72273 0.0
C616 C 0.11339 0.69186 0.7126 0.0
C617 C 1.00068 0.7298 0.6607 0.0
C618 C 0.01943 0.7133 0.60973 0.0
C619 C 0.97203 0.73271 0.60103 0.0
C620 C 0.97441 0.7368 0.63817 0.0
C621 C 0.99616 0.72165 0.58607 0.0
C622 C 0.0218 0.71743 0.64702 0.0
C623 C 0.01089 0.73801 0.69449 0.0
O624 O 0.04094 0.74979 0.7985 0.0
O625 O 0.08354 0.75973 0.76326 0.0
O626 O 0.04264 0.74497 0.69286 0.0
O627 O 1.00475 0.73092 0.72612 0.0
H628 H 0.01338 0.77453 0.74279 0.0
H629 H 0.99729 0.80246 0.73791 0.0
H630 H 0.05965 0.81218 0.83646 0.0
H631 H 0.07537 0.78437 0.84136 0.0
H632 H 0.19548 0.67778 0.77149 0.0
H633 H 0.16133 0.70103 0.7904 0.0
H634 H 0.12568 0.67249 0.67641 0.0
H635 H 0.0909 0.69589 0.69584 0.0
H636 H 0.03826 0.70472 0.59879 0.0
H637 H 0.9535 0.73914 0.58337 0.0
H638 H 0.958 0.74642 0.64843 0.0
H639 H 0.04228 0.71198 0.66425 0.0
C640 C 0.77903 0.29832 0.07976 0.0
C641 C 0.75108 0.30184 0.05462 0.0
C642 C 0.76187 0.33 0.0627 0.0
C643 C 0.74279 0.31749 0.04597 0.0
C644 C 0.78936 0.32627 0.08845 0.0
C645 C 0.79792 0.31065 0.09663 0.0
U646 U 0.75173 0.25552 0.08757 0.0
O647 O 0.78032 0.23346 0.0749 0.0
O648 O 0.76065 0.23804 0.13148 0.0
C649 C 0.77676 0.22819 0.10885 0.0
C650 C 0.78829 0.28193 0.08939 0.0
C651 C 0.80505 0.21779 0.12375 0.0
C652 C 0.86572 0.21179 0.1465 0.0
C653 C 0.84026 0.22275 0.13315 0.0
C654 C 0.82052 0.19124 0.14165 0.0
C655 C 0.85614 0.19582 0.15039 0.0
C656 C 0.79551 0.20205 0.12834 0.0
C657 C 0.64935 0.25114 0.05433 0.0
C658 C 0.60833 0.23 0.03652 0.0
C659 C 0.5874 0.25698 0.03712 0.0
C660 C 0.62126 0.26192 0.04925 0.0
C661 C 0.58072 0.24107 0.02992 0.0
C662 C 0.64284 0.23505 0.04846 0.0
C663 C 0.68497 0.25781 0.06337 0.0
O664 O 0.77126 0.27622 0.11827 0.0
O665 O 0.79002 0.27197 0.06164 0.0
O666 O 0.71252 0.25453 0.04169 0.0
O667 O 0.69367 0.25947 0.09837 0.0
H668 H 0.73578 0.2925 0.04152 0.0
H669 H 0.72173 0.3197 0.02575 0.0
H670 H 0.80411 0.33539 0.10288 0.0
H671 H 0.81924 0.3082 0.11645 0.0
H672 H 0.89291 0.21573 0.1531 0.0
H673 H 0.84806 0.23492 0.12994 0.0
H674 H 0.81165 0.17923 0.14534 0.0
H675 H 0.76838 0.19805 0.12153 0.0
H676 H 0.60357 0.21766 0.03126 0.0
H677 H 0.56642 0.26569 0.03272 0.0
H678 H 0.62581 0.27435 0.05371 0.0
H679 H 0.66435 0.22655 0.05232 0.0
C680 C 0.27777 0.70391 0.11816 0.0
C681 C 0.30597 0.69377 0.10791 0.0
C682 C 0.2969 0.67875 0.16474 0.0
C683 C 0.31541 0.68118 0.13106 0.0
C684 C 0.26798 0.68874 0.17385 0.0
C685 C 0.25867 0.70118 0.15088 0.0
U686 U 0.27621 0.73938 0.04615 0.0
O687 O 0.22707 0.75234 0.02887 0.0
O688 O 0.26441 0.76231 0.07009 0.0
C689 C 0.23543 0.76449 0.04968 0.0
C690 C 0.26862 0.71823 0.09784 0.0
C691 C 0.23328 0.78013 0.03318 0.0
C692 C 0.20756 0.80616 0.03832 0.0
C693 C 0.20582 0.79014 0.04556 0.0
C694 C 0.2631 0.80224 1.0037 0.0
C695 C 0.23687 0.81246 0.01853 0.0
C696 C 0.26144 0.78613 0.01119 0.0
C697 C 0.35917 0.72878 0.98677 0.0
C698 C 0.41814 0.72978 0.95795 0.0
C699 C 0.40751 0.71208 0.00928 0.0
C700 C 0.37127 0.71686 0.01045 0.0
C701 C 0.43164 0.71935 0.98467 0.0
C702 C 0.38205 0.73451 0.95911 0.0
C703 C 0.32719 0.73804 0.99595 0.0
O704 O 0.29099 0.73017 0.10069 0.0
O705 O 0.2519 0.7172 0.06575 0.0
O706 O 0.33027 0.74591 0.02704 0.0
O707 O 0.29525 0.73143 0.9914 0.0
H708 H 0.32107 0.69578 0.08271 0.0
H709 H 0.33788 0.67372 0.12321 0.0
H710 H 0.25256 0.68704 0.19897 0.0
H711 H 0.23685 0.70895 0.15919 0.0
H712 H 0.18692 0.81377 0.04984 0.0
H713 H 0.18419 0.78571 0.06292 0.0
H714 H 0.28614 0.80683 0.98861 0.0
H715 H 0.28319 0.77854 1.00187 0.0
H716 H 0.43628 0.7354 0.93849 0.0
H717 H 0.4174 0.70402 0.03011 0.0
H718 H 0.35378 0.7124 0.03205 0.0
H719 H 0.37303 0.74377 0.94075 0.0
C720 C 0.63293 0.48699 0.91971 0.0
C721 C 0.62115 0.50182 0.93199 0.0
C722 C 0.60499 0.50926 0.86853 0.0
C723 C 0.60722 0.51286 0.9066 0.0
C724 C 0.61627 0.49424 0.85696 0.0
C725 C 0.63014 0.48336 0.8821 0.0
U726 U 0.65577 0.46873 0.01561 0.0
O727 O 0.6509 0.4442 0.0336 0.0
O728 O 0.70455 0.45558 0.0335 0.0
C729 C 0.68575 0.44284 0.0407 0.0
C730 C 0.64814 0.47486 0.9447 0.0
C731 C 0.70291 0.42733 0.03512 0.0
C732 C 0.7041 0.4012 1.00768 0.0
C733 C 0.69209 0.41686 1.00714 0.0
C734 C 0.73913 0.40658 0.06293 0.0
C735 C 0.72706 0.39581 0.03617 0.0
C736 C 0.72717 0.42212 0.06237 0.0
C737 C 0.62703 0.49284 0.1031 0.0
C738 C 0.6153 0.48524 0.16693 0.0
C739 C 0.60973 0.51243 0.14826 0.0
C740 C 0.62016 0.50847 0.11253 0.0
C741 C 0.60598 0.50083 0.17548 0.0
C742 C 0.62566 0.48122 0.1307 0.0
C743 C 0.63153 0.48931 0.06355 0.0
O744 O 0.67724 0.47866 0.96382 0.0
O745 O 0.62465 0.46659 0.96377 0.0
O746 O 0.61141 0.47801 0.04969 0.0
O747 O 0.66463 0.48971 0.05016 0.0
H748 H 0.62285 0.50488 0.96101 0.0
H749 H 0.59879 0.52426 0.91667 0.0
H750 H 0.61404 0.49073 0.82829 0.0
H751 H 0.6387 0.47196 0.87203 0.0
H752 H 0.69474 0.39321 0.9864 0.0
H753 H 0.67333 0.42059 0.98581 0.0
H754 H 0.75642 0.4028 0.08547 0.0
H755 H 0.73549 0.42993 0.08451 0.0
H756 H 0.61246 0.47611 0.18753 0.0
H757 H 0.60278 0.52453 0.1542 0.0
H758 H 0.62108 0.51758 0.09167 0.0
H759 H 0.631 0.46905 0.12392 0.0
C760 C 0.23433 0.29858 0.93797 0.0
C761 C 0.26843 0.30306 0.9519 0.0
C762 C 0.24879 0.33044 0.95512 0.0
C763 C 0.27563 0.31884 0.96032 0.0
C764 C 0.21459 0.32574 0.94159 0.0
C765 C 0.20755 0.31002 0.93301 0.0
U766 U 0.26282 0.25577 0.93355 0.0
O767 O 0.23312 0.2339 0.94519 0.0
O768 O 0.25661 0.23787 0.88994 0.0
C769 C 0.23877 0.2283 0.91181 0.0
C770 C 0.22626 0.2821 0.92826 0.0
C771 C 0.21123 0.21787 0.89541 0.0
C772 C 0.15026 0.21122 0.87437 0.0
C773 C 0.17516 0.22233 0.88828 0.0
C774 C 0.19763 0.19152 0.87416 0.0
C775 C 0.1612 0.19558 0.86782 0.0
C776 C 0.22214 0.20249 0.88787 0.0
C777 C 0.36239 0.25093 0.97331 0.0
C778 C 0.40757 0.23007 0.97278 0.0
C779 C 0.4221 0.25551 0.99904 0.0
C780 C 0.38726 0.26074 0.99117 0.0
C781 C 0.4328 0.24028 0.98935 0.0
C782 C 0.3723 0.23541 0.96458 0.0
C783 C 0.32793 0.25815 0.96223 0.0
O784 O 0.24548 0.27624 0.90097 0.0
O785 O 0.22295 0.27242 0.95629 0.0
O786 O 0.29896 0.25524 0.98217 0.0
O787 O 0.3214 0.25952 0.92668 0.0
H788 H 0.28955 0.29438 0.95595 0.0
H789 H 0.30243 0.32197 0.97021 0.0
H790 H 0.19295 0.33418 0.93787 0.0
H791 H 0.18105 0.30679 0.92246 0.0
H792 H 0.12242 0.21475 0.86962 0.0
H793 H 0.16623 0.2342 0.89384 0.0
H794 H 0.20742 0.17979 0.86845 0.0
H795 H 0.24989 0.19886 0.89299 0.0
H796 H 0.41554 0.21829 0.96497 0.0
H797 H 0.44121 0.26356 0.0117 0.0
H798 H 0.3801 0.27274 0.99795 0.0
H799 H 0.35334 0.22768 0.95066 0.0
C800 C 0.64192 0.60109 0.70899 0.0
C801 C 0.62417 0.60627 0.74088 0.0
C802 C 0.67285 0.62467 0.7538 0.0
C803 C 0.63936 0.6179 0.763 0.0
C804 C 0.69043 0.61978 0.72113 0.0
C805 C 0.6751 0.60795 0.69887 0.0
U806 U 0.62488 0.56849 0.63262 0.0
O807 O 0.67943 0.56209 0.61301 0.0
O808 O 0.64525 0.57721 0.57874 0.0
C809 C 0.67666 0.57002 0.58202 0.0
C810 C 0.62491 0.58807 0.68871 0.0
C811 C 0.69237 0.56242 0.54886 0.0
C812 C 0.75924 0.56248 0.49715 0.0
C813 C 0.73064 0.57052 0.5298 0.0
C814 C 0.72083 0.53209 0.48597 0.0
C815 C 0.75615 0.54448 0.47633 0.0
C816 C 0.67762 0.54419 0.53555 0.0
C817 C 0.54129 0.5431 0.6569 0.0
C818 C 0.49092 0.51569 0.6785 0.0
C819 C 0.47669 0.54167 0.73141 0.0
C820 C 0.52643 0.55544 0.69148 0.0
C821 C 0.46836 0.52313 0.7157 0.0
C822 C 0.52355 0.52468 0.6521 0.0
C823 C 0.57204 0.54754 0.63246 0.0
O824 O 0.60882 0.59117 0.65711 0.0
O825 O 0.64149 0.57443 0.68936 0.0
O826 O 0.60469 0.54474 0.64557 0.0
O827 O 0.56983 0.56115 0.61558 0.0
H828 H 0.59849 0.60113 0.74902 0.0
H829 H 0.62472 0.62164 0.7874 0.0
H830 H 0.71628 0.62483 0.71333 0.0
H831 H 0.68921 0.60407 0.67427 0.0
H832 H 0.78324 0.56927 0.49089 0.0
H833 H 0.73882 0.5818 0.54076 0.0
H834 H 0.7206 0.52071 0.47187 0.0
H835 H 0.65356 0.53956 0.54948 0.0
H836 H 0.48446 0.50372 0.67101 0.0
H837 H 0.46173 0.54553 0.75592 0.0
H838 H 0.53926 0.567 0.6935 0.0
H839 H 0.53486 0.51761 0.63009 0.0
C840 C 0.7915 0.77572 0.97999 0.0
C841 C 0.75959 0.78207 0.99489 0.0
C842 C 0.78755 0.80798 0.99641 0.0
C843 C 0.75757 0.79808 1.0029 0.0
C844 C 0.82017 0.80126 0.98387 0.0
C845 C 0.822 0.78528 0.97551 0.0
U846 U 0.74743 0.73594 0.96343 0.0
O847 O 0.73836 0.72605 0.90829 0.0
O848 O 0.77029 0.71273 0.94929 0.0
C849 C 0.75781 0.71349 0.91522 0.0
C850 C 0.79142 0.76007 0.96329 0.0
C851 C 0.74701 0.69903 0.89631 0.0
C852 C 0.75621 0.68227 0.84302 0.0
C853 C 0.76685 0.6949 0.86486 0.0
C854 C 0.70587 0.67736 0.88447 0.0
C855 C 0.72523 0.6735 0.85204 0.0
C856 C 0.71665 0.69013 0.90647 0.0
C857 C 0.6572 0.72902 0.01555 0.0
C858 C 0.60832 0.71219 0.9947 0.0
C859 C 0.59771 0.73152 0.04278 0.0
C860 C 0.63403 0.73588 0.04151 0.0
C861 C 0.58416 0.7203 0.01784 0.0
C862 C 0.64482 0.7166 0.99342 0.0
C863 C 0.69113 0.73708 1.00741 0.0
O864 O 0.79595 0.74801 0.9855 0.0
O865 O 0.76537 0.75801 0.93904 0.0
O866 O 0.69216 0.74386 0.97484 0.0
O867 O 0.7215 0.72995 0.01649 0.0
H868 H 0.73562 0.77484 0.9982 0.0
H869 H 0.73184 0.80279 0.01209 0.0
H870 H 0.84399 0.80842 0.97929 0.0
H871 H 0.84674 0.78054 0.96382 0.0
H872 H 0.7722 0.67946 0.81882 0.0
H873 H 0.79032 0.70171 0.85663 0.0
H874 H 0.68178 0.67088 0.89214 0.0
H875 H 0.70094 0.69326 0.93065 0.0
H876 H 0.59843 0.70352 0.97521 0.0
H877 H 0.5796 0.73779 0.06117 0.0
H878 H 0.6433 0.74551 0.05872 0.0
H879 H 0.66257 0.71123 0.9732 0.0
C880 C 0.36675 0.60647 0.31588 0.0
C881 C 0.38422 0.60945 0.28232 0.0
C882 C 0.34105 0.63008 0.26777 0.0
C883 C 0.37167 0.6211 0.25862 0.0
C884 C 0.32363 0.62727 0.30187 0.0
C885 C 0.33636 0.61547 0.32582 0.0
U886 U 0.38489 0.57331 0.3927 0.0
O887 O 0.36352 0.5797 0.44848 0.0
O888 O 0.33246 0.56396 0.41111 0.0
C889 C 0.33434 0.57104 0.44336 0.0
C890 C 0.38167 0.5937 0.3386 0.0
C891 C 0.30433 0.56951 0.47065 0.0
C892 C 0.24346 0.55991 0.48349 0.0
C893 C 0.26995 0.56471 0.45839 0.0
C894 C 0.28383 0.56578 0.53436 0.0
C895 C 0.25066 0.55954 0.52165 0.0
C896 C 0.31041 0.57083 0.509 0.0
C897 C 0.4697 0.54874 0.36599 0.0
C898 C 0.51995 0.52079 0.34005 0.0
C899 C 0.52991 0.54743 0.28755 0.0
C900 C 0.48262 0.56101 0.33076 0.0
C901 C 0.53931 0.52878 0.30172 0.0
C902 C 0.48758 0.53005 0.37028 0.0
C903 C 0.43915 0.55306 0.39047 0.0
O904 O 0.3968 0.59692 0.37068 0.0
O905 O 0.3665 0.57977 0.33677 0.0
O906 O 0.40675 0.55022 0.37696 0.0
O907 O 0.441 0.56661 0.40774 0.0
H908 H 0.40783 0.60267 0.2743 0.0
H909 H 0.3863 0.62315 0.23315 0.0
H910 H 0.2999 0.63398 0.30971 0.0
H911 H 0.3225 0.61333 0.35169 0.0
H912 H 0.21786 0.55561 0.47274 0.0
H913 H 0.26407 0.56383 0.42912 0.0
H914 H 0.29025 0.56572 0.56357 0.0
H915 H 0.33661 0.5746 0.51935 0.0
H916 H 0.50269 0.5251 0.35714 0.0
H917 H 0.54288 0.5513 0.2619 0.0
H918 H 0.46938 0.5725 0.32954 0.0
H919 H 0.47356 0.52436 0.39668 0.0
C920 C 0.30573 0.42782 0.99029 0.0
C921 C 0.2967 0.42186 0.95546 0.0
C922 C 0.28134 0.3965 0.9823 0.0
C923 C 0.28492 0.40641 0.9514 0.0
C924 C 0.28912 0.40276 0.01762 0.0
C925 C 0.30149 0.41828 0.02157 0.0
U926 U 0.3505 0.47086 1.0077 0.0
O927 O 0.32788 0.48304 0.05634 0.0
O928 O 0.38207 0.47236 0.0593 0.0
C929 C 0.35721 0.48073 0.07631 0.0
C930 C 0.32192 0.44359 0.99204 0.0
C931 C 0.36968 0.49385 0.10003 0.0
C932 C 0.36584 0.50652 0.16005 0.0
C933 C 0.35337 0.49545 0.13462 0.0
C934 C 0.41158 0.51496 0.11666 0.0
C935 C 0.39615 0.51613 0.15241 0.0
C936 C 0.39833 0.50399 0.09066 0.0
C937 C 0.37822 0.49094 0.91359 0.0
C938 C 0.39101 0.50937 0.86434 0.0
C939 C 0.39154 0.48148 0.8514 0.0
C940 C 0.38247 0.47843 0.88851 0.0
C941 C 0.39623 0.49704 0.83907 0.0
C942 C 0.38203 0.50634 0.90097 0.0
C943 C 0.37349 0.48883 0.95373 0.0
O944 O 0.35668 0.4454 0.99904 0.0
O945 O 0.30207 0.45635 0.99488 0.0
O946 O 0.34038 0.48962 0.96703 0.0
O947 O 0.39409 0.47841 0.97035 0.0
H948 H 0.30001 0.42905 0.931 0.0
H949 H 0.28 0.40211 0.92368 0.0
H950 H 0.28604 0.39564 0.04217 0.0
H951 H 0.30825 0.42271 0.0488 0.0
H952 H 0.35134 0.50729 0.18588 0.0
H953 H 0.33106 0.48785 0.14239 0.0
H954 H 0.4347 0.52203 0.10892 0.0
H955 H 0.41116 0.5031 0.06383 0.0
H956 H 0.39526 0.52146 0.8562 0.0
H957 H 0.39534 0.47174 0.83253 0.0
H958 H 0.37971 0.46641 0.89775 0.0
H959 H 0.37932 0.51613 0.91993 0.0
C960 C 0.7918 0.49532 0.57977 0.0
C961 C 0.808 0.50371 0.60906 0.0
H962 H 0.75032 0.49518 0.53779 0.0
C963 C 0.79015 0.51712 0.6226 0.0
H964 H 0.80488 0.48499 0.56853 0.0
C965 C 0.75903 0.52284 0.60517 0.0
C966 C 0.74478 0.51529 0.57388 0.0
H967 H 0.80137 0.52373 0.64553 0.0
H968 H 0.74757 0.53385 0.61464 0.0
C969 C 0.76038 0.50108 0.5623 0.0
C970 C 0.91853 0.02496 0.09623 0.0
C971 C 0.92935 0.01945 0.13126 0.0
H972 H 0.88878 0.02004 0.04623 0.0
C973 C 0.91789 1.00447 0.14256 0.0
H974 H 0.92708 0.03641 0.08664 0.0
C975 C 0.89651 0.9952 0.11956 0.0
C976 C 0.88565 1.00066 0.0847 0.0
H977 H 0.92471 0.99997 0.16968 0.0
H978 H 0.88791 0.98378 0.12934 0.0
C979 C 0.89667 0.01565 0.07315 0.0
C980 C 0.25226 0.52123 0.44722 0.0
C981 C 0.26737 0.51202 0.47562 0.0
H982 H 0.2104 0.52347 0.40626 0.0
C983 C 0.25479 0.49652 0.47974 0.0
H984 H 0.26162 0.53305 0.44259 0.0
C985 C 0.22613 0.49081 0.45802 0.0
C986 C 0.20888 0.50055 0.43208 0.0
H987 H 0.26643 0.4889 0.50055 0.0
H988 H 0.2162 0.47904 0.46298 0.0
C989 C 0.22282 0.51572 0.42635 0.0
C990 C 0.08342 0.01367 0.9137 0.0
C991 C 0.09817 0.02541 0.89117 0.0
H992 H 0.09338 0.99594 0.95391 0.0
C993 C 0.13556 0.02839 0.89268 0.0
H994 H 0.05461 1.01114 0.91287 0.0
C995 C 0.1582 0.01927 0.91503 0.0
C996 C 0.1438 1.00712 0.93689 0.0
H997 H 0.14758 0.0372 0.87495 0.0
H998 H 0.18714 0.0213 0.91361 0.0
C999 C 0.10586 1.00483 0.93681 0.0
C1000 C 0.13859 1.00111 0.07955 0.0
C1001 C 0.13434 0.01741 0.07679 0.0
H1002 H 0.12146 0.97994 0.10567 0.0
C1003 C 0.10721 0.02482 0.09797 0.0
H1004 H 0.15908 0.99506 0.06349 0.0
C1005 C 0.08532 0.01614 0.12196 0.0
C1006 C 0.09006 0.99987 0.12519 0.0
H1007 H 0.1036 0.03743 0.0969 0.0
H1008 H 0.0648 0.02216 0.13802 0.0
C1009 C 0.11678 0.99245 0.10351 0.0
C1010 C 0.01788 0.22819 0.49988 0.0
C1011 C 0.0402 0.24053 0.48807 0.0
H1012 H 0.98593 0.21872 0.54388 0.0
C1013 C 0.0501 0.25227 0.51346 0.0
H1014 H 1.00965 0.21904 0.48079 0.0
C1015 C 0.03672 0.25211 0.54945 0.0
C1016 C 0.01302 0.24019 0.56101 0.0
H1017 H 0.06779 0.2618 0.50522 0.0
H1018 H 0.04484 0.2614 0.56817 0.0
C1019 C 1.00429 0.22805 0.536 0.0
C1020 C 0.90658 0.01854 0.87434 0.0
C1021 C 0.92292 1.00398 0.88217 0.0
H1022 H 0.87586 0.03796 0.89439 0.0
C1023 C 0.91875 0.99757 0.9178 0.0
H1024 H 0.90766 0.02361 0.84695 0.0
C1025 C 0.8992 1.00576 0.94499 0.0
C1026 C 0.88432 0.02053 0.93694 0.0
H1027 H 0.93084 0.98638 0.92476 0.0
H1028 H 0.89596 1.00069 0.97223 0.0
C1029 C 0.88808 0.02678 0.90146 0.0
C1030 C 1.00621 0.73545 0.52684 0.0
C1031 C 1.00207 0.72122 0.54582 0.0
H1032 H 0.01658 0.74673 0.47551 0.0
C1033 C 1.00643 0.707 0.52668 0.0
H1034 H 1.00382 0.74661 0.54106 0.0
C1035 C 0.0143 0.70707 0.48887 0.0
C1036 C 0.01853 0.72136 0.47009 0.0
H1037 H 1.0036 0.6959 0.54091 0.0
H1038 H 0.01723 0.69602 0.47437 0.0
C1039 C 0.01429 0.73552 0.48944 0.0
C1040 C 0.48354 0.22729 0.02389 0.0
C1041 C 0.47145 0.23622 0.99368 0.0
H1042 H 0.52885 0.22157 0.05903 0.0
C1043 C 0.4968 0.24431 0.97206 0.0
H1044 H 0.46422 0.2212 0.04124 0.0
C1045 C 0.53326 0.24456 0.98213 0.0
C1046 C 0.54507 0.23677 0.01412 0.0
H1047 H 0.48791 0.25145 0.94897 0.0
H1048 H 0.55183 0.25182 0.96647 0.0
C1049 C 0.52035 0.22752 0.03403 0.0
C1050 C 0.52664 0.70511 1.00666 0.0
C1051 C 0.54481 0.7195 0.01087 0.0
H1052 H 0.47582 0.69371 0.99497 0.0
C1053 C 0.52572 0.73357 1.00564 0.0
H1054 H 0.54099 0.69414 0.01039 0.0
C1055 C 0.48921 0.73332 0.99641 0.0
C1056 C 0.47089 0.719 0.99216 0.0
H1057 H 0.53919 0.74483 1.00798 0.0
H1058 H 0.47515 0.7444 0.99311 0.0
C1059 C 0.48966 0.70487 0.99775 0.0
C1060 C 0.60386 0.50372 0.24517 0.0
C1061 C 0.58724 0.50505 0.21023 0.0
H1062 H 0.60142 0.51031 0.30284 0.0
C1063 C 0.55301 0.5121 0.20751 0.0
H1064 H 0.63025 0.49825 0.24783 0.0
C1065 C 0.53679 0.51871 0.23836 0.0
C1066 C 0.55445 0.5186 0.27272 0.0
H1067 H 0.53941 0.5131 0.18103 0.0
H1068 H 0.511 0.52461 0.23486 0.0
C1069 C 0.58747 0.51055 0.27648 0.0
C1070 C 0.41198 0.52026 0.75193 0.0
C1071 C 0.44405 0.51348 0.73863 0.0
H1072 H 0.37098 0.52004 0.79356 0.0
C1073 C 0.45646 0.49941 0.75432 0.0
H1074 H 0.40189 0.53112 0.74021 0.0
C1075 C 0.43897 0.49311 0.78541 0.0
C1076 C 0.40888 0.50084 0.80103 0.0
H1077 H 0.48149 0.49411 0.74481 0.0
H1078 H 0.45081 0.48301 0.79897 0.0
C1079 C 0.39447 0.51397 0.78265 0.0
C1080 C 0.21488 0.55655 0.58163 0.0
C1081 C 0.22532 0.55085 0.54663 0.0
H1082 H 0.18233 0.55256 0.63036 0.0
C1083 C 0.21117 0.53638 0.53477 0.0
H1084 H 0.22514 0.56769 0.59161 0.0
C1085 C 0.18793 0.52768 0.55695 0.0
C1086 C 0.17692 0.53338 0.59143 0.0
H1087 H 0.21819 0.53163 0.50818 0.0
H1088 H 0.17819 0.51645 0.54688 0.0
C1089 C 0.19032 0.54797 0.60366 0.0
C1090 C 0.9068 0.1869 0.19257 0.0
C1091 C 0.88235 0.18373 0.16367 0.0
H1092 H 0.94627 0.1777 0.23014 0.0
C1093 C 0.88109 0.16843 0.14903 0.0
H1094 H 0.90855 0.19853 0.20455 0.0
C1095 C 0.90173 0.15637 0.16443 0.0
C1096 C 0.92497 0.15931 0.19446 0.0
H1097 H 0.86329 0.1656 0.12612 0.0
H1098 H 0.89818 0.14463 0.15361 0.0
C1099 C 0.92804 0.17485 0.20762 0.0
C1100 C 0.45144 0.54807 0.20342 0.0
C1101 C 0.44513 0.54423 0.24074 0.0
H1102 H 0.44039 0.5429 0.1465 0.0
C1103 C 0.42053 0.53212 0.24829 0.0
H1104 H 0.47045 0.55723 0.19617 0.0
C1105 C 0.40544 0.52311 0.21998 0.0
C1106 C 0.4121 0.52649 0.18242 0.0
H1107 H 0.41367 0.52905 0.2764 0.0
H1108 H 0.38944 0.51313 0.22838 0.0
C1109 C 0.43476 0.53948 0.17467 0.0
C1110 C 0.79312 0.85144 0.97356 0.0
C1111 C 0.76841 0.8578 0.99891 0.0
H1112 H 0.81784 0.83066 0.95221 0.0
C1113 C 0.75324 0.84801 0.02599 0.0
H1114 H 0.80494 0.85871 0.95221 0.0
C1115 C 0.76093 0.83198 0.02644 0.0
C1116 C 0.78372 0.82533 0.99954 0.0
H1117 H 0.73439 0.8527 0.04612 0.0
H1118 H 0.74818 0.82475 0.04729 0.0
C1119 C 0.80051 0.83534 0.97369 0.0
C1120 C 0.60568 0.52095 0.80452 0.0
C1121 C 0.59089 0.52073 0.84042 0.0
H1122 H 0.60075 0.52897 0.74865 0.0
C1123 C 0.56117 0.53066 0.84786 0.0
H1124 H 0.62921 0.5139 0.79779 0.0
C1125 C 0.54529 0.53965 0.81947 0.0
C1126 C 0.55872 0.53884 0.78311 0.0
H1127 H 0.54888 0.53084 0.87501 0.0
H1128 H 0.52107 0.54637 0.8255 0.0
C1129 C 0.58964 0.52974 0.77629 0.0
C1130 C 0.08875 0.17427 0.81183 0.0
C1131 C 0.09342 0.15862 0.82367 0.0
H1132 H 0.10657 0.19818 0.81603 0.0
C1133 C 0.11808 0.15565 0.85246 0.0
H1134 H 0.06944 0.17713 0.79028 0.0
C1135 C 0.13854 0.1678 0.86786 0.0
C1136 C 0.13551 0.18326 0.85455 0.0
H1137 H 0.12283 0.14383 0.86222 0.0
H1138 H 0.15754 0.16496 0.88971 0.0
C1139 C 0.10968 0.18643 0.82696 0.0
C1140 C 0.82416 0.51326 0.45032 0.0
C1141 C 0.84614 0.52069 0.42405 0.0
H1142 H 0.78037 0.515 0.48788 0.0
C1143 C 0.84053 0.53678 0.41699 0.0
H1144 H 0.82844 0.50105 0.45742 0.0
C1145 C 0.81181 0.54493 0.43435 0.0
C1146 C 0.78845 0.53704 0.45882 0.0
H1147 H 0.8574 0.54286 0.39717 0.0
H1148 H 0.80723 0.55716 0.42779 0.0
C1149 C 0.7961 0.52131 0.46754 0.0
C1150 C 0.24009 0.83813 0.05123 0.0
C1151 C 0.24234 0.82966 0.01794 0.0
H1152 H 0.24751 0.86024 0.0784 0.0
C1153 C 0.25148 0.83762 0.98527 0.0
H1154 H 0.23376 0.83224 0.07695 0.0
C1155 C 0.25885 0.85376 0.98612 0.0
C1156 C 0.25767 0.86201 0.01972 0.0
H1157 H 0.25345 0.83133 0.95932 0.0
H1158 H 0.26705 0.85964 0.96096 0.0
C1159 C 0.24786 0.85412 0.05212 0.0
C1160 C 0.21392 0.18393 0.10817 0.0
C1161 C 0.1864 0.18016 0.13346 0.0
H1162 H 0.25058 0.17571 0.06683 0.0
C1163 C 0.1739 0.16453 0.13475 0.0
H1164 H 0.22441 0.19576 0.10632 0.0
C1165 C 0.18995 0.15285 0.11314 0.0
C1166 C 0.21845 0.15649 0.08884 0.0
H1167 H 0.15205 0.16119 0.15308 0.0
H1168 H 0.1807 0.14089 0.11658 0.0
C1169 C 0.22944 0.17229 0.08591 0.0
C1170 C 0.85216 0.18617 0.93297 0.0
C1171 C 0.85129 0.18672 0.89401 0.0
H1172 H 0.83765 0.17352 0.98195 0.0
C1173 C 0.83708 0.17373 0.87468 0.0
H1174 H 0.86375 0.19565 0.94901 0.0
C1175 C 0.82341 0.16076 0.89384 0.0
C1176 C 0.82313 0.16065 0.93259 0.0
H1177 H 0.83533 0.17375 0.84482 0.0
H1178 H 0.81173 0.15109 0.87842 0.0
C1179 C 0.83769 0.1734 0.952 0.0
C1180 C 0.05282 0.85181 0.77105 0.0
C1181 C 0.01884 0.85871 0.765 0.0
H1182 H 0.08195 0.83071 0.78324 0.0
C1183 C 0.98738 0.84942 0.76694 0.0
H1184 H 0.07732 0.85882 0.77026 0.0
C1185 C 0.99 0.83332 0.77395 0.0
C1186 C 0.02404 0.82643 0.78007 0.0
H1187 H 0.96086 0.8546 0.76267 0.0
H1188 H 0.96551 0.8263 0.77491 0.0
C1189 C 0.05538 0.83582 0.77882 0.0
C1190 C 1.00182 0.84802 0.28401 0.0
C1191 C 0.99659 0.85929 0.25619 0.0
H1192 H 1.00425 0.82387 0.29834 0.0
C1193 C 0.99502 0.85426 0.21922 0.0
H1194 H 1.00418 0.85149 0.31272 0.0
C1195 C 0.99646 0.83821 0.21065 0.0
C1196 C 0.99909 0.82685 0.23888 0.0
H1197 H 0.99122 0.86263 0.19707 0.0
H1198 H 0.99456 0.83473 0.18193 0.0
C1199 C 1.00261 0.83207 0.2756 0.0
C1200 C 0.5189 1.00551 0.06901 0.0
C1201 C 0.48451 0.01203 0.06055 0.0
H1202 H 0.57596 1.00934 0.07663 0.0
C1203 C 0.48337 0.02838 0.05392 0.0
H1204 H 0.52238 0.99319 0.07465 0.0
C1205 C 0.51454 0.03753 0.05443 0.0
C1206 C 0.54858 0.03098 0.06223 0.0
H1207 H 0.45897 0.03466 0.04725 0.0
H1208 H 0.5117 0.04977 0.04702 0.0
C1209 C 0.55032 0.01485 0.06992 0.0
C1210 C 0.19025 0.64671 0.7319 0.0
C1211 C 0.18611 0.66023 0.71016 0.0
H1212 H 0.21565 0.62419 0.73756 0.0
C1213 C 0.20635 0.66171 0.67763 0.0
H1214 H 0.17505 0.64543 0.75733 0.0
C1215 C 0.2302 0.64983 0.66679 0.0
C1216 C 0.234 0.63606 0.68797 0.0
H1217 H 0.20424 0.67223 0.66097 0.0
H1218 H 0.24585 0.65147 0.6418 0.0
C1219 C 0.21379 0.63467 0.7208 0.0
C1220 C 0.94559 0.03396 0.5066 0.0
C1221 C 0.95863 0.02833 0.54073 0.0
H1222 H 0.93438 0.02932 0.44998 0.0
C1223 C 0.96553 0.0121 0.54362 0.0
H1224 H 0.93709 0.04601 0.50317 0.0
C1225 C 0.96346 1.00227 0.51249 0.0
C1226 C 0.95461 1.00843 0.47753 0.0
H1227 H 0.97436 1.00697 0.56933 0.0
H1228 H 0.97139 0.99012 0.51555 0.0
C1229 C 0.94372 0.02423 0.47568 0.0
C1230 C 0.06452 0.35338 0.23475 0.0
C1231 C 0.07262 0.34322 0.26441 0.0
H1232 H 0.05058 0.3768 0.21781 0.0
C1233 C 0.07301 0.34946 0.30048 0.0
H1234 H 0.06326 0.34902 0.20666 0.0
C1235 C 0.06572 0.36538 0.30664 0.0
C1236 C 0.05792 0.37539 0.27697 0.0
H1237 H 0.07941 0.34212 0.32399 0.0
H1238 H 0.06579 0.36986 0.33468 0.0
C1239 C 0.05718 0.36929 0.241 0.0
C1240 C 0.06174 0.02174 0.54118 0.0
C1241 C 0.05421 1.00581 0.53466 0.0
H1242 H 0.06794 0.04462 0.51882 0.0
C1243 C 0.04731 1.00108 0.498 0.0
H1244 H 0.06823 0.02587 0.56871 0.0
C1245 C 0.04628 0.01193 0.46918 0.0
C1246 C 0.05219 0.02801 0.47567 0.0
H1247 H 0.04058 0.98903 0.49147 0.0
H1248 H 0.03937 1.00751 0.44215 0.0
C1249 C 0.06119 0.03261 0.51215 0.0
C1250 C 0.81907 0.6503 0.28752 0.0
C1251 C 0.82788 0.66325 0.30993 0.0
H1252 H 0.78867 0.62903 0.28196 0.0
C1253 C 0.81052 0.66493 0.34415 0.0
H1254 H 0.83203 0.64874 0.26092 0.0
C1255 C 0.78491 0.65392 0.35579 0.0
C1256 C 0.77649 0.6407 0.33389 0.0
H1257 H 0.81611 0.675 0.36157 0.0
H1258 H 0.77153 0.65588 0.38199 0.0
C1259 C 0.79387 0.63909 0.29945 0.0
C1260 C 0.54375 0.02264 0.96808 0.0
C1261 C 0.54499 1.0066 0.95798 0.0
H1262 H 0.51292 0.04335 0.97554 0.0
C1263 C 0.5123 0.99988 0.94484 0.0
H1264 H 0.56669 0.02891 0.979 0.0
C1265 C 0.48008 1.00865 0.94313 0.0
C1266 C 0.47928 0.02448 0.95431 0.0
H1267 H 0.51084 0.98783 0.93584 0.0
H1268 H 0.45582 1.00292 0.93298 0.0
C1269 C 0.5119 0.03133 0.96597 0.0
C1270 C 0.98958 0.37843 0.77479 0.0
C1271 C 0.9757 0.38635 0.74373 0.0
H1272 H 0.99567 0.35652 0.80299 0.0
C1273 C 0.95557 0.3778 0.71751 0.0
H1274 H 1.00496 0.38467 0.79569 0.0
C1275 C 0.95003 0.36168 0.72184 0.0
C1276 C 0.96446 0.35372 0.7525 0.0
H1277 H 0.94489 0.38346 0.69303 0.0
H1278 H 0.93436 0.35546 0.70115 0.0
C1279 C 0.98402 0.36231 0.77912 0.0
C1280 C 0.69898 0.64667 0.84111 0.0
C1281 C 0.71291 0.66074 0.82689 0.0
H1282 H 0.67641 0.62411 0.82916 0.0
C1283 C 0.71517 0.66256 0.78824 0.0
H1284 H 0.69747 0.64476 0.87065 0.0
C1285 C 0.70338 0.65067 0.76442 0.0
C1286 C 0.6887 0.63675 0.7787 0.0
H1287 H 0.72527 0.67335 0.77628 0.0
H1288 H 0.7046 0.65259 0.73486 0.0
C1289 C 0.68707 0.63482 0.8173 0.0
C1290 C 0.31872 0.65135 0.17821 0.0
C1291 C 0.30791 0.66618 0.19103 0.0
H1292 H 0.33654 0.62824 0.19229 0.0
C1293 C 0.30716 0.66891 0.22946 0.0
H1294 H 0.31908 0.64874 0.14891 0.0
C1295 C 0.31698 0.65712 0.2544 0.0
C1296 C 0.32811 0.64234 0.24157 0.0
H1297 H 0.29962 0.68028 0.24037 0.0
H1298 H 0.31681 0.65975 0.2837 0.0
C1299 C 0.32861 0.63958 0.20316 0.0
C1300 C 0.71776 0.35147 0.04396 0.0
C1301 C 0.75322 0.34681 0.05375 0.0
H1302 H 0.6819 0.37044 0.03035 0.0
C1303 C 0.78032 0.35848 0.05559 0.0
H1304 H 0.69583 0.34304 0.0428 0.0
C1305 C 0.77202 0.37427 0.04913 0.0
C1306 C 0.73655 0.37887 0.03986 0.0
H1307 H 0.80816 0.3555 0.06197 0.0
H1308 H 0.79346 0.38292 0.05143 0.0
C1309 C 0.70964 0.36725 0.03684 0.0
C1310 C 0.28643 0.3678 0.99942 0.0
C1311 C 0.27128 0.37962 0.97702 0.0
H1312 H 0.29093 0.34322 0.01069 0.0
C1313 C 0.24799 0.37505 0.94803 0.0
H1314 H 0.30484 0.37074 0.02171 0.0
C1315 C 0.24097 0.35921 0.94095 0.0
C1316 C 0.25636 0.34738 0.96307 0.0
H1317 H 0.23518 0.38371 0.93047 0.0
H1318 H 0.22386 0.35628 0.91758 0.0
C1319 C 0.27896 0.35192 0.99264 0.0
loop_
_geom_bond_atom_site_label_1
_geom_bond_atom_site_label_2
_geom_bond_distance
_geom_bond_site_symmetry_2
_ccdc_geom_bond_type
C0 C1 1.264 . S
C0 C5 1.479 1_655 S
C0 C10 1.465 1_655 S
C1 C0 1.264 . S
C1 C3 1.339 . S
C1 H28 0.931 . S
C2 C3 1.395 . S
C2 C4 1.320 1_655 S
C3 C1 1.339 . S
C3 C2 1.395 . S
C3 H29 0.929 . S
C4 C2 1.320 1_455 S
C4 C5 1.405 . S
C4 H30 0.930 . S
C5 C0 1.479 1_455 S
C5 C4 1.405 . S
C5 H31 0.931 . S
U6 O7 2.454 . S
U6 O8 2.458 . S
U6 C9 2.984 . S
U6 C10 2.847 . S
U6 C23 2.882 1_455 S
U6 O24 2.441 . S
U6 O25 2.420 1_455 S
U6 O26 2.455 1_455 S
U6 O27 2.449 1_455 S
O7 U6 2.454 . S
O7 C9 1.353 . S
O8 U6 2.458 . S
O8 C9 1.286 . S
C9 U6 2.984 . S
C9 O7 1.353 . S
C9 O8 1.286 . S
C9 C11 1.363 . S
C10 C0 1.465 1_455 S
C10 U6 2.847 . S
C10 O24 1.249 . S
C10 O25 1.202 1_455 S
C11 C9 1.363 . S
C11 C13 1.408 . S
C11 C16 1.342 . S
C12 C13 1.310 . S
C12 C15 1.461 . S
C12 H32 0.932 . S
C13 C11 1.408 . S
C13 C12 1.310 . S
C13 H33 0.930 . S
C14 C15 1.474 . S
C14 C16 1.285 . S
C14 H34 0.929 . S
C15 C12 1.461 . S
C15 C14 1.474 . S
C16 C11 1.342 . S
C16 C14 1.285 . S
C16 H35 0.930 . S
C17 C20 1.424 . S
C17 C22 1.245 . S
C17 C23 1.428 . S
C18 C21 1.260 . S
C18 C22 1.477 . S
C18 H36 0.932 . S
C19 C20 1.384 . S
C19 C21 1.479 . S
C19 H37 0.929 . S
C20 C17 1.424 . S
C20 C19 1.384 . S
C20 H38 0.928 . S
C21 C18 1.260 . S
C21 C19 1.479 . S
C22 C17 1.245 . S
C22 C18 1.477 . S
C22 H39 0.932 . S
C23 U6 2.882 1_655 S
C23 C17 1.428 . S
C23 O26 1.301 . S
C23 O27 1.282 . S
O24 U6 2.441 . S
O24 C10 1.249 . S
O25 U6 2.420 1_655 S
O25 C10 1.202 1_655 S
O26 U6 2.455 1_655 S
O26 C23 1.301 . S
O27 U6 2.449 1_655 S
O27 C23 1.282 . S
H28 C1 0.931 . S
H29 C3 0.929 . S
H30 C4 0.930 . S
H31 C5 0.931 . S
H32 C12 0.932 . S
H33 C13 0.930 . S
H34 C14 0.929 . S
H35 C16 0.930 . S
H36 C18 0.932 . S
H37 C19 0.929 . S
H38 C20 0.928 . S
H39 C22 0.932 . S
C40 C41 1.264 . S
C40 C45 1.479 . S
C40 C50 1.465 . S
C41 C40 1.264 . S
C41 C43 1.339 . S
C41 H68 0.931 . S
C42 C43 1.395 . S
C42 C44 1.320 . S
C43 C41 1.339 . S
C43 C42 1.395 . S
C43 H69 0.929 . S
C44 C42 1.320 . S
C44 C45 1.405 . S
C44 H70 0.930 . S
C45 C40 1.479 . S
C45 C44 1.405 . S
C45 H71 0.931 . S
U46 O47 2.454 . S
U46 O48 2.458 . S
U46 C49 2.984 . S
U46 C50 2.847 1_655 S
U46 C63 2.882 . S
U46 O64 2.441 1_655 S
U46 O65 2.420 . S
U46 O66 2.455 . S
U46 O67 2.449 . S
O47 U46 2.454 . S
O47 C49 1.353 . S
O48 U46 2.458 . S
O48 C49 1.286 . S
C49 U46 2.984 . S
C49 O47 1.353 . S
C49 O48 1.286 . S
C49 C51 1.363 . S
C50 C40 1.465 . S
C50 U46 2.847 1_455 S
C50 O64 1.249 . S
C50 O65 1.202 1_455 S
C51 C49 1.363 . S
C51 C53 1.408 . S
C51 C56 1.342 . S
C52 C53 1.310 . S
C52 C55 1.461 . S
C52 H72 0.932 . S
C53 C51 1.408 . S
C53 C52 1.310 . S
C53 H73 0.930 . S
C54 C55 1.474 . S
C54 C56 1.285 . S
C54 H74 0.929 . S
C55 C52 1.461 . S
C55 C54 1.474 . S
C56 C51 1.342 . S
C56 C54 1.285 . S
C56 H75 0.930 . S
C57 C60 1.424 . S
C57 C62 1.245 . S
C57 C63 1.428 . S
C58 C61 1.260 . S
C58 C62 1.477 . S
C58 H76 0.932 . S
C59 C60 1.384 . S
C59 C61 1.479 . S
C59 H77 0.929 1_545 S
C60 C57 1.424 . S
C60 C59 1.384 . S
C60 H78 0.928 . S
C61 C58 1.260 . S
C61 C59 1.479 . S
C62 C57 1.245 . S
C62 C58 1.477 . S
C62 H79 0.932 . S
C63 U46 2.882 . S
C63 C57 1.428 . S
C63 O66 1.301 . S
C63 O67 1.282 . S
O64 U46 2.441 1_455 S
O64 C50 1.249 . S
O65 U46 2.420 . S
O65 C50 1.202 1_655 S
O66 U46 2.455 . S
O66 C63 1.301 . S
O67 U46 2.449 . S
O67 C63 1.282 . S
H68 C41 0.931 . S
H69 C43 0.929 . S
H70 C44 0.930 . S
H71 C45 0.931 . S
H72 C52 0.932 . S
H73 C53 0.930 . S
H74 C54 0.929 . S
H75 C56 0.930 . S
H76 C58 0.932 . S
H77 C59 0.929 1_565 S
H78 C60 0.928 . S
H79 C62 0.932 . S
C80 C81 1.264 . S
C80 C85 1.479 . S
C80 C90 1.465 . S
C81 C80 1.264 . S
C81 C83 1.339 . S
C81 H108 0.931 . S
C82 C83 1.395 . S
C82 C84 1.320 . S
C83 C81 1.339 . S
C83 C82 1.395 . S
C83 H109 0.929 . S
C84 C82 1.320 . S
C84 C85 1.405 . S
C84 H110 0.930 . S
C85 C80 1.479 . S
C85 C84 1.405 . S
C85 H111 0.931 . S
U86 O87 2.454 . S
U86 O88 2.458 . S
U86 C89 2.984 . S
U86 C90 2.847 . S
U86 C103 2.882 . S
U86 O104 2.441 . S
U86 O105 2.420 . S
U86 O106 2.455 . S
U86 O107 2.449 . S
O87 U86 2.454 . S
O87 C89 1.353 . S
O88 U86 2.458 . S
O88 C89 1.286 . S
C89 U86 2.984 . S
C89 O87 1.353 . S
C89 O88 1.286 . S
C89 C91 1.363 . S
C90 C80 1.465 . S
C90 U86 2.847 . S
C90 O104 1.249 . S
C90 O105 1.202 . S
C91 C89 1.363 . S
C91 C93 1.408 . S
C91 C96 1.342 . S
C92 C93 1.310 . S
C92 C95 1.461 . S
C92 H112 0.932 . S
C93 C91 1.408 . S
C93 C92 1.310 . S
C93 H113 0.930 . S
C94 C95 1.474 . S
C94 C96 1.285 . S
C94 H114 0.929 . S
C95 C92 1.461 . S
C95 C94 1.474 . S
C96 C91 1.342 . S
C96 C94 1.285 . S
C96 H115 0.930 . S
C97 C100 1.424 . S
C97 C102 1.245 . S
C97 C103 1.428 . S
C98 C101 1.260 . S
C98 C102 1.477 . S
C98 H116 0.932 . S
C99 C100 1.384 . S
C99 C101 1.479 . S
C99 H117 0.929 . S
C100 C97 1.424 . S
C100 C99 1.384 . S
C100 H118 0.928 . S
C101 C98 1.260 . S
C101 C99 1.479 . S
C102 C97 1.245 . S
C102 C98 1.477 . S
C102 H119 0.932 . S
C103 U86 2.882 . S
C103 C97 1.428 . S
C103 O106 1.301 . S
C103 O107 1.282 . S
O104 U86 2.441 . S
O104 C90 1.249 . S
O105 U86 2.420 . S
O105 C90 1.202 . S
O106 U86 2.455 . S
O106 C103 1.301 . S
O107 U86 2.449 . S
O107 C103 1.282 . S
H108 C81 0.931 . S
H109 C83 0.929 . S
H110 C84 0.930 . S
H111 C85 0.931 . S
H112 C92 0.932 . S
H113 C93 0.930 . S
H114 C94 0.929 . S
H115 C96 0.930 . S
H116 C98 0.932 . S
H117 C99 0.929 . S
H118 C100 0.928 . S
H119 C102 0.932 . S
C120 C121 1.264 . S
C120 C125 1.479 . S
C120 C130 1.465 . S
C121 C120 1.264 . S
C121 C123 1.339 . S
C121 H148 0.931 . S
C122 C123 1.395 . S
C122 C124 1.320 . S
C123 C121 1.339 . S
C123 C122 1.395 . S
C123 H149 0.929 . S
C124 C122 1.320 . S
C124 C125 1.405 . S
C124 H150 0.930 . S
C125 C120 1.479 . S
C125 C124 1.405 . S
C125 H151 0.931 . S
U126 O127 2.454 . S
U126 O128 2.458 . S
U126 C129 2.984 . S
U126 C130 2.847 . S
U126 C143 2.882 1_556 S
U126 O144 2.441 . S
U126 O145 2.420 . S
U126 O146 2.455 . S
U126 O147 2.449 . S
O127 U126 2.454 . S
O127 C129 1.353 . S
O128 U126 2.458 . S
O128 C129 1.286 . S
C129 U126 2.984 . S
C129 O127 1.353 . S
C129 O128 1.286 . S
C129 C131 1.363 . S
C130 C120 1.465 . S
C130 U126 2.847 . S
C130 O144 1.249 . S
C130 O145 1.202 . S
C131 C129 1.363 . S
C131 C133 1.408 . S
C131 C136 1.342 . S
C132 C133 1.310 . S
C132 C135 1.461 . S
C132 H152 0.932 . S
C133 C131 1.408 . S
C133 C132 1.310 . S
C133 H153 0.930 . S
C134 C135 1.474 . S
C134 C136 1.285 . S
C134 H154 0.929 . S
C135 C132 1.461 . S
C135 C134 1.474 . S
C136 C131 1.342 . S
C136 C134 1.285 . S
C136 H155 0.930 . S
C137 C140 1.424 . S
C137 C142 1.245 . S
C137 C143 1.428 . S
C138 C141 1.260 . S
C138 C142 1.477 . S
C138 H156 0.951 . S
C139 C140 1.384 . S
C139 C141 1.479 . S
C139 H157 0.929 . S
C140 C137 1.424 . S
C140 C139 1.384 . S
C140 H158 0.928 . S
C141 C138 1.260 . S
C141 C139 1.479 . S
C142 C137 1.245 . S
C142 C138 1.477 . S
C142 H159 0.932 . S
C143 U126 2.882 1_554 S
C143 C137 1.428 . S
C143 O146 1.301 1_554 S
C143 O147 1.282 1_554 S
O144 U126 2.441 . S
O144 C130 1.249 . S
O145 U126 2.420 . S
O145 C130 1.202 . S
O146 U126 2.455 . S
O146 C143 1.301 1_556 S
O147 U126 2.449 . S
O147 C143 1.282 1_556 S
H148 C121 0.931 . S
H149 C123 0.929 . S
H150 C124 0.930 . S
H151 C125 0.931 . S
H152 C132 0.932 . S
H153 C133 0.930 . S
H154 C134 0.929 . S
H155 C136 0.930 . S
H156 C138 0.951 . S
H157 C139 0.929 . S
H158 C140 0.928 . S
H159 C142 0.932 . S
C160 C161 1.264 . S
C160 C165 1.479 . S
C160 C170 1.465 . S
C161 C160 1.264 . S
C161 C163 1.339 . S
C161 H188 0.931 . S
C162 C163 1.395 . S
C162 C164 1.320 . S
C163 C161 1.339 . S
C163 C162 1.395 . S
C163 H189 0.929 . S
C164 C162 1.320 . S
C164 C165 1.405 . S
C164 H190 0.930 . S
C165 C160 1.479 . S
C165 C164 1.405 . S
C165 H191 0.931 . S
U166 O167 2.454 . S
U166 O168 2.458 . S
U166 C169 2.984 . S
U166 C170 2.847 . S
U166 C183 2.882 . S
U166 O184 2.441 . S
U166 O185 2.420 . S
U166 O186 2.455 . S
U166 O187 2.449 . S
O167 U166 2.454 . S
O167 C169 1.353 . S
O168 U166 2.458 . S
O168 C169 1.286 . S
C169 U166 2.984 . S
C169 O167 1.353 . S
C169 O168 1.286 . S
C169 C171 1.363 . S
C170 C160 1.465 . S
C170 U166 2.847 . S
C170 O184 1.249 . S
C170 O185 1.202 . S
C171 C169 1.363 . S
C171 C173 1.408 . S
C171 C176 1.342 . S
C172 C173 1.310 . S
C172 C175 1.461 . S
C172 H192 0.932 . S
C173 C171 1.408 . S
C173 C172 1.310 . S
C173 H193 0.930 . S
C174 C175 1.474 . S
C174 C176 1.285 . S
C174 H194 0.929 . S
C175 C172 1.461 . S
C175 C174 1.474 . S
C176 C171 1.342 . S
C176 C174 1.285 . S
C176 H195 0.930 . S
C177 C180 1.424 . S
C177 C182 1.245 . S
C177 C183 1.428 . S
C178 C181 1.260 . S
C178 C182 1.477 . S
C178 H196 0.932 . S
C179 C180 1.384 . S
C179 C181 1.479 . S
C179 H197 0.929 . S
C180 C177 1.424 . S
C180 C179 1.384 . S
C180 H198 0.928 . S
C181 C178 1.260 . S
C181 C179 1.479 . S
C182 C177 1.245 . S
C182 C178 1.477 . S
C182 H199 0.932 . S
C183 U166 2.882 . S
C183 C177 1.428 . S
C183 O186 1.301 . S
C183 O187 1.282 . S
O184 U166 2.441 . S
O184 C170 1.249 . S
O185 U166 2.420 . S
O185 C170 1.202 . S
O186 U166 2.455 . S
O186 C183 1.301 . S
O187 U166 2.449 . S
O187 C183 1.282 . S
H188 C161 0.931 . S
H189 C163 0.929 . S
H190 C164 0.930 . S
H191 C165 0.931 . S
H192 C172 0.932 . S
H193 C173 0.930 . S
H194 C174 0.929 . S
H195 C176 0.930 . S
H196 C178 0.932 . S
H197 C179 0.929 . S
H198 C180 0.928 . S
H199 C182 0.932 . S
C200 C201 1.264 . S
C200 C205 1.479 . S
C200 C210 1.465 . S
C201 C200 1.264 . S
C201 C203 1.339 . S
C201 H228 0.931 . S
C202 C203 1.395 . S
C202 C204 1.320 . S
C203 C201 1.339 . S
C203 C202 1.395 . S
C203 H229 0.929 . S
C204 C202 1.320 . S
C204 C205 1.405 . S
C204 H230 0.930 . S
C205 C200 1.479 . S
C205 C204 1.405 . S
C205 H231 0.931 . S
U206 O207 2.454 . S
U206 O208 2.458 . S
U206 C209 2.984 . S
U206 C210 2.847 1_455 S
U206 C223 2.882 . S
U206 O224 2.441 1_455 S
U206 O225 2.420 . S
U206 O226 2.455 . S
U206 O227 2.449 . S
O207 U206 2.454 . S
O207 C209 1.353 . S
O208 U206 2.458 . S
O208 C209 1.286 . S
C209 U206 2.984 . S
C209 O207 1.353 . S
C209 O208 1.286 . S
C209 C211 1.363 . S
C210 C200 1.465 . S
C210 U206 2.847 1_655 S
C210 O224 1.249 . S
C210 O225 1.202 1_655 S
C211 C209 1.363 . S
C211 C213 1.408 . S
C211 C216 1.342 . S
C212 C213 1.310 . S
C212 C215 1.461 . S
C212 H232 0.932 . S
C213 C211 1.408 . S
C213 C212 1.310 . S
C213 H233 0.930 . S
C214 C215 1.474 . S
C214 C216 1.285 . S
C214 H234 0.929 . S
C215 C212 1.461 . S
C215 C214 1.474 . S
C216 C211 1.342 . S
C216 C214 1.285 . S
C216 H235 0.930 . S
C217 C220 1.424 . S
C217 C222 1.245 . S
C217 C223 1.428 . S
C218 C221 1.260 . S
C218 C222 1.477 . S
C218 H236 0.932 . S
C219 C220 1.384 . S
C219 C221 1.479 . S
C219 H237 0.929 1_545 S
C220 C217 1.424 . S
C220 C219 1.384 . S
C220 H238 0.928 . S
C221 C218 1.260 . S
C221 C219 1.479 . S
C222 C217 1.245 . S
C222 C218 1.477 . S
C222 H239 0.932 . S
C223 U206 2.882 . S
C223 C217 1.428 . S
C223 O226 1.301 . S
C223 O227 1.282 . S
O224 U206 2.441 1_655 S
O224 C210 1.249 . S
O225 U206 2.420 . S
O225 C210 1.202 1_455 S
O226 U206 2.455 . S
O226 C223 1.301 . S
O227 U206 2.449 . S
O227 C223 1.282 . S
H228 C201 0.931 . S
H229 C203 0.929 . S
H230 C204 0.930 . S
H231 C205 0.931 . S
H232 C212 0.932 . S
H233 C213 0.930 . S
H234 C214 0.929 . S
H235 C216 0.930 . S
H236 C218 0.932 . S
H237 C219 0.929 1_565 S
H238 C220 0.928 . S
H239 C222 0.932 . S
C240 C241 1.264 . S
C240 C245 1.479 1_455 S
C240 C250 1.465 . S
C241 C240 1.264 . S
C241 C243 1.339 . S
C241 H268 0.931 . S
C242 C243 1.395 . S
C242 C244 1.320 1_455 S
C243 C241 1.339 . S
C243 C242 1.395 . S
C243 H269 0.929 . S
C244 C242 1.320 1_655 S
C244 C245 1.405 . S
C244 H270 0.930 . S
C245 C240 1.479 1_655 S
C245 C244 1.405 . S
C245 H271 0.931 . S
U246 O247 2.454 . S
U246 O248 2.458 . S
U246 C249 2.984 . S
U246 C250 2.847 1_655 S
U246 C263 2.882 1_655 S
U246 O264 2.441 . S
U246 O265 2.420 1_655 S
U246 O266 2.455 1_655 S
U246 O267 2.449 1_655 S
O247 U246 2.454 . S
O247 C249 1.353 . S
O248 U246 2.458 . S
O248 C249 1.286 . S
C249 U246 2.984 . S
C249 O247 1.353 . S
C249 O248 1.286 . S
C249 C251 1.363 . S
C250 C240 1.465 . S
C250 U246 2.847 1_455 S
C250 O264 1.249 1_455 S
C250 O265 1.202 . S
C251 C249 1.363 . S
C251 C253 1.408 . S
C251 C256 1.342 . S
C252 C253 1.310 . S
C252 C255 1.461 . S
C252 H272 0.932 . S
C253 C251 1.408 . S
C253 C252 1.310 . S
C253 H273 0.930 . S
C254 C255 1.474 . S
C254 C256 1.285 . S
C254 H274 0.929 . S
C255 C252 1.461 . S
C255 C254 1.474 . S
C256 C251 1.342 . S
C256 C254 1.285 . S
C256 H275 0.930 . S
C257 C260 1.424 . S
C257 C262 1.245 . S
C257 C263 1.428 . S
C258 C261 1.260 . S
C258 C262 1.477 . S
C258 H276 0.932 . S
C259 C260 1.384 . S
C259 C261 1.479 . S
C259 H277 0.929 . S
C260 C257 1.424 . S
C260 C259 1.384 . S
C260 H278 0.928 . S
C261 C258 1.260 . S
C261 C259 1.479 . S
C262 C257 1.245 . S
C262 C258 1.477 . S
C262 H279 0.932 . S
C263 U246 2.882 1_455 S
C263 C257 1.428 . S
C263 O266 1.301 . S
C263 O267 1.282 . S
O264 U246 2.441 . S
O264 C250 1.249 1_655 S
O265 U246 2.420 1_455 S
O265 C250 1.202 . S
O266 U246 2.455 1_455 S
O266 C263 1.301 . S
O267 U246 2.449 1_455 S
O267 C263 1.282 . S
H268 C241 0.931 . S
H269 C243 0.929 . S
H270 C244 0.930 . S
H271 C245 0.931 . S
H272 C252 0.932 . S
H273 C253 0.930 . S
H274 C254 0.929 . S
H275 C256 0.930 . S
H276 C258 0.932 . S
H277 C259 0.929 . S
H278 C260 0.928 . S
H279 C262 0.932 . S
C280 C281 1.264 . S
C280 C285 1.479 . S
C280 C290 1.465 . S
C281 C280 1.264 . S
C281 C283 1.339 . S
C281 H308 0.931 . S
C282 C283 1.395 . S
C282 C284 1.320 . S
C283 C281 1.339 . S
C283 C282 1.395 . S
C283 H309 0.929 . S
C284 C282 1.320 . S
C284 C285 1.405 . S
C284 H310 0.930 . S
C285 C280 1.479 . S
C285 C284 1.405 . S
C285 H311 0.931 . S
U286 O287 2.454 . S
U286 O288 2.458 . S
U286 C289 2.984 . S
U286 C290 2.847 . S
U286 C303 2.882 1_554 S
U286 O304 2.441 . S
U286 O305 2.420 . S
U286 O306 2.455 . S
U286 O307 2.449 . S
O287 U286 2.454 . S
O287 C289 1.353 . S
O288 U286 2.458 . S
O288 C289 1.286 . S
C289 U286 2.984 . S
C289 O287 1.353 . S
C289 O288 1.286 . S
C289 C291 1.363 . S
C290 C280 1.465 . S
C290 U286 2.847 . S
C290 O304 1.249 . S
C290 O305 1.202 . S
C291 C289 1.363 . S
C291 C293 1.408 . S
C291 C296 1.342 . S
C292 C293 1.310 . S
C292 C295 1.461 . S
C292 H312 0.932 . S
C293 C291 1.408 . S
C293 C292 1.310 . S
C293 H313 0.930 . S
C294 C295 1.474 . S
C294 C296 1.285 . S
C294 H314 0.929 1_565 S
C295 C292 1.461 . S
C295 C294 1.474 . S
C296 C291 1.342 . S
C296 C294 1.285 . S
C296 H315 0.930 . S
C297 C300 1.424 . S
C297 C302 1.245 . S
C297 C303 1.428 . S
C298 C301 1.260 . S
C298 C302 1.477 . S
C298 H316 0.932 1_565 S
C299 C300 1.384 . S
C299 C301 1.479 . S
C299 H317 0.929 . S
C300 C297 1.424 . S
C300 C299 1.384 . S
C300 H318 0.928 . S
C301 C298 1.260 . S
C301 C299 1.479 . S
C302 C297 1.245 . S
C302 C298 1.477 . S
C302 H319 0.932 . S
C303 U286 2.882 1_556 S
C303 C297 1.428 . S
C303 O306 1.301 1_556 S
C303 O307 1.282 1_556 S
O304 U286 2.441 . S
O304 C290 1.249 . S
O305 U286 2.420 . S
O305 C290 1.202 . S
O306 U286 2.455 . S
O306 C303 1.301 1_554 S
O307 U286 2.449 . S
O307 C303 1.282 1_554 S
H308 C281 0.931 . S
H309 C283 0.929 . S
H310 C284 0.930 . S
H311 C285 0.931 . S
H312 C292 0.932 . S
H313 C293 0.930 . S
H314 C294 0.929 1_545 S
H315 C296 0.930 . S
H316 C298 0.932 1_545 S
H317 C299 0.929 . S
H318 C300 0.928 . S
H319 C302 0.932 . S
C320 C321 1.267 . S
C320 C325 1.478 1_554 S
C320 C330 1.462 1_554 S
C321 C320 1.267 . S
C321 C323 1.339 . S
C321 H348 0.931 . S
C322 C323 1.395 . S
C322 C324 1.320 . S
C323 C321 1.339 . S
C323 C322 1.395 . S
C323 H349 0.929 . S
C324 C322 1.320 . S
C324 C325 1.405 1_554 S
C324 H350 0.930 . S
C325 C320 1.478 1_556 S
C325 C324 1.405 1_556 S
C325 H351 0.931 . S
U326 O327 2.454 . S
U326 O328 2.458 . S
U326 C329 2.984 . S
U326 C330 2.847 . S
U326 C343 2.882 . S
U326 O344 2.441 . S
U326 O345 2.420 . S
U326 O346 2.455 . S
U326 O347 2.449 . S
O327 U326 2.454 . S
O327 C329 1.353 . S
O328 U326 2.458 . S
O328 C329 1.286 . S
C329 U326 2.984 . S
C329 O327 1.353 . S
C329 O328 1.286 . S
C329 C331 1.363 . S
C330 C320 1.462 1_556 S
C330 U326 2.847 . S
C330 O344 1.249 . S
C330 O345 1.202 . S
C331 C329 1.363 . S
C331 C333 1.408 . S
C331 C336 1.342 . S
C332 C333 1.310 . S
C332 C335 1.461 . S
C332 H352 0.932 . S
C333 C331 1.408 . S
C333 C332 1.310 . S
C333 H353 0.930 . S
C334 C335 1.474 . S
C334 C336 1.285 . S
C334 H354 0.929 . S
C335 C332 1.461 . S
C335 C334 1.474 . S
C336 C331 1.342 . S
C336 C334 1.285 . S
C336 H355 0.930 . S
C337 C340 1.424 . S
C337 C342 1.245 . S
C337 C343 1.428 1_554 S
C338 C341 1.260 . S
C338 C342 1.477 . S
C338 H356 0.932 1_545 S
C339 C340 1.384 . S
C339 C341 1.479 . S
C339 H357 0.929 . S
C340 C337 1.424 . S
C340 C339 1.384 . S
C340 H358 0.928 . S
C341 C338 1.260 . S
C341 C339 1.479 . S
C342 C337 1.245 . S
C342 C338 1.477 . S
C342 H359 0.932 1_554 S
C343 U326 2.882 . S
C343 C337 1.428 1_556 S
C343 O346 1.301 . S
C343 O347 1.282 . S
O344 U326 2.441 . S
O344 C330 1.249 . S
O345 U326 2.420 . S
O345 C330 1.202 . S
O346 U326 2.455 . S
O346 C343 1.301 . S
O347 U326 2.449 . S
O347 C343 1.282 . S
H348 C321 0.931 . S
H349 C323 0.929 . S
H350 C324 0.930 . S
H351 C325 0.931 . S
H352 C332 0.932 . S
H353 C333 0.930 . S
H354 C334 0.929 . S
H355 C336 0.930 . S
H356 C338 0.932 1_565 S
H357 C339 0.929 . S
H358 C340 0.928 . S
H359 C342 0.932 1_556 S
C360 C361 1.264 . S
C360 C365 1.479 . S
C360 C370 1.465 . S
C361 C360 1.264 . S
C361 C363 1.339 . S
C361 H388 0.931 . S
C362 C363 1.395 . S
C362 C364 1.320 . S
C363 C361 1.339 . S
C363 C362 1.395 . S
C363 H389 0.929 . S
C364 C362 1.320 . S
C364 C365 1.405 . S
C364 H390 0.930 . S
C365 C360 1.479 . S
C365 C364 1.405 . S
C365 H391 0.931 . S
U366 O367 2.454 . S
U366 O368 2.458 . S
U366 C369 2.984 . S
U366 C370 2.847 . S
U366 C383 2.882 . S
U366 O384 2.441 . S
U366 O385 2.420 . S
U366 O386 2.455 . S
U366 O387 2.449 . S
O367 U366 2.454 . S
O367 C369 1.353 . S
O368 U366 2.458 . S
O368 C369 1.286 . S
C369 U366 2.984 . S
C369 O367 1.353 . S
C369 O368 1.286 . S
C369 C371 1.363 . S
C370 C360 1.465 . S
C370 U366 2.847 . S
C370 O384 1.249 . S
C370 O385 1.202 . S
C371 C369 1.363 . S
C371 C373 1.408 . S
C371 C376 1.342 . S
C372 C373 1.310 . S
C372 C375 1.461 . S
C372 H392 0.932 . S
C373 C371 1.408 . S
C373 C372 1.310 . S
C373 H393 0.930 . S
C374 C375 1.474 . S
C374 C376 1.285 . S
C374 H394 0.929 . S
C375 C372 1.461 . S
C375 C374 1.474 . S
C376 C371 1.342 . S
C376 C374 1.285 . S
C376 H395 0.930 . S
C377 C380 1.424 . S
C377 C382 1.245 . S
C377 C383 1.428 . S
C378 C381 1.260 . S
C378 C382 1.477 . S
C378 H396 0.932 . S
C379 C380 1.384 . S
C379 C381 1.479 . S
C379 H397 0.929 . S
C380 C377 1.424 . S
C380 C379 1.384 . S
C380 H398 0.928 . S
C381 C378 1.260 . S
C381 C379 1.479 . S
C382 C377 1.245 . S
C382 C378 1.477 . S
C382 H399 0.932 . S
C383 U366 2.882 . S
C383 C377 1.428 . S
C383 O386 1.301 . S
C383 O387 1.282 . S
O384 U366 2.441 . S
O384 C370 1.249 . S
O385 U366 2.420 . S
O385 C370 1.202 . S
O386 U366 2.455 . S
O386 C383 1.301 . S
O387 U366 2.449 . S
O387 C383 1.282 . S
H388 C361 0.931 . S
H389 C363 0.929 . S
H390 C364 0.930 . S
H391 C365 0.931 . S
H392 C372 0.932 . S
H393 C373 0.930 . S
H394 C374 0.929 . S
H395 C376 0.930 . S
H396 C378 0.932 . S
H397 C379 0.929 . S
H398 C380 0.928 . S
H399 C382 0.932 . S
C400 C401 1.264 . S
C400 C405 1.479 . S
C400 C410 1.465 1_455 S
C401 C400 1.264 . S
C401 C403 1.339 . S
C401 H428 0.931 1_455 S
C402 C403 1.395 . S
C402 C404 1.320 . S
C403 C401 1.339 . S
C403 C402 1.395 . S
C403 H429 0.929 1_565 S
C404 C402 1.320 . S
C404 C405 1.405 . S
C404 H430 0.930 . S
C405 C400 1.479 . S
C405 C404 1.405 . S
C405 H431 0.931 . S
U406 O407 2.454 1_655 S
U406 O408 2.458 . S
U406 C409 2.984 1_655 S
U406 C410 2.847 . S
U406 C423 2.882 . S
U406 O424 2.441 1_655 S
U406 O425 2.420 . S
U406 O426 2.455 . S
U406 O427 2.449 . S
O407 U406 2.454 1_455 S
O407 C409 1.353 . S
O408 U406 2.458 . S
O408 C409 1.286 1_655 S
C409 U406 2.984 1_455 S
C409 O407 1.353 . S
C409 O408 1.286 1_455 S
C409 C411 1.363 . S
C410 C400 1.465 1_655 S
C410 U406 2.847 . S
C410 O424 1.249 1_655 S
C410 O425 1.202 . S
C411 C409 1.363 . S
C411 C413 1.408 . S
C411 C416 1.342 . S
C412 C413 1.310 . S
C412 C415 1.461 . S
C412 H432 0.932 . S
C413 C411 1.408 . S
C413 C412 1.310 . S
C413 H433 0.930 . S
C414 C415 1.474 . S
C414 C416 1.285 . S
C414 H434 0.929 . S
C415 C412 1.461 . S
C415 C414 1.474 . S
C416 C411 1.342 . S
C416 C414 1.285 . S
C416 H435 0.930 . S
C417 C420 1.424 . S
C417 C422 1.245 . S
C417 C423 1.428 . S
C418 C421 1.260 . S
C418 C422 1.477 . S
C418 H436 0.932 . S
C419 C420 1.384 . S
C419 C421 1.479 . S
C419 H437 0.929 1_565 S
C420 C417 1.424 . S
C420 C419 1.384 . S
C420 H438 0.928 . S
C421 C418 1.260 . S
C421 C419 1.479 . S
C422 C417 1.245 . S
C422 C418 1.477 . S
C422 H439 0.932 . S
C423 U406 2.882 . S
C423 C417 1.428 . S
C423 O426 1.301 . S
C423 O427 1.282 . S
O424 U406 2.441 1_455 S
O424 C410 1.249 1_455 S
O425 U406 2.420 . S
O425 C410 1.202 . S
O426 U406 2.455 . S
O426 C423 1.301 . S
O427 U406 2.449 . S
O427 C423 1.282 . S
H428 C401 0.931 1_655 S
H429 C403 0.929 1_545 S
H430 C404 0.930 . S
H431 C405 0.931 . S
H432 C412 0.932 . S
H433 C413 0.930 . S
H434 C414 0.929 . S
H435 C416 0.930 . S
H436 C418 0.932 . S
H437 C419 0.929 1_545 S
H438 C420 0.928 . S
H439 C422 0.932 . S
C440 C441 1.263 1_655 S
C440 C445 1.479 . S
C440 C450 1.465 . S
C441 C440 1.263 1_455 S
C441 C443 1.339 . S
C441 H468 0.931 . S
C442 C443 1.395 . S
C442 C444 1.304 1_455 S
C443 C441 1.339 . S
C443 C442 1.395 . S
C443 H469 0.929 . S
C444 C442 1.304 1_655 S
C444 C445 1.415 . S
C444 H470 0.937 . S
C445 C440 1.479 . S
C445 C444 1.415 . S
C445 H471 0.931 . S
U446 O447 2.454 . S
U446 O448 2.458 . S
U446 C449 2.984 . S
U446 C450 2.847 . S
U446 C463 2.882 1_655 S
U446 O464 2.441 . S
U446 O465 2.420 . S
U446 O466 2.455 . S
U446 O467 2.449 1_655 S
O447 U446 2.454 . S
O447 C449 1.353 . S
O448 U446 2.458 . S
O448 C449 1.286 . S
C449 U446 2.984 . S
C449 O447 1.353 . S
C449 O448 1.286 . S
C449 C451 1.363 . S
C450 C440 1.465 . S
C450 U446 2.847 . S
C450 O464 1.249 . S
C450 O465 1.202 . S
C451 C449 1.363 . S
C451 C453 1.408 . S
C451 C456 1.342 . S
C452 C453 1.310 . S
C452 C455 1.461 . S
C452 H472 0.932 . S
C453 C451 1.408 . S
C453 C452 1.310 . S
C453 H473 0.930 . S
C454 C455 1.474 . S
C454 C456 1.285 . S
C454 H474 0.929 . S
C455 C452 1.461 . S
C455 C454 1.474 . S
C456 C451 1.342 . S
C456 C454 1.285 . S
C456 H475 0.930 . S
C457 C460 1.424 . S
C457 C462 1.245 . S
C457 C463 1.428 . S
C458 C461 1.260 . S
C458 C462 1.477 . S
C458 H476 0.932 . S
C459 C460 1.384 . S
C459 C461 1.479 . S
C459 H477 0.929 . S
C460 C457 1.424 . S
C460 C459 1.384 . S
C460 H478 0.928 . S
C461 C458 1.260 . S
C461 C459 1.479 . S
C462 C457 1.245 . S
C462 C458 1.477 . S
C462 H479 0.932 . S
C463 U446 2.882 1_455 S
C463 C457 1.428 . S
C463 O466 1.301 1_455 S
C463 O467 1.282 . S
O464 U446 2.441 . S
O464 C450 1.249 . S
O465 U446 2.420 . S
O465 C450 1.202 . S
O466 U446 2.455 . S
O466 C463 1.301 1_655 S
O467 U446 2.449 1_455 S
O467 C463 1.282 . S
H468 C441 0.931 . S
H469 C443 0.929 . S
H470 C444 0.937 . S
H471 C445 0.931 . S
H472 C452 0.932 . S
H473 C453 0.930 . S
H474 C454 0.929 . S
H475 C456 0.930 . S
H476 C458 0.932 . S
H477 C459 0.929 . S
H478 C460 0.928 . S
H479 C462 0.932 . S
C480 C481 1.264 . S
C480 C485 1.479 . S
C480 C490 1.465 . S
C481 C480 1.264 . S
C481 C483 1.339 . S
C481 H508 0.931 . S
C482 C483 1.395 . S
C482 C484 1.320 . S
C483 C481 1.339 . S
C483 C482 1.395 . S
C483 H509 0.929 . S
C484 C482 1.320 . S
C484 C485 1.405 . S
C484 H510 0.930 . S
C485 C480 1.479 . S
C485 C484 1.405 . S
C485 H511 0.931 . S
U486 O487 2.454 . S
U486 O488 2.458 . S
U486 C489 2.984 . S
U486 C490 2.847 . S
U486 C503 2.882 1_655 S
U486 O504 2.441 . S
U486 O505 2.420 . S
U486 O506 2.455 . S
U486 O507 2.449 . S
O487 U486 2.454 . S
O487 C489 1.353 . S
O488 U486 2.458 . S
O488 C489 1.286 . S
C489 U486 2.984 . S
C489 O487 1.353 . S
C489 O488 1.286 . S
C489 C491 1.363 . S
C490 C480 1.465 . S
C490 U486 2.847 . S
C490 O504 1.249 . S
C490 O505 1.202 . S
C491 C489 1.363 . S
C491 C493 1.408 . S
C491 C496 1.342 . S
C492 C493 1.310 . S
C492 C495 1.461 . S
C492 H512 0.932 . S
C493 C491 1.408 . S
C493 C492 1.310 . S
C493 H513 0.930 . S
C494 C495 1.474 . S
C494 C496 1.285 . S
C494 H514 0.929 1_565 S
C495 C492 1.461 . S
C495 C494 1.474 . S
C496 C491 1.342 . S
C496 C494 1.285 . S
C496 H515 0.930 . S
C497 C500 1.424 . S
C497 C502 1.245 . S
C497 C503 1.428 . S
C498 C501 1.260 . S
C498 C502 1.477 . S
C498 H516 0.932 1_565 S
C499 C500 1.384 . S
C499 C501 1.479 . S
C499 H517 0.929 . S
C500 C497 1.424 . S
C500 C499 1.384 . S
C500 H518 0.928 . S
C501 C498 1.260 . S
C501 C499 1.479 . S
C502 C497 1.245 . S
C502 C498 1.477 . S
C502 H519 0.932 . S
C503 U486 2.882 1_455 S
C503 C497 1.428 . S
C503 O506 1.301 1_455 S
C503 O507 1.282 1_455 S
O504 U486 2.441 . S
O504 C490 1.249 . S
O505 U486 2.420 . S
O505 C490 1.202 . S
O506 U486 2.455 . S
O506 C503 1.301 1_655 S
O507 U486 2.449 . S
O507 C503 1.282 1_655 S
H508 C481 0.931 . S
H509 C483 0.929 . S
H510 C484 0.930 . S
H511 C485 0.931 . S
H512 C492 0.932 . S
H513 C493 0.930 . S
H514 C494 0.929 1_545 S
H515 C496 0.930 . S
H516 C498 0.932 1_545 S
H517 C499 0.929 . S
H518 C500 0.928 . S
H519 C502 0.932 . S
C520 C521 1.264 . S
C520 C525 1.479 . S
C520 C530 1.465 . S
C521 C520 1.264 . S
C521 C523 1.339 . S
C521 H548 0.931 . S
C522 C523 1.395 . S
C522 C524 1.320 . S
C523 C521 1.339 . S
C523 C522 1.395 . S
C523 H549 0.929 . S
C524 C522 1.320 . S
C524 C525 1.405 . S
C524 H550 0.930 . S
C525 C520 1.479 . S
C525 C524 1.405 . S
C525 H551 0.931 . S
U526 O527 2.454 . S
U526 O528 2.458 . S
U526 C529 2.984 . S
U526 C530 2.847 . S
U526 C543 2.882 . S
U526 O544 2.441 . S
U526 O545 2.420 . S
U526 O546 2.455 . S
U526 O547 2.449 . S
O527 U526 2.454 . S
O527 C529 1.353 . S
O528 U526 2.458 . S
O528 C529 1.286 . S
C529 U526 2.984 . S
C529 O527 1.353 . S
C529 O528 1.286 . S
C529 C531 1.363 . S
C530 C520 1.465 . S
C530 U526 2.847 . S
C530 O544 1.249 . S
C530 O545 1.202 . S
C531 C529 1.363 . S
C531 C533 1.408 . S
C531 C536 1.342 . S
C532 C533 1.310 . S
C532 C535 1.461 . S
C532 H552 0.932 . S
C533 C531 1.408 . S
C533 C532 1.310 . S
C533 H553 0.930 . S
C534 C535 1.474 . S
C534 C536 1.285 . S
C534 H554 0.929 . S
C535 C532 1.461 . S
C535 C534 1.474 . S
C536 C531 1.342 . S
C536 C534 1.285 . S
C536 H555 0.930 . S
C537 C540 1.424 . S
C537 C542 1.245 . S
C537 C543 1.428 . S
C538 C541 1.260 . S
C538 C542 1.477 . S
C538 H556 0.932 . S
C539 C540 1.384 . S
C539 C541 1.479 . S
C539 H557 0.929 . S
C540 C537 1.424 . S
C540 C539 1.384 . S
C540 H558 0.928 . S
C541 C538 1.260 . S
C541 C539 1.479 . S
C542 C537 1.245 . S
C542 C538 1.477 . S
C542 H559 0.932 . S
C543 U526 2.882 . S
C543 C537 1.428 . S
C543 O546 1.301 . S
C543 O547 1.282 . S
O544 U526 2.441 . S
O544 C530 1.249 . S
O545 U526 2.420 . S
O545 C530 1.202 . S
O546 U526 2.455 . S
O546 C543 1.301 . S
O547 U526 2.449 . S
O547 C543 1.282 . S
H548 C521 0.931 . S
H549 C523 0.929 . S
H550 C524 0.930 . S
H551 C525 0.931 . S
H552 C532 0.932 . S
H553 C533 0.930 . S
H554 C534 0.929 . S
H555 C536 0.930 . S
H556 C538 0.932 . S
H557 C539 0.929 . S
H558 C540 0.928 . S
H559 C542 0.932 . S
C560 C561 1.264 1_554 S
C560 C565 1.479 . S
C560 C570 1.465 . S
C561 C560 1.264 1_556 S
C561 C563 1.339 . S
C561 H588 0.931 . S
C562 C563 1.395 . S
C562 C564 1.320 . S
C563 C561 1.339 . S
C563 C562 1.395 . S
C563 H589 0.929 . S
C564 C562 1.320 . S
C564 C565 1.405 1_556 S
C564 H590 0.930 . S
C565 C560 1.479 . S
C565 C564 1.405 1_554 S
C565 H591 0.931 . S
U566 O567 2.454 . S
U566 O568 2.458 . S
U566 C569 2.984 . S
U566 C570 2.847 . S
U566 C583 2.882 . S
U566 O584 2.441 . S
U566 O585 2.420 . S
U566 O586 2.455 . S
U566 O587 2.449 . S
O567 U566 2.454 . S
O567 C569 1.353 . S
O568 U566 2.458 . S
O568 C569 1.286 . S
C569 U566 2.984 . S
C569 O567 1.353 . S
C569 O568 1.286 . S
C569 C571 1.363 . S
C570 C560 1.465 . S
C570 U566 2.847 . S
C570 O584 1.249 . S
C570 O585 1.202 . S
C571 C569 1.363 . S
C571 C573 1.408 . S
C571 C576 1.342 . S
C572 C573 1.310 . S
C572 C575 1.461 . S
C572 H592 0.932 . S
C573 C571 1.408 . S
C573 C572 1.310 . S
C573 H593 0.930 . S
C574 C575 1.474 . S
C574 C576 1.285 . S
C574 H594 0.929 . S
C575 C572 1.461 . S
C575 C574 1.474 . S
C576 C571 1.342 . S
C576 C574 1.285 . S
C576 H595 0.930 . S
C577 C580 1.424 . S
C577 C582 1.245 . S
C577 C583 1.428 1_556 S
C578 C581 1.260 . S
C578 C582 1.477 . S
C578 H596 0.932 1_545 S
C579 C580 1.384 . S
C579 C581 1.479 . S
C579 H597 0.929 . S
C580 C577 1.424 . S
C580 C579 1.384 . S
C580 H598 0.928 . S
C581 C578 1.260 . S
C581 C579 1.479 . S
C582 C577 1.245 . S
C582 C578 1.477 . S
C582 H599 0.937 . S
C583 U566 2.882 . S
C583 C577 1.428 1_554 S
C583 O586 1.301 . S
C583 O587 1.282 . S
O584 U566 2.441 . S
O584 C570 1.249 . S
O585 U566 2.420 . S
O585 C570 1.202 . S
O586 U566 2.455 . S
O586 C583 1.301 . S
O587 U566 2.449 . S
O587 C583 1.282 . S
H588 C561 0.931 . S
H589 C563 0.929 . S
H590 C564 0.930 . S
H591 C565 0.931 . S
H592 C572 0.932 . S
H593 C573 0.930 . S
H594 C574 0.929 . S
H595 C576 0.930 . S
H596 C578 0.932 1_565 S
H597 C579 0.929 . S
H598 C580 0.928 . S
H599 C582 0.937 . S
C600 C601 1.253 1_455 S
C600 C605 1.486 . S
C600 C610 1.471 . S
C601 C600 1.253 1_655 S
C601 C603 1.339 . S
C601 H628 0.931 . S
C602 C603 1.395 . S
C602 C604 1.320 1_655 S
C603 C601 1.339 . S
C603 C602 1.395 . S
C603 H629 0.929 . S
C604 C602 1.320 1_455 S
C604 C605 1.405 . S
C604 H630 0.930 . S
C605 C600 1.486 . S
C605 C604 1.405 . S
C605 H631 0.931 . S
U606 O607 2.454 . S
U606 O608 2.458 . S
U606 C609 2.984 . S
U606 C610 2.847 . S
U606 C623 2.882 1_455 S
U606 O624 2.441 . S
U606 O625 2.420 . S
U606 O626 2.455 . S
U606 O627 2.449 1_455 S
O607 U606 2.454 . S
O607 C609 1.353 . S
O608 U606 2.458 . S
O608 C609 1.286 . S
C609 U606 2.984 . S
C609 O607 1.353 . S
C609 O608 1.286 . S
C609 C611 1.363 . S
C610 C600 1.471 . S
C610 U606 2.847 . S
C610 O624 1.249 . S
C610 O625 1.202 . S
C611 C609 1.363 . S
C611 C613 1.408 . S
C611 C616 1.342 . S
C612 C613 1.310 . S
C612 C615 1.461 . S
C612 H632 0.932 . S
C613 C611 1.408 . S
C613 C612 1.310 . S
C613 H633 0.930 . S
C614 C615 1.474 . S
C614 C616 1.285 . S
C614 H634 0.929 . S
C615 C612 1.461 . S
C615 C614 1.474 . S
C616 C611 1.342 . S
C616 C614 1.285 . S
C616 H635 0.930 . S
C617 C620 1.424 . S
C617 C622 1.245 . S
C617 C623 1.428 . S
C618 C621 1.260 . S
C618 C622 1.477 . S
C618 H636 0.932 . S
C619 C620 1.384 . S
C619 C621 1.479 . S
C619 H637 0.929 . S
C620 C617 1.424 . S
C620 C619 1.384 . S
C620 H638 0.928 . S
C621 C618 1.260 . S
C621 C619 1.479 . S
C622 C617 1.245 . S
C622 C618 1.477 . S
C622 H639 0.932 . S
C623 U606 2.882 1_655 S
C623 C617 1.428 . S
C623 O626 1.301 1_655 S
C623 O627 1.282 . S
O624 U606 2.441 . S
O624 C610 1.249 . S
O625 U606 2.420 . S
O625 C610 1.202 . S
O626 U606 2.455 . S
O626 C623 1.301 1_455 S
O627 U606 2.449 1_655 S
O627 C623 1.282 . S
H628 C601 0.931 . S
H629 C603 0.929 . S
H630 C604 0.930 . S
H631 C605 0.931 . S
H632 C612 0.932 . S
H633 C613 0.930 . S
H634 C614 0.929 . S
H635 C616 0.930 . S
H636 C618 0.932 . S
H637 C619 0.929 . S
H638 C620 0.928 . S
H639 C622 0.932 . S
C640 C641 1.264 . S
C640 C645 1.479 . S
C640 C650 1.465 . S
C641 C640 1.264 . S
C641 C643 1.339 . S
C641 H668 0.931 . S
C642 C643 1.395 . S
C642 C644 1.320 . S
C643 C641 1.339 . S
C643 C642 1.395 . S
C643 H669 0.929 . S
C644 C642 1.320 . S
C644 C645 1.405 . S
C644 H670 0.930 . S
C645 C640 1.479 . S
C645 C644 1.405 . S
C645 H671 0.931 . S
U646 O647 2.454 . S
U646 O648 2.458 . S
U646 C649 2.984 . S
U646 C650 2.847 . S
U646 C663 2.882 . S
U646 O664 2.441 . S
U646 O665 2.420 . S
U646 O666 2.455 . S
U646 O667 2.449 . S
O647 U646 2.454 . S
O647 C649 1.353 . S
O648 U646 2.458 . S
O648 C649 1.286 . S
C649 U646 2.984 . S
C649 O647 1.353 . S
C649 O648 1.286 . S
C649 C651 1.363 . S
C650 C640 1.465 . S
C650 U646 2.847 . S
C650 O664 1.249 . S
C650 O665 1.202 . S
C651 C649 1.363 . S
C651 C653 1.408 . S
C651 C656 1.342 . S
C652 C653 1.310 . S
C652 C655 1.461 . S
C652 H672 0.932 . S
C653 C651 1.408 . S
C653 C652 1.310 . S
C653 H673 0.930 . S
C654 C655 1.474 . S
C654 C656 1.285 . S
C654 H674 0.929 . S
C655 C652 1.461 . S
C655 C654 1.474 . S
C656 C651 1.342 . S
C656 C654 1.285 . S
C656 H675 0.930 . S
C657 C660 1.424 . S
C657 C662 1.245 . S
C657 C663 1.428 . S
C658 C661 1.260 . S
C658 C662 1.477 . S
C658 H676 0.932 . S
C659 C660 1.384 . S
C659 C661 1.479 . S
C659 H677 0.929 . S
C660 C657 1.424 . S
C660 C659 1.384 . S
C660 H678 0.928 . S
C661 C658 1.260 . S
C661 C659 1.479 . S
C662 C657 1.245 . S
C662 C658 1.477 . S
C662 H679 0.932 . S
C663 U646 2.882 . S
C663 C657 1.428 . S
C663 O666 1.301 . S
C663 O667 1.282 . S
O664 U646 2.441 . S
O664 C650 1.249 . S
O665 U646 2.420 . S
O665 C650 1.202 . S
O666 U646 2.455 . S
O666 C663 1.301 . S
O667 U646 2.449 . S
O667 C663 1.282 . S
H668 C641 0.931 . S
H669 C643 0.929 . S
H670 C644 0.930 . S
H671 C645 0.931 . S
H672 C652 0.932 . S
H673 C653 0.930 . S
H674 C654 0.929 . S
H675 C656 0.930 . S
H676 C658 0.932 . S
H677 C659 0.929 . S
H678 C660 0.928 . S
H679 C662 0.932 . S
C680 C681 1.264 . S
C680 C685 1.479 . S
C680 C690 1.465 . S
C681 C680 1.264 . S
C681 C683 1.339 . S
C681 H708 0.931 . S
C682 C683 1.395 . S
C682 C684 1.320 . S
C683 C681 1.339 . S
C683 C682 1.395 . S
C683 H709 0.929 . S
C684 C682 1.320 . S
C684 C685 1.405 . S
C684 H710 0.930 . S
C685 C680 1.479 . S
C685 C684 1.405 . S
C685 H711 0.931 . S
U686 O687 2.454 1_556 S
U686 O688 2.458 . S
U686 C689 2.984 . S
U686 C690 2.847 1_556 S
U686 C703 2.882 . S
U686 O704 2.441 1_556 S
U686 O705 2.420 1_556 S
U686 O706 2.455 . S
U686 O707 2.449 . S
O687 U686 2.454 1_554 S
O687 C689 1.353 1_554 S
O688 U686 2.458 . S
O688 C689 1.286 . S
C689 U686 2.984 . S
C689 O687 1.353 1_556 S
C689 O688 1.286 . S
C689 C691 1.363 . S
C690 C680 1.465 . S
C690 U686 2.847 1_554 S
C690 O704 1.249 . S
C690 O705 1.202 . S
C691 C689 1.363 . S
C691 C693 1.408 . S
C691 C696 1.342 . S
C692 C693 1.310 . S
C692 C695 1.461 . S
C692 H712 0.932 1_556 S
C693 C691 1.408 . S
C693 C692 1.310 . S
C693 H713 0.930 1_556 S
C694 C695 1.474 . S
C694 C696 1.285 . S
C694 H714 0.929 . S
C695 C692 1.461 . S
C695 C694 1.474 . S
C696 C691 1.342 . S
C696 C694 1.285 . S
C696 H715 0.930 . S
C697 C700 1.424 . S
C697 C702 1.245 . S
C697 C703 1.428 . S
C698 C701 1.260 . S
C698 C702 1.477 . S
C698 H716 0.932 . S
C699 C700 1.384 . S
C699 C701 1.479 . S
C699 H717 0.929 . S
C700 C697 1.424 . S
C700 C699 1.384 . S
C700 H718 0.928 . S
C701 C698 1.260 . S
C701 C699 1.479 . S
C702 C697 1.245 . S
C702 C698 1.477 . S
C702 H719 0.932 . S
C703 U686 2.882 . S
C703 C697 1.428 . S
C703 O706 1.301 . S
C703 O707 1.282 . S
O704 U686 2.441 1_554 S
O704 C690 1.249 . S
O705 U686 2.420 1_554 S
O705 C690 1.202 . S
O706 U686 2.455 . S
O706 C703 1.301 . S
O707 U686 2.449 . S
O707 C703 1.282 . S
H708 C681 0.931 . S
H709 C683 0.929 . S
H710 C684 0.930 . S
H711 C685 0.931 . S
H712 C692 0.932 1_554 S
H713 C693 0.930 1_554 S
H714 C694 0.929 . S
H715 C696 0.930 . S
H716 C698 0.932 . S
H717 C699 0.929 . S
H718 C700 0.928 . S
H719 C702 0.932 . S
C720 C721 1.264 . S
C720 C725 1.479 . S
C720 C730 1.465 . S
C721 C720 1.264 . S
C721 C723 1.339 . S
C721 H748 0.931 . S
C722 C723 1.395 . S
C722 C724 1.320 . S
C723 C721 1.339 . S
C723 C722 1.395 . S
C723 H749 0.929 . S
C724 C722 1.320 . S
C724 C725 1.405 . S
C724 H750 0.930 . S
C725 C720 1.479 . S
C725 C724 1.405 . S
C725 H751 0.931 . S
U726 O727 2.454 . S
U726 O728 2.458 1_556 S
U726 C729 2.984 1_556 S
U726 C730 2.847 . S
U726 C743 2.882 1_556 S
U726 O744 2.441 . S
U726 O745 2.420 . S
U726 O746 2.455 1_556 S
U726 O747 2.449 1_556 S
O727 U726 2.454 . S
O727 C729 1.353 1_556 S
O728 U726 2.458 1_554 S
O728 C729 1.286 . S
C729 U726 2.984 1_554 S
C729 O727 1.353 1_554 S
C729 O728 1.286 . S
C729 C731 1.363 . S
C730 C720 1.465 . S
C730 U726 2.847 . S
C730 O744 1.249 . S
C730 O745 1.202 . S
C731 C729 1.363 . S
C731 C733 1.408 1_554 S
C731 C736 1.342 . S
C732 C733 1.310 . S
C732 C735 1.461 1_556 S
C732 H752 0.932 . S
C733 C731 1.408 1_556 S
C733 C732 1.310 . S
C733 H753 0.930 . S
C734 C735 1.474 . S
C734 C736 1.285 . S
C734 H754 0.929 . S
C735 C732 1.461 1_554 S
C735 C734 1.474 . S
C736 C731 1.342 . S
C736 C734 1.285 . S
C736 H755 0.930 . S
C737 C740 1.424 . S
C737 C742 1.245 . S
C737 C743 1.428 . S
C738 C741 1.260 . S
C738 C742 1.477 . S
C738 H756 0.932 . S
C739 C740 1.384 . S
C739 C741 1.479 . S
C739 H757 0.929 . S
C740 C737 1.424 . S
C740 C739 1.384 . S
C740 H758 0.928 . S
C741 C738 1.260 . S
C741 C739 1.479 . S
C742 C737 1.245 . S
C742 C738 1.477 . S
C742 H759 0.932 . S
C743 U726 2.882 1_554 S
C743 C737 1.428 . S
C743 O746 1.301 . S
C743 O747 1.282 . S
O744 U726 2.441 . S
O744 C730 1.249 . S
O745 U726 2.420 . S
O745 C730 1.202 . S
O746 U726 2.455 1_554 S
O746 C743 1.301 . S
O747 U726 2.449 1_554 S
O747 C743 1.282 . S
H748 C721 0.931 . S
H749 C723 0.929 . S
H750 C724 0.930 . S
H751 C725 0.931 . S
H752 C732 0.932 . S
H753 C733 0.930 . S
H754 C734 0.929 . S
H755 C736 0.930 . S
H756 C738 0.932 . S
H757 C739 0.929 . S
H758 C740 0.928 . S
H759 C742 0.932 . S
C760 C761 1.264 . S
C760 C765 1.479 . S
C760 C770 1.465 . S
C761 C760 1.264 . S
C761 C763 1.339 . S
C761 H788 0.931 . S
C762 C763 1.395 . S
C762 C764 1.320 . S
C763 C761 1.339 . S
C763 C762 1.395 . S
C763 H789 0.929 . S
C764 C762 1.320 . S
C764 C765 1.405 . S
C764 H790 0.930 . S
C765 C760 1.479 . S
C765 C764 1.405 . S
C765 H791 0.931 . S
U766 O767 2.454 . S
U766 O768 2.458 . S
U766 C769 2.984 . S
U766 C770 2.847 . S
U766 C783 2.882 . S
U766 O784 2.441 . S
U766 O785 2.420 . S
U766 O786 2.455 . S
U766 O787 2.449 . S
O767 U766 2.454 . S
O767 C769 1.353 . S
O768 U766 2.458 . S
O768 C769 1.286 . S
C769 U766 2.984 . S
C769 O767 1.353 . S
C769 O768 1.286 . S
C769 C771 1.363 . S
C770 C760 1.465 . S
C770 U766 2.847 . S
C770 O784 1.249 . S
C770 O785 1.202 . S
C771 C769 1.363 . S
C771 C773 1.408 . S
C771 C776 1.342 . S
C772 C773 1.310 . S
C772 C775 1.461 . S
C772 H792 0.932 . S
C773 C771 1.408 . S
C773 C772 1.310 . S
C773 H793 0.930 . S
C774 C775 1.474 . S
C774 C776 1.285 . S
C774 H794 0.929 . S
C775 C772 1.461 . S
C775 C774 1.474 . S
C776 C771 1.342 . S
C776 C774 1.285 . S
C776 H795 0.930 . S
C777 C780 1.424 . S
C777 C782 1.245 . S
C777 C783 1.428 . S
C778 C781 1.260 . S
C778 C782 1.477 . S
C778 H796 0.932 . S
C779 C780 1.384 . S
C779 C781 1.479 . S
C779 H797 0.929 . S
C780 C777 1.424 . S
C780 C779 1.384 . S
C780 H798 0.928 . S
C781 C778 1.260 . S
C781 C779 1.479 . S
C782 C777 1.245 . S
C782 C778 1.477 . S
C782 H799 0.932 . S
C783 U766 2.882 . S
C783 C777 1.428 . S
C783 O786 1.301 . S
C783 O787 1.282 . S
O784 U766 2.441 . S
O784 C770 1.249 . S
O785 U766 2.420 . S
O785 C770 1.202 . S
O786 U766 2.455 . S
O786 C783 1.301 . S
O787 U766 2.449 . S
O787 C783 1.282 . S
H788 C761 0.931 . S
H789 C763 0.929 . S
H790 C764 0.930 . S
H791 C765 0.931 . S
H792 C772 0.932 . S
H793 C773 0.930 . S
H794 C774 0.929 . S
H795 C776 0.930 . S
H796 C778 0.932 . S
H797 C779 0.929 . S
H798 C780 0.928 . S
H799 C782 0.932 . S
C800 C801 1.264 . S
C800 C805 1.479 . S
C800 C810 1.465 . S
C801 C800 1.264 . S
C801 C803 1.339 . S
C801 H828 0.931 . S
C802 C803 1.395 . S
C802 C804 1.320 . S
C803 C801 1.339 . S
C803 C802 1.395 . S
C803 H829 0.929 . S
C804 C802 1.320 . S
C804 C805 1.405 . S
C804 H830 0.930 . S
C805 C800 1.479 . S
C805 C804 1.405 . S
C805 H831 0.931 . S
U806 O807 2.454 . S
U806 O808 2.458 . S
U806 C809 2.984 . S
U806 C810 2.847 . S
U806 C823 2.882 . S
U806 O824 2.441 . S
U806 O825 2.420 . S
U806 O826 2.455 . S
U806 O827 2.449 . S
O807 U806 2.454 . S
O807 C809 1.353 . S
O808 U806 2.458 . S
O808 C809 1.286 . S
C809 U806 2.984 . S
C809 O807 1.353 . S
C809 O808 1.286 . S
C809 C811 1.363 . S
C810 C800 1.465 . S
C810 U806 2.847 . S
C810 O824 1.249 . S
C810 O825 1.202 . S
C811 C809 1.363 . S
C811 C813 1.408 . S
C811 C816 1.342 . S
C812 C813 1.310 . S
C812 C815 1.461 . S
C812 H832 0.932 . S
C813 C811 1.408 . S
C813 C812 1.310 . S
C813 H833 0.930 . S
C814 C815 1.474 . S
C814 C816 1.285 . S
C814 H834 0.929 . S
C815 C812 1.461 . S
C815 C814 1.474 . S
C816 C811 1.342 . S
C816 C814 1.285 . S
C816 H835 0.930 . S
C817 C820 1.424 . S
C817 C822 1.245 . S
C817 C823 1.428 . S
C818 C821 1.260 . S
C818 C822 1.477 . S
C818 H836 0.932 . S
C819 C820 1.384 . S
C819 C821 1.479 . S
C819 H837 0.929 . S
C820 C817 1.424 . S
C820 C819 1.384 . S
C820 H838 0.928 . S
C821 C818 1.260 . S
C821 C819 1.479 . S
C822 C817 1.245 . S
C822 C818 1.477 . S
C822 H839 0.932 . S
C823 U806 2.882 . S
C823 C817 1.428 . S
C823 O826 1.301 . S
C823 O827 1.282 . S
O824 U806 2.441 . S
O824 C810 1.249 . S
O825 U806 2.420 . S
O825 C810 1.202 . S
O826 U806 2.455 . S
O826 C823 1.301 . S
O827 U806 2.449 . S
O827 C823 1.282 . S
H828 C801 0.931 . S
H829 C803 0.929 . S
H830 C804 0.930 . S
H831 C805 0.931 . S
H832 C812 0.932 . S
H833 C813 0.930 . S
H834 C814 0.929 . S
H835 C816 0.930 . S
H836 C818 0.932 . S
H837 C819 0.929 . S
H838 C820 0.928 . S
H839 C822 0.932 . S
C840 C841 1.259 1_556 S
C840 C845 1.482 . S
C840 C850 1.468 . S
C841 C840 1.259 1_554 S
C841 C843 1.339 . S
C841 H868 0.931 . S
C842 C843 1.395 . S
C842 C844 1.312 1_554 S
C843 C841 1.339 . S
C843 C842 1.395 . S
C843 H869 0.929 . S
C844 C842 1.312 1_556 S
C844 C845 1.410 . S
C844 H870 0.933 . S
C845 C840 1.482 . S
C845 C844 1.410 . S
C845 H871 0.931 . S
U846 O847 2.454 . S
U846 O848 2.458 . S
U846 C849 2.984 . S
U846 C850 2.847 . S
U846 C863 2.882 1_556 S
U846 O864 2.441 . S
U846 O865 2.420 . S
U846 O866 2.455 . S
U846 O867 2.449 1_556 S
O847 U846 2.454 . S
O847 C849 1.353 . S
O848 U846 2.458 . S
O848 C849 1.286 . S
C849 U846 2.984 . S
C849 O847 1.353 . S
C849 O848 1.286 . S
C849 C851 1.363 . S
C850 C840 1.468 . S
C850 U846 2.847 . S
C850 O864 1.249 . S
C850 O865 1.202 . S
C851 C849 1.363 . S
C851 C853 1.408 . S
C851 C856 1.342 . S
C852 C853 1.310 . S
C852 C855 1.461 . S
C852 H872 0.932 . S
C853 C851 1.408 . S
C853 C852 1.310 . S
C853 H873 0.930 . S
C854 C855 1.474 . S
C854 C856 1.285 . S
C854 H874 0.929 . S
C855 C852 1.461 . S
C855 C854 1.474 . S
C856 C851 1.342 . S
C856 C854 1.285 . S
C856 H875 0.930 . S
C857 C860 1.424 . S
C857 C862 1.245 . S
C857 C863 1.428 . S
C858 C861 1.260 . S
C858 C862 1.477 . S
C858 H876 0.932 . S
C859 C860 1.384 . S
C859 C861 1.479 . S
C859 H877 0.929 . S
C860 C857 1.424 . S
C860 C859 1.384 . S
C860 H878 0.928 . S
C861 C858 1.260 . S
C861 C859 1.479 . S
C862 C857 1.245 . S
C862 C858 1.477 . S
C862 H879 0.932 . S
C863 U846 2.882 1_554 S
C863 C857 1.428 . S
C863 O866 1.301 1_554 S
C863 O867 1.282 . S
O864 U846 2.441 . S
O864 C850 1.249 . S
O865 U846 2.420 . S
O865 C850 1.202 . S
O866 U846 2.455 . S
O866 C863 1.301 1_556 S
O867 U846 2.449 1_554 S
O867 C863 1.282 . S
H868 C841 0.931 . S
H869 C843 0.929 . S
H870 C844 0.933 . S
H871 C845 0.931 . S
H872 C852 0.932 . S
H873 C853 0.930 . S
H874 C854 0.929 . S
H875 C856 0.930 . S
H876 C858 0.932 . S
H877 C859 0.929 . S
H878 C860 0.928 . S
H879 C862 0.932 . S
C880 C881 1.264 . S
C880 C885 1.479 . S
C880 C890 1.465 . S
C881 C880 1.264 . S
C881 C883 1.339 . S
C881 H908 0.931 . S
C882 C883 1.395 . S
C882 C884 1.320 . S
C883 C881 1.339 . S
C883 C882 1.395 . S
C883 H909 0.929 . S
C884 C882 1.320 . S
C884 C885 1.405 . S
C884 H910 0.930 . S
C885 C880 1.479 . S
C885 C884 1.405 . S
C885 H911 0.931 . S
U886 O887 2.454 . S
U886 O888 2.458 . S
U886 C889 2.984 . S
U886 C890 2.847 . S
U886 C903 2.882 . S
U886 O904 2.441 . S
U886 O905 2.420 . S
U886 O906 2.455 . S
U886 O907 2.449 . S
O887 U886 2.454 . S
O887 C889 1.353 . S
O888 U886 2.458 . S
O888 C889 1.286 . S
C889 U886 2.984 . S
C889 O887 1.353 . S
C889 O888 1.286 . S
C889 C891 1.363 . S
C890 C880 1.465 . S
C890 U886 2.847 . S
C890 O904 1.249 . S
C890 O905 1.202 . S
C891 C889 1.363 . S
C891 C893 1.408 . S
C891 C896 1.342 . S
C892 C893 1.310 . S
C892 C895 1.461 . S
C892 H912 0.932 . S
C893 C891 1.408 . S
C893 C892 1.310 . S
C893 H913 0.930 . S
C894 C895 1.474 . S
C894 C896 1.285 . S
C894 H914 0.929 . S
C895 C892 1.461 . S
C895 C894 1.474 . S
C896 C891 1.342 . S
C896 C894 1.285 . S
C896 H915 0.930 . S
C897 C900 1.424 . S
C897 C902 1.245 . S
C897 C903 1.428 . S
C898 C901 1.260 . S
C898 C902 1.477 . S
C898 H916 0.932 . S
C899 C900 1.384 . S
C899 C901 1.479 . S
C899 H917 0.929 . S
C900 C897 1.424 . S
C900 C899 1.384 . S
C900 H918 0.928 . S
C901 C898 1.260 . S
C901 C899 1.479 . S
C902 C897 1.245 . S
C902 C898 1.477 . S
C902 H919 0.932 . S
C903 U886 2.882 . S
C903 C897 1.428 . S
C903 O906 1.301 . S
C903 O907 1.282 . S
O904 U886 2.441 . S
O904 C890 1.249 . S
O905 U886 2.420 . S
O905 C890 1.202 . S
O906 U886 2.455 . S
O906 C903 1.301 . S
O907 U886 2.449 . S
O907 C903 1.282 . S
H908 C881 0.931 . S
H909 C883 0.929 . S
H910 C884 0.930 . S
H911 C885 0.931 . S
H912 C892 0.932 . S
H913 C893 0.930 . S
H914 C894 0.929 . S
H915 C896 0.930 . S
H916 C898 0.932 . S
H917 C899 0.929 . S
H918 C900 0.928 . S
H919 C902 0.932 . S
C920 C921 1.264 . S
C920 C925 1.479 1_556 S
C920 C930 1.465 1_556 S
C921 C920 1.264 . S
C921 C923 1.339 . S
C921 H948 0.931 . S
C922 C923 1.395 . S
C922 C924 1.320 1_556 S
C923 C921 1.339 . S
C923 C922 1.395 . S
C923 H949 0.929 . S
C924 C922 1.320 1_554 S
C924 C925 1.405 . S
C924 H950 0.930 . S
C925 C920 1.479 1_554 S
C925 C924 1.405 . S
C925 H951 0.931 . S
U926 O927 2.454 . S
U926 O928 2.458 . S
U926 C929 2.984 . S
U926 C930 2.847 . S
U926 C943 2.882 1_554 S
U926 O944 2.441 . S
U926 O945 2.420 1_554 S
U926 O946 2.455 1_554 S
U926 O947 2.449 1_554 S
O927 U926 2.454 . S
O927 C929 1.353 . S
O928 U926 2.458 . S
O928 C929 1.286 . S
C929 U926 2.984 . S
C929 O927 1.353 . S
C929 O928 1.286 . S
C929 C931 1.363 . S
C930 C920 1.465 1_554 S
C930 U926 2.847 . S
C930 O944 1.249 . S
C930 O945 1.202 1_554 S
C931 C929 1.363 . S
C931 C933 1.408 . S
C931 C936 1.342 . S
C932 C933 1.310 . S
C932 C935 1.461 . S
C932 H952 0.932 . S
C933 C931 1.408 . S
C933 C932 1.310 . S
C933 H953 0.930 . S
C934 C935 1.474 . S
C934 C936 1.285 . S
C934 H954 0.929 . S
C935 C932 1.461 . S
C935 C934 1.474 . S
C936 C931 1.342 . S
C936 C934 1.285 . S
C936 H955 0.930 . S
C937 C940 1.424 . S
C937 C942 1.245 . S
C937 C943 1.428 . S
C938 C941 1.260 . S
C938 C942 1.477 . S
C938 H956 0.932 . S
C939 C940 1.384 . S
C939 C941 1.479 . S
C939 H957 0.929 . S
C940 C937 1.424 . S
C940 C939 1.384 . S
C940 H958 0.928 . S
C941 C938 1.260 . S
C941 C939 1.479 . S
C942 C937 1.245 . S
C942 C938 1.477 . S
C942 H959 0.932 . S
C943 U926 2.882 1_556 S
C943 C937 1.428 . S
C943 O946 1.301 . S
C943 O947 1.282 . S
O944 U926 2.441 . S
O944 C930 1.249 . S
O945 U926 2.420 1_556 S
O945 C930 1.202 1_556 S
O946 U926 2.455 1_556 S
O946 C943 1.301 . S
O947 U926 2.449 1_556 S
O947 C943 1.282 . S
H948 C921 0.931 . S
H949 C923 0.929 . S
H950 C924 0.930 . S
H951 C925 0.931 . S
H952 C932 0.932 . S
H953 C933 0.930 . S
H954 C934 0.929 . S
H955 C936 0.930 . S
H956 C938 0.932 . S
H957 C939 0.929 . S
H958 C940 0.928 . S
H959 C942 0.932 . S
C960 C961 1.387 . S
C960 H964 0.950 . S
C960 C969 1.390 . S
C961 C960 1.387 . S
C961 C963 1.387 . S
H962 C969 0.950 . S
C963 C961 1.387 . S
C963 C965 1.390 . S
C963 H967 0.950 . S
H964 C960 0.950 . S
C965 C963 1.390 . S
C965 C966 1.387 . S
C965 H968 0.950 . S
C966 C965 1.387 . S
C966 C969 1.387 . S
H967 C963 0.950 . S
H968 C965 0.950 . S
C969 C960 1.390 . S
C969 H962 0.950 . S
C969 C966 1.387 . S
C970 C971 1.387 . S
C970 H974 0.950 . S
C970 C979 1.390 1_545 S
C971 C970 1.387 . S
C971 C973 1.387 1_545 S
H972 C979 0.950 . S
C973 C971 1.387 1_565 S
C973 C975 1.390 . S
C973 H977 0.950 . S
H974 C970 0.950 . S
C975 C973 1.390 . S
C975 C976 1.387 . S
C975 H978 0.950 . S
C976 C975 1.387 . S
C976 C979 1.387 . S
H977 C973 0.950 . S
H978 C975 0.950 . S
C979 C970 1.390 1_565 S
C979 H972 0.950 . S
C979 C976 1.387 . S
C980 C981 1.387 . S
C980 H984 0.950 . S
C980 C989 1.390 . S
C981 C980 1.387 . S
C981 C983 1.387 . S
H982 C989 0.950 . S
C983 C981 1.387 . S
C983 C985 1.390 . S
C983 H987 0.950 . S
H984 C980 0.950 . S
C985 C983 1.390 . S
C985 C986 1.387 . S
C985 H988 0.950 . S
C986 C985 1.387 . S
C986 C989 1.387 . S
H987 C983 0.950 . S
H988 C985 0.950 . S
C989 C980 1.390 . S
C989 H982 0.950 . S
C989 C986 1.387 . S
C990 C991 1.387 1_565 S
C990 H994 0.950 . S
C990 C999 1.390 . S
C991 C990 1.387 1_545 S
C991 C993 1.387 . S
H992 C999 0.950 . S
C993 C991 1.387 . S
C993 C995 1.390 . S
C993 H997 0.950 . S
H994 C990 0.950 . S
C995 C993 1.390 . S
C995 C996 1.387 1_545 S
C995 H998 0.950 . S
C996 C995 1.387 1_565 S
C996 C999 1.387 . S
H997 C993 0.950 . S
H998 C995 0.950 . S
C999 C990 1.390 . S
C999 H992 0.950 . S
C999 C996 1.387 . S
C1000 C1001 1.387 1_565 S
C1000 H1004 0.950 . S
C1000 C1009 1.390 . S
C1001 C1000 1.387 1_545 S
C1001 C1003 1.387 . S
H1002 C1009 0.950 . S
C1003 C1001 1.387 . S
C1003 C1005 1.390 . S
C1003 H1007 0.950 . S
H1004 C1000 0.950 . S
C1005 C1003 1.390 . S
C1005 C1006 1.387 1_545 S
C1005 H1008 0.950 . S
C1006 C1005 1.387 1_565 S
C1006 C1009 1.387 . S
H1007 C1003 0.950 . S
H1008 C1005 0.950 . S
C1009 C1000 1.390 . S
C1009 H1002 0.950 . S
C1009 C1006 1.387 . S
C1010 C1011 1.387 . S
C1010 H1014 0.950 . S
C1010 C1019 1.390 . S
C1011 C1010 1.387 . S
C1011 C1013 1.387 . S
H1012 C1019 0.950 . S
C1013 C1011 1.387 . S
C1013 C1015 1.390 . S
C1013 H1017 0.950 . S
H1014 C1010 0.950 . S
C1015 C1013 1.390 . S
C1015 C1016 1.387 . S
C1015 H1018 0.950 . S
C1016 C1015 1.387 . S
C1016 C1019 1.387 . S
H1017 C1013 0.950 . S
H1018 C1015 0.950 . S
C1019 C1010 1.390 . S
C1019 H1012 0.950 . S
C1019 C1016 1.387 . S
C1020 C1021 1.387 1_545 S
C1020 H1024 0.950 . S
C1020 C1029 1.390 . S
C1021 C1020 1.387 1_565 S
C1021 C1023 1.387 . S
H1022 C1029 0.950 . S
C1023 C1021 1.387 . S
C1023 C1025 1.390 . S
C1023 H1027 0.950 . S
H1024 C1020 0.950 . S
C1025 C1023 1.390 . S
C1025 C1026 1.387 1_565 S
C1025 H1028 0.950 . S
C1026 C1025 1.387 1_545 S
C1026 C1029 1.387 . S
H1027 C1023 0.950 . S
H1028 C1025 0.950 . S
C1029 C1020 1.390 . S
C1029 H1022 0.950 . S
C1029 C1026 1.387 . S
C1030 C1031 1.387 . S
C1030 H1034 0.950 . S
C1030 C1039 1.390 1_655 S
C1031 C1030 1.387 . S
C1031 C1033 1.387 . S
H1032 C1039 0.950 . S
C1033 C1031 1.387 . S
C1033 C1035 1.390 1_655 S
C1033 H1037 0.950 . S
H1034 C1030 0.950 . S
C1035 C1033 1.390 1_455 S
C1035 C1036 1.387 . S
C1035 H1038 0.950 . S
C1036 C1035 1.387 . S
C1036 C1039 1.387 . S
H1037 C1033 0.950 . S
H1038 C1035 0.950 . S
C1039 C1030 1.390 1_455 S
C1039 H1032 0.950 . S
C1039 C1036 1.387 . S
C1040 C1041 1.387 1_554 S
C1040 H1044 0.950 . S
C1040 C1049 1.390 . S
C1041 C1040 1.387 1_556 S
C1041 C1043 1.387 . S
H1042 C1049 0.950 . S
C1043 C1041 1.387 . S
C1043 C1045 1.390 . S
C1043 H1047 0.950 . S
H1044 C1040 0.950 . S
C1045 C1043 1.390 . S
C1045 C1046 1.387 1_556 S
C1045 H1048 0.950 . S
C1046 C1045 1.387 1_554 S
C1046 C1049 1.387 . S
H1047 C1043 0.950 . S
H1048 C1045 0.950 . S
C1049 C1040 1.390 . S
C1049 H1042 0.950 . S
C1049 C1046 1.387 . S
C1050 C1051 1.387 . S
C1050 H1054 0.950 . S
C1050 C1059 1.390 1_554 S
C1051 C1050 1.387 . S
C1051 C1053 1.387 . S
H1052 C1059 0.950 . S
C1053 C1051 1.387 . S
C1053 C1055 1.390 1_554 S
C1053 H1057 0.950 . S
H1054 C1050 0.950 . S
C1055 C1053 1.390 1_556 S
C1055 C1056 1.387 . S
C1055 H1058 0.950 . S
C1056 C1055 1.387 . S
C1056 C1059 1.387 . S
H1057 C1053 0.950 . S
H1058 C1055 0.950 . S
C1059 C1050 1.390 1_556 S
C1059 H1052 0.950 . S
C1059 C1056 1.387 . S
C1060 C1061 1.387 . S
C1060 H1064 0.950 . S
C1060 C1069 1.390 . S
C1061 C1060 1.387 . S
C1061 C1063 1.387 . S
H1062 C1069 0.950 . S
C1063 C1061 1.387 . S
C1063 C1065 1.390 . S
C1063 H1067 0.950 . S
H1064 C1060 0.950 . S
C1065 C1063 1.390 . S
C1065 C1066 1.387 . S
C1065 H1068 0.950 . S
C1066 C1065 1.387 . S
C1066 C1069 1.387 . S
H1067 C1063 0.950 . S
H1068 C1065 0.950 . S
C1069 C1060 1.390 . S
C1069 H1062 0.950 . S
C1069 C1066 1.387 . S
C1070 C1071 1.387 . S
C1070 H1074 0.950 . S
C1070 C1079 1.390 . S
C1071 C1070 1.387 . S
C1071 C1073 1.387 . S
H1072 C1079 0.950 . S
C1073 C1071 1.387 . S
C1073 C1075 1.390 . S
C1073 H1077 0.950 . S
H1074 C1070 0.950 . S
C1075 C1073 1.390 . S
C1075 C1076 1.387 . S
C1075 H1078 0.950 . S
C1076 C1075 1.387 . S
C1076 C1079 1.387 . S
H1077 C1073 0.950 . S
H1078 C1075 0.950 . S
C1079 C1070 1.390 . S
C1079 H1072 0.950 . S
C1079 C1076 1.387 . S
C1080 C1081 1.387 . S
C1080 H1084 0.950 . S
C1080 C1089 1.390 . S
C1081 C1080 1.387 . S
C1081 C1083 1.387 . S
H1082 C1089 0.950 . S
C1083 C1081 1.387 . S
C1083 C1085 1.390 . S
C1083 H1087 0.950 . S
H1084 C1080 0.950 . S
C1085 C1083 1.390 . S
C1085 C1086 1.387 . S
C1085 H1088 0.950 . S
C1086 C1085 1.387 . S
C1086 C1089 1.387 . S
H1087 C1083 0.950 . S
H1088 C1085 0.950 . S
C1089 C1080 1.390 . S
C1089 H1082 0.950 . S
C1089 C1086 1.387 . S
C1090 C1091 1.387 . S
C1090 H1094 0.950 . S
C1090 C1099 1.390 . S
C1091 C1090 1.387 . S
C1091 C1093 1.387 . S
H1092 C1099 0.950 . S
C1093 C1091 1.387 . S
C1093 C1095 1.390 . S
C1093 H1097 0.950 . S
H1094 C1090 0.950 . S
C1095 C1093 1.390 . S
C1095 C1096 1.387 . S
C1095 H1098 0.950 . S
C1096 C1095 1.387 . S
C1096 C1099 1.387 . S
H1097 C1093 0.950 . S
H1098 C1095 0.950 . S
C1099 C1090 1.390 . S
C1099 H1092 0.950 . S
C1099 C1096 1.387 . S
C1100 C1101 1.387 . S
C1100 H1104 0.950 . S
C1100 C1109 1.390 . S
C1101 C1100 1.387 . S
C1101 C1103 1.387 . S
H1102 C1109 0.950 . S
C1103 C1101 1.387 . S
C1103 C1105 1.390 . S
C1103 H1107 0.950 . S
H1104 C1100 0.950 . S
C1105 C1103 1.390 . S
C1105 C1106 1.387 . S
C1105 H1108 0.950 . S
C1106 C1105 1.387 . S
C1106 C1109 1.387 . S
H1107 C1103 0.950 . S
H1108 C1105 0.950 . S
C1109 C1100 1.390 . S
C1109 H1102 0.950 . S
C1109 C1106 1.387 . S
C1110 C1111 1.387 . S
C1110 H1114 0.950 . S
C1110 C1119 1.390 . S
C1111 C1110 1.387 . S
C1111 C1113 1.387 1_556 S
H1112 C1119 0.950 . S
C1113 C1111 1.387 1_554 S
C1113 C1115 1.390 . S
C1113 H1117 0.950 . S
H1114 C1110 0.950 . S
C1115 C1113 1.390 . S
C1115 C1116 1.387 . S
C1115 H1118 0.950 . S
C1116 C1115 1.387 . S
C1116 C1119 1.387 1_554 S
H1117 C1113 0.950 . S
H1118 C1115 0.950 . S
C1119 C1110 1.390 . S
C1119 H1112 0.950 . S
C1119 C1116 1.387 1_556 S
C1120 C1121 1.387 . S
C1120 H1124 0.950 . S
C1120 C1129 1.390 . S
C1121 C1120 1.387 . S
C1121 C1123 1.387 . S
H1122 C1129 0.950 . S
C1123 C1121 1.387 . S
C1123 C1125 1.390 . S
C1123 H1127 0.950 . S
H1124 C1120 0.950 . S
C1125 C1123 1.390 . S
C1125 C1126 1.387 . S
C1125 H1128 0.950 . S
C1126 C1125 1.387 . S
C1126 C1129 1.387 . S
H1127 C1123 0.950 . S
H1128 C1125 0.950 . S
C1129 C1120 1.390 . S
C1129 H1122 0.950 . S
C1129 C1126 1.387 . S
C1130 C1131 1.387 . S
C1130 H1134 0.950 . S
C1130 C1139 1.390 . S
C1131 C1130 1.387 . S
C1131 C1133 1.387 . S
H1132 C1139 0.950 . S
C1133 C1131 1.387 . S
C1133 C1135 1.390 . S
C1133 H1137 0.950 . S
H1134 C1130 0.950 . S
C1135 C1133 1.390 . S
C1135 C1136 1.387 . S
C1135 H1138 0.950 . S
C1136 C1135 1.387 . S
C1136 C1139 1.387 . S
H1137 C1133 0.950 . S
H1138 C1135 0.950 . S
C1139 C1130 1.390 . S
C1139 H1132 0.950 . S
C1139 C1136 1.387 . S
C1140 C1141 1.387 . S
C1140 H1144 0.950 . S
C1140 C1149 1.390 . S
C1141 C1140 1.387 . S
C1141 C1143 1.387 . S
H1142 C1149 0.950 . S
C1143 C1141 1.387 . S
C1143 C1145 1.390 . S
C1143 H1147 0.950 . S
H1144 C1140 0.950 . S
C1145 C1143 1.390 . S
C1145 C1146 1.387 . S
C1145 H1148 0.950 . S
C1146 C1145 1.387 . S
C1146 C1149 1.387 . S
H1147 C1143 0.950 . S
H1148 C1145 0.950 . S
C1149 C1140 1.390 . S
C1149 H1142 0.950 . S
C1149 C1146 1.387 . S
C1150 C1151 1.387 1_554 S
C1150 H1154 0.950 . S
C1150 C1159 1.390 . S
C1151 C1150 1.387 1_556 S
C1151 C1153 1.387 . S
H1152 C1159 0.950 . S
C1153 C1151 1.387 . S
C1153 C1155 1.390 . S
C1153 H1157 0.950 . S
H1154 C1150 0.950 . S
C1155 C1153 1.390 . S
C1155 C1156 1.387 1_556 S
C1155 H1158 0.950 . S
C1156 C1155 1.387 1_554 S
C1156 C1159 1.387 . S
H1157 C1153 0.950 . S
H1158 C1155 0.950 . S
C1159 C1150 1.390 . S
C1159 H1152 0.950 . S
C1159 C1156 1.387 . S
C1160 C1161 1.387 . S
C1160 H1164 0.950 . S
C1160 C1169 1.390 . S
C1161 C1160 1.387 . S
C1161 C1163 1.387 . S
H1162 C1169 0.950 . S
C1163 C1161 1.387 . S
C1163 C1165 1.390 . S
C1163 H1167 0.950 . S
H1164 C1160 0.950 . S
C1165 C1163 1.390 . S
C1165 C1166 1.387 . S
C1165 H1168 0.950 . S
C1166 C1165 1.387 . S
C1166 C1169 1.387 . S
H1167 C1163 0.950 . S
H1168 C1165 0.950 . S
C1169 C1160 1.390 . S
C1169 H1162 0.950 . S
C1169 C1166 1.387 . S
C1170 C1171 1.387 . S
C1170 H1174 0.950 . S
C1170 C1179 1.390 . S
C1171 C1170 1.387 . S
C1171 C1173 1.387 . S
H1172 C1179 0.950 . S
C1173 C1171 1.387 . S
C1173 C1175 1.390 . S
C1173 H1177 0.950 . S
H1174 C1170 0.950 . S
C1175 C1173 1.390 . S
C1175 C1176 1.387 . S
C1175 H1178 0.950 . S
C1176 C1175 1.387 . S
C1176 C1179 1.387 . S
H1177 C1173 0.950 . S
H1178 C1175 0.950 . S
C1179 C1170 1.390 . S
C1179 H1172 0.950 . S
C1179 C1176 1.387 . S
C1180 C1181 1.387 . S
C1180 H1184 0.950 . S
C1180 C1189 1.390 . S
C1181 C1180 1.387 . S
C1181 C1183 1.387 1_455 S
H1182 C1189 0.950 . S
C1183 C1181 1.387 1_655 S
C1183 C1185 1.390 . S
C1183 H1187 0.950 . S
H1184 C1180 0.950 . S
C1185 C1183 1.390 . S
C1185 C1186 1.387 . S
C1185 H1188 0.950 . S
C1186 C1185 1.387 . S
C1186 C1189 1.387 1_655 S
H1187 C1183 0.950 . S
H1188 C1185 0.950 . S
C1189 C1180 1.390 . S
C1189 H1182 0.950 . S
C1189 C1186 1.387 1_455 S
C1190 C1191 1.387 . S
C1190 H1194 0.950 . S
C1190 C1199 1.390 1_655 S
C1191 C1190 1.387 . S
C1191 C1193 1.387 . S
H1192 C1199 0.950 . S
C1193 C1191 1.387 . S
C1193 C1195 1.390 1_655 S
C1193 H1197 0.950 . S
H1194 C1190 0.950 . S
C1195 C1193 1.390 1_455 S
C1195 C1196 1.387 . S
C1195 H1198 0.950 . S
C1196 C1195 1.387 . S
C1196 C1199 1.387 . S
H1197 C1193 0.950 . S
H1198 C1195 0.950 . S
C1199 C1190 1.390 1_455 S
C1199 H1192 0.950 . S
C1199 C1196 1.387 . S
C1200 C1201 1.387 . S
C1200 H1204 0.929 1_545 S
C1200 C1209 1.390 . S
C1201 C1200 1.387 . S
C1201 C1203 1.387 . S
H1202 C1209 0.950 . S
C1203 C1201 1.387 . S
C1203 C1205 1.390 . S
C1203 H1207 0.950 1_554 S
H1204 C1200 0.929 1_565 S
C1205 C1203 1.390 . S
C1205 C1206 1.387 . S
C1205 H1208 0.950 . S
C1206 C1205 1.387 . S
C1206 C1209 1.387 . S
H1207 C1203 0.950 1_556 S
H1208 C1205 0.950 . S
C1209 C1200 1.390 . S
C1209 H1202 0.950 . S
C1209 C1206 1.387 . S
C1210 C1211 1.387 . S
C1210 H1214 0.950 . S
C1210 C1219 1.390 . S
C1211 C1210 1.387 . S
C1211 C1213 1.387 . S
H1212 C1219 0.950 . S
C1213 C1211 1.387 . S
C1213 C1215 1.390 . S
C1213 H1217 0.950 . S
H1214 C1210 0.950 . S
C1215 C1213 1.390 . S
C1215 C1216 1.387 . S
C1215 H1218 0.950 . S
C1216 C1215 1.387 . S
C1216 C1219 1.387 . S
H1217 C1213 0.950 . S
H1218 C1215 0.950 . S
C1219 C1210 1.390 . S
C1219 H1212 0.950 . S
C1219 C1216 1.387 . S
C1220 C1221 1.387 . S
C1220 H1224 0.950 . S
C1220 C1229 1.390 . S
C1221 C1220 1.387 . S
C1221 C1223 1.387 . S
H1222 C1229 0.950 . S
C1223 C1221 1.387 . S
C1223 C1225 1.390 . S
C1223 H1227 0.950 . S
H1224 C1220 0.950 . S
C1225 C1223 1.390 . S
C1225 C1226 1.397 . S
C1225 H1228 0.950 1_545 S
C1226 C1225 1.397 . S
C1226 C1229 1.408 . S
H1227 C1223 0.950 . S
H1228 C1225 0.950 1_565 S
C1229 C1220 1.390 . S
C1229 H1222 0.950 . S
C1229 C1226 1.408 . S
C1230 C1231 1.387 . S
C1230 H1234 0.950 . S
C1230 C1239 1.390 . S
C1231 C1230 1.387 . S
C1231 C1233 1.387 . S
H1232 C1239 0.950 . S
C1233 C1231 1.387 . S
C1233 C1235 1.390 . S
C1233 H1237 0.950 . S
H1234 C1230 0.950 . S
C1235 C1233 1.390 . S
C1235 C1236 1.387 . S
C1235 H1238 0.950 . S
C1236 C1235 1.387 . S
C1236 C1239 1.387 . S
H1237 C1233 0.950 . S
H1238 C1235 0.950 . S
C1239 C1230 1.390 . S
C1239 H1232 0.950 . S
C1239 C1236 1.387 . S
C1240 C1241 1.387 . S
C1240 H1244 0.950 . S
C1240 C1249 1.390 . S
C1241 C1240 1.387 . S
C1241 C1243 1.387 . S
H1242 C1249 0.950 . S
C1243 C1241 1.387 . S
C1243 C1245 1.390 . S
C1243 H1247 0.961 . S
H1244 C1240 0.950 . S
C1245 C1243 1.390 . S
C1245 C1246 1.387 . S
C1245 H1248 0.950 . S
C1246 C1245 1.387 . S
C1246 C1249 1.387 . S
H1247 C1243 0.961 . S
H1248 C1245 0.950 . S
C1249 C1240 1.390 . S
C1249 H1242 0.950 . S
C1249 C1246 1.387 . S
C1250 C1251 1.387 . S
C1250 H1254 0.950 . S
C1250 C1259 1.390 . S
C1251 C1250 1.387 . S
C1251 C1253 1.387 . S
H1252 C1259 0.950 . S
C1253 C1251 1.387 . S
C1253 C1255 1.390 . S
C1253 H1257 0.950 . S
H1254 C1250 0.950 . S
C1255 C1253 1.390 . S
C1255 C1256 1.387 . S
C1255 H1258 0.950 . S
C1256 C1255 1.387 . S
C1256 C1259 1.387 . S
H1257 C1253 0.950 . S
H1258 C1255 0.950 . S
C1259 C1250 1.390 . S
C1259 H1252 0.950 . S
C1259 C1256 1.387 . S
C1260 C1261 1.387 1_545 S
C1260 H1264 0.950 1_556 S
C1260 C1269 1.390 . S
C1261 C1260 1.387 1_565 S
C1261 C1263 1.387 . S
H1262 C1269 0.950 . S
C1263 C1261 1.387 . S
C1263 C1265 1.390 1_565 S
C1263 H1267 0.950 . S
H1264 C1260 0.950 1_554 S
C1265 C1263 1.390 1_545 S
C1265 C1266 1.387 . S
C1265 H1268 0.950 . S
C1266 C1265 1.387 . S
C1266 C1269 1.387 . S
H1267 C1263 0.950 . S
H1268 C1265 0.950 . S
C1269 C1260 1.390 . S
C1269 H1262 0.950 . S
C1269 C1266 1.387 . S
C1270 C1271 1.387 . S
C1270 H1274 0.950 . S
C1270 C1279 1.390 . S
C1271 C1270 1.387 . S
C1271 C1273 1.387 . S
H1272 C1279 0.950 . S
C1273 C1271 1.387 . S
C1273 C1275 1.390 . S
C1273 H1277 0.950 . S
H1274 C1270 0.950 . S
C1275 C1273 1.390 . S
C1275 C1276 1.387 . S
C1275 H1278 0.950 . S
C1276 C1275 1.387 . S
C1276 C1279 1.387 . S
H1277 C1273 0.950 . S
H1278 C1275 0.950 . S
C1279 C1270 1.390 . S
C1279 H1272 0.950 . S
C1279 C1276 1.387 . S
C1280 C1281 1.387 . S
C1280 H1284 0.950 . S
C1280 C1289 1.390 . S
C1281 C1280 1.387 . S
C1281 C1283 1.387 . S
H1282 C1289 0.950 . S
C1283 C1281 1.387 . S
C1283 C1285 1.390 . S
C1283 H1287 0.950 . S
H1284 C1280 0.950 . S
C1285 C1283 1.390 . S
C1285 C1286 1.387 . S
C1285 H1288 0.950 . S
C1286 C1285 1.387 . S
C1286 C1289 1.387 . S
H1287 C1283 0.950 . S
H1288 C1285 0.950 . S
C1289 C1280 1.390 . S
C1289 H1282 0.950 . S
C1289 C1286 1.387 . S
C1290 C1291 1.387 . S
C1290 H1294 0.950 . S
C1290 C1299 1.390 . S
C1291 C1290 1.387 . S
C1291 C1293 1.387 . S
H1292 C1299 0.950 . S
C1293 C1291 1.387 . S
C1293 C1295 1.390 . S
C1293 H1297 0.950 . S
H1294 C1290 0.950 . S
C1295 C1293 1.390 . S
C1295 C1296 1.387 . S
C1295 H1298 0.950 . S
C1296 C1295 1.387 . S
C1296 C1299 1.387 . S
H1297 C1293 0.950 . S
H1298 C1295 0.950 . S
C1299 C1290 1.390 . S
C1299 H1292 0.950 . S
C1299 C1296 1.387 . S
C1300 C1301 1.387 . S
C1300 H1304 0.950 . S
C1300 C1309 1.390 . S
C1301 C1300 1.387 . S
C1301 C1303 1.387 . S
H1302 C1309 0.950 . S
C1303 C1301 1.387 . S
C1303 C1305 1.390 . S
C1303 H1307 0.950 . S
H1304 C1300 0.950 . S
C1305 C1303 1.390 . S
C1305 C1306 1.387 . S
C1305 H1308 0.950 . S
C1306 C1305 1.387 . S
C1306 C1309 1.387 . S
H1307 C1303 0.950 . S
H1308 C1305 0.950 . S
C1309 C1300 1.390 . S
C1309 H1302 0.950 . S
C1309 C1306 1.387 . S
C1310 C1311 1.387 . S
C1310 H1314 0.950 1_556 S
C1310 C1319 1.390 . S
C1311 C1310 1.387 . S
C1311 C1313 1.387 . S
H1312 C1319 0.950 . S
C1313 C1311 1.387 . S
C1313 C1315 1.390 . S
C1313 H1317 0.950 . S
H1314 C1310 0.950 1_554 S
C1315 C1313 1.390 . S
C1315 C1316 1.387 . S
C1315 H1318 0.950 . S
C1316 C1315 1.387 . S
C1316 C1319 1.387 . S
H1317 C1313 0.950 . S
H1318 C1315 0.950 . S
C1319 C1310 1.390 . S
C1319 H1312 0.950 . S
C1319 C1316 1.387 . S
C961 C21 2.056 . S
C966 C101 1.998 . S
C971 C61 0.859 . S
C976 C141 0.912 . S
C981 C181 2.013 . S
C986 C261 2.107 . S
C991 C221 0.847 . S
C996 C301 0.897 . S
C1001 C341 0.894 . S
C1006 C501 0.903 . S
C1011 C541 0.901 . S
C1016 C381 0.915 1_455 S
C1021 C421 0.867 . S
C1026 C581 0.857 . S
C1031 C621 2.311 . S
C1036 C461 2.312 . S
C1041 C781 0.899 . S
C1046 C661 0.899 . S
C1051 C861 2.276 . S
C1056 C701 2.584 . S
C1061 C741 1.970 . S
C1066 C901 2.029 . S
C1071 C821 1.987 . S
C1076 C941 2.054 . S
C1081 C895 2.227 . S
C1086 C15 2.176 . S
C1091 C655 2.045 . S
C1096 C55 1.866 . S
C1101 C95 2.208 . S
C1106 C935 2.149 . S
C1111 C122 2.517 . S
C1116 C842 2.152 . S
C1121 C722 2.125 . S
C1126 C162 2.177 . S
C1131 C215 1.835 . S
C1136 C775 2.021 . S
C1141 C255 2.161 . S
C1146 C815 2.217 . S
C1151 C695 2.248 . S
C1156 C282 2.509 . S
C1161 C535 2.030 . S
C1166 C322 1.954 . S
C1171 C362 1.962 . S
C1176 C562 1.925 . S
C1181 C415 2.441 . S
C1186 C602 2.145 . S
C1191 C482 2.527 . S
C1196 C442 2.160 . S
C1201 C295 2.184 1_545 S
C1206 C575 2.084 . S
C1211 C615 3.143 . S
C1216 C175 3.325 . S
C1221 C202 2.045 . S
C1226 C495 2.158 1_545 S
C1231 C522 1.783 . S
C1236 C242 1.869 . S
C1241 C402 2.200 1_545 S
C1246 C42 2.042 . S
C1251 C455 3.176 . S
C1256 C82 3.472 . S
C1261 C135 2.196 . S
C1266 C335 2.101 . S
C1271 C2 1.835 . S
C1276 C375 1.771 . S
C1281 C855 3.172 . S
C1286 C802 3.463 . S
C1291 C682 3.305 . S
C1296 C882 3.424 . S
C1301 C642 1.745 . S
C1306 C735 1.787 . S
C1311 C922 1.793 . S
C1316 C762 1.721 . S
