# Generated by pormake.
# Topology zfj, (5)-cn, num edge types: 1
# Building blocks:
#     Node 0, Type 0, BuildingBlock: XOMCOT_clean_sbu_0, # of connection points: 5
#     Node 1, Type 0, BuildingBlock: XOMCOT_clean_sbu_0, # of connection points: 5
#     Node 2, Type 0, BuildingBlock: XOMCOT_clean_sbu_0, # of connection points: 5
#     Node 3, Type 0, BuildingBlock: XOMCOT_clean_sbu_0, # of connection points: 5
#     Node 4, Type 0, BuildingBlock: XOMCOT_clean_sbu_0, # of connection points: 5
#     Node 5, Type 0, BuildingBlock: XOMCOT_clean_sbu_0, # of connection points: 5
#     Node 6, Type 0, BuildingBlock: XOMCOT_clean_sbu_0, # of connection points: 5
#     Node 7, Type 0, BuildingBlock: XOMCOT_clean_sbu_0, # of connection points: 5
#     Node 8, Type 0, BuildingBlock: XOMCOT_clean_sbu_0, # of connection points: 5
#     Node 9, Type 0, BuildingBlock: XOMCOT_clean_sbu_0, # of connection points: 5
#     Node 10, Type 0, BuildingBlock: XOMCOT_clean_sbu_0, # of connection points: 5
#     Node 11, Type 0, BuildingBlock: XOMCOT_clean_sbu_0, # of connection points: 5
#     Node 12, Type 0, BuildingBlock: XOMCOT_clean_sbu_0, # of connection points: 5
#     Node 13, Type 0, BuildingBlock: XOMCOT_clean_sbu_0, # of connection points: 5
#     Node 14, Type 0, BuildingBlock: XOMCOT_clean_sbu_0, # of connection points: 5
#     Node 15, Type 0, BuildingBlock: XOMCOT_clean_sbu_0, # of connection points: 5
#     Edge 16, Type (0, 0), BuildingBlock: ZUJKAS_clean_linker_0, # of connection points: 2
#     Edge 17, Type (0, 0), BuildingBlock: ZUJKAS_clean_linker_0, # of connection points: 2
#     Edge 18, Type (0, 0), BuildingBlock: ZUJKAS_clean_linker_0, # of connection points: 2
#     Edge 19, Type (0, 0), BuildingBlock: ZUJKAS_clean_linker_0, # of connection points: 2
#     Edge 20, Type (0, 0), BuildingBlock: ZUJKAS_clean_linker_0, # of connection points: 2
#     Edge 21, Type (0, 0), BuildingBlock: ZUJKAS_clean_linker_0, # of connection points: 2
#     Edge 22, Type (0, 0), BuildingBlock: ZUJKAS_clean_linker_0, # of connection points: 2
#     Edge 23, Type (0, 0), BuildingBlock: ZUJKAS_clean_linker_0, # of connection points: 2
#     Edge 24, Type (0, 0), BuildingBlock: ZUJKAS_clean_linker_0, # of connection points: 2
#     Edge 25, Type (0, 0), BuildingBlock: ZUJKAS_clean_linker_0, # of connection points: 2
#     Edge 26, Type (0, 0), BuildingBlock: ZUJKAS_clean_linker_0, # of connection points: 2
#     Edge 27, Type (0, 0), BuildingBlock: ZUJKAS_clean_linker_0, # of connection points: 2
#     Edge 28, Type (0, 0), BuildingBlock: ZUJKAS_clean_linker_0, # of connection points: 2
#     Edge 29, Type (0, 0), BuildingBlock: ZUJKAS_clean_linker_0, # of connection points: 2
#     Edge 30, Type (0, 0), BuildingBlock: ZUJKAS_clean_linker_0, # of connection points: 2
#     Edge 31, Type (0, 0), BuildingBlock: ZUJKAS_clean_linker_0, # of connection points: 2
#     Edge 32, Type (0, 0), BuildingBlock: ZUJKAS_clean_linker_0, # of connection points: 2
#     Edge 33, Type (0, 0), BuildingBlock: ZUJKAS_clean_linker_0, # of connection points: 2
#     Edge 34, Type (0, 0), BuildingBlock: ZUJKAS_clean_linker_0, # of connection points: 2
#     Edge 35, Type (0, 0), BuildingBlock: ZUJKAS_clean_linker_0, # of connection points: 2
#     Edge 36, Type (0, 0), BuildingBlock: ZUJKAS_clean_linker_0, # of connection points: 2
#     Edge 37, Type (0, 0), BuildingBlock: ZUJKAS_clean_linker_0, # of connection points: 2
#     Edge 38, Type (0, 0), BuildingBlock: ZUJKAS_clean_linker_0, # of connection points: 2
#     Edge 39, Type (0, 0), BuildingBlock: ZUJKAS_clean_linker_0, # of connection points: 2
#     Edge 40, Type (0, 0), BuildingBlock: ZUJKAS_clean_linker_0, # of connection points: 2
#     Edge 41, Type (0, 0), BuildingBlock: ZUJKAS_clean_linker_0, # of connection points: 2
#     Edge 42, Type (0, 0), BuildingBlock: ZUJKAS_clean_linker_0, # of connection points: 2
#     Edge 43, Type (0, 0), BuildingBlock: ZUJKAS_clean_linker_0, # of connection points: 2
#     Edge 44, Type (0, 0), BuildingBlock: ZUJKAS_clean_linker_0, # of connection points: 2
#     Edge 45, Type (0, 0), BuildingBlock: ZUJKAS_clean_linker_0, # of connection points: 2
#     Edge 46, Type (0, 0), BuildingBlock: ZUJKAS_clean_linker_0, # of connection points: 2
#     Edge 47, Type (0, 0), BuildingBlock: ZUJKAS_clean_linker_0, # of connection points: 2
#     Edge 48, Type (0, 0), BuildingBlock: ZUJKAS_clean_linker_0, # of connection points: 2
#     Edge 49, Type (0, 0), BuildingBlock: ZUJKAS_clean_linker_0, # of connection points: 2
#     Edge 50, Type (0, 0), BuildingBlock: ZUJKAS_clean_linker_0, # of connection points: 2
#     Edge 51, Type (0, 0), BuildingBlock: ZUJKAS_clean_linker_0, # of connection points: 2
#     Edge 52, Type (0, 0), BuildingBlock: ZUJKAS_clean_linker_0, # of connection points: 2
#     Edge 53, Type (0, 0), BuildingBlock: ZUJKAS_clean_linker_0, # of connection points: 2
#     Edge 54, Type (0, 0), BuildingBlock: ZUJKAS_clean_linker_0, # of connection points: 2
#     Edge 55, Type (0, 0), BuildingBlock: ZUJKAS_clean_linker_0, # of connection points: 2
# Relax obj value: 0.188
# Max RMSD: 0.168
# Mean RMSD: 0.168
data_MOF--net-zfj--node1-XOMCOT_clean_sbu_0--edge1-ZUJKAS_clean_linker_0
_symmetry_space_group_name_H-M    P1
_symmetry_Int_Tables_number       1
_symmetry_cell_setting            triclinic
loop_
_symmetry_equiv_pos_as_xyz
'x, y, z'
_cell_length_a     44.116347
_cell_length_b     44.141847
_cell_length_c     63.830836
_cell_angle_alpha  89.914584
_cell_angle_beta   89.986408
_cell_angle_gamma 89.950348
loop_
_atom_site_label
_atom_site_type_symbol
_atom_site_fract_x
_atom_site_fract_y
_atom_site_fract_z
_atom_type_partial_charge
Co0 Co 0.50534 0.22912 0.14109 0.0
C1 C 0.50184 0.29541 0.14695 0.0
C2 C 0.46374 0.27274 0.16083 0.0
C3 C 0.46006 0.30352 0.16331 0.0
N4 N 0.48998 0.26773 0.15066 0.0
N5 N 0.48398 0.3178 0.15451 0.0
H6 H 0.52293 0.29898 0.13865 0.0
H7 H 0.44793 0.25532 0.16557 0.0
C8 C 0.49681 0.19115 0.17967 0.0
O9 O 0.52576 0.18418 0.17909 0.0
N10 N 0.52001 0.18988 0.13073 0.0
C11 C 0.53913 0.18516 0.1145 0.0
C12 C 0.542 0.1546 0.111 0.0
C13 C 0.51024 0.16174 0.13595 0.0
N14 N 0.52395 0.13983 0.12459 0.0
C15 C 0.56962 0.2339 0.14664 0.0
C16 C 0.56879 0.2496 0.18855 0.0
C17 C 0.59663 0.24405 0.17872 0.0
C18 C 0.59685 0.23696 0.15738 0.0
C19 C 0.54188 0.24588 0.17718 0.0
N20 N 0.54255 0.23633 0.15678 0.0
H21 H 0.57049 0.2299 0.13008 0.0
H22 H 0.52046 0.24978 0.18496 0.0
H23 H 0.54971 0.20261 0.10515 0.0
H24 H 0.49242 0.15715 0.14707 0.0
O25 O 0.5169 0.24794 0.1151 0.0
O26 O 0.47226 0.22653 0.12131 0.0
O27 O 0.48525 0.20849 0.16572 0.0
C28 C 0.49008 0.24071 0.10829 0.0
H29 H 0.44062 0.31453 0.17031 0.0
H30 H 0.55635 0.14413 0.09931 0.0
H31 H 0.56781 0.25594 0.20492 0.0
H32 H 0.618 0.23404 0.14898 0.0
Co33 Co 0.27718 0.50399 0.63934 0.0
C34 C 0.20996 0.49409 0.64423 0.0
C35 C 0.23578 0.45297 0.64491 0.0
C36 C 0.20551 0.44568 0.64584 0.0
N37 N 0.23874 0.48335 0.64413 0.0
N38 N 0.18925 0.47155 0.64536 0.0
H39 H 0.20388 0.51758 0.64252 0.0
H40 H 0.25447 0.43711 0.64438 0.0
C41 C 0.28557 0.47082 0.67988 0.0
O42 O 0.25778 0.4781 0.68532 0.0
N43 N 0.31551 0.52381 0.63412 0.0
C44 C 0.31942 0.55142 0.62553 0.0
C45 C 0.35003 0.55707 0.62392 0.0
C46 C 0.3437 0.51303 0.63771 0.0
N47 N 0.36522 0.53296 0.63162 0.0
C48 C 0.24652 0.55852 0.65062 0.0
C49 C 0.27946 0.57062 0.68642 0.0
C50 C 0.25899 0.5925 0.67905 0.0
C51 C 0.24214 0.58587 0.66102 0.0
C52 C 0.28332 0.54352 0.67541 0.0
N53 N 0.26656 0.53741 0.65788 0.0
H54 H 0.23508 0.55535 0.63588 0.0
H55 H 0.3013 0.52859 0.68034 0.0
H56 H 0.30127 0.56639 0.62075 0.0
H57 H 0.34842 0.4909 0.64424 0.0
O58 O 0.26156 0.52008 0.61343 0.0
O59 O 0.28548 0.47616 0.61665 0.0
O60 O 0.29664 0.48001 0.66253 0.0
C61 C 0.27204 0.49577 0.60455 0.0
H62 H 0.19623 0.42302 0.6466 0.0
H63 H 0.36033 0.5775 0.61781 0.0
H64 H 0.29332 0.57483 0.7001 0.0
H65 H 0.22703 0.60243 0.65411 0.0
Co66 Co 0.99765 0.2733 0.14524 0.0
C67 C 0.00628 0.20598 0.14988 0.0
C68 C 0.04781 0.23103 0.15122 0.0
C69 C 0.05458 0.20067 0.15207 0.0
N70 N 0.01751 0.23453 0.15015 0.0
N71 N 0.02847 0.18481 0.1512 0.0
H72 H 0.98261 0.20058 0.14825 0.0
H73 H 0.064 0.24941 0.15079 0.0
C74 C 0.03043 0.28078 0.18609 0.0
O75 O 0.02341 0.2529 0.19141 0.0
N76 N 0.97863 0.312 0.13991 0.0
C77 C 0.95075 0.31649 0.13197 0.0
C78 C 0.94541 0.34718 0.13087 0.0
C79 C 0.99 0.33992 0.14343 0.0
N80 N 0.97005 0.36198 0.13815 0.0
C81 C 0.94172 0.24406 0.15554 0.0
C82 C 0.93048 0.27544 0.19213 0.0
C83 C 0.90777 0.25641 0.1842 0.0
C84 C 0.91399 0.24031 0.16574 0.0
C85 C 0.95769 0.27902 0.18119 0.0
N86 N 0.9634 0.26303 0.16327 0.0
H87 H 0.94487 0.233 0.14064 0.0
H88 H 0.97307 0.29622 0.18661 0.0
H89 H 0.93534 0.29868 0.12733 0.0
H90 H 0.01223 0.34393 0.14999 0.0
O91 O 0.98256 0.2583 0.1188 0.0
O92 O 0.02664 0.28144 0.12331 0.0
O93 O 0.0211 0.2921 0.16885 0.0
C94 C 0.00765 0.26835 0.11065 0.0
H95 H 0.07716 0.19109 0.15236 0.0
H96 H 0.92497 0.35766 0.12493 0.0
H97 H 0.92695 0.28852 0.20625 0.0
H98 H 0.89697 0.22622 0.1584 0.0
Co99 Co 0.23148 1.00003 0.64225 0.0
C100 C 0.2988 0.00739 0.64549 0.0
C101 C 0.27487 0.04457 0.65916 0.0
C102 C 0.30544 0.05055 0.66018 0.0
N103 N 0.27057 0.01698 0.65059 0.0
N104 N 0.32054 0.02711 0.65157 0.0
H105 H 0.3035 0.98734 0.63649 0.0
H106 H 0.25704 0.06019 0.66341 0.0
C107 C 0.2172 0.02498 0.68486 0.0
O108 O 0.24093 0.01079 0.69256 0.0
N109 N 0.19265 0.98409 0.63354 0.0
C110 C 0.18769 0.9575 0.62385 0.0
C111 C 0.15692 0.95382 0.62124 0.0
C112 C 0.16494 0.9963 0.63667 0.0
N113 N 0.14261 0.97818 0.62936 0.0
C114 C 0.26034 0.94464 0.65508 0.0
C115 C 0.21737 0.92771 0.68433 0.0
C116 C 0.24189 0.90834 0.68044 0.0
C117 C 0.26361 0.9172 0.66568 0.0
C118 C 0.21527 0.95531 0.67361 0.0
N119 N 0.23708 0.96395 0.65956 0.0
H120 H 0.27553 0.94924 0.64236 0.0
H121 H 0.19537 0.96914 0.67602 0.0
H122 H 0.2052 0.94157 0.61944 0.0
H123 H 0.16119 0.01791 0.6442 0.0
O124 O 0.24932 0.98565 0.61651 0.0
O125 O 0.22855 0.03099 0.621 0.0
O126 O 0.2106 0.02264 0.66547 0.0
C127 C 0.24208 0.01188 0.6086 0.0
H128 H 0.3156 0.0713 0.6658 0.0
H129 H 0.14592 0.93421 0.61451 0.0
H130 H 0.19962 0.92127 0.69519 0.0
H131 H 0.28205 0.9022 0.66142 0.0
Co132 Co 0.50429 0.28291 0.8554 0.0
C133 C 0.49796 0.21532 0.85036 0.0
C134 C 0.45686 0.23962 0.84431 0.0
C135 C 0.45097 0.20913 0.84269 0.0
N136 N 0.48647 0.24369 0.84871 0.0
N137 N 0.47683 0.19381 0.84654 0.0
H138 H 0.52087 0.21013 0.85479 0.0
H139 H 0.44039 0.25768 0.84295 0.0
C140 C 0.47802 0.29111 0.81257 0.0
O141 O 0.48883 0.26448 0.80721 0.0
N142 N 0.52088 0.32211 0.86235 0.0
C143 C 0.54793 0.32784 0.87124 0.0
C144 C 0.55147 0.35878 0.87278 0.0
C145 C 0.50826 0.34945 0.85869 0.0
N146 N 0.52654 0.37236 0.86483 0.0
C147 C 0.56114 0.25422 0.84675 0.0
C148 C 0.57742 0.29039 0.81324 0.0
C149 C 0.59789 0.2685 0.82049 0.0
C150 C 0.58935 0.25014 0.83735 0.0
C151 C 0.54905 0.2933 0.82286 0.0
N152 N 0.54081 0.27476 0.8391 0.0
H153 H 0.55657 0.24202 0.86102 0.0
H154 H 0.5346 0.3117 0.81796 0.0
H155 H 0.56415 0.31073 0.87592 0.0
H156 H 0.48611 0.35248 0.85173 0.0
O157 O 0.51741 0.2673 0.88212 0.0
O158 O 0.4728 0.28879 0.87608 0.0
O159 O 0.48286 0.30178 0.83084 0.0
C160 C 0.4912 0.27589 0.88931 0.0
H161 H 0.42902 0.19906 0.83981 0.0
H162 H 0.57128 0.37032 0.87876 0.0
H163 H 0.5836 0.30567 0.80066 0.0
H164 H 0.6051 0.23396 0.84407 0.0
Co165 Co 0.23389 0.50772 0.34788 0.0
C166 C 0.30113 0.49885 0.34346 0.0
C167 C 0.27571 0.45977 0.33438 0.0
C168 C 0.30602 0.45278 0.33331 0.0
N169 N 0.27243 0.48901 0.3401 0.0
N170 N 0.32209 0.47734 0.3391 0.0
H171 H 0.30673 0.52025 0.35054 0.0
H172 H 0.25729 0.44402 0.33202 0.0
C173 C 0.22002 0.47832 0.30694 0.0
O174 O 0.24502 0.49013 0.29929 0.0
N175 N 0.19564 0.52556 0.3562 0.0
C176 C 0.19191 0.55356 0.36414 0.0
C177 C 0.16139 0.55922 0.36616 0.0
C178 C 0.16737 0.51438 0.3537 0.0
N179 N 0.14595 0.53465 0.35951 0.0
C180 C 0.26206 0.56222 0.3324 0.0
C181 C 0.21626 0.57672 0.30457 0.0
C182 C 0.23926 0.59774 0.30827 0.0
C183 C 0.26279 0.59004 0.32194 0.0
C184 C 0.21674 0.54891 0.31497 0.0
N185 N 0.23943 0.54181 0.32878 0.0
H186 H 0.27825 0.55848 0.3447 0.0
H187 H 0.19739 0.53422 0.31314 0.0
H188 H 0.21015 0.56913 0.36761 0.0
H189 H 0.16254 0.49238 0.34705 0.0
O190 O 0.25255 0.52425 0.37269 0.0
O191 O 0.23071 0.47906 0.37053 0.0
O192 O 0.21222 0.4834 0.32587 0.0
C193 C 0.24477 0.49908 0.38189 0.0
H194 H 0.31535 0.43096 0.32908 0.0
H195 H 0.15135 0.57998 0.37192 0.0
H196 H 0.19723 0.58237 0.29456 0.0
H197 H 0.28027 0.60634 0.32578 0.0
Co198 Co 0.00811 0.23487 0.85496 0.0
C199 C 0.01699 0.302 0.85002 0.0
C200 C 0.05667 0.27647 0.84222 0.0
C201 C 0.0634 0.3068 0.84051 0.0
N202 N 0.02733 0.27329 0.84771 0.0
N203 N 0.03843 0.32293 0.84546 0.0
H204 H 0.99501 0.30778 0.8561 0.0
H205 H 0.07245 0.25796 0.84013 0.0
C206 C 0.0363 0.22205 0.81308 0.0
O207 O 0.02502 0.24749 0.80571 0.0
N208 N 0.98965 0.19656 0.86245 0.0
C209 C 0.96281 0.19288 0.87213 0.0
C210 C 0.95667 0.16237 0.87351 0.0
C211 C 0.99956 0.16827 0.85811 0.0
N212 N 0.9797 0.14682 0.8646 0.0
C213 C 0.95291 0.26452 0.84375 0.0
C214 C 0.93745 0.22703 0.81087 0.0
C215 C 0.91669 0.24923 0.81736 0.0
C216 C 0.92499 0.26824 0.83395 0.0
C217 C 0.96519 0.22393 0.82128 0.0
N218 N 0.97308 0.24308 0.83721 0.0
H219 H 0.95708 0.27749 0.8577 0.0
H220 H 0.97938 0.20491 0.81724 0.0
H221 H 0.94842 0.21114 0.87749 0.0
H222 H 0.02043 0.16353 0.84986 0.0
O223 O 0.9934 0.25241 0.88063 0.0
O224 O 0.03777 0.22941 0.87697 0.0
O225 O 0.03102 0.21395 0.83192 0.0
C226 C 0.01863 0.24343 0.8891 0.0
H227 H 0.0852 0.31612 0.8362 0.0
H228 H 0.93666 0.15253 0.88056 0.0
H229 H 0.93191 0.2114 0.79839 0.0
H230 H 0.90928 0.28465 0.84035 0.0
Co231 Co 0.27801 0.99766 0.35486 0.0
C232 C 0.21169 0.00579 0.35135 0.0
C233 C 0.23602 0.04401 0.33903 0.0
C234 C 0.20541 0.04982 0.3376 0.0
N235 N 0.23987 0.01643 0.34762 0.0
N236 N 0.1901 0.02582 0.3454 0.0
H237 H 0.2072 0.98426 0.35886 0.0
H238 H 0.25419 0.05908 0.33447 0.0
C239 C 0.31516 0.00603 0.31596 0.0
O240 O 0.32153 0.97693 0.31626 0.0
N241 N 0.31691 0.97952 0.36258 0.0
C242 C 0.32209 0.95551 0.37524 0.0
C243 C 0.35283 0.95209 0.37804 0.0
C244 C 0.34481 0.99114 0.3588 0.0
N245 N 0.36712 0.97441 0.36757 0.0
C246 C 0.26086 0.93577 0.34982 0.0
C247 C 0.24939 0.93741 0.30729 0.0
C248 C 0.24645 0.90989 0.31807 0.0
C249 C 0.25175 0.90948 0.33967 0.0
C250 C 0.25818 0.96348 0.31823 0.0
N251 N 0.26575 0.96197 0.33901 0.0
H252 H 0.26316 0.93504 0.36656 0.0
H253 H 0.25886 0.98484 0.30997 0.0
H254 H 0.30505 0.94203 0.38292 0.0
H255 H 0.34878 0.01208 0.35044 0.0
O256 O 0.26145 0.98639 0.38163 0.0
O257 O 0.28562 0.02941 0.37512 0.0
O258 O 0.29759 0.01748 0.32977 0.0
C259 C 0.27162 0.01211 0.38854 0.0
H260 H 0.19527 0.07025 0.33135 0.0
H261 H 0.36376 0.93455 0.38719 0.0
H262 H 0.24451 0.93885 0.29069 0.0
H263 H 0.24921 0.88886 0.34873 0.0
Co264 Co 0.49427 0.78172 0.84923 0.0
C265 C 0.50045 0.71535 0.84405 0.0
C266 C 0.53717 0.73949 0.82958 0.0
C267 C 0.54234 0.7089 0.82746 0.0
N268 N 0.51091 0.7435 0.83993 0.0
N269 N 0.51935 0.69366 0.83666 0.0
H270 H 0.48004 0.71095 0.85293 0.0
H271 H 0.55198 0.7575 0.82438 0.0
C272 C 0.50328 0.82038 0.81102 0.0
O273 O 0.47436 0.82748 0.8114 0.0
N274 N 0.47839 0.82065 0.85919 0.0
C275 C 0.45749 0.82518 0.87436 0.0
C276 C 0.4543 0.85571 0.87789 0.0
C277 C 0.4889 0.84881 0.85479 0.0
N278 N 0.47393 0.87064 0.86545 0.0
C279 C 0.43046 0.77401 0.84311 0.0
C280 C 0.43222 0.76279 0.80053 0.0
C281 C 0.4041 0.76709 0.81032 0.0
C282 C 0.40346 0.77149 0.83203 0.0
C283 C 0.45889 0.76563 0.81234 0.0
N284 N 0.45769 0.77353 0.83306 0.0
H285 H 0.42931 0.77625 0.85983 0.0
H286 H 0.48051 0.76271 0.80463 0.0
H287 H 0.4462 0.80766 0.88321 0.0
H288 H 0.5076 0.85339 0.84438 0.0
O289 O 0.48246 0.76295 0.87519 0.0
O290 O 0.52672 0.78533 0.8694 0.0
O291 O 0.51454 0.80269 0.82486 0.0
C292 C 0.50886 0.77103 0.88232 0.0
H293 H 0.56176 0.69875 0.81984 0.0
H294 H 0.43939 0.86601 0.88931 0.0
H295 H 0.43364 0.7583 0.78389 0.0
H296 H 0.38217 0.77307 0.84042 0.0
Co297 Co 0.73403 0.50002 0.35172 0.0
C298 C 0.80109 0.50941 0.34662 0.0
C299 C 0.77563 0.55069 0.3451 0.0
C300 C 0.80597 0.55765 0.34401 0.0
N301 N 0.77244 0.5204 0.34648 0.0
N302 N 0.82207 0.53168 0.345 0.0
H303 H 0.80676 0.48587 0.34837 0.0
H304 H 0.75709 0.56673 0.34552 0.0
C305 C 0.7251 0.5322 0.31084 0.0
O306 O 0.75241 0.52378 0.30503 0.0
N307 N 0.69566 0.4805 0.3573 0.0
C308 C 0.69157 0.45243 0.36504 0.0
C309 C 0.66092 0.44674 0.36616 0.0
C310 C 0.66755 0.49161 0.35393 0.0
N311 N 0.64576 0.47134 0.3591 0.0
C312 C 0.76443 0.4451 0.3409 0.0
C313 C 0.73318 0.43323 0.30436 0.0
C314 C 0.75387 0.41154 0.3118 0.0
C315 C 0.76963 0.41802 0.33034 0.0
C316 C 0.72829 0.45997 0.31566 0.0
N317 N 0.74449 0.46615 0.33343 0.0
H318 H 0.77544 0.44823 0.3558 0.0
H319 H 0.71024 0.47469 0.31058 0.0
H320 H 0.70962 0.43711 0.36945 0.0
H321 H 0.6632 0.51385 0.34749 0.0
O322 O 0.75008 0.48451 0.37768 0.0
O323 O 0.72608 0.52837 0.37419 0.0
O324 O 0.71441 0.52373 0.32848 0.0
C325 C 0.74001 0.50916 0.38632 0.0
H326 H 0.81535 0.58028 0.34345 0.0
H327 H 0.6507 0.42605 0.37188 0.0
H328 H 0.72003 0.42927 0.29032 0.0
H329 H 0.78471 0.40162 0.33746 0.0
Co330 Co 0.00698 0.73518 0.85132 0.0
C331 C 0.99709 0.80233 0.84726 0.0
C332 C 0.95651 0.77661 0.84272 0.0
C333 C 0.94932 0.80691 0.84174 0.0
N334 N 0.98659 0.77358 0.84579 0.0
N335 N 0.97486 0.82316 0.84466 0.0
H336 H 0.02001 0.80818 0.85126 0.0
H337 H 0.9407 0.75795 0.8417 0.0
C338 C 0.97656 0.7259 0.8098 0.0
O339 O 0.9844 0.75341 0.80408 0.0
N340 N 0.02664 0.6969 0.85724 0.0
C341 C 0.05452 0.69325 0.8654 0.0
C342 C 0.06086 0.66275 0.86644 0.0
C343 C 0.01626 0.66862 0.85354 0.0
N344 N 0.03686 0.6472 0.8589 0.0
C345 C 0.0619 0.76613 0.84118 0.0
C346 C 0.0763 0.73275 0.80598 0.0
C347 C 0.09744 0.75349 0.81378 0.0
C348 C 0.08971 0.7707 0.83137 0.0
C349 C 0.04866 0.72878 0.81636 0.0
N350 N 0.04142 0.74573 0.83359 0.0
H351 H 0.05796 0.77762 0.85579 0.0
H352 H 0.0343 0.71045 0.81131 0.0
H353 H 0.06934 0.71153 0.87009 0.0
H354 H 0.99436 0.66389 0.8467 0.0
O355 O 0.02155 0.751 0.87755 0.0
O356 O 0.9778 0.72714 0.87326 0.0
O357 O 0.98442 0.71542 0.82764 0.0
C358 C 0.99665 0.74073 0.88579 0.0
H359 H 0.92687 0.81614 0.83928 0.0
H360 H 0.0816 0.65289 0.87241 0.0
H361 H 0.08191 0.71823 0.79287 0.0
H362 H 0.10565 0.78658 0.83812 0.0
Co363 Co 0.77851 1.00368 0.35221 0.0
C364 C 0.71126 0.99645 0.34761 0.0
C365 C 0.73578 0.9586 0.33536 0.0
C366 C 0.70528 0.95262 0.33371 0.0
N367 N 0.73972 0.98657 0.34342 0.0
N368 N 0.68982 0.97645 0.34144 0.0
H369 H 0.70611 0.01695 0.35599 0.0
H370 H 0.75382 0.94283 0.33183 0.0
C371 C 0.79317 0.97865 0.3098 0.0
O372 O 0.76897 0.9921 0.30217 0.0
N373 N 0.81702 0.01993 0.36142 0.0
C374 C 0.82117 0.04651 0.37131 0.0
C375 C 0.85179 0.05126 0.37374 0.0
C376 C 0.84511 0.00873 0.35808 0.0
N377 N 0.86689 0.02759 0.36531 0.0
C378 C 0.75043 0.0596 0.33928 0.0
C379 C 0.7946 0.07591 0.3107 0.0
C380 C 0.77063 0.0959 0.31456 0.0
C381 C 0.7482 0.08737 0.3289 0.0
C382 C 0.79564 0.04809 0.32113 0.0
N383 N 0.77334 0.03981 0.33492 0.0
H384 H 0.73482 0.05513 0.35181 0.0
H385 H 0.81532 0.03392 0.31886 0.0
H386 H 0.80318 0.06173 0.37597 0.0
H387 H 0.84955 0.98777 0.3499 0.0
O388 O 0.76004 0.01768 0.37786 0.0
O389 O 0.78126 0.97254 0.37327 0.0
O390 O 0.79997 0.98139 0.32913 0.0
C391 C 0.7675 0.99144 0.38568 0.0
H392 H 0.69533 0.93164 0.3283 0.0
H393 H 0.86208 0.07082 0.38104 0.0
H394 H 0.81283 0.08208 0.30015 0.0
H395 H 0.73008 0.10283 0.33303 0.0
Co396 Co 0.50753 0.72849 0.13727 0.0
C397 C 0.51501 0.79574 0.14203 0.0
C398 C 0.55523 0.77114 0.14993 0.0
C399 C 0.56124 0.80163 0.15167 0.0
N400 N 0.52596 0.76728 0.14443 0.0
N401 N 0.5359 0.81709 0.14666 0.0
H402 H 0.49274 0.8011 0.13631 0.0
H403 H 0.57148 0.75301 0.1519 0.0
C404 C 0.53579 0.71676 0.17915 0.0
O405 O 0.52379 0.74208 0.1861 0.0
N406 N 0.48995 0.68985 0.1298 0.0
C407 C 0.46275 0.68554 0.12075 0.0
C408 C 0.45743 0.65488 0.11936 0.0
C409 C 0.50092 0.66184 0.13371 0.0
N410 N 0.48138 0.63994 0.1276 0.0
C411 C 0.4521 0.75743 0.1494 0.0
C412 C 0.43764 0.71831 0.1817 0.0
C413 C 0.41727 0.74143 0.17641 0.0
C414 C 0.42489 0.76124 0.16014 0.0
C415 C 0.46501 0.71568 0.17078 0.0
N416 N 0.47246 0.7357 0.15521 0.0
H417 H 0.45559 0.77066 0.13546 0.0
H418 H 0.47932 0.69644 0.17414 0.0
H419 H 0.44755 0.70346 0.1159 0.0
H420 H 0.52231 0.65759 0.14144 0.0
O421 O 0.49231 0.74575 0.11159 0.0
O422 O 0.53725 0.72382 0.11527 0.0
O423 O 0.53091 0.70812 0.16037 0.0
C424 C 0.51779 0.7374 0.10313 0.0
H425 H 0.58295 0.81161 0.15545 0.0
H426 H 0.43735 0.64449 0.11283 0.0
H427 H 0.43205 0.70187 0.19371 0.0
H428 H 0.40902 0.77834 0.1548 0.0
Co429 Co 0.77687 0.50218 0.64346 0.0
C430 C 0.70996 0.51238 0.64744 0.0
C431 C 0.73564 0.5531 0.65166 0.0
C432 C 0.70529 0.56016 0.653 0.0
N433 N 0.73868 0.52299 0.6487 0.0
N434 N 0.68921 0.53453 0.65026 0.0
H435 H 0.70402 0.48924 0.64407 0.0
H436 H 0.75428 0.56896 0.6524 0.0
C437 C 0.78637 0.53383 0.68454 0.0
O438 O 0.75869 0.52665 0.6903 0.0
N439 N 0.81496 0.4821 0.63788 0.0
C440 C 0.81875 0.4534 0.63134 0.0
C441 C 0.84933 0.44755 0.62985 0.0
C442 C 0.84319 0.49345 0.64015 0.0
N443 N 0.86479 0.47273 0.6354 0.0
C444 C 0.74574 0.4474 0.65334 0.0
C445 C 0.77437 0.4349 0.69079 0.0
C446 C 0.75412 0.41334 0.68262 0.0
C447 C 0.73984 0.42017 0.66354 0.0
C448 C 0.78039 0.46161 0.67965 0.0
N449 N 0.76546 0.46811 0.66141 0.0
H450 H 0.7355 0.45082 0.63821 0.0
H451 H 0.79822 0.47605 0.68535 0.0
H452 H 0.80056 0.43768 0.62812 0.0
H453 H 0.84772 0.51643 0.64507 0.0
O454 O 0.76076 0.48753 0.61737 0.0
O455 O 0.78542 0.53091 0.6212 0.0
O456 O 0.79691 0.5249 0.66698 0.0
C457 C 0.77111 0.51221 0.60895 0.0
H458 H 0.69575 0.58257 0.65501 0.0
H459 H 0.85929 0.42607 0.62547 0.0
H460 H 0.78633 0.43098 0.70533 0.0
H461 H 0.7253 0.40407 0.6557 0.0
Co462 Co 0.00926 0.77351 0.14188 0.0
C463 C 0.99935 0.70641 0.14667 0.0
C464 C 0.95944 0.73265 0.15262 0.0
C465 C 0.95207 0.70249 0.15415 0.0
N466 N 0.98925 0.73529 0.14836 0.0
N467 N 0.97716 0.6859 0.15034 0.0
H468 H 0.02184 0.70025 0.14175 0.0
H469 H 0.94386 0.75147 0.15404 0.0
C470 C 0.97992 0.78487 0.18356 0.0
O471 O 0.98958 0.75843 0.1903 0.0
N472 N 0.02824 0.81177 0.13515 0.0
C473 C 0.05662 0.81596 0.12798 0.0
C474 C 0.06207 0.84663 0.1266 0.0
C475 C 0.01665 0.83982 0.13781 0.0
N476 N 0.03695 0.86163 0.13284 0.0
C477 C 0.06418 0.74288 0.1528 0.0
C478 C 0.07904 0.7785 0.1868 0.0
C479 C 0.09996 0.75673 0.1799 0.0
C480 C 0.09194 0.73858 0.16277 0.0
C481 C 0.0515 0.7822 0.17625 0.0
N482 N 0.04395 0.76405 0.1597 0.0
H483 H 0.06011 0.73058 0.13853 0.0
H484 H 0.0373 0.80101 0.18068 0.0
H485 H 0.07244 0.79797 0.12439 0.0
H486 H 0.99414 0.84417 0.14381 0.0
O487 O 0.02383 0.75678 0.11589 0.0
O488 O 0.97979 0.7803 0.12 0.0
O489 O 0.98659 0.79402 0.16516 0.0
C490 C 0.99867 0.76643 0.10762 0.0
H491 H 0.92978 0.6936 0.15761 0.0
H492 H 0.08298 0.85704 0.12143 0.0
H493 H 0.08435 0.79343 0.19973 0.0
H494 H 0.10777 0.72247 0.15615 0.0
Co495 Co 0.7315 0.00765 0.63845 0.0
C496 C 0.79791 1.00378 0.6446 0.0
C497 C 0.77448 0.96751 0.66015 0.0
C498 C 0.80515 0.96381 0.66322 0.0
N499 N 0.76998 0.99263 0.64858 0.0
N500 N 0.81989 0.98656 0.6534 0.0
H501 H 0.802 0.02394 0.63536 0.0
H502 H 0.75678 0.95249 0.66557 0.0
C503 C 0.69167 1.00044 0.67625 0.0
O504 O 0.68386 0.02908 0.67458 0.0
N505 N 0.69232 0.02189 0.62778 0.0
C506 C 0.68714 0.0426 0.61257 0.0
C507 C 0.65648 0.04458 0.60889 0.0
C508 C 0.66456 0.01033 0.63206 0.0
N509 N 0.64225 0.02442 0.62131 0.0
C510 C 0.73963 0.07164 0.64177 0.0
C511 C 0.74738 0.07425 0.68468 0.0
C512 C 0.74428 0.10131 0.67332 0.0
C513 C 0.74177 0.09968 0.6515 0.0
C514 C 0.7452 0.04646 0.67417 0.0
N515 N 0.7388 0.04557 0.6532 0.0
H516 H 0.73879 0.07103 0.62497 0.0
H517 H 0.74748 0.02569 0.68302 0.0
H518 H 0.70426 0.05474 0.60392 0.0
H519 H 0.66062 0.99116 0.64223 0.0
O520 O 0.75025 0.01796 0.61224 0.0
O521 O 0.72872 0.97371 0.6194 0.0
O522 O 0.71055 0.98875 0.66337 0.0
C523 C 0.74266 0.99102 0.60594 0.0
H524 H 0.81579 0.94516 0.67144 0.0
H525 H 0.64558 0.05977 0.5979 0.0
H526 H 0.75046 0.07451 0.70151 0.0
H527 H 0.74131 0.11999 0.64196 0.0
H528 H 0.52143 0.27359 0.07956 0.0
H529 H 0.50934 0.28102 0.04267 0.0
H530 H 0.42681 0.22991 0.05044 0.0
H531 H 0.43896 0.22206 0.0876 0.0
H532 H 0.46184 0.21034 0.01718 0.0
H533 H 0.44724 0.33456 0.01325 0.0
H534 H 0.48177 0.32431 0.0263 0.0
H535 H 0.44591 0.3138 0.03765 0.0
C536 C 0.50049 0.26424 0.07353 0.0
C537 C 0.48115 0.24721 0.08646 0.0
C538 C 0.49348 0.26874 0.05246 0.0
C539 C 0.46693 0.25646 0.0439 0.0
C540 C 0.44726 0.23982 0.05683 0.0
H541 H 0.43994 0.29488 0.90968 0.0
H542 H 0.42777 0.28848 0.94695 0.0
C543 C 0.45422 0.23538 0.07801 0.0
C544 C 0.46153 0.25882 0.02107 0.0
H545 H 0.46137 0.30977 0.98083 0.0
C546 C 0.46107 0.23207 0.00923 0.0
C547 C 0.46003 0.28715 0.01074 0.0
C548 C 0.45843 0.31657 0.02268 0.0
C549 C 0.46139 0.23295 0.98727 0.0
C550 C 0.46266 0.26131 0.97697 0.0
C551 C 0.46084 0.28804 0.98877 0.0
C552 C 0.46879 0.26373 0.95423 0.0
C553 C 0.46121 0.20351 0.9753 0.0
C554 C 0.49598 0.25219 0.94609 0.0
C555 C 0.50302 0.25589 0.92495 0.0
C556 C 0.48306 0.27135 0.91153 0.0
C557 C 0.45572 0.28279 0.91965 0.0
C558 C 0.44873 0.27915 0.94089 0.0
H559 H 0.45041 0.18511 0.98455 0.0
H560 H 0.44904 0.20589 0.96016 0.0
H561 H 0.48492 0.1966 0.97198 0.0
H562 H 0.51211 0.24084 0.95622 0.0
H563 H 0.52429 0.24689 0.91918 0.0
H564 H 0.23101 0.44884 0.40502 0.0
H565 H 0.23761 0.44185 0.44281 0.0
H566 H 0.27759 0.53073 0.44733 0.0
H567 H 0.27147 0.53777 0.40956 0.0
H568 H 0.30825 0.48543 0.47071 0.0
H569 H 0.18403 0.48625 0.48587 0.0
H570 H 0.19704 0.45878 0.46715 0.0
H571 H 0.20012 0.49846 0.46128 0.0
C572 C 0.24139 0.46682 0.41405 0.0
C573 C 0.2505 0.49397 0.40438 0.0
C574 C 0.24503 0.46282 0.43562 0.0
C575 C 0.25767 0.48596 0.44785 0.0
C576 C 0.2677 0.51265 0.43813 0.0
H577 H 0.24458 0.53312 0.57648 0.0
H578 H 0.24176 0.52723 0.53854 0.0
C579 C 0.26412 0.51666 0.41657 0.0
C580 C 0.25953 0.48298 0.47088 0.0
H581 H 0.21603 0.47967 0.51504 0.0
C582 C 0.28815 0.4839 0.48044 0.0
C583 C 0.23318 0.48127 0.48345 0.0
C584 C 0.2018 0.48136 0.47401 0.0
C585 C 0.29112 0.48368 0.50233 0.0
C586 C 0.26475 0.48212 0.51488 0.0
C587 C 0.23617 0.48062 0.50531 0.0
C588 C 0.2661 0.48467 0.53795 0.0
C589 C 0.32229 0.48634 0.51187 0.0
C590 C 0.2804 0.46243 0.55019 0.0
C591 C 0.2821 0.46575 0.57196 0.0
C592 C 0.26941 0.49131 0.58173 0.0
C593 C 0.25464 0.5132 0.56942 0.0
C594 C 0.25296 0.50987 0.54774 0.0
H595 H 0.33965 0.49292 0.5001 0.0
H596 H 0.32233 0.50332 0.52469 0.0
H597 H 0.32897 0.46416 0.51867 0.0
H598 H 0.29027 0.44259 0.54292 0.0
H599 H 0.29352 0.44846 0.58108 0.0
H600 H 0.98367 0.27464 0.91669 0.0
H601 H 0.99097 0.27974 0.95436 0.0
H602 H 0.07368 0.2279 0.95038 0.0
H603 H 0.06637 0.22241 0.91244 0.0
H604 H 0.03407 0.20756 0.98133 0.0
H605 H 0.05079 0.33143 0.98756 0.0
H606 H 0.01766 0.32191 0.97267 0.0
H607 H 0.05454 0.31126 0.96309 0.0
C608 C 1.00361 0.26459 0.92375 0.0
C609 C 0.02447 0.24812 0.91162 0.0
C610 C 0.00786 0.26772 0.94527 0.0
C611 C 0.03311 0.25461 0.95509 0.0
C612 C 0.05419 0.2384 0.94302 0.0
H613 H 0.05796 0.28752 0.08951 0.0
H614 H 0.06848 0.28252 0.052 0.0
C615 C 0.05 0.23531 0.9214 0.0
C616 C 0.03596 0.25612 0.97815 0.0
H617 H 0.03498 0.30576 0.01905 0.0
C618 C 0.03479 0.229 0.98961 0.0
C619 C 0.03733 0.28407 0.9889 0.0
C620 C 0.04047 0.3138 0.97742 0.0
C621 C 0.0332 0.22918 0.01156 0.0
C622 C 0.03229 0.25724 0.02221 0.0
C623 C 0.03525 0.28428 0.01082 0.0
C624 C 0.02662 0.25911 0.04502 0.0
C625 C 0.03209 0.19937 0.02312 0.0
C626 C 0.99947 0.24787 0.05344 0.0
C627 C 0.99339 0.25071 0.07481 0.0
C628 C 0.01428 0.26503 0.08812 0.0
C629 C 0.04145 0.27633 0.07965 0.0
C630 C 0.04751 0.27348 0.05825 0.0
H631 H 0.04221 0.1808 0.01368 0.0
H632 H 0.04423 0.20076 0.03832 0.0
H633 H 0.0081 0.19338 0.0263 0.0
H634 H 0.98274 0.23733 0.04341 0.0
H635 H 0.97221 0.24191 0.08086 0.0
H636 H 0.23875 0.98231 0.41799 0.0
H637 H 0.23492 0.99355 0.45524 0.0
H638 H 0.29253 0.07157 0.44702 0.0
H639 H 0.29669 0.06027 0.40943 0.0
H640 H 0.3102 0.03326 0.48002 0.0
H641 H 0.1881 0.06055 0.4855 0.0
H642 H 0.19471 0.02565 0.47187 0.0
H643 H 0.20845 0.06065 0.46093 0.0
C644 C 0.25038 1.00206 0.42401 0.0
C645 C 0.26801 0.02044 0.41079 0.0
C646 C 0.24798 0.00858 0.4453 0.0
C647 C 0.26302 0.03366 0.45381 0.0
C648 C 0.28051 0.05226 0.44067 0.0
H649 H 0.22821 0.06414 0.58762 0.0
H650 H 0.2363 0.07508 0.55039 0.0
C651 C 0.28284 0.04581 0.41925 0.0
C652 C 0.26192 0.03881 0.4767 0.0
H653 H 0.21222 0.04395 0.51748 0.0
C654 C 0.28887 0.03622 0.48823 0.0
C655 C 0.23415 0.04314 0.48736 0.0
C656 C 0.20476 0.04798 0.47575 0.0
C657 C 0.2885 0.03578 0.51022 0.0
C658 C 0.26041 0.0375 0.52084 0.0
C659 C 0.23372 0.0422 0.50932 0.0
C660 C 0.25782 0.03211 0.54368 0.0
C661 C 0.31813 0.03286 0.52184 0.0
C662 C 0.26714 0.0043 0.55221 0.0
C663 C 0.26255 0.99799 0.57341 0.0
C664 C 0.24831 0.01929 0.58645 0.0
C665 C 0.23928 0.04729 0.57796 0.0
C666 C 0.2439 0.05359 0.55672 0.0
H667 H 0.33729 0.04187 0.51241 0.0
H668 H 0.3174 0.04502 0.53705 0.0
H669 H 0.32272 0.00855 0.52498 0.0
H670 H 0.27724 0.98709 0.54234 0.0
H671 H 0.26965 0.97617 0.57947 0.0
H672 H 0.47586 0.74109 0.91173 0.0
H673 H 0.4872 0.73539 0.94891 0.0
H674 H 0.5719 0.7825 0.94024 0.0
H675 H 0.5605 0.7887 0.90283 0.0
H676 H 0.53662 0.70826 0.96971 0.0
H677 H 0.5278 0.83192 0.98587 0.0
H678 H 0.51455 0.81535 0.96172 0.0
H679 H 0.55441 0.82063 0.96601 0.0
C680 C 0.49701 0.7501 0.91766 0.0
C681 C 0.51719 0.76556 0.9044 0.0
C682 C 0.50348 0.74675 0.93891 0.0
C683 C 0.53019 0.75884 0.94735 0.0
C684 C 0.55094 0.77341 0.93405 0.0
H685 H 0.56818 0.72121 0.08068 0.0
H686 H 0.57637 0.72734 0.0429 0.0
C687 C 0.54446 0.7768 0.91271 0.0
C688 C 0.53531 0.75698 0.97022 0.0
H689 H 0.53549 0.79977 0.01472 0.0
C690 C 0.53684 0.72824 0.97958 0.0
C691 C 0.5353 0.78315 0.98298 0.0
C692 C 0.53272 0.81455 0.97375 0.0
C693 C 0.53727 0.72489 0.00145 0.0
C694 C 0.53661 0.75105 0.01421 0.0
C695 C 0.53618 0.77982 0.00483 0.0
C696 C 0.5331 0.74897 0.03722 0.0
C697 C 0.5368 0.69341 0.01071 0.0
C698 C 0.50649 0.75991 0.04657 0.0
C699 C 0.50182 0.75659 0.06806 0.0
C700 C 0.52375 0.74233 0.08063 0.0
C701 C 0.5508 0.73213 0.07135 0.0
C702 C 0.55547 0.7355 0.04979 0.0
H703 H 0.53192 0.67584 -0.00127 0.0
H704 H 0.55925 0.68834 0.01773 0.0
H705 H 0.51951 0.69178 0.0233 0.0
H706 H 0.48897 0.77042 0.03713 0.0
H707 H 0.4808 0.76479 0.07475 0.0
H708 H 0.78201 0.48355 0.41181 0.0
H709 H 0.78738 0.48992 0.44961 0.0
H710 H 0.71237 0.55272 0.44975 0.0
H711 H 0.70774 0.54737 0.41161 0.0
H712 H 0.75653 0.57072 0.47635 0.0
H713 H 0.7306 0.44965 0.49003 0.0
H714 H 0.7629 0.45443 0.47331 0.0
H715 H 0.72615 0.46727 0.46473 0.0
C716 C 0.76675 0.49882 0.41989 0.0
C717 C 0.74417 0.51465 0.40889 0.0
C718 C 0.76976 0.50235 0.44149 0.0
C719 C 0.74973 0.52113 0.45258 0.0
C720 C 0.72791 0.53792 0.44151 0.0
H721 H 0.72387 0.49363 0.58537 0.0
H722 H 0.71682 0.50011 0.54773 0.0
C723 C 0.72524 0.53482 0.41977 0.0
C724 C 0.75097 0.52225 0.47577 0.0
H725 H 0.75008 0.47704 0.51909 0.0
C726 C 0.75489 0.5503 0.48576 0.0
C727 C 0.7482 0.49567 0.48803 0.0
C728 C 0.7414 0.46512 0.47849 0.0
C729 C 0.75678 0.55238 0.5077 0.0
C730 C 0.7556 0.52555 0.51986 0.0
C731 C 0.75124 0.49762 0.50981 0.0
C732 C 0.75831 0.52547 0.54305 0.0
C733 C 0.75936 0.58331 0.51756 0.0
C734 C 0.78366 0.53814 0.55312 0.0
C735 C 0.78734 0.53503 0.57481 0.0
C736 C 0.76619 0.51844 0.58657 0.0
C737 C 0.74064 0.50629 0.57658 0.0
C738 C 0.7366 0.51002 0.55508 0.0
H739 H 0.75023 0.60124 0.50708 0.0
H740 H 0.7471 0.58432 0.53274 0.0
H741 H 0.78362 0.58845 0.52044 0.0
H742 H 0.80115 0.54945 0.54416 0.0
H743 H 0.80734 0.54438 0.58221 0.0
H744 H 0.03487 0.73956 0.07855 0.0
H745 H 0.02572 0.73486 0.04098 0.0
H746 H 0.93894 0.77872 0.04817 0.0
H747 H 0.94812 0.78396 0.08588 0.0
H748 H 0.97839 0.70634 0.01907 0.0
H749 H 0.98253 0.83049 0.00376 0.0
H750 H 0.99538 0.81404 0.02808 0.0
H751 H 0.95554 0.81801 0.02302 0.0
C752 C 0.01379 0.74815 0.07218 0.0
C753 C 0.99231 0.76235 0.08512 0.0
C754 C 0.00856 0.74536 0.05072 0.0
C755 C 0.98183 0.75675 0.04181 0.0
C756 C 0.95993 0.77023 0.05474 0.0
H757 H 0.94716 0.72101 0.90788 0.0
H758 H 0.93864 0.72523 0.94576 0.0
C759 C 0.96517 0.77309 0.07625 0.0
C760 C 0.97762 0.75508 0.01886 0.0
H761 H 0.97609 0.79862 0.97465 0.0
C762 C 0.97749 0.72647 0.00932 0.0
C763 C 0.97668 0.78146 0.00627 0.0
C764 C 0.97775 0.81279 0.0157 0.0
C765 C 0.97745 0.72349 0.98744 0.0
C766 C 0.97708 0.74988 0.97486 0.0
C767 C 0.97618 0.77848 0.98441 0.0
C768 C 0.98092 0.74842 0.95187 0.0
C769 C 0.97936 0.69224 0.97796 0.0
C770 C 0.0071 0.76072 0.94279 0.0
C771 C 0.01194 0.75849 0.92127 0.0
C772 C 0.99063 0.74395 0.90841 0.0
C773 C 0.96405 0.73218 0.91744 0.0
C774 C 0.9592 0.73447 0.93905 0.0
H775 H 0.98481 0.67465 0.98985 0.0
H776 H 0.95724 0.68642 0.97075 0.0
H777 H 0.99688 0.69155 0.96548 0.0
H778 H 0.02411 0.7716 0.95244 0.0
H779 H 0.03259 0.76787 0.91477 0.0
H780 H 0.74275 0.02781 0.41564 0.0
H781 H 0.73761 0.01696 0.45304 0.0
H782 H 0.77411 0.9274 0.44333 0.0
H783 H 0.77982 0.93823 0.4059 0.0
H784 H 0.70639 0.97119 0.47488 0.0
H785 H 0.83118 0.96445 0.48717 0.0
H786 H 0.81474 0.97956 0.46347 0.0
H787 H 0.81564 0.93936 0.46781 0.0
C788 C 0.7495 0.00573 0.42143 0.0
C789 C 0.76197 0.98398 0.40789 0.0
C790 C 0.74649 0.99954 0.44278 0.0
C791 C 0.75589 0.97155 0.45096 0.0
C792 C 0.76723 0.94933 0.43736 0.0
H793 H 0.72162 0.94031 0.58584 0.0
H794 H 0.72557 0.929 0.54826 0.0
C795 C 0.77035 0.95553 0.41599 0.0
C796 C 0.75491 0.96643 0.47386 0.0
H797 H 0.80028 0.95969 0.51693 0.0
C798 C 0.72683 0.96823 0.48411 0.0
C799 C 0.78171 0.96273 0.48576 0.0
C800 C 0.81259 0.96161 0.4756 0.0
C801 C 0.72491 0.96763 0.50605 0.0
C802 C 0.75179 0.96471 0.51796 0.0
C803 C 0.77974 0.96166 0.50768 0.0
C804 C 0.75183 0.96903 0.54093 0.0
C805 C 0.69438 0.97188 0.51632 0.0
C806 C 0.76627 0.99458 0.54928 0.0
C807 C 0.76419 1.00098 0.57059 0.0
C808 C 0.74769 0.98187 0.584 0.0
C809 C 0.7344 0.95547 0.57583 0.0
C810 C 0.73648 0.94908 0.5544 0.0
H811 H 0.67658 0.97848 0.50488 0.0
H812 H 0.68738 0.95035 0.52388 0.0
H813 H 0.69565 0.98953 0.52867 0.0
H814 H 0.77829 0.01021 0.53914 0.0
H815 H 0.77483 0.0214 0.57642 0.0
H816 H 0.56646 0.85927 0.16907 0.0
H817 H 0.56146 0.91435 0.16663 0.0
H818 H 0.49282 0.90402 0.1191 0.0
H819 H 0.4977 0.84898 0.12144 0.0
H820 H 0.57162 0.95066 0.13279 0.0
H821 H 0.45258 0.96319 0.15929 0.0
H822 H 0.47386 0.92862 0.16286 0.0
H823 H 0.45706 0.93723 0.13789 0.0
C824 C 0.55031 0.86869 0.15808 0.0
C825 C 0.53244 0.84961 0.1455 0.0
C826 C 0.54737 0.9002 0.15678 0.0
C827 C 0.52643 0.91335 0.14293 0.0
C828 C 0.50858 0.89442 0.13031 0.0
H829 H 0.53291 0.09694 0.09479 0.0
H830 H 0.53252 0.04205 0.09962 0.0
C831 C 0.51143 0.86288 0.13164 0.0
C832 C 0.52442 0.94687 0.14096 0.0
H833 H 0.47562 0.00692 0.14417 0.0
C834 C 0.55065 0.96295 0.13537 0.0
C835 C 0.49715 0.96298 0.14457 0.0
C836 C 0.46862 0.94719 0.15169 0.0
C837 C 0.55025 0.99456 0.1329 0.0
C838 C 0.52272 0.01054 0.13572 0.0
C839 C 0.49661 0.99459 0.14176 0.0
C840 C 0.52078 0.04382 0.1325 0.0
C841 C 0.57944 0.01063 0.12756 0.0
C842 C 0.51313 0.06307 0.14918 0.0
C843 C 0.51329 0.09457 0.14645 0.0
C844 C 0.52104 0.1074 0.12697 0.0
C845 C 0.52749 0.08792 0.11011 0.0
C846 C 0.52727 0.0565 0.11284 0.0
H847 H 0.59959 0.99653 0.13135 0.0
H848 H 0.57991 0.01556 0.11051 0.0
H849 H 0.58126 0.03244 0.13611 0.0
H850 H 0.5079 0.05376 0.16447 0.0
H851 H 0.50839 0.10885 0.15981 0.0
H852 H 0.65648 0.49747 0.62514 0.0
H853 H 0.60114 0.49526 0.62215 0.0
H854 H 0.59294 0.56269 0.67069 0.0
H855 H 0.64823 0.56563 0.67317 0.0
H856 H 0.55667 0.48057 0.64804 0.0
H857 H 0.54282 0.60107 0.62596 0.0
H858 H 0.57945 0.58307 0.62725 0.0
H859 H 0.56145 0.59681 0.65074 0.0
C860 C 0.64283 0.51171 0.63521 0.0
C861 C 0.65666 0.53196 0.64924 0.0
C862 C 0.6112 0.51049 0.63348 0.0
C863 C 0.59276 0.52932 0.64585 0.0
C864 C 0.60659 0.54866 0.66047 0.0
H865 H 0.39693 0.50555 0.66266 0.0
H866 H 0.45222 0.50323 0.66625 0.0
C867 C 0.63819 0.55024 0.66196 0.0
C868 C 0.55916 0.52884 0.64337 0.0
H869 H 0.49777 0.5743 0.63456 0.0
C870 C 0.54379 0.50105 0.64499 0.0
C871 C 0.54231 0.55544 0.63901 0.0
C872 C 0.55738 0.58571 0.63541 0.0
C873 C 0.51213 0.49919 0.64263 0.0
C874 C 0.49516 0.52602 0.63919 0.0
C875 C 0.51061 0.55373 0.63739 0.0
C876 C 0.46151 0.52605 0.63686 0.0
C877 C 0.49739 0.46836 0.64328 0.0
C878 C 0.4481 0.54024 0.61944 0.0
C879 C 0.41658 0.54217 0.61764 0.0
C880 C 0.39767 0.52967 0.63311 0.0
C881 C 0.41098 0.51498 0.65037 0.0
C882 C 0.44259 0.51352 0.65235 0.0
H883 H 0.51381 0.45012 0.63937 0.0
H884 H 0.48883 0.46397 0.65934 0.0
H885 H 0.47804 0.467 0.6322 0.0
H886 H 0.46208 0.55008 0.60725 0.0
H887 H 0.40695 0.55338 0.6041 0.0
H888 H 0.92557 0.40454 0.14013 0.0
H889 H 0.93162 0.4592 0.14271 0.0
H890 H 0.02872 0.44856 0.14454 0.0
H891 H 0.02298 0.39369 0.14107 0.0
H892 H 0.95762 0.49274 0.17383 0.0
H893 H 0.01841 0.51178 0.09868 0.0
H894 H 0.99964 0.47653 0.10473 0.0
H895 H 0.03598 0.48493 0.11601 0.0
C896 C 0.94829 0.41366 0.14073 0.0
C897 C 0.97378 0.39445 0.14014 0.0
C898 C 0.95169 0.44504 0.14239 0.0
C899 C 0.98062 0.4581 0.1435 0.0
C900 C 0.00616 0.43909 0.14327 0.0
H901 H 0.02794 0.65112 0.15449 0.0
H902 H 0.03097 0.59571 0.1535 0.0
C903 C 1.0028 0.4076 0.14153 0.0
C904 C 0.98364 0.49158 0.14529 0.0
H905 H 0.01078 0.55455 0.12027 0.0
C906 C 0.96933 0.50621 0.16214 0.0
C907 C 0.99905 0.5092 0.13009 0.0
C908 C 0.01395 0.49493 0.11125 0.0
C909 C 0.96966 0.5379 0.16406 0.0
C910 C 0.98441 0.55552 0.14861 0.0
C911 C 0.99949 0.54095 0.13208 0.0
C912 C 0.9829 0.58913 0.14878 0.0
C913 C 0.95413 0.55232 0.1826 0.0
C914 C 0.95498 0.60381 0.14605 0.0
C915 C 0.95317 0.63541 0.14639 0.0
C916 C 0.9793 0.65318 0.14949 0.0
C917 C 0.00738 0.63833 0.1519 0.0
C918 C 0.00916 0.60662 0.15145 0.0
H919 H 0.95073 0.53588 0.19558 0.0
H920 H 0.96745 0.57184 0.18856 0.0
H921 H 0.93155 0.56083 0.17769 0.0
H922 H 0.93451 0.59076 0.14355 0.0
H923 H 0.93125 0.64581 0.14401 0.0
H924 H 0.86231 0.96847 0.68141 0.0
H925 H 0.91734 0.9711 0.67751 0.0
H926 H 0.90648 0.01486 0.61753 0.0
H927 H 0.85131 0.01242 0.6214 0.0
H928 H 0.95132 0.94434 0.64754 0.0
H929 H 0.96944 0.0686 0.64521 0.0
H930 H 0.93422 0.05184 0.65376 0.0
H931 H 0.94249 0.05532 0.62627 0.0
C932 C 0.8716 0.97877 0.66742 0.0
C933 C 0.85235 0.99017 0.6517 0.0
C934 C 0.90309 0.98037 0.66524 0.0
C935 C 0.91614 0.99345 0.64733 0.0
C936 C 0.89702 0.00528 0.63172 0.0
H937 H 0.09913 0.95569 0.60374 0.0
H938 H 0.04425 0.96042 0.60784 0.0
C939 C 0.86544 1.00383 0.63393 0.0
C940 C 0.94964 0.99291 0.64453 0.0
H941 H 0.01177 0.03765 0.63625 0.0
C942 C 0.96452 0.96478 0.64514 0.0
C943 C 0.96696 0.01958 0.64162 0.0
C944 C 0.95255 0.05058 0.64187 0.0
C945 C 0.99608 0.96252 0.64269 0.0
C946 C 0.01328 0.98907 0.63908 0.0
C947 C 0.99853 0.01728 0.63878 0.0
C948 C 0.04665 0.98788 0.63583 0.0
C949 C 0.01076 0.93171 0.64438 0.0
C950 C 0.06633 1.00269 0.64974 0.0
C951 C 0.09781 1.00009 0.64739 0.0
C952 C 0.11023 0.98266 0.63104 0.0
C953 C 0.09039 0.96873 0.61675 0.0
C954 C 0.05897 0.97143 0.61906 0.0
H955 H 0.99592 0.91524 0.65264 0.0
H956 H 0.01517 0.92282 0.62841 0.0
H957 H 0.03271 0.93305 0.65283 0.0
H958 H 0.05734 0.01561 0.66276 0.0
H959 H 0.11235 0.01096 0.65877 0.0
H960 H 0.56495 0.65226 0.83596 0.0
H961 H 0.56075 0.59757 0.83991 0.0
H962 H 0.46405 0.60581 0.84764 0.0
H963 H 0.46794 0.66087 0.84341 0.0
H964 H 0.49204 0.5676 0.87749 0.0
H965 H 0.52702 0.53744 0.79678 0.0
H966 H 0.55312 0.5624 0.80968 0.0
H967 H 0.51531 0.57524 0.80396 0.0
C968 C 0.54267 0.64259 0.83816 0.0
C969 C 0.51674 0.66117 0.83913 0.0
C970 C 0.54034 0.6112 0.84046 0.0
C971 C 0.51204 0.59752 0.8437 0.0
C972 C 0.48611 0.61589 0.84502 0.0
H973 H 0.49079 0.40045 0.83601 0.0
H974 H 0.48361 0.45501 0.8314 0.0
C975 C 0.4884 0.6474 0.84269 0.0
C976 C 0.50989 0.56411 0.84619 0.0
H977 H 0.52737 0.49737 0.82198 0.0
C978 C 0.49947 0.55221 0.86529 0.0
C979 C 0.51917 0.54402 0.83016 0.0
C980 C 0.52901 0.55536 0.80891 0.0
C981 C 0.49924 0.52081 0.86907 0.0
C982 C 0.51009 0.50083 0.85344 0.0
C983 C 0.51935 0.51269 0.83405 0.0
C984 C 0.51299 0.46766 0.85707 0.0
C985 C 0.48736 0.50933 0.88977 0.0
C986 C 0.53196 0.45657 0.87298 0.0
C987 C 0.53602 0.42538 0.87571 0.0
C988 C 0.52131 0.40454 0.86252 0.0
C989 C 0.50214 0.41574 0.84666 0.0
C990 C 0.49814 0.44697 0.84391 0.0
H991 H 0.47193 0.52603 0.89726 0.0
H992 H 0.47501 0.48761 0.88781 0.0
H993 H 0.50669 0.50541 0.90056 0.0
H994 H 0.54413 0.47207 0.88307 0.0
H995 H 0.55073 0.41763 0.88818 0.0
H996 H 0.86377 0.57258 0.33138 0.0
H997 H 0.91882 0.56898 0.3342 0.0
H998 H 0.91055 0.48055 0.36221 0.0
H999 H 0.85534 0.48417 0.36013 0.0
H1000 H 0.95135 0.55434 0.37658 0.0
H1001 H 0.97429 0.47561 0.31025 0.0
H1002 H 0.94135 0.49999 0.31058 0.0
H1003 H 0.94306 0.46781 0.32767 0.0
C1004 C 0.87346 0.55239 0.33828 0.0
C1005 C 0.85478 0.52877 0.34563 0.0
C1006 C 0.90502 0.55031 0.33973 0.0
C1007 C 0.91869 0.52446 0.34831 0.0
C1008 C 0.90037 0.50058 0.35535 0.0
H1009 H 0.11253 0.48304 0.36195 0.0
H1010 H 0.05709 0.47887 0.36007 0.0
C1011 C 0.86873 0.5027 0.35405 0.0
C1012 C 0.95208 0.52321 0.3507 0.0
H1013 H 0.01644 0.49337 0.32925 0.0
C1014 C 0.96562 0.54094 0.3663 0.0
C1015 C 0.9705 0.50541 0.33743 0.0
C1016 C 0.95679 0.48611 0.32044 0.0
C1017 C 0.99723 0.54161 0.36888 0.0
C1018 C 0.01587 0.52476 0.35505 0.0
C1019 C 1.00221 0.5064 0.33977 0.0
C1020 C 0.04953 0.52693 0.35574 0.0
C1021 C 0.01027 0.56012 0.38657 0.0
C1022 C 0.06377 0.55515 0.35342 0.0
C1023 C 0.09528 0.55758 0.3546 0.0
C1024 C 0.11342 0.53177 0.35783 0.0
C1025 C 0.09922 0.50333 0.35945 0.0
C1026 C 0.06755 0.50094 0.35843 0.0
H1027 H 0.9935 0.5633 0.39938 0.0
H1028 H 0.03088 0.54928 0.3932 0.0
H1029 H 0.01652 0.58289 0.38059 0.0
H1030 H 0.05047 0.5754 0.35065 0.0
H1031 H 0.10547 0.57971 0.35272 0.0
H1032 H 0.93339 0.10617 0.86489 0.0
H1033 H 0.93671 0.05148 0.86073 0.0
H1034 H 0.03346 0.05822 0.85255 0.0
H1035 H 0.03058 0.11308 0.85755 0.0
H1036 H 0.95684 0.0185 0.82722 0.0
H1037 H 0.02685 0.99303 0.89745 0.0
H1038 H 0.0088 0.0293 0.8935 0.0
H1039 H 0.04308 0.0201 0.87967 0.0
C1040 C 0.95552 0.09617 0.86257 0.0
C1041 C 0.98176 0.11431 0.86182 0.0
C1042 C 0.95732 0.06478 0.86 0.0
C1043 C 0.98537 0.05059 0.85664 0.0
C1044 C 0.01161 0.06854 0.85556 0.0
H1045 H 0.02567 0.85731 0.83884 0.0
H1046 H 0.02979 0.91252 0.84091 0.0
C1047 C 0.00986 0.10003 0.85819 0.0
C1048 C 0.9867 0.01712 0.85388 0.0
H1049 H 0.01484 0.95184 0.87535 0.0
C1050 C 0.96958 1.00396 0.83773 0.0
C1051 C 1.00344 0.99809 0.86754 0.0
C1052 C 0.0214 0.01073 0.88563 0.0
C1053 C 0.96852 0.9724 0.83496 0.0
C1054 C 0.98469 0.95337 0.84888 0.0
C1055 C 1.00244 0.96648 0.86471 0.0
C1056 C 0.98235 0.9198 0.84779 0.0
C1057 C 0.95016 0.95967 0.81709 0.0
C1058 C 0.95443 0.90549 0.85131 0.0
C1059 C 0.95201 0.87393 0.85032 0.0
C1060 C 0.97751 0.85584 0.84583 0.0
C1061 C 0.00558 0.87032 0.84253 0.0
C1062 C 0.00798 0.90195 0.84361 0.0
H1063 H 0.94589 0.97695 0.80477 0.0
H1064 H 0.9618 0.93996 0.80987 0.0
H1065 H 0.9279 0.95188 0.82314 0.0
H1066 H 0.93447 0.91876 0.855 0.0
H1067 H 0.93015 0.86379 0.85339 0.0
H1068 H 0.41018 0.95877 0.39588 0.0
H1069 H 0.46509 0.96278 0.39173 0.0
H1070 H 0.45263 1.00329 0.3308 0.0
H1071 H 0.39758 0.99957 0.33497 0.0
H1072 H 0.49981 0.93569 0.36265 0.0
H1073 H 0.51403 0.06018 0.35657 0.0
H1074 H 0.47926 0.04292 0.3655 0.0
H1075 H 0.48764 0.04499 0.33795 0.0
C1076 C 0.41909 0.96867 0.38164 0.0
C1077 C 0.39945 0.97882 0.36575 0.0
C1078 C 0.45052 0.97105 0.37931 0.0
C1079 C 0.46309 0.98364 0.36106 0.0
C1080 C 0.44354 0.99416 0.34525 0.0
H1081 H 0.64684 0.9497 0.31749 0.0
H1082 H 0.59192 0.95211 0.32214 0.0
C1083 C 0.41204 0.99197 0.34763 0.0
C1084 C 0.49658 0.98395 0.35816 0.0
H1085 H 0.55723 0.03002 0.34828 0.0
C1086 C 0.51234 0.95636 0.35959 0.0
C1087 C 0.51305 0.01094 0.35437 0.0
C1088 C 0.4977 0.04148 0.3537 0.0
C1089 C 0.54394 0.95493 0.3571 0.0
C1090 C 0.56029 0.98174 0.35263 0.0
C1091 C 0.54465 0.00943 0.3515 0.0
C1092 C 0.59365 0.98141 0.34926 0.0
C1093 C 0.5596 0.92473 0.35966 0.0
C1094 C 0.61294 0.99784 0.36253 0.0
C1095 C 0.64445 0.99655 0.35989 0.0
C1096 C 0.65731 0.97884 0.34384 0.0
C1097 C 0.6378 0.96303 0.33027 0.0
C1098 C 0.60636 0.96441 0.33289 0.0
H1099 H 0.54534 0.90835 0.36849 0.0
H1100 H 0.56417 0.91497 0.34397 0.0
H1101 H 0.58156 0.92729 0.36796 0.0
H1102 H 0.60364 0.01118 0.37524 0.0
H1103 H 0.65868 0.00882 0.37074 0.0
H1104 H 0.44324 0.15142 0.82645 0.0
H1105 H 0.44718 0.09644 0.82984 0.0
H1106 H 0.523 0.10689 0.87179 0.0
H1107 H 0.51858 0.16196 0.86908 0.0
H1108 H 0.49477 0.05681 0.82105 0.0
H1109 H 0.4644 0.05404 0.90553 0.0
H1110 H 0.45902 0.08727 0.88946 0.0
H1111 H 0.49612 0.07778 0.89908 0.0
C1112 C 0.46061 0.14211 0.83655 0.0
C1113 C 0.48037 0.16127 0.84766 0.0
C1114 C 0.46299 0.11062 0.83832 0.0
C1115 C 0.4851 0.09753 0.8513 0.0
C1116 C 0.50543 0.11649 0.86196 0.0
H1117 H 0.52399 0.90185 0.85262 0.0
H1118 H 0.52897 0.95684 0.84903 0.0
C1119 C 0.50306 0.14803 0.86021 0.0
C1120 C 0.48633 0.06408 0.85387 0.0
H1121 H 0.47723 0.0074 0.88983 0.0
C1122 C 0.4911 0.04597 0.8361 0.0
C1123 C 0.48121 0.05 0.87349 0.0
C1124 C 0.47463 0.06818 0.89298 0.0
C1125 C 0.49067 0.01416 0.83738 0.0
C1126 C 0.48575 1.0001 0.85703 0.0
C1127 C 0.48124 0.01822 0.87482 0.0
C1128 C 0.48326 0.96667 0.8593 0.0
C1129 C 0.49445 0.99591 0.81757 0.0
C1130 C 0.45618 0.95392 0.86669 0.0
C1131 C 0.45328 0.92256 0.86881 0.0
C1132 C 0.47746 0.90311 0.86367 0.0
C1133 C 0.50474 0.91599 0.85644 0.0
C1134 C 0.50764 0.94747 0.85436 0.0
H1135 H 0.49123 0.01001 0.80331 0.0
H1136 H 0.51768 0.98629 0.8171 0.0
H1137 H 0.47808 0.97683 0.81713 0.0
H1138 H 0.43706 0.96827 0.87058 0.0
H1139 H 0.4318 0.91355 0.87411 0.0
H1140 H 0.35682 0.52834 0.33858 0.0
H1141 H 0.41217 0.53125 0.34147 0.0
H1142 H 0.41683 0.43412 0.34751 0.0
H1143 H 0.36185 0.43096 0.34503 0.0
H1144 H 0.45166 0.50926 0.37439 0.0
H1145 H 0.47462 0.45356 0.29818 0.0
H1146 H 0.43803 0.46923 0.30482 0.0
H1147 H 0.44923 0.43286 0.3149 0.0
C1148 C 0.36956 0.5076 0.3407 0.0
C1149 C 0.35469 0.47938 0.34135 0.0
C1150 C 0.40123 0.50932 0.34226 0.0
C1151 C 0.41866 0.48285 0.34433 0.0
C1152 C 0.40389 0.45478 0.34544 0.0
H1153 H 0.60384 0.42642 0.3562 0.0
H1154 H 0.54912 0.43189 0.35292 0.0
C1155 C 0.37234 0.45303 0.34396 0.0
C1156 C 0.45228 0.4843 0.34547 0.0
H1157 H 0.51656 0.45898 0.3213 0.0
C1158 C 0.46593 0.49859 0.36269 0.0
C1159 C 0.47081 0.47039 0.33016 0.0
C1160 C 0.45751 0.45587 0.31086 0.0
C1161 C 0.49759 0.49819 0.36546 0.0
C1162 C 0.51609 0.4836 0.35039 0.0
C1163 C 0.5024 0.47004 0.3329 0.0
C1164 C 0.54954 0.48088 0.35285 0.0
C1165 C 0.51084 0.5123 0.38493 0.0
C1166 C 0.56818 0.50662 0.35377 0.0
C1167 C 0.59968 0.50358 0.35587 0.0
C1168 C 0.61324 0.4747 0.35697 0.0
C1169 C 0.59439 0.44902 0.35582 0.0
C1170 C 0.56299 0.45209 0.35376 0.0
H1171 H 0.49334 0.51612 0.39717 0.0
H1172 H 0.52903 0.4978 0.39158 0.0
H1173 H 0.5209 0.53457 0.38084 0.0
H1174 H 0.55842 0.52908 0.35269 0.0
H1175 H 0.6133 0.5239 0.35679 0.0
H1176 H 0.08394 0.36402 0.85006 0.0
H1177 H 0.07943 0.41904 0.85121 0.0
H1178 H 0.98247 0.41186 0.84482 0.0
H1179 H 0.98673 0.35662 0.84327 0.0
H1180 H 0.05335 0.45799 0.8201 0.0
H1181 H 0.99405 0.46703 0.89678 0.0
H1182 H 0.01382 0.43311 0.88878 0.0
H1183 H 0.97737 0.44193 0.87785 0.0
C1184 C 0.06162 0.37396 0.84874 0.0
C1185 C 0.0357 0.35561 0.84657 0.0
C1186 C 0.05909 0.40553 0.84952 0.0
C1187 C 0.03061 0.41958 0.84833 0.0
C1188 C 0.00465 0.40149 0.84615 0.0
H1189 H 0.98531 0.61333 0.8564 0.0
H1190 H 0.98183 0.55823 0.85237 0.0
C1191 C 0.00715 0.36984 0.84529 0.0
C1192 C 0.02841 0.45319 0.8489 0.0
H1193 H 1.00323 0.51259 0.87851 0.0
C1194 C 0.04231 0.46993 0.83284 0.0
C1195 C 0.01378 0.46875 0.86543 0.0
C1196 C 0.99905 0.45191 0.88331 0.0
C1197 C 0.04221 0.50177 0.83294 0.0
C1198 C 0.02843 0.51737 0.84982 0.0
C1199 C 0.01384 0.50064 0.86561 0.0
C1200 C 0.03032 0.55092 0.85189 0.0
C1201 C 0.05669 0.51838 0.81485 0.0
C1202 C 0.05868 0.56515 0.85319 0.0
C1203 C 0.06076 0.59659 0.85535 0.0
C1204 C 0.03448 0.61466 0.85649 0.0
C1205 C 0.00603 0.6003 0.85533 0.0
C1206 C 1.00399 0.56874 0.85315 0.0
H1207 H 0.05749 0.50409 0.80055 0.0
H1208 H 0.04425 0.53961 0.81115 0.0
H1209 H 0.08034 0.52435 0.81906 0.0
H1210 H 0.07933 0.55189 0.85268 0.0
H1211 H 0.08307 0.60667 0.85595 0.0
H1212 H 0.9089 0.07248 0.36473 0.0
H1213 H 0.9637 0.0671 0.36184 0.0
H1214 H 0.95421 0.97005 0.35838 0.0
H1215 H 0.89906 0.9752 0.36139 0.0
H1216 H 1.00301 0.03628 0.38841 0.0
H1217 H 0.00802 0.98911 0.30773 0.0
H1218 H 0.9743 0.00671 0.31817 0.0
H1219 H 0.98432 0.96885 0.32586 0.0
C1220 C 0.91832 0.04992 0.36352 0.0
C1221 C 0.8994 0.02426 0.36338 0.0
C1222 C 0.94975 0.04691 0.36174 0.0
C1223 C 0.9631 0.01822 0.35967 0.0
C1224 C 0.94439 0.99248 0.35955 0.0
H1225 H 0.15688 0.97395 0.34677 0.0
H1226 H 0.10179 0.96969 0.35123 0.0
C1227 C 0.91284 0.99547 0.36129 0.0
C1228 C 0.99665 0.01559 0.3582 0.0
H1229 H 0.05452 0.99463 0.32563 0.0
C1230 C 0.01425 0.02706 0.37471 0.0
C1231 C 0.01133 1.00338 0.34038 0.0
C1232 C 0.99362 0.9915 0.32192 0.0
C1233 C 0.04605 0.02705 0.37377 0.0
C1234 C 0.06073 0.0157 0.3557 0.0
C1235 C 0.04321 1.00337 0.33945 0.0
C1236 C 0.0941 0.01802 0.35297 0.0
C1237 C 0.0637 0.03922 0.39217 0.0
C1238 C 0.108 0.04657 0.35219 0.0
C1239 C 0.13937 0.04907 0.3497 0.0
C1240 C 0.15763 0.02305 0.34784 0.0
C1241 C 0.14359 0.99442 0.34842 0.0
C1242 C 0.11209 0.99195 0.35085 0.0
H1243 H 0.04999 0.03897 0.40677 0.0
H1244 H 0.08471 0.02587 0.39482 0.0
H1245 H 0.07027 0.06303 0.38893 0.0
H1246 H 0.09453 0.06701 0.35347 0.0
H1247 H 0.14932 0.07146 0.34952 0.0
H1248 H 0.46109 0.36187 0.17955 0.0
H1249 H 0.46485 0.4166 0.17443 0.0
H1250 H 0.52069 0.40238 0.11989 0.0
H1251 H 0.51628 0.34754 0.1245 0.0
H1252 H 0.51505 0.4554 0.17266 0.0
H1253 H 0.45134 0.45526 0.09756 0.0
H1254 H 0.45209 0.42296 0.11492 0.0
H1255 H 0.48393 0.43085 0.09823 0.0
C1256 C 0.47403 0.3703 0.16638 0.0
C1257 C 0.48809 0.35016 0.15232 0.0
C1258 C 0.47636 0.40165 0.16357 0.0
C1259 C 0.49267 0.4136 0.1466 0.0
C1260 C 0.50756 0.39366 0.1329 0.0
H1261 H 0.53365 0.60752 0.13146 0.0
H1262 H 0.53847 0.55264 0.13607 0.0
C1263 C 0.50527 0.36226 0.1357 0.0
C1264 C 0.49335 0.4469 0.14306 0.0
H1265 H 0.47084 0.50219 0.1089 0.0
C1266 C 0.50554 0.46566 0.15868 0.0
C1267 C 0.4806 0.46025 0.1249 0.0
C1268 C 0.46599 0.44139 0.10799 0.0
C1269 C 0.50521 0.49741 0.15669 0.0
C1270 C 0.49266 0.51072 0.13846 0.0
C1271 C 0.48065 0.49194 0.12279 0.0
C1272 C 0.49017 0.54411 0.1358 0.0
C1273 C 0.51739 0.51645 0.1744 0.0
C1274 C 0.4615 0.55754 0.13375 0.0
C1275 C 0.45867 0.58885 0.1311 0.0
C1276 C 0.48449 0.60754 0.13031 0.0
C1277 C 0.51326 0.59397 0.13228 0.0
C1278 C 0.51607 0.56256 0.13493 0.0
H1279 H 0.52 0.50312 0.18907 0.0
H1280 H 0.53999 0.52542 0.16998 0.0
H1281 H 0.50223 0.53602 0.17754 0.0
H1282 H 0.4412 0.54378 0.13441 0.0
H1283 H 0.43614 0.59838 0.12998 0.0
H1284 H 0.15499 0.51838 0.6597 0.0
H1285 H 0.09946 0.52191 0.65969 0.0
H1286 H 0.09404 0.4347 0.6296 0.0
H1287 H 0.14919 0.43095 0.62971 0.0
H1288 H 0.05787 0.52163 0.62782 0.0
H1289 H 0.0386 0.42245 0.67921 0.0
H1290 H 0.07551 0.43941 0.67596 0.0
H1291 H 0.06127 0.41308 0.65682 0.0
C1292 C 0.14194 0.50001 0.65304 0.0
C1293 C 0.15658 0.4742 0.64495 0.0
C1294 C 0.1102 0.50202 0.6531 0.0
C1295 C 0.09249 0.47826 0.64509 0.0
C1296 C 0.10711 0.45291 0.63647 0.0
H1297 H 0.90747 0.43868 0.61561 0.0
H1298 H 0.96236 0.44249 0.61899 0.0
C1299 C 0.13873 0.45081 0.63653 0.0
C1300 C 0.05875 0.47993 0.64538 0.0
H1301 H 0.99551 0.44053 0.66008 0.0
C1302 C 0.04423 0.50411 0.63511 0.0
C1303 C 0.04087 0.45719 0.65503 0.0
C1304 C 0.05485 0.43175 0.66756 0.0
C1305 C 0.01242 0.50541 0.63346 0.0
C1306 C 0.99474 0.48201 0.64236 0.0
C1307 C 0.00917 0.45832 0.65311 0.0
C1308 C 0.96127 0.48088 0.63994 0.0
C1309 C 0.9979 0.53118 0.62161 0.0
C1310 C 0.94237 0.50123 0.65064 0.0
C1311 C 0.91075 0.49889 0.64898 0.0
C1312 C 0.89742 0.47614 0.63654 0.0
C1313 C 0.91665 0.45615 0.62561 0.0
C1314 C 0.94815 0.4584 0.6274 0.0
H1315 H 0.01489 0.5455 0.61342 0.0
H1316 H 0.98156 0.52228 0.60991 0.0
H1317 H 0.98506 0.54566 0.63271 0.0
H1318 H 0.95206 0.51854 0.66061 0.0
H1319 H 0.89685 0.51448 0.65784 0.0
H1320 H 0.08096 0.90313 0.14007 0.0
H1321 H 0.07498 0.95789 0.14325 0.0
H1322 H 0.97877 0.94895 0.13308 0.0
H1323 H 0.9846 0.89393 0.13007 0.0
H1324 H 0.05461 0.99854 0.11489 0.0
H1325 H 0.98042 1.00094 0.18519 0.0
H1326 H 1.00001 0.96713 0.17687 0.0
H1327 H 0.9658 0.97886 0.16387 0.0
C1328 C 0.05852 0.91275 0.13842 0.0
C1329 C 0.03326 0.89405 0.1348 0.0
C1330 C 0.05511 0.94411 0.14034 0.0
C1331 C 0.02637 0.95761 0.1387 0.0
C1332 C 1.00108 0.93907 0.13493 0.0
H1333 H 0.98158 0.15181 0.1351 0.0
H1334 H 0.9787 0.09655 0.13202 0.0
C1335 C 0.00445 0.90759 0.13314 0.0
C1336 C 0.02335 0.99114 0.14032 0.0
H1337 H 0.99025 0.04805 0.16865 0.0
C1338 C 0.04048 0.0093 0.12664 0.0
C1339 C 0.00487 0.00528 0.15563 0.0
C1340 C 0.98692 0.9871 0.17136 0.0
C1341 C 0.03985 0.04105 0.12796 0.0
C1342 C 0.02169 0.05509 0.14337 0.0
C1343 C 1.00405 0.03712 0.15679 0.0
C1344 C 0.02228 0.08838 0.14643 0.0
C1345 C 0.0588 0.05951 0.11298 0.0
C1346 C 0.04744 0.10197 0.15593 0.0
C1347 C 0.04907 0.13344 0.15792 0.0
C1348 C 0.02561 0.15215 0.15033 0.0
C1349 C 0.99999 0.1383 0.14128 0.0
C1350 C 0.99833 0.10668 0.1394 0.0
H1351 H 0.06784 0.0456 0.0999 0.0
H1352 H 0.04524 0.07846 0.10637 0.0
H1353 H 0.07823 0.06951 0.12158 0.0
H1354 H 0.06603 0.08817 0.16162 0.0
H1355 H 0.06884 0.14308 0.16538 0.0
H1356 H 0.36475 0.05452 0.67417 0.0
H1357 H 0.41942 0.05152 0.66848 0.0
H1358 H 0.40512 0.99084 0.61659 0.0
H1359 H 0.35035 0.99401 0.62192 0.0
H1360 H 0.45215 0.97242 0.64483 0.0
H1361 H 0.46489 0.09203 0.61924 0.0
H1362 H 0.44584 0.08718 0.6439 0.0
H1363 H 0.42859 0.07324 0.62032 0.0
C1364 C 0.37312 0.04076 0.6614 0.0
C1365 C 0.35294 0.02471 0.64844 0.0
C1366 C 0.40443 0.03901 0.65821 0.0
C1367 C 0.41632 0.02125 0.64195 0.0
C1368 C 0.39641 0.0047 0.62923 0.0
H1369 H 0.59894 0.03535 0.59205 0.0
H1370 H 0.54405 0.03228 0.59676 0.0
C1371 C 0.36504 0.00647 0.63238 0.0
C1372 C 0.44952 0.02017 0.63815 0.0
H1373 H 0.51016 0.06434 0.62504 0.0
C1374 C 0.46487 0.99247 0.64044 0.0
C1375 C 0.46599 0.04628 0.63219 0.0
C1376 C 0.45053 0.07634 0.62856 0.0
C1377 C 0.49636 0.99032 0.63729 0.0
C1378 C 0.51295 0.01664 0.63191 0.0
C1379 C 0.49748 0.04421 0.62929 0.0
C1380 C 0.54636 0.01627 0.62877 0.0
C1381 C 0.5115 0.95982 0.63945 0.0
C1382 C 0.56599 0.00814 0.64516 0.0
C1383 C 0.59745 0.00991 0.64251 0.0
C1384 C 0.60993 0.02013 0.62347 0.0
C1385 C 0.59016 0.02775 0.60698 0.0
C1386 C 0.55875 0.02589 0.60963 0.0
H1387 H 0.49494 0.94098 0.63803 0.0
H1388 H 0.52942 0.9568 0.6274 0.0
H1389 H 0.52227 0.95818 0.65512 0.0
H1390 H 0.55699 1.00129 0.66023 0.0
H1391 H 0.61194 0.00434 0.65565 0.0
H1392 H 0.86763 0.20871 0.18588 0.0
H1393 H 0.81415 0.21059 0.19527 0.0
H1394 H 0.82441 0.30324 0.21533 0.0
H1395 H 0.87712 0.30261 0.20418 0.0
H1396 H 0.7804 0.22058 0.22866 0.0
H1397 H 0.76095 0.31378 0.17157 0.0
H1398 H 0.79658 0.29404 0.17336 0.0
H1399 H 0.78714 0.32308 0.19203 0.0
C1400 C 0.85856 0.22964 0.1921 0.0
C1401 C 0.87678 0.25573 0.19365 0.0
C1402 C 0.82798 0.23054 0.19774 0.0
C1403 C 0.81498 0.25738 0.20537 0.0
C1404 C 0.83366 0.28259 0.20879 0.0
H1405 H 0.6184 0.29042 0.20294 0.0
H1406 H 0.67037 0.29569 0.21645 0.0
C1407 C 0.8641 0.28196 0.2027 0.0
C1408 C 0.7816 0.25937 0.20819 0.0
H1409 H 0.71857 0.29489 0.18912 0.0
C1410 C 0.767 0.23744 0.22053 0.0
C1411 C 0.76388 0.28094 0.19715 0.0
C1412 C 0.77784 0.30412 0.18264 0.0
C1413 C 0.73529 0.23602 0.2218 0.0
C1414 C 0.71768 0.25647 0.20987 0.0
C1415 C 0.73216 0.27938 0.19839 0.0
C1416 C 0.68499 0.2514 0.20596 0.0
C1417 C 0.72094 0.21207 0.23542 0.0
C1418 C 0.67594 0.22465 0.19593 0.0
C1419 C 0.64659 0.22174 0.18815 0.0
C1420 C 0.6257 0.24556 0.1902 0.0
C1421 C 0.6341 0.27169 0.2013 0.0
C1422 C 0.6637 0.27471 0.20898 0.0
H1423 H 0.73605 0.20583 0.24866 0.0
H1424 H 0.69883 0.21983 0.2418 0.0
H1425 H 0.71706 0.19135 0.22598 0.0
H1426 H 0.6921 0.20668 0.19293 0.0
H1427 H 0.64057 0.20133 0.17971 0.0
H1428 H 0.30565 0.62642 0.69516 0.0
H1429 H 0.30431 0.67966 0.70533 0.0
H1430 H 0.20847 0.68266 0.69214 0.0
H1431 H 0.2091 0.62901 0.68353 0.0
H1432 H 0.29065 0.72354 0.67834 0.0
H1433 H 0.20921 0.7316 0.74405 0.0
H1434 H 0.2281 0.69671 0.73738 0.0
H1435 H 0.19565 0.70956 0.72268 0.0
C1436 C 0.28401 0.638 0.69526 0.0
C1437 C 0.25747 0.62334 0.68842 0.0
C1438 C 0.28336 0.66858 0.70091 0.0
C1439 C 0.25623 0.68514 0.69978 0.0
C1440 C 0.22952 0.67027 0.69377 0.0
H1441 H 0.19681 0.8662 0.68255 0.0
H1442 H 0.20208 0.81253 0.69153 0.0
C1443 C 0.23004 0.63963 0.68844 0.0
C1444 C 0.25651 0.71857 0.70218 0.0
H1445 H 0.21965 0.77762 0.72558 0.0
C1446 C 0.27558 0.73538 0.68898 0.0
C1447 C 0.23662 0.73395 0.71591 0.0
C1448 C 0.21645 0.717 0.73094 0.0
C1449 C 0.27423 0.7671 0.68832 0.0
C1450 C 0.25377 0.78254 0.70167 0.0
C1451 C 0.23539 0.76578 0.71542 0.0
C1452 C 0.24943 0.8158 0.70011 0.0
C1453 C 0.29351 0.78359 0.6724 0.0
C1454 C 0.27389 0.83571 0.70291 0.0
C1455 C 0.27101 0.86629 0.69757 0.0
C1456 C 0.24344 0.87758 0.68974 0.0
C1457 C 0.21829 0.85814 0.68863 0.0
C1458 C 0.22129 0.82747 0.69373 0.0
H1459 H 0.30258 0.76805 0.66024 0.0
H1460 H 0.28032 0.80173 0.66449 0.0
H1461 H 0.31307 0.79421 0.68046 0.0
H1462 H 0.29558 0.82732 0.70836 0.0
H1463 H 0.29063 0.88092 0.69885 0.0
H1464 H 0.88126 0.29947 0.81071 0.0
H1465 H 0.82674 0.30059 0.80455 0.0
H1466 H 0.82637 0.20349 0.79719 0.0
H1467 H 0.88044 0.20183 0.80498 0.0
H1468 H 0.78754 0.28458 0.77507 0.0
H1469 H 0.76937 0.21292 0.8455 0.0
H1470 H 0.80597 0.22811 0.83875 0.0
H1471 H 0.79184 0.19483 0.82572 0.0
C1472 C 0.86963 0.2783 0.80781 0.0
C1473 C 0.88522 0.2505 0.80894 0.0
C1474 C 0.83846 0.27902 0.80408 0.0
C1475 C 0.8223 0.25202 0.8011 0.0
C1476 C 0.83823 0.22452 0.80015 0.0
H1477 H 0.62841 0.21796 0.80798 0.0
H1478 H 0.68237 0.21384 0.79944 0.0
C1479 C 0.86934 0.22369 0.80427 0.0
C1480 C 0.78867 0.25266 0.80061 0.0
H1481 H 0.72604 0.2267 0.82636 0.0
C1482 C 0.77406 0.27178 0.7862 0.0
C1483 C 0.77109 0.23631 0.81535 0.0
C1484 C 0.78533 0.21714 0.83234 0.0
C1485 C 0.74238 0.275 0.78612 0.0
C1486 C 0.72481 0.25847 0.80075 0.0
C1487 C 0.73944 0.23901 0.81493 0.0
C1488 C 0.69141 0.26183 0.80258 0.0
C1489 C 0.7283 0.29636 0.77048 0.0
C1490 C 0.67836 0.29024 0.80674 0.0
C1491 C 0.64745 0.29266 0.8113 0.0
C1492 C 0.62919 0.26663 0.81221 0.0
C1493 C 0.64203 0.23836 0.80739 0.0
C1494 C 0.67282 0.236 0.80253 0.0
H1495 H 0.74206 0.29761 0.75592 0.0
H1496 H 0.70487 0.28951 0.76644 0.0
H1497 H 0.72752 0.31944 0.77732 0.0
H1498 H 0.69231 0.31039 0.80741 0.0
H1499 H 0.6382 0.31465 0.81529 0.0
H1500 H 0.20464 0.86788 0.32994 0.0
H1501 H 0.2003 0.81596 0.3172 0.0
H1502 H 0.26608 0.83498 0.26895 0.0
H1503 H 0.27113 0.88703 0.28206 0.0
H1504 H 0.18822 0.78626 0.27861 0.0
H1505 H 0.3073 0.77038 0.30575 0.0
H1506 H 0.28567 0.80379 0.31215 0.0
H1507 H 0.30076 0.79901 0.28622 0.0
C1508 C 0.21781 0.86116 0.31639 0.0
C1509 C 0.23869 0.88125 0.30724 0.0
C1510 C 0.21516 0.83156 0.30904 0.0
C1511 C 0.23334 0.82148 0.29242 0.0
C1512 C 0.25223 0.84224 0.28203 0.0
H1513 H 0.277 0.6287 0.28194 0.0
H1514 H 0.27388 0.68255 0.27242 0.0
C1515 C 0.25491 0.87198 0.28941 0.0
C1516 C 0.23498 0.78858 0.28807 0.0
H1517 H 0.28035 0.7272 0.29645 0.0
C1518 C 0.20849 0.77328 0.28213 0.0
C1519 C 0.26147 0.77175 0.29267 0.0
C1520 C 0.29042 0.7869 0.29969 0.0
C1521 C 0.20741 0.74149 0.28144 0.0
C1522 C 0.23345 0.72457 0.28721 0.0
C1523 C 0.26038 0.74003 0.29201 0.0
C1524 C 0.23289 0.69114 0.29023 0.0
C1525 C 0.17818 0.72662 0.27476 0.0
C1526 C 0.21085 0.67786 0.30321 0.0
C1527 C 0.21223 0.64708 0.30812 0.0
C1528 C 0.2362 0.62917 0.30071 0.0
C1529 C 0.25821 0.64217 0.28766 0.0
C1530 C 0.2564 0.67286 0.28228 0.0
H1531 H 0.16608 0.7408 0.26303 0.0
H1532 H 0.18208 0.70384 0.26793 0.0
H1533 H 0.16306 0.72433 0.28856 0.0
H1534 H 0.19323 0.69149 0.31031 0.0
H1535 H 0.19535 0.63755 0.31856 0.0
H1536 H 0.11584 0.75779 0.77277 0.0
H1537 H 0.16824 0.75807 0.75958 0.0
H1538 H 0.2015 0.75111 0.82297 0.0
H1539 H 0.14963 0.75101 0.83611 0.0
H1540 H 0.21796 0.79752 0.76896 0.0
H1541 H 0.24229 0.6795 0.79219 0.0
H1542 H 0.20418 0.69407 0.78958 0.0
H1543 H 0.22537 0.70039 0.81329 0.0
C1544 C 0.13444 0.75627 0.7838 0.0
C1545 C 0.12875 0.75446 0.80544 0.0
C1546 C 0.16429 0.75639 0.77628 0.0
C1547 C 0.1887 0.75391 0.7903 0.0
C1548 C 0.18296 0.75249 0.81187 0.0
H1549 H 0.3589 0.80831 0.81337 0.0
H1550 H 0.30779 0.80446 0.79957 0.0
C1551 C 0.15333 0.75275 0.81937 0.0
C1552 C 0.22048 0.75313 0.78292 0.0
H1553 H 0.28562 0.71308 0.79021 0.0
C1554 C 0.23274 0.77884 0.77317 0.0
C1555 C 0.23951 0.7282 0.78746 0.0
C1556 C 0.2271 0.69883 0.79598 0.0
C1557 C 0.26414 0.78151 0.77002 0.0
C1558 C 0.2836 0.75831 0.77743 0.0
C1559 C 0.2709 0.73122 0.7849 0.0
C1560 C 0.31627 0.76373 0.78158 0.0
C1561 C 0.27624 0.80965 0.75957 0.0
C1562 C 0.33839 0.74214 0.77612 0.0
C1563 C 0.36777 0.74405 0.78441 0.0
C1564 C 0.37523 0.76736 0.79845 0.0
C1565 C 0.35364 0.7899 0.80278 0.0
C1566 C 0.32448 0.788 0.79455 0.0
H1567 H 0.25987 0.81836 0.74779 0.0
H1568 H 0.27936 0.82766 0.77148 0.0
H1569 H 0.29831 0.8053 0.75176 0.0
H1570 H 0.33249 0.72302 0.76631 0.0
H1571 H 0.384 0.72636 0.78086 0.0
H1572 H 0.72421 0.12467 0.29446 0.0
H1573 H 0.72204 0.17797 0.2838 0.0
H1574 H 0.81389 0.19047 0.3054 0.0
H1575 H 0.81646 0.13705 0.31521 0.0
H1576 H 0.72546 0.22256 0.31049 0.0
H1577 H 0.81887 0.23958 0.25366 0.0
H1578 H 0.80554 0.20224 0.26086 0.0
H1579 H 0.83123 0.22259 0.27761 0.0
C1580 C 0.74415 0.1387 0.29638 0.0
C1581 C 0.77054 0.12681 0.30554 0.0
C1582 C 0.74295 0.16909 0.29026 0.0
C1583 C 0.768 0.18823 0.29341 0.0
C1584 C 0.79464 0.17607 0.30207 0.0
H1585 H 0.80454 0.37532 0.30943 0.0
H1586 H 0.80619 0.32161 0.30103 0.0
C1587 C 0.79603 0.14555 0.30784 0.0
C1588 C 0.76474 0.22148 0.29051 0.0
H1589 H 0.7984 0.28433 0.26964 0.0
C1590 C 0.7411 0.23601 0.30124 0.0
C1591 C 0.78551 0.2391 0.27877 0.0
C1592 C 0.81154 0.22501 0.26693 0.0
C1593 C 0.73843 0.26764 0.30148 0.0
C1594 C 0.75924 0.28537 0.28981 0.0
C1595 C 0.7823 0.27079 0.27843 0.0
C1596 C 0.75932 0.31899 0.29117 0.0
C1597 C 0.71451 0.2816 0.31542 0.0
C1598 C 0.73292 0.33593 0.28736 0.0
C1599 C 0.73149 0.3665 0.293 0.0
C1600 C 0.75681 0.38101 0.30194 0.0
C1601 C 0.78421 0.36473 0.30341 0.0
C1602 C 0.78535 0.334 0.29831 0.0
H1603 H 0.70592 0.26526 0.32726 0.0
H1604 H 0.7235 0.30168 0.32382 0.0
H1605 H 0.69496 0.28886 0.3057 0.0
H1606 H 0.71287 0.32511 0.2811 0.0
H1607 H 0.70998 0.37808 0.29148 0.0
H1608 H 0.37677 0.69534 0.1809 0.0
H1609 H 0.32291 0.69979 0.18961 0.0
H1610 H 0.33468 0.79521 0.20161 0.0
H1611 H 0.38843 0.79101 0.19231 0.0
H1612 H 0.28815 0.71942 0.22284 0.0
H1613 H 0.27421 0.79518 0.15388 0.0
H1614 H 0.30878 0.77464 0.15889 0.0
H1615 H 0.30052 0.80882 0.1731 0.0
C1616 C 0.36799 0.7171 0.18588 0.0
C1617 C 0.3866 0.74292 0.18573 0.0
C1618 C 0.33723 0.71964 0.1908 0.0
C1619 C 0.32468 0.74797 0.19575 0.0
C1620 C 0.34377 0.77329 0.19728 0.0
H1621 H 0.13587 0.80379 0.19295 0.0
H1622 H 0.18962 0.8021 0.20163 0.0
C1623 C 0.37443 0.77086 0.19209 0.0
C1624 C 0.29134 0.75136 0.19741 0.0
H1625 H 0.23071 0.78522 0.17384 0.0
C1626 C 0.27555 0.73396 0.21224 0.0
C1627 C 0.27495 0.77016 0.18343 0.0
C1628 C 0.29039 0.78806 0.16629 0.0
C1629 C 0.24377 0.73479 0.21343 0.0
C1630 C 0.22737 0.75341 0.19935 0.0
C1631 C 0.24327 0.77123 0.18482 0.0
C1632 C 0.19375 0.75351 0.19823 0.0
C1633 C 0.22816 0.71564 0.22971 0.0
C1634 C 0.17789 0.72663 0.19408 0.0
C1635 C 0.14692 0.72743 0.18954 0.0
C1636 C 0.13127 0.75521 0.18858 0.0
C1637 C 0.14694 0.78193 0.19378 0.0
C1638 C 0.17782 0.78105 0.19858 0.0
H1639 H 0.24306 0.71186 0.24347 0.0
H1640 H 0.20673 0.72629 0.23498 0.0
H1641 H 0.22284 0.69315 0.22291 0.0
H1642 H 0.18971 0.70516 0.1933 0.0
H1643 H 0.13551 0.70636 0.18593 0.0
H1644 H 0.70538 0.14734 0.66494 0.0
H1645 H 0.7071 0.19903 0.67807 0.0
H1646 H 0.78115 0.17503 0.71901 0.0
H1647 H 0.78026 0.12304 0.70523 0.0
H1648 H 0.70217 0.22569 0.717 0.0
H1649 H 0.81726 0.2422 0.68288 0.0
H1650 H 0.79457 0.20935 0.67704 0.0
H1651 H 0.81319 0.21253 0.70197 0.0
C1652 C 0.72206 0.153 0.67676 0.0
C1653 C 0.74317 0.13134 0.6837 0.0
C1654 C 0.7228 0.1825 0.68441 0.0
C1655 C 0.74459 0.19102 0.69924 0.0
C1656 C 0.76451 0.16902 0.70727 0.0
H1657 H 0.79428 0.38086 0.70745 0.0
H1658 H 0.79 0.32859 0.7188 0.0
C1659 C 0.76384 0.13932 0.69952 0.0
C1660 C 0.74749 0.22353 0.70463 0.0
H1661 H 0.79216 0.2849 0.6951 0.0
C1662 C 0.72206 0.2387 0.71265 0.0
C1663 C 0.77343 0.24039 0.6989 0.0
C1664 C 0.80115 0.22546 0.68959 0.0
C1665 C 0.72123 0.27042 0.71413 0.0
C1666 C 0.74661 0.28752 0.70731 0.0
C1667 C 0.77272 0.27206 0.70051 0.0
C1668 C 0.74593 0.32112 0.7048 0.0
C1669 C 0.69267 0.28491 0.72245 0.0
C1670 C 0.72201 0.33517 0.69401 0.0
C1671 C 0.72357 0.36574 0.68855 0.0
C1672 C 0.74997 0.38278 0.69249 0.0
C1673 C 0.7734 0.36901 0.70412 0.0
C1674 C 0.77117 0.33873 0.71045 0.0
H1675 H 0.68202 0.27037 0.73462 0.0
H1676 H 0.69697 0.30766 0.72919 0.0
H1677 H 0.676 0.2871 0.70953 0.0
H1678 H 0.70262 0.32227 0.68877 0.0
H1679 H 0.70442 0.37549 0.68038 0.0
H1680 H 0.34094 0.99128 0.27842 0.0
H1681 H 0.3702 0.0244 0.25523 0.0
H1682 H 0.35658 0.09895 0.2979 0.0
H1683 H 0.32604 0.06638 0.32051 0.0
H1684 H 0.35138 0.1185 0.25996 0.0
H1685 H 0.45572 0.04915 0.26394 0.0
H1686 H 0.42446 0.02791 0.25373 0.0
H1687 H 0.42327 0.04167 0.28029 0.0
C1688 C 0.34408 0.01478 0.28276 0.0
C1689 C 0.33132 0.02623 0.30129 0.0
C1690 C 0.36104 0.03363 0.26961 0.0
C1691 C 0.36634 0.064 0.27509 0.0
C1692 C 0.35298 0.07558 0.29337 0.0
H1693 H 0.51181 0.16879 0.21809 0.0
H1694 H 0.47937 0.14031 0.24218 0.0
C1695 C 0.33549 0.05694 0.30627 0.0
C1696 C 0.38568 0.08381 0.26182 0.0
H1697 H 0.4549 0.08821 0.23813 0.0
C1698 C 0.37411 0.11195 0.25531 0.0
C1699 C 0.41562 0.07565 0.25611 0.0
C1700 C 0.43062 0.04711 0.26408 0.0
C1701 C 0.3914 0.13193 0.24305 0.0
C1702 C 0.42066 0.12297 0.23631 0.0
C1703 C 0.43237 0.09501 0.24306 0.0
C1704 C 0.43961 0.14209 0.22228 0.0
C1705 C 0.37832 0.16269 0.23798 0.0
C1706 C 0.42813 0.15275 0.20311 0.0
C1707 C 0.44642 0.1697 0.18961 0.0
C1708 C 0.47684 0.17549 0.19472 0.0
C1709 C 0.48842 0.16467 0.21379 0.0
C1710 C 0.46992 0.14834 0.22752 0.0
H1711 H 0.36148 0.16983 0.24994 0.0
H1712 H 0.39627 0.18025 0.23701 0.0
H1713 H 0.36641 0.1616 0.22269 0.0
H1714 H 0.40523 0.14739 0.19831 0.0
H1715 H 0.43705 0.17731 0.17482 0.0
H1716 H 0.46838 0.35201 0.8125 0.0
H1717 H 0.43496 0.38094 0.78947 0.0
H1718 H 0.41088 0.29892 0.75677 0.0
H1719 H 0.44533 0.26996 0.77932 0.0
H1720 H 0.41873 0.34351 0.72996 0.0
H1721 H 0.34478 0.38475 0.7938 0.0
H1722 H 0.38348 0.39547 0.79796 0.0
H1723 H 0.37319 0.35597 0.79793 0.0
C1724 C 0.45599 0.34014 0.80038 0.0
C1725 C 0.45923 0.3087 0.7978 0.0
C1726 C 0.43671 0.35667 0.78733 0.0
C1727 C 0.41969 0.34198 0.7718 0.0
C1728 C 0.42356 0.31069 0.76879 0.0
H1729 H 0.26682 0.4315 0.71033 0.0
H1730 H 0.29858 0.39849 0.73208 0.0
C1731 C 0.44328 0.29418 0.78163 0.0
C1732 C 0.39821 0.35938 0.75853 0.0
H1733 H 0.33955 0.40978 0.7607 0.0
C1734 C 0.40124 0.35779 0.73667 0.0
C1735 C 0.37492 0.37752 0.76727 0.0
C1736 C 0.36866 0.37828 0.79051 0.0
C1737 C 0.38225 0.37452 0.72333 0.0
C1738 C 0.3603 0.3942 0.73212 0.0
C1739 C 0.35667 0.39508 0.75396 0.0
C1740 C 0.34106 0.41425 0.71899 0.0
C1741 C 0.38567 0.37048 0.69997 0.0
C1742 C 0.35436 0.43453 0.70475 0.0
C1743 C 0.33628 0.45301 0.69214 0.0
C1744 C 0.30453 0.45212 0.69388 0.0
C1745 C 0.29123 0.43265 0.70867 0.0
C1746 C 0.30935 0.41377 0.72106 0.0
H1747 H 0.3956 0.34803 0.69612 0.0
H1748 H 0.36354 0.37263 0.69181 0.0
H1749 H 0.40123 0.38809 0.69379 0.0
H1750 H 0.37877 0.43613 0.70339 0.0
H1751 H 0.3472 0.46816 0.68112 0.0
H1752 H 0.16004 0.46572 0.31163 0.0
H1753 H 0.12948 0.43033 0.29128 0.0
H1754 H 0.20751 0.40837 0.25341 0.0
H1755 H 0.23792 0.44482 0.27322 0.0
H1756 H 0.15984 0.41441 0.22967 0.0
H1757 H 0.12848 0.34036 0.29609 0.0
H1758 H 0.11708 0.37873 0.30077 0.0
H1759 H 0.15678 0.36962 0.2984 0.0
C1760 C 0.17068 0.45332 0.29897 0.0
C1761 C 0.20139 0.45784 0.29407 0.0
C1762 C 0.15325 0.43289 0.28747 0.0
C1763 C 0.1664 0.41601 0.27121 0.0
C1764 C 0.19695 0.42095 0.26602 0.0
H1765 H 0.07224 0.26182 0.21485 0.0
H1766 H 0.10686 0.29363 0.23529 0.0
C1767 C 0.21428 0.44181 0.27729 0.0
C1768 C 0.14799 0.39393 0.25921 0.0
H1769 H 0.09903 0.33459 0.26473 0.0
C1770 C 0.14679 0.39677 0.23733 0.0
C1771 C 0.13146 0.37045 0.26914 0.0
C1772 C 0.13378 0.36438 0.29236 0.0
C1773 C 0.12879 0.37743 0.22517 0.0
C1774 C 0.11058 0.35538 0.23524 0.0
C1775 C 0.11256 0.35185 0.25705 0.0
C1776 C 0.08905 0.33608 0.22345 0.0
C1777 C 0.12987 0.38066 0.20163 0.0
C1778 C 0.067 0.34937 0.21053 0.0
C1779 C 0.04763 0.33131 0.19866 0.0
C1780 C 0.0494 0.29958 0.19991 0.0
C1781 C 0.07042 0.28623 0.21362 0.0
C1782 C 0.09021 0.30436 0.22524 0.0
H1783 H 0.15168 0.39071 0.19638 0.0
H1784 H 0.12692 0.35846 0.19373 0.0
H1785 H 0.11141 0.39604 0.19646 0.0
H1786 H 0.0649 0.37377 0.20949 0.0
H1787 H 0.03127 0.34221 0.18848 0.0
H1788 H 0.04517 0.22592 0.7706 0.0
H1789 H 0.07503 0.1916 0.74855 0.0
H1790 H 0.0996 0.13936 0.80314 0.0
H1791 H 0.06938 0.17286 0.8251 0.0
H1792 H 0.13522 0.17824 0.74941 0.0
H1793 H 0.06872 0.07403 0.76463 0.0
H1794 H 0.05526 0.1112 0.77183 0.0
H1795 H 0.08204 0.09154 0.78823 0.0
C1796 C 0.05684 0.20704 0.77787 0.0
C1797 C 0.05468 0.20197 0.79956 0.0
C1798 C 0.07387 0.18747 0.76527 0.0
C1799 C 0.08901 0.16256 0.77415 0.0
C1800 C 0.08741 0.1579 0.79585 0.0
H1801 H 0.22107 0.03295 0.72741 0.0
H1802 H 0.19 0.06657 0.74925 0.0
C1803 C 0.07024 0.17723 0.80841 0.0
C1804 C 0.1072 0.14186 0.76088 0.0
H1805 H 0.11659 0.06739 0.74777 0.0
C1806 C 0.13101 0.15405 0.74895 0.0
C1807 C 0.10162 0.11027 0.76026 0.0
C1808 C 0.07533 0.09601 0.77176 0.0
C1809 C 0.14973 0.13539 0.73673 0.0
C1810 C 0.14448 0.10386 0.73649 0.0
C1811 C 0.12064 0.09162 0.74826 0.0
C1812 C 0.16297 0.08336 0.72347 0.0
C1813 C 0.1752 0.14932 0.72424 0.0
C1814 C 0.15767 0.08162 0.70189 0.0
C1815 C 0.17515 0.06242 0.68943 0.0
C1816 C 0.19836 0.04468 0.69835 0.0
C1817 C 0.20345 0.04636 0.72006 0.0
C1818 C 0.18576 0.06549 0.73255 0.0
H1819 H 0.17837 0.17371 0.72788 0.0
H1820 H 0.19674 0.1371 0.72741 0.0
H1821 H 0.17024 0.14705 0.70727 0.0
H1822 H 0.14003 0.09518 0.69469 0.0
H1823 H 0.17058 0.0617 0.67277 0.0
H1824 H 0.68193 0.93979 0.67252 0.0
H1825 H 0.64995 0.90786 0.69461 0.0
H1826 H 0.63276 0.9839 0.73538 0.0
H1827 H 0.66344 0.01636 0.71262 0.0
H1828 H 0.65218 0.88968 0.73287 0.0
H1829 H 0.54817 0.95849 0.72404 0.0
H1830 H 0.58178 0.96552 0.70875 0.0
H1831 H 0.57847 0.98036 0.73495 0.0
C1832 C 0.67141 0.94967 0.68625 0.0
C1833 C 0.67495 0.9806 0.6908 0.0
C1834 C 0.65309 0.93141 0.69884 0.0
C1835 C 0.63829 0.94362 0.71639 0.0
C1836 C 0.64303 0.9742 0.72152 0.0
H1837 H 0.56254 0.83495 0.81684 0.0
H1838 H 0.59526 0.86388 0.79337 0.0
C1839 C 0.66081 0.99266 0.70864 0.0
C1840 C 0.61804 0.92425 0.72929 0.0
H1841 H 0.54741 0.92088 0.75094 0.0
C1842 C 0.62918 0.8964 0.73668 0.0
C1843 C 0.58775 0.9326 0.73385 0.0
C1844 C 0.57324 0.9607 0.72477 0.0
C1845 C 0.61112 0.87697 0.74881 0.0
C1846 C 0.58151 0.88626 0.75454 0.0
C1847 C 0.5702 0.91385 0.74681 0.0
C1848 C 0.56189 0.86796 0.76861 0.0
C1849 C 0.62383 0.84642 0.75485 0.0
C1850 C 0.53179 0.86152 0.76294 0.0
C1851 C 0.51273 0.84582 0.77666 0.0
C1852 C 0.5236 0.83583 0.79614 0.0
C1853 C 0.55377 0.84192 0.80173 0.0
C1854 C 0.57257 0.85828 0.78825 0.0
H1855 H 0.64113 0.83865 0.7434 0.0
H1856 H 0.63513 0.8482 0.77033 0.0
H1857 H 0.60578 0.82897 0.75587 0.0
H1858 H 0.52295 0.86883 0.74793 0.0
H1859 H 0.48953 0.84142 0.77202 0.0
H1860 H 0.55167 0.72732 0.22004 0.0
H1861 H 0.5844 0.69608 0.24232 0.0
H1862 H 0.59669 0.63282 0.1916 0.0
H1863 H 0.56389 0.66353 0.16934 0.0
H1864 H 0.5831 0.60516 0.22962 0.0
H1865 H 0.67707 0.688 0.23786 0.0
H1866 H 0.64032 0.70224 0.24497 0.0
H1867 H 0.6478 0.69183 0.21826 0.0
C1868 C 0.56136 0.70678 0.21362 0.0
C1869 C 0.55522 0.69798 0.19289 0.0
C1870 C 0.5802 0.68907 0.22633 0.0
C1871 C 0.59329 0.6624 0.21848 0.0
C1872 C 0.5869 0.65341 0.19791 0.0
H1873 H 0.73987 0.55557 0.27233 0.0
H1874 H 0.70782 0.58663 0.24942 0.0
C1875 C 0.56813 0.67103 0.18522 0.0
C1876 C 0.6132 0.6434 0.23175 0.0
H1877 H 0.68017 0.64338 0.25854 0.0
C1878 C 0.60435 0.61347 0.23593 0.0
C1879 C 0.64109 0.65423 0.23968 0.0
C1880 C 0.65237 0.68574 0.23485 0.0
C1881 C 0.62244 0.59417 0.24812 0.0
C1882 C 0.64989 0.60528 0.25657 0.0
C1883 C 0.65901 0.63504 0.25212 0.0
C1884 C 0.66921 0.58643 0.27033 0.0
C1885 C 0.61222 0.56194 0.25165 0.0
C1886 C 0.65817 0.57638 0.28971 0.0
C1887 C 0.67633 0.5587 0.30278 0.0
C1888 C 0.70599 0.5508 0.29677 0.0
C1889 C 0.7171 0.56113 0.27738 0.0
C1890 C 0.69887 0.57891 0.2643 0.0
H1891 H 0.59512 0.5548 0.23988 0.0
H1892 H 0.63172 0.54605 0.25101 0.0
H1893 H 0.60172 0.56008 0.2674 0.0
H1894 H 0.63553 0.58242 0.2948 0.0
H1895 H 0.66707 0.55133 0.31765 0.0
H1896 H 0.84793 0.53836 0.68369 0.0
H1897 H 0.88007 0.57058 0.70536 0.0
H1898 H 0.8009 0.6046 0.73737 0.0
H1899 H 0.76865 0.5715 0.71622 0.0
H1900 H 0.88209 0.6302 0.70792 0.0
H1901 H 0.85387 0.58366 0.78618 0.0
H1902 H 0.84268 0.56516 0.76224 0.0
H1903 H 0.82107 0.59662 0.7722 0.0
C1904 C 0.83737 0.55249 0.69549 0.0
C1905 C 0.80577 0.55232 0.69834 0.0
C1906 C 0.85578 0.57093 0.70784 0.0
C1907 C 0.84298 0.58975 0.72319 0.0
C1908 C 0.81139 0.5897 0.72602 0.0
H1909 H 0.939 0.74373 0.77801 0.0
H1910 H 0.90645 0.71139 0.75645 0.0
C1911 C 0.79296 0.57088 0.71386 0.0
C1912 C 0.86273 0.6101 0.73564 0.0
H1913 H 0.8821 0.62951 0.78559 0.0
C1914 C 0.8822 0.62996 0.72491 0.0
C1915 C 0.86312 0.60953 0.7578 0.0
C1916 C 0.8443 0.58739 0.77028 0.0
C1917 C 0.90201 0.64928 0.73571 0.0
C1918 C 0.90163 0.64946 0.75787 0.0
C1919 C 0.88219 0.62957 0.76859 0.0
C1920 C 0.92185 0.6693 0.77036 0.0
C1921 C 0.9237 0.66862 0.72322 0.0
C1922 C 0.94083 0.65651 0.78564 0.0
C1923 C 0.9589 0.67495 0.79822 0.0
C1924 C 0.95856 0.70657 0.79566 0.0
C1925 C 0.93996 0.7194 0.78014 0.0
C1926 C 0.92147 0.70093 0.76776 0.0
H1927 H 0.9274 0.65933 0.70725 0.0
H1928 H 0.91406 0.69171 0.72148 0.0
H1929 H 0.94599 0.67049 0.73118 0.0
H1930 H 0.94153 0.6322 0.78794 0.0
H1931 H 0.97315 0.66438 0.80996 0.0
H1932 H 0.95784 0.77268 0.22291 0.0
H1933 H 0.92581 0.80555 0.24459 0.0
H1934 H 0.92756 0.87409 0.1964 0.0
H1935 H 0.95954 0.84179 0.17479 0.0
H1936 H 0.93934 0.89605 0.23703 0.0
H1937 H 0.83522 0.82526 0.23373 0.0
H1938 H 0.86904 0.80602 0.24215 0.0
H1939 H 0.86654 0.82024 0.21584 0.0
C1940 C 0.95142 0.79476 0.21695 0.0
C1941 C 0.96119 0.80456 0.1971 0.0
C1942 C 0.933 0.8134 0.22929 0.0
C1943 C 0.92407 0.84203 0.22193 0.0
C1944 C 0.93413 0.852 0.20229 0.0
H1945 H 0.78391 0.963 0.26872 0.0
H1946 H 0.81598 0.93037 0.24691 0.0
C1947 C 0.95242 0.83345 0.18997 0.0
C1948 C 0.90456 0.86202 0.2347 0.0
H1949 H 0.83365 0.86852 0.25562 0.0
C1950 C 0.91624 0.89006 0.24113 0.0
C1951 C 0.87433 0.85424 0.23969 0.0
C1952 C 0.86033 0.82493 0.23238 0.0
C1953 C 0.89855 0.91044 0.2527 0.0
C1954 C 0.86856 0.90236 0.25812 0.0
C1955 C 0.85673 0.87451 0.25146 0.0
C1956 C 0.84936 0.9223 0.27111 0.0
C1957 C 0.91194 0.94062 0.25882 0.0
C1958 C 0.85749 0.92826 0.29191 0.0
C1959 C 0.83931 0.94675 0.30436 0.0
C1960 C 0.81256 0.95962 0.29626 0.0
C1961 C 0.80442 0.95356 0.27539 0.0
C1962 C 0.82264 0.93489 0.26294 0.0
H1963 H 0.93216 0.94632 0.24921 0.0
H1964 H 0.89495 0.95904 0.25711 0.0
H1965 H 0.91904 0.93973 0.27548 0.0
H1966 H 0.8778 0.91835 0.29857 0.0
H1967 H 0.84621 0.95079 0.32039 0.0
loop_
_geom_bond_atom_site_label_1
_geom_bond_atom_site_label_2
_geom_bond_distance
_geom_bond_site_symmetry_2
_ccdc_geom_bond_type
Co0 N4 2.148 . S
Co0 N10 2.128 . S
Co0 N20 2.194 . S
Co0 O25 2.351 . S
Co0 O26 2.155 . S
Co0 O27 2.096 . S
C1 N4 1.301 . S
C1 N5 1.328 . S
C1 H6 0.930 . S
C2 C3 1.333 . S
C2 N4 1.317 . S
C2 H7 0.930 . S
C3 C2 1.333 . S
C3 N5 1.350 . S
C3 H29 0.931 . S
N4 Co0 2.148 . S
N4 C1 1.301 . S
N4 C2 1.317 . S
N5 C1 1.328 . S
N5 C3 1.350 . S
H6 C1 0.930 . S
H7 C2 0.930 . S
C8 O9 1.224 . S
C8 O27 1.247 . S
O9 C8 1.224 . S
N10 Co0 2.128 . S
N10 C11 1.355 . S
N10 C13 1.311 . S
C11 N10 1.355 . S
C11 C12 1.363 . S
C11 H23 0.929 . S
C12 C11 1.363 . S
C12 N14 1.375 . S
C12 H30 0.931 . S
C13 N10 1.311 . S
C13 N14 1.347 . S
C13 H24 0.929 . S
N14 C12 1.375 . S
N14 C13 1.347 . S
C15 C18 1.365 . S
C15 N20 1.328 . S
C15 H21 0.929 . S
C16 C17 1.362 . S
C16 C19 1.378 . S
C16 H31 0.929 . S
C17 C16 1.362 . S
C17 C18 1.366 . S
C18 C15 1.365 . S
C18 C17 1.366 . S
C18 H32 0.930 . S
C19 C16 1.378 . S
C19 N20 1.315 . S
C19 H22 0.930 . S
N20 Co0 2.194 . S
N20 C15 1.328 . S
N20 C19 1.315 . S
H21 C15 0.929 . S
H22 C19 0.930 . S
H23 C11 0.929 . S
H24 C13 0.929 . S
O25 Co0 2.351 . S
O25 C28 1.244 . S
O26 Co0 2.155 . S
O26 C28 1.240 . S
O27 Co0 2.096 . S
O27 C8 1.247 . S
C28 O25 1.244 . S
C28 O26 1.240 . S
H29 C3 0.931 . S
H30 C12 0.931 . S
H31 C16 0.929 . S
H32 C18 0.930 . S
Co33 N37 2.148 . S
Co33 N43 2.128 . S
Co33 N53 2.194 . S
Co33 O58 2.351 . S
Co33 O59 2.155 . S
Co33 O60 2.096 . S
C34 N37 1.301 . S
C34 N38 1.328 . S
C34 H39 0.930 . S
C35 C36 1.333 . S
C35 N37 1.317 . S
C35 H40 0.930 . S
C36 C35 1.333 . S
C36 N38 1.350 . S
C36 H62 0.931 . S
N37 Co33 2.148 . S
N37 C34 1.301 . S
N37 C35 1.317 . S
N38 C34 1.328 . S
N38 C36 1.350 . S
H39 C34 0.930 . S
H40 C35 0.930 . S
C41 O42 1.224 . S
C41 O60 1.247 . S
O42 C41 1.224 . S
N43 Co33 2.128 . S
N43 C44 1.355 . S
N43 C46 1.311 . S
C44 N43 1.355 . S
C44 C45 1.363 . S
C44 H56 0.929 . S
C45 C44 1.363 . S
C45 N47 1.375 . S
C45 H63 0.931 . S
C46 N43 1.311 . S
C46 N47 1.347 . S
C46 H57 0.929 . S
N47 C45 1.375 . S
N47 C46 1.347 . S
C48 C51 1.365 . S
C48 N53 1.328 . S
C48 H54 0.929 . S
C49 C50 1.362 . S
C49 C52 1.378 . S
C49 H64 0.929 . S
C50 C49 1.362 . S
C50 C51 1.366 . S
C51 C48 1.365 . S
C51 C50 1.366 . S
C51 H65 0.930 . S
C52 C49 1.378 . S
C52 N53 1.315 . S
C52 H55 0.930 . S
N53 Co33 2.194 . S
N53 C48 1.328 . S
N53 C52 1.315 . S
H54 C48 0.929 . S
H55 C52 0.930 . S
H56 C44 0.929 . S
H57 C46 0.929 . S
O58 Co33 2.351 . S
O58 C61 1.244 . S
O59 Co33 2.155 . S
O59 C61 1.240 . S
O60 Co33 2.096 . S
O60 C41 1.247 . S
C61 O58 1.244 . S
C61 O59 1.240 . S
H62 C36 0.931 . S
H63 C45 0.931 . S
H64 C49 0.929 . S
H65 C51 0.930 . S
Co66 N70 2.148 . S
Co66 N76 2.128 . S
Co66 N86 2.194 1_455 S
Co66 O91 2.351 1_455 S
Co66 O92 2.155 . S
Co66 O93 2.096 . S
C67 N70 1.301 . S
C67 N71 1.328 . S
C67 H72 0.930 1_455 S
C68 C69 1.333 . S
C68 N70 1.317 . S
C68 H73 0.930 . S
C69 C68 1.333 . S
C69 N71 1.350 . S
C69 H95 0.931 . S
N70 Co66 2.148 . S
N70 C67 1.301 . S
N70 C68 1.317 . S
N71 C67 1.328 . S
N71 C69 1.350 . S
H72 C67 0.930 1_655 S
H73 C68 0.930 . S
C74 O75 1.224 . S
C74 O93 1.247 . S
O75 C74 1.224 . S
N76 Co66 2.128 . S
N76 C77 1.355 1_455 S
N76 C79 1.311 . S
C77 N76 1.355 1_655 S
C77 C78 1.363 . S
C77 H89 0.929 . S
C78 C77 1.363 . S
C78 N80 1.390 . S
C78 H96 0.931 . S
C79 N76 1.311 . S
C79 N80 1.338 1_455 S
C79 H90 0.929 . S
N80 C78 1.390 . S
N80 C79 1.338 1_655 S
C81 C84 1.365 . S
C81 N86 1.328 . S
C81 H87 0.929 . S
C82 C83 1.362 . S
C82 C85 1.378 . S
C82 H97 0.929 . S
C83 C82 1.362 . S
C83 C84 1.366 . S
C84 C81 1.365 . S
C84 C83 1.366 . S
C84 H98 0.930 . S
C85 C82 1.378 . S
C85 N86 1.315 . S
C85 H88 0.930 . S
N86 Co66 2.194 1_655 S
N86 C81 1.328 . S
N86 C85 1.315 . S
H87 C81 0.929 . S
H88 C85 0.930 . S
H89 C77 0.929 . S
H90 C79 0.929 . S
O91 Co66 2.351 1_655 S
O91 C94 1.244 1_655 S
O92 Co66 2.155 . S
O92 C94 1.240 . S
O93 Co66 2.096 . S
O93 C74 1.247 . S
C94 O91 1.244 1_455 S
C94 O92 1.240 . S
H95 C69 0.931 . S
H96 C78 0.931 . S
H97 C82 0.929 . S
H98 C84 0.930 . S
Co99 N103 2.148 . S
Co99 N109 2.128 . S
Co99 N119 2.194 1_545 S
Co99 O124 2.351 1_545 S
Co99 O125 2.155 . S
Co99 O126 2.096 . S
C100 N103 1.301 . S
C100 N104 1.328 . S
C100 H105 0.930 1_545 S
C101 C102 1.333 . S
C101 N103 1.317 . S
C101 H106 0.930 . S
C102 C101 1.333 . S
C102 N104 1.350 . S
C102 H128 0.931 . S
N103 Co99 2.148 . S
N103 C100 1.301 . S
N103 C101 1.317 . S
N104 C100 1.328 . S
N104 C102 1.350 . S
H105 C100 0.930 1_565 S
H106 C101 0.930 . S
C107 O108 1.224 . S
C107 O126 1.247 . S
O108 C107 1.224 . S
N109 Co99 2.128 . S
N109 C110 1.355 1_545 S
N109 C112 1.311 . S
C110 N109 1.355 1_565 S
C110 C111 1.363 . S
C110 H122 0.929 . S
C111 C110 1.363 . S
C111 N113 1.390 . S
C111 H129 0.931 . S
C112 N109 1.311 . S
C112 N113 1.338 1_545 S
C112 H123 0.929 . S
N113 C111 1.390 . S
N113 C112 1.338 1_565 S
C114 C117 1.365 . S
C114 N119 1.328 . S
C114 H120 0.929 . S
C115 C116 1.362 . S
C115 C118 1.378 . S
C115 H130 0.929 . S
C116 C115 1.362 . S
C116 C117 1.366 . S
C117 C114 1.365 . S
C117 C116 1.366 . S
C117 H131 0.930 . S
C118 C115 1.378 . S
C118 N119 1.315 . S
C118 H121 0.930 . S
N119 Co99 2.194 1_565 S
N119 C114 1.328 . S
N119 C118 1.315 . S
H120 C114 0.929 . S
H121 C118 0.930 . S
H122 C110 0.929 . S
H123 C112 0.929 . S
O124 Co99 2.351 1_565 S
O124 C127 1.244 1_565 S
O125 Co99 2.155 . S
O125 C127 1.240 . S
O126 Co99 2.096 . S
O126 C107 1.247 . S
C127 O124 1.244 1_545 S
C127 O125 1.240 . S
H128 C102 0.931 . S
H129 C111 0.931 . S
H130 C115 0.929 . S
H131 C117 0.930 . S
Co132 N136 2.148 . S
Co132 N142 2.128 . S
Co132 N152 2.194 . S
Co132 O157 2.351 . S
Co132 O158 2.155 . S
Co132 O159 2.096 . S
C133 N136 1.301 . S
C133 N137 1.328 . S
C133 H138 0.930 . S
C134 C135 1.333 . S
C134 N136 1.317 . S
C134 H139 0.930 . S
C135 C134 1.333 . S
C135 N137 1.350 . S
C135 H161 0.931 . S
N136 Co132 2.148 . S
N136 C133 1.301 . S
N136 C134 1.317 . S
N137 C133 1.328 . S
N137 C135 1.350 . S
H138 C133 0.930 . S
H139 C134 0.930 . S
C140 O141 1.224 . S
C140 O159 1.247 . S
O141 C140 1.224 . S
N142 Co132 2.128 . S
N142 C143 1.355 . S
N142 C145 1.311 . S
C143 N142 1.355 . S
C143 C144 1.363 . S
C143 H155 0.929 . S
C144 C143 1.363 . S
C144 N146 1.375 . S
C144 H162 0.931 . S
C145 N142 1.311 . S
C145 N146 1.347 . S
C145 H156 0.929 . S
N146 C144 1.375 . S
N146 C145 1.347 . S
C147 C150 1.365 . S
C147 N152 1.328 . S
C147 H153 0.929 . S
C148 C149 1.362 . S
C148 C151 1.378 . S
C148 H163 0.929 . S
C149 C148 1.362 . S
C149 C150 1.366 . S
C150 C147 1.365 . S
C150 C149 1.366 . S
C150 H164 0.930 . S
C151 C148 1.378 . S
C151 N152 1.315 . S
C151 H154 0.930 . S
N152 Co132 2.194 . S
N152 C147 1.328 . S
N152 C151 1.315 . S
H153 C147 0.929 . S
H154 C151 0.930 . S
H155 C143 0.929 . S
H156 C145 0.929 . S
O157 Co132 2.351 . S
O157 C160 1.244 . S
O158 Co132 2.155 . S
O158 C160 1.240 . S
O159 Co132 2.096 . S
O159 C140 1.247 . S
C160 O157 1.244 . S
C160 O158 1.240 . S
H161 C135 0.931 . S
H162 C144 0.931 . S
H163 C148 0.929 . S
H164 C150 0.930 . S
Co165 N169 2.148 . S
Co165 N175 2.128 . S
Co165 N185 2.194 . S
Co165 O190 2.351 . S
Co165 O191 2.155 . S
Co165 O192 2.096 . S
C166 N169 1.301 . S
C166 N170 1.328 . S
C166 H171 0.930 . S
C167 C168 1.333 . S
C167 N169 1.317 . S
C167 H172 0.930 . S
C168 C167 1.333 . S
C168 N170 1.350 . S
C168 H194 0.931 . S
N169 Co165 2.148 . S
N169 C166 1.301 . S
N169 C167 1.317 . S
N170 C166 1.328 . S
N170 C168 1.350 . S
H171 C166 0.930 . S
H172 C167 0.930 . S
C173 O174 1.224 . S
C173 O192 1.247 . S
O174 C173 1.224 . S
N175 Co165 2.128 . S
N175 C176 1.355 . S
N175 C178 1.311 . S
C176 N175 1.355 . S
C176 C177 1.363 . S
C176 H188 0.929 . S
C177 C176 1.363 . S
C177 N179 1.375 . S
C177 H195 0.931 . S
C178 N175 1.311 . S
C178 N179 1.347 . S
C178 H189 0.929 . S
N179 C177 1.375 . S
N179 C178 1.347 . S
C180 C183 1.365 . S
C180 N185 1.328 . S
C180 H186 0.929 . S
C181 C182 1.362 . S
C181 C184 1.378 . S
C181 H196 0.929 . S
C182 C181 1.362 . S
C182 C183 1.366 . S
C183 C180 1.365 . S
C183 C182 1.366 . S
C183 H197 0.930 . S
C184 C181 1.378 . S
C184 N185 1.315 . S
C184 H187 0.930 . S
N185 Co165 2.194 . S
N185 C180 1.328 . S
N185 C184 1.315 . S
H186 C180 0.929 . S
H187 C184 0.930 . S
H188 C176 0.929 . S
H189 C178 0.929 . S
O190 Co165 2.351 . S
O190 C193 1.244 . S
O191 Co165 2.155 . S
O191 C193 1.240 . S
O192 Co165 2.096 . S
O192 C173 1.247 . S
C193 O190 1.244 . S
C193 O191 1.240 . S
H194 C168 0.931 . S
H195 C177 0.931 . S
H196 C181 0.929 . S
H197 C183 0.930 . S
Co198 N202 2.148 . S
Co198 N208 2.128 . S
Co198 N218 2.194 1_455 S
Co198 O223 2.351 1_455 S
Co198 O224 2.155 . S
Co198 O225 2.096 . S
C199 N202 1.301 . S
C199 N203 1.328 . S
C199 H204 0.930 1_455 S
C200 C201 1.333 . S
C200 N202 1.317 . S
C200 H205 0.930 . S
C201 C200 1.333 . S
C201 N203 1.350 . S
C201 H227 0.931 . S
N202 Co198 2.148 . S
N202 C199 1.301 . S
N202 C200 1.317 . S
N203 C199 1.328 . S
N203 C201 1.350 . S
H204 C199 0.930 1_655 S
H205 C200 0.930 . S
C206 O207 1.224 . S
C206 O225 1.247 . S
O207 C206 1.224 . S
N208 Co198 2.128 . S
N208 C209 1.355 1_455 S
N208 C211 1.311 . S
C209 N208 1.355 1_655 S
C209 C210 1.363 . S
C209 H221 0.929 . S
C210 C209 1.363 . S
C210 N212 1.390 . S
C210 H228 0.931 . S
C211 N208 1.311 . S
C211 N212 1.338 1_455 S
C211 H222 0.929 . S
N212 C210 1.390 . S
N212 C211 1.338 1_655 S
C213 C216 1.365 . S
C213 N218 1.328 . S
C213 H219 0.929 . S
C214 C215 1.362 . S
C214 C217 1.378 . S
C214 H229 0.929 . S
C215 C214 1.362 . S
C215 C216 1.366 . S
C216 C213 1.365 . S
C216 C215 1.366 . S
C216 H230 0.930 . S
C217 C214 1.378 . S
C217 N218 1.315 . S
C217 H220 0.930 . S
N218 Co198 2.194 1_655 S
N218 C213 1.328 . S
N218 C217 1.315 . S
H219 C213 0.929 . S
H220 C217 0.930 . S
H221 C209 0.929 . S
H222 C211 0.929 . S
O223 Co198 2.351 1_655 S
O223 C226 1.244 1_655 S
O224 Co198 2.155 . S
O224 C226 1.240 . S
O225 Co198 2.096 . S
O225 C206 1.247 . S
C226 O223 1.244 1_455 S
C226 O224 1.240 . S
H227 C201 0.931 . S
H228 C210 0.931 . S
H229 C214 0.929 . S
H230 C216 0.930 . S
Co231 N235 2.148 . S
Co231 N241 2.128 . S
Co231 N251 2.194 1_545 S
Co231 O256 2.351 1_545 S
Co231 O257 2.155 . S
Co231 O258 2.096 . S
C232 N235 1.301 . S
C232 N236 1.328 . S
C232 H237 0.930 1_545 S
C233 C234 1.333 . S
C233 N235 1.317 . S
C233 H238 0.930 . S
C234 C233 1.333 . S
C234 N236 1.350 . S
C234 H260 0.931 . S
N235 Co231 2.148 . S
N235 C232 1.301 . S
N235 C233 1.317 . S
N236 C232 1.328 . S
N236 C234 1.350 . S
H237 C232 0.930 1_565 S
H238 C233 0.930 . S
C239 O240 1.224 . S
C239 O258 1.247 . S
O240 C239 1.224 . S
N241 Co231 2.128 . S
N241 C242 1.355 1_545 S
N241 C244 1.311 . S
C242 N241 1.355 1_565 S
C242 C243 1.363 . S
C242 H254 0.929 . S
C243 C242 1.363 . S
C243 N245 1.390 . S
C243 H261 0.931 . S
C244 N241 1.311 . S
C244 N245 1.338 1_545 S
C244 H255 0.929 . S
N245 C243 1.390 . S
N245 C244 1.338 1_565 S
C246 C249 1.365 . S
C246 N251 1.328 . S
C246 H252 0.929 . S
C247 C248 1.362 . S
C247 C250 1.378 . S
C247 H262 0.929 . S
C248 C247 1.362 . S
C248 C249 1.366 . S
C249 C246 1.365 . S
C249 C248 1.366 . S
C249 H263 0.930 . S
C250 C247 1.378 . S
C250 N251 1.315 . S
C250 H253 0.930 . S
N251 Co231 2.194 1_565 S
N251 C246 1.328 . S
N251 C250 1.315 . S
H252 C246 0.929 . S
H253 C250 0.930 . S
H254 C242 0.929 . S
H255 C244 0.929 . S
O256 Co231 2.351 1_565 S
O256 C259 1.244 1_565 S
O257 Co231 2.155 . S
O257 C259 1.240 . S
O258 Co231 2.096 . S
O258 C239 1.247 . S
C259 O256 1.244 1_545 S
C259 O257 1.240 . S
H260 C234 0.931 . S
H261 C243 0.931 . S
H262 C247 0.929 . S
H263 C249 0.930 . S
Co264 N268 2.148 . S
Co264 N274 2.128 . S
Co264 N284 2.194 . S
Co264 O289 2.351 . S
Co264 O290 2.155 . S
Co264 O291 2.096 . S
C265 N268 1.301 . S
C265 N269 1.328 . S
C265 H270 0.930 . S
C266 C267 1.333 . S
C266 N268 1.317 . S
C266 H271 0.930 . S
C267 C266 1.333 . S
C267 N269 1.350 . S
C267 H293 0.931 . S
N268 Co264 2.148 . S
N268 C265 1.301 . S
N268 C266 1.317 . S
N269 C265 1.328 . S
N269 C267 1.350 . S
H270 C265 0.930 . S
H271 C266 0.930 . S
C272 O273 1.224 . S
C272 O291 1.247 . S
O273 C272 1.224 . S
N274 Co264 2.128 . S
N274 C275 1.355 . S
N274 C277 1.311 . S
C275 N274 1.355 . S
C275 C276 1.363 . S
C275 H287 0.929 . S
C276 C275 1.363 . S
C276 N278 1.375 . S
C276 H294 0.931 . S
C277 N274 1.311 . S
C277 N278 1.347 . S
C277 H288 0.929 . S
N278 C276 1.375 . S
N278 C277 1.347 . S
C279 C282 1.365 . S
C279 N284 1.328 . S
C279 H285 0.929 . S
C280 C281 1.362 . S
C280 C283 1.378 . S
C280 H295 0.929 . S
C281 C280 1.362 . S
C281 C282 1.366 . S
C282 C279 1.365 . S
C282 C281 1.366 . S
C282 H296 0.930 . S
C283 C280 1.378 . S
C283 N284 1.315 . S
C283 H286 0.930 . S
N284 Co264 2.194 . S
N284 C279 1.328 . S
N284 C283 1.315 . S
H285 C279 0.929 . S
H286 C283 0.930 . S
H287 C275 0.929 . S
H288 C277 0.929 . S
O289 Co264 2.351 . S
O289 C292 1.244 . S
O290 Co264 2.155 . S
O290 C292 1.240 . S
O291 Co264 2.096 . S
O291 C272 1.247 . S
C292 O289 1.244 . S
C292 O290 1.240 . S
H293 C267 0.931 . S
H294 C276 0.931 . S
H295 C280 0.929 . S
H296 C282 0.930 . S
Co297 N301 2.148 . S
Co297 N307 2.128 . S
Co297 N317 2.194 . S
Co297 O322 2.351 . S
Co297 O323 2.155 . S
Co297 O324 2.096 . S
C298 N301 1.301 . S
C298 N302 1.328 . S
C298 H303 0.930 . S
C299 C300 1.333 . S
C299 N301 1.317 . S
C299 H304 0.930 . S
C300 C299 1.333 . S
C300 N302 1.350 . S
C300 H326 0.931 . S
N301 Co297 2.148 . S
N301 C298 1.301 . S
N301 C299 1.317 . S
N302 C298 1.328 . S
N302 C300 1.350 . S
H303 C298 0.930 . S
H304 C299 0.930 . S
C305 O306 1.224 . S
C305 O324 1.247 . S
O306 C305 1.224 . S
N307 Co297 2.128 . S
N307 C308 1.355 . S
N307 C310 1.311 . S
C308 N307 1.355 . S
C308 C309 1.363 . S
C308 H320 0.929 . S
C309 C308 1.363 . S
C309 N311 1.375 . S
C309 H327 0.931 . S
C310 N307 1.311 . S
C310 N311 1.347 . S
C310 H321 0.929 . S
N311 C309 1.375 . S
N311 C310 1.347 . S
C312 C315 1.365 . S
C312 N317 1.328 . S
C312 H318 0.929 . S
C313 C314 1.362 . S
C313 C316 1.378 . S
C313 H328 0.929 . S
C314 C313 1.362 . S
C314 C315 1.366 . S
C315 C312 1.365 . S
C315 C314 1.366 . S
C315 H329 0.930 . S
C316 C313 1.378 . S
C316 N317 1.315 . S
C316 H319 0.930 . S
N317 Co297 2.194 . S
N317 C312 1.328 . S
N317 C316 1.315 . S
H318 C312 0.929 . S
H319 C316 0.930 . S
H320 C308 0.929 . S
H321 C310 0.929 . S
O322 Co297 2.351 . S
O322 C325 1.244 . S
O323 Co297 2.155 . S
O323 C325 1.240 . S
O324 Co297 2.096 . S
O324 C305 1.247 . S
C325 O322 1.244 . S
C325 O323 1.240 . S
H326 C300 0.931 . S
H327 C309 0.931 . S
H328 C313 0.929 . S
H329 C315 0.930 . S
Co330 N334 2.148 . S
Co330 N340 2.128 . S
Co330 N350 2.194 1_655 S
Co330 O355 2.351 1_655 S
Co330 O356 2.155 . S
Co330 O357 2.096 . S
C331 N334 1.301 . S
C331 N335 1.328 . S
C331 H336 0.930 1_655 S
C332 C333 1.333 . S
C332 N334 1.317 . S
C332 H337 0.930 . S
C333 C332 1.333 . S
C333 N335 1.350 . S
C333 H359 0.931 . S
N334 Co330 2.148 . S
N334 C331 1.301 . S
N334 C332 1.317 . S
N335 C331 1.328 . S
N335 C333 1.350 . S
H336 C331 0.930 1_455 S
H337 C332 0.930 . S
C338 O339 1.224 . S
C338 O357 1.247 . S
O339 C338 1.224 . S
N340 Co330 2.128 . S
N340 C341 1.355 1_655 S
N340 C343 1.311 . S
C341 N340 1.355 1_455 S
C341 C342 1.363 . S
C341 H353 0.929 . S
C342 C341 1.363 . S
C342 N344 1.390 . S
C342 H360 0.931 . S
C343 N340 1.311 . S
C343 N344 1.338 1_655 S
C343 H354 0.929 . S
N344 C342 1.390 . S
N344 C343 1.338 1_455 S
C345 C348 1.365 . S
C345 N350 1.328 . S
C345 H351 0.929 . S
C346 C347 1.362 . S
C346 C349 1.378 . S
C346 H361 0.929 . S
C347 C346 1.362 . S
C347 C348 1.366 . S
C348 C345 1.365 . S
C348 C347 1.366 . S
C348 H362 0.930 . S
C349 C346 1.378 . S
C349 N350 1.315 . S
C349 H352 0.930 . S
N350 Co330 2.194 1_455 S
N350 C345 1.328 . S
N350 C349 1.315 . S
H351 C345 0.929 . S
H352 C349 0.930 . S
H353 C341 0.929 . S
H354 C343 0.929 . S
O355 Co330 2.351 1_455 S
O355 C358 1.244 1_455 S
O356 Co330 2.155 . S
O356 C358 1.240 . S
O357 Co330 2.096 . S
O357 C338 1.247 . S
C358 O355 1.244 1_655 S
C358 O356 1.240 . S
H359 C333 0.931 . S
H360 C342 0.931 . S
H361 C346 0.929 . S
H362 C348 0.930 . S
Co363 N367 2.148 . S
Co363 N373 2.128 . S
Co363 N383 2.194 1_565 S
Co363 O388 2.351 1_565 S
Co363 O389 2.155 . S
Co363 O390 2.096 . S
C364 N367 1.301 . S
C364 N368 1.328 . S
C364 H369 0.930 1_565 S
C365 C366 1.333 . S
C365 N367 1.317 . S
C365 H370 0.930 . S
C366 C365 1.333 . S
C366 N368 1.350 . S
C366 H392 0.931 . S
N367 Co363 2.148 . S
N367 C364 1.301 . S
N367 C365 1.317 . S
N368 C364 1.328 . S
N368 C366 1.350 . S
H369 C364 0.930 1_545 S
H370 C365 0.930 . S
C371 O372 1.224 . S
C371 O390 1.247 . S
O372 C371 1.224 . S
N373 Co363 2.128 . S
N373 C374 1.355 1_565 S
N373 C376 1.311 . S
C374 N373 1.355 1_545 S
C374 C375 1.363 . S
C374 H386 0.929 . S
C375 C374 1.363 . S
C375 N377 1.390 . S
C375 H393 0.931 . S
C376 N373 1.311 . S
C376 N377 1.338 1_565 S
C376 H387 0.929 . S
N377 C375 1.390 . S
N377 C376 1.338 1_545 S
C378 C381 1.365 . S
C378 N383 1.328 . S
C378 H384 0.929 . S
C379 C380 1.362 . S
C379 C382 1.378 . S
C379 H394 0.929 . S
C380 C379 1.362 . S
C380 C381 1.366 . S
C381 C378 1.365 . S
C381 C380 1.366 . S
C381 H395 0.930 . S
C382 C379 1.378 . S
C382 N383 1.315 . S
C382 H385 0.930 . S
N383 Co363 2.194 1_545 S
N383 C378 1.328 . S
N383 C382 1.315 . S
H384 C378 0.929 . S
H385 C382 0.930 . S
H386 C374 0.929 . S
H387 C376 0.929 . S
O388 Co363 2.351 1_545 S
O388 C391 1.244 1_545 S
O389 Co363 2.155 . S
O389 C391 1.240 . S
O390 Co363 2.096 . S
O390 C371 1.247 . S
C391 O388 1.244 1_565 S
C391 O389 1.240 . S
H392 C366 0.931 . S
H393 C375 0.931 . S
H394 C379 0.929 . S
H395 C381 0.930 . S
Co396 N400 2.148 . S
Co396 N406 2.128 . S
Co396 N416 2.194 . S
Co396 O421 2.351 . S
Co396 O422 2.155 . S
Co396 O423 2.096 . S
C397 N400 1.301 . S
C397 N401 1.328 . S
C397 H402 0.930 . S
C398 C399 1.333 . S
C398 N400 1.317 . S
C398 H403 0.930 . S
C399 C398 1.333 . S
C399 N401 1.350 . S
C399 H425 0.931 . S
N400 Co396 2.148 . S
N400 C397 1.301 . S
N400 C398 1.317 . S
N401 C397 1.328 . S
N401 C399 1.350 . S
H402 C397 0.930 . S
H403 C398 0.930 . S
C404 O405 1.224 . S
C404 O423 1.247 . S
O405 C404 1.224 . S
N406 Co396 2.128 . S
N406 C407 1.355 . S
N406 C409 1.311 . S
C407 N406 1.355 . S
C407 C408 1.363 . S
C407 H419 0.929 . S
C408 C407 1.363 . S
C408 N410 1.375 . S
C408 H426 0.931 . S
C409 N406 1.311 . S
C409 N410 1.347 . S
C409 H420 0.929 . S
N410 C408 1.375 . S
N410 C409 1.347 . S
C411 C414 1.365 . S
C411 N416 1.328 . S
C411 H417 0.929 . S
C412 C413 1.362 . S
C412 C415 1.378 . S
C412 H427 0.929 . S
C413 C412 1.362 . S
C413 C414 1.366 . S
C414 C411 1.365 . S
C414 C413 1.366 . S
C414 H428 0.930 . S
C415 C412 1.378 . S
C415 N416 1.315 . S
C415 H418 0.930 . S
N416 Co396 2.194 . S
N416 C411 1.328 . S
N416 C415 1.315 . S
H417 C411 0.929 . S
H418 C415 0.930 . S
H419 C407 0.929 . S
H420 C409 0.929 . S
O421 Co396 2.351 . S
O421 C424 1.244 . S
O422 Co396 2.155 . S
O422 C424 1.240 . S
O423 Co396 2.096 . S
O423 C404 1.247 . S
C424 O421 1.244 . S
C424 O422 1.240 . S
H425 C399 0.931 . S
H426 C408 0.931 . S
H427 C412 0.929 . S
H428 C414 0.930 . S
Co429 N433 2.148 . S
Co429 N439 2.128 . S
Co429 N449 2.194 . S
Co429 O454 2.351 . S
Co429 O455 2.155 . S
Co429 O456 2.096 . S
C430 N433 1.301 . S
C430 N434 1.328 . S
C430 H435 0.930 . S
C431 C432 1.333 . S
C431 N433 1.317 . S
C431 H436 0.930 . S
C432 C431 1.333 . S
C432 N434 1.350 . S
C432 H458 0.931 . S
N433 Co429 2.148 . S
N433 C430 1.301 . S
N433 C431 1.317 . S
N434 C430 1.328 . S
N434 C432 1.350 . S
H435 C430 0.930 . S
H436 C431 0.930 . S
C437 O438 1.224 . S
C437 O456 1.247 . S
O438 C437 1.224 . S
N439 Co429 2.128 . S
N439 C440 1.355 . S
N439 C442 1.311 . S
C440 N439 1.355 . S
C440 C441 1.363 . S
C440 H452 0.929 . S
C441 C440 1.363 . S
C441 N443 1.375 . S
C441 H459 0.931 . S
C442 N439 1.311 . S
C442 N443 1.347 . S
C442 H453 0.929 . S
N443 C441 1.375 . S
N443 C442 1.347 . S
C444 C447 1.365 . S
C444 N449 1.328 . S
C444 H450 0.929 . S
C445 C446 1.362 . S
C445 C448 1.378 . S
C445 H460 0.929 . S
C446 C445 1.362 . S
C446 C447 1.366 . S
C447 C444 1.365 . S
C447 C446 1.366 . S
C447 H461 0.930 . S
C448 C445 1.378 . S
C448 N449 1.315 . S
C448 H451 0.930 . S
N449 Co429 2.194 . S
N449 C444 1.328 . S
N449 C448 1.315 . S
H450 C444 0.929 . S
H451 C448 0.930 . S
H452 C440 0.929 . S
H453 C442 0.929 . S
O454 Co429 2.351 . S
O454 C457 1.244 . S
O455 Co429 2.155 . S
O455 C457 1.240 . S
O456 Co429 2.096 . S
O456 C437 1.247 . S
C457 O454 1.244 . S
C457 O455 1.240 . S
H458 C432 0.931 . S
H459 C441 0.931 . S
H460 C445 0.929 . S
H461 C447 0.930 . S
Co462 N466 2.148 . S
Co462 N472 2.128 . S
Co462 N482 2.194 1_655 S
Co462 O487 2.351 1_655 S
Co462 O488 2.155 . S
Co462 O489 2.096 . S
C463 N466 1.301 . S
C463 N467 1.328 . S
C463 H468 0.930 1_655 S
C464 C465 1.333 . S
C464 N466 1.317 . S
C464 H469 0.930 . S
C465 C464 1.333 . S
C465 N467 1.350 . S
C465 H491 0.931 . S
N466 Co462 2.148 . S
N466 C463 1.301 . S
N466 C464 1.317 . S
N467 C463 1.328 . S
N467 C465 1.350 . S
H468 C463 0.930 1_455 S
H469 C464 0.930 . S
C470 O471 1.224 . S
C470 O489 1.247 . S
O471 C470 1.224 . S
N472 Co462 2.128 . S
N472 C473 1.355 1_655 S
N472 C475 1.311 . S
C473 N472 1.355 1_455 S
C473 C474 1.363 . S
C473 H485 0.929 . S
C474 C473 1.363 . S
C474 N476 1.390 . S
C474 H492 0.931 . S
C475 N472 1.311 . S
C475 N476 1.338 1_655 S
C475 H486 0.929 . S
N476 C474 1.390 . S
N476 C475 1.338 1_455 S
C477 C480 1.365 . S
C477 N482 1.328 . S
C477 H483 0.929 . S
C478 C479 1.362 . S
C478 C481 1.378 . S
C478 H493 0.929 . S
C479 C478 1.362 . S
C479 C480 1.366 . S
C480 C477 1.365 . S
C480 C479 1.366 . S
C480 H494 0.930 . S
C481 C478 1.378 . S
C481 N482 1.315 . S
C481 H484 0.930 . S
N482 Co462 2.194 1_455 S
N482 C477 1.328 . S
N482 C481 1.315 . S
H483 C477 0.929 . S
H484 C481 0.930 . S
H485 C473 0.929 . S
H486 C475 0.929 . S
O487 Co462 2.351 1_455 S
O487 C490 1.244 1_455 S
O488 Co462 2.155 . S
O488 C490 1.240 . S
O489 Co462 2.096 . S
O489 C470 1.247 . S
C490 O487 1.244 1_655 S
C490 O488 1.240 . S
H491 C465 0.931 . S
H492 C474 0.931 . S
H493 C478 0.929 . S
H494 C480 0.930 . S
Co495 N499 2.148 . S
Co495 N505 2.128 . S
Co495 N515 2.194 1_565 S
Co495 O520 2.351 1_565 S
Co495 O521 2.155 . S
Co495 O522 2.096 . S
C496 N499 1.301 . S
C496 N500 1.328 . S
C496 H501 0.930 1_565 S
C497 C498 1.333 . S
C497 N499 1.317 . S
C497 H502 0.930 . S
C498 C497 1.333 . S
C498 N500 1.350 . S
C498 H524 0.931 . S
N499 Co495 2.148 . S
N499 C496 1.301 . S
N499 C497 1.317 . S
N500 C496 1.328 . S
N500 C498 1.350 . S
H501 C496 0.930 1_545 S
H502 C497 0.930 . S
C503 O504 1.224 . S
C503 O522 1.247 . S
O504 C503 1.224 . S
N505 Co495 2.128 . S
N505 C506 1.355 1_565 S
N505 C508 1.311 . S
C506 N505 1.355 1_545 S
C506 C507 1.363 . S
C506 H518 0.929 . S
C507 C506 1.363 . S
C507 N509 1.390 . S
C507 H525 0.931 . S
C508 N505 1.311 . S
C508 N509 1.338 1_565 S
C508 H519 0.929 . S
N509 C507 1.390 . S
N509 C508 1.338 1_545 S
C510 C513 1.365 . S
C510 N515 1.328 . S
C510 H516 0.929 . S
C511 C512 1.362 . S
C511 C514 1.378 . S
C511 H526 0.929 . S
C512 C511 1.362 . S
C512 C513 1.366 . S
C513 C510 1.365 . S
C513 C512 1.366 . S
C513 H527 0.930 . S
C514 C511 1.378 . S
C514 N515 1.315 . S
C514 H517 0.930 . S
N515 Co495 2.194 1_545 S
N515 C510 1.328 . S
N515 C514 1.315 . S
H516 C510 0.929 . S
H517 C514 0.930 . S
H518 C506 0.929 . S
H519 C508 0.929 . S
O520 Co495 2.351 1_545 S
O520 C523 1.244 1_545 S
O521 Co495 2.155 . S
O521 C523 1.240 . S
O522 Co495 2.096 . S
O522 C503 1.247 . S
C523 O520 1.244 1_565 S
C523 O521 1.240 . S
H524 C498 0.931 . S
H525 C507 0.931 . S
H526 C511 0.929 . S
H527 C513 0.930 . S
H528 C536 0.929 . S
H529 C538 0.930 . S
H530 C540 0.930 . S
H531 C543 0.929 . S
H532 C546 0.930 . S
H533 C548 0.960 . S
H534 C548 0.960 . S
H535 C548 0.960 . S
C536 H528 0.929 . S
C536 C537 1.377 . S
C536 C538 1.384 . S
C537 C536 1.377 . S
C537 C543 1.390 . S
C538 H529 0.930 . S
C538 C536 1.384 . S
C538 C539 1.372 . S
C539 C538 1.372 . S
C539 C540 1.400 . S
C539 C544 1.490 . S
C540 H530 0.930 . S
C540 C539 1.400 . S
C540 C543 1.386 . S
H541 C557 0.930 . S
H542 C558 0.931 . S
C543 H531 0.929 . S
C543 C537 1.390 . S
C543 C540 1.386 . S
C544 C539 1.490 . S
C544 C546 1.395 . S
C544 C547 1.403 . S
H545 C551 0.930 . S
C546 H532 0.930 . S
C546 C544 1.395 . S
C546 C549 1.403 1_554 S
C547 C544 1.403 . S
C547 C548 1.524 . S
C547 C551 1.400 1_554 S
C548 H533 0.960 . S
C548 H534 0.960 . S
C548 H535 0.960 . S
C548 C547 1.524 . S
C549 C546 1.403 1_556 S
C549 C550 1.392 . S
C549 C553 1.495 . S
C550 C549 1.392 . S
C550 C551 1.385 . S
C550 C552 1.478 . S
C551 H545 0.930 . S
C551 C547 1.400 1_556 S
C551 C550 1.385 . S
C552 C550 1.478 . S
C552 C554 1.381 . S
C552 C558 1.383 . S
C553 C549 1.495 . S
C553 H559 0.959 . S
C553 H560 0.961 . S
C553 H561 0.960 . S
C554 C552 1.381 . S
C554 C555 1.394 . S
C554 H562 0.930 . S
C555 C554 1.394 . S
C555 C556 1.383 . S
C555 H563 0.929 . S
C556 C555 1.383 . S
C556 C557 1.377 . S
C557 H541 0.930 . S
C557 C556 1.377 . S
C557 C558 1.379 . S
C558 H542 0.931 . S
C558 C552 1.383 . S
C558 C557 1.379 . S
H559 C553 0.959 . S
H560 C553 0.961 . S
H561 C553 0.960 . S
H562 C554 0.930 . S
H563 C555 0.929 . S
H564 C572 0.929 . S
H565 C574 0.930 . S
H566 C576 0.930 . S
H567 C579 0.929 . S
H568 C582 0.930 . S
H569 C584 0.960 . S
H570 C584 0.960 . S
H571 C584 0.960 . S
C572 H564 0.929 . S
C572 C573 1.377 . S
C572 C574 1.384 . S
C573 C572 1.377 . S
C573 C579 1.390 . S
C574 H565 0.930 . S
C574 C572 1.384 . S
C574 C575 1.372 . S
C575 C574 1.372 . S
C575 C576 1.400 . S
C575 C580 1.490 . S
C576 H566 0.930 . S
C576 C575 1.400 . S
C576 C579 1.386 . S
H577 C593 0.930 . S
H578 C594 0.931 . S
C579 H567 0.929 . S
C579 C573 1.390 . S
C579 C576 1.386 . S
C580 C575 1.490 . S
C580 C582 1.395 . S
C580 C583 1.403 . S
H581 C587 0.930 . S
C582 H568 0.930 . S
C582 C580 1.395 . S
C582 C585 1.403 . S
C583 C580 1.403 . S
C583 C584 1.524 . S
C583 C587 1.400 . S
C584 H569 0.960 . S
C584 H570 0.960 . S
C584 H571 0.960 . S
C584 C583 1.524 . S
C585 C582 1.403 . S
C585 C586 1.392 . S
C585 C589 1.495 . S
C586 C585 1.392 . S
C586 C587 1.385 . S
C586 C588 1.478 . S
C587 H581 0.930 . S
C587 C583 1.400 . S
C587 C586 1.385 . S
C588 C586 1.478 . S
C588 C590 1.381 . S
C588 C594 1.383 . S
C589 C585 1.495 . S
C589 H595 0.959 . S
C589 H596 0.961 . S
C589 H597 0.960 . S
C590 C588 1.381 . S
C590 C591 1.394 . S
C590 H598 0.930 . S
C591 C590 1.394 . S
C591 C592 1.383 . S
C591 H599 0.929 . S
C592 C591 1.383 . S
C592 C593 1.377 . S
C593 H577 0.930 . S
C593 C592 1.377 . S
C593 C594 1.379 . S
C594 H578 0.931 . S
C594 C588 1.383 . S
C594 C593 1.379 . S
H595 C589 0.959 . S
H596 C589 0.961 . S
H597 C589 0.960 . S
H598 C590 0.930 . S
H599 C591 0.929 . S
H600 C608 0.929 1_655 S
H601 C610 0.930 1_655 S
H602 C612 0.930 . S
H603 C615 0.929 . S
H604 C618 0.930 . S
H605 C620 0.960 . S
H606 C620 0.960 . S
H607 C620 0.960 . S
C608 H600 0.929 1_455 S
C608 C609 1.377 . S
C608 C610 1.384 . S
C609 C608 1.377 . S
C609 C615 1.390 . S
C610 H601 0.930 1_455 S
C610 C608 1.384 . S
C610 C611 1.372 . S
C611 C610 1.372 . S
C611 C612 1.400 . S
C611 C616 1.490 . S
C612 H602 0.930 . S
C612 C611 1.400 . S
C612 C615 1.386 . S
H613 C629 0.930 . S
H614 C630 0.931 . S
C615 H603 0.929 . S
C615 C609 1.390 . S
C615 C612 1.386 . S
C616 C611 1.490 . S
C616 C618 1.395 1_455 S
C616 C619 1.403 . S
H617 C623 0.930 . S
C618 H604 0.930 . S
C618 C616 1.395 1_655 S
C618 C621 1.403 1_556 S
C619 C616 1.403 . S
C619 C620 1.524 . S
C619 C623 1.400 1_556 S
C620 H605 0.960 . S
C620 H606 0.960 . S
C620 H607 0.960 . S
C620 C619 1.524 . S
C621 C618 1.403 1_554 S
C621 C622 1.392 1_655 S
C621 C625 1.495 . S
C622 C621 1.392 1_455 S
C622 C623 1.385 . S
C622 C624 1.478 . S
C623 H617 0.930 . S
C623 C619 1.400 1_554 S
C623 C622 1.385 . S
C624 C622 1.478 . S
C624 C626 1.381 . S
C624 C630 1.383 . S
C625 C621 1.495 . S
C625 H631 0.959 . S
C625 H632 0.961 . S
C625 H633 0.960 . S
C626 C624 1.381 . S
C626 C627 1.394 . S
C626 H634 0.930 1_455 S
C627 C626 1.394 . S
C627 C628 1.383 . S
C627 H635 0.922 1_455 S
C628 C627 1.383 . S
C628 C629 1.377 . S
C629 H613 0.930 . S
C629 C628 1.377 . S
C629 C630 1.379 . S
C630 H614 0.931 . S
C630 C624 1.383 . S
C630 C629 1.379 . S
H631 C625 0.959 . S
H632 C625 0.961 . S
H633 C625 0.960 . S
H634 C626 0.930 1_655 S
H635 C627 0.922 1_655 S
H636 C644 0.929 1_565 S
H637 C646 0.930 1_565 S
H638 C648 0.930 . S
H639 C651 0.929 . S
H640 C654 0.933 . S
H641 C656 0.960 . S
H642 C656 0.960 . S
H643 C656 0.960 . S
C644 H636 0.929 1_545 S
C644 C645 1.377 . S
C644 C646 1.384 . S
C645 C644 1.377 . S
C645 C651 1.390 . S
C646 H637 0.930 1_545 S
C646 C644 1.384 . S
C646 C647 1.372 . S
C647 C646 1.372 . S
C647 C648 1.400 . S
C647 C652 1.490 . S
C648 H638 0.930 . S
C648 C647 1.400 . S
C648 C651 1.386 . S
H649 C665 0.930 . S
H650 C666 0.931 . S
C651 H639 0.929 . S
C651 C645 1.390 . S
C651 C648 1.386 . S
C652 C647 1.490 . S
C652 C654 1.391 1_545 S
C652 C655 1.403 . S
H653 C659 0.930 . S
C654 H640 0.933 . S
C654 C652 1.391 1_565 S
C654 C657 1.404 . S
C655 C652 1.403 . S
C655 C656 1.524 . S
C655 C659 1.400 . S
C656 H641 0.960 . S
C656 H642 0.960 . S
C656 H643 0.960 . S
C656 C655 1.524 . S
C657 C654 1.404 . S
C657 C658 1.392 1_565 S
C657 C661 1.495 . S
C658 C657 1.392 1_545 S
C658 C659 1.385 . S
C658 C660 1.478 . S
C659 H653 0.930 . S
C659 C655 1.400 . S
C659 C658 1.385 . S
C660 C658 1.478 . S
C660 C662 1.381 . S
C660 C666 1.383 . S
C661 C657 1.495 . S
C661 H667 0.959 . S
C661 H668 0.961 . S
C661 H669 0.960 . S
C662 C660 1.381 . S
C662 C663 1.394 . S
C662 H670 0.930 1_545 S
C663 C662 1.394 . S
C663 C664 1.383 . S
C663 H671 0.929 1_545 S
C664 C663 1.383 . S
C664 C665 1.377 . S
C665 H649 0.930 . S
C665 C664 1.377 . S
C665 C666 1.379 . S
C666 H650 0.931 . S
C666 C660 1.383 . S
C666 C665 1.379 . S
H667 C661 0.959 . S
H668 C661 0.961 . S
H669 C661 0.960 . S
H670 C662 0.930 1_565 S
H671 C663 0.929 1_565 S
H672 C680 0.929 . S
H673 C682 0.930 . S
H674 C684 0.930 . S
H675 C687 0.929 . S
H676 C690 0.930 . S
H677 C692 0.960 . S
H678 C692 0.960 . S
H679 C692 0.960 . S
C680 H672 0.929 . S
C680 C681 1.377 . S
C680 C682 1.384 . S
C681 C680 1.377 . S
C681 C687 1.390 . S
C682 H673 0.930 . S
C682 C680 1.384 . S
C682 C683 1.372 . S
C683 C682 1.372 . S
C683 C684 1.400 . S
C683 C688 1.490 . S
C684 H674 0.930 . S
C684 C683 1.400 . S
C684 C687 1.386 . S
H685 C701 0.930 . S
H686 C702 0.931 . S
C687 H675 0.929 . S
C687 C681 1.390 . S
C687 C684 1.386 . S
C688 C683 1.490 . S
C688 C690 1.395 . S
C688 C691 1.403 . S
H689 C695 0.930 . S
C690 H676 0.930 . S
C690 C688 1.395 . S
C690 C693 1.403 1_556 S
C691 C688 1.403 . S
C691 C692 1.524 . S
C691 C695 1.400 1_556 S
C692 H677 0.960 . S
C692 H678 0.960 . S
C692 H679 0.960 . S
C692 C691 1.524 . S
C693 C690 1.403 1_554 S
C693 C694 1.392 . S
C693 C697 1.495 . S
C694 C693 1.392 . S
C694 C695 1.385 . S
C694 C696 1.478 . S
C695 H689 0.930 . S
C695 C691 1.400 1_554 S
C695 C694 1.385 . S
C696 C694 1.478 . S
C696 C698 1.381 . S
C696 C702 1.383 . S
C697 C693 1.495 . S
C697 H703 0.959 . S
C697 H704 0.961 . S
C697 H705 0.960 . S
C698 C696 1.381 . S
C698 C699 1.394 . S
C698 H706 0.930 . S
C699 C698 1.394 . S
C699 C700 1.383 . S
C699 H707 0.929 . S
C700 C699 1.383 . S
C700 C701 1.377 . S
C701 H685 0.930 . S
C701 C700 1.377 . S
C701 C702 1.379 . S
C702 H686 0.931 . S
C702 C696 1.383 . S
C702 C701 1.379 . S
H703 C697 0.959 . S
H704 C697 0.961 . S
H705 C697 0.960 . S
H706 C698 0.930 . S
H707 C699 0.929 . S
H708 C716 0.929 . S
H709 C718 0.930 . S
H710 C720 0.930 . S
H711 C723 0.929 . S
H712 C726 0.930 . S
H713 C728 0.960 . S
H714 C728 0.960 . S
H715 C728 0.960 . S
C716 H708 0.929 . S
C716 C717 1.377 . S
C716 C718 1.384 . S
C717 C716 1.377 . S
C717 C723 1.390 . S
C718 H709 0.930 . S
C718 C716 1.384 . S
C718 C719 1.372 . S
C719 C718 1.372 . S
C719 C720 1.400 . S
C719 C724 1.490 . S
C720 H710 0.930 . S
C720 C719 1.400 . S
C720 C723 1.386 . S
H721 C737 0.930 . S
H722 C738 0.931 . S
C723 H711 0.929 . S
C723 C717 1.390 . S
C723 C720 1.386 . S
C724 C719 1.490 . S
C724 C726 1.395 . S
C724 C727 1.403 . S
H725 C731 0.930 . S
C726 H712 0.930 . S
C726 C724 1.395 . S
C726 C729 1.403 . S
C727 C724 1.403 . S
C727 C728 1.524 . S
C727 C731 1.400 . S
C728 H713 0.960 . S
C728 H714 0.960 . S
C728 H715 0.960 . S
C728 C727 1.524 . S
C729 C726 1.403 . S
C729 C730 1.392 . S
C729 C733 1.495 . S
C730 C729 1.392 . S
C730 C731 1.385 . S
C730 C732 1.478 . S
C731 H725 0.930 . S
C731 C727 1.400 . S
C731 C730 1.385 . S
C732 C730 1.478 . S
C732 C734 1.381 . S
C732 C738 1.383 . S
C733 C729 1.495 . S
C733 H739 0.959 . S
C733 H740 0.961 . S
C733 H741 0.960 . S
C734 C732 1.381 . S
C734 C735 1.394 . S
C734 H742 0.930 . S
C735 C734 1.394 . S
C735 C736 1.383 . S
C735 H743 0.929 . S
C736 C735 1.383 . S
C736 C737 1.377 . S
C737 H721 0.930 . S
C737 C736 1.377 . S
C737 C738 1.379 . S
C738 H722 0.931 . S
C738 C732 1.383 . S
C738 C737 1.379 . S
H739 C733 0.959 . S
H740 C733 0.961 . S
H741 C733 0.960 . S
H742 C734 0.930 . S
H743 C735 0.929 . S
H744 C752 0.899 1_455 S
H745 C754 0.925 1_455 S
H746 C756 0.930 . S
H747 C759 0.929 . S
H748 C762 0.933 . S
H749 C764 0.960 . S
H750 C764 0.960 . S
H751 C764 0.960 . S
C752 H744 0.899 1_655 S
C752 C753 1.408 . S
C752 C754 1.383 . S
C753 C752 1.408 . S
C753 C759 1.390 . S
C754 H745 0.925 1_655 S
C754 C752 1.383 . S
C754 C755 1.377 . S
C755 C754 1.377 . S
C755 C756 1.400 . S
C755 C760 1.490 . S
C756 H746 0.930 . S
C756 C755 1.400 . S
C756 C759 1.386 . S
H757 C773 0.930 . S
H758 C774 0.931 . S
C759 H747 0.929 . S
C759 C753 1.390 . S
C759 C756 1.386 . S
C760 C755 1.490 . S
C760 C762 1.395 . S
C760 C763 1.403 . S
H761 C767 0.930 . S
C762 H748 0.933 . S
C762 C760 1.395 . S
C762 C765 1.403 1_554 S
C763 C760 1.403 . S
C763 C764 1.524 . S
C763 C767 1.400 1_554 S
C764 H749 0.960 . S
C764 H750 0.960 . S
C764 H751 0.960 . S
C764 C763 1.524 . S
C765 C762 1.403 1_556 S
C765 C766 1.392 . S
C765 C769 1.495 1_655 S
C766 C765 1.392 . S
C766 C767 1.385 . S
C766 C768 1.478 . S
C767 H761 0.930 . S
C767 C763 1.400 1_556 S
C767 C766 1.385 . S
C768 C766 1.478 . S
C768 C770 1.381 1_655 S
C768 C774 1.383 . S
C769 C765 1.495 1_455 S
C769 H775 0.959 . S
C769 H776 0.961 1_455 S
C769 H777 0.960 . S
C770 C768 1.381 1_455 S
C770 C771 1.394 . S
C770 H778 0.930 . S
C771 C770 1.394 . S
C771 C772 1.380 1_455 S
C771 H779 0.933 . S
C772 C771 1.380 1_655 S
C772 C773 1.377 . S
C773 H757 0.930 . S
C773 C772 1.377 . S
C773 C774 1.379 . S
C774 H758 0.931 . S
C774 C768 1.383 . S
C774 C773 1.379 . S
H775 C769 0.959 . S
H776 C769 0.961 1_655 S
H777 C769 0.960 . S
H778 C770 0.930 . S
H779 C771 0.933 . S
H780 C788 0.929 1_545 S
H781 C790 0.930 1_545 S
H782 C792 0.930 . S
H783 C795 0.929 . S
H784 C798 0.930 . S
H785 C800 0.960 1_545 S
H786 C800 0.960 1_545 S
H787 C800 0.960 . S
C788 H780 0.929 1_565 S
C788 C789 1.377 . S
C788 C790 1.384 . S
C789 C788 1.377 . S
C789 C795 1.390 . S
C790 H781 0.930 1_565 S
C790 C788 1.384 . S
C790 C791 1.372 . S
C791 C790 1.372 . S
C791 C792 1.400 . S
C791 C796 1.490 . S
C792 H782 0.930 . S
C792 C791 1.400 . S
C792 C795 1.386 . S
H793 C809 0.930 . S
H794 C810 0.931 . S
C795 H783 0.929 . S
C795 C789 1.390 . S
C795 C792 1.386 . S
C796 C791 1.490 . S
C796 C798 1.395 . S
C796 C799 1.403 . S
H797 C803 0.930 . S
C798 H784 0.930 . S
C798 C796 1.395 . S
C798 C801 1.403 . S
C799 C796 1.403 . S
C799 C800 1.524 . S
C799 C803 1.400 . S
C800 H785 0.960 1_565 S
C800 H786 0.960 1_565 S
C800 H787 0.960 . S
C800 C799 1.524 . S
C801 C798 1.403 . S
C801 C802 1.392 . S
C801 C805 1.495 . S
C802 C801 1.392 . S
C802 C803 1.385 . S
C802 C804 1.478 . S
C803 H797 0.930 . S
C803 C799 1.400 . S
C803 C802 1.385 . S
C804 C802 1.478 . S
C804 C806 1.381 . S
C804 C810 1.383 . S
C805 C801 1.495 . S
C805 H811 0.959 . S
C805 H812 0.961 . S
C805 H813 0.960 . S
C806 C804 1.381 . S
C806 C807 1.394 . S
C806 H814 0.930 1_565 S
C807 C806 1.394 . S
C807 C808 1.383 . S
C807 H815 0.929 1_565 S
C808 C807 1.383 . S
C808 C809 1.377 . S
C809 H793 0.930 . S
C809 C808 1.377 . S
C809 C810 1.379 . S
C810 H794 0.931 . S
C810 C804 1.383 . S
C810 C809 1.379 . S
H811 C805 0.959 . S
H812 C805 0.961 . S
H813 C805 0.960 . S
H814 C806 0.930 1_545 S
H815 C807 0.929 1_545 S
H816 C824 0.929 . S
H817 C826 0.930 . S
H818 C828 0.930 . S
H819 C831 0.929 . S
H820 C834 0.930 . S
H821 C836 0.960 . S
H822 C836 0.960 . S
H823 C836 0.960 . S
C824 H816 0.929 . S
C824 C825 1.377 . S
C824 C826 1.384 . S
C825 C824 1.377 . S
C825 C831 1.390 . S
C826 H817 0.930 . S
C826 C824 1.384 . S
C826 C827 1.372 . S
C827 C826 1.372 . S
C827 C828 1.400 . S
C827 C832 1.490 . S
C828 H818 0.930 . S
C828 C827 1.400 . S
C828 C831 1.386 . S
H829 C845 0.930 . S
H830 C846 0.931 . S
C831 H819 0.929 . S
C831 C825 1.390 . S
C831 C828 1.386 . S
C832 C827 1.490 . S
C832 C834 1.395 . S
C832 C835 1.403 . S
H833 C839 0.930 1_545 S
C834 H820 0.930 . S
C834 C832 1.395 . S
C834 C837 1.403 . S
C835 C832 1.403 . S
C835 C836 1.524 . S
C835 C839 1.400 . S
C836 H821 0.960 . S
C836 H822 0.960 . S
C836 H823 0.960 . S
C836 C835 1.524 . S
C837 C834 1.403 . S
C837 C838 1.392 1_565 S
C837 C841 1.495 1_565 S
C838 C837 1.392 1_545 S
C838 C839 1.385 1_545 S
C838 C840 1.478 . S
C839 H833 0.930 1_565 S
C839 C835 1.400 . S
C839 C838 1.385 1_565 S
C840 C838 1.478 . S
C840 C842 1.381 . S
C840 C846 1.383 . S
C841 C837 1.495 1_545 S
C841 H847 0.959 1_545 S
C841 H848 0.961 . S
C841 H849 0.960 . S
C842 C840 1.381 . S
C842 C843 1.394 . S
C842 H850 0.930 . S
C843 C842 1.394 . S
C843 C844 1.383 . S
C843 H851 0.929 . S
C844 C843 1.383 . S
C844 C845 1.377 . S
C845 H829 0.930 . S
C845 C844 1.377 . S
C845 C846 1.379 . S
C846 H830 0.931 . S
C846 C840 1.383 . S
C846 C845 1.379 . S
H847 C841 0.959 1_565 S
H848 C841 0.961 . S
H849 C841 0.960 . S
H850 C842 0.930 . S
H851 C843 0.929 . S
H852 C860 0.929 . S
H853 C862 0.930 . S
H854 C864 0.930 . S
H855 C867 0.929 . S
H856 C870 0.930 . S
H857 C872 0.960 . S
H858 C872 0.960 . S
H859 C872 0.960 . S
C860 H852 0.929 . S
C860 C861 1.377 . S
C860 C862 1.384 . S
C861 C860 1.377 . S
C861 C867 1.390 . S
C862 H853 0.930 . S
C862 C860 1.384 . S
C862 C863 1.372 . S
C863 C862 1.372 . S
C863 C864 1.400 . S
C863 C868 1.490 . S
C864 H854 0.930 . S
C864 C863 1.400 . S
C864 C867 1.386 . S
H865 C881 0.930 . S
H866 C882 0.931 . S
C867 H855 0.929 . S
C867 C861 1.390 . S
C867 C864 1.386 . S
C868 C863 1.490 . S
C868 C870 1.395 . S
C868 C871 1.403 . S
H869 C875 0.930 . S
C870 H856 0.930 . S
C870 C868 1.395 . S
C870 C873 1.403 . S
C871 C868 1.403 . S
C871 C872 1.524 . S
C871 C875 1.400 . S
C872 H857 0.960 . S
C872 H858 0.960 . S
C872 H859 0.960 . S
C872 C871 1.524 . S
C873 C870 1.403 . S
C873 C874 1.392 . S
C873 C877 1.495 . S
C874 C873 1.392 . S
C874 C875 1.385 . S
C874 C876 1.478 . S
C875 H869 0.930 . S
C875 C871 1.400 . S
C875 C874 1.385 . S
C876 C874 1.478 . S
C876 C878 1.381 . S
C876 C882 1.383 . S
C877 C873 1.495 . S
C877 H883 0.959 . S
C877 H884 0.961 . S
C877 H885 0.960 . S
C878 C876 1.381 . S
C878 C879 1.394 . S
C878 H886 0.930 . S
C879 C878 1.394 . S
C879 C880 1.383 . S
C879 H887 0.929 . S
C880 C879 1.383 . S
C880 C881 1.377 . S
C881 H865 0.930 . S
C881 C880 1.377 . S
C881 C882 1.379 . S
C882 H866 0.931 . S
C882 C876 1.383 . S
C882 C881 1.379 . S
H883 C877 0.959 . S
H884 C877 0.961 . S
H885 C877 0.960 . S
H886 C878 0.930 . S
H887 C879 0.929 . S
H888 C896 0.929 . S
H889 C898 0.930 . S
H890 C900 0.930 . S
H891 C903 0.929 . S
H892 C906 0.930 . S
H893 C908 0.960 . S
H894 C908 0.960 1_655 S
H895 C908 0.960 . S
C896 H888 0.929 . S
C896 C897 1.377 1_655 S
C896 C898 1.384 . S
C897 C896 1.377 1_455 S
C897 C903 1.390 . S
C898 H889 0.930 . S
C898 C896 1.384 . S
C898 C899 1.372 . S
C899 C898 1.372 . S
C899 C900 1.400 1_655 S
C899 C904 1.490 . S
C900 H890 0.930 . S
C900 C899 1.400 1_455 S
C900 C903 1.386 . S
H901 C917 0.930 . S
H902 C918 0.931 . S
C903 H891 0.929 . S
C903 C897 1.390 . S
C903 C900 1.386 . S
C904 C899 1.490 . S
C904 C906 1.395 . S
C904 C907 1.403 . S
H905 C911 0.930 . S
C906 H892 0.930 . S
C906 C904 1.395 . S
C906 C909 1.403 . S
C907 C904 1.403 . S
C907 C908 1.524 1_655 S
C907 C911 1.400 . S
C908 H893 0.960 . S
C908 H894 0.960 1_455 S
C908 H895 0.960 . S
C908 C907 1.524 1_455 S
C909 C906 1.403 . S
C909 C910 1.392 . S
C909 C913 1.495 . S
C910 C909 1.392 . S
C910 C911 1.385 . S
C910 C912 1.478 . S
C911 H905 0.930 . S
C911 C907 1.400 . S
C911 C910 1.385 . S
C912 C910 1.478 . S
C912 C914 1.381 . S
C912 C918 1.383 1_655 S
C913 C909 1.495 . S
C913 H919 0.959 . S
C913 H920 0.961 . S
C913 H921 0.960 . S
C914 C912 1.381 . S
C914 C915 1.394 . S
C914 H922 0.930 . S
C915 C914 1.394 . S
C915 C916 1.383 . S
C915 H923 0.929 . S
C916 C915 1.383 . S
C916 C917 1.377 1_655 S
C917 H901 0.930 . S
C917 C916 1.377 1_455 S
C917 C918 1.379 . S
C918 H902 0.931 . S
C918 C912 1.383 1_455 S
C918 C917 1.379 . S
H919 C913 0.959 . S
H920 C913 0.961 . S
H921 C913 0.960 . S
H922 C914 0.930 . S
H923 C915 0.929 . S
H924 C932 0.929 . S
H925 C934 0.930 . S
H926 C936 0.930 1_545 S
H927 C939 0.935 . S
H928 C942 0.930 . S
H929 C944 0.960 . S
H930 C944 0.960 . S
H931 C944 0.960 . S
C932 H924 0.929 . S
C932 C933 1.377 . S
C932 C934 1.384 . S
C933 C932 1.377 . S
C933 C939 1.390 . S
C934 H925 0.930 . S
C934 C932 1.384 . S
C934 C935 1.372 . S
C935 C934 1.372 . S
C935 C936 1.400 . S
C935 C940 1.490 . S
C936 H926 0.930 1_565 S
C936 C935 1.400 . S
C936 C939 1.386 . S
H937 C953 0.930 . S
H938 C954 0.934 . S
C939 H927 0.935 . S
C939 C933 1.390 . S
C939 C936 1.386 . S
C940 C935 1.490 . S
C940 C942 1.395 . S
C940 C943 1.403 1_565 S
H941 C947 0.930 1_455 S
C942 H928 0.930 . S
C942 C940 1.395 . S
C942 C945 1.403 . S
C943 C940 1.403 1_545 S
C943 C944 1.524 . S
C943 C947 1.400 . S
C944 H929 0.960 . S
C944 H930 0.960 . S
C944 H931 0.960 . S
C944 C943 1.524 . S
C945 C942 1.403 . S
C945 C946 1.392 1_655 S
C945 C949 1.495 1_655 S
C946 C945 1.392 1_455 S
C946 C947 1.385 1_465 S
C946 C948 1.478 . S
C947 H941 0.930 1_655 S
C947 C943 1.400 . S
C947 C946 1.385 1_645 S
C948 C946 1.478 . S
C948 C950 1.381 . S
C948 C954 1.377 1_565 S
C949 C945 1.495 1_455 S
C949 H955 0.959 1_455 S
C949 H956 0.961 . S
C949 H957 0.960 . S
C950 C948 1.381 . S
C950 C951 1.394 . S
C950 H958 0.930 . S
C951 C950 1.394 . S
C951 C952 1.383 1_565 S
C951 H959 0.929 . S
C952 C951 1.383 1_545 S
C952 C953 1.377 . S
C953 H937 0.930 . S
C953 C952 1.377 . S
C953 C954 1.382 . S
C954 H938 0.934 . S
C954 C948 1.377 1_545 S
C954 C953 1.382 . S
H955 C949 0.959 1_655 S
H956 C949 0.961 . S
H957 C949 0.960 . S
H958 C950 0.930 . S
H959 C951 0.929 . S
H960 C968 0.929 . S
H961 C970 0.930 . S
H962 C972 0.930 . S
H963 C975 0.929 . S
H964 C978 0.930 . S
H965 C980 0.960 . S
H966 C980 0.960 . S
H967 C980 0.960 . S
C968 H960 0.929 . S
C968 C969 1.377 . S
C968 C970 1.384 . S
C969 C968 1.377 . S
C969 C975 1.390 . S
C970 H961 0.930 . S
C970 C968 1.384 . S
C970 C971 1.372 . S
C971 C970 1.372 . S
C971 C972 1.400 . S
C971 C976 1.490 . S
C972 H962 0.930 . S
C972 C971 1.400 . S
C972 C975 1.386 . S
H973 C989 0.930 . S
H974 C990 0.931 . S
C975 H963 0.929 . S
C975 C969 1.390 . S
C975 C972 1.386 . S
C976 C971 1.490 . S
C976 C978 1.395 . S
C976 C979 1.403 . S
H977 C983 0.930 . S
C978 H964 0.930 . S
C978 C976 1.395 . S
C978 C981 1.403 . S
C979 C976 1.403 . S
C979 C980 1.524 . S
C979 C983 1.400 . S
C980 H965 0.960 . S
C980 H966 0.960 . S
C980 H967 0.960 . S
C980 C979 1.524 . S
C981 C978 1.403 . S
C981 C982 1.392 . S
C981 C985 1.495 . S
C982 C981 1.392 . S
C982 C983 1.385 . S
C982 C984 1.478 . S
C983 H977 0.930 . S
C983 C979 1.400 . S
C983 C982 1.385 . S
C984 C982 1.478 . S
C984 C986 1.381 . S
C984 C990 1.383 . S
C985 C981 1.495 . S
C985 H991 0.959 . S
C985 H992 0.961 . S
C985 H993 0.960 . S
C986 C984 1.381 . S
C986 C987 1.394 . S
C986 H994 0.930 . S
C987 C986 1.394 . S
C987 C988 1.383 . S
C987 H995 0.929 . S
C988 C987 1.383 . S
C988 C989 1.377 . S
C989 H973 0.930 . S
C989 C988 1.377 . S
C989 C990 1.379 . S
C990 H974 0.931 . S
C990 C984 1.383 . S
C990 C989 1.379 . S
H991 C985 0.959 . S
H992 C985 0.961 . S
H993 C985 0.960 . S
H994 C986 0.930 . S
H995 C987 0.929 . S
H996 C1004 0.929 . S
H997 C1006 0.930 . S
H998 C1008 0.930 . S
H999 C1011 0.929 . S
H1000 C1014 0.930 . S
H1001 C1016 0.960 . S
H1002 C1016 0.960 . S
H1003 C1016 0.960 . S
C1004 H996 0.929 . S
C1004 C1005 1.377 . S
C1004 C1006 1.384 . S
C1005 C1004 1.377 . S
C1005 C1011 1.390 . S
C1006 H997 0.930 . S
C1006 C1004 1.384 . S
C1006 C1007 1.372 . S
C1007 C1006 1.372 . S
C1007 C1008 1.400 . S
C1007 C1012 1.490 . S
C1008 H998 0.930 . S
C1008 C1007 1.400 . S
C1008 C1011 1.386 . S
H1009 C1025 0.930 . S
H1010 C1026 0.931 . S
C1011 H999 0.929 . S
C1011 C1005 1.390 . S
C1011 C1008 1.386 . S
C1012 C1007 1.490 . S
C1012 C1014 1.395 . S
C1012 C1015 1.403 . S
H1013 C1019 0.930 1_455 S
C1014 H1000 0.930 . S
C1014 C1012 1.395 . S
C1014 C1017 1.403 . S
C1015 C1012 1.403 . S
C1015 C1016 1.524 . S
C1015 C1019 1.400 . S
C1016 H1001 0.960 . S
C1016 H1002 0.960 . S
C1016 H1003 0.960 . S
C1016 C1015 1.524 . S
C1017 C1014 1.403 . S
C1017 C1018 1.392 1_655 S
C1017 C1021 1.495 1_655 S
C1018 C1017 1.392 1_455 S
C1018 C1019 1.385 1_455 S
C1018 C1020 1.478 . S
C1019 H1013 0.930 1_655 S
C1019 C1015 1.400 . S
C1019 C1018 1.385 1_655 S
C1020 C1018 1.478 . S
C1020 C1022 1.381 . S
C1020 C1026 1.383 . S
C1021 C1017 1.495 1_455 S
C1021 H1027 0.959 1_455 S
C1021 H1028 0.961 . S
C1021 H1029 0.960 . S
C1022 C1020 1.381 . S
C1022 C1023 1.394 . S
C1022 H1030 0.930 . S
C1023 C1022 1.394 . S
C1023 C1024 1.383 . S
C1023 H1031 0.929 . S
C1024 C1023 1.383 . S
C1024 C1025 1.377 . S
C1025 H1009 0.930 . S
C1025 C1024 1.377 . S
C1025 C1026 1.379 . S
C1026 H1010 0.931 . S
C1026 C1020 1.383 . S
C1026 C1025 1.379 . S
H1027 C1021 0.959 1_655 S
H1028 C1021 0.961 . S
H1029 C1021 0.960 . S
H1030 C1022 0.930 . S
H1031 C1023 0.929 . S
H1032 C1040 0.929 . S
H1033 C1042 0.930 . S
H1034 C1044 0.930 . S
H1035 C1047 0.929 . S
H1036 C1050 0.930 1_545 S
H1037 C1052 0.970 . S
H1038 C1052 0.953 1_545 S
H1039 C1052 0.953 1_545 S
C1040 H1032 0.929 . S
C1040 C1041 1.377 1_655 S
C1040 C1042 1.384 . S
C1041 C1040 1.377 1_455 S
C1041 C1047 1.390 . S
C1042 H1033 0.930 . S
C1042 C1040 1.384 . S
C1042 C1043 1.372 . S
C1043 C1042 1.372 . S
C1043 C1044 1.400 1_655 S
C1043 C1048 1.490 . S
C1044 H1034 0.930 . S
C1044 C1043 1.400 1_455 S
C1044 C1047 1.386 . S
H1045 C1061 0.930 . S
H1046 C1062 0.931 . S
C1047 H1035 0.929 . S
C1047 C1041 1.390 . S
C1047 C1044 1.386 . S
C1048 C1043 1.490 . S
C1048 C1050 1.395 1_545 S
C1048 C1051 1.403 1_645 S
H1049 C1055 0.930 . S
C1050 H1036 0.930 1_565 S
C1050 C1048 1.395 1_565 S
C1050 C1053 1.403 . S
C1051 C1048 1.403 1_465 S
C1051 C1052 1.528 . S
C1051 C1055 1.400 . S
C1052 H1037 0.970 . S
C1052 H1038 0.953 1_565 S
C1052 H1039 0.953 1_565 S
C1052 C1051 1.528 . S
C1053 C1050 1.403 . S
C1053 C1054 1.392 . S
C1053 C1057 1.495 . S
C1054 C1053 1.392 . S
C1054 C1055 1.385 1_655 S
C1054 C1056 1.478 . S
C1055 H1049 0.930 . S
C1055 C1051 1.400 . S
C1055 C1054 1.385 1_455 S
C1056 C1054 1.478 . S
C1056 C1058 1.381 . S
C1056 C1062 1.383 1_655 S
C1057 C1053 1.495 . S
C1057 H1063 0.959 . S
C1057 H1064 0.961 . S
C1057 H1065 0.960 . S
C1058 C1056 1.381 . S
C1058 C1059 1.394 . S
C1058 H1066 0.930 . S
C1059 C1058 1.394 . S
C1059 C1060 1.383 . S
C1059 H1067 0.929 . S
C1060 C1059 1.383 . S
C1060 C1061 1.377 1_655 S
C1061 H1045 0.930 . S
C1061 C1060 1.377 1_455 S
C1061 C1062 1.379 . S
C1062 H1046 0.931 . S
C1062 C1056 1.383 1_455 S
C1062 C1061 1.379 . S
H1063 C1057 0.959 . S
H1064 C1057 0.961 . S
H1065 C1057 0.960 . S
H1066 C1058 0.930 . S
H1067 C1059 0.929 . S
H1068 C1076 0.929 . S
H1069 C1078 0.930 . S
H1070 C1080 0.930 . S
H1071 C1083 0.929 . S
H1072 C1086 0.930 . S
H1073 C1088 0.960 . S
H1074 C1088 0.960 . S
H1075 C1088 0.960 . S
C1076 H1068 0.929 . S
C1076 C1077 1.377 1_565 S
C1076 C1078 1.384 . S
C1077 C1076 1.377 1_545 S
C1077 C1083 1.390 . S
C1078 H1069 0.930 . S
C1078 C1076 1.384 . S
C1078 C1079 1.372 . S
C1079 C1078 1.372 . S
C1079 C1080 1.400 1_565 S
C1079 C1084 1.490 . S
C1080 H1070 0.930 . S
C1080 C1079 1.400 1_545 S
C1080 C1083 1.386 . S
H1081 C1097 0.930 . S
H1082 C1098 0.931 . S
C1083 H1071 0.929 . S
C1083 C1077 1.390 . S
C1083 C1080 1.386 . S
C1084 C1079 1.490 . S
C1084 C1086 1.395 . S
C1084 C1087 1.403 1_565 S
H1085 C1091 0.930 . S
C1086 H1072 0.930 . S
C1086 C1084 1.395 . S
C1086 C1089 1.403 . S
C1087 C1084 1.403 1_545 S
C1087 C1088 1.524 . S
C1087 C1091 1.400 . S
C1088 H1073 0.960 . S
C1088 H1074 0.960 . S
C1088 H1075 0.960 . S
C1088 C1087 1.524 . S
C1089 C1086 1.403 . S
C1089 C1090 1.392 . S
C1089 C1093 1.495 . S
C1090 C1089 1.392 . S
C1090 C1091 1.385 1_565 S
C1090 C1092 1.478 . S
C1091 H1085 0.930 . S
C1091 C1087 1.400 . S
C1091 C1090 1.385 1_545 S
C1092 C1090 1.478 . S
C1092 C1094 1.381 . S
C1092 C1098 1.383 . S
C1093 C1089 1.495 . S
C1093 H1099 0.959 . S
C1093 H1100 0.961 . S
C1093 H1101 0.960 . S
C1094 C1092 1.381 . S
C1094 C1095 1.394 . S
C1094 H1102 0.930 . S
C1095 C1094 1.394 . S
C1095 C1096 1.383 . S
C1095 H1103 0.929 . S
C1096 C1095 1.383 . S
C1096 C1097 1.377 . S
C1097 H1081 0.930 . S
C1097 C1096 1.377 . S
C1097 C1098 1.379 . S
C1098 H1082 0.931 . S
C1098 C1092 1.383 . S
C1098 C1097 1.379 . S
H1099 C1093 0.959 . S
H1100 C1093 0.961 . S
H1101 C1093 0.960 . S
H1102 C1094 0.930 . S
H1103 C1095 0.929 . S
H1104 C1112 0.929 . S
H1105 C1114 0.930 . S
H1106 C1116 0.930 . S
H1107 C1119 0.929 . S
H1108 C1122 0.930 . S
H1109 C1124 0.960 . S
H1110 C1124 0.960 . S
H1111 C1124 0.960 . S
C1112 H1104 0.929 . S
C1112 C1113 1.377 . S
C1112 C1114 1.384 . S
C1113 C1112 1.377 . S
C1113 C1119 1.390 . S
C1114 H1105 0.930 . S
C1114 C1112 1.384 . S
C1114 C1115 1.372 . S
C1115 C1114 1.372 . S
C1115 C1116 1.400 . S
C1115 C1120 1.490 . S
C1116 H1106 0.930 . S
C1116 C1115 1.400 . S
C1116 C1119 1.386 . S
H1117 C1133 0.930 . S
H1118 C1134 0.931 . S
C1119 H1107 0.929 . S
C1119 C1113 1.390 . S
C1119 C1116 1.386 . S
C1120 C1115 1.490 . S
C1120 C1122 1.395 . S
C1120 C1123 1.403 . S
H1121 C1127 0.930 1_565 S
C1122 H1108 0.930 . S
C1122 C1120 1.395 . S
C1122 C1125 1.403 . S
C1123 C1120 1.403 . S
C1123 C1124 1.524 . S
C1123 C1127 1.400 . S
C1124 H1109 0.960 . S
C1124 H1110 0.960 . S
C1124 H1111 0.960 . S
C1124 C1123 1.524 . S
C1125 C1122 1.403 . S
C1125 C1126 1.392 1_545 S
C1125 C1129 1.495 1_545 S
C1126 C1125 1.392 1_565 S
C1126 C1127 1.385 1_565 S
C1126 C1128 1.478 . S
C1127 H1121 0.930 1_545 S
C1127 C1123 1.400 . S
C1127 C1126 1.385 1_545 S
C1128 C1126 1.478 . S
C1128 C1130 1.381 . S
C1128 C1134 1.383 . S
C1129 C1125 1.495 1_565 S
C1129 H1135 0.959 1_565 S
C1129 H1136 0.961 . S
C1129 H1137 0.960 . S
C1130 C1128 1.381 . S
C1130 C1131 1.394 . S
C1130 H1138 0.930 . S
C1131 C1130 1.394 . S
C1131 C1132 1.383 . S
C1131 H1139 0.929 . S
C1132 C1131 1.383 . S
C1132 C1133 1.377 . S
C1133 H1117 0.930 . S
C1133 C1132 1.377 . S
C1133 C1134 1.379 . S
C1134 H1118 0.931 . S
C1134 C1128 1.383 . S
C1134 C1133 1.379 . S
H1135 C1129 0.959 1_545 S
H1136 C1129 0.961 . S
H1137 C1129 0.960 . S
H1138 C1130 0.930 . S
H1139 C1131 0.929 . S
H1140 C1148 0.929 . S
H1141 C1150 0.930 . S
H1142 C1152 0.930 . S
H1143 C1155 0.929 . S
H1144 C1158 0.930 . S
H1145 C1160 0.960 . S
H1146 C1160 0.960 . S
H1147 C1160 0.960 . S
C1148 H1140 0.929 . S
C1148 C1149 1.377 . S
C1148 C1150 1.384 . S
C1149 C1148 1.377 . S
C1149 C1155 1.390 . S
C1150 H1141 0.930 . S
C1150 C1148 1.384 . S
C1150 C1151 1.372 . S
C1151 C1150 1.372 . S
C1151 C1152 1.400 . S
C1151 C1156 1.490 . S
C1152 H1142 0.930 . S
C1152 C1151 1.400 . S
C1152 C1155 1.386 . S
H1153 C1169 0.930 . S
H1154 C1170 0.931 . S
C1155 H1143 0.929 . S
C1155 C1149 1.390 . S
C1155 C1152 1.386 . S
C1156 C1151 1.490 . S
C1156 C1158 1.395 . S
C1156 C1159 1.403 . S
H1157 C1163 0.930 . S
C1158 H1144 0.930 . S
C1158 C1156 1.395 . S
C1158 C1161 1.403 . S
C1159 C1156 1.403 . S
C1159 C1160 1.524 . S
C1159 C1163 1.400 . S
C1160 H1145 0.960 . S
C1160 H1146 0.960 . S
C1160 H1147 0.960 . S
C1160 C1159 1.524 . S
C1161 C1158 1.403 . S
C1161 C1162 1.392 . S
C1161 C1165 1.495 . S
C1162 C1161 1.392 . S
C1162 C1163 1.385 . S
C1162 C1164 1.478 . S
C1163 H1157 0.930 . S
C1163 C1159 1.400 . S
C1163 C1162 1.385 . S
C1164 C1162 1.478 . S
C1164 C1166 1.381 . S
C1164 C1170 1.383 . S
C1165 C1161 1.495 . S
C1165 H1171 0.959 . S
C1165 H1172 0.961 . S
C1165 H1173 0.960 . S
C1166 C1164 1.381 . S
C1166 C1167 1.394 . S
C1166 H1174 0.930 . S
C1167 C1166 1.394 . S
C1167 C1168 1.383 . S
C1167 H1175 0.929 . S
C1168 C1167 1.383 . S
C1168 C1169 1.377 . S
C1169 H1153 0.930 . S
C1169 C1168 1.377 . S
C1169 C1170 1.379 . S
C1170 H1154 0.931 . S
C1170 C1164 1.383 . S
C1170 C1169 1.379 . S
H1171 C1165 0.959 . S
H1172 C1165 0.961 . S
H1173 C1165 0.960 . S
H1174 C1166 0.930 . S
H1175 C1167 0.929 . S
H1176 C1184 0.929 . S
H1177 C1186 0.930 . S
H1178 C1188 0.930 . S
H1179 C1191 0.929 . S
H1180 C1194 0.930 . S
H1181 C1196 0.960 . S
H1182 C1196 0.960 1_455 S
H1183 C1196 0.960 . S
C1184 H1176 0.929 . S
C1184 C1185 1.377 . S
C1184 C1186 1.384 . S
C1185 C1184 1.377 . S
C1185 C1191 1.390 1_455 S
C1186 H1177 0.930 . S
C1186 C1184 1.384 . S
C1186 C1187 1.372 . S
C1187 C1186 1.372 . S
C1187 C1188 1.400 1_455 S
C1187 C1192 1.490 . S
C1188 H1178 0.930 . S
C1188 C1187 1.400 1_655 S
C1188 C1191 1.386 . S
H1189 C1205 0.930 . S
H1190 C1206 0.931 . S
C1191 H1179 0.929 . S
C1191 C1185 1.390 1_655 S
C1191 C1188 1.386 . S
C1192 C1187 1.490 . S
C1192 C1194 1.395 . S
C1192 C1195 1.403 1_455 S
H1193 C1199 0.930 . S
C1194 H1180 0.930 . S
C1194 C1192 1.395 . S
C1194 C1197 1.403 . S
C1195 C1192 1.403 1_655 S
C1195 C1196 1.524 . S
C1195 C1199 1.400 . S
C1196 H1181 0.960 . S
C1196 H1182 0.960 1_655 S
C1196 H1183 0.960 . S
C1196 C1195 1.524 . S
C1197 C1194 1.403 . S
C1197 C1198 1.392 . S
C1197 C1201 1.495 . S
C1198 C1197 1.392 . S
C1198 C1199 1.385 1_455 S
C1198 C1200 1.478 . S
C1199 H1193 0.930 . S
C1199 C1195 1.400 . S
C1199 C1198 1.385 1_655 S
C1200 C1198 1.478 . S
C1200 C1202 1.381 . S
C1200 C1206 1.383 1_455 S
C1201 C1197 1.495 . S
C1201 H1207 0.959 . S
C1201 H1208 0.961 . S
C1201 H1209 0.960 . S
C1202 C1200 1.381 . S
C1202 C1203 1.394 . S
C1202 H1210 0.930 . S
C1203 C1202 1.394 . S
C1203 C1204 1.383 1_455 S
C1203 H1211 0.929 . S
C1204 C1203 1.383 1_655 S
C1204 C1205 1.377 . S
C1205 H1189 0.930 . S
C1205 C1204 1.377 . S
C1205 C1206 1.379 . S
C1206 H1190 0.931 . S
C1206 C1200 1.383 1_655 S
C1206 C1205 1.379 . S
H1207 C1201 0.959 . S
H1208 C1201 0.961 . S
H1209 C1201 0.960 . S
H1210 C1202 0.930 . S
H1211 C1203 0.929 . S
H1212 C1220 0.929 . S
H1213 C1222 0.930 . S
H1214 C1224 0.930 . S
H1215 C1227 0.929 . S
H1216 C1230 0.930 1_655 S
H1217 C1232 0.960 1_455 S
H1218 C1232 0.960 . S
H1219 C1232 0.960 . S
C1220 H1212 0.929 . S
C1220 C1221 1.377 1_545 S
C1220 C1222 1.384 . S
C1221 C1220 1.377 1_565 S
C1221 C1227 1.390 . S
C1222 H1213 0.930 . S
C1222 C1220 1.384 . S
C1222 C1223 1.372 . S
C1223 C1222 1.372 . S
C1223 C1224 1.400 1_545 S
C1223 C1228 1.490 . S
C1224 H1214 0.930 . S
C1224 C1223 1.400 1_565 S
C1224 C1227 1.386 . S
H1225 C1241 0.930 . S
H1226 C1242 0.931 . S
C1227 H1215 0.929 . S
C1227 C1221 1.390 . S
C1227 C1224 1.386 . S
C1228 C1223 1.490 . S
C1228 C1230 1.395 1_655 S
C1228 C1231 1.403 1_645 S
H1229 C1235 0.930 . S
C1230 H1216 0.930 1_455 S
C1230 C1228 1.395 1_455 S
C1230 C1233 1.403 . S
C1231 C1228 1.403 1_465 S
C1231 C1232 1.524 1_455 S
C1231 C1235 1.400 . S
C1232 H1217 0.960 1_655 S
C1232 H1218 0.960 . S
C1232 H1219 0.960 . S
C1232 C1231 1.524 1_655 S
C1233 C1230 1.403 . S
C1233 C1234 1.392 . S
C1233 C1237 1.495 . S
C1234 C1233 1.392 . S
C1234 C1235 1.385 1_545 S
C1234 C1236 1.478 . S
C1235 H1229 0.930 . S
C1235 C1231 1.400 . S
C1235 C1234 1.385 1_565 S
C1236 C1234 1.478 . S
C1236 C1238 1.381 . S
C1236 C1242 1.383 1_545 S
C1237 C1233 1.495 . S
C1237 H1243 0.959 . S
C1237 H1244 0.961 . S
C1237 H1245 0.960 . S
C1238 C1236 1.381 . S
C1238 C1239 1.394 . S
C1238 H1246 0.930 . S
C1239 C1238 1.394 . S
C1239 C1240 1.383 . S
C1239 H1247 0.929 . S
C1240 C1239 1.383 . S
C1240 C1241 1.377 1_545 S
C1241 H1225 0.930 . S
C1241 C1240 1.377 1_565 S
C1241 C1242 1.379 . S
C1242 H1226 0.931 . S
C1242 C1236 1.383 1_565 S
C1242 C1241 1.379 . S
H1243 C1237 0.959 . S
H1244 C1237 0.961 . S
H1245 C1237 0.960 . S
H1246 C1238 0.930 . S
H1247 C1239 0.929 . S
H1248 C1256 0.929 . S
H1249 C1258 0.930 . S
H1250 C1260 0.930 . S
H1251 C1263 0.929 . S
H1252 C1266 0.930 . S
H1253 C1268 0.960 . S
H1254 C1268 0.960 . S
H1255 C1268 0.960 . S
C1256 H1248 0.929 . S
C1256 C1257 1.377 . S
C1256 C1258 1.384 . S
C1257 C1256 1.377 . S
C1257 C1263 1.390 . S
C1258 H1249 0.930 . S
C1258 C1256 1.384 . S
C1258 C1259 1.372 . S
C1259 C1258 1.372 . S
C1259 C1260 1.400 . S
C1259 C1264 1.490 . S
C1260 H1250 0.930 . S
C1260 C1259 1.400 . S
C1260 C1263 1.386 . S
H1261 C1277 0.930 . S
H1262 C1278 0.931 . S
C1263 H1251 0.929 . S
C1263 C1257 1.390 . S
C1263 C1260 1.386 . S
C1264 C1259 1.490 . S
C1264 C1266 1.395 . S
C1264 C1267 1.403 . S
H1265 C1271 0.930 . S
C1266 H1252 0.930 . S
C1266 C1264 1.395 . S
C1266 C1269 1.403 . S
C1267 C1264 1.403 . S
C1267 C1268 1.524 . S
C1267 C1271 1.400 . S
C1268 H1253 0.960 . S
C1268 H1254 0.960 . S
C1268 H1255 0.960 . S
C1268 C1267 1.524 . S
C1269 C1266 1.403 . S
C1269 C1270 1.392 . S
C1269 C1273 1.495 . S
C1270 C1269 1.392 . S
C1270 C1271 1.385 . S
C1270 C1272 1.478 . S
C1271 H1265 0.930 . S
C1271 C1267 1.400 . S
C1271 C1270 1.385 . S
C1272 C1270 1.478 . S
C1272 C1274 1.381 . S
C1272 C1278 1.383 . S
C1273 C1269 1.495 . S
C1273 H1279 0.959 . S
C1273 H1280 0.961 . S
C1273 H1281 0.960 . S
C1274 C1272 1.381 . S
C1274 C1275 1.394 . S
C1274 H1282 0.930 . S
C1275 C1274 1.394 . S
C1275 C1276 1.383 . S
C1275 H1283 0.929 . S
C1276 C1275 1.383 . S
C1276 C1277 1.377 . S
C1277 H1261 0.930 . S
C1277 C1276 1.377 . S
C1277 C1278 1.379 . S
C1278 H1262 0.931 . S
C1278 C1272 1.383 . S
C1278 C1277 1.379 . S
H1279 C1273 0.959 . S
H1280 C1273 0.961 . S
H1281 C1273 0.960 . S
H1282 C1274 0.930 . S
H1283 C1275 0.929 . S
H1284 C1292 0.929 . S
H1285 C1294 0.930 . S
H1286 C1296 0.930 . S
H1287 C1299 0.929 . S
H1288 C1302 0.930 . S
H1289 C1304 0.960 . S
H1290 C1304 0.960 . S
H1291 C1304 0.960 . S
C1292 H1284 0.929 . S
C1292 C1293 1.377 . S
C1292 C1294 1.384 . S
C1293 C1292 1.377 . S
C1293 C1299 1.390 . S
C1294 H1285 0.930 . S
C1294 C1292 1.384 . S
C1294 C1295 1.372 . S
C1295 C1294 1.372 . S
C1295 C1296 1.400 . S
C1295 C1300 1.490 . S
C1296 H1286 0.930 . S
C1296 C1295 1.400 . S
C1296 C1299 1.386 . S
H1297 C1313 0.930 . S
H1298 C1314 0.931 . S
C1299 H1287 0.929 . S
C1299 C1293 1.390 . S
C1299 C1296 1.386 . S
C1300 C1295 1.490 . S
C1300 C1302 1.395 . S
C1300 C1303 1.403 . S
H1301 C1307 0.930 1_655 S
C1302 H1288 0.930 . S
C1302 C1300 1.395 . S
C1302 C1305 1.403 . S
C1303 C1300 1.403 . S
C1303 C1304 1.524 . S
C1303 C1307 1.400 . S
C1304 H1289 0.960 . S
C1304 H1290 0.960 . S
C1304 H1291 0.960 . S
C1304 C1303 1.524 . S
C1305 C1302 1.403 . S
C1305 C1306 1.392 1_455 S
C1305 C1309 1.494 . S
C1306 C1305 1.392 1_655 S
C1306 C1307 1.385 1_655 S
C1306 C1308 1.478 . S
C1307 H1301 0.930 1_455 S
C1307 C1303 1.400 . S
C1307 C1306 1.385 1_455 S
C1308 C1306 1.478 . S
C1308 C1310 1.381 . S
C1308 C1314 1.383 . S
C1309 C1305 1.494 . S
C1309 H1315 0.956 . S
C1309 H1316 0.963 1_455 S
C1309 H1317 0.962 1_455 S
C1310 C1308 1.381 . S
C1310 C1311 1.394 . S
C1310 H1318 0.930 . S
C1311 C1310 1.394 . S
C1311 C1312 1.383 . S
C1311 H1319 0.929 . S
C1312 C1311 1.383 . S
C1312 C1313 1.377 . S
C1313 H1297 0.930 . S
C1313 C1312 1.377 . S
C1313 C1314 1.379 . S
C1314 H1298 0.931 . S
C1314 C1308 1.383 . S
C1314 C1313 1.379 . S
H1315 C1309 0.956 . S
H1316 C1309 0.963 1_655 S
H1317 C1309 0.962 1_655 S
H1318 C1310 0.930 . S
H1319 C1311 0.929 . S
H1320 C1328 0.929 . S
H1321 C1330 0.930 . S
H1322 C1332 0.930 . S
H1323 C1335 0.929 . S
H1324 C1338 0.930 1_565 S
H1325 C1340 0.944 1_545 S
H1326 C1340 0.972 . S
H1327 C1340 0.972 . S
C1328 H1320 0.929 . S
C1328 C1329 1.377 1_455 S
C1328 C1330 1.384 . S
C1329 C1328 1.377 1_655 S
C1329 C1335 1.390 . S
C1330 H1321 0.930 . S
C1330 C1328 1.384 . S
C1330 C1331 1.372 . S
C1331 C1330 1.372 . S
C1331 C1332 1.400 1_455 S
C1331 C1336 1.490 . S
C1332 H1322 0.930 . S
C1332 C1331 1.400 1_655 S
C1332 C1335 1.386 . S
H1333 C1349 0.936 . S
H1334 C1350 0.957 . S
C1335 H1323 0.929 . S
C1335 C1329 1.390 . S
C1335 C1332 1.386 . S
C1336 C1331 1.490 . S
C1336 C1338 1.395 1_565 S
C1336 C1339 1.403 1_465 S
H1337 C1343 0.930 . S
C1338 H1324 0.930 1_545 S
C1338 C1336 1.395 1_545 S
C1338 C1341 1.403 . S
C1339 C1336 1.403 1_645 S
C1339 C1340 1.516 1_545 S
C1339 C1343 1.400 . S
C1340 H1325 0.944 1_565 S
C1340 H1326 0.972 . S
C1340 H1327 0.972 . S
C1340 C1339 1.516 1_565 S
C1341 C1338 1.403 . S
C1341 C1342 1.392 . S
C1341 C1345 1.495 . S
C1342 C1341 1.392 . S
C1342 C1343 1.385 1_455 S
C1342 C1344 1.478 . S
C1343 H1337 0.930 . S
C1343 C1339 1.400 . S
C1343 C1342 1.385 1_655 S
C1344 C1342 1.478 . S
C1344 C1346 1.381 . S
C1344 C1350 1.359 1_455 S
C1345 C1341 1.495 . S
C1345 H1351 0.959 . S
C1345 H1352 0.961 . S
C1345 H1353 0.960 . S
C1346 C1344 1.381 . S
C1346 C1347 1.394 . S
C1346 H1354 0.930 . S
C1347 C1346 1.394 . S
C1347 C1348 1.383 . S
C1347 H1355 0.929 . S
C1348 C1347 1.383 . S
C1348 C1349 1.370 1_455 S
C1349 H1333 0.936 . S
C1349 C1348 1.370 1_655 S
C1349 C1350 1.379 . S
C1350 H1334 0.957 . S
C1350 C1344 1.359 1_655 S
C1350 C1349 1.379 . S
H1351 C1345 0.959 . S
H1352 C1345 0.961 . S
H1353 C1345 0.960 . S
H1354 C1346 0.930 . S
H1355 C1347 0.929 . S
H1356 C1364 0.929 . S
H1357 C1366 0.930 . S
H1358 C1368 0.930 . S
H1359 C1371 0.929 . S
H1360 C1374 0.930 . S
H1361 C1376 0.960 . S
H1362 C1376 0.960 . S
H1363 C1376 0.960 . S
C1364 H1356 0.929 . S
C1364 C1365 1.377 . S
C1364 C1366 1.384 . S
C1365 C1364 1.377 . S
C1365 C1371 1.390 . S
C1366 H1357 0.930 . S
C1366 C1364 1.384 . S
C1366 C1367 1.372 . S
C1367 C1366 1.372 . S
C1367 C1368 1.400 . S
C1367 C1372 1.490 . S
C1368 H1358 0.930 . S
C1368 C1367 1.400 . S
C1368 C1371 1.386 . S
H1369 C1385 0.930 . S
H1370 C1386 0.933 . S
C1371 H1359 0.929 . S
C1371 C1365 1.390 . S
C1371 C1368 1.386 . S
C1372 C1367 1.490 . S
C1372 C1374 1.395 1_545 S
C1372 C1375 1.403 . S
H1373 C1379 0.930 . S
C1374 H1360 0.930 . S
C1374 C1372 1.395 1_565 S
C1374 C1377 1.403 . S
C1375 C1372 1.403 . S
C1375 C1376 1.524 . S
C1375 C1379 1.400 . S
C1376 H1361 0.960 . S
C1376 H1362 0.960 . S
C1376 H1363 0.960 . S
C1376 C1375 1.524 . S
C1377 C1374 1.403 . S
C1377 C1378 1.390 . S
C1377 C1381 1.495 . S
C1378 C1377 1.390 . S
C1378 C1379 1.388 1_565 S
C1378 C1380 1.477 . S
C1379 H1373 0.930 . S
C1379 C1375 1.400 . S
C1379 C1378 1.388 1_545 S
C1380 C1378 1.477 . S
C1380 C1382 1.381 . S
C1380 C1386 1.383 . S
C1381 C1377 1.495 . S
C1381 H1387 0.959 . S
C1381 H1388 0.961 . S
C1381 H1389 0.960 . S
C1382 C1380 1.381 . S
C1382 C1383 1.394 . S
C1382 H1390 0.930 . S
C1383 C1382 1.394 . S
C1383 C1384 1.383 . S
C1383 H1391 0.929 . S
C1384 C1383 1.383 . S
C1384 C1385 1.377 . S
C1385 H1369 0.930 . S
C1385 C1384 1.377 . S
C1385 C1386 1.379 . S
C1386 H1370 0.933 . S
C1386 C1380 1.383 . S
C1386 C1385 1.379 . S
H1387 C1381 0.959 . S
H1388 C1381 0.961 . S
H1389 C1381 0.960 . S
H1390 C1382 0.930 . S
H1391 C1383 0.929 . S
H1392 C1400 0.929 . S
H1393 C1402 0.930 . S
H1394 C1404 0.930 . S
H1395 C1407 0.929 . S
H1396 C1410 0.930 . S
H1397 C1412 0.960 . S
H1398 C1412 0.960 . S
H1399 C1412 0.960 . S
C1400 H1392 0.929 . S
C1400 C1401 1.377 . S
C1400 C1402 1.384 . S
C1401 C1400 1.377 . S
C1401 C1407 1.390 . S
C1402 H1393 0.930 . S
C1402 C1400 1.384 . S
C1402 C1403 1.372 . S
C1403 C1402 1.372 . S
C1403 C1404 1.400 . S
C1403 C1408 1.490 . S
C1404 H1394 0.930 . S
C1404 C1403 1.400 . S
C1404 C1407 1.386 . S
H1405 C1421 0.930 . S
H1406 C1422 0.931 . S
C1407 H1395 0.929 . S
C1407 C1401 1.390 . S
C1407 C1404 1.386 . S
C1408 C1403 1.490 . S
C1408 C1410 1.395 . S
C1408 C1411 1.403 . S
H1409 C1415 0.930 . S
C1410 H1396 0.930 . S
C1410 C1408 1.395 . S
C1410 C1413 1.403 . S
C1411 C1408 1.403 . S
C1411 C1412 1.524 . S
C1411 C1415 1.400 . S
C1412 H1397 0.960 . S
C1412 H1398 0.960 . S
C1412 H1399 0.960 . S
C1412 C1411 1.524 . S
C1413 C1410 1.403 . S
C1413 C1414 1.392 . S
C1413 C1417 1.495 . S
C1414 C1413 1.392 . S
C1414 C1415 1.385 . S
C1414 C1416 1.478 . S
C1415 H1409 0.930 . S
C1415 C1411 1.400 . S
C1415 C1414 1.385 . S
C1416 C1414 1.478 . S
C1416 C1418 1.381 . S
C1416 C1422 1.383 . S
C1417 C1413 1.495 . S
C1417 H1423 0.959 . S
C1417 H1424 0.961 . S
C1417 H1425 0.960 . S
C1418 C1416 1.381 . S
C1418 C1419 1.394 . S
C1418 H1426 0.930 . S
C1419 C1418 1.394 . S
C1419 C1420 1.383 . S
C1419 H1427 0.929 . S
C1420 C1419 1.383 . S
C1420 C1421 1.377 . S
C1421 H1405 0.930 . S
C1421 C1420 1.377 . S
C1421 C1422 1.379 . S
C1422 H1406 0.931 . S
C1422 C1416 1.383 . S
C1422 C1421 1.379 . S
H1423 C1417 0.959 . S
H1424 C1417 0.961 . S
H1425 C1417 0.960 . S
H1426 C1418 0.930 . S
H1427 C1419 0.929 . S
H1428 C1436 0.929 . S
H1429 C1438 0.930 . S
H1430 C1440 0.930 . S
H1431 C1443 0.929 . S
H1432 C1446 0.930 . S
H1433 C1448 0.960 . S
H1434 C1448 0.960 . S
H1435 C1448 0.960 . S
C1436 H1428 0.929 . S
C1436 C1437 1.377 . S
C1436 C1438 1.384 . S
C1437 C1436 1.377 . S
C1437 C1443 1.390 . S
C1438 H1429 0.930 . S
C1438 C1436 1.384 . S
C1438 C1439 1.372 . S
C1439 C1438 1.372 . S
C1439 C1440 1.400 . S
C1439 C1444 1.490 . S
C1440 H1430 0.930 . S
C1440 C1439 1.400 . S
C1440 C1443 1.386 . S
H1441 C1457 0.930 . S
H1442 C1458 0.931 . S
C1443 H1431 0.929 . S
C1443 C1437 1.390 . S
C1443 C1440 1.386 . S
C1444 C1439 1.490 . S
C1444 C1446 1.395 . S
C1444 C1447 1.403 . S
H1445 C1451 0.930 . S
C1446 H1432 0.930 . S
C1446 C1444 1.395 . S
C1446 C1449 1.403 . S
C1447 C1444 1.403 . S
C1447 C1448 1.524 . S
C1447 C1451 1.400 . S
C1448 H1433 0.960 . S
C1448 H1434 0.960 . S
C1448 H1435 0.960 . S
C1448 C1447 1.524 . S
C1449 C1446 1.403 . S
C1449 C1450 1.392 . S
C1449 C1453 1.495 . S
C1450 C1449 1.392 . S
C1450 C1451 1.385 . S
C1450 C1452 1.478 . S
C1451 H1445 0.930 . S
C1451 C1447 1.400 . S
C1451 C1450 1.385 . S
C1452 C1450 1.478 . S
C1452 C1454 1.381 . S
C1452 C1458 1.383 . S
C1453 C1449 1.495 . S
C1453 H1459 0.959 . S
C1453 H1460 0.961 . S
C1453 H1461 0.960 . S
C1454 C1452 1.381 . S
C1454 C1455 1.394 . S
C1454 H1462 0.930 . S
C1455 C1454 1.394 . S
C1455 C1456 1.383 . S
C1455 H1463 0.929 . S
C1456 C1455 1.383 . S
C1456 C1457 1.377 . S
C1457 H1441 0.930 . S
C1457 C1456 1.377 . S
C1457 C1458 1.379 . S
C1458 H1442 0.931 . S
C1458 C1452 1.383 . S
C1458 C1457 1.379 . S
H1459 C1453 0.959 . S
H1460 C1453 0.961 . S
H1461 C1453 0.960 . S
H1462 C1454 0.930 . S
H1463 C1455 0.929 . S
H1464 C1472 0.929 . S
H1465 C1474 0.930 . S
H1466 C1476 0.930 . S
H1467 C1479 0.929 . S
H1468 C1482 0.930 . S
H1469 C1484 0.960 . S
H1470 C1484 0.960 . S
H1471 C1484 0.960 . S
C1472 H1464 0.929 . S
C1472 C1473 1.377 . S
C1472 C1474 1.384 . S
C1473 C1472 1.377 . S
C1473 C1479 1.390 . S
C1474 H1465 0.930 . S
C1474 C1472 1.384 . S
C1474 C1475 1.372 . S
C1475 C1474 1.372 . S
C1475 C1476 1.400 . S
C1475 C1480 1.490 . S
C1476 H1466 0.930 . S
C1476 C1475 1.400 . S
C1476 C1479 1.386 . S
H1477 C1493 0.930 . S
H1478 C1494 0.931 . S
C1479 H1467 0.929 . S
C1479 C1473 1.390 . S
C1479 C1476 1.386 . S
C1480 C1475 1.490 . S
C1480 C1482 1.395 . S
C1480 C1483 1.403 . S
H1481 C1487 0.930 . S
C1482 H1468 0.930 . S
C1482 C1480 1.395 . S
C1482 C1485 1.403 . S
C1483 C1480 1.403 . S
C1483 C1484 1.524 . S
C1483 C1487 1.400 . S
C1484 H1469 0.960 . S
C1484 H1470 0.960 . S
C1484 H1471 0.960 . S
C1484 C1483 1.524 . S
C1485 C1482 1.403 . S
C1485 C1486 1.392 . S
C1485 C1489 1.495 . S
C1486 C1485 1.392 . S
C1486 C1487 1.385 . S
C1486 C1488 1.478 . S
C1487 H1481 0.930 . S
C1487 C1483 1.400 . S
C1487 C1486 1.385 . S
C1488 C1486 1.478 . S
C1488 C1490 1.381 . S
C1488 C1494 1.383 . S
C1489 C1485 1.495 . S
C1489 H1495 0.959 . S
C1489 H1496 0.961 . S
C1489 H1497 0.960 . S
C1490 C1488 1.381 . S
C1490 C1491 1.394 . S
C1490 H1498 0.930 . S
C1491 C1490 1.394 . S
C1491 C1492 1.383 . S
C1491 H1499 0.929 . S
C1492 C1491 1.383 . S
C1492 C1493 1.377 . S
C1493 H1477 0.930 . S
C1493 C1492 1.377 . S
C1493 C1494 1.379 . S
C1494 H1478 0.931 . S
C1494 C1488 1.383 . S
C1494 C1493 1.379 . S
H1495 C1489 0.959 . S
H1496 C1489 0.961 . S
H1497 C1489 0.960 . S
H1498 C1490 0.930 . S
H1499 C1491 0.929 . S
H1500 C1508 0.929 . S
H1501 C1510 0.930 . S
H1502 C1512 0.930 . S
H1503 C1515 0.929 . S
H1504 C1518 0.930 . S
H1505 C1520 0.960 . S
H1506 C1520 0.960 . S
H1507 C1520 0.960 . S
C1508 H1500 0.929 . S
C1508 C1509 1.377 . S
C1508 C1510 1.384 . S
C1509 C1508 1.377 . S
C1509 C1515 1.390 . S
C1510 H1501 0.930 . S
C1510 C1508 1.384 . S
C1510 C1511 1.372 . S
C1511 C1510 1.372 . S
C1511 C1512 1.400 . S
C1511 C1516 1.490 . S
C1512 H1502 0.930 . S
C1512 C1511 1.400 . S
C1512 C1515 1.386 . S
H1513 C1529 0.930 . S
H1514 C1530 0.931 . S
C1515 H1503 0.929 . S
C1515 C1509 1.390 . S
C1515 C1512 1.386 . S
C1516 C1511 1.490 . S
C1516 C1518 1.395 . S
C1516 C1519 1.403 . S
H1517 C1523 0.930 . S
C1518 H1504 0.930 . S
C1518 C1516 1.395 . S
C1518 C1521 1.403 . S
C1519 C1516 1.403 . S
C1519 C1520 1.524 . S
C1519 C1523 1.400 . S
C1520 H1505 0.960 . S
C1520 H1506 0.960 . S
C1520 H1507 0.960 . S
C1520 C1519 1.524 . S
C1521 C1518 1.403 . S
C1521 C1522 1.392 . S
C1521 C1525 1.495 . S
C1522 C1521 1.392 . S
C1522 C1523 1.385 . S
C1522 C1524 1.478 . S
C1523 H1517 0.930 . S
C1523 C1519 1.400 . S
C1523 C1522 1.385 . S
C1524 C1522 1.478 . S
C1524 C1526 1.381 . S
C1524 C1530 1.383 . S
C1525 C1521 1.495 . S
C1525 H1531 0.959 . S
C1525 H1532 0.961 . S
C1525 H1533 0.960 . S
C1526 C1524 1.381 . S
C1526 C1527 1.394 . S
C1526 H1534 0.930 . S
C1527 C1526 1.394 . S
C1527 C1528 1.383 . S
C1527 H1535 0.929 . S
C1528 C1527 1.383 . S
C1528 C1529 1.377 . S
C1529 H1513 0.930 . S
C1529 C1528 1.377 . S
C1529 C1530 1.379 . S
C1530 H1514 0.931 . S
C1530 C1524 1.383 . S
C1530 C1529 1.379 . S
H1531 C1525 0.959 . S
H1532 C1525 0.961 . S
H1533 C1525 0.960 . S
H1534 C1526 0.930 . S
H1535 C1527 0.929 . S
H1536 C1544 0.929 . S
H1537 C1546 0.930 . S
H1538 C1548 0.930 . S
H1539 C1551 0.929 . S
H1540 C1554 0.930 . S
H1541 C1556 0.960 . S
H1542 C1556 0.960 . S
H1543 C1556 0.960 . S
C1544 H1536 0.929 . S
C1544 C1545 1.377 . S
C1544 C1546 1.384 . S
C1545 C1544 1.377 . S
C1545 C1551 1.390 . S
C1546 H1537 0.930 . S
C1546 C1544 1.384 . S
C1546 C1547 1.372 . S
C1547 C1546 1.372 . S
C1547 C1548 1.400 . S
C1547 C1552 1.490 . S
C1548 H1538 0.930 . S
C1548 C1547 1.400 . S
C1548 C1551 1.386 . S
H1549 C1565 0.930 . S
H1550 C1566 0.931 . S
C1551 H1539 0.929 . S
C1551 C1545 1.390 . S
C1551 C1548 1.386 . S
C1552 C1547 1.490 . S
C1552 C1554 1.395 . S
C1552 C1555 1.403 . S
H1553 C1559 0.930 . S
C1554 H1540 0.930 . S
C1554 C1552 1.395 . S
C1554 C1557 1.403 . S
C1555 C1552 1.403 . S
C1555 C1556 1.524 . S
C1555 C1559 1.400 . S
C1556 H1541 0.960 . S
C1556 H1542 0.960 . S
C1556 H1543 0.960 . S
C1556 C1555 1.524 . S
C1557 C1554 1.403 . S
C1557 C1558 1.392 . S
C1557 C1561 1.495 . S
C1558 C1557 1.392 . S
C1558 C1559 1.385 . S
C1558 C1560 1.478 . S
C1559 H1553 0.930 . S
C1559 C1555 1.400 . S
C1559 C1558 1.385 . S
C1560 C1558 1.478 . S
C1560 C1562 1.381 . S
C1560 C1566 1.383 . S
C1561 C1557 1.495 . S
C1561 H1567 0.959 . S
C1561 H1568 0.961 . S
C1561 H1569 0.960 . S
C1562 C1560 1.381 . S
C1562 C1563 1.394 . S
C1562 H1570 0.930 . S
C1563 C1562 1.394 . S
C1563 C1564 1.383 . S
C1563 H1571 0.929 . S
C1564 C1563 1.383 . S
C1564 C1565 1.377 . S
C1565 H1549 0.930 . S
C1565 C1564 1.377 . S
C1565 C1566 1.379 . S
C1566 H1550 0.931 . S
C1566 C1560 1.383 . S
C1566 C1565 1.379 . S
H1567 C1561 0.959 . S
H1568 C1561 0.961 . S
H1569 C1561 0.960 . S
H1570 C1562 0.930 . S
H1571 C1563 0.929 . S
H1572 C1580 0.929 . S
H1573 C1582 0.930 . S
H1574 C1584 0.930 . S
H1575 C1587 0.929 . S
H1576 C1590 0.930 . S
H1577 C1592 0.960 . S
H1578 C1592 0.960 . S
H1579 C1592 0.960 . S
C1580 H1572 0.929 . S
C1580 C1581 1.377 . S
C1580 C1582 1.384 . S
C1581 C1580 1.377 . S
C1581 C1587 1.390 . S
C1582 H1573 0.930 . S
C1582 C1580 1.384 . S
C1582 C1583 1.372 . S
C1583 C1582 1.372 . S
C1583 C1584 1.400 . S
C1583 C1588 1.490 . S
C1584 H1574 0.930 . S
C1584 C1583 1.400 . S
C1584 C1587 1.386 . S
H1585 C1601 0.930 . S
H1586 C1602 0.931 . S
C1587 H1575 0.929 . S
C1587 C1581 1.390 . S
C1587 C1584 1.386 . S
C1588 C1583 1.490 . S
C1588 C1590 1.395 . S
C1588 C1591 1.403 . S
H1589 C1595 0.930 . S
C1590 H1576 0.930 . S
C1590 C1588 1.395 . S
C1590 C1593 1.403 . S
C1591 C1588 1.403 . S
C1591 C1592 1.524 . S
C1591 C1595 1.400 . S
C1592 H1577 0.960 . S
C1592 H1578 0.960 . S
C1592 H1579 0.960 . S
C1592 C1591 1.524 . S
C1593 C1590 1.403 . S
C1593 C1594 1.392 . S
C1593 C1597 1.495 . S
C1594 C1593 1.392 . S
C1594 C1595 1.385 . S
C1594 C1596 1.478 . S
C1595 H1589 0.930 . S
C1595 C1591 1.400 . S
C1595 C1594 1.385 . S
C1596 C1594 1.478 . S
C1596 C1598 1.381 . S
C1596 C1602 1.383 . S
C1597 C1593 1.495 . S
C1597 H1603 0.959 . S
C1597 H1604 0.961 . S
C1597 H1605 0.960 . S
C1598 C1596 1.381 . S
C1598 C1599 1.394 . S
C1598 H1606 0.930 . S
C1599 C1598 1.394 . S
C1599 C1600 1.383 . S
C1599 H1607 0.929 . S
C1600 C1599 1.383 . S
C1600 C1601 1.377 . S
C1601 H1585 0.930 . S
C1601 C1600 1.377 . S
C1601 C1602 1.379 . S
C1602 H1586 0.931 . S
C1602 C1596 1.383 . S
C1602 C1601 1.379 . S
H1603 C1597 0.959 . S
H1604 C1597 0.961 . S
H1605 C1597 0.960 . S
H1606 C1598 0.930 . S
H1607 C1599 0.929 . S
H1608 C1616 0.929 . S
H1609 C1618 0.930 . S
H1610 C1620 0.930 . S
H1611 C1623 0.929 . S
H1612 C1626 0.930 . S
H1613 C1628 0.960 . S
H1614 C1628 0.960 . S
H1615 C1628 0.960 . S
C1616 H1608 0.929 . S
C1616 C1617 1.377 . S
C1616 C1618 1.384 . S
C1617 C1616 1.377 . S
C1617 C1623 1.390 . S
C1618 H1609 0.930 . S
C1618 C1616 1.384 . S
C1618 C1619 1.372 . S
C1619 C1618 1.372 . S
C1619 C1620 1.400 . S
C1619 C1624 1.490 . S
C1620 H1610 0.930 . S
C1620 C1619 1.400 . S
C1620 C1623 1.386 . S
H1621 C1637 0.930 . S
H1622 C1638 0.931 . S
C1623 H1611 0.929 . S
C1623 C1617 1.390 . S
C1623 C1620 1.386 . S
C1624 C1619 1.490 . S
C1624 C1626 1.395 . S
C1624 C1627 1.403 . S
H1625 C1631 0.930 . S
C1626 H1612 0.930 . S
C1626 C1624 1.395 . S
C1626 C1629 1.403 . S
C1627 C1624 1.403 . S
C1627 C1628 1.524 . S
C1627 C1631 1.400 . S
C1628 H1613 0.960 . S
C1628 H1614 0.960 . S
C1628 H1615 0.960 . S
C1628 C1627 1.524 . S
C1629 C1626 1.403 . S
C1629 C1630 1.392 . S
C1629 C1633 1.495 . S
C1630 C1629 1.392 . S
C1630 C1631 1.385 . S
C1630 C1632 1.478 . S
C1631 H1625 0.930 . S
C1631 C1627 1.400 . S
C1631 C1630 1.385 . S
C1632 C1630 1.478 . S
C1632 C1634 1.381 . S
C1632 C1638 1.383 . S
C1633 C1629 1.495 . S
C1633 H1639 0.959 . S
C1633 H1640 0.961 . S
C1633 H1641 0.960 . S
C1634 C1632 1.381 . S
C1634 C1635 1.394 . S
C1634 H1642 0.930 . S
C1635 C1634 1.394 . S
C1635 C1636 1.383 . S
C1635 H1643 0.929 . S
C1636 C1635 1.383 . S
C1636 C1637 1.377 . S
C1637 H1621 0.930 . S
C1637 C1636 1.377 . S
C1637 C1638 1.379 . S
C1638 H1622 0.931 . S
C1638 C1632 1.383 . S
C1638 C1637 1.379 . S
H1639 C1633 0.959 . S
H1640 C1633 0.961 . S
H1641 C1633 0.960 . S
H1642 C1634 0.930 . S
H1643 C1635 0.929 . S
H1644 C1652 0.929 . S
H1645 C1654 0.930 . S
H1646 C1656 0.930 . S
H1647 C1659 0.929 . S
H1648 C1662 0.930 . S
H1649 C1664 0.960 . S
H1650 C1664 0.960 . S
H1651 C1664 0.960 . S
C1652 H1644 0.929 . S
C1652 C1653 1.377 . S
C1652 C1654 1.384 . S
C1653 C1652 1.377 . S
C1653 C1659 1.390 . S
C1654 H1645 0.930 . S
C1654 C1652 1.384 . S
C1654 C1655 1.372 . S
C1655 C1654 1.372 . S
C1655 C1656 1.400 . S
C1655 C1660 1.490 . S
C1656 H1646 0.930 . S
C1656 C1655 1.400 . S
C1656 C1659 1.386 . S
H1657 C1673 0.930 . S
H1658 C1674 0.931 . S
C1659 H1647 0.929 . S
C1659 C1653 1.390 . S
C1659 C1656 1.386 . S
C1660 C1655 1.490 . S
C1660 C1662 1.395 . S
C1660 C1663 1.403 . S
H1661 C1667 0.930 . S
C1662 H1648 0.930 . S
C1662 C1660 1.395 . S
C1662 C1665 1.403 . S
C1663 C1660 1.403 . S
C1663 C1664 1.524 . S
C1663 C1667 1.400 . S
C1664 H1649 0.960 . S
C1664 H1650 0.960 . S
C1664 H1651 0.960 . S
C1664 C1663 1.524 . S
C1665 C1662 1.403 . S
C1665 C1666 1.392 . S
C1665 C1669 1.495 . S
C1666 C1665 1.392 . S
C1666 C1667 1.385 . S
C1666 C1668 1.478 . S
C1667 H1661 0.930 . S
C1667 C1663 1.400 . S
C1667 C1666 1.385 . S
C1668 C1666 1.478 . S
C1668 C1670 1.381 . S
C1668 C1674 1.383 . S
C1669 C1665 1.495 . S
C1669 H1675 0.959 . S
C1669 H1676 0.961 . S
C1669 H1677 0.960 . S
C1670 C1668 1.381 . S
C1670 C1671 1.394 . S
C1670 H1678 0.930 . S
C1671 C1670 1.394 . S
C1671 C1672 1.383 . S
C1671 H1679 0.929 . S
C1672 C1671 1.383 . S
C1672 C1673 1.377 . S
C1673 H1657 0.930 . S
C1673 C1672 1.377 . S
C1673 C1674 1.379 . S
C1674 H1658 0.931 . S
C1674 C1668 1.383 . S
C1674 C1673 1.379 . S
H1675 C1669 0.959 . S
H1676 C1669 0.961 . S
H1677 C1669 0.960 . S
H1678 C1670 0.930 . S
H1679 C1671 0.929 . S
H1680 C1688 0.929 . S
H1681 C1690 0.930 . S
H1682 C1692 0.930 . S
H1683 C1695 0.929 . S
H1684 C1698 0.930 . S
H1685 C1700 0.960 . S
H1686 C1700 0.960 . S
H1687 C1700 0.960 . S
C1688 H1680 0.929 . S
C1688 C1689 1.377 . S
C1688 C1690 1.384 . S
C1689 C1688 1.377 . S
C1689 C1695 1.390 . S
C1690 H1681 0.930 . S
C1690 C1688 1.384 . S
C1690 C1691 1.372 . S
C1691 C1690 1.372 . S
C1691 C1692 1.400 . S
C1691 C1696 1.490 . S
C1692 H1682 0.930 . S
C1692 C1691 1.400 . S
C1692 C1695 1.386 . S
H1693 C1709 0.930 . S
H1694 C1710 0.931 . S
C1695 H1683 0.929 . S
C1695 C1689 1.390 . S
C1695 C1692 1.386 . S
C1696 C1691 1.490 . S
C1696 C1698 1.395 . S
C1696 C1699 1.403 . S
H1697 C1703 0.930 . S
C1698 H1684 0.930 . S
C1698 C1696 1.395 . S
C1698 C1701 1.403 . S
C1699 C1696 1.403 . S
C1699 C1700 1.524 . S
C1699 C1703 1.400 . S
C1700 H1685 0.960 . S
C1700 H1686 0.960 . S
C1700 H1687 0.960 . S
C1700 C1699 1.524 . S
C1701 C1698 1.403 . S
C1701 C1702 1.392 . S
C1701 C1705 1.495 . S
C1702 C1701 1.392 . S
C1702 C1703 1.385 . S
C1702 C1704 1.478 . S
C1703 H1697 0.930 . S
C1703 C1699 1.400 . S
C1703 C1702 1.385 . S
C1704 C1702 1.478 . S
C1704 C1706 1.381 . S
C1704 C1710 1.383 . S
C1705 C1701 1.495 . S
C1705 H1711 0.959 . S
C1705 H1712 0.961 . S
C1705 H1713 0.960 . S
C1706 C1704 1.381 . S
C1706 C1707 1.394 . S
C1706 H1714 0.930 . S
C1707 C1706 1.394 . S
C1707 C1708 1.383 . S
C1707 H1715 0.929 . S
C1708 C1707 1.383 . S
C1708 C1709 1.377 . S
C1709 H1693 0.930 . S
C1709 C1708 1.377 . S
C1709 C1710 1.379 . S
C1710 H1694 0.931 . S
C1710 C1704 1.383 . S
C1710 C1709 1.379 . S
H1711 C1705 0.959 . S
H1712 C1705 0.961 . S
H1713 C1705 0.960 . S
H1714 C1706 0.930 . S
H1715 C1707 0.929 . S
H1716 C1724 0.929 . S
H1717 C1726 0.930 . S
H1718 C1728 0.930 . S
H1719 C1731 0.929 . S
H1720 C1734 0.930 . S
H1721 C1736 0.960 . S
H1722 C1736 0.960 . S
H1723 C1736 0.960 . S
C1724 H1716 0.929 . S
C1724 C1725 1.377 . S
C1724 C1726 1.384 . S
C1725 C1724 1.377 . S
C1725 C1731 1.390 . S
C1726 H1717 0.930 . S
C1726 C1724 1.384 . S
C1726 C1727 1.372 . S
C1727 C1726 1.372 . S
C1727 C1728 1.400 . S
C1727 C1732 1.490 . S
C1728 H1718 0.930 . S
C1728 C1727 1.400 . S
C1728 C1731 1.386 . S
H1729 C1745 0.930 . S
H1730 C1746 0.931 . S
C1731 H1719 0.929 . S
C1731 C1725 1.390 . S
C1731 C1728 1.386 . S
C1732 C1727 1.490 . S
C1732 C1734 1.395 . S
C1732 C1735 1.403 . S
H1733 C1739 0.930 . S
C1734 H1720 0.930 . S
C1734 C1732 1.395 . S
C1734 C1737 1.403 . S
C1735 C1732 1.403 . S
C1735 C1736 1.524 . S
C1735 C1739 1.400 . S
C1736 H1721 0.960 . S
C1736 H1722 0.960 . S
C1736 H1723 0.960 . S
C1736 C1735 1.524 . S
C1737 C1734 1.403 . S
C1737 C1738 1.392 . S
C1737 C1741 1.495 . S
C1738 C1737 1.392 . S
C1738 C1739 1.385 . S
C1738 C1740 1.478 . S
C1739 H1733 0.930 . S
C1739 C1735 1.400 . S
C1739 C1738 1.385 . S
C1740 C1738 1.478 . S
C1740 C1742 1.381 . S
C1740 C1746 1.383 . S
C1741 C1737 1.495 . S
C1741 H1747 0.959 . S
C1741 H1748 0.961 . S
C1741 H1749 0.960 . S
C1742 C1740 1.381 . S
C1742 C1743 1.394 . S
C1742 H1750 0.930 . S
C1743 C1742 1.394 . S
C1743 C1744 1.383 . S
C1743 H1751 0.929 . S
C1744 C1743 1.383 . S
C1744 C1745 1.377 . S
C1745 H1729 0.930 . S
C1745 C1744 1.377 . S
C1745 C1746 1.379 . S
C1746 H1730 0.931 . S
C1746 C1740 1.383 . S
C1746 C1745 1.379 . S
H1747 C1741 0.959 . S
H1748 C1741 0.961 . S
H1749 C1741 0.960 . S
H1750 C1742 0.930 . S
H1751 C1743 0.929 . S
H1752 C1760 0.929 . S
H1753 C1762 0.930 . S
H1754 C1764 0.930 . S
H1755 C1767 0.929 . S
H1756 C1770 0.930 . S
H1757 C1772 0.960 . S
H1758 C1772 0.960 . S
H1759 C1772 0.960 . S
C1760 H1752 0.929 . S
C1760 C1761 1.377 . S
C1760 C1762 1.384 . S
C1761 C1760 1.377 . S
C1761 C1767 1.390 . S
C1762 H1753 0.930 . S
C1762 C1760 1.384 . S
C1762 C1763 1.372 . S
C1763 C1762 1.372 . S
C1763 C1764 1.400 . S
C1763 C1768 1.490 . S
C1764 H1754 0.930 . S
C1764 C1763 1.400 . S
C1764 C1767 1.386 . S
H1765 C1781 0.930 . S
H1766 C1782 0.931 . S
C1767 H1755 0.929 . S
C1767 C1761 1.390 . S
C1767 C1764 1.386 . S
C1768 C1763 1.490 . S
C1768 C1770 1.395 . S
C1768 C1771 1.403 . S
H1769 C1775 0.930 . S
C1770 H1756 0.930 . S
C1770 C1768 1.395 . S
C1770 C1773 1.403 . S
C1771 C1768 1.403 . S
C1771 C1772 1.524 . S
C1771 C1775 1.400 . S
C1772 H1757 0.960 . S
C1772 H1758 0.960 . S
C1772 H1759 0.960 . S
C1772 C1771 1.524 . S
C1773 C1770 1.403 . S
C1773 C1774 1.392 . S
C1773 C1777 1.495 . S
C1774 C1773 1.392 . S
C1774 C1775 1.385 . S
C1774 C1776 1.478 . S
C1775 H1769 0.930 . S
C1775 C1771 1.400 . S
C1775 C1774 1.385 . S
C1776 C1774 1.478 . S
C1776 C1778 1.381 . S
C1776 C1782 1.383 . S
C1777 C1773 1.495 . S
C1777 H1783 0.959 . S
C1777 H1784 0.961 . S
C1777 H1785 0.960 . S
C1778 C1776 1.381 . S
C1778 C1779 1.394 . S
C1778 H1786 0.930 . S
C1779 C1778 1.394 . S
C1779 C1780 1.383 . S
C1779 H1787 0.929 . S
C1780 C1779 1.383 . S
C1780 C1781 1.377 . S
C1781 H1765 0.930 . S
C1781 C1780 1.377 . S
C1781 C1782 1.379 . S
C1782 H1766 0.931 . S
C1782 C1776 1.383 . S
C1782 C1781 1.379 . S
H1783 C1777 0.959 . S
H1784 C1777 0.961 . S
H1785 C1777 0.960 . S
H1786 C1778 0.930 . S
H1787 C1779 0.929 . S
H1788 C1796 0.929 . S
H1789 C1798 0.930 . S
H1790 C1800 0.930 . S
H1791 C1803 0.929 . S
H1792 C1806 0.930 . S
H1793 C1808 0.960 . S
H1794 C1808 0.960 . S
H1795 C1808 0.960 . S
C1796 H1788 0.929 . S
C1796 C1797 1.377 . S
C1796 C1798 1.384 . S
C1797 C1796 1.377 . S
C1797 C1803 1.390 . S
C1798 H1789 0.930 . S
C1798 C1796 1.384 . S
C1798 C1799 1.372 . S
C1799 C1798 1.372 . S
C1799 C1800 1.400 . S
C1799 C1804 1.490 . S
C1800 H1790 0.930 . S
C1800 C1799 1.400 . S
C1800 C1803 1.386 . S
H1801 C1817 0.930 . S
H1802 C1818 0.931 . S
C1803 H1791 0.929 . S
C1803 C1797 1.390 . S
C1803 C1800 1.386 . S
C1804 C1799 1.490 . S
C1804 C1806 1.395 . S
C1804 C1807 1.403 . S
H1805 C1811 0.930 . S
C1806 H1792 0.930 . S
C1806 C1804 1.395 . S
C1806 C1809 1.403 . S
C1807 C1804 1.403 . S
C1807 C1808 1.524 . S
C1807 C1811 1.400 . S
C1808 H1793 0.960 . S
C1808 H1794 0.960 . S
C1808 H1795 0.960 . S
C1808 C1807 1.524 . S
C1809 C1806 1.403 . S
C1809 C1810 1.392 . S
C1809 C1813 1.495 . S
C1810 C1809 1.392 . S
C1810 C1811 1.385 . S
C1810 C1812 1.478 . S
C1811 H1805 0.930 . S
C1811 C1807 1.400 . S
C1811 C1810 1.385 . S
C1812 C1810 1.478 . S
C1812 C1814 1.381 . S
C1812 C1818 1.383 . S
C1813 C1809 1.495 . S
C1813 H1819 0.959 . S
C1813 H1820 0.961 . S
C1813 H1821 0.960 . S
C1814 C1812 1.381 . S
C1814 C1815 1.394 . S
C1814 H1822 0.930 . S
C1815 C1814 1.394 . S
C1815 C1816 1.383 . S
C1815 H1823 0.929 . S
C1816 C1815 1.383 . S
C1816 C1817 1.377 . S
C1817 H1801 0.930 . S
C1817 C1816 1.377 . S
C1817 C1818 1.379 . S
C1818 H1802 0.931 . S
C1818 C1812 1.383 . S
C1818 C1817 1.379 . S
H1819 C1813 0.959 . S
H1820 C1813 0.961 . S
H1821 C1813 0.960 . S
H1822 C1814 0.930 . S
H1823 C1815 0.929 . S
H1824 C1832 0.929 . S
H1825 C1834 0.930 . S
H1826 C1836 0.930 . S
H1827 C1839 0.929 . S
H1828 C1842 0.930 . S
H1829 C1844 0.960 . S
H1830 C1844 0.960 . S
H1831 C1844 0.960 . S
C1832 H1824 0.929 . S
C1832 C1833 1.377 . S
C1832 C1834 1.384 . S
C1833 C1832 1.377 . S
C1833 C1839 1.390 . S
C1834 H1825 0.930 . S
C1834 C1832 1.384 . S
C1834 C1835 1.372 . S
C1835 C1834 1.372 . S
C1835 C1836 1.400 . S
C1835 C1840 1.490 . S
C1836 H1826 0.930 . S
C1836 C1835 1.400 . S
C1836 C1839 1.386 . S
H1837 C1853 0.930 . S
H1838 C1854 0.931 . S
C1839 H1827 0.929 . S
C1839 C1833 1.390 . S
C1839 C1836 1.386 . S
C1840 C1835 1.490 . S
C1840 C1842 1.395 . S
C1840 C1843 1.403 . S
H1841 C1847 0.930 . S
C1842 H1828 0.930 . S
C1842 C1840 1.395 . S
C1842 C1845 1.403 . S
C1843 C1840 1.403 . S
C1843 C1844 1.524 . S
C1843 C1847 1.400 . S
C1844 H1829 0.960 . S
C1844 H1830 0.960 . S
C1844 H1831 0.960 . S
C1844 C1843 1.524 . S
C1845 C1842 1.403 . S
C1845 C1846 1.392 . S
C1845 C1849 1.495 . S
C1846 C1845 1.392 . S
C1846 C1847 1.385 . S
C1846 C1848 1.478 . S
C1847 H1841 0.930 . S
C1847 C1843 1.400 . S
C1847 C1846 1.385 . S
C1848 C1846 1.478 . S
C1848 C1850 1.381 . S
C1848 C1854 1.383 . S
C1849 C1845 1.495 . S
C1849 H1855 0.959 . S
C1849 H1856 0.961 . S
C1849 H1857 0.960 . S
C1850 C1848 1.381 . S
C1850 C1851 1.394 . S
C1850 H1858 0.930 . S
C1851 C1850 1.394 . S
C1851 C1852 1.383 . S
C1851 H1859 0.929 . S
C1852 C1851 1.383 . S
C1852 C1853 1.377 . S
C1853 H1837 0.930 . S
C1853 C1852 1.377 . S
C1853 C1854 1.379 . S
C1854 H1838 0.931 . S
C1854 C1848 1.383 . S
C1854 C1853 1.379 . S
H1855 C1849 0.959 . S
H1856 C1849 0.961 . S
H1857 C1849 0.960 . S
H1858 C1850 0.930 . S
H1859 C1851 0.929 . S
H1860 C1868 0.929 . S
H1861 C1870 0.930 . S
H1862 C1872 0.930 . S
H1863 C1875 0.929 . S
H1864 C1878 0.930 . S
H1865 C1880 0.960 . S
H1866 C1880 0.960 . S
H1867 C1880 0.960 . S
C1868 H1860 0.929 . S
C1868 C1869 1.377 . S
C1868 C1870 1.384 . S
C1869 C1868 1.377 . S
C1869 C1875 1.390 . S
C1870 H1861 0.930 . S
C1870 C1868 1.384 . S
C1870 C1871 1.372 . S
C1871 C1870 1.372 . S
C1871 C1872 1.400 . S
C1871 C1876 1.490 . S
C1872 H1862 0.930 . S
C1872 C1871 1.400 . S
C1872 C1875 1.386 . S
H1873 C1889 0.930 . S
H1874 C1890 0.931 . S
C1875 H1863 0.929 . S
C1875 C1869 1.390 . S
C1875 C1872 1.386 . S
C1876 C1871 1.490 . S
C1876 C1878 1.395 . S
C1876 C1879 1.403 . S
H1877 C1883 0.930 . S
C1878 H1864 0.930 . S
C1878 C1876 1.395 . S
C1878 C1881 1.403 . S
C1879 C1876 1.403 . S
C1879 C1880 1.524 . S
C1879 C1883 1.400 . S
C1880 H1865 0.960 . S
C1880 H1866 0.960 . S
C1880 H1867 0.960 . S
C1880 C1879 1.524 . S
C1881 C1878 1.403 . S
C1881 C1882 1.392 . S
C1881 C1885 1.495 . S
C1882 C1881 1.392 . S
C1882 C1883 1.385 . S
C1882 C1884 1.478 . S
C1883 H1877 0.930 . S
C1883 C1879 1.400 . S
C1883 C1882 1.385 . S
C1884 C1882 1.478 . S
C1884 C1886 1.381 . S
C1884 C1890 1.383 . S
C1885 C1881 1.495 . S
C1885 H1891 0.959 . S
C1885 H1892 0.961 . S
C1885 H1893 0.960 . S
C1886 C1884 1.381 . S
C1886 C1887 1.394 . S
C1886 H1894 0.930 . S
C1887 C1886 1.394 . S
C1887 C1888 1.383 . S
C1887 H1895 0.929 . S
C1888 C1887 1.383 . S
C1888 C1889 1.377 . S
C1889 H1873 0.930 . S
C1889 C1888 1.377 . S
C1889 C1890 1.379 . S
C1890 H1874 0.931 . S
C1890 C1884 1.383 . S
C1890 C1889 1.379 . S
H1891 C1885 0.959 . S
H1892 C1885 0.961 . S
H1893 C1885 0.960 . S
H1894 C1886 0.930 . S
H1895 C1887 0.929 . S
H1896 C1904 0.929 . S
H1897 C1906 0.930 . S
H1898 C1908 0.930 . S
H1899 C1911 0.929 . S
H1900 C1914 0.930 . S
H1901 C1916 0.960 . S
H1902 C1916 0.960 . S
H1903 C1916 0.960 . S
C1904 H1896 0.929 . S
C1904 C1905 1.377 . S
C1904 C1906 1.384 . S
C1905 C1904 1.377 . S
C1905 C1911 1.390 . S
C1906 H1897 0.930 . S
C1906 C1904 1.384 . S
C1906 C1907 1.372 . S
C1907 C1906 1.372 . S
C1907 C1908 1.400 . S
C1907 C1912 1.490 . S
C1908 H1898 0.930 . S
C1908 C1907 1.400 . S
C1908 C1911 1.386 . S
H1909 C1925 0.930 . S
H1910 C1926 0.931 . S
C1911 H1899 0.929 . S
C1911 C1905 1.390 . S
C1911 C1908 1.386 . S
C1912 C1907 1.490 . S
C1912 C1914 1.395 . S
C1912 C1915 1.403 . S
H1913 C1919 0.930 . S
C1914 H1900 0.930 . S
C1914 C1912 1.395 . S
C1914 C1917 1.403 . S
C1915 C1912 1.403 . S
C1915 C1916 1.524 . S
C1915 C1919 1.400 . S
C1916 H1901 0.960 . S
C1916 H1902 0.960 . S
C1916 H1903 0.960 . S
C1916 C1915 1.524 . S
C1917 C1914 1.403 . S
C1917 C1918 1.392 . S
C1917 C1921 1.495 . S
C1918 C1917 1.392 . S
C1918 C1919 1.385 . S
C1918 C1920 1.478 . S
C1919 H1913 0.930 . S
C1919 C1915 1.400 . S
C1919 C1918 1.385 . S
C1920 C1918 1.478 . S
C1920 C1922 1.381 . S
C1920 C1926 1.383 . S
C1921 C1917 1.495 . S
C1921 H1927 0.959 . S
C1921 H1928 0.961 . S
C1921 H1929 0.960 . S
C1922 C1920 1.381 . S
C1922 C1923 1.394 . S
C1922 H1930 0.930 . S
C1923 C1922 1.394 . S
C1923 C1924 1.383 . S
C1923 H1931 0.929 . S
C1924 C1923 1.383 . S
C1924 C1925 1.377 . S
C1925 H1909 0.930 . S
C1925 C1924 1.377 . S
C1925 C1926 1.379 . S
C1926 H1910 0.931 . S
C1926 C1920 1.383 . S
C1926 C1925 1.379 . S
H1927 C1921 0.959 . S
H1928 C1921 0.961 . S
H1929 C1921 0.960 . S
H1930 C1922 0.930 . S
H1931 C1923 0.929 . S
H1932 C1940 0.929 . S
H1933 C1942 0.930 . S
H1934 C1944 0.930 . S
H1935 C1947 0.929 . S
H1936 C1950 0.930 . S
H1937 C1952 0.960 . S
H1938 C1952 0.960 . S
H1939 C1952 0.960 . S
C1940 H1932 0.929 . S
C1940 C1941 1.377 . S
C1940 C1942 1.384 . S
C1941 C1940 1.377 . S
C1941 C1947 1.390 . S
C1942 H1933 0.930 . S
C1942 C1940 1.384 . S
C1942 C1943 1.372 . S
C1943 C1942 1.372 . S
C1943 C1944 1.400 . S
C1943 C1948 1.490 . S
C1944 H1934 0.930 . S
C1944 C1943 1.400 . S
C1944 C1947 1.386 . S
H1945 C1961 0.930 . S
H1946 C1962 0.931 . S
C1947 H1935 0.929 . S
C1947 C1941 1.390 . S
C1947 C1944 1.386 . S
C1948 C1943 1.490 . S
C1948 C1950 1.395 . S
C1948 C1951 1.403 . S
H1949 C1955 0.930 . S
C1950 H1936 0.930 . S
C1950 C1948 1.395 . S
C1950 C1953 1.403 . S
C1951 C1948 1.403 . S
C1951 C1952 1.524 . S
C1951 C1955 1.400 . S
C1952 H1937 0.960 . S
C1952 H1938 0.960 . S
C1952 H1939 0.960 . S
C1952 C1951 1.524 . S
C1953 C1950 1.403 . S
C1953 C1954 1.392 . S
C1953 C1957 1.495 . S
C1954 C1953 1.392 . S
C1954 C1955 1.385 . S
C1954 C1956 1.478 . S
C1955 H1949 0.930 . S
C1955 C1951 1.400 . S
C1955 C1954 1.385 . S
C1956 C1954 1.478 . S
C1956 C1958 1.381 . S
C1956 C1962 1.383 . S
C1957 C1953 1.495 . S
C1957 H1963 0.959 . S
C1957 H1964 0.961 . S
C1957 H1965 0.960 . S
C1958 C1956 1.381 . S
C1958 C1959 1.394 . S
C1958 H1966 0.930 . S
C1959 C1958 1.394 . S
C1959 C1960 1.383 . S
C1959 H1967 0.929 . S
C1960 C1959 1.383 . S
C1960 C1961 1.377 . S
C1961 H1945 0.930 . S
C1961 C1960 1.377 . S
C1961 C1962 1.379 . S
C1962 H1946 0.931 . S
C1962 C1956 1.383 . S
C1962 C1961 1.379 . S
H1963 C1957 0.959 . S
H1964 C1957 0.961 . S
H1965 C1957 0.960 . S
H1966 C1958 0.930 . S
H1967 C1959 0.929 . S
C537 C28 1.446 . S
C556 C160 1.450 . S
C573 C193 1.447 . S
C592 C61 1.437 . S
C609 C226 1.449 . S
C628 C94 1.434 . S
C645 C259 1.449 . S
C664 C127 1.436 . S
C681 C292 1.445 . S
C700 C424 1.428 . S
C717 C325 1.445 . S
C736 C457 1.449 . S
C753 C490 1.443 . S
C772 C358 1.429 . S
C789 C391 1.444 . S
C808 C523 1.441 . S
C825 N401 1.265 . S
C844 N14 1.243 . S
C861 N434 1.268 . S
C880 N47 1.269 . S
C897 N80 1.246 1_455 S
C916 N467 1.248 . S
C933 N500 1.263 . S
C952 N113 1.232 1_545 S
C969 N269 1.264 . S
C988 N146 1.244 . S
C1005 N302 1.263 . S
C1024 N179 1.229 . S
C1041 N212 1.247 1_455 S
C1060 N335 1.249 . S
C1077 N245 1.250 1_545 S
C1096 N368 1.260 . S
C1113 N137 1.265 . S
C1132 N278 1.270 . S
C1149 N170 1.265 . S
C1168 N311 1.236 . S
C1185 N203 1.267 . S
C1204 N344 1.256 1_655 S
C1221 N377 1.252 1_565 S
C1240 N236 1.270 . S
C1257 N5 1.264 . S
C1276 N410 1.271 . S
C1293 N38 1.262 . S
C1312 N443 1.267 . S
C1329 N476 1.253 1_655 S
C1348 N71 1.266 . S
C1365 N104 1.263 . S
C1384 N509 1.268 1_565 S
C1401 C83 1.290 . S
C1420 C17 1.301 . S
C1437 C50 1.295 . S
C1456 C116 1.280 . S
C1473 C215 1.289 . S
C1492 C149 1.304 . S
C1509 C248 1.289 . S
C1528 C182 1.305 . S
C1545 C347 1.296 . S
C1564 C281 1.298 . S
C1581 C380 1.293 . S
C1600 C314 1.277 . S
C1617 C413 1.290 . S
C1636 C479 1.292 . S
C1653 C512 1.290 . S
C1672 C446 1.290 . S
C1689 C239 0.879 . S
C1708 C8 0.905 . S
C1725 C140 0.873 . S
C1744 C41 0.863 . S
C1761 C173 0.874 . S
C1780 C74 0.852 . S
C1797 C206 0.873 . S
C1816 C107 0.874 . S
C1833 C503 0.873 . S
C1852 C272 0.907 . S
C1869 C404 0.880 . S
C1888 C305 0.865 . S
C1905 C437 0.875 . S
C1924 C338 0.891 . S
C1941 C470 0.880 . S
C1960 C371 0.864 . S
