# Generated by pormake.
# Topology smc, (6)-cn, num edge types: 1
# Building blocks:
#     Node 0, Type 0, BuildingBlock: UKALOJ_clean_sbu_0, # of connection points: 6
#     Node 1, Type 0, BuildingBlock: UKALOJ_clean_sbu_0, # of connection points: 6
#     Node 2, Type 0, BuildingBlock: UKALOJ_clean_sbu_0, # of connection points: 6
#     Node 3, Type 0, BuildingBlock: UKALOJ_clean_sbu_0, # of connection points: 6
#     Node 4, Type 0, BuildingBlock: UKALOJ_clean_sbu_0, # of connection points: 6
#     Node 5, Type 0, BuildingBlock: UKALOJ_clean_sbu_0, # of connection points: 6
#     Node 6, Type 0, BuildingBlock: UKALOJ_clean_sbu_0, # of connection points: 6
#     Node 7, Type 0, BuildingBlock: UKALOJ_clean_sbu_0, # of connection points: 6
#     Node 8, Type 0, BuildingBlock: UKALOJ_clean_sbu_0, # of connection points: 6
#     Edge 9, Type (0, 0), BuildingBlock: OJICUG_clean_linker_0, # of connection points: 2
#     Edge 10, Type (0, 0), BuildingBlock: OJICUG_clean_linker_0, # of connection points: 2
#     Edge 11, Type (0, 0), BuildingBlock: OJICUG_clean_linker_0, # of connection points: 2
#     Edge 12, Type (0, 0), BuildingBlock: OJICUG_clean_linker_0, # of connection points: 2
#     Edge 13, Type (0, 0), BuildingBlock: OJICUG_clean_linker_0, # of connection points: 2
#     Edge 14, Type (0, 0), BuildingBlock: OJICUG_clean_linker_0, # of connection points: 2
#     Edge 15, Type (0, 0), BuildingBlock: OJICUG_clean_linker_0, # of connection points: 2
#     Edge 16, Type (0, 0), BuildingBlock: OJICUG_clean_linker_0, # of connection points: 2
#     Edge 17, Type (0, 0), BuildingBlock: OJICUG_clean_linker_0, # of connection points: 2
#     Edge 18, Type (0, 0), BuildingBlock: OJICUG_clean_linker_0, # of connection points: 2
#     Edge 19, Type (0, 0), BuildingBlock: OJICUG_clean_linker_0, # of connection points: 2
#     Edge 20, Type (0, 0), BuildingBlock: OJICUG_clean_linker_0, # of connection points: 2
#     Edge 21, Type (0, 0), BuildingBlock: OJICUG_clean_linker_0, # of connection points: 2
#     Edge 22, Type (0, 0), BuildingBlock: OJICUG_clean_linker_0, # of connection points: 2
#     Edge 23, Type (0, 0), BuildingBlock: OJICUG_clean_linker_0, # of connection points: 2
#     Edge 24, Type (0, 0), BuildingBlock: OJICUG_clean_linker_0, # of connection points: 2
#     Edge 25, Type (0, 0), BuildingBlock: OJICUG_clean_linker_0, # of connection points: 2
#     Edge 26, Type (0, 0), BuildingBlock: OJICUG_clean_linker_0, # of connection points: 2
#     Edge 27, Type (0, 0), BuildingBlock: OJICUG_clean_linker_0, # of connection points: 2
#     Edge 28, Type (0, 0), BuildingBlock: OJICUG_clean_linker_0, # of connection points: 2
#     Edge 29, Type (0, 0), BuildingBlock: OJICUG_clean_linker_0, # of connection points: 2
#     Edge 30, Type (0, 0), BuildingBlock: OJICUG_clean_linker_0, # of connection points: 2
#     Edge 31, Type (0, 0), BuildingBlock: OJICUG_clean_linker_0, # of connection points: 2
#     Edge 32, Type (0, 0), BuildingBlock: OJICUG_clean_linker_0, # of connection points: 2
#     Edge 33, Type (0, 0), BuildingBlock: OJICUG_clean_linker_0, # of connection points: 2
#     Edge 34, Type (0, 0), BuildingBlock: OJICUG_clean_linker_0, # of connection points: 2
#     Edge 35, Type (0, 0), BuildingBlock: OJICUG_clean_linker_0, # of connection points: 2
# Relax obj value: 0.087
# Max RMSD: 0.207
# Mean RMSD: 0.207
data_MOF--net-smc--node1-UKALOJ_clean_sbu_0--edge1-OJICUG_clean_linker_0
_symmetry_space_group_name_H-M    P1
_symmetry_Int_Tables_number       1
_symmetry_cell_setting            triclinic
loop_
_symmetry_equiv_pos_as_xyz
'x, y, z'
_cell_length_a     21.20519
_cell_length_b     21.220507
_cell_length_c     47.101667
_cell_angle_alpha  89.881279
_cell_angle_beta   89.952473
_cell_angle_gamma 119.98445
loop_
_atom_site_label
_atom_site_type_symbol
_atom_site_fract_x
_atom_site_fract_y
_atom_site_fract_z
_atom_type_partial_charge
Zn0 Zn -0.0117 0.44625 0.07967 0.0
O1 O 0.06757 0.55656 0.07807 0.0
C2 C 0.09372 0.4136 0.05161 0.0
Zn3 Zn -0.01778 0.4468 0.03177 0.0
C4 C 0.08551 0.59067 0.05449 0.0
O5 O 0.06032 0.55669 0.03129 0.0
C6 C 0.87642 0.30549 0.05702 0.0
O7 O 0.90348 0.47787 0.03535 0.0
O8 O 0.91014 0.47881 0.082 0.0
N9 N -0.02787 0.4438 0.98779 0.0
C10 C 0.95884 0.39067 0.96884 0.0
C11 C 0.96056 0.47789 0.9458 0.0
N12 N -0.02684 0.49788 0.97333 0.0
N13 N 0.9506 0.41042 0.94231 0.0
C14 C 0.042 0.44928 0.14286 0.0
C15 C 0.94491 0.41988 0.16602 0.0
N16 N -0.00849 0.44327 0.12383 0.0
N17 N 0.93146 0.42541 0.13844 0.0
N18 N 0.01386 0.43409 0.16949 0.0
H19 H 0.13651 0.50856 0.11626 0.0
H20 H 0.15581 0.5047 0.15352 0.0
H21 H 0.1251 0.42555 0.13165 0.0
C22 C 0.11958 0.47394 0.13558 0.0
C23 C 0.95755 0.32122 0.9762 0.0
H24 H 0.90048 0.27766 0.97975 0.0
H25 H -0.01919 0.30446 0.95862 0.0
H26 H -0.01168 0.3267 0.99582 0.0
O27 O 0.90155 0.33828 0.03363 0.0
O28 O 0.9056 0.3373 0.08013 0.0
C29 C 0.88532 0.49096 0.05939 0.0
O30 O 0.06876 0.41671 0.07581 0.0
O31 O 0.0648 0.42127 0.02927 0.0
Zn32 Zn 0.53838 0.55905 0.0802 0.0
O33 O 0.42856 0.52776 0.07644 0.0
C34 C 0.57364 0.70004 0.05481 0.0
Zn35 Zn 0.54498 0.55914 0.03227 0.0
C36 C 0.39727 0.51441 0.05243 0.0
O37 O 0.43422 0.52636 0.02979 0.0
C38 C 0.68311 0.59234 0.06052 0.0
O39 O 0.51408 0.44879 0.03405 0.0
O40 O 0.50683 0.44929 0.08083 0.0
N41 N 0.55182 0.56193 0.98805 0.0
C42 C 0.59654 0.55578 0.96913 0.0
C43 C 0.52923 0.58512 0.94574 0.0
N44 N 0.50989 0.57977 0.97328 0.0
N45 N 0.58398 0.57083 0.94243 0.0
C46 C 0.56965 0.61515 0.14322 0.0
C47 C 0.48372 0.52765 0.16603 0.0
N48 N 0.53048 0.56202 0.12419 0.0
N49 N 0.47719 0.50778 0.13851 0.0
N50 N 0.54095 0.59523 0.16966 0.0
H51 H 0.62435 0.72818 0.13235 0.0
H52 H 0.67738 0.70156 0.15381 0.0
H53 H 0.66379 0.67932 0.11657 0.0
C54 C 0.6379 0.68473 0.13605 0.0
C55 C 0.64925 0.53104 0.9766 0.0
H56 H 0.63137 0.4967 0.996 0.0
H57 H 0.65475 0.49998 0.95877 0.0
H58 H 0.70322 0.5794 0.98049 0.0
O59 O 0.65499 0.58892 0.03632 0.0
O60 O 0.64654 0.58487 0.08287 0.0
C61 C 0.49804 0.41501 0.05771 0.0
O62 O 0.5661 0.66744 0.07823 0.0
O63 O 0.57101 0.66811 0.0317 0.0
Zn64 Zn 0.42942 0.00562 0.0324 0.0
O65 O 0.53891 0.08459 0.03314 0.0
C66 C 0.39479 0.11104 0.05763 0.0
Zn67 Zn 0.42682 -0.00012 0.08022 0.0
C68 C 0.57244 0.10295 0.05671 0.0
O69 O 0.53772 0.078 0.07985 0.0
C70 C 0.28643 0.89457 0.05521 0.0
O71 O 0.45726 0.92086 0.07923 0.0
O72 O 0.46209 0.92745 0.03252 0.0
N73 N 0.42614 0.00079 0.1243 0.0
C74 C 0.38511 0.95039 0.14403 0.0
C75 C 0.45037 0.04987 0.16595 0.0
N76 N 0.46696 0.06238 0.13811 0.0
N77 N 0.39869 -0.02 0.17032 0.0
C78 C 0.4359 0.05468 0.96862 0.0
C79 C 0.40197 0.95515 0.94677 0.0
N80 N 0.42721 0.00456 0.98835 0.0
N81 N 0.40659 0.94294 0.97458 0.0
N82 N 0.41962 0.02485 0.94238 0.0
H83 H 0.49763 0.15015 0.99435 0.0
H84 H 0.49687 0.16756 0.95668 0.0
H85 H 0.4173 0.14218 0.97781 0.0
C86 C 0.46405 0.13338 0.97482 0.0
C87 C 0.33491 0.87166 0.13775 0.0
H88 H 0.35186 0.85524 0.11815 0.0
H89 H 0.33379 0.83743 0.15581 0.0
H90 H 0.27923 0.86252 0.13481 0.0
O91 O 0.31675 0.91951 0.07902 0.0
O92 O 0.32092 0.92356 0.03244 0.0
C93 C 0.47211 0.90247 0.05558 0.0
O94 O 0.39983 0.08595 0.0338 0.0
O95 O 0.4005 0.08213 0.08038 0.0
Zn96 Zn 0.65953 0.77839 0.41357 0.0
O97 O 0.73873 0.88857 0.41232 0.0
C98 C 0.7643 0.74353 0.38727 0.0
Zn99 Zn 0.65311 0.77608 0.36558 0.0
C100 C 0.75678 0.92159 0.38854 0.0
O101 O 0.73155 0.88647 0.36559 0.0
C102 C 0.54775 0.63565 0.39115 0.0
O103 O 0.5741 0.80726 0.36736 0.0
O104 O 0.58121 0.81072 0.41412 0.0
N105 N 0.65309 0.77566 0.32129 0.0
C106 C 0.60464 0.73151 0.30167 0.0
C107 C 0.70177 0.80402 0.27943 0.0
N108 N 0.7132 0.82091 0.30725 0.0
N109 N 0.63412 0.74762 0.27532 0.0
C110 C 0.71065 0.78319 0.47715 0.0
C111 C 0.61224 0.75106 0.49977 0.0
N112 N 0.66024 0.7759 0.45782 0.0
N113 N 0.59934 0.75637 0.47209 0.0
N114 N 0.68167 0.7671 0.50363 0.0
H115 H 0.80567 0.84442 0.45095 0.0
H116 H 0.82407 0.84151 0.48837 0.0
H117 H 0.79632 0.7626 0.46667 0.0
C118 C 0.78891 0.80997 0.47032 0.0
C119 C 0.52757 0.67517 0.30799 0.0
H120 H 0.50755 0.68981 0.32722 0.0
H121 H 0.49193 0.66915 0.28973 0.0
H122 H 0.52501 0.62234 0.31138 0.0
O123 O 0.57265 0.66631 0.36732 0.0
O124 O 0.57703 0.66964 0.4139 0.0
C125 C 0.55606 0.82148 0.39126 0.0
O126 O 0.73989 0.74882 0.41126 0.0
O127 O 0.73498 0.74933 0.3647 0.0
Zn128 Zn 0.21477 0.8905 0.36603 0.0
O129 O 0.18378 0.7804 0.36747 0.0
C130 C 0.35405 0.9235 0.39273 0.0
Zn131 Zn 0.21015 0.8906 0.41388 0.0
C132 C 0.16863 0.74642 0.39106 0.0
O133 O 0.17849 0.78056 0.4143 0.0
C134 C 0.2445 0.03154 0.3887 0.0
O135 O 0.10023 0.85932 0.41135 0.0
O136 O 0.10415 0.85799 0.36469 0.0
N137 N 0.20488 0.89384 0.45788 0.0
C138 C 0.24476 0.94741 0.47664 0.0
C139 C 0.16022 0.8601 0.50003 0.0
N140 N 0.15245 0.83969 0.47255 0.0
N141 N 0.21737 0.9279 0.50327 0.0
C142 C 0.26151 0.88626 0.30247 0.0
C143 C 0.19349 0.91661 0.28015 0.0
N144 N 0.21835 0.89294 0.32196 0.0
N145 N 0.17589 0.91134 0.30788 0.0
N146 N 0.24751 0.90161 0.27607 0.0
H147 H 0.29743 0.82667 0.3285 0.0
H148 H 0.31806 0.82953 0.29099 0.0
H149 H 0.36862 0.90897 0.31248 0.0
C150 C 0.31418 0.86089 0.30907 0.0
C151 C 0.31241 0.01706 0.46898 0.0
H152 H 0.29822 0.06003 0.46514 0.0
H153 H 0.35258 0.03485 0.48651 0.0
H154 H 0.33776 0.01115 0.44943 0.0
O155 O 0.23767 -0.00085 0.41211 0.0
O156 O 0.24115 -0.00063 0.36559 0.0
C157 C 0.06805 0.84597 0.38754 0.0
O158 O 0.32482 0.91993 0.36878 0.0
O159 O 0.31859 0.91649 0.41538 0.0
Zn160 Zn 0.09692 0.33146 0.41278 0.0
O161 O 0.12778 0.25274 0.41197 0.0
C162 C 0.95741 0.2258 0.38742 0.0
Zn163 Zn 0.10117 0.33731 0.36485 0.0
C164 C 0.1432 0.23423 0.38846 0.0
O165 O 0.1337 0.25903 0.36524 0.0
C166 C 0.06546 0.44249 0.39002 0.0
O167 O 0.21118 0.41632 0.366 0.0
O168 O 0.2076 0.40998 0.41276 0.0
N169 N 0.09955 0.33667 0.32061 0.0
C170 C 0.10784 0.38683 0.30094 0.0
C171 C 0.07424 0.28759 0.27895 0.0
N172 N 0.07916 0.27524 0.30674 0.0
N173 N 0.09146 0.3572 0.27464 0.0
C174 C 0.05338 0.28225 0.4766 0.0
C175 C 0.11932 0.38161 0.49849 0.0
N176 N 0.09528 0.33225 0.45689 0.0
N177 N 0.13649 0.39376 0.47069 0.0
N178 N 0.06683 0.31207 0.50286 0.0
H179 H 0.01959 0.18665 0.45096 0.0
H180 H 0.00035 0.16934 0.48858 0.0
H181 H 0.94717 0.1953 0.46714 0.0
C182 C 0.00248 0.20364 0.47038 0.0
C183 C 0.13574 0.46541 0.30728 0.0
H184 H 0.16976 0.48214 0.32669 0.0
H185 H 0.16804 0.49982 0.2891 0.0
H186 H 0.08887 0.47386 0.31058 0.0
O187 O 0.07169 0.41799 0.36622 0.0
O188 O 0.0701 0.41307 0.41279 0.0
C189 C 0.24347 0.43477 0.38984 0.0
O190 O -0.01273 0.251 0.41126 0.0
O191 O -0.00779 0.25479 0.36468 0.0
Zn192 Zn 0.32679 0.11163 0.69852 0.0
O193 O 0.24761 0.14257 0.69903 0.0
C194 C 0.22068 0.97111 0.72388 0.0
Zn195 Zn 0.33134 0.11407 0.74642 0.0
C196 C 0.22862 0.15672 0.72273 0.0
O197 O 0.25289 0.14594 0.7458 0.0
C198 C 0.43759 0.07973 0.72174 0.0
O199 O 0.41005 0.22405 0.74551 0.0
O200 O 0.40518 0.22235 0.69875 0.0
N201 N 0.32903 0.11191 0.79048 0.0
C202 C 0.37827 0.11963 0.8104 0.0
C203 C 0.27812 0.08637 0.83189 0.0
N204 N 0.26702 0.09174 0.80403 0.0
N205 N 0.34747 0.1031 0.83654 0.0
C206 C 0.28112 0.06712 0.63454 0.0
C207 C 0.37965 0.13798 0.61275 0.0
N208 N 0.32919 0.11089 0.65432 0.0
N209 N 0.3902 0.15515 0.64057 0.0
N210 N 0.31167 0.08245 0.60839 0.0
H211 H 0.18329 0.0266 0.65959 0.0
H212 H 0.16876 0.00679 0.62201 0.0
H213 H 0.19968 0.95834 0.64379 0.0
C214 C 0.20347 0.01175 0.64046 0.0
C215 C 0.45708 0.14704 0.80447 0.0
H216 H 0.47495 0.18143 0.7851 0.0
H217 H 0.49082 0.1788 0.82279 0.0
H218 H 0.46522 0.09996 0.80133 0.0
O219 O 0.41211 0.08505 0.74546 0.0
O220 O 0.40898 0.0851 0.69887 0.0
C221 C 0.42915 0.25731 0.72182 0.0
O222 O 0.24612 0.00156 0.70006 0.0
O223 O 0.24944 0.00539 0.74662 0.0
Zn224 Zn 0.88717 0.22531 0.6988 0.0
O225 O 0.85604 0.11526 0.70004 0.0
C226 C 0.02783 0.26013 0.72365 0.0
Zn227 Zn 0.8851 0.22835 0.74673 0.0
C228 C 0.84195 0.08241 0.72383 0.0
O229 O 0.85287 0.11773 0.7468 0.0
C230 C 0.91932 0.36849 0.72112 0.0
O231 O 0.77496 0.19732 0.74603 0.0
O232 O 0.77678 0.19322 0.69927 0.0
N233 N 0.88766 0.22976 0.79094 0.0
C234 C 0.88176 0.27303 0.81054 0.0
C235 C 0.91046 0.20353 0.83273 0.0
N236 N 0.90507 0.18637 0.80493 0.0
N237 N 0.89655 0.25819 0.83684 0.0
C238 C 0.92932 0.219 0.63489 0.0
C239 C 0.86271 0.252 0.61309 0.0
N240 N 0.88756 0.22696 0.65467 0.0
N241 N 0.84591 0.24697 0.64092 0.0
N242 N 0.91539 0.23521 0.60864 0.0
H243 H 0.96389 0.15756 0.66052 0.0
H244 H -0.01736 0.15949 0.62286 0.0
H245 H 0.03583 0.23867 0.64415 0.0
C246 C -0.01941 0.1916 0.64105 0.0
C247 C 0.8581 0.32719 0.80429 0.0
H248 H 0.82418 0.31205 0.78487 0.0
H249 H 0.82676 0.33094 0.82246 0.0
H250 H 0.90712 0.38129 0.80134 0.0
O251 O 0.91448 0.33826 0.74496 0.0
O252 O 0.9137 0.33404 0.6984 0.0
C253 C 0.74177 0.18278 0.72236 0.0
O254 O -0.00297 0.25459 0.69993 0.0
O255 O -0.00616 0.25493 0.74652 0.0
Zn256 Zn 0.77045 0.66672 0.74711 0.0
O257 O 0.80176 0.5879 0.74586 0.0
C258 C 0.63007 0.56141 0.72176 0.0
Zn259 Zn 0.77312 0.67279 0.69907 0.0
C260 C 0.81591 0.56942 0.72206 0.0
O261 O 0.8051 0.59415 0.69908 0.0
C262 C 0.73866 0.77826 0.72463 0.0
O263 O 0.88323 0.75149 0.70008 0.0
O264 O 0.88114 0.74527 0.74686 0.0
N265 N 0.77079 0.67236 0.6548 0.0
C266 C 0.77764 0.72203 0.63515 0.0
C267 C 0.74539 0.62304 0.61318 0.0
N268 N 0.75122 0.6111 0.64093 0.0
N269 N 0.76116 0.69222 0.60887 0.0
C270 C 0.72648 0.61695 0.81105 0.0
C271 C 0.79255 0.71595 0.8331 0.0
N272 N 0.76892 0.66698 0.79141 0.0
N273 N 0.81021 0.72825 0.80534 0.0
N274 N 0.73962 0.64652 0.83737 0.0
H275 H 0.69291 0.52152 0.78535 0.0
H276 H 0.67243 0.5039 0.8229 0.0
H277 H 0.62034 0.53059 0.80112 0.0
C278 C 0.67537 0.5385 0.80466 0.0
C279 C 0.8043 0.8004 0.64144 0.0
H280 H 0.83908 0.81788 0.66066 0.0
H281 H 0.83552 0.83498 0.62312 0.0
H282 H 0.75683 0.80771 0.64507 0.0
O283 O 0.74411 0.75351 0.70078 0.0
O284 O 0.74373 0.74887 0.74736 0.0
C285 C 0.91629 0.76996 0.72378 0.0
O286 O 0.66053 0.58595 0.74558 0.0
O287 O 0.66434 0.59092 0.699 0.0
C288 C 0.27553 0.44602 0.07527 0.0
C289 C 0.31773 0.47992 0.05105 0.0
H290 H 0.16942 0.39257 0.09374 0.0
C291 C 0.28307 0.47839 1.02551 0.0
H292 H 0.30068 0.44389 0.09499 0.0
C293 C 0.20784 0.44923 1.02488 0.0
C294 C 0.16634 0.42108 0.0498 0.0
H295 H 0.31429 0.50259 1.00635 0.0
H296 H 0.18317 0.45353 1.00538 0.0
C297 C 0.20034 0.41607 0.07453 0.0
C298 C 0.52657 0.83783 0.08051 0.0
C299 C 0.50599 0.85681 0.05503 0.0
H300 H 0.56782 0.77564 0.10033 0.0
C301 C 0.5205 0.83395 0.02911 0.0
H302 H 0.51787 0.85629 0.1008 0.0
C303 C 0.55012 0.7883 0.0288 0.0
C304 C 0.56541 0.76475 0.05444 0.0
H305 H 0.50672 0.84922 1.00908 0.0
H306 H 0.55645 0.7678 1.00859 0.0
C307 C 0.55638 0.79254 0.08021 0.0
C308 C 0.18714 0.78531 0.0791 0.0
C309 C 0.22158 0.82175 0.05392 0.0
H310 H 0.11884 0.68292 0.09923 0.0
C311 C 0.20444 0.78256 0.02836 0.0
H312 H 0.19751 0.81437 0.0989 0.0
C313 C 0.15932 0.70735 0.02848 0.0
C314 C 0.13062 0.67021 0.05414 0.0
H315 H 0.22972 0.80907 1.00851 0.0
H316 H 0.14933 0.67814 1.00864 0.0
C317 C 0.14265 0.70999 0.07929 0.0
C318 C 0.40406 0.21988 0.03369 0.0
C319 C 0.40294 0.18393 0.05888 0.0
H320 H 0.43751 0.32188 1.01334 0.0
C321 C 0.42605 0.22366 0.08429 0.0
H322 H 0.38455 0.19039 1.01402 0.0
C323 C 0.45621 0.29888 0.08397 0.0
C324 C 0.4637 0.3355 0.05826 0.0
H325 H 0.42557 0.19755 0.10415 0.0
H326 H 0.47621 0.32851 0.10368 0.0
C327 C 0.43499 0.2952 0.03329 0.0
C328 C 0.69123 0.16815 0.03149 0.0
C329 C 0.65201 0.14861 0.05708 0.0
H330 H 0.79444 0.23087 1.01147 0.0
C331 C 0.68973 0.17092 0.08293 0.0
H332 H 0.66381 0.15013 1.01124 0.0
C333 C 0.76499 0.21659 0.08308 0.0
C334 C 0.8035 0.24073 0.05738 0.0
H335 H 0.66096 0.1552 0.10302 0.0
H336 H 0.7921 0.23663 0.10327 0.0
C337 C 0.76636 0.21349 0.03164 0.0
C338 C 0.83248 0.55996 0.03673 0.0
C339 C 0.84034 0.5255 0.06084 0.0
H340 H 0.78036 0.6141 1.01845 0.0
C341 C 0.80697 0.52668 0.0864 0.0
H342 H 0.85997 0.56238 1.01701 0.0
C343 C 0.7611 0.55606 0.08713 0.0
C344 C 0.74819 0.58478 0.06231 0.0
H345 H 0.81366 0.50206 0.10549 0.0
H346 H 0.7319 0.55144 0.10662 0.0
C347 C 0.78745 0.59014 0.03758 0.0
C348 C 0.87178 0.7487 0.41057 0.0
C349 C 0.83698 0.7512 0.38565 0.0
H350 H -0.02714 0.77901 0.43095 0.0
C351 C 0.87775 0.77743 0.36048 0.0
H352 H 0.84141 0.72672 0.43001 0.0
C353 C 0.95301 0.80725 0.36094 0.0
C354 C -0.01151 0.81124 0.38656 0.0
H355 H 0.85248 0.77982 0.34084 0.0
H356 H -0.01641 0.82989 0.34152 0.0
C357 C 0.94707 0.77922 0.41113 0.0
C358 C 0.19564 0.16842 0.41399 0.0
C359 C 0.17704 0.1885 0.38829 0.0
H360 H 0.23514 0.10518 0.43424 0.0
C361 C 0.19343 0.16662 0.36253 0.0
H362 H 0.18541 0.18605 0.43418 0.0
C363 C 0.22296 0.12091 0.36254 0.0
C364 C 0.23627 0.09625 0.38832 0.0
H365 H 0.18125 0.18275 0.34237 0.0
H366 H 0.23087 0.10128 0.34239 0.0
C367 C 0.22533 0.123 0.414 0.0
C368 C 0.8774 0.11201 0.36113 0.0
C369 C 0.89283 0.15273 0.38625 0.0
H370 H 0.82355 0.00637 0.34234 0.0
C371 C 0.85694 0.11769 0.41143 0.0
H372 H 0.90396 0.13739 0.34129 0.0
C373 C 0.81256 0.04237 0.4122 0.0
C374 C 0.80202 0.00112 0.38759 0.0
H375 H 0.86602 0.14795 0.43087 0.0
H376 H 0.78755 0.01644 0.43217 0.0
C377 C 0.8323 0.03677 0.3618 0.0
C378 C 0.12583 0.6296 0.41696 0.0
C379 C 0.13414 0.66687 0.39136 0.0
H380 H 0.09455 0.52778 0.43681 0.0
C381 C 0.10622 0.6272 0.36619 0.0
H382 H 0.14515 0.65871 0.43681 0.0
C383 C 0.0754 0.55189 0.36631 0.0
C384 C 0.07349 0.51531 0.39141 0.0
H385 H 0.10939 0.65435 0.3463 0.0
H386 H 0.0566 0.52292 0.34649 0.0
C387 C 0.09567 0.55438 0.417 0.0
C388 C 0.35808 0.51071 0.41669 0.0
C389 C 0.32303 0.48003 0.39093 0.0
H390 H 0.45826 0.58282 0.43719 0.0
C391 C 0.3649 0.4903 0.36645 0.0
H392 H 0.32718 0.50219 0.43605 0.0
C393 C 0.44023 0.5348 0.36728 0.0
C394 C 0.47468 0.57105 0.39239 0.0
H395 H 0.33946 0.465 0.34652 0.0
H396 H 0.47095 0.54364 0.34794 0.0
C397 C 0.43336 0.55591 0.41742 0.0
C398 C 0.45578 0.91797 0.36888 0.0
C399 C 0.41896 0.91548 0.39398 0.0
H400 H 0.52627 0.8878 0.34806 0.0
C401 C 0.43401 0.88918 0.41899 0.0
H402 H 0.44706 0.94004 0.34956 0.0
C403 C 0.47958 0.85951 0.41821 0.0
C404 C 0.51069 0.85566 0.39244 0.0
H405 H 0.40678 0.8868 0.43877 0.0
H406 H 0.48798 0.83697 0.43755 0.0
C407 C 0.5006 0.88751 0.368 0.0
C408 C 0.62628 0.14161 0.69587 0.0
C409 C 0.6622 0.14846 0.72166 0.0
H410 H 0.52549 0.11151 0.67546 0.0
C411 C 0.62118 0.11925 0.74652 0.0
H412 H 0.65647 0.16202 0.67622 0.0
C413 C 0.54581 0.08845 0.74595 0.0
C414 C 0.51056 0.0879 0.72068 0.0
H415 H 0.6473 0.12133 0.76653 0.0
H416 H 0.51574 0.06856 0.76556 0.0
C417 C 0.55103 0.11151 0.69537 0.0
C418 C 0.88559 0.44875 0.69475 0.0
C419 C 0.91084 0.43309 0.71989 0.0
H420 H 0.8339 0.50288 0.6759 0.0
C421 C 0.91173 0.46886 0.74503 0.0
H422 H 0.88437 0.42229 0.67494 0.0
C423 C 0.88093 0.51339 0.74573 0.0
C424 C 0.85024 0.52417 0.72111 0.0
H425 H 0.93283 0.45959 0.76447 0.0
H426 H 0.88006 0.53829 0.76568 0.0
C427 C 0.85554 0.49396 0.69537 0.0
C428 C 0.52961 0.45278 0.74552 0.0
C429 C 0.56537 0.48847 0.72042 0.0
H430 H 0.46017 0.35103 0.76588 0.0
C431 C 0.54961 0.44847 0.69509 0.0
H432 H 0.53892 0.48249 0.76512 0.0
C433 C 0.50442 0.37323 0.69546 0.0
C434 C 0.47427 0.33688 0.72113 0.0
H435 H 0.57604 0.47436 0.67531 0.0
H436 H 0.49548 0.34339 0.67584 0.0
C437 C 0.48504 0.37747 0.74597 0.0
C438 C 0.77244 0.89187 0.75107 0.0
C439 C 0.74705 0.85127 0.72592 0.0
H440 H 0.82425 -0.00257 0.76994 0.0
C441 C 0.74595 0.88639 0.70082 0.0
H442 H 0.77383 0.86643 0.77084 0.0
C443 C 0.77674 0.96169 0.70014 0.0
C444 C 0.8076 0.00286 0.72476 0.0
H445 H 0.72468 0.85621 0.68138 0.0
H446 H 0.77747 -0.01233 0.68022 0.0
C447 C 0.80248 0.96711 0.75048 0.0
C448 C 0.03678 0.82678 0.69956 0.0
C449 C -0.0041 0.8152 0.72445 0.0
H450 H 0.14195 0.88133 0.68036 0.0
C451 C 0.03202 0.84465 0.75014 0.0
H452 H 0.01054 0.80249 0.67962 0.0
C453 C 0.10731 0.88991 0.7505 0.0
C454 C 0.14761 0.90643 0.72514 0.0
H455 H 0.00196 0.8351 0.7698 0.0
H456 H 0.13301 0.91573 0.77033 0.0
C457 C 0.11212 0.8714 0.7 0.0
C458 C 0.17213 0.22097 0.69876 0.0
C459 C 0.18339 0.19105 0.72352 0.0
H460 H 0.11798 0.27243 0.67991 0.0
C461 C 0.15388 0.19729 0.74932 0.0
H462 H 0.19655 0.21939 0.67875 0.0
C463 C 0.10886 0.22752 0.74992 0.0
C464 C 0.09257 0.25188 0.72469 0.0
H465 H 0.16322 0.17632 0.76889 0.0
H466 H 0.08295 0.22702 0.76982 0.0
C467 C 0.1277 0.25192 0.69944 0.0
C468 C 0.10027 0.36692 0.22227 0.0
C469 C 0.08165 0.38614 0.24822 0.0
H470 H 0.09338 0.36683 0.17688 0.0
C471 C 0.04495 0.42597 0.24758 0.0
H472 H 0.12725 0.33502 0.22212 0.0
C473 C 0.02605 0.44469 0.22167 0.0
C474 C 0.04344 0.42432 0.19573 0.0
H475 H 0.02702 0.43908 0.26703 0.0
H476 H -0.00454 0.47304 0.22187 0.0
C477 C 0.08159 0.38591 0.19634 0.0
C478 C 0.57703 0.63304 0.24781 0.0
C479 C 0.60641 0.70879 0.24899 0.0
H480 H 0.53428 0.538 0.22155 0.0
C481 C 0.61327 0.74678 0.22369 0.0
H482 H 0.57275 0.60261 0.26688 0.0
C483 C 0.5909 0.70982 0.19773 0.0
C484 C 0.56341 0.63421 0.19634 0.0
H485 H 0.63554 0.80514 0.2241 0.0
H486 H 0.59437 0.74055 0.17891 0.0
C487 C 0.55567 0.59622 0.22182 0.0
C488 C 0.28432 0.91041 0.19782 0.0
C489 C 0.36081 0.95061 0.19684 0.0
H490 H 0.18849 0.86269 0.22401 0.0
C491 C 0.39945 0.96975 0.22257 0.0
H492 H 0.25273 0.89736 0.17852 0.0
C493 C 0.36256 0.95038 0.24866 0.0
C494 C 0.28602 0.91162 0.24962 0.0
H495 H 0.45832 0.00194 0.22243 0.0
H496 H 0.39396 0.96946 0.26798 0.0
C497 C 0.24744 0.89127 0.22389 0.0
C498 C 0.37374 0.09339 0.91488 0.0
C499 C 0.41083 0.05397 0.91588 0.0
H500 H 0.32511 0.14041 0.88862 0.0
C501 C 0.43104 0.03538 0.89018 0.0
H502 H 0.35472 0.10599 0.93418 0.0
C503 C 0.41361 0.05466 0.86409 0.0
C504 C 0.37519 0.09276 0.86309 0.0
H505 H 0.45833 0.00377 0.89034 0.0
H506 H 0.42658 0.03606 0.84478 0.0
C507 C 0.35601 0.11238 0.88879 0.0
C508 C 0.8879 0.29569 0.91423 0.0
C509 C 0.9352 0.37147 0.91565 0.0
H510 H 0.83932 0.20025 0.88789 0.0
C511 C 0.96586 0.40959 0.89022 0.0
H512 H 0.86022 0.26479 0.93297 0.0
C513 C 0.95168 0.37275 0.86427 0.0
C514 C 0.90634 0.29687 0.8631 0.0
H515 H 0.00203 0.46793 0.89051 0.0
H516 H -0.02199 0.40329 0.84523 0.0
C517 C 0.87472 0.25872 0.88833 0.0
C518 C 0.62396 0.57825 0.86437 0.0
C519 C 0.70052 0.61781 0.86378 0.0
H520 H 0.52713 0.53172 0.88999 0.0
C521 C 0.73808 0.63705 0.88978 0.0
H522 H 0.59311 0.56509 0.84488 0.0
C523 C 0.70015 0.61839 0.91569 0.0
C524 C 0.62356 0.58027 0.91623 0.0
H525 H 0.79697 0.66873 0.88999 0.0
H526 H 0.73085 0.63749 0.93516 0.0
C527 C 0.58606 0.55986 0.89025 0.0
C528 C 0.693 0.77727 0.55588 0.0
C529 C 0.71114 0.75757 0.52994 0.0
H530 H 0.69427 0.77188 0.60127 0.0
C531 C 0.75042 0.72029 0.53058 0.0
H532 H 0.66155 0.80472 0.55605 0.0
C533 C 0.76965 0.70189 0.55651 0.0
C534 C 0.75048 0.72056 0.58246 0.0
H535 H 0.76278 0.70168 0.51113 0.0
H536 H 0.79758 0.6709 0.55636 0.0
C537 C 0.71254 0.75918 0.58181 0.0
C538 C 0.23355 0.93015 0.55535 0.0
C539 C 0.2406 0.96755 0.52978 0.0
H540 H 0.25124 0.93756 0.60038 0.0
C541 C 0.2679 0.04317 0.53093 0.0
H542 H 0.2123 0.87195 0.55526 0.0
C543 C 0.29068 0.0807 0.55675 0.0
C544 C 0.28431 0.04323 0.58214 0.0
H545 H 0.27079 0.07345 0.51205 0.0
H546 H 0.31268 0.13902 0.55701 0.0
C547 C 0.25522 0.96753 0.58121 0.0
C548 C 0.9151 0.22532 0.55639 0.0
C549 C 0.95367 0.24512 0.58213 0.0
H550 H 0.92061 0.23118 0.51099 0.0
C551 C 0.03021 0.283 0.58117 0.0
H552 H 0.85617 0.19744 0.55651 0.0
C553 C 0.06716 0.30191 0.5551 0.0
C554 C 0.0286 0.28317 0.52936 0.0
H555 H 0.06164 0.30173 0.6005 0.0
H556 H 0.12607 0.33337 0.55499 0.0
C557 C 0.95207 0.24392 0.53031 0.0
loop_
_geom_bond_atom_site_label_1
_geom_bond_atom_site_label_2
_geom_bond_distance
_geom_bond_site_symmetry_2
_ccdc_geom_bond_type
Zn0 O1 2.055 . S
Zn0 O8 2.046 1_455 S
Zn0 N16 2.036 . S
Zn0 O28 2.053 1_455 S
Zn0 O30 2.066 . S
O1 Zn0 2.055 . S
O1 C4 1.259 . S
C2 O30 1.256 . S
C2 O31 1.244 . S
Zn3 O5 2.046 1_556 S
Zn3 O7 2.055 1_456 S
Zn3 N9 2.036 . S
Zn3 O27 2.066 1_456 S
Zn3 O31 2.053 1_556 S
C4 O1 1.259 . S
C4 O5 1.254 . S
O5 Zn3 2.046 1_554 S
O5 C4 1.254 . S
C6 O27 1.256 . S
C6 O28 1.244 . S
O7 Zn3 2.055 1_654 S
O7 C29 1.259 . S
O8 Zn0 2.046 1_655 S
O8 C29 1.254 . S
N9 Zn3 2.036 . S
N9 C10 1.298 1_455 S
N9 N12 1.398 . S
C10 N9 1.298 1_655 S
C10 N13 1.367 . S
C10 C23 1.481 . S
C11 N12 1.299 . S
C11 N13 1.379 1_455 S
N12 N9 1.398 . S
N12 C11 1.299 . S
N13 C10 1.367 . S
N13 C11 1.379 1_655 S
C14 N16 1.298 . S
C14 N18 1.367 . S
C14 C22 1.481 . S
C15 N17 1.299 . S
C15 N18 1.379 1_655 S
N16 Zn0 2.036 . S
N16 C14 1.298 . S
N16 N17 1.398 1_455 S
N17 C15 1.299 . S
N17 N16 1.398 1_655 S
N18 C14 1.367 . S
N18 C15 1.379 1_455 S
H19 C22 0.980 . S
H20 C22 0.981 . S
H21 C22 0.981 . S
C22 C14 1.481 . S
C22 H19 0.980 . S
C22 H20 0.981 . S
C22 H21 0.981 . S
C23 C10 1.481 . S
C23 H24 0.980 . S
C23 H25 0.981 . S
C23 H26 0.981 . S
H24 C23 0.980 . S
H25 C23 0.981 . S
H26 C23 0.981 . S
O27 Zn3 2.066 1_654 S
O27 C6 1.256 . S
O28 Zn0 2.053 1_655 S
O28 C6 1.244 . S
C29 O7 1.259 . S
C29 O8 1.254 . S
O30 Zn0 2.066 . S
O30 C2 1.256 . S
O31 C2 1.244 . S
O31 Zn3 2.053 1_554 S
Zn32 O33 2.055 . S
Zn32 O40 2.046 . S
Zn32 N48 2.036 . S
Zn32 O60 2.053 . S
Zn32 O62 2.066 . S
O33 Zn32 2.055 . S
O33 C36 1.259 . S
C34 O62 1.256 . S
C34 O63 1.244 . S
Zn35 O37 2.046 1_556 S
Zn35 O39 2.055 1_556 S
Zn35 N41 2.036 . S
Zn35 O59 2.066 1_556 S
Zn35 O63 2.053 1_556 S
C36 O33 1.259 . S
C36 O37 1.254 . S
O37 Zn35 2.046 1_554 S
O37 C36 1.254 . S
C38 O59 1.256 . S
C38 O60 1.244 . S
O39 Zn35 2.055 1_554 S
O39 C61 1.259 . S
O40 Zn32 2.046 . S
O40 C61 1.254 . S
N41 Zn35 2.036 . S
N41 C42 1.298 . S
N41 N44 1.398 . S
C42 N41 1.298 . S
C42 N45 1.367 . S
C42 C55 1.481 . S
C43 N44 1.299 . S
C43 N45 1.379 . S
N44 N41 1.398 . S
N44 C43 1.299 . S
N45 C42 1.367 . S
N45 C43 1.379 . S
C46 N48 1.298 . S
C46 N50 1.367 . S
C46 C54 1.481 . S
C47 N49 1.299 . S
C47 N50 1.379 . S
N48 Zn32 2.036 . S
N48 C46 1.298 . S
N48 N49 1.398 . S
N49 C47 1.299 . S
N49 N48 1.398 . S
N50 C46 1.367 . S
N50 C47 1.379 . S
H51 C54 0.980 . S
H52 C54 0.981 . S
H53 C54 0.981 . S
C54 C46 1.481 . S
C54 H51 0.980 . S
C54 H52 0.981 . S
C54 H53 0.981 . S
C55 C42 1.481 . S
C55 H56 0.980 . S
C55 H57 0.981 . S
C55 H58 0.981 . S
H56 C55 0.980 . S
H57 C55 0.981 . S
H58 C55 0.981 . S
O59 Zn35 2.066 1_554 S
O59 C38 1.256 . S
O60 Zn32 2.053 . S
O60 C38 1.244 . S
C61 O39 1.259 . S
C61 O40 1.254 . S
O62 Zn32 2.066 . S
O62 C34 1.256 . S
O63 C34 1.244 . S
O63 Zn35 2.053 1_554 S
Zn64 O65 2.055 1_556 S
Zn64 O72 2.046 1_546 S
Zn64 N80 2.036 . S
Zn64 O92 2.053 1_546 S
Zn64 O94 2.066 1_556 S
O65 Zn64 2.055 1_554 S
O65 C68 1.259 . S
C66 O94 1.256 . S
C66 O95 1.244 . S
Zn67 O69 2.046 . S
Zn67 O71 2.055 1_545 S
Zn67 N73 2.036 . S
Zn67 O91 2.066 1_545 S
Zn67 O95 2.053 . S
C68 O65 1.259 . S
C68 O69 1.254 . S
O69 Zn67 2.046 . S
O69 C68 1.254 . S
C70 O91 1.256 . S
C70 O92 1.244 . S
O71 Zn67 2.055 1_565 S
O71 C93 1.259 . S
O72 Zn64 2.046 1_564 S
O72 C93 1.254 . S
N73 Zn67 2.036 . S
N73 C74 1.298 1_545 S
N73 N76 1.398 . S
C74 N73 1.298 1_565 S
C74 N77 1.367 . S
C74 C87 1.481 . S
C75 N76 1.299 . S
C75 N77 1.379 1_545 S
N76 N73 1.398 . S
N76 C75 1.299 . S
N77 C74 1.367 . S
N77 C75 1.379 1_565 S
C78 N80 1.298 . S
C78 N82 1.367 . S
C78 C86 1.481 . S
C79 N81 1.299 . S
C79 N82 1.379 1_565 S
N80 Zn64 2.036 . S
N80 C78 1.298 . S
N80 N81 1.398 1_545 S
N81 C79 1.299 . S
N81 N80 1.398 1_565 S
N82 C78 1.367 . S
N82 C79 1.379 1_545 S
H83 C86 0.980 . S
H84 C86 0.981 . S
H85 C86 0.981 . S
C86 C78 1.481 . S
C86 H83 0.980 . S
C86 H84 0.981 . S
C86 H85 0.981 . S
C87 C74 1.481 . S
C87 H88 0.980 . S
C87 H89 0.981 . S
C87 H90 0.981 . S
H88 C87 0.980 . S
H89 C87 0.981 . S
H90 C87 0.981 . S
O91 Zn67 2.066 1_565 S
O91 C70 1.256 . S
O92 Zn64 2.053 1_564 S
O92 C70 1.244 . S
C93 O71 1.259 . S
C93 O72 1.254 . S
O94 Zn64 2.066 1_554 S
O94 C66 1.256 . S
O95 C66 1.244 . S
O95 Zn67 2.053 . S
Zn96 O97 2.055 . S
Zn96 O104 2.046 . S
Zn96 N112 2.036 . S
Zn96 O124 2.053 . S
Zn96 O126 2.066 . S
O97 Zn96 2.055 . S
O97 C100 1.259 . S
C98 O126 1.256 . S
C98 O127 1.244 . S
Zn99 O101 2.046 . S
Zn99 O103 2.055 . S
Zn99 N105 2.036 . S
Zn99 O123 2.066 . S
Zn99 O127 2.053 . S
C100 O97 1.259 . S
C100 O101 1.254 . S
O101 Zn99 2.046 . S
O101 C100 1.254 . S
C102 O123 1.256 . S
C102 O124 1.244 . S
O103 Zn99 2.055 . S
O103 C125 1.259 . S
O104 Zn96 2.046 . S
O104 C125 1.254 . S
N105 Zn99 2.036 . S
N105 C106 1.298 . S
N105 N108 1.398 . S
C106 N105 1.298 . S
C106 N109 1.367 . S
C106 C119 1.481 . S
C107 N108 1.299 . S
C107 N109 1.379 . S
N108 N105 1.398 . S
N108 C107 1.299 . S
N109 C106 1.367 . S
N109 C107 1.379 . S
C110 N112 1.298 . S
C110 N114 1.367 . S
C110 C118 1.481 . S
C111 N113 1.299 . S
C111 N114 1.379 . S
N112 Zn96 2.036 . S
N112 C110 1.298 . S
N112 N113 1.398 . S
N113 C111 1.299 . S
N113 N112 1.398 . S
N114 C110 1.367 . S
N114 C111 1.379 . S
H115 C118 0.980 . S
H116 C118 0.981 . S
H117 C118 0.981 . S
C118 C110 1.481 . S
C118 H115 0.980 . S
C118 H116 0.981 . S
C118 H117 0.981 . S
C119 C106 1.481 . S
C119 H120 0.980 . S
C119 H121 0.981 . S
C119 H122 0.981 . S
H120 C119 0.980 . S
H121 C119 0.981 . S
H122 C119 0.981 . S
O123 Zn99 2.066 . S
O123 C102 1.256 . S
O124 Zn96 2.053 . S
O124 C102 1.244 . S
C125 O103 1.259 . S
C125 O104 1.254 . S
O126 Zn96 2.066 . S
O126 C98 1.256 . S
O127 C98 1.244 . S
O127 Zn99 2.053 . S
Zn128 O129 2.055 . S
Zn128 O136 2.046 . S
Zn128 N144 2.036 . S
Zn128 O156 2.053 . S
Zn128 O158 2.066 . S
O129 Zn128 2.055 . S
O129 C132 1.259 . S
C130 O158 1.256 . S
C130 O159 1.244 . S
Zn131 O133 2.046 . S
Zn131 O135 2.055 . S
Zn131 N137 2.036 . S
Zn131 O155 2.066 . S
Zn131 O159 2.053 . S
C132 O129 1.259 . S
C132 O133 1.254 . S
O133 Zn131 2.046 . S
O133 C132 1.254 . S
C134 O155 1.256 1_545 S
C134 O156 1.244 1_545 S
O135 Zn131 2.055 . S
O135 C157 1.259 . S
O136 Zn128 2.046 . S
O136 C157 1.254 . S
N137 Zn131 2.036 . S
N137 C138 1.298 . S
N137 N140 1.398 . S
C138 N137 1.298 . S
C138 N141 1.367 . S
C138 C151 1.481 . S
C139 N140 1.299 . S
C139 N141 1.379 . S
N140 N137 1.398 . S
N140 C139 1.299 . S
N141 C138 1.367 . S
N141 C139 1.379 . S
C142 N144 1.298 . S
C142 N146 1.367 . S
C142 C150 1.481 . S
C143 N145 1.299 . S
C143 N146 1.379 . S
N144 Zn128 2.036 . S
N144 C142 1.298 . S
N144 N145 1.398 . S
N145 C143 1.299 . S
N145 N144 1.398 . S
N146 C142 1.367 . S
N146 C143 1.379 . S
H147 C150 0.980 . S
H148 C150 0.981 . S
H149 C150 0.981 . S
C150 C142 1.481 . S
C150 H147 0.980 . S
C150 H148 0.981 . S
C150 H149 0.981 . S
C151 C138 1.481 . S
C151 H152 0.980 . S
C151 H153 0.981 . S
C151 H154 0.981 . S
H152 C151 0.980 . S
H153 C151 0.981 . S
H154 C151 0.981 . S
O155 Zn131 2.066 . S
O155 C134 1.256 1_565 S
O156 Zn128 2.053 . S
O156 C134 1.244 1_565 S
C157 O135 1.259 . S
C157 O136 1.254 . S
O158 Zn128 2.066 . S
O158 C130 1.256 . S
O159 C130 1.244 . S
O159 Zn131 2.053 . S
Zn160 O161 2.055 . S
Zn160 O168 2.046 . S
Zn160 N176 2.036 . S
Zn160 O188 2.053 . S
Zn160 O190 2.066 . S
O161 Zn160 2.055 . S
O161 C164 1.259 . S
C162 O190 1.256 . S
C162 O191 1.244 . S
Zn163 O165 2.046 . S
Zn163 O167 2.055 . S
Zn163 N169 2.036 . S
Zn163 O187 2.066 . S
Zn163 O191 2.053 . S
C164 O161 1.259 . S
C164 O165 1.254 . S
O165 Zn163 2.046 . S
O165 C164 1.254 . S
C166 O187 1.256 . S
C166 O188 1.244 . S
O167 Zn163 2.055 . S
O167 C189 1.259 . S
O168 Zn160 2.046 . S
O168 C189 1.254 . S
N169 Zn163 2.036 . S
N169 C170 1.298 . S
N169 N172 1.398 . S
C170 N169 1.298 . S
C170 N173 1.367 . S
C170 C183 1.481 . S
C171 N172 1.299 . S
C171 N173 1.379 . S
N172 N169 1.398 . S
N172 C171 1.299 . S
N173 C170 1.367 . S
N173 C171 1.379 . S
C174 N176 1.298 . S
C174 N178 1.367 . S
C174 C182 1.481 . S
C175 N177 1.299 . S
C175 N178 1.379 . S
N176 Zn160 2.036 . S
N176 C174 1.298 . S
N176 N177 1.398 . S
N177 C175 1.299 . S
N177 N176 1.398 . S
N178 C174 1.367 . S
N178 C175 1.379 . S
H179 C182 0.980 . S
H180 C182 0.981 . S
H181 C182 0.981 . S
C182 C174 1.481 . S
C182 H179 0.980 . S
C182 H180 0.981 . S
C182 H181 0.981 . S
C183 C170 1.481 . S
C183 H184 0.980 . S
C183 H185 0.981 . S
C183 H186 0.981 . S
H184 C183 0.980 . S
H185 C183 0.981 . S
H186 C183 0.981 . S
O187 Zn163 2.066 . S
O187 C166 1.256 . S
O188 Zn160 2.053 . S
O188 C166 1.244 . S
C189 O167 1.259 . S
C189 O168 1.254 . S
O190 Zn160 2.066 . S
O190 C162 1.256 . S
O191 C162 1.244 . S
O191 Zn163 2.053 . S
Zn192 O193 2.055 . S
Zn192 O200 2.046 . S
Zn192 N208 2.036 . S
Zn192 O220 2.053 . S
Zn192 O222 2.066 . S
O193 Zn192 2.055 . S
O193 C196 1.259 . S
C194 O222 1.256 . S
C194 O223 1.244 . S
Zn195 O197 2.046 . S
Zn195 O199 2.055 . S
Zn195 N201 2.036 . S
Zn195 O219 2.066 . S
Zn195 O223 2.053 . S
C196 O193 1.259 . S
C196 O197 1.254 . S
O197 Zn195 2.046 . S
O197 C196 1.254 . S
C198 O219 1.256 . S
C198 O220 1.244 . S
O199 Zn195 2.055 . S
O199 C221 1.259 . S
O200 Zn192 2.046 . S
O200 C221 1.254 . S
N201 Zn195 2.036 . S
N201 C202 1.298 . S
N201 N204 1.398 . S
C202 N201 1.298 . S
C202 N205 1.367 . S
C202 C215 1.481 . S
C203 N204 1.299 . S
C203 N205 1.379 . S
N204 N201 1.398 . S
N204 C203 1.299 . S
N205 C202 1.367 . S
N205 C203 1.379 . S
C206 N208 1.298 . S
C206 N210 1.367 . S
C206 C214 1.481 . S
C207 N209 1.299 . S
C207 N210 1.379 . S
N208 Zn192 2.036 . S
N208 C206 1.298 . S
N208 N209 1.398 . S
N209 C207 1.299 . S
N209 N208 1.398 . S
N210 C206 1.367 . S
N210 C207 1.379 . S
H211 C214 0.980 . S
H212 C214 0.981 . S
H213 C214 0.981 . S
C214 C206 1.481 . S
C214 H211 0.980 . S
C214 H212 0.981 . S
C214 H213 0.981 . S
C215 C202 1.481 . S
C215 H216 0.980 . S
C215 H217 0.981 . S
C215 H218 0.981 . S
H216 C215 0.980 . S
H217 C215 0.981 . S
H218 C215 0.981 . S
O219 Zn195 2.066 . S
O219 C198 1.256 . S
O220 Zn192 2.053 . S
O220 C198 1.244 . S
C221 O199 1.259 . S
C221 O200 1.254 . S
O222 Zn192 2.066 . S
O222 C194 1.256 . S
O223 C194 1.244 . S
O223 Zn195 2.053 . S
Zn224 O225 2.055 . S
Zn224 O232 2.046 . S
Zn224 N240 2.036 . S
Zn224 O252 2.053 . S
Zn224 O254 2.066 . S
O225 Zn224 2.055 . S
O225 C228 1.259 . S
C226 O254 1.256 1_455 S
C226 O255 1.244 1_455 S
Zn227 O229 2.046 . S
Zn227 O231 2.055 . S
Zn227 N233 2.036 . S
Zn227 O251 2.066 . S
Zn227 O255 2.053 . S
C228 O225 1.259 . S
C228 O229 1.254 . S
O229 Zn227 2.046 . S
O229 C228 1.254 . S
C230 O251 1.256 . S
C230 O252 1.244 . S
O231 Zn227 2.055 . S
O231 C253 1.259 . S
O232 Zn224 2.046 . S
O232 C253 1.254 . S
N233 Zn227 2.036 . S
N233 C234 1.298 . S
N233 N236 1.398 . S
C234 N233 1.298 . S
C234 N237 1.367 . S
C234 C247 1.481 . S
C235 N236 1.299 . S
C235 N237 1.379 . S
N236 N233 1.398 . S
N236 C235 1.299 . S
N237 C234 1.367 . S
N237 C235 1.379 . S
C238 N240 1.298 . S
C238 N242 1.367 . S
C238 C246 1.481 . S
C239 N241 1.299 . S
C239 N242 1.379 . S
N240 Zn224 2.036 . S
N240 C238 1.298 . S
N240 N241 1.398 . S
N241 C239 1.299 . S
N241 N240 1.398 . S
N242 C238 1.367 . S
N242 C239 1.379 . S
H243 C246 0.980 . S
H244 C246 0.981 . S
H245 C246 0.981 . S
C246 C238 1.481 . S
C246 H243 0.980 . S
C246 H244 0.981 . S
C246 H245 0.981 . S
C247 C234 1.481 . S
C247 H248 0.980 . S
C247 H249 0.981 . S
C247 H250 0.981 . S
H248 C247 0.980 . S
H249 C247 0.981 . S
H250 C247 0.981 . S
O251 Zn227 2.066 . S
O251 C230 1.256 . S
O252 Zn224 2.053 . S
O252 C230 1.244 . S
C253 O231 1.259 . S
C253 O232 1.254 . S
O254 Zn224 2.066 . S
O254 C226 1.256 1_655 S
O255 C226 1.244 1_655 S
O255 Zn227 2.053 . S
Zn256 O257 2.055 . S
Zn256 O264 2.046 . S
Zn256 N272 2.036 . S
Zn256 O284 2.053 . S
Zn256 O286 2.066 . S
O257 Zn256 2.055 . S
O257 C260 1.259 . S
C258 O286 1.256 . S
C258 O287 1.244 . S
Zn259 O261 2.046 . S
Zn259 O263 2.055 . S
Zn259 N265 2.036 . S
Zn259 O283 2.066 . S
Zn259 O287 2.053 . S
C260 O257 1.259 . S
C260 O261 1.254 . S
O261 Zn259 2.046 . S
O261 C260 1.254 . S
C262 O283 1.256 . S
C262 O284 1.244 . S
O263 Zn259 2.055 . S
O263 C285 1.259 . S
O264 Zn256 2.046 . S
O264 C285 1.254 . S
N265 Zn259 2.036 . S
N265 C266 1.298 . S
N265 N268 1.398 . S
C266 N265 1.298 . S
C266 N269 1.367 . S
C266 C279 1.481 . S
C267 N268 1.299 . S
C267 N269 1.379 . S
N268 N265 1.398 . S
N268 C267 1.299 . S
N269 C266 1.367 . S
N269 C267 1.379 . S
C270 N272 1.298 . S
C270 N274 1.367 . S
C270 C278 1.481 . S
C271 N273 1.299 . S
C271 N274 1.379 . S
N272 Zn256 2.036 . S
N272 C270 1.298 . S
N272 N273 1.398 . S
N273 C271 1.299 . S
N273 N272 1.398 . S
N274 C270 1.367 . S
N274 C271 1.379 . S
H275 C278 0.980 . S
H276 C278 0.981 . S
H277 C278 0.981 . S
C278 C270 1.481 . S
C278 H275 0.980 . S
C278 H276 0.981 . S
C278 H277 0.981 . S
C279 C266 1.481 . S
C279 H280 0.980 . S
C279 H281 0.981 . S
C279 H282 0.981 . S
H280 C279 0.980 . S
H281 C279 0.981 . S
H282 C279 0.981 . S
O283 Zn259 2.066 . S
O283 C262 1.256 . S
O284 Zn256 2.053 . S
O284 C262 1.244 . S
C285 O263 1.259 . S
C285 O264 1.254 . S
O286 Zn256 2.066 . S
O286 C258 1.256 . S
O287 C258 1.244 . S
O287 Zn259 2.053 . S
C288 C289 1.387 . S
C288 H292 0.950 . S
C288 C297 1.390 . S
C289 C288 1.387 . S
C289 C291 1.387 . S
H290 C297 0.950 . S
C291 C289 1.387 . S
C291 C293 1.390 . S
C291 H295 0.950 1_554 S
H292 C288 0.950 . S
C293 C291 1.390 . S
C293 C294 1.387 . S
C293 H296 0.950 1_554 S
C294 C293 1.387 . S
C294 C297 1.387 . S
H295 C291 0.950 1_556 S
H296 C293 0.950 1_556 S
C297 C288 1.390 . S
C297 H290 0.950 . S
C297 C294 1.387 . S
C298 C299 1.387 . S
C298 H302 0.950 . S
C298 C307 1.390 . S
C299 C298 1.387 . S
C299 C301 1.387 . S
H300 C307 0.950 . S
C301 C299 1.387 . S
C301 C303 1.390 . S
C301 H305 0.950 1_554 S
H302 C298 0.950 . S
C303 C301 1.390 . S
C303 C304 1.387 . S
C303 H306 0.950 1_554 S
C304 C303 1.387 . S
C304 C307 1.387 . S
H305 C301 0.950 1_556 S
H306 C303 0.950 1_556 S
C307 C298 1.390 . S
C307 H300 0.950 . S
C307 C304 1.387 . S
C308 C309 1.387 . S
C308 H312 0.950 . S
C308 C317 1.390 . S
C309 C308 1.387 . S
C309 C311 1.387 . S
H310 C317 0.950 . S
C311 C309 1.387 . S
C311 C313 1.390 . S
C311 H315 0.950 1_554 S
H312 C308 0.950 . S
C313 C311 1.390 . S
C313 C314 1.387 . S
C313 H316 0.950 1_554 S
C314 C313 1.387 . S
C314 C317 1.387 . S
H315 C311 0.950 1_556 S
H316 C313 0.950 1_556 S
C317 C308 1.390 . S
C317 H310 0.950 . S
C317 C314 1.387 . S
C318 C319 1.387 . S
C318 H322 0.950 1_554 S
C318 C327 1.390 . S
C319 C318 1.387 . S
C319 C321 1.387 . S
H320 C327 0.950 1_556 S
C321 C319 1.387 . S
C321 C323 1.390 . S
C321 H325 0.950 . S
H322 C318 0.950 1_556 S
C323 C321 1.390 . S
C323 C324 1.387 . S
C323 H326 0.950 . S
C324 C323 1.387 . S
C324 C327 1.387 . S
H325 C321 0.950 . S
H326 C323 0.950 . S
C327 C318 1.390 . S
C327 H320 0.950 1_554 S
C327 C324 1.387 . S
C328 C329 1.387 . S
C328 H332 0.950 1_554 S
C328 C337 1.390 . S
C329 C328 1.387 . S
C329 C331 1.387 . S
H330 C337 0.950 1_556 S
C331 C329 1.387 . S
C331 C333 1.390 . S
C331 H335 0.950 . S
H332 C328 0.950 1_556 S
C333 C331 1.390 . S
C333 C334 1.387 . S
C333 H336 0.950 . S
C334 C333 1.387 . S
C334 C337 1.387 . S
H335 C331 0.950 . S
H336 C333 0.950 . S
C337 C328 1.390 . S
C337 H330 0.950 1_554 S
C337 C334 1.387 . S
C338 C339 1.387 . S
C338 H342 0.950 1_554 S
C338 C347 1.390 . S
C339 C338 1.387 . S
C339 C341 1.387 . S
H340 C347 0.950 1_556 S
C341 C339 1.387 . S
C341 C343 1.390 . S
C341 H345 0.950 . S
H342 C338 0.950 1_556 S
C343 C341 1.390 . S
C343 C344 1.387 . S
C343 H346 0.950 . S
C344 C343 1.387 . S
C344 C347 1.387 . S
H345 C341 0.950 . S
H346 C343 0.950 . S
C347 C338 1.390 . S
C347 H340 0.950 1_554 S
C347 C344 1.387 . S
C348 C349 1.387 . S
C348 H352 0.950 . S
C348 C357 1.390 . S
C349 C348 1.387 . S
C349 C351 1.387 . S
H350 C357 0.950 1_455 S
C351 C349 1.387 . S
C351 C353 1.390 . S
C351 H355 0.950 . S
H352 C348 0.950 . S
C353 C351 1.390 . S
C353 C354 1.387 1_655 S
C353 H356 0.950 . S
C354 C353 1.387 1_455 S
C354 C357 1.387 1_455 S
H355 C351 0.950 . S
H356 C353 0.950 . S
C357 C348 1.390 . S
C357 H350 0.950 1_655 S
C357 C354 1.387 1_655 S
C358 C359 1.387 . S
C358 H362 0.950 . S
C358 C367 1.390 . S
C359 C358 1.387 . S
C359 C361 1.387 . S
H360 C367 0.950 . S
C361 C359 1.387 . S
C361 C363 1.390 . S
C361 H365 0.950 . S
H362 C358 0.950 . S
C363 C361 1.390 . S
C363 C364 1.387 . S
C363 H366 0.950 . S
C364 C363 1.387 . S
C364 C367 1.387 . S
H365 C361 0.950 . S
H366 C363 0.950 . S
C367 C358 1.390 . S
C367 H360 0.950 . S
C367 C364 1.387 . S
C368 C369 1.387 . S
C368 H372 0.950 . S
C368 C377 1.390 . S
C369 C368 1.387 . S
C369 C371 1.387 . S
H370 C377 0.950 . S
C371 C369 1.387 . S
C371 C373 1.390 . S
C371 H375 0.950 . S
H372 C368 0.950 . S
C373 C371 1.390 . S
C373 C374 1.387 . S
C373 H376 0.950 . S
C374 C373 1.387 . S
C374 C377 1.387 . S
H375 C371 0.950 . S
H376 C373 0.950 . S
C377 C368 1.390 . S
C377 H370 0.950 . S
C377 C374 1.387 . S
C378 C379 1.387 . S
C378 H382 0.950 . S
C378 C387 1.390 . S
C379 C378 1.387 . S
C379 C381 1.387 . S
H380 C387 0.950 . S
C381 C379 1.387 . S
C381 C383 1.390 . S
C381 H385 0.950 . S
H382 C378 0.950 . S
C383 C381 1.390 . S
C383 C384 1.387 . S
C383 H386 0.950 . S
C384 C383 1.387 . S
C384 C387 1.387 . S
H385 C381 0.950 . S
H386 C383 0.950 . S
C387 C378 1.390 . S
C387 H380 0.950 . S
C387 C384 1.387 . S
C388 C389 1.387 . S
C388 H392 0.950 . S
C388 C397 1.390 . S
C389 C388 1.387 . S
C389 C391 1.387 . S
H390 C397 0.950 . S
C391 C389 1.387 . S
C391 C393 1.390 . S
C391 H395 0.950 . S
H392 C388 0.950 . S
C393 C391 1.390 . S
C393 C394 1.387 . S
C393 H396 0.950 . S
C394 C393 1.387 . S
C394 C397 1.387 . S
H395 C391 0.950 . S
H396 C393 0.950 . S
C397 C388 1.390 . S
C397 H390 0.950 . S
C397 C394 1.387 . S
C398 C399 1.387 . S
C398 H402 0.950 . S
C398 C407 1.390 . S
C399 C398 1.387 . S
C399 C401 1.387 . S
H400 C407 0.950 . S
C401 C399 1.387 . S
C401 C403 1.390 . S
C401 H405 0.950 . S
H402 C398 0.950 . S
C403 C401 1.390 . S
C403 C404 1.387 . S
C403 H406 0.950 . S
C404 C403 1.387 . S
C404 C407 1.387 . S
H405 C401 0.950 . S
H406 C403 0.950 . S
C407 C398 1.390 . S
C407 H400 0.950 . S
C407 C404 1.387 . S
C408 C409 1.387 . S
C408 H412 0.950 . S
C408 C417 1.390 . S
C409 C408 1.387 . S
C409 C411 1.387 . S
H410 C417 0.950 . S
C411 C409 1.387 . S
C411 C413 1.390 . S
C411 H415 0.950 . S
H412 C408 0.950 . S
C413 C411 1.390 . S
C413 C414 1.387 . S
C413 H416 0.950 . S
C414 C413 1.387 . S
C414 C417 1.387 . S
H415 C411 0.950 . S
H416 C413 0.950 . S
C417 C408 1.390 . S
C417 H410 0.950 . S
C417 C414 1.387 . S
C418 C419 1.387 . S
C418 H422 0.950 . S
C418 C427 1.390 . S
C419 C418 1.387 . S
C419 C421 1.387 . S
H420 C427 0.950 . S
C421 C419 1.387 . S
C421 C423 1.390 . S
C421 H425 0.950 . S
H422 C418 0.950 . S
C423 C421 1.390 . S
C423 C424 1.387 . S
C423 H426 0.950 . S
C424 C423 1.387 . S
C424 C427 1.387 . S
H425 C421 0.950 . S
H426 C423 0.950 . S
C427 C418 1.390 . S
C427 H420 0.950 . S
C427 C424 1.387 . S
C428 C429 1.387 . S
C428 H432 0.950 . S
C428 C437 1.390 . S
C429 C428 1.387 . S
C429 C431 1.387 . S
H430 C437 0.950 . S
C431 C429 1.387 . S
C431 C433 1.390 . S
C431 H435 0.950 . S
H432 C428 0.950 . S
C433 C431 1.390 . S
C433 C434 1.387 . S
C433 H436 0.950 . S
C434 C433 1.387 . S
C434 C437 1.387 . S
H435 C431 0.950 . S
H436 C433 0.950 . S
C437 C428 1.390 . S
C437 H430 0.950 . S
C437 C434 1.387 . S
C438 C439 1.387 . S
C438 H442 0.950 . S
C438 C447 1.390 . S
C439 C438 1.387 . S
C439 C441 1.387 . S
H440 C447 0.950 . S
C441 C439 1.387 . S
C441 C443 1.390 . S
C441 H445 0.950 . S
H442 C438 0.950 . S
C443 C441 1.390 . S
C443 C444 1.387 1_565 S
C443 H446 0.950 1_565 S
C444 C443 1.387 1_545 S
C444 C447 1.387 1_545 S
H445 C441 0.950 . S
H446 C443 0.950 1_545 S
C447 C438 1.390 . S
C447 H440 0.950 . S
C447 C444 1.387 1_565 S
C448 C449 1.387 . S
C448 H452 0.950 . S
C448 C457 1.390 . S
C449 C448 1.387 . S
C449 C451 1.387 . S
H450 C457 0.950 . S
C451 C449 1.387 . S
C451 C453 1.390 . S
C451 H455 0.950 . S
H452 C448 0.950 . S
C453 C451 1.390 . S
C453 C454 1.387 . S
C453 H456 0.950 . S
C454 C453 1.387 . S
C454 C457 1.387 . S
H455 C451 0.950 . S
H456 C453 0.950 . S
C457 C448 1.390 . S
C457 H450 0.950 . S
C457 C454 1.387 . S
C458 C459 1.387 . S
C458 H462 0.950 . S
C458 C467 1.390 . S
C459 C458 1.387 . S
C459 C461 1.387 . S
H460 C467 0.950 . S
C461 C459 1.387 . S
C461 C463 1.390 . S
C461 H465 0.950 . S
H462 C458 0.950 . S
C463 C461 1.390 . S
C463 C464 1.387 . S
C463 H466 0.950 . S
C464 C463 1.387 . S
C464 C467 1.387 . S
H465 C461 0.950 . S
H466 C463 0.950 . S
C467 C458 1.390 . S
C467 H460 0.950 . S
C467 C464 1.387 . S
C468 C469 1.387 . S
C468 H472 0.950 . S
C468 C477 1.390 . S
C469 C468 1.387 . S
C469 C471 1.387 . S
H470 C477 0.950 . S
C471 C469 1.387 . S
C471 C473 1.390 . S
C471 H475 0.950 . S
H472 C468 0.950 . S
C473 C471 1.390 . S
C473 C474 1.387 . S
C473 H476 0.950 . S
C474 C473 1.387 . S
C474 C477 1.387 . S
H475 C471 0.950 . S
H476 C473 0.950 . S
C477 C468 1.390 . S
C477 H470 0.950 . S
C477 C474 1.387 . S
C478 C479 1.387 . S
C478 H482 0.950 . S
C478 C487 1.390 . S
C479 C478 1.387 . S
C479 C481 1.387 . S
H480 C487 0.950 . S
C481 C479 1.387 . S
C481 C483 1.390 . S
C481 H485 0.950 . S
H482 C478 0.950 . S
C483 C481 1.390 . S
C483 C484 1.387 . S
C483 H486 0.950 . S
C484 C483 1.387 . S
C484 C487 1.387 . S
H485 C481 0.950 . S
H486 C483 0.950 . S
C487 C478 1.390 . S
C487 H480 0.950 . S
C487 C484 1.387 . S
C488 C489 1.387 . S
C488 H492 0.950 . S
C488 C497 1.390 . S
C489 C488 1.387 . S
C489 C491 1.387 1_565 S
H490 C497 0.950 . S
C491 C489 1.387 1_545 S
C491 C493 1.390 1_545 S
C491 H495 0.950 . S
H492 C488 0.950 . S
C493 C491 1.390 1_565 S
C493 C494 1.387 . S
C493 H496 0.950 1_565 S
C494 C493 1.387 . S
C494 C497 1.387 . S
H495 C491 0.950 . S
H496 C493 0.950 1_545 S
C497 C488 1.390 . S
C497 H490 0.950 . S
C497 C494 1.387 . S
C498 C499 1.387 . S
C498 H502 0.950 . S
C498 C507 1.390 . S
C499 C498 1.387 . S
C499 C501 1.387 . S
H500 C507 0.950 . S
C501 C499 1.387 . S
C501 C503 1.390 . S
C501 H505 0.944 1_545 S
H502 C498 0.950 . S
C503 C501 1.390 . S
C503 C504 1.387 . S
C503 H506 0.950 . S
C504 C503 1.387 . S
C504 C507 1.387 . S
H505 C501 0.944 1_565 S
H506 C503 0.950 . S
C507 C498 1.390 . S
C507 H500 0.950 . S
C507 C504 1.387 . S
C508 C509 1.387 . S
C508 H512 0.950 . S
C508 C517 1.390 . S
C509 C508 1.387 . S
C509 C511 1.387 1_655 S
H510 C517 0.950 . S
C511 C509 1.387 1_455 S
C511 C513 1.390 1_455 S
C511 H515 0.950 . S
H512 C508 0.950 . S
C513 C511 1.390 1_655 S
C513 C514 1.387 . S
C513 H516 0.950 1_655 S
C514 C513 1.387 . S
C514 C517 1.387 . S
H515 C511 0.950 . S
H516 C513 0.950 1_455 S
C517 C508 1.390 . S
C517 H510 0.950 . S
C517 C514 1.387 . S
C518 C519 1.387 . S
C518 H522 0.950 . S
C518 C527 1.390 . S
C519 C518 1.387 . S
C519 C521 1.387 . S
H520 C527 0.950 . S
C521 C519 1.387 . S
C521 C523 1.390 . S
C521 H525 0.950 . S
H522 C518 0.950 . S
C523 C521 1.390 . S
C523 C524 1.387 . S
C523 H526 0.950 . S
C524 C523 1.387 . S
C524 C527 1.387 . S
H525 C521 0.950 . S
H526 C523 0.950 . S
C527 C518 1.390 . S
C527 H520 0.950 . S
C527 C524 1.387 . S
C528 C529 1.387 . S
C528 H532 0.950 . S
C528 C537 1.390 . S
C529 C528 1.387 . S
C529 C531 1.387 . S
H530 C537 0.950 . S
C531 C529 1.387 . S
C531 C533 1.390 . S
C531 H535 0.950 . S
H532 C528 0.950 . S
C533 C531 1.390 . S
C533 C534 1.387 . S
C533 H536 0.950 . S
C534 C533 1.387 . S
C534 C537 1.387 . S
H535 C531 0.950 . S
H536 C533 0.950 . S
C537 C528 1.390 . S
C537 H530 0.950 . S
C537 C534 1.387 . S
C538 C539 1.387 1_545 S
C538 H542 0.950 1_545 S
C538 C547 1.390 . S
C539 C538 1.387 1_565 S
C539 C541 1.387 1_565 S
H540 C547 0.950 . S
C541 C539 1.387 1_545 S
C541 C543 1.390 . S
C541 H545 0.950 1_545 S
H542 C538 0.950 1_565 S
C543 C541 1.390 . S
C543 C544 1.387 . S
C543 H546 0.950 . S
C544 C543 1.387 . S
C544 C547 1.387 . S
H545 C541 0.950 1_565 S
H546 C543 0.950 . S
C547 C538 1.390 . S
C547 H540 0.950 . S
C547 C544 1.387 . S
C548 C549 1.387 . S
C548 H552 0.950 . S
C548 C557 1.390 1_655 S
C549 C548 1.387 . S
C549 C551 1.387 1_655 S
H550 C557 0.950 . S
C551 C549 1.387 1_455 S
C551 C553 1.390 . S
C551 H555 0.950 . S
H552 C548 0.950 . S
C553 C551 1.390 . S
C553 C554 1.387 . S
C553 H556 0.950 . S
C554 C553 1.387 . S
C554 C557 1.387 . S
H555 C551 0.950 . S
H556 C553 0.950 . S
C557 C548 1.390 1_455 S
C557 H550 0.950 . S
C557 C554 1.387 . S
C289 C36 1.249 . S
C294 C2 1.232 . S
C299 C93 1.249 . S
C304 C34 1.232 . S
C309 C70 1.232 . S
C314 C4 1.249 . S
C319 C66 1.232 . S
C324 C61 1.249 . S
C329 C68 1.249 . S
C334 C6 1.232 . S
C339 C29 1.249 . S
C344 C38 1.232 . S
C349 C98 1.232 . S
C354 C157 1.249 . S
C359 C164 1.249 . S
C364 C134 1.232 . S
C369 C162 1.235 1_655 S
C374 C100 1.251 1_545 S
C379 C132 1.251 . S
C384 C166 1.235 . S
C389 C189 1.251 . S
C394 C102 1.235 . S
C399 C130 1.232 . S
C404 C125 1.249 . S
C409 C253 1.251 . S
C414 C198 1.235 . S
C419 C230 1.235 . S
C424 C260 1.251 . S
C429 C258 1.232 . S
C434 C221 1.249 . S
C439 C262 1.235 . S
C444 C228 1.251 . S
C449 C285 1.249 1_455 S
C454 C194 1.232 1_565 S
C459 C196 1.249 . S
C464 C226 1.232 . S
C469 N173 1.805 . S
C474 N18 1.803 . S
C479 N109 1.805 . S
C484 N50 1.805 . S
C489 N77 1.803 . S
C494 N146 1.804 . S
C499 N82 1.803 . S
C504 N205 1.805 . S
C509 N13 1.804 . S
C514 N237 1.804 . S
C519 N274 1.804 . S
C524 N45 1.805 . S
C529 N114 1.804 . S
C534 N269 1.803 . S
C539 N141 1.805 . S
C544 N210 1.804 . S
C549 N242 1.804 . S
C554 N178 1.804 . S
