# Generated by pormake.
# Topology wjd, (6)-cn, num edge types: 1
# Building blocks:
#     Node 0, Type 0, BuildingBlock: VOLQOD_clean_sbu_1, # of connection points: 6
#     Node 1, Type 0, BuildingBlock: VOLQOD_clean_sbu_1, # of connection points: 6
#     Node 2, Type 0, BuildingBlock: VOLQOD_clean_sbu_1, # of connection points: 6
#     Node 3, Type 0, BuildingBlock: VOLQOD_clean_sbu_1, # of connection points: 6
#     Node 4, Type 0, BuildingBlock: VOLQOD_clean_sbu_1, # of connection points: 6
#     Node 5, Type 0, BuildingBlock: VOLQOD_clean_sbu_1, # of connection points: 6
#     Node 6, Type 0, BuildingBlock: VOLQOD_clean_sbu_1, # of connection points: 6
#     Node 7, Type 0, BuildingBlock: VOLQOD_clean_sbu_1, # of connection points: 6
#     Node 8, Type 0, BuildingBlock: VOLQOD_clean_sbu_1, # of connection points: 6
#     Node 9, Type 0, BuildingBlock: VOLQOD_clean_sbu_1, # of connection points: 6
#     Node 10, Type 0, BuildingBlock: VOLQOD_clean_sbu_1, # of connection points: 6
#     Node 11, Type 0, BuildingBlock: VOLQOD_clean_sbu_1, # of connection points: 6
#     Edge 12, Type (0, 0), BuildingBlock: XUDNAN_clean_linker_2, # of connection points: 2
#     Edge 13, Type (0, 0), BuildingBlock: XUDNAN_clean_linker_2, # of connection points: 2
#     Edge 14, Type (0, 0), BuildingBlock: XUDNAN_clean_linker_2, # of connection points: 2
#     Edge 15, Type (0, 0), BuildingBlock: XUDNAN_clean_linker_2, # of connection points: 2
#     Edge 16, Type (0, 0), BuildingBlock: XUDNAN_clean_linker_2, # of connection points: 2
#     Edge 17, Type (0, 0), BuildingBlock: XUDNAN_clean_linker_2, # of connection points: 2
#     Edge 18, Type (0, 0), BuildingBlock: XUDNAN_clean_linker_2, # of connection points: 2
#     Edge 19, Type (0, 0), BuildingBlock: XUDNAN_clean_linker_2, # of connection points: 2
#     Edge 20, Type (0, 0), BuildingBlock: XUDNAN_clean_linker_2, # of connection points: 2
#     Edge 21, Type (0, 0), BuildingBlock: XUDNAN_clean_linker_2, # of connection points: 2
#     Edge 22, Type (0, 0), BuildingBlock: XUDNAN_clean_linker_2, # of connection points: 2
#     Edge 23, Type (0, 0), BuildingBlock: XUDNAN_clean_linker_2, # of connection points: 2
#     Edge 24, Type (0, 0), BuildingBlock: XUDNAN_clean_linker_2, # of connection points: 2
#     Edge 25, Type (0, 0), BuildingBlock: XUDNAN_clean_linker_2, # of connection points: 2
#     Edge 26, Type (0, 0), BuildingBlock: XUDNAN_clean_linker_2, # of connection points: 2
#     Edge 27, Type (0, 0), BuildingBlock: XUDNAN_clean_linker_2, # of connection points: 2
#     Edge 28, Type (0, 0), BuildingBlock: XUDNAN_clean_linker_2, # of connection points: 2
#     Edge 29, Type (0, 0), BuildingBlock: XUDNAN_clean_linker_2, # of connection points: 2
#     Edge 30, Type (0, 0), BuildingBlock: XUDNAN_clean_linker_2, # of connection points: 2
#     Edge 31, Type (0, 0), BuildingBlock: XUDNAN_clean_linker_2, # of connection points: 2
#     Edge 32, Type (0, 0), BuildingBlock: XUDNAN_clean_linker_2, # of connection points: 2
#     Edge 33, Type (0, 0), BuildingBlock: XUDNAN_clean_linker_2, # of connection points: 2
#     Edge 34, Type (0, 0), BuildingBlock: XUDNAN_clean_linker_2, # of connection points: 2
#     Edge 35, Type (0, 0), BuildingBlock: XUDNAN_clean_linker_2, # of connection points: 2
#     Edge 36, Type (0, 0), BuildingBlock: XUDNAN_clean_linker_2, # of connection points: 2
#     Edge 37, Type (0, 0), BuildingBlock: XUDNAN_clean_linker_2, # of connection points: 2
#     Edge 38, Type (0, 0), BuildingBlock: XUDNAN_clean_linker_2, # of connection points: 2
#     Edge 39, Type (0, 0), BuildingBlock: XUDNAN_clean_linker_2, # of connection points: 2
#     Edge 40, Type (0, 0), BuildingBlock: XUDNAN_clean_linker_2, # of connection points: 2
#     Edge 41, Type (0, 0), BuildingBlock: XUDNAN_clean_linker_2, # of connection points: 2
#     Edge 42, Type (0, 0), BuildingBlock: XUDNAN_clean_linker_2, # of connection points: 2
#     Edge 43, Type (0, 0), BuildingBlock: XUDNAN_clean_linker_2, # of connection points: 2
#     Edge 44, Type (0, 0), BuildingBlock: XUDNAN_clean_linker_2, # of connection points: 2
#     Edge 45, Type (0, 0), BuildingBlock: XUDNAN_clean_linker_2, # of connection points: 2
#     Edge 46, Type (0, 0), BuildingBlock: XUDNAN_clean_linker_2, # of connection points: 2
#     Edge 47, Type (0, 0), BuildingBlock: XUDNAN_clean_linker_2, # of connection points: 2
# Relax obj value: 0.308
# Max RMSD: 0.232
# Mean RMSD: 0.231
data_MOF--net-wjd--node1-VOLQOD_clean_sbu_1--edge1-XUDNAN_clean_linker_2
_symmetry_space_group_name_H-M    P1
_symmetry_Int_Tables_number       1
_symmetry_cell_setting            triclinic
loop_
_symmetry_equiv_pos_as_xyz
'x, y, z'
_cell_length_a     31.157556
_cell_length_b     31.186924
_cell_length_c     65.728701
_cell_angle_alpha  90.010162
_cell_angle_beta   90.0579
_cell_angle_gamma 119.66537
loop_
_atom_site_label
_atom_site_type_symbol
_atom_site_fract_x
_atom_site_fract_y
_atom_site_fract_z
_atom_type_partial_charge
O0 O 0.38829 0.18786 0.10762 0.0
Zn1 Zn 0.33105 0.1204 0.10247 0.0
O2 O 0.31824 0.07688 0.12568 0.0
Zn3 Zn 0.31827 0.01735 0.11714 0.0
Zn4 Zn 0.36854 0.11246 0.14543 0.0
Zn5 Zn 0.25767 0.06184 0.13883 0.0
O6 O 0.25209 0.95635 0.12339 0.0
O7 O 0.20876 0.99135 0.1341 0.0
O8 O 0.34195 0.09217 0.07677 0.0
O9 O 0.3248 0.01714 0.0867 0.0
O10 O 0.38029 0.01856 0.12798 0.0
O11 O 0.41946 0.09283 0.1426 0.0
O12 O 0.34362 0.09782 0.17392 0.0
O13 O 0.27595 0.13575 0.09881 0.0
O14 O 0.26425 0.07259 0.16913 0.0
O15 O 0.23362 0.10484 0.12737 0.0
C16 C 0.40451 0.20959 0.12458 0.0
C17 C 0.21137 0.95339 0.12889 0.0
C18 C 0.41857 0.05368 0.13644 0.0
C19 C 0.33607 0.04957 0.0729 0.0
C20 C 0.3009 0.08471 0.18088 0.0
C21 C 0.24266 0.13078 0.11134 0.0
O22 O 0.39675 0.18538 0.14105 0.0
O23 O 0.79068 0.5872 0.35881 0.0
Zn24 Zn 0.77863 0.63947 0.34741 0.0
O25 O 0.74514 0.65698 0.36662 0.0
Zn26 Zn 0.67723 0.63287 0.35902 0.0
Zn27 Zn 0.75387 0.63527 0.39259 0.0
Zn28 Zn 0.77283 0.726 0.36692 0.0
O29 O 0.66226 0.68904 0.36417 0.0
O30 O 0.73147 0.74232 0.3491 0.0
O31 O 0.74133 0.62064 0.32151 0.0
O32 O 0.66903 0.61566 0.32864 0.0
O33 O 0.636 0.57211 0.37603 0.0
O34 O 0.69007 0.57515 0.39908 0.0
O35 O 0.76616 0.68647 0.41416 0.0
O36 O 0.84532 0.69656 0.34197 0.0
O37 O 0.76959 0.74768 0.39555 0.0
O38 O 0.84231 0.75863 0.3571 0.0
C39 C 0.80825 0.58741 0.37636 0.0
C40 C 0.68911 0.73116 0.35594 0.0
C41 C 0.64686 0.55414 0.3914 0.0
C42 C 0.69894 0.61309 0.31606 0.0
C43 C 0.76836 0.72836 0.4128 0.0
C44 C 0.86567 0.74172 0.34709 0.0
O45 O 0.80491 0.61249 0.39104 0.0
O46 O 0.79184 0.19491 0.10584 0.0
Zn47 Zn 0.8572 0.19921 0.103 0.0
O48 O 0.90385 0.24251 0.12289 0.0
Zn49 Zn 0.9571 0.29782 0.10875 0.0
Zn50 Zn 0.8685 0.26159 0.14134 0.0
Zn51 Zn 0.92915 0.20832 0.13854 0.0
O52 O 0.02318 0.30391 0.11532 0.0
O53 O -0.00319 0.22948 0.12898 0.0
O54 O 0.88112 0.21607 0.07431 0.0
O55 O 0.95148 0.28609 0.0786 0.0
O56 O 0.95149 0.35877 0.11335 0.0
O57 O 0.88481 0.32942 0.13321 0.0
O58 O 0.88931 0.26281 0.17064 0.0
O59 O 0.83995 0.13058 0.10907 0.0
O60 O 0.93649 0.22821 0.16783 0.0
O61 O 0.88414 0.13445 0.13627 0.0
C62 C 0.7703 0.19418 0.12236 0.0
C63 C 0.03104 0.26975 0.12163 0.0
C64 C 0.91851 0.36408 0.12268 0.0
C65 C 0.91996 0.25239 0.06711 0.0
C66 C 0.91794 0.24902 0.17845 0.0
C67 C 0.85054 0.10967 0.12322 0.0
O68 O 0.79484 0.21513 0.1384 0.0
O69 O 0.40287 0.19034 0.37768 0.0
Zn70 Zn 0.33617 0.13554 0.37147 0.0
O71 O 0.32535 0.0762 0.3846 0.0
Zn72 Zn 0.31963 0.02916 0.36375 0.0
Zn73 Zn 0.37941 0.09152 0.40273 0.0
Zn74 Zn 0.26632 0.05085 0.40066 0.0
O75 O 0.25195 0.96948 0.36421 0.0
O76 O 0.21345 -0.00521 0.38548 0.0
O77 O 0.32521 0.1276 0.34145 0.0
O78 O 0.32411 0.05692 0.33571 0.0
O79 O 0.37366 0.01205 0.36614 0.0
O80 O 0.41826 0.06307 0.39109 0.0
O81 O 0.35596 0.05763 0.42963 0.0
O82 O 0.29198 0.15843 0.38261 0.0
O83 O 0.27467 0.02546 0.42751 0.0
O84 O 0.24512 0.10156 0.40514 0.0
C85 C 0.43001 0.19938 0.39334 0.0
C86 C 0.2126 0.96449 0.37229 0.0
C87 C 0.41154 0.03095 0.37764 0.0
C88 C 0.32311 0.09491 0.32931 0.0
C89 C 0.3129 0.03151 0.437 0.0
C90 C 0.25883 0.14258 0.39623 0.0
O91 O 0.42311 0.16548 0.40596 0.0
O92 O 0.77457 0.59979 0.08724 0.0
Zn93 Zn 0.76684 0.65995 0.09024 0.0
O94 O 0.72577 0.65386 0.11342 0.0
Zn95 Zn 0.67061 0.66298 0.10641 0.0
Zn96 Zn 0.69871 0.58924 0.12381 0.0
Zn97 Zn 0.76482 0.69744 0.1348 0.0
O98 O 0.67778 0.72381 0.12049 0.0
O99 O 0.7507 0.75273 0.1358 0.0
O100 O 0.74008 0.6747 0.06462 0.0
O101 O 0.67451 0.6776 0.07643 0.0
O102 O 0.60457 0.60042 0.11201 0.0
O103 O 0.63279 0.54739 0.11201 0.0
O104 O 0.69023 0.58773 0.15417 0.0
O105 O 0.83732 0.71208 0.09577 0.0
O106 O 0.74591 0.66458 0.16221 0.0
O107 O 0.83708 0.72501 0.12908 0.0
C108 C 0.76813 0.5679 0.10077 0.0
C109 C 0.71394 0.75742 0.13049 0.0
C110 C 0.59738 0.55647 0.11092 0.0
C111 C 0.70309 0.68117 0.06185 0.0
C112 C 0.71349 0.62109 0.16742 0.0
C113 C 0.86016 0.73043 0.11242 0.0
O114 O 0.74227 0.56233 0.11655 0.0
O115 O 0.7808 0.15186 0.35603 0.0
Zn116 Zn 0.85023 0.1666 0.35739 0.0
O117 O 0.88358 0.20954 0.37982 0.0
Zn118 Zn 0.94389 0.26702 0.37124 0.0
Zn119 Zn 0.84134 0.22961 0.39227 0.0
Zn120 Zn 0.89456 0.17159 0.39967 0.0
O121 O 0.00187 0.26409 0.38379 0.0
O122 O 0.96482 0.18905 0.39777 0.0
O123 O 0.88271 0.19689 0.33113 0.0
O124 O 0.95012 0.26629 0.34036 0.0
O125 O 0.94107 0.3295 0.37832 0.0
O126 O 0.85948 0.29623 0.38189 0.0
O127 O 0.85309 0.23764 0.42257 0.0
O128 O 0.84143 0.09882 0.36152 0.0
O129 O 0.88779 0.19149 0.42783 0.0
O130 O 0.84849 0.09897 0.39514 0.0
C131 C 0.75319 0.15472 0.36952 0.0
C132 C 0.00376 0.22862 0.39269 0.0
C133 C 0.90228 0.33356 0.37951 0.0
C134 C 0.92217 0.23644 0.32668 0.0
C135 C 0.87231 0.21965 0.43451 0.0
C136 C 0.83375 0.07578 0.37833 0.0
O137 O 0.77088 0.18063 0.38557 0.0
O138 O 0.19745 0.43071 0.62171 0.0
Zn139 Zn 0.14531 0.36552 0.63097 0.0
O140 O 0.08287 0.34809 0.61878 0.0
Zn141 Zn 0.03665 0.3392 0.64063 0.0
Zn142 Zn 0.09163 0.40027 0.60068 0.0
Zn143 Zn 0.06103 0.28964 0.60237 0.0
O144 O 0.97333 0.27559 0.63665 0.0
O145 O -0.00308 0.23889 0.61352 0.0
O146 O 0.14266 0.36121 0.66114 0.0
O147 O 0.06429 0.33728 0.66814 0.0
O148 O 0.02392 0.39616 0.64149 0.0
O149 O 0.06552 0.43924 0.61433 0.0
O150 O 0.05362 0.37408 0.57472 0.0
O151 O 0.1685 0.3199 0.62223 0.0
O152 O 0.04325 0.29853 0.57381 0.0
O153 O 0.11021 0.26509 0.60201 0.0
C154 C 0.20155 0.45439 0.60542 0.0
C155 C 0.96517 0.23859 0.62576 0.0
C156 C 0.03887 0.43349 0.62989 0.0
C157 C 0.10758 0.34806 0.67377 0.0
C158 C 0.03857 0.33303 0.56568 0.0
C159 C 0.15192 0.28215 0.61087 0.0
O160 O 0.16411 0.44451 0.59438 0.0
O161 O 0.19953 0.79878 0.90081 0.0
Zn162 Zn 0.21743 0.86943 0.90565 0.0
O163 O 0.24998 0.90995 0.88178 0.0
Zn164 Zn 0.3171 0.96106 0.88843 0.0
Zn165 Zn 0.24928 0.86844 0.85999 0.0
Zn166 Zn 0.21326 0.94013 0.87216 0.0
O167 O 0.32648 0.03006 0.88453 0.0
O168 O 0.24817 0.01043 0.87926 0.0
O169 O 0.25869 0.89816 0.93114 0.0
O170 O 0.32824 0.95867 0.9182 0.0
O171 O 0.36718 0.9495 0.8732 0.0
O172 O 0.31717 0.88173 0.8556 0.0
O173 O 0.22995 0.88441 0.83309 0.0
O174 O 0.15038 0.86253 0.90964 0.0
O175 O 0.20611 0.93792 0.84186 0.0
O176 O 0.14628 0.90685 0.88411 0.0
C177 C 0.1921 0.77485 0.88424 0.0
C178 C 0.29314 0.04213 0.88246 0.0
C179 C 0.36015 0.91503 0.86085 0.0
C180 C 0.30265 0.93391 0.93338 0.0
C181 C 0.21443 0.91387 0.82834 0.0
C182 C 0.12637 0.87764 0.89901 0.0
O183 O 0.2064 0.79679 0.86716 0.0
O184 O 0.61776 0.82876 0.62703 0.0
Zn185 Zn 0.6679 0.80703 0.62853 0.0
O186 O 0.66473 0.77017 0.60457 0.0
Zn187 Zn 0.64678 0.70309 0.61165 0.0
Zn188 Zn 0.62427 0.77722 0.58408 0.0
Zn189 Zn 0.72804 0.79928 0.59298 0.0
O190 O 0.70065 0.68784 0.60308 0.0
O191 O 0.7629 0.76548 0.60318 0.0
O192 O 0.6591 0.76856 0.65397 0.0
O193 O 0.6442 0.69528 0.64248 0.0
O194 O 0.57964 0.65804 0.59904 0.0
O195 O 0.56605 0.7107 0.58083 0.0
O196 O 0.65696 0.7959 0.55606 0.0
O197 O 0.73111 0.87102 0.62962 0.0
O198 O 0.72465 0.79205 0.56286 0.0
O199 O 0.7626 0.87077 0.59934 0.0
C200 C 0.59711 0.83713 0.61203 0.0
C201 C 0.74671 0.71921 0.60368 0.0
C202 C 0.55273 0.6673 0.58712 0.0
C203 C 0.65015 0.72465 0.65709 0.0
C204 C 0.69554 0.7951 0.55016 0.0
C205 C 0.76131 0.89324 0.61525 0.0
O206 O 0.59931 0.82279 0.59404 0.0
O207 O 0.19982 0.39446 0.90233 0.0
Zn208 Zn 0.13426 0.33131 0.90166 0.0
O209 O 0.09878 0.32585 0.87635 0.0
Zn210 Zn 0.03487 0.31895 0.88171 0.0
Zn211 Zn 0.13575 0.38363 0.86046 0.0
Zn212 Zn 0.09305 0.27193 0.86032 0.0
O213 O 0.98117 0.2587 0.86723 0.0
O214 O 0.02251 0.2195 0.85948 0.0
O215 O 0.09091 0.32075 0.92639 0.0
O216 O 0.02063 0.30448 0.91115 0.0
O217 O 0.03506 0.38378 0.87684 0.0
O218 O 0.111 0.43016 0.86467 0.0
O219 O 0.13243 0.36941 0.83066 0.0
O220 O 0.15755 0.28148 0.90215 0.0
O221 O 0.11301 0.29075 0.83131 0.0
O222 O 0.13601 0.24703 0.87157 0.0
C223 C 0.22542 0.41771 0.88685 0.0
C224 C 0.98217 0.22037 0.86099 0.0
C225 C 0.07004 0.42524 0.87065 0.0
C226 C 0.04509 0.30766 0.92713 0.0
C227 C 0.12531 0.33041 0.82164 0.0
C228 C 0.1586 0.25327 0.8884 0.0
O229 O 0.20544 0.4141 0.86955 0.0
O230 O 0.16564 0.80461 0.65404 0.0
Zn231 Zn 0.16716 0.86772 0.64774 0.0
O232 O 0.2167 0.90397 0.62752 0.0
Zn233 Zn 0.27138 0.96154 0.64001 0.0
Zn234 Zn 0.23689 0.86162 0.61491 0.0
Zn235 Zn 0.18532 0.92065 0.60663 0.0
O236 O 0.27259 0.02293 0.62836 0.0
O237 O 0.20269 0.9899 0.61034 0.0
O238 O 0.17959 0.90593 0.67335 0.0
O239 O 0.25943 0.96167 0.67053 0.0
O240 O 0.33571 0.95995 0.6355 0.0
O241 O 0.30614 0.88446 0.62243 0.0
O242 O 0.23946 0.86619 0.58421 0.0
O243 O 0.0985 0.8441 0.63741 0.0
O244 O 0.20942 0.91651 0.57938 0.0
O245 O 0.11265 0.87428 0.60609 0.0
C246 C 0.16953 0.77635 0.64115 0.0
C247 C 0.24023 0.02722 0.61791 0.0
C248 C 0.34188 0.92471 0.62901 0.0
C249 C 0.2196 0.94006 0.68085 0.0
C250 C 0.22873 0.89198 0.57251 0.0
C251 C 0.08314 0.84675 0.61979 0.0
O252 O 0.19231 0.79255 0.62434 0.0
O253 O 0.59668 0.78367 0.87224 0.0
Zn254 Zn 0.65876 0.78307 0.8785 0.0
O255 O 0.66744 0.73835 0.86062 0.0
Zn256 Zn 0.67361 0.68995 0.87737 0.0
Zn257 Zn 0.61176 0.70722 0.8426 0.0
Zn258 Zn 0.72475 0.77402 0.84365 0.0
O259 O 0.73994 0.69428 0.87362 0.0
O260 O 0.77692 0.76262 0.85497 0.0
O261 O 0.66088 0.76916 0.90838 0.0
O262 O 0.67378 0.70543 0.90699 0.0
O263 O 0.61381 0.62223 0.87404 0.0
O264 O 0.56892 0.63885 0.85239 0.0
O265 O 0.63083 0.70526 0.81367 0.0
O266 O 0.70971 0.85235 0.87238 0.0
O267 O 0.71259 0.75084 0.81428 0.0
O268 O 0.74926 0.84736 0.84511 0.0
C269 C 0.56986 0.77064 0.85636 0.0
C270 C 0.77874 0.72976 0.86582 0.0
C271 C 0.5739 0.60925 0.86422 0.0
C272 C 0.66804 0.73688 0.91718 0.0
C273 C 0.6724 0.72396 0.80475 0.0
C274 C 0.74075 0.87268 0.85807 0.0
O275 O 0.57357 0.74335 0.84289 0.0
H276 H 0.07605 0.23946 0.14799 0.0
H277 H 0.09098 0.30361 0.08822 0.0
H278 H 0.1559 0.28263 0.07969 0.0
H279 H 0.20952 0.26853 0.15417 0.0
H280 H 0.18861 0.21021 0.16678 0.0
H281 H 0.15466 0.24276 0.16967 0.0
H282 H 0.07556 0.16452 0.15742 0.0
H283 H 0.10931 0.13233 0.1537 0.0
H284 H 0.0753 0.13868 0.13284 0.0
H285 H 0.20615 0.239 0.07569 0.0
H286 H 0.24289 0.18443 0.07784 0.0
H287 H 0.18947 0.14669 0.13986 0.0
C288 C 0.09484 0.25125 0.13349 0.0
C289 C 0.0793 0.27339 0.11881 0.0
C290 C 0.10346 0.28749 0.09978 0.0
C291 C 0.14 0.27536 0.09478 0.0
C292 C 0.15199 0.25002 0.10916 0.0
C293 C 0.13085 0.23926 0.12834 0.0
C294 C 0.1445 0.20635 0.14017 0.0
C295 C 0.17623 0.23361 0.1588 0.0
C296 C 0.09843 0.15762 0.14637 0.0
C297 C 0.17435 0.19788 0.12432 0.0
C298 C 0.17928 0.22392 0.10666 0.0
C299 C 0.20327 0.2192 0.0896 0.0
C300 C 0.22352 0.18778 0.09087 0.0
C301 C 0.21863 0.16098 0.10895 0.0
C302 C 0.19359 0.16627 0.12575 0.0
H303 H 0.12447 0.95974 0.37855 0.0
H304 H 0.19183 0.88358 0.34859 0.0
H305 H 0.10991 0.82219 0.33494 0.0
H306 H 0.01587 0.85554 0.39392 0.0
H307 H 0.97755 0.88299 0.38965 0.0
H308 H 0.0418 0.92148 0.39573 0.0
H309 H 0.05341 0.9722 0.36287 0.0
H310 H 0.98919 0.93323 0.35651 0.0
H311 H 0.03637 0.94114 0.33862 0.0
H312 H 0.01953 0.7664 0.32692 0.0
H313 H 0.92839 0.71871 0.32659 0.0
H314 H 0.92357 0.83551 0.36074 0.0
C315 C 0.12226 0.93018 0.36915 0.0
C316 C 0.16433 0.92609 0.36474 0.0
C317 C 0.15984 0.88716 0.35219 0.0
C318 C 0.11366 0.85245 0.34428 0.0
C319 C 0.07297 0.858 0.34883 0.0
C320 C 0.07703 0.89598 0.36097 0.0
C321 C 0.02783 0.89298 0.36446 0.0
C322 C 0.01502 0.88791 0.38729 0.0
C323 C 0.02666 0.93754 0.35505 0.0
C324 C -0.00511 0.84623 0.35296 0.0
C325 C 0.02149 0.82679 0.34382 0.0
C326 C -0.00165 0.7816 0.33374 0.0
C327 C 0.94662 0.75484 0.33364 0.0
C328 C 0.91896 0.77348 0.34365 0.0
C329 C 0.94359 0.82049 0.35276 0.0
H330 H 0.87123 0.04516 0.14373 0.0
H331 H 0.75815 0.05303 0.10789 0.0
H332 H 0.70416 0.96346 0.11133 0.0
H333 H 0.85657 0.93797 0.12141 0.0
H334 H 0.86722 0.9127 0.14428 0.0
H335 H 0.8939 0.97834 0.14163 0.0
H336 H 0.8518 0.98099 0.17528 0.0
H337 H 0.82442 0.91503 0.17784 0.0
H338 H 0.78581 0.94303 0.17794 0.0
H339 H 0.66594 0.8732 0.11533 0.0
H340 H 0.64978 0.78751 0.11686 0.0
H341 H 0.78697 0.8374 0.15017 0.0
C342 C 0.83482 0.02803 0.13691 0.0
C343 C 0.81898 0.05594 0.12552 0.0
C344 C 0.77132 0.03226 0.11653 0.0
C345 C 0.74004 0.98147 0.11861 0.0
C346 C 0.75682 0.95485 0.12978 0.0
C347 C 0.80317 0.97714 0.13868 0.0
C348 C 0.81426 0.93926 0.14788 0.0
C349 C 0.8607 0.94224 0.13821 0.0
C350 C 0.81936 0.94493 0.17112 0.0
C351 C 0.76786 0.89229 0.14193 0.0
C352 C 0.73467 0.90212 0.13195 0.0
C353 C 0.69116 0.86483 0.12342 0.0
C354 C 0.68228 0.81625 0.12438 0.0
C355 C 0.71713 0.80575 0.13359 0.0
C356 C 0.75936 0.84411 0.14317 0.0
H357 H 0.16993 0.11015 0.41501 0.0
H358 H 0.2901 0.23849 0.3861 0.0
H359 H 0.24151 0.28113 0.3875 0.0
H360 H 0.07913 0.10926 0.3876 0.0
H361 H 0.03358 0.09018 0.40751 0.0
H362 H 0.08149 0.07422 0.40897 0.0
H363 H 0.10819 0.11637 0.44429 0.0
H364 H 0.0598 0.13208 0.44307 0.0
H365 H 0.12284 0.17966 0.44723 0.0
H366 H 0.17509 0.3032 0.38584 0.0
H367 H 0.09624 0.30331 0.38208 0.0
H368 H 0.01988 0.16078 0.41214 0.0
C369 C 0.18674 0.14792 0.40972 0.0
C370 C 0.23366 0.17101 0.40048 0.0
C371 C 0.25405 0.22005 0.39323 0.0
C372 C 0.2269 0.24474 0.39407 0.0
C373 C 0.1797 0.22006 0.40239 0.0
C374 C 0.16 0.17294 0.41034 0.0
C375 C 0.10625 0.15199 0.41588 0.0
C376 C 0.07322 0.1036 0.40429 0.0
C377 C 0.09886 0.14461 0.43899 0.0
C378 C 0.09812 0.19342 0.40867 0.0
C379 C 0.14108 0.23284 0.40136 0.0
C380 C 0.1414 0.27313 0.39199 0.0
C381 C 0.09644 0.27276 0.38982 0.0
C382 C 0.05192 0.23207 0.39679 0.0
C383 C 0.05327 0.19265 0.40676 0.0
H384 H 0.12839 0.92428 0.15128 0.0
H385 H 0.18797 0.87895 0.10141 0.0
H386 H 0.10374 0.81186 0.09302 0.0
H387 H 0.02678 0.79722 0.16525 0.0
H388 H 0.9856 0.82048 0.17121 0.0
H389 H 0.05114 0.85887 0.17514 0.0
H390 H 0.05005 0.92644 0.15256 0.0
H391 H 0.98492 0.88796 0.14812 0.0
H392 H 0.02685 0.91149 0.12689 0.0
H393 H 0.01207 0.76029 0.0865 0.0
H394 H 0.92097 0.72008 0.08527 0.0
H395 H 0.9223 0.79803 0.14017 0.0
C396 C 0.12389 0.89913 0.13903 0.0
C397 C 0.16451 0.9065 0.12702 0.0
C398 C 0.15733 0.87335 0.11097 0.0
C399 C 0.10962 0.83543 0.10603 0.0
C400 C 0.06995 0.8308 0.11756 0.0
C401 C 0.0768 0.86099 0.13407 0.0
C402 C 0.02809 0.85072 0.14323 0.0
C403 C 0.02258 0.83061 0.16499 0.0
C404 C 0.02217 0.8969 0.14265 0.0
C405 C -0.0074 0.81143 0.12879 0.0
C406 C 0.01734 0.80033 0.1141 0.0
C407 C -0.00769 0.7679 0.09819 0.0
C408 C 0.94065 0.74567 0.0975 0.0
C409 C 0.91465 0.75585 0.11268 0.0
C410 C 0.94114 0.78908 0.12851 0.0
H411 H 0.71062 0.80794 0.33115 0.0
H412 H 0.65667 0.75073 0.39139 0.0
H413 H 0.68013 0.83468 0.4032 0.0
H414 H 0.81372 0.90355 0.3452 0.0
H415 H 0.81721 0.94801 0.3268 0.0
H416 H 0.78281 0.88335 0.32099 0.0
H417 H 0.70359 0.88841 0.31419 0.0
H418 H 0.73817 0.95385 0.31907 0.0
H419 H 0.68227 0.91554 0.33304 0.0
H420 H 0.7299 0.92557 0.41041 0.0
H421 H 0.78727 0.01555 0.41094 0.0
H422 H 0.80855 0.01318 0.34579 0.0
C423 C 0.70089 0.81279 0.34646 0.0
C424 C 0.6814 0.77308 0.36031 0.0
C425 C 0.67047 0.78056 0.38043 0.0
C426 C 0.68427 0.8283 0.38732 0.0
C427 C 0.70784 0.86756 0.37373 0.0
C428 C 0.71441 0.86006 0.35349 0.0
C429 C 0.74598 0.90843 0.34256 0.0
C430 C 0.79266 0.91092 0.33337 0.0
C431 C 0.71569 0.91707 0.32625 0.0
C432 C 0.75879 0.94413 0.36006 0.0
C433 C 0.73618 0.92005 0.37788 0.0
C434 C 0.74656 0.94497 0.39642 0.0
C435 C 0.77977 -0.00403 0.39661 0.0
C436 C 0.8023 0.02145 0.37838 0.0
C437 C 0.79154 -0.00509 0.35994 0.0
H438 H 0.17911 0.04711 0.59533 0.0
H439 H 0.30921 0.11706 0.63397 0.0
H440 H 0.3081 0.19571 0.63155 0.0
H441 H 0.20688 0.15672 0.56331 0.0
H442 H 0.1426 0.13995 0.56268 0.0
H443 H 0.15972 0.09263 0.56413 0.0
H444 H 0.10616 0.05759 0.59656 0.0
H445 H 0.08915 0.10475 0.5953 0.0
H446 H 0.11735 0.09769 0.61807 0.0
H447 H 0.28557 0.26218 0.62891 0.0
H448 H 0.24273 0.31048 0.62739 0.0
H449 H 0.12586 0.19512 0.59122 0.0
C450 C 0.20823 0.07914 0.60293 0.0
C451 C 0.24431 0.07597 0.61485 0.0
C452 C 0.28135 0.11873 0.62468 0.0
C453 C 0.28111 0.16354 0.62331 0.0
C454 C 0.24391 0.1648 0.61192 0.0
C455 C 0.20831 0.12368 0.60182 0.0
C456 C 0.16885 0.13253 0.59266 0.0
C457 C 0.16959 0.13034 0.56931 0.0
C458 C 0.11738 0.096 0.60117 0.0
C459 C 0.18639 0.18441 0.60002 0.0
C460 C 0.23034 0.20282 0.61069 0.0
C461 C 0.25163 0.2485 0.62032 0.0
C462 C 0.22679 0.27551 0.61943 0.0
C463 C 0.18075 0.25642 0.60921 0.0
C464 C 0.16113 0.21088 0.59896 0.0
H465 H 0.06517 0.90177 0.87899 0.0
H466 H 0.06537 0.79812 0.92304 0.0
H467 H 0.97467 0.74697 0.91951 0.0
H468 H 0.9442 0.88855 0.89219 0.0
H469 H 0.93119 0.89354 0.86584 0.0
H470 H -0.00601 0.92499 0.87489 0.0
H471 H 0.01687 0.88118 0.84686 0.0
H472 H 0.95386 0.84818 0.83822 0.0
H473 H 0.98465 0.8147 0.84579 0.0
H474 H 0.88401 0.70336 0.90828 0.0
H475 H 0.80181 0.67629 0.89291 0.0
H476 H 0.867 0.80632 0.85428 0.0
C477 C 0.04619 0.86912 0.8884 0.0
C478 C 0.07234 0.85396 0.90127 0.0
C479 C 0.04598 0.8107 0.91317 0.0
C480 C -0.00546 0.7812 0.91115 0.0
C481 C 0.97042 0.7957 0.89722 0.0
C482 C -0.00453 0.83911 0.88631 0.0
C483 C 0.96245 0.84513 0.87121 0.0
C484 C 0.95765 0.89073 0.87635 0.0
C485 C 0.98056 0.84741 0.84923 0.0
C486 C 0.91493 0.79794 0.87505 0.0
C487 C 0.91973 0.76992 0.89019 0.0
C488 C 0.87985 0.72512 0.89643 0.0
C489 C 0.83347 0.70976 0.88747 0.0
C490 C 0.82792 0.73905 0.87234 0.0
C491 C 0.86973 0.78277 0.86572 0.0
H492 H 0.81032 0.95773 0.64628 0.0
H493 H 0.76458 0.94868 0.58334 0.0
H494 H 0.79512 0.03812 0.58305 0.0
H495 H 0.78961 0.06058 0.66245 0.0
H496 H 0.84514 0.08935 0.67759 0.0
H497 H 0.81178 0.02324 0.67443 0.0
H498 H 0.89069 0.0251 0.66057 0.0
H499 H 0.92426 0.09072 0.66433 0.0
H500 H 0.92338 0.06532 0.63959 0.0
H501 H 0.83518 0.12654 0.58806 0.0
H502 H 0.90042 0.21168 0.59521 0.0
H503 H 0.92555 0.16661 0.65424 0.0
C504 C 0.80671 0.97488 0.63254 0.0
C505 C 0.78543 0.94694 0.61483 0.0
C506 C 0.78152 0.97 0.59697 0.0
C507 C 0.79773 0.02045 0.5968 0.0
C508 C 0.81807 0.04715 0.61456 0.0
C509 C 0.82393 0.02559 0.63195 0.0
C510 C 0.85441 0.06402 0.64774 0.0
C511 C 0.82336 0.05898 0.66668 0.0
C512 C 0.90094 0.06113 0.65337 0.0
C513 C 0.86691 0.1106 0.63605 0.0
C514 C 0.84351 0.09971 0.61731 0.0
C515 C 0.85296 0.13582 0.60282 0.0
C516 C 0.88974 0.18398 0.60701 0.0
C517 C 0.91656 0.19504 0.6254 0.0
C518 C 0.90378 0.15876 0.64047 0.0
H519 H 0.18392 0.20759 0.8594 0.0
H520 H 0.20744 0.25078 0.92299 0.0
H521 H 0.26375 0.21648 0.92627 0.0
H522 H 0.17591 0.09476 0.86523 0.0
H523 H 0.20663 0.09744 0.84164 0.0
H524 H 0.17451 0.1315 0.84433 0.0
H525 H 0.25496 0.21159 0.83445 0.0
H526 H 0.28765 0.17757 0.83238 0.0
H527 H 0.31055 0.23036 0.849 0.0
H528 H 0.30794 0.16736 0.92355 0.0
H529 H 0.3266 0.10047 0.9161 0.0
H530 H 0.27717 0.0938 0.85412 0.0
C531 C 0.20113 0.21029 0.87402 0.0
C532 C 0.19104 0.2316 0.89097 0.0
C533 C 0.2145 0.23443 0.90979 0.0
C534 C 0.24699 0.21559 0.91173 0.0
C535 C 0.25628 0.195 0.89461 0.0
C536 C 0.23383 0.19228 0.87613 0.0
C537 C 0.2455 0.16405 0.86054 0.0
C538 C 0.19784 0.1193 0.85249 0.0
C539 C 0.27652 0.19794 0.84306 0.0
C540 C 0.27565 0.14858 0.87343 0.0
C541 C 0.28279 0.16787 0.89291 0.0
C542 C 0.3039 0.1532 0.90822 0.0
C543 C 0.31498 0.11565 0.90384 0.0
C544 C 0.30432 0.09329 0.88442 0.0
C545 C 0.28721 0.11189 0.86883 0.0
H546 H 0.00371 0.80749 0.64537 0.0
H547 H 0.04547 0.8108 0.58223 0.0
H548 H 0.95854 0.75381 0.57325 0.0
H549 H 0.89584 0.67672 0.64577 0.0
H550 H 0.86005 0.69442 0.66165 0.0
H551 H 0.92638 0.72558 0.66416 0.0
H552 H 0.93135 0.81016 0.65796 0.0
H553 H 0.86534 0.77925 0.65611 0.0
H554 H 0.90258 0.81827 0.63558 0.0
H555 H 0.86823 0.70854 0.56998 0.0
H556 H 0.78262 0.69297 0.57164 0.0
H557 H 0.79769 0.71945 0.63647 0.0
C558 C -0.00548 0.79527 0.62975 0.0
C559 C 0.03107 0.81331 0.61451 0.0
C560 C 0.01782 0.79757 0.59413 0.0
C561 C 0.9687 0.76451 0.58895 0.0
C562 C 0.93328 0.74753 0.6043 0.0
C563 C 0.94551 0.76291 0.62427 0.0
C564 C 0.89988 0.74659 0.63717 0.0
C565 C 0.89528 0.70856 0.65313 0.0
C566 C 0.89978 0.79121 0.64726 0.0
C567 C 0.86018 0.72284 0.62103 0.0
C568 C 0.88009 0.72164 0.60235 0.0
C569 C 0.85186 0.7078 0.58458 0.0
C570 C 0.8031 0.69848 0.58565 0.0
C571 C 0.78376 0.70371 0.60429 0.0
C572 C 0.81146 0.71317 0.6223 0.0
H573 H 0.97152 0.13802 0.84194 0.0
H574 H 0.88813 0.19749 0.87191 0.0
H575 H 0.81339 0.11517 0.87057 0.0
H576 H 0.86816 0.04557 0.80929 0.0
H577 H 0.88883 0.00123 0.81237 0.0
H578 H 0.93302 0.06632 0.81243 0.0
H579 H 0.96569 0.05676 0.84744 0.0
H580 H 0.92132 -0.00802 0.84766 0.0
H581 H 0.92327 0.03064 0.86843 0.0
H582 H 0.75279 0.02494 0.87138 0.0
H583 H 0.70844 0.93396 0.87205 0.0
H584 H 0.83096 0.93352 0.8409 0.0
C585 C 0.93725 0.13414 0.84773 0.0
C586 C 0.9356 0.17414 0.85705 0.0
C587 C 0.89014 0.16745 0.86456 0.0
C588 C 0.84754 0.12083 0.86388 0.0
C589 C 0.85102 0.08171 0.85535 0.0
C590 C 0.89454 0.08808 0.84709 0.0
C591 C 0.88985 0.03945 0.84045 0.0
C592 C 0.89527 0.03807 0.81725 0.0
C593 C 0.92723 0.02913 0.85167 0.0
C594 C 0.83752 0.00438 0.84711 0.0
C595 C 0.81562 0.02953 0.85549 0.0
C596 C 0.7691 0.0049 0.86444 0.0
C597 C 0.74442 0.95327 0.8649 0.0
C598 C 0.76629 0.92686 0.85643 0.0
C599 C 0.81307 0.95281 0.84714 0.0
H600 H 0.35942 0.06651 0.29742 0.0
H601 H 0.26889 0.13212 0.31227 0.0
H602 H 0.25013 0.1332 0.27577 0.0
H603 H 0.41245 0.13932 0.25198 0.0
H604 H 0.41422 0.08989 0.23849 0.0
H605 H 0.419 0.09297 0.26582 0.0
H606 H 0.3445 0.00415 0.26821 0.0
H607 H 0.33916 0.001 0.2409 0.0
H608 H 0.28682 0.99 0.25629 0.0
H609 H 0.23732 0.12228 0.23795 0.0
H610 H 0.24171 0.11227 0.20077 0.0
H611 H 0.34664 0.06108 0.21055 0.0
C612 C 0.33578 0.0812 0.29292 0.0
C613 C 0.31533 0.09901 0.30752 0.0
C614 C 0.28504 0.11855 0.3012 0.0
C615 C 0.27391 0.11897 0.28057 0.0
C616 C 0.2942 0.10059 0.26653 0.0
C617 C 0.32534 0.08306 0.27238 0.0
C618 C 0.34433 0.06781 0.25418 0.0
C619 C 0.40085 0.09939 0.25252 0.0
C620 C 0.32769 0.01245 0.25495 0.0
C621 C 0.31872 0.07918 0.2372 0.0
C622 C 0.28924 0.09718 0.24466 0.0
C623 C 0.26065 0.1087 0.23189 0.0
C624 C 0.26311 0.10263 0.21087 0.0
C625 C 0.29471 0.08624 0.20296 0.0
C626 C 0.32254 0.0741 0.21629 0.0
H627 H 0.76126 0.66597 0.2861 0.0
H628 H 0.61229 0.54693 0.29685 0.0
H629 H 0.59912 0.53447 0.25944 0.0
H630 H 0.73105 0.71567 0.24189 0.0
H631 H 0.78912 0.733 0.22965 0.0
H632 H 0.7853 0.73182 0.25699 0.0
H633 H 0.82096 0.67232 0.25822 0.0
H634 H 0.82438 0.67285 0.23088 0.0
H635 H 0.79055 0.61509 0.24424 0.0
H636 H 0.60605 0.53243 0.22055 0.0
H637 H 0.62804 0.5469 0.18401 0.0
H638 H 0.77101 0.67082 0.19996 0.0
C639 C 0.72575 0.63735 0.28057 0.0
C640 C 0.68786 0.60697 0.29416 0.0
C641 C 0.64164 0.57048 0.28652 0.0
C642 C 0.63405 0.5631 0.26538 0.0
C643 C 0.67279 0.59329 0.25234 0.0
C644 C 0.71737 0.6303 0.25972 0.0
C645 C 0.7529 0.65873 0.2428 0.0
C646 C 0.76529 0.71301 0.24284 0.0
C647 C 0.79996 0.65445 0.24412 0.0
C648 C 0.72191 0.63138 0.22459 0.0
C649 C 0.67594 0.59351 0.2303 0.0
C650 C 0.64174 0.5623 0.21595 0.0
C651 C 0.65468 0.5706 0.19526 0.0
C652 C 0.70116 0.61012 0.18919 0.0
C653 C 0.73506 0.64058 0.20412 0.0
H654 H 0.85514 0.23446 0.2099 0.0
H655 H 0.00754 0.27928 0.19595 0.0
H656 H 0.02745 0.28833 0.23273 0.0
H657 H 0.8769 0.31083 0.25545 0.0
H658 H 0.82438 0.26288 0.26866 0.0
H659 H 0.82379 0.26639 0.2413 0.0
H660 H 0.80562 0.17596 0.23877 0.0
H661 H 0.80623 0.1722 0.26607 0.0
H662 H 0.84653 0.15868 0.2511 0.0
H663 H 0.03001 0.29075 0.27124 0.0
H664 H 0.01284 0.27706 0.30826 0.0
H665 H 0.85741 0.2227 0.29648 0.0
C666 C 0.89286 0.24718 0.21465 0.0
C667 C 0.93007 0.25699 0.20025 0.0
C668 C 0.97872 0.27198 0.20689 0.0
C669 C -0.00963 0.27742 0.22768 0.0
C670 C 0.9527 0.26687 0.24159 0.0
C671 C 0.90479 0.25146 0.23534 0.0
C672 C 0.8701 0.23751 0.25329 0.0
C673 C 0.84747 0.27144 0.25476 0.0
C674 C 0.82976 0.18285 0.25224 0.0
C675 C 0.90581 0.24689 0.27057 0.0
C676 C 0.9535 0.26493 0.2636 0.0
C677 C -0.00721 0.27655 0.27687 0.0
C678 C 0.98282 0.2688 0.29781 0.0
C679 C 0.93386 0.24846 0.30503 0.0
C680 C 0.89513 0.23784 0.29124 0.0
H681 H 0.07267 0.37333 0.70714 0.0
H682 H 0.16431 0.31158 0.68849 0.0
H683 H 0.1794 0.30062 0.72455 0.0
H684 H 0.15041 0.44257 0.74973 0.0
H685 H 0.09916 0.43304 0.76551 0.0
H686 H 0.09439 0.43469 0.73824 0.0
H687 H 0.01549 0.3486 0.73889 0.0
H688 H 0.02001 0.34669 0.76616 0.0
H689 H 0.01762 0.29763 0.75082 0.0
H690 H 0.1794 0.29092 0.76231 0.0
H691 H 0.17214 0.29183 0.79982 0.0
H692 H 0.08827 0.36813 0.79389 0.0
C693 C 0.0958 0.35745 0.71074 0.0
C694 C 0.11709 0.34287 0.69523 0.0
C695 C 0.14781 0.32295 0.7003 0.0
C696 C 0.15644 0.31647 0.72067 0.0
C697 C 0.13491 0.33117 0.73567 0.0
C698 C 0.10594 0.35202 0.73099 0.0
C699 C 0.08882 0.3664 0.75002 0.0
C700 C 0.10945 0.42251 0.75092 0.0
C701 C 0.03213 0.33813 0.75156 0.0
C702 C 0.11207 0.34965 0.7661 0.0
C703 C 0.13794 0.32882 0.7575 0.0
C704 C 0.15999 0.30786 0.76927 0.0
C705 C 0.1556 0.3084 0.79046 0.0
C706 C 0.13037 0.33071 0.7995 0.0
C707 C 0.10863 0.35182 0.78721 0.0
H708 H 0.26607 0.90652 0.79634 0.0
H709 H 0.15308 0.94379 0.81174 0.0
H710 H 0.14736 0.96225 0.77554 0.0
H711 H 0.32717 0.00297 0.75833 0.0
H712 H 0.34138 0.96514 0.74206 0.0
H713 H 0.33693 0.95538 0.76918 0.0
H714 H 0.271 0.86353 0.76386 0.0
H715 H 0.27574 0.87285 0.73677 0.0
H716 H 0.21653 0.84836 0.74907 0.0
H717 H 0.14895 0.96925 0.73746 0.0
H718 H 0.15945 0.96651 0.70022 0.0
H719 H 0.2768 0.93251 0.71015 0.0
C720 C 0.23995 0.91832 0.79206 0.0
C721 C 0.20957 0.92322 0.80672 0.0
C722 C 0.1765 0.93964 0.80067 0.0
C723 C 0.17315 0.95036 0.7802 0.0
C724 C 0.20391 0.94548 0.76613 0.0
C725 C 0.23695 0.93023 0.77182 0.0
C726 C 0.2657 0.92776 0.75375 0.0
C727 C 0.32108 0.96504 0.75597 0.0
C728 C 0.25667 0.87499 0.75068 0.0
C729 C 0.24265 0.9426 0.73687 0.0
C730 C 0.20706 0.95268 0.74433 0.0
C731 C 0.17749 0.96263 0.73147 0.0
C732 C 0.18375 0.96116 0.71041 0.0
C733 C 0.21984 0.95077 0.70256 0.0
C734 C 0.25031 0.94242 0.71592 0.0
H735 H 0.59929 0.73055 0.68956 0.0
H736 H 0.70757 0.68886 0.67199 0.0
H737 H 0.72314 0.67997 0.70833 0.0
H738 H 0.65923 0.80112 0.73147 0.0
H739 H 0.60528 0.78078 0.74722 0.0
H740 H 0.59939 0.77934 0.71998 0.0
H741 H 0.53509 0.68604 0.72116 0.0
H742 H 0.54016 0.68731 0.7485 0.0
H743 H 0.55039 0.64421 0.73394 0.0
H744 H 0.73617 0.68957 0.74656 0.0
H745 H 0.73553 0.70278 0.78379 0.0
H746 H 0.6123 0.72905 0.77615 0.0
C747 C 0.62518 0.71816 0.69343 0.0
C748 C 0.65204 0.70997 0.67817 0.0
C749 C 0.68615 0.69444 0.6836 0.0
C750 C 0.69541 0.68966 0.70415 0.0
C751 C 0.66922 0.69929 0.71895 0.0
C752 C 0.63371 0.71176 0.71381 0.0
C753 C 0.61108 0.72074 0.73254 0.0
C754 C 0.61927 0.77363 0.73281 0.0
C755 C 0.55591 0.68227 0.73413 0.0
C756 C 0.64074 0.71336 0.74902 0.0
C757 C 0.67442 0.70143 0.74091 0.0
C758 C 0.70904 0.69754 0.75312 0.0
C759 C 0.70868 0.70541 0.77416 0.0
C760 C 0.67336 0.71605 0.78271 0.0
C761 C 0.63891 0.71977 0.76997 0.0
H762 H 0.25975 0.89413 0.97041 0.0
H763 H 0.38968 0.01625 0.94303 0.0
H764 H 0.41559 0.05587 0.97649 0.0
H765 H 0.23228 0.96208 0.0034 0.0
H766 H 0.2139 0.9201 0.02463 0.0
H767 H 0.20835 0.89704 -0.00088 0.0
H768 H 0.26207 0.85778 0.00854 0.0
H769 H 0.26717 0.88007 0.03424 0.0
H770 H 0.32211 0.89556 0.0198 0.0
H771 H 0.41954 0.08956 0.01105 0.0
H772 H 0.40763 0.10926 0.04633 0.0
H773 H 0.27957 0.96347 0.05241 0.0
C774 C 0.29439 0.92845 0.97154 0.0
C775 C 0.32245 0.95205 0.95402 0.0
C776 C 0.3674 -0.00274 0.95617 0.0
C777 C 0.38253 0.02022 0.97514 0.0
C778 C 0.35296 -0.0029 0.99193 0.0
C779 C 0.31051 0.95164 0.99048 0.0
C780 C 0.28428 0.9361 0.0108 0.0
C781 C 0.2316 0.9284 0.00939 0.0
C782 C 0.28391 0.88962 0.01882 0.0
C783 C 0.31748 0.9809 0.02358 0.0
C784 C 0.35684 0.01568 0.01237 0.0
C785 C 0.38972 0.06214 0.0202 0.0
C786 C 0.38248 0.07317 0.04012 0.0
C787 C 0.34316 0.03761 0.052 0.0
C788 C 0.31056 0.99081 0.04369 0.0
H789 H 0.78419 0.7109 0.45226 0.0
H790 H 0.73987 0.79826 0.41571 0.0
H791 H 0.71862 0.82769 0.44693 0.0
H792 H 0.69185 0.672 0.48881 0.0
H793 H 0.73047 0.67681 0.51011 0.0
H794 H 0.7457 0.66558 0.48501 0.0
H795 H 0.83275 0.74269 0.48796 0.0
H796 H 0.81798 0.75382 0.51322 0.0
H797 H 0.83846 0.80159 0.49421 0.0
H798 H 0.69188 0.8386 0.48221 0.0
H799 H 0.67294 0.83912 0.51885 0.0
H800 H 0.74091 0.74991 0.53205 0.0
C801 C 0.77091 0.73695 0.45083 0.0
C802 C 0.76338 0.75201 0.43152 0.0
C803 C 0.74596 0.7862 0.43032 0.0
C804 C 0.73364 0.80303 0.44798 0.0
C805 C 0.74002 0.78619 0.46676 0.0
C806 C 0.75938 0.75484 0.4683 0.0
C807 C 0.76214 0.74171 0.49023 0.0
C808 C 0.73066 0.68571 0.49373 0.0
C809 C 0.81604 0.76113 0.49679 0.0
C810 C 0.74006 0.76943 0.50076 0.0
C811 C 0.72716 0.79463 0.48701 0.0
C812 C 0.70279 0.81986 0.49316 0.0
C813 C 0.69191 0.81974 0.51393 0.0
C814 C 0.70609 0.79518 0.52825 0.0
C815 C 0.73055 0.7699 0.52149 0.0
H816 H 0.08311 0.33461 0.96591 0.0
H817 H 0.9462 0.24934 0.93239 0.0
H818 H 0.89975 0.22572 0.96452 0.0
H819 H 0.05157 0.25234 0.00896 0.0
H820 H 0.0803 0.30141 0.02738 0.0
H821 H 0.1035 0.31081 0.00172 0.0
H822 H 0.09219 0.38746 -0.00157 0.0
H823 H 0.06889 0.37823 0.02406 0.0
H824 H 0.03251 0.38135 0.00338 0.0
H825 H 0.86794 0.20978 -8e-05 0.0
H826 H 0.85229 0.20589 0.03687 0.0
H827 H 0.00876 0.30438 0.04757 0.0
C828 C 0.04342 0.31079 0.96538 0.0
C829 C 0.0183 0.29379 0.94667 0.0
C830 C 0.96624 0.26305 0.94655 0.0
C831 C 0.93947 0.24924 0.96471 0.0
C832 C 0.96519 0.2668 0.98287 0.0
C833 C 0.0159 0.29712 0.98341 0.0
C834 C 0.03406 0.31187 0.00504 0.0
C835 C 0.06944 0.29296 0.01113 0.0
C836 C 0.05833 0.36806 0.00789 0.0
C837 C 0.98563 0.28495 0.01648 0.0
C838 C 0.94647 0.25887 0.0034 0.0
C839 C 0.89822 0.23022 0.01036 0.0
C840 C 0.88972 0.22817 0.03134 0.0
C841 C 0.92922 0.25507 0.04503 0.0
C842 C 0.97774 0.28389 0.03744 0.0
H843 H 0.23459 -0.00306 0.463 0.0
H844 H 0.37778 0.00767 0.4548 0.0
H845 H 0.36635 0.96198 0.48691 0.0
H846 H 0.24712 0.01974 0.51556 0.0
H847 H 0.18291 0.97842 0.52116 0.0
H848 H 0.20053 0.00709 0.49657 0.0
H849 H 0.15543 0.92075 0.4795 0.0
H850 H 0.13825 0.89179 0.50414 0.0
H851 H 0.17173 0.87479 0.48659 0.0
H852 H 0.34048 0.91792 0.52065 0.0
H853 H 0.30748 0.88954 0.55531 0.0
H854 H 0.18321 0.91091 0.54149 0.0
C855 C 0.2633 0.9892 0.46784 0.0
C856 C 0.3069 0.00554 0.45641 0.0
C857 C 0.34409 -0.00445 0.46341 0.0
C858 C 0.33773 0.96921 0.48149 0.0
C859 C 0.29412 0.9534 0.49238 0.0
C860 C 0.25785 0.9636 0.48593 0.0
C861 C 0.21658 0.94677 0.50127 0.0
C862 C 0.21154 0.99061 0.5091 0.0
C863 C 0.1676 0.9061 0.49234 0.0
C864 C 0.23582 0.92653 0.51759 0.0
C865 C 0.27999 0.92955 0.51202 0.0
C866 C 0.3057 0.91499 0.52511 0.0
C867 C 0.28659 0.89864 0.54468 0.0
C868 C 0.24287 0.89806 0.55094 0.0
C869 C 0.21661 0.91081 0.537 0.0
H870 H 0.73238 0.66377 0.02477 0.0
H871 H 0.65192 0.72882 0.05285 0.0
H872 H 0.6361 0.75225 0.01898 0.0
H873 H 0.78873 0.75258 0.98431 0.0
H874 H 0.78168 0.70714 0.96567 0.0
H875 H 0.78827 0.69698 0.99219 0.0
H876 H 0.70637 0.61351 0.99081 0.0
H877 H 0.6996 0.62339 0.96428 0.0
H878 H 0.65089 0.61207 0.98195 0.0
H879 H 0.63038 0.77014 0.98208 0.0
H880 H 0.62987 0.77548 0.94453 0.0
H881 H 0.71012 0.69495 0.94054 0.0
C882 C 0.71167 0.68317 0.02378 0.0
C883 C 0.69357 0.69466 0.04144 0.0
C884 C 0.66603 0.7195 0.03951 0.0
C885 C 0.65702 0.73316 0.02035 0.0
C886 C 0.67532 0.72126 0.00325 0.0
C887 C 0.70164 0.69641 0.00475 0.0
C888 C 0.71546 0.68632 0.98393 0.0
C889 C 0.77188 0.71232 0.98138 0.0
C890 C 0.69164 0.63051 0.98002 0.0
C891 C 0.69288 0.70946 0.97053 0.0
C892 C 0.67036 0.7299 0.98196 0.0
C893 C 0.6477 0.75407 0.97294 0.0
C894 C 0.64771 0.75706 0.95164 0.0
C895 C 0.66965 0.73539 0.93963 0.0
C896 C 0.69261 0.71147 0.9493 0.0
H897 H 0.01081 0.25484 0.53966 0.0
H898 H 0.00386 0.38946 0.5479 0.0
H899 H 0.9529 0.37042 0.51688 0.0
H900 H 0.02252 0.26306 0.48558 0.0
H901 H 0.98581 0.19738 0.48173 0.0
H902 H 0.01994 0.22105 0.50501 0.0
H903 H 0.93909 0.17074 0.52557 0.0
H904 H 0.90457 0.14758 0.50229 0.0
H905 H 0.88689 0.1792 0.52051 0.0
H906 H 0.90298 0.33686 0.4848 0.0
H907 H 0.86685 0.29678 0.45195 0.0
H908 H 0.9075 0.18486 0.4647 0.0
C909 C -0.00138 0.28038 0.53497 0.0
C910 C 0.01127 0.32359 0.54626 0.0
C911 C -0.00518 0.35619 0.53947 0.0
C912 C 0.96549 0.34551 0.52197 0.0
C913 C 0.95305 0.30218 0.51139 0.0
C914 C 0.96963 0.27048 0.51749 0.0
C915 C 0.95322 0.22769 0.50288 0.0
C916 C -0.00196 0.22731 0.49323 0.0
C917 C 0.9189 0.17839 0.51345 0.0
C918 C 0.92536 0.24061 0.48745 0.0
C919 C 0.925 0.28328 0.49278 0.0
C920 C 0.90285 0.30329 0.4805 0.0
C921 C 0.88213 0.28007 0.46192 0.0
C922 C 0.88427 0.23763 0.45572 0.0
C923 C 0.90497 0.21706 0.46901 0.0
H924 H 0.70628 0.19836 0.14998 0.0
H925 H 0.71221 0.11814 0.09705 0.0
H926 H 0.62239 0.06253 0.09913 0.0
H927 H 0.60582 0.0917 0.17693 0.0
H928 H 0.57789 0.12705 0.18561 0.0
H929 H 0.64373 0.15688 0.18175 0.0
H930 H 0.63948 0.21976 0.15715 0.0
H931 H 0.57401 0.19072 0.1613 0.0
H932 H 0.59768 0.19731 0.13579 0.0
H933 H 0.53169 0.01963 0.10512 0.0
H934 H 0.44608 0.00093 0.11158 0.0
H935 H 0.4986 0.10902 0.16033 0.0
C936 C 0.68867 0.16877 0.13898 0.0
C937 C 0.71616 0.16265 0.12336 0.0
C938 C 0.69179 0.12388 0.10905 0.0
C939 C 0.64087 0.0916 0.11027 0.0
C940 C 0.61476 0.09851 0.12586 0.0
C941 C 0.63768 0.13648 0.13982 0.0
C942 C 0.60038 0.13921 0.15365 0.0
C943 C 0.60739 0.12803 0.1758 0.0
C944 C 0.60304 0.18972 0.15185 0.0
C945 C 0.55292 0.09813 0.14476 0.0
C946 C 0.56202 0.07417 0.12911 0.0
C947 C 0.52395 0.03757 0.11754 0.0
C948 C 0.47539 0.02693 0.12139 0.0
C949 C 0.4658 0.05352 0.13644 0.0
C950 C 0.50485 0.08784 0.14882 0.0
H951 H 0.56243 0.4863 0.37245 0.0
H952 H 0.65278 0.5082 0.42598 0.0
H953 H 0.60392 0.41931 0.43373 0.0
H954 H 0.44413 0.3852 0.39355 0.0
H955 H 0.42764 0.35403 0.36933 0.0
H956 H 0.46406 0.42035 0.37031 0.0
H957 H 0.53088 0.41656 0.34811 0.0
H958 H 0.49543 0.35033 0.34749 0.0
H959 H 0.55819 0.38051 0.35666 0.0
H960 H 0.55183 0.32612 0.43303 0.0
H961 H 0.49645 0.2376 0.42519 0.0
H962 H 0.44421 0.27927 0.37149 0.0
C963 C 0.57088 0.47285 0.38621 0.0
C964 C 0.61128 0.50417 0.39861 0.0
C965 C 0.62181 0.48482 0.41626 0.0
C966 C 0.59434 0.43438 0.42079 0.0
C967 C 0.5564 0.40402 0.40759 0.0
C968 C 0.5442 0.42272 0.39084 0.0
C969 C 0.50488 0.38212 0.37803 0.0
C970 C 0.45736 0.38563 0.37781 0.0
C971 C 0.5235 0.38243 0.3563 0.0
C972 C 0.49797 0.33768 0.38984 0.0
C973 C 0.52744 0.35076 0.40696 0.0
C974 C 0.52809 0.31541 0.41979 0.0
C975 C 0.49688 0.26532 0.41514 0.0
C976 C 0.46611 0.25145 0.39771 0.0
C977 C 0.46726 0.28837 0.38492 0.0
H978 H 0.86229 0.39282 0.14378 0.0
H979 H 0.96132 0.4325 0.09208 0.0
H980 H 0.93569 0.49228 0.08099 0.0
H981 H 0.76572 0.38878 0.118 0.0
H982 H 0.74506 0.41347 0.13812 0.0
H983 H 0.77764 0.38101 0.1442 0.0
H984 H 0.84347 0.45642 0.16445 0.0
H985 H 0.81021 0.48867 0.159 0.0
H986 H 0.87464 0.51618 0.15245 0.0
H987 H 0.89037 0.53953 0.07332 0.0
H988 H 0.83614 0.57659 0.07189 0.0
H989 H 0.76521 0.50074 0.12789 0.0
C990 C 0.87981 0.41511 0.13046 0.0
C991 C 0.91372 0.40803 0.11879 0.0
C992 C 0.93556 0.4377 0.10137 0.0
C993 C 0.92098 0.47147 0.09488 0.0
C994 C 0.88499 0.47517 0.10609 0.0
C995 C 0.86547 0.44838 0.12374 0.0
C996 C 0.82472 0.4558 0.13229 0.0
C997 C 0.7754 0.40686 0.13319 0.0
C998 C 0.83914 0.48078 0.15329 0.0
C999 C 0.82335 0.48995 0.11642 0.0
C1000 C 0.85849 0.50116 0.10149 0.0
C1001 C 0.86307 0.5314 0.08506 0.0
C1002 C 0.8318 0.55184 0.08426 0.0
C1003 C 0.79636 0.54149 0.09975 0.0
C1004 C 0.79181 0.50945 0.11577 0.0
H1005 H 0.47891 0.0381 0.40506 0.0
H1006 H 0.4373 0.00564 0.34166 0.0
H1007 H 0.52049 0.01927 0.33365 0.0
H1008 H 0.58148 0.13671 0.39737 0.0
H1009 H 0.61878 0.13139 0.4171 0.0
H1010 H 0.55301 0.10074 0.41989 0.0
H1011 H 0.5487 0.01625 0.42444 0.0
H1012 H 0.6151 0.0468 0.42252 0.0
H1013 H 0.57734 -0.00418 0.40591 0.0
H1014 H 0.61158 0.05884 0.33104 0.0
H1015 H 0.70167 0.11311 0.33453 0.0
H1016 H 0.68412 0.12467 0.39944 0.0
C1017 C 0.48664 0.03137 0.38969 0.0
C1018 C 0.45224 0.02112 0.37395 0.0
C1019 C 0.46324 0.01301 0.35395 0.0
C1020 C 0.51045 0.02082 0.34928 0.0
C1021 C 0.54536 0.03581 0.36488 0.0
C1022 C 0.53358 0.03973 0.38484 0.0
C1023 C 0.57908 0.06509 0.39811 0.0
C1024 C 0.58329 0.11118 0.40871 0.0
C1025 C 0.58012 0.02881 0.41366 0.0
C1026 C 0.61849 0.07884 0.3822 0.0
C1027 C 0.59849 0.0603 0.36326 0.0
C1028 C 0.62772 0.07232 0.34588 0.0
C1029 C 0.67869 0.10362 0.34798 0.0
C1030 C 0.69957 0.12328 0.36725 0.0
C1031 C 0.66905 0.11035 0.38452 0.0
H1032 H 0.45227 0.27549 0.09402 0.0
H1033 H 0.40464 0.26536 0.15669 0.0
H1034 H 0.43315 0.35473 0.15674 0.0
H1035 H 0.56283 0.38676 0.10012 0.0
H1036 H 0.56125 0.40938 0.07505 0.0
H1037 H 0.53106 0.34414 0.07965 0.0
H1038 H 0.44949 0.33632 0.06565 0.0
H1039 H 0.47941 0.4021 0.06173 0.0
H1040 H 0.42453 0.37176 0.07716 0.0
H1041 H 0.47129 0.44557 0.1507 0.0
H1042 H 0.53208 0.53169 0.14182 0.0
H1043 H 0.55675 0.48274 0.08365 0.0
C1044 C 0.44758 0.29208 0.10771 0.0
C1045 C 0.4262 0.26363 0.12532 0.0
C1046 C 0.42132 0.28666 0.14306 0.0
C1047 C 0.4366 0.33718 0.14312 0.0
C1048 C 0.45674 0.36407 0.12534 0.0
C1049 C 0.4632 0.34247 0.10811 0.0
C1050 C 0.49155 0.38039 0.0919 0.0
C1051 C 0.53951 0.38017 0.08638 0.0
C1052 C 0.4593 0.37213 0.07299 0.0
C1053 C 0.50183 0.42704 0.103 0.0
C1054 C 0.47987 0.41676 0.12199 0.0
C1055 C 0.48791 0.45413 0.13574 0.0
C1056 C 0.52191 0.50302 0.13048 0.0
C1057 C 0.54786 0.51348 0.11189 0.0
C1058 C 0.53583 0.47549 0.09762 0.0
H1059 H 0.78975 0.50491 0.35564 0.0
H1060 H 0.88125 0.60247 0.40382 0.0
H1061 H 0.92333 0.55292 0.4073 0.0
H1062 H 0.77034 0.39497 0.3789 0.0
H1063 H 0.77016 0.36565 0.35524 0.0
H1064 H 0.7513 0.4116 0.3557 0.0
H1065 H 0.81689 0.46163 0.32818 0.0
H1066 H 0.83644 0.41607 0.32787 0.0
H1067 H 0.88075 0.4799 0.33274 0.0
H1068 H 0.9544 0.49076 0.40541 0.0
H1069 H 0.96271 0.41584 0.40187 0.0
H1070 H 0.84696 0.35871 0.35634 0.0
C1071 C 0.819 0.51623 0.3668 0.0
C1072 C 0.83268 0.55771 0.37933 0.0
C1073 C 0.87031 0.57071 0.39407 0.0
C1074 C 0.89463 0.54308 0.39602 0.0
C1075 C 0.88044 0.5025 0.38322 0.0
C1076 C 0.84291 0.48882 0.36913 0.0
C1077 C 0.83134 0.44156 0.35834 0.0
C1078 C 0.77763 0.40107 0.3623 0.0
C1079 C 0.84201 0.45035 0.33543 0.0
C1080 C 0.86775 0.43018 0.36872 0.0
C1081 C 0.89663 0.46616 0.38271 0.0
C1082 C 0.93213 0.46254 0.39443 0.0
C1083 C 0.93691 0.42023 0.39224 0.0
C1084 C 0.90565 0.38213 0.37875 0.0
C1085 C 0.87153 0.38774 0.36661 0.0
H1086 H 0.12997 0.70695 0.61184 0.0
H1087 H 0.14129 0.72608 0.67734 0.0
H1088 H 0.08872 0.6357 0.68175 0.0
H1089 H 7e-05 0.60138 0.61135 0.0
H1090 H 0.01347 0.57276 0.59034 0.0
H1091 H 0.0452 0.63908 0.59259 0.0
H1092 H 0.12997 0.642 0.59145 0.0
H1093 H 0.09848 0.57624 0.58868 0.0
H1094 H 0.14198 0.60507 0.60919 0.0
H1095 H 0.04722 0.5438 0.67865 0.0
H1096 H 0.02802 0.45999 0.66842 0.0
H1097 H 0.03883 0.50204 0.60501 0.0
C1098 C 0.12121 0.69214 0.62713 0.0
C1099 C 0.14009 0.72297 0.64426 0.0
C1100 C 0.12728 0.70263 0.66403 0.0
C1101 C 0.09701 0.6516 0.66666 0.0
C1102 C 0.07888 0.62208 0.64934 0.0
C1103 C 0.09042 0.64181 0.62997 0.0
C1104 C 0.07082 0.60239 0.6138 0.0
C1105 C 0.02995 0.60401 0.60129 0.0
C1106 C 0.1128 0.60667 0.6 0.0
C1107 C 0.04994 0.55711 0.62711 0.0
C1108 C 0.0534 0.56895 0.64757 0.0
C1109 C 0.043 0.53382 0.66271 0.0
C1110 C 0.03191 0.48624 0.65678 0.0
C1111 C 0.03221 0.47505 0.63594 0.0
C1112 C 0.03803 0.50984 0.62103 0.0
H1113 H 0.43837 0.92561 0.88308 0.0
H1114 H 0.37115 0.88658 0.82329 0.0
H1115 H 0.42442 0.8517 0.81432 0.0
H1116 H 0.56657 0.94899 0.8672 0.0
H1117 H 0.57219 0.92163 0.89049 0.0
H1118 H 0.53839 0.95472 0.89022 0.0
H1119 H 0.46254 0.8777 0.9052 0.0
H1120 H 0.49525 0.84376 0.90488 0.0
H1121 H 0.43701 0.81976 0.89176 0.0
H1122 H 0.47094 0.80648 0.81436 0.0
H1123 H 0.51698 0.76281 0.82183 0.0
H1124 H 0.55258 0.82952 0.88197 0.0
C1125 C 0.43703 0.91221 0.86775 0.0
C1126 C 0.40147 0.90921 0.85374 0.0
C1127 C 0.3988 0.88954 0.83408 0.0
C1128 C 0.42877 0.86959 0.82888 0.0
C1129 C 0.46117 0.86988 0.84352 0.0
C1130 C 0.46636 0.89161 0.86242 0.0
C1131 C 0.49924 0.8815 0.87621 0.0
C1132 C 0.54694 0.92957 0.88132 0.0
C1133 C 0.47184 0.85404 0.89565 0.0
C1134 C 0.5095 0.84874 0.86247 0.0
C1135 C 0.48774 0.84297 0.84362 0.0
C1136 C 0.48921 0.81159 0.8289 0.0
C1137 C 0.5149 0.78649 0.83337 0.0
C1138 C 0.53846 0.79282 0.85246 0.0
C1139 C 0.53524 0.82409 0.86718 0.0
H1140 H 0.4931 0.58848 0.61071 0.0
H1141 H 0.49689 0.66261 0.55436 0.0
H1142 H 0.40622 0.61206 0.55155 0.0
H1143 H 0.38436 0.46456 0.5976 0.0
H1144 H 0.36188 0.45638 0.62336 0.0
H1145 H 0.42731 0.49082 0.61844 0.0
H1146 H 0.43218 0.56475 0.63847 0.0
H1147 H 0.36671 0.53131 0.6429 0.0
H1148 H 0.39439 0.59071 0.63061 0.0
H1149 H 0.31458 0.56232 0.5576 0.0
H1150 H 0.22937 0.5114 0.57065 0.0
H1151 H 0.28775 0.47433 0.62374 0.0
C1152 C 0.47508 0.59245 0.59731 0.0
C1153 C 0.50177 0.62897 0.58268 0.0
C1154 C 0.47685 0.63444 0.56568 0.0
C1155 C 0.42544 0.60602 0.56397 0.0
C1156 C 0.39976 0.57237 0.57935 0.0
C1157 C 0.42381 0.56489 0.59553 0.0
C1158 C 0.38769 0.53048 0.61112 0.0
C1159 C 0.39047 0.48272 0.61271 0.0
C1160 C 0.39575 0.55586 0.63199 0.0
C1161 C 0.33981 0.52113 0.60152 0.0
C1162 C 0.34724 0.545 0.58311 0.0
C1163 C 0.30818 0.54284 0.57188 0.0
C1164 C 0.26005 0.51429 0.57949 0.0
C1165 C 0.25185 0.48897 0.59822 0.0
C1166 C 0.29252 0.49319 0.60937 0.0
H1167 H 0.19024 0.71091 0.85535 0.0
H1168 H 0.12919 0.71585 0.91405 0.0
H1169 H 0.07924 0.62481 0.91411 0.0
H1170 H 0.07952 0.60395 0.83449 0.0
H1171 H 0.11489 0.57977 0.82231 0.0
H1172 H 0.14136 0.6454 0.82575 0.0
H1173 H 0.21599 0.64913 0.84492 0.0
H1174 H 0.19019 0.58387 0.84118 0.0
H1175 H 0.20492 0.60932 0.86651 0.0
H1176 H 0.03961 0.53283 0.90861 0.0
H1177 H 0.02381 0.44869 0.90046 0.0
H1178 H 0.11253 0.50495 0.84594 0.0
C1179 C 0.16593 0.69288 0.86811 0.0
C1180 C 0.16344 0.72039 0.88464 0.0
C1181 C 0.13183 0.69542 0.90124 0.0
C1182 C 0.10289 0.64379 0.9013 0.0
C1183 C 0.10605 0.61773 0.88469 0.0
C1184 C 0.13728 0.64149 0.86852 0.0
C1185 C 0.13794 0.60508 0.85354 0.0
C1186 C 0.11718 0.60878 0.83279 0.0
C1187 C 0.19034 0.61227 0.85143 0.0
C1188 C 0.10338 0.55712 0.86409 0.0
C1189 C 0.08426 0.56496 0.88177 0.0
C1190 C 0.05385 0.52616 0.89468 0.0
C1191 C 0.0447 0.47846 0.88987 0.0
C1192 C 0.06676 0.47055 0.87254 0.0
C1193 C 0.0948 0.51005 0.85916 0.0
H1194 H 0.37486 0.88894 0.59933 0.0
H1195 H 0.41924 0.97034 0.65609 0.0
H1196 H 0.4962 0.96496 0.65592 0.0
H1197 H 0.40977 0.80443 0.61078 0.0
H1198 H 0.43139 0.80093 0.58574 0.0
H1199 H 0.3848 0.81844 0.58862 0.0
H1200 H 0.43905 0.89962 0.5689 0.0
H1201 H 0.48577 0.88209 0.5657 0.0
H1202 H 0.50147 0.94052 0.57721 0.0
H1203 H 0.56019 0.93812 0.65213 0.0
H1204 H 0.60928 0.89792 0.64409 0.0
H1205 H 0.52317 0.83616 0.58912 0.0
C1206 C 0.40138 0.9067 0.61149 0.0
C1207 C 0.39139 0.92994 0.62778 0.0
C1208 C 0.42667 0.95277 0.64342 0.0
C1209 C 0.47027 0.94975 0.64343 0.0
C1210 C 0.47805 0.92478 0.62746 0.0
C1211 C 0.44491 0.90448 0.61158 0.0
C1212 C 0.45952 0.87641 0.59699 0.0
C1213 C 0.41897 0.82184 0.59546 0.0
C1214 C 0.47222 0.90116 0.57596 0.0
C1215 C 0.505 0.88199 0.60759 0.0
C1216 C 0.5154 0.91034 0.62504 0.0
C1217 C 0.55303 0.91682 0.63829 0.0
C1218 C 0.58045 0.89353 0.63365 0.0
C1219 C 0.57012 0.86413 0.6159 0.0
C1220 C 0.53246 0.85911 0.60258 0.0
H1221 H 0.49349 0.55851 0.84043 0.0
H1222 H 0.55146 0.5597 0.90052 0.0
H1223 H 0.46681 0.50358 0.91281 0.0
H1224 H 0.40105 0.57361 0.85562 0.0
H1225 H 0.35564 0.53471 0.83712 0.0
H1226 H 0.42019 0.56239 0.83125 0.0
H1227 H 0.41141 0.47679 0.82383 0.0
H1228 H 0.34613 0.44868 0.8288 0.0
H1229 H 0.38297 0.42831 0.84247 0.0
H1230 H 0.37484 0.46208 0.91999 0.0
H1231 H 0.28436 0.42917 0.92013 0.0
H1232 H 0.28959 0.46098 0.85555 0.0
C1233 C 0.48859 0.54498 0.85591 0.0
C1234 C 0.52877 0.5632 0.86951 0.0
C1235 C 0.52111 0.54549 0.88977 0.0
C1236 C 0.4731 0.51398 0.89693 0.0
C1237 C 0.43369 0.50021 0.88351 0.0
C1238 C 0.44116 0.51413 0.86325 0.0
C1239 C 0.39317 0.49992 0.85246 0.0
C1240 C 0.39253 0.54537 0.84361 0.0
C1241 C 0.3828 0.4611 0.83592 0.0
C1242 C 0.35772 0.4781 0.87 0.0
C1243 C 0.38135 0.47776 0.88773 0.0
C1244 C 0.35586 0.46133 0.90608 0.0
C1245 C 0.30463 0.44333 0.90607 0.0
C1246 C 0.27984 0.44265 0.88788 0.0
C1247 C 0.3072 0.46097 0.86977 0.0
loop_
_geom_bond_atom_site_label_1
_geom_bond_atom_site_label_2
_geom_bond_distance
_geom_bond_site_symmetry_2
_ccdc_geom_bond_type
O0 Zn1 1.953 . S
O0 C16 1.225 . S
Zn1 O0 1.953 . S
Zn1 O2 1.949 . S
Zn1 O8 1.919 . S
Zn1 O13 1.924 . S
O2 Zn1 1.949 . S
O2 Zn3 1.923 . S
O2 Zn4 1.950 . S
O2 Zn5 1.945 . S
Zn3 O2 1.923 . S
Zn3 O6 1.933 1_545 S
Zn3 O9 1.941 . S
Zn3 O10 1.965 . S
Zn4 O2 1.950 . S
Zn4 O11 1.938 . S
Zn4 O12 1.906 . S
Zn4 O22 1.953 . S
Zn5 O2 1.945 . S
Zn5 O7 1.932 . S
Zn5 O14 1.977 . S
Zn5 O15 1.910 . S
O6 Zn3 1.933 1_565 S
O6 C17 1.226 . S
O7 Zn5 1.932 . S
O7 C17 1.307 1_545 S
O8 Zn1 1.919 . S
O8 C19 1.253 . S
O9 Zn3 1.941 . S
O9 C19 1.283 . S
O10 Zn3 1.965 . S
O10 C18 1.303 . S
O11 Zn4 1.938 . S
O11 C18 1.247 . S
O12 Zn4 1.906 . S
O12 C20 1.304 . S
O13 Zn1 1.924 . S
O13 C21 1.311 . S
O14 Zn5 1.977 . S
O14 C20 1.272 . S
O15 Zn5 1.910 . S
O15 C21 1.231 . S
C16 O0 1.225 . S
C16 O22 1.298 . S
C17 O6 1.226 . S
C17 O7 1.307 1_565 S
C18 O10 1.303 . S
C18 O11 1.247 . S
C19 O8 1.253 . S
C19 O9 1.283 . S
C20 O12 1.304 . S
C20 O14 1.272 . S
C21 O13 1.311 . S
C21 O15 1.231 . S
O22 Zn4 1.953 . S
O22 C16 1.298 . S
O23 Zn24 1.953 . S
O23 C39 1.225 . S
Zn24 O23 1.953 . S
Zn24 O25 1.949 . S
Zn24 O31 1.919 . S
Zn24 O36 1.924 . S
O25 Zn24 1.949 . S
O25 Zn26 1.923 . S
O25 Zn27 1.950 . S
O25 Zn28 1.945 . S
Zn26 O25 1.923 . S
Zn26 O29 1.933 . S
Zn26 O32 1.941 . S
Zn26 O33 1.965 . S
Zn27 O25 1.950 . S
Zn27 O34 1.938 . S
Zn27 O35 1.906 . S
Zn27 O45 1.953 . S
Zn28 O25 1.945 . S
Zn28 O30 1.932 . S
Zn28 O37 1.977 . S
Zn28 O38 1.910 . S
O29 Zn26 1.933 . S
O29 C40 1.226 . S
O30 Zn28 1.932 . S
O30 C40 1.307 . S
O31 Zn24 1.919 . S
O31 C42 1.253 . S
O32 Zn26 1.941 . S
O32 C42 1.283 . S
O33 Zn26 1.965 . S
O33 C41 1.303 . S
O34 Zn27 1.938 . S
O34 C41 1.247 . S
O35 Zn27 1.906 . S
O35 C43 1.304 . S
O36 Zn24 1.924 . S
O36 C44 1.311 . S
O37 Zn28 1.977 . S
O37 C43 1.272 . S
O38 Zn28 1.910 . S
O38 C44 1.231 . S
C39 O23 1.225 . S
C39 O45 1.298 . S
C40 O29 1.226 . S
C40 O30 1.307 . S
C41 O33 1.303 . S
C41 O34 1.247 . S
C42 O31 1.253 . S
C42 O32 1.283 . S
C43 O35 1.304 . S
C43 O37 1.272 . S
C44 O36 1.311 . S
C44 O38 1.231 . S
O45 Zn27 1.953 . S
O45 C39 1.298 . S
O46 Zn47 1.953 . S
O46 C62 1.225 . S
Zn47 O46 1.953 . S
Zn47 O48 1.949 . S
Zn47 O54 1.919 . S
Zn47 O59 1.924 . S
O48 Zn47 1.949 . S
O48 Zn49 1.923 . S
O48 Zn50 1.950 . S
O48 Zn51 1.945 . S
Zn49 O48 1.923 . S
Zn49 O52 1.933 1_655 S
Zn49 O55 1.941 . S
Zn49 O56 1.965 . S
Zn50 O48 1.950 . S
Zn50 O57 1.938 . S
Zn50 O58 1.906 . S
Zn50 O68 1.953 . S
Zn51 O48 1.945 . S
Zn51 O53 1.932 . S
Zn51 O60 1.977 . S
Zn51 O61 1.910 . S
O52 Zn49 1.933 1_455 S
O52 C63 1.226 . S
O53 Zn51 1.932 . S
O53 C63 1.307 1_655 S
O54 Zn47 1.919 . S
O54 C65 1.253 . S
O55 Zn49 1.941 . S
O55 C65 1.283 . S
O56 Zn49 1.965 . S
O56 C64 1.303 . S
O57 Zn50 1.938 . S
O57 C64 1.247 . S
O58 Zn50 1.906 . S
O58 C66 1.304 . S
O59 Zn47 1.924 . S
O59 C67 1.311 . S
O60 Zn51 1.977 . S
O60 C66 1.272 . S
O61 Zn51 1.910 . S
O61 C67 1.231 . S
C62 O46 1.225 . S
C62 O68 1.298 . S
C63 O52 1.226 . S
C63 O53 1.307 1_455 S
C64 O56 1.303 . S
C64 O57 1.247 . S
C65 O54 1.253 . S
C65 O55 1.283 . S
C66 O58 1.304 . S
C66 O60 1.272 . S
C67 O59 1.311 . S
C67 O61 1.231 . S
O68 Zn50 1.953 . S
O68 C62 1.298 . S
O69 Zn70 1.953 . S
O69 C85 1.225 . S
Zn70 O69 1.953 . S
Zn70 O71 1.949 . S
Zn70 O77 1.919 . S
Zn70 O82 1.924 . S
O71 Zn70 1.949 . S
O71 Zn72 1.923 . S
O71 Zn73 1.950 . S
O71 Zn74 1.945 . S
Zn72 O71 1.923 . S
Zn72 O75 1.933 1_545 S
Zn72 O78 1.941 . S
Zn72 O79 1.965 . S
Zn73 O71 1.950 . S
Zn73 O80 1.938 . S
Zn73 O81 1.906 . S
Zn73 O91 1.953 . S
Zn74 O71 1.945 . S
Zn74 O76 1.932 . S
Zn74 O83 1.977 . S
Zn74 O84 1.910 . S
O75 Zn72 1.933 1_565 S
O75 C86 1.226 . S
O76 Zn74 1.932 . S
O76 C86 1.307 1_545 S
O77 Zn70 1.919 . S
O77 C88 1.253 . S
O78 Zn72 1.941 . S
O78 C88 1.283 . S
O79 Zn72 1.965 . S
O79 C87 1.303 . S
O80 Zn73 1.938 . S
O80 C87 1.247 . S
O81 Zn73 1.906 . S
O81 C89 1.304 . S
O82 Zn70 1.924 . S
O82 C90 1.311 . S
O83 Zn74 1.977 . S
O83 C89 1.272 . S
O84 Zn74 1.910 . S
O84 C90 1.231 . S
C85 O69 1.225 . S
C85 O91 1.298 . S
C86 O75 1.226 . S
C86 O76 1.307 1_565 S
C87 O79 1.303 . S
C87 O80 1.247 . S
C88 O77 1.253 . S
C88 O78 1.283 . S
C89 O81 1.304 . S
C89 O83 1.272 . S
C90 O82 1.311 . S
C90 O84 1.231 . S
O91 Zn73 1.953 . S
O91 C85 1.298 . S
O92 Zn93 1.953 . S
O92 C108 1.225 . S
Zn93 O92 1.953 . S
Zn93 O94 1.949 . S
Zn93 O100 1.919 . S
Zn93 O105 1.924 . S
O94 Zn93 1.949 . S
O94 Zn95 1.923 . S
O94 Zn96 1.950 . S
O94 Zn97 1.945 . S
Zn95 O94 1.923 . S
Zn95 O98 1.933 . S
Zn95 O101 1.941 . S
Zn95 O102 1.965 . S
Zn96 O94 1.950 . S
Zn96 O103 1.938 . S
Zn96 O104 1.906 . S
Zn96 O114 1.953 . S
Zn97 O94 1.945 . S
Zn97 O99 1.932 . S
Zn97 O106 1.977 . S
Zn97 O107 1.910 . S
O98 Zn95 1.933 . S
O98 C109 1.226 . S
O99 Zn97 1.932 . S
O99 C109 1.307 . S
O100 Zn93 1.919 . S
O100 C111 1.253 . S
O101 Zn95 1.941 . S
O101 C111 1.283 . S
O102 Zn95 1.965 . S
O102 C110 1.303 . S
O103 Zn96 1.938 . S
O103 C110 1.247 . S
O104 Zn96 1.906 . S
O104 C112 1.304 . S
O105 Zn93 1.924 . S
O105 C113 1.311 . S
O106 Zn97 1.977 . S
O106 C112 1.272 . S
O107 Zn97 1.910 . S
O107 C113 1.231 . S
C108 O92 1.225 . S
C108 O114 1.298 . S
C109 O98 1.226 . S
C109 O99 1.307 . S
C110 O102 1.303 . S
C110 O103 1.247 . S
C111 O100 1.253 . S
C111 O101 1.283 . S
C112 O104 1.304 . S
C112 O106 1.272 . S
C113 O105 1.311 . S
C113 O107 1.231 . S
O114 Zn96 1.953 . S
O114 C108 1.298 . S
O115 Zn116 1.953 . S
O115 C131 1.225 . S
Zn116 O115 1.953 . S
Zn116 O117 1.949 . S
Zn116 O123 1.919 . S
Zn116 O128 1.924 . S
O117 Zn116 1.949 . S
O117 Zn118 1.923 . S
O117 Zn119 1.950 . S
O117 Zn120 1.945 . S
Zn118 O117 1.923 . S
Zn118 O121 1.933 1_655 S
Zn118 O124 1.941 . S
Zn118 O125 1.965 . S
Zn119 O117 1.950 . S
Zn119 O126 1.938 . S
Zn119 O127 1.906 . S
Zn119 O137 1.953 . S
Zn120 O117 1.945 . S
Zn120 O122 1.932 . S
Zn120 O129 1.977 . S
Zn120 O130 1.910 . S
O121 Zn118 1.933 1_455 S
O121 C132 1.226 . S
O122 Zn120 1.932 . S
O122 C132 1.307 1_655 S
O123 Zn116 1.919 . S
O123 C134 1.253 . S
O124 Zn118 1.941 . S
O124 C134 1.283 . S
O125 Zn118 1.965 . S
O125 C133 1.303 . S
O126 Zn119 1.938 . S
O126 C133 1.247 . S
O127 Zn119 1.906 . S
O127 C135 1.304 . S
O128 Zn116 1.924 . S
O128 C136 1.311 . S
O129 Zn120 1.977 . S
O129 C135 1.272 . S
O130 Zn120 1.910 . S
O130 C136 1.231 . S
C131 O115 1.225 . S
C131 O137 1.298 . S
C132 O121 1.226 . S
C132 O122 1.307 1_455 S
C133 O125 1.303 . S
C133 O126 1.247 . S
C134 O123 1.253 . S
C134 O124 1.283 . S
C135 O127 1.304 . S
C135 O129 1.272 . S
C136 O128 1.311 . S
C136 O130 1.231 . S
O137 Zn119 1.953 . S
O137 C131 1.298 . S
O138 Zn139 1.953 . S
O138 C154 1.225 . S
Zn139 O138 1.953 . S
Zn139 O140 1.949 . S
Zn139 O146 1.919 . S
Zn139 O151 1.924 . S
O140 Zn139 1.949 . S
O140 Zn141 1.923 . S
O140 Zn142 1.950 . S
O140 Zn143 1.945 . S
Zn141 O140 1.923 . S
Zn141 O144 1.933 1_455 S
Zn141 O147 1.941 . S
Zn141 O148 1.965 . S
Zn142 O140 1.950 . S
Zn142 O149 1.938 . S
Zn142 O150 1.906 . S
Zn142 O160 1.953 . S
Zn143 O140 1.945 . S
Zn143 O145 1.932 . S
Zn143 O152 1.977 . S
Zn143 O153 1.910 . S
O144 Zn141 1.933 1_655 S
O144 C155 1.226 . S
O145 Zn143 1.932 . S
O145 C155 1.307 1_455 S
O146 Zn139 1.919 . S
O146 C157 1.253 . S
O147 Zn141 1.941 . S
O147 C157 1.283 . S
O148 Zn141 1.965 . S
O148 C156 1.303 . S
O149 Zn142 1.938 . S
O149 C156 1.247 . S
O150 Zn142 1.906 . S
O150 C158 1.304 . S
O151 Zn139 1.924 . S
O151 C159 1.311 . S
O152 Zn143 1.977 . S
O152 C158 1.272 . S
O153 Zn143 1.910 . S
O153 C159 1.231 . S
C154 O138 1.225 . S
C154 O160 1.298 . S
C155 O144 1.226 . S
C155 O145 1.307 1_655 S
C156 O148 1.303 . S
C156 O149 1.247 . S
C157 O146 1.253 . S
C157 O147 1.283 . S
C158 O150 1.304 . S
C158 O152 1.272 . S
C159 O151 1.311 . S
C159 O153 1.231 . S
O160 Zn142 1.953 . S
O160 C154 1.298 . S
O161 Zn162 1.953 . S
O161 C177 1.225 . S
Zn162 O161 1.953 . S
Zn162 O163 1.949 . S
Zn162 O169 1.919 . S
Zn162 O174 1.924 . S
O163 Zn162 1.949 . S
O163 Zn164 1.923 . S
O163 Zn165 1.950 . S
O163 Zn166 1.945 . S
Zn164 O163 1.923 . S
Zn164 O167 1.933 1_565 S
Zn164 O170 1.941 . S
Zn164 O171 1.965 . S
Zn165 O163 1.950 . S
Zn165 O172 1.938 . S
Zn165 O173 1.906 . S
Zn165 O183 1.953 . S
Zn166 O163 1.945 . S
Zn166 O168 1.932 . S
Zn166 O175 1.977 . S
Zn166 O176 1.910 . S
O167 Zn164 1.933 1_545 S
O167 C178 1.226 . S
O168 Zn166 1.932 . S
O168 C178 1.307 1_565 S
O169 Zn162 1.919 . S
O169 C180 1.253 . S
O170 Zn164 1.941 . S
O170 C180 1.283 . S
O171 Zn164 1.965 . S
O171 C179 1.303 . S
O172 Zn165 1.938 . S
O172 C179 1.247 . S
O173 Zn165 1.906 . S
O173 C181 1.304 . S
O174 Zn162 1.924 . S
O174 C182 1.311 . S
O175 Zn166 1.977 . S
O175 C181 1.272 . S
O176 Zn166 1.910 . S
O176 C182 1.231 . S
C177 O161 1.225 . S
C177 O183 1.298 . S
C178 O167 1.226 . S
C178 O168 1.307 1_545 S
C179 O171 1.303 . S
C179 O172 1.247 . S
C180 O169 1.253 . S
C180 O170 1.283 . S
C181 O173 1.304 . S
C181 O175 1.272 . S
C182 O174 1.311 . S
C182 O176 1.231 . S
O183 Zn165 1.953 . S
O183 C177 1.298 . S
O184 Zn185 1.953 . S
O184 C200 1.225 . S
Zn185 O184 1.953 . S
Zn185 O186 1.949 . S
Zn185 O192 1.919 . S
Zn185 O197 1.924 . S
O186 Zn185 1.949 . S
O186 Zn187 1.923 . S
O186 Zn188 1.950 . S
O186 Zn189 1.945 . S
Zn187 O186 1.923 . S
Zn187 O190 1.933 . S
Zn187 O193 1.941 . S
Zn187 O194 1.965 . S
Zn188 O186 1.950 . S
Zn188 O195 1.938 . S
Zn188 O196 1.906 . S
Zn188 O206 1.953 . S
Zn189 O186 1.945 . S
Zn189 O191 1.932 . S
Zn189 O198 1.977 . S
Zn189 O199 1.910 . S
O190 Zn187 1.933 . S
O190 C201 1.226 . S
O191 Zn189 1.932 . S
O191 C201 1.307 . S
O192 Zn185 1.919 . S
O192 C203 1.253 . S
O193 Zn187 1.941 . S
O193 C203 1.283 . S
O194 Zn187 1.965 . S
O194 C202 1.303 . S
O195 Zn188 1.938 . S
O195 C202 1.247 . S
O196 Zn188 1.906 . S
O196 C204 1.304 . S
O197 Zn185 1.924 . S
O197 C205 1.311 . S
O198 Zn189 1.977 . S
O198 C204 1.272 . S
O199 Zn189 1.910 . S
O199 C205 1.231 . S
C200 O184 1.225 . S
C200 O206 1.298 . S
C201 O190 1.226 . S
C201 O191 1.307 . S
C202 O194 1.303 . S
C202 O195 1.247 . S
C203 O192 1.253 . S
C203 O193 1.283 . S
C204 O196 1.304 . S
C204 O198 1.272 . S
C205 O197 1.311 . S
C205 O199 1.231 . S
O206 Zn188 1.953 . S
O206 C200 1.298 . S
O207 Zn208 1.953 . S
O207 C223 1.225 . S
Zn208 O207 1.953 . S
Zn208 O209 1.949 . S
Zn208 O215 1.919 . S
Zn208 O220 1.924 . S
O209 Zn208 1.949 . S
O209 Zn210 1.923 . S
O209 Zn211 1.950 . S
O209 Zn212 1.945 . S
Zn210 O209 1.923 . S
Zn210 O213 1.933 1_455 S
Zn210 O216 1.941 . S
Zn210 O217 1.965 . S
Zn211 O209 1.950 . S
Zn211 O218 1.938 . S
Zn211 O219 1.906 . S
Zn211 O229 1.953 . S
Zn212 O209 1.945 . S
Zn212 O214 1.932 . S
Zn212 O221 1.977 . S
Zn212 O222 1.910 . S
O213 Zn210 1.933 1_655 S
O213 C224 1.226 . S
O214 Zn212 1.932 . S
O214 C224 1.307 1_455 S
O215 Zn208 1.919 . S
O215 C226 1.253 . S
O216 Zn210 1.941 . S
O216 C226 1.283 . S
O217 Zn210 1.965 . S
O217 C225 1.303 . S
O218 Zn211 1.938 . S
O218 C225 1.247 . S
O219 Zn211 1.906 . S
O219 C227 1.304 . S
O220 Zn208 1.924 . S
O220 C228 1.311 . S
O221 Zn212 1.977 . S
O221 C227 1.272 . S
O222 Zn212 1.910 . S
O222 C228 1.231 . S
C223 O207 1.225 . S
C223 O229 1.298 . S
C224 O213 1.226 . S
C224 O214 1.307 1_655 S
C225 O217 1.303 . S
C225 O218 1.247 . S
C226 O215 1.253 . S
C226 O216 1.283 . S
C227 O219 1.304 . S
C227 O221 1.272 . S
C228 O220 1.311 . S
C228 O222 1.231 . S
O229 Zn211 1.953 . S
O229 C223 1.298 . S
O230 Zn231 1.953 . S
O230 C246 1.225 . S
Zn231 O230 1.953 . S
Zn231 O232 1.949 . S
Zn231 O238 1.919 . S
Zn231 O243 1.924 . S
O232 Zn231 1.949 . S
O232 Zn233 1.923 . S
O232 Zn234 1.950 . S
O232 Zn235 1.945 . S
Zn233 O232 1.923 . S
Zn233 O236 1.933 1_565 S
Zn233 O239 1.941 . S
Zn233 O240 1.965 . S
Zn234 O232 1.950 . S
Zn234 O241 1.938 . S
Zn234 O242 1.906 . S
Zn234 O252 1.953 . S
Zn235 O232 1.945 . S
Zn235 O237 1.932 . S
Zn235 O244 1.977 . S
Zn235 O245 1.910 . S
O236 Zn233 1.933 1_545 S
O236 C247 1.226 . S
O237 Zn235 1.932 . S
O237 C247 1.307 1_565 S
O238 Zn231 1.919 . S
O238 C249 1.253 . S
O239 Zn233 1.941 . S
O239 C249 1.283 . S
O240 Zn233 1.965 . S
O240 C248 1.303 . S
O241 Zn234 1.938 . S
O241 C248 1.247 . S
O242 Zn234 1.906 . S
O242 C250 1.304 . S
O243 Zn231 1.924 . S
O243 C251 1.311 . S
O244 Zn235 1.977 . S
O244 C250 1.272 . S
O245 Zn235 1.910 . S
O245 C251 1.231 . S
C246 O230 1.225 . S
C246 O252 1.298 . S
C247 O236 1.226 . S
C247 O237 1.307 1_545 S
C248 O240 1.303 . S
C248 O241 1.247 . S
C249 O238 1.253 . S
C249 O239 1.283 . S
C250 O242 1.304 . S
C250 O244 1.272 . S
C251 O243 1.311 . S
C251 O245 1.231 . S
O252 Zn234 1.953 . S
O252 C246 1.298 . S
O253 Zn254 1.953 . S
O253 C269 1.225 . S
Zn254 O253 1.953 . S
Zn254 O255 1.949 . S
Zn254 O261 1.919 . S
Zn254 O266 1.924 . S
O255 Zn254 1.949 . S
O255 Zn256 1.923 . S
O255 Zn257 1.950 . S
O255 Zn258 1.945 . S
Zn256 O255 1.923 . S
Zn256 O259 1.933 . S
Zn256 O262 1.941 . S
Zn256 O263 1.965 . S
Zn257 O255 1.950 . S
Zn257 O264 1.938 . S
Zn257 O265 1.906 . S
Zn257 O275 1.953 . S
Zn258 O255 1.945 . S
Zn258 O260 1.932 . S
Zn258 O267 1.977 . S
Zn258 O268 1.910 . S
O259 Zn256 1.933 . S
O259 C270 1.226 . S
O260 Zn258 1.932 . S
O260 C270 1.307 . S
O261 Zn254 1.919 . S
O261 C272 1.253 . S
O262 Zn256 1.941 . S
O262 C272 1.283 . S
O263 Zn256 1.965 . S
O263 C271 1.303 . S
O264 Zn257 1.938 . S
O264 C271 1.247 . S
O265 Zn257 1.906 . S
O265 C273 1.304 . S
O266 Zn254 1.924 . S
O266 C274 1.311 . S
O267 Zn258 1.977 . S
O267 C273 1.272 . S
O268 Zn258 1.910 . S
O268 C274 1.231 . S
C269 O253 1.225 . S
C269 O275 1.298 . S
C270 O259 1.226 . S
C270 O260 1.307 . S
C271 O263 1.303 . S
C271 O264 1.247 . S
C272 O261 1.253 . S
C272 O262 1.283 . S
C273 O265 1.304 . S
C273 O267 1.272 . S
C274 O266 1.311 . S
C274 O268 1.231 . S
O275 Zn257 1.953 . S
O275 C269 1.298 . S
H276 C288 0.930 . S
H277 C290 0.930 . S
H278 C291 0.930 . S
H279 C295 0.959 . S
H280 C295 0.959 . S
H281 C295 0.961 . S
H282 C296 0.960 . S
H283 C296 0.961 . S
H284 C296 0.959 . S
H285 C299 0.929 . S
H286 C300 0.931 . S
H287 C302 0.930 . S
C288 H276 0.930 . S
C288 C289 1.399 . S
C288 C293 1.399 . S
C289 C288 1.399 . S
C289 C290 1.376 . S
C290 H277 0.930 . S
C290 C289 1.376 . S
C290 C291 1.388 . S
C291 H278 0.930 . S
C291 C290 1.388 . S
C291 C292 1.390 . S
C292 C291 1.390 . S
C292 C293 1.394 . S
C292 C298 1.465 . S
C293 C288 1.399 . S
C293 C292 1.394 . S
C293 C294 1.516 . S
C294 C293 1.516 . S
C294 C295 1.502 . S
C294 C296 1.561 . S
C294 C297 1.526 . S
C295 H279 0.959 . S
C295 H280 0.959 . S
C295 H281 0.961 . S
C295 C294 1.502 . S
C296 H282 0.960 . S
C296 H283 0.961 . S
C296 H284 0.959 . S
C296 C294 1.561 . S
C297 C294 1.526 . S
C297 C298 1.396 . S
C297 C302 1.390 . S
C298 C292 1.465 . S
C298 C297 1.396 . S
C298 C299 1.399 . S
C299 H285 0.929 . S
C299 C298 1.399 . S
C299 C300 1.385 . S
C300 H286 0.931 . S
C300 C299 1.385 . S
C300 C301 1.389 . S
C301 C300 1.389 . S
C301 C302 1.387 . S
C302 H287 0.930 . S
C302 C297 1.390 . S
C302 C301 1.387 . S
H303 C315 0.930 . S
H304 C317 0.930 . S
H305 C318 0.930 . S
H306 C322 0.959 . S
H307 C322 0.959 . S
H308 C322 0.961 . S
H309 C323 0.960 . S
H310 C323 0.961 . S
H311 C323 0.959 . S
H312 C326 0.929 . S
H313 C327 0.931 . S
H314 C329 0.930 . S
C315 H303 0.930 . S
C315 C316 1.399 . S
C315 C320 1.399 . S
C316 C315 1.399 . S
C316 C317 1.376 . S
C317 H304 0.930 . S
C317 C316 1.376 . S
C317 C318 1.388 . S
C318 H305 0.930 . S
C318 C317 1.388 . S
C318 C319 1.390 . S
C319 C318 1.390 . S
C319 C320 1.394 . S
C319 C325 1.465 . S
C320 C315 1.399 . S
C320 C319 1.394 . S
C320 C321 1.516 . S
C321 C320 1.516 . S
C321 C322 1.502 . S
C321 C323 1.561 . S
C321 C324 1.526 . S
C322 H306 0.959 . S
C322 H307 0.959 . S
C322 H308 0.961 . S
C322 C321 1.502 . S
C323 H309 0.960 . S
C323 H310 0.961 . S
C323 H311 0.959 . S
C323 C321 1.561 . S
C324 C321 1.526 . S
C324 C325 1.396 . S
C324 C329 1.390 1_455 S
C325 C319 1.465 . S
C325 C324 1.396 . S
C325 C326 1.399 . S
C326 H312 0.929 . S
C326 C325 1.399 . S
C326 C327 1.385 1_455 S
C327 H313 0.931 . S
C327 C326 1.385 1_655 S
C327 C328 1.389 . S
C328 C327 1.389 . S
C328 C329 1.387 . S
C329 H314 0.930 . S
C329 C324 1.390 1_655 S
C329 C328 1.387 . S
H330 C342 0.930 . S
H331 C344 0.930 . S
H332 C345 0.930 . S
H333 C349 0.959 . S
H334 C349 0.959 . S
H335 C349 0.961 . S
H336 C350 0.960 . S
H337 C350 0.961 . S
H338 C350 0.959 . S
H339 C353 0.929 . S
H340 C354 0.931 . S
H341 C356 0.930 . S
C342 H330 0.930 . S
C342 C343 1.399 . S
C342 C347 1.399 1_545 S
C343 C342 1.399 . S
C343 C344 1.376 . S
C344 H331 0.930 . S
C344 C343 1.376 . S
C344 C345 1.388 1_545 S
C345 H332 0.930 . S
C345 C344 1.388 1_565 S
C345 C346 1.390 . S
C346 C345 1.390 . S
C346 C347 1.394 . S
C346 C352 1.465 . S
C347 C342 1.399 1_565 S
C347 C346 1.394 . S
C347 C348 1.516 . S
C348 C347 1.516 . S
C348 C349 1.502 . S
C348 C350 1.561 . S
C348 C351 1.526 . S
C349 H333 0.959 . S
C349 H334 0.959 . S
C349 H335 0.961 . S
C349 C348 1.502 . S
C350 H336 0.960 . S
C350 H337 0.961 . S
C350 H338 0.959 . S
C350 C348 1.561 . S
C351 C348 1.526 . S
C351 C352 1.396 . S
C351 C356 1.390 . S
C352 C346 1.465 . S
C352 C351 1.396 . S
C352 C353 1.399 . S
C353 H339 0.929 . S
C353 C352 1.399 . S
C353 C354 1.385 . S
C354 H340 0.931 . S
C354 C353 1.385 . S
C354 C355 1.389 . S
C355 C354 1.389 . S
C355 C356 1.387 . S
C356 H341 0.930 . S
C356 C351 1.390 . S
C356 C355 1.387 . S
H357 C369 0.930 . S
H358 C371 0.930 . S
H359 C372 0.930 . S
H360 C376 0.959 . S
H361 C376 0.959 . S
H362 C376 0.961 . S
H363 C377 0.960 . S
H364 C377 0.961 . S
H365 C377 0.959 . S
H366 C380 0.929 . S
H367 C381 0.931 . S
H368 C383 0.930 . S
C369 H357 0.930 . S
C369 C370 1.399 . S
C369 C374 1.399 . S
C370 C369 1.399 . S
C370 C371 1.376 . S
C371 H358 0.930 . S
C371 C370 1.376 . S
C371 C372 1.388 . S
C372 H359 0.930 . S
C372 C371 1.388 . S
C372 C373 1.390 . S
C373 C372 1.390 . S
C373 C374 1.394 . S
C373 C379 1.465 . S
C374 C369 1.399 . S
C374 C373 1.394 . S
C374 C375 1.516 . S
C375 C374 1.516 . S
C375 C376 1.502 . S
C375 C377 1.561 . S
C375 C378 1.526 . S
C376 H360 0.959 . S
C376 H361 0.959 . S
C376 H362 0.961 . S
C376 C375 1.502 . S
C377 H363 0.960 . S
C377 H364 0.961 . S
C377 H365 0.959 . S
C377 C375 1.561 . S
C378 C375 1.526 . S
C378 C379 1.396 . S
C378 C383 1.390 . S
C379 C373 1.465 . S
C379 C378 1.396 . S
C379 C380 1.399 . S
C380 H366 0.929 . S
C380 C379 1.399 . S
C380 C381 1.385 . S
C381 H367 0.931 . S
C381 C380 1.385 . S
C381 C382 1.389 . S
C382 C381 1.389 . S
C382 C383 1.387 . S
C383 H368 0.930 . S
C383 C378 1.390 . S
C383 C382 1.387 . S
H384 C396 0.930 . S
H385 C398 0.930 . S
H386 C399 0.930 . S
H387 C403 0.959 . S
H388 C403 0.959 . S
H389 C403 0.961 . S
H390 C404 0.960 . S
H391 C404 0.961 . S
H392 C404 0.959 . S
H393 C407 0.929 . S
H394 C408 0.931 . S
H395 C410 0.930 . S
C396 H384 0.930 . S
C396 C397 1.399 . S
C396 C401 1.399 . S
C397 C396 1.399 . S
C397 C398 1.376 . S
C398 H385 0.930 . S
C398 C397 1.376 . S
C398 C399 1.388 . S
C399 H386 0.930 . S
C399 C398 1.388 . S
C399 C400 1.390 . S
C400 C399 1.390 . S
C400 C401 1.394 . S
C400 C406 1.465 . S
C401 C396 1.399 . S
C401 C400 1.394 . S
C401 C402 1.516 . S
C402 C401 1.516 . S
C402 C403 1.502 . S
C402 C404 1.561 . S
C402 C405 1.526 . S
C403 H387 0.959 . S
C403 H388 0.959 . S
C403 H389 0.961 . S
C403 C402 1.502 . S
C404 H390 0.960 . S
C404 H391 0.961 . S
C404 H392 0.959 . S
C404 C402 1.561 . S
C405 C402 1.526 . S
C405 C406 1.396 . S
C405 C410 1.390 1_455 S
C406 C400 1.465 . S
C406 C405 1.396 . S
C406 C407 1.399 . S
C407 H393 0.929 . S
C407 C406 1.399 . S
C407 C408 1.385 1_455 S
C408 H394 0.931 . S
C408 C407 1.385 1_655 S
C408 C409 1.389 . S
C409 C408 1.389 . S
C409 C410 1.387 . S
C410 H395 0.930 . S
C410 C405 1.390 1_655 S
C410 C409 1.387 . S
H411 C423 0.930 . S
H412 C425 0.930 . S
H413 C426 0.930 . S
H414 C430 0.959 . S
H415 C430 0.959 . S
H416 C430 0.961 . S
H417 C431 0.960 . S
H418 C431 0.961 . S
H419 C431 0.959 . S
H420 C434 0.929 . S
H421 C435 0.931 . S
H422 C437 0.930 . S
C423 H411 0.930 . S
C423 C424 1.399 . S
C423 C428 1.399 . S
C424 C423 1.399 . S
C424 C425 1.376 . S
C425 H412 0.930 . S
C425 C424 1.376 . S
C425 C426 1.388 . S
C426 H413 0.930 . S
C426 C425 1.388 . S
C426 C427 1.390 . S
C427 C426 1.390 . S
C427 C428 1.394 . S
C427 C433 1.465 . S
C428 C423 1.399 . S
C428 C427 1.394 . S
C428 C429 1.516 . S
C429 C428 1.516 . S
C429 C430 1.502 . S
C429 C431 1.561 . S
C429 C432 1.526 . S
C430 H414 0.959 . S
C430 H415 0.959 . S
C430 H416 0.961 . S
C430 C429 1.502 . S
C431 H417 0.960 . S
C431 H418 0.961 . S
C431 H419 0.959 . S
C431 C429 1.561 . S
C432 C429 1.526 . S
C432 C433 1.396 . S
C432 C437 1.390 1_565 S
C433 C427 1.465 . S
C433 C432 1.396 . S
C433 C434 1.399 . S
C434 H420 0.929 . S
C434 C433 1.399 . S
C434 C435 1.385 1_565 S
C435 H421 0.931 . S
C435 C434 1.385 1_545 S
C435 C436 1.389 . S
C436 C435 1.389 . S
C436 C437 1.387 . S
C437 H422 0.930 . S
C437 C432 1.390 1_545 S
C437 C436 1.387 . S
H438 C450 0.930 . S
H439 C452 0.930 . S
H440 C453 0.930 . S
H441 C457 0.959 . S
H442 C457 0.959 . S
H443 C457 0.961 . S
H444 C458 0.960 . S
H445 C458 0.961 . S
H446 C458 0.959 . S
H447 C461 0.929 . S
H448 C462 0.931 . S
H449 C464 0.930 . S
C450 H438 0.930 . S
C450 C451 1.399 . S
C450 C455 1.399 . S
C451 C450 1.399 . S
C451 C452 1.376 . S
C452 H439 0.930 . S
C452 C451 1.376 . S
C452 C453 1.388 . S
C453 H440 0.930 . S
C453 C452 1.388 . S
C453 C454 1.390 . S
C454 C453 1.390 . S
C454 C455 1.394 . S
C454 C460 1.465 . S
C455 C450 1.399 . S
C455 C454 1.394 . S
C455 C456 1.516 . S
C456 C455 1.516 . S
C456 C457 1.502 . S
C456 C458 1.561 . S
C456 C459 1.526 . S
C457 H441 0.959 . S
C457 H442 0.959 . S
C457 H443 0.961 . S
C457 C456 1.502 . S
C458 H444 0.960 . S
C458 H445 0.961 . S
C458 H446 0.959 . S
C458 C456 1.561 . S
C459 C456 1.526 . S
C459 C460 1.396 . S
C459 C464 1.390 . S
C460 C454 1.465 . S
C460 C459 1.396 . S
C460 C461 1.399 . S
C461 H447 0.929 . S
C461 C460 1.399 . S
C461 C462 1.385 . S
C462 H448 0.931 . S
C462 C461 1.385 . S
C462 C463 1.389 . S
C463 C462 1.389 . S
C463 C464 1.387 . S
C464 H449 0.930 . S
C464 C459 1.390 . S
C464 C463 1.387 . S
H465 C477 0.930 . S
H466 C479 0.930 . S
H467 C480 0.930 . S
H468 C484 0.959 . S
H469 C484 0.959 . S
H470 C484 0.961 . S
H471 C485 0.960 . S
H472 C485 0.961 . S
H473 C485 0.959 . S
H474 C488 0.929 . S
H475 C489 0.931 . S
H476 C491 0.930 . S
C477 H465 0.930 . S
C477 C478 1.399 . S
C477 C482 1.399 1_455 S
C478 C477 1.399 . S
C478 C479 1.376 . S
C479 H466 0.930 . S
C479 C478 1.376 . S
C479 C480 1.388 1_455 S
C480 H467 0.930 . S
C480 C479 1.388 1_655 S
C480 C481 1.390 . S
C481 C480 1.390 . S
C481 C482 1.394 . S
C481 C487 1.465 . S
C482 C477 1.399 1_655 S
C482 C481 1.394 . S
C482 C483 1.516 . S
C483 C482 1.516 . S
C483 C484 1.502 . S
C483 C485 1.561 . S
C483 C486 1.526 . S
C484 H468 0.959 . S
C484 H469 0.959 . S
C484 H470 0.961 . S
C484 C483 1.502 . S
C485 H471 0.960 . S
C485 H472 0.961 . S
C485 H473 0.959 . S
C485 C483 1.561 . S
C486 C483 1.526 . S
C486 C487 1.396 . S
C486 C491 1.390 . S
C487 C481 1.465 . S
C487 C486 1.396 . S
C487 C488 1.399 . S
C488 H474 0.929 . S
C488 C487 1.399 . S
C488 C489 1.385 . S
C489 H475 0.931 . S
C489 C488 1.385 . S
C489 C490 1.389 . S
C490 C489 1.389 . S
C490 C491 1.387 . S
C491 H476 0.930 . S
C491 C486 1.390 . S
C491 C490 1.387 . S
H492 C504 0.930 . S
H493 C506 0.930 . S
H494 C507 0.930 . S
H495 C511 0.959 . S
H496 C511 0.959 . S
H497 C511 0.961 . S
H498 C512 0.960 . S
H499 C512 0.961 . S
H500 C512 0.959 . S
H501 C515 0.929 . S
H502 C516 0.931 . S
H503 C518 0.930 . S
C504 H492 0.930 . S
C504 C505 1.399 . S
C504 C509 1.399 1_565 S
C505 C504 1.399 . S
C505 C506 1.376 . S
C506 H493 0.930 . S
C506 C505 1.376 . S
C506 C507 1.388 1_565 S
C507 H494 0.930 . S
C507 C506 1.388 1_545 S
C507 C508 1.390 . S
C508 C507 1.390 . S
C508 C509 1.394 . S
C508 C514 1.465 . S
C509 C504 1.399 1_545 S
C509 C508 1.394 . S
C509 C510 1.516 . S
C510 C509 1.516 . S
C510 C511 1.502 . S
C510 C512 1.561 . S
C510 C513 1.526 . S
C511 H495 0.959 . S
C511 H496 0.959 . S
C511 H497 0.961 . S
C511 C510 1.502 . S
C512 H498 0.960 . S
C512 H499 0.961 . S
C512 H500 0.959 . S
C512 C510 1.561 . S
C513 C510 1.526 . S
C513 C514 1.396 . S
C513 C518 1.390 . S
C514 C508 1.465 . S
C514 C513 1.396 . S
C514 C515 1.399 . S
C515 H501 0.929 . S
C515 C514 1.399 . S
C515 C516 1.385 . S
C516 H502 0.931 . S
C516 C515 1.385 . S
C516 C517 1.389 . S
C517 C516 1.389 . S
C517 C518 1.387 . S
C518 H503 0.930 . S
C518 C513 1.390 . S
C518 C517 1.387 . S
H519 C531 0.930 . S
H520 C533 0.930 . S
H521 C534 0.930 . S
H522 C538 0.959 . S
H523 C538 0.959 . S
H524 C538 0.961 . S
H525 C539 0.960 . S
H526 C539 0.961 . S
H527 C539 0.959 . S
H528 C542 0.929 . S
H529 C543 0.931 . S
H530 C545 0.930 . S
C531 H519 0.930 . S
C531 C532 1.399 . S
C531 C536 1.399 . S
C532 C531 1.399 . S
C532 C533 1.376 . S
C533 H520 0.930 . S
C533 C532 1.376 . S
C533 C534 1.388 . S
C534 H521 0.930 . S
C534 C533 1.388 . S
C534 C535 1.390 . S
C535 C534 1.390 . S
C535 C536 1.394 . S
C535 C541 1.465 . S
C536 C531 1.399 . S
C536 C535 1.394 . S
C536 C537 1.516 . S
C537 C536 1.516 . S
C537 C538 1.502 . S
C537 C539 1.561 . S
C537 C540 1.526 . S
C538 H522 0.959 . S
C538 H523 0.959 . S
C538 H524 0.961 . S
C538 C537 1.502 . S
C539 H525 0.960 . S
C539 H526 0.961 . S
C539 H527 0.959 . S
C539 C537 1.561 . S
C540 C537 1.526 . S
C540 C541 1.396 . S
C540 C545 1.390 . S
C541 C535 1.465 . S
C541 C540 1.396 . S
C541 C542 1.399 . S
C542 H528 0.929 . S
C542 C541 1.399 . S
C542 C543 1.385 . S
C543 H529 0.931 . S
C543 C542 1.385 . S
C543 C544 1.389 . S
C544 C543 1.389 . S
C544 C545 1.387 . S
C545 H530 0.930 . S
C545 C540 1.390 . S
C545 C544 1.387 . S
H546 C558 0.930 . S
H547 C560 0.930 . S
H548 C561 0.930 . S
H549 C565 0.959 . S
H550 C565 0.959 . S
H551 C565 0.961 . S
H552 C566 0.960 . S
H553 C566 0.961 . S
H554 C566 0.959 . S
H555 C569 0.929 . S
H556 C570 0.931 . S
H557 C572 0.930 . S
C558 H546 0.930 . S
C558 C559 1.399 . S
C558 C563 1.399 1_455 S
C559 C558 1.399 . S
C559 C560 1.376 . S
C560 H547 0.930 . S
C560 C559 1.376 . S
C560 C561 1.388 1_455 S
C561 H548 0.930 . S
C561 C560 1.388 1_655 S
C561 C562 1.390 . S
C562 C561 1.390 . S
C562 C563 1.394 . S
C562 C568 1.465 . S
C563 C558 1.399 1_655 S
C563 C562 1.394 . S
C563 C564 1.516 . S
C564 C563 1.516 . S
C564 C565 1.502 . S
C564 C566 1.561 . S
C564 C567 1.526 . S
C565 H549 0.959 . S
C565 H550 0.959 . S
C565 H551 0.961 . S
C565 C564 1.502 . S
C566 H552 0.960 . S
C566 H553 0.961 . S
C566 H554 0.959 . S
C566 C564 1.561 . S
C567 C564 1.526 . S
C567 C568 1.396 . S
C567 C572 1.390 . S
C568 C562 1.465 . S
C568 C567 1.396 . S
C568 C569 1.399 . S
C569 H555 0.929 . S
C569 C568 1.399 . S
C569 C570 1.385 . S
C570 H556 0.931 . S
C570 C569 1.385 . S
C570 C571 1.389 . S
C571 C570 1.389 . S
C571 C572 1.387 . S
C572 H557 0.930 . S
C572 C567 1.390 . S
C572 C571 1.387 . S
H573 C585 0.930 . S
H574 C587 0.930 1_455 S
H575 C588 0.930 . S
H576 C592 0.959 . S
H577 C592 0.959 . S
H578 C592 0.961 . S
H579 C593 0.960 . S
H580 C593 0.961 . S
H581 C593 0.959 . S
H582 C596 0.929 . S
H583 C597 0.931 . S
H584 C599 0.930 . S
C585 H573 0.930 . S
C585 C586 1.399 . S
C585 C590 1.399 . S
C586 C585 1.399 . S
C586 C587 1.376 . S
C587 H574 0.930 1_655 S
C587 C586 1.376 . S
C587 C588 1.388 . S
C588 H575 0.930 . S
C588 C587 1.388 . S
C588 C589 1.390 . S
C589 C588 1.390 . S
C589 C590 1.394 . S
C589 C595 1.465 . S
C590 C585 1.399 . S
C590 C589 1.394 . S
C590 C591 1.516 . S
C591 C590 1.516 . S
C591 C592 1.502 . S
C591 C593 1.561 . S
C591 C594 1.526 . S
C592 H576 0.959 . S
C592 H577 0.959 . S
C592 H578 0.961 . S
C592 C591 1.502 . S
C593 H579 0.960 . S
C593 H580 0.961 . S
C593 H581 0.959 . S
C593 C591 1.561 . S
C594 C591 1.526 . S
C594 C595 1.396 . S
C594 C599 1.390 1_545 S
C595 C589 1.465 . S
C595 C594 1.396 . S
C595 C596 1.399 . S
C596 H582 0.929 . S
C596 C595 1.399 . S
C596 C597 1.385 1_545 S
C597 H583 0.931 . S
C597 C596 1.385 1_565 S
C597 C598 1.389 . S
C598 C597 1.389 . S
C598 C599 1.387 . S
C599 H584 0.930 . S
C599 C594 1.390 1_565 S
C599 C598 1.387 . S
H600 C612 0.930 . S
H601 C614 0.930 . S
H602 C615 0.930 . S
H603 C619 0.959 . S
H604 C619 0.959 1_565 S
H605 C619 0.961 1_565 S
H606 C620 0.960 1_565 S
H607 C620 0.961 1_565 S
H608 C620 0.959 . S
H609 C623 0.929 . S
H610 C624 0.931 . S
H611 C626 0.930 . S
C612 H600 0.930 . S
C612 C613 1.399 . S
C612 C617 1.399 . S
C613 C612 1.399 . S
C613 C614 1.376 . S
C614 H601 0.930 . S
C614 C613 1.376 . S
C614 C615 1.388 . S
C615 H602 0.930 . S
C615 C614 1.388 . S
C615 C616 1.390 . S
C616 C615 1.390 . S
C616 C617 1.394 . S
C616 C622 1.465 . S
C617 C612 1.399 . S
C617 C616 1.394 . S
C617 C618 1.516 . S
C618 C617 1.516 . S
C618 C619 1.502 . S
C618 C620 1.561 . S
C618 C621 1.526 . S
C619 H603 0.959 . S
C619 H604 0.959 1_545 S
C619 H605 0.961 1_545 S
C619 C618 1.502 . S
C620 H606 0.960 1_545 S
C620 H607 0.961 1_545 S
C620 H608 0.959 . S
C620 C618 1.561 . S
C621 C618 1.526 . S
C621 C622 1.396 . S
C621 C626 1.390 . S
C622 C616 1.465 . S
C622 C621 1.396 . S
C622 C623 1.399 . S
C623 H609 0.929 . S
C623 C622 1.399 . S
C623 C624 1.385 . S
C624 H610 0.931 . S
C624 C623 1.385 . S
C624 C625 1.389 . S
C625 C624 1.389 . S
C625 C626 1.387 . S
C626 H611 0.930 . S
C626 C621 1.390 . S
C626 C625 1.387 . S
H627 C639 0.930 . S
H628 C641 0.930 . S
H629 C642 0.930 . S
H630 C646 0.959 . S
H631 C646 0.959 . S
H632 C646 0.961 . S
H633 C647 0.960 . S
H634 C647 0.961 . S
H635 C647 0.959 . S
H636 C650 0.929 . S
H637 C651 0.931 . S
H638 C653 0.930 . S
C639 H627 0.930 . S
C639 C640 1.399 . S
C639 C644 1.399 . S
C640 C639 1.399 . S
C640 C641 1.376 . S
C641 H628 0.930 . S
C641 C640 1.376 . S
C641 C642 1.388 . S
C642 H629 0.930 . S
C642 C641 1.388 . S
C642 C643 1.390 . S
C643 C642 1.390 . S
C643 C644 1.394 . S
C643 C649 1.465 . S
C644 C639 1.399 . S
C644 C643 1.394 . S
C644 C645 1.516 . S
C645 C644 1.516 . S
C645 C646 1.502 . S
C645 C647 1.561 . S
C645 C648 1.526 . S
C646 H630 0.959 . S
C646 H631 0.959 . S
C646 H632 0.961 . S
C646 C645 1.502 . S
C647 H633 0.960 . S
C647 H634 0.961 . S
C647 H635 0.959 . S
C647 C645 1.561 . S
C648 C645 1.526 . S
C648 C649 1.396 . S
C648 C653 1.390 . S
C649 C643 1.465 . S
C649 C648 1.396 . S
C649 C650 1.399 . S
C650 H636 0.929 . S
C650 C649 1.399 . S
C650 C651 1.385 . S
C651 H637 0.931 . S
C651 C650 1.385 . S
C651 C652 1.389 . S
C652 C651 1.389 . S
C652 C653 1.387 . S
C653 H638 0.930 . S
C653 C648 1.390 . S
C653 C652 1.387 . S
H654 C666 0.930 . S
H655 C668 0.930 . S
H656 C669 0.930 . S
H657 C673 0.959 1_455 S
H658 C673 0.959 1_455 S
H659 C673 0.961 1_455 S
H660 C674 0.960 . S
H661 C674 0.961 . S
H662 C674 0.959 . S
H663 C677 0.929 . S
H664 C678 0.931 . S
H665 C680 0.930 . S
C666 H654 0.930 . S
C666 C667 1.399 . S
C666 C671 1.399 . S
C667 C666 1.399 . S
C667 C668 1.376 . S
C668 H655 0.930 . S
C668 C667 1.376 . S
C668 C669 1.388 . S
C669 H656 0.930 . S
C669 C668 1.388 . S
C669 C670 1.390 . S
C670 C669 1.390 . S
C670 C671 1.394 . S
C670 C676 1.465 . S
C671 C666 1.399 . S
C671 C670 1.394 . S
C671 C672 1.516 . S
C672 C671 1.516 . S
C672 C673 1.502 . S
C672 C674 1.561 . S
C672 C675 1.526 . S
C673 H657 0.959 1_655 S
C673 H658 0.959 1_655 S
C673 H659 0.961 1_655 S
C673 C672 1.502 . S
C674 H660 0.960 . S
C674 H661 0.961 . S
C674 H662 0.959 . S
C674 C672 1.561 . S
C675 C672 1.526 . S
C675 C676 1.396 . S
C675 C680 1.390 . S
C676 C670 1.465 . S
C676 C675 1.396 . S
C676 C677 1.399 . S
C677 H663 0.929 . S
C677 C676 1.399 . S
C677 C678 1.385 . S
C678 H664 0.931 . S
C678 C677 1.385 . S
C678 C679 1.389 . S
C679 C678 1.389 . S
C679 C680 1.387 . S
C680 H665 0.930 . S
C680 C675 1.390 . S
C680 C679 1.387 . S
H681 C693 0.930 . S
H682 C695 0.930 . S
H683 C696 0.930 . S
H684 C700 0.959 . S
H685 C700 0.959 1_655 S
H686 C700 0.956 1_655 S
H687 C701 0.960 . S
H688 C701 0.961 . S
H689 C701 0.959 1_455 S
H690 C704 0.929 . S
H691 C705 0.931 . S
H692 C707 0.930 . S
C693 H681 0.930 . S
C693 C694 1.399 . S
C693 C698 1.399 . S
C694 C693 1.399 . S
C694 C695 1.376 . S
C695 H682 0.930 . S
C695 C694 1.376 . S
C695 C696 1.388 . S
C696 H683 0.930 . S
C696 C695 1.388 . S
C696 C697 1.390 . S
C697 C696 1.390 . S
C697 C698 1.394 . S
C697 C703 1.465 . S
C698 C693 1.399 . S
C698 C697 1.394 . S
C698 C699 1.516 . S
C699 C698 1.516 . S
C699 C700 1.502 . S
C699 C701 1.561 1_455 S
C699 C702 1.526 . S
C700 H684 0.959 . S
C700 H685 0.959 1_455 S
C700 H686 0.956 1_455 S
C700 C699 1.502 . S
C701 H687 0.960 . S
C701 H688 0.961 . S
C701 H689 0.959 1_655 S
C701 C699 1.561 1_655 S
C702 C699 1.526 . S
C702 C703 1.396 . S
C702 C707 1.390 . S
C703 C697 1.465 . S
C703 C702 1.396 . S
C703 C704 1.399 . S
C704 H690 0.929 . S
C704 C703 1.399 . S
C704 C705 1.385 . S
C705 H691 0.931 . S
C705 C704 1.385 . S
C705 C706 1.389 . S
C706 C705 1.389 . S
C706 C707 1.387 . S
C707 H692 0.930 . S
C707 C702 1.390 . S
C707 C706 1.387 . S
H708 C720 0.930 . S
H709 C722 0.930 . S
H710 C723 0.930 . S
H711 C727 0.959 . S
H712 C727 0.959 1_545 S
H713 C727 0.961 1_545 S
H714 C728 0.960 . S
H715 C728 0.961 . S
H716 C728 0.959 1_565 S
H717 C731 0.929 . S
H718 C732 0.931 . S
H719 C734 0.930 . S
C720 H708 0.930 . S
C720 C721 1.399 . S
C720 C725 1.399 . S
C721 C720 1.399 . S
C721 C722 1.376 . S
C722 H709 0.930 . S
C722 C721 1.376 . S
C722 C723 1.388 . S
C723 H710 0.930 . S
C723 C722 1.388 . S
C723 C724 1.390 . S
C724 C723 1.390 . S
C724 C725 1.394 . S
C724 C730 1.465 . S
C725 C720 1.399 . S
C725 C724 1.394 . S
C725 C726 1.516 . S
C726 C725 1.516 . S
C726 C727 1.502 . S
C726 C728 1.561 1_565 S
C726 C729 1.526 . S
C727 H711 0.959 . S
C727 H712 0.959 1_565 S
C727 H713 0.961 1_565 S
C727 C726 1.502 . S
C728 H714 0.960 . S
C728 H715 0.961 . S
C728 H716 0.959 1_545 S
C728 C726 1.561 1_545 S
C729 C726 1.526 . S
C729 C730 1.396 . S
C729 C734 1.390 . S
C730 C724 1.465 . S
C730 C729 1.396 . S
C730 C731 1.399 . S
C731 H717 0.929 . S
C731 C730 1.399 . S
C731 C732 1.385 . S
C732 H718 0.931 . S
C732 C731 1.385 . S
C732 C733 1.389 . S
C733 C732 1.389 . S
C733 C734 1.387 . S
C734 H719 0.930 . S
C734 C729 1.390 . S
C734 C733 1.387 . S
H735 C747 0.930 . S
H736 C749 0.930 . S
H737 C750 0.930 . S
H738 C754 0.959 . S
H739 C754 0.959 . S
H740 C754 0.961 . S
H741 C755 0.960 . S
H742 C755 0.961 . S
H743 C755 0.959 . S
H744 C758 0.929 . S
H745 C759 0.931 . S
H746 C761 0.930 . S
C747 H735 0.930 . S
C747 C748 1.399 . S
C747 C752 1.399 . S
C748 C747 1.399 . S
C748 C749 1.376 . S
C749 H736 0.930 . S
C749 C748 1.376 . S
C749 C750 1.388 . S
C750 H737 0.930 . S
C750 C749 1.388 . S
C750 C751 1.390 . S
C751 C750 1.390 . S
C751 C752 1.394 . S
C751 C757 1.465 . S
C752 C747 1.399 . S
C752 C751 1.394 . S
C752 C753 1.516 . S
C753 C752 1.516 . S
C753 C754 1.502 . S
C753 C755 1.561 . S
C753 C756 1.526 . S
C754 H738 0.959 . S
C754 H739 0.959 . S
C754 H740 0.961 . S
C754 C753 1.502 . S
C755 H741 0.960 . S
C755 H742 0.961 . S
C755 H743 0.959 . S
C755 C753 1.561 . S
C756 C753 1.526 . S
C756 C757 1.396 . S
C756 C761 1.390 . S
C757 C751 1.465 . S
C757 C756 1.396 . S
C757 C758 1.399 . S
C758 H744 0.929 . S
C758 C757 1.399 . S
C758 C759 1.385 . S
C759 H745 0.931 . S
C759 C758 1.385 . S
C759 C760 1.389 . S
C760 C759 1.389 . S
C760 C761 1.387 . S
C761 H746 0.930 . S
C761 C756 1.390 . S
C761 C760 1.387 . S
H762 C774 0.930 . S
H763 C776 0.930 . S
H764 C777 0.930 . S
H765 C781 0.959 . S
H766 C781 0.959 1_554 S
H767 C781 0.961 1_565 S
H768 C782 0.960 . S
H769 C782 0.961 . S
H770 C782 0.959 . S
H771 C785 0.929 . S
H772 C786 0.931 . S
H773 C788 0.930 . S
C774 H762 0.930 . S
C774 C775 1.399 . S
C774 C779 1.399 . S
C775 C774 1.399 . S
C775 C776 1.376 . S
C776 H763 0.930 . S
C776 C775 1.376 . S
C776 C777 1.388 . S
C777 H764 0.930 . S
C777 C776 1.388 . S
C777 C778 1.390 . S
C778 C777 1.390 . S
C778 C779 1.394 . S
C778 C784 1.465 1_566 S
C779 C774 1.399 . S
C779 C778 1.394 . S
C779 C780 1.516 1_556 S
C780 C779 1.516 1_554 S
C780 C781 1.502 1_564 S
C780 C782 1.561 . S
C780 C783 1.526 1_565 S
C781 H765 0.959 . S
C781 H766 0.959 1_556 S
C781 H767 0.961 1_545 S
C781 C780 1.502 1_546 S
C782 H768 0.960 . S
C782 H769 0.961 . S
C782 H770 0.959 . S
C782 C780 1.561 . S
C783 C780 1.526 1_545 S
C783 C784 1.396 . S
C783 C788 1.390 . S
C784 C778 1.465 1_544 S
C784 C783 1.396 . S
C784 C785 1.399 . S
C785 H771 0.929 . S
C785 C784 1.399 . S
C785 C786 1.385 . S
C786 H772 0.931 . S
C786 C785 1.385 . S
C786 C787 1.389 . S
C787 C786 1.389 . S
C787 C788 1.387 . S
C788 H773 0.930 . S
C788 C783 1.390 . S
C788 C787 1.387 . S
H789 C801 0.930 . S
H790 C803 0.930 . S
H791 C804 0.930 . S
H792 C808 0.959 . S
H793 C808 0.959 . S
H794 C808 0.961 . S
H795 C809 0.960 . S
H796 C809 0.961 . S
H797 C809 0.959 . S
H798 C812 0.929 . S
H799 C813 0.931 . S
H800 C815 0.930 . S
C801 H789 0.930 . S
C801 C802 1.399 . S
C801 C806 1.399 . S
C802 C801 1.399 . S
C802 C803 1.376 . S
C803 H790 0.930 . S
C803 C802 1.376 . S
C803 C804 1.388 . S
C804 H791 0.930 . S
C804 C803 1.388 . S
C804 C805 1.390 . S
C805 C804 1.390 . S
C805 C806 1.394 . S
C805 C811 1.465 . S
C806 C801 1.399 . S
C806 C805 1.394 . S
C806 C807 1.516 . S
C807 C806 1.516 . S
C807 C808 1.502 . S
C807 C809 1.561 . S
C807 C810 1.526 . S
C808 H792 0.959 . S
C808 H793 0.959 . S
C808 H794 0.961 . S
C808 C807 1.502 . S
C809 H795 0.960 . S
C809 H796 0.961 . S
C809 H797 0.959 . S
C809 C807 1.561 . S
C810 C807 1.526 . S
C810 C811 1.396 . S
C810 C815 1.390 . S
C811 C805 1.465 . S
C811 C810 1.396 . S
C811 C812 1.399 . S
C812 H798 0.929 . S
C812 C811 1.399 . S
C812 C813 1.385 . S
C813 H799 0.931 . S
C813 C812 1.385 . S
C813 C814 1.389 . S
C814 C813 1.389 . S
C814 C815 1.387 . S
C815 H800 0.930 . S
C815 C810 1.390 . S
C815 C814 1.387 . S
H816 C828 0.930 . S
H817 C830 0.930 1_655 S
H818 C831 0.930 . S
H819 C835 0.959 . S
H820 C835 0.959 . S
H821 C835 0.961 . S
H822 C836 0.960 1_556 S
H823 C836 0.961 . S
H824 C836 0.959 1_655 S
H825 C839 0.929 . S
H826 C840 0.931 . S
H827 C842 0.930 1_455 S
C828 H816 0.930 . S
C828 C829 1.399 . S
C828 C833 1.399 . S
C829 C828 1.399 . S
C829 C830 1.376 . S
C830 H817 0.930 1_455 S
C830 C829 1.376 . S
C830 C831 1.388 1_455 S
C831 H818 0.930 . S
C831 C830 1.388 1_655 S
C831 C832 1.390 . S
C832 C831 1.390 . S
C832 C833 1.394 1_655 S
C832 C838 1.465 1_556 S
C833 C828 1.399 . S
C833 C832 1.394 1_455 S
C833 C834 1.516 1_556 S
C834 C833 1.516 1_554 S
C834 C835 1.502 . S
C834 C836 1.561 . S
C834 C837 1.526 1_455 S
C835 H819 0.959 . S
C835 H820 0.959 . S
C835 H821 0.961 . S
C835 C834 1.502 . S
C836 H822 0.960 1_554 S
C836 H823 0.961 . S
C836 H824 0.959 1_455 S
C836 C834 1.561 . S
C837 C834 1.526 1_655 S
C837 C838 1.396 . S
C837 C842 1.390 . S
C838 C832 1.465 1_554 S
C838 C837 1.396 . S
C838 C839 1.399 . S
C839 H825 0.929 . S
C839 C838 1.399 . S
C839 C840 1.385 . S
C840 H826 0.931 . S
C840 C839 1.385 . S
C840 C841 1.389 . S
C841 C840 1.389 . S
C841 C842 1.387 . S
C842 H827 0.930 1_655 S
C842 C837 1.390 . S
C842 C841 1.387 . S
H843 C855 0.930 . S
H844 C857 0.925 1_565 S
H845 C858 0.930 . S
H846 C862 0.959 . S
H847 C862 0.959 . S
H848 C862 0.961 . S
H849 C863 0.960 . S
H850 C863 0.961 . S
H851 C863 0.959 . S
H852 C866 0.929 . S
H853 C867 0.931 . S
H854 C869 0.930 1_545 S
C855 H843 0.930 . S
C855 C856 1.399 . S
C855 C860 1.399 . S
C856 C855 1.399 . S
C856 C857 1.392 . S
C857 H844 0.925 1_545 S
C857 C856 1.392 . S
C857 C858 1.379 1_545 S
C858 H845 0.930 . S
C858 C857 1.379 1_565 S
C858 C859 1.390 . S
C859 C858 1.390 . S
C859 C860 1.394 1_565 S
C859 C865 1.465 . S
C860 C855 1.399 . S
C860 C859 1.394 1_545 S
C860 C861 1.516 . S
C861 C860 1.516 . S
C861 C862 1.502 . S
C861 C863 1.561 . S
C861 C864 1.526 . S
C862 H846 0.959 . S
C862 H847 0.959 . S
C862 H848 0.961 . S
C862 C861 1.502 . S
C863 H849 0.960 . S
C863 H850 0.961 . S
C863 H851 0.959 . S
C863 C861 1.561 . S
C864 C861 1.526 . S
C864 C865 1.396 1_545 S
C864 C869 1.390 1_545 S
C865 C859 1.465 . S
C865 C864 1.396 1_565 S
C865 C866 1.399 . S
C866 H852 0.929 . S
C866 C865 1.399 . S
C866 C867 1.385 . S
C867 H853 0.931 . S
C867 C866 1.385 . S
C867 C868 1.389 . S
C868 C867 1.389 . S
C868 C869 1.387 . S
C869 H854 0.930 1_565 S
C869 C864 1.390 1_565 S
C869 C868 1.387 . S
H870 C882 0.930 . S
H871 C884 0.930 . S
H872 C885 0.930 . S
H873 C889 0.959 . S
H874 C889 0.959 . S
H875 C889 0.961 . S
H876 C890 0.960 1_554 S
H877 C890 0.961 . S
H878 C890 0.960 1_554 S
H879 C893 0.929 . S
H880 C894 0.931 . S
H881 C896 0.930 . S
C882 H870 0.930 . S
C882 C883 1.399 . S
C882 C887 1.399 . S
C883 C882 1.399 . S
C883 C884 1.376 . S
C884 H871 0.930 . S
C884 C883 1.376 . S
C884 C885 1.388 . S
C885 H872 0.930 . S
C885 C884 1.388 . S
C885 C886 1.390 . S
C886 C885 1.390 . S
C886 C887 1.394 . S
C886 C892 1.465 1_554 S
C887 C882 1.399 . S
C887 C886 1.394 . S
C887 C888 1.516 1_554 S
C888 C887 1.516 1_556 S
C888 C889 1.502 . S
C888 C890 1.561 . S
C888 C891 1.526 . S
C889 H873 0.959 . S
C889 H874 0.959 . S
C889 H875 0.961 . S
C889 C888 1.502 . S
C890 H876 0.960 1_556 S
C890 H877 0.961 . S
C890 H878 0.960 1_556 S
C890 C888 1.561 . S
C891 C888 1.526 . S
C891 C892 1.396 . S
C891 C896 1.390 . S
C892 C886 1.465 1_556 S
C892 C891 1.396 . S
C892 C893 1.399 . S
C893 H879 0.929 . S
C893 C892 1.399 . S
C893 C894 1.385 . S
C894 H880 0.931 . S
C894 C893 1.385 . S
C894 C895 1.389 . S
C895 C894 1.389 . S
C895 C896 1.387 . S
C896 H881 0.930 . S
C896 C891 1.390 . S
C896 C895 1.387 . S
H897 C909 0.930 . S
H898 C911 0.930 . S
H899 C912 0.930 . S
H900 C916 0.959 . S
H901 C916 0.959 . S
H902 C916 0.961 . S
H903 C917 0.960 . S
H904 C917 0.961 . S
H905 C917 0.959 . S
H906 C920 0.929 . S
H907 C921 0.931 . S
H908 C923 0.930 . S
C909 H897 0.930 . S
C909 C910 1.399 . S
C909 C914 1.399 . S
C910 C909 1.399 . S
C910 C911 1.376 . S
C911 H898 0.930 . S
C911 C910 1.376 . S
C911 C912 1.388 . S
C912 H899 0.930 . S
C912 C911 1.388 . S
C912 C913 1.390 . S
C913 C912 1.390 . S
C913 C914 1.394 . S
C913 C919 1.465 1_455 S
C914 C909 1.399 . S
C914 C913 1.394 . S
C914 C915 1.516 . S
C915 C914 1.516 . S
C915 C916 1.502 . S
C915 C917 1.561 1_455 S
C915 C918 1.526 1_455 S
C916 H900 0.959 . S
C916 H901 0.959 . S
C916 H902 0.961 . S
C916 C915 1.502 . S
C917 H903 0.960 . S
C917 H904 0.961 . S
C917 H905 0.959 . S
C917 C915 1.561 1_655 S
C918 C915 1.526 1_655 S
C918 C919 1.396 . S
C918 C923 1.390 . S
C919 C913 1.465 1_655 S
C919 C918 1.396 . S
C919 C920 1.399 . S
C920 H906 0.929 . S
C920 C919 1.399 . S
C920 C921 1.385 . S
C921 H907 0.931 . S
C921 C920 1.385 . S
C921 C922 1.389 . S
C922 C921 1.389 . S
C922 C923 1.387 . S
C923 H908 0.930 . S
C923 C918 1.390 . S
C923 C922 1.387 . S
H924 C936 0.930 . S
H925 C938 0.930 . S
H926 C939 0.930 . S
H927 C943 0.959 . S
H928 C943 0.959 . S
H929 C943 0.961 . S
H930 C944 0.960 . S
H931 C944 0.961 . S
H932 C944 0.959 . S
H933 C947 0.929 . S
H934 C948 0.931 . S
H935 C950 0.930 . S
C936 H924 0.930 . S
C936 C937 1.399 . S
C936 C941 1.399 . S
C937 C936 1.399 . S
C937 C938 1.376 . S
C938 H925 0.930 . S
C938 C937 1.376 . S
C938 C939 1.388 . S
C939 H926 0.930 . S
C939 C938 1.388 . S
C939 C940 1.390 . S
C940 C939 1.390 . S
C940 C941 1.394 . S
C940 C946 1.465 . S
C941 C936 1.399 . S
C941 C940 1.394 . S
C941 C942 1.516 . S
C942 C941 1.516 . S
C942 C943 1.502 . S
C942 C944 1.561 . S
C942 C945 1.526 . S
C943 H927 0.959 . S
C943 H928 0.959 . S
C943 H929 0.961 . S
C943 C942 1.502 . S
C944 H930 0.960 . S
C944 H931 0.961 . S
C944 H932 0.959 . S
C944 C942 1.561 . S
C945 C942 1.526 . S
C945 C946 1.396 . S
C945 C950 1.390 . S
C946 C940 1.465 . S
C946 C945 1.396 . S
C946 C947 1.399 . S
C947 H933 0.929 . S
C947 C946 1.399 . S
C947 C948 1.385 . S
C948 H934 0.931 . S
C948 C947 1.385 . S
C948 C949 1.389 . S
C949 C948 1.389 . S
C949 C950 1.387 . S
C950 H935 0.930 . S
C950 C945 1.390 . S
C950 C949 1.387 . S
H951 C963 0.930 . S
H952 C965 0.930 . S
H953 C966 0.930 . S
H954 C970 0.959 . S
H955 C970 0.959 . S
H956 C970 0.961 . S
H957 C971 0.960 . S
H958 C971 0.961 . S
H959 C971 0.959 . S
H960 C974 0.929 . S
H961 C975 0.931 . S
H962 C977 0.930 . S
C963 H951 0.930 . S
C963 C964 1.399 . S
C963 C968 1.399 . S
C964 C963 1.399 . S
C964 C965 1.376 . S
C965 H952 0.930 . S
C965 C964 1.376 . S
C965 C966 1.388 . S
C966 H953 0.930 . S
C966 C965 1.388 . S
C966 C967 1.390 . S
C967 C966 1.390 . S
C967 C968 1.394 . S
C967 C973 1.465 . S
C968 C963 1.399 . S
C968 C967 1.394 . S
C968 C969 1.516 . S
C969 C968 1.516 . S
C969 C970 1.502 . S
C969 C971 1.561 . S
C969 C972 1.526 . S
C970 H954 0.959 . S
C970 H955 0.959 . S
C970 H956 0.961 . S
C970 C969 1.502 . S
C971 H957 0.960 . S
C971 H958 0.961 . S
C971 H959 0.959 . S
C971 C969 1.561 . S
C972 C969 1.526 . S
C972 C973 1.396 . S
C972 C977 1.390 . S
C973 C967 1.465 . S
C973 C972 1.396 . S
C973 C974 1.399 . S
C974 H960 0.929 . S
C974 C973 1.399 . S
C974 C975 1.385 . S
C975 H961 0.931 . S
C975 C974 1.385 . S
C975 C976 1.389 . S
C976 C975 1.389 . S
C976 C977 1.387 . S
C977 H962 0.930 . S
C977 C972 1.390 . S
C977 C976 1.387 . S
H978 C990 0.930 . S
H979 C992 0.930 . S
H980 C993 0.930 . S
H981 C997 0.959 . S
H982 C997 0.959 . S
H983 C997 0.961 . S
H984 C998 0.960 . S
H985 C998 0.961 . S
H986 C998 0.959 . S
H987 C1001 0.929 . S
H988 C1002 0.931 . S
H989 C1004 0.930 . S
C990 H978 0.930 . S
C990 C991 1.399 . S
C990 C995 1.399 . S
C991 C990 1.399 . S
C991 C992 1.376 . S
C992 H979 0.930 . S
C992 C991 1.376 . S
C992 C993 1.388 . S
C993 H980 0.930 . S
C993 C992 1.388 . S
C993 C994 1.390 . S
C994 C993 1.390 . S
C994 C995 1.394 . S
C994 C1000 1.465 . S
C995 C990 1.399 . S
C995 C994 1.394 . S
C995 C996 1.516 . S
C996 C995 1.516 . S
C996 C997 1.502 . S
C996 C998 1.561 . S
C996 C999 1.526 . S
C997 H981 0.959 . S
C997 H982 0.959 . S
C997 H983 0.961 . S
C997 C996 1.502 . S
C998 H984 0.960 . S
C998 H985 0.961 . S
C998 H986 0.959 . S
C998 C996 1.561 . S
C999 C996 1.526 . S
C999 C1000 1.396 . S
C999 C1004 1.390 . S
C1000 C994 1.465 . S
C1000 C999 1.396 . S
C1000 C1001 1.399 . S
C1001 H987 0.929 . S
C1001 C1000 1.399 . S
C1001 C1002 1.385 . S
C1002 H988 0.931 . S
C1002 C1001 1.385 . S
C1002 C1003 1.389 . S
C1003 C1002 1.389 . S
C1003 C1004 1.387 . S
C1004 H989 0.930 . S
C1004 C999 1.390 . S
C1004 C1003 1.387 . S
H1005 C1017 0.930 . S
H1006 C1019 0.930 . S
H1007 C1020 0.930 . S
H1008 C1024 0.959 . S
H1009 C1024 0.959 . S
H1010 C1024 0.961 . S
H1011 C1025 0.960 . S
H1012 C1025 0.961 . S
H1013 C1025 0.959 . S
H1014 C1028 0.929 . S
H1015 C1029 0.931 . S
H1016 C1031 0.930 . S
C1017 H1005 0.930 . S
C1017 C1018 1.399 . S
C1017 C1022 1.399 . S
C1018 C1017 1.399 . S
C1018 C1019 1.376 . S
C1019 H1006 0.930 . S
C1019 C1018 1.376 . S
C1019 C1020 1.388 . S
C1020 H1007 0.930 . S
C1020 C1019 1.388 . S
C1020 C1021 1.390 . S
C1021 C1020 1.390 . S
C1021 C1022 1.394 . S
C1021 C1027 1.465 . S
C1022 C1017 1.399 . S
C1022 C1021 1.394 . S
C1022 C1023 1.516 . S
C1023 C1022 1.516 . S
C1023 C1024 1.502 . S
C1023 C1025 1.561 . S
C1023 C1026 1.526 . S
C1024 H1008 0.959 . S
C1024 H1009 0.959 . S
C1024 H1010 0.961 . S
C1024 C1023 1.502 . S
C1025 H1011 0.960 . S
C1025 H1012 0.961 . S
C1025 H1013 0.959 . S
C1025 C1023 1.561 . S
C1026 C1023 1.526 . S
C1026 C1027 1.396 . S
C1026 C1031 1.390 . S
C1027 C1021 1.465 . S
C1027 C1026 1.396 . S
C1027 C1028 1.399 . S
C1028 H1014 0.929 . S
C1028 C1027 1.399 . S
C1028 C1029 1.385 . S
C1029 H1015 0.931 . S
C1029 C1028 1.385 . S
C1029 C1030 1.389 . S
C1030 C1029 1.389 . S
C1030 C1031 1.387 . S
C1031 H1016 0.930 . S
C1031 C1026 1.390 . S
C1031 C1030 1.387 . S
H1032 C1044 0.930 . S
H1033 C1046 0.930 . S
H1034 C1047 0.930 . S
H1035 C1051 0.959 . S
H1036 C1051 0.959 . S
H1037 C1051 0.961 . S
H1038 C1052 0.960 . S
H1039 C1052 0.961 . S
H1040 C1052 0.959 . S
H1041 C1055 0.929 . S
H1042 C1056 0.931 . S
H1043 C1058 0.930 . S
C1044 H1032 0.930 . S
C1044 C1045 1.399 . S
C1044 C1049 1.399 . S
C1045 C1044 1.399 . S
C1045 C1046 1.376 . S
C1046 H1033 0.930 . S
C1046 C1045 1.376 . S
C1046 C1047 1.388 . S
C1047 H1034 0.930 . S
C1047 C1046 1.388 . S
C1047 C1048 1.390 . S
C1048 C1047 1.390 . S
C1048 C1049 1.394 . S
C1048 C1054 1.465 . S
C1049 C1044 1.399 . S
C1049 C1048 1.394 . S
C1049 C1050 1.516 . S
C1050 C1049 1.516 . S
C1050 C1051 1.502 . S
C1050 C1052 1.561 . S
C1050 C1053 1.526 . S
C1051 H1035 0.959 . S
C1051 H1036 0.959 . S
C1051 H1037 0.961 . S
C1051 C1050 1.502 . S
C1052 H1038 0.960 . S
C1052 H1039 0.961 . S
C1052 H1040 0.959 . S
C1052 C1050 1.561 . S
C1053 C1050 1.526 . S
C1053 C1054 1.396 . S
C1053 C1058 1.390 . S
C1054 C1048 1.465 . S
C1054 C1053 1.396 . S
C1054 C1055 1.399 . S
C1055 H1041 0.929 . S
C1055 C1054 1.399 . S
C1055 C1056 1.385 . S
C1056 H1042 0.931 . S
C1056 C1055 1.385 . S
C1056 C1057 1.389 . S
C1057 C1056 1.389 . S
C1057 C1058 1.387 . S
C1058 H1043 0.930 . S
C1058 C1053 1.390 . S
C1058 C1057 1.387 . S
H1059 C1071 0.930 . S
H1060 C1073 0.930 . S
H1061 C1074 0.930 . S
H1062 C1078 0.959 . S
H1063 C1078 0.959 . S
H1064 C1078 0.961 . S
H1065 C1079 0.960 . S
H1066 C1079 0.961 . S
H1067 C1079 0.959 . S
H1068 C1082 0.929 . S
H1069 C1083 0.931 . S
H1070 C1085 0.930 . S
C1071 H1059 0.930 . S
C1071 C1072 1.399 . S
C1071 C1076 1.399 . S
C1072 C1071 1.399 . S
C1072 C1073 1.376 . S
C1073 H1060 0.930 . S
C1073 C1072 1.376 . S
C1073 C1074 1.388 . S
C1074 H1061 0.930 . S
C1074 C1073 1.388 . S
C1074 C1075 1.390 . S
C1075 C1074 1.390 . S
C1075 C1076 1.394 . S
C1075 C1081 1.465 . S
C1076 C1071 1.399 . S
C1076 C1075 1.394 . S
C1076 C1077 1.516 . S
C1077 C1076 1.516 . S
C1077 C1078 1.502 . S
C1077 C1079 1.561 . S
C1077 C1080 1.526 . S
C1078 H1062 0.959 . S
C1078 H1063 0.959 . S
C1078 H1064 0.961 . S
C1078 C1077 1.502 . S
C1079 H1065 0.960 . S
C1079 H1066 0.961 . S
C1079 H1067 0.959 . S
C1079 C1077 1.561 . S
C1080 C1077 1.526 . S
C1080 C1081 1.396 . S
C1080 C1085 1.390 . S
C1081 C1075 1.465 . S
C1081 C1080 1.396 . S
C1081 C1082 1.399 . S
C1082 H1068 0.929 . S
C1082 C1081 1.399 . S
C1082 C1083 1.385 . S
C1083 H1069 0.931 . S
C1083 C1082 1.385 . S
C1083 C1084 1.389 . S
C1084 C1083 1.389 . S
C1084 C1085 1.387 . S
C1085 H1070 0.930 . S
C1085 C1080 1.390 . S
C1085 C1084 1.387 . S
H1086 C1098 0.930 . S
H1087 C1100 0.930 . S
H1088 C1101 0.930 . S
H1089 C1105 0.959 . S
H1090 C1105 0.959 . S
H1091 C1105 0.961 . S
H1092 C1106 0.960 . S
H1093 C1106 0.961 . S
H1094 C1106 0.959 . S
H1095 C1109 0.929 . S
H1096 C1110 0.931 . S
H1097 C1112 0.930 . S
C1098 H1086 0.930 . S
C1098 C1099 1.399 . S
C1098 C1103 1.399 . S
C1099 C1098 1.399 . S
C1099 C1100 1.376 . S
C1100 H1087 0.930 . S
C1100 C1099 1.376 . S
C1100 C1101 1.388 . S
C1101 H1088 0.930 . S
C1101 C1100 1.388 . S
C1101 C1102 1.390 . S
C1102 C1101 1.390 . S
C1102 C1103 1.394 . S
C1102 C1108 1.465 . S
C1103 C1098 1.399 . S
C1103 C1102 1.394 . S
C1103 C1104 1.516 . S
C1104 C1103 1.516 . S
C1104 C1105 1.502 . S
C1104 C1106 1.561 . S
C1104 C1107 1.526 . S
C1105 H1089 0.959 . S
C1105 H1090 0.959 . S
C1105 H1091 0.961 . S
C1105 C1104 1.502 . S
C1106 H1092 0.960 . S
C1106 H1093 0.961 . S
C1106 H1094 0.959 . S
C1106 C1104 1.561 . S
C1107 C1104 1.526 . S
C1107 C1108 1.396 . S
C1107 C1112 1.390 . S
C1108 C1102 1.465 . S
C1108 C1107 1.396 . S
C1108 C1109 1.399 . S
C1109 H1095 0.929 . S
C1109 C1108 1.399 . S
C1109 C1110 1.385 . S
C1110 H1096 0.931 . S
C1110 C1109 1.385 . S
C1110 C1111 1.389 . S
C1111 C1110 1.389 . S
C1111 C1112 1.387 . S
C1112 H1097 0.930 . S
C1112 C1107 1.390 . S
C1112 C1111 1.387 . S
H1113 C1125 0.930 . S
H1114 C1127 0.930 . S
H1115 C1128 0.930 . S
H1116 C1132 0.959 . S
H1117 C1132 0.959 . S
H1118 C1132 0.961 . S
H1119 C1133 0.960 . S
H1120 C1133 0.961 . S
H1121 C1133 0.959 . S
H1122 C1136 0.929 . S
H1123 C1137 0.931 . S
H1124 C1139 0.930 . S
C1125 H1113 0.930 . S
C1125 C1126 1.399 . S
C1125 C1130 1.399 . S
C1126 C1125 1.399 . S
C1126 C1127 1.376 . S
C1127 H1114 0.930 . S
C1127 C1126 1.376 . S
C1127 C1128 1.388 . S
C1128 H1115 0.930 . S
C1128 C1127 1.388 . S
C1128 C1129 1.390 . S
C1129 C1128 1.390 . S
C1129 C1130 1.394 . S
C1129 C1135 1.465 . S
C1130 C1125 1.399 . S
C1130 C1129 1.394 . S
C1130 C1131 1.516 . S
C1131 C1130 1.516 . S
C1131 C1132 1.502 . S
C1131 C1133 1.561 . S
C1131 C1134 1.526 . S
C1132 H1116 0.959 . S
C1132 H1117 0.959 . S
C1132 H1118 0.961 . S
C1132 C1131 1.502 . S
C1133 H1119 0.960 . S
C1133 H1120 0.961 . S
C1133 H1121 0.959 . S
C1133 C1131 1.561 . S
C1134 C1131 1.526 . S
C1134 C1135 1.396 . S
C1134 C1139 1.390 . S
C1135 C1129 1.465 . S
C1135 C1134 1.396 . S
C1135 C1136 1.399 . S
C1136 H1122 0.929 . S
C1136 C1135 1.399 . S
C1136 C1137 1.385 . S
C1137 H1123 0.931 . S
C1137 C1136 1.385 . S
C1137 C1138 1.389 . S
C1138 C1137 1.389 . S
C1138 C1139 1.387 . S
C1139 H1124 0.930 . S
C1139 C1134 1.390 . S
C1139 C1138 1.387 . S
H1140 C1152 0.930 . S
H1141 C1154 0.930 . S
H1142 C1155 0.930 . S
H1143 C1159 0.959 . S
H1144 C1159 0.959 . S
H1145 C1159 0.961 . S
H1146 C1160 0.960 . S
H1147 C1160 0.961 . S
H1148 C1160 0.959 . S
H1149 C1163 0.929 . S
H1150 C1164 0.931 . S
H1151 C1166 0.930 . S
C1152 H1140 0.930 . S
C1152 C1153 1.399 . S
C1152 C1157 1.399 . S
C1153 C1152 1.399 . S
C1153 C1154 1.376 . S
C1154 H1141 0.930 . S
C1154 C1153 1.376 . S
C1154 C1155 1.388 . S
C1155 H1142 0.930 . S
C1155 C1154 1.388 . S
C1155 C1156 1.390 . S
C1156 C1155 1.390 . S
C1156 C1157 1.394 . S
C1156 C1162 1.465 . S
C1157 C1152 1.399 . S
C1157 C1156 1.394 . S
C1157 C1158 1.516 . S
C1158 C1157 1.516 . S
C1158 C1159 1.502 . S
C1158 C1160 1.561 . S
C1158 C1161 1.526 . S
C1159 H1143 0.959 . S
C1159 H1144 0.959 . S
C1159 H1145 0.961 . S
C1159 C1158 1.502 . S
C1160 H1146 0.960 . S
C1160 H1147 0.961 . S
C1160 H1148 0.959 . S
C1160 C1158 1.561 . S
C1161 C1158 1.526 . S
C1161 C1162 1.396 . S
C1161 C1166 1.390 . S
C1162 C1156 1.465 . S
C1162 C1161 1.396 . S
C1162 C1163 1.399 . S
C1163 H1149 0.929 . S
C1163 C1162 1.399 . S
C1163 C1164 1.385 . S
C1164 H1150 0.931 . S
C1164 C1163 1.385 . S
C1164 C1165 1.389 . S
C1165 C1164 1.389 . S
C1165 C1166 1.387 . S
C1166 H1151 0.930 . S
C1166 C1161 1.390 . S
C1166 C1165 1.387 . S
H1167 C1179 0.930 . S
H1168 C1181 0.930 . S
H1169 C1182 0.930 . S
H1170 C1186 0.959 . S
H1171 C1186 0.959 . S
H1172 C1186 0.961 . S
H1173 C1187 0.960 . S
H1174 C1187 0.961 . S
H1175 C1187 0.959 . S
H1176 C1190 0.929 . S
H1177 C1191 0.931 . S
H1178 C1193 0.930 . S
C1179 H1167 0.930 . S
C1179 C1180 1.399 . S
C1179 C1184 1.399 . S
C1180 C1179 1.399 . S
C1180 C1181 1.376 . S
C1181 H1168 0.930 . S
C1181 C1180 1.376 . S
C1181 C1182 1.388 . S
C1182 H1169 0.930 . S
C1182 C1181 1.388 . S
C1182 C1183 1.390 . S
C1183 C1182 1.390 . S
C1183 C1184 1.394 . S
C1183 C1189 1.465 . S
C1184 C1179 1.399 . S
C1184 C1183 1.394 . S
C1184 C1185 1.516 . S
C1185 C1184 1.516 . S
C1185 C1186 1.502 . S
C1185 C1187 1.561 . S
C1185 C1188 1.526 . S
C1186 H1170 0.959 . S
C1186 H1171 0.959 . S
C1186 H1172 0.961 . S
C1186 C1185 1.502 . S
C1187 H1173 0.960 . S
C1187 H1174 0.961 . S
C1187 H1175 0.959 . S
C1187 C1185 1.561 . S
C1188 C1185 1.526 . S
C1188 C1189 1.396 . S
C1188 C1193 1.390 . S
C1189 C1183 1.465 . S
C1189 C1188 1.396 . S
C1189 C1190 1.399 . S
C1190 H1176 0.929 . S
C1190 C1189 1.399 . S
C1190 C1191 1.385 . S
C1191 H1177 0.931 . S
C1191 C1190 1.385 . S
C1191 C1192 1.389 . S
C1192 C1191 1.389 . S
C1192 C1193 1.387 . S
C1193 H1178 0.930 . S
C1193 C1188 1.390 . S
C1193 C1192 1.387 . S
H1194 C1206 0.930 . S
H1195 C1208 0.930 . S
H1196 C1209 0.930 . S
H1197 C1213 0.959 . S
H1198 C1213 0.959 . S
H1199 C1213 0.961 . S
H1200 C1214 0.960 . S
H1201 C1214 0.961 . S
H1202 C1214 0.959 . S
H1203 C1217 0.929 . S
H1204 C1218 0.931 . S
H1205 C1220 0.930 . S
C1206 H1194 0.930 . S
C1206 C1207 1.399 . S
C1206 C1211 1.399 . S
C1207 C1206 1.399 . S
C1207 C1208 1.376 . S
C1208 H1195 0.930 . S
C1208 C1207 1.376 . S
C1208 C1209 1.388 . S
C1209 H1196 0.930 . S
C1209 C1208 1.388 . S
C1209 C1210 1.390 . S
C1210 C1209 1.390 . S
C1210 C1211 1.394 . S
C1210 C1216 1.465 . S
C1211 C1206 1.399 . S
C1211 C1210 1.394 . S
C1211 C1212 1.516 . S
C1212 C1211 1.516 . S
C1212 C1213 1.502 . S
C1212 C1214 1.561 . S
C1212 C1215 1.526 . S
C1213 H1197 0.959 . S
C1213 H1198 0.959 . S
C1213 H1199 0.961 . S
C1213 C1212 1.502 . S
C1214 H1200 0.960 . S
C1214 H1201 0.961 . S
C1214 H1202 0.959 . S
C1214 C1212 1.561 . S
C1215 C1212 1.526 . S
C1215 C1216 1.396 . S
C1215 C1220 1.390 . S
C1216 C1210 1.465 . S
C1216 C1215 1.396 . S
C1216 C1217 1.399 . S
C1217 H1203 0.929 . S
C1217 C1216 1.399 . S
C1217 C1218 1.385 . S
C1218 H1204 0.931 . S
C1218 C1217 1.385 . S
C1218 C1219 1.389 . S
C1219 C1218 1.389 . S
C1219 C1220 1.387 . S
C1220 H1205 0.930 . S
C1220 C1215 1.390 . S
C1220 C1219 1.387 . S
H1221 C1233 0.930 . S
H1222 C1235 0.930 . S
H1223 C1236 0.930 . S
H1224 C1240 0.959 . S
H1225 C1240 0.959 . S
H1226 C1240 0.961 . S
H1227 C1241 0.960 . S
H1228 C1241 0.961 . S
H1229 C1241 0.959 . S
H1230 C1244 0.929 . S
H1231 C1245 0.931 . S
H1232 C1247 0.930 . S
C1233 H1221 0.930 . S
C1233 C1234 1.399 . S
C1233 C1238 1.399 . S
C1234 C1233 1.399 . S
C1234 C1235 1.376 . S
C1235 H1222 0.930 . S
C1235 C1234 1.376 . S
C1235 C1236 1.388 . S
C1236 H1223 0.930 . S
C1236 C1235 1.388 . S
C1236 C1237 1.390 . S
C1237 C1236 1.390 . S
C1237 C1238 1.394 . S
C1237 C1243 1.465 . S
C1238 C1233 1.399 . S
C1238 C1237 1.394 . S
C1238 C1239 1.516 . S
C1239 C1238 1.516 . S
C1239 C1240 1.502 . S
C1239 C1241 1.561 . S
C1239 C1242 1.526 . S
C1240 H1224 0.959 . S
C1240 H1225 0.959 . S
C1240 H1226 0.961 . S
C1240 C1239 1.502 . S
C1241 H1227 0.960 . S
C1241 H1228 0.961 . S
C1241 H1229 0.959 . S
C1241 C1239 1.561 . S
C1242 C1239 1.526 . S
C1242 C1243 1.396 . S
C1242 C1247 1.390 . S
C1243 C1237 1.465 . S
C1243 C1242 1.396 . S
C1243 C1244 1.399 . S
C1244 H1230 0.929 . S
C1244 C1243 1.399 . S
C1244 C1245 1.385 . S
C1245 H1231 0.931 . S
C1245 C1244 1.385 . S
C1245 C1246 1.389 . S
C1246 C1245 1.389 . S
C1246 C1247 1.387 . S
C1247 H1232 0.930 . S
C1247 C1242 1.390 . S
C1247 C1246 1.387 . S
C289 C63 0.889 . S
C301 C21 0.921 . S
C316 C86 0.878 . S
C328 C44 0.841 . S
C343 C67 0.979 . S
C355 C109 0.955 . S
C370 C90 0.883 . S
C382 C132 0.926 . S
C397 C17 0.890 . S
C409 C113 0.923 . S
C424 C40 0.925 . S
C436 C136 0.946 . S
C451 C247 0.849 . S
C463 C159 0.831 . S
C478 C182 0.983 . S
C490 C270 0.961 . S
C505 C205 0.868 . S
C517 C155 0.830 . S
C532 C228 0.933 . S
C544 C178 0.899 . S
C559 C251 0.907 . S
C571 C201 0.858 . S
C586 C224 0.886 . S
C598 C274 0.905 . S
C613 C88 1.475 . S
C625 C20 1.473 . S
C640 C42 1.459 . S
C652 C112 1.479 . S
C667 C66 1.472 . S
C679 C134 1.479 . S
C694 C157 1.482 . S
C706 C227 1.474 . S
C721 C181 1.483 . S
C733 C249 1.457 . S
C748 C203 1.508 . S
C760 C273 1.490 . S
C775 C180 1.504 . S
C787 C19 1.505 . S
C802 C43 1.545 . S
C814 C204 1.545 . S
C829 C226 1.529 . S
C841 C65 1.527 . S
C856 C89 1.538 . S
C868 C250 1.534 . S
C883 C111 1.530 . S
C895 C272 1.528 . S
C910 C158 1.546 . S
C922 C135 1.544 . S
C937 C62 1.171 . S
C949 C18 1.171 . S
C964 C41 1.144 . S
C976 C85 1.212 . S
C991 C64 1.174 . S
C1003 C108 1.166 . S
C1018 C87 1.212 . S
C1030 C131 1.177 . S
C1045 C16 1.154 . S
C1057 C110 1.141 . S
C1072 C39 1.206 . S
C1084 C133 1.154 . S
C1099 C246 1.183 . S
C1111 C156 1.204 . S
C1126 C179 1.124 . S
C1138 C269 1.156 . S
C1153 C202 1.154 . S
C1165 C154 1.209 . S
C1180 C177 1.171 . S
C1192 C225 1.172 . S
C1207 C248 1.214 . S
C1219 C200 1.177 . S
C1234 C271 1.175 . S
C1246 C223 1.167 . S
