# Generated by pormake.
# Topology mon, (4)-cn, num edge types: 1
# Building blocks:
#     Node 0, Type 0, BuildingBlock: UXUYUI_clean_sbu_0, # of connection points: 4
#     Node 1, Type 0, BuildingBlock: UXUYUI_clean_sbu_0, # of connection points: 4
#     Node 2, Type 0, BuildingBlock: UXUYUI_clean_sbu_0, # of connection points: 4
#     Node 3, Type 0, BuildingBlock: UXUYUI_clean_sbu_0, # of connection points: 4
#     Node 4, Type 0, BuildingBlock: UXUYUI_clean_sbu_0, # of connection points: 4
#     Node 5, Type 0, BuildingBlock: UXUYUI_clean_sbu_0, # of connection points: 4
#     Node 6, Type 0, BuildingBlock: UXUYUI_clean_sbu_0, # of connection points: 4
#     Node 7, Type 0, BuildingBlock: UXUYUI_clean_sbu_0, # of connection points: 4
#     Node 8, Type 0, BuildingBlock: UXUYUI_clean_sbu_0, # of connection points: 4
#     Node 9, Type 0, BuildingBlock: UXUYUI_clean_sbu_0, # of connection points: 4
#     Node 10, Type 0, BuildingBlock: UXUYUI_clean_sbu_0, # of connection points: 4
#     Node 11, Type 0, BuildingBlock: UXUYUI_clean_sbu_0, # of connection points: 4
#     Node 12, Type 0, BuildingBlock: UXUYUI_clean_sbu_0, # of connection points: 4
#     Node 13, Type 0, BuildingBlock: UXUYUI_clean_sbu_0, # of connection points: 4
#     Node 14, Type 0, BuildingBlock: UXUYUI_clean_sbu_0, # of connection points: 4
#     Node 15, Type 0, BuildingBlock: UXUYUI_clean_sbu_0, # of connection points: 4
#     Edge 16, Type (0, 0), BuildingBlock: ZUJKAS_clean_linker_0, # of connection points: 2
#     Edge 17, Type (0, 0), BuildingBlock: ZUJKAS_clean_linker_0, # of connection points: 2
#     Edge 18, Type (0, 0), BuildingBlock: ZUJKAS_clean_linker_0, # of connection points: 2
#     Edge 19, Type (0, 0), BuildingBlock: ZUJKAS_clean_linker_0, # of connection points: 2
#     Edge 20, Type (0, 0), BuildingBlock: ZUJKAS_clean_linker_0, # of connection points: 2
#     Edge 21, Type (0, 0), BuildingBlock: ZUJKAS_clean_linker_0, # of connection points: 2
#     Edge 22, Type (0, 0), BuildingBlock: ZUJKAS_clean_linker_0, # of connection points: 2
#     Edge 23, Type (0, 0), BuildingBlock: ZUJKAS_clean_linker_0, # of connection points: 2
#     Edge 24, Type (0, 0), BuildingBlock: ZUJKAS_clean_linker_0, # of connection points: 2
#     Edge 25, Type (0, 0), BuildingBlock: ZUJKAS_clean_linker_0, # of connection points: 2
#     Edge 26, Type (0, 0), BuildingBlock: ZUJKAS_clean_linker_0, # of connection points: 2
#     Edge 27, Type (0, 0), BuildingBlock: ZUJKAS_clean_linker_0, # of connection points: 2
#     Edge 28, Type (0, 0), BuildingBlock: ZUJKAS_clean_linker_0, # of connection points: 2
#     Edge 29, Type (0, 0), BuildingBlock: ZUJKAS_clean_linker_0, # of connection points: 2
#     Edge 30, Type (0, 0), BuildingBlock: ZUJKAS_clean_linker_0, # of connection points: 2
#     Edge 31, Type (0, 0), BuildingBlock: ZUJKAS_clean_linker_0, # of connection points: 2
#     Edge 32, Type (0, 0), BuildingBlock: ZUJKAS_clean_linker_0, # of connection points: 2
#     Edge 33, Type (0, 0), BuildingBlock: ZUJKAS_clean_linker_0, # of connection points: 2
#     Edge 34, Type (0, 0), BuildingBlock: ZUJKAS_clean_linker_0, # of connection points: 2
#     Edge 35, Type (0, 0), BuildingBlock: ZUJKAS_clean_linker_0, # of connection points: 2
#     Edge 36, Type (0, 0), BuildingBlock: ZUJKAS_clean_linker_0, # of connection points: 2
#     Edge 37, Type (0, 0), BuildingBlock: ZUJKAS_clean_linker_0, # of connection points: 2
#     Edge 38, Type (0, 0), BuildingBlock: ZUJKAS_clean_linker_0, # of connection points: 2
#     Edge 39, Type (0, 0), BuildingBlock: ZUJKAS_clean_linker_0, # of connection points: 2
#     Edge 40, Type (0, 0), BuildingBlock: ZUJKAS_clean_linker_0, # of connection points: 2
#     Edge 41, Type (0, 0), BuildingBlock: ZUJKAS_clean_linker_0, # of connection points: 2
#     Edge 42, Type (0, 0), BuildingBlock: ZUJKAS_clean_linker_0, # of connection points: 2
#     Edge 43, Type (0, 0), BuildingBlock: ZUJKAS_clean_linker_0, # of connection points: 2
#     Edge 44, Type (0, 0), BuildingBlock: ZUJKAS_clean_linker_0, # of connection points: 2
#     Edge 45, Type (0, 0), BuildingBlock: ZUJKAS_clean_linker_0, # of connection points: 2
#     Edge 46, Type (0, 0), BuildingBlock: ZUJKAS_clean_linker_0, # of connection points: 2
#     Edge 47, Type (0, 0), BuildingBlock: ZUJKAS_clean_linker_0, # of connection points: 2
# Relax obj value: 0.204
# Max RMSD: 0.157
# Mean RMSD: 0.156
data_MOF--net-mon--node1-UXUYUI_clean_sbu_0--edge1-ZUJKAS_clean_linker_0
_symmetry_space_group_name_H-M    P1
_symmetry_Int_Tables_number       1
_symmetry_cell_setting            triclinic
loop_
_symmetry_equiv_pos_as_xyz
'x, y, z'
_cell_length_a     59.569216
_cell_length_b     59.487129
_cell_length_c     147.23277
_cell_angle_alpha  89.99292
_cell_angle_beta   89.99826
_cell_angle_gamma 89.990875
loop_
_atom_site_label
_atom_site_type_symbol
_atom_site_fract_x
_atom_site_fract_y
_atom_site_fract_z
_atom_type_partial_charge
Li0 Li 0.99418 0.02662 0.57787 0.0
Li1 Li 0.99662 0.05519 0.58968 0.0
Li2 Li 0.01258 0.01816 0.59197 0.0
Li3 Li 0.9721 0.02406 0.59175 0.0
C4 C 0.03344 0.04594 0.5754 0.0
N5 N 0.05602 0.0561 0.55952 0.0
C6 C 0.03366 0.06798 0.57211 0.0
C7 C 0.0448 0.02908 0.57063 0.0
C8 C 0.04517 0.07278 0.56407 0.0
C9 C 0.05606 0.03455 0.56261 0.0
C10 C 0.94785 0.04812 0.58086 0.0
C11 C 0.91082 0.05883 0.58588 0.0
N12 N 0.90177 0.04754 0.57873 0.0
C13 C 0.9382 0.03667 0.57355 0.0
C14 C 0.93408 0.05936 0.58706 0.0
C15 C 0.91486 0.03657 0.57259 0.0
C16 C 0.99408 -0.0001 0.56205 0.0
N17 N 0.99405 0.02139 0.56517 0.0
C18 C 0.99455 0.03571 0.55001 0.0
C19 C 0.99388 0.03919 0.55938 0.0
C20 C 0.99503 0.01367 0.54658 0.0
C21 C 0.99458 0.99563 0.55274 0.0
H22 H 0.99364 0.98606 0.5668 0.0
H23 H 0.99347 0.05611 0.56207 0.0
C24 C 0.02249 0.09175 0.59514 0.0
N25 N 0.00181 0.0859 0.59205 0.0
C26 C 0.02731 0.11411 0.59715 0.0
C27 C 0.98952 0.124 0.59264 0.0
C28 C 0.98541 0.1014 0.59074 0.0
C29 C 0.01072 0.13058 0.59588 0.0
H30 H 0.0352 0.07897 0.59605 0.0
H31 H 0.96921 0.09624 0.58818 0.0
C32 C 0.99619 0.97892 0.58772 0.0
N33 N 0.01122 0.93672 0.5927 0.0
C34 C 0.9854 0.96707 0.59467 0.0
C35 C 0.01458 0.96925 0.58329 0.0
C36 C 0.99325 0.94575 0.59708 0.0
C37 C 0.02195 0.94793 0.58592 0.0
C38 C -0.00146 0.0504 0.60733 0.0
C39 C 0.01972 0.05051 0.61143 0.0
C40 C 0.98244 0.06617 0.61001 0.0
C41 C 0.02447 0.0665 0.61811 0.0
C42 C 0.98786 0.08192 0.61669 0.0
N43 N 0.00859 0.08176 0.62057 0.0
C44 C 0.05724 0.00307 0.59427 0.0
C45 C 0.03115 0.98989 0.60521 0.0
C46 C 0.0745 0.99094 0.59839 0.0
N47 N 0.03607 0.00209 0.59767 0.0
C48 C 0.04784 0.97738 0.60951 0.0
C49 C 0.06982 0.97775 0.60607 0.0
H50 H 0.06071 0.0132 0.58834 0.0
H51 H 0.01421 0.98984 0.60785 0.0
C52 C 0.93277 -0.00159 0.59159 0.0
N53 N 0.94475 0.01329 0.59663 0.0
C54 C 0.91418 0.98759 0.59533 0.0
C55 C 0.92006 0.00842 0.60923 0.0
C56 C 0.93862 0.01874 0.60523 0.0
C57 C 0.90795 0.99213 0.60435 0.0
H58 H 0.93831 0.99418 0.5848 0.0
H59 H 0.94862 0.03042 0.60912 0.0
O60 O 0.022 0.04083 0.58319 0.0
O61 O 0.97062 0.04803 0.58202 0.0
O62 O 0.98908 2e-05 0.58539 0.0
O63 O 0.99371 0.03515 0.60066 0.0
H64 H 0.02485 0.08122 0.57566 0.0
H65 H 0.04464 0.0119 0.57303 0.0
H66 H 0.04541 0.08975 0.56143 0.0
H67 H 0.06477 0.02164 0.55882 0.0
H68 H 0.89996 0.06732 0.59066 0.0
H69 H 0.94858 0.02779 0.56871 0.0
H70 H 0.94126 0.06812 0.59281 0.0
H71 H 0.90716 0.02771 0.56699 0.0
H72 H 0.99504 0.05014 0.54553 0.0
H73 H 0.99438 0.97837 0.55041 0.0
H74 H 0.0438 0.11843 0.5997 0.0
H75 H 0.97639 0.13622 0.5914 0.0
H76 H 0.97132 0.97434 0.59825 0.0
H77 H 0.02329 0.97827 0.57798 0.0
H78 H 0.98512 0.93645 0.60247 0.0
H79 H 0.03625 0.94033 0.5826 0.0
H80 H 0.03245 0.03855 0.60941 0.0
H81 H 0.96607 0.06654 0.60683 0.0
H82 H 0.04081 0.06684 0.6213 0.0
H83 H 0.97563 0.09434 0.61877 0.0
H84 H 0.09121 0.99155 0.5955 0.0
H85 H 0.04364 0.96769 0.6155 0.0
H86 H 0.90561 0.9749 0.59136 0.0
H87 H 0.9157 0.01261 0.61617 0.0
Li88 Li 0.23262 0.73215 0.84199 0.0
Li89 Li 0.20161 0.75463 0.83979 0.0
Li90 Li 0.22954 0.75156 0.82765 0.0
Li91 Li 0.23657 0.77326 0.84267 0.0
C92 C 0.20835 0.70542 0.8313 0.0
N93 N 0.20631 0.6593 0.82916 0.0
C94 C 0.1971 0.69218 0.83769 0.0
C95 C 0.21834 0.69521 0.82376 0.0
C96 C 0.19633 0.66889 0.83651 0.0
C97 C 0.21717 0.67187 0.82281 0.0
C98 C 0.20465 0.7551 0.85768 0.0
C99 C 0.18496 0.7772 0.86888 0.0
N100 N 0.17254 0.75886 0.87115 0.0
C101 C 0.19183 0.73643 0.86019 0.0
C102 C 0.20131 0.77564 0.8621 0.0
C103 C 0.17562 0.73869 0.86698 0.0
C104 C 0.24437 0.70403 0.85661 0.0
N105 N 0.24446 0.70546 0.8474 0.0
C106 C 0.2634 0.67018 0.84624 0.0
C107 C 0.25384 0.68908 0.8422 0.0
C108 C 0.26366 0.66834 0.85574 0.0
C109 C 0.25393 0.68551 0.86095 0.0
H110 H 0.2373 0.7175 0.86062 0.0
H111 H 0.25447 0.69092 0.83491 0.0
C112 C 0.15655 0.74103 0.83871 0.0
N113 N 0.17015 0.75769 0.84179 0.0
C114 C 0.13346 0.74214 0.84015 0.0
C115 C 0.13872 0.7778 0.84774 0.0
C116 C 0.16171 0.77596 0.84616 0.0
C117 C 0.12431 0.76068 0.84475 0.0
H118 H 0.1636 0.7269 0.8351 0.0
H119 H 0.17283 0.78911 0.84846 0.0
C120 C 0.27532 0.74031 0.83785 0.0
N121 N 0.31404 0.71697 0.84203 0.0
C122 C 0.28484 0.74219 0.84649 0.0
C123 C 0.28557 0.72673 0.83131 0.0
C124 C 0.30438 0.73019 0.84848 0.0
C125 C 0.30513 0.71504 0.83356 0.0
C126 C 0.19781 0.79309 0.83043 0.0
C127 C 0.18239 0.7862 0.82384 0.0
C128 C 0.19486 0.81369 0.83483 0.0
C129 C 0.16403 0.79995 0.82185 0.0
C130 C 0.1763 0.82698 0.83263 0.0
N131 N 0.16139 0.81988 0.82625 0.0
C132 C 0.21966 0.74513 0.80913 0.0
C133 C 0.25613 0.7591 0.81226 0.0
C134 C 0.22414 0.74506 0.79983 0.0
N135 N 0.23566 0.75193 0.8151 0.0
C136 C 0.26133 0.75933 0.80302 0.0
C137 C 0.24525 0.75216 0.79667 0.0
H138 H 0.20349 0.73958 0.81161 0.0
H139 H 0.26846 0.76452 0.81719 0.0
C140 C 0.25734 0.79753 0.85666 0.0
N141 N 0.25174 0.79794 0.84772 0.0
C142 C 0.26878 0.81559 0.86052 0.0
C143 C 0.26873 0.83396 0.84586 0.0
C144 C 0.25712 0.8156 0.8423 0.0
C145 C 0.27478 0.83408 0.85509 0.0
H146 H 0.25293 0.78313 0.86077 0.0
H147 H 0.25254 0.81528 0.83519 0.0
O148 O 0.20924 0.72827 0.83233 0.0
O149 O 0.22051 0.75324 0.851 0.0
O150 O 0.2559 0.75148 0.83584 0.0
O151 O 0.21568 0.7797 0.83258 0.0
H152 H 0.18908 0.69978 0.84351 0.0
H153 H 0.22725 0.70511 0.81878 0.0
H154 H 0.18779 0.65845 0.84143 0.0
H155 H 0.22497 0.66374 0.81705 0.0
H156 H 0.18207 0.79304 0.8723 0.0
H157 H 0.19435 0.72037 0.85692 0.0
H158 H 0.2109 0.79033 0.8602 0.0
H159 H 0.1655 0.7244 0.86895 0.0
H160 H 0.2712 0.65753 0.84199 0.0
H161 H 0.25385 0.6847 0.8683 0.0
H162 H 0.12287 0.7288 0.83757 0.0
H163 H 0.13233 0.79232 0.85134 0.0
H164 H 0.27702 0.75254 0.85163 0.0
H165 H 0.27831 0.72498 0.8246 0.0
H166 H 0.31184 0.73133 0.85516 0.0
H167 H 0.31318 0.70434 0.82859 0.0
H168 H 0.18441 0.77025 0.82041 0.0
H169 H 0.20664 0.81922 0.83996 0.0
H170 H 0.15185 0.79476 0.81682 0.0
H171 H 0.17371 0.84291 0.83602 0.0
H172 H 0.21115 0.7397 0.79516 0.0
H173 H 0.27788 0.76473 0.80089 0.0
H174 H 0.27283 0.81506 0.86769 0.0
H175 H 0.27333 0.84764 0.84138 0.0
Li176 Li 0.53354 0.97344 0.09241 0.0
Li177 Li 0.4926 0.97443 0.09251 0.0
Li178 Li 0.51293 0.93922 0.09128 0.0
Li179 Li 0.51199 0.96578 0.07872 0.0
C180 C 0.50973 0.94696 0.10876 0.0
N181 N 0.50229 0.91715 0.12285 0.0
C182 C 0.48845 0.9453 0.11271 0.0
C183 C 0.52723 0.9335 0.112 0.0
C184 C 0.48504 0.93014 0.11983 0.0
C185 C 0.52312 0.9185 0.11911 0.0
C186 C 0.50457 0.01465 0.08728 0.0
C187 C 0.47523 0.04209 0.08509 0.0
N188 N 0.48523 0.05569 0.09131 0.0
C189 C 0.51456 0.02891 0.09365 0.0
C190 C 0.48477 0.0213 0.08294 0.0
C191 C 0.50453 0.0496 0.09559 0.0
C192 C 0.57076 0.00236 0.09146 0.0
N193 N 0.5599 0.98739 0.09687 0.0
C194 C 0.58693 0.99249 0.10865 0.0
C195 C 0.56751 0.98235 0.10532 0.0
C196 C 0.59844 0.00825 0.10327 0.0
C197 C 0.59015 0.01307 0.09454 0.0
H198 H 0.56418 0.00613 0.08479 0.0
H199 H 0.55845 0.97054 0.1095 0.0
C200 C 0.44631 0.98412 0.09457 0.0
N201 N 0.46724 0.98847 0.09777 0.0
C202 C 0.4277 0.99476 0.0984 0.0
C203 C 0.45263 0.0138 0.10884 0.0
C204 C 0.47069 0.0027 0.10484 0.0
C205 C 0.43076 0.00995 0.10561 0.0
H206 H 0.44405 0.97237 0.08905 0.0
H207 H 0.48754 0.00555 0.10732 0.0
C208 C 0.56052 0.95054 0.08207 0.0
N209 N 0.60615 0.95629 0.0796 0.0
C210 C 0.56856 0.96181 0.0744 0.0
C211 C 0.5757 0.94214 0.08847 0.0
C212 C 0.59169 0.96453 0.07327 0.0
C213 C 0.5987 0.94526 0.08711 0.0
C214 C 0.47592 0.94139 0.07673 0.0
C215 C 0.47938 0.91923 0.07391 0.0
C216 C 0.46236 0.95565 0.07154 0.0
C217 C 0.46927 0.91171 0.0659 0.0
C218 C 0.45259 0.94751 0.06357 0.0
N219 N 0.45622 0.9259 0.06094 0.0
C220 C 0.49177 0.90078 0.09787 0.0
C221 C 0.53044 0.89569 0.0946 0.0
C222 C 0.49023 0.87897 0.10126 0.0
N223 N 0.51172 0.9087 0.09474 0.0
C224 C 0.52968 0.87378 0.09795 0.0
C225 C 0.5094 0.86525 0.10139 0.0
H226 H 0.47719 0.91162 0.09789 0.0
H227 H 0.546 0.90241 0.092 0.0
C228 C 0.50728 0.98918 0.06218 0.0
N229 N 0.51165 0.96874 0.06589 0.0
C230 C 0.50681 0.99181 0.05277 0.0
C231 C 0.51577 0.95236 0.05117 0.0
C232 C 0.51603 0.95049 0.06062 0.0
C233 C 0.51105 0.97325 0.04714 0.0
H234 H 0.50434 0.00349 0.06652 0.0
H235 H 0.51972 0.9345 0.06378 0.0
O236 O 0.51329 0.96138 0.10165 0.0
O237 O 0.51391 0.99415 0.08541 0.0
O238 O 0.53791 0.94814 0.0834 0.0
O239 O 0.48603 0.9492 0.08445 0.0
H240 H 0.47463 0.95538 0.11026 0.0
H241 H 0.54369 0.93417 0.10891 0.0
H242 H 0.46864 0.92863 0.12293 0.0
H243 H 0.53646 0.90783 0.12161 0.0
H244 H 0.45983 0.04736 0.08184 0.0
H245 H 0.52974 0.02399 0.09715 0.0
H246 H 0.47661 0.01035 0.0781 0.0
H247 H 0.51204 0.06076 0.10053 0.0
H248 H 0.59282 0.98803 0.11537 0.0
H249 H 0.5982 0.02538 0.09022 0.0
H250 H 0.41112 0.99101 0.0958 0.0
H251 H 0.45584 0.02558 0.1143 0.0
H252 H 0.5571 0.9686 0.06941 0.0
H253 H 0.56979 0.93375 0.09454 0.0
H254 H 0.59814 0.97329 0.06739 0.0
H255 H 0.61061 0.93903 0.09205 0.0
H256 H 0.48996 0.90801 0.07779 0.0
H257 H 0.45969 0.97292 0.07358 0.0
H258 H 0.47188 0.89463 0.06361 0.0
H259 H 0.4422 0.95841 0.05945 0.0
H260 H 0.47431 0.87304 0.10389 0.0
H261 H 0.54473 0.86357 0.09778 0.0
H262 H 0.50355 0.00831 0.04995 0.0
H263 H 0.51901 0.9376 0.04707 0.0
Li264 Li 0.28125 0.25977 0.3436 0.0
Li265 Li 0.31654 0.23974 0.34212 0.0
Li266 Li 0.2894 0.24022 0.32977 0.0
Li267 Li 0.28267 0.2188 0.34362 0.0
C268 C 0.3132 0.27694 0.32755 0.0
N269 N 0.32761 0.2974 0.31175 0.0
C270 C 0.33549 0.27465 0.32474 0.0
C271 C 0.29826 0.28973 0.32236 0.0
C272 C 0.34245 0.28513 0.31672 0.0
C273 C 0.30587 0.29989 0.31437 0.0
C274 C 0.30974 0.24292 0.35964 0.0
C275 C 0.33841 0.22935 0.36984 0.0
N276 N 0.34032 0.25031 0.37344 0.0
C277 C 0.31196 0.26433 0.36345 0.0
C278 C 0.323 0.22525 0.36288 0.0
C279 C 0.32752 0.26772 0.37042 0.0
C280 C 0.25344 0.28089 0.35622 0.0
N281 N 0.26672 0.28481 0.34889 0.0
C282 C 0.25709 0.32376 0.34899 0.0
C283 C 0.26907 0.30575 0.34532 0.0
C284 C 0.24258 0.32003 0.35635 0.0
C285 C 0.24103 0.29832 0.36005 0.0
H286 H 0.2522 0.26408 0.35897 0.0
H287 H 0.27996 0.30839 0.33955 0.0
C288 C 0.36008 0.22203 0.34448 0.0
N289 N 0.34727 0.24082 0.3452 0.0
C290 C 0.38249 0.22244 0.34719 0.0
C291 C 0.3781 0.26163 0.35122 0.0
C292 C 0.35579 0.26046 0.34841 0.0
C293 C 0.39173 0.24242 0.35064 0.0
H294 H 0.35287 0.20671 0.34185 0.0
H295 H 0.34515 0.27516 0.34883 0.0
C296 C 0.24098 0.24712 0.33867 0.0
N297 N 0.19993 0.26607 0.3429 0.0
C298 C 0.22739 0.23741 0.34534 0.0
C299 C 0.23364 0.26639 0.33411 0.0
C300 C 0.20669 0.24725 0.34738 0.0
C301 C 0.21286 0.27575 0.33637 0.0
C302 C 0.30554 0.19181 0.33315 0.0
C303 C 0.29512 0.18334 0.32536 0.0
C304 C 0.31376 0.17694 0.33971 0.0
C305 C 0.29299 0.16009 0.32429 0.0
C306 C 0.31125 0.15382 0.3384 0.0
N307 N 0.30101 0.14595 0.33079 0.0
C308 C 0.30369 0.23772 0.31146 0.0
C309 C 0.26443 0.24179 0.31356 0.0
C310 C 0.30101 0.23761 0.30205 0.0
N311 N 0.28554 0.24006 0.31698 0.0
C312 C 0.26095 0.24157 0.3042 0.0
C313 C 0.27939 0.23952 0.29832 0.0
H314 H 0.32024 0.23587 0.31439 0.0
H315 H 0.25028 0.24321 0.3181 0.0
C316 C 0.27235 0.18659 0.3571 0.0
N317 N 0.2689 0.19262 0.34832 0.0
C318 C 0.26162 0.16772 0.36067 0.0
C319 C 0.24407 0.16166 0.34606 0.0
C320 C 0.2551 0.18067 0.34278 0.0
C321 C 0.24713 0.15509 0.35514 0.0
H322 H 0.28316 0.1966 0.36137 0.0
H323 H 0.25244 0.18614 0.33586 0.0
O324 O 0.30597 0.26655 0.33531 0.0
O325 O 0.29496 0.23937 0.35268 0.0
O326 O 0.26154 0.23806 0.33672 0.0
O327 O 0.30744 0.21452 0.33439 0.0
H328 H 0.34725 0.26472 0.32864 0.0
H329 H 0.2809 0.29149 0.32439 0.0
H330 H 0.35963 0.28344 0.31444 0.0
H331 H 0.29445 0.30968 0.31025 0.0
H332 H 0.34891 0.21588 0.37235 0.0
H333 H 0.30199 0.27824 0.361 0.0
H334 H 0.32174 0.20865 0.35992 0.0
H335 H 0.32948 0.28421 0.37341 0.0
H336 H 0.25865 0.34025 0.34594 0.0
H337 H 0.23028 0.29486 0.36581 0.0
H338 H 0.3924 0.20723 0.34669 0.0
H339 H 0.38468 0.27745 0.3537 0.0
H340 H 0.23284 0.22261 0.34898 0.0
H341 H 0.24404 0.27425 0.32899 0.0
H342 H 0.19605 0.23998 0.35256 0.0
H343 H 0.20706 0.29076 0.33295 0.0
H344 H 0.28856 0.19455 0.32023 0.0
H345 H 0.32159 0.18319 0.34584 0.0
H346 H 0.28489 0.15331 0.31832 0.0
H347 H 0.31736 0.14214 0.34346 0.0
H348 H 0.31562 0.23568 0.29774 0.0
H349 H 0.24403 0.24321 0.30159 0.0
H350 H 0.26452 0.16315 0.36769 0.0
H351 H 0.23273 0.15264 0.34161 0.0
Li352 Li 0.97993 0.97213 0.40456 0.0
Li353 Li 0.02089 0.97225 0.40491 0.0
Li354 Li 0.00044 0.93626 0.406 0.0
Li355 Li 0.00193 0.96265 0.41872 0.0
C356 C 0.99131 0.9521 0.38771 0.0
N357 N 0.97184 0.93958 0.37145 0.0
C358 C 0.00018 0.95984 0.3795 0.0
C359 C 0.97269 0.93785 0.38765 0.0
C360 C 0.99005 0.95337 0.37135 0.0
C361 C 0.96305 0.93173 0.37936 0.0
C362 C 0.00989 0.01203 0.41096 0.0
C363 C 0.03888 0.03858 0.4149 0.0
N364 N 0.03096 0.05293 0.40846 0.0
C365 C 0.00192 0.0271 0.40443 0.0
C366 C 0.0284 0.01786 0.41629 0.0
C367 C 0.01284 0.04768 0.40325 0.0
C368 C 0.93625 0.99006 0.40554 0.0
N369 N 0.95409 0.98664 0.39995 0.0
C370 C 0.93546 0.00544 0.38778 0.0
C371 C 0.95411 0.99423 0.39124 0.0
C372 C 0.91681 0.00927 0.39339 0.0
C373 C 0.9173 0.00147 0.40238 0.0
H374 H 0.93688 0.98409 0.41248 0.0
H375 H 0.96879 0.99207 0.38704 0.0
C376 C 0.06704 0.98308 0.40301 0.0
N377 N 0.04607 0.98657 0.39967 0.0
C378 C 0.08542 0.99399 0.39912 0.0
C379 C 0.06023 0.01155 0.38836 0.0
C380 C 0.04238 0.00028 0.39245 0.0
C381 C 0.08209 0.00852 0.39172 0.0
H382 H 0.0695 0.97189 0.4087 0.0
H383 H 0.0255 0.00254 0.3899 0.0
C384 C 0.95797 0.93328 0.41567 0.0
N385 N 0.92307 0.90481 0.42026 0.0
C386 C 0.95874 0.92097 0.42375 0.0
C387 C 0.9392 0.93143 0.41002 0.0
C388 C 0.94102 0.90657 0.42593 0.0
C389 C 0.9218 0.91686 0.41243 0.0
C390 C 0.03989 0.93808 0.41985 0.0
C391 C 0.04018 0.91502 0.42167 0.0
C392 C 0.05256 0.95269 0.42524 0.0
C393 C 0.05297 0.90699 0.42894 0.0
C394 C 0.0651 0.944 0.43244 0.0
N395 N 0.06504 0.92152 0.43413 0.0
C396 C 0.0114 0.90133 0.39418 0.0
C397 C 0.99174 0.88914 0.40727 0.0
C398 C 0.01206 0.87946 0.39079 0.0
N399 N 0.001 0.9058 0.40219 0.0
C400 C 0.99227 0.86697 0.40421 0.0
C401 C 0.00238 0.8619 0.39582 0.0
H402 H 0.01913 0.9148 0.39037 0.0
H403 H 0.98431 0.89295 0.41376 0.0
C404 C -0.00243 0.98693 0.43488 0.0
N405 N 0.00185 0.96603 0.43159 0.0
C406 C -0.0026 0.99083 0.44422 0.0
C407 C 0.0059 0.95155 0.44664 0.0
C408 C 0.00575 0.9484 0.43725 0.0
C409 C 0.0017 0.97302 0.45025 0.0
H410 H 0.99418 0.0006 0.43024 0.0
H411 H 0.00887 0.93187 0.4345 0.0
O412 O 0.001 0.9584 0.39575 0.0
O413 O -0.00022 0.99158 0.41206 0.0
O414 O 0.97506 0.94773 0.41351 0.0
O415 O 0.02746 0.94624 0.41276 0.0
H416 H 0.0147 0.97076 0.37941 0.0
H417 H 0.96598 0.93131 0.39392 0.0
H418 H 0.99668 0.9593 0.36494 0.0
H419 H 0.94863 0.92068 0.37922 0.0
H420 H 0.05332 0.04325 0.41894 0.0
H421 H 0.9876 0.02285 0.40025 0.0
H422 H 0.0347 0.00643 0.4214 0.0
H423 H 0.00695 0.05944 0.39818 0.0
H424 H 0.93592 0.0117 0.38087 0.0
H425 H 0.90324 0.00422 0.40691 0.0
H426 H 0.10198 0.99133 0.40196 0.0
H427 H 0.05697 0.02234 0.38259 0.0
H428 H 0.97299 0.92229 0.42825 0.0
H429 H 0.9379 0.94126 0.40387 0.0
H430 H 0.94153 0.8968 0.43212 0.0
H431 H 0.90723 0.91522 0.4081 0.0
H432 H 0.03061 0.90345 0.41754 0.0
H433 H 0.05251 0.97058 0.42393 0.0
H434 H 0.05329 0.88919 0.43045 0.0
H435 H 0.07485 0.95514 0.43671 0.0
H436 H 0.01993 0.87643 0.38428 0.0
H437 H 0.98518 0.85392 0.40845 0.0
H438 H 0.99363 0.00756 0.44669 0.0
H439 H 0.00953 0.93737 0.45101 0.0
Li440 Li 0.28179 0.77378 0.65527 0.0
Li441 Li 0.29316 0.75377 0.66894 0.0
Li442 Li 0.3189 0.75905 0.65628 0.0
Li443 Li 0.28749 0.73319 0.65517 0.0
C444 C 0.30082 0.80434 0.66546 0.0
N445 N 0.28941 0.84897 0.66789 0.0
C446 C 0.28966 0.81115 0.67335 0.0
C447 C 0.30628 0.82026 0.65883 0.0
C448 C 0.28404 0.83379 0.67445 0.0
C449 C 0.30032 0.84272 0.66017 0.0
C450 C 0.24596 0.7388 0.6604 0.0
C451 C 0.22314 0.70573 0.66257 0.0
N452 N 0.20857 0.71339 0.65616 0.0
C453 C 0.23073 0.74637 0.65386 0.0
C454 C 0.2421 0.71836 0.66483 0.0
C455 C 0.21193 0.73328 0.65181 0.0
C456 C 0.26477 0.80285 0.64182 0.0
N457 N 0.26349 0.79722 0.65074 0.0
C458 C 0.23463 0.82437 0.65323 0.0
C459 C 0.24877 0.80746 0.65645 0.0
C460 C 0.23549 0.83047 0.64402 0.0
C461 C 0.25088 0.81956 0.63829 0.0
H462 H 0.27635 0.79415 0.63741 0.0
H463 H 0.24783 0.80227 0.66348 0.0
C464 C 0.30788 0.7599 0.68704 0.0
N465 N 0.29041 0.7531 0.68177 0.0
C466 C 0.30607 0.75937 0.69649 0.0
C467 C 0.26823 0.74518 0.69488 0.0
C468 C 0.27077 0.74602 0.68548 0.0
C469 C 0.28603 0.75187 0.70052 0.0
H470 H 0.32322 0.76571 0.68388 0.0
H471 H 0.25701 0.74118 0.68113 0.0
C472 C 0.31129 0.7551 0.63881 0.0
N473 N 0.34125 0.75379 0.62449 0.0
C474 C 0.31678 0.73459 0.63474 0.0
C475 C 0.32095 0.77496 0.63556 0.0
C476 C 0.33197 0.73428 0.62751 0.0
C477 C 0.3361 0.77393 0.62833 0.0
C478 C 0.32317 0.7221 0.67084 0.0
C479 C 0.34477 0.72869 0.67342 0.0
C480 C 0.31123 0.70689 0.67624 0.0
C481 C 0.35405 0.71998 0.6814 0.0
C482 C 0.32109 0.69862 0.68417 0.0
N483 N 0.34211 0.70528 0.68657 0.0
C484 C 0.35924 0.78355 0.65384 0.0
C485 C 0.36017 0.74531 0.64928 0.0
C486 C 0.38147 0.78648 0.65109 0.0
N487 N 0.34914 0.76322 0.65285 0.0
C488 C 0.38231 0.74752 0.64638 0.0
C489 C 0.39323 0.76831 0.6473 0.0
H490 H 0.35009 0.79742 0.65678 0.0
H491 H 0.35171 0.72929 0.64869 0.0
C492 C 0.26354 0.70798 0.64255 0.0
N493 N 0.27699 0.70611 0.64996 0.0
C494 C 0.25352 0.68895 0.63882 0.0
C495 C 0.27207 0.6663 0.65023 0.0
C496 C 0.28176 0.68583 0.65373 0.0
C497 C 0.25749 0.66779 0.64275 0.0
H498 H 0.26011 0.72439 0.6397 0.0
H499 H 0.2927 0.68486 0.65957 0.0
O500 O 0.30616 0.7822 0.66419 0.0
O501 O 0.26478 0.7511 0.66234 0.0
O502 O 0.29679 0.75571 0.64601 0.0
O503 O 0.31363 0.73073 0.66314 0.0
H504 H 0.28518 0.79907 0.67853 0.0
H505 H 0.31471 0.81526 0.65264 0.0
H506 H 0.27532 0.83927 0.6805 0.0
H507 H 0.30428 0.85518 0.65507 0.0
H508 H 0.22007 0.68978 0.66587 0.0
H509 H 0.2335 0.76204 0.65031 0.0
H510 H 0.25387 0.71206 0.66981 0.0
H511 H 0.20006 0.73888 0.64673 0.0
H512 H 0.22274 0.83212 0.65783 0.0
H513 H 0.25212 0.82387 0.63116 0.0
H514 H 0.32023 0.76456 0.70059 0.0
H515 H 0.25234 0.73973 0.6977 0.0
H516 H 0.30963 0.71904 0.6372 0.0
H517 H 0.31709 0.79095 0.63869 0.0
H518 H 0.33645 0.71852 0.62432 0.0
H519 H 0.34384 0.78914 0.6258 0.0
H520 H 0.3542 0.74055 0.66937 0.0
H521 H 0.29438 0.70186 0.67441 0.0
H522 H 0.37072 0.72499 0.68349 0.0
H523 H 0.31198 0.68699 0.68845 0.0
H524 H 0.38935 0.80276 0.65191 0.0
H525 H 0.39096 0.733 0.64365 0.0
H526 H 0.24214 0.69092 0.63314 0.0
H527 H 0.27576 0.65028 0.65338 0.0
Li528 Li 0.5139 0.05348 0.90781 0.0
Li529 Li 0.51571 0.02682 0.91971 0.0
Li530 Li 0.53923 0.02283 0.90636 0.0
Li531 Li 0.49834 0.01712 0.90549 0.0
C532 C 0.54375 0.06316 0.92202 0.0
N533 N 0.55062 0.0956 0.93516 0.0
C534 C 0.52558 0.07529 0.92551 0.0
C535 C 0.56539 0.06752 0.92522 0.0
C536 C 0.52941 0.09162 0.93214 0.0
C537 C 0.56853 0.084 0.93186 0.0
C538 C 0.46956 0.03221 0.91865 0.0
C539 C 0.44945 0.00234 0.92617 0.0
N540 N 0.43171 0.0164 0.92741 0.0
C541 C 0.45112 0.04634 0.91999 0.0
C542 C 0.46874 0.01001 0.92175 0.0
C543 C 0.43214 0.03804 0.92444 0.0
C544 C 0.48889 0.08881 0.90075 0.0
N545 N 0.50918 0.08376 0.90442 0.0
C546 C 0.52196 0.12133 0.90219 0.0
C547 C 0.52573 0.09937 0.9051 0.0
C548 C 0.50112 0.12715 0.89835 0.0
C549 C 0.48451 0.11046 0.8976 0.0
H550 H 0.47625 0.07584 0.90015 0.0
H551 H 0.54191 0.09475 0.90785 0.0
C552 C 0.52864 0.00563 0.93581 0.0
N553 N 0.51506 0.02193 0.93242 0.0
C554 C 0.52866 0.00093 0.9451 0.0
C555 C 0.5009 0.03014 0.94723 0.0
C556 C 0.5014 0.03423 0.9379 0.0
C557 C 0.5146 0.01324 0.95093 0.0
H558 H 0.53948 0.99629 0.93129 0.0
H559 H 0.49077 0.04714 0.93503 0.0
C560 C 0.52311 0.04867 0.89037 0.0
N561 N 0.53284 0.08019 0.87716 0.0
C562 C 0.50755 0.05328 0.88352 0.0
C563 C 0.54368 0.05998 0.89047 0.0
C564 C 0.51277 0.0693 0.87691 0.0
C565 C 0.54827 0.07588 0.88374 0.0
C566 C 0.52544 0.97878 0.90866 0.0
C567 C 0.52494 0.97626 0.89921 0.0
C568 C 0.53093 0.96039 0.91413 0.0
C569 C 0.52995 0.95534 0.89541 0.0
C570 C 0.53581 0.93974 0.91006 0.0
N571 N 0.53524 0.93767 0.90086 0.0
C572 C 0.58425 0.0087 0.90785 0.0
C573 C 0.56905 0.00786 0.89296 0.0
C574 C 0.60434 -0.00066 0.90474 0.0
N575 N 0.56711 0.01251 0.90196 0.0
C576 C 0.58876 -0.00148 0.88957 0.0
C577 C 0.60666 0.99389 0.8955 0.0
H578 H 0.58209 0.0125 0.91498 0.0
H579 H 0.55502 0.01079 0.88846 0.0
C580 C 0.46023 0.01427 0.89468 0.0
N581 N 0.47405 0.0017 0.89998 0.0
C582 C 0.44165 0.00445 0.89049 0.0
C583 C 0.45168 0.96902 0.89746 0.0
C584 C 0.4699 0.97958 0.90159 0.0
C585 C 0.43738 0.98149 0.8918 0.0
H586 H 0.46355 0.03199 0.89379 0.0
H587 H 0.48052 0.97016 0.90615 0.0
O588 O 0.54054 0.04691 0.91557 0.0
O589 O 0.48814 0.04023 0.91424 0.0
O590 O 0.51808 0.03352 0.89706 0.0
O591 O 0.52098 -0.00083 0.91257 0.0
H592 H 0.50871 0.07221 0.92312 0.0
H593 H 0.57962 0.05824 0.9226 0.0
H594 H 0.5155 0.10113 0.9349 0.0
H595 H 0.5852 0.08755 0.9344 0.0
H596 H 0.4486 0.98521 0.92861 0.0
H597 H 0.45149 0.06356 0.91761 0.0
H598 H 0.48279 -0.00122 0.92079 0.0
H599 H 0.41776 0.04881 0.92553 0.0
H600 H 0.53518 0.13362 0.90306 0.0
H601 H 0.46837 0.11399 0.89453 0.0
H602 H 0.53971 0.98798 0.94769 0.0
H603 H 0.48966 0.03986 0.95147 0.0
H604 H 0.49159 0.04465 0.88331 0.0
H605 H 0.55581 0.05681 0.89579 0.0
H606 H 0.50085 0.0731 0.87158 0.0
H607 H 0.56405 0.08487 0.88378 0.0
H608 H 0.52063 0.99022 0.89486 0.0
H609 H 0.53141 0.96205 0.92144 0.0
H610 H 0.52961 0.95316 0.88812 0.0
H611 H 0.54009 0.92537 0.91422 0.0
H612 H 0.61777 0.99613 0.90952 0.0
H613 H 0.58961 0.99415 0.88244 0.0
H614 H 0.43093 0.01461 0.8862 0.0
H615 H 0.44859 0.95139 0.8988 0.0
Li616 Li 0.22509 0.2442 0.17106 0.0
Li617 Li 0.23368 0.22206 0.15778 0.0
Li618 Li 0.23534 0.26445 0.15761 0.0
Li619 Li 0.19913 0.24499 0.15808 0.0
C620 C 0.26869 0.24049 0.1714 0.0
N621 N 0.29708 0.23592 0.18611 0.0
C622 C 0.27514 0.21911 0.17435 0.0
C623 C 0.27683 0.25955 0.17586 0.0
C624 C 0.28949 0.21716 0.18181 0.0
C625 C 0.29112 0.25688 0.18331 0.0
C626 C 0.19504 0.19987 0.16401 0.0
C627 C 0.17507 0.17681 0.15323 0.0
N628 N 0.1702 0.16194 0.15996 0.0
C629 C 0.18974 0.18443 0.17083 0.0
C630 C 0.18758 0.19609 0.15514 0.0
C631 C 0.17721 0.16533 0.16865 0.0
C632 C 0.22833 0.26313 0.18869 0.0
N633 N 0.22765 0.24363 0.1839 0.0
C634 C 0.23405 0.22216 0.19735 0.0
C635 C 0.23014 0.22335 0.18802 0.0
C636 C 0.23547 0.24208 0.20244 0.0
C637 C 0.23233 0.26275 0.19802 0.0
H638 H 0.22617 0.27899 0.18525 0.0
H639 H 0.22972 0.20813 0.184 0.0
C640 C 0.26572 0.20167 0.14736 0.0
N641 N 0.2486 0.1966 0.15309 0.0
C642 C 0.2787 0.18462 0.14358 0.0
C643 C 0.25612 0.15733 0.15163 0.0
C644 C 0.24363 0.17498 0.15533 0.0
C645 C 0.27401 0.16213 0.14573 0.0
H646 H 0.26929 0.21907 0.14577 0.0
H647 H 0.23025 0.17139 0.16005 0.0
C648 C 0.20627 0.29309 0.16576 0.0
N649 N 0.20016 0.33914 0.16559 0.0
C650 C 0.18702 0.30236 0.16182 0.0
C651 C 0.22235 0.30724 0.16965 0.0
C652 C 0.18426 0.32568 0.1618 0.0
C653 C 0.21898 0.33048 0.16948 0.0
C654 C 0.21973 0.24239 0.1394 0.0
C655 C 0.21799 0.26208 0.13427 0.0
C656 C 0.21913 0.22154 0.13501 0.0
C657 C 0.2155 0.2606 0.12485 0.0
C658 C 0.21663 0.22076 0.12559 0.0
N659 N 0.21488 0.24014 0.12074 0.0
C660 C 0.2741 0.28674 0.1521 0.0
C661 C 0.24081 0.30715 0.14893 0.0
C662 C 0.28712 0.30348 0.14807 0.0
N663 N 0.25141 0.28887 0.15245 0.0
C664 C 0.25319 0.32447 0.14498 0.0
C665 C 0.27662 0.32261 0.14447 0.0
H666 H 0.28206 0.27189 0.15484 0.0
H667 H 0.22272 0.30818 0.14904 0.0
C668 C 0.15318 0.24327 0.16107 0.0
N669 N 0.16876 0.24673 0.15448 0.0
C670 C 0.1304 0.24518 0.15907 0.0
C671 C 0.14014 0.25392 0.14351 0.0
C672 C 0.16274 0.25193 0.14583 0.0
C673 C 0.12368 0.2507 0.1502 0.0
H674 H 0.15854 0.2392 0.16789 0.0
H675 H 0.1754 0.25486 0.14075 0.0
O676 O 0.25412 0.24272 0.16429 0.0
O677 O 0.20733 0.21861 0.16607 0.0
O678 O 0.20919 0.27028 0.16589 0.0
O679 O 0.22247 0.24353 0.14863 0.0
H680 H 0.2689 0.2042 0.17098 0.0
H681 H 0.27197 0.2762 0.17365 0.0
H682 H 0.2945 0.20072 0.18422 0.0
H683 H 0.29741 0.27147 0.18688 0.0
H684 H 0.16921 0.17369 0.14639 0.0
H685 H 0.1953 0.18715 0.17774 0.0
H686 H 0.19127 0.20796 0.14981 0.0
H687 H 0.17305 0.1532 0.17386 0.0
H688 H 0.2366 0.2059 0.2005 0.0
H689 H 0.233 0.27846 0.20173 0.0
H690 H 0.29222 0.18899 0.13898 0.0
H691 H 0.25218 0.14018 0.15352 0.0
H692 H 0.17436 0.29169 0.15881 0.0
H693 H 0.2375 0.3004 0.17261 0.0
H694 H 0.16947 0.33308 0.15876 0.0
H695 H 0.23137 0.34163 0.1724 0.0
H696 H 0.21822 0.27833 0.13752 0.0
H697 H 0.2206 0.20607 0.13882 0.0
H698 H 0.21402 0.27572 0.12082 0.0
H699 H 0.21612 0.20473 0.12212 0.0
H700 H 0.30519 0.30155 0.14781 0.0
H701 H 0.24454 0.33887 0.14214 0.0
H702 H 0.11818 0.2423 0.16439 0.0
H703 H 0.13562 0.25845 0.13663 0.0
Li704 Li 0.78444 0.25103 0.16962 0.0
Li705 Li 0.7754 0.27085 0.15564 0.0
Li706 Li 0.77748 0.2299 0.15608 0.0
Li707 Li 0.81098 0.25297 0.15709 0.0
C708 C 0.74049 0.25179 0.16907 0.0
N709 N 0.71018 0.2569 0.18312 0.0
C710 C 0.7304 0.27265 0.17063 0.0
C711 C 0.73507 0.2335 0.17461 0.0
C712 C 0.71511 0.27489 0.17778 0.0
C713 C 0.71975 0.23645 0.1817 0.0
C714 C 0.81813 0.28946 0.1665 0.0
C715 C 0.84892 0.31331 0.16199 0.0
N716 N 0.85832 0.31061 0.17033 0.0
C717 C 0.82807 0.28696 0.17504 0.0
C718 C 0.82857 0.30281 0.15993 0.0
C719 C 0.8484 0.2978 0.17685 0.0
C720 C 0.78569 0.23339 0.1875 0.0
N721 N 0.78085 0.2518 0.1824 0.0
C722 C 0.76847 0.27187 0.19551 0.0
C723 C 0.77276 0.27096 0.18621 0.0
C724 C 0.77281 0.25294 0.20094 0.0
C725 C 0.78177 0.23359 0.19684 0.0
H726 H 0.79233 0.21848 0.1843 0.0
H727 H 0.76936 0.28543 0.18198 0.0
C728 C 0.73972 0.29064 0.14635 0.0
N729 N 0.75954 0.29527 0.15051 0.0
C730 C 0.72805 0.30757 0.14184 0.0
C731 C 0.75704 0.33389 0.14623 0.0
C732 C 0.76819 0.31639 0.15066 0.0
C733 C 0.73684 0.32948 0.14165 0.0
H734 H 0.73321 0.27367 0.14643 0.0
H735 H 0.78389 0.31959 0.15408 0.0
C736 C 0.80711 0.20418 0.16417 0.0
N737 N 0.81441 0.15848 0.16254 0.0
C738 C 0.8254 0.19619 0.15917 0.0
C739 C 0.7926 0.18892 0.16837 0.0
C740 C 0.8288 0.17302 0.15843 0.0
C741 C 0.79654 0.16589 0.16745 0.0
C742 C 0.78233 0.25853 0.13881 0.0
C743 C 0.7647 0.24765 0.13435 0.0
C744 C 0.7911 0.27843 0.1352 0.0
C745 C 0.75606 0.25693 0.12636 0.0
C746 C 0.78195 0.2872 0.12722 0.0
N747 N 0.76476 0.27636 0.123 0.0
C748 C 0.74409 0.19722 0.15306 0.0
C749 C 0.77834 0.19092 0.14526 0.0
C750 C 0.7347 0.17807 0.14915 0.0
N751 N 0.76553 0.20318 0.15107 0.0
C752 C 0.7697 0.17151 0.14126 0.0
C753 C 0.74753 0.16492 0.14314 0.0
H754 H 0.73413 0.2076 0.15753 0.0
H755 H 0.79522 0.19635 0.14368 0.0
C756 C 0.85707 0.25082 0.16066 0.0
N757 N 0.84168 0.25442 0.15401 0.0
C758 C 0.87991 0.25221 0.15871 0.0
C759 C 0.87058 0.26052 0.14307 0.0
C760 C 0.84791 0.25897 0.14533 0.0
C761 C 0.8869 0.25722 0.14982 0.0
H762 H 0.85154 0.24688 0.16747 0.0
H763 H 0.83529 0.26143 0.14016 0.0
O764 O 0.7559 0.24938 0.16225 0.0
O765 O 0.79845 0.27863 0.16455 0.0
O766 O 0.80332 0.2268 0.16487 0.0
O767 O 0.79068 0.25001 0.14676 0.0
H768 H 0.73451 0.28703 0.16646 0.0
H769 H 0.74287 0.21729 0.17355 0.0
H770 H 0.70726 0.29095 0.1791 0.0
H771 H 0.71554 0.22249 0.18609 0.0
H772 H 0.85728 0.32352 0.15694 0.0
H773 H 0.82033 0.27659 0.1802 0.0
H774 H 0.82129 0.30467 0.15324 0.0
H775 H 0.85634 0.29594 0.18341 0.0
H776 H 0.7619 0.28723 0.19843 0.0
H777 H 0.78523 0.2186 0.20077 0.0
H778 H 0.71231 0.30355 0.13854 0.0
H779 H 0.7644 0.35053 0.14622 0.0
H780 H 0.83674 0.20771 0.15582 0.0
H781 H 0.77822 0.19479 0.17218 0.0
H782 H 0.84283 0.1666 0.15455 0.0
H783 H 0.78534 0.1539 0.17061 0.0
H784 H 0.75758 0.23234 0.13706 0.0
H785 H 0.8045 0.28727 0.13864 0.0
H786 H 0.74235 0.24873 0.12286 0.0
H787 H 0.78842 0.30269 0.1244 0.0
H788 H 0.71738 0.17398 0.15064 0.0
H789 H 0.78026 0.16183 0.13672 0.0
H790 H 0.89195 0.24912 0.16408 0.0
H791 H 0.87528 0.26451 0.13615 0.0
Li792 Li 0.7306 0.73268 0.66777 0.0
Li793 Li 0.7343 0.71035 0.65417 0.0
Li794 Li 0.7408 0.75098 0.65358 0.0
Li795 Li 0.70395 0.73519 0.6552 0.0
C796 C 0.77868 0.72375 0.65667 0.0
N797 N 0.81989 0.71518 0.64874 0.0
C798 C 0.78052 0.72174 0.64722 0.0
C799 C 0.79785 0.72139 0.66206 0.0
C800 C 0.80148 0.7174 0.64336 0.0
C801 C 0.81852 0.71708 0.65793 0.0
C802 C 0.70828 0.68703 0.66536 0.0
C803 C 0.69684 0.64926 0.66157 0.0
N804 N 0.70625 0.64169 0.66941 0.0
C805 C 0.71764 0.67888 0.67342 0.0
C806 C 0.69759 0.67213 0.65942 0.0
C807 C 0.7165 0.6559 0.67533 0.0
C808 C 0.71753 0.74288 0.68566 0.0
N809 N 0.73428 0.73416 0.68049 0.0
C810 C 0.75712 0.72816 0.69357 0.0
C811 C 0.75379 0.72679 0.68422 0.0
C812 C 0.74017 0.73718 0.69912 0.0
C813 C 0.72013 0.74456 0.69506 0.0
H814 H 0.70224 0.74867 0.68246 0.0
H815 H 0.76668 0.71974 0.67992 0.0
C816 C 0.74257 0.67683 0.64091 0.0
N817 N 0.74471 0.68216 0.64984 0.0
C818 C 0.75144 0.65674 0.6376 0.0
C819 C 0.76418 0.64785 0.65278 0.0
C820 C 0.75536 0.66826 0.65576 0.0
C821 C 0.76257 0.64197 0.64355 0.0
H822 H 0.7346 0.68848 0.6363 0.0
H823 H 0.75728 0.6732 0.66278 0.0
C824 C 0.72412 0.77874 0.66694 0.0
N825 N 0.73789 0.81646 0.67636 0.0
C826 C 0.70916 0.79645 0.66844 0.0
C827 C 0.7461 0.78022 0.67023 0.0
C828 C 0.71644 0.81538 0.67322 0.0
C829 C 0.75273 0.79943 0.67497 0.0
C830 C 0.71001 0.73274 0.63758 0.0
C831 C 0.71 0.7512 0.63171 0.0
C832 C 0.69479 0.71522 0.63615 0.0
C833 C 0.69436 0.75209 0.62465 0.0
C834 C 0.67938 0.71674 0.62903 0.0
N835 N 0.67946 0.73501 0.62348 0.0
C836 C 0.77892 0.77911 0.64956 0.0
C837 C 0.74311 0.79272 0.64521 0.0
C838 C 0.78911 0.79864 0.64633 0.0
N839 N 0.75633 0.77637 0.64882 0.0
C840 C 0.7526 0.81253 0.6419 0.0
C841 C 0.77591 0.81565 0.64243 0.0
H842 H 0.78909 0.76643 0.65278 0.0
H843 H 0.7251 0.79049 0.64506 0.0
C844 C 0.65821 0.72417 0.65431 0.0
N845 N 0.67357 0.74031 0.65234 0.0
C846 C 0.63567 0.72753 0.6522 0.0
C847 C 0.64523 0.76406 0.64608 0.0
C848 C 0.66762 0.76001 0.64834 0.0
C849 C 0.62894 0.74773 0.64808 0.0
H850 H 0.66349 0.70871 0.65751 0.0
H851 H 0.6803 0.77253 0.64691 0.0
O852 O 0.75828 0.72763 0.66067 0.0
O853 O 0.7094 0.70948 0.66333 0.0
O854 O 0.71719 0.7602 0.66221 0.0
O855 O 0.72493 0.73176 0.64466 0.0
H856 H 0.76601 0.72355 0.64289 0.0
H857 H 0.79682 0.72292 0.66937 0.0
H858 H 0.80312 0.7158 0.63607 0.0
H859 H 0.83347 0.71525 0.66203 0.0
H860 H 0.68878 0.63754 0.65699 0.0
H861 H 0.72584 0.69009 0.67813 0.0
H862 H 0.69008 0.67808 0.6532 0.0
H863 H 0.72381 0.64937 0.68152 0.0
H864 H 0.77267 0.72196 0.69644 0.0
H865 H 0.70675 0.75183 0.69908 0.0
H866 H 0.75027 0.65326 0.6304 0.0
H867 H 0.77241 0.63696 0.65764 0.0
H868 H 0.69212 0.79557 0.66591 0.0
H869 H 0.75796 0.76674 0.66911 0.0
H870 H 0.70504 0.82922 0.67443 0.0
H871 H 0.76968 0.8008 0.67755 0.0
H872 H 0.72199 0.76465 0.63255 0.0
H873 H 0.6947 0.70073 0.64057 0.0
H874 H 0.69409 0.76634 0.62009 0.0
H875 H 0.66735 0.7034 0.62792 0.0
H876 H 0.80717 0.80033 0.64686 0.0
H877 H 0.74176 0.82543 0.63912 0.0
H878 H 0.62365 0.71442 0.65375 0.0
H879 H 0.64066 0.77994 0.643 0.0
Li880 Li 0.70074 0.25745 0.34189 0.0
Li881 Li 0.73603 0.23701 0.34203 0.0
Li882 Li 0.73505 0.278 0.34198 0.0
Li883 Li 0.7248 0.25651 0.32855 0.0
C884 C 0.73231 0.26658 0.3591 0.0
N885 N 0.75134 0.287 0.3741 0.0
C886 C 0.7515 0.25743 0.36312 0.0
C887 C 0.72272 0.28606 0.36274 0.0
C888 C 0.76087 0.268 0.3707 0.0
C889 C 0.73264 0.29616 0.37031 0.0
C890 C 0.70692 0.20856 0.33525 0.0
C891 C 0.71969 0.17088 0.33208 0.0
N892 N 0.70348 0.16262 0.33767 0.0
C893 C 0.69036 0.19969 0.34094 0.0
C894 C 0.72166 0.19405 0.33075 0.0
C895 C 0.6889 0.17642 0.34207 0.0
C896 C 0.65448 0.25194 0.33972 0.0
N897 N 0.67064 0.25701 0.34589 0.0
C898 C 0.64318 0.26252 0.35748 0.0
C899 C 0.66553 0.26196 0.35466 0.0
C900 C 0.62607 0.25789 0.3512 0.0
C901 C 0.63195 0.25236 0.34223 0.0
H902 H 0.65915 0.24774 0.33283 0.0
H903 H 0.67877 0.26562 0.35944 0.0
C904 C 0.77245 0.20729 0.34421 0.0
N905 N 0.75106 0.21168 0.34687 0.0
C906 C 0.7841 0.18918 0.34794 0.0
C907 C 0.75143 0.18042 0.35704 0.0
C908 C 0.74049 0.19885 0.3532 0.0
C909 C 0.77358 0.17554 0.35446 0.0
H910 H 0.78056 0.21802 0.33929 0.0
H911 H 0.72364 0.2031 0.35532 0.0
C912 C 0.68913 0.29274 0.33239 0.0
N913 N 0.64694 0.31088 0.3297 0.0
C914 C 0.67771 0.28895 0.32423 0.0
C915 C 0.67913 0.30585 0.33915 0.0
C916 C 0.6564 0.29827 0.32301 0.0
C917 C 0.65777 0.31482 0.33767 0.0
C918 C 0.76849 0.26058 0.32761 0.0
C919 C 0.77659 0.28201 0.3255 0.0
C920 C 0.77419 0.24233 0.32209 0.0
C921 C 0.79016 0.28484 0.31784 0.0
C922 C 0.78774 0.24587 0.31448 0.0
N923 N 0.79538 0.26687 0.31253 0.0
C924 C 0.77101 0.30093 0.34976 0.0
C925 C 0.74004 0.32436 0.34616 0.0
C926 C 0.78249 0.31902 0.35355 0.0
N927 N 0.7501 0.30387 0.34628 0.0
C928 C 0.75093 0.34297 0.34989 0.0
C929 C 0.77239 0.34036 0.35371 0.0
H930 H 0.77855 0.28439 0.34972 0.0
H931 H 0.72351 0.32622 0.34325 0.0
C932 C 0.72158 0.2375 0.31093 0.0
N933 N 0.72577 0.25661 0.31569 0.0
C934 C 0.72371 0.23733 0.3015 0.0
C935 C 0.73388 0.27668 0.30204 0.0
C936 C 0.73145 0.27609 0.31145 0.0
C937 C 0.73019 0.25706 0.29695 0.0
H938 H 0.71689 0.22232 0.31448 0.0
H939 H 0.73442 0.2911 0.31543 0.0
O940 O 0.72317 0.25677 0.35155 0.0
O941 O 0.70883 0.23132 0.33415 0.0
O942 O 0.70982 0.28338 0.33379 0.0
O943 O 0.75474 0.25755 0.33495 0.0
H944 H 0.75925 0.24246 0.36037 0.0
H945 H 0.70806 0.29357 0.35964 0.0
H946 H 0.77578 0.26115 0.37385 0.0
H947 H 0.72552 0.31135 0.37314 0.0
H948 H 0.7311 0.15947 0.3287 0.0
H949 H 0.67888 0.21064 0.34452 0.0
H950 H 0.73474 0.20062 0.3264 0.0
H951 H 0.67622 0.16933 0.34649 0.0
H952 H 0.63933 0.26691 0.36445 0.0
H953 H 0.61928 0.24823 0.33723 0.0
H954 H 0.80114 0.18588 0.34575 0.0
H955 H 0.74289 0.17047 0.36214 0.0
H956 H 0.6851 0.27873 0.31895 0.0
H957 H 0.68758 0.30869 0.34556 0.0
H958 H 0.64733 0.2954 0.31675 0.0
H959 H 0.64975 0.32481 0.34288 0.0
H960 H 0.77222 0.29635 0.32965 0.0
H961 H 0.7679 0.22567 0.32357 0.0
H962 H 0.79644 0.30134 0.3161 0.0
H963 H 0.79212 0.23194 0.3101 0.0
H964 H 0.79889 0.3162 0.35652 0.0
H965 H 0.7427 0.3592 0.34977 0.0
H966 H 0.72085 0.22182 0.29783 0.0
H967 H 0.73857 0.29231 0.29878 0.0
Li968 Li 0.77414 0.76401 0.84096 0.0
Li969 Li 0.80896 0.74284 0.83888 0.0
Li970 Li 0.78054 0.74403 0.82732 0.0
Li971 Li 0.77341 0.7227 0.84138 0.0
C972 C 0.80513 0.77907 0.82425 0.0
N973 N 0.81823 0.79703 0.80778 0.0
C974 C 0.82612 0.77373 0.8206 0.0
C975 C 0.79085 0.79364 0.81955 0.0
C976 C 0.83243 0.78298 0.81226 0.0
C977 C 0.79776 0.8025 0.81122 0.0
C978 C 0.79932 0.74833 0.85763 0.0
C979 C 0.81508 0.73678 0.87199 0.0
N980 N 0.82068 0.75849 0.87379 0.0
C981 C 0.805 0.77055 0.85968 0.0
C982 C 0.8042 0.73131 0.86388 0.0
C983 C 0.81589 0.77534 0.86785 0.0
C984 C 0.74781 0.78739 0.85369 0.0
N985 N 0.76205 0.78995 0.84656 0.0
C986 C 0.75978 0.82989 0.8477 0.0
C987 C 0.76832 0.81061 0.84357 0.0
C988 C 0.7446 0.82784 0.85496 0.0
C989 C 0.73867 0.80619 0.85796 0.0
H990 H 0.74344 0.77069 0.856 0.0
H991 H 0.78012 0.8121 0.83802 0.0
C992 C 0.85511 0.72771 0.83944 0.0
N993 N 0.84028 0.74441 0.8414 0.0
C994 C 0.8779 0.73051 0.8413 0.0
C995 C 0.8699 0.76786 0.84687 0.0
C996 C 0.84731 0.76435 0.84489 0.0
C997 C 0.88553 0.75079 0.84508 0.0
H998 H 0.84956 0.71243 0.83624 0.0
H999 H 0.83537 0.77775 0.84596 0.0
C1000 C 0.73274 0.75314 0.83663 0.0
N1001 N 0.69263 0.77388 0.84097 0.0
C1002 C 0.71782 0.74291 0.84268 0.0
C1003 C 0.72714 0.77381 0.83271 0.0
C1004 C 0.69765 0.75368 0.8448 0.0
C1005 C 0.70683 0.78406 0.83503 0.0
C1006 C 0.80775 0.69714 0.83339 0.0
C1007 C 0.81372 0.6833 0.82611 0.0
C1008 C 0.81256 0.69035 0.84226 0.0
C1009 C 0.82454 0.66291 0.82784 0.0
C1010 C 0.82337 0.66983 0.84372 0.0
N1011 N 0.8291 0.65665 0.83653 0.0
C1012 C 0.79303 0.73611 0.8092 0.0
C1013 C 0.75641 0.75106 0.81102 0.0
C1014 C 0.79062 0.73612 0.79978 0.0
N1015 N 0.7761 0.74366 0.81458 0.0
C1016 C 0.75325 0.75136 0.80164 0.0
C1017 C 0.77051 0.74386 0.79588 0.0
H1018 H 0.80847 0.73021 0.81225 0.0
H1019 H 0.7432 0.75684 0.81546 0.0
C1020 C 0.75282 0.69947 0.85556 0.0
N1021 N 0.75995 0.6974 0.84684 0.0
C1022 C 0.74265 0.68134 0.85992 0.0
C1023 C 0.74785 0.65918 0.8463 0.0
C1024 C 0.75761 0.67786 0.84215 0.0
C1025 C 0.7401 0.66091 0.85527 0.0
H1026 H 0.75486 0.71529 0.85908 0.0
H1027 H 0.76331 0.67682 0.83519 0.0
O1028 O 0.7984 0.76972 0.83229 0.0
O1029 O 0.78846 0.74329 0.84969 0.0
O1030 O 0.75271 0.74297 0.83457 0.0
O1031 O 0.79675 0.71693 0.83179 0.0
H1032 H 0.83733 0.76236 0.82411 0.0
H1033 H 0.77447 0.79782 0.82224 0.0
H1034 H 0.84859 0.7789 0.80934 0.0
H1035 H 0.78681 0.81367 0.80747 0.0
H1036 H 0.81902 0.72376 0.87687 0.0
H1037 H 0.8013 0.78399 0.85497 0.0
H1038 H 0.79953 0.71407 0.86253 0.0
H1039 H 0.82052 0.79245 0.86948 0.0
H1040 H 0.76518 0.84621 0.84527 0.0
H1041 H 0.72683 0.80376 0.86345 0.0
H1042 H 0.88948 0.71717 0.83954 0.0
H1043 H 0.87505 0.7838 0.84975 0.0
H1044 H 0.72176 0.72684 0.84571 0.0
H1045 H 0.73856 0.78207 0.82808 0.0
H1046 H 0.68598 0.74599 0.8495 0.0
H1047 H 0.70241 0.80017 0.83212 0.0
H1048 H 0.80997 0.68826 0.8192 0.0
H1049 H 0.80806 0.70085 0.84795 0.0
H1050 H 0.82928 0.65204 0.82227 0.0
H1051 H 0.82722 0.66439 0.85055 0.0
H1052 H 0.80423 0.72991 0.7956 0.0
H1053 H 0.73757 0.75767 0.79892 0.0
H1054 H 0.73692 0.68323 0.86687 0.0
H1055 H 0.74592 0.64373 0.84249 0.0
Li1056 Li 0.50138 0.53641 0.07655 0.0
Li1057 Li 0.5025 0.55896 0.09032 0.0
Li1058 Li 0.52457 0.52312 0.08939 0.0
Li1059 Li 0.48352 0.52366 0.09103 0.0
C1060 C 0.54527 0.55701 0.07653 0.0
N1061 N 0.58035 0.56885 0.06521 0.0
C1062 C 0.54859 0.5795 0.07412 0.0
C1063 C 0.56006 0.54061 0.0733 0.0
C1064 C 0.56634 0.58513 0.06836 0.0
C1065 C 0.57762 0.54691 0.06755 0.0
C1066 C 0.46341 0.56882 0.08235 0.0
C1067 C 0.4391 0.59713 0.08873 0.0
N1068 N 0.43957 0.60844 0.0807 0.0
C1069 C 0.4635 0.5806 0.07414 0.0
C1070 C 0.45096 0.57701 0.08969 0.0
C1071 C 0.45138 0.60064 0.07345 0.0
C1072 C 0.48403 0.51933 0.06055 0.0
N1073 N 0.49835 0.53525 0.06373 0.0
C1074 C 0.50887 0.54537 0.04862 0.0
C1075 C 0.51029 0.54858 0.058 0.0
C1076 C 0.49495 0.52835 0.04515 0.0
C1077 C 0.4821 0.51552 0.05124 0.0
H1078 H 0.47452 0.50918 0.06528 0.0
H1079 H 0.5212 0.56144 0.06066 0.0
C1080 C 0.50448 0.59202 0.104 0.0
N1081 N 0.50286 0.58865 0.09489 0.0
C1082 C 0.50428 0.61379 0.10753 0.0
C1083 C 0.50101 0.62812 0.09221 0.0
C1084 C 0.50142 0.60612 0.08899 0.0
C1085 C 0.50236 0.63214 0.10159 0.0
H1086 H 0.50592 0.57782 0.10854 0.0
H1087 H 0.50051 0.60297 0.08178 0.0
C1088 C 0.50736 0.48695 0.07791 0.0
N1089 N 0.51822 0.44779 0.0688 0.0
C1090 C 0.49726 0.46662 0.08035 0.0
C1091 C 0.52279 0.48737 0.07076 0.0
C1092 C 0.50304 0.44699 0.07569 0.0
C1093 C 0.5281 0.46741 0.06625 0.0
C1094 C 0.49928 0.5281 0.10791 0.0
C1095 C 0.51082 0.51106 0.11249 0.0
C1096 C 0.48009 0.53755 0.11183 0.0
C1097 C 0.50274 0.50349 0.12086 0.0
C1098 C 0.47253 0.52949 0.1202 0.0
N1099 N 0.48391 0.51276 0.1245 0.0
C1100 C 0.57002 0.519 0.09474 0.0
C1101 C 0.54955 0.48488 0.09379 0.0
C1102 C 0.58917 0.50742 0.09761 0.0
N1103 N 0.55081 0.50756 0.09287 0.0
C1104 C 0.56826 0.47266 0.09655 0.0
C1105 C 0.58838 0.48393 0.09851 0.0
H1106 H 0.57039 0.5371 0.09407 0.0
H1107 H 0.53387 0.47631 0.09259 0.0
C1108 C 0.43789 0.51388 0.09484 0.0
N1109 N 0.4595 0.50723 0.0961 0.0
C1110 C 0.42037 0.50174 0.09881 0.0
C1111 C 0.44781 0.47639 0.1053 0.0
C1112 C 0.4647 0.48872 0.10108 0.0
C1113 C 0.42536 0.48291 0.10418 0.0
H1114 H 0.43429 0.52857 0.09078 0.0
H1115 H 0.48202 0.4836 0.10179 0.0
O1116 O 0.52799 0.55126 0.08221 0.0
O1117 O 0.47535 0.5493 0.08318 0.0
O1118 O 0.50181 0.50631 0.08241 0.0
O1119 O 0.50674 0.53549 0.09965 0.0
H1120 H 0.53751 0.59247 0.07664 0.0
H1121 H 0.55822 0.52323 0.07528 0.0
H1122 H 0.56899 0.60245 0.06639 0.0
H1123 H 0.58914 0.53437 0.06499 0.0
H1124 H 0.42954 0.60377 0.09437 0.0
H1125 H 0.47299 0.57444 0.06839 0.0
H1126 H 0.45061 0.56802 0.09607 0.0
H1127 H 0.4514 0.61002 0.06715 0.0
H1128 H 0.51912 0.5556 0.04417 0.0
H1129 H 0.47084 0.50252 0.04885 0.0
H1130 H 0.50534 0.61622 0.1148 0.0
H1131 H 0.49996 0.64186 0.0874 0.0
H1132 H 0.48512 0.46598 0.0858 0.0
H1133 H 0.53032 0.50298 0.0686 0.0
H1134 H 0.49543 0.43114 0.07755 0.0
H1135 H 0.53999 0.46753 0.0607 0.0
H1136 H 0.52577 0.50366 0.10959 0.0
H1137 H 0.47102 0.5508 0.10839 0.0
H1138 H 0.51143 0.49023 0.12445 0.0
H1139 H 0.4576 0.53652 0.12327 0.0
H1140 H 0.60439 0.51668 0.09909 0.0
H1141 H 0.56681 0.45463 0.09739 0.0
H1142 H 0.40318 0.50713 0.0978 0.0
H1143 H 0.4522 0.46172 0.10928 0.0
Li1144 Li 0.9928 0.47826 0.5918 0.0
Li1145 Li 0.03363 0.48264 0.59261 0.0
Li1146 Li 0.01374 0.47459 0.57789 0.0
Li1147 Li 0.01819 0.4452 0.58937 0.0
C1148 C 0.00045 0.52123 0.58703 0.0
N1149 N 0.97704 0.56079 0.58969 0.0
C1150 C 0.00832 0.53722 0.59322 0.0
C1151 C 0.98086 0.52551 0.5821 0.0
C1152 C 0.9962 0.55708 0.59449 0.0
C1153 C 0.96921 0.54556 0.58357 0.0
C1154 C 0.0218 0.46137 0.60908 0.0
C1155 C 0.04791 0.44503 0.61973 0.0
N1156 N 0.03764 0.45628 0.62661 0.0
C1157 C 0.01131 0.47252 0.61629 0.0
C1158 C 0.04008 0.44731 0.61083 0.0
C1159 C 0.01964 0.46983 0.62509 0.0
C1160 C 0.94596 0.47692 0.59469 0.0
N1161 N 0.96529 0.48755 0.59705 0.0
C1162 C 0.94538 0.51203 0.60704 0.0
C1163 C 0.9654 0.50459 0.60319 0.0
C1164 C 0.92504 0.50152 0.6047 0.0
C1165 C 0.92553 0.48365 0.59846 0.0
H1166 H 0.94642 0.46315 0.58991 0.0
H1167 H 0.98105 0.51251 0.60505 0.0
C1168 C 0.07717 0.50039 0.59326 0.0
N1169 N 0.05785 0.49818 0.59808 0.0
C1170 C 0.09571 0.51111 0.59708 0.0
C1171 C 0.07389 0.51771 0.61067 0.0
C1172 C 0.05578 0.50686 0.60658 0.0
C1173 C 0.09424 0.51982 0.60593 0.0
H1174 H 0.0782 0.49372 0.58644 0.0
H1175 H 0.03999 0.50563 0.61014 0.0
C1176 C 0.97898 0.44666 0.57521 0.0
N1177 N 0.95629 0.43256 0.55986 0.0
C1178 C 0.98242 0.42502 0.57179 0.0
C1179 C 0.96376 0.46102 0.5709 0.0
C1180 C 0.97085 0.41822 0.56401 0.0
C1181 C 0.95253 0.45361 0.56313 0.0
C1182 C 0.06094 0.44909 0.58117 0.0
C1183 C 0.06578 0.44113 0.57245 0.0
C1184 C 0.07577 0.44451 0.58829 0.0
C1185 C 0.0851 0.42827 0.57106 0.0
C1186 C 0.09492 0.43161 0.58662 0.0
N1187 N 0.09913 0.42378 0.57811 0.0
C1188 C 0.01376 0.50265 0.56256 0.0
C1189 C 0.01493 0.46375 0.55911 0.0
C1190 C 0.01445 0.50809 0.55335 0.0
N1191 N 0.01395 0.48079 0.56524 0.0
C1192 C 0.01552 0.4684 0.54983 0.0
C1193 C 0.01538 0.49083 0.54685 0.0
H1194 H 0.01328 0.51589 0.56757 0.0
H1195 H 0.01554 0.44653 0.56142 0.0
C1196 C 0.01297 0.40569 0.5994 0.0
N1197 N 0.02182 0.4141 0.5916 0.0
C1198 C 0.01516 0.38291 0.60144 0.0
C1199 C 0.03511 0.37781 0.58729 0.0
C1200 C 0.03252 0.40068 0.58552 0.0
C1201 C 0.02638 0.36868 0.59534 0.0
H1202 H 0.00416 0.41669 0.60403 0.0
H1203 H 0.03864 0.40759 0.57922 0.0
O1204 O 0.01197 0.50159 0.58577 0.0
O1205 O 0.01386 0.4639 0.60041 0.0
O1206 O 0.9903 0.45366 0.58278 0.0
O1207 O 0.04204 0.46167 0.58265 0.0
H1208 H 0.02354 0.53427 0.59704 0.0
H1209 H 0.97469 0.51345 0.57722 0.0
H1210 H 0.00202 0.56954 0.59929 0.0
H1211 H 0.95394 0.54902 0.57985 0.0
H1212 H 0.06209 0.43423 0.62116 0.0
H1213 H 0.99697 0.48324 0.61509 0.0
H1214 H 0.04797 0.43799 0.60541 0.0
H1215 H 0.01179 0.4785 0.63071 0.0
H1216 H 0.94586 0.52609 0.6117 0.0
H1217 H 0.91034 0.47482 0.59656 0.0
H1218 H 0.1111 0.51234 0.5932 0.0
H1219 H 0.07186 0.52469 0.61742 0.0
H1220 H 0.994 0.41362 0.57508 0.0
H1221 H 0.9607 0.47771 0.57352 0.0
H1222 H 0.97345 0.40156 0.56126 0.0
H1223 H 0.94082 0.4646 0.55969 0.0
H1224 H 0.05469 0.44472 0.56683 0.0
H1225 H 0.07272 0.45109 0.59501 0.0
H1226 H 0.08894 0.42187 0.56436 0.0
H1227 H 0.10649 0.42791 0.59208 0.0
H1228 H 0.01416 0.52559 0.55133 0.0
H1229 H 0.01658 0.45462 0.54504 0.0
H1230 H 0.0082 0.37653 0.60773 0.0
H1231 H 0.04337 0.3673 0.58229 0.0
Li1232 Li 0.4818 0.47524 0.90424 0.0
Li1233 Li 0.52393 0.47241 0.90476 0.0
Li1234 Li 0.50071 0.4397 0.9062 0.0
Li1235 Li 0.50352 0.46525 0.91841 0.0
C1236 C 0.50496 0.44666 0.88851 0.0
N1237 N 0.50996 0.41668 0.87434 0.0
C1238 C 0.52608 0.43766 0.88653 0.0
C1239 C 0.48641 0.44054 0.88325 0.0
C1240 C 0.52825 0.42249 0.87935 0.0
C1241 C 0.48928 0.42533 0.87612 0.0
C1242 C 0.51313 0.51434 0.90964 0.0
C1243 C 0.5431 0.54117 0.91167 0.0
N1244 N 0.53257 0.55549 0.90586 0.0
C1245 C 0.50253 0.5294 0.90375 0.0
C1246 C 0.5335 0.52034 0.91369 0.0
C1247 C 0.51265 0.5501 0.90191 0.0
C1248 C 0.4398 0.49655 0.90482 0.0
N1249 N 0.45704 0.49051 0.8993 0.0
C1250 C 0.43895 0.50693 0.88647 0.0
C1251 C 0.45701 0.49543 0.8903 0.0
C1252 C 0.42079 0.5133 0.89198 0.0
C1253 C 0.42129 0.50792 0.90127 0.0
H1254 H 0.44047 0.4925 0.91198 0.0
H1255 H 0.47112 0.49056 0.88611 0.0
C1256 C 0.57073 0.47571 0.90181 0.0
N1257 N 0.55036 0.48412 0.89944 0.0
C1258 C 0.59028 0.48462 0.89802 0.0
C1259 C 0.56738 0.51035 0.88931 0.0
C1260 C 0.54832 0.50067 0.89314 0.0
C1261 C 0.5888 0.50243 0.89176 0.0
H1262 H 0.57182 0.46203 0.90662 0.0
H1263 H 0.53184 0.50662 0.89122 0.0
C1264 C 0.46081 0.43436 0.91446 0.0
N1265 N 0.43135 0.39873 0.91629 0.0
C1266 C 0.46689 0.41547 0.91954 0.0
C1267 C 0.43968 0.43515 0.91033 0.0
C1268 C 0.4518 0.39762 0.92037 0.0
C1269 C 0.42504 0.41697 0.91133 0.0
C1270 C 0.53893 0.4416 0.92099 0.0
C1271 C 0.53512 0.42088 0.9252 0.0
C1272 C 0.55345 0.4571 0.92504 0.0
C1273 C 0.54575 0.41611 0.93344 0.0
C1274 C 0.56372 0.45173 0.93329 0.0
N1275 N 0.55968 0.43152 0.93729 0.0
C1276 C 0.5177 0.39632 0.9033 0.0
C1277 C 0.47981 0.40066 0.89873 0.0
C1278 C 0.51733 0.37371 0.90084 0.0
N1279 N 0.49892 0.4091 0.90245 0.0
C1280 C 0.47859 0.37807 0.89628 0.0
C1281 C 0.49742 0.36416 0.89748 0.0
H1282 H 0.53298 0.40371 0.9059 0.0
H1283 H 0.46542 0.41141 0.89773 0.0
C1284 C 0.5081 0.49091 0.93433 0.0
N1285 N 0.50341 0.46992 0.93123 0.0
C1286 C 0.50802 0.49543 0.94362 0.0
C1287 C 0.49809 0.45665 0.9464 0.0
C1288 C 0.49837 0.4529 0.93704 0.0
C1289 C 0.50292 0.47817 0.94979 0.0
H1290 H 0.51167 0.50426 0.92958 0.0
H1291 H 0.49462 0.43638 0.93444 0.0
O1292 O 0.50241 0.46108 0.89566 0.0
O1293 O 0.50357 0.49388 0.91145 0.0
O1294 O 0.47533 0.45206 0.91356 0.0
O1295 O 0.52834 0.44679 0.91301 0.0
H1296 H 0.54057 0.44212 0.89058 0.0
H1297 H 0.46992 0.44722 0.88475 0.0
H1298 H 0.54445 0.41528 0.87777 0.0
H1299 H 0.47506 0.42032 0.87203 0.0
H1300 H 0.55894 0.54594 0.9147 0.0
H1301 H 0.48672 0.52517 0.90059 0.0
H1302 H 0.54195 0.50895 0.91828 0.0
H1303 H 0.50468 0.56186 0.89733 0.0
H1304 H 0.43911 0.51067 0.87927 0.0
H1305 H 0.40774 0.51282 0.90576 0.0
H1306 H 0.60634 0.47757 0.89996 0.0
H1307 H 0.56529 0.52421 0.88462 0.0
H1308 H 0.48329 0.41432 0.92263 0.0
H1309 H 0.4347 0.44953 0.90632 0.0
H1310 H 0.45639 0.38282 0.92422 0.0
H1311 H 0.40868 0.41733 0.90815 0.0
H1312 H 0.52389 0.40868 0.92221 0.0
H1313 H 0.55661 0.4732 0.92189 0.0
H1314 H 0.54284 0.4002 0.9368 0.0
H1315 H 0.57487 0.46364 0.93652 0.0
H1316 H 0.53246 0.36381 0.90162 0.0
H1317 H 0.46287 0.37149 0.89373 0.0
H1318 H 0.51147 0.51236 0.94593 0.0
H1319 H 0.4943 0.44281 0.95092 0.0
Li1320 Li 0.01078 0.55611 0.4057 0.0
Li1321 Li 0.01243 0.53498 0.4195 0.0
Li1322 Li 0.02836 0.5202 0.40571 0.0
Li1323 Li 0.98841 0.52275 0.40743 0.0
C1324 C 0.04689 0.56512 0.41718 0.0
N1325 N 0.06453 0.6012 0.42661 0.0
C1326 C 0.03269 0.58175 0.42066 0.0
C1327 C 0.07006 0.56687 0.4185 0.0
C1328 C 0.04193 0.59985 0.4254 0.0
C1329 C 0.07865 0.58523 0.42328 0.0
C1330 C 0.96791 0.54983 0.42013 0.0
C1331 C 0.94599 0.52995 0.43132 0.0
N1332 N 0.9313 0.54744 0.43161 0.0
C1333 C 0.9526 0.5676 0.42054 0.0
C1334 C 0.96459 0.53083 0.42555 0.0
C1335 C 0.9342 0.56608 0.42639 0.0
C1336 C 0.99025 0.59291 0.39763 0.0
N1337 N 0.01056 0.58484 0.40026 0.0
C1338 C 0.02885 0.6181 0.39506 0.0
C1339 C 0.02975 0.59671 0.39891 0.0
C1340 C 0.00802 0.6272 0.39247 0.0
C1341 C 0.98858 0.61413 0.39367 0.0
H1342 H 0.97535 0.58284 0.39868 0.0
H1343 H 0.04575 0.58972 0.40091 0.0
C1344 C 0.02814 0.51909 0.43611 0.0
N1345 N 0.0161 0.53601 0.43228 0.0
C1346 C 0.03045 0.51785 0.44552 0.0
C1347 C 0.00831 0.55178 0.44686 0.0
C1348 C 0.00653 0.55242 0.43741 0.0
C1349 C 0.0202 0.53418 0.45102 0.0
H1350 H 0.0356 0.50634 0.43183 0.0
H1351 H -0.00283 0.5658 0.43419 0.0
C1352 C 0.01679 0.53741 0.38879 0.0
N1353 N 0.03761 0.5489 0.37267 0.0
C1354 C 0.00561 0.53448 0.38053 0.0
C1355 C 0.03857 0.54617 0.38885 0.0
C1356 C 0.01642 0.54039 0.37245 0.0
C1357 C 0.0488 0.55188 0.38063 0.0
C1358 C 0.00812 0.48181 0.41237 0.0
C1359 C 0.00224 0.47548 0.40354 0.0
C1360 C 0.0127 0.46526 0.41884 0.0
C1361 C 0.00108 0.45267 0.40133 0.0
C1362 C 0.01137 0.44263 0.41637 0.0
N1363 N 0.00564 0.43685 0.40774 0.0
C1364 C 0.07195 0.50199 0.40536 0.0
C1365 C 0.04889 0.49128 0.39296 0.0
C1366 C 0.0897 0.48916 0.40196 0.0
N1367 N 0.05207 0.50274 0.40084 0.0
C1368 C 0.06608 0.4782 0.38935 0.0
C1369 C 0.08678 0.47694 0.39388 0.0
H1370 H 0.07394 0.51127 0.41163 0.0
H1371 H 0.03297 0.49229 0.38946 0.0
C1372 C 0.95012 0.51757 0.3968 0.0
N1373 N 0.96043 0.50975 0.40439 0.0
C1374 C 0.93028 0.50767 0.39376 0.0
C1375 C 0.9317 0.48234 0.40661 0.0
C1376 C 0.9515 0.49275 0.4094 0.0
C1377 C 0.92105 0.48954 0.3986 0.0
H1378 H 0.95765 0.53116 0.39299 0.0
H1379 H 0.96002 0.48692 0.41544 0.0
O1380 O 0.03836 0.54713 0.41253 0.0
O1381 O 0.98594 0.55118 0.4144 0.0
O1382 O 0.00629 0.53173 0.39673 0.0
O1383 O 0.00943 0.50402 0.41473 0.0
H1384 H 0.01475 0.58082 0.41968 0.0
H1385 H 0.08128 0.55415 0.41584 0.0
H1386 H 0.03114 0.61283 0.42812 0.0
H1387 H 0.09655 0.58679 0.42435 0.0
H1388 H 0.94324 0.51536 0.43556 0.0
H1389 H 0.95494 0.58241 0.41637 0.0
H1390 H 0.97627 0.51694 0.42536 0.0
H1391 H 0.92222 0.57971 0.42677 0.0
H1392 H 0.04424 0.62763 0.39439 0.0
H1393 H 0.97223 0.62028 0.39164 0.0
H1394 H 0.03957 0.50389 0.44846 0.0
H1395 H 0.00039 0.56483 0.45086 0.0
H1396 H 0.98876 0.52769 0.38037 0.0
H1397 H 0.04754 0.54851 0.39516 0.0
H1398 H 0.00797 0.53822 0.36601 0.0
H1399 H 0.06564 0.55868 0.38058 0.0
H1400 H -0.00146 0.48799 0.39843 0.0
H1401 H 0.01723 0.46987 0.42571 0.0
H1402 H 0.99656 0.44756 0.39452 0.0
H1403 H 0.01489 0.42965 0.42132 0.0
H1404 H 0.10536 0.48847 0.40569 0.0
H1405 H 0.06327 0.46929 0.38304 0.0
H1406 H 0.92275 0.51356 0.3875 0.0
H1407 H 0.92499 0.46859 0.41059 0.0
H1408 H 0.04907 0.15357 0.59171 0.0
H1409 H 0.05638 0.19367 0.59373 0.0
H1410 H 0.99068 0.20216 0.60556 0.0
H1411 H 0.98355 0.16192 0.60389 0.0
H1412 H 0.03175 0.22665 0.58555 0.0
H1413 H 0.03009 0.23793 0.6229 0.0
H1414 H 0.03311 0.2107 0.61761 0.0
H1415 H 0.00585 0.22349 0.61862 0.0
C1416 C 0.03639 0.16386 0.59495 0.0
C1417 C 0.01571 0.15459 0.59763 0.0
C1418 C 0.04057 0.18677 0.59606 0.0
C1419 C 0.0242 0.20079 0.5999 0.0
C1420 C 0.00372 0.19154 0.60275 0.0
H1421 H 0.99391 0.34073 0.60196 0.0
H1422 H 0.99594 0.29993 0.60378 0.0
C1423 C -0.00046 0.16861 0.60167 0.0
C1424 C 0.0276 0.22538 0.60007 0.0
H1425 H 0.02638 0.27138 0.61391 0.0
C1426 C 0.03093 0.23642 0.59177 0.0
C1427 C 0.02642 0.23801 0.6082 0.0
C1428 C 0.02389 0.22691 0.61735 0.0
C1429 C 0.03224 0.25989 0.5913 0.0
C1430 C 0.03052 0.27256 0.59939 0.0
C1431 C 0.0277 0.26153 0.60774 0.0
C1432 C 0.03034 0.29734 0.5992 0.0
C1433 C 0.03454 0.27098 0.58212 0.0
C1434 C 0.04924 0.30933 0.59625 0.0
C1435 C 0.04815 0.33263 0.5952 0.0
C1436 C 0.02818 0.34426 0.59715 0.0
C1437 C 0.00958 0.33225 0.60047 0.0
C1438 C 0.01068 0.30897 0.6015 0.0
H1439 H 0.03116 0.25909 0.57647 0.0
H1440 H 0.02286 0.28545 0.58152 0.0
H1441 H 0.05192 0.27742 0.58133 0.0
H1442 H 0.06466 0.30061 0.59458 0.0
H1443 H 0.06286 0.34151 0.59278 0.0
H1444 H 0.91601 0.72095 0.852 0.0
H1445 H 0.95653 0.72611 0.85353 0.0
H1446 H 0.95035 0.79409 0.84365 0.0
H1447 H 0.90996 0.78881 0.84175 0.0
H1448 H 0.98219 0.76962 0.83463 0.0
H1449 H 0.99394 0.76116 0.87183 0.0
H1450 H 0.97859 0.73825 0.86689 0.0
H1451 H 0.9668 0.76608 0.86673 0.0
C1452 C 0.92327 0.73702 0.85017 0.0
C1453 C 0.90979 0.75445 0.84673 0.0
C1454 C 0.94637 0.74004 0.85118 0.0
C1455 C 0.95633 0.7606 0.84884 0.0
C1456 C 0.94289 0.77818 0.84557 0.0
H1457 H 0.09742 0.79759 0.84275 0.0
H1458 H 0.05659 0.79948 0.84446 0.0
C1459 C 0.91981 0.77516 0.84454 0.0
C1460 C 0.981 0.76306 0.84901 0.0
H1461 H 0.02706 0.75832 0.86266 0.0
C1462 C 0.99201 0.76747 0.84078 0.0
C1463 C 0.99368 0.76014 0.85704 0.0
C1464 C 0.98265 0.75636 0.86614 0.0
C1465 C 0.01546 0.76828 0.84029 0.0
C1466 C 0.02815 0.7649 0.84829 0.0
C1467 C 0.01718 0.7609 0.85656 0.0
C1468 C 0.05289 0.76442 0.84806 0.0
C1469 C 0.02651 0.77191 0.83118 0.0
C1470 C 0.06424 0.74424 0.8498 0.0
C1471 C 0.08752 0.74313 0.84889 0.0
C1472 C 0.0998 0.76223 0.84626 0.0
C1473 C 0.08841 0.78263 0.84483 0.0
C1474 C 0.06512 0.78371 0.84574 0.0
H1475 H 0.01451 0.76972 0.82547 0.0
H1476 H 0.03328 0.78926 0.83086 0.0
H1477 H 0.04072 0.76005 0.83023 0.0
H1478 H 0.05503 0.72922 0.85165 0.0
H1479 H 0.0959 0.72729 0.85019 0.0
H1480 H 0.47471 0.66627 0.09644 0.0
H1481 H 0.47698 0.70575 0.10093 0.0
H1482 H 0.53137 0.69014 0.11921 0.0
H1483 H 0.52952 0.65055 0.1146 0.0
H1484 H 0.47549 0.72795 0.11875 0.0
H1485 H 0.55727 0.7363 0.10057 0.0
H1486 H 0.53889 0.71262 0.09874 0.0
H1487 H 0.55475 0.7147 0.10906 0.0
C1488 C 0.48709 0.67123 0.10145 0.0
C1489 C 0.50216 0.65545 0.10508 0.0
C1490 C 0.48823 0.6937 0.10406 0.0
C1491 C 0.50447 0.70078 0.11032 0.0
C1492 C 0.51884 0.68494 0.11431 0.0
H1493 H 0.53937 0.84365 0.11244 0.0
H1494 H 0.53857 0.80416 0.11717 0.0
C1495 C 0.51769 0.66237 0.11171 0.0
C1496 C 0.50739 0.72505 0.11196 0.0
H1497 H 0.54008 0.76931 0.10558 0.0
C1498 C 0.48979 0.73704 0.11604 0.0
C1499 C 0.52615 0.73672 0.10847 0.0
C1500 C 0.54536 0.72456 0.10392 0.0
C1501 C 0.48999 0.76059 0.11631 0.0
C1502 C 0.508 0.77231 0.11222 0.0
C1503 C 0.52626 0.76025 0.10869 0.0
C1504 C 0.50708 0.79676 0.11048 0.0
C1505 C 0.47066 0.77269 0.12077 0.0
C1506 C 0.48964 0.80562 0.10516 0.0
C1507 C 0.4901 0.82805 0.10243 0.0
C1508 C 0.50815 0.84197 0.10488 0.0
C1509 C 0.52538 0.83321 0.11037 0.0
C1510 C 0.52486 0.81076 0.11314 0.0
H1511 H 0.46313 0.76232 0.12626 0.0
H1512 H 0.47602 0.78906 0.12367 0.0
H1513 H 0.45739 0.77587 0.11564 0.0
H1514 H 0.47613 0.79495 0.10279 0.0
H1515 H 0.47678 0.83423 0.09809 0.0
H1516 H 0.5912 0.27604 0.34174 0.0
H1517 H 0.55143 0.27493 0.34561 0.0
H1518 H 0.56704 0.24119 0.37077 0.0
H1519 H 0.60699 0.24157 0.36679 0.0
H1520 H 0.53444 0.21986 0.36126 0.0
H1521 H 0.51393 0.31014 0.36358 0.0
H1522 H 0.52837 0.30408 0.35318 0.0
H1523 H 0.54246 0.29988 0.36388 0.0
C1524 C 0.58619 0.26844 0.34811 0.0
C1525 C 0.60218 0.25876 0.35393 0.0
C1526 C 0.56349 0.26813 0.35038 0.0
C1527 C 0.55635 0.25836 0.35856 0.0
C1528 C 0.57228 0.24905 0.36448 0.0
H1529 H 0.40982 0.26292 0.36561 0.0
H1530 H 0.44964 0.26571 0.36967 0.0
C1531 C 0.59506 0.24934 0.36221 0.0
C1532 C 0.53208 0.25596 0.36037 0.0
H1533 H 0.48296 0.28531 0.35963 0.0
C1534 C 0.52319 0.2342 0.36112 0.0
C1535 C 0.51745 0.27468 0.36038 0.0
C1536 C 0.52609 0.29851 0.36032 0.0
C1537 C 0.49995 0.23057 0.36112 0.0
C1538 C 0.48537 0.24917 0.36017 0.0
C1539 C 0.49421 0.27103 0.3602 0.0
C1540 C 0.46124 0.24624 0.35818 0.0
C1541 C 0.49128 0.20682 0.36185 0.0
C1542 C 0.45469 0.23458 0.35034 0.0
C1543 C 0.43209 0.23306 0.34798 0.0
C1544 C 0.41561 0.24336 0.35339 0.0
C1545 C 0.42219 0.25498 0.36127 0.0
C1546 C 0.44486 0.25647 0.36364 0.0
H1547 H 0.50323 0.19595 0.36562 0.0
H1548 H 0.47472 0.20626 0.3653 0.0
H1549 H 0.48934 0.19969 0.35493 0.0
H1550 H 0.46713 0.22715 0.34589 0.0
H1551 H 0.4276 0.22438 0.34178 0.0
H1552 H 0.97001 0.82945 0.39734 0.0
H1553 H 0.97285 0.78992 0.3931 0.0
H1554 H 0.03866 0.80179 0.38187 0.0
H1555 H 0.03664 0.84104 0.38661 0.0
H1556 H 0.97898 0.76775 0.37704 0.0
H1557 H 0.05127 0.75319 0.40028 0.0
H1558 H 0.0352 0.77886 0.40045 0.0
H1559 H 0.0558 0.77419 0.39173 0.0
C1560 C 0.98521 0.82364 0.39405 0.0
C1561 C 0.00326 0.83837 0.39247 0.0
C1562 C 0.98668 0.8011 0.39153 0.0
C1563 C 0.00613 0.79287 0.38732 0.0
C1564 C 0.02369 0.80772 0.38528 0.0
H1565 H 0.03728 0.64964 0.38124 0.0
H1566 H 0.03729 0.68985 0.37769 0.0
C1567 C 0.02237 0.83024 0.38791 0.0
C1568 C 0.00833 0.76849 0.3856 0.0
H1569 H 0.03745 0.72202 0.39235 0.0
C1570 C 0.99192 0.75776 0.3803 0.0
C1571 C 0.02527 0.75552 0.38985 0.0
C1572 C 0.04279 0.76593 0.39596 0.0
C1573 C 0.99153 0.73429 0.3794 0.0
C1574 C 0.00793 0.72137 0.38394 0.0
C1575 C 0.025 0.73211 0.38884 0.0
C1576 C 0.00618 0.69672 0.38473 0.0
C1577 C 0.97328 0.72344 0.37383 0.0
C1578 C 0.98859 0.68739 0.38979 0.0
C1579 C 0.98873 0.6646 0.39199 0.0
C1580 C 0.00649 0.6507 0.38914 0.0
C1581 C 0.02356 0.65995 0.38368 0.0
C1582 C 0.0235 0.68284 0.38156 0.0
H1583 H 0.96604 0.73539 0.36882 0.0
H1584 H 0.97976 0.70847 0.37016 0.0
H1585 H 0.95959 0.71784 0.37841 0.0
H1586 H 0.97536 0.69798 0.39247 0.0
H1587 H 0.97553 0.6582 0.39633 0.0
H1588 H 0.41401 0.75311 0.63192 0.0
H1589 H 0.45443 0.75279 0.62876 0.0
H1590 H 0.46671 0.78771 0.65396 0.0
H1591 H 0.42645 0.78827 0.6571 0.0
H1592 H 0.49408 0.80244 0.63959 0.0
H1593 H 0.49401 0.7092 0.64314 0.0
H1594 H 0.47589 0.72055 0.63453 0.0
H1595 H 0.47019 0.72621 0.64629 0.0
C1596 C 0.42536 0.76089 0.63673 0.0
C1597 C 0.41717 0.7705 0.6448 0.0
C1598 C 0.44838 0.76071 0.63492 0.0
C1599 C 0.4635 0.7699 0.6412 0.0
C1600 C 0.45526 0.78055 0.64902 0.0
H1601 H 0.59333 0.7389 0.65907 0.0
H1602 H 0.55362 0.74505 0.65589 0.0
C1603 C 0.43228 0.78088 0.65081 0.0
C1604 C 0.48796 0.76681 0.64014 0.0
H1605 H 0.52885 0.72677 0.64122 0.0
C1606 C 0.50175 0.78591 0.63981 0.0
C1607 C 0.49778 0.74517 0.6405 0.0
C1608 C 0.48379 0.72407 0.64121 0.0
C1609 C 0.52522 0.78399 0.64018 0.0
C1610 C 0.53497 0.76239 0.64079 0.0
C1611 C 0.5212 0.74327 0.64073 0.0
C1612 C 0.55915 0.7592 0.64254 0.0
C1613 C 0.53934 0.80503 0.64041 0.0
C1614 C 0.57535 0.76513 0.63606 0.0
C1615 C 0.59813 0.76158 0.63786 0.0
C1616 C 0.60493 0.7519 0.64613 0.0
C1617 C 0.58859 0.74606 0.65259 0.0
C1618 C 0.56592 0.74966 0.6508 0.0
H1619 H 0.52899 0.82043 0.64126 0.0
H1620 H 0.55169 0.80419 0.64605 0.0
H1621 H 0.54884 0.80651 0.63396 0.0
H1622 H 0.57037 0.77222 0.62959 0.0
H1623 H 0.61038 0.76601 0.63272 0.0
H1624 H 0.47491 0.34257 0.88369 0.0
H1625 H 0.47009 0.30197 0.8817 0.0
H1626 H 0.51268 0.28991 0.90488 0.0
H1627 H 0.51656 0.33018 0.90724 0.0
H1628 H 0.49987 0.26763 0.87871 0.0
H1629 H 0.45645 0.25548 0.9115 0.0
H1630 H 0.46104 0.28296 0.90664 0.0
H1631 H 0.48291 0.26931 0.91305 0.0
C1632 C 0.48307 0.33126 0.88841 0.0
C1633 C 0.49595 0.33966 0.89568 0.0
C1634 C 0.48043 0.3081 0.88722 0.0
C1635 C 0.49061 0.29302 0.89327 0.0
C1636 C 0.50423 0.30132 0.90027 0.0
H1637 H 0.53042 0.15714 0.89058 0.0
H1638 H 0.52437 0.19701 0.8879 0.0
C1639 C 0.50671 0.32438 0.90152 0.0
C1640 C 0.48705 0.26854 0.89239 0.0
H1641 H 0.4731 0.22246 0.90488 0.0
C1642 C 0.49367 0.25771 0.88436 0.0
C1643 C 0.47832 0.25573 0.89966 0.0
C1644 C 0.46904 0.26651 0.90815 0.0
C1645 C 0.49317 0.23418 0.88365 0.0
C1646 C 0.48648 0.22128 0.89126 0.0
C1647 C 0.47852 0.23227 0.89906 0.0
C1648 C 0.48922 0.19655 0.89167 0.0
C1649 C 0.49996 0.22349 0.87478 0.0
C1650 C 0.47159 0.18296 0.89481 0.0
C1651 C 0.47525 0.16028 0.89672 0.0
C1652 C 0.49659 0.15064 0.89544 0.0
C1653 C 0.51389 0.16406 0.89184 0.0
C1654 C 0.51032 0.18682 0.8901 0.0
H1655 H 0.49589 0.23465 0.86895 0.0
H1656 H 0.5184 0.2208 0.87475 0.0
H1657 H 0.49152 0.20705 0.87373 0.0
H1658 H 0.45519 0.19013 0.89613 0.0
H1659 H 0.46157 0.15061 0.89958 0.0
H1660 H 0.10113 0.23484 0.13534 0.0
H1661 H 0.06095 0.23858 0.13203 0.0
H1662 H 0.05191 0.27601 0.15685 0.0
H1663 H 0.09198 0.27276 0.16011 0.0
H1664 H 0.02646 0.22254 0.14335 0.0
H1665 H 0.01871 0.31429 0.13788 0.0
H1666 H 0.04527 0.29967 0.13726 0.0
H1667 H 0.03363 0.30738 0.1481 0.0
C1668 C 0.0906 0.24418 0.14001 0.0
C1669 C 0.09962 0.25347 0.148 0.0
C1670 C 0.06772 0.24625 0.13812 0.0
C1671 C 0.05362 0.25788 0.14413 0.0
C1672 C 0.06263 0.26737 0.15204 0.0
H1673 H 0.9198 0.27722 0.15984 0.0
H1674 H 0.96009 0.27754 0.15678 0.0
C1675 C 0.08544 0.26524 0.15395 0.0
C1676 C 0.02916 0.25857 0.14261 0.0
H1677 H 0.98471 0.29462 0.14178 0.0
C1678 C 0.01728 0.23823 0.14281 0.0
C1679 C 0.01738 0.2791 0.14189 0.0
C1680 C 0.02942 0.30134 0.14118 0.0
C1681 C 0.99376 0.23796 0.14294 0.0
C1682 C 0.98196 0.25858 0.14269 0.0
C1683 C 0.99386 0.27886 0.142 0.0
C1684 C 0.95745 0.25954 0.14406 0.0
C1685 C 0.98177 0.21572 0.14389 0.0
C1686 C 0.94267 0.24966 0.13782 0.0
C1687 C 0.91964 0.24921 0.1396 0.0
C1688 C 0.9111 0.25876 0.14763 0.0
C1689 C 0.92593 0.26934 0.15369 0.0
C1690 C 0.9489 0.26973 0.15191 0.0
H1691 H 0.99347 0.2018 0.1456 0.0
H1692 H 0.96866 0.2167 0.14923 0.0
H1693 H 0.97339 0.21152 0.13737 0.0
H1694 H 0.94898 0.24198 0.13166 0.0
H1695 H 0.90863 0.24086 0.13482 0.0
H1696 H 0.01786 0.00948 0.45957 0.0
H1697 H 0.01686 0.01606 0.47593 0.0
H1698 H 0.98539 0.95153 0.47994 0.0
H1699 H 0.98526 0.94527 0.46354 0.0
H1700 H 0.96492 0.98426 0.48961 0.0
H1701 H 0.05691 0.98828 0.49505 0.0
H1702 H 0.04713 0.00791 0.48668 0.0
H1703 H 0.04466 0.97821 0.4846 0.0
C1704 C 0.01055 0.99674 0.46391 0.0
C1705 C 0.00167 0.97681 0.46023 0.0
C1706 C 0.01029 0.00041 0.47328 0.0
C1707 C 0.00144 0.9841 0.47916 0.0
C1708 C 0.99248 0.96424 0.47552 0.0
H1709 H 0.01898 0.98125 0.53761 0.0
H1710 H 0.01973 0.97368 0.52132 0.0
C1711 C 0.9926 0.96062 0.46615 0.0
C1712 C 0.00086 0.98804 0.48909 0.0
H1713 H 0.03387 -0.00013 0.50742 0.0
C1714 C 0.98 0.98757 0.49352 0.0
C1715 C 0.02059 0.99205 0.49418 0.0
C1716 C 0.04361 0.99143 0.48991 0.0
C1717 C 0.97829 0.99132 0.5029 0.0
C1718 C -0.00208 0.99623 0.50793 0.0
C1719 C 0.01882 0.99637 0.50352 0.0
C1720 C -0.00278 0.00088 0.5178 0.0
C1721 C 0.95552 0.98957 0.50734 0.0
C1722 C 0.98451 0.01885 0.52122 0.0
C1723 C 0.98376 0.02301 0.53056 0.0
C1724 C 0.99595 0.00945 0.53664 0.0
C1725 C 0.00903 0.99174 0.53315 0.0
C1726 C 0.00964 0.98751 0.52383 0.0
H1727 H 0.94364 0.97959 0.50316 0.0
H1728 H 0.95677 0.9817 0.51416 0.0
H1729 H 0.94837 0.00667 0.50816 0.0
H1730 H 0.97518 0.02968 0.51667 0.0
H1731 H 0.9734 0.03669 0.53301 0.0
H1732 H 0.23456 0.71982 0.7842 0.0
H1733 H 0.24291 0.71974 0.76794 0.0
H1734 H 0.27607 0.78383 0.7706 0.0
H1735 H 0.26765 0.78416 0.78686 0.0
H1736 H 0.22975 0.75193 0.75497 0.0
H1737 H 0.3226 0.74492 0.75721 0.0
H1738 H 0.30436 0.73892 0.7667 0.0
H1739 H 0.3106 0.76752 0.76369 0.0
C1740 C 0.24354 0.73396 0.78132 0.0
C1741 C 0.25048 0.75199 0.78682 0.0
C1742 C 0.2484 0.73381 0.77205 0.0
C1743 C 0.26038 0.75161 0.76811 0.0
C1744 C 0.26724 0.7697 0.77355 0.0
H1745 H 0.29957 0.78355 0.71283 0.0
H1746 H 0.29362 0.78334 0.72929 0.0
C1747 C 0.2624 0.76986 0.78284 0.0
C1748 C 0.26497 0.7516 0.75825 0.0
H1749 H 0.30722 0.75147 0.74258 0.0
C1750 C 0.24667 0.75173 0.75225 0.0
C1751 C 0.28708 0.75144 0.75475 0.0
C1752 C 0.30732 0.7505 0.7609 0.0
C1753 C 0.24989 0.75199 0.74282 0.0
C1754 C 0.272 0.7517 0.73932 0.0
C1755 C 0.29031 0.75167 0.74531 0.0
C1756 C 0.2764 0.75133 0.72944 0.0
C1757 C 0.22962 0.75299 0.73668 0.0
C1758 C 0.26913 0.73315 0.72414 0.0
C1759 C 0.27256 0.73318 0.71477 0.0
C1760 C 0.28345 0.75135 0.71053 0.0
C1761 C 0.29128 0.76925 0.7159 0.0
C1762 C 0.28781 0.7692 0.72529 0.0
H1763 H 0.21442 0.75881 0.74038 0.0
H1764 H 0.23264 0.76441 0.73084 0.0
H1765 H 0.22613 0.73594 0.73397 0.0
H1766 H 0.26074 0.71896 0.72726 0.0
H1767 H 0.26672 0.71895 0.71083 0.0
H1768 H 0.54063 0.95554 0.03485 0.0
H1769 H 0.54102 0.96105 0.01837 0.0
H1770 H 0.48197 0.0027 0.02035 0.0
H1771 H 0.48109 0.99681 0.0368 0.0
H1772 H 0.48061 0.97055 0.00612 0.0
H1773 H 0.55941 0.0206 0.00595 0.0
H1774 H 0.56131 0.99376 0.0115 0.0
H1775 H 0.54359 0.01527 0.01618 0.0
C1776 C 0.52759 0.96566 0.03176 0.0
C1777 C 0.5109 0.97586 0.03712 0.0
C1778 C 0.52797 0.96897 0.02237 0.0
C1779 C 0.51173 0.98255 0.01819 0.0
C1780 C 0.49474 0.99229 0.02348 0.0
H1781 H 0.51362 0.04347 0.96491 0.0
H1782 H 0.51236 0.03547 0.98121 0.0
C1783 C 0.49436 0.98903 0.03287 0.0
C1784 C 0.51246 0.98677 0.0083 0.0
H1785 H 0.54398 0.01111 0.99163 0.0
C1786 C 0.49445 0.97939 0.00294 0.0
C1787 C 0.53043 -0.00144 0.00422 0.0
C1788 C 0.54972 0.00771 0.00975 0.0
C1789 C 0.49404 0.98333 0.99354 0.0
C1790 C 0.51225 0.99469 0.98944 0.0
C1791 C 0.53015 0.00224 0.99482 0.0
C1792 C 0.51283 -0.00066 0.97958 0.0
C1793 C 0.47395 0.9757 0.98812 0.0
C1794 C 0.51374 0.98163 0.9733 0.0
C1795 C 0.51436 0.98614 0.96399 0.0
C1796 C 0.51416 0.00843 0.96081 0.0
C1797 C 0.51347 0.02612 0.96714 0.0
C1798 C 0.51289 0.0216 0.97644 0.0
H1799 H 0.45929 0.97199 0.99254 0.0
H1800 H 0.469 0.98866 0.98307 0.0
H1801 H 0.47831 0.96012 0.98437 0.0
H1802 H 0.51404 0.96434 0.9756 0.0
H1803 H 0.51472 0.97215 0.95928 0.0
H1804 H 0.26509 0.2684 0.21175 0.0
H1805 H 0.27384 0.26718 0.22798 0.0
H1806 H 0.22632 0.21318 0.23155 0.0
H1807 H 0.21764 0.21417 0.21531 0.0
H1808 H 0.24603 0.274 0.24246 0.0
H1809 H 0.28201 0.18804 0.24374 0.0
H1810 H 0.27716 0.20273 0.2332 0.0
H1811 H 0.25432 0.189 0.23895 0.0
C1812 C 0.25647 0.25631 0.216 0.0
C1813 C 0.24071 0.24135 0.21227 0.0
C1814 C 0.26156 0.25557 0.22525 0.0
C1815 C 0.25101 0.23985 0.23093 0.0
C1816 C 0.23508 0.22505 0.22724 0.0
H1817 H 0.24769 0.21636 0.28875 0.0
H1818 H 0.24138 0.21681 0.27232 0.0
C1819 C 0.23008 0.22568 0.21798 0.0
C1820 C 0.25614 0.23948 0.24077 0.0
H1821 H 0.27457 0.20566 0.25796 0.0
C1822 C 0.25243 0.25912 0.24584 0.0
C1823 C 0.26453 0.22004 0.24514 0.0
C1824 C 0.26995 0.19882 0.23997 0.0
C1825 C 0.25642 0.25968 0.25522 0.0
C1826 C 0.26448 0.24016 0.2596 0.0
C1827 C 0.26833 0.22056 0.25455 0.0
C1828 C 0.26869 0.23969 0.26948 0.0
C1829 C 0.25155 0.28097 0.26043 0.0
C1830 C 0.28632 0.25221 0.27325 0.0
C1831 C 0.28998 0.25199 0.28262 0.0
C1832 C 0.27599 0.23928 0.28835 0.0
C1833 C 0.25853 0.22654 0.28451 0.0
C1834 C 0.25498 0.22667 0.27514 0.0
H1835 H 0.24164 0.29317 0.25636 0.0
H1836 H 0.24223 0.27712 0.26678 0.0
H1837 H 0.26763 0.28909 0.26236 0.0
H1838 H 0.29719 0.26219 0.26895 0.0
H1839 H 0.30347 0.26206 0.28541 0.0
H1840 H 0.79866 0.23685 0.21484 0.0
H1841 H 0.79005 0.23731 0.23109 0.0
H1842 H 0.72701 0.27023 0.22553 0.0
H1843 H 0.7355 0.26986 0.20927 0.0
H1844 H 0.7506 0.29004 0.23954 0.0
H1845 H 0.74482 0.19776 0.24447 0.0
H1846 H 0.77069 0.20673 0.23937 0.0
H1847 H 0.7447 0.21065 0.23337 0.0
C1848 C 0.78287 0.24399 0.21708 0.0
C1849 C 0.76773 0.25327 0.21079 0.0
C1850 C 0.77797 0.2442 0.22635 0.0
C1851 C 0.75774 0.25349 0.22948 0.0
C1852 C 0.74268 0.26293 0.22324 0.0
H1853 H 0.70361 0.23759 0.28399 0.0
H1854 H 0.70954 0.23728 0.26753 0.0
C1855 C 0.7476 0.2628 0.21396 0.0
C1856 C 0.75255 0.25389 0.23931 0.0
H1857 H 0.74549 0.22022 0.25785 0.0
C1858 C 0.74937 0.27479 0.24354 0.0
C1859 C 0.75064 0.23394 0.24447 0.0
C1860 C 0.75267 0.21098 0.24019 0.0
C1861 C 0.74481 0.27629 0.25287 0.0
C1862 C 0.74381 0.25637 0.2581 0.0
C1863 C 0.74649 0.23546 0.25383 0.0
C1864 C 0.74012 0.25687 0.26803 0.0
C1865 C 0.74085 0.29915 0.25701 0.0
C1866 C 0.7555 0.26776 0.27374 0.0
C1867 C 0.75217 0.26796 0.28313 0.0
C1868 C 0.7335 0.25707 0.28697 0.0
C1869 C 0.71823 0.24598 0.28123 0.0
C1870 C 0.72155 0.24586 0.27184 0.0
H1871 H 0.73604 0.31176 0.25178 0.0
H1872 H 0.72746 0.29847 0.26225 0.0
H1873 H 0.75654 0.30503 0.2603 0.0
H1874 H 0.77024 0.27588 0.27095 0.0
H1875 H 0.76445 0.27627 0.28739 0.0
H1876 H 0.77783 0.75053 0.70826 0.0
H1877 H 0.78337 0.7524 0.7247 0.0
H1878 H 0.71545 0.72962 0.72894 0.0
H1879 H 0.70977 0.7276 0.7125 0.0
H1880 H 0.72776 0.76682 0.7397 0.0
H1881 H 0.7909 0.69823 0.74172 0.0
H1882 H 0.79757 0.72014 0.73377 0.0
H1883 H 0.77347 0.7026 0.73185 0.0
C1884 C 0.76414 0.74572 0.71269 0.0
C1885 C 0.7434 0.73877 0.70908 0.0
C1886 C 0.76733 0.7468 0.72207 0.0
C1887 C 0.74993 0.74081 0.72801 0.0
C1888 C 0.7291 0.73424 0.72445 0.0
H1889 H 0.73313 0.73184 0.78626 0.0
H1890 H 0.72815 0.73212 0.76978 0.0
C1891 C 0.72587 0.73319 0.71507 0.0
C1892 C 0.75334 0.74161 0.73795 0.0
H1893 H 0.78427 0.71898 0.75519 0.0
C1894 C 0.74006 0.75633 0.7431 0.0
C1895 C 0.76944 0.72792 0.74233 0.0
C1896 C 0.78355 0.71117 0.73716 0.0
C1897 C 0.74263 0.75791 0.75255 0.0
C1898 C 0.75867 0.74415 0.75694 0.0
C1899 C 0.77204 0.72953 0.75178 0.0
C1900 C 0.76159 0.74438 0.7669 0.0
C1901 C 0.72844 0.77453 0.75775 0.0
C1902 C 0.7822 0.75077 0.77071 0.0
C1903 C 0.78511 0.75065 0.78013 0.0
C1904 C 0.76747 0.744 0.78588 0.0
C1905 C 0.7469 0.73744 0.78202 0.0
C1906 C 0.74402 0.73758 0.77261 0.0
H1907 H 0.72122 0.7876 0.75322 0.0
H1908 H 0.71434 0.76549 0.76105 0.0
H1909 H 0.73842 0.78293 0.76314 0.0
H1910 H 0.79598 0.75599 0.7664 0.0
H1911 H 0.80107 0.75602 0.7829 0.0
H1912 H 0.53219 0.50353 0.95978 0.0
H1913 H 0.53033 0.51199 0.97602 0.0
H1914 H 0.47064 0.47141 0.97842 0.0
H1915 H 0.47198 0.46339 0.96213 0.0
H1916 H 0.46741 0.51384 0.98683 0.0
H1917 H 0.54503 0.46856 0.99695 0.0
H1918 H 0.54875 0.48846 0.9879 0.0
H1919 H 0.53144 0.46411 0.98614 0.0
C1920 C 0.51862 0.49649 0.96376 0.0
C1921 C 0.50226 0.48275 0.95968 0.0
C1922 C 0.51771 0.50115 0.97304 0.0
C1923 C 0.50052 0.49208 0.97842 0.0
C1924 C 0.48412 0.47844 0.97438 0.0
H1925 H 0.49495 0.48711 0.03704 0.0
H1926 H 0.49512 0.47868 0.0208 0.0
C1927 C 0.48501 0.47375 0.9651 0.0
C1928 C 0.49933 0.49721 0.98822 0.0
H1929 H 0.52778 0.49135 0.00819 0.0
C1930 C 0.48056 0.5089 0.99152 0.0
C1931 C 0.51643 0.4905 0.9943 0.0
C1932 C 0.53647 0.47703 0.99119 0.0
C1933 C 0.47856 0.51434 0.00075 0.0
C1934 C 0.49595 0.50816 0.00679 0.0
C1935 C 0.51458 0.49622 0.00351 0.0
C1936 C 0.49498 0.51351 0.01658 0.0
C1937 C 0.45771 0.52631 0.004 0.0
C1938 C 0.4949 0.53591 0.01956 0.0
C1939 C 0.49463 0.5408 0.02885 0.0
C1940 C 0.49451 0.52335 0.03529 0.0
C1941 C 0.49462 0.50093 0.03225 0.0
C1942 C 0.4949 0.49608 0.02299 0.0
H1943 H 0.44378 0.52498 -0.00099 0.0
H1944 H 0.45195 0.51939 0.0106 0.0
H1945 H 0.46156 0.5444 0.00497 0.0
H1946 H 0.49533 0.5496 0.01472 0.0
H1947 H 0.49445 0.55823 0.03097 0.0
H1948 H 0.99251 0.47088 0.53293 0.0
H1949 H 0.99496 0.47959 0.51671 0.0
H1950 H 0.04346 0.53155 0.5224 0.0
H1951 H 0.04103 0.52301 0.53863 0.0
H1952 H 0.0106 0.54536 0.51053 0.0
H1953 H 0.04651 0.46361 0.49972 0.0
H1954 H 0.02087 0.46087 0.50602 0.0
H1955 H 0.04541 0.47222 0.51147 0.0
C1956 C 0.00384 0.48403 0.53071 0.0
C1957 C 0.01665 0.49621 0.53704 0.0
C1958 C 0.00524 0.48895 0.52145 0.0
C1959 C 0.01967 0.50595 0.51836 0.0
C1960 C 0.03228 0.51832 0.52466 0.0
H1961 H 0.05648 0.52357 0.46157 0.0
H1962 H 0.05734 0.51834 0.47807 0.0
C1963 C 0.03081 0.51348 0.53392 0.0
C1964 C 0.02132 0.51112 0.50855 0.0
H1965 H 0.03348 0.48783 0.48796 0.0
C1966 C 0.01573 0.53284 0.50559 0.0
C1967 C 0.02837 0.49485 0.50216 0.0
C1968 C 0.03585 0.47165 0.50499 0.0
C1969 C 0.01645 0.53857 0.49635 0.0
C1970 C 0.02251 0.52199 0.48992 0.0
C1971 C 0.02865 0.50045 0.49291 0.0
C1972 C 0.02225 0.52645 0.48003 0.0
C1973 C 0.01093 0.56236 0.49358 0.0
C1974 C 0.00224 0.5327 0.47568 0.0
C1975 C 0.00172 0.53572 0.46628 0.0
C1976 C 0.02116 0.5323 0.46105 0.0
C1977 C 0.04121 0.52616 0.46543 0.0
C1978 C 0.04174 0.52324 0.47484 0.0
H1979 H 0.01319 0.57429 0.49932 0.0
H1980 H 0.0216 0.56794 0.48782 0.0
H1981 H 0.99312 0.56321 0.49141 0.0
H1982 H 0.98688 0.53469 0.47953 0.0
H1983 H 0.98593 0.54005 0.46308 0.0
H1984 H 0.22396 0.87102 0.65144 0.0
H1985 H 0.19712 0.8985 0.64545 0.0
H1986 H 0.18478 0.85562 0.62235 0.0
H1987 H 0.21159 0.8282 0.62827 0.0
H1988 H 0.19076 0.90025 0.61766 0.0
H1989 H 0.12889 0.89109 0.64568 0.0
H1990 H 0.15681 0.89834 0.64923 0.0
H1991 H 0.15168 0.87155 0.644 0.0
C1992 C 0.21543 0.86745 0.64511 0.0
C1993 C 0.2198 0.84746 0.64033 0.0
C1994 C 0.20011 0.88312 0.6417 0.0
C1995 C 0.18878 0.87891 0.63353 0.0
C1996 C 0.19338 0.85915 0.62868 0.0
H1997 H 0.06711 0.93434 0.61189 0.0
H1998 H 0.09682 0.91161 0.61875 0.0
C1999 C 0.20874 0.84356 0.63205 0.0
C2000 C 0.172 0.89496 0.62997 0.0
H2001 H 0.12102 0.91854 0.63453 0.0
C2002 C 0.17554 0.90435 0.62135 0.0
C2003 C 0.15209 0.90002 0.63479 0.0
C2004 C 0.14695 0.8896 0.6439 0.0
C2005 C 0.15956 0.91855 0.61735 0.0
C2006 C 0.13976 0.92381 0.62221 0.0
C2007 C 0.13632 0.91458 0.63087 0.0
C2008 C 0.12186 0.93793 0.61824 0.0
C2009 C 0.16368 0.92718 0.60785 0.0
C2010 C 0.12608 0.96033 0.61579 0.0
C2011 C 0.10916 0.97332 0.61185 0.0
C2012 C 0.08769 0.96419 0.61039 0.0
C2013 C 0.08343 0.94188 0.61301 0.0
C2014 C 0.10038 0.92887 0.6169 0.0
H2015 H 0.17689 0.91736 0.6043 0.0
H2016 H 0.14806 0.92657 0.60375 0.0
H2017 H 0.16932 0.94493 0.60821 0.0
H2018 H 0.14242 0.96776 0.61695 0.0
H2019 H 0.11279 0.99058 0.61002 0.0
H2020 H 0.30895 0.83179 0.86744 0.0
H2021 H 0.33128 0.86264 0.87353 0.0
H2022 H 0.2937 0.90994 0.85738 0.0
H2023 H 0.27064 0.87918 0.85142 0.0
H2024 H 0.34273 0.91213 0.85598 0.0
H2025 H 0.312 0.9137 0.89155 0.0
H2026 H 0.31872 0.8861 0.88739 0.0
H2027 H 0.29601 0.90157 0.88234 0.0
C2028 C 0.30503 0.84877 0.86532 0.0
C2029 C 0.2879 0.853 0.85897 0.0
C2030 C 0.31786 0.86637 0.86879 0.0
C2031 C 0.31389 0.88851 0.86598 0.0
C2032 C 0.29687 0.89291 0.85965 0.0
H2033 H 0.39401 0.99637 0.89088 0.0
H2034 H 0.36189 0.97714 0.88387 0.0
C2035 C 0.28386 0.87531 0.85622 0.0
C2036 C 0.32861 0.9067 0.86927 0.0
H2037 H 0.34752 0.93134 0.88873 0.0
C2038 C 0.34354 0.91668 0.86311 0.0
C2039 C 0.32939 0.91271 0.87855 0.0
C2040 C 0.31304 0.90313 0.88534 0.0
C2041 C 0.36024 0.93153 0.8661 0.0
C2042 C 0.362 0.93631 0.87547 0.0
C2043 C 0.34618 0.92745 0.88155 0.0
C2044 C 0.38135 0.94869 0.87921 0.0
C2045 C 0.37631 0.94147 0.85929 0.0
C2046 C 0.40274 0.9389 0.87892 0.0
C2047 C 0.42097 0.94969 0.88295 0.0
C2048 C 0.4181 0.97049 0.88731 0.0
C2049 C 0.39668 0.98043 0.88748 0.0
C2050 C 0.37837 0.96949 0.88352 0.0
H2051 H 0.36935 0.94093 0.85229 0.0
H2052 H 0.38039 0.95917 0.86103 0.0
H2053 H 0.39216 0.93167 0.85935 0.0
H2054 H 0.40524 0.92269 0.87573 0.0
H2055 H 0.43733 0.94176 0.88266 0.0
H2056 H 0.39436 0.02772 0.09678 0.0
H2057 H 0.3639 0.05 0.10332 0.0
H2058 H 0.39339 0.04291 0.12992 0.0
H2059 H 0.42329 0.0197 0.12353 0.0
H2060 H 0.34707 0.03913 0.13015 0.0
H2061 H 0.37456 0.11486 0.11101 0.0
H2062 H 0.36787 0.09099 0.10406 0.0
H2063 H 0.39139 0.08971 0.11169 0.0
C2064 C 0.39415 0.03052 0.10405 0.0
C2065 C 0.41142 0.02214 0.10962 0.0
C2066 C 0.37686 0.04346 0.10775 0.0
C2067 C 0.37668 0.04846 0.11706 0.0
C2068 C 0.39334 0.03937 0.1227 0.0
H2069 H 0.31958 0.16071 0.14484 0.0
H2070 H 0.34299 0.13168 0.13792 0.0
C2071 C 0.41054 0.02631 0.11902 0.0
C2072 C 0.35987 0.06408 0.1209 0.0
H2073 H 0.34231 0.11861 0.12013 0.0
C2074 C 0.3459 0.0565 0.12794 0.0
C2075 C 0.35865 0.08677 0.11806 0.0
C2076 C 0.37403 0.09619 0.11085 0.0
C2077 C 0.33087 0.07111 0.13231 0.0
C2078 C 0.32957 0.09374 0.12942 0.0
C2079 C 0.3433 0.1012 0.12229 0.0
C2080 C 0.31511 0.11044 0.13401 0.0
C2081 C 0.31712 0.06242 0.14017 0.0
C2082 C 0.29167 0.10804 0.13415 0.0
C2083 C 0.27824 0.1246 0.13814 0.0
C2084 C 0.28808 0.14392 0.14193 0.0
C2085 C 0.31155 0.14612 0.14186 0.0
C2086 C 0.32493 0.12954 0.13794 0.0
H2087 H 0.32382 0.04631 0.14285 0.0
H2088 H 0.31663 0.07488 0.14578 0.0
H2089 H 0.29964 0.05946 0.13786 0.0
H2090 H 0.28375 0.09364 0.13099 0.0
H2091 H 0.26017 0.12263 0.13803 0.0
H2092 H 0.08346 0.05229 0.38623 0.0
H2093 H 0.11485 0.07228 0.37926 0.0
H2094 H 0.15554 0.01246 0.381 0.0
H2095 H 0.12407 0.99219 0.38792 0.0
H2096 H 0.17717 0.05148 0.38715 0.0
H2097 H 0.13876 0.06456 0.3533 0.0
H2098 H 0.12102 0.0737 0.36244 0.0
H2099 H 0.12801 0.04439 0.36137 0.0
C2100 C 0.09898 0.04328 0.38502 0.0
C2101 C 0.10124 0.02062 0.38756 0.0
C2102 C 0.11689 0.05472 0.38104 0.0
C2103 C 0.13733 0.04369 0.37948 0.0
C2104 C 0.13981 0.02118 0.38211 0.0
H2105 H 0.23882 0.11424 0.34724 0.0
H2106 H 0.21493 0.084 0.35309 0.0
C2107 C 0.12188 0.00969 0.3861 0.0
C2108 C 0.15627 0.05606 0.37536 0.0
H2109 H 0.17026 0.08796 0.35698 0.0
C2110 C 0.17584 0.05921 0.3805 0.0
C2111 C 0.15462 0.06574 0.36662 0.0
C2112 C 0.13456 0.06175 0.36057 0.0
C2113 C 0.19335 0.07286 0.37732 0.0
C2114 C 0.19097 0.08386 0.36886 0.0
C2115 C 0.17194 0.07969 0.36351 0.0
C2116 C 0.20716 0.10099 0.3657 0.0
C2117 C 0.21408 0.07561 0.3831 0.0
C2118 C 0.21066 0.1205 0.37086 0.0
C2119 C 0.22417 0.13778 0.36753 0.0
C2120 C 0.2343 0.13594 0.35894 0.0
C2121 C 0.23107 0.1162 0.35385 0.0
C2122 C 0.21756 0.09889 0.35719 0.0
H2123 H 0.21651 0.06097 0.38768 0.0
H2124 H 0.22933 0.07765 0.37884 0.0
H2125 H 0.21222 0.09082 0.3874 0.0
H2126 H 0.20228 0.12273 0.37733 0.0
H2127 H 0.22597 0.15293 0.37154 0.0
H2128 H 0.89457 0.00406 0.37733 0.0
H2129 H 0.86613 0.02909 0.37084 0.0
H2130 H 0.86804 0.06986 0.39506 0.0
H2131 H 0.89612 0.04462 0.40166 0.0
H2132 H 0.82515 0.06508 0.38827 0.0
H2133 H 0.88499 0.09015 0.36115 0.0
H2134 H 0.87906 0.06058 0.3615 0.0
H2135 H 0.89341 0.07369 0.37085 0.0
C2136 C 0.88871 0.01824 0.38129 0.0
C2137 C 0.89766 0.02259 0.38995 0.0
C2138 C 0.87254 0.03253 0.37758 0.0
C2139 C 0.8654 0.05158 0.38239 0.0
C2140 C 0.87342 0.05527 0.39123 0.0
H2141 H 0.81613 0.17621 0.36117 0.0
H2142 H 0.8369 0.14521 0.36808 0.0
C2143 C 0.88941 0.04085 0.39499 0.0
C2144 C 0.85072 0.06849 0.37803 0.0
H2145 H 0.84864 0.10568 0.36041 0.0
C2146 C 0.83019 0.07393 0.38216 0.0
C2147 C 0.85757 0.0802 0.37014 0.0
C2148 C 0.88004 0.07606 0.36568 0.0
C2149 C 0.81634 0.09091 0.37863 0.0
C2150 C 0.82307 0.10237 0.37066 0.0
C2151 C 0.84348 0.09675 0.36649 0.0
C2152 C 0.80988 0.1211 0.36675 0.0
C2153 C 0.79506 0.09694 0.38363 0.0
C2154 C 0.78781 0.11779 0.36369 0.0
C2155 C 0.77586 0.13554 0.35977 0.0
C2156 C 0.78595 0.15675 0.35873 0.0
C2157 C 0.80805 0.15997 0.36178 0.0
C2158 C 0.81988 0.14231 0.36576 0.0
H2159 H 0.7952 0.09059 0.39072 0.0
H2160 H 0.79254 0.11544 0.38377 0.0
H2161 H 0.78052 0.08927 0.38009 0.0
H2162 H 0.77997 0.10142 0.36419 0.0
H2163 H 0.75892 0.13258 0.35738 0.0
H2164 H 0.63676 0.02066 0.09417 0.0
H2165 H 0.66801 0.04319 0.1 0.0
H2166 H 0.63657 0.04535 0.12636 0.0
H2167 H 0.605 0.02361 0.12057 0.0
H2168 H 0.66122 0.08758 0.10822 0.0
H2169 H 0.70356 0.02733 0.13136 0.0
H2170 H 0.68571 0.01845 0.12209 0.0
H2171 H 0.67353 0.02856 0.13248 0.0
C2172 C 0.63648 0.02592 0.10121 0.0
C2173 C 0.61832 0.02033 0.1069 0.0
C2174 C 0.65444 0.0386 0.10454 0.0
C2175 C 0.65467 0.04559 0.11363 0.0
C2176 C 0.63688 0.03966 0.11937 0.0
H2177 H 0.71868 0.13395 0.15042 0.0
H2178 H 0.69886 0.10391 0.14248 0.0
C2179 C 0.61886 0.02718 0.11604 0.0
C2180 C 0.67233 0.06086 0.11697 0.0
H2181 H 0.71252 0.06617 0.13332 0.0
C2182 C 0.67276 0.08288 0.11359 0.0
C2183 C 0.68715 0.05456 0.12401 0.0
C2184 C 0.68768 0.03088 0.12767 0.0
C2185 C 0.68683 0.09921 0.11742 0.0
C2186 C 0.70127 0.09309 0.12465 0.0
C2187 C 0.70145 0.07079 0.12778 0.0
C2188 C 0.71492 0.11 0.12952 0.0
C2189 C 0.68514 0.12311 0.11403 0.0
C2190 C 0.73095 0.12299 0.12493 0.0
C2191 C 0.74199 0.14049 0.1294 0.0
C2192 C 0.7374 0.14509 0.1386 0.0
C2193 C 0.72221 0.13121 0.14329 0.0
C2194 C 0.71104 0.11388 0.13879 0.0
H2195 H 0.66968 0.12591 0.10996 0.0
H2196 H 0.68522 0.1352 0.11978 0.0
H2197 H 0.69978 0.12686 0.10962 0.0
H2198 H 0.73452 0.11994 0.11782 0.0
H2199 H 0.7535 0.15088 0.12556 0.0
H2200 H 0.73549 0.83479 0.873 0.0
H2201 H 0.71624 0.86687 0.87984 0.0
H2202 H 0.71323 0.89939 0.85369 0.0
H2203 H 0.73128 0.8669 0.84669 0.0
H2204 H 0.72603 0.91217 0.88081 0.0
H2205 H 0.6478 0.89737 0.86116 0.0
H2206 H 0.67033 0.87716 0.86157 0.0
H2207 H 0.67227 0.90126 0.85423 0.0
C2208 C 0.73054 0.84866 0.86868 0.0
C2209 C 0.73464 0.84809 0.85927 0.0
C2210 C 0.71978 0.86708 0.87262 0.0
C2211 C 0.71298 0.8853 0.86723 0.0
C2212 C 0.71796 0.88528 0.85793 0.0
H2213 H 0.62904 0.00072 0.87949 0.0
H2214 H 0.65802 0.97672 0.87281 0.0
C2215 C 0.72852 0.86679 0.85396 0.0
C2216 C 0.69982 0.90381 0.87131 0.0
H2217 H 0.64882 0.92979 0.87036 0.0
C2218 C 0.70917 0.9161 0.87852 0.0
C2219 C 0.67778 0.90876 0.86833 0.0
C2220 C 0.66633 0.89533 0.86096 0.0
C2221 C 0.69702 0.9333 0.88283 0.0
C2222 C 0.67503 0.93816 0.87984 0.0
C2223 C 0.66582 0.9261 0.87256 0.0
C2224 C 0.66055 0.95472 0.88446 0.0
C2225 C 0.70774 0.94616 0.89051 0.0
C2226 C 0.65273 0.95045 0.89328 0.0
C2227 C 0.63601 0.96396 0.89708 0.0
C2228 C 0.6268 0.9819 0.89209 0.0
C2229 C 0.63557 0.98682 0.88345 0.0
C2230 C 0.65221 0.97325 0.87964 0.0
H2231 H 0.72628 0.94414 0.89056 0.0
H2232 H 0.70363 0.96433 0.89005 0.0
H2233 H 0.70111 0.93977 0.89707 0.0
H2234 H 0.65867 0.93595 0.89702 0.0
H2235 H 0.62942 0.95953 0.90369 0.0
H2236 H 0.80949 0.84015 0.6503 0.0
H2237 H 0.82851 0.87319 0.64412 0.0
H2238 H 0.78528 0.87153 0.62064 0.0
H2239 H 0.76627 0.83829 0.62672 0.0
H2240 H 0.85094 0.87344 0.62718 0.0
H2241 H 0.78375 0.93825 0.62867 0.0
H2242 H 0.78271 0.91265 0.63526 0.0
H2243 H 0.77613 0.91212 0.62336 0.0
C2244 C 0.80401 0.84682 0.64382 0.0
C2245 C 0.78647 0.83654 0.63897 0.0
C2246 C 0.81477 0.86578 0.64034 0.0
C2247 C 0.80811 0.8749 0.63198 0.0
C2248 C 0.79034 0.86499 0.62719 0.0
H2249 H 0.86796 0.97694 0.59735 0.0
H2250 H 0.84248 0.94938 0.60419 0.0
C2251 C 0.77954 0.846 0.63067 0.0
C2252 C 0.82102 0.89364 0.62798 0.0
H2253 H 0.81748 0.94837 0.62112 0.0
C2254 C 0.84366 0.88985 0.62589 0.0
C2255 C 0.81134 0.9149 0.62623 0.0
C2256 C 0.78719 0.91989 0.62855 0.0
C2257 C 0.85696 0.90677 0.62205 0.0
C2258 C 0.84743 0.92818 0.62044 0.0
C2259 C 0.82469 0.93194 0.62242 0.0
C2260 C 0.86108 0.94679 0.61676 0.0
C2261 C 0.88101 0.90148 0.61962 0.0
C2262 C 0.87945 0.95494 0.62171 0.0
C2263 C 0.89412 0.97044 0.61781 0.0
C2264 C 0.89056 0.97823 0.6089 0.0
C2265 C 0.87136 0.97099 0.60416 0.0
C2266 C 0.85671 0.95539 0.60808 0.0
H2267 H 0.88399 0.88307 0.61914 0.0
H2268 H 0.88572 0.90935 0.61305 0.0
H2269 H 0.89226 0.90828 0.62496 0.0
H2270 H 0.8829 0.94868 0.62848 0.0
H2271 H 0.90883 0.97543 0.62163 0.0
H2272 H 0.71717 0.32669 0.12496 0.0
H2273 H 0.69556 0.35566 0.11708 0.0
H2274 H 0.70816 0.40195 0.13904 0.0
H2275 H 0.72966 0.37296 0.14703 0.0
H2276 H 0.65685 0.37624 0.12464 0.0
H2277 H 0.72265 0.43891 0.11585 0.0
H2278 H 0.72918 0.41011 0.11872 0.0
H2279 H 0.72205 0.42979 0.1275 0.0
C2280 C 0.71536 0.34304 0.12811 0.0
C2281 C 0.72497 0.34751 0.13664 0.0
C2282 C 0.70317 0.3596 0.12357 0.0
C2283 C 0.7005 0.38096 0.12745 0.0
C2284 C 0.71043 0.38568 0.13587 0.0
H2285 H 0.61537 0.49392 0.11296 0.0
H2286 H 0.64428 0.46982 0.11974 0.0
C2287 C 0.72265 0.3691 0.14042 0.0
C2288 C 0.68575 0.39757 0.12299 0.0
H2289 H 0.68488 0.4492 0.11286 0.0
C2290 C 0.66297 0.39215 0.12203 0.0
C2291 C 0.69384 0.41836 0.11969 0.0
C2292 C 0.71829 0.42468 0.12041 0.0
C2293 C 0.64796 0.40704 0.11788 0.0
C2294 C 0.65608 0.42767 0.11442 0.0
C2295 C 0.67881 0.43327 0.11548 0.0
C2296 C 0.641 0.4435 0.10969 0.0
C2297 C 0.62345 0.40069 0.11735 0.0
C2298 C 0.63032 0.43697 0.10162 0.0
C2299 C 0.61384 0.45061 0.09777 0.0
C2300 C 0.60794 0.47109 0.10188 0.0
C2301 C 0.61967 0.47825 0.10964 0.0
C2302 C 0.63611 0.46451 0.11353 0.0
H2303 H 0.61911 0.38721 0.12227 0.0
H2304 H 0.61255 0.41547 0.11869 0.0
H2305 H 0.61965 0.39439 0.11042 0.0
H2306 H 0.63423 0.42098 0.09848 0.0
H2307 H 0.60532 0.44489 0.0917 0.0
H2308 H 0.81671 0.35145 0.35232 0.0
H2309 H 0.83666 0.38126 0.36037 0.0
H2310 H 0.77457 0.40305 0.3726 0.0
H2311 H 0.75453 0.37271 0.3648 0.0
H2312 H 0.83068 0.42807 0.36027 0.0
H2313 H 0.81584 0.39092 0.39446 0.0
H2314 H 0.81091 0.37545 0.38411 0.0
H2315 H 0.7913 0.39654 0.38774 0.0
C2316 C 0.8073 0.36252 0.35675 0.0
C2317 C 0.7841 0.35959 0.35801 0.0
C2318 C 0.81868 0.37964 0.36129 0.0
C2319 C 0.80711 0.39412 0.36716 0.0
C2320 C 0.78382 0.3918 0.36819 0.0
H2321 H 0.88281 0.50699 0.39098 0.0
H2322 H 0.85207 0.48613 0.38379 0.0
C2323 C 0.77239 0.37462 0.36366 0.0
C2324 C 0.81981 0.41107 0.37239 0.0
H2325 H 0.83792 0.4236 0.39379 0.0
C2326 C 0.83207 0.42734 0.36761 0.0
C2327 C 0.82164 0.40985 0.38196 0.0
C2328 C 0.80939 0.39218 0.3874 0.0
C2329 C 0.84678 0.44199 0.37211 0.0
C2330 C 0.84892 0.44049 0.38166 0.0
C2331 C 0.83606 0.42474 0.38647 0.0
C2332 C 0.86619 0.45337 0.38663 0.0
C2333 C 0.86077 0.4581 0.36657 0.0
C2334 C 0.88383 0.44179 0.39086 0.0
C2335 C 0.90129 0.45359 0.39498 0.0
C2336 C 0.90141 0.47721 0.39496 0.0
C2337 C 0.88331 0.48879 0.39098 0.0
C2338 C 0.86577 0.47693 0.38688 0.0
H2339 H 0.86004 0.45427 0.35919 0.0
H2340 H 0.85444 0.47546 0.36759 0.0
H2341 H 0.87858 0.45762 0.36878 0.0
H2342 H 0.88446 0.42359 0.39072 0.0
H2343 H 0.91512 0.44418 0.39788 0.0
H2344 H 0.88393 0.50484 0.59635 0.0
H2345 H 0.84947 0.52095 0.60256 0.0
H2346 H 0.88326 0.53365 0.62796 0.0
H2347 H 0.91727 0.51626 0.62204 0.0
H2348 H 0.84047 0.51986 0.63065 0.0
H2349 H 0.84298 0.5881 0.60478 0.0
H2350 H 0.84093 0.56015 0.60027 0.0
H2351 H 0.86582 0.56859 0.60628 0.0
C2352 C 0.88392 0.5106 0.60332 0.0
C2353 C 0.90353 0.50959 0.60864 0.0
C2354 C 0.86426 0.52006 0.60682 0.0
C2355 C 0.86399 0.52902 0.61564 0.0
C2356 C 0.88316 0.52703 0.6211 0.0
H2357 H 0.80275 0.62409 0.64894 0.0
H2358 H 0.82292 0.59261 0.64223 0.0
C2359 C 0.9027 0.51733 0.61766 0.0
C2360 C 0.84438 0.54172 0.61908 0.0
H2361 H 0.81482 0.59024 0.61584 0.0
C2362 C 0.83465 0.53509 0.62735 0.0
C2363 C 0.83682 0.56161 0.61476 0.0
C2364 C 0.84725 0.5702 0.60608 0.0
C2365 C 0.8182 0.5483 0.63159 0.0
C2366 C 0.81135 0.56854 0.62744 0.0
C2367 C 0.82012 0.57457 0.61895 0.0
C2368 C 0.79736 0.58516 0.63225 0.0
C2369 C 0.80872 0.54091 0.6406 0.0
C2370 C 0.77623 0.59126 0.62887 0.0
C2371 C 0.76442 0.60912 0.63278 0.0
C2372 C 0.77379 0.62142 0.64002 0.0
C2373 C 0.79477 0.61479 0.64351 0.0
C2374 C 0.80639 0.59681 0.63967 0.0
H2375 H 0.8113 0.52264 0.64177 0.0
H2376 H 0.81731 0.55022 0.64613 0.0
H2377 H 0.79049 0.54471 0.64102 0.0
H2378 H 0.76912 0.58251 0.6231 0.0
H2379 H 0.74817 0.61353 0.63001 0.0
H2380 H 0.70007 0.66137 0.86406 0.0
H2381 H 0.68053 0.6297 0.87103 0.0
H2382 H 0.73503 0.58562 0.86353 0.0
H2383 H 0.75432 0.61731 0.85623 0.0
H2384 H 0.69655 0.56646 0.85987 0.0
H2385 H 0.69169 0.59957 0.89475 0.0
H2386 H 0.67979 0.6195 0.88702 0.0
H2387 H 0.70916 0.61239 0.88619 0.0
C2388 C 0.70797 0.64496 0.86399 0.0
C2389 C 0.72873 0.64174 0.85969 0.0
C2390 C 0.69689 0.62691 0.86803 0.0
C2391 C 0.7066 0.6054 0.86802 0.0
C2392 C 0.72733 0.60212 0.86368 0.0
H2393 H 0.62903 0.50983 0.90037 0.0
H2394 H 0.66159 0.53006 0.89457 0.0
C2395 C 0.7383 0.62016 0.85952 0.0
C2396 C 0.69433 0.58624 0.87211 0.0
H2397 H 0.66358 0.57178 0.89072 0.0
C2398 C 0.68969 0.5674 0.86669 0.0
C2399 C 0.68593 0.58708 0.88109 0.0
C2400 C 0.69215 0.60563 0.88762 0.0
C2401 C 0.67557 0.55015 0.86978 0.0
C2402 C 0.66521 0.55224 0.87839 0.0
C2403 C 0.67113 0.57031 0.88405 0.0
C2404 C 0.64692 0.53708 0.88142 0.0
C2405 C 0.67182 0.53001 0.86374 0.0
C2406 C 0.62793 0.53394 0.87592 0.0
C2407 C 0.6095 0.52186 0.87913 0.0
C2408 C 0.60935 0.51318 0.88801 0.0
C2409 C 0.6286 0.51596 0.89345 0.0
C2410 C 0.64721 0.52771 0.89017 0.0
H2411 H 0.68691 0.52654 0.85953 0.0
H2412 H 0.66777 0.51472 0.86774 0.0
H2413 H 0.65772 0.53357 0.85903 0.0
H2414 H 0.62697 0.54151 0.86924 0.0
H2415 H 0.59519 0.51974 0.87468 0.0
H2416 H 0.37597 0.50633 0.89486 0.0
H2417 H 0.34451 0.52788 0.88857 0.0
H2418 H 0.39122 0.57066 0.87432 0.0
H2419 H 0.42259 0.54909 0.88048 0.0
H2420 H 0.33445 0.57169 0.89072 0.0
H2421 H 0.34806 0.55424 0.85428 0.0
H2422 H 0.36183 0.53837 0.86312 0.0
H2423 H 0.37301 0.56504 0.8595 0.0
C2424 C 0.37946 0.5203 0.89036 0.0
C2425 C 0.40169 0.52597 0.8881 0.0
C2426 C 0.36152 0.53252 0.88675 0.0
C2427 C 0.36553 0.55056 0.88083 0.0
C2428 C 0.38772 0.55636 0.87865 0.0
H2429 H 0.29324 0.67 0.8698 0.0
H2430 H 0.31471 0.63899 0.8763 0.0
C2431 C 0.40563 0.54408 0.88219 0.0
C2432 C 0.3467 0.56419 0.87729 0.0
H2433 H 0.32597 0.5871 0.85779 0.0
C2434 C 0.33233 0.57479 0.88351 0.0
C2435 C 0.34363 0.56782 0.86787 0.0
C2436 C 0.35731 0.55555 0.86081 0.0
C2437 C 0.31582 0.58997 0.8806 0.0
C2438 C 0.31407 0.59506 0.87124 0.0
C2439 C 0.32754 0.58345 0.86498 0.0
C2440 C 0.29954 0.61339 0.86782 0.0
C2441 C 0.3006 0.60052 0.88759 0.0
C2442 C 0.28419 0.6094 0.86077 0.0
C2443 C 0.27211 0.62718 0.85696 0.0
C2444 C 0.27517 0.64923 0.86016 0.0
C2445 C 0.29024 0.65312 0.86732 0.0
C2446 C 0.30245 0.63539 0.87107 0.0
H2447 H 0.29855 0.5894 0.8936 0.0
H2448 H 0.30816 0.6165 0.88998 0.0
H2449 H 0.28375 0.60422 0.88473 0.0
H2450 H 0.28182 0.59257 0.85813 0.0
H2451 H 0.26051 0.62374 0.85147 0.0
H2452 H 0.1094 0.51618 0.6234 0.0
H2453 H 0.14042 0.53674 0.63047 0.0
H2454 H 0.15402 0.56999 0.60503 0.0
H2455 H 0.12295 0.5497 0.59793 0.0
H2456 H 0.19311 0.55342 0.61455 0.0
H2457 H 0.13648 0.60474 0.63635 0.0
H2458 H 0.13306 0.57478 0.6371 0.0
H2459 H 0.12637 0.58903 0.62669 0.0
C2460 C 0.11894 0.52795 0.61933 0.0
C2461 C 0.11364 0.53145 0.61013 0.0
C2462 C 0.13667 0.53959 0.62336 0.0
C2463 C 0.14929 0.55501 0.61828 0.0
C2464 C 0.14445 0.55812 0.60905 0.0
H2465 H 0.24945 0.65599 0.62509 0.0
H2466 H 0.22523 0.62577 0.61962 0.0
C2467 C 0.12674 0.54647 0.605 0.0
C2468 C 0.16705 0.56856 0.62263 0.0
H2469 H 0.17524 0.61101 0.63782 0.0
C2470 C 0.18929 0.56593 0.61968 0.0
C2471 C 0.16191 0.58477 0.62933 0.0
C2472 C 0.13816 0.58872 0.63253 0.0
C2473 C 0.2066 0.57931 0.62322 0.0
C2474 C 0.20136 0.59596 0.62974 0.0
C2475 C 0.1792 0.59815 0.63285 0.0
C2476 C 0.21815 0.61239 0.63299 0.0
C2477 C 0.2303 0.5755 0.61995 0.0
C2478 C 0.2221 0.61496 0.64233 0.0
C2479 C 0.23567 0.63243 0.64548 0.0
C2480 C 0.2454 0.64771 0.63935 0.0
C2481 C 0.24202 0.6446 0.62998 0.0
C2482 C 0.22843 0.62716 0.62684 0.0
H2483 H 0.23259 0.55813 0.61734 0.0
H2484 H 0.23397 0.58732 0.61431 0.0
H2485 H 0.24265 0.57851 0.62547 0.0
H2486 H 0.21413 0.60384 0.64718 0.0
H2487 H 0.2377 0.63456 0.65274 0.0
H2488 H 0.08326 0.43447 0.38714 0.0
H2489 H 0.11297 0.41124 0.38062 0.0
H2490 H 0.16115 0.46388 0.38571 0.0
H2491 H 0.13141 0.48728 0.3923 0.0
H2492 H 0.13982 0.42152 0.36565 0.0
H2493 H 0.1911 0.40815 0.3968 0.0
H2494 H 0.16268 0.41864 0.39722 0.0
H2495 H 0.18523 0.4369 0.3939 0.0
C2496 C 0.10017 0.44112 0.38686 0.0
C2497 C 0.10503 0.4627 0.39021 0.0
C2498 C 0.11712 0.42782 0.38316 0.0
C2499 C 0.13925 0.43578 0.38276 0.0
C2500 C 0.14424 0.45728 0.38612 0.0
H2501 H 0.25527 0.36317 0.36033 0.0
H2502 H 0.2315 0.39352 0.36631 0.0
C2503 C 0.12726 0.47061 0.38987 0.0
C2504 C 0.1568 0.42161 0.37857 0.0
H2505 H 0.20425 0.39157 0.38326 0.0
C2506 C 0.154 0.41509 0.36948 0.0
C2507 C 0.17533 0.4134 0.38359 0.0
C2508 C 0.17879 0.41944 0.39344 0.0
C2509 C 0.16893 0.40009 0.36533 0.0
C2510 C 0.18696 0.39127 0.37043 0.0
C2511 C 0.19033 0.39843 0.3794 0.0
C2512 C 0.20138 0.37326 0.36678 0.0
C2513 C 0.16515 0.39351 0.35555 0.0
C2514 C 0.19224 0.35192 0.36519 0.0
C2515 C 0.20569 0.33465 0.36182 0.0
C2516 C 0.22853 0.33844 0.35999 0.0
C2517 C 0.23767 0.35987 0.36161 0.0
C2518 C 0.2242 0.37713 0.36505 0.0
H2519 H 0.1542 0.40576 0.35197 0.0
H2520 H 0.18135 0.3922 0.35185 0.0
H2521 H 0.15685 0.37682 0.35532 0.0
H2522 H 0.17469 0.34861 0.36658 0.0
H2523 H 0.19815 0.31838 0.36054 0.0
H2524 H 0.42178 0.47142 0.12197 0.0
H2525 H 0.394 0.44635 0.12887 0.0
H2526 H 0.36133 0.43877 0.10288 0.0
H2527 H 0.38866 0.46456 0.09604 0.0
H2528 H 0.33114 0.44141 0.11643 0.0
H2529 H 0.39706 0.37945 0.12532 0.0
H2530 H 0.40196 0.40646 0.13035 0.0
H2531 H 0.40255 0.40345 0.11818 0.0
C2532 C 0.40852 0.46452 0.11777 0.0
C2533 C 0.40738 0.46964 0.10848 0.0
C2534 C 0.39277 0.45015 0.12169 0.0
C2535 C 0.376 0.44023 0.11633 0.0
C2536 C 0.37425 0.44613 0.10712 0.0
H2537 H 0.30811 0.31719 0.13131 0.0
H2538 H 0.33079 0.34635 0.12402 0.0
C2539 C 0.3898 0.46083 0.10323 0.0
C2540 C 0.36085 0.42306 0.12024 0.0
H2541 H 0.36075 0.3728 0.13138 0.0
C2542 C 0.33757 0.42635 0.11967 0.0
C2543 C 0.3693 0.40321 0.12429 0.0
C2544 C 0.39407 0.39778 0.12449 0.0
C2545 C 0.32246 0.41045 0.12318 0.0
C2546 C 0.33097 0.3911 0.1276 0.0
C2547 C 0.35425 0.38774 0.12807 0.0
C2548 C 0.31617 0.37382 0.13166 0.0
C2549 C 0.29762 0.41431 0.12191 0.0
C2550 C 0.30043 0.37957 0.13837 0.0
C2551 C 0.28726 0.36296 0.14244 0.0
C2552 C 0.29003 0.3403 0.14001 0.0
C2553 C 0.30583 0.33455 0.13334 0.0
C2554 C 0.31872 0.35118 0.12917 0.0
H2555 H 0.29423 0.42578 0.11611 0.0
H2556 H 0.2886 0.39825 0.12072 0.0
H2557 H 0.29067 0.42225 0.12812 0.0
H2558 H 0.29863 0.39683 0.14059 0.0
H2559 H 0.27532 0.36772 0.14765 0.0
loop_
_geom_bond_atom_site_label_1
_geom_bond_atom_site_label_2
_geom_bond_distance
_geom_bond_site_symmetry_2
_ccdc_geom_bond_type
Li0 N17 1.990 . S
Li0 O60 1.956 . S
Li0 O61 1.970 1_455 S
Li0 O62 1.961 . S
Li1 N25 1.990 . S
Li1 O60 1.970 . S
Li1 O61 1.956 1_455 S
Li1 O63 1.961 . S
Li2 N47 1.990 . S
Li2 O60 1.961 . S
Li2 O62 1.956 . S
Li2 O63 1.970 . S
Li3 N53 1.990 . S
Li3 O61 1.961 . S
Li3 O62 1.970 1_655 S
Li3 O63 1.956 1_655 S
C4 C6 1.348 . S
C4 C7 1.356 . S
C4 O60 1.325 . S
N5 C8 1.314 . S
N5 C9 1.279 . S
C6 C4 1.348 . S
C6 C8 1.353 . S
C6 H64 0.929 . S
C7 C4 1.356 . S
C7 C9 1.358 . S
C7 H65 0.930 . S
C8 N5 1.314 . S
C8 C6 1.353 . S
C8 H66 0.930 . S
C9 N5 1.279 . S
C9 C7 1.358 . S
C9 H67 0.930 . S
C10 C13 1.348 . S
C10 C14 1.356 . S
C10 O61 1.325 . S
C11 N12 1.279 . S
C11 C14 1.358 . S
C11 H68 0.930 . S
N12 C11 1.279 . S
N12 C15 1.314 . S
C13 C10 1.348 . S
C13 C15 1.353 . S
C13 H69 0.929 . S
C14 C10 1.356 . S
C14 C11 1.358 . S
C14 H70 0.930 . S
C15 N12 1.314 . S
C15 C13 1.353 . S
C15 H71 0.930 . S
C16 N17 1.314 1_655 S
C16 C21 1.353 . S
C16 H22 0.930 . S
N17 Li0 1.990 . S
N17 C16 1.314 1_455 S
N17 C19 1.279 . S
C18 C19 1.358 . S
C18 C20 1.356 . S
C18 H72 0.930 . S
C19 N17 1.279 . S
C19 C18 1.358 . S
C19 H23 0.930 . S
C20 C18 1.356 . S
C20 C21 1.348 1_455 S
C21 C16 1.353 . S
C21 C20 1.348 1_655 S
C21 H73 0.936 . S
H22 C16 0.930 . S
H23 C19 0.930 . S
C24 N25 1.314 . S
C24 C26 1.353 . S
C24 H30 0.930 . S
N25 Li1 1.990 . S
N25 C24 1.314 . S
N25 C28 1.279 1_455 S
C26 C24 1.353 . S
C26 C29 1.348 . S
C26 H74 0.929 . S
C27 C28 1.358 . S
C27 C29 1.356 1_655 S
C27 H75 0.930 . S
C28 N25 1.279 1_655 S
C28 C27 1.358 . S
C28 H31 0.930 . S
C29 C26 1.348 . S
C29 C27 1.356 1_455 S
H30 C24 0.930 . S
H31 C28 0.930 . S
C32 C34 1.348 1_455 S
C32 C35 1.356 . S
C32 O62 1.325 1_565 S
N33 C36 1.314 1_455 S
N33 C37 1.279 . S
C34 C32 1.348 1_655 S
C34 C36 1.353 . S
C34 H76 0.929 . S
C35 C32 1.356 . S
C35 C37 1.358 . S
C35 H77 0.930 . S
C36 N33 1.314 1_655 S
C36 C34 1.353 . S
C36 H78 0.930 . S
C37 N33 1.279 . S
C37 C35 1.358 . S
C37 H79 0.930 . S
C38 C39 1.348 . S
C38 C40 1.356 1_455 S
C38 O63 1.325 . S
C39 C38 1.348 . S
C39 C41 1.353 . S
C39 H80 0.929 . S
C40 C38 1.356 1_655 S
C40 C42 1.358 . S
C40 H81 0.930 . S
C41 C39 1.353 . S
C41 N43 1.314 . S
C41 H82 0.930 . S
C42 C40 1.358 . S
C42 N43 1.279 1_655 S
C42 H83 0.930 . S
N43 C41 1.314 . S
N43 C42 1.279 1_455 S
C44 C46 1.353 . S
C44 N47 1.314 . S
C44 H50 0.930 . S
C45 N47 1.279 1_565 S
C45 C48 1.358 . S
C45 H51 0.930 . S
C46 C44 1.353 . S
C46 C49 1.348 1_545 S
C46 H84 0.929 . S
N47 Li2 1.990 . S
N47 C44 1.314 . S
N47 C45 1.279 1_545 S
C48 C45 1.358 . S
C48 C49 1.356 . S
C48 H85 0.930 . S
C49 C46 1.348 1_565 S
C49 C48 1.356 . S
H50 C44 0.930 . S
H51 C45 0.930 . S
C52 N53 1.314 . S
C52 C54 1.353 1_545 S
C52 H58 0.930 . S
N53 Li3 1.990 . S
N53 C52 1.314 . S
N53 C56 1.279 . S
C54 C52 1.353 1_565 S
C54 C57 1.348 . S
C54 H86 0.929 . S
C55 C56 1.362 . S
C55 C57 1.354 1_545 S
C55 H87 0.929 1_545 S
C56 N53 1.279 . S
C56 C55 1.362 . S
C56 H59 0.930 . S
C57 C54 1.348 . S
C57 C55 1.354 1_565 S
H58 C52 0.930 . S
H59 C56 0.930 . S
O60 Li0 1.956 . S
O60 Li1 1.970 . S
O60 Li2 1.961 . S
O60 C4 1.325 . S
O61 Li0 1.970 1_655 S
O61 Li1 1.956 1_655 S
O61 Li3 1.961 . S
O61 C10 1.325 . S
O62 Li0 1.961 . S
O62 Li2 1.956 . S
O62 Li3 1.970 1_455 S
O62 C32 1.325 1_545 S
O63 Li1 1.961 . S
O63 Li2 1.970 . S
O63 Li3 1.956 1_455 S
O63 C38 1.325 . S
H64 C6 0.929 . S
H65 C7 0.930 . S
H66 C8 0.930 . S
H67 C9 0.930 . S
H68 C11 0.930 . S
H69 C13 0.929 . S
H70 C14 0.930 . S
H71 C15 0.930 . S
H72 C18 0.930 . S
H73 C21 0.936 . S
H74 C26 0.929 . S
H75 C27 0.930 . S
H76 C34 0.929 . S
H77 C35 0.930 . S
H78 C36 0.930 . S
H79 C37 0.930 . S
H80 C39 0.929 . S
H81 C40 0.930 . S
H82 C41 0.930 . S
H83 C42 0.930 . S
H84 C46 0.929 . S
H85 C48 0.930 . S
H86 C54 0.929 . S
H87 C55 0.929 1_565 S
Li88 N105 1.990 . S
Li88 O148 1.956 . S
Li88 O149 1.970 . S
Li88 O150 1.961 . S
Li89 N113 1.990 . S
Li89 O148 1.970 . S
Li89 O149 1.956 . S
Li89 O151 1.961 . S
Li90 N135 1.990 . S
Li90 O148 1.961 . S
Li90 O150 1.956 . S
Li90 O151 1.970 . S
Li91 N141 1.990 . S
Li91 O149 1.961 . S
Li91 O150 1.970 . S
Li91 O151 1.956 . S
C92 C94 1.348 . S
C92 C95 1.356 . S
C92 O148 1.325 . S
N93 C96 1.314 . S
N93 C97 1.279 . S
C94 C92 1.348 . S
C94 C96 1.353 . S
C94 H152 0.929 . S
C95 C92 1.356 . S
C95 C97 1.358 . S
C95 H153 0.930 . S
C96 N93 1.314 . S
C96 C94 1.353 . S
C96 H154 0.930 . S
C97 N93 1.279 . S
C97 C95 1.358 . S
C97 H155 0.930 . S
C98 C101 1.348 . S
C98 C102 1.356 . S
C98 O149 1.325 . S
C99 N100 1.279 . S
C99 C102 1.358 . S
C99 H156 0.930 . S
N100 C99 1.279 . S
N100 C103 1.314 . S
C101 C98 1.348 . S
C101 C103 1.353 . S
C101 H157 0.929 . S
C102 C98 1.356 . S
C102 C99 1.358 . S
C102 H158 0.930 . S
C103 N100 1.314 . S
C103 C101 1.353 . S
C103 H159 0.930 . S
C104 N105 1.314 . S
C104 C109 1.353 . S
C104 H110 0.930 . S
N105 Li88 1.990 . S
N105 C104 1.314 . S
N105 C107 1.279 . S
C106 C107 1.358 . S
C106 C108 1.356 . S
C106 H160 0.930 . S
C107 N105 1.279 . S
C107 C106 1.358 . S
C107 H111 0.930 . S
C108 C106 1.356 . S
C108 C109 1.348 . S
C109 C104 1.353 . S
C109 C108 1.348 . S
C109 H161 0.929 . S
H110 C104 0.930 . S
H111 C107 0.930 . S
C112 N113 1.314 . S
C112 C114 1.353 . S
C112 H118 0.930 . S
N113 Li89 1.990 . S
N113 C112 1.314 . S
N113 C116 1.279 . S
C114 C112 1.353 . S
C114 C117 1.348 . S
C114 H162 0.929 . S
C115 C116 1.358 . S
C115 C117 1.356 . S
C115 H163 0.930 . S
C116 N113 1.279 . S
C116 C115 1.358 . S
C116 H119 0.930 . S
C117 C114 1.348 . S
C117 C115 1.356 . S
H118 C112 0.930 . S
H119 C116 0.930 . S
C120 C122 1.348 . S
C120 C123 1.356 . S
C120 O150 1.325 . S
N121 C124 1.314 . S
N121 C125 1.279 . S
C122 C120 1.348 . S
C122 C124 1.353 . S
C122 H164 0.929 . S
C123 C120 1.356 . S
C123 C125 1.358 . S
C123 H165 0.930 . S
C124 N121 1.314 . S
C124 C122 1.353 . S
C124 H166 0.930 . S
C125 N121 1.279 . S
C125 C123 1.358 . S
C125 H167 0.930 . S
C126 C127 1.348 . S
C126 C128 1.356 . S
C126 O151 1.325 . S
C127 C126 1.348 . S
C127 C129 1.353 . S
C127 H168 0.929 . S
C128 C126 1.356 . S
C128 C130 1.358 . S
C128 H169 0.930 . S
C129 C127 1.353 . S
C129 N131 1.314 . S
C129 H170 0.930 . S
C130 C128 1.358 . S
C130 N131 1.279 . S
C130 H171 0.930 . S
N131 C129 1.314 . S
N131 C130 1.279 . S
C132 C134 1.353 . S
C132 N135 1.314 . S
C132 H138 0.930 . S
C133 N135 1.279 . S
C133 C136 1.358 . S
C133 H139 0.930 . S
C134 C132 1.353 . S
C134 C137 1.348 . S
C134 H172 0.929 . S
N135 Li90 1.990 . S
N135 C132 1.314 . S
N135 C133 1.279 . S
C136 C133 1.358 . S
C136 C137 1.356 . S
C136 H173 0.930 . S
C137 C134 1.348 . S
C137 C136 1.356 . S
H138 C132 0.930 . S
H139 C133 0.930 . S
C140 N141 1.314 . S
C140 C142 1.353 . S
C140 H146 0.930 . S
N141 Li91 1.990 . S
N141 C140 1.314 . S
N141 C144 1.279 . S
C142 C140 1.353 . S
C142 C145 1.348 . S
C142 H174 0.929 . S
C143 C144 1.358 . S
C143 C145 1.356 . S
C143 H175 0.930 . S
C144 N141 1.279 . S
C144 C143 1.358 . S
C144 H147 0.930 . S
C145 C142 1.348 . S
C145 C143 1.356 . S
H146 C140 0.930 . S
H147 C144 0.930 . S
O148 Li88 1.956 . S
O148 Li89 1.970 . S
O148 Li90 1.961 . S
O148 C92 1.325 . S
O149 Li88 1.970 . S
O149 Li89 1.956 . S
O149 Li91 1.961 . S
O149 C98 1.325 . S
O150 Li88 1.961 . S
O150 Li90 1.956 . S
O150 Li91 1.970 . S
O150 C120 1.325 . S
O151 Li89 1.961 . S
O151 Li90 1.970 . S
O151 Li91 1.956 . S
O151 C126 1.325 . S
H152 C94 0.929 . S
H153 C95 0.930 . S
H154 C96 0.930 . S
H155 C97 0.930 . S
H156 C99 0.930 . S
H157 C101 0.929 . S
H158 C102 0.930 . S
H159 C103 0.930 . S
H160 C106 0.930 . S
H161 C109 0.929 . S
H162 C114 0.929 . S
H163 C115 0.930 . S
H164 C122 0.929 . S
H165 C123 0.930 . S
H166 C124 0.930 . S
H167 C125 0.930 . S
H168 C127 0.929 . S
H169 C128 0.930 . S
H170 C129 0.930 . S
H171 C130 0.930 . S
H172 C134 0.929 . S
H173 C136 0.930 . S
H174 C142 0.929 . S
H175 C143 0.930 . S
Li176 N193 1.990 . S
Li176 O236 1.956 . S
Li176 O237 1.970 . S
Li176 O238 1.961 . S
Li177 N201 1.990 . S
Li177 O236 1.970 . S
Li177 O237 1.956 . S
Li177 O239 1.961 . S
Li178 N223 1.990 . S
Li178 O236 1.961 . S
Li178 O238 1.956 . S
Li178 O239 1.970 . S
Li179 N229 1.990 . S
Li179 O237 1.961 . S
Li179 O238 1.970 . S
Li179 O239 1.956 . S
C180 C182 1.348 . S
C180 C183 1.356 . S
C180 O236 1.325 . S
N181 C184 1.314 . S
N181 C185 1.279 . S
C182 C180 1.348 . S
C182 C184 1.353 . S
C182 H240 0.929 . S
C183 C180 1.356 . S
C183 C185 1.358 . S
C183 H241 0.930 . S
C184 N181 1.314 . S
C184 C182 1.353 . S
C184 H242 0.930 . S
C185 N181 1.279 . S
C185 C183 1.358 . S
C185 H243 0.930 . S
C186 C189 1.348 . S
C186 C190 1.356 . S
C186 O237 1.325 1_545 S
C187 N188 1.279 . S
C187 C190 1.358 . S
C187 H244 0.930 . S
N188 C187 1.279 . S
N188 C191 1.314 . S
C189 C186 1.348 . S
C189 C191 1.353 . S
C189 H245 0.929 . S
C190 C186 1.356 . S
C190 C187 1.358 . S
C190 H246 0.930 . S
C191 N188 1.314 . S
C191 C189 1.353 . S
C191 H247 0.930 . S
C192 N193 1.314 . S
C192 C197 1.353 1_565 S
C192 H198 0.930 . S
N193 Li176 1.990 . S
N193 C192 1.314 . S
N193 C195 1.279 . S
C194 C195 1.362 . S
C194 C196 1.353 1_565 S
C194 H248 0.928 1_565 S
C195 N193 1.279 . S
C195 C194 1.362 . S
C195 H199 0.930 . S
C196 C194 1.353 1_545 S
C196 C197 1.348 . S
C197 C192 1.353 1_545 S
C197 C196 1.348 . S
C197 H249 0.929 . S
H198 C192 0.930 . S
H199 C195 0.930 . S
C200 N201 1.314 . S
C200 C202 1.353 . S
C200 H206 0.930 . S
N201 Li177 1.990 . S
N201 C200 1.314 . S
N201 C204 1.279 1_565 S
C202 C200 1.353 . S
C202 C205 1.348 1_565 S
C202 H250 0.929 . S
C203 C204 1.358 . S
C203 C205 1.356 . S
C203 H251 0.930 . S
C204 N201 1.279 1_545 S
C204 C203 1.358 . S
C204 H207 0.930 . S
C205 C202 1.348 1_545 S
C205 C203 1.356 . S
H206 C200 0.930 . S
H207 C204 0.930 . S
C208 C210 1.348 . S
C208 C211 1.356 . S
C208 O238 1.325 . S
N209 C212 1.314 . S
N209 C213 1.279 . S
C210 C208 1.348 . S
C210 C212 1.353 . S
C210 H252 0.929 . S
C211 C208 1.356 . S
C211 C213 1.358 . S
C211 H253 0.930 . S
C212 N209 1.314 . S
C212 C210 1.353 . S
C212 H254 0.930 . S
C213 N209 1.279 . S
C213 C211 1.358 . S
C213 H255 0.930 . S
C214 C215 1.348 . S
C214 C216 1.356 . S
C214 O239 1.325 . S
C215 C214 1.348 . S
C215 C217 1.353 . S
C215 H256 0.929 . S
C216 C214 1.356 . S
C216 C218 1.358 . S
C216 H257 0.930 . S
C217 C215 1.353 . S
C217 N219 1.314 . S
C217 H258 0.930 . S
C218 C216 1.358 . S
C218 N219 1.279 . S
C218 H259 0.930 . S
N219 C217 1.314 . S
N219 C218 1.279 . S
C220 C222 1.353 . S
C220 N223 1.314 . S
C220 H226 0.930 . S
C221 N223 1.279 . S
C221 C224 1.358 . S
C221 H227 0.930 . S
C222 C220 1.353 . S
C222 C225 1.348 . S
C222 H260 0.929 . S
N223 Li178 1.990 . S
N223 C220 1.314 . S
N223 C221 1.279 . S
C224 C221 1.358 . S
C224 C225 1.356 . S
C224 H261 0.930 . S
C225 C222 1.348 . S
C225 C224 1.356 . S
H226 C220 0.930 . S
H227 C221 0.930 . S
C228 N229 1.314 . S
C228 C230 1.353 . S
C228 H234 0.930 . S
N229 Li179 1.990 . S
N229 C228 1.314 . S
N229 C232 1.279 . S
C230 C228 1.353 . S
C230 C233 1.348 . S
C230 H262 0.937 . S
C231 C232 1.358 . S
C231 C233 1.356 . S
C231 H263 0.930 . S
C232 N229 1.279 . S
C232 C231 1.358 . S
C232 H235 0.930 . S
C233 C230 1.348 . S
C233 C231 1.356 . S
H234 C228 0.930 . S
H235 C232 0.930 . S
O236 Li176 1.956 . S
O236 Li177 1.970 . S
O236 Li178 1.961 . S
O236 C180 1.325 . S
O237 Li176 1.970 . S
O237 Li177 1.956 . S
O237 Li179 1.961 . S
O237 C186 1.325 1_565 S
O238 Li176 1.961 . S
O238 Li178 1.956 . S
O238 Li179 1.970 . S
O238 C208 1.325 . S
O239 Li177 1.961 . S
O239 Li178 1.970 . S
O239 Li179 1.956 . S
O239 C214 1.325 . S
H240 C182 0.929 . S
H241 C183 0.930 . S
H242 C184 0.930 . S
H243 C185 0.930 . S
H244 C187 0.930 . S
H245 C189 0.929 . S
H246 C190 0.930 . S
H247 C191 0.930 . S
H248 C194 0.928 1_545 S
H249 C197 0.929 . S
H250 C202 0.929 . S
H251 C203 0.930 . S
H252 C210 0.929 . S
H253 C211 0.930 . S
H254 C212 0.930 . S
H255 C213 0.930 . S
H256 C215 0.929 . S
H257 C216 0.930 . S
H258 C217 0.930 . S
H259 C218 0.930 . S
H260 C222 0.929 . S
H261 C224 0.930 . S
H262 C230 0.937 . S
H263 C231 0.930 . S
Li264 N281 1.990 . S
Li264 O324 1.956 . S
Li264 O325 1.970 . S
Li264 O326 1.961 . S
Li265 N289 1.990 . S
Li265 O324 1.970 . S
Li265 O325 1.956 . S
Li265 O327 1.961 . S
Li266 N311 1.990 . S
Li266 O324 1.961 . S
Li266 O326 1.956 . S
Li266 O327 1.970 . S
Li267 N317 1.990 . S
Li267 O325 1.961 . S
Li267 O326 1.970 . S
Li267 O327 1.956 . S
C268 C270 1.348 . S
C268 C271 1.356 . S
C268 O324 1.325 . S
N269 C272 1.314 . S
N269 C273 1.279 . S
C270 C268 1.348 . S
C270 C272 1.353 . S
C270 H328 0.929 . S
C271 C268 1.356 . S
C271 C273 1.358 . S
C271 H329 0.930 . S
C272 N269 1.314 . S
C272 C270 1.353 . S
C272 H330 0.930 . S
C273 N269 1.279 . S
C273 C271 1.358 . S
C273 H331 0.930 . S
C274 C277 1.348 . S
C274 C278 1.356 . S
C274 O325 1.325 . S
C275 N276 1.279 . S
C275 C278 1.358 . S
C275 H332 0.930 . S
N276 C275 1.279 . S
N276 C279 1.314 . S
C277 C274 1.348 . S
C277 C279 1.353 . S
C277 H333 0.929 . S
C278 C274 1.356 . S
C278 C275 1.358 . S
C278 H334 0.930 . S
C279 N276 1.314 . S
C279 C277 1.353 . S
C279 H335 0.930 . S
C280 N281 1.314 . S
C280 C285 1.353 . S
C280 H286 0.930 . S
N281 Li264 1.990 . S
N281 C280 1.314 . S
N281 C283 1.279 . S
C282 C283 1.358 . S
C282 C284 1.356 . S
C282 H336 0.930 . S
C283 N281 1.279 . S
C283 C282 1.358 . S
C283 H287 0.930 . S
C284 C282 1.356 . S
C284 C285 1.348 . S
C285 C280 1.353 . S
C285 C284 1.348 . S
C285 H337 0.929 . S
H286 C280 0.930 . S
H287 C283 0.930 . S
C288 N289 1.314 . S
C288 C290 1.353 . S
C288 H294 0.930 . S
N289 Li265 1.990 . S
N289 C288 1.314 . S
N289 C292 1.279 . S
C290 C288 1.353 . S
C290 C293 1.348 . S
C290 H338 0.929 . S
C291 C292 1.358 . S
C291 C293 1.356 . S
C291 H339 0.930 . S
C292 N289 1.279 . S
C292 C291 1.358 . S
C292 H295 0.930 . S
C293 C290 1.348 . S
C293 C291 1.356 . S
H294 C288 0.930 . S
H295 C292 0.930 . S
C296 C298 1.348 . S
C296 C299 1.356 . S
C296 O326 1.325 . S
N297 C300 1.314 . S
N297 C301 1.279 . S
C298 C296 1.348 . S
C298 C300 1.353 . S
C298 H340 0.929 . S
C299 C296 1.356 . S
C299 C301 1.358 . S
C299 H341 0.930 . S
C300 N297 1.314 . S
C300 C298 1.353 . S
C300 H342 0.930 . S
C301 N297 1.279 . S
C301 C299 1.358 . S
C301 H343 0.930 . S
C302 C303 1.348 . S
C302 C304 1.356 . S
C302 O327 1.325 . S
C303 C302 1.348 . S
C303 C305 1.353 . S
C303 H344 0.929 . S
C304 C302 1.356 . S
C304 C306 1.358 . S
C304 H345 0.930 . S
C305 C303 1.353 . S
C305 N307 1.314 . S
C305 H346 0.930 . S
C306 C304 1.358 . S
C306 N307 1.279 . S
C306 H347 0.930 . S
N307 C305 1.314 . S
N307 C306 1.279 . S
C308 C310 1.353 . S
C308 N311 1.314 . S
C308 H314 0.930 . S
C309 N311 1.279 . S
C309 C312 1.358 . S
C309 H315 0.930 . S
C310 C308 1.353 . S
C310 C313 1.348 . S
C310 H348 0.929 . S
N311 Li266 1.990 . S
N311 C308 1.314 . S
N311 C309 1.279 . S
C312 C309 1.358 . S
C312 C313 1.356 . S
C312 H349 0.930 . S
C313 C310 1.348 . S
C313 C312 1.356 . S
H314 C308 0.930 . S
H315 C309 0.930 . S
C316 N317 1.314 . S
C316 C318 1.353 . S
C316 H322 0.930 . S
N317 Li267 1.990 . S
N317 C316 1.314 . S
N317 C320 1.279 . S
C318 C316 1.353 . S
C318 C321 1.348 . S
C318 H350 0.929 . S
C319 C320 1.358 . S
C319 C321 1.356 . S
C319 H351 0.930 . S
C320 N317 1.279 . S
C320 C319 1.358 . S
C320 H323 0.930 . S
C321 C318 1.348 . S
C321 C319 1.356 . S
H322 C316 0.930 . S
H323 C320 0.930 . S
O324 Li264 1.956 . S
O324 Li265 1.970 . S
O324 Li266 1.961 . S
O324 C268 1.325 . S
O325 Li264 1.970 . S
O325 Li265 1.956 . S
O325 Li267 1.961 . S
O325 C274 1.325 . S
O326 Li264 1.961 . S
O326 Li266 1.956 . S
O326 Li267 1.970 . S
O326 C296 1.325 . S
O327 Li265 1.961 . S
O327 Li266 1.970 . S
O327 Li267 1.956 . S
O327 C302 1.325 . S
H328 C270 0.929 . S
H329 C271 0.930 . S
H330 C272 0.930 . S
H331 C273 0.930 . S
H332 C275 0.930 . S
H333 C277 0.929 . S
H334 C278 0.930 . S
H335 C279 0.930 . S
H336 C282 0.930 . S
H337 C285 0.929 . S
H338 C290 0.929 . S
H339 C291 0.930 . S
H340 C298 0.929 . S
H341 C299 0.930 . S
H342 C300 0.930 . S
H343 C301 0.930 . S
H344 C303 0.929 . S
H345 C304 0.930 . S
H346 C305 0.930 . S
H347 C306 0.930 . S
H348 C310 0.929 . S
H349 C312 0.930 . S
H350 C318 0.929 . S
H351 C319 0.930 . S
Li352 N369 1.990 . S
Li352 O412 1.956 1_655 S
Li352 O413 1.970 1_655 S
Li352 O414 1.961 . S
Li353 N377 1.990 . S
Li353 O412 1.970 . S
Li353 O413 1.956 . S
Li353 O415 1.961 . S
Li354 N399 1.990 . S
Li354 O412 1.961 . S
Li354 O414 1.956 1_455 S
Li354 O415 1.970 . S
Li355 N405 1.990 . S
Li355 O413 1.961 . S
Li355 O414 1.970 1_455 S
Li355 O415 1.956 . S
C356 C358 1.348 . S
C356 C359 1.356 1_455 S
C356 O412 1.325 . S
N357 C360 1.314 . S
N357 C361 1.279 1_455 S
C358 C356 1.348 . S
C358 C360 1.353 . S
C358 H416 0.929 . S
C359 C356 1.356 1_655 S
C359 C361 1.358 . S
C359 H417 0.930 . S
C360 N357 1.314 . S
C360 C358 1.353 . S
C360 H418 0.930 . S
C361 N357 1.279 1_655 S
C361 C359 1.358 . S
C361 H419 0.930 . S
C362 C365 1.348 1_455 S
C362 C366 1.356 . S
C362 O413 1.325 1_545 S
C363 N364 1.279 . S
C363 C366 1.358 . S
C363 H420 0.930 . S
N364 C363 1.279 . S
N364 C367 1.314 1_455 S
C365 C362 1.348 1_655 S
C365 C367 1.353 . S
C365 H421 0.929 . S
C366 C362 1.356 . S
C366 C363 1.358 . S
C366 H422 0.930 . S
C367 N364 1.314 1_655 S
C367 C365 1.353 . S
C367 H423 0.930 . S
C368 N369 1.314 . S
C368 C373 1.353 1_565 S
C368 H374 0.930 . S
N369 Li352 1.990 . S
N369 C368 1.314 . S
N369 C371 1.279 . S
C370 C371 1.362 . S
C370 C372 1.354 1_565 S
C370 H424 0.929 1_565 S
C371 N369 1.279 . S
C371 C370 1.362 . S
C371 H375 0.930 . S
C372 C370 1.354 1_545 S
C372 C373 1.348 . S
C373 C368 1.353 1_545 S
C373 C372 1.348 . S
C373 H425 0.929 . S
H374 C368 0.930 . S
H375 C371 0.930 . S
C376 N377 1.314 . S
C376 C378 1.353 . S
C376 H382 0.930 . S
N377 Li353 1.990 . S
N377 C376 1.314 . S
N377 C380 1.279 1_565 S
C378 C376 1.353 . S
C378 C381 1.348 1_565 S
C378 H426 0.929 . S
C379 C380 1.358 . S
C379 C381 1.356 . S
C379 H427 0.930 . S
C380 N377 1.279 1_545 S
C380 C379 1.358 . S
C380 H383 0.930 . S
C381 C378 1.348 1_545 S
C381 C379 1.356 . S
H382 C376 0.930 . S
H383 C380 0.930 . S
C384 C386 1.348 . S
C384 C387 1.356 . S
C384 O414 1.325 . S
N385 C388 1.314 . S
N385 C389 1.279 . S
C386 C384 1.348 . S
C386 C388 1.353 . S
C386 H428 0.929 . S
C387 C384 1.356 . S
C387 C389 1.358 . S
C387 H429 0.930 . S
C388 N385 1.314 . S
C388 C386 1.353 . S
C388 H430 0.930 . S
C389 N385 1.279 . S
C389 C387 1.358 . S
C389 H431 0.930 . S
C390 C391 1.348 . S
C390 C392 1.356 . S
C390 O415 1.325 . S
C391 C390 1.348 . S
C391 C393 1.353 . S
C391 H432 0.929 . S
C392 C390 1.356 . S
C392 C394 1.358 . S
C392 H433 0.930 . S
C393 C391 1.353 . S
C393 N395 1.314 . S
C393 H434 0.930 . S
C394 C392 1.358 . S
C394 N395 1.279 . S
C394 H435 0.930 . S
N395 C393 1.314 . S
N395 C394 1.279 . S
C396 C398 1.353 . S
C396 N399 1.314 . S
C396 H402 0.930 . S
C397 N399 1.279 1_655 S
C397 C400 1.358 . S
C397 H403 0.930 . S
C398 C396 1.353 . S
C398 C401 1.348 . S
C398 H436 0.929 . S
N399 Li354 1.990 . S
N399 C396 1.314 . S
N399 C397 1.279 1_455 S
C400 C397 1.358 . S
C400 C401 1.356 1_655 S
C400 H437 0.930 . S
C401 C398 1.348 . S
C401 C400 1.356 1_455 S
H402 C396 0.930 . S
H403 C397 0.930 . S
C404 N405 1.314 1_655 S
C404 C406 1.353 . S
C404 H410 0.930 . S
N405 Li355 1.990 . S
N405 C404 1.314 1_455 S
N405 C408 1.279 . S
C406 C404 1.353 . S
C406 C409 1.348 1_655 S
C406 H438 0.936 . S
C407 C408 1.358 . S
C407 C409 1.356 . S
C407 H439 0.930 . S
C408 N405 1.279 . S
C408 C407 1.358 . S
C408 H411 0.930 . S
C409 C406 1.348 1_455 S
C409 C407 1.356 . S
H410 C404 0.930 . S
H411 C408 0.930 . S
O412 Li352 1.956 1_455 S
O412 Li353 1.970 . S
O412 Li354 1.961 . S
O412 C356 1.325 . S
O413 Li352 1.970 1_455 S
O413 Li353 1.956 . S
O413 Li355 1.961 . S
O413 C362 1.325 1_565 S
O414 Li352 1.961 . S
O414 Li354 1.956 1_655 S
O414 Li355 1.970 1_655 S
O414 C384 1.325 . S
O415 Li353 1.961 . S
O415 Li354 1.970 . S
O415 Li355 1.956 . S
O415 C390 1.325 . S
H416 C358 0.929 . S
H417 C359 0.930 . S
H418 C360 0.930 . S
H419 C361 0.930 . S
H420 C363 0.930 . S
H421 C365 0.929 . S
H422 C366 0.930 . S
H423 C367 0.930 . S
H424 C370 0.929 1_545 S
H425 C373 0.929 . S
H426 C378 0.929 . S
H427 C379 0.930 . S
H428 C386 0.929 . S
H429 C387 0.930 . S
H430 C388 0.930 . S
H431 C389 0.930 . S
H432 C391 0.929 . S
H433 C392 0.930 . S
H434 C393 0.930 . S
H435 C394 0.930 . S
H436 C398 0.929 . S
H437 C400 0.930 . S
H438 C406 0.936 . S
H439 C407 0.930 . S
Li440 N457 1.990 . S
Li440 O500 1.956 . S
Li440 O501 1.970 . S
Li440 O502 1.961 . S
Li441 N465 1.990 . S
Li441 O500 1.970 . S
Li441 O501 1.956 . S
Li441 O503 1.961 . S
Li442 N487 1.990 . S
Li442 O500 1.961 . S
Li442 O502 1.956 . S
Li442 O503 1.970 . S
Li443 N493 1.990 . S
Li443 O501 1.961 . S
Li443 O502 1.970 . S
Li443 O503 1.956 . S
C444 C446 1.348 . S
C444 C447 1.356 . S
C444 O500 1.325 . S
N445 C448 1.314 . S
N445 C449 1.279 . S
C446 C444 1.348 . S
C446 C448 1.353 . S
C446 H504 0.929 . S
C447 C444 1.356 . S
C447 C449 1.358 . S
C447 H505 0.930 . S
C448 N445 1.314 . S
C448 C446 1.353 . S
C448 H506 0.930 . S
C449 N445 1.279 . S
C449 C447 1.358 . S
C449 H507 0.930 . S
C450 C453 1.348 . S
C450 C454 1.356 . S
C450 O501 1.325 . S
C451 N452 1.279 . S
C451 C454 1.358 . S
C451 H508 0.930 . S
N452 C451 1.279 . S
N452 C455 1.314 . S
C453 C450 1.348 . S
C453 C455 1.353 . S
C453 H509 0.929 . S
C454 C450 1.356 . S
C454 C451 1.358 . S
C454 H510 0.930 . S
C455 N452 1.314 . S
C455 C453 1.353 . S
C455 H511 0.930 . S
C456 N457 1.314 . S
C456 C461 1.353 . S
C456 H462 0.930 . S
N457 Li440 1.990 . S
N457 C456 1.314 . S
N457 C459 1.279 . S
C458 C459 1.358 . S
C458 C460 1.356 . S
C458 H512 0.930 . S
C459 N457 1.279 . S
C459 C458 1.358 . S
C459 H463 0.930 . S
C460 C458 1.356 . S
C460 C461 1.348 . S
C461 C456 1.353 . S
C461 C460 1.348 . S
C461 H513 0.929 . S
H462 C456 0.930 . S
H463 C459 0.930 . S
C464 N465 1.314 . S
C464 C466 1.353 . S
C464 H470 0.930 . S
N465 Li441 1.990 . S
N465 C464 1.314 . S
N465 C468 1.279 . S
C466 C464 1.353 . S
C466 C469 1.348 . S
C466 H514 0.929 . S
C467 C468 1.358 . S
C467 C469 1.356 . S
C467 H515 0.930 . S
C468 N465 1.279 . S
C468 C467 1.358 . S
C468 H471 0.930 . S
C469 C466 1.348 . S
C469 C467 1.356 . S
H470 C464 0.930 . S
H471 C468 0.930 . S
C472 C474 1.348 . S
C472 C475 1.356 . S
C472 O502 1.325 . S
N473 C476 1.314 . S
N473 C477 1.279 . S
C474 C472 1.348 . S
C474 C476 1.353 . S
C474 H516 0.929 . S
C475 C472 1.356 . S
C475 C477 1.358 . S
C475 H517 0.930 . S
C476 N473 1.314 . S
C476 C474 1.353 . S
C476 H518 0.930 . S
C477 N473 1.279 . S
C477 C475 1.358 . S
C477 H519 0.930 . S
C478 C479 1.348 . S
C478 C480 1.356 . S
C478 O503 1.325 . S
C479 C478 1.348 . S
C479 C481 1.353 . S
C479 H520 0.929 . S
C480 C478 1.356 . S
C480 C482 1.358 . S
C480 H521 0.930 . S
C481 C479 1.353 . S
C481 N483 1.314 . S
C481 H522 0.930 . S
C482 C480 1.358 . S
C482 N483 1.279 . S
C482 H523 0.930 . S
N483 C481 1.314 . S
N483 C482 1.279 . S
C484 C486 1.353 . S
C484 N487 1.314 . S
C484 H490 0.930 . S
C485 N487 1.279 . S
C485 C488 1.358 . S
C485 H491 0.930 . S
C486 C484 1.353 . S
C486 C489 1.348 . S
C486 H524 0.929 . S
N487 Li442 1.990 . S
N487 C484 1.314 . S
N487 C485 1.279 . S
C488 C485 1.358 . S
C488 C489 1.356 . S
C488 H525 0.930 . S
C489 C486 1.348 . S
C489 C488 1.356 . S
H490 C484 0.930 . S
H491 C485 0.930 . S
C492 N493 1.314 . S
C492 C494 1.353 . S
C492 H498 0.930 . S
N493 Li443 1.990 . S
N493 C492 1.314 . S
N493 C496 1.279 . S
C494 C492 1.353 . S
C494 C497 1.348 . S
C494 H526 0.929 . S
C495 C496 1.358 . S
C495 C497 1.356 . S
C495 H527 0.930 . S
C496 N493 1.279 . S
C496 C495 1.358 . S
C496 H499 0.930 . S
C497 C494 1.348 . S
C497 C495 1.356 . S
H498 C492 0.930 . S
H499 C496 0.930 . S
O500 Li440 1.956 . S
O500 Li441 1.970 . S
O500 Li442 1.961 . S
O500 C444 1.325 . S
O501 Li440 1.970 . S
O501 Li441 1.956 . S
O501 Li443 1.961 . S
O501 C450 1.325 . S
O502 Li440 1.961 . S
O502 Li442 1.956 . S
O502 Li443 1.970 . S
O502 C472 1.325 . S
O503 Li441 1.961 . S
O503 Li442 1.970 . S
O503 Li443 1.956 . S
O503 C478 1.325 . S
H504 C446 0.929 . S
H505 C447 0.930 . S
H506 C448 0.930 . S
H507 C449 0.930 . S
H508 C451 0.930 . S
H509 C453 0.929 . S
H510 C454 0.930 . S
H511 C455 0.930 . S
H512 C458 0.930 . S
H513 C461 0.929 . S
H514 C466 0.929 . S
H515 C467 0.930 . S
H516 C474 0.929 . S
H517 C475 0.930 . S
H518 C476 0.930 . S
H519 C477 0.930 . S
H520 C479 0.929 . S
H521 C480 0.930 . S
H522 C481 0.930 . S
H523 C482 0.930 . S
H524 C486 0.929 . S
H525 C488 0.930 . S
H526 C494 0.929 . S
H527 C495 0.930 . S
Li528 N545 1.990 . S
Li528 O588 1.956 . S
Li528 O589 1.970 . S
Li528 O590 1.961 . S
Li529 N553 1.990 . S
Li529 O588 1.970 . S
Li529 O589 1.956 . S
Li529 O591 1.961 . S
Li530 N575 1.990 . S
Li530 O588 1.961 . S
Li530 O590 1.956 . S
Li530 O591 1.970 . S
Li531 N581 1.990 . S
Li531 O589 1.961 . S
Li531 O590 1.970 . S
Li531 O591 1.956 . S
C532 C534 1.348 . S
C532 C535 1.356 . S
C532 O588 1.325 . S
N533 C536 1.314 . S
N533 C537 1.279 . S
C534 C532 1.348 . S
C534 C536 1.353 . S
C534 H592 0.929 . S
C535 C532 1.356 . S
C535 C537 1.358 . S
C535 H593 0.930 . S
C536 N533 1.314 . S
C536 C534 1.353 . S
C536 H594 0.930 . S
C537 N533 1.279 . S
C537 C535 1.358 . S
C537 H595 0.930 . S
C538 C541 1.348 . S
C538 C542 1.356 . S
C538 O589 1.325 . S
C539 N540 1.279 . S
C539 C542 1.358 . S
C539 H596 0.930 . S
N540 C539 1.279 . S
N540 C543 1.314 . S
C541 C538 1.348 . S
C541 C543 1.353 . S
C541 H597 0.929 . S
C542 C538 1.356 . S
C542 C539 1.358 . S
C542 H598 0.930 . S
C543 N540 1.314 . S
C543 C541 1.353 . S
C543 H599 0.930 . S
C544 N545 1.314 . S
C544 C549 1.353 . S
C544 H550 0.930 . S
N545 Li528 1.990 . S
N545 C544 1.314 . S
N545 C547 1.279 . S
C546 C547 1.358 . S
C546 C548 1.356 . S
C546 H600 0.930 . S
C547 N545 1.279 . S
C547 C546 1.358 . S
C547 H551 0.930 . S
C548 C546 1.356 . S
C548 C549 1.348 . S
C549 C544 1.353 . S
C549 C548 1.348 . S
C549 H601 0.929 . S
H550 C544 0.930 . S
H551 C547 0.930 . S
C552 N553 1.314 . S
C552 C554 1.353 . S
C552 H558 0.930 . S
N553 Li529 1.990 . S
N553 C552 1.314 . S
N553 C556 1.279 . S
C554 C552 1.353 . S
C554 C557 1.348 . S
C554 H602 0.937 . S
C555 C556 1.358 . S
C555 C557 1.356 . S
C555 H603 0.930 . S
C556 N553 1.279 . S
C556 C555 1.358 . S
C556 H559 0.930 . S
C557 C554 1.348 . S
C557 C555 1.356 . S
H558 C552 0.930 . S
H559 C556 0.930 . S
C560 C562 1.348 . S
C560 C563 1.356 . S
C560 O590 1.325 . S
N561 C564 1.314 . S
N561 C565 1.279 . S
C562 C560 1.348 . S
C562 C564 1.353 . S
C562 H604 0.929 . S
C563 C560 1.356 . S
C563 C565 1.358 . S
C563 H605 0.930 . S
C564 N561 1.314 . S
C564 C562 1.353 . S
C564 H606 0.930 . S
C565 N561 1.279 . S
C565 C563 1.358 . S
C565 H607 0.930 . S
C566 C567 1.348 . S
C566 C568 1.356 . S
C566 O591 1.325 1_565 S
C567 C566 1.348 . S
C567 C569 1.353 . S
C567 H608 0.929 . S
C568 C566 1.356 . S
C568 C570 1.358 . S
C568 H609 0.930 . S
C569 C567 1.353 . S
C569 N571 1.314 . S
C569 H610 0.930 . S
C570 C568 1.358 . S
C570 N571 1.279 . S
C570 H611 0.930 . S
N571 C569 1.314 . S
N571 C570 1.279 . S
C572 C574 1.353 1_545 S
C572 N575 1.314 . S
C572 H578 0.930 . S
C573 N575 1.279 . S
C573 C576 1.362 . S
C573 H579 0.930 . S
C574 C572 1.353 1_565 S
C574 C577 1.348 . S
C574 H612 0.929 . S
N575 Li530 1.990 . S
N575 C572 1.314 . S
N575 C573 1.279 . S
C576 C573 1.362 . S
C576 C577 1.353 1_545 S
C576 H613 0.928 1_545 S
C577 C574 1.348 . S
C577 C576 1.353 1_565 S
H578 C572 0.930 . S
H579 C573 0.930 . S
C580 N581 1.314 . S
C580 C582 1.353 . S
C580 H586 0.930 . S
N581 Li531 1.990 . S
N581 C580 1.314 . S
N581 C584 1.279 1_545 S
C582 C580 1.353 . S
C582 C585 1.348 1_545 S
C582 H614 0.929 . S
C583 C584 1.358 . S
C583 C585 1.356 . S
C583 H615 0.930 . S
C584 N581 1.279 1_565 S
C584 C583 1.358 . S
C584 H587 0.930 . S
C585 C582 1.348 1_565 S
C585 C583 1.356 . S
H586 C580 0.930 . S
H587 C584 0.930 . S
O588 Li528 1.956 . S
O588 Li529 1.970 . S
O588 Li530 1.961 . S
O588 C532 1.325 . S
O589 Li528 1.970 . S
O589 Li529 1.956 . S
O589 Li531 1.961 . S
O589 C538 1.325 . S
O590 Li528 1.961 . S
O590 Li530 1.956 . S
O590 Li531 1.970 . S
O590 C560 1.325 . S
O591 Li529 1.961 . S
O591 Li530 1.970 . S
O591 Li531 1.956 . S
O591 C566 1.325 1_545 S
H592 C534 0.929 . S
H593 C535 0.930 . S
H594 C536 0.930 . S
H595 C537 0.930 . S
H596 C539 0.930 . S
H597 C541 0.929 . S
H598 C542 0.930 . S
H599 C543 0.930 . S
H600 C546 0.930 . S
H601 C549 0.929 . S
H602 C554 0.937 . S
H603 C555 0.930 . S
H604 C562 0.929 . S
H605 C563 0.930 . S
H606 C564 0.930 . S
H607 C565 0.930 . S
H608 C567 0.929 . S
H609 C568 0.930 . S
H610 C569 0.930 . S
H611 C570 0.930 . S
H612 C574 0.929 . S
H613 C576 0.928 1_565 S
H614 C582 0.929 . S
H615 C583 0.930 . S
Li616 N633 1.990 . S
Li616 O676 1.956 . S
Li616 O677 1.970 . S
Li616 O678 1.961 . S
Li617 N641 1.990 . S
Li617 O676 1.970 . S
Li617 O677 1.956 . S
Li617 O679 1.961 . S
Li618 N663 1.990 . S
Li618 O676 1.961 . S
Li618 O678 1.956 . S
Li618 O679 1.970 . S
Li619 N669 1.990 . S
Li619 O677 1.961 . S
Li619 O678 1.970 . S
Li619 O679 1.956 . S
C620 C622 1.348 . S
C620 C623 1.356 . S
C620 O676 1.325 . S
N621 C624 1.314 . S
N621 C625 1.279 . S
C622 C620 1.348 . S
C622 C624 1.353 . S
C622 H680 0.929 . S
C623 C620 1.356 . S
C623 C625 1.358 . S
C623 H681 0.930 . S
C624 N621 1.314 . S
C624 C622 1.353 . S
C624 H682 0.930 . S
C625 N621 1.279 . S
C625 C623 1.358 . S
C625 H683 0.930 . S
C626 C629 1.348 . S
C626 C630 1.356 . S
C626 O677 1.325 . S
C627 N628 1.279 . S
C627 C630 1.358 . S
C627 H684 0.930 . S
N628 C627 1.279 . S
N628 C631 1.314 . S
C629 C626 1.348 . S
C629 C631 1.353 . S
C629 H685 0.929 . S
C630 C626 1.356 . S
C630 C627 1.358 . S
C630 H686 0.930 . S
C631 N628 1.314 . S
C631 C629 1.353 . S
C631 H687 0.930 . S
C632 N633 1.314 . S
C632 C637 1.353 . S
C632 H638 0.930 . S
N633 Li616 1.990 . S
N633 C632 1.314 . S
N633 C635 1.279 . S
C634 C635 1.358 . S
C634 C636 1.356 . S
C634 H688 0.930 . S
C635 N633 1.279 . S
C635 C634 1.358 . S
C635 H639 0.930 . S
C636 C634 1.356 . S
C636 C637 1.348 . S
C637 C632 1.353 . S
C637 C636 1.348 . S
C637 H689 0.929 . S
H638 C632 0.930 . S
H639 C635 0.930 . S
C640 N641 1.314 . S
C640 C642 1.353 . S
C640 H646 0.930 . S
N641 Li617 1.990 . S
N641 C640 1.314 . S
N641 C644 1.279 . S
C642 C640 1.353 . S
C642 C645 1.348 . S
C642 H690 0.929 . S
C643 C644 1.358 . S
C643 C645 1.356 . S
C643 H691 0.930 . S
C644 N641 1.279 . S
C644 C643 1.358 . S
C644 H647 0.930 . S
C645 C642 1.348 . S
C645 C643 1.356 . S
H646 C640 0.930 . S
H647 C644 0.930 . S
C648 C650 1.348 . S
C648 C651 1.356 . S
C648 O678 1.325 . S
N649 C652 1.314 . S
N649 C653 1.279 . S
C650 C648 1.348 . S
C650 C652 1.353 . S
C650 H692 0.929 . S
C651 C648 1.356 . S
C651 C653 1.358 . S
C651 H693 0.930 . S
C652 N649 1.314 . S
C652 C650 1.353 . S
C652 H694 0.930 . S
C653 N649 1.279 . S
C653 C651 1.358 . S
C653 H695 0.930 . S
C654 C655 1.348 . S
C654 C656 1.356 . S
C654 O679 1.325 . S
C655 C654 1.348 . S
C655 C657 1.353 . S
C655 H696 0.929 . S
C656 C654 1.356 . S
C656 C658 1.358 . S
C656 H697 0.930 . S
C657 C655 1.353 . S
C657 N659 1.314 . S
C657 H698 0.930 . S
C658 C656 1.358 . S
C658 N659 1.279 . S
C658 H699 0.930 . S
N659 C657 1.314 . S
N659 C658 1.279 . S
C660 C662 1.353 . S
C660 N663 1.314 . S
C660 H666 0.930 . S
C661 N663 1.279 . S
C661 C664 1.358 . S
C661 H667 0.930 . S
C662 C660 1.353 . S
C662 C665 1.348 . S
C662 H700 0.929 . S
N663 Li618 1.990 . S
N663 C660 1.314 . S
N663 C661 1.279 . S
C664 C661 1.358 . S
C664 C665 1.356 . S
C664 H701 0.930 . S
C665 C662 1.348 . S
C665 C664 1.356 . S
H666 C660 0.930 . S
H667 C661 0.930 . S
C668 N669 1.314 . S
C668 C670 1.353 . S
C668 H674 0.930 . S
N669 Li619 1.990 . S
N669 C668 1.314 . S
N669 C672 1.279 . S
C670 C668 1.353 . S
C670 C673 1.348 . S
C670 H702 0.929 . S
C671 C672 1.358 . S
C671 C673 1.356 . S
C671 H703 0.930 . S
C672 N669 1.279 . S
C672 C671 1.358 . S
C672 H675 0.930 . S
C673 C670 1.348 . S
C673 C671 1.356 . S
H674 C668 0.930 . S
H675 C672 0.930 . S
O676 Li616 1.956 . S
O676 Li617 1.970 . S
O676 Li618 1.961 . S
O676 C620 1.325 . S
O677 Li616 1.970 . S
O677 Li617 1.956 . S
O677 Li619 1.961 . S
O677 C626 1.325 . S
O678 Li616 1.961 . S
O678 Li618 1.956 . S
O678 Li619 1.970 . S
O678 C648 1.325 . S
O679 Li617 1.961 . S
O679 Li618 1.970 . S
O679 Li619 1.956 . S
O679 C654 1.325 . S
H680 C622 0.929 . S
H681 C623 0.930 . S
H682 C624 0.930 . S
H683 C625 0.930 . S
H684 C627 0.930 . S
H685 C629 0.929 . S
H686 C630 0.930 . S
H687 C631 0.930 . S
H688 C634 0.930 . S
H689 C637 0.929 . S
H690 C642 0.929 . S
H691 C643 0.930 . S
H692 C650 0.929 . S
H693 C651 0.930 . S
H694 C652 0.930 . S
H695 C653 0.930 . S
H696 C655 0.929 . S
H697 C656 0.930 . S
H698 C657 0.930 . S
H699 C658 0.930 . S
H700 C662 0.929 . S
H701 C664 0.930 . S
H702 C670 0.929 . S
H703 C671 0.930 . S
Li704 N721 1.990 . S
Li704 O764 1.956 . S
Li704 O765 1.970 . S
Li704 O766 1.961 . S
Li705 N729 1.990 . S
Li705 O764 1.970 . S
Li705 O765 1.956 . S
Li705 O767 1.961 . S
Li706 N751 1.990 . S
Li706 O764 1.961 . S
Li706 O766 1.956 . S
Li706 O767 1.970 . S
Li707 N757 1.990 . S
Li707 O765 1.961 . S
Li707 O766 1.970 . S
Li707 O767 1.956 . S
C708 C710 1.348 . S
C708 C711 1.356 . S
C708 O764 1.325 . S
N709 C712 1.314 . S
N709 C713 1.279 . S
C710 C708 1.348 . S
C710 C712 1.353 . S
C710 H768 0.929 . S
C711 C708 1.356 . S
C711 C713 1.358 . S
C711 H769 0.930 . S
C712 N709 1.314 . S
C712 C710 1.353 . S
C712 H770 0.930 . S
C713 N709 1.279 . S
C713 C711 1.358 . S
C713 H771 0.930 . S
C714 C717 1.348 . S
C714 C718 1.356 . S
C714 O765 1.325 . S
C715 N716 1.279 . S
C715 C718 1.358 . S
C715 H772 0.930 . S
N716 C715 1.279 . S
N716 C719 1.314 . S
C717 C714 1.348 . S
C717 C719 1.353 . S
C717 H773 0.929 . S
C718 C714 1.356 . S
C718 C715 1.358 . S
C718 H774 0.930 . S
C719 N716 1.314 . S
C719 C717 1.353 . S
C719 H775 0.930 . S
C720 N721 1.314 . S
C720 C725 1.353 . S
C720 H726 0.930 . S
N721 Li704 1.990 . S
N721 C720 1.314 . S
N721 C723 1.279 . S
C722 C723 1.358 . S
C722 C724 1.356 . S
C722 H776 0.930 . S
C723 N721 1.279 . S
C723 C722 1.358 . S
C723 H727 0.930 . S
C724 C722 1.356 . S
C724 C725 1.348 . S
C725 C720 1.353 . S
C725 C724 1.348 . S
C725 H777 0.929 . S
H726 C720 0.930 . S
H727 C723 0.930 . S
C728 N729 1.314 . S
C728 C730 1.353 . S
C728 H734 0.930 . S
N729 Li705 1.990 . S
N729 C728 1.314 . S
N729 C732 1.279 . S
C730 C728 1.353 . S
C730 C733 1.348 . S
C730 H778 0.929 . S
C731 C732 1.358 . S
C731 C733 1.356 . S
C731 H779 0.930 . S
C732 N729 1.279 . S
C732 C731 1.358 . S
C732 H735 0.930 . S
C733 C730 1.348 . S
C733 C731 1.356 . S
H734 C728 0.930 . S
H735 C732 0.930 . S
C736 C738 1.348 . S
C736 C739 1.356 . S
C736 O766 1.325 . S
N737 C740 1.314 . S
N737 C741 1.279 . S
C738 C736 1.348 . S
C738 C740 1.353 . S
C738 H780 0.929 . S
C739 C736 1.356 . S
C739 C741 1.358 . S
C739 H781 0.930 . S
C740 N737 1.314 . S
C740 C738 1.353 . S
C740 H782 0.930 . S
C741 N737 1.279 . S
C741 C739 1.358 . S
C741 H783 0.930 . S
C742 C743 1.348 . S
C742 C744 1.356 . S
C742 O767 1.325 . S
C743 C742 1.348 . S
C743 C745 1.353 . S
C743 H784 0.929 . S
C744 C742 1.356 . S
C744 C746 1.358 . S
C744 H785 0.930 . S
C745 C743 1.353 . S
C745 N747 1.314 . S
C745 H786 0.930 . S
C746 C744 1.358 . S
C746 N747 1.279 . S
C746 H787 0.930 . S
N747 C745 1.314 . S
N747 C746 1.279 . S
C748 C750 1.353 . S
C748 N751 1.314 . S
C748 H754 0.930 . S
C749 N751 1.279 . S
C749 C752 1.358 . S
C749 H755 0.930 . S
C750 C748 1.353 . S
C750 C753 1.348 . S
C750 H788 0.929 . S
N751 Li706 1.990 . S
N751 C748 1.314 . S
N751 C749 1.279 . S
C752 C749 1.358 . S
C752 C753 1.356 . S
C752 H789 0.930 . S
C753 C750 1.348 . S
C753 C752 1.356 . S
H754 C748 0.930 . S
H755 C749 0.930 . S
C756 N757 1.314 . S
C756 C758 1.353 . S
C756 H762 0.930 . S
N757 Li707 1.990 . S
N757 C756 1.314 . S
N757 C760 1.279 . S
C758 C756 1.353 . S
C758 C761 1.348 . S
C758 H790 0.929 . S
C759 C760 1.358 . S
C759 C761 1.356 . S
C759 H791 0.930 . S
C760 N757 1.279 . S
C760 C759 1.358 . S
C760 H763 0.930 . S
C761 C758 1.348 . S
C761 C759 1.356 . S
H762 C756 0.930 . S
H763 C760 0.930 . S
O764 Li704 1.956 . S
O764 Li705 1.970 . S
O764 Li706 1.961 . S
O764 C708 1.325 . S
O765 Li704 1.970 . S
O765 Li705 1.956 . S
O765 Li707 1.961 . S
O765 C714 1.325 . S
O766 Li704 1.961 . S
O766 Li706 1.956 . S
O766 Li707 1.970 . S
O766 C736 1.325 . S
O767 Li705 1.961 . S
O767 Li706 1.970 . S
O767 Li707 1.956 . S
O767 C742 1.325 . S
H768 C710 0.929 . S
H769 C711 0.930 . S
H770 C712 0.930 . S
H771 C713 0.930 . S
H772 C715 0.930 . S
H773 C717 0.929 . S
H774 C718 0.930 . S
H775 C719 0.930 . S
H776 C722 0.930 . S
H777 C725 0.929 . S
H778 C730 0.929 . S
H779 C731 0.930 . S
H780 C738 0.929 . S
H781 C739 0.930 . S
H782 C740 0.930 . S
H783 C741 0.930 . S
H784 C743 0.929 . S
H785 C744 0.930 . S
H786 C745 0.930 . S
H787 C746 0.930 . S
H788 C750 0.929 . S
H789 C752 0.930 . S
H790 C758 0.929 . S
H791 C759 0.930 . S
Li792 N809 1.990 . S
Li792 O852 1.956 . S
Li792 O853 1.970 . S
Li792 O854 1.961 . S
Li793 N817 1.990 . S
Li793 O852 1.970 . S
Li793 O853 1.956 . S
Li793 O855 1.961 . S
Li794 N839 1.990 . S
Li794 O852 1.961 . S
Li794 O854 1.956 . S
Li794 O855 1.970 . S
Li795 N845 1.990 . S
Li795 O853 1.961 . S
Li795 O854 1.970 . S
Li795 O855 1.956 . S
C796 C798 1.348 . S
C796 C799 1.356 . S
C796 O852 1.325 . S
N797 C800 1.314 . S
N797 C801 1.279 . S
C798 C796 1.348 . S
C798 C800 1.353 . S
C798 H856 0.929 . S
C799 C796 1.356 . S
C799 C801 1.358 . S
C799 H857 0.930 . S
C800 N797 1.314 . S
C800 C798 1.353 . S
C800 H858 0.930 . S
C801 N797 1.279 . S
C801 C799 1.358 . S
C801 H859 0.930 . S
C802 C805 1.348 . S
C802 C806 1.356 . S
C802 O853 1.325 . S
C803 N804 1.279 . S
C803 C806 1.358 . S
C803 H860 0.930 . S
N804 C803 1.279 . S
N804 C807 1.314 . S
C805 C802 1.348 . S
C805 C807 1.353 . S
C805 H861 0.929 . S
C806 C802 1.356 . S
C806 C803 1.358 . S
C806 H862 0.930 . S
C807 N804 1.314 . S
C807 C805 1.353 . S
C807 H863 0.930 . S
C808 N809 1.314 . S
C808 C813 1.353 . S
C808 H814 0.930 . S
N809 Li792 1.990 . S
N809 C808 1.314 . S
N809 C811 1.279 . S
C810 C811 1.358 . S
C810 C812 1.356 . S
C810 H864 0.930 . S
C811 N809 1.279 . S
C811 C810 1.358 . S
C811 H815 0.930 . S
C812 C810 1.356 . S
C812 C813 1.348 . S
C813 C808 1.353 . S
C813 C812 1.348 . S
C813 H865 0.929 . S
H814 C808 0.930 . S
H815 C811 0.930 . S
C816 N817 1.314 . S
C816 C818 1.353 . S
C816 H822 0.930 . S
N817 Li793 1.990 . S
N817 C816 1.314 . S
N817 C820 1.279 . S
C818 C816 1.353 . S
C818 C821 1.348 . S
C818 H866 0.929 . S
C819 C820 1.358 . S
C819 C821 1.356 . S
C819 H867 0.930 . S
C820 N817 1.279 . S
C820 C819 1.358 . S
C820 H823 0.930 . S
C821 C818 1.348 . S
C821 C819 1.356 . S
H822 C816 0.930 . S
H823 C820 0.930 . S
C824 C826 1.348 . S
C824 C827 1.356 . S
C824 O854 1.325 . S
N825 C828 1.314 . S
N825 C829 1.279 . S
C826 C824 1.348 . S
C826 C828 1.353 . S
C826 H868 0.929 . S
C827 C824 1.356 . S
C827 C829 1.358 . S
C827 H869 0.930 . S
C828 N825 1.314 . S
C828 C826 1.353 . S
C828 H870 0.930 . S
C829 N825 1.279 . S
C829 C827 1.358 . S
C829 H871 0.930 . S
C830 C831 1.348 . S
C830 C832 1.356 . S
C830 O855 1.325 . S
C831 C830 1.348 . S
C831 C833 1.353 . S
C831 H872 0.929 . S
C832 C830 1.356 . S
C832 C834 1.358 . S
C832 H873 0.930 . S
C833 C831 1.353 . S
C833 N835 1.314 . S
C833 H874 0.930 . S
C834 C832 1.358 . S
C834 N835 1.279 . S
C834 H875 0.930 . S
N835 C833 1.314 . S
N835 C834 1.279 . S
C836 C838 1.353 . S
C836 N839 1.314 . S
C836 H842 0.930 . S
C837 N839 1.279 . S
C837 C840 1.358 . S
C837 H843 0.930 . S
C838 C836 1.353 . S
C838 C841 1.348 . S
C838 H876 0.929 . S
N839 Li794 1.990 . S
N839 C836 1.314 . S
N839 C837 1.279 . S
C840 C837 1.358 . S
C840 C841 1.356 . S
C840 H877 0.930 . S
C841 C838 1.348 . S
C841 C840 1.356 . S
H842 C836 0.930 . S
H843 C837 0.930 . S
C844 N845 1.314 . S
C844 C846 1.353 . S
C844 H850 0.930 . S
N845 Li795 1.990 . S
N845 C844 1.314 . S
N845 C848 1.279 . S
C846 C844 1.353 . S
C846 C849 1.348 . S
C846 H878 0.929 . S
C847 C848 1.358 . S
C847 C849 1.356 . S
C847 H879 0.930 . S
C848 N845 1.279 . S
C848 C847 1.358 . S
C848 H851 0.930 . S
C849 C846 1.348 . S
C849 C847 1.356 . S
H850 C844 0.930 . S
H851 C848 0.930 . S
O852 Li792 1.956 . S
O852 Li793 1.970 . S
O852 Li794 1.961 . S
O852 C796 1.325 . S
O853 Li792 1.970 . S
O853 Li793 1.956 . S
O853 Li795 1.961 . S
O853 C802 1.325 . S
O854 Li792 1.961 . S
O854 Li794 1.956 . S
O854 Li795 1.970 . S
O854 C824 1.325 . S
O855 Li793 1.961 . S
O855 Li794 1.970 . S
O855 Li795 1.956 . S
O855 C830 1.325 . S
H856 C798 0.929 . S
H857 C799 0.930 . S
H858 C800 0.930 . S
H859 C801 0.930 . S
H860 C803 0.930 . S
H861 C805 0.929 . S
H862 C806 0.930 . S
H863 C807 0.930 . S
H864 C810 0.930 . S
H865 C813 0.929 . S
H866 C818 0.929 . S
H867 C819 0.930 . S
H868 C826 0.929 . S
H869 C827 0.930 . S
H870 C828 0.930 . S
H871 C829 0.930 . S
H872 C831 0.929 . S
H873 C832 0.930 . S
H874 C833 0.930 . S
H875 C834 0.930 . S
H876 C838 0.929 . S
H877 C840 0.930 . S
H878 C846 0.929 . S
H879 C847 0.930 . S
Li880 N897 1.990 . S
Li880 O940 1.956 . S
Li880 O941 1.970 . S
Li880 O942 1.961 . S
Li881 N905 1.990 . S
Li881 O940 1.970 . S
Li881 O941 1.956 . S
Li881 O943 1.961 . S
Li882 N927 1.990 . S
Li882 O940 1.961 . S
Li882 O942 1.956 . S
Li882 O943 1.970 . S
Li883 N933 1.990 . S
Li883 O941 1.961 . S
Li883 O942 1.970 . S
Li883 O943 1.956 . S
C884 C886 1.348 . S
C884 C887 1.356 . S
C884 O940 1.325 . S
N885 C888 1.314 . S
N885 C889 1.279 . S
C886 C884 1.348 . S
C886 C888 1.353 . S
C886 H944 0.929 . S
C887 C884 1.356 . S
C887 C889 1.358 . S
C887 H945 0.930 . S
C888 N885 1.314 . S
C888 C886 1.353 . S
C888 H946 0.930 . S
C889 N885 1.279 . S
C889 C887 1.358 . S
C889 H947 0.930 . S
C890 C893 1.348 . S
C890 C894 1.356 . S
C890 O941 1.325 . S
C891 N892 1.279 . S
C891 C894 1.358 . S
C891 H948 0.930 . S
N892 C891 1.279 . S
N892 C895 1.314 . S
C893 C890 1.348 . S
C893 C895 1.353 . S
C893 H949 0.929 . S
C894 C890 1.356 . S
C894 C891 1.358 . S
C894 H950 0.930 . S
C895 N892 1.314 . S
C895 C893 1.353 . S
C895 H951 0.930 . S
C896 N897 1.314 . S
C896 C901 1.353 . S
C896 H902 0.930 . S
N897 Li880 1.990 . S
N897 C896 1.314 . S
N897 C899 1.279 . S
C898 C899 1.358 . S
C898 C900 1.356 . S
C898 H952 0.930 . S
C899 N897 1.279 . S
C899 C898 1.358 . S
C899 H903 0.930 . S
C900 C898 1.356 . S
C900 C901 1.348 . S
C901 C896 1.353 . S
C901 C900 1.348 . S
C901 H953 0.929 . S
H902 C896 0.930 . S
H903 C899 0.930 . S
C904 N905 1.314 . S
C904 C906 1.353 . S
C904 H910 0.930 . S
N905 Li881 1.990 . S
N905 C904 1.314 . S
N905 C908 1.279 . S
C906 C904 1.353 . S
C906 C909 1.348 . S
C906 H954 0.929 . S
C907 C908 1.358 . S
C907 C909 1.356 . S
C907 H955 0.930 . S
C908 N905 1.279 . S
C908 C907 1.358 . S
C908 H911 0.930 . S
C909 C906 1.348 . S
C909 C907 1.356 . S
H910 C904 0.930 . S
H911 C908 0.930 . S
C912 C914 1.348 . S
C912 C915 1.356 . S
C912 O942 1.325 . S
N913 C916 1.314 . S
N913 C917 1.279 . S
C914 C912 1.348 . S
C914 C916 1.353 . S
C914 H956 0.929 . S
C915 C912 1.356 . S
C915 C917 1.358 . S
C915 H957 0.930 . S
C916 N913 1.314 . S
C916 C914 1.353 . S
C916 H958 0.930 . S
C917 N913 1.279 . S
C917 C915 1.358 . S
C917 H959 0.930 . S
C918 C919 1.348 . S
C918 C920 1.356 . S
C918 O943 1.325 . S
C919 C918 1.348 . S
C919 C921 1.353 . S
C919 H960 0.929 . S
C920 C918 1.356 . S
C920 C922 1.358 . S
C920 H961 0.930 . S
C921 C919 1.353 . S
C921 N923 1.314 . S
C921 H962 0.930 . S
C922 C920 1.358 . S
C922 N923 1.279 . S
C922 H963 0.930 . S
N923 C921 1.314 . S
N923 C922 1.279 . S
C924 C926 1.353 . S
C924 N927 1.314 . S
C924 H930 0.930 . S
C925 N927 1.279 . S
C925 C928 1.358 . S
C925 H931 0.930 . S
C926 C924 1.353 . S
C926 C929 1.348 . S
C926 H964 0.929 . S
N927 Li882 1.990 . S
N927 C924 1.314 . S
N927 C925 1.279 . S
C928 C925 1.358 . S
C928 C929 1.356 . S
C928 H965 0.930 . S
C929 C926 1.348 . S
C929 C928 1.356 . S
H930 C924 0.930 . S
H931 C925 0.930 . S
C932 N933 1.314 . S
C932 C934 1.353 . S
C932 H938 0.930 . S
N933 Li883 1.990 . S
N933 C932 1.314 . S
N933 C936 1.279 . S
C934 C932 1.353 . S
C934 C937 1.348 . S
C934 H966 0.929 . S
C935 C936 1.358 . S
C935 C937 1.356 . S
C935 H967 0.930 . S
C936 N933 1.279 . S
C936 C935 1.358 . S
C936 H939 0.930 . S
C937 C934 1.348 . S
C937 C935 1.356 . S
H938 C932 0.930 . S
H939 C936 0.930 . S
O940 Li880 1.956 . S
O940 Li881 1.970 . S
O940 Li882 1.961 . S
O940 C884 1.325 . S
O941 Li880 1.970 . S
O941 Li881 1.956 . S
O941 Li883 1.961 . S
O941 C890 1.325 . S
O942 Li880 1.961 . S
O942 Li882 1.956 . S
O942 Li883 1.970 . S
O942 C912 1.325 . S
O943 Li881 1.961 . S
O943 Li882 1.970 . S
O943 Li883 1.956 . S
O943 C918 1.325 . S
H944 C886 0.929 . S
H945 C887 0.930 . S
H946 C888 0.930 . S
H947 C889 0.930 . S
H948 C891 0.930 . S
H949 C893 0.929 . S
H950 C894 0.930 . S
H951 C895 0.930 . S
H952 C898 0.930 . S
H953 C901 0.929 . S
H954 C906 0.929 . S
H955 C907 0.930 . S
H956 C914 0.929 . S
H957 C915 0.930 . S
H958 C916 0.930 . S
H959 C917 0.930 . S
H960 C919 0.929 . S
H961 C920 0.930 . S
H962 C921 0.930 . S
H963 C922 0.930 . S
H964 C926 0.929 . S
H965 C928 0.930 . S
H966 C934 0.929 . S
H967 C935 0.930 . S
Li968 N985 1.990 . S
Li968 O1028 1.956 . S
Li968 O1029 1.970 . S
Li968 O1030 1.961 . S
Li969 N993 1.990 . S
Li969 O1028 1.970 . S
Li969 O1029 1.956 . S
Li969 O1031 1.961 . S
Li970 N1015 1.990 . S
Li970 O1028 1.961 . S
Li970 O1030 1.956 . S
Li970 O1031 1.970 . S
Li971 N1021 1.990 . S
Li971 O1029 1.961 . S
Li971 O1030 1.970 . S
Li971 O1031 1.956 . S
C972 C974 1.348 . S
C972 C975 1.356 . S
C972 O1028 1.325 . S
N973 C976 1.314 . S
N973 C977 1.279 . S
C974 C972 1.348 . S
C974 C976 1.353 . S
C974 H1032 0.929 . S
C975 C972 1.356 . S
C975 C977 1.358 . S
C975 H1033 0.930 . S
C976 N973 1.314 . S
C976 C974 1.353 . S
C976 H1034 0.930 . S
C977 N973 1.279 . S
C977 C975 1.358 . S
C977 H1035 0.930 . S
C978 C981 1.348 . S
C978 C982 1.356 . S
C978 O1029 1.325 . S
C979 N980 1.279 . S
C979 C982 1.358 . S
C979 H1036 0.930 . S
N980 C979 1.279 . S
N980 C983 1.314 . S
C981 C978 1.348 . S
C981 C983 1.353 . S
C981 H1037 0.929 . S
C982 C978 1.356 . S
C982 C979 1.358 . S
C982 H1038 0.930 . S
C983 N980 1.314 . S
C983 C981 1.353 . S
C983 H1039 0.930 . S
C984 N985 1.314 . S
C984 C989 1.353 . S
C984 H990 0.930 . S
N985 Li968 1.990 . S
N985 C984 1.314 . S
N985 C987 1.279 . S
C986 C987 1.358 . S
C986 C988 1.356 . S
C986 H1040 0.930 . S
C987 N985 1.279 . S
C987 C986 1.358 . S
C987 H991 0.930 . S
C988 C986 1.356 . S
C988 C989 1.348 . S
C989 C984 1.353 . S
C989 C988 1.348 . S
C989 H1041 0.929 . S
H990 C984 0.930 . S
H991 C987 0.930 . S
C992 N993 1.314 . S
C992 C994 1.353 . S
C992 H998 0.930 . S
N993 Li969 1.990 . S
N993 C992 1.314 . S
N993 C996 1.279 . S
C994 C992 1.353 . S
C994 C997 1.348 . S
C994 H1042 0.929 . S
C995 C996 1.358 . S
C995 C997 1.356 . S
C995 H1043 0.930 . S
C996 N993 1.279 . S
C996 C995 1.358 . S
C996 H999 0.930 . S
C997 C994 1.348 . S
C997 C995 1.356 . S
H998 C992 0.930 . S
H999 C996 0.930 . S
C1000 C1002 1.348 . S
C1000 C1003 1.356 . S
C1000 O1030 1.325 . S
N1001 C1004 1.314 . S
N1001 C1005 1.279 . S
C1002 C1000 1.348 . S
C1002 C1004 1.353 . S
C1002 H1044 0.929 . S
C1003 C1000 1.356 . S
C1003 C1005 1.358 . S
C1003 H1045 0.930 . S
C1004 N1001 1.314 . S
C1004 C1002 1.353 . S
C1004 H1046 0.930 . S
C1005 N1001 1.279 . S
C1005 C1003 1.358 . S
C1005 H1047 0.930 . S
C1006 C1007 1.348 . S
C1006 C1008 1.356 . S
C1006 O1031 1.325 . S
C1007 C1006 1.348 . S
C1007 C1009 1.353 . S
C1007 H1048 0.929 . S
C1008 C1006 1.356 . S
C1008 C1010 1.358 . S
C1008 H1049 0.930 . S
C1009 C1007 1.353 . S
C1009 N1011 1.314 . S
C1009 H1050 0.930 . S
C1010 C1008 1.358 . S
C1010 N1011 1.279 . S
C1010 H1051 0.930 . S
N1011 C1009 1.314 . S
N1011 C1010 1.279 . S
C1012 C1014 1.353 . S
C1012 N1015 1.314 . S
C1012 H1018 0.930 . S
C1013 N1015 1.279 . S
C1013 C1016 1.358 . S
C1013 H1019 0.930 . S
C1014 C1012 1.353 . S
C1014 C1017 1.348 . S
C1014 H1052 0.929 . S
N1015 Li970 1.990 . S
N1015 C1012 1.314 . S
N1015 C1013 1.279 . S
C1016 C1013 1.358 . S
C1016 C1017 1.356 . S
C1016 H1053 0.930 . S
C1017 C1014 1.348 . S
C1017 C1016 1.356 . S
H1018 C1012 0.930 . S
H1019 C1013 0.930 . S
C1020 N1021 1.314 . S
C1020 C1022 1.353 . S
C1020 H1026 0.930 . S
N1021 Li971 1.990 . S
N1021 C1020 1.314 . S
N1021 C1024 1.279 . S
C1022 C1020 1.353 . S
C1022 C1025 1.348 . S
C1022 H1054 0.929 . S
C1023 C1024 1.358 . S
C1023 C1025 1.356 . S
C1023 H1055 0.930 . S
C1024 N1021 1.279 . S
C1024 C1023 1.358 . S
C1024 H1027 0.930 . S
C1025 C1022 1.348 . S
C1025 C1023 1.356 . S
H1026 C1020 0.930 . S
H1027 C1024 0.930 . S
O1028 Li968 1.956 . S
O1028 Li969 1.970 . S
O1028 Li970 1.961 . S
O1028 C972 1.325 . S
O1029 Li968 1.970 . S
O1029 Li969 1.956 . S
O1029 Li971 1.961 . S
O1029 C978 1.325 . S
O1030 Li968 1.961 . S
O1030 Li970 1.956 . S
O1030 Li971 1.970 . S
O1030 C1000 1.325 . S
O1031 Li969 1.961 . S
O1031 Li970 1.970 . S
O1031 Li971 1.956 . S
O1031 C1006 1.325 . S
H1032 C974 0.929 . S
H1033 C975 0.930 . S
H1034 C976 0.930 . S
H1035 C977 0.930 . S
H1036 C979 0.930 . S
H1037 C981 0.929 . S
H1038 C982 0.930 . S
H1039 C983 0.930 . S
H1040 C986 0.930 . S
H1041 C989 0.929 . S
H1042 C994 0.929 . S
H1043 C995 0.930 . S
H1044 C1002 0.929 . S
H1045 C1003 0.930 . S
H1046 C1004 0.930 . S
H1047 C1005 0.930 . S
H1048 C1007 0.929 . S
H1049 C1008 0.930 . S
H1050 C1009 0.930 . S
H1051 C1010 0.930 . S
H1052 C1014 0.929 . S
H1053 C1016 0.930 . S
H1054 C1022 0.929 . S
H1055 C1023 0.930 . S
Li1056 N1073 1.990 . S
Li1056 O1116 1.956 . S
Li1056 O1117 1.970 . S
Li1056 O1118 1.961 . S
Li1057 N1081 1.990 . S
Li1057 O1116 1.970 . S
Li1057 O1117 1.956 . S
Li1057 O1119 1.961 . S
Li1058 N1103 1.990 . S
Li1058 O1116 1.961 . S
Li1058 O1118 1.956 . S
Li1058 O1119 1.970 . S
Li1059 N1109 1.990 . S
Li1059 O1117 1.961 . S
Li1059 O1118 1.970 . S
Li1059 O1119 1.956 . S
C1060 C1062 1.348 . S
C1060 C1063 1.356 . S
C1060 O1116 1.325 . S
N1061 C1064 1.314 . S
N1061 C1065 1.279 . S
C1062 C1060 1.348 . S
C1062 C1064 1.353 . S
C1062 H1120 0.929 . S
C1063 C1060 1.356 . S
C1063 C1065 1.358 . S
C1063 H1121 0.930 . S
C1064 N1061 1.314 . S
C1064 C1062 1.353 . S
C1064 H1122 0.930 . S
C1065 N1061 1.279 . S
C1065 C1063 1.358 . S
C1065 H1123 0.930 . S
C1066 C1069 1.348 . S
C1066 C1070 1.356 . S
C1066 O1117 1.325 . S
C1067 N1068 1.279 . S
C1067 C1070 1.358 . S
C1067 H1124 0.930 . S
N1068 C1067 1.279 . S
N1068 C1071 1.314 . S
C1069 C1066 1.348 . S
C1069 C1071 1.353 . S
C1069 H1125 0.929 . S
C1070 C1066 1.356 . S
C1070 C1067 1.358 . S
C1070 H1126 0.930 . S
C1071 N1068 1.314 . S
C1071 C1069 1.353 . S
C1071 H1127 0.930 . S
C1072 N1073 1.314 . S
C1072 C1077 1.353 . S
C1072 H1078 0.930 . S
N1073 Li1056 1.990 . S
N1073 C1072 1.314 . S
N1073 C1075 1.279 . S
C1074 C1075 1.358 . S
C1074 C1076 1.356 . S
C1074 H1128 0.930 . S
C1075 N1073 1.279 . S
C1075 C1074 1.358 . S
C1075 H1079 0.930 . S
C1076 C1074 1.356 . S
C1076 C1077 1.348 . S
C1077 C1072 1.353 . S
C1077 C1076 1.348 . S
C1077 H1129 0.929 . S
H1078 C1072 0.930 . S
H1079 C1075 0.930 . S
C1080 N1081 1.314 . S
C1080 C1082 1.353 . S
C1080 H1086 0.930 . S
N1081 Li1057 1.990 . S
N1081 C1080 1.314 . S
N1081 C1084 1.279 . S
C1082 C1080 1.353 . S
C1082 C1085 1.348 . S
C1082 H1130 0.929 . S
C1083 C1084 1.358 . S
C1083 C1085 1.356 . S
C1083 H1131 0.930 . S
C1084 N1081 1.279 . S
C1084 C1083 1.358 . S
C1084 H1087 0.930 . S
C1085 C1082 1.348 . S
C1085 C1083 1.356 . S
H1086 C1080 0.930 . S
H1087 C1084 0.930 . S
C1088 C1090 1.348 . S
C1088 C1091 1.356 . S
C1088 O1118 1.325 . S
N1089 C1092 1.314 . S
N1089 C1093 1.279 . S
C1090 C1088 1.348 . S
C1090 C1092 1.353 . S
C1090 H1132 0.929 . S
C1091 C1088 1.356 . S
C1091 C1093 1.358 . S
C1091 H1133 0.930 . S
C1092 N1089 1.314 . S
C1092 C1090 1.353 . S
C1092 H1134 0.930 . S
C1093 N1089 1.279 . S
C1093 C1091 1.358 . S
C1093 H1135 0.930 . S
C1094 C1095 1.348 . S
C1094 C1096 1.356 . S
C1094 O1119 1.325 . S
C1095 C1094 1.348 . S
C1095 C1097 1.353 . S
C1095 H1136 0.929 . S
C1096 C1094 1.356 . S
C1096 C1098 1.358 . S
C1096 H1137 0.930 . S
C1097 C1095 1.353 . S
C1097 N1099 1.314 . S
C1097 H1138 0.930 . S
C1098 C1096 1.358 . S
C1098 N1099 1.279 . S
C1098 H1139 0.930 . S
N1099 C1097 1.314 . S
N1099 C1098 1.279 . S
C1100 C1102 1.353 . S
C1100 N1103 1.314 . S
C1100 H1106 0.930 . S
C1101 N1103 1.279 . S
C1101 C1104 1.358 . S
C1101 H1107 0.930 . S
C1102 C1100 1.353 . S
C1102 C1105 1.348 . S
C1102 H1140 0.929 . S
N1103 Li1058 1.990 . S
N1103 C1100 1.314 . S
N1103 C1101 1.279 . S
C1104 C1101 1.358 . S
C1104 C1105 1.356 . S
C1104 H1141 0.930 . S
C1105 C1102 1.348 . S
C1105 C1104 1.356 . S
H1106 C1100 0.930 . S
H1107 C1101 0.930 . S
C1108 N1109 1.314 . S
C1108 C1110 1.353 . S
C1108 H1114 0.930 . S
N1109 Li1059 1.990 . S
N1109 C1108 1.314 . S
N1109 C1112 1.279 . S
C1110 C1108 1.353 . S
C1110 C1113 1.348 . S
C1110 H1142 0.929 . S
C1111 C1112 1.358 . S
C1111 C1113 1.356 . S
C1111 H1143 0.930 . S
C1112 N1109 1.279 . S
C1112 C1111 1.358 . S
C1112 H1115 0.930 . S
C1113 C1110 1.348 . S
C1113 C1111 1.356 . S
H1114 C1108 0.930 . S
H1115 C1112 0.930 . S
O1116 Li1056 1.956 . S
O1116 Li1057 1.970 . S
O1116 Li1058 1.961 . S
O1116 C1060 1.325 . S
O1117 Li1056 1.970 . S
O1117 Li1057 1.956 . S
O1117 Li1059 1.961 . S
O1117 C1066 1.325 . S
O1118 Li1056 1.961 . S
O1118 Li1058 1.956 . S
O1118 Li1059 1.970 . S
O1118 C1088 1.325 . S
O1119 Li1057 1.961 . S
O1119 Li1058 1.970 . S
O1119 Li1059 1.956 . S
O1119 C1094 1.325 . S
H1120 C1062 0.929 . S
H1121 C1063 0.930 . S
H1122 C1064 0.930 . S
H1123 C1065 0.930 . S
H1124 C1067 0.930 . S
H1125 C1069 0.929 . S
H1126 C1070 0.930 . S
H1127 C1071 0.930 . S
H1128 C1074 0.930 . S
H1129 C1077 0.929 . S
H1130 C1082 0.929 . S
H1131 C1083 0.930 . S
H1132 C1090 0.929 . S
H1133 C1091 0.930 . S
H1134 C1092 0.930 . S
H1135 C1093 0.930 . S
H1136 C1095 0.929 . S
H1137 C1096 0.930 . S
H1138 C1097 0.930 . S
H1139 C1098 0.930 . S
H1140 C1102 0.929 . S
H1141 C1104 0.930 . S
H1142 C1110 0.929 . S
H1143 C1111 0.930 . S
Li1144 N1161 1.990 . S
Li1144 O1204 1.956 1_655 S
Li1144 O1205 1.970 1_655 S
Li1144 O1206 1.961 . S
Li1145 N1169 1.990 . S
Li1145 O1204 1.970 . S
Li1145 O1205 1.956 . S
Li1145 O1207 1.961 . S
Li1146 N1191 1.990 . S
Li1146 O1204 1.961 . S
Li1146 O1206 1.956 1_455 S
Li1146 O1207 1.970 . S
Li1147 N1197 1.990 . S
Li1147 O1205 1.961 . S
Li1147 O1206 1.970 1_455 S
Li1147 O1207 1.956 . S
C1148 C1150 1.348 . S
C1148 C1151 1.356 1_455 S
C1148 O1204 1.325 . S
N1149 C1152 1.314 . S
N1149 C1153 1.279 1_455 S
C1150 C1148 1.348 . S
C1150 C1152 1.353 . S
C1150 H1208 0.929 . S
C1151 C1148 1.356 1_655 S
C1151 C1153 1.358 . S
C1151 H1209 0.930 . S
C1152 N1149 1.314 . S
C1152 C1150 1.353 . S
C1152 H1210 0.930 . S
C1153 N1149 1.279 1_655 S
C1153 C1151 1.358 . S
C1153 H1211 0.930 . S
C1154 C1157 1.359 . S
C1154 C1158 1.356 . S
C1154 O1205 1.325 . S
C1155 N1156 1.279 . S
C1155 C1158 1.358 . S
C1155 H1212 0.930 . S
N1156 C1155 1.279 . S
N1156 C1159 1.314 . S
C1157 C1154 1.359 . S
C1157 C1159 1.355 . S
C1157 H1213 0.917 1_455 S
C1158 C1154 1.356 . S
C1158 C1155 1.358 . S
C1158 H1214 0.930 . S
C1159 N1156 1.314 . S
C1159 C1157 1.355 . S
C1159 H1215 0.930 1_455 S
C1160 N1161 1.314 . S
C1160 C1165 1.353 . S
C1160 H1166 0.930 . S
N1161 Li1144 1.990 . S
N1161 C1160 1.314 . S
N1161 C1163 1.279 . S
C1162 C1163 1.358 . S
C1162 C1164 1.356 . S
C1162 H1216 0.930 . S
C1163 N1161 1.279 . S
C1163 C1162 1.358 . S
C1163 H1167 0.930 . S
C1164 C1162 1.356 . S
C1164 C1165 1.348 . S
C1165 C1160 1.353 . S
C1165 C1164 1.348 . S
C1165 H1217 0.929 . S
H1166 C1160 0.930 . S
H1167 C1163 0.930 . S
C1168 N1169 1.314 . S
C1168 C1170 1.353 . S
C1168 H1174 0.930 . S
N1169 Li1145 1.990 . S
N1169 C1168 1.314 . S
N1169 C1172 1.279 . S
C1170 C1168 1.353 . S
C1170 C1173 1.348 . S
C1170 H1218 0.929 . S
C1171 C1172 1.358 . S
C1171 C1173 1.356 . S
C1171 H1219 0.930 . S
C1172 N1169 1.279 . S
C1172 C1171 1.358 . S
C1172 H1175 0.930 . S
C1173 C1170 1.348 . S
C1173 C1171 1.356 . S
H1174 C1168 0.930 . S
H1175 C1172 0.930 . S
C1176 C1178 1.348 . S
C1176 C1179 1.356 . S
C1176 O1206 1.325 . S
N1177 C1180 1.314 . S
N1177 C1181 1.279 . S
C1178 C1176 1.348 . S
C1178 C1180 1.353 . S
C1178 H1220 0.929 . S
C1179 C1176 1.356 . S
C1179 C1181 1.358 . S
C1179 H1221 0.930 . S
C1180 N1177 1.314 . S
C1180 C1178 1.353 . S
C1180 H1222 0.930 . S
C1181 N1177 1.279 . S
C1181 C1179 1.358 . S
C1181 H1223 0.930 . S
C1182 C1183 1.348 . S
C1182 C1184 1.356 . S
C1182 O1207 1.325 . S
C1183 C1182 1.348 . S
C1183 C1185 1.353 . S
C1183 H1224 0.929 . S
C1184 C1182 1.356 . S
C1184 C1186 1.358 . S
C1184 H1225 0.930 . S
C1185 C1183 1.353 . S
C1185 N1187 1.314 . S
C1185 H1226 0.930 . S
C1186 C1184 1.358 . S
C1186 N1187 1.279 . S
C1186 H1227 0.930 . S
N1187 C1185 1.314 . S
N1187 C1186 1.279 . S
C1188 C1190 1.353 . S
C1188 N1191 1.314 . S
C1188 H1194 0.930 . S
C1189 N1191 1.279 1_655 S
C1189 C1192 1.358 . S
C1189 H1195 0.930 . S
C1190 C1188 1.353 . S
C1190 C1193 1.348 . S
C1190 H1228 0.929 . S
N1191 Li1146 1.990 . S
N1191 C1188 1.314 . S
N1191 C1189 1.279 1_455 S
C1192 C1189 1.358 . S
C1192 C1193 1.356 1_655 S
C1192 H1229 0.930 . S
C1193 C1190 1.348 . S
C1193 C1192 1.356 1_455 S
H1194 C1188 0.930 . S
H1195 C1189 0.930 . S
C1196 N1197 1.314 . S
C1196 C1198 1.356 . S
C1196 H1202 0.930 1_455 S
N1197 Li1147 1.990 . S
N1197 C1196 1.314 . S
N1197 C1200 1.279 . S
C1198 C1196 1.356 . S
C1198 C1201 1.365 . S
C1198 H1230 0.911 1_455 S
C1199 C1200 1.358 . S
C1199 C1201 1.356 . S
C1199 H1231 0.930 . S
C1200 N1197 1.279 . S
C1200 C1199 1.358 . S
C1200 H1203 0.930 . S
C1201 C1198 1.365 . S
C1201 C1199 1.356 . S
H1202 C1196 0.930 1_655 S
H1203 C1200 0.930 . S
O1204 Li1144 1.956 1_455 S
O1204 Li1145 1.970 . S
O1204 Li1146 1.961 . S
O1204 C1148 1.325 . S
O1205 Li1144 1.970 1_455 S
O1205 Li1145 1.956 . S
O1205 Li1147 1.961 . S
O1205 C1154 1.325 . S
O1206 Li1144 1.961 . S
O1206 Li1146 1.956 1_655 S
O1206 Li1147 1.970 1_655 S
O1206 C1176 1.325 . S
O1207 Li1145 1.961 . S
O1207 Li1146 1.970 . S
O1207 Li1147 1.956 . S
O1207 C1182 1.325 . S
H1208 C1150 0.929 . S
H1209 C1151 0.930 . S
H1210 C1152 0.930 . S
H1211 C1153 0.930 . S
H1212 C1155 0.930 . S
H1213 C1157 0.917 1_655 S
H1214 C1158 0.930 . S
H1215 C1159 0.930 1_655 S
H1216 C1162 0.930 . S
H1217 C1165 0.929 . S
H1218 C1170 0.929 . S
H1219 C1171 0.930 . S
H1220 C1178 0.929 . S
H1221 C1179 0.930 . S
H1222 C1180 0.930 . S
H1223 C1181 0.930 . S
H1224 C1183 0.929 . S
H1225 C1184 0.930 . S
H1226 C1185 0.930 . S
H1227 C1186 0.930 . S
H1228 C1190 0.929 . S
H1229 C1192 0.930 . S
H1230 C1198 0.911 1_655 S
H1231 C1199 0.930 . S
Li1232 N1249 1.990 . S
Li1232 O1292 1.956 . S
Li1232 O1293 1.970 . S
Li1232 O1294 1.961 . S
Li1233 N1257 1.990 . S
Li1233 O1292 1.970 . S
Li1233 O1293 1.956 . S
Li1233 O1295 1.961 . S
Li1234 N1279 1.990 . S
Li1234 O1292 1.961 . S
Li1234 O1294 1.956 . S
Li1234 O1295 1.970 . S
Li1235 N1285 1.990 . S
Li1235 O1293 1.961 . S
Li1235 O1294 1.970 . S
Li1235 O1295 1.956 . S
C1236 C1238 1.348 . S
C1236 C1239 1.356 . S
C1236 O1292 1.325 . S
N1237 C1240 1.314 . S
N1237 C1241 1.279 . S
C1238 C1236 1.348 . S
C1238 C1240 1.353 . S
C1238 H1296 0.929 . S
C1239 C1236 1.356 . S
C1239 C1241 1.358 . S
C1239 H1297 0.930 . S
C1240 N1237 1.314 . S
C1240 C1238 1.353 . S
C1240 H1298 0.930 . S
C1241 N1237 1.279 . S
C1241 C1239 1.358 . S
C1241 H1299 0.930 . S
C1242 C1245 1.348 . S
C1242 C1246 1.356 . S
C1242 O1293 1.325 . S
C1243 N1244 1.279 . S
C1243 C1246 1.358 . S
C1243 H1300 0.930 . S
N1244 C1243 1.279 . S
N1244 C1247 1.314 . S
C1245 C1242 1.348 . S
C1245 C1247 1.353 . S
C1245 H1301 0.929 . S
C1246 C1242 1.356 . S
C1246 C1243 1.358 . S
C1246 H1302 0.930 . S
C1247 N1244 1.314 . S
C1247 C1245 1.353 . S
C1247 H1303 0.930 . S
C1248 N1249 1.314 . S
C1248 C1253 1.353 . S
C1248 H1254 0.930 . S
N1249 Li1232 1.990 . S
N1249 C1248 1.314 . S
N1249 C1251 1.279 . S
C1250 C1251 1.358 . S
C1250 C1252 1.356 . S
C1250 H1304 0.930 . S
C1251 N1249 1.279 . S
C1251 C1250 1.358 . S
C1251 H1255 0.930 . S
C1252 C1250 1.356 . S
C1252 C1253 1.348 . S
C1253 C1248 1.353 . S
C1253 C1252 1.348 . S
C1253 H1305 0.929 . S
H1254 C1248 0.930 . S
H1255 C1251 0.930 . S
C1256 N1257 1.314 . S
C1256 C1258 1.353 . S
C1256 H1262 0.930 . S
N1257 Li1233 1.990 . S
N1257 C1256 1.314 . S
N1257 C1260 1.279 . S
C1258 C1256 1.353 . S
C1258 C1261 1.348 . S
C1258 H1306 0.929 . S
C1259 C1260 1.358 . S
C1259 C1261 1.356 . S
C1259 H1307 0.930 . S
C1260 N1257 1.279 . S
C1260 C1259 1.358 . S
C1260 H1263 0.930 . S
C1261 C1258 1.348 . S
C1261 C1259 1.356 . S
H1262 C1256 0.930 . S
H1263 C1260 0.930 . S
C1264 C1266 1.348 . S
C1264 C1267 1.356 . S
C1264 O1294 1.325 . S
N1265 C1268 1.314 . S
N1265 C1269 1.279 . S
C1266 C1264 1.348 . S
C1266 C1268 1.353 . S
C1266 H1308 0.929 . S
C1267 C1264 1.356 . S
C1267 C1269 1.358 . S
C1267 H1309 0.930 . S
C1268 N1265 1.314 . S
C1268 C1266 1.353 . S
C1268 H1310 0.930 . S
C1269 N1265 1.279 . S
C1269 C1267 1.358 . S
C1269 H1311 0.930 . S
C1270 C1271 1.348 . S
C1270 C1272 1.356 . S
C1270 O1295 1.325 . S
C1271 C1270 1.348 . S
C1271 C1273 1.353 . S
C1271 H1312 0.929 . S
C1272 C1270 1.356 . S
C1272 C1274 1.358 . S
C1272 H1313 0.930 . S
C1273 C1271 1.353 . S
C1273 N1275 1.314 . S
C1273 H1314 0.930 . S
C1274 C1272 1.358 . S
C1274 N1275 1.279 . S
C1274 H1315 0.930 . S
N1275 C1273 1.314 . S
N1275 C1274 1.279 . S
C1276 C1278 1.353 . S
C1276 N1279 1.314 . S
C1276 H1282 0.930 . S
C1277 N1279 1.279 . S
C1277 C1280 1.358 . S
C1277 H1283 0.930 . S
C1278 C1276 1.353 . S
C1278 C1281 1.348 . S
C1278 H1316 0.929 . S
N1279 Li1234 1.990 . S
N1279 C1276 1.314 . S
N1279 C1277 1.279 . S
C1280 C1277 1.358 . S
C1280 C1281 1.356 . S
C1280 H1317 0.930 . S
C1281 C1278 1.348 . S
C1281 C1280 1.356 . S
H1282 C1276 0.930 . S
H1283 C1277 0.930 . S
C1284 N1285 1.314 . S
C1284 C1286 1.353 . S
C1284 H1290 0.930 . S
N1285 Li1235 1.990 . S
N1285 C1284 1.314 . S
N1285 C1288 1.279 . S
C1286 C1284 1.353 . S
C1286 C1289 1.348 . S
C1286 H1318 0.929 . S
C1287 C1288 1.358 . S
C1287 C1289 1.356 . S
C1287 H1319 0.930 . S
C1288 N1285 1.279 . S
C1288 C1287 1.358 . S
C1288 H1291 0.930 . S
C1289 C1286 1.348 . S
C1289 C1287 1.356 . S
H1290 C1284 0.930 . S
H1291 C1288 0.930 . S
O1292 Li1232 1.956 . S
O1292 Li1233 1.970 . S
O1292 Li1234 1.961 . S
O1292 C1236 1.325 . S
O1293 Li1232 1.970 . S
O1293 Li1233 1.956 . S
O1293 Li1235 1.961 . S
O1293 C1242 1.325 . S
O1294 Li1232 1.961 . S
O1294 Li1234 1.956 . S
O1294 Li1235 1.970 . S
O1294 C1264 1.325 . S
O1295 Li1233 1.961 . S
O1295 Li1234 1.970 . S
O1295 Li1235 1.956 . S
O1295 C1270 1.325 . S
H1296 C1238 0.929 . S
H1297 C1239 0.930 . S
H1298 C1240 0.930 . S
H1299 C1241 0.930 . S
H1300 C1243 0.930 . S
H1301 C1245 0.929 . S
H1302 C1246 0.930 . S
H1303 C1247 0.930 . S
H1304 C1250 0.930 . S
H1305 C1253 0.929 . S
H1306 C1258 0.929 . S
H1307 C1259 0.930 . S
H1308 C1266 0.929 . S
H1309 C1267 0.930 . S
H1310 C1268 0.930 . S
H1311 C1269 0.930 . S
H1312 C1271 0.929 . S
H1313 C1272 0.930 . S
H1314 C1273 0.930 . S
H1315 C1274 0.930 . S
H1316 C1278 0.929 . S
H1317 C1280 0.930 . S
H1318 C1286 0.929 . S
H1319 C1287 0.930 . S
Li1320 N1337 1.990 . S
Li1320 O1380 1.956 . S
Li1320 O1381 1.970 1_455 S
Li1320 O1382 1.961 . S
Li1321 N1345 1.990 . S
Li1321 O1380 1.970 . S
Li1321 O1381 1.956 1_455 S
Li1321 O1383 1.961 . S
Li1322 N1367 1.990 . S
Li1322 O1380 1.961 . S
Li1322 O1382 1.956 . S
Li1322 O1383 1.970 . S
Li1323 N1373 1.990 . S
Li1323 O1381 1.961 . S
Li1323 O1382 1.970 1_655 S
Li1323 O1383 1.956 1_655 S
C1324 C1326 1.348 . S
C1324 C1327 1.356 . S
C1324 O1380 1.325 . S
N1325 C1328 1.314 . S
N1325 C1329 1.279 . S
C1326 C1324 1.348 . S
C1326 C1328 1.353 . S
C1326 H1384 0.929 . S
C1327 C1324 1.356 . S
C1327 C1329 1.358 . S
C1327 H1385 0.930 . S
C1328 N1325 1.314 . S
C1328 C1326 1.353 . S
C1328 H1386 0.930 . S
C1329 N1325 1.279 . S
C1329 C1327 1.358 . S
C1329 H1387 0.930 . S
C1330 C1333 1.348 . S
C1330 C1334 1.356 . S
C1330 O1381 1.325 . S
C1331 N1332 1.279 . S
C1331 C1334 1.358 . S
C1331 H1388 0.930 . S
N1332 C1331 1.279 . S
N1332 C1335 1.314 . S
C1333 C1330 1.348 . S
C1333 C1335 1.353 . S
C1333 H1389 0.929 . S
C1334 C1330 1.356 . S
C1334 C1331 1.358 . S
C1334 H1390 0.930 . S
C1335 N1332 1.314 . S
C1335 C1333 1.353 . S
C1335 H1391 0.930 . S
C1336 N1337 1.314 . S
C1336 C1341 1.356 . S
C1336 H1342 0.930 1_455 S
N1337 Li1320 1.990 . S
N1337 C1336 1.314 . S
N1337 C1339 1.279 . S
C1338 C1339 1.358 . S
C1338 C1340 1.356 . S
C1338 H1392 0.930 . S
C1339 N1337 1.279 . S
C1339 C1338 1.358 . S
C1339 H1343 0.930 . S
C1340 C1338 1.356 . S
C1340 C1341 1.365 . S
C1341 C1336 1.356 . S
C1341 C1340 1.365 . S
C1341 H1393 0.911 1_455 S
H1342 C1336 0.930 1_655 S
H1343 C1339 0.930 . S
C1344 N1345 1.314 . S
C1344 C1346 1.353 . S
C1344 H1350 0.930 . S
N1345 Li1321 1.990 . S
N1345 C1344 1.314 . S
N1345 C1348 1.279 1_455 S
C1346 C1344 1.353 . S
C1346 C1349 1.348 . S
C1346 H1394 0.929 . S
C1347 C1348 1.358 . S
C1347 C1349 1.356 1_655 S
C1347 H1395 0.930 . S
C1348 N1345 1.279 1_655 S
C1348 C1347 1.358 . S
C1348 H1351 0.930 . S
C1349 C1346 1.348 . S
C1349 C1347 1.356 1_455 S
H1350 C1344 0.930 . S
H1351 C1348 0.930 . S
C1352 C1354 1.359 . S
C1352 C1355 1.356 . S
C1352 O1382 1.325 . S
N1353 C1356 1.314 . S
N1353 C1357 1.279 . S
C1354 C1352 1.359 . S
C1354 C1356 1.355 . S
C1354 H1396 0.917 1_455 S
C1355 C1352 1.356 . S
C1355 C1357 1.358 . S
C1355 H1397 0.930 . S
C1356 N1353 1.314 . S
C1356 C1354 1.355 . S
C1356 H1398 0.930 1_455 S
C1357 N1353 1.279 . S
C1357 C1355 1.358 . S
C1357 H1399 0.930 . S
C1358 C1359 1.348 . S
C1358 C1360 1.356 1_455 S
C1358 O1383 1.325 . S
C1359 C1358 1.348 . S
C1359 C1361 1.353 . S
C1359 H1400 0.929 . S
C1360 C1358 1.356 1_655 S
C1360 C1362 1.358 . S
C1360 H1401 0.930 . S
C1361 C1359 1.353 . S
C1361 N1363 1.314 . S
C1361 H1402 0.930 . S
C1362 C1360 1.358 . S
C1362 N1363 1.279 1_655 S
C1362 H1403 0.930 . S
N1363 C1361 1.314 . S
N1363 C1362 1.279 1_455 S
C1364 C1366 1.353 . S
C1364 N1367 1.314 . S
C1364 H1370 0.930 . S
C1365 N1367 1.279 . S
C1365 C1368 1.358 . S
C1365 H1371 0.930 . S
C1366 C1364 1.353 . S
C1366 C1369 1.348 . S
C1366 H1404 0.929 . S
N1367 Li1322 1.990 . S
N1367 C1364 1.314 . S
N1367 C1365 1.279 . S
C1368 C1365 1.358 . S
C1368 C1369 1.356 . S
C1368 H1405 0.930 . S
C1369 C1366 1.348 . S
C1369 C1368 1.356 . S
H1370 C1364 0.930 . S
H1371 C1365 0.930 . S
C1372 N1373 1.314 . S
C1372 C1374 1.353 . S
C1372 H1378 0.930 . S
N1373 Li1323 1.990 . S
N1373 C1372 1.314 . S
N1373 C1376 1.279 . S
C1374 C1372 1.353 . S
C1374 C1377 1.348 . S
C1374 H1406 0.929 . S
C1375 C1376 1.358 . S
C1375 C1377 1.356 . S
C1375 H1407 0.930 . S
C1376 N1373 1.279 . S
C1376 C1375 1.358 . S
C1376 H1379 0.930 . S
C1377 C1374 1.348 . S
C1377 C1375 1.356 . S
H1378 C1372 0.930 . S
H1379 C1376 0.930 . S
O1380 Li1320 1.956 . S
O1380 Li1321 1.970 . S
O1380 Li1322 1.961 . S
O1380 C1324 1.325 . S
O1381 Li1320 1.970 1_655 S
O1381 Li1321 1.956 1_655 S
O1381 Li1323 1.961 . S
O1381 C1330 1.325 . S
O1382 Li1320 1.961 . S
O1382 Li1322 1.956 . S
O1382 Li1323 1.970 1_455 S
O1382 C1352 1.325 . S
O1383 Li1321 1.961 . S
O1383 Li1322 1.970 . S
O1383 Li1323 1.956 1_455 S
O1383 C1358 1.325 . S
H1384 C1326 0.929 . S
H1385 C1327 0.930 . S
H1386 C1328 0.930 . S
H1387 C1329 0.930 . S
H1388 C1331 0.930 . S
H1389 C1333 0.929 . S
H1390 C1334 0.930 . S
H1391 C1335 0.930 . S
H1392 C1338 0.930 . S
H1393 C1341 0.911 1_655 S
H1394 C1346 0.929 . S
H1395 C1347 0.930 . S
H1396 C1354 0.917 1_655 S
H1397 C1355 0.930 . S
H1398 C1356 0.930 1_655 S
H1399 C1357 0.930 . S
H1400 C1359 0.929 . S
H1401 C1360 0.930 . S
H1402 C1361 0.930 . S
H1403 C1362 0.930 . S
H1404 C1366 0.929 . S
H1405 C1368 0.930 . S
H1406 C1374 0.929 . S
H1407 C1375 0.930 . S
H1408 C1416 0.929 . S
H1409 C1418 0.930 . S
H1410 C1420 0.930 . S
H1411 C1423 0.929 . S
H1412 C1426 0.930 . S
H1413 C1428 0.960 . S
H1414 C1428 0.960 . S
H1415 C1428 0.960 . S
C1416 H1408 0.929 . S
C1416 C1417 1.377 . S
C1416 C1418 1.384 . S
C1417 C1416 1.377 . S
C1417 C1423 1.390 1_455 S
C1418 H1409 0.930 . S
C1418 C1416 1.384 . S
C1418 C1419 1.372 . S
C1419 C1418 1.372 . S
C1419 C1420 1.400 1_455 S
C1419 C1424 1.490 . S
C1420 H1410 0.930 . S
C1420 C1419 1.400 1_655 S
C1420 C1423 1.386 . S
H1421 C1437 0.930 . S
H1422 C1438 0.931 . S
C1423 H1411 0.929 . S
C1423 C1417 1.390 1_655 S
C1423 C1420 1.386 . S
C1424 C1419 1.490 . S
C1424 C1426 1.395 . S
C1424 C1427 1.403 . S
H1425 C1431 0.930 . S
C1426 H1412 0.930 . S
C1426 C1424 1.395 . S
C1426 C1429 1.403 . S
C1427 C1424 1.403 . S
C1427 C1428 1.524 . S
C1427 C1431 1.400 . S
C1428 H1413 0.960 . S
C1428 H1414 0.960 . S
C1428 H1415 0.960 . S
C1428 C1427 1.524 . S
C1429 C1426 1.403 . S
C1429 C1430 1.392 . S
C1429 C1433 1.495 . S
C1430 C1429 1.392 . S
C1430 C1431 1.385 . S
C1430 C1432 1.478 . S
C1431 H1425 0.930 . S
C1431 C1427 1.400 . S
C1431 C1430 1.385 . S
C1432 C1430 1.478 . S
C1432 C1434 1.381 . S
C1432 C1438 1.383 1_455 S
C1433 C1429 1.495 . S
C1433 H1439 0.959 . S
C1433 H1440 0.961 1_455 S
C1433 H1441 0.960 . S
C1434 C1432 1.381 . S
C1434 C1435 1.394 . S
C1434 H1442 0.930 . S
C1435 C1434 1.394 . S
C1435 C1436 1.383 . S
C1435 H1443 0.929 . S
C1436 C1435 1.383 . S
C1436 C1437 1.377 1_455 S
C1437 H1421 0.930 . S
C1437 C1436 1.377 1_655 S
C1437 C1438 1.379 . S
C1438 H1422 0.931 . S
C1438 C1432 1.383 1_655 S
C1438 C1437 1.379 . S
H1439 C1433 0.959 . S
H1440 C1433 0.961 1_655 S
H1441 C1433 0.960 . S
H1442 C1434 0.930 . S
H1443 C1435 0.929 . S
H1444 C1452 0.929 . S
H1445 C1454 0.930 . S
H1446 C1456 0.930 . S
H1447 C1459 0.929 . S
H1448 C1462 0.930 . S
H1449 C1464 0.960 1_455 S
H1450 C1464 0.960 . S
H1451 C1464 0.960 . S
C1452 H1444 0.929 . S
C1452 C1453 1.377 . S
C1452 C1454 1.384 . S
C1453 C1452 1.377 . S
C1453 C1459 1.390 . S
C1454 H1445 0.930 . S
C1454 C1452 1.384 . S
C1454 C1455 1.372 . S
C1455 C1454 1.372 . S
C1455 C1456 1.400 . S
C1455 C1460 1.490 . S
C1456 H1446 0.930 . S
C1456 C1455 1.400 . S
C1456 C1459 1.386 . S
H1457 C1473 0.930 . S
H1458 C1474 0.931 . S
C1459 H1447 0.929 . S
C1459 C1453 1.390 . S
C1459 C1456 1.386 . S
C1460 C1455 1.490 . S
C1460 C1462 1.395 . S
C1460 C1463 1.401 1_655 S
H1461 C1467 0.930 . S
C1462 H1448 0.930 . S
C1462 C1460 1.395 . S
C1462 C1465 1.403 1_655 S
C1463 C1460 1.401 1_455 S
C1463 C1464 1.522 1_455 S
C1463 C1467 1.404 . S
C1464 H1449 0.960 1_655 S
C1464 H1450 0.960 . S
C1464 H1451 0.960 . S
C1464 C1463 1.522 1_655 S
C1465 C1462 1.403 1_455 S
C1465 C1466 1.392 . S
C1465 C1469 1.495 . S
C1466 C1465 1.392 . S
C1466 C1467 1.385 . S
C1466 C1468 1.478 . S
C1467 H1461 0.930 . S
C1467 C1463 1.404 . S
C1467 C1466 1.385 . S
C1468 C1466 1.478 . S
C1468 C1470 1.381 . S
C1468 C1474 1.383 . S
C1469 C1465 1.495 . S
C1469 H1475 0.959 . S
C1469 H1476 0.961 . S
C1469 H1477 0.960 . S
C1470 C1468 1.381 . S
C1470 C1471 1.394 . S
C1470 H1478 0.930 . S
C1471 C1470 1.394 . S
C1471 C1472 1.383 . S
C1471 H1479 0.929 . S
C1472 C1471 1.383 . S
C1472 C1473 1.377 . S
C1473 H1457 0.930 . S
C1473 C1472 1.377 . S
C1473 C1474 1.379 . S
C1474 H1458 0.931 . S
C1474 C1468 1.383 . S
C1474 C1473 1.379 . S
H1475 C1469 0.959 . S
H1476 C1469 0.961 . S
H1477 C1469 0.960 . S
H1478 C1470 0.930 . S
H1479 C1471 0.929 . S
H1480 C1488 0.929 . S
H1481 C1490 0.930 . S
H1482 C1492 0.930 . S
H1483 C1495 0.929 . S
H1484 C1498 0.930 . S
H1485 C1500 0.960 . S
H1486 C1500 0.960 . S
H1487 C1500 0.960 . S
C1488 H1480 0.929 . S
C1488 C1489 1.377 . S
C1488 C1490 1.384 . S
C1489 C1488 1.377 . S
C1489 C1495 1.390 . S
C1490 H1481 0.930 . S
C1490 C1488 1.384 . S
C1490 C1491 1.372 . S
C1491 C1490 1.372 . S
C1491 C1492 1.400 . S
C1491 C1496 1.490 . S
C1492 H1482 0.930 . S
C1492 C1491 1.400 . S
C1492 C1495 1.386 . S
H1493 C1509 0.930 . S
H1494 C1510 0.931 . S
C1495 H1483 0.929 . S
C1495 C1489 1.390 . S
C1495 C1492 1.386 . S
C1496 C1491 1.490 . S
C1496 C1498 1.395 . S
C1496 C1499 1.403 . S
H1497 C1503 0.930 . S
C1498 H1484 0.930 . S
C1498 C1496 1.395 . S
C1498 C1501 1.403 . S
C1499 C1496 1.403 . S
C1499 C1500 1.524 . S
C1499 C1503 1.400 . S
C1500 H1485 0.960 . S
C1500 H1486 0.960 . S
C1500 H1487 0.960 . S
C1500 C1499 1.524 . S
C1501 C1498 1.403 . S
C1501 C1502 1.392 . S
C1501 C1505 1.495 . S
C1502 C1501 1.392 . S
C1502 C1503 1.385 . S
C1502 C1504 1.478 . S
C1503 H1497 0.930 . S
C1503 C1499 1.400 . S
C1503 C1502 1.385 . S
C1504 C1502 1.478 . S
C1504 C1506 1.381 . S
C1504 C1510 1.383 . S
C1505 C1501 1.495 . S
C1505 H1511 0.959 . S
C1505 H1512 0.961 . S
C1505 H1513 0.960 . S
C1506 C1504 1.381 . S
C1506 C1507 1.394 . S
C1506 H1514 0.930 . S
C1507 C1506 1.394 . S
C1507 C1508 1.383 . S
C1507 H1515 0.929 . S
C1508 C1507 1.383 . S
C1508 C1509 1.377 . S
C1509 H1493 0.930 . S
C1509 C1508 1.377 . S
C1509 C1510 1.379 . S
C1510 H1494 0.931 . S
C1510 C1504 1.383 . S
C1510 C1509 1.379 . S
H1511 C1505 0.959 . S
H1512 C1505 0.961 . S
H1513 C1505 0.960 . S
H1514 C1506 0.930 . S
H1515 C1507 0.929 . S
H1516 C1524 0.929 . S
H1517 C1526 0.930 . S
H1518 C1528 0.930 . S
H1519 C1531 0.929 . S
H1520 C1534 0.930 . S
H1521 C1536 0.960 . S
H1522 C1536 0.960 . S
H1523 C1536 0.960 . S
C1524 H1516 0.929 . S
C1524 C1525 1.377 . S
C1524 C1526 1.384 . S
C1525 C1524 1.377 . S
C1525 C1531 1.390 . S
C1526 H1517 0.930 . S
C1526 C1524 1.384 . S
C1526 C1527 1.372 . S
C1527 C1526 1.372 . S
C1527 C1528 1.400 . S
C1527 C1532 1.490 . S
C1528 H1518 0.930 . S
C1528 C1527 1.400 . S
C1528 C1531 1.386 . S
H1529 C1545 0.930 . S
H1530 C1546 0.931 . S
C1531 H1519 0.929 . S
C1531 C1525 1.390 . S
C1531 C1528 1.386 . S
C1532 C1527 1.490 . S
C1532 C1534 1.395 . S
C1532 C1535 1.403 . S
H1533 C1539 0.930 . S
C1534 H1520 0.930 . S
C1534 C1532 1.395 . S
C1534 C1537 1.403 . S
C1535 C1532 1.403 . S
C1535 C1536 1.524 . S
C1535 C1539 1.400 . S
C1536 H1521 0.960 . S
C1536 H1522 0.960 . S
C1536 H1523 0.960 . S
C1536 C1535 1.524 . S
C1537 C1534 1.403 . S
C1537 C1538 1.392 . S
C1537 C1541 1.495 . S
C1538 C1537 1.392 . S
C1538 C1539 1.385 . S
C1538 C1540 1.478 . S
C1539 H1533 0.930 . S
C1539 C1535 1.400 . S
C1539 C1538 1.385 . S
C1540 C1538 1.478 . S
C1540 C1542 1.381 . S
C1540 C1546 1.383 . S
C1541 C1537 1.495 . S
C1541 H1547 0.959 . S
C1541 H1548 0.961 . S
C1541 H1549 0.960 . S
C1542 C1540 1.381 . S
C1542 C1543 1.394 . S
C1542 H1550 0.930 . S
C1543 C1542 1.394 . S
C1543 C1544 1.383 . S
C1543 H1551 0.929 . S
C1544 C1543 1.383 . S
C1544 C1545 1.377 . S
C1545 H1529 0.930 . S
C1545 C1544 1.377 . S
C1545 C1546 1.379 . S
C1546 H1530 0.931 . S
C1546 C1540 1.383 . S
C1546 C1545 1.379 . S
H1547 C1541 0.959 . S
H1548 C1541 0.961 . S
H1549 C1541 0.960 . S
H1550 C1542 0.930 . S
H1551 C1543 0.929 . S
H1552 C1560 0.929 . S
H1553 C1562 0.930 . S
H1554 C1564 0.930 . S
H1555 C1567 0.929 . S
H1556 C1570 0.930 . S
H1557 C1572 0.960 . S
H1558 C1572 0.960 . S
H1559 C1572 0.960 . S
C1560 H1552 0.929 . S
C1560 C1561 1.377 1_655 S
C1560 C1562 1.384 . S
C1561 C1560 1.377 1_455 S
C1561 C1567 1.390 . S
C1562 H1553 0.930 . S
C1562 C1560 1.384 . S
C1562 C1563 1.372 1_655 S
C1563 C1562 1.372 1_455 S
C1563 C1564 1.400 . S
C1563 C1568 1.490 . S
C1564 H1554 0.930 . S
C1564 C1563 1.400 . S
C1564 C1567 1.386 . S
H1565 C1581 0.930 . S
H1566 C1582 0.931 . S
C1567 H1555 0.929 . S
C1567 C1561 1.390 . S
C1567 C1564 1.386 . S
C1568 C1563 1.490 . S
C1568 C1570 1.395 1_455 S
C1568 C1571 1.403 . S
H1569 C1575 0.930 . S
C1570 H1556 0.930 . S
C1570 C1568 1.395 1_655 S
C1570 C1573 1.403 . S
C1571 C1568 1.403 . S
C1571 C1572 1.524 . S
C1571 C1575 1.400 . S
C1572 H1557 0.960 . S
C1572 H1558 0.960 . S
C1572 H1559 0.960 . S
C1572 C1571 1.524 . S
C1573 C1570 1.403 . S
C1573 C1574 1.392 1_655 S
C1573 C1577 1.495 . S
C1574 C1573 1.392 1_455 S
C1574 C1575 1.385 . S
C1574 C1576 1.478 . S
C1575 H1569 0.930 . S
C1575 C1571 1.400 . S
C1575 C1574 1.385 . S
C1576 C1574 1.478 . S
C1576 C1578 1.381 1_455 S
C1576 C1582 1.383 . S
C1577 C1573 1.495 . S
C1577 H1583 0.959 . S
C1577 H1584 0.961 . S
C1577 H1585 0.960 . S
C1578 C1576 1.381 1_655 S
C1578 C1579 1.394 . S
C1578 H1586 0.930 . S
C1579 C1578 1.394 . S
C1579 C1580 1.383 1_655 S
C1579 H1587 0.929 . S
C1580 C1579 1.383 1_455 S
C1580 C1581 1.377 . S
C1581 H1565 0.930 . S
C1581 C1580 1.377 . S
C1581 C1582 1.379 . S
C1582 H1566 0.931 . S
C1582 C1576 1.383 . S
C1582 C1581 1.379 . S
H1583 C1577 0.959 . S
H1584 C1577 0.961 . S
H1585 C1577 0.960 . S
H1586 C1578 0.930 . S
H1587 C1579 0.929 . S
H1588 C1596 0.929 . S
H1589 C1598 0.930 . S
H1590 C1600 0.930 . S
H1591 C1603 0.929 . S
H1592 C1606 0.930 . S
H1593 C1608 0.960 . S
H1594 C1608 0.960 . S
H1595 C1608 0.960 . S
C1596 H1588 0.929 . S
C1596 C1597 1.377 . S
C1596 C1598 1.384 . S
C1597 C1596 1.377 . S
C1597 C1603 1.390 . S
C1598 H1589 0.930 . S
C1598 C1596 1.384 . S
C1598 C1599 1.372 . S
C1599 C1598 1.372 . S
C1599 C1600 1.400 . S
C1599 C1604 1.490 . S
C1600 H1590 0.930 . S
C1600 C1599 1.400 . S
C1600 C1603 1.386 . S
H1601 C1617 0.930 . S
H1602 C1618 0.931 . S
C1603 H1591 0.929 . S
C1603 C1597 1.390 . S
C1603 C1600 1.386 . S
C1604 C1599 1.490 . S
C1604 C1606 1.395 . S
C1604 C1607 1.403 . S
H1605 C1611 0.930 . S
C1606 H1592 0.930 . S
C1606 C1604 1.395 . S
C1606 C1609 1.403 . S
C1607 C1604 1.403 . S
C1607 C1608 1.524 . S
C1607 C1611 1.400 . S
C1608 H1593 0.960 . S
C1608 H1594 0.960 . S
C1608 H1595 0.960 . S
C1608 C1607 1.524 . S
C1609 C1606 1.403 . S
C1609 C1610 1.392 . S
C1609 C1613 1.495 . S
C1610 C1609 1.392 . S
C1610 C1611 1.385 . S
C1610 C1612 1.478 . S
C1611 H1605 0.930 . S
C1611 C1607 1.400 . S
C1611 C1610 1.385 . S
C1612 C1610 1.478 . S
C1612 C1614 1.381 . S
C1612 C1618 1.383 . S
C1613 C1609 1.495 . S
C1613 H1619 0.959 . S
C1613 H1620 0.961 . S
C1613 H1621 0.960 . S
C1614 C1612 1.381 . S
C1614 C1615 1.394 . S
C1614 H1622 0.930 . S
C1615 C1614 1.394 . S
C1615 C1616 1.383 . S
C1615 H1623 0.929 . S
C1616 C1615 1.383 . S
C1616 C1617 1.377 . S
C1617 H1601 0.930 . S
C1617 C1616 1.377 . S
C1617 C1618 1.379 . S
C1618 H1602 0.931 . S
C1618 C1612 1.383 . S
C1618 C1617 1.379 . S
H1619 C1613 0.959 . S
H1620 C1613 0.961 . S
H1621 C1613 0.960 . S
H1622 C1614 0.930 . S
H1623 C1615 0.929 . S
H1624 C1632 0.929 . S
H1625 C1634 0.930 . S
H1626 C1636 0.930 . S
H1627 C1639 0.929 . S
H1628 C1642 0.930 . S
H1629 C1644 0.960 . S
H1630 C1644 0.960 . S
H1631 C1644 0.960 . S
C1632 H1624 0.929 . S
C1632 C1633 1.377 . S
C1632 C1634 1.384 . S
C1633 C1632 1.377 . S
C1633 C1639 1.390 . S
C1634 H1625 0.930 . S
C1634 C1632 1.384 . S
C1634 C1635 1.372 . S
C1635 C1634 1.372 . S
C1635 C1636 1.400 . S
C1635 C1640 1.490 . S
C1636 H1626 0.930 . S
C1636 C1635 1.400 . S
C1636 C1639 1.386 . S
H1637 C1653 0.930 . S
H1638 C1654 0.931 . S
C1639 H1627 0.929 . S
C1639 C1633 1.390 . S
C1639 C1636 1.386 . S
C1640 C1635 1.490 . S
C1640 C1642 1.395 . S
C1640 C1643 1.403 . S
H1641 C1647 0.930 . S
C1642 H1628 0.930 . S
C1642 C1640 1.395 . S
C1642 C1645 1.403 . S
C1643 C1640 1.403 . S
C1643 C1644 1.524 . S
C1643 C1647 1.400 . S
C1644 H1629 0.960 . S
C1644 H1630 0.960 . S
C1644 H1631 0.960 . S
C1644 C1643 1.524 . S
C1645 C1642 1.403 . S
C1645 C1646 1.392 . S
C1645 C1649 1.495 . S
C1646 C1645 1.392 . S
C1646 C1647 1.385 . S
C1646 C1648 1.478 . S
C1647 H1641 0.930 . S
C1647 C1643 1.400 . S
C1647 C1646 1.385 . S
C1648 C1646 1.478 . S
C1648 C1650 1.381 . S
C1648 C1654 1.383 . S
C1649 C1645 1.495 . S
C1649 H1655 0.959 . S
C1649 H1656 0.961 . S
C1649 H1657 0.960 . S
C1650 C1648 1.381 . S
C1650 C1651 1.394 . S
C1650 H1658 0.930 . S
C1651 C1650 1.394 . S
C1651 C1652 1.383 . S
C1651 H1659 0.929 . S
C1652 C1651 1.383 . S
C1652 C1653 1.377 . S
C1653 H1637 0.930 . S
C1653 C1652 1.377 . S
C1653 C1654 1.379 . S
C1654 H1638 0.931 . S
C1654 C1648 1.383 . S
C1654 C1653 1.379 . S
H1655 C1649 0.959 . S
H1656 C1649 0.961 . S
H1657 C1649 0.960 . S
H1658 C1650 0.930 . S
H1659 C1651 0.929 . S
H1660 C1668 0.929 . S
H1661 C1670 0.930 . S
H1662 C1672 0.930 . S
H1663 C1675 0.929 . S
H1664 C1678 0.930 . S
H1665 C1680 0.960 . S
H1666 C1680 0.960 . S
H1667 C1680 0.960 . S
C1668 H1660 0.929 . S
C1668 C1669 1.377 . S
C1668 C1670 1.384 . S
C1669 C1668 1.377 . S
C1669 C1675 1.390 . S
C1670 H1661 0.930 . S
C1670 C1668 1.384 . S
C1670 C1671 1.372 . S
C1671 C1670 1.372 . S
C1671 C1672 1.400 . S
C1671 C1676 1.490 . S
C1672 H1662 0.930 . S
C1672 C1671 1.400 . S
C1672 C1675 1.386 . S
H1673 C1689 0.930 . S
H1674 C1690 0.931 . S
C1675 H1663 0.929 . S
C1675 C1669 1.390 . S
C1675 C1672 1.386 . S
C1676 C1671 1.490 . S
C1676 C1678 1.395 . S
C1676 C1679 1.403 . S
H1677 C1683 0.930 . S
C1678 H1664 0.930 . S
C1678 C1676 1.395 . S
C1678 C1681 1.403 1_455 S
C1679 C1676 1.403 . S
C1679 C1680 1.524 . S
C1679 C1683 1.400 1_455 S
C1680 H1665 0.960 . S
C1680 H1666 0.960 . S
C1680 H1667 0.960 . S
C1680 C1679 1.524 . S
C1681 C1678 1.403 1_655 S
C1681 C1682 1.392 . S
C1681 C1685 1.495 . S
C1682 C1681 1.392 . S
C1682 C1683 1.385 . S
C1682 C1684 1.478 . S
C1683 H1677 0.930 . S
C1683 C1679 1.400 1_655 S
C1683 C1682 1.385 . S
C1684 C1682 1.478 . S
C1684 C1686 1.381 . S
C1684 C1690 1.383 . S
C1685 C1681 1.495 . S
C1685 H1691 0.989 . S
C1685 H1692 0.961 . S
C1685 H1693 0.960 . S
C1686 C1684 1.381 . S
C1686 C1687 1.394 . S
C1686 H1694 0.930 . S
C1687 C1686 1.394 . S
C1687 C1688 1.383 . S
C1687 H1695 0.929 . S
C1688 C1687 1.383 . S
C1688 C1689 1.377 . S
C1689 H1673 0.930 . S
C1689 C1688 1.377 . S
C1689 C1690 1.379 . S
C1690 H1674 0.931 . S
C1690 C1684 1.383 . S
C1690 C1689 1.379 . S
H1691 C1685 0.989 . S
H1692 C1685 0.961 . S
H1693 C1685 0.960 . S
H1694 C1686 0.930 . S
H1695 C1687 0.929 . S
H1696 C1704 0.929 . S
H1697 C1706 0.930 . S
H1698 C1708 0.930 . S
H1699 C1711 0.929 . S
H1700 C1714 0.930 . S
H1701 C1716 0.960 . S
H1702 C1716 0.960 . S
H1703 C1716 0.960 . S
C1704 H1696 0.929 . S
C1704 C1705 1.377 1_545 S
C1704 C1706 1.384 . S
C1705 C1704 1.377 1_565 S
C1705 C1711 1.390 . S
C1706 H1697 0.930 . S
C1706 C1704 1.384 . S
C1706 C1707 1.372 1_545 S
C1707 C1706 1.372 1_565 S
C1707 C1708 1.400 . S
C1707 C1712 1.490 . S
C1708 H1698 0.930 . S
C1708 C1707 1.400 . S
C1708 C1711 1.386 . S
H1709 C1725 0.930 . S
H1710 C1726 0.931 . S
C1711 H1699 0.929 . S
C1711 C1705 1.390 . S
C1711 C1708 1.386 . S
C1712 C1707 1.490 . S
C1712 C1714 1.395 1_465 S
C1712 C1715 1.403 . S
H1713 C1719 0.930 . S
C1714 H1700 0.930 . S
C1714 C1712 1.395 1_645 S
C1714 C1717 1.403 . S
C1715 C1712 1.403 . S
C1715 C1716 1.524 . S
C1715 C1719 1.400 . S
C1716 H1701 0.960 . S
C1716 H1702 0.960 . S
C1716 H1703 0.960 . S
C1716 C1715 1.524 . S
C1717 C1714 1.403 . S
C1717 C1718 1.392 1_655 S
C1717 C1721 1.495 . S
C1718 C1717 1.392 1_455 S
C1718 C1719 1.385 1_545 S
C1718 C1720 1.478 . S
C1719 H1713 0.930 . S
C1719 C1715 1.400 . S
C1719 C1718 1.385 1_565 S
C1720 C1718 1.478 . S
C1720 C1722 1.381 . S
C1720 C1726 1.383 1_545 S
C1721 C1717 1.495 . S
C1721 H1727 0.959 . S
C1721 H1728 0.961 . S
C1721 H1729 0.960 . S
C1722 C1720 1.381 . S
C1722 C1723 1.394 . S
C1722 H1730 0.930 . S
C1723 C1722 1.394 . S
C1723 C1724 1.383 . S
C1723 H1731 0.929 . S
C1724 C1723 1.383 . S
C1724 C1725 1.377 1_545 S
C1725 H1709 0.930 . S
C1725 C1724 1.377 1_565 S
C1725 C1726 1.379 . S
C1726 H1710 0.931 . S
C1726 C1720 1.383 1_565 S
C1726 C1725 1.379 . S
H1727 C1721 0.959 . S
H1728 C1721 0.961 . S
H1729 C1721 0.960 . S
H1730 C1722 0.930 . S
H1731 C1723 0.929 . S
H1732 C1740 0.929 . S
H1733 C1742 0.930 . S
H1734 C1744 0.930 . S
H1735 C1747 0.929 . S
H1736 C1750 0.930 . S
H1737 C1752 0.960 . S
H1738 C1752 0.960 . S
H1739 C1752 0.960 . S
C1740 H1732 0.929 . S
C1740 C1741 1.377 . S
C1740 C1742 1.384 . S
C1741 C1740 1.377 . S
C1741 C1747 1.390 . S
C1742 H1733 0.930 . S
C1742 C1740 1.384 . S
C1742 C1743 1.372 . S
C1743 C1742 1.372 . S
C1743 C1744 1.400 . S
C1743 C1748 1.490 . S
C1744 H1734 0.930 . S
C1744 C1743 1.400 . S
C1744 C1747 1.386 . S
H1745 C1761 0.930 . S
H1746 C1762 0.931 . S
C1747 H1735 0.929 . S
C1747 C1741 1.390 . S
C1747 C1744 1.386 . S
C1748 C1743 1.490 . S
C1748 C1750 1.395 . S
C1748 C1751 1.403 . S
H1749 C1755 0.930 . S
C1750 H1736 0.930 . S
C1750 C1748 1.395 . S
C1750 C1753 1.403 . S
C1751 C1748 1.403 . S
C1751 C1752 1.524 . S
C1751 C1755 1.400 . S
C1752 H1737 0.960 . S
C1752 H1738 0.960 . S
C1752 H1739 0.960 . S
C1752 C1751 1.524 . S
C1753 C1750 1.403 . S
C1753 C1754 1.392 . S
C1753 C1757 1.495 . S
C1754 C1753 1.392 . S
C1754 C1755 1.385 . S
C1754 C1756 1.478 . S
C1755 H1749 0.930 . S
C1755 C1751 1.400 . S
C1755 C1754 1.385 . S
C1756 C1754 1.478 . S
C1756 C1758 1.381 . S
C1756 C1762 1.383 . S
C1757 C1753 1.495 . S
C1757 H1763 0.959 . S
C1757 H1764 0.961 . S
C1757 H1765 0.960 . S
C1758 C1756 1.381 . S
C1758 C1759 1.394 . S
C1758 H1766 0.930 . S
C1759 C1758 1.394 . S
C1759 C1760 1.383 . S
C1759 H1767 0.929 . S
C1760 C1759 1.383 . S
C1760 C1761 1.377 . S
C1761 H1745 0.930 . S
C1761 C1760 1.377 . S
C1761 C1762 1.379 . S
C1762 H1746 0.931 . S
C1762 C1756 1.383 . S
C1762 C1761 1.379 . S
H1763 C1757 0.959 . S
H1764 C1757 0.961 . S
H1765 C1757 0.960 . S
H1766 C1758 0.930 . S
H1767 C1759 0.929 . S
H1768 C1776 0.929 . S
H1769 C1778 0.930 . S
H1770 C1780 0.930 . S
H1771 C1783 0.927 . S
H1772 C1786 0.930 . S
H1773 C1788 0.960 . S
H1774 C1788 0.960 . S
H1775 C1788 0.960 1_545 S
C1776 H1768 0.929 . S
C1776 C1777 1.377 . S
C1776 C1778 1.384 . S
C1777 C1776 1.377 . S
C1777 C1783 1.393 1_565 S
C1778 H1769 0.930 . S
C1778 C1776 1.384 . S
C1778 C1779 1.372 . S
C1779 C1778 1.372 . S
C1779 C1780 1.400 1_565 S
C1779 C1784 1.490 . S
C1780 H1770 0.930 . S
C1780 C1779 1.400 1_545 S
C1780 C1783 1.385 . S
H1781 C1797 0.930 . S
H1782 C1798 0.931 . S
C1783 H1771 0.927 . S
C1783 C1777 1.393 1_545 S
C1783 C1780 1.385 . S
C1784 C1779 1.490 . S
C1784 C1786 1.395 . S
C1784 C1787 1.403 . S
H1785 C1791 0.930 . S
C1786 H1772 0.930 . S
C1786 C1784 1.395 . S
C1786 C1789 1.397 1_564 S
C1787 C1784 1.403 . S
C1787 C1788 1.524 . S
C1787 C1791 1.400 1_564 S
C1788 H1773 0.960 . S
C1788 H1774 0.960 . S
C1788 H1775 0.960 1_565 S
C1788 C1787 1.524 . S
C1789 C1786 1.397 1_546 S
C1789 C1790 1.397 . S
C1789 C1793 1.498 . S
C1790 C1789 1.397 . S
C1790 C1791 1.385 . S
C1790 C1792 1.478 . S
C1791 H1785 0.930 . S
C1791 C1787 1.400 1_546 S
C1791 C1790 1.385 . S
C1792 C1790 1.478 . S
C1792 C1794 1.381 1_545 S
C1792 C1798 1.383 . S
C1793 C1789 1.498 . S
C1793 H1799 0.956 1_545 S
C1793 H1800 0.961 . S
C1793 H1801 0.960 1_545 S
C1794 C1792 1.381 1_565 S
C1794 C1795 1.394 . S
C1794 H1802 0.930 . S
C1795 C1794 1.394 . S
C1795 C1796 1.383 1_565 S
C1795 H1803 0.929 . S
C1796 C1795 1.383 1_545 S
C1796 C1797 1.377 . S
C1797 H1781 0.930 . S
C1797 C1796 1.377 . S
C1797 C1798 1.379 . S
C1798 H1782 0.931 . S
C1798 C1792 1.383 . S
C1798 C1797 1.379 . S
H1799 C1793 0.956 1_565 S
H1800 C1793 0.961 . S
H1801 C1793 0.960 1_565 S
H1802 C1794 0.930 . S
H1803 C1795 0.929 . S
H1804 C1812 0.929 . S
H1805 C1814 0.930 . S
H1806 C1816 0.930 . S
H1807 C1819 0.929 . S
H1808 C1822 0.930 . S
H1809 C1824 0.960 . S
H1810 C1824 0.960 . S
H1811 C1824 0.960 . S
C1812 H1804 0.929 . S
C1812 C1813 1.377 . S
C1812 C1814 1.384 . S
C1813 C1812 1.377 . S
C1813 C1819 1.390 . S
C1814 H1805 0.930 . S
C1814 C1812 1.384 . S
C1814 C1815 1.372 . S
C1815 C1814 1.372 . S
C1815 C1816 1.400 . S
C1815 C1820 1.490 . S
C1816 H1806 0.930 . S
C1816 C1815 1.400 . S
C1816 C1819 1.386 . S
H1817 C1833 0.930 . S
H1818 C1834 0.931 . S
C1819 H1807 0.929 . S
C1819 C1813 1.390 . S
C1819 C1816 1.386 . S
C1820 C1815 1.490 . S
C1820 C1822 1.395 . S
C1820 C1823 1.403 . S
H1821 C1827 0.930 . S
C1822 H1808 0.930 . S
C1822 C1820 1.395 . S
C1822 C1825 1.403 . S
C1823 C1820 1.403 . S
C1823 C1824 1.524 . S
C1823 C1827 1.400 . S
C1824 H1809 0.960 . S
C1824 H1810 0.960 . S
C1824 H1811 0.960 . S
C1824 C1823 1.524 . S
C1825 C1822 1.403 . S
C1825 C1826 1.392 . S
C1825 C1829 1.495 . S
C1826 C1825 1.392 . S
C1826 C1827 1.385 . S
C1826 C1828 1.478 . S
C1827 H1821 0.930 . S
C1827 C1823 1.400 . S
C1827 C1826 1.385 . S
C1828 C1826 1.478 . S
C1828 C1830 1.381 . S
C1828 C1834 1.383 . S
C1829 C1825 1.495 . S
C1829 H1835 0.959 . S
C1829 H1836 0.961 . S
C1829 H1837 0.960 . S
C1830 C1828 1.381 . S
C1830 C1831 1.394 . S
C1830 H1838 0.930 . S
C1831 C1830 1.394 . S
C1831 C1832 1.383 . S
C1831 H1839 0.929 . S
C1832 C1831 1.383 . S
C1832 C1833 1.377 . S
C1833 H1817 0.930 . S
C1833 C1832 1.377 . S
C1833 C1834 1.379 . S
C1834 H1818 0.931 . S
C1834 C1828 1.383 . S
C1834 C1833 1.379 . S
H1835 C1829 0.959 . S
H1836 C1829 0.961 . S
H1837 C1829 0.960 . S
H1838 C1830 0.930 . S
H1839 C1831 0.929 . S
H1840 C1848 0.929 . S
H1841 C1850 0.930 . S
H1842 C1852 0.930 . S
H1843 C1855 0.929 . S
H1844 C1858 0.930 . S
H1845 C1860 0.960 . S
H1846 C1860 0.960 . S
H1847 C1860 0.960 . S
C1848 H1840 0.929 . S
C1848 C1849 1.377 . S
C1848 C1850 1.384 . S
C1849 C1848 1.377 . S
C1849 C1855 1.390 . S
C1850 H1841 0.930 . S
C1850 C1848 1.384 . S
C1850 C1851 1.372 . S
C1851 C1850 1.372 . S
C1851 C1852 1.400 . S
C1851 C1856 1.490 . S
C1852 H1842 0.930 . S
C1852 C1851 1.400 . S
C1852 C1855 1.386 . S
H1853 C1869 0.930 . S
H1854 C1870 0.931 . S
C1855 H1843 0.929 . S
C1855 C1849 1.390 . S
C1855 C1852 1.386 . S
C1856 C1851 1.490 . S
C1856 C1858 1.395 . S
C1856 C1859 1.403 . S
H1857 C1863 0.930 . S
C1858 H1844 0.930 . S
C1858 C1856 1.395 . S
C1858 C1861 1.403 . S
C1859 C1856 1.403 . S
C1859 C1860 1.524 . S
C1859 C1863 1.400 . S
C1860 H1845 0.960 . S
C1860 H1846 0.960 . S
C1860 H1847 0.960 . S
C1860 C1859 1.524 . S
C1861 C1858 1.403 . S
C1861 C1862 1.392 . S
C1861 C1865 1.495 . S
C1862 C1861 1.392 . S
C1862 C1863 1.385 . S
C1862 C1864 1.478 . S
C1863 H1857 0.930 . S
C1863 C1859 1.400 . S
C1863 C1862 1.385 . S
C1864 C1862 1.478 . S
C1864 C1866 1.381 . S
C1864 C1870 1.383 . S
C1865 C1861 1.495 . S
C1865 H1871 0.959 . S
C1865 H1872 0.961 . S
C1865 H1873 0.960 . S
C1866 C1864 1.381 . S
C1866 C1867 1.394 . S
C1866 H1874 0.930 . S
C1867 C1866 1.394 . S
C1867 C1868 1.383 . S
C1867 H1875 0.929 . S
C1868 C1867 1.383 . S
C1868 C1869 1.377 . S
C1869 H1853 0.930 . S
C1869 C1868 1.377 . S
C1869 C1870 1.379 . S
C1870 H1854 0.931 . S
C1870 C1864 1.383 . S
C1870 C1869 1.379 . S
H1871 C1865 0.959 . S
H1872 C1865 0.961 . S
H1873 C1865 0.960 . S
H1874 C1866 0.930 . S
H1875 C1867 0.929 . S
H1876 C1884 0.929 . S
H1877 C1886 0.930 . S
H1878 C1888 0.930 . S
H1879 C1891 0.929 . S
H1880 C1894 0.930 . S
H1881 C1896 0.960 . S
H1882 C1896 0.960 . S
H1883 C1896 0.960 . S
C1884 H1876 0.929 . S
C1884 C1885 1.377 . S
C1884 C1886 1.384 . S
C1885 C1884 1.377 . S
C1885 C1891 1.390 . S
C1886 H1877 0.930 . S
C1886 C1884 1.384 . S
C1886 C1887 1.372 . S
C1887 C1886 1.372 . S
C1887 C1888 1.400 . S
C1887 C1892 1.490 . S
C1888 H1878 0.930 . S
C1888 C1887 1.400 . S
C1888 C1891 1.386 . S
H1889 C1905 0.930 . S
H1890 C1906 0.931 . S
C1891 H1879 0.929 . S
C1891 C1885 1.390 . S
C1891 C1888 1.386 . S
C1892 C1887 1.490 . S
C1892 C1894 1.395 . S
C1892 C1895 1.403 . S
H1893 C1899 0.930 . S
C1894 H1880 0.930 . S
C1894 C1892 1.395 . S
C1894 C1897 1.403 . S
C1895 C1892 1.403 . S
C1895 C1896 1.524 . S
C1895 C1899 1.400 . S
C1896 H1881 0.960 . S
C1896 H1882 0.960 . S
C1896 H1883 0.960 . S
C1896 C1895 1.524 . S
C1897 C1894 1.403 . S
C1897 C1898 1.392 . S
C1897 C1901 1.495 . S
C1898 C1897 1.392 . S
C1898 C1899 1.385 . S
C1898 C1900 1.478 . S
C1899 H1893 0.930 . S
C1899 C1895 1.400 . S
C1899 C1898 1.385 . S
C1900 C1898 1.478 . S
C1900 C1902 1.381 . S
C1900 C1906 1.383 . S
C1901 C1897 1.495 . S
C1901 H1907 0.959 . S
C1901 H1908 0.961 . S
C1901 H1909 0.960 . S
C1902 C1900 1.381 . S
C1902 C1903 1.394 . S
C1902 H1910 0.930 . S
C1903 C1902 1.394 . S
C1903 C1904 1.383 . S
C1903 H1911 0.929 . S
C1904 C1903 1.383 . S
C1904 C1905 1.377 . S
C1905 H1889 0.930 . S
C1905 C1904 1.377 . S
C1905 C1906 1.379 . S
C1906 H1890 0.931 . S
C1906 C1900 1.383 . S
C1906 C1905 1.379 . S
H1907 C1901 0.959 . S
H1908 C1901 0.961 . S
H1909 C1901 0.960 . S
H1910 C1902 0.930 . S
H1911 C1903 0.929 . S
H1912 C1920 0.929 . S
H1913 C1922 0.930 . S
H1914 C1924 0.930 . S
H1915 C1927 0.929 . S
H1916 C1930 0.930 . S
H1917 C1932 0.960 . S
H1918 C1932 0.960 . S
H1919 C1932 0.960 . S
C1920 H1912 0.929 . S
C1920 C1921 1.377 . S
C1920 C1922 1.384 . S
C1921 C1920 1.377 . S
C1921 C1927 1.390 . S
C1922 H1913 0.930 . S
C1922 C1920 1.384 . S
C1922 C1923 1.372 . S
C1923 C1922 1.372 . S
C1923 C1924 1.400 . S
C1923 C1928 1.490 . S
C1924 H1914 0.930 . S
C1924 C1923 1.400 . S
C1924 C1927 1.386 . S
H1925 C1941 0.930 . S
H1926 C1942 0.931 . S
C1927 H1915 0.929 . S
C1927 C1921 1.390 . S
C1927 C1924 1.386 . S
C1928 C1923 1.490 . S
C1928 C1930 1.395 . S
C1928 C1931 1.403 . S
H1929 C1935 0.930 . S
C1930 H1916 0.930 . S
C1930 C1928 1.395 . S
C1930 C1933 1.403 1_556 S
C1931 C1928 1.403 . S
C1931 C1932 1.524 . S
C1931 C1935 1.400 1_556 S
C1932 H1917 0.960 . S
C1932 H1918 0.960 . S
C1932 H1919 0.960 . S
C1932 C1931 1.524 . S
C1933 C1930 1.403 1_554 S
C1933 C1934 1.392 . S
C1933 C1937 1.495 . S
C1934 C1933 1.392 . S
C1934 C1935 1.385 . S
C1934 C1936 1.478 . S
C1935 H1929 0.930 . S
C1935 C1931 1.400 1_554 S
C1935 C1934 1.385 . S
C1936 C1934 1.478 . S
C1936 C1938 1.381 . S
C1936 C1942 1.383 . S
C1937 C1933 1.495 . S
C1937 H1943 0.959 . S
C1937 H1944 0.961 . S
C1937 H1945 0.960 . S
C1938 C1936 1.381 . S
C1938 C1939 1.394 . S
C1938 H1946 0.930 . S
C1939 C1938 1.394 . S
C1939 C1940 1.383 . S
C1939 H1947 0.929 . S
C1940 C1939 1.383 . S
C1940 C1941 1.377 . S
C1941 H1925 0.930 . S
C1941 C1940 1.377 . S
C1941 C1942 1.379 . S
C1942 H1926 0.931 . S
C1942 C1936 1.383 . S
C1942 C1941 1.379 . S
H1943 C1937 0.959 . S
H1944 C1937 0.961 . S
H1945 C1937 0.960 . S
H1946 C1938 0.930 . S
H1947 C1939 0.929 . S
H1948 C1956 0.929 . S
H1949 C1958 0.930 . S
H1950 C1960 0.930 . S
H1951 C1963 0.929 . S
H1952 C1966 0.930 . S
H1953 C1968 0.960 . S
H1954 C1968 0.960 . S
H1955 C1968 0.960 . S
C1956 H1948 0.929 . S
C1956 C1957 1.377 1_655 S
C1956 C1958 1.384 . S
C1957 C1956 1.377 1_455 S
C1957 C1963 1.390 . S
C1958 H1949 0.930 . S
C1958 C1956 1.384 . S
C1958 C1959 1.372 1_655 S
C1959 C1958 1.372 1_455 S
C1959 C1960 1.400 . S
C1959 C1964 1.490 . S
C1960 H1950 0.930 . S
C1960 C1959 1.400 . S
C1960 C1963 1.386 . S
H1961 C1977 0.930 . S
H1962 C1978 0.931 . S
C1963 H1951 0.929 . S
C1963 C1957 1.390 . S
C1963 C1960 1.386 . S
C1964 C1959 1.490 . S
C1964 C1966 1.395 . S
C1964 C1967 1.403 . S
H1965 C1971 0.930 . S
C1966 H1952 0.930 . S
C1966 C1964 1.395 . S
C1966 C1969 1.403 . S
C1967 C1964 1.403 . S
C1967 C1968 1.524 . S
C1967 C1971 1.400 . S
C1968 H1953 0.960 . S
C1968 H1954 0.960 . S
C1968 H1955 0.960 . S
C1968 C1967 1.524 . S
C1969 C1966 1.403 . S
C1969 C1970 1.392 . S
C1969 C1973 1.495 . S
C1970 C1969 1.392 . S
C1970 C1971 1.385 . S
C1970 C1972 1.478 . S
C1971 H1965 0.930 . S
C1971 C1967 1.400 . S
C1971 C1970 1.385 . S
C1972 C1970 1.478 . S
C1972 C1974 1.381 1_455 S
C1972 C1978 1.383 . S
C1973 C1969 1.495 . S
C1973 H1979 0.968 . S
C1973 H1980 0.961 . S
C1973 H1981 0.960 1_455 S
C1974 C1972 1.381 1_655 S
C1974 C1975 1.394 . S
C1974 H1982 0.930 . S
C1975 C1974 1.394 . S
C1975 C1976 1.383 1_655 S
C1975 H1983 0.929 . S
C1976 C1975 1.383 1_455 S
C1976 C1977 1.377 . S
C1977 H1961 0.930 . S
C1977 C1976 1.377 . S
C1977 C1978 1.379 . S
C1978 H1962 0.931 . S
C1978 C1972 1.383 . S
C1978 C1977 1.379 . S
H1979 C1973 0.968 . S
H1980 C1973 0.961 . S
H1981 C1973 0.960 1_655 S
H1982 C1974 0.930 . S
H1983 C1975 0.929 . S
H1984 C1992 0.929 . S
H1985 C1994 0.930 . S
H1986 C1996 0.930 . S
H1987 C1999 0.929 . S
H1988 C2002 0.930 . S
H1989 C2004 0.960 . S
H1990 C2004 0.960 . S
H1991 C2004 0.960 . S
C1992 H1984 0.929 . S
C1992 C1993 1.377 . S
C1992 C1994 1.384 . S
C1993 C1992 1.377 . S
C1993 C1999 1.390 . S
C1994 H1985 0.930 . S
C1994 C1992 1.384 . S
C1994 C1995 1.372 . S
C1995 C1994 1.372 . S
C1995 C1996 1.400 . S
C1995 C2000 1.490 . S
C1996 H1986 0.930 . S
C1996 C1995 1.400 . S
C1996 C1999 1.386 . S
H1997 C2013 0.930 . S
H1998 C2014 0.931 . S
C1999 H1987 0.929 . S
C1999 C1993 1.390 . S
C1999 C1996 1.386 . S
C2000 C1995 1.490 . S
C2000 C2002 1.395 . S
C2000 C2003 1.403 . S
H2001 C2007 0.930 . S
C2002 H1988 0.930 . S
C2002 C2000 1.395 . S
C2002 C2005 1.403 . S
C2003 C2000 1.403 . S
C2003 C2004 1.524 . S
C2003 C2007 1.400 . S
C2004 H1989 0.960 . S
C2004 H1990 0.960 . S
C2004 H1991 0.960 . S
C2004 C2003 1.524 . S
C2005 C2002 1.403 . S
C2005 C2006 1.392 . S
C2005 C2009 1.495 . S
C2006 C2005 1.392 . S
C2006 C2007 1.385 . S
C2006 C2008 1.478 . S
C2007 H2001 0.930 . S
C2007 C2003 1.400 . S
C2007 C2006 1.385 . S
C2008 C2006 1.478 . S
C2008 C2010 1.381 . S
C2008 C2014 1.383 . S
C2009 C2005 1.495 . S
C2009 H2015 0.959 . S
C2009 H2016 0.961 . S
C2009 H2017 0.960 . S
C2010 C2008 1.381 . S
C2010 C2011 1.394 . S
C2010 H2018 0.930 . S
C2011 C2010 1.394 . S
C2011 C2012 1.383 . S
C2011 H2019 0.929 1_565 S
C2012 C2011 1.383 . S
C2012 C2013 1.377 . S
C2013 H1997 0.930 . S
C2013 C2012 1.377 . S
C2013 C2014 1.379 . S
C2014 H1998 0.931 . S
C2014 C2008 1.383 . S
C2014 C2013 1.379 . S
H2015 C2009 0.959 . S
H2016 C2009 0.961 . S
H2017 C2009 0.960 . S
H2018 C2010 0.930 . S
H2019 C2011 0.929 1_545 S
H2020 C2028 0.929 . S
H2021 C2030 0.930 . S
H2022 C2032 0.930 . S
H2023 C2035 0.929 . S
H2024 C2038 0.930 . S
H2025 C2040 0.960 . S
H2026 C2040 0.960 . S
H2027 C2040 0.960 . S
C2028 H2020 0.929 . S
C2028 C2029 1.377 . S
C2028 C2030 1.384 . S
C2029 C2028 1.377 . S
C2029 C2035 1.390 . S
C2030 H2021 0.930 . S
C2030 C2028 1.384 . S
C2030 C2031 1.372 . S
C2031 C2030 1.372 . S
C2031 C2032 1.400 . S
C2031 C2036 1.490 . S
C2032 H2022 0.930 . S
C2032 C2031 1.400 . S
C2032 C2035 1.386 . S
H2033 C2049 0.930 1_545 S
H2034 C2050 0.931 . S
C2035 H2023 0.929 . S
C2035 C2029 1.390 . S
C2035 C2032 1.386 . S
C2036 C2031 1.490 . S
C2036 C2038 1.395 . S
C2036 C2039 1.403 . S
H2037 C2043 0.930 . S
C2038 H2024 0.930 . S
C2038 C2036 1.395 . S
C2038 C2041 1.403 . S
C2039 C2036 1.403 . S
C2039 C2040 1.524 . S
C2039 C2043 1.400 . S
C2040 H2025 0.960 . S
C2040 H2026 0.960 . S
C2040 H2027 0.960 . S
C2040 C2039 1.524 . S
C2041 C2038 1.403 . S
C2041 C2042 1.392 . S
C2041 C2045 1.495 . S
C2042 C2041 1.392 . S
C2042 C2043 1.385 . S
C2042 C2044 1.478 . S
C2043 H2037 0.930 . S
C2043 C2039 1.400 . S
C2043 C2042 1.385 . S
C2044 C2042 1.478 . S
C2044 C2046 1.381 . S
C2044 C2050 1.383 . S
C2045 C2041 1.495 . S
C2045 H2051 0.959 . S
C2045 H2052 0.961 . S
C2045 H2053 0.960 . S
C2046 C2044 1.381 . S
C2046 C2047 1.394 . S
C2046 H2054 0.930 . S
C2047 C2046 1.394 . S
C2047 C2048 1.383 . S
C2047 H2055 0.929 . S
C2048 C2047 1.383 . S
C2048 C2049 1.377 . S
C2049 H2033 0.930 1_565 S
C2049 C2048 1.377 . S
C2049 C2050 1.379 . S
C2050 H2034 0.931 . S
C2050 C2044 1.383 . S
C2050 C2049 1.379 . S
H2051 C2045 0.959 . S
H2052 C2045 0.961 . S
H2053 C2045 0.960 . S
H2054 C2046 0.930 . S
H2055 C2047 0.929 . S
H2056 C2064 0.939 . S
H2057 C2066 0.930 . S
H2058 C2068 0.930 . S
H2059 C2071 0.929 . S
H2060 C2074 0.930 . S
H2061 C2076 0.960 . S
H2062 C2076 0.960 . S
H2063 C2076 0.960 . S
C2064 H2056 0.939 . S
C2064 C2065 1.377 . S
C2064 C2066 1.384 . S
C2065 C2064 1.377 . S
C2065 C2071 1.390 . S
C2066 H2057 0.930 . S
C2066 C2064 1.384 . S
C2066 C2067 1.372 . S
C2067 C2066 1.372 . S
C2067 C2068 1.400 . S
C2067 C2072 1.490 . S
C2068 H2058 0.930 . S
C2068 C2067 1.400 . S
C2068 C2071 1.386 . S
H2069 C2085 0.930 . S
H2070 C2086 0.931 . S
C2071 H2059 0.929 . S
C2071 C2065 1.390 . S
C2071 C2068 1.386 . S
C2072 C2067 1.490 . S
C2072 C2074 1.395 . S
C2072 C2075 1.403 . S
H2073 C2079 0.930 . S
C2074 H2060 0.930 . S
C2074 C2072 1.395 . S
C2074 C2077 1.403 . S
C2075 C2072 1.403 . S
C2075 C2076 1.524 . S
C2075 C2079 1.400 . S
C2076 H2061 0.960 . S
C2076 H2062 0.960 . S
C2076 H2063 0.960 . S
C2076 C2075 1.524 . S
C2077 C2074 1.403 . S
C2077 C2078 1.392 . S
C2077 C2081 1.495 . S
C2078 C2077 1.392 . S
C2078 C2079 1.385 . S
C2078 C2080 1.478 . S
C2079 H2073 0.930 . S
C2079 C2075 1.400 . S
C2079 C2078 1.385 . S
C2080 C2078 1.478 . S
C2080 C2082 1.381 . S
C2080 C2086 1.383 . S
C2081 C2077 1.495 . S
C2081 H2087 0.959 . S
C2081 H2088 0.961 . S
C2081 H2089 0.960 . S
C2082 C2080 1.381 . S
C2082 C2083 1.394 . S
C2082 H2090 0.930 . S
C2083 C2082 1.394 . S
C2083 C2084 1.383 . S
C2083 H2091 0.929 . S
C2084 C2083 1.383 . S
C2084 C2085 1.377 . S
C2085 H2069 0.930 . S
C2085 C2084 1.377 . S
C2085 C2086 1.379 . S
C2086 H2070 0.931 . S
C2086 C2080 1.383 . S
C2086 C2085 1.379 . S
H2087 C2081 0.959 . S
H2088 C2081 0.961 . S
H2089 C2081 0.960 . S
H2090 C2082 0.930 . S
H2091 C2083 0.929 . S
H2092 C2100 0.929 . S
H2093 C2102 0.930 . S
H2094 C2104 0.930 . S
H2095 C2107 0.929 1_565 S
H2096 C2110 0.930 . S
H2097 C2112 0.960 . S
H2098 C2112 0.960 . S
H2099 C2112 0.960 . S
C2100 H2092 0.929 . S
C2100 C2101 1.377 . S
C2100 C2102 1.384 . S
C2101 C2100 1.377 . S
C2101 C2107 1.390 . S
C2102 H2093 0.930 . S
C2102 C2100 1.384 . S
C2102 C2103 1.372 . S
C2103 C2102 1.372 . S
C2103 C2104 1.400 . S
C2103 C2108 1.490 . S
C2104 H2094 0.930 . S
C2104 C2103 1.400 . S
C2104 C2107 1.386 . S
H2105 C2121 0.930 . S
H2106 C2122 0.931 . S
C2107 H2095 0.929 1_545 S
C2107 C2101 1.390 . S
C2107 C2104 1.386 . S
C2108 C2103 1.490 . S
C2108 C2110 1.395 . S
C2108 C2111 1.403 . S
H2109 C2115 0.930 . S
C2110 H2096 0.930 . S
C2110 C2108 1.395 . S
C2110 C2113 1.403 . S
C2111 C2108 1.403 . S
C2111 C2112 1.524 . S
C2111 C2115 1.400 . S
C2112 H2097 0.960 . S
C2112 H2098 0.960 . S
C2112 H2099 0.960 . S
C2112 C2111 1.524 . S
C2113 C2110 1.403 . S
C2113 C2114 1.392 . S
C2113 C2117 1.495 . S
C2114 C2113 1.392 . S
C2114 C2115 1.385 . S
C2114 C2116 1.478 . S
C2115 H2109 0.930 . S
C2115 C2111 1.400 . S
C2115 C2114 1.385 . S
C2116 C2114 1.478 . S
C2116 C2118 1.381 . S
C2116 C2122 1.383 . S
C2117 C2113 1.495 . S
C2117 H2123 0.959 . S
C2117 H2124 0.961 . S
C2117 H2125 0.960 . S
C2118 C2116 1.381 . S
C2118 C2119 1.394 . S
C2118 H2126 0.930 . S
C2119 C2118 1.394 . S
C2119 C2120 1.383 . S
C2119 H2127 0.929 . S
C2120 C2119 1.383 . S
C2120 C2121 1.377 . S
C2121 H2105 0.930 . S
C2121 C2120 1.377 . S
C2121 C2122 1.379 . S
C2122 H2106 0.931 . S
C2122 C2116 1.383 . S
C2122 C2121 1.379 . S
H2123 C2117 0.959 . S
H2124 C2117 0.961 . S
H2125 C2117 0.960 . S
H2126 C2118 0.930 . S
H2127 C2119 0.929 . S
H2128 C2136 0.929 . S
H2129 C2138 0.930 . S
H2130 C2140 0.930 . S
H2131 C2143 0.929 . S
H2132 C2146 0.930 . S
H2133 C2148 0.960 . S
H2134 C2148 0.960 . S
H2135 C2148 0.960 . S
C2136 H2128 0.929 . S
C2136 C2137 1.377 . S
C2136 C2138 1.384 . S
C2137 C2136 1.377 . S
C2137 C2143 1.390 . S
C2138 H2129 0.930 . S
C2138 C2136 1.384 . S
C2138 C2139 1.372 . S
C2139 C2138 1.372 . S
C2139 C2140 1.400 . S
C2139 C2144 1.490 . S
C2140 H2130 0.930 . S
C2140 C2139 1.400 . S
C2140 C2143 1.386 . S
H2141 C2157 0.930 . S
H2142 C2158 0.931 . S
C2143 H2131 0.929 . S
C2143 C2137 1.390 . S
C2143 C2140 1.386 . S
C2144 C2139 1.490 . S
C2144 C2146 1.395 . S
C2144 C2147 1.403 . S
H2145 C2151 0.930 . S
C2146 H2132 0.930 . S
C2146 C2144 1.395 . S
C2146 C2149 1.403 . S
C2147 C2144 1.403 . S
C2147 C2148 1.524 . S
C2147 C2151 1.400 . S
C2148 H2133 0.960 . S
C2148 H2134 0.960 . S
C2148 H2135 0.960 . S
C2148 C2147 1.524 . S
C2149 C2146 1.403 . S
C2149 C2150 1.392 . S
C2149 C2153 1.495 . S
C2150 C2149 1.392 . S
C2150 C2151 1.385 . S
C2150 C2152 1.478 . S
C2151 H2145 0.930 . S
C2151 C2147 1.400 . S
C2151 C2150 1.385 . S
C2152 C2150 1.478 . S
C2152 C2154 1.381 . S
C2152 C2158 1.383 . S
C2153 C2149 1.495 . S
C2153 H2159 0.959 . S
C2153 H2160 0.961 . S
C2153 H2161 0.960 . S
C2154 C2152 1.381 . S
C2154 C2155 1.394 . S
C2154 H2162 0.930 . S
C2155 C2154 1.394 . S
C2155 C2156 1.383 . S
C2155 H2163 0.929 . S
C2156 C2155 1.383 . S
C2156 C2157 1.377 . S
C2157 H2141 0.930 . S
C2157 C2156 1.377 . S
C2157 C2158 1.379 . S
C2158 H2142 0.931 . S
C2158 C2152 1.383 . S
C2158 C2157 1.379 . S
H2159 C2153 0.959 . S
H2160 C2153 0.961 . S
H2161 C2153 0.960 . S
H2162 C2154 0.930 . S
H2163 C2155 0.929 . S
H2164 C2172 0.929 . S
H2165 C2174 0.930 . S
H2166 C2176 0.930 . S
H2167 C2179 0.929 . S
H2168 C2182 0.930 . S
H2169 C2184 0.960 . S
H2170 C2184 0.960 . S
H2171 C2184 0.960 . S
C2172 H2164 0.929 . S
C2172 C2173 1.377 . S
C2172 C2174 1.384 . S
C2173 C2172 1.377 . S
C2173 C2179 1.390 . S
C2174 H2165 0.930 . S
C2174 C2172 1.384 . S
C2174 C2175 1.372 . S
C2175 C2174 1.372 . S
C2175 C2176 1.400 . S
C2175 C2180 1.490 . S
C2176 H2166 0.930 . S
C2176 C2175 1.400 . S
C2176 C2179 1.386 . S
H2177 C2193 0.930 . S
H2178 C2194 0.931 . S
C2179 H2167 0.929 . S
C2179 C2173 1.390 . S
C2179 C2176 1.386 . S
C2180 C2175 1.490 . S
C2180 C2182 1.395 . S
C2180 C2183 1.403 . S
H2181 C2187 0.930 . S
C2182 H2168 0.930 . S
C2182 C2180 1.395 . S
C2182 C2185 1.403 . S
C2183 C2180 1.403 . S
C2183 C2184 1.524 . S
C2183 C2187 1.400 . S
C2184 H2169 0.960 . S
C2184 H2170 0.960 . S
C2184 H2171 0.960 . S
C2184 C2183 1.524 . S
C2185 C2182 1.403 . S
C2185 C2186 1.392 . S
C2185 C2189 1.495 . S
C2186 C2185 1.392 . S
C2186 C2187 1.385 . S
C2186 C2188 1.478 . S
C2187 H2181 0.930 . S
C2187 C2183 1.400 . S
C2187 C2186 1.385 . S
C2188 C2186 1.478 . S
C2188 C2190 1.381 . S
C2188 C2194 1.383 . S
C2189 C2185 1.495 . S
C2189 H2195 0.959 . S
C2189 H2196 0.961 . S
C2189 H2197 0.960 . S
C2190 C2188 1.381 . S
C2190 C2191 1.394 . S
C2190 H2198 0.930 . S
C2191 C2190 1.394 . S
C2191 C2192 1.383 . S
C2191 H2199 0.929 . S
C2192 C2191 1.383 . S
C2192 C2193 1.377 . S
C2193 H2177 0.930 . S
C2193 C2192 1.377 . S
C2193 C2194 1.379 . S
C2194 H2178 0.931 . S
C2194 C2188 1.383 . S
C2194 C2193 1.379 . S
H2195 C2189 0.959 . S
H2196 C2189 0.961 . S
H2197 C2189 0.960 . S
H2198 C2190 0.930 . S
H2199 C2191 0.929 . S
H2200 C2208 0.929 . S
H2201 C2210 0.930 . S
H2202 C2212 0.930 . S
H2203 C2215 0.929 . S
H2204 C2218 0.930 . S
H2205 C2220 0.960 . S
H2206 C2220 0.960 . S
H2207 C2220 0.960 . S
C2208 H2200 0.929 . S
C2208 C2209 1.377 . S
C2208 C2210 1.384 . S
C2209 C2208 1.377 . S
C2209 C2215 1.390 . S
C2210 H2201 0.930 . S
C2210 C2208 1.384 . S
C2210 C2211 1.372 . S
C2211 C2210 1.372 . S
C2211 C2212 1.400 . S
C2211 C2216 1.490 . S
C2212 H2202 0.930 . S
C2212 C2211 1.400 . S
C2212 C2215 1.386 . S
H2213 C2229 0.903 1_545 S
H2214 C2230 0.931 . S
C2215 H2203 0.929 . S
C2215 C2209 1.390 . S
C2215 C2212 1.386 . S
C2216 C2211 1.490 . S
C2216 C2218 1.395 . S
C2216 C2219 1.403 . S
H2217 C2223 0.930 . S
C2218 H2204 0.930 . S
C2218 C2216 1.395 . S
C2218 C2221 1.403 . S
C2219 C2216 1.403 . S
C2219 C2220 1.524 . S
C2219 C2223 1.400 . S
C2220 H2205 0.960 . S
C2220 H2206 0.960 . S
C2220 H2207 0.960 . S
C2220 C2219 1.524 . S
C2221 C2218 1.403 . S
C2221 C2222 1.392 . S
C2221 C2225 1.495 . S
C2222 C2221 1.392 . S
C2222 C2223 1.385 . S
C2222 C2224 1.478 . S
C2223 H2217 0.930 . S
C2223 C2219 1.400 . S
C2223 C2222 1.385 . S
C2224 C2222 1.478 . S
C2224 C2226 1.381 . S
C2224 C2230 1.383 . S
C2225 C2221 1.495 . S
C2225 H2231 0.959 . S
C2225 H2232 0.961 . S
C2225 H2233 0.960 . S
C2226 C2224 1.381 . S
C2226 C2227 1.394 . S
C2226 H2234 0.930 . S
C2227 C2226 1.394 . S
C2227 C2228 1.383 . S
C2227 H2235 0.929 . S
C2228 C2227 1.383 . S
C2228 C2229 1.377 . S
C2229 H2213 0.903 1_565 S
C2229 C2228 1.377 . S
C2229 C2230 1.379 . S
C2230 H2214 0.931 . S
C2230 C2224 1.383 . S
C2230 C2229 1.379 . S
H2231 C2225 0.959 . S
H2232 C2225 0.961 . S
H2233 C2225 0.960 . S
H2234 C2226 0.930 . S
H2235 C2227 0.929 . S
H2236 C2244 0.929 . S
H2237 C2246 0.930 . S
H2238 C2248 0.930 . S
H2239 C2251 0.929 . S
H2240 C2254 0.930 . S
H2241 C2256 0.960 . S
H2242 C2256 0.960 . S
H2243 C2256 0.960 . S
C2244 H2236 0.929 . S
C2244 C2245 1.377 . S
C2244 C2246 1.384 . S
C2245 C2244 1.377 . S
C2245 C2251 1.390 . S
C2246 H2237 0.930 . S
C2246 C2244 1.384 . S
C2246 C2247 1.372 . S
C2247 C2246 1.372 . S
C2247 C2248 1.400 . S
C2247 C2252 1.490 . S
C2248 H2238 0.930 . S
C2248 C2247 1.400 . S
C2248 C2251 1.386 . S
H2249 C2265 0.930 . S
H2250 C2266 0.931 . S
C2251 H2239 0.929 . S
C2251 C2245 1.390 . S
C2251 C2248 1.386 . S
C2252 C2247 1.490 . S
C2252 C2254 1.395 . S
C2252 C2255 1.403 . S
H2253 C2259 0.930 . S
C2254 H2240 0.930 . S
C2254 C2252 1.395 . S
C2254 C2257 1.403 . S
C2255 C2252 1.403 . S
C2255 C2256 1.524 . S
C2255 C2259 1.400 . S
C2256 H2241 0.960 . S
C2256 H2242 0.960 . S
C2256 H2243 0.960 . S
C2256 C2255 1.524 . S
C2257 C2254 1.403 . S
C2257 C2258 1.392 . S
C2257 C2261 1.495 . S
C2258 C2257 1.392 . S
C2258 C2259 1.385 . S
C2258 C2260 1.478 . S
C2259 H2253 0.930 . S
C2259 C2255 1.400 . S
C2259 C2258 1.385 . S
C2260 C2258 1.478 . S
C2260 C2262 1.381 . S
C2260 C2266 1.383 . S
C2261 C2257 1.495 . S
C2261 H2267 0.959 . S
C2261 H2268 0.961 . S
C2261 H2269 0.960 . S
C2262 C2260 1.381 . S
C2262 C2263 1.394 . S
C2262 H2270 0.930 . S
C2263 C2262 1.394 . S
C2263 C2264 1.383 . S
C2263 H2271 0.929 . S
C2264 C2263 1.383 . S
C2264 C2265 1.377 . S
C2265 H2249 0.930 . S
C2265 C2264 1.377 . S
C2265 C2266 1.379 . S
C2266 H2250 0.931 . S
C2266 C2260 1.383 . S
C2266 C2265 1.379 . S
H2267 C2261 0.959 . S
H2268 C2261 0.961 . S
H2269 C2261 0.960 . S
H2270 C2262 0.930 . S
H2271 C2263 0.929 . S
H2272 C2280 0.929 . S
H2273 C2282 0.930 . S
H2274 C2284 0.930 . S
H2275 C2287 0.929 . S
H2276 C2290 0.930 . S
H2277 C2292 0.960 . S
H2278 C2292 0.960 . S
H2279 C2292 0.960 . S
C2280 H2272 0.929 . S
C2280 C2281 1.377 . S
C2280 C2282 1.384 . S
C2281 C2280 1.377 . S
C2281 C2287 1.390 . S
C2282 H2273 0.930 . S
C2282 C2280 1.384 . S
C2282 C2283 1.372 . S
C2283 C2282 1.372 . S
C2283 C2284 1.400 . S
C2283 C2288 1.490 . S
C2284 H2274 0.930 . S
C2284 C2283 1.400 . S
C2284 C2287 1.386 . S
H2285 C2301 0.930 . S
H2286 C2302 0.931 . S
C2287 H2275 0.929 . S
C2287 C2281 1.390 . S
C2287 C2284 1.386 . S
C2288 C2283 1.490 . S
C2288 C2290 1.395 . S
C2288 C2291 1.403 . S
H2289 C2295 0.930 . S
C2290 H2276 0.930 . S
C2290 C2288 1.395 . S
C2290 C2293 1.403 . S
C2291 C2288 1.403 . S
C2291 C2292 1.524 . S
C2291 C2295 1.400 . S
C2292 H2277 0.960 . S
C2292 H2278 0.960 . S
C2292 H2279 0.960 . S
C2292 C2291 1.524 . S
C2293 C2290 1.403 . S
C2293 C2294 1.392 . S
C2293 C2297 1.495 . S
C2294 C2293 1.392 . S
C2294 C2295 1.385 . S
C2294 C2296 1.478 . S
C2295 H2289 0.930 . S
C2295 C2291 1.400 . S
C2295 C2294 1.385 . S
C2296 C2294 1.478 . S
C2296 C2298 1.381 . S
C2296 C2302 1.383 . S
C2297 C2293 1.495 . S
C2297 H2303 0.959 . S
C2297 H2304 0.961 . S
C2297 H2305 0.960 . S
C2298 C2296 1.381 . S
C2298 C2299 1.394 . S
C2298 H2306 0.930 . S
C2299 C2298 1.394 . S
C2299 C2300 1.383 . S
C2299 H2307 0.929 . S
C2300 C2299 1.383 . S
C2300 C2301 1.377 . S
C2301 H2285 0.930 . S
C2301 C2300 1.377 . S
C2301 C2302 1.379 . S
C2302 H2286 0.931 . S
C2302 C2296 1.383 . S
C2302 C2301 1.379 . S
H2303 C2297 0.959 . S
H2304 C2297 0.961 . S
H2305 C2297 0.960 . S
H2306 C2298 0.930 . S
H2307 C2299 0.929 . S
H2308 C2316 0.929 . S
H2309 C2318 0.930 . S
H2310 C2320 0.930 . S
H2311 C2323 0.929 . S
H2312 C2326 0.930 . S
H2313 C2328 0.960 . S
H2314 C2328 0.960 . S
H2315 C2328 0.960 . S
C2316 H2308 0.929 . S
C2316 C2317 1.377 . S
C2316 C2318 1.384 . S
C2317 C2316 1.377 . S
C2317 C2323 1.390 . S
C2318 H2309 0.930 . S
C2318 C2316 1.384 . S
C2318 C2319 1.372 . S
C2319 C2318 1.372 . S
C2319 C2320 1.400 . S
C2319 C2324 1.490 . S
C2320 H2310 0.930 . S
C2320 C2319 1.400 . S
C2320 C2323 1.386 . S
H2321 C2337 0.930 . S
H2322 C2338 0.931 . S
C2323 H2311 0.929 . S
C2323 C2317 1.390 . S
C2323 C2320 1.386 . S
C2324 C2319 1.490 . S
C2324 C2326 1.395 . S
C2324 C2327 1.403 . S
H2325 C2331 0.930 . S
C2326 H2312 0.930 . S
C2326 C2324 1.395 . S
C2326 C2329 1.403 . S
C2327 C2324 1.403 . S
C2327 C2328 1.524 . S
C2327 C2331 1.400 . S
C2328 H2313 0.960 . S
C2328 H2314 0.960 . S
C2328 H2315 0.960 . S
C2328 C2327 1.524 . S
C2329 C2326 1.403 . S
C2329 C2330 1.392 . S
C2329 C2333 1.495 . S
C2330 C2329 1.392 . S
C2330 C2331 1.385 . S
C2330 C2332 1.478 . S
C2331 H2325 0.930 . S
C2331 C2327 1.400 . S
C2331 C2330 1.385 . S
C2332 C2330 1.478 . S
C2332 C2334 1.381 . S
C2332 C2338 1.383 . S
C2333 C2329 1.495 . S
C2333 H2339 0.959 . S
C2333 H2340 0.961 . S
C2333 H2341 0.960 . S
C2334 C2332 1.381 . S
C2334 C2335 1.394 . S
C2334 H2342 0.930 . S
C2335 C2334 1.394 . S
C2335 C2336 1.383 . S
C2335 H2343 0.929 . S
C2336 C2335 1.383 . S
C2336 C2337 1.377 . S
C2337 H2321 0.930 . S
C2337 C2336 1.377 . S
C2337 C2338 1.379 . S
C2338 H2322 0.931 . S
C2338 C2332 1.383 . S
C2338 C2337 1.379 . S
H2339 C2333 0.959 . S
H2340 C2333 0.961 . S
H2341 C2333 0.960 . S
H2342 C2334 0.930 . S
H2343 C2335 0.929 . S
H2344 C2352 0.929 . S
H2345 C2354 0.930 . S
H2346 C2356 0.930 . S
H2347 C2359 0.929 . S
H2348 C2362 0.930 . S
H2349 C2364 0.960 . S
H2350 C2364 0.960 . S
H2351 C2364 0.960 . S
C2352 H2344 0.929 . S
C2352 C2353 1.377 . S
C2352 C2354 1.384 . S
C2353 C2352 1.377 . S
C2353 C2359 1.390 . S
C2354 H2345 0.930 . S
C2354 C2352 1.384 . S
C2354 C2355 1.372 . S
C2355 C2354 1.372 . S
C2355 C2356 1.400 . S
C2355 C2360 1.490 . S
C2356 H2346 0.930 . S
C2356 C2355 1.400 . S
C2356 C2359 1.386 . S
H2357 C2373 0.930 . S
H2358 C2374 0.931 . S
C2359 H2347 0.929 . S
C2359 C2353 1.390 . S
C2359 C2356 1.386 . S
C2360 C2355 1.490 . S
C2360 C2362 1.395 . S
C2360 C2363 1.403 . S
H2361 C2367 0.930 . S
C2362 H2348 0.930 . S
C2362 C2360 1.395 . S
C2362 C2365 1.403 . S
C2363 C2360 1.403 . S
C2363 C2364 1.524 . S
C2363 C2367 1.400 . S
C2364 H2349 0.960 . S
C2364 H2350 0.960 . S
C2364 H2351 0.960 . S
C2364 C2363 1.524 . S
C2365 C2362 1.403 . S
C2365 C2366 1.392 . S
C2365 C2369 1.495 . S
C2366 C2365 1.392 . S
C2366 C2367 1.385 . S
C2366 C2368 1.478 . S
C2367 H2361 0.930 . S
C2367 C2363 1.400 . S
C2367 C2366 1.385 . S
C2368 C2366 1.478 . S
C2368 C2370 1.381 . S
C2368 C2374 1.383 . S
C2369 C2365 1.495 . S
C2369 H2375 0.959 . S
C2369 H2376 0.961 . S
C2369 H2377 0.960 . S
C2370 C2368 1.381 . S
C2370 C2371 1.394 . S
C2370 H2378 0.930 . S
C2371 C2370 1.394 . S
C2371 C2372 1.383 . S
C2371 H2379 0.929 . S
C2372 C2371 1.383 . S
C2372 C2373 1.377 . S
C2373 H2357 0.930 . S
C2373 C2372 1.377 . S
C2373 C2374 1.379 . S
C2374 H2358 0.931 . S
C2374 C2368 1.383 . S
C2374 C2373 1.379 . S
H2375 C2369 0.959 . S
H2376 C2369 0.961 . S
H2377 C2369 0.960 . S
H2378 C2370 0.930 . S
H2379 C2371 0.929 . S
H2380 C2388 0.929 . S
H2381 C2390 0.930 . S
H2382 C2392 0.930 . S
H2383 C2395 0.929 . S
H2384 C2398 0.930 . S
H2385 C2400 0.960 . S
H2386 C2400 0.960 . S
H2387 C2400 0.960 . S
C2388 H2380 0.929 . S
C2388 C2389 1.377 . S
C2388 C2390 1.384 . S
C2389 C2388 1.377 . S
C2389 C2395 1.390 . S
C2390 H2381 0.930 . S
C2390 C2388 1.384 . S
C2390 C2391 1.372 . S
C2391 C2390 1.372 . S
C2391 C2392 1.400 . S
C2391 C2396 1.490 . S
C2392 H2382 0.930 . S
C2392 C2391 1.400 . S
C2392 C2395 1.386 . S
H2393 C2409 0.930 . S
H2394 C2410 0.931 . S
C2395 H2383 0.929 . S
C2395 C2389 1.390 . S
C2395 C2392 1.386 . S
C2396 C2391 1.490 . S
C2396 C2398 1.395 . S
C2396 C2399 1.403 . S
H2397 C2403 0.930 . S
C2398 H2384 0.930 . S
C2398 C2396 1.395 . S
C2398 C2401 1.403 . S
C2399 C2396 1.403 . S
C2399 C2400 1.524 . S
C2399 C2403 1.400 . S
C2400 H2385 0.960 . S
C2400 H2386 0.960 . S
C2400 H2387 0.960 . S
C2400 C2399 1.524 . S
C2401 C2398 1.403 . S
C2401 C2402 1.392 . S
C2401 C2405 1.495 . S
C2402 C2401 1.392 . S
C2402 C2403 1.385 . S
C2402 C2404 1.478 . S
C2403 H2397 0.930 . S
C2403 C2399 1.400 . S
C2403 C2402 1.385 . S
C2404 C2402 1.478 . S
C2404 C2406 1.381 . S
C2404 C2410 1.383 . S
C2405 C2401 1.495 . S
C2405 H2411 0.959 . S
C2405 H2412 0.961 . S
C2405 H2413 0.960 . S
C2406 C2404 1.381 . S
C2406 C2407 1.394 . S
C2406 H2414 0.930 . S
C2407 C2406 1.394 . S
C2407 C2408 1.383 . S
C2407 H2415 0.929 . S
C2408 C2407 1.383 . S
C2408 C2409 1.377 . S
C2409 H2393 0.930 . S
C2409 C2408 1.377 . S
C2409 C2410 1.379 . S
C2410 H2394 0.931 . S
C2410 C2404 1.383 . S
C2410 C2409 1.379 . S
H2411 C2405 0.959 . S
H2412 C2405 0.961 . S
H2413 C2405 0.960 . S
H2414 C2406 0.930 . S
H2415 C2407 0.929 . S
H2416 C2424 0.929 . S
H2417 C2426 0.930 . S
H2418 C2428 0.930 . S
H2419 C2431 0.929 . S
H2420 C2434 0.930 . S
H2421 C2436 0.960 . S
H2422 C2436 0.960 . S
H2423 C2436 0.960 . S
C2424 H2416 0.929 . S
C2424 C2425 1.377 . S
C2424 C2426 1.384 . S
C2425 C2424 1.377 . S
C2425 C2431 1.390 . S
C2426 H2417 0.930 . S
C2426 C2424 1.384 . S
C2426 C2427 1.372 . S
C2427 C2426 1.372 . S
C2427 C2428 1.400 . S
C2427 C2432 1.490 . S
C2428 H2418 0.930 . S
C2428 C2427 1.400 . S
C2428 C2431 1.386 . S
H2429 C2445 0.930 . S
H2430 C2446 0.931 . S
C2431 H2419 0.929 . S
C2431 C2425 1.390 . S
C2431 C2428 1.386 . S
C2432 C2427 1.490 . S
C2432 C2434 1.395 . S
C2432 C2435 1.403 . S
H2433 C2439 0.930 . S
C2434 H2420 0.930 . S
C2434 C2432 1.395 . S
C2434 C2437 1.403 . S
C2435 C2432 1.403 . S
C2435 C2436 1.524 . S
C2435 C2439 1.400 . S
C2436 H2421 0.960 . S
C2436 H2422 0.960 . S
C2436 H2423 0.960 . S
C2436 C2435 1.524 . S
C2437 C2434 1.403 . S
C2437 C2438 1.392 . S
C2437 C2441 1.495 . S
C2438 C2437 1.392 . S
C2438 C2439 1.385 . S
C2438 C2440 1.478 . S
C2439 H2433 0.930 . S
C2439 C2435 1.400 . S
C2439 C2438 1.385 . S
C2440 C2438 1.478 . S
C2440 C2442 1.381 . S
C2440 C2446 1.383 . S
C2441 C2437 1.495 . S
C2441 H2447 0.959 . S
C2441 H2448 0.961 . S
C2441 H2449 0.960 . S
C2442 C2440 1.381 . S
C2442 C2443 1.394 . S
C2442 H2450 0.930 . S
C2443 C2442 1.394 . S
C2443 C2444 1.383 . S
C2443 H2451 0.929 . S
C2444 C2443 1.383 . S
C2444 C2445 1.377 . S
C2445 H2429 0.930 . S
C2445 C2444 1.377 . S
C2445 C2446 1.379 . S
C2446 H2430 0.931 . S
C2446 C2440 1.383 . S
C2446 C2445 1.379 . S
H2447 C2441 0.959 . S
H2448 C2441 0.961 . S
H2449 C2441 0.960 . S
H2450 C2442 0.930 . S
H2451 C2443 0.929 . S
H2452 C2460 0.929 . S
H2453 C2462 0.930 . S
H2454 C2464 0.930 . S
H2455 C2467 0.929 . S
H2456 C2470 0.930 . S
H2457 C2472 0.960 . S
H2458 C2472 0.960 . S
H2459 C2472 0.960 . S
C2460 H2452 0.929 . S
C2460 C2461 1.377 . S
C2460 C2462 1.384 . S
C2461 C2460 1.377 . S
C2461 C2467 1.390 . S
C2462 H2453 0.930 . S
C2462 C2460 1.384 . S
C2462 C2463 1.372 . S
C2463 C2462 1.372 . S
C2463 C2464 1.400 . S
C2463 C2468 1.490 . S
C2464 H2454 0.930 . S
C2464 C2463 1.400 . S
C2464 C2467 1.386 . S
H2465 C2481 0.930 . S
H2466 C2482 0.931 . S
C2467 H2455 0.929 . S
C2467 C2461 1.390 . S
C2467 C2464 1.386 . S
C2468 C2463 1.490 . S
C2468 C2470 1.395 . S
C2468 C2471 1.403 . S
H2469 C2475 0.930 . S
C2470 H2456 0.930 . S
C2470 C2468 1.395 . S
C2470 C2473 1.403 . S
C2471 C2468 1.403 . S
C2471 C2472 1.524 . S
C2471 C2475 1.400 . S
C2472 H2457 0.960 . S
C2472 H2458 0.960 . S
C2472 H2459 0.960 . S
C2472 C2471 1.524 . S
C2473 C2470 1.403 . S
C2473 C2474 1.392 . S
C2473 C2477 1.495 . S
C2474 C2473 1.392 . S
C2474 C2475 1.385 . S
C2474 C2476 1.478 . S
C2475 H2469 0.930 . S
C2475 C2471 1.400 . S
C2475 C2474 1.385 . S
C2476 C2474 1.478 . S
C2476 C2478 1.381 . S
C2476 C2482 1.383 . S
C2477 C2473 1.495 . S
C2477 H2483 0.959 . S
C2477 H2484 0.961 . S
C2477 H2485 0.960 . S
C2478 C2476 1.381 . S
C2478 C2479 1.394 . S
C2478 H2486 0.930 . S
C2479 C2478 1.394 . S
C2479 C2480 1.383 . S
C2479 H2487 0.929 . S
C2480 C2479 1.383 . S
C2480 C2481 1.377 . S
C2481 H2465 0.930 . S
C2481 C2480 1.377 . S
C2481 C2482 1.379 . S
C2482 H2466 0.931 . S
C2482 C2476 1.383 . S
C2482 C2481 1.379 . S
H2483 C2477 0.959 . S
H2484 C2477 0.961 . S
H2485 C2477 0.960 . S
H2486 C2478 0.930 . S
H2487 C2479 0.929 . S
H2488 C2496 0.929 . S
H2489 C2498 0.930 . S
H2490 C2500 0.930 . S
H2491 C2503 0.929 . S
H2492 C2506 0.930 . S
H2493 C2508 0.960 . S
H2494 C2508 0.960 . S
H2495 C2508 0.960 . S
C2496 H2488 0.929 . S
C2496 C2497 1.377 . S
C2496 C2498 1.384 . S
C2497 C2496 1.377 . S
C2497 C2503 1.390 . S
C2498 H2489 0.930 . S
C2498 C2496 1.384 . S
C2498 C2499 1.372 . S
C2499 C2498 1.372 . S
C2499 C2500 1.400 . S
C2499 C2504 1.490 . S
C2500 H2490 0.930 . S
C2500 C2499 1.400 . S
C2500 C2503 1.386 . S
H2501 C2517 0.930 . S
H2502 C2518 0.931 . S
C2503 H2491 0.929 . S
C2503 C2497 1.390 . S
C2503 C2500 1.386 . S
C2504 C2499 1.490 . S
C2504 C2506 1.395 . S
C2504 C2507 1.403 . S
H2505 C2511 0.930 . S
C2506 H2492 0.930 . S
C2506 C2504 1.395 . S
C2506 C2509 1.403 . S
C2507 C2504 1.403 . S
C2507 C2508 1.524 . S
C2507 C2511 1.400 . S
C2508 H2493 0.960 . S
C2508 H2494 0.960 . S
C2508 H2495 0.960 . S
C2508 C2507 1.524 . S
C2509 C2506 1.403 . S
C2509 C2510 1.392 . S
C2509 C2513 1.495 . S
C2510 C2509 1.392 . S
C2510 C2511 1.385 . S
C2510 C2512 1.478 . S
C2511 H2505 0.930 . S
C2511 C2507 1.400 . S
C2511 C2510 1.385 . S
C2512 C2510 1.478 . S
C2512 C2514 1.381 . S
C2512 C2518 1.383 . S
C2513 C2509 1.495 . S
C2513 H2519 0.959 . S
C2513 H2520 0.961 . S
C2513 H2521 0.960 . S
C2514 C2512 1.381 . S
C2514 C2515 1.394 . S
C2514 H2522 0.930 . S
C2515 C2514 1.394 . S
C2515 C2516 1.383 . S
C2515 H2523 0.929 . S
C2516 C2515 1.383 . S
C2516 C2517 1.377 . S
C2517 H2501 0.930 . S
C2517 C2516 1.377 . S
C2517 C2518 1.379 . S
C2518 H2502 0.931 . S
C2518 C2512 1.383 . S
C2518 C2517 1.379 . S
H2519 C2513 0.959 . S
H2520 C2513 0.961 . S
H2521 C2513 0.960 . S
H2522 C2514 0.930 . S
H2523 C2515 0.929 . S
H2524 C2532 0.929 . S
H2525 C2534 0.930 . S
H2526 C2536 0.930 . S
H2527 C2539 0.929 . S
H2528 C2542 0.930 . S
H2529 C2544 0.960 . S
H2530 C2544 0.960 . S
H2531 C2544 0.960 . S
C2532 H2524 0.929 . S
C2532 C2533 1.377 . S
C2532 C2534 1.384 . S
C2533 C2532 1.377 . S
C2533 C2539 1.390 . S
C2534 H2525 0.930 . S
C2534 C2532 1.384 . S
C2534 C2535 1.372 . S
C2535 C2534 1.372 . S
C2535 C2536 1.400 . S
C2535 C2540 1.490 . S
C2536 H2526 0.930 . S
C2536 C2535 1.400 . S
C2536 C2539 1.386 . S
H2537 C2553 0.930 . S
H2538 C2554 0.931 . S
C2539 H2527 0.929 . S
C2539 C2533 1.390 . S
C2539 C2536 1.386 . S
C2540 C2535 1.490 . S
C2540 C2542 1.395 . S
C2540 C2543 1.403 . S
H2541 C2547 0.930 . S
C2542 H2528 0.930 . S
C2542 C2540 1.395 . S
C2542 C2545 1.403 . S
C2543 C2540 1.403 . S
C2543 C2544 1.524 . S
C2543 C2547 1.400 . S
C2544 H2529 0.960 . S
C2544 H2530 0.960 . S
C2544 H2531 0.960 . S
C2544 C2543 1.524 . S
C2545 C2542 1.403 . S
C2545 C2546 1.392 . S
C2545 C2549 1.495 . S
C2546 C2545 1.392 . S
C2546 C2547 1.385 . S
C2546 C2548 1.478 . S
C2547 H2541 0.930 . S
C2547 C2543 1.400 . S
C2547 C2546 1.385 . S
C2548 C2546 1.478 . S
C2548 C2550 1.381 . S
C2548 C2554 1.383 . S
C2549 C2545 1.495 . S
C2549 H2555 0.959 . S
C2549 H2556 0.961 . S
C2549 H2557 0.960 . S
C2550 C2548 1.381 . S
C2550 C2551 1.394 . S
C2550 H2558 0.930 . S
C2551 C2550 1.394 . S
C2551 C2552 1.383 . S
C2551 H2559 0.929 . S
C2552 C2551 1.383 . S
C2552 C2553 1.377 . S
C2553 H2537 0.930 . S
C2553 C2552 1.377 . S
C2553 C2554 1.379 . S
C2554 H2538 0.931 . S
C2554 C2548 1.383 . S
C2554 C2553 1.379 . S
H2555 C2549 0.959 . S
H2556 C2549 0.961 . S
H2557 C2549 0.960 . S
H2558 C2550 0.930 . S
H2559 C2551 0.929 . S
C1417 C29 0.533 . S
C1436 C1201 0.506 . S
C1453 C997 0.539 . S
C1472 C117 0.521 . S
C1489 C1085 0.525 . S
C1508 C225 0.548 . S
C1525 C900 0.538 . S
C1544 C293 0.520 . S
C1561 C401 0.525 . S
C1580 C1340 0.556 . S
C1597 C489 0.543 . S
C1616 C849 0.544 . S
C1633 C1281 0.527 . S
C1652 C548 0.561 . S
C1669 C673 0.544 . S
C1688 C761 0.539 . S
C1705 C409 1.724 . S
C1724 C20 1.724 . S
C1741 C137 1.729 . S
C1760 C469 1.722 . S
C1777 C233 1.726 . S
C1796 C557 1.720 . S
C1813 C636 1.728 . S
C1832 C313 1.721 . S
C1849 C724 1.730 . S
C1868 C937 1.726 . S
C1885 C812 1.729 . S
C1904 C1017 1.723 . S
C1921 C1289 1.725 . S
C1940 C1076 1.725 . S
C1957 C1193 1.726 . S
C1976 C1349 1.725 . S
C1993 C460 1.174 . S
C2012 C49 1.179 . S
C2029 C145 1.173 . S
C2048 C585 1.172 . S
C2065 C205 1.170 . S
C2084 C645 1.180 . S
C2101 C381 1.168 . S
C2120 C321 1.182 . S
C2137 C372 1.170 . S
C2156 C909 1.182 . S
C2173 C196 1.175 . S
C2192 C753 1.162 . S
C2209 C988 1.167 . S
C2228 C577 1.173 . S
C2245 C841 1.170 . S
C2264 C57 1.152 . S
C2281 C733 1.177 . S
C2300 C1105 1.150 . S
C2317 C929 1.174 . S
C2336 C1377 1.168 . S
C2353 C1164 1.168 . S
C2372 C821 1.187 . S
C2389 C1025 1.171 . S
C2408 C1261 1.183 . S
C2425 C1252 1.175 . S
C2444 C108 1.181 . S
C2461 C1173 1.172 . S
C2480 C497 1.186 . S
C2497 C1369 1.168 . S
C2516 C284 1.155 . S
C2533 C1113 1.171 . S
C2552 C665 1.186 . S
