# Generated by pormake.
# Topology ume, (4)-cn, num edge types: 1
# Building blocks:
#     Node 0, Type 0, BuildingBlock: KUFVIS_clean_sbu_0, # of connection points: 4
#     Node 1, Type 0, BuildingBlock: KUFVIS_clean_sbu_0, # of connection points: 4
#     Node 2, Type 0, BuildingBlock: KUFVIS_clean_sbu_0, # of connection points: 4
#     Node 3, Type 0, BuildingBlock: KUFVIS_clean_sbu_0, # of connection points: 4
#     Node 4, Type 0, BuildingBlock: KUFVIS_clean_sbu_0, # of connection points: 4
#     Node 5, Type 0, BuildingBlock: KUFVIS_clean_sbu_0, # of connection points: 4
#     Node 6, Type 0, BuildingBlock: KUFVIS_clean_sbu_0, # of connection points: 4
#     Node 7, Type 0, BuildingBlock: KUFVIS_clean_sbu_0, # of connection points: 4
#     Node 8, Type 0, BuildingBlock: KUFVIS_clean_sbu_0, # of connection points: 4
#     Node 9, Type 0, BuildingBlock: KUFVIS_clean_sbu_0, # of connection points: 4
#     Node 10, Type 0, BuildingBlock: KUFVIS_clean_sbu_0, # of connection points: 4
#     Node 11, Type 0, BuildingBlock: KUFVIS_clean_sbu_0, # of connection points: 4
#     Node 12, Type 0, BuildingBlock: KUFVIS_clean_sbu_0, # of connection points: 4
#     Node 13, Type 0, BuildingBlock: KUFVIS_clean_sbu_0, # of connection points: 4
#     Node 14, Type 0, BuildingBlock: KUFVIS_clean_sbu_0, # of connection points: 4
#     Node 15, Type 0, BuildingBlock: KUFVIS_clean_sbu_0, # of connection points: 4
#     Edge 16, Type (0, 0), None
#     Edge 17, Type (0, 0), None
#     Edge 18, Type (0, 0), None
#     Edge 19, Type (0, 0), None
#     Edge 20, Type (0, 0), None
#     Edge 21, Type (0, 0), None
#     Edge 22, Type (0, 0), None
#     Edge 23, Type (0, 0), None
#     Edge 24, Type (0, 0), None
#     Edge 25, Type (0, 0), None
#     Edge 26, Type (0, 0), None
#     Edge 27, Type (0, 0), None
#     Edge 28, Type (0, 0), None
#     Edge 29, Type (0, 0), None
#     Edge 30, Type (0, 0), None
#     Edge 31, Type (0, 0), None
#     Edge 32, Type (0, 0), None
#     Edge 33, Type (0, 0), None
#     Edge 34, Type (0, 0), None
#     Edge 35, Type (0, 0), None
#     Edge 36, Type (0, 0), None
#     Edge 37, Type (0, 0), None
#     Edge 38, Type (0, 0), None
#     Edge 39, Type (0, 0), None
#     Edge 40, Type (0, 0), None
#     Edge 41, Type (0, 0), None
#     Edge 42, Type (0, 0), None
#     Edge 43, Type (0, 0), None
#     Edge 44, Type (0, 0), None
#     Edge 45, Type (0, 0), None
#     Edge 46, Type (0, 0), None
#     Edge 47, Type (0, 0), None
# Relax obj value: 0.111
# Max RMSD: 0.174
# Mean RMSD: 0.174
data_MOF--net-ume--node1-KUFVIS_clean_sbu_0--edge1-none
_symmetry_space_group_name_H-M    P1
_symmetry_Int_Tables_number       1
_symmetry_cell_setting            triclinic
loop_
_symmetry_equiv_pos_as_xyz
'x, y, z'
_cell_length_a     12.126774
_cell_length_b     12.116561
_cell_length_c     52.398184
_cell_angle_alpha  89.991576
_cell_angle_beta   90.783511
_cell_angle_gamma 89.953149
loop_
_atom_site_label
_atom_site_type_symbol
_atom_site_fract_x
_atom_site_fract_y
_atom_site_fract_z
_atom_type_partial_charge
Mn0 Mn 0.22458 0.06446 0.32053 0.0
Mn1 Mn 0.20516 0.79861 0.3391 0.0
C2 C 0.39089 0.96228 0.32464 0.0
C3 C 0.21131 0.16404 0.27993 0.0
C4 C 0.21527 -0.00779 0.37698 0.0
O5 O 0.05682 0.0389 0.31919 0.0
O6 O 0.05696 0.85926 0.32876 0.0
C7 C 0.12809 0.67938 0.29265 0.0
N8 N 0.20928 0.70391 0.30997 0.0
C9 C 0.33791 0.58601 0.28888 0.0
C10 C 0.25835 0.5638 0.26992 0.0
C11 C 0.15135 0.60734 0.27235 0.0
C12 C 0.30587 0.64913 0.30975 0.0
H13 H 0.04729 0.7164 0.294 0.0
C14 C 0.00607 0.94849 0.32267 0.0
O15 O 0.2052 0.21551 0.3016 0.0
O16 O 0.22744 0.06121 0.2825 0.0
N17 N 0.33762 0.72525 0.34984 0.0
C18 C 0.39132 0.72906 0.37282 0.0
C19 C 0.48537 0.66323 0.37689 0.0
C20 C 0.52677 0.59903 0.35681 0.0
C21 C 0.47026 0.59731 0.33331 0.0
C22 C 0.37047 0.65509 0.33143 0.0
H23 H 0.36239 0.7812 0.38795 0.0
O24 O 0.38934 0.06719 0.3218 0.0
O25 O 0.29256 0.91619 0.3225 0.0
O26 O 0.22339 0.07584 0.36154 0.0
O27 O 0.20493 0.89292 0.36894 0.0
C28 C 0.51211 0.54835 0.31104 0.0
C29 C 0.44678 0.54583 0.2885 0.0
H30 H 0.27756 0.51164 0.25383 0.0
H31 H 0.08841 0.58876 0.25816 0.0
H32 H 0.52842 0.66543 0.39512 0.0
H33 H 0.60301 0.55355 0.35945 0.0
H34 H 0.59275 0.50986 0.31123 0.0
H35 H 0.47898 0.50797 0.27143 0.0
Mn36 Mn 0.8591 0.76233 0.57193 0.0
Mn37 Mn 0.10977 0.7559 0.59527 0.0
C38 C 0.9483 0.93855 0.575 0.0
C39 C 0.78166 0.72718 0.53045 0.0
C40 C 0.90565 0.72454 0.62756 0.0
O41 O 0.8986 0.60084 0.57565 0.0
O42 O 0.0809 0.61794 0.57424 0.0
C43 C 0.20056 0.80329 0.54608 0.0
N44 N 0.21039 0.81392 0.57171 0.0
C45 C 0.33538 0.96615 0.5676 0.0
C46 C 0.3305 0.95213 0.54115 0.0
C47 C 0.26268 0.87107 0.53035 0.0
C48 C 0.27189 0.89522 0.58244 0.0
H49 H 0.13834 0.74988 0.53796 0.0
C50 C -0.00654 0.55798 0.57385 0.0
O51 O 0.72111 0.72136 0.55072 0.0
O52 O 0.88291 0.75157 0.53469 0.0
N53 N 0.15385 0.87788 0.61654 0.0
C54 C 0.10971 0.91634 0.63856 0.0
C55 C 0.16585 -0.00332 0.65286 0.0
C56 C 0.25968 0.0472 0.64304 0.0
C57 C 0.29594 0.01629 0.61889 0.0
C58 C 0.24507 0.92549 0.60693 0.0
H59 H 0.03055 0.89017 0.64472 0.0
O60 O 0.84799 0.9285 0.56785 0.0
O61 O -0.00639 0.84236 0.57931 0.0
O62 O 0.83091 0.76262 0.61194 0.0
O63 O 0.00309 0.6993 0.62005 0.0
C64 C 0.37201 0.0794 0.60523 0.0
C65 C 0.38739 0.05758 0.57924 0.0
H66 H 0.36987 0.01024 0.52878 0.0
H67 H 0.25188 0.86698 0.50995 0.0
H68 H 0.13389 0.02362 0.67084 0.0
H69 H 0.29793 0.11502 0.65332 0.0
H70 H 0.4107 0.15123 0.61379 0.0
H71 H 0.43484 0.1153 0.56811 0.0
Mn72 Mn 0.1757 0.3144 0.82119 0.0
Mn73 Mn 0.1841 0.56193 0.84424 0.0
C74 C -0.00051 0.40391 0.82495 0.0
C75 C 0.19874 0.25425 0.77755 0.0
C76 C 0.21874 0.35538 0.87682 0.0
O77 O 0.33826 0.34914 0.82495 0.0
O78 O 0.32122 0.53166 0.8231 0.0
C79 C 0.12242 0.64836 0.79518 0.0
N80 N 0.12385 0.66392 0.82073 0.0
C81 C -0.02564 0.79387 0.81776 0.0
C82 C -0.01927 0.78777 0.79127 0.0
C83 C 0.05127 0.71119 0.77996 0.0
C84 C 0.04759 0.72878 0.83208 0.0
H85 H 0.16984 0.58225 0.787 0.0
C86 C 0.38139 0.44379 0.82285 0.0
O87 O 0.20739 0.18529 0.79641 0.0
O88 O 0.18172 0.35333 0.78434 0.0
N89 N 0.06521 0.60633 0.8655 0.0
C90 C 0.02279 0.55632 0.88633 0.0
C91 C 0.95038 0.61461 0.90183 0.0
C92 C 0.9056 0.71478 0.89344 0.0
C93 C 0.93419 0.75397 0.86938 0.0
C94 C 0.02121 0.70153 0.85673 0.0
H95 H 0.03901 0.47116 0.89031 0.0
O96 O 0.0087 0.30507 0.81723 0.0
O97 O 0.09588 0.44728 0.82931 0.0
O98 O 0.18012 0.28056 0.8613 0.0
O99 O 0.23907 0.45385 0.86909 0.0
C100 C 0.87046 0.83261 0.85626 0.0
C101 C 0.88666 0.8477 0.83006 0.0
H102 H 0.9232 0.8333 0.77957 0.0
H103 H 0.04665 0.69615 0.75975 0.0
H104 H 0.92366 0.57873 0.9193 0.0
H105 H 0.84174 0.75458 0.90441 0.0
H106 H 0.8011 0.87226 0.86533 0.0
H107 H 0.82704 0.89588 0.81931 0.0
Mn108 Mn 0.61 0.71705 0.07051 0.0
Mn109 Mn 0.34573 0.73635 0.08754 0.0
C110 C 0.50692 0.54929 0.07443 0.0
C111 C 0.69444 0.71364 0.02723 0.0
C112 C 0.53553 0.72238 0.12632 0.0
O113 O 0.58948 0.8843 0.06826 0.0
O114 O 0.41496 0.88358 0.08095 0.0
C115 C 0.23946 0.83903 0.04205 0.0
N116 N 0.25488 0.75005 0.05767 0.0
C117 C 0.12767 0.64122 0.03306 0.0
C118 C 0.112 0.73003 1.01619 0.0
C119 C 0.1662 0.83058 0.0211 0.0
C120 C 0.19401 0.65815 0.05462 0.0
H121 H 0.28331 0.91533 0.04537 0.0
C122 C 0.50162 0.93492 0.07392 0.0
O123 O 0.75345 0.71946 0.04776 0.0
O124 O 0.59394 0.70803 0.03232 0.0
N125 N 0.26394 0.60547 0.09432 0.0
C126 C 0.26006 0.54402 0.11605 0.0
C127 C 0.19126 0.45071 0.11673 0.0
C128 C 0.1325 0.41835 0.09462 0.0
C129 C 0.13614 0.48501 0.07274 0.0
C130 C 0.19688 0.58285 0.07421 0.0
H131 H 0.30887 0.56623 0.13266 0.0
O132 O 0.6115 0.55189 0.07293 0.0
O133 O 0.461 0.64687 0.07092 0.0
O134 O 0.62049 0.72745 0.11148 0.0
O135 O 0.4364 0.71977 0.11769 0.0
C136 C 0.08713 0.4568 0.04912 0.0
C137 C 0.08236 0.53569 0.02925 0.0
H138 H 0.0593 0.72169 0.99944 0.0
H139 H 0.1544 0.89998 1.00834 0.0
H140 H 0.18695 0.40144 0.13392 0.0
H141 H 0.08463 0.34292 0.09468 0.0
H142 H 0.04875 0.3769 0.04644 0.0
H143 H 0.04075 0.51576 1.01147 0.0
Mn144 Mn 0.26289 0.31399 0.96147 0.0
Mn145 Mn 0.25404 0.5616 0.93846 0.0
C146 C 0.43896 0.40349 0.9577 0.0
C147 C 0.23982 0.25383 1.00511 0.0
C148 C 0.21969 0.35527 0.90585 0.0
O149 O 0.10029 0.34871 0.95771 0.0
O150 O 0.11701 0.53122 0.95961 0.0
C151 C 0.31567 0.64792 0.98752 0.0
N152 N 0.31422 0.66351 0.96197 0.0
C153 C 0.4636 0.79333 0.96494 0.0
C154 C 0.45719 0.78729 0.99144 0.0
C155 C 0.38673 0.71072 1.00274 0.0
C156 C 0.3904 0.72835 0.95062 0.0
H157 H 0.2683 0.58185 0.99571 0.0
C158 C 0.057 0.44332 0.95983 0.0
O159 O 0.23132 0.18489 0.98626 0.0
O160 O 0.25678 0.3529 0.99832 0.0
N161 N 0.37281 0.60602 0.91718 0.0
C162 C 0.41534 0.55596 0.89637 0.0
C163 C 0.48773 0.61419 0.88087 0.0
C164 C 0.53237 0.71434 0.88925 0.0
C165 C 0.50375 0.75352 0.91331 0.0
C166 C 0.41675 0.70116 0.92596 0.0
H167 H 0.39924 0.4708 0.8924 0.0
O168 O 0.42992 0.30465 0.96543 0.0
O169 O 0.34249 0.44688 0.95335 0.0
O170 O 0.25851 0.28037 0.92134 0.0
O171 O 0.1991 0.45365 0.9136 0.0
C172 C 0.5675 0.832 0.92644 0.0
C173 C 0.55134 0.847 0.95264 0.0
H174 H 0.51462 0.83284 1.00313 0.0
H175 H 0.39137 0.69567 0.02295 0.0
H176 H 0.51456 0.57826 0.86342 0.0
H177 H 0.59622 0.75409 0.87829 0.0
H178 H 0.63687 0.87154 0.91738 0.0
H179 H 0.611 0.89499 0.9634 0.0
Mn180 Mn 0.5799 0.76099 0.21072 0.0
Mn181 Mn 0.32896 0.75507 0.18749 0.0
C182 C 0.49071 0.93733 0.20768 0.0
C183 C 0.65805 0.72563 0.25211 0.0
C184 C 0.53283 0.72338 0.15511 0.0
O185 O 0.54026 0.5996 0.20705 0.0
O186 O 0.35795 0.61697 0.2085 0.0
C187 C 0.23787 0.80222 0.23672 0.0
N188 N 0.22839 0.81327 0.21108 0.0
C189 C 0.10368 0.96594 0.21523 0.0
C190 C 0.10855 0.95183 0.24167 0.0
C191 C 0.17581 0.87014 0.25245 0.0
C192 C 0.167 0.89482 0.20037 0.0
H193 H 0.29977 0.74836 0.24483 0.0
C194 C 0.44542 0.55688 0.20889 0.0
O195 O 0.71823 0.71971 0.23179 0.0
O196 O 0.55672 0.75025 0.24798 0.0
N197 N 0.28485 0.87719 0.16623 0.0
C198 C 0.32892 0.91558 0.14421 0.0
C199 C 0.27277 -0.00395 0.12991 0.0
C200 C 0.17901 0.04677 0.13976 0.0
C201 C 0.14287 0.01595 0.16391 0.0
C202 C 0.19372 0.92502 0.17588 0.0
H203 H 0.40804 0.88925 0.13802 0.0
O204 O 0.59111 0.92714 0.21477 0.0
O205 O 0.44528 0.84121 0.20344 0.0
O206 O 0.60769 0.7613 0.1707 0.0
O207 O 0.43546 0.69829 0.16267 0.0
C208 C 0.06691 0.07924 0.17759 0.0
C209 C 0.05167 0.05749 0.2036 0.0
H210 H 0.06961 0.01024 0.25406 0.0
H211 H 0.18629 0.86578 0.27287 0.0
H212 H 0.30469 0.02295 0.11193 0.0
H213 H 0.14076 0.11468 0.12948 0.0
H214 H 0.02821 0.15115 0.16903 0.0
H215 H 0.00423 0.11526 0.21473 0.0
Mn216 Mn 0.21628 0.06585 0.46231 0.0
Mn217 Mn 0.23596 0.79969 0.44399 0.0
C218 C 0.05021 0.9636 0.45829 0.0
C219 C 0.22908 0.16568 0.50291 0.0
C220 C 0.22257 -0.00766 0.40588 0.0
O221 O 0.3842 0.04075 0.46367 0.0
O222 O 0.3842 0.86198 0.45341 0.0
C223 C 0.31985 0.6833 0.49024 0.0
N224 N 0.2363 0.70636 0.4734 0.0
C225 C 0.1119 0.58777 0.49554 0.0
C226 C 0.19411 0.56675 0.51399 0.0
C227 C 0.30005 0.61165 0.51081 0.0
C228 C 0.14039 0.65086 0.47439 0.0
H229 H 0.39997 0.7211 0.4883 0.0
C230 C 0.43507 0.95069 0.45976 0.0
O231 O 0.2348 0.21709 0.48123 0.0
O232 O 0.21358 0.06286 0.50034 0.0
N233 N 0.10354 0.72438 0.43423 0.0
C234 C 0.04806 0.72554 0.41146 0.0
C235 C 0.9541 0.65892 0.40821 0.0
C236 C 0.91464 0.59692 0.42888 0.0
C237 C -0.02637 0.59715 0.45206 0.0
C238 C 0.07313 0.65551 0.45313 0.0
H239 H 0.07566 0.77616 0.3959 0.0
O240 O 0.05157 0.06854 0.46102 0.0
O241 O 0.14854 0.91739 0.4606 0.0
O242 O 0.21711 0.07644 0.42126 0.0
O243 O 0.23183 0.89301 0.41399 0.0
C244 C 0.93494 0.54914 0.47476 0.0
C245 C 0.00355 0.54693 0.49678 0.0
H246 H 0.17757 0.5149 0.5303 0.0
H247 H 0.36491 0.59426 0.52463 0.0
H248 H 0.90957 0.65895 0.39016 0.0
H249 H 0.83845 0.55096 0.42685 0.0
H250 H 0.8545 0.51048 0.47524 0.0
H251 H -0.02578 0.50891 0.51411 0.0
Mn252 Mn 0.82818 0.71792 0.71214 0.0
Mn253 Mn 0.09254 0.73683 0.69516 0.0
C254 C 0.9313 0.54998 0.70823 0.0
C255 C 0.74372 0.71447 0.75544 0.0
C256 C 0.90278 0.72345 0.65636 0.0
O257 O 0.84872 0.88515 0.7144 0.0
O258 O 0.02339 0.88415 0.7018 0.0
C259 C 0.1989 0.83891 0.74069 0.0
N260 N 0.1834 0.75007 0.72504 0.0
C261 C 0.31057 0.64077 0.74961 0.0
C262 C 0.32631 0.7294 0.7665 0.0
C263 C 0.27218 0.83012 0.76164 0.0
C264 C 0.24424 0.65803 0.72805 0.0
H265 H 0.15508 0.91532 0.7374 0.0
C266 C 0.93666 0.93563 0.7088 0.0
O267 O 0.68473 0.7204 0.7349 0.0
O268 O 0.84421 0.70878 0.75033 0.0
N269 N 0.17426 0.60582 0.68833 0.0
C270 C 0.17807 0.54453 0.66658 0.0
C271 C 0.24687 0.45113 0.66585 0.0
C272 C 0.30575 0.41852 0.68794 0.0
C273 C 0.30216 0.485 0.70984 0.0
C274 C 0.24138 0.58293 0.70843 0.0
H275 H 0.12919 0.56693 0.64999 0.0
O276 O 0.82671 0.55276 0.70971 0.0
O277 O -0.0228 0.64749 0.71175 0.0
O278 O 0.81775 0.72846 0.67117 0.0
O279 O 0.00187 0.7207 0.66501 0.0
C280 C 0.35122 0.45649 0.73345 0.0
C281 C 0.35584 0.53512 0.75337 0.0
H282 H 0.37902 0.72082 0.78325 0.0
H283 H 0.28403 0.8994 0.77442 0.0
H284 H 0.2511 0.40196 0.64865 0.0
H285 H 0.35363 0.34302 0.68784 0.0
H286 H 0.38971 0.37655 0.73608 0.0
H287 H 0.39741 0.51491 0.77114 0.0
Mn288 Mn 0.72358 0.56344 0.82046 0.0
Mn289 Mn 0.70431 0.29719 0.83883 0.0
C290 C 0.88977 0.46127 0.82452 0.0
C291 C 0.71032 0.66433 0.78011 0.0
C292 C 0.71572 0.4901 0.87687 0.0
O293 O 0.55573 0.53781 0.81905 0.0
O294 O 0.55597 0.35854 0.82893 0.0
C295 C 0.62424 0.17936 0.79246 0.0
N296 N 0.70654 0.2033 0.80954 0.0
C297 C 0.83332 0.08507 0.78796 0.0
C298 C 0.75253 0.06344 0.76924 0.0
C299 C 0.64596 0.10753 0.77203 0.0
C300 C 0.80288 0.14819 0.80896 0.0
H301 H 0.54367 0.21662 0.7941 0.0
C302 C 0.505 0.4475 0.82271 0.0
O303 O 0.70392 0.71512 0.80187 0.0
O304 O 0.72669 0.56141 0.78243 0.0
N305 N 0.83684 0.22292 0.84911 0.0
C306 C 0.89123 0.22529 0.87202 0.0
C307 C -0.01476 0.159 0.87571 0.0
C308 C 0.02588 0.09594 0.85534 0.0
C309 C 0.96833 0.09532 0.83197 0.0
C310 C 0.86865 0.15342 0.83046 0.0
H311 H 0.8628 0.2766 0.88736 0.0
O312 O 0.88828 0.56626 0.8218 0.0
O313 O 0.7915 0.41507 0.82226 0.0
O314 O 0.72234 0.57406 0.86149 0.0
O315 O 0.70603 0.39084 0.86877 0.0
C316 C 0.00876 0.04676 0.80951 0.0
C317 C 0.94195 0.04445 0.78719 0.0
H318 H 0.77049 0.01136 0.75306 0.0
H319 H 0.58211 0.08943 0.75802 0.0
H320 H 0.02887 0.16002 0.89387 0.0
H321 H 0.10208 0.05014 0.85771 0.0
H322 H 0.0893 0.00807 0.8094 0.0
H323 H -0.0272 0.00635 0.77002 0.0
Mn324 Mn 0.36173 0.2621 0.07198 0.0
Mn325 Mn 0.61296 0.25615 0.09515 0.0
C326 C 0.45088 0.43838 0.07493 0.0
C327 C 0.28285 0.2264 0.03072 0.0
C328 C 0.40907 0.22442 0.12758 0.0
O329 O 0.40176 0.1007 0.07568 0.0
O330 O 0.58405 0.11801 0.07421 0.0
C331 C 0.70409 0.30263 0.04587 0.0
N332 N 0.71338 0.31412 0.07151 0.0
C333 C 0.83782 0.46676 0.06725 0.0
C334 C 0.83307 0.45227 0.04082 0.0
C335 C 0.76614 0.3703 0.03009 0.0
C336 C 0.77463 0.39578 0.08216 0.0
H337 H 0.64238 0.24858 0.03779 0.0
C338 C 0.49669 0.05795 0.07389 0.0
O339 O 0.22307 0.22055 0.05111 0.0
O340 O 0.38423 0.25125 0.0347 0.0
N341 N 0.65718 0.37824 0.11637 0.0
C342 C 0.61392 0.41598 0.13855 0.0
C343 C 0.67039 0.4962 0.15283 0.0
C344 C 0.7636 0.5473 0.14284 0.0
C345 C 0.79907 0.51687 0.11859 0.0
C346 C 0.74807 0.42608 0.10665 0.0
H347 H 0.53528 0.38917 0.1449 0.0
O348 O 0.35037 0.42828 0.06791 0.0
O349 O 0.49641 0.34224 0.07918 0.0
O350 O 0.3341 0.26236 0.112 0.0
O351 O 0.5066 0.19974 0.12003 0.0
C352 C 0.87466 0.58022 0.10485 0.0
C353 C 0.88963 0.55844 0.07884 0.0
H354 H 0.87193 0.51046 0.02837 0.0
H355 H 0.75588 0.36557 1.00968 0.0
H356 H 0.63919 0.52252 0.17093 0.0
H357 H 0.80206 0.61502 0.15311 0.0
H358 H 0.91339 0.6521 0.11338 0.0
H359 H 0.93679 0.61626 0.06767 0.0
Mn360 Mn 0.67679 0.81542 0.32119 0.0
Mn361 Mn 0.68525 0.06343 0.344 0.0
C362 C 0.50062 0.90492 0.32493 0.0
C363 C 0.70033 0.75404 0.27772 0.0
C364 C 0.72023 0.85757 0.37675 0.0
O365 O 0.83929 0.85033 0.3249 0.0
O366 O 0.82231 0.03283 0.32286 0.0
C367 C 0.62383 0.14982 0.2949 0.0
N368 N 0.6248 0.16515 0.32045 0.0
C369 C 0.47509 0.29483 0.3174 0.0
C370 C 0.48197 0.28911 0.29091 0.0
C371 C 0.55299 0.21285 0.27964 0.0
C372 C 0.54835 0.22991 0.33176 0.0
H373 H 0.67141 0.08379 0.28672 0.0
C374 C 0.88245 0.9449 0.32273 0.0
O375 O 0.70907 0.6856 0.29668 0.0
O376 O 0.68277 0.85333 0.2843 0.0
N377 N 0.56639 0.10794 0.36528 0.0
C378 C 0.52418 0.0581 0.38616 0.0
C379 C 0.45133 0.11624 0.40158 0.0
C380 C 0.40626 0.21615 0.39312 0.0
C381 C 0.43482 0.25516 0.36904 0.0
C382 C 0.52204 0.20286 0.35643 0.0
H383 H 0.54092 -0.02686 0.39026 0.0
O384 O 0.50972 0.80593 0.31728 0.0
O385 O 0.59705 0.94845 0.32919 0.0
O386 O 0.68142 0.78242 0.36134 0.0
O387 O 0.74055 0.95582 0.36889 0.0
C388 C 0.37083 0.33341 0.35586 0.0
C389 C 0.38707 0.34834 0.32966 0.0
H390 H 0.42459 0.33472 0.27915 0.0
H391 H 0.54883 0.19808 0.25942 0.0
H392 H 0.42456 0.08046 0.41906 0.0
H393 H 0.3422 0.25586 0.40404 0.0
H394 H 0.30128 0.37288 0.3649 0.0
H395 H 0.3273 0.39619 0.31888 0.0
Mn396 Mn 0.10719 0.2171 0.57049 0.0
Mn397 Mn 0.84259 0.2363 0.58749 0.0
C398 C 0.00439 0.04941 0.5745 0.0
C399 C 0.19375 0.2144 0.52759 0.0
C400 C 0.03224 0.22339 0.6263 0.0
O401 O 0.08608 0.38431 0.56816 0.0
O402 O 0.91148 0.38364 0.58082 0.0
C403 C 0.73568 0.33805 0.54196 0.0
N404 N 0.75175 0.24922 0.5576 0.0
C405 C 0.62514 0.13947 0.53303 0.0
C406 C 0.60908 0.228 0.51611 0.0
C407 C 0.66257 0.32896 0.52099 0.0
C408 C 0.69131 0.157 0.5546 0.0
H409 H 0.77903 0.41465 0.54527 0.0
C410 C -0.00179 0.43493 0.57381 0.0
O411 O 0.25194 0.22119 0.54827 0.0
O412 O 0.09292 0.20739 0.53235 0.0
N413 N 0.76117 0.10527 0.59437 0.0
C414 C 0.75736 0.04424 0.61617 0.0
C415 C 0.68871 0.95085 0.61694 0.0
C416 C 0.63006 0.91793 0.59485 0.0
C417 C 0.63364 -0.01585 0.5729 0.0
C418 C 0.69421 0.08213 0.57427 0.0
H419 H 0.80607 0.06687 0.63275 0.0
O420 O 0.10905 0.05199 0.57301 0.0
O421 O 0.95831 0.14699 0.57099 0.0
O422 O 0.11729 0.22825 0.61148 0.0
O423 O 0.93317 0.22045 0.61766 0.0
C424 C 0.5847 0.95538 0.5493 0.0
C425 C 0.58007 0.03377 0.52932 0.0
H426 H 0.55644 0.21922 0.49936 0.0
H427 H 0.65033 0.3982 0.50821 0.0
H428 H 0.68446 0.9019 0.63418 0.0
H429 H 0.58232 0.84242 0.59499 0.0
H430 H 0.54627 0.87546 0.54672 0.0
H431 H 0.53848 0.01338 0.51158 0.0
Mn432 Mn 0.76418 0.81706 0.46138 0.0
Mn433 Mn 0.75605 0.06485 0.43836 0.0
C434 C 0.94044 0.90641 0.4578 0.0
C435 C 0.7399 0.75572 0.5048 0.0
C436 C 0.72169 0.85817 0.40576 0.0
O437 O 0.60175 0.85217 0.4575 0.0
O438 O 0.61868 0.03465 0.45937 0.0
C439 C 0.81591 0.15131 0.48752 0.0
N440 N 0.81564 0.16663 0.46196 0.0
C441 C 0.96512 0.2962 0.4652 0.0
C442 C 0.9578 0.29016 0.49168 0.0
C443 C 0.88654 0.21401 0.50286 0.0
C444 C 0.89231 0.23131 0.45075 0.0
H445 H 0.76806 0.0854 0.49564 0.0
C446 C 0.5586 0.94686 0.45957 0.0
O447 O 0.73151 0.68727 0.48583 0.0
O448 O 0.75757 0.85504 0.49824 0.0
N449 N 0.87521 0.10946 0.4172 0.0
C450 C 0.91703 0.06045 0.39618 0.0
C451 C -0.01065 0.11926 0.38077 0.0
C452 C 0.03466 0.21872 0.38941 0.0
C453 C 0.00627 0.25697 0.41357 0.0
C454 C 0.9192 0.20432 0.42612 0.0
H455 H 0.90047 -0.02437 0.39196 0.0
O456 O 0.93113 0.80749 0.46545 0.0
O457 O 0.8441 0.94998 0.45335 0.0
O458 O 0.76004 0.78323 0.42129 0.0
O459 O 0.70186 0.9569 0.41342 0.0
C460 C 0.0699 0.33515 0.42683 0.0
C461 C 0.05323 0.34985 0.45303 0.0
H462 H 0.01516 0.33517 0.50349 0.0
H463 H 0.89043 0.19904 0.52308 0.0
H464 H 0.01553 0.08433 0.36314 0.0
H465 H 0.09848 0.25881 0.37851 0.0
H466 H 0.13938 0.37488 0.41785 0.0
H467 H 0.11266 0.39774 0.46388 0.0
Mn468 Mn 0.07657 0.26261 0.71071 0.0
Mn469 Mn 0.82533 0.25706 0.68751 0.0
C470 C -0.01264 0.439 0.70775 0.0
C471 C 0.15561 0.22684 0.75196 0.0
C472 C 0.02926 0.22508 0.6551 0.0
O473 O 0.03652 0.10127 0.70703 0.0
O474 O 0.8542 0.11884 0.70845 0.0
C475 C 0.73409 0.30358 0.73678 0.0
N476 N 0.72486 0.31513 0.71115 0.0
C477 C 0.60035 0.46792 0.71539 0.0
C478 C 0.60512 0.45343 0.74182 0.0
C479 C 0.672 0.37131 0.75255 0.0
C480 C 0.6636 0.39689 0.70049 0.0
H481 H 0.7958 0.24943 0.74486 0.0
C482 C 0.94158 0.05866 0.70881 0.0
O483 O 0.21531 0.22088 0.73156 0.0
O484 O 0.0542 0.25181 0.748 0.0
N485 N 0.78114 0.37926 0.66629 0.0
C486 C 0.82445 0.41699 0.64412 0.0
C487 C 0.76804 0.49738 0.62985 0.0
C488 C 0.67478 0.54857 0.63982 0.0
C489 C 0.63921 0.51808 0.66405 0.0
C490 C 0.69022 0.42721 0.676 0.0
H491 H 0.90308 0.39001 0.63777 0.0
O492 O 0.08788 0.42877 0.71476 0.0
O493 O 0.94184 0.34292 0.7035 0.0
O494 O 0.1042 0.26286 0.67068 0.0
O495 O 0.93171 0.20051 0.66264 0.0
C496 C 0.56349 0.58145 0.67779 0.0
C497 C 0.54842 0.55961 0.70379 0.0
H498 H 0.56633 0.51174 0.75427 0.0
H499 H 0.6822 0.36651 0.77297 0.0
H500 H 0.79931 0.52374 0.61176 0.0
H501 H 0.63634 0.61638 0.62955 0.0
H502 H 0.5247 0.65336 0.66925 0.0
H503 H 0.50109 0.61737 0.71495 0.0
Mn504 Mn 0.71465 0.56297 0.96218 0.0
Mn505 Mn 0.73434 0.29685 0.94375 0.0
C506 C 0.54859 0.46084 0.95811 0.0
C507 C 0.72788 0.66361 1.00254 0.0
C508 C 0.72294 0.49002 0.90576 0.0
O509 O 0.8825 0.53732 0.96357 0.0
O510 O 0.88257 0.35798 0.95376 0.0
C511 C 0.81383 0.17853 0.99014 0.0
N512 N 0.73178 0.20269 0.973 0.0
C513 C 0.60467 0.08459 0.99446 0.0
C514 C 0.68517 0.06278 1.01324 0.0
C515 C 0.7918 0.10666 1.01054 0.0
C516 C 0.63544 0.14771 0.97349 0.0
H517 H 0.89443 0.21569 0.98856 0.0
C518 C 0.93337 0.44699 0.95996 0.0
O519 O 0.73418 0.71452 0.9808 0.0
O520 O 0.71162 0.5607 1.0002 0.0
N521 N 0.60194 0.22285 0.93336 0.0
C522 C 0.54774 0.22559 0.91043 0.0
C523 C 0.45381 0.15945 0.90664 0.0
C524 C 0.41302 0.09615 0.92694 0.0
C525 C 0.47029 0.09524 0.95035 0.0
C526 C 0.56995 0.15319 0.95194 0.0
H527 H 0.57626 0.27709 0.89513 0.0
O528 O 0.54993 0.56582 0.96086 0.0
O529 O 0.64694 0.41464 0.96033 0.0
O530 O 0.71586 0.57387 0.92116 0.0
O531 O 0.73295 0.39073 0.91384 0.0
C532 C 0.42954 0.04664 0.97277 0.0
C533 C 0.49601 0.04417 0.99514 0.0
H534 H 0.66694 0.0107 0.02941 0.0
H535 H 0.85544 0.0884 0.0246 0.0
H536 H 0.41035 0.16077 0.88846 0.0
H537 H 0.33686 0.05046 0.9245 0.0
H538 H 0.34899 0.00809 0.97281 0.0
H539 H 0.46486 0.00617 1.01229 0.0
Mn540 Mn 0.33176 0.21613 0.2122 0.0
Mn541 Mn 0.59626 0.23502 0.1951 0.0
C542 C 0.43465 0.04829 0.20817 0.0
C543 C 0.24599 0.21303 0.25523 0.0
C544 C 0.40619 0.22266 0.15638 0.0
O545 O 0.35278 0.38331 0.21452 0.0
O546 O 0.52748 0.38243 0.20191 0.0
C547 C 0.70406 0.33606 0.24058 0.0
N548 N 0.68758 0.24741 0.22492 0.0
C549 C 0.81425 0.13697 0.24936 0.0
C550 C 0.83071 0.22529 0.26631 0.0
C551 C 0.77742 0.32651 0.26149 0.0
C552 C 0.74794 0.15499 0.22783 0.0
H553 H 0.66083 0.41285 0.23733 0.0
C554 C 0.44071 0.43383 0.20892 0.0
O555 O 0.18744 0.21988 0.23461 0.0
O556 O 0.34671 0.20634 0.25035 0.0
N557 N 0.67749 0.10388 0.18809 0.0
C558 C 0.68088 0.04303 0.16626 0.0
C559 C 0.7495 0.94953 0.16538 0.0
C560 C 0.80857 0.91631 0.18739 0.0
C561 C 0.80534 -0.01772 0.20938 0.0
C562 C 0.74477 0.08038 0.20812 0.0
H563 H 0.63187 0.06589 0.14973 0.0
O564 O 0.33002 0.05104 0.20969 0.0
O565 O 0.48071 0.14578 0.21166 0.0
O566 O 0.32122 0.22735 0.17122 0.0
O567 O 0.50528 0.21971 0.165 0.0
C568 C 0.85444 0.95304 0.23294 0.0
C569 C 0.85906 0.03104 0.25299 0.0
H570 H 0.88351 0.21614 0.28302 0.0
H571 H 0.78998 0.3956 0.2743 0.0
H572 H 0.75339 0.90072 0.14812 0.0
H573 H 0.85626 0.8407 0.18717 0.0
H574 H 0.89294 0.87304 0.23544 0.0
H575 H 0.9005 0.0102 0.27073 0.0
loop_
_geom_bond_atom_site_label_1
_geom_bond_atom_site_label_2
_geom_bond_distance
_geom_bond_site_symmetry_2
_ccdc_geom_bond_type
Mn0 O5 2.095 . S
Mn0 O15 2.162 . S
Mn0 O16 2.297 . S
Mn0 O24 2.385 . S
Mn0 O25 2.209 . S
Mn0 O26 2.094 . S
Mn1 O6 2.121 . S
Mn1 N8 2.257 . S
Mn1 N17 2.282 . S
Mn1 O25 2.215 1_565 S
Mn1 O27 2.117 1_565 S
C2 O24 1.234 . S
C2 O25 1.283 . S
C3 O15 1.281 . S
C3 O16 1.236 . S
C4 O26 1.240 . S
C4 O27 1.264 . S
O5 Mn0 2.095 . S
O5 C14 1.250 . S
O6 Mn1 2.121 . S
O6 C14 1.258 1_565 S
C7 N8 1.326 . S
C7 C11 1.460 . S
C7 H13 0.929 . S
N8 Mn1 2.257 . S
N8 C7 1.326 . S
N8 C12 1.362 . S
C9 C10 1.258 . S
C9 C12 1.431 . S
C9 C29 1.449 . S
C10 C9 1.258 . S
C10 C11 1.477 . S
C10 H30 0.931 . S
C11 C7 1.460 . S
C11 C10 1.477 . S
C11 H31 0.930 . S
C12 N8 1.362 . S
C12 C9 1.431 . S
C12 C22 1.476 . S
H13 C7 0.929 . S
C14 O5 1.250 . S
C14 O6 1.258 1_545 S
O15 Mn0 2.162 . S
O15 C3 1.281 . S
O16 Mn0 2.297 . S
O16 C3 1.236 . S
N17 Mn1 2.282 . S
N17 C18 1.328 . S
N17 C22 1.318 . S
C18 N17 1.328 . S
C18 C19 1.457 . S
C18 H23 0.929 1_565 S
C19 C18 1.457 . S
C19 C20 1.291 . S
C19 H32 0.931 . S
C20 C19 1.291 . S
C20 C21 1.373 . S
C20 H33 0.929 . S
C21 C20 1.373 . S
C21 C22 1.396 . S
C21 C28 1.403 . S
C22 C12 1.476 . S
C22 N17 1.318 . S
C22 C21 1.396 . S
H23 C18 0.929 1_545 S
O24 Mn0 2.385 . S
O24 C2 1.234 . S
O25 Mn0 2.209 . S
O25 Mn1 2.215 1_545 S
O25 C2 1.283 . S
O26 Mn0 2.094 . S
O26 C4 1.240 . S
O27 Mn1 2.117 1_545 S
O27 C4 1.264 . S
C28 C21 1.403 . S
C28 C29 1.399 . S
C28 H34 0.929 . S
C29 C9 1.449 . S
C29 C28 1.399 . S
C29 H35 0.930 . S
H30 C10 0.931 . S
H31 C11 0.930 . S
H32 C19 0.931 . S
H33 C20 0.929 . S
H34 C28 0.929 . S
H35 C29 0.930 . S
Mn36 O41 2.095 . S
Mn36 O51 2.162 . S
Mn36 O52 2.297 . S
Mn36 O60 2.385 . S
Mn36 O61 2.209 . S
Mn36 O62 2.094 . S
Mn37 O42 2.121 . S
Mn37 N44 2.257 . S
Mn37 N53 2.282 . S
Mn37 O61 2.215 1_455 S
Mn37 O63 2.117 1_455 S
C38 O60 1.234 . S
C38 O61 1.283 . S
C39 O51 1.281 . S
C39 O52 1.236 . S
C40 O62 1.240 . S
C40 O63 1.264 . S
O41 Mn36 2.095 . S
O41 C50 1.250 . S
O42 Mn37 2.121 . S
O42 C50 1.258 1_455 S
C43 N44 1.326 . S
C43 C47 1.460 . S
C43 H49 0.929 . S
N44 Mn37 2.257 . S
N44 C43 1.326 . S
N44 C48 1.362 . S
C45 C46 1.258 . S
C45 C48 1.431 . S
C45 C65 1.449 1_565 S
C46 C45 1.258 . S
C46 C47 1.477 . S
C46 H66 0.931 . S
C47 C43 1.460 . S
C47 C46 1.477 . S
C47 H67 0.930 . S
C48 N44 1.362 . S
C48 C45 1.431 . S
C48 C58 1.476 . S
H49 C43 0.929 . S
C50 O41 1.250 . S
C50 O42 1.258 1_655 S
O51 Mn36 2.162 . S
O51 C39 1.281 . S
O52 Mn36 2.297 . S
O52 C39 1.236 . S
N53 Mn37 2.282 . S
N53 C54 1.328 . S
N53 C58 1.318 . S
C54 N53 1.328 . S
C54 C55 1.457 1_565 S
C54 H59 0.929 1_455 S
C55 C54 1.457 1_545 S
C55 C56 1.291 . S
C55 H68 0.931 . S
C56 C55 1.291 . S
C56 C57 1.373 . S
C56 H69 0.929 . S
C57 C56 1.373 . S
C57 C58 1.396 1_545 S
C57 C64 1.403 . S
C58 C48 1.476 . S
C58 N53 1.318 . S
C58 C57 1.396 1_565 S
H59 C54 0.929 1_655 S
O60 Mn36 2.385 . S
O60 C38 1.234 . S
O61 Mn36 2.209 . S
O61 Mn37 2.215 1_655 S
O61 C38 1.283 . S
O62 Mn36 2.094 . S
O62 C40 1.240 . S
O63 Mn37 2.117 1_655 S
O63 C40 1.264 . S
C64 C57 1.403 . S
C64 C65 1.399 . S
C64 H70 0.929 . S
C65 C45 1.449 1_545 S
C65 C64 1.399 . S
C65 H71 0.930 . S
H66 C46 0.931 . S
H67 C47 0.930 . S
H68 C55 0.931 . S
H69 C56 0.929 . S
H70 C64 0.929 . S
H71 C65 0.930 . S
Mn72 O77 2.095 . S
Mn72 O87 2.162 . S
Mn72 O88 2.297 . S
Mn72 O96 2.385 . S
Mn72 O97 2.209 . S
Mn72 O98 2.094 . S
Mn73 O78 2.121 . S
Mn73 N80 2.257 . S
Mn73 N89 2.282 . S
Mn73 O97 2.215 . S
Mn73 O99 2.117 . S
C74 O96 1.234 . S
C74 O97 1.283 . S
C75 O87 1.281 . S
C75 O88 1.236 . S
C76 O98 1.240 . S
C76 O99 1.264 . S
O77 Mn72 2.095 . S
O77 C86 1.250 . S
O78 Mn73 2.121 . S
O78 C86 1.258 . S
C79 N80 1.326 . S
C79 C83 1.460 . S
C79 H85 0.929 . S
N80 Mn73 2.257 . S
N80 C79 1.326 . S
N80 C84 1.362 . S
C81 C82 1.258 . S
C81 C84 1.431 . S
C81 C101 1.449 1_455 S
C82 C81 1.258 . S
C82 C83 1.477 . S
C82 H102 0.931 1_565 S
C83 C79 1.460 . S
C83 C82 1.477 . S
C83 H103 0.930 . S
C84 N80 1.362 . S
C84 C81 1.431 . S
C84 C94 1.476 . S
H85 C79 0.929 . S
C86 O77 1.250 . S
C86 O78 1.258 . S
O87 Mn72 2.162 . S
O87 C75 1.281 . S
O88 Mn72 2.297 . S
O88 C75 1.236 . S
N89 Mn73 2.282 . S
N89 C90 1.328 . S
N89 C94 1.318 . S
C90 N89 1.328 . S
C90 C91 1.457 1_455 S
C90 H95 0.929 . S
C91 C90 1.457 1_655 S
C91 C92 1.291 . S
C91 H104 0.931 . S
C92 C91 1.291 . S
C92 C93 1.373 . S
C92 H105 0.929 . S
C93 C92 1.373 . S
C93 C94 1.396 1_655 S
C93 C100 1.403 . S
C94 C84 1.476 . S
C94 N89 1.318 . S
C94 C93 1.396 1_455 S
H95 C90 0.929 . S
O96 Mn72 2.385 . S
O96 C74 1.234 . S
O97 Mn72 2.209 . S
O97 Mn73 2.215 . S
O97 C74 1.283 . S
O98 Mn72 2.094 . S
O98 C76 1.240 . S
O99 Mn73 2.117 . S
O99 C76 1.264 . S
C100 C93 1.403 . S
C100 C101 1.399 . S
C100 H106 0.929 . S
C101 C81 1.449 1_655 S
C101 C100 1.399 . S
C101 H107 0.930 1_565 S
H102 C82 0.931 1_545 S
H103 C83 0.930 . S
H104 C91 0.931 . S
H105 C92 0.929 . S
H106 C100 0.929 . S
H107 C101 0.930 1_545 S
Mn108 O113 2.095 . S
Mn108 O123 2.162 . S
Mn108 O124 2.297 . S
Mn108 O132 2.385 . S
Mn108 O133 2.209 . S
Mn108 O134 2.094 . S
Mn109 O114 2.121 . S
Mn109 N116 2.257 . S
Mn109 N125 2.282 . S
Mn109 O133 2.215 . S
Mn109 O135 2.117 . S
C110 O132 1.234 . S
C110 O133 1.283 . S
C111 O123 1.281 . S
C111 O124 1.236 . S
C112 O134 1.240 . S
C112 O135 1.264 . S
O113 Mn108 2.095 . S
O113 C122 1.250 . S
O114 Mn109 2.121 . S
O114 C122 1.258 . S
C115 N116 1.326 . S
C115 C119 1.460 . S
C115 H121 0.929 . S
N116 Mn109 2.257 . S
N116 C115 1.326 . S
N116 C120 1.362 . S
C117 C118 1.258 . S
C117 C120 1.431 . S
C117 C137 1.449 . S
C118 C117 1.258 . S
C118 C119 1.477 . S
C118 H138 0.931 1_455 S
C119 C115 1.460 . S
C119 C118 1.477 . S
C119 H139 0.930 . S
C120 N116 1.362 . S
C120 C117 1.431 . S
C120 C130 1.476 . S
H121 C115 0.929 . S
C122 O113 1.250 . S
C122 O114 1.258 . S
O123 Mn108 2.162 . S
O123 C111 1.281 . S
O124 Mn108 2.297 . S
O124 C111 1.236 . S
N125 Mn109 2.282 . S
N125 C126 1.328 . S
N125 C130 1.318 . S
C126 N125 1.328 . S
C126 C127 1.457 . S
C126 H131 0.929 . S
C127 C126 1.457 . S
C127 C128 1.291 . S
C127 H140 0.931 . S
C128 C127 1.291 . S
C128 C129 1.373 . S
C128 H141 0.929 . S
C129 C128 1.373 . S
C129 C130 1.396 . S
C129 C136 1.403 . S
C130 C120 1.476 . S
C130 N125 1.318 . S
C130 C129 1.396 . S
H131 C126 0.929 . S
O132 Mn108 2.385 . S
O132 C110 1.234 . S
O133 Mn108 2.209 . S
O133 Mn109 2.215 . S
O133 C110 1.283 . S
O134 Mn108 2.094 . S
O134 C112 1.240 . S
O135 Mn109 2.117 . S
O135 C112 1.264 . S
C136 C129 1.403 . S
C136 C137 1.399 . S
C136 H142 0.929 . S
C137 C117 1.449 . S
C137 C136 1.399 . S
C137 H143 0.930 1_455 S
H138 C118 0.931 1_655 S
H139 C119 0.930 . S
H140 C127 0.931 . S
H141 C128 0.929 . S
H142 C136 0.929 . S
H143 C137 0.930 1_655 S
Mn144 O149 2.095 . S
Mn144 O159 2.162 . S
Mn144 O160 2.297 . S
Mn144 O168 2.385 . S
Mn144 O169 2.209 . S
Mn144 O170 2.094 . S
Mn145 O150 2.121 . S
Mn145 N152 2.257 . S
Mn145 N161 2.282 . S
Mn145 O169 2.215 . S
Mn145 O171 2.117 . S
C146 O168 1.234 . S
C146 O169 1.283 . S
C147 O159 1.281 . S
C147 O160 1.236 . S
C148 O170 1.240 . S
C148 O171 1.264 . S
O149 Mn144 2.095 . S
O149 C158 1.250 . S
O150 Mn145 2.121 . S
O150 C158 1.258 . S
C151 N152 1.326 . S
C151 C155 1.460 . S
C151 H157 0.929 . S
N152 Mn145 2.257 . S
N152 C151 1.326 . S
N152 C156 1.362 . S
C153 C154 1.258 . S
C153 C156 1.431 . S
C153 C173 1.449 . S
C154 C153 1.258 . S
C154 C155 1.477 . S
C154 H174 0.931 1_565 S
C155 C151 1.460 . S
C155 C154 1.477 . S
C155 H175 0.930 . S
C156 N152 1.362 . S
C156 C153 1.431 . S
C156 C166 1.476 . S
H157 C151 0.929 . S
C158 O149 1.250 . S
C158 O150 1.258 . S
O159 Mn144 2.162 . S
O159 C147 1.281 . S
O160 Mn144 2.297 . S
O160 C147 1.236 . S
N161 Mn145 2.282 . S
N161 C162 1.328 . S
N161 C166 1.318 . S
C162 N161 1.328 . S
C162 C163 1.457 . S
C162 H167 0.929 . S
C163 C162 1.457 . S
C163 C164 1.291 . S
C163 H176 0.931 . S
C164 C163 1.291 . S
C164 C165 1.373 . S
C164 H177 0.929 . S
C165 C164 1.373 . S
C165 C166 1.396 . S
C165 C172 1.403 . S
C166 C156 1.476 . S
C166 N161 1.318 . S
C166 C165 1.396 . S
H167 C162 0.929 . S
O168 Mn144 2.385 . S
O168 C146 1.234 . S
O169 Mn144 2.209 . S
O169 Mn145 2.215 . S
O169 C146 1.283 . S
O170 Mn144 2.094 . S
O170 C148 1.240 . S
O171 Mn145 2.117 . S
O171 C148 1.264 . S
C172 C165 1.403 . S
C172 C173 1.399 . S
C172 H178 0.929 . S
C173 C153 1.449 . S
C173 C172 1.399 . S
C173 H179 0.930 1_565 S
H174 C154 0.931 1_545 S
H175 C155 0.930 . S
H176 C163 0.931 . S
H177 C164 0.929 . S
H178 C172 0.929 . S
H179 C173 0.930 1_545 S
Mn180 O185 2.095 . S
Mn180 O195 2.162 . S
Mn180 O196 2.297 . S
Mn180 O204 2.385 . S
Mn180 O205 2.209 . S
Mn180 O206 2.094 . S
Mn181 O186 2.121 . S
Mn181 N188 2.257 . S
Mn181 N197 2.282 . S
Mn181 O205 2.215 . S
Mn181 O207 2.117 . S
C182 O204 1.234 . S
C182 O205 1.283 . S
C183 O195 1.281 . S
C183 O196 1.236 . S
C184 O206 1.240 . S
C184 O207 1.264 . S
O185 Mn180 2.095 . S
O185 C194 1.250 . S
O186 Mn181 2.121 . S
O186 C194 1.258 . S
C187 N188 1.326 . S
C187 C191 1.460 . S
C187 H193 0.929 . S
N188 Mn181 2.257 . S
N188 C187 1.326 . S
N188 C192 1.362 . S
C189 C190 1.258 . S
C189 C192 1.431 . S
C189 C209 1.449 1_565 S
C190 C189 1.258 . S
C190 C191 1.477 . S
C190 H210 0.931 1_455 S
C191 C187 1.460 . S
C191 C190 1.477 . S
C191 H211 0.930 . S
C192 N188 1.362 . S
C192 C189 1.431 . S
C192 C202 1.476 . S
H193 C187 0.929 . S
C194 O185 1.250 . S
C194 O186 1.258 . S
O195 Mn180 2.162 . S
O195 C183 1.281 . S
O196 Mn180 2.297 . S
O196 C183 1.236 . S
N197 Mn181 2.282 . S
N197 C198 1.328 . S
N197 C202 1.318 . S
C198 N197 1.328 . S
C198 C199 1.457 1_565 S
C198 H203 0.929 . S
C199 C198 1.457 1_545 S
C199 C200 1.291 . S
C199 H212 0.931 . S
C200 C199 1.291 . S
C200 C201 1.373 . S
C200 H213 0.929 . S
C201 C200 1.373 . S
C201 C202 1.396 1_545 S
C201 C208 1.403 . S
C202 C192 1.476 . S
C202 N197 1.318 . S
C202 C201 1.396 1_565 S
H203 C198 0.929 . S
O204 Mn180 2.385 . S
O204 C182 1.234 . S
O205 Mn180 2.209 . S
O205 Mn181 2.215 . S
O205 C182 1.283 . S
O206 Mn180 2.094 . S
O206 C184 1.240 . S
O207 Mn181 2.117 . S
O207 C184 1.264 . S
C208 C201 1.403 . S
C208 C209 1.399 . S
C208 H214 0.929 . S
C209 C189 1.449 1_545 S
C209 C208 1.399 . S
C209 H215 0.930 1_455 S
H210 C190 0.931 1_655 S
H211 C191 0.930 . S
H212 C199 0.931 . S
H213 C200 0.929 . S
H214 C208 0.929 . S
H215 C209 0.930 1_655 S
Mn216 O221 2.095 . S
Mn216 O231 2.162 . S
Mn216 O232 2.297 . S
Mn216 O240 2.385 . S
Mn216 O241 2.209 . S
Mn216 O242 2.094 . S
Mn217 O222 2.121 . S
Mn217 N224 2.257 . S
Mn217 N233 2.282 . S
Mn217 O241 2.215 1_565 S
Mn217 O243 2.117 1_565 S
C218 O240 1.234 . S
C218 O241 1.283 . S
C219 O231 1.281 . S
C219 O232 1.236 . S
C220 O242 1.240 . S
C220 O243 1.264 . S
O221 Mn216 2.095 . S
O221 C230 1.250 . S
O222 Mn217 2.121 . S
O222 C230 1.258 1_565 S
C223 N224 1.326 . S
C223 C227 1.460 . S
C223 H229 0.929 . S
N224 Mn217 2.257 . S
N224 C223 1.326 . S
N224 C228 1.362 . S
C225 C226 1.258 . S
C225 C228 1.431 . S
C225 C245 1.449 1_455 S
C226 C225 1.258 . S
C226 C227 1.477 . S
C226 H246 0.931 . S
C227 C223 1.460 . S
C227 C226 1.477 . S
C227 H247 0.930 . S
C228 N224 1.362 . S
C228 C225 1.431 . S
C228 C238 1.476 . S
H229 C223 0.929 . S
C230 O221 1.250 . S
C230 O222 1.258 1_545 S
O231 Mn216 2.162 . S
O231 C219 1.281 . S
O232 Mn216 2.297 . S
O232 C219 1.236 . S
N233 Mn217 2.282 . S
N233 C234 1.328 . S
N233 C238 1.318 . S
C234 N233 1.328 . S
C234 C235 1.457 1_455 S
C234 H239 0.929 1_565 S
C235 C234 1.457 1_655 S
C235 C236 1.291 . S
C235 H248 0.931 . S
C236 C235 1.291 . S
C236 C237 1.373 . S
C236 H249 0.929 . S
C237 C236 1.373 . S
C237 C238 1.396 1_655 S
C237 C244 1.403 . S
C238 C228 1.476 . S
C238 N233 1.318 . S
C238 C237 1.396 1_455 S
H239 C234 0.929 1_545 S
O240 Mn216 2.385 . S
O240 C218 1.234 . S
O241 Mn216 2.209 . S
O241 Mn217 2.215 1_545 S
O241 C218 1.283 . S
O242 Mn216 2.094 . S
O242 C220 1.240 . S
O243 Mn217 2.117 1_545 S
O243 C220 1.264 . S
C244 C237 1.403 . S
C244 C245 1.399 . S
C244 H250 0.929 . S
C245 C225 1.449 1_655 S
C245 C244 1.399 . S
C245 H251 0.930 . S
H246 C226 0.931 . S
H247 C227 0.930 . S
H248 C235 0.931 . S
H249 C236 0.929 . S
H250 C244 0.929 . S
H251 C245 0.930 . S
Mn252 O257 2.095 . S
Mn252 O267 2.162 . S
Mn252 O268 2.297 . S
Mn252 O276 2.385 . S
Mn252 O277 2.209 . S
Mn252 O278 2.094 . S
Mn253 O258 2.121 . S
Mn253 N260 2.257 . S
Mn253 N269 2.282 . S
Mn253 O277 2.215 1_455 S
Mn253 O279 2.117 1_455 S
C254 O276 1.234 . S
C254 O277 1.283 . S
C255 O267 1.281 . S
C255 O268 1.236 . S
C256 O278 1.240 . S
C256 O279 1.264 . S
O257 Mn252 2.095 . S
O257 C266 1.250 . S
O258 Mn253 2.121 . S
O258 C266 1.258 1_455 S
C259 N260 1.326 . S
C259 C263 1.460 . S
C259 H265 0.929 . S
N260 Mn253 2.257 . S
N260 C259 1.326 . S
N260 C264 1.362 . S
C261 C262 1.258 . S
C261 C264 1.431 . S
C261 C281 1.449 . S
C262 C261 1.258 . S
C262 C263 1.477 . S
C262 H282 0.931 . S
C263 C259 1.460 . S
C263 C262 1.477 . S
C263 H283 0.930 . S
C264 N260 1.362 . S
C264 C261 1.431 . S
C264 C274 1.476 . S
H265 C259 0.929 . S
C266 O257 1.250 . S
C266 O258 1.258 1_655 S
O267 Mn252 2.162 . S
O267 C255 1.281 . S
O268 Mn252 2.297 . S
O268 C255 1.236 . S
N269 Mn253 2.282 . S
N269 C270 1.328 . S
N269 C274 1.318 . S
C270 N269 1.328 . S
C270 C271 1.457 . S
C270 H275 0.929 1_455 S
C271 C270 1.457 . S
C271 C272 1.291 . S
C271 H284 0.931 . S
C272 C271 1.291 . S
C272 C273 1.373 . S
C272 H285 0.929 . S
C273 C272 1.373 . S
C273 C274 1.396 . S
C273 C280 1.403 . S
C274 C264 1.476 . S
C274 N269 1.318 . S
C274 C273 1.396 . S
H275 C270 0.929 1_655 S
O276 Mn252 2.385 . S
O276 C254 1.234 . S
O277 Mn252 2.209 . S
O277 Mn253 2.215 1_655 S
O277 C254 1.283 . S
O278 Mn252 2.094 . S
O278 C256 1.240 . S
O279 Mn253 2.117 1_655 S
O279 C256 1.264 . S
C280 C273 1.403 . S
C280 C281 1.399 . S
C280 H286 0.929 . S
C281 C261 1.449 . S
C281 C280 1.399 . S
C281 H287 0.930 . S
H282 C262 0.931 . S
H283 C263 0.930 . S
H284 C271 0.931 . S
H285 C272 0.929 . S
H286 C280 0.929 . S
H287 C281 0.930 . S
Mn288 O293 2.095 . S
Mn288 O303 2.162 . S
Mn288 O304 2.297 . S
Mn288 O312 2.385 . S
Mn288 O313 2.209 . S
Mn288 O314 2.094 . S
Mn289 O294 2.121 . S
Mn289 N296 2.257 . S
Mn289 N305 2.282 . S
Mn289 O313 2.215 . S
Mn289 O315 2.117 . S
C290 O312 1.234 . S
C290 O313 1.283 . S
C291 O303 1.281 . S
C291 O304 1.236 . S
C292 O314 1.240 . S
C292 O315 1.264 . S
O293 Mn288 2.095 . S
O293 C302 1.250 . S
O294 Mn289 2.121 . S
O294 C302 1.258 . S
C295 N296 1.326 . S
C295 C299 1.460 . S
C295 H301 0.929 . S
N296 Mn289 2.257 . S
N296 C295 1.326 . S
N296 C300 1.362 . S
C297 C298 1.258 . S
C297 C300 1.431 . S
C297 C317 1.449 1_655 S
C298 C297 1.258 . S
C298 C299 1.477 . S
C298 H318 0.931 1_545 S
C299 C295 1.460 . S
C299 C298 1.477 . S
C299 H319 0.930 . S
C300 N296 1.362 . S
C300 C297 1.431 . S
C300 C310 1.476 . S
H301 C295 0.929 . S
C302 O293 1.250 . S
C302 O294 1.258 . S
O303 Mn288 2.162 . S
O303 C291 1.281 . S
O304 Mn288 2.297 . S
O304 C291 1.236 . S
N305 Mn289 2.282 . S
N305 C306 1.328 . S
N305 C310 1.318 . S
C306 N305 1.328 . S
C306 C307 1.457 1_655 S
C306 H311 0.929 . S
C307 C306 1.457 1_455 S
C307 C308 1.291 . S
C307 H320 0.931 . S
C308 C307 1.291 . S
C308 C309 1.373 . S
C308 H321 0.929 . S
C309 C308 1.373 . S
C309 C310 1.396 1_455 S
C309 C316 1.403 . S
C310 C300 1.476 . S
C310 N305 1.318 . S
C310 C309 1.396 1_655 S
H311 C306 0.929 . S
O312 Mn288 2.385 . S
O312 C290 1.234 . S
O313 Mn288 2.209 . S
O313 Mn289 2.215 . S
O313 C290 1.283 . S
O314 Mn288 2.094 . S
O314 C292 1.240 . S
O315 Mn289 2.117 . S
O315 C292 1.264 . S
C316 C309 1.403 . S
C316 C317 1.399 . S
C316 H322 0.929 . S
C317 C297 1.449 1_455 S
C317 C316 1.399 . S
C317 H323 0.930 1_545 S
H318 C298 0.931 1_565 S
H319 C299 0.930 . S
H320 C307 0.931 . S
H321 C308 0.929 . S
H322 C316 0.929 . S
H323 C317 0.930 1_565 S
Mn324 O329 2.095 . S
Mn324 O339 2.162 . S
Mn324 O340 2.297 . S
Mn324 O348 2.385 . S
Mn324 O349 2.209 . S
Mn324 O350 2.094 . S
Mn325 O330 2.121 . S
Mn325 N332 2.257 . S
Mn325 N341 2.282 . S
Mn325 O349 2.215 . S
Mn325 O351 2.117 . S
C326 O348 1.234 . S
C326 O349 1.283 . S
C327 O339 1.281 . S
C327 O340 1.236 . S
C328 O350 1.240 . S
C328 O351 1.264 . S
O329 Mn324 2.095 . S
O329 C338 1.250 . S
O330 Mn325 2.121 . S
O330 C338 1.258 . S
C331 N332 1.326 . S
C331 C335 1.460 . S
C331 H337 0.929 . S
N332 Mn325 2.257 . S
N332 C331 1.326 . S
N332 C336 1.362 . S
C333 C334 1.258 . S
C333 C336 1.431 . S
C333 C353 1.449 . S
C334 C333 1.258 . S
C334 C335 1.477 . S
C334 H354 0.931 1_655 S
C335 C331 1.460 . S
C335 C334 1.477 . S
C335 H355 0.930 . S
C336 N332 1.362 . S
C336 C333 1.431 . S
C336 C346 1.476 . S
H337 C331 0.929 . S
C338 O329 1.250 . S
C338 O330 1.258 . S
O339 Mn324 2.162 . S
O339 C327 1.281 . S
O340 Mn324 2.297 . S
O340 C327 1.236 . S
N341 Mn325 2.282 . S
N341 C342 1.328 . S
N341 C346 1.318 . S
C342 N341 1.328 . S
C342 C343 1.457 . S
C342 H347 0.929 . S
C343 C342 1.457 . S
C343 C344 1.291 . S
C343 H356 0.931 . S
C344 C343 1.291 . S
C344 C345 1.373 . S
C344 H357 0.929 . S
C345 C344 1.373 . S
C345 C346 1.396 . S
C345 C352 1.403 . S
C346 C336 1.476 . S
C346 N341 1.318 . S
C346 C345 1.396 . S
H347 C342 0.929 . S
O348 Mn324 2.385 . S
O348 C326 1.234 . S
O349 Mn324 2.209 . S
O349 Mn325 2.215 . S
O349 C326 1.283 . S
O350 Mn324 2.094 . S
O350 C328 1.240 . S
O351 Mn325 2.117 . S
O351 C328 1.264 . S
C352 C345 1.403 . S
C352 C353 1.399 . S
C352 H358 0.929 . S
C353 C333 1.449 . S
C353 C352 1.399 . S
C353 H359 0.930 1_655 S
H354 C334 0.931 1_455 S
H355 C335 0.930 . S
H356 C343 0.931 . S
H357 C344 0.929 . S
H358 C352 0.929 . S
H359 C353 0.930 1_455 S
Mn360 O365 2.095 . S
Mn360 O375 2.162 . S
Mn360 O376 2.297 . S
Mn360 O384 2.385 . S
Mn360 O385 2.209 . S
Mn360 O386 2.094 . S
Mn361 O366 2.121 . S
Mn361 N368 2.257 . S
Mn361 N377 2.282 . S
Mn361 O385 2.215 1_545 S
Mn361 O387 2.117 1_545 S
C362 O384 1.234 . S
C362 O385 1.283 . S
C363 O375 1.281 . S
C363 O376 1.236 . S
C364 O386 1.240 . S
C364 O387 1.264 . S
O365 Mn360 2.095 . S
O365 C374 1.250 . S
O366 Mn361 2.121 . S
O366 C374 1.258 1_545 S
C367 N368 1.326 . S
C367 C371 1.460 . S
C367 H373 0.929 . S
N368 Mn361 2.257 . S
N368 C367 1.326 . S
N368 C372 1.362 . S
C369 C370 1.258 . S
C369 C372 1.431 . S
C369 C389 1.449 . S
C370 C369 1.258 . S
C370 C371 1.477 . S
C370 H390 0.931 . S
C371 C367 1.460 . S
C371 C370 1.477 . S
C371 H391 0.930 . S
C372 N368 1.362 . S
C372 C369 1.431 . S
C372 C382 1.476 . S
H373 C367 0.929 . S
C374 O365 1.250 . S
C374 O366 1.258 1_565 S
O375 Mn360 2.162 . S
O375 C363 1.281 . S
O376 Mn360 2.297 . S
O376 C363 1.236 . S
N377 Mn361 2.282 . S
N377 C378 1.328 . S
N377 C382 1.318 . S
C378 N377 1.328 . S
C378 C379 1.457 . S
C378 H383 0.929 1_545 S
C379 C378 1.457 . S
C379 C380 1.291 . S
C379 H392 0.931 . S
C380 C379 1.291 . S
C380 C381 1.373 . S
C380 H393 0.929 . S
C381 C380 1.373 . S
C381 C382 1.396 . S
C381 C388 1.403 . S
C382 C372 1.476 . S
C382 N377 1.318 . S
C382 C381 1.396 . S
H383 C378 0.929 1_565 S
O384 Mn360 2.385 . S
O384 C362 1.234 . S
O385 Mn360 2.209 . S
O385 Mn361 2.215 1_565 S
O385 C362 1.283 . S
O386 Mn360 2.094 . S
O386 C364 1.240 . S
O387 Mn361 2.117 1_565 S
O387 C364 1.264 . S
C388 C381 1.403 . S
C388 C389 1.399 . S
C388 H394 0.929 . S
C389 C369 1.449 . S
C389 C388 1.399 . S
C389 H395 0.930 . S
H390 C370 0.931 . S
H391 C371 0.930 . S
H392 C379 0.931 . S
H393 C380 0.929 . S
H394 C388 0.929 . S
H395 C389 0.930 . S
Mn396 O401 2.095 . S
Mn396 O411 2.162 . S
Mn396 O412 2.297 . S
Mn396 O420 2.385 . S
Mn396 O421 2.209 . S
Mn396 O422 2.094 . S
Mn397 O402 2.121 . S
Mn397 N404 2.257 . S
Mn397 N413 2.282 . S
Mn397 O421 2.215 1_655 S
Mn397 O423 2.117 1_655 S
C398 O420 1.234 . S
C398 O421 1.283 . S
C399 O411 1.281 . S
C399 O412 1.236 . S
C400 O422 1.240 . S
C400 O423 1.264 . S
O401 Mn396 2.095 . S
O401 C410 1.250 . S
O402 Mn397 2.121 . S
O402 C410 1.258 1_655 S
C403 N404 1.326 . S
C403 C407 1.460 . S
C403 H409 0.929 . S
N404 Mn397 2.257 . S
N404 C403 1.326 . S
N404 C408 1.362 . S
C405 C406 1.258 . S
C405 C408 1.431 . S
C405 C425 1.449 1_545 S
C406 C405 1.258 . S
C406 C407 1.477 . S
C406 H426 0.931 . S
C407 C403 1.460 . S
C407 C406 1.477 . S
C407 H427 0.930 . S
C408 N404 1.362 . S
C408 C405 1.431 . S
C408 C418 1.476 . S
H409 C403 0.929 . S
C410 O401 1.250 . S
C410 O402 1.258 1_455 S
O411 Mn396 2.162 . S
O411 C399 1.281 . S
O412 Mn396 2.297 . S
O412 C399 1.236 . S
N413 Mn397 2.282 . S
N413 C414 1.328 . S
N413 C418 1.318 . S
C414 N413 1.328 . S
C414 C415 1.457 1_545 S
C414 H419 0.929 1_655 S
C415 C414 1.457 1_565 S
C415 C416 1.291 . S
C415 H428 0.931 . S
C416 C415 1.291 . S
C416 C417 1.373 . S
C416 H429 0.929 . S
C417 C416 1.373 . S
C417 C418 1.396 1_565 S
C417 C424 1.403 . S
C418 C408 1.476 . S
C418 N413 1.318 . S
C418 C417 1.396 1_545 S
H419 C414 0.929 1_455 S
O420 Mn396 2.385 . S
O420 C398 1.234 . S
O421 Mn396 2.209 . S
O421 Mn397 2.215 1_455 S
O421 C398 1.283 . S
O422 Mn396 2.094 . S
O422 C400 1.240 . S
O423 Mn397 2.117 1_455 S
O423 C400 1.264 . S
C424 C417 1.403 . S
C424 C425 1.399 . S
C424 H430 0.929 . S
C425 C405 1.449 1_565 S
C425 C424 1.399 . S
C425 H431 0.930 . S
H426 C406 0.931 . S
H427 C407 0.930 . S
H428 C415 0.931 . S
H429 C416 0.929 . S
H430 C424 0.929 . S
H431 C425 0.930 . S
Mn432 O437 2.095 . S
Mn432 O447 2.162 . S
Mn432 O448 2.297 . S
Mn432 O456 2.385 . S
Mn432 O457 2.209 . S
Mn432 O458 2.094 . S
Mn433 O438 2.121 . S
Mn433 N440 2.257 . S
Mn433 N449 2.282 . S
Mn433 O457 2.215 1_545 S
Mn433 O459 2.117 1_545 S
C434 O456 1.234 . S
C434 O457 1.283 . S
C435 O447 1.281 . S
C435 O448 1.236 . S
C436 O458 1.240 . S
C436 O459 1.264 . S
O437 Mn432 2.095 . S
O437 C446 1.250 . S
O438 Mn433 2.121 . S
O438 C446 1.258 1_545 S
C439 N440 1.326 . S
C439 C443 1.460 . S
C439 H445 0.929 . S
N440 Mn433 2.257 . S
N440 C439 1.326 . S
N440 C444 1.362 . S
C441 C442 1.258 . S
C441 C444 1.431 . S
C441 C461 1.449 1_655 S
C442 C441 1.258 . S
C442 C443 1.477 . S
C442 H462 0.931 . S
C443 C439 1.460 . S
C443 C442 1.477 . S
C443 H463 0.930 . S
C444 N440 1.362 . S
C444 C441 1.431 . S
C444 C454 1.476 . S
H445 C439 0.929 . S
C446 O437 1.250 . S
C446 O438 1.258 1_565 S
O447 Mn432 2.162 . S
O447 C435 1.281 . S
O448 Mn432 2.297 . S
O448 C435 1.236 . S
N449 Mn433 2.282 . S
N449 C450 1.328 . S
N449 C454 1.318 . S
C450 N449 1.328 . S
C450 C451 1.457 1_655 S
C450 H455 0.929 1_545 S
C451 C450 1.457 1_455 S
C451 C452 1.291 . S
C451 H464 0.931 . S
C452 C451 1.291 . S
C452 C453 1.373 . S
C452 H465 0.929 . S
C453 C452 1.373 . S
C453 C454 1.396 1_455 S
C453 C460 1.403 . S
C454 C444 1.476 . S
C454 N449 1.318 . S
C454 C453 1.396 1_655 S
H455 C450 0.929 1_565 S
O456 Mn432 2.385 . S
O456 C434 1.234 . S
O457 Mn432 2.209 . S
O457 Mn433 2.215 1_565 S
O457 C434 1.283 . S
O458 Mn432 2.094 . S
O458 C436 1.240 . S
O459 Mn433 2.117 1_565 S
O459 C436 1.264 . S
C460 C453 1.403 . S
C460 C461 1.399 . S
C460 H466 0.929 . S
C461 C441 1.449 1_455 S
C461 C460 1.399 . S
C461 H467 0.930 . S
H462 C442 0.931 . S
H463 C443 0.930 . S
H464 C451 0.931 . S
H465 C452 0.929 . S
H466 C460 0.929 . S
H467 C461 0.930 . S
Mn468 O473 2.095 . S
Mn468 O483 2.162 . S
Mn468 O484 2.297 . S
Mn468 O492 2.385 . S
Mn468 O493 2.209 . S
Mn468 O494 2.094 . S
Mn469 O474 2.121 . S
Mn469 N476 2.257 . S
Mn469 N485 2.282 . S
Mn469 O493 2.215 1_655 S
Mn469 O495 2.117 1_655 S
C470 O492 1.234 . S
C470 O493 1.283 . S
C471 O483 1.281 . S
C471 O484 1.236 . S
C472 O494 1.240 . S
C472 O495 1.264 . S
O473 Mn468 2.095 . S
O473 C482 1.250 . S
O474 Mn469 2.121 . S
O474 C482 1.258 1_655 S
C475 N476 1.326 . S
C475 C479 1.460 . S
C475 H481 0.929 . S
N476 Mn469 2.257 . S
N476 C475 1.326 . S
N476 C480 1.362 . S
C477 C478 1.258 . S
C477 C480 1.431 . S
C477 C497 1.449 . S
C478 C477 1.258 . S
C478 C479 1.477 . S
C478 H498 0.931 . S
C479 C475 1.460 . S
C479 C478 1.477 . S
C479 H499 0.930 . S
C480 N476 1.362 . S
C480 C477 1.431 . S
C480 C490 1.476 . S
H481 C475 0.929 . S
C482 O473 1.250 . S
C482 O474 1.258 1_455 S
O483 Mn468 2.162 . S
O483 C471 1.281 . S
O484 Mn468 2.297 . S
O484 C471 1.236 . S
N485 Mn469 2.282 . S
N485 C486 1.328 . S
N485 C490 1.318 . S
C486 N485 1.328 . S
C486 C487 1.457 . S
C486 H491 0.929 1_655 S
C487 C486 1.457 . S
C487 C488 1.291 . S
C487 H500 0.931 . S
C488 C487 1.291 . S
C488 C489 1.373 . S
C488 H501 0.929 . S
C489 C488 1.373 . S
C489 C490 1.396 . S
C489 C496 1.403 . S
C490 C480 1.476 . S
C490 N485 1.318 . S
C490 C489 1.396 . S
H491 C486 0.929 1_455 S
O492 Mn468 2.385 . S
O492 C470 1.234 . S
O493 Mn468 2.209 . S
O493 Mn469 2.215 1_455 S
O493 C470 1.283 . S
O494 Mn468 2.094 . S
O494 C472 1.240 . S
O495 Mn469 2.117 1_455 S
O495 C472 1.264 . S
C496 C489 1.403 . S
C496 C497 1.399 . S
C496 H502 0.929 . S
C497 C477 1.449 . S
C497 C496 1.399 . S
C497 H503 0.930 . S
H498 C478 0.931 . S
H499 C479 0.930 . S
H500 C487 0.931 . S
H501 C488 0.929 . S
H502 C496 0.929 . S
H503 C497 0.930 . S
Mn504 O509 2.095 . S
Mn504 O519 2.162 . S
Mn504 O520 2.297 . S
Mn504 O528 2.385 . S
Mn504 O529 2.209 . S
Mn504 O530 2.094 . S
Mn505 O510 2.121 . S
Mn505 N512 2.257 . S
Mn505 N521 2.282 . S
Mn505 O529 2.215 . S
Mn505 O531 2.117 . S
C506 O528 1.234 . S
C506 O529 1.283 . S
C507 O519 1.281 . S
C507 O520 1.236 . S
C508 O530 1.240 . S
C508 O531 1.264 . S
O509 Mn504 2.095 . S
O509 C518 1.250 . S
O510 Mn505 2.121 . S
O510 C518 1.258 . S
C511 N512 1.326 . S
C511 C515 1.460 . S
C511 H517 0.929 . S
N512 Mn505 2.257 . S
N512 C511 1.326 . S
N512 C516 1.362 . S
C513 C514 1.258 . S
C513 C516 1.431 . S
C513 C533 1.449 . S
C514 C513 1.258 . S
C514 C515 1.477 . S
C514 H534 0.931 1_545 S
C515 C511 1.460 . S
C515 C514 1.477 . S
C515 H535 0.930 . S
C516 N512 1.362 . S
C516 C513 1.431 . S
C516 C526 1.476 . S
H517 C511 0.929 . S
C518 O509 1.250 . S
C518 O510 1.258 . S
O519 Mn504 2.162 . S
O519 C507 1.281 . S
O520 Mn504 2.297 . S
O520 C507 1.236 . S
N521 Mn505 2.282 . S
N521 C522 1.328 . S
N521 C526 1.318 . S
C522 N521 1.328 . S
C522 C523 1.457 . S
C522 H527 0.929 . S
C523 C522 1.457 . S
C523 C524 1.291 . S
C523 H536 0.931 . S
C524 C523 1.291 . S
C524 C525 1.373 . S
C524 H537 0.929 . S
C525 C524 1.373 . S
C525 C526 1.396 . S
C525 C532 1.403 . S
C526 C516 1.476 . S
C526 N521 1.318 . S
C526 C525 1.396 . S
H527 C522 0.929 . S
O528 Mn504 2.385 . S
O528 C506 1.234 . S
O529 Mn504 2.209 . S
O529 Mn505 2.215 . S
O529 C506 1.283 . S
O530 Mn504 2.094 . S
O530 C508 1.240 . S
O531 Mn505 2.117 . S
O531 C508 1.264 . S
C532 C525 1.403 . S
C532 C533 1.399 . S
C532 H538 0.929 . S
C533 C513 1.449 . S
C533 C532 1.399 . S
C533 H539 0.930 1_545 S
H534 C514 0.931 1_565 S
H535 C515 0.930 . S
H536 C523 0.931 . S
H537 C524 0.929 . S
H538 C532 0.929 . S
H539 C533 0.930 1_565 S
Mn540 O545 2.095 . S
Mn540 O555 2.162 . S
Mn540 O556 2.297 . S
Mn540 O564 2.385 . S
Mn540 O565 2.209 . S
Mn540 O566 2.094 . S
Mn541 O546 2.121 . S
Mn541 N548 2.257 . S
Mn541 N557 2.282 . S
Mn541 O565 2.215 . S
Mn541 O567 2.117 . S
C542 O564 1.234 . S
C542 O565 1.283 . S
C543 O555 1.281 . S
C543 O556 1.236 . S
C544 O566 1.240 . S
C544 O567 1.264 . S
O545 Mn540 2.095 . S
O545 C554 1.250 . S
O546 Mn541 2.121 . S
O546 C554 1.258 . S
C547 N548 1.326 . S
C547 C551 1.460 . S
C547 H553 0.929 . S
N548 Mn541 2.257 . S
N548 C547 1.326 . S
N548 C552 1.362 . S
C549 C550 1.258 . S
C549 C552 1.431 . S
C549 C569 1.449 1_545 S
C550 C549 1.258 . S
C550 C551 1.477 . S
C550 H570 0.931 1_655 S
C551 C547 1.460 . S
C551 C550 1.477 . S
C551 H571 0.930 . S
C552 N548 1.362 . S
C552 C549 1.431 . S
C552 C562 1.476 . S
H553 C547 0.929 . S
C554 O545 1.250 . S
C554 O546 1.258 . S
O555 Mn540 2.162 . S
O555 C543 1.281 . S
O556 Mn540 2.297 . S
O556 C543 1.236 . S
N557 Mn541 2.282 . S
N557 C558 1.328 . S
N557 C562 1.318 . S
C558 N557 1.328 . S
C558 C559 1.457 1_545 S
C558 H563 0.929 . S
C559 C558 1.457 1_565 S
C559 C560 1.291 . S
C559 H572 0.931 . S
C560 C559 1.291 . S
C560 C561 1.373 . S
C560 H573 0.929 . S
C561 C560 1.373 . S
C561 C562 1.396 1_565 S
C561 C568 1.403 . S
C562 C552 1.476 . S
C562 N557 1.318 . S
C562 C561 1.396 1_545 S
H563 C558 0.929 . S
O564 Mn540 2.385 . S
O564 C542 1.234 . S
O565 Mn540 2.209 . S
O565 Mn541 2.215 . S
O565 C542 1.283 . S
O566 Mn540 2.094 . S
O566 C544 1.240 . S
O567 Mn541 2.117 . S
O567 C544 1.264 . S
C568 C561 1.403 . S
C568 C569 1.399 . S
C568 H574 0.929 . S
C569 C549 1.449 1_565 S
C569 C568 1.399 . S
C569 H575 0.930 1_655 S
H570 C550 0.931 1_455 S
H571 C551 0.930 . S
H572 C559 0.931 . S
H573 C560 0.929 . S
H574 C568 0.929 . S
H575 C569 0.930 1_455 S
C374 C14 1.241 1_665 S
C50 C410 1.241 1_655 S
C302 C86 1.241 . S
C338 C122 1.241 1_545 S
C158 C518 1.241 1_455 S
C554 C194 1.241 . S
C230 C446 1.241 1_545 S
C482 C266 1.241 1_445 S
C362 C2 1.557 1_565 S
C38 C398 1.557 1_665 S
C74 C290 1.556 1_455 S
C110 C326 1.556 . S
C146 C506 1.556 . S
C182 C542 1.556 1_565 S
C434 C218 1.557 1_665 S
C470 C254 1.557 1_455 S
C4 C220 1.338 . S
C40 C256 1.338 . S
C76 C148 1.338 . S
C112 C184 1.337 . S
C292 C508 1.338 . S
C544 C328 1.338 . S
C364 C436 1.338 . S
C472 C400 1.338 . S
C3 C543 1.776 . S
C435 C39 1.776 . S
C471 C75 1.776 . S
C507 C111 1.776 1_556 S
C327 C147 1.776 1_554 S
C363 C183 1.776 . S
C219 C399 1.776 . S
C255 C291 1.776 . S
