# Generated by pormake.
# Topology wmy, (6)-cn, num edge types: 1
# Building blocks:
#     Node 0, Type 0, BuildingBlock: OJICUG_clean_sbu_0, # of connection points: 6
#     Node 1, Type 0, BuildingBlock: OJICUG_clean_sbu_0, # of connection points: 6
#     Node 2, Type 0, BuildingBlock: OJICUG_clean_sbu_0, # of connection points: 6
#     Node 3, Type 0, BuildingBlock: OJICUG_clean_sbu_0, # of connection points: 6
#     Node 4, Type 0, BuildingBlock: OJICUG_clean_sbu_0, # of connection points: 6
#     Node 5, Type 0, BuildingBlock: OJICUG_clean_sbu_0, # of connection points: 6
#     Node 6, Type 0, BuildingBlock: OJICUG_clean_sbu_0, # of connection points: 6
#     Node 7, Type 0, BuildingBlock: OJICUG_clean_sbu_0, # of connection points: 6
#     Node 8, Type 0, BuildingBlock: OJICUG_clean_sbu_0, # of connection points: 6
#     Node 9, Type 0, BuildingBlock: OJICUG_clean_sbu_0, # of connection points: 6
#     Node 10, Type 0, BuildingBlock: OJICUG_clean_sbu_0, # of connection points: 6
#     Node 11, Type 0, BuildingBlock: OJICUG_clean_sbu_0, # of connection points: 6
#     Node 12, Type 0, BuildingBlock: OJICUG_clean_sbu_0, # of connection points: 6
#     Node 13, Type 0, BuildingBlock: OJICUG_clean_sbu_0, # of connection points: 6
#     Node 14, Type 0, BuildingBlock: OJICUG_clean_sbu_0, # of connection points: 6
#     Node 15, Type 0, BuildingBlock: OJICUG_clean_sbu_0, # of connection points: 6
#     Node 16, Type 0, BuildingBlock: OJICUG_clean_sbu_0, # of connection points: 6
#     Node 17, Type 0, BuildingBlock: OJICUG_clean_sbu_0, # of connection points: 6
#     Node 18, Type 0, BuildingBlock: OJICUG_clean_sbu_0, # of connection points: 6
#     Node 19, Type 0, BuildingBlock: OJICUG_clean_sbu_0, # of connection points: 6
#     Node 20, Type 0, BuildingBlock: OJICUG_clean_sbu_0, # of connection points: 6
#     Node 21, Type 0, BuildingBlock: OJICUG_clean_sbu_0, # of connection points: 6
#     Node 22, Type 0, BuildingBlock: OJICUG_clean_sbu_0, # of connection points: 6
#     Node 23, Type 0, BuildingBlock: OJICUG_clean_sbu_0, # of connection points: 6
#     Node 24, Type 0, BuildingBlock: OJICUG_clean_sbu_0, # of connection points: 6
#     Node 25, Type 0, BuildingBlock: OJICUG_clean_sbu_0, # of connection points: 6
#     Node 26, Type 0, BuildingBlock: OJICUG_clean_sbu_0, # of connection points: 6
#     Node 27, Type 0, BuildingBlock: OJICUG_clean_sbu_0, # of connection points: 6
#     Node 28, Type 0, BuildingBlock: OJICUG_clean_sbu_0, # of connection points: 6
#     Node 29, Type 0, BuildingBlock: OJICUG_clean_sbu_0, # of connection points: 6
#     Node 30, Type 0, BuildingBlock: OJICUG_clean_sbu_0, # of connection points: 6
#     Node 31, Type 0, BuildingBlock: OJICUG_clean_sbu_0, # of connection points: 6
#     Node 32, Type 0, BuildingBlock: OJICUG_clean_sbu_0, # of connection points: 6
#     Node 33, Type 0, BuildingBlock: OJICUG_clean_sbu_0, # of connection points: 6
#     Node 34, Type 0, BuildingBlock: OJICUG_clean_sbu_0, # of connection points: 6
#     Node 35, Type 0, BuildingBlock: OJICUG_clean_sbu_0, # of connection points: 6
#     Edge 36, Type (0, 0), BuildingBlock: CIFDUS_clean_linker_0, # of connection points: 2
#     Edge 37, Type (0, 0), BuildingBlock: CIFDUS_clean_linker_0, # of connection points: 2
#     Edge 38, Type (0, 0), BuildingBlock: CIFDUS_clean_linker_0, # of connection points: 2
#     Edge 39, Type (0, 0), BuildingBlock: CIFDUS_clean_linker_0, # of connection points: 2
#     Edge 40, Type (0, 0), BuildingBlock: CIFDUS_clean_linker_0, # of connection points: 2
#     Edge 41, Type (0, 0), BuildingBlock: CIFDUS_clean_linker_0, # of connection points: 2
#     Edge 42, Type (0, 0), BuildingBlock: CIFDUS_clean_linker_0, # of connection points: 2
#     Edge 43, Type (0, 0), BuildingBlock: CIFDUS_clean_linker_0, # of connection points: 2
#     Edge 44, Type (0, 0), BuildingBlock: CIFDUS_clean_linker_0, # of connection points: 2
#     Edge 45, Type (0, 0), BuildingBlock: CIFDUS_clean_linker_0, # of connection points: 2
#     Edge 46, Type (0, 0), BuildingBlock: CIFDUS_clean_linker_0, # of connection points: 2
#     Edge 47, Type (0, 0), BuildingBlock: CIFDUS_clean_linker_0, # of connection points: 2
#     Edge 48, Type (0, 0), BuildingBlock: CIFDUS_clean_linker_0, # of connection points: 2
#     Edge 49, Type (0, 0), BuildingBlock: CIFDUS_clean_linker_0, # of connection points: 2
#     Edge 50, Type (0, 0), BuildingBlock: CIFDUS_clean_linker_0, # of connection points: 2
#     Edge 51, Type (0, 0), BuildingBlock: CIFDUS_clean_linker_0, # of connection points: 2
#     Edge 52, Type (0, 0), BuildingBlock: CIFDUS_clean_linker_0, # of connection points: 2
#     Edge 53, Type (0, 0), BuildingBlock: CIFDUS_clean_linker_0, # of connection points: 2
#     Edge 54, Type (0, 0), BuildingBlock: CIFDUS_clean_linker_0, # of connection points: 2
#     Edge 55, Type (0, 0), BuildingBlock: CIFDUS_clean_linker_0, # of connection points: 2
#     Edge 56, Type (0, 0), BuildingBlock: CIFDUS_clean_linker_0, # of connection points: 2
#     Edge 57, Type (0, 0), BuildingBlock: CIFDUS_clean_linker_0, # of connection points: 2
#     Edge 58, Type (0, 0), BuildingBlock: CIFDUS_clean_linker_0, # of connection points: 2
#     Edge 59, Type (0, 0), BuildingBlock: CIFDUS_clean_linker_0, # of connection points: 2
#     Edge 60, Type (0, 0), BuildingBlock: CIFDUS_clean_linker_0, # of connection points: 2
#     Edge 61, Type (0, 0), BuildingBlock: CIFDUS_clean_linker_0, # of connection points: 2
#     Edge 62, Type (0, 0), BuildingBlock: CIFDUS_clean_linker_0, # of connection points: 2
#     Edge 63, Type (0, 0), BuildingBlock: CIFDUS_clean_linker_0, # of connection points: 2
#     Edge 64, Type (0, 0), BuildingBlock: CIFDUS_clean_linker_0, # of connection points: 2
#     Edge 65, Type (0, 0), BuildingBlock: CIFDUS_clean_linker_0, # of connection points: 2
#     Edge 66, Type (0, 0), BuildingBlock: CIFDUS_clean_linker_0, # of connection points: 2
#     Edge 67, Type (0, 0), BuildingBlock: CIFDUS_clean_linker_0, # of connection points: 2
#     Edge 68, Type (0, 0), BuildingBlock: CIFDUS_clean_linker_0, # of connection points: 2
#     Edge 69, Type (0, 0), BuildingBlock: CIFDUS_clean_linker_0, # of connection points: 2
#     Edge 70, Type (0, 0), BuildingBlock: CIFDUS_clean_linker_0, # of connection points: 2
#     Edge 71, Type (0, 0), BuildingBlock: CIFDUS_clean_linker_0, # of connection points: 2
#     Edge 72, Type (0, 0), BuildingBlock: CIFDUS_clean_linker_0, # of connection points: 2
#     Edge 73, Type (0, 0), BuildingBlock: CIFDUS_clean_linker_0, # of connection points: 2
#     Edge 74, Type (0, 0), BuildingBlock: CIFDUS_clean_linker_0, # of connection points: 2
#     Edge 75, Type (0, 0), BuildingBlock: CIFDUS_clean_linker_0, # of connection points: 2
#     Edge 76, Type (0, 0), BuildingBlock: CIFDUS_clean_linker_0, # of connection points: 2
#     Edge 77, Type (0, 0), BuildingBlock: CIFDUS_clean_linker_0, # of connection points: 2
#     Edge 78, Type (0, 0), BuildingBlock: CIFDUS_clean_linker_0, # of connection points: 2
#     Edge 79, Type (0, 0), BuildingBlock: CIFDUS_clean_linker_0, # of connection points: 2
#     Edge 80, Type (0, 0), BuildingBlock: CIFDUS_clean_linker_0, # of connection points: 2
#     Edge 81, Type (0, 0), BuildingBlock: CIFDUS_clean_linker_0, # of connection points: 2
#     Edge 82, Type (0, 0), BuildingBlock: CIFDUS_clean_linker_0, # of connection points: 2
#     Edge 83, Type (0, 0), BuildingBlock: CIFDUS_clean_linker_0, # of connection points: 2
#     Edge 84, Type (0, 0), BuildingBlock: CIFDUS_clean_linker_0, # of connection points: 2
#     Edge 85, Type (0, 0), BuildingBlock: CIFDUS_clean_linker_0, # of connection points: 2
#     Edge 86, Type (0, 0), BuildingBlock: CIFDUS_clean_linker_0, # of connection points: 2
#     Edge 87, Type (0, 0), BuildingBlock: CIFDUS_clean_linker_0, # of connection points: 2
#     Edge 88, Type (0, 0), BuildingBlock: CIFDUS_clean_linker_0, # of connection points: 2
#     Edge 89, Type (0, 0), BuildingBlock: CIFDUS_clean_linker_0, # of connection points: 2
#     Edge 90, Type (0, 0), BuildingBlock: CIFDUS_clean_linker_0, # of connection points: 2
#     Edge 91, Type (0, 0), BuildingBlock: CIFDUS_clean_linker_0, # of connection points: 2
#     Edge 92, Type (0, 0), BuildingBlock: CIFDUS_clean_linker_0, # of connection points: 2
#     Edge 93, Type (0, 0), BuildingBlock: CIFDUS_clean_linker_0, # of connection points: 2
#     Edge 94, Type (0, 0), BuildingBlock: CIFDUS_clean_linker_0, # of connection points: 2
#     Edge 95, Type (0, 0), BuildingBlock: CIFDUS_clean_linker_0, # of connection points: 2
#     Edge 96, Type (0, 0), BuildingBlock: CIFDUS_clean_linker_0, # of connection points: 2
#     Edge 97, Type (0, 0), BuildingBlock: CIFDUS_clean_linker_0, # of connection points: 2
#     Edge 98, Type (0, 0), BuildingBlock: CIFDUS_clean_linker_0, # of connection points: 2
#     Edge 99, Type (0, 0), BuildingBlock: CIFDUS_clean_linker_0, # of connection points: 2
#     Edge 100, Type (0, 0), BuildingBlock: CIFDUS_clean_linker_0, # of connection points: 2
#     Edge 101, Type (0, 0), BuildingBlock: CIFDUS_clean_linker_0, # of connection points: 2
#     Edge 102, Type (0, 0), BuildingBlock: CIFDUS_clean_linker_0, # of connection points: 2
#     Edge 103, Type (0, 0), BuildingBlock: CIFDUS_clean_linker_0, # of connection points: 2
#     Edge 104, Type (0, 0), BuildingBlock: CIFDUS_clean_linker_0, # of connection points: 2
#     Edge 105, Type (0, 0), BuildingBlock: CIFDUS_clean_linker_0, # of connection points: 2
#     Edge 106, Type (0, 0), BuildingBlock: CIFDUS_clean_linker_0, # of connection points: 2
#     Edge 107, Type (0, 0), BuildingBlock: CIFDUS_clean_linker_0, # of connection points: 2
#     Edge 108, Type (0, 0), BuildingBlock: CIFDUS_clean_linker_0, # of connection points: 2
#     Edge 109, Type (0, 0), BuildingBlock: CIFDUS_clean_linker_0, # of connection points: 2
#     Edge 110, Type (0, 0), BuildingBlock: CIFDUS_clean_linker_0, # of connection points: 2
#     Edge 111, Type (0, 0), BuildingBlock: CIFDUS_clean_linker_0, # of connection points: 2
#     Edge 112, Type (0, 0), BuildingBlock: CIFDUS_clean_linker_0, # of connection points: 2
#     Edge 113, Type (0, 0), BuildingBlock: CIFDUS_clean_linker_0, # of connection points: 2
#     Edge 114, Type (0, 0), BuildingBlock: CIFDUS_clean_linker_0, # of connection points: 2
#     Edge 115, Type (0, 0), BuildingBlock: CIFDUS_clean_linker_0, # of connection points: 2
#     Edge 116, Type (0, 0), BuildingBlock: CIFDUS_clean_linker_0, # of connection points: 2
#     Edge 117, Type (0, 0), BuildingBlock: CIFDUS_clean_linker_0, # of connection points: 2
#     Edge 118, Type (0, 0), BuildingBlock: CIFDUS_clean_linker_0, # of connection points: 2
#     Edge 119, Type (0, 0), BuildingBlock: CIFDUS_clean_linker_0, # of connection points: 2
#     Edge 120, Type (0, 0), BuildingBlock: CIFDUS_clean_linker_0, # of connection points: 2
#     Edge 121, Type (0, 0), BuildingBlock: CIFDUS_clean_linker_0, # of connection points: 2
#     Edge 122, Type (0, 0), BuildingBlock: CIFDUS_clean_linker_0, # of connection points: 2
#     Edge 123, Type (0, 0), BuildingBlock: CIFDUS_clean_linker_0, # of connection points: 2
#     Edge 124, Type (0, 0), BuildingBlock: CIFDUS_clean_linker_0, # of connection points: 2
#     Edge 125, Type (0, 0), BuildingBlock: CIFDUS_clean_linker_0, # of connection points: 2
#     Edge 126, Type (0, 0), BuildingBlock: CIFDUS_clean_linker_0, # of connection points: 2
#     Edge 127, Type (0, 0), BuildingBlock: CIFDUS_clean_linker_0, # of connection points: 2
#     Edge 128, Type (0, 0), BuildingBlock: CIFDUS_clean_linker_0, # of connection points: 2
#     Edge 129, Type (0, 0), BuildingBlock: CIFDUS_clean_linker_0, # of connection points: 2
#     Edge 130, Type (0, 0), BuildingBlock: CIFDUS_clean_linker_0, # of connection points: 2
#     Edge 131, Type (0, 0), BuildingBlock: CIFDUS_clean_linker_0, # of connection points: 2
#     Edge 132, Type (0, 0), BuildingBlock: CIFDUS_clean_linker_0, # of connection points: 2
#     Edge 133, Type (0, 0), BuildingBlock: CIFDUS_clean_linker_0, # of connection points: 2
#     Edge 134, Type (0, 0), BuildingBlock: CIFDUS_clean_linker_0, # of connection points: 2
#     Edge 135, Type (0, 0), BuildingBlock: CIFDUS_clean_linker_0, # of connection points: 2
#     Edge 136, Type (0, 0), BuildingBlock: CIFDUS_clean_linker_0, # of connection points: 2
#     Edge 137, Type (0, 0), BuildingBlock: CIFDUS_clean_linker_0, # of connection points: 2
#     Edge 138, Type (0, 0), BuildingBlock: CIFDUS_clean_linker_0, # of connection points: 2
#     Edge 139, Type (0, 0), BuildingBlock: CIFDUS_clean_linker_0, # of connection points: 2
#     Edge 140, Type (0, 0), BuildingBlock: CIFDUS_clean_linker_0, # of connection points: 2
#     Edge 141, Type (0, 0), BuildingBlock: CIFDUS_clean_linker_0, # of connection points: 2
#     Edge 142, Type (0, 0), BuildingBlock: CIFDUS_clean_linker_0, # of connection points: 2
#     Edge 143, Type (0, 0), BuildingBlock: CIFDUS_clean_linker_0, # of connection points: 2
# Relax obj value: 0.454
# Max RMSD: 0.185
# Mean RMSD: 0.185
data_MOF--net-wmy--node1-OJICUG_clean_sbu_0--edge1-CIFDUS_clean_linker_0
_symmetry_space_group_name_H-M    P1
_symmetry_Int_Tables_number       1
_symmetry_cell_setting            triclinic
loop_
_symmetry_equiv_pos_as_xyz
'x, y, z'
_cell_length_a     47.870903
_cell_length_b     47.787465
_cell_length_c     51.027883
_cell_angle_alpha  90.021931
_cell_angle_beta   90.006976
_cell_angle_gamma 120.07207
loop_
_atom_site_label
_atom_site_type_symbol
_atom_site_fract_x
_atom_site_fract_y
_atom_site_fract_z
_atom_type_partial_charge
Sc0 Sc 0.01279 0.14912 0.0737 0.0
Sc1 Sc 0.05641 0.20963 0.11984 0.0
Sc2 Sc 0.97298 0.18236 0.1088 0.0
O3 O 0.01406 0.1805 0.10079 0.0
C4 C 0.96819 0.17322 0.04699 0.0
C5 C 0.08143 0.21049 0.06169 0.0
C6 C 0.02803 0.2568 0.11016 0.0
C7 C 0.05863 0.14453 0.11707 0.0
C8 C 0.94579 0.10641 0.10355 0.0
C9 C 0.00422 0.19 0.16556 0.0
O10 O 0.98686 0.16156 0.04627 0.0
O11 O 0.0857 0.22272 0.08452 0.0
O12 O 0.9987 0.23489 0.10674 0.0
O13 O 0.0391 0.13333 0.09789 0.0
O14 O 0.94277 0.12996 0.11173 0.0
O15 O 0.03258 0.19946 0.15715 0.0
O16 O 0.96953 0.11016 0.08982 0.0
O17 O 0.06721 0.17182 0.12739 0.0
O18 O 0.98052 0.18331 0.1505 0.0
O19 O 0.05614 0.18466 0.05499 0.0
O20 O 0.96 0.18124 0.0681 0.0
O21 O 0.05058 0.25079 0.11482 0.0
Sc22 Sc 0.84862 0.86339 0.06563 0.0
Sc23 Sc 0.78547 0.84679 0.10896 0.0
Sc24 Sc 0.82133 0.79681 0.10749 0.0
O25 O 0.81838 0.83564 0.09414 0.0
C26 C 0.83439 0.79462 0.04632 0.0
C27 C 0.78407 0.86198 0.04847 0.0
C28 C 0.74589 0.76948 0.10206 0.0
C29 C 0.84805 0.91655 0.10334 0.0
C30 C 0.89473 0.85052 0.10308 0.0
C31 C 0.80535 0.82285 0.16013 0.0
O32 O 0.83944 0.82286 0.04183 0.0
O33 O 0.77107 0.85567 0.07101 0.0
O34 O 0.7703 0.76557 0.10089 0.0
O35 O 0.86089 0.907 0.08642 0.0
O36 O 0.87277 0.82558 0.11465 0.0
O37 O 0.79572 0.84003 0.14861 0.0
O38 O 0.88912 0.86475 0.08454 0.0
O39 O 0.82038 0.89811 0.11335 0.0
O40 O 0.81389 0.80523 0.14782 0.0
O41 O 0.81162 0.86539 0.04396 0.0
O42 O 0.82992 0.78269 0.06921 0.0
O43 O 0.74775 0.79673 0.10597 0.0
Sc44 Sc 0.13328 0.97918 0.07578 0.0
Sc45 Sc 0.15265 0.9354 0.12011 0.0
Sc46 Sc 0.19272 0.02151 0.12285 0.0
O47 O 0.15955 0.97862 0.10637 0.0
C48 C 0.19899 0.04295 0.06304 0.0
C49 C 0.1455 0.92285 0.05788 0.0
C50 C 0.22944 0.98184 0.11721 0.0
C51 C 0.0811 0.91886 0.10972 0.0
C52 C 0.13191 0.03027 0.11563 0.0
C53 C 0.16841 0.97563 0.1734 0.0
O54 O 0.17365 0.01768 0.05557 0.0
O55 O 0.14854 0.9147 0.08103 0.0
O56 O 0.22984 0.00875 0.1172 0.0
O57 O 0.08968 0.94084 0.09246 0.0
O58 O 0.15704 0.03637 0.12875 0.0
O59 O 0.15506 0.94896 0.16098 0.0
O60 O 0.12234 0.01182 0.09571 0.0
O61 O 0.10087 0.91348 0.12225 0.0
O62 O 0.18322 0.00273 0.1619 0.0
O63 O 0.14133 0.94649 0.05311 0.0
O64 O 0.20773 0.04836 0.0868 0.0
O65 O 0.20382 0.95432 0.11904 0.0
Sc66 Sc 0.1598 0.00944 0.42824 0.0
Sc67 Sc 0.21316 0.05505 0.37837 0.0
Sc68 Sc 0.17721 0.96965 0.38032 0.0
O69 O 0.18371 0.01179 0.39542 0.0
C70 C 0.17553 0.95625 0.4418 0.0
C71 C 0.22399 0.07651 0.43846 0.0
C72 C 0.25255 0.01687 0.3803 0.0
C73 C 0.15002 0.05834 0.39217 0.0
C74 C 0.10724 0.9517 0.39405 0.0
C75 C 0.188 0.01012 0.32776 0.0
O76 O 0.17874 0.9833 0.44825 0.0
O77 O 0.23388 0.08126 0.41486 0.0
O78 O 0.22845 0.98853 0.38379 0.0
O79 O 0.14048 0.0364 0.40969 0.0
O80 O 0.12601 0.95163 0.37642 0.0
O81 O 0.19706 0.03687 0.3393 0.0
O82 O 0.11747 0.96578 0.41599 0.0
O83 O 0.17652 0.06895 0.37966 0.0
O84 O 0.18236 0.98477 0.34005 0.0
O85 O 0.19783 0.05207 0.44545 0.0
O86 O 0.16989 0.94605 0.41828 0.0
O87 O 0.25048 0.04225 0.37666 0.0
Sc88 Sc 0.00268 0.15024 0.4199 0.0
Sc89 Sc 0.95882 0.16196 0.37048 0.0
Sc90 Sc 0.04366 0.21437 0.37658 0.0
O91 O 0.00161 0.17545 0.3888 0.0
C92 C 0.05652 0.21917 0.43816 0.0
C93 C 0.93489 0.14413 0.42999 0.0
C94 C 0.99291 0.23874 0.37986 0.0
C95 C 0.95544 0.09482 0.37939 0.0
C96 C 0.06426 0.16247 0.38578 0.0
C97 C 0.00683 0.19 0.32195 0.0
O98 O 0.03182 0.19222 0.44356 0.0
O99 O 0.93015 0.1476 0.40602 0.0
O100 O 0.0217 0.24386 0.38146 0.0
O101 O 0.97371 0.10541 0.39943 0.0
O102 O 0.06689 0.18584 0.37193 0.0
O103 O 0.97904 0.17211 0.33162 0.0
O104 O 0.04409 0.14984 0.40444 0.0
O105 O 0.94781 0.11227 0.3656 0.0
O106 O 0.03148 0.20678 0.33597 0.0
O107 O 0.96123 0.14733 0.4384 0.0
O108 O 0.06471 0.22892 0.41486 0.0
O109 O 0.96813 0.2111 0.37509 0.0
Sc110 Sc 0.86359 0.85511 0.41152 0.0
Sc111 Sc 0.84887 0.79362 0.36727 0.0
Sc112 Sc 0.80052 0.831 0.36626 0.0
O113 O 0.8376 0.82662 0.38152 0.0
C114 C 0.79468 0.84497 0.42646 0.0
C115 C 0.86385 0.79238 0.42868 0.0
C116 C 0.77229 0.75506 0.37375 0.0
C117 C 0.91771 0.8534 0.37481 0.0
C118 C 0.8562 0.90418 0.37295 0.0
C119 C 0.82524 0.81215 0.31482 0.0
O120 O 0.82258 0.85027 0.43257 0.0
O121 O 0.86228 0.78297 0.40512 0.0
O122 O 0.76828 0.77937 0.37094 0.0
O123 O 0.90792 0.8633 0.39399 0.0
O124 O 0.83063 0.88304 0.36134 0.0
O125 O 0.83908 0.7993 0.32699 0.0
O126 O 0.86983 0.89722 0.3912 0.0
O127 O 0.89881 0.82918 0.36081 0.0
O128 O 0.81128 0.82513 0.32656 0.0
O129 O 0.86008 0.81601 0.43476 0.0
O130 O 0.78373 0.83857 0.40328 0.0
O131 O 0.79965 0.75657 0.3734 0.0
Sc132 Sc 0.0348 0.82637 0.87558 0.0
Sc133 Sc 0.94892 0.7897 0.87367 0.0
Sc134 Sc 0.99409 0.85085 0.91894 0.0
O135 O 0.99261 0.82214 0.88937 0.0
C136 C 0.0492 0.8366 0.93724 0.0
C137 C 0.98697 0.75035 0.8758 0.0
C138 C 0.93215 0.78413 0.93458 0.0
C139 C 0.99327 0.8136 0.82275 0.0
C140 C 0.05292 0.8997 0.88263 0.0
C141 C 0.93946 0.85014 0.88246 0.0
O142 O 0.05638 0.83172 0.91432 0.0
O143 O 0.96183 0.75282 0.87354 0.0
O144 O 0.95592 0.81175 0.93997 0.0
O145 O 0.01951 0.82196 0.83498 0.0
O146 O 0.03207 0.89283 0.90055 0.0
O147 O 0.93137 0.82337 0.87135 0.0
O148 O 0.05744 0.87859 0.87119 0.0
O149 O 0.96633 0.80287 0.83433 0.0
O150 O 0.96152 0.86261 0.89968 0.0
O151 O 0.01541 0.77448 0.87837 0.0
O152 O 0.02671 0.8426 0.94169 0.0
O153 O 0.92571 0.77254 0.91149 0.0
Sc154 Sc 0.18718 0.20445 0.876 0.0
Sc155 Sc 0.22761 0.15874 0.87619 0.0
Sc156 Sc 0.15982 0.13633 0.91599 0.0
O157 O 0.19158 0.1665 0.88929 0.0
C158 C 0.16631 0.20224 0.9358 0.0
C159 C 0.26248 0.235 0.88736 0.0
C160 C 0.2237 0.13937 0.93655 0.0
C161 C 0.21076 0.18408 0.8242 0.0
C162 C 0.11466 0.14727 0.87577 0.0
C163 C 0.16806 0.08738 0.87787 0.0
O164 O 0.17388 0.2156 0.91342 0.0
O165 O 0.26282 0.20878 0.88363 0.0
O166 O 0.19634 0.1368 0.94033 0.0
O167 O 0.19846 0.19855 0.83629 0.0
O168 O 0.11987 0.13238 0.89404 0.0
O169 O 0.19529 0.10787 0.86826 0.0
O170 O 0.13654 0.17392 0.86615 0.0
O171 O 0.22214 0.16859 0.83594 0.0
O172 O 0.15348 0.0946 0.89506 0.0
O173 O 0.23718 0.23738 0.88582 0.0
O174 O 0.16231 0.17435 0.94017 0.0
O175 O 0.23773 0.14618 0.91441 0.0
Sc176 Sc 0.81525 0.98428 0.87262 0.0
Sc177 Sc 0.85772 0.07025 0.86702 0.0
Sc178 Sc 0.88053 0.03185 0.91367 0.0
O179 O 0.85119 0.02885 0.88427 0.0
C180 C 0.81418 0.97536 0.93472 0.0
C181 C 0.78107 0.02647 0.87475 0.0
C182 C 0.87294 0.09299 0.92624 0.0
C183 C 0.83691 0.02274 0.81816 0.0
C184 C 0.87314 0.97147 0.8806 0.0
C185 C 0.92982 0.08428 0.8733 0.0
O186 O 0.80324 0.96477 0.91194 0.0
O187 O 0.80673 0.0531 0.86975 0.0
O188 O 0.87991 0.0715 0.93219 0.0
O189 O 0.82164 0.99704 0.83163 0.0
O190 O 0.88524 0.99273 0.8985 0.0
O191 O 0.90958 0.09087 0.86294 0.0
O192 O 0.84802 0.96573 0.86773 0.0
O193 O 0.85228 0.05063 0.82842 0.0
O194 O 0.92246 0.06331 0.89126 0.0
O195 O 0.78021 0.99957 0.87735 0.0
O196 O 0.84105 0.00086 0.93861 0.0
O197 O 0.86423 0.09607 0.90346 0.0
Sc198 Sc 0.82836 0.0258 0.61243 0.0
Sc199 Sc 0.78653 0.93978 0.61422 0.0
Sc200 Sc 0.84894 0.98254 0.56905 0.0
O201 O 0.82118 0.98265 0.59864 0.0
C202 C 0.84417 0.04339 0.55173 0.0
C203 C 0.75212 0.98207 0.60615 0.0
C204 C 0.78236 0.92121 0.55358 0.0
C205 C 0.80857 0.9839 0.66513 0.0
C206 C 0.89948 0.03843 0.60723 0.0
C207 C 0.84486 0.92721 0.60747 0.0
O208 O 0.84004 0.04988 0.57501 0.0
O209 O 0.75166 0.95547 0.61009 0.0
O210 O 0.80908 0.94581 0.5475 0.0
O211 O 0.81949 0.01015 0.6525 0.0
O212 O 0.89167 0.01885 0.58808 0.0
O213 O 0.81917 0.92137 0.6194 0.0
O214 O 0.87933 0.04366 0.61951 0.0
O215 O 0.79667 0.95664 0.65395 0.0
O216 O 0.85711 0.9476 0.58891 0.0
O217 O 0.77785 0.00969 0.60539 0.0
O218 O 0.84472 0.01788 0.54582 0.0
O219 O 0.77154 0.91518 0.57686 0.0
Sc220 Sc 0.97657 0.80093 0.61588 0.0
Sc221 Sc 0.06257 0.8446 0.61523 0.0
Sc222 Sc 0.01864 0.86351 0.57086 0.0
O223 O 0.01927 0.83629 0.60072 0.0
C224 C 0.95679 0.79755 0.55535 0.0
C225 C 0.01902 0.76713 0.61216 0.0
C226 C 0.07635 0.85258 0.55378 0.0
C227 C 0.0213 0.82698 0.66744 0.0
C228 C 0.96416 0.85967 0.60969 0.0
C229 C 0.07736 0.91632 0.60552 0.0
O230 O 0.95082 0.78713 0.57877 0.0
O231 O 0.04549 0.79355 0.61533 0.0
O232 O 0.05365 0.85819 0.54883 0.0
O233 O 0.99452 0.80981 0.65574 0.0
O234 O 0.98354 0.87125 0.59044 0.0
O235 O 0.08394 0.89665 0.61687 0.0
O236 O 0.9591 0.83448 0.62224 0.0
O237 O 0.04786 0.8427 0.65525 0.0
O238 O 0.05477 0.90746 0.58886 0.0
O239 O 0.99158 0.7653 0.61001 0.0
O240 O 0.98219 0.82343 0.54904 0.0
O241 O 0.08335 0.84795 0.57681 0.0
Sc242 Sc 0.20551 0.17781 0.61443 0.0
Sc243 Sc 0.15735 0.21478 0.62311 0.0
Sc244 Sc 0.13884 0.15723 0.57395 0.0
O245 O 0.16731 0.18337 0.60391 0.0
C246 C 0.20583 0.17001 0.55182 0.0
C247 C 0.23433 0.2539 0.61539 0.0
C248 C 0.14099 0.2241 0.56463 0.0
C249 C 0.18216 0.18984 0.6703 0.0
C250 C 0.14968 0.10556 0.60585 0.0
C251 C 0.08703 0.15482 0.61491 0.0
O252 O 0.21775 0.17154 0.57444 0.0
O253 O 0.20735 0.25163 0.6211 0.0
O254 O 0.13764 0.19742 0.55677 0.0
O255 O 0.19957 0.18256 0.65623 0.0
O256 O 0.13642 0.11407 0.58844 0.0
O257 O 0.10631 0.18071 0.62696 0.0
O258 O 0.17481 0.12562 0.61854 0.0
O259 O 0.16431 0.19973 0.6606 0.0
O260 O 0.09569 0.14371 0.5959 0.0
O261 O 0.23791 0.22963 0.61066 0.0
O262 O 0.17853 0.16777 0.54857 0.0
O263 O 0.14795 0.23399 0.58809 0.0
Sc264 Sc 0.6753 0.47743 0.41067 0.0
Sc265 Sc 0.72093 0.54454 0.45151 0.0
Sc266 Sc 0.6364 0.51203 0.4444 0.0
O267 O 0.67764 0.51141 0.4355 0.0
C268 C 0.62101 0.48905 0.38548 0.0
C269 C 0.73964 0.53987 0.39199 0.0
C270 C 0.68713 0.58605 0.43694 0.0
C271 C 0.72882 0.48246 0.45148 0.0
C272 C 0.61493 0.43761 0.44872 0.0
C273 C 0.67351 0.53129 0.49912 0.0
O274 O 0.64254 0.48108 0.3836 0.0
O275 O 0.74582 0.55427 0.41407 0.0
O276 O 0.65854 0.56247 0.43407 0.0
O277 O 0.70753 0.46832 0.43385 0.0
O278 O 0.6113 0.46134 0.45527 0.0
O279 O 0.7012 0.53802 0.4907 0.0
O280 O 0.63627 0.43992 0.4326 0.0
O281 O 0.7363 0.51012 0.46051 0.0
O282 O 0.64966 0.52355 0.48419 0.0
O283 O 0.71466 0.51262 0.38757 0.0
O284 O 0.61574 0.4999 0.4063 0.0
O285 O 0.71091 0.58299 0.44418 0.0
Sc286 Sc 0.53361 0.20932 0.41758 0.0
Sc287 Sc 0.46589 0.18457 0.45636 0.0
Sc288 Sc 0.49687 0.1324 0.44446 0.0
O289 O 0.49852 0.17523 0.43952 0.0
C290 C 0.51376 0.14756 0.38394 0.0
C291 C 0.47413 0.21929 0.40319 0.0
C292 C 0.42379 0.11024 0.43889 0.0
C293 C 0.53211 0.25205 0.46266 0.0
C294 C 0.57092 0.17999 0.44802 0.0
C295 C 0.47855 0.14707 0.50103 0.0
O296 O 0.51961 0.17654 0.38535 0.0
O297 O 0.45434 0.19946 0.41981 0.0
O298 O 0.4473 0.1064 0.43258 0.0
O299 O 0.54854 0.24331 0.44894 0.0
O300 O 0.54626 0.15567 0.45752 0.0
O301 O 0.47481 0.17051 0.4939 0.0
O302 O 0.56938 0.19794 0.43046 0.0
O303 O 0.5015 0.23491 0.46496 0.0
O304 O 0.48358 0.12961 0.48507 0.0
O305 O 0.50355 0.22682 0.40215 0.0
O306 O 0.50991 0.1302 0.40405 0.0
O307 O 0.42698 0.1358 0.44954 0.0
Sc308 Sc 0.79158 0.31343 0.40577 0.0
Sc309 Sc 0.82762 0.27632 0.4404 0.0
Sc310 Sc 0.86445 0.36195 0.43802 0.0
O311 O 0.82776 0.31711 0.42824 0.0
C312 C 0.84991 0.37483 0.38011 0.0
C313 C 0.80053 0.25663 0.38225 0.0
C314 C 0.90019 0.32394 0.42191 0.0
C315 C 0.7539 0.25596 0.44648 0.0
C316 C 0.8035 0.37016 0.4459 0.0
C317 C 0.85748 0.32161 0.49003 0.0
O318 O 0.82376 0.34814 0.37758 0.0
O319 O 0.81535 0.25373 0.40184 0.0
O320 O 0.89894 0.34994 0.42184 0.0
O321 O 0.756 0.27817 0.43149 0.0
O322 O 0.83158 0.377 0.45368 0.0
O323 O 0.83945 0.29364 0.48037 0.0
O324 O 0.78823 0.3496 0.42799 0.0
O325 O 0.77723 0.25115 0.45111 0.0
O326 O 0.86924 0.34719 0.4764 0.0
O327 O 0.79037 0.27651 0.38149 0.0
O328 O 0.86545 0.38399 0.40139 0.0
O329 O 0.87755 0.29692 0.43015 0.0
Sc330 Sc 0.79709 0.34524 0.71943 0.0
Sc331 Sc 0.86937 0.38392 0.68644 0.0
Sc332 Sc 0.83579 0.3016 0.70427 0.0
O333 O 0.8342 0.34326 0.70347 0.0
C334 C 0.81279 0.30652 0.76207 0.0
C335 C 0.85813 0.41211 0.73728 0.0
C336 C 0.91014 0.35233 0.70762 0.0
C337 C 0.80732 0.38957 0.6725 0.0
C338 C 0.76082 0.27402 0.69556 0.0
C339 C 0.85437 0.32884 0.64527 0.0
O340 O 0.80329 0.32603 0.75535 0.0
O341 O 0.87886 0.41007 0.72301 0.0
O342 O 0.88621 0.326 0.71547 0.0
O343 O 0.78823 0.36369 0.68434 0.0
O344 O 0.78557 0.27099 0.69316 0.0
O345 O 0.86067 0.35762 0.65041 0.0
O346 O 0.76181 0.29873 0.70557 0.0
O347 O 0.8378 0.40236 0.6743 0.0
O348 O 0.8475 0.30706 0.6627 0.0
O349 O 0.82787 0.39304 0.73505 0.0
O350 O 0.82361 0.29391 0.74581 0.0
O351 O 0.90708 0.37368 0.69535 0.0
Sc352 Sc 0.65008 0.44792 0.71718 0.0
Sc353 Sc 0.61315 0.49027 0.69754 0.0
Sc354 Sc 0.69668 0.53163 0.70897 0.0
O355 O 0.6537 0.4902 0.70816 0.0
C356 C 0.69882 0.49535 0.76053 0.0
C357 C 0.58944 0.44646 0.7457 0.0
C358 C 0.65183 0.55876 0.72515 0.0
C359 C 0.59521 0.41929 0.67839 0.0
C360 C 0.71737 0.48255 0.68662 0.0
C361 C 0.66343 0.53073 0.65424 0.0
O362 O 0.67663 0.46768 0.75283 0.0
O363 O 0.59248 0.47224 0.73554 0.0
O364 O 0.6765 0.55644 0.73024 0.0
O365 O 0.62378 0.42522 0.68212 0.0
O366 O 0.7223 0.51119 0.68886 0.0
O367 O 0.63509 0.5079 0.66012 0.0
O368 O 0.69299 0.45809 0.69643 0.0
O369 O 0.58712 0.44004 0.68448 0.0
O370 O 0.68637 0.54462 0.6709 0.0
O371 O 0.60603 0.43357 0.73865 0.0
O372 O 0.70974 0.52075 0.74652 0.0
O373 O 0.62962 0.53932 0.70994 0.0
Sc374 Sc 0.53762 0.19637 0.73492 0.0
Sc375 Sc 0.50638 0.12314 0.70246 0.0
Sc376 Sc 0.45837 0.15963 0.71182 0.0
O377 O 0.50047 0.15953 0.71646 0.0
C378 C 0.47846 0.18343 0.77077 0.0
C379 C 0.54092 0.13499 0.7561 0.0
C380 C 0.43228 0.08521 0.72034 0.0
C381 C 0.57585 0.18464 0.69142 0.0
C382 C 0.50966 0.23381 0.70242 0.0
C383 C 0.47113 0.13677 0.65628 0.0
O384 O 0.50762 0.19047 0.76781 0.0
O385 O 0.52008 0.1141 0.74061 0.0
O386 O 0.42985 0.11001 0.72522 0.0
O387 O 0.56959 0.20427 0.70309 0.0
O388 O 0.48254 0.20911 0.69703 0.0
O389 O 0.49271 0.13055 0.66418 0.0
O390 O 0.53004 0.23272 0.71757 0.0
O391 O 0.5571 0.15416 0.69221 0.0
O392 O 0.45497 0.14444 0.67159 0.0
O393 O 0.55123 0.16512 0.75414 0.0
O394 O 0.4583 0.17495 0.75196 0.0
O395 O 0.45731 0.08672 0.71045 0.0
Sc396 Sc 0.68254 0.15222 0.2019 0.0
Sc397 Sc 0.59732 0.11551 0.198 0.0
Sc398 Sc 0.64197 0.18553 0.23473 0.0
O399 O 0.64071 0.15112 0.21142 0.0
C400 C 0.69396 0.1729 0.26225 0.0
C401 C 0.6351 0.07734 0.20931 0.0
C402 C 0.57976 0.12147 0.25571 0.0
C403 C 0.64123 0.1311 0.14824 0.0
C404 C 0.7042 0.22663 0.19859 0.0
C405 C 0.58704 0.17691 0.19649 0.0
O406 O 0.70308 0.16581 0.24107 0.0
O407 O 0.61078 0.07889 0.20133 0.0
O408 O 0.60005 0.15157 0.25614 0.0
O409 O 0.66658 0.13868 0.16167 0.0
O410 O 0.68347 0.2235 0.21559 0.0
O411 O 0.57678 0.1469 0.19309 0.0
O412 O 0.70663 0.20286 0.19007 0.0
O413 O 0.61459 0.12521 0.15849 0.0
O414 O 0.61318 0.19539 0.20843 0.0
O415 O 0.6626 0.10214 0.21342 0.0
O416 O 0.6707 0.1785 0.2633 0.0
O417 O 0.57716 0.10294 0.23688 0.0
Sc418 Sc 0.83228 0.53909 0.19832 0.0
Sc419 Sc 0.86035 0.48324 0.19112 0.0
Sc420 Sc 0.7978 0.46771 0.23483 0.0
O421 O 0.83025 0.49668 0.20802 0.0
C422 C 0.81349 0.53478 0.25886 0.0
C423 C 0.9059 0.55908 0.20477 0.0
C424 C 0.85843 0.4611 0.25005 0.0
C425 C 0.84932 0.5187 0.14353 0.0
C426 C 0.75745 0.48833 0.19748 0.0
C427 C 0.79494 0.41567 0.19354 0.0
O428 O 0.82035 0.54898 0.23684 0.0
O429 O 0.90067 0.53133 0.19736 0.0
O430 O 0.83246 0.46078 0.25563 0.0
O431 O 0.84349 0.53678 0.15793 0.0
O432 O 0.76014 0.47167 0.21569 0.0
O433 O 0.82271 0.43362 0.18352 0.0
O434 O 0.78136 0.51347 0.18761 0.0
O435 O 0.85332 0.49621 0.15251 0.0
O436 O 0.78349 0.4252 0.21166 0.0
O437 O 0.8835 0.56588 0.2083 0.0
O438 O 0.80785 0.5061 0.26173 0.0
O439 O 0.87143 0.46808 0.22754 0.0
Sc440 Sc 0.4555 0.3044 0.21135 0.0
Sc441 Sc 0.49857 0.38983 0.20228 0.0
Sc442 Sc 0.53095 0.35239 0.24094 0.0
O443 O 0.49493 0.34893 0.21824 0.0
C444 C 0.46993 0.29713 0.27112 0.0
C445 C 0.42398 0.34868 0.21891 0.0
C446 C 0.52684 0.4142 0.25897 0.0
C447 C 0.46798 0.33945 0.15579 0.0
C448 C 0.51344 0.29004 0.20613 0.0
C449 C 0.57158 0.40601 0.19808 0.0
O450 O 0.45197 0.28738 0.25098 0.0
O451 O 0.44881 0.37404 0.21067 0.0
O452 O 0.53466 0.39265 0.26206 0.0
O453 O 0.45387 0.31495 0.17068 0.0
O454 O 0.53151 0.31324 0.22125 0.0
O455 O 0.54906 0.4116 0.19217 0.0
O456 O 0.48486 0.28318 0.20004 0.0
O457 O 0.48628 0.36795 0.16429 0.0
O458 O 0.56799 0.38423 0.21421 0.0
O459 O 0.42296 0.32175 0.2222 0.0
O460 O 0.49846 0.32118 0.27072 0.0
O461 O 0.51253 0.41638 0.23875 0.0
Sc462 Sc 0.51388 0.37414 0.94618 0.0
Sc463 Sc 0.46845 0.28907 0.95514 0.0
Sc464 Sc 0.53825 0.32421 0.91653 0.0
O465 O 0.50683 0.32906 0.93947 0.0
C466 C 0.53478 0.37993 0.88656 0.0
C467 C 0.43885 0.33228 0.93506 0.0
C468 C 0.47139 0.26361 0.89865 0.0
C469 C 0.4864 0.33915 0.00119 0.0
C470 C 0.58443 0.38553 0.95198 0.0
C471 C 0.52553 0.27336 0.96148 0.0
O472 O 0.53086 0.39202 0.90737 0.0
O473 O 0.43638 0.30686 0.94532 0.0
O474 O 0.50138 0.2832 0.89624 0.0
O475 O 0.49786 0.36342 0.98601 0.0
O476 O 0.57891 0.36413 0.9348 0.0
O477 O 0.49685 0.26692 0.96652 0.0
O478 O 0.56302 0.39193 0.96005 0.0
O479 O 0.47711 0.31062 0.99328 0.0
O480 O 0.54355 0.29428 0.94475 0.0
O481 O 0.46558 0.3585 0.93206 0.0
O482 O 0.53536 0.35368 0.88623 0.0
O483 O 0.45497 0.26309 0.91835 0.0
Sc484 Sc 0.64108 0.13288 0.94216 0.0
Sc485 Sc 0.72635 0.18041 0.94895 0.0
Sc486 Sc 0.68286 0.21488 0.92475 0.0
O487 O 0.68322 0.17584 0.93875 0.0
C488 C 0.63551 0.15869 0.88597 0.0
C489 C 0.68945 0.10952 0.92453 0.0
C490 C 0.74601 0.22096 0.89748 0.0
C491 C 0.6797 0.14076 -0.00417 0.0
C492 C 0.61691 0.18145 0.95741 0.0
C493 C 0.7354 0.24844 0.96785 0.0
O494 O 0.62556 0.13602 0.90285 0.0
O495 O 0.71411 0.13379 0.93407 0.0
O496 O 0.72638 0.23094 0.90222 0.0
O497 O 0.65416 0.12736 0.98176 0.0
O498 O 0.63987 0.20479 0.9453 0.0
O499 O 0.74617 0.22917 0.96442 0.0
O500 O 0.6139 0.15356 0.9588 0.0
O501 O 0.70749 0.16114 0.98697 0.0
O502 O 0.70938 0.24392 0.95748 0.0
O503 O 0.6615 0.10614 0.92486 0.0
O504 O 0.65637 0.18796 0.89103 0.0
O505 O 0.74714 0.1993 0.91107 0.0
Sc506 Sc 0.89077 0.50199 0.9376 0.0
Sc507 Sc 0.84176 0.53872 0.93953 0.0
Sc508 Sc 0.81 0.46035 0.91624 0.0
O509 O 0.84775 0.50051 0.93106 0.0
C510 C 0.87002 0.47006 0.88125 0.0
C511 C 0.91561 0.57481 0.92133 0.0
C512 C 0.8045 0.5164 0.88633 0.0
C513 C 0.87724 0.53059 0.98962 0.0
C514 C 0.84074 0.42894 0.95278 0.0
C515 C 0.77161 0.48004 0.95468 0.0
O516 O 0.89192 0.4854 0.89832 0.0
O517 O 0.88914 0.57349 0.92663 0.0
O518 O 0.79689 0.4873 0.89082 0.0
O519 O 0.89154 0.51832 0.97703 0.0
O520 O 0.81761 0.42856 0.94049 0.0
O521 O 0.79238 0.50994 0.95288 0.0
O522 O 0.8691 0.45319 0.95298 0.0
O523 O 0.85847 0.539 0.97885 0.0
O524 O 0.77641 0.45819 0.94528 0.0
O525 O 0.92011 0.55097 0.92369 0.0
O526 O 0.84014 0.45957 0.8853 0.0
O527 O 0.82404 0.53996 0.90067 0.0
Sc528 Sc 0.34209 0.79622 0.77036 0.0
Sc529 Sc 0.38477 0.87197 0.79843 0.0
Sc530 Sc 0.30115 0.83756 0.78632 0.0
O531 O 0.34236 0.83526 0.78498 0.0
C532 C 0.29724 0.80721 0.72997 0.0
C533 C 0.40621 0.85578 0.74608 0.0
C534 C 0.35119 0.91141 0.77843 0.0
C535 C 0.39478 0.81184 0.81155 0.0
C536 C 0.27422 0.76314 0.79976 0.0
C537 C 0.33501 0.86143 0.84299 0.0
O538 O 0.31694 0.79768 0.73601 0.0
O539 O 0.40645 0.87805 0.76005 0.0
O540 O 0.32441 0.88696 0.77209 0.0
O541 O 0.36702 0.79111 0.8033 0.0
O542 O 0.27149 0.78828 0.80043 0.0
O543 O 0.36294 0.86638 0.83643 0.0
O544 O 0.29809 0.76279 0.78937 0.0
O545 O 0.40537 0.84198 0.80921 0.0
O546 O 0.31184 0.85352 0.82674 0.0
O547 O 0.38672 0.82579 0.74992 0.0
O548 O 0.28798 0.82128 0.74611 0.0
O549 O 0.37344 0.90909 0.78982 0.0
Sc550 Sc 0.18712 0.54283 0.75076 0.0
Sc551 Sc 0.11724 0.50765 0.78921 0.0
Sc552 Sc 0.15788 0.46398 0.77429 0.0
O553 O 0.1539 0.50465 0.77142 0.0
C554 C 0.17914 0.48462 0.71505 0.0
C555 C 0.12206 0.54098 0.73441 0.0
C556 C 0.08217 0.43473 0.76785 0.0
C557 C 0.17598 0.57907 0.79838 0.0
C558 C 0.23049 0.52063 0.78188 0.0
C559 C 0.13542 0.47077 0.83172 0.0
O560 O 0.18544 0.51345 0.71861 0.0
O561 O 0.10561 0.52574 0.75439 0.0
O562 O 0.10748 0.43287 0.76404 0.0
O563 O 0.19286 0.57688 0.78028 0.0
O564 O 0.20861 0.4913 0.78531 0.0
O565 O 0.12499 0.48961 0.82529 0.0
O566 O 0.22596 0.54084 0.76921 0.0
O567 O 0.1476 0.55661 0.80387 0.0
O568 O 0.14687 0.45903 0.81544 0.0
O569 O 0.1513 0.5488 0.73093 0.0
O570 O 0.16993 0.46385 0.73336 0.0
O571 O 0.08243 0.45949 0.77721 0.0
Sc572 Sc 0.46117 0.65367 0.75544 0.0
Sc573 Sc 0.48747 0.60598 0.78726 0.0
Sc574 Sc 0.534 0.69217 0.78997 0.0
O575 O 0.49424 0.65056 0.77765 0.0
C576 C 0.52595 0.71176 0.73208 0.0
C577 C 0.46576 0.59621 0.72761 0.0
C578 C 0.56335 0.64741 0.77539 0.0
C579 C 0.41544 0.59284 0.79068 0.0
C580 C 0.47774 0.70864 0.79821 0.0
C581 C 0.51519 0.64542 0.84013 0.0
O582 O 0.49694 0.68908 0.72991 0.0
O583 O 0.47732 0.58852 0.747 0.0
O584 O 0.56575 0.67519 0.77598 0.0
O585 O 0.42161 0.61813 0.77802 0.0
O586 O 0.50533 0.71288 0.80474 0.0
O587 O 0.49663 0.61911 0.82817 0.0
O588 O 0.46044 0.68916 0.78037 0.0
O589 O 0.43626 0.58428 0.79481 0.0
O590 O 0.53107 0.67245 0.82843 0.0
O591 O 0.45838 0.61824 0.7287 0.0
O592 O 0.5422 0.71737 0.75303 0.0
O593 O 0.53746 0.62132 0.78064 0.0
Sc594 Sc 0.46391 0.69357 0.06212 0.0
Sc595 Sc 0.54287 0.72829 0.04156 0.0
Sc596 Sc 0.49425 0.64279 0.04565 0.0
O597 O 0.50037 0.68788 0.04973 0.0
C598 C 0.46197 0.64042 0.10091 0.0
C599 C 0.52424 0.74965 0.09296 0.0
C600 C 0.56706 0.68205 0.06424 0.0
C601 C 0.49269 0.7494 0.02224 0.0
C602 C 0.42531 0.63007 0.02726 0.0
C603 C 0.53088 0.68167 0.99333 0.0
O604 O 0.4578 0.66409 0.09557 0.0
O605 O 0.54604 0.74704 0.08079 0.0
O606 O 0.53978 0.65633 0.06455 0.0
O607 O 0.46827 0.72309 0.02929 0.0
O608 O 0.44716 0.62236 0.02665 0.0
O609 O 0.54086 0.70996 0.00266 0.0
O610 O 0.42826 0.65404 0.04009 0.0
O611 O 0.5213 0.75632 0.02791 0.0
O612 O 0.5159 0.65574 0.0069 0.0
O613 O 0.49485 0.73492 0.08577 0.0
O614 O 0.4727 0.62806 0.08435 0.0
O615 O 0.57161 0.7084 0.05462 0.0
Sc616 Sc 0.31886 0.78638 0.06477 0.0
Sc617 Sc 0.27866 0.82497 0.042 0.0
Sc618 Sc 0.36354 0.86969 0.0525 0.0
O619 O 0.32048 0.82724 0.0531 0.0
C620 C 0.36527 0.83806 0.10695 0.0
C621 C 0.25507 0.77998 0.09105 0.0
C622 C 0.31626 0.89394 0.07038 0.0
C623 C 0.26823 0.75758 0.01967 0.0
C624 C 0.385 0.82055 0.03275 0.0
C625 C 0.3291 0.86801 -0.0019 0.0
O626 O 0.34423 0.80961 0.09995 0.0
O627 O 0.255 0.80301 0.07862 0.0
O628 O 0.34358 0.89588 0.07128 0.0
O629 O 0.29327 0.76041 0.03062 0.0
O630 O 0.38951 0.84904 0.03365 0.0
O631 O 0.30063 0.84685 0.00515 0.0
O632 O 0.36172 0.79675 0.04413 0.0
O633 O 0.25803 0.77721 0.02386 0.0
O634 O 0.35327 0.88015 0.01363 0.0
O635 O 0.27474 0.7701 0.0862 0.0
O636 O 0.37676 0.86226 0.09152 0.0
O637 O 0.29182 0.87112 0.0591 0.0
Sc638 Sc 0.20164 0.54896 0.05363 0.0
Sc639 Sc 0.17249 0.46881 0.03526 0.0
Sc640 Sc 0.12101 0.50232 0.03637 0.0
O641 O 0.16501 0.50634 0.04174 0.0
C642 C 0.14165 0.54314 0.08658 0.0
C643 C 0.20844 0.49854 0.08966 0.0
C644 C 0.10052 0.43175 0.05685 0.0
C645 C 0.24129 0.52557 0.01818 0.0
C646 C 0.16967 0.57468 0.01593 0.0
C647 C 0.13099 0.46969 0.98598 0.0
O648 O 0.17076 0.55846 0.0786 0.0
O649 O 0.19596 0.4754 0.07307 0.0
O650 O 0.0932 0.4527 0.04977 0.0
O651 O 0.23806 0.54652 0.03093 0.0
O652 O 0.14149 0.55239 0.02259 0.0
O653 O 0.14922 0.46076 -0.00286 0.0
O654 O 0.19478 0.5734 0.02156 0.0
O655 O 0.21901 0.49628 0.01652 0.0
O656 O 0.12016 0.48607 -0.00265 0.0
O657 O 0.21082 0.52601 0.08581 0.0
O658 O 0.11993 0.51768 0.07559 0.0
O659 O 0.12842 0.43544 0.05398 0.0
Sc660 Sc 0.36754 0.49644 0.53757 0.0
Sc661 Sc 0.28167 0.45474 0.53386 0.0
Sc662 Sc 0.32404 0.53209 0.56178 0.0
O663 O 0.32437 0.49428 0.54447 0.0
C664 C 0.3826 0.53187 0.59222 0.0
C665 C 0.32325 0.42287 0.55329 0.0
C666 C 0.26663 0.47128 0.59074 0.0
C667 C 0.32717 0.46478 0.48503 0.0
C668 C 0.38226 0.56752 0.5219 0.0
C669 C 0.26403 0.50994 0.52333 0.0
O670 O 0.38705 0.51449 0.5759 0.0
O671 O 0.29727 0.42195 0.54664 0.0
O672 O 0.28835 0.50099 0.58962 0.0
O673 O 0.3529 0.47854 0.4986 0.0
O674 O 0.35858 0.56541 0.53474 0.0
O675 O 0.25846 0.48121 0.52019 0.0
O676 O 0.3899 0.54551 0.52192 0.0
O677 O 0.29926 0.45577 0.49453 0.0
O678 O 0.28732 0.53064 0.537 0.0
O679 O 0.35081 0.44826 0.55231 0.0
O680 O 0.36156 0.54034 0.58916 0.0
O681 O 0.26113 0.45097 0.57247 0.0
Sc682 Sc 0.49808 0.85733 0.55669 0.0
Sc683 Sc 0.54524 0.8206 0.54273 0.0
Sc684 Sc 0.47115 0.77704 0.57443 0.0
O685 O 0.50489 0.81847 0.55793 0.0
C686 C 0.47377 0.8297 0.61413 0.0
C687 C 0.57304 0.89105 0.56769 0.0
C688 C 0.53673 0.78206 0.59478 0.0
C689 C 0.52589 0.85586 0.49972 0.0
C690 C 0.42748 0.79973 0.54428 0.0
C691 C 0.4914 0.74833 0.5277 0.0
O692 O 0.48189 0.85174 0.59696 0.0
O693 O 0.57618 0.8694 0.55591 0.0
O694 O 0.50625 0.76923 0.59387 0.0
O695 O 0.51368 0.86663 0.51633 0.0
O696 O 0.43226 0.77939 0.55642 0.0
O697 O 0.52054 0.77132 0.52772 0.0
O698 O 0.4489 0.82941 0.54206 0.0
O699 O 0.53695 0.83739 0.50592 0.0
O700 O 0.46962 0.74864 0.54159 0.0
O701 O 0.54599 0.88923 0.57155 0.0
O702 O 0.46983 0.80195 0.60889 0.0
O703 O 0.55583 0.80389 0.57896 0.0
Sc704 Sc 0.1242 0.62844 0.53994 0.0
Sc705 Sc 0.17063 0.71438 0.54451 0.0
Sc706 Sc 0.19772 0.66641 0.57392 0.0
O707 O 0.16406 0.66976 0.55272 0.0
C708 C 0.13279 0.61027 0.59821 0.0
C709 C 0.0947 0.67254 0.55613 0.0
C710 C 0.19794 0.72644 0.60205 0.0
C711 C 0.14219 0.67628 0.49095 0.0
C712 C 0.17852 0.60965 0.53217 0.0
C713 C 0.24219 0.72597 0.5379 0.0
O714 O 0.11699 0.6037 0.5769 0.0
O715 O 0.12097 0.69889 0.55255 0.0
O716 O 0.20602 0.70503 0.59975 0.0
O717 O 0.12706 0.64869 0.50187 0.0
O718 O 0.19557 0.6283 0.55048 0.0
O719 O 0.22177 0.73556 0.53618 0.0
O720 O 0.15217 0.60747 0.52459 0.0
O721 O 0.16025 0.70226 0.50351 0.0
O722 O 0.23596 0.69961 0.54892 0.0
O723 O 0.09183 0.64473 0.55358 0.0
O724 O 0.16169 0.63334 0.6007 0.0
O725 O 0.18183 0.7314 0.58471 0.0
Sc726 Sc 0.15045 0.69411 0.28558 0.0
Sc727 Sc 0.10887 0.60751 0.28519 0.0
Sc728 Sc 0.18565 0.65215 0.25735 0.0
O729 O 0.1482 0.65127 0.27611 0.0
C730 C 0.18166 0.70981 0.22883 0.0
C731 C 0.07644 0.64949 0.26885 0.0
C732 C 0.12498 0.59583 0.22738 0.0
C733 C 0.12008 0.65013 0.33661 0.0
C734 C 0.22253 0.70937 0.29814 0.0
C735 C 0.16516 0.59173 0.295 0.0
O736 O 0.16698 0.7153 0.2471 0.0
O737 O 0.07621 0.62325 0.27314 0.0
O738 O 0.15441 0.6177 0.22925 0.0
O739 O 0.13442 0.67723 0.3248 0.0
O740 O 0.22008 0.6866 0.2838 0.0
O741 O 0.13608 0.58494 0.29786 0.0
O742 O 0.20018 0.7164 0.30022 0.0
O743 O 0.10964 0.62307 0.32499 0.0
O744 O 0.18558 0.61556 0.28158 0.0
O745 O 0.10125 0.6773 0.27214 0.0
O746 O 0.19008 0.68857 0.23051 0.0
O747 O 0.10474 0.58831 0.24596 0.0
Sc748 Sc 0.2966 0.47344 0.27547 0.0
Sc749 Sc 0.38021 0.50926 0.2865 0.0
Sc750 Sc 0.34828 0.55654 0.26949 0.0
O751 O 0.34114 0.51263 0.27683 0.0
C752 C 0.29838 0.51367 0.22497 0.0
C753 C 0.33695 0.44105 0.2594 0.0
C754 C 0.40411 0.55273 0.23783 0.0
C755 C 0.32917 0.47054 0.33003 0.0
C756 C 0.28092 0.52577 0.29925 0.0
C757 C 0.40203 0.5794 0.30896 0.0
O758 O 0.28602 0.4871 0.23771 0.0
O759 O 0.36032 0.46004 0.27384 0.0
O760 O 0.39136 0.56851 0.24723 0.0
O761 O 0.30563 0.45915 0.31367 0.0
O762 O 0.30681 0.54928 0.2905 0.0
O763 O 0.40952 0.55907 0.30043 0.0
O764 O 0.27325 0.49641 0.2957 0.0
O765 O 0.35829 0.49164 0.3241 0.0
O766 O 0.37407 0.57502 0.30532 0.0
O767 O 0.31348 0.44541 0.2543 0.0
O768 O 0.32133 0.54016 0.23386 0.0
O769 O 0.39977 0.52638 0.2479 0.0
Sc770 Sc 0.52537 0.83592 0.28749 0.0
Sc771 Sc 0.47939 0.87366 0.29913 0.0
Sc772 Sc 0.44346 0.79781 0.27128 0.0
O773 O 0.48301 0.83571 0.286 0.0
C774 C 0.49831 0.80674 0.23095 0.0
C775 C 0.5518 0.90979 0.27817 0.0
C776 C 0.44316 0.85911 0.24625 0.0
C777 C 0.51646 0.86094 0.34401 0.0
C778 C 0.47541 0.76273 0.30198 0.0
C779 C 0.40803 0.81551 0.31197 0.0
O780 O 0.52137 0.81867 0.24749 0.0
O781 O 0.52887 0.90922 0.29101 0.0
O782 O 0.43023 0.82893 0.25092 0.0
O783 O 0.53178 0.85329 0.3276 0.0
O784 O 0.45223 0.76317 0.29036 0.0
O785 O 0.42814 0.84547 0.30903 0.0
O786 O 0.50372 0.78714 0.30323 0.0
O787 O 0.49383 0.86644 0.33744 0.0
O788 O 0.41451 0.79412 0.30453 0.0
O789 O 0.55214 0.88435 0.27166 0.0
O790 O 0.46941 0.79868 0.2368 0.0
O791 O 0.46582 0.88072 0.26024 0.0
H792 H 0.08282 0.23115 0.01218 0.0
H793 H 0.13903 0.21435 0.06929 0.0
H794 H 0.17439 0.21434 0.03465 0.0
H795 H 0.18203 0.20838 0.98746 0.0
H796 H 0.12736 0.22775 0.93053 0.0
H797 H 0.09899 0.23812 0.96565 0.0
C798 C 0.1037 0.22895 0.01705 0.0
C799 C 0.10847 0.22278 0.04309 0.0
C800 C 0.12376 0.22882 -0.00298 0.0
C801 C 0.13528 0.21958 0.04935 0.0
C802 C 0.15519 0.21911 0.02951 0.0
C803 C 0.16464 0.21589 0.98285 0.0
C804 C 0.15643 0.21695 0.95657 0.0
C805 C 0.14862 0.22208 0.00317 0.0
C806 C 0.13407 0.22688 0.95067 0.0
C807 C 0.11767 0.23256 0.97074 0.0
H808 H 0.78186 0.91648 0.0465 0.0
H809 H 0.75988 0.83116 0.0023 0.0
H810 H 0.76036 0.85836 0.96152 0.0
H811 H 0.7802 0.91002 0.93841 0.0
H812 H 0.81046 0.9973 0.98294 0.0
H813 H 0.79341 0.96609 0.02353 0.0
C814 C 0.77554 0.90346 0.02802 0.0
C815 C 0.77042 0.87191 0.0272 0.0
C816 C 0.77844 0.9201 0.00463 0.0
C817 C 0.76331 0.85534 0.00323 0.0
C818 C 0.76414 0.87109 0.97993 0.0
C819 C 0.78206 0.92198 0.95693 0.0
C820 C 0.79693 0.95586 0.95784 0.0
C821 C 0.7737 0.90406 0.9803 0.0
C822 C 0.79947 0.97123 0.98191 0.0
C823 C 0.78975 0.95341 0.0051 0.0
H824 H 0.09863 0.86102 0.05128 0.0
H825 H 0.18068 0.93946 0.01315 0.0
H826 H 0.16064 0.91394 0.97045 0.0
H827 H 0.1134 0.87676 0.94387 0.0
H828 H 0.0283 0.80262 0.9823 0.0
H829 H 0.05571 0.81819 0.02468 0.0
C830 C 0.11286 0.87156 0.03372 0.0
C831 C 0.14119 0.90184 0.03528 0.0
C832 C 0.10005 0.85775 0.0091 0.0
C833 C 0.15901 0.91591 0.01236 0.0
C834 C 0.14729 0.90153 0.98791 0.0
C835 C 0.1015 0.86316 0.96141 0.0
C836 C 0.06902 0.83853 0.96007 0.0
C837 C 0.11688 0.8735 0.98593 0.0
C838 C 0.05342 0.82154 0.98295 0.0
C839 C 0.069 0.83065 0.00721 0.0
H840 H 0.22654 0.13389 0.43927 0.0
H841 H 0.25221 0.07352 0.48361 0.0
H842 H 0.25562 0.10321 0.52369 0.0
H843 H 0.23879 0.13746 0.54719 0.0
H844 H 0.20673 0.19301 0.50296 0.0
H845 H 0.2187 0.17476 0.46199 0.0
C846 C 0.23454 0.12846 0.45748 0.0
C847 C 0.23963 0.10196 0.45849 0.0
C848 C 0.23433 0.14427 0.48071 0.0
C849 C 0.24882 0.09426 0.48235 0.0
C850 C 0.25023 0.11091 0.50534 0.0
C851 C 0.23558 0.14648 0.52859 0.0
C852 C 0.22165 0.16634 0.52811 0.0
C853 C 0.24118 0.13468 0.505 0.0
C854 C 0.2172 0.17751 0.50383 0.0
C855 C 0.22393 0.16697 0.48037 0.0
H856 H 0.83057 0.03698 0.49941 0.0
H857 H 0.88326 0.1076 0.55947 0.0
H858 H 0.9132 0.14837 0.52615 0.0
H859 H 0.93146 0.16041 0.48028 0.0
H860 H 0.87719 0.09107 0.41999 0.0
H861 H 0.84025 0.05367 0.45288 0.0
C862 C 0.84792 0.06157 0.50512 0.0
C863 C 0.85509 0.06916 0.53178 0.0
C864 C 0.86492 0.08507 0.48582 0.0
C865 C 0.87733 0.10116 0.53903 0.0
C866 C 0.89467 0.12447 0.51999 0.0
C867 C 0.91072 0.13767 0.47433 0.0
C868 C 0.90709 0.12834 0.4479 0.0
C869 C 0.88968 0.11626 0.49336 0.0
C870 C 0.88025 0.09884 0.44026 0.0
C871 C 0.85939 0.07725 0.45911 0.0
H872 H 0.96155 0.78421 0.50427 0.0
H873 H 0.89436 0.78136 0.56187 0.0
H874 H 0.85634 0.77499 0.52721 0.0
H875 H 0.847 0.78031 0.48024 0.0
H876 H 0.91274 0.77986 0.42273 0.0
H877 H 0.94613 0.77672 0.45748 0.0
C878 C 0.93807 0.781 0.5092 0.0
C879 C 0.9308 0.78343 0.53551 0.0
C880 C 0.91624 0.77718 0.48915 0.0
C881 C 0.90036 0.77927 0.54176 0.0
C882 C 0.87876 0.77601 0.52191 0.0
C883 C 0.86804 0.77841 0.47536 0.0
C884 C 0.87756 0.78062 0.449 0.0
C885 C 0.88708 0.77639 0.49549 0.0
C886 C 0.9048 0.77802 0.44287 0.0
C887 C 0.92412 0.77657 0.46276 0.0
H888 H 0.87321 0.76892 0.04405 0.0
H889 H 0.80652 0.7845 -0.00157 0.0
H890 H 0.8262 0.77264 0.95811 0.0
H891 H 0.87089 0.77124 0.93584 0.0
H892 H 0.94301 0.76465 0.98145 0.0
H893 H 0.91256 0.75855 0.02161 0.0
C894 C 0.86214 0.76833 0.02534 0.0
C895 C 0.83854 0.77751 0.02403 0.0
C896 C 0.87504 0.76351 0.00216 0.0
C897 C 0.82473 0.77742 -0.00026 0.0
C898 C 0.83615 0.77089 0.97671 0.0
C899 C 0.87898 0.76687 0.95447 0.0
C900 C 0.90883 0.76807 0.95585 0.0
C901 C 0.86254 0.76578 0.97758 0.0
C902 C 0.91982 0.7634 0.98006 0.0
C903 C 0.90262 0.76035 0.00302 0.0
H904 H 0.23257 0.1571 0.98749 0.0
H905 H 0.23808 0.09171 0.93241 0.0
H906 H 0.23494 0.05633 0.96826 0.0
H907 H 0.21878 0.03887 0.01407 0.0
H908 H 0.21566 0.10547 0.06934 0.0
H909 H 0.23015 0.14581 0.03477 0.0
C910 C 0.23458 0.13586 0.98355 0.0
C911 C 0.23533 0.12678 0.95753 0.0
C912 C 0.23242 0.11553 0.00422 0.0
C913 C 0.2378 0.09923 0.95241 0.0
C914 C 0.23549 0.07875 0.97286 0.0
C915 C 0.22228 0.06261 0.01858 0.0
C916 C 0.21572 0.06919 0.04393 0.0
C917 C 0.23095 0.08579 -0.00133 0.0
C918 C 0.22059 0.10001 0.04985 0.0
C919 C 0.22867 0.12299 0.03009 0.0
H920 H 0.92778 0.14883 0.93105 0.0
H921 H 0.83533 0.08928 0.96735 0.0
H922 H 0.85652 0.11681 0.00928 0.0
H923 H 0.90458 0.14706 0.03713 0.0
H924 H 0.99849 0.19946 0.00124 0.0
H925 H 0.97393 0.18636 0.9577 0.0
C926 C 0.91197 0.14322 0.94788 0.0
C927 C 0.8801 0.11754 0.94631 0.0
C928 C 0.92504 0.15741 0.9722 0.0
C929 C 0.85983 0.10947 0.96822 0.0
C930 C 0.87213 0.12484 0.99224 0.0
C931 C 0.9194 0.15665 0.01971 0.0
C932 C 0.95315 0.17403 0.02213 0.0
C933 C 0.90519 0.1473 -0.00521 0.0
C934 C 0.97241 0.18595 -0.00038 0.0
C935 C 0.95838 0.17831 0.97479 0.0
H936 H 0.77885 0.82187 0.476 0.0
H937 H 0.77364 0.8874 0.42091 0.0
H938 H 0.76209 0.91436 0.45648 0.0
H939 H 0.76617 0.92647 0.50376 0.0
H940 H 0.76895 0.85959 0.5588 0.0
H941 H 0.76765 0.82522 0.52282 0.0
C942 C 0.77389 0.84122 0.4718 0.0
C943 C 0.77744 0.85303 0.44613 0.0
C944 C 0.76712 0.85648 0.49234 0.0
C945 C 0.77091 0.87797 0.44064 0.0
C946 C 0.7646 0.89356 0.46097 0.0
C947 C 0.76492 0.90358 0.5078 0.0
C948 C 0.76796 0.8956 0.53369 0.0
C949 C 0.76441 0.8841 0.48701 0.0
C950 C 0.7664 0.86601 0.53893 0.0
C951 C 0.76614 0.8466 0.51835 0.0
H952 H 0.13975 0.89531 0.55152 0.0
H953 H 0.06052 0.82204 0.50681 0.0
H954 H 0.09054 0.84428 0.46613 0.0
H955 H 0.13219 0.89241 0.4436 0.0
H956 H 0.20707 0.97027 0.48855 0.0
H957 H 0.18671 0.93841 0.52865 0.0
C958 C 0.12986 0.8834 0.53292 0.0
C959 C 0.09817 0.8572 0.53194 0.0
C960 C 0.14631 0.89778 0.50957 0.0
C961 C 0.08503 0.8422 0.50784 0.0
C962 C 0.10204 0.85516 0.4846 0.0
C963 C 0.14483 0.9018 0.46202 0.0
C964 C 0.17077 0.93369 0.46329 0.0
C965 C 0.13172 0.88417 0.48517 0.0
C966 C 0.18682 0.94581 0.48725 0.0
C967 C 0.17505 0.92769 0.51018 0.0
H968 H 0.16512 0.25001 0.51728 0.0
H969 H 0.08886 0.23047 0.57182 0.0
H970 H 0.0558 0.23287 0.53636 0.0
H971 H 0.04435 0.22696 0.48889 0.0
H972 H 0.12151 0.24826 0.43455 0.0
H973 H 0.15881 0.25965 0.47083 0.0
C974 C 0.14195 0.24799 0.52148 0.0
C975 C 0.12917 0.23988 0.54684 0.0
C976 C 0.123 0.249 0.50096 0.0
C977 C 0.09913 0.23702 0.55233 0.0
C978 C 0.08004 0.2379 0.53201 0.0
C979 C 0.06962 0.23525 0.48508 0.0
C980 C 0.08006 0.23605 0.45925 0.0
C981 C 0.09099 0.24178 0.50605 0.0
C982 C 0.1129 0.24729 0.45436 0.0
C983 C 0.13422 0.25356 0.47509 0.0
H984 H 0.73668 0.56135 0.34359 0.0
H985 H 0.79696 0.54237 0.39457 0.0
H986 H 0.82946 0.54353 0.35713 0.0
H987 H 0.83354 0.53949 0.30919 0.0
H988 H 0.77502 0.56114 0.25831 0.0
H989 H 0.7494 0.57016 0.29632 0.0
C990 C 0.75779 0.55887 0.3465 0.0
C991 C 0.76461 0.55183 0.3716 0.0
C992 C 0.77629 0.55956 0.32488 0.0
C993 C 0.79167 0.54823 0.37536 0.0
C994 C 0.80998 0.5485 0.35393 0.0
C995 C 0.81598 0.5473 0.30654 0.0
C996 C 0.80588 0.54939 0.28115 0.0
C997 C 0.80152 0.55261 0.32848 0.0
C998 C 0.78322 0.55957 0.27776 0.0
C999 C 0.76835 0.56442 0.29947 0.0
H1000 H 0.43535 0.19527 0.36056 0.0
H1001 H 0.49388 0.28248 0.40456 0.0
H1002 H 0.49409 0.31525 0.36777 0.0
H1003 H 0.48609 0.31905 0.32083 0.0
H1004 H 0.42867 0.23218 0.27594 0.0
H1005 H 0.4191 0.19929 0.31524 0.0
C1006 C 0.4469 0.22135 0.36233 0.0
C1007 C 0.46439 0.23662 0.38508 0.0
C1008 C 0.44776 0.24008 0.34074 0.0
C1009 C 0.48 0.27042 0.38718 0.0
C1010 C 0.48043 0.28912 0.36609 0.0
C1011 C 0.47095 0.29295 0.31979 0.0
C1012 C 0.45863 0.27801 0.29551 0.0
C1013 C 0.46576 0.27425 0.34237 0.0
C1014 C 0.43857 0.24423 0.29444 0.0
C1015 C 0.43322 0.22539 0.31688 0.0
H1016 H 0.75907 0.20418 0.26972 0.0
H1017 H 0.66804 0.1506 0.30997 0.0
H1018 H 0.69558 0.16603 0.35223 0.0
H1019 H 0.74365 0.20304 0.37724 0.0
H1020 H 0.83383 0.26191 0.3375 0.0
H1021 H 0.80912 0.23577 0.29568 0.0
C1022 C 0.74552 0.19515 0.28779 0.0
C1023 C 0.71163 0.17648 0.28687 0.0
C1024 C 0.76146 0.20531 0.31211 0.0
C1025 C 0.69415 0.1652 0.31032 0.0
C1026 C 0.70986 0.17406 0.33446 0.0
C1027 C 0.75814 0.20898 0.35955 0.0
C1028 C 0.7905 0.23378 0.3603 0.0
C1029 C 0.74327 0.19524 0.33557 0.0
C1030 C 0.80902 0.24228 0.33731 0.0
C1031 C 0.79473 0.22769 0.31339 0.0
H1032 H 0.84978 0.48207 0.83612 0.0
H1033 H 0.91062 0.4476 0.86738 0.0
H1034 H 0.91785 0.43173 0.82316 0.0
H1035 H 0.89942 0.42017 0.77685 0.0
H1036 H 0.83718 0.4538 0.74699 0.0
H1037 H 0.83872 0.47854 0.7892 0.0
C1038 C 0.86506 0.47155 0.83312 0.0
C1039 C 0.87919 0.46538 0.85478 0.0
C1040 C 0.86893 0.46256 0.80788 0.0
C1041 C 0.89939 0.45233 0.85084 0.0
C1042 C 0.90341 0.44321 0.82563 0.0
C1043 C 0.88737 0.43409 0.7794 0.0
C1044 C 0.86829 0.43536 0.759 0.0
C1045 C 0.88739 0.44724 0.80411 0.0
C1046 C 0.85212 0.45277 0.7625 0.0
C1047 C 0.85271 0.46659 0.78667 0.0
H1048 H 0.51985 0.35432 0.83808 0.0
H1049 H 0.56081 0.445 0.87968 0.0
H1050 H 0.57596 0.47449 0.83813 0.0
H1051 H 0.58505 0.47426 0.79049 0.0
H1052 H 0.54589 0.38319 0.74981 0.0
H1053 H 0.52162 0.35397 0.79033 0.0
C1054 C 0.53179 0.38053 0.838 0.0
C1055 C 0.53995 0.39755 0.86176 0.0
C1056 C 0.54056 0.3972 0.81419 0.0
C1057 C 0.55463 0.43143 0.86152 0.0
C1058 C 0.56332 0.44829 0.83781 0.0
C1059 C 0.57015 0.44811 0.79047 0.0
C1060 C 0.56721 0.43072 0.76751 0.0
C1061 C 0.55739 0.43145 0.81406 0.0
C1062 C 0.54834 0.39685 0.76748 0.0
C1063 C 0.53477 0.38018 0.79062 0.0
H1064 H 0.60303 0.16138 0.76793 0.0
H1065 H 0.50843 0.08873 0.79362 0.0
H1066 H 0.5306 0.08642 0.83654 0.0
H1067 H 0.57565 0.1124 0.86873 0.0
H1068 H 0.6688 0.18823 0.84227 0.0
H1069 H 0.64859 0.18204 0.7977 0.0
C1070 C 0.58749 0.14435 0.78272 0.0
C1071 C 0.5543 0.12537 0.77791 0.0
C1072 C 0.60009 0.14434 0.80739 0.0
C1073 C 0.53418 0.10333 0.79698 0.0
C1074 C 0.5468 0.10241 0.82158 0.0
C1075 C 0.59153 0.12709 0.85306 0.0
C1076 C 0.62343 0.15121 0.85882 0.0
C1077 C 0.57949 0.12393 0.82738 0.0
C1078 C 0.64392 0.17004 0.83839 0.0
C1079 C 0.63247 0.16642 0.81288 0.0
H1080 H 0.53431 0.10585 0.3701 0.0
H1081 H 0.49285 0.16095 0.33905 0.0
H1082 H 0.50255 0.14957 0.29448 0.0
H1083 H 0.53287 0.1341 0.26538 0.0
H1084 H 0.57951 0.08401 0.29596 0.0
H1085 H 0.55705 0.08225 0.33958 0.0
C1086 C 0.52664 0.11454 0.35351 0.0
C1087 C 0.51355 0.13473 0.3577 0.0
C1088 C 0.53339 0.10888 0.3279 0.0
C1089 C 0.50361 0.1459 0.33618 0.0
C1090 C 0.50908 0.13937 0.31073 0.0
C1091 C 0.53684 0.12157 0.28144 0.0
C1092 C 0.55745 0.10905 0.2778 0.0
C1093 C 0.52539 0.12233 0.30645 0.0
C1094 C 0.5632 0.09333 0.29851 0.0
C1095 C 0.55078 0.09281 0.32344 0.0
H1096 H 0.85566 0.36275 0.32915 0.0
H1097 H 0.86916 0.43824 0.38282 0.0
H1098 H 0.87991 0.47528 0.34628 0.0
H1099 H 0.87623 0.48267 0.29911 0.0
H1100 H 0.8645 0.4082 0.24519 0.0
H1101 H 0.86344 0.37447 0.2817 0.0
C1102 C 0.86152 0.38749 0.33269 0.0
C1103 C 0.861 0.39778 0.35831 0.0
C1104 C 0.86818 0.40876 0.31165 0.0
C1105 C 0.86923 0.42995 0.36306 0.0
C1106 C 0.87534 0.45107 0.34224 0.0
C1107 C 0.87485 0.45963 0.29544 0.0
C1108 C 0.87039 0.44767 0.26983 0.0
C1109 C 0.87372 0.44034 0.31646 0.0
C1110 C 0.86836 0.41783 0.26493 0.0
C1111 C 0.86722 0.39838 0.28578 0.0
H1112 H 0.63133 0.50704 0.33424 0.0
H1113 H 0.55721 0.4496 0.39036 0.0
H1114 H 0.51747 0.42529 0.35524 0.0
H1115 H 0.5069 0.41342 0.30828 0.0
H1116 H 0.58005 0.47191 0.25202 0.0
H1117 H 0.61685 0.50382 0.28733 0.0
C1118 C 0.6063 0.48975 0.33864 0.0
C1119 C 0.59707 0.47953 0.36451 0.0
C1120 C 0.58345 0.47632 0.31839 0.0
C1121 C 0.56464 0.45753 0.37037 0.0
C1122 C 0.54196 0.44363 0.35036 0.0
C1123 C 0.53027 0.43427 0.30386 0.0
C1124 C 0.5409 0.44063 0.27787 0.0
C1125 C 0.5514 0.45195 0.32424 0.0
C1126 C 0.57136 0.46716 0.27205 0.0
C1127 C 0.59259 0.48496 0.29223 0.0
H1128 H 0.44129 0.20891 0.78619 0.0
H1129 H 0.49419 0.16412 0.81512 0.0
H1130 H 0.48926 0.17888 0.85987 0.0
H1131 H 0.48008 0.21395 0.88895 0.0
H1132 H 0.43163 0.26316 0.86035 0.0
H1133 H 0.42378 0.23681 0.8175 0.0
C1134 C 0.45081 0.20161 0.80245 0.0
C1135 C 0.46852 0.18599 0.79751 0.0
C1136 C 0.44888 0.21125 0.82813 0.0
C1137 C 0.48091 0.17665 0.81858 0.0
C1138 C 0.47812 0.18507 0.84413 0.0
C1139 C 0.4666 0.21772 0.87359 0.0
C1140 C 0.45623 0.24006 0.87752 0.0
C1141 C 0.46362 0.20374 0.84893 0.0
C1142 C 0.43932 0.24553 0.85763 0.0
C1143 C 0.43528 0.23084 0.83309 0.0
H1144 H 0.774 0.28209 0.88017 0.0
H1145 H 0.76326 0.18907 0.86226 0.0
H1146 H 0.78744 0.20878 0.81892 0.0
H1147 H 0.80424 0.2504 0.78407 0.0
H1148 H 0.81363 0.34283 0.80306 0.0
H1149 H 0.79783 0.32558 0.84808 0.0
C1150 C 0.77753 0.26634 0.86692 0.0
C1151 C 0.76657 0.23416 0.87409 0.0
C1152 C 0.79091 0.27766 0.84214 0.0
C1153 C 0.77161 0.21402 0.85706 0.0
C1154 C 0.78517 0.22521 0.83224 0.0
C1155 C 0.8035 0.26694 0.79824 0.0
C1156 C 0.80939 0.29756 0.79009 0.0
C1157 C 0.79385 0.25667 0.82421 0.0
C1158 C 0.80852 0.31885 0.80869 0.0
C1159 C 0.79951 0.30906 0.83447 0.0
H1160 H 0.75508 0.54481 0.7807 0.0
H1161 H 0.67412 0.45065 0.7994 0.0
H1162 H 0.69888 0.45096 0.84098 0.0
H1163 H 0.74464 0.47542 0.87031 0.0
H1164 H 0.82704 0.56859 0.85271 0.0
H1165 H 0.80019 0.5716 0.81252 0.0
C1166 C 0.74273 0.52454 0.79401 0.0
C1167 C 0.71297 0.49753 0.78672 0.0
C1168 C 0.75731 0.52467 0.81797 0.0
C1169 C 0.69722 0.47153 0.80426 0.0
C1170 C 0.71131 0.47168 0.8281 0.0
C1171 C 0.75677 0.49652 0.85773 0.0
C1172 C 0.78794 0.52149 0.86408 0.0
C1173 C 0.74156 0.49772 0.83482 0.0
C1174 C 0.80304 0.54902 0.84807 0.0
C1175 C 0.78778 0.5506 0.82508 0.0
H1176 H 0.43774 0.82525 0.73257 0.0
H1177 H 0.42186 0.90259 0.70862 0.0
H1178 H 0.44505 0.90381 0.66536 0.0
H1179 H 0.46197 0.87675 0.63261 0.0
H1180 H 0.4744 0.79719 0.65744 0.0
H1181 H 0.46032 0.80288 0.70205 0.0
C1182 C 0.44009 0.8429 0.71804 0.0
C1183 C 0.42797 0.86359 0.7235 0.0
C1184 C 0.45216 0.84253 0.69321 0.0
C1185 C 0.43129 0.88657 0.70479 0.0
C1186 C 0.44411 0.88693 0.67999 0.0
C1187 C 0.46199 0.86098 0.64788 0.0
C1188 C 0.4685 0.83609 0.64153 0.0
C1189 C 0.45336 0.86405 0.67365 0.0
C1190 C 0.46874 0.81603 0.66159 0.0
C1191 C 0.46086 0.81935 0.68719 0.0
H1192 H 0.12771 0.62965 0.6465 0.0
H1193 H 0.1047 0.54496 0.60081 0.0
H1194 H 0.09087 0.51232 0.64084 0.0
H1195 H 0.09656 0.51132 0.68881 0.0
H1196 H 0.12035 0.59636 0.7342 0.0
H1197 H 0.12141 0.62537 0.6944 0.0
C1198 C 0.11881 0.60385 0.6454 0.0
C1199 C 0.1177 0.58961 0.6211 0.0
C1200 C 0.11095 0.58543 0.66839 0.0
C1201 C 0.10582 0.55623 0.61951 0.0
C1202 C 0.09805 0.53768 0.64234 0.0
C1203 C 0.10024 0.53563 0.68997 0.0
C1204 C 0.10811 0.5518 0.71414 0.0
C1205 C 0.10194 0.55238 0.66693 0.0
C1206 C 0.11367 0.58346 0.7157 0.0
C1207 C 0.11484 0.60018 0.69293 0.0
H1208 H 0.47335 0.62202 0.68005 0.0
H1209 H 0.44092 0.53103 0.71924 0.0
H1210 H 0.41493 0.50194 0.67858 0.0
H1211 H 0.39399 0.50305 0.63397 0.0
H1212 H 0.42288 0.5952 0.59791 0.0
H1213 H 0.45764 0.62334 0.63518 0.0
C1214 C 0.46118 0.59579 0.67952 0.0
C1215 C 0.45862 0.5786 0.70254 0.0
C1216 C 0.44513 0.57953 0.65673 0.0
C1217 C 0.44324 0.54471 0.70166 0.0
C1218 C 0.42803 0.52814 0.67853 0.0
C1219 C 0.40839 0.52923 0.63429 0.0
C1220 C 0.40586 0.54725 0.61359 0.0
C1221 C 0.42759 0.54533 0.65628 0.0
C1222 C 0.42438 0.58109 0.61392 0.0
C1223 C 0.44424 0.59712 0.63513 0.0
H1224 H 0.49495 0.78118 0.11043 0.0
H1225 H 0.56875 0.75862 0.13107 0.0
H1226 H 0.56988 0.77777 0.176 0.0
H1227 H 0.54398 0.79386 0.21073 0.0
H1228 H 0.46748 0.81227 0.18885 0.0
H1229 H 0.47318 0.80166 0.14319 0.0
C1230 C 0.51172 0.78097 0.12465 0.0
C1231 C 0.53147 0.76822 0.11761 0.0
C1232 C 0.51127 0.79072 0.15038 0.0
C1233 C 0.5534 0.76848 0.13604 0.0
C1234 C 0.55373 0.77905 0.16179 0.0
C1235 C 0.52893 0.79591 0.19585 0.0
C1236 C 0.50491 0.8032 0.20322 0.0
C1237 C 0.53187 0.78909 0.16943 0.0
C1238 C 0.48564 0.80597 0.18377 0.0
C1239 C 0.48897 0.80009 0.15762 0.0
H1240 H 0.17716 0.68551 0.1809 0.0
H1241 H 0.20291 0.77445 0.22116 0.0
H1242 H 0.22404 0.80471 0.18004 0.0
H1243 H 0.24205 0.80594 0.1339 0.0
H1244 H 0.21705 0.71592 0.09556 0.0
H1245 H 0.18839 0.68595 0.1345 0.0
C1246 C 0.18695 0.71148 0.18058 0.0
C1247 C 0.18903 0.72787 0.20395 0.0
C1248 C 0.19922 0.72846 0.15718 0.0
C1249 C 0.20121 0.7614 0.20332 0.0
C1250 C 0.21341 0.77866 0.17986 0.0
C1251 C 0.22934 0.77972 0.13394 0.0
C1252 C 0.23158 0.76301 0.11206 0.0
C1253 C 0.21349 0.76252 0.15681 0.0
C1254 C 0.21556 0.72912 0.11228 0.0
C1255 C 0.1993 0.71198 0.13454 0.0
H1256 H 0.25264 0.46318 0.19548 0.0
H1257 H 0.31461 0.56718 0.19578 0.0
H1258 H 0.29246 0.57095 0.15423 0.0
H1259 H 0.25517 0.54579 0.11838 0.0
H1260 H 0.19321 0.44219 0.11584 0.0
H1261 H 0.2159 0.43726 0.15762 0.0
C1262 C 0.26132 0.48662 0.18641 0.0
C1263 C 0.28517 0.51481 0.19898 0.0
C1264 C 0.24851 0.48879 0.16215 0.0
C1265 C 0.29628 0.54499 0.18677 0.0
C1266 C 0.2836 0.54728 0.16293 0.0
C1267 C 0.24644 0.52205 0.12696 0.0
C1268 C 0.22228 0.49445 0.11424 0.0
C1269 C 0.25961 0.51946 0.15061 0.0
C1270 C 0.21178 0.46384 0.12534 0.0
C1271 C 0.22469 0.46104 0.14922 0.0
H1272 H 0.22451 0.49076 0.59979 0.0
H1273 H 0.26062 0.43161 0.63164 0.0
H1274 H 0.23165 0.42596 0.67292 0.0
H1275 H 0.2028 0.44512 0.7017 0.0
H1276 H 0.1694 0.50652 0.66917 0.0
H1277 H 0.18986 0.50352 0.62619 0.0
C1278 C 0.22529 0.47599 0.61563 0.0
C1279 C 0.24448 0.46167 0.61305 0.0
C1280 C 0.20925 0.47351 0.63915 0.0
C1281 C 0.24569 0.44264 0.63342 0.0
C1282 C 0.22935 0.43964 0.65698 0.0
C1283 C 0.19927 0.45703 0.68499 0.0
C1284 C 0.18503 0.47634 0.68857 0.0
C1285 C 0.21198 0.45596 0.66038 0.0
C1286 C 0.18069 0.49186 0.66688 0.0
C1287 C 0.19243 0.49023 0.64233 0.0
H1288 H 0.56277 0.81117 0.64092 0.0
H1289 H 0.53431 0.7248 0.59583 0.0
H1290 H 0.53261 0.69548 0.63555 0.0
H1291 H 0.52837 0.69186 0.68344 0.0
H1292 H 0.55572 0.77749 0.72924 0.0
H1293 H 0.56904 0.80995 0.68906 0.0
C1294 C 0.55785 0.78643 0.63978 0.0
C1295 C 0.54906 0.77011 0.61564 0.0
C1296 C 0.55582 0.76945 0.66289 0.0
C1297 C 0.54172 0.73782 0.61426 0.0
C1298 C 0.54026 0.72096 0.63699 0.0
C1299 C 0.53808 0.7178 0.68454 0.0
C1300 C 0.54073 0.73237 0.70898 0.0
C1301 C 0.54555 0.73608 0.66148 0.0
C1302 C 0.55352 0.76593 0.71048 0.0
C1303 C 0.56096 0.78438 0.68754 0.0
H1304 H 0.25995 0.75916 0.61461 0.0
H1305 H 0.16686 0.7419 0.63995 0.0
H1306 H 0.19059 0.76972 0.68167 0.0
H1307 H 0.23697 0.79238 0.7129 0.0
H1308 H 0.32891 0.80668 0.68647 0.0
H1309 H 0.30667 0.78698 0.64308 0.0
C1310 C 0.24501 0.76208 0.62913 0.0
C1311 C 0.21183 0.74845 0.62454 0.0
C1312 C 0.25863 0.7773 0.65292 0.0
C1313 C 0.19255 0.75241 0.64319 0.0
C1314 C 0.2061 0.76805 0.66705 0.0
C1315 C 0.25219 0.7918 0.69742 0.0
C1316 C 0.28441 0.80053 0.70295 0.0
C1317 C 0.23896 0.77965 0.67247 0.0
C1318 C 0.30393 0.79962 0.68279 0.0
C1319 C 0.29125 0.78837 0.65797 0.0
H1320 H 0.10377 0.51045 0.12834 0.0
H1321 H 0.16104 0.60573 0.0951 0.0
H1322 H 0.1547 0.62996 0.13502 0.0
H1323 H 0.14078 0.62486 0.18105 0.0
H1324 H 0.08757 0.53085 0.21681 0.0
H1325 H 0.08372 0.5051 0.17415 0.0
C1326 C 0.11426 0.53645 0.12981 0.0
C1327 C 0.13323 0.55644 0.10916 0.0
C1328 C 0.11152 0.55038 0.15326 0.0
C1329 C 0.14682 0.59006 0.11104 0.0
C1330 C 0.14322 0.60391 0.13378 0.0
C1331 C 0.12776 0.5987 0.17935 0.0
C1332 C 0.11488 0.57967 0.20183 0.0
C1333 C 0.12681 0.58443 0.15529 0.0
C1334 C 0.09763 0.54586 0.19958 0.0
C1335 C 0.09577 0.53124 0.1753 0.0
H1336 H 0.44849 0.58104 0.12006 0.0
H1337 H 0.4635 0.6745 0.14361 0.0
H1338 H 0.4522 0.65676 0.18879 0.0
H1339 H 0.4335 0.61406 0.22094 0.0
H1340 H 0.41419 0.51892 0.19873 0.0
H1341 H 0.43288 0.53825 0.15402 0.0
C1342 C 0.44942 0.59747 0.13516 0.0
C1343 C 0.45614 0.62881 0.12832 0.0
C1344 C 0.44239 0.58694 0.16138 0.0
C1345 C 0.4576 0.64998 0.14814 0.0
C1346 C 0.4514 0.63999 0.17408 0.0
C1347 C 0.43373 0.59756 0.20643 0.0
C1348 C 0.42212 0.56505 0.21302 0.0
C1349 C 0.44309 0.6084 0.1808 0.0
C1350 C 0.42312 0.54413 0.19415 0.0
C1351 C 0.43342 0.55509 0.16851 0.0
H1352 H 0.42223 0.88425 0.12937 0.0
H1353 H 0.32822 0.80304 0.14749 0.0
H1354 H 0.34252 0.80712 0.19349 0.0
H1355 H 0.38305 0.82907 0.22756 0.0
H1356 H 0.47882 0.90725 0.21064 0.0
H1357 H 0.46229 0.90996 0.16552 0.0
C1358 C 0.4049 0.86771 0.14349 0.0
C1359 C 0.37449 0.84292 0.13492 0.0
C1360 C 0.41351 0.86978 0.17015 0.0
C1361 C 0.35209 0.8218 0.15344 0.0
C1362 C 0.36011 0.82423 0.17982 0.0
C1363 C 0.40015 0.84718 0.21414 0.0
C1364 C 0.43209 0.86771 0.22222 0.0
C1365 C 0.39095 0.84747 0.18823 0.0
C1366 C 0.45398 0.89132 0.20484 0.0
C1367 C 0.44464 0.89251 0.17896 0.0
H1368 H 0.03404 0.07997 0.11471 0.0
H1369 H 0.11863 0.1684 0.13864 0.0
H1370 H 0.14835 0.1395 0.14443 0.0
H1371 H 0.15242 0.09057 0.1359 0.0
H1372 H 0.0674 0.00306 0.11085 0.0
H1373 H 0.03568 0.02987 0.11277 0.0
C1374 C 0.05882 0.09279 0.12163 0.0
C1375 C 0.0743 0.12628 0.12578 0.0
C1376 C 0.0758 0.07619 0.12454 0.0
C1377 C 0.10621 0.14256 0.13521 0.0
C1378 C 0.12329 0.12609 0.13836 0.0
C1379 C 0.12679 0.07726 0.13157 0.0
C1380 C 0.11239 0.04512 0.1228 0.0
C1381 C 0.10869 0.09311 0.13212 0.0
C1382 C 0.07913 0.02803 0.11723 0.0
C1383 C 0.06095 0.04333 0.11826 0.0
H1384 H 0.83011 0.9628 0.10581 0.0
H1385 H 0.90985 0.94656 0.11868 0.0
H1386 H 0.94665 0.00442 0.12339 0.0
H1387 H 0.95754 0.05948 0.11771 0.0
H1388 H 0.87952 0.07791 0.10347 0.0
H1389 H 0.84051 0.01957 0.10583 0.0
C1390 C 0.85536 0.97204 0.11037 0.0
C1391 C 0.86744 0.95059 0.11173 0.0
C1392 C 0.87669 0.00571 0.11244 0.0
C1393 C 0.90022 0.96272 0.11736 0.0
C1394 C 0.92126 0.99578 0.11999 0.0
C1395 C 0.9319 0.05074 0.11557 0.0
C1396 C 0.92136 0.07274 0.1101 0.0
C1397 C 0.90999 0.01749 0.11658 0.0
C1398 C 0.88813 0.06131 0.10772 0.0
C1399 C 0.86591 0.02797 0.10888 0.0
H1400 H 0.93151 0.82236 0.11263 0.0
H1401 H 0.9332 0.91342 0.11278 0.0
H1402 H 0.99142 0.94254 0.11869 0.0
H1403 H 0.04212 0.94272 0.11718 0.0
H1404 H 0.04295 0.85309 0.11533 0.0
H1405 H 0.98357 0.82257 0.11703 0.0
C1406 C 0.9447 0.84847 0.11468 0.0
C1407 C 0.92836 0.8659 0.11208 0.0
C1408 C 0.97857 0.86523 0.11734 0.0
C1409 C 0.94549 0.8997 0.11455 0.0
C1410 C 0.97874 0.91634 0.11784 0.0
C1411 C 0.02924 0.91648 0.11757 0.0
C1412 C 0.04647 0.90003 0.11572 0.0
C1413 C 0.99557 0.89946 0.11818 0.0
C1414 C 0.02988 0.86611 0.11669 0.0
C1415 C 0.99603 0.84876 0.11749 0.0
H1416 H 0.04558 0.10004 0.39069 0.0
H1417 H 0.12701 0.19145 0.36788 0.0
H1418 H 0.16081 0.16616 0.36506 0.0
H1419 H 0.16792 0.11896 0.37411 0.0
H1420 H 0.08535 0.02883 0.39838 0.0
H1421 H 0.05107 0.05271 0.39544 0.0
C1422 C 0.07068 0.11443 0.38487 0.0
C1423 C 0.08404 0.14758 0.37996 0.0
C1424 C 0.0897 0.09996 0.38375 0.0
C1425 C 0.11634 0.16584 0.37187 0.0
C1426 C 0.13561 0.15143 0.37042 0.0
C1427 C 0.14234 0.10451 0.37833 0.0
C1428 C 0.12926 0.07231 0.38687 0.0
C1429 C 0.12272 0.11865 0.37706 0.0
C1430 C 0.09608 0.05379 0.39224 0.0
C1431 C 0.07643 0.06739 0.39052 0.0
H1432 H 0.89572 0.05078 0.36001 0.0
H1433 H 0.98706 0.06174 0.38421 0.0
H1434 H 0.96516 0.00368 0.38098 0.0
H1435 H 0.91884 0.94965 0.37673 0.0
H1436 H 0.82621 0.93655 0.35428 0.0
H1437 H 0.84981 0.99541 0.3509 0.0
C1438 C 0.9109 0.04041 0.36397 0.0
C1439 C 0.94287 0.06047 0.37261 0.0
C1440 C 0.89783 0.0066 0.36268 0.0
C1441 C 0.96229 0.04677 0.37784 0.0
C1442 C 0.94979 0.01355 0.37603 0.0
C1443 C 0.90383 0.95962 0.37078 0.0
C1444 C 0.87075 0.93885 0.36616 0.0
C1445 C 0.91737 0.99321 0.36937 0.0
C1446 C 0.85176 0.95208 0.35799 0.0
C1447 C 0.86522 0.98573 0.35624 0.0
H1448 H 0.06599 0.89885 0.36389 0.0
H1449 H 0.0708 0.97511 0.4126 0.0
H1450 H 0.0135 0.95403 0.40727 0.0
H1451 H 0.96158 0.91201 0.39262 0.0
H1452 H 0.95306 0.83194 0.3472 0.0
H1453 H 0.01208 0.85667 0.34689 0.0
C1454 C 0.05436 0.91081 0.3731 0.0
C1455 C 0.07255 0.93827 0.38885 0.0
C1456 C 0.02074 0.89788 0.37063 0.0
C1457 C 0.0573 0.9537 0.40065 0.0
C1458 C 0.0245 0.94174 0.3976 0.0
C1459 C 0.9725 0.89991 0.38246 0.0
C1460 C 0.95295 0.86996 0.37034 0.0
C1461 C 0.00593 0.91351 0.38321 0.0
C1462 C 0.96762 0.85504 0.35679 0.0
C1463 C 0.00134 0.86905 0.35679 0.0
H1464 H 0.96524 0.91451 0.88169 0.0
H1465 H 0.87623 0.82559 0.86775 0.0
H1466 H 0.84762 0.85589 0.86251 0.0
H1467 H 0.8473 0.90761 0.86719 0.0
H1468 H 0.93732 0.99552 0.88187 0.0
H1469 H 0.96624 0.96579 0.88108 0.0
C1470 C 0.93962 0.90178 0.87725 0.0
C1471 C 0.92271 0.86794 0.87556 0.0
C1472 C 0.92352 0.91922 0.87446 0.0
C1473 C 0.88969 0.85171 0.86925 0.0
C1474 C 0.87334 0.86901 0.86638 0.0
C1475 C 0.8733 0.9202 0.86962 0.0
C1476 C 0.89011 0.95355 0.87499 0.0
C1477 C 0.88987 0.90276 0.86966 0.0
C1478 C 0.92382 0.96973 0.87814 0.0
C1479 C 0.94039 0.95278 0.87773 0.0
H1480 H 0.10493 0.04732 0.87017 0.0
H1481 H 0.19648 0.05059 0.86921 0.0
H1482 H 0.16864 0.99126 0.86687 0.0
H1483 H 0.11765 0.93834 0.872 0.0
H1484 H 0.02707 0.93735 0.87463 0.0
H1485 H 0.05496 0.99571 0.86907 0.0
C1486 C 0.11878 0.03503 0.86889 0.0
C1487 C 0.15255 0.05306 0.87016 0.0
C1488 C 0.10269 0.00125 0.86813 0.0
C1489 C 0.17036 0.03707 0.86818 0.0
C1490 C 0.15444 0.00317 0.8671 0.0
C1491 C 0.10416 0.95096 0.8707 0.0
C1492 C 0.07047 0.93377 0.87413 0.0
C1493 C 0.12054 0.98493 0.86808 0.0
C1494 C 0.0531 0.95025 0.87246 0.0
C1495 C 0.06899 0.9836 0.86928 0.0
H1496 H 0.96655 0.0579 0.86395 0.0
H1497 H 0.96909 0.14926 0.86462 0.0
H1498 H 0.02824 0.17798 0.86092 0.0
H1499 H 0.07933 0.17651 0.86499 0.0
H1500 H 0.07487 0.08408 0.86617 0.0
H1501 H 0.01645 0.05629 0.86113 0.0
C1502 C 0.98007 0.08411 0.86269 0.0
C1503 C 0.96381 0.10157 0.86488 0.0
C1504 C 0.01375 0.1002 0.86108 0.0
C1505 C 0.98129 0.13542 0.86294 0.0
C1506 C 0.01507 0.15178 0.86104 0.0
C1507 C 0.06555 0.15038 0.86331 0.0
C1508 C 0.08117 0.13227 0.86623 0.0
C1509 C 0.03164 0.13441 0.86115 0.0
C1510 C 0.06319 0.09841 0.86423 0.0
C1511 C 0.02982 0.08251 0.86144 0.0
H1512 H 0.90063 0.8339 0.6232 0.0
H1513 H 0.98919 0.92409 0.61114 0.0
H1514 H 0.95991 0.95352 0.61248 0.0
H1515 H 0.90882 0.9528 0.61062 0.0
H1516 H 0.81932 0.8636 0.62169 0.0
H1517 H 0.8491 0.83449 0.62746 0.0
C1518 C 0.91347 0.86005 0.62164 0.0
C1519 C 0.94689 0.87684 0.61679 0.0
C1520 C 0.89627 0.87686 0.62177 0.0
C1521 C 0.96338 0.9107 0.61461 0.0
C1522 C 0.94668 0.92753 0.61527 0.0
C1523 C 0.89588 0.92705 0.61466 0.0
C1524 C 0.86206 0.91019 0.61529 0.0
C1525 C 0.91305 0.91072 0.61775 0.0
C1526 C 0.84545 0.87698 0.62102 0.0
C1527 C 0.86246 0.86037 0.62419 0.0
H1528 H 0.05418 0.95673 0.60954 0.0
H1529 H 0.14245 0.95383 0.61535 0.0
H1530 H 0.17348 0.01311 0.61915 0.0
H1531 H 0.1754 0.06626 0.61567 0.0
H1532 H 0.08569 0.06668 0.60946 0.0
H1533 H 0.05534 0.00802 0.61138 0.0
C1534 C 0.0802 0.96906 0.61192 0.0
C1535 C 0.09611 0.95116 0.61176 0.0
C1536 C 0.09763 0.00278 0.61395 0.0
C1537 C 0.12973 0.96725 0.61536 0.0
C1538 C 0.14744 0.00111 0.61739 0.0
C1539 C 0.14924 0.0534 0.61534 0.0
C1540 C 0.1328 0.07069 0.61205 0.0
C1541 C 0.1317 0.01925 0.61601 0.0
C1542 C 0.09886 0.05383 0.61159 0.0
C1543 C 0.08145 0.02028 0.61266 0.0
H1544 H 0.93773 0.10054 0.62517 0.0
H1545 H 0.93803 0.01257 0.60662 0.0
H1546 H 0.99637 0.04029 0.61108 0.0
H1547 H 0.04749 0.09062 0.61389 0.0
H1548 H 0.04932 0.17975 0.63122 0.0
H1549 H 0.99015 0.15062 0.63403 0.0
C1550 C 0.95061 0.08743 0.62274 0.0
C1551 C 0.93372 0.05473 0.61515 0.0
C1552 C 0.98455 0.1038 0.62479 0.0
C1553 C 0.9506 0.0379 0.61205 0.0
C1554 C 0.98397 0.0537 0.61457 0.0
C1555 C 0.03494 0.10357 0.61872 0.0
C1556 C 0.05252 0.13721 0.62196 0.0
C1557 C 0.00123 0.08684 0.61989 0.0
C1558 C 0.03615 0.15375 0.62863 0.0
C1559 C 0.00235 0.13714 0.63004 0.0
H1560 H 0.8289 0.43452 0.45749 0.0
H1561 H 0.74045 0.34251 0.45786 0.0
H1562 H 0.70912 0.36946 0.46338 0.0
H1563 H 0.70625 0.41902 0.46021 0.0
H1564 H 0.7938 0.51158 0.45976 0.0
H1565 H 0.82604 0.48483 0.46252 0.0
C1566 C 0.8029 0.42046 0.45972 0.0
C1567 C 0.78697 0.38664 0.45692 0.0
C1568 C 0.78479 0.43625 0.46237 0.0
C1569 C 0.7532 0.36863 0.45967 0.0
C1570 C 0.73522 0.38401 0.46269 0.0
C1571 C 0.73238 0.43331 0.46138 0.0
C1572 C 0.74768 0.4671 0.45949 0.0
C1573 C 0.75064 0.41779 0.46279 0.0
C1574 C 0.78151 0.48546 0.46126 0.0
C1575 C 0.79995 0.47016 0.46262 0.0
H1576 H 0.50894 0.29358 0.46533 0.0
H1577 H 0.59408 0.28649 0.47935 0.0
H1578 H 0.62721 0.34525 0.48047 0.0
H1579 H 0.63323 0.39754 0.46867 0.0
H1580 H 0.54914 0.40561 0.45296 0.0
H1581 H 0.51414 0.3476 0.46158 0.0
C1582 C 0.53452 0.30494 0.46966 0.0
C1583 C 0.54917 0.28583 0.47193 0.0
C1584 C 0.55365 0.33886 0.46937 0.0
C1585 C 0.58238 0.30078 0.47732 0.0
C1586 C 0.60136 0.33436 0.47777 0.0
C1587 C 0.60717 0.38665 0.4678 0.0
C1588 C 0.59362 0.40538 0.45986 0.0
C1589 C 0.58749 0.3535 0.4724 0.0
C1590 C 0.55994 0.39143 0.45904 0.0
C1591 C 0.54002 0.3583 0.46379 0.0
H1592 H 0.71439 0.27029 0.47281 0.0
H1593 H 0.72121 0.19075 0.44039 0.0
H1594 H 0.66242 0.15603 0.44287 0.0
H1595 H 0.60914 0.15295 0.4451 0.0
H1596 H 0.60369 0.234 0.476 0.0
H1597 H 0.66172 0.26333 0.48399 0.0
C1598 C 0.70297 0.24497 0.4673 0.0
C1599 C 0.72163 0.23296 0.45629 0.0
C1600 C 0.66937 0.22561 0.46822 0.0
C1601 C 0.70702 0.20026 0.44909 0.0
C1602 C 0.67344 0.18058 0.45022 0.0
C1603 C 0.62066 0.17645 0.45455 0.0
C1604 C 0.60266 0.1916 0.45985 0.0
C1605 C 0.65428 0.19356 0.4584 0.0
C1606 C 0.61747 0.22215 0.4718 0.0
C1607 C 0.65058 0.23897 0.4762 0.0
H1608 H 0.82952 0.45398 0.67667 0.0
H1609 H 0.75177 0.3655 0.64483 0.0
H1610 H 0.71822 0.39039 0.64088 0.0
H1611 H 0.707 0.43216 0.65637 0.0
H1612 H 0.78297 0.51949 0.69107 0.0
H1613 H 0.82145 0.5007 0.68356 0.0
C1614 C 0.80577 0.44071 0.66779 0.0
C1615 C 0.79291 0.40788 0.6613 0.0
C1616 C 0.78606 0.45477 0.6667 0.0
C1617 C 0.762 0.39074 0.65008 0.0
C1618 C 0.74273 0.40488 0.64805 0.0
C1619 C 0.73225 0.4475 0.6615 0.0
C1620 C 0.74212 0.47681 0.67466 0.0
C1621 C 0.75383 0.4361 0.65783 0.0
C1622 C 0.77487 0.49677 0.68095 0.0
C1623 C 0.79677 0.48586 0.67689 0.0
H1624 H 0.48861 0.27767 0.70491 0.0
H1625 H 0.55858 0.25869 0.66837 0.0
H1626 H 0.58907 0.31443 0.65299 0.0
H1627 H 0.60101 0.3704 0.6569 0.0
H1628 H 0.53219 0.39056 0.69427 0.0
H1629 H 0.49594 0.33291 0.70171 0.0
C1630 C 0.50987 0.28558 0.69278 0.0
C1631 C 0.52143 0.26427 0.68774 0.0
C1632 C 0.52782 0.3181 0.68444 0.0
C1633 C 0.54928 0.2748 0.67238 0.0
C1634 C 0.56684 0.30671 0.66372 0.0
C1635 C 0.57764 0.36211 0.66594 0.0
C1636 C 0.56963 0.38488 0.67526 0.0
C1637 C 0.55714 0.32892 0.67065 0.0
C1638 C 0.53909 0.37366 0.6868 0.0
C1639 C 0.5184 0.3406 0.69136 0.0
H1640 H 0.61807 0.16286 0.69735 0.0
H1641 H 0.60665 0.23821 0.66147 0.0
H1642 H 0.66477 0.27043 0.65434 0.0
H1643 H 0.71859 0.2818 0.66691 0.0
H1644 H 0.73131 0.2091 0.70599 0.0
H1645 H 0.67306 0.17081 0.70287 0.0
C1646 C 0.6283 0.18575 0.68704 0.0
C1647 C 0.60833 0.19835 0.68003 0.0
C1648 C 0.66198 0.2048 0.68408 0.0
C1649 C 0.62171 0.22821 0.66705 0.0
C1650 C 0.65492 0.24669 0.66316 0.0
C1651 C 0.70864 0.25719 0.674 0.0
C1652 C 0.72884 0.24822 0.68692 0.0
C1653 C 0.67531 0.23598 0.6729 0.0
C1654 C 0.71605 0.21638 0.69591 0.0
C1655 C 0.68275 0.19467 0.69437 0.0
H1656 H 0.60656 0.23806 0.1816 0.0
H1657 H 0.52099 0.1467 0.19733 0.0
H1658 H 0.48844 0.1732 0.19772 0.0
H1659 H 0.48645 0.22421 0.2011 0.0
H1660 H 0.57345 0.3151 0.18692 0.0
H1661 H 0.60308 0.28704 0.17804 0.0
C1662 C 0.58064 0.22382 0.18446 0.0
C1663 C 0.56626 0.19062 0.18972 0.0
C1664 C 0.56234 0.23929 0.18526 0.0
C1665 C 0.53262 0.17235 0.19315 0.0
C1666 C 0.51405 0.18756 0.19365 0.0
C1667 C 0.51161 0.23764 0.19531 0.0
C1668 C 0.52789 0.27164 0.195 0.0
C1669 C 0.52889 0.22129 0.19082 0.0
C1670 C 0.56056 0.2889 0.1876 0.0
C1671 C 0.57756 0.2729 0.18257 0.0
H1672 H 0.81413 0.37122 0.18472 0.0
H1673 H 0.73069 0.38333 0.18552 0.0
H1674 H 0.69509 0.32504 0.18281 0.0
H1675 H 0.68745 0.27097 0.18745 0.0
H1676 H 0.76958 0.25696 0.18905 0.0
H1677 H 0.80595 0.31541 0.18315 0.0
C1678 C 0.7882 0.36103 0.18345 0.0
C1679 C 0.775 0.38151 0.18539 0.0
C1680 C 0.76767 0.32713 0.18277 0.0
C1681 C 0.74136 0.36805 0.18411 0.0
C1682 C 0.72098 0.3347 0.18271 0.0
C1683 C 0.71331 0.28065 0.18596 0.0
C1684 C 0.72591 0.25988 0.189 0.0
C1685 C 0.73383 0.31405 0.18316 0.0
C1686 C 0.75936 0.27254 0.18672 0.0
C1687 C 0.78012 0.30598 0.18358 0.0
H1688 H 0.71665 0.5129 0.19712 0.0
H1689 H 0.72563 0.43126 0.17333 0.0
H1690 H 0.6674 0.39867 0.16723 0.0
H1691 H 0.61374 0.39052 0.17714 0.0
H1692 H 0.60359 0.47156 0.20047 0.0
H1693 H 0.66218 0.50744 0.19788 0.0
C1694 C 0.70585 0.48844 0.18955 0.0
C1695 C 0.72511 0.47428 0.1858 0.0
C1696 C 0.67208 0.46958 0.18649 0.0
C1697 C 0.71101 0.44245 0.17635 0.0
C1698 C 0.67774 0.42376 0.17305 0.0
C1699 C 0.62438 0.41626 0.18076 0.0
C1700 C 0.60467 0.42846 0.18912 0.0
C1701 C 0.65795 0.43657 0.17935 0.0
C1702 C 0.61845 0.46177 0.19381 0.0
C1703 C 0.65196 0.48221 0.19258 0.0
H1704 H 0.62546 0.23261 0.9855 0.0
H1705 H 0.55179 0.14368 0.95116 0.0
H1706 H 0.5126 0.16221 0.95512 0.0
H1707 H 0.50377 0.20898 0.95886 0.0
H1708 H 0.57914 0.29857 0.99103 0.0
H1709 H 0.61296 0.27445 -0.00182 0.0
C1710 C 0.60048 0.21687 0.9798 0.0
C1711 C 0.59147 0.18713 0.96777 0.0
C1712 C 0.57852 0.22805 0.98152 0.0
C1713 C 0.55914 0.1667 0.96053 0.0
C1714 C 0.53686 0.17746 0.96253 0.0
C1715 C 0.52698 0.22258 0.96855 0.0
C1716 C 0.53919 0.25543 0.97436 0.0
C1717 C 0.5468 0.20883 0.97165 0.0
C1718 C 0.56946 0.27322 0.98645 0.0
C1719 C 0.58886 0.25952 0.99032 0.0
H1720 H 0.80044 0.28549 0.96349 0.0
H1721 H 0.71691 0.28383 -0.003 0.0
H1722 H 0.74698 0.34255 0.00139 0.0
H1723 H 0.79134 0.3936 0.985 0.0
H1724 H 0.87337 0.39596 0.9481 0.0
H1725 H 0.8501 0.33788 0.95617 0.0
C1726 C 0.78934 0.2979 0.97282 0.0
C1727 C 0.7564 0.28055 0.97952 0.0
C1728 C 0.80635 0.33187 0.97408 0.0
C1729 C 0.74216 0.29683 0.99146 0.0
C1730 C 0.75927 0.33041 0.99377 0.0
C1731 C 0.80463 0.38153 0.97968 0.0
C1732 C 0.83365 0.3986 0.9657 0.0
C1733 C 0.79054 0.34816 0.98351 0.0
C1734 C 0.85096 0.38311 0.95893 0.0
C1735 C 0.83745 0.34987 0.96328 0.0
H1736 H 0.72588 0.42161 0.9733 0.0
H1737 H 0.74254 0.51684 0.95488 0.0
H1738 H 0.68464 0.49707 0.95711 0.0
H1739 H 0.62873 0.4502 0.9558 0.0
H1740 H 0.61323 0.35516 0.97292 0.0
H1741 H 0.6708 0.3773 0.98022 0.0
C1742 C 0.71692 0.43823 0.97048 0.0
C1743 C 0.73846 0.47046 0.96347 0.0
C1744 C 0.68356 0.42659 0.97129 0.0
C1745 C 0.72651 0.49182 0.96022 0.0
C1746 C 0.69329 0.48047 0.96126 0.0
C1747 C 0.63796 0.43469 0.96209 0.0
C1748 C 0.61696 0.40114 0.96367 0.0
C1749 C 0.67145 0.44754 0.96555 0.0
C1750 C 0.62911 0.38109 0.97153 0.0
C1751 C 0.66204 0.39369 0.97553 0.0
H1752 H 0.50187 0.77376 0.80383 0.0
H1753 H 0.42 0.68051 0.82188 0.0
H1754 H 0.38783 0.70551 0.83261 0.0
H1755 H 0.37999 0.75209 0.8286 0.0
H1756 H 0.46079 0.84552 0.80895 0.0
H1757 H 0.49634 0.82261 0.80774 0.0
C1758 C 0.47742 0.75922 0.8111 0.0
C1759 C 0.46324 0.7254 0.81204 0.0
C1760 C 0.45861 0.77375 0.8165 0.0
C1761 C 0.43135 0.70663 0.82106 0.0
C1762 C 0.41286 0.72088 0.82701 0.0
C1763 C 0.40556 0.76765 0.82477 0.0
C1764 C 0.41751 0.80034 0.81847 0.0
C1765 C 0.42574 0.75417 0.82354 0.0
C1766 C 0.45082 0.82023 0.81384 0.0
C1767 C 0.47119 0.80706 0.81289 0.0
H1768 H 0.15696 0.62373 0.797 0.0
H1769 H 0.22921 0.60456 0.82844 0.0
H1770 H 0.26478 0.66205 0.8372 0.0
H1771 H 0.27968 0.71764 0.8264 0.0
H1772 H 0.2094 0.7379 0.79228 0.0
H1773 H 0.1684 0.68039 0.79456 0.0
C1774 C 0.17986 0.63214 0.80691 0.0
C1775 C 0.19055 0.61018 0.81225 0.0
C1776 C 0.20078 0.66551 0.81081 0.0
C1777 C 0.22053 0.62118 0.82446 0.0
C1778 C 0.24098 0.65405 0.82918 0.0
C1779 C 0.25506 0.70954 0.8203 0.0
C1780 C 0.24758 0.73171 0.80886 0.0
C1781 C 0.23207 0.6765 0.82101 0.0
C1782 C 0.21565 0.72118 0.80118 0.0
C1783 C 0.19232 0.68825 0.80224 0.0
H1784 H 0.3745 0.61019 0.81053 0.0
H1785 H 0.38036 0.52712 0.78578 0.0
H1786 H 0.32127 0.4943 0.785 0.0
H1787 H 0.26858 0.49281 0.78316 0.0
H1788 H 0.26464 0.57755 0.80649 0.0
H1789 H 0.32204 0.60591 0.81651 0.0
C1790 C 0.36275 0.58463 0.80575 0.0
C1791 C 0.38148 0.5711 0.79792 0.0
C1792 C 0.32905 0.56633 0.80473 0.0
C1793 C 0.36626 0.53796 0.79195 0.0
C1794 C 0.3325 0.51932 0.79122 0.0
C1795 C 0.28023 0.51709 0.79118 0.0
C1796 C 0.26273 0.53337 0.79361 0.0
C1797 C 0.31366 0.53369 0.79634 0.0
C1798 C 0.27791 0.56483 0.80404 0.0
C1799 C 0.31071 0.58109 0.80975 0.0
H1800 H 0.45025 0.84917 0.03722 0.0
H1801 H 0.36797 0.77515 -0.00443 0.0
H1802 H 0.39944 0.75069 0.98116 0.0
H1803 H 0.44467 0.7424 0.99058 0.0
H1804 H 0.52552 0.81324 0.03551 0.0
H1805 H 0.50118 0.84755 0.03761 0.0
C1806 C 0.43981 0.82852 0.0241 0.0
C1807 C 0.40691 0.81354 0.01773 0.0
C1808 C 0.45772 0.81374 0.01681 0.0
C1809 C 0.39329 0.78672 0.00087 0.0
C1810 C 0.4112 0.77267 0.99273 0.0
C1811 C 0.45756 0.76602 -0.00018 0.0
C1812 C 0.48633 0.775 0.01337 0.0
C1813 C 0.44267 0.78472 0.00206 0.0
C1814 C 0.50318 0.80576 0.02502 0.0
C1815 C 0.48901 0.82517 0.02659 0.0
H1816 H 0.20365 0.71695 0.0243 0.0
H1817 H 0.28846 0.72922 0.98445 0.0
H1818 H 0.26062 0.6718 0.97346 0.0
H1819 H 0.21778 0.61729 0.98475 0.0
H1820 H 0.13473 0.60394 0.02812 0.0
H1821 H 0.15556 0.66228 0.0275 0.0
C1822 C 0.21543 0.70724 0.0122 0.0
C1823 C 0.24808 0.72712 0.00531 0.0
C1824 C 0.19972 0.67378 0.00706 0.0
C1825 C 0.26335 0.71427 0.98999 0.0
C1826 C 0.24752 0.68139 0.98391 0.0
C1827 C 0.20367 0.62708 0.9932 0.0
C1828 C 0.17508 0.60644 0.00685 0.0
C1829 C 0.2165 0.66068 0.99376 0.0
C1830 C 0.15682 0.6193 0.01749 0.0
C1831 C 0.16898 0.65277 0.01745 0.0
H1832 H 0.28432 0.58134 -0.00527 0.0
H1833 H 0.27255 0.49152 0.02391 0.0
H1834 H 0.33118 0.5146 0.02459 0.0
H1835 H 0.3853 0.56427 0.02621 0.0
H1836 H 0.39567 0.65392 -0.00231 0.0
H1837 H 0.33851 0.62695 0.98677 0.0
C1838 C 0.29463 0.56648 0.00025 0.0
C1839 C 0.2743 0.535 0.00951 0.0
C1840 C 0.32827 0.58012 0.00109 0.0
C1841 C 0.28778 0.51584 0.01657 0.0
C1842 C 0.32136 0.52918 0.01729 0.0
C1843 C 0.37521 0.57747 0.01662 0.0
C1844 C 0.39445 0.61108 0.01313 0.0
C1845 C 0.34187 0.56188 0.01095 0.0
C1846 C 0.38114 0.62806 0.00082 0.0
C1847 C 0.34841 0.61271 -0.0053 0.0
H1848 H 0.27642 0.56674 0.50224 0.0
H1849 H 0.19838 0.47423 0.52693 0.0
H1850 H 0.16153 0.49586 0.52726 0.0
H1851 H 0.15505 0.54438 0.52941 0.0
H1852 H 0.23449 0.63682 0.50605 0.0
H1853 H 0.26697 0.61202 0.49575 0.0
C1854 C 0.25104 0.55103 0.50673 0.0
C1855 C 0.24016 0.51907 0.51471 0.0
C1856 C 0.23031 0.56385 0.50745 0.0
C1857 C 0.20726 0.49888 0.52052 0.0
C1858 C 0.18628 0.51139 0.52104 0.0
C1859 C 0.17895 0.55868 0.52102 0.0
C1860 C 0.19245 0.59232 0.51843 0.0
C1861 C 0.19795 0.5443 0.51581 0.0
C1862 C 0.22366 0.61084 0.50804 0.0
C1863 C 0.24233 0.59673 0.50236 0.0
H1864 H 0.43877 0.71155 0.49847 0.0
H1865 H 0.52374 0.71514 0.53045 0.0
H1866 H 0.49886 0.65648 0.52548 0.0
H1867 H 0.44786 0.60394 0.52271 0.0
H1868 H 0.36234 0.60147 0.49302 0.0
H1869 H 0.39257 0.65965 0.48561 0.0
C1870 C 0.45231 0.69957 0.50323 0.0
C1871 C 0.48274 0.71733 0.51505 0.0
C1872 C 0.43743 0.66587 0.50113 0.0
C1873 C 0.50026 0.70183 0.52118 0.0
C1874 C 0.48583 0.66822 0.51869 0.0
C1875 C 0.43633 0.61601 0.51352 0.0
C1876 C 0.4029 0.59871 0.50879 0.0
C1877 C 0.45366 0.64982 0.51024 0.0
C1878 C 0.38803 0.61451 0.49705 0.0
C1879 C 0.40524 0.6478 0.49299 0.0
H1880 H 0.38896 0.827 0.54401 0.0
H1881 H 0.39363 0.74329 0.51873 0.0
H1882 H 0.33601 0.71449 0.50944 0.0
H1883 H 0.28332 0.7094 0.5167 0.0
H1884 H 0.27703 0.79161 0.54339 0.0
H1885 H 0.33602 0.82488 0.54337 0.0
C1886 C 0.37744 0.80288 0.53567 0.0
C1887 C 0.39524 0.78702 0.53249 0.0
C1888 C 0.3439 0.78601 0.53098 0.0
C1889 C 0.38017 0.75573 0.52171 0.0
C1890 C 0.34723 0.7392 0.51645 0.0
C1891 C 0.29491 0.73487 0.52176 0.0
C1892 C 0.27606 0.74797 0.53036 0.0
C1893 C 0.32865 0.7535 0.52228 0.0
C1894 C 0.29116 0.78103 0.53664 0.0
C1895 C 0.32489 0.79997 0.53691 0.0
H1896 H 0.2154 0.4952 0.29364 0.0
H1897 H 0.29596 0.57631 0.33128 0.0
H1898 H 0.26364 0.60197 0.33834 0.0
H1899 H 0.21743 0.607 0.32437 0.0
H1900 H 0.13686 0.52713 0.28595 0.0
H1901 H 0.16375 0.49505 0.28898 0.0
C1902 C 0.22534 0.51779 0.30437 0.0
C1903 C 0.25814 0.53418 0.31148 0.0
C1904 C 0.2068 0.53295 0.3077 0.0
C1905 C 0.27085 0.56351 0.32531 0.0
C1906 C 0.25246 0.57831 0.32921 0.0
C1907 C 0.20531 0.58211 0.31763 0.0
C1908 C 0.17551 0.56942 0.30479 0.0
C1909 C 0.22114 0.56418 0.31904 0.0
C1910 C 0.15982 0.53723 0.29605 0.0
C1911 C 0.17536 0.51904 0.29752 0.0
H1912 H 0.50146 0.72432 0.29283 0.0
H1913 H 0.43043 0.7323 0.33902 0.0
H1914 H 0.4051 0.67533 0.351 0.0
H1915 H 0.39617 0.6217 0.34023 0.0
H1916 H 0.46444 0.61215 0.29147 0.0
H1917 H 0.49833 0.67099 0.28927 0.0
C1918 C 0.48125 0.71374 0.30634 0.0
C1919 C 0.46763 0.7322 0.31501 0.0
C1920 C 0.466 0.68051 0.31235 0.0
C1921 C 0.44117 0.71835 0.33217 0.0
C1922 C 0.42658 0.68576 0.33887 0.0
C1923 C 0.41907 0.63252 0.32992 0.0
C1924 C 0.42751 0.61266 0.31572 0.0
C1925 C 0.43771 0.66628 0.3279 0.0
C1926 C 0.45736 0.62691 0.3026 0.0
C1927 C 0.47656 0.66062 0.30103 0.0
H1928 H 0.26284 0.77502 0.29962 0.0
H1929 H 0.2522 0.68482 0.32688 0.0
H1930 H 0.30919 0.71172 0.33859 0.0
H1931 H 0.36346 0.75809 0.33285 0.0
H1932 H 0.37547 0.84829 0.3041 0.0
H1933 H 0.3169 0.82464 0.30181 0.0
C1934 C 0.27283 0.76165 0.30907 0.0
C1935 C 0.25348 0.72799 0.31225 0.0
C1936 C 0.3061 0.77719 0.31505 0.0
C1937 C 0.26674 0.71076 0.32418 0.0
C1938 C 0.29938 0.72608 0.33072 0.0
C1939 C 0.35325 0.77286 0.32682 0.0
C1940 C 0.37384 0.80472 0.31831 0.0
C1941 C 0.31959 0.75889 0.32498 0.0
C1942 C 0.36023 0.82366 0.31079 0.0
C1943 C 0.32665 0.81003 0.3092 0.0
H1944 H 0.96017 0.16836 0.28414 0.0
H1945 H 0.06346 0.21513 0.29508 0.0
H1946 H 0.07144 0.21875 0.2479 0.0
H1947 H 0.0496 0.20943 0.2037 0.0
H1948 H 0.94656 0.16362 0.19194 0.0
H1949 H 0.93812 0.15892 0.23932 0.0
C1950 C 0.98441 0.17924 0.27619 0.0
C1951 C 0.01113 0.19149 0.29319 0.0
C1952 C 0.98895 0.18152 0.24892 0.0
C1953 C 0.0424 0.20565 0.28253 0.0
C1954 C 0.04705 0.20772 0.25551 0.0
C1955 C 0.02523 0.19831 0.2114 0.0
C1956 C 0.99879 0.1869 0.19422 0.0
C1957 C 0.02054 0.19585 0.23856 0.0
C1958 C 0.96742 0.17272 0.20469 0.0
C1959 C 0.96254 0.16997 0.23179 0.0
H1960 H 0.80072 0.83957 0.28234 0.0
H1961 H 0.84872 0.78342 0.28179 0.0
H1962 H 0.84666 0.78163 0.23396 0.0
H1963 H 0.83086 0.79567 0.19232 0.0
H1964 H 0.78313 0.85212 0.19341 0.0
H1965 H 0.7855 0.85397 0.24105 0.0
C1966 C 0.81079 0.82692 0.27185 0.0
C1967 C 0.82479 0.8116 0.28576 0.0
C1968 C 0.80953 0.82595 0.2444 0.0
C1969 C 0.83779 0.79545 0.27167 0.0
C1970 C 0.83659 0.79436 0.24429 0.0
C1971 C 0.8209 0.80832 0.20295 0.0
C1972 C 0.80677 0.82365 0.18917 0.0
C1973 C 0.82242 0.80945 0.23045 0.0
C1974 C 0.79418 0.8401 0.20338 0.0
C1975 C 0.7955 0.84119 0.23068 0.0
H1976 H 0.16484 0.95668 0.29633 0.0
H1977 H 0.20307 0.05997 0.29379 0.0
H1978 H 0.1992 0.0579 0.24616 0.0
H1979 H 0.18668 0.02744 0.20531 0.0
H1980 H 0.14845 0.92419 0.20717 0.0
H1981 H 0.15043 0.92568 0.2551 0.0
C1982 C 0.17229 0.97877 0.28541 0.0
C1983 C 0.18444 0.00849 0.29878 0.0
C1984 C 0.17002 0.97746 0.2579 0.0
C1985 C 0.19371 0.03676 0.28417 0.0
C1986 C 0.19153 0.03563 0.25687 0.0
C1987 C 0.17869 0.00514 0.21609 0.0
C1988 C 0.16764 0.97575 0.20252 0.0
C1989 C 0.17999 0.00619 0.24355 0.0
C1990 C 0.1571 0.94717 0.21701 0.0
C1991 C 0.15831 0.94802 0.24444 0.0
H1992 H 0.96977 0.80467 0.70045 0.0
H1993 H 0.07388 0.85233 0.70002 0.0
H1994 H 0.07454 0.85302 0.74782 0.0
H1995 H 0.04554 0.83897 0.78989 0.0
H1996 H 0.9414 0.79184 0.78991 0.0
H1997 H 0.941 0.79224 0.74226 0.0
C1998 C 0.99265 0.81523 0.71075 0.0
C1999 C 0.02169 0.82826 0.69653 0.0
C2000 C 0.99293 0.81567 0.73828 0.0
C2001 C 0.05109 0.8421 0.71036 0.0
C2002 C 0.05153 0.84247 0.73775 0.0
C2003 C 0.02274 0.82885 0.77951 0.0
C2004 C 0.99358 0.81528 0.79365 0.0
C2005 C 0.02258 0.82915 0.75194 0.0
C2006 C 0.9643 0.80246 0.77971 0.0
C2007 C 0.96398 0.8026 0.75237 0.0
H2008 H 0.22016 0.1748 0.70093 0.0
H2009 H 0.14664 0.20198 0.70529 0.0
H2010 H 0.14987 0.20335 0.75267 0.0
H2011 H 0.17352 0.19771 0.79298 0.0
H2012 H 0.24589 0.16918 0.79013 0.0
H2013 H 0.24314 0.16761 0.74218 0.0
C2014 C 0.20474 0.18085 0.71225 0.0
C2015 C 0.18334 0.18841 0.69933 0.0
C2016 C 0.20659 0.1816 0.73982 0.0
C2017 C 0.1635 0.19615 0.71446 0.0
C2018 C 0.1653 0.19702 0.74168 0.0
C2019 C 0.18891 0.19136 0.78194 0.0
C2020 C 0.21008 0.18388 0.79516 0.0
C2021 C 0.18688 0.19005 0.75454 0.0
C2022 C 0.22942 0.17516 0.78045 0.0
C2023 C 0.22783 0.17422 0.75303 0.0
H2024 H 0.80486 0.96835 0.78814 0.0
H2025 H 0.86652 0.07207 0.78289 0.0
H2026 H 0.86288 0.06899 0.73534 0.0
H2027 H 0.84171 0.03736 0.69535 0.0
H2028 H 0.78038 0.93365 0.70003 0.0
H2029 H 0.78443 0.9364 0.74778 0.0
C2030 C 0.81762 0.9903 0.77663 0.0
C2031 C 0.83584 0.02038 0.7892 0.0
C2032 C 0.8154 0.98845 0.7492 0.0
C2033 C 0.85224 0.04854 0.77386 0.0
C2034 C 0.85016 0.04686 0.74661 0.0
C2035 C 0.82909 0.01531 0.70675 0.0
C2036 C 0.81063 0.98538 0.69408 0.0
C2037 C 0.83165 0.017 0.73411 0.0
C2038 C 0.79475 0.95705 0.70925 0.0
C2039 C 0.79704 0.95858 0.73656 0.0
H2040 H 0.62112 0.51166 0.61409 0.0
H2041 H 0.72292 0.5682 0.63161 0.0
H2042 H 0.73545 0.5742 0.58484 0.0
H2043 H 0.7174 0.55965 0.5389 0.0
H2044 H 0.61515 0.50192 0.52291 0.0
H2045 H 0.60317 0.49992 0.56914 0.0
C2046 C 0.64607 0.52559 0.60777 0.0
C2047 C 0.67097 0.53911 0.62633 0.0
C2048 C 0.65315 0.52838 0.58105 0.0
C2049 C 0.70317 0.55744 0.61772 0.0
C2050 C 0.71042 0.56069 0.59097 0.0
C2051 C 0.69257 0.54668 0.5456 0.0
C2052 C 0.66734 0.5309 0.52745 0.0
C2053 C 0.68561 0.54556 0.57246 0.0
C2054 C 0.63517 0.51442 0.53639 0.0
C2055 C 0.62816 0.5132 0.56287 0.0
H2056 H 0.49288 0.11359 0.61754 0.0
H2057 H 0.43828 0.16188 0.63111 0.0
H2058 H 0.43497 0.1684 0.5841 0.0
H2059 H 0.45031 0.16337 0.5394 0.0
H2060 H 0.50441 0.1147 0.52568 0.0
H2061 H 0.50512 0.10536 0.57262 0.0
C2062 C 0.48006 0.12535 0.61023 0.0
C2063 C 0.46614 0.13747 0.62783 0.0
C2064 C 0.47833 0.12917 0.5832 0.0
C2065 C 0.44927 0.15231 0.61801 0.0
C2066 C 0.44747 0.15622 0.59113 0.0
C2067 C 0.46223 0.1507 0.54669 0.0
C2068 C 0.47756 0.14005 0.52919 0.0
C2069 C 0.46241 0.14527 0.5736 0.0
C2070 C 0.49245 0.12317 0.53881 0.0
C2071 C 0.49293 0.11787 0.56563 0.0
H2072 H 0.8285 0.27666 0.52917 0.0
H2073 H 0.90152 0.37619 0.51514 0.0
H2074 H 0.90817 0.38636 0.56187 0.0
H2075 H 0.89042 0.36879 0.60653 0.0
H2076 H 0.81828 0.26967 0.62192 0.0
H2077 H 0.81443 0.25751 0.57494 0.0
C2078 C 0.84616 0.30041 0.53636 0.0
C2079 C 0.864 0.32569 0.51855 0.0
C2080 C 0.84992 0.30632 0.56351 0.0
C2081 C 0.88699 0.35632 0.52827 0.0
C2082 C 0.8909 0.36226 0.55507 0.0
C2083 C 0.87398 0.34446 0.59961 0.0
C2084 C 0.85436 0.3203 0.61751 0.0
C2085 C 0.87194 0.33772 0.57279 0.0
C2086 C 0.83362 0.28872 0.60841 0.0
C2087 C 0.83132 0.2818 0.58158 0.0
H2088 H 0.62577 0.11988 0.02537 0.0
H2089 H 0.72706 0.15019 0.03054 0.0
H2090 H 0.72378 0.14868 0.0783 0.0
H2091 H 0.69312 0.14247 0.11842 0.0
H2092 H 0.59222 0.11407 0.11302 0.0
H2093 H 0.59454 0.11126 0.0655 0.0
C2094 C 0.647 0.12558 0.03692 0.0
C2095 C 0.6766 0.13516 0.02441 0.0
C2096 C 0.64517 0.12548 0.06434 0.0
C2097 C 0.70398 0.14284 0.0397 0.0
C2098 C 0.70217 0.1421 0.067 0.0
C2099 C 0.67157 0.13555 0.10691 0.0
C2100 C 0.64264 0.12876 0.11938 0.0
C2101 C 0.67305 0.13415 0.07952 0.0
C2102 C 0.61494 0.11968 0.10404 0.0
C2103 C 0.61617 0.11796 0.07681 0.0
H2104 H 0.88539 0.5066 0.10969 0.0
H2105 H 0.8213 0.54546 0.11397 0.0
H2106 H 0.82661 0.55538 0.06675 0.0
H2107 H 0.8473 0.55041 0.02418 0.0
H2108 H 0.91212 0.51217 0.02024 0.0
H2109 H 0.90915 0.50529 0.06758 0.0
C2110 C 0.8725 0.51713 0.10024 0.0
C2111 C 0.85263 0.52486 0.11512 0.0
C2112 C 0.87601 0.52315 0.07326 0.0
C2113 C 0.83663 0.53917 0.10282 0.0
C2114 C 0.83968 0.54487 0.07587 0.0
C2115 C 0.86114 0.54097 0.03364 0.0
C2116 C 0.87961 0.53151 0.01854 0.0
C2117 C 0.85909 0.5367 0.06088 0.0
C2118 C 0.89754 0.51951 0.03127 0.0
C2119 C 0.89574 0.51537 0.05837 0.0
H2120 H 0.4536 0.29392 0.03853 0.0
H2121 H 0.51383 0.39694 0.02694 0.0
H2122 H 0.51139 0.40615 0.07358 0.0
H2123 H 0.49446 0.38496 0.11771 0.0
H2124 H 0.43463 0.28193 0.12959 0.0
H2125 H 0.43437 0.27288 0.08258 0.0
C2126 C 0.4662 0.31839 0.04619 0.0
C2127 C 0.48408 0.34463 0.02931 0.0
C2128 C 0.46472 0.32358 0.07302 0.0
C2129 C 0.49992 0.37625 0.0395 0.0
C2130 C 0.49858 0.38158 0.06618 0.0
C2131 C 0.48112 0.36051 0.11007 0.0
C2132 C 0.46485 0.33419 0.12721 0.0
C2133 C 0.48133 0.3554 0.08312 0.0
C2134 C 0.4475 0.30269 0.11688 0.0
C2135 C 0.44741 0.29744 0.09 0.0
H2136 H 0.37888 0.89232 0.88183 0.0
H2137 H 0.27638 0.83605 0.86699 0.0
H2138 H 0.26539 0.83637 0.91356 0.0
H2139 H 0.28487 0.84855 0.95871 0.0
H2140 H 0.3874 0.9046 0.97375 0.0
H2141 H 0.39819 0.90894 0.92685 0.0
C2142 C 0.35413 0.88025 0.88878 0.0
C2143 C 0.32855 0.86383 0.87099 0.0
C2144 C 0.34792 0.88053 0.91561 0.0
C2145 C 0.29659 0.84879 0.88025 0.0
C2146 C 0.29024 0.84891 0.9069 0.0
C2147 C 0.30959 0.86213 0.95179 0.0
C2148 C 0.33524 0.8758 0.96985 0.0
C2149 C 0.31573 0.86416 0.9248 0.0
C2150 C 0.3671 0.89363 0.96039 0.0
C2151 C 0.37337 0.89598 0.93353 0.0
H2152 H 0.163 0.45475 0.94939 0.0
H2153 H 0.08165 0.46944 0.9596 0.0
H2154 H 0.07418 0.46812 0.91244 0.0
H2155 H 0.09442 0.46923 0.86849 0.0
H2156 H 0.17586 0.45513 0.85738 0.0
H2157 H 0.17937 0.44937 0.90473 0.0
C2158 C 0.14327 0.45701 0.94129 0.0
C2159 C 0.12335 0.46284 0.95793 0.0
C2160 C 0.13933 0.45671 0.91403 0.0
C2161 C 0.09774 0.46555 0.94718 0.0
C2162 C 0.09341 0.46482 0.92021 0.0
C2163 C 0.11277 0.46464 0.87644 0.0
C2164 C 0.13518 0.4632 0.85967 0.0
C2165 C 0.11474 0.46156 0.90349 0.0
C2166 C 0.15842 0.45651 0.87004 0.0
C2167 C 0.16051 0.45333 0.89707 0.0
H2168 H 0.50008 0.62762 0.96284 0.0
H2169 H 0.571 0.72944 0.95975 0.0
H2170 H 0.57392 0.72636 0.91227 0.0
H2171 H 0.55374 0.69606 0.87164 0.0
H2172 H 0.48153 0.59464 0.874 0.0
H2173 H 0.48206 0.59632 0.92188 0.0
C2174 C 0.51652 0.64906 0.95184 0.0
C2175 C 0.53512 0.67877 0.96489 0.0
C2176 C 0.51772 0.64728 0.92442 0.0
C2177 C 0.55618 0.70631 0.95025 0.0
C2178 C 0.55788 0.7046 0.92307 0.0
C2179 C 0.53821 0.67417 0.88252 0.0
C2180 C 0.5174 0.64533 0.86912 0.0
C2181 C 0.53829 0.6754 0.90994 0.0
C2182 C 0.49771 0.61723 0.88372 0.0
C2183 C 0.49794 0.61818 0.91112 0.0
H2184 H 0.37116 0.47584 0.36789 0.0
H2185 H 0.27052 0.44389 0.35455 0.0
H2186 H 0.2601 0.43623 0.40158 0.0
H2187 H 0.28094 0.44446 0.44675 0.0
H2188 H 0.38199 0.47694 0.45932 0.0
H2189 H 0.39064 0.47832 0.4124 0.0
C2190 C 0.34686 0.46685 0.37522 0.0
C2191 C 0.32181 0.46091 0.35779 0.0
C2192 C 0.3411 0.46287 0.40222 0.0
C2193 C 0.29033 0.44873 0.36757 0.0
C2194 C 0.28435 0.44453 0.39449 0.0
C2195 C 0.30474 0.45142 0.43925 0.0
C2196 C 0.33082 0.46117 0.45663 0.0
C2197 C 0.30976 0.45242 0.41206 0.0
C2198 C 0.36147 0.4698 0.44649 0.0
C2199 C 0.36654 0.47061 0.41959 0.0
H2200 H 0.496 0.88272 0.38511 0.0
H2201 H 0.55507 0.84058 0.36632 0.0
H2202 H 0.56491 0.83733 0.41267 0.0
H2203 H 0.55403 0.84306 0.45859 0.0
H2204 H 0.49507 0.88521 0.4776 0.0
H2205 H 0.48832 0.89206 0.43117 0.0
C2206 C 0.51119 0.87301 0.39111 0.0
C2207 C 0.52447 0.86167 0.37215 0.0
C2208 C 0.51679 0.87111 0.41789 0.0
C2209 C 0.5444 0.84946 0.38038 0.0
C2210 C 0.55003 0.84749 0.40694 0.0
C2211 C 0.53991 0.85399 0.45264 0.0
C2212 C 0.52488 0.86329 0.47165 0.0
C2213 C 0.53593 0.85774 0.42588 0.0
C2214 C 0.50692 0.87772 0.46348 0.0
C2215 C 0.5029 0.88157 0.43687 0.0
H2216 H 0.1499 0.70193 0.36929 0.0
H2217 H 0.08482 0.59858 0.36897 0.0
H2218 H 0.08477 0.59813 0.41674 0.0
H2219 H 0.10554 0.62629 0.45822 0.0
H2220 H 0.17189 0.72938 0.45882 0.0
H2221 H 0.16887 0.7306 0.4111 0.0
C2222 C 0.13538 0.67931 0.37961 0.0
C2223 C 0.11751 0.6503 0.36549 0.0
C2224 C 0.13584 0.67911 0.40708 0.0
C2225 C 0.09895 0.62125 0.37928 0.0
C2226 C 0.09893 0.62095 0.40661 0.0
C2227 C 0.11929 0.64914 0.44803 0.0
C2228 C 0.13913 0.67767 0.46217 0.0
C2229 C 0.11771 0.64963 0.42066 0.0
C2230 C 0.15654 0.70701 0.44849 0.0
C2231 C 0.15484 0.70774 0.42119 0.0
H2232 H 0.10676 0.40656 0.10146 0.0
H2233 H 0.04075 0.38821 0.03781 0.0
H2234 H 0.00815 0.33141 0.05145 0.0
H2235 H 0.00468 0.28541 0.07702 0.0
H2236 H 0.07317 0.30536 0.13932 0.0
H2237 H 0.09823 0.3631 0.13107 0.0
C2238 C 0.08467 0.39026 0.09109 0.0
C2239 C 0.07612 0.40114 0.06867 0.0
C2240 C 0.06679 0.35783 0.09864 0.0
C2241 C 0.04754 0.38015 0.05527 0.0
C2242 C 0.02917 0.34767 0.06291 0.0
C2243 C 0.02449 0.30254 0.08918 0.0
C2244 C 0.0375 0.29123 0.1084 0.0
C2245 C 0.03942 0.33592 0.08389 0.0
C2246 C 0.06317 0.31356 0.12409 0.0
C2247 C 0.07753 0.34657 0.1194 0.0
H2248 H 0.69077 0.74763 0.12976 0.0
H2249 H 0.72988 0.73092 0.05934 0.0
H2250 H 0.6753 0.69512 0.04266 0.0
H2251 H 0.61734 0.67803 0.04479 0.0
H2252 H 0.57845 0.69399 0.1156 0.0
H2253 H 0.63185 0.71977 0.13597 0.0
C2254 C 0.68717 0.73528 0.11114 0.0
C2255 C 0.71396 0.74203 0.09556 0.0
C2256 C 0.65581 0.71469 0.10181 0.0
C2257 C 0.70939 0.72592 0.07157 0.0
C2258 C 0.67824 0.70565 0.06199 0.0
C2259 C 0.62043 0.68571 0.06511 0.0
C2260 C 0.59428 0.68404 0.07886 0.0
C2261 C 0.65133 0.70105 0.07645 0.0
C2262 C 0.59835 0.69464 0.10495 0.0
C2263 C 0.62893 0.70981 0.11642 0.0
H2264 H 0.2523 0.94878 0.14309 0.0
H2265 H 0.27087 0.01155 0.07688 0.0
H2266 H 0.3055 0.99298 0.05738 0.0
H2267 H 0.31972 0.9498 0.05502 0.0
H2268 H 0.29922 0.8861 0.12092 0.0
H2269 H 0.27635 0.91417 0.145 0.0
C2270 C 0.26509 0.95932 0.12494 0.0
C2271 C 0.25901 0.98113 0.11123 0.0
C2272 C 0.28398 0.94779 0.1136 0.0
C2273 C 0.2755 0.99482 0.08776 0.0
C2274 C 0.29486 0.98384 0.07645 0.0
C2275 C 0.3112 0.94298 0.07499 0.0
C2276 C 0.31079 0.91608 0.08635 0.0
C2277 C 0.29768 0.95895 0.08849 0.0
C2278 C 0.29965 0.90693 0.11205 0.0
C2279 C 0.28649 0.92283 0.12571 0.0
H2280 H 0.27525 0.0202 0.428 0.0
H2281 H 0.30145 0.0293 0.34649 0.0
H2282 H 0.35876 0.05468 0.35841 0.0
H2283 H 0.40107 0.08276 0.39183 0.0
H2284 H 0.37377 0.08135 0.47249 0.0
H2285 H 0.31715 0.0443 0.46148 0.0
C2286 C 0.29359 0.02669 0.413 0.0
C2287 C 0.28467 0.02258 0.38656 0.0
C2288 C 0.32619 0.04324 0.41997 0.0
C2289 C 0.30819 0.03187 0.36699 0.0
C2290 C 0.34081 0.04667 0.37382 0.0
C2291 C 0.38265 0.0736 0.40695 0.0
C2292 C 0.39107 0.08446 0.43283 0.0
C2293 C 0.35011 0.05378 0.40019 0.0
C2294 C 0.3674 0.07316 0.45243 0.0
C2295 C 0.33519 0.05207 0.44614 0.0
H2296 H 0.95939 0.26162 0.35352 0.0
H2297 H 0.01327 0.27368 0.42436 0.0
H2298 H 0.99386 0.30807 0.44286 0.0
H2299 H 0.95336 0.32561 0.44166 0.0
H2300 H 0.90119 0.31531 0.37023 0.0
H2301 H 0.9288 0.29024 0.34871 0.0
C2302 C 0.9675 0.2726 0.37268 0.0
C2303 C 0.9872 0.26497 0.3878 0.0
C2304 C 0.95658 0.29263 0.38302 0.0
C2305 C 0.99799 0.27937 0.41249 0.0
C2306 C 0.9868 0.29886 0.4231 0.0
C2307 C 0.94937 0.31931 0.42103 0.0
C2308 C 0.92564 0.32234 0.40737 0.0
C2309 C 0.96502 0.30453 0.40896 0.0
C2310 C 0.9199 0.31358 0.38084 0.0
C2311 C 0.93528 0.29881 0.36869 0.0
H2312 H 0.75625 0.73473 0.42264 0.0
H2313 H 0.72948 0.70613 0.3424 0.0
H2314 H 0.69418 0.6498 0.35616 0.0
H2315 H 0.67939 0.60801 0.39035 0.0
H2316 H 0.71223 0.63715 0.46959 0.0
H2317 H 0.73621 0.69403 0.45731 0.0
C2318 C 0.74171 0.71621 0.40838 0.0
C2319 C 0.74487 0.72412 0.38173 0.0
C2320 C 0.72293 0.68401 0.41635 0.0
C2321 C 0.72679 0.70027 0.36309 0.0
C2322 C 0.70695 0.66815 0.37095 0.0
C2323 C 0.69089 0.62694 0.40496 0.0
C2324 C 0.69412 0.61883 0.43077 0.0
C2325 C 0.70597 0.65957 0.39741 0.0
C2326 C 0.70955 0.6432 0.44963 0.0
C2327 C 0.72335 0.6756 0.44258 0.0
H2328 H 0.91742 0.60121 0.87498 0.0
H2329 H 0.97007 0.61803 0.9471 0.0
H2330 H 0.00298 0.67577 0.93656 0.0
H2331 H 0.00832 0.72236 0.91095 0.0
H2332 H 0.95235 0.70434 0.84035 0.0
H2333 H 0.92979 0.64625 0.84559 0.0
C2334 C 0.937 0.61744 0.8878 0.0
C2335 C 0.9416 0.60582 0.91163 0.0
C2336 C 0.9549 0.65045 0.88197 0.0
C2337 C 0.96656 0.62672 0.92847 0.0
C2338 C 0.98506 0.65971 0.92257 0.0
C2339 C 0.99213 0.70564 0.8963 0.0
C2340 C 0.98166 0.7173 0.87546 0.0
C2341 C 0.97831 0.67208 0.89998 0.0
C2342 C 0.96044 0.69564 0.85664 0.0
C2343 C 0.94744 0.66248 0.85969 0.0
H2344 H 0.38198 0.31682 0.95769 0.0
H2345 H 0.43049 0.33608 0.88324 0.0
H2346 H 0.37852 0.31029 0.86041 0.0
H2347 H 0.31943 0.27314 0.86268 0.0
H2348 H 0.27107 0.25594 0.93709 0.0
H2349 H 0.32266 0.29042 0.95902 0.0
C2350 C 0.38105 0.31656 0.93643 0.0
C2351 C 0.40972 0.32824 0.92206 0.0
C2352 C 0.35112 0.30156 0.92354 0.0
C2353 C 0.40856 0.32757 0.89457 0.0
C2354 C 0.37886 0.31243 0.88156 0.0
C2355 C 0.32027 0.27796 0.88353 0.0
C2356 C 0.29186 0.26215 0.8984 0.0
C2357 C 0.34999 0.29798 0.89594 0.0
C2358 C 0.29285 0.26819 0.92539 0.0
C2359 C 0.3223 0.28767 0.93792 0.0
H2360 H 0.68649 0.05319 0.93798 0.0
H2361 H 0.70793 0.12037 0.87453 0.0
H2362 H 0.73386 0.09563 0.85009 0.0
H2363 H 0.75963 0.06253 0.85117 0.0
H2364 H 0.73924 0.99558 0.91467 0.0
H2365 H 0.7029 0.01172 0.93444 0.0
C2366 C 0.69578 0.0614 0.91839 0.0
C2367 C 0.69556 0.08835 0.90788 0.0
C2368 C 0.71114 0.04738 0.90468 0.0
C2369 C 0.70787 0.0994 0.8827 0.0
C2370 C 0.72286 0.08546 0.86886 0.0
C2371 C 0.74636 0.05078 0.86888 0.0
C2372 C 0.75233 0.0284 0.88173 0.0
C2373 C 0.72603 0.06055 0.88026 0.0
C2374 C 0.73491 0.01294 0.90449 0.0
C2375 C 0.71442 0.0224 0.91593 0.0
H2376 H 0.69718 0.95602 0.63442 0.0
H2377 H 0.73829 1.0003 0.56016 0.0
H2378 H 0.68421 0.97971 0.5418 0.0
H2379 H 0.62593 0.93984 0.54484 0.0
H2380 H 0.58486 0.89701 0.61949 0.0
H2381 H 0.6381 0.92677 0.6401 0.0
C2382 C 0.69414 0.96217 0.61456 0.0
C2383 C 0.72133 0.97938 0.59853 0.0
C2384 C 0.66305 0.95016 0.6042 0.0
C2385 C 0.71749 0.98725 0.5728 0.0
C2386 C 0.68662 0.97518 0.56225 0.0
C2387 C 0.62862 0.93818 0.5658 0.0
C2388 C 0.60189 0.91646 0.58075 0.0
C2389 C 0.65928 0.95529 0.57742 0.0
C2390 C 0.60529 0.91398 0.60781 0.0
C2391 C 0.63572 0.9307 0.61949 0.0
H2392 H 0.00339 0.72802 0.56983 0.0
H2393 H 0.0434 0.74344 0.64761 0.0
H2394 H 0.06515 0.70789 0.63834 0.0
H2395 H 0.08279 0.68292 0.6052 0.0
H2396 H 0.04747 0.67168 0.52615 0.0
H2397 H 0.01343 0.69444 0.5386 0.0
C2398 C 0.01565 0.72234 0.585 0.0
C2399 C 0.02177 0.73802 0.60937 0.0
C2400 C 0.02943 0.7031 0.57905 0.0
C2401 C 0.03833 0.73132 0.6288 0.0
C2402 C 0.051 0.71127 0.62341 0.0
C2403 C 0.06654 0.68425 0.59107 0.0
C2404 C 0.06717 0.6755 0.56496 0.0
C2405 C 0.04819 0.69851 0.59819 0.0
C2406 C 0.0468 0.6779 0.54647 0.0
C2407 C 0.02767 0.69123 0.55355 0.0
H2408 H 0.31019 0.40255 0.60289 0.0
H2409 H 0.32706 0.37593 0.52645 0.0
H2410 H 0.30668 0.32019 0.54131 0.0
H2411 H 0.2743 0.27752 0.57355 0.0
H2412 H 0.25326 0.30424 0.64853 0.0
H2413 H 0.28576 0.36145 0.63729 0.0
C2414 C 0.31047 0.3847 0.58989 0.0
C2415 C 0.32021 0.39297 0.56381 0.0
C2416 C 0.29766 0.35266 0.59834 0.0
C2417 C 0.31996 0.36985 0.54675 0.0
C2418 C 0.30807 0.33801 0.55519 0.0
C2419 C 0.27801 0.296 0.58773 0.0
C2420 C 0.26153 0.28693 0.61177 0.0
C2421 C 0.29548 0.32883 0.5806 0.0
C2422 C 0.26584 0.31088 0.62991 0.0
C2423 C 0.28418 0.34353 0.62341 0.0
H2424 H 0.05988 0.41935 0.7187 0.0
H2425 H 0.03361 0.3931 0.79934 0.0
H2426 H 0.97676 0.3594 0.7869 0.0
H2427 H 0.93396 0.34531 0.75395 0.0
H2428 H 0.96058 0.37734 0.67421 0.0
H2429 H 0.01763 0.40038 0.68507 0.0
C2430 C 0.04174 0.40521 0.7333 0.0
C2431 C 0.05061 0.40806 0.75974 0.0
C2432 C 0.00907 0.38738 0.72613 0.0
C2433 C 0.02708 0.39065 0.77879 0.0
C2434 C 0.99462 0.3717 0.77171 0.0
C2435 C 0.9523 0.35652 0.73889 0.0
C2436 C 0.94331 0.35979 0.71339 0.0
C2437 C 0.98517 0.37097 0.74557 0.0
C2438 C 0.96715 0.37477 0.69403 0.0
C2439 C 0.99972 0.388 0.70023 0.0
H2440 H 0.59365 0.61975 0.79947 0.0
H2441 H 0.59076 0.66517 0.72745 0.0
H2442 H 0.62212 0.64439 0.70537 0.0
H2443 H 0.64194 0.60551 0.70512 0.0
H2444 H 0.64713 0.56226 0.77766 0.0
H2445 H 0.62373 0.59028 0.80124 0.0
C2446 C 0.60098 0.62601 0.7792 0.0
C2447 C 0.59005 0.64384 0.765 0.0
C2448 C 0.61897 0.61399 0.76673 0.0
C2449 C 0.59933 0.65176 0.73874 0.0
C2450 C 0.6169 0.63957 0.72607 0.0
C2451 C 0.63884 0.60314 0.72622 0.0
C2452 C 0.646 0.58189 0.73974 0.0
C2453 C 0.62564 0.61953 0.73961 0.0
C2454 C 0.64195 0.57876 0.76701 0.0
C2455 C 0.62835 0.59455 0.78042 0.0
H2456 H 0.41403 0.06135 0.76903 0.0
H2457 H 0.39457 0.03638 0.68741 0.0
H2458 H 0.36187 0.97899 0.6987 0.0
H2459 H 0.34667 0.93558 0.73139 0.0
H2460 H 0.37201 0.96104 0.8124 0.0
H2461 H 0.394 0.01823 0.8021 0.0
C2462 C 0.40158 0.04333 0.7539 0.0
C2463 C 0.40611 0.05281 0.72754 0.0
C2464 C 0.38428 0.01034 0.76049 0.0
C2465 C 0.39086 0.0294 0.70788 0.0
C2466 C 0.37246 0.99663 0.71432 0.0
C2467 C 0.35615 0.95367 0.74679 0.0
C2468 C 0.35775 0.94434 0.77257 0.0
C2469 C 0.37009 0.98669 0.74049 0.0
C2470 C 0.37062 0.96788 0.7924 0.0
C2471 C 0.38329 1.00054 0.78651 0.0
H2472 H 0.63995 0.0577 0.25758 0.0
H2473 H 0.61434 0.02481 0.178 0.0
H2474 H 0.59116 0.96854 0.19226 0.0
H2475 H 0.57017 0.92878 0.22822 0.0
H2476 H 0.58913 0.96212 0.30815 0.0
H2477 H 0.62322 0.01791 0.29324 0.0
C2478 C 0.63031 0.03817 0.24337 0.0
C2479 C 0.62918 0.04512 0.21681 0.0
C2480 C 0.61538 0.00591 0.25194 0.0
C2481 C 0.61574 0.01979 0.19851 0.0
C2482 C 0.60228 0.98769 0.2067 0.0
C2483 C 0.58267 0.94824 0.24225 0.0
C2484 C 0.57757 0.94159 0.26917 0.0
C2485 C 0.60079 0.9804 0.23348 0.0
C2486 C 0.59304 0.96689 0.28732 0.0
C2487 C 0.61234 0.99874 0.2788 0.0
H2488 H 0.05515 0.6298 0.22038 0.0
H2489 H 0.03051 0.65894 0.29246 0.0
H2490 H 0.97476 0.63734 0.27701 0.0
H2491 H 0.93129 0.60189 0.24574 0.0
H2492 H 0.95706 0.57043 0.17517 0.0
H2493 H 0.01398 0.60154 0.18689 0.0
C2494 C 0.03778 0.63244 0.23224 0.0
C2495 C 0.04676 0.64618 0.25729 0.0
C2496 C 0.00579 0.61903 0.22359 0.0
C2497 C 0.02411 0.64894 0.27288 0.0
C2498 C 0.99219 0.63623 0.26415 0.0
C2499 C 0.94953 0.60271 0.23265 0.0
C2500 C 0.94002 0.58371 0.20973 0.0
C2501 C 0.98242 0.62001 0.23994 0.0
C2502 C 0.96381 0.58464 0.19302 0.0
C2503 C 0.99637 0.60237 0.19972 0.0
H2504 H 0.34206 0.39285 0.28199 0.0
H2505 H 0.34137 0.43418 0.20718 0.0
H2506 H 0.36462 0.40428 0.18636 0.0
H2507 H 0.39455 0.37499 0.19159 0.0
H2508 H 0.39403 0.33252 0.26617 0.0
H2509 H 0.36117 0.35359 0.28501 0.0
C2510 C 0.34586 0.39421 0.26096 0.0
C2511 C 0.34016 0.41556 0.24603 0.0
C2512 C 0.35939 0.37713 0.24926 0.0
C2513 C 0.34529 0.41754 0.21888 0.0
C2514 C 0.35893 0.40076 0.20708 0.0
C2515 C 0.38624 0.36947 0.21171 0.0
C2516 C 0.39678 0.35256 0.22761 0.0
C2517 C 0.36746 0.38172 0.22234 0.0
C2518 C 0.38598 0.34537 0.25361 0.0
C2519 C 0.36748 0.35769 0.26442 0.0
loop_
_geom_bond_atom_site_label_1
_geom_bond_atom_site_label_2
_geom_bond_distance
_geom_bond_site_symmetry_2
_ccdc_geom_bond_type
Sc0 O3 2.025 . S
Sc0 O10 2.105 1_455 S
Sc0 O13 2.105 . S
Sc0 O16 2.105 1_455 S
Sc0 O19 2.105 . S
Sc1 O3 2.025 . S
Sc1 O11 2.105 . S
Sc1 O15 2.105 . S
Sc1 O17 2.105 . S
Sc1 O21 2.105 . S
Sc2 O3 2.025 1_655 S
Sc2 O12 2.105 1_655 S
Sc2 O14 2.105 . S
Sc2 O18 2.105 1_655 S
Sc2 O20 2.105 . S
O3 Sc0 2.025 . S
O3 Sc1 2.025 . S
O3 Sc2 2.025 1_455 S
C4 O10 1.268 . S
C4 O20 1.268 . S
C5 O11 1.268 . S
C5 O19 1.268 . S
C6 O12 1.268 . S
C6 O21 1.268 . S
C7 O13 1.268 . S
C7 O17 1.268 . S
C8 O14 1.268 . S
C8 O16 1.268 . S
C9 O15 1.268 . S
C9 O18 1.268 . S
O10 Sc0 2.105 1_655 S
O10 C4 1.268 . S
O11 Sc1 2.105 . S
O11 C5 1.268 . S
O12 Sc2 2.105 1_455 S
O12 C6 1.268 . S
O13 Sc0 2.105 . S
O13 C7 1.268 . S
O14 Sc2 2.105 . S
O14 C8 1.268 . S
O15 Sc1 2.105 . S
O15 C9 1.268 . S
O16 Sc0 2.105 1_655 S
O16 C8 1.268 . S
O17 Sc1 2.105 . S
O17 C7 1.268 . S
O18 Sc2 2.105 1_455 S
O18 C9 1.268 . S
O19 Sc0 2.105 . S
O19 C5 1.268 . S
O20 Sc2 2.105 . S
O20 C4 1.268 . S
O21 Sc1 2.105 . S
O21 C6 1.268 . S
Sc22 O25 2.025 . S
Sc22 O32 2.105 . S
Sc22 O35 2.105 . S
Sc22 O38 2.105 . S
Sc22 O41 2.105 . S
Sc23 O25 2.025 . S
Sc23 O33 2.105 . S
Sc23 O37 2.105 . S
Sc23 O39 2.105 . S
Sc23 O43 2.105 . S
Sc24 O25 2.025 . S
Sc24 O34 2.105 . S
Sc24 O36 2.105 . S
Sc24 O40 2.105 . S
Sc24 O42 2.105 . S
O25 Sc22 2.025 . S
O25 Sc23 2.025 . S
O25 Sc24 2.025 . S
C26 O32 1.268 . S
C26 O42 1.268 . S
C27 O33 1.268 . S
C27 O41 1.268 . S
C28 O34 1.268 . S
C28 O43 1.268 . S
C29 O35 1.268 . S
C29 O39 1.268 . S
C30 O36 1.268 . S
C30 O38 1.268 . S
C31 O37 1.268 . S
C31 O40 1.268 . S
O32 Sc22 2.105 . S
O32 C26 1.268 . S
O33 Sc23 2.105 . S
O33 C27 1.268 . S
O34 Sc24 2.105 . S
O34 C28 1.268 . S
O35 Sc22 2.105 . S
O35 C29 1.268 . S
O36 Sc24 2.105 . S
O36 C30 1.268 . S
O37 Sc23 2.105 . S
O37 C31 1.268 . S
O38 Sc22 2.105 . S
O38 C30 1.268 . S
O39 Sc23 2.105 . S
O39 C29 1.268 . S
O40 Sc24 2.105 . S
O40 C31 1.268 . S
O41 Sc22 2.105 . S
O41 C27 1.268 . S
O42 Sc24 2.105 . S
O42 C26 1.268 . S
O43 Sc23 2.105 . S
O43 C28 1.268 . S
Sc44 O47 2.025 . S
Sc44 O54 2.105 1_565 S
Sc44 O57 2.105 . S
Sc44 O60 2.105 1_565 S
Sc44 O63 2.105 . S
Sc45 O47 2.025 . S
Sc45 O55 2.105 . S
Sc45 O59 2.105 . S
Sc45 O61 2.105 . S
Sc45 O65 2.105 . S
Sc46 O47 2.025 1_545 S
Sc46 O56 2.105 1_545 S
Sc46 O58 2.105 . S
Sc46 O62 2.105 1_545 S
Sc46 O64 2.105 . S
O47 Sc44 2.025 . S
O47 Sc45 2.025 . S
O47 Sc46 2.025 1_565 S
C48 O54 1.268 . S
C48 O64 1.268 . S
C49 O55 1.268 . S
C49 O63 1.268 . S
C50 O56 1.268 . S
C50 O65 1.268 . S
C51 O57 1.268 . S
C51 O61 1.268 . S
C52 O58 1.268 . S
C52 O60 1.268 . S
C53 O59 1.268 . S
C53 O62 1.268 . S
O54 Sc44 2.105 1_545 S
O54 C48 1.268 . S
O55 Sc45 2.105 . S
O55 C49 1.268 . S
O56 Sc46 2.105 1_565 S
O56 C50 1.268 . S
O57 Sc44 2.105 . S
O57 C51 1.268 . S
O58 Sc46 2.105 . S
O58 C52 1.268 . S
O59 Sc45 2.105 . S
O59 C53 1.268 . S
O60 Sc44 2.105 1_545 S
O60 C52 1.268 . S
O61 Sc45 2.105 . S
O61 C51 1.268 . S
O62 Sc46 2.105 1_565 S
O62 C53 1.268 . S
O63 Sc44 2.105 . S
O63 C49 1.268 . S
O64 Sc46 2.105 . S
O64 C48 1.268 . S
O65 Sc45 2.105 . S
O65 C50 1.268 . S
Sc66 O69 2.025 . S
Sc66 O76 2.105 1_545 S
Sc66 O79 2.105 . S
Sc66 O82 2.105 1_545 S
Sc66 O85 2.105 . S
Sc67 O69 2.025 . S
Sc67 O77 2.105 . S
Sc67 O81 2.105 . S
Sc67 O83 2.105 . S
Sc67 O87 2.105 . S
Sc68 O69 2.025 1_565 S
Sc68 O78 2.105 1_565 S
Sc68 O80 2.105 . S
Sc68 O84 2.105 1_565 S
Sc68 O86 2.105 . S
O69 Sc66 2.025 . S
O69 Sc67 2.025 . S
O69 Sc68 2.025 1_545 S
C70 O76 1.268 . S
C70 O86 1.268 . S
C71 O77 1.268 . S
C71 O85 1.268 . S
C72 O78 1.268 . S
C72 O87 1.268 . S
C73 O79 1.268 . S
C73 O83 1.268 . S
C74 O80 1.268 . S
C74 O82 1.268 . S
C75 O81 1.268 . S
C75 O84 1.268 . S
O76 Sc66 2.105 1_565 S
O76 C70 1.268 . S
O77 Sc67 2.105 . S
O77 C71 1.268 . S
O78 Sc68 2.105 1_545 S
O78 C72 1.268 . S
O79 Sc66 2.105 . S
O79 C73 1.268 . S
O80 Sc68 2.105 . S
O80 C74 1.268 . S
O81 Sc67 2.105 . S
O81 C75 1.268 . S
O82 Sc66 2.105 1_565 S
O82 C74 1.268 . S
O83 Sc67 2.105 . S
O83 C73 1.268 . S
O84 Sc68 2.105 1_545 S
O84 C75 1.268 . S
O85 Sc66 2.105 . S
O85 C71 1.268 . S
O86 Sc68 2.105 . S
O86 C70 1.268 . S
O87 Sc67 2.105 . S
O87 C72 1.268 . S
Sc88 O91 2.025 . S
Sc88 O98 2.105 1_655 S
Sc88 O101 2.105 . S
Sc88 O104 2.105 1_655 S
Sc88 O107 2.105 . S
Sc89 O91 2.025 . S
Sc89 O99 2.105 . S
Sc89 O103 2.105 . S
Sc89 O105 2.105 . S
Sc89 O109 2.105 . S
Sc90 O91 2.025 1_455 S
Sc90 O100 2.105 1_455 S
Sc90 O102 2.105 . S
Sc90 O106 2.105 1_455 S
Sc90 O108 2.105 . S
O91 Sc88 2.025 . S
O91 Sc89 2.025 . S
O91 Sc90 2.025 1_655 S
C92 O98 1.268 . S
C92 O108 1.268 . S
C93 O99 1.268 . S
C93 O107 1.268 . S
C94 O100 1.268 . S
C94 O109 1.268 . S
C95 O101 1.268 . S
C95 O105 1.268 . S
C96 O102 1.268 . S
C96 O104 1.268 . S
C97 O103 1.268 . S
C97 O106 1.268 . S
O98 Sc88 2.105 1_455 S
O98 C92 1.268 . S
O99 Sc89 2.105 . S
O99 C93 1.268 . S
O100 Sc90 2.105 1_655 S
O100 C94 1.268 . S
O101 Sc88 2.105 . S
O101 C95 1.268 . S
O102 Sc90 2.105 . S
O102 C96 1.268 . S
O103 Sc89 2.105 . S
O103 C97 1.268 . S
O104 Sc88 2.105 1_455 S
O104 C96 1.268 . S
O105 Sc89 2.105 . S
O105 C95 1.268 . S
O106 Sc90 2.105 1_655 S
O106 C97 1.268 . S
O107 Sc88 2.105 . S
O107 C93 1.268 . S
O108 Sc90 2.105 . S
O108 C92 1.268 . S
O109 Sc89 2.105 . S
O109 C94 1.268 . S
Sc110 O113 2.025 . S
Sc110 O120 2.105 . S
Sc110 O123 2.105 . S
Sc110 O126 2.105 . S
Sc110 O129 2.105 . S
Sc111 O113 2.025 . S
Sc111 O121 2.105 . S
Sc111 O125 2.105 . S
Sc111 O127 2.105 . S
Sc111 O131 2.105 . S
Sc112 O113 2.025 . S
Sc112 O122 2.105 . S
Sc112 O124 2.105 . S
Sc112 O128 2.105 . S
Sc112 O130 2.105 . S
O113 Sc110 2.025 . S
O113 Sc111 2.025 . S
O113 Sc112 2.025 . S
C114 O120 1.268 . S
C114 O130 1.268 . S
C115 O121 1.268 . S
C115 O129 1.268 . S
C116 O122 1.268 . S
C116 O131 1.268 . S
C117 O123 1.268 . S
C117 O127 1.268 . S
C118 O124 1.268 . S
C118 O126 1.268 . S
C119 O125 1.268 . S
C119 O128 1.268 . S
O120 Sc110 2.105 . S
O120 C114 1.268 . S
O121 Sc111 2.105 . S
O121 C115 1.268 . S
O122 Sc112 2.105 . S
O122 C116 1.268 . S
O123 Sc110 2.105 . S
O123 C117 1.268 . S
O124 Sc112 2.105 . S
O124 C118 1.268 . S
O125 Sc111 2.105 . S
O125 C119 1.268 . S
O126 Sc110 2.105 . S
O126 C118 1.268 . S
O127 Sc111 2.105 . S
O127 C117 1.268 . S
O128 Sc112 2.105 . S
O128 C119 1.268 . S
O129 Sc110 2.105 . S
O129 C115 1.268 . S
O130 Sc112 2.105 . S
O130 C114 1.268 . S
O131 Sc111 2.105 . S
O131 C116 1.268 . S
Sc132 O135 2.025 1_455 S
Sc132 O142 2.105 . S
Sc132 O145 2.105 1_455 S
Sc132 O148 2.105 . S
Sc132 O151 2.105 1_455 S
Sc133 O135 2.025 . S
Sc133 O143 2.105 . S
Sc133 O147 2.105 . S
Sc133 O149 2.105 . S
Sc133 O153 2.105 . S
Sc134 O135 2.025 . S
Sc134 O144 2.105 . S
Sc134 O146 2.105 1_655 S
Sc134 O150 2.105 . S
Sc134 O152 2.105 1_655 S
O135 Sc132 2.025 1_655 S
O135 Sc133 2.025 . S
O135 Sc134 2.025 . S
C136 O142 1.268 . S
C136 O152 1.268 . S
C137 O143 1.268 . S
C137 O151 1.268 . S
C138 O144 1.268 . S
C138 O153 1.268 . S
C139 O145 1.268 . S
C139 O149 1.268 . S
C140 O146 1.268 . S
C140 O148 1.268 . S
C141 O147 1.268 . S
C141 O150 1.268 . S
O142 Sc132 2.105 . S
O142 C136 1.268 . S
O143 Sc133 2.105 . S
O143 C137 1.268 . S
O144 Sc134 2.105 . S
O144 C138 1.268 . S
O145 Sc132 2.105 1_655 S
O145 C139 1.268 . S
O146 Sc134 2.105 1_455 S
O146 C140 1.268 . S
O147 Sc133 2.105 . S
O147 C141 1.268 . S
O148 Sc132 2.105 . S
O148 C140 1.268 . S
O149 Sc133 2.105 . S
O149 C139 1.268 . S
O150 Sc134 2.105 . S
O150 C141 1.268 . S
O151 Sc132 2.105 1_655 S
O151 C137 1.268 . S
O152 Sc134 2.105 1_455 S
O152 C136 1.268 . S
O153 Sc133 2.105 . S
O153 C138 1.268 . S
Sc154 O157 2.025 . S
Sc154 O164 2.105 . S
Sc154 O167 2.105 . S
Sc154 O170 2.105 . S
Sc154 O173 2.105 . S
Sc155 O157 2.025 . S
Sc155 O165 2.105 . S
Sc155 O169 2.105 . S
Sc155 O171 2.105 . S
Sc155 O175 2.105 . S
Sc156 O157 2.025 . S
Sc156 O166 2.105 . S
Sc156 O168 2.105 . S
Sc156 O172 2.105 . S
Sc156 O174 2.105 . S
O157 Sc154 2.025 . S
O157 Sc155 2.025 . S
O157 Sc156 2.025 . S
C158 O164 1.268 . S
C158 O174 1.268 . S
C159 O165 1.268 . S
C159 O173 1.268 . S
C160 O166 1.268 . S
C160 O175 1.268 . S
C161 O167 1.268 . S
C161 O171 1.268 . S
C162 O168 1.268 . S
C162 O170 1.268 . S
C163 O169 1.268 . S
C163 O172 1.268 . S
O164 Sc154 2.105 . S
O164 C158 1.268 . S
O165 Sc155 2.105 . S
O165 C159 1.268 . S
O166 Sc156 2.105 . S
O166 C160 1.268 . S
O167 Sc154 2.105 . S
O167 C161 1.268 . S
O168 Sc156 2.105 . S
O168 C162 1.268 . S
O169 Sc155 2.105 . S
O169 C163 1.268 . S
O170 Sc154 2.105 . S
O170 C162 1.268 . S
O171 Sc155 2.105 . S
O171 C161 1.268 . S
O172 Sc156 2.105 . S
O172 C163 1.268 . S
O173 Sc154 2.105 . S
O173 C159 1.268 . S
O174 Sc156 2.105 . S
O174 C158 1.268 . S
O175 Sc155 2.105 . S
O175 C160 1.268 . S
Sc176 O179 2.025 1_565 S
Sc176 O186 2.105 . S
Sc176 O189 2.105 1_565 S
Sc176 O192 2.105 . S
Sc176 O195 2.105 1_565 S
Sc177 O179 2.025 . S
Sc177 O187 2.105 . S
Sc177 O191 2.105 . S
Sc177 O193 2.105 . S
Sc177 O197 2.105 . S
Sc178 O179 2.025 . S
Sc178 O188 2.105 . S
Sc178 O190 2.105 1_545 S
Sc178 O194 2.105 . S
Sc178 O196 2.105 1_545 S
O179 Sc176 2.025 1_545 S
O179 Sc177 2.025 . S
O179 Sc178 2.025 . S
C180 O186 1.268 . S
C180 O196 1.268 . S
C181 O187 1.268 . S
C181 O195 1.268 . S
C182 O188 1.268 . S
C182 O197 1.268 . S
C183 O189 1.268 . S
C183 O193 1.268 . S
C184 O190 1.268 . S
C184 O192 1.268 . S
C185 O191 1.268 . S
C185 O194 1.268 . S
O186 Sc176 2.105 . S
O186 C180 1.268 . S
O187 Sc177 2.105 . S
O187 C181 1.268 . S
O188 Sc178 2.105 . S
O188 C182 1.268 . S
O189 Sc176 2.105 1_545 S
O189 C183 1.268 . S
O190 Sc178 2.105 1_565 S
O190 C184 1.268 . S
O191 Sc177 2.105 . S
O191 C185 1.268 . S
O192 Sc176 2.105 . S
O192 C184 1.268 . S
O193 Sc177 2.105 . S
O193 C183 1.268 . S
O194 Sc178 2.105 . S
O194 C185 1.268 . S
O195 Sc176 2.105 1_545 S
O195 C181 1.268 . S
O196 Sc178 2.105 1_565 S
O196 C180 1.268 . S
O197 Sc177 2.105 . S
O197 C182 1.268 . S
Sc198 O201 2.025 1_545 S
Sc198 O208 2.105 . S
Sc198 O211 2.105 1_545 S
Sc198 O214 2.105 . S
Sc198 O217 2.105 1_545 S
Sc199 O201 2.025 . S
Sc199 O209 2.105 . S
Sc199 O213 2.105 . S
Sc199 O215 2.105 . S
Sc199 O219 2.105 . S
Sc200 O201 2.025 . S
Sc200 O210 2.105 . S
Sc200 O212 2.105 1_565 S
Sc200 O216 2.105 . S
Sc200 O218 2.105 1_565 S
O201 Sc198 2.025 1_565 S
O201 Sc199 2.025 . S
O201 Sc200 2.025 . S
C202 O208 1.268 . S
C202 O218 1.268 . S
C203 O209 1.268 . S
C203 O217 1.268 . S
C204 O210 1.268 . S
C204 O219 1.268 . S
C205 O211 1.268 . S
C205 O215 1.268 . S
C206 O212 1.268 . S
C206 O214 1.268 . S
C207 O213 1.268 . S
C207 O216 1.268 . S
O208 Sc198 2.105 . S
O208 C202 1.268 . S
O209 Sc199 2.105 . S
O209 C203 1.268 . S
O210 Sc200 2.105 . S
O210 C204 1.268 . S
O211 Sc198 2.105 1_565 S
O211 C205 1.268 . S
O212 Sc200 2.105 1_545 S
O212 C206 1.268 . S
O213 Sc199 2.105 . S
O213 C207 1.268 . S
O214 Sc198 2.105 . S
O214 C206 1.268 . S
O215 Sc199 2.105 . S
O215 C205 1.268 . S
O216 Sc200 2.105 . S
O216 C207 1.268 . S
O217 Sc198 2.105 1_565 S
O217 C203 1.268 . S
O218 Sc200 2.105 1_545 S
O218 C202 1.268 . S
O219 Sc199 2.105 . S
O219 C204 1.268 . S
Sc220 O223 2.025 1_655 S
Sc220 O230 2.105 . S
Sc220 O233 2.105 1_655 S
Sc220 O236 2.105 . S
Sc220 O239 2.105 1_655 S
Sc221 O223 2.025 . S
Sc221 O231 2.105 . S
Sc221 O235 2.105 . S
Sc221 O237 2.105 . S
Sc221 O241 2.105 . S
Sc222 O223 2.025 . S
Sc222 O232 2.105 . S
Sc222 O234 2.105 1_455 S
Sc222 O238 2.105 . S
Sc222 O240 2.105 1_455 S
O223 Sc220 2.025 1_455 S
O223 Sc221 2.025 . S
O223 Sc222 2.025 . S
C224 O230 1.268 . S
C224 O240 1.268 . S
C225 O231 1.268 . S
C225 O239 1.268 . S
C226 O232 1.268 . S
C226 O241 1.268 . S
C227 O233 1.268 . S
C227 O237 1.268 . S
C228 O234 1.268 . S
C228 O236 1.268 . S
C229 O235 1.268 . S
C229 O238 1.268 . S
O230 Sc220 2.105 . S
O230 C224 1.268 . S
O231 Sc221 2.105 . S
O231 C225 1.268 . S
O232 Sc222 2.105 . S
O232 C226 1.268 . S
O233 Sc220 2.105 1_455 S
O233 C227 1.268 . S
O234 Sc222 2.105 1_655 S
O234 C228 1.268 . S
O235 Sc221 2.105 . S
O235 C229 1.268 . S
O236 Sc220 2.105 . S
O236 C228 1.268 . S
O237 Sc221 2.105 . S
O237 C227 1.268 . S
O238 Sc222 2.105 . S
O238 C229 1.268 . S
O239 Sc220 2.105 1_455 S
O239 C225 1.268 . S
O240 Sc222 2.105 1_655 S
O240 C224 1.268 . S
O241 Sc221 2.105 . S
O241 C226 1.268 . S
Sc242 O245 2.025 . S
Sc242 O252 2.105 . S
Sc242 O255 2.105 . S
Sc242 O258 2.105 . S
Sc242 O261 2.105 . S
Sc243 O245 2.025 . S
Sc243 O253 2.105 . S
Sc243 O257 2.105 . S
Sc243 O259 2.105 . S
Sc243 O263 2.105 . S
Sc244 O245 2.025 . S
Sc244 O254 2.105 . S
Sc244 O256 2.105 . S
Sc244 O260 2.105 . S
Sc244 O262 2.105 . S
O245 Sc242 2.025 . S
O245 Sc243 2.025 . S
O245 Sc244 2.025 . S
C246 O252 1.268 . S
C246 O262 1.268 . S
C247 O253 1.268 . S
C247 O261 1.268 . S
C248 O254 1.268 . S
C248 O263 1.268 . S
C249 O255 1.268 . S
C249 O259 1.268 . S
C250 O256 1.268 . S
C250 O258 1.268 . S
C251 O257 1.268 . S
C251 O260 1.268 . S
O252 Sc242 2.105 . S
O252 C246 1.268 . S
O253 Sc243 2.105 . S
O253 C247 1.268 . S
O254 Sc244 2.105 . S
O254 C248 1.268 . S
O255 Sc242 2.105 . S
O255 C249 1.268 . S
O256 Sc244 2.105 . S
O256 C250 1.268 . S
O257 Sc243 2.105 . S
O257 C251 1.268 . S
O258 Sc242 2.105 . S
O258 C250 1.268 . S
O259 Sc243 2.105 . S
O259 C249 1.268 . S
O260 Sc244 2.105 . S
O260 C251 1.268 . S
O261 Sc242 2.105 . S
O261 C247 1.268 . S
O262 Sc244 2.105 . S
O262 C246 1.268 . S
O263 Sc243 2.105 . S
O263 C248 1.268 . S
Sc264 O267 2.025 . S
Sc264 O274 2.105 . S
Sc264 O277 2.105 . S
Sc264 O280 2.105 . S
Sc264 O283 2.105 . S
Sc265 O267 2.025 . S
Sc265 O275 2.105 . S
Sc265 O279 2.105 . S
Sc265 O281 2.105 . S
Sc265 O285 2.105 . S
Sc266 O267 2.025 . S
Sc266 O276 2.105 . S
Sc266 O278 2.105 . S
Sc266 O282 2.105 . S
Sc266 O284 2.105 . S
O267 Sc264 2.025 . S
O267 Sc265 2.025 . S
O267 Sc266 2.025 . S
C268 O274 1.268 . S
C268 O284 1.268 . S
C269 O275 1.268 . S
C269 O283 1.268 . S
C270 O276 1.268 . S
C270 O285 1.268 . S
C271 O277 1.268 . S
C271 O281 1.268 . S
C272 O278 1.268 . S
C272 O280 1.268 . S
C273 O279 1.268 . S
C273 O282 1.268 . S
O274 Sc264 2.105 . S
O274 C268 1.268 . S
O275 Sc265 2.105 . S
O275 C269 1.268 . S
O276 Sc266 2.105 . S
O276 C270 1.268 . S
O277 Sc264 2.105 . S
O277 C271 1.268 . S
O278 Sc266 2.105 . S
O278 C272 1.268 . S
O279 Sc265 2.105 . S
O279 C273 1.268 . S
O280 Sc264 2.105 . S
O280 C272 1.268 . S
O281 Sc265 2.105 . S
O281 C271 1.268 . S
O282 Sc266 2.105 . S
O282 C273 1.268 . S
O283 Sc264 2.105 . S
O283 C269 1.268 . S
O284 Sc266 2.105 . S
O284 C268 1.268 . S
O285 Sc265 2.105 . S
O285 C270 1.268 . S
Sc286 O289 2.025 . S
Sc286 O296 2.105 . S
Sc286 O299 2.105 . S
Sc286 O302 2.105 . S
Sc286 O305 2.105 . S
Sc287 O289 2.025 . S
Sc287 O297 2.105 . S
Sc287 O301 2.105 . S
Sc287 O303 2.105 . S
Sc287 O307 2.105 . S
Sc288 O289 2.025 . S
Sc288 O298 2.105 . S
Sc288 O300 2.105 . S
Sc288 O304 2.105 . S
Sc288 O306 2.105 . S
O289 Sc286 2.025 . S
O289 Sc287 2.025 . S
O289 Sc288 2.025 . S
C290 O296 1.268 . S
C290 O306 1.268 . S
C291 O297 1.268 . S
C291 O305 1.268 . S
C292 O298 1.268 . S
C292 O307 1.268 . S
C293 O299 1.268 . S
C293 O303 1.268 . S
C294 O300 1.268 . S
C294 O302 1.268 . S
C295 O301 1.268 . S
C295 O304 1.268 . S
O296 Sc286 2.105 . S
O296 C290 1.268 . S
O297 Sc287 2.105 . S
O297 C291 1.268 . S
O298 Sc288 2.105 . S
O298 C292 1.268 . S
O299 Sc286 2.105 . S
O299 C293 1.268 . S
O300 Sc288 2.105 . S
O300 C294 1.268 . S
O301 Sc287 2.105 . S
O301 C295 1.268 . S
O302 Sc286 2.105 . S
O302 C294 1.268 . S
O303 Sc287 2.105 . S
O303 C293 1.268 . S
O304 Sc288 2.105 . S
O304 C295 1.268 . S
O305 Sc286 2.105 . S
O305 C291 1.268 . S
O306 Sc288 2.105 . S
O306 C290 1.268 . S
O307 Sc287 2.105 . S
O307 C292 1.268 . S
Sc308 O311 2.025 . S
Sc308 O318 2.105 . S
Sc308 O321 2.105 . S
Sc308 O324 2.105 . S
Sc308 O327 2.105 . S
Sc309 O311 2.025 . S
Sc309 O319 2.105 . S
Sc309 O323 2.105 . S
Sc309 O325 2.105 . S
Sc309 O329 2.105 . S
Sc310 O311 2.025 . S
Sc310 O320 2.105 . S
Sc310 O322 2.105 . S
Sc310 O326 2.105 . S
Sc310 O328 2.105 . S
O311 Sc308 2.025 . S
O311 Sc309 2.025 . S
O311 Sc310 2.025 . S
C312 O318 1.268 . S
C312 O328 1.268 . S
C313 O319 1.268 . S
C313 O327 1.268 . S
C314 O320 1.268 . S
C314 O329 1.268 . S
C315 O321 1.268 . S
C315 O325 1.268 . S
C316 O322 1.268 . S
C316 O324 1.268 . S
C317 O323 1.268 . S
C317 O326 1.268 . S
O318 Sc308 2.105 . S
O318 C312 1.268 . S
O319 Sc309 2.105 . S
O319 C313 1.268 . S
O320 Sc310 2.105 . S
O320 C314 1.268 . S
O321 Sc308 2.105 . S
O321 C315 1.268 . S
O322 Sc310 2.105 . S
O322 C316 1.268 . S
O323 Sc309 2.105 . S
O323 C317 1.268 . S
O324 Sc308 2.105 . S
O324 C316 1.268 . S
O325 Sc309 2.105 . S
O325 C315 1.268 . S
O326 Sc310 2.105 . S
O326 C317 1.268 . S
O327 Sc308 2.105 . S
O327 C313 1.268 . S
O328 Sc310 2.105 . S
O328 C312 1.268 . S
O329 Sc309 2.105 . S
O329 C314 1.268 . S
Sc330 O333 2.025 . S
Sc330 O340 2.105 . S
Sc330 O343 2.105 . S
Sc330 O346 2.105 . S
Sc330 O349 2.105 . S
Sc331 O333 2.025 . S
Sc331 O341 2.105 . S
Sc331 O345 2.105 . S
Sc331 O347 2.105 . S
Sc331 O351 2.105 . S
Sc332 O333 2.025 . S
Sc332 O342 2.105 . S
Sc332 O344 2.105 . S
Sc332 O348 2.105 . S
Sc332 O350 2.105 . S
O333 Sc330 2.025 . S
O333 Sc331 2.025 . S
O333 Sc332 2.025 . S
C334 O340 1.268 . S
C334 O350 1.268 . S
C335 O341 1.268 . S
C335 O349 1.268 . S
C336 O342 1.268 . S
C336 O351 1.268 . S
C337 O343 1.268 . S
C337 O347 1.268 . S
C338 O344 1.268 . S
C338 O346 1.268 . S
C339 O345 1.268 . S
C339 O348 1.268 . S
O340 Sc330 2.105 . S
O340 C334 1.268 . S
O341 Sc331 2.105 . S
O341 C335 1.268 . S
O342 Sc332 2.105 . S
O342 C336 1.268 . S
O343 Sc330 2.105 . S
O343 C337 1.268 . S
O344 Sc332 2.105 . S
O344 C338 1.268 . S
O345 Sc331 2.105 . S
O345 C339 1.268 . S
O346 Sc330 2.105 . S
O346 C338 1.268 . S
O347 Sc331 2.105 . S
O347 C337 1.268 . S
O348 Sc332 2.105 . S
O348 C339 1.268 . S
O349 Sc330 2.105 . S
O349 C335 1.268 . S
O350 Sc332 2.105 . S
O350 C334 1.268 . S
O351 Sc331 2.105 . S
O351 C336 1.268 . S
Sc352 O355 2.025 . S
Sc352 O362 2.105 . S
Sc352 O365 2.105 . S
Sc352 O368 2.105 . S
Sc352 O371 2.105 . S
Sc353 O355 2.025 . S
Sc353 O363 2.105 . S
Sc353 O367 2.105 . S
Sc353 O369 2.105 . S
Sc353 O373 2.105 . S
Sc354 O355 2.025 . S
Sc354 O364 2.105 . S
Sc354 O366 2.105 . S
Sc354 O370 2.105 . S
Sc354 O372 2.105 . S
O355 Sc352 2.025 . S
O355 Sc353 2.025 . S
O355 Sc354 2.025 . S
C356 O362 1.268 . S
C356 O372 1.268 . S
C357 O363 1.268 . S
C357 O371 1.268 . S
C358 O364 1.268 . S
C358 O373 1.268 . S
C359 O365 1.268 . S
C359 O369 1.268 . S
C360 O366 1.268 . S
C360 O368 1.268 . S
C361 O367 1.268 . S
C361 O370 1.268 . S
O362 Sc352 2.105 . S
O362 C356 1.268 . S
O363 Sc353 2.105 . S
O363 C357 1.268 . S
O364 Sc354 2.105 . S
O364 C358 1.268 . S
O365 Sc352 2.105 . S
O365 C359 1.268 . S
O366 Sc354 2.105 . S
O366 C360 1.268 . S
O367 Sc353 2.105 . S
O367 C361 1.268 . S
O368 Sc352 2.105 . S
O368 C360 1.268 . S
O369 Sc353 2.105 . S
O369 C359 1.268 . S
O370 Sc354 2.105 . S
O370 C361 1.268 . S
O371 Sc352 2.105 . S
O371 C357 1.268 . S
O372 Sc354 2.105 . S
O372 C356 1.268 . S
O373 Sc353 2.105 . S
O373 C358 1.268 . S
Sc374 O377 2.025 . S
Sc374 O384 2.105 . S
Sc374 O387 2.105 . S
Sc374 O390 2.105 . S
Sc374 O393 2.105 . S
Sc375 O377 2.025 . S
Sc375 O385 2.105 . S
Sc375 O389 2.105 . S
Sc375 O391 2.105 . S
Sc375 O395 2.105 . S
Sc376 O377 2.025 . S
Sc376 O386 2.105 . S
Sc376 O388 2.105 . S
Sc376 O392 2.105 . S
Sc376 O394 2.105 . S
O377 Sc374 2.025 . S
O377 Sc375 2.025 . S
O377 Sc376 2.025 . S
C378 O384 1.268 . S
C378 O394 1.268 . S
C379 O385 1.268 . S
C379 O393 1.268 . S
C380 O386 1.268 . S
C380 O395 1.268 . S
C381 O387 1.268 . S
C381 O391 1.268 . S
C382 O388 1.268 . S
C382 O390 1.268 . S
C383 O389 1.268 . S
C383 O392 1.268 . S
O384 Sc374 2.105 . S
O384 C378 1.268 . S
O385 Sc375 2.105 . S
O385 C379 1.268 . S
O386 Sc376 2.105 . S
O386 C380 1.268 . S
O387 Sc374 2.105 . S
O387 C381 1.268 . S
O388 Sc376 2.105 . S
O388 C382 1.268 . S
O389 Sc375 2.105 . S
O389 C383 1.268 . S
O390 Sc374 2.105 . S
O390 C382 1.268 . S
O391 Sc375 2.105 . S
O391 C381 1.268 . S
O392 Sc376 2.105 . S
O392 C383 1.268 . S
O393 Sc374 2.105 . S
O393 C379 1.268 . S
O394 Sc376 2.105 . S
O394 C378 1.268 . S
O395 Sc375 2.105 . S
O395 C380 1.268 . S
Sc396 O399 2.025 . S
Sc396 O406 2.105 . S
Sc396 O409 2.105 . S
Sc396 O412 2.105 . S
Sc396 O415 2.105 . S
Sc397 O399 2.025 . S
Sc397 O407 2.105 . S
Sc397 O411 2.105 . S
Sc397 O413 2.105 . S
Sc397 O417 2.105 . S
Sc398 O399 2.025 . S
Sc398 O408 2.105 . S
Sc398 O410 2.105 . S
Sc398 O414 2.105 . S
Sc398 O416 2.105 . S
O399 Sc396 2.025 . S
O399 Sc397 2.025 . S
O399 Sc398 2.025 . S
C400 O406 1.268 . S
C400 O416 1.268 . S
C401 O407 1.268 . S
C401 O415 1.268 . S
C402 O408 1.268 . S
C402 O417 1.268 . S
C403 O409 1.268 . S
C403 O413 1.268 . S
C404 O410 1.268 . S
C404 O412 1.268 . S
C405 O411 1.268 . S
C405 O414 1.268 . S
O406 Sc396 2.105 . S
O406 C400 1.268 . S
O407 Sc397 2.105 . S
O407 C401 1.268 . S
O408 Sc398 2.105 . S
O408 C402 1.268 . S
O409 Sc396 2.105 . S
O409 C403 1.268 . S
O410 Sc398 2.105 . S
O410 C404 1.268 . S
O411 Sc397 2.105 . S
O411 C405 1.268 . S
O412 Sc396 2.105 . S
O412 C404 1.268 . S
O413 Sc397 2.105 . S
O413 C403 1.268 . S
O414 Sc398 2.105 . S
O414 C405 1.268 . S
O415 Sc396 2.105 . S
O415 C401 1.268 . S
O416 Sc398 2.105 . S
O416 C400 1.268 . S
O417 Sc397 2.105 . S
O417 C402 1.268 . S
Sc418 O421 2.025 . S
Sc418 O428 2.105 . S
Sc418 O431 2.105 . S
Sc418 O434 2.105 . S
Sc418 O437 2.105 . S
Sc419 O421 2.025 . S
Sc419 O429 2.105 . S
Sc419 O433 2.105 . S
Sc419 O435 2.105 . S
Sc419 O439 2.105 . S
Sc420 O421 2.025 . S
Sc420 O430 2.105 . S
Sc420 O432 2.105 . S
Sc420 O436 2.105 . S
Sc420 O438 2.105 . S
O421 Sc418 2.025 . S
O421 Sc419 2.025 . S
O421 Sc420 2.025 . S
C422 O428 1.268 . S
C422 O438 1.268 . S
C423 O429 1.268 . S
C423 O437 1.268 . S
C424 O430 1.268 . S
C424 O439 1.268 . S
C425 O431 1.268 . S
C425 O435 1.268 . S
C426 O432 1.268 . S
C426 O434 1.268 . S
C427 O433 1.268 . S
C427 O436 1.268 . S
O428 Sc418 2.105 . S
O428 C422 1.268 . S
O429 Sc419 2.105 . S
O429 C423 1.268 . S
O430 Sc420 2.105 . S
O430 C424 1.268 . S
O431 Sc418 2.105 . S
O431 C425 1.268 . S
O432 Sc420 2.105 . S
O432 C426 1.268 . S
O433 Sc419 2.105 . S
O433 C427 1.268 . S
O434 Sc418 2.105 . S
O434 C426 1.268 . S
O435 Sc419 2.105 . S
O435 C425 1.268 . S
O436 Sc420 2.105 . S
O436 C427 1.268 . S
O437 Sc418 2.105 . S
O437 C423 1.268 . S
O438 Sc420 2.105 . S
O438 C422 1.268 . S
O439 Sc419 2.105 . S
O439 C424 1.268 . S
Sc440 O443 2.025 . S
Sc440 O450 2.105 . S
Sc440 O453 2.105 . S
Sc440 O456 2.105 . S
Sc440 O459 2.105 . S
Sc441 O443 2.025 . S
Sc441 O451 2.105 . S
Sc441 O455 2.105 . S
Sc441 O457 2.105 . S
Sc441 O461 2.105 . S
Sc442 O443 2.025 . S
Sc442 O452 2.105 . S
Sc442 O454 2.105 . S
Sc442 O458 2.105 . S
Sc442 O460 2.105 . S
O443 Sc440 2.025 . S
O443 Sc441 2.025 . S
O443 Sc442 2.025 . S
C444 O450 1.268 . S
C444 O460 1.268 . S
C445 O451 1.268 . S
C445 O459 1.268 . S
C446 O452 1.268 . S
C446 O461 1.268 . S
C447 O453 1.268 . S
C447 O457 1.268 . S
C448 O454 1.268 . S
C448 O456 1.268 . S
C449 O455 1.268 . S
C449 O458 1.268 . S
O450 Sc440 2.105 . S
O450 C444 1.268 . S
O451 Sc441 2.105 . S
O451 C445 1.268 . S
O452 Sc442 2.105 . S
O452 C446 1.268 . S
O453 Sc440 2.105 . S
O453 C447 1.268 . S
O454 Sc442 2.105 . S
O454 C448 1.268 . S
O455 Sc441 2.105 . S
O455 C449 1.268 . S
O456 Sc440 2.105 . S
O456 C448 1.268 . S
O457 Sc441 2.105 . S
O457 C447 1.268 . S
O458 Sc442 2.105 . S
O458 C449 1.268 . S
O459 Sc440 2.105 . S
O459 C445 1.268 . S
O460 Sc442 2.105 . S
O460 C444 1.268 . S
O461 Sc441 2.105 . S
O461 C446 1.268 . S
Sc462 O465 2.025 . S
Sc462 O472 2.105 . S
Sc462 O475 2.105 . S
Sc462 O478 2.105 . S
Sc462 O481 2.105 . S
Sc463 O465 2.025 . S
Sc463 O473 2.105 . S
Sc463 O477 2.105 . S
Sc463 O479 2.105 . S
Sc463 O483 2.105 . S
Sc464 O465 2.025 . S
Sc464 O474 2.105 . S
Sc464 O476 2.105 . S
Sc464 O480 2.105 . S
Sc464 O482 2.105 . S
O465 Sc462 2.025 . S
O465 Sc463 2.025 . S
O465 Sc464 2.025 . S
C466 O472 1.268 . S
C466 O482 1.268 . S
C467 O473 1.268 . S
C467 O481 1.268 . S
C468 O474 1.268 . S
C468 O483 1.268 . S
C469 O475 1.268 1_554 S
C469 O479 1.268 1_554 S
C470 O476 1.268 . S
C470 O478 1.268 . S
C471 O477 1.268 . S
C471 O480 1.268 . S
O472 Sc462 2.105 . S
O472 C466 1.268 . S
O473 Sc463 2.105 . S
O473 C467 1.268 . S
O474 Sc464 2.105 . S
O474 C468 1.268 . S
O475 Sc462 2.105 . S
O475 C469 1.268 1_556 S
O476 Sc464 2.105 . S
O476 C470 1.268 . S
O477 Sc463 2.105 . S
O477 C471 1.268 . S
O478 Sc462 2.105 . S
O478 C470 1.268 . S
O479 Sc463 2.105 . S
O479 C469 1.268 1_556 S
O480 Sc464 2.105 . S
O480 C471 1.268 . S
O481 Sc462 2.105 . S
O481 C467 1.268 . S
O482 Sc464 2.105 . S
O482 C466 1.268 . S
O483 Sc463 2.105 . S
O483 C468 1.268 . S
Sc484 O487 2.025 . S
Sc484 O494 2.105 . S
Sc484 O497 2.105 . S
Sc484 O500 2.105 . S
Sc484 O503 2.105 . S
Sc485 O487 2.025 . S
Sc485 O495 2.105 . S
Sc485 O499 2.105 . S
Sc485 O501 2.105 . S
Sc485 O505 2.105 . S
Sc486 O487 2.025 . S
Sc486 O496 2.105 . S
Sc486 O498 2.105 . S
Sc486 O502 2.105 . S
Sc486 O504 2.105 . S
O487 Sc484 2.025 . S
O487 Sc485 2.025 . S
O487 Sc486 2.025 . S
C488 O494 1.268 . S
C488 O504 1.268 . S
C489 O495 1.268 . S
C489 O503 1.268 . S
C490 O496 1.268 . S
C490 O505 1.268 . S
C491 O497 1.268 1_554 S
C491 O501 1.268 1_554 S
C492 O498 1.268 . S
C492 O500 1.268 . S
C493 O499 1.268 . S
C493 O502 1.268 . S
O494 Sc484 2.105 . S
O494 C488 1.268 . S
O495 Sc485 2.105 . S
O495 C489 1.268 . S
O496 Sc486 2.105 . S
O496 C490 1.268 . S
O497 Sc484 2.105 . S
O497 C491 1.268 1_556 S
O498 Sc486 2.105 . S
O498 C492 1.268 . S
O499 Sc485 2.105 . S
O499 C493 1.268 . S
O500 Sc484 2.105 . S
O500 C492 1.268 . S
O501 Sc485 2.105 . S
O501 C491 1.268 1_556 S
O502 Sc486 2.105 . S
O502 C493 1.268 . S
O503 Sc484 2.105 . S
O503 C489 1.268 . S
O504 Sc486 2.105 . S
O504 C488 1.268 . S
O505 Sc485 2.105 . S
O505 C490 1.268 . S
Sc506 O509 2.025 . S
Sc506 O516 2.105 . S
Sc506 O519 2.105 . S
Sc506 O522 2.105 . S
Sc506 O525 2.105 . S
Sc507 O509 2.025 . S
Sc507 O517 2.105 . S
Sc507 O521 2.105 . S
Sc507 O523 2.105 . S
Sc507 O527 2.105 . S
Sc508 O509 2.025 . S
Sc508 O518 2.105 . S
Sc508 O520 2.105 . S
Sc508 O524 2.105 . S
Sc508 O526 2.105 . S
O509 Sc506 2.025 . S
O509 Sc507 2.025 . S
O509 Sc508 2.025 . S
C510 O516 1.268 . S
C510 O526 1.268 . S
C511 O517 1.268 . S
C511 O525 1.268 . S
C512 O518 1.268 . S
C512 O527 1.268 . S
C513 O519 1.268 1_554 S
C513 O523 1.268 1_554 S
C514 O520 1.268 . S
C514 O522 1.268 . S
C515 O521 1.268 . S
C515 O524 1.268 . S
O516 Sc506 2.105 . S
O516 C510 1.268 . S
O517 Sc507 2.105 . S
O517 C511 1.268 . S
O518 Sc508 2.105 . S
O518 C512 1.268 . S
O519 Sc506 2.105 . S
O519 C513 1.268 1_556 S
O520 Sc508 2.105 . S
O520 C514 1.268 . S
O521 Sc507 2.105 . S
O521 C515 1.268 . S
O522 Sc506 2.105 . S
O522 C514 1.268 . S
O523 Sc507 2.105 . S
O523 C513 1.268 1_556 S
O524 Sc508 2.105 . S
O524 C515 1.268 . S
O525 Sc506 2.105 . S
O525 C511 1.268 . S
O526 Sc508 2.105 . S
O526 C510 1.268 . S
O527 Sc507 2.105 . S
O527 C512 1.268 . S
Sc528 O531 2.025 . S
Sc528 O538 2.105 . S
Sc528 O541 2.105 . S
Sc528 O544 2.105 . S
Sc528 O547 2.105 . S
Sc529 O531 2.025 . S
Sc529 O539 2.105 . S
Sc529 O543 2.105 . S
Sc529 O545 2.105 . S
Sc529 O549 2.105 . S
Sc530 O531 2.025 . S
Sc530 O540 2.105 . S
Sc530 O542 2.105 . S
Sc530 O546 2.105 . S
Sc530 O548 2.105 . S
O531 Sc528 2.025 . S
O531 Sc529 2.025 . S
O531 Sc530 2.025 . S
C532 O538 1.268 . S
C532 O548 1.268 . S
C533 O539 1.268 . S
C533 O547 1.268 . S
C534 O540 1.268 . S
C534 O549 1.268 . S
C535 O541 1.268 . S
C535 O545 1.268 . S
C536 O542 1.268 . S
C536 O544 1.268 . S
C537 O543 1.268 . S
C537 O546 1.268 . S
O538 Sc528 2.105 . S
O538 C532 1.268 . S
O539 Sc529 2.105 . S
O539 C533 1.268 . S
O540 Sc530 2.105 . S
O540 C534 1.268 . S
O541 Sc528 2.105 . S
O541 C535 1.268 . S
O542 Sc530 2.105 . S
O542 C536 1.268 . S
O543 Sc529 2.105 . S
O543 C537 1.268 . S
O544 Sc528 2.105 . S
O544 C536 1.268 . S
O545 Sc529 2.105 . S
O545 C535 1.268 . S
O546 Sc530 2.105 . S
O546 C537 1.268 . S
O547 Sc528 2.105 . S
O547 C533 1.268 . S
O548 Sc530 2.105 . S
O548 C532 1.268 . S
O549 Sc529 2.105 . S
O549 C534 1.268 . S
Sc550 O553 2.025 . S
Sc550 O560 2.105 . S
Sc550 O563 2.105 . S
Sc550 O566 2.105 . S
Sc550 O569 2.105 . S
Sc551 O553 2.025 . S
Sc551 O561 2.105 . S
Sc551 O565 2.105 . S
Sc551 O567 2.105 . S
Sc551 O571 2.105 . S
Sc552 O553 2.025 . S
Sc552 O562 2.105 . S
Sc552 O564 2.105 . S
Sc552 O568 2.105 . S
Sc552 O570 2.105 . S
O553 Sc550 2.025 . S
O553 Sc551 2.025 . S
O553 Sc552 2.025 . S
C554 O560 1.268 . S
C554 O570 1.268 . S
C555 O561 1.268 . S
C555 O569 1.268 . S
C556 O562 1.268 . S
C556 O571 1.268 . S
C557 O563 1.268 . S
C557 O567 1.268 . S
C558 O564 1.268 . S
C558 O566 1.268 . S
C559 O565 1.268 . S
C559 O568 1.268 . S
O560 Sc550 2.105 . S
O560 C554 1.268 . S
O561 Sc551 2.105 . S
O561 C555 1.268 . S
O562 Sc552 2.105 . S
O562 C556 1.268 . S
O563 Sc550 2.105 . S
O563 C557 1.268 . S
O564 Sc552 2.105 . S
O564 C558 1.268 . S
O565 Sc551 2.105 . S
O565 C559 1.268 . S
O566 Sc550 2.105 . S
O566 C558 1.268 . S
O567 Sc551 2.105 . S
O567 C557 1.268 . S
O568 Sc552 2.105 . S
O568 C559 1.268 . S
O569 Sc550 2.105 . S
O569 C555 1.268 . S
O570 Sc552 2.105 . S
O570 C554 1.268 . S
O571 Sc551 2.105 . S
O571 C556 1.268 . S
Sc572 O575 2.025 . S
Sc572 O582 2.105 . S
Sc572 O585 2.105 . S
Sc572 O588 2.105 . S
Sc572 O591 2.105 . S
Sc573 O575 2.025 . S
Sc573 O583 2.105 . S
Sc573 O587 2.105 . S
Sc573 O589 2.105 . S
Sc573 O593 2.105 . S
Sc574 O575 2.025 . S
Sc574 O584 2.105 . S
Sc574 O586 2.105 . S
Sc574 O590 2.105 . S
Sc574 O592 2.105 . S
O575 Sc572 2.025 . S
O575 Sc573 2.025 . S
O575 Sc574 2.025 . S
C576 O582 1.268 . S
C576 O592 1.268 . S
C577 O583 1.268 . S
C577 O591 1.268 . S
C578 O584 1.268 . S
C578 O593 1.268 . S
C579 O585 1.268 . S
C579 O589 1.268 . S
C580 O586 1.268 . S
C580 O588 1.268 . S
C581 O587 1.268 . S
C581 O590 1.268 . S
O582 Sc572 2.105 . S
O582 C576 1.268 . S
O583 Sc573 2.105 . S
O583 C577 1.268 . S
O584 Sc574 2.105 . S
O584 C578 1.268 . S
O585 Sc572 2.105 . S
O585 C579 1.268 . S
O586 Sc574 2.105 . S
O586 C580 1.268 . S
O587 Sc573 2.105 . S
O587 C581 1.268 . S
O588 Sc572 2.105 . S
O588 C580 1.268 . S
O589 Sc573 2.105 . S
O589 C579 1.268 . S
O590 Sc574 2.105 . S
O590 C581 1.268 . S
O591 Sc572 2.105 . S
O591 C577 1.268 . S
O592 Sc574 2.105 . S
O592 C576 1.268 . S
O593 Sc573 2.105 . S
O593 C578 1.268 . S
Sc594 O597 2.025 . S
Sc594 O604 2.105 . S
Sc594 O607 2.105 . S
Sc594 O610 2.105 . S
Sc594 O613 2.105 . S
Sc595 O597 2.025 . S
Sc595 O605 2.105 . S
Sc595 O609 2.105 . S
Sc595 O611 2.105 . S
Sc595 O615 2.105 . S
Sc596 O597 2.025 . S
Sc596 O606 2.105 . S
Sc596 O608 2.105 . S
Sc596 O612 2.105 . S
Sc596 O614 2.105 . S
O597 Sc594 2.025 . S
O597 Sc595 2.025 . S
O597 Sc596 2.025 . S
C598 O604 1.268 . S
C598 O614 1.268 . S
C599 O605 1.268 . S
C599 O613 1.268 . S
C600 O606 1.268 . S
C600 O615 1.268 . S
C601 O607 1.268 . S
C601 O611 1.268 . S
C602 O608 1.268 . S
C602 O610 1.268 . S
C603 O609 1.268 1_556 S
C603 O612 1.268 1_556 S
O604 Sc594 2.105 . S
O604 C598 1.268 . S
O605 Sc595 2.105 . S
O605 C599 1.268 . S
O606 Sc596 2.105 . S
O606 C600 1.268 . S
O607 Sc594 2.105 . S
O607 C601 1.268 . S
O608 Sc596 2.105 . S
O608 C602 1.268 . S
O609 Sc595 2.105 . S
O609 C603 1.268 1_554 S
O610 Sc594 2.105 . S
O610 C602 1.268 . S
O611 Sc595 2.105 . S
O611 C601 1.268 . S
O612 Sc596 2.105 . S
O612 C603 1.268 1_554 S
O613 Sc594 2.105 . S
O613 C599 1.268 . S
O614 Sc596 2.105 . S
O614 C598 1.268 . S
O615 Sc595 2.105 . S
O615 C600 1.268 . S
Sc616 O619 2.025 . S
Sc616 O626 2.105 . S
Sc616 O629 2.105 . S
Sc616 O632 2.105 . S
Sc616 O635 2.105 . S
Sc617 O619 2.025 . S
Sc617 O627 2.105 . S
Sc617 O631 2.105 . S
Sc617 O633 2.105 . S
Sc617 O637 2.105 . S
Sc618 O619 2.025 . S
Sc618 O628 2.105 . S
Sc618 O630 2.105 . S
Sc618 O634 2.105 . S
Sc618 O636 2.105 . S
O619 Sc616 2.025 . S
O619 Sc617 2.025 . S
O619 Sc618 2.025 . S
C620 O626 1.268 . S
C620 O636 1.268 . S
C621 O627 1.268 . S
C621 O635 1.268 . S
C622 O628 1.268 . S
C622 O637 1.268 . S
C623 O629 1.268 . S
C623 O633 1.268 . S
C624 O630 1.268 . S
C624 O632 1.268 . S
C625 O631 1.268 1_556 S
C625 O634 1.268 1_556 S
O626 Sc616 2.105 . S
O626 C620 1.268 . S
O627 Sc617 2.105 . S
O627 C621 1.268 . S
O628 Sc618 2.105 . S
O628 C622 1.268 . S
O629 Sc616 2.105 . S
O629 C623 1.268 . S
O630 Sc618 2.105 . S
O630 C624 1.268 . S
O631 Sc617 2.105 . S
O631 C625 1.268 1_554 S
O632 Sc616 2.105 . S
O632 C624 1.268 . S
O633 Sc617 2.105 . S
O633 C623 1.268 . S
O634 Sc618 2.105 . S
O634 C625 1.268 1_554 S
O635 Sc616 2.105 . S
O635 C621 1.268 . S
O636 Sc618 2.105 . S
O636 C620 1.268 . S
O637 Sc617 2.105 . S
O637 C622 1.268 . S
Sc638 O641 2.025 . S
Sc638 O648 2.105 . S
Sc638 O651 2.105 . S
Sc638 O654 2.105 . S
Sc638 O657 2.105 . S
Sc639 O641 2.025 . S
Sc639 O649 2.105 . S
Sc639 O653 2.105 . S
Sc639 O655 2.105 . S
Sc639 O659 2.105 . S
Sc640 O641 2.025 . S
Sc640 O650 2.105 . S
Sc640 O652 2.105 . S
Sc640 O656 2.105 . S
Sc640 O658 2.105 . S
O641 Sc638 2.025 . S
O641 Sc639 2.025 . S
O641 Sc640 2.025 . S
C642 O648 1.268 . S
C642 O658 1.268 . S
C643 O649 1.268 . S
C643 O657 1.268 . S
C644 O650 1.268 . S
C644 O659 1.268 . S
C645 O651 1.268 . S
C645 O655 1.268 . S
C646 O652 1.268 . S
C646 O654 1.268 . S
C647 O653 1.268 1_556 S
C647 O656 1.268 1_556 S
O648 Sc638 2.105 . S
O648 C642 1.268 . S
O649 Sc639 2.105 . S
O649 C643 1.268 . S
O650 Sc640 2.105 . S
O650 C644 1.268 . S
O651 Sc638 2.105 . S
O651 C645 1.268 . S
O652 Sc640 2.105 . S
O652 C646 1.268 . S
O653 Sc639 2.105 . S
O653 C647 1.268 1_554 S
O654 Sc638 2.105 . S
O654 C646 1.268 . S
O655 Sc639 2.105 . S
O655 C645 1.268 . S
O656 Sc640 2.105 . S
O656 C647 1.268 1_554 S
O657 Sc638 2.105 . S
O657 C643 1.268 . S
O658 Sc640 2.105 . S
O658 C642 1.268 . S
O659 Sc639 2.105 . S
O659 C644 1.268 . S
Sc660 O663 2.025 . S
Sc660 O670 2.105 . S
Sc660 O673 2.105 . S
Sc660 O676 2.105 . S
Sc660 O679 2.105 . S
Sc661 O663 2.025 . S
Sc661 O671 2.105 . S
Sc661 O675 2.105 . S
Sc661 O677 2.105 . S
Sc661 O681 2.105 . S
Sc662 O663 2.025 . S
Sc662 O672 2.105 . S
Sc662 O674 2.105 . S
Sc662 O678 2.105 . S
Sc662 O680 2.105 . S
O663 Sc660 2.025 . S
O663 Sc661 2.025 . S
O663 Sc662 2.025 . S
C664 O670 1.268 . S
C664 O680 1.268 . S
C665 O671 1.268 . S
C665 O679 1.268 . S
C666 O672 1.268 . S
C666 O681 1.268 . S
C667 O673 1.268 . S
C667 O677 1.268 . S
C668 O674 1.268 . S
C668 O676 1.268 . S
C669 O675 1.268 . S
C669 O678 1.268 . S
O670 Sc660 2.105 . S
O670 C664 1.268 . S
O671 Sc661 2.105 . S
O671 C665 1.268 . S
O672 Sc662 2.105 . S
O672 C666 1.268 . S
O673 Sc660 2.105 . S
O673 C667 1.268 . S
O674 Sc662 2.105 . S
O674 C668 1.268 . S
O675 Sc661 2.105 . S
O675 C669 1.268 . S
O676 Sc660 2.105 . S
O676 C668 1.268 . S
O677 Sc661 2.105 . S
O677 C667 1.268 . S
O678 Sc662 2.105 . S
O678 C669 1.268 . S
O679 Sc660 2.105 . S
O679 C665 1.268 . S
O680 Sc662 2.105 . S
O680 C664 1.268 . S
O681 Sc661 2.105 . S
O681 C666 1.268 . S
Sc682 O685 2.025 . S
Sc682 O692 2.105 . S
Sc682 O695 2.105 . S
Sc682 O698 2.105 . S
Sc682 O701 2.105 . S
Sc683 O685 2.025 . S
Sc683 O693 2.105 . S
Sc683 O697 2.105 . S
Sc683 O699 2.105 . S
Sc683 O703 2.105 . S
Sc684 O685 2.025 . S
Sc684 O694 2.105 . S
Sc684 O696 2.105 . S
Sc684 O700 2.105 . S
Sc684 O702 2.105 . S
O685 Sc682 2.025 . S
O685 Sc683 2.025 . S
O685 Sc684 2.025 . S
C686 O692 1.268 . S
C686 O702 1.268 . S
C687 O693 1.268 . S
C687 O701 1.268 . S
C688 O694 1.268 . S
C688 O703 1.268 . S
C689 O695 1.268 . S
C689 O699 1.268 . S
C690 O696 1.268 . S
C690 O698 1.268 . S
C691 O697 1.268 . S
C691 O700 1.268 . S
O692 Sc682 2.105 . S
O692 C686 1.268 . S
O693 Sc683 2.105 . S
O693 C687 1.268 . S
O694 Sc684 2.105 . S
O694 C688 1.268 . S
O695 Sc682 2.105 . S
O695 C689 1.268 . S
O696 Sc684 2.105 . S
O696 C690 1.268 . S
O697 Sc683 2.105 . S
O697 C691 1.268 . S
O698 Sc682 2.105 . S
O698 C690 1.268 . S
O699 Sc683 2.105 . S
O699 C689 1.268 . S
O700 Sc684 2.105 . S
O700 C691 1.268 . S
O701 Sc682 2.105 . S
O701 C687 1.268 . S
O702 Sc684 2.105 . S
O702 C686 1.268 . S
O703 Sc683 2.105 . S
O703 C688 1.268 . S
Sc704 O707 2.025 . S
Sc704 O714 2.105 . S
Sc704 O717 2.105 . S
Sc704 O720 2.105 . S
Sc704 O723 2.105 . S
Sc705 O707 2.025 . S
Sc705 O715 2.105 . S
Sc705 O719 2.105 . S
Sc705 O721 2.105 . S
Sc705 O725 2.105 . S
Sc706 O707 2.025 . S
Sc706 O716 2.105 . S
Sc706 O718 2.105 . S
Sc706 O722 2.105 . S
Sc706 O724 2.105 . S
O707 Sc704 2.025 . S
O707 Sc705 2.025 . S
O707 Sc706 2.025 . S
C708 O714 1.268 . S
C708 O724 1.268 . S
C709 O715 1.268 . S
C709 O723 1.268 . S
C710 O716 1.268 . S
C710 O725 1.268 . S
C711 O717 1.268 . S
C711 O721 1.268 . S
C712 O718 1.268 . S
C712 O720 1.268 . S
C713 O719 1.268 . S
C713 O722 1.268 . S
O714 Sc704 2.105 . S
O714 C708 1.268 . S
O715 Sc705 2.105 . S
O715 C709 1.268 . S
O716 Sc706 2.105 . S
O716 C710 1.268 . S
O717 Sc704 2.105 . S
O717 C711 1.268 . S
O718 Sc706 2.105 . S
O718 C712 1.268 . S
O719 Sc705 2.105 . S
O719 C713 1.268 . S
O720 Sc704 2.105 . S
O720 C712 1.268 . S
O721 Sc705 2.105 . S
O721 C711 1.268 . S
O722 Sc706 2.105 . S
O722 C713 1.268 . S
O723 Sc704 2.105 . S
O723 C709 1.268 . S
O724 Sc706 2.105 . S
O724 C708 1.268 . S
O725 Sc705 2.105 . S
O725 C710 1.268 . S
Sc726 O729 2.025 . S
Sc726 O736 2.105 . S
Sc726 O739 2.105 . S
Sc726 O742 2.105 . S
Sc726 O745 2.105 . S
Sc727 O729 2.025 . S
Sc727 O737 2.105 . S
Sc727 O741 2.105 . S
Sc727 O743 2.105 . S
Sc727 O747 2.105 . S
Sc728 O729 2.025 . S
Sc728 O738 2.105 . S
Sc728 O740 2.105 . S
Sc728 O744 2.105 . S
Sc728 O746 2.105 . S
O729 Sc726 2.025 . S
O729 Sc727 2.025 . S
O729 Sc728 2.025 . S
C730 O736 1.268 . S
C730 O746 1.268 . S
C731 O737 1.268 . S
C731 O745 1.268 . S
C732 O738 1.268 . S
C732 O747 1.268 . S
C733 O739 1.268 . S
C733 O743 1.268 . S
C734 O740 1.268 . S
C734 O742 1.268 . S
C735 O741 1.268 . S
C735 O744 1.268 . S
O736 Sc726 2.105 . S
O736 C730 1.268 . S
O737 Sc727 2.105 . S
O737 C731 1.268 . S
O738 Sc728 2.105 . S
O738 C732 1.268 . S
O739 Sc726 2.105 . S
O739 C733 1.268 . S
O740 Sc728 2.105 . S
O740 C734 1.268 . S
O741 Sc727 2.105 . S
O741 C735 1.268 . S
O742 Sc726 2.105 . S
O742 C734 1.268 . S
O743 Sc727 2.105 . S
O743 C733 1.268 . S
O744 Sc728 2.105 . S
O744 C735 1.268 . S
O745 Sc726 2.105 . S
O745 C731 1.268 . S
O746 Sc728 2.105 . S
O746 C730 1.268 . S
O747 Sc727 2.105 . S
O747 C732 1.268 . S
Sc748 O751 2.025 . S
Sc748 O758 2.105 . S
Sc748 O761 2.105 . S
Sc748 O764 2.105 . S
Sc748 O767 2.105 . S
Sc749 O751 2.025 . S
Sc749 O759 2.105 . S
Sc749 O763 2.105 . S
Sc749 O765 2.105 . S
Sc749 O769 2.105 . S
Sc750 O751 2.025 . S
Sc750 O760 2.105 . S
Sc750 O762 2.105 . S
Sc750 O766 2.105 . S
Sc750 O768 2.105 . S
O751 Sc748 2.025 . S
O751 Sc749 2.025 . S
O751 Sc750 2.025 . S
C752 O758 1.268 . S
C752 O768 1.268 . S
C753 O759 1.268 . S
C753 O767 1.268 . S
C754 O760 1.268 . S
C754 O769 1.268 . S
C755 O761 1.268 . S
C755 O765 1.268 . S
C756 O762 1.268 . S
C756 O764 1.268 . S
C757 O763 1.268 . S
C757 O766 1.268 . S
O758 Sc748 2.105 . S
O758 C752 1.268 . S
O759 Sc749 2.105 . S
O759 C753 1.268 . S
O760 Sc750 2.105 . S
O760 C754 1.268 . S
O761 Sc748 2.105 . S
O761 C755 1.268 . S
O762 Sc750 2.105 . S
O762 C756 1.268 . S
O763 Sc749 2.105 . S
O763 C757 1.268 . S
O764 Sc748 2.105 . S
O764 C756 1.268 . S
O765 Sc749 2.105 . S
O765 C755 1.268 . S
O766 Sc750 2.105 . S
O766 C757 1.268 . S
O767 Sc748 2.105 . S
O767 C753 1.268 . S
O768 Sc750 2.105 . S
O768 C752 1.268 . S
O769 Sc749 2.105 . S
O769 C754 1.268 . S
Sc770 O773 2.025 . S
Sc770 O780 2.105 . S
Sc770 O783 2.105 . S
Sc770 O786 2.105 . S
Sc770 O789 2.105 . S
Sc771 O773 2.025 . S
Sc771 O781 2.105 . S
Sc771 O785 2.105 . S
Sc771 O787 2.105 . S
Sc771 O791 2.105 . S
Sc772 O773 2.025 . S
Sc772 O782 2.105 . S
Sc772 O784 2.105 . S
Sc772 O788 2.105 . S
Sc772 O790 2.105 . S
O773 Sc770 2.025 . S
O773 Sc771 2.025 . S
O773 Sc772 2.025 . S
C774 O780 1.268 . S
C774 O790 1.268 . S
C775 O781 1.268 . S
C775 O789 1.268 . S
C776 O782 1.268 . S
C776 O791 1.268 . S
C777 O783 1.268 . S
C777 O787 1.268 . S
C778 O784 1.268 . S
C778 O786 1.268 . S
C779 O785 1.268 . S
C779 O788 1.268 . S
O780 Sc770 2.105 . S
O780 C774 1.268 . S
O781 Sc771 2.105 . S
O781 C775 1.268 . S
O782 Sc772 2.105 . S
O782 C776 1.268 . S
O783 Sc770 2.105 . S
O783 C777 1.268 . S
O784 Sc772 2.105 . S
O784 C778 1.268 . S
O785 Sc771 2.105 . S
O785 C779 1.268 . S
O786 Sc770 2.105 . S
O786 C778 1.268 . S
O787 Sc771 2.105 . S
O787 C777 1.268 . S
O788 Sc772 2.105 . S
O788 C779 1.268 . S
O789 Sc770 2.105 . S
O789 C775 1.268 . S
O790 Sc772 2.105 . S
O790 C774 1.268 . S
O791 Sc771 2.105 . S
O791 C776 1.268 . S
H792 C798 0.930 . S
H793 C801 0.930 . S
H794 C802 0.930 . S
H795 C803 0.930 . S
H796 C806 0.930 . S
H797 C807 0.930 . S
C798 H792 0.930 . S
C798 C799 1.355 . S
C798 C800 1.403 1_554 S
C799 C798 1.355 . S
C799 C801 1.419 . S
C800 C798 1.403 1_556 S
C800 C805 1.423 1_556 S
C800 C807 1.423 . S
C801 H793 0.930 . S
C801 C799 1.419 . S
C801 C802 1.362 . S
C802 H794 0.930 . S
C802 C801 1.362 . S
C802 C805 1.409 . S
C803 H795 0.930 . S
C803 C804 1.355 . S
C803 C805 1.415 1_556 S
C804 C803 1.355 . S
C804 C806 1.419 . S
C805 C800 1.423 1_554 S
C805 C802 1.409 . S
C805 C803 1.415 1_554 S
C806 H796 0.930 . S
C806 C804 1.419 . S
C806 C807 1.362 . S
C807 H797 0.930 . S
C807 C800 1.423 . S
C807 C806 1.362 . S
H808 C814 0.930 . S
H809 C817 0.930 . S
H810 C818 0.930 . S
H811 C819 0.930 . S
H812 C822 0.930 1_545 S
H813 C823 0.930 . S
C814 H808 0.930 . S
C814 C815 1.355 . S
C814 C816 1.415 . S
C815 C814 1.355 . S
C815 C817 1.419 . S
C816 C814 1.415 . S
C816 C821 1.425 1_554 S
C816 C823 1.409 . S
C817 H809 0.930 . S
C817 C815 1.419 . S
C817 C818 1.362 1_554 S
C818 H810 0.930 . S
C818 C817 1.362 1_556 S
C818 C821 1.409 . S
C819 H811 0.930 . S
C819 C820 1.355 . S
C819 C821 1.415 . S
C820 C819 1.355 . S
C820 C822 1.419 . S
C821 C816 1.425 1_556 S
C821 C818 1.409 . S
C821 C819 1.415 . S
C822 H812 0.930 1_565 S
C822 C820 1.419 . S
C822 C823 1.362 1_556 S
C823 H813 0.930 . S
C823 C816 1.409 . S
C823 C822 1.362 1_554 S
H824 C830 0.930 . S
H825 C833 0.930 . S
H826 C834 0.930 . S
H827 C835 0.930 . S
H828 C838 0.930 . S
H829 C839 0.930 1_554 S
C830 H824 0.930 . S
C830 C831 1.355 . S
C830 C832 1.415 . S
C831 C830 1.355 . S
C831 C833 1.419 . S
C832 C830 1.415 . S
C832 C837 1.425 1_554 S
C832 C839 1.409 1_554 S
C833 H825 0.930 . S
C833 C831 1.419 . S
C833 C834 1.362 . S
C834 H826 0.930 . S
C834 C833 1.362 . S
C834 C837 1.409 1_554 S
C835 H827 0.930 . S
C835 C836 1.355 . S
C835 C837 1.415 . S
C836 C835 1.355 . S
C836 C838 1.419 . S
C837 C832 1.425 1_556 S
C837 C834 1.409 1_556 S
C837 C835 1.415 . S
C838 H828 0.930 . S
C838 C836 1.419 . S
C838 C839 1.362 . S
C839 H829 0.930 1_556 S
C839 C832 1.409 1_556 S
C839 C838 1.362 . S
H840 C846 0.930 . S
H841 C849 0.930 . S
H842 C850 0.930 . S
H843 C851 0.930 . S
H844 C854 0.930 . S
H845 C855 0.930 . S
C846 H840 0.930 . S
C846 C847 1.355 . S
C846 C848 1.415 . S
C847 C846 1.355 . S
C847 C849 1.419 . S
C848 C846 1.415 . S
C848 C853 1.425 . S
C848 C855 1.409 . S
C849 H841 0.930 . S
C849 C847 1.419 . S
C849 C850 1.362 . S
C850 H842 0.930 . S
C850 C849 1.362 . S
C850 C853 1.409 . S
C851 H843 0.930 . S
C851 C852 1.355 . S
C851 C853 1.415 . S
C852 C851 1.355 . S
C852 C854 1.419 . S
C853 C848 1.425 . S
C853 C850 1.409 . S
C853 C851 1.415 . S
C854 H844 0.930 . S
C854 C852 1.419 . S
C854 C855 1.362 . S
C855 H845 0.930 . S
C855 C848 1.409 . S
C855 C854 1.362 . S
H856 C862 0.930 . S
H857 C865 0.930 . S
H858 C866 0.930 . S
H859 C867 0.930 . S
H860 C870 0.930 . S
H861 C871 0.930 . S
C862 H856 0.930 . S
C862 C863 1.355 . S
C862 C864 1.415 . S
C863 C862 1.355 . S
C863 C865 1.419 . S
C864 C862 1.415 . S
C864 C869 1.425 . S
C864 C871 1.409 . S
C865 H857 0.930 . S
C865 C863 1.419 . S
C865 C866 1.362 . S
C866 H858 0.930 . S
C866 C865 1.362 . S
C866 C869 1.409 . S
C867 H859 0.930 . S
C867 C868 1.355 . S
C867 C869 1.415 . S
C868 C867 1.355 . S
C868 C870 1.419 . S
C869 C864 1.425 . S
C869 C866 1.409 . S
C869 C867 1.415 . S
C870 H860 0.930 . S
C870 C868 1.419 . S
C870 C871 1.362 . S
C871 H861 0.930 . S
C871 C864 1.409 . S
C871 C870 1.362 . S
H872 C878 0.930 . S
H873 C881 0.930 . S
H874 C882 0.930 . S
H875 C883 0.930 . S
H876 C886 0.930 . S
H877 C887 0.930 . S
C878 H872 0.930 . S
C878 C879 1.355 . S
C878 C880 1.415 . S
C879 C878 1.355 . S
C879 C881 1.419 . S
C880 C878 1.415 . S
C880 C885 1.425 . S
C880 C887 1.409 . S
C881 H873 0.930 . S
C881 C879 1.419 . S
C881 C882 1.362 . S
C882 H874 0.930 . S
C882 C881 1.362 . S
C882 C885 1.409 . S
C883 H875 0.930 . S
C883 C884 1.355 . S
C883 C885 1.415 . S
C884 C883 1.355 . S
C884 C886 1.419 . S
C885 C880 1.425 . S
C885 C882 1.409 . S
C885 C883 1.415 . S
C886 H876 0.930 . S
C886 C884 1.419 . S
C886 C887 1.362 . S
C887 H877 0.930 . S
C887 C880 1.409 . S
C887 C886 1.362 . S
H888 C894 0.930 . S
H889 C897 0.930 . S
H890 C898 0.930 1_556 S
H891 C899 0.930 . S
H892 C902 0.930 . S
H893 C903 0.930 . S
C894 H888 0.930 . S
C894 C895 1.355 . S
C894 C896 1.415 . S
C895 C894 1.355 . S
C895 C897 1.419 . S
C896 C894 1.415 . S
C896 C901 1.425 1_554 S
C896 C903 1.409 1_554 S
C897 H889 0.930 . S
C897 C895 1.419 . S
C897 C898 1.362 . S
C898 H890 0.930 1_554 S
C898 C897 1.362 . S
C898 C901 1.409 1_554 S
C899 H891 0.930 . S
C899 C900 1.355 . S
C899 C901 1.415 . S
C900 C899 1.355 . S
C900 C902 1.419 . S
C901 C896 1.425 1_556 S
C901 C898 1.409 1_556 S
C901 C899 1.415 . S
C902 H892 0.930 . S
C902 C900 1.419 . S
C902 C903 1.362 . S
C903 H893 0.930 . S
C903 C896 1.409 1_556 S
C903 C902 1.362 . S
H904 C910 0.930 . S
H905 C913 0.930 . S
H906 C914 0.930 . S
H907 C915 0.930 . S
H908 C918 0.930 . S
H909 C919 0.930 . S
C910 H904 0.930 . S
C910 C911 1.355 . S
C910 C912 1.415 1_556 S
C911 C910 1.355 . S
C911 C913 1.419 . S
C912 C910 1.415 1_554 S
C912 C917 1.425 1_554 S
C912 C919 1.409 . S
C913 H905 0.930 . S
C913 C911 1.419 . S
C913 C914 1.362 . S
C914 H906 0.930 . S
C914 C913 1.362 . S
C914 C917 1.409 . S
C915 H907 0.930 . S
C915 C916 1.355 . S
C915 C917 1.415 1_554 S
C916 C915 1.355 . S
C916 C918 1.419 . S
C917 C912 1.425 1_556 S
C917 C914 1.409 . S
C917 C915 1.415 1_556 S
C918 H908 0.930 . S
C918 C916 1.419 . S
C918 C919 1.362 . S
C919 H909 0.930 . S
C919 C912 1.409 . S
C919 C918 1.362 . S
H920 C926 0.930 . S
H921 C929 0.930 . S
H922 C930 0.930 . S
H923 C931 0.930 . S
H924 C934 0.930 . S
H925 C935 0.930 . S
C926 H920 0.930 . S
C926 C927 1.355 . S
C926 C928 1.415 . S
C927 C926 1.355 . S
C927 C929 1.419 . S
C928 C926 1.415 . S
C928 C933 1.418 1_556 S
C928 C935 1.409 1_556 S
C929 H921 0.930 . S
C929 C927 1.419 . S
C929 C930 1.362 . S
C930 H922 0.930 . S
C930 C929 1.362 . S
C930 C933 1.384 1_556 S
C931 H923 0.930 . S
C931 C932 1.355 . S
C931 C933 1.448 . S
C932 C931 1.355 . S
C932 C934 1.419 . S
C933 C928 1.418 1_554 S
C933 C930 1.384 1_554 S
C933 C931 1.448 . S
C934 H924 0.930 . S
C934 C932 1.419 . S
C934 C935 1.362 . S
C935 H925 0.930 . S
C935 C928 1.409 1_554 S
C935 C934 1.362 . S
H936 C942 0.930 . S
H937 C945 0.930 . S
H938 C946 0.930 . S
H939 C947 0.930 . S
H940 C950 0.930 . S
H941 C951 0.930 . S
C942 H936 0.930 . S
C942 C943 1.355 . S
C942 C944 1.415 . S
C943 C942 1.355 . S
C943 C945 1.419 . S
C944 C942 1.415 . S
C944 C949 1.425 . S
C944 C951 1.409 . S
C945 H937 0.930 . S
C945 C943 1.419 . S
C945 C946 1.362 . S
C946 H938 0.930 . S
C946 C945 1.362 . S
C946 C949 1.409 . S
C947 H939 0.930 . S
C947 C948 1.355 . S
C947 C949 1.415 . S
C948 C947 1.355 . S
C948 C950 1.419 . S
C949 C944 1.425 . S
C949 C946 1.409 . S
C949 C947 1.415 . S
C950 H940 0.930 . S
C950 C948 1.419 . S
C950 C951 1.362 . S
C951 H941 0.930 . S
C951 C944 1.409 . S
C951 C950 1.362 . S
H952 C958 0.930 . S
H953 C961 0.930 . S
H954 C962 0.930 . S
H955 C963 0.930 . S
H956 C966 0.930 1_545 S
H957 C967 0.930 . S
C958 H952 0.930 . S
C958 C959 1.355 . S
C958 C960 1.415 . S
C959 C958 1.355 . S
C959 C961 1.419 . S
C960 C958 1.415 . S
C960 C965 1.425 . S
C960 C967 1.409 . S
C961 H953 0.930 . S
C961 C959 1.419 . S
C961 C962 1.362 . S
C962 H954 0.930 . S
C962 C961 1.362 . S
C962 C965 1.409 . S
C963 H955 0.930 . S
C963 C964 1.355 . S
C963 C965 1.415 . S
C964 C963 1.355 . S
C964 C966 1.419 . S
C965 C960 1.425 . S
C965 C962 1.409 . S
C965 C963 1.415 . S
C966 H956 0.930 1_565 S
C966 C964 1.419 . S
C966 C967 1.362 . S
C967 H957 0.930 . S
C967 C960 1.409 . S
C967 C966 1.362 . S
H968 C974 0.930 . S
H969 C977 0.930 . S
H970 C978 0.930 . S
H971 C979 0.930 . S
H972 C982 0.930 . S
H973 C983 0.930 . S
C974 H968 0.930 . S
C974 C975 1.355 . S
C974 C976 1.415 . S
C975 C974 1.355 . S
C975 C977 1.419 . S
C976 C974 1.415 . S
C976 C981 1.425 . S
C976 C983 1.409 . S
C977 H969 0.930 . S
C977 C975 1.419 . S
C977 C978 1.362 . S
C978 H970 0.930 . S
C978 C977 1.362 . S
C978 C981 1.409 . S
C979 H971 0.930 . S
C979 C980 1.355 . S
C979 C981 1.415 . S
C980 C979 1.355 . S
C980 C982 1.419 . S
C981 C976 1.425 . S
C981 C978 1.409 . S
C981 C979 1.415 . S
C982 H972 0.930 . S
C982 C980 1.419 . S
C982 C983 1.362 . S
C983 H973 0.930 . S
C983 C976 1.409 . S
C983 C982 1.362 . S
H984 C990 0.930 . S
H985 C993 0.930 . S
H986 C994 0.930 . S
H987 C995 0.930 . S
H988 C998 0.930 . S
H989 C999 0.930 . S
C990 H984 0.930 . S
C990 C991 1.355 . S
C990 C992 1.415 . S
C991 C990 1.355 . S
C991 C993 1.419 . S
C992 C990 1.415 . S
C992 C997 1.425 . S
C992 C999 1.409 . S
C993 H985 0.930 . S
C993 C991 1.419 . S
C993 C994 1.362 . S
C994 H986 0.930 . S
C994 C993 1.362 . S
C994 C997 1.409 . S
C995 H987 0.930 . S
C995 C996 1.355 . S
C995 C997 1.415 . S
C996 C995 1.355 . S
C996 C998 1.419 . S
C997 C992 1.425 . S
C997 C994 1.409 . S
C997 C995 1.415 . S
C998 H988 0.930 . S
C998 C996 1.419 . S
C998 C999 1.362 . S
C999 H989 0.930 . S
C999 C992 1.409 . S
C999 C998 1.362 . S
H1000 C1006 0.930 . S
H1001 C1009 0.930 . S
H1002 C1010 0.930 . S
H1003 C1011 0.930 . S
H1004 C1014 0.930 . S
H1005 C1015 0.930 . S
C1006 H1000 0.930 . S
C1006 C1007 1.355 . S
C1006 C1008 1.415 . S
C1007 C1006 1.355 . S
C1007 C1009 1.419 . S
C1008 C1006 1.415 . S
C1008 C1013 1.425 . S
C1008 C1015 1.409 . S
C1009 H1001 0.930 . S
C1009 C1007 1.419 . S
C1009 C1010 1.362 . S
C1010 H1002 0.930 . S
C1010 C1009 1.362 . S
C1010 C1013 1.409 . S
C1011 H1003 0.930 . S
C1011 C1012 1.355 . S
C1011 C1013 1.415 . S
C1012 C1011 1.355 . S
C1012 C1014 1.419 . S
C1013 C1008 1.425 . S
C1013 C1010 1.409 . S
C1013 C1011 1.415 . S
C1014 H1004 0.930 . S
C1014 C1012 1.419 . S
C1014 C1015 1.362 . S
C1015 H1005 0.930 . S
C1015 C1008 1.409 . S
C1015 C1014 1.362 . S
H1016 C1022 0.930 . S
H1017 C1025 0.930 . S
H1018 C1026 0.930 . S
H1019 C1027 0.930 . S
H1020 C1030 0.930 . S
H1021 C1031 0.930 . S
C1022 H1016 0.930 . S
C1022 C1023 1.355 . S
C1022 C1024 1.415 . S
C1023 C1022 1.355 . S
C1023 C1025 1.419 . S
C1024 C1022 1.415 . S
C1024 C1029 1.425 . S
C1024 C1031 1.409 . S
C1025 H1017 0.930 . S
C1025 C1023 1.419 . S
C1025 C1026 1.362 . S
C1026 H1018 0.930 . S
C1026 C1025 1.362 . S
C1026 C1029 1.409 . S
C1027 H1019 0.930 . S
C1027 C1028 1.355 . S
C1027 C1029 1.415 . S
C1028 C1027 1.355 . S
C1028 C1030 1.419 . S
C1029 C1024 1.425 . S
C1029 C1026 1.409 . S
C1029 C1027 1.415 . S
C1030 H1020 0.930 . S
C1030 C1028 1.419 . S
C1030 C1031 1.362 . S
C1031 H1021 0.930 . S
C1031 C1024 1.409 . S
C1031 C1030 1.362 . S
H1032 C1038 0.930 . S
H1033 C1041 0.930 . S
H1034 C1042 0.930 . S
H1035 C1043 0.930 . S
H1036 C1046 0.930 . S
H1037 C1047 0.930 . S
C1038 H1032 0.930 . S
C1038 C1039 1.355 . S
C1038 C1040 1.415 . S
C1039 C1038 1.355 . S
C1039 C1041 1.419 . S
C1040 C1038 1.415 . S
C1040 C1045 1.425 . S
C1040 C1047 1.409 . S
C1041 H1033 0.930 . S
C1041 C1039 1.419 . S
C1041 C1042 1.362 . S
C1042 H1034 0.930 . S
C1042 C1041 1.362 . S
C1042 C1045 1.409 . S
C1043 H1035 0.930 . S
C1043 C1044 1.355 . S
C1043 C1045 1.415 . S
C1044 C1043 1.355 . S
C1044 C1046 1.419 . S
C1045 C1040 1.425 . S
C1045 C1042 1.409 . S
C1045 C1043 1.415 . S
C1046 H1036 0.930 . S
C1046 C1044 1.419 . S
C1046 C1047 1.362 . S
C1047 H1037 0.930 . S
C1047 C1040 1.409 . S
C1047 C1046 1.362 . S
H1048 C1054 0.930 . S
H1049 C1057 0.930 . S
H1050 C1058 0.930 . S
H1051 C1059 0.930 . S
H1052 C1062 0.930 . S
H1053 C1063 0.930 . S
C1054 H1048 0.930 . S
C1054 C1055 1.355 . S
C1054 C1056 1.415 . S
C1055 C1054 1.355 . S
C1055 C1057 1.419 . S
C1056 C1054 1.415 . S
C1056 C1061 1.425 . S
C1056 C1063 1.409 . S
C1057 H1049 0.930 . S
C1057 C1055 1.419 . S
C1057 C1058 1.362 . S
C1058 H1050 0.930 . S
C1058 C1057 1.362 . S
C1058 C1061 1.409 . S
C1059 H1051 0.930 . S
C1059 C1060 1.355 . S
C1059 C1061 1.415 . S
C1060 C1059 1.355 . S
C1060 C1062 1.419 . S
C1061 C1056 1.425 . S
C1061 C1058 1.409 . S
C1061 C1059 1.415 . S
C1062 H1052 0.930 . S
C1062 C1060 1.419 . S
C1062 C1063 1.362 . S
C1063 H1053 0.930 . S
C1063 C1056 1.409 . S
C1063 C1062 1.362 . S
H1064 C1070 0.930 . S
H1065 C1073 0.930 . S
H1066 C1074 0.930 . S
H1067 C1075 0.930 . S
H1068 C1078 0.930 . S
H1069 C1079 0.930 . S
C1070 H1064 0.930 . S
C1070 C1071 1.355 . S
C1070 C1072 1.415 . S
C1071 C1070 1.355 . S
C1071 C1073 1.419 . S
C1072 C1070 1.415 . S
C1072 C1077 1.425 . S
C1072 C1079 1.409 . S
C1073 H1065 0.930 . S
C1073 C1071 1.419 . S
C1073 C1074 1.362 . S
C1074 H1066 0.930 . S
C1074 C1073 1.362 . S
C1074 C1077 1.409 . S
C1075 H1067 0.930 . S
C1075 C1076 1.355 . S
C1075 C1077 1.415 . S
C1076 C1075 1.355 . S
C1076 C1078 1.419 . S
C1077 C1072 1.425 . S
C1077 C1074 1.409 . S
C1077 C1075 1.415 . S
C1078 H1068 0.930 . S
C1078 C1076 1.419 . S
C1078 C1079 1.362 . S
C1079 H1069 0.930 . S
C1079 C1072 1.409 . S
C1079 C1078 1.362 . S
H1080 C1086 0.930 . S
H1081 C1089 0.930 . S
H1082 C1090 0.930 . S
H1083 C1091 0.930 . S
H1084 C1094 0.930 . S
H1085 C1095 0.930 . S
C1086 H1080 0.930 . S
C1086 C1087 1.355 . S
C1086 C1088 1.415 . S
C1087 C1086 1.355 . S
C1087 C1089 1.419 . S
C1088 C1086 1.415 . S
C1088 C1093 1.425 . S
C1088 C1095 1.409 . S
C1089 H1081 0.930 . S
C1089 C1087 1.419 . S
C1089 C1090 1.362 . S
C1090 H1082 0.930 . S
C1090 C1089 1.362 . S
C1090 C1093 1.409 . S
C1091 H1083 0.930 . S
C1091 C1092 1.355 . S
C1091 C1093 1.415 . S
C1092 C1091 1.355 . S
C1092 C1094 1.419 . S
C1093 C1088 1.425 . S
C1093 C1090 1.409 . S
C1093 C1091 1.415 . S
C1094 H1084 0.930 . S
C1094 C1092 1.419 . S
C1094 C1095 1.362 . S
C1095 H1085 0.930 . S
C1095 C1088 1.409 . S
C1095 C1094 1.362 . S
H1096 C1102 0.930 . S
H1097 C1105 0.930 . S
H1098 C1106 0.930 . S
H1099 C1107 0.930 . S
H1100 C1110 0.930 . S
H1101 C1111 0.930 . S
C1102 H1096 0.930 . S
C1102 C1103 1.355 . S
C1102 C1104 1.415 . S
C1103 C1102 1.355 . S
C1103 C1105 1.419 . S
C1104 C1102 1.415 . S
C1104 C1109 1.425 . S
C1104 C1111 1.409 . S
C1105 H1097 0.930 . S
C1105 C1103 1.419 . S
C1105 C1106 1.362 . S
C1106 H1098 0.930 . S
C1106 C1105 1.362 . S
C1106 C1109 1.409 . S
C1107 H1099 0.930 . S
C1107 C1108 1.355 . S
C1107 C1109 1.415 . S
C1108 C1107 1.355 . S
C1108 C1110 1.419 . S
C1109 C1104 1.425 . S
C1109 C1106 1.409 . S
C1109 C1107 1.415 . S
C1110 H1100 0.930 . S
C1110 C1108 1.419 . S
C1110 C1111 1.362 . S
C1111 H1101 0.930 . S
C1111 C1104 1.409 . S
C1111 C1110 1.362 . S
H1112 C1118 0.930 . S
H1113 C1121 0.930 . S
H1114 C1122 0.930 . S
H1115 C1123 0.930 . S
H1116 C1126 0.930 . S
H1117 C1127 0.930 . S
C1118 H1112 0.930 . S
C1118 C1119 1.355 . S
C1118 C1120 1.415 . S
C1119 C1118 1.355 . S
C1119 C1121 1.419 . S
C1120 C1118 1.415 . S
C1120 C1125 1.425 . S
C1120 C1127 1.409 . S
C1121 H1113 0.930 . S
C1121 C1119 1.419 . S
C1121 C1122 1.362 . S
C1122 H1114 0.930 . S
C1122 C1121 1.362 . S
C1122 C1125 1.409 . S
C1123 H1115 0.930 . S
C1123 C1124 1.355 . S
C1123 C1125 1.415 . S
C1124 C1123 1.355 . S
C1124 C1126 1.419 . S
C1125 C1120 1.425 . S
C1125 C1122 1.409 . S
C1125 C1123 1.415 . S
C1126 H1116 0.930 . S
C1126 C1124 1.419 . S
C1126 C1127 1.362 . S
C1127 H1117 0.930 . S
C1127 C1120 1.409 . S
C1127 C1126 1.362 . S
H1128 C1134 0.930 . S
H1129 C1137 0.930 . S
H1130 C1138 0.930 . S
H1131 C1139 0.930 . S
H1132 C1142 0.930 . S
H1133 C1143 0.930 . S
C1134 H1128 0.930 . S
C1134 C1135 1.355 . S
C1134 C1136 1.415 . S
C1135 C1134 1.355 . S
C1135 C1137 1.419 . S
C1136 C1134 1.415 . S
C1136 C1141 1.425 . S
C1136 C1143 1.409 . S
C1137 H1129 0.930 . S
C1137 C1135 1.419 . S
C1137 C1138 1.362 . S
C1138 H1130 0.930 . S
C1138 C1137 1.362 . S
C1138 C1141 1.409 . S
C1139 H1131 0.930 . S
C1139 C1140 1.355 . S
C1139 C1141 1.415 . S
C1140 C1139 1.355 . S
C1140 C1142 1.419 . S
C1141 C1136 1.425 . S
C1141 C1138 1.409 . S
C1141 C1139 1.415 . S
C1142 H1132 0.930 . S
C1142 C1140 1.419 . S
C1142 C1143 1.362 . S
C1143 H1133 0.930 . S
C1143 C1136 1.409 . S
C1143 C1142 1.362 . S
H1144 C1150 0.930 . S
H1145 C1153 0.930 . S
H1146 C1154 0.930 . S
H1147 C1155 0.930 . S
H1148 C1158 0.930 . S
H1149 C1159 0.930 . S
C1150 H1144 0.930 . S
C1150 C1151 1.355 . S
C1150 C1152 1.415 . S
C1151 C1150 1.355 . S
C1151 C1153 1.419 . S
C1152 C1150 1.415 . S
C1152 C1157 1.425 . S
C1152 C1159 1.409 . S
C1153 H1145 0.930 . S
C1153 C1151 1.419 . S
C1153 C1154 1.362 . S
C1154 H1146 0.930 . S
C1154 C1153 1.362 . S
C1154 C1157 1.409 . S
C1155 H1147 0.930 . S
C1155 C1156 1.355 . S
C1155 C1157 1.415 . S
C1156 C1155 1.355 . S
C1156 C1158 1.419 . S
C1157 C1152 1.425 . S
C1157 C1154 1.409 . S
C1157 C1155 1.415 . S
C1158 H1148 0.930 . S
C1158 C1156 1.419 . S
C1158 C1159 1.362 . S
C1159 H1149 0.930 . S
C1159 C1152 1.409 . S
C1159 C1158 1.362 . S
H1160 C1166 0.930 . S
H1161 C1169 0.930 . S
H1162 C1170 0.930 . S
H1163 C1171 0.930 . S
H1164 C1174 0.930 . S
H1165 C1175 0.930 . S
C1166 H1160 0.930 . S
C1166 C1167 1.355 . S
C1166 C1168 1.415 . S
C1167 C1166 1.355 . S
C1167 C1169 1.419 . S
C1168 C1166 1.415 . S
C1168 C1173 1.425 . S
C1168 C1175 1.409 . S
C1169 H1161 0.930 . S
C1169 C1167 1.419 . S
C1169 C1170 1.362 . S
C1170 H1162 0.930 . S
C1170 C1169 1.362 . S
C1170 C1173 1.409 . S
C1171 H1163 0.930 . S
C1171 C1172 1.355 . S
C1171 C1173 1.415 . S
C1172 C1171 1.355 . S
C1172 C1174 1.419 . S
C1173 C1168 1.425 . S
C1173 C1170 1.409 . S
C1173 C1171 1.415 . S
C1174 H1164 0.930 . S
C1174 C1172 1.419 . S
C1174 C1175 1.362 . S
C1175 H1165 0.930 . S
C1175 C1168 1.409 . S
C1175 C1174 1.362 . S
H1176 C1182 0.930 . S
H1177 C1185 0.930 . S
H1178 C1186 0.930 . S
H1179 C1187 0.930 . S
H1180 C1190 0.930 . S
H1181 C1191 0.930 . S
C1182 H1176 0.930 . S
C1182 C1183 1.355 . S
C1182 C1184 1.415 . S
C1183 C1182 1.355 . S
C1183 C1185 1.419 . S
C1184 C1182 1.415 . S
C1184 C1189 1.425 . S
C1184 C1191 1.409 . S
C1185 H1177 0.930 . S
C1185 C1183 1.419 . S
C1185 C1186 1.362 . S
C1186 H1178 0.930 . S
C1186 C1185 1.362 . S
C1186 C1189 1.409 . S
C1187 H1179 0.930 . S
C1187 C1188 1.355 . S
C1187 C1189 1.415 . S
C1188 C1187 1.355 . S
C1188 C1190 1.419 . S
C1189 C1184 1.425 . S
C1189 C1186 1.409 . S
C1189 C1187 1.415 . S
C1190 H1180 0.930 . S
C1190 C1188 1.419 . S
C1190 C1191 1.362 . S
C1191 H1181 0.930 . S
C1191 C1184 1.409 . S
C1191 C1190 1.362 . S
H1192 C1198 0.930 . S
H1193 C1201 0.930 . S
H1194 C1202 0.930 . S
H1195 C1203 0.930 . S
H1196 C1206 0.930 . S
H1197 C1207 0.930 . S
C1198 H1192 0.930 . S
C1198 C1199 1.355 . S
C1198 C1200 1.415 . S
C1199 C1198 1.355 . S
C1199 C1201 1.419 . S
C1200 C1198 1.415 . S
C1200 C1205 1.425 . S
C1200 C1207 1.409 . S
C1201 H1193 0.930 . S
C1201 C1199 1.419 . S
C1201 C1202 1.362 . S
C1202 H1194 0.930 . S
C1202 C1201 1.362 . S
C1202 C1205 1.409 . S
C1203 H1195 0.930 . S
C1203 C1204 1.355 . S
C1203 C1205 1.415 . S
C1204 C1203 1.355 . S
C1204 C1206 1.419 . S
C1205 C1200 1.425 . S
C1205 C1202 1.409 . S
C1205 C1203 1.415 . S
C1206 H1196 0.930 . S
C1206 C1204 1.419 . S
C1206 C1207 1.362 . S
C1207 H1197 0.930 . S
C1207 C1200 1.409 . S
C1207 C1206 1.362 . S
H1208 C1214 0.930 . S
H1209 C1217 0.930 . S
H1210 C1218 0.930 . S
H1211 C1219 0.930 . S
H1212 C1222 0.930 . S
H1213 C1223 0.930 . S
C1214 H1208 0.930 . S
C1214 C1215 1.355 . S
C1214 C1216 1.415 . S
C1215 C1214 1.355 . S
C1215 C1217 1.419 . S
C1216 C1214 1.415 . S
C1216 C1221 1.425 . S
C1216 C1223 1.409 . S
C1217 H1209 0.930 . S
C1217 C1215 1.419 . S
C1217 C1218 1.362 . S
C1218 H1210 0.930 . S
C1218 C1217 1.362 . S
C1218 C1221 1.409 . S
C1219 H1211 0.930 . S
C1219 C1220 1.355 . S
C1219 C1221 1.415 . S
C1220 C1219 1.355 . S
C1220 C1222 1.419 . S
C1221 C1216 1.425 . S
C1221 C1218 1.409 . S
C1221 C1219 1.415 . S
C1222 H1212 0.930 . S
C1222 C1220 1.419 . S
C1222 C1223 1.362 . S
C1223 H1213 0.930 . S
C1223 C1216 1.409 . S
C1223 C1222 1.362 . S
H1224 C1230 0.930 . S
H1225 C1233 0.930 . S
H1226 C1234 0.930 . S
H1227 C1235 0.930 . S
H1228 C1238 0.930 . S
H1229 C1239 0.930 . S
C1230 H1224 0.930 . S
C1230 C1231 1.355 . S
C1230 C1232 1.415 . S
C1231 C1230 1.355 . S
C1231 C1233 1.419 . S
C1232 C1230 1.415 . S
C1232 C1237 1.425 . S
C1232 C1239 1.409 . S
C1233 H1225 0.930 . S
C1233 C1231 1.419 . S
C1233 C1234 1.362 . S
C1234 H1226 0.930 . S
C1234 C1233 1.362 . S
C1234 C1237 1.409 . S
C1235 H1227 0.930 . S
C1235 C1236 1.355 . S
C1235 C1237 1.415 . S
C1236 C1235 1.355 . S
C1236 C1238 1.419 . S
C1237 C1232 1.425 . S
C1237 C1234 1.409 . S
C1237 C1235 1.415 . S
C1238 H1228 0.930 . S
C1238 C1236 1.419 . S
C1238 C1239 1.362 . S
C1239 H1229 0.930 . S
C1239 C1232 1.409 . S
C1239 C1238 1.362 . S
H1240 C1246 0.930 . S
H1241 C1249 0.930 . S
H1242 C1250 0.930 . S
H1243 C1251 0.930 . S
H1244 C1254 0.930 . S
H1245 C1255 0.930 . S
C1246 H1240 0.930 . S
C1246 C1247 1.355 . S
C1246 C1248 1.415 . S
C1247 C1246 1.355 . S
C1247 C1249 1.419 . S
C1248 C1246 1.415 . S
C1248 C1253 1.425 . S
C1248 C1255 1.409 . S
C1249 H1241 0.930 . S
C1249 C1247 1.419 . S
C1249 C1250 1.362 . S
C1250 H1242 0.930 . S
C1250 C1249 1.362 . S
C1250 C1253 1.409 . S
C1251 H1243 0.930 . S
C1251 C1252 1.355 . S
C1251 C1253 1.415 . S
C1252 C1251 1.355 . S
C1252 C1254 1.419 . S
C1253 C1248 1.425 . S
C1253 C1250 1.409 . S
C1253 C1251 1.415 . S
C1254 H1244 0.930 . S
C1254 C1252 1.419 . S
C1254 C1255 1.362 . S
C1255 H1245 0.930 . S
C1255 C1248 1.409 . S
C1255 C1254 1.362 . S
H1256 C1262 0.930 . S
H1257 C1265 0.930 . S
H1258 C1266 0.930 . S
H1259 C1267 0.930 . S
H1260 C1270 0.930 . S
H1261 C1271 0.930 . S
C1262 H1256 0.930 . S
C1262 C1263 1.355 . S
C1262 C1264 1.415 . S
C1263 C1262 1.355 . S
C1263 C1265 1.419 . S
C1264 C1262 1.415 . S
C1264 C1269 1.425 . S
C1264 C1271 1.409 . S
C1265 H1257 0.930 . S
C1265 C1263 1.419 . S
C1265 C1266 1.362 . S
C1266 H1258 0.930 . S
C1266 C1265 1.362 . S
C1266 C1269 1.409 . S
C1267 H1259 0.930 . S
C1267 C1268 1.355 . S
C1267 C1269 1.415 . S
C1268 C1267 1.355 . S
C1268 C1270 1.419 . S
C1269 C1264 1.425 . S
C1269 C1266 1.409 . S
C1269 C1267 1.415 . S
C1270 H1260 0.930 . S
C1270 C1268 1.419 . S
C1270 C1271 1.362 . S
C1271 H1261 0.930 . S
C1271 C1264 1.409 . S
C1271 C1270 1.362 . S
H1272 C1278 0.930 . S
H1273 C1281 0.930 . S
H1274 C1282 0.930 . S
H1275 C1283 0.930 . S
H1276 C1286 0.930 . S
H1277 C1287 0.930 . S
C1278 H1272 0.930 . S
C1278 C1279 1.355 . S
C1278 C1280 1.415 . S
C1279 C1278 1.355 . S
C1279 C1281 1.419 . S
C1280 C1278 1.415 . S
C1280 C1285 1.425 . S
C1280 C1287 1.409 . S
C1281 H1273 0.930 . S
C1281 C1279 1.419 . S
C1281 C1282 1.362 . S
C1282 H1274 0.930 . S
C1282 C1281 1.362 . S
C1282 C1285 1.409 . S
C1283 H1275 0.930 . S
C1283 C1284 1.355 . S
C1283 C1285 1.415 . S
C1284 C1283 1.355 . S
C1284 C1286 1.419 . S
C1285 C1280 1.425 . S
C1285 C1282 1.409 . S
C1285 C1283 1.415 . S
C1286 H1276 0.930 . S
C1286 C1284 1.419 . S
C1286 C1287 1.362 . S
C1287 H1277 0.930 . S
C1287 C1280 1.409 . S
C1287 C1286 1.362 . S
H1288 C1294 0.930 . S
H1289 C1297 0.930 . S
H1290 C1298 0.930 . S
H1291 C1299 0.930 . S
H1292 C1302 0.930 . S
H1293 C1303 0.930 . S
C1294 H1288 0.930 . S
C1294 C1295 1.355 . S
C1294 C1296 1.415 . S
C1295 C1294 1.355 . S
C1295 C1297 1.419 . S
C1296 C1294 1.415 . S
C1296 C1301 1.425 . S
C1296 C1303 1.409 . S
C1297 H1289 0.930 . S
C1297 C1295 1.419 . S
C1297 C1298 1.362 . S
C1298 H1290 0.930 . S
C1298 C1297 1.362 . S
C1298 C1301 1.409 . S
C1299 H1291 0.930 . S
C1299 C1300 1.355 . S
C1299 C1301 1.415 . S
C1300 C1299 1.355 . S
C1300 C1302 1.419 . S
C1301 C1296 1.425 . S
C1301 C1298 1.409 . S
C1301 C1299 1.415 . S
C1302 H1292 0.930 . S
C1302 C1300 1.419 . S
C1302 C1303 1.362 . S
C1303 H1293 0.930 . S
C1303 C1296 1.409 . S
C1303 C1302 1.362 . S
H1304 C1310 0.930 . S
H1305 C1313 0.930 . S
H1306 C1314 0.930 . S
H1307 C1315 0.930 . S
H1308 C1318 0.930 . S
H1309 C1319 0.930 . S
C1310 H1304 0.930 . S
C1310 C1311 1.355 . S
C1310 C1312 1.415 . S
C1311 C1310 1.355 . S
C1311 C1313 1.419 . S
C1312 C1310 1.415 . S
C1312 C1317 1.425 . S
C1312 C1319 1.409 . S
C1313 H1305 0.930 . S
C1313 C1311 1.419 . S
C1313 C1314 1.362 . S
C1314 H1306 0.930 . S
C1314 C1313 1.362 . S
C1314 C1317 1.409 . S
C1315 H1307 0.930 . S
C1315 C1316 1.355 . S
C1315 C1317 1.415 . S
C1316 C1315 1.355 . S
C1316 C1318 1.419 . S
C1317 C1312 1.425 . S
C1317 C1314 1.409 . S
C1317 C1315 1.415 . S
C1318 H1308 0.930 . S
C1318 C1316 1.419 . S
C1318 C1319 1.362 . S
C1319 H1309 0.930 . S
C1319 C1312 1.409 . S
C1319 C1318 1.362 . S
H1320 C1326 0.930 . S
H1321 C1329 0.930 . S
H1322 C1330 0.930 . S
H1323 C1331 0.930 . S
H1324 C1334 0.930 . S
H1325 C1335 0.930 . S
C1326 H1320 0.930 . S
C1326 C1327 1.355 . S
C1326 C1328 1.415 . S
C1327 C1326 1.355 . S
C1327 C1329 1.419 . S
C1328 C1326 1.415 . S
C1328 C1333 1.425 . S
C1328 C1335 1.409 . S
C1329 H1321 0.930 . S
C1329 C1327 1.419 . S
C1329 C1330 1.362 . S
C1330 H1322 0.930 . S
C1330 C1329 1.362 . S
C1330 C1333 1.409 . S
C1331 H1323 0.930 . S
C1331 C1332 1.355 . S
C1331 C1333 1.415 . S
C1332 C1331 1.355 . S
C1332 C1334 1.419 . S
C1333 C1328 1.425 . S
C1333 C1330 1.409 . S
C1333 C1331 1.415 . S
C1334 H1324 0.930 . S
C1334 C1332 1.419 . S
C1334 C1335 1.362 . S
C1335 H1325 0.930 . S
C1335 C1328 1.409 . S
C1335 C1334 1.362 . S
H1336 C1342 0.930 . S
H1337 C1345 0.930 . S
H1338 C1346 0.930 . S
H1339 C1347 0.930 . S
H1340 C1350 0.930 . S
H1341 C1351 0.930 . S
C1342 H1336 0.930 . S
C1342 C1343 1.355 . S
C1342 C1344 1.415 . S
C1343 C1342 1.355 . S
C1343 C1345 1.419 . S
C1344 C1342 1.415 . S
C1344 C1349 1.425 . S
C1344 C1351 1.409 . S
C1345 H1337 0.930 . S
C1345 C1343 1.419 . S
C1345 C1346 1.362 . S
C1346 H1338 0.930 . S
C1346 C1345 1.362 . S
C1346 C1349 1.409 . S
C1347 H1339 0.930 . S
C1347 C1348 1.355 . S
C1347 C1349 1.415 . S
C1348 C1347 1.355 . S
C1348 C1350 1.419 . S
C1349 C1344 1.425 . S
C1349 C1346 1.409 . S
C1349 C1347 1.415 . S
C1350 H1340 0.930 . S
C1350 C1348 1.419 . S
C1350 C1351 1.362 . S
C1351 H1341 0.930 . S
C1351 C1344 1.409 . S
C1351 C1350 1.362 . S
H1352 C1358 0.930 . S
H1353 C1361 0.930 . S
H1354 C1362 0.930 . S
H1355 C1363 0.930 . S
H1356 C1366 0.930 . S
H1357 C1367 0.930 . S
C1358 H1352 0.930 . S
C1358 C1359 1.355 . S
C1358 C1360 1.415 . S
C1359 C1358 1.355 . S
C1359 C1361 1.419 . S
C1360 C1358 1.415 . S
C1360 C1365 1.425 . S
C1360 C1367 1.409 . S
C1361 H1353 0.930 . S
C1361 C1359 1.419 . S
C1361 C1362 1.362 . S
C1362 H1354 0.930 . S
C1362 C1361 1.362 . S
C1362 C1365 1.409 . S
C1363 H1355 0.930 . S
C1363 C1364 1.355 . S
C1363 C1365 1.415 . S
C1364 C1363 1.355 . S
C1364 C1366 1.419 . S
C1365 C1360 1.425 . S
C1365 C1362 1.409 . S
C1365 C1363 1.415 . S
C1366 H1356 0.930 . S
C1366 C1364 1.419 . S
C1366 C1367 1.362 . S
C1367 H1357 0.930 . S
C1367 C1360 1.409 . S
C1367 C1366 1.362 . S
H1368 C1374 0.930 . S
H1369 C1377 0.930 . S
H1370 C1378 0.930 . S
H1371 C1379 0.930 . S
H1372 C1382 0.930 . S
H1373 C1383 0.930 . S
C1374 H1368 0.930 . S
C1374 C1375 1.355 . S
C1374 C1376 1.415 . S
C1375 C1374 1.355 . S
C1375 C1377 1.419 . S
C1376 C1374 1.415 . S
C1376 C1381 1.425 . S
C1376 C1383 1.409 . S
C1377 H1369 0.930 . S
C1377 C1375 1.419 . S
C1377 C1378 1.362 . S
C1378 H1370 0.930 . S
C1378 C1377 1.362 . S
C1378 C1381 1.409 . S
C1379 H1371 0.930 . S
C1379 C1380 1.355 . S
C1379 C1381 1.415 . S
C1380 C1379 1.355 . S
C1380 C1382 1.419 . S
C1381 C1376 1.425 . S
C1381 C1378 1.409 . S
C1381 C1379 1.415 . S
C1382 H1372 0.930 . S
C1382 C1380 1.419 . S
C1382 C1383 1.362 . S
C1383 H1373 0.930 . S
C1383 C1376 1.409 . S
C1383 C1382 1.362 . S
H1384 C1390 0.930 . S
H1385 C1393 0.930 . S
H1386 C1394 0.930 . S
H1387 C1395 0.930 . S
H1388 C1398 0.930 . S
H1389 C1399 0.930 . S
C1390 H1384 0.930 . S
C1390 C1391 1.355 . S
C1390 C1392 1.415 1_565 S
C1391 C1390 1.355 . S
C1391 C1393 1.419 . S
C1392 C1390 1.415 1_545 S
C1392 C1397 1.425 . S
C1392 C1399 1.409 . S
C1393 H1385 0.930 . S
C1393 C1391 1.419 . S
C1393 C1394 1.362 1_565 S
C1394 H1386 0.930 . S
C1394 C1393 1.362 1_545 S
C1394 C1397 1.409 . S
C1395 H1387 0.930 . S
C1395 C1396 1.355 . S
C1395 C1397 1.415 . S
C1396 C1395 1.355 . S
C1396 C1398 1.419 . S
C1397 C1392 1.425 . S
C1397 C1394 1.409 . S
C1397 C1395 1.415 . S
C1398 H1388 0.930 . S
C1398 C1396 1.419 . S
C1398 C1399 1.362 . S
C1399 H1389 0.930 . S
C1399 C1392 1.409 . S
C1399 C1398 1.362 . S
H1400 C1406 0.930 . S
H1401 C1409 0.930 . S
H1402 C1410 0.930 . S
H1403 C1411 0.930 . S
H1404 C1414 0.930 . S
H1405 C1415 0.930 . S
C1406 H1400 0.930 . S
C1406 C1407 1.355 . S
C1406 C1408 1.415 . S
C1407 C1406 1.355 . S
C1407 C1409 1.419 . S
C1408 C1406 1.415 . S
C1408 C1413 1.425 . S
C1408 C1415 1.409 . S
C1409 H1401 0.930 . S
C1409 C1407 1.419 . S
C1409 C1410 1.362 . S
C1410 H1402 0.930 . S
C1410 C1409 1.362 . S
C1410 C1413 1.409 . S
C1411 H1403 0.930 . S
C1411 C1412 1.355 . S
C1411 C1413 1.415 1_455 S
C1412 C1411 1.355 . S
C1412 C1414 1.419 . S
C1413 C1408 1.425 . S
C1413 C1410 1.409 . S
C1413 C1411 1.415 1_655 S
C1414 H1404 0.930 . S
C1414 C1412 1.419 . S
C1414 C1415 1.362 1_455 S
C1415 H1405 0.930 . S
C1415 C1408 1.409 . S
C1415 C1414 1.362 1_655 S
H1416 C1422 0.930 . S
H1417 C1425 0.930 . S
H1418 C1426 0.930 . S
H1419 C1427 0.930 . S
H1420 C1430 0.930 . S
H1421 C1431 0.930 . S
C1422 H1416 0.930 . S
C1422 C1423 1.355 . S
C1422 C1424 1.415 . S
C1423 C1422 1.355 . S
C1423 C1425 1.419 . S
C1424 C1422 1.415 . S
C1424 C1429 1.425 . S
C1424 C1431 1.409 . S
C1425 H1417 0.930 . S
C1425 C1423 1.419 . S
C1425 C1426 1.362 . S
C1426 H1418 0.930 . S
C1426 C1425 1.362 . S
C1426 C1429 1.409 . S
C1427 H1419 0.930 . S
C1427 C1428 1.355 . S
C1427 C1429 1.415 . S
C1428 C1427 1.355 . S
C1428 C1430 1.419 . S
C1429 C1424 1.425 . S
C1429 C1426 1.409 . S
C1429 C1427 1.415 . S
C1430 H1420 0.930 . S
C1430 C1428 1.419 . S
C1430 C1431 1.362 . S
C1431 H1421 0.930 . S
C1431 C1424 1.409 . S
C1431 C1430 1.362 . S
H1432 C1438 0.930 . S
H1433 C1441 0.930 . S
H1434 C1442 0.930 . S
H1435 C1443 0.930 . S
H1436 C1446 0.930 . S
H1437 C1447 0.930 . S
C1438 H1432 0.930 . S
C1438 C1439 1.355 . S
C1438 C1440 1.415 1_545 S
C1439 C1438 1.355 . S
C1439 C1441 1.419 . S
C1440 C1438 1.415 1_565 S
C1440 C1445 1.425 . S
C1440 C1447 1.409 . S
C1441 H1433 0.930 . S
C1441 C1439 1.419 . S
C1441 C1442 1.362 1_545 S
C1442 H1434 0.930 . S
C1442 C1441 1.362 1_565 S
C1442 C1445 1.409 . S
C1443 H1435 0.930 . S
C1443 C1444 1.355 . S
C1443 C1445 1.415 . S
C1444 C1443 1.355 . S
C1444 C1446 1.419 . S
C1445 C1440 1.425 . S
C1445 C1442 1.409 . S
C1445 C1443 1.415 . S
C1446 H1436 0.930 . S
C1446 C1444 1.419 . S
C1446 C1447 1.362 . S
C1447 H1437 0.930 . S
C1447 C1440 1.409 . S
C1447 C1446 1.362 . S
H1448 C1454 0.930 . S
H1449 C1457 0.930 . S
H1450 C1458 0.930 . S
H1451 C1459 0.930 . S
H1452 C1462 0.930 . S
H1453 C1463 0.930 . S
C1454 H1448 0.930 . S
C1454 C1455 1.355 . S
C1454 C1456 1.415 . S
C1455 C1454 1.355 . S
C1455 C1457 1.419 . S
C1456 C1454 1.415 . S
C1456 C1461 1.425 . S
C1456 C1463 1.409 . S
C1457 H1449 0.930 . S
C1457 C1455 1.419 . S
C1457 C1458 1.362 . S
C1458 H1450 0.930 . S
C1458 C1457 1.362 . S
C1458 C1461 1.409 . S
C1459 H1451 0.930 . S
C1459 C1460 1.355 . S
C1459 C1461 1.415 1_655 S
C1460 C1459 1.355 . S
C1460 C1462 1.419 . S
C1461 C1456 1.425 . S
C1461 C1458 1.409 . S
C1461 C1459 1.415 1_455 S
C1462 H1452 0.930 . S
C1462 C1460 1.419 . S
C1462 C1463 1.362 1_655 S
C1463 H1453 0.930 . S
C1463 C1456 1.409 . S
C1463 C1462 1.362 1_455 S
H1464 C1470 0.930 . S
H1465 C1473 0.930 . S
H1466 C1474 0.930 . S
H1467 C1475 0.930 . S
H1468 C1478 0.930 . S
H1469 C1479 0.930 . S
C1470 H1464 0.930 . S
C1470 C1471 1.355 . S
C1470 C1472 1.415 . S
C1471 C1470 1.355 . S
C1471 C1473 1.419 . S
C1472 C1470 1.415 . S
C1472 C1477 1.425 . S
C1472 C1479 1.409 . S
C1473 H1465 0.930 . S
C1473 C1471 1.419 . S
C1473 C1474 1.362 . S
C1474 H1466 0.930 . S
C1474 C1473 1.362 . S
C1474 C1477 1.409 . S
C1475 H1467 0.930 . S
C1475 C1476 1.355 . S
C1475 C1477 1.415 . S
C1476 C1475 1.355 . S
C1476 C1478 1.419 . S
C1477 C1472 1.425 . S
C1477 C1474 1.409 . S
C1477 C1475 1.415 . S
C1478 H1468 0.930 . S
C1478 C1476 1.419 . S
C1478 C1479 1.362 . S
C1479 H1469 0.930 . S
C1479 C1472 1.409 . S
C1479 C1478 1.362 . S
H1480 C1486 0.930 . S
H1481 C1489 0.930 . S
H1482 C1490 0.930 . S
H1483 C1491 0.930 . S
H1484 C1494 0.930 . S
H1485 C1495 0.930 . S
C1486 H1480 0.930 . S
C1486 C1487 1.355 . S
C1486 C1488 1.415 1_545 S
C1487 C1486 1.355 . S
C1487 C1489 1.419 . S
C1488 C1486 1.415 1_565 S
C1488 C1493 1.425 . S
C1488 C1495 1.409 . S
C1489 H1481 0.930 . S
C1489 C1487 1.419 . S
C1489 C1490 1.362 1_545 S
C1490 H1482 0.930 . S
C1490 C1489 1.362 1_565 S
C1490 C1493 1.409 . S
C1491 H1483 0.930 . S
C1491 C1492 1.355 . S
C1491 C1493 1.415 . S
C1492 C1491 1.355 . S
C1492 C1494 1.419 . S
C1493 C1488 1.425 . S
C1493 C1490 1.409 . S
C1493 C1491 1.415 . S
C1494 H1484 0.930 . S
C1494 C1492 1.419 . S
C1494 C1495 1.362 . S
C1495 H1485 0.930 . S
C1495 C1488 1.409 . S
C1495 C1494 1.362 . S
H1496 C1502 0.930 . S
H1497 C1505 0.930 . S
H1498 C1506 0.930 . S
H1499 C1507 0.930 . S
H1500 C1510 0.930 . S
H1501 C1511 0.930 . S
C1502 H1496 0.930 . S
C1502 C1503 1.355 . S
C1502 C1504 1.415 1_655 S
C1503 C1502 1.355 . S
C1503 C1505 1.419 . S
C1504 C1502 1.415 1_455 S
C1504 C1509 1.425 . S
C1504 C1511 1.409 . S
C1505 H1497 0.930 . S
C1505 C1503 1.419 . S
C1505 C1506 1.362 1_655 S
C1506 H1498 0.930 . S
C1506 C1505 1.362 1_455 S
C1506 C1509 1.409 . S
C1507 H1499 0.930 . S
C1507 C1508 1.355 . S
C1507 C1509 1.415 . S
C1508 C1507 1.355 . S
C1508 C1510 1.419 . S
C1509 C1504 1.425 . S
C1509 C1506 1.409 . S
C1509 C1507 1.415 . S
C1510 H1500 0.930 . S
C1510 C1508 1.419 . S
C1510 C1511 1.362 . S
C1511 H1501 0.930 . S
C1511 C1504 1.409 . S
C1511 C1510 1.362 . S
H1512 C1518 0.930 . S
H1513 C1521 0.930 . S
H1514 C1522 0.930 . S
H1515 C1523 0.930 . S
H1516 C1526 0.930 . S
H1517 C1527 0.930 . S
C1518 H1512 0.930 . S
C1518 C1519 1.355 . S
C1518 C1520 1.415 . S
C1519 C1518 1.355 . S
C1519 C1521 1.419 . S
C1520 C1518 1.415 . S
C1520 C1525 1.425 . S
C1520 C1527 1.409 . S
C1521 H1513 0.930 . S
C1521 C1519 1.419 . S
C1521 C1522 1.362 . S
C1522 H1514 0.930 . S
C1522 C1521 1.362 . S
C1522 C1525 1.409 . S
C1523 H1515 0.930 . S
C1523 C1524 1.355 . S
C1523 C1525 1.415 . S
C1524 C1523 1.355 . S
C1524 C1526 1.419 . S
C1525 C1520 1.425 . S
C1525 C1522 1.409 . S
C1525 C1523 1.415 . S
C1526 H1516 0.930 . S
C1526 C1524 1.419 . S
C1526 C1527 1.362 . S
C1527 H1517 0.930 . S
C1527 C1520 1.409 . S
C1527 C1526 1.362 . S
H1528 C1534 0.930 . S
H1529 C1537 0.930 . S
H1530 C1538 0.930 . S
H1531 C1539 0.930 . S
H1532 C1542 0.930 . S
H1533 C1543 0.930 . S
C1534 H1528 0.930 . S
C1534 C1535 1.355 . S
C1534 C1536 1.415 1_565 S
C1535 C1534 1.355 . S
C1535 C1537 1.419 . S
C1536 C1534 1.415 1_545 S
C1536 C1541 1.425 . S
C1536 C1543 1.409 . S
C1537 H1529 0.930 . S
C1537 C1535 1.419 . S
C1537 C1538 1.362 1_565 S
C1538 H1530 0.930 . S
C1538 C1537 1.362 1_545 S
C1538 C1541 1.409 . S
C1539 H1531 0.930 . S
C1539 C1540 1.355 . S
C1539 C1541 1.415 . S
C1540 C1539 1.355 . S
C1540 C1542 1.419 . S
C1541 C1536 1.425 . S
C1541 C1538 1.409 . S
C1541 C1539 1.415 . S
C1542 H1532 0.930 . S
C1542 C1540 1.419 . S
C1542 C1543 1.362 . S
C1543 H1533 0.930 . S
C1543 C1536 1.409 . S
C1543 C1542 1.362 . S
H1544 C1550 0.930 . S
H1545 C1553 0.930 . S
H1546 C1554 0.930 . S
H1547 C1555 0.930 . S
H1548 C1558 0.930 . S
H1549 C1559 0.930 . S
C1550 H1544 0.930 . S
C1550 C1551 1.355 . S
C1550 C1552 1.415 . S
C1551 C1550 1.355 . S
C1551 C1553 1.419 . S
C1552 C1550 1.415 . S
C1552 C1557 1.425 . S
C1552 C1559 1.409 . S
C1553 H1545 0.930 . S
C1553 C1551 1.419 . S
C1553 C1554 1.362 . S
C1554 H1546 0.930 . S
C1554 C1553 1.362 . S
C1554 C1557 1.409 . S
C1555 H1547 0.930 . S
C1555 C1556 1.355 . S
C1555 C1557 1.415 1_455 S
C1556 C1555 1.355 . S
C1556 C1558 1.419 . S
C1557 C1552 1.425 . S
C1557 C1554 1.409 . S
C1557 C1555 1.415 1_655 S
C1558 H1548 0.930 . S
C1558 C1556 1.419 . S
C1558 C1559 1.362 1_455 S
C1559 H1549 0.930 . S
C1559 C1552 1.409 . S
C1559 C1558 1.362 1_655 S
H1560 C1566 0.930 . S
H1561 C1569 0.930 . S
H1562 C1570 0.930 . S
H1563 C1571 0.930 . S
H1564 C1574 0.930 . S
H1565 C1575 0.930 . S
C1566 H1560 0.930 . S
C1566 C1567 1.355 . S
C1566 C1568 1.415 . S
C1567 C1566 1.355 . S
C1567 C1569 1.419 . S
C1568 C1566 1.415 . S
C1568 C1573 1.425 . S
C1568 C1575 1.409 . S
C1569 H1561 0.930 . S
C1569 C1567 1.419 . S
C1569 C1570 1.362 . S
C1570 H1562 0.930 . S
C1570 C1569 1.362 . S
C1570 C1573 1.409 . S
C1571 H1563 0.930 . S
C1571 C1572 1.355 . S
C1571 C1573 1.415 . S
C1572 C1571 1.355 . S
C1572 C1574 1.419 . S
C1573 C1568 1.425 . S
C1573 C1570 1.409 . S
C1573 C1571 1.415 . S
C1574 H1564 0.930 . S
C1574 C1572 1.419 . S
C1574 C1575 1.362 . S
C1575 H1565 0.930 . S
C1575 C1568 1.409 . S
C1575 C1574 1.362 . S
H1576 C1582 0.930 . S
H1577 C1585 0.930 . S
H1578 C1586 0.930 . S
H1579 C1587 0.930 . S
H1580 C1590 0.930 . S
H1581 C1591 0.930 . S
C1582 H1576 0.930 . S
C1582 C1583 1.355 . S
C1582 C1584 1.415 . S
C1583 C1582 1.355 . S
C1583 C1585 1.419 . S
C1584 C1582 1.415 . S
C1584 C1589 1.425 . S
C1584 C1591 1.409 . S
C1585 H1577 0.930 . S
C1585 C1583 1.419 . S
C1585 C1586 1.362 . S
C1586 H1578 0.930 . S
C1586 C1585 1.362 . S
C1586 C1589 1.409 . S
C1587 H1579 0.930 . S
C1587 C1588 1.355 . S
C1587 C1589 1.415 . S
C1588 C1587 1.355 . S
C1588 C1590 1.419 . S
C1589 C1584 1.425 . S
C1589 C1586 1.409 . S
C1589 C1587 1.415 . S
C1590 H1580 0.930 . S
C1590 C1588 1.419 . S
C1590 C1591 1.362 . S
C1591 H1581 0.930 . S
C1591 C1584 1.409 . S
C1591 C1590 1.362 . S
H1592 C1598 0.930 . S
H1593 C1601 0.930 . S
H1594 C1602 0.930 . S
H1595 C1603 0.930 . S
H1596 C1606 0.930 . S
H1597 C1607 0.930 . S
C1598 H1592 0.930 . S
C1598 C1599 1.355 . S
C1598 C1600 1.415 . S
C1599 C1598 1.355 . S
C1599 C1601 1.419 . S
C1600 C1598 1.415 . S
C1600 C1605 1.425 . S
C1600 C1607 1.409 . S
C1601 H1593 0.930 . S
C1601 C1599 1.419 . S
C1601 C1602 1.362 . S
C1602 H1594 0.930 . S
C1602 C1601 1.362 . S
C1602 C1605 1.409 . S
C1603 H1595 0.930 . S
C1603 C1604 1.355 . S
C1603 C1605 1.415 . S
C1604 C1603 1.355 . S
C1604 C1606 1.419 . S
C1605 C1600 1.425 . S
C1605 C1602 1.409 . S
C1605 C1603 1.415 . S
C1606 H1596 0.930 . S
C1606 C1604 1.419 . S
C1606 C1607 1.362 . S
C1607 H1597 0.930 . S
C1607 C1600 1.409 . S
C1607 C1606 1.362 . S
H1608 C1614 0.930 . S
H1609 C1617 0.930 . S
H1610 C1618 0.930 . S
H1611 C1619 0.930 . S
H1612 C1622 0.930 . S
H1613 C1623 0.930 . S
C1614 H1608 0.930 . S
C1614 C1615 1.355 . S
C1614 C1616 1.415 . S
C1615 C1614 1.355 . S
C1615 C1617 1.419 . S
C1616 C1614 1.415 . S
C1616 C1621 1.425 . S
C1616 C1623 1.409 . S
C1617 H1609 0.930 . S
C1617 C1615 1.419 . S
C1617 C1618 1.362 . S
C1618 H1610 0.930 . S
C1618 C1617 1.362 . S
C1618 C1621 1.409 . S
C1619 H1611 0.930 . S
C1619 C1620 1.355 . S
C1619 C1621 1.415 . S
C1620 C1619 1.355 . S
C1620 C1622 1.419 . S
C1621 C1616 1.425 . S
C1621 C1618 1.409 . S
C1621 C1619 1.415 . S
C1622 H1612 0.930 . S
C1622 C1620 1.419 . S
C1622 C1623 1.362 . S
C1623 H1613 0.930 . S
C1623 C1616 1.409 . S
C1623 C1622 1.362 . S
H1624 C1630 0.930 . S
H1625 C1633 0.930 . S
H1626 C1634 0.930 . S
H1627 C1635 0.930 . S
H1628 C1638 0.930 . S
H1629 C1639 0.930 . S
C1630 H1624 0.930 . S
C1630 C1631 1.355 . S
C1630 C1632 1.415 . S
C1631 C1630 1.355 . S
C1631 C1633 1.419 . S
C1632 C1630 1.415 . S
C1632 C1637 1.425 . S
C1632 C1639 1.409 . S
C1633 H1625 0.930 . S
C1633 C1631 1.419 . S
C1633 C1634 1.362 . S
C1634 H1626 0.930 . S
C1634 C1633 1.362 . S
C1634 C1637 1.409 . S
C1635 H1627 0.930 . S
C1635 C1636 1.355 . S
C1635 C1637 1.415 . S
C1636 C1635 1.355 . S
C1636 C1638 1.419 . S
C1637 C1632 1.425 . S
C1637 C1634 1.409 . S
C1637 C1635 1.415 . S
C1638 H1628 0.930 . S
C1638 C1636 1.419 . S
C1638 C1639 1.362 . S
C1639 H1629 0.930 . S
C1639 C1632 1.409 . S
C1639 C1638 1.362 . S
H1640 C1646 0.930 . S
H1641 C1649 0.930 . S
H1642 C1650 0.930 . S
H1643 C1651 0.930 . S
H1644 C1654 0.930 . S
H1645 C1655 0.930 . S
C1646 H1640 0.930 . S
C1646 C1647 1.355 . S
C1646 C1648 1.415 . S
C1647 C1646 1.355 . S
C1647 C1649 1.419 . S
C1648 C1646 1.415 . S
C1648 C1653 1.425 . S
C1648 C1655 1.409 . S
C1649 H1641 0.930 . S
C1649 C1647 1.419 . S
C1649 C1650 1.362 . S
C1650 H1642 0.930 . S
C1650 C1649 1.362 . S
C1650 C1653 1.409 . S
C1651 H1643 0.930 . S
C1651 C1652 1.355 . S
C1651 C1653 1.415 . S
C1652 C1651 1.355 . S
C1652 C1654 1.419 . S
C1653 C1648 1.425 . S
C1653 C1650 1.409 . S
C1653 C1651 1.415 . S
C1654 H1644 0.930 . S
C1654 C1652 1.419 . S
C1654 C1655 1.362 . S
C1655 H1645 0.930 . S
C1655 C1648 1.409 . S
C1655 C1654 1.362 . S
H1656 C1662 0.930 . S
H1657 C1665 0.930 . S
H1658 C1666 0.930 . S
H1659 C1667 0.930 . S
H1660 C1670 0.930 . S
H1661 C1671 0.930 . S
C1662 H1656 0.930 . S
C1662 C1663 1.355 . S
C1662 C1664 1.415 . S
C1663 C1662 1.355 . S
C1663 C1665 1.419 . S
C1664 C1662 1.415 . S
C1664 C1669 1.425 . S
C1664 C1671 1.409 . S
C1665 H1657 0.930 . S
C1665 C1663 1.419 . S
C1665 C1666 1.362 . S
C1666 H1658 0.930 . S
C1666 C1665 1.362 . S
C1666 C1669 1.409 . S
C1667 H1659 0.930 . S
C1667 C1668 1.355 . S
C1667 C1669 1.415 . S
C1668 C1667 1.355 . S
C1668 C1670 1.419 . S
C1669 C1664 1.425 . S
C1669 C1666 1.409 . S
C1669 C1667 1.415 . S
C1670 H1660 0.930 . S
C1670 C1668 1.419 . S
C1670 C1671 1.362 . S
C1671 H1661 0.930 . S
C1671 C1664 1.409 . S
C1671 C1670 1.362 . S
H1672 C1678 0.930 . S
H1673 C1681 0.930 . S
H1674 C1682 0.930 . S
H1675 C1683 0.930 . S
H1676 C1686 0.930 . S
H1677 C1687 0.930 . S
C1678 H1672 0.930 . S
C1678 C1679 1.355 . S
C1678 C1680 1.415 . S
C1679 C1678 1.355 . S
C1679 C1681 1.419 . S
C1680 C1678 1.415 . S
C1680 C1685 1.425 . S
C1680 C1687 1.409 . S
C1681 H1673 0.930 . S
C1681 C1679 1.419 . S
C1681 C1682 1.362 . S
C1682 H1674 0.930 . S
C1682 C1681 1.362 . S
C1682 C1685 1.409 . S
C1683 H1675 0.930 . S
C1683 C1684 1.355 . S
C1683 C1685 1.415 . S
C1684 C1683 1.355 . S
C1684 C1686 1.419 . S
C1685 C1680 1.425 . S
C1685 C1682 1.409 . S
C1685 C1683 1.415 . S
C1686 H1676 0.930 . S
C1686 C1684 1.419 . S
C1686 C1687 1.362 . S
C1687 H1677 0.930 . S
C1687 C1680 1.409 . S
C1687 C1686 1.362 . S
H1688 C1694 0.930 . S
H1689 C1697 0.930 . S
H1690 C1698 0.930 . S
H1691 C1699 0.930 . S
H1692 C1702 0.930 . S
H1693 C1703 0.930 . S
C1694 H1688 0.930 . S
C1694 C1695 1.355 . S
C1694 C1696 1.415 . S
C1695 C1694 1.355 . S
C1695 C1697 1.419 . S
C1696 C1694 1.415 . S
C1696 C1701 1.425 . S
C1696 C1703 1.409 . S
C1697 H1689 0.930 . S
C1697 C1695 1.419 . S
C1697 C1698 1.362 . S
C1698 H1690 0.930 . S
C1698 C1697 1.362 . S
C1698 C1701 1.409 . S
C1699 H1691 0.930 . S
C1699 C1700 1.355 . S
C1699 C1701 1.415 . S
C1700 C1699 1.355 . S
C1700 C1702 1.419 . S
C1701 C1696 1.425 . S
C1701 C1698 1.409 . S
C1701 C1699 1.415 . S
C1702 H1692 0.930 . S
C1702 C1700 1.419 . S
C1702 C1703 1.362 . S
C1703 H1693 0.930 . S
C1703 C1696 1.409 . S
C1703 C1702 1.362 . S
H1704 C1710 0.930 . S
H1705 C1713 0.930 . S
H1706 C1714 0.930 . S
H1707 C1715 0.930 . S
H1708 C1718 0.930 . S
H1709 C1719 0.930 . S
C1710 H1704 0.930 . S
C1710 C1711 1.355 . S
C1710 C1712 1.415 . S
C1711 C1710 1.355 . S
C1711 C1713 1.419 . S
C1712 C1710 1.415 . S
C1712 C1717 1.425 . S
C1712 C1719 1.409 . S
C1713 H1705 0.930 . S
C1713 C1711 1.419 . S
C1713 C1714 1.362 . S
C1714 H1706 0.930 . S
C1714 C1713 1.362 . S
C1714 C1717 1.409 . S
C1715 H1707 0.930 . S
C1715 C1716 1.355 . S
C1715 C1717 1.415 . S
C1716 C1715 1.355 . S
C1716 C1718 1.419 . S
C1717 C1712 1.425 . S
C1717 C1714 1.409 . S
C1717 C1715 1.415 . S
C1718 H1708 0.930 . S
C1718 C1716 1.419 . S
C1718 C1719 1.362 . S
C1719 H1709 0.930 . S
C1719 C1712 1.409 . S
C1719 C1718 1.362 . S
H1720 C1726 0.930 . S
H1721 C1729 0.930 1_554 S
H1722 C1730 0.968 . S
H1723 C1731 0.930 1_554 S
H1724 C1734 0.930 . S
H1725 C1735 0.930 . S
C1726 H1720 0.930 . S
C1726 C1727 1.355 . S
C1726 C1728 1.415 . S
C1727 C1726 1.355 . S
C1727 C1729 1.419 . S
C1728 C1726 1.415 . S
C1728 C1733 1.425 . S
C1728 C1735 1.409 . S
C1729 H1721 0.930 1_556 S
C1729 C1727 1.419 . S
C1729 C1730 1.357 1_556 S
C1730 H1722 0.968 . S
C1730 C1729 1.357 1_554 S
C1730 C1733 1.379 1_554 S
C1731 H1723 0.930 1_556 S
C1731 C1732 1.355 . S
C1731 C1733 1.415 . S
C1732 C1731 1.355 . S
C1732 C1734 1.419 . S
C1733 C1728 1.425 . S
C1733 C1730 1.379 1_556 S
C1733 C1731 1.415 . S
C1734 H1724 0.930 . S
C1734 C1732 1.419 . S
C1734 C1735 1.362 . S
C1735 H1725 0.930 . S
C1735 C1728 1.409 . S
C1735 C1734 1.362 . S
H1736 C1742 0.930 . S
H1737 C1745 0.930 . S
H1738 C1746 0.930 . S
H1739 C1747 0.930 . S
H1740 C1750 0.930 . S
H1741 C1751 0.930 . S
C1742 H1736 0.930 . S
C1742 C1743 1.355 . S
C1742 C1744 1.415 . S
C1743 C1742 1.355 . S
C1743 C1745 1.419 . S
C1744 C1742 1.415 . S
C1744 C1749 1.425 . S
C1744 C1751 1.409 . S
C1745 H1737 0.930 . S
C1745 C1743 1.419 . S
C1745 C1746 1.362 . S
C1746 H1738 0.930 . S
C1746 C1745 1.362 . S
C1746 C1749 1.409 . S
C1747 H1739 0.930 . S
C1747 C1748 1.355 . S
C1747 C1749 1.415 . S
C1748 C1747 1.355 . S
C1748 C1750 1.419 . S
C1749 C1744 1.425 . S
C1749 C1746 1.409 . S
C1749 C1747 1.415 . S
C1750 H1740 0.930 . S
C1750 C1748 1.419 . S
C1750 C1751 1.362 . S
C1751 H1741 0.930 . S
C1751 C1744 1.409 . S
C1751 C1750 1.362 . S
H1752 C1758 0.930 . S
H1753 C1761 0.930 . S
H1754 C1762 0.930 . S
H1755 C1763 0.930 . S
H1756 C1766 0.930 . S
H1757 C1767 0.930 . S
C1758 H1752 0.930 . S
C1758 C1759 1.355 . S
C1758 C1760 1.415 . S
C1759 C1758 1.355 . S
C1759 C1761 1.419 . S
C1760 C1758 1.415 . S
C1760 C1765 1.425 . S
C1760 C1767 1.409 . S
C1761 H1753 0.930 . S
C1761 C1759 1.419 . S
C1761 C1762 1.362 . S
C1762 H1754 0.930 . S
C1762 C1761 1.362 . S
C1762 C1765 1.409 . S
C1763 H1755 0.930 . S
C1763 C1764 1.355 . S
C1763 C1765 1.415 . S
C1764 C1763 1.355 . S
C1764 C1766 1.419 . S
C1765 C1760 1.425 . S
C1765 C1762 1.409 . S
C1765 C1763 1.415 . S
C1766 H1756 0.930 . S
C1766 C1764 1.419 . S
C1766 C1767 1.362 . S
C1767 H1757 0.930 . S
C1767 C1760 1.409 . S
C1767 C1766 1.362 . S
H1768 C1774 0.930 . S
H1769 C1777 0.930 . S
H1770 C1778 0.930 . S
H1771 C1779 0.930 . S
H1772 C1782 0.930 . S
H1773 C1783 0.930 . S
C1774 H1768 0.930 . S
C1774 C1775 1.355 . S
C1774 C1776 1.415 . S
C1775 C1774 1.355 . S
C1775 C1777 1.419 . S
C1776 C1774 1.415 . S
C1776 C1781 1.425 . S
C1776 C1783 1.409 . S
C1777 H1769 0.930 . S
C1777 C1775 1.419 . S
C1777 C1778 1.362 . S
C1778 H1770 0.930 . S
C1778 C1777 1.362 . S
C1778 C1781 1.409 . S
C1779 H1771 0.930 . S
C1779 C1780 1.355 . S
C1779 C1781 1.415 . S
C1780 C1779 1.355 . S
C1780 C1782 1.419 . S
C1781 C1776 1.425 . S
C1781 C1778 1.409 . S
C1781 C1779 1.415 . S
C1782 H1772 0.930 . S
C1782 C1780 1.419 . S
C1782 C1783 1.362 . S
C1783 H1773 0.930 . S
C1783 C1776 1.409 . S
C1783 C1782 1.362 . S
H1784 C1790 0.930 . S
H1785 C1793 0.930 . S
H1786 C1794 0.930 . S
H1787 C1795 0.930 . S
H1788 C1798 0.930 . S
H1789 C1799 0.930 . S
C1790 H1784 0.930 . S
C1790 C1791 1.355 . S
C1790 C1792 1.415 . S
C1791 C1790 1.355 . S
C1791 C1793 1.419 . S
C1792 C1790 1.415 . S
C1792 C1797 1.425 . S
C1792 C1799 1.409 . S
C1793 H1785 0.930 . S
C1793 C1791 1.419 . S
C1793 C1794 1.362 . S
C1794 H1786 0.930 . S
C1794 C1793 1.362 . S
C1794 C1797 1.409 . S
C1795 H1787 0.930 . S
C1795 C1796 1.355 . S
C1795 C1797 1.415 . S
C1796 C1795 1.355 . S
C1796 C1798 1.419 . S
C1797 C1792 1.425 . S
C1797 C1794 1.409 . S
C1797 C1795 1.415 . S
C1798 H1788 0.930 . S
C1798 C1796 1.419 . S
C1798 C1799 1.362 . S
C1799 H1789 0.930 . S
C1799 C1792 1.409 . S
C1799 C1798 1.362 . S
H1800 C1806 0.930 . S
H1801 C1809 0.930 . S
H1802 C1810 0.930 1_556 S
H1803 C1811 0.930 . S
H1804 C1814 0.930 . S
H1805 C1815 0.930 . S
C1806 H1800 0.930 . S
C1806 C1807 1.355 . S
C1806 C1808 1.415 . S
C1807 C1806 1.355 . S
C1807 C1809 1.419 . S
C1808 C1806 1.415 . S
C1808 C1813 1.425 . S
C1808 C1815 1.409 . S
C1809 H1801 0.930 . S
C1809 C1807 1.419 . S
C1809 C1810 1.362 . S
C1810 H1802 0.930 1_554 S
C1810 C1809 1.362 . S
C1810 C1813 1.409 . S
C1811 H1803 0.930 . S
C1811 C1812 1.355 . S
C1811 C1813 1.415 . S
C1812 C1811 1.355 . S
C1812 C1814 1.419 . S
C1813 C1808 1.425 . S
C1813 C1810 1.409 . S
C1813 C1811 1.415 . S
C1814 H1804 0.930 . S
C1814 C1812 1.419 . S
C1814 C1815 1.362 . S
C1815 H1805 0.930 . S
C1815 C1808 1.409 . S
C1815 C1814 1.362 . S
H1816 C1822 0.930 . S
H1817 C1825 0.930 . S
H1818 C1826 0.930 . S
H1819 C1827 0.930 . S
H1820 C1830 0.930 . S
H1821 C1831 0.930 . S
C1822 H1816 0.930 . S
C1822 C1823 1.355 . S
C1822 C1824 1.415 . S
C1823 C1822 1.355 . S
C1823 C1825 1.419 . S
C1824 C1822 1.415 . S
C1824 C1829 1.425 . S
C1824 C1831 1.409 . S
C1825 H1817 0.930 . S
C1825 C1823 1.419 . S
C1825 C1826 1.362 . S
C1826 H1818 0.930 . S
C1826 C1825 1.362 . S
C1826 C1829 1.409 . S
C1827 H1819 0.930 . S
C1827 C1828 1.355 . S
C1827 C1829 1.415 . S
C1828 C1827 1.355 . S
C1828 C1830 1.419 . S
C1829 C1824 1.425 . S
C1829 C1826 1.409 . S
C1829 C1827 1.415 . S
C1830 H1820 0.930 . S
C1830 C1828 1.419 . S
C1830 C1831 1.362 . S
C1831 H1821 0.930 . S
C1831 C1824 1.409 . S
C1831 C1830 1.362 . S
H1832 C1838 0.930 . S
H1833 C1841 0.930 . S
H1834 C1842 0.930 . S
H1835 C1843 0.930 . S
H1836 C1846 0.930 . S
H1837 C1847 0.930 . S
C1838 H1832 0.930 . S
C1838 C1839 1.355 . S
C1838 C1840 1.415 . S
C1839 C1838 1.355 . S
C1839 C1841 1.419 . S
C1840 C1838 1.415 . S
C1840 C1845 1.425 . S
C1840 C1847 1.409 . S
C1841 H1833 0.930 . S
C1841 C1839 1.419 . S
C1841 C1842 1.362 . S
C1842 H1834 0.930 . S
C1842 C1841 1.362 . S
C1842 C1845 1.409 . S
C1843 H1835 0.930 . S
C1843 C1844 1.355 . S
C1843 C1845 1.415 . S
C1844 C1843 1.355 . S
C1844 C1846 1.419 . S
C1845 C1840 1.425 . S
C1845 C1842 1.409 . S
C1845 C1843 1.415 . S
C1846 H1836 0.930 . S
C1846 C1844 1.419 . S
C1846 C1847 1.362 . S
C1847 H1837 0.930 . S
C1847 C1840 1.409 . S
C1847 C1846 1.362 . S
H1848 C1854 0.930 . S
H1849 C1857 0.930 . S
H1850 C1858 0.930 . S
H1851 C1859 0.930 . S
H1852 C1862 0.930 . S
H1853 C1863 0.930 . S
C1854 H1848 0.930 . S
C1854 C1855 1.355 . S
C1854 C1856 1.415 . S
C1855 C1854 1.355 . S
C1855 C1857 1.419 . S
C1856 C1854 1.415 . S
C1856 C1861 1.425 . S
C1856 C1863 1.409 . S
C1857 H1849 0.930 . S
C1857 C1855 1.419 . S
C1857 C1858 1.362 . S
C1858 H1850 0.930 . S
C1858 C1857 1.362 . S
C1858 C1861 1.409 . S
C1859 H1851 0.930 . S
C1859 C1860 1.355 . S
C1859 C1861 1.415 . S
C1860 C1859 1.355 . S
C1860 C1862 1.419 . S
C1861 C1856 1.425 . S
C1861 C1858 1.409 . S
C1861 C1859 1.415 . S
C1862 H1852 0.930 . S
C1862 C1860 1.419 . S
C1862 C1863 1.362 . S
C1863 H1853 0.930 . S
C1863 C1856 1.409 . S
C1863 C1862 1.362 . S
H1864 C1870 0.930 . S
H1865 C1873 0.930 . S
H1866 C1874 0.930 . S
H1867 C1875 0.930 . S
H1868 C1878 0.930 . S
H1869 C1879 0.930 . S
C1870 H1864 0.930 . S
C1870 C1871 1.355 . S
C1870 C1872 1.415 . S
C1871 C1870 1.355 . S
C1871 C1873 1.419 . S
C1872 C1870 1.415 . S
C1872 C1877 1.425 . S
C1872 C1879 1.409 . S
C1873 H1865 0.930 . S
C1873 C1871 1.419 . S
C1873 C1874 1.362 . S
C1874 H1866 0.930 . S
C1874 C1873 1.362 . S
C1874 C1877 1.409 . S
C1875 H1867 0.930 . S
C1875 C1876 1.355 . S
C1875 C1877 1.415 . S
C1876 C1875 1.355 . S
C1876 C1878 1.419 . S
C1877 C1872 1.425 . S
C1877 C1874 1.409 . S
C1877 C1875 1.415 . S
C1878 H1868 0.930 . S
C1878 C1876 1.419 . S
C1878 C1879 1.362 . S
C1879 H1869 0.930 . S
C1879 C1872 1.409 . S
C1879 C1878 1.362 . S
H1880 C1886 0.930 . S
H1881 C1889 0.930 . S
H1882 C1890 0.930 . S
H1883 C1891 0.930 . S
H1884 C1894 0.930 . S
H1885 C1895 0.930 . S
C1886 H1880 0.930 . S
C1886 C1887 1.355 . S
C1886 C1888 1.415 . S
C1887 C1886 1.355 . S
C1887 C1889 1.419 . S
C1888 C1886 1.415 . S
C1888 C1893 1.425 . S
C1888 C1895 1.409 . S
C1889 H1881 0.930 . S
C1889 C1887 1.419 . S
C1889 C1890 1.362 . S
C1890 H1882 0.930 . S
C1890 C1889 1.362 . S
C1890 C1893 1.409 . S
C1891 H1883 0.930 . S
C1891 C1892 1.355 . S
C1891 C1893 1.415 . S
C1892 C1891 1.355 . S
C1892 C1894 1.419 . S
C1893 C1888 1.425 . S
C1893 C1890 1.409 . S
C1893 C1891 1.415 . S
C1894 H1884 0.930 . S
C1894 C1892 1.419 . S
C1894 C1895 1.362 . S
C1895 H1885 0.930 . S
C1895 C1888 1.409 . S
C1895 C1894 1.362 . S
H1896 C1902 0.930 . S
H1897 C1905 0.930 . S
H1898 C1906 0.930 . S
H1899 C1907 0.930 . S
H1900 C1910 0.930 . S
H1901 C1911 0.930 . S
C1902 H1896 0.930 . S
C1902 C1903 1.355 . S
C1902 C1904 1.415 . S
C1903 C1902 1.355 . S
C1903 C1905 1.419 . S
C1904 C1902 1.415 . S
C1904 C1909 1.425 . S
C1904 C1911 1.409 . S
C1905 H1897 0.930 . S
C1905 C1903 1.419 . S
C1905 C1906 1.362 . S
C1906 H1898 0.930 . S
C1906 C1905 1.362 . S
C1906 C1909 1.409 . S
C1907 H1899 0.930 . S
C1907 C1908 1.355 . S
C1907 C1909 1.415 . S
C1908 C1907 1.355 . S
C1908 C1910 1.419 . S
C1909 C1904 1.425 . S
C1909 C1906 1.409 . S
C1909 C1907 1.415 . S
C1910 H1900 0.930 . S
C1910 C1908 1.419 . S
C1910 C1911 1.362 . S
C1911 H1901 0.930 . S
C1911 C1904 1.409 . S
C1911 C1910 1.362 . S
H1912 C1918 0.930 . S
H1913 C1921 0.930 . S
H1914 C1922 0.930 . S
H1915 C1923 0.930 . S
H1916 C1926 0.930 . S
H1917 C1927 0.930 . S
C1918 H1912 0.930 . S
C1918 C1919 1.355 . S
C1918 C1920 1.415 . S
C1919 C1918 1.355 . S
C1919 C1921 1.419 . S
C1920 C1918 1.415 . S
C1920 C1925 1.425 . S
C1920 C1927 1.409 . S
C1921 H1913 0.930 . S
C1921 C1919 1.419 . S
C1921 C1922 1.362 . S
C1922 H1914 0.930 . S
C1922 C1921 1.362 . S
C1922 C1925 1.409 . S
C1923 H1915 0.930 . S
C1923 C1924 1.355 . S
C1923 C1925 1.415 . S
C1924 C1923 1.355 . S
C1924 C1926 1.419 . S
C1925 C1920 1.425 . S
C1925 C1922 1.409 . S
C1925 C1923 1.415 . S
C1926 H1916 0.930 . S
C1926 C1924 1.419 . S
C1926 C1927 1.362 . S
C1927 H1917 0.930 . S
C1927 C1920 1.409 . S
C1927 C1926 1.362 . S
H1928 C1934 0.930 . S
H1929 C1937 0.930 . S
H1930 C1938 0.930 . S
H1931 C1939 0.930 . S
H1932 C1942 0.930 . S
H1933 C1943 0.930 . S
C1934 H1928 0.930 . S
C1934 C1935 1.355 . S
C1934 C1936 1.415 . S
C1935 C1934 1.355 . S
C1935 C1937 1.419 . S
C1936 C1934 1.415 . S
C1936 C1941 1.425 . S
C1936 C1943 1.409 . S
C1937 H1929 0.930 . S
C1937 C1935 1.419 . S
C1937 C1938 1.362 . S
C1938 H1930 0.930 . S
C1938 C1937 1.362 . S
C1938 C1941 1.409 . S
C1939 H1931 0.930 . S
C1939 C1940 1.355 . S
C1939 C1941 1.415 . S
C1940 C1939 1.355 . S
C1940 C1942 1.419 . S
C1941 C1936 1.425 . S
C1941 C1938 1.409 . S
C1941 C1939 1.415 . S
C1942 H1932 0.930 . S
C1942 C1940 1.419 . S
C1942 C1943 1.362 . S
C1943 H1933 0.930 . S
C1943 C1936 1.409 . S
C1943 C1942 1.362 . S
H1944 C1950 0.930 . S
H1945 C1953 0.930 . S
H1946 C1954 0.930 . S
H1947 C1955 0.930 . S
H1948 C1958 0.930 . S
H1949 C1959 0.930 . S
C1950 H1944 0.930 . S
C1950 C1951 1.355 . S
C1950 C1952 1.415 . S
C1951 C1950 1.355 . S
C1951 C1953 1.419 1_655 S
C1952 C1950 1.415 . S
C1952 C1957 1.425 1_655 S
C1952 C1959 1.409 . S
C1953 H1945 0.930 . S
C1953 C1951 1.419 1_455 S
C1953 C1954 1.362 . S
C1954 H1946 0.930 . S
C1954 C1953 1.362 . S
C1954 C1957 1.409 . S
C1955 H1947 0.930 . S
C1955 C1956 1.355 . S
C1955 C1957 1.415 . S
C1956 C1955 1.355 . S
C1956 C1958 1.419 1_455 S
C1957 C1952 1.425 1_455 S
C1957 C1954 1.409 . S
C1957 C1955 1.415 . S
C1958 H1948 0.930 . S
C1958 C1956 1.419 1_655 S
C1958 C1959 1.362 . S
C1959 H1949 0.930 . S
C1959 C1952 1.409 . S
C1959 C1958 1.362 . S
H1960 C1966 0.930 . S
H1961 C1969 0.930 . S
H1962 C1970 0.930 . S
H1963 C1971 0.930 . S
H1964 C1974 0.930 . S
H1965 C1975 0.930 . S
C1966 H1960 0.930 . S
C1966 C1967 1.355 . S
C1966 C1968 1.415 . S
C1967 C1966 1.355 . S
C1967 C1969 1.419 . S
C1968 C1966 1.415 . S
C1968 C1973 1.425 . S
C1968 C1975 1.409 . S
C1969 H1961 0.930 . S
C1969 C1967 1.419 . S
C1969 C1970 1.362 . S
C1970 H1962 0.930 . S
C1970 C1969 1.362 . S
C1970 C1973 1.409 . S
C1971 H1963 0.930 . S
C1971 C1972 1.355 . S
C1971 C1973 1.415 . S
C1972 C1971 1.355 . S
C1972 C1974 1.419 . S
C1973 C1968 1.425 . S
C1973 C1970 1.409 . S
C1973 C1971 1.415 . S
C1974 H1964 0.930 . S
C1974 C1972 1.419 . S
C1974 C1975 1.362 . S
C1975 H1965 0.930 . S
C1975 C1968 1.409 . S
C1975 C1974 1.362 . S
H1976 C1982 0.930 . S
H1977 C1985 0.930 . S
H1978 C1986 0.930 . S
H1979 C1987 0.930 . S
H1980 C1990 0.930 . S
H1981 C1991 0.930 . S
C1982 H1976 0.930 . S
C1982 C1983 1.355 1_565 S
C1982 C1984 1.415 . S
C1983 C1982 1.355 1_545 S
C1983 C1985 1.419 . S
C1984 C1982 1.415 . S
C1984 C1989 1.425 1_565 S
C1984 C1991 1.409 . S
C1985 H1977 0.930 . S
C1985 C1983 1.419 . S
C1985 C1986 1.362 . S
C1986 H1978 0.930 . S
C1986 C1985 1.362 . S
C1986 C1989 1.409 . S
C1987 H1979 0.930 . S
C1987 C1988 1.355 1_545 S
C1987 C1989 1.415 . S
C1988 C1987 1.355 1_565 S
C1988 C1990 1.419 . S
C1989 C1984 1.425 1_545 S
C1989 C1986 1.409 . S
C1989 C1987 1.415 . S
C1990 H1980 0.930 . S
C1990 C1988 1.419 . S
C1990 C1991 1.362 . S
C1991 H1981 0.930 . S
C1991 C1984 1.409 . S
C1991 C1990 1.362 . S
H1992 C1998 0.930 . S
H1993 C2001 0.930 . S
H1994 C2002 0.930 . S
H1995 C2003 0.930 . S
H1996 C2006 0.930 . S
H1997 C2007 0.930 . S
C1998 H1992 0.930 . S
C1998 C1999 1.355 1_655 S
C1998 C2000 1.415 . S
C1999 C1998 1.355 1_455 S
C1999 C2001 1.419 . S
C2000 C1998 1.415 . S
C2000 C2005 1.425 1_655 S
C2000 C2007 1.409 . S
C2001 H1993 0.930 . S
C2001 C1999 1.419 . S
C2001 C2002 1.362 . S
C2002 H1994 0.930 . S
C2002 C2001 1.362 . S
C2002 C2005 1.409 . S
C2003 H1995 0.930 . S
C2003 C2004 1.355 1_455 S
C2003 C2005 1.415 . S
C2004 C2003 1.355 1_655 S
C2004 C2006 1.419 . S
C2005 C2000 1.425 1_455 S
C2005 C2002 1.409 . S
C2005 C2003 1.415 . S
C2006 H1996 0.930 . S
C2006 C2004 1.419 . S
C2006 C2007 1.362 . S
C2007 H1997 0.930 . S
C2007 C2000 1.409 . S
C2007 C2006 1.362 . S
H2008 C2014 0.930 . S
H2009 C2017 0.930 . S
H2010 C2018 0.930 . S
H2011 C2019 0.930 . S
H2012 C2022 0.930 . S
H2013 C2023 0.930 . S
C2014 H2008 0.930 . S
C2014 C2015 1.355 . S
C2014 C2016 1.415 . S
C2015 C2014 1.355 . S
C2015 C2017 1.419 . S
C2016 C2014 1.415 . S
C2016 C2021 1.425 . S
C2016 C2023 1.409 . S
C2017 H2009 0.930 . S
C2017 C2015 1.419 . S
C2017 C2018 1.362 . S
C2018 H2010 0.930 . S
C2018 C2017 1.362 . S
C2018 C2021 1.409 . S
C2019 H2011 0.930 . S
C2019 C2020 1.355 . S
C2019 C2021 1.415 . S
C2020 C2019 1.355 . S
C2020 C2022 1.419 . S
C2021 C2016 1.425 . S
C2021 C2018 1.409 . S
C2021 C2019 1.415 . S
C2022 H2012 0.930 . S
C2022 C2020 1.419 . S
C2022 C2023 1.362 . S
C2023 H2013 0.930 . S
C2023 C2016 1.409 . S
C2023 C2022 1.362 . S
H2024 C2030 0.930 . S
H2025 C2033 0.930 . S
H2026 C2034 0.930 . S
H2027 C2035 0.930 . S
H2028 C2038 0.930 . S
H2029 C2039 0.930 . S
C2030 H2024 0.930 . S
C2030 C2031 1.355 1_565 S
C2030 C2032 1.415 . S
C2031 C2030 1.355 1_545 S
C2031 C2033 1.419 . S
C2032 C2030 1.415 . S
C2032 C2037 1.425 1_565 S
C2032 C2039 1.409 . S
C2033 H2025 0.930 . S
C2033 C2031 1.419 . S
C2033 C2034 1.362 . S
C2034 H2026 0.930 . S
C2034 C2033 1.362 . S
C2034 C2037 1.409 . S
C2035 H2027 0.930 . S
C2035 C2036 1.355 1_545 S
C2035 C2037 1.415 . S
C2036 C2035 1.355 1_565 S
C2036 C2038 1.419 . S
C2037 C2032 1.425 1_545 S
C2037 C2034 1.409 . S
C2037 C2035 1.415 . S
C2038 H2028 0.930 . S
C2038 C2036 1.419 . S
C2038 C2039 1.362 . S
C2039 H2029 0.930 . S
C2039 C2032 1.409 . S
C2039 C2038 1.362 . S
H2040 C2046 0.930 . S
H2041 C2049 0.930 . S
H2042 C2050 0.930 . S
H2043 C2051 0.930 . S
H2044 C2054 0.930 . S
H2045 C2055 0.930 . S
C2046 H2040 0.930 . S
C2046 C2047 1.355 . S
C2046 C2048 1.415 . S
C2047 C2046 1.355 . S
C2047 C2049 1.419 . S
C2048 C2046 1.415 . S
C2048 C2053 1.425 . S
C2048 C2055 1.409 . S
C2049 H2041 0.930 . S
C2049 C2047 1.419 . S
C2049 C2050 1.362 . S
C2050 H2042 0.930 . S
C2050 C2049 1.362 . S
C2050 C2053 1.409 . S
C2051 H2043 0.930 . S
C2051 C2052 1.355 . S
C2051 C2053 1.415 . S
C2052 C2051 1.355 . S
C2052 C2054 1.419 . S
C2053 C2048 1.425 . S
C2053 C2050 1.409 . S
C2053 C2051 1.415 . S
C2054 H2044 0.930 . S
C2054 C2052 1.419 . S
C2054 C2055 1.362 . S
C2055 H2045 0.930 . S
C2055 C2048 1.409 . S
C2055 C2054 1.362 . S
H2056 C2062 0.930 . S
H2057 C2065 0.930 . S
H2058 C2066 0.930 . S
H2059 C2067 0.930 . S
H2060 C2070 0.930 . S
H2061 C2071 0.930 . S
C2062 H2056 0.930 . S
C2062 C2063 1.355 . S
C2062 C2064 1.415 . S
C2063 C2062 1.355 . S
C2063 C2065 1.419 . S
C2064 C2062 1.415 . S
C2064 C2069 1.425 . S
C2064 C2071 1.409 . S
C2065 H2057 0.930 . S
C2065 C2063 1.419 . S
C2065 C2066 1.362 . S
C2066 H2058 0.930 . S
C2066 C2065 1.362 . S
C2066 C2069 1.409 . S
C2067 H2059 0.930 . S
C2067 C2068 1.355 . S
C2067 C2069 1.415 . S
C2068 C2067 1.355 . S
C2068 C2070 1.419 . S
C2069 C2064 1.425 . S
C2069 C2066 1.409 . S
C2069 C2067 1.415 . S
C2070 H2060 0.930 . S
C2070 C2068 1.419 . S
C2070 C2071 1.362 . S
C2071 H2061 0.930 . S
C2071 C2064 1.409 . S
C2071 C2070 1.362 . S
H2072 C2078 0.930 . S
H2073 C2081 0.930 . S
H2074 C2082 0.930 . S
H2075 C2083 0.930 . S
H2076 C2086 0.930 . S
H2077 C2087 0.930 . S
C2078 H2072 0.930 . S
C2078 C2079 1.355 . S
C2078 C2080 1.415 . S
C2079 C2078 1.355 . S
C2079 C2081 1.419 . S
C2080 C2078 1.415 . S
C2080 C2085 1.425 . S
C2080 C2087 1.409 . S
C2081 H2073 0.930 . S
C2081 C2079 1.419 . S
C2081 C2082 1.362 . S
C2082 H2074 0.930 . S
C2082 C2081 1.362 . S
C2082 C2085 1.409 . S
C2083 H2075 0.930 . S
C2083 C2084 1.355 . S
C2083 C2085 1.415 . S
C2084 C2083 1.355 . S
C2084 C2086 1.419 . S
C2085 C2080 1.425 . S
C2085 C2082 1.409 . S
C2085 C2083 1.415 . S
C2086 H2076 0.930 . S
C2086 C2084 1.419 . S
C2086 C2087 1.362 . S
C2087 H2077 0.930 . S
C2087 C2080 1.409 . S
C2087 C2086 1.362 . S
H2088 C2094 0.930 . S
H2089 C2097 0.930 . S
H2090 C2098 0.930 . S
H2091 C2099 0.930 . S
H2092 C2102 0.930 . S
H2093 C2103 0.930 . S
C2094 H2088 0.930 . S
C2094 C2095 1.355 . S
C2094 C2096 1.415 . S
C2095 C2094 1.355 . S
C2095 C2097 1.419 . S
C2096 C2094 1.415 . S
C2096 C2101 1.425 . S
C2096 C2103 1.409 . S
C2097 H2089 0.930 . S
C2097 C2095 1.419 . S
C2097 C2098 1.362 . S
C2098 H2090 0.930 . S
C2098 C2097 1.362 . S
C2098 C2101 1.409 . S
C2099 H2091 0.930 . S
C2099 C2100 1.355 . S
C2099 C2101 1.415 . S
C2100 C2099 1.355 . S
C2100 C2102 1.419 . S
C2101 C2096 1.425 . S
C2101 C2098 1.409 . S
C2101 C2099 1.415 . S
C2102 H2092 0.930 . S
C2102 C2100 1.419 . S
C2102 C2103 1.362 . S
C2103 H2093 0.930 . S
C2103 C2096 1.409 . S
C2103 C2102 1.362 . S
H2104 C2110 0.930 . S
H2105 C2113 0.930 . S
H2106 C2114 0.930 . S
H2107 C2115 0.930 . S
H2108 C2118 0.930 . S
H2109 C2119 0.930 . S
C2110 H2104 0.930 . S
C2110 C2111 1.355 . S
C2110 C2112 1.415 . S
C2111 C2110 1.355 . S
C2111 C2113 1.419 . S
C2112 C2110 1.415 . S
C2112 C2117 1.425 . S
C2112 C2119 1.409 . S
C2113 H2105 0.930 . S
C2113 C2111 1.419 . S
C2113 C2114 1.362 . S
C2114 H2106 0.930 . S
C2114 C2113 1.362 . S
C2114 C2117 1.409 . S
C2115 H2107 0.930 . S
C2115 C2116 1.355 . S
C2115 C2117 1.415 . S
C2116 C2115 1.355 . S
C2116 C2118 1.419 . S
C2117 C2112 1.425 . S
C2117 C2114 1.409 . S
C2117 C2115 1.415 . S
C2118 H2108 0.930 . S
C2118 C2116 1.419 . S
C2118 C2119 1.362 . S
C2119 H2109 0.930 . S
C2119 C2112 1.409 . S
C2119 C2118 1.362 . S
H2120 C2126 0.930 . S
H2121 C2129 0.930 . S
H2122 C2130 0.930 . S
H2123 C2131 0.930 . S
H2124 C2134 0.930 . S
H2125 C2135 0.930 . S
C2126 H2120 0.930 . S
C2126 C2127 1.355 . S
C2126 C2128 1.415 . S
C2127 C2126 1.355 . S
C2127 C2129 1.419 . S
C2128 C2126 1.415 . S
C2128 C2133 1.425 . S
C2128 C2135 1.409 . S
C2129 H2121 0.930 . S
C2129 C2127 1.419 . S
C2129 C2130 1.362 . S
C2130 H2122 0.930 . S
C2130 C2129 1.362 . S
C2130 C2133 1.409 . S
C2131 H2123 0.930 . S
C2131 C2132 1.355 . S
C2131 C2133 1.415 . S
C2132 C2131 1.355 . S
C2132 C2134 1.419 . S
C2133 C2128 1.425 . S
C2133 C2130 1.409 . S
C2133 C2131 1.415 . S
C2134 H2124 0.930 . S
C2134 C2132 1.419 . S
C2134 C2135 1.362 . S
C2135 H2125 0.930 . S
C2135 C2128 1.409 . S
C2135 C2134 1.362 . S
H2136 C2142 0.930 . S
H2137 C2145 0.930 . S
H2138 C2146 0.930 . S
H2139 C2147 0.930 . S
H2140 C2150 0.930 . S
H2141 C2151 0.930 . S
C2142 H2136 0.930 . S
C2142 C2143 1.355 . S
C2142 C2144 1.415 . S
C2143 C2142 1.355 . S
C2143 C2145 1.419 . S
C2144 C2142 1.415 . S
C2144 C2149 1.425 . S
C2144 C2151 1.409 . S
C2145 H2137 0.930 . S
C2145 C2143 1.419 . S
C2145 C2146 1.362 . S
C2146 H2138 0.930 . S
C2146 C2145 1.362 . S
C2146 C2149 1.409 . S
C2147 H2139 0.930 . S
C2147 C2148 1.355 . S
C2147 C2149 1.415 . S
C2148 C2147 1.355 . S
C2148 C2150 1.419 . S
C2149 C2144 1.425 . S
C2149 C2146 1.409 . S
C2149 C2147 1.415 . S
C2150 H2140 0.930 . S
C2150 C2148 1.419 . S
C2150 C2151 1.362 . S
C2151 H2141 0.930 . S
C2151 C2144 1.409 . S
C2151 C2150 1.362 . S
H2152 C2158 0.930 . S
H2153 C2161 0.930 . S
H2154 C2162 0.930 . S
H2155 C2163 0.930 . S
H2156 C2166 0.930 . S
H2157 C2167 0.930 . S
C2158 H2152 0.930 . S
C2158 C2159 1.355 . S
C2158 C2160 1.415 . S
C2159 C2158 1.355 . S
C2159 C2161 1.419 . S
C2160 C2158 1.415 . S
C2160 C2165 1.425 . S
C2160 C2167 1.409 . S
C2161 H2153 0.930 . S
C2161 C2159 1.419 . S
C2161 C2162 1.362 . S
C2162 H2154 0.930 . S
C2162 C2161 1.362 . S
C2162 C2165 1.409 . S
C2163 H2155 0.930 . S
C2163 C2164 1.355 . S
C2163 C2165 1.415 . S
C2164 C2163 1.355 . S
C2164 C2166 1.419 . S
C2165 C2160 1.425 . S
C2165 C2162 1.409 . S
C2165 C2163 1.415 . S
C2166 H2156 0.930 . S
C2166 C2164 1.419 . S
C2166 C2167 1.362 . S
C2167 H2157 0.930 . S
C2167 C2160 1.409 . S
C2167 C2166 1.362 . S
H2168 C2174 0.930 . S
H2169 C2177 0.930 . S
H2170 C2178 0.930 . S
H2171 C2179 0.930 . S
H2172 C2182 0.930 . S
H2173 C2183 0.930 . S
C2174 H2168 0.930 . S
C2174 C2175 1.355 . S
C2174 C2176 1.415 . S
C2175 C2174 1.355 . S
C2175 C2177 1.419 . S
C2176 C2174 1.415 . S
C2176 C2181 1.425 . S
C2176 C2183 1.409 . S
C2177 H2169 0.930 . S
C2177 C2175 1.419 . S
C2177 C2178 1.362 . S
C2178 H2170 0.930 . S
C2178 C2177 1.362 . S
C2178 C2181 1.409 . S
C2179 H2171 0.930 . S
C2179 C2180 1.355 . S
C2179 C2181 1.415 . S
C2180 C2179 1.355 . S
C2180 C2182 1.419 . S
C2181 C2176 1.425 . S
C2181 C2178 1.409 . S
C2181 C2179 1.415 . S
C2182 H2172 0.930 . S
C2182 C2180 1.419 . S
C2182 C2183 1.362 . S
C2183 H2173 0.930 . S
C2183 C2176 1.409 . S
C2183 C2182 1.362 . S
H2184 C2190 0.930 . S
H2185 C2193 0.930 . S
H2186 C2194 0.930 . S
H2187 C2195 0.930 . S
H2188 C2198 0.930 . S
H2189 C2199 0.930 . S
C2190 H2184 0.930 . S
C2190 C2191 1.355 . S
C2190 C2192 1.415 . S
C2191 C2190 1.355 . S
C2191 C2193 1.419 . S
C2192 C2190 1.415 . S
C2192 C2197 1.425 . S
C2192 C2199 1.409 . S
C2193 H2185 0.930 . S
C2193 C2191 1.419 . S
C2193 C2194 1.362 . S
C2194 H2186 0.930 . S
C2194 C2193 1.362 . S
C2194 C2197 1.409 . S
C2195 H2187 0.930 . S
C2195 C2196 1.355 . S
C2195 C2197 1.415 . S
C2196 C2195 1.355 . S
C2196 C2198 1.419 . S
C2197 C2192 1.425 . S
C2197 C2194 1.409 . S
C2197 C2195 1.415 . S
C2198 H2188 0.930 . S
C2198 C2196 1.419 . S
C2198 C2199 1.362 . S
C2199 H2189 0.930 . S
C2199 C2192 1.409 . S
C2199 C2198 1.362 . S
H2200 C2206 0.930 . S
H2201 C2209 0.930 . S
H2202 C2210 0.930 . S
H2203 C2211 0.930 . S
H2204 C2214 0.930 . S
H2205 C2215 0.930 . S
C2206 H2200 0.930 . S
C2206 C2207 1.355 . S
C2206 C2208 1.415 . S
C2207 C2206 1.355 . S
C2207 C2209 1.419 . S
C2208 C2206 1.415 . S
C2208 C2213 1.425 . S
C2208 C2215 1.409 . S
C2209 H2201 0.930 . S
C2209 C2207 1.419 . S
C2209 C2210 1.362 . S
C2210 H2202 0.930 . S
C2210 C2209 1.362 . S
C2210 C2213 1.409 . S
C2211 H2203 0.930 . S
C2211 C2212 1.355 . S
C2211 C2213 1.415 . S
C2212 C2211 1.355 . S
C2212 C2214 1.419 . S
C2213 C2208 1.425 . S
C2213 C2210 1.409 . S
C2213 C2211 1.415 . S
C2214 H2204 0.930 . S
C2214 C2212 1.419 . S
C2214 C2215 1.362 . S
C2215 H2205 0.930 . S
C2215 C2208 1.409 . S
C2215 C2214 1.362 . S
H2216 C2222 0.930 . S
H2217 C2225 0.930 . S
H2218 C2226 0.930 . S
H2219 C2227 0.930 . S
H2220 C2230 0.930 . S
H2221 C2231 0.930 . S
C2222 H2216 0.930 . S
C2222 C2223 1.355 . S
C2222 C2224 1.415 . S
C2223 C2222 1.355 . S
C2223 C2225 1.419 . S
C2224 C2222 1.415 . S
C2224 C2229 1.425 . S
C2224 C2231 1.409 . S
C2225 H2217 0.930 . S
C2225 C2223 1.419 . S
C2225 C2226 1.362 . S
C2226 H2218 0.930 . S
C2226 C2225 1.362 . S
C2226 C2229 1.409 . S
C2227 H2219 0.930 . S
C2227 C2228 1.355 . S
C2227 C2229 1.415 . S
C2228 C2227 1.355 . S
C2228 C2230 1.419 . S
C2229 C2224 1.425 . S
C2229 C2226 1.409 . S
C2229 C2227 1.415 . S
C2230 H2220 0.930 . S
C2230 C2228 1.419 . S
C2230 C2231 1.362 . S
C2231 H2221 0.930 . S
C2231 C2224 1.409 . S
C2231 C2230 1.362 . S
H2232 C2238 0.930 . S
H2233 C2241 0.930 . S
H2234 C2242 0.930 . S
H2235 C2243 0.930 . S
H2236 C2246 0.930 . S
H2237 C2247 0.930 . S
C2238 H2232 0.930 . S
C2238 C2239 1.355 . S
C2238 C2240 1.415 . S
C2239 C2238 1.355 . S
C2239 C2241 1.419 . S
C2240 C2238 1.415 . S
C2240 C2245 1.425 . S
C2240 C2247 1.409 . S
C2241 H2233 0.930 . S
C2241 C2239 1.419 . S
C2241 C2242 1.362 . S
C2242 H2234 0.930 . S
C2242 C2241 1.362 . S
C2242 C2245 1.409 . S
C2243 H2235 0.930 . S
C2243 C2244 1.355 . S
C2243 C2245 1.415 . S
C2244 C2243 1.355 . S
C2244 C2246 1.419 . S
C2245 C2240 1.425 . S
C2245 C2242 1.409 . S
C2245 C2243 1.415 . S
C2246 H2236 0.930 . S
C2246 C2244 1.419 . S
C2246 C2247 1.362 . S
C2247 H2237 0.930 . S
C2247 C2240 1.409 . S
C2247 C2246 1.362 . S
H2248 C2254 0.930 . S
H2249 C2257 0.930 . S
H2250 C2258 0.930 . S
H2251 C2259 0.930 . S
H2252 C2262 0.930 . S
H2253 C2263 0.930 . S
C2254 H2248 0.930 . S
C2254 C2255 1.355 . S
C2254 C2256 1.415 . S
C2255 C2254 1.355 . S
C2255 C2257 1.419 . S
C2256 C2254 1.415 . S
C2256 C2261 1.425 . S
C2256 C2263 1.409 . S
C2257 H2249 0.930 . S
C2257 C2255 1.419 . S
C2257 C2258 1.362 . S
C2258 H2250 0.930 . S
C2258 C2257 1.362 . S
C2258 C2261 1.409 . S
C2259 H2251 0.930 . S
C2259 C2260 1.355 . S
C2259 C2261 1.415 . S
C2260 C2259 1.355 . S
C2260 C2262 1.419 . S
C2261 C2256 1.425 . S
C2261 C2258 1.409 . S
C2261 C2259 1.415 . S
C2262 H2252 0.930 . S
C2262 C2260 1.419 . S
C2262 C2263 1.362 . S
C2263 H2253 0.930 . S
C2263 C2256 1.409 . S
C2263 C2262 1.362 . S
H2264 C2270 0.930 . S
H2265 C2273 0.930 . S
H2266 C2274 0.930 . S
H2267 C2275 0.930 . S
H2268 C2278 0.930 . S
H2269 C2279 0.930 . S
C2270 H2264 0.930 . S
C2270 C2271 1.355 . S
C2270 C2272 1.415 . S
C2271 C2270 1.355 . S
C2271 C2273 1.419 . S
C2272 C2270 1.415 . S
C2272 C2277 1.425 . S
C2272 C2279 1.409 . S
C2273 H2265 0.930 . S
C2273 C2271 1.419 . S
C2273 C2274 1.362 . S
C2274 H2266 0.930 . S
C2274 C2273 1.362 . S
C2274 C2277 1.409 . S
C2275 H2267 0.930 . S
C2275 C2276 1.355 . S
C2275 C2277 1.415 . S
C2276 C2275 1.355 . S
C2276 C2278 1.419 . S
C2277 C2272 1.425 . S
C2277 C2274 1.409 . S
C2277 C2275 1.415 . S
C2278 H2268 0.930 . S
C2278 C2276 1.419 . S
C2278 C2279 1.362 . S
C2279 H2269 0.930 . S
C2279 C2272 1.409 . S
C2279 C2278 1.362 . S
H2280 C2286 0.930 . S
H2281 C2289 0.930 . S
H2282 C2290 0.930 . S
H2283 C2291 0.930 . S
H2284 C2294 0.930 . S
H2285 C2295 0.930 . S
C2286 H2280 0.930 . S
C2286 C2287 1.355 . S
C2286 C2288 1.415 . S
C2287 C2286 1.355 . S
C2287 C2289 1.419 . S
C2288 C2286 1.415 . S
C2288 C2293 1.425 . S
C2288 C2295 1.409 . S
C2289 H2281 0.930 . S
C2289 C2287 1.419 . S
C2289 C2290 1.362 . S
C2290 H2282 0.930 . S
C2290 C2289 1.362 . S
C2290 C2293 1.409 . S
C2291 H2283 0.930 . S
C2291 C2292 1.355 . S
C2291 C2293 1.415 . S
C2292 C2291 1.355 . S
C2292 C2294 1.419 . S
C2293 C2288 1.425 . S
C2293 C2290 1.409 . S
C2293 C2291 1.415 . S
C2294 H2284 0.930 . S
C2294 C2292 1.419 . S
C2294 C2295 1.362 . S
C2295 H2285 0.930 . S
C2295 C2288 1.409 . S
C2295 C2294 1.362 . S
H2296 C2302 0.930 . S
H2297 C2305 0.930 . S
H2298 C2306 0.930 . S
H2299 C2307 0.930 . S
H2300 C2310 0.930 . S
H2301 C2311 0.930 . S
C2302 H2296 0.930 . S
C2302 C2303 1.355 . S
C2302 C2304 1.415 . S
C2303 C2302 1.355 . S
C2303 C2305 1.419 . S
C2304 C2302 1.415 . S
C2304 C2309 1.425 . S
C2304 C2311 1.409 . S
C2305 H2297 0.930 . S
C2305 C2303 1.419 . S
C2305 C2306 1.362 . S
C2306 H2298 0.930 . S
C2306 C2305 1.362 . S
C2306 C2309 1.409 . S
C2307 H2299 0.930 . S
C2307 C2308 1.355 . S
C2307 C2309 1.415 . S
C2308 C2307 1.355 . S
C2308 C2310 1.419 . S
C2309 C2304 1.425 . S
C2309 C2306 1.409 . S
C2309 C2307 1.415 . S
C2310 H2300 0.930 . S
C2310 C2308 1.419 . S
C2310 C2311 1.362 . S
C2311 H2301 0.930 . S
C2311 C2304 1.409 . S
C2311 C2310 1.362 . S
H2312 C2318 0.930 . S
H2313 C2321 0.930 . S
H2314 C2322 0.930 . S
H2315 C2323 0.930 . S
H2316 C2326 0.930 . S
H2317 C2327 0.930 . S
C2318 H2312 0.930 . S
C2318 C2319 1.355 . S
C2318 C2320 1.415 . S
C2319 C2318 1.355 . S
C2319 C2321 1.419 . S
C2320 C2318 1.415 . S
C2320 C2325 1.425 . S
C2320 C2327 1.409 . S
C2321 H2313 0.930 . S
C2321 C2319 1.419 . S
C2321 C2322 1.362 . S
C2322 H2314 0.930 . S
C2322 C2321 1.362 . S
C2322 C2325 1.409 . S
C2323 H2315 0.930 . S
C2323 C2324 1.355 . S
C2323 C2325 1.415 . S
C2324 C2323 1.355 . S
C2324 C2326 1.419 . S
C2325 C2320 1.425 . S
C2325 C2322 1.409 . S
C2325 C2323 1.415 . S
C2326 H2316 0.930 . S
C2326 C2324 1.419 . S
C2326 C2327 1.362 . S
C2327 H2317 0.930 . S
C2327 C2320 1.409 . S
C2327 C2326 1.362 . S
H2328 C2334 0.930 . S
H2329 C2337 0.930 . S
H2330 C2338 0.930 . S
H2331 C2339 0.930 . S
H2332 C2342 0.930 . S
H2333 C2343 0.930 . S
C2334 H2328 0.930 . S
C2334 C2335 1.355 . S
C2334 C2336 1.415 . S
C2335 C2334 1.355 . S
C2335 C2337 1.419 . S
C2336 C2334 1.415 . S
C2336 C2341 1.425 . S
C2336 C2343 1.409 . S
C2337 H2329 0.930 . S
C2337 C2335 1.419 . S
C2337 C2338 1.362 . S
C2338 H2330 0.930 . S
C2338 C2337 1.362 . S
C2338 C2341 1.409 . S
C2339 H2331 0.930 . S
C2339 C2340 1.355 . S
C2339 C2341 1.415 . S
C2340 C2339 1.355 . S
C2340 C2342 1.419 . S
C2341 C2336 1.425 . S
C2341 C2338 1.409 . S
C2341 C2339 1.415 . S
C2342 H2332 0.930 . S
C2342 C2340 1.419 . S
C2342 C2343 1.362 . S
C2343 H2333 0.930 . S
C2343 C2336 1.409 . S
C2343 C2342 1.362 . S
H2344 C2350 0.930 . S
H2345 C2353 0.930 . S
H2346 C2354 0.930 . S
H2347 C2355 0.930 . S
H2348 C2358 0.930 . S
H2349 C2359 0.930 . S
C2350 H2344 0.930 . S
C2350 C2351 1.355 . S
C2350 C2352 1.415 . S
C2351 C2350 1.355 . S
C2351 C2353 1.419 . S
C2352 C2350 1.415 . S
C2352 C2357 1.425 . S
C2352 C2359 1.409 . S
C2353 H2345 0.930 . S
C2353 C2351 1.419 . S
C2353 C2354 1.362 . S
C2354 H2346 0.930 . S
C2354 C2353 1.362 . S
C2354 C2357 1.409 . S
C2355 H2347 0.930 . S
C2355 C2356 1.355 . S
C2355 C2357 1.415 . S
C2356 C2355 1.355 . S
C2356 C2358 1.419 . S
C2357 C2352 1.425 . S
C2357 C2354 1.409 . S
C2357 C2355 1.415 . S
C2358 H2348 0.930 . S
C2358 C2356 1.419 . S
C2358 C2359 1.362 . S
C2359 H2349 0.930 . S
C2359 C2352 1.409 . S
C2359 C2358 1.362 . S
H2360 C2366 0.930 . S
H2361 C2369 0.930 . S
H2362 C2370 0.930 . S
H2363 C2371 0.930 . S
H2364 C2374 0.930 . S
H2365 C2375 0.930 . S
C2366 H2360 0.930 . S
C2366 C2367 1.355 . S
C2366 C2368 1.415 . S
C2367 C2366 1.355 . S
C2367 C2369 1.419 . S
C2368 C2366 1.415 . S
C2368 C2373 1.425 . S
C2368 C2375 1.409 . S
C2369 H2361 0.930 . S
C2369 C2367 1.419 . S
C2369 C2370 1.362 . S
C2370 H2362 0.930 . S
C2370 C2369 1.362 . S
C2370 C2373 1.409 . S
C2371 H2363 0.930 . S
C2371 C2372 1.355 . S
C2371 C2373 1.415 . S
C2372 C2371 1.355 . S
C2372 C2374 1.419 . S
C2373 C2368 1.425 . S
C2373 C2370 1.409 . S
C2373 C2371 1.415 . S
C2374 H2364 0.930 . S
C2374 C2372 1.419 . S
C2374 C2375 1.362 . S
C2375 H2365 0.930 . S
C2375 C2368 1.409 . S
C2375 C2374 1.362 . S
H2376 C2382 0.930 . S
H2377 C2385 0.930 . S
H2378 C2386 0.930 . S
H2379 C2387 0.930 . S
H2380 C2390 0.930 . S
H2381 C2391 0.930 . S
C2382 H2376 0.930 . S
C2382 C2383 1.355 . S
C2382 C2384 1.415 . S
C2383 C2382 1.355 . S
C2383 C2385 1.419 . S
C2384 C2382 1.415 . S
C2384 C2389 1.425 . S
C2384 C2391 1.409 . S
C2385 H2377 0.930 . S
C2385 C2383 1.419 . S
C2385 C2386 1.362 . S
C2386 H2378 0.930 . S
C2386 C2385 1.362 . S
C2386 C2389 1.409 . S
C2387 H2379 0.930 . S
C2387 C2388 1.355 . S
C2387 C2389 1.415 . S
C2388 C2387 1.355 . S
C2388 C2390 1.419 . S
C2389 C2384 1.425 . S
C2389 C2386 1.409 . S
C2389 C2387 1.415 . S
C2390 H2380 0.930 . S
C2390 C2388 1.419 . S
C2390 C2391 1.362 . S
C2391 H2381 0.930 . S
C2391 C2384 1.409 . S
C2391 C2390 1.362 . S
H2392 C2398 0.930 . S
H2393 C2401 0.930 . S
H2394 C2402 0.930 . S
H2395 C2403 0.930 . S
H2396 C2406 0.930 . S
H2397 C2407 0.930 . S
C2398 H2392 0.930 . S
C2398 C2399 1.355 . S
C2398 C2400 1.415 . S
C2399 C2398 1.355 . S
C2399 C2401 1.419 . S
C2400 C2398 1.415 . S
C2400 C2405 1.425 . S
C2400 C2407 1.409 . S
C2401 H2393 0.930 . S
C2401 C2399 1.419 . S
C2401 C2402 1.362 . S
C2402 H2394 0.930 . S
C2402 C2401 1.362 . S
C2402 C2405 1.409 . S
C2403 H2395 0.930 . S
C2403 C2404 1.355 . S
C2403 C2405 1.415 . S
C2404 C2403 1.355 . S
C2404 C2406 1.419 . S
C2405 C2400 1.425 . S
C2405 C2402 1.409 . S
C2405 C2403 1.415 . S
C2406 H2396 0.930 . S
C2406 C2404 1.419 . S
C2406 C2407 1.362 . S
C2407 H2397 0.930 . S
C2407 C2400 1.409 . S
C2407 C2406 1.362 . S
H2408 C2414 0.930 . S
H2409 C2417 0.930 . S
H2410 C2418 0.930 . S
H2411 C2419 0.930 . S
H2412 C2422 0.930 . S
H2413 C2423 0.930 . S
C2414 H2408 0.930 . S
C2414 C2415 1.355 . S
C2414 C2416 1.415 . S
C2415 C2414 1.355 . S
C2415 C2417 1.419 . S
C2416 C2414 1.415 . S
C2416 C2421 1.425 . S
C2416 C2423 1.409 . S
C2417 H2409 0.930 . S
C2417 C2415 1.419 . S
C2417 C2418 1.362 . S
C2418 H2410 0.930 . S
C2418 C2417 1.362 . S
C2418 C2421 1.409 . S
C2419 H2411 0.930 . S
C2419 C2420 1.355 . S
C2419 C2421 1.415 . S
C2420 C2419 1.355 . S
C2420 C2422 1.419 . S
C2421 C2416 1.425 . S
C2421 C2418 1.409 . S
C2421 C2419 1.415 . S
C2422 H2412 0.930 . S
C2422 C2420 1.419 . S
C2422 C2423 1.362 . S
C2423 H2413 0.930 . S
C2423 C2416 1.409 . S
C2423 C2422 1.362 . S
H2424 C2430 0.930 . S
H2425 C2433 0.930 . S
H2426 C2434 0.930 1_655 S
H2427 C2435 0.930 . S
H2428 C2438 0.930 . S
H2429 C2439 0.930 1_455 S
C2430 H2424 0.930 . S
C2430 C2431 1.355 . S
C2430 C2432 1.415 . S
C2431 C2430 1.355 . S
C2431 C2433 1.419 . S
C2432 C2430 1.415 . S
C2432 C2437 1.425 1_455 S
C2432 C2439 1.409 1_455 S
C2433 H2425 0.930 . S
C2433 C2431 1.419 . S
C2433 C2434 1.362 . S
C2434 H2426 0.930 1_455 S
C2434 C2433 1.362 . S
C2434 C2437 1.409 1_455 S
C2435 H2427 0.930 . S
C2435 C2436 1.355 . S
C2435 C2437 1.415 . S
C2436 C2435 1.355 . S
C2436 C2438 1.419 . S
C2437 C2432 1.425 1_655 S
C2437 C2434 1.409 1_655 S
C2437 C2435 1.415 . S
C2438 H2428 0.930 . S
C2438 C2436 1.419 . S
C2438 C2439 1.362 . S
C2439 H2429 0.930 1_655 S
C2439 C2432 1.409 1_655 S
C2439 C2438 1.362 . S
H2440 C2446 0.930 . S
H2441 C2449 0.930 . S
H2442 C2450 0.930 . S
H2443 C2451 0.930 . S
H2444 C2454 0.930 . S
H2445 C2455 0.930 . S
C2446 H2440 0.930 . S
C2446 C2447 1.355 . S
C2446 C2448 1.415 . S
C2447 C2446 1.355 . S
C2447 C2449 1.419 . S
C2448 C2446 1.415 . S
C2448 C2453 1.425 . S
C2448 C2455 1.409 . S
C2449 H2441 0.930 . S
C2449 C2447 1.419 . S
C2449 C2450 1.362 . S
C2450 H2442 0.930 . S
C2450 C2449 1.362 . S
C2450 C2453 1.409 . S
C2451 H2443 0.930 . S
C2451 C2452 1.355 . S
C2451 C2453 1.415 . S
C2452 C2451 1.355 . S
C2452 C2454 1.419 . S
C2453 C2448 1.425 . S
C2453 C2450 1.409 . S
C2453 C2451 1.415 . S
C2454 H2444 0.930 . S
C2454 C2452 1.419 . S
C2454 C2455 1.362 . S
C2455 H2445 0.930 . S
C2455 C2448 1.409 . S
C2455 C2454 1.362 . S
H2456 C2462 0.930 . S
H2457 C2465 0.930 . S
H2458 C2466 0.930 1_565 S
H2459 C2467 0.930 . S
H2460 C2470 0.930 . S
H2461 C2471 0.930 1_545 S
C2462 H2456 0.930 . S
C2462 C2463 1.355 . S
C2462 C2464 1.415 . S
C2463 C2462 1.355 . S
C2463 C2465 1.419 . S
C2464 C2462 1.415 . S
C2464 C2469 1.425 1_545 S
C2464 C2471 1.409 1_545 S
C2465 H2457 0.930 . S
C2465 C2463 1.419 . S
C2465 C2466 1.362 . S
C2466 H2458 0.930 1_545 S
C2466 C2465 1.362 . S
C2466 C2469 1.409 1_545 S
C2467 H2459 0.930 . S
C2467 C2468 1.355 . S
C2467 C2469 1.415 . S
C2468 C2467 1.355 . S
C2468 C2470 1.419 . S
C2469 C2464 1.425 1_565 S
C2469 C2466 1.409 1_565 S
C2469 C2467 1.415 . S
C2470 H2460 0.930 . S
C2470 C2468 1.419 . S
C2470 C2471 1.362 . S
C2471 H2461 0.930 1_565 S
C2471 C2464 1.409 1_565 S
C2471 C2470 1.362 . S
H2472 C2478 0.930 . S
H2473 C2481 0.930 . S
H2474 C2482 0.930 . S
H2475 C2483 0.930 . S
H2476 C2486 0.930 . S
H2477 C2487 0.930 . S
C2478 H2472 0.930 . S
C2478 C2479 1.355 . S
C2478 C2480 1.415 . S
C2479 C2478 1.355 . S
C2479 C2481 1.419 . S
C2480 C2478 1.415 . S
C2480 C2485 1.425 1_545 S
C2480 C2487 1.409 1_545 S
C2481 H2473 0.930 . S
C2481 C2479 1.419 . S
C2481 C2482 1.362 . S
C2482 H2474 0.930 . S
C2482 C2481 1.362 . S
C2482 C2485 1.409 1_545 S
C2483 H2475 0.930 . S
C2483 C2484 1.355 . S
C2483 C2485 1.415 . S
C2484 C2483 1.355 . S
C2484 C2486 1.419 . S
C2485 C2480 1.425 1_565 S
C2485 C2482 1.409 1_565 S
C2485 C2483 1.415 . S
C2486 H2476 0.930 . S
C2486 C2484 1.419 . S
C2486 C2487 1.362 . S
C2487 H2477 0.930 . S
C2487 C2480 1.409 1_565 S
C2487 C2486 1.362 . S
H2488 C2494 0.930 . S
H2489 C2497 0.930 . S
H2490 C2498 0.908 1_655 S
H2491 C2499 0.930 . S
H2492 C2502 0.930 . S
H2493 C2503 0.907 1_455 S
C2494 H2488 0.930 . S
C2494 C2495 1.355 . S
C2494 C2496 1.415 . S
C2495 C2494 1.355 . S
C2495 C2497 1.419 . S
C2496 C2494 1.415 . S
C2496 C2501 1.425 1_455 S
C2496 C2503 1.400 1_455 S
C2497 H2489 0.930 . S
C2497 C2495 1.419 . S
C2497 C2498 1.395 . S
C2498 H2490 0.908 1_455 S
C2498 C2497 1.395 . S
C2498 C2501 1.400 1_455 S
C2499 H2491 0.930 . S
C2499 C2500 1.355 . S
C2499 C2501 1.415 . S
C2500 C2499 1.355 . S
C2500 C2502 1.419 . S
C2501 C2496 1.425 1_655 S
C2501 C2498 1.400 1_655 S
C2501 C2499 1.415 . S
C2502 H2492 0.930 . S
C2502 C2500 1.419 . S
C2502 C2503 1.395 . S
C2503 H2493 0.907 1_655 S
C2503 C2496 1.400 1_655 S
C2503 C2502 1.395 . S
H2504 C2510 0.930 . S
H2505 C2513 0.930 . S
H2506 C2514 0.930 . S
H2507 C2515 0.930 . S
H2508 C2518 0.930 . S
H2509 C2519 0.930 . S
C2510 H2504 0.930 . S
C2510 C2511 1.355 . S
C2510 C2512 1.415 . S
C2511 C2510 1.355 . S
C2511 C2513 1.419 . S
C2512 C2510 1.415 . S
C2512 C2517 1.425 . S
C2512 C2519 1.409 . S
C2513 H2505 0.930 . S
C2513 C2511 1.419 . S
C2513 C2514 1.362 . S
C2514 H2506 0.930 . S
C2514 C2513 1.362 . S
C2514 C2517 1.409 . S
C2515 H2507 0.930 . S
C2515 C2516 1.355 . S
C2515 C2517 1.415 . S
C2516 C2515 1.355 . S
C2516 C2518 1.419 . S
C2517 C2512 1.425 . S
C2517 C2514 1.409 . S
C2517 C2515 1.415 . S
C2518 H2508 0.930 . S
C2518 C2516 1.419 . S
C2518 C2519 1.362 . S
C2519 H2509 0.930 . S
C2519 C2512 1.409 . S
C2519 C2518 1.362 . S
C799 C5 1.317 . S
C804 C158 1.251 . S
C815 C27 1.357 . S
C820 C180 1.290 . S
C831 C49 1.357 . S
C836 C136 1.250 . S
C847 C71 1.358 . S
C852 C246 1.285 . S
C863 C202 1.241 . S
C868 C93 1.343 . S
C879 C224 1.241 . S
C884 C115 1.340 . S
C895 C26 1.250 . S
C900 C138 1.357 . S
C911 C160 1.332 . S
C916 C48 1.243 . S
C927 C182 1.360 . S
C932 C4 1.257 . S
C943 C114 1.256 . S
C948 C204 1.312 . S
C959 C226 1.353 . S
C964 C70 1.298 . S
C975 C248 1.350 . S
C980 C92 1.243 . S
C991 C269 1.292 . S
C996 C422 1.339 . S
C1007 C291 1.289 . S
C1012 C444 1.336 . S
C1023 C400 1.339 . S
C1028 C313 1.312 . S
C1039 C510 1.300 . S
C1044 C335 1.284 . S
C1055 C466 1.245 . S
C1060 C357 1.353 . S
C1071 C379 1.302 . S
C1076 C488 1.341 . S
C1087 C290 1.304 . S
C1092 C402 1.350 . S
C1103 C312 1.287 . S
C1108 C424 1.289 . S
C1119 C268 1.243 . S
C1124 C446 1.332 . S
C1135 C378 1.248 . S
C1140 C468 1.356 . S
C1151 C490 1.360 . S
C1156 C334 1.261 . S
C1167 C356 1.326 . S
C1172 C512 1.283 . S
C1183 C533 1.360 . S
C1188 C686 1.278 . S
C1199 C708 1.297 . S
C1204 C555 1.285 . S
C1215 C577 1.298 . S
C1220 C664 1.272 . S
C1231 C599 1.359 . S
C1236 C774 1.254 . S
C1247 C730 1.260 . S
C1252 C621 1.308 . S
C1263 C752 1.329 . S
C1268 C643 1.329 . S
C1279 C666 1.336 . S
C1284 C554 1.323 . S
C1295 C688 1.335 . S
C1300 C576 1.242 . S
C1311 C710 1.358 . S
C1316 C532 1.285 . S
C1327 C642 1.307 . S
C1332 C732 1.283 . S
C1343 C598 1.325 . S
C1348 C754 1.334 . S
C1359 C620 1.247 . S
C1364 C776 1.355 . S
C1375 C7 1.052 . S
C1380 C52 1.000 . S
C1391 C29 1.090 . S
C1396 C8 0.994 . S
C1407 C30 1.045 . S
C1412 C51 0.997 . S
C1423 C96 1.077 . S
C1428 C73 1.032 . S
C1439 C95 1.084 . S
C1444 C118 1.025 . S
C1455 C74 1.022 . S
C1460 C117 1.022 . S
C1471 C141 1.002 . S
C1476 C184 1.092 . S
C1487 C163 0.974 . S
C1492 C140 1.081 . S
C1503 C185 0.996 . S
C1508 C162 1.046 . S
C1519 C228 0.993 . S
C1524 C207 1.089 . S
C1535 C229 1.015 . S
C1540 C250 1.028 . S
C1551 C206 1.082 . S
C1556 C251 0.974 . S
C1567 C316 1.041 . S
C1572 C271 1.001 . S
C1583 C293 0.974 . S
C1588 C272 1.090 . S
C1599 C315 1.022 . S
C1604 C294 1.022 . S
C1615 C337 1.086 . S
C1620 C360 1.021 . S
C1631 C382 1.037 . S
C1636 C359 1.005 . S
C1647 C381 0.981 . S
C1652 C338 1.095 . S
C1663 C405 0.988 . S
C1668 C448 1.055 . S
C1679 C427 1.074 . S
C1684 C404 1.039 . S
C1695 C426 1.026 . S
C1700 C449 1.017 . S
C1711 C492 1.052 . S
C1716 C471 1.062 . S
C1727 C493 1.066 . S
C1732 C514 0.994 . S
C1743 C515 1.004 . S
C1748 C470 1.038 . S
C1759 C580 1.034 . S
C1764 C535 1.008 . S
C1775 C557 1.035 . S
C1780 C536 1.075 . S
C1791 C579 1.036 . S
C1796 C558 1.011 . S
C1807 C624 1.079 . S
C1812 C601 0.974 . S
C1823 C623 1.053 . S
C1828 C646 1.061 . S
C1839 C645 1.011 . S
C1844 C602 1.031 . S
C1855 C669 1.033 . S
C1860 C712 1.013 . S
C1871 C691 1.004 . S
C1876 C668 1.038 . S
C1887 C690 1.029 . S
C1892 C713 1.013 . S
C1903 C756 1.027 . S
C1908 C735 1.015 . S
C1919 C778 0.995 . S
C1924 C757 1.062 . S
C1935 C734 1.015 . S
C1940 C779 1.031 . S
C1951 C97 1.473 . S
C1956 C9 1.459 . S
C1967 C119 1.498 . S
C1972 C31 1.501 . S
C1983 C75 1.500 . S
C1988 C53 1.497 . S
C1999 C227 1.500 . S
C2004 C139 1.499 . S
C2015 C249 1.501 . S
C2020 C161 1.497 . S
C2031 C183 1.498 . S
C2036 C205 1.500 . S
C2047 C361 1.459 . S
C2052 C273 1.455 . S
C2063 C383 1.464 . S
C2068 C295 1.456 . S
C2079 C317 1.455 . S
C2084 C339 1.460 . S
C2095 C491 1.492 . S
C2100 C403 1.500 . S
C2111 C425 1.456 . S
C2116 C513 1.467 . S
C2127 C469 1.458 . S
C2132 C447 1.455 . S
C2143 C537 1.455 . S
C2148 C625 1.465 . S
C2159 C647 1.484 . S
C2164 C559 1.468 . S
C2175 C603 1.495 . S
C2180 C581 1.501 . S
C2191 C755 1.457 . S
C2196 C667 1.456 . S
C2207 C777 1.467 . S
C2212 C689 1.456 . S
C2223 C733 1.469 . S
C2228 C711 1.486 . S
C2239 C644 1.378 . S
C2244 C6 1.355 . S
C2255 C28 1.380 . S
C2260 C600 1.364 . S
C2271 C50 1.373 . S
C2276 C622 1.369 . S
C2287 C72 1.365 . S
C2292 C292 1.367 . S
C2303 C94 1.379 . S
C2308 C314 1.352 . S
C2319 C116 1.355 . S
C2324 C270 1.378 . S
C2335 C511 1.381 . S
C2340 C137 1.353 . S
C2351 C467 1.351 . S
C2356 C159 1.388 . S
C2367 C489 1.382 . S
C2372 C181 1.358 . S
C2383 C203 1.386 . S
C2388 C687 1.356 . S
C2399 C225 1.369 . S
C2404 C709 1.360 . S
C2415 C665 1.366 . S
C2420 C247 1.366 . S
C2431 C556 1.356 . S
C2436 C336 1.376 . S
C2447 C578 1.387 . S
C2452 C358 1.351 . S
C2463 C380 1.350 . S
C2468 C534 1.387 . S
C2479 C401 1.350 . S
C2484 C775 1.386 . S
C2495 C731 1.374 . S
C2500 C423 1.358 . S
C2511 C753 1.369 . S
C2516 C445 1.373 . S
