# Generated by pormake.
# Topology snp, (6)-cn, num edge types: 1
# Building blocks:
#     Node 0, Type 0, BuildingBlock: JUFBIX_clean_sbu_0, # of connection points: 6
#     Node 1, Type 0, BuildingBlock: JUFBIX_clean_sbu_0, # of connection points: 6
#     Node 2, Type 0, BuildingBlock: JUFBIX_clean_sbu_0, # of connection points: 6
#     Node 3, Type 0, BuildingBlock: JUFBIX_clean_sbu_0, # of connection points: 6
#     Edge 4, Type (0, 0), BuildingBlock: FUNLAD_clean_linker_1, # of connection points: 2
#     Edge 5, Type (0, 0), BuildingBlock: FUNLAD_clean_linker_1, # of connection points: 2
#     Edge 6, Type (0, 0), BuildingBlock: FUNLAD_clean_linker_1, # of connection points: 2
#     Edge 7, Type (0, 0), BuildingBlock: FUNLAD_clean_linker_1, # of connection points: 2
#     Edge 8, Type (0, 0), BuildingBlock: FUNLAD_clean_linker_1, # of connection points: 2
#     Edge 9, Type (0, 0), BuildingBlock: FUNLAD_clean_linker_1, # of connection points: 2
#     Edge 10, Type (0, 0), BuildingBlock: FUNLAD_clean_linker_1, # of connection points: 2
#     Edge 11, Type (0, 0), BuildingBlock: FUNLAD_clean_linker_1, # of connection points: 2
#     Edge 12, Type (0, 0), BuildingBlock: FUNLAD_clean_linker_1, # of connection points: 2
#     Edge 13, Type (0, 0), BuildingBlock: FUNLAD_clean_linker_1, # of connection points: 2
#     Edge 14, Type (0, 0), BuildingBlock: FUNLAD_clean_linker_1, # of connection points: 2
#     Edge 15, Type (0, 0), BuildingBlock: FUNLAD_clean_linker_1, # of connection points: 2
# Relax obj value: 0.714
# Max RMSD: 0.267
# Mean RMSD: 0.264
data_MOF--net-snp--node1-JUFBIX_clean_sbu_0--edge1-FUNLAD_clean_linker_1
_symmetry_space_group_name_H-M    P1
_symmetry_Int_Tables_number       1
_symmetry_cell_setting            triclinic
loop_
_symmetry_equiv_pos_as_xyz
'x, y, z'
_cell_length_a     27.633231
_cell_length_b     27.199668
_cell_length_c     28.680957
_cell_angle_alpha  88.565535
_cell_angle_beta   97.010198
_cell_angle_gamma 97.914967
loop_
_atom_site_label
_atom_site_type_symbol
_atom_site_fract_x
_atom_site_fract_y
_atom_site_fract_z
_atom_type_partial_charge
Co0 Co 0.25482 0.06976 0.08634 0.0
C1 C 0.3456 0.03877 0.08195 0.0
Co2 Co 0.25616 0.01494 0.03064 0.0
C3 C 0.23408 0.11352 0.17208 0.0
C4 C 0.28496 0.16149 0.13532 0.0
N5 N 0.25668 0.1168 0.13267 0.0
N6 N 0.247 0.15439 0.19886 0.0
C7 C 0.27905 0.18468 0.17581 0.0
H8 H 0.20966 0.08127 0.18173 0.0
H9 H 0.30989 0.17564 0.11035 0.0
C10 C 0.16605 0.04645 0.03337 0.0
N11 N 0.25368 0.96868 0.98318 0.0
C12 C 0.22745 0.96934 0.9402 0.0
C13 C 0.27303 0.9257 0.98479 0.0
N14 N 0.22898 0.92841 0.91516 0.0
C15 C 0.25791 0.9008 0.94303 0.0
C16 C 0.23252 0.97312 0.11687 0.0
O17 O 0.18627 0.07119 0.06933 0.0
O18 O 0.19054 0.02012 0.01229 0.0
O19 O 0.23712 0.96254 0.07467 0.0
O20 O 0.24051 0.01817 0.12955 0.0
O21 O 0.32293 0.01063 0.0494 0.0
H22 H 0.29529 0.91254 0.01495 0.0
H23 H 0.20604 -0.00136 0.92798 0.0
O24 O 0.32278 0.06776 0.10243 0.0
O25 O 0.2686 0.1208 0.04265 0.0
O26 O 0.27364 0.06758 0.98783 0.0
C27 C 0.27565 0.11222 1.00104 0.0
H28 H 0.29888 0.21988 0.18832 0.0
H29 H 0.26636 0.86459 0.93477 0.0
Co30 Co 0.04513 0.25716 0.6702 0.0
C31 C 0.06414 0.34816 0.62714 0.0
Co32 Co 0.11003 0.26439 0.63102 0.0
C33 C -0.00634 0.22728 0.74855 0.0
C34 C 0.94931 0.26738 0.69909 0.0
N35 N -0.00629 0.25137 0.70686 0.0
N36 N 0.95132 0.22727 0.76717 0.0
C37 C 0.92303 0.25259 0.73626 0.0
H38 H 0.02408 0.20928 0.76481 0.0
H39 H 0.93669 0.28789 0.66822 0.0
C40 C 0.09112 0.17374 0.67443 0.0
N41 N 0.16161 0.26763 0.59492 0.0
C42 C 0.15936 0.27559 0.5481 0.0
C43 C 0.20577 0.25217 0.6074 0.0
N44 N 0.19945 0.26415 0.5307 0.0
C45 C 0.22911 0.24984 0.5679 0.0
C46 C 0.13628 0.29026 0.72231 0.0
O47 O 0.05506 0.19204 0.68671 0.0
O48 O 0.11984 0.19908 0.64889 0.0
O49 O 0.15341 0.28791 0.68352 0.0
O50 O 0.09008 0.28034 0.72377 0.0
O51 O 0.09981 0.32981 0.61347 0.0
H52 H 0.21865 0.24007 0.64239 0.0
H53 H 0.12723 0.28571 0.52649 0.0
O54 O 0.03572 0.32276 0.65315 0.0
O55 O 0.00067 0.23272 0.61583 0.0
O56 O 0.06611 0.23974 0.57865 0.0
C57 C 0.02016 0.22779 0.57849 0.0
H58 H 0.88599 0.25941 0.73973 0.0
H59 H 0.26408 0.2366 0.56647 0.0
Co60 Co 0.8041 0.01152 0.142 0.0
C61 C 0.8569 0.94749 0.10418 0.0
Co62 Co 0.76096 0.96473 0.08471 0.0
C63 C 0.82658 0.05339 0.23598 0.0
C64 C 0.88585 0.07076 0.19417 0.0
N65 N 0.83939 0.04737 0.19261 0.0
N66 N 0.86341 0.07909 0.26457 0.0
C67 C 0.90069 0.09033 0.23818 0.0
H68 H 0.79118 0.0385 0.24667 0.0
H69 H 0.90777 0.07299 0.16521 0.0
C70 C 0.70757 0.02813 0.12308 0.0
N71 N 0.72886 0.9289 0.03267 0.0
C72 C 0.74917 0.92446 0.9926 0.0
C73 C 0.68415 0.90154 0.02547 0.0
N74 N 0.71922 0.89534 0.96067 0.0
C75 C 0.67822 0.88079 0.98124 0.0
C76 C 0.75696 0.91973 0.17053 0.0
O77 O 0.74782 0.04156 0.14872 0.0
O78 O 0.70502 0.9946 0.09227 0.0
O79 O 0.74098 0.91267 0.12733 0.0
O80 O 0.78366 0.96019 0.18312 0.0
O81 O 0.817 0.93533 0.07804 0.0
H82 H 0.65793 0.89652 0.05085 0.0
H83 H 0.78584 0.94173 0.98756 0.0
O84 O 0.8596 0.98072 0.13491 0.0
O85 O 0.82476 0.06291 0.09945 0.0
O86 O 0.78113 0.01702 0.04325 0.0
C87 C 0.8091 0.0564 0.05627 0.0
H88 H 0.93604 0.11161 0.24943 0.0
H89 H 0.64641 0.85641 0.96556 0.0
Co90 Co 0.93982 0.78554 0.55039 0.0
C91 C 0.97785 0.8754 0.51407 0.0
Co92 Co -0.00147 0.7807 0.50435 0.0
C93 C 0.89601 0.81627 0.63047 0.0
C94 C 0.84499 0.76666 0.58587 0.0
N95 N 0.89152 0.79032 0.59011 0.0
N96 N 0.85444 0.80972 0.65155 0.0
C97 C 0.8221 0.77853 0.62341 0.0
H98 H 0.92957 0.83871 0.64492 0.0
H99 H 0.82885 0.7418 0.5576 0.0
C100 C 0.96116 0.69075 0.54146 0.0
N101 N 0.04757 0.77675 0.46558 0.0
C102 C 0.05539 0.80131 0.42486 0.0
C103 C 0.08669 0.75201 0.47571 0.0
N104 N 0.09808 0.79311 0.40972 0.0
C105 C 0.11789 0.76238 0.44177 0.0
C106 C 0.03487 0.79631 0.59823 0.0
O107 O 0.93384 0.71634 0.56036 0.0
O108 O -0.00812 0.71157 0.51504 0.0
O109 O 0.04739 0.79038 0.55778 0.0
O110 O 0.98953 0.79486 0.60291 0.0
O111 O 0.00453 0.84959 0.49471 0.0
H112 H 0.09309 0.72943 0.50686 0.0
H113 H 0.03165 0.82676 0.40814 0.0
O114 O 0.94667 0.85453 0.54001 0.0
O115 O 0.89133 0.77671 0.49698 0.0
O116 O 0.94957 0.77171 0.452 0.0
C117 C 0.90436 0.77164 0.45649 0.0
H118 H 0.78467 0.76495 0.62931 0.0
H119 H 0.15317 0.74944 0.44129 0.0
H120 H 0.93474 0.94274 0.11795 0.0
C121 C 0.90187 0.92984 0.09421 0.0
H122 H 0.87319 0.90233 0.02688 0.0
H123 H 0.03028 0.07535 0.98238 0.0
H124 H 0.96446 0.08134 0.91895 0.0
H125 H 0.89374 0.01484 0.90663 0.0
H126 H 0.8877 0.9429 0.95916 0.0
C127 C 0.90591 0.91225 0.05162 0.0
C128 C 0.95398 0.92541 0.03378 0.0
C129 C 0.95791 0.96541 1.0016 0.0
C130 C -0.00028 0.00222 1.00742 0.0
C131 C 0.00052 0.04493 0.97809 0.0
C132 C 0.96273 0.04904 0.94185 0.0
C133 C 0.92272 0.01179 0.93509 0.0
C134 C 0.91959 0.97086 0.96529 0.0
H135 H 0.1011 0.02566 0.98416 0.0
C136 C 0.11329 0.04035 0.01923 0.0
H137 H 0.09541 0.04456 0.08782 0.0
H138 H 0.96263 0.84174 0.08458 0.0
H139 H 0.03449 0.82491 0.13841 0.0
H140 H 0.10923 0.88611 0.14812 0.0
H141 H 0.11345 0.96455 0.1051 0.0
C142 C 0.08227 0.0341 0.05164 0.0
C143 C 0.03879 0.99586 0.04311 0.0
C144 C 0.03865 0.95011 0.06823 0.0
C145 C -0.00385 0.91438 0.06253 0.0
C146 C -0.00502 0.86947 0.08834 0.0
C147 C 0.03566 0.85957 0.11893 0.0
C148 C 0.07782 0.89423 0.12445 0.0
C149 C 0.07961 0.9391 0.09958 0.0
H150 H 0.02633 0.94332 0.50234 0.0
C151 C -0.00845 0.92918 0.51518 0.0
H152 H 0.93802 0.94268 0.55763 0.0
H153 H 0.109 0.0237 0.71255 0.0
H154 H 0.06665 0.9527 0.75102 0.0
H155 H -0.0033 0.89957 0.70803 0.0
H156 H 0.96985 0.91621 0.62643 0.0
C157 C 0.97257 0.95671 0.54446 0.0
C158 C 0.00704 0.99424 0.57246 0.0
C159 C 0.02266 0.98319 0.62014 0.0
C160 C 0.06199 0.01431 0.64529 0.0
C161 C 0.078 0.00201 0.69245 0.0
C162 C 0.05428 0.96126 0.71482 0.0
C163 C 0.01516 0.93118 0.69052 0.0
C164 C -2e-05 0.9413 0.64357 0.0
H165 H 0.0603 0.10114 0.69598 0.0
C166 C 0.09217 0.12062 0.68129 0.0
H167 H 0.148 0.1153 0.63914 0.0
H168 H 0.98288 0.02689 0.48286 0.0
H169 H 0.01853 0.103 0.44719 0.0
H170 H 0.08471 0.15935 0.49176 0.0
H171 H 0.11634 0.1397 0.57092 0.0
C172 C 0.11538 0.09633 0.65277 0.0
C173 C 0.08396 0.05756 0.62348 0.0
C174 C 0.06754 0.06925 0.57602 0.0
C175 C 0.02904 0.0373 0.55049 0.0
C176 C 0.01228 0.04993 0.50364 0.0
C177 C 0.03235 0.09351 0.48276 0.0
C178 C 0.06968 0.12513 0.50776 0.0
C179 C 0.08733 0.11335 0.55366 0.0
H180 H 0.66662 0.07736 0.15837 0.0
C181 C 0.66369 0.04993 0.13086 0.0
H182 H 0.61644 0.00769 0.07858 0.0
H183 H 0.44224 0.03224 0.20295 0.0
H184 H 0.48127 0.97661 0.25896 0.0
H185 H 0.56373 0.95537 0.25027 0.0
H186 H 0.60764 0.98953 0.18596 0.0
C187 C 0.62003 0.03458 0.10661 0.0
C188 C 0.57501 0.05336 0.11698 0.0
C189 C 0.55061 0.0333 0.1553 0.0
C190 C 0.50299 0.04486 0.16003 0.0
C191 C 0.47843 0.02395 0.19781 0.0
C192 C 0.50044 0.9922 0.23012 0.0
C193 C 0.54689 0.98031 0.22526 0.0
C194 C 0.57178 0.00031 0.18823 0.0
H195 H 0.41603 0.01218 0.07687 0.0
C196 C 0.39857 0.03931 0.09375 0.0
H197 H 0.41038 0.1026 0.13779 0.0
H198 H 0.61575 0.10364 0.04422 0.0
H199 H 0.57745 0.16156 0.99047 0.0
H200 H 0.49437 0.18129 0.9989 0.0
H201 H 0.44915 0.14318 0.06129 0.0
C202 C 0.42626 0.074 0.12141 0.0
C203 C 0.48011 0.07546 0.12612 0.0
C204 C 0.50641 0.09933 0.0907 0.0
C205 C 0.55404 0.08799 0.0859 0.0
C206 C 0.5792 0.11091 0.04923 0.0
C207 C 0.55769 0.14425 0.01826 0.0
C208 C 0.51091 0.15535 0.023 0.0
C209 C 0.48532 0.13317 0.05873 0.0
H210 H 0.0803 0.41851 0.58908 0.0
C211 C 0.05489 0.39783 0.61093 0.0
H212 H 0.98947 0.39761 0.64267 0.0
H213 H 0.02965 0.63586 0.62869 0.0
H214 H 0.05635 0.62437 0.71141 0.0
H215 H 0.05999 0.5404 0.74511 0.0
H216 H 0.03716 0.46743 0.696 0.0
C217 C 0.0152 0.41715 0.62051 0.0
C218 C 0.00638 0.46652 0.60158 0.0
C219 C 0.01832 0.50841 0.63109 0.0
C220 C 0.01521 0.55657 0.61186 0.0
C221 C 0.02979 0.59819 0.64162 0.0
C222 C 0.04557 0.59216 0.68918 0.0
C223 C 0.0477 0.5449 0.70813 0.0
C224 C 0.0345 0.50337 0.67956 0.0
H225 H 0.9332 0.62157 0.57646 0.0
C226 C 0.9602 0.63817 0.55405 0.0
H227 H 0.02257 0.62804 0.52104 0.0
H228 H 0.97638 0.39286 0.53674 0.0
H229 H 0.94814 0.40405 0.45413 0.0
H230 H 0.94294 0.48781 0.4205 0.0
H231 H 0.96568 0.56094 0.46943 0.0
C232 C -0.00486 0.61229 0.54332 0.0
C233 C -0.00125 0.56223 0.56343 0.0
C234 C 0.98581 0.52021 0.53416 0.0
C235 C 0.9893 0.47211 0.55337 0.0
C236 C 0.97526 0.43042 0.52371 0.0
C237 C 0.95879 0.43629 0.47628 0.0
C238 C 0.95578 0.48345 0.45737 0.0
C239 C 0.96899 0.52509 0.48582 0.0
H240 H 0.18329 0.28292 0.45663 0.0
C241 C 0.20433 0.26086 0.48157 0.0
H242 H 0.25038 0.20462 0.48975 0.0
H243 H 0.14728 0.18096 0.26746 0.0
H244 H 0.07026 0.15771 0.29995 0.0
H245 H 0.06667 0.16156 0.3853 0.0
H246 H 0.13997 0.18947 0.43837 0.0
C247 C 0.22988 0.22763 0.46546 0.0
C248 C 0.23207 0.22177 0.41433 0.0
C249 C 0.18922 0.20341 0.38392 0.0
C250 C 0.19174 0.19891 0.33499 0.0
C251 C 0.1479 0.18316 0.30512 0.0
C252 C 0.10333 0.16999 0.32327 0.0
C253 C 0.10128 0.17231 0.37128 0.0
C254 C 0.14358 0.18874 0.40137 0.0
H255 H 0.22061 0.1277 0.26482 0.0
C256 C 0.23449 0.16046 0.24544 0.0
H257 H 0.25519 0.23807 0.24709 0.0
H258 H 0.321 0.25742 0.46299 0.0
H259 H 0.39886 0.27639 0.43123 0.0
H260 H 0.40414 0.26482 0.34707 0.0
H261 H 0.33161 0.23457 0.29413 0.0
C262 C 0.24146 0.20512 0.26611 0.0
C263 C 0.23757 0.21051 0.31695 0.0
C264 C 0.28056 0.22783 0.34754 0.0
C265 C 0.27773 0.23365 0.39621 0.0
C266 C 0.32112 0.25166 0.42582 0.0
C267 C 0.36609 0.2628 0.40805 0.0
C268 C 0.36904 0.25635 0.36067 0.0
C269 C 0.32698 0.23908 0.33062 0.0
H270 H 0.968 0.1818 0.82894 0.0
C271 C 0.94067 0.20283 0.81061 0.0
H272 H 0.8701 0.2242 0.81176 0.0
H273 H 0.80234 0.04075 0.94105 0.0
H274 H 0.75424 0.01722 0.86687 0.0
H275 H 0.76687 0.06661 0.795 0.0
H276 H 0.82802 0.13989 0.79704 0.0
C277 C 0.89893 0.20487 0.82963 0.0
C278 C 0.8896 0.17707 0.87389 0.0
C279 C 0.85239 0.13545 0.87247 0.0
C280 C 0.84448 0.10745 0.91409 0.0
C281 C 0.80876 0.06453 0.91104 0.0
C282 C 0.78116 0.05022 0.86848 0.0
C283 C 0.78836 0.07799 0.82802 0.0
C284 C 0.82354 0.12006 0.82974 0.0
H285 H 0.79513 0.11547 1.00478 0.0
C286 C 0.82288 0.09346 0.02063 0.0
H287 H 0.89166 0.06983 0.016 0.0
H288 H 0.96239 0.2563 0.88986 0.0
H289 H 0.01364 0.27687 0.96333 0.0
H290 H 0.00148 0.22663 0.03482 0.0
H291 H 0.93756 0.1557 0.03329 0.0
C292 C 0.86447 0.09298 1.00109 0.0
C293 C 0.87326 0.12166 0.95731 0.0
C294 C 0.91122 0.16244 0.95854 0.0
C295 C 0.91897 0.19066 0.917 0.0
C296 C 0.9559 0.23248 0.91984 0.0
C297 C 0.98538 0.24497 0.96193 0.0
C298 C 0.97848 0.21674 1.0022 0.0
C299 C 0.94169 0.17611 1.00082 0.0
H300 H 0.88452 0.77697 0.38056 0.0
C301 C 0.86915 0.77277 0.41382 0.0
H302 H 0.80595 0.77363 0.44797 0.0
H303 H 0.74265 0.93844 0.30195 0.0
H304 H 0.74074 0.97646 0.37742 0.0
H305 H 0.76178 0.9317 0.45141 0.0
H306 H 0.78449 0.84888 0.45051 0.0
C307 C 0.82128 0.77653 0.41475 0.0
C308 C 0.79272 0.79562 0.37229 0.0
C309 C 0.77742 0.84313 0.37381 0.0
C310 C 0.766 0.86921 0.33127 0.0
C311 C 0.75246 0.91742 0.33343 0.0
C312 C 0.75099 0.93952 0.37642 0.0
C313 C 0.76279 0.9143 0.41806 0.0
C314 C 0.77593 0.86671 0.41701 0.0
H315 H 0.71664 0.85137 0.19942 0.0
C316 C 0.7472 0.88094 0.20638 0.0
H317 H 0.80752 0.91239 0.25325 0.0
H318 H 0.80437 0.69963 0.35821 0.0
H319 H 0.80536 0.66076 0.28271 0.0
H320 H 0.79188 0.70796 0.20873 0.0
H321 H 0.77621 0.79336 0.20948 0.0
C322 C 0.77723 0.88231 0.24708 0.0
C323 C 0.77043 0.84805 0.28757 0.0
C324 C 0.77964 0.79814 0.28593 0.0
C325 C 0.78952 0.77151 0.32856 0.0
C326 C 0.79814 0.72161 0.32659 0.0
C327 C 0.79859 0.69896 0.28365 0.0
C328 C 0.79088 0.72552 0.24199 0.0
C329 C 0.78175 0.77462 0.24291 0.0
H330 H 0.11114 0.80468 0.63408 0.0
C331 C 0.07307 0.80678 0.63888 0.0
H332 H 0.02404 0.82212 0.68562 0.0
H333 H 0.1491 0.79953 0.87873 0.0
H334 H 0.0853 0.729 0.87985 0.0
H335 H 0.02825 0.70487 0.80865 0.0
H336 H 0.03447 0.75129 0.73595 0.0
C337 C 0.06222 0.82125 0.68047 0.0
C338 C 0.10026 0.83362 0.72169 0.0
C339 C 0.09684 0.80555 0.76381 0.0
C340 C 0.13038 0.81891 0.80468 0.0
C341 C 0.12519 0.7907 0.84644 0.0
C342 C 0.08862 0.75013 0.84764 0.0
C343 C 0.05645 0.7366 0.80759 0.0
C344 C 0.06035 0.76376 0.7661 0.0
H345 H 0.17605 0.94216 0.85497 0.0
C346 C 0.20066 0.91648 0.87015 0.0
H347 H 0.22499 0.8472 0.86197 0.0
H348 H 0.11508 0.89885 0.64837 0.0
H349 H 0.18028 0.96766 0.64671 0.0
H350 H 0.24163 0.98725 0.71593 0.0
H351 H 0.23763 0.93827 0.78748 0.0
C352 C 0.20194 0.87423 0.84708 0.0
C353 C 0.16766 0.86023 0.8035 0.0
C354 C 0.17184 0.88772 0.76109 0.0
C355 C 0.13767 0.87497 0.7204 0.0
C356 C 0.14123 0.90501 0.67955 0.0
C357 C 0.17833 0.94507 0.67822 0.0
C358 C 0.21267 0.95628 0.71728 0.0
C359 C 0.20973 0.92803 0.75826 0.0
H360 H 0.70176 0.85273 0.89578 0.0
C361 C 0.72872 0.88016 0.915 0.0
H362 H 0.79761 0.92503 0.91406 0.0
H363 H 0.87857 0.78793 0.77519 0.0
H364 H 0.93023 0.77581 0.84783 0.0
H365 H 0.91435 0.81096 0.92205 0.0
H366 H 0.84629 0.85796 0.92412 0.0
C367 C 0.76973 0.89819 0.8955 0.0
C368 C 0.78056 0.87953 0.84967 0.0
C369 C 0.8212 0.85296 0.84866 0.0
C370 C 0.83097 0.83346 0.80553 0.0
C371 C 0.87031 0.80499 0.80638 0.0
C372 C 0.90012 0.79738 0.84799 0.0
C373 C 0.89115 0.81712 0.88979 0.0
C374 C 0.85202 0.84424 0.89042 0.0
H375 H 0.87712 0.85936 0.71138 0.0
C376 C 0.84801 0.83169 0.69547 0.0
H377 H 0.77813 0.79151 0.70237 0.0
H378 H 0.70434 0.93489 0.83763 0.0
H379 H 0.6548 0.95033 0.76447 0.0
H380 H 0.67115 0.91618 0.68997 0.0
H381 H 0.73749 0.86674 0.68813 0.0
C382 C 0.80799 0.81838 0.71795 0.0
C383 C 0.80079 0.84163 0.76303 0.0
C384 C 0.76126 0.86978 0.76386 0.0
C385 C 0.75136 0.88899 0.80702 0.0
C386 C 0.71273 0.91835 0.80621 0.0
C387 C 0.68416 0.92778 0.76436 0.0
C388 C 0.69339 0.90859 0.72242 0.0
C389 C 0.73148 0.88005 0.72192 0.0
H390 H 0.19648 0.89852 0.13557 0.0
C391 C 0.21278 0.93454 0.14965 0.0
H392 H 0.226 0.98182 0.20814 0.0
H393 H 0.05687 0.91172 0.32503 0.0
H394 H 0.03887 0.99299 0.29813 0.0
H395 H 0.08293 0.03801 0.23681 0.0
H396 H 0.14586 0.00238 0.20262 0.0
C397 C 0.21014 0.94527 0.19494 0.0
C398 C 0.17894 0.91349 0.22634 0.0
C399 C 0.14057 0.93381 0.24476 0.0
C400 C 0.11375 0.90695 0.27888 0.0
C401 C 0.07754 0.92962 0.29818 0.0
C402 C 0.06685 0.97644 0.28313 0.0
C403 C 0.09174 0.00185 0.24872 0.0
C404 C 0.12811 0.98101 0.22963 0.0
H405 H 0.16237 0.82086 0.37494 0.0
C406 C 0.1224 0.81679 0.37165 0.0
H407 H 0.05776 0.82781 0.32812 0.0
H408 H 0.25123 0.86372 0.20065 0.0
H409 H 0.26272 0.77868 0.2204 0.0
H410 H 0.20857 0.72803 0.27076 0.0
H411 H 0.14369 0.76277 0.30299 0.0
C412 C 0.09769 0.8323 0.33181 0.0
C413 C 0.12386 0.85876 0.29346 0.0
C414 C 0.15933 0.83675 0.27196 0.0
C415 C 0.18823 0.86481 0.23995 0.0
C416 C 0.22641 0.84337 0.22286 0.0
C417 C 0.23367 0.79462 0.23421 0.0
C418 C 0.20335 0.76619 0.26277 0.0
C419 C 0.16656 0.78678 0.28147 0.0
H420 H 0.20746 0.28285 0.76141 0.0
C421 C 0.17063 0.29039 0.7657 0.0
H422 H 0.11806 0.29264 0.81202 0.0
H423 H 0.17448 0.1023 0.92261 0.0
H424 H 0.08584 0.08664 0.90712 0.0
H425 H 0.03918 0.1473 0.86329 0.0
H426 H 0.08062 0.22415 0.83508 0.0
C427 C 0.15484 0.28491 0.80826 0.0
C428 C 0.1809 0.25496 0.84514 0.0
C429 C 0.15544 0.2101 0.86166 0.0
C430 C 0.18234 0.17477 0.88664 0.0
C431 C 0.15617 0.13026 0.90285 0.0
C432 C 0.10513 0.12072 0.89434 0.0
C433 C 0.07888 0.15491 0.86962 0.0
C434 C 0.10343 0.19898 0.85332 0.0
H435 H 0.27776 0.19072 0.98199 0.0
C436 C 0.27638 0.15389 0.96748 0.0
H437 H 0.25652 0.10956 0.90738 0.0
H438 H 0.23833 0.34298 0.83183 0.0
H439 H 0.32723 0.36058 0.85101 0.0
H440 H 0.37465 0.29694 0.88922 0.0
H441 H 0.33346 0.21578 0.90935 0.0
C442 C 0.26138 0.1468 0.92169 0.0
C443 C 0.23442 0.18442 0.89533 0.0
C444 C 0.25935 0.23081 0.88236 0.0
C445 C 0.23235 0.26664 0.85837 0.0
C446 C 0.25763 0.31375 0.84811 0.0
C447 C 0.30845 0.32441 0.8593 0.0
C448 C 0.33512 0.28863 0.88096 0.0
C449 C 0.31104 0.24228 0.89246 0.0
H450 H 0.82629 0.0905 0.32586 0.0
C451 C 0.86179 0.09278 0.31268 0.0
H452 H 0.93868 0.11133 0.32867 0.0
H453 H 0.93894 0.27204 0.47971 0.0
H454 H 0.94581 0.32538 0.41093 0.0
H455 H 0.93282 0.28996 0.33135 0.0
H456 H 0.91232 0.20107 0.31993 0.0
C457 C 0.90299 0.10894 0.34128 0.0
C458 C 0.90235 0.13012 0.38862 0.0
C459 C 0.91451 0.18207 0.39477 0.0
C460 C 0.92321 0.2024 0.44069 0.0
C461 C 0.93384 0.25458 0.44564 0.0
C462 C 0.93741 0.28562 0.40649 0.0
C463 C 0.93005 0.26567 0.36167 0.0
C464 C 0.91854 0.21456 0.35563 0.0
H465 H 0.01258 0.21026 0.50396 0.0
C466 C -0.00808 0.20902 0.53403 0.0
H467 H 0.92272 0.18616 0.5576 0.0
H468 H 0.87338 0.02987 0.38905 0.0
H469 H 0.86265 0.97718 0.45771 0.0
H470 H 0.87835 0.01248 0.5374 0.0
H471 H 0.90554 0.10054 0.54909 0.0
C472 C 0.94409 0.18996 0.52804 0.0
C473 C 0.92166 0.17061 0.48066 0.0
C474 C 0.90474 0.11926 0.4744 0.0
C475 C 0.89527 0.09892 0.42828 0.0
C476 C 0.88048 0.04724 0.42316 0.0
C477 C 0.87418 0.01662 0.46226 0.0
C478 C 0.88308 0.0365 0.50716 0.0
C479 C 0.89867 0.0871 0.5134 0.0
loop_
_geom_bond_atom_site_label_1
_geom_bond_atom_site_label_2
_geom_bond_distance
_geom_bond_site_symmetry_2
_ccdc_geom_bond_type
Co0 N5 2.057 . S
Co0 O17 2.021 . S
Co0 O20 2.062 . S
Co0 O24 2.117 . S
Co0 O25 2.020 . S
C1 O21 1.259 . S
C1 O24 1.258 . S
Co2 N11 2.057 1_544 S
Co2 O18 2.117 . S
Co2 O19 2.020 1_545 S
Co2 O21 2.021 . S
Co2 O26 2.062 1_554 S
C3 N5 1.316 . S
C3 N6 1.347 . S
C3 H8 0.931 . S
C4 N5 1.375 . S
C4 C7 1.350 . S
C4 H9 0.930 . S
N5 Co0 2.057 . S
N5 C3 1.316 . S
N5 C4 1.375 . S
N6 C3 1.347 . S
N6 C7 1.373 . S
C7 C4 1.350 . S
C7 N6 1.373 . S
C7 H28 0.931 . S
H8 C3 0.931 . S
H9 C4 0.930 . S
C10 O17 1.259 . S
C10 O18 1.258 . S
N11 Co2 2.057 1_566 S
N11 C12 1.316 . S
N11 C13 1.375 . S
C12 N11 1.316 . S
C12 N14 1.347 . S
C12 H23 0.931 . S
C13 N11 1.375 . S
C13 C15 1.350 . S
C13 H22 0.930 . S
N14 C12 1.347 . S
N14 C15 1.373 . S
C15 C13 1.350 . S
C15 N14 1.373 . S
C15 H29 0.931 . S
C16 O19 1.256 . S
C16 O20 1.255 1_565 S
O17 Co0 2.021 . S
O17 C10 1.259 . S
O18 Co2 2.117 . S
O18 C10 1.258 . S
O19 Co2 2.020 1_565 S
O19 C16 1.256 . S
O20 Co0 2.062 . S
O20 C16 1.255 1_545 S
O21 C1 1.259 . S
O21 Co2 2.021 . S
H22 C13 0.930 . S
H23 C12 0.931 . S
O24 Co0 2.117 . S
O24 C1 1.258 . S
O25 Co0 2.020 . S
O25 C27 1.256 1_554 S
O26 Co2 2.062 1_556 S
O26 C27 1.255 . S
C27 O25 1.256 1_556 S
C27 O26 1.255 . S
H28 C7 0.931 . S
H29 C15 0.931 . S
Co30 N35 2.057 1_455 S
Co30 O47 2.021 . S
Co30 O50 2.062 . S
Co30 O54 2.117 . S
Co30 O55 2.020 1_455 S
C31 O51 1.259 . S
C31 O54 1.258 . S
Co32 N41 2.057 . S
Co32 O48 2.117 . S
Co32 O49 2.020 . S
Co32 O51 2.021 . S
Co32 O56 2.062 . S
C33 N35 1.316 . S
C33 N36 1.347 . S
C33 H38 0.931 . S
C34 N35 1.375 . S
C34 C37 1.350 . S
C34 H39 0.930 . S
N35 Co30 2.057 1_655 S
N35 C33 1.316 . S
N35 C34 1.375 . S
N36 C33 1.347 . S
N36 C37 1.373 . S
C37 C34 1.350 . S
C37 N36 1.373 . S
C37 H58 0.931 . S
H38 C33 0.931 . S
H39 C34 0.930 . S
C40 O47 1.259 . S
C40 O48 1.258 . S
N41 Co32 2.057 . S
N41 C42 1.316 . S
N41 C43 1.375 . S
C42 N41 1.316 . S
C42 N44 1.347 . S
C42 H53 0.931 . S
C43 N41 1.375 . S
C43 C45 1.350 . S
C43 H52 0.930 . S
N44 C42 1.347 . S
N44 C45 1.373 . S
C45 C43 1.350 . S
C45 N44 1.373 . S
C45 H59 0.931 . S
C46 O49 1.256 . S
C46 O50 1.255 . S
O47 Co30 2.021 . S
O47 C40 1.259 . S
O48 Co32 2.117 . S
O48 C40 1.258 . S
O49 Co32 2.020 . S
O49 C46 1.256 . S
O50 Co30 2.062 . S
O50 C46 1.255 . S
O51 C31 1.259 . S
O51 Co32 2.021 . S
H52 C43 0.930 . S
H53 C42 0.931 . S
O54 Co30 2.117 . S
O54 C31 1.258 . S
O55 Co30 2.020 1_655 S
O55 C57 1.256 . S
O56 Co32 2.062 . S
O56 C57 1.255 1_455 S
C57 O55 1.256 . S
C57 O56 1.255 1_655 S
H58 C37 0.931 . S
H59 C45 0.931 . S
Co60 N65 2.057 . S
Co60 O77 2.021 . S
Co60 O80 2.062 1_545 S
Co60 O84 2.117 . S
Co60 O85 2.020 . S
C61 O81 1.259 . S
C61 O84 1.258 1_565 S
Co62 N71 2.057 . S
Co62 O78 2.117 . S
Co62 O79 2.020 . S
Co62 O81 2.021 . S
Co62 O86 2.062 1_565 S
C63 N65 1.316 . S
C63 N66 1.347 . S
C63 H68 0.931 . S
C64 N65 1.375 . S
C64 C67 1.350 . S
C64 H69 0.930 . S
N65 Co60 2.057 . S
N65 C63 1.316 . S
N65 C64 1.375 . S
N66 C63 1.347 . S
N66 C67 1.373 . S
C67 C64 1.350 . S
C67 N66 1.373 . S
C67 H88 0.931 . S
H68 C63 0.931 . S
H69 C64 0.930 . S
C70 O77 1.259 . S
C70 O78 1.258 1_545 S
N71 Co62 2.057 . S
N71 C72 1.316 1_554 S
N71 C73 1.375 . S
C72 N71 1.316 1_556 S
C72 N74 1.347 . S
C72 H83 0.931 . S
C73 N71 1.375 . S
C73 C75 1.350 1_554 S
C73 H82 0.930 . S
N74 C72 1.347 . S
N74 C75 1.373 . S
C75 C73 1.350 1_556 S
C75 N74 1.373 . S
C75 H89 0.931 . S
C76 O79 1.256 . S
C76 O80 1.255 . S
O77 Co60 2.021 . S
O77 C70 1.259 . S
O78 Co62 2.117 . S
O78 C70 1.258 1_565 S
O79 Co62 2.020 . S
O79 C76 1.256 . S
O80 Co60 2.062 1_565 S
O80 C76 1.255 . S
O81 C61 1.259 . S
O81 Co62 2.021 . S
H82 C73 0.930 . S
H83 C72 0.931 . S
O84 Co60 2.117 . S
O84 C61 1.258 1_545 S
O85 Co60 2.020 . S
O85 C87 1.256 . S
O86 Co62 2.062 1_545 S
O86 C87 1.255 . S
C87 O85 1.256 . S
C87 O86 1.255 . S
H88 C67 0.931 . S
H89 C75 0.931 . S
Co90 N95 2.057 . S
Co90 O107 2.021 . S
Co90 O110 2.062 1_655 S
Co90 O114 2.117 . S
Co90 O115 2.020 . S
C91 O111 1.259 . S
C91 O114 1.258 1_455 S
Co92 N101 2.057 . S
Co92 O108 2.117 . S
Co92 O109 2.020 . S
Co92 O111 2.021 . S
Co92 O116 2.062 1_455 S
C93 N95 1.316 . S
C93 N96 1.347 . S
C93 H98 0.931 . S
C94 N95 1.375 . S
C94 C97 1.350 . S
C94 H99 0.930 . S
N95 Co90 2.057 . S
N95 C93 1.316 . S
N95 C94 1.375 . S
N96 C93 1.347 . S
N96 C97 1.373 . S
C97 C94 1.350 . S
C97 N96 1.373 . S
C97 H118 0.931 . S
H98 C93 0.931 . S
H99 C94 0.930 . S
C100 O107 1.259 . S
C100 O108 1.258 1_655 S
N101 Co92 2.057 . S
N101 C102 1.316 . S
N101 C103 1.375 . S
C102 N101 1.316 . S
C102 N104 1.347 . S
C102 H113 0.931 . S
C103 N101 1.375 . S
C103 C105 1.350 . S
C103 H112 0.930 . S
N104 C102 1.347 . S
N104 C105 1.373 . S
C105 C103 1.350 . S
C105 N104 1.373 . S
C105 H119 0.931 . S
C106 O109 1.256 . S
C106 O110 1.255 . S
O107 Co90 2.021 . S
O107 C100 1.259 . S
O108 Co92 2.117 . S
O108 C100 1.258 1_455 S
O109 Co92 2.020 . S
O109 C106 1.256 . S
O110 Co90 2.062 1_455 S
O110 C106 1.255 . S
O111 C91 1.259 . S
O111 Co92 2.021 . S
H112 C103 0.930 . S
H113 C102 0.931 . S
O114 Co90 2.117 . S
O114 C91 1.258 1_655 S
O115 Co90 2.020 . S
O115 C117 1.256 . S
O116 Co92 2.062 1_655 S
O116 C117 1.255 . S
C117 O115 1.256 . S
C117 O116 1.255 . S
H118 C97 0.931 . S
H119 C105 0.931 . S
H120 C121 0.954 . S
C121 H120 0.954 . S
C121 C127 1.264 . S
H122 C127 0.948 1_565 S
H123 C131 0.949 . S
H124 C132 0.950 1_556 S
H125 C133 0.951 1_556 S
H126 C134 0.951 . S
C127 C121 1.264 . S
C127 H122 0.948 1_545 S
C127 C128 1.478 . S
C128 C127 1.478 . S
C128 C129 1.397 . S
C128 C145 1.394 1_645 S
C129 C128 1.397 . S
C129 C130 1.438 1_655 S
C129 C134 1.429 . S
C130 C129 1.438 1_455 S
C130 C131 1.428 . S
C130 C143 1.394 . S
C131 H123 0.949 . S
C131 C130 1.428 . S
C131 C132 1.345 . S
C132 H124 0.950 1_554 S
C132 C131 1.345 . S
C132 C133 1.424 1_455 S
C133 H125 0.951 1_554 S
C133 C132 1.424 1_655 S
C133 C134 1.347 . S
C134 H126 0.951 . S
C134 C129 1.429 . S
C134 C133 1.347 . S
H135 C136 0.951 . S
C136 H135 0.951 . S
C136 C142 1.265 . S
H137 C142 0.950 . S
H138 C146 0.949 . S
H139 C147 0.950 1_655 S
H140 C148 0.951 . S
H141 C149 0.951 . S
C142 C136 1.265 . S
C142 H137 0.950 . S
C142 C143 1.478 . S
C143 C130 1.394 . S
C143 C142 1.478 . S
C143 C144 1.397 1_545 S
C144 C143 1.397 1_565 S
C144 C145 1.438 . S
C144 C149 1.429 . S
C145 C128 1.394 1_465 S
C145 C144 1.438 . S
C145 C146 1.428 1_455 S
C146 H138 0.949 . S
C146 C145 1.428 1_655 S
C146 C147 1.345 1_655 S
C147 H139 0.950 1_455 S
C147 C146 1.345 1_455 S
C147 C148 1.424 . S
C148 H140 0.951 . S
C148 C147 1.424 . S
C148 C149 1.347 . S
C149 H141 0.951 . S
C149 C144 1.429 . S
C149 C148 1.347 . S
H150 C151 0.951 . S
C151 H150 0.951 . S
C151 C157 1.265 1_455 S
H152 C157 0.950 . S
H153 C161 0.949 . S
H154 C162 0.950 . S
H155 C163 0.951 . S
H156 C164 0.951 . S
C157 C151 1.265 1_655 S
C157 H152 0.950 . S
C157 C158 1.478 1_655 S
C158 C157 1.478 1_455 S
C158 C159 1.397 . S
C158 C175 1.394 1_565 S
C159 C158 1.397 . S
C159 C160 1.438 1_565 S
C159 C164 1.429 1_455 S
C160 C159 1.438 1_545 S
C160 C161 1.428 . S
C160 C173 1.394 . S
C161 H153 0.949 . S
C161 C160 1.428 . S
C161 C162 1.345 1_455 S
C162 H154 0.950 . S
C162 C161 1.345 1_655 S
C162 C163 1.424 1_545 S
C163 H155 0.951 . S
C163 C162 1.424 1_565 S
C163 C164 1.347 . S
C164 H156 0.951 . S
C164 C159 1.429 1_655 S
C164 C163 1.347 . S
H165 C166 0.951 . S
C166 H165 0.951 . S
C166 C172 1.265 . S
H167 C172 0.950 . S
H168 C176 0.949 . S
H169 C177 0.950 . S
H170 C178 0.951 . S
H171 C179 0.951 . S
C172 C166 1.265 . S
C172 H167 0.950 . S
C172 C173 1.478 . S
C173 C160 1.394 . S
C173 C172 1.478 . S
C173 C174 1.397 . S
C174 C173 1.397 . S
C174 C175 1.438 . S
C174 C179 1.429 . S
C175 C158 1.394 1_545 S
C175 C174 1.438 . S
C175 C176 1.428 1_545 S
C176 H168 0.949 . S
C176 C175 1.428 1_565 S
C176 C177 1.345 1_565 S
C177 H169 0.950 . S
C177 C176 1.345 1_545 S
C177 C178 1.424 . S
C178 H170 0.951 . S
C178 C177 1.424 . S
C178 C179 1.347 . S
C179 H171 0.951 . S
C179 C174 1.429 . S
C179 C178 1.347 . S
H180 C181 0.951 . S
C181 H180 0.951 . S
C181 C187 1.265 1_545 S
H182 C187 0.950 . S
H183 C191 0.949 . S
H184 C192 0.950 . S
H185 C193 0.951 . S
H186 C194 0.942 1_565 S
C187 C181 1.265 1_565 S
C187 H182 0.950 . S
C187 C188 1.478 1_565 S
C188 C187 1.478 1_545 S
C188 C189 1.397 . S
C188 C205 1.394 . S
C189 C188 1.397 . S
C189 C190 1.438 . S
C189 C194 1.429 . S
C190 C189 1.438 . S
C190 C191 1.428 . S
C190 C203 1.394 . S
C191 H183 0.949 . S
C191 C190 1.428 . S
C191 C192 1.345 . S
C192 H184 0.950 . S
C192 C191 1.345 . S
C192 C193 1.424 . S
C193 H185 0.951 . S
C193 C192 1.424 . S
C193 C194 1.347 . S
C194 H186 0.942 1_545 S
C194 C189 1.429 . S
C194 C193 1.347 . S
H195 C196 0.951 . S
C196 H195 0.951 . S
C196 C202 1.265 . S
H197 C202 0.950 . S
H198 C206 0.949 . S
H199 C207 0.950 1_565 S
H200 C208 0.951 . S
H201 C209 0.951 . S
C202 C196 1.265 . S
C202 H197 0.950 . S
C202 C203 1.478 . S
C203 C190 1.394 . S
C203 C202 1.478 . S
C203 C204 1.397 . S
C204 C203 1.397 . S
C204 C205 1.438 . S
C204 C209 1.429 1_554 S
C205 C188 1.394 . S
C205 C204 1.438 . S
C205 C206 1.428 1_545 S
C206 H198 0.949 . S
C206 C205 1.428 1_565 S
C206 C207 1.345 1_564 S
C207 H199 0.950 1_545 S
C207 C206 1.345 1_546 S
C207 C208 1.424 . S
C208 H200 0.951 . S
C208 C207 1.424 . S
C208 C209 1.347 . S
C209 H201 0.951 . S
C209 C204 1.429 1_556 S
C209 C208 1.347 . S
H210 C211 0.951 . S
C211 H210 0.951 . S
C211 C217 1.265 . S
H212 C217 0.950 1_655 S
H213 C221 0.949 . S
H214 C222 0.950 . S
H215 C223 0.951 . S
H216 C224 0.951 . S
C217 C211 1.265 . S
C217 H212 0.950 1_455 S
C217 C218 1.478 . S
C218 C217 1.478 . S
C218 C219 1.397 1_455 S
C218 C235 1.394 . S
C219 C218 1.397 1_655 S
C219 C220 1.438 . S
C219 C224 1.429 . S
C220 C219 1.438 . S
C220 C221 1.428 . S
C220 C233 1.394 1_655 S
C221 H213 0.949 . S
C221 C220 1.428 . S
C221 C222 1.345 . S
C222 H214 0.950 . S
C222 C221 1.345 . S
C222 C223 1.424 . S
C223 H215 0.951 . S
C223 C222 1.424 . S
C223 C224 1.347 . S
C224 H216 0.951 . S
C224 C219 1.429 . S
C224 C223 1.347 . S
H225 C226 0.951 . S
C226 H225 0.951 . S
C226 C232 1.265 1_655 S
H227 C232 0.950 . S
H228 C236 0.949 . S
H229 C237 0.950 . S
H230 C238 0.951 . S
H231 C239 0.951 . S
C232 C226 1.265 1_455 S
C232 H227 0.950 . S
C232 C233 1.478 . S
C233 C220 1.394 1_455 S
C233 C232 1.478 . S
C233 C234 1.397 . S
C234 C233 1.397 . S
C234 C235 1.438 . S
C234 C239 1.429 . S
C235 C218 1.394 . S
C235 C234 1.438 . S
C235 C236 1.428 . S
C236 H228 0.949 . S
C236 C235 1.428 . S
C236 C237 1.345 . S
C237 H229 0.950 . S
C237 C236 1.345 . S
C237 C238 1.424 . S
C238 H230 0.951 . S
C238 C237 1.424 . S
C238 C239 1.347 . S
C239 H231 0.951 . S
C239 C234 1.429 . S
C239 C238 1.347 . S
H240 C241 0.951 . S
C241 H240 0.951 . S
C241 C247 1.265 . S
H242 C247 0.950 . S
H243 C251 0.949 . S
H244 C252 0.950 . S
H245 C253 0.951 . S
H246 C254 0.951 . S
C247 C241 1.265 . S
C247 H242 0.950 . S
C247 C248 1.478 . S
C248 C247 1.478 . S
C248 C249 1.397 . S
C248 C265 1.394 . S
C249 C248 1.397 . S
C249 C250 1.438 . S
C249 C254 1.429 . S
C250 C249 1.438 . S
C250 C251 1.428 . S
C250 C263 1.394 . S
C251 H243 0.949 . S
C251 C250 1.428 . S
C251 C252 1.345 . S
C252 H244 0.950 . S
C252 C251 1.345 . S
C252 C253 1.424 . S
C253 H245 0.951 . S
C253 C252 1.424 . S
C253 C254 1.347 . S
C254 H246 0.951 . S
C254 C249 1.429 . S
C254 C253 1.347 . S
H255 C256 0.951 . S
C256 H255 0.951 . S
C256 C262 1.265 . S
H257 C262 0.950 . S
H258 C266 0.949 . S
H259 C267 0.950 . S
H260 C268 0.951 . S
H261 C269 0.951 . S
C262 C256 1.265 . S
C262 H257 0.950 . S
C262 C263 1.478 . S
C263 C250 1.394 . S
C263 C262 1.478 . S
C263 C264 1.397 . S
C264 C263 1.397 . S
C264 C265 1.438 . S
C264 C269 1.429 . S
C265 C248 1.394 . S
C265 C264 1.438 . S
C265 C266 1.428 . S
C266 H258 0.949 . S
C266 C265 1.428 . S
C266 C267 1.345 . S
C267 H259 0.950 . S
C267 C266 1.345 . S
C267 C268 1.424 . S
C268 H260 0.951 . S
C268 C267 1.424 . S
C268 C269 1.347 . S
C269 H261 0.951 . S
C269 C264 1.429 . S
C269 C268 1.347 . S
H270 C271 0.951 . S
C271 H270 0.951 . S
C271 C277 1.265 . S
H272 C277 0.950 . S
H273 C281 0.949 . S
H274 C282 0.950 . S
H275 C283 0.951 . S
H276 C284 0.951 . S
C277 C271 1.265 . S
C277 H272 0.950 . S
C277 C278 1.478 . S
C278 C277 1.478 . S
C278 C279 1.397 . S
C278 C295 1.394 . S
C279 C278 1.397 . S
C279 C280 1.438 . S
C279 C284 1.429 . S
C280 C279 1.438 . S
C280 C281 1.428 . S
C280 C293 1.394 . S
C281 H273 0.949 . S
C281 C280 1.428 . S
C281 C282 1.345 . S
C282 H274 0.950 . S
C282 C281 1.345 . S
C282 C283 1.424 . S
C283 H275 0.951 . S
C283 C282 1.424 . S
C283 C284 1.347 . S
C284 H276 0.951 . S
C284 C279 1.429 . S
C284 C283 1.347 . S
H285 C286 0.951 . S
C286 H285 0.951 . S
C286 C292 1.265 . S
H287 C292 0.960 . S
H288 C296 0.949 . S
H289 C297 0.950 . S
H290 C298 0.951 1_554 S
H291 C299 0.951 1_554 S
C292 C286 1.265 . S
C292 H287 0.960 . S
C292 C293 1.478 . S
C293 C280 1.394 . S
C293 C292 1.478 . S
C293 C294 1.397 . S
C294 C293 1.397 . S
C294 C295 1.438 . S
C294 C299 1.429 . S
C295 C278 1.394 . S
C295 C294 1.438 . S
C295 C296 1.428 . S
C296 H288 0.949 . S
C296 C295 1.428 . S
C296 C297 1.345 . S
C297 H289 0.950 . S
C297 C296 1.345 . S
C297 C298 1.424 . S
C298 H290 0.951 1_556 S
C298 C297 1.424 . S
C298 C299 1.347 . S
C299 H291 0.951 1_556 S
C299 C294 1.429 . S
C299 C298 1.347 . S
H300 C301 0.951 . S
C301 H300 0.951 . S
C301 C307 1.265 . S
H302 C307 0.950 . S
H303 C311 0.949 . S
H304 C312 0.950 . S
H305 C313 0.951 . S
H306 C314 0.951 . S
C307 C301 1.265 . S
C307 H302 0.950 . S
C307 C308 1.478 . S
C308 C307 1.478 . S
C308 C309 1.397 . S
C308 C325 1.394 . S
C309 C308 1.397 . S
C309 C310 1.438 . S
C309 C314 1.429 . S
C310 C309 1.438 . S
C310 C311 1.428 . S
C310 C323 1.394 . S
C311 H303 0.949 . S
C311 C310 1.428 . S
C311 C312 1.345 . S
C312 H304 0.950 . S
C312 C311 1.345 . S
C312 C313 1.424 . S
C313 H305 0.951 . S
C313 C312 1.424 . S
C313 C314 1.347 . S
C314 H306 0.951 . S
C314 C309 1.429 . S
C314 C313 1.347 . S
H315 C316 0.951 . S
C316 H315 0.951 . S
C316 C322 1.265 . S
H317 C322 0.950 . S
H318 C326 0.949 . S
H319 C327 0.950 . S
H320 C328 0.951 . S
H321 C329 0.951 . S
C322 C316 1.265 . S
C322 H317 0.950 . S
C322 C323 1.478 . S
C323 C310 1.394 . S
C323 C322 1.478 . S
C323 C324 1.397 . S
C324 C323 1.397 . S
C324 C325 1.438 . S
C324 C329 1.429 . S
C325 C308 1.394 . S
C325 C324 1.438 . S
C325 C326 1.428 . S
C326 H318 0.949 . S
C326 C325 1.428 . S
C326 C327 1.345 . S
C327 H319 0.950 . S
C327 C326 1.345 . S
C327 C328 1.424 . S
C328 H320 0.951 . S
C328 C327 1.424 . S
C328 C329 1.347 . S
C329 H321 0.951 . S
C329 C324 1.429 . S
C329 C328 1.347 . S
H330 C331 0.951 . S
C331 H330 0.951 . S
C331 C337 1.265 . S
H332 C337 0.950 . S
H333 C341 0.949 . S
H334 C342 0.950 . S
H335 C343 0.951 . S
H336 C344 0.951 . S
C337 C331 1.265 . S
C337 H332 0.950 . S
C337 C338 1.478 . S
C338 C337 1.478 . S
C338 C339 1.397 . S
C338 C355 1.394 . S
C339 C338 1.397 . S
C339 C340 1.438 . S
C339 C344 1.429 . S
C340 C339 1.438 . S
C340 C341 1.428 . S
C340 C353 1.394 . S
C341 H333 0.949 . S
C341 C340 1.428 . S
C341 C342 1.345 . S
C342 H334 0.950 . S
C342 C341 1.345 . S
C342 C343 1.424 . S
C343 H335 0.951 . S
C343 C342 1.424 . S
C343 C344 1.347 . S
C344 H336 0.951 . S
C344 C339 1.429 . S
C344 C343 1.347 . S
H345 C346 0.951 . S
C346 H345 0.951 . S
C346 C352 1.265 . S
H347 C352 0.950 . S
H348 C356 0.949 . S
H349 C357 0.950 . S
H350 C358 0.951 . S
H351 C359 0.951 . S
C352 C346 1.265 . S
C352 H347 0.950 . S
C352 C353 1.478 . S
C353 C340 1.394 . S
C353 C352 1.478 . S
C353 C354 1.397 . S
C354 C353 1.397 . S
C354 C355 1.438 . S
C354 C359 1.429 . S
C355 C338 1.394 . S
C355 C354 1.438 . S
C355 C356 1.428 . S
C356 H348 0.949 . S
C356 C355 1.428 . S
C356 C357 1.345 . S
C357 H349 0.950 . S
C357 C356 1.345 . S
C357 C358 1.424 . S
C358 H350 0.951 . S
C358 C357 1.424 . S
C358 C359 1.347 . S
C359 H351 0.951 . S
C359 C354 1.429 . S
C359 C358 1.347 . S
H360 C361 0.951 . S
C361 H360 0.951 . S
C361 C367 1.265 . S
H362 C367 0.950 . S
H363 C371 0.949 . S
H364 C372 0.950 . S
H365 C373 0.951 . S
H366 C374 0.951 . S
C367 C361 1.265 . S
C367 H362 0.950 . S
C367 C368 1.478 . S
C368 C367 1.478 . S
C368 C369 1.397 . S
C368 C385 1.394 . S
C369 C368 1.397 . S
C369 C370 1.438 . S
C369 C374 1.429 . S
C370 C369 1.438 . S
C370 C371 1.428 . S
C370 C383 1.394 . S
C371 H363 0.949 . S
C371 C370 1.428 . S
C371 C372 1.345 . S
C372 H364 0.950 . S
C372 C371 1.345 . S
C372 C373 1.424 . S
C373 H365 0.951 . S
C373 C372 1.424 . S
C373 C374 1.347 . S
C374 H366 0.951 . S
C374 C369 1.429 . S
C374 C373 1.347 . S
H375 C376 0.951 . S
C376 H375 0.951 . S
C376 C382 1.265 . S
H377 C382 0.950 . S
H378 C386 0.949 . S
H379 C387 0.950 . S
H380 C388 0.951 . S
H381 C389 0.951 . S
C382 C376 1.265 . S
C382 H377 0.950 . S
C382 C383 1.478 . S
C383 C370 1.394 . S
C383 C382 1.478 . S
C383 C384 1.397 . S
C384 C383 1.397 . S
C384 C385 1.438 . S
C384 C389 1.429 . S
C385 C368 1.394 . S
C385 C384 1.438 . S
C385 C386 1.428 . S
C386 H378 0.949 . S
C386 C385 1.428 . S
C386 C387 1.345 . S
C387 H379 0.950 . S
C387 C386 1.345 . S
C387 C388 1.424 . S
C388 H380 0.951 . S
C388 C387 1.424 . S
C388 C389 1.347 . S
C389 H381 0.951 . S
C389 C384 1.429 . S
C389 C388 1.347 . S
H390 C391 0.951 . S
C391 H390 0.951 . S
C391 C397 1.265 . S
H392 C397 0.950 . S
H393 C401 0.949 . S
H394 C402 0.950 . S
H395 C403 0.951 1_545 S
H396 C404 0.951 . S
C397 C391 1.265 . S
C397 H392 0.950 . S
C397 C398 1.478 . S
C398 C397 1.478 . S
C398 C399 1.397 . S
C398 C415 1.394 . S
C399 C398 1.397 . S
C399 C400 1.438 . S
C399 C404 1.429 . S
C400 C399 1.438 . S
C400 C401 1.428 . S
C400 C413 1.394 . S
C401 H393 0.949 . S
C401 C400 1.428 . S
C401 C402 1.345 . S
C402 H394 0.950 . S
C402 C401 1.345 . S
C402 C403 1.424 . S
C403 H395 0.951 1_565 S
C403 C402 1.424 . S
C403 C404 1.347 . S
C404 H396 0.951 . S
C404 C399 1.429 . S
C404 C403 1.347 . S
H405 C406 0.951 . S
C406 H405 0.951 . S
C406 C412 1.265 . S
H407 C412 0.950 . S
H408 C416 0.949 . S
H409 C417 0.950 . S
H410 C418 0.951 . S
H411 C419 0.951 . S
C412 C406 1.265 . S
C412 H407 0.950 . S
C412 C413 1.478 . S
C413 C400 1.394 . S
C413 C412 1.478 . S
C413 C414 1.397 . S
C414 C413 1.397 . S
C414 C415 1.438 . S
C414 C419 1.429 . S
C415 C398 1.394 . S
C415 C414 1.438 . S
C415 C416 1.428 . S
C416 H408 0.949 . S
C416 C415 1.428 . S
C416 C417 1.345 . S
C417 H409 0.950 . S
C417 C416 1.345 . S
C417 C418 1.424 . S
C418 H410 0.951 . S
C418 C417 1.424 . S
C418 C419 1.347 . S
C419 H411 0.951 . S
C419 C414 1.429 . S
C419 C418 1.347 . S
H420 C421 0.951 . S
C421 H420 0.951 . S
C421 C427 1.265 . S
H422 C427 0.950 . S
H423 C431 0.949 . S
H424 C432 0.950 . S
H425 C433 0.951 . S
H426 C434 0.951 . S
C427 C421 1.265 . S
C427 H422 0.950 . S
C427 C428 1.478 . S
C428 C427 1.478 . S
C428 C429 1.397 . S
C428 C445 1.394 . S
C429 C428 1.397 . S
C429 C430 1.438 . S
C429 C434 1.429 . S
C430 C429 1.438 . S
C430 C431 1.428 . S
C430 C443 1.394 . S
C431 H423 0.949 . S
C431 C430 1.428 . S
C431 C432 1.345 . S
C432 H424 0.950 . S
C432 C431 1.345 . S
C432 C433 1.424 . S
C433 H425 0.951 . S
C433 C432 1.424 . S
C433 C434 1.347 . S
C434 H426 0.951 . S
C434 C429 1.429 . S
C434 C433 1.347 . S
H435 C436 0.951 . S
C436 H435 0.951 . S
C436 C442 1.265 . S
H437 C442 0.950 . S
H438 C446 0.949 . S
H439 C447 0.950 . S
H440 C448 0.951 . S
H441 C449 0.951 . S
C442 C436 1.265 . S
C442 H437 0.950 . S
C442 C443 1.478 . S
C443 C430 1.394 . S
C443 C442 1.478 . S
C443 C444 1.397 . S
C444 C443 1.397 . S
C444 C445 1.438 . S
C444 C449 1.429 . S
C445 C428 1.394 . S
C445 C444 1.438 . S
C445 C446 1.428 . S
C446 H438 0.949 . S
C446 C445 1.428 . S
C446 C447 1.345 . S
C447 H439 0.950 . S
C447 C446 1.345 . S
C447 C448 1.424 . S
C448 H440 0.951 . S
C448 C447 1.424 . S
C448 C449 1.347 . S
C449 H441 0.951 . S
C449 C444 1.429 . S
C449 C448 1.347 . S
H450 C451 0.951 . S
C451 H450 0.951 . S
C451 C457 1.265 . S
H452 C457 0.950 . S
H453 C461 0.949 . S
H454 C462 0.958 . S
H455 C463 0.937 1_455 S
H456 C464 0.951 . S
C457 C451 1.265 . S
C457 H452 0.950 . S
C457 C458 1.478 . S
C458 C457 1.478 . S
C458 C459 1.397 . S
C458 C475 1.394 . S
C459 C458 1.397 . S
C459 C460 1.438 . S
C459 C464 1.429 . S
C460 C459 1.438 . S
C460 C461 1.428 . S
C460 C473 1.394 . S
C461 H453 0.949 . S
C461 C460 1.428 . S
C461 C462 1.338 1_655 S
C462 H454 0.958 . S
C462 C461 1.338 1_455 S
C462 C463 1.422 1_455 S
C463 H455 0.937 1_655 S
C463 C462 1.422 1_655 S
C463 C464 1.347 . S
C464 H456 0.951 . S
C464 C459 1.429 . S
C464 C463 1.347 . S
H465 C466 0.951 . S
C466 H465 0.951 . S
C466 C472 1.265 . S
H467 C472 0.950 . S
H468 C476 0.949 . S
H469 C477 0.950 . S
H470 C478 0.951 . S
H471 C479 0.951 . S
C472 C466 1.265 . S
C472 H467 0.950 . S
C472 C473 1.478 . S
C473 C460 1.394 . S
C473 C472 1.478 . S
C473 C474 1.397 . S
C474 C473 1.397 . S
C474 C475 1.438 . S
C474 C479 1.429 . S
C475 C458 1.394 . S
C475 C474 1.438 . S
C475 C476 1.428 . S
C476 H468 0.949 . S
C476 C475 1.428 . S
C476 C477 1.345 . S
C477 H469 0.950 . S
C477 C476 1.345 . S
C477 C478 1.424 . S
C478 H470 0.951 . S
C478 C477 1.424 . S
C478 C479 1.347 . S
C479 H471 0.951 . S
C479 C474 1.429 . S
C479 C478 1.347 . S
C121 C61 0.511 1_545 S
C136 C10 0.512 . S
C151 C91 0.460 . S
C166 C40 0.460 . S
C181 C70 0.589 . S
C196 C1 0.589 . S
C211 C31 0.738 . S
C226 C100 0.738 . S
C241 N44 1.111 . S
C256 N6 1.155 . S
C271 N36 1.461 . S
C286 C87 1.466 1_556 S
C301 C117 1.480 . S
C316 C76 1.556 . S
C331 C106 1.316 . S
C346 N14 1.121 . S
C361 N74 1.160 . S
C376 N96 1.064 . S
C391 C16 1.406 . S
C406 N104 1.472 . S
C421 C46 1.515 . S
C436 C27 1.498 . S
C451 N66 1.275 . S
C466 C57 1.250 . S
