# Generated by pormake.
# Topology ukr, (4)-cn, num edge types: 1
# Building blocks:
#     Node 0, Type 0, BuildingBlock: CEKHIL_clean_sbu_0, # of connection points: 4
#     Node 1, Type 0, BuildingBlock: CEKHIL_clean_sbu_0, # of connection points: 4
#     Node 2, Type 0, BuildingBlock: CEKHIL_clean_sbu_0, # of connection points: 4
#     Node 3, Type 0, BuildingBlock: CEKHIL_clean_sbu_0, # of connection points: 4
#     Node 4, Type 0, BuildingBlock: CEKHIL_clean_sbu_0, # of connection points: 4
#     Node 5, Type 0, BuildingBlock: CEKHIL_clean_sbu_0, # of connection points: 4
#     Node 6, Type 0, BuildingBlock: CEKHIL_clean_sbu_0, # of connection points: 4
#     Node 7, Type 0, BuildingBlock: CEKHIL_clean_sbu_0, # of connection points: 4
#     Node 8, Type 0, BuildingBlock: CEKHIL_clean_sbu_0, # of connection points: 4
#     Node 9, Type 0, BuildingBlock: CEKHIL_clean_sbu_0, # of connection points: 4
#     Node 10, Type 0, BuildingBlock: CEKHIL_clean_sbu_0, # of connection points: 4
#     Node 11, Type 0, BuildingBlock: CEKHIL_clean_sbu_0, # of connection points: 4
#     Node 12, Type 0, BuildingBlock: CEKHIL_clean_sbu_0, # of connection points: 4
#     Node 13, Type 0, BuildingBlock: CEKHIL_clean_sbu_0, # of connection points: 4
#     Node 14, Type 0, BuildingBlock: CEKHIL_clean_sbu_0, # of connection points: 4
#     Node 15, Type 0, BuildingBlock: CEKHIL_clean_sbu_0, # of connection points: 4
#     Node 16, Type 0, BuildingBlock: CEKHIL_clean_sbu_0, # of connection points: 4
#     Node 17, Type 0, BuildingBlock: CEKHIL_clean_sbu_0, # of connection points: 4
#     Node 18, Type 0, BuildingBlock: CEKHIL_clean_sbu_0, # of connection points: 4
#     Node 19, Type 0, BuildingBlock: CEKHIL_clean_sbu_0, # of connection points: 4
#     Node 20, Type 0, BuildingBlock: CEKHIL_clean_sbu_0, # of connection points: 4
#     Node 21, Type 0, BuildingBlock: CEKHIL_clean_sbu_0, # of connection points: 4
#     Node 22, Type 0, BuildingBlock: CEKHIL_clean_sbu_0, # of connection points: 4
#     Node 23, Type 0, BuildingBlock: CEKHIL_clean_sbu_0, # of connection points: 4
#     Node 24, Type 0, BuildingBlock: CEKHIL_clean_sbu_0, # of connection points: 4
#     Node 25, Type 0, BuildingBlock: CEKHIL_clean_sbu_0, # of connection points: 4
#     Node 26, Type 0, BuildingBlock: CEKHIL_clean_sbu_0, # of connection points: 4
#     Node 27, Type 0, BuildingBlock: CEKHIL_clean_sbu_0, # of connection points: 4
#     Node 28, Type 0, BuildingBlock: CEKHIL_clean_sbu_0, # of connection points: 4
#     Node 29, Type 0, BuildingBlock: CEKHIL_clean_sbu_0, # of connection points: 4
#     Node 30, Type 0, BuildingBlock: CEKHIL_clean_sbu_0, # of connection points: 4
#     Node 31, Type 0, BuildingBlock: CEKHIL_clean_sbu_0, # of connection points: 4
#     Node 32, Type 0, BuildingBlock: CEKHIL_clean_sbu_0, # of connection points: 4
#     Node 33, Type 0, BuildingBlock: CEKHIL_clean_sbu_0, # of connection points: 4
#     Node 34, Type 0, BuildingBlock: CEKHIL_clean_sbu_0, # of connection points: 4
#     Node 35, Type 0, BuildingBlock: CEKHIL_clean_sbu_0, # of connection points: 4
#     Node 36, Type 0, BuildingBlock: CEKHIL_clean_sbu_0, # of connection points: 4
#     Node 37, Type 0, BuildingBlock: CEKHIL_clean_sbu_0, # of connection points: 4
#     Node 38, Type 0, BuildingBlock: CEKHIL_clean_sbu_0, # of connection points: 4
#     Node 39, Type 0, BuildingBlock: CEKHIL_clean_sbu_0, # of connection points: 4
#     Node 40, Type 0, BuildingBlock: CEKHIL_clean_sbu_0, # of connection points: 4
#     Node 41, Type 0, BuildingBlock: CEKHIL_clean_sbu_0, # of connection points: 4
#     Node 42, Type 0, BuildingBlock: CEKHIL_clean_sbu_0, # of connection points: 4
#     Node 43, Type 0, BuildingBlock: CEKHIL_clean_sbu_0, # of connection points: 4
#     Node 44, Type 0, BuildingBlock: CEKHIL_clean_sbu_0, # of connection points: 4
#     Node 45, Type 0, BuildingBlock: CEKHIL_clean_sbu_0, # of connection points: 4
#     Node 46, Type 0, BuildingBlock: CEKHIL_clean_sbu_0, # of connection points: 4
#     Node 47, Type 0, BuildingBlock: CEKHIL_clean_sbu_0, # of connection points: 4
#     Edge 48, Type (0, 0), BuildingBlock: XUDNAN_clean_linker_2, # of connection points: 2
#     Edge 49, Type (0, 0), BuildingBlock: XUDNAN_clean_linker_2, # of connection points: 2
#     Edge 50, Type (0, 0), BuildingBlock: XUDNAN_clean_linker_2, # of connection points: 2
#     Edge 51, Type (0, 0), BuildingBlock: XUDNAN_clean_linker_2, # of connection points: 2
#     Edge 52, Type (0, 0), BuildingBlock: XUDNAN_clean_linker_2, # of connection points: 2
#     Edge 53, Type (0, 0), BuildingBlock: XUDNAN_clean_linker_2, # of connection points: 2
#     Edge 54, Type (0, 0), BuildingBlock: XUDNAN_clean_linker_2, # of connection points: 2
#     Edge 55, Type (0, 0), BuildingBlock: XUDNAN_clean_linker_2, # of connection points: 2
#     Edge 56, Type (0, 0), BuildingBlock: XUDNAN_clean_linker_2, # of connection points: 2
#     Edge 57, Type (0, 0), BuildingBlock: XUDNAN_clean_linker_2, # of connection points: 2
#     Edge 58, Type (0, 0), BuildingBlock: XUDNAN_clean_linker_2, # of connection points: 2
#     Edge 59, Type (0, 0), BuildingBlock: XUDNAN_clean_linker_2, # of connection points: 2
#     Edge 60, Type (0, 0), BuildingBlock: XUDNAN_clean_linker_2, # of connection points: 2
#     Edge 61, Type (0, 0), BuildingBlock: XUDNAN_clean_linker_2, # of connection points: 2
#     Edge 62, Type (0, 0), BuildingBlock: XUDNAN_clean_linker_2, # of connection points: 2
#     Edge 63, Type (0, 0), BuildingBlock: XUDNAN_clean_linker_2, # of connection points: 2
#     Edge 64, Type (0, 0), BuildingBlock: XUDNAN_clean_linker_2, # of connection points: 2
#     Edge 65, Type (0, 0), BuildingBlock: XUDNAN_clean_linker_2, # of connection points: 2
#     Edge 66, Type (0, 0), BuildingBlock: XUDNAN_clean_linker_2, # of connection points: 2
#     Edge 67, Type (0, 0), BuildingBlock: XUDNAN_clean_linker_2, # of connection points: 2
#     Edge 68, Type (0, 0), BuildingBlock: XUDNAN_clean_linker_2, # of connection points: 2
#     Edge 69, Type (0, 0), BuildingBlock: XUDNAN_clean_linker_2, # of connection points: 2
#     Edge 70, Type (0, 0), BuildingBlock: XUDNAN_clean_linker_2, # of connection points: 2
#     Edge 71, Type (0, 0), BuildingBlock: XUDNAN_clean_linker_2, # of connection points: 2
#     Edge 72, Type (0, 0), BuildingBlock: XUDNAN_clean_linker_2, # of connection points: 2
#     Edge 73, Type (0, 0), BuildingBlock: XUDNAN_clean_linker_2, # of connection points: 2
#     Edge 74, Type (0, 0), BuildingBlock: XUDNAN_clean_linker_2, # of connection points: 2
#     Edge 75, Type (0, 0), BuildingBlock: XUDNAN_clean_linker_2, # of connection points: 2
#     Edge 76, Type (0, 0), BuildingBlock: XUDNAN_clean_linker_2, # of connection points: 2
#     Edge 77, Type (0, 0), BuildingBlock: XUDNAN_clean_linker_2, # of connection points: 2
#     Edge 78, Type (0, 0), BuildingBlock: XUDNAN_clean_linker_2, # of connection points: 2
#     Edge 79, Type (0, 0), BuildingBlock: XUDNAN_clean_linker_2, # of connection points: 2
#     Edge 80, Type (0, 0), BuildingBlock: XUDNAN_clean_linker_2, # of connection points: 2
#     Edge 81, Type (0, 0), BuildingBlock: XUDNAN_clean_linker_2, # of connection points: 2
#     Edge 82, Type (0, 0), BuildingBlock: XUDNAN_clean_linker_2, # of connection points: 2
#     Edge 83, Type (0, 0), BuildingBlock: XUDNAN_clean_linker_2, # of connection points: 2
#     Edge 84, Type (0, 0), BuildingBlock: XUDNAN_clean_linker_2, # of connection points: 2
#     Edge 85, Type (0, 0), BuildingBlock: XUDNAN_clean_linker_2, # of connection points: 2
#     Edge 86, Type (0, 0), BuildingBlock: XUDNAN_clean_linker_2, # of connection points: 2
#     Edge 87, Type (0, 0), BuildingBlock: XUDNAN_clean_linker_2, # of connection points: 2
#     Edge 88, Type (0, 0), BuildingBlock: XUDNAN_clean_linker_2, # of connection points: 2
#     Edge 89, Type (0, 0), BuildingBlock: XUDNAN_clean_linker_2, # of connection points: 2
#     Edge 90, Type (0, 0), BuildingBlock: XUDNAN_clean_linker_2, # of connection points: 2
#     Edge 91, Type (0, 0), BuildingBlock: XUDNAN_clean_linker_2, # of connection points: 2
#     Edge 92, Type (0, 0), BuildingBlock: XUDNAN_clean_linker_2, # of connection points: 2
#     Edge 93, Type (0, 0), BuildingBlock: XUDNAN_clean_linker_2, # of connection points: 2
#     Edge 94, Type (0, 0), BuildingBlock: XUDNAN_clean_linker_2, # of connection points: 2
#     Edge 95, Type (0, 0), BuildingBlock: XUDNAN_clean_linker_2, # of connection points: 2
#     Edge 96, Type (0, 0), BuildingBlock: XUDNAN_clean_linker_2, # of connection points: 2
#     Edge 97, Type (0, 0), BuildingBlock: XUDNAN_clean_linker_2, # of connection points: 2
#     Edge 98, Type (0, 0), BuildingBlock: XUDNAN_clean_linker_2, # of connection points: 2
#     Edge 99, Type (0, 0), BuildingBlock: XUDNAN_clean_linker_2, # of connection points: 2
#     Edge 100, Type (0, 0), BuildingBlock: XUDNAN_clean_linker_2, # of connection points: 2
#     Edge 101, Type (0, 0), BuildingBlock: XUDNAN_clean_linker_2, # of connection points: 2
#     Edge 102, Type (0, 0), BuildingBlock: XUDNAN_clean_linker_2, # of connection points: 2
#     Edge 103, Type (0, 0), BuildingBlock: XUDNAN_clean_linker_2, # of connection points: 2
#     Edge 104, Type (0, 0), BuildingBlock: XUDNAN_clean_linker_2, # of connection points: 2
#     Edge 105, Type (0, 0), BuildingBlock: XUDNAN_clean_linker_2, # of connection points: 2
#     Edge 106, Type (0, 0), BuildingBlock: XUDNAN_clean_linker_2, # of connection points: 2
#     Edge 107, Type (0, 0), BuildingBlock: XUDNAN_clean_linker_2, # of connection points: 2
#     Edge 108, Type (0, 0), BuildingBlock: XUDNAN_clean_linker_2, # of connection points: 2
#     Edge 109, Type (0, 0), BuildingBlock: XUDNAN_clean_linker_2, # of connection points: 2
#     Edge 110, Type (0, 0), BuildingBlock: XUDNAN_clean_linker_2, # of connection points: 2
#     Edge 111, Type (0, 0), BuildingBlock: XUDNAN_clean_linker_2, # of connection points: 2
#     Edge 112, Type (0, 0), BuildingBlock: XUDNAN_clean_linker_2, # of connection points: 2
#     Edge 113, Type (0, 0), BuildingBlock: XUDNAN_clean_linker_2, # of connection points: 2
#     Edge 114, Type (0, 0), BuildingBlock: XUDNAN_clean_linker_2, # of connection points: 2
#     Edge 115, Type (0, 0), BuildingBlock: XUDNAN_clean_linker_2, # of connection points: 2
#     Edge 116, Type (0, 0), BuildingBlock: XUDNAN_clean_linker_2, # of connection points: 2
#     Edge 117, Type (0, 0), BuildingBlock: XUDNAN_clean_linker_2, # of connection points: 2
#     Edge 118, Type (0, 0), BuildingBlock: XUDNAN_clean_linker_2, # of connection points: 2
#     Edge 119, Type (0, 0), BuildingBlock: XUDNAN_clean_linker_2, # of connection points: 2
#     Edge 120, Type (0, 0), BuildingBlock: XUDNAN_clean_linker_2, # of connection points: 2
#     Edge 121, Type (0, 0), BuildingBlock: XUDNAN_clean_linker_2, # of connection points: 2
#     Edge 122, Type (0, 0), BuildingBlock: XUDNAN_clean_linker_2, # of connection points: 2
#     Edge 123, Type (0, 0), BuildingBlock: XUDNAN_clean_linker_2, # of connection points: 2
#     Edge 124, Type (0, 0), BuildingBlock: XUDNAN_clean_linker_2, # of connection points: 2
#     Edge 125, Type (0, 0), BuildingBlock: XUDNAN_clean_linker_2, # of connection points: 2
#     Edge 126, Type (0, 0), BuildingBlock: XUDNAN_clean_linker_2, # of connection points: 2
#     Edge 127, Type (0, 0), BuildingBlock: XUDNAN_clean_linker_2, # of connection points: 2
#     Edge 128, Type (0, 0), BuildingBlock: XUDNAN_clean_linker_2, # of connection points: 2
#     Edge 129, Type (0, 0), BuildingBlock: XUDNAN_clean_linker_2, # of connection points: 2
#     Edge 130, Type (0, 0), BuildingBlock: XUDNAN_clean_linker_2, # of connection points: 2
#     Edge 131, Type (0, 0), BuildingBlock: XUDNAN_clean_linker_2, # of connection points: 2
#     Edge 132, Type (0, 0), BuildingBlock: XUDNAN_clean_linker_2, # of connection points: 2
#     Edge 133, Type (0, 0), BuildingBlock: XUDNAN_clean_linker_2, # of connection points: 2
#     Edge 134, Type (0, 0), BuildingBlock: XUDNAN_clean_linker_2, # of connection points: 2
#     Edge 135, Type (0, 0), BuildingBlock: XUDNAN_clean_linker_2, # of connection points: 2
#     Edge 136, Type (0, 0), BuildingBlock: XUDNAN_clean_linker_2, # of connection points: 2
#     Edge 137, Type (0, 0), BuildingBlock: XUDNAN_clean_linker_2, # of connection points: 2
#     Edge 138, Type (0, 0), BuildingBlock: XUDNAN_clean_linker_2, # of connection points: 2
#     Edge 139, Type (0, 0), BuildingBlock: XUDNAN_clean_linker_2, # of connection points: 2
#     Edge 140, Type (0, 0), BuildingBlock: XUDNAN_clean_linker_2, # of connection points: 2
#     Edge 141, Type (0, 0), BuildingBlock: XUDNAN_clean_linker_2, # of connection points: 2
#     Edge 142, Type (0, 0), BuildingBlock: XUDNAN_clean_linker_2, # of connection points: 2
#     Edge 143, Type (0, 0), BuildingBlock: XUDNAN_clean_linker_2, # of connection points: 2
# Relax obj value: 0.467
# Max RMSD: 0.181
# Mean RMSD: 0.181
data_MOF--net-ukr--node1-CEKHIL_clean_sbu_0--edge1-XUDNAN_clean_linker_2
_symmetry_space_group_name_H-M    P1
_symmetry_Int_Tables_number       1
_symmetry_cell_setting            triclinic
loop_
_symmetry_equiv_pos_as_xyz
'x, y, z'
_cell_length_a     68.064935
_cell_length_b     68.117683
_cell_length_c     68.107714
_cell_angle_alpha  90.039166
_cell_angle_beta   90.062344
_cell_angle_gamma 89.995889
loop_
_atom_site_label
_atom_site_type_symbol
_atom_site_fract_x
_atom_site_fract_y
_atom_site_fract_z
_atom_type_partial_charge
Co0 Co 0.09388 0.25767 0.20616 0.0
O1 O 0.06683 0.26169 0.21243 0.0
O2 O 0.08283 0.27648 0.18813 0.0
C3 C 0.09422 0.22471 0.2073 0.0
O4 O 0.12137 0.25671 0.19481 0.0
Co5 Co 0.12242 0.23839 0.23605 0.0
O6 O 0.13944 0.23537 0.21239 0.0
C7 C 0.10871 0.27886 0.24242 0.0
C8 C 0.06658 0.2739 0.19778 0.0
C9 C 0.1367 0.24597 0.1972 0.0
O10 O 0.10155 0.27917 0.22493 0.0
O11 O 0.11596 0.26341 0.25031 0.0
O12 O 0.08778 0.23365 0.19171 0.0
O13 O 0.09765 0.23586 0.22226 0.0
Co14 Co 0.2294 0.60242 0.70464 0.0
O15 O 0.22889 0.57696 0.71666 0.0
O16 O 0.2264 0.58286 0.68466 0.0
C17 C 0.2551 0.61471 0.72164 0.0
O18 O 0.23014 0.62589 0.68646 0.0
Co19 Co 0.22275 0.64112 0.72788 0.0
O20 O 0.23571 0.65293 0.7045 0.0
C21 C 0.18989 0.61367 0.72057 0.0
C22 C 0.22667 0.57021 0.69891 0.0
C23 C 0.23539 0.64388 0.68813 0.0
O24 O 0.19999 0.60433 0.70767 0.0
O25 O 0.19681 0.62756 0.73119 0.0
O26 O 0.25821 0.6034 0.70655 0.0
O27 O 0.23699 0.61657 0.72679 0.0
Co28 Co 0.9038 0.73974 0.1948 0.0
O29 O 0.9298 0.73268 0.20259 0.0
O30 O 0.91529 0.72318 0.17488 0.0
C31 C 0.90492 0.77199 0.2014 0.0
O32 O 0.87764 0.74486 0.18157 0.0
Co33 Co 0.8744 0.75516 0.22604 0.0
O34 O 0.85733 0.7601 0.20279 0.0
C35 C 0.88689 0.71418 0.22673 0.0
C36 C 0.93058 0.72273 0.18633 0.0
C37 C 0.86152 0.75377 0.18567 0.0
O38 O 0.89328 0.71603 0.20907 0.0
O39 O 0.88102 0.7287 0.23708 0.0
O40 O 0.91245 0.76533 0.18516 0.0
O41 O 0.89992 0.7588 0.21402 0.0
Co42 Co 0.75547 0.40768 0.70157 0.0
O43 O 0.76245 0.43363 0.70961 0.0
O44 O 0.77272 0.41913 0.68224 0.0
C45 C 0.72295 0.409 0.70691 0.0
O46 O 0.75051 0.3816 0.6881 0.0
Co47 Co 0.73874 0.37842 0.73223 0.0
O48 O 0.7341 0.36162 0.70874 0.0
C49 C 0.78005 0.38975 0.73402 0.0
C50 C 0.77276 0.43448 0.6936 0.0
C51 C 0.7411 0.36568 0.69185 0.0
O52 O 0.77868 0.39679 0.71655 0.0
O53 O 0.76521 0.38391 0.74391 0.0
O54 O 0.73032 0.41662 0.69103 0.0
O55 O 0.73563 0.40392 0.72007 0.0
Co56 Co 0.09206 0.72557 0.78393 0.0
O57 O 0.07095 0.72537 0.76535 0.0
O58 O 0.068 0.71845 0.79706 0.0
C59 C 0.10522 0.75428 0.77477 0.0
O60 O 0.11072 0.72543 0.80742 0.0
Co61 Co 0.13495 0.72383 0.76802 0.0
O62 O 0.14181 0.72752 0.79605 0.0
C63 C 0.10819 0.69052 0.76335 0.0
C64 C 0.05974 0.72044 0.77992 0.0
C65 C 0.1294 0.72711 0.81007 0.0
O66 O 0.09758 0.69718 0.77745 0.0
O67 O 0.12235 0.70025 0.75577 0.0
O68 O 0.09015 0.75409 0.78647 0.0
O69 O 0.11015 0.73756 0.76741 0.0
Co70 Co 0.76522 0.59645 0.28375 0.0
O71 O 0.7772 0.57386 0.27213 0.0
O72 O 0.77752 0.58094 0.30401 0.0
C73 C 0.73617 0.59489 0.268 0.0
O74 O 0.75387 0.61802 0.30103 0.0
Co75 Co 0.75338 0.63229 0.25809 0.0
O76 O 0.73773 0.63947 0.2817 0.0
C77 C 0.79503 0.62305 0.26517 0.0
C78 C 0.78267 0.56927 0.28981 0.0
C79 C 0.74176 0.63231 0.29851 0.0
O80 O 0.79023 0.61162 0.27939 0.0
O81 O 0.78248 0.63106 0.25368 0.0
O82 O 0.73928 0.58394 0.28334 0.0
O83 O 0.75134 0.60422 0.26159 0.0
Co84 Co 0.88896 0.2604 0.79176 0.0
O85 O 0.91274 0.26792 0.77855 0.0
O86 O 0.90708 0.27115 0.81049 0.0
C87 C 0.8851 0.23056 0.77779 0.0
O88 O 0.86745 0.25345 0.81106 0.0
Co89 Co 0.84986 0.25308 0.76944 0.0
O90 O 0.84297 0.23916 0.79416 0.0
C91 C 0.86519 0.29318 0.77363 0.0
C92 C 0.91904 0.27325 0.7958 0.0
C93 C 0.85195 0.24277 0.8102 0.0
O94 O 0.87739 0.2873 0.78682 0.0
O95 O 0.85436 0.28152 0.76361 0.0
O96 O 0.89742 0.23289 0.79221 0.0
O97 O 0.8775 0.24654 0.771 0.0
Co98 Co 0.22674 0.40072 0.29162 0.0
O99 O 0.21379 0.42329 0.28105 0.0
O100 O 0.21774 0.41707 0.31287 0.0
C101 C 0.25316 0.40123 0.27182 0.0
O102 O 0.23964 0.3795 0.30803 0.0
Co103 Co 0.23399 0.36384 0.26566 0.0
O104 O 0.24811 0.3537 0.28913 0.0
C105 C 0.19402 0.37463 0.27799 0.0
C106 C 0.21086 0.42845 0.29917 0.0
C107 C 0.24783 0.36272 0.30553 0.0
O108 O 0.20102 0.38608 0.29125 0.0
O109 O 0.20462 0.36636 0.26485 0.0
O110 O 0.25271 0.41233 0.28737 0.0
O111 O 0.23717 0.39194 0.26788 0.0
Co112 Co 0.20214 0.09194 0.26052 0.0
O113 O 0.20911 0.06734 0.272 0.0
O114 O 0.17951 0.081 0.27354 0.0
C115 C 0.21605 0.08726 0.23091 0.0
O116 O 0.18931 0.11662 0.2498 0.0
Co117 Co 0.23403 0.12185 0.24756 0.0
O118 O 0.21182 0.13342 0.23241 0.0
C119 C 0.22629 0.11516 0.2896 0.0
C120 C 0.19102 0.06642 0.278 0.0
C121 C 0.19409 0.1299 0.23726 0.0
O122 O 0.21047 0.10578 0.28528 0.0
O123 O 0.23856 0.12114 0.27667 0.0
O124 O 0.19889 0.07976 0.23466 0.0
O125 O 0.22491 0.095 0.24577 0.0
Co126 Co 0.4096 0.69954 0.7648 0.0
O127 O 0.43662 0.70102 0.7723 0.0
O128 O 0.41682 0.67585 0.77876 0.0
C129 C 0.41303 0.70972 0.73359 0.0
O130 O 0.38123 0.69276 0.75881 0.0
Co131 Co 0.38763 0.73793 0.75315 0.0
O132 O 0.36519 0.71979 0.74838 0.0
C133 C 0.3967 0.73032 0.79444 0.0
C134 C 0.43411 0.68385 0.78011 0.0
C135 C 0.3658 0.70151 0.75238 0.0
O136 O 0.40141 0.71253 0.79016 0.0
O137 O 0.39343 0.7435 0.78148 0.0
O138 O 0.41648 0.69149 0.73809 0.0
O139 O 0.4101 0.72134 0.74823 0.0
Co140 Co 0.7962 0.89945 0.26795 0.0
O141 O 0.78772 0.92309 0.28054 0.0
O142 O 0.81874 0.91344 0.27795 0.0
C143 C 0.77765 0.90249 0.24066 0.0
O144 O 0.81062 0.87663 0.25529 0.0
Co145 Co 0.76702 0.86562 0.25827 0.0
O146 O 0.78847 0.85721 0.24025 0.0
C147 C 0.77919 0.87329 0.29921 0.0
C148 C 0.8062 0.9266 0.28379 0.0
C149 C 0.80607 0.86289 0.24316 0.0
O150 O 0.79317 0.88457 0.29336 0.0
O151 O 0.76619 0.86602 0.28771 0.0
O152 O 0.79417 0.91196 0.24207 0.0
O153 O 0.7722 0.89342 0.25633 0.0
Co154 Co 0.59563 0.29652 0.76531 0.0
O155 O 0.57194 0.28792 0.77753 0.0
O156 O 0.58311 0.31857 0.77792 0.0
C157 C 0.59098 0.28077 0.73658 0.0
O158 O 0.61897 0.31103 0.7537 0.0
Co159 Co 0.62792 0.2672 0.75159 0.0
O160 O 0.63637 0.28988 0.73526 0.0
C161 C 0.62106 0.27472 0.79382 0.0
C162 C 0.56966 0.30603 0.78307 0.0
C163 C 0.63178 0.30728 0.74035 0.0
O164 O 0.61048 0.28986 0.78999 0.0
O165 O 0.62795 0.26312 0.78074 0.0
O166 O 0.58259 0.29768 0.73957 0.0
O167 O 0.60024 0.27356 0.75141 0.0
Co168 Co 0.2074 0.90024 0.72967 0.0
O169 O 0.21332 0.92742 0.72686 0.0
O170 O 0.1862 0.91287 0.71574 0.0
C171 C 0.21545 0.89799 0.76155 0.0
O172 O 0.19554 0.87316 0.73111 0.0
Co173 Co 0.2395 0.86976 0.74042 0.0
O174 O 0.21651 0.85259 0.7462 0.0
C175 C 0.23836 0.88706 0.70088 0.0
C176 C 0.19634 0.92882 0.71825 0.0
C177 C 0.19944 0.8569 0.73977 0.0
O178 O 0.22113 0.89398 0.70425 0.0
O179 O 0.24897 0.87878 0.71401 0.0
O180 O 0.1983 0.90466 0.75648 0.0
O181 O 0.22761 0.89469 0.7474 0.0
Co182 Co 0.59134 0.70363 0.23399 0.0
O183 O 0.56616 0.71464 0.22825 0.0
O184 O 0.57543 0.68402 0.22134 0.0
C185 C 0.59451 0.71473 0.26481 0.0
O186 O 0.61553 0.68695 0.23818 0.0
Co187 Co 0.62709 0.73065 0.24215 0.0
O188 O 0.64146 0.70561 0.24677 0.0
C189 C 0.60771 0.7304 0.20383 0.0
C190 C 0.56221 0.69774 0.22031 0.0
C191 C 0.63345 0.68898 0.24364 0.0
O192 O 0.6008 0.71332 0.20774 0.0
O193 O 0.61666 0.74095 0.21654 0.0
O194 O 0.58443 0.69884 0.26148 0.0
O195 O 0.60033 0.7242 0.24953 0.0
Co196 Co 0.795 0.07756 0.72494 0.0
O197 O 0.78989 0.05195 0.71443 0.0
O198 O 0.81823 0.06801 0.71188 0.0
C199 C 0.78197 0.0727 0.75487 0.0
O200 O 0.80629 0.10341 0.73453 0.0
Co201 Co 0.76132 0.10552 0.73754 0.0
O202 O 0.78279 0.12285 0.74726 0.0
C203 C 0.76714 0.09532 0.69608 0.0
C204 C 0.80789 0.05243 0.70813 0.0
C205 C 0.80075 0.11902 0.74356 0.0
O206 O 0.78477 0.08967 0.69991 0.0
O207 O 0.75469 0.09983 0.70939 0.0
O208 O 0.79978 0.06683 0.75118 0.0
O209 O 0.77226 0.07938 0.74008 0.0
Co210 Co 0.3983 0.29691 0.23113 0.0
O211 O 0.42439 0.28714 0.22786 0.0
O212 O 0.41311 0.31507 0.21529 0.0
C213 C 0.39647 0.291 0.26351 0.0
O214 O 0.37268 0.31215 0.23178 0.0
Co215 Co 0.36444 0.26986 0.24528 0.0
O216 O 0.34987 0.29499 0.24841 0.0
C217 C 0.3816 0.26501 0.20573 0.0
C218 C 0.42754 0.30273 0.21736 0.0
C219 C 0.35584 0.31065 0.24011 0.0
O220 O 0.38994 0.28188 0.20714 0.0
O221 O 0.37245 0.25689 0.22001 0.0
O222 O 0.40469 0.30708 0.25734 0.0
O223 O 0.39095 0.2788 0.25018 0.0
Co224 Co 0.26595 0.20106 0.0955 0.0
O225 O 0.27425 0.21508 0.07272 0.0
O226 O 0.27441 0.18253 0.07589 0.0
C227 C 0.23804 0.21777 0.10078 0.0
O228 O 0.25797 0.18153 0.11648 0.0
Co229 Co 0.26223 0.22274 0.13561 0.0
O230 O 0.25233 0.19709 0.14516 0.0
C231 C 0.301 0.21528 0.11813 0.0
C232 C 0.27832 0.19796 0.06537 0.0
C233 C 0.25256 0.18169 0.13453 0.0
O234 O 0.29352 0.2029 0.10606 0.0
O235 O 0.29084 0.22605 0.12967 0.0
O236 O 0.23827 0.20346 0.08814 0.0
O237 O 0.25478 0.22258 0.10819 0.0
Co238 Co 0.25932 0.78273 0.8984 0.0
O239 O 0.26817 0.76991 0.92182 0.0
O240 O 0.27158 0.80174 0.91535 0.0
C241 C 0.22928 0.76886 0.89726 0.0
O242 O 0.25193 0.80133 0.87644 0.0
Co243 Co 0.2485 0.75953 0.86067 0.0
O244 O 0.23742 0.78506 0.85165 0.0
C245 C 0.28996 0.76315 0.87322 0.0
C246 C 0.27456 0.78708 0.92718 0.0
C247 C 0.24248 0.80097 0.86012 0.0
O248 O 0.28523 0.77667 0.88554 0.0
O249 O 0.27729 0.7533 0.86337 0.0
O250 O 0.23231 0.78407 0.90841 0.0
O251 O 0.24462 0.76182 0.8887 0.0
Co252 Co 0.7087 0.75334 0.4031 0.0
O253 O 0.71736 0.75789 0.42952 0.0
O254 O 0.6911 0.7715 0.41572 0.0
C255 C 0.71135 0.72044 0.40266 0.0
O256 O 0.69461 0.75172 0.37694 0.0
Co257 Co 0.73611 0.73519 0.37159 0.0
O258 O 0.71099 0.73122 0.35694 0.0
C259 C 0.74246 0.77579 0.38492 0.0
C260 C 0.70231 0.76955 0.43105 0.0
C261 C 0.69571 0.74111 0.36137 0.0
O262 O 0.72568 0.7756 0.39358 0.0
O263 O 0.75016 0.7606 0.37697 0.0
O264 O 0.69603 0.72869 0.41055 0.0
O265 O 0.72532 0.73225 0.39774 0.0
Co266 Co 0.73166 0.17967 0.89569 0.0
O267 O 0.72552 0.19255 0.91986 0.0
O268 O 0.7139 0.16349 0.91069 0.0
C269 C 0.7642 0.18529 0.89706 0.0
O270 O 0.73528 0.16131 0.87235 0.0
Co271 Co 0.75016 0.20284 0.86095 0.0
O272 O 0.754 0.17629 0.84964 0.0
C273 C 0.70928 0.21015 0.87321 0.0
C274 C 0.71461 0.17741 0.92375 0.0
C275 C 0.7455 0.16112 0.85649 0.0
O276 O 0.70907 0.19387 0.88281 0.0
O277 O 0.72482 0.21712 0.86527 0.0
O278 O 0.75689 0.17035 0.90641 0.0
O279 O 0.75174 0.19667 0.88859 0.0
Co280 Co 0.29214 0.23409 0.40236 0.0
O281 O 0.2828 0.2266 0.42776 0.0
O282 O 0.31243 0.2198 0.41585 0.0
C283 C 0.28185 0.2655 0.40264 0.0
O284 O 0.3074 0.23995 0.3776 0.0
Co285 Co 0.26378 0.24729 0.36912 0.0
O286 O 0.28845 0.25723 0.35684 0.0
C287 C 0.26468 0.20615 0.38216 0.0
C288 C 0.29993 0.21849 0.43019 0.0
C289 C 0.30516 0.25078 0.36234 0.0
O290 O 0.28115 0.2091 0.39094 0.0
O291 O 0.25444 0.21987 0.37441 0.0
O292 O 0.29812 0.26079 0.41154 0.0
O293 O 0.27165 0.25094 0.39617 0.0
Co294 Co 0.72007 0.80096 0.09737 0.0
O295 O 0.71393 0.78848 0.07293 0.0
O296 O 0.70893 0.81999 0.07974 0.0
C297 C 0.75023 0.78822 0.10183 0.0
O298 O 0.72535 0.81921 0.12035 0.0
Co299 Co 0.72591 0.77597 0.13502 0.0
O300 O 0.73235 0.80156 0.14744 0.0
C301 C 0.68765 0.77803 0.11582 0.0
C302 C 0.70752 0.80556 0.06732 0.0
C303 C 0.73056 0.81787 0.13843 0.0
O304 O 0.69306 0.79396 0.10731 0.0
O305 O 0.69954 0.76716 0.12547 0.0
O306 O 0.74787 0.80313 0.09013 0.0
O307 O 0.73427 0.78029 0.10821 0.0
Co308 Co 0.6984 0.22476 0.59944 0.0
O309 O 0.71267 0.21971 0.57565 0.0
O310 O 0.68089 0.21391 0.58022 0.0
C311 C 0.71012 0.25498 0.60569 0.0
O312 O 0.67819 0.22908 0.62088 0.0
Co313 Co 0.71971 0.23022 0.63937 0.0
O314 O 0.69311 0.23653 0.64946 0.0
C315 C 0.72036 0.19231 0.61931 0.0
C316 C 0.69603 0.21343 0.56864 0.0
C317 C 0.67776 0.23439 0.63896 0.0
O318 O 0.70532 0.19758 0.60914 0.0
O319 O 0.72978 0.20413 0.63046 0.0
O320 O 0.69617 0.25266 0.59282 0.0
O321 O 0.71786 0.23904 0.61236 0.0
Co322 Co 0.3047 0.76477 0.59476 0.0
O323 O 0.29207 0.77114 0.57052 0.0
O324 O 0.32347 0.7768 0.57734 0.0
C325 C 0.29208 0.73439 0.59722 0.0
O326 O 0.32304 0.75954 0.61772 0.0
Co327 Co 0.28007 0.7558 0.6321 0.0
O328 O 0.30575 0.7472 0.64303 0.0
C329 C 0.28212 0.79596 0.61615 0.0
C330 C 0.309 0.77785 0.5649 0.0
C331 C 0.32198 0.75144 0.63473 0.0
O332 O 0.29703 0.79116 0.60563 0.0
O333 O 0.27205 0.78352 0.62601 0.0
O334 O 0.30763 0.73728 0.58656 0.0
O335 O 0.2841 0.74983 0.60466 0.0
Co336 Co 0.88475 0.72688 0.79373 0.0
O337 O 0.90275 0.72321 0.77222 0.0
O338 O 0.91112 0.72798 0.80338 0.0
C339 C 0.86454 0.74837 0.77878 0.0
O340 O 0.87124 0.73247 0.81981 0.0
Co341 Co 0.84054 0.71546 0.79134 0.0
O342 O 0.83852 0.7286 0.81704 0.0
C343 C 0.87099 0.68473 0.79363 0.0
C344 C 0.91653 0.72481 0.78538 0.0
C345 C 0.85372 0.73365 0.82668 0.0
O346 O 0.88431 0.69748 0.7977 0.0
O347 O 0.85327 0.6892 0.78928 0.0
O348 O 0.88097 0.75441 0.78648 0.0
O349 O 0.86182 0.72963 0.77881 0.0
Co350 Co 0.76648 0.40591 0.29185 0.0
O351 O 0.773 0.43024 0.27945 0.0
O352 O 0.78181 0.42166 0.30973 0.0
C353 C 0.73477 0.40592 0.28258 0.0
O354 O 0.7624 0.38247 0.30988 0.0
Co355 Co 0.75144 0.36991 0.26822 0.0
O356 O 0.7448 0.35912 0.29453 0.0
C357 C 0.79244 0.38404 0.26424 0.0
C358 C 0.78229 0.43442 0.29557 0.0
C359 C 0.7526 0.36636 0.30992 0.0
O360 O 0.79086 0.39401 0.2802 0.0
O361 O 0.77793 0.37509 0.25623 0.0
O362 O 0.74 0.41543 0.29831 0.0
O363 O 0.74867 0.39775 0.27279 0.0
Co364 Co 0.09275 0.27202 0.79018 0.0
O365 O 0.06695 0.27215 0.77901 0.0
O366 O 0.07426 0.28131 0.80945 0.0
C367 C 0.10206 0.2422 0.77969 0.0
O368 O 0.1175 0.27305 0.80683 0.0
Co369 Co 0.12898 0.27095 0.76229 0.0
O370 O 0.14408 0.26976 0.78728 0.0
C371 C 0.10382 0.3056 0.76399 0.0
C372 C 0.06104 0.2788 0.79587 0.0
C373 C 0.13612 0.27143 0.80413 0.0
O374 O 0.09707 0.29966 0.78056 0.0
O375 O 0.1146 0.29491 0.75295 0.0
O376 O 0.09103 0.24375 0.79518 0.0
O377 O 0.10484 0.25819 0.76997 0.0
Co378 Co 0.23212 0.58852 0.29112 0.0
O379 O 0.22338 0.5633 0.28252 0.0
O380 O 0.21744 0.57624 0.31197 0.0
C381 C 0.26328 0.58631 0.28047 0.0
O382 O 0.23934 0.61365 0.30537 0.0
Co383 Co 0.24508 0.61963 0.26055 0.0
O384 O 0.25096 0.63603 0.28401 0.0
C385 C 0.20418 0.60691 0.26261 0.0
C386 C 0.21515 0.56184 0.29965 0.0
C387 C 0.24686 0.63048 0.30142 0.0
O388 O 0.20735 0.6004 0.28003 0.0
O389 O 0.21791 0.61288 0.25129 0.0
O390 O 0.25842 0.57857 0.29723 0.0
O391 O 0.24898 0.59311 0.2701 0.0
Co392 Co 0.89858 0.26714 0.19419 0.0
O393 O 0.9229 0.27492 0.20579 0.0
O394 O 0.91657 0.27516 0.17381 0.0
C395 C 0.89468 0.2396 0.21182 0.0
O396 O 0.87556 0.25917 0.17687 0.0
Co397 Co 0.86077 0.26401 0.21971 0.0
O398 O 0.84902 0.25272 0.19555 0.0
C399 C 0.87867 0.30238 0.21116 0.0
C400 C 0.92885 0.27856 0.18806 0.0
C401 C 0.85785 0.253 0.17906 0.0
O402 O 0.88871 0.2949 0.19706 0.0
O403 O 0.86832 0.29222 0.22308 0.0
O404 O 0.90567 0.23934 0.1962 0.0
O405 O 0.88802 0.2565 0.217 0.0
Co406 Co 0.23166 0.39598 0.70798 0.0
O407 O 0.23014 0.42191 0.71868 0.0
O408 O 0.22442 0.414 0.68753 0.0
C409 C 0.26026 0.38806 0.72242 0.0
O410 O 0.23248 0.37145 0.69124 0.0
Co411 Co 0.23215 0.35878 0.73414 0.0
O412 O 0.24203 0.3459 0.70977 0.0
C413 C 0.19578 0.3822 0.72941 0.0
C414 C 0.22546 0.42746 0.70104 0.0
C415 C 0.23874 0.3538 0.69313 0.0
O416 O 0.2033 0.39144 0.71479 0.0
O417 O 0.20549 0.37009 0.74006 0.0
O418 O 0.26032 0.39789 0.70605 0.0
O419 O 0.24328 0.38453 0.72995 0.0
Co420 Co 0.09338 0.72819 0.19954 0.0
O421 O 0.06782 0.72005 0.20778 0.0
O422 O 0.08004 0.71577 0.17785 0.0
C423 C 0.09272 0.75856 0.21249 0.0
O424 O 0.11849 0.73536 0.18537 0.0
Co425 Co 0.12569 0.73794 0.23025 0.0
O426 O 0.14107 0.74629 0.20691 0.0
C427 C 0.1131 0.69718 0.22431 0.0
C428 C 0.06551 0.71348 0.19001 0.0
C429 C 0.13526 0.74299 0.18941 0.0
O430 O 0.10445 0.70217 0.20828 0.0
O431 O 0.12043 0.70965 0.23632 0.0
O432 O 0.08447 0.75521 0.19559 0.0
O433 O 0.09909 0.7433 0.2217 0.0
Co434 Co 0.77153 0.60128 0.69652 0.0
O435 O 0.77385 0.57488 0.70551 0.0
O436 O 0.78538 0.58591 0.67706 0.0
C437 C 0.73963 0.60579 0.70375 0.0
O438 O 0.7708 0.62745 0.68215 0.0
Co439 Co 0.76204 0.63423 0.72672 0.0
O440 O 0.75849 0.65031 0.70269 0.0
C441 C 0.79975 0.61342 0.72807 0.0
C442 C 0.78319 0.57139 0.68927 0.0
C443 C 0.76396 0.64473 0.68566 0.0
O444 O 0.79706 0.60771 0.71027 0.0
O445 O 0.78649 0.6223 0.73799 0.0
O446 O 0.74453 0.59677 0.68764 0.0
O447 O 0.75388 0.60935 0.71573 0.0
Co448 Co 0.78813 0.90188 0.73473 0.0
O449 O 0.79248 0.92927 0.73054 0.0
O450 O 0.80935 0.90522 0.71619 0.0
C451 C 0.78572 0.90246 0.76758 0.0
O452 O 0.78866 0.87224 0.73638 0.0
Co453 Co 0.74869 0.88724 0.75222 0.0
O454 O 0.76291 0.86176 0.75425 0.0
C455 C 0.7498 0.90033 0.7113 0.0
C456 C 0.80627 0.9239 0.71853 0.0
C457 C 0.77918 0.85872 0.74547 0.0
O458 O 0.76867 0.90113 0.71234 0.0
O459 O 0.7389 0.89704 0.72623 0.0
O460 O 0.80293 0.90251 0.7593 0.0
O461 O 0.77094 0.90468 0.75589 0.0
Co462 Co 0.59557 0.2985 0.23088 0.0
O463 O 0.57066 0.2867 0.22517 0.0
O464 O 0.57919 0.31724 0.21757 0.0
C465 C 0.59759 0.28755 0.26208 0.0
O466 O 0.61905 0.31648 0.23482 0.0
Co467 Co 0.63236 0.27397 0.2417 0.0
O468 O 0.64407 0.29987 0.24851 0.0
C469 C 0.61483 0.27193 0.20218 0.0
C470 C 0.56604 0.30342 0.2172 0.0
C471 C 0.63602 0.31585 0.24302 0.0
O472 O 0.60594 0.2883 0.20517 0.0
O473 O 0.62435 0.26277 0.21555 0.0
O474 O 0.58768 0.30342 0.2582 0.0
O475 O 0.60481 0.27851 0.24715 0.0
Co476 Co 0.2044 0.0965 0.7306 0.0
O477 O 0.21161 0.06957 0.7275 0.0
O478 O 0.18282 0.08253 0.71884 0.0
C479 C 0.21534 0.10054 0.76152 0.0
O480 O 0.19099 0.12287 0.7329 0.0
Co481 Co 0.23547 0.12914 0.73719 0.0
O482 O 0.21225 0.14534 0.74451 0.0
C483 C 0.23253 0.10928 0.69917 0.0
C484 C 0.19409 0.06723 0.72026 0.0
C485 C 0.19485 0.13975 0.74038 0.0
O486 O 0.21539 0.10288 0.70384 0.0
O487 O 0.24389 0.11805 0.71128 0.0
O488 O 0.19849 0.09207 0.75839 0.0
O489 O 0.22572 0.10392 0.74605 0.0
Co490 Co 0.39985 0.69678 0.22689 0.0
O491 O 0.42403 0.70879 0.21943 0.0
O492 O 0.41558 0.67789 0.21285 0.0
C493 C 0.39988 0.70818 0.25785 0.0
O494 O 0.37653 0.67915 0.23256 0.0
Co495 Co 0.36402 0.72188 0.2398 0.0
O496 O 0.35315 0.69623 0.24841 0.0
C497 C 0.37907 0.72305 0.19912 0.0
C498 C 0.42823 0.69208 0.21127 0.0
C499 C 0.36035 0.6801 0.2422 0.0
O500 O 0.38791 0.7066 0.20174 0.0
O501 O 0.37045 0.73238 0.213 0.0
O502 O 0.40952 0.69222 0.25374 0.0
O503 O 0.39178 0.71703 0.24328 0.0
Co504 Co 0.79733 0.09078 0.25831 0.0
O505 O 0.78984 0.06435 0.26419 0.0
O506 O 0.81825 0.07809 0.27261 0.0
C507 C 0.78773 0.0906 0.22664 0.0
O508 O 0.81061 0.11714 0.25461 0.0
Co509 Co 0.76656 0.12206 0.24566 0.0
O510 O 0.79004 0.13855 0.24008 0.0
C511 C 0.76833 0.10847 0.28681 0.0
C512 C 0.80679 0.06284 0.27287 0.0
C513 C 0.80695 0.13374 0.24651 0.0
O514 O 0.78484 0.0999 0.2835 0.0
O515 O 0.7579 0.1163 0.27324 0.0
O516 O 0.80483 0.08356 0.23144 0.0
O517 O 0.77669 0.09596 0.241 0.0
Co518 Co 0.40749 0.29007 0.76927 0.0
O519 O 0.43466 0.28425 0.77352 0.0
O520 O 0.41945 0.31148 0.78328 0.0
C521 C 0.40548 0.28141 0.73737 0.0
O522 O 0.38021 0.30165 0.76731 0.0
Co523 Co 0.37729 0.25768 0.75825 0.0
O524 O 0.36017 0.28049 0.75172 0.0
C525 C 0.39372 0.25942 0.79824 0.0
C526 C 0.43541 0.30109 0.78253 0.0
C527 C 0.364 0.29742 0.75869 0.0
O528 O 0.40078 0.27657 0.79468 0.0
O529 O 0.38563 0.24874 0.78504 0.0
O530 O 0.41258 0.29849 0.7422 0.0
O531 O 0.40224 0.26964 0.75183 0.0
Co532 Co 0.19399 0.90439 0.26289 0.0
O533 O 0.20231 0.93018 0.27015 0.0
O534 O 0.17296 0.91747 0.27666 0.0
C535 C 0.20525 0.90561 0.23186 0.0
O536 O 0.17978 0.87883 0.25747 0.0
Co537 Co 0.22354 0.87212 0.25039 0.0
O538 O 0.19961 0.85754 0.24194 0.0
C539 C 0.22147 0.88549 0.29167 0.0
C540 C 0.18506 0.93216 0.27805 0.0
C541 C 0.18274 0.86265 0.24826 0.0
O542 O 0.20496 0.89399 0.28824 0.0
O543 O 0.23201 0.87771 0.27816 0.0
O544 O 0.18813 0.913 0.23603 0.0
O545 O 0.21527 0.89901 0.24648 0.0
Co546 Co 0.591 0.6963 0.76262 0.0
O547 O 0.56612 0.70187 0.77453 0.0
O548 O 0.58015 0.6724 0.77333 0.0
C549 C 0.58653 0.71293 0.73436 0.0
O550 O 0.616 0.68483 0.75106 0.0
Co551 Co 0.62046 0.73003 0.75303 0.0
O552 O 0.63485 0.70909 0.73868 0.0
C553 C 0.61287 0.71861 0.79393 0.0
C554 C 0.56548 0.68331 0.77881 0.0
C555 C 0.63083 0.69099 0.74114 0.0
O556 O 0.60461 0.70258 0.78826 0.0
O557 O 0.61818 0.73229 0.78223 0.0
O558 O 0.57918 0.69541 0.73631 0.0
O559 O 0.59393 0.72037 0.75011 0.0
Co560 Co 0.73286 0.7924 0.90537 0.0
O561 O 0.72231 0.78201 0.9292 0.0
O562 O 0.71557 0.81149 0.91702 0.0
C563 C 0.7641 0.78343 0.91104 0.0
O564 O 0.74141 0.80864 0.88197 0.0
Co565 Co 0.7529 0.76629 0.87399 0.0
O566 O 0.76264 0.7917 0.86334 0.0
C567 C 0.70983 0.76466 0.87959 0.0
C568 C 0.71309 0.79863 0.93088 0.0
C569 C 0.75418 0.8077 0.86813 0.0
O570 O 0.71049 0.78025 0.89028 0.0
O571 O 0.72524 0.756 0.87315 0.0
O572 O 0.7574 0.7996 0.91868 0.0
O573 O 0.75151 0.77287 0.90163 0.0
Co574 Co 0.72485 0.19609 0.08976 0.0
O575 O 0.71701 0.20655 0.06482 0.0
O576 O 0.71238 0.17581 0.07458 0.0
C577 C 0.7553 0.20918 0.09058 0.0
O578 O 0.73155 0.17953 0.11357 0.0
Co579 Co 0.73567 0.22275 0.12525 0.0
O580 O 0.74739 0.19812 0.13577 0.0
C581 C 0.69467 0.21972 0.11141 0.0
C582 C 0.71034 0.18907 0.06102 0.0
C583 C 0.74208 0.18144 0.12912 0.0
O584 O 0.69886 0.20427 0.10137 0.0
O585 O 0.70763 0.23018 0.12016 0.0
O586 O 0.75216 0.19313 0.08069 0.0
O587 O 0.73985 0.21741 0.09772 0.0
Co588 Co 0.29662 0.23155 0.59569 0.0
O589 O 0.28609 0.22304 0.57112 0.0
O590 O 0.31735 0.22023 0.5801 0.0
C591 C 0.28177 0.26097 0.59636 0.0
O592 O 0.31309 0.23949 0.61929 0.0
Co593 Co 0.26926 0.23964 0.63118 0.0
O594 O 0.29368 0.24856 0.64449 0.0
C595 C 0.27435 0.19966 0.6159 0.0
C596 C 0.30378 0.21725 0.56697 0.0
C597 C 0.31053 0.24645 0.63663 0.0
O598 O 0.29019 0.20508 0.60719 0.0
O599 O 0.26269 0.21175 0.62432 0.0
O600 O 0.29803 0.25878 0.58659 0.0
O601 O 0.27438 0.24523 0.60376 0.0
Co602 Co 0.26885 0.80278 0.09496 0.0
O603 O 0.27489 0.78615 0.07322 0.0
O604 O 0.27824 0.81863 0.07343 0.0
C605 C 0.23976 0.78903 0.1025 0.0
O606 O 0.26345 0.82462 0.11479 0.0
Co607 Co 0.26466 0.78483 0.13686 0.0
O608 O 0.25164 0.81031 0.14218 0.0
C609 C 0.30309 0.7864 0.11711 0.0
C610 C 0.28027 0.80203 0.06419 0.0
C611 C 0.25464 0.82535 0.1315 0.0
O612 O 0.29655 0.7989 0.10463 0.0
O613 O 0.29238 0.77791 0.12997 0.0
O614 O 0.24071 0.80205 0.08857 0.0
O615 O 0.25638 0.78361 0.10975 0.0
Co616 Co 0.69505 0.77901 0.60035 0.0
O617 O 0.70928 0.78705 0.57746 0.0
O618 O 0.6768 0.78692 0.58021 0.0
C619 C 0.71227 0.75132 0.60607 0.0
O620 O 0.67516 0.77065 0.62098 0.0
Co621 Co 0.71593 0.77597 0.6409 0.0
O622 O 0.69033 0.76542 0.64994 0.0
C623 C 0.70921 0.81431 0.62249 0.0
C624 C 0.69223 0.79009 0.56943 0.0
C625 C 0.67509 0.76522 0.63905 0.0
O626 O 0.69628 0.80669 0.611 0.0
O627 O 0.72034 0.80411 0.63366 0.0
O628 O 0.69835 0.75136 0.59299 0.0
O629 O 0.71644 0.76818 0.61361 0.0
Co630 Co 0.26447 0.2147 0.89883 0.0
O631 O 0.27313 0.22595 0.923 0.0
O632 O 0.27091 0.19391 0.91686 0.0
C633 C 0.23823 0.23406 0.89418 0.0
O634 O 0.25567 0.19783 0.87597 0.0
Co635 Co 0.26436 0.23985 0.86083 0.0
O636 O 0.25284 0.21602 0.84849 0.0
C637 C 0.30123 0.22944 0.88048 0.0
C638 C 0.27583 0.20799 0.92879 0.0
C639 C 0.25111 0.19987 0.85779 0.0
O640 O 0.29242 0.21532 0.88927 0.0
O641 O 0.29223 0.24236 0.87024 0.0
O642 O 0.2368 0.21877 0.90554 0.0
O643 O 0.25559 0.23806 0.88782 0.0
Co644 Co 0.29691 0.76875 0.394 0.0
O645 O 0.28575 0.77257 0.4196 0.0
O646 O 0.31643 0.77969 0.4111 0.0
C647 C 0.2853 0.73818 0.38851 0.0
O648 O 0.31424 0.76623 0.36996 0.0
Co649 Co 0.2714 0.76273 0.35667 0.0
O650 O 0.29656 0.75294 0.34544 0.0
C651 C 0.27238 0.80095 0.37674 0.0
C652 C 0.30294 0.77935 0.42455 0.0
C653 C 0.31289 0.75772 0.35322 0.0
O654 O 0.28793 0.79584 0.38614 0.0
O655 O 0.26256 0.78928 0.36577 0.0
O656 O 0.30087 0.74069 0.39932 0.0
O657 O 0.27639 0.75406 0.38327 0.0
Co658 Co 0.70812 0.23053 0.39846 0.0
O659 O 0.71975 0.22375 0.4232 0.0
O660 O 0.68842 0.21929 0.41524 0.0
C661 C 0.72209 0.26042 0.39619 0.0
O662 O 0.69038 0.23621 0.37522 0.0
Co663 Co 0.733 0.23908 0.36133 0.0
O664 O 0.70793 0.25024 0.35114 0.0
C665 C 0.7291 0.19861 0.37644 0.0
C666 C 0.70237 0.21766 0.4282 0.0
C667 C 0.69156 0.24544 0.35885 0.0
O668 O 0.715 0.20382 0.38783 0.0
O669 O 0.73918 0.21063 0.36611 0.0
O670 O 0.70609 0.25817 0.40637 0.0
O671 O 0.7296 0.24466 0.38895 0.0
H672 H 0.95557 0.28839 0.21573 0.0
H673 H 0.94782 0.28351 0.15273 0.0
H674 H 0.98329 0.28999 0.14804 0.0
H675 H -0.00227 0.32528 0.21508 0.0
H676 H 0.00913 0.31299 0.23556 0.0
H677 H 0.98272 0.31371 0.23354 0.0
H678 H 0.98154 0.27573 0.2358 0.0
H679 H 0.00776 0.27489 0.23777 0.0
H680 H 0.99556 0.2613 0.21858 0.0
H681 H 0.02008 0.29038 0.15073 0.0
H682 H 0.05418 0.28228 0.16055 0.0
H683 H 0.03734 0.28543 0.22174 0.0
C684 C 0.96119 0.28933 0.2009 0.0
C685 C 0.94904 0.28546 0.1846 0.0
C686 C 0.95693 0.28655 0.16542 0.0
C687 C 0.97702 0.29035 0.16263 0.0
C688 C 0.98882 0.29325 0.17916 0.0
C689 C 0.98109 0.29293 0.19794 0.0
C690 C 0.99698 0.29311 0.21342 0.0
C691 C 0.99662 0.31243 0.22508 0.0
C692 C 0.99536 0.27519 0.22716 0.0
C693 C 0.01492 0.29197 0.20048 0.0
C694 C 0.01005 0.29289 0.18076 0.0
C695 C 0.0241 0.29011 0.16611 0.0
C696 C 0.0434 0.28553 0.17178 0.0
C697 C 0.04814 0.28328 0.19186 0.0
C698 C 0.03396 0.28725 0.2063 0.0
H699 H 0.22526 0.54078 0.72594 0.0
H700 H 0.2224 0.55215 0.66329 0.0
H701 H 0.21878 0.51661 0.657 0.0
H702 H 0.25406 0.49846 0.72326 0.0
H703 H 0.24177 0.4859 0.74303 0.0
H704 H 0.24233 0.51228 0.74256 0.0
H705 H 0.20427 0.5132 0.74438 0.0
H706 H 0.20359 0.48676 0.7448 0.0
H707 H 0.19002 0.50003 0.72635 0.0
H708 H 0.21765 0.47974 0.65754 0.0
H709 H 0.22014 0.44427 0.66488 0.0
H710 H 0.22374 0.45761 0.72712 0.0
C711 C 0.2237 0.53582 0.71091 0.0
C712 C 0.22413 0.54914 0.6951 0.0
C713 C 0.22211 0.54212 0.67562 0.0
C714 C 0.21995 0.52201 0.6719 0.0
C715 C 0.21972 0.50923 0.68785 0.0
C716 C 0.2215 0.51587 0.70696 0.0
C717 C 0.22186 0.49911 0.72143 0.0
C718 C 0.24115 0.49893 0.73325 0.0
C719 C 0.20386 0.49982 0.73504 0.0
C720 C 0.22068 0.48196 0.70743 0.0
C721 C 0.21915 0.48806 0.68815 0.0
C722 C 0.21866 0.47477 0.67259 0.0
C723 C 0.22009 0.4547 0.67689 0.0
C724 C 0.22217 0.44828 0.69655 0.0
C725 C 0.22214 0.4621 0.71196 0.0
H726 H 0.037 0.69955 0.21366 0.0
H727 H 0.05112 0.70985 0.15256 0.0
H728 H 0.01648 0.7038 0.14354 0.0
H729 H 0.99353 0.66332 0.20432 0.0
H730 H 0.98061 0.67392 0.22484 0.0
H731 H 0.00703 0.67185 0.22546 0.0
H732 H 0.00964 0.70915 0.23244 0.0
H733 H 0.98349 0.71138 0.23167 0.0
H734 H -0.00162 0.72626 0.21564 0.0
H735 H 0.98001 0.70601 0.1425 0.0
H736 H 0.94601 0.71672 0.1497 0.0
H737 H 0.95573 0.70568 0.21151 0.0
C738 C 0.03292 0.69968 0.19829 0.0
C739 C 0.04655 0.70521 0.18381 0.0
C740 C 0.04083 0.70547 0.16385 0.0
C741 C 0.0212 0.70196 0.15861 0.0
C742 C 0.0077 0.69783 0.17347 0.0
C743 C 0.01345 0.69627 0.19292 0.0
C744 C 0.99599 0.69537 0.20656 0.0
C745 C 0.99419 0.67489 0.21583 0.0
C746 C 0.99694 0.71151 0.22247 0.0
C747 C 0.97962 0.69896 0.19204 0.0
C748 C 0.98646 0.6994 0.17291 0.0
C749 C 0.97438 0.70509 0.15732 0.0
C750 C 0.95513 0.7112 0.16151 0.0
C751 C 0.94852 0.71201 0.18115 0.0
C752 C 0.96058 0.70502 0.19638 0.0
H753 H 0.78588 0.46215 0.71864 0.0
H754 H 0.78181 0.44801 0.65678 0.0
H755 H 0.79214 0.48185 0.64844 0.0
H756 H 0.76376 0.50448 0.71696 0.0
H757 H 0.77845 0.51739 0.73483 0.0
H758 H 0.77679 0.49119 0.73582 0.0
H759 H 0.81471 0.48835 0.7338 0.0
H760 H 0.81654 0.51475 0.73299 0.0
H761 H 0.8277 0.5001 0.71398 0.0
H762 H 0.79468 0.51867 0.64721 0.0
H763 H 0.78948 0.55418 0.6533 0.0
H764 H 0.79211 0.54369 0.71595 0.0
C765 C 0.78793 0.466 0.70335 0.0
C766 C 0.78307 0.45267 0.68834 0.0
C767 C 0.78568 0.45808 0.66848 0.0
C768 C 0.79158 0.47724 0.66363 0.0
C769 C 0.79524 0.49049 0.67886 0.0
C770 C 0.79389 0.48491 0.69837 0.0
C771 C 0.79559 0.50228 0.71203 0.0
C772 C 0.77757 0.50392 0.72567 0.0
C773 C 0.81478 0.50131 0.7239 0.0
C774 C 0.79622 0.51871 0.69721 0.0
C775 C 0.7967 0.51172 0.67814 0.0
C776 C 0.79489 0.52432 0.66206 0.0
C777 C 0.7919 0.54443 0.66562 0.0
C778 C 0.79035 0.55148 0.68508 0.0
C779 C 0.79332 0.53859 0.70094 0.0
H780 H 0.94744 0.72372 0.81081 0.0
H781 H 0.93277 0.72055 0.74883 0.0
H782 H 0.96801 0.71679 0.74084 0.0
H783 H 0.99067 0.75184 0.80584 0.0
H784 H 0.0038 0.73929 0.8251 0.0
H785 H 0.97741 0.74074 0.82586 0.0
H786 H 0.97537 0.7028 0.82811 0.0
H787 H 0.00178 0.70123 0.82728 0.0
H788 H 0.98715 0.68798 0.80961 0.0
H789 H 0.00473 0.71533 0.73961 0.0
H790 H 0.04055 0.71638 0.74507 0.0
H791 H 0.03101 0.71965 0.808 0.0
C792 C 0.95161 0.72216 0.79555 0.0
C793 C 0.93743 0.72248 0.7804 0.0
C794 C 0.94344 0.72036 0.76063 0.0
C795 C 0.96338 0.71816 0.75597 0.0
C796 C 0.97698 0.71794 0.77129 0.0
C797 C 0.97135 0.71983 0.79067 0.0
C798 C 0.98888 0.71971 0.80434 0.0
C799 C 0.99027 0.73905 0.81596 0.0
C800 C 0.98825 0.70186 0.81815 0.0
C801 C 0.00533 0.71788 0.78958 0.0
C802 C -0.00185 0.71678 0.77061 0.0
C803 C 0.01054 0.71599 0.7544 0.0
C804 C 0.03083 0.71664 0.75766 0.0
C805 C 0.03848 0.71802 0.77696 0.0
C806 C 0.02555 0.71833 0.79311 0.0
H807 H 0.77814 0.54434 0.3206 0.0
H808 H 0.80974 0.5525 0.26611 0.0
H809 H 0.82147 0.51838 0.26762 0.0
H810 H 0.81284 0.50364 0.34249 0.0
H811 H 0.79174 0.491 0.35224 0.0
H812 H 0.79201 0.51746 0.3512 0.0
H813 H 0.75941 0.51686 0.33159 0.0
H814 H 0.75913 0.49059 0.33239 0.0
H815 H 0.7581 0.50301 0.30904 0.0
H816 H 0.82093 0.48306 0.26881 0.0
H817 H 0.80877 0.44902 0.27011 0.0
H818 H 0.77791 0.46186 0.3241 0.0
C819 C 0.78842 0.53912 0.30965 0.0
C820 C 0.79328 0.55089 0.29337 0.0
C821 C 0.80602 0.5436 0.27875 0.0
C822 C 0.81287 0.5243 0.2796 0.0
C823 C 0.8068 0.51249 0.29515 0.0
C824 C 0.79505 0.51966 0.31014 0.0
C825 C 0.78729 0.5031 0.32283 0.0
C826 C 0.79653 0.50385 0.34341 0.0
C827 C 0.76466 0.50341 0.32399 0.0
C828 C 0.79474 0.48553 0.31141 0.0
C829 C 0.80659 0.49131 0.29593 0.0
C830 C 0.81238 0.47823 0.28128 0.0
C831 C 0.80532 0.45899 0.28203 0.0
C832 C 0.79281 0.45302 0.2974 0.0
C833 C 0.78809 0.46612 0.31267 0.0
H834 H 0.03147 0.27687 0.76912 0.0
H835 H 0.04336 0.28979 0.83039 0.0
H836 H 0.00774 0.29415 0.83622 0.0
H837 H 0.9892 0.31076 0.76325 0.0
H838 H 0.97648 0.29377 0.74741 0.0
H839 H 0.00295 0.2944 0.74764 0.0
H840 H 0.00383 0.25717 0.75556 0.0
H841 H 0.97745 0.25642 0.75537 0.0
H842 H 0.99074 0.24813 0.77671 0.0
H843 H 0.97081 0.29308 0.83602 0.0
H844 H 0.93566 0.28632 0.83 0.0
H845 H 0.94844 0.27446 0.76871 0.0
C846 C 0.02665 0.28098 0.7837 0.0
C847 C 0.04011 0.283 0.79932 0.0
C848 C 0.03324 0.28823 0.81821 0.0
C849 C 0.01307 0.29081 0.82163 0.0
C850 C 0.00013 0.28833 0.80593 0.0
C851 C 0.00669 0.28365 0.78731 0.0
C852 C 0.98984 0.28017 0.77329 0.0
C853 C 0.98961 0.29571 0.75693 0.0
C854 C 0.99051 0.25923 0.76475 0.0
C855 C 0.97271 0.28281 0.7871 0.0
C856 C 0.97889 0.28781 0.8058 0.0
C857 C 0.96576 0.28951 0.82138 0.0
C858 C 0.94585 0.28559 0.81782 0.0
C859 C 0.93937 0.27994 0.79887 0.0
C860 C 0.95294 0.27901 0.78328 0.0
H861 H 0.21982 0.45393 0.32846 0.0
H862 H 0.18089 0.44499 0.27899 0.0
H863 H 0.16956 0.47919 0.28155 0.0
H864 H 0.18891 0.49581 0.35398 0.0
H865 H 0.21137 0.5083 0.36036 0.0
H866 H 0.21053 0.48183 0.36015 0.0
H867 H 0.24008 0.48117 0.33625 0.0
H868 H 0.24093 0.50742 0.33629 0.0
H869 H 0.23847 0.49439 0.31336 0.0
H870 H 0.17055 0.51441 0.28184 0.0
H871 H 0.18401 0.54789 0.27971 0.0
H872 H 0.22226 0.53608 0.32901 0.0
C873 C 0.20813 0.45903 0.31895 0.0
C874 C 0.201 0.44701 0.30369 0.0
C875 C 0.18636 0.4541 0.29085 0.0
C876 C 0.17973 0.47344 0.29234 0.0
C877 C 0.18797 0.4855 0.3067 0.0
C878 C 0.20173 0.47853 0.32 0.0
C879 C 0.21147 0.49527 0.331 0.0
C880 C 0.20518 0.4953 0.35266 0.0
C881 C 0.23405 0.49451 0.32907 0.0
C882 C 0.20276 0.51266 0.32021 0.0
C883 C 0.18856 0.5067 0.30687 0.0
C884 C 0.181 0.51942 0.29272 0.0
C885 C 0.18877 0.53836 0.29152 0.0
C886 C 0.20375 0.54438 0.30449 0.0
C887 C 0.21021 0.5318 0.31954 0.0
H888 H 0.20943 0.95778 0.29566 0.0
H889 H 0.14842 0.94857 0.28034 0.0
H890 H 0.14115 0.98318 0.28854 0.0
H891 H 0.1999 -0.00127 0.335 0.0
H892 H 0.22198 0.01103 0.32715 0.0
H893 H 0.2208 0.98458 0.32701 0.0
H894 H 0.23061 0.98444 0.29026 0.0
H895 H 0.23168 0.01065 0.29024 0.0
H896 H 0.21599 -0.00184 0.27292 0.0
H897 H 0.14275 0.01956 0.2885 0.0
H898 H 0.15301 0.05337 0.28037 0.0
H899 H 0.21288 0.03904 0.29642 0.0
C900 C 0.19439 0.96291 0.2949 0.0
C901 C 0.17949 0.95077 0.28736 0.0
C902 C 0.15998 0.95775 0.28629 0.0
C903 C 0.15574 0.97735 0.29101 0.0
C904 C 0.17109 0.98946 0.29724 0.0
C905 C 0.19 0.98232 0.29967 0.0
C906 C 0.20458 -0.00132 0.30312 0.0
C907 C 0.21226 -0.00177 0.32433 0.0
C908 C 0.22167 -0.00207 0.28824 0.0
C909 C 0.19142 0.01622 0.29983 0.0
C910 C 0.17199 0.01073 0.29734 0.0
C911 C 0.15776 0.02413 0.2911 0.0
C912 C 0.16371 0.0433 0.28647 0.0
C913 C 0.18374 0.04863 0.28775 0.0
C914 C 0.19746 0.03526 0.29548 0.0
H915 H 0.54028 0.65701 0.76337 0.0
H916 H 0.55095 0.69316 0.8144 0.0
H917 H 0.51741 0.68648 0.8263 0.0
H918 H 0.49916 0.67647 0.75197 0.0
H919 H 0.48602 0.6552 0.74322 0.0
H920 H 0.51227 0.65526 0.74303 0.0
H921 H 0.51273 0.62354 0.76395 0.0
H922 H 0.48622 0.62338 0.76417 0.0
H923 H 0.49969 0.62278 0.78696 0.0
H924 H 0.48195 0.68517 0.82737 0.0
H925 H 0.448 0.69136 0.81639 0.0
H926 H 0.45838 0.65717 0.764 0.0
C927 C 0.53576 0.66242 0.77762 0.0
C928 C 0.54808 0.67509 0.78833 0.0
C929 C 0.54169 0.68303 0.80634 0.0
C930 C 0.5227 0.67919 0.81322 0.0
C931 C 0.51025 0.66761 0.80174 0.0
C932 C 0.51658 0.65917 0.78432 0.0
C933 C 0.49937 0.65151 0.7724 0.0
C934 C 0.4992 0.66016 0.75146 0.0
C935 C 0.49951 0.62896 0.77185 0.0
C936 C 0.48239 0.65901 0.78466 0.0
C937 C 0.48897 0.66728 0.80207 0.0
C938 C 0.4765 0.67809 0.81422 0.0
C939 C 0.45723 0.68153 0.80793 0.0
C940 C 0.45068 0.67418 0.78971 0.0
C941 C 0.46302 0.66208 0.7784 0.0
H942 H 0.78276 0.0365 0.28999 0.0
H943 H 0.84379 0.04744 0.27599 0.0
H944 H 0.85215 0.01347 0.28588 0.0
H945 H 0.79297 -0.00028 0.33217 0.0
H946 H 0.77167 0.98569 0.32509 0.0
H947 H 0.77169 0.01202 0.32233 0.0
H948 H 0.76295 0.00809 0.28547 0.0
H949 H 0.76295 0.98195 0.28809 0.0
H950 H 0.77857 0.99331 0.27 0.0
H951 H 0.85202 0.97691 0.28873 0.0
H952 H 0.84351 0.9419 0.28466 0.0
H953 H 0.78282 0.95513 0.29853 0.0
C954 C 0.79798 0.0319 0.28972 0.0
C955 C 0.81264 0.04434 0.28222 0.0
C956 C 0.83241 0.03802 0.28188 0.0
C957 C 0.83727 0.01881 0.28754 0.0
C958 C 0.82225 0.00647 0.29406 0.0
C959 C 0.80304 0.01296 0.29562 0.0
C960 C 0.78913 0.99636 0.30035 0.0
C961 C 0.78089 -0.00142 0.32123 0.0
C962 C 0.77246 0.99484 0.28505 0.0
C963 C 0.80312 0.9792 0.29913 0.0
C964 C 0.82229 0.98529 0.29617 0.0
C965 C 0.83721 0.97196 0.29169 0.0
C966 C 0.83224 0.95209 0.28937 0.0
C967 C 0.8125 0.94589 0.29128 0.0
C968 C 0.79806 0.95947 0.2972 0.0
H969 H 0.54443 0.28241 0.80216 0.0
H970 H 0.55371 0.34293 0.78523 0.0
H971 H 0.51913 0.35042 0.79316 0.0
H972 H 0.5054 0.27541 0.77817 0.0
H973 H 0.49199 0.26003 0.79502 0.0
H974 H 0.51818 0.26102 0.79639 0.0
H975 H 0.51644 0.27149 0.83291 0.0
H976 H 0.48999 0.27019 0.8318 0.0
H977 H 0.50184 0.29242 0.83992 0.0
H978 H 0.48278 0.349 0.79292 0.0
H979 H 0.44894 0.33879 0.78437 0.0
H980 H 0.46321 0.2788 0.7996 0.0
C981 C 0.53936 0.29743 0.80105 0.0
C982 C 0.55152 0.31206 0.79304 0.0
C983 C 0.54456 0.33155 0.79153 0.0
C984 C 0.52495 0.33593 0.79607 0.0
C985 C 0.51274 0.32072 0.8024 0.0
C986 C 0.51986 0.30188 0.80532 0.0
C987 C 0.5034 0.28726 0.80814 0.0
C988 C 0.50484 0.26996 0.79355 0.0
C989 C 0.50289 0.27992 0.82946 0.0
C990 C 0.48599 0.30028 0.80386 0.0
C991 C 0.49149 0.31973 0.80165 0.0
C992 C 0.47821 0.33396 0.7952 0.0
C993 C 0.45909 0.32805 0.79028 0.0
C994 C 0.4538 0.30803 0.79127 0.0
C995 C 0.4671 0.2942 0.79882 0.0
H996 H 0.19114 0.03846 0.74642 0.0
H997 H 0.18131 0.05209 0.6852 0.0
H998 H 0.17407 0.01692 0.67849 0.0
H999 H 0.21698 -0.00203 0.74051 0.0
H1000 H 0.20707 0.98433 0.7609 0.0
H1001 H 0.20665 0.01061 0.76137 0.0
H1002 H 0.1689 0.01019 0.76654 0.0
H1003 H 0.1692 0.98372 0.76618 0.0
H1004 H 0.15346 -0.00301 0.74954 0.0
H1005 H 0.17463 0.97959 0.67787 0.0
H1006 H 0.18292 0.94444 0.68348 0.0
H1007 H 0.19188 0.95653 0.7452 0.0
C1008 C 0.18681 0.03403 0.73176 0.0
C1009 C 0.18669 0.04757 0.71629 0.0
C1010 C 0.18123 0.04165 0.69718 0.0
C1011 C 0.17704 0.02181 0.69332 0.0
C1012 C 0.17793 0.00849 0.70889 0.0
C1013 C 0.18232 0.01452 0.72783 0.0
C1014 C 0.18471 -0.00257 0.74164 0.0
C1015 C 0.20506 -0.00239 0.75166 0.0
C1016 C 0.16807 -0.00294 0.75687 0.0
C1017 C 0.18272 0.98075 0.72727 0.0
C1018 C 0.17817 0.98722 0.70854 0.0
C1019 C 0.17767 0.97433 0.69255 0.0
C1020 C 0.18241 0.9545 0.6958 0.0
C1021 C 0.18793 0.94817 0.71475 0.0
C1022 C 0.18751 0.96125 0.73064 0.0
H1023 H 0.45472 0.6629 0.21651 0.0
H1024 H 0.44399 0.7169 0.18493 0.0
H1025 H 0.47875 0.71835 0.17527 0.0
H1026 H 0.49266 0.67734 0.23949 0.0
H1027 H 0.50764 0.6555 0.23919 0.0
H1028 H 0.48155 0.65345 0.23664 0.0
H1029 H 0.48564 0.63481 0.20379 0.0
H1030 H 0.51198 0.63645 0.20639 0.0
H1031 H 0.50022 0.64539 0.18441 0.0
H1032 H 0.51362 0.72078 0.17903 0.0
H1033 H 0.5465 0.72268 0.194 0.0
H1034 H 0.53684 0.66703 0.22305 0.0
C1035 C 0.45964 0.67426 0.20655 0.0
C1036 C 0.44695 0.68964 0.20114 0.0
C1037 C 0.45367 0.70492 0.18894 0.0
C1038 C 0.47335 0.70576 0.1833 0.0
C1039 C 0.48605 0.69124 0.19012 0.0
C1040 C 0.47946 0.67548 0.20119 0.0
C1041 C 0.49653 0.66435 0.2102 0.0
C1042 C 0.49446 0.6626 0.23269 0.0
C1043 C 0.49872 0.64405 0.20062 0.0
C1044 C 0.51339 0.67767 0.2045 0.0
C1045 C 0.50708 0.69265 0.19227 0.0
C1046 C 0.51896 0.70873 0.1879 0.0
C1047 C 0.53748 0.70984 0.19664 0.0
C1048 C 0.54396 0.6949 0.20941 0.0
C1049 C 0.53218 0.67829 0.21283 0.0
H1050 H 0.83533 0.02964 0.72445 0.0
H1051 H 0.79791 0.03527 0.67358 0.0
H1052 H 0.8052 0.00106 0.66421 0.0
H1053 H 0.86931 0.98655 0.70412 0.0
H1054 H 0.86893 0.97554 0.72817 0.0
H1055 H 0.86923 0.00191 0.72568 0.0
H1056 H 0.83795 0.00421 0.74714 0.0
H1057 H 0.83755 0.97814 0.74962 0.0
H1058 H 0.8163 0.99069 0.73997 0.0
H1059 H 0.8072 0.9656 0.666 0.0
H1060 H 0.80018 0.93322 0.68054 0.0
H1061 H 0.83349 0.94896 0.73217 0.0
C1062 C 0.82983 0.02386 0.71068 0.0
C1063 C 0.81663 0.03493 0.69935 0.0
C1064 C 0.80851 0.02696 0.68206 0.0
C1065 C 0.81269 0.00758 0.67663 0.0
C1066 C 0.8247 0.99632 0.68889 0.0
C1067 C 0.83327 0.00425 0.70561 0.0
C1068 C 0.84085 0.9883 0.71913 0.0
C1069 C 0.86342 0.98806 0.71927 0.0
C1070 C 0.83263 0.99047 0.74016 0.0
C1071 C 0.83285 0.97032 0.70879 0.0
C1072 C 0.82486 0.97511 0.69068 0.0
C1073 C 0.81398 0.96154 0.67978 0.0
C1074 C 0.81007 0.94315 0.6881 0.0
C1075 C 0.81671 0.93878 0.7072 0.0
C1076 C 0.82896 0.95202 0.71723 0.0
H1077 H 0.53792 0.27604 0.21068 0.0
H1078 H 0.54966 0.33841 0.206 0.0
H1079 H 0.5148 0.3443 0.1978 0.0
H1080 H 0.49669 0.2743 0.17213 0.0
H1081 H 0.48363 0.25646 0.18665 0.0
H1082 H 0.51012 0.25663 0.18656 0.0
H1083 H 0.51018 0.25942 0.22453 0.0
H1084 H 0.48387 0.2594 0.22474 0.0
H1085 H 0.4971 0.27935 0.23606 0.0
H1086 H 0.47813 0.34415 0.19754 0.0
H1087 H 0.44327 0.33789 0.2057 0.0
H1088 H 0.45577 0.27571 0.21073 0.0
C1089 C 0.53328 0.29085 0.20726 0.0
C1090 C 0.54635 0.30676 0.20901 0.0
C1091 C 0.53981 0.32599 0.20464 0.0
C1092 C 0.52007 0.32946 0.19986 0.0
C1093 C 0.50727 0.31349 0.19916 0.0
C1094 C 0.51372 0.2945 0.20246 0.0
C1095 C 0.49679 0.28025 0.20381 0.0
C1096 C 0.49681 0.26608 0.18624 0.0
C1097 C 0.49701 0.26898 0.22345 0.0
C1098 C 0.47978 0.2944 0.20258 0.0
C1099 C 0.48601 0.31342 0.19917 0.0
C1100 C 0.47301 0.32926 0.19968 0.0
C1101 C 0.45329 0.3256 0.20439 0.0
C1102 C 0.44702 0.30634 0.20889 0.0
C1103 C 0.46026 0.29056 0.20727 0.0
H1104 H 0.26949 0.17164 0.03665 0.0
H1105 H 0.30604 0.22184 0.05033 0.0
H1106 H 0.3164 0.22387 0.01579 0.0
H1107 H 0.30081 0.15227 0.99256 0.0
H1108 H 0.27868 0.14596 0.97944 0.0
H1109 H 0.27953 0.14383 0.00583 0.0
H1110 H 0.24885 0.16615 0.00846 0.0
H1111 H 0.24801 0.16853 0.98227 0.0
H1112 H 0.24935 0.19021 -0.00258 0.0
H1113 H 0.31551 0.22664 0.9806 0.0
H1114 H 0.30371 0.2298 0.9466 0.0
H1115 H 0.26753 0.178 0.95399 0.0
C1116 C 0.28041 0.18237 0.03239 0.0
C1117 C 0.28718 0.19648 0.0459 0.0
C1118 C 0.30083 0.2109 0.04001 0.0
C1119 C 0.30693 0.21201 0.02049 0.0
C1120 C 0.29916 0.19863 0.00711 0.0
C1121 C 0.28632 0.1839 0.01277 0.0
C1122 C 0.27714 0.17399 0.99506 0.0
C1123 C 0.28449 0.15275 0.99311 0.0
C1124 C 0.25452 0.1748 0.99586 0.0
C1125 C 0.28527 0.18675 0.97879 0.0
C1126 C 0.29852 0.20037 0.98605 0.0
C1127 C 0.3057 0.21568 0.97458 0.0
C1128 C 0.29876 0.2175 0.95538 0.0
C1129 C 0.28484 0.20407 0.94789 0.0
C1130 C 0.27856 0.18811 0.95941 0.0
H1131 H 0.27545 0.82795 0.03398 0.0
H1132 H 0.30267 0.77269 0.04984 0.0
H1133 H 0.31155 0.76697 0.01531 0.0
H1134 H 0.2517 0.81144 0.99524 0.0
H1135 H 0.2543 0.83242 0.97933 0.0
H1136 H 0.2556 0.83558 0.00544 0.0
H1137 H 0.2898 0.85189 0.00212 0.0
H1138 H 0.28854 0.84892 0.97582 0.0
H1139 H 0.30918 0.83922 0.98928 0.0
H1140 H 0.30965 0.76277 0.98008 0.0
H1141 H 0.29774 0.76081 0.94597 0.0
H1142 H 0.27214 0.81879 0.95141 0.0
C1143 C 0.28407 0.81515 0.03017 0.0
C1144 C 0.28852 0.80079 0.04437 0.0
C1145 C 0.29918 0.78382 0.03902 0.0
C1146 C 0.30445 0.78055 0.0195 0.0
C1147 C 0.29895 0.79442 0.00553 0.0
C1148 C 0.28919 0.81154 0.01058 0.0
C1149 C 0.28197 0.82226 0.99245 0.0
C1150 C 0.25957 0.82559 0.99317 0.0
C1151 C 0.29304 0.84172 0.98976 0.0
C1152 C 0.28761 0.8076 0.97668 0.0
C1153 C 0.29795 0.79197 0.98452 0.0
C1154 C 0.30218 0.7752 0.97359 0.0
C1155 C 0.29522 0.77411 0.95431 0.0
C1156 C 0.28426 0.78973 0.9462 0.0
C1157 C 0.281 0.80693 0.95724 0.0
H1158 H 0.72164 0.79001 0.5426 0.0
H1159 H 0.65896 0.79958 0.5487 0.0
H1160 H 0.65577 0.80144 0.51259 0.0
H1161 H 0.72902 0.81963 0.49606 0.0
H1162 H 0.74639 0.80183 0.48699 0.0
H1163 H 0.74446 0.80638 0.513 0.0
H1164 H 0.73839 0.76928 0.51888 0.0
H1165 H 0.74006 0.76464 0.493 0.0
H1166 H 0.7184 0.75726 0.50629 0.0
H1167 H 0.65862 0.79672 0.47614 0.0
H1168 H 0.66697 0.78451 0.44296 0.0
H1169 H 0.72743 0.77631 0.4613 0.0
C1170 C 0.70735 0.79325 0.53639 0.0
C1171 C 0.69057 0.7948 0.54839 0.0
C1172 C 0.67203 0.7985 0.53972 0.0
C1173 C 0.6701 0.79966 0.51924 0.0
C1174 C 0.68687 0.79718 0.50774 0.0
C1175 C 0.70518 0.79417 0.51605 0.0
C1176 C 0.72036 0.78896 0.50074 0.0
C1177 C 0.73598 0.80517 0.4991 0.0
C1178 C 0.72983 0.76885 0.50499 0.0
C1179 C 0.70754 0.78831 0.48265 0.0
C1180 C 0.6884 0.79371 0.48681 0.0
C1181 C 0.67363 0.79282 0.47264 0.0
C1182 C 0.67848 0.78584 0.45387 0.0
C1183 C 0.69781 0.77944 0.4497 0.0
C1184 C 0.71254 0.78115 0.46414 0.0
H1185 H 0.70426 0.21408 0.03061 0.0
H1186 H 0.69876 0.15298 0.04748 0.0
H1187 H 0.691 0.14422 0.01317 0.0
H1188 H 0.66662 0.21268 0.98837 0.0
H1189 H 0.68176 0.2291 0.97419 0.0
H1190 H 0.68097 0.23129 0.00058 0.0
H1191 H 0.7189 0.22806 0.00193 0.0
H1192 H 0.71979 0.22577 0.97575 0.0
H1193 H 0.73047 0.20691 0.99096 0.0
H1194 H 0.69154 0.14116 0.97674 0.0
H1195 H 0.70121 0.1441 0.94188 0.0
H1196 H 0.70664 0.2071 0.94886 0.0
C1197 C 0.70069 0.19897 0.02721 0.0
C1198 C 0.70212 0.18421 0.04161 0.0
C1199 C 0.69766 0.16454 0.03663 0.0
C1200 C 0.69311 0.15945 0.0172 0.0
C1201 C 0.69279 0.17426 0.00307 0.0
C1202 C 0.6962 0.1937 0.00793 0.0
C1203 C 0.69821 0.20638 0.98985 0.0
C1204 C 0.68085 0.22071 0.98815 0.0
C1205 C 0.71801 0.21739 0.98962 0.0
C1206 C 0.69722 0.19079 0.9741 0.0
C1207 C 0.69332 0.17245 0.98189 0.0
C1208 C 0.69406 0.1555 0.97039 0.0
C1209 C 0.6996 0.15728 0.95063 0.0
C1210 C 0.7047 0.17582 0.94284 0.0
C1211 C 0.70269 0.19277 0.9545 0.0
H1212 H 0.27742 0.20475 0.54006 0.0
H1213 H 0.33994 0.21128 0.55019 0.0
H1214 H 0.3463 0.20336 0.51536 0.0
H1215 H 0.28122 0.1662 0.49847 0.0
H1216 H 0.2608 0.17762 0.48607 0.0
H1217 H 0.26169 0.17721 0.51253 0.0
H1218 H 0.25784 0.21506 0.51314 0.0
H1219 H 0.25713 0.21563 0.48688 0.0
H1220 H 0.27519 0.23002 0.49986 0.0
H1221 H 0.34522 0.20321 0.47889 0.0
H1222 H 0.33682 0.21158 0.44461 0.0
H1223 H 0.27494 0.20588 0.45832 0.0
C1224 C 0.29249 0.20377 0.5351 0.0
C1225 C 0.30818 0.20867 0.54766 0.0
C1226 C 0.32772 0.20745 0.54074 0.0
C1227 C 0.33145 0.20285 0.52101 0.0
C1228 C 0.31551 0.1992 0.50863 0.0
C1229 C 0.29638 0.1993 0.51554 0.0
C1230 C 0.28164 0.19842 0.49897 0.0
C1231 C 0.2707 0.17868 0.49901 0.0
C1232 C 0.26714 0.21582 0.49977 0.0
C1233 C 0.29534 0.19985 0.48163 0.0
C1234 C 0.31485 0.19942 0.48739 0.0
C1235 C 0.33005 0.20299 0.47414 0.0
C1236 C 0.32515 0.20781 0.45473 0.0
C1237 C 0.30523 0.20943 0.44901 0.0
C1238 C 0.29027 0.20461 0.46239 0.0
H1239 H 0.6993 0.77726 0.04057 0.0
H1240 H 0.69865 0.84032 0.04912 0.0
H1241 H 0.69079 0.84492 0.01402 0.0
H1242 H 0.72507 0.77681 0.00022 0.0
H1243 H 0.71268 0.75695 0.98783 0.0
H1244 H 0.71205 0.75838 0.01406 0.0
H1245 H 0.67397 0.75802 0.01329 0.0
H1246 H 0.6745 0.75657 0.98685 0.0
H1247 H 0.66093 0.77591 -0.00122 0.0
H1248 H 0.69129 0.84301 0.97769 0.0
H1249 H 0.70133 0.83482 0.94385 0.0
H1250 H 0.70143 0.77301 0.95887 0.0
C1251 C 0.69682 0.79201 0.03518 0.0
C1252 C 0.69963 0.80843 0.04742 0.0
C1253 C 0.69648 0.82753 0.03992 0.0
C1254 C 0.69186 0.83026 0.02004 0.0
C1255 C 0.69009 0.81374 0.00806 0.0
C1256 C 0.69221 0.79493 0.01545 0.0
C1257 C 0.69293 0.7798 -0.00076 0.0
C1258 C 0.71181 0.76729 0.00041 0.0
C1259 C 0.67448 0.76681 -0.00044 0.0
C1260 C 0.69291 0.79315 0.98155 0.0
C1261 C 0.69044 0.81262 0.98684 0.0
C1262 C 0.69264 0.8278 0.97328 0.0
C1263 C 0.69839 0.82303 0.9541 0.0
C1264 C 0.70219 0.80329 0.9489 0.0
C1265 C 0.69844 0.7882 0.9625 0.0
H1266 H 0.72487 0.2122 0.54097 0.0
H1267 H 0.66274 0.20109 0.5498 0.0
H1268 H 0.65871 0.19519 0.51428 0.0
H1269 H 0.72022 0.23977 0.5004 0.0
H1270 H 0.74172 0.23091 0.48775 0.0
H1271 H 0.74067 0.2299 0.51406 0.0
H1272 H 0.74732 0.19243 0.51312 0.0
H1273 H 0.74854 0.19334 0.48669 0.0
H1274 H 0.73171 0.17674 0.49858 0.0
H1275 H 0.66026 0.19649 0.47776 0.0
H1276 H 0.66738 0.20462 0.44315 0.0
H1277 H 0.72852 0.21465 0.45827 0.0
C1278 C 0.71054 0.20793 0.53551 0.0
C1279 C 0.69413 0.20709 0.54806 0.0
C1280 C 0.67554 0.20175 0.54039 0.0
C1281 C 0.67313 0.19827 0.52026 0.0
C1282 C 0.6895 0.19993 0.50813 0.0
C1283 C 0.70791 0.2044 0.5155 0.0
C1284 C 0.72263 0.20764 0.49922 0.0
C1285 C 0.73183 0.22828 0.50043 0.0
C1286 C 0.73849 0.19158 0.49942 0.0
C1287 C 0.70934 0.20558 0.48156 0.0
C1288 C 0.69039 0.20066 0.48694 0.0
C1289 C 0.67513 0.19988 0.4733 0.0
C1290 C 0.67929 0.20461 0.45371 0.0
C1291 C 0.6985 0.21023 0.4481 0.0
C1292 C 0.71374 0.21019 0.46212 0.0
H1293 H 0.277 0.78267 0.45476 0.0
H1294 H 0.3386 0.78962 0.44 0.0
H1295 H 0.34626 0.796 0.47486 0.0
H1296 H 0.27635 0.81963 0.49629 0.0
H1297 H 0.25963 0.80455 0.51019 0.0
H1298 H 0.25851 0.8046 0.48374 0.0
H1299 H 0.26264 0.76675 0.48349 0.0
H1300 H 0.26383 0.76659 0.50981 0.0
H1301 H 0.28353 0.75593 0.49569 0.0
H1302 H 0.34796 0.79566 0.51155 0.0
H1303 H 0.3434 0.78868 0.54688 0.0
H1304 H 0.28067 0.78259 0.5373 0.0
C1305 C 0.29202 0.78607 0.45878 0.0
C1306 C 0.3072 0.78564 0.44477 0.0
C1307 C 0.32672 0.78995 0.45056 0.0
C1308 C 0.3312 0.7937 0.4703 0.0
C1309 C 0.31595 0.79339 0.48391 0.0
C1310 C 0.29669 0.78993 0.47835 0.0
C1311 C 0.28333 0.78818 0.49593 0.0
C1312 C 0.26859 0.80526 0.49657 0.0
C1313 C 0.27273 0.76818 0.49624 0.0
C1314 C 0.29825 0.78985 0.51226 0.0
C1315 C 0.31692 0.79333 0.50512 0.0
C1316 C 0.33335 0.79341 0.51738 0.0
C1317 C 0.33064 0.78938 0.53739 0.0
C1318 C 0.31169 0.78511 0.54475 0.0
C1319 C 0.29531 0.78597 0.5321 0.0
H1320 H 0.16887 0.3725 0.24753 0.0
H1321 H 0.17368 0.36195 0.30992 0.0
H1322 H 0.14362 0.34169 0.3088 0.0
H1323 H 0.11071 0.36819 0.24538 0.0
H1324 H 0.11284 0.35666 0.22165 0.0
H1325 H 0.12971 0.37587 0.22865 0.0
H1326 H 0.15889 0.35267 0.22121 0.0
H1327 H 0.14231 0.33346 0.21451 0.0
H1328 H 0.16029 0.32926 0.23351 0.0
H1329 H 0.12223 0.31433 0.29903 0.0
H1330 H 0.1093 0.28503 0.28211 0.0
H1331 H 0.11583 0.31435 0.22613 0.0
C1332 C 0.16281 0.36681 0.26108 0.0
C1333 C 0.17331 0.36873 0.27879 0.0
C1334 C 0.16553 0.36086 0.29629 0.0
C1335 C 0.14847 0.34933 0.29575 0.0
C1336 C 0.13915 0.3464 0.27769 0.0
C1337 C 0.14567 0.35554 0.26073 0.0
C1338 C 0.13533 0.34755 0.24272 0.0
C1339 C 0.12131 0.36299 0.2341 0.0
C1340 C 0.15009 0.34029 0.22712 0.0
C1341 C 0.12397 0.3308 0.25184 0.0
C1342 C 0.12582 0.33075 0.2721 0.0
C1343 C 0.11992 0.31466 0.28331 0.0
C1344 C 0.11271 0.298 0.27358 0.0
C1345 C 0.11138 0.29762 0.25286 0.0
C1346 C 0.11612 0.31457 0.24202 0.0
H1347 H 0.1081 0.67828 0.72605 0.0
H1348 H 0.10487 0.65749 0.78576 0.0
H1349 H 0.11527 0.62462 0.77494 0.0
H1350 H 0.1011 0.62378 0.70111 0.0
H1351 H 0.11795 0.63145 0.68222 0.0
H1352 H 0.10016 0.64855 0.69187 0.0
H1353 H 0.12814 0.67287 0.69982 0.0
H1354 H 0.14576 0.65604 0.69043 0.0
H1355 H 0.14824 0.66499 0.71527 0.0
H1356 H 0.13927 0.60216 0.76231 0.0
H1357 H 0.17225 0.5941 0.75015 0.0
H1358 H 0.16129 0.62712 0.69734 0.0
C1359 C 0.1084 0.66629 0.73646 0.0
C1360 C 0.10586 0.67017 0.75659 0.0
C1361 C 0.10655 0.65463 0.7702 0.0
C1362 C 0.11245 0.63587 0.76409 0.0
C1363 C 0.11726 0.63294 0.74431 0.0
C1364 C 0.11452 0.64763 0.73047 0.0
C1365 C 0.12502 0.64282 0.71144 0.0
C1366 C 0.11017 0.63625 0.69574 0.0
C1367 C 0.13755 0.66019 0.70389 0.0
C1368 C 0.1374 0.6256 0.71812 0.0
C1369 C 0.1316 0.61913 0.73658 0.0
C1370 C 0.1434 0.60646 0.7476 0.0
C1371 C 0.16217 0.60187 0.74059 0.0
C1372 C 0.16886 0.6098 0.7227 0.0
C1373 C 0.15588 0.6204 0.71068 0.0
H1374 H 0.81347 0.62989 0.23073 0.0
H1375 H 0.82266 0.62942 0.29363 0.0
H1376 H 0.8544 0.64642 0.28913 0.0
H1377 H 0.86913 0.62734 0.21666 0.0
H1378 H 0.8645 0.64323 0.19602 0.0
H1379 H 0.84613 0.62574 0.20362 0.0
H1380 H 0.82071 0.65388 0.20663 0.0
H1381 H 0.83887 0.67134 0.19922 0.0
H1382 H 0.82615 0.67461 0.2222 0.0
H1383 H 0.87804 0.67184 0.27908 0.0
H1384 H 0.89282 0.70133 0.26411 0.0
H1385 H 0.87057 0.68377 0.20724 0.0
C1386 C 0.82265 0.63264 0.24344 0.0
C1387 C 0.81575 0.6285 0.26249 0.0
C1388 C 0.82786 0.63236 0.2789 0.0
C1389 C 0.84592 0.64196 0.27644 0.0
C1390 C 0.85183 0.64698 0.25746 0.0
C1391 C 0.84078 0.64193 0.24115 0.0
C1392 C 0.84866 0.65147 0.22271 0.0
C1393 C 0.85765 0.63602 0.20894 0.0
C1394 C 0.83265 0.66354 0.21211 0.0
C1395 C 0.86443 0.66444 0.23147 0.0
C1396 C 0.86644 0.66123 0.25147 0.0
C1397 C 0.87728 0.67393 0.26335 0.0
C1398 C 0.88556 0.69069 0.25477 0.0
C1399 C 0.88308 0.69445 0.23451 0.0
C1400 C 0.87326 0.6807 0.22261 0.0
H1401 H 0.86016 0.31176 0.73901 0.0
H1402 H 0.86134 0.32146 0.80177 0.0
H1403 H 0.84611 0.35406 0.797 0.0
H1404 H 0.86575 0.36715 0.72431 0.0
H1405 H 0.84954 0.36315 0.70375 0.0
H1406 H 0.86608 0.34397 0.71153 0.0
H1407 H 0.83662 0.32015 0.71481 0.0
H1408 H 0.82007 0.33913 0.7073 0.0
H1409 H 0.81627 0.32681 0.73041 0.0
H1410 H 0.8217 0.37886 0.7867 0.0
H1411 H 0.79307 0.39516 0.77148 0.0
H1412 H 0.80959 0.37166 0.71485 0.0
C1413 C 0.8581 0.32126 0.75159 0.0
C1414 C 0.8619 0.31431 0.7707 0.0
C1415 C 0.85877 0.32675 0.78699 0.0
C1416 C 0.85012 0.34528 0.78438 0.0
C1417 C 0.84532 0.35127 0.76535 0.0
C1418 C 0.84979 0.33985 0.74914 0.0
C1419 C 0.84058 0.34805 0.73063 0.0
C1420 C 0.85643 0.35606 0.71674 0.0
C1421 C 0.82761 0.33263 0.72022 0.0
C1422 C 0.82848 0.36457 0.73923 0.0
C1423 C 0.83178 0.36654 0.75922 0.0
C1424 C 0.81962 0.37813 0.77096 0.0
C1425 C 0.80336 0.38729 0.76224 0.0
C1426 C 0.79956 0.38498 0.74196 0.0
C1427 C 0.81277 0.37427 0.73022 0.0
H1428 H 0.28514 0.17762 0.36398 0.0
H1429 H 0.22878 0.19087 0.38998 0.0
H1430 H 0.21464 0.16111 0.37489 0.0
H1431 H 0.26836 0.1695 0.32061 0.0
H1432 H 0.28437 0.14981 0.31305 0.0
H1433 H 0.29225 0.16656 0.33172 0.0
H1434 H 0.29817 0.13772 0.35576 0.0
H1435 H 0.29053 0.12069 0.33695 0.0
H1436 H 0.27868 0.12048 0.3606 0.0
H1437 H 0.20459 0.13625 0.35076 0.0
H1438 H 0.19917 0.11992 0.31888 0.0
H1439 H 0.26148 0.12402 0.30639 0.0
C1440 C 0.27018 0.17343 0.36742 0.0
C1441 C 0.2581 0.18602 0.37845 0.0
C1442 C 0.23828 0.181 0.38188 0.0
C1443 C 0.23018 0.1641 0.37341 0.0
C1444 C 0.2421 0.15254 0.36142 0.0
C1445 C 0.26179 0.15691 0.35854 0.0
C1446 C 0.27023 0.14513 0.34167 0.0
C1447 C 0.2793 0.15856 0.32585 0.0
C1448 C 0.28529 0.13011 0.3492 0.0
C1449 C 0.25185 0.13501 0.33436 0.0
C1450 C 0.23599 0.13868 0.34648 0.0
C1451 C 0.21699 0.13281 0.34144 0.0
C1452 C 0.21403 0.1236 0.32327 0.0
C1453 C 0.22992 0.12084 0.31018 0.0
C1454 C 0.2491 0.12591 0.31619 0.0
H1455 H 0.30632 0.72901 0.86049 0.0
H1456 H 0.32073 0.78888 0.87657 0.0
H1457 H 0.35465 0.78385 0.86466 0.0
H1458 H 0.35733 0.7075 0.87093 0.0
H1459 H 0.35498 0.69109 0.85028 0.0
H1460 H 0.33354 0.69794 0.86424 0.0
H1461 H 0.31655 0.71011 0.83238 0.0
H1462 H 0.33775 0.70319 0.81844 0.0
H1463 H 0.32881 0.72807 0.81729 0.0
H1464 H 0.38305 0.77532 0.84336 0.0
H1465 H 0.40356 0.76357 0.81584 0.0
H1466 H 0.37254 0.70816 0.81626 0.0
C1467 C 0.31682 0.74085 0.86207 0.0
C1468 C 0.31095 0.75934 0.86935 0.0
C1469 C 0.32499 0.77455 0.87114 0.0
C1470 C 0.34431 0.77179 0.86448 0.0
C1471 C 0.34945 0.75356 0.85663 0.0
C1472 C 0.33618 0.73821 0.85581 0.0
C1473 C 0.34445 0.7209 0.84461 0.0
C1474 C 0.34778 0.70332 0.85834 0.0
C1475 C 0.33111 0.71527 0.82716 0.0
C1476 C 0.3638 0.72947 0.83784 0.0
C1477 C 0.36662 0.74821 0.84522 0.0
C1478 C 0.3815 0.76039 0.83814 0.0
C1479 C 0.39312 0.75362 0.82254 0.0
C1480 C 0.38995 0.73477 0.81444 0.0
C1481 C 0.37583 0.72224 0.82288 0.0
H1482 H 0.72506 0.80999 0.37488 0.0
H1483 H 0.78179 0.78345 0.38566 0.0
H1484 H 0.79819 0.81291 0.37238 0.0
H1485 H 0.7348 0.82351 0.3303 0.0
H1486 H 0.72139 0.84633 0.32978 0.0
H1487 H 0.71436 0.8275 0.34667 0.0
H1488 H 0.71832 0.85178 0.37571 0.0
H1489 H 0.72535 0.87085 0.35875 0.0
H1490 H 0.7412 0.8647 0.37905 0.0
H1491 H 0.80808 0.84059 0.35121 0.0
H1492 H 0.81024 0.86132 0.32153 0.0
H1493 H 0.7471 0.86866 0.32203 0.0
C1494 C 0.74093 0.81095 0.37541 0.0
C1495 C 0.75223 0.79476 0.38159 0.0
C1496 C 0.77295 0.79591 0.38122 0.0
C1497 C 0.78236 0.81265 0.37384 0.0
C1498 C 0.77082 0.82802 0.36673 0.0
C1499 C 0.75048 0.82731 0.3675 0.0
C1500 C 0.74134 0.84325 0.35499 0.0
C1501 C 0.72718 0.83462 0.33953 0.0
C1502 C 0.73094 0.85856 0.3679 0.0
C1503 C 0.75959 0.85182 0.34567 0.0
C1504 C 0.7765 0.84359 0.35338 0.0
C1505 C 0.795 0.84752 0.34542 0.0
C1506 C 0.79613 0.85934 0.32859 0.0
C1507 C 0.77881 0.86653 0.31969 0.0
C1508 C 0.76051 0.86347 0.32884 0.0
H1509 H 0.70575 0.24795 0.8612 0.0
H1510 H 0.67123 0.19703 0.87754 0.0
H1511 H 0.64115 0.21399 0.86632 0.0
H1512 H 0.66558 0.28678 0.87015 0.0
H1513 H 0.67387 0.30032 0.84899 0.0
H1514 H 0.6913 0.28701 0.86386 0.0
H1515 H 0.70334 0.26827 0.83298 0.0
H1516 H 0.68612 0.28149 0.81817 0.0
H1517 H 0.68575 0.25502 0.81823 0.0
H1518 H 0.61723 0.23213 0.84583 0.0
H1519 H 0.60237 0.24888 0.81729 0.0
H1520 H 0.6521 0.28813 0.81417 0.0
C1521 C 0.69177 0.24058 0.86303 0.0
C1522 C 0.69081 0.22113 0.8701 0.0
C1523 C 0.67229 0.21197 0.87222 0.0
C1524 C 0.65512 0.22157 0.866 0.0
C1525 C 0.65673 0.24042 0.85808 0.0
C1526 C 0.67464 0.24993 0.85685 0.0
C1527 C 0.67324 0.26849 0.84475 0.0
C1528 C 0.67616 0.28673 0.85772 0.0
C1529 C 0.68796 0.26826 0.82752 0.0
C1530 C 0.65223 0.26701 0.83774 0.0
C1531 C 0.64267 0.25115 0.84622 0.0
C1532 C 0.62424 0.24499 0.83969 0.0
C1533 C 0.61586 0.25459 0.82352 0.0
C1534 C 0.62596 0.27005 0.81415 0.0
C1535 C 0.64386 0.27688 0.82181 0.0
H1536 H 0.24593 0.81145 0.62142 0.0
H1537 H 0.30745 0.82702 0.61786 0.0
H1538 H 0.29995 0.85973 0.63148 0.0
H1539 H 0.22576 0.86541 0.61453 0.0
H1540 H 0.20626 0.85997 0.63156 0.0
H1541 H 0.21513 0.84118 0.61513 0.0
H1542 H 0.22169 0.81842 0.64486 0.0
H1543 H 0.21299 0.83697 0.66122 0.0
H1544 H 0.2373 0.82695 0.66452 0.0
H1545 H 0.28852 0.88373 0.65563 0.0
H1546 H 0.27373 0.89767 0.68561 0.0
H1547 H 0.21863 0.86935 0.67181 0.0
C1548 C 0.2576 0.82218 0.62266 0.0
C1549 C 0.27721 0.81684 0.61875 0.0
C1550 C 0.29229 0.83096 0.62063 0.0
C1551 C 0.28812 0.84961 0.62831 0.0
C1552 C 0.26874 0.85401 0.63343 0.0
C1553 C 0.25357 0.84087 0.63008 0.0
C1554 C 0.23473 0.84756 0.6398 0.0
C1555 C 0.21958 0.85391 0.62433 0.0
C1556 C 0.22623 0.83154 0.65341 0.0
C1557 C 0.24225 0.86508 0.65123 0.0
C1558 C 0.26176 0.86899 0.64685 0.0
C1559 C 0.27305 0.88154 0.65852 0.0
C1560 C 0.26458 0.88939 0.67555 0.0
C1561 C 0.24496 0.88492 0.68051 0.0
C1562 C 0.23338 0.87362 0.66766 0.0
H1563 H 0.67203 0.74174 0.11653 0.0
H1564 H 0.6567 0.80323 0.11973 0.0
H1565 H 0.62486 0.79456 0.13445 0.0
H1566 H 0.61613 0.72203 0.11422 0.0
H1567 H 0.62364 0.70137 0.12894 0.0
H1568 H 0.63997 0.71114 0.11052 0.0
H1569 H 0.66697 0.71513 0.13694 0.0
H1570 H 0.65087 0.70577 0.15531 0.0
H1571 H 0.66193 0.72962 0.15857 0.0
H1572 H 0.60407 0.78178 0.16013 0.0
H1573 H 0.59514 0.76595 0.19135 0.0
H1574 H 0.62151 0.7117 0.1718 0.0
C1575 C 0.66136 0.75318 0.11931 0.0
C1576 C 0.66668 0.77306 0.11722 0.0
C1577 C 0.65275 0.78789 0.12109 0.0
C1578 C 0.63459 0.78303 0.12945 0.0
C1579 C 0.63051 0.76329 0.13336 0.0
C1580 C 0.64325 0.74846 0.12771 0.0
C1581 C 0.63775 0.72905 0.13711 0.0
C1582 C 0.62884 0.71508 0.12178 0.0
C1583 C 0.65542 0.71939 0.14762 0.0
C1584 C 0.62221 0.73594 0.15141 0.0
C1585 C 0.61751 0.75553 0.14832 0.0
C1586 C 0.60687 0.76628 0.16215 0.0
C1587 C 0.60194 0.75724 0.17991 0.0
C1588 C 0.60745 0.73761 0.18357 0.0
C1589 C 0.61661 0.72652 0.16879 0.0
H1590 H 0.78663 0.11803 0.67022 0.0
H1591 H 0.73362 0.08402 0.67779 0.0
H1592 H 0.71882 0.10026 0.64904 0.0
H1593 H 0.76555 0.15919 0.66639 0.0
H1594 H 0.78085 0.17098 0.6483 0.0
H1595 H 0.79062 0.15139 0.66275 0.0
H1596 H 0.79965 0.13209 0.63128 0.0
H1597 H 0.79004 0.1519 0.61655 0.0
H1598 H 0.7811 0.12725 0.613 0.0
H1599 H 0.70617 0.12627 0.62769 0.0
H1600 H 0.69687 0.15969 0.61713 0.0
H1601 H 0.75722 0.1785 0.62411 0.0
C1602 C 0.77246 0.11316 0.66487 0.0
C1603 C 0.76136 0.0996 0.67576 0.0
C1604 C 0.74241 0.09416 0.66926 0.0
C1605 C 0.73394 0.10329 0.65291 0.0
C1606 C 0.74458 0.1179 0.6433 0.0
C1607 C 0.76363 0.12264 0.64889 0.0
C1608 C 0.77016 0.14175 0.63961 0.0
C1609 C 0.77716 0.15668 0.6552 0.0
C1610 C 0.78619 0.13802 0.62419 0.0
C1611 C 0.75117 0.14809 0.62994 0.0
C1612 C 0.73689 0.13372 0.6313 0.0
C1613 C 0.71739 0.13739 0.62595 0.0
C1614 C 0.71218 0.15642 0.61999 0.0
C1615 C 0.72637 0.17154 0.61992 0.0
C1616 C 0.74619 0.16704 0.62395 0.0
H1617 H 0.32323 0.1949 0.14309 0.0
H1618 H 0.32505 0.24075 0.09951 0.0
H1619 H 0.35636 0.25272 0.11319 0.0
H1620 H 0.33054 0.22056 0.17926 0.0
H1621 H 0.34624 0.20535 0.19423 0.0
H1622 H 0.33087 0.19423 0.17615 0.0
H1623 H 0.36095 0.17783 0.15981 0.0
H1624 H 0.37662 0.18867 0.17825 0.0
H1625 H 0.38173 0.19255 0.15258 0.0
H1626 H 0.37811 0.26693 0.13767 0.0
H1627 H 0.388 0.2812 0.16939 0.0
H1628 H 0.37249 0.22687 0.19854 0.0
C1629 C 0.33119 0.20649 0.13568 0.0
C1630 C 0.32229 0.21668 0.12012 0.0
C1631 C 0.33213 0.23249 0.11113 0.0
C1632 C 0.34992 0.23936 0.11886 0.0
C1633 C 0.35756 0.2302 0.13555 0.0
C1634 C 0.34875 0.21366 0.14358 0.0
C1635 C 0.35669 0.2094 0.16392 0.0
C1636 C 0.3401 0.20732 0.17925 0.0
C1637 C 0.36978 0.19103 0.16361 0.0
C1638 C 0.36888 0.22767 0.16723 0.0
C1639 C 0.37017 0.23892 0.15036 0.0
C1640 C 0.37781 0.25795 0.15077 0.0
C1641 C 0.38329 0.26602 0.1689 0.0
C1642 C 0.38074 0.25518 0.18641 0.0
C1643 C 0.37456 0.23545 0.18533 0.0
H1644 H 0.80724 0.6084 0.76651 0.0
H1645 H 0.83592 0.61524 0.71039 0.0
H1646 H 0.86712 0.6226 0.72724 0.0
H1647 H 0.82026 0.64617 0.78633 0.0
H1648 H 0.82518 0.63829 0.81117 0.0
H1649 H 0.80926 0.62411 0.79607 0.0
H1650 H 0.83103 0.59355 0.80184 0.0
H1651 H 0.84729 0.60798 0.81701 0.0
H1652 H 0.85692 0.59446 0.79641 0.0
H1653 H 0.88942 0.64138 0.74773 0.0
H1654 H 0.89688 0.67094 0.76694 0.0
H1655 H 0.85511 0.65326 0.81099 0.0
C1656 C 0.82044 0.61049 0.75791 0.0
C1657 C 0.81928 0.6115 0.7373 0.0
C1658 C 0.83658 0.61429 0.72625 0.0
C1659 C 0.85442 0.61837 0.73578 0.0
C1660 C 0.85475 0.61921 0.75632 0.0
C1661 C 0.8382 0.61477 0.76731 0.0
C1662 C 0.84061 0.62113 0.78849 0.0
C1663 C 0.82281 0.63317 0.79587 0.0
C1664 C 0.84419 0.60321 0.80171 0.0
C1665 C 0.85916 0.63331 0.78676 0.0
C1666 C 0.86805 0.63062 0.7686 0.0
C1667 C 0.88301 0.64311 0.76216 0.0
C1668 C 0.88736 0.65988 0.77328 0.0
C1669 C 0.87639 0.66415 0.79032 0.0
C1670 C 0.8638 0.64979 0.79815 0.0
H1671 H 0.85445 0.3263 0.19167 0.0
H1672 H 0.8979 0.32461 0.23777 0.0
H1673 H 0.8846 0.35521 0.2517 0.0
H1674 H 0.84576 0.38478 0.19294 0.0
H1675 H 0.82001 0.38028 0.18872 0.0
H1676 H 0.83823 0.36502 0.17701 0.0
H1677 H 0.82134 0.33434 0.1916 0.0
H1678 H 0.80352 0.34928 0.20369 0.0
H1679 H 0.8183 0.33248 0.21786 0.0
H1680 H 0.86037 0.37664 0.26714 0.0
H1681 H 0.82884 0.38738 0.28143 0.0
H1682 H 0.79973 0.37506 0.22619 0.0
C1683 C 0.86199 0.33341 0.20374 0.0
C1684 C 0.87738 0.32366 0.21342 0.0
C1685 C 0.88644 0.33237 0.22989 0.0
C1686 C 0.87889 0.34973 0.23791 0.0
C1687 C 0.8623 0.3581 0.22924 0.0
C1688 C 0.85424 0.35051 0.21209 0.0
C1689 C 0.83402 0.359 0.20827 0.0
C1690 C 0.83455 0.37312 0.19069 0.0
C1691 C 0.81841 0.34281 0.20522 0.0
C1692 C 0.83087 0.37014 0.22722 0.0
C1693 C 0.84767 0.37039 0.23867 0.0
C1694 C 0.84734 0.37717 0.25804 0.0
C1695 C 0.82934 0.38312 0.26611 0.0
C1696 C 0.81188 0.38181 0.25493 0.0
C1697 C 0.81291 0.37616 0.23503 0.0
H1698 H 0.11669 0.33455 0.78703 0.0
H1699 H 0.09263 0.32255 0.72967 0.0
H1700 H 0.10619 0.35359 0.71729 0.0
H1701 H 0.12166 0.39368 0.78021 0.0
H1702 H 0.14473 0.39226 0.79313 0.0
H1703 H 0.12439 0.377 0.80056 0.0
H1704 H 0.14654 0.34639 0.7972 0.0
H1705 H 0.16662 0.36128 0.78955 0.0
H1706 H 0.1584 0.34143 0.77402 0.0
H1707 H 0.1319 0.37591 0.7078 0.0
H1708 H 0.16646 0.38494 0.70223 0.0
H1709 H 0.17762 0.38139 0.76462 0.0
C1710 C 0.11311 0.33942 0.77232 0.0
C1711 C 0.10346 0.32659 0.75934 0.0
C1712 C 0.09969 0.33253 0.73987 0.0
C1713 C 0.10738 0.35019 0.73277 0.0
C1714 C 0.11909 0.36154 0.74524 0.0
C1715 C 0.12164 0.35657 0.76487 0.0
C1716 C 0.13906 0.36733 0.77368 0.0
C1717 C 0.13204 0.38353 0.78772 0.0
C1718 C 0.15349 0.35325 0.78415 0.0
C1719 C 0.14781 0.37619 0.75528 0.0
C1720 C 0.13531 0.37408 0.73936 0.0
C1721 C 0.14152 0.37823 0.72025 0.0
C1722 C 0.16123 0.38331 0.71716 0.0
C1723 C 0.17453 0.38366 0.73306 0.0
C1724 C 0.16749 0.38129 0.75235 0.0
H1725 H 0.17501 0.62421 0.28316 0.0
H1726 H 0.18891 0.5988 0.22667 0.0
H1727 H 0.15837 0.61251 0.21282 0.0
H1728 H 0.11754 0.62519 0.27685 0.0
H1729 H 0.11686 0.6488 0.2888 0.0
H1730 H 0.13461 0.63063 0.29636 0.0
H1731 H 0.1626 0.65572 0.29056 0.0
H1732 H 0.14511 0.67376 0.28291 0.0
H1733 H 0.16501 0.66709 0.26677 0.0
H1734 H 0.13278 0.6357 0.2029 0.0
H1735 H 0.11661 0.66759 0.19736 0.0
H1736 H 0.12001 0.68007 0.25965 0.0
C1737 C 0.17089 0.62062 0.26822 0.0
C1738 C 0.18391 0.61023 0.25602 0.0
C1739 C 0.17882 0.60652 0.23625 0.0
C1740 C 0.16145 0.61416 0.22833 0.0
C1741 C 0.14943 0.62559 0.24034 0.0
C1742 C 0.15386 0.6287 0.25999 0.0
C1743 C 0.14147 0.64508 0.26851 0.0
C1744 C 0.12674 0.63693 0.28351 0.0
C1745 C 0.15432 0.66136 0.27768 0.0
C1746 C 0.13102 0.65205 0.25017 0.0
C1747 C 0.13496 0.63998 0.23431 0.0
C1748 C 0.12912 0.64495 0.2153 0.0
C1749 C 0.11994 0.66312 0.21225 0.0
C1750 C 0.1172 0.67626 0.2281 0.0
C1751 C 0.12187 0.67018 0.24734 0.0
H1752 H 0.76719 0.89033 0.67693 0.0
H1753 H 0.71111 0.9067 0.70196 0.0
H1754 H 0.69429 0.89453 0.67237 0.0
H1755 H 0.75119 0.89385 0.62108 0.0
H1756 H 0.76584 0.87238 0.61607 0.0
H1757 H 0.77396 0.89006 0.63407 0.0
H1758 H 0.77665 0.86232 0.65989 0.0
H1759 H 0.7685 0.84477 0.64221 0.0
H1760 H 0.75538 0.84739 0.66506 0.0
H1761 H 0.68313 0.8716 0.64695 0.0
H1762 H 0.67921 0.83961 0.63033 0.0
H1763 H 0.74205 0.83613 0.6222 0.0
C1764 C 0.75148 0.8924 0.67564 0.0
C1765 C 0.74047 0.89945 0.69169 0.0
C1766 C 0.71986 0.9014 0.68979 0.0
C1767 C 0.71018 0.89461 0.67292 0.0
C1768 C 0.7213 0.88597 0.65803 0.0
C1769 C 0.74163 0.88514 0.65911 0.0
C1770 C 0.74992 0.87118 0.64392 0.0
C1771 C 0.76087 0.88255 0.62783 0.0
C1772 C 0.76335 0.8555 0.65336 0.0
C1773 C 0.7311 0.8624 0.63596 0.0
C1774 C 0.71472 0.87193 0.64336 0.0
C1775 C 0.69579 0.86447 0.64052 0.0
C1776 C 0.69363 0.8463 0.63101 0.0
C1777 C 0.71038 0.8357 0.62494 0.0
C1778 C 0.7291 0.84435 0.62641 0.0
H1779 H 0.63003 0.28875 0.16972 0.0
H1780 H 0.60293 0.23567 0.19131 0.0
H1781 H 0.61269 0.21816 0.16119 0.0
H1782 H 0.62522 0.27652 0.11297 0.0
H1783 H 0.64925 0.28691 0.10907 0.0
H1784 H 0.63306 0.29739 0.12723 0.0
H1785 H 0.66016 0.29322 0.15362 0.0
H1786 H 0.67624 0.28276 0.13574 0.0
H1787 H 0.67059 0.26922 0.15777 0.0
H1788 H 0.63319 0.2042 0.13534 0.0
H1789 H 0.66391 0.19497 0.11849 0.0
H1790 H 0.67976 0.2563 0.11392 0.0
C1791 C 0.62517 0.2738 0.16735 0.0
C1792 C 0.61544 0.26357 0.18238 0.0
C1793 C 0.61008 0.24374 0.17963 0.0
C1794 C 0.61548 0.23374 0.1625 0.0
C1795 C 0.62638 0.24377 0.14837 0.0
C1796 C 0.63102 0.26351 0.15053 0.0
C1797 C 0.64669 0.26967 0.13603 0.0
C1798 C 0.63803 0.28343 0.12039 0.0
C1799 C 0.66445 0.27923 0.14643 0.0
C1800 C 0.65182 0.24993 0.12718 0.0
C1801 C 0.63919 0.23536 0.13358 0.0
C1802 C 0.6428 0.21553 0.12971 0.0
C1803 C 0.66028 0.21037 0.12012 0.0
C1804 C 0.67404 0.225 0.11501 0.0
C1805 C 0.66922 0.24496 0.11756 0.0
H1806 H 0.23844 0.18316 0.61968 0.0
H1807 H 0.3004 0.16905 0.61782 0.0
H1808 H 0.29317 0.13584 0.63025 0.0
H1809 H 0.22903 0.16729 0.66207 0.0
H1810 H 0.20503 0.15675 0.65813 0.0
H1811 H 0.21372 0.17549 0.64204 0.0
H1812 H 0.20837 0.15257 0.61217 0.0
H1813 H 0.19959 0.13356 0.62837 0.0
H1814 H 0.21959 0.1286 0.61177 0.0
H1815 H 0.28169 0.11109 0.65326 0.0
H1816 H 0.2672 0.09754 0.68346 0.0
H1817 H 0.21182 0.12526 0.6697 0.0
C1818 C 0.25032 0.17269 0.62107 0.0
C1819 C 0.26993 0.17858 0.61801 0.0
C1820 C 0.28524 0.16473 0.61999 0.0
C1821 C 0.28121 0.14579 0.62697 0.0
C1822 C 0.26178 0.14084 0.63136 0.0
C1823 C 0.24646 0.15377 0.62795 0.0
C1824 C 0.22756 0.14665 0.63726 0.0
C1825 C 0.21835 0.16247 0.65068 0.0
C1826 C 0.21292 0.13994 0.62144 0.0
C1827 C 0.23523 0.12928 0.6488 0.0
C1828 C 0.25481 0.12558 0.64448 0.0
C1829 C 0.2662 0.11318 0.65616 0.0
C1830 C 0.25788 0.10552 0.67331 0.0
C1831 C 0.23833 0.11013 0.67847 0.0
C1832 C 0.22653 0.12096 0.66545 0.0
H1833 H 0.33209 0.80228 0.13838 0.0
H1834 H 0.31879 0.75609 0.09715 0.0
H1835 H 0.34759 0.73741 0.10849 0.0
H1836 H 0.39049 0.79056 0.14164 0.0
H1837 H 0.38937 0.79666 0.16737 0.0
H1838 H 0.37492 0.81032 0.14986 0.0
H1839 H 0.34377 0.80273 0.17016 0.0
H1840 H 0.3578 0.78881 0.18732 0.0
H1841 H 0.33726 0.77749 0.17497 0.0
H1842 H 0.36741 0.71896 0.132 0.0
H1843 H 0.3771 0.704 0.16361 0.0
H1844 H 0.37814 0.76156 0.19046 0.0
C1845 C 0.33636 0.78897 0.1308 0.0
C1846 C 0.32376 0.7807 0.11675 0.0
C1847 C 0.32876 0.76281 0.1076 0.0
C1848 C 0.3451 0.75209 0.11402 0.0
C1849 C 0.3563 0.75963 0.12946 0.0
C1850 C 0.35255 0.7781 0.13731 0.0
C1851 C 0.36348 0.78105 0.15645 0.0
C1852 C 0.38059 0.7955 0.15366 0.0
C1853 C 0.34974 0.78787 0.17317 0.0
C1854 C 0.3711 0.76047 0.15973 0.0
C1855 C 0.36788 0.74859 0.14355 0.0
C1856 C 0.3707 0.72826 0.14447 0.0
C1857 C 0.37608 0.71982 0.16249 0.0
C1858 C 0.3781 0.73171 0.17936 0.0
C1859 C 0.37662 0.75226 0.17765 0.0
H1860 H 0.70757 0.17336 0.35515 0.0
H1861 H 0.76088 0.1784 0.3892 0.0
H1862 H 0.77273 0.14697 0.37558 0.0
H1863 H 0.70684 0.11542 0.35136 0.0
H1864 H 0.69837 0.11744 0.32636 0.0
H1865 H 0.69044 0.13504 0.34451 0.0
H1866 H 0.70298 0.16327 0.3224 0.0
H1867 H 0.71104 0.14594 0.30442 0.0
H1868 H 0.7283 0.1633 0.31456 0.0
H1869 H 0.78288 0.12186 0.35199 0.0
H1870 H 0.79106 0.10708 0.32004 0.0
H1871 H 0.73183 0.11857 0.29962 0.0
C1872 C 0.72111 0.16703 0.36059 0.0
C1873 C 0.73312 0.17772 0.37354 0.0
C1874 C 0.75133 0.16995 0.37967 0.0
C1875 C 0.7581 0.15209 0.37203 0.0
C1876 C 0.74651 0.14235 0.35819 0.0
C1877 C 0.72821 0.14944 0.35267 0.0
C1878 C 0.7207 0.13908 0.33447 0.0
C1879 C 0.70304 0.12596 0.33949 0.0
C1880 C 0.71549 0.15377 0.31801 0.0
C1881 C 0.73849 0.1268 0.32935 0.0
C1882 C 0.75282 0.12806 0.34372 0.0
C1883 C 0.77158 0.12027 0.34091 0.0
C1884 C 0.77613 0.11191 0.32266 0.0
C1885 C 0.7621 0.11185 0.30732 0.0
C1886 C 0.7428 0.11839 0.31114 0.0
H1887 H 0.32578 0.20393 0.86312 0.0
H1888 H 0.32387 0.25806 0.89598 0.0
H1889 H 0.35778 0.26557 0.88603 0.0
H1890 H 0.38495 0.19785 0.86442 0.0
H1891 H 0.38382 0.18886 0.83955 0.0
H1892 H 0.36474 0.18252 0.85679 0.0
H1893 H 0.33866 0.19604 0.83271 0.0
H1894 H 0.35744 0.20244 0.81565 0.0
H1895 H 0.34064 0.22106 0.8242 0.0
H1896 H 0.3841 0.27345 0.86387 0.0
H1897 H 0.39822 0.2814 0.83171 0.0
H1898 H 0.38423 0.22287 0.81111 0.0
C1899 C 0.33321 0.2166 0.86919 0.0
C1900 C 0.32269 0.23025 0.88051 0.0
C1901 C 0.33206 0.2473 0.88758 0.0
C1902 C 0.35136 0.25159 0.88205 0.0
C1903 C 0.36098 0.23875 0.86928 0.0
C1904 C 0.35234 0.22129 0.86321 0.0
C1905 C 0.36317 0.21265 0.8458 0.0
C1906 C 0.37487 0.19439 0.85202 0.0
C1907 C 0.34914 0.20783 0.8286 0.0
C1908 C 0.3769 0.22948 0.84106 0.0
C1909 C 0.37643 0.24376 0.85553 0.0
C1910 C 0.38509 0.26214 0.85275 0.0
C1911 C 0.39305 0.2666 0.83433 0.0
C1912 C 0.39195 0.25282 0.81884 0.0
C1913 C 0.38518 0.23364 0.82276 0.0
H1914 H 0.29116 0.83057 0.35898 0.0
H1915 H 0.23882 0.81607 0.39158 0.0
H1916 H 0.22283 0.84629 0.37981 0.0
H1917 H 0.28222 0.88886 0.35749 0.0
H1918 H 0.29146 0.88897 0.33271 0.0
H1919 H 0.30207 0.87271 0.35073 0.0
H1920 H 0.29549 0.84329 0.32763 0.0
H1921 H 0.28465 0.85918 0.30983 0.0
H1922 H 0.27077 0.83868 0.3192 0.0
H1923 H 0.20893 0.86966 0.35665 0.0
H1924 H 0.19855 0.88271 0.32454 0.0
H1925 H 0.25893 0.88142 0.30463 0.0
C1926 C 0.2769 0.8347 0.36467 0.0
C1927 C 0.26632 0.82154 0.37648 0.0
C1928 C 0.24725 0.82642 0.38293 0.0
C1929 C 0.23809 0.84359 0.37629 0.0
C1930 C 0.24819 0.85556 0.36309 0.0
C1931 C 0.26742 0.85153 0.3576 0.0
C1932 C 0.27331 0.86344 0.33977 0.0
C1933 C 0.28814 0.87945 0.34553 0.0
C1934 C 0.28148 0.85035 0.32315 0.0
C1935 C 0.25368 0.87242 0.33444 0.0
C1936 C 0.2397 0.86878 0.34871 0.0
C1937 C 0.21987 0.87315 0.34568 0.0
C1938 C 0.21406 0.88049 0.32735 0.0
C1939 C 0.22798 0.88286 0.31215 0.0
C1940 C 0.24807 0.87974 0.31612 0.0
H1941 H 0.64317 0.70047 0.81142 0.0
H1942 H 0.598 0.74408 0.82055 0.0
H1943 H 0.61575 0.75652 0.84967 0.0
H1944 H 0.65962 0.69497 0.86599 0.0
H1945 H 0.68485 0.69315 0.85816 0.0
H1946 H 0.6655 0.68322 0.84301 0.0
H1947 H 0.67805 0.70407 0.81385 0.0
H1948 H 0.69703 0.71445 0.82887 0.0
H1949 H 0.67983 0.73036 0.81655 0.0
H1950 H 0.64179 0.76945 0.8716 0.0
H1951 H 0.67336 0.78124 0.88498 0.0
H1952 H 0.70253 0.7301 0.86054 0.0
C1953 C 0.63646 0.71172 0.82045 0.0
C1954 C 0.61899 0.72093 0.81438 0.0
C1955 C 0.61107 0.73649 0.82554 0.0
C1956 C 0.62111 0.74366 0.84203 0.0
C1957 C 0.63907 0.73514 0.84699 0.0
C1958 C 0.64657 0.71926 0.83668 0.0
C1959 C 0.66772 0.71525 0.84233 0.0
C1960 C 0.66952 0.69547 0.85301 0.0
C1961 C 0.68143 0.71611 0.82434 0.0
C1962 C 0.67138 0.7322 0.85622 0.0
C1963 C 0.65456 0.74314 0.85922 0.0
C1964 C 0.65493 0.76069 0.86979 0.0
C1965 C 0.67297 0.76735 0.87723 0.0
C1966 C 0.69046 0.75664 0.87376 0.0
C1967 C 0.68944 0.7386 0.86354 0.0
H1968 H 0.10184 0.20003 0.23747 0.0
H1969 H 0.10964 0.207 0.17472 0.0
H1970 H 0.13424 0.18037 0.17487 0.0
H1971 H 0.14911 0.19505 0.2495 0.0
H1972 H 0.14639 0.17661 0.26828 0.0
H1973 H 0.12634 0.19289 0.26284 0.0
H1974 H 0.10334 0.16341 0.25585 0.0
H1975 H 0.12315 0.14689 0.26186 0.0
H1976 H 0.11079 0.14483 0.23852 0.0
H1977 H 0.16392 0.1598 0.18353 0.0
H1978 H 0.19093 0.14074 0.19884 0.0
H1979 H 0.16215 0.1454 0.25538 0.0
C1980 C 0.10814 0.19534 0.22365 0.0
C1981 C 0.10384 0.20542 0.2061 0.0
C1982 C 0.11253 0.19922 0.18828 0.0
C1983 C 0.12671 0.18427 0.18827 0.0
C1984 C 0.13169 0.17555 0.20611 0.0
C1985 C 0.12212 0.18035 0.22336 0.0
C1986 C 0.13099 0.16982 0.24079 0.0
C1987 C 0.13866 0.18447 0.25625 0.0
C1988 C 0.11619 0.15537 0.24978 0.0
C1989 C 0.14768 0.15913 0.23083 0.0
C1990 C 0.14795 0.16267 0.21084 0.0
C1991 C 0.16345 0.15634 0.19903 0.0
C1992 C 0.1788 0.14575 0.20784 0.0
C1993 C 0.17832 0.14146 0.22816 0.0
C1994 C 0.16253 0.14813 0.23971 0.0
H1995 H 0.36007 0.66741 0.73194 0.0
H1996 H 0.33077 0.71025 0.7688 0.0
H1997 H 0.29995 0.69113 0.76659 0.0
H1998 H 0.31916 0.66225 0.69956 0.0
H1999 H 0.32265 0.63647 0.69459 0.0
H2000 H 0.34341 0.65176 0.70062 0.0
H2001 H 0.3528 0.62932 0.72965 0.0
H2002 H 0.33254 0.61334 0.72371 0.0
H2003 H 0.33469 0.62353 0.74805 0.0
H2004 H 0.27305 0.66727 0.76131 0.0
H2005 H 0.24955 0.64264 0.74952 0.0
H2006 H 0.29473 0.61695 0.7125 0.0
C2007 C 0.34714 0.67257 0.73965 0.0
C2008 C 0.34762 0.69012 0.75066 0.0
C2009 C 0.3305 0.69681 0.76027 0.0
C2010 C 0.31304 0.68602 0.75919 0.0
C2011 C 0.31294 0.66883 0.74809 0.0
C2012 C 0.32938 0.66231 0.73816 0.0
C2013 C 0.32466 0.64443 0.72572 0.0
C2014 C 0.32765 0.64898 0.70381 0.0
C2015 C 0.3369 0.6266 0.73218 0.0
C2016 C 0.30308 0.64169 0.73056 0.0
C2017 C 0.29681 0.6558 0.74373 0.0
C2018 C 0.2777 0.65626 0.75083 0.0
C2019 C 0.26445 0.64216 0.744 0.0
C2020 C 0.27021 0.62798 0.72988 0.0
C2021 C 0.28988 0.62763 0.72323 0.0
H2022 H 0.83875 0.8464 0.25889 0.0
H2023 H 0.80857 0.85655 0.20381 0.0
H2024 H 0.83524 0.83925 0.186 0.0
H2025 H 0.88996 0.84838 0.24099 0.0
H2026 H 0.89751 0.82815 0.2563 0.0
H2027 H 0.87802 0.84421 0.26423 0.0
H2028 H 0.85467 0.81435 0.26824 0.0
H2029 H 0.87419 0.79828 0.26069 0.0
H2030 H 0.85105 0.79791 0.2478 0.0
H2031 H 0.86405 0.81911 0.17464 0.0
H2032 H 0.88882 0.79282 0.17122 0.0
H2033 H 0.89834 0.79355 0.23411 0.0
C2034 C 0.83807 0.84531 0.24303 0.0
C2035 C 0.82197 0.85297 0.23256 0.0
C2036 C 0.821 0.8508 0.21194 0.0
C2037 C 0.83613 0.84121 0.20175 0.0
C2038 C 0.85189 0.8337 0.2125 0.0
C2039 C 0.85273 0.83532 0.23274 0.0
C2040 C 0.86953 0.82348 0.24116 0.0
C2041 C 0.88465 0.83686 0.25126 0.0
C2042 C 0.8619 0.80756 0.25529 0.0
C2043 C 0.8778 0.81461 0.22256 0.0
C2044 C 0.86783 0.82115 0.20611 0.0
C2045 C 0.87213 0.81408 0.18738 0.0
C2046 C 0.88635 0.79928 0.18553 0.0
C2047 C 0.89558 0.79141 0.20241 0.0
C2048 C 0.89174 0.79966 0.22099 0.0
H2049 H 0.64719 0.33945 0.75824 0.0
H2050 H 0.6396 0.31183 0.70142 0.0
H2051 H 0.65717 0.3395 0.68563 0.0
H2052 H 0.645 0.39142 0.74243 0.0
H2053 H 0.66443 0.39859 0.75896 0.0
H2054 H 0.64834 0.37855 0.76532 0.0
H2055 H 0.6784 0.3555 0.76972 0.0
H2056 H 0.69447 0.37554 0.76375 0.0
H2057 H 0.69579 0.35301 0.74992 0.0
H2058 H 0.67733 0.36897 0.67646 0.0
H2059 H 0.70344 0.39409 0.67524 0.0
H2060 H 0.70014 0.40074 0.73843 0.0
C2061 C 0.64888 0.33952 0.74242 0.0
C2062 C 0.64189 0.32381 0.73092 0.0
C2063 C 0.64485 0.32389 0.71037 0.0
C2064 C 0.65459 0.33961 0.7013 0.0
C2065 C 0.66143 0.35493 0.71307 0.0
C2066 C 0.659 0.35481 0.73324 0.0
C2067 C 0.67022 0.37138 0.74289 0.0
C2068 C 0.65615 0.38584 0.75299 0.0
C2069 C 0.68563 0.36337 0.75741 0.0
C2070 C 0.67975 0.38057 0.72508 0.0
C2071 C 0.67399 0.3713 0.70795 0.0
C2072 C 0.68175 0.37651 0.68974 0.0
C2073 C 0.69645 0.39093 0.68916 0.0
C2074 C 0.70359 0.39943 0.70675 0.0
C2075 C 0.69463 0.39469 0.72478 0.0
H2076 H 0.14364 0.75678 0.76366 0.0
H2077 H 0.0923 0.79204 0.77716 0.0
H2078 H 0.11097 0.82214 0.76911 0.0
H2079 H 0.17846 0.79055 0.78511 0.0
H2080 H 0.19734 0.78607 0.76711 0.0
H2081 H 0.18013 0.76696 0.77329 0.0
H2082 H 0.16985 0.76335 0.737 0.0
H2083 H 0.18723 0.7821 0.73026 0.0
H2084 H 0.16173 0.78465 0.72354 0.0
H2085 H 0.13433 0.84779 0.75773 0.0
H2086 H 0.16217 0.86835 0.74731 0.0
H2087 H 0.19924 0.81663 0.74344 0.0
C2088 C 0.13633 0.77083 0.76491 0.0
C2089 C 0.11651 0.77219 0.7708 0.0
C2090 C 0.10749 0.7908 0.77261 0.0
C2091 C 0.11794 0.8079 0.76803 0.0
C2092 C 0.13743 0.80604 0.76205 0.0
C2093 C 0.14666 0.78804 0.76081 0.0
C2094 C 0.16793 0.79018 0.75467 0.0
C2095 C 0.18179 0.78302 0.77102 0.0
C2096 C 0.17191 0.77943 0.73521 0.0
C2097 C 0.16908 0.81221 0.75215 0.0
C2098 C 0.15126 0.82101 0.75637 0.0
C2099 C 0.14839 0.84112 0.75452 0.0
C2100 C 0.16424 0.85262 0.74842 0.0
C2101 C 0.18277 0.84401 0.74447 0.0
C2102 C 0.18521 0.82354 0.74636 0.0
H2103 H 0.66943 0.67972 0.22905 0.0
H2104 H 0.62288 0.6583 0.26669 0.0
H2105 H 0.64259 0.62866 0.27431 0.0
H2106 H 0.68294 0.63108 0.20918 0.0
H2107 H 0.70868 0.63719 0.20821 0.0
H2108 H 0.69045 0.65613 0.20516 0.0
H2109 H 0.706 0.67593 0.2338 0.0
H2110 H 0.72433 0.65718 0.23682 0.0
H2111 H 0.70922 0.66428 0.25735 0.0
H2112 H 0.66954 0.60381 0.28105 0.0
H2113 H 0.70073 0.58555 0.28522 0.0
H2114 H 0.72717 0.62088 0.23934 0.0
C2115 C 0.66339 0.66864 0.23872 0.0
C2116 C 0.64483 0.67112 0.24739 0.0
C2117 C 0.63716 0.65644 0.25991 0.0
C2118 C 0.64819 0.63961 0.26426 0.0
C2119 C 0.66653 0.6375 0.25545 0.0
C2120 C 0.67391 0.65149 0.24269 0.0
C2121 C 0.69412 0.64602 0.23546 0.0
C2122 C 0.69403 0.64239 0.21318 0.0
C2123 C 0.70931 0.66178 0.24121 0.0
C2124 C 0.6973 0.62715 0.24667 0.0
C2125 C 0.6813 0.62244 0.2582 0.0
C2126 C 0.68196 0.60702 0.27169 0.0
C2127 C 0.69969 0.59666 0.27391 0.0
C2128 C 0.71634 0.60176 0.26257 0.0
C2129 C 0.71468 0.61651 0.24814 0.0
H2130 H 0.85124 0.22316 0.75752 0.0
H2131 H 0.89942 0.19406 0.78741 0.0
H2132 H 0.88335 0.16192 0.78144 0.0
H2133 H 0.81417 0.19331 0.7798 0.0
H2134 H 0.79834 0.19388 0.75857 0.0
H2135 H 0.81463 0.21414 0.76351 0.0
H2136 H 0.82998 0.21041 0.72886 0.0
H2137 H 0.81372 0.1902 0.72376 0.0
H2138 H 0.83991 0.18701 0.72147 0.0
H2139 H 0.86191 0.13294 0.77119 0.0
H2140 H 0.83593 0.10993 0.76022 0.0
H2141 H 0.80005 0.15907 0.74155 0.0
C2142 C 0.85854 0.21011 0.7628 0.0
C2143 C 0.87665 0.21114 0.7729 0.0
C2144 C 0.88559 0.19359 0.77954 0.0
C2145 C 0.87655 0.17531 0.77627 0.0
C2146 C 0.85838 0.17495 0.76673 0.0
C2147 C 0.84939 0.19196 0.76037 0.0
C2148 C 0.82925 0.18793 0.75185 0.0
C2149 C 0.81315 0.19791 0.76417 0.0
C2150 C 0.82816 0.19426 0.7302 0.0
C2151 C 0.82844 0.16586 0.7539 0.0
C2152 C 0.84546 0.15859 0.76232 0.0
C2153 C 0.84846 0.13851 0.7648 0.0
C2154 C 0.8337 0.12558 0.75847 0.0
C2155 C 0.81603 0.13282 0.7502 0.0
C2156 C 0.81333 0.15321 0.74808 0.0
H2157 H 0.34465 0.33222 0.27171 0.0
H2158 H 0.33813 0.32771 0.20864 0.0
H2159 H 0.31426 0.35527 0.2092 0.0
H2160 H 0.29526 0.34034 0.28246 0.0
H2161 H 0.30033 0.35697 0.30242 0.0
H2162 H 0.31797 0.33858 0.29593 0.0
H2163 H 0.3441 0.36625 0.29214 0.0
H2164 H 0.32592 0.38461 0.29792 0.0
H2165 H 0.33954 0.38615 0.27529 0.0
H2166 H 0.28738 0.379 0.21759 0.0
H2167 H 0.26022 0.39764 0.2329 0.0
H2168 H 0.28595 0.38831 0.29027 0.0
C2169 C 0.3383 0.33713 0.25804 0.0
C2170 C 0.34291 0.32785 0.24016 0.0
C2171 C 0.33464 0.33479 0.22245 0.0
C2172 C 0.32119 0.35042 0.22266 0.0
C2173 C 0.31661 0.35908 0.24066 0.0
C2174 C 0.32508 0.35279 0.258 0.0
C2175 C 0.31668 0.36347 0.27554 0.0
C2176 C 0.30698 0.34897 0.28991 0.0
C2177 C 0.33251 0.37586 0.28582 0.0
C2178 C 0.30158 0.3763 0.26551 0.0
C2179 C 0.30184 0.37364 0.24535 0.0
C2180 C 0.28746 0.38176 0.23324 0.0
C2181 C 0.27215 0.39235 0.24201 0.0
C2182 C 0.27154 0.39494 0.26259 0.0
C2183 C 0.28672 0.38734 0.27441 0.0
H2184 H 0.26884 0.16454 0.16626 0.0
H2185 H 0.22248 0.15783 0.12323 0.0
H2186 H 0.21054 0.12812 0.14067 0.0
H2187 H 0.27807 0.111 0.17357 0.0
H2188 H 0.28285 0.11443 0.19939 0.0
H2189 H 0.28876 0.13364 0.18219 0.0
H2190 H 0.26742 0.15815 0.20204 0.0
H2191 H 0.26151 0.13914 0.2193 0.0
H2192 H 0.24208 0.15224 0.20696 0.0
H2193 H 0.20077 0.10284 0.16617 0.0
H2194 H 0.19456 0.08421 0.19671 0.0
H2195 H 0.24987 0.10511 0.22046 0.0
C2196 C 0.25645 0.15649 0.16034 0.0
C2197 C 0.24653 0.16318 0.14354 0.0
C2198 C 0.23028 0.15261 0.13609 0.0
C2199 C 0.22348 0.13577 0.14584 0.0
C2200 C 0.23352 0.12954 0.16259 0.0
C2201 C 0.24987 0.13945 0.16955 0.0
C2202 C 0.25735 0.13067 0.18846 0.0
C2203 C 0.27798 0.12191 0.18573 0.0
C2204 C 0.25705 0.14595 0.20516 0.0
C2205 C 0.2422 0.1148 0.19158 0.0
C2206 C 0.22856 0.11425 0.17653 0.0
C2207 C 0.21167 0.10268 0.17774 0.0
C2208 C 0.2083 0.09206 0.1951 0.0
C2209 C 0.2218 0.09315 0.21089 0.0
C2210 C 0.23941 0.10378 0.20854 0.0
H2211 H 0.33045 0.71773 0.65431 0.0
H2212 H 0.35479 0.77422 0.63827 0.0
H2213 H 0.38438 0.76709 0.65829 0.0
H2214 H 0.34433 0.71736 0.70269 0.0
H2215 H 0.35014 0.69158 0.70358 0.0
H2216 H 0.33252 0.70038 0.6861 0.0
H2217 H 0.35305 0.68442 0.65817 0.0
H2218 H 0.37072 0.67591 0.67595 0.0
H2219 H 0.37861 0.69076 0.65552 0.0
H2220 H 0.40777 0.75645 0.68456 0.0
H2221 H 0.42412 0.74236 0.71381 0.0
H2222 H 0.38603 0.69156 0.71069 0.0
C2223 C 0.3421 0.72847 0.65487 0.0
C2224 C 0.34034 0.7466 0.64506 0.0
C2225 C 0.35597 0.76024 0.64575 0.0
C2226 C 0.3728 0.75628 0.657 0.0
C2227 C 0.3739 0.73839 0.66692 0.0
C2228 C 0.35911 0.72455 0.66565 0.0
C2229 C 0.36321 0.70703 0.67867 0.0
C2230 C 0.34656 0.70395 0.69365 0.0
C2231 C 0.3666 0.68843 0.66633 0.0
C2232 C 0.38205 0.71369 0.68844 0.0
C2233 C 0.38811 0.73173 0.68128 0.0
C2234 C 0.40363 0.74204 0.68981 0.0
C2235 C 0.41285 0.73395 0.70634 0.0
C2236 C 0.40672 0.71564 0.7139 0.0
C2237 C 0.39153 0.70515 0.70453 0.0
H2238 H 0.74592 0.87931 0.23485 0.0
H2239 H 0.78981 0.9131 0.20349 0.0
H2240 H 0.77834 0.89849 0.17216 0.0
H2241 H 0.7557 0.83695 0.21085 0.0
H2242 H 0.73089 0.82768 0.21094 0.0
H2243 H 0.73874 0.84442 0.22975 0.0
H2244 H 0.71027 0.86816 0.22094 0.0
H2245 H 0.70212 0.85135 0.20217 0.0
H2246 H 0.70746 0.87652 0.19598 0.0
H2247 H 0.76468 0.8768 0.14494 0.0
H2248 H 0.75231 0.84877 0.12521 0.0
H2249 H 0.72069 0.82704 0.17589 0.0
C2250 C 0.75279 0.88414 0.22136 0.0
C2251 C 0.76869 0.8974 0.22157 0.0
C2252 C 0.77743 0.90312 0.20361 0.0
C2253 C 0.771 0.89488 0.18578 0.0
C2254 C 0.75593 0.88097 0.18627 0.0
C2255 C 0.74699 0.87567 0.20369 0.0
C2256 C 0.73351 0.85824 0.20107 0.0
C2257 C 0.74011 0.84081 0.2139 0.0
C2258 C 0.71207 0.86392 0.20529 0.0
C2259 C 0.73662 0.85411 0.17955 0.0
C2260 C 0.74912 0.86769 0.17105 0.0
C2261 C 0.75472 0.86625 0.15141 0.0
C2262 C 0.74763 0.85035 0.14033 0.0
C2263 C 0.73559 0.83591 0.14915 0.0
C2264 C 0.72983 0.83799 0.16887 0.0
H2265 H 0.60726 0.24575 0.7285 0.0
H2266 H 0.5851 0.29841 0.70053 0.0
H2267 H 0.60022 0.28787 0.66916 0.0
H2268 H 0.65214 0.25021 0.71065 0.0
H2269 H 0.65743 0.22443 0.70784 0.0
H2270 H 0.63981 0.2323 0.72574 0.0
H2271 H 0.61323 0.20994 0.71013 0.0
H2272 H 0.63091 0.20162 0.69227 0.0
H2273 H 0.60788 0.21197 0.68428 0.0
H2274 H 0.62276 0.27452 0.64286 0.0
H2275 H 0.65176 0.26131 0.62524 0.0
H2276 H 0.6619 0.22008 0.67249 0.0
C2277 C 0.60487 0.2547 0.71559 0.0
C2278 C 0.59493 0.27281 0.71685 0.0
C2279 C 0.59242 0.28432 0.69976 0.0
C2280 C 0.60099 0.27843 0.68191 0.0
C2281 C 0.6119 0.26104 0.68154 0.0
C2282 C 0.61376 0.24933 0.69801 0.0
C2283 C 0.62914 0.23356 0.69528 0.0
C2284 C 0.64559 0.23525 0.71078 0.0
C2285 C 0.61972 0.21306 0.6955 0.0
C2286 C 0.63645 0.23876 0.67505 0.0
C2287 C 0.62587 0.25415 0.667 0.0
C2288 C 0.63087 0.26225 0.64888 0.0
C2289 C 0.64731 0.2547 0.639 0.0
C2290 C 0.65879 0.23968 0.64761 0.0
C2291 C 0.65312 0.23143 0.66563 0.0
H2292 H 0.19352 0.87119 0.78112 0.0
H2293 H 0.2469 0.90556 0.78462 0.0
H2294 H 0.25681 0.88734 0.81444 0.0
H2295 H 0.18698 0.86129 0.83575 0.0
H2296 H 0.17925 0.83643 0.83095 0.0
H2297 H 0.17369 0.8556 0.81356 0.0
H2298 H 0.19014 0.8352 0.78665 0.0
H2299 H 0.19702 0.81624 0.80358 0.0
H2300 H 0.21559 0.82815 0.78896 0.0
H2301 H 0.26284 0.86316 0.84091 0.0
H2302 H 0.26641 0.83281 0.8603 0.0
H2303 H 0.21111 0.81131 0.83697 0.0
C2304 C 0.20684 0.87538 0.78876 0.0
C2305 C 0.21926 0.89006 0.78114 0.0
C2306 C 0.23708 0.89463 0.7907 0.0
C2307 C 0.24276 0.8844 0.80761 0.0
C2308 C 0.23058 0.86943 0.81443 0.0
C2309 C 0.21301 0.86483 0.80526 0.0
C2310 C 0.20438 0.84599 0.81338 0.0
C2311 C 0.18492 0.85008 0.82405 0.0
C2312 C 0.20167 0.83048 0.79716 0.0
C2313 C 0.22034 0.84019 0.82774 0.0
C2314 C 0.23489 0.85433 0.82868 0.0
C2315 C 0.25145 0.85208 0.84047 0.0
C2316 C 0.25336 0.8348 0.8514 0.0
C2317 C 0.23906 0.81977 0.85001 0.0
C2318 C 0.22225 0.8226 0.8382 0.0
H2319 H 0.62147 0.69298 0.28439 0.0
H2320 H 0.58902 0.74759 0.28628 0.0
H2321 H 0.61021 0.7593 0.3134 0.0
H2322 H 0.63495 0.68987 0.33786 0.0
H2323 H 0.65912 0.68078 0.33206 0.0
H2324 H 0.63873 0.67515 0.31616 0.0
H2325 H 0.65819 0.68949 0.28696 0.0
H2326 H 0.67836 0.69583 0.30281 0.0
H2327 H 0.66678 0.71451 0.28804 0.0
H2328 H 0.63681 0.76645 0.3374 0.0
H2329 H 0.66712 0.76875 0.35716 0.0
H2330 H 0.68447 0.71069 0.33734 0.0
C2331 C 0.61836 0.70701 0.29118 0.0
C2332 C 0.6033 0.71921 0.28389 0.0
C2333 C 0.60014 0.7379 0.29226 0.0
C2334 C 0.61217 0.74467 0.30752 0.0
C2335 C 0.6275 0.73267 0.31387 0.0
C2336 C 0.63064 0.7142 0.30602 0.0
C2337 C 0.64957 0.7053 0.31368 0.0
C2338 C 0.64533 0.68667 0.32566 0.0
C2339 C 0.66407 0.70105 0.29687 0.0
C2340 C 0.6568 0.72185 0.32669 0.0
C2341 C 0.64366 0.73732 0.32684 0.0
C2342 C 0.64716 0.75438 0.33754 0.0
C2343 C 0.66444 0.75558 0.34864 0.0
C2344 C 0.67817 0.73997 0.34867 0.0
C2345 C 0.67432 0.72294 0.33743 0.0
H2346 H 0.80206 0.09247 0.78293 0.0
H2347 H 0.74597 0.06548 0.77003 0.0
H2348 H 0.73154 0.08122 0.79938 0.0
H2349 H 0.79705 0.09484 0.83887 0.0
H2350 H 0.80835 0.11877 0.83928 0.0
H2351 H 0.81564 0.10099 0.82106 0.0
H2352 H 0.808 0.12622 0.79393 0.0
H2353 H 0.79997 0.14396 0.81165 0.0
H2354 H 0.78369 0.13659 0.7921 0.0
H2355 H 0.72179 0.10435 0.82624 0.0
H2356 H 0.71752 0.1336 0.84756 0.0
H2357 H 0.7795 0.14663 0.84163 0.0
C2358 C 0.78709 0.089 0.78703 0.0
C2359 C 0.77522 0.07729 0.77478 0.0
C2360 C 0.75533 0.074 0.77969 0.0
C2361 C 0.74704 0.0829 0.79629 0.0
C2362 C 0.75884 0.09521 0.80763 0.0
C2363 C 0.7785 0.0982 0.80327 0.0
C2364 C 0.78707 0.11466 0.81553 0.0
C2365 C 0.80297 0.10684 0.82952 0.0
C2366 C 0.79513 0.13134 0.80252 0.0
C2367 C 0.76897 0.12104 0.82669 0.0
C2368 C 0.75295 0.10936 0.82239 0.0
C2369 C 0.73432 0.1134 0.82998 0.0
C2370 C 0.73199 0.13 0.84202 0.0
C2371 C 0.74812 0.14248 0.84588 0.0
C2372 C 0.76685 0.13759 0.83854 0.0
H2373 H 0.36666 0.30895 0.28238 0.0
H2374 H 0.41113 0.26416 0.28872 0.0
H2375 H 0.39436 0.2516 0.31836 0.0
H2376 H 0.35307 0.31498 0.3366 0.0
H2377 H 0.32758 0.31757 0.32987 0.0
H2378 H 0.34659 0.32609 0.31351 0.0
H2379 H 0.33079 0.30403 0.28599 0.0
H2380 H 0.31278 0.29524 0.30305 0.0
H2381 H 0.32843 0.2781 0.29029 0.0
H2382 H 0.37009 0.24044 0.34316 0.0
H2383 H 0.3404 0.23164 0.3619 0.0
H2384 H 0.30999 0.28212 0.33757 0.0
C2385 C 0.37327 0.29718 0.29067 0.0
C2386 C 0.3904 0.28787 0.28385 0.0
C2387 C 0.39833 0.27182 0.29428 0.0
C2388 C 0.38884 0.26456 0.31101 0.0
C2389 C 0.37128 0.27337 0.31681 0.0
C2390 C 0.36359 0.28942 0.30701 0.0
C2391 C 0.34304 0.29417 0.31414 0.0
C2392 C 0.34253 0.3144 0.32413 0.0
C2393 C 0.32789 0.2928 0.29738 0.0
C2394 C 0.3401 0.27784 0.32887 0.0
C2395 C 0.35671 0.26627 0.33049 0.0
C2396 C 0.35712 0.24959 0.34227 0.0
C2397 C 0.34014 0.24465 0.35276 0.0
C2398 C 0.32287 0.25614 0.35109 0.0
C2399 C 0.32294 0.273 0.33905 0.0
H2400 H 0.21426 0.1969 0.12468 0.0
H2401 H 0.22279 0.25445 0.09916 0.0
H2402 H 0.19618 0.26776 0.12015 0.0
H2403 H 0.16068 0.19985 0.13395 0.0
H2404 H 0.16326 0.18723 0.15706 0.0
H2405 H 0.1801 0.18215 0.13737 0.0
H2406 H 0.20888 0.19026 0.161 0.0
H2407 H 0.19191 0.19612 0.18038 0.0
H2408 H 0.20982 0.21402 0.17265 0.0
H2409 H 0.17013 0.27495 0.1451 0.0
H2410 H 0.14707 0.27608 0.1731 0.0
H2411 H 0.15857 0.21457 0.18501 0.0
C2412 C 0.21002 0.21213 0.12312 0.0
C2413 C 0.21995 0.22463 0.11002 0.0
C2414 C 0.21479 0.24466 0.10881 0.0
C2415 C 0.19984 0.25231 0.12072 0.0
C2416 C 0.19068 0.23973 0.13401 0.0
C2417 C 0.19562 0.22009 0.13536 0.0
C2418 C 0.18512 0.21021 0.15225 0.0
C2419 C 0.17146 0.19391 0.14469 0.0
C2420 C 0.19981 0.20219 0.16747 0.0
C2421 C 0.17359 0.22743 0.16033 0.0
C2422 C 0.17677 0.24422 0.14939 0.0
C2423 C 0.16754 0.26193 0.1538 0.0
C2424 C 0.15454 0.26244 0.16972 0.0
C2425 C 0.15126 0.24548 0.18125 0.0
C2426 C 0.16105 0.22781 0.17657 0.0
H2427 H 0.22088 0.73567 0.87732 0.0
H2428 H 0.19335 0.78648 0.90395 0.0
H2429 H 0.16142 0.77662 0.88939 0.0
H2430 H 0.19976 0.74026 0.83336 0.0
H2431 H 0.19708 0.71441 0.82832 0.0
H2432 H 0.21597 0.72267 0.84472 0.0
H2433 H 0.20244 0.69987 0.87204 0.0
H2434 H 0.18339 0.69149 0.85564 0.0
H2435 H 0.17701 0.7017 0.87921 0.0
H2436 H 0.13412 0.7642 0.86709 0.0
H2437 H 0.11549 0.75218 0.83817 0.0
H2438 H 0.16183 0.71051 0.82573 0.0
C2439 C 0.20801 0.74441 0.88063 0.0
C2440 C 0.20952 0.76177 0.8918 0.0
C2441 C 0.19244 0.77298 0.89559 0.0
C2442 C 0.17425 0.76745 0.88741 0.0
C2443 C 0.17344 0.75056 0.87576 0.0
C2444 C 0.18995 0.73916 0.87254 0.0
C2445 C 0.18626 0.72344 0.85733 0.0
C2446 C 0.2006 0.72533 0.83992 0.0
C2447 C 0.18733 0.70291 0.86662 0.0
C2448 C 0.16547 0.72848 0.85147 0.0
C2449 C 0.15799 0.74371 0.86267 0.0
C2450 C 0.13966 0.75198 0.85857 0.0
C2451 C 0.12913 0.74503 0.84219 0.0
C2452 C 0.13723 0.73032 0.82997 0.0
C2453 C 0.15524 0.72154 0.83511 0.0
H2454 H 0.74168 0.69616 0.39461 0.0
H2455 H 0.67875 0.7025 0.38757 0.0
H2456 H 0.67896 0.67651 0.36228 0.0
H2457 H 0.7531 0.69282 0.34754 0.0
H2458 H 0.77228 0.67466 0.3493 0.0
H2459 H 0.76681 0.69 0.37003 0.0
H2460 H 0.76071 0.65949 0.39184 0.0
H2461 H 0.76672 0.64389 0.37131 0.0
H2462 H 0.7436 0.64091 0.38386 0.0
H2463 H 0.68756 0.65707 0.33207 0.0
H2464 H 0.70299 0.64063 0.30351 0.0
H2465 H 0.75985 0.64471 0.33182 0.0
C2466 C 0.72783 0.69131 0.38845 0.0
C2467 C 0.7102 0.7011 0.39311 0.0
C2468 C 0.69235 0.69484 0.38448 0.0
C2469 C 0.69237 0.68023 0.36995 0.0
C2470 C 0.71027 0.67174 0.36469 0.0
C2471 C 0.72759 0.67657 0.37419 0.0
C2472 C 0.7451 0.66673 0.36468 0.0
C2473 C 0.76019 0.68196 0.35746 0.0
C2474 C 0.75459 0.65186 0.37876 0.0
C2475 C 0.73513 0.6565 0.34769 0.0
C2476 C 0.71503 0.65958 0.34789 0.0
C2477 C 0.70314 0.65394 0.33216 0.0
C2478 C 0.71201 0.64478 0.31597 0.0
C2479 C 0.73247 0.64115 0.31582 0.0
C2480 C 0.74408 0.64683 0.33196 0.0
H2481 H 0.78553 0.16909 0.86805 0.0
H2482 H 0.78848 0.21009 0.91631 0.0
H2483 H 0.81765 0.22566 0.90144 0.0
H2484 H 0.83992 0.169 0.8525 0.0
H2485 H 0.83266 0.16931 0.82703 0.0
H2486 H 0.81773 0.1567 0.84488 0.0
H2487 H 0.78809 0.17727 0.83292 0.0
H2488 H 0.80288 0.19078 0.81616 0.0
H2489 H 0.78894 0.20361 0.83466 0.0
H2490 H 0.84002 0.24208 0.87769 0.0
H2491 H 0.8541 0.25714 0.84776 0.0
H2492 H 0.83385 0.20757 0.81335 0.0
C2493 C 0.79303 0.18064 0.87589 0.0
C2494 C 0.78519 0.18816 0.89345 0.0
C2495 C 0.79481 0.20373 0.90318 0.0
C2496 C 0.81127 0.21274 0.89471 0.0
C2497 C 0.81764 0.20614 0.87639 0.0
C2498 C 0.80888 0.19026 0.86713 0.0
C2499 C 0.8153 0.18871 0.84589 0.0
C2500 C 0.82712 0.16981 0.84237 0.0
C2501 C 0.79776 0.19021 0.83162 0.0
C2502 C 0.82817 0.20666 0.84439 0.0
C2503 C 0.8298 0.21628 0.86219 0.0
C2504 C 0.83922 0.23442 0.86379 0.0
C2505 C 0.84701 0.24295 0.84673 0.0
C2506 C 0.84476 0.23357 0.82833 0.0
C2507 C 0.83559 0.21508 0.82728 0.0
H2508 H 0.24957 0.27703 0.38288 0.0
H2509 H 0.30635 0.29795 0.40283 0.0
H2510 H 0.30237 0.32771 0.38219 0.0
H2511 H 0.25807 0.28772 0.33482 0.0
H2512 H 0.23303 0.29401 0.32885 0.0
H2513 H 0.23804 0.27715 0.34852 0.0
H2514 H 0.21849 0.29898 0.37285 0.0
H2515 H 0.21302 0.31578 0.35316 0.0
H2516 H 0.22466 0.32461 0.37525 0.0
H2517 H 0.29279 0.35395 0.35665 0.0
H2518 H 0.27976 0.37248 0.32796 0.0
H2519 H 0.23233 0.33056 0.32224 0.0
C2520 C 0.26096 0.28812 0.38344 0.0
C2521 C 0.2782 0.28527 0.39457 0.0
C2522 C 0.29286 0.30001 0.39464 0.0
C2523 C 0.29075 0.31689 0.38288 0.0
C2524 C 0.27397 0.31862 0.37117 0.0
C2525 C 0.25936 0.30453 0.37143 0.0
C2526 C 0.24414 0.308 0.35568 0.0
C2527 C 0.24329 0.2907 0.34112 0.0
C2528 C 0.22388 0.31209 0.36478 0.0
C2529 C 0.25251 0.32612 0.3462 0.0
C2530 C 0.26944 0.33242 0.35555 0.0
C2531 C 0.27959 0.34907 0.34924 0.0
C2532 C 0.27221 0.35941 0.33295 0.0
C2533 C 0.2554 0.35253 0.32287 0.0
C2534 C 0.24542 0.33583 0.32964 0.0
H2535 H 0.7572 0.77018 0.13674 0.0
H2536 H 0.78677 0.79464 0.08598 0.0
H2537 H 0.81897 0.78644 0.10108 0.0
H2538 H 0.78994 0.79058 0.17152 0.0
H2539 H 0.78822 0.77007 0.18814 0.0
H2540 H 0.76787 0.77598 0.17231 0.0
H2541 H 0.76838 0.74057 0.15828 0.0
H2542 H 0.78877 0.73454 0.17405 0.0
H2543 H 0.79078 0.731 0.1479 0.0
H2544 H 0.8478 0.7751 0.12214 0.0
H2545 H 0.87081 0.76535 0.1486 0.0
H2546 H 0.82152 0.75204 0.18658 0.0
C2547 C 0.77035 0.77368 0.12863 0.0
C2548 C 0.76951 0.78286 0.11009 0.0
C2549 C 0.78716 0.78748 0.10017 0.0
C2550 C 0.80545 0.78284 0.10861 0.0
C2551 C 0.80569 0.77395 0.12708 0.0
C2552 C 0.78856 0.76971 0.13705 0.0
C2553 C 0.7926 0.76174 0.15736 0.0
C2554 C 0.78416 0.77541 0.17326 0.0
C2555 C 0.78466 0.74071 0.15951 0.0
C2556 C 0.81477 0.76205 0.15733 0.0
C2557 C 0.82209 0.76877 0.13962 0.0
C2558 C 0.84221 0.76992 0.13607 0.0
C2559 C 0.85513 0.76427 0.15111 0.0
C2560 C 0.84783 0.75803 0.16953 0.0
C2561 C 0.82742 0.75688 0.17263 0.0
H2562 H 0.74064 0.32571 0.69324 0.0
H2563 H 0.73233 0.37508 0.65396 0.0
H2564 H 0.72335 0.35224 0.62708 0.0
H2565 H 0.76309 0.29389 0.65704 0.0
H2566 H 0.75181 0.27204 0.6668 0.0
H2567 H 0.75718 0.29241 0.68279 0.0
H2568 H 0.72067 0.29342 0.69369 0.0
H2569 H 0.71517 0.27314 0.67763 0.0
H2570 H 0.70167 0.29579 0.67537 0.0
H2571 H 0.71282 0.32364 0.60527 0.0
H2572 H 0.7055 0.29158 0.58945 0.0
H2573 H 0.72436 0.26169 0.64241 0.0
C2574 C 0.73702 0.33166 0.67894 0.0
C2575 C 0.73713 0.35205 0.67557 0.0
C2576 C 0.73246 0.35941 0.6567 0.0
C2577 C 0.72724 0.34659 0.64142 0.0
C2578 C 0.72717 0.3265 0.64523 0.0
C2579 C 0.73229 0.31909 0.66344 0.0
C2580 C 0.73169 0.29694 0.66365 0.0
C2581 C 0.75216 0.28832 0.66781 0.0
C2582 C 0.71639 0.28939 0.67846 0.0
C2583 C 0.7253 0.29302 0.64276 0.0
C2584 C 0.72243 0.3102 0.6324 0.0
C2585 C 0.71533 0.31008 0.61315 0.0
C2586 C 0.71118 0.29188 0.60431 0.0
C2587 C 0.71458 0.27418 0.61462 0.0
C2588 C 0.72185 0.27489 0.634 0.0
H2589 H 0.26902 0.66463 0.68427 0.0
H2590 H 0.21749 0.64522 0.65231 0.0
H2591 H 0.22939 0.6625 0.62255 0.0
H2592 H 0.27188 0.71108 0.66517 0.0
H2593 H 0.29822 0.71215 0.66364 0.0
H2594 H 0.28685 0.69653 0.6815 0.0
H2595 H 0.30521 0.6661 0.66777 0.0
H2596 H 0.31729 0.68174 0.65019 0.0
H2597 H 0.30376 0.66052 0.64198 0.0
H2598 H 0.24453 0.68609 0.59839 0.0
H2599 H 0.26202 0.71332 0.58177 0.0
H2600 H 0.30591 0.71325 0.62769 0.0
C2601 C 0.26035 0.66398 0.67092 0.0
C2602 C 0.24226 0.65401 0.67046 0.0
C2603 C 0.23135 0.65303 0.65281 0.0
C2604 C 0.23806 0.66263 0.63588 0.0
C2605 C 0.256 0.67249 0.63679 0.0
C2606 C 0.26713 0.67292 0.65379 0.0
C2607 C 0.28538 0.68527 0.65132 0.0
C2608 C 0.28559 0.70225 0.66627 0.0
C2609 C 0.30402 0.67265 0.65291 0.0
C2610 C 0.28237 0.6925 0.63056 0.0
C2611 C 0.26539 0.68492 0.62235 0.0
C2612 C 0.2582 0.6916 0.60435 0.0
C2613 C 0.26826 0.70691 0.59493 0.0
C2614 C 0.28544 0.71494 0.60336 0.0
C2615 C 0.293 0.70707 0.62088 0.0
H2616 H 0.81831 0.8511 0.74737 0.0
H2617 H 0.76117 0.82296 0.74908 0.0
H2618 H 0.77723 0.79101 0.75566 0.0
H2619 H 0.84666 0.81059 0.72618 0.0
H2620 H 0.86757 0.81514 0.74178 0.0
H2621 H 0.85179 0.83514 0.73465 0.0
H2622 H 0.84593 0.84391 0.77144 0.0
H2623 H 0.86208 0.82413 0.77831 0.0
H2624 H 0.83747 0.82503 0.78794 0.0
H2625 H 0.79943 0.76258 0.76301 0.0
H2626 H 0.82581 0.73991 0.773 0.0
H2627 H 0.86819 0.78739 0.76958 0.0
C2628 C 0.80922 0.8381 0.74854 0.0
C2629 C 0.78854 0.83933 0.74734 0.0
C2630 C 0.77705 0.8222 0.74975 0.0
C2631 C 0.78604 0.80405 0.75346 0.0
C2632 C 0.80646 0.80342 0.75497 0.0
C2633 C 0.8179 0.82002 0.75275 0.0
C2634 C 0.83932 0.81582 0.7571 0.0
C2635 C 0.85208 0.81938 0.73884 0.0
C2636 C 0.84661 0.82795 0.77474 0.0
C2637 C 0.83817 0.79422 0.76209 0.0
C2638 C 0.81913 0.78731 0.7605 0.0
C2639 C 0.81438 0.76783 0.76434 0.0
C2640 C 0.82948 0.75507 0.77002 0.0
C2641 C 0.84901 0.76195 0.7722 0.0
C2642 C 0.85337 0.78178 0.76814 0.0
H2643 H 0.65302 0.32715 0.27725 0.0
H2644 H 0.64156 0.34678 0.21797 0.0
H2645 H 0.66108 0.37689 0.22438 0.0
H2646 H 0.65453 0.37711 0.30145 0.0
H2647 H 0.67404 0.36909 0.31749 0.0
H2648 H 0.65573 0.35192 0.3092 0.0
H2649 H 0.68384 0.32957 0.29606 0.0
H2650 H 0.70204 0.34709 0.30339 0.0
H2651 H 0.70081 0.3393 0.27823 0.0
H2652 H 0.68647 0.40131 0.23546 0.0
H2653 H 0.71578 0.41736 0.24976 0.0
H2654 H 0.70976 0.38227 0.3023 0.0
C2655 C 0.6545 0.33781 0.26569 0.0
C2656 C 0.6462 0.33452 0.24704 0.0
C2657 C 0.64795 0.34907 0.23236 0.0
C2658 C 0.65887 0.36623 0.23594 0.0
C2659 C 0.66741 0.36875 0.25444 0.0
C2660 C 0.66507 0.35501 0.26916 0.0
C2661 C 0.6775 0.35983 0.28693 0.0
C2662 C 0.66468 0.36477 0.30482 0.0
C2663 C 0.69189 0.34295 0.2914 0.0
C2664 C 0.68803 0.37793 0.27964 0.0
C2665 C 0.68172 0.38311 0.261 0.0
C2666 C 0.69102 0.39785 0.25029 0.0
C2667 C 0.70754 0.40698 0.25855 0.0
C2668 C 0.71439 0.40151 0.27737 0.0
C2669 C 0.70414 0.38732 0.28829 0.0
H2670 H 0.1938 0.17996 0.74283 0.0
H2671 H 0.15838 0.12763 0.75112 0.0
H2672 H 0.13086 0.14803 0.76291 0.0
H2673 H 0.17598 0.2068 0.78469 0.0
H2674 H 0.17589 0.23014 0.77225 0.0
H2675 H 0.1931 0.21139 0.76504 0.0
H2676 H 0.18032 0.21327 0.72918 0.0
H2677 H 0.16317 0.2321 0.73628 0.0
H2678 H 0.15446 0.21011 0.72438 0.0
H2679 H 0.1079 0.17405 0.77583 0.0
H2680 H 0.08969 0.20438 0.78462 0.0
H2681 H 0.13888 0.23937 0.76444 0.0
C2682 C 0.18021 0.17284 0.74705 0.0
C2683 C 0.17816 0.15228 0.74602 0.0
C2684 C 0.16016 0.14343 0.7516 0.0
C2685 C 0.1445 0.15485 0.75846 0.0
C2686 C 0.147 0.17509 0.7594 0.0
C2687 C 0.16428 0.18405 0.75354 0.0
C2688 C 0.16287 0.20613 0.75523 0.0
C2689 C 0.17785 0.21407 0.77019 0.0
C2690 C 0.16534 0.21597 0.73506 0.0
C2691 C 0.14208 0.20815 0.76278 0.0
C2692 C 0.13331 0.19009 0.76556 0.0
C2693 C 0.11449 0.18831 0.77346 0.0
C2694 C 0.1043 0.20552 0.77843 0.0
C2695 C 0.11281 0.22412 0.77495 0.0
C2696 C 0.13189 0.22537 0.76701 0.0
H2697 H 0.33622 0.67283 0.27297 0.0
H2698 H 0.36039 0.64598 0.22074 0.0
H2699 H 0.34158 0.61566 0.22773 0.0
H2700 H 0.33838 0.6262 0.30303 0.0
H2701 H 0.31642 0.63282 0.31625 0.0
H2702 H 0.33296 0.65166 0.30783 0.0
H2703 H 0.30452 0.66874 0.28893 0.0
H2704 H 0.28823 0.6503 0.29811 0.0
H2705 H 0.28988 0.65448 0.27203 0.0
H2706 H 0.31541 0.59137 0.23735 0.0
H2707 H 0.28599 0.57419 0.2501 0.0
H2708 H 0.2842 0.61394 0.29961 0.0
C2709 C 0.33809 0.66035 0.26344 0.0
C2710 C 0.34985 0.66167 0.24651 0.0
C2711 C 0.35149 0.64522 0.23389 0.0
C2712 C 0.34097 0.62793 0.23781 0.0
C2713 C 0.3296 0.62711 0.25482 0.0
C2714 C 0.32854 0.64275 0.2677 0.0
C2715 C 0.31491 0.63849 0.28466 0.0
C2716 C 0.32636 0.63721 0.30409 0.0
C2717 C 0.2984 0.65391 0.28595 0.0
C2718 C 0.30725 0.61855 0.27856 0.0
C2719 C 0.31597 0.61216 0.26134 0.0
C2720 C 0.30905 0.59573 0.25123 0.0
C2721 C 0.29244 0.58601 0.25858 0.0
C2722 C 0.28339 0.59247 0.27607 0.0
C2723 C 0.29135 0.60839 0.28656 0.0
H2724 H 0.82757 0.14519 0.21412 0.0
H2725 H 0.82214 0.15436 0.27682 0.0
H2726 H 0.84786 0.18007 0.2753 0.0
H2727 H 0.88041 0.15397 0.2102 0.0
H2728 H 0.87828 0.16681 0.18716 0.0
H2729 H 0.86082 0.14792 0.19341 0.0
H2730 H 0.83205 0.17248 0.18852 0.0
H2731 H 0.8494 0.19121 0.18188 0.0
H2732 H 0.83228 0.19544 0.20161 0.0
H2733 H 0.87065 0.20714 0.26635 0.0
H2734 H 0.88947 0.23385 0.25064 0.0
H2735 H 0.88103 0.20659 0.19377 0.0
C2736 C 0.83177 0.15269 0.22746 0.0
C2737 C 0.82283 0.14818 0.24555 0.0
C2738 C 0.82895 0.1578 0.26286 0.0
C2739 C 0.84351 0.17232 0.26212 0.0
C2740 C 0.85185 0.17676 0.24397 0.0
C2741 C 0.84625 0.16722 0.22694 0.0
C2742 C 0.85659 0.17563 0.20916 0.0
C2743 C 0.86982 0.16015 0.19941 0.0
C2744 C 0.8417 0.1842 0.19443 0.0
C2745 C 0.86862 0.19165 0.21878 0.0
C2746 C 0.8657 0.19199 0.23889 0.0
C2747 C 0.87348 0.20674 0.25072 0.0
C2748 C 0.88414 0.2218 0.24171 0.0
C2749 C 0.88708 0.22182 0.22117 0.0
C2750 C 0.87964 0.20635 0.20961 0.0
H2751 H 0.29036 0.36931 0.70345 0.0
H2752 H 0.26876 0.38584 0.76096 0.0
H2753 H 0.29523 0.36661 0.77659 0.0
H2754 H 0.29901 0.32139 0.71448 0.0
H2755 H 0.32141 0.31805 0.70071 0.0
H2756 H 0.30408 0.33647 0.69334 0.0
H2757 H 0.32997 0.36362 0.69505 0.0
H2758 H 0.34806 0.3455 0.70176 0.0
H2759 H 0.34424 0.3667 0.71715 0.0
H2760 H 0.32191 0.34357 0.78603 0.0
H2761 H 0.34659 0.31695 0.78859 0.0
H2762 H 0.34906 0.31298 0.72515 0.0
C2763 C 0.29178 0.36945 0.71929 0.0
C2764 C 0.27793 0.37932 0.7311 0.0
C2765 C 0.27951 0.37854 0.75178 0.0
C2766 C 0.29448 0.36771 0.76075 0.0
C2767 C 0.30761 0.35761 0.7488 0.0
C2768 C 0.30649 0.35837 0.72852 0.0
C2769 C 0.32109 0.34439 0.71921 0.0
C2770 C 0.31076 0.32913 0.7062 0.0
C2771 C 0.33678 0.35573 0.70761 0.0
C2772 C 0.32979 0.33501 0.73735 0.0
C2773 C 0.32225 0.34328 0.75427 0.0
C2774 C 0.32798 0.33701 0.77289 0.0
C2775 C 0.34185 0.32188 0.77423 0.0
C2776 C 0.34927 0.31293 0.75706 0.0
C2777 C 0.34324 0.31954 0.73843 0.0
H2778 H 0.17667 0.83719 0.21785 0.0
H2779 H 0.15075 0.8583 0.27195 0.0
H2780 H 0.12243 0.8361 0.26699 0.0
H2781 H 0.12913 0.83454 0.1911 0.0
H2782 H 0.1365 0.81317 0.17731 0.0
H2783 H 0.15461 0.8309 0.18489 0.0
H2784 H 0.1746 0.80369 0.20254 0.0
H2785 H 0.15678 0.78606 0.19436 0.0
H2786 H 0.16242 0.78809 0.22014 0.0
H2787 H 0.09961 0.80841 0.25832 0.0
H2788 H 0.08256 0.77908 0.24506 0.0
H2789 H 0.11984 0.78062 0.19364 0.0
C2790 C 0.16485 0.83742 0.22838 0.0
C2791 C 0.16581 0.8495 0.24516 0.0
C2792 C 0.15022 0.84918 0.25892 0.0
C2793 C 0.13408 0.83669 0.25621 0.0
C2794 C 0.13346 0.82514 0.23933 0.0
C2795 C 0.14824 0.8257 0.22544 0.0
C2796 C 0.144 0.81189 0.20854 0.0
C2797 C 0.14087 0.82332 0.18933 0.0
C2798 C 0.16043 0.79652 0.20631 0.0
C2799 C 0.12501 0.80274 0.21559 0.0
C2800 C 0.1192 0.81052 0.23343 0.0
C2801 C 0.10356 0.80264 0.24405 0.0
C2802 C 0.09392 0.7861 0.23643 0.0
C2803 C 0.09963 0.7781 0.21818 0.0
C2804 C 0.11491 0.78688 0.20737 0.0
H2805 H 0.72646 0.6249 0.73624 0.0
H2806 H 0.7093 0.60805 0.67722 0.0
H2807 H 0.67842 0.62692 0.68089 0.0
H2808 H 0.6772 0.62385 0.75796 0.0
H2809 H 0.68213 0.64487 0.77329 0.0
H2810 H 0.70184 0.62859 0.76646 0.0
H2811 H 0.72122 0.6581 0.75224 0.0
H2812 H 0.70152 0.67443 0.75884 0.0
H2813 H 0.70992 0.67333 0.73377 0.0
H2814 H 0.65061 0.64982 0.69032 0.0
H2815 H 0.62772 0.67403 0.70522 0.0
H2816 H 0.66357 0.6757 0.75775 0.0
C2817 C 0.71607 0.62489 0.72419 0.0
C2818 C 0.72019 0.61496 0.70648 0.0
C2819 C 0.70631 0.61543 0.69099 0.0
C2820 C 0.68879 0.62614 0.69293 0.0
C2821 C 0.68539 0.63614 0.71048 0.0
C2822 C 0.6986 0.63545 0.72589 0.0
C2823 C 0.69202 0.64814 0.74288 0.0
C2824 C 0.68806 0.63561 0.76123 0.0
C2825 C 0.70706 0.66447 0.74717 0.0
C2826 C 0.6732 0.65642 0.73453 0.0
C2827 C 0.66952 0.64926 0.71586 0.0
C2828 C 0.65324 0.65535 0.70499 0.0
C2829 C 0.64038 0.66905 0.71349 0.0
C2830 C 0.64403 0.67642 0.73253 0.0
C2831 C 0.66055 0.67005 0.74318 0.0
H2832 H 0.78426 0.81411 0.84188 0.0
H2833 H 0.73406 0.84242 0.86922 0.0
H2834 H 0.74015 0.87214 0.84967 0.0
H2835 H 0.815 0.85933 0.83772 0.0
H2836 H 0.82474 0.85202 0.81423 0.0
H2837 H 0.8181 0.83365 0.83208 0.0
H2838 H 0.79495 0.81701 0.80682 0.0
H2839 H 0.8019 0.83516 0.78909 0.0
H2840 H 0.77632 0.83155 0.79479 0.0
H2841 H 0.74829 0.89654 0.82399 0.0
H2842 H 0.75848 0.91423 0.794 0.0
H2843 H 0.80463 0.87149 0.7844 0.0
C2844 C 0.77472 0.82666 0.84397 0.0
C2845 C 0.75864 0.82586 0.85706 0.0
C2846 C 0.7465 0.84262 0.85933 0.0
C2847 C 0.74989 0.85965 0.84835 0.0
C2848 C 0.76568 0.85986 0.83539 0.0
C2849 C 0.77804 0.8439 0.83328 0.0
C2850 C 0.79307 0.84745 0.8173 0.0
C2851 C 0.81397 0.84816 0.82585 0.0
C2852 C 0.79141 0.83185 0.80105 0.0
C2853 C 0.78663 0.86751 0.81012 0.0
C2854 C 0.77093 0.87449 0.82095 0.0
C2855 C 0.76093 0.89157 0.81575 0.0
C2856 C 0.7668 0.90152 0.79875 0.0
C2857 C 0.78264 0.89449 0.78736 0.0
C2858 C 0.79301 0.87759 0.79339 0.0
H2859 H 0.62725 0.30425 0.28199 0.0
H2860 H 0.5843 0.25772 0.2852 0.0
H2861 H 0.60175 0.24365 0.31401 0.0
H2862 H 0.66749 0.27162 0.2887 0.0
H2863 H 0.68205 0.29013 0.30081 0.0
H2864 H 0.66371 0.29703 0.28323 0.0
H2865 H 0.64647 0.31935 0.31122 0.0
H2866 H 0.66649 0.31207 0.32675 0.0
H2867 H 0.64156 0.3081 0.33457 0.0
H2868 H 0.62668 0.23275 0.34 0.0
H2869 H 0.65673 0.22521 0.35916 0.0
H2870 H 0.68507 0.27676 0.33499 0.0
C2871 C 0.62129 0.29143 0.28911 0.0
C2872 C 0.60427 0.28234 0.28186 0.0
C2873 C 0.59702 0.26524 0.29111 0.0
C2874 C 0.60694 0.25709 0.30732 0.0
C2875 C 0.62436 0.26596 0.31357 0.0
C2876 C 0.63155 0.28262 0.3045 0.0
C2877 C 0.65183 0.28779 0.31179 0.0
C2878 C 0.66714 0.28661 0.29517 0.0
C2879 C 0.6516 0.30802 0.3217 0.0
C2880 C 0.6551 0.27154 0.32642 0.0
C2881 C 0.63904 0.25916 0.3275 0.0
C2882 C 0.63924 0.24246 0.33933 0.0
C2883 C 0.65637 0.23827 0.35009 0.0
C2884 C 0.67319 0.25042 0.34847 0.0
C2885 C 0.6724 0.26729 0.33657 0.0
H2886 H 0.2452 0.12611 0.76831 0.0
H2887 H 0.19539 0.0983 0.79663 0.0
H2888 H 0.20065 0.1193 0.82594 0.0
H2889 H 0.27542 0.13598 0.81143 0.0
H2890 H 0.28284 0.15966 0.80226 0.0
H2891 H 0.27716 0.14012 0.78535 0.0
H2892 H 0.2516 0.16251 0.76815 0.0
H2893 H 0.25694 0.18204 0.78512 0.0
H2894 H 0.23208 0.1733 0.7824 0.0
H2895 H 0.2107 0.14492 0.85143 0.0
H2896 H 0.22313 0.17388 0.86976 0.0
H2897 H 0.2631 0.18698 0.82207 0.0
C2898 C 0.23553 0.12413 0.78073 0.0
C2899 C 0.21989 0.11055 0.78021 0.0
C2900 C 0.20756 0.10854 0.79681 0.0
C2901 C 0.21042 0.12042 0.81347 0.0
C2902 C 0.22551 0.1343 0.81309 0.0
C2903 C 0.23776 0.13623 0.79705 0.0
C2904 C 0.2514 0.1536 0.79911 0.0
C2905 C 0.27298 0.14694 0.79957 0.0
C2906 C 0.24777 0.16875 0.78273 0.0
C2907 C 0.24491 0.16131 0.81883 0.0
C2908 C 0.23024 0.1498 0.8269 0.0
C2909 C 0.22215 0.15402 0.84522 0.0
C2910 C 0.22926 0.17043 0.8555 0.0
C2911 C 0.24388 0.18258 0.84714 0.0
C2912 C 0.25173 0.17797 0.8286 0.0
H2913 H 0.32401 0.72173 0.34076 0.0
H2914 H 0.34254 0.78248 0.34304 0.0
H2915 H 0.37246 0.7741 0.32409 0.0
H2916 H 0.37678 0.70171 0.34393 0.0
H2917 H 0.37058 0.68113 0.32849 0.0
H2918 H 0.35247 0.69127 0.34495 0.0
H2919 H 0.32812 0.69716 0.31581 0.0
H2920 H 0.34623 0.68551 0.30083 0.0
H2921 H 0.33711 0.70953 0.29415 0.0
H2922 H 0.39592 0.76059 0.29992 0.0
H2923 H 0.41087 0.74331 0.27185 0.0
H2924 H 0.37898 0.69052 0.2869 0.0
C2925 C 0.33461 0.73312 0.33744 0.0
C2926 C 0.3311 0.75272 0.34295 0.0
C2927 C 0.34514 0.76738 0.33877 0.0
C2928 C 0.36219 0.7627 0.32821 0.0
C2929 C 0.3652 0.74319 0.3227 0.0
C2930 C 0.35196 0.72857 0.32748 0.0
C2931 C 0.35799 0.70906 0.31876 0.0
C2932 C 0.36487 0.69497 0.335 0.0
C2933 C 0.34131 0.69987 0.30662 0.0
C2934 C 0.37514 0.71548 0.30612 0.0
C2935 C 0.3796 0.73508 0.30935 0.0
C2936 C 0.3931 0.74511 0.29773 0.0
C2937 C 0.40156 0.73519 0.28186 0.0
C2938 C 0.39651 0.7155 0.27778 0.0
C2939 C 0.38374 0.70528 0.29043 0.0
H2940 H 0.77455 0.17654 0.15217 0.0
H2941 H 0.72328 0.14596 0.12983 0.0
H2942 H 0.73268 0.11646 0.14876 0.0
H2943 H 0.80781 0.13343 0.15293 0.0
H2944 H 0.81946 0.14093 0.17546 0.0
H2945 H 0.81013 0.15917 0.15866 0.0
H2946 H 0.78877 0.17443 0.18586 0.0
H2947 H 0.79762 0.15682 0.20328 0.0
H2948 H 0.77168 0.15919 0.19917 0.0
H2949 H 0.74462 0.09267 0.17418 0.0
H2950 H 0.75878 0.07625 0.20339 0.0
H2951 H 0.80414 0.12054 0.20655 0.0
C2952 C 0.76545 0.16353 0.15107 0.0
C2953 C 0.74814 0.16353 0.13968 0.0
C2954 C 0.73663 0.14624 0.13849 0.0
C2955 C 0.74191 0.1294 0.1491 0.0
C2956 C 0.75898 0.12996 0.16041 0.0
C2957 C 0.77072 0.14649 0.16121 0.0
C2958 C 0.78746 0.14389 0.17558 0.0
C2959 C 0.8074 0.1444 0.16502 0.0
C2960 C 0.78631 0.15949 0.19192 0.0
C2961 C 0.78297 0.12352 0.18325 0.0
C2962 C 0.76649 0.11569 0.17428 0.0
C2963 C 0.75794 0.09828 0.18082 0.0
C2964 C 0.7661 0.08898 0.1973 0.0
C2965 C 0.78285 0.09689 0.20666 0.0
C2966 C 0.79175 0.11394 0.19914 0.0
H2967 H 0.38323 0.24993 0.72712 0.0
H2968 H 0.40631 0.30467 0.70419 0.0
H2969 H 0.38651 0.30001 0.67393 0.0
H2970 H 0.37698 0.22289 0.68141 0.0
H2971 H 0.35393 0.21253 0.68927 0.0
H2972 H 0.37254 0.21849 0.70713 0.0
H2973 H 0.34756 0.24029 0.72584 0.0
H2974 H 0.3289 0.23458 0.70801 0.0
H2975 H 0.33516 0.25982 0.71298 0.0
H2976 H 0.36254 0.28969 0.64684 0.0
H2977 H 0.33492 0.27652 0.627 0.0
H2978 H 0.32472 0.23162 0.67079 0.0
C2979 C 0.38445 0.26086 0.71568 0.0
C2980 C 0.39638 0.27766 0.71801 0.0
C2981 C 0.39739 0.29159 0.70263 0.0
C2982 C 0.38618 0.28907 0.68543 0.0
C2983 C 0.37391 0.27269 0.68406 0.0
C2984 C 0.37291 0.25894 0.69891 0.0
C2985 C 0.35693 0.24397 0.69524 0.0
C2986 C 0.36562 0.22324 0.69313 0.0
C2987 C 0.34121 0.24473 0.71148 0.0
C2988 C 0.34895 0.25138 0.67595 0.0
C2989 C 0.35918 0.2677 0.66946 0.0
C2990 C 0.35446 0.27697 0.65183 0.0
C2991 C 0.3388 0.26942 0.64069 0.0
C2992 C 0.32781 0.25321 0.64757 0.0
C2993 C 0.33296 0.24408 0.66535 0.0
H2994 H 0.18771 0.88409 0.2032 0.0
H2995 H 0.23958 0.91819 0.21671 0.0
H2996 H 0.25541 0.90642 0.18629 0.0
H2997 H 0.2105 0.84402 0.19172 0.0
H2998 H 0.19582 0.83539 0.17138 0.0
H2999 H 0.18517 0.8515 0.18919 0.0
H3000 H 0.17513 0.87652 0.16332 0.0
H3001 H 0.18484 0.86051 0.14459 0.0
H3002 H 0.1931 0.8856 0.14616 0.0
H3003 H 0.26801 0.88637 0.15862 0.0
H3004 H 0.27712 0.85781 0.13799 0.0
H3005 H 0.21824 0.83465 0.14407 0.0
C3006 C 0.20192 0.88989 0.19903 0.0
C3007 C 0.21226 0.90251 0.21175 0.0
C3008 C 0.23132 0.90893 0.20672 0.0
C3009 C 0.24038 0.90237 0.18946 0.0
C3010 C 0.2302 0.88923 0.17749 0.0
C3011 C 0.2113 0.8831 0.182 0.0
C3012 C 0.20507 0.86619 0.16893 0.0
C3013 C 0.19885 0.84818 0.18105 0.0
C3014 C 0.18856 0.8726 0.15491 0.0
C3015 C 0.22395 0.86261 0.15779 0.0
C3016 C 0.23794 0.87666 0.16216 0.0
C3017 C 0.25703 0.87554 0.15473 0.0
C3018 C 0.2621 0.85934 0.14303 0.0
C3019 C 0.24827 0.84432 0.13945 0.0
C3020 C 0.22889 0.84623 0.14647 0.0
H3021 H 0.65912 0.77668 0.67355 0.0
H3022 H 0.65018 0.73746 0.6243 0.0
H3023 H 0.62185 0.72228 0.64149 0.0
H3024 H 0.65035 0.74408 0.71023 0.0
H3025 H 0.63762 0.76086 0.72625 0.0
H3026 H 0.6551 0.77009 0.70883 0.0
H3027 H 0.62845 0.79309 0.69418 0.0
H3028 H 0.61082 0.78385 0.71162 0.0
H3029 H 0.60553 0.78285 0.6857 0.0
H3030 H 0.59896 0.70749 0.66714 0.0
H3031 H 0.58254 0.69621 0.69759 0.0
H3032 H 0.60402 0.74792 0.72794 0.0
C3033 C 0.65082 0.76524 0.66622 0.0
C3034 C 0.65664 0.75816 0.64772 0.0
C3035 C 0.64568 0.74313 0.63847 0.0
C3036 C 0.62962 0.73446 0.64811 0.0
C3037 C 0.62446 0.74149 0.66666 0.0
C3038 C 0.6345 0.75688 0.67537 0.0
C3039 C 0.62699 0.76103 0.69579 0.0
C3040 C 0.64349 0.75887 0.71116 0.0
C3041 C 0.61737 0.78142 0.69687 0.0
C3042 C 0.61187 0.74492 0.69769 0.0
C3043 C 0.61048 0.73378 0.68078 0.0
C3044 C 0.59944 0.71648 0.68024 0.0
C3045 C 0.59012 0.71019 0.69757 0.0
C3046 C 0.59192 0.72125 0.71508 0.0
C3047 C 0.60218 0.73923 0.71474 0.0
H3048 H 0.83347 0.71714 0.85618 0.0
H3049 H 0.86553 0.76942 0.84003 0.0
H3050 H 0.85161 0.7869 0.86869 0.0
H3051 H 0.79198 0.73709 0.86497 0.0
H3052 H 0.78438 0.7227 0.88584 0.0
H3053 H 0.80177 0.71278 0.8689 0.0
H3054 H 0.82654 0.70711 0.89727 0.0
H3055 H 0.80903 0.71706 0.91446 0.0
H3056 H 0.83341 0.72727 0.913 0.0
H3057 H 0.82676 0.8009 0.89155 0.0
H3058 H 0.79466 0.8093 0.90635 0.0
H3059 H 0.77993 0.74764 0.90923 0.0
C3060 C 0.83832 0.73193 0.85943 0.0
C3061 C 0.8506 0.74198 0.84627 0.0
C3062 C 0.8564 0.76146 0.85033 0.0
C3063 C 0.84857 0.77145 0.86658 0.0
C3064 C 0.83544 0.7615 0.87879 0.0
C3065 C 0.83082 0.74191 0.87568 0.0
C3066 C 0.814 0.73537 0.88856 0.0
C3067 C 0.79705 0.72651 0.87633 0.0
C3068 C 0.82118 0.72085 0.90426 0.0
C3069 C 0.80838 0.75478 0.89772 0.0
C3070 C 0.82129 0.76961 0.89253 0.0
C3071 C 0.81702 0.78932 0.89641 0.0
C3072 C 0.79879 0.79401 0.90487 0.0
C3073 C 0.7851 0.77901 0.90904 0.0
C3074 C 0.79045 0.75924 0.90648 0.0
H3075 H 0.8215 0.26412 0.16754 0.0
H3076 H 0.86982 0.22577 0.15214 0.0
H3077 H 0.84997 0.21172 0.12489 0.0
H3078 H 0.7834 0.2312 0.15927 0.0
H3079 H 0.76676 0.2491 0.14913 0.0
H3080 H 0.7854 0.25666 0.16625 0.0
H3081 H 0.79848 0.28195 0.14093 0.0
H3082 H 0.77985 0.27439 0.1237 0.0
H3083 H 0.80538 0.27376 0.11672 0.0
H3084 H 0.82251 0.19915 0.10206 0.0
H3085 H 0.7913 0.19102 0.08491 0.0
H3086 H 0.76323 0.2405 0.11358 0.0
C3087 C 0.82797 0.25298 0.15819 0.0
C3088 C 0.84706 0.24596 0.16175 0.0
C3089 C 0.85519 0.23139 0.14938 0.0
C3090 C 0.84403 0.22334 0.13395 0.0
C3091 C 0.82504 0.23047 0.1309 0.0
C3092 C 0.81728 0.24524 0.14251 0.0
C3093 C 0.79647 0.25013 0.1367 0.0
C3094 C 0.78218 0.24655 0.15386 0.0
C3095 C 0.79497 0.27132 0.12905 0.0
C3096 C 0.79343 0.23543 0.12039 0.0
C3097 C 0.80994 0.22409 0.1172 0.0
C3098 C 0.80965 0.20825 0.10412 0.0
C3099 C 0.79191 0.20376 0.09441 0.0
C3100 C 0.77488 0.21517 0.09783 0.0
C3101 C 0.77599 0.23152 0.1105 0.0
H3102 H 0.27195 0.33408 0.68368 0.0
H3103 H 0.214 0.34877 0.66214 0.0
H3104 H 0.2205 0.32998 0.63163 0.0
H3105 H 0.29629 0.33805 0.6343 0.0
H3106 H 0.3132 0.31849 0.63998 0.0
H3107 H 0.30422 0.33426 0.65921 0.0
H3108 H 0.2913 0.30322 0.67836 0.0
H3109 H 0.3012 0.28825 0.65908 0.0
H3110 H 0.27563 0.28613 0.66563 0.0
H3111 H 0.23164 0.30556 0.6063 0.0
H3112 H 0.24725 0.27868 0.58741 0.0
H3113 H 0.29981 0.28431 0.62266 0.0
C3114 C 0.26081 0.33339 0.67241 0.0
C3115 C 0.24248 0.34252 0.67516 0.0
C3116 C 0.2281 0.34166 0.66019 0.0
C3117 C 0.23172 0.33117 0.64283 0.0
C3118 C 0.25005 0.32235 0.64048 0.0
C3119 C 0.26451 0.32367 0.65471 0.0
C3120 C 0.28283 0.3126 0.64872 0.0
C3121 C 0.30015 0.32669 0.64537 0.0
C3122 C 0.28803 0.29661 0.66384 0.0
C3123 C 0.27598 0.30384 0.6295 0.0
C3124 C 0.25707 0.30971 0.62491 0.0
C3125 C 0.24669 0.30141 0.60931 0.0
C3126 C 0.25565 0.28628 0.59859 0.0
C3127 C 0.27489 0.28006 0.60327 0.0
C3128 C 0.28539 0.28942 0.6184 0.0
H3129 H 0.23546 0.77059 0.13753 0.0
H3130 H 0.20207 0.79368 0.08841 0.0
H3131 H 0.17118 0.78326 0.10479 0.0
H3132 H 0.20622 0.72912 0.14859 0.0
H3133 H 0.20879 0.73191 0.17479 0.0
H3134 H 0.22793 0.74045 0.15871 0.0
H3135 H 0.22548 0.77529 0.17399 0.0
H3136 H 0.20638 0.76687 0.1902 0.0
H3137 H 0.20207 0.78766 0.17443 0.0
H3138 H 0.14416 0.7694 0.12684 0.0
H3139 H 0.12328 0.75618 0.15347 0.0
H3140 H 0.17524 0.74487 0.1886 0.0
C3141 C 0.22173 0.77352 0.1301 0.0
C3142 C 0.22114 0.78287 0.11165 0.0
C3143 C 0.20279 0.78647 0.10256 0.0
C3144 C 0.18524 0.78059 0.11174 0.0
C3145 C 0.18643 0.77148 0.13006 0.0
C3146 C 0.20424 0.76825 0.13921 0.0
C3147 C 0.20176 0.75919 0.15928 0.0
C3148 C 0.21177 0.73897 0.16039 0.0
C3149 C 0.20937 0.77308 0.17542 0.0
C3150 C 0.1797 0.75737 0.15995 0.0
C3151 C 0.17106 0.7644 0.14295 0.0
C3152 C 0.15079 0.76393 0.14021 0.0
C3153 C 0.13908 0.75629 0.15534 0.0
C3154 C 0.14772 0.74948 0.17301 0.0
C3155 C 0.16828 0.74999 0.17524 0.0
H3156 H 0.76315 0.68473 0.68662 0.0
H3157 H 0.75564 0.63495 0.64759 0.0
H3158 H 0.74355 0.65721 0.62155 0.0
H3159 H 0.72102 0.70942 0.67397 0.0
H3160 H 0.73135 0.73376 0.67517 0.0
H3161 H 0.74171 0.71436 0.68977 0.0
H3162 H 0.77597 0.72049 0.67434 0.0
H3163 H 0.76578 0.74015 0.65987 0.0
H3164 H 0.77861 0.72027 0.64801 0.0
H3165 H 0.72744 0.68445 0.6018 0.0
H3166 H 0.71243 0.71493 0.5887 0.0
H3167 H 0.73258 0.74664 0.64016 0.0
C3168 C 0.75945 0.67858 0.67242 0.0
C3169 C 0.76038 0.65817 0.66906 0.0
C3170 C 0.75528 0.65061 0.65036 0.0
C3171 C 0.7483 0.66312 0.63553 0.0
C3172 C 0.74691 0.68314 0.63956 0.0
C3173 C 0.75278 0.69086 0.65742 0.0
C3174 C 0.74909 0.71271 0.65845 0.0
C3175 C 0.73495 0.71785 0.67533 0.0
C3176 C 0.76852 0.72407 0.66027 0.0
C3177 C 0.7396 0.716 0.63867 0.0
C3178 C 0.7384 0.69882 0.62794 0.0
C3179 C 0.7287 0.69807 0.60989 0.0
C3180 C 0.72013 0.71539 0.60261 0.0
C3181 C 0.72151 0.73314 0.61333 0.0
C3182 C 0.73153 0.73338 0.63147 0.0
H3183 H 0.14318 0.24045 0.82805 0.0
H3184 H 0.15889 0.30112 0.81752 0.0
H3185 H 0.18386 0.29933 0.84395 0.0
H3186 H 0.15227 0.23986 0.88239 0.0
H3187 H 0.16263 0.21552 0.88152 0.0
H3188 H 0.14379 0.22252 0.86425 0.0
H3189 H 0.16667 0.21288 0.83537 0.0
H3190 H 0.18551 0.20588 0.85252 0.0
H3191 H 0.19075 0.22376 0.83375 0.0
H3192 H 0.20987 0.28971 0.86742 0.0
H3193 H 0.23576 0.27283 0.88639 0.0
H3194 H 0.20324 0.21829 0.88247 0.0
C3195 C 0.15149 0.25347 0.83187 0.0
C3196 C 0.14903 0.27106 0.82128 0.0
C3197 C 0.16051 0.28768 0.82588 0.0
C3198 C 0.17462 0.28678 0.84084 0.0
C3199 C 0.17699 0.26912 0.85091 0.0
C3200 C 0.16574 0.25274 0.84667 0.0
C3201 C 0.17278 0.23496 0.85807 0.0
C3202 C 0.15692 0.2278 0.87241 0.0
C3203 C 0.17932 0.21841 0.8441 0.0
C3204 C 0.1901 0.24376 0.86894 0.0
C3205 C 0.19211 0.26354 0.86473 0.0
C3206 C 0.20818 0.27439 0.87125 0.0
C3207 C 0.22279 0.26471 0.88198 0.0
C3208 C 0.22113 0.24446 0.8862 0.0
C3209 C 0.20439 0.23396 0.88002 0.0
H3210 H 0.26361 0.73212 0.35543 0.0
H3211 H 0.29583 0.70113 0.40081 0.0
H3212 H 0.28792 0.66952 0.38437 0.0
H3213 H 0.22588 0.69764 0.34564 0.0
H3214 H 0.2266 0.70133 0.31944 0.0
H3215 H 0.2334 0.72101 0.33575 0.0
H3216 H 0.26721 0.72397 0.31842 0.0
H3217 H 0.26049 0.70438 0.30197 0.0
H3218 H 0.28268 0.70259 0.31632 0.0
H3219 H 0.27547 0.64133 0.36272 0.0
H3220 H 0.26338 0.61953 0.33618 0.0
H3221 H 0.24341 0.67029 0.30343 0.0
C3222 C 0.26906 0.71879 0.36204 0.0
C3223 C 0.28027 0.71909 0.37948 0.0
C3224 C 0.28713 0.70119 0.38748 0.0
C3225 C 0.2827 0.68322 0.37826 0.0
C3226 C 0.27183 0.68357 0.36085 0.0
C3227 C 0.26546 0.70098 0.35268 0.0
C3228 C 0.25554 0.6978 0.33307 0.0
C3229 C 0.23408 0.70486 0.33352 0.0
C3230 C 0.26718 0.70777 0.31647 0.0
C3231 C 0.25678 0.67573 0.33161 0.0
C3232 C 0.266 0.66771 0.34786 0.0
C3233 C 0.26836 0.64749 0.34992 0.0
C3234 C 0.26134 0.63525 0.33487 0.0
C3235 C 0.25246 0.64333 0.31788 0.0
C3236 C 0.25017 0.6638 0.31629 0.0
H3237 H 0.72015 0.35467 0.33024 0.0
H3238 H 0.78365 0.35186 0.33016 0.0
H3239 H 0.78269 0.32806 0.3576 0.0
H3240 H 0.71377 0.34728 0.38516 0.0
H3241 H 0.69199 0.33269 0.38143 0.0
H3242 H 0.69783 0.35226 0.3646 0.0
H3243 H 0.69654 0.32785 0.33558 0.0
H3244 H 0.69058 0.30836 0.35233 0.0
H3245 H 0.71146 0.30599 0.33621 0.0
H3246 H 0.77467 0.29997 0.37937 0.0
H3247 H 0.76033 0.27072 0.39521 0.0
H3248 H 0.70182 0.29232 0.38275 0.0
C3249 C 0.73378 0.3492 0.33626 0.0
C3250 C 0.75195 0.35477 0.3281 0.0
C3251 C 0.76961 0.34774 0.33641 0.0
C3252 C 0.76918 0.33428 0.35199 0.0
C3253 C 0.75096 0.32845 0.35931 0.0
C3254 C 0.73357 0.33597 0.35197 0.0
C3255 C 0.71596 0.32594 0.36113 0.0
C3256 C 0.7042 0.34041 0.37384 0.0
C3257 C 0.70289 0.31645 0.34535 0.0
C3258 C 0.72609 0.31063 0.37367 0.0
C3259 C 0.74632 0.3126 0.37269 0.0
C3260 C 0.7589 0.29867 0.38082 0.0
C3261 C 0.75064 0.2821 0.38974 0.0
C3262 C 0.73004 0.27967 0.3906 0.0
C3263 C 0.7176 0.29435 0.38297 0.0
loop_
_geom_bond_atom_site_label_1
_geom_bond_atom_site_label_2
_geom_bond_distance
_geom_bond_site_symmetry_2
_ccdc_geom_bond_type
Co0 O1 2.216 . S
Co0 O2 2.091 . S
Co0 O4 2.004 . S
Co0 O10 2.021 . S
Co0 O12 2.137 . S
Co0 O13 2.244 . S
O1 Co0 2.216 . S
O1 C8 1.247 . S
O2 Co0 2.091 . S
O2 C8 1.261 . S
C3 O12 1.247 . S
C3 O13 1.272 . S
O4 Co0 2.004 . S
O4 C9 1.259 . S
Co5 O6 2.061 . S
Co5 O11 2.052 . S
Co5 O13 2.135 . S
O6 Co5 2.061 . S
O6 C9 1.235 . S
C7 O10 1.238 . S
C7 O11 1.241 . S
C8 O1 1.247 . S
C8 O2 1.261 . S
C9 O4 1.259 . S
C9 O6 1.235 . S
O10 Co0 2.021 . S
O10 C7 1.238 . S
O11 Co5 2.052 . S
O11 C7 1.241 . S
O12 Co0 2.137 . S
O12 C3 1.247 . S
O13 Co0 2.244 . S
O13 C3 1.272 . S
O13 Co5 2.135 . S
Co14 O15 2.216 . S
Co14 O16 2.091 . S
Co14 O18 2.004 . S
Co14 O24 2.021 . S
Co14 O26 2.137 . S
Co14 O27 2.244 . S
O15 Co14 2.216 . S
O15 C22 1.247 . S
O16 Co14 2.091 . S
O16 C22 1.261 . S
C17 O26 1.247 . S
C17 O27 1.272 . S
O18 Co14 2.004 . S
O18 C23 1.259 . S
Co19 O20 2.061 . S
Co19 O25 2.052 . S
Co19 O27 2.135 . S
O20 Co19 2.061 . S
O20 C23 1.235 . S
C21 O24 1.238 . S
C21 O25 1.241 . S
C22 O15 1.247 . S
C22 O16 1.261 . S
C23 O18 1.259 . S
C23 O20 1.235 . S
O24 Co14 2.021 . S
O24 C21 1.238 . S
O25 Co19 2.052 . S
O25 C21 1.241 . S
O26 Co14 2.137 . S
O26 C17 1.247 . S
O27 Co14 2.244 . S
O27 C17 1.272 . S
O27 Co19 2.135 . S
Co28 O29 2.216 . S
Co28 O30 2.091 . S
Co28 O32 2.004 . S
Co28 O38 2.021 . S
Co28 O40 2.137 . S
Co28 O41 2.244 . S
O29 Co28 2.216 . S
O29 C36 1.247 . S
O30 Co28 2.091 . S
O30 C36 1.261 . S
C31 O40 1.247 . S
C31 O41 1.272 . S
O32 Co28 2.004 . S
O32 C37 1.259 . S
Co33 O34 2.061 . S
Co33 O39 2.052 . S
Co33 O41 2.135 . S
O34 Co33 2.061 . S
O34 C37 1.235 . S
C35 O38 1.238 . S
C35 O39 1.241 . S
C36 O29 1.247 . S
C36 O30 1.261 . S
C37 O32 1.259 . S
C37 O34 1.235 . S
O38 Co28 2.021 . S
O38 C35 1.238 . S
O39 Co33 2.052 . S
O39 C35 1.241 . S
O40 Co28 2.137 . S
O40 C31 1.247 . S
O41 Co28 2.244 . S
O41 C31 1.272 . S
O41 Co33 2.135 . S
Co42 O43 2.216 . S
Co42 O44 2.091 . S
Co42 O46 2.004 . S
Co42 O52 2.021 . S
Co42 O54 2.137 . S
Co42 O55 2.244 . S
O43 Co42 2.216 . S
O43 C50 1.247 . S
O44 Co42 2.091 . S
O44 C50 1.261 . S
C45 O54 1.247 . S
C45 O55 1.272 . S
O46 Co42 2.004 . S
O46 C51 1.259 . S
Co47 O48 2.061 . S
Co47 O53 2.052 . S
Co47 O55 2.135 . S
O48 Co47 2.061 . S
O48 C51 1.235 . S
C49 O52 1.238 . S
C49 O53 1.241 . S
C50 O43 1.247 . S
C50 O44 1.261 . S
C51 O46 1.259 . S
C51 O48 1.235 . S
O52 Co42 2.021 . S
O52 C49 1.238 . S
O53 Co47 2.052 . S
O53 C49 1.241 . S
O54 Co42 2.137 . S
O54 C45 1.247 . S
O55 Co42 2.244 . S
O55 C45 1.272 . S
O55 Co47 2.135 . S
Co56 O57 2.216 . S
Co56 O58 2.091 . S
Co56 O60 2.004 . S
Co56 O66 2.021 . S
Co56 O68 2.137 . S
Co56 O69 2.244 . S
O57 Co56 2.216 . S
O57 C64 1.247 . S
O58 Co56 2.091 . S
O58 C64 1.261 . S
C59 O68 1.247 . S
C59 O69 1.272 . S
O60 Co56 2.004 . S
O60 C65 1.259 . S
Co61 O62 2.061 . S
Co61 O67 2.052 . S
Co61 O69 2.135 . S
O62 Co61 2.061 . S
O62 C65 1.235 . S
C63 O66 1.238 . S
C63 O67 1.241 . S
C64 O57 1.247 . S
C64 O58 1.261 . S
C65 O60 1.259 . S
C65 O62 1.235 . S
O66 Co56 2.021 . S
O66 C63 1.238 . S
O67 Co61 2.052 . S
O67 C63 1.241 . S
O68 Co56 2.137 . S
O68 C59 1.247 . S
O69 Co56 2.244 . S
O69 C59 1.272 . S
O69 Co61 2.135 . S
Co70 O71 2.216 . S
Co70 O72 2.091 . S
Co70 O74 2.004 . S
Co70 O80 2.021 . S
Co70 O82 2.137 . S
Co70 O83 2.244 . S
O71 Co70 2.216 . S
O71 C78 1.247 . S
O72 Co70 2.091 . S
O72 C78 1.261 . S
C73 O82 1.247 . S
C73 O83 1.272 . S
O74 Co70 2.004 . S
O74 C79 1.259 . S
Co75 O76 2.061 . S
Co75 O81 2.052 . S
Co75 O83 2.135 . S
O76 Co75 2.061 . S
O76 C79 1.235 . S
C77 O80 1.238 . S
C77 O81 1.241 . S
C78 O71 1.247 . S
C78 O72 1.261 . S
C79 O74 1.259 . S
C79 O76 1.235 . S
O80 Co70 2.021 . S
O80 C77 1.238 . S
O81 Co75 2.052 . S
O81 C77 1.241 . S
O82 Co70 2.137 . S
O82 C73 1.247 . S
O83 Co70 2.244 . S
O83 C73 1.272 . S
O83 Co75 2.135 . S
Co84 O85 2.216 . S
Co84 O86 2.091 . S
Co84 O88 2.004 . S
Co84 O94 2.021 . S
Co84 O96 2.137 . S
Co84 O97 2.244 . S
O85 Co84 2.216 . S
O85 C92 1.247 . S
O86 Co84 2.091 . S
O86 C92 1.261 . S
C87 O96 1.247 . S
C87 O97 1.272 . S
O88 Co84 2.004 . S
O88 C93 1.259 . S
Co89 O90 2.061 . S
Co89 O95 2.052 . S
Co89 O97 2.135 . S
O90 Co89 2.061 . S
O90 C93 1.235 . S
C91 O94 1.238 . S
C91 O95 1.241 . S
C92 O85 1.247 . S
C92 O86 1.261 . S
C93 O88 1.259 . S
C93 O90 1.235 . S
O94 Co84 2.021 . S
O94 C91 1.238 . S
O95 Co89 2.052 . S
O95 C91 1.241 . S
O96 Co84 2.137 . S
O96 C87 1.247 . S
O97 Co84 2.244 . S
O97 C87 1.272 . S
O97 Co89 2.135 . S
Co98 O99 2.216 . S
Co98 O100 2.091 . S
Co98 O102 2.004 . S
Co98 O108 2.021 . S
Co98 O110 2.137 . S
Co98 O111 2.244 . S
O99 Co98 2.216 . S
O99 C106 1.247 . S
O100 Co98 2.091 . S
O100 C106 1.261 . S
C101 O110 1.247 . S
C101 O111 1.272 . S
O102 Co98 2.004 . S
O102 C107 1.259 . S
Co103 O104 2.061 . S
Co103 O109 2.052 . S
Co103 O111 2.135 . S
O104 Co103 2.061 . S
O104 C107 1.235 . S
C105 O108 1.238 . S
C105 O109 1.241 . S
C106 O99 1.247 . S
C106 O100 1.261 . S
C107 O102 1.259 . S
C107 O104 1.235 . S
O108 Co98 2.021 . S
O108 C105 1.238 . S
O109 Co103 2.052 . S
O109 C105 1.241 . S
O110 Co98 2.137 . S
O110 C101 1.247 . S
O111 Co98 2.244 . S
O111 C101 1.272 . S
O111 Co103 2.135 . S
Co112 O113 2.216 . S
Co112 O114 2.091 . S
Co112 O116 2.004 . S
Co112 O122 2.021 . S
Co112 O124 2.137 . S
Co112 O125 2.244 . S
O113 Co112 2.216 . S
O113 C120 1.247 . S
O114 Co112 2.091 . S
O114 C120 1.261 . S
C115 O124 1.247 . S
C115 O125 1.272 . S
O116 Co112 2.004 . S
O116 C121 1.259 . S
Co117 O118 2.061 . S
Co117 O123 2.052 . S
Co117 O125 2.135 . S
O118 Co117 2.061 . S
O118 C121 1.235 . S
C119 O122 1.238 . S
C119 O123 1.241 . S
C120 O113 1.247 . S
C120 O114 1.261 . S
C121 O116 1.259 . S
C121 O118 1.235 . S
O122 Co112 2.021 . S
O122 C119 1.238 . S
O123 Co117 2.052 . S
O123 C119 1.241 . S
O124 Co112 2.137 . S
O124 C115 1.247 . S
O125 Co112 2.244 . S
O125 C115 1.272 . S
O125 Co117 2.135 . S
Co126 O127 2.216 . S
Co126 O128 2.091 . S
Co126 O130 2.004 . S
Co126 O136 2.021 . S
Co126 O138 2.137 . S
Co126 O139 2.244 . S
O127 Co126 2.216 . S
O127 C134 1.247 . S
O128 Co126 2.091 . S
O128 C134 1.261 . S
C129 O138 1.247 . S
C129 O139 1.272 . S
O130 Co126 2.004 . S
O130 C135 1.259 . S
Co131 O132 2.061 . S
Co131 O137 2.052 . S
Co131 O139 2.135 . S
O132 Co131 2.061 . S
O132 C135 1.235 . S
C133 O136 1.238 . S
C133 O137 1.241 . S
C134 O127 1.247 . S
C134 O128 1.261 . S
C135 O130 1.259 . S
C135 O132 1.235 . S
O136 Co126 2.021 . S
O136 C133 1.238 . S
O137 Co131 2.052 . S
O137 C133 1.241 . S
O138 Co126 2.137 . S
O138 C129 1.247 . S
O139 Co126 2.244 . S
O139 C129 1.272 . S
O139 Co131 2.135 . S
Co140 O141 2.216 . S
Co140 O142 2.091 . S
Co140 O144 2.004 . S
Co140 O150 2.021 . S
Co140 O152 2.137 . S
Co140 O153 2.244 . S
O141 Co140 2.216 . S
O141 C148 1.247 . S
O142 Co140 2.091 . S
O142 C148 1.261 . S
C143 O152 1.247 . S
C143 O153 1.272 . S
O144 Co140 2.004 . S
O144 C149 1.259 . S
Co145 O146 2.061 . S
Co145 O151 2.052 . S
Co145 O153 2.135 . S
O146 Co145 2.061 . S
O146 C149 1.235 . S
C147 O150 1.238 . S
C147 O151 1.241 . S
C148 O141 1.247 . S
C148 O142 1.261 . S
C149 O144 1.259 . S
C149 O146 1.235 . S
O150 Co140 2.021 . S
O150 C147 1.238 . S
O151 Co145 2.052 . S
O151 C147 1.241 . S
O152 Co140 2.137 . S
O152 C143 1.247 . S
O153 Co140 2.244 . S
O153 C143 1.272 . S
O153 Co145 2.135 . S
Co154 O155 2.216 . S
Co154 O156 2.091 . S
Co154 O158 2.004 . S
Co154 O164 2.021 . S
Co154 O166 2.137 . S
Co154 O167 2.244 . S
O155 Co154 2.216 . S
O155 C162 1.247 . S
O156 Co154 2.091 . S
O156 C162 1.261 . S
C157 O166 1.247 . S
C157 O167 1.272 . S
O158 Co154 2.004 . S
O158 C163 1.259 . S
Co159 O160 2.061 . S
Co159 O165 2.052 . S
Co159 O167 2.135 . S
O160 Co159 2.061 . S
O160 C163 1.235 . S
C161 O164 1.238 . S
C161 O165 1.241 . S
C162 O155 1.247 . S
C162 O156 1.261 . S
C163 O158 1.259 . S
C163 O160 1.235 . S
O164 Co154 2.021 . S
O164 C161 1.238 . S
O165 Co159 2.052 . S
O165 C161 1.241 . S
O166 Co154 2.137 . S
O166 C157 1.247 . S
O167 Co154 2.244 . S
O167 C157 1.272 . S
O167 Co159 2.135 . S
Co168 O169 2.216 . S
Co168 O170 2.091 . S
Co168 O172 2.004 . S
Co168 O178 2.021 . S
Co168 O180 2.137 . S
Co168 O181 2.244 . S
O169 Co168 2.216 . S
O169 C176 1.247 . S
O170 Co168 2.091 . S
O170 C176 1.261 . S
C171 O180 1.247 . S
C171 O181 1.272 . S
O172 Co168 2.004 . S
O172 C177 1.259 . S
Co173 O174 2.061 . S
Co173 O179 2.052 . S
Co173 O181 2.135 . S
O174 Co173 2.061 . S
O174 C177 1.235 . S
C175 O178 1.238 . S
C175 O179 1.241 . S
C176 O169 1.247 . S
C176 O170 1.261 . S
C177 O172 1.259 . S
C177 O174 1.235 . S
O178 Co168 2.021 . S
O178 C175 1.238 . S
O179 Co173 2.052 . S
O179 C175 1.241 . S
O180 Co168 2.137 . S
O180 C171 1.247 . S
O181 Co168 2.244 . S
O181 C171 1.272 . S
O181 Co173 2.135 . S
Co182 O183 2.216 . S
Co182 O184 2.091 . S
Co182 O186 2.004 . S
Co182 O192 2.021 . S
Co182 O194 2.137 . S
Co182 O195 2.244 . S
O183 Co182 2.216 . S
O183 C190 1.247 . S
O184 Co182 2.091 . S
O184 C190 1.261 . S
C185 O194 1.247 . S
C185 O195 1.272 . S
O186 Co182 2.004 . S
O186 C191 1.259 . S
Co187 O188 2.061 . S
Co187 O193 2.052 . S
Co187 O195 2.135 . S
O188 Co187 2.061 . S
O188 C191 1.235 . S
C189 O192 1.238 . S
C189 O193 1.241 . S
C190 O183 1.247 . S
C190 O184 1.261 . S
C191 O186 1.259 . S
C191 O188 1.235 . S
O192 Co182 2.021 . S
O192 C189 1.238 . S
O193 Co187 2.052 . S
O193 C189 1.241 . S
O194 Co182 2.137 . S
O194 C185 1.247 . S
O195 Co182 2.244 . S
O195 C185 1.272 . S
O195 Co187 2.135 . S
Co196 O197 2.216 . S
Co196 O198 2.091 . S
Co196 O200 2.004 . S
Co196 O206 2.021 . S
Co196 O208 2.137 . S
Co196 O209 2.244 . S
O197 Co196 2.216 . S
O197 C204 1.247 . S
O198 Co196 2.091 . S
O198 C204 1.261 . S
C199 O208 1.247 . S
C199 O209 1.272 . S
O200 Co196 2.004 . S
O200 C205 1.259 . S
Co201 O202 2.061 . S
Co201 O207 2.052 . S
Co201 O209 2.135 . S
O202 Co201 2.061 . S
O202 C205 1.235 . S
C203 O206 1.238 . S
C203 O207 1.241 . S
C204 O197 1.247 . S
C204 O198 1.261 . S
C205 O200 1.259 . S
C205 O202 1.235 . S
O206 Co196 2.021 . S
O206 C203 1.238 . S
O207 Co201 2.052 . S
O207 C203 1.241 . S
O208 Co196 2.137 . S
O208 C199 1.247 . S
O209 Co196 2.244 . S
O209 C199 1.272 . S
O209 Co201 2.135 . S
Co210 O211 2.216 . S
Co210 O212 2.091 . S
Co210 O214 2.004 . S
Co210 O220 2.021 . S
Co210 O222 2.137 . S
Co210 O223 2.244 . S
O211 Co210 2.216 . S
O211 C218 1.247 . S
O212 Co210 2.091 . S
O212 C218 1.261 . S
C213 O222 1.247 . S
C213 O223 1.272 . S
O214 Co210 2.004 . S
O214 C219 1.259 . S
Co215 O216 2.061 . S
Co215 O221 2.052 . S
Co215 O223 2.135 . S
O216 Co215 2.061 . S
O216 C219 1.235 . S
C217 O220 1.238 . S
C217 O221 1.241 . S
C218 O211 1.247 . S
C218 O212 1.261 . S
C219 O214 1.259 . S
C219 O216 1.235 . S
O220 Co210 2.021 . S
O220 C217 1.238 . S
O221 Co215 2.052 . S
O221 C217 1.241 . S
O222 Co210 2.137 . S
O222 C213 1.247 . S
O223 Co210 2.244 . S
O223 C213 1.272 . S
O223 Co215 2.135 . S
Co224 O225 2.216 . S
Co224 O226 2.091 . S
Co224 O228 2.004 . S
Co224 O234 2.021 . S
Co224 O236 2.137 . S
Co224 O237 2.244 . S
O225 Co224 2.216 . S
O225 C232 1.247 . S
O226 Co224 2.091 . S
O226 C232 1.261 . S
C227 O236 1.247 . S
C227 O237 1.272 . S
O228 Co224 2.004 . S
O228 C233 1.259 . S
Co229 O230 2.061 . S
Co229 O235 2.052 . S
Co229 O237 2.135 . S
O230 Co229 2.061 . S
O230 C233 1.235 . S
C231 O234 1.238 . S
C231 O235 1.241 . S
C232 O225 1.247 . S
C232 O226 1.261 . S
C233 O228 1.259 . S
C233 O230 1.235 . S
O234 Co224 2.021 . S
O234 C231 1.238 . S
O235 Co229 2.052 . S
O235 C231 1.241 . S
O236 Co224 2.137 . S
O236 C227 1.247 . S
O237 Co224 2.244 . S
O237 C227 1.272 . S
O237 Co229 2.135 . S
Co238 O239 2.216 . S
Co238 O240 2.091 . S
Co238 O242 2.004 . S
Co238 O248 2.021 . S
Co238 O250 2.137 . S
Co238 O251 2.244 . S
O239 Co238 2.216 . S
O239 C246 1.247 . S
O240 Co238 2.091 . S
O240 C246 1.261 . S
C241 O250 1.247 . S
C241 O251 1.272 . S
O242 Co238 2.004 . S
O242 C247 1.259 . S
Co243 O244 2.061 . S
Co243 O249 2.052 . S
Co243 O251 2.135 . S
O244 Co243 2.061 . S
O244 C247 1.235 . S
C245 O248 1.238 . S
C245 O249 1.241 . S
C246 O239 1.247 . S
C246 O240 1.261 . S
C247 O242 1.259 . S
C247 O244 1.235 . S
O248 Co238 2.021 . S
O248 C245 1.238 . S
O249 Co243 2.052 . S
O249 C245 1.241 . S
O250 Co238 2.137 . S
O250 C241 1.247 . S
O251 Co238 2.244 . S
O251 C241 1.272 . S
O251 Co243 2.135 . S
Co252 O253 2.216 . S
Co252 O254 2.091 . S
Co252 O256 2.004 . S
Co252 O262 2.021 . S
Co252 O264 2.137 . S
Co252 O265 2.244 . S
O253 Co252 2.216 . S
O253 C260 1.247 . S
O254 Co252 2.091 . S
O254 C260 1.261 . S
C255 O264 1.247 . S
C255 O265 1.272 . S
O256 Co252 2.004 . S
O256 C261 1.259 . S
Co257 O258 2.061 . S
Co257 O263 2.052 . S
Co257 O265 2.135 . S
O258 Co257 2.061 . S
O258 C261 1.235 . S
C259 O262 1.238 . S
C259 O263 1.241 . S
C260 O253 1.247 . S
C260 O254 1.261 . S
C261 O256 1.259 . S
C261 O258 1.235 . S
O262 Co252 2.021 . S
O262 C259 1.238 . S
O263 Co257 2.052 . S
O263 C259 1.241 . S
O264 Co252 2.137 . S
O264 C255 1.247 . S
O265 Co252 2.244 . S
O265 C255 1.272 . S
O265 Co257 2.135 . S
Co266 O267 2.216 . S
Co266 O268 2.091 . S
Co266 O270 2.004 . S
Co266 O276 2.021 . S
Co266 O278 2.137 . S
Co266 O279 2.244 . S
O267 Co266 2.216 . S
O267 C274 1.247 . S
O268 Co266 2.091 . S
O268 C274 1.261 . S
C269 O278 1.247 . S
C269 O279 1.272 . S
O270 Co266 2.004 . S
O270 C275 1.259 . S
Co271 O272 2.061 . S
Co271 O277 2.052 . S
Co271 O279 2.135 . S
O272 Co271 2.061 . S
O272 C275 1.235 . S
C273 O276 1.238 . S
C273 O277 1.241 . S
C274 O267 1.247 . S
C274 O268 1.261 . S
C275 O270 1.259 . S
C275 O272 1.235 . S
O276 Co266 2.021 . S
O276 C273 1.238 . S
O277 Co271 2.052 . S
O277 C273 1.241 . S
O278 Co266 2.137 . S
O278 C269 1.247 . S
O279 Co266 2.244 . S
O279 C269 1.272 . S
O279 Co271 2.135 . S
Co280 O281 2.216 . S
Co280 O282 2.091 . S
Co280 O284 2.004 . S
Co280 O290 2.021 . S
Co280 O292 2.137 . S
Co280 O293 2.244 . S
O281 Co280 2.216 . S
O281 C288 1.247 . S
O282 Co280 2.091 . S
O282 C288 1.261 . S
C283 O292 1.247 . S
C283 O293 1.272 . S
O284 Co280 2.004 . S
O284 C289 1.259 . S
Co285 O286 2.061 . S
Co285 O291 2.052 . S
Co285 O293 2.135 . S
O286 Co285 2.061 . S
O286 C289 1.235 . S
C287 O290 1.238 . S
C287 O291 1.241 . S
C288 O281 1.247 . S
C288 O282 1.261 . S
C289 O284 1.259 . S
C289 O286 1.235 . S
O290 Co280 2.021 . S
O290 C287 1.238 . S
O291 Co285 2.052 . S
O291 C287 1.241 . S
O292 Co280 2.137 . S
O292 C283 1.247 . S
O293 Co280 2.244 . S
O293 C283 1.272 . S
O293 Co285 2.135 . S
Co294 O295 2.216 . S
Co294 O296 2.091 . S
Co294 O298 2.004 . S
Co294 O304 2.021 . S
Co294 O306 2.137 . S
Co294 O307 2.244 . S
O295 Co294 2.216 . S
O295 C302 1.247 . S
O296 Co294 2.091 . S
O296 C302 1.261 . S
C297 O306 1.247 . S
C297 O307 1.272 . S
O298 Co294 2.004 . S
O298 C303 1.259 . S
Co299 O300 2.061 . S
Co299 O305 2.052 . S
Co299 O307 2.135 . S
O300 Co299 2.061 . S
O300 C303 1.235 . S
C301 O304 1.238 . S
C301 O305 1.241 . S
C302 O295 1.247 . S
C302 O296 1.261 . S
C303 O298 1.259 . S
C303 O300 1.235 . S
O304 Co294 2.021 . S
O304 C301 1.238 . S
O305 Co299 2.052 . S
O305 C301 1.241 . S
O306 Co294 2.137 . S
O306 C297 1.247 . S
O307 Co294 2.244 . S
O307 C297 1.272 . S
O307 Co299 2.135 . S
Co308 O309 2.216 . S
Co308 O310 2.091 . S
Co308 O312 2.004 . S
Co308 O318 2.021 . S
Co308 O320 2.137 . S
Co308 O321 2.244 . S
O309 Co308 2.216 . S
O309 C316 1.247 . S
O310 Co308 2.091 . S
O310 C316 1.261 . S
C311 O320 1.247 . S
C311 O321 1.272 . S
O312 Co308 2.004 . S
O312 C317 1.259 . S
Co313 O314 2.061 . S
Co313 O319 2.052 . S
Co313 O321 2.135 . S
O314 Co313 2.061 . S
O314 C317 1.235 . S
C315 O318 1.238 . S
C315 O319 1.241 . S
C316 O309 1.247 . S
C316 O310 1.261 . S
C317 O312 1.259 . S
C317 O314 1.235 . S
O318 Co308 2.021 . S
O318 C315 1.238 . S
O319 Co313 2.052 . S
O319 C315 1.241 . S
O320 Co308 2.137 . S
O320 C311 1.247 . S
O321 Co308 2.244 . S
O321 C311 1.272 . S
O321 Co313 2.135 . S
Co322 O323 2.216 . S
Co322 O324 2.091 . S
Co322 O326 2.004 . S
Co322 O332 2.021 . S
Co322 O334 2.137 . S
Co322 O335 2.244 . S
O323 Co322 2.216 . S
O323 C330 1.247 . S
O324 Co322 2.091 . S
O324 C330 1.261 . S
C325 O334 1.247 . S
C325 O335 1.272 . S
O326 Co322 2.004 . S
O326 C331 1.259 . S
Co327 O328 2.061 . S
Co327 O333 2.052 . S
Co327 O335 2.135 . S
O328 Co327 2.061 . S
O328 C331 1.235 . S
C329 O332 1.238 . S
C329 O333 1.241 . S
C330 O323 1.247 . S
C330 O324 1.261 . S
C331 O326 1.259 . S
C331 O328 1.235 . S
O332 Co322 2.021 . S
O332 C329 1.238 . S
O333 Co327 2.052 . S
O333 C329 1.241 . S
O334 Co322 2.137 . S
O334 C325 1.247 . S
O335 Co322 2.244 . S
O335 C325 1.272 . S
O335 Co327 2.135 . S
Co336 O337 2.216 . S
Co336 O338 2.091 . S
Co336 O340 2.004 . S
Co336 O346 2.021 . S
Co336 O348 2.137 . S
Co336 O349 2.244 . S
O337 Co336 2.216 . S
O337 C344 1.247 . S
O338 Co336 2.091 . S
O338 C344 1.261 . S
C339 O348 1.247 . S
C339 O349 1.272 . S
O340 Co336 2.004 . S
O340 C345 1.259 . S
Co341 O342 2.061 . S
Co341 O347 2.052 . S
Co341 O349 2.135 . S
O342 Co341 2.061 . S
O342 C345 1.235 . S
C343 O346 1.238 . S
C343 O347 1.241 . S
C344 O337 1.247 . S
C344 O338 1.261 . S
C345 O340 1.259 . S
C345 O342 1.235 . S
O346 Co336 2.021 . S
O346 C343 1.238 . S
O347 Co341 2.052 . S
O347 C343 1.241 . S
O348 Co336 2.137 . S
O348 C339 1.247 . S
O349 Co336 2.244 . S
O349 C339 1.272 . S
O349 Co341 2.135 . S
Co350 O351 2.216 . S
Co350 O352 2.091 . S
Co350 O354 2.004 . S
Co350 O360 2.021 . S
Co350 O362 2.137 . S
Co350 O363 2.244 . S
O351 Co350 2.216 . S
O351 C358 1.247 . S
O352 Co350 2.091 . S
O352 C358 1.261 . S
C353 O362 1.247 . S
C353 O363 1.272 . S
O354 Co350 2.004 . S
O354 C359 1.259 . S
Co355 O356 2.061 . S
Co355 O361 2.052 . S
Co355 O363 2.135 . S
O356 Co355 2.061 . S
O356 C359 1.235 . S
C357 O360 1.238 . S
C357 O361 1.241 . S
C358 O351 1.247 . S
C358 O352 1.261 . S
C359 O354 1.259 . S
C359 O356 1.235 . S
O360 Co350 2.021 . S
O360 C357 1.238 . S
O361 Co355 2.052 . S
O361 C357 1.241 . S
O362 Co350 2.137 . S
O362 C353 1.247 . S
O363 Co350 2.244 . S
O363 C353 1.272 . S
O363 Co355 2.135 . S
Co364 O365 2.216 . S
Co364 O366 2.091 . S
Co364 O368 2.004 . S
Co364 O374 2.021 . S
Co364 O376 2.137 . S
Co364 O377 2.244 . S
O365 Co364 2.216 . S
O365 C372 1.247 . S
O366 Co364 2.091 . S
O366 C372 1.261 . S
C367 O376 1.247 . S
C367 O377 1.272 . S
O368 Co364 2.004 . S
O368 C373 1.259 . S
Co369 O370 2.061 . S
Co369 O375 2.052 . S
Co369 O377 2.135 . S
O370 Co369 2.061 . S
O370 C373 1.235 . S
C371 O374 1.238 . S
C371 O375 1.241 . S
C372 O365 1.247 . S
C372 O366 1.261 . S
C373 O368 1.259 . S
C373 O370 1.235 . S
O374 Co364 2.021 . S
O374 C371 1.238 . S
O375 Co369 2.052 . S
O375 C371 1.241 . S
O376 Co364 2.137 . S
O376 C367 1.247 . S
O377 Co364 2.244 . S
O377 C367 1.272 . S
O377 Co369 2.135 . S
Co378 O379 2.216 . S
Co378 O380 2.091 . S
Co378 O382 2.004 . S
Co378 O388 2.021 . S
Co378 O390 2.137 . S
Co378 O391 2.244 . S
O379 Co378 2.216 . S
O379 C386 1.247 . S
O380 Co378 2.091 . S
O380 C386 1.261 . S
C381 O390 1.247 . S
C381 O391 1.272 . S
O382 Co378 2.004 . S
O382 C387 1.259 . S
Co383 O384 2.061 . S
Co383 O389 2.052 . S
Co383 O391 2.135 . S
O384 Co383 2.061 . S
O384 C387 1.235 . S
C385 O388 1.238 . S
C385 O389 1.241 . S
C386 O379 1.247 . S
C386 O380 1.261 . S
C387 O382 1.259 . S
C387 O384 1.235 . S
O388 Co378 2.021 . S
O388 C385 1.238 . S
O389 Co383 2.052 . S
O389 C385 1.241 . S
O390 Co378 2.137 . S
O390 C381 1.247 . S
O391 Co378 2.244 . S
O391 C381 1.272 . S
O391 Co383 2.135 . S
Co392 O393 2.216 . S
Co392 O394 2.091 . S
Co392 O396 2.004 . S
Co392 O402 2.021 . S
Co392 O404 2.137 . S
Co392 O405 2.244 . S
O393 Co392 2.216 . S
O393 C400 1.247 . S
O394 Co392 2.091 . S
O394 C400 1.261 . S
C395 O404 1.247 . S
C395 O405 1.272 . S
O396 Co392 2.004 . S
O396 C401 1.259 . S
Co397 O398 2.061 . S
Co397 O403 2.052 . S
Co397 O405 2.135 . S
O398 Co397 2.061 . S
O398 C401 1.235 . S
C399 O402 1.238 . S
C399 O403 1.241 . S
C400 O393 1.247 . S
C400 O394 1.261 . S
C401 O396 1.259 . S
C401 O398 1.235 . S
O402 Co392 2.021 . S
O402 C399 1.238 . S
O403 Co397 2.052 . S
O403 C399 1.241 . S
O404 Co392 2.137 . S
O404 C395 1.247 . S
O405 Co392 2.244 . S
O405 C395 1.272 . S
O405 Co397 2.135 . S
Co406 O407 2.216 . S
Co406 O408 2.091 . S
Co406 O410 2.004 . S
Co406 O416 2.021 . S
Co406 O418 2.137 . S
Co406 O419 2.244 . S
O407 Co406 2.216 . S
O407 C414 1.247 . S
O408 Co406 2.091 . S
O408 C414 1.261 . S
C409 O418 1.247 . S
C409 O419 1.272 . S
O410 Co406 2.004 . S
O410 C415 1.259 . S
Co411 O412 2.061 . S
Co411 O417 2.052 . S
Co411 O419 2.135 . S
O412 Co411 2.061 . S
O412 C415 1.235 . S
C413 O416 1.238 . S
C413 O417 1.241 . S
C414 O407 1.247 . S
C414 O408 1.261 . S
C415 O410 1.259 . S
C415 O412 1.235 . S
O416 Co406 2.021 . S
O416 C413 1.238 . S
O417 Co411 2.052 . S
O417 C413 1.241 . S
O418 Co406 2.137 . S
O418 C409 1.247 . S
O419 Co406 2.244 . S
O419 C409 1.272 . S
O419 Co411 2.135 . S
Co420 O421 2.216 . S
Co420 O422 2.091 . S
Co420 O424 2.004 . S
Co420 O430 2.021 . S
Co420 O432 2.137 . S
Co420 O433 2.244 . S
O421 Co420 2.216 . S
O421 C428 1.247 . S
O422 Co420 2.091 . S
O422 C428 1.261 . S
C423 O432 1.247 . S
C423 O433 1.272 . S
O424 Co420 2.004 . S
O424 C429 1.259 . S
Co425 O426 2.061 . S
Co425 O431 2.052 . S
Co425 O433 2.135 . S
O426 Co425 2.061 . S
O426 C429 1.235 . S
C427 O430 1.238 . S
C427 O431 1.241 . S
C428 O421 1.247 . S
C428 O422 1.261 . S
C429 O424 1.259 . S
C429 O426 1.235 . S
O430 Co420 2.021 . S
O430 C427 1.238 . S
O431 Co425 2.052 . S
O431 C427 1.241 . S
O432 Co420 2.137 . S
O432 C423 1.247 . S
O433 Co420 2.244 . S
O433 C423 1.272 . S
O433 Co425 2.135 . S
Co434 O435 2.216 . S
Co434 O436 2.091 . S
Co434 O438 2.004 . S
Co434 O444 2.021 . S
Co434 O446 2.137 . S
Co434 O447 2.244 . S
O435 Co434 2.216 . S
O435 C442 1.247 . S
O436 Co434 2.091 . S
O436 C442 1.261 . S
C437 O446 1.247 . S
C437 O447 1.272 . S
O438 Co434 2.004 . S
O438 C443 1.259 . S
Co439 O440 2.061 . S
Co439 O445 2.052 . S
Co439 O447 2.135 . S
O440 Co439 2.061 . S
O440 C443 1.235 . S
C441 O444 1.238 . S
C441 O445 1.241 . S
C442 O435 1.247 . S
C442 O436 1.261 . S
C443 O438 1.259 . S
C443 O440 1.235 . S
O444 Co434 2.021 . S
O444 C441 1.238 . S
O445 Co439 2.052 . S
O445 C441 1.241 . S
O446 Co434 2.137 . S
O446 C437 1.247 . S
O447 Co434 2.244 . S
O447 C437 1.272 . S
O447 Co439 2.135 . S
Co448 O449 2.216 . S
Co448 O450 2.091 . S
Co448 O452 2.004 . S
Co448 O458 2.021 . S
Co448 O460 2.137 . S
Co448 O461 2.244 . S
O449 Co448 2.216 . S
O449 C456 1.247 . S
O450 Co448 2.091 . S
O450 C456 1.261 . S
C451 O460 1.247 . S
C451 O461 1.272 . S
O452 Co448 2.004 . S
O452 C457 1.259 . S
Co453 O454 2.061 . S
Co453 O459 2.052 . S
Co453 O461 2.135 . S
O454 Co453 2.061 . S
O454 C457 1.235 . S
C455 O458 1.238 . S
C455 O459 1.241 . S
C456 O449 1.247 . S
C456 O450 1.261 . S
C457 O452 1.259 . S
C457 O454 1.235 . S
O458 Co448 2.021 . S
O458 C455 1.238 . S
O459 Co453 2.052 . S
O459 C455 1.241 . S
O460 Co448 2.137 . S
O460 C451 1.247 . S
O461 Co448 2.244 . S
O461 C451 1.272 . S
O461 Co453 2.135 . S
Co462 O463 2.216 . S
Co462 O464 2.091 . S
Co462 O466 2.004 . S
Co462 O472 2.021 . S
Co462 O474 2.137 . S
Co462 O475 2.244 . S
O463 Co462 2.216 . S
O463 C470 1.247 . S
O464 Co462 2.091 . S
O464 C470 1.261 . S
C465 O474 1.247 . S
C465 O475 1.272 . S
O466 Co462 2.004 . S
O466 C471 1.259 . S
Co467 O468 2.061 . S
Co467 O473 2.052 . S
Co467 O475 2.135 . S
O468 Co467 2.061 . S
O468 C471 1.235 . S
C469 O472 1.238 . S
C469 O473 1.241 . S
C470 O463 1.247 . S
C470 O464 1.261 . S
C471 O466 1.259 . S
C471 O468 1.235 . S
O472 Co462 2.021 . S
O472 C469 1.238 . S
O473 Co467 2.052 . S
O473 C469 1.241 . S
O474 Co462 2.137 . S
O474 C465 1.247 . S
O475 Co462 2.244 . S
O475 C465 1.272 . S
O475 Co467 2.135 . S
Co476 O477 2.216 . S
Co476 O478 2.091 . S
Co476 O480 2.004 . S
Co476 O486 2.021 . S
Co476 O488 2.137 . S
Co476 O489 2.244 . S
O477 Co476 2.216 . S
O477 C484 1.247 . S
O478 Co476 2.091 . S
O478 C484 1.261 . S
C479 O488 1.247 . S
C479 O489 1.272 . S
O480 Co476 2.004 . S
O480 C485 1.259 . S
Co481 O482 2.061 . S
Co481 O487 2.052 . S
Co481 O489 2.135 . S
O482 Co481 2.061 . S
O482 C485 1.235 . S
C483 O486 1.238 . S
C483 O487 1.241 . S
C484 O477 1.247 . S
C484 O478 1.261 . S
C485 O480 1.259 . S
C485 O482 1.235 . S
O486 Co476 2.021 . S
O486 C483 1.238 . S
O487 Co481 2.052 . S
O487 C483 1.241 . S
O488 Co476 2.137 . S
O488 C479 1.247 . S
O489 Co476 2.244 . S
O489 C479 1.272 . S
O489 Co481 2.135 . S
Co490 O491 2.216 . S
Co490 O492 2.091 . S
Co490 O494 2.004 . S
Co490 O500 2.021 . S
Co490 O502 2.137 . S
Co490 O503 2.244 . S
O491 Co490 2.216 . S
O491 C498 1.247 . S
O492 Co490 2.091 . S
O492 C498 1.261 . S
C493 O502 1.247 . S
C493 O503 1.272 . S
O494 Co490 2.004 . S
O494 C499 1.259 . S
Co495 O496 2.061 . S
Co495 O501 2.052 . S
Co495 O503 2.135 . S
O496 Co495 2.061 . S
O496 C499 1.235 . S
C497 O500 1.238 . S
C497 O501 1.241 . S
C498 O491 1.247 . S
C498 O492 1.261 . S
C499 O494 1.259 . S
C499 O496 1.235 . S
O500 Co490 2.021 . S
O500 C497 1.238 . S
O501 Co495 2.052 . S
O501 C497 1.241 . S
O502 Co490 2.137 . S
O502 C493 1.247 . S
O503 Co490 2.244 . S
O503 C493 1.272 . S
O503 Co495 2.135 . S
Co504 O505 2.216 . S
Co504 O506 2.091 . S
Co504 O508 2.004 . S
Co504 O514 2.021 . S
Co504 O516 2.137 . S
Co504 O517 2.244 . S
O505 Co504 2.216 . S
O505 C512 1.247 . S
O506 Co504 2.091 . S
O506 C512 1.261 . S
C507 O516 1.247 . S
C507 O517 1.272 . S
O508 Co504 2.004 . S
O508 C513 1.259 . S
Co509 O510 2.061 . S
Co509 O515 2.052 . S
Co509 O517 2.135 . S
O510 Co509 2.061 . S
O510 C513 1.235 . S
C511 O514 1.238 . S
C511 O515 1.241 . S
C512 O505 1.247 . S
C512 O506 1.261 . S
C513 O508 1.259 . S
C513 O510 1.235 . S
O514 Co504 2.021 . S
O514 C511 1.238 . S
O515 Co509 2.052 . S
O515 C511 1.241 . S
O516 Co504 2.137 . S
O516 C507 1.247 . S
O517 Co504 2.244 . S
O517 C507 1.272 . S
O517 Co509 2.135 . S
Co518 O519 2.216 . S
Co518 O520 2.091 . S
Co518 O522 2.004 . S
Co518 O528 2.021 . S
Co518 O530 2.137 . S
Co518 O531 2.244 . S
O519 Co518 2.216 . S
O519 C526 1.247 . S
O520 Co518 2.091 . S
O520 C526 1.261 . S
C521 O530 1.247 . S
C521 O531 1.272 . S
O522 Co518 2.004 . S
O522 C527 1.259 . S
Co523 O524 2.061 . S
Co523 O529 2.052 . S
Co523 O531 2.135 . S
O524 Co523 2.061 . S
O524 C527 1.235 . S
C525 O528 1.238 . S
C525 O529 1.241 . S
C526 O519 1.247 . S
C526 O520 1.261 . S
C527 O522 1.259 . S
C527 O524 1.235 . S
O528 Co518 2.021 . S
O528 C525 1.238 . S
O529 Co523 2.052 . S
O529 C525 1.241 . S
O530 Co518 2.137 . S
O530 C521 1.247 . S
O531 Co518 2.244 . S
O531 C521 1.272 . S
O531 Co523 2.135 . S
Co532 O533 2.216 . S
Co532 O534 2.091 . S
Co532 O536 2.004 . S
Co532 O542 2.021 . S
Co532 O544 2.137 . S
Co532 O545 2.244 . S
O533 Co532 2.216 . S
O533 C540 1.247 . S
O534 Co532 2.091 . S
O534 C540 1.261 . S
C535 O544 1.247 . S
C535 O545 1.272 . S
O536 Co532 2.004 . S
O536 C541 1.259 . S
Co537 O538 2.061 . S
Co537 O543 2.052 . S
Co537 O545 2.135 . S
O538 Co537 2.061 . S
O538 C541 1.235 . S
C539 O542 1.238 . S
C539 O543 1.241 . S
C540 O533 1.247 . S
C540 O534 1.261 . S
C541 O536 1.259 . S
C541 O538 1.235 . S
O542 Co532 2.021 . S
O542 C539 1.238 . S
O543 Co537 2.052 . S
O543 C539 1.241 . S
O544 Co532 2.137 . S
O544 C535 1.247 . S
O545 Co532 2.244 . S
O545 C535 1.272 . S
O545 Co537 2.135 . S
Co546 O547 2.216 . S
Co546 O548 2.091 . S
Co546 O550 2.004 . S
Co546 O556 2.021 . S
Co546 O558 2.137 . S
Co546 O559 2.244 . S
O547 Co546 2.216 . S
O547 C554 1.247 . S
O548 Co546 2.091 . S
O548 C554 1.261 . S
C549 O558 1.247 . S
C549 O559 1.272 . S
O550 Co546 2.004 . S
O550 C555 1.259 . S
Co551 O552 2.061 . S
Co551 O557 2.052 . S
Co551 O559 2.135 . S
O552 Co551 2.061 . S
O552 C555 1.235 . S
C553 O556 1.238 . S
C553 O557 1.241 . S
C554 O547 1.247 . S
C554 O548 1.261 . S
C555 O550 1.259 . S
C555 O552 1.235 . S
O556 Co546 2.021 . S
O556 C553 1.238 . S
O557 Co551 2.052 . S
O557 C553 1.241 . S
O558 Co546 2.137 . S
O558 C549 1.247 . S
O559 Co546 2.244 . S
O559 C549 1.272 . S
O559 Co551 2.135 . S
Co560 O561 2.216 . S
Co560 O562 2.091 . S
Co560 O564 2.004 . S
Co560 O570 2.021 . S
Co560 O572 2.137 . S
Co560 O573 2.244 . S
O561 Co560 2.216 . S
O561 C568 1.247 . S
O562 Co560 2.091 . S
O562 C568 1.261 . S
C563 O572 1.247 . S
C563 O573 1.272 . S
O564 Co560 2.004 . S
O564 C569 1.259 . S
Co565 O566 2.061 . S
Co565 O571 2.052 . S
Co565 O573 2.135 . S
O566 Co565 2.061 . S
O566 C569 1.235 . S
C567 O570 1.238 . S
C567 O571 1.241 . S
C568 O561 1.247 . S
C568 O562 1.261 . S
C569 O564 1.259 . S
C569 O566 1.235 . S
O570 Co560 2.021 . S
O570 C567 1.238 . S
O571 Co565 2.052 . S
O571 C567 1.241 . S
O572 Co560 2.137 . S
O572 C563 1.247 . S
O573 Co560 2.244 . S
O573 C563 1.272 . S
O573 Co565 2.135 . S
Co574 O575 2.216 . S
Co574 O576 2.091 . S
Co574 O578 2.004 . S
Co574 O584 2.021 . S
Co574 O586 2.137 . S
Co574 O587 2.244 . S
O575 Co574 2.216 . S
O575 C582 1.247 . S
O576 Co574 2.091 . S
O576 C582 1.261 . S
C577 O586 1.247 . S
C577 O587 1.272 . S
O578 Co574 2.004 . S
O578 C583 1.259 . S
Co579 O580 2.061 . S
Co579 O585 2.052 . S
Co579 O587 2.135 . S
O580 Co579 2.061 . S
O580 C583 1.235 . S
C581 O584 1.238 . S
C581 O585 1.241 . S
C582 O575 1.247 . S
C582 O576 1.261 . S
C583 O578 1.259 . S
C583 O580 1.235 . S
O584 Co574 2.021 . S
O584 C581 1.238 . S
O585 Co579 2.052 . S
O585 C581 1.241 . S
O586 Co574 2.137 . S
O586 C577 1.247 . S
O587 Co574 2.244 . S
O587 C577 1.272 . S
O587 Co579 2.135 . S
Co588 O589 2.216 . S
Co588 O590 2.091 . S
Co588 O592 2.004 . S
Co588 O598 2.021 . S
Co588 O600 2.137 . S
Co588 O601 2.244 . S
O589 Co588 2.216 . S
O589 C596 1.247 . S
O590 Co588 2.091 . S
O590 C596 1.261 . S
C591 O600 1.247 . S
C591 O601 1.272 . S
O592 Co588 2.004 . S
O592 C597 1.259 . S
Co593 O594 2.061 . S
Co593 O599 2.052 . S
Co593 O601 2.135 . S
O594 Co593 2.061 . S
O594 C597 1.235 . S
C595 O598 1.238 . S
C595 O599 1.241 . S
C596 O589 1.247 . S
C596 O590 1.261 . S
C597 O592 1.259 . S
C597 O594 1.235 . S
O598 Co588 2.021 . S
O598 C595 1.238 . S
O599 Co593 2.052 . S
O599 C595 1.241 . S
O600 Co588 2.137 . S
O600 C591 1.247 . S
O601 Co588 2.244 . S
O601 C591 1.272 . S
O601 Co593 2.135 . S
Co602 O603 2.216 . S
Co602 O604 2.091 . S
Co602 O606 2.004 . S
Co602 O612 2.021 . S
Co602 O614 2.137 . S
Co602 O615 2.244 . S
O603 Co602 2.216 . S
O603 C610 1.247 . S
O604 Co602 2.091 . S
O604 C610 1.261 . S
C605 O614 1.247 . S
C605 O615 1.272 . S
O606 Co602 2.004 . S
O606 C611 1.259 . S
Co607 O608 2.061 . S
Co607 O613 2.052 . S
Co607 O615 2.135 . S
O608 Co607 2.061 . S
O608 C611 1.235 . S
C609 O612 1.238 . S
C609 O613 1.241 . S
C610 O603 1.247 . S
C610 O604 1.261 . S
C611 O606 1.259 . S
C611 O608 1.235 . S
O612 Co602 2.021 . S
O612 C609 1.238 . S
O613 Co607 2.052 . S
O613 C609 1.241 . S
O614 Co602 2.137 . S
O614 C605 1.247 . S
O615 Co602 2.244 . S
O615 C605 1.272 . S
O615 Co607 2.135 . S
Co616 O617 2.216 . S
Co616 O618 2.091 . S
Co616 O620 2.004 . S
Co616 O626 2.021 . S
Co616 O628 2.137 . S
Co616 O629 2.244 . S
O617 Co616 2.216 . S
O617 C624 1.247 . S
O618 Co616 2.091 . S
O618 C624 1.261 . S
C619 O628 1.247 . S
C619 O629 1.272 . S
O620 Co616 2.004 . S
O620 C625 1.259 . S
Co621 O622 2.061 . S
Co621 O627 2.052 . S
Co621 O629 2.135 . S
O622 Co621 2.061 . S
O622 C625 1.235 . S
C623 O626 1.238 . S
C623 O627 1.241 . S
C624 O617 1.247 . S
C624 O618 1.261 . S
C625 O620 1.259 . S
C625 O622 1.235 . S
O626 Co616 2.021 . S
O626 C623 1.238 . S
O627 Co621 2.052 . S
O627 C623 1.241 . S
O628 Co616 2.137 . S
O628 C619 1.247 . S
O629 Co616 2.244 . S
O629 C619 1.272 . S
O629 Co621 2.135 . S
Co630 O631 2.216 . S
Co630 O632 2.091 . S
Co630 O634 2.004 . S
Co630 O640 2.021 . S
Co630 O642 2.137 . S
Co630 O643 2.244 . S
O631 Co630 2.216 . S
O631 C638 1.247 . S
O632 Co630 2.091 . S
O632 C638 1.261 . S
C633 O642 1.247 . S
C633 O643 1.272 . S
O634 Co630 2.004 . S
O634 C639 1.259 . S
Co635 O636 2.061 . S
Co635 O641 2.052 . S
Co635 O643 2.135 . S
O636 Co635 2.061 . S
O636 C639 1.235 . S
C637 O640 1.238 . S
C637 O641 1.241 . S
C638 O631 1.247 . S
C638 O632 1.261 . S
C639 O634 1.259 . S
C639 O636 1.235 . S
O640 Co630 2.021 . S
O640 C637 1.238 . S
O641 Co635 2.052 . S
O641 C637 1.241 . S
O642 Co630 2.137 . S
O642 C633 1.247 . S
O643 Co630 2.244 . S
O643 C633 1.272 . S
O643 Co635 2.135 . S
Co644 O645 2.216 . S
Co644 O646 2.091 . S
Co644 O648 2.004 . S
Co644 O654 2.021 . S
Co644 O656 2.137 . S
Co644 O657 2.244 . S
O645 Co644 2.216 . S
O645 C652 1.247 . S
O646 Co644 2.091 . S
O646 C652 1.261 . S
C647 O656 1.247 . S
C647 O657 1.272 . S
O648 Co644 2.004 . S
O648 C653 1.259 . S
Co649 O650 2.061 . S
Co649 O655 2.052 . S
Co649 O657 2.135 . S
O650 Co649 2.061 . S
O650 C653 1.235 . S
C651 O654 1.238 . S
C651 O655 1.241 . S
C652 O645 1.247 . S
C652 O646 1.261 . S
C653 O648 1.259 . S
C653 O650 1.235 . S
O654 Co644 2.021 . S
O654 C651 1.238 . S
O655 Co649 2.052 . S
O655 C651 1.241 . S
O656 Co644 2.137 . S
O656 C647 1.247 . S
O657 Co644 2.244 . S
O657 C647 1.272 . S
O657 Co649 2.135 . S
Co658 O659 2.216 . S
Co658 O660 2.091 . S
Co658 O662 2.004 . S
Co658 O668 2.021 . S
Co658 O670 2.137 . S
Co658 O671 2.244 . S
O659 Co658 2.216 . S
O659 C666 1.247 . S
O660 Co658 2.091 . S
O660 C666 1.261 . S
C661 O670 1.247 . S
C661 O671 1.272 . S
O662 Co658 2.004 . S
O662 C667 1.259 . S
Co663 O664 2.061 . S
Co663 O669 2.052 . S
Co663 O671 2.135 . S
O664 Co663 2.061 . S
O664 C667 1.235 . S
C665 O668 1.238 . S
C665 O669 1.241 . S
C666 O659 1.247 . S
C666 O660 1.261 . S
C667 O662 1.259 . S
C667 O664 1.235 . S
O668 Co658 2.021 . S
O668 C665 1.238 . S
O669 Co663 2.052 . S
O669 C665 1.241 . S
O670 Co658 2.137 . S
O670 C661 1.247 . S
O671 Co658 2.244 . S
O671 C661 1.272 . S
O671 Co663 2.135 . S
H672 C684 0.930 . S
H673 C686 0.930 . S
H674 C687 0.930 . S
H675 C691 0.962 . S
H676 C691 0.978 . S
H677 C691 0.940 1_655 S
H678 C692 0.958 1_655 S
H679 C692 0.962 . S
H680 C692 0.959 . S
H681 C695 0.929 . S
H682 C696 0.931 . S
H683 C698 0.930 . S
C684 H672 0.930 . S
C684 C685 1.399 . S
C684 C689 1.399 . S
C685 C684 1.399 . S
C685 C686 1.376 . S
C686 H673 0.930 . S
C686 C685 1.376 . S
C686 C687 1.388 . S
C687 H674 0.930 . S
C687 C686 1.388 . S
C687 C688 1.390 . S
C688 C687 1.390 . S
C688 C689 1.394 . S
C688 C694 1.465 1_655 S
C689 C684 1.399 . S
C689 C688 1.394 . S
C689 C690 1.518 1_655 S
C690 C689 1.518 1_455 S
C690 C691 1.502 . S
C690 C692 1.561 . S
C690 C693 1.524 . S
C691 H675 0.962 . S
C691 H676 0.978 . S
C691 H677 0.940 1_455 S
C691 C690 1.502 . S
C692 H678 0.958 1_455 S
C692 H679 0.962 . S
C692 H680 0.959 . S
C692 C690 1.561 . S
C693 C690 1.524 . S
C693 C694 1.396 . S
C693 C698 1.390 . S
C694 C688 1.465 1_455 S
C694 C693 1.396 . S
C694 C695 1.399 . S
C695 H681 0.929 . S
C695 C694 1.399 . S
C695 C696 1.385 . S
C696 H682 0.931 . S
C696 C695 1.385 . S
C696 C697 1.389 . S
C697 C696 1.389 . S
C697 C698 1.387 . S
C698 H683 0.930 . S
C698 C693 1.390 . S
C698 C697 1.387 . S
H699 C711 0.930 . S
H700 C713 0.930 . S
H701 C714 0.930 . S
H702 C718 0.959 . S
H703 C718 0.959 . S
H704 C718 0.961 . S
H705 C719 0.960 . S
H706 C719 0.961 . S
H707 C719 0.959 . S
H708 C722 0.929 . S
H709 C723 0.931 . S
H710 C725 0.930 . S
C711 H699 0.930 . S
C711 C712 1.399 . S
C711 C716 1.399 . S
C712 C711 1.399 . S
C712 C713 1.376 . S
C713 H700 0.930 . S
C713 C712 1.376 . S
C713 C714 1.388 . S
C714 H701 0.930 . S
C714 C713 1.388 . S
C714 C715 1.390 . S
C715 C714 1.390 . S
C715 C716 1.394 . S
C715 C721 1.465 . S
C716 C711 1.399 . S
C716 C715 1.394 . S
C716 C717 1.516 . S
C717 C716 1.516 . S
C717 C718 1.502 . S
C717 C719 1.561 . S
C717 C720 1.526 . S
C718 H702 0.959 . S
C718 H703 0.959 . S
C718 H704 0.961 . S
C718 C717 1.502 . S
C719 H705 0.960 . S
C719 H706 0.961 . S
C719 H707 0.959 . S
C719 C717 1.561 . S
C720 C717 1.526 . S
C720 C721 1.396 . S
C720 C725 1.390 . S
C721 C715 1.465 . S
C721 C720 1.396 . S
C721 C722 1.399 . S
C722 H708 0.929 . S
C722 C721 1.399 . S
C722 C723 1.385 . S
C723 H709 0.931 . S
C723 C722 1.385 . S
C723 C724 1.389 . S
C724 C723 1.389 . S
C724 C725 1.387 . S
C725 H710 0.930 . S
C725 C720 1.390 . S
C725 C724 1.387 . S
H726 C738 0.930 . S
H727 C740 0.930 . S
H728 C741 0.930 . S
H729 C745 0.962 . S
H730 C745 0.978 . S
H731 C745 0.940 1_455 S
H732 C746 0.958 1_455 S
H733 C746 0.962 . S
H734 C746 0.959 . S
H735 C749 0.929 . S
H736 C750 0.931 . S
H737 C752 0.930 . S
C738 H726 0.930 . S
C738 C739 1.399 . S
C738 C743 1.399 . S
C739 C738 1.399 . S
C739 C740 1.376 . S
C740 H727 0.930 . S
C740 C739 1.376 . S
C740 C741 1.388 . S
C741 H728 0.930 . S
C741 C740 1.388 . S
C741 C742 1.390 . S
C742 C741 1.390 . S
C742 C743 1.394 . S
C742 C748 1.465 1_455 S
C743 C738 1.399 . S
C743 C742 1.394 . S
C743 C744 1.518 1_455 S
C744 C743 1.518 1_655 S
C744 C745 1.502 . S
C744 C746 1.561 . S
C744 C747 1.524 . S
C745 H729 0.962 . S
C745 H730 0.978 . S
C745 H731 0.940 1_655 S
C745 C744 1.502 . S
C746 H732 0.958 1_655 S
C746 H733 0.962 . S
C746 H734 0.959 . S
C746 C744 1.561 . S
C747 C744 1.524 . S
C747 C748 1.396 . S
C747 C752 1.390 . S
C748 C742 1.465 1_655 S
C748 C747 1.396 . S
C748 C749 1.399 . S
C749 H735 0.929 . S
C749 C748 1.399 . S
C749 C750 1.385 . S
C750 H736 0.931 . S
C750 C749 1.385 . S
C750 C751 1.389 . S
C751 C750 1.389 . S
C751 C752 1.387 . S
C752 H737 0.930 . S
C752 C747 1.390 . S
C752 C751 1.387 . S
H753 C765 0.930 . S
H754 C767 0.930 . S
H755 C768 0.930 . S
H756 C772 0.959 . S
H757 C772 0.959 . S
H758 C772 0.961 . S
H759 C773 0.960 . S
H760 C773 0.961 . S
H761 C773 0.959 . S
H762 C776 0.929 . S
H763 C777 0.931 . S
H764 C779 0.930 . S
C765 H753 0.930 . S
C765 C766 1.399 . S
C765 C770 1.399 . S
C766 C765 1.399 . S
C766 C767 1.376 . S
C767 H754 0.930 . S
C767 C766 1.376 . S
C767 C768 1.388 . S
C768 H755 0.930 . S
C768 C767 1.388 . S
C768 C769 1.390 . S
C769 C768 1.390 . S
C769 C770 1.394 . S
C769 C775 1.465 . S
C770 C765 1.399 . S
C770 C769 1.394 . S
C770 C771 1.516 . S
C771 C770 1.516 . S
C771 C772 1.502 . S
C771 C773 1.561 . S
C771 C774 1.526 . S
C772 H756 0.959 . S
C772 H757 0.959 . S
C772 H758 0.961 . S
C772 C771 1.502 . S
C773 H759 0.960 . S
C773 H760 0.961 . S
C773 H761 0.959 . S
C773 C771 1.561 . S
C774 C771 1.526 . S
C774 C775 1.396 . S
C774 C779 1.390 . S
C775 C769 1.465 . S
C775 C774 1.396 . S
C775 C776 1.399 . S
C776 H762 0.929 . S
C776 C775 1.399 . S
C776 C777 1.385 . S
C777 H763 0.931 . S
C777 C776 1.385 . S
C777 C778 1.389 . S
C778 C777 1.389 . S
C778 C779 1.387 . S
C779 H764 0.930 . S
C779 C774 1.390 . S
C779 C778 1.387 . S
H780 C792 0.930 . S
H781 C794 0.930 . S
H782 C795 0.930 . S
H783 C799 0.962 . S
H784 C799 0.978 . S
H785 C799 0.940 1_655 S
H786 C800 0.958 1_655 S
H787 C800 0.962 . S
H788 C800 0.959 . S
H789 C803 0.929 . S
H790 C804 0.931 . S
H791 C806 0.930 . S
C792 H780 0.930 . S
C792 C793 1.399 . S
C792 C797 1.399 . S
C793 C792 1.399 . S
C793 C794 1.376 . S
C794 H781 0.930 . S
C794 C793 1.376 . S
C794 C795 1.388 . S
C795 H782 0.930 . S
C795 C794 1.388 . S
C795 C796 1.390 . S
C796 C795 1.390 . S
C796 C797 1.394 . S
C796 C802 1.465 1_655 S
C797 C792 1.399 . S
C797 C796 1.394 . S
C797 C798 1.518 1_655 S
C798 C797 1.518 1_455 S
C798 C799 1.502 . S
C798 C800 1.561 . S
C798 C801 1.524 . S
C799 H783 0.962 . S
C799 H784 0.978 . S
C799 H785 0.940 1_455 S
C799 C798 1.502 . S
C800 H786 0.958 1_455 S
C800 H787 0.962 . S
C800 H788 0.959 . S
C800 C798 1.561 . S
C801 C798 1.524 . S
C801 C802 1.396 . S
C801 C806 1.390 . S
C802 C796 1.465 1_455 S
C802 C801 1.396 . S
C802 C803 1.399 . S
C803 H789 0.929 . S
C803 C802 1.399 . S
C803 C804 1.385 . S
C804 H790 0.931 . S
C804 C803 1.385 . S
C804 C805 1.389 . S
C805 C804 1.389 . S
C805 C806 1.387 . S
C806 H791 0.930 . S
C806 C801 1.390 . S
C806 C805 1.387 . S
H807 C819 0.930 . S
H808 C821 0.930 . S
H809 C822 0.930 . S
H810 C826 0.959 . S
H811 C826 0.959 . S
H812 C826 0.961 . S
H813 C827 0.960 . S
H814 C827 0.961 . S
H815 C827 0.959 . S
H816 C830 0.929 . S
H817 C831 0.931 . S
H818 C833 0.930 . S
C819 H807 0.930 . S
C819 C820 1.399 . S
C819 C824 1.399 . S
C820 C819 1.399 . S
C820 C821 1.376 . S
C821 H808 0.930 . S
C821 C820 1.376 . S
C821 C822 1.388 . S
C822 H809 0.930 . S
C822 C821 1.388 . S
C822 C823 1.390 . S
C823 C822 1.390 . S
C823 C824 1.394 . S
C823 C829 1.465 . S
C824 C819 1.399 . S
C824 C823 1.394 . S
C824 C825 1.516 . S
C825 C824 1.516 . S
C825 C826 1.502 . S
C825 C827 1.561 . S
C825 C828 1.526 . S
C826 H810 0.959 . S
C826 H811 0.959 . S
C826 H812 0.961 . S
C826 C825 1.502 . S
C827 H813 0.960 . S
C827 H814 0.961 . S
C827 H815 0.959 . S
C827 C825 1.561 . S
C828 C825 1.526 . S
C828 C829 1.396 . S
C828 C833 1.390 . S
C829 C823 1.465 . S
C829 C828 1.396 . S
C829 C830 1.399 . S
C830 H816 0.929 . S
C830 C829 1.399 . S
C830 C831 1.385 . S
C831 H817 0.931 . S
C831 C830 1.385 . S
C831 C832 1.389 . S
C832 C831 1.389 . S
C832 C833 1.387 . S
C833 H818 0.930 . S
C833 C828 1.390 . S
C833 C832 1.387 . S
H834 C846 0.930 . S
H835 C848 0.930 . S
H836 C849 0.930 . S
H837 C853 0.962 . S
H838 C853 0.978 . S
H839 C853 0.940 1_455 S
H840 C854 0.958 1_455 S
H841 C854 0.962 . S
H842 C854 0.959 . S
H843 C857 0.929 . S
H844 C858 0.931 . S
H845 C860 0.930 . S
C846 H834 0.930 . S
C846 C847 1.399 . S
C846 C851 1.399 . S
C847 C846 1.399 . S
C847 C848 1.376 . S
C848 H835 0.930 . S
C848 C847 1.376 . S
C848 C849 1.388 . S
C849 H836 0.930 . S
C849 C848 1.388 . S
C849 C850 1.390 . S
C850 C849 1.390 . S
C850 C851 1.394 . S
C850 C856 1.465 1_455 S
C851 C846 1.399 . S
C851 C850 1.394 . S
C851 C852 1.518 1_455 S
C852 C851 1.518 1_655 S
C852 C853 1.502 . S
C852 C854 1.561 . S
C852 C855 1.524 . S
C853 H837 0.962 . S
C853 H838 0.978 . S
C853 H839 0.940 1_655 S
C853 C852 1.502 . S
C854 H840 0.958 1_655 S
C854 H841 0.962 . S
C854 H842 0.959 . S
C854 C852 1.561 . S
C855 C852 1.524 . S
C855 C856 1.396 . S
C855 C860 1.390 . S
C856 C850 1.465 1_655 S
C856 C855 1.396 . S
C856 C857 1.399 . S
C857 H843 0.929 . S
C857 C856 1.399 . S
C857 C858 1.385 . S
C858 H844 0.931 . S
C858 C857 1.385 . S
C858 C859 1.389 . S
C859 C858 1.389 . S
C859 C860 1.387 . S
C860 H845 0.930 . S
C860 C855 1.390 . S
C860 C859 1.387 . S
H861 C873 0.930 . S
H862 C875 0.930 . S
H863 C876 0.930 . S
H864 C880 0.959 . S
H865 C880 0.959 . S
H866 C880 0.961 . S
H867 C881 0.960 . S
H868 C881 0.961 . S
H869 C881 0.959 . S
H870 C884 0.929 . S
H871 C885 0.931 . S
H872 C887 0.930 . S
C873 H861 0.930 . S
C873 C874 1.399 . S
C873 C878 1.399 . S
C874 C873 1.399 . S
C874 C875 1.376 . S
C875 H862 0.930 . S
C875 C874 1.376 . S
C875 C876 1.388 . S
C876 H863 0.930 . S
C876 C875 1.388 . S
C876 C877 1.390 . S
C877 C876 1.390 . S
C877 C878 1.394 . S
C877 C883 1.465 . S
C878 C873 1.399 . S
C878 C877 1.394 . S
C878 C879 1.516 . S
C879 C878 1.516 . S
C879 C880 1.502 . S
C879 C881 1.561 . S
C879 C882 1.526 . S
C880 H864 0.959 . S
C880 H865 0.959 . S
C880 H866 0.961 . S
C880 C879 1.502 . S
C881 H867 0.960 . S
C881 H868 0.961 . S
C881 H869 0.959 . S
C881 C879 1.561 . S
C882 C879 1.526 . S
C882 C883 1.396 . S
C882 C887 1.390 . S
C883 C877 1.465 . S
C883 C882 1.396 . S
C883 C884 1.399 . S
C884 H870 0.929 . S
C884 C883 1.399 . S
C884 C885 1.385 . S
C885 H871 0.931 . S
C885 C884 1.385 . S
C885 C886 1.389 . S
C886 C885 1.389 . S
C886 C887 1.387 . S
C887 H872 0.930 . S
C887 C882 1.390 . S
C887 C886 1.387 . S
H888 C900 0.930 . S
H889 C902 0.930 . S
H890 C903 0.930 . S
H891 C907 0.962 . S
H892 C907 0.978 . S
H893 C907 0.940 1_565 S
H894 C908 0.958 1_565 S
H895 C908 0.962 . S
H896 C908 0.959 . S
H897 C911 0.929 . S
H898 C912 0.931 . S
H899 C914 0.930 . S
C900 H888 0.930 . S
C900 C901 1.399 . S
C900 C905 1.399 . S
C901 C900 1.399 . S
C901 C902 1.376 . S
C902 H889 0.930 . S
C902 C901 1.376 . S
C902 C903 1.388 . S
C903 H890 0.930 . S
C903 C902 1.388 . S
C903 C904 1.390 . S
C904 C903 1.390 . S
C904 C905 1.394 . S
C904 C910 1.465 1_565 S
C905 C900 1.399 . S
C905 C904 1.394 . S
C905 C906 1.518 1_565 S
C906 C905 1.518 1_545 S
C906 C907 1.502 . S
C906 C908 1.561 . S
C906 C909 1.524 . S
C907 H891 0.962 . S
C907 H892 0.978 . S
C907 H893 0.940 1_545 S
C907 C906 1.502 . S
C908 H894 0.958 1_545 S
C908 H895 0.962 . S
C908 H896 0.959 . S
C908 C906 1.561 . S
C909 C906 1.524 . S
C909 C910 1.396 . S
C909 C914 1.390 . S
C910 C904 1.465 1_545 S
C910 C909 1.396 . S
C910 C911 1.399 . S
C911 H897 0.929 . S
C911 C910 1.399 . S
C911 C912 1.385 . S
C912 H898 0.931 . S
C912 C911 1.385 . S
C912 C913 1.389 . S
C913 C912 1.389 . S
C913 C914 1.387 . S
C914 H899 0.930 . S
C914 C909 1.390 . S
C914 C913 1.387 . S
H915 C927 0.930 . S
H916 C929 0.930 . S
H917 C930 0.930 . S
H918 C934 0.959 . S
H919 C934 0.959 . S
H920 C934 0.961 . S
H921 C935 0.960 . S
H922 C935 0.961 . S
H923 C935 0.959 . S
H924 C938 0.929 . S
H925 C939 0.931 . S
H926 C941 0.930 . S
C927 H915 0.930 . S
C927 C928 1.399 . S
C927 C932 1.399 . S
C928 C927 1.399 . S
C928 C929 1.376 . S
C929 H916 0.930 . S
C929 C928 1.376 . S
C929 C930 1.388 . S
C930 H917 0.930 . S
C930 C929 1.388 . S
C930 C931 1.390 . S
C931 C930 1.390 . S
C931 C932 1.394 . S
C931 C937 1.465 . S
C932 C927 1.399 . S
C932 C931 1.394 . S
C932 C933 1.516 . S
C933 C932 1.516 . S
C933 C934 1.502 . S
C933 C935 1.561 . S
C933 C936 1.526 . S
C934 H918 0.959 . S
C934 H919 0.959 . S
C934 H920 0.961 . S
C934 C933 1.502 . S
C935 H921 0.960 . S
C935 H922 0.961 . S
C935 H923 0.959 . S
C935 C933 1.561 . S
C936 C933 1.526 . S
C936 C937 1.396 . S
C936 C941 1.390 . S
C937 C931 1.465 . S
C937 C936 1.396 . S
C937 C938 1.399 . S
C938 H924 0.929 . S
C938 C937 1.399 . S
C938 C939 1.385 . S
C939 H925 0.931 . S
C939 C938 1.385 . S
C939 C940 1.389 . S
C940 C939 1.389 . S
C940 C941 1.387 . S
C941 H926 0.930 . S
C941 C936 1.390 . S
C941 C940 1.387 . S
H942 C954 0.930 . S
H943 C956 0.930 . S
H944 C957 0.930 . S
H945 C961 0.962 . S
H946 C961 0.978 . S
H947 C961 0.940 1_545 S
H948 C962 0.958 1_545 S
H949 C962 0.962 . S
H950 C962 0.959 . S
H951 C965 0.929 . S
H952 C966 0.931 . S
H953 C968 0.930 . S
C954 H942 0.930 . S
C954 C955 1.399 . S
C954 C959 1.399 . S
C955 C954 1.399 . S
C955 C956 1.376 . S
C956 H943 0.930 . S
C956 C955 1.376 . S
C956 C957 1.388 . S
C957 H944 0.930 . S
C957 C956 1.388 . S
C957 C958 1.390 . S
C958 C957 1.390 . S
C958 C959 1.394 . S
C958 C964 1.465 1_545 S
C959 C954 1.399 . S
C959 C958 1.394 . S
C959 C960 1.518 1_545 S
C960 C959 1.518 1_565 S
C960 C961 1.502 . S
C960 C962 1.561 . S
C960 C963 1.524 . S
C961 H945 0.962 . S
C961 H946 0.978 . S
C961 H947 0.940 1_565 S
C961 C960 1.502 . S
C962 H948 0.958 1_565 S
C962 H949 0.962 . S
C962 H950 0.959 . S
C962 C960 1.561 . S
C963 C960 1.524 . S
C963 C964 1.396 . S
C963 C968 1.390 . S
C964 C958 1.465 1_565 S
C964 C963 1.396 . S
C964 C965 1.399 . S
C965 H951 0.929 . S
C965 C964 1.399 . S
C965 C966 1.385 . S
C966 H952 0.931 . S
C966 C965 1.385 . S
C966 C967 1.389 . S
C967 C966 1.389 . S
C967 C968 1.387 . S
C968 H953 0.930 . S
C968 C963 1.390 . S
C968 C967 1.387 . S
H969 C981 0.930 . S
H970 C983 0.930 . S
H971 C984 0.930 . S
H972 C988 0.959 . S
H973 C988 0.959 . S
H974 C988 0.961 . S
H975 C989 0.960 . S
H976 C989 0.961 . S
H977 C989 0.959 . S
H978 C992 0.929 . S
H979 C993 0.931 . S
H980 C995 0.930 . S
C981 H969 0.930 . S
C981 C982 1.399 . S
C981 C986 1.399 . S
C982 C981 1.399 . S
C982 C983 1.376 . S
C983 H970 0.930 . S
C983 C982 1.376 . S
C983 C984 1.388 . S
C984 H971 0.930 . S
C984 C983 1.388 . S
C984 C985 1.390 . S
C985 C984 1.390 . S
C985 C986 1.394 . S
C985 C991 1.465 . S
C986 C981 1.399 . S
C986 C985 1.394 . S
C986 C987 1.516 . S
C987 C986 1.516 . S
C987 C988 1.502 . S
C987 C989 1.561 . S
C987 C990 1.526 . S
C988 H972 0.959 . S
C988 H973 0.959 . S
C988 H974 0.961 . S
C988 C987 1.502 . S
C989 H975 0.960 . S
C989 H976 0.961 . S
C989 H977 0.959 . S
C989 C987 1.561 . S
C990 C987 1.526 . S
C990 C991 1.396 . S
C990 C995 1.390 . S
C991 C985 1.465 . S
C991 C990 1.396 . S
C991 C992 1.399 . S
C992 H978 0.929 . S
C992 C991 1.399 . S
C992 C993 1.385 . S
C993 H979 0.931 . S
C993 C992 1.385 . S
C993 C994 1.389 . S
C994 C993 1.389 . S
C994 C995 1.387 . S
C995 H980 0.930 . S
C995 C990 1.390 . S
C995 C994 1.387 . S
H996 C1008 0.930 . S
H997 C1010 0.930 . S
H998 C1011 0.930 . S
H999 C1015 0.962 . S
H1000 C1015 0.978 . S
H1001 C1015 0.940 1_545 S
H1002 C1016 0.958 1_545 S
H1003 C1016 0.962 . S
H1004 C1016 0.959 . S
H1005 C1019 0.929 . S
H1006 C1020 0.931 . S
H1007 C1022 0.930 . S
C1008 H996 0.930 . S
C1008 C1009 1.399 . S
C1008 C1013 1.399 . S
C1009 C1008 1.399 . S
C1009 C1010 1.376 . S
C1010 H997 0.930 . S
C1010 C1009 1.376 . S
C1010 C1011 1.388 . S
C1011 H998 0.930 . S
C1011 C1010 1.388 . S
C1011 C1012 1.390 . S
C1012 C1011 1.390 . S
C1012 C1013 1.394 . S
C1012 C1018 1.465 1_545 S
C1013 C1008 1.399 . S
C1013 C1012 1.394 . S
C1013 C1014 1.518 1_545 S
C1014 C1013 1.518 1_565 S
C1014 C1015 1.502 . S
C1014 C1016 1.561 . S
C1014 C1017 1.524 . S
C1015 H999 0.962 . S
C1015 H1000 0.978 . S
C1015 H1001 0.940 1_565 S
C1015 C1014 1.502 . S
C1016 H1002 0.958 1_565 S
C1016 H1003 0.962 . S
C1016 H1004 0.959 . S
C1016 C1014 1.561 . S
C1017 C1014 1.524 . S
C1017 C1018 1.396 . S
C1017 C1022 1.390 . S
C1018 C1012 1.465 1_565 S
C1018 C1017 1.396 . S
C1018 C1019 1.399 . S
C1019 H1005 0.929 . S
C1019 C1018 1.399 . S
C1019 C1020 1.385 . S
C1020 H1006 0.931 . S
C1020 C1019 1.385 . S
C1020 C1021 1.389 . S
C1021 C1020 1.389 . S
C1021 C1022 1.387 . S
C1022 H1007 0.930 . S
C1022 C1017 1.390 . S
C1022 C1021 1.387 . S
H1023 C1035 0.930 . S
H1024 C1037 0.930 . S
H1025 C1038 0.930 . S
H1026 C1042 0.959 . S
H1027 C1042 0.959 . S
H1028 C1042 0.961 . S
H1029 C1043 0.960 . S
H1030 C1043 0.961 . S
H1031 C1043 0.959 . S
H1032 C1046 0.929 . S
H1033 C1047 0.931 . S
H1034 C1049 0.930 . S
C1035 H1023 0.930 . S
C1035 C1036 1.399 . S
C1035 C1040 1.399 . S
C1036 C1035 1.399 . S
C1036 C1037 1.376 . S
C1037 H1024 0.930 . S
C1037 C1036 1.376 . S
C1037 C1038 1.388 . S
C1038 H1025 0.930 . S
C1038 C1037 1.388 . S
C1038 C1039 1.390 . S
C1039 C1038 1.390 . S
C1039 C1040 1.394 . S
C1039 C1045 1.465 . S
C1040 C1035 1.399 . S
C1040 C1039 1.394 . S
C1040 C1041 1.516 . S
C1041 C1040 1.516 . S
C1041 C1042 1.502 . S
C1041 C1043 1.561 . S
C1041 C1044 1.526 . S
C1042 H1026 0.959 . S
C1042 H1027 0.959 . S
C1042 H1028 0.961 . S
C1042 C1041 1.502 . S
C1043 H1029 0.960 . S
C1043 H1030 0.961 . S
C1043 H1031 0.959 . S
C1043 C1041 1.561 . S
C1044 C1041 1.526 . S
C1044 C1045 1.396 . S
C1044 C1049 1.390 . S
C1045 C1039 1.465 . S
C1045 C1044 1.396 . S
C1045 C1046 1.399 . S
C1046 H1032 0.929 . S
C1046 C1045 1.399 . S
C1046 C1047 1.385 . S
C1047 H1033 0.931 . S
C1047 C1046 1.385 . S
C1047 C1048 1.389 . S
C1048 C1047 1.389 . S
C1048 C1049 1.387 . S
C1049 H1034 0.930 . S
C1049 C1044 1.390 . S
C1049 C1048 1.387 . S
H1050 C1062 0.930 . S
H1051 C1064 0.930 . S
H1052 C1065 0.930 . S
H1053 C1069 0.962 . S
H1054 C1069 0.978 . S
H1055 C1069 0.940 1_545 S
H1056 C1070 0.958 1_545 S
H1057 C1070 0.962 . S
H1058 C1070 0.959 . S
H1059 C1073 0.929 . S
H1060 C1074 0.931 . S
H1061 C1076 0.930 . S
C1062 H1050 0.930 . S
C1062 C1063 1.399 . S
C1062 C1067 1.399 . S
C1063 C1062 1.399 . S
C1063 C1064 1.376 . S
C1064 H1051 0.930 . S
C1064 C1063 1.376 . S
C1064 C1065 1.388 . S
C1065 H1052 0.930 . S
C1065 C1064 1.388 . S
C1065 C1066 1.390 . S
C1066 C1065 1.390 . S
C1066 C1067 1.394 . S
C1066 C1072 1.465 1_545 S
C1067 C1062 1.399 . S
C1067 C1066 1.394 . S
C1067 C1068 1.518 1_545 S
C1068 C1067 1.518 1_565 S
C1068 C1069 1.502 . S
C1068 C1070 1.561 . S
C1068 C1071 1.524 . S
C1069 H1053 0.962 . S
C1069 H1054 0.978 . S
C1069 H1055 0.940 1_565 S
C1069 C1068 1.502 . S
C1070 H1056 0.958 1_565 S
C1070 H1057 0.962 . S
C1070 H1058 0.959 . S
C1070 C1068 1.561 . S
C1071 C1068 1.524 . S
C1071 C1072 1.396 . S
C1071 C1076 1.390 . S
C1072 C1066 1.465 1_565 S
C1072 C1071 1.396 . S
C1072 C1073 1.399 . S
C1073 H1059 0.929 . S
C1073 C1072 1.399 . S
C1073 C1074 1.385 . S
C1074 H1060 0.931 . S
C1074 C1073 1.385 . S
C1074 C1075 1.389 . S
C1075 C1074 1.389 . S
C1075 C1076 1.387 . S
C1076 H1061 0.930 . S
C1076 C1071 1.390 . S
C1076 C1075 1.387 . S
H1077 C1089 0.930 . S
H1078 C1091 0.930 . S
H1079 C1092 0.930 . S
H1080 C1096 0.959 . S
H1081 C1096 0.959 . S
H1082 C1096 0.961 . S
H1083 C1097 0.960 . S
H1084 C1097 0.961 . S
H1085 C1097 0.959 . S
H1086 C1100 0.929 . S
H1087 C1101 0.931 . S
H1088 C1103 0.930 . S
C1089 H1077 0.930 . S
C1089 C1090 1.399 . S
C1089 C1094 1.399 . S
C1090 C1089 1.399 . S
C1090 C1091 1.376 . S
C1091 H1078 0.930 . S
C1091 C1090 1.376 . S
C1091 C1092 1.388 . S
C1092 H1079 0.930 . S
C1092 C1091 1.388 . S
C1092 C1093 1.390 . S
C1093 C1092 1.390 . S
C1093 C1094 1.394 . S
C1093 C1099 1.465 . S
C1094 C1089 1.399 . S
C1094 C1093 1.394 . S
C1094 C1095 1.516 . S
C1095 C1094 1.516 . S
C1095 C1096 1.502 . S
C1095 C1097 1.561 . S
C1095 C1098 1.526 . S
C1096 H1080 0.959 . S
C1096 H1081 0.959 . S
C1096 H1082 0.961 . S
C1096 C1095 1.502 . S
C1097 H1083 0.960 . S
C1097 H1084 0.961 . S
C1097 H1085 0.959 . S
C1097 C1095 1.561 . S
C1098 C1095 1.526 . S
C1098 C1099 1.396 . S
C1098 C1103 1.390 . S
C1099 C1093 1.465 . S
C1099 C1098 1.396 . S
C1099 C1100 1.399 . S
C1100 H1086 0.929 . S
C1100 C1099 1.399 . S
C1100 C1101 1.385 . S
C1101 H1087 0.931 . S
C1101 C1100 1.385 . S
C1101 C1102 1.389 . S
C1102 C1101 1.389 . S
C1102 C1103 1.387 . S
C1103 H1088 0.930 . S
C1103 C1098 1.390 . S
C1103 C1102 1.387 . S
H1104 C1116 0.930 . S
H1105 C1118 0.930 . S
H1106 C1119 0.930 . S
H1107 C1123 0.962 . S
H1108 C1123 0.978 . S
H1109 C1123 0.940 1_554 S
H1110 C1124 0.958 1_554 S
H1111 C1124 0.962 . S
H1112 C1124 0.959 . S
H1113 C1127 0.929 . S
H1114 C1128 0.931 . S
H1115 C1130 0.930 . S
C1116 H1104 0.930 . S
C1116 C1117 1.399 . S
C1116 C1121 1.399 . S
C1117 C1116 1.399 . S
C1117 C1118 1.376 . S
C1118 H1105 0.930 . S
C1118 C1117 1.376 . S
C1118 C1119 1.388 . S
C1119 H1106 0.930 . S
C1119 C1118 1.388 . S
C1119 C1120 1.390 . S
C1120 C1119 1.390 . S
C1120 C1121 1.394 . S
C1120 C1126 1.465 1_554 S
C1121 C1116 1.399 . S
C1121 C1120 1.394 . S
C1121 C1122 1.518 1_554 S
C1122 C1121 1.518 1_556 S
C1122 C1123 1.502 . S
C1122 C1124 1.561 . S
C1122 C1125 1.524 . S
C1123 H1107 0.962 . S
C1123 H1108 0.978 . S
C1123 H1109 0.940 1_556 S
C1123 C1122 1.502 . S
C1124 H1110 0.958 1_556 S
C1124 H1111 0.962 . S
C1124 H1112 0.959 . S
C1124 C1122 1.561 . S
C1125 C1122 1.524 . S
C1125 C1126 1.396 . S
C1125 C1130 1.390 . S
C1126 C1120 1.465 1_556 S
C1126 C1125 1.396 . S
C1126 C1127 1.399 . S
C1127 H1113 0.929 . S
C1127 C1126 1.399 . S
C1127 C1128 1.385 . S
C1128 H1114 0.931 . S
C1128 C1127 1.385 . S
C1128 C1129 1.389 . S
C1129 C1128 1.389 . S
C1129 C1130 1.387 . S
C1130 H1115 0.930 . S
C1130 C1125 1.390 . S
C1130 C1129 1.387 . S
H1131 C1143 0.930 . S
H1132 C1145 0.930 . S
H1133 C1146 0.930 . S
H1134 C1150 0.962 . S
H1135 C1150 0.978 . S
H1136 C1150 0.940 1_554 S
H1137 C1151 0.958 1_554 S
H1138 C1151 0.962 . S
H1139 C1151 0.959 . S
H1140 C1154 0.929 . S
H1141 C1155 0.931 . S
H1142 C1157 0.930 . S
C1143 H1131 0.930 . S
C1143 C1144 1.399 . S
C1143 C1148 1.399 . S
C1144 C1143 1.399 . S
C1144 C1145 1.376 . S
C1145 H1132 0.930 . S
C1145 C1144 1.376 . S
C1145 C1146 1.388 . S
C1146 H1133 0.930 . S
C1146 C1145 1.388 . S
C1146 C1147 1.390 . S
C1147 C1146 1.390 . S
C1147 C1148 1.394 . S
C1147 C1153 1.465 1_554 S
C1148 C1143 1.399 . S
C1148 C1147 1.394 . S
C1148 C1149 1.518 1_554 S
C1149 C1148 1.518 1_556 S
C1149 C1150 1.502 . S
C1149 C1151 1.561 . S
C1149 C1152 1.524 . S
C1150 H1134 0.962 . S
C1150 H1135 0.978 . S
C1150 H1136 0.940 1_556 S
C1150 C1149 1.502 . S
C1151 H1137 0.958 1_556 S
C1151 H1138 0.962 . S
C1151 H1139 0.959 . S
C1151 C1149 1.561 . S
C1152 C1149 1.524 . S
C1152 C1153 1.396 . S
C1152 C1157 1.390 . S
C1153 C1147 1.465 1_556 S
C1153 C1152 1.396 . S
C1153 C1154 1.399 . S
C1154 H1140 0.929 . S
C1154 C1153 1.399 . S
C1154 C1155 1.385 . S
C1155 H1141 0.931 . S
C1155 C1154 1.385 . S
C1155 C1156 1.389 . S
C1156 C1155 1.389 . S
C1156 C1157 1.387 . S
C1157 H1142 0.930 . S
C1157 C1152 1.390 . S
C1157 C1156 1.387 . S
H1158 C1170 0.930 . S
H1159 C1172 0.930 . S
H1160 C1173 0.930 . S
H1161 C1177 0.959 . S
H1162 C1177 0.959 . S
H1163 C1177 0.961 . S
H1164 C1178 0.960 . S
H1165 C1178 0.961 . S
H1166 C1178 0.959 . S
H1167 C1181 0.929 . S
H1168 C1182 0.931 . S
H1169 C1184 0.930 . S
C1170 H1158 0.930 . S
C1170 C1171 1.399 . S
C1170 C1175 1.399 . S
C1171 C1170 1.399 . S
C1171 C1172 1.376 . S
C1172 H1159 0.930 . S
C1172 C1171 1.376 . S
C1172 C1173 1.388 . S
C1173 H1160 0.930 . S
C1173 C1172 1.388 . S
C1173 C1174 1.390 . S
C1174 C1173 1.390 . S
C1174 C1175 1.394 . S
C1174 C1180 1.465 . S
C1175 C1170 1.399 . S
C1175 C1174 1.394 . S
C1175 C1176 1.516 . S
C1176 C1175 1.516 . S
C1176 C1177 1.502 . S
C1176 C1178 1.561 . S
C1176 C1179 1.526 . S
C1177 H1161 0.959 . S
C1177 H1162 0.959 . S
C1177 H1163 0.961 . S
C1177 C1176 1.502 . S
C1178 H1164 0.960 . S
C1178 H1165 0.961 . S
C1178 H1166 0.959 . S
C1178 C1176 1.561 . S
C1179 C1176 1.526 . S
C1179 C1180 1.396 . S
C1179 C1184 1.390 . S
C1180 C1174 1.465 . S
C1180 C1179 1.396 . S
C1180 C1181 1.399 . S
C1181 H1167 0.929 . S
C1181 C1180 1.399 . S
C1181 C1182 1.385 . S
C1182 H1168 0.931 . S
C1182 C1181 1.385 . S
C1182 C1183 1.389 . S
C1183 C1182 1.389 . S
C1183 C1184 1.387 . S
C1184 H1169 0.930 . S
C1184 C1179 1.390 . S
C1184 C1183 1.387 . S
H1185 C1197 0.930 . S
H1186 C1199 0.930 . S
H1187 C1200 0.930 . S
H1188 C1204 0.962 . S
H1189 C1204 0.978 . S
H1190 C1204 0.940 1_554 S
H1191 C1205 0.958 1_554 S
H1192 C1205 0.962 . S
H1193 C1205 0.959 . S
H1194 C1208 0.929 . S
H1195 C1209 0.931 . S
H1196 C1211 0.930 . S
C1197 H1185 0.930 . S
C1197 C1198 1.399 . S
C1197 C1202 1.399 . S
C1198 C1197 1.399 . S
C1198 C1199 1.376 . S
C1199 H1186 0.930 . S
C1199 C1198 1.376 . S
C1199 C1200 1.388 . S
C1200 H1187 0.930 . S
C1200 C1199 1.388 . S
C1200 C1201 1.390 . S
C1201 C1200 1.390 . S
C1201 C1202 1.394 . S
C1201 C1207 1.465 1_554 S
C1202 C1197 1.399 . S
C1202 C1201 1.394 . S
C1202 C1203 1.518 1_554 S
C1203 C1202 1.518 1_556 S
C1203 C1204 1.502 . S
C1203 C1205 1.561 . S
C1203 C1206 1.524 . S
C1204 H1188 0.962 . S
C1204 H1189 0.978 . S
C1204 H1190 0.940 1_556 S
C1204 C1203 1.502 . S
C1205 H1191 0.958 1_556 S
C1205 H1192 0.962 . S
C1205 H1193 0.959 . S
C1205 C1203 1.561 . S
C1206 C1203 1.524 . S
C1206 C1207 1.396 . S
C1206 C1211 1.390 . S
C1207 C1201 1.465 1_556 S
C1207 C1206 1.396 . S
C1207 C1208 1.399 . S
C1208 H1194 0.929 . S
C1208 C1207 1.399 . S
C1208 C1209 1.385 . S
C1209 H1195 0.931 . S
C1209 C1208 1.385 . S
C1209 C1210 1.389 . S
C1210 C1209 1.389 . S
C1210 C1211 1.387 . S
C1211 H1196 0.930 . S
C1211 C1206 1.390 . S
C1211 C1210 1.387 . S
H1212 C1224 0.930 . S
H1213 C1226 0.930 . S
H1214 C1227 0.930 . S
H1215 C1231 0.959 . S
H1216 C1231 0.959 . S
H1217 C1231 0.961 . S
H1218 C1232 0.960 . S
H1219 C1232 0.961 . S
H1220 C1232 0.959 . S
H1221 C1235 0.929 . S
H1222 C1236 0.931 . S
H1223 C1238 0.930 . S
C1224 H1212 0.930 . S
C1224 C1225 1.399 . S
C1224 C1229 1.399 . S
C1225 C1224 1.399 . S
C1225 C1226 1.376 . S
C1226 H1213 0.930 . S
C1226 C1225 1.376 . S
C1226 C1227 1.388 . S
C1227 H1214 0.930 . S
C1227 C1226 1.388 . S
C1227 C1228 1.390 . S
C1228 C1227 1.390 . S
C1228 C1229 1.394 . S
C1228 C1234 1.465 . S
C1229 C1224 1.399 . S
C1229 C1228 1.394 . S
C1229 C1230 1.516 . S
C1230 C1229 1.516 . S
C1230 C1231 1.502 . S
C1230 C1232 1.561 . S
C1230 C1233 1.526 . S
C1231 H1215 0.959 . S
C1231 H1216 0.959 . S
C1231 H1217 0.961 . S
C1231 C1230 1.502 . S
C1232 H1218 0.960 . S
C1232 H1219 0.961 . S
C1232 H1220 0.959 . S
C1232 C1230 1.561 . S
C1233 C1230 1.526 . S
C1233 C1234 1.396 . S
C1233 C1238 1.390 . S
C1234 C1228 1.465 . S
C1234 C1233 1.396 . S
C1234 C1235 1.399 . S
C1235 H1221 0.929 . S
C1235 C1234 1.399 . S
C1235 C1236 1.385 . S
C1236 H1222 0.931 . S
C1236 C1235 1.385 . S
C1236 C1237 1.389 . S
C1237 C1236 1.389 . S
C1237 C1238 1.387 . S
C1238 H1223 0.930 . S
C1238 C1233 1.390 . S
C1238 C1237 1.387 . S
H1239 C1251 0.930 . S
H1240 C1253 0.930 . S
H1241 C1254 0.930 . S
H1242 C1258 0.962 . S
H1243 C1258 0.978 . S
H1244 C1258 0.940 1_554 S
H1245 C1259 0.958 1_554 S
H1246 C1259 0.962 . S
H1247 C1259 0.959 . S
H1248 C1262 0.929 . S
H1249 C1263 0.931 . S
H1250 C1265 0.930 . S
C1251 H1239 0.930 . S
C1251 C1252 1.399 . S
C1251 C1256 1.399 . S
C1252 C1251 1.399 . S
C1252 C1253 1.376 . S
C1253 H1240 0.930 . S
C1253 C1252 1.376 . S
C1253 C1254 1.388 . S
C1254 H1241 0.930 . S
C1254 C1253 1.388 . S
C1254 C1255 1.390 . S
C1255 C1254 1.390 . S
C1255 C1256 1.394 . S
C1255 C1261 1.465 1_554 S
C1256 C1251 1.399 . S
C1256 C1255 1.394 . S
C1256 C1257 1.518 1_554 S
C1257 C1256 1.518 1_556 S
C1257 C1258 1.502 . S
C1257 C1259 1.561 . S
C1257 C1260 1.524 . S
C1258 H1242 0.962 . S
C1258 H1243 0.978 . S
C1258 H1244 0.940 1_556 S
C1258 C1257 1.502 . S
C1259 H1245 0.958 1_556 S
C1259 H1246 0.962 . S
C1259 H1247 0.959 . S
C1259 C1257 1.561 . S
C1260 C1257 1.524 . S
C1260 C1261 1.396 . S
C1260 C1265 1.390 . S
C1261 C1255 1.465 1_556 S
C1261 C1260 1.396 . S
C1261 C1262 1.399 . S
C1262 H1248 0.929 . S
C1262 C1261 1.399 . S
C1262 C1263 1.385 . S
C1263 H1249 0.931 . S
C1263 C1262 1.385 . S
C1263 C1264 1.389 . S
C1264 C1263 1.389 . S
C1264 C1265 1.387 . S
C1265 H1250 0.930 . S
C1265 C1260 1.390 . S
C1265 C1264 1.387 . S
H1266 C1278 0.930 . S
H1267 C1280 0.930 . S
H1268 C1281 0.930 . S
H1269 C1285 0.959 . S
H1270 C1285 0.959 . S
H1271 C1285 0.961 . S
H1272 C1286 0.960 . S
H1273 C1286 0.961 . S
H1274 C1286 0.959 . S
H1275 C1289 0.929 . S
H1276 C1290 0.931 . S
H1277 C1292 0.930 . S
C1278 H1266 0.930 . S
C1278 C1279 1.399 . S
C1278 C1283 1.399 . S
C1279 C1278 1.399 . S
C1279 C1280 1.376 . S
C1280 H1267 0.930 . S
C1280 C1279 1.376 . S
C1280 C1281 1.388 . S
C1281 H1268 0.930 . S
C1281 C1280 1.388 . S
C1281 C1282 1.390 . S
C1282 C1281 1.390 . S
C1282 C1283 1.394 . S
C1282 C1288 1.465 . S
C1283 C1278 1.399 . S
C1283 C1282 1.394 . S
C1283 C1284 1.516 . S
C1284 C1283 1.516 . S
C1284 C1285 1.502 . S
C1284 C1286 1.561 . S
C1284 C1287 1.526 . S
C1285 H1269 0.959 . S
C1285 H1270 0.959 . S
C1285 H1271 0.961 . S
C1285 C1284 1.502 . S
C1286 H1272 0.960 . S
C1286 H1273 0.961 . S
C1286 H1274 0.959 . S
C1286 C1284 1.561 . S
C1287 C1284 1.526 . S
C1287 C1288 1.396 . S
C1287 C1292 1.390 . S
C1288 C1282 1.465 . S
C1288 C1287 1.396 . S
C1288 C1289 1.399 . S
C1289 H1275 0.929 . S
C1289 C1288 1.399 . S
C1289 C1290 1.385 . S
C1290 H1276 0.931 . S
C1290 C1289 1.385 . S
C1290 C1291 1.389 . S
C1291 C1290 1.389 . S
C1291 C1292 1.387 . S
C1292 H1277 0.930 . S
C1292 C1287 1.390 . S
C1292 C1291 1.387 . S
H1293 C1305 0.930 . S
H1294 C1307 0.930 . S
H1295 C1308 0.930 . S
H1296 C1312 0.959 . S
H1297 C1312 0.959 . S
H1298 C1312 0.961 . S
H1299 C1313 0.960 . S
H1300 C1313 0.961 . S
H1301 C1313 0.959 . S
H1302 C1316 0.929 . S
H1303 C1317 0.931 . S
H1304 C1319 0.930 . S
C1305 H1293 0.930 . S
C1305 C1306 1.399 . S
C1305 C1310 1.399 . S
C1306 C1305 1.399 . S
C1306 C1307 1.376 . S
C1307 H1294 0.930 . S
C1307 C1306 1.376 . S
C1307 C1308 1.388 . S
C1308 H1295 0.930 . S
C1308 C1307 1.388 . S
C1308 C1309 1.390 . S
C1309 C1308 1.390 . S
C1309 C1310 1.394 . S
C1309 C1315 1.465 . S
C1310 C1305 1.399 . S
C1310 C1309 1.394 . S
C1310 C1311 1.516 . S
C1311 C1310 1.516 . S
C1311 C1312 1.502 . S
C1311 C1313 1.561 . S
C1311 C1314 1.526 . S
C1312 H1296 0.959 . S
C1312 H1297 0.959 . S
C1312 H1298 0.961 . S
C1312 C1311 1.502 . S
C1313 H1299 0.960 . S
C1313 H1300 0.961 . S
C1313 H1301 0.959 . S
C1313 C1311 1.561 . S
C1314 C1311 1.526 . S
C1314 C1315 1.396 . S
C1314 C1319 1.390 . S
C1315 C1309 1.465 . S
C1315 C1314 1.396 . S
C1315 C1316 1.399 . S
C1316 H1302 0.929 . S
C1316 C1315 1.399 . S
C1316 C1317 1.385 . S
C1317 H1303 0.931 . S
C1317 C1316 1.385 . S
C1317 C1318 1.389 . S
C1318 C1317 1.389 . S
C1318 C1319 1.387 . S
C1319 H1304 0.930 . S
C1319 C1314 1.390 . S
C1319 C1318 1.387 . S
H1320 C1332 0.930 . S
H1321 C1334 0.930 . S
H1322 C1335 0.930 . S
H1323 C1339 0.959 . S
H1324 C1339 0.959 . S
H1325 C1339 0.961 . S
H1326 C1340 0.960 . S
H1327 C1340 0.961 . S
H1328 C1340 0.959 . S
H1329 C1343 0.929 . S
H1330 C1344 0.931 . S
H1331 C1346 0.930 . S
C1332 H1320 0.930 . S
C1332 C1333 1.399 . S
C1332 C1337 1.399 . S
C1333 C1332 1.399 . S
C1333 C1334 1.376 . S
C1334 H1321 0.930 . S
C1334 C1333 1.376 . S
C1334 C1335 1.388 . S
C1335 H1322 0.930 . S
C1335 C1334 1.388 . S
C1335 C1336 1.390 . S
C1336 C1335 1.390 . S
C1336 C1337 1.394 . S
C1336 C1342 1.465 . S
C1337 C1332 1.399 . S
C1337 C1336 1.394 . S
C1337 C1338 1.516 . S
C1338 C1337 1.516 . S
C1338 C1339 1.502 . S
C1338 C1340 1.561 . S
C1338 C1341 1.526 . S
C1339 H1323 0.959 . S
C1339 H1324 0.959 . S
C1339 H1325 0.961 . S
C1339 C1338 1.502 . S
C1340 H1326 0.960 . S
C1340 H1327 0.961 . S
C1340 H1328 0.959 . S
C1340 C1338 1.561 . S
C1341 C1338 1.526 . S
C1341 C1342 1.396 . S
C1341 C1346 1.390 . S
C1342 C1336 1.465 . S
C1342 C1341 1.396 . S
C1342 C1343 1.399 . S
C1343 H1329 0.929 . S
C1343 C1342 1.399 . S
C1343 C1344 1.385 . S
C1344 H1330 0.931 . S
C1344 C1343 1.385 . S
C1344 C1345 1.389 . S
C1345 C1344 1.389 . S
C1345 C1346 1.387 . S
C1346 H1331 0.930 . S
C1346 C1341 1.390 . S
C1346 C1345 1.387 . S
H1347 C1359 0.930 . S
H1348 C1361 0.930 . S
H1349 C1362 0.930 . S
H1350 C1366 0.959 . S
H1351 C1366 0.959 . S
H1352 C1366 0.961 . S
H1353 C1367 0.960 . S
H1354 C1367 0.961 . S
H1355 C1367 0.959 . S
H1356 C1370 0.929 . S
H1357 C1371 0.931 . S
H1358 C1373 0.930 . S
C1359 H1347 0.930 . S
C1359 C1360 1.399 . S
C1359 C1364 1.399 . S
C1360 C1359 1.399 . S
C1360 C1361 1.376 . S
C1361 H1348 0.930 . S
C1361 C1360 1.376 . S
C1361 C1362 1.388 . S
C1362 H1349 0.930 . S
C1362 C1361 1.388 . S
C1362 C1363 1.390 . S
C1363 C1362 1.390 . S
C1363 C1364 1.394 . S
C1363 C1369 1.465 . S
C1364 C1359 1.399 . S
C1364 C1363 1.394 . S
C1364 C1365 1.516 . S
C1365 C1364 1.516 . S
C1365 C1366 1.502 . S
C1365 C1367 1.561 . S
C1365 C1368 1.526 . S
C1366 H1350 0.959 . S
C1366 H1351 0.959 . S
C1366 H1352 0.961 . S
C1366 C1365 1.502 . S
C1367 H1353 0.960 . S
C1367 H1354 0.961 . S
C1367 H1355 0.959 . S
C1367 C1365 1.561 . S
C1368 C1365 1.526 . S
C1368 C1369 1.396 . S
C1368 C1373 1.390 . S
C1369 C1363 1.465 . S
C1369 C1368 1.396 . S
C1369 C1370 1.399 . S
C1370 H1356 0.929 . S
C1370 C1369 1.399 . S
C1370 C1371 1.385 . S
C1371 H1357 0.931 . S
C1371 C1370 1.385 . S
C1371 C1372 1.389 . S
C1372 C1371 1.389 . S
C1372 C1373 1.387 . S
C1373 H1358 0.930 . S
C1373 C1368 1.390 . S
C1373 C1372 1.387 . S
H1374 C1386 0.930 . S
H1375 C1388 0.930 . S
H1376 C1389 0.930 . S
H1377 C1393 0.959 . S
H1378 C1393 0.959 . S
H1379 C1393 0.961 . S
H1380 C1394 0.960 . S
H1381 C1394 0.961 . S
H1382 C1394 0.959 . S
H1383 C1397 0.929 . S
H1384 C1398 0.931 . S
H1385 C1400 0.930 . S
C1386 H1374 0.930 . S
C1386 C1387 1.399 . S
C1386 C1391 1.399 . S
C1387 C1386 1.399 . S
C1387 C1388 1.376 . S
C1388 H1375 0.930 . S
C1388 C1387 1.376 . S
C1388 C1389 1.388 . S
C1389 H1376 0.930 . S
C1389 C1388 1.388 . S
C1389 C1390 1.390 . S
C1390 C1389 1.390 . S
C1390 C1391 1.394 . S
C1390 C1396 1.465 . S
C1391 C1386 1.399 . S
C1391 C1390 1.394 . S
C1391 C1392 1.516 . S
C1392 C1391 1.516 . S
C1392 C1393 1.502 . S
C1392 C1394 1.561 . S
C1392 C1395 1.526 . S
C1393 H1377 0.959 . S
C1393 H1378 0.959 . S
C1393 H1379 0.961 . S
C1393 C1392 1.502 . S
C1394 H1380 0.960 . S
C1394 H1381 0.961 . S
C1394 H1382 0.959 . S
C1394 C1392 1.561 . S
C1395 C1392 1.526 . S
C1395 C1396 1.396 . S
C1395 C1400 1.390 . S
C1396 C1390 1.465 . S
C1396 C1395 1.396 . S
C1396 C1397 1.399 . S
C1397 H1383 0.929 . S
C1397 C1396 1.399 . S
C1397 C1398 1.385 . S
C1398 H1384 0.931 . S
C1398 C1397 1.385 . S
C1398 C1399 1.389 . S
C1399 C1398 1.389 . S
C1399 C1400 1.387 . S
C1400 H1385 0.930 . S
C1400 C1395 1.390 . S
C1400 C1399 1.387 . S
H1401 C1413 0.930 . S
H1402 C1415 0.930 . S
H1403 C1416 0.930 . S
H1404 C1420 0.959 . S
H1405 C1420 0.959 . S
H1406 C1420 0.961 . S
H1407 C1421 0.960 . S
H1408 C1421 0.961 . S
H1409 C1421 0.959 . S
H1410 C1424 0.929 . S
H1411 C1425 0.931 . S
H1412 C1427 0.930 . S
C1413 H1401 0.930 . S
C1413 C1414 1.399 . S
C1413 C1418 1.399 . S
C1414 C1413 1.399 . S
C1414 C1415 1.376 . S
C1415 H1402 0.930 . S
C1415 C1414 1.376 . S
C1415 C1416 1.388 . S
C1416 H1403 0.930 . S
C1416 C1415 1.388 . S
C1416 C1417 1.390 . S
C1417 C1416 1.390 . S
C1417 C1418 1.394 . S
C1417 C1423 1.465 . S
C1418 C1413 1.399 . S
C1418 C1417 1.394 . S
C1418 C1419 1.516 . S
C1419 C1418 1.516 . S
C1419 C1420 1.502 . S
C1419 C1421 1.561 . S
C1419 C1422 1.526 . S
C1420 H1404 0.959 . S
C1420 H1405 0.959 . S
C1420 H1406 0.961 . S
C1420 C1419 1.502 . S
C1421 H1407 0.960 . S
C1421 H1408 0.961 . S
C1421 H1409 0.959 . S
C1421 C1419 1.561 . S
C1422 C1419 1.526 . S
C1422 C1423 1.396 . S
C1422 C1427 1.390 . S
C1423 C1417 1.465 . S
C1423 C1422 1.396 . S
C1423 C1424 1.399 . S
C1424 H1410 0.929 . S
C1424 C1423 1.399 . S
C1424 C1425 1.385 . S
C1425 H1411 0.931 . S
C1425 C1424 1.385 . S
C1425 C1426 1.389 . S
C1426 C1425 1.389 . S
C1426 C1427 1.387 . S
C1427 H1412 0.930 . S
C1427 C1422 1.390 . S
C1427 C1426 1.387 . S
H1428 C1440 0.930 . S
H1429 C1442 0.930 . S
H1430 C1443 0.930 . S
H1431 C1447 0.959 . S
H1432 C1447 0.959 . S
H1433 C1447 0.961 . S
H1434 C1448 0.960 . S
H1435 C1448 0.961 . S
H1436 C1448 0.959 . S
H1437 C1451 0.929 . S
H1438 C1452 0.931 . S
H1439 C1454 0.930 . S
C1440 H1428 0.930 . S
C1440 C1441 1.399 . S
C1440 C1445 1.399 . S
C1441 C1440 1.399 . S
C1441 C1442 1.376 . S
C1442 H1429 0.930 . S
C1442 C1441 1.376 . S
C1442 C1443 1.388 . S
C1443 H1430 0.930 . S
C1443 C1442 1.388 . S
C1443 C1444 1.390 . S
C1444 C1443 1.390 . S
C1444 C1445 1.394 . S
C1444 C1450 1.465 . S
C1445 C1440 1.399 . S
C1445 C1444 1.394 . S
C1445 C1446 1.516 . S
C1446 C1445 1.516 . S
C1446 C1447 1.502 . S
C1446 C1448 1.561 . S
C1446 C1449 1.526 . S
C1447 H1431 0.959 . S
C1447 H1432 0.959 . S
C1447 H1433 0.961 . S
C1447 C1446 1.502 . S
C1448 H1434 0.960 . S
C1448 H1435 0.961 . S
C1448 H1436 0.959 . S
C1448 C1446 1.561 . S
C1449 C1446 1.526 . S
C1449 C1450 1.396 . S
C1449 C1454 1.390 . S
C1450 C1444 1.465 . S
C1450 C1449 1.396 . S
C1450 C1451 1.399 . S
C1451 H1437 0.929 . S
C1451 C1450 1.399 . S
C1451 C1452 1.385 . S
C1452 H1438 0.931 . S
C1452 C1451 1.385 . S
C1452 C1453 1.389 . S
C1453 C1452 1.389 . S
C1453 C1454 1.387 . S
C1454 H1439 0.930 . S
C1454 C1449 1.390 . S
C1454 C1453 1.387 . S
H1455 C1467 0.930 . S
H1456 C1469 0.930 . S
H1457 C1470 0.930 . S
H1458 C1474 0.959 . S
H1459 C1474 0.959 . S
H1460 C1474 0.961 . S
H1461 C1475 0.960 . S
H1462 C1475 0.961 . S
H1463 C1475 0.959 . S
H1464 C1478 0.929 . S
H1465 C1479 0.931 . S
H1466 C1481 0.930 . S
C1467 H1455 0.930 . S
C1467 C1468 1.399 . S
C1467 C1472 1.399 . S
C1468 C1467 1.399 . S
C1468 C1469 1.376 . S
C1469 H1456 0.930 . S
C1469 C1468 1.376 . S
C1469 C1470 1.388 . S
C1470 H1457 0.930 . S
C1470 C1469 1.388 . S
C1470 C1471 1.390 . S
C1471 C1470 1.390 . S
C1471 C1472 1.394 . S
C1471 C1477 1.465 . S
C1472 C1467 1.399 . S
C1472 C1471 1.394 . S
C1472 C1473 1.516 . S
C1473 C1472 1.516 . S
C1473 C1474 1.502 . S
C1473 C1475 1.561 . S
C1473 C1476 1.526 . S
C1474 H1458 0.959 . S
C1474 H1459 0.959 . S
C1474 H1460 0.961 . S
C1474 C1473 1.502 . S
C1475 H1461 0.960 . S
C1475 H1462 0.961 . S
C1475 H1463 0.959 . S
C1475 C1473 1.561 . S
C1476 C1473 1.526 . S
C1476 C1477 1.396 . S
C1476 C1481 1.390 . S
C1477 C1471 1.465 . S
C1477 C1476 1.396 . S
C1477 C1478 1.399 . S
C1478 H1464 0.929 . S
C1478 C1477 1.399 . S
C1478 C1479 1.385 . S
C1479 H1465 0.931 . S
C1479 C1478 1.385 . S
C1479 C1480 1.389 . S
C1480 C1479 1.389 . S
C1480 C1481 1.387 . S
C1481 H1466 0.930 . S
C1481 C1476 1.390 . S
C1481 C1480 1.387 . S
H1482 C1494 0.930 . S
H1483 C1496 0.930 . S
H1484 C1497 0.930 . S
H1485 C1501 0.959 . S
H1486 C1501 0.959 . S
H1487 C1501 0.961 . S
H1488 C1502 0.960 . S
H1489 C1502 0.961 . S
H1490 C1502 0.959 . S
H1491 C1505 0.929 . S
H1492 C1506 0.931 . S
H1493 C1508 0.930 . S
C1494 H1482 0.930 . S
C1494 C1495 1.399 . S
C1494 C1499 1.399 . S
C1495 C1494 1.399 . S
C1495 C1496 1.376 . S
C1496 H1483 0.930 . S
C1496 C1495 1.376 . S
C1496 C1497 1.388 . S
C1497 H1484 0.930 . S
C1497 C1496 1.388 . S
C1497 C1498 1.390 . S
C1498 C1497 1.390 . S
C1498 C1499 1.394 . S
C1498 C1504 1.465 . S
C1499 C1494 1.399 . S
C1499 C1498 1.394 . S
C1499 C1500 1.516 . S
C1500 C1499 1.516 . S
C1500 C1501 1.502 . S
C1500 C1502 1.561 . S
C1500 C1503 1.526 . S
C1501 H1485 0.959 . S
C1501 H1486 0.959 . S
C1501 H1487 0.961 . S
C1501 C1500 1.502 . S
C1502 H1488 0.960 . S
C1502 H1489 0.961 . S
C1502 H1490 0.959 . S
C1502 C1500 1.561 . S
C1503 C1500 1.526 . S
C1503 C1504 1.396 . S
C1503 C1508 1.390 . S
C1504 C1498 1.465 . S
C1504 C1503 1.396 . S
C1504 C1505 1.399 . S
C1505 H1491 0.929 . S
C1505 C1504 1.399 . S
C1505 C1506 1.385 . S
C1506 H1492 0.931 . S
C1506 C1505 1.385 . S
C1506 C1507 1.389 . S
C1507 C1506 1.389 . S
C1507 C1508 1.387 . S
C1508 H1493 0.930 . S
C1508 C1503 1.390 . S
C1508 C1507 1.387 . S
H1509 C1521 0.930 . S
H1510 C1523 0.930 . S
H1511 C1524 0.930 . S
H1512 C1528 0.959 . S
H1513 C1528 0.959 . S
H1514 C1528 0.961 . S
H1515 C1529 0.960 . S
H1516 C1529 0.961 . S
H1517 C1529 0.959 . S
H1518 C1532 0.929 . S
H1519 C1533 0.931 . S
H1520 C1535 0.930 . S
C1521 H1509 0.930 . S
C1521 C1522 1.399 . S
C1521 C1526 1.399 . S
C1522 C1521 1.399 . S
C1522 C1523 1.376 . S
C1523 H1510 0.930 . S
C1523 C1522 1.376 . S
C1523 C1524 1.388 . S
C1524 H1511 0.930 . S
C1524 C1523 1.388 . S
C1524 C1525 1.390 . S
C1525 C1524 1.390 . S
C1525 C1526 1.394 . S
C1525 C1531 1.465 . S
C1526 C1521 1.399 . S
C1526 C1525 1.394 . S
C1526 C1527 1.516 . S
C1527 C1526 1.516 . S
C1527 C1528 1.502 . S
C1527 C1529 1.561 . S
C1527 C1530 1.526 . S
C1528 H1512 0.959 . S
C1528 H1513 0.959 . S
C1528 H1514 0.961 . S
C1528 C1527 1.502 . S
C1529 H1515 0.960 . S
C1529 H1516 0.961 . S
C1529 H1517 0.959 . S
C1529 C1527 1.561 . S
C1530 C1527 1.526 . S
C1530 C1531 1.396 . S
C1530 C1535 1.390 . S
C1531 C1525 1.465 . S
C1531 C1530 1.396 . S
C1531 C1532 1.399 . S
C1532 H1518 0.929 . S
C1532 C1531 1.399 . S
C1532 C1533 1.385 . S
C1533 H1519 0.931 . S
C1533 C1532 1.385 . S
C1533 C1534 1.389 . S
C1534 C1533 1.389 . S
C1534 C1535 1.387 . S
C1535 H1520 0.930 . S
C1535 C1530 1.390 . S
C1535 C1534 1.387 . S
H1536 C1548 0.930 . S
H1537 C1550 0.930 . S
H1538 C1551 0.930 . S
H1539 C1555 0.959 . S
H1540 C1555 0.959 . S
H1541 C1555 0.961 . S
H1542 C1556 0.960 . S
H1543 C1556 0.961 . S
H1544 C1556 0.959 . S
H1545 C1559 0.929 . S
H1546 C1560 0.931 . S
H1547 C1562 0.930 . S
C1548 H1536 0.930 . S
C1548 C1549 1.399 . S
C1548 C1553 1.399 . S
C1549 C1548 1.399 . S
C1549 C1550 1.376 . S
C1550 H1537 0.930 . S
C1550 C1549 1.376 . S
C1550 C1551 1.388 . S
C1551 H1538 0.930 . S
C1551 C1550 1.388 . S
C1551 C1552 1.390 . S
C1552 C1551 1.390 . S
C1552 C1553 1.394 . S
C1552 C1558 1.465 . S
C1553 C1548 1.399 . S
C1553 C1552 1.394 . S
C1553 C1554 1.516 . S
C1554 C1553 1.516 . S
C1554 C1555 1.502 . S
C1554 C1556 1.561 . S
C1554 C1557 1.526 . S
C1555 H1539 0.959 . S
C1555 H1540 0.959 . S
C1555 H1541 0.961 . S
C1555 C1554 1.502 . S
C1556 H1542 0.960 . S
C1556 H1543 0.961 . S
C1556 H1544 0.959 . S
C1556 C1554 1.561 . S
C1557 C1554 1.526 . S
C1557 C1558 1.396 . S
C1557 C1562 1.390 . S
C1558 C1552 1.465 . S
C1558 C1557 1.396 . S
C1558 C1559 1.399 . S
C1559 H1545 0.929 . S
C1559 C1558 1.399 . S
C1559 C1560 1.385 . S
C1560 H1546 0.931 . S
C1560 C1559 1.385 . S
C1560 C1561 1.389 . S
C1561 C1560 1.389 . S
C1561 C1562 1.387 . S
C1562 H1547 0.930 . S
C1562 C1557 1.390 . S
C1562 C1561 1.387 . S
H1563 C1575 0.930 . S
H1564 C1577 0.930 . S
H1565 C1578 0.930 . S
H1566 C1582 0.959 . S
H1567 C1582 0.959 . S
H1568 C1582 0.961 . S
H1569 C1583 0.960 . S
H1570 C1583 0.961 . S
H1571 C1583 0.959 . S
H1572 C1586 0.929 . S
H1573 C1587 0.931 . S
H1574 C1589 0.930 . S
C1575 H1563 0.930 . S
C1575 C1576 1.399 . S
C1575 C1580 1.399 . S
C1576 C1575 1.399 . S
C1576 C1577 1.376 . S
C1577 H1564 0.930 . S
C1577 C1576 1.376 . S
C1577 C1578 1.388 . S
C1578 H1565 0.930 . S
C1578 C1577 1.388 . S
C1578 C1579 1.390 . S
C1579 C1578 1.390 . S
C1579 C1580 1.394 . S
C1579 C1585 1.465 . S
C1580 C1575 1.399 . S
C1580 C1579 1.394 . S
C1580 C1581 1.516 . S
C1581 C1580 1.516 . S
C1581 C1582 1.502 . S
C1581 C1583 1.561 . S
C1581 C1584 1.526 . S
C1582 H1566 0.959 . S
C1582 H1567 0.959 . S
C1582 H1568 0.961 . S
C1582 C1581 1.502 . S
C1583 H1569 0.960 . S
C1583 H1570 0.961 . S
C1583 H1571 0.959 . S
C1583 C1581 1.561 . S
C1584 C1581 1.526 . S
C1584 C1585 1.396 . S
C1584 C1589 1.390 . S
C1585 C1579 1.465 . S
C1585 C1584 1.396 . S
C1585 C1586 1.399 . S
C1586 H1572 0.929 . S
C1586 C1585 1.399 . S
C1586 C1587 1.385 . S
C1587 H1573 0.931 . S
C1587 C1586 1.385 . S
C1587 C1588 1.389 . S
C1588 C1587 1.389 . S
C1588 C1589 1.387 . S
C1589 H1574 0.930 . S
C1589 C1584 1.390 . S
C1589 C1588 1.387 . S
H1590 C1602 0.930 . S
H1591 C1604 0.930 . S
H1592 C1605 0.930 . S
H1593 C1609 0.959 . S
H1594 C1609 0.959 . S
H1595 C1609 0.961 . S
H1596 C1610 0.960 . S
H1597 C1610 0.961 . S
H1598 C1610 0.959 . S
H1599 C1613 0.929 . S
H1600 C1614 0.931 . S
H1601 C1616 0.930 . S
C1602 H1590 0.930 . S
C1602 C1603 1.399 . S
C1602 C1607 1.399 . S
C1603 C1602 1.399 . S
C1603 C1604 1.376 . S
C1604 H1591 0.930 . S
C1604 C1603 1.376 . S
C1604 C1605 1.388 . S
C1605 H1592 0.930 . S
C1605 C1604 1.388 . S
C1605 C1606 1.390 . S
C1606 C1605 1.390 . S
C1606 C1607 1.394 . S
C1606 C1612 1.465 . S
C1607 C1602 1.399 . S
C1607 C1606 1.394 . S
C1607 C1608 1.516 . S
C1608 C1607 1.516 . S
C1608 C1609 1.502 . S
C1608 C1610 1.561 . S
C1608 C1611 1.526 . S
C1609 H1593 0.959 . S
C1609 H1594 0.959 . S
C1609 H1595 0.961 . S
C1609 C1608 1.502 . S
C1610 H1596 0.960 . S
C1610 H1597 0.961 . S
C1610 H1598 0.959 . S
C1610 C1608 1.561 . S
C1611 C1608 1.526 . S
C1611 C1612 1.396 . S
C1611 C1616 1.390 . S
C1612 C1606 1.465 . S
C1612 C1611 1.396 . S
C1612 C1613 1.399 . S
C1613 H1599 0.929 . S
C1613 C1612 1.399 . S
C1613 C1614 1.385 . S
C1614 H1600 0.931 . S
C1614 C1613 1.385 . S
C1614 C1615 1.389 . S
C1615 C1614 1.389 . S
C1615 C1616 1.387 . S
C1616 H1601 0.930 . S
C1616 C1611 1.390 . S
C1616 C1615 1.387 . S
H1617 C1629 0.930 . S
H1618 C1631 0.930 . S
H1619 C1632 0.930 . S
H1620 C1636 0.959 . S
H1621 C1636 0.959 . S
H1622 C1636 0.961 . S
H1623 C1637 0.960 . S
H1624 C1637 0.961 . S
H1625 C1637 0.959 . S
H1626 C1640 0.929 . S
H1627 C1641 0.931 . S
H1628 C1643 0.930 . S
C1629 H1617 0.930 . S
C1629 C1630 1.399 . S
C1629 C1634 1.399 . S
C1630 C1629 1.399 . S
C1630 C1631 1.376 . S
C1631 H1618 0.930 . S
C1631 C1630 1.376 . S
C1631 C1632 1.388 . S
C1632 H1619 0.930 . S
C1632 C1631 1.388 . S
C1632 C1633 1.390 . S
C1633 C1632 1.390 . S
C1633 C1634 1.394 . S
C1633 C1639 1.465 . S
C1634 C1629 1.399 . S
C1634 C1633 1.394 . S
C1634 C1635 1.516 . S
C1635 C1634 1.516 . S
C1635 C1636 1.502 . S
C1635 C1637 1.561 . S
C1635 C1638 1.526 . S
C1636 H1620 0.959 . S
C1636 H1621 0.959 . S
C1636 H1622 0.961 . S
C1636 C1635 1.502 . S
C1637 H1623 0.960 . S
C1637 H1624 0.961 . S
C1637 H1625 0.959 . S
C1637 C1635 1.561 . S
C1638 C1635 1.526 . S
C1638 C1639 1.396 . S
C1638 C1643 1.390 . S
C1639 C1633 1.465 . S
C1639 C1638 1.396 . S
C1639 C1640 1.399 . S
C1640 H1626 0.929 . S
C1640 C1639 1.399 . S
C1640 C1641 1.385 . S
C1641 H1627 0.931 . S
C1641 C1640 1.385 . S
C1641 C1642 1.389 . S
C1642 C1641 1.389 . S
C1642 C1643 1.387 . S
C1643 H1628 0.930 . S
C1643 C1638 1.390 . S
C1643 C1642 1.387 . S
H1644 C1656 0.930 . S
H1645 C1658 0.930 . S
H1646 C1659 0.930 . S
H1647 C1663 0.959 . S
H1648 C1663 0.959 . S
H1649 C1663 0.961 . S
H1650 C1664 0.960 . S
H1651 C1664 0.961 . S
H1652 C1664 0.959 . S
H1653 C1667 0.929 . S
H1654 C1668 0.931 . S
H1655 C1670 0.930 . S
C1656 H1644 0.930 . S
C1656 C1657 1.399 . S
C1656 C1661 1.399 . S
C1657 C1656 1.399 . S
C1657 C1658 1.376 . S
C1658 H1645 0.930 . S
C1658 C1657 1.376 . S
C1658 C1659 1.388 . S
C1659 H1646 0.930 . S
C1659 C1658 1.388 . S
C1659 C1660 1.390 . S
C1660 C1659 1.390 . S
C1660 C1661 1.394 . S
C1660 C1666 1.465 . S
C1661 C1656 1.399 . S
C1661 C1660 1.394 . S
C1661 C1662 1.516 . S
C1662 C1661 1.516 . S
C1662 C1663 1.502 . S
C1662 C1664 1.561 . S
C1662 C1665 1.526 . S
C1663 H1647 0.959 . S
C1663 H1648 0.959 . S
C1663 H1649 0.961 . S
C1663 C1662 1.502 . S
C1664 H1650 0.960 . S
C1664 H1651 0.961 . S
C1664 H1652 0.959 . S
C1664 C1662 1.561 . S
C1665 C1662 1.526 . S
C1665 C1666 1.396 . S
C1665 C1670 1.390 . S
C1666 C1660 1.465 . S
C1666 C1665 1.396 . S
C1666 C1667 1.399 . S
C1667 H1653 0.929 . S
C1667 C1666 1.399 . S
C1667 C1668 1.385 . S
C1668 H1654 0.931 . S
C1668 C1667 1.385 . S
C1668 C1669 1.389 . S
C1669 C1668 1.389 . S
C1669 C1670 1.387 . S
C1670 H1655 0.930 . S
C1670 C1665 1.390 . S
C1670 C1669 1.387 . S
H1671 C1683 0.930 . S
H1672 C1685 0.930 . S
H1673 C1686 0.930 . S
H1674 C1690 0.959 . S
H1675 C1690 0.959 . S
H1676 C1690 0.961 . S
H1677 C1691 0.960 . S
H1678 C1691 0.961 . S
H1679 C1691 0.959 . S
H1680 C1694 0.929 . S
H1681 C1695 0.931 . S
H1682 C1697 0.930 . S
C1683 H1671 0.930 . S
C1683 C1684 1.399 . S
C1683 C1688 1.399 . S
C1684 C1683 1.399 . S
C1684 C1685 1.376 . S
C1685 H1672 0.930 . S
C1685 C1684 1.376 . S
C1685 C1686 1.388 . S
C1686 H1673 0.930 . S
C1686 C1685 1.388 . S
C1686 C1687 1.390 . S
C1687 C1686 1.390 . S
C1687 C1688 1.394 . S
C1687 C1693 1.465 . S
C1688 C1683 1.399 . S
C1688 C1687 1.394 . S
C1688 C1689 1.516 . S
C1689 C1688 1.516 . S
C1689 C1690 1.502 . S
C1689 C1691 1.561 . S
C1689 C1692 1.526 . S
C1690 H1674 0.959 . S
C1690 H1675 0.959 . S
C1690 H1676 0.961 . S
C1690 C1689 1.502 . S
C1691 H1677 0.960 . S
C1691 H1678 0.961 . S
C1691 H1679 0.959 . S
C1691 C1689 1.561 . S
C1692 C1689 1.526 . S
C1692 C1693 1.396 . S
C1692 C1697 1.390 . S
C1693 C1687 1.465 . S
C1693 C1692 1.396 . S
C1693 C1694 1.399 . S
C1694 H1680 0.929 . S
C1694 C1693 1.399 . S
C1694 C1695 1.385 . S
C1695 H1681 0.931 . S
C1695 C1694 1.385 . S
C1695 C1696 1.389 . S
C1696 C1695 1.389 . S
C1696 C1697 1.387 . S
C1697 H1682 0.930 . S
C1697 C1692 1.390 . S
C1697 C1696 1.387 . S
H1698 C1710 0.930 . S
H1699 C1712 0.930 . S
H1700 C1713 0.930 . S
H1701 C1717 0.959 . S
H1702 C1717 0.959 . S
H1703 C1717 0.961 . S
H1704 C1718 0.960 . S
H1705 C1718 0.961 . S
H1706 C1718 0.959 . S
H1707 C1721 0.929 . S
H1708 C1722 0.931 . S
H1709 C1724 0.930 . S
C1710 H1698 0.930 . S
C1710 C1711 1.399 . S
C1710 C1715 1.399 . S
C1711 C1710 1.399 . S
C1711 C1712 1.376 . S
C1712 H1699 0.930 . S
C1712 C1711 1.376 . S
C1712 C1713 1.388 . S
C1713 H1700 0.930 . S
C1713 C1712 1.388 . S
C1713 C1714 1.390 . S
C1714 C1713 1.390 . S
C1714 C1715 1.394 . S
C1714 C1720 1.465 . S
C1715 C1710 1.399 . S
C1715 C1714 1.394 . S
C1715 C1716 1.516 . S
C1716 C1715 1.516 . S
C1716 C1717 1.502 . S
C1716 C1718 1.561 . S
C1716 C1719 1.526 . S
C1717 H1701 0.959 . S
C1717 H1702 0.959 . S
C1717 H1703 0.961 . S
C1717 C1716 1.502 . S
C1718 H1704 0.960 . S
C1718 H1705 0.961 . S
C1718 H1706 0.959 . S
C1718 C1716 1.561 . S
C1719 C1716 1.526 . S
C1719 C1720 1.396 . S
C1719 C1724 1.390 . S
C1720 C1714 1.465 . S
C1720 C1719 1.396 . S
C1720 C1721 1.399 . S
C1721 H1707 0.929 . S
C1721 C1720 1.399 . S
C1721 C1722 1.385 . S
C1722 H1708 0.931 . S
C1722 C1721 1.385 . S
C1722 C1723 1.389 . S
C1723 C1722 1.389 . S
C1723 C1724 1.387 . S
C1724 H1709 0.930 . S
C1724 C1719 1.390 . S
C1724 C1723 1.387 . S
H1725 C1737 0.930 . S
H1726 C1739 0.930 . S
H1727 C1740 0.930 . S
H1728 C1744 0.959 . S
H1729 C1744 0.959 . S
H1730 C1744 0.961 . S
H1731 C1745 0.960 . S
H1732 C1745 0.961 . S
H1733 C1745 0.959 . S
H1734 C1748 0.929 . S
H1735 C1749 0.931 . S
H1736 C1751 0.930 . S
C1737 H1725 0.930 . S
C1737 C1738 1.399 . S
C1737 C1742 1.399 . S
C1738 C1737 1.399 . S
C1738 C1739 1.376 . S
C1739 H1726 0.930 . S
C1739 C1738 1.376 . S
C1739 C1740 1.388 . S
C1740 H1727 0.930 . S
C1740 C1739 1.388 . S
C1740 C1741 1.390 . S
C1741 C1740 1.390 . S
C1741 C1742 1.394 . S
C1741 C1747 1.465 . S
C1742 C1737 1.399 . S
C1742 C1741 1.394 . S
C1742 C1743 1.516 . S
C1743 C1742 1.516 . S
C1743 C1744 1.502 . S
C1743 C1745 1.561 . S
C1743 C1746 1.526 . S
C1744 H1728 0.959 . S
C1744 H1729 0.959 . S
C1744 H1730 0.961 . S
C1744 C1743 1.502 . S
C1745 H1731 0.960 . S
C1745 H1732 0.961 . S
C1745 H1733 0.959 . S
C1745 C1743 1.561 . S
C1746 C1743 1.526 . S
C1746 C1747 1.396 . S
C1746 C1751 1.390 . S
C1747 C1741 1.465 . S
C1747 C1746 1.396 . S
C1747 C1748 1.399 . S
C1748 H1734 0.929 . S
C1748 C1747 1.399 . S
C1748 C1749 1.385 . S
C1749 H1735 0.931 . S
C1749 C1748 1.385 . S
C1749 C1750 1.389 . S
C1750 C1749 1.389 . S
C1750 C1751 1.387 . S
C1751 H1736 0.930 . S
C1751 C1746 1.390 . S
C1751 C1750 1.387 . S
H1752 C1764 0.930 . S
H1753 C1766 0.930 . S
H1754 C1767 0.930 . S
H1755 C1771 0.959 . S
H1756 C1771 0.959 . S
H1757 C1771 0.961 . S
H1758 C1772 0.960 . S
H1759 C1772 0.961 . S
H1760 C1772 0.959 . S
H1761 C1775 0.929 . S
H1762 C1776 0.931 . S
H1763 C1778 0.930 . S
C1764 H1752 0.930 . S
C1764 C1765 1.399 . S
C1764 C1769 1.399 . S
C1765 C1764 1.399 . S
C1765 C1766 1.376 . S
C1766 H1753 0.930 . S
C1766 C1765 1.376 . S
C1766 C1767 1.388 . S
C1767 H1754 0.930 . S
C1767 C1766 1.388 . S
C1767 C1768 1.390 . S
C1768 C1767 1.390 . S
C1768 C1769 1.394 . S
C1768 C1774 1.465 . S
C1769 C1764 1.399 . S
C1769 C1768 1.394 . S
C1769 C1770 1.516 . S
C1770 C1769 1.516 . S
C1770 C1771 1.502 . S
C1770 C1772 1.561 . S
C1770 C1773 1.526 . S
C1771 H1755 0.959 . S
C1771 H1756 0.959 . S
C1771 H1757 0.961 . S
C1771 C1770 1.502 . S
C1772 H1758 0.960 . S
C1772 H1759 0.961 . S
C1772 H1760 0.959 . S
C1772 C1770 1.561 . S
C1773 C1770 1.526 . S
C1773 C1774 1.396 . S
C1773 C1778 1.390 . S
C1774 C1768 1.465 . S
C1774 C1773 1.396 . S
C1774 C1775 1.399 . S
C1775 H1761 0.929 . S
C1775 C1774 1.399 . S
C1775 C1776 1.385 . S
C1776 H1762 0.931 . S
C1776 C1775 1.385 . S
C1776 C1777 1.389 . S
C1777 C1776 1.389 . S
C1777 C1778 1.387 . S
C1778 H1763 0.930 . S
C1778 C1773 1.390 . S
C1778 C1777 1.387 . S
H1779 C1791 0.930 . S
H1780 C1793 0.930 . S
H1781 C1794 0.930 . S
H1782 C1798 0.959 . S
H1783 C1798 0.959 . S
H1784 C1798 0.961 . S
H1785 C1799 0.960 . S
H1786 C1799 0.961 . S
H1787 C1799 0.959 . S
H1788 C1802 0.929 . S
H1789 C1803 0.931 . S
H1790 C1805 0.930 . S
C1791 H1779 0.930 . S
C1791 C1792 1.399 . S
C1791 C1796 1.399 . S
C1792 C1791 1.399 . S
C1792 C1793 1.376 . S
C1793 H1780 0.930 . S
C1793 C1792 1.376 . S
C1793 C1794 1.388 . S
C1794 H1781 0.930 . S
C1794 C1793 1.388 . S
C1794 C1795 1.390 . S
C1795 C1794 1.390 . S
C1795 C1796 1.394 . S
C1795 C1801 1.465 . S
C1796 C1791 1.399 . S
C1796 C1795 1.394 . S
C1796 C1797 1.516 . S
C1797 C1796 1.516 . S
C1797 C1798 1.502 . S
C1797 C1799 1.561 . S
C1797 C1800 1.526 . S
C1798 H1782 0.959 . S
C1798 H1783 0.959 . S
C1798 H1784 0.961 . S
C1798 C1797 1.502 . S
C1799 H1785 0.960 . S
C1799 H1786 0.961 . S
C1799 H1787 0.959 . S
C1799 C1797 1.561 . S
C1800 C1797 1.526 . S
C1800 C1801 1.396 . S
C1800 C1805 1.390 . S
C1801 C1795 1.465 . S
C1801 C1800 1.396 . S
C1801 C1802 1.399 . S
C1802 H1788 0.929 . S
C1802 C1801 1.399 . S
C1802 C1803 1.385 . S
C1803 H1789 0.931 . S
C1803 C1802 1.385 . S
C1803 C1804 1.389 . S
C1804 C1803 1.389 . S
C1804 C1805 1.387 . S
C1805 H1790 0.930 . S
C1805 C1800 1.390 . S
C1805 C1804 1.387 . S
H1806 C1818 0.930 . S
H1807 C1820 0.930 . S
H1808 C1821 0.930 . S
H1809 C1825 0.959 . S
H1810 C1825 0.959 . S
H1811 C1825 0.961 . S
H1812 C1826 0.960 . S
H1813 C1826 0.961 . S
H1814 C1826 0.959 . S
H1815 C1829 0.929 . S
H1816 C1830 0.931 . S
H1817 C1832 0.930 . S
C1818 H1806 0.930 . S
C1818 C1819 1.399 . S
C1818 C1823 1.399 . S
C1819 C1818 1.399 . S
C1819 C1820 1.376 . S
C1820 H1807 0.930 . S
C1820 C1819 1.376 . S
C1820 C1821 1.388 . S
C1821 H1808 0.930 . S
C1821 C1820 1.388 . S
C1821 C1822 1.390 . S
C1822 C1821 1.390 . S
C1822 C1823 1.394 . S
C1822 C1828 1.465 . S
C1823 C1818 1.399 . S
C1823 C1822 1.394 . S
C1823 C1824 1.516 . S
C1824 C1823 1.516 . S
C1824 C1825 1.502 . S
C1824 C1826 1.561 . S
C1824 C1827 1.526 . S
C1825 H1809 0.959 . S
C1825 H1810 0.959 . S
C1825 H1811 0.961 . S
C1825 C1824 1.502 . S
C1826 H1812 0.960 . S
C1826 H1813 0.961 . S
C1826 H1814 0.959 . S
C1826 C1824 1.561 . S
C1827 C1824 1.526 . S
C1827 C1828 1.396 . S
C1827 C1832 1.390 . S
C1828 C1822 1.465 . S
C1828 C1827 1.396 . S
C1828 C1829 1.399 . S
C1829 H1815 0.929 . S
C1829 C1828 1.399 . S
C1829 C1830 1.385 . S
C1830 H1816 0.931 . S
C1830 C1829 1.385 . S
C1830 C1831 1.389 . S
C1831 C1830 1.389 . S
C1831 C1832 1.387 . S
C1832 H1817 0.930 . S
C1832 C1827 1.390 . S
C1832 C1831 1.387 . S
H1833 C1845 0.930 . S
H1834 C1847 0.930 . S
H1835 C1848 0.930 . S
H1836 C1852 0.959 . S
H1837 C1852 0.959 . S
H1838 C1852 0.961 . S
H1839 C1853 0.960 . S
H1840 C1853 0.961 . S
H1841 C1853 0.959 . S
H1842 C1856 0.929 . S
H1843 C1857 0.931 . S
H1844 C1859 0.930 . S
C1845 H1833 0.930 . S
C1845 C1846 1.399 . S
C1845 C1850 1.399 . S
C1846 C1845 1.399 . S
C1846 C1847 1.376 . S
C1847 H1834 0.930 . S
C1847 C1846 1.376 . S
C1847 C1848 1.388 . S
C1848 H1835 0.930 . S
C1848 C1847 1.388 . S
C1848 C1849 1.390 . S
C1849 C1848 1.390 . S
C1849 C1850 1.394 . S
C1849 C1855 1.465 . S
C1850 C1845 1.399 . S
C1850 C1849 1.394 . S
C1850 C1851 1.516 . S
C1851 C1850 1.516 . S
C1851 C1852 1.502 . S
C1851 C1853 1.561 . S
C1851 C1854 1.526 . S
C1852 H1836 0.959 . S
C1852 H1837 0.959 . S
C1852 H1838 0.961 . S
C1852 C1851 1.502 . S
C1853 H1839 0.960 . S
C1853 H1840 0.961 . S
C1853 H1841 0.959 . S
C1853 C1851 1.561 . S
C1854 C1851 1.526 . S
C1854 C1855 1.396 . S
C1854 C1859 1.390 . S
C1855 C1849 1.465 . S
C1855 C1854 1.396 . S
C1855 C1856 1.399 . S
C1856 H1842 0.929 . S
C1856 C1855 1.399 . S
C1856 C1857 1.385 . S
C1857 H1843 0.931 . S
C1857 C1856 1.385 . S
C1857 C1858 1.389 . S
C1858 C1857 1.389 . S
C1858 C1859 1.387 . S
C1859 H1844 0.930 . S
C1859 C1854 1.390 . S
C1859 C1858 1.387 . S
H1860 C1872 0.930 . S
H1861 C1874 0.930 . S
H1862 C1875 0.930 . S
H1863 C1879 0.959 . S
H1864 C1879 0.959 . S
H1865 C1879 0.961 . S
H1866 C1880 0.960 . S
H1867 C1880 0.961 . S
H1868 C1880 0.959 . S
H1869 C1883 0.929 . S
H1870 C1884 0.931 . S
H1871 C1886 0.930 . S
C1872 H1860 0.930 . S
C1872 C1873 1.399 . S
C1872 C1877 1.399 . S
C1873 C1872 1.399 . S
C1873 C1874 1.376 . S
C1874 H1861 0.930 . S
C1874 C1873 1.376 . S
C1874 C1875 1.388 . S
C1875 H1862 0.930 . S
C1875 C1874 1.388 . S
C1875 C1876 1.390 . S
C1876 C1875 1.390 . S
C1876 C1877 1.394 . S
C1876 C1882 1.465 . S
C1877 C1872 1.399 . S
C1877 C1876 1.394 . S
C1877 C1878 1.516 . S
C1878 C1877 1.516 . S
C1878 C1879 1.502 . S
C1878 C1880 1.561 . S
C1878 C1881 1.526 . S
C1879 H1863 0.959 . S
C1879 H1864 0.959 . S
C1879 H1865 0.961 . S
C1879 C1878 1.502 . S
C1880 H1866 0.960 . S
C1880 H1867 0.961 . S
C1880 H1868 0.959 . S
C1880 C1878 1.561 . S
C1881 C1878 1.526 . S
C1881 C1882 1.396 . S
C1881 C1886 1.390 . S
C1882 C1876 1.465 . S
C1882 C1881 1.396 . S
C1882 C1883 1.399 . S
C1883 H1869 0.929 . S
C1883 C1882 1.399 . S
C1883 C1884 1.385 . S
C1884 H1870 0.931 . S
C1884 C1883 1.385 . S
C1884 C1885 1.389 . S
C1885 C1884 1.389 . S
C1885 C1886 1.387 . S
C1886 H1871 0.930 . S
C1886 C1881 1.390 . S
C1886 C1885 1.387 . S
H1887 C1899 0.930 . S
H1888 C1901 0.930 . S
H1889 C1902 0.930 . S
H1890 C1906 0.959 . S
H1891 C1906 0.959 . S
H1892 C1906 0.961 . S
H1893 C1907 0.960 . S
H1894 C1907 0.961 . S
H1895 C1907 0.959 . S
H1896 C1910 0.929 . S
H1897 C1911 0.931 . S
H1898 C1913 0.930 . S
C1899 H1887 0.930 . S
C1899 C1900 1.399 . S
C1899 C1904 1.399 . S
C1900 C1899 1.399 . S
C1900 C1901 1.376 . S
C1901 H1888 0.930 . S
C1901 C1900 1.376 . S
C1901 C1902 1.388 . S
C1902 H1889 0.930 . S
C1902 C1901 1.388 . S
C1902 C1903 1.390 . S
C1903 C1902 1.390 . S
C1903 C1904 1.394 . S
C1903 C1909 1.465 . S
C1904 C1899 1.399 . S
C1904 C1903 1.394 . S
C1904 C1905 1.516 . S
C1905 C1904 1.516 . S
C1905 C1906 1.502 . S
C1905 C1907 1.561 . S
C1905 C1908 1.526 . S
C1906 H1890 0.959 . S
C1906 H1891 0.959 . S
C1906 H1892 0.961 . S
C1906 C1905 1.502 . S
C1907 H1893 0.960 . S
C1907 H1894 0.961 . S
C1907 H1895 0.959 . S
C1907 C1905 1.561 . S
C1908 C1905 1.526 . S
C1908 C1909 1.396 . S
C1908 C1913 1.390 . S
C1909 C1903 1.465 . S
C1909 C1908 1.396 . S
C1909 C1910 1.399 . S
C1910 H1896 0.929 . S
C1910 C1909 1.399 . S
C1910 C1911 1.385 . S
C1911 H1897 0.931 . S
C1911 C1910 1.385 . S
C1911 C1912 1.389 . S
C1912 C1911 1.389 . S
C1912 C1913 1.387 . S
C1913 H1898 0.930 . S
C1913 C1908 1.390 . S
C1913 C1912 1.387 . S
H1914 C1926 0.930 . S
H1915 C1928 0.930 . S
H1916 C1929 0.930 . S
H1917 C1933 0.959 . S
H1918 C1933 0.959 . S
H1919 C1933 0.961 . S
H1920 C1934 0.960 . S
H1921 C1934 0.961 . S
H1922 C1934 0.959 . S
H1923 C1937 0.929 . S
H1924 C1938 0.931 . S
H1925 C1940 0.930 . S
C1926 H1914 0.930 . S
C1926 C1927 1.399 . S
C1926 C1931 1.399 . S
C1927 C1926 1.399 . S
C1927 C1928 1.376 . S
C1928 H1915 0.930 . S
C1928 C1927 1.376 . S
C1928 C1929 1.388 . S
C1929 H1916 0.930 . S
C1929 C1928 1.388 . S
C1929 C1930 1.390 . S
C1930 C1929 1.390 . S
C1930 C1931 1.394 . S
C1930 C1936 1.465 . S
C1931 C1926 1.399 . S
C1931 C1930 1.394 . S
C1931 C1932 1.516 . S
C1932 C1931 1.516 . S
C1932 C1933 1.502 . S
C1932 C1934 1.561 . S
C1932 C1935 1.526 . S
C1933 H1917 0.959 . S
C1933 H1918 0.959 . S
C1933 H1919 0.961 . S
C1933 C1932 1.502 . S
C1934 H1920 0.960 . S
C1934 H1921 0.961 . S
C1934 H1922 0.959 . S
C1934 C1932 1.561 . S
C1935 C1932 1.526 . S
C1935 C1936 1.396 . S
C1935 C1940 1.390 . S
C1936 C1930 1.465 . S
C1936 C1935 1.396 . S
C1936 C1937 1.399 . S
C1937 H1923 0.929 . S
C1937 C1936 1.399 . S
C1937 C1938 1.385 . S
C1938 H1924 0.931 . S
C1938 C1937 1.385 . S
C1938 C1939 1.389 . S
C1939 C1938 1.389 . S
C1939 C1940 1.387 . S
C1940 H1925 0.930 . S
C1940 C1935 1.390 . S
C1940 C1939 1.387 . S
H1941 C1953 0.930 . S
H1942 C1955 0.930 . S
H1943 C1956 0.930 . S
H1944 C1960 0.959 . S
H1945 C1960 0.959 . S
H1946 C1960 0.961 . S
H1947 C1961 0.960 . S
H1948 C1961 0.961 . S
H1949 C1961 0.959 . S
H1950 C1964 0.929 . S
H1951 C1965 0.931 . S
H1952 C1967 0.930 . S
C1953 H1941 0.930 . S
C1953 C1954 1.399 . S
C1953 C1958 1.399 . S
C1954 C1953 1.399 . S
C1954 C1955 1.376 . S
C1955 H1942 0.930 . S
C1955 C1954 1.376 . S
C1955 C1956 1.388 . S
C1956 H1943 0.930 . S
C1956 C1955 1.388 . S
C1956 C1957 1.390 . S
C1957 C1956 1.390 . S
C1957 C1958 1.394 . S
C1957 C1963 1.465 . S
C1958 C1953 1.399 . S
C1958 C1957 1.394 . S
C1958 C1959 1.516 . S
C1959 C1958 1.516 . S
C1959 C1960 1.502 . S
C1959 C1961 1.561 . S
C1959 C1962 1.526 . S
C1960 H1944 0.959 . S
C1960 H1945 0.959 . S
C1960 H1946 0.961 . S
C1960 C1959 1.502 . S
C1961 H1947 0.960 . S
C1961 H1948 0.961 . S
C1961 H1949 0.959 . S
C1961 C1959 1.561 . S
C1962 C1959 1.526 . S
C1962 C1963 1.396 . S
C1962 C1967 1.390 . S
C1963 C1957 1.465 . S
C1963 C1962 1.396 . S
C1963 C1964 1.399 . S
C1964 H1950 0.929 . S
C1964 C1963 1.399 . S
C1964 C1965 1.385 . S
C1965 H1951 0.931 . S
C1965 C1964 1.385 . S
C1965 C1966 1.389 . S
C1966 C1965 1.389 . S
C1966 C1967 1.387 . S
C1967 H1952 0.930 . S
C1967 C1962 1.390 . S
C1967 C1966 1.387 . S
H1968 C1980 0.930 . S
H1969 C1982 0.930 . S
H1970 C1983 0.930 . S
H1971 C1987 0.959 . S
H1972 C1987 0.959 . S
H1973 C1987 0.961 . S
H1974 C1988 0.960 . S
H1975 C1988 0.961 . S
H1976 C1988 0.959 . S
H1977 C1991 0.929 . S
H1978 C1992 0.931 . S
H1979 C1994 0.930 . S
C1980 H1968 0.930 . S
C1980 C1981 1.399 . S
C1980 C1985 1.399 . S
C1981 C1980 1.399 . S
C1981 C1982 1.376 . S
C1982 H1969 0.930 . S
C1982 C1981 1.376 . S
C1982 C1983 1.388 . S
C1983 H1970 0.930 . S
C1983 C1982 1.388 . S
C1983 C1984 1.390 . S
C1984 C1983 1.390 . S
C1984 C1985 1.394 . S
C1984 C1990 1.465 . S
C1985 C1980 1.399 . S
C1985 C1984 1.394 . S
C1985 C1986 1.516 . S
C1986 C1985 1.516 . S
C1986 C1987 1.502 . S
C1986 C1988 1.561 . S
C1986 C1989 1.526 . S
C1987 H1971 0.959 . S
C1987 H1972 0.959 . S
C1987 H1973 0.961 . S
C1987 C1986 1.502 . S
C1988 H1974 0.960 . S
C1988 H1975 0.961 . S
C1988 H1976 0.959 . S
C1988 C1986 1.561 . S
C1989 C1986 1.526 . S
C1989 C1990 1.396 . S
C1989 C1994 1.390 . S
C1990 C1984 1.465 . S
C1990 C1989 1.396 . S
C1990 C1991 1.399 . S
C1991 H1977 0.929 . S
C1991 C1990 1.399 . S
C1991 C1992 1.385 . S
C1992 H1978 0.931 . S
C1992 C1991 1.385 . S
C1992 C1993 1.389 . S
C1993 C1992 1.389 . S
C1993 C1994 1.387 . S
C1994 H1979 0.930 . S
C1994 C1989 1.390 . S
C1994 C1993 1.387 . S
H1995 C2007 0.930 . S
H1996 C2009 0.930 . S
H1997 C2010 0.930 . S
H1998 C2014 0.959 . S
H1999 C2014 0.959 . S
H2000 C2014 0.961 . S
H2001 C2015 0.960 . S
H2002 C2015 0.961 . S
H2003 C2015 0.959 . S
H2004 C2018 0.929 . S
H2005 C2019 0.931 . S
H2006 C2021 0.930 . S
C2007 H1995 0.930 . S
C2007 C2008 1.399 . S
C2007 C2012 1.399 . S
C2008 C2007 1.399 . S
C2008 C2009 1.376 . S
C2009 H1996 0.930 . S
C2009 C2008 1.376 . S
C2009 C2010 1.388 . S
C2010 H1997 0.930 . S
C2010 C2009 1.388 . S
C2010 C2011 1.390 . S
C2011 C2010 1.390 . S
C2011 C2012 1.394 . S
C2011 C2017 1.465 . S
C2012 C2007 1.399 . S
C2012 C2011 1.394 . S
C2012 C2013 1.516 . S
C2013 C2012 1.516 . S
C2013 C2014 1.502 . S
C2013 C2015 1.561 . S
C2013 C2016 1.526 . S
C2014 H1998 0.959 . S
C2014 H1999 0.959 . S
C2014 H2000 0.961 . S
C2014 C2013 1.502 . S
C2015 H2001 0.960 . S
C2015 H2002 0.961 . S
C2015 H2003 0.959 . S
C2015 C2013 1.561 . S
C2016 C2013 1.526 . S
C2016 C2017 1.396 . S
C2016 C2021 1.390 . S
C2017 C2011 1.465 . S
C2017 C2016 1.396 . S
C2017 C2018 1.399 . S
C2018 H2004 0.929 . S
C2018 C2017 1.399 . S
C2018 C2019 1.385 . S
C2019 H2005 0.931 . S
C2019 C2018 1.385 . S
C2019 C2020 1.389 . S
C2020 C2019 1.389 . S
C2020 C2021 1.387 . S
C2021 H2006 0.930 . S
C2021 C2016 1.390 . S
C2021 C2020 1.387 . S
H2022 C2034 0.930 . S
H2023 C2036 0.930 . S
H2024 C2037 0.930 . S
H2025 C2041 0.959 . S
H2026 C2041 0.959 . S
H2027 C2041 0.961 . S
H2028 C2042 0.960 . S
H2029 C2042 0.961 . S
H2030 C2042 0.959 . S
H2031 C2045 0.929 . S
H2032 C2046 0.931 . S
H2033 C2048 0.930 . S
C2034 H2022 0.930 . S
C2034 C2035 1.399 . S
C2034 C2039 1.399 . S
C2035 C2034 1.399 . S
C2035 C2036 1.376 . S
C2036 H2023 0.930 . S
C2036 C2035 1.376 . S
C2036 C2037 1.388 . S
C2037 H2024 0.930 . S
C2037 C2036 1.388 . S
C2037 C2038 1.390 . S
C2038 C2037 1.390 . S
C2038 C2039 1.394 . S
C2038 C2044 1.465 . S
C2039 C2034 1.399 . S
C2039 C2038 1.394 . S
C2039 C2040 1.516 . S
C2040 C2039 1.516 . S
C2040 C2041 1.502 . S
C2040 C2042 1.561 . S
C2040 C2043 1.526 . S
C2041 H2025 0.959 . S
C2041 H2026 0.959 . S
C2041 H2027 0.961 . S
C2041 C2040 1.502 . S
C2042 H2028 0.960 . S
C2042 H2029 0.961 . S
C2042 H2030 0.959 . S
C2042 C2040 1.561 . S
C2043 C2040 1.526 . S
C2043 C2044 1.396 . S
C2043 C2048 1.390 . S
C2044 C2038 1.465 . S
C2044 C2043 1.396 . S
C2044 C2045 1.399 . S
C2045 H2031 0.929 . S
C2045 C2044 1.399 . S
C2045 C2046 1.385 . S
C2046 H2032 0.931 . S
C2046 C2045 1.385 . S
C2046 C2047 1.389 . S
C2047 C2046 1.389 . S
C2047 C2048 1.387 . S
C2048 H2033 0.930 . S
C2048 C2043 1.390 . S
C2048 C2047 1.387 . S
H2049 C2061 0.930 . S
H2050 C2063 0.930 . S
H2051 C2064 0.930 . S
H2052 C2068 0.959 . S
H2053 C2068 0.959 . S
H2054 C2068 0.961 . S
H2055 C2069 0.960 . S
H2056 C2069 0.961 . S
H2057 C2069 0.959 . S
H2058 C2072 0.929 . S
H2059 C2073 0.931 . S
H2060 C2075 0.930 . S
C2061 H2049 0.930 . S
C2061 C2062 1.399 . S
C2061 C2066 1.399 . S
C2062 C2061 1.399 . S
C2062 C2063 1.376 . S
C2063 H2050 0.930 . S
C2063 C2062 1.376 . S
C2063 C2064 1.388 . S
C2064 H2051 0.930 . S
C2064 C2063 1.388 . S
C2064 C2065 1.390 . S
C2065 C2064 1.390 . S
C2065 C2066 1.394 . S
C2065 C2071 1.465 . S
C2066 C2061 1.399 . S
C2066 C2065 1.394 . S
C2066 C2067 1.516 . S
C2067 C2066 1.516 . S
C2067 C2068 1.502 . S
C2067 C2069 1.561 . S
C2067 C2070 1.526 . S
C2068 H2052 0.959 . S
C2068 H2053 0.959 . S
C2068 H2054 0.961 . S
C2068 C2067 1.502 . S
C2069 H2055 0.960 . S
C2069 H2056 0.961 . S
C2069 H2057 0.959 . S
C2069 C2067 1.561 . S
C2070 C2067 1.526 . S
C2070 C2071 1.396 . S
C2070 C2075 1.390 . S
C2071 C2065 1.465 . S
C2071 C2070 1.396 . S
C2071 C2072 1.399 . S
C2072 H2058 0.929 . S
C2072 C2071 1.399 . S
C2072 C2073 1.385 . S
C2073 H2059 0.931 . S
C2073 C2072 1.385 . S
C2073 C2074 1.389 . S
C2074 C2073 1.389 . S
C2074 C2075 1.387 . S
C2075 H2060 0.930 . S
C2075 C2070 1.390 . S
C2075 C2074 1.387 . S
H2076 C2088 0.930 . S
H2077 C2090 0.930 . S
H2078 C2091 0.930 . S
H2079 C2095 0.959 . S
H2080 C2095 0.959 . S
H2081 C2095 0.961 . S
H2082 C2096 0.960 . S
H2083 C2096 0.961 . S
H2084 C2096 0.959 . S
H2085 C2099 0.929 . S
H2086 C2100 0.931 . S
H2087 C2102 0.930 . S
C2088 H2076 0.930 . S
C2088 C2089 1.399 . S
C2088 C2093 1.399 . S
C2089 C2088 1.399 . S
C2089 C2090 1.376 . S
C2090 H2077 0.930 . S
C2090 C2089 1.376 . S
C2090 C2091 1.388 . S
C2091 H2078 0.930 . S
C2091 C2090 1.388 . S
C2091 C2092 1.390 . S
C2092 C2091 1.390 . S
C2092 C2093 1.394 . S
C2092 C2098 1.465 . S
C2093 C2088 1.399 . S
C2093 C2092 1.394 . S
C2093 C2094 1.516 . S
C2094 C2093 1.516 . S
C2094 C2095 1.502 . S
C2094 C2096 1.561 . S
C2094 C2097 1.526 . S
C2095 H2079 0.959 . S
C2095 H2080 0.959 . S
C2095 H2081 0.961 . S
C2095 C2094 1.502 . S
C2096 H2082 0.960 . S
C2096 H2083 0.961 . S
C2096 H2084 0.959 . S
C2096 C2094 1.561 . S
C2097 C2094 1.526 . S
C2097 C2098 1.396 . S
C2097 C2102 1.390 . S
C2098 C2092 1.465 . S
C2098 C2097 1.396 . S
C2098 C2099 1.399 . S
C2099 H2085 0.929 . S
C2099 C2098 1.399 . S
C2099 C2100 1.385 . S
C2100 H2086 0.931 . S
C2100 C2099 1.385 . S
C2100 C2101 1.389 . S
C2101 C2100 1.389 . S
C2101 C2102 1.387 . S
C2102 H2087 0.930 . S
C2102 C2097 1.390 . S
C2102 C2101 1.387 . S
H2103 C2115 0.930 . S
H2104 C2117 0.930 . S
H2105 C2118 0.930 . S
H2106 C2122 0.959 . S
H2107 C2122 0.959 . S
H2108 C2122 0.961 . S
H2109 C2123 0.960 . S
H2110 C2123 0.961 . S
H2111 C2123 0.959 . S
H2112 C2126 0.929 . S
H2113 C2127 0.931 . S
H2114 C2129 0.930 . S
C2115 H2103 0.930 . S
C2115 C2116 1.399 . S
C2115 C2120 1.399 . S
C2116 C2115 1.399 . S
C2116 C2117 1.376 . S
C2117 H2104 0.930 . S
C2117 C2116 1.376 . S
C2117 C2118 1.388 . S
C2118 H2105 0.930 . S
C2118 C2117 1.388 . S
C2118 C2119 1.390 . S
C2119 C2118 1.390 . S
C2119 C2120 1.394 . S
C2119 C2125 1.465 . S
C2120 C2115 1.399 . S
C2120 C2119 1.394 . S
C2120 C2121 1.516 . S
C2121 C2120 1.516 . S
C2121 C2122 1.502 . S
C2121 C2123 1.561 . S
C2121 C2124 1.526 . S
C2122 H2106 0.959 . S
C2122 H2107 0.959 . S
C2122 H2108 0.961 . S
C2122 C2121 1.502 . S
C2123 H2109 0.960 . S
C2123 H2110 0.961 . S
C2123 H2111 0.959 . S
C2123 C2121 1.561 . S
C2124 C2121 1.526 . S
C2124 C2125 1.396 . S
C2124 C2129 1.390 . S
C2125 C2119 1.465 . S
C2125 C2124 1.396 . S
C2125 C2126 1.399 . S
C2126 H2112 0.929 . S
C2126 C2125 1.399 . S
C2126 C2127 1.385 . S
C2127 H2113 0.931 . S
C2127 C2126 1.385 . S
C2127 C2128 1.389 . S
C2128 C2127 1.389 . S
C2128 C2129 1.387 . S
C2129 H2114 0.930 . S
C2129 C2124 1.390 . S
C2129 C2128 1.387 . S
H2130 C2142 0.930 . S
H2131 C2144 0.930 . S
H2132 C2145 0.930 . S
H2133 C2149 0.959 . S
H2134 C2149 0.959 . S
H2135 C2149 0.961 . S
H2136 C2150 0.960 . S
H2137 C2150 0.961 . S
H2138 C2150 0.959 . S
H2139 C2153 0.929 . S
H2140 C2154 0.931 . S
H2141 C2156 0.930 . S
C2142 H2130 0.930 . S
C2142 C2143 1.399 . S
C2142 C2147 1.399 . S
C2143 C2142 1.399 . S
C2143 C2144 1.376 . S
C2144 H2131 0.930 . S
C2144 C2143 1.376 . S
C2144 C2145 1.388 . S
C2145 H2132 0.930 . S
C2145 C2144 1.388 . S
C2145 C2146 1.390 . S
C2146 C2145 1.390 . S
C2146 C2147 1.394 . S
C2146 C2152 1.465 . S
C2147 C2142 1.399 . S
C2147 C2146 1.394 . S
C2147 C2148 1.516 . S
C2148 C2147 1.516 . S
C2148 C2149 1.502 . S
C2148 C2150 1.561 . S
C2148 C2151 1.526 . S
C2149 H2133 0.959 . S
C2149 H2134 0.959 . S
C2149 H2135 0.961 . S
C2149 C2148 1.502 . S
C2150 H2136 0.960 . S
C2150 H2137 0.961 . S
C2150 H2138 0.959 . S
C2150 C2148 1.561 . S
C2151 C2148 1.526 . S
C2151 C2152 1.396 . S
C2151 C2156 1.390 . S
C2152 C2146 1.465 . S
C2152 C2151 1.396 . S
C2152 C2153 1.399 . S
C2153 H2139 0.929 . S
C2153 C2152 1.399 . S
C2153 C2154 1.385 . S
C2154 H2140 0.931 . S
C2154 C2153 1.385 . S
C2154 C2155 1.389 . S
C2155 C2154 1.389 . S
C2155 C2156 1.387 . S
C2156 H2141 0.930 . S
C2156 C2151 1.390 . S
C2156 C2155 1.387 . S
H2157 C2169 0.930 . S
H2158 C2171 0.930 . S
H2159 C2172 0.930 . S
H2160 C2176 0.959 . S
H2161 C2176 0.959 . S
H2162 C2176 0.961 . S
H2163 C2177 0.960 . S
H2164 C2177 0.961 . S
H2165 C2177 0.959 . S
H2166 C2180 0.929 . S
H2167 C2181 0.931 . S
H2168 C2183 0.930 . S
C2169 H2157 0.930 . S
C2169 C2170 1.399 . S
C2169 C2174 1.399 . S
C2170 C2169 1.399 . S
C2170 C2171 1.376 . S
C2171 H2158 0.930 . S
C2171 C2170 1.376 . S
C2171 C2172 1.388 . S
C2172 H2159 0.930 . S
C2172 C2171 1.388 . S
C2172 C2173 1.390 . S
C2173 C2172 1.390 . S
C2173 C2174 1.394 . S
C2173 C2179 1.465 . S
C2174 C2169 1.399 . S
C2174 C2173 1.394 . S
C2174 C2175 1.516 . S
C2175 C2174 1.516 . S
C2175 C2176 1.502 . S
C2175 C2177 1.561 . S
C2175 C2178 1.526 . S
C2176 H2160 0.959 . S
C2176 H2161 0.959 . S
C2176 H2162 0.961 . S
C2176 C2175 1.502 . S
C2177 H2163 0.960 . S
C2177 H2164 0.961 . S
C2177 H2165 0.959 . S
C2177 C2175 1.561 . S
C2178 C2175 1.526 . S
C2178 C2179 1.396 . S
C2178 C2183 1.390 . S
C2179 C2173 1.465 . S
C2179 C2178 1.396 . S
C2179 C2180 1.399 . S
C2180 H2166 0.929 . S
C2180 C2179 1.399 . S
C2180 C2181 1.385 . S
C2181 H2167 0.931 . S
C2181 C2180 1.385 . S
C2181 C2182 1.389 . S
C2182 C2181 1.389 . S
C2182 C2183 1.387 . S
C2183 H2168 0.930 . S
C2183 C2178 1.390 . S
C2183 C2182 1.387 . S
H2184 C2196 0.930 . S
H2185 C2198 0.930 . S
H2186 C2199 0.930 . S
H2187 C2203 0.959 . S
H2188 C2203 0.959 . S
H2189 C2203 0.961 . S
H2190 C2204 0.960 . S
H2191 C2204 0.961 . S
H2192 C2204 0.959 . S
H2193 C2207 0.929 . S
H2194 C2208 0.931 . S
H2195 C2210 0.930 . S
C2196 H2184 0.930 . S
C2196 C2197 1.399 . S
C2196 C2201 1.399 . S
C2197 C2196 1.399 . S
C2197 C2198 1.376 . S
C2198 H2185 0.930 . S
C2198 C2197 1.376 . S
C2198 C2199 1.388 . S
C2199 H2186 0.930 . S
C2199 C2198 1.388 . S
C2199 C2200 1.390 . S
C2200 C2199 1.390 . S
C2200 C2201 1.394 . S
C2200 C2206 1.465 . S
C2201 C2196 1.399 . S
C2201 C2200 1.394 . S
C2201 C2202 1.516 . S
C2202 C2201 1.516 . S
C2202 C2203 1.502 . S
C2202 C2204 1.561 . S
C2202 C2205 1.526 . S
C2203 H2187 0.959 . S
C2203 H2188 0.959 . S
C2203 H2189 0.961 . S
C2203 C2202 1.502 . S
C2204 H2190 0.960 . S
C2204 H2191 0.961 . S
C2204 H2192 0.959 . S
C2204 C2202 1.561 . S
C2205 C2202 1.526 . S
C2205 C2206 1.396 . S
C2205 C2210 1.390 . S
C2206 C2200 1.465 . S
C2206 C2205 1.396 . S
C2206 C2207 1.399 . S
C2207 H2193 0.929 . S
C2207 C2206 1.399 . S
C2207 C2208 1.385 . S
C2208 H2194 0.931 . S
C2208 C2207 1.385 . S
C2208 C2209 1.389 . S
C2209 C2208 1.389 . S
C2209 C2210 1.387 . S
C2210 H2195 0.930 . S
C2210 C2205 1.390 . S
C2210 C2209 1.387 . S
H2211 C2223 0.930 . S
H2212 C2225 0.930 . S
H2213 C2226 0.930 . S
H2214 C2230 0.959 . S
H2215 C2230 0.959 . S
H2216 C2230 0.961 . S
H2217 C2231 0.960 . S
H2218 C2231 0.961 . S
H2219 C2231 0.959 . S
H2220 C2234 0.929 . S
H2221 C2235 0.931 . S
H2222 C2237 0.930 . S
C2223 H2211 0.930 . S
C2223 C2224 1.399 . S
C2223 C2228 1.399 . S
C2224 C2223 1.399 . S
C2224 C2225 1.376 . S
C2225 H2212 0.930 . S
C2225 C2224 1.376 . S
C2225 C2226 1.388 . S
C2226 H2213 0.930 . S
C2226 C2225 1.388 . S
C2226 C2227 1.390 . S
C2227 C2226 1.390 . S
C2227 C2228 1.394 . S
C2227 C2233 1.465 . S
C2228 C2223 1.399 . S
C2228 C2227 1.394 . S
C2228 C2229 1.516 . S
C2229 C2228 1.516 . S
C2229 C2230 1.502 . S
C2229 C2231 1.561 . S
C2229 C2232 1.526 . S
C2230 H2214 0.959 . S
C2230 H2215 0.959 . S
C2230 H2216 0.961 . S
C2230 C2229 1.502 . S
C2231 H2217 0.960 . S
C2231 H2218 0.961 . S
C2231 H2219 0.959 . S
C2231 C2229 1.561 . S
C2232 C2229 1.526 . S
C2232 C2233 1.396 . S
C2232 C2237 1.390 . S
C2233 C2227 1.465 . S
C2233 C2232 1.396 . S
C2233 C2234 1.399 . S
C2234 H2220 0.929 . S
C2234 C2233 1.399 . S
C2234 C2235 1.385 . S
C2235 H2221 0.931 . S
C2235 C2234 1.385 . S
C2235 C2236 1.389 . S
C2236 C2235 1.389 . S
C2236 C2237 1.387 . S
C2237 H2222 0.930 . S
C2237 C2232 1.390 . S
C2237 C2236 1.387 . S
H2238 C2250 0.930 . S
H2239 C2252 0.930 . S
H2240 C2253 0.930 . S
H2241 C2257 0.959 . S
H2242 C2257 0.959 . S
H2243 C2257 0.961 . S
H2244 C2258 0.960 . S
H2245 C2258 0.961 . S
H2246 C2258 0.959 . S
H2247 C2261 0.929 . S
H2248 C2262 0.931 . S
H2249 C2264 0.930 . S
C2250 H2238 0.930 . S
C2250 C2251 1.399 . S
C2250 C2255 1.399 . S
C2251 C2250 1.399 . S
C2251 C2252 1.376 . S
C2252 H2239 0.930 . S
C2252 C2251 1.376 . S
C2252 C2253 1.388 . S
C2253 H2240 0.930 . S
C2253 C2252 1.388 . S
C2253 C2254 1.390 . S
C2254 C2253 1.390 . S
C2254 C2255 1.394 . S
C2254 C2260 1.465 . S
C2255 C2250 1.399 . S
C2255 C2254 1.394 . S
C2255 C2256 1.516 . S
C2256 C2255 1.516 . S
C2256 C2257 1.502 . S
C2256 C2258 1.561 . S
C2256 C2259 1.526 . S
C2257 H2241 0.959 . S
C2257 H2242 0.959 . S
C2257 H2243 0.961 . S
C2257 C2256 1.502 . S
C2258 H2244 0.960 . S
C2258 H2245 0.961 . S
C2258 H2246 0.959 . S
C2258 C2256 1.561 . S
C2259 C2256 1.526 . S
C2259 C2260 1.396 . S
C2259 C2264 1.390 . S
C2260 C2254 1.465 . S
C2260 C2259 1.396 . S
C2260 C2261 1.399 . S
C2261 H2247 0.929 . S
C2261 C2260 1.399 . S
C2261 C2262 1.385 . S
C2262 H2248 0.931 . S
C2262 C2261 1.385 . S
C2262 C2263 1.389 . S
C2263 C2262 1.389 . S
C2263 C2264 1.387 . S
C2264 H2249 0.930 . S
C2264 C2259 1.390 . S
C2264 C2263 1.387 . S
H2265 C2277 0.930 . S
H2266 C2279 0.930 . S
H2267 C2280 0.930 . S
H2268 C2284 0.959 . S
H2269 C2284 0.959 . S
H2270 C2284 0.961 . S
H2271 C2285 0.960 . S
H2272 C2285 0.961 . S
H2273 C2285 0.959 . S
H2274 C2288 0.929 . S
H2275 C2289 0.931 . S
H2276 C2291 0.930 . S
C2277 H2265 0.930 . S
C2277 C2278 1.399 . S
C2277 C2282 1.399 . S
C2278 C2277 1.399 . S
C2278 C2279 1.376 . S
C2279 H2266 0.930 . S
C2279 C2278 1.376 . S
C2279 C2280 1.388 . S
C2280 H2267 0.930 . S
C2280 C2279 1.388 . S
C2280 C2281 1.390 . S
C2281 C2280 1.390 . S
C2281 C2282 1.394 . S
C2281 C2287 1.465 . S
C2282 C2277 1.399 . S
C2282 C2281 1.394 . S
C2282 C2283 1.516 . S
C2283 C2282 1.516 . S
C2283 C2284 1.502 . S
C2283 C2285 1.561 . S
C2283 C2286 1.526 . S
C2284 H2268 0.959 . S
C2284 H2269 0.959 . S
C2284 H2270 0.961 . S
C2284 C2283 1.502 . S
C2285 H2271 0.960 . S
C2285 H2272 0.961 . S
C2285 H2273 0.959 . S
C2285 C2283 1.561 . S
C2286 C2283 1.526 . S
C2286 C2287 1.396 . S
C2286 C2291 1.390 . S
C2287 C2281 1.465 . S
C2287 C2286 1.396 . S
C2287 C2288 1.399 . S
C2288 H2274 0.929 . S
C2288 C2287 1.399 . S
C2288 C2289 1.385 . S
C2289 H2275 0.931 . S
C2289 C2288 1.385 . S
C2289 C2290 1.389 . S
C2290 C2289 1.389 . S
C2290 C2291 1.387 . S
C2291 H2276 0.930 . S
C2291 C2286 1.390 . S
C2291 C2290 1.387 . S
H2292 C2304 0.930 . S
H2293 C2306 0.930 . S
H2294 C2307 0.930 . S
H2295 C2311 0.959 . S
H2296 C2311 0.959 . S
H2297 C2311 0.961 . S
H2298 C2312 0.960 . S
H2299 C2312 0.961 . S
H2300 C2312 0.959 . S
H2301 C2315 0.929 . S
H2302 C2316 0.931 . S
H2303 C2318 0.930 . S
C2304 H2292 0.930 . S
C2304 C2305 1.399 . S
C2304 C2309 1.399 . S
C2305 C2304 1.399 . S
C2305 C2306 1.376 . S
C2306 H2293 0.930 . S
C2306 C2305 1.376 . S
C2306 C2307 1.388 . S
C2307 H2294 0.930 . S
C2307 C2306 1.388 . S
C2307 C2308 1.390 . S
C2308 C2307 1.390 . S
C2308 C2309 1.394 . S
C2308 C2314 1.465 . S
C2309 C2304 1.399 . S
C2309 C2308 1.394 . S
C2309 C2310 1.516 . S
C2310 C2309 1.516 . S
C2310 C2311 1.502 . S
C2310 C2312 1.561 . S
C2310 C2313 1.526 . S
C2311 H2295 0.959 . S
C2311 H2296 0.959 . S
C2311 H2297 0.961 . S
C2311 C2310 1.502 . S
C2312 H2298 0.960 . S
C2312 H2299 0.961 . S
C2312 H2300 0.959 . S
C2312 C2310 1.561 . S
C2313 C2310 1.526 . S
C2313 C2314 1.396 . S
C2313 C2318 1.390 . S
C2314 C2308 1.465 . S
C2314 C2313 1.396 . S
C2314 C2315 1.399 . S
C2315 H2301 0.929 . S
C2315 C2314 1.399 . S
C2315 C2316 1.385 . S
C2316 H2302 0.931 . S
C2316 C2315 1.385 . S
C2316 C2317 1.389 . S
C2317 C2316 1.389 . S
C2317 C2318 1.387 . S
C2318 H2303 0.930 . S
C2318 C2313 1.390 . S
C2318 C2317 1.387 . S
H2319 C2331 0.930 . S
H2320 C2333 0.930 . S
H2321 C2334 0.930 . S
H2322 C2338 0.959 . S
H2323 C2338 0.959 . S
H2324 C2338 0.961 . S
H2325 C2339 0.960 . S
H2326 C2339 0.961 . S
H2327 C2339 0.959 . S
H2328 C2342 0.929 . S
H2329 C2343 0.931 . S
H2330 C2345 0.930 . S
C2331 H2319 0.930 . S
C2331 C2332 1.399 . S
C2331 C2336 1.399 . S
C2332 C2331 1.399 . S
C2332 C2333 1.376 . S
C2333 H2320 0.930 . S
C2333 C2332 1.376 . S
C2333 C2334 1.388 . S
C2334 H2321 0.930 . S
C2334 C2333 1.388 . S
C2334 C2335 1.390 . S
C2335 C2334 1.390 . S
C2335 C2336 1.394 . S
C2335 C2341 1.465 . S
C2336 C2331 1.399 . S
C2336 C2335 1.394 . S
C2336 C2337 1.516 . S
C2337 C2336 1.516 . S
C2337 C2338 1.502 . S
C2337 C2339 1.561 . S
C2337 C2340 1.526 . S
C2338 H2322 0.959 . S
C2338 H2323 0.959 . S
C2338 H2324 0.961 . S
C2338 C2337 1.502 . S
C2339 H2325 0.960 . S
C2339 H2326 0.961 . S
C2339 H2327 0.959 . S
C2339 C2337 1.561 . S
C2340 C2337 1.526 . S
C2340 C2341 1.396 . S
C2340 C2345 1.390 . S
C2341 C2335 1.465 . S
C2341 C2340 1.396 . S
C2341 C2342 1.399 . S
C2342 H2328 0.929 . S
C2342 C2341 1.399 . S
C2342 C2343 1.385 . S
C2343 H2329 0.931 . S
C2343 C2342 1.385 . S
C2343 C2344 1.389 . S
C2344 C2343 1.389 . S
C2344 C2345 1.387 . S
C2345 H2330 0.930 . S
C2345 C2340 1.390 . S
C2345 C2344 1.387 . S
H2346 C2358 0.930 . S
H2347 C2360 0.930 . S
H2348 C2361 0.930 . S
H2349 C2365 0.959 . S
H2350 C2365 0.959 . S
H2351 C2365 0.961 . S
H2352 C2366 0.960 . S
H2353 C2366 0.961 . S
H2354 C2366 0.959 . S
H2355 C2369 0.929 . S
H2356 C2370 0.931 . S
H2357 C2372 0.930 . S
C2358 H2346 0.930 . S
C2358 C2359 1.399 . S
C2358 C2363 1.399 . S
C2359 C2358 1.399 . S
C2359 C2360 1.376 . S
C2360 H2347 0.930 . S
C2360 C2359 1.376 . S
C2360 C2361 1.388 . S
C2361 H2348 0.930 . S
C2361 C2360 1.388 . S
C2361 C2362 1.390 . S
C2362 C2361 1.390 . S
C2362 C2363 1.394 . S
C2362 C2368 1.465 . S
C2363 C2358 1.399 . S
C2363 C2362 1.394 . S
C2363 C2364 1.516 . S
C2364 C2363 1.516 . S
C2364 C2365 1.502 . S
C2364 C2366 1.561 . S
C2364 C2367 1.526 . S
C2365 H2349 0.959 . S
C2365 H2350 0.959 . S
C2365 H2351 0.961 . S
C2365 C2364 1.502 . S
C2366 H2352 0.960 . S
C2366 H2353 0.961 . S
C2366 H2354 0.959 . S
C2366 C2364 1.561 . S
C2367 C2364 1.526 . S
C2367 C2368 1.396 . S
C2367 C2372 1.390 . S
C2368 C2362 1.465 . S
C2368 C2367 1.396 . S
C2368 C2369 1.399 . S
C2369 H2355 0.929 . S
C2369 C2368 1.399 . S
C2369 C2370 1.385 . S
C2370 H2356 0.931 . S
C2370 C2369 1.385 . S
C2370 C2371 1.389 . S
C2371 C2370 1.389 . S
C2371 C2372 1.387 . S
C2372 H2357 0.930 . S
C2372 C2367 1.390 . S
C2372 C2371 1.387 . S
H2373 C2385 0.930 . S
H2374 C2387 0.930 . S
H2375 C2388 0.930 . S
H2376 C2392 0.959 . S
H2377 C2392 0.959 . S
H2378 C2392 0.961 . S
H2379 C2393 0.960 . S
H2380 C2393 0.961 . S
H2381 C2393 0.959 . S
H2382 C2396 0.929 . S
H2383 C2397 0.931 . S
H2384 C2399 0.930 . S
C2385 H2373 0.930 . S
C2385 C2386 1.399 . S
C2385 C2390 1.399 . S
C2386 C2385 1.399 . S
C2386 C2387 1.376 . S
C2387 H2374 0.930 . S
C2387 C2386 1.376 . S
C2387 C2388 1.388 . S
C2388 H2375 0.930 . S
C2388 C2387 1.388 . S
C2388 C2389 1.390 . S
C2389 C2388 1.390 . S
C2389 C2390 1.394 . S
C2389 C2395 1.465 . S
C2390 C2385 1.399 . S
C2390 C2389 1.394 . S
C2390 C2391 1.516 . S
C2391 C2390 1.516 . S
C2391 C2392 1.502 . S
C2391 C2393 1.561 . S
C2391 C2394 1.526 . S
C2392 H2376 0.959 . S
C2392 H2377 0.959 . S
C2392 H2378 0.961 . S
C2392 C2391 1.502 . S
C2393 H2379 0.960 . S
C2393 H2380 0.961 . S
C2393 H2381 0.959 . S
C2393 C2391 1.561 . S
C2394 C2391 1.526 . S
C2394 C2395 1.396 . S
C2394 C2399 1.390 . S
C2395 C2389 1.465 . S
C2395 C2394 1.396 . S
C2395 C2396 1.399 . S
C2396 H2382 0.929 . S
C2396 C2395 1.399 . S
C2396 C2397 1.385 . S
C2397 H2383 0.931 . S
C2397 C2396 1.385 . S
C2397 C2398 1.389 . S
C2398 C2397 1.389 . S
C2398 C2399 1.387 . S
C2399 H2384 0.930 . S
C2399 C2394 1.390 . S
C2399 C2398 1.387 . S
H2400 C2412 0.930 . S
H2401 C2414 0.930 . S
H2402 C2415 0.930 . S
H2403 C2419 0.959 . S
H2404 C2419 0.959 . S
H2405 C2419 0.961 . S
H2406 C2420 0.960 . S
H2407 C2420 0.961 . S
H2408 C2420 0.959 . S
H2409 C2423 0.929 . S
H2410 C2424 0.931 . S
H2411 C2426 0.930 . S
C2412 H2400 0.930 . S
C2412 C2413 1.399 . S
C2412 C2417 1.399 . S
C2413 C2412 1.399 . S
C2413 C2414 1.376 . S
C2414 H2401 0.930 . S
C2414 C2413 1.376 . S
C2414 C2415 1.388 . S
C2415 H2402 0.930 . S
C2415 C2414 1.388 . S
C2415 C2416 1.390 . S
C2416 C2415 1.390 . S
C2416 C2417 1.394 . S
C2416 C2422 1.465 . S
C2417 C2412 1.399 . S
C2417 C2416 1.394 . S
C2417 C2418 1.516 . S
C2418 C2417 1.516 . S
C2418 C2419 1.502 . S
C2418 C2420 1.561 . S
C2418 C2421 1.526 . S
C2419 H2403 0.959 . S
C2419 H2404 0.959 . S
C2419 H2405 0.961 . S
C2419 C2418 1.502 . S
C2420 H2406 0.960 . S
C2420 H2407 0.961 . S
C2420 H2408 0.959 . S
C2420 C2418 1.561 . S
C2421 C2418 1.526 . S
C2421 C2422 1.396 . S
C2421 C2426 1.390 . S
C2422 C2416 1.465 . S
C2422 C2421 1.396 . S
C2422 C2423 1.399 . S
C2423 H2409 0.929 . S
C2423 C2422 1.399 . S
C2423 C2424 1.385 . S
C2424 H2410 0.931 . S
C2424 C2423 1.385 . S
C2424 C2425 1.389 . S
C2425 C2424 1.389 . S
C2425 C2426 1.387 . S
C2426 H2411 0.930 . S
C2426 C2421 1.390 . S
C2426 C2425 1.387 . S
H2427 C2439 0.930 . S
H2428 C2441 0.930 . S
H2429 C2442 0.930 . S
H2430 C2446 0.959 . S
H2431 C2446 0.959 . S
H2432 C2446 0.961 . S
H2433 C2447 0.960 . S
H2434 C2447 0.961 . S
H2435 C2447 0.959 . S
H2436 C2450 0.929 . S
H2437 C2451 0.931 . S
H2438 C2453 0.930 . S
C2439 H2427 0.930 . S
C2439 C2440 1.399 . S
C2439 C2444 1.399 . S
C2440 C2439 1.399 . S
C2440 C2441 1.376 . S
C2441 H2428 0.930 . S
C2441 C2440 1.376 . S
C2441 C2442 1.388 . S
C2442 H2429 0.930 . S
C2442 C2441 1.388 . S
C2442 C2443 1.390 . S
C2443 C2442 1.390 . S
C2443 C2444 1.394 . S
C2443 C2449 1.465 . S
C2444 C2439 1.399 . S
C2444 C2443 1.394 . S
C2444 C2445 1.516 . S
C2445 C2444 1.516 . S
C2445 C2446 1.502 . S
C2445 C2447 1.561 . S
C2445 C2448 1.526 . S
C2446 H2430 0.959 . S
C2446 H2431 0.959 . S
C2446 H2432 0.961 . S
C2446 C2445 1.502 . S
C2447 H2433 0.960 . S
C2447 H2434 0.961 . S
C2447 H2435 0.959 . S
C2447 C2445 1.561 . S
C2448 C2445 1.526 . S
C2448 C2449 1.396 . S
C2448 C2453 1.390 . S
C2449 C2443 1.465 . S
C2449 C2448 1.396 . S
C2449 C2450 1.399 . S
C2450 H2436 0.929 . S
C2450 C2449 1.399 . S
C2450 C2451 1.385 . S
C2451 H2437 0.931 . S
C2451 C2450 1.385 . S
C2451 C2452 1.389 . S
C2452 C2451 1.389 . S
C2452 C2453 1.387 . S
C2453 H2438 0.930 . S
C2453 C2448 1.390 . S
C2453 C2452 1.387 . S
H2454 C2466 0.930 . S
H2455 C2468 0.930 . S
H2456 C2469 0.930 . S
H2457 C2473 0.959 . S
H2458 C2473 0.959 . S
H2459 C2473 0.961 . S
H2460 C2474 0.960 . S
H2461 C2474 0.961 . S
H2462 C2474 0.959 . S
H2463 C2477 0.929 . S
H2464 C2478 0.931 . S
H2465 C2480 0.930 . S
C2466 H2454 0.930 . S
C2466 C2467 1.399 . S
C2466 C2471 1.399 . S
C2467 C2466 1.399 . S
C2467 C2468 1.376 . S
C2468 H2455 0.930 . S
C2468 C2467 1.376 . S
C2468 C2469 1.388 . S
C2469 H2456 0.930 . S
C2469 C2468 1.388 . S
C2469 C2470 1.390 . S
C2470 C2469 1.390 . S
C2470 C2471 1.394 . S
C2470 C2476 1.465 . S
C2471 C2466 1.399 . S
C2471 C2470 1.394 . S
C2471 C2472 1.516 . S
C2472 C2471 1.516 . S
C2472 C2473 1.502 . S
C2472 C2474 1.561 . S
C2472 C2475 1.526 . S
C2473 H2457 0.959 . S
C2473 H2458 0.959 . S
C2473 H2459 0.961 . S
C2473 C2472 1.502 . S
C2474 H2460 0.960 . S
C2474 H2461 0.961 . S
C2474 H2462 0.959 . S
C2474 C2472 1.561 . S
C2475 C2472 1.526 . S
C2475 C2476 1.396 . S
C2475 C2480 1.390 . S
C2476 C2470 1.465 . S
C2476 C2475 1.396 . S
C2476 C2477 1.399 . S
C2477 H2463 0.929 . S
C2477 C2476 1.399 . S
C2477 C2478 1.385 . S
C2478 H2464 0.931 . S
C2478 C2477 1.385 . S
C2478 C2479 1.389 . S
C2479 C2478 1.389 . S
C2479 C2480 1.387 . S
C2480 H2465 0.930 . S
C2480 C2475 1.390 . S
C2480 C2479 1.387 . S
H2481 C2493 0.930 . S
H2482 C2495 0.930 . S
H2483 C2496 0.930 . S
H2484 C2500 0.959 . S
H2485 C2500 0.959 . S
H2486 C2500 0.961 . S
H2487 C2501 0.960 . S
H2488 C2501 0.961 . S
H2489 C2501 0.959 . S
H2490 C2504 0.929 . S
H2491 C2505 0.931 . S
H2492 C2507 0.930 . S
C2493 H2481 0.930 . S
C2493 C2494 1.399 . S
C2493 C2498 1.399 . S
C2494 C2493 1.399 . S
C2494 C2495 1.376 . S
C2495 H2482 0.930 . S
C2495 C2494 1.376 . S
C2495 C2496 1.388 . S
C2496 H2483 0.930 . S
C2496 C2495 1.388 . S
C2496 C2497 1.390 . S
C2497 C2496 1.390 . S
C2497 C2498 1.394 . S
C2497 C2503 1.465 . S
C2498 C2493 1.399 . S
C2498 C2497 1.394 . S
C2498 C2499 1.516 . S
C2499 C2498 1.516 . S
C2499 C2500 1.502 . S
C2499 C2501 1.561 . S
C2499 C2502 1.526 . S
C2500 H2484 0.959 . S
C2500 H2485 0.959 . S
C2500 H2486 0.961 . S
C2500 C2499 1.502 . S
C2501 H2487 0.960 . S
C2501 H2488 0.961 . S
C2501 H2489 0.959 . S
C2501 C2499 1.561 . S
C2502 C2499 1.526 . S
C2502 C2503 1.396 . S
C2502 C2507 1.390 . S
C2503 C2497 1.465 . S
C2503 C2502 1.396 . S
C2503 C2504 1.399 . S
C2504 H2490 0.929 . S
C2504 C2503 1.399 . S
C2504 C2505 1.385 . S
C2505 H2491 0.931 . S
C2505 C2504 1.385 . S
C2505 C2506 1.389 . S
C2506 C2505 1.389 . S
C2506 C2507 1.387 . S
C2507 H2492 0.930 . S
C2507 C2502 1.390 . S
C2507 C2506 1.387 . S
H2508 C2520 0.930 . S
H2509 C2522 0.930 . S
H2510 C2523 0.930 . S
H2511 C2527 0.959 . S
H2512 C2527 0.959 . S
H2513 C2527 0.961 . S
H2514 C2528 0.960 . S
H2515 C2528 0.961 . S
H2516 C2528 0.959 . S
H2517 C2531 0.929 . S
H2518 C2532 0.931 . S
H2519 C2534 0.930 . S
C2520 H2508 0.930 . S
C2520 C2521 1.399 . S
C2520 C2525 1.399 . S
C2521 C2520 1.399 . S
C2521 C2522 1.376 . S
C2522 H2509 0.930 . S
C2522 C2521 1.376 . S
C2522 C2523 1.388 . S
C2523 H2510 0.930 . S
C2523 C2522 1.388 . S
C2523 C2524 1.390 . S
C2524 C2523 1.390 . S
C2524 C2525 1.394 . S
C2524 C2530 1.465 . S
C2525 C2520 1.399 . S
C2525 C2524 1.394 . S
C2525 C2526 1.516 . S
C2526 C2525 1.516 . S
C2526 C2527 1.502 . S
C2526 C2528 1.561 . S
C2526 C2529 1.526 . S
C2527 H2511 0.959 . S
C2527 H2512 0.959 . S
C2527 H2513 0.961 . S
C2527 C2526 1.502 . S
C2528 H2514 0.960 . S
C2528 H2515 0.961 . S
C2528 H2516 0.959 . S
C2528 C2526 1.561 . S
C2529 C2526 1.526 . S
C2529 C2530 1.396 . S
C2529 C2534 1.390 . S
C2530 C2524 1.465 . S
C2530 C2529 1.396 . S
C2530 C2531 1.399 . S
C2531 H2517 0.929 . S
C2531 C2530 1.399 . S
C2531 C2532 1.385 . S
C2532 H2518 0.931 . S
C2532 C2531 1.385 . S
C2532 C2533 1.389 . S
C2533 C2532 1.389 . S
C2533 C2534 1.387 . S
C2534 H2519 0.930 . S
C2534 C2529 1.390 . S
C2534 C2533 1.387 . S
H2535 C2547 0.930 . S
H2536 C2549 0.930 . S
H2537 C2550 0.930 . S
H2538 C2554 0.959 . S
H2539 C2554 0.959 . S
H2540 C2554 0.961 . S
H2541 C2555 0.960 . S
H2542 C2555 0.961 . S
H2543 C2555 0.959 . S
H2544 C2558 0.929 . S
H2545 C2559 0.931 . S
H2546 C2561 0.930 . S
C2547 H2535 0.930 . S
C2547 C2548 1.399 . S
C2547 C2552 1.399 . S
C2548 C2547 1.399 . S
C2548 C2549 1.376 . S
C2549 H2536 0.930 . S
C2549 C2548 1.376 . S
C2549 C2550 1.388 . S
C2550 H2537 0.930 . S
C2550 C2549 1.388 . S
C2550 C2551 1.390 . S
C2551 C2550 1.390 . S
C2551 C2552 1.394 . S
C2551 C2557 1.465 . S
C2552 C2547 1.399 . S
C2552 C2551 1.394 . S
C2552 C2553 1.516 . S
C2553 C2552 1.516 . S
C2553 C2554 1.502 . S
C2553 C2555 1.561 . S
C2553 C2556 1.526 . S
C2554 H2538 0.959 . S
C2554 H2539 0.959 . S
C2554 H2540 0.961 . S
C2554 C2553 1.502 . S
C2555 H2541 0.960 . S
C2555 H2542 0.961 . S
C2555 H2543 0.959 . S
C2555 C2553 1.561 . S
C2556 C2553 1.526 . S
C2556 C2557 1.396 . S
C2556 C2561 1.390 . S
C2557 C2551 1.465 . S
C2557 C2556 1.396 . S
C2557 C2558 1.399 . S
C2558 H2544 0.929 . S
C2558 C2557 1.399 . S
C2558 C2559 1.385 . S
C2559 H2545 0.931 . S
C2559 C2558 1.385 . S
C2559 C2560 1.389 . S
C2560 C2559 1.389 . S
C2560 C2561 1.387 . S
C2561 H2546 0.930 . S
C2561 C2556 1.390 . S
C2561 C2560 1.387 . S
H2562 C2574 0.930 . S
H2563 C2576 0.930 . S
H2564 C2577 0.930 . S
H2565 C2581 0.959 . S
H2566 C2581 0.959 . S
H2567 C2581 0.961 . S
H2568 C2582 0.960 . S
H2569 C2582 0.961 . S
H2570 C2582 0.959 . S
H2571 C2585 0.929 . S
H2572 C2586 0.931 . S
H2573 C2588 0.930 . S
C2574 H2562 0.930 . S
C2574 C2575 1.399 . S
C2574 C2579 1.399 . S
C2575 C2574 1.399 . S
C2575 C2576 1.376 . S
C2576 H2563 0.930 . S
C2576 C2575 1.376 . S
C2576 C2577 1.388 . S
C2577 H2564 0.930 . S
C2577 C2576 1.388 . S
C2577 C2578 1.390 . S
C2578 C2577 1.390 . S
C2578 C2579 1.394 . S
C2578 C2584 1.465 . S
C2579 C2574 1.399 . S
C2579 C2578 1.394 . S
C2579 C2580 1.516 . S
C2580 C2579 1.516 . S
C2580 C2581 1.502 . S
C2580 C2582 1.561 . S
C2580 C2583 1.526 . S
C2581 H2565 0.959 . S
C2581 H2566 0.959 . S
C2581 H2567 0.961 . S
C2581 C2580 1.502 . S
C2582 H2568 0.960 . S
C2582 H2569 0.961 . S
C2582 H2570 0.959 . S
C2582 C2580 1.561 . S
C2583 C2580 1.526 . S
C2583 C2584 1.396 . S
C2583 C2588 1.390 . S
C2584 C2578 1.465 . S
C2584 C2583 1.396 . S
C2584 C2585 1.399 . S
C2585 H2571 0.929 . S
C2585 C2584 1.399 . S
C2585 C2586 1.385 . S
C2586 H2572 0.931 . S
C2586 C2585 1.385 . S
C2586 C2587 1.389 . S
C2587 C2586 1.389 . S
C2587 C2588 1.387 . S
C2588 H2573 0.930 . S
C2588 C2583 1.390 . S
C2588 C2587 1.387 . S
H2589 C2601 0.930 . S
H2590 C2603 0.930 . S
H2591 C2604 0.930 . S
H2592 C2608 0.959 . S
H2593 C2608 0.959 . S
H2594 C2608 0.961 . S
H2595 C2609 0.960 . S
H2596 C2609 0.961 . S
H2597 C2609 0.959 . S
H2598 C2612 0.929 . S
H2599 C2613 0.931 . S
H2600 C2615 0.930 . S
C2601 H2589 0.930 . S
C2601 C2602 1.399 . S
C2601 C2606 1.399 . S
C2602 C2601 1.399 . S
C2602 C2603 1.376 . S
C2603 H2590 0.930 . S
C2603 C2602 1.376 . S
C2603 C2604 1.388 . S
C2604 H2591 0.930 . S
C2604 C2603 1.388 . S
C2604 C2605 1.390 . S
C2605 C2604 1.390 . S
C2605 C2606 1.394 . S
C2605 C2611 1.465 . S
C2606 C2601 1.399 . S
C2606 C2605 1.394 . S
C2606 C2607 1.516 . S
C2607 C2606 1.516 . S
C2607 C2608 1.502 . S
C2607 C2609 1.561 . S
C2607 C2610 1.526 . S
C2608 H2592 0.959 . S
C2608 H2593 0.959 . S
C2608 H2594 0.961 . S
C2608 C2607 1.502 . S
C2609 H2595 0.960 . S
C2609 H2596 0.961 . S
C2609 H2597 0.959 . S
C2609 C2607 1.561 . S
C2610 C2607 1.526 . S
C2610 C2611 1.396 . S
C2610 C2615 1.390 . S
C2611 C2605 1.465 . S
C2611 C2610 1.396 . S
C2611 C2612 1.399 . S
C2612 H2598 0.929 . S
C2612 C2611 1.399 . S
C2612 C2613 1.385 . S
C2613 H2599 0.931 . S
C2613 C2612 1.385 . S
C2613 C2614 1.389 . S
C2614 C2613 1.389 . S
C2614 C2615 1.387 . S
C2615 H2600 0.930 . S
C2615 C2610 1.390 . S
C2615 C2614 1.387 . S
H2616 C2628 0.930 . S
H2617 C2630 0.930 . S
H2618 C2631 0.930 . S
H2619 C2635 0.959 . S
H2620 C2635 0.959 . S
H2621 C2635 0.961 . S
H2622 C2636 0.960 . S
H2623 C2636 0.961 . S
H2624 C2636 0.959 . S
H2625 C2639 0.929 . S
H2626 C2640 0.931 . S
H2627 C2642 0.930 . S
C2628 H2616 0.930 . S
C2628 C2629 1.399 . S
C2628 C2633 1.399 . S
C2629 C2628 1.399 . S
C2629 C2630 1.376 . S
C2630 H2617 0.930 . S
C2630 C2629 1.376 . S
C2630 C2631 1.388 . S
C2631 H2618 0.930 . S
C2631 C2630 1.388 . S
C2631 C2632 1.390 . S
C2632 C2631 1.390 . S
C2632 C2633 1.394 . S
C2632 C2638 1.465 . S
C2633 C2628 1.399 . S
C2633 C2632 1.394 . S
C2633 C2634 1.516 . S
C2634 C2633 1.516 . S
C2634 C2635 1.502 . S
C2634 C2636 1.561 . S
C2634 C2637 1.526 . S
C2635 H2619 0.959 . S
C2635 H2620 0.959 . S
C2635 H2621 0.961 . S
C2635 C2634 1.502 . S
C2636 H2622 0.960 . S
C2636 H2623 0.961 . S
C2636 H2624 0.959 . S
C2636 C2634 1.561 . S
C2637 C2634 1.526 . S
C2637 C2638 1.396 . S
C2637 C2642 1.390 . S
C2638 C2632 1.465 . S
C2638 C2637 1.396 . S
C2638 C2639 1.399 . S
C2639 H2625 0.929 . S
C2639 C2638 1.399 . S
C2639 C2640 1.385 . S
C2640 H2626 0.931 . S
C2640 C2639 1.385 . S
C2640 C2641 1.389 . S
C2641 C2640 1.389 . S
C2641 C2642 1.387 . S
C2642 H2627 0.930 . S
C2642 C2637 1.390 . S
C2642 C2641 1.387 . S
H2643 C2655 0.930 . S
H2644 C2657 0.930 . S
H2645 C2658 0.930 . S
H2646 C2662 0.959 . S
H2647 C2662 0.959 . S
H2648 C2662 0.961 . S
H2649 C2663 0.960 . S
H2650 C2663 0.961 . S
H2651 C2663 0.959 . S
H2652 C2666 0.929 . S
H2653 C2667 0.931 . S
H2654 C2669 0.930 . S
C2655 H2643 0.930 . S
C2655 C2656 1.399 . S
C2655 C2660 1.399 . S
C2656 C2655 1.399 . S
C2656 C2657 1.376 . S
C2657 H2644 0.930 . S
C2657 C2656 1.376 . S
C2657 C2658 1.388 . S
C2658 H2645 0.930 . S
C2658 C2657 1.388 . S
C2658 C2659 1.390 . S
C2659 C2658 1.390 . S
C2659 C2660 1.394 . S
C2659 C2665 1.465 . S
C2660 C2655 1.399 . S
C2660 C2659 1.394 . S
C2660 C2661 1.516 . S
C2661 C2660 1.516 . S
C2661 C2662 1.502 . S
C2661 C2663 1.561 . S
C2661 C2664 1.526 . S
C2662 H2646 0.959 . S
C2662 H2647 0.959 . S
C2662 H2648 0.961 . S
C2662 C2661 1.502 . S
C2663 H2649 0.960 . S
C2663 H2650 0.961 . S
C2663 H2651 0.959 . S
C2663 C2661 1.561 . S
C2664 C2661 1.526 . S
C2664 C2665 1.396 . S
C2664 C2669 1.390 . S
C2665 C2659 1.465 . S
C2665 C2664 1.396 . S
C2665 C2666 1.399 . S
C2666 H2652 0.929 . S
C2666 C2665 1.399 . S
C2666 C2667 1.385 . S
C2667 H2653 0.931 . S
C2667 C2666 1.385 . S
C2667 C2668 1.389 . S
C2668 C2667 1.389 . S
C2668 C2669 1.387 . S
C2669 H2654 0.930 . S
C2669 C2664 1.390 . S
C2669 C2668 1.387 . S
H2670 C2682 0.930 . S
H2671 C2684 0.930 . S
H2672 C2685 0.930 . S
H2673 C2689 0.959 . S
H2674 C2689 0.959 . S
H2675 C2689 0.961 . S
H2676 C2690 0.960 . S
H2677 C2690 0.961 . S
H2678 C2690 0.959 . S
H2679 C2693 0.929 . S
H2680 C2694 0.931 . S
H2681 C2696 0.930 . S
C2682 H2670 0.930 . S
C2682 C2683 1.399 . S
C2682 C2687 1.399 . S
C2683 C2682 1.399 . S
C2683 C2684 1.376 . S
C2684 H2671 0.930 . S
C2684 C2683 1.376 . S
C2684 C2685 1.388 . S
C2685 H2672 0.930 . S
C2685 C2684 1.388 . S
C2685 C2686 1.390 . S
C2686 C2685 1.390 . S
C2686 C2687 1.394 . S
C2686 C2692 1.465 . S
C2687 C2682 1.399 . S
C2687 C2686 1.394 . S
C2687 C2688 1.516 . S
C2688 C2687 1.516 . S
C2688 C2689 1.502 . S
C2688 C2690 1.561 . S
C2688 C2691 1.526 . S
C2689 H2673 0.959 . S
C2689 H2674 0.959 . S
C2689 H2675 0.961 . S
C2689 C2688 1.502 . S
C2690 H2676 0.960 . S
C2690 H2677 0.961 . S
C2690 H2678 0.959 . S
C2690 C2688 1.561 . S
C2691 C2688 1.526 . S
C2691 C2692 1.396 . S
C2691 C2696 1.390 . S
C2692 C2686 1.465 . S
C2692 C2691 1.396 . S
C2692 C2693 1.399 . S
C2693 H2679 0.929 . S
C2693 C2692 1.399 . S
C2693 C2694 1.385 . S
C2694 H2680 0.931 . S
C2694 C2693 1.385 . S
C2694 C2695 1.389 . S
C2695 C2694 1.389 . S
C2695 C2696 1.387 . S
C2696 H2681 0.930 . S
C2696 C2691 1.390 . S
C2696 C2695 1.387 . S
H2697 C2709 0.930 . S
H2698 C2711 0.930 . S
H2699 C2712 0.930 . S
H2700 C2716 0.959 . S
H2701 C2716 0.959 . S
H2702 C2716 0.961 . S
H2703 C2717 0.960 . S
H2704 C2717 0.961 . S
H2705 C2717 0.959 . S
H2706 C2720 0.929 . S
H2707 C2721 0.931 . S
H2708 C2723 0.930 . S
C2709 H2697 0.930 . S
C2709 C2710 1.399 . S
C2709 C2714 1.399 . S
C2710 C2709 1.399 . S
C2710 C2711 1.376 . S
C2711 H2698 0.930 . S
C2711 C2710 1.376 . S
C2711 C2712 1.388 . S
C2712 H2699 0.930 . S
C2712 C2711 1.388 . S
C2712 C2713 1.390 . S
C2713 C2712 1.390 . S
C2713 C2714 1.394 . S
C2713 C2719 1.465 . S
C2714 C2709 1.399 . S
C2714 C2713 1.394 . S
C2714 C2715 1.516 . S
C2715 C2714 1.516 . S
C2715 C2716 1.502 . S
C2715 C2717 1.561 . S
C2715 C2718 1.526 . S
C2716 H2700 0.959 . S
C2716 H2701 0.959 . S
C2716 H2702 0.961 . S
C2716 C2715 1.502 . S
C2717 H2703 0.960 . S
C2717 H2704 0.961 . S
C2717 H2705 0.959 . S
C2717 C2715 1.561 . S
C2718 C2715 1.526 . S
C2718 C2719 1.396 . S
C2718 C2723 1.390 . S
C2719 C2713 1.465 . S
C2719 C2718 1.396 . S
C2719 C2720 1.399 . S
C2720 H2706 0.929 . S
C2720 C2719 1.399 . S
C2720 C2721 1.385 . S
C2721 H2707 0.931 . S
C2721 C2720 1.385 . S
C2721 C2722 1.389 . S
C2722 C2721 1.389 . S
C2722 C2723 1.387 . S
C2723 H2708 0.930 . S
C2723 C2718 1.390 . S
C2723 C2722 1.387 . S
H2724 C2736 0.930 . S
H2725 C2738 0.930 . S
H2726 C2739 0.930 . S
H2727 C2743 0.959 . S
H2728 C2743 0.959 . S
H2729 C2743 0.961 . S
H2730 C2744 0.960 . S
H2731 C2744 0.961 . S
H2732 C2744 0.959 . S
H2733 C2747 0.929 . S
H2734 C2748 0.931 . S
H2735 C2750 0.930 . S
C2736 H2724 0.930 . S
C2736 C2737 1.399 . S
C2736 C2741 1.399 . S
C2737 C2736 1.399 . S
C2737 C2738 1.376 . S
C2738 H2725 0.930 . S
C2738 C2737 1.376 . S
C2738 C2739 1.388 . S
C2739 H2726 0.930 . S
C2739 C2738 1.388 . S
C2739 C2740 1.390 . S
C2740 C2739 1.390 . S
C2740 C2741 1.394 . S
C2740 C2746 1.465 . S
C2741 C2736 1.399 . S
C2741 C2740 1.394 . S
C2741 C2742 1.516 . S
C2742 C2741 1.516 . S
C2742 C2743 1.502 . S
C2742 C2744 1.561 . S
C2742 C2745 1.526 . S
C2743 H2727 0.959 . S
C2743 H2728 0.959 . S
C2743 H2729 0.961 . S
C2743 C2742 1.502 . S
C2744 H2730 0.960 . S
C2744 H2731 0.961 . S
C2744 H2732 0.959 . S
C2744 C2742 1.561 . S
C2745 C2742 1.526 . S
C2745 C2746 1.396 . S
C2745 C2750 1.390 . S
C2746 C2740 1.465 . S
C2746 C2745 1.396 . S
C2746 C2747 1.399 . S
C2747 H2733 0.929 . S
C2747 C2746 1.399 . S
C2747 C2748 1.385 . S
C2748 H2734 0.931 . S
C2748 C2747 1.385 . S
C2748 C2749 1.389 . S
C2749 C2748 1.389 . S
C2749 C2750 1.387 . S
C2750 H2735 0.930 . S
C2750 C2745 1.390 . S
C2750 C2749 1.387 . S
H2751 C2763 0.930 . S
H2752 C2765 0.930 . S
H2753 C2766 0.930 . S
H2754 C2770 0.959 . S
H2755 C2770 0.959 . S
H2756 C2770 0.961 . S
H2757 C2771 0.960 . S
H2758 C2771 0.961 . S
H2759 C2771 0.959 . S
H2760 C2774 0.929 . S
H2761 C2775 0.931 . S
H2762 C2777 0.930 . S
C2763 H2751 0.930 . S
C2763 C2764 1.399 . S
C2763 C2768 1.399 . S
C2764 C2763 1.399 . S
C2764 C2765 1.376 . S
C2765 H2752 0.930 . S
C2765 C2764 1.376 . S
C2765 C2766 1.388 . S
C2766 H2753 0.930 . S
C2766 C2765 1.388 . S
C2766 C2767 1.390 . S
C2767 C2766 1.390 . S
C2767 C2768 1.394 . S
C2767 C2773 1.465 . S
C2768 C2763 1.399 . S
C2768 C2767 1.394 . S
C2768 C2769 1.516 . S
C2769 C2768 1.516 . S
C2769 C2770 1.502 . S
C2769 C2771 1.561 . S
C2769 C2772 1.526 . S
C2770 H2754 0.959 . S
C2770 H2755 0.959 . S
C2770 H2756 0.961 . S
C2770 C2769 1.502 . S
C2771 H2757 0.960 . S
C2771 H2758 0.961 . S
C2771 H2759 0.959 . S
C2771 C2769 1.561 . S
C2772 C2769 1.526 . S
C2772 C2773 1.396 . S
C2772 C2777 1.390 . S
C2773 C2767 1.465 . S
C2773 C2772 1.396 . S
C2773 C2774 1.399 . S
C2774 H2760 0.929 . S
C2774 C2773 1.399 . S
C2774 C2775 1.385 . S
C2775 H2761 0.931 . S
C2775 C2774 1.385 . S
C2775 C2776 1.389 . S
C2776 C2775 1.389 . S
C2776 C2777 1.387 . S
C2777 H2762 0.930 . S
C2777 C2772 1.390 . S
C2777 C2776 1.387 . S
H2778 C2790 0.930 . S
H2779 C2792 0.930 . S
H2780 C2793 0.930 . S
H2781 C2797 0.959 . S
H2782 C2797 0.959 . S
H2783 C2797 0.961 . S
H2784 C2798 0.960 . S
H2785 C2798 0.961 . S
H2786 C2798 0.959 . S
H2787 C2801 0.929 . S
H2788 C2802 0.931 . S
H2789 C2804 0.930 . S
C2790 H2778 0.930 . S
C2790 C2791 1.399 . S
C2790 C2795 1.399 . S
C2791 C2790 1.399 . S
C2791 C2792 1.376 . S
C2792 H2779 0.930 . S
C2792 C2791 1.376 . S
C2792 C2793 1.388 . S
C2793 H2780 0.930 . S
C2793 C2792 1.388 . S
C2793 C2794 1.390 . S
C2794 C2793 1.390 . S
C2794 C2795 1.394 . S
C2794 C2800 1.465 . S
C2795 C2790 1.399 . S
C2795 C2794 1.394 . S
C2795 C2796 1.516 . S
C2796 C2795 1.516 . S
C2796 C2797 1.502 . S
C2796 C2798 1.561 . S
C2796 C2799 1.526 . S
C2797 H2781 0.959 . S
C2797 H2782 0.959 . S
C2797 H2783 0.961 . S
C2797 C2796 1.502 . S
C2798 H2784 0.960 . S
C2798 H2785 0.961 . S
C2798 H2786 0.959 . S
C2798 C2796 1.561 . S
C2799 C2796 1.526 . S
C2799 C2800 1.396 . S
C2799 C2804 1.390 . S
C2800 C2794 1.465 . S
C2800 C2799 1.396 . S
C2800 C2801 1.399 . S
C2801 H2787 0.929 . S
C2801 C2800 1.399 . S
C2801 C2802 1.385 . S
C2802 H2788 0.931 . S
C2802 C2801 1.385 . S
C2802 C2803 1.389 . S
C2803 C2802 1.389 . S
C2803 C2804 1.387 . S
C2804 H2789 0.930 . S
C2804 C2799 1.390 . S
C2804 C2803 1.387 . S
H2805 C2817 0.930 . S
H2806 C2819 0.930 . S
H2807 C2820 0.930 . S
H2808 C2824 0.959 . S
H2809 C2824 0.959 . S
H2810 C2824 0.961 . S
H2811 C2825 0.960 . S
H2812 C2825 0.961 . S
H2813 C2825 0.959 . S
H2814 C2828 0.929 . S
H2815 C2829 0.931 . S
H2816 C2831 0.930 . S
C2817 H2805 0.930 . S
C2817 C2818 1.399 . S
C2817 C2822 1.399 . S
C2818 C2817 1.399 . S
C2818 C2819 1.376 . S
C2819 H2806 0.930 . S
C2819 C2818 1.376 . S
C2819 C2820 1.388 . S
C2820 H2807 0.930 . S
C2820 C2819 1.388 . S
C2820 C2821 1.390 . S
C2821 C2820 1.390 . S
C2821 C2822 1.394 . S
C2821 C2827 1.465 . S
C2822 C2817 1.399 . S
C2822 C2821 1.394 . S
C2822 C2823 1.516 . S
C2823 C2822 1.516 . S
C2823 C2824 1.502 . S
C2823 C2825 1.561 . S
C2823 C2826 1.526 . S
C2824 H2808 0.959 . S
C2824 H2809 0.959 . S
C2824 H2810 0.961 . S
C2824 C2823 1.502 . S
C2825 H2811 0.960 . S
C2825 H2812 0.961 . S
C2825 H2813 0.959 . S
C2825 C2823 1.561 . S
C2826 C2823 1.526 . S
C2826 C2827 1.396 . S
C2826 C2831 1.390 . S
C2827 C2821 1.465 . S
C2827 C2826 1.396 . S
C2827 C2828 1.399 . S
C2828 H2814 0.929 . S
C2828 C2827 1.399 . S
C2828 C2829 1.385 . S
C2829 H2815 0.931 . S
C2829 C2828 1.385 . S
C2829 C2830 1.389 . S
C2830 C2829 1.389 . S
C2830 C2831 1.387 . S
C2831 H2816 0.930 . S
C2831 C2826 1.390 . S
C2831 C2830 1.387 . S
H2832 C2844 0.930 . S
H2833 C2846 0.930 . S
H2834 C2847 0.930 . S
H2835 C2851 0.959 . S
H2836 C2851 0.959 . S
H2837 C2851 0.961 . S
H2838 C2852 0.960 . S
H2839 C2852 0.961 . S
H2840 C2852 0.959 . S
H2841 C2855 0.929 . S
H2842 C2856 0.931 . S
H2843 C2858 0.930 . S
C2844 H2832 0.930 . S
C2844 C2845 1.399 . S
C2844 C2849 1.399 . S
C2845 C2844 1.399 . S
C2845 C2846 1.376 . S
C2846 H2833 0.930 . S
C2846 C2845 1.376 . S
C2846 C2847 1.388 . S
C2847 H2834 0.930 . S
C2847 C2846 1.388 . S
C2847 C2848 1.390 . S
C2848 C2847 1.390 . S
C2848 C2849 1.394 . S
C2848 C2854 1.465 . S
C2849 C2844 1.399 . S
C2849 C2848 1.394 . S
C2849 C2850 1.516 . S
C2850 C2849 1.516 . S
C2850 C2851 1.502 . S
C2850 C2852 1.561 . S
C2850 C2853 1.526 . S
C2851 H2835 0.959 . S
C2851 H2836 0.959 . S
C2851 H2837 0.961 . S
C2851 C2850 1.502 . S
C2852 H2838 0.960 . S
C2852 H2839 0.961 . S
C2852 H2840 0.959 . S
C2852 C2850 1.561 . S
C2853 C2850 1.526 . S
C2853 C2854 1.396 . S
C2853 C2858 1.390 . S
C2854 C2848 1.465 . S
C2854 C2853 1.396 . S
C2854 C2855 1.399 . S
C2855 H2841 0.929 . S
C2855 C2854 1.399 . S
C2855 C2856 1.385 . S
C2856 H2842 0.931 . S
C2856 C2855 1.385 . S
C2856 C2857 1.389 . S
C2857 C2856 1.389 . S
C2857 C2858 1.387 . S
C2858 H2843 0.930 . S
C2858 C2853 1.390 . S
C2858 C2857 1.387 . S
H2859 C2871 0.930 . S
H2860 C2873 0.930 . S
H2861 C2874 0.930 . S
H2862 C2878 0.959 . S
H2863 C2878 0.959 . S
H2864 C2878 0.961 . S
H2865 C2879 0.960 . S
H2866 C2879 0.961 . S
H2867 C2879 0.959 . S
H2868 C2882 0.929 . S
H2869 C2883 0.931 . S
H2870 C2885 0.930 . S
C2871 H2859 0.930 . S
C2871 C2872 1.399 . S
C2871 C2876 1.399 . S
C2872 C2871 1.399 . S
C2872 C2873 1.376 . S
C2873 H2860 0.930 . S
C2873 C2872 1.376 . S
C2873 C2874 1.388 . S
C2874 H2861 0.930 . S
C2874 C2873 1.388 . S
C2874 C2875 1.390 . S
C2875 C2874 1.390 . S
C2875 C2876 1.394 . S
C2875 C2881 1.465 . S
C2876 C2871 1.399 . S
C2876 C2875 1.394 . S
C2876 C2877 1.516 . S
C2877 C2876 1.516 . S
C2877 C2878 1.502 . S
C2877 C2879 1.561 . S
C2877 C2880 1.526 . S
C2878 H2862 0.959 . S
C2878 H2863 0.959 . S
C2878 H2864 0.961 . S
C2878 C2877 1.502 . S
C2879 H2865 0.960 . S
C2879 H2866 0.961 . S
C2879 H2867 0.959 . S
C2879 C2877 1.561 . S
C2880 C2877 1.526 . S
C2880 C2881 1.396 . S
C2880 C2885 1.390 . S
C2881 C2875 1.465 . S
C2881 C2880 1.396 . S
C2881 C2882 1.399 . S
C2882 H2868 0.929 . S
C2882 C2881 1.399 . S
C2882 C2883 1.385 . S
C2883 H2869 0.931 . S
C2883 C2882 1.385 . S
C2883 C2884 1.389 . S
C2884 C2883 1.389 . S
C2884 C2885 1.387 . S
C2885 H2870 0.930 . S
C2885 C2880 1.390 . S
C2885 C2884 1.387 . S
H2886 C2898 0.930 . S
H2887 C2900 0.930 . S
H2888 C2901 0.930 . S
H2889 C2905 0.959 . S
H2890 C2905 0.959 . S
H2891 C2905 0.961 . S
H2892 C2906 0.960 . S
H2893 C2906 0.961 . S
H2894 C2906 0.959 . S
H2895 C2909 0.929 . S
H2896 C2910 0.931 . S
H2897 C2912 0.930 . S
C2898 H2886 0.930 . S
C2898 C2899 1.399 . S
C2898 C2903 1.399 . S
C2899 C2898 1.399 . S
C2899 C2900 1.376 . S
C2900 H2887 0.930 . S
C2900 C2899 1.376 . S
C2900 C2901 1.388 . S
C2901 H2888 0.930 . S
C2901 C2900 1.388 . S
C2901 C2902 1.390 . S
C2902 C2901 1.390 . S
C2902 C2903 1.394 . S
C2902 C2908 1.465 . S
C2903 C2898 1.399 . S
C2903 C2902 1.394 . S
C2903 C2904 1.516 . S
C2904 C2903 1.516 . S
C2904 C2905 1.502 . S
C2904 C2906 1.561 . S
C2904 C2907 1.526 . S
C2905 H2889 0.959 . S
C2905 H2890 0.959 . S
C2905 H2891 0.961 . S
C2905 C2904 1.502 . S
C2906 H2892 0.960 . S
C2906 H2893 0.961 . S
C2906 H2894 0.959 . S
C2906 C2904 1.561 . S
C2907 C2904 1.526 . S
C2907 C2908 1.396 . S
C2907 C2912 1.390 . S
C2908 C2902 1.465 . S
C2908 C2907 1.396 . S
C2908 C2909 1.399 . S
C2909 H2895 0.929 . S
C2909 C2908 1.399 . S
C2909 C2910 1.385 . S
C2910 H2896 0.931 . S
C2910 C2909 1.385 . S
C2910 C2911 1.389 . S
C2911 C2910 1.389 . S
C2911 C2912 1.387 . S
C2912 H2897 0.930 . S
C2912 C2907 1.390 . S
C2912 C2911 1.387 . S
H2913 C2925 0.930 . S
H2914 C2927 0.930 . S
H2915 C2928 0.930 . S
H2916 C2932 0.959 . S
H2917 C2932 0.959 . S
H2918 C2932 0.961 . S
H2919 C2933 0.960 . S
H2920 C2933 0.961 . S
H2921 C2933 0.959 . S
H2922 C2936 0.929 . S
H2923 C2937 0.931 . S
H2924 C2939 0.930 . S
C2925 H2913 0.930 . S
C2925 C2926 1.399 . S
C2925 C2930 1.399 . S
C2926 C2925 1.399 . S
C2926 C2927 1.376 . S
C2927 H2914 0.930 . S
C2927 C2926 1.376 . S
C2927 C2928 1.388 . S
C2928 H2915 0.930 . S
C2928 C2927 1.388 . S
C2928 C2929 1.390 . S
C2929 C2928 1.390 . S
C2929 C2930 1.394 . S
C2929 C2935 1.465 . S
C2930 C2925 1.399 . S
C2930 C2929 1.394 . S
C2930 C2931 1.516 . S
C2931 C2930 1.516 . S
C2931 C2932 1.502 . S
C2931 C2933 1.561 . S
C2931 C2934 1.526 . S
C2932 H2916 0.959 . S
C2932 H2917 0.959 . S
C2932 H2918 0.961 . S
C2932 C2931 1.502 . S
C2933 H2919 0.960 . S
C2933 H2920 0.961 . S
C2933 H2921 0.959 . S
C2933 C2931 1.561 . S
C2934 C2931 1.526 . S
C2934 C2935 1.396 . S
C2934 C2939 1.390 . S
C2935 C2929 1.465 . S
C2935 C2934 1.396 . S
C2935 C2936 1.399 . S
C2936 H2922 0.929 . S
C2936 C2935 1.399 . S
C2936 C2937 1.385 . S
C2937 H2923 0.931 . S
C2937 C2936 1.385 . S
C2937 C2938 1.389 . S
C2938 C2937 1.389 . S
C2938 C2939 1.387 . S
C2939 H2924 0.930 . S
C2939 C2934 1.390 . S
C2939 C2938 1.387 . S
H2940 C2952 0.930 . S
H2941 C2954 0.930 . S
H2942 C2955 0.930 . S
H2943 C2959 0.959 . S
H2944 C2959 0.959 . S
H2945 C2959 0.961 . S
H2946 C2960 0.960 . S
H2947 C2960 0.961 . S
H2948 C2960 0.959 . S
H2949 C2963 0.929 . S
H2950 C2964 0.931 . S
H2951 C2966 0.930 . S
C2952 H2940 0.930 . S
C2952 C2953 1.399 . S
C2952 C2957 1.399 . S
C2953 C2952 1.399 . S
C2953 C2954 1.376 . S
C2954 H2941 0.930 . S
C2954 C2953 1.376 . S
C2954 C2955 1.388 . S
C2955 H2942 0.930 . S
C2955 C2954 1.388 . S
C2955 C2956 1.390 . S
C2956 C2955 1.390 . S
C2956 C2957 1.394 . S
C2956 C2962 1.465 . S
C2957 C2952 1.399 . S
C2957 C2956 1.394 . S
C2957 C2958 1.516 . S
C2958 C2957 1.516 . S
C2958 C2959 1.502 . S
C2958 C2960 1.561 . S
C2958 C2961 1.526 . S
C2959 H2943 0.959 . S
C2959 H2944 0.959 . S
C2959 H2945 0.961 . S
C2959 C2958 1.502 . S
C2960 H2946 0.960 . S
C2960 H2947 0.961 . S
C2960 H2948 0.959 . S
C2960 C2958 1.561 . S
C2961 C2958 1.526 . S
C2961 C2962 1.396 . S
C2961 C2966 1.390 . S
C2962 C2956 1.465 . S
C2962 C2961 1.396 . S
C2962 C2963 1.399 . S
C2963 H2949 0.929 . S
C2963 C2962 1.399 . S
C2963 C2964 1.385 . S
C2964 H2950 0.931 . S
C2964 C2963 1.385 . S
C2964 C2965 1.389 . S
C2965 C2964 1.389 . S
C2965 C2966 1.387 . S
C2966 H2951 0.930 . S
C2966 C2961 1.390 . S
C2966 C2965 1.387 . S
H2967 C2979 0.930 . S
H2968 C2981 0.930 . S
H2969 C2982 0.930 . S
H2970 C2986 0.959 . S
H2971 C2986 0.959 . S
H2972 C2986 0.961 . S
H2973 C2987 0.960 . S
H2974 C2987 0.961 . S
H2975 C2987 0.959 . S
H2976 C2990 0.929 . S
H2977 C2991 0.931 . S
H2978 C2993 0.930 . S
C2979 H2967 0.930 . S
C2979 C2980 1.399 . S
C2979 C2984 1.399 . S
C2980 C2979 1.399 . S
C2980 C2981 1.376 . S
C2981 H2968 0.930 . S
C2981 C2980 1.376 . S
C2981 C2982 1.388 . S
C2982 H2969 0.930 . S
C2982 C2981 1.388 . S
C2982 C2983 1.390 . S
C2983 C2982 1.390 . S
C2983 C2984 1.394 . S
C2983 C2989 1.465 . S
C2984 C2979 1.399 . S
C2984 C2983 1.394 . S
C2984 C2985 1.516 . S
C2985 C2984 1.516 . S
C2985 C2986 1.502 . S
C2985 C2987 1.561 . S
C2985 C2988 1.526 . S
C2986 H2970 0.959 . S
C2986 H2971 0.959 . S
C2986 H2972 0.961 . S
C2986 C2985 1.502 . S
C2987 H2973 0.960 . S
C2987 H2974 0.961 . S
C2987 H2975 0.959 . S
C2987 C2985 1.561 . S
C2988 C2985 1.526 . S
C2988 C2989 1.396 . S
C2988 C2993 1.390 . S
C2989 C2983 1.465 . S
C2989 C2988 1.396 . S
C2989 C2990 1.399 . S
C2990 H2976 0.929 . S
C2990 C2989 1.399 . S
C2990 C2991 1.385 . S
C2991 H2977 0.931 . S
C2991 C2990 1.385 . S
C2991 C2992 1.389 . S
C2992 C2991 1.389 . S
C2992 C2993 1.387 . S
C2993 H2978 0.930 . S
C2993 C2988 1.390 . S
C2993 C2992 1.387 . S
H2994 C3006 0.930 . S
H2995 C3008 0.930 . S
H2996 C3009 0.930 . S
H2997 C3013 0.959 . S
H2998 C3013 0.959 . S
H2999 C3013 0.961 . S
H3000 C3014 0.960 . S
H3001 C3014 0.961 . S
H3002 C3014 0.959 . S
H3003 C3017 0.929 . S
H3004 C3018 0.931 . S
H3005 C3020 0.930 . S
C3006 H2994 0.930 . S
C3006 C3007 1.399 . S
C3006 C3011 1.399 . S
C3007 C3006 1.399 . S
C3007 C3008 1.376 . S
C3008 H2995 0.930 . S
C3008 C3007 1.376 . S
C3008 C3009 1.388 . S
C3009 H2996 0.930 . S
C3009 C3008 1.388 . S
C3009 C3010 1.390 . S
C3010 C3009 1.390 . S
C3010 C3011 1.394 . S
C3010 C3016 1.465 . S
C3011 C3006 1.399 . S
C3011 C3010 1.394 . S
C3011 C3012 1.516 . S
C3012 C3011 1.516 . S
C3012 C3013 1.502 . S
C3012 C3014 1.561 . S
C3012 C3015 1.526 . S
C3013 H2997 0.959 . S
C3013 H2998 0.959 . S
C3013 H2999 0.961 . S
C3013 C3012 1.502 . S
C3014 H3000 0.960 . S
C3014 H3001 0.961 . S
C3014 H3002 0.959 . S
C3014 C3012 1.561 . S
C3015 C3012 1.526 . S
C3015 C3016 1.396 . S
C3015 C3020 1.390 . S
C3016 C3010 1.465 . S
C3016 C3015 1.396 . S
C3016 C3017 1.399 . S
C3017 H3003 0.929 . S
C3017 C3016 1.399 . S
C3017 C3018 1.385 . S
C3018 H3004 0.931 . S
C3018 C3017 1.385 . S
C3018 C3019 1.389 . S
C3019 C3018 1.389 . S
C3019 C3020 1.387 . S
C3020 H3005 0.930 . S
C3020 C3015 1.390 . S
C3020 C3019 1.387 . S
H3021 C3033 0.930 . S
H3022 C3035 0.930 . S
H3023 C3036 0.930 . S
H3024 C3040 0.959 . S
H3025 C3040 0.959 . S
H3026 C3040 0.961 . S
H3027 C3041 0.960 . S
H3028 C3041 0.961 . S
H3029 C3041 0.959 . S
H3030 C3044 0.929 . S
H3031 C3045 0.931 . S
H3032 C3047 0.930 . S
C3033 H3021 0.930 . S
C3033 C3034 1.399 . S
C3033 C3038 1.399 . S
C3034 C3033 1.399 . S
C3034 C3035 1.376 . S
C3035 H3022 0.930 . S
C3035 C3034 1.376 . S
C3035 C3036 1.388 . S
C3036 H3023 0.930 . S
C3036 C3035 1.388 . S
C3036 C3037 1.390 . S
C3037 C3036 1.390 . S
C3037 C3038 1.394 . S
C3037 C3043 1.465 . S
C3038 C3033 1.399 . S
C3038 C3037 1.394 . S
C3038 C3039 1.516 . S
C3039 C3038 1.516 . S
C3039 C3040 1.502 . S
C3039 C3041 1.561 . S
C3039 C3042 1.526 . S
C3040 H3024 0.959 . S
C3040 H3025 0.959 . S
C3040 H3026 0.961 . S
C3040 C3039 1.502 . S
C3041 H3027 0.960 . S
C3041 H3028 0.961 . S
C3041 H3029 0.959 . S
C3041 C3039 1.561 . S
C3042 C3039 1.526 . S
C3042 C3043 1.396 . S
C3042 C3047 1.390 . S
C3043 C3037 1.465 . S
C3043 C3042 1.396 . S
C3043 C3044 1.399 . S
C3044 H3030 0.929 . S
C3044 C3043 1.399 . S
C3044 C3045 1.385 . S
C3045 H3031 0.931 . S
C3045 C3044 1.385 . S
C3045 C3046 1.389 . S
C3046 C3045 1.389 . S
C3046 C3047 1.387 . S
C3047 H3032 0.930 . S
C3047 C3042 1.390 . S
C3047 C3046 1.387 . S
H3048 C3060 0.930 . S
H3049 C3062 0.930 . S
H3050 C3063 0.930 . S
H3051 C3067 0.959 . S
H3052 C3067 0.959 . S
H3053 C3067 0.961 . S
H3054 C3068 0.960 . S
H3055 C3068 0.961 . S
H3056 C3068 0.959 . S
H3057 C3071 0.929 . S
H3058 C3072 0.931 . S
H3059 C3074 0.930 . S
C3060 H3048 0.930 . S
C3060 C3061 1.399 . S
C3060 C3065 1.399 . S
C3061 C3060 1.399 . S
C3061 C3062 1.376 . S
C3062 H3049 0.930 . S
C3062 C3061 1.376 . S
C3062 C3063 1.388 . S
C3063 H3050 0.930 . S
C3063 C3062 1.388 . S
C3063 C3064 1.390 . S
C3064 C3063 1.390 . S
C3064 C3065 1.394 . S
C3064 C3070 1.465 . S
C3065 C3060 1.399 . S
C3065 C3064 1.394 . S
C3065 C3066 1.516 . S
C3066 C3065 1.516 . S
C3066 C3067 1.502 . S
C3066 C3068 1.561 . S
C3066 C3069 1.526 . S
C3067 H3051 0.959 . S
C3067 H3052 0.959 . S
C3067 H3053 0.961 . S
C3067 C3066 1.502 . S
C3068 H3054 0.960 . S
C3068 H3055 0.961 . S
C3068 H3056 0.959 . S
C3068 C3066 1.561 . S
C3069 C3066 1.526 . S
C3069 C3070 1.396 . S
C3069 C3074 1.390 . S
C3070 C3064 1.465 . S
C3070 C3069 1.396 . S
C3070 C3071 1.399 . S
C3071 H3057 0.929 . S
C3071 C3070 1.399 . S
C3071 C3072 1.385 . S
C3072 H3058 0.931 . S
C3072 C3071 1.385 . S
C3072 C3073 1.389 . S
C3073 C3072 1.389 . S
C3073 C3074 1.387 . S
C3074 H3059 0.930 . S
C3074 C3069 1.390 . S
C3074 C3073 1.387 . S
H3075 C3087 0.930 . S
H3076 C3089 0.930 . S
H3077 C3090 0.930 . S
H3078 C3094 0.959 . S
H3079 C3094 0.959 . S
H3080 C3094 0.961 . S
H3081 C3095 0.960 . S
H3082 C3095 0.961 . S
H3083 C3095 0.959 . S
H3084 C3098 0.929 . S
H3085 C3099 0.931 . S
H3086 C3101 0.930 . S
C3087 H3075 0.930 . S
C3087 C3088 1.399 . S
C3087 C3092 1.399 . S
C3088 C3087 1.399 . S
C3088 C3089 1.376 . S
C3089 H3076 0.930 . S
C3089 C3088 1.376 . S
C3089 C3090 1.388 . S
C3090 H3077 0.930 . S
C3090 C3089 1.388 . S
C3090 C3091 1.390 . S
C3091 C3090 1.390 . S
C3091 C3092 1.394 . S
C3091 C3097 1.465 . S
C3092 C3087 1.399 . S
C3092 C3091 1.394 . S
C3092 C3093 1.516 . S
C3093 C3092 1.516 . S
C3093 C3094 1.502 . S
C3093 C3095 1.561 . S
C3093 C3096 1.526 . S
C3094 H3078 0.959 . S
C3094 H3079 0.959 . S
C3094 H3080 0.961 . S
C3094 C3093 1.502 . S
C3095 H3081 0.960 . S
C3095 H3082 0.961 . S
C3095 H3083 0.959 . S
C3095 C3093 1.561 . S
C3096 C3093 1.526 . S
C3096 C3097 1.396 . S
C3096 C3101 1.390 . S
C3097 C3091 1.465 . S
C3097 C3096 1.396 . S
C3097 C3098 1.399 . S
C3098 H3084 0.929 . S
C3098 C3097 1.399 . S
C3098 C3099 1.385 . S
C3099 H3085 0.931 . S
C3099 C3098 1.385 . S
C3099 C3100 1.389 . S
C3100 C3099 1.389 . S
C3100 C3101 1.387 . S
C3101 H3086 0.930 . S
C3101 C3096 1.390 . S
C3101 C3100 1.387 . S
H3102 C3114 0.930 . S
H3103 C3116 0.930 . S
H3104 C3117 0.930 . S
H3105 C3121 0.959 . S
H3106 C3121 0.959 . S
H3107 C3121 0.961 . S
H3108 C3122 0.960 . S
H3109 C3122 0.961 . S
H3110 C3122 0.959 . S
H3111 C3125 0.929 . S
H3112 C3126 0.931 . S
H3113 C3128 0.930 . S
C3114 H3102 0.930 . S
C3114 C3115 1.399 . S
C3114 C3119 1.399 . S
C3115 C3114 1.399 . S
C3115 C3116 1.376 . S
C3116 H3103 0.930 . S
C3116 C3115 1.376 . S
C3116 C3117 1.388 . S
C3117 H3104 0.930 . S
C3117 C3116 1.388 . S
C3117 C3118 1.390 . S
C3118 C3117 1.390 . S
C3118 C3119 1.394 . S
C3118 C3124 1.465 . S
C3119 C3114 1.399 . S
C3119 C3118 1.394 . S
C3119 C3120 1.516 . S
C3120 C3119 1.516 . S
C3120 C3121 1.502 . S
C3120 C3122 1.561 . S
C3120 C3123 1.526 . S
C3121 H3105 0.959 . S
C3121 H3106 0.959 . S
C3121 H3107 0.961 . S
C3121 C3120 1.502 . S
C3122 H3108 0.960 . S
C3122 H3109 0.961 . S
C3122 H3110 0.959 . S
C3122 C3120 1.561 . S
C3123 C3120 1.526 . S
C3123 C3124 1.396 . S
C3123 C3128 1.390 . S
C3124 C3118 1.465 . S
C3124 C3123 1.396 . S
C3124 C3125 1.399 . S
C3125 H3111 0.929 . S
C3125 C3124 1.399 . S
C3125 C3126 1.385 . S
C3126 H3112 0.931 . S
C3126 C3125 1.385 . S
C3126 C3127 1.389 . S
C3127 C3126 1.389 . S
C3127 C3128 1.387 . S
C3128 H3113 0.930 . S
C3128 C3123 1.390 . S
C3128 C3127 1.387 . S
H3129 C3141 0.930 . S
H3130 C3143 0.930 . S
H3131 C3144 0.930 . S
H3132 C3148 0.959 . S
H3133 C3148 0.959 . S
H3134 C3148 0.961 . S
H3135 C3149 0.960 . S
H3136 C3149 0.961 . S
H3137 C3149 0.959 . S
H3138 C3152 0.929 . S
H3139 C3153 0.931 . S
H3140 C3155 0.930 . S
C3141 H3129 0.930 . S
C3141 C3142 1.399 . S
C3141 C3146 1.399 . S
C3142 C3141 1.399 . S
C3142 C3143 1.376 . S
C3143 H3130 0.930 . S
C3143 C3142 1.376 . S
C3143 C3144 1.388 . S
C3144 H3131 0.930 . S
C3144 C3143 1.388 . S
C3144 C3145 1.390 . S
C3145 C3144 1.390 . S
C3145 C3146 1.394 . S
C3145 C3151 1.465 . S
C3146 C3141 1.399 . S
C3146 C3145 1.394 . S
C3146 C3147 1.516 . S
C3147 C3146 1.516 . S
C3147 C3148 1.502 . S
C3147 C3149 1.561 . S
C3147 C3150 1.526 . S
C3148 H3132 0.959 . S
C3148 H3133 0.959 . S
C3148 H3134 0.961 . S
C3148 C3147 1.502 . S
C3149 H3135 0.960 . S
C3149 H3136 0.961 . S
C3149 H3137 0.959 . S
C3149 C3147 1.561 . S
C3150 C3147 1.526 . S
C3150 C3151 1.396 . S
C3150 C3155 1.390 . S
C3151 C3145 1.465 . S
C3151 C3150 1.396 . S
C3151 C3152 1.399 . S
C3152 H3138 0.929 . S
C3152 C3151 1.399 . S
C3152 C3153 1.385 . S
C3153 H3139 0.931 . S
C3153 C3152 1.385 . S
C3153 C3154 1.389 . S
C3154 C3153 1.389 . S
C3154 C3155 1.387 . S
C3155 H3140 0.930 . S
C3155 C3150 1.390 . S
C3155 C3154 1.387 . S
H3156 C3168 0.930 . S
H3157 C3170 0.930 . S
H3158 C3171 0.930 . S
H3159 C3175 0.959 . S
H3160 C3175 0.959 . S
H3161 C3175 0.961 . S
H3162 C3176 0.960 . S
H3163 C3176 0.961 . S
H3164 C3176 0.959 . S
H3165 C3179 0.929 . S
H3166 C3180 0.931 . S
H3167 C3182 0.930 . S
C3168 H3156 0.930 . S
C3168 C3169 1.399 . S
C3168 C3173 1.399 . S
C3169 C3168 1.399 . S
C3169 C3170 1.376 . S
C3170 H3157 0.930 . S
C3170 C3169 1.376 . S
C3170 C3171 1.388 . S
C3171 H3158 0.930 . S
C3171 C3170 1.388 . S
C3171 C3172 1.390 . S
C3172 C3171 1.390 . S
C3172 C3173 1.394 . S
C3172 C3178 1.465 . S
C3173 C3168 1.399 . S
C3173 C3172 1.394 . S
C3173 C3174 1.516 . S
C3174 C3173 1.516 . S
C3174 C3175 1.502 . S
C3174 C3176 1.561 . S
C3174 C3177 1.526 . S
C3175 H3159 0.959 . S
C3175 H3160 0.959 . S
C3175 H3161 0.961 . S
C3175 C3174 1.502 . S
C3176 H3162 0.960 . S
C3176 H3163 0.961 . S
C3176 H3164 0.959 . S
C3176 C3174 1.561 . S
C3177 C3174 1.526 . S
C3177 C3178 1.396 . S
C3177 C3182 1.390 . S
C3178 C3172 1.465 . S
C3178 C3177 1.396 . S
C3178 C3179 1.399 . S
C3179 H3165 0.929 . S
C3179 C3178 1.399 . S
C3179 C3180 1.385 . S
C3180 H3166 0.931 . S
C3180 C3179 1.385 . S
C3180 C3181 1.389 . S
C3181 C3180 1.389 . S
C3181 C3182 1.387 . S
C3182 H3167 0.930 . S
C3182 C3177 1.390 . S
C3182 C3181 1.387 . S
H3183 C3195 0.930 . S
H3184 C3197 0.930 . S
H3185 C3198 0.930 . S
H3186 C3202 0.959 . S
H3187 C3202 0.959 . S
H3188 C3202 0.961 . S
H3189 C3203 0.960 . S
H3190 C3203 0.961 . S
H3191 C3203 0.959 . S
H3192 C3206 0.929 . S
H3193 C3207 0.931 . S
H3194 C3209 0.930 . S
C3195 H3183 0.930 . S
C3195 C3196 1.399 . S
C3195 C3200 1.399 . S
C3196 C3195 1.399 . S
C3196 C3197 1.376 . S
C3197 H3184 0.930 . S
C3197 C3196 1.376 . S
C3197 C3198 1.388 . S
C3198 H3185 0.930 . S
C3198 C3197 1.388 . S
C3198 C3199 1.390 . S
C3199 C3198 1.390 . S
C3199 C3200 1.394 . S
C3199 C3205 1.465 . S
C3200 C3195 1.399 . S
C3200 C3199 1.394 . S
C3200 C3201 1.516 . S
C3201 C3200 1.516 . S
C3201 C3202 1.502 . S
C3201 C3203 1.561 . S
C3201 C3204 1.526 . S
C3202 H3186 0.959 . S
C3202 H3187 0.959 . S
C3202 H3188 0.961 . S
C3202 C3201 1.502 . S
C3203 H3189 0.960 . S
C3203 H3190 0.961 . S
C3203 H3191 0.959 . S
C3203 C3201 1.561 . S
C3204 C3201 1.526 . S
C3204 C3205 1.396 . S
C3204 C3209 1.390 . S
C3205 C3199 1.465 . S
C3205 C3204 1.396 . S
C3205 C3206 1.399 . S
C3206 H3192 0.929 . S
C3206 C3205 1.399 . S
C3206 C3207 1.385 . S
C3207 H3193 0.931 . S
C3207 C3206 1.385 . S
C3207 C3208 1.389 . S
C3208 C3207 1.389 . S
C3208 C3209 1.387 . S
C3209 H3194 0.930 . S
C3209 C3204 1.390 . S
C3209 C3208 1.387 . S
H3210 C3222 0.930 . S
H3211 C3224 0.930 . S
H3212 C3225 0.930 . S
H3213 C3229 0.959 . S
H3214 C3229 0.959 . S
H3215 C3229 0.961 . S
H3216 C3230 0.960 . S
H3217 C3230 0.961 . S
H3218 C3230 0.959 . S
H3219 C3233 0.929 . S
H3220 C3234 0.931 . S
H3221 C3236 0.930 . S
C3222 H3210 0.930 . S
C3222 C3223 1.399 . S
C3222 C3227 1.399 . S
C3223 C3222 1.399 . S
C3223 C3224 1.376 . S
C3224 H3211 0.930 . S
C3224 C3223 1.376 . S
C3224 C3225 1.388 . S
C3225 H3212 0.930 . S
C3225 C3224 1.388 . S
C3225 C3226 1.390 . S
C3226 C3225 1.390 . S
C3226 C3227 1.394 . S
C3226 C3232 1.465 . S
C3227 C3222 1.399 . S
C3227 C3226 1.394 . S
C3227 C3228 1.516 . S
C3228 C3227 1.516 . S
C3228 C3229 1.502 . S
C3228 C3230 1.561 . S
C3228 C3231 1.526 . S
C3229 H3213 0.959 . S
C3229 H3214 0.959 . S
C3229 H3215 0.961 . S
C3229 C3228 1.502 . S
C3230 H3216 0.960 . S
C3230 H3217 0.961 . S
C3230 H3218 0.959 . S
C3230 C3228 1.561 . S
C3231 C3228 1.526 . S
C3231 C3232 1.396 . S
C3231 C3236 1.390 . S
C3232 C3226 1.465 . S
C3232 C3231 1.396 . S
C3232 C3233 1.399 . S
C3233 H3219 0.929 . S
C3233 C3232 1.399 . S
C3233 C3234 1.385 . S
C3234 H3220 0.931 . S
C3234 C3233 1.385 . S
C3234 C3235 1.389 . S
C3235 C3234 1.389 . S
C3235 C3236 1.387 . S
C3236 H3221 0.930 . S
C3236 C3231 1.390 . S
C3236 C3235 1.387 . S
H3237 C3249 0.930 . S
H3238 C3251 0.930 . S
H3239 C3252 0.930 . S
H3240 C3256 0.959 . S
H3241 C3256 0.959 . S
H3242 C3256 0.961 . S
H3243 C3257 0.960 . S
H3244 C3257 0.961 . S
H3245 C3257 0.959 . S
H3246 C3260 0.929 . S
H3247 C3261 0.931 . S
H3248 C3263 0.930 . S
C3249 H3237 0.930 . S
C3249 C3250 1.399 . S
C3249 C3254 1.399 . S
C3250 C3249 1.399 . S
C3250 C3251 1.376 . S
C3251 H3238 0.930 . S
C3251 C3250 1.376 . S
C3251 C3252 1.388 . S
C3252 H3239 0.930 . S
C3252 C3251 1.388 . S
C3252 C3253 1.390 . S
C3253 C3252 1.390 . S
C3253 C3254 1.394 . S
C3253 C3259 1.465 . S
C3254 C3249 1.399 . S
C3254 C3253 1.394 . S
C3254 C3255 1.516 . S
C3255 C3254 1.516 . S
C3255 C3256 1.502 . S
C3255 C3257 1.561 . S
C3255 C3258 1.526 . S
C3256 H3240 0.959 . S
C3256 H3241 0.959 . S
C3256 H3242 0.961 . S
C3256 C3255 1.502 . S
C3257 H3243 0.960 . S
C3257 H3244 0.961 . S
C3257 H3245 0.959 . S
C3257 C3255 1.561 . S
C3258 C3255 1.526 . S
C3258 C3259 1.396 . S
C3258 C3263 1.390 . S
C3259 C3253 1.465 . S
C3259 C3258 1.396 . S
C3259 C3260 1.399 . S
C3260 H3246 0.929 . S
C3260 C3259 1.399 . S
C3260 C3261 1.385 . S
C3261 H3247 0.931 . S
C3261 C3260 1.385 . S
C3261 C3262 1.389 . S
C3262 C3261 1.389 . S
C3262 C3263 1.387 . S
C3263 H3248 0.930 . S
C3263 C3258 1.390 . S
C3263 C3262 1.387 . S
C685 C400 1.061 . S
C697 C8 1.067 . S
C712 C22 1.068 . S
C724 C414 1.063 . S
C739 C428 1.034 . S
C751 C36 1.031 . S
C766 C50 1.069 . S
C778 C442 1.063 . S
C793 C344 1.038 . S
C805 C64 1.034 . S
C820 C78 1.034 . S
C832 C358 1.040 . S
C847 C372 1.071 . S
C859 C92 1.074 . S
C874 C106 1.035 . S
C886 C386 1.040 . S
C901 C540 1.038 . S
C913 C120 1.034 . S
C928 C554 1.073 . S
C940 C134 1.075 . S
C955 C512 1.037 . S
C967 C148 1.033 . S
C982 C162 1.039 . S
C994 C526 1.034 . S
C1009 C484 1.068 . S
C1021 C176 1.072 . S
C1036 C498 1.075 . S
C1048 C190 1.075 . S
C1063 C204 1.069 . S
C1075 C456 1.073 . S
C1090 C470 1.029 . S
C1102 C218 1.030 . S
C1117 C232 1.038 . S
C1129 C638 1.045 . S
C1144 C610 1.068 . S
C1156 C246 1.062 . S
C1171 C624 1.068 . S
C1183 C260 1.072 . S
C1198 C582 1.030 . S
C1210 C274 1.033 . S
C1225 C596 1.071 . S
C1237 C288 1.074 . S
C1252 C302 1.066 . S
C1264 C568 1.060 . S
C1279 C316 1.075 . S
C1291 C666 1.075 . S
C1306 C652 1.062 . S
C1318 C330 1.068 . S
C1333 C105 1.260 . S
C1345 C7 1.263 . S
C1360 C63 1.282 . S
C1372 C21 1.270 . S
C1387 C77 1.277 . S
C1399 C35 1.267 . S
C1414 C91 1.384 . S
C1426 C49 1.375 . S
C1441 C287 1.290 . S
C1453 C119 1.309 . S
C1468 C245 1.266 . S
C1480 C133 1.262 . S
C1495 C259 1.271 . S
C1507 C147 1.286 . S
C1522 C273 1.386 . S
C1534 C161 1.380 . S
C1549 C329 1.384 . S
C1561 C175 1.376 . S
C1576 C301 1.268 . S
C1588 C189 1.263 . S
C1603 C203 1.375 . S
C1615 C315 1.382 . S
C1630 C231 1.386 . S
C1642 C217 1.384 . S
C1657 C441 1.332 . S
C1669 C343 1.279 . S
C1684 C399 1.341 . S
C1696 C357 1.381 . S
C1711 C371 1.274 . S
C1723 C413 1.327 . S
C1738 C385 1.291 . S
C1750 C427 1.348 . S
C1765 C455 1.270 . S
C1777 C623 1.265 . S
C1792 C469 1.260 . S
C1804 C581 1.284 . S
C1819 C595 1.381 . S
C1831 C483 1.339 . S
C1846 C609 1.292 . S
C1858 C497 1.348 . S
C1873 C665 1.323 . S
C1885 C511 1.373 . S
C1900 C637 1.283 . S
C1912 C525 1.339 . S
C1927 C651 1.266 . S
C1939 C539 1.268 . S
C1954 C553 1.363 . S
C1966 C567 1.385 . S
C1981 C3 1.182 . S
C1993 C121 1.110 . S
C2008 C135 1.074 . S
C2020 C17 1.131 . S
C2035 C149 1.028 . S
C2047 C31 1.137 . S
C2062 C163 1.051 . S
C2074 C45 1.130 . S
C2089 C59 1.182 . S
C2101 C177 1.111 . S
C2116 C191 1.053 . S
C2128 C73 1.130 . S
C2143 C87 1.156 . S
C2155 C205 1.038 . S
C2170 C219 1.099 . S
C2182 C101 1.135 . S
C2197 C233 1.068 . S
C2209 C115 1.171 . S
C2224 C331 1.146 . S
C2236 C129 1.153 . S
C2251 C143 1.168 . S
C2263 C303 1.060 . S
C2278 C157 1.183 . S
C2290 C317 1.119 . S
C2305 C171 1.130 . S
C2317 C247 1.049 . S
C2332 C185 1.131 . S
C2344 C261 1.081 . S
C2359 C199 1.154 . S
C2371 C275 1.147 . S
C2386 C213 1.149 . S
C2398 C289 1.138 . S
C2413 C227 1.129 . S
C2425 C9 1.059 . S
C2440 C241 1.159 . S
C2452 C65 1.043 . S
C2467 C255 1.149 . S
C2479 C79 1.030 . S
C2494 C269 1.164 . S
C2506 C93 1.158 . S
C2521 C283 1.136 . S
C2533 C107 1.030 . S
C2548 C297 1.178 . S
C2560 C37 1.092 . S
C2575 C51 1.055 . S
C2587 C311 1.166 . S
C2602 C23 1.158 . S
C2614 C325 1.178 . S
C2629 C457 1.030 . S
C2641 C339 1.130 . S
C2656 C471 1.115 . S
C2668 C353 1.155 . S
C2683 C485 1.162 . S
C2695 C367 1.182 . S
C2710 C499 1.138 . S
C2722 C381 1.165 . S
C2737 C513 1.036 . S
C2749 C395 1.131 . S
C2764 C409 1.136 . S
C2776 C527 1.065 . S
C2791 C541 1.116 . S
C2803 C423 1.155 . S
C2818 C437 1.132 . S
C2830 C555 1.027 . S
C2845 C569 1.144 . S
C2857 C451 1.168 . S
C2872 C465 1.176 . S
C2884 C667 1.156 . S
C2899 C479 1.143 . S
C2911 C639 1.042 . S
C2926 C653 1.063 . S
C2938 C493 1.136 . S
C2953 C583 1.154 . S
C2965 C507 1.174 . S
C2980 C521 1.143 . S
C2992 C597 1.043 . S
C3007 C535 1.134 . S
C3019 C611 1.058 . S
C3034 C625 1.119 . S
C3046 C549 1.174 . S
C3061 C345 1.027 . S
C3073 C563 1.135 . S
C3088 C401 1.115 . S
C3100 C577 1.173 . S
C3115 C415 1.156 . S
C3127 C591 1.175 . S
C3142 C605 1.181 . S
C3154 C429 1.142 . S
C3169 C443 1.054 . S
C3181 C619 1.150 . S
C3196 C373 1.081 . S
C3208 C633 1.142 . S
C3223 C647 1.182 . S
C3235 C387 1.144 . S
C3250 C359 1.136 . S
C3262 C661 1.164 . S
