# Generated by pormake.
# Topology vby, (6)-cn, num edge types: 1
# Building blocks:
#     Node 0, Type 0, BuildingBlock: VOLQOD_clean_sbu_1, # of connection points: 6
#     Node 1, Type 0, BuildingBlock: VOLQOD_clean_sbu_1, # of connection points: 6
#     Node 2, Type 0, BuildingBlock: VOLQOD_clean_sbu_1, # of connection points: 6
#     Node 3, Type 0, BuildingBlock: VOLQOD_clean_sbu_1, # of connection points: 6
#     Node 4, Type 0, BuildingBlock: VOLQOD_clean_sbu_1, # of connection points: 6
#     Node 5, Type 0, BuildingBlock: VOLQOD_clean_sbu_1, # of connection points: 6
#     Node 6, Type 0, BuildingBlock: VOLQOD_clean_sbu_1, # of connection points: 6
#     Node 7, Type 0, BuildingBlock: VOLQOD_clean_sbu_1, # of connection points: 6
#     Edge 8, Type (0, 0), BuildingBlock: XUDNAN_clean_linker_2, # of connection points: 2
#     Edge 9, Type (0, 0), BuildingBlock: XUDNAN_clean_linker_2, # of connection points: 2
#     Edge 10, Type (0, 0), BuildingBlock: XUDNAN_clean_linker_2, # of connection points: 2
#     Edge 11, Type (0, 0), BuildingBlock: XUDNAN_clean_linker_2, # of connection points: 2
#     Edge 12, Type (0, 0), BuildingBlock: XUDNAN_clean_linker_2, # of connection points: 2
#     Edge 13, Type (0, 0), BuildingBlock: XUDNAN_clean_linker_2, # of connection points: 2
#     Edge 14, Type (0, 0), BuildingBlock: XUDNAN_clean_linker_2, # of connection points: 2
#     Edge 15, Type (0, 0), BuildingBlock: XUDNAN_clean_linker_2, # of connection points: 2
#     Edge 16, Type (0, 0), BuildingBlock: XUDNAN_clean_linker_2, # of connection points: 2
#     Edge 17, Type (0, 0), BuildingBlock: XUDNAN_clean_linker_2, # of connection points: 2
#     Edge 18, Type (0, 0), BuildingBlock: XUDNAN_clean_linker_2, # of connection points: 2
#     Edge 19, Type (0, 0), BuildingBlock: XUDNAN_clean_linker_2, # of connection points: 2
#     Edge 20, Type (0, 0), BuildingBlock: XUDNAN_clean_linker_2, # of connection points: 2
#     Edge 21, Type (0, 0), BuildingBlock: XUDNAN_clean_linker_2, # of connection points: 2
#     Edge 22, Type (0, 0), BuildingBlock: XUDNAN_clean_linker_2, # of connection points: 2
#     Edge 23, Type (0, 0), BuildingBlock: XUDNAN_clean_linker_2, # of connection points: 2
#     Edge 24, Type (0, 0), BuildingBlock: XUDNAN_clean_linker_2, # of connection points: 2
#     Edge 25, Type (0, 0), BuildingBlock: XUDNAN_clean_linker_2, # of connection points: 2
#     Edge 26, Type (0, 0), BuildingBlock: XUDNAN_clean_linker_2, # of connection points: 2
#     Edge 27, Type (0, 0), BuildingBlock: XUDNAN_clean_linker_2, # of connection points: 2
#     Edge 28, Type (0, 0), BuildingBlock: XUDNAN_clean_linker_2, # of connection points: 2
#     Edge 29, Type (0, 0), BuildingBlock: XUDNAN_clean_linker_2, # of connection points: 2
#     Edge 30, Type (0, 0), BuildingBlock: XUDNAN_clean_linker_2, # of connection points: 2
#     Edge 31, Type (0, 0), BuildingBlock: XUDNAN_clean_linker_2, # of connection points: 2
# Relax obj value: 0.082
# Max RMSD: 0.107
# Mean RMSD: 0.107
data_MOF--net-vby--node1-VOLQOD_clean_sbu_1--edge1-XUDNAN_clean_linker_2
_symmetry_space_group_name_H-M    P1
_symmetry_Int_Tables_number       1
_symmetry_cell_setting            triclinic
loop_
_symmetry_equiv_pos_as_xyz
'x, y, z'
_cell_length_a     16.95272
_cell_length_b     64.705557
_cell_length_c     33.743017
_cell_angle_alpha  89.839918
_cell_angle_beta   90.174698
_cell_angle_gamma 89.862726
loop_
_atom_site_label
_atom_site_type_symbol
_atom_site_fract_x
_atom_site_fract_y
_atom_site_fract_z
_atom_type_partial_charge
O0 O 0.27557 0.37401 0.0238 0.0
Zn1 Zn 0.16098 0.37951 0.01024 0.0
O2 O 0.09422 0.36514 0.04868 0.0
Zn3 Zn 0.04378 0.34149 0.02379 0.0
Zn4 Zn 0.15388 0.35408 0.09294 0.0
Zn5 Zn 0.01701 0.38463 0.06871 0.0
O6 O 0.92741 0.34237 0.03456 0.0
O7 O 0.90859 0.37476 0.05501 0.0
O8 O 0.138 0.36931 0.95484 0.0
O9 O 0.05714 0.34285 0.96527 0.0
O10 O 0.08982 0.31404 0.04128 0.0
O11 O 0.14978 0.32325 0.09681 0.0
O12 O 0.11853 0.36533 0.14514 0.0
O13 O 0.13869 0.41028 0.00863 0.0
O14 O 0.02265 0.3871 0.12803 0.0
O15 O 0.03309 0.41316 0.04709 0.0
C16 C 0.30768 0.366 0.05448 0.0
C17 C 0.88206 0.35725 0.04421 0.0
C18 C 0.12798 0.3094 0.07258 0.0
C19 C 0.09548 0.35456 0.94199 0.0
C20 C 0.06541 0.37837 0.15421 0.0
C21 C 0.08432 0.42113 0.02428 0.0
O22 O 0.26744 0.35916 0.08341 0.0
O23 O 0.77406 0.60996 0.98517 0.0
Zn24 Zn 0.89324 0.60877 0.9812 0.0
O25 O 0.94008 0.62553 0.02347 0.0
Zn26 Zn -0.00651 0.64903 -0.0007 0.0
Zn27 Zn 0.85853 0.63541 0.0595 0.0
Zn28 Zn 0.01535 0.6092 0.05425 0.0
O29 O 0.11129 0.64731 0.00756 0.0
O30 O 0.12603 0.61831 0.04242 0.0
O31 O 0.92172 0.61921 0.92643 0.0
O32 O 0.98079 0.64884 0.94038 0.0
O33 O 0.94407 0.676 0.01543 0.0
O34 O 0.84447 0.66633 0.0538 0.0
O35 O 0.88225 0.62805 0.11653 0.0
O36 O 0.93123 0.57923 0.98528 0.0
O37 O -0.00264 0.61165 0.11313 0.0
O38 O 0.00803 0.57911 0.03898 0.0
C39 C 0.72749 0.61564 0.01271 0.0
C40 C 0.15502 0.63369 0.02398 0.0
C41 C 0.88242 0.68031 0.03532 0.0
C42 C 0.95399 0.636 0.91538 0.0
C43 C 0.94055 0.61906 0.13322 0.0
C44 C 0.97495 0.56975 0.01022 0.0
O45 O 0.75296 0.62397 0.04436 0.0
O46 O 0.23981 0.62235 0.56103 0.0
Zn47 Zn 0.12641 0.61458 0.56692 0.0
O48 O 0.06814 0.62667 0.5242 0.0
Zn49 Zn 0.02037 0.65229 0.54289 0.0
Zn50 Zn 0.1432 0.63128 0.48182 0.0
Zn51 Zn -0.01047 0.60751 0.50647 0.0
O52 O 0.90295 0.652 0.531 0.0
O53 O 0.88244 0.61853 0.51906 0.0
O54 O 0.087 0.62461 0.61929 0.0
O55 O 0.02553 0.65375 0.60289 0.0
O56 O 0.0791 0.67712 0.52003 0.0
O57 O 0.16248 0.66155 0.47886 0.0
O58 O 0.10146 0.62158 0.42832 0.0
O59 O 0.1152 0.58386 0.56629 0.0
O60 O -0.00841 0.60584 0.44732 0.0
O61 O 0.00746 0.57897 0.52977 0.0
C62 C 0.28263 0.62212 0.5301 0.0
C63 C 0.85662 0.63675 0.52519 0.0
C64 C 0.13595 0.67781 0.49528 0.0
C65 C 0.05002 0.64096 0.62896 0.0
C66 C 0.03784 0.61197 0.42009 0.0
C67 C 0.06278 0.57199 0.5518 0.0
O68 O 0.25233 0.62046 0.4956 0.0
O69 O 0.81491 0.37865 0.58351 0.0
Zn70 Zn 0.93201 0.38289 0.58856 0.0
O71 O 0.9853 0.36635 0.54811 0.0
Zn72 Zn 0.03773 0.34301 0.57287 0.0
Zn73 Zn 0.90904 0.356 0.50942 0.0
Zn74 Zn 0.06294 0.38324 0.52163 0.0
O75 O 0.15396 0.34231 0.5614 0.0
O76 O 0.17213 0.3717 0.52849 0.0
O77 O 0.96432 0.37394 0.644 0.0
O78 O 0.03114 0.34519 0.63127 0.0
O79 O 0.98241 0.31656 0.56064 0.0
O80 O 0.89544 0.325 0.51399 0.0
O81 O 0.93839 0.36417 0.45361 0.0
O82 O 0.95869 0.41331 0.58337 0.0
O83 O 0.0389 0.38566 0.46368 0.0
O84 O 0.06354 0.41175 0.54394 0.0
C85 C 0.77132 0.3732 0.55456 0.0
C86 C 0.19917 0.35536 0.54466 0.0
C87 C 0.92662 0.31172 0.53717 0.0
C88 C 0.00239 0.35804 0.65564 0.0
C89 C -0.01022 0.37684 0.44075 0.0
C90 C 0.01711 0.42184 0.56625 0.0
O91 O 0.80026 0.3666 0.52216 0.0
O92 O 0.67397 0.8615 0.99007 0.0
Zn93 Zn 0.56455 0.86932 0.97282 0.0
O94 O 0.48771 0.85451 0.00407 0.0
Zn95 Zn 0.43733 0.83412 0.97141 0.0
Zn96 Zn 0.53677 0.83974 0.0484 0.0
Zn97 Zn 0.4094 0.87372 0.02249 0.0
O98 O 0.32174 0.83199 0.98559 0.0
O99 O 0.30084 0.86386 0.00831 0.0
O100 O 0.55114 0.86263 0.91473 0.0
O101 O 0.44713 0.84172 0.91348 0.0
O102 O 0.49647 0.80734 0.97946 0.0
O103 O 0.52649 0.80876 0.04341 0.0
O104 O 0.49578 0.85001 0.10139 0.0
O105 O 0.5503 0.90008 0.97928 0.0
O106 O 0.41426 0.87505 0.08172 0.0
O107 O 0.42914 0.90279 0.0036 0.0
C108 C 0.70043 0.85136 0.01969 0.0
C109 C 0.27528 0.84628 -0.00279 0.0
C110 C 0.5248 0.79901 0.0107 0.0
C111 C 0.49937 0.85238 0.8957 0.0
C112 C 0.44842 0.86481 0.1091 0.0
C113 C 0.49147 0.91105 0.98983 0.0
O114 O 0.65471 0.8432 0.0452 0.0
O115 O 0.23887 0.10421 0.01866 0.0
Zn116 Zn 0.35448 0.09846 0.01329 0.0
O117 O 0.4135 0.11668 0.0475 0.0
Zn118 Zn 0.45581 0.14015 0.01681 0.0
Zn119 Zn 0.34355 0.12593 0.08971 0.0
Zn120 Zn 0.49847 0.10076 0.06989 0.0
O121 O 0.57571 0.14178 0.02313 0.0
O122 O 0.60229 0.11317 0.0573 0.0
O123 O 0.38304 0.1047 0.95751 0.0
O124 O 0.4392 0.13569 0.95786 0.0
O125 O 0.40413 0.16707 0.03479 0.0
O126 O 0.3431 0.15681 0.08982 0.0
O127 O 0.38124 0.11675 0.14433 0.0
O128 O 0.38183 0.06813 0.02089 0.0
O129 O 0.49247 0.10066 0.12849 0.0
O130 O 0.4985 0.07164 0.05013 0.0
C131 C 0.19737 0.11181 0.04645 0.0
C132 C 0.62482 0.12943 0.03953 0.0
C133 C 0.3643 0.17101 0.06596 0.0
C134 C 0.41361 0.11992 0.93932 0.0
C135 C 0.44449 0.10734 0.15434 0.0
C136 C 0.44695 0.06048 0.03305 0.0
O137 O 0.22893 0.11877 0.07807 0.0
O138 O 0.72198 0.11709 0.5766 0.0
Zn139 Zn 0.60518 0.1124 0.57945 0.0
O140 O 0.54811 0.13213 0.54689 0.0
Zn141 Zn 0.50089 0.15283 0.58172 0.0
Zn142 Zn 0.62169 0.14513 0.51033 0.0
Zn143 Zn 0.46746 0.11782 0.51658 0.0
O144 O 0.3835 0.15462 0.57206 0.0
O145 O 0.36057 0.12902 0.52961 0.0
O146 O 0.5744 0.11523 0.63573 0.0
O147 O 0.50945 0.14489 0.63972 0.0
O148 O 0.55503 0.18021 0.57353 0.0
O149 O 0.6221 0.17607 0.51746 0.0
O150 O 0.59849 0.13753 0.45369 0.0
O151 O 0.57553 0.08325 0.56668 0.0
O152 O 0.48454 0.12074 0.45813 0.0
O153 O 0.46893 0.08723 0.52878 0.0
C154 C 0.76414 0.12685 0.55169 0.0
C155 C 0.33623 0.14366 0.55156 0.0
C156 C 0.59877 0.18736 0.54603 0.0
C157 C 0.53805 0.12873 0.6559 0.0
C158 C 0.54043 0.12827 0.43764 0.0
C159 C 0.51685 0.07577 0.54804 0.0
O160 O 0.73352 0.13702 0.5232 0.0
O161 O 0.21052 0.88538 0.54103 0.0
Zn162 Zn 0.32846 0.88598 0.54896 0.0
O163 O 0.38022 0.87352 0.50341 0.0
Zn164 Zn 0.45696 0.85284 0.52032 0.0
Zn165 Zn 0.30501 0.86028 0.46896 0.0
Zn166 Zn 0.4304 0.89536 0.4736 0.0
O167 O 0.56667 0.86055 0.50255 0.0
O168 O 0.54674 0.89261 0.48052 0.0
O169 O 0.36203 0.8722 0.60042 0.0
O170 O 0.46212 0.85273 0.57991 0.0
O171 O 0.42506 0.82376 0.5037 0.0
O172 O 0.30762 0.82986 0.4766 0.0
O173 O 0.32742 0.86636 0.4112 0.0
O174 O 0.35857 0.91605 0.55379 0.0
O175 O 0.40646 0.89363 0.41546 0.0
O176 O 0.4039 0.92361 0.49384 0.0
C177 C 0.16747 0.87868 0.51282 0.0
C178 C 0.59274 0.87791 0.49042 0.0
C179 C 0.36009 0.81737 0.48906 0.0
C180 C 0.4203 0.86026 0.60768 0.0
C181 C 0.36725 0.88073 0.39498 0.0
C182 C 0.38256 0.92915 0.52832 0.0
O183 O 0.19628 0.86937 0.483 0.0
H184 H 0.43005 0.39071 0.03 0.0
H185 H 0.37449 0.33027 0.07829 0.0
H186 H 0.51519 0.32067 0.07653 0.0
H187 H 0.59097 0.37486 0.96591 0.0
H188 H 0.65047 0.39722 0.97661 0.0
H189 H 0.54448 0.39901 0.97875 0.0
H190 H 0.55328 0.41228 0.05106 0.0
H191 H 0.65921 0.41065 0.04903 0.0
H192 H 0.60629 0.39726 0.08755 0.0
H193 H 0.6599 0.31724 0.06848 0.0
H194 H 0.8042 0.32187 0.06302 0.0
H195 H 0.76799 0.38545 0.02581 0.0
C196 C 0.44791 0.37547 0.03998 0.0
C197 C 0.39214 0.36119 0.0542 0.0
C198 C 0.41695 0.34145 0.06756 0.0
C199 C 0.49642 0.33579 0.06638 0.0
C200 C 0.55026 0.35019 0.0523 0.0
C201 C 0.52754 0.36974 0.03998 0.0
C202 C 0.59837 0.38271 0.02902 0.0
C203 C 0.5959 0.3888 0.98495 0.0
C204 C 0.60464 0.40185 0.05577 0.0
C205 C 0.66407 0.36741 0.03739 0.0
C206 C 0.63481 0.34861 0.04994 0.0
C207 C 0.68381 0.33191 0.05887 0.0
C208 C 0.76538 0.33464 0.05556 0.0
C209 C 0.79653 0.35402 0.0443 0.0
C210 C 0.74528 0.37053 0.03483 0.0
H211 H 0.27442 0.62237 0.07462 0.0
H212 H 0.22738 0.64457 0.95544 0.0
H213 H 0.36784 0.63974 0.93833 0.0
H214 H 0.46544 0.6482 0.08356 0.0
H215 H 0.50798 0.62761 0.11275 0.0
H216 H 0.40358 0.63264 0.11507 0.0
H217 H 0.37643 0.59449 0.09622 0.0
H218 H 0.48078 0.58949 0.09298 0.0
H219 H 0.41759 0.5842 0.05118 0.0
H220 H 0.51044 0.62976 0.93269 0.0
H221 H 0.65238 0.6226 0.94261 0.0
H222 H 0.60973 0.61013 0.06709 0.0
C223 C 0.29415 0.62646 0.04512 0.0
C224 C 0.24047 0.63384 0.01629 0.0
C225 C 0.26799 0.63911 0.97802 0.0
C226 C 0.34735 0.63619 0.96792 0.0
C227 C 0.39852 0.6284 -0.0033 0.0
C228 C 0.37365 0.6242 0.03486 0.0
C229 C 0.44172 0.6171 0.06075 0.0
C230 C 0.4555 0.6323 0.09505 0.0
C231 C 0.42829 0.59501 0.07618 0.0
C232 C 0.50851 0.61779 0.03107 0.0
C233 C 0.48191 0.62389 -0.00591 0.0
C234 C 0.53219 0.62517 0.96159 0.0
C235 C 0.61248 0.62086 0.9674 0.0
C236 C 0.6417 0.61581 0.00556 0.0
C237 C 0.58874 0.61394 0.0376 0.0
H238 H 0.74336 0.6158 0.48437 0.0
H239 H 0.77649 0.6641 0.57174 0.0
H240 H 0.63202 0.66591 0.58159 0.0
H241 H 0.56073 0.63763 0.44141 0.0
H242 H 0.51866 0.61247 0.43288 0.0
H243 H 0.62409 0.61585 0.43147 0.0
H244 H 0.64036 0.58712 0.48454 0.0
H245 H 0.53503 0.58384 0.48656 0.0
H246 H 0.58952 0.5895 0.53117 0.0
H247 H 0.48695 0.65945 0.58745 0.0
H248 H 0.34748 0.64895 0.58217 0.0
H249 H 0.40705 0.60684 0.48697 0.0
C250 C 0.71998 0.62696 0.50516 0.0
C251 C 0.77066 0.63978 0.52746 0.0
C252 C 0.73835 0.65426 0.55424 0.0
C253 C 0.65659 0.65531 0.56015 0.0
C254 C 0.60833 0.64207 0.53839 0.0
C255 C 0.63859 0.62852 0.51076 0.0
C256 C 0.5739 0.61601 0.49121 0.0
C257 C 0.56906 0.62078 0.4466 0.0
C258 C 0.58542 0.59274 0.49885 0.0
C259 C 0.50257 0.62426 0.51293 0.0
C260 C 0.52396 0.63913 0.54028 0.0
C261 C 0.4693 0.64808 0.56572 0.0
C262 C 0.39047 0.64188 0.56274 0.0
C263 C 0.36691 0.62712 0.53414 0.0
C264 C 0.42365 0.61827 0.50883 0.0
H265 H 0.65142 0.38085 0.50166 0.0
H266 H 0.69998 0.35959 0.62134 0.0
H267 H 0.55977 0.35033 0.62957 0.0
H268 H 0.46058 0.40414 0.52616 0.0
H269 H 0.41715 0.39749 0.47908 0.0
H270 H 0.52162 0.40214 0.48267 0.0
H271 H 0.54834 0.3661 0.4521 0.0
H272 H 0.44394 0.36116 0.44923 0.0
H273 H 0.50767 0.34341 0.47542 0.0
H274 H 0.41802 0.3407 0.62284 0.0
H275 H 0.27601 0.33825 0.60744 0.0
H276 H 0.31565 0.36891 0.4947 0.0
C277 C 0.63202 0.3745 0.52972 0.0
C278 C 0.68603 0.37091 0.56091 0.0
C279 C 0.65906 0.36265 0.59729 0.0
C280 C 0.57987 0.35713 0.60207 0.0
C281 C 0.52835 0.36039 0.57046 0.0
C282 C 0.55262 0.36946 0.53543 0.0
C283 C 0.48403 0.37234 0.50704 0.0
C284 C 0.47001 0.39539 0.49823 0.0
C285 C 0.4968 0.36001 0.46868 0.0
C286 C 0.41772 0.36326 0.53148 0.0
C287 C 0.44507 0.35604 0.56758 0.0
C288 C 0.39559 0.34648 0.59486 0.0
C289 C 0.31524 0.34497 0.58567 0.0
C290 C 0.28513 0.35339 0.54991 0.0
C291 C 0.3373 0.36235 0.52224 0.0
H292 H 0.82064 0.8771 -0.00145 0.0
H293 H 0.77154 0.81592 0.04502 0.0
H294 H 0.91366 0.80729 0.04191 0.0
H295 H 0.97266 0.86317 0.93159 0.0
H296 H 0.0325 0.8856 0.94128 0.0
H297 H 0.92709 0.887 0.94718 0.0
H298 H 0.94469 0.89925 0.01975 0.0
H299 H 0.05016 0.89818 0.01389 0.0
H300 H 0.00372 0.88404 0.05351 0.0
H301 H 0.06013 0.80466 0.02896 0.0
H302 H 0.20286 0.81004 0.01719 0.0
H303 H 0.15617 0.87376 0.98435 0.0
C304 C 0.84009 0.86197 0.0084 0.0
C305 C 0.78564 0.84716 0.02204 0.0
C306 C 0.81281 0.82753 0.03488 0.0
C307 C 0.89315 0.82244 0.03289 0.0
C308 C 0.94535 0.8373 0.01867 0.0
C309 C 0.92014 0.85681 0.00749 0.0
C310 C -0.01154 0.87022 -0.00532 0.0
C311 C 0.97961 0.87688 0.95109 0.0
C312 C -0.00272 0.88903 0.0221 0.0
C313 C 0.05597 0.85514 2e-05 0.0
C314 C 0.02987 0.83613 0.01324 0.0
C315 C 0.08141 0.81955 0.01902 0.0
C316 C 0.16208 0.82268 0.012 0.0
C317 C 0.19007 0.84232 0.00011 0.0
C318 C 0.13617 0.85864 -0.00625 0.0
H319 H 0.07377 0.11026 0.09931 0.0
H320 H 0.13092 0.12263 0.9763 0.0
H321 H -0.00754 0.13231 0.96313 0.0
H322 H 0.8875 0.08622 0.07777 0.0
H323 H 0.8396 0.09616 0.12139 0.0
H324 H 0.94445 0.09175 0.12167 0.0
H325 H 0.96664 0.12986 0.14233 0.0
H326 H 0.86175 0.13445 0.14142 0.0
H327 H 0.92642 0.15036 0.11208 0.0
H328 H 0.84849 0.14149 0.96347 0.0
H329 H 0.70413 0.1431 0.97429 0.0
H330 H 0.73806 0.12182 0.09511 0.0
C331 C 0.05686 0.115 0.06967 0.0
C332 C 0.11285 0.11574 0.03883 0.0
C333 C 0.08866 0.1218 0.00027 0.0
C334 C 0.01039 0.12756 0.99258 0.0
C335 C 0.95664 0.12687 0.02363 0.0
C336 C 0.97829 0.12028 0.06118 0.0
C337 C 0.9074 0.11925 0.08833 0.0
C338 C 0.89394 0.09702 0.10314 0.0
C339 C 0.91611 0.13438 0.12309 0.0
C340 C 0.84272 0.12612 0.06007 0.0
C341 C 0.87266 0.13098 0.0232 0.0
C342 C 0.82421 0.1377 0.9922 0.0
C343 C 0.74252 0.13874 -0.00135 0.0
C344 C 0.71043 0.13264 0.03547 0.0
C345 C 0.76138 0.12665 0.06671 0.0
H346 H 0.21895 0.13868 0.49665 0.0
H347 H 0.26155 0.15238 0.62064 0.0
H348 H 0.1189 0.14922 0.63415 0.0
H349 H 0.02904 0.16758 0.49075 0.0
H350 H 0.98696 0.14924 0.45664 0.0
H351 H 0.09174 0.15386 0.45666 0.0
H352 H 0.11627 0.11466 0.46687 0.0
H353 H 0.01168 0.10996 0.4678 0.0
H354 H 0.07264 0.10172 0.50879 0.0
H355 H 0.97596 0.13969 0.63567 0.0
H356 H 0.83573 0.1316 0.62303 0.0
H357 H 0.88327 0.12752 0.49705 0.0
C358 C 0.19777 0.14149 0.52642 0.0
C359 C 0.25075 0.14579 0.55765 0.0
C360 C 0.22151 0.14932 0.59628 0.0
C361 C 0.14082 0.14738 0.60428 0.0
C362 C 0.09035 0.14242 0.57309 0.0
C363 C 0.11718 0.14018 0.5347 0.0
C364 C 0.05026 0.13512 0.50654 0.0
C365 C 0.03882 0.15249 0.47584 0.0
C366 C 0.06355 0.11412 0.48633 0.0
C367 C 0.98206 0.13423 0.53532 0.0
C368 C 0.00674 0.1382 0.57363 0.0
C369 C 0.95554 0.13695 0.60573 0.0
C370 C 0.87638 0.13212 0.59833 0.0
C371 C 0.84919 0.129 0.55912 0.0
C372 C 0.90278 0.12997 0.52727 0.0
H373 H 0.71526 0.85088 0.47832 0.0
H374 H 0.66113 0.91447 0.50876 0.0
H375 H 0.80256 0.92134 0.51962 0.0
H376 H 0.87199 0.84287 0.54681 0.0
H377 H 0.9324 0.82808 0.51332 0.0
H378 H 0.82669 0.82796 0.50786 0.0
H379 H 0.83981 0.8402 0.43495 0.0
H380 H 0.9456 0.84011 0.44007 0.0
H381 H 0.89529 0.86325 0.42401 0.0
H382 H 0.94768 0.92053 0.5326 0.0
H383 H 0.09129 0.91361 0.53629 0.0
H384 H 0.05244 0.85172 0.49133 0.0
C385 C 0.73351 0.86626 0.48696 0.0
C386 C 0.67772 0.88214 0.49282 0.0
C387 C 0.70331 0.90214 0.50385 0.0
C388 C 0.78331 0.90616 0.51037 0.0
C389 C 0.83686 0.89011 0.50494 0.0
C390 C 0.81343 0.8707 0.4926 0.0
C391 C 0.88351 0.85645 0.48746 0.0
C392 C 0.8783 0.83774 0.51554 0.0
C393 C 0.89152 0.84961 0.44404 0.0
C394 C 0.94964 0.87082 0.49942 0.0
C395 C 0.92133 0.89006 0.51003 0.0
C396 C 0.97085 0.90563 0.52387 0.0
C397 C 0.05193 0.90155 0.52613 0.0
C398 C 0.08214 0.88224 0.51381 0.0
C399 C 0.0304 0.86669 0.50049 0.0
H400 H 0.98183 0.53938 0.06657 0.0
H401 H 0.00658 0.55052 0.94048 0.0
H402 H 0.04405 0.51388 0.93061 0.0
H403 H 0.13921 0.50288 0.07882 0.0
H404 H 0.08594 0.48658 0.11284 0.0
H405 H 0.06417 0.51381 0.11024 0.0
H406 H 0.91708 0.50572 0.09611 0.0
H407 H 0.93829 0.47848 0.09904 0.0
H408 H 0.89167 0.48903 0.05535 0.0
H409 H 0.08632 0.47647 0.93543 0.0
H410 H 0.10955 0.43971 0.95275 0.0
H411 H 0.04361 0.45234 0.07436 0.0
C412 C -0.00487 0.53403 0.03694 0.0
C413 C -0.008 0.54766 0.00427 0.0
C414 C 0.00854 0.54019 0.9658 0.0
C415 C 0.03034 0.51949 0.95998 0.0
C416 C 0.03359 0.50644 0.99287 0.0
C417 C 0.01472 0.51329 0.03046 0.0
C418 C 0.01804 0.49584 0.06038 0.0
C419 C 0.08057 0.50004 0.09246 0.0
C420 C 0.93641 0.49205 0.07879 0.0
C421 C 0.04247 0.47814 0.03384 0.0
C422 C 0.05262 0.48463 -0.00486 0.0
C423 C 0.07776 0.47115 0.96554 0.0
C424 C 0.09128 0.45038 0.97564 0.0
C425 C 0.07788 0.4433 0.01474 0.0
C426 C 0.05363 0.4574 0.04416 0.0
H427 H 0.91613 0.45467 0.55812 0.0
H428 H 0.15741 0.43812 0.58715 0.0
H429 H 0.19209 0.47509 0.59216 0.0
H430 H 0.96614 0.49536 0.49444 0.0
H431 H 0.88489 0.51198 0.50761 0.0
H432 H 0.87521 0.48439 0.51227 0.0
H433 H 0.83837 0.48837 0.58634 0.0
H434 H 0.84738 0.51603 0.58183 0.0
H435 H 0.90346 0.50231 0.61902 0.0
H436 H 0.20285 0.5132 0.59021 0.0
H437 H 0.19165 0.55061 0.57779 0.0
H438 H 0.94547 0.54285 0.54509 0.0
C439 C 0.97556 0.45895 0.56656 0.0
C440 C 0.03405 0.44376 0.57296 0.0
C441 C 0.11196 0.4497 0.58257 0.0
C442 C 0.13204 0.47058 0.58558 0.0
C443 C 0.07363 0.48528 0.57831 0.0
C444 C -0.00293 0.47981 0.56878 0.0
C445 C 0.94796 0.49869 0.55846 0.0
C446 C 0.91675 0.49753 0.51565 0.0
C447 C 0.88029 0.50152 0.58819 0.0
C448 C 0.00935 0.51552 0.56294 0.0
C449 C 0.08092 0.50743 0.57515 0.0
C450 C 0.14705 0.51978 0.58083 0.0
C451 C 0.14006 0.541 0.57368 0.0
C452 C 0.06777 0.54963 0.56035 0.0
C453 C 0.00156 0.53668 0.55508 0.0
H454 H 0.3729 0.93983 -0.00168 0.0
H455 H 0.62595 0.93385 0.98171 0.0
H456 H 0.64041 0.97151 0.98908 0.0
H457 H 0.35282 0.98941 0.94464 0.0
H458 H 0.27834 -0.00106 0.97799 0.0
H459 H 0.28707 0.97159 0.96893 0.0
H460 H 0.30158 0.96507 0.04438 0.0
H461 H 0.2938 0.99238 0.05368 0.0
H462 H 0.37827 0.97815 0.07159 0.0
H463 H 0.6299 0.00882 0.00537 0.0
H464 H 0.59348 0.04463 0.02196 0.0
H465 H 0.34623 0.02734 0.02425 0.0
C466 C 0.43121 0.94648 -0.00436 0.0
C467 C 0.49834 0.93385 0.98952 0.0
C468 C 0.57359 0.94317 0.98619 0.0
C469 C 0.58249 0.96455 0.99048 0.0
C470 C 0.51546 0.97646 -0.00255 0.0
C471 C 0.44107 0.96787 -0.00072 0.0
C472 C 0.379 0.98421 0.00759 0.0
C473 C 0.32088 0.98615 0.9727 0.0
C474 C 0.33564 0.97967 0.04663 0.0
C475 C 0.43049 0.00324 0.01109 0.0
C476 C 0.50903 -0.00167 0.00533 0.0
C477 C 0.56853 0.01295 0.00933 0.0
C478 C 0.54723 0.0332 0.01907 0.0
C479 C 0.46703 0.03875 0.02426 0.0
C480 C 0.4079 0.02356 0.02003 0.0
H481 H 0.45609 0.04948 0.49215 0.0
H482 H 0.53848 0.05225 0.61386 0.0
H483 H 0.50265 0.0156 0.62339 0.0
H484 H 0.29293 0.01449 0.50718 0.0
H485 H 0.3098 0.00035 0.46203 0.0
H486 H 0.33728 0.02718 0.46519 0.0
H487 H 0.48069 0.01793 0.44541 0.0
H488 H 0.45342 0.99113 0.44177 0.0
H489 H 0.53393 -0.00132 0.47356 0.0
H490 H 0.45441 0.97916 0.62037 0.0
H491 H 0.41686 0.94356 0.60213 0.0
H492 H 0.37674 0.96352 0.48082 0.0
C493 C 0.46635 0.04231 0.52076 0.0
C494 C 0.49962 0.0536 0.55235 0.0
C495 C 0.51338 0.04375 0.58926 0.0
C496 C 0.49261 0.02304 0.59505 0.0
C497 C 0.45939 0.01233 0.56342 0.0
C498 C 0.44783 0.02147 0.52676 0.0
C499 C 0.41658 0.00604 0.49695 0.0
C500 C 0.33425 0.0124 0.48197 0.0
C501 C 0.47463 0.00328 0.46239 0.0
C502 C 0.41264 0.98683 0.52259 0.0
C503 C 0.43591 0.99092 0.56104 0.0
C504 C 0.4364 0.9757 0.59032 0.0
C505 C 0.41451 0.95559 0.57976 0.0
C506 C 0.39414 0.95085 0.5401 0.0
C507 C 0.39229 0.96675 0.51134 0.0
H508 H 0.16546 0.28028 0.01677 0.0
H509 H 0.15645 0.29077 0.14364 0.0
H510 H 0.21834 0.2567 0.15537 0.0
H511 H 0.12915 0.22456 0.01914 0.0
H512 H 0.19762 0.21932 0.97964 0.0
H513 H 0.14693 0.2438 0.98147 0.0
H514 H 0.28146 0.26269 0.97975 0.0
H515 H 0.33263 0.23828 0.97861 0.0
H516 H 0.3549 0.25678 0.01686 0.0
H517 H 0.2825 0.22207 0.15351 0.0
H518 H 0.34353 0.18837 0.13828 0.0
H519 H 0.31937 0.20099 0.01246 0.0
C520 C 0.1749 0.27517 0.04701 0.0
C521 C 0.15528 0.288 0.07938 0.0
C522 C 0.17056 0.28108 0.1185 0.0
C523 C 0.20585 0.2618 0.12543 0.0
C524 C 0.2264 0.24976 0.0929 0.0
C525 C 0.21144 0.2561 0.05446 0.0
C526 C 0.24264 0.24052 0.02482 0.0
C527 C 0.17505 0.23151 -0.0002 0.0
C528 C 0.30671 0.25015 -0.00154 0.0
C529 C 0.27727 0.22443 0.05266 0.0
C530 C 0.26679 0.23007 0.09178 0.0
C531 C 0.29138 0.21751 0.12302 0.0
C532 C 0.32614 0.19845 0.11408 0.0
C533 C 0.33691 0.19223 0.07424 0.0
C534 C 0.31329 0.20556 0.04315 0.0
H535 H 0.55215 0.76778 0.06522 0.0
H536 H 0.61594 0.78942 0.94775 0.0
H537 H 0.72114 0.76321 0.94457 0.0
H538 H 0.74405 0.75563 0.10041 0.0
H539 H 0.71703 0.73204 0.12538 0.0
H540 H 0.64541 0.75242 0.11924 0.0
H541 H 0.54976 0.72722 0.08398 0.0
H542 H 0.62026 0.70665 0.09091 0.0
H543 H 0.58398 0.71263 0.04193 0.0
H544 H 0.82696 0.73738 0.95633 0.0
H545 H 0.90801 0.7073 0.97478 0.0
H546 H 0.76915 0.69923 0.0817 0.0
C547 C 0.58733 0.76666 0.03858 0.0
C548 C 0.57567 0.78057 0.00665 0.0
C549 C 0.62298 0.77874 0.9723 0.0
C550 C 0.68363 0.76408 0.97041 0.0
C551 C 0.69518 0.75103 0.00274 0.0
C552 C 0.64684 0.75162 0.03562 0.0
C553 C 0.66978 0.73489 0.06516 0.0
C554 C 0.6956 0.74432 0.1049 0.0
C555 C 0.60192 0.71943 0.07081 0.0
C556 C 0.73907 0.72504 0.04385 0.0
C557 C 0.75361 0.73499 0.00837 0.0
C558 C 0.81562 0.72925 0.9838 0.0
C559 C 0.86193 0.71224 -0.00519 0.0
C560 C 0.84499 0.70083 0.02968 0.0
C561 C 0.78365 0.70765 0.05492 0.0
H562 H 0.08337 0.71808 0.50263 0.0
H563 H 0.29047 0.68115 0.47559 0.0
H564 H 0.37054 0.7127 0.47102 0.0
H565 H 0.13261 0.76033 0.43464 0.0
H566 H 0.09439 0.78 0.46712 0.0
H567 H 0.0527 0.75442 0.4679 0.0
H568 H 0.08009 0.75196 0.5434 0.0
H569 H 0.12236 0.77746 0.54274 0.0
H570 H 0.17893 0.75596 0.56167 0.0
H571 H 0.43102 0.74796 0.47471 0.0
H572 H 0.46362 0.78524 0.47842 0.0
H573 H 0.21645 0.7994 0.49772 0.0
C574 C 0.14535 0.7167 0.4954 0.0
C575 C 0.18051 0.69717 0.48938 0.0
C576 C 0.2619 0.69597 0.4799 0.0
C577 C 0.30817 0.71379 0.47746 0.0
C578 C 0.27207 0.73278 0.48393 0.0
C579 C 0.1923 0.73443 0.49197 0.0
C580 C 0.16814 0.75681 0.49687 0.0
C581 C 0.10844 0.76327 0.46471 0.0
C582 C 0.13547 0.76077 0.53866 0.0
C583 C 0.24695 0.76735 0.49096 0.0
C584 C 0.30636 0.75322 0.48398 0.0
C585 C 0.38487 0.75924 0.47958 0.0
C586 C 0.40295 0.78037 0.48191 0.0
C587 C 0.34246 0.7951 0.48784 0.0
C588 C 0.26367 0.78844 0.49245 0.0
H589 H 0.85104 0.28662 0.48273 0.0
H590 H 0.90561 0.29306 0.60789 0.0
H591 H 0.81852 0.2638 0.62331 0.0
H592 H 0.6497 0.27169 0.49186 0.0
H593 H 0.65235 0.25233 0.45357 0.0
H594 H 0.71827 0.2741 0.45138 0.0
H595 H 0.83878 0.24947 0.44791 0.0
H596 H 0.77311 0.22764 0.4492 0.0
H597 H 0.85118 0.22977 0.48533 0.0
H598 H 0.71759 0.23633 0.62632 0.0
H599 H 0.63222 0.20611 0.61583 0.0
H600 H 0.65278 0.21411 0.48846 0.0
C601 C 0.84541 0.2816 0.51323 0.0
C602 C 0.88512 0.29205 0.54411 0.0
C603 C 0.87654 0.2851 0.58372 0.0
C604 C 0.82642 0.26867 0.59287 0.0
C605 C 0.78661 0.25901 0.56201 0.0
C606 C 0.79737 0.26468 0.52288 0.0
C607 C 0.75108 0.25064 0.49541 0.0
C608 C 0.68918 0.26293 0.47166 0.0
C609 C 0.80687 0.23866 0.46784 0.0
C610 C 0.71227 0.2364 0.52538 0.0
C611 C 0.73217 0.24194 0.56361 0.0
C612 C 0.70219 0.23164 0.59653 0.0
C613 C 0.65305 0.21463 0.59025 0.0
C614 C 0.63594 0.20777 0.55135 0.0
C615 C 0.6649 0.21904 0.5185 0.0
H616 H 0.05087 0.35023 0.21335 0.0
H617 H 0.04442 0.41599 0.18881 0.0
H618 H 0.02091 0.42297 0.26008 0.0
H619 H 0.89163 0.35135 0.28533 0.0
H620 H 0.93492 0.33136 0.31576 0.0
H621 H 0.95284 0.33174 0.26316 0.0
H622 H 0.10364 0.332 0.27614 0.0
H623 H 0.08623 0.33159 0.32873 0.0
H624 H 0.14548 0.35179 0.30723 0.0
H625 H 0.00975 0.42253 0.33457 0.0
H626 H -0.00314 0.41471 0.40619 0.0
H627 H -0.00514 0.34915 0.38034 0.0
C628 C 0.04472 0.36608 0.22315 0.0
C629 C 0.05047 0.38265 0.19616 0.0
C630 C 0.0405 0.40318 0.20944 0.0
C631 C 0.02722 0.40725 0.24969 0.0
C632 C 0.02202 0.39053 0.27573 0.0
C633 C 0.02902 0.37034 0.26287 0.0
C634 C 0.01833 0.35513 0.29653 0.0
C635 C 0.94506 0.3416 0.28978 0.0
C636 C 0.09287 0.34185 0.3025 0.0
C637 C 0.00622 0.36991 0.33059 0.0
C638 C 0.00935 0.39026 0.31806 0.0
C639 C 0.0056 0.40667 0.34464 0.0
C640 C -0.0015 0.40212 0.3851 0.0
C641 C -0.00645 0.38139 0.39824 0.0
C642 C -0.00335 0.36512 0.37068 0.0
H643 H 0.06835 0.61937 0.18336 0.0
H644 H 0.81351 0.61341 0.18105 0.0
H645 H 0.81301 0.60854 0.25369 0.0
H646 H 0.10852 0.58274 0.26272 0.0
H647 H 0.18497 0.59824 0.28487 0.0
H648 H 0.16653 0.59986 0.23233 0.0
H649 H 0.1462 0.63944 0.23803 0.0
H650 H 0.16501 0.63796 0.29051 0.0
H651 H 0.07463 0.64939 0.27253 0.0
H652 H 0.83969 0.60383 0.32562 0.0
H653 H 0.88891 0.60393 0.39416 0.0
H654 H 0.12629 0.61567 0.35155 0.0
C655 C 0.01263 0.61688 0.19822 0.0
C656 C 0.94093 0.61657 0.17671 0.0
C657 C 0.86896 0.6137 0.19708 0.0
C658 C 0.86818 0.61079 0.23824 0.0
C659 C 0.93977 0.61114 0.25861 0.0
C660 C 0.01059 0.61444 0.23949 0.0
C661 C 0.07836 0.61556 0.26891 0.0
C662 C 0.13812 0.59806 0.26177 0.0
C663 C 0.11838 0.63685 0.2674 0.0
C664 C 0.03443 0.61242 0.30754 0.0
C665 C 0.95479 0.60952 0.30069 0.0
C666 C 0.90186 0.60614 0.33141 0.0
C667 C 0.93066 0.60614 0.3703 0.0
C668 C 0.0116 0.60983 0.37836 0.0
C669 C 0.06419 0.61283 0.34639 0.0
H670 H 0.97224 0.60879 0.85392 0.0
H671 H 0.95519 0.67414 0.88109 0.0
H672 H 0.97375 0.68262 0.81029 0.0
H673 H 0.12692 0.6141 0.78354 0.0
H674 H 0.09118 0.59401 0.75127 0.0
H675 H 0.0702 0.59298 0.80351 0.0
H676 H 0.92048 0.59087 0.78829 0.0
H677 H 0.94103 0.5918 0.73597 0.0
H678 H 0.87498 0.61045 0.75767 0.0
H679 H -0.00607 0.68396 0.73643 0.0
H680 H 0.02296 0.67806 0.66548 0.0
H681 H 0.03642 0.61205 0.68766 0.0
C682 C 0.97132 0.62486 0.84481 0.0
C683 C 0.96158 0.64082 0.87279 0.0
C684 C 0.96247 0.66169 0.86 0.0
C685 C 0.97274 0.66665 0.81989 0.0
C686 C 0.9831 0.65057 0.79306 0.0
C687 C 0.98313 0.6301 0.80499 0.0
C688 C 0.00016 0.61583 0.77058 0.0
C689 C 0.07667 0.60351 0.77766 0.0
C690 C 0.92997 0.60139 0.76266 0.0
C691 C 0.00987 0.63147 0.7375 0.0
C692 C -0.00126 0.65141 0.75093 0.0
C693 C 0.00315 0.66842 0.72557 0.0
C694 C 0.01957 0.66494 0.68539 0.0
C695 C 0.0327 0.64465 0.67123 0.0
C696 C 0.02776 0.62777 0.69776 0.0
H697 H 0.02219 0.38609 0.71593 0.0
H698 H 0.00926 0.32044 0.69075 0.0
H699 H 0.03461 0.31254 0.76114 0.0
H700 H 0.18262 0.38198 0.78571 0.0
H701 H 0.14605 0.40196 0.81798 0.0
H702 H 0.12331 0.40274 0.76581 0.0
H703 H 0.9739 0.40411 0.78166 0.0
H704 H -0.00377 0.40352 0.83387 0.0
H705 H 0.93129 0.38443 0.81282 0.0
H706 H 0.05736 0.31158 0.83357 0.0
H707 H 0.08091 0.31766 0.90483 0.0
H708 H 0.08938 0.38375 0.88316 0.0
C709 C 0.02388 0.3701 0.72547 0.0
C710 C 0.01333 0.35385 0.69816 0.0
C711 C 0.0173 0.33308 0.71135 0.0
C712 C 0.0316 0.32844 0.75119 0.0
C713 C 0.04292 0.34475 0.77732 0.0
C714 C 0.03973 0.36516 0.76514 0.0
C715 C 0.05651 0.37965 0.79933 0.0
C716 C 0.1316 0.39233 0.79174 0.0
C717 C 0.98522 0.39376 0.80739 0.0
C718 C 0.06882 0.36417 0.83257 0.0
C719 C 0.06013 0.34414 0.81916 0.0
C720 C 0.06508 0.32716 0.84446 0.0
C721 C 0.0784 0.33075 0.88477 0.0
C722 C 0.0878 0.35111 0.89915 0.0
C723 C 0.08396 0.36801 0.87265 0.0
H724 H 0.44186 0.83983 0.17516 0.0
H725 H 0.42068 0.90357 0.13612 0.0
H726 H 0.39442 0.91443 0.20487 0.0
H727 H 0.28282 0.84265 0.24667 0.0
H728 H 0.33065 0.8258 0.28199 0.0
H729 H 0.35008 0.82294 0.22982 0.0
H730 H 0.4999 0.82707 0.24295 0.0
H731 H 0.48096 0.82984 0.29515 0.0
H732 H 0.535 0.84955 0.269 0.0
H733 H 0.37836 0.9187 0.27779 0.0
H734 H 0.36377 0.91576 0.3505 0.0
H735 H 0.38259 0.84907 0.342 0.0
C736 C 0.43207 0.85606 0.18125 0.0
C737 C 0.4338 0.87091 0.15051 0.0
C738 C 0.4195 0.89197 0.15934 0.0
C739 C 0.40465 0.89829 0.19824 0.0
C740 C 0.40284 0.8833 0.22788 0.0
C741 C 0.41523 0.8626 0.21989 0.0
C742 C 0.40768 0.84964 0.25718 0.0
C743 C 0.33869 0.83436 0.25369 0.0
C744 C 0.48553 0.83837 0.26662 0.0
C745 C 0.39036 0.86634 0.28736 0.0
C746 C 0.38858 0.88566 0.26982 0.0
C747 C 0.37842 0.90364 0.29184 0.0
C748 C 0.37028 0.90185 0.33301 0.0
C749 C 0.37081 0.88221 0.3515 0.0
C750 C 0.38014 0.86423 0.32833 0.0
H751 H 0.35518 0.11469 0.22136 0.0
H752 H 0.59189 0.09899 0.18221 0.0
H753 H 0.64085 0.10261 0.25028 0.0
H754 H 0.408 0.15236 0.29114 0.0
H755 H 0.33626 0.1451 0.32793 0.0
H756 H 0.31703 0.1402 0.2763 0.0
H757 H 0.29577 0.10133 0.29139 0.0
H758 H 0.31372 0.10616 0.3432 0.0
H759 H 0.37132 0.08703 0.31741 0.0
H760 H 0.66815 0.11192 0.32007 0.0
H761 H 0.66786 0.12074 0.39126 0.0
H762 H 0.41325 0.12759 0.38751 0.0
C763 C 0.41696 0.11166 0.22728 0.0
C764 C 0.46955 0.10663 0.19633 0.0
C765 C 0.55012 0.10279 0.20531 0.0
C766 C 0.57883 0.10491 0.24391 0.0
C767 C 0.52612 0.11048 0.27345 0.0
C768 C 0.44659 0.1133 0.26597 0.0
C769 C 0.40296 0.11908 0.30349 0.0
C770 C 0.36377 0.14046 0.29945 0.0
C771 C 0.34237 0.1024 0.31452 0.0
C772 C 0.47086 0.11954 0.3328 0.0
C773 C 0.54145 0.11475 0.31466 0.0
C774 C 0.61315 0.11534 0.33489 0.0
C775 C 0.61253 0.12054 0.37512 0.0
C776 C 0.54058 0.1247 0.39466 0.0
C777 C 0.46893 0.12424 0.37321 0.0
H778 H 0.43702 0.15093 0.884 0.0
H779 H 0.42159 0.08425 0.89765 0.0
H780 H 0.45332 0.07982 0.82728 0.0
H781 H 0.3467 0.15226 0.78533 0.0
H782 H 0.40886 0.17288 0.76776 0.0
H783 H 0.38468 0.17112 0.81962 0.0
H784 H 0.53353 0.1709 0.83726 0.0
H785 H 0.55817 0.17249 0.78545 0.0
H786 H 0.59715 0.15172 0.81542 0.0
H787 H 0.49495 0.08198 0.75801 0.0
H788 H 0.52916 0.09078 0.68935 0.0
H789 H 0.50935 0.15613 0.71698 0.0
C790 C 0.43987 0.13545 0.87201 0.0
C791 C 0.42689 0.11795 0.89632 0.0
C792 C 0.43071 0.0979 0.87959 0.0
C793 C 0.44915 0.09518 0.83968 0.0
C794 C 0.46246 0.11266 0.81666 0.0
C795 C 0.45677 0.13242 0.83179 0.0
C796 C 0.47212 0.14845 0.79981 0.0
C797 C 0.39871 0.16197 0.79271 0.0
C798 C 0.54456 0.16167 0.81011 0.0
C799 C 0.48829 0.1345 0.76466 0.0
C800 C 0.48321 0.11394 0.77543 0.0
C801 C 0.49839 0.09801 0.74898 0.0
C802 C 0.51829 0.1032 0.71012 0.0
C803 C 0.52178 0.12413 0.69788 0.0
C804 C 0.50657 0.14001 0.72554 0.0
H805 H 0.32822 0.86013 0.67494 0.0
H806 H 0.56902 0.85244 0.63405 0.0
H807 H 0.61466 0.84911 0.70319 0.0
H808 H 0.36986 0.88953 0.76093 0.0
H809 H 0.29742 0.87709 0.7918 0.0
H810 H 0.28259 0.87846 0.73899 0.0
H811 H 0.26824 0.83864 0.73604 0.0
H812 H 0.28252 0.83715 0.78891 0.0
H813 H 0.34525 0.82248 0.75633 0.0
H814 H 0.63616 0.85006 0.77634 0.0
H815 H 0.63004 0.85062 0.84954 0.0
H816 H 0.37479 0.8543 0.84375 0.0
C817 C 0.39039 0.85757 0.68063 0.0
C818 C 0.44513 0.85659 0.64916 0.0
C819 C 0.52598 0.8531 0.65768 0.0
C820 C 0.55257 0.85129 0.69686 0.0
C821 C 0.4974 0.85258 0.72721 0.0
C822 C 0.41782 0.85522 0.71964 0.0
C823 C 0.371 0.85567 0.75787 0.0
C824 C 0.32768 0.87643 0.76267 0.0
C825 C 0.31335 0.83739 0.7599 0.0
C826 C 0.43696 0.85334 0.78803 0.0
C827 C 0.50946 0.85182 0.76963 0.0
C828 C 0.57969 0.85087 0.79113 0.0
C829 C 0.57571 0.85132 0.83259 0.0
C830 C 0.50202 0.85228 0.85205 0.0
C831 C 0.43178 0.8532 0.82947 0.0
loop_
_geom_bond_atom_site_label_1
_geom_bond_atom_site_label_2
_geom_bond_distance
_geom_bond_site_symmetry_2
_ccdc_geom_bond_type
O0 Zn1 1.953 1_554 S
O0 C16 1.225 . S
Zn1 O0 1.953 1_556 S
Zn1 O2 1.949 1_556 S
Zn1 O8 1.919 . S
Zn1 O13 1.924 1_556 S
O2 Zn1 1.949 1_554 S
O2 Zn3 1.923 1_455 S
O2 Zn4 1.950 . S
O2 Zn5 1.945 1_455 S
Zn3 O2 1.923 1_655 S
Zn3 O6 1.933 . S
Zn3 O9 1.941 1_654 S
Zn3 O10 1.965 1_655 S
Zn4 O2 1.950 . S
Zn4 O11 1.938 . S
Zn4 O12 1.906 . S
Zn4 O22 1.953 . S
Zn5 O2 1.945 1_655 S
Zn5 O7 1.932 . S
Zn5 O14 1.977 . S
Zn5 O15 1.910 1_655 S
O6 Zn3 1.933 . S
O6 C17 1.226 . S
O7 Zn5 1.932 . S
O7 C17 1.307 . S
O8 Zn1 1.919 . S
O8 C19 1.253 . S
O9 Zn3 1.941 1_456 S
O9 C19 1.283 . S
O10 Zn3 1.965 1_455 S
O10 C18 1.303 . S
O11 Zn4 1.938 . S
O11 C18 1.247 . S
O12 Zn4 1.906 . S
O12 C20 1.304 . S
O13 Zn1 1.924 1_554 S
O13 C21 1.311 . S
O14 Zn5 1.977 . S
O14 C20 1.272 1_655 S
O15 Zn5 1.910 1_455 S
O15 C21 1.231 . S
C16 O0 1.225 . S
C16 O22 1.298 . S
C17 O6 1.226 . S
C17 O7 1.307 . S
C18 O10 1.303 . S
C18 O11 1.247 . S
C19 O8 1.253 . S
C19 O9 1.283 . S
C20 O12 1.304 . S
C20 O14 1.272 1_455 S
C21 O13 1.311 . S
C21 O15 1.231 . S
O22 Zn4 1.953 . S
O22 C16 1.298 . S
O23 Zn24 1.953 1_554 S
O23 C39 1.225 . S
Zn24 O23 1.953 1_556 S
Zn24 O25 1.949 1_556 S
Zn24 O31 1.919 . S
Zn24 O36 1.924 1_556 S
O25 Zn24 1.949 1_554 S
O25 Zn26 1.923 1_655 S
O25 Zn27 1.950 . S
O25 Zn28 1.945 1_655 S
Zn26 O25 1.923 1_455 S
Zn26 O29 1.933 . S
Zn26 O32 1.941 1_454 S
Zn26 O33 1.965 1_455 S
Zn27 O25 1.950 . S
Zn27 O34 1.938 . S
Zn27 O35 1.906 . S
Zn27 O45 1.953 . S
Zn28 O25 1.945 1_455 S
Zn28 O30 1.932 . S
Zn28 O37 1.977 . S
Zn28 O38 1.910 1_455 S
O29 Zn26 1.933 . S
O29 C40 1.226 . S
O30 Zn28 1.932 . S
O30 C40 1.307 . S
O31 Zn24 1.919 . S
O31 C42 1.253 . S
O32 Zn26 1.941 1_656 S
O32 C42 1.283 . S
O33 Zn26 1.965 1_655 S
O33 C41 1.303 . S
O34 Zn27 1.938 . S
O34 C41 1.247 . S
O35 Zn27 1.906 . S
O35 C43 1.304 . S
O36 Zn24 1.924 1_554 S
O36 C44 1.311 . S
O37 Zn28 1.977 . S
O37 C43 1.272 1_455 S
O38 Zn28 1.910 1_655 S
O38 C44 1.231 . S
C39 O23 1.225 . S
C39 O45 1.298 . S
C40 O29 1.226 . S
C40 O30 1.307 . S
C41 O33 1.303 . S
C41 O34 1.247 . S
C42 O31 1.253 . S
C42 O32 1.283 . S
C43 O35 1.304 . S
C43 O37 1.272 1_655 S
C44 O36 1.311 . S
C44 O38 1.231 . S
O45 Zn27 1.953 . S
O45 C39 1.298 . S
O46 Zn47 1.953 . S
O46 C62 1.225 . S
Zn47 O46 1.953 . S
Zn47 O48 1.949 . S
Zn47 O54 1.919 . S
Zn47 O59 1.924 . S
O48 Zn47 1.949 . S
O48 Zn49 1.923 1_455 S
O48 Zn50 1.950 . S
O48 Zn51 1.945 1_455 S
Zn49 O48 1.923 1_655 S
Zn49 O52 1.933 . S
Zn49 O55 1.941 1_655 S
Zn49 O56 1.965 1_655 S
Zn50 O48 1.950 . S
Zn50 O57 1.938 . S
Zn50 O58 1.906 . S
Zn50 O68 1.953 . S
Zn51 O48 1.945 1_655 S
Zn51 O53 1.932 . S
Zn51 O60 1.977 . S
Zn51 O61 1.910 1_655 S
O52 Zn49 1.933 . S
O52 C63 1.226 . S
O53 Zn51 1.932 . S
O53 C63 1.307 . S
O54 Zn47 1.919 . S
O54 C65 1.253 . S
O55 Zn49 1.941 1_455 S
O55 C65 1.283 . S
O56 Zn49 1.965 1_455 S
O56 C64 1.303 . S
O57 Zn50 1.938 . S
O57 C64 1.247 . S
O58 Zn50 1.906 . S
O58 C66 1.304 . S
O59 Zn47 1.924 . S
O59 C67 1.311 . S
O60 Zn51 1.977 . S
O60 C66 1.272 1_655 S
O61 Zn51 1.910 1_455 S
O61 C67 1.231 . S
C62 O46 1.225 . S
C62 O68 1.298 . S
C63 O52 1.226 . S
C63 O53 1.307 . S
C64 O56 1.303 . S
C64 O57 1.247 . S
C65 O54 1.253 . S
C65 O55 1.283 . S
C66 O58 1.304 . S
C66 O60 1.272 1_455 S
C67 O59 1.311 . S
C67 O61 1.231 . S
O68 Zn50 1.953 . S
O68 C62 1.298 . S
O69 Zn70 1.953 . S
O69 C85 1.225 . S
Zn70 O69 1.953 . S
Zn70 O71 1.949 . S
Zn70 O77 1.919 . S
Zn70 O82 1.924 . S
O71 Zn70 1.949 . S
O71 Zn72 1.923 1_655 S
O71 Zn73 1.950 . S
O71 Zn74 1.945 1_655 S
Zn72 O71 1.923 1_455 S
Zn72 O75 1.933 . S
Zn72 O78 1.941 1_455 S
Zn72 O79 1.965 1_455 S
Zn73 O71 1.950 . S
Zn73 O80 1.938 . S
Zn73 O81 1.906 . S
Zn73 O91 1.953 . S
Zn74 O71 1.945 1_455 S
Zn74 O76 1.932 . S
Zn74 O83 1.977 . S
Zn74 O84 1.910 1_455 S
O75 Zn72 1.933 . S
O75 C86 1.226 . S
O76 Zn74 1.932 . S
O76 C86 1.307 . S
O77 Zn70 1.919 . S
O77 C88 1.253 . S
O78 Zn72 1.941 1_655 S
O78 C88 1.283 . S
O79 Zn72 1.965 1_655 S
O79 C87 1.303 . S
O80 Zn73 1.938 . S
O80 C87 1.247 . S
O81 Zn73 1.906 . S
O81 C89 1.304 . S
O82 Zn70 1.924 . S
O82 C90 1.311 . S
O83 Zn74 1.977 . S
O83 C89 1.272 1_455 S
O84 Zn74 1.910 1_655 S
O84 C90 1.231 . S
C85 O69 1.225 . S
C85 O91 1.298 . S
C86 O75 1.226 . S
C86 O76 1.307 . S
C87 O79 1.303 . S
C87 O80 1.247 . S
C88 O77 1.253 . S
C88 O78 1.283 . S
C89 O81 1.304 . S
C89 O83 1.272 1_655 S
C90 O82 1.311 . S
C90 O84 1.231 . S
O91 Zn73 1.953 . S
O91 C85 1.298 . S
O92 Zn93 1.953 1_554 S
O92 C108 1.225 . S
Zn93 O92 1.953 1_556 S
Zn93 O94 1.949 1_556 S
Zn93 O100 1.919 . S
Zn93 O105 1.924 1_556 S
O94 Zn93 1.949 1_554 S
O94 Zn95 1.923 . S
O94 Zn96 1.950 . S
O94 Zn97 1.945 . S
Zn95 O94 1.923 . S
Zn95 O98 1.933 . S
Zn95 O101 1.941 1_554 S
Zn95 O102 1.965 . S
Zn96 O94 1.950 . S
Zn96 O103 1.938 . S
Zn96 O104 1.906 . S
Zn96 O114 1.953 . S
Zn97 O94 1.945 . S
Zn97 O99 1.932 . S
Zn97 O106 1.977 . S
Zn97 O107 1.910 . S
O98 Zn95 1.933 . S
O98 C109 1.226 . S
O99 Zn97 1.932 . S
O99 C109 1.307 . S
O100 Zn93 1.919 . S
O100 C111 1.253 . S
O101 Zn95 1.941 1_556 S
O101 C111 1.283 . S
O102 Zn95 1.965 . S
O102 C110 1.303 . S
O103 Zn96 1.938 . S
O103 C110 1.247 . S
O104 Zn96 1.906 . S
O104 C112 1.304 . S
O105 Zn93 1.924 1_554 S
O105 C113 1.311 . S
O106 Zn97 1.977 . S
O106 C112 1.272 . S
O107 Zn97 1.910 . S
O107 C113 1.231 . S
C108 O92 1.225 . S
C108 O114 1.298 . S
C109 O98 1.226 . S
C109 O99 1.307 . S
C110 O102 1.303 . S
C110 O103 1.247 . S
C111 O100 1.253 . S
C111 O101 1.283 . S
C112 O104 1.304 . S
C112 O106 1.272 . S
C113 O105 1.311 . S
C113 O107 1.231 . S
O114 Zn96 1.953 . S
O114 C108 1.298 . S
O115 Zn116 1.953 1_554 S
O115 C131 1.225 . S
Zn116 O115 1.953 1_556 S
Zn116 O117 1.949 1_556 S
Zn116 O123 1.919 . S
Zn116 O128 1.924 1_556 S
O117 Zn116 1.949 1_554 S
O117 Zn118 1.923 . S
O117 Zn119 1.950 . S
O117 Zn120 1.945 . S
Zn118 O117 1.923 . S
Zn118 O121 1.933 . S
Zn118 O124 1.941 1_554 S
Zn118 O125 1.965 . S
Zn119 O117 1.950 . S
Zn119 O126 1.938 . S
Zn119 O127 1.906 . S
Zn119 O137 1.953 . S
Zn120 O117 1.945 . S
Zn120 O122 1.932 . S
Zn120 O129 1.977 . S
Zn120 O130 1.910 . S
O121 Zn118 1.933 . S
O121 C132 1.226 . S
O122 Zn120 1.932 . S
O122 C132 1.307 . S
O123 Zn116 1.919 . S
O123 C134 1.253 . S
O124 Zn118 1.941 1_556 S
O124 C134 1.283 . S
O125 Zn118 1.965 . S
O125 C133 1.303 . S
O126 Zn119 1.938 . S
O126 C133 1.247 . S
O127 Zn119 1.906 . S
O127 C135 1.304 . S
O128 Zn116 1.924 1_554 S
O128 C136 1.311 . S
O129 Zn120 1.977 . S
O129 C135 1.272 . S
O130 Zn120 1.910 . S
O130 C136 1.231 . S
C131 O115 1.225 . S
C131 O137 1.298 . S
C132 O121 1.226 . S
C132 O122 1.307 . S
C133 O125 1.303 . S
C133 O126 1.247 . S
C134 O123 1.253 . S
C134 O124 1.283 . S
C135 O127 1.304 . S
C135 O129 1.272 . S
C136 O128 1.311 . S
C136 O130 1.231 . S
O137 Zn119 1.953 . S
O137 C131 1.298 . S
O138 Zn139 1.953 . S
O138 C154 1.225 . S
Zn139 O138 1.953 . S
Zn139 O140 1.949 . S
Zn139 O146 1.919 . S
Zn139 O151 1.924 . S
O140 Zn139 1.949 . S
O140 Zn141 1.923 . S
O140 Zn142 1.950 . S
O140 Zn143 1.945 . S
Zn141 O140 1.923 . S
Zn141 O144 1.933 . S
Zn141 O147 1.941 . S
Zn141 O148 1.965 . S
Zn142 O140 1.950 . S
Zn142 O149 1.938 . S
Zn142 O150 1.906 . S
Zn142 O160 1.953 . S
Zn143 O140 1.945 . S
Zn143 O145 1.932 . S
Zn143 O152 1.977 . S
Zn143 O153 1.910 . S
O144 Zn141 1.933 . S
O144 C155 1.226 . S
O145 Zn143 1.932 . S
O145 C155 1.307 . S
O146 Zn139 1.919 . S
O146 C157 1.253 . S
O147 Zn141 1.941 . S
O147 C157 1.283 . S
O148 Zn141 1.965 . S
O148 C156 1.303 . S
O149 Zn142 1.938 . S
O149 C156 1.247 . S
O150 Zn142 1.906 . S
O150 C158 1.304 . S
O151 Zn139 1.924 . S
O151 C159 1.311 . S
O152 Zn143 1.977 . S
O152 C158 1.272 . S
O153 Zn143 1.910 . S
O153 C159 1.231 . S
C154 O138 1.225 . S
C154 O160 1.298 . S
C155 O144 1.226 . S
C155 O145 1.307 . S
C156 O148 1.303 . S
C156 O149 1.247 . S
C157 O146 1.253 . S
C157 O147 1.283 . S
C158 O150 1.304 . S
C158 O152 1.272 . S
C159 O151 1.311 . S
C159 O153 1.231 . S
O160 Zn142 1.953 . S
O160 C154 1.298 . S
O161 Zn162 1.953 . S
O161 C177 1.225 . S
Zn162 O161 1.953 . S
Zn162 O163 1.949 . S
Zn162 O169 1.919 . S
Zn162 O174 1.924 . S
O163 Zn162 1.949 . S
O163 Zn164 1.923 . S
O163 Zn165 1.950 . S
O163 Zn166 1.945 . S
Zn164 O163 1.923 . S
Zn164 O167 1.933 . S
Zn164 O170 1.941 . S
Zn164 O171 1.965 . S
Zn165 O163 1.950 . S
Zn165 O172 1.938 . S
Zn165 O173 1.906 . S
Zn165 O183 1.953 . S
Zn166 O163 1.945 . S
Zn166 O168 1.932 . S
Zn166 O175 1.977 . S
Zn166 O176 1.910 . S
O167 Zn164 1.933 . S
O167 C178 1.226 . S
O168 Zn166 1.932 . S
O168 C178 1.307 . S
O169 Zn162 1.919 . S
O169 C180 1.253 . S
O170 Zn164 1.941 . S
O170 C180 1.283 . S
O171 Zn164 1.965 . S
O171 C179 1.303 . S
O172 Zn165 1.938 . S
O172 C179 1.247 . S
O173 Zn165 1.906 . S
O173 C181 1.304 . S
O174 Zn162 1.924 . S
O174 C182 1.311 . S
O175 Zn166 1.977 . S
O175 C181 1.272 . S
O176 Zn166 1.910 . S
O176 C182 1.231 . S
C177 O161 1.225 . S
C177 O183 1.298 . S
C178 O167 1.226 . S
C178 O168 1.307 . S
C179 O171 1.303 . S
C179 O172 1.247 . S
C180 O169 1.253 . S
C180 O170 1.283 . S
C181 O173 1.304 . S
C181 O175 1.272 . S
C182 O174 1.311 . S
C182 O176 1.231 . S
O183 Zn165 1.953 . S
O183 C177 1.298 . S
H184 C196 0.930 1_556 S
H185 C198 0.930 . S
H186 C199 0.930 . S
H187 C203 0.959 . S
H188 C203 0.959 . S
H189 C203 0.961 . S
H190 C204 0.960 . S
H191 C204 0.961 . S
H192 C204 0.959 1_554 S
H193 C207 0.929 . S
H194 C208 0.931 . S
H195 C210 0.930 1_556 S
C196 H184 0.930 1_554 S
C196 C197 1.399 . S
C196 C201 1.399 . S
C197 C196 1.399 . S
C197 C198 1.376 . S
C198 H185 0.930 . S
C198 C197 1.376 . S
C198 C199 1.388 . S
C199 H186 0.930 . S
C199 C198 1.388 . S
C199 C200 1.390 . S
C200 C199 1.390 . S
C200 C201 1.394 . S
C200 C206 1.465 . S
C201 C196 1.399 . S
C201 C200 1.394 . S
C201 C202 1.516 1_554 S
C202 C201 1.516 1_556 S
C202 C203 1.502 . S
C202 C204 1.561 . S
C202 C205 1.526 1_556 S
C203 H187 0.959 . S
C203 H188 0.959 . S
C203 H189 0.961 . S
C203 C202 1.502 . S
C204 H190 0.960 . S
C204 H191 0.961 . S
C204 H192 0.959 1_556 S
C204 C202 1.561 . S
C205 C202 1.526 1_554 S
C205 C206 1.396 . S
C205 C210 1.390 . S
C206 C200 1.465 . S
C206 C205 1.396 . S
C206 C207 1.399 . S
C207 H193 0.929 . S
C207 C206 1.399 . S
C207 C208 1.385 . S
C208 H194 0.931 . S
C208 C207 1.385 . S
C208 C209 1.389 . S
C209 C208 1.389 . S
C209 C210 1.387 . S
C210 H195 0.930 1_554 S
C210 C205 1.390 . S
C210 C209 1.387 . S
H211 C223 0.930 . S
H212 C225 0.930 . S
H213 C226 0.930 . S
H214 C230 0.959 . S
H215 C230 0.959 . S
H216 C230 0.961 . S
H217 C231 0.960 . S
H218 C231 0.961 . S
H219 C231 0.959 . S
H220 C234 0.929 . S
H221 C235 0.931 . S
H222 C237 0.930 . S
C223 H211 0.930 . S
C223 C224 1.399 . S
C223 C228 1.399 . S
C224 C223 1.399 . S
C224 C225 1.376 1_554 S
C225 H212 0.930 . S
C225 C224 1.376 1_556 S
C225 C226 1.388 . S
C226 H213 0.930 . S
C226 C225 1.388 . S
C226 C227 1.390 1_556 S
C227 C226 1.390 1_554 S
C227 C228 1.394 . S
C227 C233 1.465 . S
C228 C223 1.399 . S
C228 C227 1.394 . S
C228 C229 1.516 . S
C229 C228 1.516 . S
C229 C230 1.502 . S
C229 C231 1.561 . S
C229 C232 1.526 . S
C230 H214 0.959 . S
C230 H215 0.959 . S
C230 H216 0.961 . S
C230 C229 1.502 . S
C231 H217 0.960 . S
C231 H218 0.961 . S
C231 H219 0.959 . S
C231 C229 1.561 . S
C232 C229 1.526 . S
C232 C233 1.396 . S
C232 C237 1.390 . S
C233 C227 1.465 . S
C233 C232 1.396 . S
C233 C234 1.399 1_554 S
C234 H220 0.929 . S
C234 C233 1.399 1_556 S
C234 C235 1.385 . S
C235 H221 0.931 . S
C235 C234 1.385 . S
C235 C236 1.389 1_556 S
C236 C235 1.389 1_554 S
C236 C237 1.387 . S
C237 H222 0.930 . S
C237 C232 1.390 . S
C237 C236 1.387 . S
H238 C250 0.930 . S
H239 C252 0.930 . S
H240 C253 0.930 . S
H241 C257 0.959 . S
H242 C257 0.959 . S
H243 C257 0.961 . S
H244 C258 0.960 . S
H245 C258 0.961 . S
H246 C258 0.959 . S
H247 C261 0.929 . S
H248 C262 0.931 . S
H249 C264 0.930 . S
C250 H238 0.930 . S
C250 C251 1.399 . S
C250 C255 1.399 . S
C251 C250 1.399 . S
C251 C252 1.376 . S
C252 H239 0.930 . S
C252 C251 1.376 . S
C252 C253 1.388 . S
C253 H240 0.930 . S
C253 C252 1.388 . S
C253 C254 1.390 . S
C254 C253 1.390 . S
C254 C255 1.394 . S
C254 C260 1.465 . S
C255 C250 1.399 . S
C255 C254 1.394 . S
C255 C256 1.516 . S
C256 C255 1.516 . S
C256 C257 1.502 . S
C256 C258 1.561 . S
C256 C259 1.526 . S
C257 H241 0.959 . S
C257 H242 0.959 . S
C257 H243 0.961 . S
C257 C256 1.502 . S
C258 H244 0.960 . S
C258 H245 0.961 . S
C258 H246 0.959 . S
C258 C256 1.561 . S
C259 C256 1.526 . S
C259 C260 1.396 . S
C259 C264 1.390 . S
C260 C254 1.465 . S
C260 C259 1.396 . S
C260 C261 1.399 . S
C261 H247 0.929 . S
C261 C260 1.399 . S
C261 C262 1.385 . S
C262 H248 0.931 . S
C262 C261 1.385 . S
C262 C263 1.389 . S
C263 C262 1.389 . S
C263 C264 1.387 . S
C264 H249 0.930 . S
C264 C259 1.390 . S
C264 C263 1.387 . S
H265 C277 0.930 . S
H266 C279 0.930 . S
H267 C280 0.930 . S
H268 C284 0.959 . S
H269 C284 0.959 . S
H270 C284 0.961 . S
H271 C285 0.960 . S
H272 C285 0.961 . S
H273 C285 0.959 . S
H274 C288 0.929 . S
H275 C289 0.931 . S
H276 C291 0.930 . S
C277 H265 0.930 . S
C277 C278 1.399 . S
C277 C282 1.399 . S
C278 C277 1.399 . S
C278 C279 1.376 . S
C279 H266 0.930 . S
C279 C278 1.376 . S
C279 C280 1.388 . S
C280 H267 0.930 . S
C280 C279 1.388 . S
C280 C281 1.390 . S
C281 C280 1.390 . S
C281 C282 1.394 . S
C281 C287 1.465 . S
C282 C277 1.399 . S
C282 C281 1.394 . S
C282 C283 1.516 . S
C283 C282 1.516 . S
C283 C284 1.502 . S
C283 C285 1.561 . S
C283 C286 1.526 . S
C284 H268 0.959 . S
C284 H269 0.959 . S
C284 H270 0.961 . S
C284 C283 1.502 . S
C285 H271 0.960 . S
C285 H272 0.961 . S
C285 H273 0.959 . S
C285 C283 1.561 . S
C286 C283 1.526 . S
C286 C287 1.396 . S
C286 C291 1.390 . S
C287 C281 1.465 . S
C287 C286 1.396 . S
C287 C288 1.399 . S
C288 H274 0.929 . S
C288 C287 1.399 . S
C288 C289 1.385 . S
C289 H275 0.931 . S
C289 C288 1.385 . S
C289 C290 1.389 . S
C290 C289 1.389 . S
C290 C291 1.387 . S
C291 H276 0.930 . S
C291 C286 1.390 . S
C291 C290 1.387 . S
H292 C304 0.930 1_556 S
H293 C306 0.930 . S
H294 C307 0.930 . S
H295 C311 0.959 . S
H296 C311 0.959 . S
H297 C311 0.961 1_655 S
H298 C312 0.960 . S
H299 C312 0.961 . S
H300 C312 0.959 . S
H301 C315 0.929 . S
H302 C316 0.931 . S
H303 C318 0.930 1_556 S
C304 H292 0.930 1_554 S
C304 C305 1.399 . S
C304 C309 1.399 . S
C305 C304 1.399 . S
C305 C306 1.376 . S
C306 H293 0.930 . S
C306 C305 1.376 . S
C306 C307 1.388 . S
C307 H294 0.930 . S
C307 C306 1.388 . S
C307 C308 1.390 1_655 S
C308 C307 1.390 1_455 S
C308 C309 1.394 1_455 S
C308 C314 1.465 . S
C309 C304 1.399 . S
C309 C308 1.394 1_655 S
C309 C310 1.516 1_654 S
C310 C309 1.516 1_456 S
C310 C311 1.502 . S
C310 C312 1.561 . S
C310 C313 1.526 1_556 S
C311 H295 0.959 . S
C311 H296 0.959 . S
C311 H297 0.961 1_455 S
C311 C310 1.502 . S
C312 H298 0.960 . S
C312 H299 0.961 . S
C312 H300 0.959 . S
C312 C310 1.561 . S
C313 C310 1.526 1_554 S
C313 C314 1.396 . S
C313 C318 1.390 . S
C314 C308 1.465 . S
C314 C313 1.396 . S
C314 C315 1.399 . S
C315 H301 0.929 . S
C315 C314 1.399 . S
C315 C316 1.385 . S
C316 H302 0.931 . S
C316 C315 1.385 . S
C316 C317 1.389 . S
C317 C316 1.389 . S
C317 C318 1.387 . S
C318 H303 0.930 1_554 S
C318 C313 1.390 . S
C318 C317 1.387 . S
H319 C331 0.930 . S
H320 C333 0.930 . S
H321 C334 0.930 . S
H322 C338 0.959 . S
H323 C338 0.959 . S
H324 C338 0.961 . S
H325 C339 0.960 1_455 S
H326 C339 0.961 . S
H327 C339 0.959 . S
H328 C342 0.929 . S
H329 C343 0.931 . S
H330 C345 0.930 . S
C331 H319 0.930 . S
C331 C332 1.399 . S
C331 C336 1.399 . S
C332 C331 1.399 . S
C332 C333 1.376 1_554 S
C333 H320 0.930 . S
C333 C332 1.376 1_556 S
C333 C334 1.388 . S
C334 H321 0.930 . S
C334 C333 1.388 . S
C334 C335 1.390 1_456 S
C335 C334 1.390 1_654 S
C335 C336 1.394 1_655 S
C335 C341 1.465 . S
C336 C331 1.399 . S
C336 C335 1.394 1_455 S
C336 C337 1.516 1_455 S
C337 C336 1.516 1_655 S
C337 C338 1.502 . S
C337 C339 1.561 . S
C337 C340 1.526 . S
C338 H322 0.959 . S
C338 H323 0.959 . S
C338 H324 0.961 . S
C338 C337 1.502 . S
C339 H325 0.960 1_655 S
C339 H326 0.961 . S
C339 H327 0.959 . S
C339 C337 1.561 . S
C340 C337 1.526 . S
C340 C341 1.396 . S
C340 C345 1.390 . S
C341 C335 1.465 . S
C341 C340 1.396 . S
C341 C342 1.399 1_554 S
C342 H328 0.929 . S
C342 C341 1.399 1_556 S
C342 C343 1.385 . S
C343 H329 0.931 . S
C343 C342 1.385 . S
C343 C344 1.389 1_556 S
C344 C343 1.389 1_554 S
C344 C345 1.387 . S
C345 H330 0.930 . S
C345 C340 1.390 . S
C345 C344 1.387 . S
H346 C358 0.930 . S
H347 C360 0.930 . S
H348 C361 0.930 . S
H349 C365 0.959 . S
H350 C365 0.959 1_655 S
H351 C365 0.961 . S
H352 C366 0.960 . S
H353 C366 0.961 . S
H354 C366 0.959 . S
H355 C369 0.929 . S
H356 C370 0.931 . S
H357 C372 0.930 . S
C358 H346 0.930 . S
C358 C359 1.399 . S
C358 C363 1.399 . S
C359 C358 1.399 . S
C359 C360 1.376 . S
C360 H347 0.930 . S
C360 C359 1.376 . S
C360 C361 1.388 . S
C361 H348 0.930 . S
C361 C360 1.388 . S
C361 C362 1.390 . S
C362 C361 1.390 . S
C362 C363 1.394 . S
C362 C368 1.465 . S
C363 C358 1.399 . S
C363 C362 1.394 . S
C363 C364 1.516 . S
C364 C363 1.516 . S
C364 C365 1.502 . S
C364 C366 1.561 . S
C364 C367 1.526 1_455 S
C365 H349 0.959 . S
C365 H350 0.959 1_455 S
C365 H351 0.961 . S
C365 C364 1.502 . S
C366 H352 0.960 . S
C366 H353 0.961 . S
C366 H354 0.959 . S
C366 C364 1.561 . S
C367 C364 1.526 1_655 S
C367 C368 1.396 1_655 S
C367 C372 1.390 . S
C368 C362 1.465 . S
C368 C367 1.396 1_455 S
C368 C369 1.399 1_455 S
C369 H355 0.929 . S
C369 C368 1.399 1_655 S
C369 C370 1.385 . S
C370 H356 0.931 . S
C370 C369 1.385 . S
C370 C371 1.389 . S
C371 C370 1.389 . S
C371 C372 1.387 . S
C372 H357 0.930 . S
C372 C367 1.390 . S
C372 C371 1.387 . S
H373 C385 0.930 . S
H374 C387 0.930 . S
H375 C388 0.930 . S
H376 C392 0.959 . S
H377 C392 0.959 1_455 S
H378 C392 0.961 . S
H379 C393 0.960 . S
H380 C393 0.961 . S
H381 C393 0.959 . S
H382 C396 0.929 . S
H383 C397 0.931 . S
H384 C399 0.930 . S
C385 H373 0.930 . S
C385 C386 1.399 . S
C385 C390 1.399 . S
C386 C385 1.399 . S
C386 C387 1.376 . S
C387 H374 0.930 . S
C387 C386 1.376 . S
C387 C388 1.388 . S
C388 H375 0.930 . S
C388 C387 1.388 . S
C388 C389 1.390 . S
C389 C388 1.390 . S
C389 C390 1.394 . S
C389 C395 1.465 . S
C390 C385 1.399 . S
C390 C389 1.394 . S
C390 C391 1.516 . S
C391 C390 1.516 . S
C391 C392 1.502 . S
C391 C393 1.561 . S
C391 C394 1.526 1_655 S
C392 H376 0.959 . S
C392 H377 0.959 1_655 S
C392 H378 0.961 . S
C392 C391 1.502 . S
C393 H379 0.960 . S
C393 H380 0.961 . S
C393 H381 0.959 . S
C393 C391 1.561 . S
C394 C391 1.526 1_455 S
C394 C395 1.396 1_455 S
C394 C399 1.390 . S
C395 C389 1.465 . S
C395 C394 1.396 1_655 S
C395 C396 1.399 1_655 S
C396 H382 0.929 . S
C396 C395 1.399 1_455 S
C396 C397 1.385 . S
C397 H383 0.931 . S
C397 C396 1.385 . S
C397 C398 1.389 . S
C398 C397 1.389 . S
C398 C399 1.387 . S
C399 H384 0.930 . S
C399 C394 1.390 . S
C399 C398 1.387 . S
H400 C412 0.930 1_455 S
H401 C414 0.930 1_556 S
H402 C415 0.946 . S
H403 C419 0.959 . S
H404 C419 0.959 . S
H405 C419 0.961 . S
H406 C420 0.960 . S
H407 C420 0.961 . S
H408 C420 0.959 1_655 S
H409 C423 0.929 . S
H410 C424 0.931 1_556 S
H411 C426 0.930 . S
C412 H400 0.930 1_655 S
C412 C413 1.399 . S
C412 C417 1.399 . S
C413 C412 1.399 . S
C413 C414 1.376 . S
C414 H401 0.930 1_554 S
C414 C413 1.376 . S
C414 C415 1.385 1_554 S
C415 H402 0.946 . S
C415 C414 1.385 1_556 S
C415 C416 1.377 1_556 S
C416 C415 1.377 1_554 S
C416 C417 1.394 . S
C416 C422 1.465 . S
C417 C412 1.399 . S
C417 C416 1.394 . S
C417 C418 1.516 1_655 S
C418 C417 1.516 1_455 S
C418 C419 1.502 . S
C418 C420 1.561 . S
C418 C421 1.526 . S
C419 H403 0.959 . S
C419 H404 0.959 . S
C419 H405 0.961 . S
C419 C418 1.502 . S
C420 H406 0.960 . S
C420 H407 0.961 . S
C420 H408 0.959 1_455 S
C420 C418 1.561 . S
C421 C418 1.526 . S
C421 C422 1.396 1_455 S
C421 C426 1.390 . S
C422 C416 1.465 . S
C422 C421 1.396 1_655 S
C422 C423 1.399 1_554 S
C423 H409 0.929 . S
C423 C422 1.399 1_556 S
C423 C424 1.385 1_556 S
C424 H410 0.931 1_554 S
C424 C423 1.385 1_554 S
C424 C425 1.389 1_655 S
C425 C424 1.389 1_455 S
C425 C426 1.387 . S
C426 H411 0.930 . S
C426 C421 1.390 . S
C426 C425 1.387 . S
H427 C439 0.930 . S
H428 C441 0.930 . S
H429 C442 0.930 . S
H430 C446 0.959 . S
H431 C446 0.959 . S
H432 C446 0.961 . S
H433 C447 0.960 . S
H434 C447 0.961 . S
H435 C447 0.959 . S
H436 C450 0.929 . S
H437 C451 0.931 . S
H438 C453 0.930 . S
C439 H427 0.930 . S
C439 C440 1.399 . S
C439 C444 1.399 . S
C440 C439 1.399 . S
C440 C441 1.376 1_655 S
C441 H428 0.930 . S
C441 C440 1.376 1_455 S
C441 C442 1.388 . S
C442 H429 0.930 . S
C442 C441 1.388 . S
C442 C443 1.390 . S
C443 C442 1.390 . S
C443 C444 1.394 1_455 S
C443 C449 1.465 . S
C444 C439 1.399 . S
C444 C443 1.394 1_655 S
C444 C445 1.516 . S
C445 C444 1.516 . S
C445 C446 1.502 . S
C445 C447 1.561 . S
C445 C448 1.526 . S
C446 H430 0.959 . S
C446 H431 0.959 . S
C446 H432 0.961 . S
C446 C445 1.502 . S
C447 H433 0.960 . S
C447 H434 0.961 . S
C447 H435 0.959 . S
C447 C445 1.561 . S
C448 C445 1.526 . S
C448 C449 1.396 1_655 S
C448 C453 1.390 . S
C449 C443 1.465 . S
C449 C448 1.396 1_455 S
C449 C450 1.399 . S
C450 H436 0.929 . S
C450 C449 1.399 . S
C450 C451 1.385 . S
C451 H437 0.931 . S
C451 C450 1.385 . S
C451 C452 1.389 . S
C452 C451 1.389 . S
C452 C453 1.387 1_455 S
C453 H438 0.930 . S
C453 C448 1.390 . S
C453 C452 1.387 1_655 S
H454 C466 0.930 1_556 S
H455 C468 0.930 . S
H456 C469 0.930 . S
H457 C473 0.959 . S
H458 C473 0.959 . S
H459 C473 0.961 1_565 S
H460 C474 0.960 . S
H461 C474 0.961 1_545 S
H462 C474 0.959 . S
H463 C477 0.929 . S
H464 C478 0.931 . S
H465 C480 0.930 1_556 S
C466 H454 0.930 1_554 S
C466 C467 1.399 . S
C466 C471 1.399 . S
C467 C466 1.399 . S
C467 C468 1.376 . S
C468 H455 0.930 . S
C468 C467 1.376 . S
C468 C469 1.388 . S
C469 H456 0.930 . S
C469 C468 1.388 . S
C469 C470 1.390 . S
C470 C469 1.390 . S
C470 C471 1.394 . S
C470 C476 1.465 1_565 S
C471 C466 1.399 . S
C471 C470 1.394 . S
C471 C472 1.480 1_564 S
C472 C471 1.480 1_546 S
C472 C473 1.514 . S
C472 C474 1.552 1_545 S
C472 C475 1.560 1_556 S
C473 H457 0.959 . S
C473 H458 0.959 . S
C473 H459 0.961 1_545 S
C473 C472 1.514 . S
C474 H460 0.960 . S
C474 H461 0.961 1_565 S
C474 H462 0.959 . S
C474 C472 1.552 1_565 S
C475 C472 1.560 1_554 S
C475 C476 1.396 . S
C475 C480 1.390 . S
C476 C470 1.465 1_545 S
C476 C475 1.396 . S
C476 C477 1.399 . S
C477 H463 0.929 . S
C477 C476 1.399 . S
C477 C478 1.385 . S
C478 H464 0.931 . S
C478 C477 1.385 . S
C478 C479 1.389 . S
C479 C478 1.389 . S
C479 C480 1.387 . S
C480 H465 0.930 1_554 S
C480 C475 1.390 . S
C480 C479 1.387 . S
H481 C493 0.930 . S
H482 C495 0.930 . S
H483 C496 0.930 . S
H484 C500 0.959 . S
H485 C500 0.959 1_565 S
H486 C500 0.961 . S
H487 C501 0.960 1_545 S
H488 C501 0.961 . S
H489 C501 0.959 . S
H490 C504 0.929 . S
H491 C505 0.931 . S
H492 C507 0.930 . S
C493 H481 0.930 . S
C493 C494 1.399 . S
C493 C498 1.399 . S
C494 C493 1.399 . S
C494 C495 1.376 . S
C495 H482 0.930 . S
C495 C494 1.376 . S
C495 C496 1.388 . S
C496 H483 0.930 . S
C496 C495 1.388 . S
C496 C497 1.390 . S
C497 C496 1.390 . S
C497 C498 1.394 . S
C497 C503 1.465 1_545 S
C498 C493 1.399 . S
C498 C497 1.394 . S
C498 C499 1.525 . S
C499 C498 1.525 . S
C499 C500 1.504 . S
C499 C501 1.559 1_545 S
C499 C502 1.517 1_545 S
C500 H484 0.959 . S
C500 H485 0.959 1_545 S
C500 H486 0.961 . S
C500 C499 1.504 . S
C501 H487 0.960 1_565 S
C501 H488 0.961 . S
C501 H489 0.959 . S
C501 C499 1.559 1_565 S
C502 C499 1.517 1_565 S
C502 C503 1.396 . S
C502 C507 1.390 . S
C503 C497 1.465 1_565 S
C503 C502 1.396 . S
C503 C504 1.399 . S
C504 H490 0.929 . S
C504 C503 1.399 . S
C504 C505 1.385 . S
C505 H491 0.931 . S
C505 C504 1.385 . S
C505 C506 1.389 . S
C506 C505 1.389 . S
C506 C507 1.387 . S
C507 H492 0.930 . S
C507 C502 1.390 . S
C507 C506 1.387 . S
H508 C520 0.930 1_556 S
H509 C522 0.930 . S
H510 C523 0.930 . S
H511 C527 0.959 . S
H512 C527 0.959 . S
H513 C527 0.961 . S
H514 C528 0.960 . S
H515 C528 0.961 . S
H516 C528 0.959 . S
H517 C531 0.929 . S
H518 C532 0.931 . S
H519 C534 0.930 1_556 S
C520 H508 0.930 1_554 S
C520 C521 1.399 . S
C520 C525 1.399 . S
C521 C520 1.399 . S
C521 C522 1.376 . S
C522 H509 0.930 . S
C522 C521 1.376 . S
C522 C523 1.388 . S
C523 H510 0.930 . S
C523 C522 1.388 . S
C523 C524 1.390 . S
C524 C523 1.390 . S
C524 C525 1.394 . S
C524 C530 1.465 . S
C525 C520 1.399 . S
C525 C524 1.394 . S
C525 C526 1.516 1_554 S
C526 C525 1.516 1_556 S
C526 C527 1.502 . S
C526 C528 1.561 . S
C526 C529 1.526 1_556 S
C527 H511 0.959 . S
C527 H512 0.959 . S
C527 H513 0.961 . S
C527 C526 1.502 . S
C528 H514 0.960 . S
C528 H515 0.961 . S
C528 H516 0.959 . S
C528 C526 1.561 . S
C529 C526 1.526 1_554 S
C529 C530 1.396 . S
C529 C534 1.390 . S
C530 C524 1.465 . S
C530 C529 1.396 . S
C530 C531 1.399 . S
C531 H517 0.929 . S
C531 C530 1.399 . S
C531 C532 1.385 . S
C532 H518 0.931 . S
C532 C531 1.385 . S
C532 C533 1.389 . S
C533 C532 1.389 . S
C533 C534 1.387 . S
C534 H519 0.930 1_554 S
C534 C529 1.390 . S
C534 C533 1.387 . S
H535 C547 0.930 . S
H536 C549 0.930 . S
H537 C550 0.930 . S
H538 C554 0.959 . S
H539 C554 0.959 . S
H540 C554 0.961 . S
H541 C555 0.960 . S
H542 C555 0.961 . S
H543 C555 0.959 1_556 S
H544 C558 0.929 . S
H545 C559 0.931 . S
H546 C561 0.930 . S
C547 H535 0.930 . S
C547 C548 1.399 . S
C547 C552 1.399 . S
C548 C547 1.399 . S
C548 C549 1.376 . S
C549 H536 0.930 . S
C549 C548 1.376 . S
C549 C550 1.388 . S
C550 H537 0.930 . S
C550 C549 1.388 . S
C550 C551 1.390 . S
C551 C550 1.390 . S
C551 C552 1.394 . S
C551 C557 1.465 . S
C552 C547 1.399 . S
C552 C551 1.394 . S
C552 C553 1.516 . S
C553 C552 1.516 . S
C553 C554 1.502 . S
C553 C555 1.561 . S
C553 C556 1.526 . S
C554 H538 0.959 . S
C554 H539 0.959 . S
C554 H540 0.961 . S
C554 C553 1.502 . S
C555 H541 0.960 . S
C555 H542 0.961 . S
C555 H543 0.959 1_554 S
C555 C553 1.561 . S
C556 C553 1.526 . S
C556 C557 1.396 . S
C556 C561 1.390 . S
C557 C551 1.465 . S
C557 C556 1.396 . S
C557 C558 1.399 . S
C558 H544 0.929 . S
C558 C557 1.399 . S
C558 C559 1.385 . S
C559 H545 0.931 . S
C559 C558 1.385 . S
C559 C560 1.389 . S
C560 C559 1.389 . S
C560 C561 1.387 . S
C561 H546 0.930 . S
C561 C556 1.390 . S
C561 C560 1.387 . S
H562 C574 0.930 . S
H563 C576 0.930 . S
H564 C577 0.930 . S
H565 C581 0.959 . S
H566 C581 0.959 . S
H567 C581 0.961 . S
H568 C582 0.960 . S
H569 C582 0.961 . S
H570 C582 0.959 . S
H571 C585 0.929 . S
H572 C586 0.931 . S
H573 C588 0.930 . S
C574 H562 0.930 . S
C574 C575 1.399 . S
C574 C579 1.399 . S
C575 C574 1.399 . S
C575 C576 1.376 . S
C576 H563 0.930 . S
C576 C575 1.376 . S
C576 C577 1.388 . S
C577 H564 0.930 . S
C577 C576 1.388 . S
C577 C578 1.390 . S
C578 C577 1.390 . S
C578 C579 1.394 . S
C578 C584 1.465 . S
C579 C574 1.399 . S
C579 C578 1.394 . S
C579 C580 1.516 . S
C580 C579 1.516 . S
C580 C581 1.502 . S
C580 C582 1.561 . S
C580 C583 1.526 . S
C581 H565 0.959 . S
C581 H566 0.959 . S
C581 H567 0.961 . S
C581 C580 1.502 . S
C582 H568 0.960 . S
C582 H569 0.961 . S
C582 H570 0.959 . S
C582 C580 1.561 . S
C583 C580 1.526 . S
C583 C584 1.396 . S
C583 C588 1.390 . S
C584 C578 1.465 . S
C584 C583 1.396 . S
C584 C585 1.399 . S
C585 H571 0.929 . S
C585 C584 1.399 . S
C585 C586 1.385 . S
C586 H572 0.931 . S
C586 C585 1.385 . S
C586 C587 1.389 . S
C587 C586 1.389 . S
C587 C588 1.387 . S
C588 H573 0.930 . S
C588 C583 1.390 . S
C588 C587 1.387 . S
H589 C601 0.930 . S
H590 C603 0.930 . S
H591 C604 0.930 . S
H592 C608 0.959 . S
H593 C608 0.959 . S
H594 C608 0.961 . S
H595 C609 0.960 . S
H596 C609 0.961 . S
H597 C609 0.959 . S
H598 C612 0.929 . S
H599 C613 0.931 . S
H600 C615 0.930 . S
C601 H589 0.930 . S
C601 C602 1.399 . S
C601 C606 1.399 . S
C602 C601 1.399 . S
C602 C603 1.376 . S
C603 H590 0.930 . S
C603 C602 1.376 . S
C603 C604 1.388 . S
C604 H591 0.930 . S
C604 C603 1.388 . S
C604 C605 1.390 . S
C605 C604 1.390 . S
C605 C606 1.394 . S
C605 C611 1.465 . S
C606 C601 1.399 . S
C606 C605 1.394 . S
C606 C607 1.516 . S
C607 C606 1.516 . S
C607 C608 1.502 . S
C607 C609 1.561 . S
C607 C610 1.526 . S
C608 H592 0.959 . S
C608 H593 0.959 . S
C608 H594 0.961 . S
C608 C607 1.502 . S
C609 H595 0.960 . S
C609 H596 0.961 . S
C609 H597 0.959 . S
C609 C607 1.561 . S
C610 C607 1.526 . S
C610 C611 1.396 . S
C610 C615 1.390 . S
C611 C605 1.465 . S
C611 C610 1.396 . S
C611 C612 1.399 . S
C612 H598 0.929 . S
C612 C611 1.399 . S
C612 C613 1.385 . S
C613 H599 0.931 . S
C613 C612 1.385 . S
C613 C614 1.389 . S
C614 C613 1.389 . S
C614 C615 1.387 . S
C615 H600 0.930 . S
C615 C610 1.390 . S
C615 C614 1.387 . S
H616 C628 0.930 . S
H617 C630 0.930 . S
H618 C631 0.930 . S
H619 C635 0.959 . S
H620 C635 0.959 . S
H621 C635 0.961 . S
H622 C636 0.960 . S
H623 C636 0.961 . S
H624 C636 0.959 . S
H625 C639 0.929 . S
H626 C640 0.931 . S
H627 C642 0.930 . S
C628 H616 0.930 . S
C628 C629 1.399 1_655 S
C628 C633 1.399 . S
C629 C628 1.399 1_455 S
C629 C630 1.376 . S
C630 H617 0.930 . S
C630 C629 1.376 . S
C630 C631 1.388 . S
C631 H618 0.930 . S
C631 C630 1.388 . S
C631 C632 1.390 . S
C632 C631 1.390 . S
C632 C633 1.394 1_455 S
C632 C638 1.465 . S
C633 C628 1.399 . S
C633 C632 1.394 1_655 S
C633 C634 1.516 . S
C634 C633 1.516 . S
C634 C635 1.502 . S
C634 C636 1.561 1_655 S
C634 C637 1.526 . S
C635 H619 0.959 . S
C635 H620 0.959 . S
C635 H621 0.961 . S
C635 C634 1.502 . S
C636 H622 0.960 . S
C636 H623 0.961 . S
C636 H624 0.959 . S
C636 C634 1.561 1_455 S
C637 C634 1.526 . S
C637 C638 1.396 1_655 S
C637 C642 1.390 . S
C638 C632 1.465 . S
C638 C637 1.396 1_455 S
C638 C639 1.399 . S
C639 H625 0.929 . S
C639 C638 1.399 . S
C639 C640 1.385 . S
C640 H626 0.931 . S
C640 C639 1.385 . S
C640 C641 1.389 1_455 S
C641 C640 1.389 1_655 S
C641 C642 1.387 . S
C642 H627 0.930 . S
C642 C637 1.390 . S
C642 C641 1.387 . S
H643 C655 0.930 . S
H644 C657 0.930 . S
H645 C658 0.930 . S
H646 C662 0.959 . S
H647 C662 0.959 . S
H648 C662 0.961 . S
H649 C663 0.960 . S
H650 C663 0.961 . S
H651 C663 0.959 . S
H652 C666 0.929 . S
H653 C667 0.931 . S
H654 C669 0.931 . S
C655 H643 0.930 . S
C655 C656 1.399 . S
C655 C660 1.399 . S
C656 C655 1.399 . S
C656 C657 1.376 1_655 S
C657 H644 0.930 . S
C657 C656 1.376 1_455 S
C657 C658 1.388 . S
C658 H645 0.930 . S
C658 C657 1.388 . S
C658 C659 1.390 . S
C659 C658 1.390 . S
C659 C660 1.394 1_455 S
C659 C665 1.465 . S
C660 C655 1.399 . S
C660 C659 1.394 1_655 S
C660 C661 1.516 . S
C661 C660 1.516 . S
C661 C662 1.502 . S
C661 C663 1.561 1_655 S
C661 C664 1.526 1_655 S
C662 H646 0.959 . S
C662 H647 0.959 . S
C662 H648 0.961 . S
C662 C661 1.502 . S
C663 H649 0.960 . S
C663 H650 0.961 . S
C663 H651 0.959 . S
C663 C661 1.561 1_455 S
C664 C661 1.526 1_455 S
C664 C665 1.396 . S
C664 C669 1.389 1_455 S
C665 C659 1.465 . S
C665 C664 1.396 . S
C665 C666 1.399 . S
C666 H652 0.929 . S
C666 C665 1.399 . S
C666 C667 1.385 . S
C667 H653 0.931 . S
C667 C666 1.385 . S
C667 C668 1.389 . S
C668 C667 1.389 . S
C668 C669 1.386 1_455 S
C669 H654 0.931 . S
C669 C664 1.389 1_655 S
C669 C668 1.386 1_655 S
H670 C682 0.930 . S
H671 C684 0.930 . S
H672 C685 0.930 . S
H673 C689 0.959 . S
H674 C689 0.959 . S
H675 C689 0.961 . S
H676 C690 0.960 . S
H677 C690 0.961 . S
H678 C690 0.959 1_655 S
H679 C693 0.929 . S
H680 C694 0.931 . S
H681 C696 0.930 . S
C682 H670 0.930 . S
C682 C683 1.399 1_455 S
C682 C687 1.399 . S
C683 C682 1.399 1_655 S
C683 C684 1.376 . S
C684 H671 0.930 . S
C684 C683 1.376 . S
C684 C685 1.388 . S
C685 H672 0.930 . S
C685 C684 1.388 . S
C685 C686 1.390 . S
C686 C685 1.390 . S
C686 C687 1.394 1_655 S
C686 C692 1.465 . S
C687 C682 1.399 . S
C687 C686 1.394 1_455 S
C687 C688 1.516 . S
C688 C687 1.516 . S
C688 C689 1.502 . S
C688 C690 1.561 . S
C688 C691 1.526 . S
C689 H673 0.959 . S
C689 H674 0.959 . S
C689 H675 0.961 . S
C689 C688 1.502 . S
C690 H676 0.960 . S
C690 H677 0.961 . S
C690 H678 0.959 1_455 S
C690 C688 1.561 . S
C691 C688 1.526 . S
C691 C692 1.396 1_455 S
C691 C696 1.390 . S
C692 C686 1.465 . S
C692 C691 1.396 1_655 S
C692 C693 1.399 . S
C693 H679 0.929 . S
C693 C692 1.399 . S
C693 C694 1.385 . S
C694 H680 0.931 . S
C694 C693 1.385 . S
C694 C695 1.389 1_655 S
C695 C694 1.389 1_455 S
C695 C696 1.387 . S
C696 H681 0.930 . S
C696 C691 1.390 . S
C696 C695 1.387 . S
H697 C709 0.930 . S
H698 C711 0.930 . S
H699 C712 0.930 . S
H700 C716 0.959 . S
H701 C716 0.959 . S
H702 C716 0.961 . S
H703 C717 0.960 . S
H704 C717 0.961 . S
H705 C717 0.959 . S
H706 C720 0.929 . S
H707 C721 0.931 . S
H708 C723 0.930 . S
C709 H697 0.930 . S
C709 C710 1.399 1_455 S
C709 C714 1.399 . S
C710 C709 1.399 1_655 S
C710 C711 1.376 . S
C711 H698 0.930 . S
C711 C710 1.376 . S
C711 C712 1.388 . S
C712 H699 0.930 . S
C712 C711 1.388 . S
C712 C713 1.390 . S
C713 C712 1.390 . S
C713 C714 1.394 1_655 S
C713 C719 1.465 . S
C714 C709 1.399 . S
C714 C713 1.394 1_455 S
C714 C715 1.516 . S
C715 C714 1.516 . S
C715 C716 1.502 . S
C715 C717 1.561 1_455 S
C715 C718 1.526 . S
C716 H700 0.959 . S
C716 H701 0.959 . S
C716 H702 0.961 . S
C716 C715 1.502 . S
C717 H703 0.960 . S
C717 H704 0.961 . S
C717 H705 0.959 . S
C717 C715 1.561 1_655 S
C718 C715 1.526 . S
C718 C719 1.396 1_455 S
C718 C723 1.390 . S
C719 C713 1.465 . S
C719 C718 1.396 1_655 S
C719 C720 1.399 . S
C720 H706 0.929 . S
C720 C719 1.399 . S
C720 C721 1.385 . S
C721 H707 0.931 . S
C721 C720 1.385 . S
C721 C722 1.389 1_655 S
C722 C721 1.389 1_455 S
C722 C723 1.387 . S
C723 H708 0.930 . S
C723 C718 1.390 . S
C723 C722 1.387 . S
H724 C736 0.930 . S
H725 C738 0.930 . S
H726 C739 0.930 . S
H727 C743 0.959 . S
H728 C743 0.959 . S
H729 C743 0.961 . S
H730 C744 0.960 . S
H731 C744 0.961 . S
H732 C744 0.959 . S
H733 C747 0.929 . S
H734 C748 0.931 . S
H735 C750 0.930 . S
C736 H724 0.930 . S
C736 C737 1.399 . S
C736 C741 1.399 . S
C737 C736 1.399 . S
C737 C738 1.376 . S
C738 H725 0.930 . S
C738 C737 1.376 . S
C738 C739 1.388 . S
C739 H726 0.930 . S
C739 C738 1.388 . S
C739 C740 1.390 . S
C740 C739 1.390 . S
C740 C741 1.394 . S
C740 C746 1.465 . S
C741 C736 1.399 . S
C741 C740 1.394 . S
C741 C742 1.516 . S
C742 C741 1.516 . S
C742 C743 1.502 . S
C742 C744 1.561 . S
C742 C745 1.526 . S
C743 H727 0.959 . S
C743 H728 0.959 . S
C743 H729 0.961 . S
C743 C742 1.502 . S
C744 H730 0.960 . S
C744 H731 0.961 . S
C744 H732 0.959 . S
C744 C742 1.561 . S
C745 C742 1.526 . S
C745 C746 1.396 . S
C745 C750 1.390 . S
C746 C740 1.465 . S
C746 C745 1.396 . S
C746 C747 1.399 . S
C747 H733 0.929 . S
C747 C746 1.399 . S
C747 C748 1.385 . S
C748 H734 0.931 . S
C748 C747 1.385 . S
C748 C749 1.389 . S
C749 C748 1.389 . S
C749 C750 1.387 . S
C750 H735 0.930 . S
C750 C745 1.390 . S
C750 C749 1.387 . S
H751 C763 0.930 . S
H752 C765 0.930 . S
H753 C766 0.930 . S
H754 C770 0.959 . S
H755 C770 0.959 . S
H756 C770 0.961 . S
H757 C771 0.960 . S
H758 C771 0.961 . S
H759 C771 0.959 . S
H760 C774 0.929 . S
H761 C775 0.931 . S
H762 C777 0.930 . S
C763 H751 0.930 . S
C763 C764 1.399 . S
C763 C768 1.399 . S
C764 C763 1.399 . S
C764 C765 1.376 . S
C765 H752 0.930 . S
C765 C764 1.376 . S
C765 C766 1.388 . S
C766 H753 0.930 . S
C766 C765 1.388 . S
C766 C767 1.390 . S
C767 C766 1.390 . S
C767 C768 1.394 . S
C767 C773 1.465 . S
C768 C763 1.399 . S
C768 C767 1.394 . S
C768 C769 1.516 . S
C769 C768 1.516 . S
C769 C770 1.502 . S
C769 C771 1.561 . S
C769 C772 1.526 . S
C770 H754 0.959 . S
C770 H755 0.959 . S
C770 H756 0.961 . S
C770 C769 1.502 . S
C771 H757 0.960 . S
C771 H758 0.961 . S
C771 H759 0.959 . S
C771 C769 1.561 . S
C772 C769 1.526 . S
C772 C773 1.396 . S
C772 C777 1.390 . S
C773 C767 1.465 . S
C773 C772 1.396 . S
C773 C774 1.399 . S
C774 H760 0.929 . S
C774 C773 1.399 . S
C774 C775 1.385 . S
C775 H761 0.931 . S
C775 C774 1.385 . S
C775 C776 1.389 . S
C776 C775 1.389 . S
C776 C777 1.387 . S
C777 H762 0.930 . S
C777 C772 1.390 . S
C777 C776 1.387 . S
H778 C790 0.930 . S
H779 C792 0.930 . S
H780 C793 0.930 . S
H781 C797 0.959 . S
H782 C797 0.959 . S
H783 C797 0.961 . S
H784 C798 0.960 . S
H785 C798 0.961 . S
H786 C798 0.959 . S
H787 C801 0.929 . S
H788 C802 0.931 . S
H789 C804 0.930 . S
C790 H778 0.930 . S
C790 C791 1.399 . S
C790 C795 1.399 . S
C791 C790 1.399 . S
C791 C792 1.376 . S
C792 H779 0.930 . S
C792 C791 1.376 . S
C792 C793 1.388 . S
C793 H780 0.930 . S
C793 C792 1.388 . S
C793 C794 1.390 . S
C794 C793 1.390 . S
C794 C795 1.394 . S
C794 C800 1.465 . S
C795 C790 1.399 . S
C795 C794 1.394 . S
C795 C796 1.516 . S
C796 C795 1.516 . S
C796 C797 1.502 . S
C796 C798 1.561 . S
C796 C799 1.526 . S
C797 H781 0.959 . S
C797 H782 0.959 . S
C797 H783 0.961 . S
C797 C796 1.502 . S
C798 H784 0.960 . S
C798 H785 0.961 . S
C798 H786 0.959 . S
C798 C796 1.561 . S
C799 C796 1.526 . S
C799 C800 1.396 . S
C799 C804 1.390 . S
C800 C794 1.465 . S
C800 C799 1.396 . S
C800 C801 1.399 . S
C801 H787 0.929 . S
C801 C800 1.399 . S
C801 C802 1.385 . S
C802 H788 0.931 . S
C802 C801 1.385 . S
C802 C803 1.389 . S
C803 C802 1.389 . S
C803 C804 1.387 . S
C804 H789 0.930 . S
C804 C799 1.390 . S
C804 C803 1.387 . S
H805 C817 0.930 . S
H806 C819 0.930 . S
H807 C820 0.930 . S
H808 C824 0.959 . S
H809 C824 0.959 . S
H810 C824 0.961 . S
H811 C825 0.960 . S
H812 C825 0.961 . S
H813 C825 0.959 . S
H814 C828 0.929 . S
H815 C829 0.931 . S
H816 C831 0.930 . S
C817 H805 0.930 . S
C817 C818 1.399 . S
C817 C822 1.399 . S
C818 C817 1.399 . S
C818 C819 1.376 . S
C819 H806 0.930 . S
C819 C818 1.376 . S
C819 C820 1.388 . S
C820 H807 0.930 . S
C820 C819 1.388 . S
C820 C821 1.390 . S
C821 C820 1.390 . S
C821 C822 1.394 . S
C821 C827 1.465 . S
C822 C817 1.399 . S
C822 C821 1.394 . S
C822 C823 1.516 . S
C823 C822 1.516 . S
C823 C824 1.502 . S
C823 C825 1.561 . S
C823 C826 1.526 . S
C824 H808 0.959 . S
C824 H809 0.959 . S
C824 H810 0.961 . S
C824 C823 1.502 . S
C825 H811 0.960 . S
C825 H812 0.961 . S
C825 H813 0.959 . S
C825 C823 1.561 . S
C826 C823 1.526 . S
C826 C827 1.396 . S
C826 C831 1.390 . S
C827 C821 1.465 . S
C827 C826 1.396 . S
C827 C828 1.399 . S
C828 H814 0.929 . S
C828 C827 1.399 . S
C828 C829 1.385 . S
C829 H815 0.931 . S
C829 C828 1.385 . S
C829 C830 1.389 . S
C830 C829 1.389 . S
C830 C831 1.387 . S
C831 H816 0.930 . S
C831 C826 1.390 . S
C831 C830 1.387 . S
C197 C16 1.306 . S
C209 C17 1.300 . S
C224 C40 1.293 . S
C236 C39 1.304 . S
C251 C63 1.293 . S
C263 C62 1.305 . S
C278 C85 1.283 . S
C290 C86 1.312 . S
C305 C108 1.314 . S
C317 C109 1.292 . S
C332 C131 1.285 . S
C344 C132 1.310 . S
C359 C155 1.288 . S
C371 C154 1.311 . S
C386 C178 1.287 . S
C398 C177 1.313 . S
C413 C44 1.531 . S
C425 C21 1.468 . S
C440 C90 1.462 . S
C452 C67 1.542 . S
C467 C113 1.486 . S
C479 C136 1.525 . S
C494 C159 1.516 . S
C506 C182 1.481 . S
C521 C18 1.447 . S
C533 C133 1.441 . S
C548 C110 1.481 . S
C560 C41 1.469 . S
C575 C64 1.478 . S
C587 C179 1.486 . S
C602 C87 1.478 . S
C614 C156 1.486 . S
C629 C20 1.412 . S
C641 C89 1.434 . S
C656 C43 1.465 . S
C668 C66 1.448 . S
C683 C42 1.402 . S
C695 C65 1.449 . S
C710 C88 1.406 . S
C722 C19 1.441 . S
C737 C112 1.412 . S
C749 C181 1.432 . S
C764 C135 1.466 . S
C776 C158 1.445 . S
C791 C134 1.462 . S
C803 C157 1.405 . S
C818 C180 1.459 . S
C830 C111 1.421 . S
