# Generated by pormake.
# Topology mdf, (4)-cn, num edge types: 1
# Building blocks:
#     Node 0, Type 0, BuildingBlock: AZAVOO_clean_sbu_0, # of connection points: 4
#     Node 1, Type 0, BuildingBlock: AZAVOO_clean_sbu_0, # of connection points: 4
#     Node 2, Type 0, BuildingBlock: AZAVOO_clean_sbu_0, # of connection points: 4
#     Node 3, Type 0, BuildingBlock: AZAVOO_clean_sbu_0, # of connection points: 4
#     Node 4, Type 0, BuildingBlock: AZAVOO_clean_sbu_0, # of connection points: 4
#     Node 5, Type 0, BuildingBlock: AZAVOO_clean_sbu_0, # of connection points: 4
#     Node 6, Type 0, BuildingBlock: AZAVOO_clean_sbu_0, # of connection points: 4
#     Node 7, Type 0, BuildingBlock: AZAVOO_clean_sbu_0, # of connection points: 4
#     Edge 8, Type (0, 0), BuildingBlock: EZIPEK_clean_linker_0, # of connection points: 2
#     Edge 9, Type (0, 0), BuildingBlock: EZIPEK_clean_linker_0, # of connection points: 2
#     Edge 10, Type (0, 0), BuildingBlock: EZIPEK_clean_linker_0, # of connection points: 2
#     Edge 11, Type (0, 0), BuildingBlock: EZIPEK_clean_linker_0, # of connection points: 2
#     Edge 12, Type (0, 0), BuildingBlock: EZIPEK_clean_linker_0, # of connection points: 2
#     Edge 13, Type (0, 0), BuildingBlock: EZIPEK_clean_linker_0, # of connection points: 2
#     Edge 14, Type (0, 0), BuildingBlock: EZIPEK_clean_linker_0, # of connection points: 2
#     Edge 15, Type (0, 0), BuildingBlock: EZIPEK_clean_linker_0, # of connection points: 2
#     Edge 16, Type (0, 0), BuildingBlock: EZIPEK_clean_linker_0, # of connection points: 2
#     Edge 17, Type (0, 0), BuildingBlock: EZIPEK_clean_linker_0, # of connection points: 2
#     Edge 18, Type (0, 0), BuildingBlock: EZIPEK_clean_linker_0, # of connection points: 2
#     Edge 19, Type (0, 0), BuildingBlock: EZIPEK_clean_linker_0, # of connection points: 2
#     Edge 20, Type (0, 0), BuildingBlock: EZIPEK_clean_linker_0, # of connection points: 2
#     Edge 21, Type (0, 0), BuildingBlock: EZIPEK_clean_linker_0, # of connection points: 2
#     Edge 22, Type (0, 0), BuildingBlock: EZIPEK_clean_linker_0, # of connection points: 2
#     Edge 23, Type (0, 0), BuildingBlock: EZIPEK_clean_linker_0, # of connection points: 2
# Relax obj value: 0.036
# Max RMSD: 0.046
# Mean RMSD: 0.046
data_MOF--net-mdf--node1-AZAVOO_clean_sbu_0--edge1-EZIPEK_clean_linker_0
_symmetry_space_group_name_H-M    P1
_symmetry_Int_Tables_number       1
_symmetry_cell_setting            triclinic
loop_
_symmetry_equiv_pos_as_xyz
'x, y, z'
_cell_length_a     25.111879
_cell_length_b     25.048342
_cell_length_c     11.751112
_cell_angle_alpha  89.576057
_cell_angle_beta   89.829404
_cell_angle_gamma 96.342315
loop_
_atom_site_label
_atom_site_type_symbol
_atom_site_fract_x
_atom_site_fract_y
_atom_site_fract_z
_atom_type_partial_charge
Mg0 Mg 0.28386 0.54564 0.48313 0.0
O1 O 0.23046 0.48723 0.37557 0.0
O2 O 0.28145 0.44432 0.25995 0.0
Mg3 Mg 0.36761 0.48521 0.27841 0.0
C4 C 0.23583 0.45114 0.30236 0.0
C5 C 0.20943 0.59186 0.65004 0.0
O6 O 0.25602 0.59912 0.70147 0.0
O7 O 0.29134 0.60799 0.33896 0.0
O8 O 0.34501 0.56841 0.22118 0.0
O9 O 0.29702 0.47877 0.60196 0.0
O10 O 0.35075 0.50392 0.45672 0.0
C11 C 0.31888 0.6076 0.2475 0.0
C12 C 0.33804 0.47113 0.53989 0.0
O13 O 0.20737 0.57202 0.55124 0.0
Mg14 Mg 0.4323 0.74845 0.62176 0.0
O15 O 0.4997 0.81124 0.67903 0.0
O16 O 0.55435 0.77038 0.79207 0.0
Mg17 Mg 0.52156 0.68164 0.80915 0.0
C18 C 0.54157 0.81207 0.74029 0.0
C19 C 0.41428 0.84324 0.46487 0.0
O20 O 0.46386 0.83433 0.44379 0.0
O21 O 0.39057 0.75001 0.79678 0.0
O22 O 0.44543 0.70313 0.897 0.0
O23 O 0.48271 0.72448 0.47628 0.0
O24 O 0.48033 0.6863 0.64644 0.0
C25 C 0.403 0.7267 0.88875 0.0
C26 C 0.4998 0.68985 0.54526 0.0
O27 O 0.38898 0.81494 0.54243 0.0
Mg28 Mg 0.20783 0.90649 0.91702 0.0
O29 O 0.28435 0.95648 0.84925 0.0
O30 O 0.25709 0.00393 0.70338 0.0
Mg31 Mg 0.1694 0.97841 0.66259 0.0
C32 C 0.29354 0.99262 0.77217 0.0
C33 C 0.28216 0.8348 0.10524 0.0
O34 O 0.2751 0.78214 0.10677 0.0
O35 O 0.21241 0.84379 0.77955 0.0
O36 O 0.17931 0.88895 0.63652 0.0
O37 O 0.1848 0.9758 0.01978 0.0
O38 O 0.16081 0.95984 0.84231 0.0
C39 C 0.19499 0.84606 0.67815 0.0
C40 C 0.16025 0.99008 0.92967 0.0
O41 O 0.25528 0.86045 0.03722 0.0
Mg42 Mg 0.04924 0.77948 0.06543 0.0
O43 O 0.97436 0.72386 0.11349 0.0
O44 O 0.92895 0.76499 0.24449 0.0
Mg45 Mg 0.97259 0.84897 0.27429 0.0
C46 C 0.9349 0.72471 0.18146 0.0
C47 C 0.05235 0.67656 0.91425 0.0
O48 O 0.00046 0.67895 0.91202 0.0
O49 O 0.08602 0.75872 0.23665 0.0
O50 O 0.04151 0.80868 0.35176 0.0
O51 O 0.00603 0.82154 0.92965 0.0
O52 O 0.01088 0.84551 0.10935 0.0
C53 C 0.07721 0.77684 0.3355 0.0
C54 C 0.99239 0.85265 0.00956 0.0
O55 O 0.08204 0.71027 0.97329 0.0
Mg56 Mg 0.79164 0.08563 0.86352 0.0
O57 O 0.72277 0.02088 0.8205 0.0
O58 O 0.75492 0.96428 0.69817 0.0
Mg59 Mg 0.84278 0.99288 0.661 0.0
C60 C 0.71694 0.97898 0.75874 0.0
C61 C 0.70997 0.11157 0.04081 0.0
O62 O 0.71767 0.06199 0.06698 0.0
O63 O 0.78143 0.12756 0.69272 0.0
O64 O 0.81749 0.06966 0.5805 0.0
O65 O 0.81974 0.03396 0.00231 0.0
O66 O 0.84897 0.03348 0.82509 0.0
C67 C 0.79639 0.11335 0.59472 0.0
C68 C 0.84926 0.01428 0.9267 0.0
O69 O 0.73276 0.13376 0.95323 0.0
Mg70 Mg 0.97212 0.23399 0.00997 0.0
O71 O 0.03523 0.28793 0.10511 0.0
O72 O 0.07221 0.23917 0.23697 0.0
Mg73 Mg 0.03241 0.15242 0.22337 0.0
C74 C 0.06867 0.28348 0.18474 0.0
C75 C 0.90978 0.30443 0.85608 0.0
O76 O 0.893 0.25618 0.81887 0.0
O77 O 0.91247 0.2312 0.1587 0.0
O78 O 0.95004 0.17559 0.27658 0.0
O79 O 0.03491 0.21186 0.88782 0.0
O80 O 0.0109 0.16646 0.04528 0.0
C81 C 0.9122 0.20352 0.25051 0.0
C82 C 0.04104 0.17245 0.9567 0.0
O83 O 0.94358 0.30949 0.93606 0.0
Mg84 Mg 0.7038 0.45704 0.42998 0.0
O85 O 0.76664 0.51807 0.34461 0.0
O86 O 0.72495 0.56407 0.21486 0.0
Mg87 Mg 0.63868 0.52792 0.20191 0.0
C88 C 0.76678 0.55539 0.27001 0.0
C89 C 0.79809 0.44844 0.59841 0.0
O90 O 0.79168 0.49927 0.6128 0.0
O91 O 0.70682 0.39846 0.28172 0.0
O92 O 0.66449 0.44628 0.15673 0.0
O93 O 0.67728 0.52034 0.54645 0.0
O94 O 0.64247 0.50149 0.37783 0.0
C95 C 0.68655 0.40433 0.18355 0.0
C96 C 0.64348 0.52993 0.46796 0.0
O97 O 0.76953 0.42073 0.52635 0.0
Mg98 Mg 0.55526 0.25038 0.61013 0.0
O99 O 0.50371 0.1733 0.67813 0.0
O100 O 0.44621 0.198 0.80948 0.0
Mg101 Mg 0.48583 0.27689 0.87143 0.0
C102 C 0.4626 0.16323 0.74296 0.0
C103 C 0.5894 0.2124 0.37896 0.0
O104 O 0.55816 0.24918 0.35203 0.0
O105 O 0.62305 0.2532 0.74376 0.0
O106 O 0.56 0.23155 0.86781 0.0
O107 O 0.48429 0.27475 0.51573 0.0
O108 O 0.50441 0.29979 0.69126 0.0
C109 C 0.60791 0.25118 0.84712 0.0
C110 C 0.47426 0.30251 0.60401 0.0
O111 O 0.5977 0.20193 0.48302 0.0
C112 C 0.31612 0.68804 0.97545 0.0
C113 C 0.36584 0.72007 0.98793 0.0
C114 C 0.36458 0.69772 0.19189 0.0
C115 C 0.32424 0.65496 0.17034 0.0
N116 N 0.25439 0.61584 0.04551 0.0
N117 N 0.43337 0.76315 0.11126 0.0
C118 C 0.29729 0.65267 0.06466 0.0
C119 C 0.38789 0.7285 0.09837 0.0
N120 N 0.2876 0.68939 0.87718 0.0
N121 N 0.38101 0.70795 0.30091 0.0
H122 H 0.44977 0.78707 0.044 0.0
H123 H 0.45537 0.76719 0.18622 0.0
H124 H 0.36456 0.68546 0.37007 0.0
H125 H 0.40679 0.74152 0.32364 0.0
H126 H 0.25044 0.66682 0.8672 0.0
H127 H 0.29874 0.71622 0.81096 0.0
H128 H 0.23816 0.58838 0.10701 0.0
H129 H 0.23816 0.58838 0.10701 0.0
C130 C 0.32893 0.87646 0.39645 0.0
C131 C 0.38395 0.87203 0.37879 0.0
C132 C 0.3714 0.87547 0.17328 0.0
C133 C 0.3158 0.86336 0.19278 0.0
N134 N 0.23958 0.87056 0.31345 0.0
N135 N 0.45874 0.90198 0.25732 0.0
C136 C 0.29375 0.87095 0.30161 0.0
C137 C 0.40592 0.8831 0.26881 0.0
N138 N 0.31132 0.88579 0.50343 0.0
N139 N 0.39071 0.87773 0.06439 0.0
H140 H 0.48246 0.91289 0.32801 0.0
H141 H 0.47722 0.91258 0.1798 0.0
H142 H 0.36534 0.87412 0.99398 0.0
H143 H 0.43128 0.88242 0.04371 0.0
H144 H 0.27228 0.89253 0.52273 0.0
H145 H 0.33773 0.89161 0.57185 0.0
H146 H 0.22005 0.87418 0.39063 0.0
H147 H 0.21384 0.86749 0.24365 0.0
C148 C 0.16562 0.7604 0.42975 0.0
C149 C 0.10932 0.76361 0.43714 0.0
C150 C 0.11833 0.78068 0.64132 0.0
C151 C 0.17317 0.79586 0.62248 0.0
N152 N 0.25232 0.77785 0.52547 0.0
N153 N 0.03082 0.75855 0.5581 0.0
C154 C 0.19811 0.77808 0.5247 0.0
C155 C 0.08525 0.76655 0.54668 0.0
N156 N 0.18746 0.74137 0.33376 0.0
N157 N 0.09827 0.78291 0.74902 0.0
H158 H 0.00618 0.74338 0.49231 0.0
H159 H 0.00992 0.76637 0.63153 0.0
H160 H 0.12307 0.79306 0.81845 0.0
H161 H 0.05868 0.77085 0.77125 0.0
H162 H 0.22835 0.74106 0.3203 0.0
H163 H 0.16423 0.72155 0.27055 0.0
H164 H 0.27481 0.76557 0.45803 0.0
H165 H 0.27439 0.78867 0.59863 0.0
C166 C 0.11541 0.60688 0.8967 0.0
C167 C 0.07793 0.6373 0.84459 0.0
C168 C 0.11777 0.62562 0.65795 0.0
C169 C 0.15968 0.6012 0.71206 0.0
N170 N 0.18299 0.54606 0.86964 0.0
N171 N 0.02726 0.65019 0.67435 0.0
C172 C 0.15375 0.58465 0.82776 0.0
C173 C 0.07338 0.63791 0.72447 0.0
N174 N 0.11395 0.59944 0.012 0.0
N175 N 0.12139 0.63991 0.54546 0.0
H176 H 0.99377 0.65851 0.72033 0.0
H177 H 0.01965 0.64555 0.58776 0.0
H178 H 0.15538 0.63774 0.49572 0.0
H179 H 0.09191 0.6577 0.50208 0.0
H180 H 0.1427 0.58146 0.05749 0.0
H181 H 0.08353 0.61206 0.06261 0.0
H182 H 0.17725 0.52916 0.95048 0.0
H183 H 0.2088 0.52646 0.81893 0.0
C184 C 0.81766 0.20408 0.49903 0.0
C185 C 0.79589 0.14942 0.4934 0.0
C186 C 0.83111 0.14203 0.30233 0.0
C187 C 0.86208 0.1923 0.31679 0.0
N188 N 0.86914 0.27942 0.40191 0.0
N189 N 0.75671 0.08 0.37143 0.0
C190 C 0.84992 0.22642 0.40636 0.0
C191 C 0.7934 0.12362 0.3872 0.0
N192 N 0.8094 0.23332 0.59362 0.0
N193 N 0.83991 0.11073 0.21113 0.0
H194 H 0.72927 0.06681 0.43537 0.0
H195 H 0.75033 0.06089 0.29346 0.0
H196 H 0.86511 0.12441 0.14376 0.0
H197 H 0.82384 0.07073 0.20542 0.0
H198 H 0.82896 0.27134 0.60906 0.0
H199 H 0.78123 0.21974 0.65556 0.0
H200 H 0.85722 0.30772 0.45803 0.0
H201 H 0.89319 0.2956 0.33474 0.0
C202 C 0.86023 0.38598 0.85444 0.0
C203 C 0.8929 0.35213 0.79723 0.0
C204 C 0.87832 0.39836 0.61749 0.0
C205 C 0.83595 0.42214 0.67014 0.0
N206 N 0.78527 0.4383 0.83957 0.0
N207 N 0.94146 0.3315 0.62921 0.0
C208 C 0.82728 0.417 0.78937 0.0
C209 C 0.9049 0.36035 0.68001 0.0
N210 N 0.86082 0.38887 0.97038 0.0
N211 N 0.89328 0.41294 0.50867 0.0
H212 H 0.96397 0.30611 0.67497 0.0
H213 H 0.94931 0.33191 0.54225 0.0
H214 H 0.92626 0.40026 0.4672 0.0
H215 H 0.87483 0.44144 0.46234 0.0
H216 H 0.84257 0.41769 0.01524 0.0
H217 H 0.88352 0.36589 0.02135 0.0
H218 H 0.77339 0.43006 0.92349 0.0
H219 H 0.75954 0.46092 0.7955 0.0
C220 C 0.70746 0.32648 0.05595 0.0
C221 C 0.67064 0.35689 0.11181 0.0
C222 C 0.60273 0.32792 0.97587 0.0
C223 C 0.63444 0.29089 0.92847 0.0
N224 N 0.71959 0.2554 0.91884 0.0
N225 N 0.57751 0.36685 0.14992 0.0
C226 C 0.68793 0.28985 0.96765 0.0
C227 C 0.61616 0.34981 0.08143 0.0
N228 N 0.75995 0.33262 0.08732 0.0
N229 N 0.56478 0.34877 0.91268 0.0
H230 H 0.58583 0.38176 0.2315 0.0
H231 H 0.53693 0.36058 0.1289 0.0
H232 H 0.56298 0.34238 0.82547 0.0
H233 H 0.54265 0.37867 0.94288 0.0
H234 H 0.78927 0.31227 0.04988 0.0
H235 H 0.77408 0.35863 0.15213 0.0
H236 H 0.75884 0.25181 0.94291 0.0
H237 H 0.70583 0.22939 0.85376 0.0
C238 C 0.70216 0.1868 0.17804 0.0
C239 C 0.67757 0.14161 0.1178 0.0
C240 C 0.59516 0.14288 0.22955 0.0
C241 C 0.61946 0.18828 0.28859 0.0
N242 N 0.69232 0.2581 0.31382 0.0
N243 N 0.5984 0.0833 0.06826 0.0
C244 C 0.67185 0.21185 0.26067 0.0
C245 C 0.62333 0.12154 0.13848 0.0
N246 N 0.75492 0.2045 0.15887 0.0
N247 N 0.54578 0.11933 0.26299 0.0
H248 H 0.61767 0.06767 -0.00073 0.0
H249 H 0.55763 0.07027 0.07167 0.0
H250 H 0.52356 0.13465 0.32788 0.0
H251 H 0.52817 0.08274 0.2322 0.0
H252 H 0.77654 0.23509 0.20386 0.0
H253 H 0.7788 0.18708 0.10028 0.0
H254 H 0.72893 0.27976 0.29438 0.0
H255 H 0.67132 0.27702 0.3756 0.0
C256 C 0.35117 0.37293 0.53979 0.0
C257 C 0.37063 0.42689 0.5653 0.0
C258 C 0.45789 0.39924 0.61617 0.0
C259 C 0.4376 0.34473 0.59626 0.0
N260 N 0.3625 0.27844 0.56185 0.0
N261 N 0.43751 0.49003 0.65201 0.0
C262 C 0.38345 0.33117 0.56464 0.0
C263 C 0.42241 0.43952 0.6117 0.0
N264 N 0.30265 0.36183 0.48816 0.0
N265 N 0.5116 0.41314 0.63223 0.0
H266 H 0.41278 0.52085 0.64849 0.0
H267 H 0.47252 0.50025 0.69786 0.0
H268 H 0.54015 0.38614 0.62598 0.0
H269 H 0.52908 0.45254 0.64059 0.0
H270 H 0.28884 0.32439 0.45519 0.0
H271 H 0.27775 0.39134 0.47109 0.0
H272 H 0.3219 0.26607 0.55066 0.0
H273 H 0.38498 0.24693 0.58106 0.0
C274 C 0.64052 0.93166 0.65155 0.0
C275 C 0.66483 0.9448 0.75777 0.0
C276 C 0.5961 0.88278 0.85278 0.0
C277 C 0.57921 0.86196 0.74529 0.0
N278 N 0.58975 0.86354 0.54002 0.0
N279 N 0.66776 0.93024 0.96148 0.0
C280 C 0.60194 0.88603 0.6437 0.0
C281 C 0.64274 0.92034 0.85945 0.0
N282 N 0.65399 0.96325 0.5583 0.0
N283 N 0.567 0.86725 0.94819 0.0
H284 H 0.70201 0.95722 0.97127 0.0
H285 H 0.65683 0.90855 0.03547 0.0
H286 H 0.53204 0.84058 0.94551 0.0
H287 H 0.57429 0.88498 0.02736 0.0
H288 H 0.63382 0.95871 0.481 0.0
H289 H 0.6814 0.99767 0.56222 0.0
H290 H 0.60995 0.87618 0.46535 0.0
H291 H 0.56301 0.82921 0.52895 0.0
C292 C 0.12712 0.1322 0.98736 0.0
C293 C 0.07738 0.13166 0.93071 0.0
C294 C 0.08213 0.03903 0.8715 0.0
C295 C 0.133 0.03977 0.9254 0.0
N296 N 0.21049 0.09261 0.00383 0.0
N297 N 0.01442 0.09081 0.7943 0.0
C298 C 0.15752 0.08799 0.97465 0.0
C299 C 0.05762 0.0873 0.86343 0.0
N300 N 0.14508 0.17476 0.05406 0.0
N301 N 0.05504 0.99173 0.8358 0.0
H302 H 0.99457 0.12517 0.78886 0.0
H303 H 0.00148 0.06178 0.73451 0.0
H304 H 0.06803 0.95423 0.85022 0.0
H305 H 0.01609 0.98852 0.80447 0.0
H306 H 0.17751 0.17461 0.1091 0.0
H307 H 0.12566 0.20935 0.0579 0.0
H308 H 0.23151 0.12835 0.03123 0.0
H309 H 0.23513 0.06259 0.98835 0.0
C310 C 0.89283 0.65261 0.30952 0.0
C311 C 0.8982 0.6749 0.19872 0.0
C312 C 0.83085 0.60438 0.13183 0.0
C313 C 0.81658 0.59128 0.24664 0.0
N314 N 0.83162 0.6092 0.44772 0.0
N315 N 0.87102 0.67267 0.0017 0.0
C316 C 0.84723 0.61654 0.33673 0.0
C317 C 0.86732 0.65063 0.10839 0.0
N318 N 0.93238 0.6645 0.38754 0.0
N319 N 0.81063 0.57187 0.04573 0.0
H320 H 0.89756 0.70627 0.98112 0.0
H321 H 0.84503 0.65985 0.93597 0.0
H322 H 0.78583 0.53624 0.06067 0.0
H323 H 0.82325 0.57702 0.96142 0.0
H324 H 0.93236 0.64616 0.46748 0.0
H325 H 0.96839 0.68697 0.36537 0.0
H326 H 0.85029 0.63146 0.51394 0.0
H327 H 0.79724 0.58516 0.4733 0.0
C328 C 0.36644 0.04336 0.65459 0.0
C329 C 0.34681 0.02577 0.76419 0.0
C330 C 0.42156 0.08311 0.84944 0.0
C331 C 0.43175 0.10943 0.74347 0.0
N332 N 0.41151 0.11645 0.54349 0.0
N333 N 0.35453 0.0356 0.97022 0.0
C334 C 0.40442 0.08947 0.64491 0.0
C335 C 0.37467 0.04639 0.86321 0.0
N336 N 0.34865 0.01624 0.55931 0.0
N337 N 0.45629 0.09427 0.93761 0.0
H338 H 0.31881 0.01205 0.98808 0.0
H339 H 0.37083 0.05492 0.04244 0.0
H340 H 0.49108 0.12099 0.929 0.0
H341 H 0.45362 0.07281 0.01414 0.0
H342 H 0.36583 0.0238 0.47914 0.0
H343 H 0.32033 0.98279 0.56231 0.0
H344 H 0.38727 0.10734 0.47289 0.0
H345 H 0.43884 0.15046 0.53166 0.0
C346 C 0.867 0.91798 0.93033 0.0
C347 C 0.88384 0.97225 0.95649 0.0
C348 C 0.96966 0.94749 0.02717 0.0
C349 C 0.95497 0.8938 0.99002 0.0
N350 N 0.88997 0.8275 0.90496 0.0
N351 N 0.9497 0.04033 0.02965 0.0
C352 C 0.90382 0.87898 0.94064 0.0
C353 C 0.93452 0.98736 0.00635 0.0
N354 N 0.8147 0.90339 0.90194 0.0
N355 N 0.01791 0.9607 0.07959 0.0
H356 H 0.92482 0.07048 0.01657 0.0
H357 H 0.98751 0.05546 0.05782 0.0
H358 H 0.04849 0.93579 0.08091 0.0
H359 H 0.02816 0.99632 0.12311 0.0
H360 H 0.79777 0.86389 0.892 0.0
H361 H 0.78652 0.93086 0.89934 0.0
H362 H 0.85685 0.816 0.85422 0.0
H363 H 0.91266 0.79611 0.92199 0.0
C364 C 0.14259 0.35478 0.12751 0.0
C365 C 0.10722 0.33061 0.21253 0.0
C366 C 0.15405 0.38731 0.35769 0.0
C367 C 0.18822 0.41326 0.27165 0.0
N368 N 0.20329 0.43245 0.07193 0.0
N369 N 0.06953 0.33441 0.40056 0.0
C370 C 0.17888 0.40026 0.15561 0.0
C371 C 0.10992 0.35021 0.32517 0.0
N372 N 0.14347 0.33306 0.02119 0.0
N373 N 0.16485 0.39529 0.4707 0.0
H374 H 0.03623 0.30776 0.37911 0.0
H375 H 0.06626 0.35196 0.48004 0.0
H376 H 0.19623 0.42157 0.50182 0.0
H377 H 0.14506 0.37201 0.53501 0.0
H378 H 0.17279 0.34541 0.96075 0.0
H379 H 0.11793 0.29969 0.99593 0.0
H380 H 0.19398 0.42778 0.98597 0.0
H381 H 0.22832 0.4675 0.08923 0.0
C382 C 0.59358 0.66485 0.53127 0.0
C383 C 0.53821 0.65285 0.50858 0.0
C384 C 0.5518 0.56098 0.45658 0.0
C385 C 0.60762 0.57292 0.47851 0.0
N386 N 0.68326 0.6398 0.50524 0.0
N387 N 0.46639 0.59519 0.42345 0.0
C388 C 0.62907 0.62592 0.50715 0.0
C389 C 0.518 0.60275 0.46211 0.0
N390 N 0.61212 0.71333 0.57676 0.0
N391 N 0.53043 0.50925 0.43672 0.0
H392 H 0.44022 0.62467 0.4285 0.0
H393 H 0.45092 0.56183 0.37697 0.0
H394 H 0.55275 0.47661 0.43726 0.0
H395 H 0.48953 0.49744 0.42991 0.0
H396 H 0.65064 0.72219 0.60898 0.0
H397 H 0.5878 0.74403 0.58677 0.0
H398 H 0.70122 0.679 0.51463 0.0
H399 H 0.71029 0.61301 0.48254 0.0
loop_
_geom_bond_atom_site_label_1
_geom_bond_atom_site_label_2
_geom_bond_distance
_geom_bond_site_symmetry_2
_ccdc_geom_bond_type
Mg0 O1 2.028 . S
Mg0 O7 1.986 . S
Mg0 O9 2.114 . S
Mg0 O10 2.251 . S
Mg0 O13 2.010 . S
O1 Mg0 2.028 . S
O1 C4 1.250 . S
O2 Mg3 2.028 . S
O2 C4 1.248 . S
Mg3 O2 2.028 . S
Mg3 O8 2.032 . S
Mg3 O10 2.079 . S
C4 O1 1.250 . S
C4 O2 1.248 . S
C5 O6 1.264 . S
C5 O13 1.249 . S
O6 C5 1.264 . S
O7 Mg0 1.986 . S
O7 C11 1.246 . S
O8 Mg3 2.032 . S
O8 C11 1.259 . S
O9 Mg0 2.114 . S
O9 C12 1.252 . S
O10 Mg0 2.251 . S
O10 Mg3 2.079 . S
O10 C12 1.273 . S
C11 O7 1.246 . S
C11 O8 1.259 . S
C12 O9 1.252 . S
C12 O10 1.273 . S
O13 Mg0 2.010 . S
O13 C5 1.249 . S
Mg14 O15 2.028 . S
Mg14 O21 1.986 . S
Mg14 O23 2.114 . S
Mg14 O24 2.251 . S
Mg14 O27 2.010 . S
O15 Mg14 2.028 . S
O15 C18 1.250 . S
O16 Mg17 2.028 . S
O16 C18 1.248 . S
Mg17 O16 2.028 . S
Mg17 O22 2.032 . S
Mg17 O24 2.079 . S
C18 O15 1.250 . S
C18 O16 1.248 . S
C19 O20 1.264 . S
C19 O27 1.249 . S
O20 C19 1.264 . S
O21 Mg14 1.986 . S
O21 C25 1.246 . S
O22 Mg17 2.032 . S
O22 C25 1.259 . S
O23 Mg14 2.114 . S
O23 C26 1.252 . S
O24 Mg14 2.251 . S
O24 Mg17 2.079 . S
O24 C26 1.273 . S
C25 O21 1.246 . S
C25 O22 1.259 . S
C26 O23 1.252 . S
C26 O24 1.273 . S
O27 Mg14 2.010 . S
O27 C19 1.249 . S
Mg28 O29 2.028 . S
Mg28 O35 1.986 . S
Mg28 O37 2.114 1_566 S
Mg28 O38 2.251 1_565 S
Mg28 O41 2.010 1_556 S
O29 Mg28 2.028 . S
O29 C32 1.250 1_565 S
O30 Mg31 2.028 . S
O30 C32 1.248 . S
Mg31 O30 2.028 . S
Mg31 O36 2.032 1_545 S
Mg31 O38 2.079 . S
C32 O29 1.250 1_545 S
C32 O30 1.248 . S
C33 O34 1.264 . S
C33 O41 1.249 . S
O34 C33 1.264 . S
O35 Mg28 1.986 . S
O35 C39 1.246 . S
O36 Mg31 2.032 1_565 S
O36 C39 1.259 . S
O37 Mg28 2.114 1_544 S
O37 C40 1.252 1_554 S
O38 Mg28 2.251 1_545 S
O38 Mg31 2.079 . S
O38 C40 1.273 . S
C39 O35 1.246 . S
C39 O36 1.259 . S
C40 O37 1.252 1_556 S
C40 O38 1.273 . S
O41 Mg28 2.010 1_554 S
O41 C33 1.249 . S
Mg42 O43 2.028 . S
Mg42 O49 1.986 . S
Mg42 O51 2.114 1_454 S
Mg42 O52 2.251 1_455 S
Mg42 O55 2.010 1_554 S
O43 Mg42 2.028 . S
O43 C46 1.250 1_455 S
O44 Mg45 2.028 . S
O44 C46 1.248 . S
Mg45 O44 2.028 . S
Mg45 O50 2.032 1_655 S
Mg45 O52 2.079 . S
C46 O43 1.250 1_655 S
C46 O44 1.248 . S
C47 O48 1.264 . S
C47 O55 1.249 . S
O48 C47 1.264 . S
O49 Mg42 1.986 . S
O49 C53 1.246 . S
O50 Mg45 2.032 1_455 S
O50 C53 1.259 . S
O51 Mg42 2.114 1_656 S
O51 C54 1.252 1_556 S
O52 Mg42 2.251 1_655 S
O52 Mg45 2.079 . S
O52 C54 1.273 . S
C53 O49 1.246 . S
C53 O50 1.259 . S
C54 O51 1.252 1_554 S
C54 O52 1.273 . S
O55 Mg42 2.010 1_556 S
O55 C47 1.249 . S
Mg56 O57 2.028 . S
Mg56 O63 1.986 . S
Mg56 O65 2.114 1_546 S
Mg56 O66 2.251 1_545 S
Mg56 O69 2.010 1_556 S
O57 Mg56 2.028 . S
O57 C60 1.250 1_545 S
O58 Mg59 2.028 . S
O58 C60 1.248 . S
Mg59 O58 2.028 . S
Mg59 O64 2.032 1_565 S
Mg59 O66 2.079 . S
C60 O57 1.250 1_565 S
C60 O58 1.248 . S
C61 O62 1.264 . S
C61 O69 1.249 . S
O62 C61 1.264 . S
O63 Mg56 1.986 . S
O63 C67 1.246 . S
O64 Mg59 2.032 1_545 S
O64 C67 1.259 . S
O65 Mg56 2.114 1_564 S
O65 C68 1.252 1_554 S
O66 Mg56 2.251 1_565 S
O66 Mg59 2.079 . S
O66 C68 1.273 . S
C67 O63 1.246 . S
C67 O64 1.259 . S
C68 O65 1.252 1_556 S
C68 O66 1.273 . S
O69 Mg56 2.010 1_554 S
O69 C61 1.249 . S
Mg70 O71 2.028 . S
Mg70 O77 1.986 . S
Mg70 O79 2.114 1_654 S
Mg70 O80 2.251 1_655 S
Mg70 O83 2.010 1_554 S
O71 Mg70 2.028 . S
O71 C74 1.250 1_655 S
O72 Mg73 2.028 . S
O72 C74 1.248 . S
Mg73 O72 2.028 . S
Mg73 O78 2.032 1_455 S
Mg73 O80 2.079 . S
C74 O71 1.250 1_455 S
C74 O72 1.248 . S
C75 O76 1.264 . S
C75 O83 1.249 . S
O76 C75 1.264 . S
O77 Mg70 1.986 . S
O77 C81 1.246 . S
O78 Mg73 2.032 1_655 S
O78 C81 1.259 . S
O79 Mg70 2.114 1_456 S
O79 C82 1.252 1_556 S
O80 Mg70 2.251 1_455 S
O80 Mg73 2.079 . S
O80 C82 1.273 . S
C81 O77 1.246 . S
C81 O78 1.259 . S
C82 O79 1.252 1_554 S
C82 O80 1.273 . S
O83 Mg70 2.010 1_556 S
O83 C75 1.249 . S
Mg84 O85 2.028 . S
Mg84 O91 1.986 . S
Mg84 O93 2.114 . S
Mg84 O94 2.251 . S
Mg84 O97 2.010 . S
O85 Mg84 2.028 . S
O85 C88 1.250 . S
O86 Mg87 2.028 . S
O86 C88 1.248 . S
Mg87 O86 2.028 . S
Mg87 O92 2.032 . S
Mg87 O94 2.079 . S
C88 O85 1.250 . S
C88 O86 1.248 . S
C89 O90 1.264 . S
C89 O97 1.249 . S
O90 C89 1.264 . S
O91 Mg84 1.986 . S
O91 C95 1.246 . S
O92 Mg87 2.032 . S
O92 C95 1.259 . S
O93 Mg84 2.114 . S
O93 C96 1.252 . S
O94 Mg84 2.251 . S
O94 Mg87 2.079 . S
O94 C96 1.273 . S
C95 O91 1.246 . S
C95 O92 1.259 . S
C96 O93 1.252 . S
C96 O94 1.273 . S
O97 Mg84 2.010 . S
O97 C89 1.249 . S
Mg98 O99 2.028 . S
Mg98 O105 1.986 . S
Mg98 O107 2.114 . S
Mg98 O108 2.251 . S
Mg98 O111 2.010 . S
O99 Mg98 2.028 . S
O99 C102 1.250 . S
O100 Mg101 2.028 . S
O100 C102 1.248 . S
Mg101 O100 2.028 . S
Mg101 O106 2.032 . S
Mg101 O108 2.079 . S
C102 O99 1.250 . S
C102 O100 1.248 . S
C103 O104 1.264 . S
C103 O111 1.249 . S
O104 C103 1.264 . S
O105 Mg98 1.986 . S
O105 C109 1.246 . S
O106 Mg101 2.032 . S
O106 C109 1.259 . S
O107 Mg98 2.114 . S
O107 C110 1.252 . S
O108 Mg98 2.251 . S
O108 Mg101 2.079 . S
O108 C110 1.273 . S
C109 O105 1.246 . S
C109 O106 1.259 . S
C110 O107 1.252 . S
C110 O108 1.273 . S
O111 Mg98 2.010 . S
O111 C103 1.249 . S
C112 C113 1.363 . S
C112 C118 1.379 . S
C112 N120 1.356 . S
C113 C112 1.363 . S
C113 C119 1.363 1_556 S
C114 C115 1.363 . S
C114 C119 1.379 . S
C114 N121 1.356 . S
C115 C114 1.363 . S
C115 C118 1.363 1_554 S
N116 C118 1.356 1_554 S
N116 H128 0.984 1_554 S
N116 H129 0.985 . S
N117 C119 1.356 1_556 S
N117 H122 0.984 . S
N117 H123 0.985 1_556 S
C118 C112 1.379 . S
C118 C115 1.363 1_556 S
C118 N116 1.356 1_556 S
C119 C113 1.363 1_554 S
C119 C114 1.379 . S
C119 N117 1.356 1_554 S
N120 C112 1.356 . S
N120 H126 0.984 . S
N120 H127 0.984 . S
N121 C114 1.356 . S
N121 H124 0.984 . S
N121 H125 0.985 . S
H122 N117 0.984 . S
H123 N117 0.985 1_554 S
H124 N121 0.984 . S
H125 N121 0.985 . S
H126 N120 0.984 . S
H127 N120 0.984 . S
H128 N116 0.984 1_556 S
H129 N116 0.985 . S
C130 C131 1.363 . S
C130 C136 1.379 . S
C130 N138 1.356 . S
C131 C130 1.363 . S
C131 C137 1.363 . S
C132 C133 1.363 . S
C132 C137 1.379 . S
C132 N139 1.356 . S
C133 C132 1.363 . S
C133 C136 1.363 . S
N134 C136 1.356 . S
N134 H146 0.984 . S
N134 H147 0.985 . S
N135 C137 1.356 . S
N135 H140 0.984 . S
N135 H141 0.985 . S
C136 C130 1.379 . S
C136 C133 1.363 . S
C136 N134 1.356 . S
C137 C131 1.363 . S
C137 C132 1.379 . S
C137 N135 1.356 . S
N138 C130 1.356 . S
N138 H144 0.984 . S
N138 H145 0.984 . S
N139 C132 1.356 . S
N139 H142 0.984 1_554 S
N139 H143 0.985 1_554 S
H140 N135 0.984 . S
H141 N135 0.985 . S
H142 N139 0.984 1_556 S
H143 N139 0.985 1_556 S
H144 N138 0.984 . S
H145 N138 0.984 . S
H146 N134 0.984 . S
H147 N134 0.985 . S
C148 C149 1.363 . S
C148 C154 1.379 . S
C148 N156 1.356 . S
C149 C148 1.363 . S
C149 C155 1.363 . S
C150 C151 1.363 . S
C150 C155 1.379 . S
C150 N157 1.356 . S
C151 C150 1.363 . S
C151 C154 1.363 . S
N152 C154 1.356 . S
N152 H164 0.984 . S
N152 H165 0.985 . S
N153 C155 1.356 . S
N153 H158 0.984 . S
N153 H159 0.985 . S
C154 C148 1.379 . S
C154 C151 1.363 . S
C154 N152 1.356 . S
C155 C149 1.363 . S
C155 C150 1.379 . S
C155 N153 1.356 . S
N156 C148 1.356 . S
N156 H162 0.984 . S
N156 H163 0.984 . S
N157 C150 1.356 . S
N157 H160 0.984 . S
N157 H161 0.985 . S
H158 N153 0.984 . S
H159 N153 0.985 . S
H160 N157 0.984 . S
H161 N157 0.985 . S
H162 N156 0.984 . S
H163 N156 0.984 . S
H164 N152 0.984 . S
H165 N152 0.985 . S
C166 C167 1.363 . S
C166 C172 1.379 . S
C166 N174 1.356 . S
C167 C166 1.363 . S
C167 C173 1.363 . S
C168 C169 1.363 . S
C168 C173 1.379 . S
C168 N175 1.356 . S
C169 C168 1.363 . S
C169 C172 1.363 . S
N170 C172 1.356 . S
N170 H182 0.984 . S
N170 H183 0.985 . S
N171 C173 1.356 . S
N171 H176 0.984 . S
N171 H177 0.985 . S
C172 C166 1.379 . S
C172 C169 1.363 . S
C172 N170 1.356 . S
C173 C167 1.363 . S
C173 C168 1.379 . S
C173 N171 1.356 . S
N174 C166 1.356 . S
N174 H180 0.984 1_556 S
N174 H181 0.984 1_556 S
N175 C168 1.356 . S
N175 H178 0.984 . S
N175 H179 0.985 . S
H176 N171 0.984 . S
H177 N171 0.985 . S
H178 N175 0.984 . S
H179 N175 0.985 . S
H180 N174 0.984 1_554 S
H181 N174 0.984 1_554 S
H182 N170 0.984 . S
H183 N170 0.985 . S
C184 C185 1.363 . S
C184 C190 1.379 . S
C184 N192 1.356 . S
C185 C184 1.363 . S
C185 C191 1.363 . S
C186 C187 1.363 . S
C186 C191 1.379 . S
C186 N193 1.356 . S
C187 C186 1.363 . S
C187 C190 1.363 . S
N188 C190 1.356 . S
N188 H200 0.984 . S
N188 H201 0.985 . S
N189 C191 1.356 . S
N189 H194 0.984 . S
N189 H195 0.985 . S
C190 C184 1.379 . S
C190 C187 1.363 . S
C190 N188 1.356 . S
C191 C185 1.363 . S
C191 C186 1.379 . S
C191 N189 1.356 . S
N192 C184 1.356 . S
N192 H198 0.984 . S
N192 H199 0.984 . S
N193 C186 1.356 . S
N193 H196 0.984 . S
N193 H197 0.985 . S
H194 N189 0.984 . S
H195 N189 0.985 . S
H196 N193 0.984 . S
H197 N193 0.985 . S
H198 N192 0.984 . S
H199 N192 0.984 . S
H200 N188 0.984 . S
H201 N188 0.985 . S
C202 C203 1.363 . S
C202 C208 1.379 . S
C202 N210 1.356 . S
C203 C202 1.363 . S
C203 C209 1.363 . S
C204 C205 1.363 . S
C204 C209 1.379 . S
C204 N211 1.356 . S
C205 C204 1.363 . S
C205 C208 1.363 . S
N206 C208 1.356 . S
N206 H218 0.984 . S
N206 H219 0.985 . S
N207 C209 1.356 . S
N207 H212 0.984 . S
N207 H213 0.985 . S
C208 C202 1.379 . S
C208 C205 1.363 . S
C208 N206 1.356 . S
C209 C203 1.363 . S
C209 C204 1.379 . S
C209 N207 1.356 . S
N210 C202 1.356 . S
N210 H216 0.984 . S
N210 H217 0.984 1_556 S
N211 C204 1.356 . S
N211 H214 0.984 . S
N211 H215 0.985 . S
H212 N207 0.984 . S
H213 N207 0.985 . S
H214 N211 0.984 . S
H215 N211 0.985 . S
H216 N210 0.984 . S
H217 N210 0.984 1_554 S
H218 N206 0.984 . S
H219 N206 0.985 . S
C220 C221 1.363 . S
C220 C226 1.379 1_554 S
C220 N228 1.356 . S
C221 C220 1.363 . S
C221 C227 1.363 . S
C222 C223 1.363 . S
C222 C227 1.379 1_556 S
C222 N229 1.356 . S
C223 C222 1.363 . S
C223 C226 1.363 . S
N224 C226 1.356 . S
N224 H236 0.984 . S
N224 H237 0.985 . S
N225 C227 1.356 . S
N225 H230 0.984 . S
N225 H231 0.985 . S
C226 C220 1.379 1_556 S
C226 C223 1.363 . S
C226 N224 1.356 . S
C227 C221 1.363 . S
C227 C222 1.379 1_554 S
C227 N225 1.356 . S
N228 C220 1.356 . S
N228 H234 0.984 . S
N228 H235 0.984 . S
N229 C222 1.356 . S
N229 H232 0.984 . S
N229 H233 0.985 . S
H230 N225 0.984 . S
H231 N225 0.985 . S
H232 N229 0.984 . S
H233 N229 0.985 . S
H234 N228 0.984 . S
H235 N228 0.984 . S
H236 N224 0.984 . S
H237 N224 0.985 . S
C238 C239 1.363 . S
C238 C244 1.379 . S
C238 N246 1.356 . S
C239 C238 1.363 . S
C239 C245 1.363 . S
C240 C241 1.363 . S
C240 C245 1.379 . S
C240 N247 1.356 . S
C241 C240 1.363 . S
C241 C244 1.363 . S
N242 C244 1.356 . S
N242 H254 0.984 . S
N242 H255 0.985 . S
N243 C245 1.356 . S
N243 H248 0.984 . S
N243 H249 0.985 . S
C244 C238 1.379 . S
C244 C241 1.363 . S
C244 N242 1.356 . S
C245 C239 1.363 . S
C245 C240 1.379 . S
C245 N243 1.356 . S
N246 C238 1.356 . S
N246 H252 0.984 . S
N246 H253 0.984 . S
N247 C240 1.356 . S
N247 H250 0.984 . S
N247 H251 0.985 . S
H248 N243 0.984 . S
H249 N243 0.985 . S
H250 N247 0.984 . S
H251 N247 0.985 . S
H252 N246 0.984 . S
H253 N246 0.984 . S
H254 N242 0.984 . S
H255 N242 0.985 . S
C256 C257 1.363 . S
C256 C262 1.379 . S
C256 N264 1.356 . S
C257 C256 1.363 . S
C257 C263 1.363 . S
C258 C259 1.363 . S
C258 C263 1.379 . S
C258 N265 1.356 . S
C259 C258 1.363 . S
C259 C262 1.363 . S
N260 C262 1.356 . S
N260 H272 0.984 . S
N260 H273 0.985 . S
N261 C263 1.356 . S
N261 H266 0.984 . S
N261 H267 0.985 . S
C262 C256 1.379 . S
C262 C259 1.363 . S
C262 N260 1.356 . S
C263 C257 1.363 . S
C263 C258 1.379 . S
C263 N261 1.356 . S
N264 C256 1.356 . S
N264 H270 0.984 . S
N264 H271 0.984 . S
N265 C258 1.356 . S
N265 H268 0.984 . S
N265 H269 0.985 . S
H266 N261 0.984 . S
H267 N261 0.985 . S
H268 N265 0.984 . S
H269 N265 0.985 . S
H270 N264 0.984 . S
H271 N264 0.984 . S
H272 N260 0.984 . S
H273 N260 0.985 . S
C274 C275 1.363 . S
C274 C280 1.379 . S
C274 N282 1.356 . S
C275 C274 1.363 . S
C275 C281 1.363 . S
C276 C277 1.363 . S
C276 C281 1.379 . S
C276 N283 1.356 . S
C277 C276 1.363 . S
C277 C280 1.363 . S
N278 C280 1.356 . S
N278 H290 0.984 . S
N278 H291 0.985 . S
N279 C281 1.356 . S
N279 H284 0.984 . S
N279 H285 0.985 . S
C280 C274 1.379 . S
C280 C277 1.363 . S
C280 N278 1.356 . S
C281 C275 1.363 . S
C281 C276 1.379 . S
C281 N279 1.356 . S
N282 C274 1.356 . S
N282 H288 0.984 1_565 S
N282 H289 0.984 1_565 S
N283 C276 1.356 . S
N283 H286 0.984 . S
N283 H287 0.985 . S
H284 N279 0.984 . S
H285 N279 0.985 . S
H286 N283 0.984 . S
H287 N283 0.985 . S
H288 N282 0.984 1_545 S
H289 N282 0.984 1_545 S
H290 N278 0.984 . S
H291 N278 0.985 . S
C292 C293 1.363 . S
C292 C298 1.379 . S
C292 N300 1.356 . S
C293 C292 1.363 . S
C293 C299 1.363 1_554 S
C294 C295 1.363 . S
C294 C299 1.379 . S
C294 N301 1.356 . S
C295 C294 1.363 . S
C295 C298 1.363 1_556 S
N296 C298 1.356 . S
N296 H308 0.984 . S
N296 H309 0.985 . S
N297 C299 1.356 . S
N297 H302 0.984 . S
N297 H303 0.985 . S
C298 C292 1.379 . S
C298 C295 1.363 1_554 S
C298 N296 1.356 . S
C299 C293 1.363 1_556 S
C299 C294 1.379 . S
C299 N297 1.356 . S
N300 C292 1.356 . S
N300 H306 0.984 . S
N300 H307 0.984 . S
N301 C294 1.356 . S
N301 H304 0.984 . S
N301 H305 0.985 . S
H302 N297 0.984 . S
H303 N297 0.985 . S
H304 N301 0.984 . S
H305 N301 0.985 . S
H306 N300 0.984 . S
H307 N300 0.984 . S
H308 N296 0.984 . S
H309 N296 0.985 . S
C310 C311 1.363 . S
C310 C316 1.379 . S
C310 N318 1.356 . S
C311 C310 1.363 . S
C311 C317 1.363 . S
C312 C313 1.363 . S
C312 C317 1.379 . S
C312 N319 1.356 . S
C313 C312 1.363 . S
C313 C316 1.363 . S
N314 C316 1.356 . S
N314 H326 0.984 . S
N314 H327 0.985 . S
N315 C317 1.356 . S
N315 H320 0.984 . S
N315 H321 0.985 1_554 S
C316 C310 1.379 . S
C316 C313 1.363 . S
C316 N314 1.356 . S
C317 C311 1.363 . S
C317 C312 1.379 . S
C317 N315 1.356 . S
N318 C310 1.356 . S
N318 H324 0.984 . S
N318 H325 0.984 . S
N319 C312 1.356 . S
N319 H322 0.984 . S
N319 H323 0.985 . S
H320 N315 0.984 . S
H321 N315 0.985 1_556 S
H322 N319 0.984 . S
H323 N319 0.985 . S
H324 N318 0.984 . S
H325 N318 0.984 . S
H326 N314 0.984 . S
H327 N314 0.985 . S
C328 C329 1.363 . S
C328 C334 1.379 . S
C328 N336 1.356 . S
C329 C328 1.363 . S
C329 C335 1.363 . S
C330 C331 1.363 . S
C330 C335 1.379 . S
C330 N337 1.356 . S
C331 C330 1.363 . S
C331 C334 1.363 . S
N332 C334 1.356 . S
N332 H344 0.984 . S
N332 H345 0.985 . S
N333 C335 1.356 . S
N333 H338 0.984 . S
N333 H339 0.985 . S
C334 C328 1.379 . S
C334 C331 1.363 . S
C334 N332 1.356 . S
C335 C329 1.363 . S
C335 C330 1.379 . S
C335 N333 1.356 . S
N336 C328 1.356 . S
N336 H342 0.984 1_545 S
N336 H343 0.984 1_545 S
N337 C330 1.356 . S
N337 H340 0.984 . S
N337 H341 0.985 . S
H338 N333 0.984 . S
H339 N333 0.985 . S
H340 N337 0.984 . S
H341 N337 0.985 . S
H342 N336 0.984 1_565 S
H343 N336 0.984 1_565 S
H344 N332 0.984 . S
H345 N332 0.985 . S
C346 C347 1.363 . S
C346 C352 1.379 . S
C346 N354 1.356 . S
C347 C346 1.363 . S
C347 C353 1.363 1_556 S
C348 C349 1.363 . S
C348 C353 1.379 . S
C348 N355 1.356 . S
C349 C348 1.363 . S
C349 C352 1.363 1_554 S
N350 C352 1.356 . S
N350 H362 0.984 . S
N350 H363 0.985 . S
N351 C353 1.356 . S
N351 H356 0.984 1_565 S
N351 H357 0.985 1_565 S
C352 C346 1.379 . S
C352 C349 1.363 1_556 S
C352 N350 1.356 . S
C353 C347 1.363 1_554 S
C353 C348 1.379 . S
C353 N351 1.356 . S
N354 C346 1.356 . S
N354 H360 0.984 . S
N354 H361 0.984 . S
N355 C348 1.356 . S
N355 H358 0.984 1_655 S
N355 H359 0.985 . S
H356 N351 0.984 1_545 S
H357 N351 0.985 1_545 S
H358 N355 0.984 1_455 S
H359 N355 0.985 . S
H360 N354 0.984 . S
H361 N354 0.984 . S
H362 N350 0.984 . S
H363 N350 0.985 . S
C364 C365 1.363 . S
C364 C370 1.379 . S
C364 N372 1.356 . S
C365 C364 1.363 . S
C365 C371 1.363 . S
C366 C367 1.363 . S
C366 C371 1.379 . S
C366 N373 1.356 . S
C367 C366 1.363 . S
C367 C370 1.363 . S
N368 C370 1.356 . S
N368 H380 0.984 . S
N368 H381 0.985 . S
N369 C371 1.356 . S
N369 H374 0.984 1_455 S
N369 H375 0.985 . S
C370 C364 1.379 . S
C370 C367 1.363 . S
C370 N368 1.356 . S
C371 C365 1.363 . S
C371 C366 1.379 . S
C371 N369 1.356 . S
N372 C364 1.356 . S
N372 H378 0.984 1_554 S
N372 H379 0.984 . S
N373 C366 1.356 . S
N373 H376 0.984 . S
N373 H377 0.985 . S
H374 N369 0.984 1_655 S
H375 N369 0.985 . S
H376 N373 0.984 . S
H377 N373 0.985 . S
H378 N372 0.984 1_556 S
H379 N372 0.984 . S
H380 N368 0.984 . S
H381 N368 0.985 . S
C382 C383 1.363 . S
C382 C388 1.379 . S
C382 N390 1.356 . S
C383 C382 1.363 . S
C383 C389 1.363 . S
C384 C385 1.363 . S
C384 C389 1.379 . S
C384 N391 1.356 . S
C385 C384 1.363 . S
C385 C388 1.363 . S
N386 C388 1.356 . S
N386 H398 0.984 . S
N386 H399 0.985 . S
N387 C389 1.356 . S
N387 H392 0.984 . S
N387 H393 0.985 . S
C388 C382 1.379 . S
C388 C385 1.363 . S
C388 N386 1.356 . S
C389 C383 1.363 . S
C389 C384 1.379 . S
C389 N387 1.356 . S
N390 C382 1.356 . S
N390 H396 0.984 . S
N390 H397 0.984 . S
N391 C384 1.356 . S
N391 H394 0.984 . S
N391 H395 0.985 . S
H392 N387 0.984 . S
H393 N387 0.985 . S
H394 N391 0.984 . S
H395 N391 0.985 . S
H396 N390 0.984 . S
H397 N390 0.984 . S
H398 N386 0.984 . S
H399 N386 0.985 . S
C113 C25 1.395 . S
C115 C11 1.395 . S
C131 C19 1.246 . S
C133 C33 1.246 . S
C149 C53 1.395 . S
C151 C39 1.395 . S
C167 C47 1.246 . S
C169 C5 1.246 . S
C185 C67 1.395 . S
C187 C81 1.395 . S
C203 C75 1.246 . S
C205 C89 1.246 . S
C221 C95 1.395 . S
C223 C109 1.395 . S
C239 C61 1.246 . S
C241 C103 1.246 . S
C257 C12 1.490 . S
C259 C110 1.490 . S
C275 C60 1.432 . S
C277 C18 1.432 . S
C293 C82 1.490 . S
C295 C40 1.490 . S
C311 C46 1.432 . S
C313 C88 1.432 . S
C329 C32 1.432 . S
C331 C102 1.432 . S
C347 C68 1.490 . S
C349 C54 1.490 . S
C365 C74 1.432 . S
C367 C4 1.432 . S
C383 C26 1.490 . S
C385 C96 1.490 . S
