# Generated by pormake.
# Topology ukh, (4)-cn, num edge types: 1
# Building blocks:
#     Node 0, Type 0, BuildingBlock: ICAMEG_clean_sbu_1, # of connection points: 4
#     Node 1, Type 0, BuildingBlock: ICAMEG_clean_sbu_1, # of connection points: 4
#     Node 2, Type 0, BuildingBlock: ICAMEG_clean_sbu_1, # of connection points: 4
#     Node 3, Type 0, BuildingBlock: ICAMEG_clean_sbu_1, # of connection points: 4
#     Node 4, Type 0, BuildingBlock: ICAMEG_clean_sbu_1, # of connection points: 4
#     Node 5, Type 0, BuildingBlock: ICAMEG_clean_sbu_1, # of connection points: 4
#     Node 6, Type 0, BuildingBlock: ICAMEG_clean_sbu_1, # of connection points: 4
#     Node 7, Type 0, BuildingBlock: ICAMEG_clean_sbu_1, # of connection points: 4
#     Node 8, Type 0, BuildingBlock: ICAMEG_clean_sbu_1, # of connection points: 4
#     Node 9, Type 0, BuildingBlock: ICAMEG_clean_sbu_1, # of connection points: 4
#     Node 10, Type 0, BuildingBlock: ICAMEG_clean_sbu_1, # of connection points: 4
#     Node 11, Type 0, BuildingBlock: ICAMEG_clean_sbu_1, # of connection points: 4
#     Edge 12, Type (0, 0), BuildingBlock: XUDNAN_clean_linker_2, # of connection points: 2
#     Edge 13, Type (0, 0), BuildingBlock: XUDNAN_clean_linker_2, # of connection points: 2
#     Edge 14, Type (0, 0), BuildingBlock: XUDNAN_clean_linker_2, # of connection points: 2
#     Edge 15, Type (0, 0), BuildingBlock: XUDNAN_clean_linker_2, # of connection points: 2
#     Edge 16, Type (0, 0), BuildingBlock: XUDNAN_clean_linker_2, # of connection points: 2
#     Edge 17, Type (0, 0), BuildingBlock: XUDNAN_clean_linker_2, # of connection points: 2
#     Edge 18, Type (0, 0), BuildingBlock: XUDNAN_clean_linker_2, # of connection points: 2
#     Edge 19, Type (0, 0), BuildingBlock: XUDNAN_clean_linker_2, # of connection points: 2
#     Edge 20, Type (0, 0), BuildingBlock: XUDNAN_clean_linker_2, # of connection points: 2
#     Edge 21, Type (0, 0), BuildingBlock: XUDNAN_clean_linker_2, # of connection points: 2
#     Edge 22, Type (0, 0), BuildingBlock: XUDNAN_clean_linker_2, # of connection points: 2
#     Edge 23, Type (0, 0), BuildingBlock: XUDNAN_clean_linker_2, # of connection points: 2
#     Edge 24, Type (0, 0), BuildingBlock: XUDNAN_clean_linker_2, # of connection points: 2
#     Edge 25, Type (0, 0), BuildingBlock: XUDNAN_clean_linker_2, # of connection points: 2
#     Edge 26, Type (0, 0), BuildingBlock: XUDNAN_clean_linker_2, # of connection points: 2
#     Edge 27, Type (0, 0), BuildingBlock: XUDNAN_clean_linker_2, # of connection points: 2
#     Edge 28, Type (0, 0), BuildingBlock: XUDNAN_clean_linker_2, # of connection points: 2
#     Edge 29, Type (0, 0), BuildingBlock: XUDNAN_clean_linker_2, # of connection points: 2
#     Edge 30, Type (0, 0), BuildingBlock: XUDNAN_clean_linker_2, # of connection points: 2
#     Edge 31, Type (0, 0), BuildingBlock: XUDNAN_clean_linker_2, # of connection points: 2
#     Edge 32, Type (0, 0), BuildingBlock: XUDNAN_clean_linker_2, # of connection points: 2
#     Edge 33, Type (0, 0), BuildingBlock: XUDNAN_clean_linker_2, # of connection points: 2
#     Edge 34, Type (0, 0), BuildingBlock: XUDNAN_clean_linker_2, # of connection points: 2
#     Edge 35, Type (0, 0), BuildingBlock: XUDNAN_clean_linker_2, # of connection points: 2
# Relax obj value: 0.030
# Max RMSD: 0.043
# Mean RMSD: 0.043
data_MOF--net-ukh--node1-ICAMEG_clean_sbu_1--edge1-XUDNAN_clean_linker_2
_symmetry_space_group_name_H-M    P1
_symmetry_Int_Tables_number       1
_symmetry_cell_setting            triclinic
loop_
_symmetry_equiv_pos_as_xyz
'x, y, z'
_cell_length_a     33.997093
_cell_length_b     33.96218
_cell_length_c     69.607648
_cell_angle_alpha  89.979778
_cell_angle_beta   90.029567
_cell_angle_gamma 119.93147
loop_
_atom_site_label
_atom_site_type_symbol
_atom_site_fract_x
_atom_site_fract_y
_atom_site_fract_z
_atom_type_partial_charge
Co0 Co 0.34673 0.24086 0.03641 0.0
Co1 Co 0.26807 0.19745 0.0724 0.0
O2 O 0.33083 0.23795 0.06373 0.0
C3 C 0.40337 0.33758 0.05149 0.0
O4 O 0.38599 0.32577 0.06876 0.0
C5 C 0.327 0.18976 0.1027 0.0
O6 O 0.35729 0.19562 0.08965 0.0
O7 O 0.27059 0.14463 0.06161 0.0
O8 O 0.30149 0.17387 0.03295 0.0
H9 H 0.10734 0.07016 0.06468 0.0
H10 H 0.42091 0.27326 0.06554 0.0
O11 O 0.39205 0.30805 0.03815 0.0
H12 H 0.42921 0.15305 0.02932 0.0
H13 H 0.45161 0.29049 0.97928 0.0
H14 H 0.29247 0.20367 1.0009 0.0
H15 H 0.37147 0.17401 0.02128 0.0
H16 H 0.43274 0.28579 0.01373 0.0
O17 O 0.29033 0.18867 0.09791 0.0
H18 H 0.18582 0.12244 0.0542 0.0
H19 H 0.2181 0.18463 0.10928 0.0
H20 H 0.30986 0.20703 0.96635 0.0
H21 H 0.47961 0.25397 0.07383 0.0
H22 H 0.38994 0.25071 0.95534 0.0
H23 H 0.484 0.19329 0.05571 0.0
O24 O 0.30002 0.2573 0.03008 0.0
H25 H 0.3277 0.34184 0.1105 0.0
H26 H 0.20236 0.23153 0.06973 0.0
H27 H 0.20015 0.29819 0.08231 0.0
H28 H 0.26308 0.3539 0.1029 0.0
H29 H 0.32884 0.27498 0.09742 0.0
H30 H 0.14013 0.13261 0.12041 0.0
H31 H 0.08404 0.07501 0.09801 0.0
O32 O 0.24239 0.20497 0.04752 0.0
C33 C 0.27918 0.14003 0.04418 0.0
C34 C 0.13143 0.09518 0.07456 0.0
C35 C 0.14985 0.1302 0.10585 0.0
N36 N 0.2065 0.15675 0.08107 0.0
C37 C 0.17591 0.12496 0.0687 0.0
C38 C 0.19401 0.15947 0.09947 0.0
C39 C 0.11839 0.0979 0.09327 0.0
C40 C 0.42293 0.24743 0.05736 0.0
N41 N 0.39298 0.22527 0.0428 0.0
C42 C 0.45611 0.23636 0.06222 0.0
C43 C 0.45849 0.20225 0.05208 0.0
C44 C 0.42774 0.17963 0.0373 0.0
C45 C 0.395 0.19159 0.03285 0.0
C46 C 0.4166 0.27126 0.9839 0.0
C47 C 0.32742 0.22247 0.99624 0.0
C48 C 0.4057 0.26857 0.00338 0.0
N49 N 0.36156 0.24414 0.00933 0.0
C50 C 0.33705 0.22438 0.97664 0.0
C51 C 0.38198 0.24893 0.97048 0.0
C52 C 0.25819 0.23532 0.03446 0.0
C53 C 0.30008 0.31783 0.10154 0.0
C54 C 0.23012 0.25579 0.07853 0.0
C55 C 0.22855 0.29338 0.08569 0.0
C56 C 0.26384 0.32459 0.09725 0.0
N57 N 0.26589 0.24946 0.08273 0.0
C58 C 0.3005 0.27983 0.09412 0.0
Co59 Co 0.09396 0.3387 0.37102 0.0
Co60 Co 0.05369 0.25015 0.40224 0.0
O61 O 0.07472 0.3143 0.39701 0.0
C62 C 0.03108 0.3713 0.38223 0.0
O63 O 1.00343 0.3296 0.388 0.0
C64 C 0.11195 0.29663 0.437 0.0
O65 O 0.14549 0.32601 0.42621 0.0
O66 O 0.11339 0.25949 0.39355 0.0
O67 O 0.11937 0.29668 0.36607 0.0
H68 H 0.03258 0.09611 0.38698 0.0
H69 H 0.12314 0.40164 0.40412 0.0
O70 O 0.06962 0.38146 0.37516 0.0
H71 H 0.26479 0.42824 0.37316 0.0
H72 H 0.15888 0.46232 0.32104 0.0
H73 H 0.08919 0.29774 0.3329 0.0
H74 H 0.19036 0.37208 0.35983 0.0
H75 H 0.13658 0.43145 0.35381 0.0
O76 O 0.07564 0.26546 0.42938 0.0
H77 H 0.05756 0.17665 0.38078 0.0
H78 H 0.00804 0.18772 0.43536 0.0
H79 H 0.1115 0.3272 0.29993 0.0
H80 H 0.19687 0.45842 0.41786 0.0
H81 H 0.14657 0.41006 0.29384 0.0
H82 H 0.26836 0.47194 0.40236 0.0
O83 O 0.03362 0.2924 0.36095 0.0
H84 H 0.95147 0.29165 0.43828 0.0
H85 H 0.95689 0.18133 0.39389 0.0
H86 H 0.88282 0.17165 0.40347 0.0
H87 H 0.87975 0.22698 0.42587 0.0
H88 H 0.02492 0.30055 0.42804 0.0
H89 H 0.98304 0.10741 0.44224 0.0
H90 H 0.99502 0.06093 0.4179 0.0
O91 O 0.02923 0.23175 0.37549 0.0
C92 C 0.13017 0.27286 0.37681 0.0
C93 C 0.02711 0.11598 0.39769 0.0
C94 C 0.99936 0.12234 0.42871 0.0
N95 N 0.03413 0.18691 0.40765 0.0
C96 C 0.04112 0.16163 0.39425 0.0
C97 C 0.01377 0.16788 0.42476 0.0
C98 C 1.00607 0.09628 0.41505 0.0
C99 C 0.15413 0.40761 0.39723 0.0
N100 N 0.15247 0.38376 0.38116 0.0
C101 C 0.19576 0.43968 0.4051 0.0
C102 C 0.23586 0.44721 0.39641 0.0
C103 C 0.23388 0.42269 0.38003 0.0
C104 C 0.19164 0.39086 0.37258 0.0
C105 C 0.14371 0.42617 0.32351 0.0
C106 C 0.10475 0.33386 0.33038 0.0
C107 C 0.13091 0.40848 0.34203 0.0
N108 N 0.11195 0.36288 0.34527 0.0
C109 C 0.11717 0.35033 0.31167 0.0
C110 C 0.13681 0.39682 0.30826 0.0
C111 C 0.01495 0.24964 0.36326 0.0
C112 C 0.95236 0.26726 0.42854 0.0
C113 C 0.95592 0.20578 0.40353 0.0
C114 C 0.91383 0.19999 0.40897 0.0
C115 C 0.91213 0.23102 0.42155 0.0
N116 N 0.99527 0.24158 0.41036 0.0
C117 C 0.99385 0.27201 0.42276 0.0
Co118 Co 0.76799 0.09686 0.71154 0.0
Co119 Co 0.81937 0.06497 0.74502 0.0
O120 O 0.77649 0.08522 0.73827 0.0
C121 C 0.66676 0.04589 0.70975 0.0
O122 O 0.66976 0.02269 0.69529 0.0
C123 C 0.83333 0.13475 0.77436 0.0
O124 O 0.83 0.15966 0.76076 0.0
O125 O 0.86862 0.12032 0.7327 0.0
O126 O 0.83404 0.11878 0.70498 0.0
H127 H 0.94765 0.03517 0.73215 0.0
H128 H 0.74021 0.13836 0.74233 0.0
O129 O 0.70273 0.07624 0.71801 0.0
H130 H 0.85332 0.26711 0.70383 0.0
H131 H 0.70568 0.15096 0.65843 0.0
H132 H 0.79515 0.07711 0.67398 0.0
H133 H 0.83152 0.18846 0.69516 0.0
H134 H 0.71876 0.13821 0.69217 0.0
O135 O 0.83133 0.09727 0.77029 0.0
H136 H 0.89186 0.05874 0.72393 0.0
H137 H 0.84096 0.03168 0.78102 0.0
H138 H 0.78313 0.08941 0.64006 0.0
H139 H 0.76046 0.21646 0.7513 0.0
H140 H 0.73807 0.12656 0.63211 0.0
H141 H 0.81756 0.28153 0.73204 0.0
O142 O 0.75127 0.03333 0.70515 0.0
H143 H 0.68085 0.97938 0.78633 0.0
H144 H 0.78884 0.96586 0.74339 0.0
H145 H 0.7257 0.89681 0.75769 0.0
H146 H 0.67124 0.90332 0.7794 0.0
H147 H 0.74424 0.04756 0.77155 0.0
H148 H 0.89661 0.00839 0.78992 0.0
H149 H 0.9503 0.0098 0.76536 0.0
O150 O 0.80806 0.03075 0.72023 0.0
C151 C 0.86986 0.13246 0.71525 0.0
C152 C 0.92436 0.0343 0.74297 0.0
C153 C 0.89575 0.01932 0.77539 0.0
N154 N 0.86296 0.04631 0.75193 0.0
C155 C 0.89261 0.0475 0.73838 0.0
C156 C 0.86441 0.0327 0.77028 0.0
C157 C 0.92585 0.0201 0.76161 0.0
C158 C 0.76465 0.16643 0.73372 0.0
N159 N 0.78453 0.15877 0.71821 0.0
C160 C 0.77618 0.21062 0.73894 0.0
C161 C 0.80828 0.24711 0.72815 0.0
C162 C 0.8284 0.23905 0.71234 0.0
C163 C 0.81606 0.19441 0.70756 0.0
C164 C 0.72541 0.13478 0.66171 0.0
C165 C 0.77564 0.09344 0.67063 0.0
C166 C 0.7329 0.12745 0.68078 0.0
N167 N 0.75785 0.10711 0.68502 0.0
C168 C 0.76889 0.10025 0.6514 0.0
C169 C 0.7436 0.12108 0.64695 0.0
C170 C 0.77507 0.01464 0.70838 0.0
C171 C 0.70444 0.97611 0.77695 0.0
C172 C 0.76522 0.969 0.75277 0.0
C173 C 0.72957 0.92977 0.76086 0.0
C174 C 0.69904 0.93345 0.77303 0.0
N175 N 0.77039 0.01077 0.75673 0.0
C176 C 0.74047 0.01461 0.76858 0.0
Co177 Co 0.68047 0.75972 0.03448 0.0
Co178 Co 0.74784 0.79406 0.07549 0.0
O179 O 0.68858 0.7607 0.06262 0.0
C180 C 0.63587 0.66198 0.04563 0.0
O181 O 0.66861 0.67248 0.05808 0.0
C182 C 0.68396 0.81015 0.10083 0.0
O183 O 0.64752 0.78326 0.09088 0.0
O184 O 0.76293 0.85006 0.06054 0.0
O185 O 0.72498 0.8264 0.03265 0.0
H186 H 0.91701 0.8969 0.07685 0.0
H187 H 0.59889 0.72098 0.05937 0.0
O188 O 0.63544 0.69274 0.03527 0.0
H189 H 0.5973 0.84595 0.02395 0.0
H190 H 0.58912 0.71298 0.97331 0.0
H191 H 0.74237 0.80073 1.00127 0.0
H192 H 0.65819 0.82786 0.01847 0.0
H193 H 0.60018 0.71526 0.00841 0.0
O194 O 0.72295 0.81652 0.09621 0.0
H195 H 0.84179 0.85295 0.06156 0.0
H196 H 0.77991 0.80802 0.11625 0.0
H197 H 0.73283 0.79973 0.96613 0.0
H198 H 0.53703 0.73758 0.06513 0.0
H199 H 0.65573 0.75559 0.95192 0.0
H200 H 0.53607 0.80056 0.04738 0.0
O201 O 0.72991 0.74557 0.02992 0.0
H202 H 0.64759 0.65421 0.11481 0.0
H203 H 0.79869 0.7467 0.08564 0.0
H204 H 0.7817 0.6776 0.10365 0.0
H205 H 0.70573 0.63088 0.1185 0.0
H206 H 0.66567 0.72285 0.09644 0.0
H207 H 0.85436 0.85184 0.13213 0.0
H208 H 0.9236 0.89652 0.11238 0.0
O209 O 0.77573 0.77345 0.05562 0.0
C210 C 0.75315 0.85766 0.04375 0.0
C211 C 0.8871 0.87742 0.0856 0.0
C212 C 0.85194 0.85219 0.11663 0.0
N213 N 0.80657 0.82763 0.08798 0.0
C214 C 0.84446 0.85235 0.07702 0.0
C215 C 0.80986 0.82754 0.10756 0.0
C216 C 0.89078 0.87724 0.10554 0.0
C217 C 0.59851 0.74821 0.0515 0.0
N218 N 0.6321 0.77338 0.03861 0.0
C219 C 0.56349 0.75756 0.05486 0.0
C220 C 0.563 0.79294 0.04492 0.0
C221 C 0.59737 0.81845 0.03179 0.0
C222 C 0.63188 0.80816 0.02881 0.0
C223 C 0.62287 0.7324 0.97933 0.0
C224 C 0.7087 0.78167 0.99521 0.0
C225 C 0.62935 0.73373 0.99919 0.0
N226 N 0.67185 0.75837 0.00689 0.0
C227 C 0.70351 0.78113 0.97529 0.0
C228 C 0.66026 0.75632 0.96734 0.0
C229 C 0.76552 0.75419 0.03927 0.0
C230 C 0.68099 0.67455 0.10859 0.0
C231 C 0.76555 0.72672 0.09207 0.0
C232 C 0.75615 0.68757 0.10227 0.0
C233 C 0.71356 0.66139 0.1106 0.0
N234 N 0.73361 0.73979 0.09028 0.0
C235 C 0.69164 0.71396 0.0983 0.0
Co236 Co 0.90965 0.66823 0.36657 0.0
Co237 Co 0.94206 0.75563 0.39816 0.0
O238 O 0.92263 0.69198 0.39289 0.0
C239 C 0.96157 0.61859 0.36592 0.0
O240 O 0.98346 0.64295 0.35084 0.0
C241 C 0.88622 0.70284 0.43302 0.0
O242 O 0.88012 0.66388 0.4266 0.0
O243 O 0.88608 0.74705 0.38564 0.0
O244 O 0.8864 0.71077 0.35877 0.0
H245 H 0.96918 0.91068 0.38038 0.0
H246 H 0.87094 0.60312 0.39896 0.0
O247 O 0.93166 0.62507 0.37414 0.0
H248 H 0.73911 0.58134 0.36096 0.0
H249 H 0.85347 0.5447 0.31652 0.0
H250 H 0.92664 0.70975 0.32787 0.0
H251 H 0.81684 0.63702 0.35081 0.0
H252 H 0.86797 0.57521 0.34953 0.0
O253 O 0.90902 0.73948 0.42347 0.0
H254 H 0.94666 0.83056 0.37455 0.0
H255 H 0.97492 0.81575 0.43273 0.0
H256 H 0.91262 0.68072 0.29462 0.0
H257 H 0.79377 0.5467 0.40951 0.0
H258 H 0.87579 0.59763 0.28879 0.0
H259 H 0.72716 0.5356 0.39048 0.0
O260 O 0.97239 0.71458 0.35901 0.0
H261 H 0.03402 0.71061 0.44028 0.0
H262 H 0.03966 0.82661 0.39601 0.0
H263 H 0.11044 0.83726 0.41043 0.0
H264 H 0.10795 0.77917 0.43286 0.0
H265 H 0.96428 0.70099 0.42536 0.0
H266 H 0.99714 0.89558 0.43925 0.0
H267 H 0.99462 0.9437 0.41293 0.0
O268 O 0.97577 0.77533 0.37317 0.0
C269 C 0.87276 0.73364 0.36855 0.0
C270 C 0.97055 0.8901 0.39196 0.0
C271 C 0.98618 0.8816 0.425 0.0
N272 N 0.95984 0.81858 0.40323 0.0
C273 C 0.95797 0.84473 0.38873 0.0
C274 C 0.97341 0.83637 0.42123 0.0
C275 C 0.98478 0.90859 0.41022 0.0
C276 C 0.84217 0.59837 0.39055 0.0
N277 N 0.84848 0.62348 0.37433 0.0
C278 C 0.79853 0.56642 0.39662 0.0
C279 C 0.76117 0.56024 0.38595 0.0
C280 C 0.76785 0.58592 0.36939 0.0
C281 C 0.81198 0.61756 0.36377 0.0
C282 C 0.86949 0.58097 0.31887 0.0
C283 C 0.91048 0.67355 0.32544 0.0
C284 C 0.8778 0.59843 0.33753 0.0
N285 N 0.89797 0.6442 0.34061 0.0
C286 C 0.90268 0.65731 0.30659 0.0
C287 C 0.88203 0.61069 0.30332 0.0
C288 C 0.99086 0.75733 0.36137 0.0
C289 C 0.03549 0.73643 0.4307 0.0
C290 C 0.03808 0.8012 0.40583 0.0
C291 C 0.07839 0.80744 0.41393 0.0
C292 C 0.07697 0.77484 0.4265 0.0
N293 N 0.99732 0.76373 0.41023 0.0
C294 C 0.99587 0.73133 0.42231 0.0
Co295 Co 0.25928 0.91259 0.70423 0.0
Co296 Co 0.19503 0.94342 0.73078 0.0
O297 O 0.24221 0.92607 0.72928 0.0
C298 C 0.34969 0.97577 0.72114 0.0
O299 O 0.3338 1.00244 0.7262 0.0
C300 C 0.18129 0.8861 0.76636 0.0
O301 O 0.19663 0.86217 0.75767 0.0
O302 O 0.15061 0.88482 0.71849 0.0
O303 O 0.19514 0.88621 0.69449 0.0
H304 H 0.06553 0.95933 0.70489 0.0
H305 H 0.28296 0.87934 0.7392 0.0
O306 O 0.32381 0.93798 0.71293 0.0
H307 H 0.18487 0.742 0.70129 0.0
H308 H 0.34138 0.86077 0.65979 0.0
H309 H 0.2387 0.92385 0.66389 0.0
H310 H 0.20414 0.81784 0.68926 0.0
H311 H 0.31799 0.87534 0.69129 0.0
O312 O 0.17709 0.91633 0.7572 0.0
H313 H 0.12612 0.93975 0.70347 0.0
H314 H 0.16273 0.98271 0.76124 0.0
H315 H 0.26079 0.90928 0.63209 0.0
H316 H 0.26499 0.80415 0.75168 0.0
H317 H 0.31254 0.87757 0.6299 0.0
H318 H 0.21549 0.73481 0.73268 0.0
O319 O 0.27443 0.97405 0.69491 0.0
H320 H 0.32017 0.04238 0.77658 0.0
H321 H 0.22188 0.04064 0.72409 0.0
H322 H 0.27893 0.1138 0.73804 0.0
H323 H 0.32848 0.115 0.76454 0.0
H324 H 0.26321 0.97 0.76199 0.0
H325 H 0.10225 1.00247 0.76334 0.0
H326 H 0.05321 0.99094 0.73499 0.0
O327 O 0.21136 0.97274 0.70484 0.0
C328 C 0.15586 0.87247 0.7018 0.0
C329 C 0.08663 0.96447 0.71735 0.0
C330 C 0.10719 0.98859 0.75016 0.0
N331 N 0.14785 0.95975 0.7323 0.0
C332 C 0.12103 0.95341 0.71664 0.0
C333 C 0.14123 0.97708 0.74892 0.0
C334 C 0.07972 0.98217 0.73424 0.0
C335 C 0.26167 0.84932 0.7308 0.0
N336 N 0.24462 0.85297 0.71355 0.0
C337 C 0.25149 0.80684 0.73796 0.0
C338 C 0.22366 0.76794 0.72731 0.0
C339 C 0.20643 0.77195 0.70971 0.0
C340 C 0.2173 0.81498 0.70301 0.0
C341 C 0.31874 0.87451 0.66055 0.0
C342 C 0.26098 0.90976 0.66306 0.0
C343 C 0.30546 0.88294 0.67835 0.0
N344 N 0.27677 0.90017 0.67943 0.0
C345 C 0.27347 0.90169 0.64501 0.0
C346 C 0.30254 0.88394 0.64379 0.0
C347 C 0.24758 0.98999 0.6949 0.0
C348 C 0.29866 0.04229 0.76509 0.0
C349 C 0.24341 0.04081 0.73555 0.0
C350 C 0.27559 0.08238 0.74343 0.0
C351 C 0.30336 0.08303 0.75831 0.0
N352 N 0.23896 1.00094 0.74229 0.0
C353 C 0.26613 1.00136 0.75684 0.0
Co354 Co 0.76811 0.67174 0.63569 0.0
Co355 Co 0.81082 0.76114 0.6051 0.0
O356 O 0.77096 0.69604 0.60983 0.0
C357 C 0.67035 0.62718 0.62378 0.0
O358 O 0.67765 0.66576 0.61633 0.0
C359 C 0.82707 0.71902 0.57011 0.0
O360 O 0.8325 0.69016 0.58077 0.0
O361 O 0.86369 0.75541 0.61337 0.0
O362 O 0.83405 0.71781 0.64084 0.0
H363 H 0.93678 0.91808 0.62148 0.0
H364 H 0.73958 0.60985 0.60223 0.0
O365 O 0.70273 0.62432 0.63162 0.0
H366 H 0.86257 0.59536 0.63288 0.0
H367 H 0.721 0.54799 0.68517 0.0
H368 H 0.80123 0.71341 0.67397 0.0
H369 H 0.83748 0.64609 0.64661 0.0
H370 H 0.72638 0.57859 0.65254 0.0
O371 O 0.81913 0.7483 0.57784 0.0
H372 H 0.88532 0.83633 0.62703 0.0
H373 H 0.82328 0.82409 0.57269 0.0
H374 H 0.79714 0.68427 0.7068 0.0
H375 H 0.76335 0.55836 0.5881 0.0
H376 H 0.75675 0.60099 0.71257 0.0
H377 H 0.82534 0.55097 0.60344 0.0
O378 O 0.74868 0.71404 0.64598 0.0
H379 H 0.66571 0.71287 0.56903 0.0
H380 H 0.77638 0.82455 0.6145 0.0
H381 H 0.7092 0.82979 0.60519 0.0
H382 H 0.65334 0.77377 0.58224 0.0
H383 H 0.73301 0.7084 0.57899 0.0
H384 H 0.87454 0.90562 0.56644 0.0
H385 H 0.93165 0.95328 0.59099 0.0
O386 O 0.80312 0.77704 0.63206 0.0
C387 C 0.86804 0.74239 0.63003 0.0
C388 C 0.91203 0.89768 0.61067 0.0
C389 C 0.87714 0.89068 0.57978 0.0
N390 N 0.8512 0.82539 0.60022 0.0
C391 C 0.88271 0.85135 0.61374 0.0
C392 C 0.84833 0.84446 0.58336 0.0
C393 C 0.90915 0.9174 0.59356 0.0
C394 C 0.76632 0.6065 0.60907 0.0
N395 N 0.78695 0.63077 0.62526 0.0
C396 C 0.77974 0.57743 0.60097 0.0
C397 C 0.81457 0.57334 0.60956 0.0
C398 C 0.83549 0.59826 0.62608 0.0
C399 C 0.8212 0.62701 0.63376 0.0
C400 C 0.73873 0.58434 0.68284 0.0
C401 C 0.7838 0.67713 0.67635 0.0
C402 C 0.74176 0.60187 0.6644 0.0
N403 N 0.76429 0.64775 0.66134 0.0
C404 C 0.7815 0.66083 0.69498 0.0
C405 C 0.75881 0.6141 0.69821 0.0
C406 C 0.77144 0.75709 0.64434 0.0
C407 C 0.68985 0.73754 0.57901 0.0
C408 C 0.75209 0.79982 0.60462 0.0
C409 C 0.71419 0.80309 0.59934 0.0
C410 C 0.68289 0.77167 0.58645 0.0
N411 N 0.75861 0.76613 0.59731 0.0
C412 C 0.72813 0.73529 0.58463 0.0
Co413 Co 0.1023 0.74858 0.96847 0.0
Co414 Co 0.07372 0.81135 0.93848 0.0
O415 O 0.09415 0.76698 0.94258 0.0
C416 C 0.04628 0.66023 0.94834 0.0
O417 O 0.02354 0.67744 0.94009 0.0
C418 C 0.14058 0.82908 0.90573 0.0
O419 O 0.15043 0.79842 0.91179 0.0
O420 O 0.12362 0.85663 0.95528 0.0
O421 O 0.12577 0.81185 0.97844 0.0
H422 H 0.03192 0.9268 0.96026 0.0
H423 H 0.14252 0.72641 0.93541 0.0
O424 O 0.07901 0.68425 0.95968 0.0
H425 H 0.27177 0.82522 0.97721 0.0
H426 H 0.14687 0.6656 0.01586 0.0
H427 H 0.08307 0.76701 0.00798 0.0
H428 H 0.1937 0.80438 0.98638 0.0
H429 H 0.13772 0.68994 0.98359 0.0
O430 O 0.11377 0.83781 0.91526 0.0
H431 H 0.05669 0.87038 0.96447 0.0
H432 H 0.04887 0.84771 0.90421 0.0
H433 H 0.09203 0.74384 0.04053 0.0
H434 H 0.22002 0.746 0.92576 0.0
H435 H 0.12413 0.69275 0.04462 0.0
H436 H 0.28532 0.79586 0.94672 0.0
O437 O 0.03952 0.73254 0.9758 0.0
H438 H 1.00423 0.69121 0.88694 0.0
H439 H 0.97498 0.77978 0.93507 0.0
H440 H 0.9119 0.72363 0.91528 0.0
H441 H 0.92634 0.67903 0.89086 0.0
H442 H 0.0659 0.74671 0.90735 0.0
H443 H 0.02456 0.90431 0.89935 0.0
H444 H 0.01567 0.94411 0.92751 0.0
O445 O 0.03207 0.78714 0.96107 0.0
C446 C 0.13582 0.85094 0.97193 0.0
C447 C 0.03555 0.9096 0.94788 0.0
C448 C 0.03149 0.89703 0.9137 0.0
N449 N 0.054 0.85553 0.93463 0.0
C450 C 0.04946 0.87752 0.95018 0.0
C451 C 0.04546 0.86513 0.91654 0.0
C452 C 0.02649 0.91933 0.9295 0.0
C453 C 0.17075 0.7479 0.94464 0.0
N454 N 0.1636 0.76426 0.96141 0.0
C455 C 0.21456 0.75898 0.93909 0.0
C456 C 0.25118 0.78699 0.95085 0.0
C457 C 0.24361 0.80352 0.96794 0.0
C458 C 0.19933 0.79176 0.97302 0.0
C459 C 0.13295 0.68796 0.01427 0.0
C460 C 0.09735 0.74502 0.00965 0.0
C461 C 0.12762 0.7018 0.99603 0.0
N462 N 0.11022 0.73019 0.99391 0.0
C463 C 0.10222 0.73191 0.02812 0.0
C464 C 0.12019 0.70321 0.0304 0.0
C465 C 0.01876 0.75461 0.97307 0.0
C466 C 0.99756 0.71071 0.89741 0.0
C467 C 0.98164 0.76043 0.92461 0.0
C468 C 0.94573 0.72874 0.91336 0.0
C469 C 0.95385 0.70378 0.89966 0.0
N470 N 0.0246 0.76738 0.92227 0.0
C471 C 0.03263 0.74272 0.90892 0.0
Co472 Co 0.34536 0.09594 0.3015 0.0
Co473 Co 0.26223 0.0819 0.26997 0.0
O474 O 0.32464 0.09508 0.2751 0.0
C475 C 0.37988 0.04382 0.27941 0.0
O476 O 0.34321 0.02663 0.26875 0.0
C477 C 0.32195 0.15725 0.24312 0.0
O478 O 0.3532 0.17495 0.25651 0.0
O479 O 0.272 0.13361 0.28673 0.0
O480 O 0.30614 0.12063 0.31147 0.0
H481 H 0.10944 0.0595 0.28835 0.0
H482 H 0.41499 0.14161 0.27132 0.0
O483 O 0.3858 0.07178 0.2928 0.0
H484 H 0.44341 0.26144 0.31839 0.0
H485 H 0.45981 0.12106 0.35297 0.0
H486 H 0.29884 0.06875 0.33918 0.0
H487 H 0.38142 0.18284 0.32345 0.0
H488 H 0.43455 0.12207 0.31985 0.0
O489 O 0.28363 0.12249 0.24677 0.0
H490 H 0.187 0.07395 0.29432 0.0
H491 H 0.20617 0.06445 0.23455 0.0
H492 H 0.32273 0.0676 0.37254 0.0
H493 H 0.47783 0.21965 0.26583 0.0
H494 H 0.40374 0.09387 0.37961 0.0
H495 H 0.49224 0.28025 0.28943 0.0
O496 O 0.29505 0.03264 0.30509 0.0
H497 H 0.30243 0.0063 0.21753 0.0
H498 H 0.18956 0.98455 0.267 0.0
H499 H 0.17721 0.91979 0.24681 0.0
H500 H 0.23377 0.93047 0.22178 0.0
H501 H 0.31397 0.06991 0.23831 0.0
H502 H 0.12887 0.05014 0.22793 0.0
H503 H 0.07986 0.04743 0.25495 0.0
O504 O 0.23801 0.03948 0.29258 0.0
C505 C 0.28415 0.13869 0.30433 0.0
C506 C 0.13042 0.06048 0.27646 0.0
C507 C 0.14135 0.0553 0.24255 0.0
N508 N 0.20107 0.06986 0.26482 0.0
C509 C 0.17436 0.06858 0.27975 0.0
C510 C 0.18515 0.06354 0.24638 0.0
C511 C 0.11386 0.05376 0.25771 0.0
C512 C 0.42137 0.16769 0.28175 0.0
N513 N 0.39457 0.15766 0.29767 0.0
C514 C 0.45686 0.21187 0.27852 0.0
C515 C 0.46487 0.24586 0.29175 0.0
C516 C 0.43744 0.23535 0.30799 0.0
C517 C 0.40224 0.19081 0.31073 0.0
C518 C 0.42444 0.10962 0.35008 0.0
C519 C 0.3342 0.0805 0.34216 0.0
C520 C 0.4099 0.11002 0.33135 0.0
N521 N 0.3653 0.0958 0.32761 0.0
C522 C 0.3475 0.07966 0.36107 0.0
C523 C 0.39296 0.09437 0.36502 0.0
C524 C 0.25292 0.01802 0.30246 0.0
C525 C 0.27747 1.00124 0.22835 0.0
C526 C 0.2146 0.98944 0.25629 0.0
C527 C 0.20729 0.95266 0.24482 0.0
C528 C 0.23899 0.95869 0.23077 0.0
N529 N 0.25248 0.0311 0.25386 0.0
C530 C 0.28369 0.03724 0.24009 0.0
Co531 Co 0.25818 0.34546 0.63852 0.0
Co532 Co 0.19062 0.26156 0.60674 0.0
O533 O 0.23967 0.32437 0.61196 0.0
C534 C 0.34719 0.3942 0.61572 0.0
O535 O 0.32784 0.37944 0.59893 0.0
C536 C 0.18405 0.31916 0.57451 0.0
O537 O 0.21938 0.3567 0.58063 0.0
O538 O 0.14787 0.27095 0.62312 0.0
O539 O 0.19394 0.30721 0.64781 0.0
H540 H 0.06086 0.10856 0.62541 0.0
H541 H 0.28024 0.41382 0.60727 0.0
O542 O 0.32392 0.38414 0.63114 0.0
H543 H 0.19254 0.44538 0.65491 0.0
H544 H 0.34453 0.45947 0.69057 0.0
H545 H 0.23575 0.29876 0.67625 0.0
H546 H 0.20929 0.38358 0.66025 0.0
H547 H 0.32065 0.43442 0.65721 0.0
O548 O 0.16968 0.28175 0.58355 0.0
H549 H 0.1236 0.18635 0.63122 0.0
H550 H 0.15218 0.2049 0.57143 0.0
H551 H 0.25838 0.32242 0.70982 0.0
H552 H 0.26484 0.47623 0.60146 0.0
H553 H 0.31315 0.40332 0.71716 0.0
H554 H 0.22057 0.49243 0.62537 0.0
O555 O 0.27059 0.29493 0.64281 0.0
H556 H 0.3136 0.30216 0.5572 0.0
H557 H 0.21183 0.18676 0.6037 0.0
H558 H 0.26478 0.17296 0.58473 0.0
H559 H 0.31606 0.23076 0.56117 0.0
H560 H 0.26077 0.31487 0.57661 0.0
H561 H 0.08948 0.12734 0.56497 0.0
H562 H 0.04344 0.07852 0.59208 0.0
O563 O 0.20863 0.23763 0.62944 0.0
C564 C 0.15429 0.28427 0.64055 0.0
C565 C 0.08076 0.12944 0.61348 0.0
C566 C 0.09678 0.14002 0.57956 0.0
N567 N 0.14177 0.20013 0.60171 0.0
C568 C 0.11643 0.17352 0.61668 0.0
C569 C 0.13217 0.18397 0.58331 0.0
C570 C 0.07097 0.11263 0.59478 0.0
C571 C 0.26155 0.42081 0.61787 0.0
N572 N 0.24631 0.39521 0.63418 0.0
C573 C 0.25265 0.45615 0.61444 0.0
C574 C 0.22775 0.46517 0.62784 0.0
C575 C 0.212 0.43878 0.6444 0.0
C576 C 0.22154 0.40371 0.64732 0.0
C577 C 0.32056 0.42415 0.68756 0.0
C578 C 0.25938 0.33407 0.67934 0.0
C579 C 0.30699 0.40974 0.6687 0.0
N580 N 0.27651 0.36523 0.66481 0.0
C581 C 0.27217 0.34724 0.69837 0.0
C582 C 0.30293 0.39263 0.70247 0.0
C583 C 0.24419 0.25279 0.63978 0.0
C584 C 0.29115 0.27652 0.56729 0.0
C585 C 0.23387 0.21218 0.59347 0.0
C586 C 0.26385 0.2041 0.58276 0.0
C587 C 0.29259 0.23651 0.56955 0.0
N588 N 0.23221 0.25133 0.59106 0.0
C589 C 0.26073 0.28342 0.57827 0.0
Co590 Co 0.92262 0.25507 0.97287 0.0
Co591 Co 0.93897 0.18747 0.94136 0.0
O592 O 0.92445 0.23578 0.94647 0.0
C593 C 0.97474 0.3417 0.95104 0.0
O594 O 0.99355 0.3226 0.94115 0.0
C595 C 0.8637 0.17073 0.91431 0.0
O596 O 0.84564 0.1845 0.92745 0.0
O597 O 0.88745 0.14491 0.95788 0.0
O598 O 0.89918 0.1912 0.9828 0.0
H599 H 0.96382 0.05837 0.95974 0.0
H600 H 0.87651 0.27856 0.94262 0.0
O601 O 0.94579 0.31953 0.9641 0.0
H602 H 0.75659 0.1843 0.98909 0.0
H603 H 0.89391 0.34244 0.02408 0.0
H604 H 0.94987 0.23634 0.0107 0.0
H605 H 0.83556 0.20228 0.9944 0.0
H606 H 0.89433 0.31673 0.99099 0.0
O607 O 0.8988 0.16786 0.91811 0.0
H608 H 0.94804 0.12067 0.96571 0.0
H609 H 0.95807 0.15003 0.90598 0.0
H610 H 0.94964 0.26084 0.04404 0.0
H611 H 0.79809 0.26199 0.9369 0.0
H612 H 0.92151 0.31429 0.05089 0.0
H613 H 0.73745 0.21437 0.9602 0.0
O614 O 0.98613 0.26906 0.97676 0.0
H615 H 0.0137 0.30425 0.88924 0.0
H616 H 0.03682 0.21394 0.93878 0.0
H617 H 0.10146 0.26742 0.91884 0.0
H618 H 0.09009 0.3129 0.89379 0.0
H619 H 0.95019 0.25108 0.90975 0.0
H620 H 0.97376 0.08786 0.89937 0.0
H621 H 0.97685 0.04161 0.92636 0.0
O622 O 0.98081 0.20588 0.96412 0.0
C623 C 0.88241 0.15137 0.97554 0.0
C624 C 0.96269 0.07836 0.94786 0.0
C625 C 0.9682 0.09487 0.91398 0.0
N626 N 0.95231 0.13915 0.93623 0.0
C627 C 0.95383 0.11376 0.95115 0.0
C628 C 0.95919 0.12997 0.91781 0.0
C629 C 0.96995 0.06894 0.92913 0.0
C630 C 0.8504 0.25823 0.95292 0.0
N631 N 0.86062 0.24144 0.96881 0.0
C632 C 0.80602 0.24878 0.94956 0.0
C633 C 0.772 0.22198 0.96262 0.0
C634 C 0.7827 0.20505 0.97882 0.0
C635 C 0.82745 0.21517 0.9817 0.0
C636 C 0.90615 0.31906 0.02128 0.0
C637 C 0.93731 0.25937 0.01359 0.0
C638 C 0.90655 0.30444 1.00257 0.0
N639 N 0.92176 0.27474 0.99894 0.0
C640 C 0.93738 0.27322 0.03248 0.0
C641 C 0.92163 0.30325 0.03632 0.0
C642 C 1.00115 0.24178 0.97432 0.0
C643 C 0.01906 0.28452 0.90007 0.0
C644 C 0.03162 0.23388 0.92804 0.0
C645 C 0.06834 0.26397 0.91672 0.0
C646 C 0.06192 0.28943 0.90265 0.0
N647 N 0.98965 0.22928 0.92544 0.0
C648 C 0.98313 0.25412 0.91165 0.0
Co649 Co 0.658 0.91425 0.29879 0.0
Co650 Co 0.75014 0.9427 0.27074 0.0
O651 O 0.68635 0.92709 0.27331 0.0
C652 C 0.62845 0.97468 0.28032 0.0
O653 O 0.66853 0.99743 0.27227 0.0
C654 C 0.70301 0.88198 0.23693 0.0
O655 O 0.6696 0.85278 0.24781 0.0
O656 O 0.73524 0.88337 0.28242 0.0
O657 O 0.69533 0.88614 0.30745 0.0
H658 H 0.89621 0.95519 0.29367 0.0
H659 H 0.59964 0.88179 0.26426 0.0
O660 O 0.61892 0.94084 0.29114 0.0
H661 H 0.55856 0.74407 0.30231 0.0
H662 H 0.52907 0.86575 0.34567 0.0
H663 H 0.6934 0.92458 0.33844 0.0
H664 H 0.61672 0.81948 0.31402 0.0
H665 H 0.56381 0.87966 0.31349 0.0
O666 O 0.73723 0.91623 0.24431 0.0
H667 H 0.81696 0.93779 0.29668 0.0
H668 H 0.81788 0.97791 0.23878 0.0
H669 H 0.65998 0.9107 0.3709 0.0
H670 H 0.5409 0.80706 0.25208 0.0
H671 H 0.57724 0.88109 0.37466 0.0
H672 H 0.52011 0.73753 0.27114 0.0
O673 O 0.70594 0.97549 0.3075 0.0
H674 H 0.72665 0.04546 0.22597 0.0
H675 H 0.82294 0.03882 0.27741 0.0
H676 H 0.84115 0.11299 0.26381 0.0
H677 H 0.79297 0.11667 0.23782 0.0
H678 H 0.70899 0.97206 0.2403 0.0
H679 H 0.89715 0.99549 0.23513 0.0
H680 H 0.93692 0.98432 0.26272 0.0
O681 O 0.76579 0.97145 0.29683 0.0
C682 C 0.71876 0.87087 0.29925 0.0
C683 C 0.87929 0.96028 0.28155 0.0
C684 C 0.87978 0.98282 0.24869 0.0
N685 N 0.81272 0.95689 0.26794 0.0
C686 C 0.83437 0.95053 0.28316 0.0
C687 C 0.83481 0.97265 0.25082 0.0
C688 C 0.90209 0.97658 0.26418 0.0
C689 C 0.59048 0.8517 0.2727 0.0
N690 N 0.61147 0.855 0.28984 0.0
C691 C 0.55733 0.80948 0.2657 0.0
C692 C 0.54573 0.77047 0.27639 0.0
C693 C 0.56732 0.77411 0.29387 0.0
C694 C 0.60034 0.8169 0.3004 0.0
C695 C 0.56515 0.87858 0.34422 0.0
C696 C 0.65733 0.91144 0.33996 0.0
C697 C 0.58504 0.88663 0.32603 0.0
N698 N 0.63056 0.90264 0.32409 0.0
C699 C 0.63862 0.90376 0.35838 0.0
C700 C 0.5922 0.88718 0.36048 0.0
C701 C 0.74851 0.99034 0.30688 0.0
C702 C 0.74795 0.04431 0.23727 0.0
C703 C 0.80147 0.04009 0.26626 0.0
C704 C 0.81212 0.08222 0.25854 0.0
C705 C 0.78512 0.08425 0.24394 0.0
N706 N 0.7648 1.00104 0.25971 0.0
C707 C 0.73827 1.00279 0.24537 0.0
H708 H 0.60142 0.59317 0.07246 0.0
H709 H 0.58849 0.62296 0.01292 0.0
H710 H 0.52868 0.54317 0.00799 0.0
H711 H 0.58185 0.47953 0.06558 0.0
H712 H 0.54844 0.45715 0.08709 0.0
H713 H 0.59147 0.51625 0.08588 0.0
H714 H 0.53161 0.53934 0.09444 0.0
H715 H 0.48838 0.48032 0.09569 0.0
H716 H 0.48101 0.51841 0.08002 0.0
H717 H 0.47283 0.45983 0.00905 0.0
H718 H 0.41893 0.37957 0.01676 0.0
H719 H 0.46264 0.40425 0.07629 0.0
C720 C 0.58609 0.58272 0.05838 0.0
C721 C 0.59982 0.6141 0.04301 0.0
C722 C 0.57848 0.59946 0.02488 0.0
C723 C 0.54459 0.5542 0.02192 0.0
C724 C 0.53178 0.52409 0.03733 0.0
C725 C 0.55134 0.53777 0.05528 0.0
C726 C 0.52974 0.49888 0.06958 0.0
C727 C 0.56498 0.48727 0.07749 0.0
C728 C 0.50629 0.5099 0.08589 0.0
C729 C 0.49533 0.46115 0.0568 0.0
C730 C 0.49756 0.4764 0.0382 0.0
C731 C 0.47045 0.44759 0.02359 0.0
C732 C 0.44004 0.40202 0.02811 0.0
C733 C 0.43633 0.38576 0.04714 0.0
C734 C 0.46434 0.41587 0.06167 0.0
H735 H 0.06604 0.45271 0.3628 0.0
H736 H 0.96317 0.36797 0.40435 0.0
H737 H 0.93703 0.42392 0.4059 0.0
H738 H 0.09188 0.56245 0.38276 0.0
H739 H 0.09838 0.58845 0.35952 0.0
H740 H 0.111 0.54321 0.36256 0.0
H741 H 0.05444 0.49765 0.33536 0.0
H742 H 0.04163 0.5427 0.33223 0.0
H743 H 0.99655 0.48564 0.33696 0.0
H744 H 0.92077 0.4881 0.40245 0.0
H745 H 0.91314 0.55404 0.39315 0.0
H746 H 0.0248 0.59635 0.35297 0.0
C747 C 0.03838 0.44621 0.3724 0.0
C748 C 0.01682 0.40602 0.38356 0.0
C749 C 0.98023 0.39846 0.39568 0.0
C750 C 0.96522 0.43013 0.3967 0.0
C751 C 0.9869 0.46917 0.38542 0.0
C752 C 0.02255 0.47726 0.37342 0.0
C753 C 0.0384 0.52081 0.36208 0.0
C754 C 0.08785 0.5558 0.36703 0.0
C755 C 0.03238 0.5111 0.34037 0.0
C756 C 1.0059 0.53575 0.36949 0.0
C757 C 0.97679 0.50568 0.38308 0.0
C758 C 0.94346 0.51193 0.39185 0.0
C759 C 0.93944 0.54962 0.38648 0.0
C760 C 0.96834 0.58057 0.37232 0.0
C761 C 1.00219 0.57348 0.36386 0.0
H762 H 0.39783 0.9404 0.70394 0.0
H763 H 0.41242 0.04579 0.74342 0.0
H764 H 0.49461 0.07278 0.74611 0.0
H765 H 0.4807 0.91662 0.72621 0.0
H766 H 0.50113 0.90849 0.70351 0.0
H767 H 0.44314 0.89574 0.70579 0.0
H768 H 0.45477 0.95009 0.67751 0.0
H769 H 0.51276 0.9631 0.67515 0.0
H770 H 0.50021 0.00827 0.67863 0.0
H771 H 0.57583 0.0895 0.74368 0.0
H772 H 0.64975 0.0967 0.73549 0.0
H773 H 0.58212 0.98166 0.69676 0.0
C774 C 0.41811 0.96877 0.71338 0.0
C775 C 0.39855 0.99077 0.72361 0.0
C776 C 0.42658 0.02831 0.7355 0.0
C777 C 0.47328 0.04381 0.73714 0.0
C778 C 0.4915 0.02158 0.72672 0.0
C779 C 0.46476 0.98494 0.71502 0.0
C780 C 0.49295 0.96845 0.70456 0.0
C781 C 0.47862 0.91941 0.71037 0.0
C782 C 0.48999 0.97275 0.68267 0.0
C783 C 0.53987 1.00172 0.71208 0.0
C784 C 0.53826 0.03183 0.72498 0.0
C785 C 0.57742 0.06602 0.73365 0.0
C786 C 0.61931 0.06978 0.7289 0.0
C787 C 0.62191 0.03975 0.71547 0.0
C788 C 0.58143 0.00513 0.70709 0.0
H789 H 0.59608 0.6098 0.60127 0.0
H790 H 0.63968 0.55307 0.64696 0.0
H791 H 0.56305 0.48626 0.64844 0.0
H792 H 0.48449 0.57273 0.61918 0.0
H793 H 0.45737 0.5588 0.59596 0.0
H794 H 0.51611 0.60219 0.59803 0.0
H795 H 0.53814 0.55952 0.57332 0.0
H796 H 0.47943 0.51589 0.57121 0.0
H797 H 0.52171 0.50092 0.57757 0.0
H798 H 0.48131 0.42868 0.64697 0.0
H799 H 0.399 0.38084 0.64126 0.0
H800 H 0.40716 0.47011 0.59498 0.0
C801 C 0.58945 0.58321 0.61153 0.0
C802 C 0.62402 0.58681 0.62402 0.0
C803 C 0.61401 0.55114 0.63717 0.0
C804 C 0.57048 0.51298 0.63815 0.0
C805 C 0.53725 0.51046 0.62571 0.0
C806 C 0.54612 0.54427 0.6125 0.0
C807 C 0.50386 0.53268 0.60083 0.0
C808 C 0.48962 0.56874 0.60368 0.0
C809 C 0.51124 0.52691 0.57947 0.0
C810 C 0.46977 0.48758 0.60984 0.0
C811 C 0.48996 0.47567 0.62422 0.0
C812 C 0.46525 0.43719 0.63554 0.0
C813 C 0.41857 0.41027 0.63221 0.0
C814 C 0.39708 0.42141 0.61749 0.0
C815 C 0.4231 0.46028 0.60599 0.0
H816 H 0.99233 0.40984 0.9765 0.0
H817 H 0.98226 0.37926 0.91566 0.0
H818 H 0.99731 0.45698 0.90818 0.0
H819 H 0.94303 0.4816 0.9762 0.0
H820 H 0.98234 0.52141 0.99343 0.0
H821 H 0.96887 0.46296 0.99394 0.0
H822 H 0.05431 0.48853 0.99113 0.0
H823 H 0.06804 0.54707 0.99067 0.0
H824 H 0.08695 0.52483 0.97151 0.0
H825 H 0.00831 0.53684 0.90769 0.0
H826 H 0.0259 0.61595 0.91388 0.0
H827 H 0.03835 0.59719 0.97471 0.0
C828 C 0.9933 0.41965 0.96162 0.0
C829 C 0.98574 0.38866 0.94661 0.0
C830 C 0.98796 0.40267 0.92731 0.0
C831 C 0.99627 0.4466 0.92296 0.0
C832 C 1.00342 0.47641 0.93809 0.0
C833 C 1.00305 0.46383 0.95702 0.0
C834 C 0.01443 0.50309 0.97054 0.0
C835 C 0.9748 0.49156 0.98434 0.0
C836 C 0.05856 0.51668 0.98161 0.0
C837 C 0.02068 0.53956 0.95631 0.0
C838 C 0.01334 0.52329 0.93768 0.0
C839 C 0.0148 0.55011 0.92219 0.0
C840 C 0.0246 0.59485 0.92581 0.0
C841 C 0.03393 0.61258 0.94469 0.0
C842 C 0.03197 0.58454 0.96009 0.0
H843 H 0.42837 0.02526 0.30558 0.0
H844 H 0.41208 0.03673 0.24445 0.0
H845 H 0.47552 0.0223 0.23794 0.0
H846 H 0.54898 0.07566 0.30692 0.0
H847 H 0.54897 0.03623 0.32426 0.0
H848 H 0.5034 0.04883 0.32408 0.0
H849 H 0.44481 0.96313 0.32062 0.0
H850 H 0.49017 0.95024 0.32089 0.0
H851 H 0.45049 0.93125 0.30118 0.0
H852 H 0.54488 0.01237 0.23849 0.0
H853 H 0.60664 0.99576 0.24561 0.0
H854 H 0.57121 0.98133 0.306 0.0
C855 C 0.4382 0.02461 0.29084 0.0
C856 C 0.41577 0.03244 0.27548 0.0
C857 C 0.42894 0.03074 0.25637 0.0
C858 C 0.46502 0.02281 0.25256 0.0
C859 C 0.48675 0.01552 0.26804 0.0
C860 C 0.47312 0.01527 0.28677 0.0
C861 C 0.50041 1.0041 0.30074 0.0
C862 C 0.52702 0.04356 0.31483 0.0
C863 C 0.46963 0.95953 0.31149 0.0
C864 C 0.53198 0.99874 0.28699 0.0
C865 C 0.52415 0.0063 0.26821 0.0
C866 C 0.55081 0.00571 0.2531 0.0
C867 C 0.5859 0.99649 0.25726 0.0
C868 C 0.59322 0.98691 0.27628 0.0
C869 C 0.56585 0.98801 0.29129 0.0
H870 H 0.26233 0.13979 0.21358 0.0
H871 H 0.40624 0.20692 0.22664 0.0
H872 H 0.42379 0.22219 0.192 0.0
H873 H 0.26561 0.0853 0.17112 0.0
H874 H 0.22357 0.09311 0.15861 0.0
H875 H 0.22247 0.08967 0.18443 0.0
H876 H 0.22596 0.1675 0.18676 0.0
H877 H 0.22644 0.17091 0.16093 0.0
H878 H 0.27093 0.21615 0.17471 0.0
H879 H 0.42492 0.22439 0.1553 0.0
H880 H 0.40976 0.22143 0.12034 0.0
H881 H 0.26526 0.15528 0.13194 0.0
C882 C 0.29759 0.15831 0.20921 0.0
C883 C 0.33293 0.17223 0.22285 0.0
C884 C 0.3786 0.1963 0.2165 0.0
C885 C 0.38888 0.20483 0.19683 0.0
C886 C 0.35313 0.18956 0.18372 0.0
C887 C 0.30841 0.16752 0.18973 0.0
C888 C 0.27613 0.15442 0.17286 0.0
C889 C 0.24513 0.10255 0.17169 0.0
C890 C 0.24823 0.17871 0.17388 0.0
C891 C 0.30957 0.1721 0.15637 0.0
C892 C 0.35383 0.19192 0.16285 0.0
C893 C 0.3904 0.20934 0.1501 0.0
C894 C 0.38147 0.20724 0.13027 0.0
C895 C 0.33638 0.1883 0.12341 0.0
C896 C 0.30014 0.17028 0.13672 0.0
H897 H 0.18621 0.35031 0.46043 0.0
H898 H 0.04295 0.24834 0.46206 0.0
H899 H 0.04518 0.24871 0.49724 0.0
H900 H 0.21948 0.30572 0.49941 0.0
H901 H 0.26047 0.36012 0.50919 0.0
H902 H 0.24757 0.35462 0.48391 0.0
H903 H 0.22712 0.41841 0.48639 0.0
H904 H 0.2398 0.42396 0.51173 0.0
H905 H 0.18498 0.41309 0.50352 0.0
H906 H 0.06288 0.25444 0.53181 0.0
H907 H 0.09594 0.26609 0.56429 0.0
H908 H 0.22717 0.36628 0.54167 0.0
C909 C 0.15526 0.32846 0.46822 0.0
C910 C 0.11447 0.29919 0.45834 0.0
C911 C 0.07478 0.2709 0.46913 0.0
C912 C 0.07554 0.27097 0.48921 0.0
C913 C 0.11616 0.29972 0.49849 0.0
C914 C 0.15535 0.32809 0.48845 0.0
C915 C 0.19482 0.35408 0.5022 0.0
C916 C 0.23282 0.34295 0.49845 0.0
C917 C 0.21273 0.40544 0.50087 0.0
C918 C 0.17172 0.3351 0.52139 0.0
C919 C 0.12626 0.30393 0.51882 0.0
C920 C 0.09824 0.27934 0.53409 0.0
C921 C 0.11728 0.28618 0.55248 0.0
C922 C 0.16379 0.31765 0.55553 0.0
C923 C 0.19119 0.34299 0.53981 0.0
H924 H 0.86477 0.10684 0.80449 0.0
H925 H 0.80526 0.19038 0.79048 0.0
H926 H 0.80205 0.20526 0.82514 0.0
H927 H 0.80163 0.05629 0.84713 0.0
H928 H 0.8487 0.05797 0.85981 0.0
H929 H 0.84607 0.05389 0.83399 0.0
H930 H 0.92541 0.12611 0.83146 0.0
H931 H 0.92853 0.13003 0.85726 0.0
H932 H 0.93544 0.17764 0.84319 0.0
H933 H 0.80295 0.20827 0.86181 0.0
H934 H 0.81699 0.20739 0.89669 0.0
H935 H 0.87852 0.12418 0.88596 0.0
C936 C 0.85122 0.12844 0.80869 0.0
C937 C 0.83511 0.14737 0.79482 0.0
C938 C 0.81801 0.17576 0.80088 0.0
C939 C 0.81574 0.18409 0.82053 0.0
C940 C 0.83119 0.16419 0.83387 0.0
C941 C 0.84932 0.13759 0.82814 0.0
C942 C 0.86519 0.12145 0.84516 0.0
C943 C 0.83881 0.06931 0.8466 0.0
C944 C 0.9167 0.13993 0.84421 0.0
C945 C 0.85301 0.14292 0.86143 0.0
C946 C 0.83293 0.167 0.85471 0.0
C947 C 0.81877 0.18963 0.8672 0.0
C948 C 0.82654 0.18864 0.887 0.0
C949 C 0.84877 0.16568 0.89403 0.0
C950 C 0.86141 0.14201 0.88103 0.0
H951 H 0.63309 0.76687 0.1326 0.0
H952 H 0.73178 0.89873 0.11012 0.0
H953 H 0.74098 0.93227 0.14239 0.0
H954 H 0.58361 0.80894 0.17091 0.0
H955 H 0.57875 0.76651 0.18781 0.0
H956 H 0.57308 0.75436 0.16242 0.0
H957 H 0.63682 0.73392 0.16462 0.0
H958 H 0.64327 0.7467 0.1899 0.0
H959 H 0.69149 0.77508 0.17411 0.0
H960 H 0.74846 0.9492 0.17676 0.0
H961 H 0.75132 0.95075 0.2119 0.0
H962 H 0.6481 0.80783 0.21372 0.0
C963 C 0.65492 0.80316 0.13443 0.0
C964 C 0.68082 0.83073 0.1189 0.0
C965 C 0.71098 0.87755 0.12183 0.0
C966 C 0.71648 0.89677 0.14009 0.0
C967 C 0.69178 0.86857 0.15529 0.0
C968 C 0.66124 0.82285 0.15274 0.0
C969 C 0.64287 0.79954 0.17197 0.0
C970 C 0.59152 0.78126 0.17336 0.0
C971 C 0.65431 0.76157 0.17534 0.0
C972 C 0.66896 0.83902 0.18567 0.0
C973 C 0.69661 0.87845 0.17561 0.0
C974 C 0.72639 0.91879 0.18482 0.0
C975 C 0.72796 0.91913 0.20487 0.0
C976 C 0.69985 0.87939 0.21567 0.0
C977 C 0.66962 0.83883 0.20589 0.0
H978 H 0.84723 0.66504 0.54665 0.0
H979 H 0.81302 0.77245 0.54515 0.0
H980 H 0.81961 0.77558 0.5101 0.0
H981 H 0.92986 0.70935 0.50937 0.0
H982 H 0.91453 0.65503 0.49889 0.0
H983 H 0.90493 0.65892 0.52408 0.0
H984 H 0.81993 0.59914 0.51975 0.0
H985 H 0.82928 0.59514 0.49451 0.0
H986 H 0.78672 0.60866 0.5021 0.0
H987 H 0.83519 0.77234 0.47587 0.0
H988 H 0.85731 0.76085 0.44356 0.0
H989 H 0.87846 0.65334 0.46567 0.0
C990 C 0.84077 0.6889 0.53892 0.0
C991 C 0.82983 0.71863 0.54881 0.0
C992 C 0.82174 0.74945 0.53808 0.0
C993 C 0.8252 0.75144 0.51808 0.0
C994 C 0.83641 0.72217 0.50881 0.0
C995 C 0.84387 0.69126 0.51875 0.0
C996 C 0.85672 0.66471 0.50502 0.0
C997 C 0.90434 0.67249 0.50962 0.0
C998 C 0.82102 0.61389 0.50537 0.0
C999 C 0.85611 0.68629 0.48596 0.0
C1000 C 0.8442 0.71931 0.48859 0.0
C1001 C 0.8439 0.74612 0.47352 0.0
C1002 C 0.85659 0.73941 0.45524 0.0
C1003 C 0.86896 0.70586 0.4521 0.0
C1004 C 0.8681 0.6785 0.46762 0.0
H1005 H 0.17 0.79839 0.875 0.0
H1006 H 0.13765 0.90224 0.89171 0.0
H1007 H 0.14548 0.92747 0.85815 0.0
H1008 H 0.25376 0.86754 0.83715 0.0
H1009 H 0.23642 0.81943 0.82146 0.0
H1010 H 0.23201 0.81147 0.84714 0.0
H1011 H 0.14666 0.75233 0.84347 0.0
H1012 H 0.1506 0.7606 0.81784 0.0
H1013 H 0.10976 0.76829 0.83139 0.0
H1014 H 0.14905 0.93709 0.82311 0.0
H1015 H 0.15646 0.9367 0.78818 0.0
H1016 H 0.18925 0.82861 0.79273 0.0
C1017 C 0.16575 0.82718 0.87165 0.0
C1018 C 0.15319 0.84832 0.88607 0.0
C1019 C 0.14717 0.8854 0.88099 0.0
C1020 C 0.15149 0.9 0.86193 0.0
C1021 C 0.16225 0.87753 0.84801 0.0
C1022 C 0.17009 0.84245 0.85255 0.0
C1023 C 0.18005 0.82367 0.83449 0.0
C1024 C 0.22844 0.83097 0.8351 0.0
C1025 C 0.14465 0.77323 0.83164 0.0
C1026 C 0.17561 0.85314 0.81916 0.0
C1027 C 0.16524 0.88382 0.82742 0.0
C1028 C 0.15781 0.91369 0.81646 0.0
C1029 C 0.16195 0.913 0.79651 0.0
C1030 C 0.17373 0.88282 0.78751 0.0
C1031 C 0.18034 0.85221 0.79909 0.0
H1032 H 0.16783 0.94266 0.96463 0.0
H1033 H 0.15988 0.84947 0.0093 0.0
H1034 H 0.19629 0.91291 0.03204 0.0
H1035 H 0.27881 0.03653 0.97901 0.0
H1036 H 0.26436 0.0797 0.97362 0.0
H1037 H 0.23803 0.02701 0.96043 0.0
H1038 H 0.15861 0.01381 0.9698 0.0
H1039 H 0.18473 0.06643 0.98302 0.0
H1040 H 0.14506 0.01424 0.99481 0.0
H1041 H 0.22895 0.98511 0.05084 0.0
H1042 H 0.26143 0.06307 0.06366 0.0
H1043 H 0.25331 0.11148 0.00691 0.0
C1044 C 0.17411 0.93563 0.97914 0.0
C1045 C 0.16069 0.89068 0.98504 0.0
C1046 C 0.16959 0.88327 0.00425 0.0
C1047 C 0.19031 0.9192 0.01738 0.0
C1048 C 0.2026 0.96279 0.01119 0.0
C1049 C 0.19538 0.97138 0.99249 0.0
C1050 C 0.21211 0.0217 0.98968 0.0
C1051 C 0.25062 0.04245 0.9748 0.0
C1052 C 0.17278 0.02949 0.98399 0.0
C1053 C 0.22951 0.03976 0.00973 0.0
C1054 C 0.22327 0.00503 0.02193 0.0
C1055 C 0.23455 0.01271 0.04137 0.0
C1056 C 0.25286 0.05707 0.04855 0.0
C1057 C 0.2604 0.09344 0.03628 0.0
C1058 C 0.24869 0.08452 0.01658 0.0
H1059 H 0.14132 0.2564 0.33898 0.0
H1060 H 0.18601 0.25148 0.39688 0.0
H1061 H 0.23348 0.22111 0.38424 0.0
H1062 H 0.1312 0.15108 0.32396 0.0
H1063 H 0.15001 0.16929 0.2997 0.0
H1064 H 0.12231 0.19411 0.31298 0.0
H1065 H 0.19113 0.27441 0.30717 0.0
H1066 H 0.21904 0.24986 0.29383 0.0
H1067 H 0.24712 0.28626 0.31408 0.0
H1068 H 0.27461 0.18974 0.36559 0.0
H1069 H 0.30347 0.15523 0.34264 0.0
H1070 H 0.22984 0.17662 0.29655 0.0
C1071 C 0.1617 0.24962 0.34895 0.0
C1072 C 0.16042 0.25688 0.36894 0.0
C1073 C 0.18663 0.24643 0.38155 0.0
C1074 C 0.21377 0.22925 0.37448 0.0
C1075 C 0.214 0.22213 0.35476 0.0
C1076 C 0.18841 0.23161 0.34216 0.0
C1077 C 0.1926 0.21801 0.32177 0.0
C1078 C 0.14628 0.18092 0.31416 0.0
C1079 C 0.21374 0.25962 0.30843 0.0
C1080 C 0.22463 0.19951 0.32489 0.0
C1081 C 0.23676 0.20261 0.34402 0.0
C1082 C 0.26539 0.18721 0.35058 0.0
C1083 C 0.28166 0.1676 0.33734 0.0
C1084 C 0.26915 0.16308 0.31766 0.0
C1085 C 0.24044 0.17974 0.31141 0.0
H1086 H 0.89576 0.13653 0.67728 0.0
H1087 H 0.94633 0.1952 0.73353 0.0
H1088 H 0.02265 0.24334 0.71985 0.0
H1089 H 0.99432 0.13041 0.6639 0.0
H1090 H 0.99291 0.14375 0.63894 0.0
H1091 H 0.94108 0.11616 0.65264 0.0
H1092 H 0.92439 0.18043 0.6437 0.0
H1093 H 0.97617 0.20821 0.62995 0.0
H1094 H 0.96625 0.23863 0.64879 0.0
H1095 H 0.09344 0.2834 0.70076 0.0
H1096 H 0.15632 0.31054 0.67778 0.0
H1097 H 0.06255 0.22479 0.63344 0.0
C1098 C 0.92283 0.16001 0.68662 0.0
C1099 C 0.915 0.16241 0.70648 0.0
C1100 C 0.95149 0.19281 0.71832 0.0
C1101 C 0.99494 0.22042 0.71066 0.0
C1102 C 1.00169 0.21702 0.69113 0.0
C1103 C 0.96686 0.1874 0.67924 0.0
C1104 C 0.98435 0.18864 0.659 0.0
C1105 C 0.97777 0.14197 0.65329 0.0
C1106 C 0.96142 0.20496 0.6445 0.0
C1107 C 0.03437 0.22353 0.66142 0.0
C1108 C 0.04331 0.23959 0.68007 0.0
C1109 C 0.08687 0.27121 0.68609 0.0
C1110 C 0.12247 0.28648 0.67283 0.0
C1111 C 0.11473 0.2701 0.65365 0.0
C1112 C 0.06976 0.23842 0.64789 0.0
H1113 H 0.76713 0.88888 0.00639 0.0
H1114 H 0.7871 0.93465 0.06566 0.0
H1115 H 0.8192 0.01392 0.05456 0.0
H1116 H 0.87219 0.98396 0.98873 0.0
H1117 H 0.84823 0.98636 0.96596 0.0
H1118 H 0.82588 0.93309 0.97855 0.0
H1119 H 0.74549 0.92376 0.97754 0.0
H1120 H 0.76761 0.97713 0.96505 0.0
H1121 H 0.73671 0.96804 0.98718 0.0
H1122 H 0.84685 0.08791 0.03711 0.0
H1123 H 0.87539 0.15247 0.01473 0.0
H1124 H 0.84152 0.05978 0.96652 0.0
C1125 C 0.77824 0.91558 0.01704 0.0
C1126 C 0.77434 0.90545 0.03694 0.0
C1127 C 0.78983 0.9415 0.05037 0.0
C1128 C 0.80791 0.98664 0.0442 0.0
C1129 C 0.81094 0.9954 0.02452 0.0
C1130 C 0.7972 0.961 0.01112 0.0
C1131 C 0.80589 0.97995 0.99082 0.0
C1132 C 0.84007 0.97026 0.98041 0.0
C1133 C 0.76126 0.96109 0.97948 0.0
C1134 C 0.82615 0.03031 0.9949 0.0
C1135 C 0.82839 0.03835 0.01444 0.0
C1136 C 0.84549 0.08203 0.02179 0.0
C1137 C 0.86153 0.11857 0.00888 0.0
C1138 C 0.8609 0.11154 0.98876 0.0
C1139 C 0.84247 0.06653 0.98176 0.0
H1140 H 0.78203 0.84424 0.29091 0.0
H1141 H 0.68516 0.83298 0.33435 0.0
H1142 H 0.71078 0.79225 0.35546 0.0
H1143 H 0.77297 0.73264 0.30035 0.0
H1144 H 0.83273 0.75412 0.29662 0.0
H1145 H 0.80431 0.77915 0.28398 0.0
H1146 H 0.86254 0.85825 0.2974 0.0
H1147 H 0.89105 0.83354 0.31016 0.0
H1148 H 0.87078 0.86601 0.323 0.0
H1149 H 0.75134 0.76005 0.37333 0.0
H1150 H 0.80236 0.7344 0.3863 0.0
H1151 H 0.87202 0.76281 0.33151 0.0
C1152 C 0.76553 0.83238 0.30469 0.0
C1153 C 0.7313 0.84184 0.31084 0.0
C1154 C 0.71125 0.82624 0.32916 0.0
C1155 C 0.72559 0.80297 0.34133 0.0
C1156 C 0.75994 0.79515 0.33504 0.0
C1157 C 0.77948 0.80895 0.3171 0.0
C1158 C 0.81736 0.79794 0.31436 0.0
C1159 C 0.80616 0.76393 0.29785 0.0
C1160 C 0.86314 0.84153 0.31103 0.0
C1161 C 0.81638 0.77644 0.33366 0.0
C1162 C 0.78294 0.77533 0.34532 0.0
C1163 C 0.77713 0.76001 0.36424 0.0
C1164 C 0.80634 0.74564 0.3715 0.0
C1165 C 0.84067 0.74609 0.35985 0.0
C1166 C 0.84538 0.76119 0.34059 0.0
H1167 H 0.06494 0.84213 0.70951 0.0
H1168 H 0.15568 0.84492 0.66488 0.0
H1169 H 0.09201 0.81094 0.64214 0.0
H1170 H 0.96648 0.73314 0.69481 0.0
H1171 H 0.92624 0.75135 0.70037 0.0
H1172 H 0.97866 0.77416 0.71362 0.0
H1173 H 0.99737 0.85578 0.70471 0.0
H1174 H 0.9452 0.83326 0.69133 0.0
H1175 H 0.99853 0.87074 0.67979 0.0
H1176 H 0.02051 0.78367 0.62315 0.0
H1177 H 0.94332 0.75665 0.61027 0.0
H1178 H 0.89703 0.76614 0.66722 0.0
C1179 C 0.07131 0.83485 0.69506 0.0
C1180 C 0.11568 0.84651 0.68909 0.0
C1181 C 0.1223 0.83659 0.66994 0.0
C1182 C 0.08626 0.81727 0.65682 0.0
C1183 C 0.04338 0.80734 0.66301 0.0
C1184 C 0.03546 0.81503 0.68174 0.0
C1185 C 0.98599 0.80152 0.68452 0.0
C1186 C 0.96299 0.76273 0.6992 0.0
C1187 C 0.98153 0.84278 0.69044 0.0
C1188 C 0.96763 0.7855 0.6644 0.0
C1189 C 1.00147 0.78963 0.65218 0.0
C1190 C 0.99352 0.77957 0.63264 0.0
C1191 C 0.9497 0.76446 0.62543 0.0
C1192 C 0.91421 0.7588 0.63777 0.0
C1193 C 0.92339 0.76937 0.65752 0.0
H1194 H 0.02049 0.17975 0.98967 0.0
H1195 H 0.07703 0.32431 0.98032 0.0
H1196 H 0.15038 0.33859 0.994 0.0
H1197 H 0.07623 0.19108 0.03553 0.0
H1198 H 0.08407 0.14312 0.0312 0.0
H1199 H 0.03665 0.14487 0.02057 0.0
H1200 H 0.062 0.13382 0.98684 0.0
H1201 H 0.10973 0.13244 0.99734 0.0
H1202 H 0.11872 0.17284 0.97865 0.0
H1203 H 0.21889 0.33583 0.00661 0.0
H1204 H 0.27429 0.31776 0.02141 0.0
H1205 H 0.17032 0.1757 0.02477 0.0
C1206 C 0.0483 0.21443 0.9906 0.0
C1207 C 0.04349 0.25101 0.9839 0.0
C1208 C 0.08024 0.29596 0.9855 0.0
C1209 C 0.12196 0.30429 0.99311 0.0
C1210 C 0.12583 0.26732 0.99935 0.0
C1211 C 0.08967 0.22338 0.99854 0.0
C1212 C 0.10202 0.18974 0.00679 0.0
C1213 C 0.07302 0.16581 0.02458 0.0
C1214 C 0.09787 0.15518 0.99149 0.0
C1215 C 0.15102 0.22152 0.01217 0.0
C1216 C 0.16436 0.26604 0.00752 0.0
C1217 C 0.20869 0.30118 0.0105 0.0
C1218 C 0.23994 0.29059 0.01876 0.0
C1219 C 0.22636 0.24545 0.02423 0.0
C1220 C 0.1814 0.21056 0.02083 0.0
H1221 H 0.82952 0.00984 0.3224 0.0
H1222 H 0.74014 0.06517 0.31404 0.0
H1223 H 0.80022 0.13967 0.32641 0.0
H1224 H 0.8819 0.07142 0.36686 0.0
H1225 H 0.93643 0.07827 0.36065 0.0
H1226 H 0.88527 0.02957 0.35211 0.0
H1227 H 0.91504 0.0502 0.31715 0.0
H1228 H 0.96582 0.09955 0.32554 0.0
H1229 H 0.93049 0.10558 0.30782 0.0
H1230 H 0.87332 0.20989 0.33737 0.0
H1231 H 0.94841 0.2663 0.35056 0.0
H1232 H 0.98747 0.16276 0.3524 0.0
C1233 C 0.82227 0.03742 0.32352 0.0
C1234 C 0.78026 0.03191 0.31738 0.0
C1235 C 0.77197 0.06868 0.31896 0.0
C1236 C 0.80603 0.11114 0.32576 0.0
C1237 C 0.84773 0.11582 0.33112 0.0
C1238 C 0.85548 0.07957 0.33047 0.0
C1239 C 0.90289 0.09301 0.3371 0.0
C1240 C 0.90152 0.0665 0.35526 0.0
C1241 C 0.93015 0.08671 0.32094 0.0
C1242 C 0.92095 0.14268 0.34144 0.0
C1243 C 0.88895 0.15549 0.33773 0.0
C1244 C 0.89849 0.20011 0.34044 0.0
C1245 C 0.94132 0.23202 0.34772 0.0
C1246 C 0.97364 0.21883 0.35239 0.0
C1247 C 0.9634 0.17378 0.3489 0.0
H1248 H 0.83276 0.83722 0.66039 0.0
H1249 H 0.68829 0.74357 0.65521 0.0
H1250 H 0.67264 0.79991 0.67096 0.0
H1251 H 0.82769 0.88316 0.70764 0.0
H1252 H 0.8727 0.93937 0.70157 0.0
H1253 H 0.87146 0.89032 0.69102 0.0
H1254 H 0.87406 0.92302 0.65708 0.0
H1255 H 0.87445 0.97174 0.66748 0.0
H1256 H 0.83127 0.93696 0.6503 0.0
H1257 H 0.67388 0.87069 0.68408 0.0
H1258 H 0.69143 0.94487 0.69809 0.0
H1259 H 0.83507 0.98911 0.6962 0.0
C1260 C 0.79783 0.82823 0.66298 0.0
C1261 C 0.76162 0.78616 0.65676 0.0
C1262 C 0.71637 0.77547 0.6602 0.0
C1263 C 0.70726 0.80739 0.66894 0.0
C1264 C 0.74386 0.84927 0.6744 0.0
C1265 C 0.78824 0.8592 0.67196 0.0
C1266 C 0.82164 0.90649 0.67896 0.0
C1267 C 0.85003 0.90471 0.6958 0.0
C1268 C 0.85214 0.93629 0.66247 0.0
C1269 C 0.78922 0.92205 0.68549 0.0
C1270 C 0.7445 0.8889 0.68256 0.0
C1271 C 0.70873 0.89661 0.68669 0.0
C1272 C 0.71899 0.93888 0.69445 0.0
C1273 C 0.76451 0.97242 0.69824 0.0
C1274 C 0.79992 0.96385 0.69357 0.0
H1275 H 0.80681 0.77947 0.00435 0.0
H1276 H 0.79781 0.7035 0.05575 0.0
H1277 H 0.85784 0.68945 0.0432 0.0
H1278 H 0.8337 0.7134 0.97 0.0
H1279 H 0.8736 0.76341 0.95696 0.0
H1280 H 0.82579 0.76204 0.96881 0.0
H1281 H 0.88041 0.83521 0.98754 0.0
H1282 H 0.9283 0.83673 0.97582 0.0
H1283 H 0.92546 0.83644 1.00168 0.0
H1284 H 0.92189 0.68735 0.02565 0.0
H1285 H 0.98763 0.70131 0.00554 0.0
H1286 H 0.95773 0.78367 0.96705 0.0
C1287 C 0.81674 0.75887 0.01266 0.0
C1288 C 0.7975 0.74188 0.03082 0.0
C1289 C 0.8122 0.71646 0.04172 0.0
C1290 C 0.84606 0.7082 0.03468 0.0
C1291 C 0.86516 0.72614 0.01683 0.0
C1292 C 0.8512 0.75119 0.00602 0.0
C1293 C 0.88018 0.77052 0.98824 0.0
C1294 C 0.8516 0.75117 0.96992 0.0
C1295 C 0.90506 0.82281 0.98834 0.0
C1296 C 0.91289 0.75292 0.99087 0.0
C1297 C 0.90329 0.72675 0.00723 0.0
C1298 C 0.92957 0.70759 0.01273 0.0
C1299 C 0.96684 0.7157 1.00122 0.0
C1300 C 0.97785 0.74336 0.98461 0.0
C1301 C 0.9502 0.76194 0.97947 0.0
H1302 H 0.0151 0.8423 0.34883 0.0
H1303 H 0.05921 0.74253 0.34946 0.0
H1304 H 0.13214 0.7987 0.3345 0.0
H1305 H 0.0661 0.89257 0.30246 0.0
H1306 H 0.08036 0.94893 0.31 0.0
H1307 H 0.0316 0.90015 0.32009 0.0
H1308 H 0.06363 0.92779 0.35432 0.0
H1309 H 0.11273 0.97634 0.34434 0.0
H1310 H 0.1197 0.93827 0.36019 0.0
H1311 H 0.20304 0.86887 0.3222 0.0
H1312 H 0.26181 0.9435 0.30947 0.0
H1313 H 0.1682 0.9946 0.31517 0.0
C1314 C 0.03991 0.8321 0.3456 0.0
C1315 C 0.03175 0.78822 0.35029 0.0
C1316 C 0.0648 0.77594 0.3458 0.0
C1317 C 0.10635 0.80769 0.33745 0.0
C1318 C 0.11373 0.85111 0.33339 0.0
C1319 C 0.08096 0.86294 0.33696 0.0
C1320 C 0.09683 0.9115 0.33113 0.0
C1321 C 0.06695 0.91338 0.31496 0.0
C1322 C 0.09831 0.94015 0.34853 0.0
C1323 C 0.14402 0.92554 0.32399 0.0
C1324 C 0.15344 0.8905 0.32558 0.0
C1325 C 0.19579 0.89633 0.32065 0.0
C1326 C 0.22903 0.93884 0.31359 0.0
C1327 C 0.21935 0.97456 0.31127 0.0
C1328 C 0.17634 0.96769 0.31661 0.0
H1329 H 0.18734 0.00992 0.6784 0.0
H1330 H 0.33145 0.06293 0.68695 0.0
H1331 H 0.34723 0.13699 0.67337 0.0
H1332 H 0.19696 0.07008 0.63307 0.0
H1333 H 0.15023 0.07854 0.63927 0.0
H1334 H 0.15164 0.02937 0.64808 0.0
H1335 H 0.14378 0.05146 0.68293 0.0
H1336 H 0.14321 0.10113 0.6743 0.0
H1337 H 0.18456 0.10682 0.69194 0.0
H1338 H 0.34557 0.20777 0.66215 0.0
H1339 H 0.32773 0.26592 0.65028 0.0
H1340 H 0.18477 0.1641 0.64832 0.0
C1341 C 0.22232 0.0368 0.677 0.0
C1342 C 0.25827 0.03084 0.6836 0.0
C1343 C 0.30355 0.06675 0.68169 0.0
C1344 C 0.31272 0.10895 0.67416 0.0
C1345 C 0.27623 0.11416 0.6684 0.0
C1346 C 0.232 0.07864 0.66937 0.0
C1347 C 0.19859 0.09286 0.66271 0.0
C1348 C 0.17285 0.06613 0.64471 0.0
C1349 C 0.16561 0.08777 0.67894 0.0
C1350 C 0.23077 0.14223 0.65808 0.0
C1351 C 0.2754 0.15413 0.66157 0.0
C1352 C 0.31081 0.19862 0.65912 0.0
C1353 C 0.30034 0.23147 0.65254 0.0
C1354 C 0.25492 0.21942 0.64831 0.0
C1355 C 0.21987 0.17425 0.65126 0.0
loop_
_geom_bond_atom_site_label_1
_geom_bond_atom_site_label_2
_geom_bond_distance
_geom_bond_site_symmetry_2
_ccdc_geom_bond_type
Co0 O2 2.143 . S
Co0 O8 2.074 . S
Co0 O11 2.093 . S
Co0 O24 2.097 . S
Co0 N41 2.151 . S
Co0 N49 2.214 1_554 S
Co1 O2 2.160 . S
Co1 O7 2.058 . S
Co1 O17 2.057 . S
Co1 O32 2.037 . S
Co1 N36 2.145 . S
Co1 N57 2.257 . S
O2 Co0 2.143 . S
O2 Co1 2.160 . S
C3 O4 1.278 . S
C3 O11 1.224 . S
O4 C3 1.278 . S
C5 O6 1.245 . S
C5 O17 1.232 . S
O6 C5 1.245 . S
O7 Co1 2.058 . S
O7 C33 1.269 . S
O8 Co0 2.074 . S
O8 C33 1.257 . S
H9 C34 0.930 . S
H10 C40 0.930 . S
O11 Co0 2.093 . S
O11 C3 1.224 . S
H12 C44 0.929 . S
H13 C46 0.930 . S
H14 C47 0.930 . S
H15 C45 0.929 . S
H16 C48 0.928 . S
O17 Co1 2.057 . S
O17 C5 1.232 . S
H18 C37 0.929 . S
H19 C38 0.929 . S
H20 C50 0.931 . S
H21 C42 0.929 . S
H22 C51 0.930 . S
H23 C43 0.931 . S
O24 Co0 2.097 . S
O24 C52 1.214 . S
H25 C53 0.929 . S
H26 C54 0.929 . S
H27 C55 0.930 . S
H28 C56 0.929 . S
H29 C58 0.930 . S
H30 C35 0.930 . S
H31 C39 0.930 . S
O32 Co1 2.037 . S
O32 C52 1.234 . S
C33 O7 1.269 . S
C33 O8 1.257 . S
C34 H9 0.930 . S
C34 C37 1.388 . S
C34 C39 1.418 . S
C35 H30 0.930 . S
C35 C38 1.404 . S
C35 C39 1.353 . S
N36 Co1 2.145 . S
N36 C37 1.397 . S
N36 C38 1.334 . S
C37 H18 0.929 . S
C37 C34 1.388 . S
C37 N36 1.397 . S
C38 H19 0.929 . S
C38 C35 1.404 . S
C38 N36 1.334 . S
C39 H31 0.930 . S
C39 C34 1.418 . S
C39 C35 1.353 . S
C40 H10 0.930 . S
C40 N41 1.330 . S
C40 C42 1.446 . S
N41 Co0 2.151 . S
N41 C40 1.330 . S
N41 C45 1.418 . S
C42 H21 0.929 . S
C42 C40 1.446 . S
C42 C43 1.332 . S
C43 H23 0.931 . S
C43 C42 1.332 . S
C43 C44 1.267 . S
C44 H12 0.929 . S
C44 C43 1.267 . S
C44 C45 1.251 . S
C45 H15 0.929 . S
C45 N41 1.418 . S
C45 C44 1.251 . S
C46 H13 0.930 . S
C46 C48 1.406 . S
C46 C51 1.261 . S
C47 H14 0.930 . S
C47 N49 1.325 . S
C47 C50 1.357 . S
C48 H16 0.928 . S
C48 C46 1.406 . S
C48 N49 1.261 . S
N49 Co0 2.214 1_556 S
N49 C47 1.325 . S
N49 C48 1.261 . S
C50 H20 0.931 . S
C50 C47 1.357 . S
C50 C51 1.312 . S
C51 H22 0.930 . S
C51 C46 1.261 . S
C51 C50 1.312 . S
C52 O24 1.214 . S
C52 O32 1.234 . S
C53 H25 0.929 . S
C53 C56 1.391 . S
C53 C58 1.391 . S
C54 H26 0.929 . S
C54 C55 1.390 . S
C54 N57 1.391 . S
C55 H27 0.930 . S
C55 C54 1.390 . S
C55 C56 1.392 . S
C56 H28 0.929 . S
C56 C53 1.391 . S
C56 C55 1.392 . S
N57 Co1 2.257 . S
N57 C54 1.391 . S
N57 C58 1.388 . S
C58 H29 0.930 . S
C58 C53 1.391 . S
C58 N57 1.388 . S
Co59 O61 2.143 . S
Co59 O67 2.074 . S
Co59 O70 2.093 . S
Co59 O83 2.097 . S
Co59 N100 2.151 . S
Co59 N108 2.214 . S
Co60 O61 2.160 . S
Co60 O66 2.058 . S
Co60 O76 2.057 . S
Co60 O91 2.037 . S
Co60 N95 2.145 . S
Co60 N116 2.257 . S
O61 Co59 2.143 . S
O61 Co60 2.160 . S
C62 O63 1.278 . S
C62 O70 1.224 . S
O63 C62 1.278 . S
C64 O65 1.245 . S
C64 O76 1.232 . S
O65 C64 1.245 . S
O66 Co60 2.058 . S
O66 C92 1.269 . S
O67 Co59 2.074 . S
O67 C92 1.257 . S
H68 C93 0.930 . S
H69 C99 0.930 . S
O70 Co59 2.093 . S
O70 C62 1.224 . S
H71 C103 0.929 . S
H72 C105 0.930 . S
H73 C106 0.930 . S
H74 C104 0.929 . S
H75 C107 0.928 . S
O76 Co60 2.057 . S
O76 C64 1.232 . S
H77 C96 0.929 . S
H78 C97 0.929 . S
H79 C109 0.931 . S
H80 C101 0.929 . S
H81 C110 0.930 . S
H82 C102 0.931 . S
O83 Co59 2.097 . S
O83 C111 1.214 . S
H84 C112 0.929 . S
H85 C113 0.929 . S
H86 C114 0.930 . S
H87 C115 0.929 . S
H88 C117 0.930 . S
H89 C94 0.930 . S
H90 C98 0.930 . S
O91 Co60 2.037 . S
O91 C111 1.234 . S
C92 O66 1.269 . S
C92 O67 1.257 . S
C93 H68 0.930 . S
C93 C96 1.388 . S
C93 C98 1.418 . S
C94 H89 0.930 . S
C94 C97 1.404 . S
C94 C98 1.353 . S
N95 Co60 2.145 . S
N95 C96 1.397 . S
N95 C97 1.334 . S
C96 H77 0.929 . S
C96 C93 1.388 . S
C96 N95 1.397 . S
C97 H78 0.929 . S
C97 C94 1.404 . S
C97 N95 1.334 . S
C98 H90 0.930 . S
C98 C93 1.418 . S
C98 C94 1.353 . S
C99 H69 0.930 . S
C99 N100 1.330 . S
C99 C101 1.446 . S
N100 Co59 2.151 . S
N100 C99 1.330 . S
N100 C104 1.418 . S
C101 H80 0.929 . S
C101 C99 1.446 . S
C101 C102 1.332 . S
C102 H82 0.931 . S
C102 C101 1.332 . S
C102 C103 1.267 . S
C103 H71 0.929 . S
C103 C102 1.267 . S
C103 C104 1.251 . S
C104 H74 0.929 . S
C104 N100 1.418 . S
C104 C103 1.251 . S
C105 H72 0.930 . S
C105 C107 1.406 . S
C105 C110 1.261 . S
C106 H73 0.930 . S
C106 N108 1.325 . S
C106 C109 1.357 . S
C107 H75 0.928 . S
C107 C105 1.406 . S
C107 N108 1.261 . S
N108 Co59 2.214 . S
N108 C106 1.325 . S
N108 C107 1.261 . S
C109 H79 0.931 . S
C109 C106 1.357 . S
C109 C110 1.312 . S
C110 H81 0.930 . S
C110 C105 1.261 . S
C110 C109 1.312 . S
C111 O83 1.214 . S
C111 O91 1.234 . S
C112 H84 0.929 . S
C112 C115 1.391 . S
C112 C117 1.391 1_655 S
C113 H85 0.929 . S
C113 C114 1.390 . S
C113 N116 1.391 1_655 S
C114 H86 0.930 . S
C114 C113 1.390 . S
C114 C115 1.392 . S
C115 H87 0.929 . S
C115 C112 1.391 . S
C115 C114 1.392 . S
N116 Co60 2.257 . S
N116 C113 1.391 1_455 S
N116 C117 1.388 . S
C117 H88 0.930 . S
C117 C112 1.391 1_455 S
C117 N116 1.388 . S
Co118 O120 2.143 . S
Co118 O126 2.074 . S
Co118 O129 2.093 . S
Co118 O142 2.097 . S
Co118 N159 2.151 . S
Co118 N167 2.214 . S
Co119 O120 2.160 . S
Co119 O125 2.058 . S
Co119 O135 2.057 . S
Co119 O150 2.037 . S
Co119 N154 2.145 . S
Co119 N175 2.257 . S
O120 Co118 2.143 . S
O120 Co119 2.160 . S
C121 O122 1.278 . S
C121 O129 1.224 . S
O122 C121 1.278 . S
C123 O124 1.245 . S
C123 O135 1.232 . S
O124 C123 1.245 . S
O125 Co119 2.058 . S
O125 C151 1.269 . S
O126 Co118 2.074 . S
O126 C151 1.257 . S
H127 C152 0.930 . S
H128 C158 0.930 . S
O129 Co118 2.093 . S
O129 C121 1.224 . S
H130 C162 0.929 . S
H131 C164 0.930 . S
H132 C165 0.930 . S
H133 C163 0.929 . S
H134 C166 0.928 . S
O135 Co119 2.057 . S
O135 C123 1.232 . S
H136 C155 0.929 . S
H137 C156 0.929 . S
H138 C168 0.931 . S
H139 C160 0.929 . S
H140 C169 0.930 . S
H141 C161 0.931 . S
O142 Co118 2.097 . S
O142 C170 1.214 . S
H143 C171 0.929 . S
H144 C172 0.929 . S
H145 C173 0.930 . S
H146 C174 0.929 . S
H147 C176 0.930 . S
H148 C153 0.930 . S
H149 C157 0.930 . S
O150 Co119 2.037 . S
O150 C170 1.234 . S
C151 O125 1.269 . S
C151 O126 1.257 . S
C152 H127 0.930 . S
C152 C155 1.388 . S
C152 C157 1.418 . S
C153 H148 0.930 . S
C153 C156 1.404 . S
C153 C157 1.353 . S
N154 Co119 2.145 . S
N154 C155 1.397 . S
N154 C156 1.334 . S
C155 H136 0.929 . S
C155 C152 1.388 . S
C155 N154 1.397 . S
C156 H137 0.929 . S
C156 C153 1.404 . S
C156 N154 1.334 . S
C157 H149 0.930 . S
C157 C152 1.418 . S
C157 C153 1.353 . S
C158 H128 0.930 . S
C158 N159 1.330 . S
C158 C160 1.446 . S
N159 Co118 2.151 . S
N159 C158 1.330 . S
N159 C163 1.418 . S
C160 H139 0.929 . S
C160 C158 1.446 . S
C160 C161 1.332 . S
C161 H141 0.931 . S
C161 C160 1.332 . S
C161 C162 1.267 . S
C162 H130 0.929 . S
C162 C161 1.267 . S
C162 C163 1.251 . S
C163 H133 0.929 . S
C163 N159 1.418 . S
C163 C162 1.251 . S
C164 H131 0.930 . S
C164 C166 1.406 . S
C164 C169 1.261 . S
C165 H132 0.930 . S
C165 N167 1.325 . S
C165 C168 1.357 . S
C166 H134 0.928 . S
C166 C164 1.406 . S
C166 N167 1.261 . S
N167 Co118 2.214 . S
N167 C165 1.325 . S
N167 C166 1.261 . S
C168 H138 0.931 . S
C168 C165 1.357 . S
C168 C169 1.312 . S
C169 H140 0.930 . S
C169 C164 1.261 . S
C169 C168 1.312 . S
C170 O142 1.214 . S
C170 O150 1.234 . S
C171 H143 0.929 . S
C171 C174 1.391 . S
C171 C176 1.391 1_565 S
C172 H144 0.929 . S
C172 C173 1.390 . S
C172 N175 1.391 1_565 S
C173 H145 0.930 . S
C173 C172 1.390 . S
C173 C174 1.392 . S
C174 H146 0.929 . S
C174 C171 1.391 . S
C174 C173 1.392 . S
N175 Co119 2.257 . S
N175 C172 1.391 1_545 S
N175 C176 1.388 . S
C176 H147 0.930 . S
C176 C171 1.391 1_545 S
C176 N175 1.388 . S
Co177 O179 2.143 . S
Co177 O185 2.074 . S
Co177 O188 2.093 . S
Co177 O201 2.097 . S
Co177 N218 2.151 . S
Co177 N226 2.214 1_554 S
Co178 O179 2.160 . S
Co178 O184 2.058 . S
Co178 O194 2.057 . S
Co178 O209 2.037 . S
Co178 N213 2.145 . S
Co178 N234 2.257 . S
O179 Co177 2.143 . S
O179 Co178 2.160 . S
C180 O181 1.278 . S
C180 O188 1.224 . S
O181 C180 1.278 . S
C182 O183 1.245 . S
C182 O194 1.232 . S
O183 C182 1.245 . S
O184 Co178 2.058 . S
O184 C210 1.269 . S
O185 Co177 2.074 . S
O185 C210 1.257 . S
H186 C211 0.930 . S
H187 C217 0.930 . S
O188 Co177 2.093 . S
O188 C180 1.224 . S
H189 C221 0.929 . S
H190 C223 0.930 . S
H191 C224 0.930 . S
H192 C222 0.929 . S
H193 C225 0.928 . S
O194 Co178 2.057 . S
O194 C182 1.232 . S
H195 C214 0.929 . S
H196 C215 0.929 . S
H197 C227 0.931 . S
H198 C219 0.929 . S
H199 C228 0.930 . S
H200 C220 0.931 . S
O201 Co177 2.097 . S
O201 C229 1.214 . S
H202 C230 0.929 . S
H203 C231 0.929 . S
H204 C232 0.930 . S
H205 C233 0.929 . S
H206 C235 0.930 . S
H207 C212 0.930 . S
H208 C216 0.930 . S
O209 Co178 2.037 . S
O209 C229 1.234 . S
C210 O184 1.269 . S
C210 O185 1.257 . S
C211 H186 0.930 . S
C211 C214 1.388 . S
C211 C216 1.418 . S
C212 H207 0.930 . S
C212 C215 1.404 . S
C212 C216 1.353 . S
N213 Co178 2.145 . S
N213 C214 1.397 . S
N213 C215 1.334 . S
C214 H195 0.929 . S
C214 C211 1.388 . S
C214 N213 1.397 . S
C215 H196 0.929 . S
C215 C212 1.404 . S
C215 N213 1.334 . S
C216 H208 0.930 . S
C216 C211 1.418 . S
C216 C212 1.353 . S
C217 H187 0.930 . S
C217 N218 1.330 . S
C217 C219 1.446 . S
N218 Co177 2.151 . S
N218 C217 1.330 . S
N218 C222 1.418 . S
C219 H198 0.929 . S
C219 C217 1.446 . S
C219 C220 1.332 . S
C220 H200 0.931 . S
C220 C219 1.332 . S
C220 C221 1.267 . S
C221 H189 0.929 . S
C221 C220 1.267 . S
C221 C222 1.251 . S
C222 H192 0.929 . S
C222 N218 1.418 . S
C222 C221 1.251 . S
C223 H190 0.930 . S
C223 C225 1.406 . S
C223 C228 1.261 . S
C224 H191 0.930 . S
C224 N226 1.325 . S
C224 C227 1.357 . S
C225 H193 0.928 . S
C225 C223 1.406 . S
C225 N226 1.261 . S
N226 Co177 2.214 1_556 S
N226 C224 1.325 . S
N226 C225 1.261 . S
C227 H197 0.931 . S
C227 C224 1.357 . S
C227 C228 1.312 . S
C228 H199 0.930 . S
C228 C223 1.261 . S
C228 C227 1.312 . S
C229 O201 1.214 . S
C229 O209 1.234 . S
C230 H202 0.929 . S
C230 C233 1.391 . S
C230 C235 1.391 . S
C231 H203 0.929 . S
C231 C232 1.390 . S
C231 N234 1.391 . S
C232 H204 0.930 . S
C232 C231 1.390 . S
C232 C233 1.392 . S
C233 H205 0.929 . S
C233 C230 1.391 . S
C233 C232 1.392 . S
N234 Co178 2.257 . S
N234 C231 1.391 . S
N234 C235 1.388 . S
C235 H206 0.930 . S
C235 C230 1.391 . S
C235 N234 1.388 . S
Co236 O238 2.143 . S
Co236 O244 2.074 . S
Co236 O247 2.093 . S
Co236 O260 2.097 . S
Co236 N277 2.151 . S
Co236 N285 2.214 . S
Co237 O238 2.160 . S
Co237 O243 2.058 . S
Co237 O253 2.057 . S
Co237 O268 2.037 . S
Co237 N272 2.145 . S
Co237 N293 2.257 . S
O238 Co236 2.143 . S
O238 Co237 2.160 . S
C239 O240 1.278 . S
C239 O247 1.224 . S
O240 C239 1.278 . S
C241 O242 1.245 . S
C241 O253 1.232 . S
O242 C241 1.245 . S
O243 Co237 2.058 . S
O243 C269 1.269 . S
O244 Co236 2.074 . S
O244 C269 1.257 . S
H245 C270 0.930 . S
H246 C276 0.930 . S
O247 Co236 2.093 . S
O247 C239 1.224 . S
H248 C280 0.929 . S
H249 C282 0.930 . S
H250 C283 0.930 . S
H251 C281 0.929 . S
H252 C284 0.928 . S
O253 Co237 2.057 . S
O253 C241 1.232 . S
H254 C273 0.929 . S
H255 C274 0.929 . S
H256 C286 0.931 . S
H257 C278 0.929 . S
H258 C287 0.930 . S
H259 C279 0.931 . S
O260 Co236 2.097 . S
O260 C288 1.214 . S
H261 C289 0.929 . S
H262 C290 0.929 . S
H263 C291 0.930 . S
H264 C292 0.929 . S
H265 C294 0.930 . S
H266 C271 0.930 . S
H267 C275 0.930 . S
O268 Co237 2.037 . S
O268 C288 1.234 . S
C269 O243 1.269 . S
C269 O244 1.257 . S
C270 H245 0.930 . S
C270 C273 1.388 . S
C270 C275 1.418 . S
C271 H266 0.930 . S
C271 C274 1.404 . S
C271 C275 1.353 . S
N272 Co237 2.145 . S
N272 C273 1.397 . S
N272 C274 1.334 . S
C273 H254 0.929 . S
C273 C270 1.388 . S
C273 N272 1.397 . S
C274 H255 0.929 . S
C274 C271 1.404 . S
C274 N272 1.334 . S
C275 H267 0.930 . S
C275 C270 1.418 . S
C275 C271 1.353 . S
C276 H246 0.930 . S
C276 N277 1.330 . S
C276 C278 1.446 . S
N277 Co236 2.151 . S
N277 C276 1.330 . S
N277 C281 1.418 . S
C278 H257 0.929 . S
C278 C276 1.446 . S
C278 C279 1.332 . S
C279 H259 0.931 . S
C279 C278 1.332 . S
C279 C280 1.267 . S
C280 H248 0.929 . S
C280 C279 1.267 . S
C280 C281 1.251 . S
C281 H251 0.929 . S
C281 N277 1.418 . S
C281 C280 1.251 . S
C282 H249 0.930 . S
C282 C284 1.406 . S
C282 C287 1.261 . S
C283 H250 0.930 . S
C283 N285 1.325 . S
C283 C286 1.357 . S
C284 H252 0.928 . S
C284 C282 1.406 . S
C284 N285 1.261 . S
N285 Co236 2.214 . S
N285 C283 1.325 . S
N285 C284 1.261 . S
C286 H256 0.931 . S
C286 C283 1.357 . S
C286 C287 1.312 . S
C287 H258 0.930 . S
C287 C282 1.261 . S
C287 C286 1.312 . S
C288 O260 1.214 . S
C288 O268 1.234 . S
C289 H261 0.929 . S
C289 C292 1.391 . S
C289 C294 1.391 1_455 S
C290 H262 0.929 . S
C290 C291 1.390 . S
C290 N293 1.391 1_455 S
C291 H263 0.930 . S
C291 C290 1.390 . S
C291 C292 1.392 . S
C292 H264 0.929 . S
C292 C289 1.391 . S
C292 C291 1.392 . S
N293 Co237 2.257 . S
N293 C290 1.391 1_655 S
N293 C294 1.388 . S
C294 H265 0.930 . S
C294 C289 1.391 1_655 S
C294 N293 1.388 . S
Co295 O297 2.143 . S
Co295 O303 2.074 . S
Co295 O306 2.093 . S
Co295 O319 2.097 . S
Co295 N336 2.151 . S
Co295 N344 2.214 . S
Co296 O297 2.160 . S
Co296 O302 2.058 . S
Co296 O312 2.057 . S
Co296 O327 2.037 . S
Co296 N331 2.145 . S
Co296 N352 2.257 . S
O297 Co295 2.143 . S
O297 Co296 2.160 . S
C298 O299 1.278 . S
C298 O306 1.224 . S
O299 C298 1.278 . S
C300 O301 1.245 . S
C300 O312 1.232 . S
O301 C300 1.245 . S
O302 Co296 2.058 . S
O302 C328 1.269 . S
O303 Co295 2.074 . S
O303 C328 1.257 . S
H304 C329 0.930 . S
H305 C335 0.930 . S
O306 Co295 2.093 . S
O306 C298 1.224 . S
H307 C339 0.929 . S
H308 C341 0.930 . S
H309 C342 0.930 . S
H310 C340 0.929 . S
H311 C343 0.928 . S
O312 Co296 2.057 . S
O312 C300 1.232 . S
H313 C332 0.929 . S
H314 C333 0.929 . S
H315 C345 0.931 . S
H316 C337 0.929 . S
H317 C346 0.930 . S
H318 C338 0.931 . S
O319 Co295 2.097 . S
O319 C347 1.214 . S
H320 C348 0.929 . S
H321 C349 0.929 . S
H322 C350 0.930 . S
H323 C351 0.929 . S
H324 C353 0.930 . S
H325 C330 0.930 . S
H326 C334 0.930 . S
O327 Co296 2.037 . S
O327 C347 1.234 . S
C328 O302 1.269 . S
C328 O303 1.257 . S
C329 H304 0.930 . S
C329 C332 1.388 . S
C329 C334 1.418 . S
C330 H325 0.930 . S
C330 C333 1.404 . S
C330 C334 1.353 . S
N331 Co296 2.145 . S
N331 C332 1.397 . S
N331 C333 1.334 . S
C332 H313 0.929 . S
C332 C329 1.388 . S
C332 N331 1.397 . S
C333 H314 0.929 . S
C333 C330 1.404 . S
C333 N331 1.334 . S
C334 H326 0.930 . S
C334 C329 1.418 . S
C334 C330 1.353 . S
C335 H305 0.930 . S
C335 N336 1.330 . S
C335 C337 1.446 . S
N336 Co295 2.151 . S
N336 C335 1.330 . S
N336 C340 1.418 . S
C337 H316 0.929 . S
C337 C335 1.446 . S
C337 C338 1.332 . S
C338 H318 0.931 . S
C338 C337 1.332 . S
C338 C339 1.267 . S
C339 H307 0.929 . S
C339 C338 1.267 . S
C339 C340 1.251 . S
C340 H310 0.929 . S
C340 N336 1.418 . S
C340 C339 1.251 . S
C341 H308 0.930 . S
C341 C343 1.406 . S
C341 C346 1.261 . S
C342 H309 0.930 . S
C342 N344 1.325 . S
C342 C345 1.357 . S
C343 H311 0.928 . S
C343 C341 1.406 . S
C343 N344 1.261 . S
N344 Co295 2.214 . S
N344 C342 1.325 . S
N344 C343 1.261 . S
C345 H315 0.931 . S
C345 C342 1.357 . S
C345 C346 1.312 . S
C346 H317 0.930 . S
C346 C341 1.261 . S
C346 C345 1.312 . S
C347 O319 1.214 . S
C347 O327 1.234 . S
C348 H320 0.929 . S
C348 C351 1.391 . S
C348 C353 1.391 1_545 S
C349 H321 0.929 . S
C349 C350 1.390 . S
C349 N352 1.391 1_545 S
C350 H322 0.930 . S
C350 C349 1.390 . S
C350 C351 1.392 . S
C351 H323 0.929 . S
C351 C348 1.391 . S
C351 C350 1.392 . S
N352 Co296 2.257 . S
N352 C349 1.391 1_565 S
N352 C353 1.388 . S
C353 H324 0.930 . S
C353 C348 1.391 1_565 S
C353 N352 1.388 . S
Co354 O356 2.143 . S
Co354 O362 2.074 . S
Co354 O365 2.093 . S
Co354 O378 2.097 . S
Co354 N395 2.151 . S
Co354 N403 2.214 . S
Co355 O356 2.160 . S
Co355 O361 2.058 . S
Co355 O371 2.057 . S
Co355 O386 2.037 . S
Co355 N390 2.145 . S
Co355 N411 2.257 . S
O356 Co354 2.143 . S
O356 Co355 2.160 . S
C357 O358 1.278 . S
C357 O365 1.224 . S
O358 C357 1.278 . S
C359 O360 1.245 . S
C359 O371 1.232 . S
O360 C359 1.245 . S
O361 Co355 2.058 . S
O361 C387 1.269 . S
O362 Co354 2.074 . S
O362 C387 1.257 . S
H363 C388 0.930 . S
H364 C394 0.930 . S
O365 Co354 2.093 . S
O365 C357 1.224 . S
H366 C398 0.929 . S
H367 C400 0.930 . S
H368 C401 0.930 . S
H369 C399 0.929 . S
H370 C402 0.928 . S
O371 Co355 2.057 . S
O371 C359 1.232 . S
H372 C391 0.929 . S
H373 C392 0.929 . S
H374 C404 0.931 . S
H375 C396 0.929 . S
H376 C405 0.930 . S
H377 C397 0.931 . S
O378 Co354 2.097 . S
O378 C406 1.214 . S
H379 C407 0.929 . S
H380 C408 0.929 . S
H381 C409 0.930 . S
H382 C410 0.929 . S
H383 C412 0.930 . S
H384 C389 0.930 . S
H385 C393 0.930 . S
O386 Co355 2.037 . S
O386 C406 1.234 . S
C387 O361 1.269 . S
C387 O362 1.257 . S
C388 H363 0.930 . S
C388 C391 1.388 . S
C388 C393 1.418 . S
C389 H384 0.930 . S
C389 C392 1.404 . S
C389 C393 1.353 . S
N390 Co355 2.145 . S
N390 C391 1.397 . S
N390 C392 1.334 . S
C391 H372 0.929 . S
C391 C388 1.388 . S
C391 N390 1.397 . S
C392 H373 0.929 . S
C392 C389 1.404 . S
C392 N390 1.334 . S
C393 H385 0.930 . S
C393 C388 1.418 . S
C393 C389 1.353 . S
C394 H364 0.930 . S
C394 N395 1.330 . S
C394 C396 1.446 . S
N395 Co354 2.151 . S
N395 C394 1.330 . S
N395 C399 1.418 . S
C396 H375 0.929 . S
C396 C394 1.446 . S
C396 C397 1.332 . S
C397 H377 0.931 . S
C397 C396 1.332 . S
C397 C398 1.267 . S
C398 H366 0.929 . S
C398 C397 1.267 . S
C398 C399 1.251 . S
C399 H369 0.929 . S
C399 N395 1.418 . S
C399 C398 1.251 . S
C400 H367 0.930 . S
C400 C402 1.406 . S
C400 C405 1.261 . S
C401 H368 0.930 . S
C401 N403 1.325 . S
C401 C404 1.357 . S
C402 H370 0.928 . S
C402 C400 1.406 . S
C402 N403 1.261 . S
N403 Co354 2.214 . S
N403 C401 1.325 . S
N403 C402 1.261 . S
C404 H374 0.931 . S
C404 C401 1.357 . S
C404 C405 1.312 . S
C405 H376 0.930 . S
C405 C400 1.261 . S
C405 C404 1.312 . S
C406 O378 1.214 . S
C406 O386 1.234 . S
C407 H379 0.929 . S
C407 C410 1.391 . S
C407 C412 1.391 . S
C408 H380 0.929 . S
C408 C409 1.390 . S
C408 N411 1.391 . S
C409 H381 0.930 . S
C409 C408 1.390 . S
C409 C410 1.392 . S
C410 H382 0.929 . S
C410 C407 1.391 . S
C410 C409 1.392 . S
N411 Co355 2.257 . S
N411 C408 1.391 . S
N411 C412 1.388 . S
C412 H383 0.930 . S
C412 C407 1.391 . S
C412 N411 1.388 . S
Co413 O415 2.143 . S
Co413 O421 2.074 . S
Co413 O424 2.093 . S
Co413 O437 2.097 . S
Co413 N454 2.151 . S
Co413 N462 2.214 1_556 S
Co414 O415 2.160 . S
Co414 O420 2.058 . S
Co414 O430 2.057 . S
Co414 O445 2.037 . S
Co414 N449 2.145 . S
Co414 N470 2.257 . S
O415 Co413 2.143 . S
O415 Co414 2.160 . S
C416 O417 1.278 . S
C416 O424 1.224 . S
O417 C416 1.278 . S
C418 O419 1.245 . S
C418 O430 1.232 . S
O419 C418 1.245 . S
O420 Co414 2.058 . S
O420 C446 1.269 . S
O421 Co413 2.074 . S
O421 C446 1.257 . S
H422 C447 0.930 . S
H423 C453 0.930 . S
O424 Co413 2.093 . S
O424 C416 1.224 . S
H425 C457 0.929 . S
H426 C459 0.930 . S
H427 C460 0.930 . S
H428 C458 0.929 . S
H429 C461 0.928 . S
O430 Co414 2.057 . S
O430 C418 1.232 . S
H431 C450 0.929 . S
H432 C451 0.929 . S
H433 C463 0.931 . S
H434 C455 0.929 . S
H435 C464 0.930 . S
H436 C456 0.931 . S
O437 Co413 2.097 . S
O437 C465 1.214 . S
H438 C466 0.929 . S
H439 C467 0.929 . S
H440 C468 0.930 . S
H441 C469 0.929 . S
H442 C471 0.930 . S
H443 C448 0.930 . S
H444 C452 0.930 . S
O445 Co414 2.037 . S
O445 C465 1.234 . S
C446 O420 1.269 . S
C446 O421 1.257 . S
C447 H422 0.930 . S
C447 C450 1.388 . S
C447 C452 1.418 . S
C448 H443 0.930 . S
C448 C451 1.404 . S
C448 C452 1.353 . S
N449 Co414 2.145 . S
N449 C450 1.397 . S
N449 C451 1.334 . S
C450 H431 0.929 . S
C450 C447 1.388 . S
C450 N449 1.397 . S
C451 H432 0.929 . S
C451 C448 1.404 . S
C451 N449 1.334 . S
C452 H444 0.930 . S
C452 C447 1.418 . S
C452 C448 1.353 . S
C453 H423 0.930 . S
C453 N454 1.330 . S
C453 C455 1.446 . S
N454 Co413 2.151 . S
N454 C453 1.330 . S
N454 C458 1.418 . S
C455 H434 0.929 . S
C455 C453 1.446 . S
C455 C456 1.332 . S
C456 H436 0.931 . S
C456 C455 1.332 . S
C456 C457 1.267 . S
C457 H425 0.929 . S
C457 C456 1.267 . S
C457 C458 1.251 . S
C458 H428 0.929 . S
C458 N454 1.418 . S
C458 C457 1.251 . S
C459 H426 0.930 . S
C459 C461 1.406 . S
C459 C464 1.261 . S
C460 H427 0.930 . S
C460 N462 1.325 . S
C460 C463 1.357 . S
C461 H429 0.928 . S
C461 C459 1.406 . S
C461 N462 1.261 . S
N462 Co413 2.214 1_554 S
N462 C460 1.325 . S
N462 C461 1.261 . S
C463 H433 0.931 . S
C463 C460 1.357 . S
C463 C464 1.312 . S
C464 H435 0.930 . S
C464 C459 1.261 . S
C464 C463 1.312 . S
C465 O437 1.214 . S
C465 O445 1.234 . S
C466 H438 0.929 . S
C466 C469 1.391 . S
C466 C471 1.391 1_655 S
C467 H439 0.929 . S
C467 C468 1.390 . S
C467 N470 1.391 1_655 S
C468 H440 0.930 . S
C468 C467 1.390 . S
C468 C469 1.392 . S
C469 H441 0.929 . S
C469 C466 1.391 . S
C469 C468 1.392 . S
N470 Co414 2.257 . S
N470 C467 1.391 1_455 S
N470 C471 1.388 . S
C471 H442 0.930 . S
C471 C466 1.391 1_455 S
C471 N470 1.388 . S
Co472 O474 2.143 . S
Co472 O480 2.074 . S
Co472 O483 2.093 . S
Co472 O496 2.097 . S
Co472 N513 2.151 . S
Co472 N521 2.214 . S
Co473 O474 2.160 . S
Co473 O479 2.058 . S
Co473 O489 2.057 . S
Co473 O504 2.037 . S
Co473 N508 2.145 . S
Co473 N529 2.257 . S
O474 Co472 2.143 . S
O474 Co473 2.160 . S
C475 O476 1.278 . S
C475 O483 1.224 . S
O476 C475 1.278 . S
C477 O478 1.245 . S
C477 O489 1.232 . S
O478 C477 1.245 . S
O479 Co473 2.058 . S
O479 C505 1.269 . S
O480 Co472 2.074 . S
O480 C505 1.257 . S
H481 C506 0.930 . S
H482 C512 0.930 . S
O483 Co472 2.093 . S
O483 C475 1.224 . S
H484 C516 0.929 . S
H485 C518 0.930 . S
H486 C519 0.930 . S
H487 C517 0.929 . S
H488 C520 0.928 . S
O489 Co473 2.057 . S
O489 C477 1.232 . S
H490 C509 0.929 . S
H491 C510 0.929 . S
H492 C522 0.931 . S
H493 C514 0.929 . S
H494 C523 0.930 . S
H495 C515 0.931 . S
O496 Co472 2.097 . S
O496 C524 1.214 . S
H497 C525 0.929 . S
H498 C526 0.929 . S
H499 C527 0.930 . S
H500 C528 0.929 . S
H501 C530 0.930 . S
H502 C507 0.930 . S
H503 C511 0.930 . S
O504 Co473 2.037 . S
O504 C524 1.234 . S
C505 O479 1.269 . S
C505 O480 1.257 . S
C506 H481 0.930 . S
C506 C509 1.388 . S
C506 C511 1.418 . S
C507 H502 0.930 . S
C507 C510 1.404 . S
C507 C511 1.353 . S
N508 Co473 2.145 . S
N508 C509 1.397 . S
N508 C510 1.334 . S
C509 H490 0.929 . S
C509 C506 1.388 . S
C509 N508 1.397 . S
C510 H491 0.929 . S
C510 C507 1.404 . S
C510 N508 1.334 . S
C511 H503 0.930 . S
C511 C506 1.418 . S
C511 C507 1.353 . S
C512 H482 0.930 . S
C512 N513 1.330 . S
C512 C514 1.446 . S
N513 Co472 2.151 . S
N513 C512 1.330 . S
N513 C517 1.418 . S
C514 H493 0.929 . S
C514 C512 1.446 . S
C514 C515 1.332 . S
C515 H495 0.931 . S
C515 C514 1.332 . S
C515 C516 1.267 . S
C516 H484 0.929 . S
C516 C515 1.267 . S
C516 C517 1.251 . S
C517 H487 0.929 . S
C517 N513 1.418 . S
C517 C516 1.251 . S
C518 H485 0.930 . S
C518 C520 1.406 . S
C518 C523 1.261 . S
C519 H486 0.930 . S
C519 N521 1.325 . S
C519 C522 1.357 . S
C520 H488 0.928 . S
C520 C518 1.406 . S
C520 N521 1.261 . S
N521 Co472 2.214 . S
N521 C519 1.325 . S
N521 C520 1.261 . S
C522 H492 0.931 . S
C522 C519 1.357 . S
C522 C523 1.312 . S
C523 H494 0.930 . S
C523 C518 1.261 . S
C523 C522 1.312 . S
C524 O496 1.214 . S
C524 O504 1.234 . S
C525 H497 0.929 . S
C525 C528 1.391 . S
C525 C530 1.391 1_565 S
C526 H498 0.929 . S
C526 C527 1.390 . S
C526 N529 1.391 1_565 S
C527 H499 0.930 . S
C527 C526 1.390 . S
C527 C528 1.392 . S
C528 H500 0.929 . S
C528 C525 1.391 . S
C528 C527 1.392 . S
N529 Co473 2.257 . S
N529 C526 1.391 1_545 S
N529 C530 1.388 . S
C530 H501 0.930 . S
C530 C525 1.391 1_545 S
C530 N529 1.388 . S
Co531 O533 2.143 . S
Co531 O539 2.074 . S
Co531 O542 2.093 . S
Co531 O555 2.097 . S
Co531 N572 2.151 . S
Co531 N580 2.214 . S
Co532 O533 2.160 . S
Co532 O538 2.058 . S
Co532 O548 2.057 . S
Co532 O563 2.037 . S
Co532 N567 2.145 . S
Co532 N588 2.257 . S
O533 Co531 2.143 . S
O533 Co532 2.160 . S
C534 O535 1.278 . S
C534 O542 1.224 . S
O535 C534 1.278 . S
C536 O537 1.245 . S
C536 O548 1.232 . S
O537 C536 1.245 . S
O538 Co532 2.058 . S
O538 C564 1.269 . S
O539 Co531 2.074 . S
O539 C564 1.257 . S
H540 C565 0.930 . S
H541 C571 0.930 . S
O542 Co531 2.093 . S
O542 C534 1.224 . S
H543 C575 0.929 . S
H544 C577 0.930 . S
H545 C578 0.930 . S
H546 C576 0.929 . S
H547 C579 0.928 . S
O548 Co532 2.057 . S
O548 C536 1.232 . S
H549 C568 0.929 . S
H550 C569 0.929 . S
H551 C581 0.931 . S
H552 C573 0.929 . S
H553 C582 0.930 . S
H554 C574 0.931 . S
O555 Co531 2.097 . S
O555 C583 1.214 . S
H556 C584 0.929 . S
H557 C585 0.929 . S
H558 C586 0.930 . S
H559 C587 0.929 . S
H560 C589 0.930 . S
H561 C566 0.930 . S
H562 C570 0.930 . S
O563 Co532 2.037 . S
O563 C583 1.234 . S
C564 O538 1.269 . S
C564 O539 1.257 . S
C565 H540 0.930 . S
C565 C568 1.388 . S
C565 C570 1.418 . S
C566 H561 0.930 . S
C566 C569 1.404 . S
C566 C570 1.353 . S
N567 Co532 2.145 . S
N567 C568 1.397 . S
N567 C569 1.334 . S
C568 H549 0.929 . S
C568 C565 1.388 . S
C568 N567 1.397 . S
C569 H550 0.929 . S
C569 C566 1.404 . S
C569 N567 1.334 . S
C570 H562 0.930 . S
C570 C565 1.418 . S
C570 C566 1.353 . S
C571 H541 0.930 . S
C571 N572 1.330 . S
C571 C573 1.446 . S
N572 Co531 2.151 . S
N572 C571 1.330 . S
N572 C576 1.418 . S
C573 H552 0.929 . S
C573 C571 1.446 . S
C573 C574 1.332 . S
C574 H554 0.931 . S
C574 C573 1.332 . S
C574 C575 1.267 . S
C575 H543 0.929 . S
C575 C574 1.267 . S
C575 C576 1.251 . S
C576 H546 0.929 . S
C576 N572 1.418 . S
C576 C575 1.251 . S
C577 H544 0.930 . S
C577 C579 1.406 . S
C577 C582 1.261 . S
C578 H545 0.930 . S
C578 N580 1.325 . S
C578 C581 1.357 . S
C579 H547 0.928 . S
C579 C577 1.406 . S
C579 N580 1.261 . S
N580 Co531 2.214 . S
N580 C578 1.325 . S
N580 C579 1.261 . S
C581 H551 0.931 . S
C581 C578 1.357 . S
C581 C582 1.312 . S
C582 H553 0.930 . S
C582 C577 1.261 . S
C582 C581 1.312 . S
C583 O555 1.214 . S
C583 O563 1.234 . S
C584 H556 0.929 . S
C584 C587 1.391 . S
C584 C589 1.391 . S
C585 H557 0.929 . S
C585 C586 1.390 . S
C585 N588 1.391 . S
C586 H558 0.930 . S
C586 C585 1.390 . S
C586 C587 1.392 . S
C587 H559 0.929 . S
C587 C584 1.391 . S
C587 C586 1.392 . S
N588 Co532 2.257 . S
N588 C585 1.391 . S
N588 C589 1.388 . S
C589 H560 0.930 . S
C589 C584 1.391 . S
C589 N588 1.388 . S
Co590 O592 2.143 . S
Co590 O598 2.074 . S
Co590 O601 2.093 . S
Co590 O614 2.097 . S
Co590 N631 2.151 . S
Co590 N639 2.214 1_556 S
Co591 O592 2.160 . S
Co591 O597 2.058 . S
Co591 O607 2.057 . S
Co591 O622 2.037 . S
Co591 N626 2.145 . S
Co591 N647 2.257 . S
O592 Co590 2.143 . S
O592 Co591 2.160 . S
C593 O594 1.278 . S
C593 O601 1.224 . S
O594 C593 1.278 . S
C595 O596 1.245 . S
C595 O607 1.232 . S
O596 C595 1.245 . S
O597 Co591 2.058 . S
O597 C623 1.269 . S
O598 Co590 2.074 . S
O598 C623 1.257 . S
H599 C624 0.930 . S
H600 C630 0.930 . S
O601 Co590 2.093 . S
O601 C593 1.224 . S
H602 C634 0.929 . S
H603 C636 0.930 . S
H604 C637 0.930 . S
H605 C635 0.929 . S
H606 C638 0.928 . S
O607 Co591 2.057 . S
O607 C595 1.232 . S
H608 C627 0.929 . S
H609 C628 0.929 . S
H610 C640 0.931 . S
H611 C632 0.929 . S
H612 C641 0.930 . S
H613 C633 0.931 . S
O614 Co590 2.097 . S
O614 C642 1.214 . S
H615 C643 0.929 . S
H616 C644 0.929 . S
H617 C645 0.930 . S
H618 C646 0.929 . S
H619 C648 0.930 . S
H620 C625 0.930 . S
H621 C629 0.930 . S
O622 Co591 2.037 . S
O622 C642 1.234 . S
C623 O597 1.269 . S
C623 O598 1.257 . S
C624 H599 0.930 . S
C624 C627 1.388 . S
C624 C629 1.418 . S
C625 H620 0.930 . S
C625 C628 1.404 . S
C625 C629 1.353 . S
N626 Co591 2.145 . S
N626 C627 1.397 . S
N626 C628 1.334 . S
C627 H608 0.929 . S
C627 C624 1.388 . S
C627 N626 1.397 . S
C628 H609 0.929 . S
C628 C625 1.404 . S
C628 N626 1.334 . S
C629 H621 0.930 . S
C629 C624 1.418 . S
C629 C625 1.353 . S
C630 H600 0.930 . S
C630 N631 1.330 . S
C630 C632 1.446 . S
N631 Co590 2.151 . S
N631 C630 1.330 . S
N631 C635 1.418 . S
C632 H611 0.929 . S
C632 C630 1.446 . S
C632 C633 1.332 . S
C633 H613 0.931 . S
C633 C632 1.332 . S
C633 C634 1.267 . S
C634 H602 0.929 . S
C634 C633 1.267 . S
C634 C635 1.251 . S
C635 H605 0.929 . S
C635 N631 1.418 . S
C635 C634 1.251 . S
C636 H603 0.930 . S
C636 C638 1.406 . S
C636 C641 1.261 . S
C637 H604 0.930 . S
C637 N639 1.325 . S
C637 C640 1.357 . S
C638 H606 0.928 . S
C638 C636 1.406 . S
C638 N639 1.261 . S
N639 Co590 2.214 1_554 S
N639 C637 1.325 . S
N639 C638 1.261 . S
C640 H610 0.931 . S
C640 C637 1.357 . S
C640 C641 1.312 . S
C641 H612 0.930 . S
C641 C636 1.261 . S
C641 C640 1.312 . S
C642 O614 1.214 . S
C642 O622 1.234 . S
C643 H615 0.929 . S
C643 C646 1.391 . S
C643 C648 1.391 1_455 S
C644 H616 0.929 . S
C644 C645 1.390 . S
C644 N647 1.391 1_455 S
C645 H617 0.930 . S
C645 C644 1.390 . S
C645 C646 1.392 . S
C646 H618 0.929 . S
C646 C643 1.391 . S
C646 C645 1.392 . S
N647 Co591 2.257 . S
N647 C644 1.391 1_655 S
N647 C648 1.388 . S
C648 H619 0.930 . S
C648 C643 1.391 1_655 S
C648 N647 1.388 . S
Co649 O651 2.143 . S
Co649 O657 2.074 . S
Co649 O660 2.093 . S
Co649 O673 2.097 . S
Co649 N690 2.151 . S
Co649 N698 2.214 . S
Co650 O651 2.160 . S
Co650 O656 2.058 . S
Co650 O666 2.057 . S
Co650 O681 2.037 . S
Co650 N685 2.145 . S
Co650 N706 2.257 . S
O651 Co649 2.143 . S
O651 Co650 2.160 . S
C652 O653 1.278 . S
C652 O660 1.224 . S
O653 C652 1.278 . S
C654 O655 1.245 . S
C654 O666 1.232 . S
O655 C654 1.245 . S
O656 Co650 2.058 . S
O656 C682 1.269 . S
O657 Co649 2.074 . S
O657 C682 1.257 . S
H658 C683 0.930 . S
H659 C689 0.930 . S
O660 Co649 2.093 . S
O660 C652 1.224 . S
H661 C693 0.929 . S
H662 C695 0.930 . S
H663 C696 0.930 . S
H664 C694 0.929 . S
H665 C697 0.928 . S
O666 Co650 2.057 . S
O666 C654 1.232 . S
H667 C686 0.929 . S
H668 C687 0.929 . S
H669 C699 0.931 . S
H670 C691 0.929 . S
H671 C700 0.930 . S
H672 C692 0.931 . S
O673 Co649 2.097 . S
O673 C701 1.214 . S
H674 C702 0.929 . S
H675 C703 0.929 . S
H676 C704 0.930 . S
H677 C705 0.929 . S
H678 C707 0.930 . S
H679 C684 0.930 . S
H680 C688 0.930 . S
O681 Co650 2.037 . S
O681 C701 1.234 . S
C682 O656 1.269 . S
C682 O657 1.257 . S
C683 H658 0.930 . S
C683 C686 1.388 . S
C683 C688 1.418 . S
C684 H679 0.930 . S
C684 C687 1.404 . S
C684 C688 1.353 . S
N685 Co650 2.145 . S
N685 C686 1.397 . S
N685 C687 1.334 . S
C686 H667 0.929 . S
C686 C683 1.388 . S
C686 N685 1.397 . S
C687 H668 0.929 . S
C687 C684 1.404 . S
C687 N685 1.334 . S
C688 H680 0.930 . S
C688 C683 1.418 . S
C688 C684 1.353 . S
C689 H659 0.930 . S
C689 N690 1.330 . S
C689 C691 1.446 . S
N690 Co649 2.151 . S
N690 C689 1.330 . S
N690 C694 1.418 . S
C691 H670 0.929 . S
C691 C689 1.446 . S
C691 C692 1.332 . S
C692 H672 0.931 . S
C692 C691 1.332 . S
C692 C693 1.267 . S
C693 H661 0.929 . S
C693 C692 1.267 . S
C693 C694 1.251 . S
C694 H664 0.929 . S
C694 N690 1.418 . S
C694 C693 1.251 . S
C695 H662 0.930 . S
C695 C697 1.406 . S
C695 C700 1.261 . S
C696 H663 0.930 . S
C696 N698 1.325 . S
C696 C699 1.357 . S
C697 H665 0.928 . S
C697 C695 1.406 . S
C697 N698 1.261 . S
N698 Co649 2.214 . S
N698 C696 1.325 . S
N698 C697 1.261 . S
C699 H669 0.931 . S
C699 C696 1.357 . S
C699 C700 1.312 . S
C700 H671 0.930 . S
C700 C695 1.261 . S
C700 C699 1.312 . S
C701 O673 1.214 . S
C701 O681 1.234 . S
C702 H674 0.929 . S
C702 C705 1.391 . S
C702 C707 1.391 1_545 S
C703 H675 0.929 . S
C703 C704 1.390 . S
C703 N706 1.391 1_545 S
C704 H676 0.930 . S
C704 C703 1.390 . S
C704 C705 1.392 . S
C705 H677 0.929 . S
C705 C702 1.391 . S
C705 C704 1.392 . S
N706 Co650 2.257 . S
N706 C703 1.391 1_565 S
N706 C707 1.388 . S
C707 H678 0.930 . S
C707 C702 1.391 1_565 S
C707 N706 1.388 . S
H708 C720 0.930 . S
H709 C722 0.930 . S
H710 C723 0.930 . S
H711 C727 0.959 . S
H712 C727 0.959 . S
H713 C727 0.961 . S
H714 C728 0.960 . S
H715 C728 0.961 . S
H716 C728 0.959 . S
H717 C731 0.929 . S
H718 C732 0.931 . S
H719 C734 0.930 . S
C720 H708 0.930 . S
C720 C721 1.399 . S
C720 C725 1.399 . S
C721 C720 1.399 . S
C721 C722 1.376 . S
C722 H709 0.930 . S
C722 C721 1.376 . S
C722 C723 1.388 . S
C723 H710 0.930 . S
C723 C722 1.388 . S
C723 C724 1.390 . S
C724 C723 1.390 . S
C724 C725 1.394 . S
C724 C730 1.465 . S
C725 C720 1.399 . S
C725 C724 1.394 . S
C725 C726 1.516 . S
C726 C725 1.516 . S
C726 C727 1.502 . S
C726 C728 1.561 . S
C726 C729 1.526 . S
C727 H711 0.959 . S
C727 H712 0.959 . S
C727 H713 0.961 . S
C727 C726 1.502 . S
C728 H714 0.960 . S
C728 H715 0.961 . S
C728 H716 0.959 . S
C728 C726 1.561 . S
C729 C726 1.526 . S
C729 C730 1.396 . S
C729 C734 1.390 . S
C730 C724 1.465 . S
C730 C729 1.396 . S
C730 C731 1.399 . S
C731 H717 0.929 . S
C731 C730 1.399 . S
C731 C732 1.385 . S
C732 H718 0.931 . S
C732 C731 1.385 . S
C732 C733 1.389 . S
C733 C732 1.389 . S
C733 C734 1.387 . S
C734 H719 0.930 . S
C734 C729 1.390 . S
C734 C733 1.387 . S
H735 C747 0.930 . S
H736 C749 0.930 . S
H737 C750 0.930 . S
H738 C754 0.959 . S
H739 C754 0.959 . S
H740 C754 0.961 . S
H741 C755 0.960 1_455 S
H742 C755 0.961 . S
H743 C755 0.959 . S
H744 C758 0.929 . S
H745 C759 0.931 . S
H746 C761 0.930 . S
C747 H735 0.930 . S
C747 C748 1.399 . S
C747 C752 1.399 . S
C748 C747 1.399 . S
C748 C749 1.376 . S
C749 H736 0.930 . S
C749 C748 1.376 . S
C749 C750 1.388 1_455 S
C750 H737 0.930 . S
C750 C749 1.388 1_655 S
C750 C751 1.390 . S
C751 C750 1.390 . S
C751 C752 1.394 1_655 S
C751 C757 1.465 . S
C752 C747 1.399 . S
C752 C751 1.394 1_455 S
C752 C753 1.516 . S
C753 C752 1.516 . S
C753 C754 1.502 . S
C753 C755 1.561 1_455 S
C753 C756 1.526 1_455 S
C754 H738 0.959 . S
C754 H739 0.959 . S
C754 H740 0.961 . S
C754 C753 1.502 . S
C755 H741 0.960 1_655 S
C755 H742 0.961 . S
C755 H743 0.959 . S
C755 C753 1.561 1_655 S
C756 C753 1.526 1_655 S
C756 C757 1.396 . S
C756 C761 1.390 . S
C757 C751 1.465 . S
C757 C756 1.396 . S
C757 C758 1.399 . S
C758 H744 0.929 . S
C758 C757 1.399 . S
C758 C759 1.385 . S
C759 H745 0.931 . S
C759 C758 1.385 . S
C759 C760 1.389 . S
C760 C759 1.389 . S
C760 C761 1.387 . S
C761 H746 0.930 . S
C761 C756 1.390 . S
C761 C760 1.387 . S
H762 C774 0.930 . S
H763 C776 0.930 . S
H764 C777 0.930 . S
H765 C781 0.959 . S
H766 C781 0.959 . S
H767 C781 0.961 . S
H768 C782 0.960 . S
H769 C782 0.961 . S
H770 C782 0.959 . S
H771 C785 0.929 . S
H772 C786 0.931 . S
H773 C788 0.930 . S
C774 H762 0.930 . S
C774 C775 1.399 . S
C774 C779 1.399 . S
C775 C774 1.399 . S
C775 C776 1.376 . S
C776 H763 0.930 . S
C776 C775 1.376 . S
C776 C777 1.388 1_565 S
C777 H764 0.930 . S
C777 C776 1.388 1_545 S
C777 C778 1.390 . S
C778 C777 1.390 . S
C778 C779 1.394 1_545 S
C778 C784 1.465 . S
C779 C774 1.399 . S
C779 C778 1.394 1_565 S
C779 C780 1.516 . S
C780 C779 1.516 . S
C780 C781 1.502 . S
C780 C782 1.561 1_565 S
C780 C783 1.526 1_565 S
C781 H765 0.959 . S
C781 H766 0.959 . S
C781 H767 0.961 . S
C781 C780 1.502 . S
C782 H768 0.960 . S
C782 H769 0.961 . S
C782 H770 0.959 . S
C782 C780 1.561 1_545 S
C783 C780 1.526 1_545 S
C783 C784 1.396 . S
C783 C788 1.390 . S
C784 C778 1.465 . S
C784 C783 1.396 . S
C784 C785 1.399 . S
C785 H771 0.929 . S
C785 C784 1.399 . S
C785 C786 1.385 . S
C786 H772 0.931 . S
C786 C785 1.385 . S
C786 C787 1.389 . S
C787 C786 1.389 . S
C787 C788 1.387 . S
C788 H773 0.930 . S
C788 C783 1.390 . S
C788 C787 1.387 . S
H789 C801 0.930 . S
H790 C803 0.930 . S
H791 C804 0.930 . S
H792 C808 0.959 . S
H793 C808 0.959 . S
H794 C808 0.961 . S
H795 C809 0.960 . S
H796 C809 0.961 . S
H797 C809 0.959 . S
H798 C812 0.929 . S
H799 C813 0.931 . S
H800 C815 0.930 . S
C801 H789 0.930 . S
C801 C802 1.399 . S
C801 C806 1.399 . S
C802 C801 1.399 . S
C802 C803 1.376 . S
C803 H790 0.930 . S
C803 C802 1.376 . S
C803 C804 1.388 . S
C804 H791 0.930 . S
C804 C803 1.388 . S
C804 C805 1.390 . S
C805 C804 1.390 . S
C805 C806 1.394 . S
C805 C811 1.465 . S
C806 C801 1.399 . S
C806 C805 1.394 . S
C806 C807 1.516 . S
C807 C806 1.516 . S
C807 C808 1.502 . S
C807 C809 1.561 . S
C807 C810 1.526 . S
C808 H792 0.959 . S
C808 H793 0.959 . S
C808 H794 0.961 . S
C808 C807 1.502 . S
C809 H795 0.960 . S
C809 H796 0.961 . S
C809 H797 0.959 . S
C809 C807 1.561 . S
C810 C807 1.526 . S
C810 C811 1.396 . S
C810 C815 1.390 . S
C811 C805 1.465 . S
C811 C810 1.396 . S
C811 C812 1.399 . S
C812 H798 0.929 . S
C812 C811 1.399 . S
C812 C813 1.385 . S
C813 H799 0.931 . S
C813 C812 1.385 . S
C813 C814 1.389 . S
C814 C813 1.389 . S
C814 C815 1.387 . S
C815 H800 0.930 . S
C815 C810 1.390 . S
C815 C814 1.387 . S
H816 C828 0.930 . S
H817 C830 0.930 . S
H818 C831 0.930 . S
H819 C835 0.959 . S
H820 C835 0.959 . S
H821 C835 0.961 . S
H822 C836 0.960 . S
H823 C836 0.989 . S
H824 C836 0.959 . S
H825 C839 0.929 . S
H826 C840 0.931 . S
H827 C842 0.930 . S
C828 H816 0.930 . S
C828 C829 1.399 . S
C828 C833 1.399 . S
C829 C828 1.399 . S
C829 C830 1.376 . S
C830 H817 0.930 . S
C830 C829 1.376 . S
C830 C831 1.388 1_655 S
C831 H818 0.930 . S
C831 C830 1.388 1_455 S
C831 C832 1.390 . S
C832 C831 1.390 . S
C832 C833 1.394 1_455 S
C832 C838 1.465 . S
C833 C828 1.399 . S
C833 C832 1.394 1_655 S
C833 C834 1.516 . S
C834 C833 1.516 . S
C834 C835 1.502 . S
C834 C836 1.561 1_655 S
C834 C837 1.526 1_655 S
C835 H819 0.959 . S
C835 H820 0.959 . S
C835 H821 0.961 . S
C835 C834 1.502 . S
C836 H822 0.960 . S
C836 H823 0.989 . S
C836 H824 0.959 . S
C836 C834 1.561 1_455 S
C837 C834 1.526 1_455 S
C837 C838 1.396 . S
C837 C842 1.390 . S
C838 C832 1.465 . S
C838 C837 1.396 . S
C838 C839 1.399 . S
C839 H825 0.929 . S
C839 C838 1.399 . S
C839 C840 1.385 . S
C840 H826 0.931 . S
C840 C839 1.385 . S
C840 C841 1.389 . S
C841 C840 1.389 . S
C841 C842 1.387 . S
C842 H827 0.930 . S
C842 C837 1.390 . S
C842 C841 1.387 . S
H843 C855 0.930 . S
H844 C857 0.930 . S
H845 C858 0.930 . S
H846 C862 0.959 . S
H847 C862 0.959 1_565 S
H848 C862 0.961 . S
H849 C863 0.960 . S
H850 C863 0.961 . S
H851 C863 0.959 . S
H852 C866 0.929 . S
H853 C867 0.931 . S
H854 C869 0.930 . S
C855 H843 0.930 . S
C855 C856 1.399 . S
C855 C860 1.399 . S
C856 C855 1.399 . S
C856 C857 1.376 . S
C857 H844 0.930 . S
C857 C856 1.376 . S
C857 C858 1.388 . S
C858 H845 0.930 . S
C858 C857 1.388 . S
C858 C859 1.390 . S
C859 C858 1.390 . S
C859 C860 1.394 . S
C859 C865 1.465 1_545 S
C860 C855 1.399 . S
C860 C859 1.394 . S
C860 C861 1.516 1_545 S
C861 C860 1.516 1_565 S
C861 C862 1.502 1_565 S
C861 C863 1.561 . S
C861 C864 1.526 . S
C862 H846 0.959 . S
C862 H847 0.959 1_545 S
C862 H848 0.961 . S
C862 C861 1.502 1_545 S
C863 H849 0.960 . S
C863 H850 0.961 . S
C863 H851 0.959 . S
C863 C861 1.561 . S
C864 C861 1.526 . S
C864 C865 1.396 . S
C864 C869 1.390 . S
C865 C859 1.465 1_565 S
C865 C864 1.396 . S
C865 C866 1.399 . S
C866 H852 0.929 . S
C866 C865 1.399 . S
C866 C867 1.385 . S
C867 H853 0.931 . S
C867 C866 1.385 . S
C867 C868 1.389 . S
C868 C867 1.389 . S
C868 C869 1.387 . S
C869 H854 0.930 . S
C869 C864 1.390 . S
C869 C868 1.387 . S
H870 C882 0.930 . S
H871 C884 0.930 . S
H872 C885 0.930 . S
H873 C889 0.959 . S
H874 C889 0.959 . S
H875 C889 0.961 . S
H876 C890 0.960 . S
H877 C890 0.961 . S
H878 C890 0.959 . S
H879 C893 0.929 . S
H880 C894 0.931 . S
H881 C896 0.930 . S
C882 H870 0.930 . S
C882 C883 1.399 . S
C882 C887 1.399 . S
C883 C882 1.399 . S
C883 C884 1.376 . S
C884 H871 0.930 . S
C884 C883 1.376 . S
C884 C885 1.388 . S
C885 H872 0.930 . S
C885 C884 1.388 . S
C885 C886 1.390 . S
C886 C885 1.390 . S
C886 C887 1.394 . S
C886 C892 1.465 . S
C887 C882 1.399 . S
C887 C886 1.394 . S
C887 C888 1.516 . S
C888 C887 1.516 . S
C888 C889 1.502 . S
C888 C890 1.561 . S
C888 C891 1.526 . S
C889 H873 0.959 . S
C889 H874 0.959 . S
C889 H875 0.961 . S
C889 C888 1.502 . S
C890 H876 0.960 . S
C890 H877 0.961 . S
C890 H878 0.959 . S
C890 C888 1.561 . S
C891 C888 1.526 . S
C891 C892 1.396 . S
C891 C896 1.390 . S
C892 C886 1.465 . S
C892 C891 1.396 . S
C892 C893 1.399 . S
C893 H879 0.929 . S
C893 C892 1.399 . S
C893 C894 1.385 . S
C894 H880 0.931 . S
C894 C893 1.385 . S
C894 C895 1.389 . S
C895 C894 1.389 . S
C895 C896 1.387 . S
C896 H881 0.930 . S
C896 C891 1.390 . S
C896 C895 1.387 . S
H897 C909 0.930 . S
H898 C911 0.930 . S
H899 C912 0.930 . S
H900 C916 0.959 . S
H901 C916 0.959 . S
H902 C916 0.961 . S
H903 C917 0.960 . S
H904 C917 0.961 . S
H905 C917 0.959 . S
H906 C920 0.929 . S
H907 C921 0.931 . S
H908 C923 0.930 . S
C909 H897 0.930 . S
C909 C910 1.399 . S
C909 C914 1.399 . S
C910 C909 1.399 . S
C910 C911 1.376 . S
C911 H898 0.930 . S
C911 C910 1.376 . S
C911 C912 1.388 . S
C912 H899 0.930 . S
C912 C911 1.388 . S
C912 C913 1.390 . S
C913 C912 1.390 . S
C913 C914 1.394 . S
C913 C919 1.465 . S
C914 C909 1.399 . S
C914 C913 1.394 . S
C914 C915 1.516 . S
C915 C914 1.516 . S
C915 C916 1.502 . S
C915 C917 1.561 . S
C915 C918 1.526 . S
C916 H900 0.959 . S
C916 H901 0.959 . S
C916 H902 0.961 . S
C916 C915 1.502 . S
C917 H903 0.960 . S
C917 H904 0.961 . S
C917 H905 0.959 . S
C917 C915 1.561 . S
C918 C915 1.526 . S
C918 C919 1.396 . S
C918 C923 1.390 . S
C919 C913 1.465 . S
C919 C918 1.396 . S
C919 C920 1.399 . S
C920 H906 0.929 . S
C920 C919 1.399 . S
C920 C921 1.385 . S
C921 H907 0.931 . S
C921 C920 1.385 . S
C921 C922 1.389 . S
C922 C921 1.389 . S
C922 C923 1.387 . S
C923 H908 0.930 . S
C923 C918 1.390 . S
C923 C922 1.387 . S
H924 C936 0.930 . S
H925 C938 0.930 . S
H926 C939 0.930 . S
H927 C943 0.959 . S
H928 C943 0.959 . S
H929 C943 0.961 . S
H930 C944 0.960 . S
H931 C944 0.961 . S
H932 C944 0.959 . S
H933 C947 0.929 . S
H934 C948 0.931 . S
H935 C950 0.930 . S
C936 H924 0.930 . S
C936 C937 1.399 . S
C936 C941 1.399 . S
C937 C936 1.399 . S
C937 C938 1.376 . S
C938 H925 0.930 . S
C938 C937 1.376 . S
C938 C939 1.388 . S
C939 H926 0.930 . S
C939 C938 1.388 . S
C939 C940 1.390 . S
C940 C939 1.390 . S
C940 C941 1.394 . S
C940 C946 1.465 . S
C941 C936 1.399 . S
C941 C940 1.394 . S
C941 C942 1.516 . S
C942 C941 1.516 . S
C942 C943 1.502 . S
C942 C944 1.561 . S
C942 C945 1.526 . S
C943 H927 0.959 . S
C943 H928 0.959 . S
C943 H929 0.961 . S
C943 C942 1.502 . S
C944 H930 0.960 . S
C944 H931 0.961 . S
C944 H932 0.959 . S
C944 C942 1.561 . S
C945 C942 1.526 . S
C945 C946 1.396 . S
C945 C950 1.390 . S
C946 C940 1.465 . S
C946 C945 1.396 . S
C946 C947 1.399 . S
C947 H933 0.929 . S
C947 C946 1.399 . S
C947 C948 1.385 . S
C948 H934 0.931 . S
C948 C947 1.385 . S
C948 C949 1.389 . S
C949 C948 1.389 . S
C949 C950 1.387 . S
C950 H935 0.930 . S
C950 C945 1.390 . S
C950 C949 1.387 . S
H951 C963 0.930 . S
H952 C965 0.930 . S
H953 C966 0.930 . S
H954 C970 0.959 . S
H955 C970 0.959 . S
H956 C970 0.961 . S
H957 C971 0.960 . S
H958 C971 0.961 . S
H959 C971 0.959 . S
H960 C974 0.929 . S
H961 C975 0.931 . S
H962 C977 0.930 . S
C963 H951 0.930 . S
C963 C964 1.399 . S
C963 C968 1.399 . S
C964 C963 1.399 . S
C964 C965 1.376 . S
C965 H952 0.930 . S
C965 C964 1.376 . S
C965 C966 1.388 . S
C966 H953 0.930 . S
C966 C965 1.388 . S
C966 C967 1.390 . S
C967 C966 1.390 . S
C967 C968 1.394 . S
C967 C973 1.465 . S
C968 C963 1.399 . S
C968 C967 1.394 . S
C968 C969 1.516 . S
C969 C968 1.516 . S
C969 C970 1.502 . S
C969 C971 1.561 . S
C969 C972 1.526 . S
C970 H954 0.959 . S
C970 H955 0.959 . S
C970 H956 0.961 . S
C970 C969 1.502 . S
C971 H957 0.960 . S
C971 H958 0.961 . S
C971 H959 0.959 . S
C971 C969 1.561 . S
C972 C969 1.526 . S
C972 C973 1.396 . S
C972 C977 1.390 . S
C973 C967 1.465 . S
C973 C972 1.396 . S
C973 C974 1.399 . S
C974 H960 0.929 . S
C974 C973 1.399 . S
C974 C975 1.385 . S
C975 H961 0.931 . S
C975 C974 1.385 . S
C975 C976 1.389 . S
C976 C975 1.389 . S
C976 C977 1.387 . S
C977 H962 0.930 . S
C977 C972 1.390 . S
C977 C976 1.387 . S
H978 C990 0.930 . S
H979 C992 0.930 . S
H980 C993 0.930 . S
H981 C997 0.959 . S
H982 C997 0.959 . S
H983 C997 0.961 . S
H984 C998 0.960 . S
H985 C998 0.961 . S
H986 C998 0.959 . S
H987 C1001 0.929 . S
H988 C1002 0.931 . S
H989 C1004 0.930 . S
C990 H978 0.930 . S
C990 C991 1.399 . S
C990 C995 1.399 . S
C991 C990 1.399 . S
C991 C992 1.376 . S
C992 H979 0.930 . S
C992 C991 1.376 . S
C992 C993 1.388 . S
C993 H980 0.930 . S
C993 C992 1.388 . S
C993 C994 1.390 . S
C994 C993 1.390 . S
C994 C995 1.394 . S
C994 C1000 1.465 . S
C995 C990 1.399 . S
C995 C994 1.394 . S
C995 C996 1.516 . S
C996 C995 1.516 . S
C996 C997 1.502 . S
C996 C998 1.561 . S
C996 C999 1.526 . S
C997 H981 0.959 . S
C997 H982 0.959 . S
C997 H983 0.961 . S
C997 C996 1.502 . S
C998 H984 0.960 . S
C998 H985 0.961 . S
C998 H986 0.959 . S
C998 C996 1.561 . S
C999 C996 1.526 . S
C999 C1000 1.396 . S
C999 C1004 1.390 . S
C1000 C994 1.465 . S
C1000 C999 1.396 . S
C1000 C1001 1.399 . S
C1001 H987 0.929 . S
C1001 C1000 1.399 . S
C1001 C1002 1.385 . S
C1002 H988 0.931 . S
C1002 C1001 1.385 . S
C1002 C1003 1.389 . S
C1003 C1002 1.389 . S
C1003 C1004 1.387 . S
C1004 H989 0.930 . S
C1004 C999 1.390 . S
C1004 C1003 1.387 . S
H1005 C1017 0.930 . S
H1006 C1019 0.930 . S
H1007 C1020 0.930 . S
H1008 C1024 0.959 . S
H1009 C1024 0.959 . S
H1010 C1024 0.961 . S
H1011 C1025 0.960 . S
H1012 C1025 0.961 . S
H1013 C1025 0.959 . S
H1014 C1028 0.929 . S
H1015 C1029 0.931 . S
H1016 C1031 0.930 . S
C1017 H1005 0.930 . S
C1017 C1018 1.399 . S
C1017 C1022 1.399 . S
C1018 C1017 1.399 . S
C1018 C1019 1.376 . S
C1019 H1006 0.930 . S
C1019 C1018 1.376 . S
C1019 C1020 1.388 . S
C1020 H1007 0.930 . S
C1020 C1019 1.388 . S
C1020 C1021 1.390 . S
C1021 C1020 1.390 . S
C1021 C1022 1.394 . S
C1021 C1027 1.465 . S
C1022 C1017 1.399 . S
C1022 C1021 1.394 . S
C1022 C1023 1.516 . S
C1023 C1022 1.516 . S
C1023 C1024 1.502 . S
C1023 C1025 1.561 . S
C1023 C1026 1.526 . S
C1024 H1008 0.959 . S
C1024 H1009 0.959 . S
C1024 H1010 0.961 . S
C1024 C1023 1.502 . S
C1025 H1011 0.960 . S
C1025 H1012 0.961 . S
C1025 H1013 0.959 . S
C1025 C1023 1.561 . S
C1026 C1023 1.526 . S
C1026 C1027 1.396 . S
C1026 C1031 1.390 . S
C1027 C1021 1.465 . S
C1027 C1026 1.396 . S
C1027 C1028 1.399 . S
C1028 H1014 0.929 . S
C1028 C1027 1.399 . S
C1028 C1029 1.385 . S
C1029 H1015 0.931 . S
C1029 C1028 1.385 . S
C1029 C1030 1.389 . S
C1030 C1029 1.389 . S
C1030 C1031 1.387 . S
C1031 H1016 0.930 . S
C1031 C1026 1.390 . S
C1031 C1030 1.387 . S
H1032 C1044 0.930 . S
H1033 C1046 0.930 . S
H1034 C1047 0.930 . S
H1035 C1051 0.959 . S
H1036 C1051 0.959 . S
H1037 C1051 0.961 . S
H1038 C1052 0.960 . S
H1039 C1052 0.961 . S
H1040 C1052 0.959 . S
H1041 C1055 0.929 . S
H1042 C1056 0.931 . S
H1043 C1058 0.930 . S
C1044 H1032 0.930 . S
C1044 C1045 1.399 . S
C1044 C1049 1.399 . S
C1045 C1044 1.399 . S
C1045 C1046 1.376 . S
C1046 H1033 0.930 . S
C1046 C1045 1.376 . S
C1046 C1047 1.388 1_556 S
C1047 H1034 0.930 . S
C1047 C1046 1.388 1_554 S
C1047 C1048 1.396 . S
C1048 C1047 1.396 . S
C1048 C1049 1.373 1_554 S
C1048 C1054 1.478 1_565 S
C1049 C1044 1.399 . S
C1049 C1048 1.373 1_556 S
C1049 C1050 1.516 1_565 S
C1050 C1049 1.516 1_545 S
C1050 C1051 1.502 . S
C1050 C1052 1.561 . S
C1050 C1053 1.488 1_556 S
C1051 H1035 0.959 . S
C1051 H1036 0.959 . S
C1051 H1037 0.961 . S
C1051 C1050 1.502 . S
C1052 H1038 0.960 . S
C1052 H1039 0.961 . S
C1052 H1040 0.959 . S
C1052 C1050 1.561 . S
C1053 C1050 1.488 1_554 S
C1053 C1054 1.419 . S
C1053 C1058 1.406 . S
C1054 C1048 1.478 1_545 S
C1054 C1053 1.419 . S
C1054 C1055 1.399 . S
C1055 H1041 0.929 . S
C1055 C1054 1.399 . S
C1055 C1056 1.385 . S
C1056 H1042 0.931 . S
C1056 C1055 1.385 . S
C1056 C1057 1.389 . S
C1057 C1056 1.389 . S
C1057 C1058 1.387 . S
C1058 H1043 0.930 . S
C1058 C1053 1.406 . S
C1058 C1057 1.387 . S
H1059 C1071 0.930 . S
H1060 C1073 0.930 . S
H1061 C1074 0.930 . S
H1062 C1078 0.959 . S
H1063 C1078 0.959 . S
H1064 C1078 0.961 . S
H1065 C1079 0.960 . S
H1066 C1079 0.961 . S
H1067 C1079 0.959 . S
H1068 C1082 0.929 . S
H1069 C1083 0.931 . S
H1070 C1085 0.930 . S
C1071 H1059 0.930 . S
C1071 C1072 1.399 . S
C1071 C1076 1.399 . S
C1072 C1071 1.399 . S
C1072 C1073 1.376 . S
C1073 H1060 0.930 . S
C1073 C1072 1.376 . S
C1073 C1074 1.388 . S
C1074 H1061 0.930 . S
C1074 C1073 1.388 . S
C1074 C1075 1.390 . S
C1075 C1074 1.390 . S
C1075 C1076 1.394 . S
C1075 C1081 1.465 . S
C1076 C1071 1.399 . S
C1076 C1075 1.394 . S
C1076 C1077 1.516 . S
C1077 C1076 1.516 . S
C1077 C1078 1.502 . S
C1077 C1079 1.561 . S
C1077 C1080 1.526 . S
C1078 H1062 0.959 . S
C1078 H1063 0.959 . S
C1078 H1064 0.961 . S
C1078 C1077 1.502 . S
C1079 H1065 0.960 . S
C1079 H1066 0.961 . S
C1079 H1067 0.959 . S
C1079 C1077 1.561 . S
C1080 C1077 1.526 . S
C1080 C1081 1.396 . S
C1080 C1085 1.390 . S
C1081 C1075 1.465 . S
C1081 C1080 1.396 . S
C1081 C1082 1.399 . S
C1082 H1068 0.929 . S
C1082 C1081 1.399 . S
C1082 C1083 1.385 . S
C1083 H1069 0.931 . S
C1083 C1082 1.385 . S
C1083 C1084 1.389 . S
C1084 C1083 1.389 . S
C1084 C1085 1.387 . S
C1085 H1070 0.930 . S
C1085 C1080 1.390 . S
C1085 C1084 1.387 . S
H1086 C1098 0.930 . S
H1087 C1100 0.930 . S
H1088 C1101 0.930 . S
H1089 C1105 0.959 . S
H1090 C1105 0.959 . S
H1091 C1105 0.961 . S
H1092 C1106 0.960 . S
H1093 C1106 0.961 . S
H1094 C1106 0.959 . S
H1095 C1109 0.929 . S
H1096 C1110 0.931 . S
H1097 C1112 0.930 . S
C1098 H1086 0.930 . S
C1098 C1099 1.399 . S
C1098 C1103 1.399 . S
C1099 C1098 1.399 . S
C1099 C1100 1.376 . S
C1100 H1087 0.930 . S
C1100 C1099 1.376 . S
C1100 C1101 1.388 . S
C1101 H1088 0.930 . S
C1101 C1100 1.388 . S
C1101 C1102 1.390 . S
C1102 C1101 1.390 . S
C1102 C1103 1.394 . S
C1102 C1108 1.465 1_655 S
C1103 C1098 1.399 . S
C1103 C1102 1.394 . S
C1103 C1104 1.516 . S
C1104 C1103 1.516 . S
C1104 C1105 1.502 . S
C1104 C1106 1.561 . S
C1104 C1107 1.526 1_655 S
C1105 H1089 0.959 . S
C1105 H1090 0.959 . S
C1105 H1091 0.961 . S
C1105 C1104 1.502 . S
C1106 H1092 0.960 . S
C1106 H1093 0.961 . S
C1106 H1094 0.959 . S
C1106 C1104 1.561 . S
C1107 C1104 1.526 1_455 S
C1107 C1108 1.396 . S
C1107 C1112 1.390 . S
C1108 C1102 1.465 1_455 S
C1108 C1107 1.396 . S
C1108 C1109 1.399 . S
C1109 H1095 0.929 . S
C1109 C1108 1.399 . S
C1109 C1110 1.385 . S
C1110 H1096 0.931 . S
C1110 C1109 1.385 . S
C1110 C1111 1.389 . S
C1111 C1110 1.389 . S
C1111 C1112 1.387 . S
C1112 H1097 0.930 . S
C1112 C1107 1.390 . S
C1112 C1111 1.387 . S
H1113 C1125 0.930 . S
H1114 C1127 0.930 . S
H1115 C1128 0.930 . S
H1116 C1132 0.923 1_544 S
H1117 C1132 0.959 1_545 S
H1118 C1132 0.961 . S
H1119 C1133 0.960 . S
H1120 C1133 0.961 . S
H1121 C1133 0.959 . S
H1122 C1136 0.929 . S
H1123 C1137 0.931 . S
H1124 C1139 0.930 . S
C1125 H1113 0.930 . S
C1125 C1126 1.399 . S
C1125 C1130 1.399 . S
C1126 C1125 1.399 . S
C1126 C1127 1.376 . S
C1127 H1114 0.930 . S
C1127 C1126 1.376 . S
C1127 C1128 1.388 . S
C1128 H1115 0.930 . S
C1128 C1127 1.388 . S
C1128 C1129 1.390 . S
C1129 C1128 1.390 . S
C1129 C1130 1.394 . S
C1129 C1135 1.439 1_564 S
C1130 C1125 1.399 . S
C1130 C1129 1.394 . S
C1130 C1131 1.516 1_554 S
C1131 C1130 1.516 1_556 S
C1131 C1132 1.502 . S
C1131 C1133 1.561 . S
C1131 C1134 1.526 1_565 S
C1132 H1116 0.923 1_566 S
C1132 H1117 0.959 1_565 S
C1132 H1118 0.961 . S
C1132 C1131 1.502 . S
C1133 H1119 0.960 . S
C1133 H1120 0.961 . S
C1133 H1121 0.959 . S
C1133 C1131 1.561 . S
C1134 C1131 1.526 1_545 S
C1134 C1135 1.435 . S
C1134 C1139 1.390 . S
C1135 C1129 1.439 1_546 S
C1135 C1134 1.435 . S
C1135 C1136 1.394 1_556 S
C1136 H1122 0.929 . S
C1136 C1135 1.394 1_554 S
C1136 C1137 1.385 1_554 S
C1137 H1123 0.931 . S
C1137 C1136 1.385 1_556 S
C1137 C1138 1.389 . S
C1138 C1137 1.389 . S
C1138 C1139 1.387 . S
C1139 H1124 0.930 . S
C1139 C1134 1.390 . S
C1139 C1138 1.387 . S
H1140 C1152 0.930 . S
H1141 C1154 0.930 . S
H1142 C1155 0.930 . S
H1143 C1159 0.959 . S
H1144 C1159 0.959 . S
H1145 C1159 0.961 . S
H1146 C1160 0.960 . S
H1147 C1160 0.961 . S
H1148 C1160 0.959 . S
H1149 C1163 0.929 . S
H1150 C1164 0.931 . S
H1151 C1166 0.930 . S
C1152 H1140 0.930 . S
C1152 C1153 1.399 . S
C1152 C1157 1.399 . S
C1153 C1152 1.399 . S
C1153 C1154 1.376 . S
C1154 H1141 0.930 . S
C1154 C1153 1.376 . S
C1154 C1155 1.388 . S
C1155 H1142 0.930 . S
C1155 C1154 1.388 . S
C1155 C1156 1.390 . S
C1156 C1155 1.390 . S
C1156 C1157 1.394 . S
C1156 C1162 1.465 . S
C1157 C1152 1.399 . S
C1157 C1156 1.394 . S
C1157 C1158 1.516 . S
C1158 C1157 1.516 . S
C1158 C1159 1.502 . S
C1158 C1160 1.561 . S
C1158 C1161 1.526 . S
C1159 H1143 0.959 . S
C1159 H1144 0.959 . S
C1159 H1145 0.961 . S
C1159 C1158 1.502 . S
C1160 H1146 0.960 . S
C1160 H1147 0.961 . S
C1160 H1148 0.959 . S
C1160 C1158 1.561 . S
C1161 C1158 1.526 . S
C1161 C1162 1.396 . S
C1161 C1166 1.390 . S
C1162 C1156 1.465 . S
C1162 C1161 1.396 . S
C1162 C1163 1.399 . S
C1163 H1149 0.929 . S
C1163 C1162 1.399 . S
C1163 C1164 1.385 . S
C1164 H1150 0.931 . S
C1164 C1163 1.385 . S
C1164 C1165 1.389 . S
C1165 C1164 1.389 . S
C1165 C1166 1.387 . S
C1166 H1151 0.930 . S
C1166 C1161 1.390 . S
C1166 C1165 1.387 . S
H1167 C1179 0.930 . S
H1168 C1181 0.930 . S
H1169 C1182 0.930 . S
H1170 C1186 0.959 . S
H1171 C1186 0.959 . S
H1172 C1186 0.961 . S
H1173 C1187 0.960 . S
H1174 C1187 0.961 1_655 S
H1175 C1187 0.959 . S
H1176 C1190 0.929 . S
H1177 C1191 0.931 . S
H1178 C1193 0.930 . S
C1179 H1167 0.930 . S
C1179 C1180 1.399 . S
C1179 C1184 1.399 . S
C1180 C1179 1.399 . S
C1180 C1181 1.376 . S
C1181 H1168 0.930 . S
C1181 C1180 1.376 . S
C1181 C1182 1.388 . S
C1182 H1169 0.930 . S
C1182 C1181 1.388 . S
C1182 C1183 1.390 . S
C1183 C1182 1.390 . S
C1183 C1184 1.394 . S
C1183 C1189 1.465 1_455 S
C1184 C1179 1.399 . S
C1184 C1183 1.394 . S
C1184 C1185 1.516 1_455 S
C1185 C1184 1.516 1_655 S
C1185 C1186 1.502 . S
C1185 C1187 1.561 1_655 S
C1185 C1188 1.526 . S
C1186 H1170 0.959 . S
C1186 H1171 0.959 . S
C1186 H1172 0.961 . S
C1186 C1185 1.502 . S
C1187 H1173 0.960 . S
C1187 H1174 0.961 1_455 S
C1187 H1175 0.959 . S
C1187 C1185 1.561 1_455 S
C1188 C1185 1.526 . S
C1188 C1189 1.396 . S
C1188 C1193 1.390 . S
C1189 C1183 1.465 1_655 S
C1189 C1188 1.396 . S
C1189 C1190 1.399 . S
C1190 H1176 0.929 . S
C1190 C1189 1.399 . S
C1190 C1191 1.385 . S
C1191 H1177 0.931 . S
C1191 C1190 1.385 . S
C1191 C1192 1.389 . S
C1192 C1191 1.389 . S
C1192 C1193 1.387 . S
C1193 H1178 0.930 . S
C1193 C1188 1.390 . S
C1193 C1192 1.387 . S
H1194 C1206 0.930 . S
H1195 C1208 0.930 . S
H1196 C1209 0.930 . S
H1197 C1213 0.959 . S
H1198 C1213 0.959 . S
H1199 C1213 0.961 . S
H1200 C1214 0.960 . S
H1201 C1214 0.961 . S
H1202 C1214 0.959 . S
H1203 C1217 0.940 . S
H1204 C1218 0.931 . S
H1205 C1220 0.930 . S
C1206 H1194 0.930 . S
C1206 C1207 1.399 . S
C1206 C1211 1.399 . S
C1207 C1206 1.399 . S
C1207 C1208 1.376 . S
C1208 H1195 0.930 . S
C1208 C1207 1.376 . S
C1208 C1209 1.388 . S
C1209 H1196 0.930 . S
C1209 C1208 1.388 . S
C1209 C1210 1.390 . S
C1210 C1209 1.390 . S
C1210 C1211 1.394 . S
C1210 C1216 1.465 1_556 S
C1211 C1206 1.399 . S
C1211 C1210 1.394 . S
C1211 C1212 1.503 1_556 S
C1212 C1211 1.503 1_554 S
C1212 C1213 1.532 . S
C1212 C1214 1.531 1_554 S
C1212 C1215 1.537 . S
C1213 H1197 0.959 . S
C1213 H1198 0.959 . S
C1213 H1199 0.961 . S
C1213 C1212 1.532 . S
C1214 H1200 0.960 . S
C1214 H1201 0.961 . S
C1214 H1202 0.959 . S
C1214 C1212 1.531 1_556 S
C1215 C1212 1.537 . S
C1215 C1216 1.396 . S
C1215 C1220 1.390 . S
C1216 C1210 1.465 1_554 S
C1216 C1215 1.396 . S
C1216 C1217 1.399 . S
C1217 H1203 0.940 . S
C1217 C1216 1.399 . S
C1217 C1218 1.385 . S
C1218 H1204 0.931 . S
C1218 C1217 1.385 . S
C1218 C1219 1.389 . S
C1219 C1218 1.389 . S
C1219 C1220 1.387 . S
C1220 H1205 0.930 . S
C1220 C1215 1.390 . S
C1220 C1219 1.387 . S
H1221 C1233 0.930 . S
H1222 C1235 0.930 . S
H1223 C1236 0.930 . S
H1224 C1240 0.959 . S
H1225 C1240 0.959 . S
H1226 C1240 0.961 . S
H1227 C1241 0.960 . S
H1228 C1241 0.961 . S
H1229 C1241 0.959 . S
H1230 C1244 0.929 . S
H1231 C1245 0.931 1_455 S
H1232 C1247 0.930 . S
C1233 H1221 0.930 . S
C1233 C1234 1.399 . S
C1233 C1238 1.399 . S
C1234 C1233 1.399 . S
C1234 C1235 1.376 . S
C1235 H1222 0.930 . S
C1235 C1234 1.376 . S
C1235 C1236 1.388 . S
C1236 H1223 0.930 . S
C1236 C1235 1.388 . S
C1236 C1237 1.390 . S
C1237 C1236 1.390 . S
C1237 C1238 1.394 . S
C1237 C1243 1.465 . S
C1238 C1233 1.399 . S
C1238 C1237 1.394 . S
C1238 C1239 1.516 . S
C1239 C1238 1.516 . S
C1239 C1240 1.502 . S
C1239 C1241 1.561 . S
C1239 C1242 1.526 . S
C1240 H1224 0.959 . S
C1240 H1225 0.959 . S
C1240 H1226 0.961 . S
C1240 C1239 1.502 . S
C1241 H1227 0.960 . S
C1241 H1228 0.961 . S
C1241 H1229 0.959 . S
C1241 C1239 1.561 . S
C1242 C1239 1.526 . S
C1242 C1243 1.396 . S
C1242 C1247 1.390 . S
C1243 C1237 1.465 . S
C1243 C1242 1.396 . S
C1243 C1244 1.399 . S
C1244 H1230 0.929 . S
C1244 C1243 1.399 . S
C1244 C1245 1.385 . S
C1245 H1231 0.931 1_655 S
C1245 C1244 1.385 . S
C1245 C1246 1.389 . S
C1246 C1245 1.389 . S
C1246 C1247 1.387 . S
C1247 H1232 0.930 . S
C1247 C1242 1.390 . S
C1247 C1246 1.387 . S
H1248 C1260 0.930 . S
H1249 C1262 0.930 . S
H1250 C1263 0.930 . S
H1251 C1267 0.959 . S
H1252 C1267 0.959 . S
H1253 C1267 0.961 . S
H1254 C1268 0.960 . S
H1255 C1268 0.961 . S
H1256 C1268 0.959 . S
H1257 C1271 0.929 . S
H1258 C1272 0.931 . S
H1259 C1274 0.930 . S
C1260 H1248 0.930 . S
C1260 C1261 1.399 . S
C1260 C1265 1.399 . S
C1261 C1260 1.399 . S
C1261 C1262 1.376 . S
C1262 H1249 0.930 . S
C1262 C1261 1.376 . S
C1262 C1263 1.388 . S
C1263 H1250 0.930 . S
C1263 C1262 1.388 . S
C1263 C1264 1.390 . S
C1264 C1263 1.390 . S
C1264 C1265 1.394 . S
C1264 C1270 1.465 . S
C1265 C1260 1.399 . S
C1265 C1264 1.394 . S
C1265 C1266 1.516 . S
C1266 C1265 1.516 . S
C1266 C1267 1.502 . S
C1266 C1268 1.561 . S
C1266 C1269 1.526 . S
C1267 H1251 0.959 . S
C1267 H1252 0.959 . S
C1267 H1253 0.961 . S
C1267 C1266 1.502 . S
C1268 H1254 0.960 . S
C1268 H1255 0.961 . S
C1268 H1256 0.959 . S
C1268 C1266 1.561 . S
C1269 C1266 1.526 . S
C1269 C1270 1.396 . S
C1269 C1274 1.390 . S
C1270 C1264 1.465 . S
C1270 C1269 1.396 . S
C1270 C1271 1.399 . S
C1271 H1257 0.929 . S
C1271 C1270 1.399 . S
C1271 C1272 1.385 . S
C1272 H1258 0.931 . S
C1272 C1271 1.385 . S
C1272 C1273 1.389 . S
C1273 C1272 1.389 . S
C1273 C1274 1.387 . S
C1274 H1259 0.930 . S
C1274 C1269 1.390 . S
C1274 C1273 1.387 . S
H1275 C1287 0.930 . S
H1276 C1289 0.930 . S
H1277 C1290 0.931 1_556 S
H1278 C1294 0.959 . S
H1279 C1294 0.959 . S
H1280 C1294 0.961 . S
H1281 C1295 0.960 . S
H1282 C1295 0.961 . S
H1283 C1295 0.959 . S
H1284 C1298 0.929 . S
H1285 C1299 0.931 1_455 S
H1286 C1301 0.930 . S
C1287 H1275 0.930 . S
C1287 C1288 1.399 . S
C1287 C1292 1.399 . S
C1288 C1287 1.399 . S
C1288 C1289 1.376 . S
C1289 H1276 0.930 . S
C1289 C1288 1.376 . S
C1289 C1290 1.387 . S
C1290 H1277 0.931 1_554 S
C1290 C1289 1.387 . S
C1290 C1291 1.389 1_554 S
C1291 C1290 1.389 1_556 S
C1291 C1292 1.380 1_556 S
C1291 C1297 1.478 . S
C1292 C1287 1.399 . S
C1292 C1291 1.380 1_554 S
C1292 C1293 1.516 . S
C1293 C1292 1.516 . S
C1293 C1294 1.502 . S
C1293 C1295 1.561 1_554 S
C1293 C1296 1.526 1_554 S
C1294 H1278 0.959 . S
C1294 H1279 0.959 . S
C1294 H1280 0.961 . S
C1294 C1293 1.502 . S
C1295 H1281 0.960 . S
C1295 H1282 0.961 . S
C1295 H1283 0.959 . S
C1295 C1293 1.561 1_556 S
C1296 C1293 1.526 1_556 S
C1296 C1297 1.396 . S
C1296 C1301 1.390 . S
C1297 C1291 1.478 . S
C1297 C1296 1.396 . S
C1297 C1298 1.399 . S
C1298 H1284 0.929 . S
C1298 C1297 1.399 . S
C1298 C1299 1.385 . S
C1299 H1285 0.931 1_655 S
C1299 C1298 1.385 . S
C1299 C1300 1.389 . S
C1300 C1299 1.389 . S
C1300 C1301 1.387 . S
C1301 H1286 0.930 . S
C1301 C1296 1.390 . S
C1301 C1300 1.387 . S
H1302 C1314 0.930 . S
H1303 C1316 0.930 . S
H1304 C1317 0.930 . S
H1305 C1321 0.959 . S
H1306 C1321 0.959 . S
H1307 C1321 0.961 . S
H1308 C1322 0.960 . S
H1309 C1322 0.961 . S
H1310 C1322 0.959 . S
H1311 C1325 0.929 . S
H1312 C1326 0.931 . S
H1313 C1328 0.930 . S
C1314 H1302 0.930 . S
C1314 C1315 1.399 . S
C1314 C1319 1.399 . S
C1315 C1314 1.399 . S
C1315 C1316 1.376 . S
C1316 H1303 0.930 . S
C1316 C1315 1.376 . S
C1316 C1317 1.388 . S
C1317 H1304 0.930 . S
C1317 C1316 1.388 . S
C1317 C1318 1.390 . S
C1318 C1317 1.390 . S
C1318 C1319 1.394 . S
C1318 C1324 1.465 . S
C1319 C1314 1.399 . S
C1319 C1318 1.394 . S
C1319 C1320 1.516 . S
C1320 C1319 1.516 . S
C1320 C1321 1.502 . S
C1320 C1322 1.561 . S
C1320 C1323 1.526 . S
C1321 H1305 0.959 . S
C1321 H1306 0.959 . S
C1321 H1307 0.961 . S
C1321 C1320 1.502 . S
C1322 H1308 0.960 . S
C1322 H1309 0.961 . S
C1322 H1310 0.959 . S
C1322 C1320 1.561 . S
C1323 C1320 1.526 . S
C1323 C1324 1.396 . S
C1323 C1328 1.390 . S
C1324 C1318 1.465 . S
C1324 C1323 1.396 . S
C1324 C1325 1.399 . S
C1325 H1311 0.929 . S
C1325 C1324 1.399 . S
C1325 C1326 1.385 . S
C1326 H1312 0.931 . S
C1326 C1325 1.385 . S
C1326 C1327 1.389 . S
C1327 C1326 1.389 . S
C1327 C1328 1.387 . S
C1328 H1313 0.930 . S
C1328 C1323 1.390 . S
C1328 C1327 1.387 . S
H1329 C1341 0.930 . S
H1330 C1343 0.930 1_565 S
H1331 C1344 0.930 . S
H1332 C1348 0.959 . S
H1333 C1348 0.959 . S
H1334 C1348 0.961 . S
H1335 C1349 0.960 . S
H1336 C1349 0.961 . S
H1337 C1349 0.959 . S
H1338 C1352 0.929 . S
H1339 C1353 0.931 . S
H1340 C1355 0.930 . S
C1341 H1329 0.930 . S
C1341 C1342 1.399 . S
C1341 C1346 1.399 . S
C1342 C1341 1.399 . S
C1342 C1343 1.376 . S
C1343 H1330 0.930 1_545 S
C1343 C1342 1.376 . S
C1343 C1344 1.388 . S
C1344 H1331 0.930 . S
C1344 C1343 1.388 . S
C1344 C1345 1.390 . S
C1345 C1344 1.390 . S
C1345 C1346 1.394 . S
C1345 C1351 1.465 . S
C1346 C1341 1.399 . S
C1346 C1345 1.394 . S
C1346 C1347 1.516 . S
C1347 C1346 1.516 . S
C1347 C1348 1.502 . S
C1347 C1349 1.561 . S
C1347 C1350 1.526 . S
C1348 H1332 0.959 . S
C1348 H1333 0.959 . S
C1348 H1334 0.961 . S
C1348 C1347 1.502 . S
C1349 H1335 0.960 . S
C1349 H1336 0.961 . S
C1349 H1337 0.959 . S
C1349 C1347 1.561 . S
C1350 C1347 1.526 . S
C1350 C1351 1.396 . S
C1350 C1355 1.390 . S
C1351 C1345 1.465 . S
C1351 C1350 1.396 . S
C1351 C1352 1.399 . S
C1352 H1338 0.929 . S
C1352 C1351 1.399 . S
C1352 C1353 1.385 . S
C1353 H1339 0.931 . S
C1353 C1352 1.385 . S
C1353 C1354 1.389 . S
C1354 C1353 1.389 . S
C1354 C1355 1.387 . S
C1355 H1340 0.930 . S
C1355 C1350 1.390 . S
C1355 C1354 1.387 . S
C721 C180 1.351 . S
C733 C3 1.322 . S
C748 C62 1.325 . S
C760 C239 1.363 . S
C775 C298 1.329 . S
C787 C121 1.361 . S
C802 C357 1.347 . S
C814 C534 1.326 . S
C829 C593 1.328 . S
C841 C416 1.361 . S
C856 C475 1.343 . S
C868 C652 1.349 . S
C883 C477 1.641 . S
C895 C5 1.633 . S
C910 C64 1.629 . S
C922 C536 1.634 . S
C937 C123 1.642 . S
C949 C595 1.635 . S
C964 C182 1.632 . S
C976 C654 1.630 . S
C991 C359 1.629 . S
C1003 C241 1.635 . S
C1018 C418 1.629 . S
C1030 C300 1.632 . S
C1045 C446 1.570 . S
C1057 C33 1.572 . S
C1072 C92 1.578 . S
C1084 C505 1.576 . S
C1099 C151 1.594 . S
C1111 C564 1.593 . S
C1126 C210 1.597 . S
C1138 C623 1.596 . S
C1153 C682 1.569 . S
C1165 C269 1.569 . S
C1180 C328 1.594 . S
C1192 C387 1.596 . S
C1207 C642 1.480 1_455 S
C1219 C52 1.492 . S
C1234 C701 1.473 1_545 S
C1246 C111 1.501 1_655 S
C1261 C406 1.491 . S
C1273 C170 1.481 1_565 S
C1288 C229 1.495 . S
C1300 C465 1.479 1_655 S
C1315 C288 1.496 1_455 S
C1327 C524 1.477 1_565 S
C1342 C347 1.501 1_545 S
C1354 C583 1.472 . S
