# Generated by pormake.
# Topology qtz-x, (6)-cn, num edge types: 1
# Building blocks:
#     Node 0, Type 0, BuildingBlock: UKALOJ_clean_sbu_0, # of connection points: 6
#     Node 1, Type 0, BuildingBlock: UKALOJ_clean_sbu_0, # of connection points: 6
#     Node 2, Type 0, BuildingBlock: UKALOJ_clean_sbu_0, # of connection points: 6
#     Edge 3, Type (0, 0), BuildingBlock: TEMPAE_clean_linker_10, # of connection points: 2
#     Edge 4, Type (0, 0), BuildingBlock: TEMPAE_clean_linker_10, # of connection points: 2
#     Edge 5, Type (0, 0), BuildingBlock: TEMPAE_clean_linker_10, # of connection points: 2
#     Edge 6, Type (0, 0), BuildingBlock: TEMPAE_clean_linker_10, # of connection points: 2
#     Edge 7, Type (0, 0), BuildingBlock: TEMPAE_clean_linker_10, # of connection points: 2
#     Edge 8, Type (0, 0), BuildingBlock: TEMPAE_clean_linker_10, # of connection points: 2
#     Edge 9, Type (0, 0), BuildingBlock: TEMPAE_clean_linker_10, # of connection points: 2
#     Edge 10, Type (0, 0), BuildingBlock: TEMPAE_clean_linker_10, # of connection points: 2
#     Edge 11, Type (0, 0), BuildingBlock: TEMPAE_clean_linker_10, # of connection points: 2
# Relax obj value: 0.296
# Max RMSD: 0.255
# Mean RMSD: 0.253
data_MOF--net-qtz-x--node1-UKALOJ_clean_sbu_0--edge1-TEMPAE_clean_linker_10
_symmetry_space_group_name_H-M    P1
_symmetry_Int_Tables_number       1
_symmetry_cell_setting            triclinic
loop_
_symmetry_equiv_pos_as_xyz
'x, y, z'
_cell_length_a     20.091375
_cell_length_b     20.153711
_cell_length_c     33.366498
_cell_angle_alpha  94.183392
_cell_angle_beta   93.633162
_cell_angle_gamma 119.91251
loop_
_atom_site_label
_atom_site_type_symbol
_atom_site_fract_x
_atom_site_fract_y
_atom_site_fract_z
_atom_type_partial_charge
Zn0 Zn 0.9923 0.53677 0.19111 0.0
O1 O 0.07166 0.59274 0.14647 0.0
C2 C 0.8697 0.43484 0.1261 0.0
Zn3 Zn -0.00251 0.43123 0.17749 0.0
C4 C 0.09924 0.55451 0.12949 0.0
O5 O 0.07644 0.48653 0.13743 0.0
C6 C 0.89287 0.40911 0.23953 0.0
O7 O 0.09484 0.47241 0.22485 0.0
O8 O 0.08607 0.57621 0.23429 0.0
N9 N 0.00057 0.33483 0.16022 0.0
C10 C -0.00317 0.27818 0.18064 0.0
C11 C 0.0017 0.24861 0.1186 0.0
N12 N 0.00363 0.31649 0.12173 0.0
N13 N -0.00315 0.22311 0.15509 0.0
C14 C 0.98696 0.68668 0.18755 0.0
C15 C 0.97948 0.71476 0.24944 0.0
N16 N 0.98723 0.63206 0.2083 0.0
N17 N 0.9824 0.64938 0.24666 0.0
N18 N 0.98182 0.73898 0.21276 0.0
H19 H 0.06281 0.71701 0.14158 0.0
H20 H 0.9828 0.73071 0.13016 0.0
H21 H 0.96862 0.63463 0.12611 0.0
C22 C 0.00018 0.69253 0.14383 0.0
C23 C -0.00315 0.27882 0.22564 0.0
H24 H 0.02788 0.25042 0.23753 0.0
H25 H 0.93636 0.24685 0.23286 0.0
H26 H 0.02411 0.33827 0.2411 0.0
O27 O 0.91828 0.37409 0.21804 0.0
O28 O 0.91508 0.47917 0.23538 0.0
C29 C 0.11955 0.53941 0.24353 0.0
O30 O 0.89737 0.49844 0.1484 0.0
O31 O 0.90123 0.39394 0.13022 0.0
Zn32 Zn 0.60008 0.01823 0.52636 0.0
O33 O 0.56973 0.91997 0.4819 0.0
C34 C 0.60787 0.11005 0.46046 0.0
Zn35 Zn 0.48572 0.0053 0.51046 0.0
C36 C 0.50159 0.88434 0.46331 0.0
O37 O 0.45557 0.9086 0.4699 0.0
C38 C 0.57967 0.13843 0.57364 0.0
O39 O 0.43709 0.92909 0.55652 0.0
O40 O 0.55151 0.94182 0.56886 0.0
N41 N 0.38319 -0.00382 0.4923 0.0
C42 C 0.33513 0.01066 0.51256 0.0
C43 C 0.28979 0.98184 0.45021 0.0
N44 N 0.35497 0.97819 0.4536 0.0
N45 N 0.27651 0.00284 0.48673 0.0
C46 C 0.7614 0.03491 0.52431 0.0
C47 C 0.795 0.04084 0.58701 0.0
N48 N 0.70353 0.02964 0.54464 0.0
N49 N 0.72456 0.03365 0.58356 0.0
N50 N 0.81972 0.04242 0.55031 0.0
H51 H 0.78687 -0.00345 0.4683 0.0
H52 H 0.791 0.08804 0.46996 0.0
H53 H 0.69931 0.00099 0.46401 0.0
C54 C 0.75905 0.02916 0.47907 0.0
C55 C 0.34369 0.02869 0.55768 0.0
H56 H 0.37752 0.00643 0.57307 0.0
H57 H 0.28617 0.00363 0.56891 0.0
H58 H 0.37463 0.09207 0.56586 0.0
O59 O 0.51551 0.10276 0.55134 0.0
O60 O 0.62746 0.11478 0.5707 0.0
C61 C 0.4816 0.91134 0.57584 0.0
O62 O 0.6493 0.09455 0.48373 0.0
O63 O 0.5361 0.07966 0.46413 0.0
Zn64 Zn 0.53157 0.57655 0.85804 0.0
O65 O 0.58379 0.54277 0.81092 0.0
C66 C 0.43218 0.58973 0.79498 0.0
Zn67 Zn 0.42359 0.4654 0.84399 0.0
C68 C 0.5442 0.47338 0.79402 0.0
O69 O 0.47655 0.43092 0.80306 0.0
C70 C 0.40607 0.56244 0.90815 0.0
O71 O 0.46051 0.41498 0.89008 0.0
O72 O 0.56913 0.5255 0.89823 0.0
N73 N 0.32507 0.36429 0.82618 0.0
C74 C 0.27668 0.30742 0.84659 0.0
C75 C 0.23335 0.2741 0.784 0.0
N76 N 0.29824 0.34351 0.78733 0.0
N77 N 0.21886 0.2499 0.8207 0.0
C78 C 0.68805 0.72508 0.85532 0.0
C79 C 0.72122 0.76873 0.91793 0.0
N80 N 0.63136 0.67649 0.87583 0.0
N81 N 0.65198 0.70357 0.91468 0.0
N82 N 0.74541 0.78316 0.88115 0.0
H83 H 0.62495 0.68458 0.79538 0.0
H84 H 0.71474 0.68568 0.80072 0.0
H85 H 0.7149 0.77496 0.79925 0.0
C86 C 0.68518 0.71738 0.81008 0.0
C87 C 0.28433 0.3102 0.8918 0.0
H88 H 0.3182 0.37015 0.90675 0.0
H89 H 0.31503 0.27965 0.90074 0.0
H90 H 0.22656 0.28149 0.90278 0.0
O91 O 0.36887 0.49902 0.88527 0.0
O92 O 0.47736 0.60694 0.90471 0.0
C93 C 0.52978 0.45724 0.90684 0.0
O94 O 0.49505 0.62914 0.81802 0.0
O95 O 0.39048 0.51789 0.7977 0.0
C96 C 0.92852 0.80397 0.17389 0.0
C97 C 0.98165 0.80741 0.20434 0.0
C98 C 0.9288 0.87092 0.16506 0.0
C99 C 0.98201 0.9421 0.18821 0.0
C100 C 0.03384 0.94524 0.22006 0.0
C101 C 0.03303 0.87752 0.22771 0.0
C102 C 0.87287 0.86563 0.1308 0.0
C103 C 0.09039 0.02006 0.24581 0.0
C104 C 0.03799 0.12811 0.14423 0.0
C105 C 0.99226 0.15222 0.16325 0.0
C106 C 0.03447 0.05906 0.15167 0.0
C107 C 0.98416 0.01363 0.17891 0.0
C108 C 0.93677 0.03701 0.19766 0.0
C109 C 0.94063 0.10569 0.18909 0.0
C110 C 0.08491 0.03505 0.13068 0.0
C111 C 0.88254 0.98989 0.22694 0.0
H112 H 0.88687 0.74876 0.15706 0.0
H113 H 0.07306 0.87917 0.25166 0.0
H114 H 0.83535 0.88679 0.14225 0.0
H115 H 0.90522 0.90304 0.10792 0.0
H116 H 0.83558 0.80574 0.11566 0.0
H117 H 0.12501 0.01196 0.27021 0.0
H118 H 0.13049 0.06163 0.22663 0.0
H119 H 0.05897 0.04634 0.25979 0.0
H120 H 0.07712 0.16395 0.12386 0.0
H121 H 0.9027 0.12259 0.20228 0.0
H122 H 0.04876 0.97665 0.11372 0.0
H123 H 0.12564 0.03191 0.15345 0.0
H124 H 0.11885 0.0757 0.10931 0.0
H125 H 0.84033 0.9313 0.21176 0.0
H126 H 0.85024 0.01679 0.23921 0.0
H127 H 0.91565 0.98299 0.25258 0.0
C128 C 0.2257 0.07702 0.52176 0.0
C129 C 0.2135 0.01436 0.49479 0.0
C130 C 0.16387 0.08652 0.53124 0.0
C131 C 0.08869 0.03343 0.51214 0.0
C132 C 0.07666 0.97232 0.48328 0.0
C133 C 0.1394 0.96339 0.47505 0.0
C134 C 0.17873 0.15218 0.56231 0.0
C135 C -0.00265 0.91556 0.46174 0.0
C136 C 0.91423 0.0013 0.56326 0.0
C137 C 0.88965 0.04405 0.54199 0.0
C138 C 0.98022 -0.0011 0.55448 0.0
C139 C 0.02198 0.03982 0.52345 0.0
C140 C -0.00117 0.08504 0.50269 0.0
C141 C 0.93347 0.08761 0.51274 0.0
C142 C 0.00431 0.95138 0.57783 0.0
C143 C 0.04198 0.1292 0.46932 0.0
H144 H 0.28362 0.1187 0.53541 0.0
H145 H 0.13051 0.91569 0.45374 0.0
H146 H 0.15831 0.18871 0.54911 0.0
H147 H 0.14569 0.12892 0.58825 0.0
H148 H 0.24096 0.18906 0.57386 0.0
H149 H -0.00123 0.87425 0.43836 0.0
H150 H 0.95848 0.88242 0.48395 0.0
H151 H 0.97183 0.94671 0.44705 0.0
H152 H 0.88065 0.96835 0.58619 0.0
H153 H 0.91654 0.12352 0.49766 0.0
H154 H 0.06555 0.98733 0.59116 0.0
H155 H -2e-05 0.90347 0.55707 0.0
H156 H 0.96797 0.92654 0.60253 0.0
H157 H 0.10351 0.16976 0.4808 0.0
H158 H 0.01687 0.1624 0.45655 0.0
H159 H 0.04076 0.0886 0.44456 0.0
C160 C 0.84194 0.92084 0.89392 0.0
C161 C 0.81618 0.84805 0.87291 0.0
C162 C 0.91016 0.98535 0.886 0.0
C163 C 0.95315 0.97648 0.85624 0.0
C164 C 0.92847 0.90272 0.83564 0.0
C165 C 0.86062 0.83905 0.84468 0.0
C166 C 0.93556 0.0631 0.90899 0.0
C167 C 0.97295 0.8913 0.80365 0.0
C168 C 0.08049 0.15502 0.80797 0.0
C169 C 0.15309 0.17987 0.82893 0.0
C170 C 0.01501 0.08783 0.81599 0.0
C171 C 0.02266 0.04497 0.84585 0.0
C172 C 0.09618 0.0687 0.86642 0.0
C173 C 0.16087 0.1355 0.85724 0.0
C174 C 0.93755 0.06342 0.79302 0.0
C175 C 0.10629 0.0243 0.89849 0.0
H176 H 0.80779 0.92729 0.91609 0.0
H177 H 0.8425 0.78218 0.8298 0.0
H178 H -0.00435 0.08901 0.92376 0.0
H179 H 0.93528 0.10281 0.88772 0.0
H180 H 0.89749 0.05937 0.93252 0.0
H181 H 0.94627 0.82989 0.79082 0.0
H182 H 0.97572 0.92576 0.77868 0.0
H183 H 0.03327 0.91216 0.81654 0.0
H184 H 0.07493 0.18911 0.78576 0.0
H185 H 0.21753 0.15288 0.87211 0.0
H186 H 0.89789 0.06485 0.81429 0.0
H187 H 0.91081 0.00321 0.77831 0.0
H188 H 0.94226 0.10124 0.76943 0.0
H189 H 0.07171 0.02264 0.92345 0.0
H190 H 0.16765 0.05018 0.91133 0.0
H191 H 0.08456 0.96378 0.88569 0.0
C192 C 0.40478 0.64977 0.96606 0.0
C193 C 0.36604 0.58152 0.93906 0.0
C194 C 0.36752 0.66398 0.99718 0.0
C195 C 0.29015 0.60831 1.00159 0.0
C196 C 0.24987 0.54126 0.97317 0.0
C197 C 0.2881 0.5289 0.94234 0.0
C198 C 0.4121 0.73671 0.02644 0.0
C199 C 0.16753 0.47994 0.9767 0.0
C200 C 0.21497 0.56381 0.10275 0.0
C201 C 0.1592 0.58629 0.1016 0.0
C202 C 0.2626 0.57672 0.07193 0.0
C203 C 0.25431 0.61299 0.03878 0.0
C204 C 0.20271 0.64194 0.03914 0.0
C205 C 0.15551 0.62828 0.07074 0.0
C206 C 0.31683 0.54512 0.0732 0.0
C207 C 0.19313 0.68208 1.00473 0.0
H208 H 0.46474 0.69118 0.96355 0.0
H209 H 0.25716 0.47627 0.9215 0.0
H210 H 0.37587 0.76271 0.03266 0.0
H211 H 0.42862 0.72267 0.05561 0.0
H212 H 0.46563 0.78005 1.01485 0.0
H213 H 0.14232 0.43452 0.95029 0.0
H214 H 0.16577 0.45212 1.00443 0.0
H215 H 0.13057 0.50609 0.97948 0.0
H216 H 0.21863 0.53221 0.12695 0.0
H217 H 0.11243 0.64573 0.06979 0.0
H218 H 0.37501 0.58903 0.06653 0.0
H219 H 0.29461 0.49477 0.04969 0.0
H220 H 0.32273 0.52632 0.10305 0.0
H221 H 0.24996 0.72217 0.99486 0.0
H222 H 0.16403 0.71478 1.01321 0.0
H223 H 0.15745 0.63853 0.9785 0.0
C224 C 0.59845 0.16863 0.39775 0.0
C225 C 0.64369 0.16141 0.429 0.0
C226 C 0.63281 0.21292 0.36636 0.0
C227 C 0.71417 0.25095 0.36641 0.0
C228 C 0.76011 0.24607 0.3987 0.0
C229 C 0.72439 0.20141 0.42947 0.0
C230 C 0.58192 0.21667 0.33241 0.0
C231 C 0.84704 0.2858 0.40005 0.0
C232 C 0.80793 0.28848 0.26917 0.0
C233 C 0.8403 0.36848 0.26982 0.0
C234 C 0.76378 0.24914 0.29943 0.0
C235 C 0.75151 0.29066 0.33133 0.0
C236 C 0.78115 0.3709 0.33131 0.0
C237 C 0.82516 0.40893 0.30047 0.0
C238 C 0.7331 0.16354 0.29815 0.0
C239 C 0.76929 0.41714 0.3648 0.0
H240 H 0.5361 0.13802 0.39719 0.0
H241 H 0.76 0.19691 0.45368 0.0
H242 H 0.60323 0.27742 0.32717 0.0
H243 H 0.58413 0.18593 0.30401 0.0
H244 H 0.52074 0.19015 0.33869 0.0
H245 H 0.87475 0.28043 0.42856 0.0
H246 H 0.8626 0.26034 0.37426 0.0
H247 H 0.87147 0.34791 0.39701 0.0
H248 H 0.81831 0.25647 0.2453 0.0
H249 H 0.84978 0.47069 0.30114 0.0
H250 H 0.67029 0.13264 0.30106 0.0
H251 H 0.7622 0.15255 0.32406 0.0
H252 H 0.74265 0.13877 0.26973 0.0
H253 H 0.70741 0.38879 0.36975 0.0
H254 H 0.78876 0.47697 0.35822 0.0
H255 H 0.80223 0.41986 0.39345 0.0
C256 C 0.4452 0.70861 0.77026 0.0
C257 C 0.41179 0.6282 0.76431 0.0
C258 C 0.43929 0.74922 0.73921 0.0
C259 C 0.39956 0.70859 0.70096 0.0
C260 C 0.36015 0.62681 0.69578 0.0
C261 C 0.36653 0.58738 0.72766 0.0
C262 C 0.48165 0.83624 0.74638 0.0
C263 C 0.31668 0.58127 0.6556 0.0
C264 C 0.38623 0.83299 0.62327 0.0
C265 C 0.45424 0.85408 0.60532 0.0
C266 C 0.36502 0.78248 0.65332 0.0
C267 C 0.41275 0.75239 0.6653 0.0
C268 C 0.47928 0.77081 0.64574 0.0
C269 C 0.49914 0.82131 0.61624 0.0
C270 C 0.29353 0.76397 0.67338 0.0
C271 C 0.53181 0.73989 0.65719 0.0
H272 H 0.47918 0.74047 0.79879 0.0
H273 H 0.34026 0.52518 0.72295 0.0
H274 H 0.53411 0.85997 0.73034 0.0
H275 H 0.44489 0.85844 0.73416 0.0
H276 H 0.49982 0.85827 0.77903 0.0
H277 H 0.27705 0.51946 0.65858 0.0
H278 H 0.28273 0.6053 0.64192 0.0
H279 H 0.35856 0.58502 0.63445 0.0
H280 H 0.35104 0.85772 0.61481 0.0
H281 H 0.55108 0.83604 0.60204 0.0
H282 H 0.31069 0.79482 0.70451 0.0
H283 H 0.25911 0.70135 0.67594 0.0
H284 H 0.25641 0.78151 0.65657 0.0
H285 H 0.5595 0.76354 0.68872 0.0
H286 H 0.57809 0.75528 0.63705 0.0
H287 H 0.49794 0.67619 0.65593 0.0
C288 C 0.52656 0.36786 0.95734 0.0
C289 C 0.56801 0.42988 0.93536 0.0
C290 C 0.56546 0.34975 0.98754 0.0
C291 C 0.64725 0.39477 0.99569 0.0
C292 C 0.68909 0.45408 0.97168 0.0
C293 C 0.64912 0.47063 0.94198 0.0
C294 C 0.51887 0.28525 1.01204 0.0
C295 C 0.77621 0.50373 0.979 0.0
C296 C 0.75937 0.44855 0.0992 0.0
C297 C 0.80273 0.41173 0.09542 0.0
C298 C 0.70314 0.43764 0.06827 0.0
C299 C 0.68966 0.38872 0.03234 0.0
C300 C 0.72868 0.34641 0.02962 0.0
C301 C 0.78494 0.3584 0.06128 0.0
C302 C 0.66304 0.48387 0.07278 0.0
C303 C 0.71516 0.29282 0.99211 0.0
H304 H 0.46395 0.33568 0.95215 0.0
H305 H 0.68195 0.51762 0.92455 0.0
H306 H 0.54711 0.25081 0.01719 0.0
H307 H 0.51528 0.30998 0.04209 0.0
H308 H 0.45912 0.24635 0.99702 0.0
H309 H 0.80033 0.54335 0.95561 0.0
H310 H 0.7933 0.53895 1.00898 0.0
H311 H 0.80304 0.4672 0.9794 0.0
H312 H 0.77155 0.48873 0.12584 0.0
H313 H 0.81765 0.32916 0.0583 0.0
H314 H 0.6 0.44673 0.06368 0.0
H315 H 0.68565 0.52995 0.05258 0.0
H316 H 0.67236 0.51137 0.1043 0.0
H317 H 0.65277 0.25865 0.98067 0.0
H318 H 0.73665 0.25274 0.99778 0.0
H319 H 0.74606 0.32723 0.96797 0.0
C320 C 0.20352 0.64773 0.29701 0.0
C321 C 0.18627 0.57715 0.27581 0.0
C322 C 0.26601 0.68742 0.32719 0.0
C323 C 0.31357 0.65625 0.33695 0.0
C324 C 0.29715 0.58509 0.31578 0.0
C325 C 0.23342 0.54612 0.28538 0.0
C326 C 0.28034 0.76275 0.34897 0.0
C327 C 0.34683 0.55039 0.32524 0.0
C328 C 0.49558 0.81991 0.39557 0.0
C329 C 0.47262 0.81435 0.43448 0.0
C330 C 0.44873 0.76223 0.36345 0.0
C331 C 0.37755 0.69831 0.37073 0.0
C332 C 0.35986 0.68818 0.41106 0.0
C333 C 0.40727 0.74683 0.44239 0.0
C334 C 0.47047 0.77508 0.3211 0.0
C335 C 0.28534 0.62094 0.42056 0.0
H336 H 0.16769 0.67253 0.29016 0.0
H337 H 0.22082 0.4919 0.26907 0.0
H338 H 0.27572 0.75797 0.38171 0.0
H339 H 0.33961 0.80977 0.34592 0.0
H340 H 0.23868 0.77963 0.33712 0.0
H341 H 0.32575 0.49413 0.30667 0.0
H342 H 0.40717 0.59055 0.31968 0.0
H343 H 0.34823 0.5419 0.35769 0.0
H344 H 0.54574 0.87261 0.38942 0.0
H345 H 0.38943 0.74292 0.47256 0.0
H346 H 0.43905 0.8006 0.30618 0.0
H347 H 0.45394 0.71985 0.30276 0.0
H348 H 0.53347 0.81526 0.32122 0.0
H349 H 0.23738 0.63231 0.41377 0.0
H350 H 0.28813 0.61216 0.45298 0.0
H351 H 0.27131 0.56698 0.40172 0.0
C352 C 0.54378 0.35847 0.76202 0.0
C353 C 0.57409 0.43845 0.76489 0.0
C354 C 0.5599 0.31948 0.73124 0.0
C355 C 0.60774 0.36126 0.70222 0.0
C356 C 0.64286 0.44286 0.70638 0.0
C357 C 0.62572 0.48077 0.73787 0.0
C358 C 0.52139 0.23264 0.72838 0.0
C359 C 0.69491 0.48956 0.67634 0.0
C360 C 0.65701 0.23495 0.6348 0.0
C361 C 0.5958 0.20461 0.60351 0.0
C362 C 0.66589 0.29124 0.66573 0.0
C363 C 0.6121 0.31733 0.66542 0.0
C364 C 0.55352 0.2906 0.63241 0.0
C365 C 0.54633 0.23499 0.60192 0.0
C366 C 0.72979 0.31901 0.70004 0.0
C367 C 0.4947 0.3165 0.63068 0.0
H368 H 0.5049 0.32552 0.78329 0.0
H369 H 0.64944 0.5426 0.74004 0.0
H370 H 0.47861 0.20606 0.70097 0.0
H371 H 0.56468 0.21428 0.72547 0.0
H372 H 0.49094 0.20961 0.75516 0.0
H373 H 0.7285 0.55204 0.68766 0.0
H374 H 0.73567 0.46947 0.66929 0.0
H375 H 0.65934 0.48184 0.64767 0.0
H376 H 0.69608 0.21252 0.63608 0.0
H377 H 0.49996 0.21339 0.5774 0.0
H378 H 0.70518 0.29107 0.72712 0.0
H379 H 0.75756 0.38224 0.70827 0.0
H380 H 0.77469 0.30495 0.69231 0.0
H381 H 0.45635 0.29279 0.65471 0.0
H382 H 0.45818 0.2969 0.60104 0.0
H383 H 0.52386 0.38025 0.63633 0.0
loop_
_geom_bond_atom_site_label_1
_geom_bond_atom_site_label_2
_geom_bond_distance
_geom_bond_site_symmetry_2
_ccdc_geom_bond_type
Zn0 O1 2.055 . S
Zn0 O8 2.046 . S
Zn0 N16 2.036 . S
Zn0 O28 2.053 1_455 S
Zn0 O30 2.066 1_455 S
O1 Zn0 2.055 . S
O1 C4 1.259 . S
C2 O30 1.256 . S
C2 O31 1.244 . S
Zn3 O5 2.046 . S
Zn3 O7 2.055 . S
Zn3 N9 2.036 . S
Zn3 O27 2.066 1_455 S
Zn3 O31 2.053 1_455 S
C4 O1 1.259 . S
C4 O5 1.254 . S
O5 Zn3 2.046 . S
O5 C4 1.254 . S
C6 O27 1.256 . S
C6 O28 1.244 . S
O7 Zn3 2.055 . S
O7 C29 1.259 . S
O8 Zn0 2.046 . S
O8 C29 1.254 . S
N9 Zn3 2.036 . S
N9 C10 1.298 . S
N9 N12 1.398 1_455 S
C10 N9 1.298 . S
C10 N13 1.367 1_455 S
C10 C23 1.481 . S
C11 N12 1.299 . S
C11 N13 1.379 . S
N12 N9 1.398 1_655 S
N12 C11 1.299 . S
N13 C10 1.367 1_655 S
N13 C11 1.379 . S
C14 N16 1.298 . S
C14 N18 1.367 1_455 S
C14 C22 1.481 . S
C15 N17 1.299 . S
C15 N18 1.379 . S
N16 Zn0 2.036 . S
N16 C14 1.298 . S
N16 N17 1.398 1_455 S
N17 C15 1.299 . S
N17 N16 1.398 1_655 S
N18 C14 1.367 1_655 S
N18 C15 1.379 . S
H19 C22 0.980 . S
H20 C22 0.981 . S
H21 C22 0.981 1_655 S
C22 C14 1.481 . S
C22 H19 0.980 . S
C22 H20 0.981 . S
C22 H21 0.981 1_455 S
C23 C10 1.481 . S
C23 H24 0.980 . S
C23 H25 0.981 . S
C23 H26 0.981 . S
H24 C23 0.980 . S
H25 C23 0.981 . S
H26 C23 0.981 . S
O27 Zn3 2.066 1_655 S
O27 C6 1.256 . S
O28 Zn0 2.053 1_655 S
O28 C6 1.244 . S
C29 O7 1.259 . S
C29 O8 1.254 . S
O30 Zn0 2.066 1_655 S
O30 C2 1.256 . S
O31 C2 1.244 . S
O31 Zn3 2.053 1_655 S
Zn32 O33 2.055 1_545 S
Zn32 O40 2.046 1_545 S
Zn32 N48 2.036 . S
Zn32 O60 2.053 . S
Zn32 O62 2.066 . S
O33 Zn32 2.055 1_565 S
O33 C36 1.259 . S
C34 O62 1.256 . S
C34 O63 1.244 . S
Zn35 O37 2.044 1_545 S
Zn35 O39 2.054 1_545 S
Zn35 N41 2.038 . S
Zn35 O59 2.068 . S
Zn35 O63 2.054 . S
C36 O33 1.259 . S
C36 O37 1.254 . S
O37 Zn35 2.044 1_565 S
O37 C36 1.254 . S
C38 O59 1.256 . S
C38 O60 1.244 . S
O39 Zn35 2.054 1_565 S
O39 C61 1.259 . S
O40 Zn32 2.046 1_565 S
O40 C61 1.254 . S
N41 Zn35 2.038 . S
N41 C42 1.298 . S
N41 N44 1.398 . S
C42 N41 1.298 . S
C42 N45 1.367 . S
C42 C55 1.481 1_545 S
C43 N44 1.299 . S
C43 N45 1.379 . S
N44 N41 1.398 . S
N44 C43 1.299 . S
N45 C42 1.367 . S
N45 C43 1.379 . S
C46 N48 1.298 . S
C46 N50 1.367 . S
C46 C54 1.481 1_545 S
C47 N49 1.299 . S
C47 N50 1.379 . S
N48 Zn32 2.036 . S
N48 C46 1.298 . S
N48 N49 1.398 . S
N49 C47 1.299 . S
N49 N48 1.398 . S
N50 C46 1.367 . S
N50 C47 1.379 . S
H51 C54 0.980 . S
H52 C54 0.981 . S
H53 C54 0.981 1_545 S
C54 C46 1.481 1_565 S
C54 H51 0.980 . S
C54 H52 0.981 . S
C54 H53 0.981 1_565 S
C55 C42 1.481 1_565 S
C55 H56 0.980 . S
C55 H57 0.981 . S
C55 H58 0.981 1_565 S
H56 C55 0.980 . S
H57 C55 0.981 . S
H58 C55 0.981 1_545 S
O59 Zn35 2.068 . S
O59 C38 1.256 . S
O60 Zn32 2.053 . S
O60 C38 1.244 . S
C61 O39 1.259 . S
C61 O40 1.254 . S
O62 Zn32 2.066 . S
O62 C34 1.256 . S
O63 C34 1.244 . S
O63 Zn35 2.054 . S
Zn64 O65 2.055 . S
Zn64 O72 2.046 . S
Zn64 N80 2.036 . S
Zn64 O92 2.053 . S
Zn64 O94 2.066 . S
O65 Zn64 2.055 . S
O65 C68 1.259 . S
C66 O94 1.256 . S
C66 O95 1.244 . S
Zn67 O69 2.046 . S
Zn67 O71 2.055 . S
Zn67 N73 2.036 . S
Zn67 O91 2.066 . S
Zn67 O95 2.053 . S
C68 O65 1.259 . S
C68 O69 1.254 . S
O69 Zn67 2.046 . S
O69 C68 1.254 . S
C70 O91 1.256 . S
C70 O92 1.244 . S
O71 Zn67 2.055 . S
O71 C93 1.259 . S
O72 Zn64 2.046 . S
O72 C93 1.254 . S
N73 Zn67 2.036 . S
N73 C74 1.298 . S
N73 N76 1.398 . S
C74 N73 1.298 . S
C74 N77 1.367 . S
C74 C87 1.481 . S
C75 N76 1.299 . S
C75 N77 1.379 . S
N76 N73 1.398 . S
N76 C75 1.299 . S
N77 C74 1.367 . S
N77 C75 1.379 . S
C78 N80 1.298 . S
C78 N82 1.367 . S
C78 C86 1.481 . S
C79 N81 1.299 . S
C79 N82 1.379 . S
N80 Zn64 2.036 . S
N80 C78 1.298 . S
N80 N81 1.398 . S
N81 C79 1.299 . S
N81 N80 1.398 . S
N82 C78 1.367 . S
N82 C79 1.379 . S
H83 C86 0.980 . S
H84 C86 0.981 . S
H85 C86 0.981 . S
C86 C78 1.481 . S
C86 H83 0.980 . S
C86 H84 0.981 . S
C86 H85 0.981 . S
C87 C74 1.481 . S
C87 H88 0.980 . S
C87 H89 0.981 . S
C87 H90 0.981 . S
H88 C87 0.980 . S
H89 C87 0.981 . S
H90 C87 0.981 . S
O91 Zn67 2.066 . S
O91 C70 1.256 . S
O92 Zn64 2.053 . S
O92 C70 1.244 . S
C93 O71 1.259 . S
C93 O72 1.254 . S
O94 Zn64 2.066 . S
O94 C66 1.256 . S
O95 C66 1.244 . S
O95 Zn67 2.053 . S
C96 C97 1.391 . S
C96 C98 1.394 . S
C96 H112 0.931 . S
C97 C96 1.391 . S
C97 C101 1.376 1_655 S
C98 C96 1.394 . S
C98 C99 1.369 . S
C98 C102 1.531 . S
C99 C98 1.369 . S
C99 C100 1.403 1_655 S
C99 C107 1.503 1_565 S
C100 C99 1.403 1_455 S
C100 C101 1.399 . S
C100 C103 1.512 . S
C101 C97 1.376 1_455 S
C101 C100 1.399 . S
C101 H113 0.929 . S
C102 C98 1.531 . S
C102 H114 0.960 . S
C102 H115 0.962 . S
C102 H116 0.960 . S
C103 C100 1.512 . S
C103 H117 0.961 . S
C103 H118 0.961 1_565 S
C103 H119 0.961 1_455 S
C104 C105 1.370 1_455 S
C104 C106 1.363 . S
C104 H120 0.931 . S
C105 C104 1.370 1_655 S
C105 C109 1.408 . S
C106 C104 1.363 . S
C106 C107 1.370 1_455 S
C106 C110 1.524 . S
C107 C99 1.503 1_545 S
C107 C106 1.370 1_655 S
C107 C108 1.403 . S
C108 C107 1.403 . S
C108 C109 1.404 . S
C108 C111 1.539 1_545 S
C109 C105 1.408 . S
C109 C108 1.404 . S
C109 H121 0.930 . S
C110 C106 1.524 . S
C110 H122 0.956 . S
C110 H123 0.961 . S
C110 H124 0.961 . S
C111 C108 1.539 1_565 S
C111 H125 0.958 . S
C111 H126 0.961 . S
C111 H127 0.960 . S
H112 C96 0.931 . S
H113 C101 0.929 . S
H114 C102 0.960 . S
H115 C102 0.962 . S
H116 C102 0.960 . S
H117 C103 0.961 . S
H118 C103 0.961 1_545 S
H119 C103 0.961 1_655 S
H120 C104 0.931 . S
H121 C109 0.930 . S
H122 C110 0.956 . S
H123 C110 0.961 . S
H124 C110 0.961 . S
H125 C111 0.958 . S
H126 C111 0.961 . S
H127 C111 0.960 . S
C128 C129 1.391 . S
C128 C130 1.394 . S
C128 H144 0.931 . S
C129 C128 1.391 . S
C129 C133 1.376 . S
C130 C128 1.394 . S
C130 C131 1.369 . S
C130 C134 1.531 . S
C131 C130 1.369 . S
C131 C132 1.410 . S
C131 C139 1.503 . S
C132 C131 1.410 . S
C132 C133 1.392 . S
C132 C135 1.511 . S
C133 C129 1.376 . S
C133 C132 1.392 . S
C133 H145 0.929 . S
C134 C130 1.531 . S
C134 H146 0.960 . S
C134 H147 0.962 1_545 S
C134 H148 0.960 . S
C135 C132 1.511 . S
C135 H149 0.961 . S
C135 H150 0.961 . S
C135 H151 0.961 . S
C136 C137 1.370 1_565 S
C136 C138 1.363 . S
C136 H152 0.931 . S
C137 C136 1.370 1_545 S
C137 C141 1.408 . S
C138 C136 1.363 . S
C138 C139 1.370 1_665 S
C138 C142 1.524 . S
C139 C131 1.503 . S
C139 C138 1.370 1_445 S
C139 C140 1.403 . S
C140 C139 1.403 . S
C140 C141 1.404 1_455 S
C140 C143 1.539 . S
C141 C137 1.408 . S
C141 C140 1.404 1_655 S
C141 H153 0.930 . S
C142 C138 1.524 . S
C142 H154 0.956 . S
C142 H155 0.961 . S
C142 H156 0.961 . S
C143 C140 1.539 . S
C143 H157 0.958 . S
C143 H158 0.961 . S
C143 H159 0.960 . S
H144 C128 0.931 . S
H145 C133 0.929 . S
H146 C134 0.960 . S
H147 C134 0.962 1_565 S
H148 C134 0.960 . S
H149 C135 0.961 . S
H150 C135 0.961 . S
H151 C135 0.961 . S
H152 C136 0.931 . S
H153 C141 0.930 . S
H154 C142 0.956 . S
H155 C142 0.961 . S
H156 C142 0.961 . S
H157 C143 0.958 . S
H158 C143 0.961 . S
H159 C143 0.960 . S
C160 C161 1.391 . S
C160 C162 1.394 1_565 S
C160 H176 0.931 . S
C161 C160 1.391 . S
C161 C165 1.376 . S
C162 C160 1.394 1_545 S
C162 C163 1.369 . S
C162 C166 1.531 . S
C163 C162 1.369 . S
C163 C164 1.410 1_545 S
C163 C171 1.503 1_655 S
C164 C163 1.410 1_565 S
C164 C165 1.392 . S
C164 C167 1.511 1_655 S
C165 C161 1.376 . S
C165 C164 1.392 . S
C165 H177 0.929 . S
C166 C162 1.531 . S
C166 H178 0.960 . S
C166 H179 0.962 . S
C166 H180 0.960 . S
C167 C164 1.511 1_455 S
C167 H181 0.961 . S
C167 H182 0.961 . S
C167 H183 0.961 . S
C168 C169 1.370 . S
C168 C170 1.363 . S
C168 H184 0.931 . S
C169 C168 1.370 . S
C169 C173 1.408 . S
C170 C168 1.363 . S
C170 C171 1.370 . S
C170 C174 1.524 1_455 S
C171 C163 1.503 1_455 S
C171 C170 1.370 . S
C171 C172 1.403 . S
C172 C171 1.403 . S
C172 C173 1.404 . S
C172 C175 1.539 . S
C173 C169 1.408 . S
C173 C172 1.404 . S
C173 H185 0.930 . S
C174 C170 1.524 1_655 S
C174 H186 0.956 . S
C174 H187 0.961 . S
C174 H188 0.961 1_655 S
C175 C172 1.539 . S
C175 H189 0.958 . S
C175 H190 0.961 . S
C175 H191 0.960 . S
H176 C160 0.931 . S
H177 C165 0.929 . S
H178 C166 0.960 . S
H179 C166 0.962 . S
H180 C166 0.960 . S
H181 C167 0.961 . S
H182 C167 0.961 . S
H183 C167 0.961 . S
H184 C168 0.931 . S
H185 C173 0.930 . S
H186 C174 0.956 . S
H187 C174 0.961 . S
H188 C174 0.961 1_455 S
H189 C175 0.958 . S
H190 C175 0.961 . S
H191 C175 0.960 . S
C192 C193 1.391 . S
C192 C194 1.394 . S
C192 H208 0.931 . S
C193 C192 1.391 . S
C193 C197 1.376 . S
C194 C192 1.394 . S
C194 C195 1.369 . S
C194 C198 1.531 1_556 S
C195 C194 1.369 . S
C195 C196 1.410 . S
C195 C203 1.503 1_556 S
C196 C195 1.410 . S
C196 C197 1.392 . S
C196 C199 1.511 . S
C197 C193 1.376 . S
C197 C196 1.392 . S
C197 H209 0.929 . S
C198 C194 1.531 1_554 S
C198 H210 0.960 . S
C198 H211 0.962 . S
C198 H212 0.960 . S
C199 C196 1.511 . S
C199 H213 0.961 . S
C199 H214 0.961 . S
C199 H215 0.961 . S
C200 C201 1.370 . S
C200 C202 1.363 . S
C200 H216 0.931 . S
C201 C200 1.370 . S
C201 C205 1.408 . S
C202 C200 1.363 . S
C202 C203 1.370 . S
C202 C206 1.524 . S
C203 C195 1.503 1_554 S
C203 C202 1.370 . S
C203 C204 1.403 . S
C204 C203 1.403 . S
C204 C205 1.404 . S
C204 C207 1.539 1_554 S
C205 C201 1.408 . S
C205 C204 1.404 . S
C205 H217 0.930 . S
C206 C202 1.524 . S
C206 H218 0.956 . S
C206 H219 0.961 . S
C206 H220 0.961 . S
C207 C204 1.539 1_556 S
C207 H221 0.958 . S
C207 H222 0.961 . S
C207 H223 0.960 . S
H208 C192 0.931 . S
H209 C197 0.929 . S
H210 C198 0.960 . S
H211 C198 0.962 . S
H212 C198 0.960 . S
H213 C199 0.961 . S
H214 C199 0.961 . S
H215 C199 0.961 . S
H216 C200 0.931 . S
H217 C205 0.930 . S
H218 C206 0.956 . S
H219 C206 0.961 . S
H220 C206 0.961 . S
H221 C207 0.958 . S
H222 C207 0.961 . S
H223 C207 0.960 . S
C224 C225 1.391 . S
C224 C226 1.394 . S
C224 H240 0.931 . S
C225 C224 1.391 . S
C225 C229 1.376 . S
C226 C224 1.394 . S
C226 C227 1.369 . S
C226 C230 1.531 . S
C227 C226 1.369 . S
C227 C228 1.410 . S
C227 C235 1.503 . S
C228 C227 1.410 . S
C228 C229 1.392 . S
C228 C231 1.511 . S
C229 C225 1.376 . S
C229 C228 1.392 . S
C229 H241 0.929 . S
C230 C226 1.531 . S
C230 H242 0.960 . S
C230 H243 0.962 . S
C230 H244 0.960 . S
C231 C228 1.511 . S
C231 H245 0.961 . S
C231 H246 0.961 . S
C231 H247 0.961 . S
C232 C233 1.370 . S
C232 C234 1.363 . S
C232 H248 0.931 . S
C233 C232 1.370 . S
C233 C237 1.408 . S
C234 C232 1.363 . S
C234 C235 1.370 . S
C234 C238 1.524 . S
C235 C227 1.503 . S
C235 C234 1.370 . S
C235 C236 1.403 . S
C236 C235 1.403 . S
C236 C237 1.404 . S
C236 C239 1.539 . S
C237 C233 1.408 . S
C237 C236 1.404 . S
C237 H249 0.930 . S
C238 C234 1.524 . S
C238 H250 0.956 . S
C238 H251 0.961 . S
C238 H252 0.961 . S
C239 C236 1.539 . S
C239 H253 0.958 . S
C239 H254 0.961 . S
C239 H255 0.960 . S
H240 C224 0.931 . S
H241 C229 0.929 . S
H242 C230 0.960 . S
H243 C230 0.962 . S
H244 C230 0.960 . S
H245 C231 0.961 . S
H246 C231 0.961 . S
H247 C231 0.961 . S
H248 C232 0.931 . S
H249 C237 0.930 . S
H250 C238 0.956 . S
H251 C238 0.961 . S
H252 C238 0.961 . S
H253 C239 0.958 . S
H254 C239 0.961 . S
H255 C239 0.960 . S
C256 C257 1.391 . S
C256 C258 1.394 . S
C256 H272 0.931 . S
C257 C256 1.391 . S
C257 C261 1.376 . S
C258 C256 1.394 . S
C258 C259 1.369 . S
C258 C262 1.531 . S
C259 C258 1.369 . S
C259 C260 1.410 . S
C259 C267 1.503 . S
C260 C259 1.410 . S
C260 C261 1.392 . S
C260 C263 1.511 . S
C261 C257 1.376 . S
C261 C260 1.392 . S
C261 H273 0.929 . S
C262 C258 1.531 . S
C262 H274 0.960 . S
C262 H275 0.962 . S
C262 H276 0.960 . S
C263 C260 1.511 . S
C263 H277 0.961 . S
C263 H278 0.961 . S
C263 H279 0.961 . S
C264 C265 1.370 . S
C264 C266 1.363 . S
C264 H280 0.931 . S
C265 C264 1.370 . S
C265 C269 1.408 . S
C266 C264 1.363 . S
C266 C267 1.370 . S
C266 C270 1.524 . S
C267 C259 1.503 . S
C267 C266 1.370 . S
C267 C268 1.403 . S
C268 C267 1.403 . S
C268 C269 1.404 . S
C268 C271 1.539 . S
C269 C265 1.408 . S
C269 C268 1.404 . S
C269 H281 0.930 . S
C270 C266 1.524 . S
C270 H282 0.956 . S
C270 H283 0.961 . S
C270 H284 0.961 . S
C271 C268 1.539 . S
C271 H285 0.958 . S
C271 H286 0.961 . S
C271 H287 0.960 . S
H272 C256 0.931 . S
H273 C261 0.929 . S
H274 C262 0.960 . S
H275 C262 0.962 . S
H276 C262 0.960 . S
H277 C263 0.961 . S
H278 C263 0.961 . S
H279 C263 0.961 . S
H280 C264 0.931 . S
H281 C269 0.930 . S
H282 C270 0.956 . S
H283 C270 0.961 . S
H284 C270 0.961 . S
H285 C271 0.958 . S
H286 C271 0.961 . S
H287 C271 0.960 . S
C288 C289 1.391 . S
C288 C290 1.394 . S
C288 H304 0.931 . S
C289 C288 1.391 . S
C289 C293 1.376 . S
C290 C288 1.394 . S
C290 C291 1.369 . S
C290 C294 1.531 . S
C291 C290 1.369 . S
C291 C292 1.410 . S
C291 C299 1.503 1_556 S
C292 C291 1.410 . S
C292 C293 1.392 . S
C292 C295 1.511 1_556 S
C293 C289 1.376 . S
C293 C292 1.392 . S
C293 H305 0.929 . S
C294 C290 1.531 . S
C294 H306 0.960 . S
C294 H307 0.962 . S
C294 H308 0.960 . S
C295 C292 1.511 1_554 S
C295 H309 0.961 . S
C295 H310 0.961 . S
C295 H311 0.961 . S
C296 C297 1.370 . S
C296 C298 1.363 . S
C296 H312 0.931 . S
C297 C296 1.370 . S
C297 C301 1.408 . S
C298 C296 1.363 . S
C298 C299 1.370 . S
C298 C302 1.524 . S
C299 C291 1.503 1_554 S
C299 C298 1.370 . S
C299 C300 1.403 . S
C300 C299 1.403 . S
C300 C301 1.404 . S
C300 C303 1.539 1_554 S
C301 C297 1.408 . S
C301 C300 1.404 . S
C301 H313 0.930 . S
C302 C298 1.524 . S
C302 H314 0.956 . S
C302 H315 0.961 . S
C302 H316 0.961 . S
C303 C300 1.539 1_556 S
C303 H317 0.958 . S
C303 H318 0.961 . S
C303 H319 0.960 . S
H304 C288 0.931 . S
H305 C293 0.929 . S
H306 C294 0.960 . S
H307 C294 0.962 . S
H308 C294 0.960 . S
H309 C295 0.961 . S
H310 C295 0.961 . S
H311 C295 0.961 . S
H312 C296 0.931 . S
H313 C301 0.930 . S
H314 C302 0.956 . S
H315 C302 0.961 . S
H316 C302 0.961 . S
H317 C303 0.958 . S
H318 C303 0.961 . S
H319 C303 0.960 . S
C320 C321 1.391 . S
C320 C322 1.394 . S
C320 H336 0.931 . S
C321 C320 1.391 . S
C321 C325 1.376 . S
C322 C320 1.394 . S
C322 C323 1.369 . S
C322 C326 1.531 . S
C323 C322 1.369 . S
C323 C324 1.410 . S
C323 C331 1.503 . S
C324 C323 1.410 . S
C324 C325 1.392 . S
C324 C327 1.511 . S
C325 C321 1.376 . S
C325 C324 1.392 . S
C325 H337 0.929 . S
C326 C322 1.531 . S
C326 H338 0.960 . S
C326 H339 0.962 . S
C326 H340 0.960 . S
C327 C324 1.511 . S
C327 H341 0.961 . S
C327 H342 0.961 . S
C327 H343 0.961 . S
C328 C329 1.370 . S
C328 C330 1.363 . S
C328 H344 0.931 . S
C329 C328 1.370 . S
C329 C333 1.408 . S
C330 C328 1.363 . S
C330 C331 1.370 . S
C330 C334 1.524 . S
C331 C323 1.503 . S
C331 C330 1.370 . S
C331 C332 1.403 . S
C332 C331 1.403 . S
C332 C333 1.404 . S
C332 C335 1.539 . S
C333 C329 1.408 . S
C333 C332 1.404 . S
C333 H345 0.930 . S
C334 C330 1.524 . S
C334 H346 0.956 . S
C334 H347 0.961 . S
C334 H348 0.961 . S
C335 C332 1.539 . S
C335 H349 0.958 . S
C335 H350 0.961 . S
C335 H351 0.960 . S
H336 C320 0.931 . S
H337 C325 0.929 . S
H338 C326 0.960 . S
H339 C326 0.962 . S
H340 C326 0.960 . S
H341 C327 0.961 . S
H342 C327 0.961 . S
H343 C327 0.961 . S
H344 C328 0.931 . S
H345 C333 0.930 . S
H346 C334 0.956 . S
H347 C334 0.961 . S
H348 C334 0.961 . S
H349 C335 0.958 . S
H350 C335 0.961 . S
H351 C335 0.960 . S
C352 C353 1.391 . S
C352 C354 1.394 . S
C352 H368 0.931 . S
C353 C352 1.391 . S
C353 C357 1.376 . S
C354 C352 1.394 . S
C354 C355 1.369 . S
C354 C358 1.531 . S
C355 C354 1.369 . S
C355 C356 1.410 . S
C355 C363 1.503 . S
C356 C355 1.410 . S
C356 C357 1.392 . S
C356 C359 1.511 . S
C357 C353 1.376 . S
C357 C356 1.392 . S
C357 H369 0.929 . S
C358 C354 1.531 . S
C358 H370 0.960 . S
C358 H371 0.962 . S
C358 H372 0.960 . S
C359 C356 1.511 . S
C359 H373 0.961 . S
C359 H374 0.961 . S
C359 H375 0.961 . S
C360 C361 1.370 . S
C360 C362 1.363 . S
C360 H376 0.931 . S
C361 C360 1.370 . S
C361 C365 1.408 . S
C362 C360 1.363 . S
C362 C363 1.370 . S
C362 C366 1.524 . S
C363 C355 1.503 . S
C363 C362 1.370 . S
C363 C364 1.403 . S
C364 C363 1.403 . S
C364 C365 1.404 . S
C364 C367 1.539 . S
C365 C361 1.408 . S
C365 C364 1.404 . S
C365 H377 0.930 . S
C366 C362 1.524 . S
C366 H378 0.956 . S
C366 H379 0.961 . S
C366 H380 0.961 . S
C367 C364 1.539 . S
C367 H381 0.958 . S
C367 H382 0.961 . S
C367 H383 0.960 . S
H368 C352 0.931 . S
H369 C357 0.929 . S
H370 C358 0.960 . S
H371 C358 0.962 . S
H372 C358 0.960 . S
H373 C359 0.961 . S
H374 C359 0.961 . S
H375 C359 0.961 . S
H376 C360 0.931 . S
H377 C365 0.930 . S
H378 C366 0.956 . S
H379 C366 0.961 . S
H380 C366 0.961 . S
H381 C367 0.958 . S
H382 C367 0.961 . S
H383 C367 0.960 . S
C97 N18 0.847 . S
C105 N13 0.878 . S
C129 N45 0.879 . S
C137 N50 0.867 . S
C161 N82 0.803 . S
C169 N77 0.869 . S
C193 C70 1.654 . S
C201 C4 1.663 . S
C225 C34 2.006 . S
C233 C6 2.002 . S
C257 C66 1.628 . S
C265 C61 1.653 . S
C289 C93 1.652 . S
C297 C2 1.674 . S
C321 C29 1.372 . S
C329 C36 1.348 . S
C353 C68 1.653 . S
C361 C38 1.672 . S
