# Generated by pormake.
# Topology wht, (6)-cn, num edge types: 1
# Building blocks:
#     Node 0, Type 0, BuildingBlock: VOLQOD_clean_sbu_1, # of connection points: 6
#     Node 1, Type 0, BuildingBlock: VOLQOD_clean_sbu_1, # of connection points: 6
#     Node 2, Type 0, BuildingBlock: VOLQOD_clean_sbu_1, # of connection points: 6
#     Node 3, Type 0, BuildingBlock: VOLQOD_clean_sbu_1, # of connection points: 6
#     Node 4, Type 0, BuildingBlock: VOLQOD_clean_sbu_1, # of connection points: 6
#     Node 5, Type 0, BuildingBlock: VOLQOD_clean_sbu_1, # of connection points: 6
#     Node 6, Type 0, BuildingBlock: VOLQOD_clean_sbu_1, # of connection points: 6
#     Node 7, Type 0, BuildingBlock: VOLQOD_clean_sbu_1, # of connection points: 6
#     Edge 8, Type (0, 0), BuildingBlock: ZUJKAS_clean_linker_0, # of connection points: 2
#     Edge 9, Type (0, 0), BuildingBlock: ZUJKAS_clean_linker_0, # of connection points: 2
#     Edge 10, Type (0, 0), BuildingBlock: ZUJKAS_clean_linker_0, # of connection points: 2
#     Edge 11, Type (0, 0), BuildingBlock: ZUJKAS_clean_linker_0, # of connection points: 2
#     Edge 12, Type (0, 0), BuildingBlock: ZUJKAS_clean_linker_0, # of connection points: 2
#     Edge 13, Type (0, 0), BuildingBlock: ZUJKAS_clean_linker_0, # of connection points: 2
#     Edge 14, Type (0, 0), BuildingBlock: ZUJKAS_clean_linker_0, # of connection points: 2
#     Edge 15, Type (0, 0), BuildingBlock: ZUJKAS_clean_linker_0, # of connection points: 2
#     Edge 16, Type (0, 0), BuildingBlock: ZUJKAS_clean_linker_0, # of connection points: 2
#     Edge 17, Type (0, 0), BuildingBlock: ZUJKAS_clean_linker_0, # of connection points: 2
#     Edge 18, Type (0, 0), BuildingBlock: ZUJKAS_clean_linker_0, # of connection points: 2
#     Edge 19, Type (0, 0), BuildingBlock: ZUJKAS_clean_linker_0, # of connection points: 2
#     Edge 20, Type (0, 0), BuildingBlock: ZUJKAS_clean_linker_0, # of connection points: 2
#     Edge 21, Type (0, 0), BuildingBlock: ZUJKAS_clean_linker_0, # of connection points: 2
#     Edge 22, Type (0, 0), BuildingBlock: ZUJKAS_clean_linker_0, # of connection points: 2
#     Edge 23, Type (0, 0), BuildingBlock: ZUJKAS_clean_linker_0, # of connection points: 2
#     Edge 24, Type (0, 0), BuildingBlock: ZUJKAS_clean_linker_0, # of connection points: 2
#     Edge 25, Type (0, 0), BuildingBlock: ZUJKAS_clean_linker_0, # of connection points: 2
#     Edge 26, Type (0, 0), BuildingBlock: ZUJKAS_clean_linker_0, # of connection points: 2
#     Edge 27, Type (0, 0), BuildingBlock: ZUJKAS_clean_linker_0, # of connection points: 2
#     Edge 28, Type (0, 0), BuildingBlock: ZUJKAS_clean_linker_0, # of connection points: 2
#     Edge 29, Type (0, 0), BuildingBlock: ZUJKAS_clean_linker_0, # of connection points: 2
#     Edge 30, Type (0, 0), BuildingBlock: ZUJKAS_clean_linker_0, # of connection points: 2
#     Edge 31, Type (0, 0), BuildingBlock: ZUJKAS_clean_linker_0, # of connection points: 2
# Relax obj value: 0.361
# Max RMSD: 0.253
# Mean RMSD: 0.253
data_MOF--net-wht--node1-VOLQOD_clean_sbu_1--edge1-ZUJKAS_clean_linker_0
_symmetry_space_group_name_H-M    P1
_symmetry_Int_Tables_number       1
_symmetry_cell_setting            triclinic
loop_
_symmetry_equiv_pos_as_xyz
'x, y, z'
_cell_length_a     35.051139
_cell_length_b     34.96752
_cell_length_c     61.878142
_cell_angle_alpha  90.272309
_cell_angle_beta   90.027436
_cell_angle_gamma 89.931592
loop_
_atom_site_label
_atom_site_type_symbol
_atom_site_fract_x
_atom_site_fract_y
_atom_site_fract_z
_atom_type_partial_charge
O0 O 0.12892 0.29229 0.18075 0.0
Zn1 Zn 0.13583 0.27374 0.14993 0.0
O2 O 0.08543 0.266 0.13716 0.0
Zn3 Zn 0.07501 0.21219 0.13364 0.0
Zn4 Zn 0.04576 0.28755 0.1556 0.0
Zn5 Zn 0.08424 0.2895 0.10894 0.0
O6 O 0.06438 0.1982 0.10293 0.0
O7 O 0.08275 0.24992 0.08511 0.0
O8 O 0.16705 0.22387 0.1493 0.0
O9 O 0.12079 0.18238 0.14173 0.0
O10 O 0.03291 0.19362 0.15239 0.0
O11 O 0.0141 0.24633 0.16924 0.0
O12 O 0.00955 0.3211 0.13872 0.0
O13 O 0.16372 0.31642 0.1342 0.0
O14 O 0.03682 0.32067 0.10627 0.0
O15 O 0.12825 0.32534 0.10488 0.0
C16 C 0.10166 0.31031 0.18998 0.0
C17 C 0.07159 0.21524 0.0853 0.0
C18 C 0.01186 0.21043 0.16617 0.0
C19 C 0.15519 0.18961 0.14673 0.0
C20 C 0.01014 0.3311 0.11895 0.0
C21 C 0.1571 0.33373 0.11647 0.0
O22 O 0.06934 0.3146 0.18083 0.0
O23 O 0.25968 0.62204 0.35074 0.0
Zn24 Zn 0.24158 0.63651 0.38051 0.0
O25 O 0.24586 0.59263 0.39944 0.0
Zn26 Zn 0.19554 0.57441 0.40716 0.0
Zn27 Zn 0.27408 0.55273 0.38458 0.0
Zn28 Zn 0.27374 0.60641 0.42526 0.0
O29 O 0.19139 0.56956 0.43951 0.0
O30 O 0.24007 0.6047 0.45142 0.0
O31 O 0.18686 0.65561 0.37841 0.0
O32 O 0.15556 0.61173 0.39724 0.0
O33 O 0.18359 0.52436 0.39202 0.0
O34 O 0.2383 0.51154 0.37543 0.0
O35 O 0.31375 0.52833 0.40335 0.0
O36 O 0.27846 0.6779 0.3902 0.0
O37 O 0.3138 0.56736 0.43163 0.0
O38 O 0.30109 0.65633 0.42139 0.0
C39 C 0.28538 0.59841 0.34483 0.0
C40 C 0.20995 0.58528 0.45491 0.0
C41 C 0.20373 0.50336 0.37958 0.0
C42 C 0.15578 0.64205 0.3859 0.0
C43 C 0.3264 0.53791 0.42185 0.0
C44 C 0.30078 0.6812 0.40641 0.0
O45 O 0.29793 0.57265 0.35745 0.0
O46 O 0.87899 0.71236 0.68469 0.0
Zn47 Zn 0.87148 0.7249 0.65298 0.0
O48 O 0.9215 0.72613 0.63867 0.0
Zn49 Zn 0.93589 0.77806 0.63167 0.0
Zn50 Zn 0.96077 0.70457 0.65715 0.0
Zn51 Zn 0.91931 0.697 0.61212 0.0
O52 O 0.94613 0.78441 0.60014 0.0
O53 O 0.92311 0.73075 0.58603 0.0
O54 O 0.84465 0.77716 0.65044 0.0
O55 O 0.89218 0.81264 0.63781 0.0
O56 O 0.98106 0.79674 0.64864 0.0
O57 O -0.00055 0.74374 0.6651 0.0
O58 O 0.98934 0.66088 0.64326 0.0
O59 O 0.83927 0.68154 0.64021 0.0
O60 O 0.96261 0.66002 0.61075 0.0
O61 O 0.87217 0.66528 0.61088 0.0
C62 C 0.90707 0.69759 0.69481 0.0
C63 C 0.93685 0.76421 0.58383 0.0
C64 C 0.00376 0.77907 0.66115 0.0
C65 C 0.85799 0.80945 0.64444 0.0
C66 C 0.9872 0.64756 0.62412 0.0
C67 C 0.84359 0.66091 0.62328 0.0
O68 O 0.9387 0.69042 0.68555 0.0
O69 O 0.76658 0.37362 0.93336 0.0
Zn70 Zn 0.74855 0.36641 0.90252 0.0
O71 O 0.74668 0.41642 0.88886 0.0
Zn72 Zn 0.69472 0.43432 0.88687 0.0
Zn73 Zn 0.77689 0.45281 0.90516 0.0
Zn74 Zn 0.76694 0.41236 0.8602 0.0
O75 O 0.6781 0.4411 0.85603 0.0
O76 O 0.72526 0.41284 0.83806 0.0
O77 O 0.69536 0.34181 0.90247 0.0
O78 O 0.65996 0.39386 0.89754 0.0
O79 O 0.68559 0.48194 0.90438 0.0
O80 O 0.74332 0.49353 0.91752 0.0
O81 O 0.81546 0.48028 0.88668 0.0
O82 O 0.78877 0.33317 0.8875 0.0
O83 O 0.80147 0.45618 0.85438 0.0
O84 O 0.79937 0.36578 0.8574 0.0
C85 C 0.78949 0.39813 0.94149 0.0
C86 C 0.69206 0.42769 0.83856 0.0
C87 C 0.70812 0.50189 0.91597 0.0
C88 C 0.66283 0.35835 0.9016 0.0
C89 C 0.81988 0.47952 0.86626 0.0
C90 C 0.80629 0.33738 0.86956 0.0
O91 O 0.79999 0.42761 0.93102 0.0
O92 O 0.62543 0.20626 0.5594 0.0
Zn93 Zn 0.62679 0.22266 0.59091 0.0
O94 O 0.57423 0.22611 0.60127 0.0
Zn95 Zn 0.55981 0.27816 0.60729 0.0
Zn96 Zn 0.53899 0.20618 0.57989 0.0
Zn97 Zn 0.56904 0.19811 0.62777 0.0
O98 O 0.54048 0.2854 0.63742 0.0
O99 O 0.56445 0.23392 0.65331 0.0
O100 O 0.65448 0.27445 0.59446 0.0
O101 O 0.60594 0.31041 0.60552 0.0
O102 O 0.52327 0.29941 0.58556 0.0
O103 O 0.51186 0.24885 0.56489 0.0
O104 O 0.49842 0.17306 0.59348 0.0
O105 O 0.65467 0.1796 0.60677 0.0
O106 O 0.52109 0.16756 0.62688 0.0
O107 O 0.61257 0.1618 0.63158 0.0
C108 C 0.60097 0.18674 0.54872 0.0
C109 C 0.54891 0.26686 0.65442 0.0
C110 C 0.50767 0.28422 0.56908 0.0
C111 C 0.64092 0.30675 0.60055 0.0
C112 C 0.49588 0.16023 0.61265 0.0
C113 C 0.64461 0.1576 0.62218 0.0
O114 O 0.56779 0.1799 0.55622 0.0
O115 O 0.26605 0.1365 0.80136 0.0
Zn116 Zn 0.24972 0.1389 0.83285 0.0
O117 O 0.24992 0.08697 0.84431 0.0
Zn118 Zn 0.19862 0.06762 0.84765 0.0
Zn119 Zn 0.27812 0.05381 0.82502 0.0
Zn120 Zn 0.2742 0.08632 0.87204 0.0
O121 O 0.1869 0.05396 0.87847 0.0
O122 O 0.23583 0.08044 0.89571 0.0
O123 O 0.19589 0.1621 0.8349 0.0
O124 O 0.1621 0.10954 0.84117 0.0
O125 O 0.1873 0.02394 0.82735 0.0
O126 O 0.24243 0.01839 0.81002 0.0
O127 O 0.31588 0.02016 0.84057 0.0
O128 O 0.28977 0.17112 0.84883 0.0
O129 O 0.31016 0.04234 0.87408 0.0
O130 O 0.305 0.13334 0.87629 0.0
C131 C 0.28978 0.1141 0.79206 0.0
C132 C 0.20319 0.06448 0.89591 0.0
C133 C 0.20786 0.00867 0.8127 0.0
C134 C 0.16384 0.14523 0.83742 0.0
C135 C 0.32461 0.01905 0.86052 0.0
C136 C 0.30925 0.16429 0.86586 0.0
O137 O 0.30177 0.08378 0.80119 0.0
O138 O 0.37508 0.78466 0.04344 0.0
Zn139 Zn 0.36588 0.77079 0.07471 0.0
O140 O 0.41508 0.76671 0.08919 0.0
Zn141 Zn 0.42774 0.71303 0.0927 0.0
Zn142 Zn 0.4544 0.79214 0.07247 0.0
Zn143 Zn 0.41195 0.79137 0.11702 0.0
O144 O 0.43022 0.69905 0.12419 0.0
O145 O 0.41411 0.75324 0.14085 0.0
O146 O 0.33717 0.71979 0.07586 0.0
O147 O 0.38611 0.68019 0.08081 0.0
O148 O 0.47669 0.69897 0.07763 0.0
O149 O 0.49441 0.75458 0.06378 0.0
O150 O 0.48214 0.83348 0.08907 0.0
O151 O 0.33498 0.81431 0.08814 0.0
O152 O 0.45528 0.82727 0.1213 0.0
O153 O 0.36524 0.82378 0.11926 0.0
C154 C 0.40226 0.80294 0.03447 0.0
C155 C 0.4229 0.71794 0.14134 0.0
C156 C 0.49996 0.71905 0.06671 0.0
C157 C 0.35104 0.68602 0.07666 0.0
C158 C 0.47982 0.84259 0.10896 0.0
C159 C 0.33828 0.83166 0.10624 0.0
O160 O 0.43275 0.81131 0.04465 0.0
O161 O 0.76448 0.87822 0.38639 0.0
Zn162 Zn 0.74192 0.86291 0.35782 0.0
O163 O 0.74445 0.90553 0.33793 0.0
Zn164 Zn 0.69352 0.92322 0.33113 0.0
Zn165 Zn 0.77353 0.9464 0.35111 0.0
Zn166 Zn 0.77052 0.89007 0.3118 0.0
O167 O 0.6869 0.92546 0.29877 0.0
O168 O 0.73418 0.88835 0.28677 0.0
O169 O 0.68744 0.84439 0.36216 0.0
O170 O 0.65472 0.88631 0.3426 0.0
O171 O 0.68231 0.97415 0.34576 0.0
O172 O 0.7385 0.98791 0.36049 0.0
O173 O 0.81054 0.97012 0.33063 0.0
O174 O 0.77739 0.82062 0.34793 0.0
O175 O 0.80851 0.92971 0.303 0.0
O176 O 0.79987 0.84126 0.31653 0.0
C177 C 0.79085 0.90207 0.39085 0.0
C178 C 0.70389 0.90773 0.28346 0.0
C179 C 0.70361 0.99587 0.35715 0.0
C180 C 0.65585 0.8571 0.35481 0.0
C181 C 0.8213 0.95997 0.31185 0.0
C182 C 0.79981 0.81695 0.33182 0.0
O183 O 0.80068 0.92791 0.37754 0.0
H184 H 0.97471 0.23312 0.20296 0.0
H185 H 0.94277 0.192 0.2292 0.0
H186 H 0.96181 0.09423 0.18783 0.0
H187 H 0.99427 0.13481 0.16168 0.0
H188 H 0.88003 0.14237 0.22614 0.0
H189 H 0.01383 0.06405 0.24466 0.0
H190 H 0.01326 0.10832 0.22978 0.0
H191 H 0.00169 0.06399 0.21647 0.0
C192 C 0.97167 0.20296 0.19931 0.0
C193 C 0.98747 0.18711 0.18038 0.0
C194 C 0.95352 0.17954 0.21434 0.0
C195 C 0.95092 0.14005 0.21064 0.0
C196 C 0.96451 0.12454 0.19119 0.0
H197 H 0.85418 0.94546 0.27266 0.0
H198 H 0.88773 0.99083 0.24958 0.0
C199 C 0.98282 0.14783 0.17622 0.0
C200 C 0.93492 0.11477 0.22734 0.0
H201 H 0.95641 0.03799 0.25895 0.0
C202 C 0.89674 0.11977 0.23349 0.0
C203 C 0.95706 0.08556 0.23694 0.0
C204 C -0.00116 0.08031 0.23181 0.0
C205 C 0.87963 0.09528 0.24849 0.0
C206 C 0.90152 0.06547 0.25763 0.0
C207 C 0.93986 0.06093 0.25181 0.0
C208 C 0.88445 0.03759 0.2725 0.0
C209 C 0.83802 0.10061 0.25399 0.0
C210 C 0.87277 0.04878 0.29323 0.0
C211 C 0.85375 0.02293 0.30653 0.0
C212 C 0.84606 0.98557 0.29919 0.0
C213 C 0.85945 0.97407 0.27874 0.0
C214 C 0.8786 -0.00011 0.26553 0.0
H215 H 0.82369 0.12109 0.24296 0.0
H216 H 0.82276 0.07282 0.25321 0.0
H217 H 0.83549 0.11175 0.27075 0.0
H218 H 0.87757 0.07774 0.2989 0.0
H219 H 0.84388 0.03267 0.3222 0.0
H220 H 0.3494 0.46591 0.40999 0.0
H221 H 0.38503 0.4203 0.43212 0.0
H222 H 0.39855 0.50606 0.48183 0.0
H223 H 0.36332 0.55191 0.45989 0.0
H224 H 0.46536 0.4584 0.47303 0.0
H225 H 0.33146 0.37652 0.48717 0.0
H226 H 0.34442 0.38507 0.45949 0.0
H227 H 0.33131 0.42454 0.47659 0.0
C228 C 0.36056 0.47531 0.42545 0.0
C229 C 0.35309 0.51238 0.43332 0.0
C230 C 0.38071 0.44916 0.43808 0.0
C231 C 0.39369 0.45979 0.45868 0.0
C232 C 0.38848 0.4974 0.46598 0.0
H233 H 0.49404 0.36112 0.57204 0.0
H234 H 0.46658 0.40244 0.54436 0.0
C235 C 0.36828 0.52349 0.45344 0.0
C236 C 0.41031 0.43124 0.47338 0.0
H237 H 0.38691 0.3546 0.50457 0.0
C238 C 0.44838 0.43551 0.47984 0.0
C239 C 0.38785 0.40159 0.48219 0.0
C240 C 0.3464 0.3966 0.47619 0.0
C241 C 0.46469 0.41085 0.49507 0.0
C242 C 0.44193 0.38183 0.50431 0.0
C243 C 0.40411 0.37703 0.49747 0.0
C244 C 0.45668 0.35659 0.52143 0.0
C245 C 0.50613 0.41593 0.50103 0.0
C246 C 0.45849 0.31699 0.51802 0.0
C247 C 0.47377 0.29321 0.53387 0.0
C248 C 0.48739 0.30871 0.55343 0.0
C249 C 0.48405 0.34829 0.55711 0.0
C250 C 0.46869 0.372 0.54126 0.0
H251 H 0.52194 0.43203 0.48845 0.0
H252 H 0.50808 0.43234 0.51639 0.0
H253 H 0.52032 0.38786 0.50343 0.0
H254 H 0.44892 0.3046 0.50288 0.0
H255 H 0.47582 0.26285 0.53053 0.0
H256 H 0.04544 0.754 0.69543 0.0
H257 H 0.08508 0.79216 0.71949 0.0
H258 H 0.06881 0.89057 0.67869 0.0
H259 H 0.02764 0.85282 0.6548 0.0
H260 H 0.1493 0.83254 0.71623 0.0
H261 H 0.02774 0.92865 0.73572 0.0
H262 H 0.02202 0.88533 0.72016 0.0
H263 H 0.04003 0.92795 0.70758 0.0
C264 C 0.05059 0.78364 0.69135 0.0
C265 C 0.03285 0.8006 0.67339 0.0
C266 C 0.07333 0.8054 0.70515 0.0
C267 C 0.07902 0.84438 0.70116 0.0
C268 C 0.06377 0.86075 0.68237 0.0
H269 H 0.23605 0.98648 0.77365 0.0
H270 H 0.20585 0.9451 0.74697 0.0
C271 C 0.04051 0.83911 0.66867 0.0
C272 C 0.09905 0.868 0.71742 0.0
H273 H 0.08729 0.94434 0.75125 0.0
C274 C 0.13582 0.85703 0.7239 0.0
C275 C 0.08093 0.89933 0.72774 0.0
C276 C 0.04037 0.91084 0.72264 0.0
C277 C 0.15511 0.87667 0.74039 0.0
C278 C 0.13753 0.90885 0.75013 0.0
C279 C 0.10074 0.91974 0.74368 0.0
C280 C 0.15681 0.9321 0.76686 0.0
C281 C 0.19361 0.86208 0.74757 0.0
C282 C 0.13882 0.93925 0.78676 0.0
C283 C 0.15565 0.96361 0.80193 0.0
C284 C 0.19087 0.98097 0.79748 0.0
C285 C 0.20911 0.97316 0.7777 0.0
C286 C 0.19202 0.94929 0.76244 0.0
H287 H 0.19716 0.8312 0.74373 0.0
H288 H 0.21629 0.8779 0.7389 0.0
H289 H 0.19782 0.86626 0.76521 0.0
H290 H 0.1115 0.92635 0.79041 0.0
H291 H 0.14096 0.96911 0.81703 0.0
H292 H 0.51324 0.64243 0.06156 0.0
H293 H 0.55987 0.61258 0.03752 0.0
H294 H 0.60569 0.72351 0.02194 0.0
H295 H 0.55885 0.75373 0.04568 0.0
H296 H 0.58436 0.68304 0.9863 0.0
H297 H 0.6742 0.59306 0.03929 0.0
H298 H 0.6242 0.58518 0.04357 0.0
H299 H 0.64453 0.63124 0.04965 0.0
C300 C 0.53381 0.66043 0.05344 0.0
C301 C 0.53209 0.70046 0.05536 0.0
C302 C 0.56059 0.6433 0.03979 0.0
C303 C 0.58635 0.66587 0.02809 0.0
C304 C 0.58606 0.70565 0.03088 0.0
H305 H 0.74784 0.55044 0.94239 0.0
H306 H 0.72168 0.5963 0.96831 0.0
C307 C 0.55923 0.72282 0.04444 0.0
C308 C 0.61019 0.64835 0.01106 0.0
H309 H 0.67332 0.57609 0.00149 0.0
C310 C 0.60433 0.66008 0.98964 0.0
C311 C 0.63649 0.61879 0.0155 0.0
C312 C 0.64555 0.60659 0.03828 0.0
C313 C 0.62268 0.64164 0.9724 0.0
C314 C 0.64692 0.61033 0.97674 0.0
C315 C 0.65435 0.59991 -0.00178 0.0
C316 C 0.66291 0.58633 0.95928 0.0
C317 C 0.6155 0.65546 0.94969 0.0
C318 C 0.63844 0.56604 0.94544 0.0
C319 C 0.65323 0.53984 0.93057 0.0
C320 C 0.69274 0.53325 0.92947 0.0
C321 C 0.71725 0.55474 0.94284 0.0
C322 C 0.70241 0.58094 0.95769 0.0
H323 H 0.60646 0.68593 0.94957 0.0
H324 H 0.64136 0.65225 0.93948 0.0
H325 H 0.59223 0.63827 0.94234 0.0
H326 H 0.60779 0.56931 0.94673 0.0
H327 H 0.63357 0.5237 0.92057 0.0
H328 H 0.16638 0.30878 0.21485 0.0
H329 H 0.17413 0.33298 0.25171 0.0
H330 H 0.0564 0.36892 0.25248 0.0
H331 H 0.04842 0.34542 0.21557 0.0
H332 H 0.10538 0.42473 0.26584 0.0
H333 H 0.13636 0.28988 0.30899 0.0
H334 H 0.16661 0.29694 0.28596 0.0
H335 H 0.11608 0.29079 0.28215 0.0
C336 C 0.14208 0.32169 0.22287 0.0
C337 C 0.10681 0.32521 0.21221 0.0
C338 C 0.14645 0.33512 0.24402 0.0
C339 C 0.1156 0.35197 0.25496 0.0
C340 C 0.08043 0.35563 0.24438 0.0
H341 H 0.12741 0.48845 0.37429 0.0
H342 H 0.0991 0.44578 0.34717 0.0
C343 C 0.07603 0.34232 0.22323 0.0
C344 C 0.12089 0.36851 0.27679 0.0
H345 H 0.15321 0.34815 0.3275 0.0
C346 C 0.11512 0.40793 0.27946 0.0
C347 C 0.13345 0.34638 0.2945 0.0
C348 C 0.13813 0.30358 0.29285 0.0
C349 C 0.12379 0.4263 0.29902 0.0
C350 C 0.13794 0.40444 0.31647 0.0
C351 C 0.14218 0.36474 0.3141 0.0
C352 C 0.15319 0.42321 0.33608 0.0
C353 C 0.11991 0.46927 0.3004 0.0
C354 C 0.19264 0.4226 0.3397 0.0
C355 C 0.20883 0.44667 0.35517 0.0
C356 C 0.18581 0.47177 0.36731 0.0
C357 C 0.14593 0.46966 0.36508 0.0
C358 C 0.12971 0.44548 0.34953 0.0
H359 H 0.1145 0.48236 0.28436 0.0
H360 H 0.09567 0.47668 0.31116 0.0
H361 H 0.14614 0.48221 0.30734 0.0
H362 H 0.21119 0.40541 0.32955 0.0
H363 H 0.23962 0.44719 0.3567 0.0
H364 H 0.05789 0.633 0.64133 0.0
H365 H 0.11154 0.60309 0.62224 0.0
H366 H 0.03668 0.57316 0.56948 0.0
H367 H 0.98315 0.60218 0.58844 0.0
H368 H 0.09843 0.52006 0.57614 0.0
H369 H 0.14479 0.67266 0.57194 0.0
H370 H 0.13988 0.65102 0.59808 0.0
H371 H 0.09826 0.65985 0.58191 0.0
C372 C 0.05263 0.6188 0.62602 0.0
C373 C 0.01659 0.62083 0.61607 0.0
C374 C 0.08332 0.60184 0.61513 0.0
C375 C 0.07813 0.58681 0.59427 0.0
C376 C 0.04129 0.58482 0.58553 0.0
H377 H 0.14175 0.55648 0.46858 0.0
H378 H 0.11954 0.54972 0.50566 0.0
C379 C 0.01075 0.60171 0.59633 0.0
C380 C 0.11072 0.58011 0.57962 0.0
H381 H 0.16927 0.63063 0.54639 0.0
C382 C 0.11486 0.54393 0.57001 0.0
C383 C 0.13225 0.6113 0.57175 0.0
C384 C 0.12868 0.65099 0.58131 0.0
C385 C 0.13776 0.5388 0.55162 0.0
C386 C 0.15612 0.57087 0.54248 0.0
C387 C 0.15488 0.60614 0.55333 0.0
C388 C 0.17186 0.57029 0.52029 0.0
C389 C 0.14074 0.49944 0.54171 0.0
C390 C 0.20831 0.58505 0.51611 0.0
C391 C 0.22076 0.58983 0.49486 0.0
C392 C 0.19696 0.57988 0.4774 0.0
C393 C 0.16081 0.56434 0.48165 0.0
C394 C 0.14828 0.5599 0.50288 0.0
H395 H 0.13892 0.47702 0.55433 0.0
H396 H 0.11654 0.49499 0.53041 0.0
H397 H 0.16785 0.49572 0.53266 0.0
H398 H 0.22677 0.59369 0.5293 0.0
H399 H 0.24893 0.60156 0.49214 0.0
H400 H 0.84963 0.47505 0.82593 0.0
H401 H 0.87987 0.52582 0.80563 0.0
H402 H 0.87583 0.59963 0.86168 0.0
H403 H 0.84463 0.54855 0.88225 0.0
H404 H 0.84374 0.63261 0.82674 0.0
H405 H 0.9832 0.57478 0.80267 0.0
H406 H 0.94755 0.53924 0.79754 0.0
H407 H 0.95632 0.55508 0.8249 0.0
C408 C 0.85589 0.50175 0.83415 0.0
C409 C 0.84449 0.50794 0.85562 0.0
C410 C 0.87361 0.53067 0.82257 0.0
C411 C 0.88063 0.56633 0.83223 0.0
C412 C 0.87099 0.57214 0.85402 0.0
H413 H 0.96324 0.70176 0.72481 0.0
H414 H 0.96025 0.68227 0.7626 0.0
C415 C 0.85328 0.54296 0.86573 0.0
C416 C 0.89281 0.59834 0.81836 0.0
H417 H 0.95083 0.61462 0.77537 0.0
C418 C 0.86788 0.62948 0.81591 0.0
C419 C 0.92483 0.59496 0.80464 0.0
C420 C 0.95467 0.56438 0.80779 0.0
C421 C 0.87177 0.6548 0.79854 0.0
C422 C 0.90061 0.64796 0.78301 0.0
C423 C 0.92802 0.61945 0.78692 0.0
C424 C 0.90054 0.66655 0.76153 0.0
C425 C 0.8441 0.68767 0.79667 0.0
C426 C 0.86775 0.66503 0.74842 0.0
C427 C 0.86923 0.67687 0.7269 0.0
C428 C 0.90382 0.68923 0.718 0.0
C429 C 0.93629 0.69184 0.73126 0.0
C430 C 0.93459 0.68089 0.75286 0.0
H431 H 0.83588 0.69848 0.81293 0.0
H432 H 0.85627 0.71167 0.78723 0.0
H433 H 0.81768 0.67758 0.78858 0.0
H434 H 0.84145 0.65291 0.75445 0.0
H435 H 0.84391 0.67441 0.71694 0.0
H436 H 0.93521 0.32568 0.13074 0.0
H437 H 0.88028 0.34416 0.10843 0.0
H438 H 0.95606 0.39852 0.06315 0.0
H439 H 0.01083 0.37991 0.08508 0.0
H440 H 0.87665 0.43542 0.0722 0.0
H441 H 0.8805 0.28125 0.04834 0.0
H442 H 0.87886 0.29438 0.07652 0.0
H443 H 0.92109 0.30364 0.06109 0.0
C444 C 0.93995 0.34282 0.11645 0.0
C445 C 0.9772 0.35099 0.10943 0.0
C446 C 0.90862 0.35321 0.10373 0.0
C447 C 0.91436 0.37231 0.08412 0.0
C448 C 0.95119 0.3838 0.07827 0.0
H449 H 0.84811 0.43566 0.9612 0.0
H450 H 0.86926 0.42999 -0.0015 0.0
C451 C 0.98242 0.37304 0.09076 0.0
C452 C 0.8839 0.37478 0.06778 0.0
H453 H 0.84776 0.32317 0.02566 0.0
C454 C 0.86939 0.41079 0.06231 0.0
C455 C 0.87441 0.34247 0.05506 0.0
C456 C 0.88944 0.30314 0.06038 0.0
C457 C 0.84734 0.41572 0.0436 0.0
C458 C 0.84093 0.384 0.02975 0.0
C459 C 0.85296 0.34751 0.03618 0.0
C460 C 0.82625 0.38857 0.00747 0.0
C461 C 0.83215 0.45505 0.03856 0.0
C462 C 0.79611 0.36585 -0.00022 0.0
C463 C 0.78447 0.36836 0.97821 0.0
C464 C 0.8028 0.39369 0.96401 0.0
C465 C 0.83315 0.41612 0.97175 0.0
C466 C 0.84497 0.4133 -0.00681 0.0
H467 H 0.82613 0.47131 0.05365 0.0
H468 H 0.854 0.47121 0.0294 0.0
H469 H 0.80564 0.45363 0.02876 0.0
H470 H 0.78166 0.34614 0.01046 0.0
H471 H 0.76088 0.35082 0.97275 0.0
H472 H 0.66748 0.19711 0.52618 0.0
H473 H 0.68213 0.17495 0.48953 0.0
H474 H 0.57092 0.12294 0.48495 0.0
H475 H 0.55577 0.1452 0.52134 0.0
H476 H 0.68339 0.09945 0.47593 0.0
H477 H 0.57807 0.18225 0.42824 0.0
H478 H 0.59058 0.19455 0.45573 0.0
H479 H 0.55753 0.15638 0.45036 0.0
C480 C 0.64606 0.18111 0.51735 0.0
C481 C 0.61046 0.17293 0.52672 0.0
C482 C 0.65442 0.16864 0.49639 0.0
C483 C 0.62729 0.14804 0.48441 0.0
C484 C 0.59185 0.13969 0.49372 0.0
H485 H 0.63084 0.00323 0.37248 0.0
H486 H 0.61039 0.04685 0.40139 0.0
C487 C 0.58344 0.15211 0.51464 0.0
C488 C 0.6371 0.13253 0.46285 0.0
H489 H 0.60886 0.13017 0.40999 0.0
C490 C 0.66744 0.10653 0.46146 0.0
C491 C 0.61595 0.14168 0.44408 0.0
C492 C 0.58392 0.17051 0.44457 0.0
C493 C 0.67661 0.0885 0.4419 0.0
C494 C 0.6553 0.09736 0.42314 0.0
C495 C 0.62516 0.12366 0.42442 0.0
C496 C 0.66357 0.07817 0.40235 0.0
C497 C 0.70826 0.05913 0.44165 0.0
C498 C 0.69923 0.08308 0.39254 0.0
C499 C 0.71106 0.05809 0.37625 0.0
C500 C 0.68715 0.02819 0.36935 0.0
C501 C 0.6498 0.02605 0.3775 0.0
C502 C 0.63813 0.05087 0.39402 0.0
H503 H 0.71602 0.04967 0.45819 0.0
H504 H 0.69991 0.03363 0.43199 0.0
H505 H 0.73403 0.07177 0.43413 0.0
H506 H 0.71896 0.10446 0.39856 0.0
H507 H 0.73984 0.06063 0.37005 0.0
H508 H 0.35074 0.08366 0.771 0.0
H509 H 0.36653 0.0892 0.73283 0.0
H510 H 0.26978 0.16362 0.7233 0.0
H511 H 0.25415 0.15891 0.76185 0.0
H512 H 0.32148 0.06823 0.69744 0.0
H513 H 0.3573 0.22364 0.69635 0.0
H514 H 0.35275 0.19755 0.72129 0.0
H515 H 0.31095 0.21035 0.70619 0.0
C516 C 0.333 0.10157 0.76088 0.0
C517 C 0.30129 0.121 0.76946 0.0
C518 C 0.34192 0.1045 0.73903 0.0
C519 C 0.3193 0.12675 0.72525 0.0
C520 C 0.28784 0.14665 0.73373 0.0
H521 H 0.42305 0.17817 0.60114 0.0
H522 H 0.36608 0.16432 0.62271 0.0
C523 C 0.27905 0.14401 0.75575 0.0
C524 C 0.3296 0.12883 0.70211 0.0
H525 H 0.37233 0.18764 0.6657 0.0
C526 C 0.33181 0.09451 0.69027 0.0
C527 C 0.34247 0.16321 0.69268 0.0
C528 C 0.34104 0.20083 0.70472 0.0
C529 C 0.34958 0.09313 0.66999 0.0
C530 C 0.36559 0.12685 0.66148 0.0
C531 C 0.35996 0.16179 0.67231 0.0
C532 C 0.39509 0.12568 0.64443 0.0
C533 C 0.35305 0.05524 0.65843 0.0
C534 C 0.4297 0.10716 0.64894 0.0
C535 C 0.46219 0.11536 0.63689 0.0
C536 C 0.46048 0.14197 0.62002 0.0
C537 C 0.42497 0.15725 0.61395 0.0
C538 C 0.39247 0.14949 0.62629 0.0
H539 H 0.32862 0.03629 0.66236 0.0
H540 H 0.35446 0.05906 0.64064 0.0
H541 H 0.37954 0.04068 0.6638 0.0
H542 H 0.43258 0.08925 0.6631 0.0
H543 H 0.48929 0.10333 0.64188 0.0
H544 H 0.35525 0.77246 0.00353 0.0
H545 H 0.35117 0.79061 0.96541 0.0
H546 H 0.43713 0.87701 0.97595 0.0
H547 H 0.44245 0.85802 0.01359 0.0
H548 H 0.32841 0.85439 0.94984 0.0
H549 H 0.47509 0.83494 0.92046 0.0
H550 H 0.45928 0.81507 0.9458 0.0
H551 H 0.47645 0.86367 0.94446 0.0
C552 C 0.37351 0.79508 -0.00239 0.0
C553 C 0.39916 0.81385 0.01153 0.0
C554 C 0.37137 0.80521 0.97581 0.0
C555 C 0.39462 0.83446 0.96762 0.0
C556 C 0.42004 0.8533 0.98159 0.0
H557 H 0.37271 0.02125 0.89475 0.0
H558 H 0.39591 0.96625 0.91506 0.0
C559 C 0.42263 0.8428 0.00323 0.0
C560 C 0.38915 0.84886 0.94535 0.0
H561 H 0.43848 0.887 0.90304 0.0
C562 C 0.35231 0.86025 0.93923 0.0
C563 C 0.42023 0.85617 0.93133 0.0
C564 C 0.45985 0.84134 0.9358 0.0
C565 C 0.34631 0.88208 0.92064 0.0
C566 C 0.37799 0.89287 0.90796 0.0
C567 C 0.41435 0.87884 0.91296 0.0
C568 C 0.3743 0.92432 0.89236 0.0
C569 C 0.30658 0.89629 0.91565 0.0
C570 C 0.35639 0.91871 0.87233 0.0
C571 C 0.34344 0.95022 0.86054 0.0
C572 C 0.34779 0.98738 0.86896 0.0
C573 C 0.36885 0.99286 0.88801 0.0
C574 C 0.38223 0.96151 0.89956 0.0
H575 H 0.28499 0.88509 0.92713 0.0
H576 H 0.30596 0.92803 0.91631 0.0
H577 H 0.29837 0.88744 0.89904 0.0
H578 H 0.34992 0.89009 0.86666 0.0
H579 H 0.32708 0.9453 0.84594 0.0
H580 H 0.55245 0.8571 0.09485 0.0
H581 H 0.60421 0.8847 0.11661 0.0
H582 H 0.52396 0.91145 0.16729 0.0
H583 H 0.47238 0.88435 0.14577 0.0
H584 H 0.58707 0.96592 0.16231 0.0
H585 H 0.63108 0.81277 0.16814 0.0
H586 H 0.62803 0.83407 0.14179 0.0
H587 H 0.58537 0.82634 0.15719 0.0
C588 C 0.54569 0.87012 0.11031 0.0
C589 C 0.5086 0.86789 0.11886 0.0
C590 C 0.57526 0.88574 0.12271 0.0
C591 C 0.56786 0.8994 0.14366 0.0
C592 C 0.5302 0.90091 0.15118 0.0
H593 H 0.63429 0.93477 0.27074 0.0
H594 H 0.60917 0.93837 0.23405 0.0
C595 C 0.5008 0.88519 0.13891 0.0
C596 C 0.59895 0.90571 0.15935 0.0
H597 H 0.65583 0.85512 0.19358 0.0
C598 C 0.60296 0.94197 0.16885 0.0
C599 C 0.61961 0.87434 0.16777 0.0
C600 C 0.6159 0.83458 0.15835 0.0
C601 C 0.62548 0.94726 0.18737 0.0
C602 C 0.6435 0.91521 0.19685 0.0
C603 C 0.64179 0.8796 0.18637 0.0
C604 C 0.66043 0.91662 0.21876 0.0
C605 C 0.62882 0.98686 0.19693 0.0
C606 C 0.69717 0.90211 0.22245 0.0
C607 C 0.71129 0.89917 0.24348 0.0
C608 C 0.6889 0.91076 0.26121 0.0
C609 C 0.65231 0.92576 0.25744 0.0
C610 C 0.6381 0.92833 0.23643 0.0
H611 H 0.62659 0.00901 0.18417 0.0
H612 H 0.60504 0.99165 0.20846 0.0
H613 H 0.65625 0.99071 0.20566 0.0
H614 H 0.71471 0.89249 0.20907 0.0
H615 H 0.73973 0.88775 0.24582 0.0
H616 H 0.22982 0.08083 0.93631 0.0
H617 H 0.19235 0.08933 0.96901 0.0
H618 H 0.09123 0.05198 0.93524 0.0
H619 H 0.12853 0.04398 0.90212 0.0
H620 H 0.08164 0.12094 0.95368 0.0
H621 H 0.1429 0.02366 0.01426 0.0
H622 H 0.18031 0.04964 0.00119 0.0
H623 H 0.151 0.0173 0.98563 0.0
C624 C 0.19981 0.0735 0.9359 0.0
C625 C 0.1821 0.06215 0.91653 0.0
C626 C 0.17845 0.07801 0.95472 0.0
C627 C 0.13907 0.07088 0.95463 0.0
C628 C 0.12166 0.05738 0.93566 0.0
H629 H 0.04564 0.14218 0.07946 0.0
H630 H 0.05063 0.10292 0.04684 0.0
C631 C 0.14305 0.05282 0.91677 0.0
C632 C 0.11585 0.08331 0.97332 0.0
H633 H 0.11689 0.08397 0.02834 0.0
C634 C 0.08852 0.11209 0.97001 0.0
C635 C 0.1242 0.0713 -0.00543 0.0
C636 C 0.15092 0.03845 -0.00093 0.0
C637 C 0.07207 0.13167 0.98748 0.0
C638 C 0.08388 0.12264 0.00869 0.0
C639 C 0.10836 0.0914 0.01203 0.0
C640 C 0.0751 0.14777 0.02731 0.0
C641 C 0.04333 0.16278 0.983 0.0
C642 C 0.08672 0.18618 0.02703 0.0
C643 C 0.08386 0.20877 0.04561 0.0
C644 C 0.0698 0.19315 0.0649 0.0
C645 C 0.05679 0.15507 0.06489 0.0
C646 C 0.05952 0.13256 0.04627 0.0
H647 H 0.02712 0.15663 0.96794 0.0
H648 H 0.02285 0.16618 -0.00344 0.0
H649 H 0.05853 0.19028 0.98069 0.0
H650 H 0.09974 0.19824 0.01274 0.0
H651 H 0.09425 0.2379 0.04507 0.0
H652 H 0.39546 0.64654 0.14859 0.0
H653 H 0.3784 0.61946 0.18368 0.0
H654 H 0.42951 0.71653 0.21582 0.0
H655 H 0.44443 0.74479 0.18072 0.0
H656 H 0.41051 0.59791 0.22062 0.0
H657 H 0.32122 0.72644 0.23507 0.0
H658 H 0.34443 0.71745 0.2096 0.0
H659 H 0.37064 0.73812 0.23182 0.0
C660 C 0.40366 0.66167 0.16319 0.0
C661 C 0.42059 0.69797 0.1621 0.0
C662 C 0.39391 0.64622 0.1832 0.0
C663 C 0.40161 0.66662 0.2023 0.0
C664 C 0.42211 0.70101 0.20123 0.0
H665 H 0.35865 0.58419 0.33265 0.0
H666 H 0.38755 0.59736 0.29749 0.0
C667 C 0.43086 0.71698 0.18124 0.0
C668 C 0.385 0.65384 0.22301 0.0
H669 H 0.32731 0.68336 0.26414 0.0
C670 C 0.39221 0.61648 0.23015 0.0
C671 C 0.3603 0.67782 0.2351 0.0
C672 C 0.34833 0.717 0.2274 0.0
C673 C 0.37567 0.60255 0.24922 0.0
C674 C 0.35243 0.62721 0.26179 0.0
C675 C 0.34525 0.66449 0.25456 0.0
C676 C 0.33472 0.61538 0.28242 0.0
C677 C 0.38241 0.56135 0.25529 0.0
C678 C 0.29557 0.62171 0.28579 0.0
C679 C 0.27938 0.61552 0.30603 0.0
C680 C 0.30188 0.6021 0.32313 0.0
C681 C 0.34068 0.5942 0.31959 0.0
C682 C 0.35712 0.60138 0.29947 0.0
H683 H 0.38959 0.54364 0.2409 0.0
H684 H 0.40689 0.55976 0.26663 0.0
H685 H 0.35701 0.54882 0.26328 0.0
H686 H 0.2777 0.63248 0.27288 0.0
H687 H 0.24933 0.62157 0.30836 0.0
H688 H 0.85867 0.93551 0.40216 0.0
H689 H 0.89704 0.92244 0.43445 0.0
H690 H 0.81025 0.84545 0.45745 0.0
H691 H 0.77178 0.85808 0.4254 0.0
H692 H 0.84417 0.90411 0.48862 0.0
H693 H 0.94738 0.81112 0.44414 0.0
H694 H 0.93478 0.85728 0.43337 0.0
H695 H 0.89996 0.81984 0.43383 0.0
C696 C 0.84754 0.91616 0.41423 0.0
C697 C 0.81228 0.89762 0.41119 0.0
C698 C 0.86957 0.90866 0.43255 0.0
C699 C 0.85645 0.8828 0.44807 0.0
C700 C 0.82074 0.86542 0.44551 0.0
H701 H 0.91223 0.73338 0.54562 0.0
H702 H 0.90268 0.76708 0.51162 0.0
C703 C 0.79887 0.87265 0.42719 0.0
C704 C 0.88003 0.87239 0.46679 0.0
H705 H 0.95004 0.81036 0.4821 0.0
C706 C 0.86796 0.88436 0.4873 0.0
C707 C 0.91075 0.84646 0.46474 0.0
C708 C 0.92417 0.83267 0.44289 0.0
C709 C 0.88452 0.86935 0.50602 0.0
C710 C 0.91413 0.84201 0.50402 0.0
C711 C 0.92753 0.83154 0.48347 0.0
C712 C 0.92736 0.82023 0.52292 0.0
C713 C 0.86842 0.88084 0.52775 0.0
C714 C 0.94597 0.83857 0.5401 0.0
C715 C 0.95126 0.81949 0.55963 0.0
C716 C 0.93807 0.78175 0.56218 0.0
C717 C 0.92236 0.76252 0.54428 0.0
C718 C 0.91701 0.78168 0.5248 0.0
H719 H 0.842 0.89821 0.52623 0.0
H720 H 0.8619 0.85512 0.53753 0.0
H721 H 0.88987 0.89805 0.53669 0.0
H722 H 0.95461 0.8682 0.53876 0.0
H723 H 0.96396 0.83496 0.57302 0.0
H724 H 0.57507 0.24256 0.69365 0.0
H725 H 0.57998 0.28035 0.72668 0.0
H726 H 0.51888 0.37285 0.69634 0.0
H727 H 0.51441 0.33549 0.66301 0.0
H728 H 0.58639 0.39569 0.71135 0.0
H729 H 0.51316 0.31589 0.77575 0.0
H730 H 0.54459 0.28481 0.76105 0.0
H731 H 0.50461 0.30645 0.74742 0.0
C732 C 0.56173 0.2705 0.69415 0.0
C733 C 0.54482 0.28619 0.6756 0.0
C734 C 0.56428 0.29201 0.71314 0.0
C735 C 0.5495 0.32933 0.71403 0.0
C736 C 0.53033 0.34406 0.696 0.0
H737 H 0.61534 0.44169 0.83547 0.0
H738 H 0.5739 0.42765 0.8046 0.0
C739 C 0.5279 0.32265 0.67696 0.0
C740 C 0.55964 0.35461 0.73238 0.0
H741 H 0.56718 0.35531 0.78727 0.0
C742 C 0.58128 0.38745 0.72798 0.0
C743 C 0.55247 0.34433 0.75406 0.0
C744 C 0.52705 0.31115 0.75982 0.0
C745 C 0.59878 0.40824 0.74464 0.0
C746 C 0.59499 0.39544 0.76613 0.0
C747 C 0.57053 0.36475 0.77071 0.0
C748 C 0.61996 0.40983 0.78359 0.0
C749 C 0.62246 0.44276 0.73898 0.0
C750 C 0.65958 0.40499 0.78182 0.0
C751 C 0.68329 0.41285 0.79936 0.0
C752 C 0.66778 0.4255 0.81908 0.0
C753 C 0.62822 0.43209 0.82049 0.0
C754 C 0.60446 0.42403 0.80291 0.0
H755 H 0.61179 0.45657 0.724 0.0
H756 H 0.62242 0.46419 0.75228 0.0
H757 H 0.65233 0.43362 0.73599 0.0
H758 H 0.67204 0.39329 0.7672 0.0
H759 H 0.7136 0.40749 0.79772 0.0
H760 H 0.22632 0.18184 0.12887 0.0
H761 H 0.26004 0.12095 0.12271 0.0
H762 H 0.17552 0.06223 0.16077 0.0
H763 H 0.14142 0.1224 0.16636 0.0
H764 H 0.29087 0.0623 0.14779 0.0
H765 H 0.16524 0.01117 0.10174 0.0
H766 H 0.17085 0.06041 0.10996 0.0
H767 H 0.15337 0.02549 0.12879 0.0
C768 C 0.21572 0.15607 0.13642 0.0
C769 C 0.18125 0.15662 0.14797 0.0
C770 C 0.23476 0.12131 0.13276 0.0
C771 C 0.21956 0.08694 0.14073 0.0
C772 C 0.1871 0.08822 0.15394 0.0
H773 H 0.32471 0.86344 0.14581 0.0
H774 H 0.29505 0.92521 0.15353 0.0
C775 C 0.16789 0.12265 0.15732 0.0
C776 C 0.23582 0.04942 0.13423 0.0
H777 H 0.212 0.9642 0.1106 0.0
C778 C 0.27375 0.04091 0.13956 0.0
C779 C 0.21369 0.02185 0.12299 0.0
C780 C 0.17367 0.03028 0.11532 0.0
C781 C 0.28975 0.00503 0.13464 0.0
C782 C 0.26684 0.97663 0.12462 0.0
C783 C 0.22933 0.98568 0.11862 0.0
C784 C 0.28131 0.93744 0.12017 0.0
C785 C 0.33121 0.99816 0.13998 0.0
C786 C 0.28102 0.9225 0.09904 0.0
C787 C 0.29721 0.88668 0.09462 0.0
C788 C 0.31413 0.86531 0.11127 0.0
C789 C 0.31228 0.87938 0.13259 0.0
C790 C 0.29574 0.91491 0.137 0.0
H791 H 0.34727 0.02546 0.14125 0.0
H792 H 0.33325 0.98355 0.15582 0.0
H793 H 0.34512 0.97983 0.12758 0.0
H794 H 0.26957 0.93919 0.08583 0.0
H795 H 0.29833 0.87674 0.07803 0.0
H796 H 0.35899 0.69087 0.43543 0.0
H797 H 0.41793 0.72654 0.42981 0.0
H798 H 0.3733 0.77139 0.37017 0.0
H799 H 0.31414 0.73571 0.37552 0.0
H800 H 0.46202 0.71062 0.39087 0.0
H801 H 0.42653 0.86475 0.40037 0.0
H802 H 0.39836 0.82727 0.41249 0.0
H803 H 0.39415 0.83692 0.38413 0.0
C804 C 0.36112 0.70914 0.4214 0.0
C805 C 0.33182 0.71006 0.40582 0.0
C806 C 0.39496 0.72943 0.41821 0.0
C807 C 0.39998 0.75151 0.39958 0.0
C808 C 0.36983 0.75479 0.38477 0.0
H809 H 0.5858 0.867 0.33637 0.0
H810 H 0.5249 0.84034 0.34795 0.0
C811 C 0.336 0.73431 0.38787 0.0
C812 C 0.43814 0.76704 0.39431 0.0
H813 H 0.48703 0.84977 0.38536 0.0
C814 C 0.46768 0.74105 0.38985 0.0
C815 C 0.44518 0.80668 0.39279 0.0
C816 C 0.41453 0.83567 0.39783 0.0
C817 C 0.50391 0.75359 0.38333 0.0
C818 C 0.51109 0.79332 0.38182 0.0
C819 C 0.48157 0.81933 0.38655 0.0
C820 C 0.5486 0.80853 0.3747 0.0
C821 C 0.5336 0.72409 0.37734 0.0
C822 C 0.58236 0.79948 0.38585 0.0
C823 C 0.61745 0.81429 0.37907 0.0
C824 C 0.61933 0.83902 0.36124 0.0
C825 C 0.58544 0.84806 0.35017 0.0
C826 C 0.55052 0.83294 0.35681 0.0
H827 H 0.52047 0.69595 0.37352 0.0
H828 H 0.5506 0.7334 0.36318 0.0
H829 H 0.55329 0.72001 0.39118 0.0
H830 H 0.58152 0.78142 0.40001 0.0
H831 H 0.64292 0.80715 0.38812 0.0
H832 H 0.71378 0.13566 0.60504 0.0
H833 H 0.74888 0.07632 0.61223 0.0
H834 H 0.66449 0.04405 0.65934 0.0
H835 H 0.62936 0.10303 0.65247 0.0
H836 H 0.77578 0.04482 0.65581 0.0
H837 H 0.66926 0.95485 0.61228 0.0
H838 H 0.67391 0.00556 0.60746 0.0
H839 H 0.65152 0.98896 0.63172 0.0
C840 C 0.70291 0.11621 0.61713 0.0
C841 C 0.66859 0.12414 0.62807 0.0
C842 C 0.72297 0.08229 0.62118 0.0
C843 C 0.7089 0.05566 0.63609 0.0
C844 C 0.67551 0.06406 0.64758 0.0
H845 H 0.78624 0.82038 0.6621 0.0
H846 H 0.7487 0.87994 0.66236 0.0
C847 C 0.65558 0.09795 0.64366 0.0
C848 C 0.72856 0.01858 0.63925 0.0
H849 H 0.72116 0.923 0.62835 0.0
C850 C 0.76387 0.01815 0.64986 0.0
C851 C 0.7126 0.98385 0.63173 0.0
C852 C 0.67483 0.98302 0.62004 0.0
C853 C 0.7839 0.98381 0.65301 0.0
C854 C 0.76864 0.94915 0.64479 0.0
C855 C 0.73282 0.94952 0.63465 0.0
C856 C 0.79086 0.91294 0.64499 0.0
C857 C 0.82115 0.98502 0.66524 0.0
C858 C 0.82644 0.91151 0.63473 0.0
C859 C 0.8478 0.87791 0.63464 0.0
C860 C 0.83397 0.84451 0.64457 0.0
C861 C 0.7978 0.84558 0.65441 0.0
C862 C 0.77638 0.87957 0.65458 0.0
H863 H 0.82227 0.00992 0.67645 0.0
H864 H 0.82567 0.95848 0.67469 0.0
H865 H 0.845 0.98798 0.65358 0.0
H866 H 0.8377 0.93646 0.62662 0.0
H867 H 0.87524 0.87819 0.6266 0.0
H868 H 0.35247 0.15951 0.90237 0.0
H869 H 0.41071 0.19405 0.91077 0.0
H870 H 0.39671 0.262 0.85332 0.0
H871 H 0.33844 0.22651 0.84432 0.0
H872 H 0.46776 0.2319 0.85622 0.0
H873 H 0.43016 0.29929 0.93444 0.0
H874 H 0.42215 0.24866 0.93455 0.0
H875 H 0.39477 0.27863 0.91673 0.0
C876 C 0.36124 0.18223 0.89163 0.0
C877 C 0.34069 0.19014 0.87259 0.0
C878 C 0.39457 0.20216 0.89658 0.0
C879 C 0.40792 0.23092 0.88283 0.0
C880 C 0.38682 0.23996 0.86421 0.0
H881 H 0.59158 0.38686 0.90792 0.0
H882 H 0.53114 0.35359 0.90432 0.0
C883 C 0.3534 0.21983 0.85915 0.0
C884 C 0.44536 0.24927 0.88715 0.0
H885 H 0.49661 0.29669 0.9258 0.0
C886 C 0.47401 0.24631 0.87137 0.0
C887 C 0.45346 0.26814 0.9069 0.0
C888 C 0.42338 0.27424 0.92402 0.0
C889 C 0.5106 0.26147 0.87485 0.0
C890 C 0.51907 0.27919 0.8949 0.0
C891 C 0.49032 0.28241 0.9106 0.0
C892 C 0.5564 0.29784 0.8991 0.0
C893 C 0.53948 0.25928 0.8568 0.0
C894 C 0.59092 0.27732 0.89818 0.0
C895 C 0.62594 0.29644 0.90014 0.0
C896 C 0.62682 0.33631 0.90314 0.0
C897 C 0.59207 0.35619 0.90537 0.0
C898 C 0.55735 0.3372 0.90336 0.0
H899 H 0.52584 0.25289 0.84098 0.0
H900 H 0.55549 0.28654 0.85539 0.0
H901 H 0.56021 0.23611 0.86028 0.0
H902 H 0.5908 0.24672 0.89542 0.0
H903 H 0.65216 0.2803 0.89842 0.0
H904 H 0.79481 0.62547 0.65153 0.0
H905 H 0.76184 0.56437 0.64596 0.0
H906 H 0.80296 0.55981 0.58035 0.0
H907 H 0.83574 0.6207 0.58567 0.0
H908 H 0.7252 0.53846 0.5853 0.0
H909 H 0.82131 0.46128 0.64169 0.0
H910 H 0.79885 0.50326 0.65277 0.0
H911 H 0.83245 0.50796 0.63105 0.0
C912 C 0.79623 0.61184 0.6358 0.0
C913 C 0.81811 0.62787 0.61909 0.0
C914 C 0.77775 0.57672 0.63272 0.0
C915 C 0.78073 0.55721 0.61289 0.0
C916 C 0.80067 0.57421 0.59584 0.0
H917 H 0.7167 0.3162 0.58884 0.0
H918 H 0.75389 0.37599 0.59029 0.0
C919 C 0.81931 0.60908 0.59892 0.0
C920 C 0.76373 0.51873 0.60995 0.0
H921 H 0.76789 0.42671 0.62823 0.0
C922 C 0.73465 0.51399 0.5946 0.0
C923 C 0.77672 0.48667 0.62176 0.0
C924 C 0.80929 0.48977 0.63762 0.0
C925 C 0.71715 0.47834 0.59136 0.0
C926 C 0.72888 0.4467 0.60391 0.0
C927 C 0.75894 0.45105 0.61867 0.0
C928 C 0.70768 0.41008 0.60334 0.0
C929 C 0.6859 0.47486 0.57469 0.0
C930 C 0.66995 0.40944 0.61064 0.0
C931 C 0.64892 0.37575 0.6099 0.0
C932 C 0.66508 0.34159 0.60188 0.0
C933 C 0.70336 0.34197 0.59502 0.0
C934 C 0.72458 0.37604 0.59583 0.0
H935 H 0.68741 0.49815 0.56257 0.0
H936 H 0.68744 0.4469 0.56615 0.0
H937 H 0.65779 0.47678 0.58287 0.0
H938 H 0.65663 0.4352 0.61688 0.0
H939 H 0.6197 0.37673 0.61557 0.0
H940 H 0.09208 0.11574 0.83824 0.0
H941 H 0.03188 0.14965 0.84096 0.0
H942 H 0.09119 0.25752 0.83883 0.0
H943 H 0.15252 0.22347 0.83649 0.0
H944 H 0.03798 0.25369 0.8719 0.0
H945 H 0.97231 0.20627 0.79504 0.0
H946 H 0.98922 0.16681 0.81079 0.0
H947 H 0.02267 0.20119 0.80044 0.0
C948 C 0.09261 0.14671 0.83813 0.0
C949 C 0.12734 0.16687 0.83713 0.0
C950 C 0.05794 0.16607 0.83953 0.0
C951 C 0.05691 0.20609 0.83974 0.0
C952 C 0.09137 0.22655 0.83852 0.0
H953 H 0.84702 0.33693 0.83198 0.0
H954 H 0.90735 0.30475 0.82483 0.0
C955 C 0.12635 0.20709 0.83711 0.0
C956 C 0.01979 0.22601 0.84251 0.0
H957 H 0.92953 0.23118 0.82189 0.0
C958 C 0.01436 0.24913 0.86085 0.0
C959 C 0.98907 0.22026 0.828 0.0
C960 C 0.99368 0.1976 0.80735 0.0
C961 C 0.97874 0.2658 0.8654 0.0
C962 C 0.94749 0.25841 0.85148 0.0
C963 C 0.95326 0.2362 0.8328 0.0
C964 C 0.90908 0.27507 0.85541 0.0
C965 C 0.9751 0.29158 0.88492 0.0
C966 C 0.88907 0.26787 0.87464 0.0
C967 C 0.85437 0.28641 0.87887 0.0
C968 C 0.83899 0.31226 0.86384 0.0
C969 C 0.85805 0.31745 0.84403 0.0
C970 C 0.89267 0.29908 0.83989 0.0
H971 H 0.00333 0.30223 0.89046 0.0
H972 H 0.95653 0.31654 0.8814 0.0
H973 H 0.96212 0.2753 0.89839 0.0
H974 H 0.90071 0.2486 0.88661 0.0
H975 H 0.84044 0.28163 0.89424 0.0
H976 H 0.36867 0.61823 0.05783 0.0
H977 H 0.33362 0.55816 0.06054 0.0
H978 H 0.24432 0.61596 0.09594 0.0
H979 H 0.27865 0.67663 0.09228 0.0
H980 H 0.32068 0.52207 0.09604 0.0
H981 H 0.18092 0.54998 0.05763 0.0
H982 H 0.22086 0.58201 0.05467 0.0
H983 H 0.19139 0.58414 0.07849 0.0
C984 C 0.34099 0.6183 0.06562 0.0
C985 C 0.32623 0.65206 0.07475 0.0
C986 C 0.32106 0.58391 0.06727 0.0
C987 C 0.28619 0.58235 0.07838 0.0
C988 C 0.27066 0.61643 0.08683 0.0
H989 H 0.20332 0.37752 0.14223 0.0
H990 H 0.2356 0.43693 0.13259 0.0
C991 C 0.29031 0.65113 0.08477 0.0
C992 C 0.26835 0.54456 0.08285 0.0
H993 H 0.18489 0.49451 0.08005 0.0
C994 C 0.29105 0.51599 0.09233 0.0
C995 C 0.22982 0.53631 0.07787 0.0
C996 C 0.20447 0.56461 0.0664 0.0
C997 C 0.27632 0.47971 0.09713 0.0
C998 C 0.23732 0.47206 0.0931 0.0
C999 C 0.2147 0.50042 0.08336 0.0
C1000 C 0.21933 0.43492 0.09882 0.0
C1001 C 0.30304 0.44978 0.10605 0.0
C1002 C 0.19885 0.41415 0.08319 0.0
C1003 C 0.17978 0.38052 0.08876 0.0
C1004 C 0.181 0.36674 0.11008 0.0
C1005 C 0.20232 0.387 0.12559 0.0
C1006 C 0.22091 0.42098 0.12008 0.0
H1007 H 0.33311 0.45567 0.10147 0.0
H1008 H 0.30141 0.45011 0.12395 0.0
H1009 H 0.29539 0.42072 0.1002 0.0
H1010 H 0.19717 0.42426 0.06669 0.0
H1011 H 0.16356 0.36563 0.07643 0.0
H1012 H 0.81217 0.76275 0.363 0.0
H1013 H 0.87178 0.72837 0.36983 0.0
H1014 H 0.91956 0.77385 0.31121 0.0
H1015 H 0.86016 0.80822 0.30408 0.0
H1016 H 0.9232 0.67617 0.33901 0.0
H1017 H 0.9832 0.81517 0.36736 0.0
H1018 H 0.93252 0.80583 0.36712 0.0
H1019 H 0.95717 0.81443 0.34224 0.0
C1020 C 0.8349 0.76464 0.3512 0.0
C1021 C 0.8314 0.78867 0.33309 0.0
C1022 C 0.86898 0.74502 0.35519 0.0
C1023 C 0.9001 0.74911 0.34117 0.0
C1024 C 0.89584 0.77062 0.32227 0.0
H1025 H 0.14212 0.69933 0.35663 0.0
H1026 H 0.08011 0.7246 0.34525 0.0
C1027 C 0.86175 0.79011 0.3182 0.0
C1028 C 0.93802 0.73403 0.34734 0.0
H1029 H 0.02408 0.76183 0.36795 0.0
C1030 C 0.94534 0.69478 0.34532 0.0
C1031 C 0.96671 0.75854 0.35551 0.0
C1032 C 0.95974 0.80086 0.35836 0.0
C1033 C 0.98096 0.67936 0.3511 0.0
C1034 C 0.00957 0.70381 0.3596 0.0
C1035 C 0.00218 0.74314 0.36146 0.0
C1036 C 0.04721 0.68912 0.3669 0.0
C1037 C 0.98783 0.63716 0.34765 0.0
C1038 C 0.04939 0.66161 0.38328 0.0
C1039 C 0.08471 0.64708 0.38978 0.0
C1040 C 0.11873 0.66006 0.38022 0.0
C1041 C 0.11655 0.68867 0.36435 0.0
C1042 C 0.08111 0.70307 0.35777 0.0
H1043 H 0.96789 0.62496 0.33548 0.0
H1044 H 0.01754 0.63158 0.34227 0.0
H1045 H 0.98314 0.6219 0.36311 0.0
H1046 H 0.02372 0.65123 0.39101 0.0
H1047 H 0.08525 0.62534 0.40219 0.0
loop_
_geom_bond_atom_site_label_1
_geom_bond_atom_site_label_2
_geom_bond_distance
_geom_bond_site_symmetry_2
_ccdc_geom_bond_type
O0 Zn1 1.953 . S
O0 C16 1.225 . S
Zn1 O0 1.953 . S
Zn1 O2 1.949 . S
Zn1 O8 1.919 . S
Zn1 O13 1.924 . S
O2 Zn1 1.949 . S
O2 Zn3 1.923 . S
O2 Zn4 1.950 . S
O2 Zn5 1.945 . S
Zn3 O2 1.923 . S
Zn3 O6 1.933 . S
Zn3 O9 1.941 . S
Zn3 O10 1.965 . S
Zn4 O2 1.950 . S
Zn4 O11 1.938 1_455 S
Zn4 O12 1.906 1_455 S
Zn4 O22 1.953 . S
Zn5 O2 1.945 . S
Zn5 O7 1.932 . S
Zn5 O14 1.977 . S
Zn5 O15 1.910 . S
O6 Zn3 1.933 . S
O6 C17 1.226 . S
O7 Zn5 1.932 . S
O7 C17 1.307 . S
O8 Zn1 1.919 . S
O8 C19 1.253 . S
O9 Zn3 1.941 . S
O9 C19 1.283 . S
O10 Zn3 1.965 . S
O10 C18 1.303 1_455 S
O11 Zn4 1.938 1_655 S
O11 C18 1.247 . S
O12 Zn4 1.906 1_655 S
O12 C20 1.304 . S
O13 Zn1 1.924 . S
O13 C21 1.311 . S
O14 Zn5 1.977 . S
O14 C20 1.272 1_455 S
O15 Zn5 1.910 . S
O15 C21 1.231 . S
C16 O0 1.225 . S
C16 O22 1.298 . S
C17 O6 1.226 . S
C17 O7 1.307 . S
C18 O10 1.303 1_655 S
C18 O11 1.247 . S
C19 O8 1.253 . S
C19 O9 1.283 . S
C20 O12 1.304 . S
C20 O14 1.272 1_655 S
C21 O13 1.311 . S
C21 O15 1.231 . S
O22 Zn4 1.953 . S
O22 C16 1.298 . S
O23 Zn24 1.953 . S
O23 C39 1.225 . S
Zn24 O23 1.953 . S
Zn24 O25 1.949 . S
Zn24 O31 1.919 . S
Zn24 O36 1.924 . S
O25 Zn24 1.949 . S
O25 Zn26 1.923 . S
O25 Zn27 1.950 . S
O25 Zn28 1.945 . S
Zn26 O25 1.923 . S
Zn26 O29 1.933 . S
Zn26 O32 1.941 . S
Zn26 O33 1.965 . S
Zn27 O25 1.950 . S
Zn27 O34 1.938 . S
Zn27 O35 1.906 . S
Zn27 O45 1.953 . S
Zn28 O25 1.945 . S
Zn28 O30 1.932 . S
Zn28 O37 1.977 . S
Zn28 O38 1.910 . S
O29 Zn26 1.933 . S
O29 C40 1.226 . S
O30 Zn28 1.932 . S
O30 C40 1.307 . S
O31 Zn24 1.919 . S
O31 C42 1.253 . S
O32 Zn26 1.941 . S
O32 C42 1.283 . S
O33 Zn26 1.965 . S
O33 C41 1.303 . S
O34 Zn27 1.938 . S
O34 C41 1.247 . S
O35 Zn27 1.906 . S
O35 C43 1.304 . S
O36 Zn24 1.924 . S
O36 C44 1.311 . S
O37 Zn28 1.977 . S
O37 C43 1.272 . S
O38 Zn28 1.910 . S
O38 C44 1.231 . S
C39 O23 1.225 . S
C39 O45 1.298 . S
C40 O29 1.226 . S
C40 O30 1.307 . S
C41 O33 1.303 . S
C41 O34 1.247 . S
C42 O31 1.253 . S
C42 O32 1.283 . S
C43 O35 1.304 . S
C43 O37 1.272 . S
C44 O36 1.311 . S
C44 O38 1.231 . S
O45 Zn27 1.953 . S
O45 C39 1.298 . S
O46 Zn47 1.953 . S
O46 C62 1.225 . S
Zn47 O46 1.953 . S
Zn47 O48 1.949 . S
Zn47 O54 1.919 . S
Zn47 O59 1.924 . S
O48 Zn47 1.949 . S
O48 Zn49 1.923 . S
O48 Zn50 1.950 . S
O48 Zn51 1.945 . S
Zn49 O48 1.923 . S
Zn49 O52 1.933 . S
Zn49 O55 1.941 . S
Zn49 O56 1.965 . S
Zn50 O48 1.950 . S
Zn50 O57 1.938 1_655 S
Zn50 O58 1.906 1_655 S
Zn50 O68 1.953 . S
Zn51 O48 1.945 . S
Zn51 O53 1.932 . S
Zn51 O60 1.977 . S
Zn51 O61 1.910 . S
O52 Zn49 1.933 . S
O52 C63 1.226 . S
O53 Zn51 1.932 . S
O53 C63 1.307 . S
O54 Zn47 1.919 . S
O54 C65 1.253 . S
O55 Zn49 1.941 . S
O55 C65 1.283 . S
O56 Zn49 1.965 . S
O56 C64 1.303 1_655 S
O57 Zn50 1.938 1_455 S
O57 C64 1.247 . S
O58 Zn50 1.906 1_455 S
O58 C66 1.304 . S
O59 Zn47 1.924 . S
O59 C67 1.311 . S
O60 Zn51 1.977 . S
O60 C66 1.272 1_655 S
O61 Zn51 1.910 . S
O61 C67 1.231 . S
C62 O46 1.225 . S
C62 O68 1.298 . S
C63 O52 1.226 . S
C63 O53 1.307 . S
C64 O56 1.303 1_455 S
C64 O57 1.247 . S
C65 O54 1.253 . S
C65 O55 1.283 . S
C66 O58 1.304 . S
C66 O60 1.272 1_455 S
C67 O59 1.311 . S
C67 O61 1.231 . S
O68 Zn50 1.953 . S
O68 C62 1.298 . S
O69 Zn70 1.953 . S
O69 C85 1.225 . S
Zn70 O69 1.953 . S
Zn70 O71 1.949 . S
Zn70 O77 1.919 . S
Zn70 O82 1.924 . S
O71 Zn70 1.949 . S
O71 Zn72 1.923 . S
O71 Zn73 1.950 . S
O71 Zn74 1.945 . S
Zn72 O71 1.923 . S
Zn72 O75 1.933 . S
Zn72 O78 1.941 . S
Zn72 O79 1.965 . S
Zn73 O71 1.950 . S
Zn73 O80 1.938 . S
Zn73 O81 1.906 . S
Zn73 O91 1.953 . S
Zn74 O71 1.945 . S
Zn74 O76 1.932 . S
Zn74 O83 1.977 . S
Zn74 O84 1.910 . S
O75 Zn72 1.933 . S
O75 C86 1.226 . S
O76 Zn74 1.932 . S
O76 C86 1.307 . S
O77 Zn70 1.919 . S
O77 C88 1.253 . S
O78 Zn72 1.941 . S
O78 C88 1.283 . S
O79 Zn72 1.965 . S
O79 C87 1.303 . S
O80 Zn73 1.938 . S
O80 C87 1.247 . S
O81 Zn73 1.906 . S
O81 C89 1.304 . S
O82 Zn70 1.924 . S
O82 C90 1.311 . S
O83 Zn74 1.977 . S
O83 C89 1.272 . S
O84 Zn74 1.910 . S
O84 C90 1.231 . S
C85 O69 1.225 . S
C85 O91 1.298 . S
C86 O75 1.226 . S
C86 O76 1.307 . S
C87 O79 1.303 . S
C87 O80 1.247 . S
C88 O77 1.253 . S
C88 O78 1.283 . S
C89 O81 1.304 . S
C89 O83 1.272 . S
C90 O82 1.311 . S
C90 O84 1.231 . S
O91 Zn73 1.953 . S
O91 C85 1.298 . S
O92 Zn93 1.953 . S
O92 C108 1.225 . S
Zn93 O92 1.953 . S
Zn93 O94 1.949 . S
Zn93 O100 1.919 . S
Zn93 O105 1.924 . S
O94 Zn93 1.949 . S
O94 Zn95 1.923 . S
O94 Zn96 1.950 . S
O94 Zn97 1.945 . S
Zn95 O94 1.923 . S
Zn95 O98 1.933 . S
Zn95 O101 1.941 . S
Zn95 O102 1.965 . S
Zn96 O94 1.950 . S
Zn96 O103 1.938 . S
Zn96 O104 1.906 . S
Zn96 O114 1.953 . S
Zn97 O94 1.945 . S
Zn97 O99 1.932 . S
Zn97 O106 1.977 . S
Zn97 O107 1.910 . S
O98 Zn95 1.933 . S
O98 C109 1.226 . S
O99 Zn97 1.932 . S
O99 C109 1.307 . S
O100 Zn93 1.919 . S
O100 C111 1.253 . S
O101 Zn95 1.941 . S
O101 C111 1.283 . S
O102 Zn95 1.965 . S
O102 C110 1.303 . S
O103 Zn96 1.938 . S
O103 C110 1.247 . S
O104 Zn96 1.906 . S
O104 C112 1.304 . S
O105 Zn93 1.924 . S
O105 C113 1.311 . S
O106 Zn97 1.977 . S
O106 C112 1.272 . S
O107 Zn97 1.910 . S
O107 C113 1.231 . S
C108 O92 1.225 . S
C108 O114 1.298 . S
C109 O98 1.226 . S
C109 O99 1.307 . S
C110 O102 1.303 . S
C110 O103 1.247 . S
C111 O100 1.253 . S
C111 O101 1.283 . S
C112 O104 1.304 . S
C112 O106 1.272 . S
C113 O105 1.311 . S
C113 O107 1.231 . S
O114 Zn96 1.953 . S
O114 C108 1.298 . S
O115 Zn116 1.953 . S
O115 C131 1.225 . S
Zn116 O115 1.953 . S
Zn116 O117 1.949 . S
Zn116 O123 1.919 . S
Zn116 O128 1.924 . S
O117 Zn116 1.949 . S
O117 Zn118 1.923 . S
O117 Zn119 1.950 . S
O117 Zn120 1.945 . S
Zn118 O117 1.923 . S
Zn118 O121 1.933 . S
Zn118 O124 1.941 . S
Zn118 O125 1.965 . S
Zn119 O117 1.950 . S
Zn119 O126 1.938 1_545 S
Zn119 O127 1.906 1_545 S
Zn119 O137 1.953 . S
Zn120 O117 1.945 . S
Zn120 O122 1.932 . S
Zn120 O129 1.977 . S
Zn120 O130 1.910 . S
O121 Zn118 1.933 . S
O121 C132 1.226 . S
O122 Zn120 1.932 . S
O122 C132 1.307 . S
O123 Zn116 1.919 . S
O123 C134 1.253 . S
O124 Zn118 1.941 . S
O124 C134 1.283 . S
O125 Zn118 1.965 . S
O125 C133 1.303 1_545 S
O126 Zn119 1.938 1_565 S
O126 C133 1.247 . S
O127 Zn119 1.906 1_565 S
O127 C135 1.304 . S
O128 Zn116 1.924 . S
O128 C136 1.311 . S
O129 Zn120 1.977 . S
O129 C135 1.272 1_545 S
O130 Zn120 1.910 . S
O130 C136 1.231 . S
C131 O115 1.225 . S
C131 O137 1.298 . S
C132 O121 1.226 . S
C132 O122 1.307 . S
C133 O125 1.303 1_565 S
C133 O126 1.247 . S
C134 O123 1.253 . S
C134 O124 1.283 . S
C135 O127 1.304 . S
C135 O129 1.272 1_565 S
C136 O128 1.311 . S
C136 O130 1.231 . S
O137 Zn119 1.953 . S
O137 C131 1.298 . S
O138 Zn139 1.953 . S
O138 C154 1.225 . S
Zn139 O138 1.953 . S
Zn139 O140 1.949 . S
Zn139 O146 1.919 . S
Zn139 O151 1.924 . S
O140 Zn139 1.949 . S
O140 Zn141 1.923 . S
O140 Zn142 1.950 . S
O140 Zn143 1.945 . S
Zn141 O140 1.923 . S
Zn141 O144 1.933 . S
Zn141 O147 1.941 . S
Zn141 O148 1.965 . S
Zn142 O140 1.950 . S
Zn142 O149 1.938 . S
Zn142 O150 1.906 . S
Zn142 O160 1.953 . S
Zn143 O140 1.945 . S
Zn143 O145 1.932 . S
Zn143 O152 1.977 . S
Zn143 O153 1.910 . S
O144 Zn141 1.933 . S
O144 C155 1.226 . S
O145 Zn143 1.932 . S
O145 C155 1.307 . S
O146 Zn139 1.919 . S
O146 C157 1.253 . S
O147 Zn141 1.941 . S
O147 C157 1.283 . S
O148 Zn141 1.965 . S
O148 C156 1.303 . S
O149 Zn142 1.938 . S
O149 C156 1.247 . S
O150 Zn142 1.906 . S
O150 C158 1.304 . S
O151 Zn139 1.924 . S
O151 C159 1.311 . S
O152 Zn143 1.977 . S
O152 C158 1.272 . S
O153 Zn143 1.910 . S
O153 C159 1.231 . S
C154 O138 1.225 . S
C154 O160 1.298 . S
C155 O144 1.226 . S
C155 O145 1.307 . S
C156 O148 1.303 . S
C156 O149 1.247 . S
C157 O146 1.253 . S
C157 O147 1.283 . S
C158 O150 1.304 . S
C158 O152 1.272 . S
C159 O151 1.311 . S
C159 O153 1.231 . S
O160 Zn142 1.953 . S
O160 C154 1.298 . S
O161 Zn162 1.953 . S
O161 C177 1.225 . S
Zn162 O161 1.953 . S
Zn162 O163 1.949 . S
Zn162 O169 1.919 . S
Zn162 O174 1.924 . S
O163 Zn162 1.949 . S
O163 Zn164 1.923 . S
O163 Zn165 1.950 . S
O163 Zn166 1.945 . S
Zn164 O163 1.923 . S
Zn164 O167 1.933 . S
Zn164 O170 1.941 . S
Zn164 O171 1.965 . S
Zn165 O163 1.950 . S
Zn165 O172 1.938 1_565 S
Zn165 O173 1.906 1_565 S
Zn165 O183 1.953 . S
Zn166 O163 1.945 . S
Zn166 O168 1.932 . S
Zn166 O175 1.977 . S
Zn166 O176 1.910 . S
O167 Zn164 1.933 . S
O167 C178 1.226 . S
O168 Zn166 1.932 . S
O168 C178 1.307 . S
O169 Zn162 1.919 . S
O169 C180 1.253 . S
O170 Zn164 1.941 . S
O170 C180 1.283 . S
O171 Zn164 1.965 . S
O171 C179 1.303 1_565 S
O172 Zn165 1.938 1_545 S
O172 C179 1.247 . S
O173 Zn165 1.906 1_545 S
O173 C181 1.305 . S
O174 Zn162 1.924 . S
O174 C182 1.311 . S
O175 Zn166 1.977 . S
O175 C181 1.269 1_565 S
O176 Zn166 1.910 . S
O176 C182 1.231 . S
C177 O161 1.225 . S
C177 O183 1.298 . S
C178 O167 1.226 . S
C178 O168 1.307 . S
C179 O171 1.303 1_545 S
C179 O172 1.247 . S
C180 O169 1.253 . S
C180 O170 1.283 . S
C181 O173 1.305 . S
C181 O175 1.269 1_545 S
C182 O174 1.311 . S
C182 O176 1.231 . S
O183 Zn165 1.953 . S
O183 C177 1.298 . S
H184 C192 0.929 . S
H185 C194 0.930 . S
H186 C196 0.930 . S
H187 C199 0.929 1_455 S
H188 C202 0.930 . S
H189 C204 0.960 . S
H190 C204 0.960 . S
H191 C204 0.959 . S
C192 H184 0.929 . S
C192 C193 1.377 . S
C192 C194 1.384 . S
C193 C192 1.377 . S
C193 C199 1.390 . S
C194 H185 0.930 . S
C194 C192 1.384 . S
C194 C195 1.372 . S
C195 C194 1.372 . S
C195 C196 1.400 . S
C195 C200 1.490 . S
C196 H186 0.930 . S
C196 C195 1.400 . S
C196 C199 1.386 . S
H197 C213 0.930 1_565 S
H198 C214 0.931 . S
C199 H187 0.929 1_655 S
C199 C193 1.390 . S
C199 C196 1.386 . S
C200 C195 1.490 . S
C200 C202 1.395 . S
C200 C203 1.403 . S
H201 C207 0.930 . S
C202 H188 0.930 . S
C202 C200 1.395 . S
C202 C205 1.403 . S
C203 C200 1.403 . S
C203 C204 1.524 . S
C203 C207 1.400 . S
C204 H189 0.960 . S
C204 H190 0.960 . S
C204 H191 0.959 . S
C204 C203 1.524 . S
C205 C202 1.403 . S
C205 C206 1.392 . S
C205 C209 1.495 . S
C206 C205 1.392 . S
C206 C207 1.385 . S
C206 C208 1.478 . S
C207 H201 0.930 . S
C207 C203 1.400 . S
C207 C206 1.385 . S
C208 C206 1.478 . S
C208 C210 1.381 . S
C208 C214 1.383 . S
C209 C205 1.495 . S
C209 H215 0.959 . S
C209 H216 0.961 . S
C209 H217 0.960 . S
C210 C208 1.381 . S
C210 C211 1.394 . S
C210 H218 0.930 . S
C211 C210 1.394 . S
C211 C212 1.383 . S
C211 H219 0.929 . S
C212 C211 1.383 . S
C212 C213 1.377 . S
C213 H197 0.930 1_545 S
C213 C212 1.377 . S
C213 C214 1.379 . S
C214 H198 0.931 . S
C214 C208 1.383 . S
C214 C213 1.379 . S
H215 C209 0.959 . S
H216 C209 0.961 . S
H217 C209 0.960 . S
H218 C210 0.930 . S
H219 C211 0.929 . S
H220 C228 0.929 . S
H221 C230 0.930 . S
H222 C232 0.930 . S
H223 C235 0.929 . S
H224 C238 0.930 . S
H225 C240 0.960 . S
H226 C240 0.960 . S
H227 C240 0.960 . S
C228 H220 0.929 . S
C228 C229 1.377 . S
C228 C230 1.384 . S
C229 C228 1.377 . S
C229 C235 1.390 . S
C230 H221 0.930 . S
C230 C228 1.384 . S
C230 C231 1.372 . S
C231 C230 1.372 . S
C231 C232 1.400 . S
C231 C236 1.490 . S
C232 H222 0.930 . S
C232 C231 1.400 . S
C232 C235 1.386 . S
H233 C249 0.930 . S
H234 C250 0.931 . S
C235 H223 0.929 . S
C235 C229 1.390 . S
C235 C232 1.386 . S
C236 C231 1.490 . S
C236 C238 1.395 . S
C236 C239 1.403 . S
H237 C243 0.930 . S
C238 H224 0.930 . S
C238 C236 1.395 . S
C238 C241 1.403 . S
C239 C236 1.403 . S
C239 C240 1.524 . S
C239 C243 1.400 . S
C240 H225 0.960 . S
C240 H226 0.960 . S
C240 H227 0.960 . S
C240 C239 1.524 . S
C241 C238 1.403 . S
C241 C242 1.392 . S
C241 C245 1.495 . S
C242 C241 1.392 . S
C242 C243 1.385 . S
C242 C244 1.478 . S
C243 H237 0.930 . S
C243 C239 1.400 . S
C243 C242 1.385 . S
C244 C242 1.478 . S
C244 C246 1.381 . S
C244 C250 1.383 . S
C245 C241 1.495 . S
C245 H251 0.959 . S
C245 H252 0.961 . S
C245 H253 0.960 . S
C246 C244 1.381 . S
C246 C247 1.394 . S
C246 H254 0.930 . S
C247 C246 1.394 . S
C247 C248 1.383 . S
C247 H255 0.929 . S
C248 C247 1.383 . S
C248 C249 1.377 . S
C249 H233 0.930 . S
C249 C248 1.377 . S
C249 C250 1.379 . S
C250 H234 0.931 . S
C250 C244 1.383 . S
C250 C249 1.379 . S
H251 C245 0.959 . S
H252 C245 0.961 . S
H253 C245 0.960 . S
H254 C246 0.930 . S
H255 C247 0.929 . S
H256 C264 0.929 1_655 S
H257 C266 0.930 . S
H258 C268 0.930 . S
H259 C271 0.929 . S
H260 C274 0.930 . S
H261 C276 0.960 . S
H262 C276 0.960 . S
H263 C276 0.960 . S
C264 H256 0.929 1_455 S
C264 C265 1.377 . S
C264 C266 1.384 . S
C265 C264 1.377 . S
C265 C271 1.390 . S
C266 H257 0.930 . S
C266 C264 1.384 . S
C266 C267 1.372 . S
C267 C266 1.372 . S
C267 C268 1.400 . S
C267 C272 1.490 . S
C268 H258 0.930 . S
C268 C267 1.400 . S
C268 C271 1.386 . S
H269 C285 0.930 . S
H270 C286 0.931 . S
C271 H259 0.929 . S
C271 C265 1.390 . S
C271 C268 1.386 . S
C272 C267 1.490 . S
C272 C274 1.395 . S
C272 C275 1.403 . S
H273 C279 0.930 . S
C274 H260 0.930 . S
C274 C272 1.395 . S
C274 C277 1.403 . S
C275 C272 1.403 . S
C275 C276 1.524 . S
C275 C279 1.400 . S
C276 H261 0.960 . S
C276 H262 0.960 . S
C276 H263 0.960 . S
C276 C275 1.524 . S
C277 C274 1.403 . S
C277 C278 1.392 . S
C277 C281 1.495 . S
C278 C277 1.392 . S
C278 C279 1.385 . S
C278 C280 1.478 . S
C279 H273 0.930 . S
C279 C275 1.400 . S
C279 C278 1.385 . S
C280 C278 1.478 . S
C280 C282 1.381 . S
C280 C286 1.383 . S
C281 C277 1.495 . S
C281 H287 0.959 . S
C281 H288 0.961 . S
C281 H289 0.960 . S
C282 C280 1.381 . S
C282 C283 1.394 . S
C282 H290 0.930 . S
C283 C282 1.394 . S
C283 C284 1.383 . S
C283 H291 0.929 . S
C284 C283 1.383 . S
C284 C285 1.377 . S
C285 H269 0.930 . S
C285 C284 1.377 . S
C285 C286 1.379 . S
C286 H270 0.931 . S
C286 C280 1.383 . S
C286 C285 1.379 . S
H287 C281 0.959 . S
H288 C281 0.961 . S
H289 C281 0.960 . S
H290 C282 0.930 . S
H291 C283 0.929 . S
H292 C300 0.929 . S
H293 C302 0.930 . S
H294 C304 0.930 . S
H295 C307 0.929 . S
H296 C310 0.930 . S
H297 C312 0.960 . S
H298 C312 0.960 . S
H299 C312 0.960 . S
C300 H292 0.929 . S
C300 C301 1.377 . S
C300 C302 1.384 . S
C301 C300 1.377 . S
C301 C307 1.390 . S
C302 H293 0.930 . S
C302 C300 1.384 . S
C302 C303 1.372 . S
C303 C302 1.372 . S
C303 C304 1.400 . S
C303 C308 1.490 . S
C304 H294 0.930 . S
C304 C303 1.400 . S
C304 C307 1.386 . S
H305 C321 0.930 . S
H306 C322 0.931 . S
C307 H295 0.929 . S
C307 C301 1.390 . S
C307 C304 1.386 . S
C308 C303 1.490 . S
C308 C310 1.395 1_554 S
C308 C311 1.403 . S
H309 C315 0.930 . S
C310 H296 0.930 . S
C310 C308 1.395 1_556 S
C310 C313 1.403 . S
C311 C308 1.403 . S
C311 C312 1.524 . S
C311 C315 1.402 . S
C312 H297 0.960 . S
C312 H298 0.960 . S
C312 H299 0.960 . S
C312 C311 1.524 . S
C313 C310 1.403 . S
C313 C314 1.392 . S
C313 C317 1.495 . S
C314 C313 1.392 . S
C314 C315 1.382 1_556 S
C314 C316 1.478 . S
C315 H309 0.930 . S
C315 C311 1.402 . S
C315 C314 1.382 1_554 S
C316 C314 1.478 . S
C316 C318 1.381 . S
C316 C322 1.383 . S
C317 C313 1.495 . S
C317 H323 0.959 . S
C317 H324 0.961 . S
C317 H325 0.960 . S
C318 C316 1.381 . S
C318 C319 1.394 . S
C318 H326 0.930 . S
C319 C318 1.394 . S
C319 C320 1.383 . S
C319 H327 0.929 . S
C320 C319 1.383 . S
C320 C321 1.377 . S
C321 H305 0.930 . S
C321 C320 1.377 . S
C321 C322 1.379 . S
C322 H306 0.931 . S
C322 C316 1.383 . S
C322 C321 1.379 . S
H323 C317 0.959 . S
H324 C317 0.961 . S
H325 C317 0.960 . S
H326 C318 0.930 . S
H327 C319 0.929 . S
H328 C336 0.929 . S
H329 C338 0.930 . S
H330 C340 0.930 . S
H331 C343 0.929 . S
H332 C346 0.930 . S
H333 C348 0.960 . S
H334 C348 0.960 . S
H335 C348 0.960 . S
C336 H328 0.929 . S
C336 C337 1.377 . S
C336 C338 1.384 . S
C337 C336 1.377 . S
C337 C343 1.390 . S
C338 H329 0.930 . S
C338 C336 1.384 . S
C338 C339 1.372 . S
C339 C338 1.372 . S
C339 C340 1.400 . S
C339 C344 1.490 . S
C340 H330 0.930 . S
C340 C339 1.400 . S
C340 C343 1.386 . S
H341 C357 0.930 . S
H342 C358 0.931 . S
C343 H331 0.929 . S
C343 C337 1.390 . S
C343 C340 1.386 . S
C344 C339 1.490 . S
C344 C346 1.395 . S
C344 C347 1.403 . S
H345 C351 0.930 . S
C346 H332 0.930 . S
C346 C344 1.395 . S
C346 C349 1.403 . S
C347 C344 1.403 . S
C347 C348 1.524 . S
C347 C351 1.400 . S
C348 H333 0.960 . S
C348 H334 0.960 . S
C348 H335 0.960 . S
C348 C347 1.524 . S
C349 C346 1.403 . S
C349 C350 1.392 . S
C349 C353 1.495 . S
C350 C349 1.392 . S
C350 C351 1.385 . S
C350 C352 1.478 . S
C351 H345 0.930 . S
C351 C347 1.400 . S
C351 C350 1.385 . S
C352 C350 1.478 . S
C352 C354 1.381 . S
C352 C358 1.383 . S
C353 C349 1.495 . S
C353 H359 0.959 . S
C353 H360 0.961 . S
C353 H361 0.960 . S
C354 C352 1.381 . S
C354 C355 1.394 . S
C354 H362 0.930 . S
C355 C354 1.394 . S
C355 C356 1.383 . S
C355 H363 0.929 . S
C356 C355 1.383 . S
C356 C357 1.377 . S
C357 H341 0.930 . S
C357 C356 1.377 . S
C357 C358 1.379 . S
C358 H342 0.931 . S
C358 C352 1.383 . S
C358 C357 1.379 . S
H359 C353 0.959 . S
H360 C353 0.961 . S
H361 C353 0.960 . S
H362 C354 0.930 . S
H363 C355 0.929 . S
H364 C372 0.929 . S
H365 C374 0.930 . S
H366 C376 0.930 . S
H367 C379 0.929 1_655 S
H368 C382 0.930 . S
H369 C384 0.960 . S
H370 C384 0.960 . S
H371 C384 0.960 . S
C372 H364 0.929 . S
C372 C373 1.377 . S
C372 C374 1.384 . S
C373 C372 1.377 . S
C373 C379 1.390 . S
C374 H365 0.930 . S
C374 C372 1.384 . S
C374 C375 1.372 . S
C375 C374 1.372 . S
C375 C376 1.400 . S
C375 C380 1.490 . S
C376 H366 0.930 . S
C376 C375 1.400 . S
C376 C379 1.386 . S
H377 C393 0.930 . S
H378 C394 0.931 . S
C379 H367 0.929 1_455 S
C379 C373 1.390 . S
C379 C376 1.386 . S
C380 C375 1.490 . S
C380 C382 1.395 . S
C380 C383 1.403 . S
H381 C387 0.930 . S
C382 H368 0.930 . S
C382 C380 1.395 . S
C382 C385 1.403 . S
C383 C380 1.403 . S
C383 C384 1.524 . S
C383 C387 1.400 . S
C384 H369 0.960 . S
C384 H370 0.960 . S
C384 H371 0.960 . S
C384 C383 1.524 . S
C385 C382 1.403 . S
C385 C386 1.392 . S
C385 C389 1.495 . S
C386 C385 1.392 . S
C386 C387 1.385 . S
C386 C388 1.478 . S
C387 H381 0.930 . S
C387 C383 1.400 . S
C387 C386 1.385 . S
C388 C386 1.478 . S
C388 C390 1.381 . S
C388 C394 1.383 . S
C389 C385 1.495 . S
C389 H395 0.959 . S
C389 H396 0.961 . S
C389 H397 0.960 . S
C390 C388 1.381 . S
C390 C391 1.394 . S
C390 H398 0.930 . S
C391 C390 1.394 . S
C391 C392 1.383 . S
C391 H399 0.929 . S
C392 C391 1.383 . S
C392 C393 1.377 . S
C393 H377 0.930 . S
C393 C392 1.377 . S
C393 C394 1.379 . S
C394 H378 0.931 . S
C394 C388 1.383 . S
C394 C393 1.379 . S
H395 C389 0.959 . S
H396 C389 0.961 . S
H397 C389 0.960 . S
H398 C390 0.930 . S
H399 C391 0.929 . S
H400 C408 0.929 . S
H401 C410 0.930 . S
H402 C412 0.930 . S
H403 C415 0.929 . S
H404 C418 0.930 . S
H405 C420 0.960 . S
H406 C420 0.960 . S
H407 C420 0.960 . S
C408 H400 0.929 . S
C408 C409 1.377 . S
C408 C410 1.384 . S
C409 C408 1.377 . S
C409 C415 1.390 . S
C410 H401 0.930 . S
C410 C408 1.384 . S
C410 C411 1.372 . S
C411 C410 1.372 . S
C411 C412 1.400 . S
C411 C416 1.490 . S
C412 H402 0.930 . S
C412 C411 1.400 . S
C412 C415 1.386 . S
H413 C429 0.930 . S
H414 C430 0.931 . S
C415 H403 0.929 . S
C415 C409 1.390 . S
C415 C412 1.386 . S
C416 C411 1.490 . S
C416 C418 1.395 . S
C416 C419 1.403 . S
H417 C423 0.930 . S
C418 H404 0.930 . S
C418 C416 1.395 . S
C418 C421 1.403 . S
C419 C416 1.403 . S
C419 C420 1.524 . S
C419 C423 1.400 . S
C420 H405 0.960 . S
C420 H406 0.960 . S
C420 H407 0.960 . S
C420 C419 1.524 . S
C421 C418 1.403 . S
C421 C422 1.392 . S
C421 C425 1.495 . S
C422 C421 1.392 . S
C422 C423 1.385 . S
C422 C424 1.478 . S
C423 H417 0.930 . S
C423 C419 1.400 . S
C423 C422 1.385 . S
C424 C422 1.478 . S
C424 C426 1.381 . S
C424 C430 1.383 . S
C425 C421 1.495 . S
C425 H431 0.959 . S
C425 H432 0.961 . S
C425 H433 0.960 . S
C426 C424 1.381 . S
C426 C427 1.394 . S
C426 H434 0.930 . S
C427 C426 1.394 . S
C427 C428 1.383 . S
C427 H435 0.929 . S
C428 C427 1.383 . S
C428 C429 1.377 . S
C429 H413 0.930 . S
C429 C428 1.377 . S
C429 C430 1.379 . S
C430 H414 0.931 . S
C430 C424 1.383 . S
C430 C429 1.379 . S
H431 C425 0.959 . S
H432 C425 0.961 . S
H433 C425 0.960 . S
H434 C426 0.930 . S
H435 C427 0.929 . S
H436 C444 0.929 . S
H437 C446 0.930 . S
H438 C448 0.930 . S
H439 C451 0.929 . S
H440 C454 0.930 . S
H441 C456 0.960 . S
H442 C456 0.960 . S
H443 C456 0.960 . S
C444 H436 0.929 . S
C444 C445 1.377 . S
C444 C446 1.384 . S
C445 C444 1.377 . S
C445 C451 1.390 . S
C446 H437 0.930 . S
C446 C444 1.384 . S
C446 C447 1.372 . S
C447 C446 1.372 . S
C447 C448 1.400 . S
C447 C452 1.490 . S
C448 H438 0.930 . S
C448 C447 1.400 . S
C448 C451 1.386 . S
H449 C465 0.930 . S
H450 C466 0.931 1_554 S
C451 H439 0.929 . S
C451 C445 1.390 . S
C451 C448 1.386 . S
C452 C447 1.490 . S
C452 C454 1.395 . S
C452 C455 1.403 . S
H453 C459 0.930 . S
C454 H440 0.930 . S
C454 C452 1.395 . S
C454 C457 1.403 . S
C455 C452 1.403 . S
C455 C456 1.524 . S
C455 C459 1.400 . S
C456 H441 0.960 . S
C456 H442 0.960 . S
C456 H443 0.960 . S
C456 C455 1.524 . S
C457 C454 1.403 . S
C457 C458 1.392 . S
C457 C461 1.495 . S
C458 C457 1.392 . S
C458 C459 1.385 . S
C458 C460 1.478 1_554 S
C459 H453 0.930 . S
C459 C455 1.400 . S
C459 C458 1.385 . S
C460 C458 1.478 1_556 S
C460 C462 1.381 . S
C460 C466 1.383 . S
C461 C457 1.495 . S
C461 H467 0.959 . S
C461 H468 0.961 . S
C461 H469 0.960 . S
C462 C460 1.381 . S
C462 C463 1.394 . S
C462 H470 0.930 . S
C463 C462 1.394 . S
C463 C464 1.383 . S
C463 H471 0.929 . S
C464 C463 1.383 . S
C464 C465 1.377 . S
C465 H449 0.930 . S
C465 C464 1.377 . S
C465 C466 1.379 . S
C466 H450 0.931 1_556 S
C466 C460 1.383 . S
C466 C465 1.379 . S
H467 C461 0.959 . S
H468 C461 0.961 . S
H469 C461 0.960 . S
H470 C462 0.930 . S
H471 C463 0.929 . S
H472 C480 0.929 . S
H473 C482 0.930 . S
H474 C484 0.930 . S
H475 C487 0.929 . S
H476 C490 0.930 . S
H477 C492 0.960 . S
H478 C492 0.960 . S
H479 C492 0.960 . S
C480 H472 0.929 . S
C480 C481 1.377 . S
C480 C482 1.384 . S
C481 C480 1.377 . S
C481 C487 1.390 . S
C482 H473 0.930 . S
C482 C480 1.384 . S
C482 C483 1.372 . S
C483 C482 1.372 . S
C483 C484 1.400 . S
C483 C488 1.490 . S
C484 H474 0.930 . S
C484 C483 1.400 . S
C484 C487 1.386 . S
H485 C501 0.930 1_565 S
H486 C502 0.931 . S
C487 H475 0.929 . S
C487 C481 1.390 . S
C487 C484 1.386 . S
C488 C483 1.490 . S
C488 C490 1.395 . S
C488 C491 1.403 . S
H489 C495 0.930 . S
C490 H476 0.930 . S
C490 C488 1.395 . S
C490 C493 1.403 . S
C491 C488 1.403 . S
C491 C492 1.524 . S
C491 C495 1.400 . S
C492 H477 0.960 . S
C492 H478 0.960 . S
C492 H479 0.960 . S
C492 C491 1.524 . S
C493 C490 1.403 . S
C493 C494 1.392 . S
C493 C497 1.495 . S
C494 C493 1.392 . S
C494 C495 1.385 . S
C494 C496 1.478 . S
C495 H489 0.930 . S
C495 C491 1.400 . S
C495 C494 1.385 . S
C496 C494 1.478 . S
C496 C498 1.381 . S
C496 C502 1.383 . S
C497 C493 1.495 . S
C497 H503 0.959 . S
C497 H504 0.961 . S
C497 H505 0.960 . S
C498 C496 1.381 . S
C498 C499 1.394 . S
C498 H506 0.930 . S
C499 C498 1.394 . S
C499 C500 1.383 . S
C499 H507 0.929 . S
C500 C499 1.383 . S
C500 C501 1.377 . S
C501 H485 0.930 1_545 S
C501 C500 1.377 . S
C501 C502 1.379 . S
C502 H486 0.931 . S
C502 C496 1.383 . S
C502 C501 1.379 . S
H503 C497 0.959 . S
H504 C497 0.961 . S
H505 C497 0.960 . S
H506 C498 0.930 . S
H507 C499 0.929 . S
H508 C516 0.929 . S
H509 C518 0.930 . S
H510 C520 0.930 . S
H511 C523 0.929 . S
H512 C526 0.930 . S
H513 C528 0.960 . S
H514 C528 0.960 . S
H515 C528 0.960 . S
C516 H508 0.929 . S
C516 C517 1.377 . S
C516 C518 1.384 . S
C517 C516 1.377 . S
C517 C523 1.390 . S
C518 H509 0.930 . S
C518 C516 1.384 . S
C518 C519 1.372 . S
C519 C518 1.372 . S
C519 C520 1.400 . S
C519 C524 1.490 . S
C520 H510 0.930 . S
C520 C519 1.400 . S
C520 C523 1.386 . S
H521 C537 0.930 . S
H522 C538 0.931 . S
C523 H511 0.929 . S
C523 C517 1.390 . S
C523 C520 1.386 . S
C524 C519 1.490 . S
C524 C526 1.395 . S
C524 C527 1.403 . S
H525 C531 0.930 . S
C526 H512 0.930 . S
C526 C524 1.395 . S
C526 C529 1.403 . S
C527 C524 1.403 . S
C527 C528 1.524 . S
C527 C531 1.400 . S
C528 H513 0.960 . S
C528 H514 0.960 . S
C528 H515 0.960 . S
C528 C527 1.524 . S
C529 C526 1.403 . S
C529 C530 1.392 . S
C529 C533 1.495 . S
C530 C529 1.392 . S
C530 C531 1.385 . S
C530 C532 1.478 . S
C531 H525 0.930 . S
C531 C527 1.400 . S
C531 C530 1.385 . S
C532 C530 1.478 . S
C532 C534 1.381 . S
C532 C538 1.383 . S
C533 C529 1.495 . S
C533 H539 0.959 . S
C533 H540 0.961 . S
C533 H541 0.960 . S
C534 C532 1.381 . S
C534 C535 1.394 . S
C534 H542 0.930 . S
C535 C534 1.394 . S
C535 C536 1.383 . S
C535 H543 0.929 . S
C536 C535 1.383 . S
C536 C537 1.377 . S
C537 H521 0.930 . S
C537 C536 1.377 . S
C537 C538 1.379 . S
C538 H522 0.931 . S
C538 C532 1.383 . S
C538 C537 1.379 . S
H539 C533 0.959 . S
H540 C533 0.961 . S
H541 C533 0.960 . S
H542 C534 0.930 . S
H543 C535 0.929 . S
H544 C552 0.929 . S
H545 C554 0.930 1_556 S
H546 C556 0.930 . S
H547 C559 0.929 . S
H548 C562 0.930 . S
H549 C564 0.960 . S
H550 C564 0.960 . S
H551 C564 0.960 . S
C552 H544 0.929 . S
C552 C553 1.377 . S
C552 C554 1.384 . S
C553 C552 1.377 . S
C553 C559 1.390 . S
C554 H545 0.930 1_554 S
C554 C552 1.384 . S
C554 C555 1.372 . S
C555 C554 1.372 . S
C555 C556 1.400 . S
C555 C560 1.490 1_554 S
C556 H546 0.930 . S
C556 C555 1.400 . S
C556 C559 1.386 . S
H557 C573 0.930 1_545 S
H558 C574 0.931 . S
C559 H547 0.929 . S
C559 C553 1.390 . S
C559 C556 1.386 . S
C560 C555 1.490 1_556 S
C560 C562 1.395 . S
C560 C563 1.403 . S
H561 C567 0.930 . S
C562 H548 0.930 . S
C562 C560 1.395 . S
C562 C565 1.403 . S
C563 C560 1.403 . S
C563 C564 1.524 . S
C563 C567 1.400 . S
C564 H549 0.960 . S
C564 H550 0.960 . S
C564 H551 0.960 . S
C564 C563 1.524 . S
C565 C562 1.403 . S
C565 C566 1.392 . S
C565 C569 1.495 . S
C566 C565 1.392 . S
C566 C567 1.385 . S
C566 C568 1.478 . S
C567 H561 0.930 . S
C567 C563 1.400 . S
C567 C566 1.385 . S
C568 C566 1.478 . S
C568 C570 1.381 . S
C568 C574 1.383 . S
C569 C565 1.495 . S
C569 H575 0.959 . S
C569 H576 0.961 . S
C569 H577 0.960 . S
C570 C568 1.381 . S
C570 C571 1.394 . S
C570 H578 0.930 . S
C571 C570 1.394 . S
C571 C572 1.383 . S
C571 H579 0.929 . S
C572 C571 1.383 . S
C572 C573 1.377 . S
C573 H557 0.930 1_565 S
C573 C572 1.377 . S
C573 C574 1.379 . S
C574 H558 0.931 . S
C574 C568 1.383 . S
C574 C573 1.379 . S
H575 C569 0.959 . S
H576 C569 0.961 . S
H577 C569 0.960 . S
H578 C570 0.930 . S
H579 C571 0.929 . S
H580 C588 0.929 . S
H581 C590 0.930 . S
H582 C592 0.930 . S
H583 C595 0.929 . S
H584 C598 0.930 . S
H585 C600 0.960 . S
H586 C600 0.960 . S
H587 C600 0.960 . S
C588 H580 0.929 . S
C588 C589 1.377 . S
C588 C590 1.384 . S
C589 C588 1.377 . S
C589 C595 1.390 . S
C590 H581 0.930 . S
C590 C588 1.384 . S
C590 C591 1.372 . S
C591 C590 1.372 . S
C591 C592 1.400 . S
C591 C596 1.490 . S
C592 H582 0.930 . S
C592 C591 1.400 . S
C592 C595 1.386 . S
H593 C609 0.930 . S
H594 C610 0.931 . S
C595 H583 0.929 . S
C595 C589 1.390 . S
C595 C592 1.386 . S
C596 C591 1.490 . S
C596 C598 1.395 . S
C596 C599 1.403 . S
H597 C603 0.930 . S
C598 H584 0.930 . S
C598 C596 1.395 . S
C598 C601 1.403 . S
C599 C596 1.403 . S
C599 C600 1.524 . S
C599 C603 1.400 . S
C600 H585 0.960 . S
C600 H586 0.960 . S
C600 H587 0.960 . S
C600 C599 1.524 . S
C601 C598 1.403 . S
C601 C602 1.392 . S
C601 C605 1.495 . S
C602 C601 1.392 . S
C602 C603 1.385 . S
C602 C604 1.478 . S
C603 H597 0.930 . S
C603 C599 1.400 . S
C603 C602 1.385 . S
C604 C602 1.478 . S
C604 C606 1.381 . S
C604 C610 1.383 . S
C605 C601 1.495 . S
C605 H611 0.959 . S
C605 H612 0.961 . S
C605 H613 0.960 . S
C606 C604 1.381 . S
C606 C607 1.394 . S
C606 H614 0.930 . S
C607 C606 1.394 . S
C607 C608 1.383 . S
C607 H615 0.929 . S
C608 C607 1.383 . S
C608 C609 1.377 . S
C609 H593 0.930 . S
C609 C608 1.377 . S
C609 C610 1.379 . S
C610 H594 0.931 . S
C610 C604 1.383 . S
C610 C609 1.379 . S
H611 C605 0.959 . S
H612 C605 0.961 . S
H613 C605 0.960 . S
H614 C606 0.930 . S
H615 C607 0.929 . S
H616 C624 0.929 . S
H617 C626 0.930 . S
H618 C628 0.930 . S
H619 C631 0.929 . S
H620 C634 0.930 . S
H621 C636 0.960 . S
H622 C636 0.946 1_556 S
H623 C636 0.960 1_556 S
C624 H616 0.929 . S
C624 C625 1.377 . S
C624 C626 1.384 . S
C625 C624 1.377 . S
C625 C631 1.390 . S
C626 H617 0.930 . S
C626 C624 1.384 . S
C626 C627 1.372 . S
C627 C626 1.372 . S
C627 C628 1.400 . S
C627 C632 1.490 . S
C628 H618 0.930 . S
C628 C627 1.400 . S
C628 C631 1.386 . S
H629 C645 0.930 . S
H630 C646 0.931 . S
C631 H619 0.929 . S
C631 C625 1.390 . S
C631 C628 1.386 . S
C632 C627 1.490 . S
C632 C634 1.395 . S
C632 C635 1.369 1_556 S
H633 C639 0.930 . S
C634 H620 0.930 . S
C634 C632 1.395 . S
C634 C637 1.403 . S
C635 C632 1.369 1_554 S
C635 C636 1.529 . S
C635 C639 1.430 . S
C636 H621 0.960 . S
C636 H622 0.946 1_554 S
C636 H623 0.960 1_554 S
C636 C635 1.529 . S
C637 C634 1.403 . S
C637 C638 1.392 1_556 S
C637 C641 1.495 . S
C638 C637 1.392 1_554 S
C638 C639 1.385 . S
C638 C640 1.478 . S
C639 H633 0.930 . S
C639 C635 1.430 . S
C639 C638 1.385 . S
C640 C638 1.478 . S
C640 C642 1.381 . S
C640 C646 1.383 . S
C641 C637 1.495 . S
C641 H647 0.959 . S
C641 H648 0.960 . S
C641 H649 0.960 1_556 S
C642 C640 1.381 . S
C642 C643 1.394 . S
C642 H650 0.930 . S
C643 C642 1.394 . S
C643 C644 1.383 . S
C643 H651 0.929 . S
C644 C643 1.383 . S
C644 C645 1.377 . S
C645 H629 0.930 . S
C645 C644 1.377 . S
C645 C646 1.379 . S
C646 H630 0.931 . S
C646 C640 1.383 . S
C646 C645 1.379 . S
H647 C641 0.959 . S
H648 C641 0.960 . S
H649 C641 0.960 1_554 S
H650 C642 0.930 . S
H651 C643 0.929 . S
H652 C660 0.929 . S
H653 C662 0.930 . S
H654 C664 0.930 . S
H655 C667 0.929 . S
H656 C670 0.930 . S
H657 C672 0.960 . S
H658 C672 0.960 . S
H659 C672 0.960 . S
C660 H652 0.929 . S
C660 C661 1.377 . S
C660 C662 1.384 . S
C661 C660 1.377 . S
C661 C667 1.390 . S
C662 H653 0.930 . S
C662 C660 1.384 . S
C662 C663 1.372 . S
C663 C662 1.372 . S
C663 C664 1.400 . S
C663 C668 1.490 . S
C664 H654 0.930 . S
C664 C663 1.400 . S
C664 C667 1.386 . S
H665 C681 0.930 . S
H666 C682 0.931 . S
C667 H655 0.929 . S
C667 C661 1.390 . S
C667 C664 1.386 . S
C668 C663 1.490 . S
C668 C670 1.395 . S
C668 C671 1.403 . S
H669 C675 0.930 . S
C670 H656 0.930 . S
C670 C668 1.395 . S
C670 C673 1.403 . S
C671 C668 1.403 . S
C671 C672 1.524 . S
C671 C675 1.400 . S
C672 H657 0.960 . S
C672 H658 0.960 . S
C672 H659 0.960 . S
C672 C671 1.524 . S
C673 C670 1.403 . S
C673 C674 1.392 . S
C673 C677 1.495 . S
C674 C673 1.392 . S
C674 C675 1.385 . S
C674 C676 1.478 . S
C675 H669 0.930 . S
C675 C671 1.400 . S
C675 C674 1.385 . S
C676 C674 1.478 . S
C676 C678 1.381 . S
C676 C682 1.383 . S
C677 C673 1.495 . S
C677 H683 0.959 . S
C677 H684 0.961 . S
C677 H685 0.960 . S
C678 C676 1.381 . S
C678 C679 1.394 . S
C678 H686 0.930 . S
C679 C678 1.394 . S
C679 C680 1.383 . S
C679 H687 0.929 . S
C680 C679 1.383 . S
C680 C681 1.377 . S
C681 H665 0.930 . S
C681 C680 1.377 . S
C681 C682 1.379 . S
C682 H666 0.931 . S
C682 C676 1.383 . S
C682 C681 1.379 . S
H683 C677 0.959 . S
H684 C677 0.961 . S
H685 C677 0.960 . S
H686 C678 0.930 . S
H687 C679 0.929 . S
H688 C696 0.929 . S
H689 C698 0.930 . S
H690 C700 0.930 . S
H691 C703 0.929 . S
H692 C706 0.930 . S
H693 C708 0.960 . S
H694 C708 0.960 . S
H695 C708 0.960 . S
C696 H688 0.929 . S
C696 C697 1.377 . S
C696 C698 1.384 . S
C697 C696 1.377 . S
C697 C703 1.390 . S
C698 H689 0.930 . S
C698 C696 1.384 . S
C698 C699 1.372 . S
C699 C698 1.372 . S
C699 C700 1.400 . S
C699 C704 1.490 . S
C700 H690 0.930 . S
C700 C699 1.400 . S
C700 C703 1.386 . S
H701 C717 0.930 . S
H702 C718 0.931 . S
C703 H691 0.929 . S
C703 C697 1.390 . S
C703 C700 1.386 . S
C704 C699 1.490 . S
C704 C706 1.395 . S
C704 C707 1.403 . S
H705 C711 0.930 . S
C706 H692 0.930 . S
C706 C704 1.395 . S
C706 C709 1.403 . S
C707 C704 1.403 . S
C707 C708 1.524 . S
C707 C711 1.400 . S
C708 H693 0.960 . S
C708 H694 0.960 . S
C708 H695 0.960 . S
C708 C707 1.524 . S
C709 C706 1.403 . S
C709 C710 1.392 . S
C709 C713 1.495 . S
C710 C709 1.392 . S
C710 C711 1.385 . S
C710 C712 1.478 . S
C711 H705 0.930 . S
C711 C707 1.400 . S
C711 C710 1.385 . S
C712 C710 1.478 . S
C712 C714 1.381 . S
C712 C718 1.383 . S
C713 C709 1.495 . S
C713 H719 0.959 . S
C713 H720 0.961 . S
C713 H721 0.960 . S
C714 C712 1.381 . S
C714 C715 1.394 . S
C714 H722 0.930 . S
C715 C714 1.394 . S
C715 C716 1.383 . S
C715 H723 0.929 . S
C716 C715 1.383 . S
C716 C717 1.377 . S
C717 H701 0.930 . S
C717 C716 1.377 . S
C717 C718 1.379 . S
C718 H702 0.931 . S
C718 C712 1.383 . S
C718 C717 1.379 . S
H719 C713 0.959 . S
H720 C713 0.961 . S
H721 C713 0.960 . S
H722 C714 0.930 . S
H723 C715 0.929 . S
H724 C732 0.929 . S
H725 C734 0.930 . S
H726 C736 0.930 . S
H727 C739 0.929 . S
H728 C742 0.930 . S
H729 C744 0.960 . S
H730 C744 0.960 . S
H731 C744 0.960 . S
C732 H724 0.929 . S
C732 C733 1.377 . S
C732 C734 1.384 . S
C733 C732 1.377 . S
C733 C739 1.390 . S
C734 H725 0.930 . S
C734 C732 1.384 . S
C734 C735 1.372 . S
C735 C734 1.372 . S
C735 C736 1.400 . S
C735 C740 1.490 . S
C736 H726 0.930 . S
C736 C735 1.400 . S
C736 C739 1.386 . S
H737 C753 0.930 . S
H738 C754 0.931 . S
C739 H727 0.929 . S
C739 C733 1.390 . S
C739 C736 1.386 . S
C740 C735 1.490 . S
C740 C742 1.395 . S
C740 C743 1.403 . S
H741 C747 0.930 . S
C742 H728 0.930 . S
C742 C740 1.395 . S
C742 C745 1.403 . S
C743 C740 1.403 . S
C743 C744 1.524 . S
C743 C747 1.400 . S
C744 H729 0.960 . S
C744 H730 0.960 . S
C744 H731 0.960 . S
C744 C743 1.524 . S
C745 C742 1.403 . S
C745 C746 1.392 . S
C745 C749 1.495 . S
C746 C745 1.392 . S
C746 C747 1.385 . S
C746 C748 1.478 . S
C747 H741 0.930 . S
C747 C743 1.400 . S
C747 C746 1.385 . S
C748 C746 1.478 . S
C748 C750 1.381 . S
C748 C754 1.383 . S
C749 C745 1.495 . S
C749 H755 0.959 . S
C749 H756 0.961 . S
C749 H757 0.960 . S
C750 C748 1.381 . S
C750 C751 1.394 . S
C750 H758 0.930 . S
C751 C750 1.394 . S
C751 C752 1.383 . S
C751 H759 0.929 . S
C752 C751 1.383 . S
C752 C753 1.377 . S
C753 H737 0.930 . S
C753 C752 1.377 . S
C753 C754 1.379 . S
C754 H738 0.931 . S
C754 C748 1.383 . S
C754 C753 1.379 . S
H755 C749 0.959 . S
H756 C749 0.961 . S
H757 C749 0.960 . S
H758 C750 0.930 . S
H759 C751 0.929 . S
H760 C768 0.929 . S
H761 C770 0.930 . S
H762 C772 0.930 . S
H763 C775 0.929 . S
H764 C778 0.930 . S
H765 C780 0.960 . S
H766 C780 0.960 1_545 S
H767 C780 0.960 1_545 S
C768 H760 0.929 . S
C768 C769 1.377 . S
C768 C770 1.384 . S
C769 C768 1.377 . S
C769 C775 1.390 . S
C770 H761 0.930 . S
C770 C768 1.384 . S
C770 C771 1.372 . S
C771 C770 1.372 . S
C771 C772 1.400 . S
C771 C776 1.490 . S
C772 H762 0.930 . S
C772 C771 1.400 . S
C772 C775 1.386 . S
H773 C789 0.930 . S
H774 C790 0.931 . S
C775 H763 0.929 . S
C775 C769 1.390 . S
C775 C772 1.386 . S
C776 C771 1.490 . S
C776 C778 1.395 . S
C776 C779 1.403 1_545 S
H777 C783 0.930 . S
C778 H764 0.930 . S
C778 C776 1.395 . S
C778 C781 1.380 1_545 S
C779 C776 1.403 1_565 S
C779 C780 1.524 . S
C779 C783 1.400 . S
C780 H765 0.960 . S
C780 H766 0.960 1_565 S
C780 H767 0.960 1_565 S
C780 C779 1.524 . S
C781 C778 1.380 1_565 S
C781 C782 1.417 . S
C781 C785 1.494 1_565 S
C782 C781 1.417 . S
C782 C783 1.385 . S
C782 C784 1.478 . S
C783 H777 0.930 . S
C783 C779 1.400 . S
C783 C782 1.385 . S
C784 C782 1.478 . S
C784 C786 1.381 . S
C784 C790 1.383 . S
C785 C781 1.494 1_545 S
C785 H791 0.980 . S
C785 H792 0.945 1_545 S
C785 H793 0.955 1_545 S
C786 C784 1.381 . S
C786 C787 1.394 . S
C786 H794 0.930 . S
C787 C786 1.394 . S
C787 C788 1.383 . S
C787 H795 0.929 . S
C788 C787 1.383 . S
C788 C789 1.377 . S
C789 H773 0.930 . S
C789 C788 1.377 . S
C789 C790 1.379 . S
C790 H774 0.931 . S
C790 C784 1.383 . S
C790 C789 1.379 . S
H791 C785 0.980 . S
H792 C785 0.945 1_565 S
H793 C785 0.955 1_565 S
H794 C786 0.930 . S
H795 C787 0.929 . S
H796 C804 0.929 . S
H797 C806 0.930 . S
H798 C808 0.930 . S
H799 C811 0.929 . S
H800 C814 0.930 . S
H801 C816 0.960 . S
H802 C816 0.960 . S
H803 C816 0.960 . S
C804 H796 0.929 . S
C804 C805 1.377 . S
C804 C806 1.384 . S
C805 C804 1.377 . S
C805 C811 1.390 . S
C806 H797 0.930 . S
C806 C804 1.384 . S
C806 C807 1.372 . S
C807 C806 1.372 . S
C807 C808 1.400 . S
C807 C812 1.490 . S
C808 H798 0.930 . S
C808 C807 1.400 . S
C808 C811 1.386 . S
H809 C825 0.930 . S
H810 C826 0.931 . S
C811 H799 0.929 . S
C811 C805 1.390 . S
C811 C808 1.386 . S
C812 C807 1.490 . S
C812 C814 1.395 . S
C812 C815 1.403 . S
H813 C819 0.930 . S
C814 H800 0.930 . S
C814 C812 1.395 . S
C814 C817 1.403 . S
C815 C812 1.403 . S
C815 C816 1.524 . S
C815 C819 1.400 . S
C816 H801 0.960 . S
C816 H802 0.960 . S
C816 H803 0.960 . S
C816 C815 1.524 . S
C817 C814 1.403 . S
C817 C818 1.392 . S
C817 C821 1.495 . S
C818 C817 1.392 . S
C818 C819 1.385 . S
C818 C820 1.478 . S
C819 H813 0.930 . S
C819 C815 1.400 . S
C819 C818 1.385 . S
C820 C818 1.478 . S
C820 C822 1.381 . S
C820 C826 1.383 . S
C821 C817 1.495 . S
C821 H827 0.959 . S
C821 H828 0.961 . S
C821 H829 0.960 . S
C822 C820 1.381 . S
C822 C823 1.394 . S
C822 H830 0.930 . S
C823 C822 1.394 . S
C823 C824 1.383 . S
C823 H831 0.929 . S
C824 C823 1.383 . S
C824 C825 1.377 . S
C825 H809 0.930 . S
C825 C824 1.377 . S
C825 C826 1.379 . S
C826 H810 0.931 . S
C826 C820 1.383 . S
C826 C825 1.379 . S
H827 C821 0.959 . S
H828 C821 0.961 . S
H829 C821 0.960 . S
H830 C822 0.930 . S
H831 C823 0.929 . S
H832 C840 0.929 . S
H833 C842 0.930 . S
H834 C844 0.930 . S
H835 C847 0.929 . S
H836 C850 0.930 . S
H837 C852 0.960 . S
H838 C852 0.960 1_545 S
H839 C852 0.960 1_545 S
C840 H832 0.929 . S
C840 C841 1.377 . S
C840 C842 1.384 . S
C841 C840 1.377 . S
C841 C847 1.390 . S
C842 H833 0.930 . S
C842 C840 1.384 . S
C842 C843 1.372 . S
C843 C842 1.372 . S
C843 C844 1.400 . S
C843 C848 1.490 . S
C844 H834 0.930 . S
C844 C843 1.400 . S
C844 C847 1.386 . S
H845 C861 0.930 . S
H846 C862 0.931 . S
C847 H835 0.929 . S
C847 C841 1.390 . S
C847 C844 1.386 . S
C848 C843 1.490 . S
C848 C850 1.395 . S
C848 C851 1.403 . S
H849 C855 0.930 . S
C850 H836 0.930 . S
C850 C848 1.395 . S
C850 C853 1.403 . S
C851 C848 1.403 . S
C851 C852 1.524 1_545 S
C851 C855 1.400 1_545 S
C852 H837 0.960 . S
C852 H838 0.960 1_565 S
C852 H839 0.960 1_565 S
C852 C851 1.524 1_565 S
C853 C850 1.403 . S
C853 C854 1.392 1_545 S
C853 C857 1.495 . S
C854 C853 1.392 1_565 S
C854 C855 1.385 . S
C854 C856 1.478 . S
C855 H849 0.930 . S
C855 C851 1.400 1_565 S
C855 C854 1.385 . S
C856 C854 1.478 . S
C856 C858 1.381 . S
C856 C862 1.383 . S
C857 C853 1.495 . S
C857 H863 0.959 . S
C857 H864 0.961 . S
C857 H865 0.960 1_545 S
C858 C856 1.381 . S
C858 C859 1.394 . S
C858 H866 0.930 . S
C859 C858 1.394 . S
C859 C860 1.383 . S
C859 H867 0.929 . S
C860 C859 1.383 . S
C860 C861 1.377 . S
C861 H845 0.930 . S
C861 C860 1.377 . S
C861 C862 1.379 . S
C862 H846 0.931 . S
C862 C856 1.383 . S
C862 C861 1.379 . S
H863 C857 0.959 . S
H864 C857 0.961 . S
H865 C857 0.960 1_565 S
H866 C858 0.930 . S
H867 C859 0.929 . S
H868 C876 0.929 . S
H869 C878 0.930 . S
H870 C880 0.930 . S
H871 C883 0.929 . S
H872 C886 0.930 . S
H873 C888 0.960 . S
H874 C888 0.960 . S
H875 C888 0.960 . S
C876 H868 0.929 . S
C876 C877 1.377 . S
C876 C878 1.384 . S
C877 C876 1.377 . S
C877 C883 1.390 . S
C878 H869 0.930 . S
C878 C876 1.384 . S
C878 C879 1.372 . S
C879 C878 1.372 . S
C879 C880 1.400 . S
C879 C884 1.490 . S
C880 H870 0.930 . S
C880 C879 1.400 . S
C880 C883 1.386 . S
H881 C897 0.930 . S
H882 C898 0.931 . S
C883 H871 0.929 . S
C883 C877 1.390 . S
C883 C880 1.386 . S
C884 C879 1.490 . S
C884 C886 1.395 . S
C884 C887 1.403 . S
H885 C891 0.930 . S
C886 H872 0.930 . S
C886 C884 1.395 . S
C886 C889 1.403 . S
C887 C884 1.403 . S
C887 C888 1.524 . S
C887 C891 1.400 . S
C888 H873 0.960 . S
C888 H874 0.960 . S
C888 H875 0.960 . S
C888 C887 1.524 . S
C889 C886 1.403 . S
C889 C890 1.392 . S
C889 C893 1.495 . S
C890 C889 1.392 . S
C890 C891 1.385 . S
C890 C892 1.478 . S
C891 H885 0.930 . S
C891 C887 1.400 . S
C891 C890 1.385 . S
C892 C890 1.478 . S
C892 C894 1.381 . S
C892 C898 1.383 . S
C893 C889 1.495 . S
C893 H899 0.959 . S
C893 H900 0.961 . S
C893 H901 0.960 . S
C894 C892 1.381 . S
C894 C895 1.394 . S
C894 H902 0.930 . S
C895 C894 1.394 . S
C895 C896 1.383 . S
C895 H903 0.929 . S
C896 C895 1.383 . S
C896 C897 1.377 . S
C897 H881 0.930 . S
C897 C896 1.377 . S
C897 C898 1.379 . S
C898 H882 0.931 . S
C898 C892 1.383 . S
C898 C897 1.379 . S
H899 C893 0.959 . S
H900 C893 0.961 . S
H901 C893 0.960 . S
H902 C894 0.930 . S
H903 C895 0.929 . S
H904 C912 0.929 . S
H905 C914 0.930 . S
H906 C916 0.930 . S
H907 C919 0.929 . S
H908 C922 0.930 . S
H909 C924 0.960 . S
H910 C924 0.960 . S
H911 C924 0.960 . S
C912 H904 0.929 . S
C912 C913 1.377 . S
C912 C914 1.384 . S
C913 C912 1.377 . S
C913 C919 1.390 . S
C914 H905 0.930 . S
C914 C912 1.384 . S
C914 C915 1.372 . S
C915 C914 1.372 . S
C915 C916 1.400 . S
C915 C920 1.490 . S
C916 H906 0.930 . S
C916 C915 1.400 . S
C916 C919 1.386 . S
H917 C933 0.930 . S
H918 C934 0.931 . S
C919 H907 0.929 . S
C919 C913 1.390 . S
C919 C916 1.386 . S
C920 C915 1.490 . S
C920 C922 1.395 . S
C920 C923 1.403 . S
H921 C927 0.930 . S
C922 H908 0.930 . S
C922 C920 1.395 . S
C922 C925 1.403 . S
C923 C920 1.403 . S
C923 C924 1.524 . S
C923 C927 1.400 . S
C924 H909 0.960 . S
C924 H910 0.960 . S
C924 H911 0.960 . S
C924 C923 1.524 . S
C925 C922 1.403 . S
C925 C926 1.392 . S
C925 C929 1.495 . S
C926 C925 1.392 . S
C926 C927 1.385 . S
C926 C928 1.478 . S
C927 H921 0.930 . S
C927 C923 1.400 . S
C927 C926 1.385 . S
C928 C926 1.478 . S
C928 C930 1.381 . S
C928 C934 1.383 . S
C929 C925 1.495 . S
C929 H935 0.959 . S
C929 H936 0.961 . S
C929 H937 0.960 . S
C930 C928 1.381 . S
C930 C931 1.394 . S
C930 H938 0.930 . S
C931 C930 1.394 . S
C931 C932 1.383 . S
C931 H939 0.929 . S
C932 C931 1.383 . S
C932 C933 1.377 . S
C933 H917 0.930 . S
C933 C932 1.377 . S
C933 C934 1.379 . S
C934 H918 0.931 . S
C934 C928 1.383 . S
C934 C933 1.379 . S
H935 C929 0.959 . S
H936 C929 0.961 . S
H937 C929 0.960 . S
H938 C930 0.930 . S
H939 C931 0.929 . S
H940 C948 0.929 . S
H941 C950 0.930 . S
H942 C952 0.930 . S
H943 C955 0.929 . S
H944 C958 0.930 . S
H945 C960 0.960 . S
H946 C960 0.960 . S
H947 C960 0.957 1_455 S
C948 H940 0.929 . S
C948 C949 1.377 . S
C948 C950 1.384 . S
C949 C948 1.377 . S
C949 C955 1.390 . S
C950 H941 0.930 . S
C950 C948 1.384 . S
C950 C951 1.372 . S
C951 C950 1.372 . S
C951 C952 1.400 . S
C951 C956 1.490 . S
C952 H942 0.930 . S
C952 C951 1.400 . S
C952 C955 1.386 . S
H953 C969 0.930 . S
H954 C970 0.931 . S
C955 H943 0.929 . S
C955 C949 1.390 . S
C955 C952 1.386 . S
C956 C951 1.490 . S
C956 C958 1.395 . S
C956 C959 1.403 1_455 S
H957 C963 0.930 . S
C958 H944 0.930 . S
C958 C956 1.395 . S
C958 C961 1.403 . S
C959 C956 1.403 1_655 S
C959 C960 1.524 . S
C959 C963 1.400 . S
C960 H945 0.960 . S
C960 H946 0.960 . S
C960 H947 0.957 1_655 S
C960 C959 1.524 . S
C961 C958 1.403 . S
C961 C962 1.392 1_455 S
C961 C965 1.495 . S
C962 C961 1.392 1_655 S
C962 C963 1.385 . S
C962 C964 1.478 . S
C963 H957 0.930 . S
C963 C959 1.400 . S
C963 C962 1.385 . S
C964 C962 1.478 . S
C964 C966 1.381 . S
C964 C970 1.383 . S
C965 C961 1.495 . S
C965 H971 0.959 . S
C965 H972 0.951 1_455 S
C965 H973 0.960 1_455 S
C966 C964 1.381 . S
C966 C967 1.394 . S
C966 H974 0.930 . S
C967 C966 1.394 . S
C967 C968 1.383 . S
C967 H975 0.929 . S
C968 C967 1.383 . S
C968 C969 1.377 . S
C969 H953 0.930 . S
C969 C968 1.377 . S
C969 C970 1.379 . S
C970 H954 0.931 . S
C970 C964 1.383 . S
C970 C969 1.379 . S
H971 C965 0.959 . S
H972 C965 0.951 1_655 S
H973 C965 0.960 1_655 S
H974 C966 0.930 . S
H975 C967 0.929 . S
H976 C984 0.929 . S
H977 C986 0.930 . S
H978 C988 0.930 . S
H979 C991 0.929 . S
H980 C994 0.930 . S
H981 C996 0.960 . S
H982 C996 0.960 . S
H983 C996 0.960 . S
C984 H976 0.929 . S
C984 C985 1.377 . S
C984 C986 1.384 . S
C985 C984 1.377 . S
C985 C991 1.390 . S
C986 H977 0.930 . S
C986 C984 1.384 . S
C986 C987 1.372 . S
C987 C986 1.372 . S
C987 C988 1.400 . S
C987 C992 1.490 . S
C988 H978 0.930 . S
C988 C987 1.400 . S
C988 C991 1.386 . S
H989 C1005 0.930 . S
H990 C1006 0.931 . S
C991 H979 0.929 . S
C991 C985 1.390 . S
C991 C988 1.386 . S
C992 C987 1.490 . S
C992 C994 1.395 . S
C992 C995 1.403 . S
H993 C999 0.930 . S
C994 H980 0.930 . S
C994 C992 1.395 . S
C994 C997 1.403 . S
C995 C992 1.403 . S
C995 C996 1.524 . S
C995 C999 1.400 . S
C996 H981 0.960 . S
C996 H982 0.960 . S
C996 H983 0.960 . S
C996 C995 1.524 . S
C997 C994 1.403 . S
C997 C998 1.392 . S
C997 C1001 1.495 . S
C998 C997 1.392 . S
C998 C999 1.385 . S
C998 C1000 1.478 . S
C999 H993 0.930 . S
C999 C995 1.400 . S
C999 C998 1.385 . S
C1000 C998 1.478 . S
C1000 C1002 1.381 . S
C1000 C1006 1.383 . S
C1001 C997 1.495 . S
C1001 H1007 0.959 . S
C1001 H1008 0.961 . S
C1001 H1009 0.960 . S
C1002 C1000 1.381 . S
C1002 C1003 1.394 . S
C1002 H1010 0.930 . S
C1003 C1002 1.394 . S
C1003 C1004 1.383 . S
C1003 H1011 0.929 . S
C1004 C1003 1.383 . S
C1004 C1005 1.377 . S
C1005 H989 0.930 . S
C1005 C1004 1.377 . S
C1005 C1006 1.379 . S
C1006 H990 0.931 . S
C1006 C1000 1.383 . S
C1006 C1005 1.379 . S
H1007 C1001 0.959 . S
H1008 C1001 0.961 . S
H1009 C1001 0.960 . S
H1010 C1002 0.930 . S
H1011 C1003 0.929 . S
H1012 C1020 0.929 . S
H1013 C1022 0.930 . S
H1014 C1024 0.930 . S
H1015 C1027 0.929 . S
H1016 C1030 0.930 . S
H1017 C1032 0.960 . S
H1018 C1032 0.960 . S
H1019 C1032 0.960 1_655 S
C1020 H1012 0.929 . S
C1020 C1021 1.377 . S
C1020 C1022 1.384 . S
C1021 C1020 1.377 . S
C1021 C1027 1.390 . S
C1022 H1013 0.930 . S
C1022 C1020 1.384 . S
C1022 C1023 1.372 . S
C1023 C1022 1.372 . S
C1023 C1024 1.400 . S
C1023 C1028 1.490 . S
C1024 H1014 0.930 . S
C1024 C1023 1.400 . S
C1024 C1027 1.386 . S
H1025 C1041 0.930 . S
H1026 C1042 0.931 . S
C1027 H1015 0.929 . S
C1027 C1021 1.390 . S
C1027 C1024 1.386 . S
C1028 C1023 1.490 . S
C1028 C1030 1.395 . S
C1028 C1031 1.403 1_655 S
H1029 C1035 0.930 . S
C1030 H1016 0.930 . S
C1030 C1028 1.395 . S
C1030 C1033 1.404 1_655 S
C1031 C1028 1.403 1_455 S
C1031 C1032 1.524 . S
C1031 C1035 1.400 . S
C1032 H1017 0.960 . S
C1032 H1018 0.960 . S
C1032 H1019 0.960 1_455 S
C1032 C1031 1.524 . S
C1033 C1030 1.404 1_455 S
C1033 C1034 1.391 . S
C1033 C1037 1.495 1_455 S
C1034 C1033 1.391 . S
C1034 C1035 1.385 . S
C1034 C1036 1.478 . S
C1035 H1029 0.930 . S
C1035 C1031 1.400 . S
C1035 C1034 1.385 . S
C1036 C1034 1.478 . S
C1036 C1038 1.381 . S
C1036 C1042 1.383 . S
C1037 C1033 1.495 1_655 S
C1037 H1043 0.959 . S
C1037 H1044 0.961 1_655 S
C1037 H1045 0.960 1_655 S
C1038 C1036 1.381 . S
C1038 C1039 1.394 . S
C1038 H1046 0.930 . S
C1039 C1038 1.394 . S
C1039 C1040 1.383 . S
C1039 H1047 0.929 . S
C1040 C1039 1.383 . S
C1040 C1041 1.377 . S
C1041 H1025 0.930 . S
C1041 C1040 1.377 . S
C1041 C1042 1.379 . S
C1042 H1026 0.931 . S
C1042 C1036 1.383 . S
C1042 C1041 1.379 . S
H1043 C1037 0.959 . S
H1044 C1037 0.961 1_455 S
H1045 C1037 0.960 1_455 S
H1046 C1038 0.930 . S
H1047 C1039 0.929 . S
C193 C18 1.035 . S
C212 C181 1.028 . S
C229 C43 1.030 . S
C248 C110 1.045 . S
C265 C64 1.068 . S
C284 C133 1.056 . S
C301 C156 1.068 . S
C320 C87 1.070 . S
C337 C16 1.144 . S
C356 C41 1.165 . S
C373 C66 1.084 . S
C392 C40 1.105 . S
C409 C89 1.123 . S
C428 C62 1.102 . S
C445 C20 1.115 . S
C464 C85 1.110 . S
C481 C108 1.147 . S
C500 C179 1.159 . S
C517 C131 1.110 . S
C536 C112 1.116 . S
C553 C154 1.127 . S
C572 C135 1.135 . S
C589 C158 1.077 . S
C608 C178 1.088 . S
C625 C132 0.658 . S
C644 C17 0.673 . S
C661 C155 0.693 . S
C680 C39 0.746 . S
C697 C177 0.706 . S
C716 C63 0.693 . S
C733 C109 0.655 . S
C752 C86 0.688 . S
C769 C19 1.932 . S
C788 C159 1.942 . S
C805 C44 1.921 . S
C824 C180 1.897 . S
C841 C113 1.872 . S
C860 C65 1.840 . S
C877 C136 1.915 . S
C896 C88 1.902 . S
C913 C67 1.949 . S
C932 C111 1.916 . S
C949 C134 1.899 . S
C968 C90 1.915 . S
C985 C157 1.857 . S
C1004 C21 1.866 . S
C1021 C182 1.919 . S
C1040 C42 1.890 . S
