# Generated by pormake.
# Topology pts-e, (5)-cn, num edge types: 1
# Building blocks:
#     Node 0, Type 0, BuildingBlock: BEQFEK_clean_sbu_0, # of connection points: 5
#     Node 1, Type 0, BuildingBlock: BEQFEK_clean_sbu_0, # of connection points: 5
#     Node 2, Type 0, BuildingBlock: BEQFEK_clean_sbu_0, # of connection points: 5
#     Node 3, Type 0, BuildingBlock: BEQFEK_clean_sbu_0, # of connection points: 5
#     Node 4, Type 0, BuildingBlock: BEQFEK_clean_sbu_0, # of connection points: 5
#     Node 5, Type 0, BuildingBlock: BEQFEK_clean_sbu_0, # of connection points: 5
#     Node 6, Type 0, BuildingBlock: BEQFEK_clean_sbu_0, # of connection points: 5
#     Node 7, Type 0, BuildingBlock: BEQFEK_clean_sbu_0, # of connection points: 5
#     Edge 8, Type (0, 0), BuildingBlock: TEMPAE_clean_linker_10, # of connection points: 2
#     Edge 9, Type (0, 0), BuildingBlock: TEMPAE_clean_linker_10, # of connection points: 2
#     Edge 10, Type (0, 0), BuildingBlock: TEMPAE_clean_linker_10, # of connection points: 2
#     Edge 11, Type (0, 0), BuildingBlock: TEMPAE_clean_linker_10, # of connection points: 2
#     Edge 12, Type (0, 0), BuildingBlock: TEMPAE_clean_linker_10, # of connection points: 2
#     Edge 13, Type (0, 0), BuildingBlock: TEMPAE_clean_linker_10, # of connection points: 2
#     Edge 14, Type (0, 0), BuildingBlock: TEMPAE_clean_linker_10, # of connection points: 2
#     Edge 15, Type (0, 0), BuildingBlock: TEMPAE_clean_linker_10, # of connection points: 2
#     Edge 16, Type (0, 0), BuildingBlock: TEMPAE_clean_linker_10, # of connection points: 2
#     Edge 17, Type (0, 0), BuildingBlock: TEMPAE_clean_linker_10, # of connection points: 2
#     Edge 18, Type (0, 0), BuildingBlock: TEMPAE_clean_linker_10, # of connection points: 2
#     Edge 19, Type (0, 0), BuildingBlock: TEMPAE_clean_linker_10, # of connection points: 2
#     Edge 20, Type (0, 0), BuildingBlock: TEMPAE_clean_linker_10, # of connection points: 2
#     Edge 21, Type (0, 0), BuildingBlock: TEMPAE_clean_linker_10, # of connection points: 2
#     Edge 22, Type (0, 0), BuildingBlock: TEMPAE_clean_linker_10, # of connection points: 2
#     Edge 23, Type (0, 0), BuildingBlock: TEMPAE_clean_linker_10, # of connection points: 2
#     Edge 24, Type (0, 0), BuildingBlock: TEMPAE_clean_linker_10, # of connection points: 2
#     Edge 25, Type (0, 0), BuildingBlock: TEMPAE_clean_linker_10, # of connection points: 2
#     Edge 26, Type (0, 0), BuildingBlock: TEMPAE_clean_linker_10, # of connection points: 2
#     Edge 27, Type (0, 0), BuildingBlock: TEMPAE_clean_linker_10, # of connection points: 2
# Relax obj value: 0.378
# Max RMSD: 0.223
# Mean RMSD: 0.223
data_MOF--net-pts-e--node1-BEQFEK_clean_sbu_0--edge1-TEMPAE_clean_linker_10
_symmetry_space_group_name_H-M    P1
_symmetry_Int_Tables_number       1
_symmetry_cell_setting            triclinic
loop_
_symmetry_equiv_pos_as_xyz
'x, y, z'
_cell_length_a     36.180752
_cell_length_b     36.149678
_cell_length_c     51.810826
_cell_angle_alpha  89.997693
_cell_angle_beta   89.981244
_cell_angle_gamma 89.859073
loop_
_atom_site_label
_atom_site_type_symbol
_atom_site_fract_x
_atom_site_fract_y
_atom_site_fract_z
_atom_type_partial_charge
Co0 Co 0.19242 0.03371 0.14846 0.0
Co1 Co 0.26778 0.02844 0.17645 0.0
C2 C 0.21847 0.09172 0.18727 0.0
O3 O 0.19562 0.07736 0.17146 0.0
O4 O 0.25008 0.07686 0.19125 0.0
C5 C 0.13704 0.07046 0.1171 0.0
O6 O 0.1506 0.10214 0.12505 0.0
C7 C 0.34599 0.03111 0.19514 0.0
C8 C 0.35608 0.9709 0.19851 0.0
C9 C 0.37265 0.00498 0.20175 0.0
N10 N 0.31511 0.01299 0.18818 0.0
N11 N 0.32143 0.9771 0.19036 0.0
C12 C 0.34908 0.07232 0.19666 0.0
H13 H 0.3612 0.08303 0.1785 0.0
H14 H 0.36746 0.08042 0.21285 0.0
H15 H 0.32142 0.08507 0.19919 0.0
C16 C 0.23895 0.02711 0.10251 0.0
N17 N 0.23494 0.02785 0.12827 0.0
N18 N 0.26755 0.02843 0.13932 0.0
C19 C 0.2937 0.02921 0.12058 0.0
C20 C 0.27627 0.0289 0.09652 0.0
C21 C 0.20748 0.02305 0.08392 0.0
H22 H 0.18636 0.0042 0.09207 0.0
H23 H 0.19463 0.05051 0.08054 0.0
H24 H 0.21698 0.01166 0.06516 0.0
O25 O 0.18199 0.99031 0.17008 0.0
O26 O 0.23471 0.98942 0.19154 0.0
H27 H 0.34431 0.00703 0.13511 0.0
H28 H 0.35005 0.03771 0.10776 0.0
C29 C 0.33418 0.03272 0.12574 0.0
H30 H 0.33883 0.0559 0.13932 0.0
H31 H 0.30206 0.95669 0.18603 0.0
O32 O 0.15033 0.04022 0.12544 0.0
C33 C 0.20237 0.97678 0.18768 0.0
Co34 Co 0.97725 0.18754 0.64633 0.0
Co35 Co 0.99392 0.26132 0.67579 0.0
C36 C 0.9305 0.21708 0.69155 0.0
O37 O 0.94076 0.19415 0.67434 0.0
O38 O 0.94728 0.24778 0.69434 0.0
C39 C 0.94882 0.12275 0.61307 0.0
O40 O 0.9227 0.11374 0.59664 0.0
C41 C -0.00328 0.33835 0.69505 0.0
C42 C 0.05683 0.34872 0.69277 0.0
C43 C 0.02337 0.36558 0.69829 0.0
N44 N 0.01373 0.3071 0.68741 0.0
N45 N 0.04967 0.31339 0.68646 0.0
C46 C 0.95601 0.34146 0.69992 0.0
H47 H 0.94119 0.34492 0.68135 0.0
H48 H 0.94964 0.36542 0.71257 0.0
H49 H 0.94575 0.31582 0.70915 0.0
C50 C 0.98637 0.23605 0.60191 0.0
N51 N 0.98554 0.23126 0.6276 0.0
N52 N 0.98865 0.26337 0.63915 0.0
C53 C 0.99053 0.29012 0.62084 0.0
C54 C 0.98866 0.2736 0.59649 0.0
C55 C 0.98842 0.20473 0.58299 0.0
H56 H 0.00265 0.18069 0.59184 0.0
H57 H 0.96002 0.19627 0.57752 0.0
H58 H 0.00359 0.21295 0.56529 0.0
O59 O 0.02368 0.17006 0.66375 0.0
O60 O 0.03158 0.22275 0.68529 0.0
H61 H 0.02189 0.33712 0.63262 0.0
H62 H 0.98579 0.34759 0.60957 0.0
C63 C 0.99322 0.33054 0.6266 0.0
H64 H 0.97447 0.33763 0.64272 0.0
H65 H 0.06924 0.29381 0.68068 0.0
O66 O 0.94987 0.15564 0.62149 0.0
C67 C 0.04144 0.18955 0.68024 0.0
Co68 Co 0.82849 0.99489 0.15669 0.0
Co69 Co 0.75341 -8e-05 0.18517 0.0
C70 C 0.80499 0.93781 0.19647 0.0
O71 O 0.82722 0.95152 0.17997 0.0
O72 O 0.77346 0.95272 0.20067 0.0
C73 C 0.90135 0.97764 0.14088 0.0
O74 O 0.90371 0.96288 0.164 0.0
C75 C 0.67513 0.99281 0.20276 0.0
C76 C 0.66245 0.0521 0.20875 0.0
C77 C 0.64714 0.01715 0.20995 0.0
N78 N 0.70551 0.01276 0.19736 0.0
N79 N 0.69769 0.04808 0.20119 0.0
C80 C 0.67365 0.95144 0.2024 0.0
H81 H 0.70183 0.93954 0.20393 0.0
H82 H 0.66122 0.94184 0.18406 0.0
H83 H 0.65611 0.94122 0.21847 0.0
C84 C 0.7816 -0.00075 0.11099 0.0
N85 N 0.78566 -0.00105 0.13674 0.0
N86 N 0.7531 -0.00111 0.14792 0.0
C87 C 0.72687 -0.00178 0.12921 0.0
C88 C 0.74423 -0.00212 0.1051 0.0
C89 C 0.81319 0.00291 0.09243 0.0
H90 H 0.83298 0.02383 0.09972 0.0
H91 H 0.8278 0.97598 0.09086 0.0
H92 H 0.80377 0.01171 0.073 0.0
O93 O 0.8373 0.03908 0.17758 0.0
O94 O 0.78473 0.04123 0.19918 0.0
H95 H 0.67735 0.02006 0.14582 0.0
H96 H 0.67001 0.99403 0.11636 0.0
C97 C 0.68634 0.99566 0.13443 0.0
H98 H 0.68095 0.97062 0.14611 0.0
H99 H 0.71632 0.06963 0.19819 0.0
O100 O 0.87084 0.99119 0.13358 0.0
C101 C 0.8169 0.05387 0.19464 0.0
Co102 Co 0.05497 0.82839 0.66821 0.0
Co103 Co 0.0318 0.75115 0.68844 0.0
C104 C 0.10317 0.78661 0.70472 0.0
O105 O 0.09606 0.81357 0.68985 0.0
O106 O 0.08067 0.75962 0.70702 0.0
C107 C 0.07936 0.90018 0.6681 0.0
O108 O 0.08379 0.89138 0.69252 0.0
C109 C 0.03084 0.66983 0.69512 0.0
C110 C 0.97276 0.66146 0.70704 0.0
C111 C 0.00547 0.6428 0.70214 0.0
N112 N 0.01366 0.70286 0.69571 0.0
N113 N 0.97901 0.69759 0.70286 0.0
C114 C 0.07109 0.66485 0.68939 0.0
H115 H 0.08624 0.69112 0.69227 0.0
H116 H 0.0746 0.65638 0.66897 0.0
H117 H 0.08305 0.64286 0.70182 0.0
C118 C 0.04555 0.79304 0.61768 0.0
N119 N 0.04486 0.79188 0.64359 0.0
N120 N 0.03458 0.75885 0.6514 0.0
C121 C 0.02749 0.73797 0.63024 0.0
C122 C 0.03422 0.75901 0.60813 0.0
C123 C 0.05871 0.82579 0.60257 0.0
H124 H 0.08368 0.83753 0.61184 0.0
H125 H 0.06554 0.81834 0.58235 0.0
H126 H 0.03687 0.8474 0.60262 0.0
O127 O 0.01134 0.83997 0.68995 0.0
O128 O 0.99454 0.78505 0.70446 0.0
H129 H 0.99129 0.69735 0.64663 0.0
H130 H -0.00068 0.69195 0.61238 0.0
C131 C 0.01218 0.6996 0.63107 0.0
H132 H 0.03489 0.67985 0.63522 0.0
H133 H 0.95951 0.71873 0.70489 0.0
O134 O 0.06847 0.87552 0.65242 0.0
C135 C 0.98997 0.81994 0.7035 0.0
Co136 Co 0.19395 0.01305 0.85647 0.0
Co137 Co 0.26958 0.01726 0.82842 0.0
C138 C 0.22329 0.95033 0.82325 0.0
O139 O 0.1989 0.96604 0.83723 0.0
O140 O 0.25418 0.96588 0.81844 0.0
C141 C 0.13382 0.98068 0.88525 0.0
O142 O 0.14261 0.94914 0.87425 0.0
C143 C 0.34789 0.00805 0.81226 0.0
C144 C 0.36299 0.06668 0.80628 0.0
C145 C 0.37726 0.03114 0.80603 0.0
N146 N 0.31785 0.02923 0.81643 0.0
N147 N 0.32704 0.06415 0.81251 0.0
C148 C 0.34784 0.96663 0.81301 0.0
H149 H 0.35007 0.95704 0.83326 0.0
H150 H 0.3713 0.95508 0.80178 0.0
H151 H 0.32157 0.95593 0.805 0.0
C152 C 0.23959 0.02638 0.90199 0.0
N153 N 0.23593 0.0234 0.87628 0.0
N154 N 0.26868 0.02317 0.86539 0.0
C155 C 0.2946 0.02499 0.88426 0.0
C156 C 0.27686 0.02657 0.90819 0.0
C157 C 0.20769 0.02935 0.92034 0.0
H158 H 0.18639 0.04813 0.91221 0.0
H159 H 0.19525 0.0016 0.92308 0.0
H160 H 0.21644 0.04034 0.93937 0.0
O161 O 0.18293 0.05185 0.83131 0.0
O162 O 0.23541 0.05275 0.80939 0.0
H163 H 0.34442 0.04509 0.86719 0.0
H164 H 0.3512 0.02201 0.89785 0.0
C165 C 0.33526 0.02183 0.87958 0.0
H166 H 0.34105 0.99574 0.86914 0.0
H167 H 0.30889 0.08639 0.81475 0.0
O168 O 0.15147 0.00985 0.87965 0.0
C169 C 0.20215 0.06379 0.81258 0.0
Co170 Co 0.01864 0.20141 0.35752 0.0
Co171 Co 0.00823 0.2762 0.32949 0.0
C172 C 0.0733 0.22919 0.3174 0.0
O173 O 0.06111 0.2059 0.33376 0.0
O174 O 0.05649 0.25986 0.31354 0.0
C175 C 0.05786 0.14517 0.38649 0.0
O176 O 0.08846 0.15691 0.37564 0.0
C177 C 0.01226 0.35472 0.31362 0.0
C178 C 0.9526 0.36822 0.31267 0.0
C179 C 0.98739 0.38357 0.31008 0.0
N180 N 0.99288 0.32377 0.31829 0.0
N181 N 0.95729 0.33194 0.3172 0.0
C182 C 0.05345 0.3572 0.31531 0.0
H183 H 0.065 0.33262 0.32532 0.0
H184 H 0.0617 0.38282 0.32561 0.0
H185 H 0.06508 0.35839 0.29551 0.0
C186 C 0.01098 0.24736 0.40347 0.0
N187 N 0.01185 0.24363 0.3777 0.0
N188 N 0.00995 0.27628 0.36672 0.0
C189 C 0.009 0.30232 0.38559 0.0
C190 C 0.01015 0.28468 0.40958 0.0
C191 C 0.00832 0.21546 0.42186 0.0
H192 H 0.99005 0.19384 0.4137 0.0
H193 H 0.03624 0.20346 0.42487 0.0
H194 H -0.00316 0.22411 0.44078 0.0
O195 O 0.97485 0.18979 0.33703 0.0
O196 O 0.96881 0.24229 0.31552 0.0
H197 H 0.98316 0.35092 0.3705 0.0
H198 H 0.01113 0.35912 0.3989 0.0
C199 C 0.00895 0.34308 0.38072 0.0
H200 H 0.03261 0.35021 0.36812 0.0
H201 H 0.93618 0.31302 0.32079 0.0
O202 O 0.02706 0.1596 0.38053 0.0
C203 C 0.95852 0.20921 0.32007 0.0
Co204 Co 0.83197 0.01824 0.86643 0.0
Co205 Co 0.75772 0.00855 0.83737 0.0
C206 C 0.80405 0.07506 0.82799 0.0
O207 O 0.8275 0.06242 0.84409 0.0
O208 O 0.77393 0.05785 0.8235 0.0
C209 C 0.88749 0.0559 0.89651 0.0
O210 O 0.87431 0.0869 0.88697 0.0
C211 C 0.68007 0.0152 0.81916 0.0
C212 C 0.6658 0.95597 0.81558 0.0
C213 C 0.6513 0.99126 0.8132 0.0
N214 N 0.71001 0.9948 0.82519 0.0
N215 N 0.70131 0.95949 0.82275 0.0
C216 C 0.6797 0.0566 0.81805 0.0
H217 H 0.70652 0.06693 0.81073 0.0
H218 H 0.67552 0.06795 0.83771 0.0
H219 H 0.65718 0.06679 0.80534 0.0
C220 C 0.78507 0.00832 0.91175 0.0
N221 N 0.78947 0.00984 0.88604 0.0
N222 N 0.75715 0.00789 0.87463 0.0
C223 C 0.73067 0.00621 0.89313 0.0
C224 C 0.74761 0.00693 0.91738 0.0
C225 C 0.81653 0.00614 0.93052 0.0
H226 H 0.83866 0.98814 0.92263 0.0
H227 H 0.82799 0.03423 0.9336 0.0
H228 H 0.80761 0.99462 0.94936 0.0
O229 O 0.84432 0.97605 0.84436 0.0
O230 O 0.79254 0.97048 0.822 0.0
H231 H 0.68256 0.98 0.87791 0.0
H232 H 0.67352 0.00938 0.90553 0.0
C233 C 0.6901 0.00624 0.88766 0.0
H234 H 0.68343 0.02926 0.87436 0.0
H235 H 0.71951 0.93769 0.82651 0.0
O236 O 0.87372 0.02518 0.88974 0.0
C237 C 0.8258 0.96062 0.82656 0.0
Co238 Co 0.01226 0.83846 0.36421 0.0
Co239 Co 0.02297 0.76281 0.33731 0.0
C240 C 0.95529 0.80823 0.32723 0.0
O241 O 0.96766 0.83254 0.34278 0.0
O242 O 0.97299 0.77806 0.32327 0.0
C243 C 0.97827 0.90047 0.39042 0.0
O244 O 0.94745 0.8919 0.37847 0.0
C245 C 0.01743 0.68415 0.32252 0.0
C246 C 0.07663 0.67069 0.31718 0.0
C247 C 0.04161 0.65544 0.31682 0.0
N248 N 0.03738 0.71499 0.32611 0.0
N249 N 0.07266 0.70684 0.32255 0.0
C250 C 0.97665 0.68175 0.32694 0.0
H251 H 0.96707 0.70509 0.33917 0.0
H252 H 0.96943 0.65501 0.33617 0.0
H253 H 0.96225 0.68332 0.30806 0.0
C254 C 0.02367 0.7942 0.41092 0.0
N255 N 0.02108 0.79715 0.38511 0.0
N256 N 0.02514 0.76442 0.37448 0.0
C257 C 0.03038 0.73927 0.39357 0.0
C258 C 0.02986 0.75753 0.41727 0.0
C259 C 0.01851 0.82588 0.42923 0.0
H260 H 0.04034 0.84678 0.42574 0.0
H261 H 0.99129 0.83904 0.42561 0.0
H262 H 0.01952 0.81702 0.44971 0.0
O263 O 0.05381 0.84963 0.34088 0.0
O264 O 0.0601 0.7962 0.32063 0.0
H265 H 0.06079 0.6948 0.37651 0.0
H266 H 0.04111 0.68398 0.40773 0.0
C267 C 0.03649 0.69883 0.38926 0.0
H268 H 0.01204 0.68699 0.37939 0.0
H269 H 0.09417 0.72577 0.32467 0.0
O270 O 0.00729 0.88164 0.38646 0.0
C271 C 0.06937 0.82986 0.32373 0.0
C272 C 0.31934 0.01013 0.06046 0.0
C273 C 0.29174 0.03361 0.07012 0.0
C274 C 0.32784 0.00973 0.03387 0.0
C275 C 0.3072 0.03225 0.01663 0.0
C276 C 0.28138 0.05795 0.02675 0.0
C277 C 0.27474 0.0589 0.05338 0.0
C278 C 0.35718 0.98352 0.02415 0.0
C279 C 0.25811 0.08211 1.00931 0.0
C280 C 0.31836 0.04784 0.94439 0.0
C281 C 0.29222 0.02291 0.9347 0.0
C282 C 0.32675 0.04869 0.97099 0.0
C283 C 0.30743 0.0251 0.98821 0.0
C284 C 0.28313 -0.00192 0.97807 0.0
C285 C 0.2766 -0.0032 0.95144 0.0
C286 C 0.35452 0.0764 0.98073 0.0
C287 C 0.26129 0.9727 0.99549 0.0
H288 H 0.33283 0.99072 0.07334 0.0
H289 H 0.25413 0.07782 0.06095 0.0
H290 H 0.34411 0.95725 0.01798 0.0
H291 H 0.37198 0.99532 1.00729 0.0
H292 H 0.37758 0.97693 0.03951 0.0
H293 H 0.24005 0.10135 0.02033 0.0
H294 H 0.27599 0.09863 0.99636 0.0
H295 H 0.24033 0.06446 0.99695 0.0
H296 H 0.33077 0.06791 0.93151 0.0
H297 H 0.25711 0.97684 0.94384 0.0
H298 H 0.37008 0.0653 0.9975 0.0
H299 H 0.33994 0.10185 0.98705 0.0
H300 H 0.37443 0.08423 0.96535 0.0
H301 H 0.2801 0.95715 1.00843 0.0
H302 H 0.24439 0.95253 0.98447 0.0
H303 H 0.24251 0.98936 1.00787 0.0
C304 C 0.98642 0.32549 0.44548 0.0
C305 C 0.01249 0.30008 0.43613 0.0
C306 C 0.98362 0.33277 0.47216 0.0
C307 C 0.00604 0.31267 0.48976 0.0
C308 C 0.03441 0.28944 0.48006 0.0
C309 C 0.03796 0.28446 0.45337 0.0
C310 C 0.95508 0.36016 0.48143 0.0
C311 C 0.05875 0.2669 0.49783 0.0
C312 C 0.01366 0.31777 0.56293 0.0
C313 C 0.98824 0.29048 0.57026 0.0
C314 C 0.01707 0.32855 0.53688 0.0
C315 C 0.99604 0.31012 0.51769 0.0
C316 C 0.96876 0.2843 0.52535 0.0
C317 C 0.9644 0.2759 0.55156 0.0
C318 C 0.04461 0.35819 0.53001 0.0
C319 C 0.94616 0.2631 0.5058 0.0
H320 H 0.96686 0.33803 0.43225 0.0
H321 H 0.05889 0.26567 0.44605 0.0
H322 H 0.92832 0.34588 0.48434 0.0
H323 H 0.96337 0.37306 0.49999 0.0
H324 H 0.95061 0.3823 0.46688 0.0
H325 H 0.07897 0.24956 0.4871 0.0
H326 H 0.07425 0.28541 0.51095 0.0
H327 H 0.04145 0.24846 0.50996 0.0
H328 H 0.03207 0.32948 0.57723 0.0
H329 H 0.94366 0.25594 0.55728 0.0
H330 H 0.03758 0.37207 0.51153 0.0
H331 H 0.07252 0.34571 0.52821 0.0
H332 H 0.046 0.37938 0.54551 0.0
H333 H 0.92937 0.28246 0.49407 0.0
H334 H 0.92722 0.24285 0.515 0.0
H335 H 0.96476 0.24788 0.49243 0.0
C336 C 0.7016 0.01805 0.06916 0.0
C337 C 0.72858 0.99375 0.07871 0.0
C338 C 0.69328 0.01908 0.04257 0.0
C339 C 0.71371 0.99662 0.02518 0.0
C340 C 0.73879 0.97007 0.03515 0.0
C341 C 0.74502 0.96831 0.06181 0.0
C342 C 0.66435 0.04588 0.03305 0.0
C343 C 0.76184 0.94591 0.01757 0.0
C344 C 0.70495 0.98396 0.95249 0.0
C345 C 0.73126 0.00942 0.94369 0.0
C346 C 0.69563 0.98205 0.97891 0.0
C347 C 0.7144 0.00489 0.99691 0.0
C348 C 0.73893 0.03238 0.98769 0.0
C349 C 0.74608 0.03497 0.96118 0.0
C350 C 0.66737 0.95408 0.98755 0.0
C351 C 0.76036 0.05691 1.00593 0.0
H352 H 0.68853 0.03763 0.08214 0.0
H353 H 0.76517 0.94881 0.06928 0.0
H354 H 0.67759 0.07256 0.02805 0.0
H355 H 0.65024 0.03519 0.01555 0.0
H356 H 0.64332 0.05143 0.0482 0.0
H357 H 0.77989 0.92651 0.02846 0.0
H358 H 0.74375 0.92951 1.00469 0.0
H359 H 0.7796 0.9635 1.00515 0.0
H360 H 0.6931 0.9643 0.93907 0.0
H361 H 0.76555 0.05547 0.95429 0.0
H362 H 0.65277 0.96332 1.00527 0.0
H363 H 0.68132 0.92741 0.99176 0.0
H364 H 0.64666 0.94898 0.97213 0.0
H365 H 0.74116 0.07284 0.01836 0.0
H366 H 0.77849 0.07675 0.99558 0.0
H367 H 0.77789 0.03963 0.01878 0.0
C368 C 0.06379 0.75646 0.45889 0.0
C369 C 0.0347 0.743 0.4438 0.0
C370 C 0.06387 0.75194 0.4858 0.0
C371 C 0.03409 0.73336 0.49793 0.0
C372 C 0.00626 0.71691 0.48245 0.0
C373 C 0.00682 0.72207 0.45548 0.0
C374 C 0.09414 0.76996 0.50138 0.0
C375 C 0.97435 0.69642 0.49449 0.0
C376 C 0.04652 0.71712 0.57026 0.0
C377 C 0.02967 0.74886 0.58049 0.0
C378 C 0.04655 0.71043 0.54344 0.0
C379 C 0.02955 0.73625 0.52656 0.0
C380 C 0.01084 0.76727 0.53707 0.0
C381 C 0.01092 0.77299 0.56386 0.0
C382 C 0.0663 0.67675 0.53311 0.0
C383 C 0.99233 0.7956 0.51992 0.0
H384 H 0.08521 0.77285 0.44978 0.0
H385 H 0.98416 0.71193 0.44379 0.0
H386 H 0.08268 0.79418 0.51187 0.0
H387 H 0.10517 0.75045 0.51601 0.0
H388 H 0.11733 0.77956 0.48905 0.0
H389 H 0.95908 0.67968 0.48004 0.0
H390 H 0.98415 0.67795 0.51018 0.0
H391 H 0.95483 0.71662 0.50317 0.0
H392 H 0.06107 0.6984 0.58309 0.0
H393 H -0.00267 0.79722 0.57179 0.0
H394 H 0.09235 0.68535 0.52356 0.0
H395 H 0.04914 0.66263 0.51837 0.0
H396 H 0.07318 0.65671 0.54865 0.0
H397 H 0.01344 0.8096 0.50785 0.0
H398 H 0.9772 0.81698 0.53117 0.0
H399 H 0.9726 0.7819 0.50665 0.0
C400 C 0.11712 0.18058 0.30181 0.0
C401 C 0.10456 0.21737 0.3005 0.0
C402 C 0.14131 0.16602 0.28327 0.0
C403 C 0.15442 0.18898 0.26313 0.0
C404 C 0.1446 0.227 0.26297 0.0
C405 C 0.11932 0.24067 0.28143 0.0
C406 C 0.15043 0.1252 0.28416 0.0
C407 C 0.15918 0.25283 0.24252 0.0
C408 C 0.22711 0.13851 0.22312 0.0
C409 C 0.20511 0.12299 0.20361 0.0
C410 C 0.21183 0.1631 0.24142 0.0
C411 C 0.17351 0.17147 0.24061 0.0
C412 C 0.15191 0.15792 0.21991 0.0
C413 C 0.16805 0.13441 0.20156 0.0
C414 C 0.23623 0.17829 0.26248 0.0
C415 C 0.11088 0.16555 0.2183 0.0
H416 H 0.10632 0.16223 0.31652 0.0
H417 H 0.11024 0.26923 0.28037 0.0
H418 H 0.13826 0.11121 0.26709 0.0
H419 H 0.18074 0.1209 0.28336 0.0
H420 H 0.13966 0.1116 0.30185 0.0
H421 H 0.15668 0.28223 0.24853 0.0
H422 H 0.18859 0.24669 0.23813 0.0
H423 H 0.14315 0.24911 0.22447 0.0
H424 H 0.25587 0.13036 0.22475 0.0
H425 H 0.15071 0.12312 0.18644 0.0
H426 H 0.23225 0.16192 0.28036 0.0
H427 H 0.22891 0.20745 0.26688 0.0
H428 H 0.26592 0.17683 0.25708 0.0
H429 H 0.09665 0.15211 0.23479 0.0
H430 H 0.09852 0.15503 0.20011 0.0
H431 H 0.10537 0.19566 0.21962 0.0
C432 C 0.79081 0.12288 0.79361 0.0
C433 C 0.81509 0.10715 0.8117 0.0
C434 C 0.8036 0.14838 0.77507 0.0
C435 C 0.84169 0.15742 0.77412 0.0
C436 C 0.86564 0.14372 0.79352 0.0
C437 C 0.85196 0.11927 0.81221 0.0
C438 C 0.77679 0.16376 0.75551 0.0
C439 C 0.90654 0.15208 0.7932 0.0
C440 C 0.89029 0.16766 0.70989 0.0
C441 C 0.90206 0.20468 0.71045 0.0
C442 C 0.86902 0.15261 0.72986 0.0
C443 C 0.85801 0.1753 0.75076 0.0
C444 C 0.867 0.21348 0.75044 0.0
C445 C 0.88945 0.22765 0.73048 0.0
C446 C 0.86075 0.11162 0.72944 0.0
C447 C 0.85454 0.23901 0.77178 0.0
H448 H 0.76215 0.11421 0.79325 0.0
H449 H 0.87103 0.10771 0.8262 0.0
H450 H 0.78282 0.19328 0.75142 0.0
H451 H 0.77955 0.14827 0.73713 0.0
H452 H 0.74773 0.1613 0.76222 0.0
H453 H 0.92086 0.14169 0.81074 0.0
H454 H 0.91942 0.13894 0.77604 0.0
H455 H 0.91125 0.18229 0.79171 0.0
H456 H 0.8995 0.14954 0.69449 0.0
H457 H 0.89799 0.25636 0.73102 0.0
H458 H 0.83068 0.10682 0.73168 0.0
H459 H 0.87485 0.09788 0.74589 0.0
H460 H 0.87004 0.09814 0.71129 0.0
H461 H 0.82616 0.23205 0.77827 0.0
H462 H 0.85513 0.26841 0.76555 0.0
H463 H 0.87328 0.23595 0.78858 0.0
C464 C 0.7975 0.89226 0.23325 0.0
C465 C 0.81905 0.90741 0.21334 0.0
C466 C 0.81336 0.86859 0.2519 0.0
C467 C 0.8518 0.86085 0.25105 0.0
C468 C 0.87298 0.87403 0.23001 0.0
C469 C 0.85626 0.89653 0.21131 0.0
C470 C 0.78939 0.85368 0.2733 0.0
C471 C 0.91413 0.86708 0.22833 0.0
C472 C 0.90929 0.85495 0.3119 0.0
C473 C 0.92286 0.8185 0.31093 0.0
C474 C 0.88431 0.86832 0.29344 0.0
C475 C 0.87142 0.84445 0.27376 0.0
C476 C 0.88213 0.80667 0.27408 0.0
C477 C 0.9082 0.79422 0.29242 0.0
C478 C 0.87428 0.90894 0.29378 0.0
C479 C 0.86776 0.77985 0.25421 0.0
H480 H 0.76862 0.89998 0.23489 0.0
H481 H 0.87325 0.90749 0.1959 0.0
H482 H 0.7974 0.82489 0.27827 0.0
H483 H 0.793 0.87088 0.29084 0.0
H484 H 0.75966 0.85422 0.26794 0.0
H485 H 0.92621 0.87746 0.21 0.0
H486 H 0.92823 0.88108 0.24465 0.0
H487 H 0.92016 0.8371 0.22992 0.0
H488 H 0.91999 0.87404 0.32617 0.0
H489 H 0.91805 0.7659 0.29162 0.0
H490 H 0.84387 0.91255 0.29311 0.0
H491 H 0.88595 0.92268 0.27645 0.0
H492 H 0.88493 0.92331 0.31121 0.0
H493 H 0.83824 0.7854 0.2498 0.0
H494 H 0.87072 0.75074 0.26079 0.0
H495 H 0.88364 0.78304 0.23604 0.0
C496 C 0.17613 0.91366 0.80012 0.0
C497 C 0.21245 0.91635 0.80928 0.0
C498 C 0.16499 0.88403 0.78463 0.0
C499 C 0.19041 0.85527 0.7789 0.0
C500 C 0.22664 0.85669 0.78932 0.0
C501 C 0.23757 0.88775 0.80394 0.0
C502 C 0.12643 0.88462 0.77334 0.0
C503 C 0.25377 0.82558 0.78486 0.0
C504 C 0.13334 0.78019 0.74812 0.0
C505 C 0.13514 0.7915 0.72227 0.0
C506 C 0.1557 0.79724 0.76694 0.0
C507 C 0.17947 0.82662 0.75965 0.0
C508 C 0.18497 0.83419 0.73312 0.0
C509 C 0.16315 0.81606 0.71477 0.0
C510 C 0.15057 0.78684 0.79488 0.0
C511 C 0.20956 0.8654 0.72418 0.0
H512 H 0.1567 0.93586 0.80404 0.0
H513 H 0.26556 0.88962 0.81127 0.0
H514 H 0.12793 0.88436 0.75194 0.0
H515 H 0.11101 0.85964 0.77942 0.0
H516 H 0.11038 0.90939 0.7794 0.0
H517 H 0.28044 0.8303 0.79494 0.0
H518 H 0.24174 0.79918 0.7918 0.0
H519 H 0.25928 0.82221 0.76395 0.0
H520 H 0.11209 0.76089 0.75407 0.0
H521 H 0.16521 0.8243 0.69468 0.0
H522 H 0.12991 0.80559 0.80383 0.0
H523 H 0.17683 0.78964 0.80576 0.0
H524 H 0.14033 0.75803 0.79682 0.0
H525 H 0.19545 0.89217 0.72795 0.0
H526 H 0.21561 0.86361 0.70319 0.0
H527 H 0.23606 0.8656 0.73487 0.0
C528 C 0.95721 0.87659 0.71988 0.0
C529 C 0.96091 0.8379 0.71961 0.0
C530 C 0.93222 0.89429 0.73661 0.0
C531 C 0.91021 0.87288 0.75356 0.0
C532 C 0.91278 0.83379 0.75276 0.0
C533 C 0.93809 0.81678 0.73584 0.0
C534 C 0.9304 0.93604 0.73677 0.0
C535 C 0.88973 0.80995 0.77042 0.0
C536 C 0.88108 0.92205 0.81518 0.0
C537 C 0.84504 0.93385 0.80927 0.0
C538 C 0.90201 0.90117 0.79758 0.0
C539 C 0.88665 0.89164 0.77336 0.0
C540 C 0.84971 0.90197 0.76767 0.0
C541 C 0.82933 0.92291 0.78569 0.0
C542 C 0.9412 0.89064 0.80454 0.0
C543 C 0.83226 0.89225 0.74211 0.0
H544 H 0.97454 0.89327 0.70742 0.0
H545 H 0.94056 0.78689 0.73578 0.0
H546 H 0.90141 0.94548 0.73432 0.0
H547 H 0.9402 0.94661 0.75567 0.0
H548 H 0.94754 0.94857 0.72129 0.0
H549 H 0.89261 0.78003 0.76593 0.0
H550 H 0.89828 0.81451 0.79073 0.0
H551 H 0.86014 0.81776 0.76895 0.0
H552 H 0.89353 0.9301 0.83336 0.0
H553 H 0.80158 0.9319 0.78086 0.0
H554 H 0.96077 0.90474 0.79133 0.0
H555 H 0.94535 0.86042 0.80214 0.0
H556 H 0.94833 0.89828 0.8247 0.0
H557 H 0.84643 0.9075 0.72639 0.0
H558 H 0.80236 0.89926 0.74155 0.0
H559 H 0.83562 0.86229 0.73807 0.0
C560 C 0.20865 0.9337 0.22555 0.0
C561 C 0.18682 0.94883 0.20575 0.0
C562 C 0.19306 0.91108 0.24477 0.0
C563 C 0.15467 0.90357 0.24431 0.0
C564 C 0.13281 0.91741 0.22376 0.0
C565 C 0.14914 0.9397 0.20472 0.0
C566 C 0.2174 0.8965 0.26614 0.0
C567 C 0.09176 0.91013 0.22252 0.0
C568 C 0.11078 0.82728 0.28472 0.0
C569 C 0.09546 0.84754 0.30526 0.0
C570 C 0.13138 0.84486 0.26522 0.0
C571 C 0.13667 0.88365 0.2662 0.0
C572 C 0.12266 0.90396 0.28745 0.0
C573 C 0.10239 0.88569 0.30671 0.0
C574 C 0.14621 0.82215 0.24306 0.0
C575 C 0.12767 0.94535 0.28929 0.0
H576 H 0.23781 0.94038 0.22651 0.0
H577 H 0.13196 0.95115 0.18955 0.0
H578 H 0.20991 0.91019 0.28459 0.0
H579 H 0.21306 0.86637 0.26876 0.0
H580 H 0.24719 0.90152 0.26231 0.0
H581 H 0.07909 0.92091 0.20448 0.0
H582 H 0.08629 0.88001 0.2238 0.0
H583 H 0.07787 0.92345 0.23922 0.0
H584 H 0.10575 0.7978 0.28339 0.0
H585 H 0.09083 0.90169 0.32247 0.0
H586 H 0.17589 0.82825 0.23986 0.0
H587 H 0.13129 0.82959 0.22508 0.0
H588 H 0.143 0.79197 0.24641 0.0
H589 H 0.15735 0.95257 0.28755 0.0
H590 H 0.11696 0.95678 0.30775 0.0
H591 H 0.11294 0.95906 0.27311 0.0
C592 C 0.0925 0.19578 0.71275 0.0
C593 C 0.07217 0.17319 0.69581 0.0
C594 C 0.11784 0.18068 0.73044 0.0
C595 C 0.12347 0.14197 0.7312 0.0
C596 C 0.10503 0.11923 0.71303 0.0
C597 C 0.07928 0.135 0.69579 0.0
C598 C 0.13704 0.20604 0.74928 0.0
C599 C 0.11075 0.07788 0.71288 0.0
C600 C 0.20223 0.09864 0.77025 0.0
C601 C 0.18375 0.08759 0.79282 0.0
C602 C 0.18334 0.1173 0.75027 0.0
C603 C 0.14504 0.12487 0.75281 0.0
C604 C 0.12658 0.11477 0.77585 0.0
C605 C 0.14611 0.09653 0.79552 0.0
C606 C 0.20404 0.12769 0.72606 0.0
C607 C 0.08577 0.12209 0.77941 0.0
H608 H 0.08764 0.22538 0.71293 0.0
H609 H 0.06362 0.1172 0.6831 0.0
H610 H 0.12573 0.20149 0.76893 0.0
H611 H 0.16705 0.19979 0.75003 0.0
H612 H 0.13329 0.23568 0.74421 0.0
H613 H 0.10314 0.0656 0.69404 0.0
H614 H 0.13988 0.07042 0.71705 0.0
H615 H 0.09326 0.06528 0.72811 0.0
H616 H 0.23122 0.09188 0.76787 0.0
H617 H 0.13138 0.08825 0.81279 0.0
H618 H 0.1995 0.15733 0.72146 0.0
H619 H 0.19333 0.11137 0.70955 0.0
H620 H 0.23422 0.12255 0.72782 0.0
H621 H 0.0797 0.15191 0.77656 0.0
H622 H 0.0758 0.11383 0.79886 0.0
H623 H 0.06982 0.10653 0.76471 0.0
C624 C 0.86978 0.09359 0.2087 0.0
C625 C 0.83244 0.08367 0.21116 0.0
C626 C 0.88656 0.11776 0.22631 0.0
C627 C 0.86549 0.13282 0.24683 0.0
C628 C 0.82729 0.12469 0.24858 0.0
C629 C 0.81124 0.10006 0.23081 0.0
C630 C 0.92741 0.12554 0.22374 0.0
C631 C 0.80376 0.14066 0.26992 0.0
C632 C 0.9222 0.15364 0.30661 0.0
C633 C 0.93005 0.19141 0.30353 0.0
C634 C 0.89985 0.13469 0.28891 0.0
C635 C 0.8845 0.15397 0.26766 0.0
C636 C 0.89036 0.19255 0.26528 0.0
C637 C 0.91322 0.21081 0.28317 0.0
C638 C 0.89444 0.09352 0.29218 0.0
C639 C 0.87397 0.21421 0.24315 0.0
H640 H 0.88646 0.08128 0.19357 0.0
H641 H 0.78233 0.09281 0.23282 0.0
H642 H 0.93252 0.15578 0.22393 0.0
H643 H 0.94237 0.11346 0.24044 0.0
H644 H 0.93929 0.11379 0.20573 0.0
H645 H 0.77382 0.13576 0.26663 0.0
H646 H 0.81161 0.12779 0.28857 0.0
H647 H 0.80849 0.17086 0.27174 0.0
H648 H 0.93481 0.13831 0.3223 0.0
H649 H 0.91887 0.24002 0.28067 0.0
H650 H 0.90812 0.07862 0.27605 0.0
H651 H 0.86462 0.08657 0.29149 0.0
H652 H 0.90607 0.08312 0.31066 0.0
H653 H 0.88815 0.20645 0.22495 0.0
H654 H 0.87682 0.24454 0.24595 0.0
H655 H 0.84425 0.20749 0.24079 0.0
C656 C 0.07174 0.08916 0.11317 0.0
C657 C 0.10153 0.0686 0.10369 0.0
C658 C 0.03563 0.0761 0.10996 0.0
C659 C 0.02996 0.04221 0.0968 0.0
C660 C 0.05928 0.02587 0.08287 0.0
C661 C 0.09514 0.03906 0.08677 0.0
C662 C 0.00462 0.0952 0.12421 0.0
C663 C 0.05379 0.99116 0.0672 0.0
C664 C 0.96968 0.98041 0.13721 0.0
C665 C 0.93499 0.9866 0.12615 0.0
C666 C 0.00131 0.99659 0.12669 0.0
C667 C -0.00193 0.0191 0.10435 0.0
C668 C 0.96375 0.02223 0.09156 0.0
C669 C 0.93244 0.00603 0.10271 0.0
C670 C 0.03769 0.99179 0.1407 0.0
C671 C 0.95925 0.04473 0.06722 0.0
H672 H 0.07681 0.11235 0.12596 0.0
H673 H 0.1184 0.02379 0.0789 0.0
H674 H 0.97912 0.09569 0.11235 0.0
H675 H -0.00154 0.07972 0.14221 0.0
H676 H 0.01198 0.12405 0.1295 0.0
H677 H 0.07577 0.988 0.05238 0.0
H678 H 0.05499 0.96676 0.08018 0.0
H679 H 0.02642 0.99124 0.05755 0.0
H680 H 0.97188 0.96493 0.15507 0.0
H681 H 0.90571 0.01033 0.09375 0.0
H682 H 0.0472 0.01889 0.14822 0.0
H683 H 0.05917 0.98133 0.12726 0.0
H684 H 0.0356 0.97223 0.15717 0.0
H685 H 0.95159 0.07351 0.07245 0.0
H686 H 0.93671 0.03343 0.05501 0.0
H687 H 0.98507 0.04563 0.05569 0.0
C688 C 0.01237 0.10233 0.62488 0.0
C689 C 0.97478 0.09443 0.62196 0.0
C690 C 0.03743 0.0744 0.63183 0.0
C691 C 0.02412 0.03813 0.63618 0.0
C692 C 0.98606 0.03018 0.6331 0.0
C693 C 0.9619 0.05847 0.62585 0.0
C694 C 0.07803 0.08355 0.63348 0.0
C695 C 0.97079 0.99174 0.6373 0.0
C696 C 0.07731 0.94899 0.63438 0.0
C697 C 0.07641 0.93923 0.66052 0.0
C698 C 0.06411 0.9835 0.62622 0.0
C699 C 0.04908 0.00813 0.6447 0.0
C700 C 0.05152 -0.00022 0.67132 0.0
C701 C 0.06581 0.96552 0.67897 0.0
C702 C 0.0623 0.99167 0.59769 0.0
C703 C 0.03453 0.02458 0.69159 0.0
H704 H 0.02234 0.12998 0.6209 0.0
H705 H 0.93276 0.05251 0.62334 0.0
H706 H 0.09183 0.06795 0.64918 0.0
H707 H 0.09161 0.07575 0.61507 0.0
H708 H 0.08255 0.11363 0.63652 0.0
H709 H 0.94059 0.99023 0.63355 0.0
H710 H 0.98498 0.97175 0.62438 0.0
H711 H 0.97594 0.98275 0.65745 0.0
H712 H 0.08594 0.92872 0.62015 0.0
H713 H 0.06507 0.95806 0.69923 0.0
H714 H 0.07032 0.02071 0.59376 0.0
H715 H 0.03347 0.98801 0.59084 0.0
H716 H 0.08053 0.97295 0.58637 0.0
H717 H 0.03751 0.0542 0.68647 0.0
H718 H 0.04699 0.01966 0.71087 0.0
H719 H 0.00454 0.01856 0.69304 0.0
C720 C 0.95307 0.07361 0.89807 0.0
C721 C 0.92348 0.05486 0.90933 0.0
C722 C 0.98936 0.0619 0.90268 0.0
C723 C 0.99567 0.03159 0.91951 0.0
C724 C 0.9662 0.01696 0.93416 0.0
C725 C 0.93008 0.02825 0.92845 0.0
C726 C 0.02016 0.0786 0.88684 0.0
C727 C 0.97222 0.98658 0.95367 0.0
C728 C 0.06696 0.96931 0.88961 0.0
C729 C 0.09922 0.98479 0.8996 0.0
C730 C 0.03237 0.98225 0.89768 0.0
C731 C 0.03044 0.01034 0.91679 0.0
C732 C 0.06294 0.02216 0.9294 0.0
C733 C 0.09721 0.00982 0.9202 0.0
C734 C -0.0017 0.96879 0.88368 0.0
C735 C 0.06198 0.05015 0.95099 0.0
H736 H 0.94774 0.09428 0.88335 0.0
H737 H 0.90694 0.01423 0.93744 0.0
H738 H 0.04394 0.08578 0.89932 0.0
H739 H 0.02996 0.05809 0.87241 0.0
H740 H 0.01113 0.10391 0.87642 0.0
H741 H 0.94993 0.98646 0.96842 0.0
H742 H 0.97195 0.95939 0.94375 0.0
H743 H -0.00069 0.9896 0.96349 0.0
H744 H 0.06874 0.94993 0.87368 0.0
H745 H 0.12241 0.0213 0.92817 0.0
H746 H 0.98606 0.99185 0.87236 0.0
H747 H 0.97715 0.95937 0.89767 0.0
H748 H 0.0045 0.94562 0.87025 0.0
H749 H 0.06427 0.0784 0.9428 0.0
H750 H 0.08565 0.04603 0.96435 0.0
H751 H 0.03586 0.04853 0.96216 0.0
C752 C 0.00881 0.93993 0.42306 0.0
C753 C 0.98258 0.93623 0.40332 0.0
C754 C 0.02243 0.9748 0.42985 0.0
C755 C 0.01029 0.00607 0.41587 0.0
C756 C 0.98067 0.0028 0.39806 0.0
C757 C 0.96675 0.96771 0.39226 0.0
C758 C 0.05228 0.97742 0.45009 0.0
C759 C 0.96665 0.03563 0.38284 0.0
C760 C 0.03206 0.10672 0.42146 0.0
C761 C 0.0569 0.11041 0.40087 0.0
C762 C 0.02021 0.07172 0.42942 0.0
C763 C 0.03254 0.04031 0.41567 0.0
C764 C 0.06126 0.04377 0.39717 0.0
C765 C 0.07352 0.07907 0.3902 0.0
C766 C 0.99147 0.06889 0.45042 0.0
C767 C 0.07552 0.01078 0.38225 0.0
H768 H 0.02054 0.9154 0.43193 0.0
H769 H 0.94636 0.9647 0.37707 0.0
H770 H 0.07971 0.97433 0.44076 0.0
H771 H 0.0516 0.00452 0.46014 0.0
H772 H 0.04946 0.95498 0.4646 0.0
H773 H 0.9419 0.02875 0.37112 0.0
H774 H 0.95946 0.05876 0.39596 0.0
H775 H 0.98869 0.04552 0.36963 0.0
H776 H 0.01972 0.13121 0.42997 0.0
H777 H 0.0928 0.08216 0.37431 0.0
H778 H 0.99441 0.0427 0.46141 0.0
H779 H 0.9635 0.06937 0.44165 0.0
H780 H 0.99341 0.09258 0.46401 0.0
H781 H 0.08292 0.98794 0.39555 0.0
H782 H 0.10017 0.01771 0.37042 0.0
H783 H 0.05352 0.0005 0.36916 0.0
C784 C 0.43371 0.03555 0.1951 0.0
C785 C 0.41193 0.00995 0.20845 0.0
C786 C 0.47216 0.03613 0.19838 0.0
C787 C 0.48905 0.01044 0.21536 0.0
C788 C 0.467 0.98561 0.2297 0.0
C789 C 0.42865 0.98552 0.22594 0.0
C790 C 0.49486 0.06293 0.18264 0.0
C791 C 0.48402 0.95806 0.24813 0.0
C792 C 0.58792 0.98636 0.19819 0.0
C793 C 0.60756 0.01016 0.21445 0.0
C794 C 0.54923 0.98497 0.1991 0.0
C795 C 0.52992 0.00802 0.21666 0.0
C796 C 0.54974 0.03069 0.23402 0.0
C797 C 0.5884 0.03167 0.23258 0.0
C798 C 0.52897 0.96054 0.18018 0.0
C799 C 0.53009 0.05532 0.25318 0.0
H800 H 0.42108 0.05367 0.18099 0.0
H801 H 0.41177 0.96561 0.23621 0.0
H802 H 0.51363 0.07887 0.19537 0.0
H803 H 0.51238 0.04739 0.16877 0.0
H804 H 0.47735 0.08269 0.17165 0.0
H805 H 0.46283 0.94318 0.25964 0.0
H806 H 0.50037 0.9374 0.23712 0.0
H807 H 0.50328 0.97218 0.26154 0.0
H808 H 0.60247 0.97061 0.1836 0.0
H809 H 0.60365 0.05023 0.24507 0.0
H810 H 0.51357 0.97799 0.16621 0.0
H811 H 0.50846 0.94312 0.19041 0.0
H812 H 0.54804 0.94219 0.16925 0.0
H813 H 0.51534 0.0777 0.24273 0.0
H814 H 0.54952 0.06815 0.26714 0.0
H815 H 0.50907 0.03936 0.26405 0.0
C816 C 0.9916 0.58252 0.72314 0.0
C817 C 0.01028 0.60229 0.70388 0.0
C818 C 0.99345 0.5438 0.72419 0.0
C819 C 0.01418 0.52447 0.70536 0.0
C820 C 0.03338 0.54431 0.68599 0.0
C821 C 0.03109 0.58304 0.68544 0.0
C822 C 0.97267 0.52357 0.74514 0.0
C823 C 0.05549 0.52459 0.66542 0.0
C824 C 0.04459 0.42535 0.71685 0.0
C825 C 0.01845 0.40569 0.70242 0.0
C826 C 0.04296 0.46404 0.71859 0.0
C827 C 0.01476 0.48341 0.7053 0.0
C828 C 0.98792 0.46362 0.69105 0.0
C829 C 0.99018 0.42495 0.68969 0.0
C830 C 0.07198 0.48423 0.73403 0.0
C831 C 0.95759 0.48336 0.67645 0.0
H832 H 0.97533 0.59738 0.73735 0.0
H833 H 0.04447 0.59804 0.66998 0.0
H834 H 0.95117 0.50571 0.73637 0.0
H835 H 0.99177 0.50524 0.75599 0.0
H836 H 0.9591 0.54279 0.75896 0.0
H837 H 0.07001 0.54414 0.65237 0.0
H838 H 0.07628 0.50608 0.67446 0.0
H839 H 0.03692 0.50698 0.65365 0.0
H840 H 0.06667 0.41045 0.72647 0.0
H841 H 0.97075 0.41001 0.67772 0.0
H842 H 0.05865 0.50278 0.74835 0.0
H843 H 0.08874 0.50187 0.721 0.0
H844 H 0.09081 0.46498 0.74438 0.0
H845 H 0.94212 0.50206 0.68958 0.0
H846 H 0.93776 0.46381 0.66745 0.0
H847 H 0.96986 0.50076 0.66105 0.0
C848 C 0.43375 0.99648 0.81971 0.0
C849 C 0.41688 0.02215 0.80321 0.0
C850 C 0.47214 0.99116 0.81934 0.0
C851 C 0.49412 0.01225 0.80219 0.0
C852 C 0.47713 0.03757 0.78506 0.0
C853 C 0.43867 0.04238 0.78589 0.0
C854 C 0.48931 0.96407 0.83805 0.0
C855 C 0.49968 0.06044 0.76646 0.0
C856 C 0.59358 0.02673 0.82276 0.0
C857 C 0.61196 -0.0004 0.80832 0.0
C858 C 0.55531 0.03188 0.82037 0.0
C859 C 0.53501 0.00915 0.80323 0.0
C860 C 0.55358 0.98227 0.78817 0.0
C861 C 0.59187 0.97766 0.79102 0.0
C862 C 0.53641 0.06066 0.83691 0.0
C863 C 0.53286 0.95764 0.76965 0.0
H864 H 0.41722 0.98176 0.83377 0.0
H865 H 0.42564 0.06248 0.77328 0.0
H866 H 0.50727 0.94419 0.82759 0.0
H867 H 0.50703 0.97915 0.85198 0.0
H868 H 0.4682 0.94829 0.84903 0.0
H869 H 0.48205 0.07702 0.75323 0.0
H870 H 0.51779 0.07958 0.77739 0.0
H871 H 0.5179 0.04229 0.75476 0.0
H872 H 0.60875 0.04286 0.83681 0.0
H873 H 0.60607 0.95647 0.77999 0.0
H874 H 0.51729 0.04692 0.85062 0.0
H875 H 0.5196 0.07949 0.82472 0.0
H876 H 0.55642 0.07748 0.84813 0.0
H877 H 0.51361 0.93961 0.78054 0.0
H878 H 0.55171 0.93982 0.75812 0.0
H879 H 0.51595 0.97461 0.75625 0.0
C880 C 0.02137 0.43785 0.29211 0.0
C881 C 0.99509 0.42348 0.30917 0.0
C882 C 0.02868 0.47596 0.29151 0.0
C883 C 0.00979 0.49978 0.3088 0.0
C884 C 0.98318 0.48523 0.32601 0.0
C885 C 0.97583 0.44726 0.32575 0.0
C886 C 0.05668 0.49071 0.27254 0.0
C887 C 0.96313 0.50961 0.34515 0.0
C888 C 0.05496 0.59005 0.3278 0.0
C889 C 0.03352 0.61577 0.31421 0.0
C890 C 0.04766 0.55213 0.32605 0.0
C891 C 0.01885 0.53973 0.30978 0.0
C892 C -0.00229 0.5656 0.29546 0.0
C893 C 0.00507 0.60351 0.29808 0.0
C894 C 0.07019 0.52545 0.34211 0.0
C895 C 0.96729 0.55323 0.27751 0.0
H896 H 0.03582 0.41937 0.27906 0.0
H897 H 0.95565 0.43595 0.33905 0.0
H898 H 0.04411 0.51304 0.26072 0.0
H899 H 0.08034 0.50297 0.28308 0.0
H900 H 0.06735 0.46882 0.25943 0.0
H901 H 0.94308 0.49389 0.35711 0.0
H902 H 0.98339 0.52308 0.35817 0.0
H903 H 0.94804 0.53194 0.33489 0.0
H904 H 0.07692 0.59973 0.34032 0.0
H905 H 0.98898 0.62351 0.28725 0.0
H906 H 0.08375 0.50468 0.32949 0.0
H907 H 0.05177 0.51018 0.3555 0.0
H908 H 0.09181 0.53965 0.35363 0.0
H909 H 0.97821 0.53267 0.26353 0.0
H910 H 0.95494 0.57668 0.26664 0.0
H911 H 0.94512 0.53944 0.28871 0.0
loop_
_geom_bond_atom_site_label_1
_geom_bond_atom_site_label_2
_geom_bond_distance
_geom_bond_site_symmetry_2
_ccdc_geom_bond_type
Co0 O3 1.970 . S
Co0 N17 1.989 . S
Co0 O25 1.967 1_545 S
Co0 O32 1.920 . S
Co1 O4 1.966 . S
Co1 N10 2.022 . S
Co1 N18 1.993 . S
Co1 O26 1.941 1_545 S
C2 O3 1.258 . S
C2 O4 1.263 . S
O3 Co0 1.970 . S
O3 C2 1.258 . S
O4 Co1 1.966 . S
O4 C2 1.263 . S
C5 O6 1.235 . S
C5 O32 1.289 . S
O6 C5 1.235 . S
C7 C9 1.400 . S
C7 N10 1.351 . S
C7 C12 1.501 . S
C8 C9 1.366 1_565 S
C8 N11 1.347 . S
C9 C7 1.400 . S
C9 C8 1.366 1_545 S
N10 Co1 2.022 . S
N10 C7 1.351 . S
N10 N11 1.365 1_545 S
N11 C8 1.347 . S
N11 N10 1.365 1_565 S
N11 H31 0.862 . S
C12 C7 1.501 . S
C12 H13 0.961 . S
C12 H14 0.961 . S
C12 H15 0.960 . S
H13 C12 0.961 . S
H14 C12 0.961 . S
H15 C12 0.960 . S
C16 N17 1.342 . S
C16 C20 1.401 . S
C16 C21 1.499 . S
N17 Co0 1.989 . S
N17 C16 1.342 . S
N17 N18 1.388 . S
N18 Co1 1.993 . S
N18 N17 1.388 . S
N18 C19 1.346 . S
C19 N18 1.346 . S
C19 C20 1.396 . S
C19 C29 1.510 . S
C20 C16 1.401 . S
C20 C19 1.396 . S
C21 C16 1.499 . S
C21 H22 0.959 . S
C21 H23 0.960 . S
C21 H24 0.961 1_545 S
H22 C21 0.959 . S
H23 C21 0.960 . S
H24 C21 0.961 1_565 S
O25 Co0 1.967 1_565 S
O25 C33 1.258 . S
O26 Co1 1.941 1_565 S
O26 C33 1.266 . S
H27 C29 0.959 1_565 S
H28 C29 0.961 . S
C29 C19 1.510 . S
C29 H27 0.959 1_545 S
C29 H28 0.961 . S
C29 H30 0.960 . S
H30 C29 0.960 . S
H31 N11 0.862 . S
O32 Co0 1.920 . S
O32 C5 1.289 . S
C33 O25 1.258 . S
C33 O26 1.266 . S
Co34 O37 1.970 1_455 S
Co34 N51 1.989 . S
Co34 O59 1.967 . S
Co34 O66 1.920 . S
Co35 O38 1.966 1_455 S
Co35 N44 2.022 . S
Co35 N52 1.993 . S
Co35 O60 1.941 . S
C36 O37 1.258 . S
C36 O38 1.263 . S
O37 Co34 1.970 1_655 S
O37 C36 1.258 . S
O38 Co35 1.966 1_655 S
O38 C36 1.263 . S
C39 O40 1.235 . S
C39 O66 1.289 1_655 S
O40 C39 1.235 . S
C41 C43 1.396 1_655 S
C41 N44 1.351 1_655 S
C41 C46 1.501 . S
C42 C43 1.402 . S
C42 N45 1.341 . S
C43 C41 1.396 1_455 S
C43 C42 1.402 . S
N44 Co35 2.022 . S
N44 C41 1.351 1_455 S
N44 N45 1.365 . S
N45 C42 1.341 . S
N45 N44 1.365 . S
N45 H65 0.862 . S
C46 C41 1.501 . S
C46 H47 0.961 . S
C46 H48 0.961 . S
C46 H49 0.960 . S
H47 C46 0.961 . S
H48 C46 0.961 . S
H49 C46 0.960 . S
C50 N51 1.342 . S
C50 C54 1.401 . S
C50 C55 1.499 . S
N51 Co34 1.989 . S
N51 C50 1.342 . S
N51 N52 1.388 . S
N52 Co35 1.993 . S
N52 N51 1.388 . S
N52 C53 1.346 . S
C53 N52 1.346 . S
C53 C54 1.396 . S
C53 C63 1.510 . S
C54 C50 1.401 . S
C54 C53 1.396 . S
C55 C50 1.499 . S
C55 H56 0.959 . S
C55 H57 0.960 . S
C55 H58 0.961 . S
H56 C55 0.959 . S
H57 C55 0.960 . S
H58 C55 0.961 . S
O59 Co34 1.967 . S
O59 C67 1.258 . S
O60 Co35 1.941 . S
O60 C67 1.266 . S
H61 C63 0.959 . S
H62 C63 0.961 1_655 S
C63 C53 1.510 . S
C63 H61 0.959 . S
C63 H62 0.961 1_455 S
C63 H64 0.960 . S
H64 C63 0.960 . S
H65 N45 0.862 . S
O66 Co34 1.920 . S
O66 C39 1.289 1_455 S
C67 O59 1.258 . S
C67 O60 1.266 . S
Co68 O71 1.970 1_545 S
Co68 N85 1.989 . S
Co68 O93 1.967 . S
Co68 O100 1.920 . S
Co69 O72 1.966 1_545 S
Co69 N78 2.022 . S
Co69 N86 1.993 . S
Co69 O94 1.941 . S
C70 O71 1.258 . S
C70 O72 1.263 . S
O71 Co68 1.970 1_565 S
O71 C70 1.258 . S
O72 Co69 1.966 1_565 S
O72 C70 1.263 . S
C73 O74 1.235 . S
C73 O100 1.289 1_565 S
O74 C73 1.235 . S
C75 C77 1.395 1_565 S
C75 N78 1.351 1_565 S
C75 C80 1.501 . S
C76 C77 1.407 . S
C76 N79 1.341 . S
C77 C75 1.395 1_545 S
C77 C76 1.407 . S
N78 Co69 2.022 . S
N78 C75 1.351 1_545 S
N78 N79 1.365 . S
N79 C76 1.341 . S
N79 N78 1.365 . S
N79 H99 0.862 . S
C80 C75 1.501 . S
C80 H81 0.961 . S
C80 H82 0.961 . S
C80 H83 0.960 . S
H81 C80 0.961 . S
H82 C80 0.961 . S
H83 C80 0.960 . S
C84 N85 1.342 . S
C84 C88 1.401 . S
C84 C89 1.499 . S
N85 Co68 1.989 . S
N85 C84 1.342 . S
N85 N86 1.388 . S
N86 Co69 1.993 . S
N86 N85 1.388 . S
N86 C87 1.346 . S
C87 N86 1.346 . S
C87 C88 1.396 . S
C87 C97 1.510 . S
C88 C84 1.401 . S
C88 C87 1.396 . S
C89 C84 1.499 . S
C89 H90 0.959 . S
C89 H91 0.960 . S
C89 H92 0.961 . S
H90 C89 0.959 . S
H91 C89 0.960 . S
H92 C89 0.961 . S
O93 Co68 1.967 . S
O93 C101 1.258 . S
O94 Co69 1.941 . S
O94 C101 1.266 . S
H95 C97 0.959 . S
H96 C97 0.961 1_565 S
C97 C87 1.510 . S
C97 H95 0.959 . S
C97 H96 0.961 1_545 S
C97 H98 0.960 . S
H98 C97 0.960 . S
H99 N79 0.862 . S
O100 Co68 1.920 . S
O100 C73 1.289 1_545 S
C101 O93 1.258 . S
C101 O94 1.266 . S
Co102 O105 1.970 . S
Co102 N119 1.989 . S
Co102 O127 1.967 1_455 S
Co102 O134 1.920 . S
Co103 O106 1.966 . S
Co103 N112 2.022 . S
Co103 N120 1.993 . S
Co103 O128 1.941 1_455 S
C104 O105 1.258 . S
C104 O106 1.263 . S
O105 Co102 1.970 . S
O105 C104 1.258 . S
O106 Co103 1.966 . S
O106 C104 1.263 . S
C107 O108 1.235 . S
C107 O134 1.289 . S
O108 C107 1.235 . S
C109 C111 1.400 . S
C109 N112 1.351 . S
C109 C114 1.501 . S
C110 C111 1.375 1_655 S
C110 N113 1.344 . S
C111 C109 1.400 . S
C111 C110 1.375 1_455 S
N112 Co103 2.022 . S
N112 C109 1.351 . S
N112 N113 1.365 1_455 S
N113 C110 1.344 . S
N113 N112 1.365 1_655 S
N113 H133 0.862 . S
C114 C109 1.501 . S
C114 H115 0.961 . S
C114 H116 0.961 . S
C114 H117 0.960 . S
H115 C114 0.961 . S
H116 C114 0.961 . S
H117 C114 0.960 . S
C118 N119 1.342 . S
C118 C122 1.401 . S
C118 C123 1.499 . S
N119 Co102 1.989 . S
N119 C118 1.342 . S
N119 N120 1.388 . S
N120 Co103 1.993 . S
N120 N119 1.388 . S
N120 C121 1.346 . S
C121 N120 1.346 . S
C121 C122 1.396 . S
C121 C131 1.510 . S
C122 C118 1.401 . S
C122 C121 1.396 . S
C123 C118 1.499 . S
C123 H124 0.959 . S
C123 H125 0.960 . S
C123 H126 0.961 1_455 S
H124 C123 0.959 . S
H125 C123 0.960 . S
H126 C123 0.961 1_655 S
O127 Co102 1.967 1_655 S
O127 C135 1.258 . S
O128 Co103 1.941 1_655 S
O128 C135 1.266 . S
H129 C131 0.959 1_655 S
H130 C131 0.961 . S
C131 C121 1.510 . S
C131 H129 0.959 1_455 S
C131 H130 0.961 . S
C131 H132 0.960 . S
H132 C131 0.960 . S
H133 N113 0.862 . S
O134 Co102 1.920 . S
O134 C107 1.289 . S
C135 O127 1.258 . S
C135 O128 1.266 . S
Co136 O139 1.970 1_545 S
Co136 N153 1.989 . S
Co136 O161 1.967 . S
Co136 O168 1.920 . S
Co137 O140 1.966 1_545 S
Co137 N146 2.022 . S
Co137 N154 1.993 . S
Co137 O162 1.941 . S
C138 O139 1.258 . S
C138 O140 1.263 . S
O139 Co136 1.970 1_565 S
O139 C138 1.258 . S
O140 Co137 1.966 1_565 S
O140 C138 1.263 . S
C141 O142 1.235 . S
C141 O168 1.289 1_565 S
O142 C141 1.235 . S
C143 C145 1.396 1_565 S
C143 N146 1.351 1_565 S
C143 C148 1.501 . S
C144 C145 1.402 . S
C144 N147 1.341 . S
C145 C143 1.396 1_545 S
C145 C144 1.402 . S
N146 Co137 2.022 . S
N146 C143 1.351 1_545 S
N146 N147 1.365 . S
N147 C144 1.341 . S
N147 N146 1.365 . S
N147 H167 0.862 . S
C148 C143 1.501 . S
C148 H149 0.961 . S
C148 H150 0.961 . S
C148 H151 0.960 . S
H149 C148 0.961 . S
H150 C148 0.961 . S
H151 C148 0.960 . S
C152 N153 1.342 . S
C152 C156 1.401 . S
C152 C157 1.499 . S
N153 Co136 1.989 . S
N153 C152 1.342 . S
N153 N154 1.388 . S
N154 Co137 1.993 . S
N154 N153 1.388 . S
N154 C155 1.346 . S
C155 N154 1.346 . S
C155 C156 1.396 . S
C155 C165 1.510 . S
C156 C152 1.401 . S
C156 C155 1.396 . S
C157 C152 1.499 . S
C157 H158 0.959 . S
C157 H159 0.960 . S
C157 H160 0.961 . S
H158 C157 0.959 . S
H159 C157 0.960 . S
H160 C157 0.961 . S
O161 Co136 1.967 . S
O161 C169 1.258 . S
O162 Co137 1.941 . S
O162 C169 1.266 . S
H163 C165 0.959 . S
H164 C165 0.961 1_565 S
C165 C155 1.510 . S
C165 H163 0.959 . S
C165 H164 0.961 1_545 S
C165 H166 0.960 . S
H166 C165 0.960 . S
H167 N147 0.862 . S
O168 Co136 1.920 . S
O168 C141 1.289 1_545 S
C169 O161 1.258 . S
C169 O162 1.266 . S
Co170 O173 1.970 . S
Co170 N187 1.989 . S
Co170 O195 1.967 1_455 S
Co170 O202 1.920 . S
Co171 O174 1.966 . S
Co171 N180 2.022 . S
Co171 N188 1.993 . S
Co171 O196 1.941 1_455 S
C172 O173 1.258 . S
C172 O174 1.263 . S
O173 Co170 1.970 . S
O173 C172 1.258 . S
O174 Co171 1.966 . S
O174 C172 1.263 . S
C175 O176 1.235 . S
C175 O202 1.289 . S
O176 C175 1.235 . S
C177 C179 1.400 . S
C177 N180 1.351 . S
C177 C182 1.501 . S
C178 C179 1.366 1_655 S
C178 N181 1.347 . S
C179 C177 1.400 . S
C179 C178 1.366 1_455 S
N180 Co171 2.022 . S
N180 C177 1.351 . S
N180 N181 1.365 1_455 S
N181 C178 1.347 . S
N181 N180 1.365 1_655 S
N181 H201 0.862 . S
C182 C177 1.501 . S
C182 H183 0.961 . S
C182 H184 0.961 . S
C182 H185 0.960 . S
H183 C182 0.961 . S
H184 C182 0.961 . S
H185 C182 0.960 . S
C186 N187 1.342 . S
C186 C190 1.401 . S
C186 C191 1.499 . S
N187 Co170 1.989 . S
N187 C186 1.342 . S
N187 N188 1.388 . S
N188 Co171 1.993 . S
N188 N187 1.388 . S
N188 C189 1.346 . S
C189 N188 1.346 . S
C189 C190 1.396 . S
C189 C199 1.510 . S
C190 C186 1.401 . S
C190 C189 1.396 . S
C191 C186 1.499 . S
C191 H192 0.959 . S
C191 H193 0.960 . S
C191 H194 0.961 1_455 S
H192 C191 0.959 . S
H193 C191 0.960 . S
H194 C191 0.961 1_655 S
O195 Co170 1.967 1_655 S
O195 C203 1.258 . S
O196 Co171 1.941 1_655 S
O196 C203 1.266 . S
H197 C199 0.959 1_655 S
H198 C199 0.961 . S
C199 C189 1.510 . S
C199 H197 0.959 1_455 S
C199 H198 0.961 . S
C199 H200 0.960 . S
H200 C199 0.960 . S
H201 N181 0.862 . S
O202 Co170 1.920 . S
O202 C175 1.289 . S
C203 O195 1.258 . S
C203 O196 1.266 . S
Co204 O207 1.970 . S
Co204 N221 1.989 . S
Co204 O229 1.967 1_545 S
Co204 O236 1.920 . S
Co205 O208 1.966 . S
Co205 N214 2.022 . S
Co205 N222 1.993 . S
Co205 O230 1.941 1_545 S
C206 O207 1.258 . S
C206 O208 1.263 . S
O207 Co204 1.970 . S
O207 C206 1.258 . S
O208 Co205 1.966 . S
O208 C206 1.263 . S
C209 O210 1.235 . S
C209 O236 1.289 . S
O210 C209 1.235 . S
C211 C213 1.400 . S
C211 N214 1.351 . S
C211 C216 1.501 . S
C212 C213 1.375 1_565 S
C212 N215 1.344 . S
C213 C211 1.400 . S
C213 C212 1.375 1_545 S
N214 Co205 2.022 . S
N214 C211 1.351 . S
N214 N215 1.365 1_545 S
N215 C212 1.344 . S
N215 N214 1.365 1_565 S
N215 H235 0.862 . S
C216 C211 1.501 . S
C216 H217 0.961 . S
C216 H218 0.961 . S
C216 H219 0.960 . S
H217 C216 0.961 . S
H218 C216 0.961 . S
H219 C216 0.960 . S
C220 N221 1.342 . S
C220 C224 1.401 . S
C220 C225 1.499 . S
N221 Co204 1.989 . S
N221 C220 1.342 . S
N221 N222 1.388 . S
N222 Co205 1.993 . S
N222 N221 1.388 . S
N222 C223 1.346 . S
C223 N222 1.346 . S
C223 C224 1.396 . S
C223 C233 1.510 . S
C224 C220 1.401 . S
C224 C223 1.396 . S
C225 C220 1.499 . S
C225 H226 0.959 . S
C225 H227 0.960 . S
C225 H228 0.961 1_545 S
H226 C225 0.959 . S
H227 C225 0.960 . S
H228 C225 0.961 1_565 S
O229 Co204 1.967 1_565 S
O229 C237 1.258 . S
O230 Co205 1.941 1_565 S
O230 C237 1.266 . S
H231 C233 0.959 1_565 S
H232 C233 0.961 . S
C233 C223 1.510 . S
C233 H231 0.959 1_545 S
C233 H232 0.961 . S
C233 H234 0.960 . S
H234 C233 0.960 . S
H235 N215 0.862 . S
O236 Co204 1.920 . S
O236 C209 1.289 . S
C237 O229 1.258 . S
C237 O230 1.266 . S
Co238 O241 1.970 1_455 S
Co238 N255 1.989 . S
Co238 O263 1.967 . S
Co238 O270 1.920 . S
Co239 O242 1.966 1_455 S
Co239 N248 2.022 . S
Co239 N256 1.993 . S
Co239 O264 1.941 . S
C240 O241 1.258 . S
C240 O242 1.263 . S
O241 Co238 1.970 1_655 S
O241 C240 1.258 . S
O242 Co239 1.966 1_655 S
O242 C240 1.263 . S
C243 O244 1.235 . S
C243 O270 1.289 1_655 S
O244 C243 1.235 . S
C245 C247 1.395 1_655 S
C245 N248 1.351 1_655 S
C245 C250 1.501 . S
C246 C247 1.407 . S
C246 N249 1.341 . S
C247 C245 1.395 1_455 S
C247 C246 1.407 . S
N248 Co239 2.022 . S
N248 C245 1.351 1_455 S
N248 N249 1.365 . S
N249 C246 1.341 . S
N249 N248 1.365 . S
N249 H269 0.862 . S
C250 C245 1.501 . S
C250 H251 0.961 . S
C250 H252 0.961 . S
C250 H253 0.960 . S
H251 C250 0.961 . S
H252 C250 0.961 . S
H253 C250 0.960 . S
C254 N255 1.342 . S
C254 C258 1.401 . S
C254 C259 1.499 . S
N255 Co238 1.989 . S
N255 C254 1.342 . S
N255 N256 1.388 . S
N256 Co239 1.993 . S
N256 N255 1.388 . S
N256 C257 1.346 . S
C257 N256 1.346 . S
C257 C258 1.396 . S
C257 C267 1.510 . S
C258 C254 1.401 . S
C258 C257 1.396 . S
C259 C254 1.499 . S
C259 H260 0.959 . S
C259 H261 0.960 . S
C259 H262 0.961 . S
H260 C259 0.959 . S
H261 C259 0.960 . S
H262 C259 0.961 . S
O263 Co238 1.967 . S
O263 C271 1.258 . S
O264 Co239 1.941 . S
O264 C271 1.266 . S
H265 C267 0.959 . S
H266 C267 0.961 1_655 S
C267 C257 1.510 . S
C267 H265 0.959 . S
C267 H266 0.961 1_455 S
C267 H268 0.960 . S
H268 C267 0.960 . S
H269 N249 0.862 . S
O270 Co238 1.920 . S
O270 C243 1.289 1_455 S
C271 O263 1.258 . S
C271 O264 1.266 . S
C272 C273 1.391 1_565 S
C272 C274 1.394 . S
C272 H288 0.931 . S
C273 C272 1.391 1_545 S
C273 C277 1.376 . S
C274 C272 1.394 . S
C274 C275 1.369 1_565 S
C274 C278 1.531 . S
C275 C274 1.369 1_545 S
C275 C276 1.410 . S
C275 C283 1.503 1_554 S
C276 C275 1.410 . S
C276 C277 1.392 . S
C276 C279 1.511 . S
C277 C273 1.376 . S
C277 C276 1.392 . S
C277 H289 0.929 . S
C278 C274 1.531 . S
C278 H290 0.960 1_554 S
C278 H291 0.962 . S
C278 H292 0.960 . S
C279 C276 1.511 . S
C279 H293 0.961 . S
C279 H294 0.936 1_554 S
C279 H295 0.961 . S
C280 C281 1.370 . S
C280 C282 1.363 . S
C280 H296 0.931 . S
C281 C280 1.370 . S
C281 C285 1.408 1_545 S
C282 C280 1.363 . S
C282 C283 1.370 . S
C282 C286 1.524 . S
C283 C275 1.503 1_556 S
C283 C282 1.370 . S
C283 C284 1.403 1_545 S
C284 C283 1.403 1_565 S
C284 C285 1.404 . S
C284 C287 1.539 . S
C285 C281 1.408 1_565 S
C285 C284 1.404 . S
C285 H297 0.930 . S
C286 C282 1.524 . S
C286 H298 0.948 1_556 S
C286 H299 0.961 1_556 S
C286 H300 0.961 . S
C287 C284 1.539 . S
C287 H301 0.958 . S
C287 H302 0.961 . S
C287 H303 0.960 . S
H288 C272 0.931 . S
H289 C277 0.929 . S
H290 C278 0.960 1_556 S
H291 C278 0.962 . S
H292 C278 0.960 . S
H293 C279 0.961 . S
H294 C279 0.936 1_556 S
H295 C279 0.961 . S
H296 C280 0.931 . S
H297 C285 0.930 . S
H298 C286 0.948 1_554 S
H299 C286 0.961 1_554 S
H300 C286 0.961 . S
H301 C287 0.958 . S
H302 C287 0.961 . S
H303 C287 0.960 . S
C304 C305 1.391 1_655 S
C304 C306 1.394 . S
C304 H320 0.931 . S
C305 C304 1.391 1_455 S
C305 C309 1.376 . S
C306 C304 1.394 . S
C306 C307 1.369 1_655 S
C306 C310 1.531 . S
C307 C306 1.369 1_455 S
C307 C308 1.410 . S
C307 C315 1.503 . S
C308 C307 1.410 . S
C308 C309 1.392 . S
C308 C311 1.511 . S
C309 C305 1.376 . S
C309 C308 1.392 . S
C309 H321 0.929 . S
C310 C306 1.531 . S
C310 H322 0.960 . S
C310 H323 0.962 . S
C310 H324 0.960 . S
C311 C308 1.511 . S
C311 H325 0.961 . S
C311 H326 0.961 . S
C311 H327 0.961 . S
C312 C313 1.370 . S
C312 C314 1.363 . S
C312 H328 0.931 . S
C313 C312 1.370 . S
C313 C317 1.408 . S
C314 C312 1.363 . S
C314 C315 1.370 . S
C314 C318 1.524 . S
C315 C307 1.503 . S
C315 C314 1.370 . S
C315 C316 1.403 . S
C316 C315 1.403 . S
C316 C317 1.404 . S
C316 C319 1.539 . S
C317 C313 1.408 . S
C317 C316 1.404 . S
C317 H329 0.930 . S
C318 C314 1.524 . S
C318 H330 0.956 . S
C318 H331 0.961 . S
C318 H332 0.961 . S
C319 C316 1.539 . S
C319 H333 0.958 1_455 S
C319 H334 0.961 . S
C319 H335 0.960 . S
H320 C304 0.931 . S
H321 C309 0.929 . S
H322 C310 0.960 . S
H323 C310 0.962 . S
H324 C310 0.960 . S
H325 C311 0.961 . S
H326 C311 0.961 . S
H327 C311 0.961 . S
H328 C312 0.931 . S
H329 C317 0.930 . S
H330 C318 0.956 . S
H331 C318 0.961 . S
H332 C318 0.961 . S
H333 C319 0.958 1_655 S
H334 C319 0.961 . S
H335 C319 0.960 . S
C336 C337 1.391 . S
C336 C338 1.394 . S
C336 H352 0.931 . S
C337 C336 1.391 . S
C337 C341 1.376 1_545 S
C338 C336 1.394 . S
C338 C339 1.369 . S
C338 C342 1.531 . S
C339 C338 1.369 . S
C339 C340 1.410 1_545 S
C339 C347 1.503 1_554 S
C340 C339 1.410 1_565 S
C340 C341 1.392 . S
C340 C343 1.511 . S
C341 C337 1.376 1_565 S
C341 C340 1.392 . S
C341 H353 0.929 . S
C342 C338 1.531 . S
C342 H354 0.960 1_554 S
C342 H355 0.962 . S
C342 H356 0.960 . S
C343 C340 1.511 . S
C343 H357 0.961 . S
C343 H358 0.967 . S
C343 H359 0.961 . S
C344 C345 1.370 . S
C344 C346 1.363 . S
C344 H360 0.931 1_545 S
C345 C344 1.370 . S
C345 C349 1.408 . S
C346 C344 1.363 . S
C346 C347 1.370 . S
C346 C350 1.524 1_545 S
C347 C339 1.503 1_556 S
C347 C346 1.370 . S
C347 C348 1.403 . S
C348 C347 1.403 . S
C348 C349 1.404 . S
C348 C351 1.539 . S
C349 C345 1.408 . S
C349 C348 1.404 . S
C349 H361 0.930 . S
C350 C346 1.524 1_565 S
C350 H362 0.956 1_565 S
C350 H363 0.961 1_556 S
C350 H364 0.961 . S
C351 C348 1.539 . S
C351 H365 0.958 . S
C351 H366 0.961 . S
C351 H367 0.991 . S
H352 C336 0.931 . S
H353 C341 0.929 . S
H354 C342 0.960 1_556 S
H355 C342 0.962 . S
H356 C342 0.960 . S
H357 C343 0.961 . S
H358 C343 0.967 . S
H359 C343 0.961 . S
H360 C344 0.931 1_565 S
H361 C349 0.930 . S
H362 C350 0.956 1_545 S
H363 C350 0.961 1_554 S
H364 C350 0.961 . S
H365 C351 0.958 . S
H366 C351 0.961 . S
H367 C351 0.991 . S
C368 C369 1.391 . S
C368 C370 1.394 . S
C368 H384 0.931 . S
C369 C368 1.391 . S
C369 C373 1.376 1_455 S
C370 C368 1.394 . S
C370 C371 1.369 . S
C370 C374 1.531 . S
C371 C370 1.369 . S
C371 C372 1.410 1_455 S
C371 C379 1.503 . S
C372 C371 1.410 1_655 S
C372 C373 1.392 . S
C372 C375 1.511 . S
C373 C369 1.376 1_655 S
C373 C372 1.392 . S
C373 H385 0.929 . S
C374 C370 1.531 . S
C374 H386 0.960 . S
C374 H387 0.962 . S
C374 H388 0.960 . S
C375 C372 1.511 . S
C375 H389 0.961 . S
C375 H390 0.961 . S
C375 H391 0.961 . S
C376 C377 1.370 . S
C376 C378 1.363 . S
C376 H392 0.931 . S
C377 C376 1.370 . S
C377 C381 1.408 1_455 S
C378 C376 1.363 . S
C378 C379 1.370 . S
C378 C382 1.524 . S
C379 C371 1.503 . S
C379 C378 1.370 . S
C379 C380 1.403 . S
C380 C379 1.403 . S
C380 C381 1.404 1_455 S
C380 C383 1.539 1_455 S
C381 C377 1.408 1_655 S
C381 C380 1.404 1_655 S
C381 H393 0.930 . S
C382 C378 1.524 . S
C382 H394 0.956 . S
C382 H395 0.961 . S
C382 H396 0.961 . S
C383 C380 1.539 1_655 S
C383 H397 0.958 1_655 S
C383 H398 0.961 . S
C383 H399 0.960 . S
H384 C368 0.931 . S
H385 C373 0.929 . S
H386 C374 0.960 . S
H387 C374 0.962 . S
H388 C374 0.960 . S
H389 C375 0.961 . S
H390 C375 0.961 . S
H391 C375 0.961 . S
H392 C376 0.931 . S
H393 C381 0.930 . S
H394 C382 0.956 . S
H395 C382 0.961 . S
H396 C382 0.961 . S
H397 C383 0.958 1_455 S
H398 C383 0.961 . S
H399 C383 0.960 . S
C400 C401 1.391 . S
C400 C402 1.394 . S
C400 H416 0.931 . S
C401 C400 1.391 . S
C401 C405 1.376 . S
C402 C400 1.394 . S
C402 C403 1.369 . S
C402 C406 1.531 . S
C403 C402 1.369 . S
C403 C404 1.410 . S
C403 C411 1.503 . S
C404 C403 1.410 . S
C404 C405 1.392 . S
C404 C407 1.511 . S
C405 C401 1.376 . S
C405 C404 1.392 . S
C405 H417 0.929 . S
C406 C402 1.531 . S
C406 H418 0.960 . S
C406 H419 0.962 . S
C406 H420 0.960 . S
C407 C404 1.511 . S
C407 H421 0.961 . S
C407 H422 0.961 . S
C407 H423 0.961 . S
C408 C409 1.370 . S
C408 C410 1.363 . S
C408 H424 0.931 . S
C409 C408 1.370 . S
C409 C413 1.408 . S
C410 C408 1.363 . S
C410 C411 1.370 . S
C410 C414 1.524 . S
C411 C403 1.503 . S
C411 C410 1.370 . S
C411 C412 1.403 . S
C412 C411 1.403 . S
C412 C413 1.404 . S
C412 C415 1.539 . S
C413 C409 1.408 . S
C413 C412 1.404 . S
C413 H425 0.930 . S
C414 C410 1.524 . S
C414 H426 0.956 . S
C414 H427 0.961 . S
C414 H428 0.961 . S
C415 C412 1.539 . S
C415 H429 0.958 . S
C415 H430 0.961 . S
C415 H431 0.960 . S
H416 C400 0.931 . S
H417 C405 0.929 . S
H418 C406 0.960 . S
H419 C406 0.962 . S
H420 C406 0.960 . S
H421 C407 0.961 . S
H422 C407 0.961 . S
H423 C407 0.961 . S
H424 C408 0.931 . S
H425 C413 0.930 . S
H426 C414 0.956 . S
H427 C414 0.961 . S
H428 C414 0.961 . S
H429 C415 0.958 . S
H430 C415 0.961 . S
H431 C415 0.960 . S
C432 C433 1.391 . S
C432 C434 1.394 . S
C432 H448 0.931 . S
C433 C432 1.391 . S
C433 C437 1.376 . S
C434 C432 1.394 . S
C434 C435 1.369 . S
C434 C438 1.531 . S
C435 C434 1.369 . S
C435 C436 1.410 . S
C435 C443 1.503 . S
C436 C435 1.410 . S
C436 C437 1.392 . S
C436 C439 1.511 . S
C437 C433 1.376 . S
C437 C436 1.392 . S
C437 H449 0.929 . S
C438 C434 1.531 . S
C438 H450 0.960 . S
C438 H451 0.962 . S
C438 H452 0.960 . S
C439 C436 1.511 . S
C439 H453 0.961 . S
C439 H454 0.961 . S
C439 H455 0.961 . S
C440 C441 1.370 . S
C440 C442 1.363 . S
C440 H456 0.931 . S
C441 C440 1.370 . S
C441 C445 1.408 . S
C442 C440 1.363 . S
C442 C443 1.370 . S
C442 C446 1.524 . S
C443 C435 1.503 . S
C443 C442 1.370 . S
C443 C444 1.403 . S
C444 C443 1.403 . S
C444 C445 1.404 . S
C444 C447 1.539 . S
C445 C441 1.408 . S
C445 C444 1.404 . S
C445 H457 0.930 . S
C446 C442 1.524 . S
C446 H458 0.956 . S
C446 H459 0.961 . S
C446 H460 0.961 . S
C447 C444 1.539 . S
C447 H461 0.958 . S
C447 H462 0.961 . S
C447 H463 0.960 . S
H448 C432 0.931 . S
H449 C437 0.929 . S
H450 C438 0.960 . S
H451 C438 0.962 . S
H452 C438 0.960 . S
H453 C439 0.961 . S
H454 C439 0.961 . S
H455 C439 0.961 . S
H456 C440 0.931 . S
H457 C445 0.930 . S
H458 C446 0.956 . S
H459 C446 0.961 . S
H460 C446 0.961 . S
H461 C447 0.958 . S
H462 C447 0.961 . S
H463 C447 0.960 . S
C464 C465 1.391 . S
C464 C466 1.394 . S
C464 H480 0.931 . S
C465 C464 1.391 . S
C465 C469 1.376 . S
C466 C464 1.394 . S
C466 C467 1.369 . S
C466 C470 1.531 . S
C467 C466 1.369 . S
C467 C468 1.410 . S
C467 C475 1.503 . S
C468 C467 1.410 . S
C468 C469 1.392 . S
C468 C471 1.511 . S
C469 C465 1.376 . S
C469 C468 1.392 . S
C469 H481 0.929 . S
C470 C466 1.531 . S
C470 H482 0.960 . S
C470 H483 0.962 . S
C470 H484 0.960 . S
C471 C468 1.511 . S
C471 H485 0.961 . S
C471 H486 0.961 . S
C471 H487 0.961 . S
C472 C473 1.370 . S
C472 C474 1.363 . S
C472 H488 0.931 . S
C473 C472 1.370 . S
C473 C477 1.408 . S
C474 C472 1.363 . S
C474 C475 1.370 . S
C474 C478 1.524 . S
C475 C467 1.503 . S
C475 C474 1.370 . S
C475 C476 1.403 . S
C476 C475 1.403 . S
C476 C477 1.404 . S
C476 C479 1.539 . S
C477 C473 1.408 . S
C477 C476 1.404 . S
C477 H489 0.930 . S
C478 C474 1.524 . S
C478 H490 0.956 . S
C478 H491 0.961 . S
C478 H492 0.961 . S
C479 C476 1.539 . S
C479 H493 0.958 . S
C479 H494 0.961 . S
C479 H495 0.960 . S
H480 C464 0.931 . S
H481 C469 0.929 . S
H482 C470 0.960 . S
H483 C470 0.962 . S
H484 C470 0.960 . S
H485 C471 0.961 . S
H486 C471 0.961 . S
H487 C471 0.961 . S
H488 C472 0.931 . S
H489 C477 0.930 . S
H490 C478 0.956 . S
H491 C478 0.961 . S
H492 C478 0.961 . S
H493 C479 0.958 . S
H494 C479 0.961 . S
H495 C479 0.960 . S
C496 C497 1.391 . S
C496 C498 1.394 . S
C496 H512 0.931 . S
C497 C496 1.391 . S
C497 C501 1.376 . S
C498 C496 1.394 . S
C498 C499 1.369 . S
C498 C502 1.531 . S
C499 C498 1.369 . S
C499 C500 1.410 . S
C499 C507 1.503 . S
C500 C499 1.410 . S
C500 C501 1.392 . S
C500 C503 1.511 . S
C501 C497 1.376 . S
C501 C500 1.392 . S
C501 H513 0.929 . S
C502 C498 1.531 . S
C502 H514 0.960 . S
C502 H515 0.962 . S
C502 H516 0.960 . S
C503 C500 1.511 . S
C503 H517 0.961 . S
C503 H518 0.961 . S
C503 H519 0.961 . S
C504 C505 1.370 . S
C504 C506 1.363 . S
C504 H520 0.931 . S
C505 C504 1.370 . S
C505 C509 1.408 . S
C506 C504 1.363 . S
C506 C507 1.370 . S
C506 C510 1.524 . S
C507 C499 1.503 . S
C507 C506 1.370 . S
C507 C508 1.403 . S
C508 C507 1.403 . S
C508 C509 1.404 . S
C508 C511 1.539 . S
C509 C505 1.408 . S
C509 C508 1.404 . S
C509 H521 0.930 . S
C510 C506 1.524 . S
C510 H522 0.956 . S
C510 H523 0.961 . S
C510 H524 0.961 . S
C511 C508 1.539 . S
C511 H525 0.958 . S
C511 H526 0.961 . S
C511 H527 0.960 . S
H512 C496 0.931 . S
H513 C501 0.929 . S
H514 C502 0.960 . S
H515 C502 0.962 . S
H516 C502 0.960 . S
H517 C503 0.961 . S
H518 C503 0.961 . S
H519 C503 0.961 . S
H520 C504 0.931 . S
H521 C509 0.930 . S
H522 C510 0.956 . S
H523 C510 0.961 . S
H524 C510 0.961 . S
H525 C511 0.958 . S
H526 C511 0.961 . S
H527 C511 0.960 . S
C528 C529 1.391 . S
C528 C530 1.394 . S
C528 H544 0.931 . S
C529 C528 1.391 . S
C529 C533 1.376 . S
C530 C528 1.394 . S
C530 C531 1.369 . S
C530 C534 1.531 . S
C531 C530 1.369 . S
C531 C532 1.410 . S
C531 C539 1.503 . S
C532 C531 1.410 . S
C532 C533 1.392 . S
C532 C535 1.511 . S
C533 C529 1.376 . S
C533 C532 1.392 . S
C533 H545 0.929 . S
C534 C530 1.531 . S
C534 H546 0.960 . S
C534 H547 0.962 . S
C534 H548 0.960 . S
C535 C532 1.511 . S
C535 H549 0.961 . S
C535 H550 0.961 . S
C535 H551 0.961 . S
C536 C537 1.370 . S
C536 C538 1.363 . S
C536 H552 0.931 . S
C537 C536 1.370 . S
C537 C541 1.408 . S
C538 C536 1.363 . S
C538 C539 1.370 . S
C538 C542 1.524 . S
C539 C531 1.503 . S
C539 C538 1.370 . S
C539 C540 1.403 . S
C540 C539 1.403 . S
C540 C541 1.404 . S
C540 C543 1.539 . S
C541 C537 1.408 . S
C541 C540 1.404 . S
C541 H553 0.930 . S
C542 C538 1.524 . S
C542 H554 0.956 . S
C542 H555 0.961 . S
C542 H556 0.961 . S
C543 C540 1.539 . S
C543 H557 0.958 . S
C543 H558 0.961 . S
C543 H559 0.960 . S
H544 C528 0.931 . S
H545 C533 0.929 . S
H546 C534 0.960 . S
H547 C534 0.962 . S
H548 C534 0.960 . S
H549 C535 0.961 . S
H550 C535 0.961 . S
H551 C535 0.961 . S
H552 C536 0.931 . S
H553 C541 0.930 . S
H554 C542 0.956 . S
H555 C542 0.961 . S
H556 C542 0.961 . S
H557 C543 0.958 . S
H558 C543 0.961 . S
H559 C543 0.960 . S
C560 C561 1.391 . S
C560 C562 1.394 . S
C560 H576 0.931 . S
C561 C560 1.391 . S
C561 C565 1.376 . S
C562 C560 1.394 . S
C562 C563 1.369 . S
C562 C566 1.531 . S
C563 C562 1.369 . S
C563 C564 1.410 . S
C563 C571 1.503 . S
C564 C563 1.410 . S
C564 C565 1.392 . S
C564 C567 1.511 . S
C565 C561 1.376 . S
C565 C564 1.392 . S
C565 H577 0.929 . S
C566 C562 1.531 . S
C566 H578 0.960 . S
C566 H579 0.962 . S
C566 H580 0.960 . S
C567 C564 1.511 . S
C567 H581 0.961 . S
C567 H582 0.961 . S
C567 H583 0.961 . S
C568 C569 1.370 . S
C568 C570 1.363 . S
C568 H584 0.931 . S
C569 C568 1.370 . S
C569 C573 1.408 . S
C570 C568 1.363 . S
C570 C571 1.370 . S
C570 C574 1.524 . S
C571 C563 1.503 . S
C571 C570 1.370 . S
C571 C572 1.403 . S
C572 C571 1.403 . S
C572 C573 1.404 . S
C572 C575 1.539 . S
C573 C569 1.408 . S
C573 C572 1.404 . S
C573 H585 0.930 . S
C574 C570 1.524 . S
C574 H586 0.956 . S
C574 H587 0.961 . S
C574 H588 0.961 . S
C575 C572 1.539 . S
C575 H589 0.958 . S
C575 H590 0.961 . S
C575 H591 0.960 . S
H576 C560 0.931 . S
H577 C565 0.929 . S
H578 C566 0.960 . S
H579 C566 0.962 . S
H580 C566 0.960 . S
H581 C567 0.961 . S
H582 C567 0.961 . S
H583 C567 0.961 . S
H584 C568 0.931 . S
H585 C573 0.930 . S
H586 C574 0.956 . S
H587 C574 0.961 . S
H588 C574 0.961 . S
H589 C575 0.958 . S
H590 C575 0.961 . S
H591 C575 0.960 . S
C592 C593 1.391 . S
C592 C594 1.394 . S
C592 H608 0.931 . S
C593 C592 1.391 . S
C593 C597 1.376 . S
C594 C592 1.394 . S
C594 C595 1.369 . S
C594 C598 1.531 . S
C595 C594 1.369 . S
C595 C596 1.410 . S
C595 C603 1.503 . S
C596 C595 1.410 . S
C596 C597 1.392 . S
C596 C599 1.511 . S
C597 C593 1.376 . S
C597 C596 1.392 . S
C597 H609 0.929 . S
C598 C594 1.531 . S
C598 H610 0.960 . S
C598 H611 0.962 . S
C598 H612 0.960 . S
C599 C596 1.511 . S
C599 H613 0.961 . S
C599 H614 0.961 . S
C599 H615 0.961 . S
C600 C601 1.370 . S
C600 C602 1.363 . S
C600 H616 0.931 . S
C601 C600 1.370 . S
C601 C605 1.408 . S
C602 C600 1.363 . S
C602 C603 1.370 . S
C602 C606 1.524 . S
C603 C595 1.503 . S
C603 C602 1.370 . S
C603 C604 1.403 . S
C604 C603 1.403 . S
C604 C605 1.404 . S
C604 C607 1.539 . S
C605 C601 1.408 . S
C605 C604 1.404 . S
C605 H617 0.930 . S
C606 C602 1.524 . S
C606 H618 0.956 . S
C606 H619 0.961 . S
C606 H620 0.961 . S
C607 C604 1.539 . S
C607 H621 0.958 . S
C607 H622 0.961 . S
C607 H623 0.960 . S
H608 C592 0.931 . S
H609 C597 0.929 . S
H610 C598 0.960 . S
H611 C598 0.962 . S
H612 C598 0.960 . S
H613 C599 0.961 . S
H614 C599 0.961 . S
H615 C599 0.961 . S
H616 C600 0.931 . S
H617 C605 0.930 . S
H618 C606 0.956 . S
H619 C606 0.961 . S
H620 C606 0.961 . S
H621 C607 0.958 . S
H622 C607 0.961 . S
H623 C607 0.960 . S
C624 C625 1.391 . S
C624 C626 1.394 . S
C624 H640 0.931 . S
C625 C624 1.391 . S
C625 C629 1.376 . S
C626 C624 1.394 . S
C626 C627 1.369 . S
C626 C630 1.531 . S
C627 C626 1.369 . S
C627 C628 1.410 . S
C627 C635 1.503 . S
C628 C627 1.410 . S
C628 C629 1.392 . S
C628 C631 1.511 . S
C629 C625 1.376 . S
C629 C628 1.392 . S
C629 H641 0.929 . S
C630 C626 1.531 . S
C630 H642 0.960 . S
C630 H643 0.962 . S
C630 H644 0.960 . S
C631 C628 1.511 . S
C631 H645 0.961 . S
C631 H646 0.961 . S
C631 H647 0.961 . S
C632 C633 1.370 . S
C632 C634 1.363 . S
C632 H648 0.931 . S
C633 C632 1.370 . S
C633 C637 1.408 . S
C634 C632 1.363 . S
C634 C635 1.370 . S
C634 C638 1.524 . S
C635 C627 1.503 . S
C635 C634 1.370 . S
C635 C636 1.403 . S
C636 C635 1.403 . S
C636 C637 1.404 . S
C636 C639 1.539 . S
C637 C633 1.408 . S
C637 C636 1.404 . S
C637 H649 0.930 . S
C638 C634 1.524 . S
C638 H650 0.956 . S
C638 H651 0.961 . S
C638 H652 0.961 . S
C639 C636 1.539 . S
C639 H653 0.958 . S
C639 H654 0.961 . S
C639 H655 0.960 . S
H640 C624 0.931 . S
H641 C629 0.929 . S
H642 C630 0.960 . S
H643 C630 0.962 . S
H644 C630 0.960 . S
H645 C631 0.961 . S
H646 C631 0.961 . S
H647 C631 0.961 . S
H648 C632 0.931 . S
H649 C637 0.930 . S
H650 C638 0.956 . S
H651 C638 0.961 . S
H652 C638 0.961 . S
H653 C639 0.958 . S
H654 C639 0.961 . S
H655 C639 0.960 . S
C656 C657 1.391 . S
C656 C658 1.394 . S
C656 H672 0.931 . S
C657 C656 1.391 . S
C657 C661 1.376 . S
C658 C656 1.394 . S
C658 C659 1.369 . S
C658 C662 1.531 1_545 S
C659 C658 1.369 . S
C659 C660 1.410 . S
C659 C667 1.503 1_455 S
C660 C659 1.410 . S
C660 C661 1.392 . S
C660 C663 1.511 . S
C661 C657 1.376 . S
C661 C660 1.392 . S
C661 H673 0.929 . S
C662 C658 1.531 1_565 S
C662 H674 0.960 . S
C662 H675 0.962 . S
C662 H676 0.960 . S
C663 C660 1.511 . S
C663 H677 0.961 . S
C663 H678 0.971 . S
C663 H679 0.961 . S
C664 C665 1.370 . S
C664 C666 1.363 . S
C664 H680 0.931 . S
C665 C664 1.370 . S
C665 C669 1.408 1_565 S
C666 C664 1.363 . S
C666 C667 1.370 1_565 S
C666 C670 1.524 1_655 S
C667 C659 1.503 1_655 S
C667 C666 1.370 1_545 S
C667 C668 1.403 . S
C668 C667 1.403 . S
C668 C669 1.404 . S
C668 C671 1.539 . S
C669 C665 1.408 1_545 S
C669 C668 1.404 . S
C669 H681 0.930 . S
C670 C666 1.524 1_455 S
C670 H682 0.956 . S
C670 H683 0.961 . S
C670 H684 0.961 . S
C671 C668 1.539 . S
C671 H685 0.958 . S
C671 H686 0.961 . S
C671 H687 0.960 . S
H672 C656 0.931 . S
H673 C661 0.929 . S
H674 C662 0.960 . S
H675 C662 0.962 . S
H676 C662 0.960 . S
H677 C663 0.961 . S
H678 C663 0.971 . S
H679 C663 0.961 . S
H680 C664 0.931 . S
H681 C669 0.930 . S
H682 C670 0.956 . S
H683 C670 0.961 . S
H684 C670 0.961 . S
H685 C671 0.958 . S
H686 C671 0.961 . S
H687 C671 0.960 . S
C688 C689 1.391 1_455 S
C688 C690 1.394 . S
C688 H704 0.931 . S
C689 C688 1.391 1_655 S
C689 C693 1.376 . S
C690 C688 1.394 . S
C690 C691 1.369 . S
C690 C694 1.531 . S
C691 C690 1.369 . S
C691 C692 1.410 1_455 S
C691 C699 1.503 1_545 S
C692 C691 1.410 1_655 S
C692 C693 1.392 . S
C692 C695 1.511 . S
C693 C689 1.376 . S
C693 C692 1.392 . S
C693 H705 0.929 . S
C694 C690 1.531 . S
C694 H706 0.960 . S
C694 H707 0.962 . S
C694 H708 0.960 . S
C695 C692 1.511 . S
C695 H709 0.961 . S
C695 H710 0.961 1_545 S
C695 H711 0.961 . S
C696 C697 1.370 . S
C696 C698 1.363 . S
C696 H712 0.931 . S
C697 C696 1.370 . S
C697 C701 1.408 . S
C698 C696 1.363 . S
C698 C699 1.370 . S
C698 C702 1.524 1_565 S
C699 C691 1.503 1_565 S
C699 C698 1.370 . S
C699 C700 1.403 . S
C700 C699 1.403 . S
C700 C701 1.404 . S
C700 C703 1.537 . S
C701 C697 1.408 . S
C701 C700 1.404 . S
C701 H713 0.930 . S
C702 C698 1.524 1_545 S
C702 H714 0.956 . S
C702 H715 0.961 . S
C702 H716 0.958 1_545 S
C703 C700 1.537 . S
C703 H717 0.956 . S
C703 H718 0.963 1_455 S
C703 H719 0.962 1_465 S
H704 C688 0.931 . S
H705 C693 0.929 . S
H706 C694 0.960 . S
H707 C694 0.962 . S
H708 C694 0.960 . S
H709 C695 0.961 . S
H710 C695 0.961 1_565 S
H711 C695 0.961 . S
H712 C696 0.931 . S
H713 C701 0.930 . S
H714 C702 0.956 . S
H715 C702 0.961 . S
H716 C702 0.958 1_565 S
H717 C703 0.956 . S
H718 C703 0.963 1_655 S
H719 C703 0.962 1_645 S
C720 C721 1.391 . S
C720 C722 1.394 . S
C720 H736 0.931 . S
C721 C720 1.391 . S
C721 C725 1.376 . S
C722 C720 1.394 . S
C722 C723 1.369 1_655 S
C722 C726 1.531 1_655 S
C723 C722 1.369 1_455 S
C723 C724 1.410 1_455 S
C723 C731 1.503 . S
C724 C723 1.410 1_655 S
C724 C725 1.392 . S
C724 C727 1.511 1_545 S
C725 C721 1.376 . S
C725 C724 1.392 . S
C725 H737 0.929 . S
C726 C722 1.531 1_455 S
C726 H738 0.960 . S
C726 H739 0.962 . S
C726 H740 0.960 . S
C727 C724 1.511 1_565 S
C727 H741 0.961 . S
C727 H742 0.961 1_655 S
C727 H743 0.961 . S
C728 C729 1.370 . S
C728 C730 1.363 . S
C728 H744 0.931 . S
C729 C728 1.370 . S
C729 C733 1.408 1_565 S
C730 C728 1.363 . S
C730 C731 1.370 1_565 S
C730 C734 1.524 . S
C731 C723 1.503 . S
C731 C730 1.370 1_545 S
C731 C732 1.403 . S
C732 C731 1.403 . S
C732 C733 1.404 . S
C732 C735 1.539 . S
C733 C729 1.408 1_545 S
C733 C732 1.404 . S
C733 H745 0.930 . S
C734 C730 1.524 . S
C734 H746 0.956 . S
C734 H747 0.961 1_455 S
C734 H748 0.961 . S
C735 C732 1.539 . S
C735 H749 0.958 . S
C735 H750 0.961 . S
C735 H751 0.960 . S
H736 C720 0.931 . S
H737 C725 0.929 . S
H738 C726 0.960 . S
H739 C726 0.962 . S
H740 C726 0.960 . S
H741 C727 0.961 . S
H742 C727 0.961 1_455 S
H743 C727 0.961 . S
H744 C728 0.931 . S
H745 C733 0.930 . S
H746 C734 0.956 . S
H747 C734 0.961 1_655 S
H748 C734 0.961 . S
H749 C735 0.958 . S
H750 C735 0.961 . S
H751 C735 0.960 . S
C752 C753 1.391 . S
C752 C754 1.394 1_655 S
C752 H768 0.931 . S
C753 C752 1.391 . S
C753 C757 1.376 . S
C754 C752 1.394 1_455 S
C754 C755 1.369 . S
C754 C758 1.531 . S
C755 C754 1.369 . S
C755 C756 1.410 . S
C755 C763 1.503 1_565 S
C756 C755 1.410 . S
C756 C757 1.392 1_455 S
C756 C759 1.511 . S
C757 C753 1.376 . S
C757 C756 1.392 1_655 S
C757 H769 0.929 . S
C758 C754 1.531 . S
C758 H770 0.960 1_565 S
C758 H771 0.959 1_465 S
C758 H772 0.960 . S
C759 C756 1.511 . S
C759 H773 0.961 . S
C759 H774 0.961 1_565 S
C759 H775 0.961 . S
C760 C761 1.370 . S
C760 C762 1.363 . S
C760 H776 0.931 . S
C761 C760 1.370 . S
C761 C765 1.408 . S
C762 C760 1.363 . S
C762 C763 1.370 . S
C762 C766 1.524 1_455 S
C763 C755 1.503 1_545 S
C763 C762 1.370 . S
C763 C764 1.403 . S
C764 C763 1.403 . S
C764 C765 1.404 . S
C764 C767 1.539 . S
C765 C761 1.408 . S
C765 C764 1.404 . S
C765 H777 0.930 . S
C766 C762 1.524 1_655 S
C766 H778 0.956 . S
C766 H779 0.961 . S
C766 H780 0.961 . S
C767 C764 1.539 . S
C767 H781 0.958 . S
C767 H782 0.961 . S
C767 H783 0.960 1_545 S
H768 C752 0.931 . S
H769 C757 0.929 . S
H770 C758 0.960 1_545 S
H771 C758 0.959 1_645 S
H772 C758 0.960 . S
H773 C759 0.961 . S
H774 C759 0.961 1_545 S
H775 C759 0.961 . S
H776 C760 0.931 . S
H777 C765 0.930 . S
H778 C766 0.956 . S
H779 C766 0.961 . S
H780 C766 0.961 . S
H781 C767 0.958 . S
H782 C767 0.961 . S
H783 C767 0.960 1_565 S
C784 C785 1.391 . S
C784 C786 1.394 . S
C784 H800 0.931 . S
C785 C784 1.391 . S
C785 C789 1.376 . S
C786 C784 1.394 . S
C786 C787 1.369 . S
C786 C790 1.531 . S
C787 C786 1.369 . S
C787 C788 1.410 . S
C787 C795 1.503 . S
C788 C787 1.410 . S
C788 C789 1.392 . S
C788 C791 1.511 . S
C789 C785 1.376 . S
C789 C788 1.392 . S
C789 H801 0.929 . S
C790 C786 1.531 . S
C790 H802 0.960 . S
C790 H803 0.962 . S
C790 H804 0.960 . S
C791 C788 1.511 . S
C791 H805 0.961 . S
C791 H806 0.961 . S
C791 H807 0.961 . S
C792 C793 1.370 . S
C792 C794 1.363 . S
C792 H808 0.931 . S
C793 C792 1.370 . S
C793 C797 1.408 1_565 S
C794 C792 1.363 . S
C794 C795 1.370 1_565 S
C794 C798 1.524 . S
C795 C787 1.503 . S
C795 C794 1.370 1_545 S
C795 C796 1.403 . S
C796 C795 1.403 . S
C796 C797 1.404 . S
C796 C799 1.539 . S
C797 C793 1.408 1_545 S
C797 C796 1.404 . S
C797 H809 0.930 . S
C798 C794 1.524 . S
C798 H810 0.956 . S
C798 H811 0.961 . S
C798 H812 0.961 . S
C799 C796 1.539 . S
C799 H813 0.958 . S
C799 H814 0.961 . S
C799 H815 0.960 . S
H800 C784 0.931 . S
H801 C789 0.929 . S
H802 C790 0.960 . S
H803 C790 0.962 . S
H804 C790 0.960 . S
H805 C791 0.961 . S
H806 C791 0.961 . S
H807 C791 0.961 . S
H808 C792 0.931 . S
H809 C797 0.930 . S
H810 C798 0.956 . S
H811 C798 0.961 . S
H812 C798 0.961 . S
H813 C799 0.958 . S
H814 C799 0.961 . S
H815 C799 0.960 . S
C816 C817 1.391 . S
C816 C818 1.394 1_455 S
C816 H832 0.931 1_455 S
C817 C816 1.391 . S
C817 C821 1.376 . S
C818 C816 1.394 1_655 S
C818 C819 1.369 1_655 S
C818 C822 1.531 . S
C819 C818 1.369 1_455 S
C819 C820 1.410 . S
C819 C827 1.503 . S
C820 C819 1.410 . S
C820 C821 1.392 . S
C820 C823 1.511 . S
C821 C817 1.376 . S
C821 C820 1.392 . S
C821 H833 0.929 . S
C822 C818 1.531 . S
C822 H834 0.960 . S
C822 H835 0.962 . S
C822 H836 0.960 . S
C823 C820 1.511 . S
C823 H837 0.961 . S
C823 H838 0.961 . S
C823 H839 0.961 . S
C824 C825 1.370 1_455 S
C824 C826 1.363 . S
C824 H840 0.931 . S
C825 C824 1.370 1_655 S
C825 C829 1.408 . S
C826 C824 1.363 . S
C826 C827 1.370 . S
C826 C830 1.524 . S
C827 C819 1.503 . S
C827 C826 1.370 . S
C827 C828 1.403 1_455 S
C828 C827 1.403 1_655 S
C828 C829 1.404 . S
C828 C831 1.539 . S
C829 C825 1.408 . S
C829 C828 1.404 . S
C829 H841 0.930 . S
C830 C826 1.524 . S
C830 H842 0.956 . S
C830 H843 0.961 . S
C830 H844 0.961 . S
C831 C828 1.539 . S
C831 H845 0.958 . S
C831 H846 0.962 . S
C831 H847 0.960 1_655 S
H832 C816 0.931 1_655 S
H833 C821 0.929 . S
H834 C822 0.960 . S
H835 C822 0.962 . S
H836 C822 0.960 . S
H837 C823 0.961 . S
H838 C823 0.961 . S
H839 C823 0.961 . S
H840 C824 0.931 . S
H841 C829 0.930 . S
H842 C830 0.956 . S
H843 C830 0.961 . S
H844 C830 0.961 . S
H845 C831 0.958 . S
H846 C831 0.962 . S
H847 C831 0.960 1_455 S
C848 C849 1.391 . S
C848 C850 1.394 . S
C848 H864 0.931 . S
C849 C848 1.391 . S
C849 C853 1.374 1_565 S
C850 C848 1.394 . S
C850 C851 1.369 1_565 S
C850 C854 1.531 . S
C851 C850 1.369 1_545 S
C851 C852 1.410 . S
C851 C859 1.503 . S
C852 C851 1.410 . S
C852 C853 1.393 . S
C852 C855 1.511 . S
C853 C849 1.374 1_545 S
C853 C852 1.393 . S
C853 H865 0.929 . S
C854 C850 1.531 . S
C854 H866 0.960 . S
C854 H867 0.962 1_565 S
C854 H868 0.960 . S
C855 C852 1.511 . S
C855 H869 0.961 . S
C855 H870 0.961 . S
C855 H871 0.961 1_545 S
C856 C857 1.370 . S
C856 C858 1.363 . S
C856 H872 0.931 . S
C857 C856 1.370 . S
C857 C861 1.408 . S
C858 C856 1.363 . S
C858 C859 1.370 . S
C858 C862 1.524 . S
C859 C851 1.503 . S
C859 C858 1.370 . S
C859 C860 1.403 1_545 S
C860 C859 1.403 1_565 S
C860 C861 1.404 1_565 S
C860 C863 1.539 . S
C861 C857 1.408 . S
C861 C860 1.404 1_545 S
C861 H873 0.930 1_545 S
C862 C858 1.524 . S
C862 H874 0.956 . S
C862 H875 0.961 . S
C862 H876 0.961 . S
C863 C860 1.539 . S
C863 H877 0.958 . S
C863 H878 0.961 . S
C863 H879 0.960 . S
H864 C848 0.931 . S
H865 C853 0.929 . S
H866 C854 0.960 . S
H867 C854 0.962 1_545 S
H868 C854 0.960 . S
H869 C855 0.961 . S
H870 C855 0.961 . S
H871 C855 0.961 1_565 S
H872 C856 0.931 . S
H873 C861 0.930 1_565 S
H874 C862 0.956 . S
H875 C862 0.961 . S
H876 C862 0.961 . S
H877 C863 0.958 . S
H878 C863 0.961 . S
H879 C863 0.960 . S
C880 C881 1.391 . S
C880 C882 1.394 . S
C880 H896 0.931 . S
C881 C880 1.391 . S
C881 C885 1.376 . S
C882 C880 1.394 . S
C882 C883 1.369 . S
C882 C886 1.531 . S
C883 C882 1.369 . S
C883 C884 1.410 1_455 S
C883 C891 1.503 . S
C884 C883 1.410 1_655 S
C884 C885 1.392 1_655 S
C884 C887 1.511 . S
C885 C881 1.376 . S
C885 C884 1.392 1_455 S
C885 H897 0.929 1_455 S
C886 C882 1.531 . S
C886 H898 0.960 . S
C886 H899 0.962 . S
C886 H900 0.960 . S
C887 C884 1.511 . S
C887 H901 0.961 . S
C887 H902 0.961 . S
C887 H903 0.961 . S
C888 C889 1.370 1_455 S
C888 C890 1.363 . S
C888 H904 0.931 . S
C889 C888 1.370 1_655 S
C889 C893 1.408 . S
C890 C888 1.363 . S
C890 C891 1.370 . S
C890 C894 1.524 . S
C891 C883 1.503 . S
C891 C890 1.370 . S
C891 C892 1.403 1_455 S
C892 C891 1.403 1_655 S
C892 C893 1.404 . S
C892 C895 1.539 . S
C893 C889 1.408 . S
C893 C892 1.404 . S
C893 H905 0.930 . S
C894 C890 1.524 . S
C894 H906 0.956 . S
C894 H907 0.961 . S
C894 H908 0.961 . S
C895 C892 1.539 . S
C895 H909 0.958 1_655 S
C895 H910 0.961 . S
C895 H911 0.960 . S
H896 C880 0.931 . S
H897 C885 0.929 1_655 S
H898 C886 0.960 . S
H899 C886 0.962 . S
H900 C886 0.960 . S
H901 C887 0.961 . S
H902 C887 0.961 . S
H903 C887 0.961 . S
H904 C888 0.931 . S
H905 C893 0.930 . S
H906 C894 0.956 . S
H907 C894 0.961 . S
H908 C894 0.961 . S
H909 C895 0.958 1_455 S
H910 C895 0.961 . S
H911 C895 0.960 . S
C273 C20 1.701 . S
C281 C156 1.693 . S
C305 C190 1.690 . S
C313 C54 1.696 . S
C337 C88 1.690 . S
C345 C224 1.695 . S
C369 C258 1.680 . S
C377 C122 1.700 . S
C401 C172 1.123 . S
C409 C2 1.140 . S
C433 C206 1.185 . S
C441 C36 1.175 . S
C465 C70 1.195 . S
C473 C240 1.173 . S
C497 C138 1.195 . S
C505 C104 1.162 . S
C529 C135 1.285 . S
C537 C237 1.287 . S
C561 C33 1.290 . S
C569 C271 1.285 . S
C593 C67 1.255 . S
C601 C169 1.273 . S
C625 C101 1.264 . S
C633 C203 1.277 . S
C657 C5 0.353 . S
C665 C73 0.276 . S
C689 C39 0.315 . S
C697 C107 0.282 . S
C721 C209 0.389 . S
C729 C141 0.309 . S
C753 C243 0.248 . S
C761 C175 0.334 . S
C785 C9 1.361 . S
C793 C77 1.286 1_565 S
C817 C111 1.298 . S
C825 C43 1.312 1_655 S
C849 C145 1.357 1_565 S
C857 C213 1.292 . S
C881 C179 1.287 . S
C889 C247 1.319 1_655 S
