# Generated by pormake.
# Topology wgq, (5)-cn, num edge types: 1
# Building blocks:
#     Node 0, Type 0, BuildingBlock: BEQFEK_clean_sbu_0, # of connection points: 5
#     Node 1, Type 0, BuildingBlock: BEQFEK_clean_sbu_0, # of connection points: 5
#     Node 2, Type 0, BuildingBlock: BEQFEK_clean_sbu_0, # of connection points: 5
#     Node 3, Type 0, BuildingBlock: BEQFEK_clean_sbu_0, # of connection points: 5
#     Node 4, Type 0, BuildingBlock: BEQFEK_clean_sbu_0, # of connection points: 5
#     Node 5, Type 0, BuildingBlock: BEQFEK_clean_sbu_0, # of connection points: 5
#     Node 6, Type 0, BuildingBlock: BEQFEK_clean_sbu_0, # of connection points: 5
#     Node 7, Type 0, BuildingBlock: BEQFEK_clean_sbu_0, # of connection points: 5
#     Node 8, Type 0, BuildingBlock: BEQFEK_clean_sbu_0, # of connection points: 5
#     Node 9, Type 0, BuildingBlock: BEQFEK_clean_sbu_0, # of connection points: 5
#     Node 10, Type 0, BuildingBlock: BEQFEK_clean_sbu_0, # of connection points: 5
#     Node 11, Type 0, BuildingBlock: BEQFEK_clean_sbu_0, # of connection points: 5
#     Node 12, Type 0, BuildingBlock: BEQFEK_clean_sbu_0, # of connection points: 5
#     Node 13, Type 0, BuildingBlock: BEQFEK_clean_sbu_0, # of connection points: 5
#     Node 14, Type 0, BuildingBlock: BEQFEK_clean_sbu_0, # of connection points: 5
#     Node 15, Type 0, BuildingBlock: BEQFEK_clean_sbu_0, # of connection points: 5
#     Node 16, Type 0, BuildingBlock: BEQFEK_clean_sbu_0, # of connection points: 5
#     Node 17, Type 0, BuildingBlock: BEQFEK_clean_sbu_0, # of connection points: 5
#     Node 18, Type 0, BuildingBlock: BEQFEK_clean_sbu_0, # of connection points: 5
#     Node 19, Type 0, BuildingBlock: BEQFEK_clean_sbu_0, # of connection points: 5
#     Node 20, Type 0, BuildingBlock: BEQFEK_clean_sbu_0, # of connection points: 5
#     Node 21, Type 0, BuildingBlock: BEQFEK_clean_sbu_0, # of connection points: 5
#     Node 22, Type 0, BuildingBlock: BEQFEK_clean_sbu_0, # of connection points: 5
#     Node 23, Type 0, BuildingBlock: BEQFEK_clean_sbu_0, # of connection points: 5
#     Node 24, Type 0, BuildingBlock: BEQFEK_clean_sbu_0, # of connection points: 5
#     Node 25, Type 0, BuildingBlock: BEQFEK_clean_sbu_0, # of connection points: 5
#     Node 26, Type 0, BuildingBlock: BEQFEK_clean_sbu_0, # of connection points: 5
#     Node 27, Type 0, BuildingBlock: BEQFEK_clean_sbu_0, # of connection points: 5
#     Node 28, Type 0, BuildingBlock: BEQFEK_clean_sbu_0, # of connection points: 5
#     Node 29, Type 0, BuildingBlock: BEQFEK_clean_sbu_0, # of connection points: 5
#     Node 30, Type 0, BuildingBlock: BEQFEK_clean_sbu_0, # of connection points: 5
#     Node 31, Type 0, BuildingBlock: BEQFEK_clean_sbu_0, # of connection points: 5
#     Edge 32, Type (0, 0), BuildingBlock: XIVTED_clean_linker_0, # of connection points: 2
#     Edge 33, Type (0, 0), BuildingBlock: XIVTED_clean_linker_0, # of connection points: 2
#     Edge 34, Type (0, 0), BuildingBlock: XIVTED_clean_linker_0, # of connection points: 2
#     Edge 35, Type (0, 0), BuildingBlock: XIVTED_clean_linker_0, # of connection points: 2
#     Edge 36, Type (0, 0), BuildingBlock: XIVTED_clean_linker_0, # of connection points: 2
#     Edge 37, Type (0, 0), BuildingBlock: XIVTED_clean_linker_0, # of connection points: 2
#     Edge 38, Type (0, 0), BuildingBlock: XIVTED_clean_linker_0, # of connection points: 2
#     Edge 39, Type (0, 0), BuildingBlock: XIVTED_clean_linker_0, # of connection points: 2
#     Edge 40, Type (0, 0), BuildingBlock: XIVTED_clean_linker_0, # of connection points: 2
#     Edge 41, Type (0, 0), BuildingBlock: XIVTED_clean_linker_0, # of connection points: 2
#     Edge 42, Type (0, 0), BuildingBlock: XIVTED_clean_linker_0, # of connection points: 2
#     Edge 43, Type (0, 0), BuildingBlock: XIVTED_clean_linker_0, # of connection points: 2
#     Edge 44, Type (0, 0), BuildingBlock: XIVTED_clean_linker_0, # of connection points: 2
#     Edge 45, Type (0, 0), BuildingBlock: XIVTED_clean_linker_0, # of connection points: 2
#     Edge 46, Type (0, 0), BuildingBlock: XIVTED_clean_linker_0, # of connection points: 2
#     Edge 47, Type (0, 0), BuildingBlock: XIVTED_clean_linker_0, # of connection points: 2
#     Edge 48, Type (0, 0), BuildingBlock: XIVTED_clean_linker_0, # of connection points: 2
#     Edge 49, Type (0, 0), BuildingBlock: XIVTED_clean_linker_0, # of connection points: 2
#     Edge 50, Type (0, 0), BuildingBlock: XIVTED_clean_linker_0, # of connection points: 2
#     Edge 51, Type (0, 0), BuildingBlock: XIVTED_clean_linker_0, # of connection points: 2
#     Edge 52, Type (0, 0), BuildingBlock: XIVTED_clean_linker_0, # of connection points: 2
#     Edge 53, Type (0, 0), BuildingBlock: XIVTED_clean_linker_0, # of connection points: 2
#     Edge 54, Type (0, 0), BuildingBlock: XIVTED_clean_linker_0, # of connection points: 2
#     Edge 55, Type (0, 0), BuildingBlock: XIVTED_clean_linker_0, # of connection points: 2
#     Edge 56, Type (0, 0), BuildingBlock: XIVTED_clean_linker_0, # of connection points: 2
#     Edge 57, Type (0, 0), BuildingBlock: XIVTED_clean_linker_0, # of connection points: 2
#     Edge 58, Type (0, 0), BuildingBlock: XIVTED_clean_linker_0, # of connection points: 2
#     Edge 59, Type (0, 0), BuildingBlock: XIVTED_clean_linker_0, # of connection points: 2
#     Edge 60, Type (0, 0), BuildingBlock: XIVTED_clean_linker_0, # of connection points: 2
#     Edge 61, Type (0, 0), BuildingBlock: XIVTED_clean_linker_0, # of connection points: 2
#     Edge 62, Type (0, 0), BuildingBlock: XIVTED_clean_linker_0, # of connection points: 2
#     Edge 63, Type (0, 0), BuildingBlock: XIVTED_clean_linker_0, # of connection points: 2
#     Edge 64, Type (0, 0), BuildingBlock: XIVTED_clean_linker_0, # of connection points: 2
#     Edge 65, Type (0, 0), BuildingBlock: XIVTED_clean_linker_0, # of connection points: 2
#     Edge 66, Type (0, 0), BuildingBlock: XIVTED_clean_linker_0, # of connection points: 2
#     Edge 67, Type (0, 0), BuildingBlock: XIVTED_clean_linker_0, # of connection points: 2
#     Edge 68, Type (0, 0), BuildingBlock: XIVTED_clean_linker_0, # of connection points: 2
#     Edge 69, Type (0, 0), BuildingBlock: XIVTED_clean_linker_0, # of connection points: 2
#     Edge 70, Type (0, 0), BuildingBlock: XIVTED_clean_linker_0, # of connection points: 2
#     Edge 71, Type (0, 0), BuildingBlock: XIVTED_clean_linker_0, # of connection points: 2
#     Edge 72, Type (0, 0), BuildingBlock: XIVTED_clean_linker_0, # of connection points: 2
#     Edge 73, Type (0, 0), BuildingBlock: XIVTED_clean_linker_0, # of connection points: 2
#     Edge 74, Type (0, 0), BuildingBlock: XIVTED_clean_linker_0, # of connection points: 2
#     Edge 75, Type (0, 0), BuildingBlock: XIVTED_clean_linker_0, # of connection points: 2
#     Edge 76, Type (0, 0), BuildingBlock: XIVTED_clean_linker_0, # of connection points: 2
#     Edge 77, Type (0, 0), BuildingBlock: XIVTED_clean_linker_0, # of connection points: 2
#     Edge 78, Type (0, 0), BuildingBlock: XIVTED_clean_linker_0, # of connection points: 2
#     Edge 79, Type (0, 0), BuildingBlock: XIVTED_clean_linker_0, # of connection points: 2
#     Edge 80, Type (0, 0), BuildingBlock: XIVTED_clean_linker_0, # of connection points: 2
#     Edge 81, Type (0, 0), BuildingBlock: XIVTED_clean_linker_0, # of connection points: 2
#     Edge 82, Type (0, 0), BuildingBlock: XIVTED_clean_linker_0, # of connection points: 2
#     Edge 83, Type (0, 0), BuildingBlock: XIVTED_clean_linker_0, # of connection points: 2
#     Edge 84, Type (0, 0), BuildingBlock: XIVTED_clean_linker_0, # of connection points: 2
#     Edge 85, Type (0, 0), BuildingBlock: XIVTED_clean_linker_0, # of connection points: 2
#     Edge 86, Type (0, 0), BuildingBlock: XIVTED_clean_linker_0, # of connection points: 2
#     Edge 87, Type (0, 0), BuildingBlock: XIVTED_clean_linker_0, # of connection points: 2
#     Edge 88, Type (0, 0), BuildingBlock: XIVTED_clean_linker_0, # of connection points: 2
#     Edge 89, Type (0, 0), BuildingBlock: XIVTED_clean_linker_0, # of connection points: 2
#     Edge 90, Type (0, 0), BuildingBlock: XIVTED_clean_linker_0, # of connection points: 2
#     Edge 91, Type (0, 0), BuildingBlock: XIVTED_clean_linker_0, # of connection points: 2
#     Edge 92, Type (0, 0), BuildingBlock: XIVTED_clean_linker_0, # of connection points: 2
#     Edge 93, Type (0, 0), BuildingBlock: XIVTED_clean_linker_0, # of connection points: 2
#     Edge 94, Type (0, 0), BuildingBlock: XIVTED_clean_linker_0, # of connection points: 2
#     Edge 95, Type (0, 0), BuildingBlock: XIVTED_clean_linker_0, # of connection points: 2
#     Edge 96, Type (0, 0), BuildingBlock: XIVTED_clean_linker_0, # of connection points: 2
#     Edge 97, Type (0, 0), BuildingBlock: XIVTED_clean_linker_0, # of connection points: 2
#     Edge 98, Type (0, 0), BuildingBlock: XIVTED_clean_linker_0, # of connection points: 2
#     Edge 99, Type (0, 0), BuildingBlock: XIVTED_clean_linker_0, # of connection points: 2
#     Edge 100, Type (0, 0), BuildingBlock: XIVTED_clean_linker_0, # of connection points: 2
#     Edge 101, Type (0, 0), BuildingBlock: XIVTED_clean_linker_0, # of connection points: 2
#     Edge 102, Type (0, 0), BuildingBlock: XIVTED_clean_linker_0, # of connection points: 2
#     Edge 103, Type (0, 0), BuildingBlock: XIVTED_clean_linker_0, # of connection points: 2
#     Edge 104, Type (0, 0), BuildingBlock: XIVTED_clean_linker_0, # of connection points: 2
#     Edge 105, Type (0, 0), BuildingBlock: XIVTED_clean_linker_0, # of connection points: 2
#     Edge 106, Type (0, 0), BuildingBlock: XIVTED_clean_linker_0, # of connection points: 2
#     Edge 107, Type (0, 0), BuildingBlock: XIVTED_clean_linker_0, # of connection points: 2
#     Edge 108, Type (0, 0), BuildingBlock: XIVTED_clean_linker_0, # of connection points: 2
#     Edge 109, Type (0, 0), BuildingBlock: XIVTED_clean_linker_0, # of connection points: 2
#     Edge 110, Type (0, 0), BuildingBlock: XIVTED_clean_linker_0, # of connection points: 2
#     Edge 111, Type (0, 0), BuildingBlock: XIVTED_clean_linker_0, # of connection points: 2
# Relax obj value: 0.087
# Max RMSD: 0.133
# Mean RMSD: 0.133
data_MOF--net-wgq--node1-BEQFEK_clean_sbu_0--edge1-XIVTED_clean_linker_0
_symmetry_space_group_name_H-M    P1
_symmetry_Int_Tables_number       1
_symmetry_cell_setting            triclinic
loop_
_symmetry_equiv_pos_as_xyz
'x, y, z'
_cell_length_a     30.631141
_cell_length_b     30.698703
_cell_length_c     155.20526
_cell_angle_alpha  89.976984
_cell_angle_beta   89.976436
_cell_angle_gamma 90.000017
loop_
_atom_site_label
_atom_site_type_symbol
_atom_site_fract_x
_atom_site_fract_y
_atom_site_fract_z
_atom_type_partial_charge
Co0 Co 0.16164 0.07314 0.1713 0.0
Co1 Co 0.16579 0.07396 0.19147 0.0
C2 C 0.10455 0.01452 0.18203 0.0
O3 O 0.11849 0.02696 0.17467 0.0
O4 O 0.12119 0.02916 0.18897 0.0
C5 C 0.17266 0.04284 0.15353 0.0
O6 O 0.17289 0.00305 0.15665 0.0
C7 C 0.1729 0.04501 0.20942 0.0
C8 C 0.19368 0.10564 0.21592 0.0
C9 C 0.18321 0.06239 0.21744 0.0
N10 N 0.17682 0.07667 0.2035 0.0
N11 N 0.18919 0.11281 0.20742 0.0
C12 C 0.16278 0.99864 0.20722 0.0
H13 H 0.17339 0.99133 0.20054 0.0
H14 H 0.17923 0.976 0.21176 0.0
H15 H 0.12698 0.99347 0.20762 0.0
C16 C 0.25827 0.06659 0.17367 0.0
N17 N 0.21712 0.0677 0.17677 0.0
N18 N 0.21851 0.0658 0.18523 0.0
C19 C 0.26042 0.06183 0.18778 0.0
C20 C 0.28734 0.06268 0.18054 0.0
C21 C 0.26944 0.07329 0.16437 0.0
H22 H 0.24715 0.09771 0.16149 0.0
H23 H 0.26525 0.04208 0.16087 0.0
H24 H 0.30354 0.08474 0.16356 0.0
O25 O 0.13338 0.12864 0.17436 0.0
O26 O 0.13727 0.1298 0.18861 0.0
H27 H 0.27356 0.08679 0.20037 0.0
H28 H 0.30713 0.0407 0.1974 0.0
C29 C 0.274 0.05507 0.19695 0.0
H30 H 0.25076 0.03281 0.20018 0.0
H31 H 0.19457 0.14239 0.20427 0.0
O32 O 0.16834 0.07496 0.15862 0.0
C33 C 0.12508 0.14681 0.18154 0.0
Co34 Co 0.18011 0.91341 0.42109 0.0
Co35 Co 0.1713 0.91333 0.44116 0.0
C36 C 0.23406 0.85376 0.43221 0.0
O37 O 0.22443 0.86905 0.4248 0.0
O38 O 0.2169 0.86928 0.43902 0.0
C39 C 0.19906 0.89689 0.40318 0.0
O40 O 0.20897 0.85741 0.4058 0.0
C41 C 0.19595 0.91685 0.45927 0.0
C42 C 0.13384 0.93453 0.46563 0.0
C43 C 0.17725 0.92483 0.46727 0.0
N44 N 0.16496 0.92126 0.45323 0.0
N45 N 0.12787 0.93174 0.45705 0.0
C46 C 0.24308 0.90896 0.45725 0.0
H47 H 0.251 0.92153 0.45073 0.0
H48 H 0.26452 0.92496 0.46206 0.0
H49 H 0.24951 0.8734 0.45732 0.0
C50 C 0.18622 0.00881 0.42435 0.0
N51 N 0.18351 0.9673 0.42714 0.0
N52 N 0.18224 0.96716 0.4356 0.0
C53 C 0.18562 0.00847 0.43849 0.0
C54 C 0.18792 0.03657 0.43145 0.0
C55 C 0.18286 0.02147 0.41505 0.0
H56 H 0.1577 0.00123 0.41184 0.0
H57 H 0.21462 0.01531 0.41183 0.0
H58 H 0.17387 0.05622 0.41427 0.0
O59 O 0.12288 0.88489 0.42276 0.0
O60 O 0.11685 0.88588 0.43701 0.0
H61 H 0.15561 0.01889 0.45076 0.0
H62 H 0.20244 0.05339 0.44875 0.0
C63 C 0.18863 0.02034 0.44783 0.0
H64 H 0.20986 0.99675 0.45122 0.0
H65 H 0.09855 0.93712 0.4538 0.0
O66 O 0.18681 0.9251 0.40864 0.0
C67 C 0.10227 0.87518 0.42962 0.0
Co68 Co 0.34732 0.9285 0.6698 0.0
Co69 Co 0.34798 0.93054 0.68994 0.0
C70 C 0.40692 0.98855 0.67998 0.0
O71 O 0.39204 0.97323 0.67292 0.0
O72 O 0.39111 0.97685 0.68723 0.0
C73 C 0.33376 0.9602 0.65224 0.0
O74 O 0.33633 0.99991 0.65535 0.0
C75 C 0.34362 0.95466 0.70832 0.0
C76 C 0.32394 0.89175 0.71411 0.0
C77 C 0.33433 0.93441 0.71611 0.0
N78 N 0.33856 0.9252 0.702 0.0
N79 N 0.32676 0.88775 0.7055 0.0
C80 C 0.36029 0.99988 0.70686 0.0
H81 H 0.33869 0.01694 0.70222 0.0
H82 H 0.36264 0.01881 0.71292 0.0
H83 H 0.39323 0.998 0.70392 0.0
C84 C 0.2519 0.93725 0.67287 0.0
N85 N 0.29346 0.93518 0.67569 0.0
N86 N 0.29379 0.9382 0.68414 0.0
C87 C 0.25247 0.94375 0.68696 0.0
C88 C 0.22427 0.94306 0.67991 0.0
C89 C 0.23888 0.93006 0.66369 0.0
H90 H 0.25989 0.9047 0.66074 0.0
H91 H 0.24334 0.96082 0.66003 0.0
H92 H 0.20433 0.91958 0.66316 0.0
O93 O 0.37452 0.8723 0.67242 0.0
O94 O 0.37723 0.87535 0.68666 0.0
H95 H 0.24024 0.92055 0.69971 0.0
H96 H 0.20838 0.96786 0.69678 0.0
C97 C 0.24076 0.95197 0.69618 0.0
H98 H 0.26562 0.97329 0.69919 0.0
H99 H 0.32103 0.8593 0.702 0.0
O100 O 0.33777 0.9278 0.65726 0.0
C101 C 0.3861 0.85621 0.6796 0.0
Co102 Co 0.3149 0.09827 0.91983 0.0
Co103 Co 0.30971 0.09889 0.93995 0.0
C104 C 0.25208 0.15651 0.92984 0.0
O105 O 0.26931 0.14194 0.92293 0.0
O106 O 0.26236 0.14079 0.93717 0.0
C107 C 0.28165 0.07481 0.90304 0.0
O108 O 0.24604 0.06297 0.90714 0.0
C109 C 0.28857 0.1008 0.9586 0.0
C110 C 0.34114 0.05894 0.96376 0.0
C111 C 0.30439 0.08226 0.96617 0.0
N112 N 0.31423 0.08795 0.95204 0.0
N113 N 0.3459 0.06349 0.9552 0.0
C114 C 0.2524 0.1332 0.95764 0.0
H115 H 0.22306 0.11659 0.95503 0.0
H116 H 0.24427 0.14897 0.96386 0.0
H117 H 0.26231 0.15891 0.95303 0.0
C118 C 0.31019 0.00271 0.92284 0.0
N119 N 0.30936 0.04428 0.92564 0.0
N120 N 0.30343 0.0446 0.93402 0.0
C121 C 0.29787 0.00318 0.93676 0.0
C122 C 0.30247 0.97504 0.92978 0.0
C123 C 0.32295 0.98963 0.91389 0.0
H124 H 0.34496 0.01435 0.91102 0.0
H125 H 0.29324 0.98687 0.90985 0.0
H126 H 0.33978 0.95761 0.91391 0.0
O127 O 0.37048 0.12613 0.92255 0.0
O128 O 0.36471 0.12993 0.93677 0.0
H129 H 0.31511 0.98442 0.94958 0.0
H130 H 0.26489 0.96104 0.94578 0.0
C131 C 0.28524 0.99096 0.94576 0.0
H132 H 0.2667 0.01777 0.94884 0.0
H133 H 0.37048 0.04937 0.95147 0.0
O134 O 0.31368 0.09016 0.90725 0.0
C135 C 0.38492 0.13875 0.9298 0.0
Co136 Co 0.16984 0.93339 0.32245 0.0
Co137 Co 0.16921 0.9214 0.30245 0.0
C138 C 0.10879 0.98483 0.31178 0.0
O139 O 0.12562 0.97773 0.31916 0.0
O140 O 0.12336 0.96584 0.30505 0.0
C141 C 0.17033 0.96341 0.34029 0.0
O142 O 0.14936 0.99805 0.33754 0.0
C143 C 0.18075 0.94745 0.28436 0.0
C144 C 0.1749 0.8839 0.27777 0.0
C145 C 0.18049 0.92803 0.27628 0.0
N146 N 0.17567 0.91611 0.29032 0.0
N147 N 0.17249 0.8782 0.28634 0.0
C148 C 0.18267 0.99502 0.28642 0.0
H149 H 0.17129 0.00121 0.29309 0.0
H150 H 0.21694 0.00639 0.28592 0.0
H151 H 0.16263 0.01388 0.28178 0.0
C152 C 0.26462 0.94618 0.31894 0.0
N153 N 0.22333 0.93905 0.31627 0.0
N154 N 0.22346 0.93231 0.30791 0.0
C155 C 0.26498 0.93356 0.30502 0.0
C156 C 0.2927 0.94266 0.31191 0.0
C157 C 0.27633 0.95797 0.328 0.0
H158 H 0.25118 0.98002 0.33072 0.0
H159 H 0.30855 0.97437 0.32834 0.0
H160 H 0.2772 0.92796 0.33199 0.0
O161 O 0.14071 0.8763 0.32043 0.0
O162 O 0.1443 0.86623 0.30632 0.0
H163 H 0.25728 0.89522 0.29356 0.0
H164 H 0.31267 0.91177 0.29566 0.0
C165 C 0.27801 0.92209 0.296 0.0
H166 H 0.27325 0.95088 0.29178 0.0
H167 H 0.16778 0.84848 0.28947 0.0
O168 O 0.18168 0.93418 0.33496 0.0
C169 C 0.13258 0.85359 0.31376 0.0
Co170 Co 0.30931 0.9134 0.5715 0.0
Co171 Co 0.32486 0.91147 0.55163 0.0
C172 C 0.25996 0.8517 0.56064 0.0
O173 O 0.26567 0.86903 0.56801 0.0
O174 O 0.28018 0.8658 0.55402 0.0
C175 C 0.30206 0.89521 0.58933 0.0
O176 O 0.3037 0.85476 0.58659 0.0
C177 C 0.29924 0.92331 0.53364 0.0
C178 C 0.36212 0.9145 0.52687 0.0
C179 C 0.31804 0.92194 0.5255 0.0
N180 N 0.33083 0.91714 0.53951 0.0
N181 N 0.36838 0.9122 0.53544 0.0
C182 C 0.25183 0.92711 0.53585 0.0
H183 H 0.24577 0.91684 0.54259 0.0
H184 H 0.24152 0.96159 0.53521 0.0
H185 H 0.23189 0.90719 0.53137 0.0
C186 C 0.29779 0.00774 0.5677 0.0
N187 N 0.30481 0.96632 0.56517 0.0
N188 N 0.31305 0.96589 0.55686 0.0
C189 C 0.31296 0.00716 0.55388 0.0
C190 C 0.30301 0.03528 0.56064 0.0
C191 C 0.28486 0.02018 0.57667 0.0
H192 H 0.26217 0.99549 0.57935 0.0
H193 H 0.26872 0.05252 0.57682 0.0
H194 H 0.31442 0.02111 0.5808 0.0
O195 O 0.36735 0.8846 0.57004 0.0
O196 O 0.37948 0.88706 0.55595 0.0
H197 H 0.35336 0.99804 0.54272 0.0
H198 H 0.33819 0.05386 0.54468 0.0
C199 C 0.32667 0.01963 0.54495 0.0
H200 H 0.29853 0.01587 0.54052 0.0
H201 H 0.39813 0.90627 0.5385 0.0
O202 O 0.30314 0.92602 0.58388 0.0
C203 C 0.39112 0.87607 0.56351 0.0
Co204 Co 0.34248 0.05881 0.82278 0.0
Co205 Co 0.34303 0.05423 0.8027 0.0
C206 C 0.40164 0.99713 0.8128 0.0
O207 O 0.38643 0.01352 0.81973 0.0
O208 O 0.38627 0.00792 0.80547 0.0
C209 C 0.32051 0.02609 0.83973 0.0
O210 O 0.30977 0.98973 0.8358 0.0
C211 C 0.3382 0.02853 0.78444 0.0
C212 C 0.31863 0.0909 0.77845 0.0
C213 C 0.32906 0.04805 0.77654 0.0
N214 N 0.33365 0.05868 0.79064 0.0
N215 N 0.32195 0.09583 0.78703 0.0
C216 C 0.34805 0.98166 0.78624 0.0
H217 H 0.33754 0.97295 0.79286 0.0
H218 H 0.33133 0.9602 0.78153 0.0
H219 H 0.3838 0.97634 0.78576 0.0
C220 C 0.24663 0.05265 0.81979 0.0
N221 N 0.2883 0.05259 0.81699 0.0
N222 N 0.28862 0.04775 0.80858 0.0
C223 C 0.24715 0.04281 0.80579 0.0
C224 C 0.21891 0.04593 0.81281 0.0
C225 C 0.23342 0.06384 0.82882 0.0
H226 H 0.25752 0.08633 0.83174 0.0
H227 H 0.23195 0.03363 0.83273 0.0
H228 H 0.20077 0.07948 0.82894 0.0
O229 O 0.37025 0.11451 0.81999 0.0
O230 O 0.37291 0.10956 0.80576 0.0
H231 H 0.2348 0.06442 0.79294 0.0
H232 H 0.20266 0.01779 0.79616 0.0
C233 C 0.2352 0.03346 0.79663 0.0
H234 H 0.25982 0.01157 0.7937 0.0
H235 H 0.31633 0.12461 0.79043 0.0
O236 O 0.33454 0.05814 0.83536 0.0
C237 C 0.38203 0.12951 0.81272 0.0
Co238 Co 0.19003 0.08873 0.07232 0.0
Co239 Co 0.17648 0.09072 0.05229 0.0
C240 C 0.24019 0.15061 0.06148 0.0
O241 O 0.23354 0.13347 0.06885 0.0
O242 O 0.22073 0.13646 0.05478 0.0
C243 C 0.19269 0.1071 0.09022 0.0
O244 O 0.18721 0.14711 0.08741 0.0
C245 C 0.20067 0.08298 0.03395 0.0
C246 C 0.13562 0.08176 0.02781 0.0
C247 C 0.17992 0.08105 0.02596 0.0
N248 N 0.16991 0.08464 0.04013 0.0
N249 N 0.13115 0.08372 0.03641 0.0
C250 C 0.24858 0.08547 0.03577 0.0
H251 H 0.25472 0.09654 0.04244 0.0
H252 H 0.26312 0.05257 0.03507 0.0
H253 H 0.26481 0.10786 0.03115 0.0
C254 C 0.20285 0.99448 0.06845 0.0
N255 N 0.19543 0.03591 0.06595 0.0
N256 N 0.1886 0.03656 0.05759 0.0
C257 C 0.19028 0.99551 0.05453 0.0
C258 C 0.19962 0.96726 0.0613 0.0
C259 C 0.2144 0.98179 0.07748 0.0
H260 H 0.23672 0.00638 0.0803 0.0
H261 H 0.23041 0.9494 0.0777 0.0
H262 H 0.18424 0.98091 0.08144 0.0
O263 O 0.13189 0.11706 0.0707 0.0
O264 O 0.12153 0.11475 0.05656 0.0
H265 H 0.1502 0.00228 0.0433 0.0
H266 H 0.17148 0.94825 0.04482 0.0
C267 C 0.17904 0.98342 0.04545 0.0
H268 H 0.20689 0.99164 0.04117 0.0
H269 H 0.10161 0.08504 0.03975 0.0
O270 O 0.19572 0.07631 0.0848 0.0
C271 C 0.10886 0.12545 0.06406 0.0
Co272 Co 0.84199 0.91528 0.82323 0.0
Co273 Co 0.84361 0.92057 0.80307 0.0
C274 C 0.90173 0.97726 0.81354 0.0
O275 O 0.8863 0.96096 0.82047 0.0
O276 O 0.88668 0.96634 0.80619 0.0
C277 C 0.82905 0.9456 0.84082 0.0
O278 O 0.8321 0.98514 0.83764 0.0
C279 C 0.83907 0.94943 0.78496 0.0
C280 C 0.82097 0.88783 0.77851 0.0
C281 C 0.8304 0.93125 0.77692 0.0
N282 N 0.83511 0.91801 0.79094 0.0
N283 N 0.82436 0.88132 0.78704 0.0
C284 C 0.84772 0.99614 0.7871 0.0
H285 H 0.83741 0.00322 0.79381 0.0
H286 H 0.83011 0.01806 0.7826 0.0
H287 H 0.88328 0.00257 0.78658 0.0
C288 C 0.74665 0.92327 0.82005 0.0
N289 N 0.78836 0.92247 0.81728 0.0
N290 N 0.78899 0.92675 0.80886 0.0
C291 C 0.74766 0.93182 0.80601 0.0
C292 C 0.71917 0.9295 0.813 0.0
C293 C 0.73349 0.91429 0.82917 0.0
H294 H 0.75502 0.88899 0.83198 0.0
H295 H 0.73711 0.94453 0.83302 0.0
H296 H 0.69919 0.90289 0.82959 0.0
O297 O 0.86991 0.85987 0.8202 0.0
O298 O 0.87291 0.86479 0.80597 0.0
H299 H 0.73697 0.90992 0.79312 0.0
H300 H 0.7032 0.95562 0.79623 0.0
C301 C 0.7361 0.94084 0.79681 0.0
H302 H 0.76028 0.96348 0.79396 0.0
H303 H 0.81928 0.85181 0.79023 0.0
O304 O 0.83227 0.91302 0.83582 0.0
C305 C 0.88173 0.84479 0.81294 0.0
Co306 Co 0.80875 0.09237 0.57322 0.0
Co307 Co 0.8137 0.09839 0.55316 0.0
C308 C 0.75206 0.1544 0.56346 0.0
O309 O 0.7641 0.13666 0.57049 0.0
O310 O 0.76716 0.14154 0.55623 0.0
C311 C 0.80275 0.1091 0.59106 0.0
O312 O 0.80076 0.14961 0.58836 0.0
C313 C 0.78429 0.09085 0.5353 0.0
C314 C 0.84679 0.09023 0.52818 0.0
C315 C 0.80192 0.08854 0.52706 0.0
N316 N 0.81721 0.09394 0.54097 0.0
N317 N 0.85448 0.09369 0.53668 0.0
C318 C 0.73739 0.0875 0.5379 0.0
H319 H 0.73477 0.07473 0.54458 0.0
H320 H 0.71918 0.06603 0.53341 0.0
H321 H 0.72248 0.12044 0.53776 0.0
C322 C 0.79827 0.99871 0.56915 0.0
N323 N 0.80259 0.0406 0.5667 0.0
N324 N 0.80632 0.04247 0.55828 0.0
C325 C 0.8059 0.00155 0.55509 0.0
C326 C 0.80069 0.97222 0.56189 0.0
C327 C 0.79014 0.98488 0.57826 0.0
H328 H 0.76738 0.00803 0.58141 0.0
H329 H 0.77583 0.95173 0.57859 0.0
H330 H 0.82142 0.98535 0.58187 0.0
O331 O 0.86576 0.12151 0.57124 0.0
O332 O 0.8685 0.12538 0.55698 0.0
H333 H 0.84139 0.0116 0.54337 0.0
H334 H 0.82416 0.95623 0.54499 0.0
C335 C 0.81464 0.9908 0.54584 0.0
H336 H 0.78489 0.99752 0.54199 0.0
H337 H 0.88518 0.09565 0.53957 0.0
O338 O 0.80586 0.07861 0.58559 0.0
C339 C 0.88476 0.13359 0.56434 0.0
Co340 Co 0.66882 0.07069 0.32276 0.0
Co341 Co 0.66892 0.08056 0.30268 0.0
C342 C 0.60914 0.01714 0.31203 0.0
O343 O 0.62503 0.02573 0.31944 0.0
O344 O 0.62409 0.03526 0.30524 0.0
C345 C 0.66728 0.04285 0.3408 0.0
O346 O 0.64415 0.00927 0.33822 0.0
C347 C 0.67679 0.053 0.28472 0.0
C348 C 0.68317 0.11611 0.27797 0.0
C349 C 0.68102 0.07156 0.27659 0.0
N350 N 0.67619 0.08515 0.29057 0.0
N351 N 0.67997 0.12279 0.28651 0.0
C352 C 0.67556 0.00574 0.28705 0.0
H353 H 0.68842 0.00092 0.29367 0.0
H354 H 0.69492 0.98615 0.28241 0.0
H355 H 0.64121 0.99427 0.28694 0.0
C356 C 0.76387 0.05772 0.31938 0.0
N357 N 0.72265 0.06493 0.31667 0.0
N358 N 0.72291 0.07052 0.30827 0.0
C359 C 0.76437 0.06818 0.30538 0.0
C360 C 0.79196 0.05974 0.31232 0.0
C361 C 0.77548 0.04704 0.3285 0.0
H362 H 0.75031 0.02529 0.33131 0.0
H363 H 0.80775 0.03081 0.32894 0.0
H364 H 0.77618 0.07754 0.33234 0.0
O365 O 0.6393 0.12741 0.32049 0.0
O366 O 0.64271 0.13548 0.30632 0.0
H367 H 0.81277 0.08437 0.29568 0.0
H368 H 0.76895 0.04905 0.29218 0.0
C369 C 0.77737 0.07747 0.29627 0.0
H370 H 0.7591 0.10611 0.29385 0.0
H371 H 0.68023 0.15304 0.28957 0.0
O372 O 0.68039 0.07066 0.33532 0.0
C373 C 0.63081 0.14901 0.31368 0.0
Co374 Co 0.68654 0.90896 0.07373 0.0
Co375 Co 0.68818 0.90923 0.05361 0.0
C376 C 0.74613 0.84981 0.06315 0.0
O377 O 0.73065 0.86463 0.0702 0.0
O378 O 0.73472 0.86588 0.05592 0.0
C379 C 0.72236 0.93262 0.09034 0.0
O380 O 0.75598 0.94785 0.08603 0.0
C381 C 0.70997 0.91153 0.03511 0.0
C382 C 0.65332 0.94753 0.02988 0.0
C383 C 0.69247 0.92833 0.02757 0.0
N384 N 0.68232 0.92041 0.0416 0.0
N385 N 0.64833 0.94149 0.03841 0.0
C386 C 0.75365 0.89055 0.03628 0.0
H387 H 0.76959 0.90365 0.04215 0.0
H388 H 0.77512 0.8961 0.03062 0.0
H389 H 0.74904 0.855 0.03719 0.0
C390 C 0.69125 0.00481 0.07081 0.0
N391 N 0.69185 0.96324 0.06799 0.0
N392 N 0.69639 0.96306 0.05957 0.0
C393 C 0.7012 0.0045 0.0568 0.0
C394 C 0.69764 0.03257 0.06382 0.0
C395 C 0.67923 0.01781 0.0798 0.0
H396 H 0.65858 0.99244 0.08284 0.0
H397 H 0.70934 0.02196 0.08368 0.0
H398 H 0.66125 0.0492 0.07981 0.0
O399 O 0.62999 0.88215 0.07136 0.0
O400 O 0.63312 0.87926 0.05709 0.0
H401 H 0.68047 0.02106 0.04407 0.0
H402 H 0.73002 0.04772 0.04742 0.0
C403 C 0.71139 0.01675 0.04769 0.0
H404 H 0.73086 0.99076 0.04456 0.0
H405 H 0.62217 0.95267 0.04211 0.0
O406 O 0.6905 0.91571 0.08632 0.0
C407 C 0.61403 0.8703 0.06418 0.0
Co408 Co 0.84709 0.07535 0.6715 0.0
Co409 Co 0.84841 0.07077 0.69161 0.0
C410 C 0.90722 0.01428 0.6812 0.0
O411 O 0.89172 0.03047 0.67428 0.0
O412 O 0.89202 0.02506 0.68856 0.0
C413 C 0.83593 0.04465 0.65393 0.0
O414 O 0.84161 0.00517 0.657 0.0
C415 C 0.84439 0.04334 0.70984 0.0
C416 C 0.82527 0.10527 0.71608 0.0
C417 C 0.83553 0.06223 0.71779 0.0
N418 N 0.83925 0.07392 0.70373 0.0
N419 N 0.82776 0.11077 0.7075 0.0
C420 C 0.86076 0.99831 0.70805 0.0
H421 H 0.89336 1.00052 0.70497 0.0
H422 H 0.83857 0.98203 0.70341 0.0
H423 H 0.86372 0.97848 0.71398 0.0
C424 C 0.75227 0.06525 0.67447 0.0
N425 N 0.79366 0.06749 0.67736 0.0
N426 N 0.79387 0.06364 0.68579 0.0
C427 C 0.75245 0.05746 0.68854 0.0
C428 C 0.7245 0.05837 0.68144 0.0
C429 C 0.73952 0.07334 0.6653 0.0
H430 H 0.75988 0.09978 0.66255 0.0
H431 H 0.74519 0.0433 0.66148 0.0
H432 H 0.70471 0.08287 0.66474 0.0
O433 O 0.87378 0.13123 0.67439 0.0
O434 O 0.8774 0.12681 0.68861 0.0
H435 H 0.74018 0.07995 0.70133 0.0
H436 H 0.70781 0.03324 0.69824 0.0
C437 C 0.7404 0.04875 0.69772 0.0
H438 H 0.765 0.02702 0.7007 0.0
H439 H 0.82206 0.13986 0.7042 0.0
O440 O 0.83734 0.07708 0.65899 0.0
C441 C 0.88566 0.14672 0.6816 0.0
Co442 Co 0.68074 0.0934 0.42185 0.0
Co443 Co 0.66555 0.09649 0.44184 0.0
C444 C 0.73095 0.15504 0.43272 0.0
O445 O 0.72459 0.13782 0.42535 0.0
O446 O 0.7109 0.14125 0.43939 0.0
C447 C 0.69925 0.10639 0.4038 0.0
O448 O 0.7105 0.14586 0.4062 0.0
C449 C 0.6889 0.08629 0.46012 0.0
C450 C 0.62433 0.09183 0.46638 0.0
C451 C 0.66836 0.08632 0.46811 0.0
N452 N 0.6583 0.09129 0.45399 0.0
N453 N 0.61978 0.0944 0.45778 0.0
C454 C 0.73683 0.08436 0.45828 0.0
H455 H 0.74396 0.09617 0.45168 0.0
H456 H 0.74806 0.05009 0.45873 0.0
H457 H 0.75522 0.10397 0.46307 0.0
C458 C 0.69231 0.99927 0.42597 0.0
N459 N 0.68497 0.04086 0.42838 0.0
N460 N 0.6771 0.04188 0.4367 0.0
C461 C 0.67782 1.0009 0.43982 0.0
C462 C 0.6878 0.97234 0.43315 0.0
C463 C 0.70515 0.98614 0.41704 0.0
H464 H 0.72798 0.01053 0.4143 0.0
H465 H 0.72109 0.9537 0.41697 0.0
H466 H 0.67558 0.98516 0.41292 0.0
O467 O 0.6229 0.12273 0.42322 0.0
O468 O 0.61145 0.12122 0.43733 0.0
H469 H 0.65486 0.95445 0.44931 0.0
H470 H 0.69305 0.99463 0.4532 0.0
C471 C 0.66496 0.98906 0.44884 0.0
H472 H 0.63745 0.0098 0.45099 0.0
H473 H 0.59042 0.09891 0.45449 0.0
O474 O 0.68647 0.07928 0.40945 0.0
C475 C 0.59951 0.13177 0.42977 0.0
Co476 Co 0.66612 0.93926 0.17089 0.0
Co477 Co 0.66128 0.93594 0.19101 0.0
C478 C 0.60475 0.99687 0.1806 0.0
O479 O 0.62221 0.98439 0.17357 0.0
O480 O 0.61782 0.98215 0.18785 0.0
C481 C 0.68048 0.97318 0.15369 0.0
O482 O 0.67579 0.01196 0.15714 0.0
C483 C 0.67098 0.96282 0.20919 0.0
C484 C 0.66591 0.89901 0.21573 0.0
C485 C 0.67103 0.94315 0.21727 0.0
N486 N 0.66624 0.93155 0.2032 0.0
N487 N 0.66339 0.89354 0.20716 0.0
C488 C 0.67276 0.01043 0.20716 0.0
H489 H 0.66024 0.01682 0.20058 0.0
H490 H 0.70716 0.02161 0.20743 0.0
H491 H 0.65359 0.02928 0.21195 0.0
C492 C 0.76084 0.94903 0.17481 0.0
N493 N 0.7188 0.94532 0.1773 0.0
N494 N 0.71713 0.94248 0.18575 0.0
C495 C 0.75822 0.94297 0.1889 0.0
C496 C 0.7875 0.94732 0.18207 0.0
C497 C 0.77461 0.95651 0.16567 0.0
H498 H 0.75548 0.98386 0.16297 0.0
H499 H 0.80966 0.96494 0.16512 0.0
H500 H 0.76757 0.92694 0.16181 0.0
O501 O 0.63632 0.88297 0.17318 0.0
O502 O 0.63385 0.88119 0.18744 0.0
H503 H 0.80387 0.92568 0.19901 0.0
H504 H 0.76283 0.96536 0.2019 0.0
C505 C 0.76922 0.93521 0.19817 0.0
H506 H 0.74833 0.90891 0.20079 0.0
H507 H 0.65925 0.86381 0.20401 0.0
O508 O 0.67814 0.9395 0.15842 0.0
C509 C 0.62482 0.86451 0.18017 0.0
Co510 Co 0.81279 0.91556 0.92232 0.0
Co511 Co 0.82597 0.91513 0.94234 0.0
C512 C 0.76212 0.85489 0.93341 0.0
O513 O 0.76941 0.87131 0.926 0.0
O514 O 0.78113 0.86954 0.94012 0.0
C515 C 0.80703 0.89525 0.90452 0.0
O516 O 0.81033 0.85524 0.90746 0.0
C517 C 0.80202 0.91879 0.96059 0.0
C518 C 0.86466 0.93656 0.96673 0.0
C519 C 0.82132 0.92738 0.96848 0.0
N520 N 0.83257 0.92268 0.95444 0.0
N521 N 0.87004 0.93291 0.95815 0.0
C522 C 0.75499 0.90923 0.95884 0.0
H523 H 0.74557 0.92221 0.95243 0.0
H524 H 0.73377 0.92353 0.9639 0.0
H525 H 0.75013 0.87341 0.95878 0.0
C526 C 0.80009 0.00998 0.9258 0.0
N527 N 0.80737 0.96882 0.92847 0.0
N528 N 0.81377 0.96888 0.93685 0.0
C529 C 0.81167 0.01019 0.93977 0.0
C530 C 0.8028 0.0378 0.93287 0.0
C531 C 0.78926 0.02188 0.9167 0.0
H532 H 0.7663 0.99761 0.91397 0.0
H533 H 0.77425 0.05469 0.91628 0.0
H534 H 0.81957 0.02129 0.91278 0.0
O535 O 0.87091 0.88762 0.92401 0.0
O536 O 0.8808 0.89039 0.93816 0.0
H537 H 0.85398 0.00851 0.95069 0.0
H538 H 0.82475 0.05877 0.94964 0.0
C539 C 0.82225 0.02302 0.94884 0.0
H540 H 0.79683 0.01002 0.95323 0.0
H541 H 0.89921 0.93783 0.95481 0.0
O542 O 0.80664 0.9267 0.90983 0.0
C543 C 0.89371 0.87943 0.93069 0.0
Co544 Co 0.66935 0.56338 0.67123 0.0
Co545 Co 0.66415 0.5664 0.69142 0.0
C546 C 0.60843 0.50512 0.68091 0.0
O547 O 0.62583 0.51786 0.67389 0.0
O548 O 0.62129 0.51985 0.68817 0.0
C549 C 0.68382 0.53039 0.65391 0.0
O550 O 0.67949 0.49136 0.65728 0.0
C551 C 0.67264 0.5396 0.70969 0.0
C552 C 0.66539 0.60332 0.71617 0.0
C553 C 0.67083 0.55928 0.71776 0.0
N554 N 0.66847 0.57076 0.70365 0.0
N555 N 0.66443 0.60874 0.70758 0.0
C556 C 0.67537 0.492 0.70771 0.0
H557 H 0.70979 0.4812 0.70831 0.0
H558 H 0.65533 0.47302 0.71234 0.0
H559 H 0.66447 0.48542 0.70103 0.0
C560 C 0.76394 0.5553 0.67521 0.0
N561 N 0.72184 0.55791 0.6777 0.0
N562 N 0.72008 0.56063 0.68615 0.0
C563 C 0.76115 0.56112 0.6893 0.0
C564 C 0.79053 0.55769 0.68247 0.0
C565 C 0.77789 0.54846 0.66606 0.0
H566 H 0.75882 0.52132 0.66326 0.0
H567 H 0.81296 0.54007 0.66553 0.0
H568 H 0.77098 0.57832 0.66227 0.0
O569 O 0.63919 0.61932 0.67355 0.0
O570 O 0.63626 0.62092 0.68781 0.0
H571 H 0.80632 0.57915 0.69945 0.0
H572 H 0.76585 0.53876 0.7023 0.0
C573 C 0.77186 0.56903 0.69858 0.0
H574 H 0.75042 0.59493 0.70119 0.0
H575 H 0.66023 0.63838 0.70439 0.0
O576 O 0.68138 0.56374 0.65873 0.0
C577 C 0.62739 0.63762 0.68053 0.0
Co578 Co 0.68404 0.41633 0.92245 0.0
Co579 Co 0.67049 0.41494 0.94246 0.0
C580 C 0.73361 0.3543 0.93328 0.0
O581 O 0.72738 0.37154 0.92591 0.0
O582 O 0.71404 0.36859 0.93995 0.0
C583 C 0.69136 0.39611 0.90474 0.0
O584 O 0.68996 0.35619 0.90779 0.0
C585 C 0.69693 0.42367 0.96057 0.0
C586 C 0.63292 0.42407 0.96714 0.0
C587 C 0.67751 0.42552 0.96868 0.0
N588 N 0.6652 0.42135 0.95461 0.0
N589 N 0.62706 0.4218 0.95857 0.0
C590 C 0.74455 0.42188 0.95843 0.0
H591 H 0.74971 0.41112 0.9517 0.0
H592 H 0.75876 0.45495 0.95906 0.0
H593 H 0.76184 0.39958 0.96291 0.0
C594 C 0.69745 0.51061 0.9262 0.0
N595 N 0.68992 0.46927 0.92874 0.0
N596 N 0.68302 0.46883 0.9371 0.0
C597 C 0.68476 0.50994 0.94013 0.0
C598 C 0.69424 0.53799 0.93333 0.0
C599 C 0.70886 0.5231 0.91716 0.0
H600 H 0.73085 0.49827 0.91431 0.0
H601 H 0.72516 0.55535 0.9169 0.0
H602 H 0.67859 0.52425 0.91324 0.0
O603 O 0.62575 0.3885 0.92419 0.0
O604 O 0.61505 0.39155 0.93832 0.0
H605 H 0.64461 0.50317 0.95136 0.0
H606 H 0.66512 0.55742 0.94973 0.0
C607 C 0.6732 0.52233 0.94918 0.0
H608 H 0.70112 0.51481 0.95348 0.0
H609 H 0.59701 0.41989 0.95543 0.0
O610 O 0.68984 0.42789 0.90996 0.0
C611 C 0.60247 0.38063 0.93083 0.0
Co612 Co 0.84177 0.4302 0.17204 0.0
Co613 Co 0.8422 0.43929 0.19204 0.0
C614 C 0.90102 0.49394 0.18138 0.0
O615 O 0.88609 0.47582 0.17459 0.0
O616 O 0.88534 0.48504 0.18879 0.0
C617 C 0.83088 0.45871 0.15443 0.0
O618 O 0.83523 0.49847 0.15744 0.0
C619 C 0.84625 0.46301 0.2105 0.0
C620 C 0.80521 0.41097 0.21613 0.0
C621 C 0.82969 0.44732 0.21825 0.0
N622 N 0.83151 0.43739 0.20411 0.0
N623 N 0.80731 0.40622 0.20753 0.0
C624 C 0.87889 0.49869 0.20921 0.0
H625 H 0.90488 0.48732 0.20478 0.0
H626 H 0.86251 0.52708 0.20618 0.0
H627 H 0.89431 0.50879 0.21535 0.0
C628 C 0.74667 0.44008 0.17472 0.0
N629 N 0.78796 0.43882 0.17769 0.0
N630 N 0.78787 0.44524 0.18606 0.0
C631 C 0.74636 0.45259 0.18864 0.0
C632 C 0.71866 0.44919 0.18154 0.0
C633 C 0.73429 0.42915 0.16564 0.0
H634 H 0.75554 0.40275 0.16316 0.0
H635 H 0.73889 0.45835 0.16152 0.0
H636 H 0.6998 0.41836 0.1652 0.0
O637 O 0.86857 0.37512 0.17536 0.0
O638 O 0.87214 0.3831 0.18952 0.0
H639 H 0.72685 0.43594 0.20144 0.0
H640 H 0.70401 0.48621 0.19754 0.0
C641 C 0.73378 0.4656 0.1976 0.0
H642 H 0.76073 0.48386 0.2007 0.0
H643 H 0.79233 0.38155 0.20398 0.0
O644 O 0.83284 0.42657 0.15955 0.0
C645 C 0.88069 0.36161 0.18271 0.0
Co646 Co 0.80594 0.59379 0.42264 0.0
Co647 Co 0.82166 0.59555 0.44251 0.0
C648 C 0.7567 0.65541 0.43357 0.0
O649 O 0.76231 0.63793 0.42621 0.0
O650 O 0.7771 0.64153 0.44019 0.0
C651 C 0.79365 0.61115 0.4048 0.0
O652 O 0.79114 0.65173 0.40745 0.0
C653 C 0.79713 0.58419 0.46064 0.0
C654 C 0.86163 0.58437 0.46701 0.0
C655 C 0.81724 0.58104 0.46867 0.0
N656 N 0.8283 0.58882 0.45461 0.0
N657 N 0.86675 0.58884 0.45846 0.0
C658 C 0.74935 0.58474 0.45863 0.0
H659 H 0.74337 0.59741 0.45206 0.0
H660 H 0.73647 0.551 0.45888 0.0
H661 H 0.73148 0.60493 0.4634 0.0
C662 C 0.79416 0.49949 0.4264 0.0
N663 N 0.80146 0.54086 0.42894 0.0
N664 N 0.80951 0.54123 0.43725 0.0
C665 C 0.80894 0.49996 0.44024 0.0
C666 C 0.79895 0.47194 0.43347 0.0
C667 C 0.78127 0.48713 0.41743 0.0
H668 H 0.75827 0.51165 0.41479 0.0
H669 H 0.76547 0.45464 0.41724 0.0
H670 H 0.81078 0.48667 0.41328 0.0
O671 O 0.86398 0.62262 0.42404 0.0
O672 O 0.87628 0.61988 0.43811 0.0
H673 H 0.85025 0.50737 0.45129 0.0
H674 H 0.83141 0.45255 0.4496 0.0
C675 C 0.82209 0.4874 0.44919 0.0
H676 H 0.79445 0.49356 0.45365 0.0
H677 H 0.89648 0.59216 0.45524 0.0
O678 O 0.79928 0.58104 0.41029 0.0
C679 C 0.88785 0.63099 0.43056 0.0
Co680 Co 0.66499 0.41598 0.82349 0.0
Co681 Co 0.66516 0.4206 0.8033 0.0
C682 C 0.60624 0.47764 0.81353 0.0
O683 O 0.62113 0.4615 0.82052 0.0
O684 O 0.62178 0.46652 0.80623 0.0
C685 C 0.67527 0.44774 0.84101 0.0
O686 O 0.67154 0.48687 0.83766 0.0
C687 C 0.6705 0.44856 0.78511 0.0
C688 C 0.69177 0.38742 0.77887 0.0
C689 C 0.68076 0.43032 0.77715 0.0
N690 N 0.67503 0.41766 0.79119 0.0
N691 N 0.6877 0.38123 0.78741 0.0
C692 C 0.65976 0.49502 0.7871 0.0
H693 H 0.67007 0.5032 0.79376 0.0
H694 H 0.67608 0.51733 0.78248 0.0
H695 H 0.62391 0.49971 0.78664 0.0
C696 C 0.76039 0.42414 0.82064 0.0
N697 N 0.71901 0.42298 0.81771 0.0
N698 N 0.71919 0.42696 0.80928 0.0
C699 C 0.76079 0.43215 0.80659 0.0
C700 C 0.78853 0.43026 0.8137 0.0
C701 C 0.77264 0.41579 0.82984 0.0
H702 H 0.75112 0.39034 0.83261 0.0
H703 H 0.76817 0.44616 0.83361 0.0
H704 H 0.80704 0.40488 0.83042 0.0
O705 O 0.63733 0.36051 0.82046 0.0
O706 O 0.63546 0.36496 0.80621 0.0
H707 H 0.7734 0.40989 0.79379 0.0
H708 H 0.80603 0.45622 0.79697 0.0
C709 C 0.77329 0.44098 0.79743 0.0
H710 H 0.74909 0.4631 0.79443 0.0
H711 H 0.69363 0.35212 0.79068 0.0
O712 O 0.67351 0.41461 0.83612 0.0
C713 C 0.62603 0.34523 0.81318 0.0
Co714 Co 0.82072 0.40969 0.07374 0.0
Co715 Co 0.8189 0.40682 0.05363 0.0
C716 C 0.75997 0.34991 0.06372 0.0
O717 O 0.77586 0.36544 0.07066 0.0
O718 O 0.77153 0.36472 0.05639 0.0
C719 C 0.81089 0.39109 0.09156 0.0
O720 O 0.80841 0.35064 0.08884 0.0
C721 C 0.798 0.40351 0.03507 0.0
C722 C 0.85051 0.44476 0.02969 0.0
C723 C 0.81329 0.42179 0.02744 0.0
N724 N 0.82429 0.41626 0.04152 0.0
N725 N 0.85599 0.44028 0.03824 0.0
C726 C 0.76144 0.37166 0.03619 0.0
H727 H 0.77189 0.34532 0.04061 0.0
H728 H 0.73297 0.38847 0.03911 0.0
H729 H 0.75178 0.35659 0.02999 0.0
C730 C 0.81402 0.50407 0.07041 0.0
N731 N 0.81526 0.46253 0.06765 0.0
N732 N 0.81132 0.46171 0.05923 0.0
C733 C 0.80551 0.50293 0.05638 0.0
C734 C 0.80746 0.53137 0.06337 0.0
C735 C 0.82266 0.51715 0.07955 0.0
H736 H 0.84817 0.49584 0.08237 0.0
H737 H 0.79232 0.51311 0.08338 0.0
H738 H 0.83375 0.55147 0.08 0.0
O739 O 0.87706 0.38169 0.07155 0.0
O740 O 0.87365 0.37687 0.0573 0.0
H741 H 0.82596 0.52075 0.0437 0.0
H742 H 0.77492 0.54461 0.04695 0.0
C743 C 0.79513 0.51464 0.04724 0.0
H744 H 0.77727 0.48768 0.04406 0.0
H745 H 0.88084 0.45447 0.04188 0.0
O746 O 0.81599 0.42154 0.08613 0.0
C747 C 0.89274 0.36864 0.06442 0.0
Co748 Co 0.84255 0.57394 0.32462 0.0
Co749 Co 0.84493 0.56901 0.30453 0.0
C750 C 0.902 0.51147 0.3149 0.0
O751 O 0.8871 0.52831 0.32183 0.0
O752 O 0.88653 0.52196 0.30756 0.0
C753 C 0.82727 0.54336 0.34213 0.0
O754 O 0.83063 0.5036 0.33908 0.0
C755 C 0.84913 0.54739 0.28599 0.0
C756 C 0.81254 0.60282 0.28044 0.0
C757 C 0.83432 0.56488 0.27826 0.0
N758 N 0.83595 0.57354 0.29243 0.0
N759 N 0.81444 0.60674 0.28906 0.0
C760 C 0.8786 0.50903 0.28725 0.0
H761 H 0.86008 0.48234 0.2904 0.0
H762 H 0.89266 0.49734 0.28109 0.0
H763 H 0.90582 0.51836 0.29157 0.0
C764 C 0.74722 0.56687 0.3213 0.0
N765 N 0.78907 0.56757 0.3186 0.0
N766 N 0.79009 0.56282 0.3102 0.0
C767 C 0.74893 0.55705 0.3073 0.0
C768 C 0.7201 0.5599 0.31422 0.0
C769 C 0.73358 0.57648 0.33037 0.0
H770 H 0.75529 0.60157 0.33319 0.0
H771 H 0.73638 0.54636 0.33428 0.0
H772 H 0.69944 0.58843 0.33066 0.0
O773 O 0.87089 0.62935 0.32189 0.0
O774 O 0.87554 0.62375 0.3077 0.0
H775 H 0.73292 0.5765 0.29446 0.0
H776 H 0.70722 0.52657 0.29785 0.0
C777 C 0.73774 0.54598 0.29817 0.0
H778 H 0.76458 0.5271 0.29517 0.0
H779 H 0.80095 0.63207 0.29266 0.0
O780 O 0.83168 0.57565 0.3371 0.0
C781 C 0.884 0.64382 0.31468 0.0
Co782 Co 0.68346 0.59715 0.5739 0.0
Co783 Co 0.6813 0.59389 0.55373 0.0
C784 C 0.74167 0.65429 0.56277 0.0
O785 O 0.72846 0.64056 0.57009 0.0
O786 O 0.72765 0.63747 0.5558 0.0
C787 C 0.72011 0.57407 0.59046 0.0
O788 O 0.75321 0.55851 0.58604 0.0
C789 C 0.70141 0.59154 0.53515 0.0
C790 C 0.64757 0.55069 0.5302 0.0
C791 C 0.68536 0.57204 0.52772 0.0
N792 N 0.675 0.58106 0.54174 0.0
N793 N 0.64254 0.55719 0.53872 0.0
C794 C 0.73849 0.62298 0.53592 0.0
H795 H 0.72755 0.6514 0.53973 0.0
H796 H 0.76596 0.6072 0.53938 0.0
H797 H 0.7497 0.63505 0.52956 0.0
C798 C 0.68662 0.50042 0.57131 0.0
N799 N 0.68722 0.54182 0.56836 0.0
N800 N 0.69068 0.54113 0.55992 0.0
C801 C 0.69515 0.49948 0.55728 0.0
C802 C 0.69196 0.47201 0.56439 0.0
C803 C 0.67575 0.48818 0.5804 0.0
H804 H 0.65581 0.51399 0.58348 0.0
H805 H 0.70636 0.48394 0.58412 0.0
H806 H 0.65744 0.45699 0.5806 0.0
O807 O 0.62703 0.62494 0.57155 0.0
O808 O 0.62639 0.62349 0.55725 0.0
H809 H 0.67486 0.48059 0.54464 0.0
H810 H 0.72518 0.45603 0.5481 0.0
C811 C 0.70561 0.48645 0.54822 0.0
H812 H 0.72432 0.51256 0.54494 0.0
H813 H 0.61738 0.54462 0.54251 0.0
O814 O 0.68807 0.5912 0.58652 0.0
C815 C 0.60915 0.63456 0.5644 0.0
Co816 Co 0.34346 0.43024 0.32301 0.0
Co817 Co 0.3439 0.43573 0.30289 0.0
C818 C 0.4025 0.49242 0.3133 0.0
O819 O 0.3872 0.47596 0.32023 0.0
O820 O 0.3873 0.4817 0.30595 0.0
C821 C 0.33179 0.45966 0.34065 0.0
O822 O 0.33585 0.4995 0.33767 0.0
C823 C 0.33764 0.46443 0.28474 0.0
C824 C 0.31917 0.40262 0.27842 0.0
C825 C 0.32824 0.44604 0.27674 0.0
N826 N 0.33444 0.43312 0.29077 0.0
N827 N 0.32344 0.39631 0.28694 0.0
C828 C 0.34637 0.51121 0.28681 0.0
H829 H 0.33685 0.51837 0.29356 0.0
H830 H 0.32814 0.53296 0.28237 0.0
H831 H 0.38183 0.51775 0.28612 0.0
C832 C 0.24836 0.43876 0.32022 0.0
N833 N 0.28965 0.43741 0.31725 0.0
N834 N 0.28941 0.44163 0.30883 0.0
C835 C 0.24774 0.44708 0.30617 0.0
C836 C 0.22014 0.44537 0.31332 0.0
C837 C 0.23615 0.43011 0.32941 0.0
H838 H 0.25703 0.40389 0.33208 0.0
H839 H 0.2415 0.46009 0.33325 0.0
H840 H 0.20152 0.42003 0.33002 0.0
O841 O 0.37125 0.37508 0.31998 0.0
O842 O 0.37403 0.38008 0.30576 0.0
H843 H 0.23591 0.42471 0.29336 0.0
H844 H 0.20187 0.47002 0.29657 0.0
C845 C 0.23504 0.45573 0.29702 0.0
H846 H 0.25869 0.47851 0.29405 0.0
H847 H 0.31878 0.36684 0.29017 0.0
O848 O 0.33428 0.4276 0.33552 0.0
C849 C 0.38317 0.36016 0.31273 0.0
Co850 Co 0.31834 0.58867 0.07183 0.0
Co851 Co 0.33221 0.59081 0.05183 0.0
C852 C 0.26779 0.65013 0.06099 0.0
O853 O 0.27449 0.63293 0.06835 0.0
O854 O 0.28733 0.63614 0.05428 0.0
C855 C 0.30155 0.60445 0.08973 0.0
O856 O 0.2921 0.64391 0.08704 0.0
C857 C 0.30787 0.58042 0.03362 0.0
C858 C 0.37197 0.58719 0.02722 0.0
C859 C 0.32788 0.58141 0.02559 0.0
N860 N 0.33881 0.58526 0.03968 0.0
N861 N 0.37706 0.58899 0.03581 0.0
C862 C 0.26006 0.57809 0.03556 0.0
H863 H 0.25331 0.58869 0.04225 0.0
H864 H 0.24884 0.54391 0.03488 0.0
H865 H 0.2414 0.5985 0.03094 0.0
C866 C 0.30635 0.49446 0.06798 0.0
N867 N 0.31349 0.53588 0.06545 0.0
N868 N 0.32077 0.53644 0.05711 0.0
C869 C 0.3199 0.49527 0.05409 0.0
C870 C 0.31044 0.46709 0.06087 0.0
C871 C 0.29407 0.48192 0.07698 0.0
H872 H 0.27157 0.50658 0.07973 0.0
H873 H 0.27793 0.44959 0.07718 0.0
H874 H 0.32392 0.48097 0.08103 0.0
O875 O 0.3762 0.61759 0.07024 0.0
O876 O 0.38679 0.61536 0.05611 0.0
H877 H 0.35936 0.50372 0.04278 0.0
H878 H 0.34234 0.44836 0.04465 0.0
C879 C 0.33212 0.48296 0.04507 0.0
H880 H 0.30368 0.48818 0.04077 0.0
H881 H 0.40657 0.5937 0.03904 0.0
O882 O 0.31291 0.57574 0.08429 0.0
C883 C 0.39925 0.62618 0.06361 0.0
Co884 Co 0.16441 0.55926 0.82333 0.0
Co885 Co 0.16546 0.55229 0.80328 0.0
C886 C 0.10649 0.49603 0.81339 0.0
O887 O 0.12074 0.51371 0.82027 0.0
O888 O 0.12272 0.50563 0.80606 0.0
C889 C 0.18531 0.52722 0.8403 0.0
O890 O 0.19659 0.49101 0.83638 0.0
C891 C 0.16713 0.52983 0.78471 0.0
C892 C 0.20573 0.5851 0.77965 0.0
C893 C 0.18503 0.54696 0.77721 0.0
N894 N 0.17767 0.55633 0.79129 0.0
N895 N 0.20035 0.58944 0.78819 0.0
C896 C 0.13765 0.49122 0.7856 0.0
H897 H 0.15625 0.46372 0.78844 0.0
H898 H 0.12375 0.48119 0.77931 0.0
H899 H 0.11036 0.49925 0.79 0.0
C900 C 0.26044 0.55289 0.82068 0.0
N901 N 0.21899 0.55259 0.81776 0.0
N902 N 0.21924 0.54617 0.80939 0.0
C903 C 0.26086 0.53996 0.80678 0.0
C904 C 0.28858 0.54447 0.81384 0.0
C905 C 0.27304 0.56553 0.82966 0.0
H906 H 0.24858 0.5882 0.83242 0.0
H907 H 0.2746 0.53593 0.83375 0.0
H908 H 0.30556 0.58146 0.82975 0.0
O909 O 0.13704 0.61461 0.82027 0.0
O910 O 0.13468 0.60774 0.80607 0.0
H911 H 0.27953 0.55675 0.79394 0.0
H912 H 0.30384 0.50721 0.79787 0.0
C913 C 0.27354 0.52703 0.79783 0.0
H914 H 0.24702 0.50791 0.79478 0.0
H915 H 0.21248 0.61488 0.79195 0.0
O916 O 0.1713 0.55922 0.83591 0.0
C917 C 0.12531 0.62856 0.81292 0.0
Co918 Co 0.183 0.41186 0.57258 0.0
Co919 Co 0.17145 0.4116 0.55249 0.0
C920 C 0.23553 0.35211 0.56159 0.0
O921 O 0.22755 0.36819 0.56901 0.0
O922 O 0.21679 0.36678 0.55485 0.0
C923 C 0.21929 0.42544 0.58985 0.0
O924 O 0.25817 0.4236 0.58629 0.0
C925 C 0.19629 0.41529 0.53424 0.0
C926 C 0.13425 0.43474 0.52807 0.0
C927 C 0.17746 0.42489 0.52636 0.0
N928 N 0.16561 0.41938 0.54037 0.0
N929 N 0.12848 0.43052 0.53663 0.0
C930 C 0.24305 0.4045 0.536 0.0
H931 H 0.25293 0.41766 0.54237 0.0
H932 H 0.26462 0.41775 0.53088 0.0
H933 H 0.24682 0.36856 0.53617 0.0
C934 C 0.19362 0.5073 0.56912 0.0
N935 N 0.1876 0.46581 0.56648 0.0
N936 N 0.18235 0.46555 0.55807 0.0
C937 C 0.18444 0.50678 0.55509 0.0
C938 C 0.19175 0.53479 0.56198 0.0
C939 C 0.20298 0.51982 0.57825 0.0
H940 H 0.23247 0.50222 0.58046 0.0
H941 H 0.20895 0.55521 0.57898 0.0
H942 H 0.17523 0.50987 0.5824 0.0
O943 O 0.12575 0.38287 0.57061 0.0
O944 O 0.11659 0.38571 0.55645 0.0
H945 H 0.14348 0.50614 0.54398 0.0
H946 H 0.17512 0.55492 0.54495 0.0
C947 C 0.1757 0.51919 0.54592 0.0
H948 H 0.20097 0.5045 0.5417 0.0
H949 H 0.0993 0.43583 0.53994 0.0
O950 O 0.18546 0.4216 0.58518 0.0
C951 C 0.10347 0.37435 0.56389 0.0
Co952 Co 0.34055 0.57669 0.17051 0.0
Co953 Co 0.34258 0.57539 0.19074 0.0
C954 C 0.40063 0.51691 0.18064 0.0
O955 O 0.38531 0.53199 0.17359 0.0
O956 O 0.38531 0.52889 0.18791 0.0
C957 C 0.33386 0.54432 0.15286 0.0
O958 O 0.34694 0.50654 0.15589 0.0
C959 C 0.33912 0.55084 0.20918 0.0
C960 C 0.3215 0.61399 0.21509 0.0
C961 C 0.33101 0.57102 0.21703 0.0
N962 N 0.33424 0.58061 0.20289 0.0
N963 N 0.32367 0.6182 0.20648 0.0
C964 C 0.35454 0.50526 0.20761 0.0
H965 H 0.33162 0.48862 0.20316 0.0
H966 H 0.35774 0.48635 0.21366 0.0
H967 H 0.38686 0.5064 0.20441 0.0
C968 C 0.24558 0.56875 0.17386 0.0
N969 N 0.28726 0.57053 0.17661 0.0
N970 N 0.28795 0.56804 0.18506 0.0
C971 C 0.24666 0.56323 0.18796 0.0
C972 C 0.21817 0.56376 0.18096 0.0
C973 C 0.23243 0.57559 0.16466 0.0
H974 H 0.25274 0.6016 0.16175 0.0
H975 H 0.23806 0.54506 0.161 0.0
H976 H 0.19761 0.58507 0.1641 0.0
O977 O 0.36841 0.63279 0.173 0.0
O978 O 0.37203 0.63029 0.18725 0.0
H979 H 0.23565 0.58784 0.20065 0.0
H980 H 0.20248 0.54108 0.19794 0.0
C981 C 0.23521 0.55611 0.19723 0.0
H982 H 0.25971 0.53448 0.20027 0.0
H983 H 0.31834 0.64691 0.20303 0.0
O984 O 0.32955 0.5764 0.15796 0.0
C985 C 0.38064 0.64903 0.18013 0.0
Co986 Co 0.18274 0.59744 0.9204 0.0
Co987 Co 0.18512 0.59836 0.94049 0.0
C988 C 0.24338 0.65661 0.93053 0.0
O989 O 0.22784 0.64137 0.92353 0.0
O990 O 0.23168 0.64129 0.93781 0.0
C991 C 0.21773 0.57438 0.90376 0.0
O992 O 0.25315 0.5631 0.90798 0.0
C993 C 0.21295 0.59279 0.95856 0.0
C994 C 0.15128 0.5746 0.96503 0.0
C995 C 0.1949 0.58366 0.96658 0.0
N996 N 0.18134 0.58949 0.9526 0.0
N997 N 0.14456 0.57871 0.9565 0.0
C998 C 0.25987 0.60096 0.9564 0.0
H999 H 0.26702 0.58988 0.94974 0.0
H1000 H 0.28172 0.5838 0.96098 0.0
H1001 H 0.26645 0.63645 0.95676 0.0
C1002 C 0.1871 0.50189 0.9235 0.0
N1003 N 0.18793 0.5435 0.92628 0.0
N1004 N 0.19182 0.54387 0.93471 0.0
C1005 C 0.19544 0.50242 0.93755 0.0
C1006 C 0.19236 0.47421 0.93053 0.0
C1007 C 0.17612 0.48881 0.91447 0.0
H1008 H 0.15448 0.5134 0.91145 0.0
H1009 H 0.2066 0.48636 0.91064 0.0
H1010 H 0.1595 0.45669 0.91434 0.0
O1011 O 0.12673 0.62528 0.92292 0.0
O1012 O 0.1299 0.62827 0.93718 0.0
H1013 H 0.17187 0.49173 0.95033 0.0
H1014 H 0.21724 0.4572 0.94735 0.0
C1015 C 0.20323 0.49037 0.94676 0.0
H1016 H 0.22612 0.51388 0.94973 0.0
H1017 H 0.11491 0.57396 0.95333 0.0
O1018 O 0.18507 0.58917 0.90786 0.0
C1019 C 0.11084 0.63726 0.9301 0.0
Co1020 Co 0.16365 0.43906 0.6703 0.0
Co1021 Co 0.16944 0.43712 0.69047 0.0
C1022 C 0.10825 0.49772 0.68165 0.0
O1023 O 0.12101 0.48464 0.67425 0.0
O1024 O 0.12583 0.48346 0.68853 0.0
C1025 C 0.18495 0.47342 0.65334 0.0
O1026 O 0.20054 0.50741 0.65746 0.0
C1027 C 0.17498 0.45706 0.70904 0.0
C1028 C 0.20828 0.39808 0.71392 0.0
C1029 C 0.19106 0.4377 0.71648 0.0
N1030 N 0.18305 0.43032 0.70237 0.0
N1031 N 0.20276 0.39508 0.70534 0.0
C1032 C 0.14879 0.49802 0.70828 0.0
H1033 H 0.11803 0.49062 0.70485 0.0
H1034 H 0.1672 0.52218 0.70439 0.0
H1035 H 0.14023 0.51208 0.71462 0.0
C1036 C 0.26104 0.44166 0.67249 0.0
N1037 N 0.21985 0.44251 0.67561 0.0
N1038 N 0.22151 0.44562 0.68405 0.0
C1039 C 0.26352 0.44933 0.68654 0.0
C1040 C 0.29027 0.44628 0.67931 0.0
C1041 C 0.27232 0.43127 0.66333 0.0
H1042 H 0.24632 0.41118 0.66036 0.0
H1043 H 0.27575 0.462 0.65964 0.0
H1044 H 0.30374 0.41335 0.66296 0.0
O1045 O 0.13534 0.38316 0.67297 0.0
O1046 O 0.13925 0.38254 0.68723 0.0
H1047 H 0.28141 0.42712 0.6991 0.0
H1048 H 0.30903 0.47612 0.69575 0.0
C1049 C 0.27748 0.45837 0.6956 0.0
H1050 H 0.25249 0.47829 0.69894 0.0
H1051 H 0.21242 0.36893 0.70149 0.0
O1052 O 0.16835 0.44211 0.65758 0.0
C1053 C 0.12686 0.36539 0.68018 0.0
Co1054 Co 0.30826 0.41638 0.42156 0.0
Co1055 Co 0.31646 0.4112 0.4416 0.0
C1056 C 0.25418 0.35376 0.43183 0.0
O1057 O 0.26495 0.37144 0.42471 0.0
O1058 O 0.27009 0.36707 0.43896 0.0
C1059 C 0.30223 0.39912 0.40373 0.0
O1060 O 0.30395 0.35855 0.40642 0.0
C1061 C 0.29245 0.41273 0.45991 0.0
C1062 C 0.35503 0.43057 0.46606 0.0
C1063 C 0.31174 0.42118 0.4678 0.0
N1064 N 0.32296 0.41698 0.45375 0.0
N1065 N 0.36041 0.42716 0.45748 0.0
C1066 C 0.24543 0.40306 0.45817 0.0
H1067 H 0.23566 0.41696 0.45185 0.0
H1068 H 0.22428 0.41632 0.46335 0.0
H1069 H 0.24091 0.36722 0.45789 0.0
C1070 C 0.29691 0.50997 0.42553 0.0
N1071 N 0.30234 0.46828 0.42803 0.0
N1072 N 0.30682 0.46679 0.43644 0.0
C1073 C 0.30538 0.50781 0.43957 0.0
C1074 C 0.29908 0.53675 0.43275 0.0
C1075 C 0.28815 0.52336 0.41642 0.0
H1076 H 0.26456 0.50047 0.41344 0.0
H1077 H 0.27457 0.55679 0.41604 0.0
H1078 H 0.31903 0.52184 0.41268 0.0
O1079 O 0.36596 0.38824 0.42315 0.0
O1080 O 0.3709 0.38466 0.43738 0.0
H1081 H 0.31599 0.5546 0.4499 0.0
H1082 H 0.28852 0.50463 0.45293 0.0
C1083 C 0.3143 0.51901 0.44879 0.0
H1084 H 0.34602 0.50471 0.45071 0.0
H1085 H 0.3895 0.43247 0.45414 0.0
O1086 O 0.30295 0.4297 0.40922 0.0
C1087 C 0.38611 0.37643 0.42993 0.0
H1088 H 0.23001 0.99778 0.2709 0.0
H1089 H 0.12796 0.9987 0.2235 0.0
H1090 H 0.1352 0.90406 0.26202 0.0
H1091 H 0.23662 0.07965 0.23102 0.0
H1092 H 0.12837 0.96545 0.23775 0.0
H1093 H 0.23063 0.03071 0.25656 0.0
C1094 C 0.20882 0.98456 0.26598 0.0
C1095 C 0.18182 0.94872 0.26769 0.0
C1096 C 0.15242 0.99019 0.23627 0.0
C1097 C 0.18312 0.9855 0.25123 0.0
C1098 C 0.15255 0.00884 0.22808 0.0
C1099 C 0.18315 0.04111 0.22598 0.0
C1100 C 0.18273 0.00433 0.24245 0.0
C1101 C 0.2127 0.05457 0.23235 0.0
C1102 C 0.20957 0.00304 0.25776 0.0
C1103 C 0.15638 0.9318 0.26097 0.0
N1104 N 0.21182 0.03607 0.2403 0.0
N1105 N 0.15748 0.95046 0.25305 0.0
H1106 H 0.24038 0.8689 0.47316 0.0
H1107 H 0.24967 0.97379 0.52028 0.0
H1108 H 0.15977 0.97704 0.48104 0.0
H1109 H 0.33857 0.87474 0.51129 0.0
H1110 H 0.2143 0.97388 0.50618 0.0
H1111 H 0.27498 0.86909 0.48729 0.0
C1112 C 0.23049 0.89322 0.47781 0.0
C1113 C 0.19808 0.92388 0.47584 0.0
C1114 C 0.24143 0.95199 0.5073 0.0
C1115 C 0.23657 0.92338 0.49215 0.0
C1116 C 0.26132 0.95159 0.51539 0.0
C1117 C 0.29646 0.9235 0.51701 0.0
C1118 C 0.2569 0.92416 0.5008 0.0
C1119 C 0.31142 0.89677 0.51031 0.0
C1120 C 0.24995 0.89302 0.48592 0.0
C1121 C 0.18498 0.95314 0.48228 0.0
N1122 N 0.29143 0.8976 0.50251 0.0
N1123 N 0.2044 0.95231 0.49015 0.0
H1124 H 0.29722 0.01014 0.72174 0.0
H1125 H 0.38237 0.98325 0.77007 0.0
H1126 H 0.37111 0.89889 0.73038 0.0
H1127 H 0.27987 0.0725 0.7628 0.0
H1128 H 0.38368 0.9554 0.75536 0.0
H1129 H 0.29639 0.03799 0.73654 0.0
C1130 C 0.31386 0.99201 0.72675 0.0
C1131 C 0.33503 0.95272 0.72487 0.0
C1132 C 0.3606 0.98077 0.75702 0.0
C1133 C 0.33348 0.98365 0.74176 0.0
C1134 C 0.3594 0.99633 0.76546 0.0
C1135 C 0.33002 0.02941 0.76776 0.0
C1136 C 0.33278 0.99897 0.7508 0.0
C1137 C 0.3028 0.04671 0.76134 0.0
C1138 C 0.31299 0.0076 0.73519 0.0
C1139 C 0.35477 0.92956 0.7316 0.0
N1140 N 0.30484 0.03131 0.75315 0.0
N1141 N 0.35375 0.94549 0.73976 0.0
H1142 H 0.34946 0.07863 0.98126 0.0
H1143 H 0.1419 0.11212 0.01137 0.0
H1144 H 0.21828 0.08667 0.97124 0.0
H1145 H 0.25967 0.04905 0.02022 0.0
H1146 H 0.17187 0.11323 0.9968 0.0
H1147 H 0.31969 0.07818 0.9959 0.0
C1148 C 0.31444 0.08083 0.98214 0.0
C1149 C 0.28643 0.0841 0.97501 0.0
C1150 C 0.19119 0.09944 0.00197 0.0
C1151 C 0.25227 0.08346 0.99171 0.0
C1152 C 0.17417 0.09874 0.01029 0.0
C1153 C 0.19869 0.08154 0.01715 0.0
C1154 C 0.23319 0.08301 0.00046 0.0
C1155 C 0.24019 0.06445 0.01531 0.0
C1156 C 0.29753 0.08046 0.99048 0.0
C1157 C 0.24129 0.08621 0.97652 0.0
N1158 N 0.25625 0.06588 0.00715 0.0
N1159 N 0.22562 0.08614 0.98471 0.0
H1160 H 0.78113 0.90835 0.76308 0.0
H1161 H 0.8727 0.09552 0.73223 0.0
H1162 H 0.88142 0.99895 0.77085 0.0
H1163 H 0.79889 0.98544 0.72302 0.0
H1164 H 0.87164 0.06426 0.74675 0.0
H1165 H 0.78285 0.93955 0.74862 0.0
C1166 C 0.80328 0.93506 0.76178 0.0
C1167 C 0.83042 0.95171 0.76827 0.0
C1168 C 0.85602 0.04673 0.74154 0.0
C1169 C 0.83267 0.98746 0.7517 0.0
C1170 C 0.85658 0.06455 0.73328 0.0
C1171 C 0.83666 0.04246 0.72643 0.0
C1172 C 0.83461 0.00694 0.74298 0.0
C1173 C 0.81568 0.0028 0.7281 0.0
C1174 C 0.80427 0.9528 0.75351 0.0
C1175 C 0.85868 0.98612 0.76618 0.0
N1176 N 0.8151 0.98631 0.73623 0.0
N1177 N 0.85897 0.00295 0.75808 0.0
H1178 H 0.73958 0.03885 0.47363 0.0
H1179 H 0.72478 0.12695 0.52207 0.0
H1180 H 0.64001 0.12735 0.48259 0.0
H1181 H 0.82928 0.04532 0.51275 0.0
H1182 H 0.69079 0.1238 0.50787 0.0
H1183 H 0.77106 0.03794 0.48806 0.0
C1184 C 0.72475 0.0587 0.47858 0.0
C1185 C 0.68783 0.08423 0.47683 0.0
C1186 C 0.72096 0.10623 0.50895 0.0
C1187 C 0.72287 0.08221 0.49346 0.0
C1188 C 0.74012 0.10757 0.5171 0.0
C1189 C 0.77947 0.08559 0.51865 0.0
C1190 C 0.74143 0.08296 0.50228 0.0
C1191 C 0.79881 0.06259 0.51183 0.0
C1192 C 0.74245 0.05774 0.48686 0.0
C1193 C 0.66873 0.10749 0.48364 0.0
N1194 N 0.77959 0.06183 0.50395 0.0
N1195 N 0.68657 0.1061 0.49164 0.0
H1196 H 0.63526 0.99932 0.27127 0.0
H1197 H 0.71894 0.01448 0.22252 0.0
H1198 H 0.7255 0.09727 0.26229 0.0
H1199 H 0.63015 0.91596 0.23182 0.0
H1200 H 0.7221 0.04538 0.237 0.0
H1201 H 0.63431 0.96753 0.2569 0.0
C1202 C 0.65569 0.01358 0.26634 0.0
C1203 C 0.68138 0.05037 0.26804 0.0
C1204 C 0.70173 0.01714 0.23586 0.0
C1205 C 0.67922 0.01505 0.25145 0.0
C1206 C 0.69948 0.99981 0.22756 0.0
C1207 C 0.67342 0.9632 0.22591 0.0
C1208 C 0.67793 0.99755 0.24257 0.0
C1209 C 0.65048 0.94438 0.2328 0.0
C1210 C 0.65468 0.99574 0.25808 0.0
C1211 C 0.70548 0.06868 0.26126 0.0
N1212 N 0.65316 0.96183 0.24081 0.0
N1213 N 0.70386 0.05082 0.25326 0.0
H1214 H 0.77073 0.86381 0.97565 0.0
H1215 H 0.70496 0.9981 0.01713 0.0
H1216 H 0.82686 0.98991 0.9808 0.0
H1217 H 0.72241 0.85891 0.01834 0.0
H1218 H 0.73643 0.99805 0.00257 0.0
H1219 H 0.7391 0.86352 0.99021 0.0
C1220 C 0.77595 0.89155 0.97983 0.0
C1221 C 0.80103 0.92709 0.97707 0.0
C1222 C 0.73343 0.9676 0.00604 0.0
C1223 C 0.76505 0.92708 0.99356 0.0
C1224 C 0.71544 0.96759 0.0143 0.0
C1225 C 0.71166 0.9285 0.01889 0.0
C1226 C 0.74643 0.92807 0.00231 0.0
C1227 C 0.72541 0.88971 0.01499 0.0
C1228 C 0.75828 0.89122 0.98812 0.0
C1229 C 0.80762 0.96198 0.98273 0.0
N1230 N 0.74194 0.89036 0.00686 0.0
N1231 N 0.78932 0.96136 0.99071 0.0
H1232 H 0.62474 0.58479 0.73182 0.0
H1233 H 0.73336 0.41055 0.76358 0.0
H1234 H 0.71957 0.48966 0.72356 0.0
H1235 H 0.6257 0.49364 0.77075 0.0
H1236 H 0.73099 0.44098 0.74903 0.0
H1237 H 0.6272 0.55404 0.74631 0.0
C1238 C 0.64592 0.55722 0.73305 0.0
C1239 C 0.67142 0.53927 0.72643 0.0
C1240 C 0.7081 0.45279 0.75381 0.0
C1241 C 0.67471 0.5041 0.74304 0.0
C1242 C 0.70945 0.43548 0.76212 0.0
C1243 C 0.68038 0.45031 0.76847 0.0
C1244 C 0.67727 0.48506 0.75181 0.0
C1245 C 0.64984 0.48235 0.76619 0.0
C1246 C 0.64723 0.53963 0.74132 0.0
C1247 C 0.69841 0.50372 0.72839 0.0
N1248 N 0.64914 0.4987 0.75805 0.0
N1249 N 0.69943 0.48735 0.73653 0.0
H1250 H 0.64243 0.39408 0.98353 0.0
H1251 H 0.85567 0.42484 0.01202 0.0
H1252 H 0.75788 0.45841 0.97385 0.0
H1253 H 0.72633 0.42014 0.02302 0.0
H1254 H 0.82306 0.42636 -0.00239 0.0
H1255 H 0.67527 0.39272 -0.00215 0.0
C1256 C 0.67477 0.40769 0.98437 0.0
C1257 C 0.69782 0.42526 0.97736 0.0
C1258 C 0.80195 0.42456 0.0032 0.0
C1259 C 0.73561 0.42346 0.99375 0.0
C1260 C 0.82047 0.42357 0.01141 0.0
C1261 C 0.79375 0.42081 0.01873 0.0
C1262 C 0.75641 0.42266 0.00233 0.0
C1263 C 0.74831 0.42003 0.01757 0.0
C1264 C 0.69344 0.40685 0.99255 0.0
C1265 C 0.73952 0.44267 0.9789 0.0
N1266 N 0.73107 0.42061 0.00952 0.0
N1267 N 0.75722 0.44103 0.98691 0.0
H1268 H 0.84687 0.61084 0.2635 0.0
H1269 H 0.83762 0.40076 0.23304 0.0
H1270 H 0.82863 0.47992 0.27294 0.0
H1271 H 0.83197 0.53265 0.22351 0.0
H1272 H 0.84242 0.42891 0.24774 0.0
H1273 H 0.84946 0.58253 0.24877 0.0
C1274 C 0.84391 0.57607 0.26247 0.0
C1275 C 0.83858 0.54754 0.26944 0.0
C1276 C 0.84058 0.45172 0.24243 0.0
C1277 C 0.84108 0.51499 0.25266 0.0
C1278 C 0.83786 0.43568 0.23405 0.0
C1279 C 0.83536 0.46445 0.22705 0.0
C1280 C 0.84041 0.4969 0.24382 0.0
C1281 C 0.83536 0.50936 0.2287 0.0
C1282 C 0.84537 0.55995 0.25407 0.0
C1283 C 0.83438 0.50287 0.26777 0.0
N1284 N 0.83785 0.52423 0.23692 0.0
N1285 N 0.83573 0.48795 0.25954 0.0
H1286 H 0.64199 0.5705 0.51238 0.0
H1287 H 0.85286 0.60804 0.48379 0.0
H1288 H 0.77189 0.56924 0.52313 0.0
H1289 H 0.73815 0.54427 0.47366 0.0
H1290 H 0.82118 0.60381 0.49819 0.0
H1291 H 0.6739 0.57028 0.49788 0.0
C1292 C 0.67718 0.57055 0.51169 0.0
C1293 C 0.70435 0.57166 0.51896 0.0
C1294 C 0.80293 0.591 0.49278 0.0
C1295 C 0.74083 0.5714 0.50248 0.0
C1296 C 0.82092 0.59339 0.48455 0.0
C1297 C 0.79766 0.57776 0.47739 0.0
C1298 C 0.7612 0.57314 0.49388 0.0
C1299 C 0.75655 0.55878 0.47883 0.0
C1300 C 0.69529 0.57033 0.50344 0.0
C1301 C 0.74971 0.57078 0.51771 0.0
N1302 N 0.73943 0.55738 0.4869 0.0
N1303 N 0.76656 0.57122 0.50963 0.0
H1304 H 0.27809 0.42215 0.2631 0.0
H1305 H 0.36883 0.60588 0.23128 0.0
H1306 H 0.37813 0.51404 0.27039 0.0
H1307 H 0.29356 0.49541 0.22274 0.0
H1308 H 0.36793 0.57654 0.24597 0.0
H1309 H 0.27887 0.45219 0.24854 0.0
C1310 C 0.29997 0.44893 0.26167 0.0
C1311 C 0.32739 0.46618 0.26806 0.0
C1312 C 0.35193 0.55851 0.24087 0.0
C1313 C 0.32858 0.50062 0.25136 0.0
C1314 C 0.35241 0.57524 0.23251 0.0
C1315 C 0.33208 0.55245 0.2258 0.0
C1316 C 0.33022 0.51912 0.24254 0.0
C1317 C 0.31072 0.51326 0.22771 0.0
C1318 C 0.30042 0.466 0.25335 0.0
C1319 C 0.35524 0.50068 0.26581 0.0
N1320 N 0.31026 0.49784 0.23592 0.0
N1321 N 0.35505 0.51682 0.25765 0.0
H1322 H 0.25836 0.53228 0.01993 0.0
H1323 H 0.26071 0.63636 0.97267 0.0
H1324 H 0.3528 0.62738 0.01147 0.0
H1325 H 0.17545 0.53102 0.98016 0.0
H1326 H 0.29384 0.63457 0.98695 0.0
H1327 H 0.22592 0.53285 0.00555 0.0
C1328 C 0.27185 0.55379 0.01509 0.0
C1329 C 0.3077 0.58057 0.01695 0.0
C1330 C 0.26815 0.61156 0.98545 0.0
C1331 C 0.2715 0.58059 0.00042 0.0
C1332 C 0.24954 0.61222 0.97725 0.0
C1333 C 0.21607 0.58297 0.97514 0.0
C1334 C 0.25281 0.58178 0.99162 0.0
C1335 C 0.20144 0.55393 0.9815 0.0
C1336 C 0.25364 0.55373 0.00685 0.0
C1337 C 0.32502 0.60638 0.01031 0.0
N1338 N 0.21995 0.554 0.98945 0.0
N1339 N 0.30662 0.60593 0.00236 0.0
H1340 H 0.20706 0.52078 0.72208 0.0
H1341 H 0.18954 0.46146 0.77198 0.0
H1342 H 0.17633 0.39157 0.73116 0.0
H1343 H 0.18193 0.59298 0.76228 0.0
H1344 H 0.19032 0.43445 0.75717 0.0
H1345 H 0.20429 0.54729 0.73691 0.0
C1346 C 0.19892 0.49817 0.72719 0.0
C1347 C 0.19035 0.45427 0.72539 0.0
C1348 C 0.188 0.46919 0.75829 0.0
C1349 C 0.18885 0.48392 0.74238 0.0
C1350 C 0.18699 0.4846 0.76674 0.0
C1351 C 0.18425 0.52947 0.76835 0.0
C1352 C 0.18714 0.49893 0.75142 0.0
C1353 C 0.18358 0.55809 0.76131 0.0
C1354 C 0.19776 0.51321 0.73565 0.0
C1355 C 0.18248 0.42583 0.73229 0.0
N1356 N 0.18499 0.54235 0.75315 0.0
N1357 N 0.18177 0.44117 0.7405 0.0
H1358 H 0.17986 0.49152 0.51488 0.0
H1359 H 0.26614 0.35556 0.47545 0.0
H1360 H 0.22099 0.35852 0.51851 0.0
H1361 H 0.31159 0.48684 0.4795 0.0
H1362 H 0.23401 0.35606 0.49 0.0
H1363 H 0.21336 0.49092 0.50046 0.0
C1364 C 0.19597 0.46227 0.51261 0.0
C1365 C 0.19818 0.42512 0.51782 0.0
C1366 C 0.251 0.38468 0.48767 0.0
C1367 C 0.23507 0.42384 0.50143 0.0
C1368 C 0.26897 0.38451 0.4794 0.0
C1369 C 0.29125 0.42127 0.47636 0.0
C1370 C 0.25444 0.42228 0.49276 0.0
C1371 C 0.29461 0.45793 0.48168 0.0
C1372 C 0.21506 0.46199 0.50445 0.0
C1373 C 0.21917 0.38787 0.51466 0.0
N1374 N 0.2759 0.45775 0.48962 0.0
N1375 N 0.23648 0.38795 0.50659 0.0
H1376 H 0.08639 0.18769 0.16785 0.0
H1377 H 0.92444 0.32986 0.19684 0.0
H1378 H 0.09159 0.18891 0.19567 0.0
H1379 H 0.90973 0.31098 0.16941 0.0
H1380 H 0.98649 0.27975 0.19669 0.0
H1381 H 0.02489 0.23783 0.16838 0.0
C1382 C 0.0751 0.19901 0.17408 0.0
C1383 C 0.09407 0.18372 0.18173 0.0
C1384 C 0.96938 0.28633 0.19073 0.0
C1385 C 0.02293 0.24064 0.18238 0.0
C1386 C 0.93369 0.31462 0.19082 0.0
C1387 C 0.91194 0.32494 0.18311 0.0
C1388 C 0.98351 0.26844 0.18288 0.0
C1389 C 0.92556 0.30427 0.1755 0.0
C1390 C 0.03962 0.22734 0.17437 0.0
C1391 C 0.07793 0.19968 0.1896 0.0
N1392 N 0.96069 0.27738 0.17557 0.0
N1393 N 0.04306 0.22704 0.18972 0.0
H1394 H 0.0644 0.83899 0.41521 0.0
H1395 H 0.9458 0.6555 0.443 0.0
H1396 H 0.05762 0.83845 0.44302 0.0
H1397 H 0.91418 0.6768 0.4162 0.0
H1398 H 0.99607 0.71672 0.44243 0.0
H1399 H 0.01458 0.77652 0.41491 0.0
C1400 C 0.0519 0.82633 0.42124 0.0
C1401 C 0.06552 0.84393 0.42916 0.0
C1402 C 0.97834 0.70787 0.43665 0.0
C1403 C 0.00964 0.77189 0.42883 0.0
C1404 C 0.94991 0.67256 0.43694 0.0
C1405 C 0.92526 0.66118 0.42966 0.0
C1406 C 0.98248 0.73202 0.42902 0.0
C1407 C 0.93237 0.68447 0.42198 0.0
C1408 C 0.02376 0.79048 0.42105 0.0
C1409 C 0.04829 0.826 0.43676 0.0
N1410 N 0.96014 0.71909 0.42188 0.0
N1411 N 0.02172 0.79072 0.4364 0.0
H1412 H 0.41779 0.81038 0.66579 0.0
H1413 H 0.59692 0.68602 0.69404 0.0
H1414 H 0.42604 0.81859 0.69353 0.0
H1415 H 0.58619 0.67248 0.66642 0.0
H1416 H 0.53609 0.73705 0.69383 0.0
H1417 H 0.47874 0.7592 0.66584 0.0
C1418 C 0.43191 0.80093 0.67191 0.0
C1419 C 0.41686 0.81909 0.67966 0.0
C1420 C 0.54719 0.72316 0.6878 0.0
C1421 C 0.48726 0.76115 0.67974 0.0
C1422 C 0.58222 0.69425 0.6879 0.0
C1423 C 0.59659 0.67466 0.68024 0.0
C1424 C 0.52623 0.7326 0.67998 0.0
C1425 C 0.57625 0.68673 0.67249 0.0
C1426 C 0.46699 0.77196 0.67192 0.0
C1427 C 0.43655 0.80558 0.68738 0.0
N1428 N 0.54185 0.71468 0.67257 0.0
N1429 N 0.47094 0.77772 0.68722 0.0
H1430 H 0.43599 0.16582 0.91631 0.0
H1431 H 0.5435 0.35954 0.94338 0.0
H1432 H 0.4153 0.18571 0.94356 0.0
H1433 H 0.57597 0.33291 0.91681 0.0
H1434 H 0.49181 0.29931 0.94313 0.0
H1435 H 0.48589 0.22781 0.91617 0.0
C1436 C 0.44241 0.18275 0.92229 0.0
C1437 C 0.42122 0.17054 0.92995 0.0
C1438 C 0.50997 0.30682 0.93733 0.0
C1439 C 0.47765 0.24215 0.92979 0.0
C1440 C 0.53924 0.34153 0.93744 0.0
C1441 C 0.56446 0.35115 0.93012 0.0
C1442 C 0.50579 0.28142 0.92986 0.0
C1443 C 0.55731 0.32669 0.92261 0.0
C1444 C 0.47066 0.21839 0.92219 0.0
C1445 C 0.43084 0.19383 0.9375 0.0
N1446 N 0.52892 0.29266 0.9227 0.0
N1447 N 0.45807 0.22871 0.93721 0.0
H1448 H 0.10794 0.79761 0.30095 0.0
H1449 H 0.91353 0.69242 0.32831 0.0
H1450 H 0.08547 0.82652 0.32783 0.0
H1451 H 0.92976 0.67543 0.30086 0.0
H1452 H 0.97698 0.74053 0.32842 0.0
H1453 H 0.04577 0.74822 0.30117 0.0
C1454 C 0.09043 0.79303 0.30695 0.0
C1455 C 0.10179 0.81662 0.31436 0.0
C1456 C 0.96642 0.72653 0.32237 0.0
C1457 C 0.02986 0.76064 0.3146 0.0
C1458 C 0.92994 0.69934 0.32228 0.0
C1459 C 0.91633 0.67961 0.31457 0.0
C1460 C 0.9896 0.73392 0.3147 0.0
C1461 C 0.939 0.6898 0.30697 0.0
C1462 C 0.05461 0.7651 0.30704 0.0
C1463 C 0.07788 0.80914 0.32195 0.0
N1464 N 0.97472 0.71593 0.30724 0.0
N1465 N 0.04276 0.78209 0.32185 0.0
H1466 H 0.56948 0.67202 0.55045 0.0
H1467 H 0.41871 0.83226 0.57799 0.0
H1468 H 0.56572 0.6694 0.57827 0.0
H1469 H 0.44757 0.84938 0.55094 0.0
H1470 H 0.47009 0.77121 0.57839 0.0
H1471 H 0.51887 0.73316 0.55057 0.0
C1472 C 0.55751 0.68379 0.55659 0.0
C1473 C 0.5722 0.66562 0.56436 0.0
C1474 C 0.46543 0.78869 0.5724 0.0
C1475 C 0.51469 0.73635 0.56455 0.0
C1476 C 0.43642 0.82382 0.57218 0.0
C1477 C 0.4285 0.84586 0.5644 0.0
C1478 C 0.48635 0.77542 0.56479 0.0
C1479 C 0.4523 0.83325 0.55708 0.0
C1480 C 0.52894 0.71909 0.55665 0.0
C1481 C 0.55545 0.68244 0.57211 0.0
N1482 N 0.47972 0.79862 0.55743 0.0
N1483 N 0.52776 0.71705 0.57201 0.0
H1484 H 0.4192 0.16801 0.79853 0.0
H1485 H 0.59365 0.29861 0.82679 0.0
H1486 H 0.41775 0.17343 0.82635 0.0
H1487 H 0.586 0.309 0.79907 0.0
H1488 H 0.53229 0.24822 0.82656 0.0
H1489 H 0.48096 0.21839 0.79845 0.0
C1490 C 0.43134 0.1803 0.80462 0.0
C1491 C 0.41333 0.16619 0.81246 0.0
C1492 C 0.54417 0.26131 0.82052 0.0
C1493 C 0.48461 0.2231 0.8124 0.0
C1494 C 0.57955 0.28981 0.82063 0.0
C1495 C 0.59491 0.30839 0.81294 0.0
C1496 C 0.52393 0.25116 0.81266 0.0
C1497 C 0.57523 0.29561 0.80516 0.0
C1498 C 0.46685 0.2088 0.80456 0.0
C1499 C 0.43055 0.18322 0.82014 0.0
N1500 N 0.54054 0.26801 0.80523 0.0
N1501 N 0.46545 0.21043 0.81991 0.0
H1502 H 0.0499 0.14653 0.05154 0.0
H1503 H 0.94002 0.33986 0.07834 0.0
H1504 H 0.0828 0.1738 0.07806 0.0
H1505 H 0.92694 0.32328 0.05082 0.0
H1506 H 0.98971 0.27758 0.0787 0.0
H1507 H 0.99872 0.20714 0.05173 0.0
C1508 C 0.04585 0.16479 0.05746 0.0
C1509 C 0.07106 0.15523 0.06478 0.0
C1510 C 0.97621 0.28785 0.07258 0.0
C1511 C 0.01291 0.22541 0.06497 0.0
C1512 C 0.9481 0.32364 0.07235 0.0
C1513 C 0.92907 0.33684 0.06453 0.0
C1514 C 0.98511 0.26491 0.06496 0.0
C1515 C 0.94071 0.31439 0.05699 0.0
C1516 C 0.01687 0.19972 0.05753 0.0
C1517 C 0.06412 0.17998 0.07226 0.0
N1518 N 0.96765 0.27935 0.05741 0.0
N1519 N 0.03596 0.21424 0.07214 0.0
H1520 H 0.08665 0.6642 0.79858 0.0
H1521 H 0.91387 0.79835 0.82659 0.0
H1522 H 0.09075 0.67502 0.82632 0.0
H1523 H 0.92158 0.80797 0.79886 0.0
H1524 H 0.97493 0.74761 0.8264 0.0
H1525 H 0.02484 0.71461 0.79836 0.0
C1526 C 0.07509 0.67767 0.80461 0.0
C1527 C 0.09386 0.66509 0.81249 0.0
C1528 C 0.96313 0.76062 0.82035 0.0
C1529 C 0.02256 0.72198 0.81228 0.0
C1530 C 0.92791 0.78932 0.82044 0.0
C1531 C 0.91268 0.8078 0.81273 0.0
C1532 C 0.98331 0.75014 0.81249 0.0
C1533 C 0.93229 0.79469 0.80496 0.0
C1534 C 0.03957 0.70619 0.80448 0.0
C1535 C 0.07734 0.68358 0.82009 0.0
N1536 N 0.96681 0.76687 0.80505 0.0
N1537 N 0.04243 0.71073 0.8198 0.0
H1538 H 0.92256 0.16961 0.57877 0.0
H1539 H 0.04966 0.34759 0.5509 0.0
H1540 H 0.93056 0.16909 0.55097 0.0
H1541 H 0.07274 0.33082 0.57817 0.0
H1542 H 0.99841 0.28714 0.55131 0.0
H1543 H 0.97373 0.23094 0.57907 0.0
C1544 C 0.93561 0.18179 0.57274 0.0
C1545 C 0.92194 0.16427 0.56482 0.0
C1546 C 0.01449 0.29679 0.55722 0.0
C1547 C 0.97945 0.235 0.56515 0.0
C1548 C 0.04349 0.33166 0.55702 0.0
C1549 C 0.06595 0.34413 0.5645 0.0
C1550 C 0.00762 0.27417 0.56496 0.0
C1551 C 0.0563 0.32227 0.57223 0.0
C1552 C 0.96451 0.21703 0.57293 0.0
C1553 C 0.93985 0.18158 0.55723 0.0
N1554 N 0.02804 0.28808 0.57225 0.0
N1555 N 0.96725 0.21621 0.55758 0.0
H1556 H 0.42772 0.32746 0.29883 0.0
H1557 H 0.585 0.17895 0.32769 0.0
H1558 H 0.41269 0.31151 0.32633 0.0
H1559 H 0.60359 0.20127 0.30045 0.0
H1560 H 0.52247 0.22829 0.32742 0.0
H1561 H 0.49045 0.27854 0.29924 0.0
C1562 C 0.43707 0.3131 0.30493 0.0
C1563 C 0.41499 0.32391 0.31257 0.0
C1564 C 0.54049 0.22266 0.32152 0.0
C1565 C 0.48745 0.26858 0.31311 0.0
C1566 C 0.57653 0.19483 0.32169 0.0
C1567 C 0.59948 0.18564 0.31407 0.0
C1568 C 0.52728 0.24133 0.31368 0.0
C1569 C 0.58677 0.20711 0.30648 0.0
C1570 C 0.47324 0.28552 0.30518 0.0
C1571 C 0.42879 0.30433 0.32029 0.0
N1572 N 0.55131 0.2336 0.30646 0.0
N1573 N 0.46433 0.27789 0.32037 0.0
H1574 H 0.56538 0.8422 0.07795 0.0
H1575 H 0.45814 0.64774 0.0511 0.0
H1576 H 0.5807 0.82497 0.05049 0.0
H1577 H 0.42462 0.67486 0.0776 0.0
H1578 H 0.50867 0.7089 0.05129 0.0
H1579 H 0.51585 0.77985 0.07824 0.0
C1580 C 0.55781 0.82581 0.07195 0.0
C1581 C 0.57748 0.83881 0.06418 0.0
C1582 C 0.49052 0.70133 0.05709 0.0
C1583 C 0.52158 0.7668 0.06452 0.0
C1584 C 0.46192 0.66609 0.05702 0.0
C1585 C 0.43674 0.65632 0.06433 0.0
C1586 C 0.4941 0.7271 0.06452 0.0
C1587 C 0.4433 0.68119 0.07181 0.0
C1588 C 0.52978 0.78998 0.07214 0.0
C1589 C 0.56641 0.81622 0.05663 0.0
N1590 N 0.47108 0.71574 0.07169 0.0
N1591 N 0.53955 0.7811 0.05701 0.0
H1592 H 0.91156 0.19661 0.66791 0.0
H1593 H 0.09745 0.321 0.69438 0.0
H1594 H 0.9305 0.18102 0.69532 0.0
H1595 H 0.08377 0.3271 0.6667 0.0
H1596 H 0.03623 0.27018 0.69496 0.0
H1597 H 0.97205 0.24803 0.66758 0.0
C1598 C 0.92797 0.20448 0.67389 0.0
C1599 C 0.91606 0.18414 0.68165 0.0
C1600 C 0.04686 0.2824 0.68875 0.0
C1601 C 0.98603 0.24254 0.68127 0.0
C1602 C 0.08207 0.31117 0.68841 0.0
C1603 C 0.09573 0.32859 0.68048 0.0
C1604 C 0.02502 0.27108 0.68113 0.0
C1605 C 0.07443 0.31464 0.67296 0.0
C1606 C 0.96282 0.2336 0.67368 0.0
C1607 C 0.93855 0.1958 0.68919 0.0
N1608 N 0.03994 0.287 0.67348 0.0
N1609 N 0.97271 0.22398 0.6888 0.0
H1610 H 0.42273 0.34147 0.41525 0.0
H1611 H 0.5408 0.15479 0.44217 0.0
H1612 H 0.43239 0.33918 0.44303 0.0
H1613 H 0.57415 0.17923 0.41555 0.0
H1614 H 0.49093 0.21634 0.44179 0.0
H1615 H 0.47246 0.27891 0.4146 0.0
C1616 C 0.43587 0.32844 0.4212 0.0
C1617 C 0.423 0.34548 0.42922 0.0
C1618 C 0.50895 0.20811 0.43601 0.0
C1619 C 0.47866 0.27338 0.42849 0.0
C1620 C 0.53714 0.17263 0.43619 0.0
C1621 C 0.56218 0.16206 0.42891 0.0
C1622 C 0.50542 0.23326 0.42849 0.0
C1623 C 0.55562 0.18628 0.42133 0.0
C1624 C 0.46393 0.29254 0.42081 0.0
C1625 C 0.44102 0.3271 0.4367 0.0
N1626 N 0.52806 0.22109 0.42133 0.0
N1627 N 0.46743 0.29178 0.43615 0.0
H1628 H 0.59596 0.81525 0.19369 0.0
H1629 H 0.41193 0.69402 0.16615 0.0
H1630 H 0.58177 0.83066 0.16617 0.0
H1631 H 0.42238 0.6864 0.19387 0.0
H1632 H 0.4738 0.74413 0.16595 0.0
H1633 H 0.53458 0.76486 0.19368 0.0
C1634 C 0.58039 0.80754 0.18762 0.0
C1635 C 0.59394 0.82751 0.17992 0.0
C1636 C 0.46232 0.73174 0.17208 0.0
C1637 C 0.52291 0.77031 0.1799 0.0
C1638 C 0.42672 0.70339 0.17221 0.0
C1639 C 0.41199 0.6857 0.18004 0.0
C1640 C 0.48346 0.74239 0.17982 0.0
C1641 C 0.43258 0.69906 0.18768 0.0
C1642 C 0.54504 0.77901 0.18763 0.0
C1643 C 0.5725 0.81608 0.17225 0.0
N1644 N 0.46746 0.7263 0.18736 0.0
N1645 N 0.53778 0.78851 0.17245 0.0
H1646 H 0.95161 0.85757 0.94336 0.0
H1647 H 0.06242 0.66561 0.91633 0.0
H1648 H 0.9208 0.83186 0.91668 0.0
H1649 H 0.07716 0.68221 0.94381 0.0
H1650 H 0.01238 0.72753 0.91609 0.0
H1651 H 0.00291 0.79703 0.94318 0.0
C1652 C 0.95614 0.83967 0.93741 0.0
C1653 C 0.9315 0.84965 0.93004 0.0
C1654 C 0.02632 0.71737 0.92217 0.0
C1655 C 0.98975 0.77959 0.92985 0.0
C1656 C 0.05464 0.68178 0.92234 0.0
C1657 C 0.07425 0.66872 0.9301 0.0
C1658 C 0.01774 0.74023 0.92982 0.0
C1659 C 0.06292 0.69103 0.93767 0.0
C1660 C 0.98519 0.80479 0.93734 0.0
C1661 C 0.93901 0.82535 0.92252 0.0
N1662 N 0.03573 0.7259 0.93732 0.0
N1663 N 0.96721 0.79115 0.92264 0.0
H1664 H 0.3464 0.10425 0.19104 0.0
H1665 H 0.55578 0.01467 0.16629 0.0
H1666 H 0.33901 0.01674 0.16936 0.0
H1667 H 0.55656 0.03237 0.1939 0.0
H1668 H 0.4794 0.03708 0.16598 0.0
H1669 H 0.42625 0.09684 0.19092 0.0
C1670 C 0.3615 0.08346 0.18626 0.0
C1671 C 0.33589 0.06066 0.18026 0.0
C1672 C 0.49658 0.03672 0.17208 0.0
C1673 C 0.42709 0.05367 0.17987 0.0
C1674 C 0.54038 0.02432 0.17227 0.0
C1675 C 0.56273 0.02103 0.18016 0.0
C1676 C 0.47498 0.04673 0.17979 0.0
C1677 C 0.54064 0.03406 0.18768 0.0
C1678 C 0.40701 0.07959 0.18617 0.0
C1679 C 0.35737 0.03525 0.17405 0.0
N1680 N 0.49783 0.04605 0.18732 0.0
N1681 N 0.40169 0.03253 0.17401 0.0
H1682 H 0.23566 0.30436 0.41765 0.0
H1683 H 0.14387 0.09532 0.44167 0.0
H1684 H 0.22092 0.30533 0.44534 0.0
H1685 H 0.23938 0.08822 0.42129 0.0
H1686 H 0.15226 0.17501 0.44185 0.0
H1687 H 0.21409 0.22792 0.41748 0.0
C1688 C 0.22682 0.28898 0.42369 0.0
C1689 C 0.23066 0.31143 0.43155 0.0
C1690 C 0.17108 0.15581 0.43732 0.0
C1691 C 0.20582 0.22365 0.43132 0.0
C1692 C 0.16665 0.11042 0.43725 0.0
C1693 C 0.19121 0.08497 0.43149 0.0
C1694 C 0.19925 0.17588 0.43141 0.0
C1695 C 0.21931 0.10646 0.42575 0.0
C1696 C 0.21489 0.24516 0.42356 0.0
C1697 C 0.21872 0.28933 0.43914 0.0
N1698 N 0.22236 0.15063 0.42582 0.0
N1699 N 0.20705 0.24649 0.43885 0.0
H1700 H 0.95319 0.97464 0.69434 0.0
H1701 H 0.17472 0.99152 0.66886 0.0
H1702 H 0.95834 1.00046 0.667 0.0
H1703 H 0.16375 0.90603 0.69081 0.0
H1704 H 0.09537 0.99923 0.66869 0.0
H1705 H 0.02972 0.95121 0.69381 0.0
C1706 C 0.96997 0.97452 0.6882 0.0
C1707 C 0.94921 0.99008 0.68073 0.0
C1708 C 0.11027 0.97852 0.67351 0.0
C1709 C 0.03702 0.96443 0.68015 0.0
C1710 C 0.15558 0.97403 0.6736 0.0
C1711 C 0.17595 0.94798 0.67984 0.0
C1712 C 0.08498 0.95759 0.67982 0.0
C1713 C 0.14946 0.92697 0.68596 0.0
C1714 C 0.01371 0.96129 0.68792 0.0
C1715 C 0.97282 0.98909 0.67296 0.0
N1716 N 0.10533 0.93254 0.68586 0.0
N1717 N 0.01559 0.97739 0.6729 0.0
H1718 H 0.27857 0.70355 0.944 0.0
H1719 H 0.26303 0.92303 0.91779 0.0
H1720 H 0.26055 0.70728 0.91641 0.0
H1721 H 0.33577 0.91654 0.94154 0.0
H1722 H 0.25938 0.84366 0.91756 0.0
H1723 H 0.2995 0.78061 0.94365 0.0
C1724 C 0.28 0.72014 0.93784 0.0
C1725 C 0.26717 0.69882 0.93023 0.0
C1726 C 0.27646 0.85955 0.92279 0.0
C1727 C 0.28996 0.78727 0.92985 0.0
C1728 C 0.27866 0.90493 0.92292 0.0
C1729 C 0.29986 0.92661 0.92968 0.0
C1730 C 0.29483 0.83542 0.92957 0.0
C1731 C 0.31844 0.90129 0.93628 0.0
C1732 C 0.29174 0.76423 0.93766 0.0
C1733 C 0.26974 0.72222 0.92246 0.0
N1734 N 0.31518 0.85703 0.9361 0.0
N1735 N 0.27997 0.76528 0.92249 0.0
H1736 H 0.35264 0.90935 0.32333 0.0
H1737 H 0.55862 0.00367 0.29771 0.0
H1738 H 0.34302 0.98585 0.3001 0.0
H1739 H 0.56275 0.97677 0.32502 0.0
H1740 H 0.48271 0.97973 0.29741 0.0
H1741 H 0.4322 0.91919 0.3231 0.0
C1742 C 0.36722 0.92829 0.3182 0.0
C1743 C 0.34108 0.94709 0.31176 0.0
C1744 C 0.50043 0.97855 0.30344 0.0
C1745 C 0.43205 0.9572 0.31131 0.0
C1746 C 0.54399 0.99186 0.30362 0.0
C1747 C 0.5672 0.99287 0.31143 0.0
C1748 C 0.47981 0.96563 0.3111 0.0
C1749 C 0.54619 0.97693 0.31886 0.0
C1750 C 0.4126 0.93357 0.31804 0.0
C1751 C 0.36187 0.97039 0.30514 0.0
N1752 N 0.50356 0.96433 0.31853 0.0
N1753 N 0.40605 0.97473 0.30508 0.0
H1754 H 0.26229 0.08524 0.5485 0.0
H1755 H 0.27726 0.30654 0.57449 0.0
H1756 H 0.33579 0.0952 0.5721 0.0
H1757 H 0.24702 0.30075 0.54734 0.0
H1758 H 0.3003 0.23021 0.57392 0.0
H1759 H 0.25593 0.16456 0.54813 0.0
C1760 C 0.27742 0.10417 0.55357 0.0
C1761 C 0.29947 0.08355 0.56035 0.0
C1762 C 0.28933 0.24595 0.56806 0.0
C1763 C 0.29165 0.1745 0.56007 0.0
C1764 C 0.27635 0.28964 0.56837 0.0
C1765 C 0.2596 0.31017 0.56098 0.0
C1766 C 0.28496 0.22244 0.56035 0.0
C1767 C 0.2593 0.28641 0.55323 0.0
C1768 C 0.27374 0.14948 0.55336 0.0
C1769 C 0.3178 0.10972 0.56683 0.0
N1770 N 0.27097 0.2437 0.55316 0.0
N1771 N 0.31316 0.15382 0.56658 0.0
H1772 H 0.1592 0.0815 0.80152 0.0
H1773 H 0.95281 0.99248 0.82771 0.0
H1774 H 0.16799 0.00287 0.82449 0.0
H1775 H 0.94744 0.01615 0.80029 0.0
H1776 H 0.029 0.01553 0.82773 0.0
H1777 H 0.07934 0.0737 0.80192 0.0
C1778 C 0.14442 0.06253 0.80663 0.0
C1779 C 0.17041 0.04258 0.81296 0.0
C1780 C 0.01093 0.01626 0.82173 0.0
C1781 C 0.07922 0.03498 0.81362 0.0
C1782 C 0.9672 0.00349 0.82172 0.0
C1783 C 0.94361 0.0017 0.81396 0.0
C1784 C 0.0313 0.02786 0.81396 0.0
C1785 C 0.96436 0.01657 0.80642 0.0
C1786 C 0.09889 0.05845 0.80689 0.0
C1787 C 0.14935 0.01933 0.81955 0.0
N1788 N 0.00716 0.02862 0.80659 0.0
N1789 N 0.10511 0.01626 0.81972 0.0
H1790 H 0.22419 0.69384 0.07389 0.0
H1791 H 0.24523 0.91945 0.04952 0.0
H1792 H 0.25961 0.70411 0.04703 0.0
H1793 H 0.16511 0.90566 0.07221 0.0
H1794 H 0.2525 0.84026 0.04882 0.0
H1795 H 0.20187 0.77044 0.07367 0.0
C1796 C 0.2264 0.71181 0.0679 0.0
C1797 C 0.24432 0.69243 0.06049 0.0
C1798 C 0.23306 0.85447 0.05392 0.0
C1799 C 0.21983 0.78042 0.06028 0.0
C1800 C 0.2289 0.89968 0.05432 0.0
C1801 C 0.20448 0.91915 0.06092 0.0
C1802 C 0.21331 0.82839 0.06026 0.0
C1803 C 0.18473 0.89198 0.06708 0.0
C1804 C 0.21384 0.75564 0.0678 0.0
C1805 C 0.24634 0.71754 0.05292 0.0
N1806 N 0.18983 0.84796 0.06664 0.0
N1807 N 0.23503 0.76033 0.05306 0.0
H1808 H 0.45152 0.9806 0.82706 0.0
H1809 H 0.66044 0.89218 0.80178 0.0
H1810 H 0.44891 0.96009 0.79953 0.0
H1811 H 0.66732 0.97431 0.82428 0.0
H1812 H 0.58055 0.90007 0.80185 0.0
H1813 H 0.52786 0.9582 0.82727 0.0
C1814 C 0.46655 0.97043 0.82107 0.0
C1815 C 0.44366 0.97292 0.81324 0.0
C1816 C 0.59969 0.91608 0.80678 0.0
C1817 C 0.53151 0.94737 0.81347 0.0
C1818 C 0.64522 0.91193 0.80672 0.0
C1819 C 0.67067 0.93284 0.81301 0.0
C1820 C 0.57947 0.9405 0.8133 0.0
C1821 C 0.64907 0.95713 0.81938 0.0
C1822 C 0.51035 0.95801 0.8212 0.0
C1823 C 0.46524 0.95906 0.80572 0.0
N1824 N 0.6048 0.96016 0.81938 0.0
N1825 N 0.50812 0.94724 0.806 0.0
H1826 H 0.77819 0.70169 0.57604 0.0
H1827 H 0.75612 0.92099 0.55047 0.0
H1828 H 0.75791 0.70449 0.54852 0.0
H1829 H 0.84156 0.91323 0.57249 0.0
H1830 H 0.75245 0.8414 0.55015 0.0
H1831 H 0.79977 0.7786 0.57547 0.0
C1832 C 0.7792 0.71801 0.56985 0.0
C1833 C 0.76559 0.69643 0.56232 0.0
C1834 C 0.77229 0.85712 0.55501 0.0
C1835 C 0.78903 0.78467 0.5617 0.0
C1836 C 0.77447 0.90254 0.55518 0.0
C1837 C 0.79911 0.92382 0.56152 0.0
C1838 C 0.79412 0.83271 0.56134 0.0
C1839 C 0.8215 0.89818 0.56759 0.0
C1840 C 0.79136 0.76197 0.56955 0.0
C1841 C 0.76767 0.71951 0.5545 0.0
N1842 N 0.81806 0.85396 0.56742 0.0
N1843 N 0.77816 0.7625 0.55442 0.0
H1844 H 0.85302 0.09445 0.32334 0.0
H1845 H 0.05598 0.99434 0.29766 0.0
H1846 H 0.84075 0.01236 0.30093 0.0
H1847 H 0.06375 0.02742 0.32466 0.0
H1848 H 0.97984 0.01756 0.29758 0.0
H1849 H 0.93253 0.08389 0.32293 0.0
C1850 C 0.86702 0.07414 0.31835 0.0
C1851 C 0.84021 0.05417 0.31217 0.0
C1852 C 0.99839 0.02023 0.30349 0.0
C1853 C 0.93102 0.04311 0.31151 0.0
C1854 C 0.04209 0.00734 0.30354 0.0
C1855 C 0.06642 0.00835 0.31121 0.0
C1856 C 0.97876 0.03473 0.31114 0.0
C1857 C 0.0463 0.02571 0.31861 0.0
C1858 C 0.91236 0.06842 0.31809 0.0
C1859 C 0.86019 0.02887 0.30575 0.0
N1860 N 0.00353 0.03788 0.31841 0.0
N1861 N 0.90431 0.02418 0.30557 0.0
H1862 H 0.66152 0.09041 0.05226 0.0
H1863 H 0.74309 0.30041 0.07802 0.0
H1864 H 0.73783 0.08538 0.07559 0.0
H1865 H 0.72286 0.30259 0.05048 0.0
H1866 H 0.72124 0.22409 0.07825 0.0
H1867 H 0.66733 0.17019 0.05241 0.0
C1868 C 0.67959 0.10597 0.0574 0.0
C1869 C 0.6995 0.08104 0.06389 0.0
C1870 C 0.72101 0.24149 0.07218 0.0
C1871 C 0.70474 0.17221 0.06427 0.0
C1872 C 0.73311 0.28528 0.07203 0.0
C1873 C 0.73567 0.30802 0.06418 0.0
C1874 C 0.71082 0.22017 0.06444 0.0
C1875 C 0.72199 0.28634 0.05667 0.0
C1876 C 0.68249 0.15148 0.05751 0.0
C1877 C 0.72141 0.10315 0.07052 0.0
N1878 N 0.71059 0.24346 0.05697 0.0
N1879 N 0.72339 0.14737 0.07054 0.0
H1880 H 0.67738 0.00907 0.67019 0.0
H1881 H 0.44939 0.02927 0.69342 0.0
H1882 H 0.66192 0.09405 0.69209 0.0
H1883 H 0.46203 1.00058 0.6663 0.0
H1884 H 0.52624 0.05161 0.69367 0.0
H1885 H 0.59819 0.00149 0.66933 0.0
C1886 C 0.65727 0.02639 0.67479 0.0
C1887 C 0.67631 0.05248 0.68118 0.0
C1888 C 0.51184 0.04115 0.68765 0.0
C1889 C 0.58541 0.04314 0.68036 0.0
C1890 C 0.46791 0.02855 0.68748 0.0
C1891 C 0.44911 0.0125 0.67985 0.0
C1892 C 0.53732 0.03693 0.68017 0.0
C1893 C 0.47492 0.01243 0.67235 0.0
C1894 C 0.61204 0.02203 0.6743 0.0
C1895 C 0.64861 0.07324 0.68712 0.0
N1896 N 0.5178 0.02358 0.67275 0.0
N1897 N 0.60449 0.06789 0.68661 0.0
H1898 H 0.71175 0.6988 0.42082 0.0
H1899 H 0.73106 0.92472 0.4453 0.0
H1900 H 0.74985 0.70964 0.44753 0.0
H1901 H 0.6548 0.91051 0.42213 0.0
H1902 H 0.73847 0.84557 0.44609 0.0
H1903 H 0.68901 0.77521 0.42108 0.0
C1904 C 0.71449 0.71686 0.42679 0.0
C1905 C 0.73326 0.69769 0.43414 0.0
C1906 C 0.71984 0.85966 0.44085 0.0
C1907 C 0.7082 0.78553 0.43439 0.0
C1908 C 0.71558 0.90487 0.44041 0.0
C1909 C 0.69235 0.92422 0.43363 0.0
C1910 C 0.70127 0.83347 0.4344 0.0
C1911 C 0.67359 0.89694 0.42739 0.0
C1912 C 0.70168 0.76061 0.42691 0.0
C1913 C 0.73591 0.72292 0.44168 0.0
N1914 N 0.67873 0.85295 0.42788 0.0
N1915 N 0.72426 0.76563 0.44157 0.0
H1916 H 0.84709 0.90426 0.17193 0.0
H1917 H 0.05506 0.99926 0.1964 0.0
H1918 H 0.83842 0.9945 0.19314 0.0
H1919 H 0.05703 0.97617 0.16895 0.0
H1920 H 0.97885 0.97633 0.19679 0.0
H1921 H 0.92698 0.91192 0.17215 0.0
C1922 C 0.86197 0.92569 0.17662 0.0
C1923 C 0.83601 0.94931 0.18245 0.0
C1924 C 0.99624 0.97564 0.19071 0.0
C1925 C 0.92716 0.95664 0.18296 0.0
C1926 C 0.03995 0.98836 0.19047 0.0
C1927 C 0.06259 0.99027 0.18259 0.0
C1928 C 0.97501 0.96395 0.18306 0.0
C1929 C 0.04089 0.97559 0.17515 0.0
C1930 C 0.90746 0.92973 0.17678 0.0
C1931 C 0.85711 0.97553 0.18857 0.0
N1932 N 0.99817 0.96334 0.17555 0.0
N1933 N 0.90141 0.97844 0.18867 0.0
H1934 H 0.74313 0.30211 0.94746 0.0
H1935 H 0.8401 0.09772 0.92199 0.0
H1936 H 0.77567 0.30885 0.9204 0.0
H1937 H 0.75523 0.08727 0.94406 0.0
H1938 H 0.83153 0.17732 0.9224 0.0
H1939 H 0.76543 0.22588 0.94759 0.0
C1940 C 0.75582 0.28795 0.94158 0.0
C1941 C 0.75686 0.31196 0.93387 0.0
C1942 C 0.81504 0.15751 0.92717 0.0
C1943 C 0.7822 0.22433 0.93401 0.0
C1944 C 0.81964 0.11219 0.92691 0.0
C1945 C 0.79831 0.08594 0.93301 0.0
C1946 C 0.7895 0.17663 0.93366 0.0
C1947 C 0.77274 0.10634 0.93932 0.0
C1948 C 0.7682 0.24424 0.94166 0.0
C1949 C 0.77392 0.2916 0.92648 0.0
N1950 N 0.76918 0.15044 0.93951 0.0
N1951 N 0.78556 0.2488 0.92671 0.0
H1952 H 0.05976 0.51298 0.69617 0.0
H1953 H 0.84814 0.60289 0.67225 0.0
H1954 H 0.05945 0.53575 0.66871 0.0
H1955 H 0.84344 0.51241 0.69349 0.0
H1956 H 0.92822 0.59769 0.67229 0.0
H1957 H 0.98347 0.53486 0.69678 0.0
C1958 C 0.04421 0.52367 0.69029 0.0
C1959 C 0.06628 0.52189 0.68235 0.0
C1960 C 0.90953 0.57932 0.67697 0.0
C1961 C 0.97837 0.5469 0.68306 0.0
C1962 C 0.86394 0.58196 0.67692 0.0
C1963 C 0.83906 0.55749 0.6828 0.0
C1964 C 0.93038 0.55298 0.6831 0.0
C1965 C 0.86128 0.53199 0.68888 0.0
C1966 C 1.00038 0.53577 0.69065 0.0
C1967 C 0.0438 0.53622 0.67497 0.0
N1968 N 0.90564 0.53042 0.68888 0.0
N1969 N 1.00092 0.54778 0.67548 0.0
H1970 H 0.73961 0.58596 0.9451 0.0
H1971 H 0.71803 0.81109 0.92061 0.0
H1972 H 0.65976 0.59936 0.92238 0.0
H1973 H 0.75418 0.80129 0.94744 0.0
H1974 H 0.69565 0.73456 0.92091 0.0
H1975 H 0.74663 0.66517 0.94579 0.0
C1976 C 0.7233 0.60566 0.94028 0.0
C1977 C 0.69905 0.58608 0.93368 0.0
C1978 C 0.70778 0.74945 0.92676 0.0
C1979 C 0.70753 0.67684 0.93433 0.0
C1980 C 0.72039 0.79324 0.92661 0.0
C1981 C 0.73855 0.81271 0.93399 0.0
C1982 C 0.71397 0.7248 0.93428 0.0
C1983 C 0.74071 0.78777 0.94157 0.0
C1984 C 0.72731 0.65087 0.94068 0.0
C1985 C 0.67928 0.61313 0.92751 0.0
N1986 N 0.72936 0.74499 0.94148 0.0
N1987 N 0.68421 0.65716 0.92794 0.0
H1988 H 0.44457 0.47782 0.19408 0.0
H1989 H 0.67023 0.49278 0.16953 0.0
H1990 H 0.45433 0.50337 0.16678 0.0
H1991 H 0.6571 0.41753 0.19286 0.0
H1992 H 0.5909 0.49955 0.16882 0.0
H1993 H 0.52144 0.45584 0.19414 0.0
C1994 C 0.46247 0.47792 0.18806 0.0
C1995 C 0.44285 0.49301 0.18043 0.0
C1996 C 0.6053 0.48127 0.17407 0.0
C1997 C 0.53118 0.46894 0.18052 0.0
C1998 C 0.65062 0.47734 0.17447 0.0
C1999 C 0.67038 0.45431 0.18123 0.0
C2000 C 0.57932 0.46279 0.18057 0.0
C2001 C 0.64329 0.43601 0.18759 0.0
C2002 C 0.50646 0.46554 0.18812 0.0
C2003 C 0.46789 0.49228 0.17284 0.0
N2004 N 0.59913 0.44087 0.18714 0.0
N2005 N 0.51086 0.48131 0.17311 0.0
H2006 H 0.77311 0.20025 0.41982 0.0
H2007 H 0.75656 0.4225 0.44546 0.0
H2008 H 0.7415 0.20703 0.44691 0.0
H2009 H 0.8322 0.41168 0.42213 0.0
H2010 H 0.74976 0.34321 0.44588 0.0
H2011 H 0.79597 0.27666 0.42031 0.0
C2012 C 0.77185 0.21738 0.42591 0.0
C2013 C 0.75477 0.19712 0.43331 0.0
C2014 C 0.76813 0.35809 0.44069 0.0
C2015 C 0.77992 0.2849 0.43385 0.0
C2016 C 0.77205 0.40336 0.44046 0.0
C2017 C 0.79492 0.42371 0.43375 0.0
C2018 C 0.78661 0.33284 0.43408 0.0
C2019 C 0.81367 0.39734 0.42735 0.0
C2020 C 0.78472 0.26112 0.42617 0.0
C2021 C 0.754 0.22119 0.44101 0.0
N2022 N 0.8088 0.35326 0.42762 0.0
N2023 N 0.76559 0.26391 0.44104 0.0
H2024 H 0.83819 0.47685 0.82502 0.0
H2025 H 0.06153 0.45557 0.8002 0.0
H2026 H 0.84908 0.39284 0.80286 0.0
H2027 H 0.05418 0.48309 0.82745 0.0
H2028 H 0.98464 0.43336 0.8005 0.0
H2029 H 0.91764 0.48279 0.82547 0.0
C2030 C 0.85733 0.45932 0.82029 0.0
C2031 C 0.83692 0.43421 0.81391 0.0
C2032 C 1.00022 0.44353 0.80643 0.0
C2033 C 0.92808 0.44172 0.81426 0.0
C2034 C 0.0442 0.45606 0.80628 0.0
C2035 C 0.06444 0.47188 0.81379 0.0
C2036 C 0.97621 0.44755 0.8141 0.0
C2037 C 0.04011 0.47158 0.82148 0.0
C2038 C 0.90271 0.46278 0.82054 0.0
C2039 C 0.86343 0.41307 0.80782 0.0
N2040 N 0.99718 0.46052 0.82139 0.0
N2041 N 0.90767 0.4176 0.80808 0.0
H2042 H 0.78192 0.8039 0.04959 0.0
H2043 H 0.76202 0.58201 0.07473 0.0
H2044 H 0.76179 0.79761 0.07711 0.0
H2045 H 0.84293 0.59078 0.05205 0.0
H2046 H 0.75703 0.66134 0.07505 0.0
H2047 H 0.80251 0.72666 0.04971 0.0
C2048 C 0.78278 0.7867 0.05568 0.0
C2049 C 0.76952 0.80738 0.06333 0.0
C2050 C 0.77614 0.64595 0.07003 0.0
C2051 C 0.79185 0.71881 0.06345 0.0
C2052 C 0.77908 0.60063 0.06985 0.0
C2053 C 0.80325 0.57966 0.0634 0.0
C2054 C 0.79669 0.6707 0.06359 0.0
C2055 C 0.82354 0.60555 0.05709 0.0
C2056 C 0.79433 0.74255 0.05573 0.0
C2057 C 0.77135 0.78322 0.07103 0.0
N2058 N 0.81956 0.64976 0.0573 0.0
N2059 N 0.78137 0.74013 0.07086 0.0
H2060 H 0.45126 0.5101 0.32767 0.0
H2061 H 0.66229 0.59478 0.30253 0.0
H2062 H 0.45084 0.52837 0.30007 0.0
H2063 H 0.66727 0.51707 0.32567 0.0
H2064 H 0.58249 0.58695 0.3024 0.0
H2065 H 0.52763 0.53233 0.32803 0.0
C2066 C 0.46679 0.51973 0.32169 0.0
C2067 C 0.4445 0.51665 0.31379 0.0
C2068 C 0.60118 0.5719 0.30752 0.0
C2069 C 0.5324 0.54197 0.31421 0.0
C2070 C 0.6467 0.57601 0.30757 0.0
C2071 C 0.67161 0.55642 0.31411 0.0
C2072 C 0.58038 0.54878 0.31415 0.0
C2073 C 0.64946 0.53334 0.32058 0.0
C2074 C 0.5106 0.53205 0.32191 0.0
C2075 C 0.46668 0.52986 0.30629 0.0
N2076 N 0.60519 0.53029 0.32046 0.0
N2077 N 0.50957 0.54156 0.30667 0.0
H2078 H 0.65409 0.41514 0.55291 0.0
H2079 H 0.73166 0.20168 0.57786 0.0
H2080 H 0.73127 0.418 0.57614 0.0
H2081 H 0.7197 0.2044 0.55013 0.0
H2082 H 0.71023 0.27814 0.57835 0.0
H2083 H 0.65969 0.33547 0.55278 0.0
C2084 C 0.67232 0.39914 0.55797 0.0
C2085 C 0.69276 0.42349 0.56449 0.0
C2086 C 0.71163 0.26174 0.57218 0.0
C2087 C 0.69756 0.33229 0.56456 0.0
C2088 C 0.72348 0.21789 0.57188 0.0
C2089 C 0.72814 0.19648 0.56392 0.0
C2090 C 0.70365 0.28437 0.56449 0.0
C2091 C 0.71693 0.21956 0.55641 0.0
C2092 C 0.67508 0.35367 0.55792 0.0
C2093 C 0.71459 0.40072 0.57104 0.0
N2094 N 0.70555 0.26241 0.55687 0.0
N2095 N 0.71639 0.35646 0.57091 0.0
H2096 H 0.17278 0.49389 0.32467 0.0
H2097 H 0.94389 0.46702 0.30185 0.0
H2098 H 0.1576 0.40838 0.30285 0.0
H2099 H 0.95763 0.50306 0.3286 0.0
H2100 H 0.02095 0.44551 0.30165 0.0
H2101 H 0.09353 0.50028 0.32568 0.0
C2102 C 0.15271 0.47621 0.32012 0.0
C2103 C 0.17186 0.45039 0.31369 0.0
C2104 C 0.00678 0.4574 0.30759 0.0
C2105 C 0.08082 0.45824 0.3147 0.0
C2106 C 0.96272 0.46956 0.30773 0.0
C2107 C 0.94417 0.4875 0.31523 0.0
C2108 C 0.03262 0.46388 0.31495 0.0
C2109 C 0.97032 0.4897 0.32266 0.0
C2110 C 0.10743 0.47987 0.3207 0.0
C2111 C 0.1442 0.42904 0.30784 0.0
N2112 N 0.01331 0.47889 0.32228 0.0
N2113 N 0.10003 0.43366 0.30844 0.0
H2114 H 0.28259 0.19547 0.07438 0.0
H2115 H 0.26706 0.41833 0.04892 0.0
H2116 H 0.25034 0.20296 0.04733 0.0
H2117 H 0.34386 0.40626 0.07207 0.0
H2118 H 0.25951 0.33914 0.04846 0.0
H2119 H 0.30598 0.27173 0.0739 0.0
C2120 C 0.28127 0.21275 0.0683 0.0
C2121 C 0.26392 0.19272 0.06091 0.0
C2122 C 0.2783 0.35372 0.05361 0.0
C2123 C 0.28969 0.28031 0.06038 0.0
C2124 C 0.28266 0.39895 0.05387 0.0
C2125 C 0.30605 0.41892 0.06055 0.0
C2126 C 0.29686 0.32816 0.06017 0.0
C2127 C 0.32491 0.39222 0.06688 0.0
C2128 C 0.29446 0.25637 0.06804 0.0
C2129 C 0.26308 0.21693 0.05322 0.0
N2130 N 0.3196 0.34821 0.06659 0.0
N2131 N 0.27499 0.25956 0.05319 0.0
H2132 H 0.339 0.50425 0.82601 0.0
H2133 H 0.56056 0.51504 0.80012 0.0
H2134 H 0.34865 0.57644 0.80224 0.0
H2135 H 0.55502 0.49415 0.82762 0.0
H2136 H 0.48393 0.53794 0.80042 0.0
H2137 H 0.41841 0.49848 0.8264 0.0
C2138 C 0.35782 0.51932 0.82091 0.0
C2139 C 0.33703 0.54093 0.81409 0.0
C2140 C 0.49983 0.52909 0.8064 0.0
C2141 C 0.42824 0.5335 0.81438 0.0
C2142 C 0.54367 0.51619 0.80625 0.0
C2143 C 0.56433 0.50205 0.81385 0.0
C2144 C 0.47633 0.52717 0.81417 0.0
C2145 C 0.54058 0.50435 0.82159 0.0
C2146 C 0.40323 0.51591 0.82112 0.0
C2147 C 0.36322 0.55883 0.80754 0.0
N2148 N 0.49773 0.51578 0.82152 0.0
N2149 N 0.40746 0.55439 0.80781 0.0
H2150 H 0.25443 0.79747 0.54668 0.0
H2151 H 0.14973 0.59601 0.57187 0.0
H2152 H 0.21458 0.80779 0.5733 0.0
H2153 H 0.24385 0.58294 0.55138 0.0
H2154 H 0.15833 0.67565 0.57118 0.0
H2155 H 0.23269 0.72105 0.54675 0.0
C2156 C 0.2402 0.78407 0.55249 0.0
C2157 C 0.23693 0.80918 0.56004 0.0
C2158 C 0.1769 0.65525 0.56682 0.0
C2159 C 0.2122 0.72131 0.56014 0.0
C2160 C 0.17228 0.60993 0.56725 0.0
C2161 C 0.19631 0.58294 0.5617 0.0
C2162 C 0.20507 0.67359 0.56067 0.0
C2163 C 0.22443 0.6026 0.55572 0.0
C2164 C 0.22817 0.74025 0.55254 0.0
C2165 C 0.21805 0.7897 0.56735 0.0
N2166 N 0.22789 0.64669 0.55534 0.0
N2167 N 0.20672 0.74679 0.56725 0.0
H2168 H 0.15873 0.60303 0.19177 0.0
H2169 H 0.95191 0.50601 0.16707 0.0
H2170 H 0.16727 0.51528 0.17015 0.0
H2171 H 0.94717 0.53555 0.19427 0.0
H2172 H 0.02813 0.5287 0.16679 0.0
H2173 H 0.07889 0.59448 0.19167 0.0
C2174 C 0.14388 0.58191 0.18702 0.0
C2175 C 0.16975 0.55971 0.18097 0.0
C2176 C 0.01019 0.53076 0.17279 0.0
C2177 C 0.07865 0.55115 0.18063 0.0
C2178 C 0.96645 0.51817 0.17296 0.0
C2179 C 0.94301 0.51811 0.18075 0.0
C2180 C 0.03075 0.54397 0.18042 0.0
C2181 C 0.96396 0.53452 0.18814 0.0
C2182 C 0.09838 0.57737 0.18693 0.0
C2183 C 0.14865 0.53353 0.17485 0.0
N2184 N 0.00681 0.54643 0.18781 0.0
N2185 N 0.10442 0.53012 0.17481 0.0
H2186 H 0.15339 0.41596 0.94169 0.0
H2187 H 0.237 0.20752 0.91568 0.0
H2188 H 0.23508 0.42194 0.91908 0.0
H2189 H 0.21345 0.20254 0.9431 0.0
H2190 H 0.21581 0.28402 0.91568 0.0
H2191 H 0.15841 0.33601 0.94133 0.0
C2192 C 0.17248 0.40055 0.93667 0.0
C2193 C 0.19411 0.42575 0.93043 0.0
C2194 C 0.21468 0.26597 0.92167 0.0
C2195 C 0.19843 0.33457 0.92979 0.0
C2196 C 0.22639 0.22207 0.92168 0.0
C2197 C 0.22787 0.19848 0.92944 0.0
C2198 C 0.20382 0.28656 0.92945 0.0
C2199 C 0.21341 0.21945 0.93698 0.0
C2200 C 0.17494 0.35499 0.93643 0.0
C2201 C 0.21739 0.40394 0.92395 0.0
N2202 N 0.20245 0.26247 0.93682 0.0
N2203 N 0.21882 0.35972 0.92379 0.0
H2204 H 0.55961 0.47066 0.69421 0.0
H2205 H 0.34296 0.48683 0.66751 0.0
H2206 H 0.56021 0.48627 0.66655 0.0
H2207 H 0.34847 0.40724 0.69039 0.0
H2208 H 0.42268 0.48995 0.66739 0.0
H2209 H 0.48278 0.44849 0.69343 0.0
C2210 C 0.54403 0.46846 0.68796 0.0
C2211 C 0.56647 0.48088 0.68045 0.0
C2212 C 0.40642 0.47149 0.6724 0.0
C2213 C 0.47832 0.45678 0.67957 0.0
C2214 C 0.36088 0.46958 0.67246 0.0
C2215 C 0.33885 0.44698 0.679 0.0
C2216 C 0.43024 0.45141 0.67904 0.0
C2217 C 0.36397 0.42598 0.68535 0.0
C2218 C 0.50011 0.45597 0.68753 0.0
C2219 C 0.54438 0.47734 0.67253 0.0
N2220 N 0.4083 0.42917 0.68528 0.0
N2221 N 0.50137 0.46656 0.67232 0.0
H2222 H 0.24732 0.80418 0.44664 0.0
H2223 H 0.34099 0.59543 0.42229 0.0
H2224 H 0.27334 0.80599 0.41928 0.0
H2225 H 0.25178 0.58817 0.44373 0.0
H2226 H 0.33386 0.67517 0.4224 0.0
H2227 H 0.26929 0.7279 0.4471 0.0
C2228 C 0.25863 0.78899 0.44075 0.0
C2229 C 0.25784 0.81165 0.43287 0.0
C2230 C 0.3162 0.65602 0.42711 0.0
C2231 C 0.28297 0.72392 0.43341 0.0
C2232 C 0.32 0.61061 0.42703 0.0
C2233 C 0.29682 0.58513 0.433 0.0
C2234 C 0.28978 0.6761 0.43334 0.0
C2235 C 0.27073 0.60654 0.4391 0.0
C2236 C 0.2708 0.74524 0.44102 0.0
C2237 C 0.27307 0.78987 0.42548 0.0
N2238 N 0.26802 0.65076 0.43913 0.0
N2239 N 0.28469 0.74706 0.42592 0.0
H2240 H 0.18759 0.16533 0.10351 0.0
H2241 H 0.1822 0.98296 0.14047 0.0
H2242 H 0.19809 0.02761 0.09827 0.0
H2243 H 0.17493 0.12133 0.14525 0.0
H2244 H 0.18959 0.99806 0.12503 0.0
H2245 H 0.18473 0.14931 0.11889 0.0
C2246 C 0.18946 0.1317 0.10559 0.0
C2247 C 0.19296 0.09778 0.09958 0.0
C2248 C 0.18645 0.02507 0.12948 0.0
C2249 C 0.1895 0.0791 0.11723 0.0
C2250 C 0.1822 0.01647 0.13829 0.0
C2251 C 0.17776 0.05089 0.14417 0.0
C2252 C 0.18623 0.06839 0.12654 0.0
C2253 C 0.17809 0.09369 0.14097 0.0
C2254 C 0.18779 0.12254 0.11439 0.0
C2255 C 0.19532 0.05481 0.10267 0.0
N2256 N 0.18215 0.10116 0.13239 0.0
N2257 N 0.19339 0.04668 0.11128 0.0
H2258 H 0.14947 0.01742 0.35379 0.0
H2259 H 0.22403 0.84539 0.38962 0.0
H2260 H 0.21066 0.89415 0.34797 0.0
H2261 H 0.17535 0.97388 0.39561 0.0
H2262 H 0.22097 0.86351 0.37431 0.0
H2263 H 0.16034 0.00309 0.36915 0.0
C2264 C 0.16538 0.98748 0.35573 0.0
C2265 C 0.17888 0.95683 0.34958 0.0
C2266 C 0.21117 0.88783 0.37897 0.0
C2267 C 0.19124 0.94012 0.36713 0.0
C2268 C 0.21289 0.87747 0.38772 0.0
C2269 C 0.1997 0.90805 0.39391 0.0
C2270 C 0.19593 0.92899 0.37638 0.0
C2271 C 0.18568 0.9492 0.39107 0.0
C2272 C 0.17158 0.9793 0.3645 0.0
C2273 C 0.19946 0.91863 0.35247 0.0
N2274 N 0.18393 0.95836 0.38251 0.0
N2275 N 0.20476 0.91127 0.36103 0.0
H2276 H 0.30019 0.83741 0.60273 0.0
H2277 H 0.32672 0.02035 0.63916 0.0
H2278 H 0.30406 0.9752 0.59717 0.0
H2279 H 0.32236 0.88206 0.64421 0.0
H2280 H 0.31517 0.00532 0.62382 0.0
H2281 H 0.30463 0.85396 0.61807 0.0
C2282 C 0.30176 0.87117 0.60474 0.0
C2283 C 0.30201 0.90493 0.59865 0.0
C2284 C 0.31664 0.97833 0.6283 0.0
C2285 C 0.30733 0.92418 0.61623 0.0
C2286 C 0.32325 0.9869 0.63706 0.0
C2287 C 0.3258 0.95243 0.64297 0.0
C2288 C 0.31254 0.93502 0.62548 0.0
C2289 C 0.32092 0.90971 0.63989 0.0
C2290 C 0.30434 0.88063 0.61351 0.0
C2291 C 0.30394 0.94811 0.60164 0.0
N2292 N 0.31467 0.90226 0.63137 0.0
N2293 N 0.30676 0.9565 0.61022 0.0
H2294 H 0.34263 0.11012 0.89238 0.0
H2295 H 0.27291 0.97457 0.85077 0.0
H2296 H 0.23136 0.02378 0.89241 0.0
H2297 H 0.35403 0.08952 0.85001 0.0
H2298 H 0.262 0.98609 0.86628 0.0
H2299 H 0.35194 0.09705 0.87703 0.0
C2300 C 0.32006 0.08843 0.88915 0.0
C2301 C 0.28609 0.06807 0.89367 0.0
C2302 C 0.28213 0.00871 0.86269 0.0
C2303 C 0.29679 0.05271 0.87607 0.0
C2304 C 0.28857 0.00203 0.85387 0.0
C2305 C 0.31442 0.03113 0.84911 0.0
C2306 C 0.30218 0.04436 0.86675 0.0
C2307 C 0.33373 0.06634 0.85342 0.0
C2308 C 0.32535 0.08106 0.88037 0.0
C2309 C 0.25781 0.04033 0.88914 0.0
N2310 N 0.32734 0.07185 0.86199 0.0
N2311 N 0.26393 0.03324 0.88057 0.0
H2312 H 0.80502 0.97418 0.89623 0.0
H2313 H 0.81912 0.86801 0.84921 0.0
H2314 H 0.80742 0.83569 0.89141 0.0
H2315 H 0.82371 0.00672 0.85372 0.0
H2316 H 0.81047 0.85613 0.86463 0.0
H2317 H 0.80741 0.98721 0.88069 0.0
C2318 C 0.80584 0.94649 0.89191 0.0
C2319 C 0.80622 0.90374 0.89513 0.0
C2320 C 0.81328 0.8892 0.86226 0.0
C2321 C 0.80903 0.91848 0.87734 0.0
C2322 C 0.81825 0.89605 0.85344 0.0
C2323 C 0.82242 0.93846 0.85016 0.0
C2324 C 0.81247 0.92499 0.86789 0.0
C2325 C 0.82078 0.97346 0.85597 0.0
C2326 C 0.80726 0.95399 0.88304 0.0
C2327 C 0.80723 0.86918 0.88923 0.0
N2328 N 0.81607 0.96594 0.86456 0.0
N2329 N 0.80873 0.87732 0.88063 0.0
H2330 H 0.79594 0.16616 0.60451 0.0
H2331 H 0.835 0.98467 0.64078 0.0
H2332 H 0.8114 0.02934 0.59881 0.0
H2333 H 0.81811 0.12182 0.64599 0.0
H2334 H 0.82345 0.99931 0.62542 0.0
H2335 H 0.8008 0.1495 0.61984 0.0
C2336 C 0.80021 0.13258 0.60648 0.0
C2337 C 0.80352 0.09915 0.60037 0.0
C2338 C 0.82216 0.02612 0.62995 0.0
C2339 C 0.80928 0.07978 0.61792 0.0
C2340 C 0.82876 0.01778 0.6387 0.0
C2341 C 0.82782 0.05209 0.64467 0.0
C2342 C 0.81458 0.06905 0.62717 0.0
C2343 C 0.81945 0.09436 0.64163 0.0
C2344 C 0.803 0.12305 0.61524 0.0
C2345 C 0.80885 0.05618 0.6033 0.0
N2346 N 0.8133 0.10161 0.6331 0.0
N2347 N 0.81178 0.04774 0.61188 0.0
H2348 H 0.67205 0.02959 0.39658 0.0
H2349 H 0.7127 0.10984 0.34817 0.0
H2350 H 0.72537 0.15546 0.38997 0.0
H2351 H 0.64288 0.99198 0.35456 0.0
H2352 H 0.72423 0.12336 0.36347 0.0
H2353 H 0.66775 0.01179 0.38126 0.0
C2354 C 0.68307 0.05344 0.39192 0.0
C2355 C 0.69884 0.09425 0.39457 0.0
C2356 C 0.70649 0.09446 0.36154 0.0
C2357 C 0.69399 0.07397 0.37701 0.0
C2358 C 0.6999 0.08665 0.35279 0.0
C2359 C 0.67646 0.04983 0.35006 0.0
C2360 C 0.68963 0.06523 0.36765 0.0
C2361 C 0.66094 0.02088 0.35636 0.0
C2362 C 0.68052 0.04324 0.38317 0.0
C2363 C 0.71278 0.12372 0.38823 0.0
N2364 N 0.66767 0.02928 0.36486 0.0
N2365 N 0.70991 0.11304 0.37975 0.0
H2366 H 0.70819 0.03522 0.14216 0.0
H2367 H 0.67505 0.88308 0.10141 0.0
H2368 H 0.67283 0.89942 0.1441 0.0
H2369 H 0.7629 0.99291 0.10064 0.0
H2370 H 0.66709 0.893 0.11693 0.0
H2371 H 0.72189 0.02495 0.12669 0.0
C2372 C 0.70328 0.00334 0.13933 0.0
C2373 C 0.68923 0.96814 0.1444 0.0
C2374 C 0.68834 0.91478 0.11338 0.0
C2375 C 0.70449 0.95637 0.12682 0.0
C2376 C 0.69279 0.90922 0.10453 0.0
C2377 C 0.71972 0.9372 0.09977 0.0
C2378 C 0.7103 0.94907 0.11748 0.0
C2379 C 0.74207 0.97048 0.10412 0.0
C2380 C 0.71134 0.99748 0.13054 0.0
C2381 C 0.68365 0.92745 0.14044 0.0
N2382 N 0.73652 0.97583 0.11275 0.0
N2383 N 0.69095 0.92278 0.13187 0.0
H2384 H 0.67319 0.62288 0.60175 0.0
H2385 H 0.71126 0.4693 0.64217 0.0
H2386 H 0.76181 0.51376 0.60057 0.0
H2387 H 0.67476 0.60464 0.64448 0.0
H2388 H 0.72343 0.48046 0.62668 0.0
H2389 H 0.6666 0.61234 0.61729 0.0
C2390 C 0.69139 0.59677 0.60478 0.0
C2391 C 0.71815 0.56918 0.59989 0.0
C2392 C 0.71297 0.50764 0.63062 0.0
C2393 C 0.71029 0.5566 0.61763 0.0
C2394 C 0.70579 0.50128 0.63942 0.0
C2395 C 0.69188 0.53608 0.6446 0.0
C2396 C 0.70536 0.54884 0.62698 0.0
C2397 C 0.68553 0.57691 0.64073 0.0
C2398 C 0.68772 0.59087 0.61364 0.0
C2399 C 0.74108 0.53592 0.60414 0.0
N2400 N 0.69197 0.58206 0.63215 0.0
N2401 N 0.7363 0.53022 0.61278 0.0
H2402 H 0.69578 0.33556 0.89185 0.0
H2403 H 0.67735 0.51028 0.85367 0.0
H2404 H 0.68975 0.47436 0.89618 0.0
H2405 H 0.68592 0.37129 0.84977 0.0
H2406 H 0.68427 0.49851 0.86922 0.0
H2407 H 0.69473 0.3487 0.87636 0.0
C2408 C 0.69437 0.36884 0.88955 0.0
C2409 C 0.69265 0.40389 0.89533 0.0
C2410 C 0.68476 0.47063 0.86495 0.0
C2411 C 0.69129 0.41922 0.87756 0.0
C2412 C 0.68081 0.47733 0.85607 0.0
C2413 C 0.68082 0.44172 0.8504 0.0
C2414 C 0.68872 0.42802 0.86817 0.0
C2415 C 0.68551 0.39975 0.85388 0.0
C2416 C 0.69377 0.37634 0.88069 0.0
C2417 C 0.691 0.44634 0.89196 0.0
N2418 N 0.68913 0.39409 0.86252 0.0
N2419 N 0.69018 0.45281 0.88329 0.0
H2420 H 0.80078 0.33438 0.10501 0.0
H2421 H 0.83082 0.51798 0.14117 0.0
H2422 H 0.81793 0.47095 0.09924 0.0
H2423 H 0.81512 0.38087 0.1466 0.0
H2424 H 0.82212 0.50236 0.12579 0.0
H2425 H 0.80186 0.35172 0.12035 0.0
C2426 C 0.80463 0.36802 0.10697 0.0
C2427 C 0.80954 0.40121 0.10084 0.0
C2428 C 0.82045 0.47577 0.13036 0.0
C2429 C 0.81092 0.42133 0.11839 0.0
C2430 C 0.82539 0.48468 0.13913 0.0
C2431 C 0.82404 0.45066 0.14516 0.0
C2432 C 0.81409 0.43257 0.12763 0.0
C2433 C 0.81676 0.40811 0.14218 0.0
C2434 C 0.80524 0.37793 0.11573 0.0
C2435 C 0.81423 0.44429 0.10375 0.0
N2436 N 0.81222 0.40029 0.13363 0.0
N2437 N 0.81499 0.45309 0.11232 0.0
H2438 H 0.8225 0.48379 0.35534 0.0
H2439 H 0.78465 0.66741 0.39124 0.0
H2440 H 0.8109 0.62128 0.3499 0.0
H2441 H 0.80132 0.531 0.39721 0.0
H2442 H 0.78862 0.64989 0.37593 0.0
H2443 H 0.80964 0.49924 0.37062 0.0
C2444 C 0.81712 0.51715 0.35735 0.0
C2445 C 0.81815 0.55131 0.35135 0.0
C2446 C 0.79124 0.62373 0.38058 0.0
C2447 C 0.80335 0.56919 0.36877 0.0
C2448 C 0.78892 0.63374 0.38933 0.0
C2449 C 0.793 0.60069 0.39551 0.0
C2450 C 0.79779 0.58036 0.37799 0.0
C2451 C 0.79827 0.55758 0.39266 0.0
C2452 C 0.80978 0.52595 0.36606 0.0
C2453 C 0.81079 0.59391 0.3543 0.0
N2454 N 0.80076 0.54868 0.3841 0.0
N2455 N 0.80386 0.60161 0.36279 0.0
H2456 H 0.31755 0.38134 0.34844 0.0
H2457 H 0.30354 0.47947 0.39606 0.0
H2458 H 0.32802 0.51886 0.35393 0.0
H2459 H 0.30096 0.34193 0.39023 0.0
H2460 H 0.30756 0.49526 0.38064 0.0
H2461 H 0.30665 0.36719 0.3637 0.0
C2462 C 0.31755 0.40865 0.35286 0.0
C2463 C 0.32403 0.45139 0.3499 0.0
C2464 C 0.30595 0.46166 0.38274 0.0
C2465 C 0.31146 0.43527 0.36745 0.0
C2466 C 0.30359 0.45258 0.39154 0.0
C2467 C 0.30216 0.40925 0.39444 0.0
C2468 C 0.30682 0.42718 0.37681 0.0
C2469 C 0.30221 0.37579 0.3883 0.0
C2470 C 0.31126 0.4005 0.36159 0.0
C2471 C 0.32333 0.48541 0.35593 0.0
N2472 N 0.30466 0.38547 0.37978 0.0
N2473 N 0.31732 0.4766 0.36444 0.0
H2474 H 0.34658 0.48603 0.13966 0.0
H2475 H 0.27888 0.65777 0.10314 0.0
H2476 H 0.30134 0.61661 0.14487 0.0
H2477 H 0.32423 0.52761 0.09756 0.0
H2478 H 0.28301 0.64144 0.1185 0.0
H2479 H 0.3349 0.49882 0.12425 0.0
C2480 C 0.33402 0.51729 0.13757 0.0
C2481 C 0.32524 0.55039 0.14356 0.0
C2482 C 0.29192 0.61636 0.11392 0.0
C2483 C 0.31183 0.56525 0.12596 0.0
C2484 C 0.28955 0.62568 0.10514 0.0
C2485 C 0.30151 0.59413 0.09905 0.0
C2486 C 0.3065 0.57522 0.11666 0.0
C2487 C 0.31488 0.55302 0.10203 0.0
C2488 C 0.32738 0.52458 0.12878 0.0
C2489 C 0.30891 0.59023 0.14049 0.0
N2490 N 0.31724 0.54483 0.11063 0.0
N2491 N 0.30291 0.59656 0.13191 0.0
H2492 H 0.23229 0.47572 0.85143 0.0
H2493 H 0.15751 0.60939 0.89292 0.0
H2494 H 0.15066 0.5903 0.85052 0.0
H2495 H 0.26963 0.52416 0.89327 0.0
H2496 H 0.1499 0.59675 0.87752 0.0
H2497 H 0.24173 0.48689 0.86699 0.0
C2498 C 0.21622 0.50303 0.8545 0.0
C2499 C 0.19064 0.53212 0.84969 0.0
C2500 C 0.1763 0.58091 0.88095 0.0
C2501 C 0.2012 0.54493 0.86738 0.0
C2502 C 0.18062 0.58803 0.88975 0.0
C2503 C 0.21432 0.56784 0.89437 0.0
C2504 C 0.20558 0.553 0.87672 0.0
C2505 C 0.24335 0.54056 0.88992 0.0
C2506 C 0.22183 0.5095 0.86335 0.0
C2507 C 0.17077 0.56713 0.85397 0.0
N2508 N 0.23818 0.5337 0.88132 0.0
N2509 N 0.17635 0.57244 0.86256 0.0
H2510 H 0.24243 0.516 0.6427 0.0
H2511 H 0.1471 0.41098 0.5997 0.0
H2512 H 0.13816 0.42146 0.64254 0.0
H2513 H 0.27958 0.45826 0.60124 0.0
H2514 H 0.13827 0.42475 0.61508 0.0
H2515 H 0.25144 0.50538 0.62711 0.0
C2516 C 0.22122 0.49334 0.63938 0.0
C2517 C 0.1895 0.46954 0.6439 0.0
C2518 C 0.1693 0.43205 0.61206 0.0
C2519 C 0.19951 0.45748 0.62616 0.0
C2520 C 0.17436 0.42432 0.60327 0.0
C2521 C 0.21422 0.43332 0.59919 0.0
C2522 C 0.20411 0.44955 0.6168 0.0
C2523 C 0.24841 0.45055 0.60416 0.0
C2524 C 0.22659 0.4871 0.63051 0.0
C2525 C 0.16312 0.44033 0.6393 0.0
N2526 N 0.24252 0.45835 0.61271 0.0
N2527 N 0.16859 0.43528 0.63068 0.0
loop_
_geom_bond_atom_site_label_1
_geom_bond_atom_site_label_2
_geom_bond_distance
_geom_bond_site_symmetry_2
_ccdc_geom_bond_type
Co0 O3 1.970 . S
Co0 N17 1.989 . S
Co0 O25 1.967 . S
Co0 O32 1.920 . S
Co1 O4 1.966 . S
Co1 N10 2.022 . S
Co1 N18 1.993 . S
Co1 O26 1.941 . S
C2 O3 1.258 . S
C2 O4 1.263 . S
O3 Co0 1.970 . S
O3 C2 1.258 . S
O4 Co1 1.966 . S
O4 C2 1.263 . S
C5 O6 1.235 . S
C5 O32 1.289 . S
O6 C5 1.235 . S
C7 C9 1.400 . S
C7 N10 1.351 . S
C7 C12 1.501 1_545 S
C8 C9 1.387 . S
C8 N11 1.341 . S
C9 C7 1.400 . S
C9 C8 1.387 . S
N10 Co1 2.022 . S
N10 C7 1.351 . S
N10 N11 1.365 . S
N11 C8 1.341 . S
N11 N10 1.365 . S
N11 H31 0.862 . S
C12 C7 1.501 1_565 S
C12 H13 0.961 1_565 S
C12 H14 0.961 . S
C12 H15 0.960 . S
H13 C12 0.961 1_545 S
H14 C12 0.961 . S
H15 C12 0.960 . S
C16 N17 1.342 . S
C16 C20 1.401 . S
C16 C21 1.499 . S
N17 Co0 1.989 . S
N17 C16 1.342 . S
N17 N18 1.388 . S
N18 Co1 1.993 . S
N18 N17 1.388 . S
N18 C19 1.346 . S
C19 N18 1.346 . S
C19 C20 1.396 . S
C19 C29 1.510 . S
C20 C16 1.401 . S
C20 C19 1.396 . S
C21 C16 1.499 . S
C21 H22 0.959 . S
C21 H23 0.960 . S
C21 H24 0.961 . S
H22 C21 0.959 . S
H23 C21 0.960 . S
H24 C21 0.961 . S
O25 Co0 1.967 . S
O25 C33 1.258 . S
O26 Co1 1.941 . S
O26 C33 1.266 . S
H27 C29 0.959 . S
H28 C29 0.961 1_565 S
C29 C19 1.510 . S
C29 H27 0.959 . S
C29 H28 0.961 1_545 S
C29 H30 0.960 . S
H30 C29 0.960 . S
H31 N11 0.862 . S
O32 Co0 1.920 . S
O32 C5 1.289 . S
C33 O25 1.258 . S
C33 O26 1.266 . S
Co34 O37 1.970 . S
Co34 N51 1.989 . S
Co34 O59 1.967 . S
Co34 O66 1.920 . S
Co35 O38 1.966 . S
Co35 N44 2.022 . S
Co35 N52 1.993 . S
Co35 O60 1.941 . S
C36 O37 1.258 . S
C36 O38 1.263 . S
O37 Co34 1.970 . S
O37 C36 1.258 . S
O38 Co35 1.966 . S
O38 C36 1.263 . S
C39 O40 1.235 . S
C39 O66 1.289 . S
O40 C39 1.235 . S
C41 C43 1.400 . S
C41 N44 1.351 . S
C41 C46 1.501 . S
C42 C43 1.387 . S
C42 N45 1.341 . S
C43 C41 1.400 . S
C43 C42 1.387 . S
N44 Co35 2.022 . S
N44 C41 1.351 . S
N44 N45 1.365 . S
N45 C42 1.341 . S
N45 N44 1.365 . S
N45 H65 0.862 . S
C46 C41 1.501 . S
C46 H47 0.961 . S
C46 H48 0.961 . S
C46 H49 0.960 . S
H47 C46 0.961 . S
H48 C46 0.961 . S
H49 C46 0.960 . S
C50 N51 1.342 . S
C50 C54 1.401 . S
C50 C55 1.499 . S
N51 Co34 1.989 . S
N51 C50 1.342 . S
N51 N52 1.388 . S
N52 Co35 1.993 . S
N52 N51 1.388 . S
N52 C53 1.346 . S
C53 N52 1.346 . S
C53 C54 1.396 . S
C53 C63 1.510 . S
C54 C50 1.401 . S
C54 C53 1.396 . S
C55 C50 1.499 . S
C55 H56 0.959 . S
C55 H57 0.960 . S
C55 H58 0.961 . S
H56 C55 0.959 . S
H57 C55 0.960 . S
H58 C55 0.961 . S
O59 Co34 1.967 . S
O59 C67 1.258 . S
O60 Co35 1.941 . S
O60 C67 1.266 . S
H61 C63 0.959 . S
H62 C63 0.961 . S
C63 C53 1.510 . S
C63 H61 0.959 . S
C63 H62 0.961 . S
C63 H64 0.960 . S
H64 C63 0.960 . S
H65 N45 0.862 . S
O66 Co34 1.920 . S
O66 C39 1.289 . S
C67 O59 1.258 . S
C67 O60 1.266 . S
Co68 O71 1.970 . S
Co68 N85 1.989 . S
Co68 O93 1.967 . S
Co68 O100 1.920 . S
Co69 O72 1.966 . S
Co69 N78 2.022 . S
Co69 N86 1.993 . S
Co69 O94 1.941 . S
C70 O71 1.258 . S
C70 O72 1.263 . S
O71 Co68 1.970 . S
O71 C70 1.258 . S
O72 Co69 1.966 . S
O72 C70 1.263 . S
C73 O74 1.235 . S
C73 O100 1.289 . S
O74 C73 1.235 . S
C75 C77 1.400 . S
C75 N78 1.351 . S
C75 C80 1.501 1_565 S
C76 C77 1.387 . S
C76 N79 1.341 . S
C77 C75 1.400 . S
C77 C76 1.387 . S
N78 Co69 2.022 . S
N78 C75 1.351 . S
N78 N79 1.365 . S
N79 C76 1.341 . S
N79 N78 1.365 . S
N79 H99 0.862 . S
C80 C75 1.501 1_545 S
C80 H81 0.961 1_545 S
C80 H82 0.961 . S
C80 H83 0.960 . S
H81 C80 0.961 1_565 S
H82 C80 0.961 . S
H83 C80 0.960 . S
C84 N85 1.342 . S
C84 C88 1.401 . S
C84 C89 1.499 . S
N85 Co68 1.989 . S
N85 C84 1.342 . S
N85 N86 1.388 . S
N86 Co69 1.993 . S
N86 N85 1.388 . S
N86 C87 1.346 . S
C87 N86 1.346 . S
C87 C88 1.396 . S
C87 C97 1.510 . S
C88 C84 1.401 . S
C88 C87 1.396 . S
C89 C84 1.499 . S
C89 H90 0.959 . S
C89 H91 0.960 . S
C89 H92 0.961 . S
H90 C89 0.959 . S
H91 C89 0.960 . S
H92 C89 0.961 . S
O93 Co68 1.967 . S
O93 C101 1.258 . S
O94 Co69 1.941 . S
O94 C101 1.266 . S
H95 C97 0.959 . S
H96 C97 0.961 1_545 S
C97 C87 1.510 . S
C97 H95 0.959 . S
C97 H96 0.961 1_565 S
C97 H98 0.960 . S
H98 C97 0.960 . S
H99 N79 0.862 . S
O100 Co68 1.920 . S
O100 C73 1.289 . S
C101 O93 1.258 . S
C101 O94 1.266 . S
Co102 O105 1.970 . S
Co102 N119 1.989 . S
Co102 O127 1.967 . S
Co102 O134 1.920 . S
Co103 O106 1.966 . S
Co103 N112 2.022 . S
Co103 N120 1.993 . S
Co103 O128 1.941 . S
C104 O105 1.258 . S
C104 O106 1.263 . S
O105 Co102 1.970 . S
O105 C104 1.258 . S
O106 Co103 1.966 . S
O106 C104 1.263 . S
C107 O108 1.235 . S
C107 O134 1.289 . S
O108 C107 1.235 . S
C109 C111 1.400 . S
C109 N112 1.351 . S
C109 C114 1.501 . S
C110 C111 1.387 . S
C110 N113 1.341 . S
C111 C109 1.400 . S
C111 C110 1.387 . S
N112 Co103 2.022 . S
N112 C109 1.351 . S
N112 N113 1.365 . S
N113 C110 1.341 . S
N113 N112 1.365 . S
N113 H133 0.862 . S
C114 C109 1.501 . S
C114 H115 0.961 . S
C114 H116 0.961 . S
C114 H117 0.960 . S
H115 C114 0.961 . S
H116 C114 0.961 . S
H117 C114 0.960 . S
C118 N119 1.342 . S
C118 C122 1.401 . S
C118 C123 1.499 . S
N119 Co102 1.989 . S
N119 C118 1.342 . S
N119 N120 1.388 . S
N120 Co103 1.993 . S
N120 N119 1.388 . S
N120 C121 1.346 . S
C121 N120 1.346 . S
C121 C122 1.396 . S
C121 C131 1.510 . S
C122 C118 1.401 . S
C122 C121 1.396 . S
C123 C118 1.499 . S
C123 H124 0.959 . S
C123 H125 0.960 . S
C123 H126 0.961 . S
H124 C123 0.959 . S
H125 C123 0.960 . S
H126 C123 0.961 . S
O127 Co102 1.967 . S
O127 C135 1.258 . S
O128 Co103 1.941 . S
O128 C135 1.266 . S
H129 C131 0.959 . S
H130 C131 0.961 . S
C131 C121 1.510 . S
C131 H129 0.959 . S
C131 H130 0.961 . S
C131 H132 0.960 . S
H132 C131 0.960 . S
H133 N113 0.862 . S
O134 Co102 1.920 . S
O134 C107 1.289 . S
C135 O127 1.258 . S
C135 O128 1.266 . S
Co136 O139 1.970 . S
Co136 N153 1.989 . S
Co136 O161 1.967 . S
Co136 O168 1.920 . S
Co137 O140 1.966 . S
Co137 N146 2.022 . S
Co137 N154 1.993 . S
Co137 O162 1.941 . S
C138 O139 1.258 . S
C138 O140 1.263 . S
O139 Co136 1.970 . S
O139 C138 1.258 . S
O140 Co137 1.966 . S
O140 C138 1.263 . S
C141 O142 1.235 . S
C141 O168 1.289 . S
O142 C141 1.235 . S
C143 C145 1.400 . S
C143 N146 1.351 . S
C143 C148 1.501 1_565 S
C144 C145 1.387 . S
C144 N147 1.341 . S
C145 C143 1.400 . S
C145 C144 1.387 . S
N146 Co137 2.022 . S
N146 C143 1.351 . S
N146 N147 1.365 . S
N147 C144 1.341 . S
N147 N146 1.365 . S
N147 H167 0.862 . S
C148 C143 1.501 1_545 S
C148 H149 0.961 1_545 S
C148 H150 0.961 . S
C148 H151 0.960 . S
H149 C148 0.961 1_565 S
H150 C148 0.961 . S
H151 C148 0.960 . S
C152 N153 1.342 . S
C152 C156 1.401 . S
C152 C157 1.499 . S
N153 Co136 1.989 . S
N153 C152 1.342 . S
N153 N154 1.388 . S
N154 Co137 1.993 . S
N154 N153 1.388 . S
N154 C155 1.346 . S
C155 N154 1.346 . S
C155 C156 1.396 . S
C155 C165 1.510 . S
C156 C152 1.401 . S
C156 C155 1.396 . S
C157 C152 1.499 . S
C157 H158 0.959 . S
C157 H159 0.960 . S
C157 H160 0.961 . S
H158 C157 0.959 . S
H159 C157 0.960 . S
H160 C157 0.961 . S
O161 Co136 1.967 . S
O161 C169 1.258 . S
O162 Co137 1.941 . S
O162 C169 1.266 . S
H163 C165 0.959 . S
H164 C165 0.961 1_545 S
C165 C155 1.510 . S
C165 H163 0.959 . S
C165 H164 0.961 1_565 S
C165 H166 0.960 . S
H166 C165 0.960 . S
H167 N147 0.862 . S
O168 Co136 1.920 . S
O168 C141 1.289 . S
C169 O161 1.258 . S
C169 O162 1.266 . S
Co170 O173 1.970 . S
Co170 N187 1.989 . S
Co170 O195 1.967 . S
Co170 O202 1.920 . S
Co171 O174 1.966 . S
Co171 N180 2.022 . S
Co171 N188 1.993 . S
Co171 O196 1.941 . S
C172 O173 1.258 . S
C172 O174 1.263 . S
O173 Co170 1.970 . S
O173 C172 1.258 . S
O174 Co171 1.966 . S
O174 C172 1.263 . S
C175 O176 1.235 . S
C175 O202 1.289 . S
O176 C175 1.235 . S
C177 C179 1.400 . S
C177 N180 1.351 . S
C177 C182 1.501 . S
C178 C179 1.387 . S
C178 N181 1.341 . S
C179 C177 1.400 . S
C179 C178 1.387 . S
N180 Co171 2.022 . S
N180 C177 1.351 . S
N180 N181 1.365 . S
N181 C178 1.341 . S
N181 N180 1.365 . S
N181 H201 0.862 . S
C182 C177 1.501 . S
C182 H183 0.961 . S
C182 H184 0.961 . S
C182 H185 0.960 . S
H183 C182 0.961 . S
H184 C182 0.961 . S
H185 C182 0.960 . S
C186 N187 1.342 . S
C186 C190 1.401 . S
C186 C191 1.499 . S
N187 Co170 1.989 . S
N187 C186 1.342 . S
N187 N188 1.388 . S
N188 Co171 1.993 . S
N188 N187 1.388 . S
N188 C189 1.346 . S
C189 N188 1.346 . S
C189 C190 1.396 . S
C189 C199 1.510 . S
C190 C186 1.401 . S
C190 C189 1.396 . S
C191 C186 1.499 . S
C191 H192 0.959 . S
C191 H193 0.960 . S
C191 H194 0.961 . S
H192 C191 0.959 . S
H193 C191 0.960 . S
H194 C191 0.961 . S
O195 Co170 1.967 . S
O195 C203 1.258 . S
O196 Co171 1.941 . S
O196 C203 1.266 . S
H197 C199 0.959 . S
H198 C199 0.961 . S
C199 C189 1.510 . S
C199 H197 0.959 . S
C199 H198 0.961 . S
C199 H200 0.960 . S
H200 C199 0.960 . S
H201 N181 0.862 . S
O202 Co170 1.920 . S
O202 C175 1.289 . S
C203 O195 1.258 . S
C203 O196 1.266 . S
Co204 O207 1.970 . S
Co204 N221 1.989 . S
Co204 O229 1.967 . S
Co204 O236 1.920 . S
Co205 O208 1.966 . S
Co205 N214 2.022 . S
Co205 N222 1.993 . S
Co205 O230 1.941 . S
C206 O207 1.258 . S
C206 O208 1.263 . S
O207 Co204 1.970 . S
O207 C206 1.258 . S
O208 Co205 1.966 . S
O208 C206 1.263 . S
C209 O210 1.235 . S
C209 O236 1.289 . S
O210 C209 1.235 . S
C211 C213 1.400 . S
C211 N214 1.351 . S
C211 C216 1.501 1_545 S
C212 C213 1.387 . S
C212 N215 1.341 . S
C213 C211 1.400 . S
C213 C212 1.387 . S
N214 Co205 2.022 . S
N214 C211 1.351 . S
N214 N215 1.365 . S
N215 C212 1.341 . S
N215 N214 1.365 . S
N215 H235 0.862 . S
C216 C211 1.501 1_565 S
C216 H217 0.961 1_565 S
C216 H218 0.961 . S
C216 H219 0.960 . S
H217 C216 0.961 1_545 S
H218 C216 0.961 . S
H219 C216 0.960 . S
C220 N221 1.342 . S
C220 C224 1.401 . S
C220 C225 1.499 . S
N221 Co204 1.989 . S
N221 C220 1.342 . S
N221 N222 1.388 . S
N222 Co205 1.993 . S
N222 N221 1.388 . S
N222 C223 1.346 . S
C223 N222 1.346 . S
C223 C224 1.396 . S
C223 C233 1.510 . S
C224 C220 1.401 . S
C224 C223 1.396 . S
C225 C220 1.499 . S
C225 H226 0.959 . S
C225 H227 0.960 . S
C225 H228 0.961 . S
H226 C225 0.959 . S
H227 C225 0.960 . S
H228 C225 0.961 . S
O229 Co204 1.967 . S
O229 C237 1.258 . S
O230 Co205 1.941 . S
O230 C237 1.266 . S
H231 C233 0.959 . S
H232 C233 0.961 1_565 S
C233 C223 1.510 . S
C233 H231 0.959 . S
C233 H232 0.961 1_545 S
C233 H234 0.960 . S
H234 C233 0.960 . S
H235 N215 0.862 . S
O236 Co204 1.920 . S
O236 C209 1.289 . S
C237 O229 1.258 . S
C237 O230 1.266 . S
Co238 O241 1.970 . S
Co238 N255 1.989 . S
Co238 O263 1.967 . S
Co238 O270 1.920 . S
Co239 O242 1.966 . S
Co239 N248 2.022 . S
Co239 N256 1.993 . S
Co239 O264 1.941 . S
C240 O241 1.258 . S
C240 O242 1.263 . S
O241 Co238 1.970 . S
O241 C240 1.258 . S
O242 Co239 1.966 . S
O242 C240 1.263 . S
C243 O244 1.235 . S
C243 O270 1.289 . S
O244 C243 1.235 . S
C245 C247 1.400 . S
C245 N248 1.351 . S
C245 C250 1.501 . S
C246 C247 1.387 . S
C246 N249 1.341 . S
C247 C245 1.400 . S
C247 C246 1.387 . S
N248 Co239 2.022 . S
N248 C245 1.351 . S
N248 N249 1.365 . S
N249 C246 1.341 . S
N249 N248 1.365 . S
N249 H269 0.862 . S
C250 C245 1.501 . S
C250 H251 0.961 . S
C250 H252 0.961 . S
C250 H253 0.960 . S
H251 C250 0.961 . S
H252 C250 0.961 . S
H253 C250 0.960 . S
C254 N255 1.342 . S
C254 C258 1.401 . S
C254 C259 1.499 . S
N255 Co238 1.989 . S
N255 C254 1.342 . S
N255 N256 1.388 . S
N256 Co239 1.993 . S
N256 N255 1.388 . S
N256 C257 1.346 . S
C257 N256 1.346 . S
C257 C258 1.396 . S
C257 C267 1.510 . S
C258 C254 1.401 . S
C258 C257 1.396 . S
C259 C254 1.499 . S
C259 H260 0.959 . S
C259 H261 0.960 . S
C259 H262 0.961 . S
H260 C259 0.959 . S
H261 C259 0.960 . S
H262 C259 0.961 . S
O263 Co238 1.967 . S
O263 C271 1.258 . S
O264 Co239 1.941 . S
O264 C271 1.266 . S
H265 C267 0.959 . S
H266 C267 0.961 . S
C267 C257 1.510 . S
C267 H265 0.959 . S
C267 H266 0.961 . S
C267 H268 0.960 . S
H268 C267 0.960 . S
H269 N249 0.862 . S
O270 Co238 1.920 . S
O270 C243 1.289 . S
C271 O263 1.258 . S
C271 O264 1.266 . S
Co272 O275 1.970 . S
Co272 N289 1.989 . S
Co272 O297 1.967 . S
Co272 O304 1.920 . S
Co273 O276 1.966 . S
Co273 N282 2.022 . S
Co273 N290 1.993 . S
Co273 O298 1.941 . S
C274 O275 1.258 . S
C274 O276 1.263 . S
O275 Co272 1.970 . S
O275 C274 1.258 . S
O276 Co273 1.966 . S
O276 C274 1.263 . S
C277 O278 1.235 . S
C277 O304 1.289 . S
O278 C277 1.235 . S
C279 C281 1.400 . S
C279 N282 1.351 . S
C279 C284 1.501 1_565 S
C280 C281 1.387 . S
C280 N283 1.341 . S
C281 C279 1.400 . S
C281 C280 1.387 . S
N282 Co273 2.022 . S
N282 C279 1.351 . S
N282 N283 1.365 . S
N283 C280 1.341 . S
N283 N282 1.365 . S
N283 H303 0.862 . S
C284 C279 1.501 1_545 S
C284 H285 0.961 1_545 S
C284 H286 0.961 . S
C284 H287 0.960 . S
H285 C284 0.961 1_565 S
H286 C284 0.961 . S
H287 C284 0.960 . S
C288 N289 1.342 . S
C288 C292 1.401 . S
C288 C293 1.499 . S
N289 Co272 1.989 . S
N289 C288 1.342 . S
N289 N290 1.388 . S
N290 Co273 1.993 . S
N290 N289 1.388 . S
N290 C291 1.346 . S
C291 N290 1.346 . S
C291 C292 1.396 . S
C291 C301 1.510 . S
C292 C288 1.401 . S
C292 C291 1.396 . S
C293 C288 1.499 . S
C293 H294 0.959 . S
C293 H295 0.960 . S
C293 H296 0.961 . S
H294 C293 0.959 . S
H295 C293 0.960 . S
H296 C293 0.961 . S
O297 Co272 1.967 . S
O297 C305 1.258 . S
O298 Co273 1.941 . S
O298 C305 1.266 . S
H299 C301 0.959 . S
H300 C301 0.961 1_545 S
C301 C291 1.510 . S
C301 H299 0.959 . S
C301 H300 0.961 1_565 S
C301 H302 0.960 . S
H302 C301 0.960 . S
H303 N283 0.862 . S
O304 Co272 1.920 . S
O304 C277 1.289 . S
C305 O297 1.258 . S
C305 O298 1.266 . S
Co306 O309 1.970 . S
Co306 N323 1.989 . S
Co306 O331 1.967 . S
Co306 O338 1.920 . S
Co307 O310 1.966 . S
Co307 N316 2.022 . S
Co307 N324 1.993 . S
Co307 O332 1.941 . S
C308 O309 1.258 . S
C308 O310 1.263 . S
O309 Co306 1.970 . S
O309 C308 1.258 . S
O310 Co307 1.966 . S
O310 C308 1.263 . S
C311 O312 1.235 . S
C311 O338 1.289 . S
O312 C311 1.235 . S
C313 C315 1.400 . S
C313 N316 1.351 . S
C313 C318 1.501 . S
C314 C315 1.387 . S
C314 N317 1.341 . S
C315 C313 1.400 . S
C315 C314 1.387 . S
N316 Co307 2.022 . S
N316 C313 1.351 . S
N316 N317 1.365 . S
N317 C314 1.341 . S
N317 N316 1.365 . S
N317 H337 0.862 . S
C318 C313 1.501 . S
C318 H319 0.961 . S
C318 H320 0.961 . S
C318 H321 0.960 . S
H319 C318 0.961 . S
H320 C318 0.961 . S
H321 C318 0.960 . S
C322 N323 1.342 . S
C322 C326 1.401 . S
C322 C327 1.499 . S
N323 Co306 1.989 . S
N323 C322 1.342 . S
N323 N324 1.388 . S
N324 Co307 1.993 . S
N324 N323 1.388 . S
N324 C325 1.346 . S
C325 N324 1.346 . S
C325 C326 1.396 . S
C325 C335 1.510 . S
C326 C322 1.401 . S
C326 C325 1.396 . S
C327 C322 1.499 . S
C327 H328 0.959 . S
C327 H329 0.960 . S
C327 H330 0.961 . S
H328 C327 0.959 . S
H329 C327 0.960 . S
H330 C327 0.961 . S
O331 Co306 1.967 . S
O331 C339 1.258 . S
O332 Co307 1.941 . S
O332 C339 1.266 . S
H333 C335 0.959 . S
H334 C335 0.961 . S
C335 C325 1.510 . S
C335 H333 0.959 . S
C335 H334 0.961 . S
C335 H336 0.960 . S
H336 C335 0.960 . S
H337 N317 0.862 . S
O338 Co306 1.920 . S
O338 C311 1.289 . S
C339 O331 1.258 . S
C339 O332 1.266 . S
Co340 O343 1.970 . S
Co340 N357 1.989 . S
Co340 O365 1.967 . S
Co340 O372 1.920 . S
Co341 O344 1.966 . S
Co341 N350 2.022 . S
Co341 N358 1.993 . S
Co341 O366 1.941 . S
C342 O343 1.258 . S
C342 O344 1.263 . S
O343 Co340 1.970 . S
O343 C342 1.258 . S
O344 Co341 1.966 . S
O344 C342 1.263 . S
C345 O346 1.235 . S
C345 O372 1.289 . S
O346 C345 1.235 . S
C347 C349 1.400 . S
C347 N350 1.351 . S
C347 C352 1.501 1_545 S
C348 C349 1.387 . S
C348 N351 1.341 . S
C349 C347 1.400 . S
C349 C348 1.387 . S
N350 Co341 2.022 . S
N350 C347 1.351 . S
N350 N351 1.365 . S
N351 C348 1.341 . S
N351 N350 1.365 . S
N351 H371 0.862 . S
C352 C347 1.501 1_565 S
C352 H353 0.961 1_565 S
C352 H354 0.961 . S
C352 H355 0.960 . S
H353 C352 0.961 1_545 S
H354 C352 0.961 . S
H355 C352 0.960 . S
C356 N357 1.342 . S
C356 C360 1.401 . S
C356 C361 1.499 . S
N357 Co340 1.989 . S
N357 C356 1.342 . S
N357 N358 1.388 . S
N358 Co341 1.993 . S
N358 N357 1.388 . S
N358 C359 1.346 . S
C359 N358 1.346 . S
C359 C360 1.396 . S
C359 C369 1.510 . S
C360 C356 1.401 . S
C360 C359 1.396 . S
C361 C356 1.499 . S
C361 H362 0.959 . S
C361 H363 0.960 . S
C361 H364 0.961 . S
H362 C361 0.959 . S
H363 C361 0.960 . S
H364 C361 0.961 . S
O365 Co340 1.967 . S
O365 C373 1.258 . S
O366 Co341 1.941 . S
O366 C373 1.266 . S
H367 C369 0.959 . S
H368 C369 0.961 1_565 S
C369 C359 1.510 . S
C369 H367 0.959 . S
C369 H368 0.961 1_545 S
C369 H370 0.960 . S
H370 C369 0.960 . S
H371 N351 0.862 . S
O372 Co340 1.920 . S
O372 C345 1.289 . S
C373 O365 1.258 . S
C373 O366 1.266 . S
Co374 O377 1.970 . S
Co374 N391 1.989 . S
Co374 O399 1.967 . S
Co374 O406 1.920 . S
Co375 O378 1.966 . S
Co375 N384 2.022 . S
Co375 N392 1.993 . S
Co375 O400 1.941 . S
C376 O377 1.258 . S
C376 O378 1.263 . S
O377 Co374 1.970 . S
O377 C376 1.258 . S
O378 Co375 1.966 . S
O378 C376 1.263 . S
C379 O380 1.235 . S
C379 O406 1.289 . S
O380 C379 1.235 . S
C381 C383 1.400 . S
C381 N384 1.351 . S
C381 C386 1.501 . S
C382 C383 1.387 . S
C382 N385 1.341 . S
C383 C381 1.400 . S
C383 C382 1.387 . S
N384 Co375 2.022 . S
N384 C381 1.351 . S
N384 N385 1.365 . S
N385 C382 1.341 . S
N385 N384 1.365 . S
N385 H405 0.862 . S
C386 C381 1.501 . S
C386 H387 0.961 . S
C386 H388 0.961 . S
C386 H389 0.960 . S
H387 C386 0.961 . S
H388 C386 0.961 . S
H389 C386 0.960 . S
C390 N391 1.342 . S
C390 C394 1.401 . S
C390 C395 1.499 . S
N391 Co374 1.989 . S
N391 C390 1.342 . S
N391 N392 1.388 . S
N392 Co375 1.993 . S
N392 N391 1.388 . S
N392 C393 1.346 . S
C393 N392 1.346 . S
C393 C394 1.396 . S
C393 C403 1.510 . S
C394 C390 1.401 . S
C394 C393 1.396 . S
C395 C390 1.499 . S
C395 H396 0.959 . S
C395 H397 0.960 . S
C395 H398 0.961 . S
H396 C395 0.959 . S
H397 C395 0.960 . S
H398 C395 0.961 . S
O399 Co374 1.967 . S
O399 C407 1.258 . S
O400 Co375 1.941 . S
O400 C407 1.266 . S
H401 C403 0.959 . S
H402 C403 0.961 . S
C403 C393 1.510 . S
C403 H401 0.959 . S
C403 H402 0.961 . S
C403 H404 0.960 . S
H404 C403 0.960 . S
H405 N385 0.862 . S
O406 Co374 1.920 . S
O406 C379 1.289 . S
C407 O399 1.258 . S
C407 O400 1.266 . S
Co408 O411 1.970 . S
Co408 N425 1.989 . S
Co408 O433 1.967 . S
Co408 O440 1.920 . S
Co409 O412 1.966 . S
Co409 N418 2.022 . S
Co409 N426 1.993 . S
Co409 O434 1.941 . S
C410 O411 1.258 . S
C410 O412 1.263 . S
O411 Co408 1.970 . S
O411 C410 1.258 . S
O412 Co409 1.966 . S
O412 C410 1.263 . S
C413 O414 1.235 . S
C413 O440 1.289 . S
O414 C413 1.235 . S
C415 C417 1.400 . S
C415 N418 1.351 . S
C415 C420 1.501 1_545 S
C416 C417 1.387 . S
C416 N419 1.341 . S
C417 C415 1.400 . S
C417 C416 1.387 . S
N418 Co409 2.022 . S
N418 C415 1.351 . S
N418 N419 1.365 . S
N419 C416 1.341 . S
N419 N418 1.365 . S
N419 H439 0.862 . S
C420 C415 1.501 1_565 S
C420 H421 0.961 1_565 S
C420 H422 0.961 . S
C420 H423 0.960 . S
H421 C420 0.961 1_545 S
H422 C420 0.961 . S
H423 C420 0.960 . S
C424 N425 1.342 . S
C424 C428 1.401 . S
C424 C429 1.499 . S
N425 Co408 1.989 . S
N425 C424 1.342 . S
N425 N426 1.388 . S
N426 Co409 1.993 . S
N426 N425 1.388 . S
N426 C427 1.346 . S
C427 N426 1.346 . S
C427 C428 1.396 . S
C427 C437 1.510 . S
C428 C424 1.401 . S
C428 C427 1.396 . S
C429 C424 1.499 . S
C429 H430 0.959 . S
C429 H431 0.960 . S
C429 H432 0.961 . S
H430 C429 0.959 . S
H431 C429 0.960 . S
H432 C429 0.961 . S
O433 Co408 1.967 . S
O433 C441 1.258 . S
O434 Co409 1.941 . S
O434 C441 1.266 . S
H435 C437 0.959 . S
H436 C437 0.961 1_565 S
C437 C427 1.510 . S
C437 H435 0.959 . S
C437 H436 0.961 1_545 S
C437 H438 0.960 . S
H438 C437 0.960 . S
H439 N419 0.862 . S
O440 Co408 1.920 . S
O440 C413 1.289 . S
C441 O433 1.258 . S
C441 O434 1.266 . S
Co442 O445 1.970 . S
Co442 N459 1.989 . S
Co442 O467 1.967 . S
Co442 O474 1.920 . S
Co443 O446 1.966 . S
Co443 N452 2.022 . S
Co443 N460 1.993 . S
Co443 O468 1.941 . S
C444 O445 1.258 . S
C444 O446 1.263 . S
O445 Co442 1.970 . S
O445 C444 1.258 . S
O446 Co443 1.966 . S
O446 C444 1.263 . S
C447 O448 1.235 . S
C447 O474 1.289 . S
O448 C447 1.235 . S
C449 C451 1.400 . S
C449 N452 1.351 . S
C449 C454 1.501 . S
C450 C451 1.387 . S
C450 N453 1.341 . S
C451 C449 1.400 . S
C451 C450 1.387 . S
N452 Co443 2.022 . S
N452 C449 1.351 . S
N452 N453 1.365 . S
N453 C450 1.341 . S
N453 N452 1.365 . S
N453 H473 0.862 . S
C454 C449 1.501 . S
C454 H455 0.961 . S
C454 H456 0.961 . S
C454 H457 0.960 . S
H455 C454 0.961 . S
H456 C454 0.961 . S
H457 C454 0.960 . S
C458 N459 1.342 . S
C458 C462 1.401 . S
C458 C463 1.499 . S
N459 Co442 1.989 . S
N459 C458 1.342 . S
N459 N460 1.388 . S
N460 Co443 1.993 . S
N460 N459 1.388 . S
N460 C461 1.346 . S
C461 N460 1.346 . S
C461 C462 1.396 . S
C461 C471 1.510 . S
C462 C458 1.401 . S
C462 C461 1.396 . S
C463 C458 1.499 . S
C463 H464 0.959 . S
C463 H465 0.960 . S
C463 H466 0.961 . S
H464 C463 0.959 . S
H465 C463 0.960 . S
H466 C463 0.961 . S
O467 Co442 1.967 . S
O467 C475 1.258 . S
O468 Co443 1.941 . S
O468 C475 1.266 . S
H469 C471 0.959 . S
H470 C471 0.961 . S
C471 C461 1.510 . S
C471 H469 0.959 . S
C471 H470 0.961 . S
C471 H472 0.960 . S
H472 C471 0.960 . S
H473 N453 0.862 . S
O474 Co442 1.920 . S
O474 C447 1.289 . S
C475 O467 1.258 . S
C475 O468 1.266 . S
Co476 O479 1.970 . S
Co476 N493 1.989 . S
Co476 O501 1.967 . S
Co476 O508 1.920 . S
Co477 O480 1.966 . S
Co477 N486 2.022 . S
Co477 N494 1.993 . S
Co477 O502 1.941 . S
C478 O479 1.258 . S
C478 O480 1.263 . S
O479 Co476 1.970 . S
O479 C478 1.258 . S
O480 Co477 1.966 . S
O480 C478 1.263 . S
C481 O482 1.235 . S
C481 O508 1.289 . S
O482 C481 1.235 . S
C483 C485 1.400 . S
C483 N486 1.351 . S
C483 C488 1.501 1_565 S
C484 C485 1.387 . S
C484 N487 1.341 . S
C485 C483 1.400 . S
C485 C484 1.387 . S
N486 Co477 2.022 . S
N486 C483 1.351 . S
N486 N487 1.365 . S
N487 C484 1.341 . S
N487 N486 1.365 . S
N487 H507 0.862 . S
C488 C483 1.501 1_545 S
C488 H489 0.961 1_545 S
C488 H490 0.961 . S
C488 H491 0.960 . S
H489 C488 0.961 1_565 S
H490 C488 0.961 . S
H491 C488 0.960 . S
C492 N493 1.342 . S
C492 C496 1.401 . S
C492 C497 1.499 . S
N493 Co476 1.989 . S
N493 C492 1.342 . S
N493 N494 1.388 . S
N494 Co477 1.993 . S
N494 N493 1.388 . S
N494 C495 1.346 . S
C495 N494 1.346 . S
C495 C496 1.396 . S
C495 C505 1.510 . S
C496 C492 1.401 . S
C496 C495 1.396 . S
C497 C492 1.499 . S
C497 H498 0.959 . S
C497 H499 0.960 . S
C497 H500 0.961 . S
H498 C497 0.959 . S
H499 C497 0.960 . S
H500 C497 0.961 . S
O501 Co476 1.967 . S
O501 C509 1.258 . S
O502 Co477 1.941 . S
O502 C509 1.266 . S
H503 C505 0.959 . S
H504 C505 0.961 1_545 S
C505 C495 1.510 . S
C505 H503 0.959 . S
C505 H504 0.961 1_565 S
C505 H506 0.960 . S
H506 C505 0.960 . S
H507 N487 0.862 . S
O508 Co476 1.920 . S
O508 C481 1.289 . S
C509 O501 1.258 . S
C509 O502 1.266 . S
Co510 O513 1.970 . S
Co510 N527 1.989 . S
Co510 O535 1.967 . S
Co510 O542 1.920 . S
Co511 O514 1.966 . S
Co511 N520 2.022 . S
Co511 N528 1.993 . S
Co511 O536 1.941 . S
C512 O513 1.258 . S
C512 O514 1.263 . S
O513 Co510 1.970 . S
O513 C512 1.258 . S
O514 Co511 1.966 . S
O514 C512 1.263 . S
C515 O516 1.235 . S
C515 O542 1.289 . S
O516 C515 1.235 . S
C517 C519 1.400 . S
C517 N520 1.351 . S
C517 C522 1.501 . S
C518 C519 1.387 . S
C518 N521 1.341 . S
C519 C517 1.400 . S
C519 C518 1.387 . S
N520 Co511 2.022 . S
N520 C517 1.351 . S
N520 N521 1.365 . S
N521 C518 1.341 . S
N521 N520 1.365 . S
N521 H541 0.862 . S
C522 C517 1.501 . S
C522 H523 0.961 . S
C522 H524 0.961 . S
C522 H525 0.960 . S
H523 C522 0.961 . S
H524 C522 0.961 . S
H525 C522 0.960 . S
C526 N527 1.342 . S
C526 C530 1.401 . S
C526 C531 1.499 . S
N527 Co510 1.989 . S
N527 C526 1.342 . S
N527 N528 1.388 . S
N528 Co511 1.993 . S
N528 N527 1.388 . S
N528 C529 1.346 . S
C529 N528 1.346 . S
C529 C530 1.396 . S
C529 C539 1.510 . S
C530 C526 1.401 . S
C530 C529 1.396 . S
C531 C526 1.499 . S
C531 H532 0.959 . S
C531 H533 0.960 . S
C531 H534 0.961 . S
H532 C531 0.959 . S
H533 C531 0.960 . S
H534 C531 0.961 . S
O535 Co510 1.967 . S
O535 C543 1.258 . S
O536 Co511 1.941 . S
O536 C543 1.266 . S
H537 C539 0.959 . S
H538 C539 0.961 . S
C539 C529 1.510 . S
C539 H537 0.959 . S
C539 H538 0.961 . S
C539 H540 0.960 . S
H540 C539 0.960 . S
H541 N521 0.862 . S
O542 Co510 1.920 . S
O542 C515 1.289 . S
C543 O535 1.258 . S
C543 O536 1.266 . S
Co544 O547 1.970 . S
Co544 N561 1.989 . S
Co544 O569 1.967 . S
Co544 O576 1.920 . S
Co545 O548 1.966 . S
Co545 N554 2.022 . S
Co545 N562 1.993 . S
Co545 O570 1.941 . S
C546 O547 1.258 . S
C546 O548 1.263 . S
O547 Co544 1.970 . S
O547 C546 1.258 . S
O548 Co545 1.966 . S
O548 C546 1.263 . S
C549 O550 1.235 . S
C549 O576 1.289 . S
O550 C549 1.235 . S
C551 C553 1.400 . S
C551 N554 1.351 . S
C551 C556 1.501 . S
C552 C553 1.387 . S
C552 N555 1.341 . S
C553 C551 1.400 . S
C553 C552 1.387 . S
N554 Co545 2.022 . S
N554 C551 1.351 . S
N554 N555 1.365 . S
N555 C552 1.341 . S
N555 N554 1.365 . S
N555 H575 0.862 . S
C556 C551 1.501 . S
C556 H557 0.961 . S
C556 H558 0.961 . S
C556 H559 0.960 . S
H557 C556 0.961 . S
H558 C556 0.961 . S
H559 C556 0.960 . S
C560 N561 1.342 . S
C560 C564 1.401 . S
C560 C565 1.499 . S
N561 Co544 1.989 . S
N561 C560 1.342 . S
N561 N562 1.388 . S
N562 Co545 1.993 . S
N562 N561 1.388 . S
N562 C563 1.346 . S
C563 N562 1.346 . S
C563 C564 1.396 . S
C563 C573 1.510 . S
C564 C560 1.401 . S
C564 C563 1.396 . S
C565 C560 1.499 . S
C565 H566 0.959 . S
C565 H567 0.960 . S
C565 H568 0.961 . S
H566 C565 0.959 . S
H567 C565 0.960 . S
H568 C565 0.961 . S
O569 Co544 1.967 . S
O569 C577 1.258 . S
O570 Co545 1.941 . S
O570 C577 1.266 . S
H571 C573 0.959 . S
H572 C573 0.961 . S
C573 C563 1.510 . S
C573 H571 0.959 . S
C573 H572 0.961 . S
C573 H574 0.960 . S
H574 C573 0.960 . S
H575 N555 0.862 . S
O576 Co544 1.920 . S
O576 C549 1.289 . S
C577 O569 1.258 . S
C577 O570 1.266 . S
Co578 O581 1.970 . S
Co578 N595 1.989 . S
Co578 O603 1.967 . S
Co578 O610 1.920 . S
Co579 O582 1.966 . S
Co579 N588 2.022 . S
Co579 N596 1.993 . S
Co579 O604 1.941 . S
C580 O581 1.258 . S
C580 O582 1.263 . S
O581 Co578 1.970 . S
O581 C580 1.258 . S
O582 Co579 1.966 . S
O582 C580 1.263 . S
C583 O584 1.235 . S
C583 O610 1.289 . S
O584 C583 1.235 . S
C585 C587 1.400 . S
C585 N588 1.351 . S
C585 C590 1.501 . S
C586 C587 1.387 . S
C586 N589 1.341 . S
C587 C585 1.400 . S
C587 C586 1.387 . S
N588 Co579 2.022 . S
N588 C585 1.351 . S
N588 N589 1.365 . S
N589 C586 1.341 . S
N589 N588 1.365 . S
N589 H609 0.862 . S
C590 C585 1.501 . S
C590 H591 0.961 . S
C590 H592 0.961 . S
C590 H593 0.960 . S
H591 C590 0.961 . S
H592 C590 0.961 . S
H593 C590 0.960 . S
C594 N595 1.342 . S
C594 C598 1.401 . S
C594 C599 1.499 . S
N595 Co578 1.989 . S
N595 C594 1.342 . S
N595 N596 1.388 . S
N596 Co579 1.993 . S
N596 N595 1.388 . S
N596 C597 1.346 . S
C597 N596 1.346 . S
C597 C598 1.396 . S
C597 C607 1.510 . S
C598 C594 1.401 . S
C598 C597 1.396 . S
C599 C594 1.499 . S
C599 H600 0.959 . S
C599 H601 0.960 . S
C599 H602 0.961 . S
H600 C599 0.959 . S
H601 C599 0.960 . S
H602 C599 0.961 . S
O603 Co578 1.967 . S
O603 C611 1.258 . S
O604 Co579 1.941 . S
O604 C611 1.266 . S
H605 C607 0.959 . S
H606 C607 0.961 . S
C607 C597 1.510 . S
C607 H605 0.959 . S
C607 H606 0.961 . S
C607 H608 0.960 . S
H608 C607 0.960 . S
H609 N589 0.862 . S
O610 Co578 1.920 . S
O610 C583 1.289 . S
C611 O603 1.258 . S
C611 O604 1.266 . S
Co612 O615 1.970 . S
Co612 N629 1.989 . S
Co612 O637 1.967 . S
Co612 O644 1.920 . S
Co613 O616 1.966 . S
Co613 N622 2.022 . S
Co613 N630 1.993 . S
Co613 O638 1.941 . S
C614 O615 1.258 . S
C614 O616 1.263 . S
O615 Co612 1.970 . S
O615 C614 1.258 . S
O616 Co613 1.966 . S
O616 C614 1.263 . S
C617 O618 1.235 . S
C617 O644 1.289 . S
O618 C617 1.235 . S
C619 C621 1.400 . S
C619 N622 1.351 . S
C619 C624 1.501 . S
C620 C621 1.387 . S
C620 N623 1.341 . S
C621 C619 1.400 . S
C621 C620 1.387 . S
N622 Co613 2.022 . S
N622 C619 1.351 . S
N622 N623 1.365 . S
N623 C620 1.341 . S
N623 N622 1.365 . S
N623 H643 0.862 . S
C624 C619 1.501 . S
C624 H625 0.961 . S
C624 H626 0.961 . S
C624 H627 0.960 . S
H625 C624 0.961 . S
H626 C624 0.961 . S
H627 C624 0.960 . S
C628 N629 1.342 . S
C628 C632 1.401 . S
C628 C633 1.499 . S
N629 Co612 1.989 . S
N629 C628 1.342 . S
N629 N630 1.388 . S
N630 Co613 1.993 . S
N630 N629 1.388 . S
N630 C631 1.346 . S
C631 N630 1.346 . S
C631 C632 1.396 . S
C631 C641 1.510 . S
C632 C628 1.401 . S
C632 C631 1.396 . S
C633 C628 1.499 . S
C633 H634 0.959 . S
C633 H635 0.960 . S
C633 H636 0.961 . S
H634 C633 0.959 . S
H635 C633 0.960 . S
H636 C633 0.961 . S
O637 Co612 1.967 . S
O637 C645 1.258 . S
O638 Co613 1.941 . S
O638 C645 1.266 . S
H639 C641 0.959 . S
H640 C641 0.961 . S
C641 C631 1.510 . S
C641 H639 0.959 . S
C641 H640 0.961 . S
C641 H642 0.960 . S
H642 C641 0.960 . S
H643 N623 0.862 . S
O644 Co612 1.920 . S
O644 C617 1.289 . S
C645 O637 1.258 . S
C645 O638 1.266 . S
Co646 O649 1.970 . S
Co646 N663 1.989 . S
Co646 O671 1.967 . S
Co646 O678 1.920 . S
Co647 O650 1.966 . S
Co647 N656 2.022 . S
Co647 N664 1.993 . S
Co647 O672 1.941 . S
C648 O649 1.258 . S
C648 O650 1.263 . S
O649 Co646 1.970 . S
O649 C648 1.258 . S
O650 Co647 1.966 . S
O650 C648 1.263 . S
C651 O652 1.235 . S
C651 O678 1.289 . S
O652 C651 1.235 . S
C653 C655 1.400 . S
C653 N656 1.351 . S
C653 C658 1.501 . S
C654 C655 1.387 . S
C654 N657 1.341 . S
C655 C653 1.400 . S
C655 C654 1.387 . S
N656 Co647 2.022 . S
N656 C653 1.351 . S
N656 N657 1.365 . S
N657 C654 1.341 . S
N657 N656 1.365 . S
N657 H677 0.862 . S
C658 C653 1.501 . S
C658 H659 0.961 . S
C658 H660 0.961 . S
C658 H661 0.960 . S
H659 C658 0.961 . S
H660 C658 0.961 . S
H661 C658 0.960 . S
C662 N663 1.342 . S
C662 C666 1.401 . S
C662 C667 1.499 . S
N663 Co646 1.989 . S
N663 C662 1.342 . S
N663 N664 1.388 . S
N664 Co647 1.993 . S
N664 N663 1.388 . S
N664 C665 1.346 . S
C665 N664 1.346 . S
C665 C666 1.396 . S
C665 C675 1.510 . S
C666 C662 1.401 . S
C666 C665 1.396 . S
C667 C662 1.499 . S
C667 H668 0.959 . S
C667 H669 0.960 . S
C667 H670 0.961 . S
H668 C667 0.959 . S
H669 C667 0.960 . S
H670 C667 0.961 . S
O671 Co646 1.967 . S
O671 C679 1.258 . S
O672 Co647 1.941 . S
O672 C679 1.266 . S
H673 C675 0.959 . S
H674 C675 0.961 . S
C675 C665 1.510 . S
C675 H673 0.959 . S
C675 H674 0.961 . S
C675 H676 0.960 . S
H676 C675 0.960 . S
H677 N657 0.862 . S
O678 Co646 1.920 . S
O678 C651 1.289 . S
C679 O671 1.258 . S
C679 O672 1.266 . S
Co680 O683 1.970 . S
Co680 N697 1.989 . S
Co680 O705 1.967 . S
Co680 O712 1.920 . S
Co681 O684 1.966 . S
Co681 N690 2.022 . S
Co681 N698 1.993 . S
Co681 O706 1.941 . S
C682 O683 1.258 . S
C682 O684 1.263 . S
O683 Co680 1.970 . S
O683 C682 1.258 . S
O684 Co681 1.966 . S
O684 C682 1.263 . S
C685 O686 1.235 . S
C685 O712 1.289 . S
O686 C685 1.235 . S
C687 C689 1.400 . S
C687 N690 1.351 . S
C687 C692 1.501 . S
C688 C689 1.387 . S
C688 N691 1.341 . S
C689 C687 1.400 . S
C689 C688 1.387 . S
N690 Co681 2.022 . S
N690 C687 1.351 . S
N690 N691 1.365 . S
N691 C688 1.341 . S
N691 N690 1.365 . S
N691 H711 0.862 . S
C692 C687 1.501 . S
C692 H693 0.961 . S
C692 H694 0.961 . S
C692 H695 0.960 . S
H693 C692 0.961 . S
H694 C692 0.961 . S
H695 C692 0.960 . S
C696 N697 1.342 . S
C696 C700 1.401 . S
C696 C701 1.499 . S
N697 Co680 1.989 . S
N697 C696 1.342 . S
N697 N698 1.388 . S
N698 Co681 1.993 . S
N698 N697 1.388 . S
N698 C699 1.346 . S
C699 N698 1.346 . S
C699 C700 1.396 . S
C699 C709 1.510 . S
C700 C696 1.401 . S
C700 C699 1.396 . S
C701 C696 1.499 . S
C701 H702 0.959 . S
C701 H703 0.960 . S
C701 H704 0.961 . S
H702 C701 0.959 . S
H703 C701 0.960 . S
H704 C701 0.961 . S
O705 Co680 1.967 . S
O705 C713 1.258 . S
O706 Co681 1.941 . S
O706 C713 1.266 . S
H707 C709 0.959 . S
H708 C709 0.961 . S
C709 C699 1.510 . S
C709 H707 0.959 . S
C709 H708 0.961 . S
C709 H710 0.960 . S
H710 C709 0.960 . S
H711 N691 0.862 . S
O712 Co680 1.920 . S
O712 C685 1.289 . S
C713 O705 1.258 . S
C713 O706 1.266 . S
Co714 O717 1.970 . S
Co714 N731 1.989 . S
Co714 O739 1.967 . S
Co714 O746 1.920 . S
Co715 O718 1.966 . S
Co715 N724 2.022 . S
Co715 N732 1.993 . S
Co715 O740 1.941 . S
C716 O717 1.258 . S
C716 O718 1.263 . S
O717 Co714 1.970 . S
O717 C716 1.258 . S
O718 Co715 1.966 . S
O718 C716 1.263 . S
C719 O720 1.235 . S
C719 O746 1.289 . S
O720 C719 1.235 . S
C721 C723 1.400 . S
C721 N724 1.351 . S
C721 C726 1.501 . S
C722 C723 1.387 . S
C722 N725 1.341 . S
C723 C721 1.400 . S
C723 C722 1.387 . S
N724 Co715 2.022 . S
N724 C721 1.351 . S
N724 N725 1.365 . S
N725 C722 1.341 . S
N725 N724 1.365 . S
N725 H745 0.862 . S
C726 C721 1.501 . S
C726 H727 0.961 . S
C726 H728 0.961 . S
C726 H729 0.960 . S
H727 C726 0.961 . S
H728 C726 0.961 . S
H729 C726 0.960 . S
C730 N731 1.342 . S
C730 C734 1.401 . S
C730 C735 1.499 . S
N731 Co714 1.989 . S
N731 C730 1.342 . S
N731 N732 1.388 . S
N732 Co715 1.993 . S
N732 N731 1.388 . S
N732 C733 1.346 . S
C733 N732 1.346 . S
C733 C734 1.396 . S
C733 C743 1.510 . S
C734 C730 1.401 . S
C734 C733 1.396 . S
C735 C730 1.499 . S
C735 H736 0.959 . S
C735 H737 0.960 . S
C735 H738 0.961 . S
H736 C735 0.959 . S
H737 C735 0.960 . S
H738 C735 0.961 . S
O739 Co714 1.967 . S
O739 C747 1.258 . S
O740 Co715 1.941 . S
O740 C747 1.266 . S
H741 C743 0.959 . S
H742 C743 0.961 . S
C743 C733 1.510 . S
C743 H741 0.959 . S
C743 H742 0.961 . S
C743 H744 0.960 . S
H744 C743 0.960 . S
H745 N725 0.862 . S
O746 Co714 1.920 . S
O746 C719 1.289 . S
C747 O739 1.258 . S
C747 O740 1.266 . S
Co748 O751 1.970 . S
Co748 N765 1.989 . S
Co748 O773 1.967 . S
Co748 O780 1.920 . S
Co749 O752 1.966 . S
Co749 N758 2.022 . S
Co749 N766 1.993 . S
Co749 O774 1.941 . S
C750 O751 1.258 . S
C750 O752 1.263 . S
O751 Co748 1.970 . S
O751 C750 1.258 . S
O752 Co749 1.966 . S
O752 C750 1.263 . S
C753 O754 1.235 . S
C753 O780 1.289 . S
O754 C753 1.235 . S
C755 C757 1.400 . S
C755 N758 1.351 . S
C755 C760 1.501 . S
C756 C757 1.387 . S
C756 N759 1.341 . S
C757 C755 1.400 . S
C757 C756 1.387 . S
N758 Co749 2.022 . S
N758 C755 1.351 . S
N758 N759 1.365 . S
N759 C756 1.341 . S
N759 N758 1.365 . S
N759 H779 0.862 . S
C760 C755 1.501 . S
C760 H761 0.961 . S
C760 H762 0.961 . S
C760 H763 0.960 . S
H761 C760 0.961 . S
H762 C760 0.961 . S
H763 C760 0.960 . S
C764 N765 1.342 . S
C764 C768 1.401 . S
C764 C769 1.499 . S
N765 Co748 1.989 . S
N765 C764 1.342 . S
N765 N766 1.388 . S
N766 Co749 1.993 . S
N766 N765 1.388 . S
N766 C767 1.346 . S
C767 N766 1.346 . S
C767 C768 1.396 . S
C767 C777 1.510 . S
C768 C764 1.401 . S
C768 C767 1.396 . S
C769 C764 1.499 . S
C769 H770 0.959 . S
C769 H771 0.960 . S
C769 H772 0.961 . S
H770 C769 0.959 . S
H771 C769 0.960 . S
H772 C769 0.961 . S
O773 Co748 1.967 . S
O773 C781 1.258 . S
O774 Co749 1.941 . S
O774 C781 1.266 . S
H775 C777 0.959 . S
H776 C777 0.961 . S
C777 C767 1.510 . S
C777 H775 0.959 . S
C777 H776 0.961 . S
C777 H778 0.960 . S
H778 C777 0.960 . S
H779 N759 0.862 . S
O780 Co748 1.920 . S
O780 C753 1.289 . S
C781 O773 1.258 . S
C781 O774 1.266 . S
Co782 O785 1.970 . S
Co782 N799 1.989 . S
Co782 O807 1.967 . S
Co782 O814 1.920 . S
Co783 O786 1.966 . S
Co783 N792 2.022 . S
Co783 N800 1.993 . S
Co783 O808 1.941 . S
C784 O785 1.258 . S
C784 O786 1.263 . S
O785 Co782 1.970 . S
O785 C784 1.258 . S
O786 Co783 1.966 . S
O786 C784 1.263 . S
C787 O788 1.235 . S
C787 O814 1.289 . S
O788 C787 1.235 . S
C789 C791 1.400 . S
C789 N792 1.351 . S
C789 C794 1.501 . S
C790 C791 1.387 . S
C790 N793 1.341 . S
C791 C789 1.400 . S
C791 C790 1.387 . S
N792 Co783 2.022 . S
N792 C789 1.351 . S
N792 N793 1.365 . S
N793 C790 1.341 . S
N793 N792 1.365 . S
N793 H813 0.862 . S
C794 C789 1.501 . S
C794 H795 0.961 . S
C794 H796 0.961 . S
C794 H797 0.960 . S
H795 C794 0.961 . S
H796 C794 0.961 . S
H797 C794 0.960 . S
C798 N799 1.342 . S
C798 C802 1.401 . S
C798 C803 1.499 . S
N799 Co782 1.989 . S
N799 C798 1.342 . S
N799 N800 1.388 . S
N800 Co783 1.993 . S
N800 N799 1.388 . S
N800 C801 1.346 . S
C801 N800 1.346 . S
C801 C802 1.396 . S
C801 C811 1.510 . S
C802 C798 1.401 . S
C802 C801 1.396 . S
C803 C798 1.499 . S
C803 H804 0.959 . S
C803 H805 0.960 . S
C803 H806 0.961 . S
H804 C803 0.959 . S
H805 C803 0.960 . S
H806 C803 0.961 . S
O807 Co782 1.967 . S
O807 C815 1.258 . S
O808 Co783 1.941 . S
O808 C815 1.266 . S
H809 C811 0.959 . S
H810 C811 0.961 . S
C811 C801 1.510 . S
C811 H809 0.959 . S
C811 H810 0.961 . S
C811 H812 0.960 . S
H812 C811 0.960 . S
H813 N793 0.862 . S
O814 Co782 1.920 . S
O814 C787 1.289 . S
C815 O807 1.258 . S
C815 O808 1.266 . S
Co816 O819 1.970 . S
Co816 N833 1.989 . S
Co816 O841 1.967 . S
Co816 O848 1.920 . S
Co817 O820 1.966 . S
Co817 N826 2.022 . S
Co817 N834 1.993 . S
Co817 O842 1.941 . S
C818 O819 1.258 . S
C818 O820 1.263 . S
O819 Co816 1.970 . S
O819 C818 1.258 . S
O820 Co817 1.966 . S
O820 C818 1.263 . S
C821 O822 1.235 . S
C821 O848 1.289 . S
O822 C821 1.235 . S
C823 C825 1.400 . S
C823 N826 1.351 . S
C823 C828 1.501 . S
C824 C825 1.387 . S
C824 N827 1.341 . S
C825 C823 1.400 . S
C825 C824 1.387 . S
N826 Co817 2.022 . S
N826 C823 1.351 . S
N826 N827 1.365 . S
N827 C824 1.341 . S
N827 N826 1.365 . S
N827 H847 0.862 . S
C828 C823 1.501 . S
C828 H829 0.961 . S
C828 H830 0.961 . S
C828 H831 0.960 . S
H829 C828 0.961 . S
H830 C828 0.961 . S
H831 C828 0.960 . S
C832 N833 1.342 . S
C832 C836 1.401 . S
C832 C837 1.499 . S
N833 Co816 1.989 . S
N833 C832 1.342 . S
N833 N834 1.388 . S
N834 Co817 1.993 . S
N834 N833 1.388 . S
N834 C835 1.346 . S
C835 N834 1.346 . S
C835 C836 1.396 . S
C835 C845 1.510 . S
C836 C832 1.401 . S
C836 C835 1.396 . S
C837 C832 1.499 . S
C837 H838 0.959 . S
C837 H839 0.960 . S
C837 H840 0.961 . S
H838 C837 0.959 . S
H839 C837 0.960 . S
H840 C837 0.961 . S
O841 Co816 1.967 . S
O841 C849 1.258 . S
O842 Co817 1.941 . S
O842 C849 1.266 . S
H843 C845 0.959 . S
H844 C845 0.961 . S
C845 C835 1.510 . S
C845 H843 0.959 . S
C845 H844 0.961 . S
C845 H846 0.960 . S
H846 C845 0.960 . S
H847 N827 0.862 . S
O848 Co816 1.920 . S
O848 C821 1.289 . S
C849 O841 1.258 . S
C849 O842 1.266 . S
Co850 O853 1.970 . S
Co850 N867 1.989 . S
Co850 O875 1.967 . S
Co850 O882 1.920 . S
Co851 O854 1.966 . S
Co851 N860 2.022 . S
Co851 N868 1.993 . S
Co851 O876 1.941 . S
C852 O853 1.258 . S
C852 O854 1.263 . S
O853 Co850 1.970 . S
O853 C852 1.258 . S
O854 Co851 1.966 . S
O854 C852 1.263 . S
C855 O856 1.235 . S
C855 O882 1.289 . S
O856 C855 1.235 . S
C857 C859 1.400 . S
C857 N860 1.351 . S
C857 C862 1.501 . S
C858 C859 1.387 . S
C858 N861 1.341 . S
C859 C857 1.400 . S
C859 C858 1.387 . S
N860 Co851 2.022 . S
N860 C857 1.351 . S
N860 N861 1.365 . S
N861 C858 1.341 . S
N861 N860 1.365 . S
N861 H881 0.862 . S
C862 C857 1.501 . S
C862 H863 0.961 . S
C862 H864 0.961 . S
C862 H865 0.960 . S
H863 C862 0.961 . S
H864 C862 0.961 . S
H865 C862 0.960 . S
C866 N867 1.342 . S
C866 C870 1.401 . S
C866 C871 1.499 . S
N867 Co850 1.989 . S
N867 C866 1.342 . S
N867 N868 1.388 . S
N868 Co851 1.993 . S
N868 N867 1.388 . S
N868 C869 1.346 . S
C869 N868 1.346 . S
C869 C870 1.396 . S
C869 C879 1.510 . S
C870 C866 1.401 . S
C870 C869 1.396 . S
C871 C866 1.499 . S
C871 H872 0.959 . S
C871 H873 0.960 . S
C871 H874 0.961 . S
H872 C871 0.959 . S
H873 C871 0.960 . S
H874 C871 0.961 . S
O875 Co850 1.967 . S
O875 C883 1.258 . S
O876 Co851 1.941 . S
O876 C883 1.266 . S
H877 C879 0.959 . S
H878 C879 0.961 . S
C879 C869 1.510 . S
C879 H877 0.959 . S
C879 H878 0.961 . S
C879 H880 0.960 . S
H880 C879 0.960 . S
H881 N861 0.862 . S
O882 Co850 1.920 . S
O882 C855 1.289 . S
C883 O875 1.258 . S
C883 O876 1.266 . S
Co884 O887 1.970 . S
Co884 N901 1.989 . S
Co884 O909 1.967 . S
Co884 O916 1.920 . S
Co885 O888 1.966 . S
Co885 N894 2.022 . S
Co885 N902 1.993 . S
Co885 O910 1.941 . S
C886 O887 1.258 . S
C886 O888 1.263 . S
O887 Co884 1.970 . S
O887 C886 1.258 . S
O888 Co885 1.966 . S
O888 C886 1.263 . S
C889 O890 1.235 . S
C889 O916 1.289 . S
O890 C889 1.235 . S
C891 C893 1.400 . S
C891 N894 1.351 . S
C891 C896 1.501 . S
C892 C893 1.387 . S
C892 N895 1.341 . S
C893 C891 1.400 . S
C893 C892 1.387 . S
N894 Co885 2.022 . S
N894 C891 1.351 . S
N894 N895 1.365 . S
N895 C892 1.341 . S
N895 N894 1.365 . S
N895 H915 0.862 . S
C896 C891 1.501 . S
C896 H897 0.961 . S
C896 H898 0.961 . S
C896 H899 0.960 . S
H897 C896 0.961 . S
H898 C896 0.961 . S
H899 C896 0.960 . S
C900 N901 1.342 . S
C900 C904 1.401 . S
C900 C905 1.499 . S
N901 Co884 1.989 . S
N901 C900 1.342 . S
N901 N902 1.388 . S
N902 Co885 1.993 . S
N902 N901 1.388 . S
N902 C903 1.346 . S
C903 N902 1.346 . S
C903 C904 1.396 . S
C903 C913 1.510 . S
C904 C900 1.401 . S
C904 C903 1.396 . S
C905 C900 1.499 . S
C905 H906 0.959 . S
C905 H907 0.960 . S
C905 H908 0.961 . S
H906 C905 0.959 . S
H907 C905 0.960 . S
H908 C905 0.961 . S
O909 Co884 1.967 . S
O909 C917 1.258 . S
O910 Co885 1.941 . S
O910 C917 1.266 . S
H911 C913 0.959 . S
H912 C913 0.961 . S
C913 C903 1.510 . S
C913 H911 0.959 . S
C913 H912 0.961 . S
C913 H914 0.960 . S
H914 C913 0.960 . S
H915 N895 0.862 . S
O916 Co884 1.920 . S
O916 C889 1.289 . S
C917 O909 1.258 . S
C917 O910 1.266 . S
Co918 O921 1.970 . S
Co918 N935 1.989 . S
Co918 O943 1.967 . S
Co918 O950 1.920 . S
Co919 O922 1.966 . S
Co919 N928 2.022 . S
Co919 N936 1.993 . S
Co919 O944 1.941 . S
C920 O921 1.258 . S
C920 O922 1.263 . S
O921 Co918 1.970 . S
O921 C920 1.258 . S
O922 Co919 1.966 . S
O922 C920 1.263 . S
C923 O924 1.235 . S
C923 O950 1.289 . S
O924 C923 1.235 . S
C925 C927 1.400 . S
C925 N928 1.351 . S
C925 C930 1.501 . S
C926 C927 1.387 . S
C926 N929 1.341 . S
C927 C925 1.400 . S
C927 C926 1.387 . S
N928 Co919 2.022 . S
N928 C925 1.351 . S
N928 N929 1.365 . S
N929 C926 1.341 . S
N929 N928 1.365 . S
N929 H949 0.862 . S
C930 C925 1.501 . S
C930 H931 0.961 . S
C930 H932 0.961 . S
C930 H933 0.960 . S
H931 C930 0.961 . S
H932 C930 0.961 . S
H933 C930 0.960 . S
C934 N935 1.342 . S
C934 C938 1.401 . S
C934 C939 1.499 . S
N935 Co918 1.989 . S
N935 C934 1.342 . S
N935 N936 1.388 . S
N936 Co919 1.993 . S
N936 N935 1.388 . S
N936 C937 1.346 . S
C937 N936 1.346 . S
C937 C938 1.396 . S
C937 C947 1.510 . S
C938 C934 1.401 . S
C938 C937 1.396 . S
C939 C934 1.499 . S
C939 H940 0.959 . S
C939 H941 0.960 . S
C939 H942 0.961 . S
H940 C939 0.959 . S
H941 C939 0.960 . S
H942 C939 0.961 . S
O943 Co918 1.967 . S
O943 C951 1.258 . S
O944 Co919 1.941 . S
O944 C951 1.266 . S
H945 C947 0.959 . S
H946 C947 0.961 . S
C947 C937 1.510 . S
C947 H945 0.959 . S
C947 H946 0.961 . S
C947 H948 0.960 . S
H948 C947 0.960 . S
H949 N929 0.862 . S
O950 Co918 1.920 . S
O950 C923 1.289 . S
C951 O943 1.258 . S
C951 O944 1.266 . S
Co952 O955 1.970 . S
Co952 N969 1.989 . S
Co952 O977 1.967 . S
Co952 O984 1.920 . S
Co953 O956 1.966 . S
Co953 N962 2.022 . S
Co953 N970 1.993 . S
Co953 O978 1.941 . S
C954 O955 1.258 . S
C954 O956 1.263 . S
O955 Co952 1.970 . S
O955 C954 1.258 . S
O956 Co953 1.966 . S
O956 C954 1.263 . S
C957 O958 1.235 . S
C957 O984 1.289 . S
O958 C957 1.235 . S
C959 C961 1.400 . S
C959 N962 1.351 . S
C959 C964 1.501 . S
C960 C961 1.387 . S
C960 N963 1.341 . S
C961 C959 1.400 . S
C961 C960 1.387 . S
N962 Co953 2.022 . S
N962 C959 1.351 . S
N962 N963 1.365 . S
N963 C960 1.341 . S
N963 N962 1.365 . S
N963 H983 0.862 . S
C964 C959 1.501 . S
C964 H965 0.961 . S
C964 H966 0.961 . S
C964 H967 0.960 . S
H965 C964 0.961 . S
H966 C964 0.961 . S
H967 C964 0.960 . S
C968 N969 1.342 . S
C968 C972 1.401 . S
C968 C973 1.499 . S
N969 Co952 1.989 . S
N969 C968 1.342 . S
N969 N970 1.388 . S
N970 Co953 1.993 . S
N970 N969 1.388 . S
N970 C971 1.346 . S
C971 N970 1.346 . S
C971 C972 1.396 . S
C971 C981 1.510 . S
C972 C968 1.401 . S
C972 C971 1.396 . S
C973 C968 1.499 . S
C973 H974 0.959 . S
C973 H975 0.960 . S
C973 H976 0.961 . S
H974 C973 0.959 . S
H975 C973 0.960 . S
H976 C973 0.961 . S
O977 Co952 1.967 . S
O977 C985 1.258 . S
O978 Co953 1.941 . S
O978 C985 1.266 . S
H979 C981 0.959 . S
H980 C981 0.961 . S
C981 C971 1.510 . S
C981 H979 0.959 . S
C981 H980 0.961 . S
C981 H982 0.960 . S
H982 C981 0.960 . S
H983 N963 0.862 . S
O984 Co952 1.920 . S
O984 C957 1.289 . S
C985 O977 1.258 . S
C985 O978 1.266 . S
Co986 O989 1.970 . S
Co986 N1003 1.989 . S
Co986 O1011 1.967 . S
Co986 O1018 1.920 . S
Co987 O990 1.966 . S
Co987 N996 2.022 . S
Co987 N1004 1.993 . S
Co987 O1012 1.941 . S
C988 O989 1.258 . S
C988 O990 1.263 . S
O989 Co986 1.970 . S
O989 C988 1.258 . S
O990 Co987 1.966 . S
O990 C988 1.263 . S
C991 O992 1.235 . S
C991 O1018 1.289 . S
O992 C991 1.235 . S
C993 C995 1.400 . S
C993 N996 1.351 . S
C993 C998 1.501 . S
C994 C995 1.387 . S
C994 N997 1.341 . S
C995 C993 1.400 . S
C995 C994 1.387 . S
N996 Co987 2.022 . S
N996 C993 1.351 . S
N996 N997 1.365 . S
N997 C994 1.341 . S
N997 N996 1.365 . S
N997 H1017 0.862 . S
C998 C993 1.501 . S
C998 H999 0.961 . S
C998 H1000 0.961 . S
C998 H1001 0.960 . S
H999 C998 0.961 . S
H1000 C998 0.961 . S
H1001 C998 0.960 . S
C1002 N1003 1.342 . S
C1002 C1006 1.401 . S
C1002 C1007 1.499 . S
N1003 Co986 1.989 . S
N1003 C1002 1.342 . S
N1003 N1004 1.388 . S
N1004 Co987 1.993 . S
N1004 N1003 1.388 . S
N1004 C1005 1.346 . S
C1005 N1004 1.346 . S
C1005 C1006 1.396 . S
C1005 C1015 1.510 . S
C1006 C1002 1.401 . S
C1006 C1005 1.396 . S
C1007 C1002 1.499 . S
C1007 H1008 0.959 . S
C1007 H1009 0.960 . S
C1007 H1010 0.961 . S
H1008 C1007 0.959 . S
H1009 C1007 0.960 . S
H1010 C1007 0.961 . S
O1011 Co986 1.967 . S
O1011 C1019 1.258 . S
O1012 Co987 1.941 . S
O1012 C1019 1.266 . S
H1013 C1015 0.959 . S
H1014 C1015 0.961 . S
C1015 C1005 1.510 . S
C1015 H1013 0.959 . S
C1015 H1014 0.961 . S
C1015 H1016 0.960 . S
H1016 C1015 0.960 . S
H1017 N997 0.862 . S
O1018 Co986 1.920 . S
O1018 C991 1.289 . S
C1019 O1011 1.258 . S
C1019 O1012 1.266 . S
Co1020 O1023 1.970 . S
Co1020 N1037 1.989 . S
Co1020 O1045 1.967 . S
Co1020 O1052 1.920 . S
Co1021 O1024 1.966 . S
Co1021 N1030 2.022 . S
Co1021 N1038 1.993 . S
Co1021 O1046 1.941 . S
C1022 O1023 1.258 . S
C1022 O1024 1.263 . S
O1023 Co1020 1.970 . S
O1023 C1022 1.258 . S
O1024 Co1021 1.966 . S
O1024 C1022 1.263 . S
C1025 O1026 1.235 . S
C1025 O1052 1.289 . S
O1026 C1025 1.235 . S
C1027 C1029 1.400 . S
C1027 N1030 1.351 . S
C1027 C1032 1.501 . S
C1028 C1029 1.387 . S
C1028 N1031 1.341 . S
C1029 C1027 1.400 . S
C1029 C1028 1.387 . S
N1030 Co1021 2.022 . S
N1030 C1027 1.351 . S
N1030 N1031 1.365 . S
N1031 C1028 1.341 . S
N1031 N1030 1.365 . S
N1031 H1051 0.862 . S
C1032 C1027 1.501 . S
C1032 H1033 0.961 . S
C1032 H1034 0.961 . S
C1032 H1035 0.960 . S
H1033 C1032 0.961 . S
H1034 C1032 0.961 . S
H1035 C1032 0.960 . S
C1036 N1037 1.342 . S
C1036 C1040 1.401 . S
C1036 C1041 1.499 . S
N1037 Co1020 1.989 . S
N1037 C1036 1.342 . S
N1037 N1038 1.388 . S
N1038 Co1021 1.993 . S
N1038 N1037 1.388 . S
N1038 C1039 1.346 . S
C1039 N1038 1.346 . S
C1039 C1040 1.396 . S
C1039 C1049 1.510 . S
C1040 C1036 1.401 . S
C1040 C1039 1.396 . S
C1041 C1036 1.499 . S
C1041 H1042 0.959 . S
C1041 H1043 0.960 . S
C1041 H1044 0.961 . S
H1042 C1041 0.959 . S
H1043 C1041 0.960 . S
H1044 C1041 0.961 . S
O1045 Co1020 1.967 . S
O1045 C1053 1.258 . S
O1046 Co1021 1.941 . S
O1046 C1053 1.266 . S
H1047 C1049 0.959 . S
H1048 C1049 0.961 . S
C1049 C1039 1.510 . S
C1049 H1047 0.959 . S
C1049 H1048 0.961 . S
C1049 H1050 0.960 . S
H1050 C1049 0.960 . S
H1051 N1031 0.862 . S
O1052 Co1020 1.920 . S
O1052 C1025 1.289 . S
C1053 O1045 1.258 . S
C1053 O1046 1.266 . S
Co1054 O1057 1.970 . S
Co1054 N1071 1.989 . S
Co1054 O1079 1.967 . S
Co1054 O1086 1.920 . S
Co1055 O1058 1.966 . S
Co1055 N1064 2.022 . S
Co1055 N1072 1.993 . S
Co1055 O1080 1.941 . S
C1056 O1057 1.258 . S
C1056 O1058 1.263 . S
O1057 Co1054 1.970 . S
O1057 C1056 1.258 . S
O1058 Co1055 1.966 . S
O1058 C1056 1.263 . S
C1059 O1060 1.235 . S
C1059 O1086 1.289 . S
O1060 C1059 1.235 . S
C1061 C1063 1.400 . S
C1061 N1064 1.351 . S
C1061 C1066 1.501 . S
C1062 C1063 1.387 . S
C1062 N1065 1.341 . S
C1063 C1061 1.400 . S
C1063 C1062 1.387 . S
N1064 Co1055 2.022 . S
N1064 C1061 1.351 . S
N1064 N1065 1.365 . S
N1065 C1062 1.341 . S
N1065 N1064 1.365 . S
N1065 H1085 0.862 . S
C1066 C1061 1.501 . S
C1066 H1067 0.961 . S
C1066 H1068 0.961 . S
C1066 H1069 0.960 . S
H1067 C1066 0.961 . S
H1068 C1066 0.961 . S
H1069 C1066 0.960 . S
C1070 N1071 1.342 . S
C1070 C1074 1.401 . S
C1070 C1075 1.499 . S
N1071 Co1054 1.989 . S
N1071 C1070 1.342 . S
N1071 N1072 1.388 . S
N1072 Co1055 1.993 . S
N1072 N1071 1.388 . S
N1072 C1073 1.346 . S
C1073 N1072 1.346 . S
C1073 C1074 1.396 . S
C1073 C1083 1.510 . S
C1074 C1070 1.401 . S
C1074 C1073 1.396 . S
C1075 C1070 1.499 . S
C1075 H1076 0.959 . S
C1075 H1077 0.960 . S
C1075 H1078 0.961 . S
H1076 C1075 0.959 . S
H1077 C1075 0.960 . S
H1078 C1075 0.961 . S
O1079 Co1054 1.967 . S
O1079 C1087 1.258 . S
O1080 Co1055 1.941 . S
O1080 C1087 1.266 . S
H1081 C1083 0.959 . S
H1082 C1083 0.961 . S
C1083 C1073 1.510 . S
C1083 H1081 0.959 . S
C1083 H1082 0.961 . S
C1083 H1084 0.960 . S
H1084 C1083 0.960 . S
H1085 N1065 0.862 . S
O1086 Co1054 1.920 . S
O1086 C1059 1.289 . S
C1087 O1079 1.258 . S
C1087 O1080 1.266 . S
H1088 C1094 0.930 . S
H1089 C1098 0.930 . S
H1090 C1103 0.929 . S
H1091 C1101 0.929 . S
H1092 C1096 0.929 . S
H1093 C1102 0.929 . S
C1094 H1088 0.930 . S
C1094 C1095 1.367 1_545 S
C1094 C1102 1.378 . S
C1095 C1094 1.367 1_565 S
C1095 C1103 1.433 . S
C1096 H1092 0.929 . S
C1096 C1098 1.378 . S
C1096 C1100 1.346 1_565 S
C1097 C1100 1.462 1_565 S
C1097 C1102 1.346 1_565 S
C1097 N1105 1.432 . S
C1098 H1089 0.930 . S
C1098 C1096 1.378 . S
C1098 C1099 1.367 1_565 S
C1099 C1098 1.367 1_545 S
C1099 C1101 1.433 . S
C1100 C1096 1.346 1_545 S
C1100 C1097 1.462 1_545 S
C1100 N1104 1.432 . S
C1101 H1091 0.929 . S
C1101 C1099 1.433 . S
C1101 N1104 1.384 . S
C1102 H1093 0.929 . S
C1102 C1094 1.378 . S
C1102 C1097 1.346 1_545 S
C1103 H1090 0.929 . S
C1103 C1095 1.433 . S
C1103 N1105 1.384 . S
N1104 C1100 1.432 . S
N1104 C1101 1.384 . S
N1105 C1097 1.432 . S
N1105 C1103 1.384 . S
H1106 C1112 0.930 . S
H1107 C1116 0.930 . S
H1108 C1121 0.929 . S
H1109 C1119 0.929 . S
H1110 C1114 0.929 . S
H1111 C1120 0.929 . S
C1112 H1106 0.930 . S
C1112 C1113 1.367 . S
C1112 C1120 1.378 . S
C1113 C1112 1.367 . S
C1113 C1121 1.433 . S
C1114 H1110 0.929 . S
C1114 C1116 1.378 . S
C1114 C1118 1.350 . S
C1115 C1118 1.463 . S
C1115 C1120 1.350 . S
C1115 N1123 1.427 . S
C1116 H1107 0.930 . S
C1116 C1114 1.378 . S
C1116 C1117 1.367 . S
C1117 C1116 1.367 . S
C1117 C1119 1.433 . S
C1118 C1114 1.350 . S
C1118 C1115 1.463 . S
C1118 N1122 1.427 . S
C1119 H1109 0.929 . S
C1119 C1117 1.433 . S
C1119 N1122 1.384 . S
C1120 H1111 0.929 . S
C1120 C1112 1.378 . S
C1120 C1115 1.350 . S
C1121 H1108 0.929 . S
C1121 C1113 1.433 . S
C1121 N1123 1.384 . S
N1122 C1118 1.427 . S
N1122 C1119 1.384 . S
N1123 C1115 1.427 . S
N1123 C1121 1.384 . S
H1124 C1130 0.930 . S
H1125 C1134 0.930 . S
H1126 C1139 0.929 . S
H1127 C1137 0.929 . S
H1128 C1132 0.929 . S
H1129 C1138 0.929 . S
C1130 H1124 0.930 . S
C1130 C1131 1.367 1_545 S
C1130 C1138 1.378 . S
C1131 C1130 1.367 1_565 S
C1131 C1139 1.433 . S
C1132 H1128 0.929 . S
C1132 C1134 1.378 . S
C1132 C1136 1.345 1_565 S
C1133 C1136 1.462 1_565 S
C1133 C1138 1.345 1_565 S
C1133 N1141 1.433 . S
C1134 H1125 0.930 . S
C1134 C1132 1.378 . S
C1134 C1135 1.367 1_565 S
C1135 C1134 1.367 1_545 S
C1135 C1137 1.433 . S
C1136 C1132 1.345 1_545 S
C1136 C1133 1.462 1_545 S
C1136 N1140 1.433 . S
C1137 H1127 0.929 . S
C1137 C1135 1.433 . S
C1137 N1140 1.384 . S
C1138 H1129 0.929 . S
C1138 C1130 1.378 . S
C1138 C1133 1.345 1_545 S
C1139 H1126 0.929 . S
C1139 C1131 1.433 . S
C1139 N1141 1.384 . S
N1140 C1136 1.433 . S
N1140 C1137 1.384 . S
N1141 C1133 1.433 . S
N1141 C1139 1.384 . S
H1142 C1148 0.930 . S
H1143 C1152 0.930 . S
H1144 C1157 0.929 . S
H1145 C1155 0.929 . S
H1146 C1150 0.929 . S
H1147 C1156 0.929 . S
C1148 H1142 0.930 . S
C1148 C1149 1.367 . S
C1148 C1156 1.378 . S
C1149 C1148 1.367 . S
C1149 C1157 1.433 . S
C1150 H1146 0.929 . S
C1150 C1152 1.378 . S
C1150 C1154 1.350 . S
C1151 C1154 1.463 1_556 S
C1151 C1156 1.350 . S
C1151 N1159 1.427 . S
C1152 H1143 0.930 . S
C1152 C1150 1.378 . S
C1152 C1153 1.367 . S
C1153 C1152 1.367 . S
C1153 C1155 1.433 . S
C1154 C1150 1.350 . S
C1154 C1151 1.463 1_554 S
C1154 N1158 1.427 . S
C1155 H1145 0.929 . S
C1155 C1153 1.433 . S
C1155 N1158 1.384 . S
C1156 H1147 0.929 . S
C1156 C1148 1.378 . S
C1156 C1151 1.350 . S
C1157 H1144 0.929 . S
C1157 C1149 1.433 . S
C1157 N1159 1.384 . S
N1158 C1154 1.427 . S
N1158 C1155 1.384 . S
N1159 C1151 1.427 . S
N1159 C1157 1.384 . S
H1160 C1166 0.930 . S
H1161 C1170 0.930 . S
H1162 C1175 0.929 . S
H1163 C1173 0.929 . S
H1164 C1168 0.929 . S
H1165 C1174 0.929 . S
C1166 H1160 0.930 . S
C1166 C1167 1.367 . S
C1166 C1174 1.378 . S
C1167 C1166 1.367 . S
C1167 C1175 1.433 1_565 S
C1168 H1164 0.929 . S
C1168 C1170 1.378 . S
C1168 C1172 1.350 . S
C1169 C1172 1.463 1_565 S
C1169 C1174 1.350 . S
C1169 N1177 1.427 1_565 S
C1170 H1161 0.930 . S
C1170 C1168 1.378 . S
C1170 C1171 1.367 . S
C1171 C1170 1.367 . S
C1171 C1173 1.433 1_545 S
C1172 C1168 1.350 . S
C1172 C1169 1.463 1_545 S
C1172 N1176 1.427 1_545 S
C1173 H1163 0.929 . S
C1173 C1171 1.433 1_565 S
C1173 N1176 1.384 . S
C1174 H1165 0.929 . S
C1174 C1166 1.378 . S
C1174 C1169 1.350 . S
C1175 H1162 0.929 . S
C1175 C1167 1.433 1_545 S
C1175 N1177 1.384 . S
N1176 C1172 1.427 1_565 S
N1176 C1173 1.384 . S
N1177 C1169 1.427 1_545 S
N1177 C1175 1.384 . S
H1178 C1184 0.930 . S
H1179 C1188 0.930 . S
H1180 C1193 0.929 . S
H1181 C1191 0.929 . S
H1182 C1186 0.929 . S
H1183 C1192 0.929 . S
C1184 H1178 0.930 . S
C1184 C1185 1.367 . S
C1184 C1192 1.378 . S
C1185 C1184 1.367 . S
C1185 C1193 1.433 . S
C1186 H1182 0.929 . S
C1186 C1188 1.378 . S
C1186 C1190 1.350 . S
C1187 C1190 1.463 . S
C1187 C1192 1.350 . S
C1187 N1195 1.427 . S
C1188 H1179 0.930 . S
C1188 C1186 1.378 . S
C1188 C1189 1.367 . S
C1189 C1188 1.367 . S
C1189 C1191 1.433 . S
C1190 C1186 1.350 . S
C1190 C1187 1.463 . S
C1190 N1194 1.427 . S
C1191 H1181 0.929 . S
C1191 C1189 1.433 . S
C1191 N1194 1.384 . S
C1192 H1183 0.929 . S
C1192 C1184 1.378 . S
C1192 C1187 1.350 . S
C1193 H1180 0.929 . S
C1193 C1185 1.433 . S
C1193 N1195 1.384 . S
N1194 C1190 1.427 . S
N1194 C1191 1.384 . S
N1195 C1187 1.427 . S
N1195 C1193 1.384 . S
H1196 C1202 0.930 . S
H1197 C1206 0.930 . S
H1198 C1211 0.929 . S
H1199 C1209 0.929 . S
H1200 C1204 0.929 . S
H1201 C1210 0.929 . S
C1202 H1196 0.930 . S
C1202 C1203 1.367 1_565 S
C1202 C1210 1.378 . S
C1203 C1202 1.367 1_545 S
C1203 C1211 1.433 . S
C1204 H1200 0.929 . S
C1204 C1206 1.378 . S
C1204 C1208 1.346 1_545 S
C1205 C1208 1.462 1_545 S
C1205 C1210 1.347 1_545 S
C1205 N1213 1.431 . S
C1206 H1197 0.930 . S
C1206 C1204 1.378 . S
C1206 C1207 1.367 1_545 S
C1207 C1206 1.367 1_565 S
C1207 C1209 1.433 . S
C1208 C1204 1.346 1_565 S
C1208 C1205 1.462 1_565 S
C1208 N1212 1.431 . S
C1209 H1199 0.929 . S
C1209 C1207 1.433 . S
C1209 N1212 1.384 . S
C1210 H1201 0.929 . S
C1210 C1202 1.378 . S
C1210 C1205 1.347 1_565 S
C1211 H1198 0.929 . S
C1211 C1203 1.433 . S
C1211 N1213 1.384 . S
N1212 C1208 1.431 . S
N1212 C1209 1.384 . S
N1213 C1205 1.431 . S
N1213 C1211 1.384 . S
H1214 C1220 0.930 . S
H1215 C1224 0.930 . S
H1216 C1229 0.929 . S
H1217 C1227 0.929 . S
H1218 C1222 0.929 . S
H1219 C1228 0.929 . S
C1220 H1214 0.930 . S
C1220 C1221 1.367 . S
C1220 C1228 1.378 . S
C1221 C1220 1.367 . S
C1221 C1229 1.433 . S
C1222 H1218 0.929 . S
C1222 C1224 1.378 . S
C1222 C1226 1.350 . S
C1223 C1226 1.463 1_556 S
C1223 C1228 1.350 . S
C1223 N1231 1.427 . S
C1224 H1215 0.930 . S
C1224 C1222 1.378 . S
C1224 C1225 1.367 . S
C1225 C1224 1.367 . S
C1225 C1227 1.433 . S
C1226 C1222 1.350 . S
C1226 C1223 1.463 1_554 S
C1226 N1230 1.427 . S
C1227 H1217 0.929 . S
C1227 C1225 1.433 . S
C1227 N1230 1.384 . S
C1228 H1219 0.929 . S
C1228 C1220 1.378 . S
C1228 C1223 1.350 . S
C1229 H1216 0.929 . S
C1229 C1221 1.433 . S
C1229 N1231 1.384 . S
N1230 C1226 1.427 . S
N1230 C1227 1.384 . S
N1231 C1223 1.427 . S
N1231 C1229 1.384 . S
H1232 C1238 0.930 . S
H1233 C1242 0.930 . S
H1234 C1247 0.929 . S
H1235 C1245 0.929 . S
H1236 C1240 0.929 . S
H1237 C1246 0.929 . S
C1238 H1232 0.930 . S
C1238 C1239 1.367 . S
C1238 C1246 1.378 . S
C1239 C1238 1.367 . S
C1239 C1247 1.433 . S
C1240 H1236 0.929 . S
C1240 C1242 1.378 . S
C1240 C1244 1.350 . S
C1241 C1244 1.463 . S
C1241 C1246 1.350 . S
C1241 N1249 1.427 . S
C1242 H1233 0.930 . S
C1242 C1240 1.378 . S
C1242 C1243 1.367 . S
C1243 C1242 1.367 . S
C1243 C1245 1.433 . S
C1244 C1240 1.350 . S
C1244 C1241 1.463 . S
C1244 N1248 1.427 . S
C1245 H1235 0.929 . S
C1245 C1243 1.433 . S
C1245 N1248 1.384 . S
C1246 H1237 0.929 . S
C1246 C1238 1.378 . S
C1246 C1241 1.350 . S
C1247 H1234 0.929 . S
C1247 C1239 1.433 . S
C1247 N1249 1.384 . S
N1248 C1244 1.427 . S
N1248 C1245 1.384 . S
N1249 C1241 1.427 . S
N1249 C1247 1.384 . S
H1250 C1256 0.930 . S
H1251 C1260 0.930 . S
H1252 C1265 0.929 . S
H1253 C1263 0.929 . S
H1254 C1258 0.929 . S
H1255 C1264 0.929 . S
C1256 H1250 0.930 . S
C1256 C1257 1.367 . S
C1256 C1264 1.378 . S
C1257 C1256 1.367 . S
C1257 C1265 1.433 . S
C1258 H1254 0.929 . S
C1258 C1260 1.378 . S
C1258 C1262 1.350 . S
C1259 C1262 1.463 1_556 S
C1259 C1264 1.350 . S
C1259 N1267 1.427 . S
C1260 H1251 0.930 . S
C1260 C1258 1.378 . S
C1260 C1261 1.367 . S
C1261 C1260 1.367 . S
C1261 C1263 1.433 . S
C1262 C1258 1.350 . S
C1262 C1259 1.463 1_554 S
C1262 N1266 1.427 . S
C1263 H1253 0.929 . S
C1263 C1261 1.433 . S
C1263 N1266 1.384 . S
C1264 H1255 0.929 . S
C1264 C1256 1.378 . S
C1264 C1259 1.350 . S
C1265 H1252 0.929 . S
C1265 C1257 1.433 . S
C1265 N1267 1.384 . S
N1266 C1262 1.427 . S
N1266 C1263 1.384 . S
N1267 C1259 1.427 . S
N1267 C1265 1.384 . S
H1268 C1274 0.930 . S
H1269 C1278 0.930 . S
H1270 C1283 0.929 . S
H1271 C1281 0.929 . S
H1272 C1276 0.929 . S
H1273 C1282 0.929 . S
C1274 H1268 0.930 . S
C1274 C1275 1.367 . S
C1274 C1282 1.378 . S
C1275 C1274 1.367 . S
C1275 C1283 1.433 . S
C1276 H1272 0.929 . S
C1276 C1278 1.378 . S
C1276 C1280 1.350 . S
C1277 C1280 1.463 . S
C1277 C1282 1.350 . S
C1277 N1285 1.427 . S
C1278 H1269 0.930 . S
C1278 C1276 1.378 . S
C1278 C1279 1.367 . S
C1279 C1278 1.367 . S
C1279 C1281 1.433 . S
C1280 C1276 1.350 . S
C1280 C1277 1.463 . S
C1280 N1284 1.427 . S
C1281 H1271 0.929 . S
C1281 C1279 1.433 . S
C1281 N1284 1.384 . S
C1282 H1273 0.929 . S
C1282 C1274 1.378 . S
C1282 C1277 1.350 . S
C1283 H1270 0.929 . S
C1283 C1275 1.433 . S
C1283 N1285 1.384 . S
N1284 C1280 1.427 . S
N1284 C1281 1.384 . S
N1285 C1277 1.427 . S
N1285 C1283 1.384 . S
H1286 C1292 0.930 . S
H1287 C1296 0.930 . S
H1288 C1301 0.929 . S
H1289 C1299 0.929 . S
H1290 C1294 0.929 . S
H1291 C1300 0.929 . S
C1292 H1286 0.930 . S
C1292 C1293 1.367 . S
C1292 C1300 1.378 . S
C1293 C1292 1.367 . S
C1293 C1301 1.433 . S
C1294 H1290 0.929 . S
C1294 C1296 1.378 . S
C1294 C1298 1.350 . S
C1295 C1298 1.463 . S
C1295 C1300 1.350 . S
C1295 N1303 1.427 . S
C1296 H1287 0.930 . S
C1296 C1294 1.378 . S
C1296 C1297 1.367 . S
C1297 C1296 1.367 . S
C1297 C1299 1.433 . S
C1298 C1294 1.350 . S
C1298 C1295 1.463 . S
C1298 N1302 1.427 . S
C1299 H1289 0.929 . S
C1299 C1297 1.433 . S
C1299 N1302 1.384 . S
C1300 H1291 0.929 . S
C1300 C1292 1.378 . S
C1300 C1295 1.350 . S
C1301 H1288 0.929 . S
C1301 C1293 1.433 . S
C1301 N1303 1.384 . S
N1302 C1298 1.427 . S
N1302 C1299 1.384 . S
N1303 C1295 1.427 . S
N1303 C1301 1.384 . S
H1304 C1310 0.930 . S
H1305 C1314 0.930 . S
H1306 C1319 0.929 . S
H1307 C1317 0.929 . S
H1308 C1312 0.929 . S
H1309 C1318 0.929 . S
C1310 H1304 0.930 . S
C1310 C1311 1.367 . S
C1310 C1318 1.378 . S
C1311 C1310 1.367 . S
C1311 C1319 1.433 . S
C1312 H1308 0.929 . S
C1312 C1314 1.378 . S
C1312 C1316 1.350 . S
C1313 C1316 1.463 . S
C1313 C1318 1.350 . S
C1313 N1321 1.427 . S
C1314 H1305 0.930 . S
C1314 C1312 1.378 . S
C1314 C1315 1.367 . S
C1315 C1314 1.367 . S
C1315 C1317 1.433 . S
C1316 C1312 1.350 . S
C1316 C1313 1.463 . S
C1316 N1320 1.427 . S
C1317 H1307 0.929 . S
C1317 C1315 1.433 . S
C1317 N1320 1.384 . S
C1318 H1309 0.929 . S
C1318 C1310 1.378 . S
C1318 C1313 1.350 . S
C1319 H1306 0.929 . S
C1319 C1311 1.433 . S
C1319 N1321 1.384 . S
N1320 C1316 1.427 . S
N1320 C1317 1.384 . S
N1321 C1313 1.427 . S
N1321 C1319 1.384 . S
H1322 C1328 0.930 . S
H1323 C1332 0.930 . S
H1324 C1337 0.929 . S
H1325 C1335 0.929 . S
H1326 C1330 0.929 . S
H1327 C1336 0.929 . S
C1328 H1322 0.930 . S
C1328 C1329 1.367 . S
C1328 C1336 1.378 . S
C1329 C1328 1.367 . S
C1329 C1337 1.433 . S
C1330 H1326 0.929 . S
C1330 C1332 1.378 . S
C1330 C1334 1.350 . S
C1331 C1334 1.463 1_554 S
C1331 C1336 1.350 . S
C1331 N1339 1.427 . S
C1332 H1323 0.930 . S
C1332 C1330 1.378 . S
C1332 C1333 1.367 . S
C1333 C1332 1.367 . S
C1333 C1335 1.433 . S
C1334 C1330 1.350 . S
C1334 C1331 1.463 1_556 S
C1334 N1338 1.427 . S
C1335 H1325 0.929 . S
C1335 C1333 1.433 . S
C1335 N1338 1.384 . S
C1336 H1327 0.929 . S
C1336 C1328 1.378 . S
C1336 C1331 1.350 . S
C1337 H1324 0.929 . S
C1337 C1329 1.433 . S
C1337 N1339 1.384 . S
N1338 C1334 1.427 . S
N1338 C1335 1.384 . S
N1339 C1331 1.427 . S
N1339 C1337 1.384 . S
H1340 C1346 0.930 . S
H1341 C1350 0.930 . S
H1342 C1355 0.929 . S
H1343 C1353 0.929 . S
H1344 C1348 0.929 . S
H1345 C1354 0.929 . S
C1346 H1340 0.930 . S
C1346 C1347 1.367 . S
C1346 C1354 1.378 . S
C1347 C1346 1.367 . S
C1347 C1355 1.433 . S
C1348 H1344 0.929 . S
C1348 C1350 1.378 . S
C1348 C1352 1.350 . S
C1349 C1352 1.463 . S
C1349 C1354 1.350 . S
C1349 N1357 1.427 . S
C1350 H1341 0.930 . S
C1350 C1348 1.378 . S
C1350 C1351 1.367 . S
C1351 C1350 1.367 . S
C1351 C1353 1.433 . S
C1352 C1348 1.350 . S
C1352 C1349 1.463 . S
C1352 N1356 1.427 . S
C1353 H1343 0.929 . S
C1353 C1351 1.433 . S
C1353 N1356 1.384 . S
C1354 H1345 0.929 . S
C1354 C1346 1.378 . S
C1354 C1349 1.350 . S
C1355 H1342 0.929 . S
C1355 C1347 1.433 . S
C1355 N1357 1.384 . S
N1356 C1352 1.427 . S
N1356 C1353 1.384 . S
N1357 C1349 1.427 . S
N1357 C1355 1.384 . S
H1358 C1364 0.930 . S
H1359 C1368 0.930 . S
H1360 C1373 0.929 . S
H1361 C1371 0.929 . S
H1362 C1366 0.929 . S
H1363 C1372 0.929 . S
C1364 H1358 0.930 . S
C1364 C1365 1.367 . S
C1364 C1372 1.378 . S
C1365 C1364 1.367 . S
C1365 C1373 1.433 . S
C1366 H1362 0.929 . S
C1366 C1368 1.378 . S
C1366 C1370 1.350 . S
C1367 C1370 1.463 . S
C1367 C1372 1.350 . S
C1367 N1375 1.427 . S
C1368 H1359 0.930 . S
C1368 C1366 1.378 . S
C1368 C1369 1.367 . S
C1369 C1368 1.367 . S
C1369 C1371 1.433 . S
C1370 C1366 1.350 . S
C1370 C1367 1.463 . S
C1370 N1374 1.427 . S
C1371 H1361 0.929 . S
C1371 C1369 1.433 . S
C1371 N1374 1.384 . S
C1372 H1363 0.929 . S
C1372 C1364 1.378 . S
C1372 C1367 1.350 . S
C1373 H1360 0.929 . S
C1373 C1365 1.433 . S
C1373 N1375 1.384 . S
N1374 C1370 1.427 . S
N1374 C1371 1.384 . S
N1375 C1367 1.427 . S
N1375 C1373 1.384 . S
H1376 C1382 0.930 . S
H1377 C1386 0.930 . S
H1378 C1391 0.929 . S
H1379 C1389 0.929 . S
H1380 C1384 0.929 1_455 S
H1381 C1390 0.929 1_655 S
C1382 H1376 0.930 . S
C1382 C1383 1.367 . S
C1382 C1390 1.378 . S
C1383 C1382 1.367 . S
C1383 C1391 1.433 . S
C1384 H1380 0.929 1_655 S
C1384 C1386 1.378 . S
C1384 C1388 1.350 . S
C1385 C1388 1.463 1_455 S
C1385 C1390 1.350 . S
C1385 N1393 1.427 . S
C1386 H1377 0.930 . S
C1386 C1384 1.378 . S
C1386 C1387 1.367 . S
C1387 C1386 1.367 . S
C1387 C1389 1.433 . S
C1388 C1384 1.350 . S
C1388 C1385 1.463 1_655 S
C1388 N1392 1.427 . S
C1389 H1379 0.929 . S
C1389 C1387 1.433 . S
C1389 N1392 1.384 . S
C1390 H1381 0.929 1_455 S
C1390 C1382 1.378 . S
C1390 C1385 1.350 . S
C1391 H1378 0.929 . S
C1391 C1383 1.433 . S
C1391 N1393 1.384 . S
N1392 C1388 1.427 . S
N1392 C1389 1.384 . S
N1393 C1385 1.427 . S
N1393 C1391 1.384 . S
H1394 C1400 0.930 . S
H1395 C1404 0.930 . S
H1396 C1409 0.929 . S
H1397 C1407 0.929 . S
H1398 C1402 0.929 . S
H1399 C1408 0.929 . S
C1400 H1394 0.930 . S
C1400 C1401 1.367 . S
C1400 C1408 1.378 . S
C1401 C1400 1.367 . S
C1401 C1409 1.433 . S
C1402 H1398 0.929 . S
C1402 C1404 1.378 . S
C1402 C1406 1.350 . S
C1403 C1406 1.463 1_455 S
C1403 C1408 1.350 . S
C1403 N1411 1.427 . S
C1404 H1395 0.930 . S
C1404 C1402 1.378 . S
C1404 C1405 1.367 . S
C1405 C1404 1.367 . S
C1405 C1407 1.433 . S
C1406 C1402 1.350 . S
C1406 C1403 1.463 1_655 S
C1406 N1410 1.427 . S
C1407 H1397 0.929 . S
C1407 C1405 1.433 . S
C1407 N1410 1.384 . S
C1408 H1399 0.929 . S
C1408 C1400 1.378 . S
C1408 C1403 1.350 . S
C1409 H1396 0.929 . S
C1409 C1401 1.433 . S
C1409 N1411 1.384 . S
N1410 C1406 1.427 . S
N1410 C1407 1.384 . S
N1411 C1403 1.427 . S
N1411 C1409 1.384 . S
H1412 C1418 0.930 . S
H1413 C1422 0.930 . S
H1414 C1427 0.929 . S
H1415 C1425 0.929 . S
H1416 C1420 0.929 . S
H1417 C1426 0.929 . S
C1418 H1412 0.930 . S
C1418 C1419 1.367 . S
C1418 C1426 1.378 . S
C1419 C1418 1.367 . S
C1419 C1427 1.433 . S
C1420 H1416 0.929 . S
C1420 C1422 1.378 . S
C1420 C1424 1.350 . S
C1421 C1424 1.463 . S
C1421 C1426 1.350 . S
C1421 N1429 1.427 . S
C1422 H1413 0.930 . S
C1422 C1420 1.378 . S
C1422 C1423 1.367 . S
C1423 C1422 1.367 . S
C1423 C1425 1.433 . S
C1424 C1420 1.350 . S
C1424 C1421 1.463 . S
C1424 N1428 1.427 . S
C1425 H1415 0.929 . S
C1425 C1423 1.433 . S
C1425 N1428 1.384 . S
C1426 H1417 0.929 . S
C1426 C1418 1.378 . S
C1426 C1421 1.350 . S
C1427 H1414 0.929 . S
C1427 C1419 1.433 . S
C1427 N1429 1.384 . S
N1428 C1424 1.427 . S
N1428 C1425 1.384 . S
N1429 C1421 1.427 . S
N1429 C1427 1.384 . S
H1430 C1436 0.930 . S
H1431 C1440 0.930 . S
H1432 C1445 0.929 . S
H1433 C1443 0.929 . S
H1434 C1438 0.929 . S
H1435 C1444 0.929 . S
C1436 H1430 0.930 . S
C1436 C1437 1.367 . S
C1436 C1444 1.378 . S
C1437 C1436 1.367 . S
C1437 C1445 1.433 . S
C1438 H1434 0.929 . S
C1438 C1440 1.378 . S
C1438 C1442 1.350 . S
C1439 C1442 1.463 . S
C1439 C1444 1.350 . S
C1439 N1447 1.427 . S
C1440 H1431 0.930 . S
C1440 C1438 1.378 . S
C1440 C1441 1.367 . S
C1441 C1440 1.367 . S
C1441 C1443 1.433 . S
C1442 C1438 1.350 . S
C1442 C1439 1.463 . S
C1442 N1446 1.427 . S
C1443 H1433 0.929 . S
C1443 C1441 1.433 . S
C1443 N1446 1.384 . S
C1444 H1435 0.929 . S
C1444 C1436 1.378 . S
C1444 C1439 1.350 . S
C1445 H1432 0.929 . S
C1445 C1437 1.433 . S
C1445 N1447 1.384 . S
N1446 C1442 1.427 . S
N1446 C1443 1.384 . S
N1447 C1439 1.427 . S
N1447 C1445 1.384 . S
H1448 C1454 0.930 . S
H1449 C1458 0.930 . S
H1450 C1463 0.929 . S
H1451 C1461 0.929 . S
H1452 C1456 0.929 1_455 S
H1453 C1462 0.929 1_655 S
C1454 H1448 0.930 . S
C1454 C1455 1.367 . S
C1454 C1462 1.378 . S
C1455 C1454 1.367 . S
C1455 C1463 1.433 . S
C1456 H1452 0.929 1_655 S
C1456 C1458 1.378 . S
C1456 C1460 1.350 . S
C1457 C1460 1.463 1_455 S
C1457 C1462 1.350 . S
C1457 N1465 1.427 . S
C1458 H1449 0.930 . S
C1458 C1456 1.378 . S
C1458 C1459 1.367 . S
C1459 C1458 1.367 . S
C1459 C1461 1.433 . S
C1460 C1456 1.350 . S
C1460 C1457 1.463 1_655 S
C1460 N1464 1.427 . S
C1461 H1451 0.929 . S
C1461 C1459 1.433 . S
C1461 N1464 1.384 . S
C1462 H1453 0.929 1_455 S
C1462 C1454 1.378 . S
C1462 C1457 1.350 . S
C1463 H1450 0.929 . S
C1463 C1455 1.433 . S
C1463 N1465 1.384 . S
N1464 C1460 1.427 . S
N1464 C1461 1.384 . S
N1465 C1457 1.427 . S
N1465 C1463 1.384 . S
H1466 C1472 0.930 . S
H1467 C1476 0.930 . S
H1468 C1481 0.929 . S
H1469 C1479 0.929 . S
H1470 C1474 0.929 . S
H1471 C1480 0.929 . S
C1472 H1466 0.930 . S
C1472 C1473 1.367 . S
C1472 C1480 1.378 . S
C1473 C1472 1.367 . S
C1473 C1481 1.433 . S
C1474 H1470 0.929 . S
C1474 C1476 1.378 . S
C1474 C1478 1.350 . S
C1475 C1478 1.463 . S
C1475 C1480 1.350 . S
C1475 N1483 1.427 . S
C1476 H1467 0.930 . S
C1476 C1474 1.378 . S
C1476 C1477 1.367 . S
C1477 C1476 1.367 . S
C1477 C1479 1.433 . S
C1478 C1474 1.350 . S
C1478 C1475 1.463 . S
C1478 N1482 1.427 . S
C1479 H1469 0.929 . S
C1479 C1477 1.433 . S
C1479 N1482 1.384 . S
C1480 H1471 0.929 . S
C1480 C1472 1.378 . S
C1480 C1475 1.350 . S
C1481 H1468 0.929 . S
C1481 C1473 1.433 . S
C1481 N1483 1.384 . S
N1482 C1478 1.427 . S
N1482 C1479 1.384 . S
N1483 C1475 1.427 . S
N1483 C1481 1.384 . S
H1484 C1490 0.930 . S
H1485 C1494 0.930 . S
H1486 C1499 0.929 . S
H1487 C1497 0.929 . S
H1488 C1492 0.929 . S
H1489 C1498 0.929 . S
C1490 H1484 0.930 . S
C1490 C1491 1.367 . S
C1490 C1498 1.378 . S
C1491 C1490 1.367 . S
C1491 C1499 1.433 . S
C1492 H1488 0.929 . S
C1492 C1494 1.378 . S
C1492 C1496 1.350 . S
C1493 C1496 1.463 . S
C1493 C1498 1.350 . S
C1493 N1501 1.427 . S
C1494 H1485 0.930 . S
C1494 C1492 1.378 . S
C1494 C1495 1.367 . S
C1495 C1494 1.367 . S
C1495 C1497 1.433 . S
C1496 C1492 1.350 . S
C1496 C1493 1.463 . S
C1496 N1500 1.427 . S
C1497 H1487 0.929 . S
C1497 C1495 1.433 . S
C1497 N1500 1.384 . S
C1498 H1489 0.929 . S
C1498 C1490 1.378 . S
C1498 C1493 1.350 . S
C1499 H1486 0.929 . S
C1499 C1491 1.433 . S
C1499 N1501 1.384 . S
N1500 C1496 1.427 . S
N1500 C1497 1.384 . S
N1501 C1493 1.427 . S
N1501 C1499 1.384 . S
H1502 C1508 0.930 . S
H1503 C1512 0.930 . S
H1504 C1517 0.929 . S
H1505 C1515 0.929 . S
H1506 C1510 0.929 . S
H1507 C1516 0.929 . S
C1508 H1502 0.930 . S
C1508 C1509 1.367 . S
C1508 C1516 1.378 . S
C1509 C1508 1.367 . S
C1509 C1517 1.433 . S
C1510 H1506 0.929 . S
C1510 C1512 1.378 . S
C1510 C1514 1.350 . S
C1511 C1514 1.463 1_455 S
C1511 C1516 1.350 . S
C1511 N1519 1.427 . S
C1512 H1503 0.930 . S
C1512 C1510 1.378 . S
C1512 C1513 1.367 . S
C1513 C1512 1.367 . S
C1513 C1515 1.433 . S
C1514 C1510 1.350 . S
C1514 C1511 1.463 1_655 S
C1514 N1518 1.427 . S
C1515 H1505 0.929 . S
C1515 C1513 1.433 . S
C1515 N1518 1.384 . S
C1516 H1507 0.929 . S
C1516 C1508 1.378 . S
C1516 C1511 1.350 . S
C1517 H1504 0.929 . S
C1517 C1509 1.433 . S
C1517 N1519 1.384 . S
N1518 C1514 1.427 . S
N1518 C1515 1.384 . S
N1519 C1511 1.427 . S
N1519 C1517 1.384 . S
H1520 C1526 0.930 . S
H1521 C1530 0.930 . S
H1522 C1535 0.929 . S
H1523 C1533 0.929 . S
H1524 C1528 0.929 . S
H1525 C1534 0.929 . S
C1526 H1520 0.930 . S
C1526 C1527 1.367 . S
C1526 C1534 1.378 . S
C1527 C1526 1.367 . S
C1527 C1535 1.433 . S
C1528 H1524 0.929 . S
C1528 C1530 1.378 . S
C1528 C1532 1.350 . S
C1529 C1532 1.463 1_455 S
C1529 C1534 1.350 . S
C1529 N1537 1.427 . S
C1530 H1521 0.930 . S
C1530 C1528 1.378 . S
C1530 C1531 1.367 . S
C1531 C1530 1.367 . S
C1531 C1533 1.433 . S
C1532 C1528 1.350 . S
C1532 C1529 1.463 1_655 S
C1532 N1536 1.427 . S
C1533 H1523 0.929 . S
C1533 C1531 1.433 . S
C1533 N1536 1.384 . S
C1534 H1525 0.929 . S
C1534 C1526 1.378 . S
C1534 C1529 1.350 . S
C1535 H1522 0.929 . S
C1535 C1527 1.433 . S
C1535 N1537 1.384 . S
N1536 C1532 1.427 . S
N1536 C1533 1.384 . S
N1537 C1529 1.427 . S
N1537 C1535 1.384 . S
H1538 C1544 0.930 . S
H1539 C1548 0.930 . S
H1540 C1553 0.929 . S
H1541 C1551 0.929 . S
H1542 C1546 0.945 . S
H1543 C1552 0.929 . S
C1544 H1538 0.930 . S
C1544 C1545 1.367 . S
C1544 C1552 1.378 . S
C1545 C1544 1.367 . S
C1545 C1553 1.433 . S
C1546 H1542 0.945 . S
C1546 C1548 1.378 . S
C1546 C1550 1.350 . S
C1547 C1550 1.463 1_655 S
C1547 C1552 1.350 . S
C1547 N1555 1.427 . S
C1548 H1539 0.930 . S
C1548 C1546 1.378 . S
C1548 C1549 1.367 . S
C1549 C1548 1.367 . S
C1549 C1551 1.433 . S
C1550 C1546 1.350 . S
C1550 C1547 1.463 1_455 S
C1550 N1554 1.427 . S
C1551 H1541 0.929 . S
C1551 C1549 1.433 . S
C1551 N1554 1.384 . S
C1552 H1543 0.929 . S
C1552 C1544 1.378 . S
C1552 C1547 1.350 . S
C1553 H1540 0.929 . S
C1553 C1545 1.433 . S
C1553 N1555 1.384 . S
N1554 C1550 1.427 . S
N1554 C1551 1.384 . S
N1555 C1547 1.427 . S
N1555 C1553 1.384 . S
H1556 C1562 0.930 . S
H1557 C1566 0.930 . S
H1558 C1571 0.929 . S
H1559 C1569 0.929 . S
H1560 C1564 0.929 . S
H1561 C1570 0.929 . S
C1562 H1556 0.930 . S
C1562 C1563 1.367 . S
C1562 C1570 1.378 . S
C1563 C1562 1.367 . S
C1563 C1571 1.433 . S
C1564 H1560 0.929 . S
C1564 C1566 1.378 . S
C1564 C1568 1.350 . S
C1565 C1568 1.463 . S
C1565 C1570 1.350 . S
C1565 N1573 1.427 . S
C1566 H1557 0.930 . S
C1566 C1564 1.378 . S
C1566 C1567 1.367 . S
C1567 C1566 1.367 . S
C1567 C1569 1.433 . S
C1568 C1564 1.350 . S
C1568 C1565 1.463 . S
C1568 N1572 1.427 . S
C1569 H1559 0.929 . S
C1569 C1567 1.433 . S
C1569 N1572 1.384 . S
C1570 H1561 0.929 . S
C1570 C1562 1.378 . S
C1570 C1565 1.350 . S
C1571 H1558 0.929 . S
C1571 C1563 1.433 . S
C1571 N1573 1.384 . S
N1572 C1568 1.427 . S
N1572 C1569 1.384 . S
N1573 C1565 1.427 . S
N1573 C1571 1.384 . S
H1574 C1580 0.930 . S
H1575 C1584 0.930 . S
H1576 C1589 0.929 . S
H1577 C1587 0.929 . S
H1578 C1582 0.929 . S
H1579 C1588 0.929 . S
C1580 H1574 0.930 . S
C1580 C1581 1.367 . S
C1580 C1588 1.378 . S
C1581 C1580 1.367 . S
C1581 C1589 1.433 . S
C1582 H1578 0.929 . S
C1582 C1584 1.378 . S
C1582 C1586 1.350 . S
C1583 C1586 1.463 . S
C1583 C1588 1.350 . S
C1583 N1591 1.427 . S
C1584 H1575 0.930 . S
C1584 C1582 1.378 . S
C1584 C1585 1.367 . S
C1585 C1584 1.367 . S
C1585 C1587 1.433 . S
C1586 C1582 1.350 . S
C1586 C1583 1.463 . S
C1586 N1590 1.427 . S
C1587 H1577 0.929 . S
C1587 C1585 1.433 . S
C1587 N1590 1.384 . S
C1588 H1579 0.929 . S
C1588 C1580 1.378 . S
C1588 C1583 1.350 . S
C1589 H1576 0.929 . S
C1589 C1581 1.433 . S
C1589 N1591 1.384 . S
N1590 C1586 1.427 . S
N1590 C1587 1.384 . S
N1591 C1583 1.427 . S
N1591 C1589 1.384 . S
H1592 C1598 0.930 . S
H1593 C1602 0.930 . S
H1594 C1607 0.929 . S
H1595 C1605 0.929 . S
H1596 C1600 0.929 . S
H1597 C1606 0.929 . S
C1598 H1592 0.930 . S
C1598 C1599 1.367 . S
C1598 C1606 1.378 . S
C1599 C1598 1.367 . S
C1599 C1607 1.433 . S
C1600 H1596 0.929 . S
C1600 C1602 1.378 . S
C1600 C1604 1.350 . S
C1601 C1604 1.463 1_655 S
C1601 C1606 1.350 . S
C1601 N1609 1.427 . S
C1602 H1593 0.930 . S
C1602 C1600 1.378 . S
C1602 C1603 1.367 . S
C1603 C1602 1.367 . S
C1603 C1605 1.433 . S
C1604 C1600 1.350 . S
C1604 C1601 1.463 1_455 S
C1604 N1608 1.427 . S
C1605 H1595 0.929 . S
C1605 C1603 1.433 . S
C1605 N1608 1.384 . S
C1606 H1597 0.929 . S
C1606 C1598 1.378 . S
C1606 C1601 1.350 . S
C1607 H1594 0.929 . S
C1607 C1599 1.433 . S
C1607 N1609 1.384 . S
N1608 C1604 1.427 . S
N1608 C1605 1.384 . S
N1609 C1601 1.427 . S
N1609 C1607 1.384 . S
H1610 C1616 0.930 . S
H1611 C1620 0.930 . S
H1612 C1625 0.929 . S
H1613 C1623 0.929 . S
H1614 C1618 0.929 . S
H1615 C1624 0.929 . S
C1616 H1610 0.930 . S
C1616 C1617 1.367 . S
C1616 C1624 1.378 . S
C1617 C1616 1.367 . S
C1617 C1625 1.433 . S
C1618 H1614 0.929 . S
C1618 C1620 1.378 . S
C1618 C1622 1.350 . S
C1619 C1622 1.463 . S
C1619 C1624 1.350 . S
C1619 N1627 1.427 . S
C1620 H1611 0.930 . S
C1620 C1618 1.378 . S
C1620 C1621 1.367 . S
C1621 C1620 1.367 . S
C1621 C1623 1.433 . S
C1622 C1618 1.350 . S
C1622 C1619 1.463 . S
C1622 N1626 1.427 . S
C1623 H1613 0.929 . S
C1623 C1621 1.433 . S
C1623 N1626 1.384 . S
C1624 H1615 0.929 . S
C1624 C1616 1.378 . S
C1624 C1619 1.350 . S
C1625 H1612 0.929 . S
C1625 C1617 1.433 . S
C1625 N1627 1.384 . S
N1626 C1622 1.427 . S
N1626 C1623 1.384 . S
N1627 C1619 1.427 . S
N1627 C1625 1.384 . S
H1628 C1634 0.930 . S
H1629 C1638 0.930 . S
H1630 C1643 0.929 . S
H1631 C1641 0.929 . S
H1632 C1636 0.929 . S
H1633 C1642 0.929 . S
C1634 H1628 0.930 . S
C1634 C1635 1.367 . S
C1634 C1642 1.378 . S
C1635 C1634 1.367 . S
C1635 C1643 1.433 . S
C1636 H1632 0.929 . S
C1636 C1638 1.378 . S
C1636 C1640 1.350 . S
C1637 C1640 1.463 . S
C1637 C1642 1.350 . S
C1637 N1645 1.427 . S
C1638 H1629 0.930 . S
C1638 C1636 1.378 . S
C1638 C1639 1.367 . S
C1639 C1638 1.367 . S
C1639 C1641 1.433 . S
C1640 C1636 1.350 . S
C1640 C1637 1.463 . S
C1640 N1644 1.427 . S
C1641 H1631 0.929 . S
C1641 C1639 1.433 . S
C1641 N1644 1.384 . S
C1642 H1633 0.929 . S
C1642 C1634 1.378 . S
C1642 C1637 1.350 . S
C1643 H1630 0.929 . S
C1643 C1635 1.433 . S
C1643 N1645 1.384 . S
N1644 C1640 1.427 . S
N1644 C1641 1.384 . S
N1645 C1637 1.427 . S
N1645 C1643 1.384 . S
H1646 C1652 0.930 . S
H1647 C1656 0.930 . S
H1648 C1661 0.929 . S
H1649 C1659 0.929 . S
H1650 C1654 0.929 1_655 S
H1651 C1660 0.929 1_455 S
C1652 H1646 0.930 . S
C1652 C1653 1.367 . S
C1652 C1660 1.378 . S
C1653 C1652 1.367 . S
C1653 C1661 1.433 . S
C1654 H1650 0.929 1_455 S
C1654 C1656 1.378 . S
C1654 C1658 1.350 . S
C1655 C1658 1.463 1_655 S
C1655 C1660 1.350 . S
C1655 N1663 1.427 . S
C1656 H1647 0.930 . S
C1656 C1654 1.378 . S
C1656 C1657 1.367 . S
C1657 C1656 1.367 . S
C1657 C1659 1.433 . S
C1658 C1654 1.350 . S
C1658 C1655 1.463 1_455 S
C1658 N1662 1.427 . S
C1659 H1649 0.929 . S
C1659 C1657 1.433 . S
C1659 N1662 1.384 . S
C1660 H1651 0.929 1_655 S
C1660 C1652 1.378 . S
C1660 C1655 1.350 . S
C1661 H1648 0.929 . S
C1661 C1653 1.433 . S
C1661 N1663 1.384 . S
N1662 C1658 1.427 . S
N1662 C1659 1.384 . S
N1663 C1655 1.427 . S
N1663 C1661 1.384 . S
H1664 C1670 0.930 . S
H1665 C1674 0.930 . S
H1666 C1679 0.929 1_565 S
H1667 C1677 0.929 . S
H1668 C1672 0.929 . S
H1669 C1678 0.929 . S
C1670 H1664 0.930 . S
C1670 C1671 1.367 . S
C1670 C1678 1.378 . S
C1671 C1670 1.367 . S
C1671 C1679 1.433 . S
C1672 H1668 0.929 . S
C1672 C1674 1.378 . S
C1672 C1676 1.350 1_565 S
C1673 C1676 1.463 . S
C1673 C1678 1.350 . S
C1673 N1681 1.427 1_545 S
C1674 H1665 0.930 . S
C1674 C1672 1.378 . S
C1674 C1675 1.367 . S
C1675 C1674 1.367 . S
C1675 C1677 1.433 1_565 S
C1676 C1672 1.350 1_545 S
C1676 C1673 1.463 . S
C1676 N1680 1.427 . S
C1677 H1667 0.929 . S
C1677 C1675 1.433 1_545 S
C1677 N1680 1.384 . S
C1678 H1669 0.929 . S
C1678 C1670 1.378 . S
C1678 C1673 1.350 . S
C1679 H1666 0.929 1_545 S
C1679 C1671 1.433 . S
C1679 N1681 1.384 1_545 S
N1680 C1676 1.427 . S
N1680 C1677 1.384 . S
N1681 C1673 1.427 1_565 S
N1681 C1679 1.384 1_565 S
H1682 C1688 0.930 . S
H1683 C1692 0.930 . S
H1684 C1697 0.929 . S
H1685 C1695 0.929 . S
H1686 C1690 0.929 . S
H1687 C1696 0.929 . S
C1688 H1682 0.930 . S
C1688 C1689 1.367 . S
C1688 C1696 1.378 . S
C1689 C1688 1.367 . S
C1689 C1697 1.433 . S
C1690 H1686 0.929 . S
C1690 C1692 1.378 . S
C1690 C1694 1.350 . S
C1691 C1694 1.463 . S
C1691 C1696 1.350 . S
C1691 N1699 1.427 . S
C1692 H1683 0.930 . S
C1692 C1690 1.378 . S
C1692 C1693 1.367 . S
C1693 C1692 1.367 . S
C1693 C1695 1.433 . S
C1694 C1690 1.350 . S
C1694 C1691 1.463 . S
C1694 N1698 1.427 . S
C1695 H1685 0.929 . S
C1695 C1693 1.433 . S
C1695 N1698 1.384 . S
C1696 H1687 0.929 . S
C1696 C1688 1.378 . S
C1696 C1691 1.350 . S
C1697 H1684 0.929 . S
C1697 C1689 1.433 . S
C1697 N1699 1.384 . S
N1698 C1694 1.427 . S
N1698 C1695 1.384 . S
N1699 C1691 1.427 . S
N1699 C1697 1.384 . S
H1700 C1706 0.941 . S
H1701 C1710 0.930 . S
H1702 C1715 0.929 . S
H1703 C1713 0.929 . S
H1704 C1708 0.929 . S
H1705 C1714 0.929 . S
C1706 H1700 0.941 . S
C1706 C1707 1.367 1_565 S
C1706 C1714 1.378 . S
C1707 C1706 1.367 1_545 S
C1707 C1715 1.433 . S
C1708 H1704 0.929 . S
C1708 C1710 1.378 . S
C1708 C1712 1.350 1_545 S
C1709 C1712 1.463 . S
C1709 C1714 1.350 . S
C1709 N1717 1.427 1_565 S
C1710 H1701 0.930 . S
C1710 C1708 1.378 . S
C1710 C1711 1.367 1_545 S
C1711 C1710 1.367 1_565 S
C1711 C1713 1.433 . S
C1712 C1708 1.350 1_565 S
C1712 C1709 1.463 . S
C1712 N1716 1.427 . S
C1713 H1703 0.929 . S
C1713 C1711 1.433 . S
C1713 N1716 1.384 . S
C1714 H1705 0.929 . S
C1714 C1706 1.378 . S
C1714 C1709 1.350 . S
C1715 H1702 0.929 . S
C1715 C1707 1.433 . S
C1715 N1717 1.384 . S
N1716 C1712 1.427 . S
N1716 C1713 1.384 . S
N1717 C1709 1.427 1_545 S
N1717 C1715 1.384 . S
H1718 C1724 0.930 . S
H1719 C1728 0.930 . S
H1720 C1733 0.929 . S
H1721 C1731 0.929 . S
H1722 C1726 0.929 . S
H1723 C1732 0.929 . S
C1724 H1718 0.930 . S
C1724 C1725 1.367 . S
C1724 C1732 1.378 . S
C1725 C1724 1.367 . S
C1725 C1733 1.433 . S
C1726 H1722 0.929 . S
C1726 C1728 1.378 . S
C1726 C1730 1.350 . S
C1727 C1730 1.463 . S
C1727 C1732 1.350 . S
C1727 N1735 1.427 . S
C1728 H1719 0.930 . S
C1728 C1726 1.378 . S
C1728 C1729 1.367 . S
C1729 C1728 1.367 . S
C1729 C1731 1.433 . S
C1730 C1726 1.350 . S
C1730 C1727 1.463 . S
C1730 N1734 1.427 . S
C1731 H1721 0.929 . S
C1731 C1729 1.433 . S
C1731 N1734 1.384 . S
C1732 H1723 0.929 . S
C1732 C1724 1.378 . S
C1732 C1727 1.350 . S
C1733 H1720 0.929 . S
C1733 C1725 1.433 . S
C1733 N1735 1.384 . S
N1734 C1730 1.427 . S
N1734 C1731 1.384 . S
N1735 C1727 1.427 . S
N1735 C1733 1.384 . S
H1736 C1742 0.930 . S
H1737 C1746 0.930 . S
H1738 C1751 0.929 . S
H1739 C1749 0.929 . S
H1740 C1744 0.929 . S
H1741 C1750 0.929 . S
C1742 H1736 0.930 . S
C1742 C1743 1.367 . S
C1742 C1750 1.378 . S
C1743 C1742 1.367 . S
C1743 C1751 1.433 1_565 S
C1744 H1740 0.929 . S
C1744 C1746 1.378 . S
C1744 C1748 1.350 1_545 S
C1745 C1748 1.463 . S
C1745 C1750 1.350 . S
C1745 N1753 1.427 1_565 S
C1746 H1737 0.930 . S
C1746 C1744 1.378 . S
C1746 C1747 1.367 . S
C1747 C1746 1.367 . S
C1747 C1749 1.433 1_545 S
C1748 C1744 1.350 1_565 S
C1748 C1745 1.463 . S
C1748 N1752 1.427 . S
C1749 H1739 0.929 . S
C1749 C1747 1.433 1_565 S
C1749 N1752 1.384 . S
C1750 H1741 0.929 . S
C1750 C1742 1.378 . S
C1750 C1745 1.350 . S
C1751 H1738 0.929 . S
C1751 C1743 1.433 1_545 S
C1751 N1753 1.384 . S
N1752 C1748 1.427 . S
N1752 C1749 1.384 . S
N1753 C1745 1.427 1_545 S
N1753 C1751 1.384 . S
H1754 C1760 0.930 . S
H1755 C1764 0.930 . S
H1756 C1769 0.929 . S
H1757 C1767 0.929 . S
H1758 C1762 0.929 . S
H1759 C1768 0.929 . S
C1760 H1754 0.930 . S
C1760 C1761 1.367 . S
C1760 C1768 1.378 . S
C1761 C1760 1.367 . S
C1761 C1769 1.433 . S
C1762 H1758 0.929 . S
C1762 C1764 1.378 . S
C1762 C1766 1.350 . S
C1763 C1766 1.463 . S
C1763 C1768 1.350 . S
C1763 N1771 1.427 . S
C1764 H1755 0.930 . S
C1764 C1762 1.378 . S
C1764 C1765 1.367 . S
C1765 C1764 1.367 . S
C1765 C1767 1.433 . S
C1766 C1762 1.350 . S
C1766 C1763 1.463 . S
C1766 N1770 1.427 . S
C1767 H1757 0.929 . S
C1767 C1765 1.433 . S
C1767 N1770 1.384 . S
C1768 H1759 0.929 . S
C1768 C1760 1.378 . S
C1768 C1763 1.350 . S
C1769 H1756 0.929 . S
C1769 C1761 1.433 . S
C1769 N1771 1.384 . S
N1770 C1766 1.427 . S
N1770 C1767 1.384 . S
N1771 C1763 1.427 . S
N1771 C1769 1.384 . S
H1772 C1778 0.930 . S
H1773 C1782 0.932 . S
H1774 C1787 0.929 . S
H1775 C1785 0.929 . S
H1776 C1780 0.929 . S
H1777 C1786 0.929 . S
C1778 H1772 0.930 . S
C1778 C1779 1.367 . S
C1778 C1786 1.378 . S
C1779 C1778 1.367 . S
C1779 C1787 1.433 . S
C1780 H1776 0.929 . S
C1780 C1782 1.378 1_545 S
C1780 C1784 1.350 . S
C1781 C1784 1.463 . S
C1781 C1786 1.350 . S
C1781 N1789 1.427 . S
C1782 H1773 0.932 . S
C1782 C1780 1.378 1_565 S
C1782 C1783 1.367 . S
C1783 C1782 1.367 . S
C1783 C1785 1.433 . S
C1784 C1780 1.350 . S
C1784 C1781 1.463 . S
C1784 N1788 1.427 1_545 S
C1785 H1775 0.929 . S
C1785 C1783 1.433 . S
C1785 N1788 1.384 . S
C1786 H1777 0.929 . S
C1786 C1778 1.378 . S
C1786 C1781 1.350 . S
C1787 H1774 0.929 . S
C1787 C1779 1.433 . S
C1787 N1789 1.384 . S
N1788 C1784 1.427 1_565 S
N1788 C1785 1.384 . S
N1789 C1781 1.427 . S
N1789 C1787 1.384 . S
H1790 C1796 0.930 . S
H1791 C1800 0.930 . S
H1792 C1805 0.929 . S
H1793 C1803 0.929 . S
H1794 C1798 0.929 . S
H1795 C1804 0.929 . S
C1796 H1790 0.930 . S
C1796 C1797 1.367 . S
C1796 C1804 1.378 . S
C1797 C1796 1.367 . S
C1797 C1805 1.433 . S
C1798 H1794 0.929 . S
C1798 C1800 1.378 . S
C1798 C1802 1.350 . S
C1799 C1802 1.463 . S
C1799 C1804 1.350 . S
C1799 N1807 1.427 . S
C1800 H1791 0.930 . S
C1800 C1798 1.378 . S
C1800 C1801 1.367 . S
C1801 C1800 1.367 . S
C1801 C1803 1.433 . S
C1802 C1798 1.350 . S
C1802 C1799 1.463 . S
C1802 N1806 1.427 . S
C1803 H1793 0.929 . S
C1803 C1801 1.433 . S
C1803 N1806 1.384 . S
C1804 H1795 0.929 . S
C1804 C1796 1.378 . S
C1804 C1799 1.350 . S
C1805 H1792 0.929 . S
C1805 C1797 1.433 . S
C1805 N1807 1.384 . S
N1806 C1802 1.427 . S
N1806 C1803 1.384 . S
N1807 C1799 1.427 . S
N1807 C1805 1.384 . S
H1808 C1814 0.930 . S
H1809 C1818 0.930 . S
H1810 C1823 0.929 . S
H1811 C1821 0.929 1_545 S
H1812 C1816 0.929 . S
H1813 C1822 0.929 . S
C1814 H1808 0.930 . S
C1814 C1815 1.367 . S
C1814 C1822 1.378 . S
C1815 C1814 1.367 . S
C1815 C1823 1.433 1_545 S
C1816 H1812 0.929 . S
C1816 C1818 1.378 . S
C1816 C1820 1.350 . S
C1817 C1820 1.463 . S
C1817 C1822 1.350 1_565 S
C1817 N1825 1.427 . S
C1818 H1809 0.930 . S
C1818 C1816 1.378 . S
C1818 C1819 1.367 . S
C1819 C1818 1.367 . S
C1819 C1821 1.433 . S
C1820 C1816 1.350 . S
C1820 C1817 1.463 . S
C1820 N1824 1.427 1_565 S
C1821 H1811 0.929 1_565 S
C1821 C1819 1.433 . S
C1821 N1824 1.384 1_565 S
C1822 H1813 0.929 . S
C1822 C1814 1.378 . S
C1822 C1817 1.350 1_545 S
C1823 H1810 0.929 . S
C1823 C1815 1.433 1_565 S
C1823 N1825 1.384 . S
N1824 C1820 1.427 1_545 S
N1824 C1821 1.384 1_545 S
N1825 C1817 1.427 . S
N1825 C1823 1.384 . S
H1826 C1832 0.930 . S
H1827 C1836 0.930 . S
H1828 C1841 0.929 . S
H1829 C1839 0.929 . S
H1830 C1834 0.929 . S
H1831 C1840 0.929 . S
C1832 H1826 0.930 . S
C1832 C1833 1.367 . S
C1832 C1840 1.378 . S
C1833 C1832 1.367 . S
C1833 C1841 1.433 . S
C1834 H1830 0.929 . S
C1834 C1836 1.378 . S
C1834 C1838 1.350 . S
C1835 C1838 1.463 . S
C1835 C1840 1.350 . S
C1835 N1843 1.427 . S
C1836 H1827 0.930 . S
C1836 C1834 1.378 . S
C1836 C1837 1.367 . S
C1837 C1836 1.367 . S
C1837 C1839 1.433 . S
C1838 C1834 1.350 . S
C1838 C1835 1.463 . S
C1838 N1842 1.427 . S
C1839 H1829 0.929 . S
C1839 C1837 1.433 . S
C1839 N1842 1.384 . S
C1840 H1831 0.929 . S
C1840 C1832 1.378 . S
C1840 C1835 1.350 . S
C1841 H1828 0.929 . S
C1841 C1833 1.433 . S
C1841 N1843 1.384 . S
N1842 C1838 1.427 . S
N1842 C1839 1.384 . S
N1843 C1835 1.427 . S
N1843 C1841 1.384 . S
H1844 C1850 0.930 . S
H1845 C1854 0.930 . S
H1846 C1859 0.929 1_565 S
H1847 C1857 0.929 . S
H1848 C1852 0.929 . S
H1849 C1858 0.929 . S
C1850 H1844 0.930 . S
C1850 C1851 1.367 . S
C1850 C1858 1.378 . S
C1851 C1850 1.367 . S
C1851 C1859 1.433 . S
C1852 H1848 0.929 . S
C1852 C1854 1.378 . S
C1852 C1856 1.350 1_565 S
C1853 C1856 1.463 . S
C1853 C1858 1.350 . S
C1853 N1861 1.427 1_545 S
C1854 H1845 0.930 . S
C1854 C1852 1.378 . S
C1854 C1855 1.367 . S
C1855 C1854 1.367 . S
C1855 C1857 1.433 1_565 S
C1856 C1852 1.350 1_545 S
C1856 C1853 1.463 . S
C1856 N1860 1.427 . S
C1857 H1847 0.929 . S
C1857 C1855 1.433 1_545 S
C1857 N1860 1.384 . S
C1858 H1849 0.929 . S
C1858 C1850 1.378 . S
C1858 C1853 1.350 . S
C1859 H1846 0.929 1_545 S
C1859 C1851 1.433 . S
C1859 N1861 1.384 1_545 S
N1860 C1856 1.427 . S
N1860 C1857 1.384 . S
N1861 C1853 1.427 1_565 S
N1861 C1859 1.384 1_565 S
H1862 C1868 0.930 . S
H1863 C1872 0.930 . S
H1864 C1877 0.929 . S
H1865 C1875 0.929 . S
H1866 C1870 0.929 . S
H1867 C1876 0.929 . S
C1868 H1862 0.930 . S
C1868 C1869 1.367 . S
C1868 C1876 1.378 . S
C1869 C1868 1.367 . S
C1869 C1877 1.433 . S
C1870 H1866 0.929 . S
C1870 C1872 1.378 . S
C1870 C1874 1.350 . S
C1871 C1874 1.463 . S
C1871 C1876 1.350 . S
C1871 N1879 1.427 . S
C1872 H1863 0.930 . S
C1872 C1870 1.378 . S
C1872 C1873 1.367 . S
C1873 C1872 1.367 . S
C1873 C1875 1.433 . S
C1874 C1870 1.350 . S
C1874 C1871 1.463 . S
C1874 N1878 1.427 . S
C1875 H1865 0.929 . S
C1875 C1873 1.433 . S
C1875 N1878 1.384 . S
C1876 H1867 0.929 . S
C1876 C1868 1.378 . S
C1876 C1871 1.350 . S
C1877 H1864 0.929 . S
C1877 C1869 1.433 . S
C1877 N1879 1.384 . S
N1878 C1874 1.427 . S
N1878 C1875 1.384 . S
N1879 C1871 1.427 . S
N1879 C1877 1.384 . S
H1880 C1886 0.930 . S
H1881 C1890 0.930 . S
H1882 C1895 0.929 . S
H1883 C1893 0.929 . S
H1884 C1888 0.929 . S
H1885 C1894 0.929 . S
C1886 H1880 0.930 . S
C1886 C1887 1.367 . S
C1886 C1894 1.378 . S
C1887 C1886 1.367 . S
C1887 C1895 1.433 . S
C1888 H1884 0.929 . S
C1888 C1890 1.378 1_545 S
C1888 C1892 1.350 . S
C1889 C1892 1.463 . S
C1889 C1894 1.350 . S
C1889 N1897 1.427 . S
C1890 H1881 0.930 . S
C1890 C1888 1.378 1_565 S
C1890 C1891 1.367 . S
C1891 C1890 1.367 . S
C1891 C1893 1.433 . S
C1892 C1888 1.350 . S
C1892 C1889 1.463 . S
C1892 N1896 1.427 1_545 S
C1893 H1883 0.929 . S
C1893 C1891 1.433 . S
C1893 N1896 1.384 . S
C1894 H1885 0.929 . S
C1894 C1886 1.378 . S
C1894 C1889 1.350 . S
C1895 H1882 0.929 . S
C1895 C1887 1.433 . S
C1895 N1897 1.384 . S
N1896 C1892 1.427 1_565 S
N1896 C1893 1.384 . S
N1897 C1889 1.427 . S
N1897 C1895 1.384 . S
H1898 C1904 0.930 . S
H1899 C1908 0.930 . S
H1900 C1913 0.929 . S
H1901 C1911 0.929 . S
H1902 C1906 0.929 . S
H1903 C1912 0.929 . S
C1904 H1898 0.930 . S
C1904 C1905 1.367 . S
C1904 C1912 1.378 . S
C1905 C1904 1.367 . S
C1905 C1913 1.433 . S
C1906 H1902 0.929 . S
C1906 C1908 1.378 . S
C1906 C1910 1.350 . S
C1907 C1910 1.463 . S
C1907 C1912 1.350 . S
C1907 N1915 1.427 . S
C1908 H1899 0.930 . S
C1908 C1906 1.378 . S
C1908 C1909 1.367 . S
C1909 C1908 1.367 . S
C1909 C1911 1.433 . S
C1910 C1906 1.350 . S
C1910 C1907 1.463 . S
C1910 N1914 1.427 . S
C1911 H1901 0.929 . S
C1911 C1909 1.433 . S
C1911 N1914 1.384 . S
C1912 H1903 0.929 . S
C1912 C1904 1.378 . S
C1912 C1907 1.350 . S
C1913 H1900 0.929 . S
C1913 C1905 1.433 . S
C1913 N1915 1.384 . S
N1914 C1910 1.427 . S
N1914 C1911 1.384 . S
N1915 C1907 1.427 . S
N1915 C1913 1.384 . S
H1916 C1922 0.930 . S
H1917 C1926 0.930 . S
H1918 C1931 0.929 . S
H1919 C1929 0.929 . S
H1920 C1924 0.929 . S
H1921 C1930 0.929 . S
C1922 H1916 0.930 . S
C1922 C1923 1.367 . S
C1922 C1930 1.378 . S
C1923 C1922 1.367 . S
C1923 C1931 1.433 . S
C1924 H1920 0.929 . S
C1924 C1926 1.378 . S
C1924 C1928 1.350 1_545 S
C1925 C1928 1.463 . S
C1925 C1930 1.350 . S
C1925 N1933 1.427 . S
C1926 H1917 0.930 . S
C1926 C1924 1.378 . S
C1926 C1927 1.367 . S
C1927 C1926 1.367 . S
C1927 C1929 1.433 1_545 S
C1928 C1924 1.350 1_565 S
C1928 C1925 1.463 . S
C1928 N1932 1.427 . S
C1929 H1919 0.929 . S
C1929 C1927 1.433 1_565 S
C1929 N1932 1.384 . S
C1930 H1921 0.929 . S
C1930 C1922 1.378 . S
C1930 C1925 1.350 . S
C1931 H1918 0.929 . S
C1931 C1923 1.433 . S
C1931 N1933 1.384 . S
N1932 C1928 1.427 . S
N1932 C1929 1.384 . S
N1933 C1925 1.427 . S
N1933 C1931 1.384 . S
H1934 C1940 0.930 . S
H1935 C1944 0.930 . S
H1936 C1949 0.929 . S
H1937 C1947 0.929 . S
H1938 C1942 0.929 . S
H1939 C1948 0.929 . S
C1940 H1934 0.930 . S
C1940 C1941 1.367 . S
C1940 C1948 1.378 . S
C1941 C1940 1.367 . S
C1941 C1949 1.433 . S
C1942 H1938 0.929 . S
C1942 C1944 1.378 . S
C1942 C1946 1.350 . S
C1943 C1946 1.463 . S
C1943 C1948 1.350 . S
C1943 N1951 1.427 . S
C1944 H1935 0.930 . S
C1944 C1942 1.378 . S
C1944 C1945 1.367 . S
C1945 C1944 1.367 . S
C1945 C1947 1.433 . S
C1946 C1942 1.350 . S
C1946 C1943 1.463 . S
C1946 N1950 1.427 . S
C1947 H1937 0.929 . S
C1947 C1945 1.433 . S
C1947 N1950 1.384 . S
C1948 H1939 0.929 . S
C1948 C1940 1.378 . S
C1948 C1943 1.350 . S
C1949 H1936 0.929 . S
C1949 C1941 1.433 . S
C1949 N1951 1.384 . S
N1950 C1946 1.427 . S
N1950 C1947 1.384 . S
N1951 C1943 1.427 . S
N1951 C1949 1.384 . S
H1952 C1958 0.930 . S
H1953 C1962 0.930 . S
H1954 C1967 0.929 . S
H1955 C1965 0.929 . S
H1956 C1960 0.929 . S
H1957 C1966 0.929 . S
C1958 H1952 0.930 . S
C1958 C1959 1.367 . S
C1958 C1966 1.378 . S
C1959 C1958 1.367 . S
C1959 C1967 1.433 . S
C1960 H1956 0.929 . S
C1960 C1962 1.378 . S
C1960 C1964 1.350 . S
C1961 C1964 1.463 . S
C1961 C1966 1.350 . S
C1961 N1969 1.427 . S
C1962 H1953 0.930 . S
C1962 C1960 1.378 . S
C1962 C1963 1.367 . S
C1963 C1962 1.367 . S
C1963 C1965 1.433 . S
C1964 C1960 1.350 . S
C1964 C1961 1.463 . S
C1964 N1968 1.427 . S
C1965 H1955 0.929 . S
C1965 C1963 1.433 . S
C1965 N1968 1.384 . S
C1966 H1957 0.929 . S
C1966 C1958 1.378 . S
C1966 C1961 1.350 . S
C1967 H1954 0.929 . S
C1967 C1959 1.433 . S
C1967 N1969 1.384 . S
N1968 C1964 1.427 . S
N1968 C1965 1.384 . S
N1969 C1961 1.427 . S
N1969 C1967 1.384 . S
H1970 C1976 0.930 . S
H1971 C1980 0.930 . S
H1972 C1985 0.929 . S
H1973 C1983 0.929 . S
H1974 C1978 0.929 . S
H1975 C1984 0.929 . S
C1976 H1970 0.930 . S
C1976 C1977 1.367 . S
C1976 C1984 1.378 . S
C1977 C1976 1.367 . S
C1977 C1985 1.433 . S
C1978 H1974 0.929 . S
C1978 C1980 1.378 . S
C1978 C1982 1.350 . S
C1979 C1982 1.463 . S
C1979 C1984 1.350 . S
C1979 N1987 1.427 . S
C1980 H1971 0.930 . S
C1980 C1978 1.378 . S
C1980 C1981 1.367 . S
C1981 C1980 1.367 . S
C1981 C1983 1.433 . S
C1982 C1978 1.350 . S
C1982 C1979 1.463 . S
C1982 N1986 1.427 . S
C1983 H1973 0.929 . S
C1983 C1981 1.433 . S
C1983 N1986 1.384 . S
C1984 H1975 0.929 . S
C1984 C1976 1.378 . S
C1984 C1979 1.350 . S
C1985 H1972 0.929 . S
C1985 C1977 1.433 . S
C1985 N1987 1.384 . S
N1986 C1982 1.427 . S
N1986 C1983 1.384 . S
N1987 C1979 1.427 . S
N1987 C1985 1.384 . S
H1988 C1994 0.930 . S
H1989 C1998 0.930 . S
H1990 C2003 0.929 . S
H1991 C2001 0.929 . S
H1992 C1996 0.929 . S
H1993 C2002 0.929 . S
C1994 H1988 0.930 . S
C1994 C1995 1.367 . S
C1994 C2002 1.378 . S
C1995 C1994 1.367 . S
C1995 C2003 1.433 . S
C1996 H1992 0.929 . S
C1996 C1998 1.378 . S
C1996 C2000 1.350 . S
C1997 C2000 1.463 . S
C1997 C2002 1.350 . S
C1997 N2005 1.427 . S
C1998 H1989 0.930 . S
C1998 C1996 1.378 . S
C1998 C1999 1.367 . S
C1999 C1998 1.367 . S
C1999 C2001 1.433 . S
C2000 C1996 1.350 . S
C2000 C1997 1.463 . S
C2000 N2004 1.427 . S
C2001 H1991 0.929 . S
C2001 C1999 1.433 . S
C2001 N2004 1.384 . S
C2002 H1993 0.929 . S
C2002 C1994 1.378 . S
C2002 C1997 1.350 . S
C2003 H1990 0.929 . S
C2003 C1995 1.433 . S
C2003 N2005 1.384 . S
N2004 C2000 1.427 . S
N2004 C2001 1.384 . S
N2005 C1997 1.427 . S
N2005 C2003 1.384 . S
H2006 C2012 0.930 . S
H2007 C2016 0.930 . S
H2008 C2021 0.929 . S
H2009 C2019 0.929 . S
H2010 C2014 0.929 . S
H2011 C2020 0.929 . S
C2012 H2006 0.930 . S
C2012 C2013 1.367 . S
C2012 C2020 1.378 . S
C2013 C2012 1.367 . S
C2013 C2021 1.433 . S
C2014 H2010 0.929 . S
C2014 C2016 1.378 . S
C2014 C2018 1.350 . S
C2015 C2018 1.463 . S
C2015 C2020 1.350 . S
C2015 N2023 1.427 . S
C2016 H2007 0.930 . S
C2016 C2014 1.378 . S
C2016 C2017 1.367 . S
C2017 C2016 1.367 . S
C2017 C2019 1.433 . S
C2018 C2014 1.350 . S
C2018 C2015 1.463 . S
C2018 N2022 1.427 . S
C2019 H2009 0.929 . S
C2019 C2017 1.433 . S
C2019 N2022 1.384 . S
C2020 H2011 0.929 . S
C2020 C2012 1.378 . S
C2020 C2015 1.350 . S
C2021 H2008 0.929 . S
C2021 C2013 1.433 . S
C2021 N2023 1.384 . S
N2022 C2018 1.427 . S
N2022 C2019 1.384 . S
N2023 C2015 1.427 . S
N2023 C2021 1.384 . S
H2024 C2030 0.930 . S
H2025 C2034 0.930 . S
H2026 C2039 0.929 . S
H2027 C2037 0.929 . S
H2028 C2032 0.929 . S
H2029 C2038 0.929 . S
C2030 H2024 0.930 . S
C2030 C2031 1.367 . S
C2030 C2038 1.378 . S
C2031 C2030 1.367 . S
C2031 C2039 1.433 . S
C2032 H2028 0.929 . S
C2032 C2034 1.378 . S
C2032 C2036 1.350 . S
C2033 C2036 1.463 . S
C2033 C2038 1.350 . S
C2033 N2041 1.427 . S
C2034 H2025 0.930 . S
C2034 C2032 1.378 . S
C2034 C2035 1.367 . S
C2035 C2034 1.367 . S
C2035 C2037 1.433 . S
C2036 C2032 1.350 . S
C2036 C2033 1.463 . S
C2036 N2040 1.427 . S
C2037 H2027 0.929 . S
C2037 C2035 1.433 . S
C2037 N2040 1.384 . S
C2038 H2029 0.929 . S
C2038 C2030 1.378 . S
C2038 C2033 1.350 . S
C2039 H2026 0.929 . S
C2039 C2031 1.433 . S
C2039 N2041 1.384 . S
N2040 C2036 1.427 . S
N2040 C2037 1.384 . S
N2041 C2033 1.427 . S
N2041 C2039 1.384 . S
H2042 C2048 0.930 . S
H2043 C2052 0.930 . S
H2044 C2057 0.929 . S
H2045 C2055 0.929 . S
H2046 C2050 0.929 . S
H2047 C2056 0.929 . S
C2048 H2042 0.930 . S
C2048 C2049 1.367 . S
C2048 C2056 1.378 . S
C2049 C2048 1.367 . S
C2049 C2057 1.433 . S
C2050 H2046 0.929 . S
C2050 C2052 1.378 . S
C2050 C2054 1.350 . S
C2051 C2054 1.463 . S
C2051 C2056 1.350 . S
C2051 N2059 1.427 . S
C2052 H2043 0.930 . S
C2052 C2050 1.378 . S
C2052 C2053 1.367 . S
C2053 C2052 1.367 . S
C2053 C2055 1.433 . S
C2054 C2050 1.350 . S
C2054 C2051 1.463 . S
C2054 N2058 1.427 . S
C2055 H2045 0.929 . S
C2055 C2053 1.433 . S
C2055 N2058 1.384 . S
C2056 H2047 0.929 . S
C2056 C2048 1.378 . S
C2056 C2051 1.350 . S
C2057 H2044 0.929 . S
C2057 C2049 1.433 . S
C2057 N2059 1.384 . S
N2058 C2054 1.427 . S
N2058 C2055 1.384 . S
N2059 C2051 1.427 . S
N2059 C2057 1.384 . S
H2060 C2066 0.930 . S
H2061 C2070 0.930 . S
H2062 C2075 0.929 . S
H2063 C2073 0.929 . S
H2064 C2068 0.929 . S
H2065 C2074 0.929 . S
C2066 H2060 0.930 . S
C2066 C2067 1.367 . S
C2066 C2074 1.378 . S
C2067 C2066 1.367 . S
C2067 C2075 1.433 . S
C2068 H2064 0.929 . S
C2068 C2070 1.378 . S
C2068 C2072 1.350 . S
C2069 C2072 1.463 . S
C2069 C2074 1.350 . S
C2069 N2077 1.427 . S
C2070 H2061 0.930 . S
C2070 C2068 1.378 . S
C2070 C2071 1.367 . S
C2071 C2070 1.367 . S
C2071 C2073 1.433 . S
C2072 C2068 1.350 . S
C2072 C2069 1.463 . S
C2072 N2076 1.427 . S
C2073 H2063 0.929 . S
C2073 C2071 1.433 . S
C2073 N2076 1.384 . S
C2074 H2065 0.929 . S
C2074 C2066 1.378 . S
C2074 C2069 1.350 . S
C2075 H2062 0.929 . S
C2075 C2067 1.433 . S
C2075 N2077 1.384 . S
N2076 C2072 1.427 . S
N2076 C2073 1.384 . S
N2077 C2069 1.427 . S
N2077 C2075 1.384 . S
H2078 C2084 0.930 . S
H2079 C2088 0.930 . S
H2080 C2093 0.929 . S
H2081 C2091 0.929 . S
H2082 C2086 0.929 . S
H2083 C2092 0.929 . S
C2084 H2078 0.930 . S
C2084 C2085 1.367 . S
C2084 C2092 1.378 . S
C2085 C2084 1.367 . S
C2085 C2093 1.433 . S
C2086 H2082 0.929 . S
C2086 C2088 1.378 . S
C2086 C2090 1.350 . S
C2087 C2090 1.463 . S
C2087 C2092 1.350 . S
C2087 N2095 1.427 . S
C2088 H2079 0.930 . S
C2088 C2086 1.378 . S
C2088 C2089 1.367 . S
C2089 C2088 1.367 . S
C2089 C2091 1.433 . S
C2090 C2086 1.350 . S
C2090 C2087 1.463 . S
C2090 N2094 1.427 . S
C2091 H2081 0.929 . S
C2091 C2089 1.433 . S
C2091 N2094 1.384 . S
C2092 H2083 0.929 . S
C2092 C2084 1.378 . S
C2092 C2087 1.350 . S
C2093 H2080 0.929 . S
C2093 C2085 1.433 . S
C2093 N2095 1.384 . S
N2094 C2090 1.427 . S
N2094 C2091 1.384 . S
N2095 C2087 1.427 . S
N2095 C2093 1.384 . S
H2096 C2102 0.930 . S
H2097 C2106 0.930 . S
H2098 C2111 0.929 . S
H2099 C2109 0.929 . S
H2100 C2104 0.929 . S
H2101 C2110 0.929 . S
C2102 H2096 0.930 . S
C2102 C2103 1.367 . S
C2102 C2110 1.378 . S
C2103 C2102 1.367 . S
C2103 C2111 1.433 . S
C2104 H2100 0.929 . S
C2104 C2106 1.378 . S
C2104 C2108 1.350 . S
C2105 C2108 1.463 . S
C2105 C2110 1.350 . S
C2105 N2113 1.427 . S
C2106 H2097 0.930 . S
C2106 C2104 1.378 . S
C2106 C2107 1.367 . S
C2107 C2106 1.367 . S
C2107 C2109 1.433 . S
C2108 C2104 1.350 . S
C2108 C2105 1.463 . S
C2108 N2112 1.427 . S
C2109 H2099 0.929 . S
C2109 C2107 1.433 . S
C2109 N2112 1.384 . S
C2110 H2101 0.929 . S
C2110 C2102 1.378 . S
C2110 C2105 1.350 . S
C2111 H2098 0.929 . S
C2111 C2103 1.433 . S
C2111 N2113 1.384 . S
N2112 C2108 1.427 . S
N2112 C2109 1.384 . S
N2113 C2105 1.427 . S
N2113 C2111 1.384 . S
H2114 C2120 0.930 . S
H2115 C2124 0.930 . S
H2116 C2129 0.929 . S
H2117 C2127 0.929 . S
H2118 C2122 0.929 . S
H2119 C2128 0.929 . S
C2120 H2114 0.930 . S
C2120 C2121 1.367 . S
C2120 C2128 1.378 . S
C2121 C2120 1.367 . S
C2121 C2129 1.433 . S
C2122 H2118 0.929 . S
C2122 C2124 1.378 . S
C2122 C2126 1.350 . S
C2123 C2126 1.463 . S
C2123 C2128 1.350 . S
C2123 N2131 1.427 . S
C2124 H2115 0.930 . S
C2124 C2122 1.378 . S
C2124 C2125 1.367 . S
C2125 C2124 1.367 . S
C2125 C2127 1.433 . S
C2126 C2122 1.350 . S
C2126 C2123 1.463 . S
C2126 N2130 1.427 . S
C2127 H2117 0.929 . S
C2127 C2125 1.433 . S
C2127 N2130 1.384 . S
C2128 H2119 0.929 . S
C2128 C2120 1.378 . S
C2128 C2123 1.350 . S
C2129 H2116 0.929 . S
C2129 C2121 1.433 . S
C2129 N2131 1.384 . S
N2130 C2126 1.427 . S
N2130 C2127 1.384 . S
N2131 C2123 1.427 . S
N2131 C2129 1.384 . S
H2132 C2138 0.930 . S
H2133 C2142 0.930 . S
H2134 C2147 0.929 . S
H2135 C2145 0.929 . S
H2136 C2140 0.929 . S
H2137 C2146 0.929 . S
C2138 H2132 0.930 . S
C2138 C2139 1.367 . S
C2138 C2146 1.378 . S
C2139 C2138 1.367 . S
C2139 C2147 1.433 . S
C2140 H2136 0.929 . S
C2140 C2142 1.378 . S
C2140 C2144 1.350 . S
C2141 C2144 1.463 . S
C2141 C2146 1.350 . S
C2141 N2149 1.427 . S
C2142 H2133 0.930 . S
C2142 C2140 1.378 . S
C2142 C2143 1.367 . S
C2143 C2142 1.367 . S
C2143 C2145 1.433 . S
C2144 C2140 1.350 . S
C2144 C2141 1.463 . S
C2144 N2148 1.427 . S
C2145 H2135 0.929 . S
C2145 C2143 1.433 . S
C2145 N2148 1.384 . S
C2146 H2137 0.929 . S
C2146 C2138 1.378 . S
C2146 C2141 1.350 . S
C2147 H2134 0.929 . S
C2147 C2139 1.433 . S
C2147 N2149 1.384 . S
N2148 C2144 1.427 . S
N2148 C2145 1.384 . S
N2149 C2141 1.427 . S
N2149 C2147 1.384 . S
H2150 C2156 0.930 . S
H2151 C2160 0.930 . S
H2152 C2165 0.929 . S
H2153 C2163 0.929 . S
H2154 C2158 0.929 . S
H2155 C2164 0.929 . S
C2156 H2150 0.930 . S
C2156 C2157 1.367 . S
C2156 C2164 1.378 . S
C2157 C2156 1.367 . S
C2157 C2165 1.433 . S
C2158 H2154 0.929 . S
C2158 C2160 1.378 . S
C2158 C2162 1.350 . S
C2159 C2162 1.463 . S
C2159 C2164 1.350 . S
C2159 N2167 1.427 . S
C2160 H2151 0.930 . S
C2160 C2158 1.378 . S
C2160 C2161 1.367 . S
C2161 C2160 1.367 . S
C2161 C2163 1.433 . S
C2162 C2158 1.350 . S
C2162 C2159 1.463 . S
C2162 N2166 1.427 . S
C2163 H2153 0.929 . S
C2163 C2161 1.433 . S
C2163 N2166 1.384 . S
C2164 H2155 0.929 . S
C2164 C2156 1.378 . S
C2164 C2159 1.350 . S
C2165 H2152 0.929 . S
C2165 C2157 1.433 . S
C2165 N2167 1.384 . S
N2166 C2162 1.427 . S
N2166 C2163 1.384 . S
N2167 C2159 1.427 . S
N2167 C2165 1.384 . S
H2168 C2174 0.930 . S
H2169 C2178 0.930 . S
H2170 C2183 0.929 . S
H2171 C2181 0.929 . S
H2172 C2176 0.929 . S
H2173 C2182 0.929 . S
C2174 H2168 0.930 . S
C2174 C2175 1.367 . S
C2174 C2182 1.378 . S
C2175 C2174 1.367 . S
C2175 C2183 1.433 . S
C2176 H2172 0.929 . S
C2176 C2178 1.378 . S
C2176 C2180 1.350 . S
C2177 C2180 1.463 . S
C2177 C2182 1.350 . S
C2177 N2185 1.427 . S
C2178 H2169 0.930 . S
C2178 C2176 1.378 . S
C2178 C2179 1.367 . S
C2179 C2178 1.367 . S
C2179 C2181 1.433 . S
C2180 C2176 1.350 . S
C2180 C2177 1.463 . S
C2180 N2184 1.427 . S
C2181 H2171 0.929 . S
C2181 C2179 1.433 . S
C2181 N2184 1.384 . S
C2182 H2173 0.929 . S
C2182 C2174 1.378 . S
C2182 C2177 1.350 . S
C2183 H2170 0.929 . S
C2183 C2175 1.433 . S
C2183 N2185 1.384 . S
N2184 C2180 1.427 . S
N2184 C2181 1.384 . S
N2185 C2177 1.427 . S
N2185 C2183 1.384 . S
H2186 C2192 0.930 . S
H2187 C2196 0.930 . S
H2188 C2201 0.929 . S
H2189 C2199 0.929 . S
H2190 C2194 0.929 . S
H2191 C2200 0.929 . S
C2192 H2186 0.930 . S
C2192 C2193 1.367 . S
C2192 C2200 1.378 . S
C2193 C2192 1.367 . S
C2193 C2201 1.433 . S
C2194 H2190 0.929 . S
C2194 C2196 1.378 . S
C2194 C2198 1.350 . S
C2195 C2198 1.463 . S
C2195 C2200 1.350 . S
C2195 N2203 1.427 . S
C2196 H2187 0.930 . S
C2196 C2194 1.378 . S
C2196 C2197 1.367 . S
C2197 C2196 1.367 . S
C2197 C2199 1.433 . S
C2198 C2194 1.350 . S
C2198 C2195 1.463 . S
C2198 N2202 1.427 . S
C2199 H2189 0.929 . S
C2199 C2197 1.433 . S
C2199 N2202 1.384 . S
C2200 H2191 0.929 . S
C2200 C2192 1.378 . S
C2200 C2195 1.350 . S
C2201 H2188 0.929 . S
C2201 C2193 1.433 . S
C2201 N2203 1.384 . S
N2202 C2198 1.427 . S
N2202 C2199 1.384 . S
N2203 C2195 1.427 . S
N2203 C2201 1.384 . S
H2204 C2210 0.930 . S
H2205 C2214 0.930 . S
H2206 C2219 0.929 . S
H2207 C2217 0.929 . S
H2208 C2212 0.929 . S
H2209 C2218 0.929 . S
C2210 H2204 0.930 . S
C2210 C2211 1.367 . S
C2210 C2218 1.378 . S
C2211 C2210 1.367 . S
C2211 C2219 1.433 . S
C2212 H2208 0.929 . S
C2212 C2214 1.378 . S
C2212 C2216 1.350 . S
C2213 C2216 1.463 . S
C2213 C2218 1.350 . S
C2213 N2221 1.427 . S
C2214 H2205 0.930 . S
C2214 C2212 1.378 . S
C2214 C2215 1.367 . S
C2215 C2214 1.367 . S
C2215 C2217 1.433 . S
C2216 C2212 1.350 . S
C2216 C2213 1.463 . S
C2216 N2220 1.427 . S
C2217 H2207 0.929 . S
C2217 C2215 1.433 . S
C2217 N2220 1.384 . S
C2218 H2209 0.929 . S
C2218 C2210 1.378 . S
C2218 C2213 1.350 . S
C2219 H2206 0.929 . S
C2219 C2211 1.433 . S
C2219 N2221 1.384 . S
N2220 C2216 1.427 . S
N2220 C2217 1.384 . S
N2221 C2213 1.427 . S
N2221 C2219 1.384 . S
H2222 C2228 0.930 . S
H2223 C2232 0.930 . S
H2224 C2237 0.929 . S
H2225 C2235 0.929 . S
H2226 C2230 0.929 . S
H2227 C2236 0.929 . S
C2228 H2222 0.930 . S
C2228 C2229 1.367 . S
C2228 C2236 1.378 . S
C2229 C2228 1.367 . S
C2229 C2237 1.433 . S
C2230 H2226 0.929 . S
C2230 C2232 1.378 . S
C2230 C2234 1.350 . S
C2231 C2234 1.463 . S
C2231 C2236 1.350 . S
C2231 N2239 1.427 . S
C2232 H2223 0.930 . S
C2232 C2230 1.378 . S
C2232 C2233 1.367 . S
C2233 C2232 1.367 . S
C2233 C2235 1.433 . S
C2234 C2230 1.350 . S
C2234 C2231 1.463 . S
C2234 N2238 1.427 . S
C2235 H2225 0.929 . S
C2235 C2233 1.433 . S
C2235 N2238 1.384 . S
C2236 H2227 0.929 . S
C2236 C2228 1.378 . S
C2236 C2231 1.350 . S
C2237 H2224 0.929 . S
C2237 C2229 1.433 . S
C2237 N2239 1.384 . S
N2238 C2234 1.427 . S
N2238 C2235 1.384 . S
N2239 C2231 1.427 . S
N2239 C2237 1.384 . S
H2240 C2246 0.930 . S
H2241 C2250 0.930 . S
H2242 C2255 0.929 . S
H2243 C2253 0.929 . S
H2244 C2248 0.929 . S
H2245 C2254 0.929 . S
C2246 H2240 0.930 . S
C2246 C2247 1.367 . S
C2246 C2254 1.378 . S
C2247 C2246 1.367 . S
C2247 C2255 1.433 . S
C2248 H2244 0.929 . S
C2248 C2250 1.378 . S
C2248 C2252 1.350 . S
C2249 C2252 1.463 . S
C2249 C2254 1.350 . S
C2249 N2257 1.427 . S
C2250 H2241 0.930 . S
C2250 C2248 1.378 . S
C2250 C2251 1.367 . S
C2251 C2250 1.367 . S
C2251 C2253 1.433 . S
C2252 C2248 1.350 . S
C2252 C2249 1.463 . S
C2252 N2256 1.427 . S
C2253 H2243 0.929 . S
C2253 C2251 1.433 . S
C2253 N2256 1.384 . S
C2254 H2245 0.929 . S
C2254 C2246 1.378 . S
C2254 C2249 1.350 . S
C2255 H2242 0.929 . S
C2255 C2247 1.433 . S
C2255 N2257 1.384 . S
N2256 C2252 1.427 . S
N2256 C2253 1.384 . S
N2257 C2249 1.427 . S
N2257 C2255 1.384 . S
H2258 C2264 0.930 . S
H2259 C2268 0.930 . S
H2260 C2273 0.929 . S
H2261 C2271 0.929 . S
H2262 C2266 0.929 . S
H2263 C2272 0.929 . S
C2264 H2258 0.930 . S
C2264 C2265 1.367 . S
C2264 C2272 1.378 . S
C2265 C2264 1.367 . S
C2265 C2273 1.433 . S
C2266 H2262 0.929 . S
C2266 C2268 1.378 . S
C2266 C2270 1.350 . S
C2267 C2270 1.463 . S
C2267 C2272 1.350 . S
C2267 N2275 1.427 . S
C2268 H2259 0.930 . S
C2268 C2266 1.378 . S
C2268 C2269 1.367 . S
C2269 C2268 1.367 . S
C2269 C2271 1.433 . S
C2270 C2266 1.350 . S
C2270 C2267 1.463 . S
C2270 N2274 1.427 . S
C2271 H2261 0.929 . S
C2271 C2269 1.433 . S
C2271 N2274 1.384 . S
C2272 H2263 0.929 . S
C2272 C2264 1.378 . S
C2272 C2267 1.350 . S
C2273 H2260 0.929 . S
C2273 C2265 1.433 . S
C2273 N2275 1.384 . S
N2274 C2270 1.427 . S
N2274 C2271 1.384 . S
N2275 C2267 1.427 . S
N2275 C2273 1.384 . S
H2276 C2282 0.930 . S
H2277 C2286 0.930 . S
H2278 C2291 0.929 . S
H2279 C2289 0.929 . S
H2280 C2284 0.929 . S
H2281 C2290 0.929 . S
C2282 H2276 0.930 . S
C2282 C2283 1.367 . S
C2282 C2290 1.378 . S
C2283 C2282 1.367 . S
C2283 C2291 1.433 . S
C2284 H2280 0.929 . S
C2284 C2286 1.378 . S
C2284 C2288 1.350 . S
C2285 C2288 1.463 . S
C2285 C2290 1.350 . S
C2285 N2293 1.427 . S
C2286 H2277 0.930 . S
C2286 C2284 1.378 . S
C2286 C2287 1.367 . S
C2287 C2286 1.367 . S
C2287 C2289 1.433 . S
C2288 C2284 1.350 . S
C2288 C2285 1.463 . S
C2288 N2292 1.427 . S
C2289 H2279 0.929 . S
C2289 C2287 1.433 . S
C2289 N2292 1.384 . S
C2290 H2281 0.929 . S
C2290 C2282 1.378 . S
C2290 C2285 1.350 . S
C2291 H2278 0.929 . S
C2291 C2283 1.433 . S
C2291 N2293 1.384 . S
N2292 C2288 1.427 . S
N2292 C2289 1.384 . S
N2293 C2285 1.427 . S
N2293 C2291 1.384 . S
H2294 C2300 0.930 . S
H2295 C2304 0.930 . S
H2296 C2309 0.929 . S
H2297 C2307 0.929 . S
H2298 C2302 0.929 . S
H2299 C2308 0.929 . S
C2300 H2294 0.930 . S
C2300 C2301 1.367 . S
C2300 C2308 1.378 . S
C2301 C2300 1.367 . S
C2301 C2309 1.433 . S
C2302 H2298 0.929 . S
C2302 C2304 1.378 . S
C2302 C2306 1.350 . S
C2303 C2306 1.463 . S
C2303 C2308 1.350 . S
C2303 N2311 1.427 . S
C2304 H2295 0.930 . S
C2304 C2302 1.378 . S
C2304 C2305 1.367 . S
C2305 C2304 1.367 . S
C2305 C2307 1.433 . S
C2306 C2302 1.350 . S
C2306 C2303 1.463 . S
C2306 N2310 1.427 . S
C2307 H2297 0.929 . S
C2307 C2305 1.433 . S
C2307 N2310 1.384 . S
C2308 H2299 0.929 . S
C2308 C2300 1.378 . S
C2308 C2303 1.350 . S
C2309 H2296 0.929 . S
C2309 C2301 1.433 . S
C2309 N2311 1.384 . S
N2310 C2306 1.427 . S
N2310 C2307 1.384 . S
N2311 C2303 1.427 . S
N2311 C2309 1.384 . S
H2312 C2318 0.930 . S
H2313 C2322 0.930 . S
H2314 C2327 0.929 . S
H2315 C2325 0.929 . S
H2316 C2320 0.929 . S
H2317 C2326 0.929 . S
C2318 H2312 0.930 . S
C2318 C2319 1.367 . S
C2318 C2326 1.378 . S
C2319 C2318 1.367 . S
C2319 C2327 1.433 . S
C2320 H2316 0.929 . S
C2320 C2322 1.378 . S
C2320 C2324 1.350 . S
C2321 C2324 1.463 . S
C2321 C2326 1.350 . S
C2321 N2329 1.427 . S
C2322 H2313 0.930 . S
C2322 C2320 1.378 . S
C2322 C2323 1.367 . S
C2323 C2322 1.367 . S
C2323 C2325 1.433 . S
C2324 C2320 1.350 . S
C2324 C2321 1.463 . S
C2324 N2328 1.427 . S
C2325 H2315 0.929 . S
C2325 C2323 1.433 . S
C2325 N2328 1.384 . S
C2326 H2317 0.929 . S
C2326 C2318 1.378 . S
C2326 C2321 1.350 . S
C2327 H2314 0.929 . S
C2327 C2319 1.433 . S
C2327 N2329 1.384 . S
N2328 C2324 1.427 . S
N2328 C2325 1.384 . S
N2329 C2321 1.427 . S
N2329 C2327 1.384 . S
H2330 C2336 0.930 . S
H2331 C2340 0.930 . S
H2332 C2345 0.929 . S
H2333 C2343 0.929 . S
H2334 C2338 0.929 . S
H2335 C2344 0.929 . S
C2336 H2330 0.930 . S
C2336 C2337 1.367 . S
C2336 C2344 1.378 . S
C2337 C2336 1.367 . S
C2337 C2345 1.433 . S
C2338 H2334 0.929 . S
C2338 C2340 1.378 . S
C2338 C2342 1.350 . S
C2339 C2342 1.463 . S
C2339 C2344 1.350 . S
C2339 N2347 1.427 . S
C2340 H2331 0.930 . S
C2340 C2338 1.378 . S
C2340 C2341 1.367 . S
C2341 C2340 1.367 . S
C2341 C2343 1.433 . S
C2342 C2338 1.350 . S
C2342 C2339 1.463 . S
C2342 N2346 1.427 . S
C2343 H2333 0.929 . S
C2343 C2341 1.433 . S
C2343 N2346 1.384 . S
C2344 H2335 0.929 . S
C2344 C2336 1.378 . S
C2344 C2339 1.350 . S
C2345 H2332 0.929 . S
C2345 C2337 1.433 . S
C2345 N2347 1.384 . S
N2346 C2342 1.427 . S
N2346 C2343 1.384 . S
N2347 C2339 1.427 . S
N2347 C2345 1.384 . S
H2348 C2354 0.930 . S
H2349 C2358 0.930 . S
H2350 C2363 0.929 . S
H2351 C2361 0.929 . S
H2352 C2356 0.929 . S
H2353 C2362 0.929 . S
C2354 H2348 0.930 . S
C2354 C2355 1.367 . S
C2354 C2362 1.378 . S
C2355 C2354 1.367 . S
C2355 C2363 1.433 . S
C2356 H2352 0.929 . S
C2356 C2358 1.378 . S
C2356 C2360 1.350 . S
C2357 C2360 1.463 . S
C2357 C2362 1.350 . S
C2357 N2365 1.427 . S
C2358 H2349 0.930 . S
C2358 C2356 1.378 . S
C2358 C2359 1.367 . S
C2359 C2358 1.367 . S
C2359 C2361 1.433 . S
C2360 C2356 1.350 . S
C2360 C2357 1.463 . S
C2360 N2364 1.427 . S
C2361 H2351 0.929 . S
C2361 C2359 1.433 . S
C2361 N2364 1.384 . S
C2362 H2353 0.929 . S
C2362 C2354 1.378 . S
C2362 C2357 1.350 . S
C2363 H2350 0.929 . S
C2363 C2355 1.433 . S
C2363 N2365 1.384 . S
N2364 C2360 1.427 . S
N2364 C2361 1.384 . S
N2365 C2357 1.427 . S
N2365 C2363 1.384 . S
H2366 C2372 0.930 . S
H2367 C2376 0.930 . S
H2368 C2381 0.929 . S
H2369 C2379 0.929 . S
H2370 C2374 0.929 . S
H2371 C2380 0.929 . S
C2372 H2366 0.930 . S
C2372 C2373 1.367 . S
C2372 C2380 1.378 . S
C2373 C2372 1.367 . S
C2373 C2381 1.433 . S
C2374 H2370 0.929 . S
C2374 C2376 1.378 . S
C2374 C2378 1.350 . S
C2375 C2378 1.463 . S
C2375 C2380 1.350 . S
C2375 N2383 1.427 . S
C2376 H2367 0.930 . S
C2376 C2374 1.378 . S
C2376 C2377 1.367 . S
C2377 C2376 1.367 . S
C2377 C2379 1.433 . S
C2378 C2374 1.350 . S
C2378 C2375 1.463 . S
C2378 N2382 1.427 . S
C2379 H2369 0.929 . S
C2379 C2377 1.433 . S
C2379 N2382 1.384 . S
C2380 H2371 0.929 . S
C2380 C2372 1.378 . S
C2380 C2375 1.350 . S
C2381 H2368 0.929 . S
C2381 C2373 1.433 . S
C2381 N2383 1.384 . S
N2382 C2378 1.427 . S
N2382 C2379 1.384 . S
N2383 C2375 1.427 . S
N2383 C2381 1.384 . S
H2384 C2390 0.930 . S
H2385 C2394 0.930 . S
H2386 C2399 0.929 . S
H2387 C2397 0.929 . S
H2388 C2392 0.929 . S
H2389 C2398 0.929 . S
C2390 H2384 0.930 . S
C2390 C2391 1.367 . S
C2390 C2398 1.378 . S
C2391 C2390 1.367 . S
C2391 C2399 1.433 . S
C2392 H2388 0.929 . S
C2392 C2394 1.378 . S
C2392 C2396 1.350 . S
C2393 C2396 1.463 . S
C2393 C2398 1.350 . S
C2393 N2401 1.427 . S
C2394 H2385 0.930 . S
C2394 C2392 1.378 . S
C2394 C2395 1.367 . S
C2395 C2394 1.367 . S
C2395 C2397 1.433 . S
C2396 C2392 1.350 . S
C2396 C2393 1.463 . S
C2396 N2400 1.427 . S
C2397 H2387 0.929 . S
C2397 C2395 1.433 . S
C2397 N2400 1.384 . S
C2398 H2389 0.929 . S
C2398 C2390 1.378 . S
C2398 C2393 1.350 . S
C2399 H2386 0.929 . S
C2399 C2391 1.433 . S
C2399 N2401 1.384 . S
N2400 C2396 1.427 . S
N2400 C2397 1.384 . S
N2401 C2393 1.427 . S
N2401 C2399 1.384 . S
H2402 C2408 0.930 . S
H2403 C2412 0.930 . S
H2404 C2417 0.929 . S
H2405 C2415 0.929 . S
H2406 C2410 0.929 . S
H2407 C2416 0.929 . S
C2408 H2402 0.930 . S
C2408 C2409 1.367 . S
C2408 C2416 1.378 . S
C2409 C2408 1.367 . S
C2409 C2417 1.433 . S
C2410 H2406 0.929 . S
C2410 C2412 1.378 . S
C2410 C2414 1.350 . S
C2411 C2414 1.463 . S
C2411 C2416 1.350 . S
C2411 N2419 1.427 . S
C2412 H2403 0.930 . S
C2412 C2410 1.378 . S
C2412 C2413 1.367 . S
C2413 C2412 1.367 . S
C2413 C2415 1.433 . S
C2414 C2410 1.350 . S
C2414 C2411 1.463 . S
C2414 N2418 1.427 . S
C2415 H2405 0.929 . S
C2415 C2413 1.433 . S
C2415 N2418 1.384 . S
C2416 H2407 0.929 . S
C2416 C2408 1.378 . S
C2416 C2411 1.350 . S
C2417 H2404 0.929 . S
C2417 C2409 1.433 . S
C2417 N2419 1.384 . S
N2418 C2414 1.427 . S
N2418 C2415 1.384 . S
N2419 C2411 1.427 . S
N2419 C2417 1.384 . S
H2420 C2426 0.930 . S
H2421 C2430 0.930 . S
H2422 C2435 0.929 . S
H2423 C2433 0.929 . S
H2424 C2428 0.929 . S
H2425 C2434 0.929 . S
C2426 H2420 0.930 . S
C2426 C2427 1.367 . S
C2426 C2434 1.378 . S
C2427 C2426 1.367 . S
C2427 C2435 1.433 . S
C2428 H2424 0.929 . S
C2428 C2430 1.378 . S
C2428 C2432 1.350 . S
C2429 C2432 1.463 . S
C2429 C2434 1.350 . S
C2429 N2437 1.427 . S
C2430 H2421 0.930 . S
C2430 C2428 1.378 . S
C2430 C2431 1.367 . S
C2431 C2430 1.367 . S
C2431 C2433 1.433 . S
C2432 C2428 1.350 . S
C2432 C2429 1.463 . S
C2432 N2436 1.427 . S
C2433 H2423 0.929 . S
C2433 C2431 1.433 . S
C2433 N2436 1.384 . S
C2434 H2425 0.929 . S
C2434 C2426 1.378 . S
C2434 C2429 1.350 . S
C2435 H2422 0.929 . S
C2435 C2427 1.433 . S
C2435 N2437 1.384 . S
N2436 C2432 1.427 . S
N2436 C2433 1.384 . S
N2437 C2429 1.427 . S
N2437 C2435 1.384 . S
H2438 C2444 0.930 . S
H2439 C2448 0.930 . S
H2440 C2453 0.929 . S
H2441 C2451 0.929 . S
H2442 C2446 0.929 . S
H2443 C2452 0.929 . S
C2444 H2438 0.930 . S
C2444 C2445 1.367 . S
C2444 C2452 1.378 . S
C2445 C2444 1.367 . S
C2445 C2453 1.433 . S
C2446 H2442 0.929 . S
C2446 C2448 1.378 . S
C2446 C2450 1.350 . S
C2447 C2450 1.463 . S
C2447 C2452 1.350 . S
C2447 N2455 1.427 . S
C2448 H2439 0.930 . S
C2448 C2446 1.378 . S
C2448 C2449 1.367 . S
C2449 C2448 1.367 . S
C2449 C2451 1.433 . S
C2450 C2446 1.350 . S
C2450 C2447 1.463 . S
C2450 N2454 1.427 . S
C2451 H2441 0.929 . S
C2451 C2449 1.433 . S
C2451 N2454 1.384 . S
C2452 H2443 0.929 . S
C2452 C2444 1.378 . S
C2452 C2447 1.350 . S
C2453 H2440 0.929 . S
C2453 C2445 1.433 . S
C2453 N2455 1.384 . S
N2454 C2450 1.427 . S
N2454 C2451 1.384 . S
N2455 C2447 1.427 . S
N2455 C2453 1.384 . S
H2456 C2462 0.930 . S
H2457 C2466 0.930 . S
H2458 C2471 0.929 . S
H2459 C2469 0.929 . S
H2460 C2464 0.929 . S
H2461 C2470 0.929 . S
C2462 H2456 0.930 . S
C2462 C2463 1.367 . S
C2462 C2470 1.378 . S
C2463 C2462 1.367 . S
C2463 C2471 1.433 . S
C2464 H2460 0.929 . S
C2464 C2466 1.378 . S
C2464 C2468 1.350 . S
C2465 C2468 1.463 . S
C2465 C2470 1.350 . S
C2465 N2473 1.427 . S
C2466 H2457 0.930 . S
C2466 C2464 1.378 . S
C2466 C2467 1.367 . S
C2467 C2466 1.367 . S
C2467 C2469 1.433 . S
C2468 C2464 1.350 . S
C2468 C2465 1.463 . S
C2468 N2472 1.427 . S
C2469 H2459 0.929 . S
C2469 C2467 1.433 . S
C2469 N2472 1.384 . S
C2470 H2461 0.929 . S
C2470 C2462 1.378 . S
C2470 C2465 1.350 . S
C2471 H2458 0.929 . S
C2471 C2463 1.433 . S
C2471 N2473 1.384 . S
N2472 C2468 1.427 . S
N2472 C2469 1.384 . S
N2473 C2465 1.427 . S
N2473 C2471 1.384 . S
H2474 C2480 0.930 . S
H2475 C2484 0.930 . S
H2476 C2489 0.929 . S
H2477 C2487 0.929 . S
H2478 C2482 0.929 . S
H2479 C2488 0.929 . S
C2480 H2474 0.930 . S
C2480 C2481 1.367 . S
C2480 C2488 1.378 . S
C2481 C2480 1.367 . S
C2481 C2489 1.433 . S
C2482 H2478 0.929 . S
C2482 C2484 1.378 . S
C2482 C2486 1.350 . S
C2483 C2486 1.463 . S
C2483 C2488 1.350 . S
C2483 N2491 1.427 . S
C2484 H2475 0.930 . S
C2484 C2482 1.378 . S
C2484 C2485 1.367 . S
C2485 C2484 1.367 . S
C2485 C2487 1.433 . S
C2486 C2482 1.350 . S
C2486 C2483 1.463 . S
C2486 N2490 1.427 . S
C2487 H2477 0.929 . S
C2487 C2485 1.433 . S
C2487 N2490 1.384 . S
C2488 H2479 0.929 . S
C2488 C2480 1.378 . S
C2488 C2483 1.350 . S
C2489 H2476 0.929 . S
C2489 C2481 1.433 . S
C2489 N2491 1.384 . S
N2490 C2486 1.427 . S
N2490 C2487 1.384 . S
N2491 C2483 1.427 . S
N2491 C2489 1.384 . S
H2492 C2498 0.930 . S
H2493 C2502 0.930 . S
H2494 C2507 0.929 . S
H2495 C2505 0.929 . S
H2496 C2500 0.929 . S
H2497 C2506 0.929 . S
C2498 H2492 0.930 . S
C2498 C2499 1.367 . S
C2498 C2506 1.378 . S
C2499 C2498 1.367 . S
C2499 C2507 1.433 . S
C2500 H2496 0.929 . S
C2500 C2502 1.378 . S
C2500 C2504 1.350 . S
C2501 C2504 1.463 . S
C2501 C2506 1.350 . S
C2501 N2509 1.427 . S
C2502 H2493 0.930 . S
C2502 C2500 1.378 . S
C2502 C2503 1.367 . S
C2503 C2502 1.367 . S
C2503 C2505 1.433 . S
C2504 C2500 1.350 . S
C2504 C2501 1.463 . S
C2504 N2508 1.427 . S
C2505 H2495 0.929 . S
C2505 C2503 1.433 . S
C2505 N2508 1.384 . S
C2506 H2497 0.929 . S
C2506 C2498 1.378 . S
C2506 C2501 1.350 . S
C2507 H2494 0.929 . S
C2507 C2499 1.433 . S
C2507 N2509 1.384 . S
N2508 C2504 1.427 . S
N2508 C2505 1.384 . S
N2509 C2501 1.427 . S
N2509 C2507 1.384 . S
H2510 C2516 0.930 . S
H2511 C2520 0.930 . S
H2512 C2525 0.929 . S
H2513 C2523 0.929 . S
H2514 C2518 0.929 . S
H2515 C2524 0.929 . S
C2516 H2510 0.930 . S
C2516 C2517 1.367 . S
C2516 C2524 1.378 . S
C2517 C2516 1.367 . S
C2517 C2525 1.433 . S
C2518 H2514 0.929 . S
C2518 C2520 1.378 . S
C2518 C2522 1.350 . S
C2519 C2522 1.463 . S
C2519 C2524 1.350 . S
C2519 N2527 1.427 . S
C2520 H2511 0.930 . S
C2520 C2518 1.378 . S
C2520 C2521 1.367 . S
C2521 C2520 1.367 . S
C2521 C2523 1.433 . S
C2522 C2518 1.350 . S
C2522 C2519 1.463 . S
C2522 N2526 1.427 . S
C2523 H2513 0.929 . S
C2523 C2521 1.433 . S
C2523 N2526 1.384 . S
C2524 H2515 0.929 . S
C2524 C2516 1.378 . S
C2524 C2519 1.350 . S
C2525 H2512 0.929 . S
C2525 C2517 1.433 . S
C2525 N2527 1.384 . S
N2526 C2522 1.427 . S
N2526 C2523 1.384 . S
N2527 C2519 1.427 . S
N2527 C2525 1.384 . S
C1095 C145 1.418 . S
C1099 C9 1.420 . S
C1113 C43 1.417 . S
C1117 C179 1.415 . S
C1131 C77 1.417 . S
C1135 C213 1.419 . S
C1149 C111 1.402 . S
C1153 C247 1.401 . S
C1167 C281 1.402 . S
C1171 C417 1.403 . S
C1185 C451 1.414 . S
C1189 C315 1.416 . S
C1203 C349 1.420 . S
C1207 C485 1.418 . S
C1221 C519 1.411 . S
C1225 C383 1.408 . S
C1239 C553 1.405 . S
C1243 C689 1.403 . S
C1257 C587 1.401 . S
C1261 C723 1.401 . S
C1275 C757 1.403 . S
C1279 C621 1.401 . S
C1293 C791 1.402 . S
C1297 C655 1.401 . S
C1311 C825 1.403 . S
C1315 C961 1.404 . S
C1329 C859 1.415 . S
C1333 C995 1.417 . S
C1347 C1029 1.421 . S
C1351 C893 1.420 . S
C1365 C927 1.411 . S
C1369 C1063 1.413 . S
C1383 C33 0.663 . S
C1387 C645 0.662 . S
C1401 C67 0.681 . S
C1405 C679 0.678 . S
C1419 C101 0.670 . S
C1423 C577 0.667 . S
C1437 C135 0.683 . S
C1441 C611 0.680 . S
C1455 C169 0.664 . S
C1459 C781 0.666 . S
C1473 C815 0.663 . S
C1477 C203 0.665 . S
C1491 C237 0.679 . S
C1495 C713 0.682 . S
C1509 C271 0.676 . S
C1513 C747 0.679 . S
C1527 C917 0.691 . S
C1531 C305 0.691 . S
C1545 C339 0.684 . S
C1549 C951 0.682 . S
C1563 C849 0.663 . S
C1567 C373 0.664 . S
C1581 C407 0.682 . S
C1585 C883 0.679 . S
C1599 C441 0.682 . S
C1603 C1053 0.679 . S
C1617 C1087 0.679 . S
C1621 C475 0.676 . S
C1635 C509 0.681 . S
C1639 C985 0.684 . S
C1653 C543 0.690 . S
C1657 C1019 0.691 . S
C1671 C20 1.455 . S
C1675 C478 1.442 . S
C1689 C1056 1.443 . S
C1693 C54 1.454 1_545 S
C1707 C410 1.446 1_455 S
C1711 C88 1.450 . S
C1725 C988 1.446 . S
C1729 C122 1.451 1_565 S
C1743 C156 1.453 . S
C1747 C342 1.442 . S
C1761 C190 1.453 1_545 S
C1765 C920 1.446 . S
C1779 C224 1.454 . S
C1783 C274 1.445 1_455 S
C1797 C852 1.447 . S
C1801 C258 1.453 1_565 S
C1815 C206 1.442 . S
C1819 C292 1.455 . S
C1833 C784 1.446 . S
C1837 C326 1.453 1_565 S
C1851 C360 1.451 . S
C1855 C138 1.440 1_655 S
C1869 C394 1.454 1_545 S
C1873 C716 1.443 . S
C1887 C428 1.452 . S
C1891 C70 1.444 . S
C1905 C648 1.445 . S
C1909 C462 1.453 1_565 S
C1923 C496 1.451 . S
C1927 C2 1.442 1_655 S
C1941 C580 1.441 . S
C1945 C530 1.452 1_545 S
C1959 C1022 1.442 1_655 S
C1963 C564 1.452 . S
C1977 C598 1.453 . S
C1981 C512 1.447 . S
C1995 C954 1.444 . S
C1999 C632 1.451 . S
C2013 C444 1.446 . S
C2017 C666 1.454 . S
C2031 C700 1.451 . S
C2035 C886 1.442 1_655 S
C2049 C376 1.445 . S
C2053 C734 1.450 . S
C2067 C818 1.442 . S
C2071 C768 1.454 . S
C2085 C802 1.454 . S
C2089 C308 1.442 . S
C2103 C836 1.451 . S
C2107 C750 1.445 1_455 S
C2121 C240 1.447 . S
C2125 C870 1.453 . S
C2139 C904 1.451 . S
C2143 C682 1.447 . S
C2157 C172 1.440 . S
C2161 C938 1.453 . S
C2175 C972 1.454 . S
C2179 C614 1.443 1_455 S
C2193 C1006 1.454 . S
C2197 C104 1.444 . S
C2211 C546 1.443 . S
C2215 C1040 1.450 . S
C2229 C36 1.442 . S
C2233 C1074 1.452 . S
C2247 C243 1.592 . S
C2251 C5 1.590 . S
C2265 C141 1.589 . S
C2269 C39 1.593 . S
C2283 C175 1.592 . S
C2287 C73 1.589 . S
C2301 C107 1.592 . S
C2305 C209 1.588 . S
C2319 C515 1.587 . S
C2323 C277 1.589 . S
C2337 C311 1.592 . S
C2341 C413 1.591 . S
C2355 C447 1.587 . S
C2359 C345 1.589 . S
C2373 C481 1.588 . S
C2377 C379 1.592 . S
C2391 C787 1.593 . S
C2395 C549 1.589 . S
C2409 C583 1.592 . S
C2413 C685 1.589 . S
C2427 C719 1.592 . S
C2431 C617 1.592 . S
C2445 C753 1.591 . S
C2449 C651 1.593 . S
C2463 C821 1.589 . S
C2467 C1059 1.588 . S
C2481 C957 1.591 . S
C2485 C855 1.591 . S
C2499 C889 1.588 . S
C2503 C991 1.592 . S
C2517 C1025 1.588 . S
C2521 C923 1.592 . S
