# Generated by pormake.
# Topology wgp, (5)-cn, num edge types: 1
# Building blocks:
#     Node 0, Type 0, BuildingBlock: XOMCOT_clean_sbu_0, # of connection points: 5
#     Node 1, Type 0, BuildingBlock: XOMCOT_clean_sbu_0, # of connection points: 5
#     Node 2, Type 0, BuildingBlock: XOMCOT_clean_sbu_0, # of connection points: 5
#     Node 3, Type 0, BuildingBlock: XOMCOT_clean_sbu_0, # of connection points: 5
#     Node 4, Type 0, BuildingBlock: XOMCOT_clean_sbu_0, # of connection points: 5
#     Node 5, Type 0, BuildingBlock: XOMCOT_clean_sbu_0, # of connection points: 5
#     Node 6, Type 0, BuildingBlock: XOMCOT_clean_sbu_0, # of connection points: 5
#     Node 7, Type 0, BuildingBlock: XOMCOT_clean_sbu_0, # of connection points: 5
#     Node 8, Type 0, BuildingBlock: XOMCOT_clean_sbu_0, # of connection points: 5
#     Node 9, Type 0, BuildingBlock: XOMCOT_clean_sbu_0, # of connection points: 5
#     Node 10, Type 0, BuildingBlock: XOMCOT_clean_sbu_0, # of connection points: 5
#     Node 11, Type 0, BuildingBlock: XOMCOT_clean_sbu_0, # of connection points: 5
#     Node 12, Type 0, BuildingBlock: XOMCOT_clean_sbu_0, # of connection points: 5
#     Node 13, Type 0, BuildingBlock: XOMCOT_clean_sbu_0, # of connection points: 5
#     Node 14, Type 0, BuildingBlock: XOMCOT_clean_sbu_0, # of connection points: 5
#     Node 15, Type 0, BuildingBlock: XOMCOT_clean_sbu_0, # of connection points: 5
#     Node 16, Type 0, BuildingBlock: XOMCOT_clean_sbu_0, # of connection points: 5
#     Node 17, Type 0, BuildingBlock: XOMCOT_clean_sbu_0, # of connection points: 5
#     Node 18, Type 0, BuildingBlock: XOMCOT_clean_sbu_0, # of connection points: 5
#     Node 19, Type 0, BuildingBlock: XOMCOT_clean_sbu_0, # of connection points: 5
#     Node 20, Type 0, BuildingBlock: XOMCOT_clean_sbu_0, # of connection points: 5
#     Node 21, Type 0, BuildingBlock: XOMCOT_clean_sbu_0, # of connection points: 5
#     Node 22, Type 0, BuildingBlock: XOMCOT_clean_sbu_0, # of connection points: 5
#     Node 23, Type 0, BuildingBlock: XOMCOT_clean_sbu_0, # of connection points: 5
#     Node 24, Type 0, BuildingBlock: XOMCOT_clean_sbu_0, # of connection points: 5
#     Node 25, Type 0, BuildingBlock: XOMCOT_clean_sbu_0, # of connection points: 5
#     Node 26, Type 0, BuildingBlock: XOMCOT_clean_sbu_0, # of connection points: 5
#     Node 27, Type 0, BuildingBlock: XOMCOT_clean_sbu_0, # of connection points: 5
#     Node 28, Type 0, BuildingBlock: XOMCOT_clean_sbu_0, # of connection points: 5
#     Node 29, Type 0, BuildingBlock: XOMCOT_clean_sbu_0, # of connection points: 5
#     Node 30, Type 0, BuildingBlock: XOMCOT_clean_sbu_0, # of connection points: 5
#     Node 31, Type 0, BuildingBlock: XOMCOT_clean_sbu_0, # of connection points: 5
#     Edge 32, Type (0, 0), BuildingBlock: XIVTED_clean_linker_0, # of connection points: 2
#     Edge 33, Type (0, 0), BuildingBlock: XIVTED_clean_linker_0, # of connection points: 2
#     Edge 34, Type (0, 0), BuildingBlock: XIVTED_clean_linker_0, # of connection points: 2
#     Edge 35, Type (0, 0), BuildingBlock: XIVTED_clean_linker_0, # of connection points: 2
#     Edge 36, Type (0, 0), BuildingBlock: XIVTED_clean_linker_0, # of connection points: 2
#     Edge 37, Type (0, 0), BuildingBlock: XIVTED_clean_linker_0, # of connection points: 2
#     Edge 38, Type (0, 0), BuildingBlock: XIVTED_clean_linker_0, # of connection points: 2
#     Edge 39, Type (0, 0), BuildingBlock: XIVTED_clean_linker_0, # of connection points: 2
#     Edge 40, Type (0, 0), BuildingBlock: XIVTED_clean_linker_0, # of connection points: 2
#     Edge 41, Type (0, 0), BuildingBlock: XIVTED_clean_linker_0, # of connection points: 2
#     Edge 42, Type (0, 0), BuildingBlock: XIVTED_clean_linker_0, # of connection points: 2
#     Edge 43, Type (0, 0), BuildingBlock: XIVTED_clean_linker_0, # of connection points: 2
#     Edge 44, Type (0, 0), BuildingBlock: XIVTED_clean_linker_0, # of connection points: 2
#     Edge 45, Type (0, 0), BuildingBlock: XIVTED_clean_linker_0, # of connection points: 2
#     Edge 46, Type (0, 0), BuildingBlock: XIVTED_clean_linker_0, # of connection points: 2
#     Edge 47, Type (0, 0), BuildingBlock: XIVTED_clean_linker_0, # of connection points: 2
#     Edge 48, Type (0, 0), BuildingBlock: XIVTED_clean_linker_0, # of connection points: 2
#     Edge 49, Type (0, 0), BuildingBlock: XIVTED_clean_linker_0, # of connection points: 2
#     Edge 50, Type (0, 0), BuildingBlock: XIVTED_clean_linker_0, # of connection points: 2
#     Edge 51, Type (0, 0), BuildingBlock: XIVTED_clean_linker_0, # of connection points: 2
#     Edge 52, Type (0, 0), BuildingBlock: XIVTED_clean_linker_0, # of connection points: 2
#     Edge 53, Type (0, 0), BuildingBlock: XIVTED_clean_linker_0, # of connection points: 2
#     Edge 54, Type (0, 0), BuildingBlock: XIVTED_clean_linker_0, # of connection points: 2
#     Edge 55, Type (0, 0), BuildingBlock: XIVTED_clean_linker_0, # of connection points: 2
#     Edge 56, Type (0, 0), BuildingBlock: XIVTED_clean_linker_0, # of connection points: 2
#     Edge 57, Type (0, 0), BuildingBlock: XIVTED_clean_linker_0, # of connection points: 2
#     Edge 58, Type (0, 0), BuildingBlock: XIVTED_clean_linker_0, # of connection points: 2
#     Edge 59, Type (0, 0), BuildingBlock: XIVTED_clean_linker_0, # of connection points: 2
#     Edge 60, Type (0, 0), BuildingBlock: XIVTED_clean_linker_0, # of connection points: 2
#     Edge 61, Type (0, 0), BuildingBlock: XIVTED_clean_linker_0, # of connection points: 2
#     Edge 62, Type (0, 0), BuildingBlock: XIVTED_clean_linker_0, # of connection points: 2
#     Edge 63, Type (0, 0), BuildingBlock: XIVTED_clean_linker_0, # of connection points: 2
#     Edge 64, Type (0, 0), BuildingBlock: XIVTED_clean_linker_0, # of connection points: 2
#     Edge 65, Type (0, 0), BuildingBlock: XIVTED_clean_linker_0, # of connection points: 2
#     Edge 66, Type (0, 0), BuildingBlock: XIVTED_clean_linker_0, # of connection points: 2
#     Edge 67, Type (0, 0), BuildingBlock: XIVTED_clean_linker_0, # of connection points: 2
#     Edge 68, Type (0, 0), BuildingBlock: XIVTED_clean_linker_0, # of connection points: 2
#     Edge 69, Type (0, 0), BuildingBlock: XIVTED_clean_linker_0, # of connection points: 2
#     Edge 70, Type (0, 0), BuildingBlock: XIVTED_clean_linker_0, # of connection points: 2
#     Edge 71, Type (0, 0), BuildingBlock: XIVTED_clean_linker_0, # of connection points: 2
#     Edge 72, Type (0, 0), BuildingBlock: XIVTED_clean_linker_0, # of connection points: 2
#     Edge 73, Type (0, 0), BuildingBlock: XIVTED_clean_linker_0, # of connection points: 2
#     Edge 74, Type (0, 0), BuildingBlock: XIVTED_clean_linker_0, # of connection points: 2
#     Edge 75, Type (0, 0), BuildingBlock: XIVTED_clean_linker_0, # of connection points: 2
#     Edge 76, Type (0, 0), BuildingBlock: XIVTED_clean_linker_0, # of connection points: 2
#     Edge 77, Type (0, 0), BuildingBlock: XIVTED_clean_linker_0, # of connection points: 2
#     Edge 78, Type (0, 0), BuildingBlock: XIVTED_clean_linker_0, # of connection points: 2
#     Edge 79, Type (0, 0), BuildingBlock: XIVTED_clean_linker_0, # of connection points: 2
#     Edge 80, Type (0, 0), BuildingBlock: XIVTED_clean_linker_0, # of connection points: 2
#     Edge 81, Type (0, 0), BuildingBlock: XIVTED_clean_linker_0, # of connection points: 2
#     Edge 82, Type (0, 0), BuildingBlock: XIVTED_clean_linker_0, # of connection points: 2
#     Edge 83, Type (0, 0), BuildingBlock: XIVTED_clean_linker_0, # of connection points: 2
#     Edge 84, Type (0, 0), BuildingBlock: XIVTED_clean_linker_0, # of connection points: 2
#     Edge 85, Type (0, 0), BuildingBlock: XIVTED_clean_linker_0, # of connection points: 2
#     Edge 86, Type (0, 0), BuildingBlock: XIVTED_clean_linker_0, # of connection points: 2
#     Edge 87, Type (0, 0), BuildingBlock: XIVTED_clean_linker_0, # of connection points: 2
#     Edge 88, Type (0, 0), BuildingBlock: XIVTED_clean_linker_0, # of connection points: 2
#     Edge 89, Type (0, 0), BuildingBlock: XIVTED_clean_linker_0, # of connection points: 2
#     Edge 90, Type (0, 0), BuildingBlock: XIVTED_clean_linker_0, # of connection points: 2
#     Edge 91, Type (0, 0), BuildingBlock: XIVTED_clean_linker_0, # of connection points: 2
#     Edge 92, Type (0, 0), BuildingBlock: XIVTED_clean_linker_0, # of connection points: 2
#     Edge 93, Type (0, 0), BuildingBlock: XIVTED_clean_linker_0, # of connection points: 2
#     Edge 94, Type (0, 0), BuildingBlock: XIVTED_clean_linker_0, # of connection points: 2
#     Edge 95, Type (0, 0), BuildingBlock: XIVTED_clean_linker_0, # of connection points: 2
#     Edge 96, Type (0, 0), BuildingBlock: XIVTED_clean_linker_0, # of connection points: 2
#     Edge 97, Type (0, 0), BuildingBlock: XIVTED_clean_linker_0, # of connection points: 2
#     Edge 98, Type (0, 0), BuildingBlock: XIVTED_clean_linker_0, # of connection points: 2
#     Edge 99, Type (0, 0), BuildingBlock: XIVTED_clean_linker_0, # of connection points: 2
#     Edge 100, Type (0, 0), BuildingBlock: XIVTED_clean_linker_0, # of connection points: 2
#     Edge 101, Type (0, 0), BuildingBlock: XIVTED_clean_linker_0, # of connection points: 2
#     Edge 102, Type (0, 0), BuildingBlock: XIVTED_clean_linker_0, # of connection points: 2
#     Edge 103, Type (0, 0), BuildingBlock: XIVTED_clean_linker_0, # of connection points: 2
#     Edge 104, Type (0, 0), BuildingBlock: XIVTED_clean_linker_0, # of connection points: 2
#     Edge 105, Type (0, 0), BuildingBlock: XIVTED_clean_linker_0, # of connection points: 2
#     Edge 106, Type (0, 0), BuildingBlock: XIVTED_clean_linker_0, # of connection points: 2
#     Edge 107, Type (0, 0), BuildingBlock: XIVTED_clean_linker_0, # of connection points: 2
#     Edge 108, Type (0, 0), BuildingBlock: XIVTED_clean_linker_0, # of connection points: 2
#     Edge 109, Type (0, 0), BuildingBlock: XIVTED_clean_linker_0, # of connection points: 2
#     Edge 110, Type (0, 0), BuildingBlock: XIVTED_clean_linker_0, # of connection points: 2
#     Edge 111, Type (0, 0), BuildingBlock: XIVTED_clean_linker_0, # of connection points: 2
# Relax obj value: 0.158
# Max RMSD: 0.189
# Mean RMSD: 0.189
data_MOF--net-wgp--node1-XOMCOT_clean_sbu_0--edge1-XIVTED_clean_linker_0
_symmetry_space_group_name_H-M    P1
_symmetry_Int_Tables_number       1
_symmetry_cell_setting            triclinic
loop_
_symmetry_equiv_pos_as_xyz
'x, y, z'
_cell_length_a     34.508675
_cell_length_b     34.531965
_cell_length_c     117.82855
_cell_angle_alpha  90.035193
_cell_angle_beta   90.034135
_cell_angle_gamma 89.966717
loop_
_atom_site_label
_atom_site_type_symbol
_atom_site_fract_x
_atom_site_fract_y
_atom_site_fract_z
_atom_type_partial_charge
Co0 Co 0.28877 0.17226 0.08077 0.0
C1 C 0.30373 0.09012 0.07717 0.0
C2 C 0.34543 0.11447 0.08864 0.0
C3 C 0.34909 0.07461 0.08879 0.0
N4 N 0.31683 0.12399 0.08138 0.0
N5 N 0.32267 0.05947 0.0816 0.0
H6 H 0.27828 0.08776 0.07184 0.0
H7 H 0.36033 0.13474 0.09412 0.0
C8 C 0.34981 0.23231 0.07552 0.0
O9 O 0.32519 0.24878 0.06851 0.0
N10 N 0.25877 0.2202 0.08035 0.0
C11 C 0.22234 0.22342 0.07626 0.0
C12 C 0.20826 0.25961 0.07857 0.0
C13 C 0.26579 0.25475 0.08546 0.0
N14 N 0.23548 0.27938 0.08432 0.0
C15 C 0.25339 0.15649 0.05934 0.0
C16 C 0.31678 0.16972 0.04566 0.0
C17 C 0.28088 0.16155 0.04055 0.0
C18 C 0.24942 0.15343 0.04764 0.0
C19 C 0.31964 0.17159 0.05753 0.0
N20 N 0.28743 0.16793 0.0642 0.0
H21 H 0.2288 0.14864 0.06444 0.0
H22 H 0.34791 0.17554 0.06123 0.0
H23 H 0.2058 0.2007 0.07232 0.0
H24 H 0.29193 0.26143 0.09014 0.0
O25 O 0.24195 0.14417 0.08407 0.0
O26 O 0.28065 0.16933 0.09709 0.0
O27 O 0.33997 0.20156 0.08086 0.0
C28 C 0.24971 0.14923 0.09473 0.0
H29 H 0.36828 0.05803 0.0942 0.0
H30 H 0.17995 0.27057 0.07624 0.0
H31 H 0.34243 0.17489 0.04061 0.0
H32 H 0.22178 0.14418 0.04424 0.0
Co33 Co 0.09266 0.05222 0.32906 0.0
C34 C 0.17833 0.0527 0.33163 0.0
C35 C 0.15316 0.10355 0.33886 0.0
C36 C 0.19218 0.1031 0.34143 0.0
N37 N 0.1445 0.07251 0.33234 0.0
N38 N 0.20786 0.07084 0.33692 0.0
H39 H 0.18105 0.02411 0.32808 0.0
H40 H 0.13225 0.12385 0.34222 0.0
C41 C 0.08466 0.13613 0.32411 0.0
O42 O 0.11608 0.13141 0.31796 0.0
N43 N 0.04206 0.03009 0.32615 0.0
C44 C 0.03628 1.00004 0.31903 0.0
C45 C 0.99764 0.99111 0.31884 0.0
C46 C 0.00672 0.03855 0.33047 0.0
N47 N 0.97917 0.0151 0.32602 0.0
C48 C 0.12924 0.03282 0.30786 0.0
C49 C 0.07338 0.06586 0.29413 0.0
C50 C 0.10269 0.04349 0.28918 0.0
C51 C 0.13133 0.02762 0.29616 0.0
C52 C 0.07278 0.07098 0.30589 0.0
N53 N 0.10053 0.05453 0.31266 0.0
H54 H 0.14897 0.01658 0.31301 0.0
H55 H 0.04843 0.08603 0.3096 0.0
H56 H 0.05881 0.98564 0.31424 0.0
H57 H 1.00126 0.06127 0.3366 0.0
O58 O 0.11196 1.00078 0.33162 0.0
O59 O 0.08836 0.03939 0.345 0.0
O60 O 0.07011 0.10691 0.32932 0.0
C61 C 0.10476 0.00658 0.34231 0.0
H62 H 0.20724 0.12365 0.34678 0.0
H63 H 0.98402 0.96844 0.31389 0.0
H64 H 0.05038 0.07814 0.28901 0.0
H65 H 0.15367 0.00902 0.29268 0.0
Co66 Co 0.2112 0.84365 0.57718 0.0
C67 C 0.20437 0.9295 0.57861 0.0
C68 C 0.15758 0.90096 0.58704 0.0
C69 C 0.15517 0.94001 0.58929 0.0
N70 N 0.18784 0.89427 0.58005 0.0
N71 N 0.18484 0.9579 0.58404 0.0
H72 H 0.23163 0.93422 0.57442 0.0
H73 H 0.13998 0.87873 0.59093 0.0
C74 C 0.12788 0.83244 0.57203 0.0
O75 O 0.13176 0.86396 0.56588 0.0
N76 N 0.23613 0.79411 0.57475 0.0
C77 C 0.26721 0.78944 0.56795 0.0
C78 C 0.28178 0.75291 0.56942 0.0
C79 C 0.23225 0.76014 0.58035 0.0
N80 N 0.26008 0.73453 0.57723 0.0
C81 C 0.23321 0.87788 0.55588 0.0
C82 C 0.19784 0.82328 0.54225 0.0
C83 C 0.22172 0.85119 0.53717 0.0
C84 C 0.2391 0.87903 0.54418 0.0
C85 C 0.19318 0.82284 0.55401 0.0
N86 N 0.21007 0.85042 0.56072 0.0
H87 H 0.25008 0.89715 0.56105 0.0
H88 H 0.17767 0.79888 0.55773 0.0
H89 H 0.27952 0.81173 0.56263 0.0
H90 H 0.21102 0.75501 0.58694 0.0
O91 O 0.26135 0.86583 0.58011 0.0
O92 O 0.22279 0.84084 0.59325 0.0
O93 O 0.15756 0.8186 0.57722 0.0
C94 C 0.25503 0.85863 0.59076 0.0
H95 H 0.13471 0.95372 0.59498 0.0
H96 H 0.30701 0.74097 0.56522 0.0
H97 H 0.18383 0.80101 0.53724 0.0
H98 H 0.2591 0.90018 0.54077 0.0
Co99 Co 0.41903 0.95726 0.8285 0.0
C100 C 0.33409 0.95237 0.83204 0.0
C101 C 0.36272 0.90353 0.83935 0.0
C102 C 0.324 0.9021 0.84227 0.0
N103 N 0.36897 0.93446 0.83257 0.0
N104 N 0.30619 0.93314 0.83772 0.0
H105 H 0.32939 0.98043 0.82832 0.0
H106 H 0.38506 0.88455 0.84259 0.0
C107 C 0.42998 0.87358 0.82376 0.0
O108 O 0.39756 0.87714 0.81798 0.0
N109 N 0.4676 0.98236 0.82471 0.0
C110 C 0.46858 0.01414 0.8181 0.0
C111 C 0.50595 0.02646 0.81708 0.0
C112 C 0.50492 0.97584 0.82776 0.0
N113 N 0.52911 1.00248 0.82306 0.0
C114 C 0.37871 0.97366 0.80756 0.0
C115 C 0.43442 0.94205 0.79351 0.0
C116 C 0.4037 0.96279 0.78863 0.0
C117 C 0.37516 0.97793 0.79583 0.0
C118 C 0.43662 0.93807 0.80527 0.0
N119 N 0.40887 0.95359 0.81221 0.0
H120 H 0.35864 0.98913 0.8128 0.0
H121 H 0.46215 0.92464 0.80883 0.0
H122 H 0.44347 0.02777 0.81433 0.0
H123 H 0.51407 0.95239 0.83323 0.0
O124 O 0.39718 0.00775 0.83116 0.0
O125 O 0.42528 0.97149 0.84433 0.0
O126 O 0.44436 0.90355 0.82868 0.0
C127 C 0.40685 1.00329 0.84173 0.0
H128 H 0.31054 0.88119 0.84785 0.0
H129 H 0.51511 0.052 0.8125 0.0
H130 H 0.45789 0.93087 0.78837 0.0
H131 H 0.35096 0.99432 0.79249 0.0
Co132 Co 0.29234 0.83215 0.41407 0.0
C133 C 0.31041 0.91255 0.41902 0.0
C134 C 0.35202 0.88851 0.40748 0.0
C135 C 0.35634 0.92828 0.40765 0.0
N136 N 0.32294 0.87887 0.41456 0.0
N137 N 0.32989 0.94322 0.41486 0.0
H138 H 0.28455 0.91488 0.42418 0.0
H139 H 0.36635 0.86857 0.40177 0.0
C140 C 0.35401 0.77549 0.42133 0.0
O141 O 0.33064 0.76368 0.42942 0.0
N142 N 0.25934 0.78565 0.4131 0.0
C143 C 0.22027 0.78713 0.41203 0.0
C144 C 0.20549 0.75067 0.41146 0.0
C145 C 0.26755 0.74713 0.41268 0.0
N146 N 0.23493 0.7253 0.41204 0.0
C147 C 0.25406 0.82773 0.43558 0.0
C148 C 0.3181 0.84274 0.44898 0.0
C149 C 0.28231 0.83548 0.45415 0.0
C150 C 0.25005 0.82823 0.44732 0.0
C151 C 0.32104 0.84116 0.43714 0.0
N152 N 0.28941 0.83248 0.43059 0.0
H153 H 0.22834 0.82439 0.43055 0.0
H154 H 0.34883 0.84663 0.43322 0.0
H155 H 0.20268 0.81296 0.41185 0.0
H156 H 0.29631 0.73498 0.41276 0.0
O157 O 0.24793 0.86413 0.41117 0.0
O158 O 0.28583 0.83926 0.39782 0.0
O159 O 0.34225 0.80065 0.41412 0.0
C160 C 0.25586 0.86054 0.40045 0.0
H161 H 0.37555 0.94502 0.4023 0.0
H162 H 0.17509 0.74346 0.41064 0.0
H163 H 0.34356 0.84906 0.45403 0.0
H164 H 0.22164 0.8239 0.45102 0.0
Co165 Co 0.42478 0.03765 0.66546 0.0
C166 C 0.34306 0.05701 0.66819 0.0
C167 C 0.37402 0.10467 0.66088 0.0
C168 C 0.33493 0.11301 0.66071 0.0
N169 N 0.37887 0.06946 0.66554 0.0
N170 N 0.31542 0.0827 0.66519 0.0
H171 H 0.3374 0.02833 0.67146 0.0
H172 H 0.39691 0.12204 0.65723 0.0
C173 C 0.48224 0.09787 0.67353 0.0
O174 O 0.494 0.07415 0.68155 0.0
N175 N 0.47062 0.00411 0.66504 0.0
C176 C 0.4693 0.96497 0.66474 0.0
C177 C 0.50585 0.95043 0.66371 0.0
C178 C 0.50872 0.01261 0.66369 0.0
N179 N 0.53087 0.9802 0.66316 0.0
C180 C 0.41998 0.99723 0.6865 0.0
C181 C 0.41369 0.06095 0.70055 0.0
C182 C 0.41529 0.02384 0.7054 0.0
C183 C 0.41737 0.9918 0.69815 0.0
C184 C 0.41598 0.06504 0.68873 0.0
N185 N 0.4214 0.03342 0.68191 0.0
H186 H 0.41983 0.97199 0.68118 0.0
H187 H 0.41395 0.09368 0.68508 0.0
H188 H 0.44348 0.94737 0.66496 0.0
H189 H 0.52014 0.04155 0.6629 0.0
O190 O 0.39286 0.99394 0.66173 0.0
O191 O 0.42032 0.03258 0.64906 0.0
O192 O 0.45728 0.08662 0.66621 0.0
C193 C 0.39841 1.00261 0.65115 0.0
H194 H 0.32201 0.1387 0.65707 0.0
H195 H 0.51316 0.92004 0.66307 0.0
H196 H 0.41119 0.08658 0.70579 0.0
H197 H 0.41635 0.9625 0.70141 0.0
Co198 Co 0.22685 0.16629 0.91636 0.0
C199 C 0.21599 0.08247 0.91633 0.0
C200 C 0.16798 0.11076 0.90824 0.0
C201 C 0.16407 0.07122 0.90685 0.0
N202 N 0.20056 0.11759 0.9142 0.0
N203 N 0.19459 0.05357 0.91184 0.0
H204 H 0.24333 0.07834 0.92065 0.0
H205 H 0.14966 0.13288 0.90458 0.0
C206 C 0.16465 0.22503 0.92193 0.0
O207 O 0.18951 0.24234 0.92869 0.0
N208 N 0.25506 0.21453 0.91837 0.0
C209 C 0.28754 0.21901 0.92462 0.0
C210 C 0.30247 0.25517 0.92277 0.0
C211 C 0.25128 0.24815 0.91255 0.0
N212 N 0.27976 0.27351 0.9152 0.0
C213 C 0.25972 0.14078 0.93738 0.0
C214 C 0.19916 0.16069 0.95146 0.0
C215 C 0.23439 0.14893 0.95636 0.0
C216 C 0.26408 0.13692 0.94906 0.0
C217 C 0.19572 0.16307 0.93963 0.0
N218 N 0.22702 0.15664 0.93277 0.0
H219 H 0.28367 0.13203 0.93212 0.0
H220 H 0.16778 0.17013 0.93617 0.0
H221 H 0.30098 0.19721 0.92982 0.0
H222 H 0.2288 0.25355 0.90633 0.0
O223 O 0.27518 0.14147 0.91262 0.0
O224 O 0.23633 0.1689 0.90007 0.0
O225 O 0.17463 0.19406 0.91669 0.0
C226 C 0.26809 0.14967 0.9021 0.0
H227 H 0.14174 0.05683 0.90197 0.0
H228 H 0.32832 0.26704 0.92665 0.0
H229 H 0.17462 0.16891 0.95664 0.0
H230 H 0.29095 0.12509 0.95231 0.0
Co231 Co 0.08449 0.95658 0.16752 0.0
C232 C 0.16754 0.94163 0.17102 0.0
C233 C 0.13984 0.89371 0.16272 0.0
C234 C 0.17932 0.88748 0.16274 0.0
N235 N 0.13257 0.92777 0.16786 0.0
N236 N 0.19671 0.91781 0.16789 0.0
H237 H 0.17176 0.97012 0.17464 0.0
H238 H 0.11833 0.87595 0.15854 0.0
C239 C 0.02852 0.89432 0.17466 0.0
O240 O 0.01471 0.91827 0.18233 0.0
N241 N 0.03625 0.9869 0.16682 0.0
C242 C 0.03455 0.02607 0.16704 0.0
C243 C 0.99725 0.03802 0.16529 0.0
C244 C 0.99925 0.97586 0.16449 0.0
N245 N 0.97498 0.00659 0.16373 0.0
C246 C 0.08707 0.99629 0.18869 0.0
C247 C 0.09598 0.93219 0.20248 0.0
C248 C 0.09562 0.96921 0.20733 0.0
C249 C 0.09142 1.00143 0.2003 0.0
C250 C 0.09233 0.92838 0.19069 0.0
N251 N 0.08628 0.9602 0.18399 0.0
H252 H 0.08591 0.0217 0.18347 0.0
H253 H 0.09481 0.89992 0.18694 0.0
H254 H 0.05887 0.04543 0.16799 0.0
H255 H 0.99025 0.94646 0.16285 0.0
O256 O 0.1138 1.00247 0.16426 0.0
O257 O 0.09015 0.96279 0.15119 0.0
O258 O 0.05503 0.90568 0.16785 0.0
C259 C 0.11002 0.9939 0.1536 0.0
H260 H 0.19417 0.86349 0.15874 0.0
H261 H 0.98723 0.06774 0.16513 0.0
H262 H 0.10016 0.90671 0.20769 0.0
H263 H 0.09176 0.03051 0.20377 0.0
Co264 Co 0.72352 0.83765 0.91412 0.0
C265 C 0.71044 0.91915 0.91916 0.0
C266 C 0.66619 0.89711 0.90811 0.0
C267 C 0.66327 0.93698 0.90847 0.0
N268 N 0.69597 0.88616 0.91477 0.0
N269 N 0.69133 0.95067 0.91538 0.0
H270 H 0.73696 0.9203 0.92407 0.0
H271 H 0.65004 0.87788 0.90262 0.0
C272 C 0.66098 0.78155 0.92087 0.0
O273 O 0.68555 0.76672 0.92821 0.0
N274 N 0.75298 0.78921 0.91306 0.0
C275 C 0.79214 0.78675 0.91338 0.0
C276 C 0.80351 0.74976 0.91093 0.0
C277 C 0.74137 0.75318 0.90995 0.0
N278 N 0.77168 0.72865 0.90881 0.0
C279 C 0.76317 0.83737 0.93544 0.0
C280 C 0.69888 0.84452 0.94921 0.0
C281 C 0.73566 0.84158 0.95427 0.0
C282 C 0.76802 0.83876 0.94715 0.0
C283 C 0.69539 0.84347 0.93737 0.0
N284 N 0.72722 0.83796 0.93064 0.0
H285 H 0.78871 0.83721 0.93025 0.0
H286 H 0.66705 0.84708 0.9336 0.0
H287 H 0.81192 0.81044 0.91481 0.0
H288 H 0.71183 0.74514 0.90805 0.0
O289 O 0.77002 0.86631 0.91094 0.0
O290 O 0.72959 0.84414 0.89784 0.0
O291 O 0.67186 0.80913 0.91435 0.0
C292 C 0.76121 0.86314 0.90027 0.0
H293 H 0.64357 0.95461 0.90353 0.0
H294 H 0.83302 0.73911 0.91072 0.0
H295 H 0.67298 0.84747 0.95432 0.0
H296 H 0.79718 0.83864 0.95055 0.0
Co297 Co 0.92608 0.97737 0.66488 0.0
C298 C 0.84165 0.96347 0.66266 0.0
C299 C 0.87428 0.91474 0.65683 0.0
C300 C 0.8356 0.90778 0.65477 0.0
N301 N 0.87805 0.94912 0.66221 0.0
N302 N 0.81529 0.93869 0.6584 0.0
H303 H 0.8344 0.99235 0.66536 0.0
H304 H 0.89803 0.8967 0.65403 0.0
C305 C 0.94372 0.89795 0.67287 0.0
O306 O 0.9119 0.90214 0.67888 0.0
N307 N 0.97289 0.00682 0.66711 0.0
C308 C 0.97345 0.04249 0.67177 0.0
C309 C 0.0104 0.05675 0.67125 0.0
C310 C 0.0097 0.99953 0.66389 0.0
N311 N 0.03308 0.02987 0.6663 0.0
C312 C 0.88588 1.00021 0.68529 0.0
C313 C 0.94312 0.97722 0.70024 0.0
C314 C 0.91009 0.9958 0.70449 0.0
C315 C 0.88119 0.00718 0.69686 0.0
C316 C 0.94643 0.9704 0.68859 0.0
N317 N 0.91748 0.98083 0.68125 0.0
H318 H 0.86517 0.01278 0.67961 0.0
H319 H 0.973 0.95783 0.68543 0.0
H320 H 0.94842 0.05733 0.67518 0.0
H321 H 0.01893 0.97332 0.65963 0.0
O322 O 0.90038 0.0245 0.6605 0.0
O323 O 0.92997 0.98477 0.64855 0.0
O324 O 0.95525 0.926 0.66656 0.0
C325 C 0.90987 0.01636 0.65011 0.0
H326 H 0.82355 0.88288 0.65045 0.0
H327 H 0.02003 0.08469 0.67433 0.0
H328 H 0.96648 0.96853 0.70583 0.0
H329 H 0.85601 0.02315 0.69974 0.0
Co330 Co 0.78853 0.16398 0.41227 0.0
C331 C 0.80086 0.08136 0.41641 0.0
C332 C 0.85195 0.10745 0.40944 0.0
C333 C 0.85733 0.06792 0.40993 0.0
N334 N 0.81646 0.11569 0.41349 0.0
N335 N 0.82488 0.05141 0.41418 0.0
H336 H 0.77137 0.07842 0.41936 0.0
H337 H 0.87164 0.1283 0.40577 0.0
C338 C 0.85094 0.21886 0.42007 0.0
O339 O 0.82616 0.23274 0.4275 0.0
N340 N 0.75901 0.21223 0.41052 0.0
C341 C 0.71999 0.21413 0.40934 0.0
C342 C 0.70909 0.25129 0.40697 0.0
C343 C 0.77118 0.24891 0.40845 0.0
N344 N 0.74116 0.27315 0.40644 0.0
C345 C 0.74659 0.17033 0.43323 0.0
C346 C 0.80749 0.15239 0.44751 0.0
C347 C 0.77072 0.15906 0.45225 0.0
C348 C 0.74021 0.16845 0.44489 0.0
C349 C 0.81275 0.15515 0.43575 0.0
N350 N 0.7826 0.16477 0.42875 0.0
H351 H 0.72199 0.17511 0.42784 0.0
H352 H 0.84106 0.14909 0.43225 0.0
H353 H 0.7001 0.19012 0.41 0.0
H354 H 0.80108 0.25783 0.40793 0.0
O355 O 0.74261 0.13488 0.40875 0.0
O356 O 0.78462 0.156 0.39595 0.0
O357 O 0.83997 0.19284 0.41301 0.0
C358 C 0.75279 0.13702 0.39816 0.0
H359 H 0.88266 0.05267 0.4069 0.0
H360 H 0.67969 0.26165 0.40589 0.0
H361 H 0.83185 0.14415 0.45277 0.0
H362 H 0.7113 0.17407 0.44805 0.0
Co363 Co 0.57674 0.05645 0.16401 0.0
C364 C 0.66218 0.04611 0.16699 0.0
C365 C 0.6448 0.10535 0.16904 0.0
C366 C 0.68455 0.10355 0.16939 0.0
N367 N 0.63052 0.06937 0.16746 0.0
N368 N 0.6955 0.0664 0.16799 0.0
H369 H 0.66121 0.01537 0.16525 0.0
H370 H 0.6279 0.13163 0.16948 0.0
C371 C 0.53187 0.12754 0.16999 0.0
O372 O 0.50767 0.10485 0.17544 0.0
N373 N 0.52309 0.04462 0.15998 0.0
C374 C 0.50661 0.05853 0.15042 0.0
C375 C 0.46967 0.0443 0.14944 0.0
C376 C 0.49514 0.02245 0.16483 0.0
N377 N 0.46247 0.02168 0.15848 0.0
C378 C 0.56213 0.01004 0.1836 0.0
C379 C 0.5761 0.06675 0.19963 0.0
C380 C 0.56832 0.02892 0.20326 0.0
C381 C 0.56097 1.00046 0.19509 0.0
C382 C 0.57625 0.07526 0.18803 0.0
N383 N 0.56829 0.04727 0.18014 0.0
H384 H 0.5588 0.9871 0.17745 0.0
H385 H 0.58428 0.1041 0.18543 0.0
H386 H 0.52064 0.07786 0.1445 0.0
H387 H 0.49799 0.00685 0.17269 0.0
O388 O 0.59204 0.00468 0.1598 0.0
O389 O 0.59021 0.05449 0.148 0.0
O390 O 0.56162 0.11315 0.16506 0.0
C391 C 0.59772 0.01792 0.14963 0.0
H392 H 0.70397 0.12799 0.17023 0.0
H393 H 0.44942 0.05041 0.14265 0.0
H394 H 0.5827 0.0894 0.20569 0.0
H395 H 0.55611 0.97062 0.19754 0.0
Co396 Co 0.71969 0.16771 0.57601 0.0
C397 C 0.71192 0.08292 0.57928 0.0
C398 C 0.6682 0.11397 0.58834 0.0
C399 C 0.66601 0.07545 0.59131 0.0
N400 N 0.69636 0.11864 0.58052 0.0
N401 N 0.69379 0.05589 0.58564 0.0
H402 H 0.73842 0.0773 0.57477 0.0
H403 H 0.65192 0.13726 0.5922 0.0
C404 C 0.63447 0.1812 0.5732 0.0
O405 O 0.63307 0.14735 0.56811 0.0
N406 N 0.7443 0.21586 0.5718 0.0
C407 C 0.77202 0.21919 0.56381 0.0
C408 C 0.78297 0.25725 0.56304 0.0
C409 C 0.73934 0.25192 0.57603 0.0
N410 N 0.76255 0.27777 0.57071 0.0
C411 C 0.73716 0.12806 0.5552 0.0
C412 C 0.69691 0.17751 0.54103 0.0
C413 C 0.7211 0.14936 0.53624 0.0
C414 C 0.74084 0.12404 0.54347 0.0
C415 C 0.69442 0.1809 0.55283 0.0
N416 N 0.71407 0.15606 0.55984 0.0
H417 H 0.75573 0.11069 0.56045 0.0
H418 H 0.679 0.20545 0.55625 0.0
H419 H 0.78374 0.19546 0.5589 0.0
H420 H 0.71924 0.25908 0.58276 0.0
O421 O 0.77028 0.14531 0.57852 0.0
O422 O 0.73529 0.17504 0.59166 0.0
O423 O 0.6671 0.19453 0.57667 0.0
C424 C 0.76657 0.15581 0.58906 0.0
H425 H 0.64649 0.06334 0.59754 0.0
H426 H 0.80499 0.26889 0.55746 0.0
H427 H 0.68212 0.19843 0.53572 0.0
H428 H 0.76036 0.10232 0.5401 0.0
Co429 Co 0.59008 0.94626 0.32553 0.0
C430 C 0.67597 0.94475 0.32546 0.0
C431 C 0.65267 0.89832 0.33529 0.0
C432 C 0.69219 0.89984 0.33708 0.0
N433 N 0.64243 0.92611 0.3278 0.0
N434 N 0.70671 0.92923 0.33089 0.0
H435 H 0.67766 0.9718 0.32098 0.0
H436 H 0.6325 0.88003 0.33982 0.0
C437 C 0.58309 0.86172 0.32116 0.0
O438 O 0.61427 0.8663 0.31491 0.0
N439 N 0.53888 0.96837 0.32357 0.0
C440 C 0.5316 0.99792 0.3164 0.0
C441 C 0.49514 0.01188 0.3184 0.0
C442 C 0.50646 0.96488 0.32997 0.0
N443 N 0.47937 0.99136 0.32692 0.0
C444 C 0.61933 0.97016 0.30376 0.0
C445 C 0.56764 0.92831 0.29074 0.0
C446 C 0.59291 0.95413 0.2853 0.0
C447 C 0.61918 0.97495 0.29202 0.0
C448 C 0.56848 0.92471 0.30256 0.0
N449 N 0.59483 0.94472 0.30897 0.0
H450 H 0.6369 0.98963 0.30865 0.0
H451 H 0.54633 0.90738 0.30654 0.0
H452 H 0.55224 0.0101 0.31051 0.0
H453 H 0.50369 0.94528 0.33709 0.0
O454 O 0.60989 0.99773 0.32815 0.0
O455 O 0.58882 0.95821 0.3416 0.0
O456 O 0.56796 0.89135 0.32605 0.0
C457 C 0.60471 0.99118 0.3389 0.0
H458 H 0.70854 0.88192 0.3429 0.0
H459 H 0.48164 0.03628 0.31419 0.0
H460 H 0.54646 0.91184 0.28598 0.0
H461 H 0.63796 0.99669 0.28835 0.0
Co462 Co 0.79225 0.85322 0.07819 0.0
C463 C 0.80433 0.93778 0.07873 0.0
C464 C 0.84334 0.90871 0.08993 0.0
C465 C 0.84578 0.94805 0.09196 0.0
N466 N 0.81764 0.90228 0.08148 0.0
N467 N 0.82111 0.9661 0.08485 0.0
H468 H 0.7796 0.94299 0.07342 0.0
H469 H 0.85715 0.88623 0.09488 0.0
C470 C 0.87636 0.83776 0.07528 0.0
O471 O 0.87726 0.87069 0.06971 0.0
N472 N 0.76546 0.80532 0.07522 0.0
C473 C 0.73539 0.80208 0.06799 0.0
C474 C 0.72333 0.76434 0.0678 0.0
C475 C 0.77094 0.76955 0.07956 0.0
N476 N 0.74558 0.74395 0.07505 0.0
C477 C 0.7748 0.88684 0.05643 0.0
C478 C 0.81205 0.83142 0.04356 0.0
C479 C 0.7894 0.85939 0.03802 0.0
C480 C 0.77145 0.88789 0.04465 0.0
C481 C 0.81524 0.83187 0.05539 0.0
N482 N 0.79719 0.85972 0.06175 0.0
H483 H 0.75634 0.90584 0.06119 0.0
H484 H 0.82975 0.80783 0.0594 0.0
H485 H 0.72302 0.82567 0.06317 0.0
H486 H 0.79308 0.76236 0.08573 0.0
O487 O 0.74286 0.87828 0.08031 0.0
O488 O 0.77711 0.85093 0.09404 0.0
O489 O 0.84405 0.82508 0.07918 0.0
C490 C 0.74652 0.8706 0.09104 0.0
H491 H 0.86275 0.962 0.09851 0.0
H492 H 0.69961 0.75276 0.06283 0.0
H493 H 0.82532 0.80787 0.03889 0.0
H494 H 0.75337 0.90998 0.04085 0.0
Co495 Co 0.92213 0.05084 0.82735 0.0
C496 C 0.83727 0.05203 0.82942 0.0
C497 C 0.86057 0.1085 0.83278 0.0
C498 C 0.82066 0.11013 0.83371 0.0
N499 N 0.87088 0.07197 0.83006 0.0
N500 N 0.80632 0.07445 0.8317 0.0
H501 H 0.83522 0.02182 0.82706 0.0
H502 H 0.88039 0.13239 0.83397 0.0
C503 C 0.97407 0.11901 0.82238 0.0
O504 O 0.99247 0.0975 0.81493 0.0
N505 N 0.97302 0.028 0.82466 0.0
C506 C 0.98162 1.00093 0.81677 0.0
C507 C 0.01807 0.98681 0.81873 0.0
C508 C 0.00488 0.0297 0.8314 0.0
N509 N 0.03266 0.00469 0.82791 0.0
C510 C 0.89815 0.02053 0.80583 0.0
C511 C 0.90645 0.08734 0.79326 0.0
C512 C 0.89766 0.05264 0.78766 0.0
C513 C 0.89205 0.01928 0.79416 0.0
C514 C 0.91166 0.08736 0.80504 0.0
N515 N 0.91098 0.05348 0.81106 0.0
H516 H 0.89425 0.99408 0.81054 0.0
H517 H 0.91578 0.11481 0.80918 0.0
H518 H 0.96257 0.9901 0.8103 0.0
H519 H 0.0069 0.0473 0.83898 0.0
O520 O 0.90239 0.99966 0.83033 0.0
O521 O 0.92646 0.03877 0.84341 0.0
O522 O 0.94526 0.10501 0.82786 0.0
C523 C 0.9098 0.00597 0.84095 0.0
H524 H 0.80354 0.13546 0.83577 0.0
H525 H 0.03247 0.9642 0.81395 0.0
H526 H 0.90908 0.11421 0.78858 0.0
H527 H 0.88452 0.99194 0.79023 0.0
Co528 Co 0.7967 0.66583 0.58418 0.0
C529 C 0.81232 0.58506 0.57863 0.0
C530 C 0.85632 0.60786 0.58964 0.0
C531 C 0.86076 0.56817 0.58895 0.0
N532 N 0.82577 0.61822 0.5832 0.0
N533 N 0.83291 0.55401 0.58206 0.0
H534 H 0.78566 0.5833 0.5738 0.0
H535 H 0.8721 0.62725 0.59517 0.0
C536 C 0.85721 0.72336 0.57686 0.0
O537 O 0.83195 0.73726 0.56957 0.0
N538 N 0.76574 0.71336 0.58558 0.0
C539 C 0.72652 0.71446 0.58586 0.0
C540 C 0.71428 0.75143 0.58802 0.0
C541 C 0.77658 0.75023 0.58803 0.0
N542 N 0.74566 0.77394 0.58933 0.0
C543 C 0.75509 0.66552 0.56317 0.0
C544 C 0.81849 0.6578 0.54902 0.0
C545 C 0.78126 0.65887 0.54428 0.0
C546 C 0.74936 0.66245 0.55151 0.0
C547 C 0.82289 0.66023 0.5608 0.0
N548 N 0.79146 0.66564 0.56771 0.0
H549 H 0.72997 0.66638 0.56853 0.0
H550 H 0.85157 0.65732 0.56439 0.0
H551 H 0.70741 0.68996 0.58486 0.0
H552 H 0.80608 0.75962 0.58932 0.0
O553 O 0.75161 0.63542 0.58769 0.0
O554 O 0.79261 0.65863 0.60049 0.0
O555 O 0.84732 0.69596 0.58358 0.0
C556 C 0.76169 0.63822 0.59828 0.0
H557 H 0.88146 0.55088 0.59364 0.0
H558 H 0.68449 0.76115 0.5885 0.0
H559 H 0.84378 0.65403 0.54369 0.0
H560 H 0.72009 0.66275 0.54817 0.0
Co561 Co 0.58676 0.53709 0.83491 0.0
C562 C 0.66911 0.55308 0.83165 0.0
C563 C 0.64064 0.60137 0.83952 0.0
C564 C 0.68005 0.60796 0.83957 0.0
N565 N 0.63399 0.56687 0.83458 0.0
N566 N 0.69794 0.57727 0.83473 0.0
H567 H 0.67355 0.52441 0.82818 0.0
H568 H 0.61877 0.61927 0.84348 0.0
C569 C 0.52997 0.59861 0.82734 0.0
O570 O 0.51713 0.57431 0.81962 0.0
N571 N 0.53951 0.50554 0.83562 0.0
C572 C 0.53902 0.46633 0.83587 0.0
C573 C 0.50191 0.45351 0.83732 0.0
C574 C 0.502 0.51579 0.83735 0.0
N575 N 0.47862 0.48449 0.83821 0.0
C576 C 0.58869 0.49699 0.8137 0.0
C577 C 0.59788 0.56095 0.79989 0.0
C578 C 0.59621 0.52402 0.79495 0.0
C579 C 0.59192 0.49185 0.80204 0.0
C580 C 0.59503 0.56476 0.8117 0.0
N581 N 0.58875 0.53308 0.81842 0.0
H582 H 0.58725 0.4716 0.81893 0.0
H583 H 0.59791 0.5932 0.81544 0.0
H584 H 0.56394 0.44755 0.83524 0.0
H585 H 0.49182 0.54511 0.83843 0.0
O586 O 0.61718 0.49189 0.83836 0.0
O587 O 0.59246 0.53135 0.85129 0.0
O588 O 0.55607 0.58762 0.83438 0.0
C589 C 0.61304 0.50057 0.849 0.0
H590 H 0.69437 0.6326 0.84338 0.0
H591 H 0.49265 0.42356 0.83757 0.0
H592 H 0.60216 0.58648 0.79471 0.0
H593 H 0.59095 0.46277 0.79859 0.0
Co594 Co 0.70378 0.35233 0.0819 0.0
C595 C 0.69451 0.43786 0.08127 0.0
C596 C 0.65791 0.41172 0.09374 0.0
C597 C 0.65563 0.45144 0.09493 0.0
N598 N 0.68215 0.4032 0.08509 0.0
N599 N 0.67867 0.46761 0.08702 0.0
H600 H 0.71679 0.4419 0.07504 0.0
H601 H 0.64436 0.39045 0.09917 0.0
C602 C 0.61951 0.34575 0.07738 0.0
O603 O 0.624 0.37872 0.07198 0.0
N604 N 0.72675 0.30238 0.07903 0.0
C605 C 0.75746 0.29686 0.07214 0.0
C606 C 0.76668 0.25833 0.07204 0.0
C607 C 0.7181 0.26711 0.08328 0.0
N608 N 0.74214 0.23982 0.07903 0.0
C609 C 0.73011 0.38462 0.06081 0.0
C610 C 0.68763 0.33704 0.04669 0.0
C611 C 0.71451 0.36264 0.04188 0.0
C612 C 0.73561 0.38683 0.04913 0.0
C613 C 0.68284 0.33593 0.05847 0.0
N614 N 0.70306 0.36044 0.06544 0.0
H615 H 0.75015 0.40021 0.06611 0.0
H616 H 0.66466 0.3135 0.06195 0.0
H617 H 0.77235 0.31942 0.06753 0.0
H618 H 0.69485 0.26153 0.08922 0.0
O619 O 0.75467 0.37265 0.08501 0.0
O620 O 0.71571 0.34762 0.09798 0.0
O621 O 0.64922 0.32925 0.08183 0.0
C622 C 0.74854 0.36444 0.0956 0.0
H623 H 0.63927 0.46711 0.10128 0.0
H624 H 0.7899 0.24481 0.06729 0.0
H625 H 0.67137 0.31707 0.04144 0.0
H626 H 0.75817 0.40557 0.04587 0.0
Co627 Co 0.91988 0.46859 0.33284 0.0
C628 C 0.83739 0.45145 0.33319 0.0
C629 C 0.86917 0.40646 0.34162 0.0
C630 C 0.83 0.39945 0.34289 0.0
N631 N 0.8735 0.43912 0.33554 0.0
N632 N 0.81005 0.42803 0.33764 0.0
H633 H 0.83151 0.47849 0.32891 0.0
H634 H 0.89263 0.38995 0.34532 0.0
C635 C 0.97984 0.40901 0.3263 0.0
O636 O 0.99255 0.43329 0.31857 0.0
N637 N 0.96597 0.49983 0.33023 0.0
C638 C 0.96671 0.53469 0.32506 0.0
C639 C 1.00307 0.55016 0.32593 0.0
C640 C 1.00209 0.49527 0.33454 0.0
N641 N 0.02536 0.52544 0.33186 0.0
C642 C 0.89411 0.49847 0.31147 0.0
C643 C 0.90499 0.4323 0.29873 0.0
C644 C 0.89397 0.46659 0.29326 0.0
C645 C 0.88724 0.49958 0.29984 0.0
C646 C 0.91084 0.43237 0.31049 0.0
N647 N 0.90865 0.46607 0.31658 0.0
H648 H 0.88742 0.52402 0.31631 0.0
H649 H 0.91676 0.40515 0.31461 0.0
H650 H 0.94237 0.54933 0.32131 0.0
H651 H 0.01094 0.47091 0.33971 0.0
O652 O 0.89173 0.51528 0.33637 0.0
O653 O 0.92328 0.47996 0.349 0.0
O654 O 0.95115 0.41856 0.3326 0.0
C655 C 0.90147 0.50994 0.34688 0.0
H656 H 0.81741 0.37574 0.34761 0.0
H657 H 0.0124 0.57765 0.32247 0.0
H658 H 0.90868 0.40568 0.29398 0.0
H659 H 0.87764 0.52644 0.29601 0.0
Co660 Co 0.8071 0.33721 0.9205 0.0
C661 C 0.81147 0.42221 0.91711 0.0
C662 C 0.86045 0.39354 0.90988 0.0
C663 C 0.86167 0.43199 0.90682 0.0
N664 N 0.82953 0.38745 0.91667 0.0
N665 N 0.83062 0.44998 0.91134 0.0
H666 H 0.78275 0.42643 0.92046 0.0
H667 H 0.87947 0.37118 0.90668 0.0
C668 C 0.89068 0.32749 0.92563 0.0
O669 O 0.88637 0.35976 0.93142 0.0
N670 N 0.78316 0.288 0.92394 0.0
C671 C 0.75332 0.284 0.93123 0.0
C672 C 0.7434 0.2457 0.93187 0.0
C673 C 0.79042 0.252 0.91995 0.0
N674 N 0.76656 0.22564 0.9248 0.0
C675 C 0.78798 0.37675 0.94125 0.0
C676 C 0.82048 0.32273 0.95569 0.0
C677 C 0.79807 0.35272 0.9603 0.0
C678 C 0.78239 0.38035 0.95292 0.0
C679 C 0.82548 0.32026 0.94395 0.0
N680 N 0.80948 0.34721 0.93682 0.0
H681 H 0.77219 0.39604 0.93583 0.0
H682 H 0.84022 0.2952 0.94055 0.0
H683 H 0.73971 0.3075 0.93581 0.0
H684 H 0.81261 0.24523 0.91378 0.0
O685 O 0.75633 0.35814 0.91764 0.0
O686 O 0.7939 0.33153 0.90454 0.0
O687 O 0.86118 0.31277 0.92056 0.0
C688 C 0.76175 0.34958 0.90703 0.0
H689 H 0.88289 0.44509 0.90127 0.0
H690 H 0.72038 0.23347 0.93697 0.0
H691 H 0.83294 0.30053 0.96106 0.0
H692 H 0.76369 0.4032 0.95604 0.0
Co693 Co 0.91418 0.53912 0.17051 0.0
C694 C 0.82977 0.54934 0.16758 0.0
C695 C 0.86086 0.59792 0.16106 0.0
C696 C 0.82232 0.60217 0.15829 0.0
N697 N 0.86544 0.5653 0.16725 0.0
N698 N 0.80286 0.57139 0.16239 0.0
H699 H 0.82409 0.52023 0.17038 0.0
H700 H 0.88415 0.61618 0.15808 0.0
C701 C 0.92853 0.62037 0.17716 0.0
O702 O 0.89653 0.61619 0.18309 0.0
N703 N 0.96181 0.51158 0.17333 0.0
C704 C 0.96366 0.47878 0.17949 0.0
C705 C 1.00046 0.46423 0.17889 0.0
C706 C 0.99761 0.51663 0.16898 0.0
N707 N 0.02175 0.48778 0.17225 0.0
C708 C 0.87404 0.51963 0.19122 0.0
C709 C 0.93154 0.54517 0.20573 0.0
C710 C 0.89957 0.52555 0.21024 0.0
C711 C 0.87029 0.51328 0.20285 0.0
C712 C 0.93397 0.55127 0.19405 0.0
N713 N 0.90522 0.53894 0.18689 0.0
H714 H 0.85314 0.5064 0.18573 0.0
H715 H 0.96005 0.5642 0.19069 0.0
H716 H 0.93951 0.46586 0.18394 0.0
H717 H 0.00539 0.53987 0.16325 0.0
O718 O 0.89019 0.49033 0.16696 0.0
O719 O 0.91855 0.52851 0.15435 0.0
O720 O 0.94152 0.59157 0.17138 0.0
C721 C 0.89916 0.49685 0.15643 0.0
H722 H 0.81006 0.62527 0.15323 0.0
H723 H 0.01078 0.43816 0.183 0.0
H724 H 0.95501 0.55481 0.21115 0.0
H725 H 0.84578 0.49681 0.20595 0.0
Co726 Co 0.71137 0.66444 0.42116 0.0
C727 C 0.7042 0.57946 0.4188 0.0
C728 C 0.65468 0.60837 0.41197 0.0
C729 C 0.65234 0.56968 0.40922 0.0
N730 N 0.68677 0.61451 0.4183 0.0
N731 N 0.68372 0.55159 0.41349 0.0
H732 H 0.73341 0.57499 0.42177 0.0
H733 H 0.63576 0.63078 0.40877 0.0
C734 C 0.62909 0.67817 0.42704 0.0
O735 O 0.63332 0.6473 0.43344 0.0
N736 N 0.73757 0.7131 0.42359 0.0
C737 C 0.77076 0.71617 0.42956 0.0
C738 C 0.78474 0.75306 0.4285 0.0
C739 C 0.73157 0.74836 0.41895 0.0
N740 N 0.76026 0.77319 0.42184 0.0
C741 C 0.72908 0.62708 0.44249 0.0
C742 C 0.70273 0.6869 0.45605 0.0
C743 C 0.72167 0.6555 0.46111 0.0
C744 C 0.7343 0.62501 0.45422 0.0
C745 C 0.69751 0.68752 0.44431 0.0
N746 N 0.71043 0.65774 0.43762 0.0
H747 H 0.7424 0.60516 0.43737 0.0
H748 H 0.68475 0.713 0.44051 0.0
H749 H 0.78447 0.6927 0.43413 0.0
H750 H 0.7079 0.75521 0.41326 0.0
O751 O 0.76109 0.64123 0.41814 0.0
O752 O 0.72289 0.66716 0.40506 0.0
O753 O 0.6582 0.6907 0.42132 0.0
C754 C 0.75499 0.64898 0.4075 0.0
H755 H 0.63028 0.55645 0.40397 0.0
H756 H 0.81116 0.76425 0.43222 0.0
H757 H 0.69288 0.71123 0.46109 0.0
H758 H 0.75013 0.6008 0.45779 0.0
Co759 Co 0.59169 0.45043 0.67145 0.0
C760 C 0.67509 0.43824 0.67588 0.0
C761 C 0.6485 0.38719 0.66901 0.0
C762 C 0.68804 0.38166 0.66934 0.0
N763 N 0.6404 0.42277 0.67306 0.0
N764 N 0.70477 0.41396 0.67355 0.0
H765 H 0.67882 0.46791 0.67863 0.0
H766 H 0.62758 0.36763 0.6653 0.0
C767 C 0.53984 0.38312 0.67839 0.0
O768 O 0.52583 0.40301 0.68696 0.0
N769 N 0.54286 0.4793 0.6694 0.0
C770 C 0.54088 0.51779 0.66726 0.0
C771 C 0.50322 0.52848 0.66556 0.0
C772 C 0.50537 0.46723 0.66879 0.0
N773 N 0.48081 0.49689 0.66651 0.0
C774 C 0.58198 0.49243 0.69207 0.0
C775 C 0.59894 0.43266 0.70684 0.0
C776 C 0.59032 0.46942 0.71129 0.0
C777 C 0.58214 0.49951 0.70369 0.0
C778 C 0.59862 0.42685 0.69507 0.0
N779 N 0.58889 0.45629 0.68785 0.0
H780 H 0.57758 0.51658 0.68646 0.0
H781 H 0.60597 0.39858 0.69176 0.0
H782 H 0.56506 0.53757 0.66697 0.0
H783 H 0.49598 0.43758 0.66953 0.0
O784 O 0.6209 0.49665 0.6683 0.0
O785 O 0.60134 0.45454 0.65528 0.0
O786 O 0.56357 0.39878 0.67143 0.0
C787 C 0.62013 0.48626 0.6577 0.0
H788 H 0.70338 0.35663 0.66611 0.0
H789 H 0.49295 0.55755 0.66385 0.0
H790 H 0.60575 0.40857 0.71236 0.0
H791 H 0.577 0.52875 0.70666 0.0
Co792 Co 0.20939 0.32905 0.41857 0.0
C793 C 0.20291 0.41429 0.4161 0.0
C794 C 0.1545 0.3855 0.40855 0.0
C795 C 0.15158 0.42454 0.40627 0.0
N796 N 0.18601 0.37912 0.41511 0.0
N797 N 0.18231 0.44239 0.41097 0.0
H798 H 0.23094 0.41933 0.41983 0.0
H799 H 0.13594 0.36318 0.4051 0.0
C800 C 0.12603 0.31784 0.42388 0.0
O801 O 0.1299 0.34979 0.42985 0.0
N802 N 0.2344 0.28014 0.42172 0.0
C803 C 0.26509 0.27675 0.42875 0.0
C804 C 0.2756 0.23862 0.4294 0.0
C805 C 0.22713 0.24391 0.41792 0.0
N806 N 0.2519 0.21804 0.42263 0.0
C807 C 0.22998 0.36695 0.43947 0.0
C808 C 0.19623 0.31329 0.45375 0.0
C809 C 0.21882 0.34294 0.45847 0.0
C810 C 0.23536 0.37024 0.45115 0.0
C811 C 0.19161 0.31103 0.44199 0.0
N812 N 0.20779 0.3381 0.43495 0.0
H813 H 0.24651 0.3858 0.43412 0.0
H814 H 0.17678 0.28615 0.43853 0.0
H815 H 0.27882 0.30054 0.43316 0.0
H816 H 0.20421 0.23661 0.41203 0.0
O817 O 0.25961 0.35099 0.41553 0.0
O818 O 0.22164 0.32428 0.40254 0.0
O819 O 0.15568 0.30385 0.41871 0.0
C820 C 0.25367 0.34265 0.40493 0.0
H821 H 0.12977 0.4384 0.40106 0.0
H822 H 0.29927 0.22683 0.43435 0.0
H823 H 0.18322 0.29124 0.45905 0.0
H824 H 0.25447 0.39262 0.45434 0.0
Co825 Co 0.41427 0.47422 0.16596 0.0
C826 C 0.33179 0.45833 0.16887 0.0
C827 C 0.36051 0.41071 0.16071 0.0
C828 C 0.32113 0.40407 0.16051 0.0
N829 N 0.36697 0.44476 0.16595 0.0
N830 N 0.30316 0.43433 0.16552 0.0
H831 H 0.32727 0.48622 0.17284 0.0
H832 H 0.38252 0.39328 0.15664 0.0
C833 C 0.47035 0.41161 0.17326 0.0
O834 O 0.48331 0.43431 0.18137 0.0
N835 N 0.46171 0.50493 0.16551 0.0
C836 C 0.4634 0.5441 0.16571 0.0
C837 C 0.50035 0.55589 0.16336 0.0
C838 C 0.49797 0.4937 0.16263 0.0
N839 N 0.52201 0.52426 0.16143 0.0
C840 C 0.41223 0.51333 0.18737 0.0
C841 C 0.40425 0.44871 0.20096 0.0
C842 C 0.40788 0.48523 0.20611 0.0
C843 C 0.41096 0.51779 0.1991 0.0
C844 C 0.4056 0.44558 0.1891 0.0
N845 N 0.41172 0.47754 0.18248 0.0
H846 H 0.41273 0.53901 0.18226 0.0
H847 H 0.40225 0.41737 0.18524 0.0
H848 H 0.4392 0.56349 0.16689 0.0
H849 H 0.50644 0.46422 0.16084 0.0
O850 O 0.38464 0.51994 0.16245 0.0
O851 O 0.40991 0.48024 0.14964 0.0
O852 O 0.44453 0.42378 0.16633 0.0
C853 C 0.38984 0.51138 0.15182 0.0
H854 H 0.30679 0.38019 0.15629 0.0
H855 H 0.5105 0.58553 0.16302 0.0
H856 H 0.40099 0.42276 0.20602 0.0
H857 H 0.41172 0.54675 0.20264 0.0
Co858 Co 0.30492 0.66506 0.91624 0.0
C859 C 0.31473 0.57984 0.91393 0.0
C860 C 0.36136 0.61078 0.90619 0.0
C861 C 0.36533 0.57208 0.90361 0.0
N862 N 0.33021 0.61569 0.91298 0.0
N863 N 0.33574 0.55272 0.90843 0.0
H864 H 0.2872 0.57377 0.91781 0.0
H865 H 0.37863 0.63398 0.90269 0.0
C866 C 0.38732 0.67834 0.92207 0.0
O867 O 0.38355 0.64627 0.92797 0.0
N868 N 0.27812 0.71333 0.91905 0.0
C869 C 0.24578 0.71568 0.92543 0.0
C870 C 0.23096 0.75233 0.92464 0.0
C871 C 0.2826 0.74885 0.9144 0.0
N872 N 0.25385 0.77316 0.91769 0.0
C873 C 0.28383 0.62742 0.93715 0.0
C874 C 0.3143 0.68322 0.95139 0.0
C875 C 0.29197 0.65337 0.95609 0.0
C876 C 0.27721 0.6249 0.9488 0.0
C877 C 0.32015 0.68471 0.93967 0.0
N878 N 0.30552 0.65668 0.93265 0.0
H879 H 0.26855 0.60761 0.93176 0.0
H880 H 0.33457 0.70978 0.9362 0.0
H881 H 0.23311 0.69186 0.93008 0.0
H882 H 0.30519 0.75622 0.90841 0.0
O883 O 0.25567 0.64147 0.91295 0.0
O884 O 0.29355 0.66905 0.90012 0.0
O885 O 0.35782 0.69182 0.91669 0.0
C886 C 0.26182 0.65001 0.90238 0.0
H887 H 0.38688 0.5596 0.89803 0.0
H888 H 0.20496 0.76282 0.92877 0.0
H889 H 0.32604 0.70609 0.95665 0.0
H890 H 0.25847 0.60219 0.95196 0.0
Co891 Co 0.08457 0.55231 0.66619 0.0
C892 C 0.16919 0.54367 0.6705 0.0
C893 C 0.15216 0.60336 0.66954 0.0
C894 C 0.1919 0.60154 0.67022 0.0
N895 N 0.13776 0.56707 0.66963 0.0
N896 N 0.20263 0.56402 0.67072 0.0
H897 H 0.16798 0.51239 0.67018 0.0
H898 H 0.13538 0.62951 0.66844 0.0
C899 C 0.03636 0.62164 0.67154 0.0
O900 O 0.01282 0.5975 0.6767 0.0
N901 N 0.03142 0.53803 0.66219 0.0
C902 C 0.01496 0.54865 0.65227 0.0
C903 C 0.97817 0.53378 0.65165 0.0
C904 C 1.0036 0.51721 0.6676 0.0
N905 N 0.97102 0.51412 0.66127 0.0
C906 C 0.07212 0.50666 0.68606 0.0
C907 C 0.08333 0.56525 0.70168 0.0
C908 C 0.07828 0.52723 0.70561 0.0
C909 C 0.07232 0.49781 0.69761 0.0
C910 C 0.08292 0.57283 0.69003 0.0
N911 N 0.07632 0.54387 0.68235 0.0
H912 H 0.06934 0.4832 0.68005 0.0
H913 H 0.08962 0.60179 0.68721 0.0
H914 H 0.02871 0.5664 0.64589 0.0
H915 H 0.0064 0.50463 0.67592 0.0
O916 O 0.10177 0.50086 0.66229 0.0
O917 O 0.09849 0.5498 0.65021 0.0
O918 O 0.06748 0.60874 0.66698 0.0
C919 C 0.10731 0.51365 0.65207 0.0
H920 H 0.21151 0.62596 0.66989 0.0
H921 H 0.95789 0.53768 0.64472 0.0
H922 H 0.08841 0.58891 0.70753 0.0
H923 H 0.0695 0.46786 0.7002 0.0
Co924 Co 0.2093 0.67201 0.07772 0.0
C925 C 0.20121 0.5871 0.08107 0.0
C926 C 0.1584 0.61866 0.09036 0.0
C927 C 0.15632 0.58025 0.09348 0.0
N928 N 0.18593 0.62297 0.08232 0.0
N929 N 0.18359 0.56051 0.08769 0.0
H930 H 0.22653 0.58074 0.0761 0.0
H931 H 0.14267 0.6422 0.09429 0.0
C932 C 0.12439 0.68477 0.07474 0.0
O933 O 0.12362 0.65066 0.06979 0.0
N934 N 0.23407 0.72012 0.07348 0.0
C935 C 0.26222 0.72301 0.0656 0.0
C936 C 0.27332 0.76099 0.06472 0.0
C937 C 0.229 0.75642 0.07753 0.0
N938 N 0.25258 0.78197 0.07221 0.0
C939 C 0.2265 0.63188 0.05696 0.0
C940 C 0.18715 0.68186 0.04276 0.0
C941 C 0.21067 0.65309 0.03796 0.0
C942 C 0.22985 0.62744 0.04524 0.0
C943 C 0.18458 0.68531 0.05455 0.0
N944 N 0.20381 0.66023 0.06157 0.0
H945 H 0.24524 0.6147 0.06221 0.0
H946 H 0.16939 0.71003 0.05795 0.0
H947 H 0.27408 0.69902 0.06083 0.0
H948 H 0.20853 0.76398 0.08413 0.0
O949 O 0.2597 0.64957 0.08027 0.0
O950 O 0.22463 0.67948 0.09337 0.0
O951 O 0.15671 0.69867 0.07826 0.0
C952 C 0.25576 0.65996 0.0908 0.0
H953 H 0.13798 0.56835 0.10005 0.0
H954 H 0.29561 0.77229 0.05918 0.0
H955 H 0.17213 0.70267 0.03747 0.0
H956 H 0.24965 0.60581 0.04197 0.0
Co957 Co 0.08716 0.46791 0.82925 0.0
C958 C 0.1703 0.45169 0.8279 0.0
C959 C 0.13949 0.40329 0.83487 0.0
C960 C 0.1787 0.39666 0.83599 0.0
N961 N 0.13437 0.43793 0.82985 0.0
N962 N 0.19804 0.42743 0.83174 0.0
H963 H 0.1759 0.48044 0.82466 0.0
H964 H 0.11654 0.38535 0.83823 0.0
C965 C 0.03101 0.40497 0.82211 0.0
O966 O 0.01833 0.42727 0.81387 0.0
N967 N 0.03997 0.49939 0.829 0.0
C968 C 0.0393 0.53852 0.82832 0.0
C969 C 1.00237 0.55163 0.82994 0.0
C970 C 1.00282 0.48952 0.8314 0.0
N971 N 0.97945 0.52095 0.83187 0.0
C972 C 0.09277 0.50465 0.80758 0.0
C973 C 0.09904 0.43835 0.79457 0.0
C974 C 0.09814 0.4745 0.78915 0.0
C975 C 0.09565 0.50787 0.79584 0.0
C976 C 0.09665 0.4365 0.80644 0.0
N977 N 0.09128 0.46936 0.81275 0.0
H978 H 0.09255 0.53083 0.81248 0.0
H979 H 0.09878 0.4086 0.81054 0.0
H980 H 0.06413 0.55715 0.82727 0.0
H981 H 0.99319 0.46054 0.83337 0.0
O982 O 0.11703 0.51368 0.8326 0.0
O983 O 0.09043 0.47564 0.84556 0.0
O984 O 0.05644 0.41765 0.82909 0.0
C985 C 0.1114 0.50606 0.84326 0.0
H986 H 0.19174 0.37199 0.84016 0.0
H987 H 0.99308 0.58159 0.82987 0.0
H988 H 0.10214 0.4119 0.78972 0.0
H989 H 0.09551 0.53643 0.79204 0.0
Co990 Co 0.2999 0.34553 0.58074 0.0
C991 C 0.30942 0.43069 0.58204 0.0
C992 C 0.35434 0.4015 0.59114 0.0
C993 C 0.35713 0.44067 0.59333 0.0
N994 N 0.32499 0.39519 0.58377 0.0
N995 N 0.32849 0.45885 0.58767 0.0
H996 H 0.28284 0.43587 0.57754 0.0
H997 H 0.37091 0.37902 0.5953 0.0
C998 C 0.38373 0.32962 0.57691 0.0
O999 O 0.38396 0.36213 0.57111 0.0
N1000 N 0.27315 0.29722 0.57803 0.0
C1001 C 0.24138 0.29443 0.57143 0.0
C1002 C 0.22703 0.25757 0.57213 0.0
C1003 C 0.27788 0.26174 0.5827 0.0
N1004 N 0.24975 0.23703 0.57922 0.0
C1005 C 0.28208 0.38004 0.55918 0.0
C1006 C 0.31732 0.32409 0.54598 0.0
C1007 C 0.29544 0.35304 0.54065 0.0
C1008 C 0.27815 0.38153 0.54742 0.0
C1009 C 0.32052 0.32367 0.55781 0.0
N1010 N 0.30362 0.35188 0.5643 0.0
H1011 H 0.26487 0.39972 0.56409 0.0
H1012 H 0.33462 0.29917 0.56172 0.0
H1013 H 0.2289 0.31802 0.56662 0.0
H1014 H 0.30032 0.2546 0.58877 0.0
O1015 O 0.25047 0.37018 0.58308 0.0
O1016 O 0.28589 0.34362 0.5967 0.0
O1017 O 0.352 0.3176 0.58137 0.0
C1018 C 0.25494 0.363 0.59382 0.0
H1019 H 0.37692 0.45431 0.59923 0.0
H1020 H 0.20155 0.24668 0.56782 0.0
H1021 H 0.33075 0.30111 0.54112 0.0
H1022 H 0.2595 0.40344 0.54374 0.0
Co1023 Co 0.41982 0.52845 0.33089 0.0
C1024 C 0.33725 0.54605 0.32894 0.0
C1025 C 0.36776 0.59242 0.33713 0.0
C1026 C 0.32851 0.59942 0.33794 0.0
N1027 N 0.37305 0.5589 0.3315 0.0
N1028 N 0.3094 0.56991 0.33291 0.0
H1029 H 0.33178 0.51855 0.32483 0.0
H1030 H 0.39054 0.60904 0.34113 0.0
C1031 C 0.47828 0.58862 0.32375 0.0
O1032 O 0.49088 0.56408 0.31605 0.0
N1033 N 0.46667 0.49647 0.33071 0.0
C1034 C 0.46736 0.45744 0.32962 0.0
C1035 C 0.50406 0.44402 0.33158 0.0
C1036 C 0.50334 0.50583 0.3338 0.0
N1037 N 0.52667 0.47438 0.33418 0.0
C1038 C 0.41228 0.49157 0.30922 0.0
C1039 C 0.40752 0.55789 0.29622 0.0
C1040 C 0.40652 0.52169 0.2908 0.0
C1041 C 0.40842 0.48833 0.2975 0.0
C1042 C 0.41111 0.55978 0.30806 0.0
N1043 N 0.41546 0.52682 0.31437 0.0
H1044 H 0.41166 0.46544 0.31413 0.0
H1045 H 0.41027 0.58779 0.31215 0.0
H1046 H 0.44261 0.43904 0.32815 0.0
H1047 H 0.51259 0.53448 0.3363 0.0
O1048 O 0.38953 0.48307 0.33425 0.0
O1049 O 0.41658 0.52077 0.34723 0.0
O1050 O 0.45118 0.57845 0.33054 0.0
C1051 C 0.3954 0.49048 0.3449 0.0
H1052 H 0.31515 0.62285 0.34262 0.0
H1053 H 0.51336 0.41409 0.33125 0.0
H1054 H 0.40488 0.58443 0.29139 0.0
H1055 H 0.4072 0.45974 0.29373 0.0
H1056 H 0.18774 0.10189 0.09138 0.0
H1057 H 0.1582 0.05492 0.15714 0.0
H1058 H 0.25829 0.15152 0.11792 0.0
H1059 H 0.10445 0.98877 0.13032 0.0
H1060 H 0.19024 0.09494 0.14298 0.0
H1061 H 0.15203 0.06525 0.10561 0.0
C1062 C 0.19554 0.10536 0.10023 0.0
C1063 C 0.22613 0.1298 0.10348 0.0
C1064 C 0.17143 0.07174 0.14017 0.0
C1065 C 0.18532 0.08765 0.11982 0.0
C1066 C 0.153 0.04885 0.14825 0.0
C1067 C 0.12861 0.01838 0.1449 0.0
C1068 C 0.16533 0.06434 0.12861 0.0
C1069 C 0.12307 0.0119 0.13327 0.0
C1070 C 0.1752 0.08424 0.10834 0.0
C1071 C 0.23493 0.13304 0.11505 0.0
N1072 N 0.14131 0.03475 0.12552 0.0
N1073 N 0.21464 0.11211 0.12282 0.0
H1074 H 0.14684 0.94095 0.3387 0.0
H1075 H 0.19651 0.91057 0.4043 0.0
H1076 H 0.10008 0.01228 0.3655 0.0
H1077 H 0.25889 0.85412 0.37719 0.0
H1078 H 0.15559 0.94259 0.39032 0.0
H1079 H 0.18165 0.90286 0.35283 0.0
C1080 C 0.14336 0.94824 0.34758 0.0
C1081 C 0.12056 0.97994 0.35093 0.0
C1082 C 0.17815 0.92317 0.38741 0.0
C1083 C 0.16077 0.93661 0.36714 0.0
C1084 C 0.20158 0.90483 0.39539 0.0
C1085 C 0.23125 0.87969 0.39189 0.0
C1086 C 0.18426 0.91628 0.37582 0.0
C1087 C 0.23644 0.87339 0.38024 0.0
C1088 C 0.16351 0.9266 0.35563 0.0
C1089 C 0.11731 0.98809 0.36255 0.0
N1090 N 0.21313 0.89161 0.3726 0.0
N1091 N 0.1374 0.96667 0.37024 0.0
H1092 H 0.31871 0.90412 0.58767 0.0
H1093 H 0.34943 0.94187 0.65396 0.0
H1094 H 0.24954 0.85077 0.61385 0.0
H1095 H 0.40565 0.00952 0.62795 0.0
H1096 H 0.31793 0.90338 0.63934 0.0
H1097 H 0.35638 0.93733 0.60226 0.0
C1098 C 0.31176 0.89895 0.5965 0.0
C1099 C 0.28086 0.87467 0.59956 0.0
C1100 C 0.33719 0.92656 0.6368 0.0
C1101 C 0.32372 0.91292 0.61629 0.0
C1102 C 0.35526 0.94861 0.64515 0.0
C1103 C 0.38013 0.9791 0.64216 0.0
C1104 C 0.34402 0.93487 0.62533 0.0
C1105 C 0.38658 0.98637 0.63061 0.0
C1106 C 0.33318 0.91814 0.60482 0.0
C1107 C 0.27309 0.86923 0.61112 0.0
N1108 N 0.36855 0.9644 0.62259 0.0
N1109 N 0.2943 0.88836 0.61907 0.0
H1110 H 0.36116 0.06672 0.83846 0.0
H1111 H 0.33428 0.10784 0.90472 0.0
H1112 H 0.4196 1.00213 0.86474 0.0
H1113 H 0.25981 0.15635 0.87894 0.0
H1114 H 0.37278 0.07682 0.88997 0.0
H1115 H 0.33119 0.10732 0.85296 0.0
C1116 C 0.36816 0.06139 0.84728 0.0
C1117 C 0.39286 0.03085 0.85041 0.0
C1118 C 0.34822 0.09446 0.88752 0.0
C1119 C 0.35834 0.07721 0.86705 0.0
C1120 C 0.32621 0.11232 0.89593 0.0
C1121 C 0.29357 0.13456 0.89305 0.0
C1122 C 0.33765 0.09883 0.8761 0.0
C1123 C 0.28466 0.13938 0.88153 0.0
C1124 C 0.35084 0.08453 0.85556 0.0
C1125 C 0.40071 0.02529 0.86196 0.0
N1126 N 0.30647 0.12143 0.87346 0.0
N1127 N 0.38333 0.04814 0.86988 0.0
H1128 H 0.86694 0.94066 0.83774 0.0
H1129 H 0.82348 0.90996 0.90371 0.0
H1130 H 0.91615 0.01217 0.86413 0.0
H1131 H 0.75571 0.85737 0.87704 0.0
H1132 H 0.86388 0.9411 0.88942 0.0
H1133 H 0.83314 0.90296 0.85216 0.0
C1134 C 0.87115 0.94809 0.84659 0.0
C1135 C 0.89434 0.97974 0.84974 0.0
C1136 C 0.84026 0.92269 0.88668 0.0
C1137 C 0.85533 0.93679 0.86628 0.0
C1138 C 0.81716 0.90481 0.89483 0.0
C1139 C 0.78605 0.88111 0.89155 0.0
C1140 C 0.83243 0.91669 0.87514 0.0
C1141 C 0.77929 0.87554 0.87993 0.0
C1142 C 0.85159 0.92667 0.85481 0.0
C1143 C 0.89856 0.98804 0.86133 0.0
N1144 N 0.80231 0.89324 0.87213 0.0
N1145 N 0.87905 0.9668 0.86918 0.0
H1146 H 0.91807 0.005 0.62708 0.0
H1147 H 0.76757 0.1733 0.61174 0.0
H1148 H 0.86841 0.08314 0.6517 0.0
H1149 H 0.82696 0.10538 0.58638 0.0
H1150 H 0.80747 0.14294 0.62639 0.0
H1151 H 0.8881 0.04335 0.61188 0.0
C1152 C 0.90126 0.03041 0.62928 0.0
C1153 C 0.89557 0.04074 0.64067 0.0
C1154 C 0.81212 0.13496 0.61761 0.0
C1155 C 0.86101 0.08451 0.62339 0.0
C1156 C 0.78936 0.15239 0.60924 0.0
C1157 C 0.79386 0.1418 0.59783 0.0
C1158 C 0.8393 0.1064 0.61457 0.0
C1159 C 0.82252 0.11444 0.59508 0.0
C1160 C 0.88412 0.05227 0.62061 0.0
C1161 C 0.87344 0.07392 0.64304 0.0
N1162 N 0.84388 0.0974 0.6034 0.0
N1163 N 0.85679 0.09439 0.6345 0.0
H1164 H 0.65042 0.05453 0.33535 0.0
H1165 H 0.69038 0.09035 0.40137 0.0
H1166 H 0.59855 0.98666 0.36207 0.0
H1167 H 0.7607 0.14045 0.3749 0.0
H1168 H 0.65125 0.05807 0.38701 0.0
H1169 H 0.68504 0.09244 0.34964 0.0
C1170 C 0.64583 0.04795 0.34424 0.0
C1171 C 0.62151 0.01734 0.34753 0.0
C1172 C 0.67517 0.07614 0.38431 0.0
C1173 C 0.66139 0.06048 0.36392 0.0
C1174 C 0.69757 0.09468 0.39251 0.0
C1175 C 0.72898 0.1181 0.38932 0.0
C1176 C 0.68398 0.0811 0.37279 0.0
C1177 C 0.73684 0.12256 0.37772 0.0
C1178 C 0.66586 0.06946 0.35238 0.0
C1179 C 0.61697 0.00999 0.35915 0.0
N1180 N 0.71445 0.1042 0.36985 0.0
N1181 N 0.63681 0.03134 0.36693 0.0
H1182 H 0.62982 0.94635 0.15227 0.0
H1183 H 0.68927 0.92327 0.0871 0.0
H1184 H 0.60602 0.03327 0.1269 0.0
H1185 H 0.74322 0.85799 0.11405 0.0
H1186 H 0.6497 0.95703 0.10114 0.0
H1187 H 0.66273 0.90732 0.1379 0.0
C1188 C 0.63117 0.95708 0.14364 0.0
C1189 C 0.6152 0.99318 0.14077 0.0
C1190 C 0.66999 0.93514 0.10397 0.0
C1191 C 0.65281 0.94853 0.12429 0.0
C1192 C 0.69245 0.91563 0.09597 0.0
C1193 C 0.71966 0.88776 0.09942 0.0
C1194 C 0.67445 0.92653 0.11553 0.0
C1195 C 0.72263 0.87929 0.11103 0.0
C1196 C 0.65013 0.93483 0.13547 0.0
C1197 C 0.61802 0.00567 0.12948 0.0
N1198 N 0.70033 0.89866 0.11868 0.0
N1199 N 0.63648 0.98336 0.12164 0.0
H1200 H 0.70194 0.58801 0.59515 0.0
H1201 H 0.66881 0.54723 0.66114 0.0
H1202 H 0.77157 0.64038 0.62144 0.0
H1203 H 0.6178 0.47802 0.63454 0.0
H1204 H 0.7029 0.58522 0.64682 0.0
H1205 H 0.66701 0.55143 0.60955 0.0
C1206 C 0.70979 0.59198 0.60398 0.0
C1207 C 0.73973 0.61734 0.60711 0.0
C1208 C 0.68428 0.56174 0.64411 0.0
C1209 C 0.69975 0.57534 0.62367 0.0
C1210 C 0.66468 0.54008 0.65227 0.0
C1211 C 0.64037 0.50943 0.64901 0.0
C1212 C 0.67933 0.55291 0.63258 0.0
C1213 C 0.63627 0.50138 0.63741 0.0
C1214 C 0.68989 0.57092 0.61219 0.0
C1215 C 0.74868 0.62115 0.61867 0.0
N1216 N 0.65549 0.52308 0.6296 0.0
N1217 N 0.72871 0.60038 0.62654 0.0
H1218 H 0.76701 0.3427 0.88383 0.0
H1219 H 0.6072 0.50638 0.87228 0.0
H1220 H 0.69749 0.39415 0.91028 0.0
H1221 H 0.66171 0.43962 0.84574 0.0
H1222 H 0.64025 0.4659 0.88642 0.0
H1223 H 0.72828 0.37751 0.86968 0.0
C1224 C 0.74326 0.36081 0.88665 0.0
C1225 C 0.73551 0.36549 0.89825 0.0
C1226 C 0.64478 0.46003 0.87749 0.0
C1227 C 0.69156 0.40602 0.88215 0.0
C1228 C 0.62599 0.4832 0.86943 0.0
C1229 C 0.63173 0.47643 0.85782 0.0
C1230 C 0.66967 0.43012 0.87389 0.0
C1231 C 0.6564 0.44594 0.8546 0.0
C1232 C 0.72125 0.38084 0.87858 0.0
C1233 C 0.70452 0.38961 0.90143 0.0
N1234 N 0.67455 0.4241 0.86257 0.0
N1235 N 0.68395 0.40921 0.89345 0.0
H1236 H 0.8151 0.40566 0.0926 0.0
H1237 H 0.85485 0.43223 0.15899 0.0
H1238 H 0.74435 0.35395 0.1187 0.0
H1239 H 0.90716 0.50419 0.13328 0.0
H1240 H 0.82224 0.39523 0.14418 0.0
H1241 H 0.85661 0.43361 0.10724 0.0
C1242 C 0.80852 0.39977 0.10142 0.0
C1243 C 0.77602 0.37756 0.10444 0.0
C1244 C 0.84109 0.41888 0.14176 0.0
C1245 C 0.82353 0.40969 0.12125 0.0
C1246 C 0.85991 0.43999 0.1502 0.0
C1247 C 0.88366 0.47156 0.14737 0.0
C1248 C 0.84607 0.42922 0.13034 0.0
C1249 C 0.88907 0.48015 0.13585 0.0
C1250 C 0.8322 0.41591 0.10977 0.0
C1251 C 0.76901 0.37096 0.116 0.0
N1252 N 0.87022 0.45922 0.12775 0.0
N1253 N 0.79247 0.38712 0.12399 0.0
H1254 H 0.85509 0.573 0.34412 0.0
H1255 H 0.81962 0.60467 0.41053 0.0
H1256 H 0.91078 0.50437 0.37004 0.0
H1257 H 0.7505 0.65848 0.38439 0.0
H1258 H 0.85956 0.57444 0.39591 0.0
H1259 H 0.82326 0.61102 0.35884 0.0
C1260 C 0.86094 0.56611 0.35293 0.0
C1261 C 0.8855 0.53525 0.35586 0.0
C1262 C 0.83586 0.59308 0.39336 0.0
C1263 C 0.84883 0.57877 0.37279 0.0
C1264 C 0.81308 0.61051 0.40171 0.0
C1265 C 0.78154 0.63407 0.39867 0.0
C1266 C 0.82718 0.59929 0.38188 0.0
C1267 C 0.77446 0.64049 0.38711 0.0
C1268 C 0.84261 0.58784 0.36133 0.0
C1269 C 0.89201 0.52783 0.3674 0.0
N1270 N 0.797 0.62305 0.37913 0.0
N1271 N 0.87359 0.54932 0.37546 0.0
H1272 H 0.31812 0.38713 0.40794 0.0
H1273 H 0.34603 0.42998 0.34176 0.0
H1274 H 0.2472 0.33591 0.38175 0.0
H1275 H 0.40394 0.49469 0.36812 0.0
H1276 H 0.31485 0.3903 0.3562 0.0
H1277 H 0.35531 0.42091 0.39339 0.0
C1278 C 0.31069 0.38251 0.39911 0.0
C1279 C 0.27941 0.35864 0.39606 0.0
C1280 C 0.33445 0.41307 0.35885 0.0
C1281 C 0.3218 0.39768 0.37934 0.0
C1282 C 0.35236 0.43577 0.3506 0.0
C1283 C 0.37761 0.46582 0.35374 0.0
C1284 C 0.34185 0.42025 0.37036 0.0
C1285 C 0.38461 0.47191 0.36533 0.0
C1286 C 0.33185 0.40204 0.39081 0.0
C1287 C 0.27108 0.35397 0.38449 0.0
N1288 N 0.36677 0.44934 0.37323 0.0
N1289 N 0.29204 0.37347 0.37655 0.0
H1290 H 0.34488 0.57555 0.15448 0.0
H1291 H 0.31722 0.61115 0.08792 0.0
H1292 H 0.39781 0.50413 0.12872 0.0
H1293 H 0.25312 0.67237 0.11376 0.0
H1294 H 0.35344 0.57746 0.10273 0.0
H1295 H 0.31688 0.61613 0.13967 0.0
C1296 C 0.35071 0.56844 0.14569 0.0
C1297 C 0.37356 0.53626 0.14282 0.0
C1298 C 0.33175 0.59856 0.10517 0.0
C1299 C 0.34159 0.5828 0.1258 0.0
C1300 C 0.31121 0.61803 0.09672 0.0
C1301 C 0.28199 0.64455 0.09962 0.0
C1302 C 0.32306 0.60565 0.11661 0.0
C1303 C 0.27536 0.65214 0.11115 0.0
C1304 C 0.3347 0.59168 0.13724 0.0
C1305 C 0.38021 0.52855 0.1313 0.0
N1306 N 0.29555 0.63257 0.11923 0.0
N1307 N 0.3642 0.55162 0.12319 0.0
H1308 H 0.1039 0.50023 0.86642 0.0
H1309 H 0.26775 0.6585 0.87924 0.0
H1310 H 0.16103 0.56655 0.8403 0.0
H1311 H 0.1976 0.60526 0.90521 0.0
H1312 H 0.22828 0.62606 0.86477 0.0
H1313 H 0.13758 0.53894 0.88081 0.0
C1314 C 0.12334 0.52305 0.86372 0.0
C1315 C 0.12971 0.53012 0.85216 0.0
C1316 C 0.22133 0.62179 0.87364 0.0
C1317 C 0.16851 0.57436 0.86853 0.0
C1318 C 0.2438 0.6404 0.88189 0.0
C1319 C 0.23602 0.63455 0.89344 0.0
C1320 C 0.19111 0.59694 0.87698 0.0
C1321 C 0.2047 0.61062 0.8964 0.0
C1322 C 0.14254 0.54518 0.87192 0.0
C1323 C 0.15523 0.56007 0.84912 0.0
N1324 N 0.18363 0.59248 0.88824 0.0
N1325 N 0.17385 0.5809 0.85724 0.0
H1326 H 0.1974 0.41525 0.58988 0.0
H1327 H 0.14164 0.44334 0.65515 0.0
H1328 H 0.25338 0.35228 0.61696 0.0
H1329 H 0.11482 0.52739 0.62922 0.0
H1330 H 0.17473 0.40371 0.64096 0.0
H1331 H 0.15878 0.45008 0.6039 0.0
C1332 C 0.20123 0.40833 0.59878 0.0
C1333 C 0.2287 0.38075 0.60226 0.0
C1334 C 0.16148 0.43073 0.63837 0.0
C1335 C 0.18456 0.42083 0.61836 0.0
C1336 C 0.14242 0.45333 0.64644 0.0
C1337 C 0.12545 0.48877 0.64335 0.0
C1338 C 0.16327 0.44341 0.62708 0.0
C1339 C 0.12758 0.50032 0.63197 0.0
C1340 C 0.1793 0.42847 0.60677 0.0
C1341 C 0.23253 0.37328 0.61391 0.0
N1342 N 0.14612 0.47766 0.62423 0.0
N1343 N 0.21071 0.39327 0.62156 0.0
H1344 H 0.18142 0.13735 0.97367 0.0
H1345 H 0.33346 0.13952 0.02401 0.0
H1346 H 0.30237 0.1633 0.96781 0.0
H1347 H 0.21636 0.18175 0.02824 0.0
H1348 H 0.32247 0.13655 0.0035 0.0
H1349 H 0.19332 0.14142 0.99409 0.0
C1350 C 0.2104 0.14399 0.97659 0.0
C1351 C 0.24088 0.14989 0.96888 0.0
C1352 C 0.29931 0.1464 0.00899 0.0
C1353 C 0.25472 0.1534 0.99228 0.0
C1354 C 0.30558 0.1484 0.02069 0.0
C1355 C 0.27573 0.16059 0.02798 0.0
C1356 C 0.26278 0.15599 0.00456 0.0
C1357 C 0.23999 0.1711 0.02308 0.0
C1358 C 0.21715 0.14607 0.98826 0.0
C1359 C 0.27802 0.15756 0.97333 0.0
N1360 N 0.23442 0.1682 0.01172 0.0
N1361 N 0.28392 0.15885 0.98471 0.0
H1362 H 0.04112 0.01613 0.27707 0.0
H1363 H 0.15144 0.01109 0.21793 0.0
H1364 H 0.16187 0.04634 0.27381 0.0
H1365 H 0.04973 0.94225 0.22444 0.0
H1366 H 0.15404 0.02857 0.23806 0.0
H1367 H 0.04098 0.99451 0.25726 0.0
C1368 C 0.06745 0.01864 0.27212 0.0
C1369 C 0.10151 0.03325 0.27701 0.0
C1370 C 0.13142 0.00928 0.23512 0.0
C1371 C 0.10168 0.00825 0.25448 0.0
C1372 C 0.12999 0.99929 0.22368 0.0
C1373 C 0.10041 0.97518 0.21963 0.0
C1374 C 0.10258 0.99565 0.2425 0.0
C1375 C 0.07313 0.96068 0.22732 0.0
C1376 C 0.06748 0.00588 0.26089 0.0
C1377 C 0.13505 0.03522 0.27033 0.0
N1378 N 0.07457 0.97154 0.23841 0.0
N1379 N 0.13425 0.02304 0.25937 0.0
H1380 H 0.23483 0.91156 0.52237 0.0
H1381 H 0.25164 0.77921 0.46748 0.0
H1382 H 0.23101 0.78657 0.52382 0.0
H1383 H 0.30148 0.89354 0.46893 0.0
H1384 H 0.23802 0.78281 0.48784 0.0
H1385 H 0.25332 0.9073 0.50238 0.0
C1386 C 0.23791 0.88323 0.51854 0.0
C1387 C 0.23112 0.84938 0.52485 0.0
C1388 C 0.25225 0.80699 0.48374 0.0
C1389 C 0.25171 0.84447 0.50192 0.0
C1390 C 0.25997 0.80494 0.47215 0.0
C1391 C 0.27772 0.83611 0.4666 0.0
C1392 C 0.26169 0.84076 0.48976 0.0
C1393 C 0.28801 0.86883 0.47297 0.0
C1394 C 0.24843 0.88088 0.50712 0.0
C1395 C 0.235 0.81353 0.5193 0.0
N1396 N 0.27944 0.87052 0.48423 0.0
N1397 N 0.24486 0.81206 0.50816 0.0
H1398 H 0.42637 0.9155 0.77109 0.0
H1399 H 0.37301 0.06347 0.72155 0.0
H1400 H 0.38057 0.02966 0.77788 0.0
H1401 H 0.45541 0.97015 0.71776 0.0
H1402 H 0.36922 0.04911 0.7419 0.0
H1403 H 0.42983 0.93179 0.75097 0.0
C1404 C 0.41704 0.94398 0.76838 0.0
C1405 C 0.40327 0.97123 0.77625 0.0
C1406 C 0.38815 0.03191 0.73658 0.0
C1407 C 0.4067 0.98987 0.75317 0.0
C1408 C 0.39054 0.04024 0.72498 0.0
C1409 C 0.41424 0.01773 0.71788 0.0
C1410 C 0.40935 1.0007 0.74105 0.0
C1411 C 0.43599 0.9877 0.72282 0.0
C1412 C 0.41896 0.95323 0.75688 0.0
C1413 C 0.39083 0.00743 0.77215 0.0
N1414 N 0.43279 0.97991 0.73405 0.0
N1415 N 0.39283 0.0157 0.76089 0.0
H1416 H 0.69472 0.88371 0.97016 0.0
H1417 H 0.83892 0.8358 0.02102 0.0
H1418 H 0.78902 0.80201 0.96708 0.0
H1419 H 0.72204 0.87665 0.02656 0.0
H1420 H 0.82454 0.82986 0.00078 0.0
H1421 H 0.70711 0.88752 0.99057 0.0
C1422 C 0.71775 0.86628 0.97375 0.0
C1423 C 0.74101 0.84271 0.96681 0.0
C1424 C 0.80213 0.84017 0.00646 0.0
C1425 C 0.7559 0.84778 0.99014 0.0
C1426 C 0.81026 0.84349 0.01803 0.0
C1427 C 0.78179 0.85694 0.02558 0.0
C1428 C 0.76541 0.85077 0.00236 0.0
C1429 C 0.74532 0.86702 0.0211 0.0
C1430 C 0.72496 0.8687 0.9854 0.0
C1431 C 0.77086 0.8213 0.972 0.0
N1432 N 0.73825 0.86386 0.0098 0.0
N1433 N 0.77762 0.82458 0.98331 0.0
H1434 H 0.94914 0.08274 0.77246 0.0
H1435 H 0.84685 0.98731 0.71825 0.0
H1436 H 0.84349 0.01636 0.77439 0.0
H1437 H 0.96534 0.02709 0.71841 0.0
H1438 H 0.84128 0.00535 0.73829 0.0
H1439 H 0.95106 0.07128 0.75196 0.0
C1440 C 0.926 0.06633 0.76853 0.0
C1441 C 0.89621 0.05032 0.77512 0.0
C1442 C 0.8685 0.01009 0.73394 0.0
C1443 C 0.89846 0.03669 0.75174 0.0
C1444 C 0.87166 0.99989 0.72251 0.0
C1445 C 0.90668 0.00551 0.7167 0.0
C1446 C 0.90046 0.02643 0.73955 0.0
C1447 C 0.938 0.02174 0.72263 0.0
C1448 C 0.92732 0.05946 0.75686 0.0
C1449 C 0.8672 0.02885 0.76962 0.0
N1450 N 0.93412 0.03174 0.73372 0.0
N1451 N 0.8691 0.02257 0.75826 0.0
H1452 H 0.79133 0.14782 0.52565 0.0
H1453 H 0.70553 0.13194 0.46312 0.0
H1454 H 0.6686 0.15055 0.51876 0.0
H1455 H 0.81982 0.17752 0.46994 0.0
H1456 H 0.69331 0.12928 0.48346 0.0
H1457 H 0.80408 0.1489 0.50521 0.0
C1458 C 0.76707 0.14828 0.51981 0.0
C1459 C 0.72883 0.14889 0.52387 0.0
C1460 C 0.72102 0.1399 0.48048 0.0
C1461 C 0.74322 0.15016 0.50052 0.0
C1462 C 0.72804 0.1417 0.46884 0.0
C1463 C 0.76369 0.15551 0.4647 0.0
C1464 C 0.75 0.15131 0.48811 0.0
C1465 C 0.79205 0.16637 0.47266 0.0
C1466 C 0.77438 0.14919 0.50817 0.0
C1467 C 0.69848 0.15013 0.51596 0.0
N1468 N 0.78461 0.16399 0.48398 0.0
N1469 N 0.70631 0.15049 0.50465 0.0
H1470 H 0.65143 0.97155 0.27028 0.0
H1471 H 0.51619 0.98681 0.21562 0.0
H1472 H 0.52739 0.95538 0.2719 0.0
H1473 H 0.62571 0.04617 0.21841 0.0
H1474 H 0.52214 0.96663 0.23551 0.0
H1475 H 0.64501 0.99022 0.25039 0.0
C1476 C 0.62283 0.97187 0.2665 0.0
C1477 C 0.58989 0.96204 0.27289 0.0
C1478 C 0.54475 0.98422 0.23178 0.0
C1479 C 0.58256 0.98277 0.25 0.0
C1480 C 0.54141 0.99565 0.22045 0.0
C1481 C 0.57042 0.01833 0.21542 0.0
C1482 C 0.57769 0.99494 0.23803 0.0
C1483 C 0.6025 0.02908 0.22203 0.0
C1484 C 0.61926 0.98247 0.25512 0.0
C1485 C 0.55374 0.96213 0.26735 0.0
N1486 N 0.60542 0.01705 0.23297 0.0
N1487 N 0.55106 0.97234 0.25624 0.0
H1488 H 0.73306 0.60927 0.53312 0.0
H1489 H 0.75423 0.71405 0.47341 0.0
H1490 H 0.81513 0.70132 0.52742 0.0
H1491 H 0.71073 0.59749 0.47659 0.0
H1492 H 0.77111 0.7135 0.49361 0.0
H1493 H 0.71942 0.60744 0.51273 0.0
C1494 C 0.7483 0.62897 0.52754 0.0
C1495 C 0.77517 0.65554 0.5319 0.0
C1496 C 0.75793 0.68804 0.48987 0.0
C1497 C 0.75943 0.65396 0.50866 0.0
C1498 C 0.74797 0.68846 0.4784 0.0
C1499 C 0.73087 0.65582 0.47338 0.0
C1500 C 0.7502 0.65495 0.4964 0.0
C1501 C 0.72394 0.62319 0.48016 0.0
C1502 C 0.74061 0.62784 0.51592 0.0
C1503 C 0.79436 0.68029 0.52434 0.0
N1504 N 0.73338 0.62366 0.49136 0.0
N1505 N 0.7858 0.6792 0.51308 0.0
H1506 H 0.54144 0.516 0.72356 0.0
H1507 H 0.64028 0.47135 0.7834 0.0
H1508 H 0.64062 0.44081 0.72737 0.0
H1509 H 0.55775 0.56354 0.77824 0.0
H1510 H 0.63946 0.4581 0.76303 0.0
H1511 H 0.54507 0.53159 0.74371 0.0
C1512 C 0.56411 0.50283 0.72861 0.0
C1513 C 0.59092 0.47717 0.7237 0.0
C1514 C 0.62171 0.48139 0.76632 0.0
C1515 C 0.59491 0.49465 0.74689 0.0
C1516 C 0.6221 0.48891 0.77795 0.0
C1517 C 0.59885 0.51845 0.78251 0.0
C1518 C 0.59762 0.50331 0.75919 0.0
C1519 C 0.57623 0.54064 0.77506 0.0
C1520 C 0.56609 0.51173 0.74014 0.0
C1521 C 0.61907 0.46039 0.73078 0.0
N1522 N 0.57591 0.5324 0.76377 0.0
N1523 N 0.62032 0.46944 0.742 0.0
H1524 H 0.7792 0.29135 0.97399 0.0
H1525 H 0.72878 0.42399 0.02776 0.0
H1526 H 0.79257 0.41564 0.97446 0.0
H1527 H 0.72196 0.29919 0.02802 0.0
H1528 H 0.75011 0.42157 0.00801 0.0
H1529 H 0.7576 0.29357 0.9937 0.0
C1530 C 0.77813 0.31908 0.97828 0.0
C1531 C 0.78785 0.35338 0.97255 0.0
C1532 C 0.74378 0.39471 0.01236 0.0
C1533 C 0.76225 0.35618 0.99508 0.0
C1534 C 0.73161 0.39607 0.02364 0.0
C1535 C 0.72361 0.36175 0.02957 0.0
C1536 C 0.74809 0.35873 0.00694 0.0
C1537 C 0.72732 0.32642 0.02376 0.0
C1538 C 0.7654 0.32035 0.98951 0.0
C1539 C 0.78503 0.38852 0.9785 0.0
N1540 N 0.73946 0.32582 0.01279 0.0
N1541 N 0.77243 0.38901 0.98942 0.0
H1542 H 0.83554 0.49879 0.28071 0.0
H1543 H 0.95788 0.49607 0.22336 0.0
H1544 H 0.94573 0.44084 0.27746 0.0
H1545 H 0.83776 0.5305 0.22475 0.0
H1546 H 0.95455 0.4773 0.24333 0.0
H1547 H 0.83559 0.51097 0.26027 0.0
C1548 C 0.85955 0.48829 0.27565 0.0
C1549 C 0.89078 0.46896 0.28076 0.0
C1550 C 0.92888 0.48887 0.23927 0.0
C1551 C 0.8913 0.48317 0.25743 0.0
C1552 C 0.93088 0.49997 0.22791 0.0
C1553 C 0.89811 0.51515 0.22243 0.0
C1554 C 0.89395 0.49326 0.24523 0.0
C1555 C 0.86365 0.51882 0.22866 0.0
C1556 C 0.85957 0.49521 0.26399 0.0
C1557 C 0.921 0.45565 0.27383 0.0
N1558 N 0.86253 0.50816 0.23975 0.0
N1559 N 0.92074 0.46341 0.26252 0.0
H1560 H 0.29087 0.41374 0.52568 0.0
H1561 H 0.23438 0.28134 0.47247 0.0
H1562 H 0.28052 0.28928 0.52744 0.0
H1563 H 0.22557 0.40609 0.4725 0.0
H1564 H 0.25417 0.28345 0.49235 0.0
H1565 H 0.27126 0.41128 0.50577 0.0
C1566 C 0.2846 0.38587 0.52188 0.0
C1567 C 0.2873 0.35168 0.52827 0.0
C1568 C 0.24775 0.31035 0.48802 0.0
C1569 C 0.26493 0.34865 0.50546 0.0
C1570 C 0.23607 0.30917 0.47668 0.0
C1571 C 0.22817 0.34361 0.47078 0.0
C1572 C 0.2518 0.34624 0.4935 0.0
C1573 C 0.23179 0.37884 0.47665 0.0
C1574 C 0.27342 0.38449 0.51051 0.0
C1575 C 0.27937 0.31635 0.52283 0.0
N1576 N 0.24344 0.37924 0.48767 0.0
N1577 N 0.26844 0.31577 0.51175 0.0
H1578 H 0.45282 0.53417 0.21878 0.0
H1579 H 0.36177 0.47141 0.27843 0.0
H1580 H 0.36348 0.44748 0.22209 0.0
H1581 H 0.44503 0.56364 0.27459 0.0
H1582 H 0.3619 0.46208 0.25787 0.0
H1583 H 0.4507 0.54471 0.23922 0.0
C1584 C 0.4326 0.51742 0.2238 0.0
C1585 C 0.40806 0.49007 0.21866 0.0
C1586 C 0.38003 0.48446 0.26151 0.0
C1587 C 0.40577 0.50182 0.24219 0.0
C1588 C 0.38007 0.48975 0.27325 0.0
C1589 C 0.40366 0.51819 0.27825 0.0
C1590 C 0.40387 0.50767 0.25468 0.0
C1591 C 0.42622 0.54155 0.2711 0.0
C1592 C 0.43151 0.5234 0.2355 0.0
C1593 C 0.38313 0.46864 0.22567 0.0
N1594 N 0.42595 0.53561 0.25969 0.0
N1595 N 0.38256 0.47505 0.23707 0.0
H1596 H 0.21944 0.5898 0.02403 0.0
H1597 H 0.27282 0.716 0.96927 0.0
H1598 H 0.22176 0.7148 0.0237 0.0
H1599 H 0.28495 0.59163 0.97067 0.0
H1600 H 0.25139 0.71587 0.98897 0.0
H1601 H 0.23951 0.58958 0.00413 0.0
C1602 C 0.22398 0.6172 0.01976 0.0
C1603 C 0.21887 0.65236 0.02557 0.0
C1604 C 0.25886 0.6886 0.98499 0.0
C1605 C 0.24184 0.65231 0.00278 0.0
C1606 C 0.2715 0.68867 0.97375 0.0
C1607 C 0.28097 0.65377 0.96829 0.0
C1608 C 0.25545 0.65337 0.99084 0.0
C1609 C 0.27765 0.61919 0.97449 0.0
C1610 C 0.23543 0.61704 0.0084 0.0
C1611 C 0.22472 0.68698 0.01956 0.0
N1612 N 0.26512 0.61987 0.98543 0.0
N1613 N 0.23602 0.68606 0.00852 0.0
H1614 H 0.14232 0.52401 0.77657 0.0
H1615 H 0.03562 0.47494 0.71801 0.0
H1616 H 0.05667 0.43379 0.77326 0.0
H1617 H 0.1289 0.5575 0.72123 0.0
H1618 H 0.04318 0.45859 0.73809 0.0
H1619 H 0.13863 0.53538 0.75616 0.0
C1620 C 0.12287 0.50643 0.77151 0.0
C1621 C 0.09953 0.47813 0.77662 0.0
C1622 C 0.062 0.48026 0.73439 0.0
C1623 C 0.09496 0.49109 0.75322 0.0
C1624 C 0.05776 0.48958 0.72292 0.0
C1625 C 0.08154 0.51781 0.7179 0.0
C1626 C 0.09019 0.49932 0.74092 0.0
C1627 C 0.10941 0.5361 0.72474 0.0
C1628 C 0.12079 0.51289 0.75985 0.0
C1629 C 0.07526 0.45579 0.76965 0.0
N1630 N 0.1129 0.52657 0.73588 0.0
N1631 N 0.07332 0.463 0.75831 0.0
H1632 H 0.25429 0.82048 0.09233 0.0
H1633 H 0.29477 0.02535 0.06265 0.0
H1634 H 0.26142 0.83657 0.05615 0.0
H1635 H 0.32505 1.00239 0.0975 0.0
H1636 H 0.27333 0.95818 0.06064 0.0
H1637 H 0.27025 0.88952 0.09499 0.0
C1638 C 0.25856 0.83875 0.08497 0.0
C1639 C 0.25671 0.82299 0.07401 0.0
C1640 C 0.28475 0.96777 0.06873 0.0
C1641 C 0.27504 0.90136 0.07693 0.0
C1642 C 0.29693 0.00609 0.06987 0.0
C1643 C 0.31196 0.01938 0.08023 0.0
C1644 C 0.2871 0.9425 0.07804 0.0
C1645 C 0.31422 0.99316 0.08932 0.0
C1646 C 0.26803 0.87791 0.08647 0.0
C1647 C 0.26292 0.84764 0.06473 0.0
N1648 N 0.30175 0.95598 0.08804 0.0
N1649 N 0.27179 0.88551 0.06639 0.0
H1650 H 0.45546 0.06102 0.33415 0.0
H1651 H 0.23369 0.99607 0.33656 0.0
H1652 H 0.41941 0.94231 0.33082 0.0
H1653 H 0.27263 0.11426 0.33988 0.0
H1654 H 0.30111 0.97448 0.3367 0.0
H1655 H 0.38911 0.07937 0.33897 0.0
C1656 C 0.43347 0.03872 0.33468 0.0
C1657 C 0.44267 1.00018 0.33208 0.0
C1658 C 0.2949 0.0051 0.33748 0.0
C1659 C 0.3663 0.02094 0.33728 0.0
C1660 C 0.25634 0.01757 0.3373 0.0
C1661 C 0.24734 0.05725 0.33799 0.0
C1662 C 0.32484 0.03245 0.33834 0.0
C1663 C 0.27807 0.08347 0.33931 0.0
C1664 C 0.39557 0.04917 0.33736 0.0
C1665 C 0.41334 0.97227 0.33285 0.0
N1666 N 0.31535 0.07065 0.33933 0.0
N1667 N 0.37623 0.98328 0.33522 0.0
H1668 H 0.30304 0.17965 0.58187 0.0
H1669 H 0.13673 0.01851 0.58791 0.0
H1670 H 0.1808 0.20411 0.58369 0.0
H1671 H 0.25693 0.99003 0.5822 0.0
H1672 H 0.15416 0.08684 0.5888 0.0
H1673 H 0.2887 0.11027 0.58451 0.0
C1674 C 0.27333 0.17042 0.58303 0.0
C1675 C 0.24301 0.1974 0.58245 0.0
C1676 C 0.1768 0.06568 0.58738 0.0
C1677 C 0.2263 0.11865 0.58537 0.0
C1678 C 0.16684 0.02656 0.58692 0.0
C1679 C 0.19524 0.99835 0.58486 0.0
C1680 C 0.21556 0.07695 0.58579 0.0
C1681 C 0.23385 0.01071 0.58355 0.0
C1682 C 0.26509 0.13093 0.58444 0.0
C1683 C 0.20493 0.1841 0.58392 0.0
N1684 N 0.24285 0.04908 0.584 0.0
N1685 N 0.19767 0.14578 0.58525 0.0
H1686 H 0.27742 0.00662 0.83811 0.0
H1687 H 0.05928 0.93374 0.83297 0.0
H1688 H 0.24354 0.8867 0.84048 0.0
H1689 H 0.08993 0.05445 0.83392 0.0
H1690 H 0.1259 0.91663 0.83789 0.0
H1691 H 0.20916 0.0254 0.83841 0.0
C1692 C 0.25564 0.98418 0.83869 0.0
C1693 C 0.26626 0.94487 0.83905 0.0
C1694 C 0.11816 0.94693 0.83722 0.0
C1695 C 0.18785 0.96633 0.83953 0.0
C1696 C 0.08012 0.95664 0.83444 0.0
C1697 C 0.06936 0.99549 0.83302 0.0
C1698 C 0.14601 0.97629 0.83838 0.0
C1699 C 0.09721 0.0242 0.83502 0.0
C1700 C 0.21662 0.995 0.83897 0.0
C1701 C 0.23672 0.91726 0.84016 0.0
N1702 N 0.13452 0.01401 0.83742 0.0
N1703 N 0.19892 0.92847 0.84022 0.0
H1704 H 0.25511 0.17914 0.40266 0.0
H1705 H 0.30063 0.97732 0.43359 0.0
H1706 H 0.25692 0.16415 0.43891 0.0
H1707 H 0.33108 0.99949 0.39872 0.0
H1708 H 0.27568 0.0434 0.43514 0.0
H1709 H 0.27273 0.1103 0.40037 0.0
C1710 C 0.25829 0.161 0.41009 0.0
C1711 C 0.25459 0.17695 0.42098 0.0
C1712 C 0.28794 0.03391 0.42715 0.0
C1713 C 0.2751 0.09908 0.41851 0.0
C1714 C 0.30221 0.99625 0.42628 0.0
C1715 C 0.31824 0.98307 0.41606 0.0
C1716 C 0.28928 0.05859 0.41769 0.0
C1717 C 0.31958 0.00875 0.40682 0.0
C1718 C 0.26877 0.12203 0.40882 0.0
C1719 C 0.25961 0.1527 0.43039 0.0
N1720 N 0.30513 0.04528 0.40783 0.0
N1721 N 0.26971 0.11506 0.42896 0.0
H1722 H 0.0893 0.97671 0.67004 0.0
H1723 H 0.26006 0.12182 0.65317 0.0
H1724 H 0.06925 0.09304 0.65825 0.0
H1725 H 0.27533 0.02721 0.67678 0.0
H1726 H 0.19126 0.10664 0.65218 0.0
H1727 H 0.15961 0.98867 0.6692 0.0
C1728 C 0.09985 0.00443 0.66707 0.0
C1729 C 0.07383 0.03405 0.66427 0.0
C1730 C 0.20984 0.08923 0.65755 0.0
C1731 C 0.15337 0.04803 0.66334 0.0
C1732 C 0.24922 0.09806 0.65821 0.0
C1733 C 0.27409 0.07575 0.66504 0.0
C1734 C 0.1951 0.05767 0.66367 0.0
C1735 C 0.25782 0.04491 0.67123 0.0
C1736 C 0.13974 0.01141 0.6667 0.0
C1737 C 0.08862 0.06969 0.66057 0.0
N1738 N 0.21945 0.03669 0.67035 0.0
N1739 N 0.12742 0.07575 0.66023 0.0
H1740 H 0.18456 0.80515 0.91297 0.0
H1741 H 0.26668 0.02144 0.91285 0.0
H1742 H 0.3064 0.83117 0.9151 0.0
H1743 H 0.1455 0.99257 0.90971 0.0
H1744 H 0.2826 0.95253 0.91259 0.0
H1745 H 0.17069 0.87373 0.91025 0.0
C1746 C 0.20845 0.82545 0.91277 0.0
C1747 C 0.24664 0.81263 0.91438 0.0
C1748 C 0.25254 0.96127 0.91192 0.0
C1749 C 0.23102 0.89151 0.91137 0.0
C1750 C 0.24333 1.00067 0.91217 0.0
C1751 C 0.20453 0.01295 0.91145 0.0
C1752 C 0.22278 0.93378 0.91095 0.0
C1753 C 0.17574 0.98456 0.91027 0.0
C1754 C 0.20055 0.86463 0.91121 0.0
C1755 C 0.2766 0.83998 0.91387 0.0
N1756 N 0.18543 0.94639 0.91013 0.0
N1757 N 0.26813 0.87829 0.91254 0.0
H1758 H 0.23622 0.96106 0.1833 0.0
H1759 H 0.41914 0.98357 0.1431 0.0
H1760 H 0.25025 0.89679 0.15218 0.0
H1761 H 0.42481 0.01316 0.17858 0.0
H1762 H 0.35601 0.9534 0.14624 0.0
H1763 H 0.304 0.98228 0.18188 0.0
C1764 C 0.25365 0.95116 0.17624 0.0
C1765 C 0.23748 0.92716 0.16784 0.0
C1766 C 0.37111 0.96613 0.15339 0.0
C1767 C 0.31476 0.95154 0.16611 0.0
C1768 C 0.40703 0.98348 0.15158 0.0
C1769 C 0.42701 1.00096 0.16058 0.0
C1770 C 0.35452 0.96686 0.16426 0.0
C1771 C 0.4103 0.99979 0.17144 0.0
C1772 C 0.29231 0.96311 0.17545 0.0
C1773 C 0.26146 0.91494 0.15891 0.0
N1774 N 0.37469 0.98348 0.17296 0.0
N1775 N 0.29865 0.92763 0.15821 0.0
H1776 H 0.7239 0.98256 0.934 0.0
H1777 H 0.7637 0.18804 0.90461 0.0
H1778 H 0.68812 0.0086 0.89979 0.0
H1779 H 0.76185 0.17052 0.94077 0.0
H1780 H 0.7474 0.11909 0.9019 0.0
H1781 H 0.74824 0.0488 0.93595 0.0
C1782 C 0.72112 1.00232 0.92692 0.0
C1783 C 0.70366 0.99023 0.91677 0.0
C1784 C 0.75104 0.13031 0.91042 0.0
C1785 C 0.73187 0.06588 0.91886 0.0
C1786 C 0.76074 0.16937 0.91194 0.0
C1787 C 0.76404 0.18463 0.92292 0.0
C1788 C 0.74519 0.10655 0.91996 0.0
C1789 C 0.75938 0.15964 0.93218 0.0
C1790 C 0.735 0.04006 0.92802 0.0
C1791 C 0.70076 0.01697 0.90783 0.0
N1792 N 0.75013 0.12189 0.93051 0.0
N1793 N 0.71486 0.05354 0.90906 0.0
H1794 H 0.75949 0.88421 0.65998 0.0
H1795 H 0.58249 0.03289 0.65468 0.0
H1796 H 0.77715 0.00685 0.65541 0.0
H1797 H 0.57471 0.9192 0.66975 0.0
H1798 H 0.65275 0.02343 0.65257 0.0
H1799 H 0.68959 0.89532 0.66053 0.0
C1800 C 0.74859 0.91341 0.65898 0.0
C1801 C 0.77409 0.94465 0.65778 0.0
C1802 C 0.63541 1.00064 0.65631 0.0
C1803 C 0.69426 0.95777 0.6585 0.0
C1804 C 0.59539 0.00609 0.65756 0.0
C1805 C 0.5724 0.97659 0.66224 0.0
C1806 C 0.65227 0.96541 0.65969 0.0
C1807 C 0.59082 0.94237 0.6658 0.0
C1808 C 0.70876 0.91983 0.65939 0.0
C1809 C 0.75846 0.98204 0.65659 0.0
N1810 N 0.62946 0.9377 0.6644 0.0
N1811 N 0.71948 0.98761 0.657 0.0
H1812 H 0.86443 0.9909 0.40463 0.0
H1813 H 0.70776 0.83143 0.42238 0.0
H1814 H 0.76283 0.01746 0.42467 0.0
H1815 H 0.8261 0.80446 0.41393 0.0
H1816 H 0.7221 0.90073 0.4196 0.0
H1817 H 0.84609 0.92297 0.40489 0.0
C1818 C 0.83841 0.9828 0.40913 0.0
C1819 C 0.81528 0.01062 0.41463 0.0
C1820 C 0.74476 0.87953 0.41823 0.0
C1821 C 0.79368 0.93233 0.4147 0.0
C1822 C 0.73645 0.84018 0.4197 0.0
C1823 C 0.7659 0.81262 0.41841 0.0
C1824 C 0.78259 0.89098 0.41531 0.0
C1825 C 0.8028 0.8251 0.41506 0.0
C1826 C 0.82782 0.94382 0.40919 0.0
C1827 C 0.7815 0.99764 0.42016 0.0
N1828 N 0.81017 0.86337 0.41366 0.0
N1829 N 0.77172 0.95953 0.42003 0.0
H1830 H 0.93587 0.05676 0.15057 0.0
H1831 H 0.72618 0.99645 0.17391 0.0
H1832 H 0.92012 0.95931 0.17288 0.0
H1833 H 0.75396 0.10498 0.15781 0.0
H1834 H 0.79398 0.97557 0.17125 0.0
H1835 H 0.86602 0.06697 0.1503 0.0
C1836 C 0.91747 0.03719 0.15531 0.0
C1837 C 0.93373 0.00747 0.16186 0.0
C1838 C 0.78505 0.00387 0.16828 0.0
C1839 C 0.85344 0.01929 0.16178 0.0
C1840 C 0.74645 0.01573 0.16977 0.0
C1841 C 0.73458 0.05274 0.16623 0.0
C1842 C 0.81162 0.02902 0.16304 0.0
C1843 C 0.76195 0.0766 0.1609 0.0
C1844 C 0.87758 0.04307 0.1552 0.0
C1845 C 0.90859 0.98253 0.16772 0.0
N1846 N 0.79899 0.06436 0.15949 0.0
N1847 N 0.86959 0.9893 0.16768 0.0
H1848 H 0.69763 0.81424 0.60296 0.0
H1849 H 0.73998 0.0129 0.57164 0.0
H1850 H 0.79073 0.82749 0.57896 0.0
H1851 H 0.67314 0.00583 0.60258 0.0
H1852 H 0.7585 0.94536 0.57401 0.0
H1853 H 0.68834 0.88448 0.60303 0.0
C1854 C 0.71649 0.83217 0.59783 0.0
C1855 C 0.74488 0.81523 0.59092 0.0
C1856 C 0.74002 0.95874 0.58032 0.0
C1857 C 0.73397 0.89549 0.59074 0.0
C1858 C 0.72938 0.99751 0.57899 0.0
C1859 C 0.70483 0.01564 0.58692 0.0
C1860 C 0.72566 0.93751 0.58954 0.0
C1861 C 0.69162 0.9934 0.59614 0.0
C1862 C 0.71119 0.8722 0.59786 0.0
C1863 C 0.7687 0.83958 0.58445 0.0
N1864 N 0.702 0.95555 0.59715 0.0
N1865 N 0.76232 0.87851 0.58438 0.0
H1866 H 0.76053 0.9244 0.34785 0.0
H1867 H 0.92343 0.03021 0.31091 0.0
H1868 H 0.742 0.96985 0.31418 0.0
H1869 H 0.94267 0.99435 0.34538 0.0
H1870 H 0.85494 0.01311 0.31273 0.0
H1871 H 0.82592 0.9522 0.34774 0.0
C1872 C 0.7702 0.94002 0.34042 0.0
C1873 C 0.74565 0.94465 0.33099 0.0
C1874 C 0.87377 0.00956 0.32001 0.0
C1875 C 0.82029 0.97702 0.33087 0.0
C1876 C 0.9127 0.01972 0.31898 0.0
C1877 C 0.93823 0.01417 0.32806 0.0
C1878 C 0.86037 0.99284 0.33015 0.0
C1879 C 0.92348 0.99965 0.33829 0.0
C1880 C 0.80742 0.95622 0.3404 0.0
C1881 C 0.75964 0.9658 0.32168 0.0
N1882 N 0.88552 0.98897 0.33902 0.0
N1883 N 0.79593 0.98099 0.32185 0.0
H1884 H 0.81994 0.0171 0.10258 0.0
H1885 H 0.72969 0.18459 0.06366 0.0
H1886 H 0.79493 0.00635 0.06684 0.0
H1887 H 0.75935 0.20325 0.09868 0.0
H1888 H 0.74648 0.11624 0.06564 0.0
H1889 H 0.79426 0.08353 0.10213 0.0
C1890 C 0.80943 0.02882 0.09463 0.0
C1891 C 0.80947 0.00616 0.08473 0.0
C1892 C 0.74886 0.13493 0.07299 0.0
C1893 C 0.77944 0.08147 0.08421 0.0
C1894 C 0.73882 0.17373 0.07186 0.0
C1895 C 0.74283 0.199 0.08105 0.0
C1896 C 0.7638 0.12141 0.08335 0.0
C1897 C 0.75542 0.18417 0.09148 0.0
C1898 C 0.79441 0.06652 0.09441 0.0
C1899 C 0.795 0.02257 0.0747 0.0
N1900 N 0.76599 0.14625 0.09234 0.0
N1901 N 0.78058 0.05906 0.07471 0.0
H1902 H 0.77598 0.00736 0.83967 0.0
H1903 H 0.57738 0.03696 0.80805 0.0
H1904 H 0.74581 0.11432 0.82305 0.0
H1905 H 0.57649 0.97838 0.8404 0.0
H1906 H 0.64484 0.05401 0.81101 0.0
H1907 H 0.70791 0.98616 0.83805 0.0
C1908 C 0.75494 0.02635 0.83572 0.0
C1909 C 0.76633 0.06263 0.83146 0.0
C1910 C 0.6299 0.03741 0.81746 0.0
C1911 C 0.6893 0.03835 0.82941 0.0
C1912 C 0.59125 0.02768 0.81582 0.0
C1913 C 0.57062 0.00712 0.82415 0.0
C1914 C 0.64883 0.02581 0.82739 0.0
C1915 C 0.59108 0.99448 0.8338 0.0
C1916 C 0.71629 0.01433 0.83486 0.0
C1917 C 0.7381 0.08631 0.82649 0.0
N1918 N 0.6292 0.00413 0.83518 0.0
N1919 N 0.70102 0.07354 0.82545 0.0
H1920 H 0.76528 0.31451 0.59107 0.0
H1921 H 0.8021 0.52258 0.56312 0.0
H1922 H 0.77065 0.33364 0.55498 0.0
H1923 H 0.83833 0.49484 0.59717 0.0
H1924 H 0.78062 0.45553 0.56058 0.0
H1925 H 0.78133 0.38328 0.59416 0.0
C1926 C 0.76919 0.3334 0.58383 0.0
C1927 C 0.76683 0.3186 0.57277 0.0
C1928 C 0.79338 0.46407 0.5686 0.0
C1929 C 0.78521 0.39664 0.57618 0.0
C1930 C 0.8056 0.50227 0.57004 0.0
C1931 C 0.82231 0.51411 0.58032 0.0
C1932 C 0.79733 0.43758 0.57757 0.0
C1933 C 0.82619 0.48669 0.58904 0.0
C1934 C 0.7787 0.37239 0.58557 0.0
C1935 C 0.77256 0.344 0.56364 0.0
N1936 N 0.8136 0.4497 0.5875 0.0
N1937 N 0.78146 0.38173 0.56554 0.0
H1938 H 0.75376 0.60766 0.84845 0.0
H1939 H 0.92343 0.47409 0.82342 0.0
H1940 H 0.73605 0.52599 0.82116 0.0
H1941 H 0.94252 0.5732 0.84491 0.0
H1942 H 0.85311 0.48565 0.82463 0.0
H1943 H 0.82196 0.58984 0.84893 0.0
C1944 C 0.76413 0.58627 0.84247 0.0
C1945 C 0.73887 0.56849 0.83471 0.0
C1946 C 0.87273 0.50461 0.82917 0.0
C1947 C 0.81721 0.54725 0.83541 0.0
C1948 C 0.91267 0.49774 0.82857 0.0
C1949 C 0.93853 0.52294 0.834 0.0
C1950 C 0.85885 0.53664 0.83534 0.0
C1951 C 0.9234 0.55346 0.84049 0.0
C1952 C 0.80314 0.57581 0.84283 0.0
C1953 C 0.75421 0.54024 0.82736 0.0
N1954 N 0.88462 0.55957 0.84094 0.0
N1955 N 0.79235 0.5305 0.82789 0.0
H1956 H 0.74934 0.70709 0.09539 0.0
H1957 H 0.69521 0.50292 0.06727 0.0
H1958 H 0.73218 0.68848 0.05959 0.0
H1959 H 0.68452 0.52367 0.10321 0.0
H1960 H 0.71595 0.56967 0.06464 0.0
H1961 H 0.73381 0.63834 0.09883 0.0
C1962 C 0.74292 0.68832 0.08828 0.0
C1963 C 0.74176 0.70322 0.07721 0.0
C1964 C 0.709 0.55981 0.07312 0.0
C1965 C 0.72384 0.62541 0.08101 0.0
C1966 C 0.69722 0.52167 0.07461 0.0
C1967 C 0.68814 0.50781 0.08546 0.0
C1968 C 0.71197 0.5845 0.08255 0.0
C1969 C 0.69086 0.53343 0.09469 0.0
C1970 C 0.73371 0.64936 0.09023 0.0
C1971 C 0.73293 0.67806 0.06825 0.0
N1972 N 0.70272 0.57063 0.09304 0.0
N1973 N 0.72426 0.64049 0.07034 0.0
H1974 H 0.75597 0.39626 0.35178 0.0
H1975 H 0.58189 0.52494 0.3274 0.0
H1976 H 0.76887 0.47653 0.3239 0.0
H1977 H 0.56431 0.4191 0.34604 0.0
H1978 H 0.65231 0.51553 0.32901 0.0
H1979 H 0.68681 0.41084 0.35223 0.0
C1980 C 0.7445 0.41676 0.34571 0.0
C1981 C 0.76875 0.43515 0.3378 0.0
C1982 C 0.63298 0.49457 0.33283 0.0
C1983 C 0.68945 0.45262 0.33849 0.0
C1984 C 0.59295 0.50016 0.33201 0.0
C1985 C 0.5675 0.47257 0.33651 0.0
C1986 C 0.64744 0.46142 0.33833 0.0
C1987 C 0.58311 0.44071 0.34233 0.0
C1988 C 0.70494 0.42528 0.34605 0.0
C1989 C 0.75181 0.46198 0.33029 0.0
N1990 N 0.62208 0.43592 0.34304 0.0
N1991 N 0.71332 0.46995 0.33084 0.0
H1992 H 0.85268 0.49941 0.89444 0.0
H1993 H 0.72337 0.675 0.91773 0.0
H1994 H 0.77906 0.49128 0.92399 0.0
H1995 H 0.82063 0.68933 0.89524 0.0
H1996 H 0.73289 0.60442 0.91699 0.0
H1997 H 0.83192 0.56636 0.89193 0.0
C1998 C 0.83225 0.51151 0.90043 0.0
C1999 C 0.81794 0.48941 0.90951 0.0
C2000 C 0.75176 0.62303 0.91208 0.0
C2001 C 0.79343 0.56614 0.90652 0.0
C2002 C 0.74604 0.66313 0.91241 0.0
C2003 C 0.77149 0.68774 0.90662 0.0
C2004 C 0.78289 0.60769 0.90581 0.0
C2005 C 0.80074 0.67116 0.89993 0.0
C2006 C 0.82016 0.54975 0.89892 0.0
C2007 C 0.79074 0.50682 0.91681 0.0
N2008 N 0.80584 0.63219 0.89977 0.0
N2009 N 0.77951 0.54412 0.91518 0.0
H2010 H 0.75323 0.59917 0.14627 0.0
H2011 H 0.5752 0.47291 0.16901 0.0
H2012 H 0.7601 0.52068 0.17476 0.0
H2013 H 0.56149 0.57569 0.14866 0.0
H2014 H 0.64579 0.48003 0.16763 0.0
H2015 H 0.68495 0.58216 0.14401 0.0
C2016 C 0.74057 0.57844 0.15206 0.0
C2017 C 0.76266 0.5615 0.16075 0.0
C2018 C 0.62728 0.50074 0.16335 0.0
C2019 C 0.68474 0.54134 0.15804 0.0
C2020 C 0.58714 0.49646 0.16406 0.0
C2021 C 0.56278 0.52409 0.15908 0.0
C2022 C 0.64288 0.53267 0.15755 0.0
C2023 C 0.57949 0.55425 0.1528 0.0
C2024 C 0.70164 0.56852 0.1507 0.0
C2025 C 0.74459 0.5342 0.16784 0.0
N2026 N 0.61857 0.55795 0.15227 0.0
N2027 N 0.70673 0.52506 0.16634 0.0
H2028 H 0.69745 0.31479 0.39198 0.0
H2029 H 0.73429 0.50968 0.42621 0.0
H2030 H 0.78423 0.32526 0.41807 0.0
H2031 H 0.66182 0.50306 0.39638 0.0
H2032 H 0.75557 0.44338 0.42278 0.0
H2033 H 0.68761 0.38483 0.39252 0.0
C2034 C 0.71491 0.33213 0.39768 0.0
C2035 C 0.74144 0.31444 0.40505 0.0
C2036 C 0.73522 0.45653 0.41694 0.0
C2037 C 0.72985 0.39439 0.40594 0.0
C2038 C 0.72303 0.49448 0.41888 0.0
C2039 C 0.69605 0.51216 0.4116 0.0
C2040 C 0.72012 0.43582 0.4077 0.0
C2041 C 0.6821 0.49061 0.40235 0.0
C2042 C 0.70926 0.37204 0.39802 0.0
C2043 C 0.76361 0.33798 0.41224 0.0
N2044 N 0.69415 0.45355 0.4007 0.0
N2045 N 0.75686 0.37679 0.41265 0.0
H2046 H 0.74366 0.46348 0.68744 0.0
H2047 H 0.9277 0.47095 0.64709 0.0
H2048 H 0.75872 0.38796 0.65861 0.0
H2049 H 0.93291 0.51316 0.68146 0.0
H2050 H 0.86425 0.44259 0.65103 0.0
H2051 H 0.81138 0.48448 0.68542 0.0
C2052 C 0.76127 0.4511 0.68076 0.0
C2053 C 0.74542 0.4239 0.67319 0.0
C2054 C 0.87931 0.45771 0.65777 0.0
C2055 C 0.82264 0.44799 0.67077 0.0
C2056 C 0.91543 0.47399 0.65551 0.0
C2057 C 0.9354 0.49443 0.66396 0.0
C2058 C 0.86249 0.46248 0.66853 0.0
C2059 C 0.91843 0.49737 0.67475 0.0
C2060 C 0.79991 0.46295 0.67965 0.0
C2061 C 0.76965 0.40862 0.66472 0.0
N2062 N 0.88264 0.482 0.67671 0.0
N2063 N 0.80678 0.42118 0.66367 0.0
H2064 H 0.17384 0.68617 0.42054 0.0
H2065 H 0.25421 0.47423 0.40945 0.0
H2066 H 0.28562 0.66928 0.40489 0.0
H2067 H 0.13271 0.50273 0.41121 0.0
H2068 H 0.26984 0.54367 0.4098 0.0
H2069 H 0.16237 0.61708 0.4197 0.0
C2070 C 0.19597 0.66795 0.41683 0.0
C2071 C 0.23038 0.68381 0.41249 0.0
C2072 C 0.23981 0.53462 0.41004 0.0
C2073 C 0.21754 0.60389 0.41173 0.0
C2074 C 0.23086 0.49512 0.40992 0.0
C2075 C 0.19205 0.48284 0.41039 0.0
C2076 C 0.20974 0.56182 0.41085 0.0
C2077 C 0.1629 0.511 0.41078 0.0
C2078 C 0.18938 0.62836 0.41639 0.0
C2079 C 0.25862 0.6583 0.40825 0.0
N2080 N 0.17236 0.54913 0.41112 0.0
N2081 N 0.25152 0.61942 0.40793 0.0
H2082 H 0.07732 0.5423 0.1689 0.0
H2083 H 0.24485 0.38182 0.16545 0.0
H2084 H 0.05715 0.41912 0.1689 0.0
H2085 H 0.26758 0.50471 0.16581 0.0
H2086 H 0.17548 0.3955 0.16545 0.0
H2087 H 0.14689 0.52994 0.1662 0.0
C2088 C 0.08752 0.51275 0.16818 0.0
C2089 C 0.06169 0.48167 0.16929 0.0
C2090 C 0.19564 0.41952 0.16553 0.0
C2091 C 0.14073 0.46723 0.16634 0.0
C2092 C 0.23527 0.41167 0.16551 0.0
C2093 C 0.26214 0.44208 0.16573 0.0
C2094 C 0.18266 0.45811 0.16578 0.0
C2095 C 0.248 0.48029 0.16588 0.0
C2096 C 0.12714 0.50565 0.16672 0.0
C2097 C 0.07625 0.44387 0.16834 0.0
N2098 N 0.20924 0.48721 0.16592 0.0
N2099 N 0.11476 0.43772 0.16699 0.0
H2100 H 0.22507 0.3284 0.91121 0.0
H2101 H 0.38634 0.49397 0.90478 0.0
H2102 H 0.34808 0.30733 0.91034 0.0
H2103 H 0.26466 0.51826 0.90934 0.0
H2104 H 0.3714 0.42497 0.9039 0.0
H2105 H 0.23744 0.39746 0.90753 0.0
C2106 C 0.25456 0.33825 0.91001 0.0
C2107 C 0.28565 0.31241 0.9112 0.0
C2108 C 0.3479 0.44539 0.90505 0.0
C2109 C 0.30012 0.3909 0.90712 0.0
C2110 C 0.35644 0.48486 0.9055 0.0
C2111 C 0.32686 0.51204 0.9073 0.0
C2112 C 0.30944 0.43283 0.9064 0.0
C2113 C 0.28858 0.4984 0.90824 0.0
C2114 C 0.26168 0.3776 0.90801 0.0
C2115 C 0.32339 0.32652 0.90966 0.0
N2116 N 0.28101 0.45976 0.90784 0.0
N2117 N 0.32958 0.36478 0.90779 0.0
H2118 H 0.43939 0.5357 0.65093 0.0
H2119 H 0.23286 0.49828 0.68001 0.0
H2120 H 0.42753 0.45949 0.67963 0.0
H2121 H 0.26116 0.59547 0.65864 0.0
H2122 H 0.3001 0.47472 0.67799 0.0
H2123 H 0.36975 0.54729 0.6512 0.0
C2124 C 0.42186 0.52097 0.65721 0.0
C2125 C 0.43922 0.49699 0.66535 0.0
C2126 C 0.29141 0.50115 0.67375 0.0
C2127 C 0.35921 0.51057 0.66586 0.0
C2128 C 0.25315 0.51453 0.67488 0.0
C2129 C 0.24157 0.54917 0.66961 0.0
C2130 C 0.31787 0.52222 0.66711 0.0
C2131 C 0.26893 0.56912 0.66304 0.0
C2132 C 0.38212 0.52772 0.6574 0.0
C2133 C 0.41514 0.47816 0.67321 0.0
N2134 N 0.30558 0.55535 0.66197 0.0
N2135 N 0.37626 0.48573 0.67337 0.0
H2136 H 0.17212 0.31318 0.09324 0.0
H2137 H 0.25438 0.52716 0.08422 0.0
H2138 H 0.28984 0.33614 0.08319 0.0
H2139 H 0.13699 0.50143 0.0943 0.0
H2140 H 0.27014 0.45833 0.08551 0.0
H2141 H 0.16147 0.38247 0.09584 0.0
C2142 C 0.19591 0.33296 0.09174 0.0
C2143 C 0.23179 0.31907 0.08791 0.0
C2144 C 0.24099 0.46777 0.0875 0.0
C2145 C 0.21973 0.3987 0.09068 0.0
C2146 C 0.23181 0.50711 0.08666 0.0
C2147 C 0.19402 0.5202 0.08899 0.0
C2148 C 0.21221 0.44117 0.09066 0.0
C2149 C 0.16644 0.49279 0.09244 0.0
C2150 C 0.18983 0.37253 0.0932 0.0
C2151 C 0.26181 0.34578 0.08619 0.0
N2152 N 0.176 0.45465 0.09309 0.0
N2153 N 0.25496 0.38446 0.08743 0.0
H2154 H 0.42633 0.53027 0.82747 0.0
H2155 H 0.2484 0.39747 0.84723 0.0
H2156 H 0.43662 0.43412 0.85055 0.0
H2157 H 0.24082 0.47882 0.81949 0.0
H2158 H 0.31581 0.4157 0.84999 0.0
H2159 H 0.35608 0.51863 0.82635 0.0
C2160 C 0.4136 0.50729 0.83248 0.0
C2161 C 0.43711 0.48291 0.83904 0.0
C2162 C 0.29941 0.42957 0.84329 0.0
C2163 C 0.35744 0.46903 0.83771 0.0
C2164 C 0.26088 0.41886 0.84162 0.0
C2165 C 0.23867 0.43642 0.83306 0.0
C2166 C 0.3161 0.45816 0.83637 0.0
C2167 C 0.25657 0.4647 0.82626 0.0
C2168 C 0.3737 0.50036 0.83175 0.0
C2169 C 0.41944 0.45323 0.84529 0.0
N2170 N 0.2942 0.47468 0.82806 0.0
N2171 N 0.38075 0.44699 0.84442 0.0
H2172 H 0.37639 0.52004 0.5909 0.0
H2173 H 0.20801 0.67799 0.58219 0.0
H2174 H 0.25619 0.49012 0.58602 0.0
H2175 H 0.33008 0.70389 0.58191 0.0
H2176 H 0.22357 0.61005 0.58671 0.0
H2177 H 0.35849 0.58862 0.59068 0.0
C2178 C 0.34622 0.52788 0.58987 0.0
C2179 C 0.31793 0.49927 0.58828 0.0
C2180 C 0.2469 0.63075 0.58578 0.0
C2181 C 0.29708 0.57777 0.58798 0.0
C2182 C 0.23797 0.66945 0.58329 0.0
C2183 C 0.26783 0.69629 0.58155 0.0
C2184 C 0.28594 0.61913 0.58662 0.0
C2185 C 0.30626 0.68387 0.583 0.0
C2186 C 0.33598 0.56704 0.5897 0.0
C2187 C 0.27917 0.51115 0.58697 0.0
N2188 N 0.3142 0.64625 0.58537 0.0
N2189 N 0.26993 0.54945 0.58679 0.0
H2190 H 0.06173 0.5929 0.3363 0.0
H2191 H 0.27343 0.49966 0.33257 0.0
H2192 H 0.08146 0.47028 0.33265 0.0
H2193 H 0.25128 0.6225 0.33465 0.0
H2194 H 0.20391 0.48758 0.33375 0.0
H2195 H 0.13147 0.60332 0.33741 0.0
C2196 C 0.08087 0.56811 0.33581 0.0
C2197 C 0.0659 0.53072 0.33425 0.0
C2198 C 0.21426 0.51717 0.33395 0.0
C2199 C 0.14597 0.54239 0.33544 0.0
C2200 C 0.25401 0.52418 0.33316 0.0
C2201 C 0.26833 0.56229 0.33339 0.0
C2202 C 0.18854 0.54845 0.33499 0.0
C2203 C 0.24164 0.59271 0.33448 0.0
C2204 C 0.1207 0.57405 0.33644 0.0
C2205 C 0.0919 0.49952 0.33388 0.0
N2206 N 0.20309 0.58513 0.33521 0.0
N2207 N 0.13079 0.50609 0.33434 0.0
H2208 H 0.55324 0.37509 0.0683 0.0
H2209 H 0.41276 0.20145 0.08693 0.0
H2210 H 0.59539 0.2761 0.08696 0.0
H2211 H 0.37861 0.29899 0.06634 0.0
H2212 H 0.47888 0.22788 0.08783 0.0
H2213 H 0.48883 0.34736 0.06831 0.0
C2214 C 0.54906 0.34739 0.07243 0.0
C2215 C 0.58014 0.32796 0.07763 0.0
C2216 C 0.45685 0.24344 0.08314 0.0
C2217 C 0.50528 0.29564 0.07766 0.0
C2218 C 0.41904 0.22844 0.08263 0.0
C2219 C 0.38991 0.24796 0.07652 0.0
C2220 C 0.46557 0.2783 0.07753 0.0
C2221 C 0.39992 0.28276 0.07112 0.0
C2222 C 0.51198 0.33149 0.07242 0.0
C2223 C 0.5724 0.29214 0.08284 0.0
N2224 N 0.43669 0.29668 0.07176 0.0
N2225 N 0.53573 0.2771 0.08272 0.0
H2226 H 0.04274 0.38069 0.31494 0.0
H2227 H 0.02084 0.16096 0.3365 0.0
H2228 H 0.95364 0.34582 0.33849 0.0
H2229 H 0.10966 0.20188 0.31369 0.0
H2230 H 0.99511 0.22744 0.33763 0.0
H2231 H 0.06731 0.31464 0.31477 0.0
C2232 C 0.02834 0.35917 0.32012 0.0
C2233 C 0.99597 0.36902 0.32672 0.0
C2234 C 0.02025 0.22172 0.3324 0.0
C2235 C 0.02407 0.29254 0.32653 0.0
C2236 C 0.0349 0.18377 0.33173 0.0
C2237 C 0.06752 0.17564 0.32499 0.0
C2238 C 0.03833 0.25167 0.32626 0.0
C2239 C 0.08452 0.20647 0.31901 0.0
C2240 C 0.04242 0.32128 0.32001 0.0
C2241 C 0.97872 0.33964 0.33328 0.0
N2242 N 0.06978 0.24284 0.31979 0.0
N2243 N 0.99288 0.30273 0.33299 0.0
H2244 H 0.06271 0.85357 0.56064 0.0
H2245 H 0.92048 0.69823 0.58926 0.0
H2246 H 0.10338 0.77054 0.5853 0.0
H2247 H 0.88617 0.78338 0.56441 0.0
H2248 H 0.98714 0.72325 0.58835 0.0
H2249 H 0.99807 0.82691 0.5622 0.0
C2250 C 0.05815 0.82959 0.5664 0.0
C2251 C 0.0888 0.81441 0.57287 0.0
C2252 C 0.96494 0.73642 0.58313 0.0
C2253 C 0.01375 0.78341 0.57473 0.0
C2254 C 0.92684 0.72226 0.58366 0.0
C2255 C 0.89751 0.7387 0.5769 0.0
C2256 C 0.97376 0.76726 0.57579 0.0
C2257 C 0.90761 0.76965 0.56978 0.0
C2258 C 0.02095 0.81431 0.56729 0.0
C2259 C 0.08069 0.78317 0.58015 0.0
N2260 N 0.94468 0.78278 0.56941 0.0
N2261 N 0.0439 0.76872 0.5809 0.0
H2262 H 0.49142 0.84817 0.83721 0.0
H2263 H 0.47179 0.62929 0.81446 0.0
H2264 H 0.40902 0.80885 0.81216 0.0
H2265 H 0.55472 0.66106 0.84025 0.0
H2266 H 0.44952 0.696 0.81377 0.0
H2267 H 0.51663 0.78137 0.83858 0.0
C2268 C 0.47877 0.8257 0.83197 0.0
C2269 C 0.44791 0.83433 0.82459 0.0
C2270 C 0.47256 0.68859 0.81963 0.0
C2271 C 0.47644 0.75797 0.82614 0.0
C2272 C 0.48532 0.65026 0.82003 0.0
C2273 C 0.51525 0.63926 0.82743 0.0
C2274 C 0.48975 0.71672 0.82664 0.0
C2275 C 0.53149 0.66809 0.83443 0.0
C2276 C 0.49307 0.78757 0.83278 0.0
C2277 C 0.43265 0.8039 0.81803 0.0
N2278 N 0.51862 0.70549 0.83386 0.0
N2279 N 0.44696 0.76742 0.81898 0.0
H2280 H 0.56691 0.66306 0.44039 0.0
H2281 H 0.41486 0.79848 0.40755 0.0
H2282 H 0.60103 0.73292 0.41173 0.0
H2283 H 0.3867 0.72068 0.43498 0.0
H2284 H 0.48279 0.77693 0.40868 0.0
H2285 H 0.50123 0.68681 0.43852 0.0
C2286 C 0.56067 0.68359 0.43368 0.0
C2287 C 0.58978 0.69578 0.42617 0.0
C2288 C 0.46163 0.76456 0.41441 0.0
C2289 C 0.51344 0.72334 0.42393 0.0
C2290 C 0.4228 0.77671 0.41374 0.0
C2291 C 0.39483 0.76138 0.42118 0.0
C2292 C 0.47256 0.73698 0.42259 0.0
C2293 C 0.40699 0.73345 0.42907 0.0
C2294 C 0.52287 0.69716 0.43261 0.0
C2295 C 0.57958 0.72273 0.41772 0.0
N2296 N 0.44471 0.72233 0.42956 0.0
N2297 N 0.54217 0.73552 0.4168 0.0
H2298 H 0.5101 0.13876 0.69167 0.0
H2299 H 0.5438 0.33797 0.65922 0.0
H2300 H 0.47959 0.15175 0.65636 0.0
H2301 H 0.51462 0.33301 0.69478 0.0
H2302 H 0.53076 0.26819 0.6577 0.0
H2303 H 0.52351 0.20832 0.69266 0.0
C2304 C 0.50672 0.15611 0.68408 0.0
C2305 C 0.49378 0.13931 0.6739 0.0
C2306 C 0.52707 0.2825 0.66581 0.0
C2307 C 0.50919 0.21904 0.675 0.0
C2308 C 0.53452 0.32226 0.66669 0.0
C2309 C 0.53007 0.34144 0.67714 0.0
C2310 C 0.51607 0.26155 0.6755 0.0
C2311 C 0.51808 0.31956 0.68655 0.0
C2312 C 0.51406 0.19588 0.68469 0.0
C2313 C 0.48949 0.16346 0.66438 0.0
N2314 N 0.51189 0.28077 0.68553 0.0
N2315 N 0.49738 0.20206 0.66514 0.0
H2316 H 0.95591 0.35263 0.93623 0.0
H2317 H 0.10109 0.19279 0.91105 0.0
H2318 H 0.91626 0.26321 0.91341 0.0
H2319 H 0.13455 0.28912 0.93225 0.0
H2320 H 0.03362 0.216 0.91163 0.0
H2321 H 0.0211 0.32735 0.93488 0.0
C2322 C 0.9608 0.32752 0.93091 0.0
C2323 C 0.93021 0.31017 0.9249 0.0
C2324 C 0.05583 0.23201 0.91612 0.0
C2325 C 0.00608 0.28069 0.92328 0.0
C2326 C 0.09439 0.21885 0.91578 0.0
C2327 C 0.12374 0.23894 0.92164 0.0
C2328 C 0.04656 0.26547 0.92237 0.0
C2329 C 0.11316 0.27247 0.92763 0.0
C2330 C 0.99836 0.31305 0.93013 0.0
C2331 C 0.93886 0.27755 0.91819 0.0
N2332 N 0.07568 0.28449 0.92785 0.0
N2333 N 0.97603 0.26386 0.91755 0.0
H2334 H 0.91363 0.68055 0.19128 0.0
H2335 H 0.05229 0.8345 0.1607 0.0
H2336 H 0.98504 0.64938 0.16263 0.0
H2337 H 0.97359 0.8607 0.18811 0.0
H2338 H 0.03052 0.76676 0.16122 0.0
H2339 H 0.93853 0.74599 0.1904 0.0
C2340 C 0.93475 0.68739 0.18479 0.0
C2341 C 0.94703 0.65925 0.17697 0.0
C2342 C 0.01803 0.78742 0.16709 0.0
C2343 C 0.97587 0.73521 0.17588 0.0
C2344 C 0.03036 0.82614 0.16679 0.0
C2345 C 0.01475 0.85351 0.17438 0.0
C2346 C 0.98999 0.77597 0.17506 0.0
C2347 C 0.98652 0.84085 0.18209 0.0
C2348 C 0.94898 0.72503 0.18429 0.0
C2349 C 0.97478 0.6701 0.16884 0.0
N2350 N 0.97519 0.80319 0.18223 0.0
N2351 N 0.98816 0.70735 0.16846 0.0
H2352 H 0.41296 0.74022 0.9089 0.0
H2353 H 0.63023 0.72179 0.93301 0.0
H2354 H 0.45104 0.65856 0.93429 0.0
H2355 H 0.59881 0.80793 0.90812 0.0
H2356 H 0.56374 0.69889 0.93315 0.0
H2357 H 0.47942 0.7666 0.90819 0.0
C2358 C 0.43508 0.72797 0.91435 0.0
C2359 C 0.42624 0.69698 0.92164 0.0
C2360 C 0.57116 0.7228 0.92762 0.0
C2361 C 0.50216 0.72679 0.92083 0.0
C2362 C 0.60936 0.73593 0.92753 0.0
C2363 C 0.62037 0.76691 0.92055 0.0
C2364 C 0.54321 0.74063 0.92068 0.0
C2365 C 0.59171 0.78389 0.91363 0.0
C2366 C 0.47301 0.74295 0.91391 0.0
C2367 C 0.45619 0.68226 0.92848 0.0
N2368 N 0.55444 0.77057 0.91388 0.0
N2369 N 0.49248 0.69717 0.92788 0.0
H2370 H 0.0704 0.68149 0.65939 0.0
H2371 H 0.93307 0.8408 0.68829 0.0
H2372 H 0.98107 0.65813 0.68407 0.0
H2373 H 0.99919 0.86719 0.6582 0.0
H2374 H 0.95883 0.77557 0.68811 0.0
H2375 H 0.05211 0.75062 0.65983 0.0
C2376 C 0.04712 0.69082 0.66492 0.0
C2377 C 0.02717 0.66379 0.67168 0.0
C2378 C 0.96793 0.79545 0.68152 0.0
C2379 C 0.00646 0.74264 0.67227 0.0
C2380 C 0.95323 0.83297 0.68163 0.0
C2381 C 0.96356 0.85964 0.67317 0.0
C2382 C 0.99337 0.78385 0.67288 0.0
C2383 C 0.99033 0.84759 0.66488 0.0
C2384 C 0.03668 0.73023 0.66513 0.0
C2385 C 0.99724 0.6776 0.67865 0.0
N2386 N 0.00415 0.81042 0.66488 0.0
N2387 N 0.98796 0.7158 0.67877 0.0
H2388 H 0.88182 0.2761 0.43324 0.0
H2389 H 0.10035 0.25733 0.41019 0.0
H2390 H 0.91343 0.194 0.40721 0.0
H2391 H 0.06169 0.33796 0.4358 0.0
H2392 H 0.03356 0.23216 0.40884 0.0
H2393 H 0.94862 0.29805 0.43403 0.0
C2394 C 0.90278 0.26267 0.42764 0.0
C2395 C 0.89172 0.2331 0.42014 0.0
C2396 C 0.03989 0.25531 0.41476 0.0
C2397 C 0.96924 0.25825 0.42104 0.0
C2398 C 0.07802 0.26959 0.41556 0.0
C2399 C 0.08681 0.29994 0.42309 0.0
C2400 C 0.01048 0.27148 0.42157 0.0
C2401 C 0.05657 0.31473 0.42981 0.0
C2402 C 0.94116 0.27525 0.42811 0.0
C2403 C 0.92053 0.21695 0.41311 0.0
N2404 N 0.02008 0.30046 0.42887 0.0
N2405 N 0.95796 0.22968 0.41374 0.0
H2406 H 0.55127 0.18126 0.15379 0.0
H2407 H 0.49549 0.36573 0.19065 0.0
H2408 H 0.49851 0.17041 0.1868 0.0
H2409 H 0.47423 0.36423 0.15458 0.0
H2410 H 0.5125 0.29675 0.18979 0.0
H2411 H 0.53843 0.25148 0.15432 0.0
C2412 C 0.53727 0.1937 0.16116 0.0
C2413 C 0.52573 0.17002 0.17024 0.0
C2414 C 0.50437 0.31168 0.18207 0.0
C2415 C 0.51186 0.24999 0.171 0.0
C2416 C 0.4949 0.35103 0.18252 0.0
C2417 C 0.48339 0.37072 0.17266 0.0
C2418 C 0.50332 0.29208 0.17163 0.0
C2419 C 0.4828 0.35008 0.16238 0.0
C2420 C 0.52983 0.2336 0.16144 0.0
C2421 C 0.50758 0.18757 0.17958 0.0
N2422 N 0.49287 0.31191 0.16211 0.0
N2423 N 0.50151 0.2265 0.17977 0.0
H2424 H 0.62565 0.25881 0.57795 0.0
H2425 H 0.3933 0.25163 0.58122 0.0
H2426 H 0.55999 0.15434 0.57218 0.0
H2427 H 0.45759 0.35621 0.57449 0.0
H2428 H 0.45462 0.21517 0.58119 0.0
H2429 H 0.56458 0.29476 0.57991 0.0
C2430 C 0.59845 0.24339 0.57716 0.0
C2431 C 0.59801 0.20353 0.57481 0.0
C2432 C 0.45521 0.24614 0.57978 0.0
C2433 C 0.52801 0.24441 0.57717 0.0
C2434 C 0.42027 0.26696 0.57985 0.0
C2435 C 0.42027 0.307 0.57778 0.0
C2436 C 0.49042 0.26561 0.57782 0.0
C2437 C 0.45613 0.32534 0.57602 0.0
C2438 C 0.56361 0.26393 0.57825 0.0
C2439 C 0.56179 0.1851 0.57388 0.0
N2440 N 0.48965 0.30459 0.5761 0.0
N2441 N 0.52834 0.20561 0.57508 0.0
H2442 H 0.51926 0.83713 0.33362 0.0
H2443 H 0.53978 0.61732 0.31182 0.0
H2444 H 0.60822 0.79558 0.31093 0.0
H2445 H 0.45322 0.65172 0.33625 0.0
H2446 H 0.56429 0.68337 0.31157 0.0
H2447 H 0.49348 0.77067 0.33482 0.0
C2448 C 0.53336 0.81419 0.3289 0.0
C2449 C 0.56601 0.82217 0.32216 0.0
C2450 C 0.53998 0.67664 0.31703 0.0
C2451 C 0.53671 0.74614 0.3235 0.0
C2452 C 0.52592 0.63873 0.31718 0.0
C2453 C 0.4943 0.62871 0.32406 0.0
C2454 C 0.52235 0.70526 0.32378 0.0
C2455 C 0.47772 0.658 0.33082 0.0
C2456 C 0.51866 0.77625 0.3296 0.0
C2457 C 0.58304 0.79115 0.31624 0.0
N2458 N 0.49183 0.69494 0.33049 0.0
N2459 N 0.56823 0.75482 0.31705 0.0
H2460 H 0.05035 0.65725 0.07326 0.0
H2461 H 0.95028 0.86484 0.0737 0.0
H2462 H 0.11459 0.76266 0.07894 0.0
H2463 H 0.88584 0.75975 0.07959 0.0
H2464 H 0.01055 0.82788 0.07458 0.0
H2465 H 0.9899 0.69398 0.07452 0.0
C2466 C 0.05178 0.68816 0.07479 0.0
C2467 C 0.0877 0.70692 0.07595 0.0
C2468 C 0.98329 0.81289 0.07576 0.0
C2469 C 0.01834 0.74923 0.07732 0.0
C2470 C 0.94879 0.83394 0.07521 0.0
C2471 C 0.91286 0.81535 0.07653 0.0
C2472 C 0.98207 0.77269 0.07745 0.0
C2473 C 0.91285 0.77528 0.07856 0.0
C2474 C 0.01718 0.70905 0.07556 0.0
C2475 C 0.08762 0.74698 0.078 0.0
N2476 N 0.9469 0.75522 0.07884 0.0
N2477 N 0.05352 0.76684 0.07851 0.0
H2478 H 0.0053 0.35984 0.8046 0.0
H2479 H 0.96138 0.16932 0.84012 0.0
H2480 H 0.03124 0.35537 0.84039 0.0
H2481 H 0.00494 0.16501 0.80584 0.0
H2482 H 0.97405 0.23955 0.84046 0.0
H2483 H 0.99119 0.29029 0.80494 0.0
C2484 C 0.00753 0.34437 0.81257 0.0
C2485 C 0.01944 0.36352 0.82249 0.0
C2486 C 0.98088 0.22307 0.8329 0.0
C2487 C 1.003 0.2839 0.82293 0.0
C2488 C 0.97362 0.18311 0.83268 0.0
C2489 C 0.98238 0.1612 0.82296 0.0
C2490 C 0.99589 0.24141 0.82321 0.0
C2491 C 0.9981 0.18061 0.81355 0.0
C2492 C 0.99976 0.30463 0.81273 0.0
C2493 C 0.02222 0.34176 0.83255 0.0
N2494 N 0.00395 0.21958 0.81387 0.0
N2495 N 0.01381 0.30315 0.83253 0.0
loop_
_geom_bond_atom_site_label_1
_geom_bond_atom_site_label_2
_geom_bond_distance
_geom_bond_site_symmetry_2
_ccdc_geom_bond_type
Co0 N4 2.148 . S
Co0 N10 2.128 . S
Co0 N20 2.194 . S
Co0 O25 2.351 . S
Co0 O26 2.155 . S
Co0 O27 2.096 . S
C1 N4 1.301 . S
C1 N5 1.328 . S
C1 H6 0.930 . S
C2 C3 1.333 . S
C2 N4 1.317 . S
C2 H7 0.930 . S
C3 C2 1.333 . S
C3 N5 1.350 . S
C3 H29 0.931 . S
N4 Co0 2.148 . S
N4 C1 1.301 . S
N4 C2 1.317 . S
N5 C1 1.328 . S
N5 C3 1.350 . S
H6 C1 0.930 . S
H7 C2 0.930 . S
C8 O9 1.224 . S
C8 O27 1.247 . S
O9 C8 1.224 . S
N10 Co0 2.128 . S
N10 C11 1.355 . S
N10 C13 1.311 . S
C11 N10 1.355 . S
C11 C12 1.363 . S
C11 H23 0.929 . S
C12 C11 1.363 . S
C12 N14 1.375 . S
C12 H30 0.931 . S
C13 N10 1.311 . S
C13 N14 1.347 . S
C13 H24 0.929 . S
N14 C12 1.375 . S
N14 C13 1.347 . S
C15 C18 1.365 . S
C15 N20 1.328 . S
C15 H21 0.929 . S
C16 C17 1.362 . S
C16 C19 1.378 . S
C16 H31 0.929 . S
C17 C16 1.362 . S
C17 C18 1.366 . S
C18 C15 1.365 . S
C18 C17 1.366 . S
C18 H32 0.930 . S
C19 C16 1.378 . S
C19 N20 1.315 . S
C19 H22 0.930 . S
N20 Co0 2.194 . S
N20 C15 1.328 . S
N20 C19 1.315 . S
H21 C15 0.929 . S
H22 C19 0.930 . S
H23 C11 0.929 . S
H24 C13 0.929 . S
O25 Co0 2.351 . S
O25 C28 1.244 . S
O26 Co0 2.155 . S
O26 C28 1.240 . S
O27 Co0 2.096 . S
O27 C8 1.247 . S
C28 O25 1.244 . S
C28 O26 1.240 . S
H29 C3 0.931 . S
H30 C12 0.931 . S
H31 C16 0.929 . S
H32 C18 0.930 . S
Co33 N37 2.148 . S
Co33 N43 2.128 . S
Co33 N53 2.194 . S
Co33 O58 2.351 1_545 S
Co33 O59 2.155 . S
Co33 O60 2.096 . S
C34 N37 1.301 . S
C34 N38 1.328 . S
C34 H39 0.930 . S
C35 C36 1.333 . S
C35 N37 1.317 . S
C35 H40 0.930 . S
C36 C35 1.333 . S
C36 N38 1.350 . S
C36 H62 0.931 . S
N37 Co33 2.148 . S
N37 C34 1.301 . S
N37 C35 1.317 . S
N38 C34 1.328 . S
N38 C36 1.350 . S
H39 C34 0.930 . S
H40 C35 0.930 . S
C41 O42 1.224 . S
C41 O60 1.247 . S
O42 C41 1.224 . S
N43 Co33 2.128 . S
N43 C44 1.355 1_545 S
N43 C46 1.311 1_455 S
C44 N43 1.355 1_565 S
C44 C45 1.363 1_455 S
C44 H56 0.929 . S
C45 C44 1.363 1_655 S
C45 N47 1.375 1_565 S
C45 H63 0.931 . S
C46 N43 1.311 1_655 S
C46 N47 1.347 . S
C46 H57 0.929 . S
N47 C45 1.375 1_545 S
N47 C46 1.347 . S
C48 C51 1.365 . S
C48 N53 1.328 1_565 S
C48 H54 0.929 . S
C49 C50 1.362 1_545 S
C49 C52 1.378 . S
C49 H64 0.929 . S
C50 C49 1.362 1_565 S
C50 C51 1.366 . S
C51 C48 1.365 . S
C51 C50 1.366 . S
C51 H65 0.930 . S
C52 C49 1.378 . S
C52 N53 1.315 . S
C52 H55 0.930 . S
N53 Co33 2.194 . S
N53 C48 1.328 1_545 S
N53 C52 1.315 . S
H54 C48 0.929 . S
H55 C52 0.930 . S
H56 C44 0.929 . S
H57 C46 0.929 . S
O58 Co33 2.351 1_565 S
O58 C61 1.244 . S
O59 Co33 2.155 . S
O59 C61 1.240 1_545 S
O60 Co33 2.096 . S
O60 C41 1.247 . S
C61 O58 1.244 . S
C61 O59 1.240 1_565 S
H62 C36 0.931 . S
H63 C45 0.931 . S
H64 C49 0.929 . S
H65 C51 0.930 . S
Co66 N70 2.148 . S
Co66 N76 2.128 . S
Co66 N86 2.194 . S
Co66 O91 2.351 . S
Co66 O92 2.155 . S
Co66 O93 2.096 . S
C67 N70 1.301 . S
C67 N71 1.328 . S
C67 H72 0.930 . S
C68 C69 1.333 . S
C68 N70 1.317 . S
C68 H73 0.930 . S
C69 C68 1.333 . S
C69 N71 1.350 . S
C69 H95 0.931 . S
N70 Co66 2.148 . S
N70 C67 1.301 . S
N70 C68 1.317 . S
N71 C67 1.328 . S
N71 C69 1.350 . S
H72 C67 0.930 . S
H73 C68 0.930 . S
C74 O75 1.224 . S
C74 O93 1.247 . S
O75 C74 1.224 . S
N76 Co66 2.128 . S
N76 C77 1.355 . S
N76 C79 1.311 . S
C77 N76 1.355 . S
C77 C78 1.363 . S
C77 H89 0.929 . S
C78 C77 1.363 . S
C78 N80 1.375 . S
C78 H96 0.931 . S
C79 N76 1.311 . S
C79 N80 1.347 . S
C79 H90 0.929 . S
N80 C78 1.375 . S
N80 C79 1.347 . S
C81 C84 1.365 . S
C81 N86 1.328 . S
C81 H87 0.929 . S
C82 C83 1.362 . S
C82 C85 1.378 . S
C82 H97 0.929 . S
C83 C82 1.362 . S
C83 C84 1.366 . S
C84 C81 1.365 . S
C84 C83 1.366 . S
C84 H98 0.930 . S
C85 C82 1.378 . S
C85 N86 1.315 . S
C85 H88 0.930 . S
N86 Co66 2.194 . S
N86 C81 1.328 . S
N86 C85 1.315 . S
H87 C81 0.929 . S
H88 C85 0.930 . S
H89 C77 0.929 . S
H90 C79 0.929 . S
O91 Co66 2.351 . S
O91 C94 1.244 . S
O92 Co66 2.155 . S
O92 C94 1.240 . S
O93 Co66 2.096 . S
O93 C74 1.247 . S
C94 O91 1.244 . S
C94 O92 1.240 . S
H95 C69 0.931 . S
H96 C78 0.931 . S
H97 C82 0.929 . S
H98 C84 0.930 . S
Co99 N103 2.148 . S
Co99 N109 2.128 . S
Co99 N119 2.194 . S
Co99 O124 2.351 1_565 S
Co99 O125 2.155 . S
Co99 O126 2.096 . S
C100 N103 1.301 . S
C100 N104 1.328 . S
C100 H105 0.930 . S
C101 C102 1.333 . S
C101 N103 1.317 . S
C101 H106 0.930 . S
C102 C101 1.333 . S
C102 N104 1.350 . S
C102 H128 0.931 . S
N103 Co99 2.148 . S
N103 C100 1.301 . S
N103 C101 1.317 . S
N104 C100 1.328 . S
N104 C102 1.350 . S
H105 C100 0.930 . S
H106 C101 0.930 . S
C107 O108 1.224 . S
C107 O126 1.247 . S
O108 C107 1.224 . S
N109 Co99 2.128 . S
N109 C110 1.355 1_565 S
N109 C112 1.311 . S
C110 N109 1.355 1_545 S
C110 C111 1.363 . S
C110 H122 0.929 . S
C111 C110 1.363 . S
C111 N113 1.375 1_545 S
C111 H129 0.931 . S
C112 N109 1.311 . S
C112 N113 1.347 . S
C112 H123 0.929 . S
N113 C111 1.375 1_565 S
N113 C112 1.347 . S
C114 C117 1.365 . S
C114 N119 1.328 1_545 S
C114 H120 0.929 . S
C115 C116 1.362 1_565 S
C115 C118 1.378 . S
C115 H130 0.929 . S
C116 C115 1.362 1_545 S
C116 C117 1.366 . S
C117 C114 1.365 . S
C117 C116 1.366 . S
C117 H131 0.930 . S
C118 C115 1.378 . S
C118 N119 1.315 . S
C118 H121 0.930 . S
N119 Co99 2.194 . S
N119 C114 1.328 1_565 S
N119 C118 1.315 . S
H120 C114 0.929 . S
H121 C118 0.930 . S
H122 C110 0.929 . S
H123 C112 0.929 . S
O124 Co99 2.351 1_545 S
O124 C127 1.244 . S
O125 Co99 2.155 . S
O125 C127 1.240 1_565 S
O126 Co99 2.096 . S
O126 C107 1.247 . S
C127 O124 1.244 . S
C127 O125 1.240 1_545 S
H128 C102 0.931 . S
H129 C111 0.931 . S
H130 C115 0.929 . S
H131 C117 0.930 . S
Co132 N136 2.148 . S
Co132 N142 2.128 . S
Co132 N152 2.194 . S
Co132 O157 2.351 . S
Co132 O158 2.155 . S
Co132 O159 2.096 . S
C133 N136 1.301 . S
C133 N137 1.328 . S
C133 H138 0.930 . S
C134 C135 1.333 . S
C134 N136 1.317 . S
C134 H139 0.930 . S
C135 C134 1.333 . S
C135 N137 1.350 . S
C135 H161 0.931 . S
N136 Co132 2.148 . S
N136 C133 1.301 . S
N136 C134 1.317 . S
N137 C133 1.328 . S
N137 C135 1.350 . S
H138 C133 0.930 . S
H139 C134 0.930 . S
C140 O141 1.224 . S
C140 O159 1.247 . S
O141 C140 1.224 . S
N142 Co132 2.128 . S
N142 C143 1.355 . S
N142 C145 1.311 . S
C143 N142 1.355 . S
C143 C144 1.363 . S
C143 H155 0.929 . S
C144 C143 1.363 . S
C144 N146 1.375 . S
C144 H162 0.931 . S
C145 N142 1.311 . S
C145 N146 1.347 . S
C145 H156 0.929 . S
N146 C144 1.375 . S
N146 C145 1.347 . S
C147 C150 1.365 . S
C147 N152 1.328 . S
C147 H153 0.929 . S
C148 C149 1.362 . S
C148 C151 1.378 . S
C148 H163 0.929 . S
C149 C148 1.362 . S
C149 C150 1.366 . S
C150 C147 1.365 . S
C150 C149 1.366 . S
C150 H164 0.930 . S
C151 C148 1.378 . S
C151 N152 1.315 . S
C151 H154 0.930 . S
N152 Co132 2.194 . S
N152 C147 1.328 . S
N152 C151 1.315 . S
H153 C147 0.929 . S
H154 C151 0.930 . S
H155 C143 0.929 . S
H156 C145 0.929 . S
O157 Co132 2.351 . S
O157 C160 1.244 . S
O158 Co132 2.155 . S
O158 C160 1.240 . S
O159 Co132 2.096 . S
O159 C140 1.247 . S
C160 O157 1.244 . S
C160 O158 1.240 . S
H161 C135 0.931 . S
H162 C144 0.931 . S
H163 C148 0.929 . S
H164 C150 0.930 . S
Co165 N169 2.148 . S
Co165 N175 2.128 . S
Co165 N185 2.194 . S
Co165 O190 2.351 1_545 S
Co165 O191 2.155 . S
Co165 O192 2.096 . S
C166 N169 1.301 . S
C166 N170 1.328 . S
C166 H171 0.930 . S
C167 C168 1.333 . S
C167 N169 1.317 . S
C167 H172 0.930 . S
C168 C167 1.333 . S
C168 N170 1.350 . S
C168 H194 0.931 . S
N169 Co165 2.148 . S
N169 C166 1.301 . S
N169 C167 1.317 . S
N170 C166 1.328 . S
N170 C168 1.350 . S
H171 C166 0.930 . S
H172 C167 0.930 . S
C173 O174 1.224 . S
C173 O192 1.247 . S
O174 C173 1.224 . S
N175 Co165 2.128 . S
N175 C176 1.355 1_545 S
N175 C178 1.311 . S
C176 N175 1.355 1_565 S
C176 C177 1.363 . S
C176 H188 0.929 . S
C177 C176 1.363 . S
C177 N179 1.375 1_565 S
C177 H195 0.931 . S
C178 N175 1.311 . S
C178 N179 1.347 . S
C178 H189 0.929 . S
N179 C177 1.375 1_545 S
N179 C178 1.347 . S
C180 C183 1.365 . S
C180 N185 1.328 1_565 S
C180 H186 0.929 . S
C181 C182 1.362 1_545 S
C181 C184 1.378 . S
C181 H196 0.929 . S
C182 C181 1.362 1_565 S
C182 C183 1.366 . S
C183 C180 1.365 . S
C183 C182 1.366 . S
C183 H197 0.930 . S
C184 C181 1.378 . S
C184 N185 1.315 . S
C184 H187 0.930 . S
N185 Co165 2.194 . S
N185 C180 1.328 1_545 S
N185 C184 1.315 . S
H186 C180 0.929 . S
H187 C184 0.930 . S
H188 C176 0.929 . S
H189 C178 0.929 . S
O190 Co165 2.351 1_565 S
O190 C193 1.244 . S
O191 Co165 2.155 . S
O191 C193 1.240 1_545 S
O192 Co165 2.096 . S
O192 C173 1.247 . S
C193 O190 1.244 . S
C193 O191 1.240 1_565 S
H194 C168 0.931 . S
H195 C177 0.931 . S
H196 C181 0.929 . S
H197 C183 0.930 . S
Co198 N202 2.148 . S
Co198 N208 2.128 . S
Co198 N218 2.194 . S
Co198 O223 2.351 . S
Co198 O224 2.155 . S
Co198 O225 2.096 . S
C199 N202 1.301 . S
C199 N203 1.328 . S
C199 H204 0.930 . S
C200 C201 1.333 . S
C200 N202 1.317 . S
C200 H205 0.930 . S
C201 C200 1.333 . S
C201 N203 1.350 . S
C201 H227 0.931 . S
N202 Co198 2.148 . S
N202 C199 1.301 . S
N202 C200 1.317 . S
N203 C199 1.328 . S
N203 C201 1.350 . S
H204 C199 0.930 . S
H205 C200 0.930 . S
C206 O207 1.224 . S
C206 O225 1.247 . S
O207 C206 1.224 . S
N208 Co198 2.128 . S
N208 C209 1.355 . S
N208 C211 1.311 . S
C209 N208 1.355 . S
C209 C210 1.363 . S
C209 H221 0.929 . S
C210 C209 1.363 . S
C210 N212 1.375 . S
C210 H228 0.931 . S
C211 N208 1.311 . S
C211 N212 1.347 . S
C211 H222 0.929 . S
N212 C210 1.375 . S
N212 C211 1.347 . S
C213 C216 1.365 . S
C213 N218 1.328 . S
C213 H219 0.929 . S
C214 C215 1.362 . S
C214 C217 1.378 . S
C214 H229 0.929 . S
C215 C214 1.362 . S
C215 C216 1.366 . S
C216 C213 1.365 . S
C216 C215 1.366 . S
C216 H230 0.930 . S
C217 C214 1.378 . S
C217 N218 1.315 . S
C217 H220 0.930 . S
N218 Co198 2.194 . S
N218 C213 1.328 . S
N218 C217 1.315 . S
H219 C213 0.929 . S
H220 C217 0.930 . S
H221 C209 0.929 . S
H222 C211 0.929 . S
O223 Co198 2.351 . S
O223 C226 1.244 . S
O224 Co198 2.155 . S
O224 C226 1.240 . S
O225 Co198 2.096 . S
O225 C206 1.247 . S
C226 O223 1.244 . S
C226 O224 1.240 . S
H227 C201 0.931 . S
H228 C210 0.931 . S
H229 C214 0.929 . S
H230 C216 0.930 . S
Co231 N235 2.148 . S
Co231 N241 2.128 . S
Co231 N251 2.194 . S
Co231 O256 2.351 1_565 S
Co231 O257 2.155 . S
Co231 O258 2.096 . S
C232 N235 1.301 . S
C232 N236 1.328 . S
C232 H237 0.930 . S
C233 C234 1.333 . S
C233 N235 1.317 . S
C233 H238 0.930 . S
C234 C233 1.333 . S
C234 N236 1.350 . S
C234 H260 0.931 . S
N235 Co231 2.148 . S
N235 C232 1.301 . S
N235 C233 1.317 . S
N236 C232 1.328 . S
N236 C234 1.350 . S
H237 C232 0.930 . S
H238 C233 0.930 . S
C239 O240 1.224 . S
C239 O258 1.247 . S
O240 C239 1.224 . S
N241 Co231 2.128 . S
N241 C242 1.355 1_565 S
N241 C244 1.311 1_455 S
C242 N241 1.355 1_545 S
C242 C243 1.363 1_455 S
C242 H254 0.929 . S
C243 C242 1.363 1_655 S
C243 N245 1.375 1_545 S
C243 H261 0.931 . S
C244 N241 1.311 1_655 S
C244 N245 1.347 . S
C244 H255 0.929 . S
N245 C243 1.375 1_565 S
N245 C244 1.347 . S
C246 C249 1.365 . S
C246 N251 1.328 1_545 S
C246 H252 0.929 . S
C247 C248 1.362 1_565 S
C247 C250 1.378 . S
C247 H262 0.929 . S
C248 C247 1.362 1_545 S
C248 C249 1.366 . S
C249 C246 1.365 . S
C249 C248 1.366 . S
C249 H263 0.930 . S
C250 C247 1.378 . S
C250 N251 1.315 . S
C250 H253 0.930 . S
N251 Co231 2.194 . S
N251 C246 1.328 1_565 S
N251 C250 1.315 . S
H252 C246 0.929 . S
H253 C250 0.930 . S
H254 C242 0.929 . S
H255 C244 0.929 . S
O256 Co231 2.351 1_545 S
O256 C259 1.244 . S
O257 Co231 2.155 . S
O257 C259 1.240 1_565 S
O258 Co231 2.096 . S
O258 C239 1.247 . S
C259 O256 1.244 . S
C259 O257 1.240 1_545 S
H260 C234 0.931 . S
H261 C243 0.931 . S
H262 C247 0.929 . S
H263 C249 0.930 . S
Co264 N268 2.148 . S
Co264 N274 2.128 . S
Co264 N284 2.194 . S
Co264 O289 2.351 . S
Co264 O290 2.155 . S
Co264 O291 2.096 . S
C265 N268 1.301 . S
C265 N269 1.328 . S
C265 H270 0.930 . S
C266 C267 1.333 . S
C266 N268 1.317 . S
C266 H271 0.930 . S
C267 C266 1.333 . S
C267 N269 1.350 . S
C267 H293 0.931 . S
N268 Co264 2.148 . S
N268 C265 1.301 . S
N268 C266 1.317 . S
N269 C265 1.328 . S
N269 C267 1.350 . S
H270 C265 0.930 . S
H271 C266 0.930 . S
C272 O273 1.224 . S
C272 O291 1.247 . S
O273 C272 1.224 . S
N274 Co264 2.128 . S
N274 C275 1.355 . S
N274 C277 1.311 . S
C275 N274 1.355 . S
C275 C276 1.363 . S
C275 H287 0.929 . S
C276 C275 1.363 . S
C276 N278 1.375 . S
C276 H294 0.931 . S
C277 N274 1.311 . S
C277 N278 1.347 . S
C277 H288 0.929 . S
N278 C276 1.375 . S
N278 C277 1.347 . S
C279 C282 1.365 . S
C279 N284 1.328 . S
C279 H285 0.929 . S
C280 C281 1.362 . S
C280 C283 1.378 . S
C280 H295 0.929 . S
C281 C280 1.362 . S
C281 C282 1.366 . S
C282 C279 1.365 . S
C282 C281 1.366 . S
C282 H296 0.930 . S
C283 C280 1.378 . S
C283 N284 1.315 . S
C283 H286 0.930 . S
N284 Co264 2.194 . S
N284 C279 1.328 . S
N284 C283 1.315 . S
H285 C279 0.929 . S
H286 C283 0.930 . S
H287 C275 0.929 . S
H288 C277 0.929 . S
O289 Co264 2.351 . S
O289 C292 1.244 . S
O290 Co264 2.155 . S
O290 C292 1.240 . S
O291 Co264 2.096 . S
O291 C272 1.247 . S
C292 O289 1.244 . S
C292 O290 1.240 . S
H293 C267 0.931 . S
H294 C276 0.931 . S
H295 C280 0.929 . S
H296 C282 0.930 . S
Co297 N301 2.148 . S
Co297 N307 2.128 . S
Co297 N317 2.194 . S
Co297 O322 2.351 1_565 S
Co297 O323 2.155 . S
Co297 O324 2.096 . S
C298 N301 1.301 . S
C298 N302 1.328 . S
C298 H303 0.930 . S
C299 C300 1.333 . S
C299 N301 1.317 . S
C299 H304 0.930 . S
C300 C299 1.333 . S
C300 N302 1.350 . S
C300 H326 0.931 . S
N301 Co297 2.148 . S
N301 C298 1.301 . S
N301 C299 1.317 . S
N302 C298 1.328 . S
N302 C300 1.350 . S
H303 C298 0.930 . S
H304 C299 0.930 . S
C305 O306 1.224 . S
C305 O324 1.247 . S
O306 C305 1.224 . S
N307 Co297 2.128 . S
N307 C308 1.355 1_565 S
N307 C310 1.311 1_655 S
C308 N307 1.355 1_545 S
C308 C309 1.363 1_655 S
C308 H320 0.929 . S
C309 C308 1.363 1_455 S
C309 N311 1.375 1_545 S
C309 H327 0.931 . S
C310 N307 1.311 1_455 S
C310 N311 1.347 . S
C310 H321 0.929 . S
N311 C309 1.375 1_565 S
N311 C310 1.347 . S
C312 C315 1.365 . S
C312 N317 1.328 1_545 S
C312 H318 0.929 . S
C313 C314 1.362 1_565 S
C313 C316 1.378 . S
C313 H328 0.929 . S
C314 C313 1.362 1_545 S
C314 C315 1.366 . S
C315 C312 1.365 . S
C315 C314 1.366 . S
C315 H329 0.930 . S
C316 C313 1.378 . S
C316 N317 1.315 . S
C316 H319 0.930 . S
N317 Co297 2.194 . S
N317 C312 1.328 1_565 S
N317 C316 1.315 . S
H318 C312 0.929 . S
H319 C316 0.930 . S
H320 C308 0.929 . S
H321 C310 0.929 . S
O322 Co297 2.351 1_545 S
O322 C325 1.244 . S
O323 Co297 2.155 . S
O323 C325 1.240 1_565 S
O324 Co297 2.096 . S
O324 C305 1.247 . S
C325 O322 1.244 . S
C325 O323 1.240 1_545 S
H326 C300 0.931 . S
H327 C309 0.931 . S
H328 C313 0.929 . S
H329 C315 0.930 . S
Co330 N334 2.148 . S
Co330 N340 2.128 . S
Co330 N350 2.194 . S
Co330 O355 2.351 . S
Co330 O356 2.155 . S
Co330 O357 2.096 . S
C331 N334 1.301 . S
C331 N335 1.328 . S
C331 H336 0.930 . S
C332 C333 1.333 . S
C332 N334 1.317 . S
C332 H337 0.930 . S
C333 C332 1.333 . S
C333 N335 1.350 . S
C333 H359 0.931 . S
N334 Co330 2.148 . S
N334 C331 1.301 . S
N334 C332 1.317 . S
N335 C331 1.328 . S
N335 C333 1.350 . S
H336 C331 0.930 . S
H337 C332 0.930 . S
C338 O339 1.224 . S
C338 O357 1.247 . S
O339 C338 1.224 . S
N340 Co330 2.128 . S
N340 C341 1.355 . S
N340 C343 1.311 . S
C341 N340 1.355 . S
C341 C342 1.363 . S
C341 H353 0.929 . S
C342 C341 1.363 . S
C342 N344 1.375 . S
C342 H360 0.931 . S
C343 N340 1.311 . S
C343 N344 1.347 . S
C343 H354 0.929 . S
N344 C342 1.375 . S
N344 C343 1.347 . S
C345 C348 1.365 . S
C345 N350 1.328 . S
C345 H351 0.929 . S
C346 C347 1.362 . S
C346 C349 1.378 . S
C346 H361 0.929 . S
C347 C346 1.362 . S
C347 C348 1.366 . S
C348 C345 1.365 . S
C348 C347 1.366 . S
C348 H362 0.930 . S
C349 C346 1.378 . S
C349 N350 1.315 . S
C349 H352 0.930 . S
N350 Co330 2.194 . S
N350 C345 1.328 . S
N350 C349 1.315 . S
H351 C345 0.929 . S
H352 C349 0.930 . S
H353 C341 0.929 . S
H354 C343 0.929 . S
O355 Co330 2.351 . S
O355 C358 1.244 . S
O356 Co330 2.155 . S
O356 C358 1.240 . S
O357 Co330 2.096 . S
O357 C338 1.247 . S
C358 O355 1.244 . S
C358 O356 1.240 . S
H359 C333 0.931 . S
H360 C342 0.931 . S
H361 C346 0.929 . S
H362 C348 0.930 . S
Co363 N367 2.148 . S
Co363 N373 2.128 . S
Co363 N383 2.194 . S
Co363 O388 2.351 1_545 S
Co363 O389 2.155 . S
Co363 O390 2.096 . S
C364 N367 1.301 . S
C364 N368 1.328 . S
C364 H369 0.930 . S
C365 C366 1.333 . S
C365 N367 1.317 . S
C365 H370 0.930 . S
C366 C365 1.333 . S
C366 N368 1.350 . S
C366 H392 0.931 . S
N367 Co363 2.148 . S
N367 C364 1.301 . S
N367 C365 1.317 . S
N368 C364 1.328 . S
N368 C366 1.350 . S
H369 C364 0.930 . S
H370 C365 0.930 . S
C371 O372 1.224 . S
C371 O390 1.247 . S
O372 C371 1.224 . S
N373 Co363 2.128 . S
N373 C374 1.355 1_545 S
N373 C376 1.311 . S
C374 N373 1.355 1_565 S
C374 C375 1.363 . S
C374 H386 0.929 . S
C375 C374 1.363 . S
C375 N377 1.375 1_565 S
C375 H393 0.931 . S
C376 N373 1.311 . S
C376 N377 1.347 . S
C376 H387 0.929 . S
N377 C375 1.375 1_545 S
N377 C376 1.347 . S
C378 C381 1.365 . S
C378 N383 1.328 1_565 S
C378 H384 0.929 . S
C379 C380 1.362 1_545 S
C379 C382 1.378 . S
C379 H394 0.929 . S
C380 C379 1.362 1_565 S
C380 C381 1.366 . S
C381 C378 1.365 . S
C381 C380 1.366 . S
C381 H395 0.930 . S
C382 C379 1.378 . S
C382 N383 1.315 . S
C382 H385 0.930 . S
N383 Co363 2.194 . S
N383 C378 1.328 1_545 S
N383 C382 1.315 . S
H384 C378 0.929 . S
H385 C382 0.930 . S
H386 C374 0.929 . S
H387 C376 0.929 . S
O388 Co363 2.351 1_565 S
O388 C391 1.244 . S
O389 Co363 2.155 . S
O389 C391 1.240 1_545 S
O390 Co363 2.096 . S
O390 C371 1.247 . S
C391 O388 1.244 . S
C391 O389 1.240 1_565 S
H392 C366 0.931 . S
H393 C375 0.931 . S
H394 C379 0.929 . S
H395 C381 0.930 . S
Co396 N400 2.148 . S
Co396 N406 2.128 . S
Co396 N416 2.194 . S
Co396 O421 2.351 . S
Co396 O422 2.155 . S
Co396 O423 2.096 . S
C397 N400 1.301 . S
C397 N401 1.328 . S
C397 H402 0.930 . S
C398 C399 1.333 . S
C398 N400 1.317 . S
C398 H403 0.930 . S
C399 C398 1.333 . S
C399 N401 1.350 . S
C399 H425 0.931 . S
N400 Co396 2.148 . S
N400 C397 1.301 . S
N400 C398 1.317 . S
N401 C397 1.328 . S
N401 C399 1.350 . S
H402 C397 0.930 . S
H403 C398 0.930 . S
C404 O405 1.224 . S
C404 O423 1.247 . S
O405 C404 1.224 . S
N406 Co396 2.128 . S
N406 C407 1.355 . S
N406 C409 1.311 . S
C407 N406 1.355 . S
C407 C408 1.363 . S
C407 H419 0.929 . S
C408 C407 1.363 . S
C408 N410 1.375 . S
C408 H426 0.931 . S
C409 N406 1.311 . S
C409 N410 1.347 . S
C409 H420 0.929 . S
N410 C408 1.375 . S
N410 C409 1.347 . S
C411 C414 1.365 . S
C411 N416 1.328 . S
C411 H417 0.929 . S
C412 C413 1.362 . S
C412 C415 1.378 . S
C412 H427 0.929 . S
C413 C412 1.362 . S
C413 C414 1.366 . S
C414 C411 1.365 . S
C414 C413 1.366 . S
C414 H428 0.930 . S
C415 C412 1.378 . S
C415 N416 1.315 . S
C415 H418 0.930 . S
N416 Co396 2.194 . S
N416 C411 1.328 . S
N416 C415 1.315 . S
H417 C411 0.929 . S
H418 C415 0.930 . S
H419 C407 0.929 . S
H420 C409 0.929 . S
O421 Co396 2.351 . S
O421 C424 1.244 . S
O422 Co396 2.155 . S
O422 C424 1.240 . S
O423 Co396 2.096 . S
O423 C404 1.247 . S
C424 O421 1.244 . S
C424 O422 1.240 . S
H425 C399 0.931 . S
H426 C408 0.931 . S
H427 C412 0.929 . S
H428 C414 0.930 . S
Co429 N433 2.148 . S
Co429 N439 2.128 . S
Co429 N449 2.194 . S
Co429 O454 2.351 1_565 S
Co429 O455 2.155 . S
Co429 O456 2.096 . S
C430 N433 1.301 . S
C430 N434 1.328 . S
C430 H435 0.930 . S
C431 C432 1.333 . S
C431 N433 1.317 . S
C431 H436 0.930 . S
C432 C431 1.333 . S
C432 N434 1.350 . S
C432 H458 0.931 . S
N433 Co429 2.148 . S
N433 C430 1.301 . S
N433 C431 1.317 . S
N434 C430 1.328 . S
N434 C432 1.350 . S
H435 C430 0.930 . S
H436 C431 0.930 . S
C437 O438 1.224 . S
C437 O456 1.247 . S
O438 C437 1.224 . S
N439 Co429 2.128 . S
N439 C440 1.355 1_565 S
N439 C442 1.311 . S
C440 N439 1.355 1_545 S
C440 C441 1.363 . S
C440 H452 0.929 . S
C441 C440 1.363 . S
C441 N443 1.375 1_545 S
C441 H459 0.931 . S
C442 N439 1.311 . S
C442 N443 1.347 . S
C442 H453 0.929 . S
N443 C441 1.375 1_565 S
N443 C442 1.347 . S
C444 C447 1.365 . S
C444 N449 1.328 1_545 S
C444 H450 0.929 . S
C445 C446 1.362 1_565 S
C445 C448 1.378 . S
C445 H460 0.929 . S
C446 C445 1.362 1_545 S
C446 C447 1.366 . S
C447 C444 1.365 . S
C447 C446 1.366 . S
C447 H461 0.930 . S
C448 C445 1.378 . S
C448 N449 1.315 . S
C448 H451 0.930 . S
N449 Co429 2.194 . S
N449 C444 1.328 1_565 S
N449 C448 1.315 . S
H450 C444 0.929 . S
H451 C448 0.930 . S
H452 C440 0.929 . S
H453 C442 0.929 . S
O454 Co429 2.351 1_545 S
O454 C457 1.244 . S
O455 Co429 2.155 . S
O455 C457 1.240 1_565 S
O456 Co429 2.096 . S
O456 C437 1.247 . S
C457 O454 1.244 . S
C457 O455 1.240 1_545 S
H458 C432 0.931 . S
H459 C441 0.931 . S
H460 C445 0.929 . S
H461 C447 0.930 . S
Co462 N466 2.148 . S
Co462 N472 2.128 . S
Co462 N482 2.194 . S
Co462 O487 2.351 . S
Co462 O488 2.155 . S
Co462 O489 2.096 . S
C463 N466 1.301 . S
C463 N467 1.328 . S
C463 H468 0.930 . S
C464 C465 1.333 . S
C464 N466 1.317 . S
C464 H469 0.930 . S
C465 C464 1.333 . S
C465 N467 1.350 . S
C465 H491 0.931 . S
N466 Co462 2.148 . S
N466 C463 1.301 . S
N466 C464 1.317 . S
N467 C463 1.328 . S
N467 C465 1.350 . S
H468 C463 0.930 . S
H469 C464 0.930 . S
C470 O471 1.224 . S
C470 O489 1.247 . S
O471 C470 1.224 . S
N472 Co462 2.128 . S
N472 C473 1.355 . S
N472 C475 1.311 . S
C473 N472 1.355 . S
C473 C474 1.363 . S
C473 H485 0.929 . S
C474 C473 1.363 . S
C474 N476 1.375 . S
C474 H492 0.931 . S
C475 N472 1.311 . S
C475 N476 1.347 . S
C475 H486 0.929 . S
N476 C474 1.375 . S
N476 C475 1.347 . S
C477 C480 1.365 . S
C477 N482 1.328 . S
C477 H483 0.929 . S
C478 C479 1.362 . S
C478 C481 1.378 . S
C478 H493 0.929 . S
C479 C478 1.362 . S
C479 C480 1.366 . S
C480 C477 1.365 . S
C480 C479 1.366 . S
C480 H494 0.930 . S
C481 C478 1.378 . S
C481 N482 1.315 . S
C481 H484 0.930 . S
N482 Co462 2.194 . S
N482 C477 1.328 . S
N482 C481 1.315 . S
H483 C477 0.929 . S
H484 C481 0.930 . S
H485 C473 0.929 . S
H486 C475 0.929 . S
O487 Co462 2.351 . S
O487 C490 1.244 . S
O488 Co462 2.155 . S
O488 C490 1.240 . S
O489 Co462 2.096 . S
O489 C470 1.247 . S
C490 O487 1.244 . S
C490 O488 1.240 . S
H491 C465 0.931 . S
H492 C474 0.931 . S
H493 C478 0.929 . S
H494 C480 0.930 . S
Co495 N499 2.148 . S
Co495 N505 2.128 . S
Co495 N515 2.194 . S
Co495 O520 2.351 1_545 S
Co495 O521 2.155 . S
Co495 O522 2.096 . S
C496 N499 1.301 . S
C496 N500 1.328 . S
C496 H501 0.930 . S
C497 C498 1.333 . S
C497 N499 1.317 . S
C497 H502 0.930 . S
C498 C497 1.333 . S
C498 N500 1.350 . S
C498 H524 0.931 . S
N499 Co495 2.148 . S
N499 C496 1.301 . S
N499 C497 1.317 . S
N500 C496 1.328 . S
N500 C498 1.350 . S
H501 C496 0.930 . S
H502 C497 0.930 . S
C503 O504 1.224 . S
C503 O522 1.247 . S
O504 C503 1.224 . S
N505 Co495 2.128 . S
N505 C506 1.355 1_545 S
N505 C508 1.311 1_655 S
C506 N505 1.355 1_565 S
C506 C507 1.363 1_655 S
C506 H518 0.929 . S
C507 C506 1.363 1_455 S
C507 N509 1.375 1_565 S
C507 H525 0.931 . S
C508 N505 1.311 1_455 S
C508 N509 1.347 . S
C508 H519 0.929 . S
N509 C507 1.375 1_545 S
N509 C508 1.347 . S
C510 C513 1.365 . S
C510 N515 1.328 1_565 S
C510 H516 0.929 . S
C511 C512 1.362 1_545 S
C511 C514 1.378 . S
C511 H526 0.929 . S
C512 C511 1.362 1_565 S
C512 C513 1.366 . S
C513 C510 1.365 . S
C513 C512 1.366 . S
C513 H527 0.930 . S
C514 C511 1.378 . S
C514 N515 1.315 . S
C514 H517 0.930 . S
N515 Co495 2.194 . S
N515 C510 1.328 1_545 S
N515 C514 1.315 . S
H516 C510 0.929 . S
H517 C514 0.930 . S
H518 C506 0.929 . S
H519 C508 0.929 . S
O520 Co495 2.351 1_565 S
O520 C523 1.244 . S
O521 Co495 2.155 . S
O521 C523 1.240 1_545 S
O522 Co495 2.096 . S
O522 C503 1.247 . S
C523 O520 1.244 . S
C523 O521 1.240 1_565 S
H524 C498 0.931 . S
H525 C507 0.931 . S
H526 C511 0.929 . S
H527 C513 0.930 . S
Co528 N532 2.148 . S
Co528 N538 2.128 . S
Co528 N548 2.194 . S
Co528 O553 2.351 . S
Co528 O554 2.155 . S
Co528 O555 2.096 . S
C529 N532 1.301 . S
C529 N533 1.328 . S
C529 H534 0.930 . S
C530 C531 1.333 . S
C530 N532 1.317 . S
C530 H535 0.930 . S
C531 C530 1.333 . S
C531 N533 1.350 . S
C531 H557 0.931 . S
N532 Co528 2.148 . S
N532 C529 1.301 . S
N532 C530 1.317 . S
N533 C529 1.328 . S
N533 C531 1.350 . S
H534 C529 0.930 . S
H535 C530 0.930 . S
C536 O537 1.224 . S
C536 O555 1.247 . S
O537 C536 1.224 . S
N538 Co528 2.128 . S
N538 C539 1.355 . S
N538 C541 1.311 . S
C539 N538 1.355 . S
C539 C540 1.363 . S
C539 H551 0.929 . S
C540 C539 1.363 . S
C540 N542 1.375 . S
C540 H558 0.931 . S
C541 N538 1.311 . S
C541 N542 1.347 . S
C541 H552 0.929 . S
N542 C540 1.375 . S
N542 C541 1.347 . S
C543 C546 1.365 . S
C543 N548 1.328 . S
C543 H549 0.929 . S
C544 C545 1.362 . S
C544 C547 1.378 . S
C544 H559 0.929 . S
C545 C544 1.362 . S
C545 C546 1.366 . S
C546 C543 1.365 . S
C546 C545 1.366 . S
C546 H560 0.930 . S
C547 C544 1.378 . S
C547 N548 1.315 . S
C547 H550 0.930 . S
N548 Co528 2.194 . S
N548 C543 1.328 . S
N548 C547 1.315 . S
H549 C543 0.929 . S
H550 C547 0.930 . S
H551 C539 0.929 . S
H552 C541 0.929 . S
O553 Co528 2.351 . S
O553 C556 1.244 . S
O554 Co528 2.155 . S
O554 C556 1.240 . S
O555 Co528 2.096 . S
O555 C536 1.247 . S
C556 O553 1.244 . S
C556 O554 1.240 . S
H557 C531 0.931 . S
H558 C540 0.931 . S
H559 C544 0.929 . S
H560 C546 0.930 . S
Co561 N565 2.148 . S
Co561 N571 2.128 . S
Co561 N581 2.194 . S
Co561 O586 2.351 . S
Co561 O587 2.155 . S
Co561 O588 2.096 . S
C562 N565 1.301 . S
C562 N566 1.328 . S
C562 H567 0.930 . S
C563 C564 1.333 . S
C563 N565 1.317 . S
C563 H568 0.930 . S
C564 C563 1.333 . S
C564 N566 1.350 . S
C564 H590 0.931 . S
N565 Co561 2.148 . S
N565 C562 1.301 . S
N565 C563 1.317 . S
N566 C562 1.328 . S
N566 C564 1.350 . S
H567 C562 0.930 . S
H568 C563 0.930 . S
C569 O570 1.224 . S
C569 O588 1.247 . S
O570 C569 1.224 . S
N571 Co561 2.128 . S
N571 C572 1.355 . S
N571 C574 1.311 . S
C572 N571 1.355 . S
C572 C573 1.363 . S
C572 H584 0.929 . S
C573 C572 1.363 . S
C573 N575 1.375 . S
C573 H591 0.931 . S
C574 N571 1.311 . S
C574 N575 1.347 . S
C574 H585 0.929 . S
N575 C573 1.375 . S
N575 C574 1.347 . S
C576 C579 1.365 . S
C576 N581 1.328 . S
C576 H582 0.929 . S
C577 C578 1.362 . S
C577 C580 1.378 . S
C577 H592 0.929 . S
C578 C577 1.362 . S
C578 C579 1.366 . S
C579 C576 1.365 . S
C579 C578 1.366 . S
C579 H593 0.930 . S
C580 C577 1.378 . S
C580 N581 1.315 . S
C580 H583 0.930 . S
N581 Co561 2.194 . S
N581 C576 1.328 . S
N581 C580 1.315 . S
H582 C576 0.929 . S
H583 C580 0.930 . S
H584 C572 0.929 . S
H585 C574 0.929 . S
O586 Co561 2.351 . S
O586 C589 1.244 . S
O587 Co561 2.155 . S
O587 C589 1.240 . S
O588 Co561 2.096 . S
O588 C569 1.247 . S
C589 O586 1.244 . S
C589 O587 1.240 . S
H590 C564 0.931 . S
H591 C573 0.931 . S
H592 C577 0.929 . S
H593 C579 0.930 . S
Co594 N598 2.148 . S
Co594 N604 2.128 . S
Co594 N614 2.194 . S
Co594 O619 2.351 . S
Co594 O620 2.155 . S
Co594 O621 2.096 . S
C595 N598 1.301 . S
C595 N599 1.328 . S
C595 H600 0.930 . S
C596 C597 1.333 . S
C596 N598 1.317 . S
C596 H601 0.930 . S
C597 C596 1.333 . S
C597 N599 1.350 . S
C597 H623 0.931 . S
N598 Co594 2.148 . S
N598 C595 1.301 . S
N598 C596 1.317 . S
N599 C595 1.328 . S
N599 C597 1.350 . S
H600 C595 0.930 . S
H601 C596 0.930 . S
C602 O603 1.224 . S
C602 O621 1.247 . S
O603 C602 1.224 . S
N604 Co594 2.128 . S
N604 C605 1.355 . S
N604 C607 1.311 . S
C605 N604 1.355 . S
C605 C606 1.363 . S
C605 H617 0.929 . S
C606 C605 1.363 . S
C606 N608 1.375 . S
C606 H624 0.931 . S
C607 N604 1.311 . S
C607 N608 1.347 . S
C607 H618 0.929 . S
N608 C606 1.375 . S
N608 C607 1.347 . S
C609 C612 1.365 . S
C609 N614 1.328 . S
C609 H615 0.929 . S
C610 C611 1.362 . S
C610 C613 1.378 . S
C610 H625 0.929 . S
C611 C610 1.362 . S
C611 C612 1.366 . S
C612 C609 1.365 . S
C612 C611 1.366 . S
C612 H626 0.930 . S
C613 C610 1.378 . S
C613 N614 1.315 . S
C613 H616 0.930 . S
N614 Co594 2.194 . S
N614 C609 1.328 . S
N614 C613 1.315 . S
H615 C609 0.929 . S
H616 C613 0.930 . S
H617 C605 0.929 . S
H618 C607 0.929 . S
O619 Co594 2.351 . S
O619 C622 1.244 . S
O620 Co594 2.155 . S
O620 C622 1.240 . S
O621 Co594 2.096 . S
O621 C602 1.247 . S
C622 O619 1.244 . S
C622 O620 1.240 . S
H623 C597 0.931 . S
H624 C606 0.931 . S
H625 C610 0.929 . S
H626 C612 0.930 . S
Co627 N631 2.148 . S
Co627 N637 2.128 . S
Co627 N647 2.194 . S
Co627 O652 2.351 . S
Co627 O653 2.155 . S
Co627 O654 2.096 . S
C628 N631 1.301 . S
C628 N632 1.328 . S
C628 H633 0.930 . S
C629 C630 1.333 . S
C629 N631 1.317 . S
C629 H634 0.930 . S
C630 C629 1.333 . S
C630 N632 1.350 . S
C630 H656 0.931 . S
N631 Co627 2.148 . S
N631 C628 1.301 . S
N631 C629 1.317 . S
N632 C628 1.328 . S
N632 C630 1.350 . S
H633 C628 0.930 . S
H634 C629 0.930 . S
C635 O636 1.224 . S
C635 O654 1.247 . S
O636 C635 1.224 . S
N637 Co627 2.128 . S
N637 C638 1.355 . S
N637 C640 1.311 1_655 S
C638 N637 1.355 . S
C638 C639 1.363 1_655 S
C638 H650 0.929 . S
C639 C638 1.363 1_455 S
C639 N641 1.375 . S
C639 H657 0.931 . S
C640 N637 1.311 1_455 S
C640 N641 1.347 . S
C640 H651 0.929 . S
N641 C639 1.375 . S
N641 C640 1.347 . S
C642 C645 1.365 . S
C642 N647 1.328 . S
C642 H648 0.929 . S
C643 C644 1.362 . S
C643 C646 1.378 . S
C643 H658 0.929 . S
C644 C643 1.362 . S
C644 C645 1.366 . S
C645 C642 1.365 . S
C645 C644 1.366 . S
C645 H659 0.930 . S
C646 C643 1.378 . S
C646 N647 1.315 . S
C646 H649 0.930 . S
N647 Co627 2.194 . S
N647 C642 1.328 . S
N647 C646 1.315 . S
H648 C642 0.929 . S
H649 C646 0.930 . S
H650 C638 0.929 . S
H651 C640 0.929 . S
O652 Co627 2.351 . S
O652 C655 1.244 . S
O653 Co627 2.155 . S
O653 C655 1.240 . S
O654 Co627 2.096 . S
O654 C635 1.247 . S
C655 O652 1.244 . S
C655 O653 1.240 . S
H656 C630 0.931 . S
H657 C639 0.931 . S
H658 C643 0.929 . S
H659 C645 0.930 . S
Co660 N664 2.148 . S
Co660 N670 2.128 . S
Co660 N680 2.194 . S
Co660 O685 2.351 . S
Co660 O686 2.155 . S
Co660 O687 2.096 . S
C661 N664 1.301 . S
C661 N665 1.328 . S
C661 H666 0.930 . S
C662 C663 1.333 . S
C662 N664 1.317 . S
C662 H667 0.930 . S
C663 C662 1.333 . S
C663 N665 1.350 . S
C663 H689 0.931 . S
N664 Co660 2.148 . S
N664 C661 1.301 . S
N664 C662 1.317 . S
N665 C661 1.328 . S
N665 C663 1.350 . S
H666 C661 0.930 . S
H667 C662 0.930 . S
C668 O669 1.224 . S
C668 O687 1.247 . S
O669 C668 1.224 . S
N670 Co660 2.128 . S
N670 C671 1.355 . S
N670 C673 1.311 . S
C671 N670 1.355 . S
C671 C672 1.363 . S
C671 H683 0.929 . S
C672 C671 1.363 . S
C672 N674 1.375 . S
C672 H690 0.931 . S
C673 N670 1.311 . S
C673 N674 1.347 . S
C673 H684 0.929 . S
N674 C672 1.375 . S
N674 C673 1.347 . S
C675 C678 1.365 . S
C675 N680 1.328 . S
C675 H681 0.929 . S
C676 C677 1.362 . S
C676 C679 1.378 . S
C676 H691 0.929 . S
C677 C676 1.362 . S
C677 C678 1.366 . S
C678 C675 1.365 . S
C678 C677 1.366 . S
C678 H692 0.930 . S
C679 C676 1.378 . S
C679 N680 1.315 . S
C679 H682 0.930 . S
N680 Co660 2.194 . S
N680 C675 1.328 . S
N680 C679 1.315 . S
H681 C675 0.929 . S
H682 C679 0.930 . S
H683 C671 0.929 . S
H684 C673 0.929 . S
O685 Co660 2.351 . S
O685 C688 1.244 . S
O686 Co660 2.155 . S
O686 C688 1.240 . S
O687 Co660 2.096 . S
O687 C668 1.247 . S
C688 O685 1.244 . S
C688 O686 1.240 . S
H689 C663 0.931 . S
H690 C672 0.931 . S
H691 C676 0.929 . S
H692 C678 0.930 . S
Co693 N697 2.148 . S
Co693 N703 2.128 . S
Co693 N713 2.194 . S
Co693 O718 2.351 . S
Co693 O719 2.155 . S
Co693 O720 2.096 . S
C694 N697 1.301 . S
C694 N698 1.328 . S
C694 H699 0.930 . S
C695 C696 1.333 . S
C695 N697 1.317 . S
C695 H700 0.930 . S
C696 C695 1.333 . S
C696 N698 1.350 . S
C696 H722 0.931 . S
N697 Co693 2.148 . S
N697 C694 1.301 . S
N697 C695 1.317 . S
N698 C694 1.328 . S
N698 C696 1.350 . S
H699 C694 0.930 . S
H700 C695 0.930 . S
C701 O702 1.224 . S
C701 O720 1.247 . S
O702 C701 1.224 . S
N703 Co693 2.128 . S
N703 C704 1.355 . S
N703 C706 1.311 1_655 S
C704 N703 1.355 . S
C704 C705 1.363 1_655 S
C704 H716 0.929 . S
C705 C704 1.363 1_455 S
C705 N707 1.375 . S
C705 H723 0.931 . S
C706 N703 1.311 1_455 S
C706 N707 1.347 . S
C706 H717 0.929 . S
N707 C705 1.375 . S
N707 C706 1.347 . S
C708 C711 1.365 . S
C708 N713 1.328 . S
C708 H714 0.929 . S
C709 C710 1.362 . S
C709 C712 1.378 . S
C709 H724 0.929 . S
C710 C709 1.362 . S
C710 C711 1.366 . S
C711 C708 1.365 . S
C711 C710 1.366 . S
C711 H725 0.930 . S
C712 C709 1.378 . S
C712 N713 1.315 . S
C712 H715 0.930 . S
N713 Co693 2.194 . S
N713 C708 1.328 . S
N713 C712 1.315 . S
H714 C708 0.929 . S
H715 C712 0.930 . S
H716 C704 0.929 . S
H717 C706 0.929 . S
O718 Co693 2.351 . S
O718 C721 1.244 . S
O719 Co693 2.155 . S
O719 C721 1.240 . S
O720 Co693 2.096 . S
O720 C701 1.247 . S
C721 O718 1.244 . S
C721 O719 1.240 . S
H722 C696 0.931 . S
H723 C705 0.931 . S
H724 C709 0.929 . S
H725 C711 0.930 . S
Co726 N730 2.148 . S
Co726 N736 2.128 . S
Co726 N746 2.194 . S
Co726 O751 2.351 . S
Co726 O752 2.155 . S
Co726 O753 2.096 . S
C727 N730 1.301 . S
C727 N731 1.328 . S
C727 H732 0.930 . S
C728 C729 1.333 . S
C728 N730 1.317 . S
C728 H733 0.930 . S
C729 C728 1.333 . S
C729 N731 1.350 . S
C729 H755 0.931 . S
N730 Co726 2.148 . S
N730 C727 1.301 . S
N730 C728 1.317 . S
N731 C727 1.328 . S
N731 C729 1.350 . S
H732 C727 0.930 . S
H733 C728 0.930 . S
C734 O735 1.224 . S
C734 O753 1.247 . S
O735 C734 1.224 . S
N736 Co726 2.128 . S
N736 C737 1.355 . S
N736 C739 1.311 . S
C737 N736 1.355 . S
C737 C738 1.363 . S
C737 H749 0.929 . S
C738 C737 1.363 . S
C738 N740 1.375 . S
C738 H756 0.931 . S
C739 N736 1.311 . S
C739 N740 1.347 . S
C739 H750 0.929 . S
N740 C738 1.375 . S
N740 C739 1.347 . S
C741 C744 1.365 . S
C741 N746 1.328 . S
C741 H747 0.929 . S
C742 C743 1.362 . S
C742 C745 1.378 . S
C742 H757 0.929 . S
C743 C742 1.362 . S
C743 C744 1.366 . S
C744 C741 1.365 . S
C744 C743 1.366 . S
C744 H758 0.930 . S
C745 C742 1.378 . S
C745 N746 1.315 . S
C745 H748 0.930 . S
N746 Co726 2.194 . S
N746 C741 1.328 . S
N746 C745 1.315 . S
H747 C741 0.929 . S
H748 C745 0.930 . S
H749 C737 0.929 . S
H750 C739 0.929 . S
O751 Co726 2.351 . S
O751 C754 1.244 . S
O752 Co726 2.155 . S
O752 C754 1.240 . S
O753 Co726 2.096 . S
O753 C734 1.247 . S
C754 O751 1.244 . S
C754 O752 1.240 . S
H755 C729 0.931 . S
H756 C738 0.931 . S
H757 C742 0.929 . S
H758 C744 0.930 . S
Co759 N763 2.148 . S
Co759 N769 2.128 . S
Co759 N779 2.194 . S
Co759 O784 2.351 . S
Co759 O785 2.155 . S
Co759 O786 2.096 . S
C760 N763 1.301 . S
C760 N764 1.328 . S
C760 H765 0.930 . S
C761 C762 1.333 . S
C761 N763 1.317 . S
C761 H766 0.930 . S
C762 C761 1.333 . S
C762 N764 1.350 . S
C762 H788 0.931 . S
N763 Co759 2.148 . S
N763 C760 1.301 . S
N763 C761 1.317 . S
N764 C760 1.328 . S
N764 C762 1.350 . S
H765 C760 0.930 . S
H766 C761 0.930 . S
C767 O768 1.224 . S
C767 O786 1.247 . S
O768 C767 1.224 . S
N769 Co759 2.128 . S
N769 C770 1.355 . S
N769 C772 1.311 . S
C770 N769 1.355 . S
C770 C771 1.363 . S
C770 H782 0.929 . S
C771 C770 1.363 . S
C771 N773 1.375 . S
C771 H789 0.931 . S
C772 N769 1.311 . S
C772 N773 1.347 . S
C772 H783 0.929 . S
N773 C771 1.375 . S
N773 C772 1.347 . S
C774 C777 1.365 . S
C774 N779 1.328 . S
C774 H780 0.929 . S
C775 C776 1.362 . S
C775 C778 1.378 . S
C775 H790 0.929 . S
C776 C775 1.362 . S
C776 C777 1.366 . S
C777 C774 1.365 . S
C777 C776 1.366 . S
C777 H791 0.930 . S
C778 C775 1.378 . S
C778 N779 1.315 . S
C778 H781 0.930 . S
N779 Co759 2.194 . S
N779 C774 1.328 . S
N779 C778 1.315 . S
H780 C774 0.929 . S
H781 C778 0.930 . S
H782 C770 0.929 . S
H783 C772 0.929 . S
O784 Co759 2.351 . S
O784 C787 1.244 . S
O785 Co759 2.155 . S
O785 C787 1.240 . S
O786 Co759 2.096 . S
O786 C767 1.247 . S
C787 O784 1.244 . S
C787 O785 1.240 . S
H788 C762 0.931 . S
H789 C771 0.931 . S
H790 C775 0.929 . S
H791 C777 0.930 . S
Co792 N796 2.148 . S
Co792 N802 2.128 . S
Co792 N812 2.194 . S
Co792 O817 2.351 . S
Co792 O818 2.155 . S
Co792 O819 2.096 . S
C793 N796 1.301 . S
C793 N797 1.328 . S
C793 H798 0.930 . S
C794 C795 1.333 . S
C794 N796 1.317 . S
C794 H799 0.930 . S
C795 C794 1.333 . S
C795 N797 1.350 . S
C795 H821 0.931 . S
N796 Co792 2.148 . S
N796 C793 1.301 . S
N796 C794 1.317 . S
N797 C793 1.328 . S
N797 C795 1.350 . S
H798 C793 0.930 . S
H799 C794 0.930 . S
C800 O801 1.224 . S
C800 O819 1.247 . S
O801 C800 1.224 . S
N802 Co792 2.128 . S
N802 C803 1.355 . S
N802 C805 1.311 . S
C803 N802 1.355 . S
C803 C804 1.363 . S
C803 H815 0.929 . S
C804 C803 1.363 . S
C804 N806 1.375 . S
C804 H822 0.931 . S
C805 N802 1.311 . S
C805 N806 1.347 . S
C805 H816 0.929 . S
N806 C804 1.375 . S
N806 C805 1.347 . S
C807 C810 1.365 . S
C807 N812 1.328 . S
C807 H813 0.929 . S
C808 C809 1.362 . S
C808 C811 1.378 . S
C808 H823 0.929 . S
C809 C808 1.362 . S
C809 C810 1.366 . S
C810 C807 1.365 . S
C810 C809 1.366 . S
C810 H824 0.930 . S
C811 C808 1.378 . S
C811 N812 1.315 . S
C811 H814 0.930 . S
N812 Co792 2.194 . S
N812 C807 1.328 . S
N812 C811 1.315 . S
H813 C807 0.929 . S
H814 C811 0.930 . S
H815 C803 0.929 . S
H816 C805 0.929 . S
O817 Co792 2.351 . S
O817 C820 1.244 . S
O818 Co792 2.155 . S
O818 C820 1.240 . S
O819 Co792 2.096 . S
O819 C800 1.247 . S
C820 O817 1.244 . S
C820 O818 1.240 . S
H821 C795 0.931 . S
H822 C804 0.931 . S
H823 C808 0.929 . S
H824 C810 0.930 . S
Co825 N829 2.148 . S
Co825 N835 2.128 . S
Co825 N845 2.194 . S
Co825 O850 2.351 . S
Co825 O851 2.155 . S
Co825 O852 2.096 . S
C826 N829 1.301 . S
C826 N830 1.328 . S
C826 H831 0.930 . S
C827 C828 1.333 . S
C827 N829 1.317 . S
C827 H832 0.930 . S
C828 C827 1.333 . S
C828 N830 1.350 . S
C828 H854 0.931 . S
N829 Co825 2.148 . S
N829 C826 1.301 . S
N829 C827 1.317 . S
N830 C826 1.328 . S
N830 C828 1.350 . S
H831 C826 0.930 . S
H832 C827 0.930 . S
C833 O834 1.224 . S
C833 O852 1.247 . S
O834 C833 1.224 . S
N835 Co825 2.128 . S
N835 C836 1.355 . S
N835 C838 1.311 . S
C836 N835 1.355 . S
C836 C837 1.363 . S
C836 H848 0.929 . S
C837 C836 1.363 . S
C837 N839 1.375 . S
C837 H855 0.931 . S
C838 N835 1.311 . S
C838 N839 1.347 . S
C838 H849 0.929 . S
N839 C837 1.375 . S
N839 C838 1.347 . S
C840 C843 1.365 . S
C840 N845 1.328 . S
C840 H846 0.929 . S
C841 C842 1.362 . S
C841 C844 1.378 . S
C841 H856 0.929 . S
C842 C841 1.362 . S
C842 C843 1.366 . S
C843 C840 1.365 . S
C843 C842 1.366 . S
C843 H857 0.930 . S
C844 C841 1.378 . S
C844 N845 1.315 . S
C844 H847 0.930 . S
N845 Co825 2.194 . S
N845 C840 1.328 . S
N845 C844 1.315 . S
H846 C840 0.929 . S
H847 C844 0.930 . S
H848 C836 0.929 . S
H849 C838 0.929 . S
O850 Co825 2.351 . S
O850 C853 1.244 . S
O851 Co825 2.155 . S
O851 C853 1.240 . S
O852 Co825 2.096 . S
O852 C833 1.247 . S
C853 O850 1.244 . S
C853 O851 1.240 . S
H854 C828 0.931 . S
H855 C837 0.931 . S
H856 C841 0.929 . S
H857 C843 0.930 . S
Co858 N862 2.148 . S
Co858 N868 2.128 . S
Co858 N878 2.194 . S
Co858 O883 2.351 . S
Co858 O884 2.155 . S
Co858 O885 2.096 . S
C859 N862 1.301 . S
C859 N863 1.328 . S
C859 H864 0.930 . S
C860 C861 1.333 . S
C860 N862 1.317 . S
C860 H865 0.930 . S
C861 C860 1.333 . S
C861 N863 1.350 . S
C861 H887 0.931 . S
N862 Co858 2.148 . S
N862 C859 1.301 . S
N862 C860 1.317 . S
N863 C859 1.328 . S
N863 C861 1.350 . S
H864 C859 0.930 . S
H865 C860 0.930 . S
C866 O867 1.224 . S
C866 O885 1.247 . S
O867 C866 1.224 . S
N868 Co858 2.128 . S
N868 C869 1.355 . S
N868 C871 1.311 . S
C869 N868 1.355 . S
C869 C870 1.363 . S
C869 H881 0.929 . S
C870 C869 1.363 . S
C870 N872 1.375 . S
C870 H888 0.931 . S
C871 N868 1.311 . S
C871 N872 1.347 . S
C871 H882 0.929 . S
N872 C870 1.375 . S
N872 C871 1.347 . S
C873 C876 1.365 . S
C873 N878 1.328 . S
C873 H879 0.929 . S
C874 C875 1.362 . S
C874 C877 1.378 . S
C874 H889 0.929 . S
C875 C874 1.362 . S
C875 C876 1.366 . S
C876 C873 1.365 . S
C876 C875 1.366 . S
C876 H890 0.930 . S
C877 C874 1.378 . S
C877 N878 1.315 . S
C877 H880 0.930 . S
N878 Co858 2.194 . S
N878 C873 1.328 . S
N878 C877 1.315 . S
H879 C873 0.929 . S
H880 C877 0.930 . S
H881 C869 0.929 . S
H882 C871 0.929 . S
O883 Co858 2.351 . S
O883 C886 1.244 . S
O884 Co858 2.155 . S
O884 C886 1.240 . S
O885 Co858 2.096 . S
O885 C866 1.247 . S
C886 O883 1.244 . S
C886 O884 1.240 . S
H887 C861 0.931 . S
H888 C870 0.931 . S
H889 C874 0.929 . S
H890 C876 0.930 . S
Co891 N895 2.148 . S
Co891 N901 2.128 . S
Co891 N911 2.194 . S
Co891 O916 2.351 . S
Co891 O917 2.155 . S
Co891 O918 2.096 . S
C892 N895 1.301 . S
C892 N896 1.328 . S
C892 H897 0.930 . S
C893 C894 1.333 . S
C893 N895 1.317 . S
C893 H898 0.930 . S
C894 C893 1.333 . S
C894 N896 1.350 . S
C894 H920 0.931 . S
N895 Co891 2.148 . S
N895 C892 1.301 . S
N895 C893 1.317 . S
N896 C892 1.328 . S
N896 C894 1.350 . S
H897 C892 0.930 . S
H898 C893 0.930 . S
C899 O900 1.224 . S
C899 O918 1.247 . S
O900 C899 1.224 . S
N901 Co891 2.128 . S
N901 C902 1.355 . S
N901 C904 1.311 1_455 S
C902 N901 1.355 . S
C902 C903 1.363 1_455 S
C902 H914 0.929 . S
C903 C902 1.363 1_655 S
C903 N905 1.375 . S
C903 H921 0.931 . S
C904 N901 1.311 1_655 S
C904 N905 1.347 . S
C904 H915 0.929 . S
N905 C903 1.375 . S
N905 C904 1.347 . S
C906 C909 1.365 . S
C906 N911 1.328 . S
C906 H912 0.929 . S
C907 C908 1.362 . S
C907 C910 1.378 . S
C907 H922 0.929 . S
C908 C907 1.362 . S
C908 C909 1.366 . S
C909 C906 1.365 . S
C909 C908 1.366 . S
C909 H923 0.930 . S
C910 C907 1.378 . S
C910 N911 1.315 . S
C910 H913 0.930 . S
N911 Co891 2.194 . S
N911 C906 1.328 . S
N911 C910 1.315 . S
H912 C906 0.929 . S
H913 C910 0.930 . S
H914 C902 0.929 . S
H915 C904 0.929 . S
O916 Co891 2.351 . S
O916 C919 1.244 . S
O917 Co891 2.155 . S
O917 C919 1.240 . S
O918 Co891 2.096 . S
O918 C899 1.247 . S
C919 O916 1.244 . S
C919 O917 1.240 . S
H920 C894 0.931 . S
H921 C903 0.931 . S
H922 C907 0.929 . S
H923 C909 0.930 . S
Co924 N928 2.148 . S
Co924 N934 2.128 . S
Co924 N944 2.194 . S
Co924 O949 2.351 . S
Co924 O950 2.155 . S
Co924 O951 2.096 . S
C925 N928 1.301 . S
C925 N929 1.328 . S
C925 H930 0.930 . S
C926 C927 1.333 . S
C926 N928 1.317 . S
C926 H931 0.930 . S
C927 C926 1.333 . S
C927 N929 1.350 . S
C927 H953 0.931 . S
N928 Co924 2.148 . S
N928 C925 1.301 . S
N928 C926 1.317 . S
N929 C925 1.328 . S
N929 C927 1.350 . S
H930 C925 0.930 . S
H931 C926 0.930 . S
C932 O933 1.224 . S
C932 O951 1.247 . S
O933 C932 1.224 . S
N934 Co924 2.128 . S
N934 C935 1.355 . S
N934 C937 1.311 . S
C935 N934 1.355 . S
C935 C936 1.363 . S
C935 H947 0.929 . S
C936 C935 1.363 . S
C936 N938 1.375 . S
C936 H954 0.931 . S
C937 N934 1.311 . S
C937 N938 1.347 . S
C937 H948 0.929 . S
N938 C936 1.375 . S
N938 C937 1.347 . S
C939 C942 1.365 . S
C939 N944 1.328 . S
C939 H945 0.929 . S
C940 C941 1.362 . S
C940 C943 1.378 . S
C940 H955 0.929 . S
C941 C940 1.362 . S
C941 C942 1.366 . S
C942 C939 1.365 . S
C942 C941 1.366 . S
C942 H956 0.930 . S
C943 C940 1.378 . S
C943 N944 1.315 . S
C943 H946 0.930 . S
N944 Co924 2.194 . S
N944 C939 1.328 . S
N944 C943 1.315 . S
H945 C939 0.929 . S
H946 C943 0.930 . S
H947 C935 0.929 . S
H948 C937 0.929 . S
O949 Co924 2.351 . S
O949 C952 1.244 . S
O950 Co924 2.155 . S
O950 C952 1.240 . S
O951 Co924 2.096 . S
O951 C932 1.247 . S
C952 O949 1.244 . S
C952 O950 1.240 . S
H953 C927 0.931 . S
H954 C936 0.931 . S
H955 C940 0.929 . S
H956 C942 0.930 . S
Co957 N961 2.148 . S
Co957 N967 2.128 . S
Co957 N977 2.194 . S
Co957 O982 2.351 . S
Co957 O983 2.155 . S
Co957 O984 2.096 . S
C958 N961 1.301 . S
C958 N962 1.328 . S
C958 H963 0.930 . S
C959 C960 1.333 . S
C959 N961 1.317 . S
C959 H964 0.930 . S
C960 C959 1.333 . S
C960 N962 1.350 . S
C960 H986 0.931 . S
N961 Co957 2.148 . S
N961 C958 1.301 . S
N961 C959 1.317 . S
N962 C958 1.328 . S
N962 C960 1.350 . S
H963 C958 0.930 . S
H964 C959 0.930 . S
C965 O966 1.224 . S
C965 O984 1.247 . S
O966 C965 1.224 . S
N967 Co957 2.128 . S
N967 C968 1.355 . S
N967 C970 1.311 1_455 S
C968 N967 1.355 . S
C968 C969 1.363 1_455 S
C968 H980 0.929 . S
C969 C968 1.363 1_655 S
C969 N971 1.375 . S
C969 H987 0.931 . S
C970 N967 1.311 1_655 S
C970 N971 1.347 . S
C970 H981 0.929 . S
N971 C969 1.375 . S
N971 C970 1.347 . S
C972 C975 1.365 . S
C972 N977 1.328 . S
C972 H978 0.929 . S
C973 C974 1.362 . S
C973 C976 1.378 . S
C973 H988 0.929 . S
C974 C973 1.362 . S
C974 C975 1.366 . S
C975 C972 1.365 . S
C975 C974 1.366 . S
C975 H989 0.930 . S
C976 C973 1.378 . S
C976 N977 1.315 . S
C976 H979 0.930 . S
N977 Co957 2.194 . S
N977 C972 1.328 . S
N977 C976 1.315 . S
H978 C972 0.929 . S
H979 C976 0.930 . S
H980 C968 0.929 . S
H981 C970 0.929 . S
O982 Co957 2.351 . S
O982 C985 1.244 . S
O983 Co957 2.155 . S
O983 C985 1.240 . S
O984 Co957 2.096 . S
O984 C965 1.247 . S
C985 O982 1.244 . S
C985 O983 1.240 . S
H986 C960 0.931 . S
H987 C969 0.931 . S
H988 C973 0.929 . S
H989 C975 0.930 . S
Co990 N994 2.148 . S
Co990 N1000 2.128 . S
Co990 N1010 2.194 . S
Co990 O1015 2.351 . S
Co990 O1016 2.155 . S
Co990 O1017 2.096 . S
C991 N994 1.301 . S
C991 N995 1.328 . S
C991 H996 0.930 . S
C992 C993 1.333 . S
C992 N994 1.317 . S
C992 H997 0.930 . S
C993 C992 1.333 . S
C993 N995 1.350 . S
C993 H1019 0.931 . S
N994 Co990 2.148 . S
N994 C991 1.301 . S
N994 C992 1.317 . S
N995 C991 1.328 . S
N995 C993 1.350 . S
H996 C991 0.930 . S
H997 C992 0.930 . S
C998 O999 1.224 . S
C998 O1017 1.247 . S
O999 C998 1.224 . S
N1000 Co990 2.128 . S
N1000 C1001 1.355 . S
N1000 C1003 1.311 . S
C1001 N1000 1.355 . S
C1001 C1002 1.363 . S
C1001 H1013 0.929 . S
C1002 C1001 1.363 . S
C1002 N1004 1.375 . S
C1002 H1020 0.931 . S
C1003 N1000 1.311 . S
C1003 N1004 1.347 . S
C1003 H1014 0.929 . S
N1004 C1002 1.375 . S
N1004 C1003 1.347 . S
C1005 C1008 1.365 . S
C1005 N1010 1.328 . S
C1005 H1011 0.929 . S
C1006 C1007 1.362 . S
C1006 C1009 1.378 . S
C1006 H1021 0.929 . S
C1007 C1006 1.362 . S
C1007 C1008 1.366 . S
C1008 C1005 1.365 . S
C1008 C1007 1.366 . S
C1008 H1022 0.930 . S
C1009 C1006 1.378 . S
C1009 N1010 1.315 . S
C1009 H1012 0.930 . S
N1010 Co990 2.194 . S
N1010 C1005 1.328 . S
N1010 C1009 1.315 . S
H1011 C1005 0.929 . S
H1012 C1009 0.930 . S
H1013 C1001 0.929 . S
H1014 C1003 0.929 . S
O1015 Co990 2.351 . S
O1015 C1018 1.244 . S
O1016 Co990 2.155 . S
O1016 C1018 1.240 . S
O1017 Co990 2.096 . S
O1017 C998 1.247 . S
C1018 O1015 1.244 . S
C1018 O1016 1.240 . S
H1019 C993 0.931 . S
H1020 C1002 0.931 . S
H1021 C1006 0.929 . S
H1022 C1008 0.930 . S
Co1023 N1027 2.148 . S
Co1023 N1033 2.128 . S
Co1023 N1043 2.194 . S
Co1023 O1048 2.351 . S
Co1023 O1049 2.155 . S
Co1023 O1050 2.096 . S
C1024 N1027 1.301 . S
C1024 N1028 1.328 . S
C1024 H1029 0.930 . S
C1025 C1026 1.333 . S
C1025 N1027 1.317 . S
C1025 H1030 0.930 . S
C1026 C1025 1.333 . S
C1026 N1028 1.350 . S
C1026 H1052 0.931 . S
N1027 Co1023 2.148 . S
N1027 C1024 1.301 . S
N1027 C1025 1.317 . S
N1028 C1024 1.328 . S
N1028 C1026 1.350 . S
H1029 C1024 0.930 . S
H1030 C1025 0.930 . S
C1031 O1032 1.224 . S
C1031 O1050 1.247 . S
O1032 C1031 1.224 . S
N1033 Co1023 2.128 . S
N1033 C1034 1.355 . S
N1033 C1036 1.311 . S
C1034 N1033 1.355 . S
C1034 C1035 1.363 . S
C1034 H1046 0.929 . S
C1035 C1034 1.363 . S
C1035 N1037 1.375 . S
C1035 H1053 0.931 . S
C1036 N1033 1.311 . S
C1036 N1037 1.347 . S
C1036 H1047 0.929 . S
N1037 C1035 1.375 . S
N1037 C1036 1.347 . S
C1038 C1041 1.365 . S
C1038 N1043 1.328 . S
C1038 H1044 0.929 . S
C1039 C1040 1.362 . S
C1039 C1042 1.378 . S
C1039 H1054 0.929 . S
C1040 C1039 1.362 . S
C1040 C1041 1.366 . S
C1041 C1038 1.365 . S
C1041 C1040 1.366 . S
C1041 H1055 0.930 . S
C1042 C1039 1.378 . S
C1042 N1043 1.315 . S
C1042 H1045 0.930 . S
N1043 Co1023 2.194 . S
N1043 C1038 1.328 . S
N1043 C1042 1.315 . S
H1044 C1038 0.929 . S
H1045 C1042 0.930 . S
H1046 C1034 0.929 . S
H1047 C1036 0.929 . S
O1048 Co1023 2.351 . S
O1048 C1051 1.244 . S
O1049 Co1023 2.155 . S
O1049 C1051 1.240 . S
O1050 Co1023 2.096 . S
O1050 C1031 1.247 . S
C1051 O1048 1.244 . S
C1051 O1049 1.240 . S
H1052 C1026 0.931 . S
H1053 C1035 0.931 . S
H1054 C1039 0.929 . S
H1055 C1041 0.930 . S
H1056 C1062 0.930 . S
H1057 C1066 0.930 . S
H1058 C1071 0.929 . S
H1059 C1069 0.929 . S
H1060 C1064 0.929 . S
H1061 C1070 0.929 . S
C1062 H1056 0.930 . S
C1062 C1063 1.367 . S
C1062 C1070 1.378 . S
C1063 C1062 1.367 . S
C1063 C1071 1.433 . S
C1064 H1060 0.929 . S
C1064 C1066 1.378 . S
C1064 C1068 1.350 . S
C1065 C1068 1.463 . S
C1065 C1070 1.350 . S
C1065 N1073 1.427 . S
C1066 H1057 0.930 . S
C1066 C1064 1.378 . S
C1066 C1067 1.367 . S
C1067 C1066 1.367 . S
C1067 C1069 1.433 . S
C1068 C1064 1.350 . S
C1068 C1065 1.463 . S
C1068 N1072 1.427 . S
C1069 H1059 0.929 . S
C1069 C1067 1.433 . S
C1069 N1072 1.384 . S
C1070 H1061 0.929 . S
C1070 C1062 1.378 . S
C1070 C1065 1.350 . S
C1071 H1058 0.929 . S
C1071 C1063 1.433 . S
C1071 N1073 1.384 . S
N1072 C1068 1.427 . S
N1072 C1069 1.384 . S
N1073 C1065 1.427 . S
N1073 C1071 1.384 . S
H1074 C1080 0.930 . S
H1075 C1084 0.930 . S
H1076 C1089 0.929 . S
H1077 C1087 0.929 . S
H1078 C1082 0.929 . S
H1079 C1088 0.929 . S
C1080 H1074 0.930 . S
C1080 C1081 1.367 . S
C1080 C1088 1.378 . S
C1081 C1080 1.367 . S
C1081 C1089 1.433 . S
C1082 H1078 0.929 . S
C1082 C1084 1.378 . S
C1082 C1086 1.350 . S
C1083 C1086 1.463 . S
C1083 C1088 1.350 . S
C1083 N1091 1.427 . S
C1084 H1075 0.930 . S
C1084 C1082 1.378 . S
C1084 C1085 1.367 . S
C1085 C1084 1.367 . S
C1085 C1087 1.433 . S
C1086 C1082 1.350 . S
C1086 C1083 1.463 . S
C1086 N1090 1.427 . S
C1087 H1077 0.929 . S
C1087 C1085 1.433 . S
C1087 N1090 1.384 . S
C1088 H1079 0.929 . S
C1088 C1080 1.378 . S
C1088 C1083 1.350 . S
C1089 H1076 0.929 . S
C1089 C1081 1.433 . S
C1089 N1091 1.384 . S
N1090 C1086 1.427 . S
N1090 C1087 1.384 . S
N1091 C1083 1.427 . S
N1091 C1089 1.384 . S
H1092 C1098 0.930 . S
H1093 C1102 0.930 . S
H1094 C1107 0.929 . S
H1095 C1105 0.929 1_545 S
H1096 C1100 0.929 . S
H1097 C1106 0.929 . S
C1098 H1092 0.930 . S
C1098 C1099 1.367 . S
C1098 C1106 1.378 . S
C1099 C1098 1.367 . S
C1099 C1107 1.433 . S
C1100 H1096 0.929 . S
C1100 C1102 1.378 . S
C1100 C1104 1.350 . S
C1101 C1104 1.463 . S
C1101 C1106 1.350 . S
C1101 N1109 1.427 . S
C1102 H1093 0.930 . S
C1102 C1100 1.378 . S
C1102 C1103 1.367 . S
C1103 C1102 1.367 . S
C1103 C1105 1.433 . S
C1104 C1100 1.350 . S
C1104 C1101 1.463 . S
C1104 N1108 1.427 . S
C1105 H1095 0.929 1_565 S
C1105 C1103 1.433 . S
C1105 N1108 1.384 . S
C1106 H1097 0.929 . S
C1106 C1098 1.378 . S
C1106 C1101 1.350 . S
C1107 H1094 0.929 . S
C1107 C1099 1.433 . S
C1107 N1109 1.384 . S
N1108 C1104 1.427 . S
N1108 C1105 1.384 . S
N1109 C1101 1.427 . S
N1109 C1107 1.384 . S
H1110 C1116 0.930 . S
H1111 C1120 0.930 . S
H1112 C1125 0.929 . S
H1113 C1123 0.929 . S
H1114 C1118 0.929 . S
H1115 C1124 0.929 . S
C1116 H1110 0.930 . S
C1116 C1117 1.367 . S
C1116 C1124 1.378 . S
C1117 C1116 1.367 . S
C1117 C1125 1.433 . S
C1118 H1114 0.929 . S
C1118 C1120 1.378 . S
C1118 C1122 1.350 . S
C1119 C1122 1.463 . S
C1119 C1124 1.350 . S
C1119 N1127 1.427 . S
C1120 H1111 0.930 . S
C1120 C1118 1.378 . S
C1120 C1121 1.367 . S
C1121 C1120 1.367 . S
C1121 C1123 1.433 . S
C1122 C1118 1.350 . S
C1122 C1119 1.463 . S
C1122 N1126 1.427 . S
C1123 H1113 0.929 . S
C1123 C1121 1.433 . S
C1123 N1126 1.384 . S
C1124 H1115 0.929 . S
C1124 C1116 1.378 . S
C1124 C1119 1.350 . S
C1125 H1112 0.929 . S
C1125 C1117 1.433 . S
C1125 N1127 1.384 . S
N1126 C1122 1.427 . S
N1126 C1123 1.384 . S
N1127 C1119 1.427 . S
N1127 C1125 1.384 . S
H1128 C1134 0.930 . S
H1129 C1138 0.930 . S
H1130 C1143 0.929 . S
H1131 C1141 0.929 . S
H1132 C1136 0.929 . S
H1133 C1142 0.929 . S
C1134 H1128 0.930 . S
C1134 C1135 1.367 . S
C1134 C1142 1.378 . S
C1135 C1134 1.367 . S
C1135 C1143 1.433 . S
C1136 H1132 0.929 . S
C1136 C1138 1.378 . S
C1136 C1140 1.350 . S
C1137 C1140 1.463 . S
C1137 C1142 1.350 . S
C1137 N1145 1.427 . S
C1138 H1129 0.930 . S
C1138 C1136 1.378 . S
C1138 C1139 1.367 . S
C1139 C1138 1.367 . S
C1139 C1141 1.433 . S
C1140 C1136 1.350 . S
C1140 C1137 1.463 . S
C1140 N1144 1.427 . S
C1141 H1131 0.929 . S
C1141 C1139 1.433 . S
C1141 N1144 1.384 . S
C1142 H1133 0.929 . S
C1142 C1134 1.378 . S
C1142 C1137 1.350 . S
C1143 H1130 0.929 . S
C1143 C1135 1.433 . S
C1143 N1145 1.384 . S
N1144 C1140 1.427 . S
N1144 C1141 1.384 . S
N1145 C1137 1.427 . S
N1145 C1143 1.384 . S
H1146 C1152 0.930 . S
H1147 C1156 0.930 . S
H1148 C1161 0.929 . S
H1149 C1159 0.929 . S
H1150 C1154 0.929 . S
H1151 C1160 0.929 . S
C1152 H1146 0.930 . S
C1152 C1153 1.367 . S
C1152 C1160 1.378 . S
C1153 C1152 1.367 . S
C1153 C1161 1.433 . S
C1154 H1150 0.929 . S
C1154 C1156 1.378 . S
C1154 C1158 1.350 . S
C1155 C1158 1.463 . S
C1155 C1160 1.350 . S
C1155 N1163 1.427 . S
C1156 H1147 0.930 . S
C1156 C1154 1.378 . S
C1156 C1157 1.367 . S
C1157 C1156 1.367 . S
C1157 C1159 1.433 . S
C1158 C1154 1.350 . S
C1158 C1155 1.463 . S
C1158 N1162 1.427 . S
C1159 H1149 0.929 . S
C1159 C1157 1.433 . S
C1159 N1162 1.384 . S
C1160 H1151 0.929 . S
C1160 C1152 1.378 . S
C1160 C1155 1.350 . S
C1161 H1148 0.929 . S
C1161 C1153 1.433 . S
C1161 N1163 1.384 . S
N1162 C1158 1.427 . S
N1162 C1159 1.384 . S
N1163 C1155 1.427 . S
N1163 C1161 1.384 . S
H1164 C1170 0.930 . S
H1165 C1174 0.930 . S
H1166 C1179 0.929 . S
H1167 C1177 0.929 . S
H1168 C1172 0.929 . S
H1169 C1178 0.929 . S
C1170 H1164 0.930 . S
C1170 C1171 1.367 . S
C1170 C1178 1.378 . S
C1171 C1170 1.367 . S
C1171 C1179 1.433 . S
C1172 H1168 0.929 . S
C1172 C1174 1.378 . S
C1172 C1176 1.350 . S
C1173 C1176 1.463 . S
C1173 C1178 1.350 . S
C1173 N1181 1.427 . S
C1174 H1165 0.930 . S
C1174 C1172 1.378 . S
C1174 C1175 1.367 . S
C1175 C1174 1.367 . S
C1175 C1177 1.433 . S
C1176 C1172 1.350 . S
C1176 C1173 1.463 . S
C1176 N1180 1.427 . S
C1177 H1167 0.929 . S
C1177 C1175 1.433 . S
C1177 N1180 1.384 . S
C1178 H1169 0.929 . S
C1178 C1170 1.378 . S
C1178 C1173 1.350 . S
C1179 H1166 0.929 . S
C1179 C1171 1.433 . S
C1179 N1181 1.384 . S
N1180 C1176 1.427 . S
N1180 C1177 1.384 . S
N1181 C1173 1.427 . S
N1181 C1179 1.384 . S
H1182 C1188 0.930 . S
H1183 C1192 0.930 . S
H1184 C1197 0.929 1_545 S
H1185 C1195 0.929 . S
H1186 C1190 0.929 . S
H1187 C1196 0.929 . S
C1188 H1182 0.930 . S
C1188 C1189 1.367 . S
C1188 C1196 1.378 . S
C1189 C1188 1.367 . S
C1189 C1197 1.433 . S
C1190 H1186 0.929 . S
C1190 C1192 1.378 . S
C1190 C1194 1.350 . S
C1191 C1194 1.463 . S
C1191 C1196 1.350 . S
C1191 N1199 1.427 . S
C1192 H1183 0.930 . S
C1192 C1190 1.378 . S
C1192 C1193 1.367 . S
C1193 C1192 1.367 . S
C1193 C1195 1.433 . S
C1194 C1190 1.350 . S
C1194 C1191 1.463 . S
C1194 N1198 1.427 . S
C1195 H1185 0.929 . S
C1195 C1193 1.433 . S
C1195 N1198 1.384 . S
C1196 H1187 0.929 . S
C1196 C1188 1.378 . S
C1196 C1191 1.350 . S
C1197 H1184 0.929 1_565 S
C1197 C1189 1.433 . S
C1197 N1199 1.384 . S
N1198 C1194 1.427 . S
N1198 C1195 1.384 . S
N1199 C1191 1.427 . S
N1199 C1197 1.384 . S
H1200 C1206 0.930 . S
H1201 C1210 0.930 . S
H1202 C1215 0.929 . S
H1203 C1213 0.929 . S
H1204 C1208 0.929 . S
H1205 C1214 0.929 . S
C1206 H1200 0.930 . S
C1206 C1207 1.367 . S
C1206 C1214 1.378 . S
C1207 C1206 1.367 . S
C1207 C1215 1.433 . S
C1208 H1204 0.929 . S
C1208 C1210 1.378 . S
C1208 C1212 1.350 . S
C1209 C1212 1.463 . S
C1209 C1214 1.350 . S
C1209 N1217 1.427 . S
C1210 H1201 0.930 . S
C1210 C1208 1.378 . S
C1210 C1211 1.367 . S
C1211 C1210 1.367 . S
C1211 C1213 1.433 . S
C1212 C1208 1.350 . S
C1212 C1209 1.463 . S
C1212 N1216 1.427 . S
C1213 H1203 0.929 . S
C1213 C1211 1.433 . S
C1213 N1216 1.384 . S
C1214 H1205 0.929 . S
C1214 C1206 1.378 . S
C1214 C1209 1.350 . S
C1215 H1202 0.929 . S
C1215 C1207 1.433 . S
C1215 N1217 1.384 . S
N1216 C1212 1.427 . S
N1216 C1213 1.384 . S
N1217 C1209 1.427 . S
N1217 C1215 1.384 . S
H1218 C1224 0.930 . S
H1219 C1228 0.930 . S
H1220 C1233 0.929 . S
H1221 C1231 0.929 . S
H1222 C1226 0.929 . S
H1223 C1232 0.929 . S
C1224 H1218 0.930 . S
C1224 C1225 1.367 . S
C1224 C1232 1.378 . S
C1225 C1224 1.367 . S
C1225 C1233 1.433 . S
C1226 H1222 0.929 . S
C1226 C1228 1.378 . S
C1226 C1230 1.350 . S
C1227 C1230 1.463 . S
C1227 C1232 1.350 . S
C1227 N1235 1.427 . S
C1228 H1219 0.930 . S
C1228 C1226 1.378 . S
C1228 C1229 1.367 . S
C1229 C1228 1.367 . S
C1229 C1231 1.433 . S
C1230 C1226 1.350 . S
C1230 C1227 1.463 . S
C1230 N1234 1.427 . S
C1231 H1221 0.929 . S
C1231 C1229 1.433 . S
C1231 N1234 1.384 . S
C1232 H1223 0.929 . S
C1232 C1224 1.378 . S
C1232 C1227 1.350 . S
C1233 H1220 0.929 . S
C1233 C1225 1.433 . S
C1233 N1235 1.384 . S
N1234 C1230 1.427 . S
N1234 C1231 1.384 . S
N1235 C1227 1.427 . S
N1235 C1233 1.384 . S
H1236 C1242 0.930 . S
H1237 C1246 0.930 . S
H1238 C1251 0.929 . S
H1239 C1249 0.929 . S
H1240 C1244 0.929 . S
H1241 C1250 0.929 . S
C1242 H1236 0.930 . S
C1242 C1243 1.367 . S
C1242 C1250 1.378 . S
C1243 C1242 1.367 . S
C1243 C1251 1.433 . S
C1244 H1240 0.929 . S
C1244 C1246 1.378 . S
C1244 C1248 1.350 . S
C1245 C1248 1.463 . S
C1245 C1250 1.350 . S
C1245 N1253 1.427 . S
C1246 H1237 0.930 . S
C1246 C1244 1.378 . S
C1246 C1247 1.367 . S
C1247 C1246 1.367 . S
C1247 C1249 1.433 . S
C1248 C1244 1.350 . S
C1248 C1245 1.463 . S
C1248 N1252 1.427 . S
C1249 H1239 0.929 . S
C1249 C1247 1.433 . S
C1249 N1252 1.384 . S
C1250 H1241 0.929 . S
C1250 C1242 1.378 . S
C1250 C1245 1.350 . S
C1251 H1238 0.929 . S
C1251 C1243 1.433 . S
C1251 N1253 1.384 . S
N1252 C1248 1.427 . S
N1252 C1249 1.384 . S
N1253 C1245 1.427 . S
N1253 C1251 1.384 . S
H1254 C1260 0.930 . S
H1255 C1264 0.930 . S
H1256 C1269 0.929 . S
H1257 C1267 0.929 . S
H1258 C1262 0.929 . S
H1259 C1268 0.929 . S
C1260 H1254 0.930 . S
C1260 C1261 1.367 . S
C1260 C1268 1.378 . S
C1261 C1260 1.367 . S
C1261 C1269 1.433 . S
C1262 H1258 0.929 . S
C1262 C1264 1.378 . S
C1262 C1266 1.350 . S
C1263 C1266 1.463 . S
C1263 C1268 1.350 . S
C1263 N1271 1.427 . S
C1264 H1255 0.930 . S
C1264 C1262 1.378 . S
C1264 C1265 1.367 . S
C1265 C1264 1.367 . S
C1265 C1267 1.433 . S
C1266 C1262 1.350 . S
C1266 C1263 1.463 . S
C1266 N1270 1.427 . S
C1267 H1257 0.929 . S
C1267 C1265 1.433 . S
C1267 N1270 1.384 . S
C1268 H1259 0.929 . S
C1268 C1260 1.378 . S
C1268 C1263 1.350 . S
C1269 H1256 0.929 . S
C1269 C1261 1.433 . S
C1269 N1271 1.384 . S
N1270 C1266 1.427 . S
N1270 C1267 1.384 . S
N1271 C1263 1.427 . S
N1271 C1269 1.384 . S
H1272 C1278 0.930 . S
H1273 C1282 0.930 . S
H1274 C1287 0.929 . S
H1275 C1285 0.929 . S
H1276 C1280 0.929 . S
H1277 C1286 0.929 . S
C1278 H1272 0.930 . S
C1278 C1279 1.367 . S
C1278 C1286 1.378 . S
C1279 C1278 1.367 . S
C1279 C1287 1.433 . S
C1280 H1276 0.929 . S
C1280 C1282 1.378 . S
C1280 C1284 1.350 . S
C1281 C1284 1.463 . S
C1281 C1286 1.350 . S
C1281 N1289 1.427 . S
C1282 H1273 0.930 . S
C1282 C1280 1.378 . S
C1282 C1283 1.367 . S
C1283 C1282 1.367 . S
C1283 C1285 1.433 . S
C1284 C1280 1.350 . S
C1284 C1281 1.463 . S
C1284 N1288 1.427 . S
C1285 H1275 0.929 . S
C1285 C1283 1.433 . S
C1285 N1288 1.384 . S
C1286 H1277 0.929 . S
C1286 C1278 1.378 . S
C1286 C1281 1.350 . S
C1287 H1274 0.929 . S
C1287 C1279 1.433 . S
C1287 N1289 1.384 . S
N1288 C1284 1.427 . S
N1288 C1285 1.384 . S
N1289 C1281 1.427 . S
N1289 C1287 1.384 . S
H1290 C1296 0.930 . S
H1291 C1300 0.930 . S
H1292 C1305 0.929 . S
H1293 C1303 0.929 . S
H1294 C1298 0.929 . S
H1295 C1304 0.929 . S
C1296 H1290 0.930 . S
C1296 C1297 1.367 . S
C1296 C1304 1.378 . S
C1297 C1296 1.367 . S
C1297 C1305 1.433 . S
C1298 H1294 0.929 . S
C1298 C1300 1.378 . S
C1298 C1302 1.350 . S
C1299 C1302 1.463 . S
C1299 C1304 1.350 . S
C1299 N1307 1.427 . S
C1300 H1291 0.930 . S
C1300 C1298 1.378 . S
C1300 C1301 1.367 . S
C1301 C1300 1.367 . S
C1301 C1303 1.433 . S
C1302 C1298 1.350 . S
C1302 C1299 1.463 . S
C1302 N1306 1.427 . S
C1303 H1293 0.929 . S
C1303 C1301 1.433 . S
C1303 N1306 1.384 . S
C1304 H1295 0.929 . S
C1304 C1296 1.378 . S
C1304 C1299 1.350 . S
C1305 H1292 0.929 . S
C1305 C1297 1.433 . S
C1305 N1307 1.384 . S
N1306 C1302 1.427 . S
N1306 C1303 1.384 . S
N1307 C1299 1.427 . S
N1307 C1305 1.384 . S
H1308 C1314 0.930 . S
H1309 C1318 0.930 . S
H1310 C1323 0.929 . S
H1311 C1321 0.929 . S
H1312 C1316 0.929 . S
H1313 C1322 0.929 . S
C1314 H1308 0.930 . S
C1314 C1315 1.367 . S
C1314 C1322 1.378 . S
C1315 C1314 1.367 . S
C1315 C1323 1.433 . S
C1316 H1312 0.929 . S
C1316 C1318 1.378 . S
C1316 C1320 1.350 . S
C1317 C1320 1.463 . S
C1317 C1322 1.350 . S
C1317 N1325 1.427 . S
C1318 H1309 0.930 . S
C1318 C1316 1.378 . S
C1318 C1319 1.367 . S
C1319 C1318 1.367 . S
C1319 C1321 1.433 . S
C1320 C1316 1.350 . S
C1320 C1317 1.463 . S
C1320 N1324 1.427 . S
C1321 H1311 0.929 . S
C1321 C1319 1.433 . S
C1321 N1324 1.384 . S
C1322 H1313 0.929 . S
C1322 C1314 1.378 . S
C1322 C1317 1.350 . S
C1323 H1310 0.929 . S
C1323 C1315 1.433 . S
C1323 N1325 1.384 . S
N1324 C1320 1.427 . S
N1324 C1321 1.384 . S
N1325 C1317 1.427 . S
N1325 C1323 1.384 . S
H1326 C1332 0.930 . S
H1327 C1336 0.930 . S
H1328 C1341 0.929 . S
H1329 C1339 0.929 . S
H1330 C1334 0.929 . S
H1331 C1340 0.929 . S
C1332 H1326 0.930 . S
C1332 C1333 1.367 . S
C1332 C1340 1.378 . S
C1333 C1332 1.367 . S
C1333 C1341 1.433 . S
C1334 H1330 0.929 . S
C1334 C1336 1.378 . S
C1334 C1338 1.350 . S
C1335 C1338 1.463 . S
C1335 C1340 1.350 . S
C1335 N1343 1.427 . S
C1336 H1327 0.930 . S
C1336 C1334 1.378 . S
C1336 C1337 1.367 . S
C1337 C1336 1.367 . S
C1337 C1339 1.433 . S
C1338 C1334 1.350 . S
C1338 C1335 1.463 . S
C1338 N1342 1.427 . S
C1339 H1329 0.929 . S
C1339 C1337 1.433 . S
C1339 N1342 1.384 . S
C1340 H1331 0.929 . S
C1340 C1332 1.378 . S
C1340 C1335 1.350 . S
C1341 H1328 0.929 . S
C1341 C1333 1.433 . S
C1341 N1343 1.384 . S
N1342 C1338 1.427 . S
N1342 C1339 1.384 . S
N1343 C1335 1.427 . S
N1343 C1341 1.384 . S
H1344 C1350 0.930 . S
H1345 C1354 0.930 . S
H1346 C1359 0.929 . S
H1347 C1357 0.929 . S
H1348 C1352 0.929 . S
H1349 C1358 0.929 . S
C1350 H1344 0.930 . S
C1350 C1351 1.367 . S
C1350 C1358 1.378 . S
C1351 C1350 1.367 . S
C1351 C1359 1.433 . S
C1352 H1348 0.929 . S
C1352 C1354 1.378 . S
C1352 C1356 1.350 . S
C1353 C1356 1.463 1_556 S
C1353 C1358 1.350 . S
C1353 N1361 1.427 . S
C1354 H1345 0.930 . S
C1354 C1352 1.378 . S
C1354 C1355 1.367 . S
C1355 C1354 1.367 . S
C1355 C1357 1.433 . S
C1356 C1352 1.350 . S
C1356 C1353 1.463 1_554 S
C1356 N1360 1.427 . S
C1357 H1347 0.929 . S
C1357 C1355 1.433 . S
C1357 N1360 1.384 . S
C1358 H1349 0.929 . S
C1358 C1350 1.378 . S
C1358 C1353 1.350 . S
C1359 H1346 0.929 . S
C1359 C1351 1.433 . S
C1359 N1361 1.384 . S
N1360 C1356 1.427 . S
N1360 C1357 1.384 . S
N1361 C1353 1.427 . S
N1361 C1359 1.384 . S
H1362 C1368 0.930 . S
H1363 C1372 0.930 . S
H1364 C1377 0.929 . S
H1365 C1375 0.929 . S
H1366 C1370 0.929 . S
H1367 C1376 0.929 . S
C1368 H1362 0.930 . S
C1368 C1369 1.367 . S
C1368 C1376 1.378 . S
C1369 C1368 1.367 . S
C1369 C1377 1.433 1_565 S
C1370 H1366 0.929 . S
C1370 C1372 1.378 . S
C1370 C1374 1.350 . S
C1371 C1374 1.463 1_565 S
C1371 C1376 1.350 . S
C1371 N1379 1.427 1_565 S
C1372 H1363 0.930 . S
C1372 C1370 1.378 . S
C1372 C1373 1.367 . S
C1373 C1372 1.367 . S
C1373 C1375 1.433 1_545 S
C1374 C1370 1.350 . S
C1374 C1371 1.463 1_545 S
C1374 N1378 1.427 1_545 S
C1375 H1365 0.929 . S
C1375 C1373 1.433 1_565 S
C1375 N1378 1.384 . S
C1376 H1367 0.929 . S
C1376 C1368 1.378 . S
C1376 C1371 1.350 . S
C1377 H1364 0.929 . S
C1377 C1369 1.433 1_545 S
C1377 N1379 1.384 . S
N1378 C1374 1.427 1_565 S
N1378 C1375 1.384 . S
N1379 C1371 1.427 1_545 S
N1379 C1377 1.384 . S
H1380 C1386 0.930 . S
H1381 C1390 0.930 . S
H1382 C1395 0.929 . S
H1383 C1393 0.929 . S
H1384 C1388 0.929 . S
H1385 C1394 0.929 . S
C1386 H1380 0.930 . S
C1386 C1387 1.367 . S
C1386 C1394 1.378 . S
C1387 C1386 1.367 . S
C1387 C1395 1.433 . S
C1388 H1384 0.929 . S
C1388 C1390 1.378 . S
C1388 C1392 1.350 . S
C1389 C1392 1.463 . S
C1389 C1394 1.350 . S
C1389 N1397 1.427 . S
C1390 H1381 0.930 . S
C1390 C1388 1.378 . S
C1390 C1391 1.367 . S
C1391 C1390 1.367 . S
C1391 C1393 1.433 . S
C1392 C1388 1.350 . S
C1392 C1389 1.463 . S
C1392 N1396 1.427 . S
C1393 H1383 0.929 . S
C1393 C1391 1.433 . S
C1393 N1396 1.384 . S
C1394 H1385 0.929 . S
C1394 C1386 1.378 . S
C1394 C1389 1.350 . S
C1395 H1382 0.929 . S
C1395 C1387 1.433 . S
C1395 N1397 1.384 . S
N1396 C1392 1.427 . S
N1396 C1393 1.384 . S
N1397 C1389 1.427 . S
N1397 C1395 1.384 . S
H1398 C1404 0.930 . S
H1399 C1408 0.930 . S
H1400 C1413 0.929 . S
H1401 C1411 0.929 . S
H1402 C1406 0.929 . S
H1403 C1412 0.929 . S
C1404 H1398 0.930 . S
C1404 C1405 1.367 1_565 S
C1404 C1412 1.378 . S
C1405 C1404 1.367 1_545 S
C1405 C1413 1.433 . S
C1406 H1402 0.929 . S
C1406 C1408 1.378 . S
C1406 C1410 1.350 1_545 S
C1407 C1410 1.463 1_545 S
C1407 C1412 1.350 1_545 S
C1407 N1415 1.427 . S
C1408 H1399 0.930 . S
C1408 C1406 1.378 . S
C1408 C1409 1.367 1_545 S
C1409 C1408 1.367 1_565 S
C1409 C1411 1.433 . S
C1410 C1406 1.350 1_565 S
C1410 C1407 1.463 1_565 S
C1410 N1414 1.427 . S
C1411 H1401 0.929 . S
C1411 C1409 1.433 . S
C1411 N1414 1.384 . S
C1412 H1403 0.929 . S
C1412 C1404 1.378 . S
C1412 C1407 1.350 1_565 S
C1413 H1400 0.929 . S
C1413 C1405 1.433 . S
C1413 N1415 1.384 . S
N1414 C1410 1.427 . S
N1414 C1411 1.384 . S
N1415 C1407 1.427 . S
N1415 C1413 1.384 . S
H1416 C1422 0.930 . S
H1417 C1426 0.930 . S
H1418 C1431 0.929 . S
H1419 C1429 0.929 . S
H1420 C1424 0.929 . S
H1421 C1430 0.929 . S
C1422 H1416 0.930 . S
C1422 C1423 1.367 . S
C1422 C1430 1.378 . S
C1423 C1422 1.367 . S
C1423 C1431 1.433 . S
C1424 H1420 0.929 . S
C1424 C1426 1.378 . S
C1424 C1428 1.350 . S
C1425 C1428 1.463 1_556 S
C1425 C1430 1.350 . S
C1425 N1433 1.427 . S
C1426 H1417 0.930 . S
C1426 C1424 1.378 . S
C1426 C1427 1.367 . S
C1427 C1426 1.367 . S
C1427 C1429 1.433 . S
C1428 C1424 1.350 . S
C1428 C1425 1.463 1_554 S
C1428 N1432 1.427 . S
C1429 H1419 0.929 . S
C1429 C1427 1.433 . S
C1429 N1432 1.384 . S
C1430 H1421 0.929 . S
C1430 C1422 1.378 . S
C1430 C1425 1.350 . S
C1431 H1418 0.929 . S
C1431 C1423 1.433 . S
C1431 N1433 1.384 . S
N1432 C1428 1.427 . S
N1432 C1429 1.384 . S
N1433 C1425 1.427 . S
N1433 C1431 1.384 . S
H1434 C1440 0.930 . S
H1435 C1444 0.930 . S
H1436 C1449 0.929 . S
H1437 C1447 0.929 . S
H1438 C1442 0.929 . S
H1439 C1448 0.929 . S
C1440 H1434 0.930 . S
C1440 C1441 1.367 1_545 S
C1440 C1448 1.378 . S
C1441 C1440 1.367 1_565 S
C1441 C1449 1.433 . S
C1442 H1438 0.929 . S
C1442 C1444 1.378 . S
C1442 C1446 1.350 1_565 S
C1443 C1446 1.463 1_565 S
C1443 C1448 1.350 1_565 S
C1443 N1451 1.427 . S
C1444 H1435 0.930 . S
C1444 C1442 1.378 . S
C1444 C1445 1.367 1_565 S
C1445 C1444 1.367 1_545 S
C1445 C1447 1.433 . S
C1446 C1442 1.350 1_545 S
C1446 C1443 1.463 1_545 S
C1446 N1450 1.427 . S
C1447 H1437 0.929 . S
C1447 C1445 1.433 . S
C1447 N1450 1.384 . S
C1448 H1439 0.929 . S
C1448 C1440 1.378 . S
C1448 C1443 1.350 1_545 S
C1449 H1436 0.929 . S
C1449 C1441 1.433 . S
C1449 N1451 1.384 . S
N1450 C1446 1.427 . S
N1450 C1447 1.384 . S
N1451 C1443 1.427 . S
N1451 C1449 1.384 . S
H1452 C1458 0.930 . S
H1453 C1462 0.930 . S
H1454 C1467 0.929 . S
H1455 C1465 0.929 . S
H1456 C1460 0.929 . S
H1457 C1466 0.929 . S
C1458 H1452 0.930 . S
C1458 C1459 1.367 . S
C1458 C1466 1.378 . S
C1459 C1458 1.367 . S
C1459 C1467 1.433 . S
C1460 H1456 0.929 . S
C1460 C1462 1.378 . S
C1460 C1464 1.350 . S
C1461 C1464 1.463 . S
C1461 C1466 1.350 . S
C1461 N1469 1.427 . S
C1462 H1453 0.930 . S
C1462 C1460 1.378 . S
C1462 C1463 1.367 . S
C1463 C1462 1.367 . S
C1463 C1465 1.433 . S
C1464 C1460 1.350 . S
C1464 C1461 1.463 . S
C1464 N1468 1.427 . S
C1465 H1455 0.929 . S
C1465 C1463 1.433 . S
C1465 N1468 1.384 . S
C1466 H1457 0.929 . S
C1466 C1458 1.378 . S
C1466 C1461 1.350 . S
C1467 H1454 0.929 . S
C1467 C1459 1.433 . S
C1467 N1469 1.384 . S
N1468 C1464 1.427 . S
N1468 C1465 1.384 . S
N1469 C1461 1.427 . S
N1469 C1467 1.384 . S
H1470 C1476 0.930 . S
H1471 C1480 0.930 . S
H1472 C1485 0.929 . S
H1473 C1483 0.929 . S
H1474 C1478 0.929 . S
H1475 C1484 0.929 . S
C1476 H1470 0.930 . S
C1476 C1477 1.367 . S
C1476 C1484 1.378 . S
C1477 C1476 1.367 . S
C1477 C1485 1.433 1_545 S
C1478 H1474 0.929 . S
C1478 C1480 1.378 . S
C1478 C1482 1.350 . S
C1479 C1482 1.463 1_545 S
C1479 C1484 1.350 . S
C1479 N1487 1.427 1_545 S
C1480 H1471 0.930 . S
C1480 C1478 1.378 . S
C1480 C1481 1.367 . S
C1481 C1480 1.367 . S
C1481 C1483 1.433 1_565 S
C1482 C1478 1.350 . S
C1482 C1479 1.463 1_565 S
C1482 N1486 1.427 1_565 S
C1483 H1473 0.929 . S
C1483 C1481 1.433 1_545 S
C1483 N1486 1.384 . S
C1484 H1475 0.929 . S
C1484 C1476 1.378 . S
C1484 C1479 1.350 . S
C1485 H1472 0.929 . S
C1485 C1477 1.433 1_565 S
C1485 N1487 1.384 . S
N1486 C1482 1.427 1_545 S
N1486 C1483 1.384 . S
N1487 C1479 1.427 1_565 S
N1487 C1485 1.384 . S
H1488 C1494 0.930 . S
H1489 C1498 0.930 . S
H1490 C1503 0.929 . S
H1491 C1501 0.929 . S
H1492 C1496 0.929 . S
H1493 C1502 0.929 . S
C1494 H1488 0.930 . S
C1494 C1495 1.367 . S
C1494 C1502 1.378 . S
C1495 C1494 1.367 . S
C1495 C1503 1.433 . S
C1496 H1492 0.929 . S
C1496 C1498 1.378 . S
C1496 C1500 1.350 . S
C1497 C1500 1.463 . S
C1497 C1502 1.350 . S
C1497 N1505 1.427 . S
C1498 H1489 0.930 . S
C1498 C1496 1.378 . S
C1498 C1499 1.367 . S
C1499 C1498 1.367 . S
C1499 C1501 1.433 . S
C1500 C1496 1.350 . S
C1500 C1497 1.463 . S
C1500 N1504 1.427 . S
C1501 H1491 0.929 . S
C1501 C1499 1.433 . S
C1501 N1504 1.384 . S
C1502 H1493 0.929 . S
C1502 C1494 1.378 . S
C1502 C1497 1.350 . S
C1503 H1490 0.929 . S
C1503 C1495 1.433 . S
C1503 N1505 1.384 . S
N1504 C1500 1.427 . S
N1504 C1501 1.384 . S
N1505 C1497 1.427 . S
N1505 C1503 1.384 . S
H1506 C1512 0.930 . S
H1507 C1516 0.930 . S
H1508 C1521 0.929 . S
H1509 C1519 0.929 . S
H1510 C1514 0.929 . S
H1511 C1520 0.929 . S
C1512 H1506 0.930 . S
C1512 C1513 1.367 . S
C1512 C1520 1.378 . S
C1513 C1512 1.367 . S
C1513 C1521 1.433 . S
C1514 H1510 0.929 . S
C1514 C1516 1.378 . S
C1514 C1518 1.350 . S
C1515 C1518 1.463 . S
C1515 C1520 1.350 . S
C1515 N1523 1.427 . S
C1516 H1507 0.930 . S
C1516 C1514 1.378 . S
C1516 C1517 1.367 . S
C1517 C1516 1.367 . S
C1517 C1519 1.433 . S
C1518 C1514 1.350 . S
C1518 C1515 1.463 . S
C1518 N1522 1.427 . S
C1519 H1509 0.929 . S
C1519 C1517 1.433 . S
C1519 N1522 1.384 . S
C1520 H1511 0.929 . S
C1520 C1512 1.378 . S
C1520 C1515 1.350 . S
C1521 H1508 0.929 . S
C1521 C1513 1.433 . S
C1521 N1523 1.384 . S
N1522 C1518 1.427 . S
N1522 C1519 1.384 . S
N1523 C1515 1.427 . S
N1523 C1521 1.384 . S
H1524 C1530 0.930 . S
H1525 C1534 0.930 . S
H1526 C1539 0.929 . S
H1527 C1537 0.929 . S
H1528 C1532 0.929 . S
H1529 C1538 0.929 . S
C1530 H1524 0.930 . S
C1530 C1531 1.367 . S
C1530 C1538 1.378 . S
C1531 C1530 1.367 . S
C1531 C1539 1.433 . S
C1532 H1528 0.929 . S
C1532 C1534 1.378 . S
C1532 C1536 1.350 . S
C1533 C1536 1.463 1_556 S
C1533 C1538 1.350 . S
C1533 N1541 1.427 . S
C1534 H1525 0.930 . S
C1534 C1532 1.378 . S
C1534 C1535 1.367 . S
C1535 C1534 1.367 . S
C1535 C1537 1.433 . S
C1536 C1532 1.350 . S
C1536 C1533 1.463 1_554 S
C1536 N1540 1.427 . S
C1537 H1527 0.929 . S
C1537 C1535 1.433 . S
C1537 N1540 1.384 . S
C1538 H1529 0.929 . S
C1538 C1530 1.378 . S
C1538 C1533 1.350 . S
C1539 H1526 0.929 . S
C1539 C1531 1.433 . S
C1539 N1541 1.384 . S
N1540 C1536 1.427 . S
N1540 C1537 1.384 . S
N1541 C1533 1.427 . S
N1541 C1539 1.384 . S
H1542 C1548 0.930 . S
H1543 C1552 0.930 . S
H1544 C1557 0.929 . S
H1545 C1555 0.929 . S
H1546 C1550 0.929 . S
H1547 C1556 0.929 . S
C1548 H1542 0.930 . S
C1548 C1549 1.367 . S
C1548 C1556 1.378 . S
C1549 C1548 1.367 . S
C1549 C1557 1.433 . S
C1550 H1546 0.929 . S
C1550 C1552 1.378 . S
C1550 C1554 1.350 . S
C1551 C1554 1.463 . S
C1551 C1556 1.350 . S
C1551 N1559 1.427 . S
C1552 H1543 0.930 . S
C1552 C1550 1.378 . S
C1552 C1553 1.367 . S
C1553 C1552 1.367 . S
C1553 C1555 1.433 . S
C1554 C1550 1.350 . S
C1554 C1551 1.463 . S
C1554 N1558 1.427 . S
C1555 H1545 0.929 . S
C1555 C1553 1.433 . S
C1555 N1558 1.384 . S
C1556 H1547 0.929 . S
C1556 C1548 1.378 . S
C1556 C1551 1.350 . S
C1557 H1544 0.929 . S
C1557 C1549 1.433 . S
C1557 N1559 1.384 . S
N1558 C1554 1.427 . S
N1558 C1555 1.384 . S
N1559 C1551 1.427 . S
N1559 C1557 1.384 . S
H1560 C1566 0.930 . S
H1561 C1570 0.930 . S
H1562 C1575 0.929 . S
H1563 C1573 0.929 . S
H1564 C1568 0.929 . S
H1565 C1574 0.929 . S
C1566 H1560 0.930 . S
C1566 C1567 1.367 . S
C1566 C1574 1.378 . S
C1567 C1566 1.367 . S
C1567 C1575 1.433 . S
C1568 H1564 0.929 . S
C1568 C1570 1.378 . S
C1568 C1572 1.350 . S
C1569 C1572 1.463 . S
C1569 C1574 1.350 . S
C1569 N1577 1.427 . S
C1570 H1561 0.930 . S
C1570 C1568 1.378 . S
C1570 C1571 1.367 . S
C1571 C1570 1.367 . S
C1571 C1573 1.433 . S
C1572 C1568 1.350 . S
C1572 C1569 1.463 . S
C1572 N1576 1.427 . S
C1573 H1563 0.929 . S
C1573 C1571 1.433 . S
C1573 N1576 1.384 . S
C1574 H1565 0.929 . S
C1574 C1566 1.378 . S
C1574 C1569 1.350 . S
C1575 H1562 0.929 . S
C1575 C1567 1.433 . S
C1575 N1577 1.384 . S
N1576 C1572 1.427 . S
N1576 C1573 1.384 . S
N1577 C1569 1.427 . S
N1577 C1575 1.384 . S
H1578 C1584 0.930 . S
H1579 C1588 0.930 . S
H1580 C1593 0.929 . S
H1581 C1591 0.929 . S
H1582 C1586 0.929 . S
H1583 C1592 0.929 . S
C1584 H1578 0.930 . S
C1584 C1585 1.367 . S
C1584 C1592 1.378 . S
C1585 C1584 1.367 . S
C1585 C1593 1.433 . S
C1586 H1582 0.929 . S
C1586 C1588 1.378 . S
C1586 C1590 1.350 . S
C1587 C1590 1.463 . S
C1587 C1592 1.350 . S
C1587 N1595 1.427 . S
C1588 H1579 0.930 . S
C1588 C1586 1.378 . S
C1588 C1589 1.367 . S
C1589 C1588 1.367 . S
C1589 C1591 1.433 . S
C1590 C1586 1.350 . S
C1590 C1587 1.463 . S
C1590 N1594 1.427 . S
C1591 H1581 0.929 . S
C1591 C1589 1.433 . S
C1591 N1594 1.384 . S
C1592 H1583 0.929 . S
C1592 C1584 1.378 . S
C1592 C1587 1.350 . S
C1593 H1580 0.929 . S
C1593 C1585 1.433 . S
C1593 N1595 1.384 . S
N1594 C1590 1.427 . S
N1594 C1591 1.384 . S
N1595 C1587 1.427 . S
N1595 C1593 1.384 . S
H1596 C1602 0.930 . S
H1597 C1606 0.930 . S
H1598 C1611 0.929 . S
H1599 C1609 0.929 . S
H1600 C1604 0.929 . S
H1601 C1610 0.929 . S
C1602 H1596 0.930 . S
C1602 C1603 1.367 . S
C1602 C1610 1.378 . S
C1603 C1602 1.367 . S
C1603 C1611 1.433 . S
C1604 H1600 0.929 . S
C1604 C1606 1.378 . S
C1604 C1608 1.350 . S
C1605 C1608 1.463 1_554 S
C1605 C1610 1.350 . S
C1605 N1613 1.427 . S
C1606 H1597 0.930 . S
C1606 C1604 1.378 . S
C1606 C1607 1.367 . S
C1607 C1606 1.367 . S
C1607 C1609 1.433 . S
C1608 C1604 1.350 . S
C1608 C1605 1.463 1_556 S
C1608 N1612 1.427 . S
C1609 H1599 0.929 . S
C1609 C1607 1.433 . S
C1609 N1612 1.384 . S
C1610 H1601 0.929 . S
C1610 C1602 1.378 . S
C1610 C1605 1.350 . S
C1611 H1598 0.929 . S
C1611 C1603 1.433 . S
C1611 N1613 1.384 . S
N1612 C1608 1.427 . S
N1612 C1609 1.384 . S
N1613 C1605 1.427 . S
N1613 C1611 1.384 . S
H1614 C1620 0.930 . S
H1615 C1624 0.930 . S
H1616 C1629 0.929 . S
H1617 C1627 0.929 . S
H1618 C1622 0.929 . S
H1619 C1628 0.929 . S
C1620 H1614 0.930 . S
C1620 C1621 1.367 . S
C1620 C1628 1.378 . S
C1621 C1620 1.367 . S
C1621 C1629 1.433 . S
C1622 H1618 0.929 . S
C1622 C1624 1.378 . S
C1622 C1626 1.350 . S
C1623 C1626 1.463 . S
C1623 C1628 1.350 . S
C1623 N1631 1.427 . S
C1624 H1615 0.930 . S
C1624 C1622 1.378 . S
C1624 C1625 1.367 . S
C1625 C1624 1.367 . S
C1625 C1627 1.433 . S
C1626 C1622 1.350 . S
C1626 C1623 1.463 . S
C1626 N1630 1.427 . S
C1627 H1617 0.929 . S
C1627 C1625 1.433 . S
C1627 N1630 1.384 . S
C1628 H1619 0.929 . S
C1628 C1620 1.378 . S
C1628 C1623 1.350 . S
C1629 H1616 0.929 . S
C1629 C1621 1.433 . S
C1629 N1631 1.384 . S
N1630 C1626 1.427 . S
N1630 C1627 1.384 . S
N1631 C1623 1.427 . S
N1631 C1629 1.384 . S
H1632 C1638 0.930 . S
H1633 C1642 0.930 . S
H1634 C1647 0.929 . S
H1635 C1645 0.929 . S
H1636 C1640 0.929 . S
H1637 C1646 0.929 . S
C1638 H1632 0.930 . S
C1638 C1639 1.367 . S
C1638 C1646 1.378 . S
C1639 C1638 1.367 . S
C1639 C1647 1.433 . S
C1640 H1636 0.929 . S
C1640 C1642 1.378 1_565 S
C1640 C1644 1.350 . S
C1641 C1644 1.463 . S
C1641 C1646 1.350 . S
C1641 N1649 1.427 . S
C1642 H1633 0.930 . S
C1642 C1640 1.378 1_545 S
C1642 C1643 1.367 . S
C1643 C1642 1.367 . S
C1643 C1645 1.433 . S
C1644 C1640 1.350 . S
C1644 C1641 1.463 . S
C1644 N1648 1.427 . S
C1645 H1635 0.929 . S
C1645 C1643 1.433 . S
C1645 N1648 1.384 1_545 S
C1646 H1637 0.929 . S
C1646 C1638 1.378 . S
C1646 C1641 1.350 . S
C1647 H1634 0.929 . S
C1647 C1639 1.433 . S
C1647 N1649 1.384 . S
N1648 C1644 1.427 . S
N1648 C1645 1.384 1_565 S
N1649 C1641 1.427 . S
N1649 C1647 1.384 . S
H1650 C1656 0.930 . S
H1651 C1660 0.930 1_565 S
H1652 C1665 0.929 . S
H1653 C1663 0.929 . S
H1654 C1658 0.929 . S
H1655 C1664 0.929 . S
C1656 H1650 0.930 . S
C1656 C1657 1.367 1_545 S
C1656 C1664 1.378 . S
C1657 C1656 1.367 1_565 S
C1657 C1665 1.433 . S
C1658 H1654 0.929 . S
C1658 C1660 1.378 1_565 S
C1658 C1662 1.350 1_565 S
C1659 C1662 1.463 . S
C1659 C1664 1.350 . S
C1659 N1667 1.427 1_545 S
C1660 H1651 0.930 1_545 S
C1660 C1658 1.378 1_545 S
C1660 C1661 1.367 . S
C1661 C1660 1.367 . S
C1661 C1663 1.433 . S
C1662 C1658 1.350 1_545 S
C1662 C1659 1.463 . S
C1662 N1666 1.427 . S
C1663 H1653 0.929 . S
C1663 C1661 1.433 . S
C1663 N1666 1.384 . S
C1664 H1655 0.929 . S
C1664 C1656 1.378 . S
C1664 C1659 1.350 . S
C1665 H1652 0.929 . S
C1665 C1657 1.433 . S
C1665 N1667 1.384 . S
N1666 C1662 1.427 . S
N1666 C1663 1.384 . S
N1667 C1659 1.427 1_565 S
N1667 C1665 1.384 . S
H1668 C1674 0.930 . S
H1669 C1678 0.930 1_565 S
H1670 C1683 0.929 . S
H1671 C1681 0.929 . S
H1672 C1676 0.929 . S
H1673 C1682 0.929 . S
C1674 H1668 0.930 . S
C1674 C1675 1.367 . S
C1674 C1682 1.378 . S
C1675 C1674 1.367 . S
C1675 C1683 1.433 . S
C1676 H1672 0.929 . S
C1676 C1678 1.378 . S
C1676 C1680 1.350 . S
C1677 C1680 1.463 . S
C1677 C1682 1.350 . S
C1677 N1685 1.427 . S
C1678 H1669 0.930 1_545 S
C1678 C1676 1.378 . S
C1678 C1679 1.367 1_545 S
C1679 C1678 1.367 1_565 S
C1679 C1681 1.433 . S
C1680 C1676 1.350 . S
C1680 C1677 1.463 . S
C1680 N1684 1.427 . S
C1681 H1671 0.929 . S
C1681 C1679 1.433 . S
C1681 N1684 1.384 1_565 S
C1682 H1673 0.929 . S
C1682 C1674 1.378 . S
C1682 C1677 1.350 . S
C1683 H1670 0.929 . S
C1683 C1675 1.433 . S
C1683 N1685 1.384 . S
N1684 C1680 1.427 . S
N1684 C1681 1.384 1_545 S
N1685 C1677 1.427 . S
N1685 C1683 1.384 . S
H1686 C1692 0.930 1_545 S
H1687 C1696 0.930 . S
H1688 C1701 0.929 . S
H1689 C1699 0.929 . S
H1690 C1694 0.929 . S
H1691 C1700 0.929 . S
C1692 H1686 0.930 1_565 S
C1692 C1693 1.367 . S
C1692 C1700 1.378 1_565 S
C1693 C1692 1.367 . S
C1693 C1701 1.433 . S
C1694 H1690 0.929 . S
C1694 C1696 1.378 . S
C1694 C1698 1.350 . S
C1695 C1698 1.463 . S
C1695 C1700 1.350 1_565 S
C1695 N1703 1.427 . S
C1696 H1687 0.930 . S
C1696 C1694 1.378 . S
C1696 C1697 1.367 1_565 S
C1697 C1696 1.367 1_545 S
C1697 C1699 1.433 . S
C1698 C1694 1.350 . S
C1698 C1695 1.463 . S
C1698 N1702 1.427 1_565 S
C1699 H1689 0.929 . S
C1699 C1697 1.433 . S
C1699 N1702 1.384 . S
C1700 H1691 0.929 . S
C1700 C1692 1.378 1_545 S
C1700 C1695 1.350 1_545 S
C1701 H1688 0.929 . S
C1701 C1693 1.433 . S
C1701 N1703 1.384 . S
N1702 C1698 1.427 1_545 S
N1702 C1699 1.384 . S
N1703 C1695 1.427 . S
N1703 C1701 1.384 . S
H1704 C1710 0.930 . S
H1705 C1714 0.930 . S
H1706 C1719 0.929 . S
H1707 C1717 0.929 . S
H1708 C1712 0.929 . S
H1709 C1718 0.929 . S
C1710 H1704 0.930 . S
C1710 C1711 1.367 . S
C1710 C1718 1.378 . S
C1711 C1710 1.367 . S
C1711 C1719 1.433 . S
C1712 H1708 0.929 . S
C1712 C1714 1.378 1_545 S
C1712 C1716 1.350 . S
C1713 C1716 1.463 . S
C1713 C1718 1.350 . S
C1713 N1721 1.427 . S
C1714 H1705 0.930 . S
C1714 C1712 1.378 1_565 S
C1714 C1715 1.367 . S
C1715 C1714 1.367 . S
C1715 C1717 1.433 . S
C1716 C1712 1.350 . S
C1716 C1713 1.463 . S
C1716 N1720 1.427 . S
C1717 H1707 0.929 . S
C1717 C1715 1.433 . S
C1717 N1720 1.384 1_565 S
C1718 H1709 0.929 . S
C1718 C1710 1.378 . S
C1718 C1713 1.350 . S
C1719 H1706 0.929 . S
C1719 C1711 1.433 . S
C1719 N1721 1.384 . S
N1720 C1716 1.427 . S
N1720 C1717 1.384 1_545 S
N1721 C1713 1.427 . S
N1721 C1719 1.384 . S
H1722 C1728 0.930 . S
H1723 C1732 0.930 . S
H1724 C1737 0.929 . S
H1725 C1735 0.929 . S
H1726 C1730 0.929 . S
H1727 C1736 0.929 . S
C1728 H1722 0.930 . S
C1728 C1729 1.367 . S
C1728 C1736 1.378 . S
C1729 C1728 1.367 . S
C1729 C1737 1.433 1_565 S
C1730 H1726 0.929 . S
C1730 C1732 1.378 . S
C1730 C1734 1.350 . S
C1731 C1734 1.463 . S
C1731 C1736 1.350 1_545 S
C1731 N1739 1.427 . S
C1732 H1723 0.930 . S
C1732 C1730 1.378 . S
C1732 C1733 1.367 . S
C1733 C1732 1.367 . S
C1733 C1735 1.433 . S
C1734 C1730 1.350 . S
C1734 C1731 1.463 . S
C1734 N1738 1.427 . S
C1735 H1725 0.929 . S
C1735 C1733 1.433 . S
C1735 N1738 1.384 . S
C1736 H1727 0.929 . S
C1736 C1728 1.378 . S
C1736 C1731 1.350 1_565 S
C1737 H1724 0.929 . S
C1737 C1729 1.433 1_545 S
C1737 N1739 1.384 . S
N1738 C1734 1.427 . S
N1738 C1735 1.384 . S
N1739 C1731 1.427 . S
N1739 C1737 1.384 . S
H1740 C1746 0.930 . S
H1741 C1750 0.930 . S
H1742 C1755 0.929 . S
H1743 C1753 0.929 . S
H1744 C1748 0.929 . S
H1745 C1754 0.929 . S
C1746 H1740 0.930 . S
C1746 C1747 1.367 . S
C1746 C1754 1.378 . S
C1747 C1746 1.367 . S
C1747 C1755 1.433 . S
C1748 H1744 0.929 . S
C1748 C1750 1.378 1_565 S
C1748 C1752 1.350 . S
C1749 C1752 1.463 . S
C1749 C1754 1.350 . S
C1749 N1757 1.427 . S
C1750 H1741 0.930 . S
C1750 C1748 1.378 1_545 S
C1750 C1751 1.367 . S
C1751 C1750 1.367 . S
C1751 C1753 1.433 1_545 S
C1752 C1748 1.350 . S
C1752 C1749 1.463 . S
C1752 N1756 1.427 . S
C1753 H1743 0.929 . S
C1753 C1751 1.433 1_565 S
C1753 N1756 1.384 . S
C1754 H1745 0.929 . S
C1754 C1746 1.378 . S
C1754 C1749 1.350 . S
C1755 H1742 0.929 . S
C1755 C1747 1.433 . S
C1755 N1757 1.384 . S
N1756 C1752 1.427 . S
N1756 C1753 1.384 . S
N1757 C1749 1.427 . S
N1757 C1755 1.384 . S
H1758 C1764 0.930 1_545 S
H1759 C1768 0.930 . S
H1760 C1773 0.929 . S
H1761 C1771 0.929 . S
H1762 C1766 0.929 . S
H1763 C1772 0.929 . S
C1764 H1758 0.930 1_565 S
C1764 C1765 1.367 . S
C1764 C1772 1.378 1_565 S
C1765 C1764 1.367 . S
C1765 C1773 1.433 . S
C1766 H1762 0.929 . S
C1766 C1768 1.378 . S
C1766 C1770 1.350 . S
C1767 C1770 1.463 . S
C1767 C1772 1.350 1_565 S
C1767 N1775 1.427 . S
C1768 H1759 0.930 . S
C1768 C1766 1.378 . S
C1768 C1769 1.367 1_565 S
C1769 C1768 1.367 1_545 S
C1769 C1771 1.433 . S
C1770 C1766 1.350 . S
C1770 C1767 1.463 . S
C1770 N1774 1.427 1_565 S
C1771 H1761 0.929 . S
C1771 C1769 1.433 . S
C1771 N1774 1.384 . S
C1772 H1763 0.929 . S
C1772 C1764 1.378 1_545 S
C1772 C1767 1.350 1_545 S
C1773 H1760 0.929 . S
C1773 C1765 1.433 . S
C1773 N1775 1.384 . S
N1774 C1770 1.427 1_545 S
N1774 C1771 1.384 . S
N1775 C1767 1.427 . S
N1775 C1773 1.384 . S
H1776 C1782 0.930 . S
H1777 C1786 0.930 . S
H1778 C1791 0.927 1_565 S
H1779 C1789 0.929 . S
H1780 C1784 0.929 . S
H1781 C1790 0.929 . S
C1782 H1776 0.930 . S
C1782 C1783 1.367 . S
C1782 C1790 1.378 1_565 S
C1783 C1782 1.367 . S
C1783 C1791 1.430 1_565 S
C1784 H1780 0.929 . S
C1784 C1786 1.378 . S
C1784 C1788 1.350 . S
C1785 C1788 1.463 . S
C1785 C1790 1.350 . S
C1785 N1793 1.427 . S
C1786 H1777 0.930 . S
C1786 C1784 1.378 . S
C1786 C1787 1.367 . S
C1787 C1786 1.367 . S
C1787 C1789 1.433 . S
C1788 C1784 1.350 . S
C1788 C1785 1.463 . S
C1788 N1792 1.427 . S
C1789 H1779 0.929 . S
C1789 C1787 1.433 . S
C1789 N1792 1.384 . S
C1790 H1781 0.929 . S
C1790 C1782 1.378 1_545 S
C1790 C1785 1.350 . S
C1791 H1778 0.927 1_545 S
C1791 C1783 1.430 1_545 S
C1791 N1793 1.390 . S
N1792 C1788 1.427 . S
N1792 C1789 1.384 . S
N1793 C1785 1.427 . S
N1793 C1791 1.390 . S
H1794 C1800 0.930 . S
H1795 C1804 0.930 . S
H1796 C1809 0.929 1_545 S
H1797 C1807 0.929 . S
H1798 C1802 0.929 . S
H1799 C1808 0.929 . S
C1800 H1794 0.930 . S
C1800 C1801 1.367 . S
C1800 C1808 1.378 . S
C1801 C1800 1.367 . S
C1801 C1809 1.433 . S
C1802 H1798 0.929 . S
C1802 C1804 1.378 . S
C1802 C1806 1.350 1_545 S
C1803 C1806 1.463 . S
C1803 C1808 1.350 . S
C1803 N1811 1.427 1_565 S
C1804 H1795 0.930 . S
C1804 C1802 1.378 . S
C1804 C1805 1.367 . S
C1805 C1804 1.367 . S
C1805 C1807 1.433 1_545 S
C1806 C1802 1.350 1_565 S
C1806 C1803 1.463 . S
C1806 N1810 1.427 . S
C1807 H1797 0.929 . S
C1807 C1805 1.433 1_565 S
C1807 N1810 1.384 . S
C1808 H1799 0.929 . S
C1808 C1800 1.378 . S
C1808 C1803 1.350 . S
C1809 H1796 0.929 1_565 S
C1809 C1801 1.433 . S
C1809 N1811 1.384 1_565 S
N1810 C1806 1.427 . S
N1810 C1807 1.384 . S
N1811 C1803 1.427 1_545 S
N1811 C1809 1.384 1_545 S
H1812 C1818 0.923 1_545 S
H1813 C1822 0.930 . S
H1814 C1827 0.929 . S
H1815 C1825 0.929 . S
H1816 C1820 0.929 . S
H1817 C1826 0.929 . S
C1818 H1812 0.923 1_565 S
C1818 C1819 1.356 1_565 S
C1818 C1826 1.396 . S
C1819 C1818 1.356 1_545 S
C1819 C1827 1.433 . S
C1820 H1816 0.929 . S
C1820 C1822 1.378 . S
C1820 C1824 1.350 . S
C1821 C1824 1.463 . S
C1821 C1826 1.350 . S
C1821 N1829 1.427 . S
C1822 H1813 0.930 . S
C1822 C1820 1.378 . S
C1822 C1823 1.367 . S
C1823 C1822 1.367 . S
C1823 C1825 1.433 . S
C1824 C1820 1.350 . S
C1824 C1821 1.463 . S
C1824 N1828 1.427 . S
C1825 H1815 0.929 . S
C1825 C1823 1.433 . S
C1825 N1828 1.384 . S
C1826 H1817 0.929 . S
C1826 C1818 1.396 . S
C1826 C1821 1.350 . S
C1827 H1814 0.929 . S
C1827 C1819 1.433 . S
C1827 N1829 1.384 1_545 S
N1828 C1824 1.427 . S
N1828 C1825 1.384 . S
N1829 C1821 1.427 . S
N1829 C1827 1.384 1_565 S
H1830 C1836 0.930 . S
H1831 C1840 0.930 1_565 S
H1832 C1845 0.929 . S
H1833 C1843 0.929 . S
H1834 C1838 0.929 . S
H1835 C1844 0.929 . S
C1836 H1830 0.930 . S
C1836 C1837 1.367 1_545 S
C1836 C1844 1.378 . S
C1837 C1836 1.367 1_565 S
C1837 C1845 1.433 . S
C1838 H1834 0.929 . S
C1838 C1840 1.378 1_565 S
C1838 C1842 1.350 1_565 S
C1839 C1842 1.463 . S
C1839 C1844 1.350 . S
C1839 N1847 1.427 1_545 S
C1840 H1831 0.930 1_545 S
C1840 C1838 1.378 1_545 S
C1840 C1841 1.367 . S
C1841 C1840 1.367 . S
C1841 C1843 1.433 . S
C1842 C1838 1.350 1_545 S
C1842 C1839 1.463 . S
C1842 N1846 1.427 . S
C1843 H1833 0.929 . S
C1843 C1841 1.433 . S
C1843 N1846 1.384 . S
C1844 H1835 0.929 . S
C1844 C1836 1.378 . S
C1844 C1839 1.350 . S
C1845 H1832 0.929 . S
C1845 C1837 1.433 . S
C1845 N1847 1.384 . S
N1846 C1842 1.427 . S
N1846 C1843 1.384 . S
N1847 C1839 1.427 1_565 S
N1847 C1845 1.384 . S
H1848 C1854 0.930 . S
H1849 C1858 0.930 1_545 S
H1850 C1863 0.929 . S
H1851 C1861 0.929 . S
H1852 C1856 0.929 . S
H1853 C1862 0.929 . S
C1854 H1848 0.930 . S
C1854 C1855 1.367 . S
C1854 C1862 1.378 . S
C1855 C1854 1.367 . S
C1855 C1863 1.433 . S
C1856 H1852 0.929 . S
C1856 C1858 1.378 . S
C1856 C1860 1.350 . S
C1857 C1860 1.463 . S
C1857 C1862 1.350 . S
C1857 N1865 1.427 . S
C1858 H1849 0.930 1_565 S
C1858 C1856 1.378 . S
C1858 C1859 1.367 1_565 S
C1859 C1858 1.367 1_545 S
C1859 C1861 1.433 . S
C1860 C1856 1.350 . S
C1860 C1857 1.463 . S
C1860 N1864 1.427 . S
C1861 H1851 0.929 . S
C1861 C1859 1.433 . S
C1861 N1864 1.384 1_545 S
C1862 H1853 0.929 . S
C1862 C1854 1.378 . S
C1862 C1857 1.350 . S
C1863 H1850 0.929 . S
C1863 C1855 1.433 . S
C1863 N1865 1.384 . S
N1864 C1860 1.427 . S
N1864 C1861 1.384 1_565 S
N1865 C1857 1.427 . S
N1865 C1863 1.384 . S
H1866 C1872 0.930 . S
H1867 C1876 0.930 . S
H1868 C1881 0.929 . S
H1869 C1879 0.931 . S
H1870 C1874 0.929 . S
H1871 C1880 0.929 . S
C1872 H1866 0.930 . S
C1872 C1873 1.367 . S
C1872 C1880 1.378 . S
C1873 C1872 1.367 . S
C1873 C1881 1.433 . S
C1874 H1870 0.929 . S
C1874 C1876 1.378 . S
C1874 C1878 1.350 1_545 S
C1875 C1878 1.463 . S
C1875 C1880 1.350 . S
C1875 N1883 1.427 . S
C1876 H1867 0.930 . S
C1876 C1874 1.378 . S
C1876 C1877 1.367 . S
C1877 C1876 1.367 . S
C1877 C1879 1.433 . S
C1878 C1874 1.350 1_565 S
C1878 C1875 1.463 . S
C1878 N1882 1.427 . S
C1879 H1869 0.931 . S
C1879 C1877 1.433 . S
C1879 N1882 1.384 1_545 S
C1880 H1871 0.929 . S
C1880 C1872 1.378 . S
C1880 C1875 1.350 . S
C1881 H1868 0.929 . S
C1881 C1873 1.433 . S
C1881 N1883 1.384 . S
N1882 C1878 1.427 . S
N1882 C1879 1.384 1_565 S
N1883 C1875 1.427 . S
N1883 C1881 1.384 . S
H1884 C1890 0.930 . S
H1885 C1894 0.930 . S
H1886 C1899 0.929 . S
H1887 C1897 0.929 . S
H1888 C1892 0.929 . S
H1889 C1898 0.929 . S
C1890 H1884 0.930 . S
C1890 C1891 1.367 . S
C1890 C1898 1.378 1_565 S
C1891 C1890 1.367 . S
C1891 C1899 1.433 . S
C1892 H1888 0.929 . S
C1892 C1894 1.378 . S
C1892 C1896 1.350 . S
C1893 C1896 1.463 . S
C1893 C1898 1.350 . S
C1893 N1901 1.427 . S
C1894 H1885 0.930 . S
C1894 C1892 1.378 . S
C1894 C1895 1.367 . S
C1895 C1894 1.367 . S
C1895 C1897 1.433 . S
C1896 C1892 1.350 . S
C1896 C1893 1.463 . S
C1896 N1900 1.427 . S
C1897 H1887 0.929 . S
C1897 C1895 1.433 . S
C1897 N1900 1.384 . S
C1898 H1889 0.929 . S
C1898 C1890 1.378 1_545 S
C1898 C1893 1.350 . S
C1899 H1886 0.929 . S
C1899 C1891 1.433 . S
C1899 N1901 1.384 1_565 S
N1900 C1896 1.427 . S
N1900 C1897 1.384 . S
N1901 C1893 1.427 . S
N1901 C1899 1.384 1_545 S
H1902 C1908 0.930 . S
H1903 C1912 0.930 . S
H1904 C1917 0.929 . S
H1905 C1915 0.929 . S
H1906 C1910 0.929 . S
H1907 C1916 0.929 1_565 S
C1908 H1902 0.930 . S
C1908 C1909 1.367 . S
C1908 C1916 1.378 . S
C1909 C1908 1.367 . S
C1909 C1917 1.433 . S
C1910 H1906 0.929 . S
C1910 C1912 1.378 . S
C1910 C1914 1.350 . S
C1911 C1914 1.463 . S
C1911 C1916 1.350 . S
C1911 N1919 1.427 . S
C1912 H1903 0.930 . S
C1912 C1910 1.378 . S
C1912 C1913 1.367 1_545 S
C1913 C1912 1.367 1_565 S
C1913 C1915 1.433 . S
C1914 C1910 1.350 . S
C1914 C1911 1.463 . S
C1914 N1918 1.427 1_545 S
C1915 H1905 0.929 . S
C1915 C1913 1.433 . S
C1915 N1918 1.384 . S
C1916 H1907 0.929 1_545 S
C1916 C1908 1.378 . S
C1916 C1911 1.350 . S
C1917 H1904 0.929 . S
C1917 C1909 1.433 . S
C1917 N1919 1.384 . S
N1918 C1914 1.427 1_565 S
N1918 C1915 1.384 . S
N1919 C1911 1.427 . S
N1919 C1917 1.384 . S
H1920 C1926 0.930 . S
H1921 C1930 0.930 . S
H1922 C1935 0.929 . S
H1923 C1933 0.929 . S
H1924 C1928 0.929 . S
H1925 C1934 0.929 . S
C1926 H1920 0.930 . S
C1926 C1927 1.367 . S
C1926 C1934 1.378 . S
C1927 C1926 1.367 . S
C1927 C1935 1.433 . S
C1928 H1924 0.929 . S
C1928 C1930 1.378 . S
C1928 C1932 1.350 . S
C1929 C1932 1.463 . S
C1929 C1934 1.350 . S
C1929 N1937 1.427 . S
C1930 H1921 0.930 . S
C1930 C1928 1.378 . S
C1930 C1931 1.367 . S
C1931 C1930 1.367 . S
C1931 C1933 1.433 . S
C1932 C1928 1.350 . S
C1932 C1929 1.463 . S
C1932 N1936 1.427 . S
C1933 H1923 0.929 . S
C1933 C1931 1.433 . S
C1933 N1936 1.384 . S
C1934 H1925 0.929 . S
C1934 C1926 1.378 . S
C1934 C1929 1.350 . S
C1935 H1922 0.929 . S
C1935 C1927 1.433 . S
C1935 N1937 1.384 . S
N1936 C1932 1.427 . S
N1936 C1933 1.384 . S
N1937 C1929 1.427 . S
N1937 C1935 1.384 . S
H1938 C1944 0.930 . S
H1939 C1948 0.930 . S
H1940 C1953 0.929 . S
H1941 C1951 0.929 . S
H1942 C1946 0.929 . S
H1943 C1952 0.929 . S
C1944 H1938 0.930 . S
C1944 C1945 1.367 . S
C1944 C1952 1.378 . S
C1945 C1944 1.367 . S
C1945 C1953 1.433 . S
C1946 H1942 0.929 . S
C1946 C1948 1.378 . S
C1946 C1950 1.350 . S
C1947 C1950 1.463 . S
C1947 C1952 1.350 . S
C1947 N1955 1.427 . S
C1948 H1939 0.930 . S
C1948 C1946 1.378 . S
C1948 C1949 1.367 . S
C1949 C1948 1.367 . S
C1949 C1951 1.433 . S
C1950 C1946 1.350 . S
C1950 C1947 1.463 . S
C1950 N1954 1.427 . S
C1951 H1941 0.929 . S
C1951 C1949 1.433 . S
C1951 N1954 1.384 . S
C1952 H1943 0.929 . S
C1952 C1944 1.378 . S
C1952 C1947 1.350 . S
C1953 H1940 0.929 . S
C1953 C1945 1.433 . S
C1953 N1955 1.384 . S
N1954 C1950 1.427 . S
N1954 C1951 1.384 . S
N1955 C1947 1.427 . S
N1955 C1953 1.384 . S
H1956 C1962 0.930 . S
H1957 C1966 0.930 . S
H1958 C1971 0.929 . S
H1959 C1969 0.929 . S
H1960 C1964 0.929 . S
H1961 C1970 0.929 . S
C1962 H1956 0.930 . S
C1962 C1963 1.367 . S
C1962 C1970 1.378 . S
C1963 C1962 1.367 . S
C1963 C1971 1.433 . S
C1964 H1960 0.929 . S
C1964 C1966 1.378 . S
C1964 C1968 1.350 . S
C1965 C1968 1.463 . S
C1965 C1970 1.350 . S
C1965 N1973 1.427 . S
C1966 H1957 0.930 . S
C1966 C1964 1.378 . S
C1966 C1967 1.367 . S
C1967 C1966 1.367 . S
C1967 C1969 1.433 . S
C1968 C1964 1.350 . S
C1968 C1965 1.463 . S
C1968 N1972 1.427 . S
C1969 H1959 0.929 . S
C1969 C1967 1.433 . S
C1969 N1972 1.384 . S
C1970 H1961 0.929 . S
C1970 C1962 1.378 . S
C1970 C1965 1.350 . S
C1971 H1958 0.929 . S
C1971 C1963 1.433 . S
C1971 N1973 1.384 . S
N1972 C1968 1.427 . S
N1972 C1969 1.384 . S
N1973 C1965 1.427 . S
N1973 C1971 1.384 . S
H1974 C1980 0.930 . S
H1975 C1984 0.930 . S
H1976 C1989 0.929 . S
H1977 C1987 0.929 . S
H1978 C1982 0.929 . S
H1979 C1988 0.929 . S
C1980 H1974 0.930 . S
C1980 C1981 1.367 . S
C1980 C1988 1.378 . S
C1981 C1980 1.367 . S
C1981 C1989 1.433 . S
C1982 H1978 0.929 . S
C1982 C1984 1.378 . S
C1982 C1986 1.350 . S
C1983 C1986 1.463 . S
C1983 C1988 1.350 . S
C1983 N1991 1.427 . S
C1984 H1975 0.930 . S
C1984 C1982 1.378 . S
C1984 C1985 1.367 . S
C1985 C1984 1.367 . S
C1985 C1987 1.433 . S
C1986 C1982 1.350 . S
C1986 C1983 1.463 . S
C1986 N1990 1.427 . S
C1987 H1977 0.929 . S
C1987 C1985 1.433 . S
C1987 N1990 1.384 . S
C1988 H1979 0.929 . S
C1988 C1980 1.378 . S
C1988 C1983 1.350 . S
C1989 H1976 0.929 . S
C1989 C1981 1.433 . S
C1989 N1991 1.384 . S
N1990 C1986 1.427 . S
N1990 C1987 1.384 . S
N1991 C1983 1.427 . S
N1991 C1989 1.384 . S
H1992 C1998 0.930 . S
H1993 C2002 0.930 . S
H1994 C2007 0.929 . S
H1995 C2005 0.929 . S
H1996 C2000 0.929 . S
H1997 C2006 0.929 . S
C1998 H1992 0.930 . S
C1998 C1999 1.367 . S
C1998 C2006 1.378 . S
C1999 C1998 1.367 . S
C1999 C2007 1.433 . S
C2000 H1996 0.929 . S
C2000 C2002 1.378 . S
C2000 C2004 1.350 . S
C2001 C2004 1.463 . S
C2001 C2006 1.350 . S
C2001 N2009 1.427 . S
C2002 H1993 0.930 . S
C2002 C2000 1.378 . S
C2002 C2003 1.367 . S
C2003 C2002 1.367 . S
C2003 C2005 1.433 . S
C2004 C2000 1.350 . S
C2004 C2001 1.463 . S
C2004 N2008 1.427 . S
C2005 H1995 0.929 . S
C2005 C2003 1.433 . S
C2005 N2008 1.384 . S
C2006 H1997 0.929 . S
C2006 C1998 1.378 . S
C2006 C2001 1.350 . S
C2007 H1994 0.929 . S
C2007 C1999 1.433 . S
C2007 N2009 1.384 . S
N2008 C2004 1.427 . S
N2008 C2005 1.384 . S
N2009 C2001 1.427 . S
N2009 C2007 1.384 . S
H2010 C2016 0.930 . S
H2011 C2020 0.930 . S
H2012 C2025 0.929 . S
H2013 C2023 0.929 . S
H2014 C2018 0.929 . S
H2015 C2024 0.929 . S
C2016 H2010 0.930 . S
C2016 C2017 1.367 . S
C2016 C2024 1.378 . S
C2017 C2016 1.367 . S
C2017 C2025 1.433 . S
C2018 H2014 0.929 . S
C2018 C2020 1.378 . S
C2018 C2022 1.350 . S
C2019 C2022 1.463 . S
C2019 C2024 1.350 . S
C2019 N2027 1.427 . S
C2020 H2011 0.930 . S
C2020 C2018 1.378 . S
C2020 C2021 1.367 . S
C2021 C2020 1.367 . S
C2021 C2023 1.433 . S
C2022 C2018 1.350 . S
C2022 C2019 1.463 . S
C2022 N2026 1.427 . S
C2023 H2013 0.929 . S
C2023 C2021 1.433 . S
C2023 N2026 1.384 . S
C2024 H2015 0.929 . S
C2024 C2016 1.378 . S
C2024 C2019 1.350 . S
C2025 H2012 0.929 . S
C2025 C2017 1.433 . S
C2025 N2027 1.384 . S
N2026 C2022 1.427 . S
N2026 C2023 1.384 . S
N2027 C2019 1.427 . S
N2027 C2025 1.384 . S
H2028 C2034 0.930 . S
H2029 C2038 0.930 . S
H2030 C2043 0.929 . S
H2031 C2041 0.929 . S
H2032 C2036 0.929 . S
H2033 C2042 0.929 . S
C2034 H2028 0.930 . S
C2034 C2035 1.367 . S
C2034 C2042 1.378 . S
C2035 C2034 1.367 . S
C2035 C2043 1.433 . S
C2036 H2032 0.929 . S
C2036 C2038 1.378 . S
C2036 C2040 1.350 . S
C2037 C2040 1.463 . S
C2037 C2042 1.350 . S
C2037 N2045 1.427 . S
C2038 H2029 0.930 . S
C2038 C2036 1.378 . S
C2038 C2039 1.367 . S
C2039 C2038 1.367 . S
C2039 C2041 1.433 . S
C2040 C2036 1.350 . S
C2040 C2037 1.463 . S
C2040 N2044 1.427 . S
C2041 H2031 0.929 . S
C2041 C2039 1.433 . S
C2041 N2044 1.384 . S
C2042 H2033 0.929 . S
C2042 C2034 1.378 . S
C2042 C2037 1.350 . S
C2043 H2030 0.929 . S
C2043 C2035 1.433 . S
C2043 N2045 1.384 . S
N2044 C2040 1.427 . S
N2044 C2041 1.384 . S
N2045 C2037 1.427 . S
N2045 C2043 1.384 . S
H2046 C2052 0.930 . S
H2047 C2056 0.930 . S
H2048 C2061 0.929 . S
H2049 C2059 0.929 . S
H2050 C2054 0.929 . S
H2051 C2060 0.929 . S
C2052 H2046 0.930 . S
C2052 C2053 1.367 . S
C2052 C2060 1.378 . S
C2053 C2052 1.367 . S
C2053 C2061 1.433 . S
C2054 H2050 0.929 . S
C2054 C2056 1.378 . S
C2054 C2058 1.350 . S
C2055 C2058 1.463 . S
C2055 C2060 1.350 . S
C2055 N2063 1.427 . S
C2056 H2047 0.930 . S
C2056 C2054 1.378 . S
C2056 C2057 1.367 . S
C2057 C2056 1.367 . S
C2057 C2059 1.433 . S
C2058 C2054 1.350 . S
C2058 C2055 1.463 . S
C2058 N2062 1.427 . S
C2059 H2049 0.929 . S
C2059 C2057 1.433 . S
C2059 N2062 1.384 . S
C2060 H2051 0.929 . S
C2060 C2052 1.378 . S
C2060 C2055 1.350 . S
C2061 H2048 0.929 . S
C2061 C2053 1.433 . S
C2061 N2063 1.384 . S
N2062 C2058 1.427 . S
N2062 C2059 1.384 . S
N2063 C2055 1.427 . S
N2063 C2061 1.384 . S
H2064 C2070 0.930 . S
H2065 C2074 0.930 . S
H2066 C2079 0.929 . S
H2067 C2077 0.929 . S
H2068 C2072 0.929 . S
H2069 C2078 0.929 . S
C2070 H2064 0.930 . S
C2070 C2071 1.367 . S
C2070 C2078 1.378 . S
C2071 C2070 1.367 . S
C2071 C2079 1.433 . S
C2072 H2068 0.929 . S
C2072 C2074 1.378 . S
C2072 C2076 1.350 . S
C2073 C2076 1.463 . S
C2073 C2078 1.350 . S
C2073 N2081 1.427 . S
C2074 H2065 0.930 . S
C2074 C2072 1.378 . S
C2074 C2075 1.367 . S
C2075 C2074 1.367 . S
C2075 C2077 1.433 . S
C2076 C2072 1.350 . S
C2076 C2073 1.463 . S
C2076 N2080 1.427 . S
C2077 H2067 0.929 . S
C2077 C2075 1.433 . S
C2077 N2080 1.384 . S
C2078 H2069 0.929 . S
C2078 C2070 1.378 . S
C2078 C2073 1.350 . S
C2079 H2066 0.929 . S
C2079 C2071 1.433 . S
C2079 N2081 1.384 . S
N2080 C2076 1.427 . S
N2080 C2077 1.384 . S
N2081 C2073 1.427 . S
N2081 C2079 1.384 . S
H2082 C2088 0.930 . S
H2083 C2092 0.930 . S
H2084 C2097 0.929 . S
H2085 C2095 0.929 . S
H2086 C2090 0.929 . S
H2087 C2096 0.929 . S
C2088 H2082 0.930 . S
C2088 C2089 1.367 . S
C2088 C2096 1.378 . S
C2089 C2088 1.367 . S
C2089 C2097 1.433 . S
C2090 H2086 0.929 . S
C2090 C2092 1.378 . S
C2090 C2094 1.350 . S
C2091 C2094 1.463 . S
C2091 C2096 1.350 . S
C2091 N2099 1.427 . S
C2092 H2083 0.930 . S
C2092 C2090 1.378 . S
C2092 C2093 1.367 . S
C2093 C2092 1.367 . S
C2093 C2095 1.433 . S
C2094 C2090 1.350 . S
C2094 C2091 1.463 . S
C2094 N2098 1.427 . S
C2095 H2085 0.929 . S
C2095 C2093 1.433 . S
C2095 N2098 1.384 . S
C2096 H2087 0.929 . S
C2096 C2088 1.378 . S
C2096 C2091 1.350 . S
C2097 H2084 0.929 . S
C2097 C2089 1.433 . S
C2097 N2099 1.384 . S
N2098 C2094 1.427 . S
N2098 C2095 1.384 . S
N2099 C2091 1.427 . S
N2099 C2097 1.384 . S
H2100 C2106 0.930 . S
H2101 C2110 0.930 . S
H2102 C2115 0.929 . S
H2103 C2113 0.929 . S
H2104 C2108 0.929 . S
H2105 C2114 0.929 . S
C2106 H2100 0.930 . S
C2106 C2107 1.367 . S
C2106 C2114 1.378 . S
C2107 C2106 1.367 . S
C2107 C2115 1.433 . S
C2108 H2104 0.929 . S
C2108 C2110 1.378 . S
C2108 C2112 1.350 . S
C2109 C2112 1.463 . S
C2109 C2114 1.350 . S
C2109 N2117 1.427 . S
C2110 H2101 0.930 . S
C2110 C2108 1.378 . S
C2110 C2111 1.367 . S
C2111 C2110 1.367 . S
C2111 C2113 1.433 . S
C2112 C2108 1.350 . S
C2112 C2109 1.463 . S
C2112 N2116 1.427 . S
C2113 H2103 0.929 . S
C2113 C2111 1.433 . S
C2113 N2116 1.384 . S
C2114 H2105 0.929 . S
C2114 C2106 1.378 . S
C2114 C2109 1.350 . S
C2115 H2102 0.929 . S
C2115 C2107 1.433 . S
C2115 N2117 1.384 . S
N2116 C2112 1.427 . S
N2116 C2113 1.384 . S
N2117 C2109 1.427 . S
N2117 C2115 1.384 . S
H2118 C2124 0.930 . S
H2119 C2128 0.930 . S
H2120 C2133 0.929 . S
H2121 C2131 0.929 . S
H2122 C2126 0.929 . S
H2123 C2132 0.929 . S
C2124 H2118 0.930 . S
C2124 C2125 1.367 . S
C2124 C2132 1.378 . S
C2125 C2124 1.367 . S
C2125 C2133 1.433 . S
C2126 H2122 0.929 . S
C2126 C2128 1.378 . S
C2126 C2130 1.350 . S
C2127 C2130 1.463 . S
C2127 C2132 1.350 . S
C2127 N2135 1.427 . S
C2128 H2119 0.930 . S
C2128 C2126 1.378 . S
C2128 C2129 1.367 . S
C2129 C2128 1.367 . S
C2129 C2131 1.433 . S
C2130 C2126 1.350 . S
C2130 C2127 1.463 . S
C2130 N2134 1.427 . S
C2131 H2121 0.929 . S
C2131 C2129 1.433 . S
C2131 N2134 1.384 . S
C2132 H2123 0.929 . S
C2132 C2124 1.378 . S
C2132 C2127 1.350 . S
C2133 H2120 0.929 . S
C2133 C2125 1.433 . S
C2133 N2135 1.384 . S
N2134 C2130 1.427 . S
N2134 C2131 1.384 . S
N2135 C2127 1.427 . S
N2135 C2133 1.384 . S
H2136 C2142 0.930 . S
H2137 C2146 0.930 . S
H2138 C2151 0.929 . S
H2139 C2149 0.929 . S
H2140 C2144 0.929 . S
H2141 C2150 0.929 . S
C2142 H2136 0.930 . S
C2142 C2143 1.367 . S
C2142 C2150 1.378 . S
C2143 C2142 1.367 . S
C2143 C2151 1.433 . S
C2144 H2140 0.929 . S
C2144 C2146 1.378 . S
C2144 C2148 1.350 . S
C2145 C2148 1.463 . S
C2145 C2150 1.350 . S
C2145 N2153 1.427 . S
C2146 H2137 0.930 . S
C2146 C2144 1.378 . S
C2146 C2147 1.367 . S
C2147 C2146 1.367 . S
C2147 C2149 1.433 . S
C2148 C2144 1.350 . S
C2148 C2145 1.463 . S
C2148 N2152 1.427 . S
C2149 H2139 0.929 . S
C2149 C2147 1.433 . S
C2149 N2152 1.384 . S
C2150 H2141 0.929 . S
C2150 C2142 1.378 . S
C2150 C2145 1.350 . S
C2151 H2138 0.929 . S
C2151 C2143 1.433 . S
C2151 N2153 1.384 . S
N2152 C2148 1.427 . S
N2152 C2149 1.384 . S
N2153 C2145 1.427 . S
N2153 C2151 1.384 . S
H2154 C2160 0.930 . S
H2155 C2164 0.930 . S
H2156 C2169 0.929 . S
H2157 C2167 0.929 . S
H2158 C2162 0.929 . S
H2159 C2168 0.929 . S
C2160 H2154 0.930 . S
C2160 C2161 1.367 . S
C2160 C2168 1.378 . S
C2161 C2160 1.367 . S
C2161 C2169 1.433 . S
C2162 H2158 0.929 . S
C2162 C2164 1.378 . S
C2162 C2166 1.350 . S
C2163 C2166 1.463 . S
C2163 C2168 1.350 . S
C2163 N2171 1.427 . S
C2164 H2155 0.930 . S
C2164 C2162 1.378 . S
C2164 C2165 1.367 . S
C2165 C2164 1.367 . S
C2165 C2167 1.433 . S
C2166 C2162 1.350 . S
C2166 C2163 1.463 . S
C2166 N2170 1.427 . S
C2167 H2157 0.929 . S
C2167 C2165 1.433 . S
C2167 N2170 1.384 . S
C2168 H2159 0.929 . S
C2168 C2160 1.378 . S
C2168 C2163 1.350 . S
C2169 H2156 0.929 . S
C2169 C2161 1.433 . S
C2169 N2171 1.384 . S
N2170 C2166 1.427 . S
N2170 C2167 1.384 . S
N2171 C2163 1.427 . S
N2171 C2169 1.384 . S
H2172 C2178 0.930 . S
H2173 C2182 0.930 . S
H2174 C2187 0.929 . S
H2175 C2185 0.929 . S
H2176 C2180 0.929 . S
H2177 C2186 0.929 . S
C2178 H2172 0.930 . S
C2178 C2179 1.367 . S
C2178 C2186 1.378 . S
C2179 C2178 1.367 . S
C2179 C2187 1.433 . S
C2180 H2176 0.929 . S
C2180 C2182 1.378 . S
C2180 C2184 1.350 . S
C2181 C2184 1.463 . S
C2181 C2186 1.350 . S
C2181 N2189 1.427 . S
C2182 H2173 0.930 . S
C2182 C2180 1.378 . S
C2182 C2183 1.367 . S
C2183 C2182 1.367 . S
C2183 C2185 1.433 . S
C2184 C2180 1.350 . S
C2184 C2181 1.463 . S
C2184 N2188 1.427 . S
C2185 H2175 0.929 . S
C2185 C2183 1.433 . S
C2185 N2188 1.384 . S
C2186 H2177 0.929 . S
C2186 C2178 1.378 . S
C2186 C2181 1.350 . S
C2187 H2174 0.929 . S
C2187 C2179 1.433 . S
C2187 N2189 1.384 . S
N2188 C2184 1.427 . S
N2188 C2185 1.384 . S
N2189 C2181 1.427 . S
N2189 C2187 1.384 . S
H2190 C2196 0.930 . S
H2191 C2200 0.930 . S
H2192 C2205 0.929 . S
H2193 C2203 0.929 . S
H2194 C2198 0.929 . S
H2195 C2204 0.929 . S
C2196 H2190 0.930 . S
C2196 C2197 1.367 . S
C2196 C2204 1.378 . S
C2197 C2196 1.367 . S
C2197 C2205 1.433 . S
C2198 H2194 0.929 . S
C2198 C2200 1.378 . S
C2198 C2202 1.350 . S
C2199 C2202 1.463 . S
C2199 C2204 1.350 . S
C2199 N2207 1.427 . S
C2200 H2191 0.930 . S
C2200 C2198 1.378 . S
C2200 C2201 1.367 . S
C2201 C2200 1.367 . S
C2201 C2203 1.433 . S
C2202 C2198 1.350 . S
C2202 C2199 1.463 . S
C2202 N2206 1.427 . S
C2203 H2193 0.929 . S
C2203 C2201 1.433 . S
C2203 N2206 1.384 . S
C2204 H2195 0.929 . S
C2204 C2196 1.378 . S
C2204 C2199 1.350 . S
C2205 H2192 0.929 . S
C2205 C2197 1.433 . S
C2205 N2207 1.384 . S
N2206 C2202 1.427 . S
N2206 C2203 1.384 . S
N2207 C2199 1.427 . S
N2207 C2205 1.384 . S
H2208 C2214 0.930 . S
H2209 C2218 0.930 . S
H2210 C2223 0.929 . S
H2211 C2221 0.929 . S
H2212 C2216 0.929 . S
H2213 C2222 0.929 . S
C2214 H2208 0.930 . S
C2214 C2215 1.367 . S
C2214 C2222 1.378 . S
C2215 C2214 1.367 . S
C2215 C2223 1.433 . S
C2216 H2212 0.929 . S
C2216 C2218 1.378 . S
C2216 C2220 1.350 . S
C2217 C2220 1.463 . S
C2217 C2222 1.350 . S
C2217 N2225 1.427 . S
C2218 H2209 0.930 . S
C2218 C2216 1.378 . S
C2218 C2219 1.367 . S
C2219 C2218 1.367 . S
C2219 C2221 1.433 . S
C2220 C2216 1.350 . S
C2220 C2217 1.463 . S
C2220 N2224 1.427 . S
C2221 H2211 0.929 . S
C2221 C2219 1.433 . S
C2221 N2224 1.384 . S
C2222 H2213 0.929 . S
C2222 C2214 1.378 . S
C2222 C2217 1.350 . S
C2223 H2210 0.929 . S
C2223 C2215 1.433 . S
C2223 N2225 1.384 . S
N2224 C2220 1.427 . S
N2224 C2221 1.384 . S
N2225 C2217 1.427 . S
N2225 C2223 1.384 . S
H2226 C2232 0.930 . S
H2227 C2236 0.930 . S
H2228 C2241 0.929 . S
H2229 C2239 0.929 . S
H2230 C2234 0.929 . S
H2231 C2240 0.929 . S
C2232 H2226 0.930 . S
C2232 C2233 1.367 1_455 S
C2232 C2240 1.378 . S
C2233 C2232 1.367 1_655 S
C2233 C2241 1.433 . S
C2234 H2230 0.929 . S
C2234 C2236 1.378 . S
C2234 C2238 1.350 1_655 S
C2235 C2238 1.463 1_655 S
C2235 C2240 1.350 1_655 S
C2235 N2243 1.427 . S
C2236 H2227 0.930 . S
C2236 C2234 1.378 . S
C2236 C2237 1.367 1_655 S
C2237 C2236 1.367 1_455 S
C2237 C2239 1.433 . S
C2238 C2234 1.350 1_455 S
C2238 C2235 1.463 1_455 S
C2238 N2242 1.427 . S
C2239 H2229 0.929 . S
C2239 C2237 1.433 . S
C2239 N2242 1.384 . S
C2240 H2231 0.929 . S
C2240 C2232 1.378 . S
C2240 C2235 1.350 1_455 S
C2241 H2228 0.929 . S
C2241 C2233 1.433 . S
C2241 N2243 1.384 . S
N2242 C2238 1.427 . S
N2242 C2239 1.384 . S
N2243 C2235 1.427 . S
N2243 C2241 1.384 . S
H2244 C2250 0.930 . S
H2245 C2254 0.930 . S
H2246 C2259 0.929 . S
H2247 C2257 0.929 . S
H2248 C2252 0.929 . S
H2249 C2258 0.929 . S
C2250 H2244 0.930 . S
C2250 C2251 1.367 . S
C2250 C2258 1.378 . S
C2251 C2250 1.367 . S
C2251 C2259 1.433 . S
C2252 H2248 0.929 . S
C2252 C2254 1.378 . S
C2252 C2256 1.350 . S
C2253 C2256 1.463 1_455 S
C2253 C2258 1.350 . S
C2253 N2261 1.427 . S
C2254 H2245 0.930 . S
C2254 C2252 1.378 . S
C2254 C2255 1.367 . S
C2255 C2254 1.367 . S
C2255 C2257 1.433 . S
C2256 C2252 1.350 . S
C2256 C2253 1.463 1_655 S
C2256 N2260 1.427 . S
C2257 H2247 0.929 . S
C2257 C2255 1.433 . S
C2257 N2260 1.384 . S
C2258 H2249 0.929 . S
C2258 C2250 1.378 . S
C2258 C2253 1.350 . S
C2259 H2246 0.929 . S
C2259 C2251 1.433 . S
C2259 N2261 1.384 . S
N2260 C2256 1.427 . S
N2260 C2257 1.384 . S
N2261 C2253 1.427 . S
N2261 C2259 1.384 . S
H2262 C2268 0.930 . S
H2263 C2272 0.930 . S
H2264 C2277 0.929 . S
H2265 C2275 0.929 . S
H2266 C2270 0.929 . S
H2267 C2276 0.929 . S
C2268 H2262 0.930 . S
C2268 C2269 1.367 . S
C2268 C2276 1.378 . S
C2269 C2268 1.367 . S
C2269 C2277 1.433 . S
C2270 H2266 0.929 . S
C2270 C2272 1.378 . S
C2270 C2274 1.350 . S
C2271 C2274 1.463 . S
C2271 C2276 1.350 . S
C2271 N2279 1.427 . S
C2272 H2263 0.930 . S
C2272 C2270 1.378 . S
C2272 C2273 1.367 . S
C2273 C2272 1.367 . S
C2273 C2275 1.433 . S
C2274 C2270 1.350 . S
C2274 C2271 1.463 . S
C2274 N2278 1.427 . S
C2275 H2265 0.929 . S
C2275 C2273 1.433 . S
C2275 N2278 1.384 . S
C2276 H2267 0.929 . S
C2276 C2268 1.378 . S
C2276 C2271 1.350 . S
C2277 H2264 0.929 . S
C2277 C2269 1.433 . S
C2277 N2279 1.384 . S
N2278 C2274 1.427 . S
N2278 C2275 1.384 . S
N2279 C2271 1.427 . S
N2279 C2277 1.384 . S
H2280 C2286 0.930 . S
H2281 C2290 0.930 . S
H2282 C2295 0.929 . S
H2283 C2293 0.929 . S
H2284 C2288 0.929 . S
H2285 C2294 0.929 . S
C2286 H2280 0.930 . S
C2286 C2287 1.367 . S
C2286 C2294 1.378 . S
C2287 C2286 1.367 . S
C2287 C2295 1.433 . S
C2288 H2284 0.929 . S
C2288 C2290 1.378 . S
C2288 C2292 1.350 . S
C2289 C2292 1.463 . S
C2289 C2294 1.350 . S
C2289 N2297 1.427 . S
C2290 H2281 0.930 . S
C2290 C2288 1.378 . S
C2290 C2291 1.367 . S
C2291 C2290 1.367 . S
C2291 C2293 1.433 . S
C2292 C2288 1.350 . S
C2292 C2289 1.463 . S
C2292 N2296 1.427 . S
C2293 H2283 0.929 . S
C2293 C2291 1.433 . S
C2293 N2296 1.384 . S
C2294 H2285 0.929 . S
C2294 C2286 1.378 . S
C2294 C2289 1.350 . S
C2295 H2282 0.929 . S
C2295 C2287 1.433 . S
C2295 N2297 1.384 . S
N2296 C2292 1.427 . S
N2296 C2293 1.384 . S
N2297 C2289 1.427 . S
N2297 C2295 1.384 . S
H2298 C2304 0.930 . S
H2299 C2308 0.930 . S
H2300 C2313 0.929 . S
H2301 C2311 0.929 . S
H2302 C2306 0.929 . S
H2303 C2312 0.929 . S
C2304 H2298 0.930 . S
C2304 C2305 1.367 . S
C2304 C2312 1.378 . S
C2305 C2304 1.367 . S
C2305 C2313 1.433 . S
C2306 H2302 0.929 . S
C2306 C2308 1.378 . S
C2306 C2310 1.350 . S
C2307 C2310 1.463 . S
C2307 C2312 1.350 . S
C2307 N2315 1.427 . S
C2308 H2299 0.930 . S
C2308 C2306 1.378 . S
C2308 C2309 1.367 . S
C2309 C2308 1.367 . S
C2309 C2311 1.433 . S
C2310 C2306 1.350 . S
C2310 C2307 1.463 . S
C2310 N2314 1.427 . S
C2311 H2301 0.929 . S
C2311 C2309 1.433 . S
C2311 N2314 1.384 . S
C2312 H2303 0.929 . S
C2312 C2304 1.378 . S
C2312 C2307 1.350 . S
C2313 H2300 0.929 . S
C2313 C2305 1.433 . S
C2313 N2315 1.384 . S
N2314 C2310 1.427 . S
N2314 C2311 1.384 . S
N2315 C2307 1.427 . S
N2315 C2313 1.384 . S
H2316 C2322 0.930 . S
H2317 C2326 0.930 . S
H2318 C2331 0.929 . S
H2319 C2329 0.929 . S
H2320 C2324 0.929 . S
H2321 C2330 0.929 . S
C2322 H2316 0.930 . S
C2322 C2323 1.367 . S
C2322 C2330 1.378 . S
C2323 C2322 1.367 . S
C2323 C2331 1.433 . S
C2324 H2320 0.929 . S
C2324 C2326 1.378 . S
C2324 C2328 1.350 . S
C2325 C2328 1.463 1_655 S
C2325 C2330 1.350 . S
C2325 N2333 1.427 . S
C2326 H2317 0.930 . S
C2326 C2324 1.378 . S
C2326 C2327 1.367 . S
C2327 C2326 1.367 . S
C2327 C2329 1.433 . S
C2328 C2324 1.350 . S
C2328 C2325 1.463 1_455 S
C2328 N2332 1.427 . S
C2329 H2319 0.929 . S
C2329 C2327 1.433 . S
C2329 N2332 1.384 . S
C2330 H2321 0.929 . S
C2330 C2322 1.378 . S
C2330 C2325 1.350 . S
C2331 H2318 0.929 . S
C2331 C2323 1.433 . S
C2331 N2333 1.384 . S
N2332 C2328 1.427 . S
N2332 C2329 1.384 . S
N2333 C2325 1.427 . S
N2333 C2331 1.384 . S
H2334 C2340 0.930 . S
H2335 C2344 0.930 . S
H2336 C2349 0.941 . S
H2337 C2347 0.942 . S
H2338 C2342 0.929 . S
H2339 C2348 0.929 . S
C2340 H2334 0.930 . S
C2340 C2341 1.367 . S
C2340 C2348 1.378 . S
C2341 C2340 1.367 . S
C2341 C2349 1.413 1_655 S
C2342 H2338 0.929 . S
C2342 C2344 1.378 . S
C2342 C2346 1.350 . S
C2343 C2346 1.463 1_655 S
C2343 C2348 1.350 . S
C2343 N2351 1.427 1_655 S
C2344 H2335 0.930 . S
C2344 C2342 1.378 . S
C2344 C2345 1.367 . S
C2345 C2344 1.367 . S
C2345 C2347 1.412 1_455 S
C2346 C2342 1.350 . S
C2346 C2343 1.463 1_455 S
C2346 N2350 1.427 1_455 S
C2347 H2337 0.942 . S
C2347 C2345 1.412 1_655 S
C2347 N2350 1.392 . S
C2348 H2339 0.929 . S
C2348 C2340 1.378 . S
C2348 C2343 1.350 . S
C2349 H2336 0.941 . S
C2349 C2341 1.413 1_455 S
C2349 N2351 1.392 . S
N2350 C2346 1.427 1_655 S
N2350 C2347 1.392 . S
N2351 C2343 1.427 1_455 S
N2351 C2349 1.392 . S
H2352 C2358 0.930 . S
H2353 C2362 0.930 . S
H2354 C2367 0.929 . S
H2355 C2365 0.929 . S
H2356 C2360 0.929 . S
H2357 C2366 0.929 . S
C2358 H2352 0.930 . S
C2358 C2359 1.367 . S
C2358 C2366 1.378 . S
C2359 C2358 1.367 . S
C2359 C2367 1.433 . S
C2360 H2356 0.929 . S
C2360 C2362 1.378 . S
C2360 C2364 1.350 . S
C2361 C2364 1.463 . S
C2361 C2366 1.350 . S
C2361 N2369 1.427 . S
C2362 H2353 0.930 . S
C2362 C2360 1.378 . S
C2362 C2363 1.367 . S
C2363 C2362 1.367 . S
C2363 C2365 1.433 . S
C2364 C2360 1.350 . S
C2364 C2361 1.463 . S
C2364 N2368 1.427 . S
C2365 H2355 0.929 . S
C2365 C2363 1.433 . S
C2365 N2368 1.384 . S
C2366 H2357 0.929 . S
C2366 C2358 1.378 . S
C2366 C2361 1.350 . S
C2367 H2354 0.929 . S
C2367 C2359 1.433 . S
C2367 N2369 1.384 . S
N2368 C2364 1.427 . S
N2368 C2365 1.384 . S
N2369 C2361 1.427 . S
N2369 C2367 1.384 . S
H2370 C2376 0.930 1_655 S
H2371 C2380 0.930 1_455 S
H2372 C2385 0.929 . S
H2373 C2383 0.929 . S
H2374 C2378 0.929 . S
H2375 C2384 0.929 . S
C2376 H2370 0.930 1_455 S
C2376 C2377 1.367 . S
C2376 C2384 1.378 1_455 S
C2377 C2376 1.367 . S
C2377 C2385 1.433 . S
C2378 H2374 0.929 . S
C2378 C2380 1.378 1_455 S
C2378 C2382 1.350 1_455 S
C2379 C2382 1.463 1_455 S
C2379 C2384 1.350 1_455 S
C2379 N2387 1.427 . S
C2380 H2371 0.930 1_655 S
C2380 C2378 1.378 1_655 S
C2380 C2381 1.367 . S
C2381 C2380 1.367 . S
C2381 C2383 1.433 . S
C2382 C2378 1.350 1_655 S
C2382 C2379 1.463 1_655 S
C2382 N2386 1.427 . S
C2383 H2373 0.929 . S
C2383 C2381 1.433 . S
C2383 N2386 1.384 . S
C2384 H2375 0.929 . S
C2384 C2376 1.378 1_655 S
C2384 C2379 1.350 1_655 S
C2385 H2372 0.929 . S
C2385 C2377 1.433 . S
C2385 N2387 1.384 . S
N2386 C2382 1.427 . S
N2386 C2383 1.384 . S
N2387 C2379 1.427 . S
N2387 C2385 1.384 . S
H2388 C2394 0.930 . S
H2389 C2398 0.930 . S
H2390 C2403 0.929 . S
H2391 C2401 0.929 . S
H2392 C2396 0.929 . S
H2393 C2402 0.929 . S
C2394 H2388 0.930 . S
C2394 C2395 1.367 . S
C2394 C2402 1.378 . S
C2395 C2394 1.367 . S
C2395 C2403 1.433 . S
C2396 H2392 0.929 . S
C2396 C2398 1.378 . S
C2396 C2400 1.350 . S
C2397 C2400 1.463 1_655 S
C2397 C2402 1.350 . S
C2397 N2405 1.427 . S
C2398 H2389 0.930 . S
C2398 C2396 1.378 . S
C2398 C2399 1.367 . S
C2399 C2398 1.367 . S
C2399 C2401 1.433 . S
C2400 C2396 1.350 . S
C2400 C2397 1.463 1_455 S
C2400 N2404 1.427 . S
C2401 H2391 0.929 . S
C2401 C2399 1.433 . S
C2401 N2404 1.384 . S
C2402 H2393 0.929 . S
C2402 C2394 1.378 . S
C2402 C2397 1.350 . S
C2403 H2390 0.929 . S
C2403 C2395 1.433 . S
C2403 N2405 1.384 . S
N2404 C2400 1.427 . S
N2404 C2401 1.384 . S
N2405 C2397 1.427 . S
N2405 C2403 1.384 . S
H2406 C2412 0.930 . S
H2407 C2416 0.930 . S
H2408 C2421 0.929 . S
H2409 C2419 0.929 . S
H2410 C2414 0.929 . S
H2411 C2420 0.929 . S
C2412 H2406 0.930 . S
C2412 C2413 1.367 . S
C2412 C2420 1.378 . S
C2413 C2412 1.367 . S
C2413 C2421 1.433 . S
C2414 H2410 0.929 . S
C2414 C2416 1.378 . S
C2414 C2418 1.350 . S
C2415 C2418 1.463 . S
C2415 C2420 1.350 . S
C2415 N2423 1.427 . S
C2416 H2407 0.930 . S
C2416 C2414 1.378 . S
C2416 C2417 1.367 . S
C2417 C2416 1.367 . S
C2417 C2419 1.433 . S
C2418 C2414 1.350 . S
C2418 C2415 1.463 . S
C2418 N2422 1.427 . S
C2419 H2409 0.929 . S
C2419 C2417 1.433 . S
C2419 N2422 1.384 . S
C2420 H2411 0.929 . S
C2420 C2412 1.378 . S
C2420 C2415 1.350 . S
C2421 H2408 0.929 . S
C2421 C2413 1.433 . S
C2421 N2423 1.384 . S
N2422 C2418 1.427 . S
N2422 C2419 1.384 . S
N2423 C2415 1.427 . S
N2423 C2421 1.384 . S
H2424 C2430 0.930 . S
H2425 C2434 0.930 . S
H2426 C2439 0.929 . S
H2427 C2437 0.929 . S
H2428 C2432 0.929 . S
H2429 C2438 0.929 . S
C2430 H2424 0.930 . S
C2430 C2431 1.367 . S
C2430 C2438 1.378 . S
C2431 C2430 1.367 . S
C2431 C2439 1.433 . S
C2432 H2428 0.929 . S
C2432 C2434 1.378 . S
C2432 C2436 1.350 . S
C2433 C2436 1.463 . S
C2433 C2438 1.350 . S
C2433 N2441 1.427 . S
C2434 H2425 0.930 . S
C2434 C2432 1.378 . S
C2434 C2435 1.367 . S
C2435 C2434 1.367 . S
C2435 C2437 1.433 . S
C2436 C2432 1.350 . S
C2436 C2433 1.463 . S
C2436 N2440 1.427 . S
C2437 H2427 0.929 . S
C2437 C2435 1.433 . S
C2437 N2440 1.384 . S
C2438 H2429 0.929 . S
C2438 C2430 1.378 . S
C2438 C2433 1.350 . S
C2439 H2426 0.929 . S
C2439 C2431 1.433 . S
C2439 N2441 1.384 . S
N2440 C2436 1.427 . S
N2440 C2437 1.384 . S
N2441 C2433 1.427 . S
N2441 C2439 1.384 . S
H2442 C2448 0.930 . S
H2443 C2452 0.930 . S
H2444 C2457 0.929 . S
H2445 C2455 0.929 . S
H2446 C2450 0.929 . S
H2447 C2456 0.929 . S
C2448 H2442 0.930 . S
C2448 C2449 1.367 . S
C2448 C2456 1.378 . S
C2449 C2448 1.367 . S
C2449 C2457 1.433 . S
C2450 H2446 0.929 . S
C2450 C2452 1.378 . S
C2450 C2454 1.350 . S
C2451 C2454 1.463 . S
C2451 C2456 1.350 . S
C2451 N2459 1.427 . S
C2452 H2443 0.930 . S
C2452 C2450 1.378 . S
C2452 C2453 1.367 . S
C2453 C2452 1.367 . S
C2453 C2455 1.433 . S
C2454 C2450 1.350 . S
C2454 C2451 1.463 . S
C2454 N2458 1.427 . S
C2455 H2445 0.929 . S
C2455 C2453 1.433 . S
C2455 N2458 1.384 . S
C2456 H2447 0.929 . S
C2456 C2448 1.378 . S
C2456 C2451 1.350 . S
C2457 H2444 0.929 . S
C2457 C2449 1.433 . S
C2457 N2459 1.384 . S
N2458 C2454 1.427 . S
N2458 C2455 1.384 . S
N2459 C2451 1.427 . S
N2459 C2457 1.384 . S
H2460 C2466 0.930 . S
H2461 C2470 0.930 . S
H2462 C2475 0.929 . S
H2463 C2473 0.929 . S
H2464 C2468 0.929 . S
H2465 C2474 0.929 . S
C2466 H2460 0.930 . S
C2466 C2467 1.367 . S
C2466 C2474 1.378 . S
C2467 C2466 1.367 . S
C2467 C2475 1.433 . S
C2468 H2464 0.929 . S
C2468 C2470 1.378 . S
C2468 C2472 1.350 . S
C2469 C2472 1.463 1_455 S
C2469 C2474 1.350 . S
C2469 N2477 1.427 . S
C2470 H2461 0.930 . S
C2470 C2468 1.378 . S
C2470 C2471 1.367 . S
C2471 C2470 1.367 . S
C2471 C2473 1.433 . S
C2472 C2468 1.350 . S
C2472 C2469 1.463 1_655 S
C2472 N2476 1.427 . S
C2473 H2463 0.929 . S
C2473 C2471 1.433 . S
C2473 N2476 1.384 . S
C2474 H2465 0.929 . S
C2474 C2466 1.378 . S
C2474 C2469 1.350 . S
C2475 H2462 0.929 . S
C2475 C2467 1.433 . S
C2475 N2477 1.384 . S
N2476 C2472 1.427 . S
N2476 C2473 1.384 . S
N2477 C2469 1.427 . S
N2477 C2475 1.384 . S
H2478 C2484 0.930 . S
H2479 C2488 0.930 . S
H2480 C2493 0.929 . S
H2481 C2491 0.929 . S
H2482 C2486 0.929 . S
H2483 C2492 0.929 . S
C2484 H2478 0.930 . S
C2484 C2485 1.367 . S
C2484 C2492 1.378 . S
C2485 C2484 1.367 . S
C2485 C2493 1.433 . S
C2486 H2482 0.929 . S
C2486 C2488 1.378 . S
C2486 C2490 1.350 . S
C2487 C2490 1.463 1_455 S
C2487 C2492 1.350 . S
C2487 N2495 1.427 . S
C2488 H2479 0.930 . S
C2488 C2486 1.378 . S
C2488 C2489 1.367 . S
C2489 C2488 1.367 . S
C2489 C2491 1.433 . S
C2490 C2486 1.350 . S
C2490 C2487 1.463 1_655 S
C2490 N2494 1.427 . S
C2491 H2481 0.929 . S
C2491 C2489 1.433 . S
C2491 N2494 1.384 . S
C2492 H2483 0.929 . S
C2492 C2484 1.378 . S
C2492 C2487 1.350 . S
C2493 H2480 0.929 . S
C2493 C2485 1.433 . S
C2493 N2495 1.384 . S
N2494 C2490 1.427 . S
N2494 C2491 1.384 . S
N2495 C2487 1.427 . S
N2495 C2493 1.384 . S
C1063 C28 1.206 . S
C1067 C259 1.203 . S
C1081 C61 1.202 . S
C1085 C160 1.207 . S
C1099 C94 1.201 . S
C1103 C193 1.208 . S
C1117 C127 1.203 . S
C1121 C226 1.205 . S
C1135 C523 1.205 . S
C1139 C292 1.203 . S
C1153 C325 1.209 . S
C1157 C424 1.201 . S
C1171 C457 1.206 . S
C1175 C358 1.203 . S
C1189 C391 1.208 . S
C1193 C490 1.201 . S
C1207 C556 1.201 . S
C1211 C787 1.208 . S
C1225 C688 1.208 . S
C1229 C589 1.202 . S
C1243 C622 1.205 . S
C1247 C721 1.204 . S
C1261 C655 1.205 . S
C1265 C754 1.203 . S
C1279 C820 1.208 . S
C1283 C1051 1.201 . S
C1297 C853 1.206 . S
C1301 C952 1.203 . S
C1315 C985 1.202 . S
C1319 C886 1.209 . S
C1333 C1018 1.204 . S
C1337 C919 1.205 . S
C1351 C215 1.585 . S
C1355 C17 1.586 . S
C1369 C50 1.597 . S
C1373 C248 1.596 . S
C1387 C83 1.593 . S
C1391 C149 1.596 . S
C1405 C116 1.586 . S
C1409 C182 1.585 . S
C1423 C281 1.585 . S
C1427 C479 1.585 . S
C1441 C512 1.587 . S
C1445 C314 1.586 . S
C1459 C413 1.597 . S
C1463 C347 1.596 . S
C1477 C446 1.595 . S
C1481 C380 1.597 . S
C1495 C545 1.594 . S
C1499 C743 1.596 . S
C1513 C776 1.598 . S
C1517 C578 1.596 . S
C1531 C677 1.589 . S
C1535 C611 1.587 . S
C1549 C644 1.592 . S
C1553 C710 1.595 . S
C1567 C1007 1.587 . S
C1571 C809 1.589 . S
C1585 C842 1.594 . S
C1589 C1040 1.591 . S
C1603 C941 1.591 . S
C1607 C875 1.594 . S
C1621 C974 1.596 . S
C1625 C908 1.598 . S
C1639 N938 1.174 . S
C1643 N5 1.234 . S
C1657 N443 1.163 . S
C1661 N38 1.232 . S
C1675 N1004 1.176 . S
C1679 N71 1.229 . S
C1693 N104 1.231 . S
C1697 N509 1.161 . S
C1711 N806 1.172 . S
C1715 N137 1.234 . S
C1729 N311 1.173 . S
C1733 N170 1.229 . S
C1747 N872 1.161 . S
C1751 N203 1.232 . S
C1765 N236 1.230 . S
C1769 N377 1.161 . S
C1783 N269 1.234 . S
C1787 N674 1.169 . S
C1801 N302 1.233 . S
C1805 N179 1.182 . S
C1819 N335 1.229 . S
C1823 N740 1.174 . S
C1837 N245 1.161 . S
C1841 N368 1.231 . S
C1855 N542 1.179 . S
C1859 N401 1.234 . S
C1873 N434 1.229 . S
C1877 N47 1.171 . S
C1891 N467 1.229 . S
C1895 N608 1.172 . S
C1909 N500 1.229 . S
C1913 N113 1.164 . S
C1927 N410 1.169 . S
C1931 N533 1.234 . S
C1945 N566 1.229 . S
C1949 N971 1.166 . S
C1963 N476 1.171 . S
C1967 N599 1.234 . S
C1981 N632 1.229 . S
C1985 N1037 1.169 . S
C1999 N665 1.229 . S
C2003 N278 1.171 . S
C2017 N698 1.229 . S
C2021 N839 1.165 . S
C2035 N344 1.170 . S
C2039 N731 1.234 . S
C2053 N764 1.230 . S
C2057 N905 1.162 . S
C2071 N146 1.162 . S
C2075 N797 1.230 . S
C2089 N707 1.183 . S
C2093 N830 1.232 . S
C2107 N212 1.171 . S
C2111 N863 1.229 . S
C2125 N773 1.179 . S
C2129 N896 1.234 . S
C2143 N14 1.161 . S
C2147 N929 1.231 . S
C2161 N575 1.180 . S
C2165 N962 1.230 . S
C2179 N995 1.230 . S
C2183 N80 1.177 . S
C2197 N641 1.161 . S
C2201 N1028 1.231 . S
C2215 C602 1.835 . S
C2219 C8 1.833 . S
C2233 C635 1.832 . S
C2237 C41 1.833 . S
C2251 C74 1.830 . S
C2255 C536 1.835 . S
C2269 C107 1.836 . S
C2273 C569 1.831 . S
C2287 C734 1.831 . S
C2291 C140 1.835 . S
C2305 C173 1.830 . S
C2309 C767 1.836 . S
C2323 C668 1.836 . S
C2327 C206 1.832 . S
C2341 C701 1.836 . S
C2345 C239 1.832 . S
C2359 C866 1.836 . S
C2363 C272 1.831 . S
C2377 C899 1.835 . S
C2381 C305 1.831 . S
C2395 C338 1.834 . S
C2399 C800 1.831 . S
C2413 C371 1.836 . S
C2417 C833 1.831 . S
C2431 C404 1.833 . S
C2435 C998 1.832 . S
C2449 C437 1.836 . S
C2453 C1031 1.831 . S
C2467 C932 1.834 . S
C2471 C470 1.834 . S
C2485 C965 1.831 . S
C2489 C503 1.836 . S
