# Generated by pormake.
# Topology fnz, (5)-cn, num edge types: 1
# Building blocks:
#     Node 0, Type 0, BuildingBlock: XOMCOT_clean_sbu_1, # of connection points: 5
#     Node 1, Type 0, BuildingBlock: XOMCOT_clean_sbu_1, # of connection points: 5
#     Node 2, Type 0, BuildingBlock: XOMCOT_clean_sbu_1, # of connection points: 5
#     Node 3, Type 0, BuildingBlock: XOMCOT_clean_sbu_1, # of connection points: 5
#     Node 4, Type 0, BuildingBlock: XOMCOT_clean_sbu_1, # of connection points: 5
#     Node 5, Type 0, BuildingBlock: XOMCOT_clean_sbu_1, # of connection points: 5
#     Node 6, Type 0, BuildingBlock: XOMCOT_clean_sbu_1, # of connection points: 5
#     Node 7, Type 0, BuildingBlock: XOMCOT_clean_sbu_1, # of connection points: 5
#     Node 8, Type 0, BuildingBlock: XOMCOT_clean_sbu_1, # of connection points: 5
#     Node 9, Type 0, BuildingBlock: XOMCOT_clean_sbu_1, # of connection points: 5
#     Node 10, Type 0, BuildingBlock: XOMCOT_clean_sbu_1, # of connection points: 5
#     Node 11, Type 0, BuildingBlock: XOMCOT_clean_sbu_1, # of connection points: 5
#     Edge 12, Type (0, 0), BuildingBlock: CIFDUS_clean_linker_0, # of connection points: 2
#     Edge 13, Type (0, 0), BuildingBlock: CIFDUS_clean_linker_0, # of connection points: 2
#     Edge 14, Type (0, 0), BuildingBlock: CIFDUS_clean_linker_0, # of connection points: 2
#     Edge 15, Type (0, 0), BuildingBlock: CIFDUS_clean_linker_0, # of connection points: 2
#     Edge 16, Type (0, 0), BuildingBlock: CIFDUS_clean_linker_0, # of connection points: 2
#     Edge 17, Type (0, 0), BuildingBlock: CIFDUS_clean_linker_0, # of connection points: 2
#     Edge 18, Type (0, 0), BuildingBlock: CIFDUS_clean_linker_0, # of connection points: 2
#     Edge 19, Type (0, 0), BuildingBlock: CIFDUS_clean_linker_0, # of connection points: 2
#     Edge 20, Type (0, 0), BuildingBlock: CIFDUS_clean_linker_0, # of connection points: 2
#     Edge 21, Type (0, 0), BuildingBlock: CIFDUS_clean_linker_0, # of connection points: 2
#     Edge 22, Type (0, 0), BuildingBlock: CIFDUS_clean_linker_0, # of connection points: 2
#     Edge 23, Type (0, 0), BuildingBlock: CIFDUS_clean_linker_0, # of connection points: 2
#     Edge 24, Type (0, 0), BuildingBlock: CIFDUS_clean_linker_0, # of connection points: 2
#     Edge 25, Type (0, 0), BuildingBlock: CIFDUS_clean_linker_0, # of connection points: 2
#     Edge 26, Type (0, 0), BuildingBlock: CIFDUS_clean_linker_0, # of connection points: 2
#     Edge 27, Type (0, 0), BuildingBlock: CIFDUS_clean_linker_0, # of connection points: 2
#     Edge 28, Type (0, 0), BuildingBlock: CIFDUS_clean_linker_0, # of connection points: 2
#     Edge 29, Type (0, 0), BuildingBlock: CIFDUS_clean_linker_0, # of connection points: 2
#     Edge 30, Type (0, 0), BuildingBlock: CIFDUS_clean_linker_0, # of connection points: 2
#     Edge 31, Type (0, 0), BuildingBlock: CIFDUS_clean_linker_0, # of connection points: 2
#     Edge 32, Type (0, 0), BuildingBlock: CIFDUS_clean_linker_0, # of connection points: 2
#     Edge 33, Type (0, 0), BuildingBlock: CIFDUS_clean_linker_0, # of connection points: 2
#     Edge 34, Type (0, 0), BuildingBlock: CIFDUS_clean_linker_0, # of connection points: 2
#     Edge 35, Type (0, 0), BuildingBlock: CIFDUS_clean_linker_0, # of connection points: 2
#     Edge 36, Type (0, 0), BuildingBlock: CIFDUS_clean_linker_0, # of connection points: 2
#     Edge 37, Type (0, 0), BuildingBlock: CIFDUS_clean_linker_0, # of connection points: 2
#     Edge 38, Type (0, 0), BuildingBlock: CIFDUS_clean_linker_0, # of connection points: 2
#     Edge 39, Type (0, 0), BuildingBlock: CIFDUS_clean_linker_0, # of connection points: 2
#     Edge 40, Type (0, 0), BuildingBlock: CIFDUS_clean_linker_0, # of connection points: 2
#     Edge 41, Type (0, 0), BuildingBlock: CIFDUS_clean_linker_0, # of connection points: 2
# Relax obj value: 0.388
# Max RMSD: 0.283
# Mean RMSD: 0.283
data_MOF--net-fnz--node1-XOMCOT_clean_sbu_1--edge1-CIFDUS_clean_linker_0
_symmetry_space_group_name_H-M    P1
_symmetry_Int_Tables_number       1
_symmetry_cell_setting            triclinic
loop_
_symmetry_equiv_pos_as_xyz
'x, y, z'
_cell_length_a     40.864558
_cell_length_b     40.960285
_cell_length_c     23.562874
_cell_angle_alpha  90.086946
_cell_angle_beta   90.008838
_cell_angle_gamma 119.76838
loop_
_atom_site_label
_atom_site_type_symbol
_atom_site_fract_x
_atom_site_fract_y
_atom_site_fract_z
_atom_type_partial_charge
C0 C 0.48979 0.13283 0.91531 0.0
C1 C 0.50308 0.10784 0.91762 0.0
N2 N 0.49355 0.09014 0.96815 0.0
N3 N 0.47193 0.13132 0.96423 0.0
C4 C 0.47604 0.10603 0.99616 0.0
H5 H 0.48963 0.14784 0.87775 0.0
Co6 Co 0.43471 0.14608 0.97269 0.0
C7 C 0.47384 0.17802 0.0877 0.0
O8 O 0.47531 0.14858 0.10631 0.0
N9 N 0.39799 0.16014 0.98106 0.0
C10 C 0.34424 0.1608 0.99088 0.0
C11 C 0.36011 0.13885 0.97783 0.0
C12 C 0.40448 0.19479 0.99485 0.0
N13 N 0.37235 0.19597 1.00158 0.0
O14 O 0.4625 0.18842 0.92261 0.0
H15 H 0.34499 0.10922 0.96742 0.0
H16 H 0.43237 0.21869 1.00061 0.0
O17 O 0.45988 0.17723 0.03888 0.0
C18 C 0.44497 0.18153 0.87528 0.0
O19 O 0.41434 0.14869 0.86859 0.0
N20 N 0.40498 0.10314 1.01488 0.0
C21 C 0.35614 0.03148 0.05515 0.0
C22 C 0.36778 0.06288 0.09078 0.0
C23 C 0.3924 0.09894 0.06953 0.0
C24 C 0.39205 0.07306 0.97931 0.0
C25 C 0.36837 0.03705 0.99875 0.0
H26 H 0.40028 0.12323 0.09612 0.0
H27 H 0.40061 0.0773 0.93525 0.0
H28 H 0.46264 0.09628 0.03687 0.0
H29 H 0.51509 0.10048 0.8823 0.0
H30 H 0.31445 0.15171 0.99173 0.0
H31 H 0.35764 0.05959 0.13402 0.0
H32 H 0.35869 0.01378 0.96916 0.0
C33 C 0.35933 0.51544 0.07116 0.0
C34 C 0.39787 0.53052 0.07524 0.0
N35 N 0.40718 0.50649 0.05076 0.0
N36 N 0.34416 0.48189 0.04446 0.0
C37 C 0.37424 0.4777 0.0318 0.0
H38 H 0.34356 0.5282 0.08712 0.0
Co39 Co 0.29282 0.44729 1.02923 0.0
C40 C 0.27145 0.47522 0.13711 0.0
O41 O 0.27528 0.5064 0.11522 0.0
N42 N 0.24209 0.41308 1.01392 0.0
C43 C 0.18862 0.36558 0.98061 0.0
C44 C 0.22735 0.38344 0.97799 0.0
C45 C 0.21175 0.41335 0.03627 0.0
N46 N 0.17898 0.38452 1.0174 0.0
O47 O 0.28514 0.486 0.99634 0.0
H48 H 0.24343 0.37533 0.95092 0.0
H49 H 0.21341 0.43422 0.06596 0.0
O50 O 0.27826 0.45334 0.10671 0.0
C51 C 0.29602 0.48986 0.94455 0.0
O52 O 0.31723 0.47549 0.92961 0.0
N53 N 0.30013 0.40803 0.05323 0.0
C54 C 0.31543 0.34961 0.06764 0.0
C55 C 0.30697 0.36511 0.11474 0.0
C56 C 0.29977 0.39492 0.10667 0.0
C57 C 0.30772 0.39267 1.00739 0.0
C58 C 0.31553 0.36362 1.01356 0.0
H59 H 0.29456 0.40756 0.14323 0.0
H60 H 0.30878 0.40404 0.9656 0.0
H61 H 0.37229 0.4541 1.00856 0.0
H62 H 0.41731 0.55671 0.0959 0.0
H63 H 0.16907 0.34106 0.95647 0.0
H64 H 0.30682 0.3549 0.15717 0.0
H65 H 0.32169 0.35218 0.97617 0.0
C66 C 0.84972 0.35387 0.03583 0.0
C67 C 0.87716 0.39138 0.03726 0.0
N68 N 0.90806 0.39522 1.01056 0.0
N69 N 0.86335 0.33425 1.00836 0.0
C70 C 0.89854 0.36036 0.99245 0.0
H71 H 0.82241 0.34149 0.05608 0.0
Co72 Co 0.84266 0.28214 1.00214 0.0
C73 C 0.8167 0.252 0.11831 0.0
O74 O 0.83292 0.23161 0.10969 0.0
N75 N 0.82115 0.22938 0.99528 0.0
C76 C 0.80893 0.17 0.99179 0.0
C77 C 0.83594 0.20691 0.98376 0.0
C78 C 0.78455 0.205 1.0075 0.0
N79 N 0.77683 0.16906 1.00689 0.0
O80 O 0.79913 0.27761 0.96225 0.0
H81 H 0.86467 0.21587 0.97242 0.0
H82 H 0.76458 0.21359 1.02075 0.0
O83 O 0.81842 0.27475 0.07918 0.0
C84 C 0.80761 0.2848 0.90964 0.0
O85 O 0.84315 0.29889 0.89516 0.0
N86 N 0.88757 0.28764 0.03284 0.0
C87 C 0.96109 0.30387 0.05421 0.0
C88 C 0.94033 0.30953 0.09662 0.0
C89 C 0.90338 0.30153 0.08482 0.0
C90 C 0.90876 0.28491 0.9905 0.0
C91 C 0.94503 0.2917 1.00063 0.0
H92 H 0.88834 0.30808 0.11638 0.0
H93 H 0.89751 0.27822 0.94785 0.0
H94 H 0.91753 0.35371 0.96994 0.0
H95 H 0.87528 0.41361 0.05924 0.0
H96 H 0.81279 0.14575 0.98851 0.0
H97 H 0.95271 0.32052 0.1378 0.0
H98 H 0.96096 0.28875 0.96619 0.0
C99 C 0.48866 0.84606 0.03106 0.0
C100 C 0.47643 0.87153 1.02128 0.0
N101 N 0.50402 0.90172 0.99424 0.0
N102 N 0.52386 0.86014 1.01045 0.0
C103 C 0.53196 0.89349 0.98723 0.0
H104 H 0.47364 0.82003 0.05445 0.0
Co105 Co 0.55937 0.84446 1.0219 0.0
C106 C 0.54879 0.81773 0.14018 0.0
O107 O 0.58502 0.84087 0.1474 0.0
N108 N 0.59518 0.82834 0.03325 0.0
C109 C 0.64531 0.8222 0.05241 0.0
C110 C 0.63323 0.84705 0.03855 0.0
C111 C 0.58522 0.79198 0.04295 0.0
N112 N 0.61501 0.78762 0.05546 0.0
O113 O 0.53054 0.80081 0.97454 0.0
H114 H 0.65174 0.87687 0.03421 0.0
H115 H 0.55632 0.76919 0.04324 0.0
O116 O 0.53334 0.81634 0.09204 0.0
C117 C 0.5394 0.81059 0.9228 0.0
O118 O 0.56227 0.8464 0.91212 0.0
N119 N 0.5891 0.88978 0.06045 0.0
C120 C 0.63189 0.96561 0.08724 0.0
C121 C 0.60185 0.94157 0.12228 0.0
C122 C 0.57994 0.90352 0.10718 0.0
C123 C 0.61732 0.91355 1.0253 0.0
C124 C 0.63955 0.9513 0.03843 0.0
H125 H 0.55474 0.88579 0.13118 0.0
H126 H 0.62145 0.90326 0.98516 0.0
H127 H 0.55914 0.91265 0.96918 0.0
H128 H 0.44978 0.86845 0.03496 0.0
H129 H 0.67421 0.82904 0.05948 0.0
H130 H 0.59452 0.95236 0.15921 0.0
H131 H 0.66186 0.96951 1.00961 0.0
C132 C 0.64072 0.48067 0.06566 0.0
C133 C 0.60207 0.46527 0.06792 0.0
N134 N 0.59307 0.49003 0.0453 0.0
N135 N 0.65609 0.51501 0.04174 0.0
C136 C 0.62629 0.51958 1.02904 0.0
H137 H 0.65663 0.46812 0.08213 0.0
Co138 Co 0.70737 0.55108 0.03403 0.0
C139 C 0.74341 0.55308 0.14606 0.0
O140 O 0.763 0.58975 0.14 0.0
N141 N 0.75897 0.58705 1.02558 0.0
C142 C 0.81555 0.63868 1.024 0.0
C143 C 0.77735 0.62503 1.02096 0.0
C144 C 0.78692 0.57846 1.02892 0.0
N145 N 0.82135 0.60932 1.02937 0.0
O146 O 0.71559 0.51746 0.9842 0.0
H147 H 0.76455 0.64246 1.01802 0.0
H148 H 0.78202 0.5502 0.0352 0.0
O149 O 0.71946 0.53297 0.10728 0.0
C150 C 0.70535 0.52216 0.93471 0.0
O151 O 0.68869 0.54249 0.9313 0.0
N152 N 0.69762 0.58529 0.07265 0.0
C153 C 0.67097 0.6335 0.10322 0.0
C154 C 0.67444 0.61057 0.1442 0.0
C155 C 0.68694 0.58562 0.12759 0.0
C156 C 0.69367 0.60711 0.03279 0.0
C157 C 0.68083 0.63158 0.04712 0.0
H158 H 0.68635 0.56574 0.15814 0.0
H159 H 0.69967 0.60462 0.9888 0.0
H160 H 0.62891 0.54444 1.00892 0.0
H161 H 0.58237 0.4386 0.08695 0.0
H162 H 0.83738 0.66797 1.02368 0.0
H163 H 0.6662 0.61091 0.18778 0.0
H164 H 0.67829 0.6487 1.01429 0.0
C165 C 0.15074 0.63692 0.04909 0.0
C166 C 0.12441 0.59897 0.0484 0.0
N167 N 0.09522 0.59384 1.01552 0.0
N168 N 0.13805 0.65546 1.01672 0.0
C169 C 0.10481 0.62832 0.99579 0.0
H170 H 0.17598 0.65025 0.07483 0.0
Co171 Co 0.15367 0.70675 1.01186 0.0
C172 C 0.18282 0.73877 0.12708 0.0
O173 O 0.16333 0.7562 0.12123 0.0
N174 N 0.16934 0.75836 1.00589 0.0
C175 C 0.17388 0.81474 1.00142 0.0
C176 C 0.15026 0.77678 0.99457 0.0
C177 C 0.20491 0.78608 1.01678 0.0
N178 N 0.2081 0.82041 1.01608 0.0
O179 O 0.19676 0.71579 0.96462 0.0
H180 H 0.12094 0.76418 0.98327 0.0
H181 H 0.22754 0.78092 1.02859 0.0
O182 O 0.18209 0.71704 0.08671 0.0
C183 C 0.18327 0.70764 0.91405 0.0
O184 O 0.1467 0.69322 0.90799 0.0
N185 N 0.10861 0.69626 0.04827 0.0
C186 C 0.03316 0.66882 0.07548 0.0
C187 C 0.05838 0.66985 0.11675 0.0
C188 C 0.09609 0.68268 0.10167 0.0
C189 C 0.08382 0.69424 1.00791 0.0
C190 C 0.04625 0.68113 1.02063 0.0
H191 H 0.1144 0.67999 0.13199 0.0
H192 H 0.09308 0.70134 0.96444 0.0
H193 H 0.08672 0.63406 0.9692 0.0
H194 H 0.12533 0.5774 0.07371 0.0
H195 H 0.16635 0.83647 0.99652 0.0
H196 H 0.0487 0.65943 0.1592 0.0
H197 H 0.02738 0.68008 0.98744 0.0
C198 C 0.84724 0.48688 0.54477 0.0
C199 C 0.8698 0.47064 0.54527 0.0
N200 N 0.90444 0.49633 0.56384 0.0
N201 N 0.86742 0.52271 0.56297 0.0
C202 C 0.90198 0.52747 0.57488 0.0
H203 H 0.81832 0.4738 0.53032 0.0
Co204 Co 0.85225 0.55925 0.56463 0.0
C205 C 0.79672 0.52969 0.46559 0.0
O206 O 0.76699 0.51757 0.49843 0.0
N207 N 0.83726 0.59597 0.56446 0.0
C208 C 0.83108 0.64415 0.5347 0.0
C209 C 0.84654 0.62195 0.52307 0.0
C210 C 0.81509 0.60244 0.60017 0.0
N211 N 0.81131 0.63188 0.58306 0.0
O212 O 0.80694 0.52527 0.60775 0.0
H213 H 0.86286 0.62417 0.48569 0.0
H214 H 0.80149 0.58574 0.63736 0.0
O215 O 0.82956 0.54392 0.48806 0.0
C216 C 0.81934 0.52824 0.6588 0.0
O217 O 0.85589 0.5491 0.66683 0.0
N218 N 0.89841 0.59374 0.53281 0.0
C219 C 0.97197 0.64836 0.50669 0.0
C220 C 0.95048 0.61935 0.46786 0.0
C221 C 0.91342 0.59204 0.48186 0.0
C222 C 0.91919 0.62117 0.57115 0.0
C223 C 0.95576 0.64882 0.55886 0.0
H224 H 0.89732 0.56907 0.45287 0.0
H225 H 0.90726 0.62113 0.61215 0.0
H226 H 0.92518 0.55367 0.59025 0.0
H227 H 0.86165 0.44253 0.53076 0.0
H228 H 0.83265 0.66647 0.50821 0.0
H229 H 0.96228 0.61767 0.42754 0.0
H230 H 0.97163 0.66977 0.59094 0.0
C231 C 0.35782 0.84056 0.51084 0.0
C232 C 0.39639 0.86326 0.50633 0.0
N233 N 0.40576 0.89811 0.52439 0.0
N234 N 0.3429 0.86101 0.53147 0.0
C235 C 0.37285 0.89569 0.54006 0.0
H236 H 0.3418 0.81122 0.49922 0.0
Co237 Co 0.29251 0.84755 0.54469 0.0
C238 C 0.26902 0.78965 0.44407 0.0
O239 O 0.27192 0.76243 0.46862 0.0
N240 N 0.24266 0.83463 0.55885 0.0
C241 C 0.19222 0.82772 0.60498 0.0
C242 C 0.23063 0.84258 0.60747 0.0
C243 C 0.21101 0.81441 0.52775 0.0
N244 N 0.18 0.80992 0.55487 0.0
O245 O 0.28454 0.80479 0.59121 0.0
H246 H 0.24859 0.85752 0.64308 0.0
H247 H 0.21031 0.80272 0.48634 0.0
O248 O 0.27666 0.81939 0.47223 0.0
C249 C 0.29784 0.81809 0.64059 0.0
O250 O 0.31761 0.85486 0.64598 0.0
N251 N 0.30077 0.89133 0.50714 0.0
C252 C 0.32446 0.96439 0.46965 0.0
C253 C 0.32379 0.93721 0.43235 0.0
C254 C 0.31203 0.90072 0.4521 0.0
C255 C 0.30066 0.91721 0.54335 0.0
C256 C 0.31186 0.95358 0.52541 0.0
H257 H 0.31401 0.88087 0.42411 0.0
H258 H 0.29367 0.91021 0.58748 0.0
H259 H 0.37044 0.91886 0.55741 0.0
H260 H 0.41581 0.85492 0.48959 0.0
H261 H 0.17445 0.82858 0.63835 0.0
H262 H 0.3338 0.94448 0.38915 0.0
H263 H 0.3114 0.97332 0.55559 0.0
C264 C 0.52591 0.36701 0.46723 0.0
C265 C 0.53999 0.40399 0.4831 0.0
N266 N 0.51255 0.40701 0.51015 0.0
N267 N 0.48973 0.34677 0.48404 0.0
C268 C 0.48271 0.37178 0.51134 0.0
H269 H 0.54045 0.3559 0.44243 0.0
Co270 Co 0.45724 0.29652 0.46402 0.0
C271 C 0.47404 0.31443 0.33154 0.0
O272 O 0.47835 0.34559 0.30873 0.0
N273 N 0.42555 0.24661 0.44373 0.0
C274 C 0.38224 0.19465 0.40107 0.0
C275 C 0.39797 0.23308 0.4043 0.0
C276 C 0.42629 0.2161 0.46359 0.0
N277 N 0.40009 0.18391 0.43841 0.0
O278 O 0.44918 0.28288 0.54336 0.0
H279 H 0.38995 0.25011 0.37927 0.0
H280 H 0.44621 0.21773 0.49526 0.0
O281 O 0.46741 0.30957 0.38468 0.0
C282 C 0.47418 0.28448 0.57749 0.0
O283 O 0.50902 0.29827 0.55962 0.0
N284 N 0.41535 0.30538 0.46341 0.0
C285 C 0.35994 0.32624 0.47677 0.0
C286 C 0.38879 0.34406 0.43653 0.0
C287 C 0.41606 0.33318 0.43038 0.0
C288 C 0.38574 0.2857 0.49947 0.0
C289 C 0.35808 0.29591 0.5072 0.0
H290 H 0.43924 0.3491 0.40181 0.0
H291 H 0.38386 0.26261 0.52407 0.0
H292 H 0.45572 0.3647 0.52969 0.0
H293 H 0.56747 0.42724 0.4723 0.0
H294 H 0.35903 0.17613 0.37386 0.0
H295 H 0.39103 0.36703 0.41099 0.0
H296 H 0.3364 0.28106 0.53869 0.0
C297 C 0.15791 0.51023 0.52708 0.0
C298 C 0.13561 0.52678 0.52529 0.0
N299 N 0.10313 0.5045 0.55306 0.0
N300 N 0.13964 0.47755 0.55575 0.0
C301 C 0.10669 0.4752 0.57173 0.0
H302 H 0.18514 0.52078 0.50713 0.0
Co303 Co 0.15365 0.44057 0.56575 0.0
C304 C 0.17767 0.4319 0.44853 0.0
O305 O 0.15715 0.39522 0.45437 0.0
N306 N 0.16791 0.40329 0.57762 0.0
C307 C 0.17005 0.35338 0.61055 0.0
C308 C 0.15165 0.37367 0.61343 0.0
C309 C 0.19789 0.40149 0.55641 0.0
N310 N 0.19896 0.37063 0.5741 0.0
O311 O 0.19927 0.4759 0.60475 0.0
H312 H 0.12845 0.36715 0.64154 0.0
H313 H 0.21841 0.42215 0.5279 0.0
O314 O 0.17894 0.45336 0.48941 0.0
C315 C 0.19129 0.47785 0.65679 0.0
O316 O 0.15552 0.46113 0.67119 0.0
N317 N 0.10658 0.40497 0.53551 0.0
C318 C 0.02988 0.35564 0.51695 0.0
C319 C 0.05334 0.37697 0.47201 0.0
C320 C 0.09169 0.40237 0.48255 0.0
C321 C 0.08359 0.38544 0.5794 0.0
C322 C 0.04573 0.36003 0.57098 0.0
H323 H 0.10856 0.42104 0.44897 0.0
H324 H 0.09411 0.39178 0.6223 0.0
H325 H 0.08534 0.45199 0.59589 0.0
H326 H 0.14227 0.55246 0.50314 0.0
H327 H 0.16299 0.32812 0.63428 0.0
H328 H 0.04185 0.37533 0.43002 0.0
H329 H 0.02876 0.34474 0.60724 0.0
C330 C 0.6397 0.15436 0.49133 0.0
C331 C 0.6013 0.13087 0.48631 0.0
N332 N 0.59199 0.09793 0.51184 0.0
N333 N 0.65465 0.13631 0.51972 0.0
C334 C 0.62483 0.10226 0.5322 0.0
H335 H 0.65553 0.18265 0.47506 0.0
Co336 Co 0.70491 0.15252 0.53879 0.0
C337 C 0.73016 0.20437 0.4343 0.0
O338 O 0.72753 0.232 0.4581 0.0
N339 N 0.75457 0.16856 0.55954 0.0
C340 C 0.80252 0.18769 0.6196 0.0
C341 C 0.76438 0.16476 0.61274 0.0
C342 C 0.78732 0.19379 0.53464 0.0
N343 N 0.81681 0.20594 0.57048 0.0
O344 O 0.71117 0.19827 0.57222 0.0
H345 H 0.74461 0.14916 0.64612 0.0
H346 H 0.78932 0.20603 0.49332 0.0
O347 O 0.72185 0.17467 0.46284 0.0
C348 C 0.69928 0.1926 0.62354 0.0
O349 O 0.67612 0.15776 0.63909 0.0
N350 N 0.69894 0.10662 0.51285 0.0
C351 C 0.68225 0.033 0.49024 0.0
C352 C 0.68366 0.05668 0.44605 0.0
C353 C 0.69177 0.09348 0.45833 0.0
C354 C 0.69777 0.084 0.55599 0.0
C355 C 0.68993 0.04738 0.54564 0.0
H356 H 0.69072 0.11064 0.42443 0.0
H357 H 0.70151 0.09393 0.59923 0.0
H358 H 0.62721 0.08103 0.55611 0.0
H359 H 0.58193 0.13736 0.46447 0.0
H360 H 0.81813 0.19273 0.65884 0.0
H361 H 0.67725 0.04649 0.40277 0.0
H362 H 0.68947 0.03034 0.58107 0.0
C363 C 0.48429 0.63838 0.53391 0.0
C364 C 0.467 0.59965 0.53796 0.0
N365 N 0.49357 0.58959 0.53172 0.0
N366 N 0.52168 0.65276 0.52569 0.0
C367 C 0.52598 0.62208 0.5233 0.0
H368 H 0.47049 0.65503 0.53728 0.0
Co369 Co 0.55937 0.70376 0.51602 0.0
C370 C 0.52132 0.70434 0.42029 0.0
O371 O 0.53239 0.68082 0.40321 0.0
N372 N 0.59615 0.75364 0.50444 0.0
C373 C 0.64514 0.8053 0.47014 0.0
C374 C 0.62845 0.7668 0.47471 0.0
C375 C 0.59353 0.78446 0.51676 0.0
N376 N 0.62301 0.81635 0.49656 0.0
O377 O 0.5441 0.7186 0.58699 0.0
H378 H 0.63867 0.74956 0.45566 0.0
H379 H 0.56929 0.78324 0.53723 0.0
O380 O 0.5254 0.71377 0.4726 0.0
C381 C 0.52865 0.70288 0.63415 0.0
O382 O 0.51959 0.66776 0.6434 0.0
N383 N 0.59519 0.69509 0.55348 0.0
C384 C 0.64644 0.67388 0.59119 0.0
C385 C 0.63754 0.67192 0.53363 0.0
C386 C 0.61246 0.68342 0.51559 0.0
C387 C 0.60592 0.70016 0.60929 0.0
C388 C 0.63137 0.6892 0.62924 0.0
H389 H 0.60488 0.68098 0.47115 0.0
H390 H 0.59542 0.71275 0.63888 0.0
H391 H 0.55204 0.62289 0.5136 0.0
H392 H 0.43733 0.58056 0.54536 0.0
H393 H 0.6713 0.82359 0.44848 0.0
H394 H 0.64954 0.66109 0.50294 0.0
H395 H 0.63892 0.69234 0.67377 0.0
H396 H 0.53753 0.06393 0.92449 0.0
H397 H 0.4466 0.036 0.04274 0.0
H398 H 0.44201 0.97565 0.06102 0.0
H399 H 0.46258 0.92965 0.04251 0.0
H400 H 0.55059 0.95553 0.91979 0.0
H401 H 0.55711 0.01721 0.9043 0.0
C402 C 0.51664 0.04472 0.95421 0.0
C403 C 0.49277 0.05524 0.98224 0.0
C404 C 0.51335 0.00923 0.9637 0.0
C405 C 0.46612 0.02969 1.0211 0.0
C406 C 0.46308 0.99466 0.03126 0.0
C407 C 0.48288 0.94841 1.01179 0.0
C408 C 0.50606 0.93748 0.98261 0.0
C409 C 0.48631 0.98396 1.00249 0.0
C410 C 0.5326 0.96294 0.94364 0.0
C411 C 0.53632 -0.00164 0.9345 0.0
H412 H 0.57737 0.547 0.04733 0.0
H413 H 0.52528 0.42609 0.03999 0.0
H414 H 0.46291 0.42048 0.04043 0.0
H415 H 0.42307 0.44977 0.04478 0.0
H416 H 0.47507 0.5707 0.05108 0.0
H417 H 0.53746 0.57639 0.04911 0.0
C418 C 0.55245 0.51942 0.04499 0.0
C419 C 0.55622 0.48699 0.04346 0.0
C420 C 0.51656 0.51638 0.04536 0.0
C421 C 0.52337 0.45149 0.04172 0.0
C422 C 0.48763 0.44827 0.04174 0.0
C423 C 0.44796 0.47743 0.04493 0.0
C424 C 0.44413 0.50978 0.04795 0.0
C425 C 0.48386 0.4805 0.04379 0.0
C426 C 0.47698 0.5453 0.04933 0.0
C427 C 0.51275 0.54859 0.04794 0.0
H428 H 0.07898 0.5214 1.01557 0.0
H429 H 0.02812 0.59176 1.00916 0.0
H430 H 0.96555 0.53639 1.00582 0.0
H431 H 0.92474 0.4676 1.0063 0.0
H432 H 0.97518 0.3969 1.01341 0.0
H433 H 0.03798 0.45229 1.01467 0.0
C434 C 0.05416 0.52448 1.01339 0.0
C435 C 0.05838 0.56071 1.01202 0.0
C436 C 0.01802 0.49234 1.01153 0.0
C437 C 0.02588 0.5643 1.00903 0.0
C438 C 0.98996 0.53259 1.00758 0.0
C439 C 0.9495 0.46439 1.00816 0.0
C440 C 0.94515 0.42813 1.0094 0.0
C441 C 0.98564 0.49645 1.00894 0.0
C442 C 0.9776 0.42441 1.01137 0.0
C443 C 0.0136 0.45613 1.01254 0.0
H444 H 0.03019 0.45011 0.56749 0.0
H445 H 0.10168 0.56999 0.54776 0.0
H446 H 0.04651 0.57824 0.55032 0.0
H447 H 0.97767 0.55134 0.55572 0.0
H448 H 0.90643 0.4316 0.57742 0.0
H449 H 0.96172 0.42354 0.57683 0.0
C450 C 0.03392 0.47815 0.56464 0.0
C451 C 0.07038 0.50937 0.55741 0.0
C452 C 0.00195 0.48276 0.56628 0.0
C453 C 0.07416 0.54535 0.55267 0.0
C454 C 0.04253 0.55014 0.55441 0.0
C455 C 0.97417 0.52352 0.56119 0.0
C456 C 0.93763 0.49213 0.56651 0.0
C457 C 0.00624 0.51904 0.56087 0.0
C458 C 0.93395 0.45625 0.57252 0.0
C459 C 0.96566 0.45161 0.57244 0.0
H460 H 0.57601 0.02563 0.52157 0.0
H461 H 0.52427 0.09506 0.50876 0.0
H462 H 0.46184 0.03915 0.51166 0.0
H463 H 0.42186 0.9705 0.51661 0.0
H464 H 0.47343 0.90102 0.53123 0.0
H465 H 0.53592 0.95697 0.52889 0.0
C466 C 0.55115 0.02866 0.52014 0.0
C467 C 0.55506 0.06473 0.515 0.0
C468 C 0.51521 0.99629 0.52195 0.0
C469 C 0.52229 0.06779 0.51207 0.0
C470 C 0.4865 0.03578 0.51401 0.0
C471 C 0.44668 0.96751 0.52007 0.0
C472 C 0.44273 0.93138 0.52427 0.0
C473 C 0.4826 -0.00013 0.51882 0.0
C474 C 0.47547 0.92828 0.52742 0.0
C475 C 0.51128 0.96034 0.52635 0.0
H476 H 0.45504 0.42156 0.5013 0.0
H477 H 0.57175 0.47057 0.55026 0.0
H478 H 0.57541 0.5314 0.56516 0.0
H479 H 0.54654 0.57121 0.55927 0.0
H480 H 0.43073 0.52347 0.50567 0.0
H481 H 0.42529 0.46141 0.49921 0.0
C482 C 0.48105 0.44538 0.51626 0.0
C483 C 0.51316 0.44156 0.52468 0.0
C484 C 0.48311 0.48049 0.52372 0.0
C485 C 0.54682 0.4729 0.54313 0.0
C486 C 0.54888 0.50764 0.55166 0.0
C487 C 0.52011 0.54735 0.54574 0.0
C488 C 0.48924 0.55231 0.5321 0.0
C489 C 0.51743 0.51191 0.54102 0.0
C490 C 0.45493 0.52063 0.51651 0.0
C491 C 0.45187 0.48509 0.51249 0.0
H492 H 0.36156 0.96899 0.04181 0.0
H493 H 0.28784 0.00784 0.10503 0.0
H494 H 0.2348 0.94334 0.10401 0.0
H495 H 0.20789 0.87832 0.06937 0.0
H496 H 0.28109 0.84082 0.99931 0.0
H497 H 0.33599 0.90242 1.01837 0.0
C498 C 0.33402 0.96306 0.05676 0.0
C499 C 0.32829 0.99293 0.07269 0.0
C500 C 0.3035 0.9264 0.05328 0.0
C501 C 0.29282 0.98518 0.09275 0.0
C502 C 0.26243 0.94843 0.09128 0.0
C503 C 0.23589 0.8837 0.05839 0.0
C504 C 0.24048 0.85549 0.03176 0.0
C505 C 0.26713 0.91924 0.06883 0.0
C506 C 0.27694 0.86226 1.01946 0.0
C507 C 0.30826 0.89742 0.03029 0.0
H508 H 0.31701 0.19723 0.06223 0.0
H509 H 0.42114 0.26797 0.97393 0.0
H510 H 0.4152 0.32311 0.9944 0.0
H511 H 0.37765 0.35031 1.02947 0.0
H512 H 0.27265 0.28041 0.11567 0.0
H513 H 0.28187 0.22586 0.10509 0.0
C514 C 0.3383 0.22474 0.04751 0.0
C515 C 0.36924 0.22846 1.01607 0.0
C516 C 0.33462 0.2564 0.05932 0.0
C517 C 0.39714 0.26437 0.99834 0.0
C518 C 0.39371 0.29591 1.00986 0.0
C519 C 0.35716 0.32319 0.04677 0.0
C520 C 0.32445 0.31905 0.07289 0.0
C521 C 0.36227 0.29212 0.03935 0.0
C522 C 0.29814 0.28409 0.09567 0.0
C523 C 0.30322 0.25293 0.08904 0.0
H524 H 0.02266 0.37254 0.06817 0.0
H525 H 0.98675 0.2546 0.05448 0.0
H526 H 0.05226 0.26924 0.04478 0.0
H527 H 0.11887 0.31585 0.03002 0.0
H528 H 0.15516 0.434 0.04066 0.0
H529 H 0.0906 0.41932 0.06191 0.0
C530 C 0.02949 0.35017 0.06486 0.0
C531 C 0.00032 0.3126 0.06264 0.0
C532 C 0.06714 0.35892 0.05758 0.0
C533 C 0.00906 0.28367 0.05694 0.0
C534 C 0.04638 0.29206 0.05083 0.0
C535 C 0.11255 0.33829 0.0371 0.0
C536 C 0.1415 0.37588 0.03308 0.0
C537 C 0.07549 0.3296 0.04923 0.0
C538 C 0.13326 0.40483 0.04358 0.0
C539 C 0.09638 0.39644 0.0556 0.0
H540 H 0.77244 0.12356 0.09062 0.0
H541 H 0.70656 0.14324 0.9674 0.0
H542 H 0.65084 0.08272 0.99125 0.0
H543 H 0.62502 0.02031 0.03594 0.0
H544 H 0.69179 0.00044 0.15761 0.0
H545 H 0.74298 0.06551 0.14758 0.0
C546 C 0.7456 0.1146 0.0699 0.0
C547 C 0.74327 0.13684 1.02665 0.0
C548 C 0.71409 0.08007 0.08397 0.0
C549 C 0.70858 0.12597 1.00043 0.0
C550 C 0.67697 0.09153 1.01404 0.0
C551 C 0.6502 0.03093 0.06195 0.0
C552 C 0.65491 0.00617 0.09771 0.0
C553 C 0.67982 0.0678 0.0543 0.0
C554 C 0.68766 0.01948 0.13059 0.0
C555 C 0.71704 0.0564 0.12413 0.0
H556 H 0.66029 0.77914 0.12944 0.0
H557 H 0.56893 0.71884 1.01154 0.0
H558 H 0.57369 0.66212 1.02475 0.0
H559 H 0.61002 0.63301 0.05907 0.0
H560 H 0.70261 0.69362 0.17469 0.0
H561 H 0.69085 0.7468 0.17439 0.0
C562 C 0.64132 0.75346 0.10702 0.0
C563 C 0.61482 0.75326 0.06869 0.0
C564 C 0.64445 0.72114 0.11459 0.0
C565 C 0.58963 0.71963 0.04103 0.0
C566 C 0.59245 0.68729 0.04842 0.0
C567 C 0.62682 0.6575 0.08546 0.0
C568 C 0.6572 0.65977 0.11665 0.0
C569 C 0.62053 0.68814 0.08367 0.0
C570 C 0.67893 0.69137 0.15076 0.0
C571 C 0.67249 0.72187 0.14995 0.0
H572 H 0.87514 0.65549 0.10151 0.0
H573 H 0.84606 0.56603 0.9811 0.0
H574 H 0.90879 0.5726 0.99185 0.0
H575 H 0.97398 0.60918 1.02705 0.0
H576 H 0.00311 0.6986 0.14771 0.0
H577 H 0.9379 0.68623 0.14684 0.0
C578 C 0.88268 0.6374 0.078 0.0
C579 C 0.85671 0.61091 0.03965 0.0
C580 C 0.91851 0.64123 0.08485 0.0
C581 C 0.86599 0.58678 1.0104 0.0
C582 C 0.90172 0.59058 1.01655 0.0
C583 C 0.96562 0.62515 0.0543 0.0
C584 C 0.99295 0.65476 0.0873 0.0
C585 C 0.92848 0.61835 0.05255 0.0
C586 C 0.98225 0.67548 0.12245 0.0
C587 C 0.94518 0.66871 0.12134 0.0
H588 H 0.14875 0.74357 0.49957 0.0
H589 H 0.12454 0.82604 0.57155 0.0
H590 H 0.05729 0.78487 0.55339 0.0
H591 H 0.00531 0.72303 0.52742 0.0
H592 H 0.0284 0.63782 0.46351 0.0
H593 H 0.09618 0.6828 0.46583 0.0
C594 C 0.12873 0.75271 0.5101 0.0
C595 C 0.14136 0.78758 0.53727 0.0
C596 C 0.09 0.72839 0.50094 0.0
C597 C 0.11525 0.79909 0.55131 0.0
C598 C 0.07691 0.77563 0.54081 0.0
C599 C 0.02519 0.71442 0.51341 0.0
C600 C 0.01192 0.67704 0.49608 0.0
C601 C 0.06392 0.73981 0.51731 0.0
C602 C 0.03788 0.66647 0.47684 0.0
C603 C 0.07665 0.69207 0.4788 0.0
H604 H 0.3649 0.12315 0.36926 0.0
H605 H 0.41682 0.15852 0.53434 0.0
H606 H 0.40069 0.09419 0.55614 0.0
H607 H 0.36918 0.02751 0.53073 0.0
H608 H 0.31342 0.99089 0.36859 0.0
H609 H 0.33407 0.05619 0.34312 0.0
C610 C 0.3725 0.11688 0.41019 0.0
C611 C 0.39193 0.14595 0.45013 0.0
C612 C 0.36244 0.07953 0.42303 0.0
C613 C 0.40225 0.13709 0.50242 0.0
C614 C 0.39278 0.10015 0.51516 0.0
C615 C 0.36121 0.0337 0.48994 0.0
C616 C 0.33924 0.00419 0.45199 0.0
C617 C 0.37245 0.07111 0.47613 0.0
C618 C 0.33034 0.01297 0.3986 0.0
C619 C 0.34192 0.0503 0.38418 0.0
H620 H 0.27128 0.41213 0.5385 0.0
H621 H 0.18228 0.29819 0.56682 0.0
H622 H 0.22359 0.27435 0.53715 0.0
H623 H 0.28505 0.28553 0.50411 0.0
H624 H 0.3751 0.39935 0.47845 0.0
H625 H 0.33314 0.42333 0.50424 0.0
C626 C 0.26089 0.38211 0.53778 0.0
C627 C 0.22378 0.35708 0.55548 0.0
C628 C 0.28493 0.36845 0.52065 0.0
C629 C 0.21089 0.3182 0.55459 0.0
C630 C 0.23443 0.30447 0.53719 0.0
C631 C 0.29569 0.31561 0.50449 0.0
C632 C 0.33339 0.34049 0.48935 0.0
C633 C 0.27158 0.32931 0.52052 0.0
C634 C 0.34618 0.37938 0.48908 0.0
C635 C 0.32223 0.39321 0.50434 0.0
H636 H 0.97459 0.35049 0.58532 0.0
H637 H 0.99281 0.30319 0.4331 0.0
H638 H 0.92623 0.25371 0.43303 0.0
H639 H 0.86464 0.21974 0.48356 0.0
H640 H 0.85021 0.26504 0.64061 0.0
H641 H 0.91367 0.31912 0.63243 0.0
C642 C 0.96401 0.32936 0.55202 0.0
C643 C 0.98872 0.32997 0.50998 0.0
C644 C 0.92652 0.3003 0.55385 0.0
C645 C 0.97434 0.30323 0.46604 0.0
C646 C 0.93641 0.27475 0.46637 0.0
C647 C 0.87557 0.24173 0.5155 0.0
C648 C 0.85337 0.23839 0.56309 0.0
C649 C 0.91255 0.27231 0.51115 0.0
C650 C 0.86733 0.26688 0.60436 0.0
C651 C 0.90342 0.2978 0.59949 0.0
H652 H 0.63606 0.97194 0.55363 0.0
H653 H 0.70514 0.00455 0.40304 0.0
H654 H 0.6917 0.93972 0.39036 0.0
H655 H 0.66265 0.87444 0.42484 0.0
H656 H 0.59615 0.8433 0.57815 0.0
H657 H 0.60644 0.90698 0.58707 0.0
C658 C 0.64845 0.96498 0.51821 0.0
C659 C 0.672 0.99321 0.47977 0.0
C660 C 0.64116 0.92792 0.5118 0.0
C661 C 0.68684 0.98339 0.43317 0.0
C662 C 0.67937 0.94638 0.42614 0.0
C663 C 0.65065 0.88162 0.46043 0.0
C664 C 0.62877 0.854 0.50089 0.0
C665 C 0.65703 0.91853 0.4657 0.0
C666 C 0.61277 0.86374 0.54607 0.0
C667 C 0.61881 0.90026 0.55141 0.0
H668 H 0.72092 0.71544 0.61168 0.0
H669 H 0.6286 0.60158 0.608 0.0
H670 H 0.67268 0.57756 0.61637 0.0
H671 H 0.73798 0.58942 0.60833 0.0
H672 H 0.82987 0.70339 0.60284 0.0
H673 H 0.78604 0.72723 0.61574 0.0
C674 C 0.71062 0.68546 0.61461 0.0
C675 C 0.67188 0.66019 0.60979 0.0
C676 C 0.7362 0.672 0.6172 0.0
C677 C 0.65848 0.62135 0.61229 0.0
C678 C 0.68365 0.60769 0.61665 0.0
C679 C 0.74827 0.61936 0.61201 0.0
C680 C 0.78687 0.64475 0.60476 0.0
C681 C 0.72266 0.63275 0.6169 0.0
C682 C 0.80014 0.68355 0.6084 0.0
C683 C 0.77511 0.6971 0.61537 0.0
H684 H 0.48244 0.31667 0.21726 0.0
H685 H 0.47348 0.24924 0.3631 0.0
H686 H 0.47438 0.20172 0.30108 0.0
H687 H 0.47518 0.17818 0.20424 0.0
H688 H 0.48706 0.24797 0.05987 0.0
H689 H 0.48823 0.29589 0.12252 0.0
C690 C 0.48083 0.29169 0.23578 0.0
C691 C 0.47679 0.28617 0.29495 0.0
C692 C 0.48214 0.26492 0.19991 0.0
C693 C 0.47532 0.25376 0.31778 0.0
C694 C 0.47625 0.22671 0.28224 0.0
C695 C 0.47866 0.20414 0.18656 0.0
C696 C 0.4805 0.20914 0.12715 0.0
C697 C 0.47928 0.2318 0.22308 0.0
C698 C 0.48489 0.24298 0.10517 0.0
C699 C 0.48563 0.2705 0.14104 0.0
H700 H 0.26558 0.51731 0.22409 0.0
H701 H 0.2376 0.40406 0.17958 0.0
H702 H 0.20761 0.38157 0.27132 0.0
H703 H 0.18771 0.39301 0.36335 0.0
H704 H 0.21482 0.50546 0.41069 0.0
H705 H 0.24664 0.52912 0.31923 0.0
C706 C 0.25305 0.48774 0.23459 0.0
C707 C 0.2544 0.46259 0.1947 0.0
C708 C 0.2355 0.47472 0.28807 0.0
C709 C 0.23786 0.42434 0.20935 0.0
C710 C 0.22034 0.4113 0.26189 0.0
C711 C 0.20056 0.42278 0.35396 0.0
C712 C 0.19858 0.44732 0.39413 0.0
C713 C 0.21884 0.43613 0.30146 0.0
C714 C 0.21582 0.48583 0.38086 0.0
C715 C 0.23398 0.49936 0.32838 0.0
H716 H 0.79872 0.19755 0.19677 0.0
H717 H 0.79187 0.29775 0.1661 0.0
H718 H 0.76411 0.29192 0.26075 0.0
H719 H 0.74336 0.25879 0.35394 0.0
H720 H 0.75143 0.15875 0.38123 0.0
H721 H 0.77706 0.16424 0.28649 0.0
C722 C 0.79122 0.21827 0.21048 0.0
C723 C 0.79773 0.24826 0.17414 0.0
C724 C 0.77544 0.21475 0.26473 0.0
C725 C 0.78725 0.27439 0.19291 0.0
C726 C 0.77147 0.27109 0.24722 0.0
C727 C 0.75065 0.23815 0.33911 0.0
C728 C 0.74515 0.20823 0.37522 0.0
C729 C 0.76568 0.24149 0.28382 0.0
C730 C 0.75481 0.18182 0.35481 0.0
C731 C 0.76971 0.18501 0.30043 0.0
H732 H 0.54803 0.833 0.25139 0.0
H733 H 0.50681 0.74142 0.13178 0.0
H734 H 0.48981 0.69644 0.21004 0.0
H735 H 0.49622 0.68483 0.31153 0.0
H736 H 0.53566 0.7767 0.43092 0.0
H737 H 0.5431 0.81974 0.35412 0.0
C738 C 0.53414 0.80304 0.2427 0.0
C739 C 0.52859 0.79044 0.18605 0.0
C740 C 0.52457 0.77748 0.28792 0.0
C741 C 0.51085 0.75168 0.17507 0.0
C742 C 0.50155 0.72603 0.21984 0.0
C743 C 0.50542 0.71407 0.32092 0.0
C744 C 0.51579 0.72753 0.37693 0.0
C745 C 0.50962 0.73879 0.27632 0.0
C746 C 0.52745 0.76546 0.38841 0.0
C747 C 0.53201 0.79023 0.34433 0.0
H748 H 0.73302 0.49325 0.39776 0.0
H749 H 0.85198 0.57409 0.39086 0.0
H750 H 0.84632 0.58543 0.29103 0.0
H751 H 0.80718 0.57681 0.20721 0.0
H752 H 0.68864 0.49544 0.21031 0.0
H753 H 0.69458 0.47956 0.30907 0.0
C754 C 0.7578 0.51301 0.37425 0.0
C755 C 0.79298 0.53278 0.40261 0.0
C756 C 0.7544 0.51941 0.31584 0.0
C757 C 0.82465 0.55814 0.37085 0.0
C758 C 0.82141 0.56487 0.31346 0.0
C759 C 0.7827 0.55507 0.22912 0.0
C760 C 0.74747 0.53738 0.20121 0.0
C761 C 0.78639 0.54623 0.28578 0.0
C762 C 0.71614 0.50922 0.23034 0.0
C763 C 0.71953 0.50044 0.28713 0.0
H764 H 0.20148 0.79432 0.20405 0.0
H765 H 0.20981 0.69474 0.17516 0.0
H766 H 0.23763 0.70162 0.27017 0.0
H767 H 0.25725 0.73507 0.36381 0.0
H768 H 0.24773 0.83453 0.3889 0.0
H769 H 0.22272 0.82833 0.29356 0.0
C770 C 0.20943 0.77402 0.21816 0.0
C771 C 0.20322 0.74385 0.18217 0.0
C772 C 0.22513 0.77808 0.27271 0.0
C773 C 0.21427 0.71829 0.20153 0.0
C774 C 0.23001 0.72215 0.25614 0.0
C775 C 0.24981 0.75545 0.34837 0.0
C776 C 0.25461 0.78536 0.38427 0.0
C777 C 0.2352 0.75175 0.29253 0.0
C778 C 0.2448 0.81142 0.36288 0.0
C779 C 0.23029 0.80785 0.30808 0.0
H780 H 0.50951 0.68235 0.74543 0.0
H781 H 0.54365 0.77572 0.63041 0.0
H782 H 0.54671 0.81579 0.70898 0.0
H783 H 0.54408 0.82585 0.81068 0.0
H784 H 0.5114 0.7339 0.92765 0.0
H785 H 0.50271 0.69162 0.84794 0.0
C786 C 0.51726 0.71136 0.73738 0.0
C787 C 0.52676 0.72598 0.68172 0.0
C788 C 0.51923 0.73454 0.78321 0.0
C789 C 0.53659 0.76366 0.67247 0.0
C790 C 0.53831 0.78667 0.71754 0.0
C791 C 0.53468 0.79645 0.81892 0.0
C792 C 0.52859 0.78315 0.87526 0.0
C793 C 0.53037 0.77262 0.77312 0.0
C794 C 0.51612 0.74488 0.88482 0.0
C795 C 0.51142 0.72078 0.8392 0.0
H796 H 0.74734 0.51649 0.67864 0.0
H797 H 0.8386 0.50918 0.75773 0.0
H798 H 0.80978 0.50207 0.85061 0.0
H799 H 0.76331 0.50727 0.91193 0.0
H800 H 0.67146 0.51356 0.83275 0.0
H801 H 0.69525 0.51117 0.73912 0.0
C802 C 0.76023 0.51207 0.7159 0.0
C803 C 0.79534 0.51371 0.7108 0.0
C804 C 0.74361 0.5084 0.77014 0.0
C805 C 0.81172 0.50836 0.7601 0.0
C806 C 0.79532 0.50444 0.81362 0.0
C807 C 0.74787 0.50692 0.87428 0.0
C808 C 0.71578 0.511 0.87995 0.0
C809 C 0.76194 0.50581 0.81965 0.0
C810 C 0.69647 0.51083 0.83015 0.0
C811 C 0.71012 0.50957 0.77617 0.0
H812 H 0.23707 0.7471 0.66049 0.0
H813 H 0.33327 0.83871 0.74245 0.0
H814 H 0.30936 0.81085 0.83506 0.0
H815 H 0.25644 0.76493 0.89464 0.0
H816 H 0.16081 0.67285 0.81247 0.0
H817 H 0.1892 0.69578 0.71981 0.0
C818 C 0.25334 0.76037 0.69842 0.0
C819 C 0.28678 0.79528 0.69399 0.0
C820 C 0.23921 0.74426 0.75241 0.0
C821 C 0.30722 0.81204 0.74414 0.0
C822 C 0.29351 0.79617 0.79753 0.0
C823 C 0.24242 0.74926 0.85662 0.0
C824 C 0.20629 0.71735 0.86095 0.0
C825 C 0.25882 0.76292 0.80256 0.0
C826 C 0.18848 0.69771 0.81074 0.0
C827 C 0.20464 0.71089 0.75736 0.0
H828 H 0.4007 0.18693 0.79609 0.0
H829 H 0.51702 0.23655 0.84725 0.0
H830 H 0.53657 0.27465 0.76021 0.0
H831 H 0.52027 0.2898 0.66592 0.0
H832 H 0.4031 0.23984 0.61778 0.0
H833 H 0.38424 0.206 0.70743 0.0
C834 C 0.43038 0.20632 0.78847 0.0
C835 C 0.45745 0.20865 0.82765 0.0
C836 C 0.44121 0.22787 0.73868 0.0
C837 C 0.49568 0.23432 0.81772 0.0
C838 C 0.50681 0.25587 0.7678 0.0
C839 C 0.4906 0.27176 0.67528 0.0
C840 C 0.46318 0.26717 0.63471 0.0
C841 C 0.47981 0.25228 0.72738 0.0
C842 C 0.42485 0.24395 0.64791 0.0
C843 C 0.41399 0.22444 0.69921 0.0
H844 H 0.31745 0.50429 0.83411 0.0
H845 H 0.23183 0.4957 0.95017 0.0
H846 H 0.19405 0.49638 0.87 0.0
H847 H 0.18149 0.49035 0.76719 0.0
H848 H 0.26553 0.49526 0.65116 0.0
H849 H 0.30794 0.50549 0.73108 0.0
C850 C 0.29086 0.50336 0.84209 0.0
C851 C 0.27745 0.49969 0.89839 0.0
C852 C 0.26879 0.50262 0.79563 0.0
C853 C 0.24303 0.49874 0.90763 0.0
C854 C 0.22122 0.49874 0.86162 0.0
C855 C 0.20935 0.49429 0.75912 0.0
C856 C 0.2201 0.49164 0.70298 0.0
C857 C 0.23321 0.49928 0.80545 0.0
C858 C 0.25645 0.49718 0.69362 0.0
C859 C 0.28062 0.50277 0.73947 0.0
H860 H 0.81888 0.30438 0.79832 0.0
H861 H 0.73177 0.23329 0.91632 0.0
H862 H 0.6885 0.202 0.83696 0.0
H863 H 0.6784 0.18934 0.7341 0.0
H864 H 0.76691 0.25858 0.6166 0.0
H865 H 0.80641 0.29635 0.69563 0.0
C866 C 0.79019 0.28249 0.80691 0.0
C867 C 0.77875 0.27109 0.8635 0.0
C868 C 0.76579 0.26408 0.76095 0.0
C869 C 0.74137 0.24282 0.87351 0.0
C870 C 0.71671 0.2247 0.82798 0.0
C871 C 0.70602 0.21323 0.72556 0.0
C872 C 0.71958 0.22094 0.66914 0.0
C873 C 0.729 0.2343 0.7715 0.0
C874 C 0.75547 0.25208 0.65918 0.0
C875 C 0.77827 0.2735 0.70458 0.0
loop_
_geom_bond_atom_site_label_1
_geom_bond_atom_site_label_2
_geom_bond_distance
_geom_bond_site_symmetry_2
_ccdc_geom_bond_type
C0 C1 1.351 . S
C0 N3 1.368 . S
C0 H5 0.931 . S
C1 C0 1.351 . S
C1 N2 1.352 1_556 S
C1 H29 0.930 . S
N2 C1 1.352 1_554 S
N2 C4 1.349 . S
N3 C0 1.368 . S
N3 C4 1.321 1_556 S
N3 Co6 2.135 . S
C4 N2 1.349 . S
C4 N3 1.321 1_554 S
C4 H28 0.930 . S
H5 C0 0.931 . S
Co6 N3 2.135 . S
Co6 N9 2.121 1_556 S
Co6 O14 2.055 . S
Co6 O17 2.039 1_556 S
Co6 N20 2.140 1_556 S
C7 O8 1.227 . S
C7 O17 1.265 . S
O8 C7 1.227 . S
N9 Co6 2.121 1_554 S
N9 C11 1.375 . S
N9 C12 1.313 1_554 S
C10 C11 1.338 . S
C10 N13 1.377 1_554 S
C10 H30 0.930 . S
C11 N9 1.375 . S
C11 C10 1.338 . S
C11 H15 0.931 . S
C12 N9 1.313 1_556 S
C12 N13 1.344 . S
C12 H16 0.930 . S
N13 C10 1.377 1_556 S
N13 C12 1.344 . S
O14 Co6 2.055 . S
O14 C18 1.253 . S
H15 C11 0.931 . S
H16 C12 0.930 . S
O17 Co6 2.039 1_554 S
O17 C7 1.265 . S
C18 O14 1.253 . S
C18 O19 1.227 . S
O19 C18 1.227 . S
N20 Co6 2.140 1_554 S
N20 C23 1.346 . S
N20 C24 1.345 1_554 S
C21 C22 1.387 . S
C21 C25 1.391 1_554 S
C22 C21 1.387 . S
C22 C23 1.369 . S
C22 H31 0.929 . S
C23 N20 1.346 . S
C23 C22 1.369 . S
C23 H26 0.928 . S
C24 N20 1.345 1_556 S
C24 C25 1.371 . S
C24 H27 0.931 . S
C25 C21 1.391 1_556 S
C25 C24 1.371 . S
C25 H32 0.930 . S
H26 C23 0.928 . S
H27 C24 0.931 . S
H28 C4 0.930 . S
H29 C1 0.930 . S
H30 C10 0.930 . S
H31 C22 0.929 . S
H32 C25 0.930 . S
C33 C34 1.351 . S
C33 N36 1.368 . S
C33 H38 0.931 . S
C34 C33 1.351 . S
C34 N35 1.354 1_556 S
C34 H62 0.930 . S
N35 C34 1.354 1_554 S
N35 C37 1.348 . S
N36 C33 1.368 . S
N36 C37 1.321 1_556 S
N36 Co39 2.135 . S
C37 N35 1.348 . S
C37 N36 1.321 1_554 S
C37 H61 0.930 . S
H38 C33 0.931 . S
Co39 N36 2.135 . S
Co39 N42 2.121 1_556 S
Co39 O47 2.055 . S
Co39 O50 2.039 1_556 S
Co39 N53 2.140 1_556 S
C40 O41 1.227 . S
C40 O50 1.265 . S
O41 C40 1.227 . S
N42 Co39 2.121 1_554 S
N42 C44 1.375 . S
N42 C45 1.313 1_554 S
C43 C44 1.338 . S
C43 N46 1.377 1_554 S
C43 H63 0.930 . S
C44 N42 1.375 . S
C44 C43 1.338 . S
C44 H48 0.931 . S
C45 N42 1.313 1_556 S
C45 N46 1.344 . S
C45 H49 0.930 . S
N46 C43 1.377 1_556 S
N46 C45 1.344 . S
O47 Co39 2.055 . S
O47 C51 1.253 . S
H48 C44 0.931 . S
H49 C45 0.930 . S
O50 Co39 2.039 1_554 S
O50 C40 1.265 . S
C51 O47 1.253 . S
C51 O52 1.227 . S
O52 C51 1.227 . S
N53 Co39 2.140 1_554 S
N53 C56 1.346 . S
N53 C57 1.345 1_554 S
C54 C55 1.387 . S
C54 C58 1.391 1_554 S
C55 C54 1.387 . S
C55 C56 1.369 . S
C55 H64 0.929 . S
C56 N53 1.346 . S
C56 C55 1.369 . S
C56 H59 0.928 . S
C57 N53 1.345 1_556 S
C57 C58 1.371 . S
C57 H60 0.931 . S
C58 C54 1.391 1_556 S
C58 C57 1.371 . S
C58 H65 0.930 . S
H59 C56 0.928 . S
H60 C57 0.931 . S
H61 C37 0.930 . S
H62 C34 0.930 . S
H63 C43 0.930 . S
H64 C55 0.929 . S
H65 C58 0.930 . S
C66 C67 1.351 . S
C66 N69 1.368 . S
C66 H71 0.931 . S
C67 C66 1.351 . S
C67 N68 1.353 1_556 S
C67 H95 0.930 . S
N68 C67 1.353 1_554 S
N68 C70 1.349 . S
N69 C66 1.368 . S
N69 C70 1.321 1_556 S
N69 Co72 2.135 . S
C70 N68 1.349 . S
C70 N69 1.321 1_554 S
C70 H94 0.930 . S
H71 C66 0.931 . S
Co72 N69 2.135 . S
Co72 N75 2.121 1_556 S
Co72 O80 2.055 . S
Co72 O83 2.039 1_556 S
Co72 N86 2.140 1_556 S
C73 O74 1.227 . S
C73 O83 1.265 . S
O74 C73 1.227 . S
N75 Co72 2.121 1_554 S
N75 C77 1.375 . S
N75 C78 1.313 1_554 S
C76 C77 1.338 . S
C76 N79 1.377 1_554 S
C76 H96 0.930 . S
C77 N75 1.375 . S
C77 C76 1.338 . S
C77 H81 0.931 . S
C78 N75 1.313 1_556 S
C78 N79 1.344 . S
C78 H82 0.930 . S
N79 C76 1.377 1_556 S
N79 C78 1.344 . S
O80 Co72 2.055 . S
O80 C84 1.253 . S
H81 C77 0.931 . S
H82 C78 0.930 . S
O83 Co72 2.039 1_554 S
O83 C73 1.265 . S
C84 O80 1.253 . S
C84 O85 1.227 . S
O85 C84 1.227 . S
N86 Co72 2.140 1_554 S
N86 C89 1.346 . S
N86 C90 1.345 1_554 S
C87 C88 1.387 . S
C87 C91 1.391 1_554 S
C88 C87 1.387 . S
C88 C89 1.369 . S
C88 H97 0.929 . S
C89 N86 1.346 . S
C89 C88 1.369 . S
C89 H92 0.928 . S
C90 N86 1.345 1_556 S
C90 C91 1.371 . S
C90 H93 0.931 . S
C91 C87 1.391 1_556 S
C91 C90 1.371 . S
C91 H98 0.930 . S
H92 C89 0.928 . S
H93 C90 0.931 . S
H94 C70 0.930 . S
H95 C67 0.930 . S
H96 C76 0.930 . S
H97 C88 0.929 . S
H98 C91 0.930 . S
C99 C100 1.351 . S
C99 N102 1.368 . S
C99 H104 0.931 . S
C100 C99 1.351 . S
C100 N101 1.352 1_556 S
C100 H128 0.930 . S
N101 C100 1.352 1_554 S
N101 C103 1.349 . S
N102 C99 1.368 . S
N102 C103 1.321 1_556 S
N102 Co105 2.135 . S
C103 N101 1.349 . S
C103 N102 1.321 1_554 S
C103 H127 0.930 . S
H104 C99 0.931 . S
Co105 N102 2.135 . S
Co105 N108 2.121 1_556 S
Co105 O113 2.055 . S
Co105 O116 2.039 1_556 S
Co105 N119 2.140 1_556 S
C106 O107 1.227 . S
C106 O116 1.265 . S
O107 C106 1.227 . S
N108 Co105 2.121 1_554 S
N108 C110 1.375 . S
N108 C111 1.313 1_554 S
C109 C110 1.338 . S
C109 N112 1.377 1_554 S
C109 H129 0.930 . S
C110 N108 1.375 . S
C110 C109 1.338 . S
C110 H114 0.931 . S
C111 N108 1.313 1_556 S
C111 N112 1.344 . S
C111 H115 0.930 . S
N112 C109 1.377 1_556 S
N112 C111 1.344 . S
O113 Co105 2.055 . S
O113 C117 1.253 . S
H114 C110 0.931 . S
H115 C111 0.930 . S
O116 Co105 2.039 1_554 S
O116 C106 1.265 . S
C117 O113 1.253 . S
C117 O118 1.227 . S
O118 C117 1.227 . S
N119 Co105 2.140 1_554 S
N119 C122 1.346 . S
N119 C123 1.345 1_554 S
C120 C121 1.387 . S
C120 C124 1.391 1_554 S
C121 C120 1.387 . S
C121 C122 1.369 . S
C121 H130 0.929 . S
C122 N119 1.346 . S
C122 C121 1.369 . S
C122 H125 0.928 . S
C123 N119 1.345 1_556 S
C123 C124 1.371 . S
C123 H126 0.931 . S
C124 C120 1.391 1_556 S
C124 C123 1.371 . S
C124 H131 0.930 . S
H125 C122 0.928 . S
H126 C123 0.931 . S
H127 C103 0.930 . S
H128 C100 0.930 . S
H129 C109 0.930 . S
H130 C121 0.929 . S
H131 C124 0.930 . S
C132 C133 1.351 . S
C132 N135 1.368 . S
C132 H137 0.931 . S
C133 C132 1.351 . S
C133 N134 1.354 1_556 S
C133 H161 0.930 . S
N134 C133 1.354 1_554 S
N134 C136 1.348 . S
N135 C132 1.368 . S
N135 C136 1.321 1_556 S
N135 Co138 2.135 . S
C136 N134 1.348 . S
C136 N135 1.321 1_554 S
C136 H160 0.930 . S
H137 C132 0.931 . S
Co138 N135 2.135 . S
Co138 N141 2.121 1_556 S
Co138 O146 2.055 . S
Co138 O149 2.039 1_556 S
Co138 N152 2.140 1_556 S
C139 O140 1.227 . S
C139 O149 1.265 . S
O140 C139 1.227 . S
N141 Co138 2.121 1_554 S
N141 C143 1.375 . S
N141 C144 1.313 1_554 S
C142 C143 1.338 . S
C142 N145 1.377 1_554 S
C142 H162 0.930 . S
C143 N141 1.375 . S
C143 C142 1.338 . S
C143 H147 0.931 . S
C144 N141 1.313 1_556 S
C144 N145 1.344 . S
C144 H148 0.930 . S
N145 C142 1.377 1_556 S
N145 C144 1.344 . S
O146 Co138 2.055 . S
O146 C150 1.253 . S
H147 C143 0.931 . S
H148 C144 0.930 . S
O149 Co138 2.039 1_554 S
O149 C139 1.265 . S
C150 O146 1.253 . S
C150 O151 1.227 . S
O151 C150 1.227 . S
N152 Co138 2.140 1_554 S
N152 C155 1.346 . S
N152 C156 1.345 1_554 S
C153 C154 1.387 . S
C153 C157 1.391 1_554 S
C154 C153 1.387 . S
C154 C155 1.369 . S
C154 H163 0.929 . S
C155 N152 1.346 . S
C155 C154 1.369 . S
C155 H158 0.928 . S
C156 N152 1.345 1_556 S
C156 C157 1.371 . S
C156 H159 0.931 . S
C157 C153 1.391 1_556 S
C157 C156 1.371 . S
C157 H164 0.930 . S
H158 C155 0.928 . S
H159 C156 0.931 . S
H160 C136 0.930 . S
H161 C133 0.930 . S
H162 C142 0.930 . S
H163 C154 0.929 . S
H164 C157 0.930 . S
C165 C166 1.351 . S
C165 N168 1.368 . S
C165 H170 0.931 . S
C166 C165 1.351 . S
C166 N167 1.353 1_556 S
C166 H194 0.930 . S
N167 C166 1.353 1_554 S
N167 C169 1.349 . S
N168 C165 1.368 . S
N168 C169 1.321 1_556 S
N168 Co171 2.135 . S
C169 N167 1.349 . S
C169 N168 1.321 1_554 S
C169 H193 0.930 . S
H170 C165 0.931 . S
Co171 N168 2.135 . S
Co171 N174 2.121 1_556 S
Co171 O179 2.055 . S
Co171 O182 2.039 1_556 S
Co171 N185 2.140 1_556 S
C172 O173 1.227 . S
C172 O182 1.265 . S
O173 C172 1.227 . S
N174 Co171 2.121 1_554 S
N174 C176 1.375 . S
N174 C177 1.313 1_554 S
C175 C176 1.338 . S
C175 N178 1.377 1_554 S
C175 H195 0.930 . S
C176 N174 1.375 . S
C176 C175 1.338 . S
C176 H180 0.931 . S
C177 N174 1.313 1_556 S
C177 N178 1.344 . S
C177 H181 0.930 . S
N178 C175 1.377 1_556 S
N178 C177 1.344 . S
O179 Co171 2.055 . S
O179 C183 1.253 . S
H180 C176 0.931 . S
H181 C177 0.930 . S
O182 Co171 2.039 1_554 S
O182 C172 1.265 . S
C183 O179 1.253 . S
C183 O184 1.227 . S
O184 C183 1.227 . S
N185 Co171 2.140 1_554 S
N185 C188 1.346 . S
N185 C189 1.345 1_554 S
C186 C187 1.387 . S
C186 C190 1.391 1_554 S
C187 C186 1.387 . S
C187 C188 1.369 . S
C187 H196 0.929 . S
C188 N185 1.346 . S
C188 C187 1.369 . S
C188 H191 0.928 . S
C189 N185 1.345 1_556 S
C189 C190 1.371 . S
C189 H192 0.931 . S
C190 C186 1.391 1_556 S
C190 C189 1.371 . S
C190 H197 0.930 . S
H191 C188 0.928 . S
H192 C189 0.931 . S
H193 C169 0.930 . S
H194 C166 0.930 . S
H195 C175 0.930 . S
H196 C187 0.929 . S
H197 C190 0.930 . S
C198 C199 1.351 . S
C198 N201 1.368 . S
C198 H203 0.931 . S
C199 C198 1.351 . S
C199 N200 1.373 . S
C199 H227 0.930 . S
N200 C199 1.373 . S
N200 C202 1.340 . S
N201 C198 1.368 . S
N201 C202 1.321 . S
N201 Co204 2.135 . S
C202 N200 1.340 . S
C202 N201 1.321 . S
C202 H226 0.930 . S
H203 C198 0.931 . S
Co204 N201 2.135 . S
Co204 N207 2.121 . S
Co204 O212 2.055 . S
Co204 O215 2.039 . S
Co204 N218 2.140 . S
C205 O206 1.227 . S
C205 O215 1.265 . S
O206 C205 1.227 . S
N207 Co204 2.121 . S
N207 C209 1.375 . S
N207 C210 1.313 . S
C208 C209 1.338 . S
C208 N211 1.377 . S
C208 H228 0.930 . S
C209 N207 1.375 . S
C209 C208 1.338 . S
C209 H213 0.931 . S
C210 N207 1.313 . S
C210 N211 1.344 . S
C210 H214 0.930 . S
N211 C208 1.377 . S
N211 C210 1.344 . S
O212 Co204 2.055 . S
O212 C216 1.253 . S
H213 C209 0.931 . S
H214 C210 0.930 . S
O215 Co204 2.039 . S
O215 C205 1.265 . S
C216 O212 1.253 . S
C216 O217 1.227 . S
O217 C216 1.227 . S
N218 Co204 2.140 . S
N218 C221 1.346 . S
N218 C222 1.345 . S
C219 C220 1.387 . S
C219 C223 1.391 . S
C220 C219 1.387 . S
C220 C221 1.369 . S
C220 H229 0.929 . S
C221 N218 1.346 . S
C221 C220 1.369 . S
C221 H224 0.928 . S
C222 N218 1.345 . S
C222 C223 1.371 . S
C222 H225 0.931 . S
C223 C219 1.391 . S
C223 C222 1.371 . S
C223 H230 0.930 . S
H224 C221 0.928 . S
H225 C222 0.931 . S
H226 C202 0.930 . S
H227 C199 0.930 . S
H228 C208 0.930 . S
H229 C220 0.929 . S
H230 C223 0.930 . S
C231 C232 1.351 . S
C231 N234 1.368 . S
C231 H236 0.931 . S
C232 C231 1.351 . S
C232 N233 1.373 . S
C232 H260 0.930 . S
N233 C232 1.373 . S
N233 C235 1.340 . S
N234 C231 1.368 . S
N234 C235 1.321 . S
N234 Co237 2.135 . S
C235 N233 1.340 . S
C235 N234 1.321 . S
C235 H259 0.930 . S
H236 C231 0.931 . S
Co237 N234 2.135 . S
Co237 N240 2.121 . S
Co237 O245 2.055 . S
Co237 O248 2.039 . S
Co237 N251 2.140 . S
C238 O239 1.227 . S
C238 O248 1.265 . S
O239 C238 1.227 . S
N240 Co237 2.121 . S
N240 C242 1.375 . S
N240 C243 1.313 . S
C241 C242 1.338 . S
C241 N244 1.377 . S
C241 H261 0.930 . S
C242 N240 1.375 . S
C242 C241 1.338 . S
C242 H246 0.931 . S
C243 N240 1.313 . S
C243 N244 1.344 . S
C243 H247 0.930 . S
N244 C241 1.377 . S
N244 C243 1.344 . S
O245 Co237 2.055 . S
O245 C249 1.253 . S
H246 C242 0.931 . S
H247 C243 0.930 . S
O248 Co237 2.039 . S
O248 C238 1.265 . S
C249 O245 1.253 . S
C249 O250 1.227 . S
O250 C249 1.227 . S
N251 Co237 2.140 . S
N251 C254 1.346 . S
N251 C255 1.345 . S
C252 C253 1.387 . S
C252 C256 1.391 . S
C253 C252 1.387 . S
C253 C254 1.369 . S
C253 H262 0.929 . S
C254 N251 1.346 . S
C254 C253 1.369 . S
C254 H257 0.928 . S
C255 N251 1.345 . S
C255 C256 1.371 . S
C255 H258 0.931 . S
C256 C252 1.391 . S
C256 C255 1.371 . S
C256 H263 0.930 . S
H257 C254 0.928 . S
H258 C255 0.931 . S
H259 C235 0.930 . S
H260 C232 0.930 . S
H261 C241 0.930 . S
H262 C253 0.929 . S
H263 C256 0.930 . S
C264 C265 1.351 . S
C264 N267 1.368 . S
C264 H269 0.931 . S
C265 C264 1.351 . S
C265 N266 1.373 . S
C265 H293 0.930 . S
N266 C265 1.373 . S
N266 C268 1.340 . S
N267 C264 1.368 . S
N267 C268 1.321 . S
N267 Co270 2.135 . S
C268 N266 1.340 . S
C268 N267 1.321 . S
C268 H292 0.930 . S
H269 C264 0.931 . S
Co270 N267 2.135 . S
Co270 N273 2.121 . S
Co270 O278 2.055 . S
Co270 O281 2.039 . S
Co270 N284 2.140 . S
C271 O272 1.227 . S
C271 O281 1.265 . S
O272 C271 1.227 . S
N273 Co270 2.121 . S
N273 C275 1.375 . S
N273 C276 1.313 . S
C274 C275 1.338 . S
C274 N277 1.377 . S
C274 H294 0.930 . S
C275 N273 1.375 . S
C275 C274 1.338 . S
C275 H279 0.931 . S
C276 N273 1.313 . S
C276 N277 1.344 . S
C276 H280 0.930 . S
N277 C274 1.377 . S
N277 C276 1.344 . S
O278 Co270 2.055 . S
O278 C282 1.253 . S
H279 C275 0.931 . S
H280 C276 0.930 . S
O281 Co270 2.039 . S
O281 C271 1.265 . S
C282 O278 1.253 . S
C282 O283 1.227 . S
O283 C282 1.227 . S
N284 Co270 2.140 . S
N284 C287 1.346 . S
N284 C288 1.345 . S
C285 C286 1.387 . S
C285 C289 1.391 . S
C286 C285 1.387 . S
C286 C287 1.369 . S
C286 H295 0.929 . S
C287 N284 1.346 . S
C287 C286 1.369 . S
C287 H290 0.928 . S
C288 N284 1.345 . S
C288 C289 1.371 . S
C288 H291 0.931 . S
C289 C285 1.391 . S
C289 C288 1.371 . S
C289 H296 0.930 . S
H290 C287 0.928 . S
H291 C288 0.931 . S
H292 C268 0.930 . S
H293 C265 0.930 . S
H294 C274 0.930 . S
H295 C286 0.929 . S
H296 C289 0.930 . S
C297 C298 1.351 . S
C297 N300 1.368 . S
C297 H302 0.931 . S
C298 C297 1.351 . S
C298 N299 1.373 . S
C298 H326 0.930 . S
N299 C298 1.373 . S
N299 C301 1.340 . S
N300 C297 1.368 . S
N300 C301 1.321 . S
N300 Co303 2.135 . S
C301 N299 1.340 . S
C301 N300 1.321 . S
C301 H325 0.930 . S
H302 C297 0.931 . S
Co303 N300 2.135 . S
Co303 N306 2.121 . S
Co303 O311 2.055 . S
Co303 O314 2.039 . S
Co303 N317 2.140 . S
C304 O305 1.227 . S
C304 O314 1.265 . S
O305 C304 1.227 . S
N306 Co303 2.121 . S
N306 C308 1.375 . S
N306 C309 1.313 . S
C307 C308 1.338 . S
C307 N310 1.377 . S
C307 H327 0.930 . S
C308 N306 1.375 . S
C308 C307 1.338 . S
C308 H312 0.931 . S
C309 N306 1.313 . S
C309 N310 1.344 . S
C309 H313 0.930 . S
N310 C307 1.377 . S
N310 C309 1.344 . S
O311 Co303 2.055 . S
O311 C315 1.253 . S
H312 C308 0.931 . S
H313 C309 0.930 . S
O314 Co303 2.039 . S
O314 C304 1.265 . S
C315 O311 1.253 . S
C315 O316 1.227 . S
O316 C315 1.227 . S
N317 Co303 2.140 . S
N317 C320 1.346 . S
N317 C321 1.345 . S
C318 C319 1.387 . S
C318 C322 1.391 . S
C319 C318 1.387 . S
C319 C320 1.369 . S
C319 H328 0.929 . S
C320 N317 1.346 . S
C320 C319 1.369 . S
C320 H323 0.928 . S
C321 N317 1.345 . S
C321 C322 1.371 . S
C321 H324 0.931 . S
C322 C318 1.391 . S
C322 C321 1.371 . S
C322 H329 0.930 . S
H323 C320 0.928 . S
H324 C321 0.931 . S
H325 C301 0.930 . S
H326 C298 0.930 . S
H327 C307 0.930 . S
H328 C319 0.929 . S
H329 C322 0.930 . S
C330 C331 1.351 . S
C330 N333 1.368 . S
C330 H335 0.931 . S
C331 C330 1.351 . S
C331 N332 1.373 . S
C331 H359 0.930 . S
N332 C331 1.373 . S
N332 C334 1.340 . S
N333 C330 1.368 . S
N333 C334 1.321 . S
N333 Co336 2.135 . S
C334 N332 1.340 . S
C334 N333 1.321 . S
C334 H358 0.930 . S
H335 C330 0.931 . S
Co336 N333 2.135 . S
Co336 N339 2.121 . S
Co336 O344 2.055 . S
Co336 O347 2.039 . S
Co336 N350 2.140 . S
C337 O338 1.227 . S
C337 O347 1.265 . S
O338 C337 1.227 . S
N339 Co336 2.121 . S
N339 C341 1.375 . S
N339 C342 1.313 . S
C340 C341 1.338 . S
C340 N343 1.377 . S
C340 H360 0.930 . S
C341 N339 1.375 . S
C341 C340 1.338 . S
C341 H345 0.931 . S
C342 N339 1.313 . S
C342 N343 1.344 . S
C342 H346 0.930 . S
N343 C340 1.377 . S
N343 C342 1.344 . S
O344 Co336 2.055 . S
O344 C348 1.253 . S
H345 C341 0.931 . S
H346 C342 0.930 . S
O347 Co336 2.039 . S
O347 C337 1.265 . S
C348 O344 1.253 . S
C348 O349 1.227 . S
O349 C348 1.227 . S
N350 Co336 2.140 . S
N350 C353 1.346 . S
N350 C354 1.345 . S
C351 C352 1.387 . S
C351 C355 1.391 . S
C352 C351 1.387 . S
C352 C353 1.369 . S
C352 H361 0.929 . S
C353 N350 1.346 . S
C353 C352 1.369 . S
C353 H356 0.928 . S
C354 N350 1.345 . S
C354 C355 1.371 . S
C354 H357 0.931 . S
C355 C351 1.391 . S
C355 C354 1.371 . S
C355 H362 0.930 . S
H356 C353 0.928 . S
H357 C354 0.931 . S
H358 C334 0.930 . S
H359 C331 0.930 . S
H360 C340 0.930 . S
H361 C352 0.929 . S
H362 C355 0.930 . S
C363 C364 1.351 . S
C363 N366 1.368 . S
C363 H368 0.931 . S
C364 C363 1.351 . S
C364 N365 1.373 . S
C364 H392 0.930 . S
N365 C364 1.373 . S
N365 C367 1.340 . S
N366 C363 1.368 . S
N366 C367 1.321 . S
N366 Co369 2.135 . S
C367 N365 1.340 . S
C367 N366 1.321 . S
C367 H391 0.930 . S
H368 C363 0.931 . S
Co369 N366 2.135 . S
Co369 N372 2.121 . S
Co369 O377 2.055 . S
Co369 O380 2.039 . S
Co369 N383 2.140 . S
C370 O371 1.227 . S
C370 O380 1.265 . S
O371 C370 1.227 . S
N372 Co369 2.121 . S
N372 C374 1.375 . S
N372 C375 1.313 . S
C373 C374 1.338 . S
C373 N376 1.377 . S
C373 H393 0.930 . S
C374 N372 1.375 . S
C374 C373 1.338 . S
C374 H378 0.931 . S
C375 N372 1.313 . S
C375 N376 1.344 . S
C375 H379 0.930 . S
N376 C373 1.377 . S
N376 C375 1.344 . S
O377 Co369 2.055 . S
O377 C381 1.253 . S
H378 C374 0.931 . S
H379 C375 0.930 . S
O380 Co369 2.039 . S
O380 C370 1.265 . S
C381 O377 1.253 . S
C381 O382 1.227 . S
O382 C381 1.227 . S
N383 Co369 2.140 . S
N383 C386 1.346 . S
N383 C387 1.345 . S
C384 C385 1.387 . S
C384 C388 1.391 . S
C385 C384 1.387 . S
C385 C386 1.369 . S
C385 H394 0.929 . S
C386 N383 1.346 . S
C386 C385 1.369 . S
C386 H389 0.928 . S
C387 N383 1.345 . S
C387 C388 1.371 . S
C387 H390 0.931 . S
C388 C384 1.391 . S
C388 C387 1.371 . S
C388 H395 0.930 . S
H389 C386 0.928 . S
H390 C387 0.931 . S
H391 C367 0.930 . S
H392 C364 0.930 . S
H393 C373 0.930 . S
H394 C385 0.929 . S
H395 C388 0.930 . S
H396 C402 0.930 . S
H397 C405 0.930 . S
H398 C406 0.930 1_556 S
H399 C407 0.930 . S
H400 C410 0.930 . S
H401 C411 0.930 . S
C402 H396 0.930 . S
C402 C403 1.355 . S
C402 C404 1.415 . S
C403 C402 1.355 . S
C403 C405 1.419 . S
C404 C402 1.415 . S
C404 C409 1.425 1_545 S
C404 C411 1.409 . S
C405 H397 0.930 . S
C405 C403 1.419 . S
C405 C406 1.362 1_545 S
C406 H398 0.930 1_554 S
C406 C405 1.362 1_565 S
C406 C409 1.409 . S
C407 H399 0.930 . S
C407 C408 1.355 . S
C407 C409 1.415 . S
C408 C407 1.355 . S
C408 C410 1.419 . S
C409 C404 1.425 1_565 S
C409 C406 1.409 . S
C409 C407 1.415 . S
C410 H400 0.930 . S
C410 C408 1.419 . S
C410 C411 1.362 1_565 S
C411 H401 0.930 . S
C411 C404 1.409 . S
C411 C410 1.362 1_545 S
H412 C418 0.930 . S
H413 C421 0.930 . S
H414 C422 0.930 . S
H415 C423 0.930 . S
H416 C426 0.930 . S
H417 C427 0.930 . S
C418 H412 0.930 . S
C418 C419 1.355 1_556 S
C418 C420 1.415 . S
C419 C418 1.355 1_554 S
C419 C421 1.419 . S
C420 C418 1.415 . S
C420 C425 1.425 1_556 S
C420 C427 1.409 . S
C421 H413 0.930 . S
C421 C419 1.419 . S
C421 C422 1.362 . S
C422 H414 0.930 . S
C422 C421 1.362 . S
C422 C425 1.409 . S
C423 H415 0.930 . S
C423 C424 1.355 . S
C423 C425 1.415 . S
C424 C423 1.355 . S
C424 C426 1.419 1_554 S
C425 C420 1.425 1_554 S
C425 C422 1.409 . S
C425 C423 1.415 . S
C426 H416 0.930 . S
C426 C424 1.419 1_556 S
C426 C427 1.362 . S
C427 H417 0.930 . S
C427 C420 1.409 . S
C427 C426 1.362 . S
H428 C434 0.930 . S
H429 C437 0.930 . S
H430 C438 0.930 . S
H431 C439 0.930 . S
H432 C442 0.930 . S
H433 C443 0.930 . S
C434 H428 0.930 . S
C434 C435 1.355 1_556 S
C434 C436 1.415 . S
C435 C434 1.355 1_554 S
C435 C437 1.419 . S
C436 C434 1.415 . S
C436 C441 1.424 1_456 S
C436 C443 1.410 . S
C437 H429 0.930 . S
C437 C435 1.419 . S
C437 C438 1.362 1_455 S
C438 H430 0.930 . S
C438 C437 1.362 1_655 S
C438 C441 1.409 . S
C439 H431 0.930 . S
C439 C440 1.355 . S
C439 C441 1.415 . S
C440 C439 1.355 . S
C440 C442 1.419 1_554 S
C441 C436 1.424 1_654 S
C441 C438 1.409 . S
C441 C439 1.415 . S
C442 H432 0.930 . S
C442 C440 1.419 1_556 S
C442 C443 1.362 1_655 S
C443 H433 0.930 . S
C443 C436 1.410 . S
C443 C442 1.362 1_455 S
H444 C450 0.930 . S
H445 C453 0.930 . S
H446 C454 0.930 . S
H447 C455 0.930 . S
H448 C458 0.930 . S
H449 C459 0.930 . S
C450 H444 0.930 . S
C450 C451 1.355 . S
C450 C452 1.415 1_455 S
C451 C450 1.355 . S
C451 C453 1.419 . S
C452 C450 1.415 1_655 S
C452 C457 1.425 1_655 S
C452 C459 1.409 . S
C453 H445 0.930 . S
C453 C451 1.419 . S
C453 C454 1.362 . S
C454 H446 0.930 . S
C454 C453 1.362 . S
C454 C457 1.409 . S
C455 H447 0.930 . S
C455 C456 1.355 . S
C455 C457 1.415 1_655 S
C456 C455 1.355 . S
C456 C458 1.419 . S
C457 C452 1.425 1_455 S
C457 C454 1.409 . S
C457 C455 1.415 1_455 S
C458 H448 0.930 . S
C458 C456 1.419 . S
C458 C459 1.362 . S
C459 H449 0.930 . S
C459 C452 1.409 . S
C459 C458 1.362 . S
H460 C466 0.930 . S
H461 C469 0.930 . S
H462 C470 0.930 . S
H463 C471 0.930 . S
H464 C474 0.930 . S
H465 C475 0.930 . S
C466 H460 0.930 . S
C466 C467 1.355 . S
C466 C468 1.415 1_545 S
C467 C466 1.355 . S
C467 C469 1.419 . S
C468 C466 1.415 1_565 S
C468 C473 1.425 1_565 S
C468 C475 1.409 . S
C469 H461 0.930 . S
C469 C467 1.419 . S
C469 C470 1.362 . S
C470 H462 0.930 . S
C470 C469 1.362 . S
C470 C473 1.409 . S
C471 H463 0.930 . S
C471 C472 1.355 . S
C471 C473 1.415 1_565 S
C472 C471 1.355 . S
C472 C474 1.419 . S
C473 C468 1.425 1_545 S
C473 C470 1.409 . S
C473 C471 1.415 1_545 S
C474 H464 0.930 . S
C474 C472 1.419 . S
C474 C475 1.362 . S
C475 H465 0.930 . S
C475 C468 1.409 . S
C475 C474 1.362 . S
H476 C482 0.930 . S
H477 C485 0.930 . S
H478 C486 0.930 . S
H479 C487 0.930 . S
H480 C490 0.930 . S
H481 C491 0.930 . S
C482 H476 0.930 . S
C482 C483 1.355 . S
C482 C484 1.415 . S
C483 C482 1.355 . S
C483 C485 1.419 . S
C484 C482 1.415 . S
C484 C489 1.425 . S
C484 C491 1.409 . S
C485 H477 0.930 . S
C485 C483 1.419 . S
C485 C486 1.362 . S
C486 H478 0.930 . S
C486 C485 1.362 . S
C486 C489 1.409 . S
C487 H479 0.930 . S
C487 C488 1.355 . S
C487 C489 1.415 . S
C488 C487 1.355 . S
C488 C490 1.419 . S
C489 C484 1.425 . S
C489 C486 1.409 . S
C489 C487 1.415 . S
C490 H480 0.930 . S
C490 C488 1.419 . S
C490 C491 1.362 . S
C491 H481 0.930 . S
C491 C484 1.409 . S
C491 C490 1.362 . S
H492 C498 0.930 . S
H493 C501 0.930 . S
H494 C502 0.930 . S
H495 C503 0.930 . S
H496 C506 0.930 . S
H497 C507 0.930 . S
C498 H492 0.930 . S
C498 C499 1.355 1_565 S
C498 C500 1.415 . S
C499 C498 1.355 1_545 S
C499 C501 1.419 1_554 S
C500 C498 1.415 . S
C500 C505 1.425 1_554 S
C500 C507 1.409 . S
C501 H493 0.930 . S
C501 C499 1.419 1_556 S
C501 C502 1.362 1_545 S
C502 H494 0.930 . S
C502 C501 1.362 1_565 S
C502 C505 1.409 . S
C503 H495 0.930 . S
C503 C504 1.355 . S
C503 C505 1.415 . S
C504 C503 1.355 . S
C504 C506 1.419 1_556 S
C505 C500 1.425 1_556 S
C505 C502 1.409 . S
C505 C503 1.415 . S
C506 H496 0.930 . S
C506 C504 1.419 1_554 S
C506 C507 1.362 . S
C507 H497 0.930 . S
C507 C500 1.409 . S
C507 C506 1.362 . S
H508 C514 0.930 . S
H509 C517 0.930 . S
H510 C518 0.930 . S
H511 C519 0.930 . S
H512 C522 0.930 . S
H513 C523 0.930 . S
C514 H508 0.930 . S
C514 C515 1.355 . S
C514 C516 1.415 . S
C515 C514 1.355 . S
C515 C517 1.419 1_556 S
C516 C514 1.415 . S
C516 C521 1.425 1_556 S
C516 C523 1.409 . S
C517 H509 0.930 . S
C517 C515 1.419 1_554 S
C517 C518 1.362 . S
C518 H510 0.930 . S
C518 C517 1.362 . S
C518 C521 1.409 . S
C519 H511 0.930 . S
C519 C520 1.355 . S
C519 C521 1.415 . S
C520 C519 1.355 . S
C520 C522 1.419 1_554 S
C521 C516 1.425 1_554 S
C521 C518 1.409 . S
C521 C519 1.415 . S
C522 H512 0.930 . S
C522 C520 1.419 1_556 S
C522 C523 1.362 . S
C523 H513 0.930 . S
C523 C516 1.409 . S
C523 C522 1.362 . S
H524 C530 0.930 . S
H525 C533 0.930 . S
H526 C534 0.930 . S
H527 C535 0.930 . S
H528 C538 0.930 . S
H529 C539 0.930 . S
C530 H524 0.930 . S
C530 C531 1.355 1_455 S
C530 C532 1.415 . S
C531 C530 1.355 1_655 S
C531 C533 1.419 1_554 S
C532 C530 1.415 . S
C532 C537 1.425 1_554 S
C532 C539 1.409 . S
C533 H525 0.930 . S
C533 C531 1.419 1_556 S
C533 C534 1.362 1_655 S
C534 H526 0.930 . S
C534 C533 1.362 1_455 S
C534 C537 1.409 . S
C535 H527 0.930 . S
C535 C536 1.355 . S
C535 C537 1.415 . S
C536 C535 1.355 . S
C536 C538 1.419 1_556 S
C537 C532 1.425 1_556 S
C537 C534 1.409 . S
C537 C535 1.415 . S
C538 H528 0.930 . S
C538 C536 1.419 1_554 S
C538 C539 1.362 . S
C539 H529 0.930 . S
C539 C532 1.409 . S
C539 C538 1.362 . S
H540 C546 0.930 . S
H541 C549 0.930 . S
H542 C550 0.930 . S
H543 C551 0.930 . S
H544 C554 0.930 . S
H545 C555 0.930 . S
C546 H540 0.930 . S
C546 C547 1.355 . S
C546 C548 1.415 . S
C547 C546 1.355 . S
C547 C549 1.419 1_556 S
C548 C546 1.415 . S
C548 C553 1.425 1_556 S
C548 C555 1.409 . S
C549 H541 0.930 . S
C549 C547 1.419 1_554 S
C549 C550 1.362 . S
C550 H542 0.930 . S
C550 C549 1.362 . S
C550 C553 1.409 . S
C551 H543 0.930 . S
C551 C552 1.355 1_545 S
C551 C553 1.415 . S
C552 C551 1.355 1_565 S
C552 C554 1.419 1_554 S
C553 C548 1.425 1_554 S
C553 C550 1.409 . S
C553 C551 1.415 . S
C554 H544 0.930 . S
C554 C552 1.419 1_556 S
C554 C555 1.362 1_565 S
C555 H545 0.930 . S
C555 C548 1.409 . S
C555 C554 1.362 1_545 S
H556 C562 0.930 . S
H557 C565 0.930 . S
H558 C566 0.930 . S
H559 C567 0.930 . S
H560 C570 0.930 . S
H561 C571 0.930 . S
C562 H556 0.930 . S
C562 C563 1.355 1_554 S
C562 C564 1.415 . S
C563 C562 1.355 1_556 S
C563 C565 1.419 . S
C564 C562 1.415 . S
C564 C569 1.425 1_554 S
C564 C571 1.409 . S
C565 H557 0.930 . S
C565 C563 1.419 . S
C565 C566 1.362 . S
C566 H558 0.930 . S
C566 C565 1.362 . S
C566 C569 1.409 . S
C567 H559 0.930 . S
C567 C568 1.355 1_556 S
C567 C569 1.415 . S
C568 C567 1.355 1_554 S
C568 C570 1.419 . S
C569 C564 1.425 1_556 S
C569 C566 1.409 . S
C569 C567 1.415 . S
C570 H560 0.930 . S
C570 C568 1.419 . S
C570 C571 1.362 . S
C571 H561 0.930 . S
C571 C564 1.409 . S
C571 C570 1.362 . S
H572 C578 0.930 . S
H573 C581 0.930 . S
H574 C582 0.930 . S
H575 C583 0.930 . S
H576 C586 0.930 1_455 S
H577 C587 0.930 . S
C578 H572 0.930 . S
C578 C579 1.355 1_554 S
C578 C580 1.415 . S
C579 C578 1.355 1_556 S
C579 C581 1.419 . S
C580 C578 1.415 . S
C580 C585 1.425 1_554 S
C580 C587 1.409 . S
C581 H573 0.930 . S
C581 C579 1.419 . S
C581 C582 1.362 . S
C582 H574 0.930 . S
C582 C581 1.362 . S
C582 C585 1.409 . S
C583 H575 0.930 . S
C583 C584 1.355 1_656 S
C583 C585 1.415 . S
C584 C583 1.355 1_454 S
C584 C586 1.419 1_455 S
C585 C580 1.425 1_556 S
C585 C582 1.409 . S
C585 C583 1.415 . S
C586 H576 0.930 1_655 S
C586 C584 1.419 1_655 S
C586 C587 1.362 . S
C587 H577 0.930 . S
C587 C580 1.409 . S
C587 C586 1.362 . S
H588 C594 0.930 . S
H589 C597 0.930 . S
H590 C598 0.930 . S
H591 C599 0.930 . S
H592 C602 0.930 1_655 S
H593 C603 0.930 . S
C594 H588 0.930 . S
C594 C595 1.355 . S
C594 C596 1.415 . S
C595 C594 1.355 . S
C595 C597 1.419 . S
C596 C594 1.415 . S
C596 C601 1.425 . S
C596 C603 1.409 . S
C597 H589 0.930 . S
C597 C595 1.419 . S
C597 C598 1.362 . S
C598 H590 0.930 . S
C598 C597 1.362 . S
C598 C601 1.409 . S
C599 H591 0.930 . S
C599 C600 1.355 1_455 S
C599 C601 1.415 . S
C600 C599 1.355 1_655 S
C600 C602 1.419 1_655 S
C601 C596 1.425 . S
C601 C598 1.409 . S
C601 C599 1.415 . S
C602 H592 0.930 1_455 S
C602 C600 1.419 1_455 S
C602 C603 1.362 . S
C603 H593 0.930 . S
C603 C596 1.409 . S
C603 C602 1.362 . S
H604 C610 0.930 . S
H605 C613 0.930 . S
H606 C614 0.930 . S
H607 C615 0.930 . S
H608 C618 0.930 1_565 S
H609 C619 0.930 . S
C610 H604 0.930 . S
C610 C611 1.355 . S
C610 C612 1.415 . S
C611 C610 1.355 . S
C611 C613 1.419 . S
C612 C610 1.415 . S
C612 C617 1.425 . S
C612 C619 1.409 . S
C613 H605 0.930 . S
C613 C611 1.419 . S
C613 C614 1.362 . S
C614 H606 0.930 . S
C614 C613 1.362 . S
C614 C617 1.409 . S
C615 H607 0.930 . S
C615 C616 1.355 1_545 S
C615 C617 1.415 . S
C616 C615 1.355 1_565 S
C616 C618 1.419 1_565 S
C617 C612 1.425 . S
C617 C614 1.409 . S
C617 C615 1.415 . S
C618 H608 0.930 1_545 S
C618 C616 1.419 1_545 S
C618 C619 1.362 . S
C619 H609 0.930 . S
C619 C612 1.409 . S
C619 C618 1.362 . S
H620 C626 0.930 . S
H621 C629 0.930 . S
H622 C630 0.930 . S
H623 C631 0.930 . S
H624 C634 0.930 . S
H625 C635 0.930 . S
C626 H620 0.930 . S
C626 C627 1.355 . S
C626 C628 1.415 . S
C627 C626 1.355 . S
C627 C629 1.419 . S
C628 C626 1.415 . S
C628 C633 1.425 . S
C628 C635 1.409 . S
C629 H621 0.930 . S
C629 C627 1.419 . S
C629 C630 1.362 . S
C630 H622 0.930 . S
C630 C629 1.362 . S
C630 C633 1.409 . S
C631 H623 0.930 . S
C631 C632 1.355 . S
C631 C633 1.415 . S
C632 C631 1.355 . S
C632 C634 1.419 . S
C633 C628 1.425 . S
C633 C630 1.409 . S
C633 C631 1.415 . S
C634 H624 0.930 . S
C634 C632 1.419 . S
C634 C635 1.362 . S
C635 H625 0.930 . S
C635 C628 1.409 . S
C635 C634 1.362 . S
H636 C642 0.930 1_455 S
H637 C645 0.930 . S
H638 C646 0.930 . S
H639 C647 0.930 . S
H640 C650 0.930 . S
H641 C651 0.930 . S
C642 H636 0.930 1_655 S
C642 C643 1.355 1_655 S
C642 C644 1.415 . S
C643 C642 1.355 1_455 S
C643 C645 1.419 1_455 S
C644 C642 1.415 . S
C644 C649 1.425 . S
C644 C651 1.409 . S
C645 H637 0.930 . S
C645 C643 1.419 1_655 S
C645 C646 1.362 . S
C646 H638 0.930 . S
C646 C645 1.362 . S
C646 C649 1.409 . S
C647 H639 0.930 . S
C647 C648 1.355 . S
C647 C649 1.415 . S
C648 C647 1.355 . S
C648 C650 1.419 . S
C649 C644 1.425 . S
C649 C646 1.409 . S
C649 C647 1.415 . S
C650 H640 0.930 . S
C650 C648 1.419 . S
C650 C651 1.362 . S
C651 H641 0.930 . S
C651 C644 1.409 . S
C651 C650 1.362 . S
H652 C658 0.930 . S
H653 C661 0.930 1_545 S
H654 C662 0.930 . S
H655 C663 0.930 . S
H656 C666 0.930 . S
H657 C667 0.930 . S
C658 H652 0.930 . S
C658 C659 1.355 1_565 S
C658 C660 1.415 . S
C659 C658 1.355 1_545 S
C659 C661 1.419 1_545 S
C660 C658 1.415 . S
C660 C665 1.425 . S
C660 C667 1.409 . S
C661 H653 0.930 1_565 S
C661 C659 1.419 1_565 S
C661 C662 1.362 . S
C662 H654 0.930 . S
C662 C661 1.362 . S
C662 C665 1.409 . S
C663 H655 0.930 . S
C663 C664 1.355 . S
C663 C665 1.415 . S
C664 C663 1.355 . S
C664 C666 1.419 . S
C665 C660 1.425 . S
C665 C662 1.409 . S
C665 C663 1.415 . S
C666 H656 0.930 . S
C666 C664 1.419 . S
C666 C667 1.362 . S
C667 H657 0.930 . S
C667 C660 1.409 . S
C667 C666 1.362 . S
H668 C674 0.930 . S
H669 C677 0.930 . S
H670 C678 0.930 . S
H671 C679 0.930 . S
H672 C682 0.930 . S
H673 C683 0.930 . S
C674 H668 0.930 . S
C674 C675 1.355 . S
C674 C676 1.415 . S
C675 C674 1.355 . S
C675 C677 1.419 . S
C676 C674 1.415 . S
C676 C681 1.425 . S
C676 C683 1.409 . S
C677 H669 0.930 . S
C677 C675 1.419 . S
C677 C678 1.362 . S
C678 H670 0.930 . S
C678 C677 1.362 . S
C678 C681 1.409 . S
C679 H671 0.930 . S
C679 C680 1.355 . S
C679 C681 1.415 . S
C680 C679 1.355 . S
C680 C682 1.419 . S
C681 C676 1.425 . S
C681 C678 1.409 . S
C681 C679 1.415 . S
C682 H672 0.930 . S
C682 C680 1.419 . S
C682 C683 1.362 . S
C683 H673 0.930 . S
C683 C676 1.409 . S
C683 C682 1.362 . S
H684 C690 0.930 . S
H685 C693 0.930 . S
H686 C694 0.930 . S
H687 C695 0.930 . S
H688 C698 0.930 . S
H689 C699 0.930 . S
C690 H684 0.930 . S
C690 C691 1.355 . S
C690 C692 1.415 . S
C691 C690 1.355 . S
C691 C693 1.419 . S
C692 C690 1.415 . S
C692 C697 1.425 . S
C692 C699 1.409 . S
C693 H685 0.930 . S
C693 C691 1.419 . S
C693 C694 1.362 . S
C694 H686 0.930 . S
C694 C693 1.362 . S
C694 C697 1.409 . S
C695 H687 0.930 . S
C695 C696 1.355 . S
C695 C697 1.415 . S
C696 C695 1.355 . S
C696 C698 1.419 . S
C697 C692 1.425 . S
C697 C694 1.409 . S
C697 C695 1.415 . S
C698 H688 0.930 . S
C698 C696 1.419 . S
C698 C699 1.362 . S
C699 H689 0.930 . S
C699 C692 1.409 . S
C699 C698 1.362 . S
H700 C706 0.930 . S
H701 C709 0.930 . S
H702 C710 0.930 . S
H703 C711 0.930 . S
H704 C714 0.930 . S
H705 C715 0.930 . S
C706 H700 0.930 . S
C706 C707 1.355 . S
C706 C708 1.415 . S
C707 C706 1.355 . S
C707 C709 1.419 . S
C708 C706 1.415 . S
C708 C713 1.425 . S
C708 C715 1.409 . S
C709 H701 0.930 . S
C709 C707 1.419 . S
C709 C710 1.362 . S
C710 H702 0.930 . S
C710 C709 1.362 . S
C710 C713 1.409 . S
C711 H703 0.930 . S
C711 C712 1.355 . S
C711 C713 1.415 . S
C712 C711 1.355 . S
C712 C714 1.419 . S
C713 C708 1.425 . S
C713 C710 1.409 . S
C713 C711 1.415 . S
C714 H704 0.930 . S
C714 C712 1.419 . S
C714 C715 1.362 . S
C715 H705 0.930 . S
C715 C708 1.409 . S
C715 C714 1.362 . S
H716 C722 0.930 . S
H717 C725 0.930 . S
H718 C726 0.930 . S
H719 C727 0.930 . S
H720 C730 0.930 . S
H721 C731 0.930 . S
C722 H716 0.930 . S
C722 C723 1.355 . S
C722 C724 1.415 . S
C723 C722 1.355 . S
C723 C725 1.419 . S
C724 C722 1.415 . S
C724 C729 1.425 . S
C724 C731 1.409 . S
C725 H717 0.930 . S
C725 C723 1.419 . S
C725 C726 1.362 . S
C726 H718 0.930 . S
C726 C725 1.362 . S
C726 C729 1.409 . S
C727 H719 0.930 . S
C727 C728 1.355 . S
C727 C729 1.415 . S
C728 C727 1.355 . S
C728 C730 1.419 . S
C729 C724 1.425 . S
C729 C726 1.409 . S
C729 C727 1.415 . S
C730 H720 0.930 . S
C730 C728 1.419 . S
C730 C731 1.362 . S
C731 H721 0.930 . S
C731 C724 1.409 . S
C731 C730 1.362 . S
H732 C738 0.930 . S
H733 C741 0.930 . S
H734 C742 0.930 . S
H735 C743 0.930 . S
H736 C746 0.930 . S
H737 C747 0.930 . S
C738 H732 0.930 . S
C738 C739 1.355 . S
C738 C740 1.415 . S
C739 C738 1.355 . S
C739 C741 1.419 . S
C740 C738 1.415 . S
C740 C745 1.425 . S
C740 C747 1.409 . S
C741 H733 0.930 . S
C741 C739 1.419 . S
C741 C742 1.362 . S
C742 H734 0.930 . S
C742 C741 1.362 . S
C742 C745 1.409 . S
C743 H735 0.930 . S
C743 C744 1.355 . S
C743 C745 1.415 . S
C744 C743 1.355 . S
C744 C746 1.419 . S
C745 C740 1.425 . S
C745 C742 1.409 . S
C745 C743 1.415 . S
C746 H736 0.930 . S
C746 C744 1.419 . S
C746 C747 1.362 . S
C747 H737 0.930 . S
C747 C740 1.409 . S
C747 C746 1.362 . S
H748 C754 0.930 . S
H749 C757 0.930 . S
H750 C758 0.930 . S
H751 C759 0.930 . S
H752 C762 0.930 . S
H753 C763 0.930 . S
C754 H748 0.930 . S
C754 C755 1.355 . S
C754 C756 1.415 . S
C755 C754 1.355 . S
C755 C757 1.419 . S
C756 C754 1.415 . S
C756 C761 1.425 . S
C756 C763 1.409 . S
C757 H749 0.930 . S
C757 C755 1.419 . S
C757 C758 1.362 . S
C758 H750 0.930 . S
C758 C757 1.362 . S
C758 C761 1.409 . S
C759 H751 0.930 . S
C759 C760 1.355 . S
C759 C761 1.415 . S
C760 C759 1.355 . S
C760 C762 1.419 . S
C761 C756 1.425 . S
C761 C758 1.409 . S
C761 C759 1.415 . S
C762 H752 0.930 . S
C762 C760 1.419 . S
C762 C763 1.362 . S
C763 H753 0.930 . S
C763 C756 1.409 . S
C763 C762 1.362 . S
H764 C770 0.930 . S
H765 C773 0.930 . S
H766 C774 0.930 . S
H767 C775 0.930 . S
H768 C778 0.930 . S
H769 C779 0.930 . S
C770 H764 0.930 . S
C770 C771 1.355 . S
C770 C772 1.415 . S
C771 C770 1.355 . S
C771 C773 1.419 . S
C772 C770 1.415 . S
C772 C777 1.425 . S
C772 C779 1.409 . S
C773 H765 0.930 . S
C773 C771 1.419 . S
C773 C774 1.362 . S
C774 H766 0.930 . S
C774 C773 1.362 . S
C774 C777 1.409 . S
C775 H767 0.930 . S
C775 C776 1.355 . S
C775 C777 1.415 . S
C776 C775 1.355 . S
C776 C778 1.419 . S
C777 C772 1.425 . S
C777 C774 1.409 . S
C777 C775 1.415 . S
C778 H768 0.930 . S
C778 C776 1.419 . S
C778 C779 1.362 . S
C779 H769 0.930 . S
C779 C772 1.409 . S
C779 C778 1.362 . S
H780 C786 0.930 . S
H781 C789 0.930 . S
H782 C790 0.930 . S
H783 C791 0.930 . S
H784 C794 0.930 . S
H785 C795 0.930 . S
C786 H780 0.930 . S
C786 C787 1.355 . S
C786 C788 1.415 . S
C787 C786 1.355 . S
C787 C789 1.419 . S
C788 C786 1.415 . S
C788 C793 1.425 . S
C788 C795 1.409 . S
C789 H781 0.930 . S
C789 C787 1.419 . S
C789 C790 1.362 . S
C790 H782 0.930 . S
C790 C789 1.362 . S
C790 C793 1.409 . S
C791 H783 0.930 . S
C791 C792 1.355 . S
C791 C793 1.415 . S
C792 C791 1.355 . S
C792 C794 1.419 . S
C793 C788 1.425 . S
C793 C790 1.409 . S
C793 C791 1.415 . S
C794 H784 0.930 . S
C794 C792 1.419 . S
C794 C795 1.362 . S
C795 H785 0.930 . S
C795 C788 1.409 . S
C795 C794 1.362 . S
H796 C802 0.930 . S
H797 C805 0.930 . S
H798 C806 0.930 . S
H799 C807 0.930 . S
H800 C810 0.930 . S
H801 C811 0.930 . S
C802 H796 0.930 . S
C802 C803 1.355 . S
C802 C804 1.415 . S
C803 C802 1.355 . S
C803 C805 1.419 . S
C804 C802 1.415 . S
C804 C809 1.425 . S
C804 C811 1.409 . S
C805 H797 0.930 . S
C805 C803 1.419 . S
C805 C806 1.362 . S
C806 H798 0.930 . S
C806 C805 1.362 . S
C806 C809 1.409 . S
C807 H799 0.930 . S
C807 C808 1.355 . S
C807 C809 1.415 . S
C808 C807 1.355 . S
C808 C810 1.419 . S
C809 C804 1.425 . S
C809 C806 1.409 . S
C809 C807 1.415 . S
C810 H800 0.930 . S
C810 C808 1.419 . S
C810 C811 1.362 . S
C811 H801 0.930 . S
C811 C804 1.409 . S
C811 C810 1.362 . S
H812 C818 0.930 . S
H813 C821 0.930 . S
H814 C822 0.930 . S
H815 C823 0.930 . S
H816 C826 0.930 . S
H817 C827 0.930 . S
C818 H812 0.930 . S
C818 C819 1.355 . S
C818 C820 1.415 . S
C819 C818 1.355 . S
C819 C821 1.419 . S
C820 C818 1.415 . S
C820 C825 1.425 . S
C820 C827 1.409 . S
C821 H813 0.930 . S
C821 C819 1.419 . S
C821 C822 1.362 . S
C822 H814 0.930 . S
C822 C821 1.362 . S
C822 C825 1.409 . S
C823 H815 0.930 . S
C823 C824 1.355 . S
C823 C825 1.415 . S
C824 C823 1.355 . S
C824 C826 1.419 . S
C825 C820 1.425 . S
C825 C822 1.409 . S
C825 C823 1.415 . S
C826 H816 0.930 . S
C826 C824 1.419 . S
C826 C827 1.362 . S
C827 H817 0.930 . S
C827 C820 1.409 . S
C827 C826 1.362 . S
H828 C834 0.930 . S
H829 C837 0.930 . S
H830 C838 0.930 . S
H831 C839 0.930 . S
H832 C842 0.930 . S
H833 C843 0.930 . S
C834 H828 0.930 . S
C834 C835 1.355 . S
C834 C836 1.415 . S
C835 C834 1.355 . S
C835 C837 1.419 . S
C836 C834 1.415 . S
C836 C841 1.425 . S
C836 C843 1.409 . S
C837 H829 0.930 . S
C837 C835 1.419 . S
C837 C838 1.362 . S
C838 H830 0.930 . S
C838 C837 1.362 . S
C838 C841 1.409 . S
C839 H831 0.930 . S
C839 C840 1.355 . S
C839 C841 1.415 . S
C840 C839 1.355 . S
C840 C842 1.419 . S
C841 C836 1.425 . S
C841 C838 1.409 . S
C841 C839 1.415 . S
C842 H832 0.930 . S
C842 C840 1.419 . S
C842 C843 1.362 . S
C843 H833 0.930 . S
C843 C836 1.409 . S
C843 C842 1.362 . S
H844 C850 0.930 . S
H845 C853 0.930 . S
H846 C854 0.930 . S
H847 C855 0.930 . S
H848 C858 0.930 . S
H849 C859 0.930 . S
C850 H844 0.930 . S
C850 C851 1.355 . S
C850 C852 1.415 . S
C851 C850 1.355 . S
C851 C853 1.419 . S
C852 C850 1.415 . S
C852 C857 1.425 . S
C852 C859 1.409 . S
C853 H845 0.930 . S
C853 C851 1.419 . S
C853 C854 1.362 . S
C854 H846 0.930 . S
C854 C853 1.362 . S
C854 C857 1.409 . S
C855 H847 0.930 . S
C855 C856 1.355 . S
C855 C857 1.415 . S
C856 C855 1.355 . S
C856 C858 1.419 . S
C857 C852 1.425 . S
C857 C854 1.409 . S
C857 C855 1.415 . S
C858 H848 0.930 . S
C858 C856 1.419 . S
C858 C859 1.362 . S
C859 H849 0.930 . S
C859 C852 1.409 . S
C859 C858 1.362 . S
H860 C866 0.930 . S
H861 C869 0.930 . S
H862 C870 0.930 . S
H863 C871 0.930 . S
H864 C874 0.930 . S
H865 C875 0.930 . S
C866 H860 0.930 . S
C866 C867 1.355 . S
C866 C868 1.415 . S
C867 C866 1.355 . S
C867 C869 1.419 . S
C868 C866 1.415 . S
C868 C873 1.425 . S
C868 C875 1.409 . S
C869 H861 0.930 . S
C869 C867 1.419 . S
C869 C870 1.362 . S
C870 H862 0.930 . S
C870 C869 1.362 . S
C870 C873 1.409 . S
C871 H863 0.930 . S
C871 C872 1.355 . S
C871 C873 1.415 . S
C872 C871 1.355 . S
C872 C874 1.419 . S
C873 C868 1.425 . S
C873 C870 1.409 . S
C873 C871 1.415 . S
C874 H864 0.930 . S
C874 C872 1.419 . S
C874 C875 1.362 . S
C875 H865 0.930 . S
C875 C868 1.409 . S
C875 C874 1.362 . S
C403 N2 1.948 . S
C408 N101 1.973 . S
C419 N134 2.010 . S
C424 N35 1.960 . S
C435 N167 1.966 . S
C440 N68 1.951 . S
C451 N299 2.005 . S
C456 N200 1.983 . S
C467 N332 2.008 . S
C472 N233 1.970 . S
C483 N266 1.990 . S
C488 N365 2.002 . S
C499 C21 0.518 . S
C504 N178 0.473 . S
C515 N13 0.507 . S
C520 C54 0.545 . S
C531 C87 0.508 . S
C536 N46 0.473 . S
C547 N79 0.547 . S
C552 C120 0.559 . S
C563 N112 0.638 . S
C568 C153 0.568 . S
C579 N145 0.679 . S
C584 C186 0.558 . S
C595 N244 0.546 . S
C600 C219 0.482 . S
C611 N277 0.642 . S
C616 C252 0.568 . S
C627 N310 0.577 . S
C632 C285 0.482 . S
C643 C318 0.540 . S
C648 N343 0.688 . S
C659 C351 0.566 . S
C664 N376 0.659 . S
C675 C384 0.524 . S
C680 N211 0.681 . S
C691 C271 1.722 . S
C696 C7 1.691 . S
C707 C40 1.691 . S
C712 C304 1.722 . S
C723 C73 1.711 . S
C728 C337 1.697 . S
C739 C106 1.736 . S
C744 C370 1.693 . S
C755 C205 1.713 . S
C760 C139 1.732 . S
C771 C172 1.718 . S
C776 C238 1.693 . S
C787 C381 1.547 . S
C792 C117 1.523 . S
C803 C216 1.540 . S
C808 C150 1.538 . S
C819 C249 1.521 . S
C824 C183 1.556 . S
C835 C18 1.561 . S
C840 C282 1.512 . S
C851 C51 1.562 . S
C856 C315 1.513 . S
C867 C84 1.558 . S
C872 C348 1.518 . S
