# Generated by pormake.
# Topology ukn, (4)-cn, num edge types: 1
# Building blocks:
#     Node 0, Type 0, BuildingBlock: UXUYUI_clean_sbu_0, # of connection points: 4
#     Node 1, Type 0, BuildingBlock: UXUYUI_clean_sbu_0, # of connection points: 4
#     Node 2, Type 0, BuildingBlock: UXUYUI_clean_sbu_0, # of connection points: 4
#     Node 3, Type 0, BuildingBlock: UXUYUI_clean_sbu_0, # of connection points: 4
#     Node 4, Type 0, BuildingBlock: UXUYUI_clean_sbu_0, # of connection points: 4
#     Node 5, Type 0, BuildingBlock: UXUYUI_clean_sbu_0, # of connection points: 4
#     Node 6, Type 0, BuildingBlock: UXUYUI_clean_sbu_0, # of connection points: 4
#     Node 7, Type 0, BuildingBlock: UXUYUI_clean_sbu_0, # of connection points: 4
#     Node 8, Type 0, BuildingBlock: UXUYUI_clean_sbu_0, # of connection points: 4
#     Node 9, Type 0, BuildingBlock: UXUYUI_clean_sbu_0, # of connection points: 4
#     Node 10, Type 0, BuildingBlock: UXUYUI_clean_sbu_0, # of connection points: 4
#     Node 11, Type 0, BuildingBlock: UXUYUI_clean_sbu_0, # of connection points: 4
#     Node 12, Type 0, BuildingBlock: UXUYUI_clean_sbu_0, # of connection points: 4
#     Node 13, Type 0, BuildingBlock: UXUYUI_clean_sbu_0, # of connection points: 4
#     Node 14, Type 0, BuildingBlock: UXUYUI_clean_sbu_0, # of connection points: 4
#     Node 15, Type 0, BuildingBlock: UXUYUI_clean_sbu_0, # of connection points: 4
#     Node 16, Type 0, BuildingBlock: UXUYUI_clean_sbu_0, # of connection points: 4
#     Node 17, Type 0, BuildingBlock: UXUYUI_clean_sbu_0, # of connection points: 4
#     Node 18, Type 0, BuildingBlock: UXUYUI_clean_sbu_0, # of connection points: 4
#     Node 19, Type 0, BuildingBlock: UXUYUI_clean_sbu_0, # of connection points: 4
#     Node 20, Type 0, BuildingBlock: UXUYUI_clean_sbu_0, # of connection points: 4
#     Node 21, Type 0, BuildingBlock: UXUYUI_clean_sbu_0, # of connection points: 4
#     Node 22, Type 0, BuildingBlock: UXUYUI_clean_sbu_0, # of connection points: 4
#     Node 23, Type 0, BuildingBlock: UXUYUI_clean_sbu_0, # of connection points: 4
#     Node 24, Type 0, BuildingBlock: UXUYUI_clean_sbu_0, # of connection points: 4
#     Node 25, Type 0, BuildingBlock: UXUYUI_clean_sbu_0, # of connection points: 4
#     Node 26, Type 0, BuildingBlock: UXUYUI_clean_sbu_0, # of connection points: 4
#     Node 27, Type 0, BuildingBlock: UXUYUI_clean_sbu_0, # of connection points: 4
#     Node 28, Type 0, BuildingBlock: UXUYUI_clean_sbu_0, # of connection points: 4
#     Node 29, Type 0, BuildingBlock: UXUYUI_clean_sbu_0, # of connection points: 4
#     Node 30, Type 0, BuildingBlock: UXUYUI_clean_sbu_0, # of connection points: 4
#     Node 31, Type 0, BuildingBlock: UXUYUI_clean_sbu_0, # of connection points: 4
#     Node 32, Type 0, BuildingBlock: UXUYUI_clean_sbu_0, # of connection points: 4
#     Node 33, Type 0, BuildingBlock: UXUYUI_clean_sbu_0, # of connection points: 4
#     Node 34, Type 0, BuildingBlock: UXUYUI_clean_sbu_0, # of connection points: 4
#     Node 35, Type 0, BuildingBlock: UXUYUI_clean_sbu_0, # of connection points: 4
#     Edge 36, Type (0, 0), BuildingBlock: OJICUG_clean_linker_0, # of connection points: 2
#     Edge 37, Type (0, 0), BuildingBlock: OJICUG_clean_linker_0, # of connection points: 2
#     Edge 38, Type (0, 0), BuildingBlock: OJICUG_clean_linker_0, # of connection points: 2
#     Edge 39, Type (0, 0), BuildingBlock: OJICUG_clean_linker_0, # of connection points: 2
#     Edge 40, Type (0, 0), BuildingBlock: OJICUG_clean_linker_0, # of connection points: 2
#     Edge 41, Type (0, 0), BuildingBlock: OJICUG_clean_linker_0, # of connection points: 2
#     Edge 42, Type (0, 0), BuildingBlock: OJICUG_clean_linker_0, # of connection points: 2
#     Edge 43, Type (0, 0), BuildingBlock: OJICUG_clean_linker_0, # of connection points: 2
#     Edge 44, Type (0, 0), BuildingBlock: OJICUG_clean_linker_0, # of connection points: 2
#     Edge 45, Type (0, 0), BuildingBlock: OJICUG_clean_linker_0, # of connection points: 2
#     Edge 46, Type (0, 0), BuildingBlock: OJICUG_clean_linker_0, # of connection points: 2
#     Edge 47, Type (0, 0), BuildingBlock: OJICUG_clean_linker_0, # of connection points: 2
#     Edge 48, Type (0, 0), BuildingBlock: OJICUG_clean_linker_0, # of connection points: 2
#     Edge 49, Type (0, 0), BuildingBlock: OJICUG_clean_linker_0, # of connection points: 2
#     Edge 50, Type (0, 0), BuildingBlock: OJICUG_clean_linker_0, # of connection points: 2
#     Edge 51, Type (0, 0), BuildingBlock: OJICUG_clean_linker_0, # of connection points: 2
#     Edge 52, Type (0, 0), BuildingBlock: OJICUG_clean_linker_0, # of connection points: 2
#     Edge 53, Type (0, 0), BuildingBlock: OJICUG_clean_linker_0, # of connection points: 2
#     Edge 54, Type (0, 0), BuildingBlock: OJICUG_clean_linker_0, # of connection points: 2
#     Edge 55, Type (0, 0), BuildingBlock: OJICUG_clean_linker_0, # of connection points: 2
#     Edge 56, Type (0, 0), BuildingBlock: OJICUG_clean_linker_0, # of connection points: 2
#     Edge 57, Type (0, 0), BuildingBlock: OJICUG_clean_linker_0, # of connection points: 2
#     Edge 58, Type (0, 0), BuildingBlock: OJICUG_clean_linker_0, # of connection points: 2
#     Edge 59, Type (0, 0), BuildingBlock: OJICUG_clean_linker_0, # of connection points: 2
#     Edge 60, Type (0, 0), BuildingBlock: OJICUG_clean_linker_0, # of connection points: 2
#     Edge 61, Type (0, 0), BuildingBlock: OJICUG_clean_linker_0, # of connection points: 2
#     Edge 62, Type (0, 0), BuildingBlock: OJICUG_clean_linker_0, # of connection points: 2
#     Edge 63, Type (0, 0), BuildingBlock: OJICUG_clean_linker_0, # of connection points: 2
#     Edge 64, Type (0, 0), BuildingBlock: OJICUG_clean_linker_0, # of connection points: 2
#     Edge 65, Type (0, 0), BuildingBlock: OJICUG_clean_linker_0, # of connection points: 2
#     Edge 66, Type (0, 0), BuildingBlock: OJICUG_clean_linker_0, # of connection points: 2
#     Edge 67, Type (0, 0), BuildingBlock: OJICUG_clean_linker_0, # of connection points: 2
#     Edge 68, Type (0, 0), BuildingBlock: OJICUG_clean_linker_0, # of connection points: 2
#     Edge 69, Type (0, 0), BuildingBlock: OJICUG_clean_linker_0, # of connection points: 2
#     Edge 70, Type (0, 0), BuildingBlock: OJICUG_clean_linker_0, # of connection points: 2
#     Edge 71, Type (0, 0), BuildingBlock: OJICUG_clean_linker_0, # of connection points: 2
#     Edge 72, Type (0, 0), BuildingBlock: OJICUG_clean_linker_0, # of connection points: 2
#     Edge 73, Type (0, 0), BuildingBlock: OJICUG_clean_linker_0, # of connection points: 2
#     Edge 74, Type (0, 0), BuildingBlock: OJICUG_clean_linker_0, # of connection points: 2
#     Edge 75, Type (0, 0), BuildingBlock: OJICUG_clean_linker_0, # of connection points: 2
#     Edge 76, Type (0, 0), BuildingBlock: OJICUG_clean_linker_0, # of connection points: 2
#     Edge 77, Type (0, 0), BuildingBlock: OJICUG_clean_linker_0, # of connection points: 2
#     Edge 78, Type (0, 0), BuildingBlock: OJICUG_clean_linker_0, # of connection points: 2
#     Edge 79, Type (0, 0), BuildingBlock: OJICUG_clean_linker_0, # of connection points: 2
#     Edge 80, Type (0, 0), BuildingBlock: OJICUG_clean_linker_0, # of connection points: 2
#     Edge 81, Type (0, 0), BuildingBlock: OJICUG_clean_linker_0, # of connection points: 2
#     Edge 82, Type (0, 0), BuildingBlock: OJICUG_clean_linker_0, # of connection points: 2
#     Edge 83, Type (0, 0), BuildingBlock: OJICUG_clean_linker_0, # of connection points: 2
#     Edge 84, Type (0, 0), BuildingBlock: OJICUG_clean_linker_0, # of connection points: 2
#     Edge 85, Type (0, 0), BuildingBlock: OJICUG_clean_linker_0, # of connection points: 2
#     Edge 86, Type (0, 0), BuildingBlock: OJICUG_clean_linker_0, # of connection points: 2
#     Edge 87, Type (0, 0), BuildingBlock: OJICUG_clean_linker_0, # of connection points: 2
#     Edge 88, Type (0, 0), BuildingBlock: OJICUG_clean_linker_0, # of connection points: 2
#     Edge 89, Type (0, 0), BuildingBlock: OJICUG_clean_linker_0, # of connection points: 2
#     Edge 90, Type (0, 0), BuildingBlock: OJICUG_clean_linker_0, # of connection points: 2
#     Edge 91, Type (0, 0), BuildingBlock: OJICUG_clean_linker_0, # of connection points: 2
#     Edge 92, Type (0, 0), BuildingBlock: OJICUG_clean_linker_0, # of connection points: 2
#     Edge 93, Type (0, 0), BuildingBlock: OJICUG_clean_linker_0, # of connection points: 2
#     Edge 94, Type (0, 0), BuildingBlock: OJICUG_clean_linker_0, # of connection points: 2
#     Edge 95, Type (0, 0), BuildingBlock: OJICUG_clean_linker_0, # of connection points: 2
#     Edge 96, Type (0, 0), BuildingBlock: OJICUG_clean_linker_0, # of connection points: 2
#     Edge 97, Type (0, 0), BuildingBlock: OJICUG_clean_linker_0, # of connection points: 2
#     Edge 98, Type (0, 0), BuildingBlock: OJICUG_clean_linker_0, # of connection points: 2
#     Edge 99, Type (0, 0), BuildingBlock: OJICUG_clean_linker_0, # of connection points: 2
#     Edge 100, Type (0, 0), BuildingBlock: OJICUG_clean_linker_0, # of connection points: 2
#     Edge 101, Type (0, 0), BuildingBlock: OJICUG_clean_linker_0, # of connection points: 2
#     Edge 102, Type (0, 0), BuildingBlock: OJICUG_clean_linker_0, # of connection points: 2
#     Edge 103, Type (0, 0), BuildingBlock: OJICUG_clean_linker_0, # of connection points: 2
#     Edge 104, Type (0, 0), BuildingBlock: OJICUG_clean_linker_0, # of connection points: 2
#     Edge 105, Type (0, 0), BuildingBlock: OJICUG_clean_linker_0, # of connection points: 2
#     Edge 106, Type (0, 0), BuildingBlock: OJICUG_clean_linker_0, # of connection points: 2
#     Edge 107, Type (0, 0), BuildingBlock: OJICUG_clean_linker_0, # of connection points: 2
# Relax obj value: 0.241
# Max RMSD: 0.173
# Mean RMSD: 0.172
data_MOF--net-ukn--node1-UXUYUI_clean_sbu_0--edge1-OJICUG_clean_linker_0
_symmetry_space_group_name_H-M    P1
_symmetry_Int_Tables_number       1
_symmetry_cell_setting            triclinic
loop_
_symmetry_equiv_pos_as_xyz
'x, y, z'
_cell_length_a     128.66837
_cell_length_b     128.66959
_cell_length_c     29.579526
_cell_angle_alpha  90.001836
_cell_angle_beta   89.994203
_cell_angle_gamma 119.98411
loop_
_atom_site_label
_atom_site_type_symbol
_atom_site_fract_x
_atom_site_fract_y
_atom_site_fract_z
_atom_type_partial_charge
Li0 Li 0.07783 0.29617 0.11535 0.0
Li1 Li 0.08288 0.28114 0.09125 0.0
Li2 Li 0.082 0.29506 0.03633 0.0
Li3 Li 0.06389 0.2788 0.06999 0.0
C4 C 0.10395 0.3067 0.07035 0.0
N5 N 0.12589 0.32231 0.03159 0.0
C6 C 0.11263 0.30329 0.06503 0.0
C7 C 0.10645 0.31807 0.05583 0.0
C8 C 0.12367 0.31131 0.04544 0.0
C9 C 0.11758 0.32582 0.03632 0.0
C10 C 0.06997 0.27161 0.16462 0.0
C11 C 0.06664 0.2523 0.18898 0.0
N12 N 0.07165 0.25711 0.22969 0.0
C13 C 0.07504 0.27637 0.20676 0.0
C14 C 0.06568 0.25947 0.1557 0.0
C15 C 0.07582 0.26889 0.23919 0.0
C16 C 0.07182 0.30354 0.19823 0.0
N17 N 0.07971 0.30693 0.16319 0.0
C18 C 0.09247 0.32584 0.19816 0.0
C19 C 0.08973 0.31792 0.1622 0.0
C20 C 0.08491 0.32237 0.2361 0.0
C21 C 0.07427 0.31117 0.23537 0.0
H22 H 0.06389 0.29473 0.19814 0.0
H23 H 0.09583 0.32043 0.13411 0.0
C24 C 0.09373 0.26694 0.07679 0.0
N25 N 0.09209 0.27391 0.1072 0.0
C26 C 0.10292 0.2643 0.08313 0.0
C27 C 0.10794 0.27535 0.15344 0.0
C28 C 0.09873 0.27784 0.14562 0.0
C29 C 0.1105 0.269 0.1209 0.0
H30 H 0.08852 0.26422 0.04595 0.0
H31 H 0.09752 0.28372 0.16837 0.0
C32 C 0.06372 0.3025 0.07857 0.0
N33 N 0.05481 0.31609 0.11642 0.0
C34 C 0.05279 0.29691 0.10172 0.0
C35 C 0.07012 0.315 0.0746 0.0
C36 C 0.04843 0.30394 0.1206 0.0
C37 C 0.06546 0.32171 0.09401 0.0
C38 C 0.06873 0.269 0.00046 0.0
C39 C 0.0664 0.27221 0.95809 0.0
C40 C 0.06341 0.25689 0.01223 0.0
C41 C 0.05862 0.26322 0.92843 0.0
C42 C 0.05567 0.24817 0.98165 0.0
N43 N 0.05345 0.25149 0.94075 0.0
C44 C 0.09754 0.30394 0.9599 0.0
C45 C 0.08201 0.30877 0.96326 0.0
C46 C 0.10174 0.31023 0.91931 0.0
N47 N 0.088 0.30356 0.98133 0.0
C48 C 0.0857 0.31488 0.92226 0.0
C49 C 0.09573 0.31571 0.90013 0.0
H50 H 0.10192 0.29941 0.97442 0.0
H51 H 0.07428 0.30807 0.98049 0.0
C52 C 0.03998 0.25805 0.07553 0.0
N53 N 0.04767 0.26838 0.05374 0.0
C54 C 0.02827 0.2509 0.05938 0.0
C55 C 0.03276 0.26519 0.99895 0.0
C56 C 0.04427 0.27207 0.01642 0.0
C57 C 0.02453 0.25447 0.02054 0.0
H58 H 0.04291 0.25537 0.10533 0.0
H59 H 0.05061 0.28033 -0.00019 0.0
O60 O 0.09308 0.29897 0.08964 0.0
O61 O 0.06921 0.2788 0.1323 0.0
O62 O 0.06832 0.29581 0.06111 0.0
O63 O 0.07606 0.27768 0.03044 0.0
H64 H 0.11091 0.29455 0.0757 0.0
H65 H 0.09976 0.32078 0.05843 0.0
H66 H 0.13045 0.30877 0.04115 0.0
H67 H 0.11958 0.3346 0.02463 0.0
H68 H 0.06341 0.2429 0.18244 0.0
H69 H 0.07848 0.28576 0.21417 0.0
H70 H 0.06174 0.25566 0.12331 0.0
H71 H 0.07978 0.27246 0.27185 0.0
H72 H 0.10064 0.33448 0.19682 0.0
H73 H 0.06823 0.3081 0.26402 0.0
H74 H 0.10469 0.25951 0.05692 0.0
H75 H 0.11353 0.27907 0.18313 0.0
H76 H 0.04779 0.28725 0.10548 0.0
H77 H 0.07865 0.31946 0.05717 0.0
H78 H 0.04 0.29974 0.13876 0.0
H79 H 0.07034 0.33139 0.09141 0.0
H80 H 0.07042 0.28154 0.94841 0.0
H81 H 0.06517 0.25425 0.04475 0.0
H82 H 0.05667 0.26558 0.89567 0.0
H83 H 0.05143 0.23877 0.99045 0.0
H84 H 0.10944 0.31064 0.90271 0.0
H85 H 0.08087 0.31901 0.90818 0.0
H86 H 0.02218 0.24278 0.07743 0.0
H87 H 0.0304 0.26821 0.9685 0.0
Li88 Li 0.71983 0.80298 0.08801 0.0
Li89 Li 0.70721 0.78472 0.12671 0.0
Li90 Li 0.72454 0.78733 0.07887 0.0
Li91 Li 0.7065 0.78609 0.04405 0.0
C92 C 0.73121 0.8036 0.16804 0.0
N93 N 0.74447 0.82047 0.2331 0.0
C94 C 0.72579 0.80844 0.19523 0.0
C95 C 0.74333 0.80726 0.1741 0.0
C96 C 0.73266 0.81699 0.22787 0.0
C97 C 0.74989 0.81582 0.20715 0.0
C98 C 0.68988 0.78906 0.09119 0.0
C99 C 0.67022 0.77138 0.09339 0.0
N100 N 0.66516 0.77847 0.09378 0.0
C101 C 0.68447 0.79616 0.09165 0.0
C102 C 0.68269 0.77656 0.09212 0.0
C103 C 0.67197 0.79064 0.09296 0.0
C104 C 0.71855 0.82316 0.07011 0.0
N105 N 0.72596 0.81993 0.09051 0.0
C106 C 0.73985 0.84042 0.10884 0.0
C107 C 0.73656 0.82829 0.10913 0.0
C108 C 0.73222 0.84395 0.0886 0.0
C109 C 0.72148 0.83513 0.06885 0.0
H110 H 0.71031 0.81639 0.05471 0.0
H111 H 0.74254 0.82561 0.12386 0.0
C112 C 0.69663 0.76764 0.19895 0.0
N113 N 0.69811 0.77798 0.1805 0.0
C114 C 0.68968 0.76292 0.23806 0.0
C115 C 0.68593 0.77954 0.23795 0.0
C116 C 0.69302 0.78398 0.19942 0.0
C117 C 0.68419 0.76889 0.25811 0.0
H118 H 0.70084 0.76308 0.18332 0.0
H119 H 0.69438 0.79221 0.18426 0.0
C120 C 0.73325 0.8082 0.01741 0.0
N121 N 0.75246 0.8302 0.99315 0.0
C122 C 0.73212 0.81476 0.98198 0.0
C123 C 0.74417 0.81284 0.04041 0.0
C124 C 0.74192 0.82587 0.97029 0.0
C125 C 0.75377 0.82396 0.02761 0.0
C126 C 0.70695 0.76427 0.05623 0.0
C127 C 0.71168 0.76625 0.01246 0.0
C128 C 0.702 0.75284 0.07535 0.0
C129 C 0.71136 0.75674 0.98852 0.0
C130 C 0.70184 0.74356 0.05028 0.0
N131 N 0.70649 0.74568 0.00777 0.0
C132 C 0.736 0.77402 0.0984 0.0
C133 C 0.74212 0.78515 0.0301 0.0
C134 C 0.74249 0.76831 0.08739 0.0
N135 N 0.73581 0.78212 0.06946 0.0
C136 C 0.74885 0.77982 0.01813 0.0
C137 C 0.74885 0.77108 0.04642 0.0
H138 H 0.73064 0.77156 0.12887 0.0
H139 H 0.74141 0.79121 0.00673 0.0
C140 C 0.69736 0.78905 0.96229 0.0
N141 N 0.69614 0.78063 0.99283 0.0
C142 C 0.69047 0.78569 0.92292 0.0
C143 C 0.68069 0.76508 0.94834 0.0
C144 C 0.68785 0.76884 0.98706 0.0
C145 C 0.68208 0.77354 0.91538 0.0
H146 H 0.70368 0.79839 0.96861 0.0
H147 H 0.68681 0.76233 0.01234 0.0
O148 O 0.72467 0.79523 0.13591 0.0
O149 O 0.70213 0.79442 0.08994 0.0
O150 O 0.72368 0.79742 0.03036 0.0
O151 O 0.70749 0.77352 0.08089 0.0
H152 H 0.71644 0.80575 0.19073 0.0
H153 H 0.74762 0.80354 0.1534 0.0
H154 H 0.72862 0.82087 0.24898 0.0
H155 H 0.75929 0.81877 0.21215 0.0
H156 H 0.66457 0.76172 0.09413 0.0
H157 H 0.68988 0.80585 0.09114 0.0
H158 H 0.68665 0.77088 0.09208 0.0
H159 H 0.66767 0.79603 0.09335 0.0
H160 H 0.74828 0.84697 0.12393 0.0
H161 H 0.71526 0.83742 0.05333 0.0
H162 H 0.68873 0.75477 0.25258 0.0
H163 H 0.68171 0.78436 0.2513 0.0
H164 H 0.72379 0.81136 0.96367 0.0
H165 H 0.74518 0.80797 0.06829 0.0
H166 H 0.74116 0.83105 0.94303 0.0
H167 H 0.76225 0.82767 0.04529 0.0
H168 H 0.71561 0.77506 0.9972 0.0
H169 H 0.69836 0.75117 0.10927 0.0
H170 H 0.71501 0.75816 0.95468 0.0
H171 H 0.69804 0.73466 0.06467 0.0
H172 H 0.74226 0.76158 0.10999 0.0
H173 H 0.75344 0.782 0.98585 0.0
H174 H 0.69162 0.79252 0.89881 0.0
H175 H 0.67431 0.75563 0.9438 0.0
Li176 Li 0.21632 0.92205 0.12885 0.0
Li177 Li 0.19787 0.9152 0.09 0.0
Li178 Li 0.2156 0.91872 0.04867 0.0
Li179 Li 0.2134 0.93594 0.0762 0.0
C180 C 0.20767 0.89881 0.12444 0.0
N181 N 0.20943 0.88338 0.18495 0.0
C182 C 0.19849 0.8924 0.15569 0.0
C183 C 0.2177 0.89729 0.12377 0.0
C184 C 0.19955 0.88465 0.18599 0.0
C185 C 0.21844 0.88949 0.15474 0.0
C186 C 0.19558 0.92868 0.1547 0.0
C187 C 0.1831 0.93757 0.16518 0.0
N188 N 0.17638 0.92888 0.19575 0.0
C189 C 0.18856 0.91984 0.18626 0.0
C190 C 0.19284 0.93763 0.14405 0.0
C191 C 0.17888 0.92009 0.2066 0.0
C192 C 0.23564 0.92486 0.18533 0.0
N193 N 0.22367 0.92096 0.18368 0.0
C194 C 0.22081 0.91198 0.25663 0.0
C195 C 0.21635 0.91502 0.21906 0.0
C196 C 0.23298 0.91537 0.25827 0.0
C197 C 0.24054 0.92221 0.22281 0.0
H198 H 0.24129 0.92963 0.15691 0.0
H199 H 0.20691 0.91205 0.21709 0.0
C200 C 0.1778 0.89285 0.07826 0.0
N201 N 0.18084 0.90427 0.08937 0.0
C202 C 0.16582 0.88396 0.07484 0.0
C203 C 0.1601 0.89871 0.09332 0.0
C204 C 0.17227 0.90739 0.09583 0.0
C205 C 0.15679 0.88682 0.08265 0.0
H206 H 0.18474 0.89066 0.07153 0.0
H207 H 0.17481 0.91662 0.10213 0.0
C208 C 0.23779 0.93687 0.0584 0.0
N209 N 0.25819 0.94365 0.0074 0.0
C210 C 0.24264 0.94731 0.03226 0.0
C211 C 0.2434 0.92996 0.059 0.0
C212 C 0.25295 0.95057 0.00663 0.0
C213 C 0.25368 0.93351 0.03285 0.0
C214 C 0.19374 0.91946 0.00666 0.0
C215 C 0.18967 0.90902 0.98099 0.0
C216 C 0.18705 0.92529 0.00811 0.0
C217 C 0.17886 0.90451 0.9574 0.0
C218 C 0.17629 0.92051 0.98398 0.0
N219 N 0.17245 0.9103 0.95939 0.0
C220 C 0.2195 0.90264 0.99517 0.0
C221 C 0.22561 0.92166 0.96252 0.0
C222 C 0.22285 0.89894 0.95615 0.0
N223 N 0.22098 0.91384 0.99761 0.0
C224 C 0.22919 0.9184 0.92309 0.0
C225 C 0.22776 0.90686 0.91932 0.0
H226 H 0.21547 0.89649 0.02311 0.0
H227 H 0.22641 0.93042 0.96508 0.0
C228 C 0.22195 0.96101 0.08879 0.0
N229 N 0.21742 0.95168 0.05922 0.0
C230 C 0.22607 0.97268 0.07307 0.0
C231 C 0.22064 0.96481 0.99715 0.0
C232 C 0.21656 0.95333 0.0143 0.0
C233 C 0.22565 0.97468 0.02654 0.0
H234 H 0.22268 0.95943 0.12426 0.0
H235 H 0.21311 0.94576 0.9915 0.0
O236 O 0.20692 0.90663 0.09506 0.0
O237 O 0.20524 0.92876 0.13502 0.0
O238 O 0.22758 0.93342 0.08314 0.0
O239 O 0.20409 0.92379 0.03112 0.0
H240 H 0.19074 0.89357 0.15719 0.0
H241 H 0.22488 0.90216 0.09988 0.0
H242 H 0.19256 0.87971 0.21056 0.0
H243 H 0.22619 0.88831 0.15481 0.0
H244 H 0.18087 0.94443 0.1572 0.0
H245 H 0.19038 0.91272 0.19435 0.0
H246 H 0.19812 0.94451 0.1196 0.0
H247 H 0.17333 0.91326 0.23086 0.0
H248 H 0.21474 0.90672 0.28358 0.0
H249 H 0.24999 0.92494 0.22311 0.0
H250 H 0.16364 0.87489 0.06663 0.0
H251 H 0.15337 0.90129 0.09878 0.0
H252 H 0.2385 0.95284 0.03162 0.0
H253 H 0.23978 0.92186 0.079 0.0
H254 H 0.25677 0.9586 0.9861 0.0
H255 H 0.25805 0.92819 0.03273 0.0
H256 H 0.19473 0.90438 0.97978 0.0
H257 H 0.19005 0.93334 0.02816 0.0
H258 H 0.17554 0.89639 0.93762 0.0
H259 H 0.17098 0.92488 0.98499 0.0
H260 H 0.22133 0.88988 0.95448 0.0
H261 H 0.23305 0.92486 0.89589 0.0
H262 H 0.23 0.9801 0.09671 0.0
H263 H 0.2201 0.96597 0.96112 0.0
Li264 Li 0.29579 0.07979 0.95144 0.0
Li265 Li 0.27658 0.06306 0.92025 0.0
Li266 Li 0.29397 0.07733 0.87057 0.0
Li267 Li 0.28217 0.08399 0.90941 0.0
C268 C 0.29974 0.06159 0.93945 0.0
N269 N 0.31282 0.05397 0.98959 0.0
C270 C 0.29387 0.05089 0.96402 0.0
C271 C 0.31227 0.06833 0.93995 0.0
C272 C 0.30064 0.04721 0.98924 0.0
C273 C 0.31872 0.06435 0.96565 0.0
C274 C 0.27261 0.07871 0.99066 0.0
C275 C 0.25374 0.07737 0.00929 0.0
N276 N 0.25964 0.08724 0.03603 0.0
C277 C 0.27849 0.08878 0.01851 0.0
C278 C 0.26014 0.0729 0.98608 0.0
C279 C 0.27177 0.09298 0.04109 0.0
C280 C 0.31504 0.09558 0.00748 0.0
N281 N 0.30567 0.08421 0.00346 0.0
C282 C 0.30931 0.07924 0.07733 0.0
C283 C 0.30263 0.0761 0.03747 0.0
C284 C 0.31907 0.09093 0.0826 0.0
C285 C 0.3219 0.09915 0.04692 0.0
H286 H 0.317 0.10196 0.98049 0.0
H287 H 0.29492 0.06721 0.03377 0.0
C288 C 0.26018 0.0384 0.90164 0.0
N289 N 0.26465 0.04714 0.93362 0.0
C290 C 0.25252 0.02647 0.91413 0.0
C291 C 0.25415 0.03286 0.99196 0.0
C292 C 0.26167 0.04465 0.97793 0.0
C293 C 0.24961 0.02353 0.96002 0.0
H294 H 0.26282 0.04067 0.86668 0.0
H295 H 0.26557 0.05178 0.00269 0.0
C296 C 0.30881 0.10052 0.87944 0.0
N297 N 0.32693 0.11671 0.82364 0.0
C298 C 0.30661 0.10751 0.84901 0.0
C299 C 0.32027 0.10184 0.88171 0.0
C300 C 0.31588 0.11564 0.82109 0.0
C301 C 0.32929 0.11003 0.8531 0.0
C302 C 0.26693 0.07132 0.84199 0.0
C303 C 0.26909 0.08028 0.8105 0.0
C304 C 0.25512 0.06255 0.85193 0.0
C305 C 0.25938 0.08033 0.78949 0.0
C306 C 0.24566 0.06289 0.83014 0.0
N307 N 0.24797 0.0717 0.79964 0.0
C308 C 0.31044 0.07437 0.8145 0.0
C309 C 0.30222 0.08556 0.78239 0.0
C310 C 0.31823 0.07711 0.7777 0.0
N311 N 0.30286 0.07886 0.81663 0.0
C312 C 0.30998 0.08871 0.7456 0.0
C313 C 0.31824 0.08465 0.74347 0.0
H314 H 0.31073 0.06899 0.84199 0.0
H315 H 0.29611 0.08897 0.78468 0.0
C316 C 0.28493 0.10638 0.92416 0.0
N317 N 0.27645 0.09523 0.91051 0.0
C318 C 0.28225 0.11556 0.92751 0.0
C319 C 0.26195 0.10165 0.90407 0.0
C320 C 0.26501 0.09265 0.90161 0.0
C321 C 0.27067 0.11329 0.91713 0.0
H322 H 0.29383 0.10814 0.93277 0.0
H323 H 0.25821 0.08361 0.89326 0.0
O324 O 0.29326 0.06543 0.91505 0.0
O325 O 0.27906 0.0747 0.96717 0.0
O326 O 0.29979 0.09235 0.90654 0.0
O327 O 0.2763 0.07096 0.86229 0.0
H328 H 0.2842 0.04549 0.96374 0.0
H329 H 0.31697 0.0766 0.92106 0.0
H330 H 0.2962 0.03898 0.00857 0.0
H331 H 0.32841 0.06954 0.9666 0.0
H332 H 0.2441 0.07302 0.00587 0.0
H333 H 0.28815 0.09339 0.02218 0.0
H334 H 0.25549 0.06514 0.96437 0.0
H335 H 0.2762 0.10082 0.06253 0.0
H336 H 0.30685 0.07257 0.10369 0.0
H337 H 0.32915 0.10833 0.04982 0.0
H338 H 0.24911 0.0196 0.88824 0.0
H339 H 0.25239 0.03106 0.02773 0.0
H340 H 0.29777 0.10651 0.84627 0.0
H341 H 0.32216 0.09654 0.90507 0.0
H342 H 0.31427 0.12104 0.79716 0.0
H343 H 0.33816 0.11108 0.85431 0.0
H344 H 0.27813 0.08726 0.80289 0.0
H345 H 0.25325 0.05558 0.87634 0.0
H346 H 0.26092 0.08725 0.76525 0.0
H347 H 0.23648 0.05617 0.83756 0.0
H348 H 0.32451 0.07383 0.77696 0.0
H349 H 0.30972 0.0945 0.71953 0.0
H350 H 0.28925 0.12442 0.93759 0.0
H351 H 0.25285 0.0995 0.89662 0.0
Li352 Li 0.91894 0.21236 0.95113 0.0
Li353 Li 0.93594 0.21116 0.91581 0.0
Li354 Li 0.9209 0.21391 0.86977 0.0
Li355 Li 0.9153 0.19518 0.90556 0.0
C356 C 0.93632 0.23494 0.94072 0.0
N357 N 0.94339 0.25495 0.99445 0.0
C358 C 0.94654 0.2392 0.96789 0.0
C359 C 0.92976 0.24093 0.94061 0.0
C360 C 0.94995 0.24932 0.99485 0.0
C361 C 0.93346 0.251 0.96811 0.0
C362 C 0.92052 0.19048 0.98582 0.0
C363 C 0.92039 0.17194 0.99949 0.0
N364 N 0.91122 0.16864 0.02935 0.0
C365 C 0.91114 0.18693 0.01676 0.0
C366 C 0.92523 0.18296 0.97717 0.0
C367 C 0.90655 0.17584 0.03839 0.0
C368 C 0.90326 0.21549 0.00949 0.0
N369 N 0.91453 0.21724 0.00479 0.0
C370 C 0.91972 0.2253 0.07945 0.0
C371 C 0.92268 0.22187 0.03891 0.0
C372 C 0.90817 0.22367 0.0852 0.0
C373 C 0.89987 0.21866 0.04967 0.0
H374 H 0.89686 0.21148 0.98231 0.0
H375 H 0.93144 0.22278 0.03475 0.0
C376 C 0.96068 0.22472 0.8984 0.0
N377 N 0.95226 0.21612 0.92554 0.0
C378 C 0.97279 0.23025 0.91018 0.0
C379 C 0.96734 0.21749 0.97621 0.0
C380 C 0.95533 0.21228 0.96337 0.0
C381 C 0.9762 0.22684 0.95017 0.0
H382 H 0.95791 0.22771 0.86896 0.0
H383 H 0.94842 0.20564 0.9849 0.0
C384 C 0.89752 0.20446 0.88253 0.0
N385 N 0.88014 0.20597 0.83272 0.0
C386 C 0.88985 0.19502 0.85415 0.0
C387 C 0.89628 0.21463 0.88579 0.0
C388 C 0.88113 0.19596 0.82924 0.0
C389 C 0.88747 0.21524 0.86023 0.0
C390 C 0.9288 0.19464 0.83463 0.0
C391 C 0.92109 0.18873 0.79844 0.0
C392 C 0.93763 0.19182 0.84626 0.0
C393 C 0.9223 0.18001 0.77465 0.0
C394 C 0.93856 0.18306 0.82158 0.0
N395 N 0.93093 0.17738 0.78662 0.0
C396 C 0.92393 0.23351 0.81452 0.0
C397 C 0.9112 0.21407 0.78484 0.0
C398 C 0.92122 0.23873 0.77822 0.0
N399 N 0.91872 0.22137 0.81754 0.0
C400 C 0.90805 0.21886 0.74866 0.0
C401 C 0.91295 0.23131 0.74544 0.0
H402 H 0.92999 0.23914 0.84072 0.0
H403 H 0.90731 0.20447 0.78768 0.0
C404 C 0.89382 0.17493 0.92388 0.0
N405 N 0.90454 0.17813 0.90408 0.0
C406 C 0.88489 0.16294 0.92628 0.0
C407 C 0.89818 0.15752 0.88877 0.0
C408 C 0.90695 0.16968 0.88749 0.0
C409 C 0.88697 0.15406 0.9083 0.0
H410 H 0.8922 0.18175 0.93792 0.0
H411 H 0.91567 0.17228 0.87382 0.0
O412 O 0.93271 0.22494 0.9146 0.0
O413 O 0.92487 0.20112 0.96325 0.0
O414 O 0.90625 0.2038 0.90667 0.0
O415 O 0.92792 0.20337 0.85779 0.0
H416 H 0.95171 0.23469 0.96862 0.0
H417 H 0.92186 0.23779 0.91971 0.0
H418 H 0.9578 0.25267 0.01622 0.0
H419 H 0.92842 0.25567 0.96853 0.0
H420 H 0.92388 0.16599 0.9929 0.0
H421 H 0.90735 0.19262 0.0236 0.0
H422 H 0.93241 0.18553 0.95293 0.0
H423 H 0.89924 0.17295 0.06223 0.0
H424 H 0.9263 0.22895 0.10635 0.0
H425 H 0.89087 0.21727 0.05283 0.0
H426 H 0.97938 0.2374 0.88912 0.0
H427 H 0.96959 0.21473 0.00757 0.0
H428 H 0.89076 0.18714 0.85066 0.0
H429 H 0.90211 0.22201 0.90755 0.0
H430 H 0.8752 0.18876 0.80692 0.0
H431 H 0.88647 0.22309 0.86223 0.0
H432 H 0.9142 0.19077 0.78901 0.0
H433 H 0.94368 0.1963 0.87409 0.0
H434 H 0.91636 0.17532 0.74671 0.0
H435 H 0.94533 0.18076 0.83028 0.0
H436 H 0.92518 0.24839 0.7766 0.0
H437 H 0.90173 0.21288 0.72364 0.0
H438 H 0.87633 0.16068 0.94133 0.0
H439 H 0.90019 0.1509 0.87516 0.0
Li440 Li 0.78555 0.71997 0.92584 0.0
Li441 Li 0.78756 0.70348 0.95678 0.0
Li442 Li 0.80301 0.71856 0.90618 0.0
Li443 Li 0.78327 0.70349 0.87749 0.0
C444 C 0.79968 0.72912 0.99807 0.0
N445 N 0.8019 0.74602 0.06075 0.0
C446 C 0.79368 0.72548 0.03947 0.0
C447 C 0.80693 0.74134 0.98878 0.0
C448 C 0.79489 0.73417 0.07067 0.0
C449 C 0.8079 0.74975 0.02084 0.0
C450 C 0.7622 0.69609 0.91138 0.0
C451 C 0.74528 0.67692 0.89136 0.0
N452 N 0.7402 0.68262 0.86985 0.0
C453 C 0.75683 0.70178 0.88916 0.0
C454 C 0.7564 0.68357 0.91262 0.0
C455 C 0.74569 0.6948 0.86837 0.0
C456 C 0.78185 0.74034 0.92186 0.0
N457 N 0.77934 0.72998 0.94311 0.0
C458 C 0.76742 0.73278 0.99823 0.0
C459 C 0.77218 0.72606 0.98021 0.0
C460 C 0.76983 0.74356 0.97733 0.0
C461 C 0.77713 0.74731 0.93846 0.0
H462 H 0.78749 0.74318 0.89214 0.0
H463 H 0.77033 0.71776 0.99627 0.0
C464 C 0.79378 0.694 0.03234 0.0
N465 N 0.7847 0.69439 0.01028 0.0
C466 C 0.79147 0.68745 0.07236 0.0
C467 C 0.77071 0.68248 0.0674 0.0
C468 C 0.77335 0.68887 0.02701 0.0
C469 C 0.77983 0.68169 0.09023 0.0
H470 H 0.80279 0.69877 0.01885 0.0
H471 H 0.76639 0.68958 0.00929 0.0
C472 C 0.79962 0.72907 0.83331 0.0
N473 N 0.81517 0.74521 0.77033 0.0
C474 C 0.79995 0.72527 0.78931 0.0
C475 C 0.80713 0.74107 0.84519 0.0
C476 C 0.80789 0.73357 0.75797 0.0
C477 C 0.81495 0.74909 0.81291 0.0
C478 C 0.79898 0.69295 0.92145 0.0
C479 C 0.8111 0.69642 0.92618 0.0
C480 C 0.79019 0.6814 0.93456 0.0
C481 C 0.81422 0.68832 0.9443 0.0
C482 C 0.79367 0.67357 0.95258 0.0
N483 N 0.80552 0.67717 0.95705 0.0
C484 C 0.82694 0.73066 0.93304 0.0
C485 C 0.82443 0.72671 0.8544 0.0
C486 C 0.83909 0.73425 0.92999 0.0
N487 N 0.81984 0.7267 0.89577 0.0
C488 C 0.83662 0.73054 0.84957 0.0
C489 C 0.84406 0.73391 0.88799 0.0
H490 H 0.82299 0.73021 0.96575 0.0
H491 H 0.81856 0.72312 0.82555 0.0
C492 C 0.77028 0.69654 0.79342 0.0
N493 N 0.77511 0.69324 0.82757 0.0
C494 C 0.76531 0.68908 0.75567 0.0
C495 C 0.76985 0.67481 0.79032 0.0
C496 C 0.77479 0.68254 0.82693 0.0
C497 C 0.76533 0.67817 0.75342 0.0
H498 H 0.77062 0.70511 0.79486 0.0
H499 H 0.77862 0.68009 0.8544 0.0
O500 O 0.7984 0.72076 0.96667 0.0
O501 O 0.77325 0.70275 0.93076 0.0
O502 O 0.7919 0.72108 0.86443 0.0
O503 O 0.79576 0.70077 0.90368 0.0
H504 H 0.78804 0.71606 0.04723 0.0
H505 H 0.81174 0.74429 0.95711 0.0
H506 H 0.79022 0.73149 0.1027 0.0
H507 H 0.81343 0.75924 0.014 0.0
H508 H 0.7407 0.66722 0.89183 0.0
H509 H 0.76126 0.71147 0.88758 0.0
H510 H 0.76051 0.67904 0.92938 0.0
H511 H 0.74143 0.69907 0.85088 0.0
H512 H 0.76203 0.72961 0.02862 0.0
H513 H 0.77907 0.75545 0.92074 0.0
H514 H 0.7987 0.68706 0.0896 0.0
H515 H 0.76164 0.67814 0.08061 0.0
H516 H 0.79425 0.71601 0.77957 0.0
H517 H 0.80696 0.74415 0.87903 0.0
H518 H 0.80828 0.73076 0.72386 0.0
H519 H 0.82085 0.7584 0.8217 0.0
H520 H 0.81805 0.70524 0.91584 0.0
H521 H 0.78076 0.6786 0.93187 0.0
H522 H 0.82357 0.6909 0.94819 0.0
H523 H 0.78696 0.66466 0.96325 0.0
H524 H 0.84427 0.73649 0.96087 0.0
H525 H 0.84001 0.7303 0.81632 0.0
H526 H 0.76196 0.69205 0.72786 0.0
H527 H 0.76983 0.66638 0.79051 0.0
Li528 Li 0.91546 0.71964 0.91641 0.0
Li529 Li 0.91783 0.70465 0.96413 0.0
Li530 Li 0.93507 0.72189 0.92369 0.0
Li531 Li 0.92042 0.70558 0.8822 0.0
C532 C 0.92222 0.72921 0.00059 0.0
N533 N 0.91644 0.74298 0.05543 0.0
C534 C 0.91624 0.72459 0.04153 0.0
C535 C 0.92533 0.74086 0.98771 0.0
C536 C 0.91338 0.73169 0.06875 0.0
C537 C 0.9223 0.74767 0.01583 0.0
C538 C 0.89654 0.69379 0.89215 0.0
C539 C 0.88138 0.67343 0.87522 0.0
N540 N 0.87832 0.67734 0.83751 0.0
C541 C 0.89322 0.69762 0.85334 0.0
C542 C 0.89057 0.68161 0.90331 0.0
C543 C 0.884 0.68916 0.8261 0.0
C544 C 0.90507 0.73155 0.87053 0.0
N545 N 0.90552 0.7266 0.91061 0.0
C546 C 0.88943 0.72878 0.94002 0.0
C547 C 0.8979 0.72513 0.94502 0.0
C548 C 0.88851 0.73356 0.89861 0.0
C549 C 0.89649 0.73503 0.86363 0.0
H550 H 0.91097 0.73225 0.84322 0.0
H551 H 0.89807 0.72068 0.97575 0.0
C552 C 0.92124 0.69539 0.04488 0.0
N553 N 0.91277 0.69533 0.01733 0.0
C554 C 0.91787 0.68867 0.08467 0.0
C555 C 0.89713 0.68215 0.06731 0.0
C556 C 0.90091 0.689 0.0278 0.0
C557 C 0.90566 0.68189 0.09626 0.0
H558 H 0.93062 0.70065 0.03578 0.0
H559 H 0.8944 0.68928 0.0055 0.0
C560 C 0.93684 0.73244 0.8493 0.0
N561 N 0.95716 0.75214 0.81562 0.0
C562 C 0.94531 0.73091 0.82518 0.0
C563 C 0.93863 0.74398 0.85592 0.0
C564 C 0.95555 0.74098 0.80853 0.0
C565 C 0.94898 0.75383 0.8387 0.0
C566 C 0.93271 0.69568 0.914 0.0
C567 C 0.93992 0.69734 0.87625 0.0
C568 C 0.92715 0.68461 0.93624 0.0
C569 C 0.94137 0.68785 0.86116 0.0
C570 C 0.92884 0.67535 0.92015 0.0
N571 N 0.93585 0.67715 0.88324 0.0
C572 C 0.95554 0.74431 0.94774 0.0
C573 C 0.95947 0.72878 0.92774 0.0
C574 C 0.96754 0.75178 0.95996 0.0
N575 N 0.95174 0.733 0.93254 0.0
C576 C 0.97152 0.73592 0.9394 0.0
C577 C 0.97565 0.74752 0.95657 0.0
H578 H 0.94923 0.74744 0.95159 0.0
H579 H 0.95621 0.71969 0.91652 0.0
C580 C 0.91852 0.70062 0.7885 0.0
N581 N 0.91684 0.69547 0.82997 0.0
C582 C 0.91522 0.69356 0.74951 0.0
C583 C 0.90864 0.676 0.79651 0.0
C584 C 0.91196 0.68339 0.83457 0.0
C585 C 0.91016 0.68107 0.75329 0.0
H586 H 0.9222 0.71021 0.78572 0.0
H587 H 0.91036 0.67943 0.86784 0.0
O588 O 0.92502 0.72235 0.97343 0.0
O589 O 0.90575 0.70191 0.91857 0.0
O590 O 0.92692 0.7227 0.86691 0.0
O591 O 0.93117 0.70487 0.92937 0.0
H592 H 0.9138 0.71562 0.0522 0.0
H593 H 0.9298 0.74454 0.95593 0.0
H594 H 0.90873 0.72821 0.10046 0.0
H595 H 0.92456 0.75666 0.00608 0.0
H596 H 0.87673 0.66396 0.88328 0.0
H597 H 0.89784 0.707 0.84398 0.0
H598 H 0.89312 0.67848 0.93294 0.0
H599 H 0.88139 0.69198 0.7958 0.0
H600 H 0.88319 0.72723 0.96727 0.0
H601 H 0.89587 0.73851 0.83101 0.0
H602 H 0.92475 0.68888 0.10635 0.0
H603 H 0.88763 0.677 0.07475 0.0
H604 H 0.94404 0.72204 0.81961 0.0
H605 H 0.93216 0.74533 0.87445 0.0
H606 H 0.96222 0.73993 0.79003 0.0
H607 H 0.95052 0.76281 0.8438 0.0
H608 H 0.94424 0.7058 0.85842 0.0
H609 H 0.92148 0.68312 0.9653 0.0
H610 H 0.94686 0.68899 0.83182 0.0
H611 H 0.92455 0.66673 0.93692 0.0
H612 H 0.97038 0.7607 0.97268 0.0
H613 H 0.97739 0.73217 0.93695 0.0
H614 H 0.91658 0.69781 0.71677 0.0
H615 H 0.90457 0.6664 0.80093 0.0
Li616 Li 0.27877 0.19644 0.91771 0.0
Li617 Li 0.294 0.21479 0.96338 0.0
Li618 Li 0.27635 0.21365 0.92926 0.0
Li619 Li 0.29199 0.21591 0.88173 0.0
C620 C 0.26839 0.20178 0.00649 0.0
N621 N 0.25105 0.20025 0.06566 0.0
C622 C 0.27171 0.20888 0.04542 0.0
C623 C 0.25626 0.19376 0.99805 0.0
C624 C 0.26281 0.20801 0.07483 0.0
C625 C 0.24763 0.19315 0.02825 0.0
C626 C 0.30695 0.20783 0.89346 0.0
C627 C 0.32819 0.22033 0.88021 0.0
N628 N 0.3274 0.2131 0.84527 0.0
C629 C 0.30636 0.20048 0.85759 0.0
C630 C 0.31795 0.21782 0.90501 0.0
C631 C 0.31679 0.20331 0.83358 0.0
C632 C 0.27269 0.1744 0.87555 0.0
N633 N 0.27215 0.17965 0.91466 0.0
C634 C 0.26527 0.16133 0.95519 0.0
C635 C 0.26823 0.17333 0.95378 0.0
C636 C 0.26654 0.15585 0.9161 0.0
C637 C 0.26991 0.16242 0.87549 0.0
H638 H 0.27586 0.17969 0.84499 0.0
H639 H 0.26795 0.17778 0.98439 0.0
C640 C 0.30609 0.22943 0.03767 0.0
N641 N 0.30442 0.21974 0.01349 0.0
C642 C 0.31331 0.23295 0.07619 0.0
C643 C 0.31723 0.21666 0.06325 0.0
C644 C 0.30981 0.21337 0.02527 0.0
C645 C 0.31897 0.2265 0.0896 0.0
H646 H 0.3016 0.23427 0.02747 0.0
H647 H 0.30831 0.20572 0.00519 0.0
C648 C 0.26396 0.20042 0.85016 0.0
N649 N 0.24221 0.19128 0.80593 0.0
C650 C 0.26278 0.20651 0.81313 0.0
C651 C 0.25414 0.18956 0.86406 0.0
C652 C 0.25169 0.20178 0.79141 0.0
C653 C 0.24321 0.18512 0.84143 0.0
C654 C 0.29427 0.23756 0.90998 0.0
C655 C 0.28678 0.23683 0.87448 0.0
C656 C 0.30296 0.24879 0.92614 0.0
C657 C 0.28812 0.24737 0.85557 0.0
C658 C 0.30403 0.25913 0.90632 0.0
N659 N 0.29665 0.25822 0.87174 0.0
C660 C 0.26937 0.22755 0.97616 0.0
C661 C 0.25399 0.21445 0.92609 0.0
C662 C 0.26212 0.23183 0.99309 0.0
N663 N 0.26521 0.21895 0.94359 0.0
C664 C 0.24645 0.2186 0.94171 0.0
C665 C 0.25048 0.22731 0.976 0.0
H666 H 0.27829 0.23092 0.98972 0.0
H667 H 0.25076 0.20754 0.90066 0.0
C668 C 0.29747 0.21628 0.78963 0.0
N669 N 0.30115 0.22278 0.82842 0.0
C670 C 0.30455 0.22034 0.75078 0.0
C671 C 0.31893 0.23788 0.79227 0.0
C672 C 0.31158 0.23345 0.83036 0.0
C673 C 0.31553 0.23122 0.75189 0.0
H674 H 0.28921 0.20774 0.78936 0.0
H675 H 0.31437 0.23835 0.86186 0.0
O676 O 0.27696 0.20278 0.9766 0.0
O677 O 0.29677 0.20547 0.91635 0.0
O678 O 0.27481 0.20484 0.87135 0.0
O679 O 0.29316 0.22736 0.929 0.0
H680 H 0.28104 0.21511 0.05261 0.0
H681 H 0.25353 0.18812 0.96836 0.0
H682 H 0.26525 0.21354 0.10487 0.0
H683 H 0.2382 0.18705 0.02192 0.0
H684 H 0.33675 0.22808 0.88856 0.0
H685 H 0.2979 0.19277 0.84805 0.0
H686 H 0.31855 0.22368 0.93233 0.0
H687 H 0.31645 0.19775 0.80554 0.0
H688 H 0.26253 0.15655 0.98703 0.0
H689 H 0.27113 0.15862 0.84465 0.0
H690 H 0.31421 0.24047 0.09575 0.0
H691 H 0.32156 0.21154 0.07172 0.0
H692 H 0.27036 0.21476 0.80106 0.0
H693 H 0.25493 0.18459 0.89195 0.0
H694 H 0.25063 0.20643 0.76288 0.0
H695 H 0.23552 0.17676 0.85203 0.0
H696 H 0.27998 0.22822 0.86186 0.0
H697 H 0.30883 0.24949 0.95363 0.0
H698 H 0.28237 0.24694 0.82807 0.0
H699 H 0.31073 0.26789 0.91843 0.0
H700 H 0.26562 0.23867 0.0191 0.0
H701 H 0.2375 0.21488 0.92782 0.0
H702 H 0.30165 0.21481 0.72071 0.0
H703 H 0.32723 0.24636 0.79458 0.0
Li704 Li 0.80323 0.08193 0.91004 0.0
Li705 Li 0.78625 0.0811 0.9555 0.0
Li706 Li 0.78443 0.06338 0.92059 0.0
Li707 Li 0.78368 0.07825 0.87426 0.0
C708 C 0.79683 0.06562 0.995 0.0
N709 N 0.79699 0.0482 0.04897 0.0
C710 C 0.79026 0.06218 0.03525 0.0
C711 C 0.80356 0.0603 0.98235 0.0
C712 C 0.79044 0.05333 0.06204 0.0
C713 C 0.8035 0.05148 0.01006 0.0
C714 C 0.79861 0.10348 0.92442 0.0
C715 C 0.79248 0.11775 0.94508 0.0
N716 N 0.80372 0.12529 0.96096 0.0
C717 C 0.81011 0.11138 0.94075 0.0
C718 C 0.78973 0.1067 0.92637 0.0
C719 C 0.81252 0.12236 0.95914 0.0
C720 C 0.82479 0.09729 0.86664 0.0
N721 N 0.82006 0.09049 0.9043 0.0
C722 C 0.8392 0.09993 0.94039 0.0
C723 C 0.827 0.0914 0.94035 0.0
C724 C 0.84421 0.1077 0.90324 0.0
C725 C 0.83694 0.10598 0.86531 0.0
H726 H 0.81895 0.09651 0.83894 0.0
H727 H 0.82293 0.08603 0.97018 0.0
C728 C 0.77067 0.08164 0.02014 0.0
N729 N 0.78241 0.08691 0.00805 0.0
C730 C 0.76733 0.08514 0.05962 0.0
C731 C 0.78825 0.09944 0.07357 0.0
C732 C 0.79119 0.09556 0.03402 0.0
C733 C 0.77618 0.09414 0.08686 0.0
H734 H 0.7639 0.07459 0.99945 0.0
H735 H 0.80049 0.09932 0.02434 0.0
C736 C 0.79303 0.06093 0.8395 0.0
N737 N 0.79264 0.04229 0.79184 0.0
C738 C 0.78249 0.05239 0.81829 0.0
C739 C 0.8034 0.06005 0.8363 0.0
C740 C 0.78246 0.04301 0.79445 0.0
C741 C 0.80302 0.05054 0.81205 0.0
C742 C 0.76139 0.06492 0.90485 0.0
C743 C 0.75458 0.05337 0.88694 0.0
C744 C 0.75682 0.07275 0.90421 0.0
C745 C 0.74332 0.04988 0.86837 0.0
C746 C 0.74553 0.06893 0.88523 0.0
N747 N 0.73908 0.05767 0.86786 0.0
C748 C 0.76859 0.04333 0.96697 0.0
C749 C 0.7808 0.03889 0.92019 0.0
C750 C 0.76297 0.0318 0.98494 0.0
N751 N 0.7773 0.04668 0.93516 0.0
C752 C 0.7752 0.02712 0.93659 0.0
C753 C 0.76615 0.02343 0.9696 0.0
H754 H 0.76624 0.04979 0.9794 0.0
H755 H 0.78806 0.04181 0.89636 0.0
C756 C 0.78275 0.09399 0.81122 0.0
N757 N 0.77755 0.08216 0.82199 0.0
C758 C 0.77871 0.09769 0.77421 0.0
C759 C 0.7641 0.07695 0.75929 0.0
C760 C 0.7685 0.07364 0.79648 0.0
C761 C 0.76919 0.08914 0.7478 0.0
H762 H 0.79012 0.10058 0.83124 0.0
H763 H 0.76463 0.06428 0.80503 0.0
O764 O 0.79648 0.074 0.96769 0.0
O765 O 0.79605 0.09264 0.90659 0.0
O766 O 0.79332 0.07028 0.8624 0.0
O767 O 0.77242 0.06851 0.92324 0.0
H768 H 0.78498 0.06621 0.04538 0.0
H769 H 0.80862 0.06282 0.95109 0.0
H770 H 0.78534 0.05051 0.09313 0.0
H771 H 0.80859 0.0472 0.00054 0.0
H772 H 0.78569 0.12034 0.947 0.0
H773 H 0.8171 0.10904 0.93954 0.0
H774 H 0.7808 0.1007 0.91373 0.0
H775 H 0.82137 0.12855 0.97206 0.0
H776 H 0.84451 0.10087 0.97014 0.0
H777 H 0.84034 0.11187 0.83625 0.0
H778 H 0.75793 0.08087 0.06867 0.0
H779 H 0.79534 0.10629 0.09407 0.0
H780 H 0.77439 0.05294 0.8206 0.0
H781 H 0.81165 0.06664 0.85241 0.0
H782 H 0.77435 0.03629 0.77806 0.0
H783 H 0.81096 0.04972 0.80933 0.0
H784 H 0.758 0.04721 0.88693 0.0
H785 H 0.76195 0.0817 0.91807 0.0
H786 H 0.73798 0.04099 0.85422 0.0
H787 H 0.74191 0.07491 0.88433 0.0
H788 H 0.75636 0.0296 0.01132 0.0
H789 H 0.77796 0.02103 0.92348 0.0
H790 H 0.78313 0.10716 0.76606 0.0
H791 H 0.75671 0.07004 0.74012 0.0
Li792 Li 0.72023 0.93477 0.08892 0.0
Li793 Li 0.70478 0.91968 0.13382 0.0
Li794 Li 0.72022 0.91597 0.09678 0.0
Li795 Li 0.7042 0.91737 0.05315 0.0
C796 C 0.73296 0.93642 0.16365 0.0
N797 N 0.75414 0.95404 0.20141 0.0
C798 C 0.73323 0.94599 0.1871 0.0
C799 C 0.74346 0.9358 0.15953 0.0
C800 C 0.74403 0.95481 0.2059 0.0
C801 C 0.75408 0.9448 0.17884 0.0
C802 C 0.69609 0.93296 0.11169 0.0
C803 C 0.67662 0.92882 0.13773 0.0
N804 N 0.68197 0.93887 0.16382 0.0
C805 C 0.70139 0.94326 0.13861 0.0
C806 C 0.6836 0.9257 0.11105 0.0
C807 C 0.6941 0.94609 0.16475 0.0
C808 C 0.7239 0.95573 0.05047 0.0
N809 N 0.72988 0.95159 0.07571 0.0
C810 C 0.74798 0.97054 0.06962 0.0
C811 C 0.74177 0.95868 0.08502 0.0
C812 C 0.74199 0.97505 0.04332 0.0
C813 C 0.72978 0.96739 0.03369 0.0
H814 H 0.71459 0.9498 0.04191 0.0
H815 H 0.74655 0.9551 0.10315 0.0
C816 C 0.68391 0.90613 0.18635 0.0
N817 N 0.69502 0.91604 0.18677 0.0
C818 C 0.6764 0.90323 0.22388 0.0
C819 C 0.69198 0.92066 0.26222 0.0
C820 C 0.69916 0.92327 0.22373 0.0
C821 C 0.68042 0.91053 0.26252 0.0
H822 H 0.68086 0.90047 0.15686 0.0
H823 H 0.70802 0.93107 0.22332 0.0
C824 C 0.72978 0.93296 0.01239 0.0
N825 N 0.74658 0.95073 0.95721 0.0
C826 C 0.72607 0.93721 0.97591 0.0
C827 C 0.74202 0.93766 0.02065 0.0
C828 C 0.73471 0.94622 0.94846 0.0
C829 C 0.75038 0.94666 0.99237 0.0
C830 C 0.69447 0.89477 0.0787 0.0
C831 C 0.69829 0.88682 0.06501 0.0
C832 C 0.68266 0.89197 0.06997 0.0
C833 C 0.69026 0.87623 0.04273 0.0
C834 C 0.67491 0.8813 0.04753 0.0
N835 N 0.67884 0.87372 0.03449 0.0
C836 C 0.72673 0.9005 0.1375 0.0
C837 C 0.73421 0.90647 0.06307 0.0
C838 C 0.73021 0.89182 0.1374 0.0
N839 N 0.72845 0.90731 0.10017 0.0
C840 C 0.73794 0.89798 0.06164 0.0
C841 C 0.73549 0.89017 0.09843 0.0
H842 H 0.72191 0.90124 0.16612 0.0
H843 H 0.73525 0.91187 0.03357 0.0
C844 C 0.68787 0.91709 0.98967 0.0
N845 N 0.69478 0.91217 -0.00011 0.0
C846 C 0.6811 0.91384 0.95004 0.0
C847 C 0.68869 0.9005 0.93218 0.0
C848 C 0.69546 0.90415 0.97188 0.0
C849 C 0.68145 0.90541 0.92086 0.0
H850 H 0.68772 0.92365 0.01206 0.0
H851 H 0.70127 0.90062 0.98037 0.0
O852 O 0.72243 0.92756 0.14578 0.0
O853 O 0.7031 0.92983 0.08704 0.0
O854 O 0.72147 0.9244 0.04044 0.0
O855 O 0.70224 0.90524 0.10034 0.0
H856 H 0.72524 0.9467 0.19029 0.0
H857 H 0.74343 0.92847 0.14159 0.0
H858 H 0.74438 0.96229 0.22392 0.0
H859 H 0.76227 0.94444 0.17584 0.0
H860 H 0.66696 0.92324 0.13784 0.0
H861 H 0.71104 0.94896 0.13962 0.0
H862 H 0.67936 0.91763 0.09071 0.0
H863 H 0.69809 0.95401 0.18591 0.0
H864 H 0.75738 0.97607 0.07807 0.0
H865 H 0.72482 0.97022 0.01235 0.0
H866 H 0.66763 0.89523 0.22295 0.0
H867 H 0.69538 0.92656 0.29124 0.0
H868 H 0.71663 0.93369 0.96924 0.0
H869 H 0.74502 0.93453 0.04903 0.0
H870 H 0.73198 0.94967 0.92029 0.0
H871 H 0.75988 0.95045 0.99854 0.0
H872 H 0.70736 0.88878 0.07134 0.0
H873 H 0.67959 0.89811 0.07932 0.0
H874 H 0.69312 0.87002 0.03191 0.0
H875 H 0.66579 0.87909 0.04021 0.0
H876 H 0.72797 0.8859 0.16627 0.0
H877 H 0.74211 0.89713 0.03115 0.0
H878 H 0.67559 0.91779 0.94244 0.0
H879 H 0.6893 0.8941 0.91016 0.0
Li880 Li 0.08008 0.7865 0.04568 0.0
Li881 Li 0.08226 0.80462 0.08681 0.0
Li882 Li 0.07776 0.78545 0.1262 0.0
Li883 Li 0.06305 0.78617 0.08077 0.0
C884 C 0.10278 0.79898 0.07086 0.0
N885 N 0.12363 0.80343 0.02725 0.0
C886 C 0.11104 0.81058 0.05643 0.0
C887 C 0.1052 0.78966 0.06337 0.0
C888 C 0.12151 0.81265 0.03442 0.0
C889 C 0.11576 0.79208 0.04116 0.0
C890 C 0.06544 0.79679 0.00101 0.0
C891 C 0.05342 0.80484 0.97186 0.0
N892 N 0.04839 0.79569 0.94146 0.0
C893 C 0.06024 0.78752 0.96927 0.0
C894 C 0.06206 0.80555 0.00226 0.0
C895 C 0.0516 0.7871 0.93954 0.0
C896 C 0.08077 0.77009 0.98415 0.0
N897 N 0.08524 0.78191 0.99321 0.0
C898 C 0.09705 0.78748 0.92587 0.0
C899 C 0.09309 0.79059 0.96475 0.0
C900 C 0.09271 0.77532 0.91576 0.0
C901 C 0.0844 0.76657 0.94544 0.0
H902 H 0.07429 0.76338 0.00675 0.0
H903 H 0.09633 0.79992 0.9725 0.0
C904 C 0.09741 0.82692 0.12661 0.0
N905 N 0.09143 0.82151 0.08801 0.0
C906 C 0.1065 0.83892 0.12588 0.0
C907 C 0.10256 0.83968 0.04634 0.0
C908 C 0.09356 0.82766 0.0486 0.0
C909 C 0.10949 0.84531 0.08491 0.0
H910 H 0.09566 0.82168 0.15718 0.0
H911 H 0.08884 0.82303 0.01824 0.0
C912 C 0.06431 0.76344 0.10612 0.0
N913 N 0.05878 0.74383 0.16015 0.0
C914 C 0.05403 0.75847 0.13322 0.0
C915 C 0.07174 0.7584 0.10632 0.0
C916 C 0.05139 0.74855 0.1603 0.0
C917 C 0.0688 0.7485 0.13394 0.0
C918 C 0.06175 0.79775 0.15342 0.0
C919 C 0.05184 0.78841 0.17519 0.0
C920 C 0.06267 0.809 0.14969 0.0
C921 C 0.04292 0.79046 0.19251 0.0
C922 C 0.05357 0.8107 0.16756 0.0
N923 N 0.04397 0.80147 0.18838 0.0
C924 C 0.09177 0.77939 0.18103 0.0
C925 C 0.07371 0.77576 0.21604 0.0
C926 C 0.09491 0.77514 0.21893 0.0
N927 N 0.08132 0.77959 0.18009 0.0
C928 C 0.07651 0.77145 0.25488 0.0
C929 C 0.08728 0.77114 0.25671 0.0
H930 H 0.0977 0.78253 0.15228 0.0
H931 H 0.06547 0.77605 0.2146 0.0
C932 C 0.04078 0.76884 0.04925 0.0
N933 N 0.04634 0.77999 0.06787 0.0
C934 C 0.02926 0.76398 0.0315 0.0
C935 C 0.02917 0.78205 0.05298 0.0
C936 C 0.04077 0.78661 0.07016 0.0
C937 C 0.02338 0.77068 0.03256 0.0
H938 H 0.04549 0.76389 0.04638 0.0
H939 H 0.04551 0.79565 0.08315 0.0
O940 O 0.09239 0.79675 0.09208 0.0
O941 O 0.07362 0.79713 0.03131 0.0
O942 O 0.06722 0.77336 0.08035 0.0
O943 O 0.07064 0.79597 0.13662 0.0
H944 H 0.10942 0.81795 0.06209 0.0
H945 H 0.09887 0.78059 0.07369 0.0
H946 H 0.12795 0.82159 0.023 0.0
H947 H 0.11767 0.78493 0.03479 0.0
H948 H 0.05064 0.81151 0.97264 0.0
H949 H 0.06272 0.78063 0.96808 0.0
H950 H 0.06593 0.81272 0.02695 0.0
H951 H 0.04741 0.77993 0.91506 0.0
H952 H 0.10354 0.79454 0.90426 0.0
H953 H 0.08058 0.75709 0.93852 0.0
H954 H 0.11172 0.84284 0.15623 0.0
H955 H 0.10452 0.84431 0.01419 0.0
H956 H 0.04821 0.76228 0.13367 0.0
H957 H 0.07977 0.76219 0.08586 0.0
H958 H 0.0435 0.74464 0.18159 0.0
H959 H 0.07452 0.74457 0.13468 0.0
H960 H 0.05097 0.77964 0.17828 0.0
H961 H 0.07028 0.81634 0.13302 0.0
H962 H 0.03516 0.78329 0.2092 0.0
H963 H 0.05414 0.81936 0.1648 0.0
H964 H 0.10321 0.7749 0.21842 0.0
H965 H 0.07042 0.76859 0.28337 0.0
H966 H 0.02507 0.75513 0.01642 0.0
H967 H 0.02499 0.78755 0.0539 0.0
Li968 Li 0.21212 0.27726 0.08082 0.0
Li969 Li 0.21576 0.29389 0.13041 0.0
Li970 Li 0.19651 0.28185 0.0922 0.0
Li971 Li 0.21439 0.2958 0.04962 0.0
C972 C 0.20423 0.26733 0.15887 0.0
N973 N 0.20583 0.24858 0.19694 0.0
C974 C 0.2132 0.26963 0.19048 0.0
C975 C 0.19604 0.2555 0.14676 0.0
C976 C 0.21386 0.26002 0.20934 0.0
C977 C 0.19701 0.24614 0.16633 0.0
C978 C 0.23652 0.30021 0.05834 0.0
C979 C 0.25222 0.31938 0.03138 0.0
N980 N 0.25627 0.31367 0.00401 0.0
C981 C 0.24084 0.29453 0.02994 0.0
C982 C 0.24227 0.31274 0.05915 0.0
C983 C 0.25084 0.30149 0.00277 0.0
C984 C 0.21027 0.25685 0.03686 0.0
N985 N 0.21614 0.26518 0.06957 0.0
C986 C 0.23019 0.25837 0.07928 0.0
C987 C 0.22579 0.26593 0.09137 0.0
C988 C 0.2246 0.24995 0.04438 0.0
C989 C 0.21432 0.24905 0.02386 0.0
H990 H 0.20273 0.25656 0.01965 0.0
H991 H 0.23041 0.27282 0.11662 0.0
C992 C 0.21511 0.29943 0.22121 0.0
N993 N 0.22263 0.30232 0.18523 0.0
C994 C 0.21891 0.30632 0.26055 0.0
C995 C 0.23835 0.31862 0.2261 0.0
C996 C 0.23415 0.31151 0.18726 0.0
C997 C 0.23059 0.31621 0.26299 0.0
H998 H 0.206 0.29204 0.21862 0.0
H999 H 0.23996 0.31359 0.15827 0.0
C1000 C 0.19198 0.27407 0.00964 0.0
N1001 N 0.17044 0.26425 0.96356 0.0
C1002 C 0.18992 0.28096 0.97829 0.0
C1003 C 0.18312 0.26216 0.0174 0.0
C1004 C 0.17897 0.27584 0.95535 0.0
C1005 C 0.17228 0.25737 0.99383 0.0
C1006 C 0.20642 0.30791 0.12575 0.0
C1007 C 0.19713 0.30469 0.15692 0.0
C1008 C 0.21623 0.31959 0.126 0.0
C1009 C 0.19784 0.31321 0.18797 0.0
C1010 C 0.21662 0.32783 0.15768 0.0
N1011 N 0.2075 0.32449 0.18775 0.0
C1012 C 0.17193 0.26681 0.12081 0.0
C1013 C 0.17661 0.28387 0.07584 0.0
C1014 C 0.16008 0.26432 0.12579 0.0
N1015 N 0.1799 0.27655 0.09659 0.0
C1016 C 0.16497 0.28179 0.08024 0.0
C1017 C 0.15662 0.27207 0.10619 0.0
H1018 H 0.17485 0.2612 0.13725 0.0
H1019 H 0.18318 0.29156 0.05697 0.0
C1020 C 0.22418 0.30297 0.96265 0.0
N1021 N 0.21973 0.30611 0.99852 0.0
C1022 C 0.22788 0.31008 0.92385 0.0
C1023 C 0.22188 0.32324 0.95889 0.0
C1024 C 0.21845 0.31597 0.99731 0.0
C1025 C 0.22669 0.32033 0.92162 0.0
H1026 H 0.22473 0.29486 0.96405 0.0
H1027 H 0.2146 0.31808 0.02586 0.0
O1028 O 0.2036 0.27662 0.13932 0.0
O1029 O 0.22663 0.29355 0.08477 0.0
O1030 O 0.20253 0.279 0.03324 0.0
O1031 O 0.20607 0.2996 0.09597 0.0
H1032 H 0.21966 0.27875 0.2 0.0
H1033 H 0.18909 0.25358 0.12211 0.0
H1034 H 0.22079 0.26167 0.2337 0.0
H1035 H 0.19077 0.23694 0.15708 0.0
H1036 H 0.2567 0.32908 0.03145 0.0
H1037 H 0.23645 0.28486 0.02839 0.0
H1038 H 0.23895 0.31729 0.08033 0.0
H1039 H 0.25425 0.29721 0.98052 0.0
H1040 H 0.23825 0.25956 0.09555 0.0
H1041 H 0.20964 0.2426 0.99723 0.0
H1042 H 0.21269 0.30404 0.28848 0.0
H1043 H 0.24741 0.3262 0.22651 0.0
H1044 H 0.19663 0.29021 0.97201 0.0
H1045 H 0.18451 0.25673 0.04191 0.0
H1046 H 0.17723 0.28108 0.93113 0.0
H1047 H 0.16531 0.24819 0.99974 0.0
H1048 H 0.18955 0.29566 0.15773 0.0
H1049 H 0.22355 0.32221 0.10243 0.0
H1050 H 0.19075 0.31081 0.21246 0.0
H1051 H 0.2242 0.33686 0.15847 0.0
H1052 H 0.15385 0.25675 0.14616 0.0
H1053 H 0.16258 0.28788 0.06422 0.0
H1054 H 0.23136 0.30743 0.89548 0.0
H1055 H 0.22082 0.33108 0.95837 0.0
Li1056 Li 0.7452 0.62682 0.45842 0.0
Li1057 Li 0.7497 0.61222 0.42446 0.0
Li1058 Li 0.7497 0.62816 0.37871 0.0
Li1059 Li 0.73113 0.61127 0.40652 0.0
C1060 C 0.77132 0.63812 0.41435 0.0
N1061 N 0.79341 0.65487 0.37992 0.0
C1062 C 0.77958 0.63464 0.40121 0.0
C1063 C 0.77432 0.65013 0.41007 0.0
C1064 C 0.7907 0.64325 0.38391 0.0
C1065 C 0.78552 0.65845 0.39253 0.0
C1066 C 0.73719 0.60153 0.49681 0.0
C1067 C 0.73444 0.58208 0.51562 0.0
N1068 N 0.73976 0.58643 0.55635 0.0
C1069 C 0.74257 0.6058 0.53892 0.0
C1070 C 0.73302 0.58956 0.4851 0.0
C1071 C 0.74381 0.59803 0.56854 0.0
C1072 C 0.73814 0.63417 0.53929 0.0
N1073 N 0.74736 0.63612 0.51144 0.0
C1074 C 0.76143 0.65173 0.5594 0.0
C1075 C 0.75883 0.64468 0.52083 0.0
C1076 C 0.75217 0.64989 0.58917 0.0
C1077 C 0.74035 0.64107 0.57851 0.0
H1078 H 0.72912 0.62716 0.53144 0.0
H1079 H 0.76603 0.64592 0.49878 0.0
C1080 C 0.7588 0.5971 0.39958 0.0
N1081 N 0.75835 0.60401 0.43337 0.0
C1082 C 0.7672 0.59325 0.40117 0.0
C1083 C 0.77401 0.60315 0.47346 0.0
C1084 C 0.76552 0.60685 0.47038 0.0
C1085 C 0.77522 0.59664 0.43774 0.0
H1086 H 0.75318 0.5952 0.37011 0.0
H1087 H 0.76523 0.61269 0.496 0.0
C1088 C 0.73169 0.63506 0.42681 0.0
N1089 N 0.72286 0.64818 0.46928 0.0
C1090 C 0.71995 0.62931 0.44341 0.0
C1091 C 0.73893 0.64748 0.43161 0.0
C1092 C 0.71565 0.63611 0.46478 0.0
C1093 C 0.73431 0.65395 0.45328 0.0
C1094 C 0.73587 0.60355 0.3308 0.0
C1095 C 0.73446 0.60826 0.29017 0.0
C1096 C 0.72957 0.59115 0.33779 0.0
C1097 C 0.72665 0.60046 0.25735 0.0
C1098 C 0.72182 0.58366 0.30417 0.0
N1099 N 0.72053 0.58843 0.265 0.0
C1100 C 0.7656 0.6387 0.3046 0.0
C1101 C 0.7516 0.6453 0.31614 0.0
C1102 C 0.7704 0.64622 0.26716 0.0
N1103 N 0.7565 0.63853 0.32851 0.0
C1104 C 0.75594 0.65276 0.27845 0.0
C1105 C 0.76552 0.65336 0.2534 0.0
H1106 H 0.76912 0.63297 0.31454 0.0
H1107 H 0.74415 0.64473 0.33505 0.0
C1108 C 0.70721 0.59087 0.40846 0.0
N1109 N 0.7149 0.60153 0.38873 0.0
C1110 C 0.69554 0.58393 0.3917 0.0
C1111 C 0.70005 0.59911 0.33485 0.0
C1112 C 0.71152 0.60578 0.353 0.0
C1113 C 0.69184 0.58801 0.35418 0.0
H1114 H 0.71016 0.58773 0.43695 0.0
H1115 H 0.71787 0.61431 0.33804 0.0
O1116 O 0.76034 0.62982 0.43117 0.0
O1117 O 0.73603 0.60903 0.46714 0.0
O1118 O 0.73613 0.62856 0.40639 0.0
O1119 O 0.74325 0.61106 0.36379 0.0
H1120 H 0.77742 0.6254 0.40391 0.0
H1121 H 0.768 0.65296 0.4197 0.0
H1122 H 0.79716 0.64068 0.37349 0.0
H1123 H 0.78793 0.66775 0.38881 0.0
H1124 H 0.73133 0.57282 0.50691 0.0
H1125 H 0.74585 0.61504 0.54849 0.0
H1126 H 0.72884 0.58613 0.45262 0.0
H1127 H 0.74801 0.60122 0.60116 0.0
H1128 H 0.77066 0.65851 0.56601 0.0
H1129 H 0.73297 0.63928 0.60086 0.0
H1130 H 0.76782 0.5882 0.37304 0.0
H1131 H 0.78015 0.60614 0.50185 0.0
H1132 H 0.71425 0.6197 0.44021 0.0
H1133 H 0.74805 0.65206 0.41907 0.0
H1134 H 0.7066 0.63177 0.47795 0.0
H1135 H 0.73982 0.66356 0.45746 0.0
H1136 H 0.73924 0.61784 0.28422 0.0
H1137 H 0.73054 0.58737 0.36909 0.0
H1138 H 0.72541 0.60398 0.22586 0.0
H1139 H 0.71682 0.57405 0.30928 0.0
H1140 H 0.77784 0.64642 0.24932 0.0
H1141 H 0.75161 0.65778 0.26856 0.0
H1142 H 0.68948 0.57553 0.40819 0.0
H1143 H 0.69774 0.60256 0.30548 0.0
Li1144 Li 0.38512 0.13622 0.41792 0.0
Li1145 Li 0.37299 0.11812 0.45845 0.0
Li1146 Li 0.38974 0.12051 0.40796 0.0
Li1147 Li 0.37134 0.11901 0.37605 0.0
C1148 C 0.39738 0.13736 0.49586 0.0
N1149 N 0.41128 0.15476 0.55835 0.0
C1150 C 0.39223 0.14239 0.52345 0.0
C1151 C 0.40956 0.1411 0.50023 0.0
C1152 C 0.39942 0.15121 0.55477 0.0
C1153 C 0.41645 0.14992 0.532 0.0
C1154 C 0.3552 0.1222 0.42569 0.0
C1155 C 0.33563 0.10449 0.431 0.0
N1156 N 0.33053 0.11154 0.43233 0.0
C1157 C 0.34976 0.12926 0.42718 0.0
C1158 C 0.34807 0.1097 0.42769 0.0
C1159 C 0.33729 0.12371 0.43052 0.0
C1160 C 0.38357 0.1563 0.40096 0.0
N1161 N 0.3913 0.15317 0.41921 0.0
C1162 C 0.40551 0.17375 0.43479 0.0
C1163 C 0.40223 0.16162 0.43523 0.0
C1164 C 0.39755 0.17718 0.41687 0.0
C1165 C 0.38651 0.16827 0.39951 0.0
H1166 H 0.37508 0.14945 0.38747 0.0
H1167 H 0.40842 0.159 0.44818 0.0
C1168 C 0.36301 0.1013 0.53166 0.0
N1169 N 0.36444 0.11164 0.51342 0.0
C1170 C 0.35625 0.09663 0.57121 0.0
C1171 C 0.35265 0.11335 0.57209 0.0
C1172 C 0.35955 0.11773 0.53309 0.0
C1173 C 0.3509 0.10265 0.59189 0.0
H1174 H 0.36707 0.09667 0.51543 0.0
H1175 H 0.36085 0.12595 0.51803 0.0
C1176 C 0.39811 0.14082 0.34554 0.0
N1177 N 0.41776 0.16221 0.3186 0.0
C1178 C 0.39697 0.14763 0.31113 0.0
C1179 C 0.40926 0.14492 0.36627 0.0
C1180 C 0.407 0.15842 0.29801 0.0
C1181 C 0.41908 0.15574 0.35213 0.0
C1182 C 0.37196 0.09723 0.38825 0.0
C1183 C 0.37558 0.09875 0.34303 0.0
C1184 C 0.36769 0.08606 0.40891 0.0
C1185 C 0.37489 0.08906 0.31919 0.0
C1186 C 0.36713 0.07658 0.38391 0.0
N1187 N 0.37071 0.07826 0.33995 0.0
C1188 C 0.40455 0.1105 0.42891 0.0
C1189 C 0.40492 0.11645 0.3528 0.0
C1190 C 0.41178 0.10559 0.41786 0.0
N1191 N 0.40118 0.11565 0.39629 0.0
C1192 C 0.41208 0.11165 0.34026 0.0
C1193 C 0.41547 0.10595 0.37279 0.0
H1194 H 0.40133 0.10989 0.46314 0.0
H1195 H 0.40192 0.12039 0.32738 0.0
C1196 C 0.36201 0.12162 0.2945 0.0
N1197 N 0.36059 0.11335 0.32609 0.0
C1198 C 0.35508 0.11811 0.25527 0.0
C1199 C 0.34481 0.09771 0.28302 0.0
C1200 C 0.35202 0.10161 0.3216 0.0
C1201 C 0.34646 0.10599 0.24891 0.0
H1202 H 0.36859 0.13093 0.29974 0.0
H1203 H 0.3509 0.09522 0.34759 0.0
O1204 O 0.39053 0.12874 0.46497 0.0
O1205 O 0.36744 0.12758 0.42256 0.0
O1206 O 0.38834 0.1304 0.36002 0.0
O1207 O 0.37276 0.10665 0.41257 0.0
H1208 H 0.38283 0.13965 0.52024 0.0
H1209 H 0.41365 0.13723 0.47921 0.0
H1210 H 0.39558 0.15525 0.57615 0.0
H1211 H 0.4259 0.15294 0.53569 0.0
H1212 H 0.33002 0.09484 0.43259 0.0
H1213 H 0.35513 0.13895 0.42592 0.0
H1214 H 0.35206 0.10405 0.42696 0.0
H1215 H 0.33297 0.12908 0.43171 0.0
H1216 H 0.41418 0.18038 0.44798 0.0
H1217 H 0.38005 0.17049 0.38577 0.0
H1218 H 0.3553 0.08845 0.58545 0.0
H1219 H 0.34852 0.11821 0.58594 0.0
H1220 H 0.38845 0.14469 0.29476 0.0
H1221 H 0.41029 0.13992 0.39354 0.0
H1222 H 0.40623 0.16378 0.2715 0.0
H1223 H 0.42774 0.15903 0.36805 0.0
H1224 H 0.37893 0.10734 0.3265 0.0
H1225 H 0.36487 0.08474 0.44392 0.0
H1226 H 0.37768 0.09012 0.28419 0.0
H1227 H 0.36385 0.06788 0.39947 0.0
H1228 H 0.41427 0.10139 0.44412 0.0
H1229 H 0.4145 0.11195 0.30502 0.0
H1230 H 0.35644 0.12481 0.23021 0.0
H1231 H 0.33824 0.08828 0.27936 0.0
Li1232 Li 0.88211 0.25387 0.45636 0.0
Li1233 Li 0.86427 0.24821 0.41425 0.0
Li1234 Li 0.88159 0.25103 0.37424 0.0
Li1235 Li 0.88044 0.2683 0.40401 0.0
C1236 C 0.8775 0.23165 0.42555 0.0
N1237 N 0.88742 0.21703 0.43491 0.0
C1238 C 0.87011 0.21919 0.42743 0.0
C1239 C 0.88995 0.23666 0.4285 0.0
C1240 C 0.87529 0.21195 0.43216 0.0
C1241 C 0.89479 0.22912 0.4332 0.0
C1242 C 0.86321 0.25976 0.49123 0.0
C1243 C 0.85103 0.26689 0.52634 0.0
N1244 N 0.84585 0.25692 0.55284 0.0
C1245 C 0.85782 0.24962 0.51893 0.0
C1246 C 0.85984 0.26851 0.495 0.0
C1247 C 0.84904 0.24833 0.54981 0.0
C1248 C 0.89852 0.26044 0.53091 0.0
N1249 N 0.88813 0.25172 0.51236 0.0
C1250 C 0.88567 0.23819 0.57207 0.0
C1251 C 0.88164 0.24082 0.53237 0.0
C1252 C 0.89642 0.24694 0.59218 0.0
C1253 C 0.90285 0.25824 0.57114 0.0
H1254 H 0.90348 0.26906 0.51436 0.0
H1255 H 0.8734 0.23404 0.51702 0.0
C1256 C 0.8439 0.22688 0.39666 0.0
N1257 N 0.84726 0.23784 0.41447 0.0
C1258 C 0.83185 0.21808 0.39493 0.0
C1259 C 0.82677 0.23204 0.429 0.0
C1260 C 0.83899 0.24066 0.4297 0.0
C1261 C 0.82311 0.22057 0.41158 0.0
H1262 H 0.85064 0.22498 0.38386 0.0
H1263 H 0.8418 0.24955 0.44232 0.0
C1264 C 0.90363 0.2731 0.38642 0.0
N1265 N 0.92302 0.29023 0.33803 0.0
C1266 C 0.90237 0.27499 0.3407 0.0
C1267 C 0.91474 0.27992 0.40753 0.0
C1268 C 0.91227 0.28369 0.31682 0.0
C1269 C 0.92444 0.28853 0.38248 0.0
C1270 C 0.86062 0.25687 0.33971 0.0
C1271 C 0.8542 0.24941 0.30356 0.0
C1272 C 0.85656 0.26402 0.35997 0.0
C1273 C 0.84384 0.24924 0.28825 0.0
C1274 C 0.84617 0.2636 0.34366 0.0
N1275 N 0.84008 0.25628 0.30845 0.0
C1276 C 0.87877 0.2384 0.29451 0.0
C1277 C 0.89874 0.24813 0.32189 0.0
C1278 C 0.88211 0.23439 0.25642 0.0
N1279 N 0.8871 0.24535 0.32569 0.0
C1280 C 0.90248 0.24424 0.28444 0.0
C1281 C 0.89414 0.2374 0.25069 0.0
H1282 H 0.86953 0.23606 0.29914 0.0
H1283 H 0.90515 0.25345 0.34772 0.0
C1284 C 0.8901 0.29311 0.42409 0.0
N1285 N 0.88559 0.28462 0.3912 0.0
C1286 C 0.89495 0.30522 0.41288 0.0
C1287 C 0.89021 0.29951 0.33446 0.0
C1288 C 0.88542 0.28755 0.34718 0.0
C1289 C 0.89522 0.30857 0.36738 0.0
H1290 H 0.89017 0.2905 0.4588 0.0
H1291 H 0.8819 0.28062 0.32164 0.0
O1292 O 0.87249 0.23881 0.421 0.0
O1293 O 0.8718 0.26121 0.46071 0.0
O1294 O 0.89401 0.26477 0.41075 0.0
O1295 O 0.8706 0.25694 0.35622 0.0
H1296 H 0.86046 0.21515 0.42541 0.0
H1297 H 0.89585 0.24627 0.42743 0.0
H1298 H 0.86967 0.2023 0.43368 0.0
H1299 H 0.9044 0.23289 0.43555 0.0
H1300 H 0.8483 0.27356 0.52957 0.0
H1301 H 0.86026 0.24273 0.5161 0.0
H1302 H 0.86397 0.27643 0.47385 0.0
H1303 H 0.84473 0.24048 0.57127 0.0
H1304 H 0.88051 0.22927 0.58618 0.0
H1305 H 0.9111 0.26531 0.58557 0.0
H1306 H 0.82943 0.20932 0.38157 0.0
H1307 H 0.82028 0.23434 0.44161 0.0
H1308 H 0.89383 0.26981 0.3238 0.0
H1309 H 0.91586 0.27858 0.44293 0.0
H1310 H 0.91142 0.28525 0.28143 0.0
H1311 H 0.9331 0.29388 0.3984 0.0
H1312 H 0.85714 0.2438 0.28743 0.0
H1313 H 0.86127 0.26968 0.38848 0.0
H1314 H 0.83879 0.2435 0.26034 0.0
H1315 H 0.84292 0.26904 0.35919 0.0
H1316 H 0.87536 0.22921 0.23128 0.0
H1317 H 0.91179 0.24656 0.282 0.0
H1318 H 0.89858 0.31189 0.43946 0.0
H1319 H 0.89039 0.30163 0.29894 0.0
Li1320 Li 0.9622 0.41506 0.29839 0.0
Li1321 Li 0.94501 0.3982 0.26722 0.0
Li1322 Li 0.96059 0.41152 0.21579 0.0
Li1323 Li 0.94765 0.41756 0.2536 0.0
C1324 C 0.96174 0.39199 0.28397 0.0
N1325 N 0.9608 0.37205 0.32329 0.0
C1326 C 0.96071 0.39048 0.33089 0.0
C1327 C 0.96229 0.38335 0.25708 0.0
C1328 C 0.96024 0.38034 0.35011 0.0
C1329 C 0.96181 0.37334 0.27759 0.0
C1330 C 0.93397 0.40629 0.3277 0.0
C1331 C 0.91276 0.39767 0.3139 0.0
N1332 N 0.91118 0.3998 0.35768 0.0
C1333 C 0.93214 0.4084 0.37253 0.0
C1334 C 0.92421 0.40088 0.29808 0.0
C1335 C 0.92055 0.40505 0.38705 0.0
C1336 C 0.97001 0.42614 0.38276 0.0
N1337 N 0.97279 0.421 0.34827 0.0
C1338 C 0.98985 0.42312 0.38831 0.0
C1339 C 0.98253 0.41953 0.35007 0.0
C1340 C 0.98706 0.42822 0.42508 0.0
C1341 C 0.97706 0.42983 0.42175 0.0
H1342 H 0.96217 0.42715 0.3803 0.0
H1343 H 0.98447 0.41534 0.32216 0.0
C1344 C 0.92911 0.37316 0.25023 0.0
N1345 N 0.93401 0.38192 0.28214 0.0
C1346 C 0.92203 0.36115 0.26326 0.0
C1347 C 0.92507 0.36752 0.34141 0.0
C1348 C 0.932 0.37933 0.32695 0.0
C1349 C 0.92013 0.35823 0.30948 0.0
H1350 H 0.93097 0.37548 0.21485 0.0
H1351 H 0.93614 0.38644 0.35167 0.0
C1352 C 0.97724 0.43517 0.24996 0.0
N1353 N 0.00136 0.45219 0.2513 0.0
C1354 C 0.98085 0.44733 0.2543 0.0
C1355 C 0.98589 0.43167 0.24643 0.0
C1356 C 0.99309 0.4558 0.25486 0.0
C1357 C 0.99804 0.44041 0.24713 0.0
C1358 C 0.94083 0.40778 0.16689 0.0
C1359 C 0.94743 0.41978 0.15341 0.0
C1360 C 0.9322 0.3993 0.13781 0.0
C1361 C 0.94527 0.4231 0.11101 0.0
C1362 C 0.9303 0.40297 0.09567 0.0
N1363 N 0.93682 0.4147 0.08325 0.0
C1364 C 0.96999 0.40436 0.14141 0.0
C1365 C 0.9757 0.42494 0.14388 0.0
C1366 C 0.97724 0.40635 0.10335 0.0
N1367 N 0.96956 0.41367 0.16136 0.0
C1368 C 0.98318 0.42736 0.10664 0.0
C1369 C 0.98414 0.41804 0.08635 0.0
H1370 H 0.96482 0.39543 0.15526 0.0
H1371 H 0.97496 0.43215 0.15918 0.0
C1372 C 0.94617 0.43742 0.27658 0.0
N1373 N 0.94061 0.42746 0.25033 0.0
C1374 C 0.9425 0.44593 0.27556 0.0
C1375 C 0.92721 0.43363 0.22117 0.0
C1376 C 0.93109 0.42524 0.22375 0.0
C1377 C 0.93304 0.44418 0.24702 0.0
H1378 H 0.95364 0.43885 0.29769 0.0
H1379 H 0.92665 0.41711 0.20391 0.0
O1380 O 0.96208 0.40181 0.26445 0.0
O1381 O 0.94532 0.40961 0.31312 0.0
O1382 O 0.96529 0.42677 0.2495 0.0
O1383 O 0.94279 0.40422 0.20808 0.0
H1384 H 0.96001 0.39692 0.35224 0.0
H1385 H 0.96304 0.38433 0.22076 0.0
H1386 H 0.95936 0.37902 0.38633 0.0
H1387 H 0.96223 0.36658 0.25717 0.0
H1388 H 0.90513 0.39347 0.29135 0.0
H1389 H 0.9396 0.41258 0.39589 0.0
H1390 H 0.92542 0.39916 0.26329 0.0
H1391 H 0.919 0.40663 0.42167 0.0
H1392 H 0.99756 0.42187 0.38914 0.0
H1393 H 0.97449 0.43359 0.44943 0.0
H1394 H 0.91845 0.35422 0.23762 0.0
H1395 H 0.92373 0.36566 0.37731 0.0
H1396 H 0.97427 0.45019 0.25705 0.0
H1397 H 0.98326 0.4223 0.24304 0.0
H1398 H 0.99602 0.46524 0.25812 0.0
H1399 H 0.00482 0.43782 0.24437 0.0
H1400 H 0.95407 0.4265 0.17551 0.0
H1401 H 0.92703 0.38997 0.14774 0.0
H1402 H 0.95029 0.43236 0.10022 0.0
H1403 H 0.92365 0.3965 0.07283 0.0
H1404 H 0.97771 0.39893 0.08819 0.0
H1405 H 0.98819 0.43645 0.09382 0.0
H1406 H 0.94731 0.45401 0.29564 0.0
H1407 H 0.91983 0.43195 0.19902 0.0
Li1408 Li 0.603 0.54421 0.25105 0.0
Li1409 Li 0.58628 0.54572 0.28572 0.0
Li1410 Li 0.58258 0.52872 0.24216 0.0
Li1411 Li 0.58839 0.547 0.20319 0.0
C1412 C 0.59032 0.52344 0.31386 0.0
N1413 N 0.58654 0.50121 0.34036 0.0
C1414 C 0.58258 0.51735 0.34977 0.0
C1415 C 0.59618 0.51823 0.29159 0.0
C1416 C 0.58077 0.50611 0.36259 0.0
C1417 C 0.59416 0.50699 0.30549 0.0
C1418 C 0.60871 0.56736 0.27362 0.0
C1419 C 0.62437 0.58804 0.27994 0.0
N1420 N 0.62695 0.5858 0.32219 0.0
C1421 C 0.61151 0.56526 0.31713 0.0
C1422 C 0.61519 0.57883 0.25483 0.0
C1423 C 0.62076 0.5747 0.34113 0.0
C1424 C 0.62773 0.55776 0.23223 0.0
N1425 N 0.61946 0.54929 0.26021 0.0
C1426 C 0.63482 0.55126 0.31076 0.0
C1427 C 0.62276 0.54589 0.29865 0.0
C1428 C 0.64352 0.56041 0.28361 0.0
C1429 C 0.6399 0.56352 0.24344 0.0
H1430 H 0.6248 0.5605 0.20252 0.0
H1431 H 0.61601 0.53953 0.32135 0.0
C1432 C 0.57333 0.54275 0.36522 0.0
N1433 N 0.5813 0.55125 0.33654 0.0
C1434 C 0.5696 0.54609 0.40414 0.0
C1435 C 0.58186 0.56686 0.38209 0.0
C1436 C 0.58537 0.56311 0.34365 0.0
C1437 C 0.57399 0.5583 0.41325 0.0
H1438 H 0.56985 0.53338 0.35769 0.0
H1439 H 0.59139 0.5697 0.31964 0.0
C1440 C 0.59356 0.52784 0.16288 0.0
N1441 N 0.5905 0.51081 0.09936 0.0
C1442 C 0.58357 0.52297 0.13438 0.0
C1443 C 0.60206 0.52416 0.15887 0.0
C1444 C 0.58216 0.51433 0.10255 0.0
C1445 C 0.60033 0.51551 0.12659 0.0
C1446 C 0.56677 0.54286 0.23823 0.0
C1447 C 0.55427 0.53582 0.23686 0.0
C1448 C 0.57216 0.55537 0.23789 0.0
C1449 C 0.54736 0.54142 0.23523 0.0
C1450 C 0.56494 0.56062 0.23626 0.0
N1451 N 0.55279 0.5536 0.23498 0.0
C1452 C 0.56099 0.50875 0.26072 0.0
C1453 C 0.57352 0.50329 0.22087 0.0
C1454 C 0.55178 0.49685 0.26201 0.0
N1455 N 0.57153 0.51179 0.23989 0.0
C1456 C 0.56448 0.49123 0.22106 0.0
C1457 C 0.55343 0.48791 0.24172 0.0
H1458 H 0.55973 0.51562 0.27641 0.0
H1459 H 0.58209 0.50579 0.20586 0.0
C1460 C 0.59467 0.56433 0.13197 0.0
N1461 N 0.58603 0.55373 0.14951 0.0
C1462 C 0.59235 0.569 0.0929 0.0
C1463 C 0.57235 0.55176 0.09116 0.0
C1464 C 0.57507 0.54742 0.12982 0.0
C1465 C 0.58104 0.56267 0.07194 0.0
H1466 H 0.60334 0.56915 0.14828 0.0
H1467 H 0.56835 0.53902 0.14448 0.0
O1468 O 0.59201 0.53432 0.29986 0.0
O1469 O 0.59996 0.55817 0.24885 0.0
O1470 O 0.59516 0.53634 0.19412 0.0
O1471 O 0.5736 0.53743 0.23982 0.0
H1472 H 0.57801 0.52122 0.36763 0.0
H1473 H 0.60211 0.52276 0.26346 0.0
H1474 H 0.57477 0.50128 0.39022 0.0
H1475 H 0.59858 0.50285 0.28837 0.0
H1476 H 0.62947 0.59696 0.2658 0.0
H1477 H 0.60663 0.55643 0.33217 0.0
H1478 H 0.61318 0.58058 0.22111 0.0
H1479 H 0.62304 0.5732 0.37476 0.0
H1480 H 0.63725 0.5488 0.34242 0.0
H1481 H 0.64638 0.57056 0.22173 0.0
H1482 H 0.56328 0.53918 0.42668 0.0
H1483 H 0.58544 0.57636 0.38776 0.0
H1484 H 0.57689 0.52569 0.13722 0.0
H1485 H 0.60989 0.52793 0.18054 0.0
H1486 H 0.57442 0.51041 0.08046 0.0
H1487 H 0.60681 0.51253 0.12318 0.0
H1488 H 0.54995 0.52613 0.23693 0.0
H1489 H 0.5818 0.561 0.2387 0.0
H1490 H 0.53767 0.53608 0.23413 0.0
H1491 H 0.569 0.57029 0.23597 0.0
H1492 H 0.54336 0.49471 0.27793 0.0
H1493 H 0.56615 0.48457 0.20557 0.0
H1494 H 0.59937 0.57738 0.07909 0.0
H1495 H 0.56342 0.54667 0.07696 0.0
Li1496 Li 0.45403 0.05584 0.26107 0.0
Li1497 Li 0.45512 0.03859 0.28306 0.0
Li1498 Li 0.4716 0.05386 0.24278 0.0
Li1499 Li 0.45209 0.03998 0.20338 0.0
C1500 C 0.4729 0.06652 0.32053 0.0
N1501 N 0.48719 0.08929 0.3554 0.0
C1502 C 0.47446 0.06824 0.36725 0.0
C1503 C 0.47861 0.07639 0.29161 0.0
C1504 C 0.48172 0.07982 0.38421 0.0
C1505 C 0.4858 0.08782 0.30985 0.0
C1506 C 0.43105 0.03086 0.27507 0.0
C1507 C 0.41216 0.01228 0.27649 0.0
N1508 N 0.41031 0.01471 0.31955 0.0
C1509 C 0.42893 0.03321 0.3192 0.0
C1510 C 0.42259 0.02034 0.2534 0.0
C1511 C 0.4184 0.02491 0.34118 0.0
C1512 C 0.4452 0.07214 0.24874 0.0
N1513 N 0.44833 0.06624 0.27902 0.0
C1514 C 0.44245 0.07411 0.34081 0.0
C1515 C 0.44711 0.06714 0.32425 0.0
C1516 C 0.43898 0.0802 0.31051 0.0
C1517 C 0.44052 0.07928 0.26389 0.0
H1518 H 0.44614 0.07115 0.21291 0.0
H1519 H 0.4496 0.0623 0.34757 0.0
C1520 C 0.45857 0.03183 0.36897 0.0
N1521 N 0.45127 0.02758 0.33227 0.0
C1522 C 0.45597 0.02487 0.40796 0.0
C1523 C 0.43857 0.00908 0.3702 0.0
C1524 C 0.44162 0.01628 0.3317 0.0
C1525 C 0.44569 0.01345 0.40915 0.0
H1526 H 0.46634 0.04073 0.36819 0.0
H1527 H 0.43617 0.0129 0.30168 0.0
C1528 C 0.46732 0.06537 0.16467 0.0
N1529 N 0.47786 0.08001 0.09054 0.0
C1530 C 0.46937 0.0607 0.1252 0.0
C1531 C 0.47049 0.07747 0.16621 0.0
C1532 C 0.47475 0.06825 0.08815 0.0
C1533 C 0.47586 0.08473 0.12845 0.0
C1534 C 0.46366 0.02625 0.24611 0.0
C1535 C 0.4729 0.02707 0.27345 0.0
C1536 C 0.45409 0.01497 0.23451 0.0
C1537 C 0.47237 0.01656 0.28898 0.0
C1538 C 0.45391 0.00467 0.25065 0.0
N1539 N 0.46297 0.00568 0.27736 0.0
C1540 C 0.49449 0.06152 0.27544 0.0
C1541 C 0.49459 0.06591 0.19762 0.0
C1542 C 0.50671 0.06536 0.27417 0.0
N1543 N 0.48865 0.06164 0.23736 0.0
C1544 C 0.50686 0.06987 0.1948 0.0
C1545 C 0.51301 0.06933 0.23319 0.0
H1546 H 0.48952 0.05789 0.30643 0.0
H1547 H 0.4898 0.06581 0.16765 0.0
C1548 C 0.43488 0.03031 0.13108 0.0
N1549 N 0.44522 0.03158 0.14864 0.0
C1550 C 0.43014 0.0238 0.09109 0.0
C1551 C 0.44683 0.02015 0.08824 0.0
C1552 C 0.45121 0.02668 0.12808 0.0
C1553 C 0.43617 0.01864 0.06908 0.0
H1554 H 0.43031 0.03431 0.14822 0.0
H1555 H 0.45942 0.02785 0.14277 0.0
O1556 O 0.46569 0.05522 0.30358 0.0
O1557 O 0.44131 0.03883 0.25295 0.0
O1558 O 0.46182 0.05806 0.201 0.0
O1559 O 0.46388 0.03643 0.2314 0.0
H1560 H 0.47004 0.06073 0.39023 0.0
H1561 H 0.47758 0.07524 0.2555 0.0
H1562 H 0.48298 0.08127 0.42029 0.0
H1563 H 0.49028 0.09553 0.28777 0.0
H1564 H 0.40556 0.00408 0.26023 0.0
H1565 H 0.43542 0.04124 0.33656 0.0
H1566 H 0.42412 0.01839 0.21925 0.0
H1567 H 0.41668 0.02656 0.37547 0.0
H1568 H 0.44153 0.07468 0.37699 0.0
H1569 H 0.43783 0.08374 0.2394 0.0
H1570 H 0.46168 0.02854 0.43737 0.0
H1571 H 0.43068 0.00022 0.36968 0.0
H1572 H 0.46702 0.05139 0.12339 0.0
H1573 H 0.46881 0.08122 0.19618 0.0
H1574 H 0.47647 0.06476 0.05753 0.0
H1575 H 0.47839 0.09411 0.12925 0.0
H1576 H 0.48034 0.03572 0.2829 0.0
H1577 H 0.44678 0.01417 0.21391 0.0
H1578 H 0.47943 0.01706 0.31035 0.0
H1579 H 0.44652 0.99589 0.24218 0.0
H1580 H 0.51098 0.06455 0.30444 0.0
H1581 H 0.51138 0.07294 0.16258 0.0
H1582 H 0.42194 0.02292 0.07733 0.0
H1583 H 0.45167 0.01617 0.07299 0.0
Li1584 Li 0.58208 0.05225 0.24511 0.0
Li1585 Li 0.58358 0.03673 0.28859 0.0
Li1586 Li 0.60145 0.05376 0.25858 0.0
Li1587 Li 0.58657 0.03824 0.20908 0.0
C1588 C 0.59459 0.06519 0.32075 0.0
N1589 N 0.60343 0.08803 0.35517 0.0
C1590 C 0.59409 0.06688 0.36718 0.0
C1591 C 0.59959 0.0751 0.29179 0.0
C1592 C 0.59861 0.07851 0.38393 0.0
C1593 C 0.60401 0.08658 0.30987 0.0
C1594 C 0.56317 0.02706 0.21254 0.0
C1595 C 0.55066 0.00725 0.18165 0.0
N1596 N 0.54663 0.01196 0.14958 0.0
C1597 C 0.55884 0.03168 0.17947 0.0
C1598 C 0.55899 0.01473 0.21388 0.0
C1599 C 0.5505 0.02391 0.14789 0.0
C1600 C 0.57272 0.06565 0.20233 0.0
N1601 N 0.57338 0.06046 0.24141 0.0
C1602 C 0.55877 0.06405 0.27636 0.0
C1603 C 0.56683 0.0598 0.27835 0.0
C1604 C 0.55737 0.06887 0.23575 0.0
C1605 C 0.56467 0.06992 0.19868 0.0
H1606 H 0.578 0.06593 0.1734 0.0
H1607 H 0.56747 0.05548 0.30874 0.0
C1608 C 0.58561 0.02873 0.37438 0.0
N1609 N 0.5777 0.02688 0.34064 0.0
C1610 C 0.5818 0.0217 0.41336 0.0
C1611 C 0.56166 0.01131 0.38287 0.0
C1612 C 0.5659 0.01846 0.34421 0.0
C1613 C 0.56968 0.01286 0.41792 0.0
H1614 H 0.59491 0.03564 0.37083 0.0
H1615 H 0.55978 0.01732 0.3171 0.0
C1616 C 0.60338 0.05975 0.16691 0.0
N1617 N 0.62051 0.06706 0.09957 0.0
C1618 C 0.60971 0.05365 0.16 0.0
C1619 C 0.60575 0.06953 0.1395 0.0
C1620 C 0.61833 0.0575 0.12578 0.0
C1621 C 0.61445 0.07311 0.10568 0.0
C1622 C 0.59863 0.02836 0.27715 0.0
C1623 C 0.60967 0.03175 0.29757 0.0
C1624 C 0.58938 0.01642 0.27999 0.0
C1625 C 0.61118 0.02322 0.32143 0.0
C1626 C 0.59122 0.00816 0.30422 0.0
N1627 N 0.60199 0.01171 0.32431 0.0
C1628 C 0.61998 0.06281 0.31907 0.0
C1629 C 0.62644 0.07265 0.24836 0.0
C1630 C 0.63153 0.06943 0.3366 0.0
N1631 N 0.6177 0.06431 0.27544 0.0
C1632 C 0.63817 0.07949 0.26456 0.0
C1633 C 0.64087 0.07775 0.30902 0.0
H1634 H 0.6128 0.05626 0.34005 0.0
H1635 H 0.6244 0.07394 0.21416 0.0
C1636 C 0.58115 0.03342 0.11646 0.0
N1637 N 0.58382 0.0293 0.15446 0.0
C1638 C 0.57791 0.02663 0.07683 0.0
C1639 C 0.58055 0.0116 0.11582 0.0
C1640 C 0.58379 0.01872 0.15464 0.0
C1641 C 0.57739 0.01545 0.07633 0.0
H1642 H 0.58122 0.04187 0.1173 0.0
H1643 H 0.58595 0.01564 0.18522 0.0
O1644 O 0.59027 0.05385 0.30403 0.0
O1645 O 0.57163 0.03459 0.24287 0.0
O1646 O 0.59479 0.05615 0.19983 0.0
O1647 O 0.59697 0.03664 0.25406 0.0
H1648 H 0.59028 0.05929 0.39 0.0
H1649 H 0.6001 0.07398 0.25579 0.0
H1650 H 0.59828 0.07996 0.4198 0.0
H1651 H 0.60791 0.09434 0.28788 0.0
H1652 H 0.54743 0.99771 0.18209 0.0
H1653 H 0.562 0.04119 0.17775 0.0
H1654 H 0.56221 0.01097 0.23923 0.0
H1655 H 0.54714 0.02738 0.12191 0.0
H1656 H 0.55319 0.06287 0.30548 0.0
H1657 H 0.56387 0.07361 0.16682 0.0
H1658 H 0.58822 0.02328 0.43991 0.0
H1659 H 0.55225 0.00455 0.38511 0.0
H1660 H 0.60803 0.04606 0.18072 0.0
H1661 H 0.60091 0.07433 0.14437 0.0
H1662 H 0.6233 0.05287 0.12008 0.0
H1663 H 0.61639 0.08068 0.08426 0.0
H1664 H 0.61705 0.04085 0.29476 0.0
H1665 H 0.58079 0.01362 0.26441 0.0
H1666 H 0.61966 0.02576 0.33755 0.0
H1667 H 0.58408 0.99894 0.30714 0.0
H1668 H 0.63315 0.06797 0.37134 0.0
H1669 H 0.64511 0.08581 0.24214 0.0
H1670 H 0.57575 0.03006 0.04704 0.0
H1671 H 0.58015 0.003 0.11723 0.0
Li1672 Li 0.94453 0.52799 0.24362 0.0
Li1673 Li 0.95943 0.54447 0.28767 0.0
Li1674 Li 0.94237 0.54522 0.26141 0.0
Li1675 Li 0.95829 0.5475 0.20731 0.0
C1676 C 0.9412 0.52497 0.33532 0.0
N1677 N 0.93875 0.50777 0.39718 0.0
C1678 C 0.9495 0.52097 0.33622 0.0
C1679 C 0.93165 0.5202 0.36596 0.0
C1680 C 0.94811 0.51228 0.36771 0.0
C1681 C 0.93057 0.51152 0.39697 0.0
C1682 C 0.97283 0.53643 0.23352 0.0
C1683 C 0.99387 0.54677 0.2142 0.0
N1684 N 0.99438 0.53675 0.22467 0.0
C1685 C 0.97355 0.52619 0.24371 0.0
C1686 C 0.98305 0.54677 0.2183 0.0
C1687 C 0.98453 0.52655 0.23919 0.0
C1688 C 0.94267 0.50763 0.20372 0.0
N1689 N 0.93709 0.51122 0.23368 0.0
C1690 C 0.92419 0.491 0.25752 0.0
C1691 C 0.92768 0.50316 0.25906 0.0
C1692 C 0.93037 0.48715 0.22917 0.0
C1693 C 0.93942 0.49557 0.20079 0.0
H1694 H 0.95013 0.51426 0.18399 0.0
H1695 H 0.92329 0.50623 0.28222 0.0
C1696 C 0.96487 0.5484 0.38014 0.0
N1697 N 0.96999 0.54907 0.33923 0.0
C1698 C 0.97175 0.55171 0.41944 0.0
C1699 C 0.98928 0.55702 0.37391 0.0
C1700 C 0.98199 0.55337 0.3355 0.0
C1701 C 0.98418 0.55616 0.41678 0.0
H1702 H 0.9554 0.5454 0.38233 0.0
H1703 H 0.98601 0.55431 0.30277 0.0
C1704 C 0.92847 0.53074 0.18944 0.0
N1705 N 0.90451 0.51737 0.16632 0.0
C1706 C 0.92497 0.52985 0.14425 0.0
C1707 C 0.9198 0.52483 0.2229 0.0
C1708 C 0.9128 0.52305 0.13324 0.0
C1709 C 0.90773 0.51812 0.21052 0.0
C1710 C 0.96658 0.56734 0.28531 0.0
C1711 C 0.96178 0.56978 0.32357 0.0
C1712 C 0.97892 0.57403 0.27712 0.0
C1713 C 0.96945 0.57882 0.35329 0.0
C1714 C 0.98628 0.583 0.30764 0.0
N1715 N 0.98144 0.58518 0.34479 0.0
C1716 C 0.92557 0.54748 0.31518 0.0
C1717 C 0.93159 0.55936 0.24866 0.0
C1718 C 0.91897 0.55279 0.32945 0.0
N1719 N 0.93181 0.55095 0.27575 0.0
C1720 C 0.92514 0.56493 0.26167 0.0
C1721 C 0.91889 0.56182 0.30299 0.0
H1722 H 0.92611 0.54094 0.33637 0.0
H1723 H 0.93676 0.56199 0.21769 0.0
C1724 C 0.96608 0.54637 0.12103 0.0
N1725 N 0.96671 0.55427 0.15284 0.0
C1726 C 0.97283 0.55048 0.08148 0.0
C1727 C 0.98066 0.57084 0.1079 0.0
C1728 C 0.97367 0.56632 0.1469 0.0
C1729 C 0.98037 0.56287 0.07475 0.0
H1730 H 0.96054 0.53683 0.12705 0.0
H1731 H 0.97398 0.57239 0.17283 0.0
O1732 O 0.94222 0.53332 0.3042 0.0
O1733 O 0.96205 0.53611 0.23655 0.0
O1734 O 0.94036 0.53734 0.20059 0.0
O1735 O 0.95927 0.55828 0.25662 0.0
H1736 H 0.95695 0.52455 0.31305 0.0
H1737 H 0.92507 0.52309 0.36559 0.0
H1738 H 0.95448 0.50912 0.36871 0.0
H1739 H 0.9232 0.50775 0.42078 0.0
H1740 H 0.00186 0.55475 0.20278 0.0
H1741 H 0.96571 0.51803 0.25484 0.0
H1742 H 0.98272 0.5548 0.21047 0.0
H1743 H 0.98522 0.5187 0.24709 0.0
H1744 H 0.91709 0.48476 0.27961 0.0
H1745 H 0.9445 0.49301 0.17881 0.0
H1746 H 0.96732 0.55073 0.45153 0.0
H1747 H 0.99885 0.56071 0.36979 0.0
H1748 H 0.93159 0.53436 0.11797 0.0
H1749 H 0.92233 0.52539 0.25804 0.0
H1750 H 0.90996 0.52228 0.09839 0.0
H1751 H 0.90092 0.5135 0.23605 0.0
H1752 H 0.95227 0.56463 0.3306 0.0
H1753 H 0.9828 0.5722 0.24787 0.0
H1754 H 0.96587 0.58075 0.3832 0.0
H1755 H 0.99586 0.58818 0.3019 0.0
H1756 H 0.91441 0.55024 0.36178 0.0
H1757 H 0.92521 0.57176 0.24006 0.0
H1758 H 0.97246 0.54402 0.05713 0.0
H1759 H 0.98628 0.58045 0.1038 0.0
Li1760 Li 0.45204 0.41448 0.28465 0.0
Li1761 Li 0.46913 0.41578 0.23917 0.0
Li1762 Li 0.44947 0.4117 0.20388 0.0
Li1763 Li 0.45055 0.39694 0.24975 0.0
C1764 C 0.46396 0.43674 0.25646 0.0
N1765 N 0.46848 0.45771 0.29897 0.0
C1766 C 0.47534 0.44451 0.2741 0.0
C1767 C 0.45489 0.43967 0.26019 0.0
C1768 C 0.47744 0.45507 0.2955 0.0
C1769 C 0.45735 0.4503 0.28191 0.0
C1770 C 0.46305 0.39947 0.32425 0.0
C1771 C 0.46999 0.38556 0.33985 0.0
N1772 N 0.46356 0.38235 0.37895 0.0
C1773 C 0.45657 0.3961 0.36471 0.0
C1774 C 0.46987 0.39423 0.31177 0.0
C1775 C 0.45693 0.3874 0.39187 0.0
C1776 C 0.43638 0.41564 0.34765 0.0
N1777 N 0.44815 0.42006 0.33765 0.0
C1778 C 0.45409 0.43138 0.4062 0.0
C1779 C 0.45699 0.42772 0.36601 0.0
C1780 C 0.44199 0.42692 0.4175 0.0
C1781 C 0.43307 0.41898 0.38758 0.0
H1782 H 0.42954 0.40937 0.32497 0.0
H1783 H 0.46627 0.43084 0.35769 0.0
C1784 C 0.49067 0.4317 0.19658 0.0
N1785 N 0.48597 0.42461 0.23358 0.0
C1786 C 0.5028 0.44046 0.19562 0.0
C1787 C 0.50512 0.43391 0.26969 0.0
C1788 C 0.49293 0.42532 0.2693 0.0
C1789 C 0.5101 0.44194 0.23325 0.0
H1790 H 0.48483 0.43107 0.16915 0.0
H1791 H 0.48889 0.41972 0.29865 0.0
C1792 C 0.42737 0.39777 0.23238 0.0
N1793 N 0.40541 0.3898 0.19109 0.0
C1794 C 0.4212 0.38626 0.21368 0.0
C1795 C 0.42236 0.40521 0.2302 0.0
C1796 C 0.4101 0.3824 0.19297 0.0
C1797 C 0.41126 0.40103 0.2091 0.0
C1798 C 0.46022 0.39503 0.17039 0.0
C1799 C 0.45047 0.38618 0.14625 0.0
C1800 C 0.471 0.39488 0.17176 0.0
C1801 C 0.45165 0.37723 0.12409 0.0
C1802 C 0.47182 0.38579 0.14911 0.0
N1803 N 0.46221 0.37722 0.12597 0.0
C1804 C 0.44688 0.42703 0.14331 0.0
C1805 C 0.43479 0.40649 0.12455 0.0
C1806 C 0.44233 0.43035 0.10674 0.0
N1807 N 0.44298 0.41527 0.15184 0.0
C1808 C 0.4299 0.40939 0.08777 0.0
C1809 C 0.43363 0.42148 0.07852 0.0
H1810 H 0.45359 0.43388 0.1648 0.0
H1811 H 0.43193 0.39721 0.13152 0.0
C1812 C 0.43505 0.37697 0.29683 0.0
N1813 N 0.44367 0.38027 0.26467 0.0
C1814 C 0.42951 0.36549 0.31517 0.0
C1815 C 0.44165 0.36075 0.26652 0.0
C1816 C 0.44716 0.37249 0.24974 0.0
C1817 C 0.43267 0.3571 0.29982 0.0
H1818 H 0.4327 0.38344 0.30922 0.0
H1819 H 0.45436 0.37536 0.22561 0.0
O1820 O 0.46166 0.42627 0.23598 0.0
O1821 O 0.46253 0.40771 0.29659 0.0
O1822 O 0.43827 0.40175 0.25266 0.0
O1823 O 0.45935 0.40399 0.19153 0.0
H1824 H 0.48246 0.44239 0.27164 0.0
H1825 H 0.44603 0.43373 0.24682 0.0
H1826 H 0.4862 0.46114 0.30945 0.0
H1827 H 0.4504 0.45264 0.28528 0.0
H1828 H 0.47515 0.38135 0.33046 0.0
H1829 H 0.45122 0.40006 0.37472 0.0
H1830 H 0.47487 0.39671 0.28039 0.0
H1831 H 0.4519 0.38463 0.42312 0.0
H1832 H 0.46122 0.4374 0.42869 0.0
H1833 H 0.42364 0.4154 0.39492 0.0
H1834 H 0.50618 0.44655 0.16713 0.0
H1835 H 0.51044 0.43465 0.29917 0.0
H1836 H 0.42499 0.38042 0.21461 0.0
H1837 H 0.42704 0.41416 0.24433 0.0
H1838 H 0.40524 0.37353 0.17821 0.0
H1839 H 0.4073 0.40671 0.20698 0.0
H1840 H 0.44206 0.38616 0.14497 0.0
H1841 H 0.47865 0.40171 0.19012 0.0
H1842 H 0.44416 0.37028 0.10545 0.0
H1843 H 0.4801 0.38554 0.14993 0.0
H1844 H 0.44573 0.4398 0.10037 0.0
H1845 H 0.42317 0.40223 0.0672 0.0
H1846 H 0.42297 0.36333 0.34177 0.0
H1847 H 0.44439 0.35464 0.25344 0.0
Li1848 Li 0.38649 0.26864 0.42093 0.0
Li1849 Li 0.37103 0.25371 0.46647 0.0
Li1850 Li 0.38617 0.24966 0.42843 0.0
Li1851 Li 0.37018 0.25134 0.38575 0.0
C1852 C 0.39932 0.27012 0.4952 0.0
N1853 N 0.42067 0.28756 0.53247 0.0
C1854 C 0.39976 0.27974 0.51887 0.0
C1855 C 0.40973 0.26936 0.49059 0.0
C1856 C 0.41064 0.28847 0.53742 0.0
C1857 C 0.42044 0.27827 0.50966 0.0
C1858 C 0.36262 0.26732 0.44466 0.0
C1859 C 0.34337 0.26347 0.47217 0.0
N1860 N 0.34892 0.27377 0.4968 0.0
C1861 C 0.36814 0.27788 0.47014 0.0
C1862 C 0.35013 0.26007 0.4455 0.0
C1863 C 0.36106 0.28098 0.49629 0.0
C1864 C 0.39036 0.28954 0.38171 0.0
N1865 N 0.3963 0.28541 0.40729 0.0
C1866 C 0.41446 0.30431 0.40083 0.0
C1867 C 0.40819 0.29248 0.41656 0.0
C1868 C 0.4085 0.30881 0.37428 0.0
C1869 C 0.39629 0.30117 0.36464 0.0
H1870 H 0.38105 0.28363 0.37318 0.0
H1871 H 0.41294 0.2889 0.43495 0.0
C1872 C 0.3508 0.23969 0.52133 0.0
N1873 N 0.36138 0.25022 0.51974 0.0
C1874 C 0.34324 0.23689 0.55867 0.0
C1875 C 0.3577 0.25569 0.5928 0.0
C1876 C 0.36496 0.25817 0.55458 0.0
C1877 C 0.34665 0.24495 0.59504 0.0
H1878 H 0.34821 0.23345 0.4936 0.0
H1879 H 0.37339 0.26647 0.55256 0.0
C1880 C 0.39574 0.26656 0.34403 0.0
N1881 N 0.41268 0.28411 0.28852 0.0
C1882 C 0.39212 0.27085 0.30739 0.0
C1883 C 0.40796 0.27112 0.35228 0.0
C1884 C 0.40083 0.27975 0.27977 0.0
C1885 C 0.41639 0.28001 0.32383 0.0
C1886 C 0.36019 0.22879 0.41119 0.0
C1887 C 0.3638 0.22078 0.39613 0.0
C1888 C 0.34838 0.22616 0.4038 0.0
C1889 C 0.35555 0.2103 0.37375 0.0
C1890 C 0.34041 0.2156 0.38122 0.0
N1891 N 0.34413 0.20795 0.36679 0.0
C1892 C 0.39266 0.234 0.46814 0.0
C1893 C 0.39966 0.23981 0.3931 0.0
C1894 C 0.39602 0.22523 0.46735 0.0
N1895 N 0.39421 0.24079 0.43088 0.0
C1896 C 0.40324 0.23122 0.39092 0.0
C1897 C 0.40098 0.22346 0.42773 0.0
H1898 H 0.38807 0.23485 0.49734 0.0
H1899 H 0.40056 0.24518 0.36367 0.0
C1900 C 0.35365 0.25114 0.32319 0.0
N1901 N 0.3606 0.24623 0.33284 0.0
C1902 C 0.34688 0.248 0.28355 0.0
C1903 C 0.35453 0.23478 0.26461 0.0
C1904 C 0.36129 0.23831 0.30432 0.0
C1905 C 0.34726 0.23971 0.25378 0.0
H1906 H 0.35348 0.25762 0.34601 0.0
H1907 H 0.36714 0.23479 0.31236 0.0
O1908 O 0.38871 0.26134 0.47759 0.0
O1909 O 0.36942 0.26395 0.4199 0.0
O1910 O 0.38737 0.25812 0.37225 0.0
O1911 O 0.36818 0.23917 0.43282 0.0
H1912 H 0.39184 0.28055 0.5224 0.0
H1913 H 0.40956 0.26198 0.47247 0.0
H1914 H 0.41112 0.29599 0.55563 0.0
H1915 H 0.42857 0.2778 0.50629 0.0
H1916 H 0.33371 0.25791 0.4734 0.0
H1917 H 0.3778 0.28355 0.47011 0.0
H1918 H 0.34573 0.25183 0.42625 0.0
H1919 H 0.36521 0.2891 0.51635 0.0
H1920 H 0.42386 0.30982 0.40925 0.0
H1921 H 0.39136 0.30399 0.34309 0.0
H1922 H 0.33489 0.22841 0.55934 0.0
H1923 H 0.36063 0.26219 0.62001 0.0
H1924 H 0.38269 0.26744 0.30072 0.0
H1925 H 0.4109 0.26796 0.38076 0.0
H1926 H 0.39817 0.28322 0.25147 0.0
H1927 H 0.42588 0.28369 0.32999 0.0
H1928 H 0.37287 0.22261 0.40145 0.0
H1929 H 0.34546 0.23233 0.41451 0.0
H1930 H 0.35824 0.20404 0.36185 0.0
H1931 H 0.33129 0.21351 0.37495 0.0
H1932 H 0.39395 0.21936 0.49627 0.0
H1933 H 0.40715 0.23025 0.35992 0.0
H1934 H 0.34135 0.25196 0.27637 0.0
H1935 H 0.35518 0.22848 0.24214 0.0
Li1936 Li 0.7309 0.11949 0.40787 0.0
Li1937 Li 0.74475 0.11872 0.45875 0.0
Li1938 Li 0.74899 0.13797 0.41795 0.0
Li1939 Li 0.74804 0.12037 0.37551 0.0
C1940 C 0.727 0.12623 0.48905 0.0
N1941 N 0.70643 0.12103 0.53616 0.0
C1942 C 0.71939 0.11459 0.50478 0.0
C1943 C 0.72424 0.13526 0.49763 0.0
C1944 C 0.709 0.11213 0.52841 0.0
C1945 C 0.71378 0.13244 0.52145 0.0
C1946 C 0.73793 0.09769 0.41291 0.0
C1947 C 0.75233 0.09092 0.41773 0.0
N1948 N 0.74319 0.07935 0.41768 0.0
C1949 C 0.72869 0.08573 0.41287 0.0
C1950 C 0.74985 0.10031 0.41536 0.0
C1951 C 0.73153 0.07659 0.41532 0.0
C1952 C 0.70866 0.10141 0.37835 0.0
N1953 N 0.7141 0.11266 0.39595 0.0
C1954 C 0.69594 0.11338 0.38921 0.0
C1955 C 0.70801 0.1187 0.40159 0.0
C1956 C 0.69011 0.10173 0.37105 0.0
C1957 C 0.69663 0.09574 0.36579 0.0
H1958 H 0.71376 0.09693 0.37303 0.0
H1959 H 0.71259 0.12776 0.4146 0.0
C1960 C 0.75715 0.12099 0.53937 0.0
N1961 N 0.74779 0.11302 0.51363 0.0
C1962 C 0.76026 0.1172 0.57873 0.0
C1963 C 0.74382 0.09713 0.56508 0.0
C1964 C 0.74098 0.10133 0.52614 0.0
C1965 C 0.75365 0.10509 0.5917 0.0
H1966 H 0.76232 0.13026 0.52881 0.0
H1967 H 0.7334 0.09523 0.50577 0.0
C1968 C 0.73281 0.13068 0.33199 0.0
N1969 N 0.71502 0.13 0.2776 0.0
C1970 C 0.7277 0.1221 0.29773 0.0
C1971 C 0.72893 0.13897 0.33841 0.0
C1972 C 0.71869 0.12187 0.27068 0.0
C1973 C 0.71993 0.13847 0.31054 0.0
C1974 C 0.77139 0.13605 0.42216 0.0
C1975 C 0.77758 0.14639 0.39571 0.0
C1976 C 0.77782 0.13183 0.44663 0.0
C1977 C 0.79011 0.15235 0.39438 0.0
C1978 C 0.79034 0.13803 0.44432 0.0
N1979 N 0.79618 0.14809 0.41852 0.0
C1980 C 0.76476 0.15976 0.45972 0.0
C1981 C 0.75936 0.1616 0.38473 0.0
C1982 C 0.77386 0.17177 0.45979 0.0
N1983 N 0.75801 0.15488 0.42203 0.0
C1984 C 0.76828 0.17366 0.38344 0.0
C1985 C 0.77601 0.17875 0.4206 0.0
H1986 H 0.76366 0.15409 0.48843 0.0
H1987 H 0.75413 0.15741 0.35476 0.0
C1988 C 0.74621 0.10582 0.30239 0.0
N1989 N 0.75421 0.11576 0.32549 0.0
C1990 C 0.74982 0.10204 0.26434 0.0
C1991 C 0.76993 0.11866 0.27496 0.0
C1992 C 0.7659 0.12216 0.31264 0.0
C1993 C 0.76183 0.10852 0.25 0.0
H1994 H 0.73694 0.1009 0.31326 0.0
H1995 H 0.77212 0.13001 0.33125 0.0
O1996 O 0.73715 0.1288 0.46561 0.0
O1997 O 0.7352 0.1067 0.41087 0.0
O1998 O 0.74148 0.13088 0.35941 0.0
O1999 O 0.75912 0.13025 0.42491 0.0
H2000 H 0.72142 0.10752 0.49833 0.0
H2001 H 0.73009 0.14432 0.48572 0.0
H2002 H 0.70298 0.10315 0.54053 0.0
H2003 H 0.71148 0.13932 0.52817 0.0
H2004 H 0.76151 0.09284 0.4196 0.0
H2005 H 0.7194 0.08351 0.41128 0.0
H2006 H 0.75713 0.10946 0.41526 0.0
H2007 H 0.72446 0.06729 0.41542 0.0
H2008 H 0.69122 0.1183 0.39384 0.0
H2009 H 0.69255 0.08685 0.35107 0.0
H2010 H 0.76794 0.12361 0.59817 0.0
H2011 H 0.73837 0.08777 0.57434 0.0
H2012 H 0.73057 0.1156 0.29235 0.0
H2013 H 0.73265 0.14555 0.36523 0.0
H2014 H 0.71459 0.11523 0.24425 0.0
H2015 H 0.71677 0.14477 0.31536 0.0
H2016 H 0.77278 0.14965 0.37573 0.0
H2017 H 0.77321 0.12383 0.46715 0.0
H2018 H 0.795 0.16035 0.374 0.0
H2019 H 0.79542 0.13485 0.46309 0.0
H2020 H 0.7797 0.17524 0.48893 0.0
H2021 H 0.76956 0.17874 0.35272 0.0
H2022 H 0.7432 0.09427 0.24587 0.0
H2023 H 0.77931 0.12383 0.26562 0.0
Li2024 Li 0.87979 0.61144 0.41602 0.0
Li2025 Li 0.87953 0.62675 0.46527 0.0
Li2026 Li 0.86157 0.61226 0.42522 0.0
Li2027 Li 0.87801 0.62754 0.3846 0.0
C2028 C 0.87501 0.60573 0.50859 0.0
N2029 N 0.8846 0.59966 0.58063 0.0
C2030 C 0.88742 0.61049 0.51186 0.0
C2031 C 0.86749 0.5979 0.54197 0.0
C2032 C 0.89209 0.60731 0.54854 0.0
C2033 C 0.87251 0.59493 0.57812 0.0
C2034 C 0.90092 0.63944 0.40518 0.0
C2035 C 0.91116 0.66106 0.40293 0.0
N2036 N 0.91904 0.66105 0.3723 0.0
C2037 C 0.90914 0.63964 0.37381 0.0
C2038 C 0.90194 0.65023 0.41996 0.0
C2039 C 0.91823 0.65065 0.35754 0.0
C2040 C 0.89229 0.60444 0.36172 0.0
N2041 N 0.88645 0.60157 0.402 0.0
C2042 C 0.89021 0.58529 0.41167 0.0
C2043 C 0.88514 0.59208 0.42679 0.0
C2044 C 0.89654 0.58824 0.3705 0.0
C2045 C 0.89743 0.59791 0.3453 0.0
H2046 H 0.89276 0.61173 0.34197 0.0
H2047 H 0.8801 0.58969 0.45798 0.0
C2048 C 0.87772 0.63857 0.54168 0.0
N2049 N 0.88529 0.6359 0.51912 0.0
C2050 C 0.88164 0.64579 0.5802 0.0
C2051 C 0.90099 0.64717 0.57213 0.0
C2052 C 0.89673 0.64 0.5335 0.0
C2053 C 0.89343 0.65024 0.59574 0.0
H2054 H 0.86867 0.63516 0.52941 0.0
H2055 H 0.9026 0.63784 0.51458 0.0
C2056 C 0.86241 0.5989 0.35293 0.0
N2057 N 0.85005 0.57553 0.32186 0.0
C2058 C 0.86067 0.59657 0.30658 0.0
C2059 C 0.85789 0.58933 0.38351 0.0
C2060 C 0.85438 0.5847 0.29154 0.0
C2061 C 0.85166 0.57758 0.36711 0.0
C2062 C 0.86053 0.63293 0.41121 0.0
C2063 C 0.85541 0.62827 0.36901 0.0
C2064 C 0.85748 0.64054 0.43401 0.0
C2065 C 0.8473 0.6313 0.35038 0.0
C2066 C 0.84934 0.64337 0.41421 0.0
N2067 N 0.84446 0.63872 0.37318 0.0
C2068 C 0.84 0.60573 0.46887 0.0
C2069 C 0.83732 0.5986 0.3935 0.0
C2070 C 0.82787 0.60229 0.47203 0.0
N2071 N 0.84451 0.60409 0.42971 0.0
C2072 C 0.82512 0.59486 0.39541 0.0
C2073 C 0.82031 0.59708 0.43447 0.0
H2074 H 0.846 0.61038 0.49672 0.0
H2075 H 0.8411 0.59773 0.36215 0.0
C2076 C 0.88527 0.63379 0.29528 0.0
N2077 N 0.88276 0.63789 0.3337 0.0
C2078 C 0.88908 0.64095 0.25663 0.0
C2079 C 0.88764 0.65641 0.29787 0.0
C2080 C 0.88387 0.64895 0.33579 0.0
C2081 C 0.89032 0.65243 0.25761 0.0
H2082 H 0.88436 0.62497 0.29483 0.0
H2083 H 0.88194 0.65203 0.36703 0.0
O2084 O 0.87017 0.60879 0.47338 0.0
O2085 O 0.89173 0.62873 0.42054 0.0
O2086 O 0.86872 0.6105 0.36786 0.0
O2087 O 0.86831 0.62992 0.43075 0.0
H2088 H 0.89339 0.6165 0.48629 0.0
H2089 H 0.85787 0.59417 0.53997 0.0
H2090 H 0.90166 0.61091 0.55145 0.0
H2091 H 0.86679 0.58888 0.6042 0.0
H2092 H 0.91201 0.66947 0.41385 0.0
H2093 H 0.90851 0.63139 0.36205 0.0
H2094 H 0.89554 0.65024 0.44366 0.0
H2095 H 0.92463 0.65094 0.33315 0.0
H2096 H 0.88929 0.5779 0.43217 0.0
H2097 H 0.90192 0.6003 0.31283 0.0
H2098 H 0.87549 0.64784 0.59773 0.0
H2099 H 0.91018 0.65052 0.58275 0.0
H2100 H 0.86416 0.60388 0.28249 0.0
H2101 H 0.85915 0.59091 0.41948 0.0
H2102 H 0.85296 0.58277 0.25575 0.0
H2103 H 0.84811 0.57009 0.39038 0.0
H2104 H 0.85761 0.62234 0.35084 0.0
H2105 H 0.86134 0.6442 0.46673 0.0
H2106 H 0.84326 0.62774 0.31783 0.0
H2107 H 0.84689 0.64924 0.43151 0.0
H2108 H 0.82466 0.60439 0.50259 0.0
H2109 H 0.81963 0.59075 0.3658 0.0
H2110 H 0.89091 0.63747 0.22618 0.0
H2111 H 0.88864 0.66526 0.30026 0.0
Li2112 Li 0.41097 0.96244 0.78824 0.0
Li2113 Li 0.416 0.94796 0.7572 0.0
Li2114 Li 0.41609 0.96289 0.70466 0.0
Li2115 Li 0.39797 0.94654 0.73491 0.0
C2116 C 0.43814 0.97014 0.75247 0.0
N2117 N 0.46232 0.97872 0.73875 0.0
C2118 C 0.44192 0.96506 0.71917 0.0
C2119 C 0.44664 0.97954 0.77896 0.0
C2120 C 0.45419 0.96952 0.71274 0.0
C2121 C 0.45883 0.98378 0.77141 0.0
C2122 C 0.40329 0.93713 0.82706 0.0
C2123 C 0.39928 0.91729 0.84715 0.0
N2124 N 0.40609 0.92185 0.88496 0.0
C2125 C 0.41022 0.94161 0.86619 0.0
C2126 C 0.39774 0.92487 0.8175 0.0
C2127 C 0.41154 0.93375 0.89502 0.0
C2128 C 0.40726 0.96867 0.87744 0.0
N2129 N 0.41293 0.97281 0.83716 0.0
C2130 C 0.42396 0.99277 0.86618 0.0
C2131 C 0.42094 0.98462 0.83066 0.0
C2132 C 0.41873 0.9887 0.90899 0.0
C2133 C 0.41006 0.9765 0.91409 0.0
H2134 H 0.40084 0.95923 0.88154 0.0
H2135 H 0.42524 0.98765 0.79808 0.0
C2136 C 0.42472 0.93204 0.74052 0.0
N2137 N 0.4251 0.94029 0.77015 0.0
C2138 C 0.43309 0.92819 0.74356 0.0
C2139 C 0.44169 0.94093 0.80899 0.0
C2140 C 0.4332 0.94459 0.80452 0.0
C2141 C 0.44194 0.93293 0.77731 0.0
H2142 H 0.41841 0.92899 0.71286 0.0
H2143 H 0.43355 0.95144 0.82673 0.0
C2144 C 0.39248 0.96439 0.73541 0.0
N2145 N 0.37112 0.96457 0.73883 0.0
C2146 C 0.3886 0.96812 0.69787 0.0
C2147 C 0.38552 0.96077 0.77471 0.0
C2148 C 0.37776 0.96814 0.70026 0.0
C2149 C 0.37474 0.96093 0.77576 0.0
C2150 C 0.4029 0.93729 0.66365 0.0
C2151 C 0.40205 0.94074 0.6196 0.0
C2152 C 0.39634 0.92518 0.67575 0.0
C2153 C 0.39456 0.93202 0.58854 0.0
C2154 C 0.38893 0.91673 0.64374 0.0
N2155 N 0.38819 0.9203 0.60116 0.0
C2156 C 0.42961 0.9706 0.62363 0.0
C2157 C 0.4213 0.98243 0.6485 0.0
C2158 C 0.43399 0.9775 0.58447 0.0
N2159 N 0.42332 0.97311 0.65441 0.0
C2160 C 0.42536 0.98945 0.60951 0.0
C2161 C 0.43168 0.98692 0.57675 0.0
H2162 H 0.43086 0.96298 0.62865 0.0
H2163 H 0.41629 0.98422 0.67361 0.0
C2164 C 0.37344 0.92749 0.74282 0.0
N2165 N 0.38166 0.93657 0.71666 0.0
C2166 C 0.36165 0.92037 0.72748 0.0
C2167 C 0.36705 0.93216 0.65893 0.0
C2168 C 0.37865 0.93905 0.67564 0.0
C2169 C 0.35833 0.92267 0.68492 0.0
H2170 H 0.37602 0.92582 0.77562 0.0
H2171 H 0.38534 0.94638 0.65569 0.0
O2172 O 0.42617 0.96574 0.76004 0.0
O2173 O 0.40204 0.94472 0.79808 0.0
O2174 O 0.4029 0.96401 0.73341 0.0
O2175 O 0.41009 0.94572 0.69472 0.0
H2176 H 0.43545 0.95761 0.69904 0.0
H2177 H 0.44385 0.9835 0.80514 0.0
H2178 H 0.45724 0.96563 0.68722 0.0
H2179 H 0.46552 0.99107 0.79161 0.0
H2180 H 0.39506 0.90779 0.84009 0.0
H2181 H 0.41475 0.9511 0.87379 0.0
H2182 H 0.39231 0.92123 0.78751 0.0
H2183 H 0.41695 0.93711 0.92524 0.0
H2184 H 0.43049 0.00211 0.86034 0.0
H2185 H 0.40586 0.97293 0.94646 0.0
H2186 H 0.43299 0.922 0.71852 0.0
H2187 H 0.44849 0.94496 0.83498 0.0
H2188 H 0.39382 0.97084 0.66703 0.0
H2189 H 0.38834 0.95773 0.80387 0.0
H2190 H 0.37461 0.97096 0.67141 0.0
H2191 H 0.36924 0.9581 0.80589 0.0
H2192 H 0.40698 0.95007 0.60964 0.0
H2193 H 0.39689 0.92234 0.70961 0.0
H2194 H 0.39376 0.93458 0.55444 0.0
H2195 H 0.38374 0.90734 0.65277 0.0
H2196 H 0.43872 0.97521 0.55969 0.0
H2197 H 0.42349 0.99671 0.60481 0.0
H2198 H 0.35518 0.91327 0.74899 0.0
H2199 H 0.36498 0.93419 0.62574 0.0
Li2200 Li 0.05195 0.4688 0.76553 0.0
Li2201 Li 0.03924 0.45015 0.80253 0.0
Li2202 Li 0.05648 0.45273 0.75375 0.0
Li2203 Li 0.03798 0.45153 0.72175 0.0
C2204 C 0.06692 0.46963 0.83304 0.0
N2205 N 0.08712 0.48714 0.87663 0.0
C2206 C 0.06578 0.47577 0.86997 0.0
C2207 C 0.07835 0.47237 0.8184 0.0
C2208 C 0.0761 0.4846 0.8915 0.0
C2209 C 0.08845 0.48126 0.84086 0.0
C2210 C 0.02548 0.45975 0.7946 0.0
C2211 C 0.00515 0.44935 0.82258 0.0
N2212 N 0.00778 0.45875 0.85049 0.0
C2213 C 0.02798 0.46932 0.82353 0.0
C2214 C 0.01396 0.4497 0.79401 0.0
C2215 C 0.01891 0.46864 0.8515 0.0
C2216 C 0.05035 0.48881 0.74747 0.0
N2217 N 0.05815 0.48585 0.76632 0.0
C2218 C 0.07233 0.50659 0.77951 0.0
C2219 C 0.06911 0.49447 0.78143 0.0
C2220 C 0.06431 0.50981 0.76087 0.0
C2221 C 0.05323 0.50074 0.74448 0.0
H2222 H 0.04182 0.48185 0.73461 0.0
H2223 H 0.07544 0.49205 0.79436 0.0
C2224 C 0.02291 0.43073 0.8591 0.0
N2225 N 0.03028 0.44281 0.85619 0.0
C2226 C 0.01574 0.42567 0.89742 0.0
C2227 C 0.02405 0.44557 0.92908 0.0
C2228 C 0.03111 0.45019 0.89053 0.0
C2229 C 0.01616 0.43314 0.93296 0.0
H2230 H 0.0225 0.42503 0.83153 0.0
H2231 H 0.03698 0.45975 0.88737 0.0
C2232 C 0.06105 0.47324 0.68379 0.0
N2233 N 0.07312 0.49492 0.63886 0.0
C2234 C 0.0549 0.47665 0.65377 0.0
C2235 C 0.07334 0.48082 0.69081 0.0
C2236 C 0.06117 0.48765 0.63141 0.0
C2237 C 0.07928 0.49175 0.66781 0.0
C2238 C 0.03283 0.42915 0.73034 0.0
C2239 C 0.03852 0.425 0.70116 0.0
C2240 C 0.0203 0.4233 0.73164 0.0
C2241 C 0.03156 0.4151 0.67352 0.0
C2242 C 0.01366 0.41345 0.7034 0.0
N2243 N 0.01938 0.40959 0.67516 0.0
C2244 C 0.06734 0.43879 0.76862 0.0
C2245 C 0.07475 0.45169 0.70498 0.0
C2246 C 0.07394 0.4333 0.75641 0.0
N2247 N 0.0677 0.44763 0.74241 0.0
C2248 C 0.08159 0.44655 0.6918 0.0
C2249 C 0.08098 0.43702 0.71701 0.0
H2250 H 0.06148 0.43563 0.79777 0.0
H2251 H 0.07461 0.45853 0.68417 0.0
C2252 C 0.01821 0.44779 0.66765 0.0
N2253 N 0.02815 0.44666 0.6695 0.0
C2254 C 0.01133 0.44473 0.62828 0.0
C2255 C 0.02511 0.4395 0.59347 0.0
C2256 C 0.03176 0.44273 0.63339 0.0
C2257 C 0.01477 0.44053 0.59054 0.0
H2258 H 0.01573 0.45123 0.69645 0.0
H2259 H 0.03991 0.44227 0.63546 0.0
O2260 O 0.05692 0.46078 0.81207 0.0
O2261 O 0.03429 0.46017 0.76736 0.0
O2262 O 0.055 0.46268 0.70706 0.0
O2263 O 0.03949 0.43897 0.75707 0.0
H2264 H 0.05704 0.47383 0.88168 0.0
H2265 H 0.07944 0.46774 0.78994 0.0
H2266 H 0.07534 0.48945 0.91999 0.0
H2267 H 0.09734 0.48349 0.82981 0.0
H2268 H 0.99622 0.44159 0.82264 0.0
H2269 H 0.03688 0.4771 0.82504 0.0
H2270 H 0.01187 0.44219 0.77207 0.0
H2271 H 0.02074 0.47595 0.87422 0.0
H2272 H 0.08104 0.51335 0.7919 0.0
H2273 H 0.04673 0.50281 0.73018 0.0
H2274 H 0.00994 0.41604 0.89912 0.0
H2275 H 0.02454 0.45175 0.95495 0.0
H2276 H 0.04537 0.47092 0.64821 0.0
H2277 H 0.0782 0.47837 0.71433 0.0
H2278 H 0.05652 0.49044 0.60827 0.0
H2279 H 0.08877 0.49775 0.67315 0.0
H2280 H 0.04819 0.42943 0.69941 0.0
H2281 H 0.01575 0.42639 0.75391 0.0
H2282 H 0.03584 0.41184 0.65062 0.0
H2283 H 0.00396 0.40888 0.70389 0.0
H2284 H 0.07328 0.426 0.7768 0.0
H2285 H 0.08678 0.44956 0.66089 0.0
H2286 H 0.00339 0.44562 0.62743 0.0
H2287 H 0.02817 0.43649 0.56487 0.0
Li2288 Li 0.5496 0.58749 0.79042 0.0
Li2289 Li 0.5312 0.58128 0.75106 0.0
Li2290 Li 0.54883 0.58506 0.70822 0.0
Li2291 Li 0.54674 0.60204 0.7403 0.0
C2292 C 0.54237 0.56417 0.77204 0.0
N2293 N 0.54685 0.54714 0.80967 0.0
C2294 C 0.53376 0.55511 0.7995 0.0
C2295 C 0.55318 0.56447 0.76331 0.0
C2296 C 0.53622 0.5466 0.81833 0.0
C2297 C 0.5553 0.55581 0.78274 0.0
C2298 C 0.52929 0.59402 0.82092 0.0
C2299 C 0.51653 0.6024 0.83571 0.0
N2300 N 0.51064 0.59386 0.86778 0.0
C2301 C 0.52315 0.58537 0.85419 0.0
C2302 C 0.52599 0.60264 0.81164 0.0
C2303 C 0.51372 0.58541 0.87742 0.0
C2304 C 0.56855 0.59187 0.85254 0.0
N2305 N 0.55653 0.58551 0.84449 0.0
C2306 C 0.5534 0.5736 0.91045 0.0
C2307 C 0.54894 0.57678 0.87332 0.0
C2308 C 0.5658 0.57964 0.91862 0.0
C2309 C 0.57341 0.5891 0.88991 0.0
H2310 H 0.57439 0.59889 0.82946 0.0
H2311 H 0.53943 0.57199 0.8666 0.0
C2312 C 0.51128 0.55898 0.73809 0.0
N2313 N 0.51422 0.5702 0.75182 0.0
C2314 C 0.49935 0.54988 0.73648 0.0
C2315 C 0.49347 0.56401 0.7623 0.0
C2316 C 0.50558 0.57293 0.76284 0.0
C2317 C 0.49027 0.55232 0.74901 0.0
H2318 H 0.51825 0.55711 0.72798 0.0
H2319 H 0.508 0.58199 0.77152 0.0
C2320 C 0.57183 0.60375 0.7258 0.0
N2321 N 0.59426 0.61305 0.68669 0.0
C2322 C 0.57651 0.61416 0.69949 0.0
C2323 C 0.57866 0.5982 0.73279 0.0
C2324 C 0.58784 0.61868 0.67984 0.0
C2325 C 0.58995 0.603 0.71258 0.0
C2326 C 0.52672 0.58665 0.67106 0.0
C2327 C 0.52205 0.5765 0.64339 0.0
C2328 C 0.52032 0.59269 0.67719 0.0
C2329 C 0.51094 0.57248 0.62253 0.0
C2330 C 0.50926 0.58839 0.65568 0.0
N2331 N 0.50483 0.57845 0.62907 0.0
C2332 C 0.55001 0.56851 0.64897 0.0
C2333 C 0.56127 0.5888 0.62557 0.0
C2334 C 0.55324 0.56474 0.60988 0.0
N2335 N 0.55418 0.58037 0.65632 0.0
C2336 C 0.56476 0.58544 0.58609 0.0
C2337 C 0.56073 0.57325 0.57779 0.0
H2338 H 0.54396 0.56194 0.673 0.0
H2339 H 0.56404 0.59811 0.63125 0.0
C2340 C 0.55516 0.62672 0.75981 0.0
N2341 N 0.55096 0.61807 0.72747 0.0
C2342 C 0.55947 0.6387 0.74777 0.0
C2343 C 0.5549 0.63253 0.66967 0.0
C2344 C 0.55058 0.6207 0.68325 0.0
C2345 C 0.55961 0.64177 0.70198 0.0
H2346 H 0.55541 0.62435 0.79471 0.0
H2347 H 0.54738 0.61364 0.65821 0.0
O2348 O 0.5402 0.57269 0.75386 0.0
O2349 O 0.53867 0.59425 0.79825 0.0
O2350 O 0.56075 0.5992 0.7453 0.0
O2351 O 0.53737 0.59049 0.69296 0.0
H2352 H 0.52535 0.55475 0.80681 0.0
H2353 H 0.55984 0.57127 0.74153 0.0
H2354 H 0.52968 0.5396 0.83994 0.0
H2355 H 0.56366 0.55597 0.77634 0.0
H2356 H 0.51386 0.60899 0.82879 0.0
H2357 H 0.52554 0.57861 0.8617 0.0
H2358 H 0.53063 0.60938 0.78596 0.0
H2359 H 0.50884 0.57873 0.90307 0.0
H2360 H 0.54723 0.56638 0.93228 0.0
H2361 H 0.58302 0.59398 0.89532 0.0
H2362 H 0.49725 0.54096 0.72612 0.0
H2363 H 0.48668 0.56627 0.77144 0.0
H2364 H 0.57144 0.61866 0.69401 0.0
H2365 H 0.57535 0.59032 0.75388 0.0
H2366 H 0.59152 0.62668 0.65916 0.0
H2367 H 0.5953 0.59876 0.71762 0.0
H2368 H 0.52689 0.57171 0.63856 0.0
H2369 H 0.52381 0.60052 0.6988 0.0
H2370 H 0.50716 0.56459 0.60125 0.0
H2371 H 0.50416 0.59292 0.66031 0.0
H2372 H 0.54968 0.55523 0.60438 0.0
H2373 H 0.57056 0.59232 0.56235 0.0
H2374 H 0.56284 0.64548 0.77397 0.0
H2375 H 0.55502 0.63443 0.63396 0.0
Li2376 Li 0.63034 0.74691 0.62022 0.0
Li2377 Li 0.61096 0.7299 0.591 0.0
Li2378 Li 0.62804 0.74395 0.53934 0.0
Li2379 Li 0.61636 0.75073 0.57825 0.0
C2380 C 0.63421 0.72843 0.60804 0.0
N2381 N 0.64746 0.72058 0.65574 0.0
C2382 C 0.62842 0.71788 0.63349 0.0
C2383 C 0.64674 0.7349 0.6064 0.0
C2384 C 0.63528 0.71408 0.65747 0.0
C2385 C 0.65328 0.73081 0.63089 0.0
C2386 C 0.60746 0.74616 0.66047 0.0
C2387 C 0.58881 0.74514 0.68047 0.0
N2388 N 0.59498 0.75524 0.70585 0.0
C2389 C 0.61362 0.75648 0.68693 0.0
C2390 C 0.59497 0.7404 0.65728 0.0
C2391 C 0.60714 0.76095 0.70954 0.0
C2392 C 0.64957 0.76314 0.67573 0.0
N2393 N 0.64051 0.75162 0.67156 0.0
C2394 C 0.64476 0.74675 0.74463 0.0
C2395 C 0.63792 0.74348 0.70517 0.0
C2396 C 0.65421 0.7586 0.75005 0.0
C2397 C 0.65658 0.76685 0.71484 0.0
H2398 H 0.65116 0.76954 0.64918 0.0
H2399 H 0.63041 0.73447 0.70154 0.0
C2400 C 0.59455 0.70486 0.57672 0.0
N2401 N 0.59913 0.71407 0.60683 0.0
C2402 C 0.58699 0.6931 0.59166 0.0
C2403 C 0.58898 0.70065 0.66793 0.0
C2404 C 0.59638 0.71222 0.65154 0.0
C2405 C 0.58436 0.6909 0.638 0.0
H2406 H 0.59705 0.7066 0.54145 0.0
H2407 H 0.60033 0.7197 0.6748 0.0
C2408 C 0.6433 0.76726 0.5482 0.0
N2409 N 0.66207 0.78337 0.49455 0.0
C2410 C 0.64158 0.77454 0.51757 0.0
C2411 C 0.6546 0.76826 0.55182 0.0
C2412 C 0.65118 0.78262 0.49072 0.0
C2413 C 0.66396 0.77642 0.5243 0.0
C2414 C 0.60071 0.7374 0.51256 0.0
C2415 C 0.60253 0.74598 0.47978 0.0
C2416 C 0.58902 0.72866 0.52417 0.0
C2417 C 0.59261 0.74569 0.45925 0.0
C2418 C 0.57933 0.72866 0.5028 0.0
N2419 N 0.58131 0.7371 0.47107 0.0
C2420 C 0.64401 0.74059 0.4814 0.0
C2421 C 0.63611 0.75228 0.45131 0.0
C2422 C 0.65162 0.74329 0.44405 0.0
N2423 N 0.63667 0.74535 0.48479 0.0
C2424 C 0.6437 0.7554 0.41402 0.0
C2425 C 0.65173 0.75107 0.41059 0.0
H2426 H 0.64424 0.73504 0.50831 0.0
H2427 H 0.63019 0.7559 0.45462 0.0
C2428 C 0.61898 0.77318 0.59047 0.0
N2429 N 0.6105 0.76188 0.57842 0.0
C2430 C 0.61613 0.78226 0.59353 0.0
C2431 C 0.59572 0.76795 0.57276 0.0
C2432 C 0.59895 0.75907 0.57053 0.0
C2433 C 0.60439 0.77972 0.58448 0.0
H2434 H 0.62798 0.77514 0.59828 0.0
H2435 H 0.59218 0.74993 0.56334 0.0
O2436 O 0.62765 0.73236 0.58469 0.0
O2437 O 0.61367 0.74189 0.63689 0.0
O2438 O 0.63396 0.75915 0.5743 0.0
O2439 O 0.61029 0.73737 0.53246 0.0
H2440 H 0.61874 0.71268 0.63489 0.0
H2441 H 0.65138 0.74301 0.58662 0.0
H2442 H 0.63091 0.70596 0.67748 0.0
H2443 H 0.66299 0.73577 0.63012 0.0
H2444 H 0.57915 0.74083 0.6781 0.0
H2445 H 0.6233 0.76106 0.68949 0.0
H2446 H 0.5901 0.73245 0.63661 0.0
H2447 H 0.61178 0.76898 0.72991 0.0
H2448 H 0.64265 0.74005 0.7706 0.0
H2449 H 0.66357 0.77614 0.71788 0.0
H2450 H 0.5837 0.68579 0.56762 0.0
H2451 H 0.5871 0.69933 0.70382 0.0
H2452 H 0.63288 0.77381 0.5139 0.0
H2453 H 0.65613 0.76278 0.57552 0.0
H2454 H 0.64995 0.78824 0.46664 0.0
H2455 H 0.67272 0.77723 0.52659 0.0
H2456 H 0.61148 0.75289 0.47074 0.0
H2457 H 0.58741 0.72197 0.54954 0.0
H2458 H 0.59389 0.75231 0.43402 0.0
H2459 H 0.57024 0.72196 0.51152 0.0
H2460 H 0.65772 0.7398 0.44234 0.0
H2461 H 0.6435 0.76136 0.3886 0.0
H2462 H 0.62311 0.79123 0.60253 0.0
H2463 H 0.58651 0.7656 0.56634 0.0
Li2464 Li 0.26876 0.87814 0.58875 0.0
Li2465 Li 0.25201 0.87924 0.62424 0.0
Li2466 Li 0.24837 0.86247 0.57942 0.0
Li2467 Li 0.25402 0.88082 0.54148 0.0
C2468 C 0.25693 0.85706 0.64807 0.0
N2469 N 0.25466 0.83503 0.6682 0.0
C2470 C 0.249 0.84983 0.68185 0.0
C2471 C 0.26368 0.85304 0.62451 0.0
C2472 C 0.24798 0.83873 0.69149 0.0
C2473 C 0.26243 0.8419 0.63524 0.0
C2474 C 0.27417 0.90116 0.61218 0.0
C2475 C 0.28977 0.92187 0.61811 0.0
N2476 N 0.29219 0.91978 0.66082 0.0
C2477 C 0.27681 0.89921 0.65614 0.0
C2478 C 0.28069 0.91257 0.59296 0.0
C2479 C 0.28596 0.90874 0.68017 0.0
C2480 C 0.29353 0.89091 0.56762 0.0
N2481 N 0.28526 0.88343 0.59808 0.0
C2482 C 0.30066 0.88653 0.65054 0.0
C2483 C 0.28858 0.88107 0.63872 0.0
C2484 C 0.30941 0.89464 0.62055 0.0
C2485 C 0.30574 0.89665 0.57824 0.0
H2486 H 0.29059 0.89283 0.53602 0.0
H2487 H 0.28182 0.87546 0.66302 0.0
C2488 C 0.24094 0.8764 0.70845 0.0
N2489 N 0.24728 0.88465 0.67609 0.0
C2490 C 0.23759 0.87982 0.7481 0.0
C2491 C 0.24691 0.90012 0.71953 0.0
C2492 C 0.25018 0.89632 0.68059 0.0
C2493 C 0.24065 0.89184 0.7541 0.0
H2494 H 0.23846 0.86715 0.70338 0.0
H2495 H 0.25509 0.9027 0.65412 0.0
C2496 C 0.25891 0.86204 0.49874 0.0
N2497 N 0.25486 0.84536 0.43228 0.0
C2498 C 0.24855 0.85738 0.47226 0.0
C2499 C 0.26726 0.85829 0.49128 0.0
C2500 C 0.24664 0.84893 0.43889 0.0
C2501 C 0.26503 0.84983 0.45753 0.0
C2502 C 0.23237 0.87645 0.57783 0.0
C2503 C 0.21987 0.86937 0.57874 0.0
C2504 C 0.23769 0.88895 0.57626 0.0
C2505 C 0.21289 0.87491 0.57818 0.0
C2506 C 0.23041 0.89414 0.57576 0.0
N2507 N 0.21826 0.88708 0.57673 0.0
C2508 C 0.22689 0.84238 0.5971 0.0
C2509 C 0.23957 0.83714 0.55708 0.0
C2510 C 0.21775 0.83046 0.59802 0.0
N2511 N 0.23748 0.84553 0.57636 0.0
C2512 C 0.23059 0.82504 0.55698 0.0
C2513 C 0.2195 0.8216 0.57761 0.0
H2514 H 0.22556 0.84918 0.61308 0.0
H2515 H 0.24817 0.83975 0.54203 0.0
C2516 C 0.26069 0.89787 0.46918 0.0
N2517 N 0.2517 0.88769 0.48796 0.0
C2518 C 0.25855 0.9027 0.43017 0.0
C2519 C 0.23798 0.8865 0.43109 0.0
C2520 C 0.24054 0.88193 0.46947 0.0
C2521 C 0.24703 0.89699 0.41058 0.0
H2522 H 0.26951 0.90222 0.48443 0.0
H2523 H 0.23356 0.8738 0.48482 0.0
O2524 O 0.25784 0.86782 0.63694 0.0
O2525 O 0.26546 0.89191 0.58753 0.0
O2526 O 0.26096 0.87031 0.53159 0.0
O2527 O 0.23927 0.87108 0.57838 0.0
H2528 H 0.24363 0.85269 0.70031 0.0
H2529 H 0.26971 0.85839 0.59772 0.0
H2530 H 0.24185 0.83304 0.71745 0.0
H2531 H 0.26757 0.83868 0.61713 0.0
H2532 H 0.2949 0.93075 0.60365 0.0
H2533 H 0.2719 0.89042 0.67149 0.0
H2534 H 0.27878 0.91421 0.5589 0.0
H2535 H 0.28812 0.90734 0.71416 0.0
H2536 H 0.30308 0.88491 0.68381 0.0
H2537 H 0.31222 0.90283 0.55414 0.0
H2538 H 0.23256 0.87313 0.77361 0.0
H2539 H 0.24945 0.90948 0.72294 0.0
H2540 H 0.24196 0.86013 0.4779 0.0
H2541 H 0.27535 0.86187 0.51143 0.0
H2542 H 0.23863 0.84518 0.41832 0.0
H2543 H 0.27139 0.84682 0.45144 0.0
H2544 H 0.21558 0.85968 0.57973 0.0
H2545 H 0.24732 0.89461 0.57518 0.0
H2546 H 0.20321 0.86953 0.57887 0.0
H2547 H 0.23441 0.9038 0.57454 0.0
H2548 H 0.2093 0.82825 0.61388 0.0
H2549 H 0.23234 0.81845 0.54138 0.0
H2550 H 0.26586 0.91072 0.41536 0.0
H2551 H 0.2289 0.88189 0.41811 0.0
Li2552 Li 0.11844 0.38724 0.58908 0.0
Li2553 Li 0.11991 0.36991 0.61339 0.0
Li2554 Li 0.13608 0.3863 0.56907 0.0
Li2555 Li 0.11673 0.37209 0.53433 0.0
C2556 C 0.13144 0.39436 0.66425 0.0
N2557 N 0.13258 0.40962 0.73219 0.0
C2558 C 0.12509 0.38969 0.70448 0.0
C2559 C 0.13847 0.40677 0.65875 0.0
C2560 C 0.12576 0.39756 0.73839 0.0
C2561 C 0.1389 0.41434 0.69344 0.0
C2562 C 0.09499 0.36378 0.56714 0.0
C2563 C 0.07843 0.34519 0.53993 0.0
N2564 N 0.07286 0.35122 0.5256 0.0
C2565 C 0.0891 0.36979 0.55229 0.0
C2566 C 0.08961 0.35138 0.56112 0.0
C2567 C 0.07791 0.36328 0.53135 0.0
C2568 C 0.1152 0.4078 0.59012 0.0
N2569 N 0.11223 0.39705 0.60911 0.0
C2570 C 0.09981 0.39924 0.66368 0.0
C2571 C 0.10464 0.39267 0.64492 0.0
C2572 C 0.10261 0.41038 0.64489 0.0
C2573 C 0.11043 0.41465 0.60753 0.0
H2574 H 0.12121 0.41103 0.56146 0.0
H2575 H 0.10245 0.38407 0.65919 0.0
C2576 C 0.12499 0.3582 0.68446 0.0
N2577 N 0.11624 0.35913 0.66231 0.0
C2578 C 0.12211 0.35049 0.72143 0.0
C2579 C 0.10137 0.3453 0.71319 0.0
C2580 C 0.10462 0.35291 0.67592 0.0
C2581 C 0.11015 0.34395 0.73654 0.0
H2582 H 0.13421 0.36349 0.67356 0.0
H2583 H 0.0979 0.35408 0.65843 0.0
C2584 C 0.13352 0.3981 0.49838 0.0
N2585 N 0.14955 0.4146 0.43751 0.0
C2586 C 0.13368 0.39475 0.45354 0.0
C2587 C 0.14143 0.40985 0.51218 0.0
C2588 C 0.14187 0.40323 0.42328 0.0
C2589 C 0.1495 0.41806 0.48093 0.0
C2590 C 0.13136 0.36009 0.57374 0.0
C2591 C 0.14315 0.36313 0.58399 0.0
C2592 C 0.12215 0.34816 0.57774 0.0
C2593 C 0.14551 0.35418 0.59855 0.0
C2594 C 0.12488 0.33949 0.59249 0.0
N2595 N 0.13641 0.34265 0.60252 0.0
C2596 C 0.15976 0.39771 0.59933 0.0
C2597 C 0.1579 0.39517 0.51988 0.0
C2598 C 0.17191 0.4012 0.59708 0.0
N2599 N 0.15299 0.39449 0.5612 0.0
C2600 C 0.17009 0.39893 0.51591 0.0
C2601 C 0.1772 0.40151 0.55503 0.0
H2602 H 0.15555 0.39675 0.63188 0.0
H2603 H 0.15227 0.39216 0.49022 0.0
C2604 C 0.10201 0.36533 0.45402 0.0
N2605 N 0.10951 0.36332 0.48035 0.0
C2606 C 0.09729 0.35876 0.41413 0.0
C2607 C 0.10814 0.34831 0.42939 0.0
C2608 C 0.1126 0.35501 0.46874 0.0
C2609 C 0.10049 0.35022 0.4012 0.0
H2610 H 0.09985 0.37214 0.4636 0.0
H2611 H 0.1187 0.35369 0.48966 0.0
O2612 O 0.13068 0.38682 0.63025 0.0
O2613 O 0.10601 0.37 0.58718 0.0
O2614 O 0.12555 0.38994 0.52843 0.0
O2615 O 0.12884 0.36873 0.55966 0.0
H2616 H 0.1196 0.38009 0.70925 0.0
H2617 H 0.14349 0.41051 0.62789 0.0
H2618 H 0.12084 0.39408 0.76959 0.0
H2619 H 0.14424 0.42397 0.68954 0.0
H2620 H 0.07419 0.3356 0.53482 0.0
H2621 H 0.09316 0.3794 0.5565 0.0
H2622 H 0.09407 0.3466 0.57241 0.0
H2623 H 0.07327 0.36782 0.51951 0.0
H2624 H 0.09402 0.39566 0.69292 0.0
H2625 H 0.11271 0.42309 0.59149 0.0
H2626 H 0.12919 0.3497 0.73794 0.0
H2627 H 0.0921 0.34077 0.72416 0.0
H2628 H 0.12759 0.38569 0.44228 0.0
H2629 H 0.1414 0.41259 0.54673 0.0
H2630 H 0.14213 0.40075 0.38852 0.0
H2631 H 0.15573 0.42717 0.49119 0.0
H2632 H 0.15041 0.37227 0.58082 0.0
H2633 H 0.11297 0.34566 0.57 0.0
H2634 H 0.15459 0.35641 0.60673 0.0
H2635 H 0.11783 0.33025 0.59604 0.0
H2636 H 0.17682 0.40282 0.62842 0.0
H2637 H 0.17373 0.39924 0.48263 0.0
H2638 H 0.0915 0.36058 0.39304 0.0
H2639 H 0.11074 0.34173 0.42098 0.0
Li2640 Li 0.24787 0.38596 0.58161 0.0
Li2641 Li 0.25131 0.37197 0.62686 0.0
Li2642 Li 0.26787 0.3894 0.59049 0.0
Li2643 Li 0.25346 0.37225 0.54588 0.0
C2644 C 0.25366 0.39565 0.66382 0.0
N2645 N 0.24577 0.40856 0.71354 0.0
C2646 C 0.2465 0.39055 0.70207 0.0
C2647 C 0.25686 0.40734 0.65104 0.0
C2648 C 0.24259 0.39722 0.72673 0.0
C2649 C 0.25276 0.4137 0.67655 0.0
C2650 C 0.22999 0.35975 0.55484 0.0
C2651 C 0.21922 0.33962 0.52507 0.0
N2652 N 0.21298 0.34295 0.49726 0.0
C2653 C 0.22343 0.36297 0.52613 0.0
C2654 C 0.22782 0.34797 0.55454 0.0
C2655 C 0.21487 0.35434 0.49724 0.0
C2656 C 0.23843 0.39932 0.53911 0.0
N2657 N 0.23771 0.39264 0.57585 0.0
C2658 C 0.22063 0.39332 0.60343 0.0
C2659 C 0.22901 0.38954 0.6076 0.0
C2660 C 0.22096 0.39996 0.56539 0.0
C2661 C 0.22998 0.40302 0.53292 0.0
H2662 H 0.24527 0.4014 0.51386 0.0
H2663 H 0.22838 0.38384 0.6355 0.0
C2664 C 0.25456 0.36588 0.71489 0.0
N2665 N 0.24662 0.36246 0.68008 0.0
C2666 C 0.25153 0.35909 0.75447 0.0
C2667 C 0.23202 0.34568 0.72239 0.0
C2668 C 0.23549 0.35264 0.68314 0.0
C2669 C 0.24013 0.34886 0.75852 0.0
H2670 H 0.26324 0.3739 0.71186 0.0
H2671 H 0.2293 0.35024 0.65521 0.0
C2672 C 0.26934 0.39808 0.51029 0.0
N2673 N 0.28957 0.41539 0.46643 0.0
C2674 C 0.27559 0.39471 0.48063 0.0
C2675 C 0.27332 0.41023 0.51749 0.0
C2676 C 0.28581 0.4036 0.45879 0.0
C2677 C 0.28359 0.41885 0.49505 0.0
C2678 C 0.26791 0.36597 0.61767 0.0
C2679 C 0.27812 0.37158 0.64505 0.0
C2680 C 0.26066 0.35348 0.6189 0.0
C2681 C 0.28089 0.36459 0.67328 0.0
C2682 C 0.26371 0.34681 0.64766 0.0
N2683 N 0.27368 0.35246 0.67402 0.0
C2684 C 0.2875 0.4102 0.6274 0.0
C2685 C 0.2927 0.3991 0.57756 0.0
C2686 C 0.29953 0.41771 0.63873 0.0
N2687 N 0.28433 0.401 0.59795 0.0
C2688 C 0.30483 0.40634 0.58812 0.0
C2689 C 0.30835 0.41562 0.61998 0.0
H2690 H 0.28067 0.41143 0.64354 0.0
H2691 H 0.28988 0.39156 0.55488 0.0
C2692 C 0.24554 0.36476 0.45736 0.0
N2693 N 0.25101 0.36283 0.49306 0.0
C2694 C 0.24255 0.3575 0.41904 0.0
C2695 C 0.2514 0.34677 0.454 0.0
C2696 C 0.25417 0.35421 0.49182 0.0
C2697 C 0.24534 0.34825 0.41726 0.0
H2698 H 0.24328 0.37179 0.45913 0.0
H2699 H 0.25864 0.35297 0.52042 0.0
O2700 O 0.25748 0.38922 0.63901 0.0
O2701 O 0.23864 0.36814 0.5825 0.0
O2702 O 0.25949 0.38952 0.53279 0.0
O2703 O 0.26494 0.37266 0.59032 0.0
H2704 H 0.24389 0.38151 0.71243 0.0
H2705 H 0.26232 0.41138 0.62133 0.0
H2706 H 0.23701 0.39337 0.75629 0.0
H2707 H 0.2551 0.42272 0.66685 0.0
H2708 H 0.21752 0.33049 0.52421 0.0
H2709 H 0.22501 0.37204 0.52574 0.0
H2710 H 0.23285 0.34533 0.57639 0.0
H2711 H 0.20978 0.35672 0.47467 0.0
H2712 H 0.21359 0.39058 0.62848 0.0
H2713 H 0.23032 0.40797 0.50282 0.0
H2714 H 0.25796 0.36192 0.78188 0.0
H2715 H 0.22316 0.33783 0.72429 0.0
H2716 H 0.27265 0.38533 0.47489 0.0
H2717 H 0.26857 0.41297 0.54041 0.0
H2718 H 0.29078 0.40114 0.4359 0.0
H2719 H 0.28681 0.4283 0.50044 0.0
H2720 H 0.28377 0.38123 0.64505 0.0
H2721 H 0.25264 0.34899 0.59843 0.0
H2722 H 0.28873 0.36882 0.69477 0.0
H2723 H 0.25813 0.33715 0.64916 0.0
H2724 H 0.30184 0.42486 0.66291 0.0
H2725 H 0.31127 0.40426 0.57328 0.0
H2726 H 0.23807 0.35908 0.39115 0.0
H2727 H 0.25368 0.33973 0.45408 0.0
Li2728 Li 0.61181 0.86226 0.58615 0.0
Li2729 Li 0.62771 0.88026 0.63188 0.0
Li2730 Li 0.61063 0.88023 0.59713 0.0
Li2731 Li 0.62587 0.88142 0.55001 0.0
C2732 C 0.60164 0.86839 0.67271 0.0
N2733 N 0.58388 0.86766 0.72738 0.0
C2734 C 0.60466 0.87625 0.7093 0.0
C2735 C 0.5896 0.86004 0.66428 0.0
C2736 C 0.59555 0.87577 0.73645 0.0
C2737 C 0.58074 0.85984 0.69222 0.0
C2738 C 0.63969 0.87201 0.56186 0.0
C2739 C 0.66105 0.88296 0.54901 0.0
N2740 N 0.65958 0.87575 0.51308 0.0
C2741 C 0.63838 0.86468 0.52495 0.0
C2742 C 0.65111 0.88122 0.57411 0.0
C2743 C 0.64855 0.86672 0.50067 0.0
C2744 C 0.60467 0.84 0.54387 0.0
N2745 N 0.60458 0.84539 0.58325 0.0
C2746 C 0.59813 0.8272 0.6242 0.0
C2747 C 0.60105 0.83919 0.62274 0.0
C2748 C 0.59906 0.82162 0.58477 0.0
C2749 C 0.60192 0.82803 0.54384 0.0
H2750 H 0.60758 0.84521 0.51303 0.0
H2751 H 0.60117 0.84376 0.65359 0.0
C2752 C 0.63984 0.89468 0.70607 0.0
N2753 N 0.63801 0.88489 0.68218 0.0
C2754 C 0.64712 0.8982 0.74442 0.0
C2755 C 0.6507 0.88166 0.73208 0.0
C2756 C 0.64323 0.87838 0.69425 0.0
C2757 C 0.65268 0.89166 0.75796 0.0
H2758 H 0.6355 0.89963 0.69561 0.0
H2759 H 0.64159 0.87064 0.67442 0.0
C2760 C 0.59768 0.86773 0.51959 0.0
N2761 N 0.57589 0.86065 0.47819 0.0
C2762 C 0.5968 0.87481 0.48562 0.0
C2763 C 0.58754 0.85692 0.53177 0.0
C2764 C 0.58568 0.87111 0.46533 0.0
C2765 C 0.57659 0.85353 0.51062 0.0
C2766 C 0.63062 0.90392 0.57806 0.0
C2767 C 0.62352 0.90461 0.54385 0.0
C2768 C 0.64079 0.91435 0.59297 0.0
C2769 C 0.62672 0.91576 0.5249 0.0
C2770 C 0.6437 0.92534 0.57315 0.0
N2771 N 0.63667 0.92581 0.5398 0.0
C2772 C 0.60568 0.89652 0.63801 0.0
C2773 C 0.58869 0.88186 0.59809 0.0
C2774 C 0.5994 0.90214 0.65225 0.0
N2775 N 0.60036 0.88668 0.61094 0.0
C2776 C 0.58202 0.88718 0.61184 0.0
C2777 C 0.58743 0.89752 0.63896 0.0
H2778 H 0.61481 0.89993 0.6493 0.0
H2779 H 0.58448 0.87384 0.57778 0.0
C2780 C 0.631 0.88222 0.45701 0.0
N2781 N 0.63526 0.88803 0.49695 0.0
C2782 C 0.63809 0.88625 0.41815 0.0
C2783 C 0.6537 0.90229 0.46215 0.0
C2784 C 0.64633 0.89793 0.50015 0.0
C2785 C 0.64967 0.89635 0.42048 0.0
H2786 H 0.62221 0.87427 0.45568 0.0
H2787 H 0.64957 0.90226 0.5325 0.0
O2788 O 0.61041 0.86899 0.64485 0.0
O2789 O 0.62981 0.87042 0.58514 0.0
O2790 O 0.60853 0.87113 0.53932 0.0
O2791 O 0.62772 0.8931 0.59694 0.0
H2792 H 0.61393 0.88276 0.7163 0.0
H2793 H 0.5871 0.85385 0.63632 0.0
H2794 H 0.59775 0.88188 0.76464 0.0
H2795 H 0.57138 0.85349 0.68589 0.0
H2796 H 0.66994 0.89009 0.55792 0.0
H2797 H 0.6296 0.85758 0.51482 0.0
H2798 H 0.65226 0.88708 0.6022 0.0
H2799 H 0.64766 0.86116 0.47185 0.0
H2800 H 0.59577 0.82254 0.65633 0.0
H2801 H 0.60287 0.82415 0.51271 0.0
H2802 H 0.64819 0.90583 0.76365 0.0
H2803 H 0.65492 0.87646 0.74073 0.0
H2804 H 0.60462 0.88302 0.47472 0.0
H2805 H 0.58808 0.85121 0.55729 0.0
H2806 H 0.58486 0.87654 0.43919 0.0
H2807 H 0.56865 0.84523 0.51997 0.0
H2808 H 0.6156 0.89663 0.53227 0.0
H2809 H 0.64638 0.91395 0.61944 0.0
H2810 H 0.62129 0.91642 0.49838 0.0
H2811 H 0.65156 0.93349 0.58426 0.0
H2812 H 0.60383 0.90992 0.67405 0.0
H2813 H 0.57278 0.88332 0.60097 0.0
H2814 H 0.63468 0.88127 0.38697 0.0
H2815 H 0.66249 0.91018 0.46548 0.0
Li2816 Li 0.11791 0.74761 0.6245 0.0
Li2817 Li 0.13523 0.74918 0.57547 0.0
Li2818 Li 0.11571 0.74438 0.54246 0.0
Li2819 Li 0.11714 0.73022 0.58852 0.0
C2820 C 0.12511 0.76754 0.55543 0.0
N2821 N 0.12001 0.78335 0.51097 0.0
C2822 C 0.13232 0.77442 0.51949 0.0
C2823 C 0.11534 0.76872 0.56886 0.0
C2824 C 0.12958 0.78235 0.49739 0.0
C2825 C 0.11291 0.77677 0.54597 0.0
C2826 C 0.13017 0.73321 0.66161 0.0
C2827 C 0.13764 0.71958 0.67395 0.0
N2828 N 0.13198 0.71652 0.71468 0.0
C2829 C 0.12451 0.73001 0.70374 0.0
C2830 C 0.13687 0.72804 0.64671 0.0
C2831 C 0.12551 0.72152 0.73002 0.0
C2832 C 0.10465 0.745 0.70222 0.0
N2833 N 0.11377 0.75325 0.6763 0.0
C2834 C 0.1166 0.76906 0.72605 0.0
C2835 C 0.11977 0.76508 0.6873 0.0
C2836 C 0.10729 0.76072 0.75378 0.0
C2837 C 0.10129 0.74855 0.74149 0.0
H2838 H 0.10006 0.73565 0.69241 0.0
H2839 H 0.12701 0.77141 0.66599 0.0
C2840 C 0.15705 0.7647 0.53165 0.0
N2841 N 0.15211 0.75821 0.56978 0.0
C2842 C 0.1692 0.77346 0.53086 0.0
C2843 C 0.17109 0.76784 0.60711 0.0
C2844 C 0.15889 0.75934 0.60665 0.0
C2845 C 0.17629 0.77544 0.56964 0.0
H2846 H 0.15141 0.76358 0.50284 0.0
H2847 H 0.1547 0.7541 0.63664 0.0
C2848 C 0.09322 0.72716 0.57681 0.0
N2849 N 0.0701 0.71176 0.54772 0.0
C2850 C 0.09106 0.71846 0.54422 0.0
C2851 C 0.08363 0.728 0.59485 0.0
C2852 C 0.0793 0.71076 0.5299 0.0
C2853 C 0.072 0.72015 0.57962 0.0
C2854 C 0.12741 0.72913 0.50522 0.0
C2855 C 0.11897 0.72192 0.47279 0.0
C2856 C 0.13789 0.72855 0.51081 0.0
C2857 C 0.12099 0.71394 0.44743 0.0
C2858 C 0.13959 0.72046 0.48474 0.0
N2859 N 0.13116 0.71337 0.45393 0.0
C2860 C 0.11532 0.74971 0.4512 0.0
C2861 C 0.09864 0.74779 0.49238 0.0
C2862 C 0.11159 0.75315 0.41255 0.0
N2863 N 0.10892 0.74725 0.49013 0.0
C2864 C 0.09452 0.75111 0.4544 0.0
C2865 C 0.10113 0.75401 0.41402 0.0
H2866 H 0.12353 0.74933 0.4506 0.0
H2867 H 0.09387 0.74608 0.52404 0.0
C2868 C 0.10265 0.71029 0.63795 0.0
N2869 N 0.11047 0.71359 0.60284 0.0
C2870 C 0.09712 0.69864 0.65471 0.0
C2871 C 0.10763 0.69377 0.59843 0.0
C2872 C 0.1131 0.70564 0.58304 0.0
C2873 C 0.09948 0.69013 0.63473 0.0
H2874 H 0.10085 0.71684 0.6535 0.0
H2875 H 0.11943 0.70842 0.55557 0.0
O2876 O 0.12736 0.75939 0.57643 0.0
O2877 O 0.12902 0.74124 0.6348 0.0
O2878 O 0.10464 0.73482 0.59137 0.0
O2879 O 0.12567 0.73711 0.52994 0.0
H2880 H 0.13986 0.77357 0.50846 0.0
H2881 H 0.10955 0.76332 0.59611 0.0
H2882 H 0.13503 0.78769 0.46935 0.0
H2883 H 0.10533 0.77772 0.55581 0.0
H2884 H 0.14272 0.71544 0.66267 0.0
H2885 H 0.11933 0.73395 0.71585 0.0
H2886 H 0.14132 0.73044 0.61427 0.0
H2887 H 0.12111 0.71889 0.76257 0.0
H2888 H 0.12149 0.77851 0.73464 0.0
H2889 H 0.09398 0.74188 0.76176 0.0
H2890 H 0.17274 0.77913 0.50131 0.0
H2891 H 0.17624 0.76886 0.6374 0.0
H2892 H 0.09837 0.71762 0.53039 0.0
H2893 H 0.08517 0.7347 0.62018 0.0
H2894 H 0.0775 0.70397 0.50468 0.0
H2895 H 0.06449 0.72072 0.59315 0.0
H2896 H 0.111 0.72253 0.46699 0.0
H2897 H 0.14466 0.7343 0.53489 0.0
H2898 H 0.1145 0.70824 0.42241 0.0
H2899 H 0.14762 0.71985 0.4889 0.0
H2900 H 0.11688 0.75521 0.38195 0.0
H2901 H 0.08651 0.75183 0.45709 0.0
H2902 H 0.09116 0.69639 0.68343 0.0
H2903 H 0.10966 0.68751 0.58173 0.0
Li2904 Li 0.05272 0.60088 0.74665 0.0
Li2905 Li 0.03704 0.58626 0.79269 0.0
Li2906 Li 0.05252 0.58209 0.75698 0.0
Li2907 Li 0.03658 0.58333 0.71154 0.0
C2908 C 0.06474 0.60301 0.824 0.0
N2909 N 0.0851 0.62119 0.86424 0.0
C2910 C 0.06435 0.61249 0.84543 0.0
C2911 C 0.07546 0.60273 0.82323 0.0
C2912 C 0.07475 0.62161 0.86549 0.0
C2913 C 0.08566 0.61202 0.84375 0.0
C2914 C 0.02801 0.59925 0.76341 0.0
C2915 C 0.00793 0.59476 0.78185 0.0
N2916 N 0.01251 0.60545 0.80382 0.0
C2917 C 0.03252 0.61021 0.78598 0.0
C2918 C 0.01562 0.59148 0.76107 0.0
C2919 C 0.02454 0.61318 0.80623 0.0
C2920 C 0.05679 0.62193 0.7073 0.0
N2921 N 0.06259 0.61763 0.73286 0.0
C2922 C 0.08084 0.63648 0.72785 0.0
C2923 C 0.07445 0.62458 0.74275 0.0
C2924 C 0.075 0.64118 0.70181 0.0
C2925 C 0.06282 0.63368 0.69136 0.0
H2926 H 0.0475 0.61612 0.6982 0.0
H2927 H 0.07908 0.62087 0.76119 0.0
C2928 C 0.0184 0.57139 0.85216 0.0
N2929 N 0.02709 0.58295 0.845 0.0
C2930 C 0.01062 0.56842 0.88888 0.0
C2931 C 0.021 0.58928 0.91103 0.0
C2932 C 0.02863 0.59184 0.87387 0.0
C2933 C 0.0118 0.57743 0.9188 0.0
H2934 H 0.01752 0.56443 0.82951 0.0
H2935 H 0.03569 0.60094 0.86791 0.0
C2936 C 0.06239 0.59859 0.67157 0.0
N2937 N 0.0796 0.61615 0.61686 0.0
C2938 C 0.05895 0.6029 0.63446 0.0
C2939 C 0.07457 0.60313 0.68071 0.0
C2940 C 0.0678 0.6118 0.60726 0.0
C2941 C 0.08313 0.61202 0.65265 0.0
C2942 C 0.02633 0.56078 0.74271 0.0
C2943 C 0.02987 0.55258 0.72936 0.0
C2944 C 0.01435 0.55781 0.73779 0.0
C2945 C 0.02136 0.54157 0.711 0.0
C2946 C 0.00612 0.54671 0.71921 0.0
N2947 N 0.00976 0.53889 0.70629 0.0
C2948 C 0.05893 0.56681 0.80053 0.0
C2949 C 0.06616 0.57202 0.72544 0.0
C2950 C 0.06235 0.55809 0.80187 0.0
N2951 N 0.06058 0.57328 0.76224 0.0
C2952 C 0.0698 0.56346 0.7254 0.0
C2953 C 0.06747 0.55602 0.76333 0.0
H2954 H 0.05423 0.56788 0.82889 0.0
H2955 H 0.06714 0.57714 0.69517 0.0
C2956 C 0.02171 0.58412 0.64443 0.0
N2957 N 0.02697 0.57781 0.65863 0.0
C2958 C 0.01487 0.58084 0.60496 0.0
C2959 C 0.01897 0.56458 0.59538 0.0
C2960 C 0.02595 0.56835 0.63457 0.0
C2961 C 0.01331 0.57086 0.57993 0.0
H2962 H 0.02299 0.59186 0.66341 0.0
H2963 H 0.03055 0.56373 0.64575 0.0
O2964 O 0.05463 0.59389 0.8048 0.0
O2965 O 0.03568 0.59611 0.74385 0.0
O2966 O 0.05388 0.59015 0.69937 0.0
O2967 O 0.03455 0.57165 0.76059 0.0
H2968 H 0.05614 0.61286 0.84613 0.0
H2969 H 0.0759 0.59543 0.8069 0.0
H2970 H 0.0746 0.62904 0.88197 0.0
H2971 H 0.09403 0.61194 0.84334 0.0
H2972 H 0.99832 0.58881 0.78051 0.0
H2973 H 0.04209 0.6163 0.78836 0.0
H2974 H 0.01198 0.58299 0.74355 0.0
H2975 H 0.0279 0.6216 0.82405 0.0
H2976 H 0.09023 0.64192 0.73667 0.0
H2977 H 0.05802 0.63674 0.67024 0.0
H2978 H 0.00386 0.55912 0.8941 0.0
H2979 H 0.02223 0.59653 0.93307 0.0
H2980 H 0.04956 0.5995 0.62711 0.0
H2981 H 0.07736 0.59996 0.70959 0.0
H2982 H 0.06528 0.61529 0.57861 0.0
H2983 H 0.09259 0.61569 0.65948 0.0
H2984 H 0.03908 0.5547 0.73287 0.0
H2985 H 0.01146 0.56404 0.74791 0.0
H2986 H 0.02398 0.53516 0.70039 0.0
H2987 H 0.99683 0.54432 0.71499 0.0
H2988 H 0.06021 0.55247 0.83158 0.0
H2989 H 0.07383 0.56226 0.69516 0.0
H2990 H 0.01103 0.58621 0.59391 0.0
H2991 H 0.01799 0.55677 0.57769 0.0
Li2992 Li 0.41377 0.45243 0.707 0.0
Li2993 Li 0.41511 0.46987 0.75043 0.0
Li2994 Li 0.40928 0.4506 0.7889 0.0
Li2995 Li 0.39637 0.45218 0.73586 0.0
C2996 C 0.43657 0.46673 0.75901 0.0
N2997 N 0.46131 0.47763 0.76119 0.0
C2998 C 0.4436 0.47701 0.73317 0.0
C2999 C 0.44214 0.46197 0.78578 0.0
C3000 C 0.45609 0.4824 0.73482 0.0
C3001 C 0.45465 0.4676 0.78641 0.0
C3002 C 0.40042 0.4649 0.66238 0.0
C3003 C 0.3877 0.47326 0.64648 0.0
N3004 N 0.38416 0.46689 0.60728 0.0
C3005 C 0.39674 0.45852 0.62179 0.0
C3006 C 0.39593 0.4724 0.67476 0.0
C3007 C 0.38848 0.45961 0.59445 0.0
C3008 C 0.41176 0.43895 0.63088 0.0
N3009 N 0.42004 0.44766 0.65809 0.0
C3010 C 0.436 0.44925 0.61188 0.0
C3011 C 0.43198 0.45275 0.64961 0.0
C3012 C 0.42764 0.44044 0.58261 0.0
C3013 C 0.41536 0.43519 0.59276 0.0
H3014 H 0.40231 0.43505 0.63851 0.0
H3015 H 0.43841 0.45958 0.67174 0.0
C3016 C 0.43129 0.49142 0.79367 0.0
N3017 N 0.42472 0.48672 0.75549 0.0
C3018 C 0.44062 0.50333 0.79427 0.0
C3019 C 0.43567 0.50549 0.71726 0.0
C3020 C 0.42648 0.49355 0.7181 0.0
C3021 C 0.44317 0.51038 0.75507 0.0
H3022 H 0.42985 0.48567 0.82248 0.0
H3023 H 0.42131 0.48951 0.68785 0.0
C3024 C 0.40169 0.42933 0.74091 0.0
N3025 N 0.40482 0.4096 0.74445 0.0
C3026 C 0.39183 0.41777 0.73664 0.0
C3027 C 0.41316 0.43086 0.7468 0.0
C3028 C 0.39359 0.40791 0.73858 0.0
C3029 C 0.41455 0.42078 0.74853 0.0
C3030 C 0.39293 0.456 0.82621 0.0
C3031 C 0.38527 0.44357 0.82768 0.0
C3032 C 0.3915 0.4633 0.85761 0.0
C3033 C 0.37631 0.43866 0.86063 0.0
C3034 C 0.38242 0.45805 0.89004 0.0
N3035 N 0.37508 0.44593 0.89086 0.0
C3036 C 0.41996 0.4525 0.87256 0.0
C3037 C 0.40505 0.43254 0.85516 0.0
C3038 C 0.42285 0.44871 0.91242 0.0
N3039 N 0.41138 0.4444 0.84448 0.0
C3040 C 0.40772 0.42833 0.8945 0.0
C3041 C 0.41684 0.43645 0.92339 0.0
H3042 H 0.42479 0.46189 0.8633 0.0
H3043 H 0.39805 0.42629 0.83293 0.0
C3044 C 0.37558 0.43732 0.68862 0.0
N3045 N 0.38011 0.44636 0.7194 0.0
C3046 C 0.36405 0.43293 0.67156 0.0
C3047 C 0.36189 0.44703 0.71911 0.0
C3048 C 0.37355 0.45124 0.73501 0.0
C3049 C 0.35706 0.43783 0.68664 0.0
H3050 H 0.38107 0.43369 0.6767 0.0
H3051 H 0.37745 0.45854 0.75906 0.0
O3052 O 0.42433 0.46143 0.75866 0.0
O3053 O 0.40822 0.46368 0.69028 0.0
O3054 O 0.40001 0.43901 0.73913 0.0
O3055 O 0.40181 0.46109 0.79438 0.0
H3056 H 0.43946 0.48068 0.71154 0.0
H3057 H 0.43686 0.45397 0.80577 0.0
H3058 H 0.46162 0.49036 0.71501 0.0
H3059 H 0.45907 0.46401 0.80697 0.0
H3060 H 0.38407 0.47894 0.65581 0.0
H3061 H 0.40014 0.4527 0.61165 0.0
H3062 H 0.39862 0.47733 0.70628 0.0
H3063 H 0.38549 0.45466 0.56309 0.0
H3064 H 0.44555 0.4534 0.60577 0.0
H3065 H 0.40859 0.42847 0.57091 0.0
H3066 H 0.44629 0.50669 0.82391 0.0
H3067 H 0.43729 0.51064 0.6865 0.0
H3068 H 0.3829 0.41644 0.73201 0.0
H3069 H 0.4209 0.43971 0.74998 0.0
H3070 H 0.38603 0.39891 0.73543 0.0
H3071 H 0.42337 0.42184 0.75313 0.0
H3072 H 0.38619 0.43775 0.80369 0.0
H3073 H 0.39735 0.47294 0.85691 0.0
H3074 H 0.37032 0.42906 0.86214 0.0
H3075 H 0.38121 0.46359 0.91455 0.0
H3076 H 0.42998 0.45525 0.93364 0.0
H3077 H 0.40275 0.41883 0.90217 0.0
H3078 H 0.36059 0.42571 0.64706 0.0
H3079 H 0.3568 0.45109 0.73134 0.0
Li3080 Li 0.54486 0.94454 0.74222 0.0
Li3081 Li 0.54514 0.96023 0.79037 0.0
Li3082 Li 0.52669 0.94516 0.75481 0.0
Li3083 Li 0.54231 0.9601 0.70978 0.0
C3084 C 0.54175 0.93982 0.83537 0.0
N3085 N 0.55286 0.93463 0.90459 0.0
C3086 C 0.55426 0.94528 0.83662 0.0
C3087 C 0.5349 0.93174 0.86934 0.0
C3088 C 0.5597 0.94254 0.87189 0.0
C3089 C 0.54068 0.92922 0.90404 0.0
C3090 C 0.56549 0.97264 0.72636 0.0
C3091 C 0.57463 0.99414 0.71968 0.0
N3092 N 0.58287 0.99425 0.69059 0.0
C3093 C 0.57408 0.97298 0.69653 0.0
C3094 C 0.56578 0.98331 0.73813 0.0
C3095 C 0.58278 0.98399 0.67877 0.0
C3096 C 0.55772 0.93781 0.68853 0.0
N3097 N 0.55166 0.9348 0.72832 0.0
C3098 C 0.55573 0.91876 0.73898 0.0
C3099 C 0.55038 0.92536 0.75333 0.0
C3100 C 0.56237 0.92194 0.69857 0.0
C3101 C 0.56322 0.93152 0.67303 0.0
H3102 H 0.55819 0.94508 0.66864 0.0
H3103 H 0.54521 0.92292 0.78424 0.0
C3104 C 0.54361 0.97075 0.87071 0.0
N3105 N 0.55149 0.96983 0.84282 0.0
C3106 C 0.5477 0.97799 0.90917 0.0
C3107 C 0.56797 0.98311 0.88963 0.0
C3108 C 0.56346 0.97572 0.85165 0.0
C3109 C 0.56006 0.98439 0.91889 0.0
H3110 H 0.53413 0.96589 0.86286 0.0
H3111 H 0.56952 0.97479 0.82888 0.0
C3112 C 0.52661 0.9311 0.68312 0.0
N3113 N 0.51413 0.90741 0.65573 0.0
C3114 C 0.52423 0.92827 0.6373 0.0
C3115 C 0.52267 0.92187 0.71505 0.0
C3116 C 0.51789 0.91624 0.62412 0.0
C3117 C 0.51637 0.90995 0.7005 0.0
C3118 C 0.52502 0.9655 0.74087 0.0
C3119 C 0.51923 0.96055 0.6999 0.0
C3120 C 0.52203 0.97291 0.76543 0.0
C3121 C 0.51052 0.96312 0.68416 0.0
C3122 C 0.51329 0.97527 0.74851 0.0
N3123 N 0.50776 0.97037 0.70859 0.0
C3124 C 0.50612 0.94004 0.80212 0.0
C3125 C 0.50185 0.9308 0.73001 0.0
C3126 C 0.49419 0.93716 0.80731 0.0
N3127 N 0.50976 0.93713 0.76344 0.0
C3128 C 0.4898 0.92754 0.73414 0.0
C3129 C 0.48591 0.93115 0.77236 0.0
H3130 H 0.51268 0.94536 0.82758 0.0
H3131 H 0.50495 0.9289 0.69888 0.0
C3132 C 0.54965 0.96585 0.62059 0.0
N3133 N 0.54628 0.96982 0.65723 0.0
C3134 C 0.55333 0.97267 0.5811 0.0
C3135 C 0.54982 0.98747 0.61756 0.0
C3136 C 0.54632 0.98041 0.65657 0.0
C3137 C 0.55346 0.98364 0.57931 0.0
H3138 H 0.54961 0.95743 0.62237 0.0
H3139 H 0.54383 0.98347 0.68651 0.0
O3140 O 0.53614 0.94237 0.80145 0.0
O3141 O 0.55665 0.96192 0.74305 0.0
O3142 O 0.53298 0.94286 0.69619 0.0
O3143 O 0.5333 0.96282 0.75784 0.0
H3144 H 0.55974 0.95152 0.81063 0.0
H3145 H 0.52521 0.92745 0.86887 0.0
H3146 H 0.56937 0.94669 0.87324 0.0
H3147 H 0.53549 0.92298 0.93055 0.0
H3148 H 0.57491 0.00244 0.72827 0.0
H3149 H 0.57403 0.96483 0.68712 0.0
H3150 H 0.55909 0.9832 0.76065 0.0
H3151 H 0.58946 0.98438 0.65554 0.0
H3152 H 0.55486 0.91142 0.75961 0.0
H3153 H 0.56801 0.93409 0.64118 0.0
H3154 H 0.54125 0.9785 0.93113 0.0
H3155 H 0.57756 0.98795 0.89544 0.0
H3156 H 0.52728 0.93532 0.61219 0.0
H3157 H 0.52444 0.92385 0.75064 0.0
H3158 H 0.51598 0.91393 0.58876 0.0
H3159 H 0.51327 0.90273 0.72481 0.0
H3160 H 0.52134 0.95471 0.68059 0.0
H3161 H 0.52638 0.97673 0.79736 0.0
H3162 H 0.50594 0.95933 0.6526 0.0
H3163 H 0.51087 0.98098 0.76719 0.0
H3164 H 0.49172 0.94034 0.83705 0.0
H3165 H 0.48373 0.92275 0.7066 0.0
H3166 H 0.556 0.96937 0.5522 0.0
H3167 H 0.54996 0.99595 0.61764 0.0
C3168 C 0.12286 0.25893 0.10979 0.0
C3169 C 0.12206 0.26905 0.12244 0.0
H3170 H 0.13455 0.2519 0.09525 0.0
C3171 C 0.13264 0.2798 0.13263 0.0
H3172 H 0.11485 0.25054 0.10181 0.0
C3173 C 0.14378 0.28057 0.12868 0.0
C3174 C 0.14464 0.27062 0.11455 0.0
H3175 H 0.13238 0.28782 0.1417 0.0
H3176 H 0.15178 0.28907 0.13572 0.0
C3177 C 0.13409 0.25969 0.10622 0.0
C3178 C 0.73916 0.86351 0.12887 0.0
C3179 C 0.73507 0.85663 0.08916 0.0
H3180 H 0.74277 0.87969 0.1628 0.0
C3181 C 0.73263 0.86156 0.05103 0.0
H3182 H 0.7411 0.85994 0.15882 0.0
C3183 C 0.73344 0.87277 0.05343 0.0
C3184 C 0.73679 0.87936 0.09398 0.0
H3185 H 0.72965 0.85656 0.01971 0.0
H3186 H 0.73077 0.87591 0.02413 0.0
C3187 C 0.74 0.87477 0.13126 0.0
C3188 C 0.1286 0.85902 0.04468 0.0
C3189 C 0.12079 0.857 0.0811 0.0
H3190 H 0.14605 0.87013 0.01647 0.0
C3191 C 0.12451 0.8656 0.11583 0.0
H3192 H 0.1261 0.85252 0.01766 0.0
C3193 C 0.13602 0.8757 0.1152 0.0
C3194 C 0.14404 0.87728 0.08008 0.0
H3195 H 0.11865 0.86432 0.14416 0.0
H3196 H 0.13886 0.88192 0.1433 0.0
C3197 C 0.14009 0.86904 0.04421 0.0
C3198 C 0.26208 0.12531 0.88369 0.0
C3199 C 0.26793 0.12317 0.91952 0.0
H3200 H 0.25689 0.13731 0.85461 0.0
C3201 C 0.27214 0.13118 0.95614 0.0
H3202 H 0.25877 0.11928 0.85499 0.0
C3203 C 0.27114 0.14147 0.95584 0.0
C3204 C 0.26589 0.14401 0.91891 0.0
H3205 H 0.27656 0.12967 0.98448 0.0
H3206 H 0.27506 0.14774 0.98361 0.0
C3207 C 0.2611 0.13567 0.88331 0.0
C3208 C 0.85975 0.12535 0.94651 0.0
C3209 C 0.85631 0.11855 0.90646 0.0
H3210 H 0.87226 0.14181 0.97863 0.0
C3211 C 0.86388 0.12297 0.86849 0.0
H3212 H 0.85409 0.12232 0.97627 0.0
C3213 C 0.87427 0.13426 0.86978 0.0
C3214 C 0.87724 0.14135 0.90898 0.0
H3215 H 0.86154 0.11789 0.83729 0.0
H3216 H 0.87962 0.1377 0.83937 0.0
C3217 C 0.87009 0.1366 0.94774 0.0
C3218 C 0.86535 0.743 0.91666 0.0
C3219 C 0.8564 0.73557 0.88554 0.0
H3220 H 0.88257 0.74811 0.94544 0.0
C3221 C 0.85893 0.72869 0.85513 0.0
H3222 H 0.86391 0.74867 0.93986 0.0
C3223 C 0.86979 0.72874 0.85744 0.0
C3224 C 0.87827 0.73547 0.89068 0.0
H3225 H 0.85229 0.72266 0.8312 0.0
H3226 H 0.87123 0.72289 0.83512 0.0
C3227 C 0.8761 0.74281 0.91964 0.0
C3228 C 0.80086 0.59188 0.4736 0.0
C3229 C 0.80795 0.5953 0.43421 0.0
H3230 H 0.78482 0.58945 0.50555 0.0
C3231 C 0.80356 0.59805 0.39514 0.0
H3232 H 0.80388 0.58955 0.50411 0.0
C3233 C 0.79262 0.59783 0.39586 0.0
C3234 C 0.78581 0.59496 0.43574 0.0
H3235 H 0.80884 0.60098 0.36444 0.0
H3236 H 0.78983 0.60058 0.36575 0.0
C3237 C 0.78993 0.59177 0.47441 0.0
C3238 C 0.40492 0.19687 0.45664 0.0
C3239 C 0.4004 0.18985 0.41742 0.0
H3240 H 0.40887 0.21317 0.49055 0.0
C3241 C 0.39752 0.19464 0.37997 0.0
H3242 H 0.40719 0.1934 0.48607 0.0
C3243 C 0.39837 0.20586 0.38262 0.0
C3244 C 0.40216 0.21259 0.42278 0.0
H3245 H 0.39418 0.18951 0.34905 0.0
H3246 H 0.39538 0.20891 0.35394 0.0
C3247 C 0.40577 0.20813 0.45933 0.0
C3248 C 0.80325 0.20868 0.45076 0.0
C3249 C 0.81033 0.21099 0.41179 0.0
H3250 H 0.7867 0.1967 0.48405 0.0
C3251 C 0.80546 0.20339 0.37423 0.0
H3252 H 0.80679 0.21437 0.48027 0.0
C3253 C 0.79405 0.19328 0.37645 0.0
C3254 C 0.78721 0.19053 0.41629 0.0
H3255 H 0.81065 0.20504 0.34354 0.0
H3256 H 0.79089 0.18727 0.34767 0.0
C3257 C 0.7918 0.19851 0.45305 0.0
C3258 C 0.92867 0.46852 0.19475 0.0
C3259 C 0.92861 0.47489 0.23326 0.0
H3260 H 0.92998 0.45365 0.16901 0.0
C3261 C 0.92843 0.47016 0.27628 0.0
H3262 H 0.92874 0.47193 0.16119 0.0
C3263 C 0.92916 0.45975 0.28073 0.0
C3264 C 0.93 0.45381 0.24228 0.0
H3265 H 0.92849 0.47492 0.3066 0.0
H3266 H 0.92958 0.45662 0.31431 0.0
C3267 C 0.9293 0.45803 0.19922 0.0
C3268 C 0.53625 0.47037 0.27974 0.0
C3269 C 0.54341 0.47532 0.24114 0.0
H3270 H 0.52015 0.45603 0.30747 0.0
C3271 C 0.54028 0.46854 0.20108 0.0
H3272 H 0.53854 0.47532 0.31127 0.0
C3273 C 0.52976 0.45736 0.19897 0.0
C3274 C 0.52222 0.45273 0.23694 0.0
H3275 H 0.54562 0.47213 0.17075 0.0
H3276 H 0.52734 0.45251 0.16723 0.0
C3277 C 0.52578 0.45923 0.27768 0.0
C3278 C 0.54439 0.07669 0.26642 0.0
C3279 C 0.54732 0.07133 0.23099 0.0
H3280 H 0.53138 0.0806 0.29435 0.0
C3281 C 0.53964 0.06688 0.19341 0.0
H3282 H 0.55023 0.08035 0.29551 0.0
C3283 C 0.52882 0.06694 0.19285 0.0
C3284 C 0.52547 0.0715 0.22981 0.0
H3285 H 0.54157 0.06257 0.1658 0.0
H3286 H 0.52274 0.06267 0.1648 0.0
C3287 C 0.53359 0.0768 0.26579 0.0
C3288 C 0.45825 0.93212 0.73476 0.0
C3289 C 0.45227 0.93085 0.77585 0.0
H3290 H 0.47357 0.93348 0.70156 0.0
C3291 C 0.4569 0.9287 0.81554 0.0
H3292 H 0.45504 0.93403 0.70375 0.0
C3293 C 0.46752 0.9282 0.81426 0.0
C3294 C 0.4738 0.93 0.77336 0.0
H3295 H 0.45242 0.92762 0.84764 0.0
H3296 H 0.47093 0.92665 0.84548 0.0
C3297 C 0.4689 0.93176 0.73354 0.0
C3298 C 0.07231 0.54109 0.79842 0.0
C3299 C 0.06874 0.54517 0.76061 0.0
H3300 H 0.07379 0.52666 0.82806 0.0
C3301 C 0.06506 0.53808 0.7213 0.0
H3302 H 0.07531 0.5464 0.82904 0.0
C3303 C 0.06428 0.52688 0.72068 0.0
C3304 C 0.06713 0.52247 0.75934 0.0
H3305 H 0.0621 0.54084 0.6917 0.0
H3306 H 0.06101 0.52145 0.69038 0.0
C3307 C 0.07154 0.52984 0.79775 0.0
C3308 C 0.45871 0.5302 0.78784 0.0
C3309 C 0.45451 0.52204 0.75157 0.0
H3310 H 0.47336 0.54633 0.81522 0.0
C3311 C 0.46177 0.52455 0.713 0.0
H3312 H 0.45329 0.52853 0.81788 0.0
C3313 C 0.47318 0.53467 0.71152 0.0
C3314 C 0.47759 0.54255 0.74849 0.0
H3315 H 0.45888 0.51838 0.68472 0.0
H3316 H 0.4787 0.53617 0.68187 0.0
C3317 C 0.47014 0.54041 0.7862 0.0
C3318 C 0.60449 0.8077 0.62349 0.0
C3319 C 0.59873 0.80991 0.58744 0.0
H3320 H 0.61059 0.79634 0.65107 0.0
C3321 C 0.59378 0.80142 0.55236 0.0
H3322 H 0.60855 0.8141 0.6508 0.0
C3323 C 0.59508 0.79124 0.55237 0.0
C3324 C 0.60142 0.78944 0.58727 0.0
H3325 H 0.58919 0.80281 0.52433 0.0
H3326 H 0.59162 0.78509 0.52406 0.0
C3327 C 0.6058 0.79759 0.62341 0.0
C3328 C 0.19188 0.79293 0.61367 0.0
C3329 C 0.1884 0.78631 0.57319 0.0
H3330 H 0.20454 0.80908 0.64702 0.0
C3331 C 0.19605 0.79085 0.53541 0.0
H3332 H 0.18621 0.78985 0.64336 0.0
C3333 C 0.20653 0.80207 0.53739 0.0
C3334 C 0.20956 0.80896 0.57716 0.0
H3335 H 0.19374 0.78591 0.5039 0.0
H3336 H 0.21193 0.8056 0.50715 0.0
C3337 C 0.20234 0.80408 0.61565 0.0
C3338 C 0.20286 0.3964 0.5228 0.0
C3339 C 0.21105 0.40237 0.55773 0.0
H3340 H 0.18567 0.39112 0.49514 0.0
C3341 C 0.20879 0.40926 0.58865 0.0
H3342 H 0.2044 0.3909 0.49898 0.0
C3343 C 0.19819 0.40973 0.58581 0.0
C3344 C 0.18947 0.40301 0.55284 0.0
H3345 H 0.21504 0.41394 0.61586 0.0
H3346 H 0.19666 0.41503 0.61054 0.0
C3347 C 0.19214 0.39661 0.52057 0.0
C3348 C 0.00618 0.253 0.98478 0.0
C3349 C 0.01212 0.24724 0.00264 0.0
H3350 H 0.99026 0.25107 0.95421 0.0
C3351 C 0.00616 0.23463 0.00264 0.0
H3352 H 0.01036 0.26269 0.98516 0.0
C3353 C 0.99454 0.22795 0.98513 0.0
C3354 C 0.9887 0.23376 0.96695 0.0
H3355 H 0.01053 0.22991 0.01561 0.0
H3356 H 0.99015 0.21824 0.98547 0.0
C3357 C 0.99464 0.24635 0.96697 0.0
C3358 C 0.77115 0.76334 0.99512 0.0
C3359 C 0.76462 0.75072 0.99591 0.0
H3360 H 0.77131 0.7797 0.01094 0.0
C3361 C 0.75302 0.74494 0.0148 0.0
H3362 H 0.78016 0.76811 0.98155 0.0
C3363 C 0.74809 0.75158 0.03242 0.0
C3364 C 0.75456 0.76416 0.03106 0.0
H3365 H 0.74761 0.73524 0.01517 0.0
H3366 H 0.73905 0.74685 0.04583 0.0
C3367 C 0.76613 0.76999 0.01227 0.0
C3368 C 0.23881 0.99029 0.97056 0.0
C3369 C 0.23115 0.98703 0.00819 0.0
H3370 H 0.25077 0.00432 0.92643 0.0
C3371 C 0.22911 0.99569 0.02865 0.0
H3372 H 0.24069 0.98384 0.95452 0.0
C3373 C 0.23476 0.00744 0.0121 0.0
C3374 C 0.24269 0.01081 0.97509 0.0
H3375 H 0.22314 0.99337 0.05742 0.0
H3376 H 0.23297 0.01391 0.02852 0.0
C3377 C 0.24454 0.00204 0.95432 0.0
C3378 C 0.99763 0.75461 0.95033 0.0
C3379 C 0.98815 0.75468 0.97358 0.0
H3380 H 0.01622 0.75977 0.95049 0.0
C3381 C 0.99055 0.76088 0.01492 0.0
H3382 H 0.99613 0.75012 0.91802 0.0
C3383 C 0.00209 0.76643 0.03352 0.0
C3384 C 0.01142 0.76584 0.01123 0.0
H3385 H 0.98342 0.761 0.0339 0.0
H3386 H 0.0036 0.77075 0.0662 0.0
C3387 C 0.00913 0.76012 0.96896 0.0
C3388 C 0.24198 0.2333 0.04042 0.0
C3389 C 0.24276 0.23189 0.99367 0.0
H3390 H 0.23532 0.23975 0.09324 0.0
C3391 C 0.23671 0.23555 0.96392 0.0
H3392 H 0.24641 0.23037 0.06414 0.0
C3393 C 0.23046 0.24104 0.9805 0.0
C3394 C 0.23005 0.24289 0.02724 0.0
H3395 H 0.23725 0.23465 0.9277 0.0
H3396 H 0.22641 0.2443 0.95647 0.0
C3397 C 0.23565 0.23869 0.05704 0.0
C3398 C 0.74794 0.00542 0.00137 0.0
C3399 C 0.76006 0.01101 0.98832 0.0
H3400 H 0.73298 0.99014 0.03062 0.0
C3401 C 0.76627 0.00467 0.99398 0.0
H3402 H 0.74274 0.00986 0.99689 0.0
C3403 C 0.76047 0.99305 0.01188 0.0
C3404 C 0.74836 0.98753 0.02521 0.0
H3405 H 0.77565 0.00871 0.985 0.0
H3406 H 0.76547 0.98836 0.01465 0.0
C3407 C 0.74223 0.99395 0.02007 0.0
C3408 C 0.66205 0.56157 0.3165 0.0
C3409 C 0.65609 0.56738 0.29945 0.0
H3410 H 0.67809 0.56349 0.3461 0.0
C3411 C 0.66195 0.57996 0.30023 0.0
H3412 H 0.65772 0.55187 0.31617 0.0
C3413 C 0.67348 0.58661 0.31818 0.0
C3414 C 0.67951 0.58085 0.33529 0.0
H3415 H 0.65746 0.58465 0.28819 0.0
H3416 H 0.67756 0.59628 0.31947 0.0
C3417 C 0.67367 0.56823 0.33397 0.0
C3418 C 0.43659 0.09841 0.30974 0.0
C3419 C 0.43337 0.08709 0.32762 0.0
H3420 H 0.43375 0.11344 0.31098 0.0
C3421 C 0.42462 0.08226 0.36176 0.0
H3422 H 0.44343 0.10243 0.28385 0.0
C3423 C 0.41904 0.08851 0.37716 0.0
C3424 C 0.42211 0.09978 0.3589 0.0
H3425 H 0.42183 0.07347 0.37576 0.0
H3426 H 0.41203 0.08433 0.40236 0.0
C3427 C 0.43105 0.10471 0.32534 0.0
C3428 C 0.89662 0.32525 0.31847 0.0
C3429 C 0.90124 0.3214 0.35379 0.0
H3430 H 0.89895 0.3399 0.2768 0.0
C3431 C 0.91202 0.32983 0.37462 0.0
H3432 H 0.88826 0.31903 0.30205 0.0
C3433 C 0.91807 0.34176 0.36033 0.0
C3434 C 0.91352 0.34556 0.32474 0.0
H3435 H 0.91598 0.32715 0.40121 0.0
H3436 H 0.92647 0.34797 0.37651 0.0
C3437 C 0.90273 0.33719 0.30397 0.0
C3438 C 0.67299 0.10216 0.33193 0.0
C3439 C 0.67736 0.09585 0.35686 0.0
H3440 H 0.658 0.1014 0.29725 0.0
C3441 C 0.66958 0.08369 0.36683 0.0
H3442 H 0.67883 0.11152 0.32342 0.0
C3443 C 0.65774 0.0779 0.35165 0.0
C3444 C 0.65338 0.08413 0.32611 0.0
H3445 H 0.67266 0.07862 0.38632 0.0
H3446 H 0.65205 0.06845 0.35916 0.0
C3447 C 0.66112 0.09634 0.31655 0.0
C3448 C 0.9135 0.58738 0.33249 0.0
C3449 C 0.90221 0.58137 0.35361 0.0
H3450 H 0.92761 0.58595 0.30031 0.0
C3451 C 0.89638 0.56881 0.35782 0.0
H3452 H 0.91835 0.59707 0.32946 0.0
C3453 C 0.90172 0.56242 0.34111 0.0
C3454 C 0.91298 0.56846 0.31973 0.0
H3455 H 0.8876 0.5639 0.37337 0.0
H3456 H 0.89698 0.55275 0.34445 0.0
C3457 C 0.91881 0.581 0.31568 0.0
C3458 C 0.43279 0.33836 0.32445 0.0
C3459 C 0.42659 0.3447 0.31874 0.0
H3460 H 0.43197 0.32205 0.34542 0.0
C3461 C 0.41448 0.33915 0.33193 0.0
H3462 H 0.44217 0.34237 0.31533 0.0
C3463 C 0.40878 0.3277 0.35082 0.0
C3464 C 0.41489 0.32127 0.35601 0.0
H3465 H 0.40929 0.34359 0.32742 0.0
H3466 H 0.39954 0.32393 0.36147 0.0
C3467 C 0.42699 0.32676 0.34257 0.0
C3468 C 0.32754 0.89611 0.65874 0.0
C3469 C 0.32213 0.90164 0.63503 0.0
H3470 H 0.34326 0.89836 0.69247 0.0
C3471 C 0.32873 0.91407 0.62754 0.0
H3472 H 0.32268 0.88652 0.66476 0.0
C3473 C 0.34043 0.92086 0.6438 0.0
C3474 C 0.34586 0.91537 0.66772 0.0
H3475 H 0.32472 0.91862 0.61024 0.0
H3476 H 0.34514 0.93047 0.63842 0.0
C3477 C 0.33929 0.9029 0.67482 0.0
C3478 C 0.09862 0.43637 0.68377 0.0
C3479 C 0.08678 0.43032 0.70009 0.0
H3480 H 0.11302 0.43485 0.65454 0.0
C3481 C 0.08022 0.41774 0.69819 0.0
H3482 H 0.10388 0.44607 0.68499 0.0
C3483 C 0.08534 0.41133 0.68009 0.0
C3484 C 0.09721 0.41732 0.66388 0.0
H3485 H 0.07099 0.41285 0.70962 0.0
H3486 H 0.07988 0.40165 0.67804 0.0
C3487 C 0.10381 0.42994 0.66607 0.0
C3488 C 0.57589 0.66331 0.70892 0.0
C3489 C 0.56539 0.65455 0.68744 0.0
H3490 H 0.59009 0.68158 0.70992 0.0
C3491 C 0.56092 0.65799 0.65035 0.0
H3492 H 0.57976 0.66098 0.73689 0.0
C3493 C 0.56699 0.66981 0.63443 0.0
C3494 C 0.57755 0.67847 0.65563 0.0
H3495 H 0.55275 0.65154 0.6334 0.0
H3496 H 0.56341 0.67218 0.60559 0.0
C3497 C 0.58186 0.67513 0.69332 0.0
C3498 C 0.3352 0.43049 0.69858 0.0
C3499 C 0.34474 0.43314 0.66897 0.0
H3500 H 0.31626 0.4227 0.70653 0.0
C3501 C 0.34234 0.43076 0.6226 0.0
H3502 H 0.33678 0.43211 0.73453 0.0
C3503 C 0.33058 0.42547 0.60638 0.0
C3504 C 0.32097 0.42238 0.63622 0.0
H3505 H 0.34955 0.43291 0.59889 0.0
H3506 H 0.32902 0.42367 0.57051 0.0
C3507 C 0.32344 0.42512 0.68242 0.0
C3508 C 0.58639 0.91618 0.65157 0.0
C3509 C 0.58078 0.90361 0.65336 0.0
H3510 H 0.58503 0.93178 0.66491 0.0
C3511 C 0.56899 0.89703 0.66998 0.0
H3512 H 0.59543 0.92149 0.63857 0.0
C3513 C 0.56299 0.90294 0.68501 0.0
C3514 C 0.56864 0.91553 0.68325 0.0
H3515 H 0.56449 0.88733 0.67206 0.0
H3516 H 0.5539 0.89767 0.69758 0.0
C3517 C 0.58039 0.92207 0.6663 0.0
C3518 C 0.07554 0.66045 0.68324 0.0
C3519 C 0.08146 0.65378 0.68521 0.0
H3520 H 0.07636 0.67685 0.66455 0.0
C3521 C 0.09344 0.65917 0.67035 0.0
H3522 H 0.06638 0.65668 0.69497 0.0
C3523 C 0.09931 0.67094 0.65385 0.0
C3524 C 0.09332 0.67756 0.65164 0.0
H3525 H 0.09824 0.65425 0.67088 0.0
H3526 H 0.10858 0.67489 0.64328 0.0
C3527 C 0.08134 0.67212 0.66636 0.0
C3528 C 0.09552 0.3257 0.78049 0.0
C3529 C 0.10686 0.33614 0.77732 0.0
H3530 H 0.0831 0.31112 0.8222 0.0
C3531 C 0.11478 0.33932 0.8143 0.0
H3532 H 0.08928 0.32276 0.75244 0.0
C3533 C 0.11132 0.33241 0.85371 0.0
C3534 C 0.09982 0.32233 0.85719 0.0
H3535 H 0.1235 0.34738 0.81356 0.0
H3536 H 0.11745 0.33519 0.88211 0.0
C3537 C 0.09199 0.31896 0.82022 0.0
C3538 C 0.68045 0.7743 0.83121 0.0
C3539 C 0.67493 0.76973 0.87317 0.0
H3540 H 0.67835 0.77417 0.75949 0.0
C3541 C 0.66257 0.76146 0.87446 0.0
H3542 H 0.69 0.78057 0.82916 0.0
C3543 C 0.65585 0.75788 0.83461 0.0
C3544 C 0.66136 0.76241 0.79249 0.0
H3545 H 0.65806 0.7579 0.9064 0.0
H3546 H 0.64629 0.7517 0.83695 0.0
C3547 C 0.67376 0.77065 0.79131 0.0
C3548 C 0.22916 0.90674 0.83453 0.0
C3549 C 0.23112 0.90304 0.87692 0.0
H3550 H 0.2306 0.90606 0.76257 0.0
C3551 C 0.23625 0.89562 0.87841 0.0
H3552 H 0.22501 0.91225 0.83199 0.0
C3553 C 0.23929 0.89196 0.83854 0.0
C3554 C 0.23737 0.89571 0.79632 0.0
H3555 H 0.23807 0.89276 0.91042 0.0
H3556 H 0.24332 0.88633 0.84077 0.0
C3557 C 0.23232 0.90316 0.7947 0.0
C3558 C 0.32038 0.09047 0.16739 0.0
C3559 C 0.3261 0.09463 0.12532 0.0
H3560 H 0.32233 0.09085 0.23943 0.0
C3561 C 0.33858 0.10247 0.12443 0.0
H3562 H 0.31076 0.08459 0.16944 0.0
C3563 C 0.34515 0.10616 0.16456 0.0
C3564 C 0.33942 0.10202 0.20649 0.0
H3565 H 0.34331 0.10567 0.09268 0.0
H3566 H 0.35476 0.11213 0.16275 0.0
C3567 C 0.32699 0.09408 0.20752 0.0
C3568 C 0.90904 0.24145 0.18861 0.0
C3569 C 0.89797 0.23367 0.20925 0.0
H3570 H 0.9209 0.24441 0.13308 0.0
C3571 C 0.89042 0.22245 0.18916 0.0
H3572 H 0.915 0.25024 0.20268 0.0
C3573 C 0.89374 0.2192 0.14897 0.0
C3574 C 0.90474 0.22704 0.12821 0.0
H3575 H 0.88194 0.21613 0.20455 0.0
H3576 H 0.88775 0.2105 0.13431 0.0
C3577 C 0.91241 0.23815 0.14863 0.0
C3578 C 0.77001 0.67199 0.21023 0.0
C3579 C 0.77007 0.66108 0.21245 0.0
H3580 H 0.77298 0.68699 0.16932 0.0
C3581 C 0.77406 0.65742 0.17454 0.0
H3582 H 0.7673 0.67528 0.23898 0.0
C3583 C 0.77766 0.66436 0.13521 0.0
C3584 C 0.77711 0.67495 0.13283 0.0
H3585 H 0.77407 0.64901 0.17457 0.0
H3586 H 0.78046 0.66126 0.10612 0.0
C3587 C 0.77336 0.67877 0.1706 0.0
C3588 C 0.89265 0.67399 0.16535 0.0
C3589 C 0.90185 0.67452 0.13806 0.0
H3590 H 0.88175 0.66656 0.22432 0.0
C3591 C 0.90734 0.66787 0.15077 0.0
H3592 H 0.88834 0.67911 0.15675 0.0
C3593 C 0.90365 0.66078 0.18969 0.0
C3594 C 0.8944 0.66018 0.21681 0.0
H3595 H 0.91437 0.66799 0.13026 0.0
H3596 H 0.90811 0.65582 0.19866 0.0
C3597 C 0.88898 0.66691 0.20434 0.0
C3598 C 0.32636 0.22104 0.15942 0.0
C3599 C 0.32646 0.22991 0.13122 0.0
H3600 H 0.33286 0.21721 0.22027 0.0
C3601 C 0.33363 0.24203 0.14353 0.0
H3602 H 0.3208 0.21161 0.15153 0.0
C3603 C 0.34037 0.2452 0.1833 0.0
C3604 C 0.34022 0.23633 0.21139 0.0
H3605 H 0.33412 0.24912 0.12226 0.0
H3606 H 0.34583 0.25461 0.19185 0.0
C3607 C 0.33323 0.22423 0.19893 0.0
C3608 C 0.77763 0.11005 0.1396 0.0
C3609 C 0.7728 0.09785 0.1292 0.0
H3610 H 0.77776 0.123 0.18523 0.0
C3611 C 0.76457 0.08917 0.1592 0.0
H3612 H 0.7839 0.11692 0.11681 0.0
C3613 C 0.76115 0.09263 0.19866 0.0
C3614 C 0.76581 0.10484 0.20882 0.0
H3615 H 0.76085 0.0797 0.15232 0.0
H3616 H 0.75491 0.08571 0.22134 0.0
C3617 C 0.77413 0.11351 0.17889 0.0
C3618 C 0.66767 0.90736 0.81046 0.0
C3619 C 0.66034 0.89518 0.79911 0.0
H3620 H 0.6801 0.9201 0.85778 0.0
C3621 C 0.66023 0.88641 0.82783 0.0
H3622 H 0.66819 0.91437 0.78873 0.0
C3623 C 0.66723 0.88973 0.86703 0.0
C3624 C 0.67435 0.90188 0.87861 0.0
H3625 H 0.65455 0.87695 0.82063 0.0
H3626 H 0.66684 0.88279 0.88886 0.0
C3627 C 0.67454 0.91066 0.84991 0.0
C3628 C 0.102 0.7583 0.83597 0.0
C3629 C 0.10384 0.76465 0.79538 0.0
H3630 H 0.09738 0.75687 0.90598 0.0
C3631 C 0.10221 0.77465 0.79467 0.0
H3632 H 0.10336 0.75065 0.83758 0.0
C3633 C 0.09862 0.77813 0.83369 0.0
C3634 C 0.09671 0.77175 0.87437 0.0
H3635 H 0.10345 0.77962 0.76367 0.0
H3636 H 0.09712 0.78569 0.83168 0.0
C3637 C 0.09853 0.76184 0.87508 0.0
C3638 C 0.22243 0.33126 0.86098 0.0
C3639 C 0.2302 0.32776 0.88018 0.0
H3640 H 0.21948 0.34063 0.80715 0.0
C3641 C 0.24126 0.33126 0.85918 0.0
H3642 H 0.21381 0.32859 0.87631 0.0
C3643 C 0.24452 0.33818 0.81981 0.0
C3644 C 0.23671 0.34159 0.80039 0.0
H3645 H 0.24743 0.32873 0.87345 0.0
H3646 H 0.25309 0.34075 0.80421 0.0
C3647 C 0.22562 0.33805 0.82127 0.0
C3648 C 0.00353 0.44486 0.53126 0.0
C3649 C 0.00772 0.43742 0.54809 0.0
H3650 H 0.99396 0.44796 0.47874 0.0
C3651 C 0.00519 0.42701 0.524 0.0
H3652 H 0.0055 0.45305 0.54875 0.0
C3653 C 0.99854 0.42406 0.48403 0.0
C3654 C 0.99432 0.4315 0.46714 0.0
H3655 H 0.00818 0.42102 0.53647 0.0
H3656 H 0.99652 0.41583 0.46683 0.0
C3657 C 0.99692 0.44195 0.49117 0.0
C3658 C 0.57001 0.5565 0.49667 0.0
C3659 C 0.57048 0.56207 0.45525 0.0
H3660 H 0.5668 0.5558 0.56785 0.0
C3661 C 0.56772 0.57135 0.45437 0.0
H3662 H 0.57227 0.54946 0.49855 0.0
C3663 C 0.56455 0.57497 0.49407 0.0
C3664 C 0.56411 0.56942 0.53556 0.0
H3665 H 0.56785 0.5757 0.42287 0.0
H3666 H 0.56227 0.58199 0.4921 0.0
C3667 C 0.56687 0.56014 0.53638 0.0
C3668 C 0.42701 0.99534 0.50872 0.0
C3669 C 0.43535 0.9937 0.5338 0.0
H3670 H 0.42376 0.00278 0.44925 0.0
C3671 C 0.44708 0.9984 0.51726 0.0
H3672 H 0.41787 0.99169 0.52055 0.0
C3673 C 0.45047 0.00481 0.47662 0.0
C3674 C 0.44211 0.00641 0.45151 0.0
H3675 H 0.45367 0.99727 0.53607 0.0
H3676 H 0.4596 0.00845 0.46465 0.0
C3677 C 0.43034 0.00156 0.4678 0.0
C3678 C 0.56807 0.99312 0.51574 0.0
C3679 C 0.55757 0.99111 0.53795 0.0
H3680 H 0.58011 0.00157 0.46033 0.0
C3681 C 0.55105 0.99628 0.52038 0.0
H3682 H 0.57333 0.98933 0.52878 0.0
C3683 C 0.55491 0.00325 0.48115 0.0
C3684 C 0.56545 0.00532 0.45911 0.0
H3685 H 0.54288 0.9948 0.53669 0.0
H3686 H 0.54975 0.00717 0.4684 0.0
C3687 C 0.572 0.0002 0.47683 0.0
C3688 C 0.00179 0.55849 0.46223 0.0
C3689 C 0.99173 0.56001 0.45837 0.0
H3690 H 0.01664 0.56098 0.50251 0.0
C3691 C 0.98889 0.56517 0.4948 0.0
H3692 H 0.0042 0.5544 0.43524 0.0
C3693 C 0.99578 0.56854 0.53419 0.0
C3694 C 0.00589 0.5671 0.53799 0.0
H3695 H 0.98138 0.56672 0.49298 0.0
H3696 H 0.99308 0.57219 0.5618 0.0
C3697 C 0.00883 0.56207 0.50133 0.0
C3698 C 0.42928 0.42164 0.48716 0.0
C3699 C 0.43861 0.43035 0.46052 0.0
H3700 H 0.41869 0.41793 0.54705 0.0
C3701 C 0.44456 0.44236 0.47495 0.0
H3702 H 0.42467 0.41228 0.47725 0.0
C3703 C 0.44109 0.44561 0.51482 0.0
C3704 C 0.43164 0.43692 0.5412 0.0
H3705 H 0.45171 0.44928 0.45484 0.0
H3706 H 0.44563 0.45499 0.52435 0.0
C3707 C 0.42585 0.42488 0.5271 0.0
C3708 C 0.10081 0.33544 0.29127 0.0
C3709 C 0.08876 0.32995 0.27742 0.0
H3710 H 0.11393 0.34627 0.34036 0.0
C3711 C 0.08057 0.33151 0.30398 0.0
H3712 H 0.10733 0.33428 0.2721 0.0
C3713 C 0.08437 0.33834 0.34375 0.0
C3714 C 0.09639 0.34361 0.3578 0.0
H3715 H 0.07124 0.32745 0.29404 0.0
H3716 H 0.07786 0.33926 0.36405 0.0
C3717 C 0.10457 0.3422 0.33078 0.0
C3718 C 0.66118 0.74734 0.3429 0.0
C3719 C 0.66064 0.75536 0.37361 0.0
H3720 H 0.66882 0.74528 0.28157 0.0
C3721 C 0.6684 0.76772 0.36803 0.0
H3722 H 0.65524 0.73776 0.34665 0.0
C3723 C 0.67634 0.77203 0.33163 0.0
C3724 C 0.67655 0.7641 0.29931 0.0
H3725 H 0.66826 0.77406 0.3918 0.0
H3726 H 0.68225 0.78163 0.32867 0.0
C3727 C 0.669 0.75166 0.30584 0.0
C3728 C 0.23242 0.89852 0.3012 0.0
C3729 C 0.23741 0.91091 0.29524 0.0
H3730 H 0.23192 0.88443 0.34077 0.0
C3731 C 0.24619 0.91883 0.32552 0.0
H3732 H 0.22574 0.89227 0.27776 0.0
C3733 C 0.24955 0.91436 0.36255 0.0
C3734 C 0.24429 0.9019 0.36944 0.0
H3735 H 0.25013 0.92844 0.32141 0.0
H3736 H 0.25595 0.92068 0.38649 0.0
C3737 C 0.23591 0.89406 0.33754 0.0
C3738 C 0.34312 0.10569 0.66576 0.0
C3739 C 0.34329 0.09781 0.63312 0.0
H3740 H 0.33497 0.10763 0.72592 0.0
C3741 C 0.33566 0.08537 0.63917 0.0
H3742 H 0.34908 0.11529 0.66313 0.0
C3743 C 0.32778 0.08099 0.67603 0.0
C3744 C 0.32727 0.08898 0.70699 0.0
H3745 H 0.33544 0.07902 0.61463 0.0
H3746 H 0.32177 0.07142 0.67939 0.0
C3747 C 0.33512 0.10133 0.70196 0.0
C3748 C 0.89676 0.23231 0.70317 0.0
C3749 C 0.90901 0.23634 0.70875 0.0
H3750 H 0.88324 0.23291 0.66344 0.0
C3751 C 0.91728 0.24464 0.67792 0.0
H3752 H 0.89025 0.22604 0.727 0.0
C3753 C 0.91326 0.24839 0.64065 0.0
C3754 C 0.90091 0.24401 0.63401 0.0
H3755 H 0.92678 0.24784 0.68163 0.0
H3756 H 0.9198 0.25433 0.61621 0.0
C3757 C 0.89277 0.2362 0.66654 0.0
C3758 C 0.75139 0.66869 0.68699 0.0
C3759 C 0.76156 0.67071 0.71182 0.0
H3760 H 0.74036 0.66044 0.62863 0.0
C3761 C 0.76838 0.66565 0.69633 0.0
H3762 H 0.74592 0.67242 0.69823 0.0
C3763 C 0.76516 0.65877 0.65709 0.0
C3764 C 0.75509 0.65682 0.63193 0.0
H3765 H 0.77637 0.66716 0.71416 0.0
H3766 H 0.77061 0.65496 0.64641 0.0
C3767 C 0.74815 0.66175 0.64747 0.0
C3768 C 0.89537 0.66761 0.64096 0.0
C3769 C 0.89786 0.65821 0.6359 0.0
H3770 H 0.89732 0.68219 0.68194 0.0
C3771 C 0.9046 0.65649 0.66943 0.0
H3772 H 0.8903 0.66922 0.61546 0.0
C3773 C 0.90862 0.66392 0.7075 0.0
C3774 C 0.90612 0.67331 0.71253 0.0
H3775 H 0.90659 0.64927 0.66657 0.0
H3776 H 0.91377 0.66237 0.73288 0.0
C3777 C 0.89949 0.67511 0.67877 0.0
C3778 C 0.33606 0.24057 0.71687 0.0
C3779 C 0.32356 0.23533 0.71172 0.0
H3780 H 0.35313 0.24764 0.68413 0.0
C3781 C 0.31879 0.23369 0.66783 0.0
H3782 H 0.34004 0.24178 0.75011 0.0
C3783 C 0.3263 0.23697 0.63004 0.0
C3784 C 0.33876 0.24201 0.63524 0.0
H3785 H 0.30924 0.22988 0.66262 0.0
H3786 H 0.32234 0.23557 0.59669 0.0
C3787 C 0.34357 0.24391 0.67906 0.0
C3788 C 0.7613 0.08619 0.66818 0.0
C3789 C 0.76474 0.09297 0.70829 0.0
H3790 H 0.75518 0.08474 0.59991 0.0
C3791 C 0.76415 0.10359 0.71007 0.0
H3792 H 0.76181 0.07807 0.66532 0.0
C3793 C 0.76044 0.10746 0.67243 0.0
C3794 C 0.75715 0.10075 0.63222 0.0
H3795 H 0.76649 0.10891 0.74066 0.0
H3796 H 0.76008 0.11567 0.67488 0.0
C3797 C 0.75752 0.09002 0.63062 0.0
C3798 C 0.66036 0.90351 0.29878 0.0
C3799 C 0.67265 0.90739 0.30312 0.0
H3800 H 0.64353 0.89724 0.33237 0.0
C3801 C 0.67738 0.90793 0.34639 0.0
H3802 H 0.65649 0.90316 0.26591 0.0
C3803 C 0.66996 0.90445 0.38444 0.0
C3804 C 0.65763 0.90043 0.38012 0.0
H3805 H 0.68678 0.91073 0.35074 0.0
H3806 H 0.67384 0.90463 0.41711 0.0
C3807 C 0.65294 0.90009 0.33685 0.0
C3808 C 0.10605 0.76839 0.34982 0.0
C3809 C 0.09745 0.7584 0.37416 0.0
H3810 H 0.10955 0.78041 0.29465 0.0
C3811 C 0.0854 0.75276 0.36032 0.0
H3812 H 0.11537 0.77308 0.36023 0.0
C3813 C 0.08205 0.75691 0.32241 0.0
C3814 C 0.09068 0.76684 0.29774 0.0
H3815 H 0.07859 0.745 0.37831 0.0
H3816 H 0.07274 0.7522 0.31193 0.0
C3817 C 0.1027 0.77258 0.31219 0.0
C3818 C 0.2266 0.32778 0.32185 0.0
C3819 C 0.23441 0.3243 0.30288 0.0
H3820 H 0.2239 0.33798 0.37286 0.0
C3821 C 0.24589 0.32876 0.32178 0.0
H3822 H 0.21776 0.32463 0.30769 0.0
C3823 C 0.24945 0.33651 0.35901 0.0
C3824 C 0.24165 0.34002 0.37781 0.0
H3825 H 0.25209 0.32619 0.30803 0.0
H3826 H 0.25838 0.33986 0.37272 0.0
C3827 C 0.23018 0.33556 0.35883 0.0
C3828 C 0.01233 0.43346 0.01606 0.0
C3829 C 0.00823 0.42821 0.97329 0.0
H3830 H 0.00787 0.43433 0.08517 0.0
C3831 C 0.9963 0.41874 0.9691 0.0
H3832 H 0.02153 0.44053 0.02096 0.0
C3833 C 0.98855 0.41501 0.00638 0.0
C3834 C 0.99255 0.42078 0.04826 0.0
H3835 H 0.99279 0.41454 0.93667 0.0
H3836 H 0.9793 0.408 0.00201 0.0
C3837 C 0.00456 0.42986 0.05297 0.0
C3838 C 0.58215 0.57965 0.02541 0.0
C3839 C 0.57812 0.56733 0.03065 0.0
H3840 H 0.58142 0.59324 0.98558 0.0
C3841 C 0.57072 0.55933 0.99696 0.0
H3842 H 0.58778 0.58606 0.05081 0.0
C3843 C 0.56696 0.56342 0.96029 0.0
C3844 C 0.57063 0.57563 0.95595 0.0
H3845 H 0.56771 0.54984 0.99911 0.0
H3846 H 0.56108 0.55699 0.93535 0.0
C3847 C 0.57848 0.58377 0.98822 0.0
C3848 C 0.41913 0.00338 0.02132 0.0
C3849 C 0.43144 0.0116 0.02666 0.0
H3850 H 0.40541 0.98979 0.97983 0.0
C3851 C 0.43937 0.01267 0.99191 0.0
H3852 H 0.41279 0.00229 0.04756 0.0
C3853 C 0.43518 0.00543 0.95353 0.0
C3854 C 0.42293 0.99695 0.94861 0.0
H3855 H 0.44888 0.01903 0.99458 0.0
H3856 H 0.44165 0.00624 0.92834 0.0
C3857 C 0.41492 0.99612 0.98274 0.0
C3858 C 0.55947 0.9994 0.97161 0.0
C3859 C 0.56464 0.99245 0.95894 0.0
H3860 H 0.55928 0.01191 0.01866 0.0
C3861 C 0.57419 0.99327 0.98485 0.0
H3862 H 0.55222 0.99914 0.95213 0.0
C3863 C 0.57841 0.00081 0.0226 0.0
C3864 C 0.57317 0.00768 0.03545 0.0
H3865 H 0.57831 0.98796 0.97636 0.0
H3866 H 0.58583 0.00128 0.04159 0.0
C3867 C 0.56365 0.00688 0.00943 0.0
C3868 C 0.99135 0.56569 0.954 0.0
C3869 C 0.00358 0.57436 0.95819 0.0
H3870 H 0.97443 0.55541 0.98728 0.0
C3871 C 0.00793 0.57973 0.00061 0.0
H3872 H 0.98764 0.56156 0.92165 0.0
C3873 C 0.00031 0.57626 0.03818 0.0
C3874 C 0.9882 0.56731 0.0342 0.0
H3875 H 0.01731 0.58633 0.00518 0.0
H3876 H 0.00402 0.58027 0.07069 0.0
C3877 C 0.98377 0.56219 0.99156 0.0
C3878 C 0.42664 0.43465 0.04259 0.0
C3879 C 0.42868 0.42489 0.03939 0.0
H3880 H 0.42122 0.44587 0.00864 0.0
C3881 C 0.42624 0.41865 0.99816 0.0
H3882 H 0.42816 0.43951 0.07404 0.0
C3883 C 0.42211 0.42221 0.96088 0.0
C3884 C 0.4204 0.43216 0.96385 0.0
H3885 H 0.42786 0.41121 0.9942 0.0
H3886 H 0.42061 0.41742 0.92926 0.0
C3887 C 0.42261 0.43827 0.0052 0.0
loop_
_geom_bond_atom_site_label_1
_geom_bond_atom_site_label_2
_geom_bond_distance
_geom_bond_site_symmetry_2
_ccdc_geom_bond_type
Li0 N17 1.990 . S
Li0 O60 1.956 . S
Li0 O61 1.970 . S
Li0 O62 1.961 . S
Li1 N25 1.990 . S
Li1 O60 1.970 . S
Li1 O61 1.956 . S
Li1 O63 1.961 . S
Li2 N47 1.990 1_554 S
Li2 O60 1.961 . S
Li2 O62 1.956 . S
Li2 O63 1.970 . S
Li3 N53 1.990 . S
Li3 O61 1.961 . S
Li3 O62 1.970 . S
Li3 O63 1.956 . S
C4 C6 1.348 . S
C4 C7 1.356 . S
C4 O60 1.325 . S
N5 C8 1.314 . S
N5 C9 1.279 . S
C6 C4 1.348 . S
C6 C8 1.353 . S
C6 H64 0.929 . S
C7 C4 1.356 . S
C7 C9 1.358 . S
C7 H65 0.930 . S
C8 N5 1.314 . S
C8 C6 1.353 . S
C8 H66 0.930 . S
C9 N5 1.279 . S
C9 C7 1.358 . S
C9 H67 0.930 . S
C10 C13 1.348 . S
C10 C14 1.356 . S
C10 O61 1.325 . S
C11 N12 1.279 . S
C11 C14 1.358 . S
C11 H68 0.930 . S
N12 C11 1.279 . S
N12 C15 1.314 . S
C13 C10 1.348 . S
C13 C15 1.353 . S
C13 H69 0.929 . S
C14 C10 1.356 . S
C14 C11 1.358 . S
C14 H70 0.930 . S
C15 N12 1.314 . S
C15 C13 1.353 . S
C15 H71 0.930 . S
C16 N17 1.314 . S
C16 C21 1.353 . S
C16 H22 0.930 . S
N17 Li0 1.990 . S
N17 C16 1.314 . S
N17 C19 1.279 . S
C18 C19 1.358 . S
C18 C20 1.356 . S
C18 H72 0.930 . S
C19 N17 1.279 . S
C19 C18 1.358 . S
C19 H23 0.930 . S
C20 C18 1.356 . S
C20 C21 1.348 . S
C21 C16 1.353 . S
C21 C20 1.348 . S
C21 H73 0.929 . S
H22 C16 0.930 . S
H23 C19 0.930 . S
C24 N25 1.314 . S
C24 C26 1.353 . S
C24 H30 0.930 . S
N25 Li1 1.990 . S
N25 C24 1.314 . S
N25 C28 1.279 . S
C26 C24 1.353 . S
C26 C29 1.348 . S
C26 H74 0.929 . S
C27 C28 1.358 . S
C27 C29 1.356 . S
C27 H75 0.930 . S
C28 N25 1.279 . S
C28 C27 1.358 . S
C28 H31 0.930 . S
C29 C26 1.348 . S
C29 C27 1.356 . S
H30 C24 0.930 . S
H31 C28 0.930 . S
C32 C34 1.348 . S
C32 C35 1.356 . S
C32 O62 1.325 . S
N33 C36 1.314 . S
N33 C37 1.279 . S
C34 C32 1.348 . S
C34 C36 1.353 . S
C34 H76 0.929 . S
C35 C32 1.356 . S
C35 C37 1.358 . S
C35 H77 0.930 . S
C36 N33 1.314 . S
C36 C34 1.353 . S
C36 H78 0.930 . S
C37 N33 1.279 . S
C37 C35 1.358 . S
C37 H79 0.930 . S
C38 C39 1.348 . S
C38 C40 1.356 . S
C38 O63 1.325 1_556 S
C39 C38 1.348 . S
C39 C41 1.353 . S
C39 H80 0.929 . S
C40 C38 1.356 . S
C40 C42 1.358 . S
C40 H81 0.930 1_556 S
C41 C39 1.353 . S
C41 N43 1.314 . S
C41 H82 0.930 . S
C42 C40 1.358 . S
C42 N43 1.279 . S
C42 H83 0.930 . S
N43 C41 1.314 . S
N43 C42 1.279 . S
C44 C46 1.353 . S
C44 N47 1.314 . S
C44 H50 0.930 . S
C45 N47 1.279 . S
C45 C48 1.358 . S
C45 H51 0.930 . S
C46 C44 1.353 . S
C46 C49 1.348 . S
C46 H84 0.929 . S
N47 Li2 1.990 1_556 S
N47 C44 1.314 . S
N47 C45 1.279 . S
C48 C45 1.358 . S
C48 C49 1.356 . S
C48 H85 0.930 . S
C49 C46 1.348 . S
C49 C48 1.356 . S
H50 C44 0.930 . S
H51 C45 0.930 . S
C52 N53 1.314 . S
C52 C54 1.353 . S
C52 H58 0.930 . S
N53 Li3 1.990 . S
N53 C52 1.314 . S
N53 C56 1.279 . S
C54 C52 1.353 . S
C54 C57 1.348 . S
C54 H86 0.929 . S
C55 C56 1.358 . S
C55 C57 1.356 . S
C55 H87 0.930 1_554 S
C56 N53 1.279 . S
C56 C55 1.358 . S
C56 H59 0.930 1_554 S
C57 C54 1.348 . S
C57 C55 1.356 . S
H58 C52 0.930 . S
H59 C56 0.930 1_556 S
O60 Li0 1.956 . S
O60 Li1 1.970 . S
O60 Li2 1.961 . S
O60 C4 1.325 . S
O61 Li0 1.970 . S
O61 Li1 1.956 . S
O61 Li3 1.961 . S
O61 C10 1.325 . S
O62 Li0 1.961 . S
O62 Li2 1.956 . S
O62 Li3 1.970 . S
O62 C32 1.325 . S
O63 Li1 1.961 . S
O63 Li2 1.970 . S
O63 Li3 1.956 . S
O63 C38 1.325 1_554 S
H64 C6 0.929 . S
H65 C7 0.930 . S
H66 C8 0.930 . S
H67 C9 0.930 . S
H68 C11 0.930 . S
H69 C13 0.929 . S
H70 C14 0.930 . S
H71 C15 0.930 . S
H72 C18 0.930 . S
H73 C21 0.929 . S
H74 C26 0.929 . S
H75 C27 0.930 . S
H76 C34 0.929 . S
H77 C35 0.930 . S
H78 C36 0.930 . S
H79 C37 0.930 . S
H80 C39 0.929 . S
H81 C40 0.930 1_554 S
H82 C41 0.930 . S
H83 C42 0.930 . S
H84 C46 0.929 . S
H85 C48 0.930 . S
H86 C54 0.929 . S
H87 C55 0.930 1_556 S
Li88 N105 1.990 . S
Li88 O148 1.956 . S
Li88 O149 1.970 . S
Li88 O150 1.961 . S
Li89 N113 1.990 . S
Li89 O148 1.970 . S
Li89 O149 1.956 . S
Li89 O151 1.961 . S
Li90 N135 1.990 . S
Li90 O148 1.961 . S
Li90 O150 1.956 . S
Li90 O151 1.970 . S
Li91 N141 1.990 1_554 S
Li91 O149 1.961 . S
Li91 O150 1.970 . S
Li91 O151 1.956 . S
C92 C94 1.348 . S
C92 C95 1.356 . S
C92 O148 1.325 . S
N93 C96 1.314 . S
N93 C97 1.279 . S
C94 C92 1.348 . S
C94 C96 1.353 . S
C94 H152 0.929 . S
C95 C92 1.356 . S
C95 C97 1.358 . S
C95 H153 0.930 . S
C96 N93 1.314 . S
C96 C94 1.353 . S
C96 H154 0.930 . S
C97 N93 1.279 . S
C97 C95 1.358 . S
C97 H155 0.930 . S
C98 C101 1.348 . S
C98 C102 1.356 . S
C98 O149 1.325 . S
C99 N100 1.279 . S
C99 C102 1.358 . S
C99 H156 0.930 . S
N100 C99 1.279 . S
N100 C103 1.314 . S
C101 C98 1.348 . S
C101 C103 1.353 . S
C101 H157 0.929 . S
C102 C98 1.356 . S
C102 C99 1.358 . S
C102 H158 0.930 . S
C103 N100 1.314 . S
C103 C101 1.353 . S
C103 H159 0.930 . S
C104 N105 1.314 . S
C104 C109 1.353 . S
C104 H110 0.930 . S
N105 Li88 1.990 . S
N105 C104 1.314 . S
N105 C107 1.279 . S
C106 C107 1.358 . S
C106 C108 1.356 . S
C106 H160 0.930 . S
C107 N105 1.279 . S
C107 C106 1.358 . S
C107 H111 0.930 . S
C108 C106 1.356 . S
C108 C109 1.348 . S
C109 C104 1.353 . S
C109 C108 1.348 . S
C109 H161 0.929 . S
H110 C104 0.930 . S
H111 C107 0.930 . S
C112 N113 1.314 . S
C112 C114 1.353 . S
C112 H118 0.930 . S
N113 Li89 1.990 . S
N113 C112 1.314 . S
N113 C116 1.279 . S
C114 C112 1.353 . S
C114 C117 1.348 . S
C114 H162 0.929 . S
C115 C116 1.358 . S
C115 C117 1.356 . S
C115 H163 0.930 . S
C116 N113 1.279 . S
C116 C115 1.358 . S
C116 H119 0.930 . S
C117 C114 1.348 . S
C117 C115 1.356 . S
H118 C112 0.930 . S
H119 C116 0.930 . S
C120 C122 1.348 . S
C120 C123 1.356 . S
C120 O150 1.325 1_556 S
N121 C124 1.314 . S
N121 C125 1.279 . S
C122 C120 1.348 . S
C122 C124 1.353 . S
C122 H164 0.929 . S
C123 C120 1.356 . S
C123 C125 1.358 . S
C123 H165 0.930 1_556 S
C124 N121 1.314 . S
C124 C122 1.353 . S
C124 H166 0.930 . S
C125 N121 1.279 . S
C125 C123 1.358 . S
C125 H167 0.930 . S
C126 C127 1.348 . S
C126 C128 1.356 . S
C126 O151 1.325 . S
C127 C126 1.348 . S
C127 C129 1.353 . S
C127 H168 0.929 . S
C128 C126 1.356 . S
C128 C130 1.358 . S
C128 H169 0.930 . S
C129 C127 1.353 . S
C129 N131 1.314 . S
C129 H170 0.930 . S
C130 C128 1.358 . S
C130 N131 1.279 . S
C130 H171 0.930 . S
N131 C129 1.314 . S
N131 C130 1.279 . S
C132 C134 1.353 . S
C132 N135 1.314 . S
C132 H138 0.930 . S
C133 N135 1.279 . S
C133 C136 1.358 . S
C133 H139 0.930 1_554 S
C134 C132 1.353 . S
C134 C137 1.348 . S
C134 H172 0.929 . S
N135 Li90 1.990 . S
N135 C132 1.314 . S
N135 C133 1.279 . S
C136 C133 1.358 . S
C136 C137 1.356 . S
C136 H173 0.930 1_554 S
C137 C134 1.348 . S
C137 C136 1.356 . S
H138 C132 0.930 . S
H139 C133 0.930 1_556 S
C140 N141 1.314 . S
C140 C142 1.353 . S
C140 H146 0.930 . S
N141 Li91 1.990 1_556 S
N141 C140 1.314 . S
N141 C144 1.279 . S
C142 C140 1.353 . S
C142 C145 1.348 . S
C142 H174 0.929 . S
C143 C144 1.358 . S
C143 C145 1.356 . S
C143 H175 0.930 . S
C144 N141 1.279 . S
C144 C143 1.358 . S
C144 H147 0.930 . S
C145 C142 1.348 . S
C145 C143 1.356 . S
H146 C140 0.930 . S
H147 C144 0.930 . S
O148 Li88 1.956 . S
O148 Li89 1.970 . S
O148 Li90 1.961 . S
O148 C92 1.325 . S
O149 Li88 1.970 . S
O149 Li89 1.956 . S
O149 Li91 1.961 . S
O149 C98 1.325 . S
O150 Li88 1.961 . S
O150 Li90 1.956 . S
O150 Li91 1.970 . S
O150 C120 1.325 1_554 S
O151 Li89 1.961 . S
O151 Li90 1.970 . S
O151 Li91 1.956 . S
O151 C126 1.325 . S
H152 C94 0.929 . S
H153 C95 0.930 . S
H154 C96 0.930 . S
H155 C97 0.930 . S
H156 C99 0.930 . S
H157 C101 0.929 . S
H158 C102 0.930 . S
H159 C103 0.930 . S
H160 C106 0.930 . S
H161 C109 0.929 . S
H162 C114 0.929 . S
H163 C115 0.930 . S
H164 C122 0.929 . S
H165 C123 0.930 1_554 S
H166 C124 0.930 . S
H167 C125 0.930 . S
H168 C127 0.929 . S
H169 C128 0.930 . S
H170 C129 0.930 . S
H171 C130 0.930 . S
H172 C134 0.929 . S
H173 C136 0.930 1_556 S
H174 C142 0.929 . S
H175 C143 0.930 . S
Li176 N193 1.990 . S
Li176 O236 1.956 . S
Li176 O237 1.970 . S
Li176 O238 1.961 . S
Li177 N201 1.990 . S
Li177 O236 1.970 . S
Li177 O237 1.956 . S
Li177 O239 1.961 . S
Li178 N223 1.990 1_554 S
Li178 O236 1.961 . S
Li178 O238 1.956 . S
Li178 O239 1.970 . S
Li179 N229 1.990 . S
Li179 O237 1.961 . S
Li179 O238 1.970 . S
Li179 O239 1.956 . S
C180 C182 1.348 . S
C180 C183 1.356 . S
C180 O236 1.325 . S
N181 C184 1.314 . S
N181 C185 1.279 . S
C182 C180 1.348 . S
C182 C184 1.353 . S
C182 H240 0.929 . S
C183 C180 1.356 . S
C183 C185 1.358 . S
C183 H241 0.930 . S
C184 N181 1.314 . S
C184 C182 1.353 . S
C184 H242 0.930 . S
C185 N181 1.279 . S
C185 C183 1.358 . S
C185 H243 0.930 . S
C186 C189 1.348 . S
C186 C190 1.356 . S
C186 O237 1.325 . S
C187 N188 1.279 . S
C187 C190 1.358 . S
C187 H244 0.930 . S
N188 C187 1.279 . S
N188 C191 1.314 . S
C189 C186 1.348 . S
C189 C191 1.353 . S
C189 H245 0.929 . S
C190 C186 1.356 . S
C190 C187 1.358 . S
C190 H246 0.930 . S
C191 N188 1.314 . S
C191 C189 1.353 . S
C191 H247 0.930 . S
C192 N193 1.314 . S
C192 C197 1.353 . S
C192 H198 0.930 . S
N193 Li176 1.990 . S
N193 C192 1.314 . S
N193 C195 1.279 . S
C194 C195 1.358 . S
C194 C196 1.356 . S
C194 H248 0.930 . S
C195 N193 1.279 . S
C195 C194 1.358 . S
C195 H199 0.930 . S
C196 C194 1.356 . S
C196 C197 1.348 . S
C197 C192 1.353 . S
C197 C196 1.348 . S
C197 H249 0.929 . S
H198 C192 0.930 . S
H199 C195 0.930 . S
C200 N201 1.314 . S
C200 C202 1.353 . S
C200 H206 0.930 . S
N201 Li177 1.990 . S
N201 C200 1.314 . S
N201 C204 1.279 . S
C202 C200 1.353 . S
C202 C205 1.348 . S
C202 H250 0.929 . S
C203 C204 1.358 . S
C203 C205 1.356 . S
C203 H251 0.930 . S
C204 N201 1.279 . S
C204 C203 1.358 . S
C204 H207 0.930 . S
C205 C202 1.348 . S
C205 C203 1.356 . S
H206 C200 0.930 . S
H207 C204 0.930 . S
C208 C210 1.348 . S
C208 C211 1.356 . S
C208 O238 1.325 . S
N209 C212 1.314 . S
N209 C213 1.279 . S
C210 C208 1.348 . S
C210 C212 1.353 . S
C210 H252 0.929 . S
C211 C208 1.356 . S
C211 C213 1.358 . S
C211 H253 0.930 . S
C212 N209 1.314 . S
C212 C210 1.353 . S
C212 H254 0.930 . S
C213 N209 1.279 . S
C213 C211 1.358 . S
C213 H255 0.930 . S
C214 C215 1.348 . S
C214 C216 1.356 . S
C214 O239 1.325 1_556 S
C215 C214 1.348 . S
C215 C217 1.353 . S
C215 H256 0.929 . S
C216 C214 1.356 . S
C216 C218 1.358 . S
C216 H257 0.930 1_556 S
C217 C215 1.353 . S
C217 N219 1.314 . S
C217 H258 0.930 . S
C218 C216 1.358 . S
C218 N219 1.279 . S
C218 H259 0.930 . S
N219 C217 1.314 . S
N219 C218 1.279 . S
C220 C222 1.353 . S
C220 N223 1.314 . S
C220 H226 0.930 . S
C221 N223 1.279 . S
C221 C224 1.358 . S
C221 H227 0.930 . S
C222 C220 1.353 . S
C222 C225 1.348 . S
C222 H260 0.929 . S
N223 Li178 1.990 1_556 S
N223 C220 1.314 . S
N223 C221 1.279 . S
C224 C221 1.358 . S
C224 C225 1.356 . S
C224 H261 0.930 . S
C225 C222 1.348 . S
C225 C224 1.356 . S
H226 C220 0.930 . S
H227 C221 0.930 . S
C228 N229 1.314 . S
C228 C230 1.353 . S
C228 H234 0.930 . S
N229 Li179 1.990 . S
N229 C228 1.314 . S
N229 C232 1.279 . S
C230 C228 1.353 . S
C230 C233 1.348 . S
C230 H262 0.929 . S
C231 C232 1.358 . S
C231 C233 1.356 . S
C231 H263 0.930 1_554 S
C232 N229 1.279 . S
C232 C231 1.358 . S
C232 H235 0.930 1_554 S
C233 C230 1.348 . S
C233 C231 1.356 . S
H234 C228 0.930 . S
H235 C232 0.930 1_556 S
O236 Li176 1.956 . S
O236 Li177 1.970 . S
O236 Li178 1.961 . S
O236 C180 1.325 . S
O237 Li176 1.970 . S
O237 Li177 1.956 . S
O237 Li179 1.961 . S
O237 C186 1.325 . S
O238 Li176 1.961 . S
O238 Li178 1.956 . S
O238 Li179 1.970 . S
O238 C208 1.325 . S
O239 Li177 1.961 . S
O239 Li178 1.970 . S
O239 Li179 1.956 . S
O239 C214 1.325 1_554 S
H240 C182 0.929 . S
H241 C183 0.930 . S
H242 C184 0.930 . S
H243 C185 0.930 . S
H244 C187 0.930 . S
H245 C189 0.929 . S
H246 C190 0.930 . S
H247 C191 0.930 . S
H248 C194 0.930 . S
H249 C197 0.929 . S
H250 C202 0.929 . S
H251 C203 0.930 . S
H252 C210 0.929 . S
H253 C211 0.930 . S
H254 C212 0.930 . S
H255 C213 0.930 . S
H256 C215 0.929 . S
H257 C216 0.930 1_554 S
H258 C217 0.930 . S
H259 C218 0.930 . S
H260 C222 0.929 . S
H261 C224 0.930 . S
H262 C230 0.929 . S
H263 C231 0.930 1_556 S
Li264 N281 1.990 1_556 S
Li264 O324 1.956 . S
Li264 O325 1.970 . S
Li264 O326 1.961 . S
Li265 N289 1.990 . S
Li265 O324 1.970 . S
Li265 O325 1.956 . S
Li265 O327 1.961 . S
Li266 N311 1.990 . S
Li266 O324 1.961 . S
Li266 O326 1.956 . S
Li266 O327 1.970 . S
Li267 N317 1.990 . S
Li267 O325 1.961 . S
Li267 O326 1.970 . S
Li267 O327 1.956 . S
C268 C270 1.348 . S
C268 C271 1.356 . S
C268 O324 1.325 . S
N269 C272 1.314 . S
N269 C273 1.279 . S
C270 C268 1.348 . S
C270 C272 1.353 . S
C270 H328 0.929 . S
C271 C268 1.356 . S
C271 C273 1.358 . S
C271 H329 0.930 . S
C272 N269 1.314 . S
C272 C270 1.353 . S
C272 H330 0.930 . S
C273 N269 1.279 . S
C273 C271 1.358 . S
C273 H331 0.930 . S
C274 C277 1.348 . S
C274 C278 1.356 . S
C274 O325 1.325 1_554 S
C275 N276 1.279 . S
C275 C278 1.358 . S
C275 H332 0.930 . S
N276 C275 1.279 . S
N276 C279 1.314 . S
C277 C274 1.348 . S
C277 C279 1.353 . S
C277 H333 0.929 . S
C278 C274 1.356 . S
C278 C275 1.358 . S
C278 H334 0.930 1_554 S
C279 N276 1.314 . S
C279 C277 1.353 . S
C279 H335 0.930 . S
C280 N281 1.314 . S
C280 C285 1.353 . S
C280 H286 0.930 . S
N281 Li264 1.990 1_554 S
N281 C280 1.314 . S
N281 C283 1.279 . S
C282 C283 1.358 . S
C282 C284 1.356 . S
C282 H336 0.930 . S
C283 N281 1.279 . S
C283 C282 1.358 . S
C283 H287 0.930 . S
C284 C282 1.356 . S
C284 C285 1.348 . S
C285 C280 1.353 . S
C285 C284 1.348 . S
C285 H337 0.929 . S
H286 C280 0.930 . S
H287 C283 0.930 . S
C288 N289 1.314 . S
C288 C290 1.353 . S
C288 H294 0.930 . S
N289 Li265 1.990 . S
N289 C288 1.314 . S
N289 C292 1.279 . S
C290 C288 1.353 . S
C290 C293 1.348 . S
C290 H338 0.929 . S
C291 C292 1.358 . S
C291 C293 1.356 . S
C291 H339 0.930 1_556 S
C292 N289 1.279 . S
C292 C291 1.358 . S
C292 H295 0.930 1_556 S
C293 C290 1.348 . S
C293 C291 1.356 . S
H294 C288 0.930 . S
H295 C292 0.930 1_554 S
C296 C298 1.348 . S
C296 C299 1.356 . S
C296 O326 1.325 . S
N297 C300 1.314 . S
N297 C301 1.279 . S
C298 C296 1.348 . S
C298 C300 1.353 . S
C298 H340 0.929 . S
C299 C296 1.356 . S
C299 C301 1.358 . S
C299 H341 0.930 . S
C300 N297 1.314 . S
C300 C298 1.353 . S
C300 H342 0.930 . S
C301 N297 1.279 . S
C301 C299 1.358 . S
C301 H343 0.930 . S
C302 C303 1.348 . S
C302 C304 1.356 . S
C302 O327 1.325 . S
C303 C302 1.348 . S
C303 C305 1.353 . S
C303 H344 0.929 . S
C304 C302 1.356 . S
C304 C306 1.358 . S
C304 H345 0.930 . S
C305 C303 1.353 . S
C305 N307 1.314 . S
C305 H346 0.930 . S
C306 C304 1.358 . S
C306 N307 1.279 . S
C306 H347 0.930 . S
N307 C305 1.314 . S
N307 C306 1.279 . S
C308 C310 1.353 . S
C308 N311 1.314 . S
C308 H314 0.930 . S
C309 N311 1.279 . S
C309 C312 1.358 . S
C309 H315 0.930 . S
C310 C308 1.353 . S
C310 C313 1.348 . S
C310 H348 0.929 . S
N311 Li266 1.990 . S
N311 C308 1.314 . S
N311 C309 1.279 . S
C312 C309 1.358 . S
C312 C313 1.356 . S
C312 H349 0.930 . S
C313 C310 1.348 . S
C313 C312 1.356 . S
H314 C308 0.930 . S
H315 C309 0.930 . S
C316 N317 1.314 . S
C316 C318 1.353 . S
C316 H322 0.930 . S
N317 Li267 1.990 . S
N317 C316 1.314 . S
N317 C320 1.279 . S
C318 C316 1.353 . S
C318 C321 1.348 . S
C318 H350 0.929 . S
C319 C320 1.358 . S
C319 C321 1.356 . S
C319 H351 0.930 . S
C320 N317 1.279 . S
C320 C319 1.358 . S
C320 H323 0.930 . S
C321 C318 1.348 . S
C321 C319 1.356 . S
H322 C316 0.930 . S
H323 C320 0.930 . S
O324 Li264 1.956 . S
O324 Li265 1.970 . S
O324 Li266 1.961 . S
O324 C268 1.325 . S
O325 Li264 1.970 . S
O325 Li265 1.956 . S
O325 Li267 1.961 . S
O325 C274 1.325 1_556 S
O326 Li264 1.961 . S
O326 Li266 1.956 . S
O326 Li267 1.970 . S
O326 C296 1.325 . S
O327 Li265 1.961 . S
O327 Li266 1.970 . S
O327 Li267 1.956 . S
O327 C302 1.325 . S
H328 C270 0.929 . S
H329 C271 0.930 . S
H330 C272 0.930 . S
H331 C273 0.930 . S
H332 C275 0.930 . S
H333 C277 0.929 . S
H334 C278 0.930 1_556 S
H335 C279 0.930 . S
H336 C282 0.930 . S
H337 C285 0.929 . S
H338 C290 0.929 . S
H339 C291 0.930 1_554 S
H340 C298 0.929 . S
H341 C299 0.930 . S
H342 C300 0.930 . S
H343 C301 0.930 . S
H344 C303 0.929 . S
H345 C304 0.930 . S
H346 C305 0.930 . S
H347 C306 0.930 . S
H348 C310 0.929 . S
H349 C312 0.930 . S
H350 C318 0.929 . S
H351 C319 0.930 . S
Li352 N369 1.990 1_556 S
Li352 O412 1.956 . S
Li352 O413 1.970 . S
Li352 O414 1.961 . S
Li353 N377 1.990 . S
Li353 O412 1.970 . S
Li353 O413 1.956 . S
Li353 O415 1.961 . S
Li354 N399 1.990 . S
Li354 O412 1.961 . S
Li354 O414 1.956 . S
Li354 O415 1.970 . S
Li355 N405 1.990 . S
Li355 O413 1.961 . S
Li355 O414 1.970 . S
Li355 O415 1.956 . S
C356 C358 1.348 . S
C356 C359 1.356 . S
C356 O412 1.325 . S
N357 C360 1.314 . S
N357 C361 1.279 . S
C358 C356 1.348 . S
C358 C360 1.353 . S
C358 H416 0.929 . S
C359 C356 1.356 . S
C359 C361 1.358 . S
C359 H417 0.930 . S
C360 N357 1.314 . S
C360 C358 1.353 . S
C360 H418 0.930 . S
C361 N357 1.279 . S
C361 C359 1.358 . S
C361 H419 0.930 . S
C362 C365 1.348 . S
C362 C366 1.356 . S
C362 O413 1.325 1_554 S
C363 N364 1.279 . S
C363 C366 1.358 . S
C363 H420 0.930 . S
N364 C363 1.279 . S
N364 C367 1.314 . S
C365 C362 1.348 . S
C365 C367 1.353 . S
C365 H421 0.929 . S
C366 C362 1.356 . S
C366 C363 1.358 . S
C366 H422 0.930 1_554 S
C367 N364 1.314 . S
C367 C365 1.353 . S
C367 H423 0.930 . S
C368 N369 1.314 . S
C368 C373 1.353 . S
C368 H374 0.930 . S
N369 Li352 1.990 1_554 S
N369 C368 1.314 . S
N369 C371 1.279 . S
C370 C371 1.358 . S
C370 C372 1.356 . S
C370 H424 0.930 . S
C371 N369 1.279 . S
C371 C370 1.358 . S
C371 H375 0.930 . S
C372 C370 1.356 . S
C372 C373 1.348 . S
C373 C368 1.353 . S
C373 C372 1.348 . S
C373 H425 0.929 . S
H374 C368 0.930 . S
H375 C371 0.930 . S
C376 N377 1.314 . S
C376 C378 1.353 . S
C376 H382 0.930 . S
N377 Li353 1.990 . S
N377 C376 1.314 . S
N377 C380 1.279 . S
C378 C376 1.353 . S
C378 C381 1.348 . S
C378 H426 0.929 . S
C379 C380 1.358 . S
C379 C381 1.356 . S
C379 H427 0.930 1_556 S
C380 N377 1.279 . S
C380 C379 1.358 . S
C380 H383 0.930 1_556 S
C381 C378 1.348 . S
C381 C379 1.356 . S
H382 C376 0.930 . S
H383 C380 0.930 1_554 S
C384 C386 1.348 . S
C384 C387 1.356 . S
C384 O414 1.325 . S
N385 C388 1.314 . S
N385 C389 1.279 . S
C386 C384 1.348 . S
C386 C388 1.353 . S
C386 H428 0.929 . S
C387 C384 1.356 . S
C387 C389 1.358 . S
C387 H429 0.930 . S
C388 N385 1.314 . S
C388 C386 1.353 . S
C388 H430 0.930 . S
C389 N385 1.279 . S
C389 C387 1.358 . S
C389 H431 0.930 . S
C390 C391 1.348 . S
C390 C392 1.356 . S
C390 O415 1.325 . S
C391 C390 1.348 . S
C391 C393 1.353 . S
C391 H432 0.929 . S
C392 C390 1.356 . S
C392 C394 1.358 . S
C392 H433 0.930 . S
C393 C391 1.353 . S
C393 N395 1.314 . S
C393 H434 0.930 . S
C394 C392 1.358 . S
C394 N395 1.279 . S
C394 H435 0.930 . S
N395 C393 1.314 . S
N395 C394 1.279 . S
C396 C398 1.353 . S
C396 N399 1.314 . S
C396 H402 0.930 . S
C397 N399 1.279 . S
C397 C400 1.358 . S
C397 H403 0.930 . S
C398 C396 1.353 . S
C398 C401 1.348 . S
C398 H436 0.929 . S
N399 Li354 1.990 . S
N399 C396 1.314 . S
N399 C397 1.279 . S
C400 C397 1.358 . S
C400 C401 1.356 . S
C400 H437 0.930 . S
C401 C398 1.348 . S
C401 C400 1.356 . S
H402 C396 0.930 . S
H403 C397 0.930 . S
C404 N405 1.314 . S
C404 C406 1.353 . S
C404 H410 0.930 . S
N405 Li355 1.990 . S
N405 C404 1.314 . S
N405 C408 1.279 . S
C406 C404 1.353 . S
C406 C409 1.348 . S
C406 H438 0.929 . S
C407 C408 1.358 . S
C407 C409 1.356 . S
C407 H439 0.930 . S
C408 N405 1.279 . S
C408 C407 1.358 . S
C408 H411 0.930 . S
C409 C406 1.348 . S
C409 C407 1.356 . S
H410 C404 0.930 . S
H411 C408 0.930 . S
O412 Li352 1.956 . S
O412 Li353 1.970 . S
O412 Li354 1.961 . S
O412 C356 1.325 . S
O413 Li352 1.970 . S
O413 Li353 1.956 . S
O413 Li355 1.961 . S
O413 C362 1.325 1_556 S
O414 Li352 1.961 . S
O414 Li354 1.956 . S
O414 Li355 1.970 . S
O414 C384 1.325 . S
O415 Li353 1.961 . S
O415 Li354 1.970 . S
O415 Li355 1.956 . S
O415 C390 1.325 . S
H416 C358 0.929 . S
H417 C359 0.930 . S
H418 C360 0.930 . S
H419 C361 0.930 . S
H420 C363 0.930 . S
H421 C365 0.929 . S
H422 C366 0.930 1_556 S
H423 C367 0.930 . S
H424 C370 0.930 . S
H425 C373 0.929 . S
H426 C378 0.929 . S
H427 C379 0.930 1_554 S
H428 C386 0.929 . S
H429 C387 0.930 . S
H430 C388 0.930 . S
H431 C389 0.930 . S
H432 C391 0.929 . S
H433 C392 0.930 . S
H434 C393 0.930 . S
H435 C394 0.930 . S
H436 C398 0.929 . S
H437 C400 0.930 . S
H438 C406 0.929 . S
H439 C407 0.930 . S
Li440 N457 1.990 . S
Li440 O500 1.956 . S
Li440 O501 1.970 . S
Li440 O502 1.961 . S
Li441 N465 1.990 1_556 S
Li441 O500 1.970 . S
Li441 O501 1.956 . S
Li441 O503 1.961 . S
Li442 N487 1.990 . S
Li442 O500 1.961 . S
Li442 O502 1.956 . S
Li442 O503 1.970 . S
Li443 N493 1.990 . S
Li443 O501 1.961 . S
Li443 O502 1.970 . S
Li443 O503 1.956 . S
C444 C446 1.348 . S
C444 C447 1.356 . S
C444 O500 1.325 1_554 S
N445 C448 1.314 . S
N445 C449 1.279 . S
C446 C444 1.348 . S
C446 C448 1.353 . S
C446 H504 0.929 . S
C447 C444 1.356 . S
C447 C449 1.358 . S
C447 H505 0.930 1_554 S
C448 N445 1.314 . S
C448 C446 1.353 . S
C448 H506 0.930 . S
C449 N445 1.279 . S
C449 C447 1.358 . S
C449 H507 0.930 . S
C450 C453 1.348 . S
C450 C454 1.356 . S
C450 O501 1.325 . S
C451 N452 1.279 . S
C451 C454 1.358 . S
C451 H508 0.930 . S
N452 C451 1.279 . S
N452 C455 1.314 . S
C453 C450 1.348 . S
C453 C455 1.353 . S
C453 H509 0.929 . S
C454 C450 1.356 . S
C454 C451 1.358 . S
C454 H510 0.930 . S
C455 N452 1.314 . S
C455 C453 1.353 . S
C455 H511 0.930 . S
C456 N457 1.314 . S
C456 C461 1.353 . S
C456 H462 0.930 . S
N457 Li440 1.990 . S
N457 C456 1.314 . S
N457 C459 1.279 . S
C458 C459 1.358 . S
C458 C460 1.356 . S
C458 H512 0.930 1_556 S
C459 N457 1.279 . S
C459 C458 1.358 . S
C459 H463 0.930 1_556 S
C460 C458 1.356 . S
C460 C461 1.348 . S
C461 C456 1.353 . S
C461 C460 1.348 . S
C461 H513 0.929 . S
H462 C456 0.930 . S
H463 C459 0.930 1_554 S
C464 N465 1.314 . S
C464 C466 1.353 . S
C464 H470 0.930 . S
N465 Li441 1.990 1_554 S
N465 C464 1.314 . S
N465 C468 1.279 . S
C466 C464 1.353 . S
C466 C469 1.348 . S
C466 H514 0.929 . S
C467 C468 1.358 . S
C467 C469 1.356 . S
C467 H515 0.930 . S
C468 N465 1.279 . S
C468 C467 1.358 . S
C468 H471 0.930 . S
C469 C466 1.348 . S
C469 C467 1.356 . S
H470 C464 0.930 . S
H471 C468 0.930 . S
C472 C474 1.348 . S
C472 C475 1.356 . S
C472 O502 1.325 . S
N473 C476 1.314 . S
N473 C477 1.279 . S
C474 C472 1.348 . S
C474 C476 1.353 . S
C474 H516 0.929 . S
C475 C472 1.356 . S
C475 C477 1.358 . S
C475 H517 0.930 . S
C476 N473 1.314 . S
C476 C474 1.353 . S
C476 H518 0.930 . S
C477 N473 1.279 . S
C477 C475 1.358 . S
C477 H519 0.930 . S
C478 C479 1.348 . S
C478 C480 1.356 . S
C478 O503 1.325 . S
C479 C478 1.348 . S
C479 C481 1.353 . S
C479 H520 0.929 . S
C480 C478 1.356 . S
C480 C482 1.358 . S
C480 H521 0.930 . S
C481 C479 1.353 . S
C481 N483 1.314 . S
C481 H522 0.930 . S
C482 C480 1.358 . S
C482 N483 1.279 . S
C482 H523 0.930 . S
N483 C481 1.314 . S
N483 C482 1.279 . S
C484 C486 1.353 . S
C484 N487 1.314 . S
C484 H490 0.930 . S
C485 N487 1.279 . S
C485 C488 1.358 . S
C485 H491 0.930 . S
C486 C484 1.353 . S
C486 C489 1.348 . S
C486 H524 0.929 . S
N487 Li442 1.990 . S
N487 C484 1.314 . S
N487 C485 1.279 . S
C488 C485 1.358 . S
C488 C489 1.356 . S
C488 H525 0.930 . S
C489 C486 1.348 . S
C489 C488 1.356 . S
H490 C484 0.930 . S
H491 C485 0.930 . S
C492 N493 1.314 . S
C492 C494 1.353 . S
C492 H498 0.930 . S
N493 Li443 1.990 . S
N493 C492 1.314 . S
N493 C496 1.279 . S
C494 C492 1.353 . S
C494 C497 1.348 . S
C494 H526 0.929 . S
C495 C496 1.358 . S
C495 C497 1.356 . S
C495 H527 0.930 . S
C496 N493 1.279 . S
C496 C495 1.358 . S
C496 H499 0.930 . S
C497 C494 1.348 . S
C497 C495 1.356 . S
H498 C492 0.930 . S
H499 C496 0.930 . S
O500 Li440 1.956 . S
O500 Li441 1.970 . S
O500 Li442 1.961 . S
O500 C444 1.325 1_556 S
O501 Li440 1.970 . S
O501 Li441 1.956 . S
O501 Li443 1.961 . S
O501 C450 1.325 . S
O502 Li440 1.961 . S
O502 Li442 1.956 . S
O502 Li443 1.970 . S
O502 C472 1.325 . S
O503 Li441 1.961 . S
O503 Li442 1.970 . S
O503 Li443 1.956 . S
O503 C478 1.325 . S
H504 C446 0.929 . S
H505 C447 0.930 1_556 S
H506 C448 0.930 . S
H507 C449 0.930 . S
H508 C451 0.930 . S
H509 C453 0.929 . S
H510 C454 0.930 . S
H511 C455 0.930 . S
H512 C458 0.930 1_554 S
H513 C461 0.929 . S
H514 C466 0.929 . S
H515 C467 0.930 . S
H516 C474 0.929 . S
H517 C475 0.930 . S
H518 C476 0.930 . S
H519 C477 0.930 . S
H520 C479 0.929 . S
H521 C480 0.930 . S
H522 C481 0.930 . S
H523 C482 0.930 . S
H524 C486 0.929 . S
H525 C488 0.930 . S
H526 C494 0.929 . S
H527 C495 0.930 . S
Li528 N545 1.990 . S
Li528 O588 1.956 . S
Li528 O589 1.970 . S
Li528 O590 1.961 . S
Li529 N553 1.990 1_556 S
Li529 O588 1.970 . S
Li529 O589 1.956 . S
Li529 O591 1.961 . S
Li530 N575 1.990 . S
Li530 O588 1.961 . S
Li530 O590 1.956 . S
Li530 O591 1.970 . S
Li531 N581 1.990 . S
Li531 O589 1.961 . S
Li531 O590 1.970 . S
Li531 O591 1.956 . S
C532 C534 1.348 . S
C532 C535 1.356 . S
C532 O588 1.325 1_554 S
N533 C536 1.314 . S
N533 C537 1.279 . S
C534 C532 1.348 . S
C534 C536 1.353 . S
C534 H592 0.929 . S
C535 C532 1.356 . S
C535 C537 1.358 . S
C535 H593 0.930 1_554 S
C536 N533 1.314 . S
C536 C534 1.353 . S
C536 H594 0.930 . S
C537 N533 1.279 . S
C537 C535 1.358 . S
C537 H595 0.930 . S
C538 C541 1.348 . S
C538 C542 1.356 . S
C538 O589 1.325 . S
C539 N540 1.279 . S
C539 C542 1.358 . S
C539 H596 0.930 . S
N540 C539 1.279 . S
N540 C543 1.314 . S
C541 C538 1.348 . S
C541 C543 1.353 . S
C541 H597 0.929 . S
C542 C538 1.356 . S
C542 C539 1.358 . S
C542 H598 0.930 . S
C543 N540 1.314 . S
C543 C541 1.353 . S
C543 H599 0.930 . S
C544 N545 1.314 . S
C544 C549 1.353 . S
C544 H550 0.930 . S
N545 Li528 1.990 . S
N545 C544 1.314 . S
N545 C547 1.279 . S
C546 C547 1.358 . S
C546 C548 1.356 . S
C546 H600 0.930 . S
C547 N545 1.279 . S
C547 C546 1.358 . S
C547 H551 0.930 . S
C548 C546 1.356 . S
C548 C549 1.348 . S
C549 C544 1.353 . S
C549 C548 1.348 . S
C549 H601 0.929 . S
H550 C544 0.930 . S
H551 C547 0.930 . S
C552 N553 1.314 . S
C552 C554 1.353 . S
C552 H558 0.930 . S
N553 Li529 1.990 1_554 S
N553 C552 1.314 . S
N553 C556 1.279 . S
C554 C552 1.353 . S
C554 C557 1.348 . S
C554 H602 0.929 . S
C555 C556 1.358 . S
C555 C557 1.356 . S
C555 H603 0.930 . S
C556 N553 1.279 . S
C556 C555 1.358 . S
C556 H559 0.930 . S
C557 C554 1.348 . S
C557 C555 1.356 . S
H558 C552 0.930 . S
H559 C556 0.930 . S
C560 C562 1.348 . S
C560 C563 1.356 . S
C560 O590 1.325 . S
N561 C564 1.314 . S
N561 C565 1.279 . S
C562 C560 1.348 . S
C562 C564 1.353 . S
C562 H604 0.929 . S
C563 C560 1.356 . S
C563 C565 1.358 . S
C563 H605 0.930 . S
C564 N561 1.314 . S
C564 C562 1.353 . S
C564 H606 0.930 . S
C565 N561 1.279 . S
C565 C563 1.358 . S
C565 H607 0.930 . S
C566 C567 1.348 . S
C566 C568 1.356 . S
C566 O591 1.325 . S
C567 C566 1.348 . S
C567 C569 1.353 . S
C567 H608 0.929 . S
C568 C566 1.356 . S
C568 C570 1.358 . S
C568 H609 0.930 . S
C569 C567 1.353 . S
C569 N571 1.314 . S
C569 H610 0.930 . S
C570 C568 1.358 . S
C570 N571 1.279 . S
C570 H611 0.930 . S
N571 C569 1.314 . S
N571 C570 1.279 . S
C572 C574 1.353 . S
C572 N575 1.314 . S
C572 H578 0.930 1_556 S
C573 N575 1.279 . S
C573 C576 1.358 . S
C573 H579 0.930 . S
C574 C572 1.353 . S
C574 C577 1.348 . S
C574 H612 0.929 1_556 S
N575 Li530 1.990 . S
N575 C572 1.314 . S
N575 C573 1.279 . S
C576 C573 1.358 . S
C576 C577 1.356 . S
C576 H613 0.930 . S
C577 C574 1.348 . S
C577 C576 1.356 . S
H578 C572 0.930 1_554 S
H579 C573 0.930 . S
C580 N581 1.314 . S
C580 C582 1.353 . S
C580 H586 0.930 . S
N581 Li531 1.990 . S
N581 C580 1.314 . S
N581 C584 1.279 . S
C582 C580 1.353 . S
C582 C585 1.348 . S
C582 H614 0.929 . S
C583 C584 1.358 . S
C583 C585 1.356 . S
C583 H615 0.930 . S
C584 N581 1.279 . S
C584 C583 1.358 . S
C584 H587 0.930 . S
C585 C582 1.348 . S
C585 C583 1.356 . S
H586 C580 0.930 . S
H587 C584 0.930 . S
O588 Li528 1.956 . S
O588 Li529 1.970 . S
O588 Li530 1.961 . S
O588 C532 1.325 1_556 S
O589 Li528 1.970 . S
O589 Li529 1.956 . S
O589 Li531 1.961 . S
O589 C538 1.325 . S
O590 Li528 1.961 . S
O590 Li530 1.956 . S
O590 Li531 1.970 . S
O590 C560 1.325 . S
O591 Li529 1.961 . S
O591 Li530 1.970 . S
O591 Li531 1.956 . S
O591 C566 1.325 . S
H592 C534 0.929 . S
H593 C535 0.930 1_556 S
H594 C536 0.930 . S
H595 C537 0.930 . S
H596 C539 0.930 . S
H597 C541 0.929 . S
H598 C542 0.930 . S
H599 C543 0.930 . S
H600 C546 0.930 . S
H601 C549 0.929 . S
H602 C554 0.929 . S
H603 C555 0.930 . S
H604 C562 0.929 . S
H605 C563 0.930 . S
H606 C564 0.930 . S
H607 C565 0.930 . S
H608 C567 0.929 . S
H609 C568 0.930 . S
H610 C569 0.930 . S
H611 C570 0.930 . S
H612 C574 0.929 1_554 S
H613 C576 0.930 . S
H614 C582 0.929 . S
H615 C583 0.930 . S
Li616 N633 1.990 . S
Li616 O676 1.956 . S
Li616 O677 1.970 . S
Li616 O678 1.961 . S
Li617 N641 1.990 1_556 S
Li617 O676 1.970 . S
Li617 O677 1.956 . S
Li617 O679 1.961 . S
Li618 N663 1.990 . S
Li618 O676 1.961 . S
Li618 O678 1.956 . S
Li618 O679 1.970 . S
Li619 N669 1.990 . S
Li619 O677 1.961 . S
Li619 O678 1.970 . S
Li619 O679 1.956 . S
C620 C622 1.348 . S
C620 C623 1.356 . S
C620 O676 1.325 1_554 S
N621 C624 1.314 . S
N621 C625 1.279 . S
C622 C620 1.348 . S
C622 C624 1.353 . S
C622 H680 0.929 . S
C623 C620 1.356 . S
C623 C625 1.358 . S
C623 H681 0.930 1_554 S
C624 N621 1.314 . S
C624 C622 1.353 . S
C624 H682 0.930 . S
C625 N621 1.279 . S
C625 C623 1.358 . S
C625 H683 0.930 . S
C626 C629 1.348 . S
C626 C630 1.356 . S
C626 O677 1.325 . S
C627 N628 1.279 . S
C627 C630 1.358 . S
C627 H684 0.930 . S
N628 C627 1.279 . S
N628 C631 1.314 . S
C629 C626 1.348 . S
C629 C631 1.353 . S
C629 H685 0.929 . S
C630 C626 1.356 . S
C630 C627 1.358 . S
C630 H686 0.930 . S
C631 N628 1.314 . S
C631 C629 1.353 . S
C631 H687 0.930 . S
C632 N633 1.314 . S
C632 C637 1.353 . S
C632 H638 0.930 . S
N633 Li616 1.990 . S
N633 C632 1.314 . S
N633 C635 1.279 . S
C634 C635 1.358 . S
C634 C636 1.356 . S
C634 H688 0.930 . S
C635 N633 1.279 . S
C635 C634 1.358 . S
C635 H639 0.930 . S
C636 C634 1.356 . S
C636 C637 1.348 . S
C637 C632 1.353 . S
C637 C636 1.348 . S
C637 H689 0.929 . S
H638 C632 0.930 . S
H639 C635 0.930 . S
C640 N641 1.314 . S
C640 C642 1.353 . S
C640 H646 0.930 . S
N641 Li617 1.990 1_554 S
N641 C640 1.314 . S
N641 C644 1.279 . S
C642 C640 1.353 . S
C642 C645 1.348 . S
C642 H690 0.929 . S
C643 C644 1.358 . S
C643 C645 1.356 . S
C643 H691 0.930 . S
C644 N641 1.279 . S
C644 C643 1.358 . S
C644 H647 0.930 . S
C645 C642 1.348 . S
C645 C643 1.356 . S
H646 C640 0.930 . S
H647 C644 0.930 . S
C648 C650 1.348 . S
C648 C651 1.356 . S
C648 O678 1.325 . S
N649 C652 1.314 . S
N649 C653 1.279 . S
C650 C648 1.348 . S
C650 C652 1.353 . S
C650 H692 0.929 . S
C651 C648 1.356 . S
C651 C653 1.358 . S
C651 H693 0.930 . S
C652 N649 1.314 . S
C652 C650 1.353 . S
C652 H694 0.930 . S
C653 N649 1.279 . S
C653 C651 1.358 . S
C653 H695 0.930 . S
C654 C655 1.348 . S
C654 C656 1.356 . S
C654 O679 1.325 . S
C655 C654 1.348 . S
C655 C657 1.353 . S
C655 H696 0.929 . S
C656 C654 1.356 . S
C656 C658 1.358 . S
C656 H697 0.930 . S
C657 C655 1.353 . S
C657 N659 1.314 . S
C657 H698 0.930 . S
C658 C656 1.358 . S
C658 N659 1.279 . S
C658 H699 0.930 . S
N659 C657 1.314 . S
N659 C658 1.279 . S
C660 C662 1.353 . S
C660 N663 1.314 . S
C660 H666 0.930 1_556 S
C661 N663 1.279 . S
C661 C664 1.358 . S
C661 H667 0.930 . S
C662 C660 1.353 . S
C662 C665 1.348 . S
C662 H700 0.929 1_556 S
N663 Li618 1.990 . S
N663 C660 1.314 . S
N663 C661 1.279 . S
C664 C661 1.358 . S
C664 C665 1.356 . S
C664 H701 0.930 . S
C665 C662 1.348 . S
C665 C664 1.356 . S
H666 C660 0.930 1_554 S
H667 C661 0.930 . S
C668 N669 1.314 . S
C668 C670 1.353 . S
C668 H674 0.930 . S
N669 Li619 1.990 . S
N669 C668 1.314 . S
N669 C672 1.279 . S
C670 C668 1.353 . S
C670 C673 1.348 . S
C670 H702 0.929 . S
C671 C672 1.358 . S
C671 C673 1.356 . S
C671 H703 0.930 . S
C672 N669 1.279 . S
C672 C671 1.358 . S
C672 H675 0.930 . S
C673 C670 1.348 . S
C673 C671 1.356 . S
H674 C668 0.930 . S
H675 C672 0.930 . S
O676 Li616 1.956 . S
O676 Li617 1.970 . S
O676 Li618 1.961 . S
O676 C620 1.325 1_556 S
O677 Li616 1.970 . S
O677 Li617 1.956 . S
O677 Li619 1.961 . S
O677 C626 1.325 . S
O678 Li616 1.961 . S
O678 Li618 1.956 . S
O678 Li619 1.970 . S
O678 C648 1.325 . S
O679 Li617 1.961 . S
O679 Li618 1.970 . S
O679 Li619 1.956 . S
O679 C654 1.325 . S
H680 C622 0.929 . S
H681 C623 0.930 1_556 S
H682 C624 0.930 . S
H683 C625 0.930 . S
H684 C627 0.930 . S
H685 C629 0.929 . S
H686 C630 0.930 . S
H687 C631 0.930 . S
H688 C634 0.930 . S
H689 C637 0.929 . S
H690 C642 0.929 . S
H691 C643 0.930 . S
H692 C650 0.929 . S
H693 C651 0.930 . S
H694 C652 0.930 . S
H695 C653 0.930 . S
H696 C655 0.929 . S
H697 C656 0.930 . S
H698 C657 0.930 . S
H699 C658 0.930 . S
H700 C662 0.929 1_554 S
H701 C664 0.930 . S
H702 C670 0.929 . S
H703 C671 0.930 . S
Li704 N721 1.990 . S
Li704 O764 1.956 . S
Li704 O765 1.970 . S
Li704 O766 1.961 . S
Li705 N729 1.990 1_556 S
Li705 O764 1.970 . S
Li705 O765 1.956 . S
Li705 O767 1.961 . S
Li706 N751 1.990 . S
Li706 O764 1.961 . S
Li706 O766 1.956 . S
Li706 O767 1.970 . S
Li707 N757 1.990 . S
Li707 O765 1.961 . S
Li707 O766 1.970 . S
Li707 O767 1.956 . S
C708 C710 1.348 . S
C708 C711 1.356 . S
C708 O764 1.325 1_554 S
N709 C712 1.314 . S
N709 C713 1.279 . S
C710 C708 1.348 . S
C710 C712 1.353 . S
C710 H768 0.929 . S
C711 C708 1.356 . S
C711 C713 1.358 . S
C711 H769 0.930 1_554 S
C712 N709 1.314 . S
C712 C710 1.353 . S
C712 H770 0.930 . S
C713 N709 1.279 . S
C713 C711 1.358 . S
C713 H771 0.930 . S
C714 C717 1.348 . S
C714 C718 1.356 . S
C714 O765 1.325 . S
C715 N716 1.279 . S
C715 C718 1.358 . S
C715 H772 0.930 . S
N716 C715 1.279 . S
N716 C719 1.314 . S
C717 C714 1.348 . S
C717 C719 1.353 . S
C717 H773 0.929 . S
C718 C714 1.356 . S
C718 C715 1.358 . S
C718 H774 0.930 . S
C719 N716 1.314 . S
C719 C717 1.353 . S
C719 H775 0.930 . S
C720 N721 1.314 . S
C720 C725 1.353 . S
C720 H726 0.930 . S
N721 Li704 1.990 . S
N721 C720 1.314 . S
N721 C723 1.279 . S
C722 C723 1.358 . S
C722 C724 1.356 . S
C722 H776 0.930 . S
C723 N721 1.279 . S
C723 C722 1.358 . S
C723 H727 0.930 . S
C724 C722 1.356 . S
C724 C725 1.348 . S
C725 C720 1.353 . S
C725 C724 1.348 . S
C725 H777 0.929 . S
H726 C720 0.930 . S
H727 C723 0.930 . S
C728 N729 1.314 . S
C728 C730 1.353 . S
C728 H734 0.930 . S
N729 Li705 1.990 1_554 S
N729 C728 1.314 . S
N729 C732 1.279 . S
C730 C728 1.353 . S
C730 C733 1.348 . S
C730 H778 0.929 . S
C731 C732 1.358 . S
C731 C733 1.356 . S
C731 H779 0.930 . S
C732 N729 1.279 . S
C732 C731 1.358 . S
C732 H735 0.930 . S
C733 C730 1.348 . S
C733 C731 1.356 . S
H734 C728 0.930 . S
H735 C732 0.930 . S
C736 C738 1.348 . S
C736 C739 1.356 . S
C736 O766 1.325 . S
N737 C740 1.314 . S
N737 C741 1.279 . S
C738 C736 1.348 . S
C738 C740 1.353 . S
C738 H780 0.929 . S
C739 C736 1.356 . S
C739 C741 1.358 . S
C739 H781 0.930 . S
C740 N737 1.314 . S
C740 C738 1.353 . S
C740 H782 0.930 . S
C741 N737 1.279 . S
C741 C739 1.358 . S
C741 H783 0.930 . S
C742 C743 1.348 . S
C742 C744 1.356 . S
C742 O767 1.325 . S
C743 C742 1.348 . S
C743 C745 1.353 . S
C743 H784 0.929 . S
C744 C742 1.356 . S
C744 C746 1.358 . S
C744 H785 0.930 . S
C745 C743 1.353 . S
C745 N747 1.314 . S
C745 H786 0.930 . S
C746 C744 1.358 . S
C746 N747 1.279 . S
C746 H787 0.930 . S
N747 C745 1.314 . S
N747 C746 1.279 . S
C748 C750 1.353 . S
C748 N751 1.314 . S
C748 H754 0.930 1_556 S
C749 N751 1.279 . S
C749 C752 1.358 . S
C749 H755 0.930 . S
C750 C748 1.353 . S
C750 C753 1.348 . S
C750 H788 0.929 1_556 S
N751 Li706 1.990 . S
N751 C748 1.314 . S
N751 C749 1.279 . S
C752 C749 1.358 . S
C752 C753 1.356 . S
C752 H789 0.930 . S
C753 C750 1.348 . S
C753 C752 1.356 . S
H754 C748 0.930 1_554 S
H755 C749 0.930 . S
C756 N757 1.314 . S
C756 C758 1.353 . S
C756 H762 0.930 . S
N757 Li707 1.990 . S
N757 C756 1.314 . S
N757 C760 1.279 . S
C758 C756 1.353 . S
C758 C761 1.348 . S
C758 H790 0.929 . S
C759 C760 1.358 . S
C759 C761 1.356 . S
C759 H791 0.930 . S
C760 N757 1.279 . S
C760 C759 1.358 . S
C760 H763 0.930 . S
C761 C758 1.348 . S
C761 C759 1.356 . S
H762 C756 0.930 . S
H763 C760 0.930 . S
O764 Li704 1.956 . S
O764 Li705 1.970 . S
O764 Li706 1.961 . S
O764 C708 1.325 1_556 S
O765 Li704 1.970 . S
O765 Li705 1.956 . S
O765 Li707 1.961 . S
O765 C714 1.325 . S
O766 Li704 1.961 . S
O766 Li706 1.956 . S
O766 Li707 1.970 . S
O766 C736 1.325 . S
O767 Li705 1.961 . S
O767 Li706 1.970 . S
O767 Li707 1.956 . S
O767 C742 1.325 . S
H768 C710 0.929 . S
H769 C711 0.930 1_556 S
H770 C712 0.930 . S
H771 C713 0.930 . S
H772 C715 0.930 . S
H773 C717 0.929 . S
H774 C718 0.930 . S
H775 C719 0.930 . S
H776 C722 0.930 . S
H777 C725 0.929 . S
H778 C730 0.929 . S
H779 C731 0.930 . S
H780 C738 0.929 . S
H781 C739 0.930 . S
H782 C740 0.930 . S
H783 C741 0.930 . S
H784 C743 0.929 . S
H785 C744 0.930 . S
H786 C745 0.930 . S
H787 C746 0.930 . S
H788 C750 0.929 1_554 S
H789 C752 0.930 . S
H790 C758 0.929 . S
H791 C759 0.930 . S
Li792 N809 1.990 . S
Li792 O852 1.956 . S
Li792 O853 1.970 . S
Li792 O854 1.961 . S
Li793 N817 1.990 . S
Li793 O852 1.970 . S
Li793 O853 1.956 . S
Li793 O855 1.961 . S
Li794 N839 1.990 . S
Li794 O852 1.961 . S
Li794 O854 1.956 . S
Li794 O855 1.970 . S
Li795 N845 1.990 1_554 S
Li795 O853 1.961 . S
Li795 O854 1.970 . S
Li795 O855 1.956 . S
C796 C798 1.348 . S
C796 C799 1.356 . S
C796 O852 1.325 . S
N797 C800 1.314 . S
N797 C801 1.279 . S
C798 C796 1.348 . S
C798 C800 1.353 . S
C798 H856 0.929 . S
C799 C796 1.356 . S
C799 C801 1.358 . S
C799 H857 0.930 . S
C800 N797 1.314 . S
C800 C798 1.353 . S
C800 H858 0.930 . S
C801 N797 1.279 . S
C801 C799 1.358 . S
C801 H859 0.930 . S
C802 C805 1.348 . S
C802 C806 1.356 . S
C802 O853 1.325 . S
C803 N804 1.279 . S
C803 C806 1.358 . S
C803 H860 0.930 . S
N804 C803 1.279 . S
N804 C807 1.314 . S
C805 C802 1.348 . S
C805 C807 1.353 . S
C805 H861 0.929 . S
C806 C802 1.356 . S
C806 C803 1.358 . S
C806 H862 0.930 . S
C807 N804 1.314 . S
C807 C805 1.353 . S
C807 H863 0.930 . S
C808 N809 1.314 . S
C808 C813 1.353 . S
C808 H814 0.930 1_554 S
N809 Li792 1.990 . S
N809 C808 1.314 . S
N809 C811 1.279 . S
C810 C811 1.358 . S
C810 C812 1.356 . S
C810 H864 0.930 . S
C811 N809 1.279 . S
C811 C810 1.358 . S
C811 H815 0.930 . S
C812 C810 1.356 . S
C812 C813 1.348 . S
C813 C808 1.353 . S
C813 C812 1.348 . S
C813 H865 0.929 1_554 S
H814 C808 0.930 1_556 S
H815 C811 0.930 . S
C816 N817 1.314 . S
C816 C818 1.353 . S
C816 H822 0.930 . S
N817 Li793 1.990 . S
N817 C816 1.314 . S
N817 C820 1.279 . S
C818 C816 1.353 . S
C818 C821 1.348 . S
C818 H866 0.929 . S
C819 C820 1.358 . S
C819 C821 1.356 . S
C819 H867 0.930 . S
C820 N817 1.279 . S
C820 C819 1.358 . S
C820 H823 0.930 . S
C821 C818 1.348 . S
C821 C819 1.356 . S
H822 C816 0.930 . S
H823 C820 0.930 . S
C824 C826 1.348 . S
C824 C827 1.356 . S
C824 O854 1.325 1_556 S
N825 C828 1.314 . S
N825 C829 1.279 . S
C826 C824 1.348 . S
C826 C828 1.353 . S
C826 H868 0.929 . S
C827 C824 1.356 . S
C827 C829 1.358 . S
C827 H869 0.930 1_556 S
C828 N825 1.314 . S
C828 C826 1.353 . S
C828 H870 0.930 . S
C829 N825 1.279 . S
C829 C827 1.358 . S
C829 H871 0.930 . S
C830 C831 1.348 . S
C830 C832 1.356 . S
C830 O855 1.325 . S
C831 C830 1.348 . S
C831 C833 1.353 . S
C831 H872 0.929 . S
C832 C830 1.356 . S
C832 C834 1.358 . S
C832 H873 0.930 . S
C833 C831 1.353 . S
C833 N835 1.314 . S
C833 H874 0.930 . S
C834 C832 1.358 . S
C834 N835 1.279 . S
C834 H875 0.930 . S
N835 C833 1.314 . S
N835 C834 1.279 . S
C836 C838 1.353 . S
C836 N839 1.314 . S
C836 H842 0.930 . S
C837 N839 1.279 . S
C837 C840 1.358 . S
C837 H843 0.930 . S
C838 C836 1.353 . S
C838 C841 1.348 . S
C838 H876 0.929 . S
N839 Li794 1.990 . S
N839 C836 1.314 . S
N839 C837 1.279 . S
C840 C837 1.358 . S
C840 C841 1.356 . S
C840 H877 0.930 . S
C841 C838 1.348 . S
C841 C840 1.356 . S
H842 C836 0.930 . S
H843 C837 0.930 . S
C844 N845 1.314 . S
C844 C846 1.353 . S
C844 H850 0.930 . S
N845 Li795 1.990 1_556 S
N845 C844 1.314 . S
N845 C848 1.279 . S
C846 C844 1.353 . S
C846 C849 1.348 . S
C846 H878 0.929 . S
C847 C848 1.358 . S
C847 C849 1.356 . S
C847 H879 0.930 . S
C848 N845 1.279 . S
C848 C847 1.358 . S
C848 H851 0.930 . S
C849 C846 1.348 . S
C849 C847 1.356 . S
H850 C844 0.930 . S
H851 C848 0.930 . S
O852 Li792 1.956 . S
O852 Li793 1.970 . S
O852 Li794 1.961 . S
O852 C796 1.325 . S
O853 Li792 1.970 . S
O853 Li793 1.956 . S
O853 Li795 1.961 . S
O853 C802 1.325 . S
O854 Li792 1.961 . S
O854 Li794 1.956 . S
O854 Li795 1.970 . S
O854 C824 1.325 1_554 S
O855 Li793 1.961 . S
O855 Li794 1.970 . S
O855 Li795 1.956 . S
O855 C830 1.325 . S
H856 C798 0.929 . S
H857 C799 0.930 . S
H858 C800 0.930 . S
H859 C801 0.930 . S
H860 C803 0.930 . S
H861 C805 0.929 . S
H862 C806 0.930 . S
H863 C807 0.930 . S
H864 C810 0.930 . S
H865 C813 0.929 1_556 S
H866 C818 0.929 . S
H867 C819 0.930 . S
H868 C826 0.929 . S
H869 C827 0.930 1_554 S
H870 C828 0.930 . S
H871 C829 0.930 . S
H872 C831 0.929 . S
H873 C832 0.930 . S
H874 C833 0.930 . S
H875 C834 0.930 . S
H876 C838 0.929 . S
H877 C840 0.930 . S
H878 C846 0.929 . S
H879 C847 0.930 . S
Li880 N897 1.990 1_554 S
Li880 O940 1.956 . S
Li880 O941 1.970 . S
Li880 O942 1.961 . S
Li881 N905 1.990 . S
Li881 O940 1.970 . S
Li881 O941 1.956 . S
Li881 O943 1.961 . S
Li882 N927 1.990 . S
Li882 O940 1.961 . S
Li882 O942 1.956 . S
Li882 O943 1.970 . S
Li883 N933 1.990 . S
Li883 O941 1.961 . S
Li883 O942 1.970 . S
Li883 O943 1.956 . S
C884 C886 1.348 . S
C884 C887 1.356 . S
C884 O940 1.325 . S
N885 C888 1.314 . S
N885 C889 1.279 . S
C886 C884 1.348 . S
C886 C888 1.353 . S
C886 H944 0.929 . S
C887 C884 1.356 . S
C887 C889 1.358 . S
C887 H945 0.930 . S
C888 N885 1.314 . S
C888 C886 1.353 . S
C888 H946 0.930 . S
C889 N885 1.279 . S
C889 C887 1.358 . S
C889 H947 0.930 . S
C890 C893 1.348 . S
C890 C894 1.356 . S
C890 O941 1.325 1_556 S
C891 N892 1.279 . S
C891 C894 1.358 . S
C891 H948 0.930 . S
N892 C891 1.279 . S
N892 C895 1.314 . S
C893 C890 1.348 . S
C893 C895 1.353 . S
C893 H949 0.929 . S
C894 C890 1.356 . S
C894 C891 1.358 . S
C894 H950 0.930 1_556 S
C895 N892 1.314 . S
C895 C893 1.353 . S
C895 H951 0.930 . S
C896 N897 1.314 . S
C896 C901 1.353 . S
C896 H902 0.930 . S
N897 Li880 1.990 1_556 S
N897 C896 1.314 . S
N897 C899 1.279 . S
C898 C899 1.358 . S
C898 C900 1.356 . S
C898 H952 0.930 . S
C899 N897 1.279 . S
C899 C898 1.358 . S
C899 H903 0.930 . S
C900 C898 1.356 . S
C900 C901 1.348 . S
C901 C896 1.353 . S
C901 C900 1.348 . S
C901 H953 0.929 . S
H902 C896 0.930 . S
H903 C899 0.930 . S
C904 N905 1.314 . S
C904 C906 1.353 . S
C904 H910 0.930 . S
N905 Li881 1.990 . S
N905 C904 1.314 . S
N905 C908 1.279 . S
C906 C904 1.353 . S
C906 C909 1.348 . S
C906 H954 0.929 . S
C907 C908 1.358 . S
C907 C909 1.356 . S
C907 H955 0.930 . S
C908 N905 1.279 . S
C908 C907 1.358 . S
C908 H911 0.930 . S
C909 C906 1.348 . S
C909 C907 1.356 . S
H910 C904 0.930 . S
H911 C908 0.930 . S
C912 C914 1.348 . S
C912 C915 1.356 . S
C912 O942 1.325 . S
N913 C916 1.314 . S
N913 C917 1.279 . S
C914 C912 1.348 . S
C914 C916 1.353 . S
C914 H956 0.929 . S
C915 C912 1.356 . S
C915 C917 1.358 . S
C915 H957 0.930 . S
C916 N913 1.314 . S
C916 C914 1.353 . S
C916 H958 0.930 . S
C917 N913 1.279 . S
C917 C915 1.358 . S
C917 H959 0.930 . S
C918 C919 1.348 . S
C918 C920 1.356 . S
C918 O943 1.325 . S
C919 C918 1.348 . S
C919 C921 1.353 . S
C919 H960 0.929 . S
C920 C918 1.356 . S
C920 C922 1.358 . S
C920 H961 0.930 . S
C921 C919 1.353 . S
C921 N923 1.314 . S
C921 H962 0.930 . S
C922 C920 1.358 . S
C922 N923 1.279 . S
C922 H963 0.930 . S
N923 C921 1.314 . S
N923 C922 1.279 . S
C924 C926 1.353 . S
C924 N927 1.314 . S
C924 H930 0.930 . S
C925 N927 1.279 . S
C925 C928 1.358 . S
C925 H931 0.930 . S
C926 C924 1.353 . S
C926 C929 1.348 . S
C926 H964 0.929 . S
N927 Li882 1.990 . S
N927 C924 1.314 . S
N927 C925 1.279 . S
C928 C925 1.358 . S
C928 C929 1.356 . S
C928 H965 0.930 . S
C929 C926 1.348 . S
C929 C928 1.356 . S
H930 C924 0.930 . S
H931 C925 0.930 . S
C932 N933 1.314 . S
C932 C934 1.353 . S
C932 H938 0.930 1_554 S
N933 Li883 1.990 . S
N933 C932 1.314 . S
N933 C936 1.279 . S
C934 C932 1.353 . S
C934 C937 1.348 . S
C934 H966 0.929 1_554 S
C935 C936 1.358 . S
C935 C937 1.356 . S
C935 H967 0.930 . S
C936 N933 1.279 . S
C936 C935 1.358 . S
C936 H939 0.930 . S
C937 C934 1.348 . S
C937 C935 1.356 . S
H938 C932 0.930 1_556 S
H939 C936 0.930 . S
O940 Li880 1.956 . S
O940 Li881 1.970 . S
O940 Li882 1.961 . S
O940 C884 1.325 . S
O941 Li880 1.970 . S
O941 Li881 1.956 . S
O941 Li883 1.961 . S
O941 C890 1.325 1_554 S
O942 Li880 1.961 . S
O942 Li882 1.956 . S
O942 Li883 1.970 . S
O942 C912 1.325 . S
O943 Li881 1.961 . S
O943 Li882 1.970 . S
O943 Li883 1.956 . S
O943 C918 1.325 . S
H944 C886 0.929 . S
H945 C887 0.930 . S
H946 C888 0.930 . S
H947 C889 0.930 . S
H948 C891 0.930 . S
H949 C893 0.929 . S
H950 C894 0.930 1_554 S
H951 C895 0.930 . S
H952 C898 0.930 . S
H953 C901 0.929 . S
H954 C906 0.929 . S
H955 C907 0.930 . S
H956 C914 0.929 . S
H957 C915 0.930 . S
H958 C916 0.930 . S
H959 C917 0.930 . S
H960 C919 0.929 . S
H961 C920 0.930 . S
H962 C921 0.930 . S
H963 C922 0.930 . S
H964 C926 0.929 . S
H965 C928 0.930 . S
H966 C934 0.929 1_556 S
H967 C935 0.930 . S
Li968 N985 1.990 . S
Li968 O1028 1.956 . S
Li968 O1029 1.970 . S
Li968 O1030 1.961 . S
Li969 N993 1.990 . S
Li969 O1028 1.970 . S
Li969 O1029 1.956 . S
Li969 O1031 1.961 . S
Li970 N1015 1.990 . S
Li970 O1028 1.961 . S
Li970 O1030 1.956 . S
Li970 O1031 1.970 . S
Li971 N1021 1.990 1_554 S
Li971 O1029 1.961 . S
Li971 O1030 1.970 . S
Li971 O1031 1.956 . S
C972 C974 1.348 . S
C972 C975 1.356 . S
C972 O1028 1.325 . S
N973 C976 1.314 . S
N973 C977 1.279 . S
C974 C972 1.348 . S
C974 C976 1.353 . S
C974 H1032 0.929 . S
C975 C972 1.356 . S
C975 C977 1.358 . S
C975 H1033 0.930 . S
C976 N973 1.314 . S
C976 C974 1.353 . S
C976 H1034 0.930 . S
C977 N973 1.279 . S
C977 C975 1.358 . S
C977 H1035 0.930 . S
C978 C981 1.348 . S
C978 C982 1.356 . S
C978 O1029 1.325 . S
C979 N980 1.279 . S
C979 C982 1.358 . S
C979 H1036 0.930 . S
N980 C979 1.279 . S
N980 C983 1.314 . S
C981 C978 1.348 . S
C981 C983 1.353 . S
C981 H1037 0.929 . S
C982 C978 1.356 . S
C982 C979 1.358 . S
C982 H1038 0.930 . S
C983 N980 1.314 . S
C983 C981 1.353 . S
C983 H1039 0.930 . S
C984 N985 1.314 . S
C984 C989 1.353 . S
C984 H990 0.930 1_554 S
N985 Li968 1.990 . S
N985 C984 1.314 . S
N985 C987 1.279 . S
C986 C987 1.358 . S
C986 C988 1.356 . S
C986 H1040 0.930 . S
C987 N985 1.279 . S
C987 C986 1.358 . S
C987 H991 0.930 . S
C988 C986 1.356 . S
C988 C989 1.348 . S
C989 C984 1.353 . S
C989 C988 1.348 . S
C989 H1041 0.929 1_554 S
H990 C984 0.930 1_556 S
H991 C987 0.930 . S
C992 N993 1.314 . S
C992 C994 1.353 . S
C992 H998 0.930 . S
N993 Li969 1.990 . S
N993 C992 1.314 . S
N993 C996 1.279 . S
C994 C992 1.353 . S
C994 C997 1.348 . S
C994 H1042 0.929 . S
C995 C996 1.358 . S
C995 C997 1.356 . S
C995 H1043 0.930 . S
C996 N993 1.279 . S
C996 C995 1.358 . S
C996 H999 0.930 . S
C997 C994 1.348 . S
C997 C995 1.356 . S
H998 C992 0.930 . S
H999 C996 0.930 . S
C1000 C1002 1.348 . S
C1000 C1003 1.356 . S
C1000 O1030 1.325 1_556 S
N1001 C1004 1.314 . S
N1001 C1005 1.279 . S
C1002 C1000 1.348 . S
C1002 C1004 1.353 . S
C1002 H1044 0.929 . S
C1003 C1000 1.356 . S
C1003 C1005 1.358 . S
C1003 H1045 0.930 1_556 S
C1004 N1001 1.314 . S
C1004 C1002 1.353 . S
C1004 H1046 0.930 . S
C1005 N1001 1.279 . S
C1005 C1003 1.358 . S
C1005 H1047 0.930 . S
C1006 C1007 1.348 . S
C1006 C1008 1.356 . S
C1006 O1031 1.325 . S
C1007 C1006 1.348 . S
C1007 C1009 1.353 . S
C1007 H1048 0.929 . S
C1008 C1006 1.356 . S
C1008 C1010 1.358 . S
C1008 H1049 0.930 . S
C1009 C1007 1.353 . S
C1009 N1011 1.314 . S
C1009 H1050 0.930 . S
C1010 C1008 1.358 . S
C1010 N1011 1.279 . S
C1010 H1051 0.930 . S
N1011 C1009 1.314 . S
N1011 C1010 1.279 . S
C1012 C1014 1.353 . S
C1012 N1015 1.314 . S
C1012 H1018 0.930 . S
C1013 N1015 1.279 . S
C1013 C1016 1.358 . S
C1013 H1019 0.930 . S
C1014 C1012 1.353 . S
C1014 C1017 1.348 . S
C1014 H1052 0.929 . S
N1015 Li970 1.990 . S
N1015 C1012 1.314 . S
N1015 C1013 1.279 . S
C1016 C1013 1.358 . S
C1016 C1017 1.356 . S
C1016 H1053 0.930 . S
C1017 C1014 1.348 . S
C1017 C1016 1.356 . S
H1018 C1012 0.930 . S
H1019 C1013 0.930 . S
C1020 N1021 1.314 . S
C1020 C1022 1.353 . S
C1020 H1026 0.930 . S
N1021 Li971 1.990 1_556 S
N1021 C1020 1.314 . S
N1021 C1024 1.279 . S
C1022 C1020 1.353 . S
C1022 C1025 1.348 . S
C1022 H1054 0.929 . S
C1023 C1024 1.358 . S
C1023 C1025 1.356 . S
C1023 H1055 0.930 . S
C1024 N1021 1.279 . S
C1024 C1023 1.358 . S
C1024 H1027 0.930 . S
C1025 C1022 1.348 . S
C1025 C1023 1.356 . S
H1026 C1020 0.930 . S
H1027 C1024 0.930 . S
O1028 Li968 1.956 . S
O1028 Li969 1.970 . S
O1028 Li970 1.961 . S
O1028 C972 1.325 . S
O1029 Li968 1.970 . S
O1029 Li969 1.956 . S
O1029 Li971 1.961 . S
O1029 C978 1.325 . S
O1030 Li968 1.961 . S
O1030 Li970 1.956 . S
O1030 Li971 1.970 . S
O1030 C1000 1.325 1_554 S
O1031 Li969 1.961 . S
O1031 Li970 1.970 . S
O1031 Li971 1.956 . S
O1031 C1006 1.325 . S
H1032 C974 0.929 . S
H1033 C975 0.930 . S
H1034 C976 0.930 . S
H1035 C977 0.930 . S
H1036 C979 0.930 . S
H1037 C981 0.929 . S
H1038 C982 0.930 . S
H1039 C983 0.930 . S
H1040 C986 0.930 . S
H1041 C989 0.929 1_556 S
H1042 C994 0.929 . S
H1043 C995 0.930 . S
H1044 C1002 0.929 . S
H1045 C1003 0.930 1_554 S
H1046 C1004 0.930 . S
H1047 C1005 0.930 . S
H1048 C1007 0.929 . S
H1049 C1008 0.930 . S
H1050 C1009 0.930 . S
H1051 C1010 0.930 . S
H1052 C1014 0.929 . S
H1053 C1016 0.930 . S
H1054 C1022 0.929 . S
H1055 C1023 0.930 . S
Li1056 N1073 1.990 . S
Li1056 O1116 1.956 . S
Li1056 O1117 1.970 . S
Li1056 O1118 1.961 . S
Li1057 N1081 1.990 . S
Li1057 O1116 1.970 . S
Li1057 O1117 1.956 . S
Li1057 O1119 1.961 . S
Li1058 N1103 1.990 . S
Li1058 O1116 1.961 . S
Li1058 O1118 1.956 . S
Li1058 O1119 1.970 . S
Li1059 N1109 1.990 . S
Li1059 O1117 1.961 . S
Li1059 O1118 1.970 . S
Li1059 O1119 1.956 . S
C1060 C1062 1.348 . S
C1060 C1063 1.356 . S
C1060 O1116 1.325 . S
N1061 C1064 1.314 . S
N1061 C1065 1.279 . S
C1062 C1060 1.348 . S
C1062 C1064 1.353 . S
C1062 H1120 0.929 . S
C1063 C1060 1.356 . S
C1063 C1065 1.358 . S
C1063 H1121 0.930 . S
C1064 N1061 1.314 . S
C1064 C1062 1.353 . S
C1064 H1122 0.930 . S
C1065 N1061 1.279 . S
C1065 C1063 1.358 . S
C1065 H1123 0.930 . S
C1066 C1069 1.348 . S
C1066 C1070 1.356 . S
C1066 O1117 1.325 . S
C1067 N1068 1.279 . S
C1067 C1070 1.358 . S
C1067 H1124 0.930 . S
N1068 C1067 1.279 . S
N1068 C1071 1.314 . S
C1069 C1066 1.348 . S
C1069 C1071 1.353 . S
C1069 H1125 0.929 . S
C1070 C1066 1.356 . S
C1070 C1067 1.358 . S
C1070 H1126 0.930 . S
C1071 N1068 1.314 . S
C1071 C1069 1.353 . S
C1071 H1127 0.930 . S
C1072 N1073 1.314 . S
C1072 C1077 1.353 . S
C1072 H1078 0.930 . S
N1073 Li1056 1.990 . S
N1073 C1072 1.314 . S
N1073 C1075 1.279 . S
C1074 C1075 1.358 . S
C1074 C1076 1.356 . S
C1074 H1128 0.930 . S
C1075 N1073 1.279 . S
C1075 C1074 1.358 . S
C1075 H1079 0.930 . S
C1076 C1074 1.356 . S
C1076 C1077 1.348 . S
C1077 C1072 1.353 . S
C1077 C1076 1.348 . S
C1077 H1129 0.929 . S
H1078 C1072 0.930 . S
H1079 C1075 0.930 . S
C1080 N1081 1.314 . S
C1080 C1082 1.353 . S
C1080 H1086 0.930 . S
N1081 Li1057 1.990 . S
N1081 C1080 1.314 . S
N1081 C1084 1.279 . S
C1082 C1080 1.353 . S
C1082 C1085 1.348 . S
C1082 H1130 0.929 . S
C1083 C1084 1.358 . S
C1083 C1085 1.356 . S
C1083 H1131 0.930 . S
C1084 N1081 1.279 . S
C1084 C1083 1.358 . S
C1084 H1087 0.930 . S
C1085 C1082 1.348 . S
C1085 C1083 1.356 . S
H1086 C1080 0.930 . S
H1087 C1084 0.930 . S
C1088 C1090 1.348 . S
C1088 C1091 1.356 . S
C1088 O1118 1.325 . S
N1089 C1092 1.314 . S
N1089 C1093 1.279 . S
C1090 C1088 1.348 . S
C1090 C1092 1.353 . S
C1090 H1132 0.929 . S
C1091 C1088 1.356 . S
C1091 C1093 1.358 . S
C1091 H1133 0.930 . S
C1092 N1089 1.314 . S
C1092 C1090 1.353 . S
C1092 H1134 0.930 . S
C1093 N1089 1.279 . S
C1093 C1091 1.358 . S
C1093 H1135 0.930 . S
C1094 C1095 1.348 . S
C1094 C1096 1.356 . S
C1094 O1119 1.325 . S
C1095 C1094 1.348 . S
C1095 C1097 1.353 . S
C1095 H1136 0.929 . S
C1096 C1094 1.356 . S
C1096 C1098 1.358 . S
C1096 H1137 0.930 . S
C1097 C1095 1.353 . S
C1097 N1099 1.314 . S
C1097 H1138 0.930 . S
C1098 C1096 1.358 . S
C1098 N1099 1.279 . S
C1098 H1139 0.930 . S
N1099 C1097 1.314 . S
N1099 C1098 1.279 . S
C1100 C1102 1.353 . S
C1100 N1103 1.314 . S
C1100 H1106 0.930 . S
C1101 N1103 1.279 . S
C1101 C1104 1.358 . S
C1101 H1107 0.930 . S
C1102 C1100 1.353 . S
C1102 C1105 1.348 . S
C1102 H1140 0.929 . S
N1103 Li1058 1.990 . S
N1103 C1100 1.314 . S
N1103 C1101 1.279 . S
C1104 C1101 1.358 . S
C1104 C1105 1.356 . S
C1104 H1141 0.930 . S
C1105 C1102 1.348 . S
C1105 C1104 1.356 . S
H1106 C1100 0.930 . S
H1107 C1101 0.930 . S
C1108 N1109 1.314 . S
C1108 C1110 1.353 . S
C1108 H1114 0.930 . S
N1109 Li1059 1.990 . S
N1109 C1108 1.314 . S
N1109 C1112 1.279 . S
C1110 C1108 1.353 . S
C1110 C1113 1.348 . S
C1110 H1142 0.929 . S
C1111 C1112 1.358 . S
C1111 C1113 1.356 . S
C1111 H1143 0.930 . S
C1112 N1109 1.279 . S
C1112 C1111 1.358 . S
C1112 H1115 0.930 . S
C1113 C1110 1.348 . S
C1113 C1111 1.356 . S
H1114 C1108 0.930 . S
H1115 C1112 0.930 . S
O1116 Li1056 1.956 . S
O1116 Li1057 1.970 . S
O1116 Li1058 1.961 . S
O1116 C1060 1.325 . S
O1117 Li1056 1.970 . S
O1117 Li1057 1.956 . S
O1117 Li1059 1.961 . S
O1117 C1066 1.325 . S
O1118 Li1056 1.961 . S
O1118 Li1058 1.956 . S
O1118 Li1059 1.970 . S
O1118 C1088 1.325 . S
O1119 Li1057 1.961 . S
O1119 Li1058 1.970 . S
O1119 Li1059 1.956 . S
O1119 C1094 1.325 . S
H1120 C1062 0.929 . S
H1121 C1063 0.930 . S
H1122 C1064 0.930 . S
H1123 C1065 0.930 . S
H1124 C1067 0.930 . S
H1125 C1069 0.929 . S
H1126 C1070 0.930 . S
H1127 C1071 0.930 . S
H1128 C1074 0.930 . S
H1129 C1077 0.929 . S
H1130 C1082 0.929 . S
H1131 C1083 0.930 . S
H1132 C1090 0.929 . S
H1133 C1091 0.930 . S
H1134 C1092 0.930 . S
H1135 C1093 0.930 . S
H1136 C1095 0.929 . S
H1137 C1096 0.930 . S
H1138 C1097 0.930 . S
H1139 C1098 0.930 . S
H1140 C1102 0.929 . S
H1141 C1104 0.930 . S
H1142 C1110 0.929 . S
H1143 C1111 0.930 . S
Li1144 N1161 1.990 . S
Li1144 O1204 1.956 . S
Li1144 O1205 1.970 . S
Li1144 O1206 1.961 . S
Li1145 N1169 1.990 . S
Li1145 O1204 1.970 . S
Li1145 O1205 1.956 . S
Li1145 O1207 1.961 . S
Li1146 N1191 1.990 . S
Li1146 O1204 1.961 . S
Li1146 O1206 1.956 . S
Li1146 O1207 1.970 . S
Li1147 N1197 1.990 . S
Li1147 O1205 1.961 . S
Li1147 O1206 1.970 . S
Li1147 O1207 1.956 . S
C1148 C1150 1.348 . S
C1148 C1151 1.356 . S
C1148 O1204 1.325 . S
N1149 C1152 1.314 . S
N1149 C1153 1.279 . S
C1150 C1148 1.348 . S
C1150 C1152 1.353 . S
C1150 H1208 0.929 . S
C1151 C1148 1.356 . S
C1151 C1153 1.358 . S
C1151 H1209 0.930 . S
C1152 N1149 1.314 . S
C1152 C1150 1.353 . S
C1152 H1210 0.930 . S
C1153 N1149 1.279 . S
C1153 C1151 1.358 . S
C1153 H1211 0.930 . S
C1154 C1157 1.348 . S
C1154 C1158 1.356 . S
C1154 O1205 1.325 . S
C1155 N1156 1.279 . S
C1155 C1158 1.358 . S
C1155 H1212 0.930 . S
N1156 C1155 1.279 . S
N1156 C1159 1.314 . S
C1157 C1154 1.348 . S
C1157 C1159 1.353 . S
C1157 H1213 0.929 . S
C1158 C1154 1.356 . S
C1158 C1155 1.358 . S
C1158 H1214 0.930 . S
C1159 N1156 1.314 . S
C1159 C1157 1.353 . S
C1159 H1215 0.930 . S
C1160 N1161 1.314 . S
C1160 C1165 1.353 . S
C1160 H1166 0.930 . S
N1161 Li1144 1.990 . S
N1161 C1160 1.314 . S
N1161 C1163 1.279 . S
C1162 C1163 1.358 . S
C1162 C1164 1.356 . S
C1162 H1216 0.930 . S
C1163 N1161 1.279 . S
C1163 C1162 1.358 . S
C1163 H1167 0.930 . S
C1164 C1162 1.356 . S
C1164 C1165 1.348 . S
C1165 C1160 1.353 . S
C1165 C1164 1.348 . S
C1165 H1217 0.929 . S
H1166 C1160 0.930 . S
H1167 C1163 0.930 . S
C1168 N1169 1.314 . S
C1168 C1170 1.353 . S
C1168 H1174 0.930 . S
N1169 Li1145 1.990 . S
N1169 C1168 1.314 . S
N1169 C1172 1.279 . S
C1170 C1168 1.353 . S
C1170 C1173 1.348 . S
C1170 H1218 0.929 . S
C1171 C1172 1.358 . S
C1171 C1173 1.356 . S
C1171 H1219 0.930 . S
C1172 N1169 1.279 . S
C1172 C1171 1.358 . S
C1172 H1175 0.930 . S
C1173 C1170 1.348 . S
C1173 C1171 1.356 . S
H1174 C1168 0.930 . S
H1175 C1172 0.930 . S
C1176 C1178 1.348 . S
C1176 C1179 1.356 . S
C1176 O1206 1.325 . S
N1177 C1180 1.314 . S
N1177 C1181 1.279 . S
C1178 C1176 1.348 . S
C1178 C1180 1.353 . S
C1178 H1220 0.929 . S
C1179 C1176 1.356 . S
C1179 C1181 1.358 . S
C1179 H1221 0.930 . S
C1180 N1177 1.314 . S
C1180 C1178 1.353 . S
C1180 H1222 0.930 . S
C1181 N1177 1.279 . S
C1181 C1179 1.358 . S
C1181 H1223 0.930 . S
C1182 C1183 1.348 . S
C1182 C1184 1.356 . S
C1182 O1207 1.325 . S
C1183 C1182 1.348 . S
C1183 C1185 1.353 . S
C1183 H1224 0.929 . S
C1184 C1182 1.356 . S
C1184 C1186 1.358 . S
C1184 H1225 0.930 . S
C1185 C1183 1.353 . S
C1185 N1187 1.314 . S
C1185 H1226 0.930 . S
C1186 C1184 1.358 . S
C1186 N1187 1.279 . S
C1186 H1227 0.930 . S
N1187 C1185 1.314 . S
N1187 C1186 1.279 . S
C1188 C1190 1.353 . S
C1188 N1191 1.314 . S
C1188 H1194 0.930 . S
C1189 N1191 1.279 . S
C1189 C1192 1.358 . S
C1189 H1195 0.930 . S
C1190 C1188 1.353 . S
C1190 C1193 1.348 . S
C1190 H1228 0.929 . S
N1191 Li1146 1.990 . S
N1191 C1188 1.314 . S
N1191 C1189 1.279 . S
C1192 C1189 1.358 . S
C1192 C1193 1.356 . S
C1192 H1229 0.930 . S
C1193 C1190 1.348 . S
C1193 C1192 1.356 . S
H1194 C1188 0.930 . S
H1195 C1189 0.930 . S
C1196 N1197 1.314 . S
C1196 C1198 1.353 . S
C1196 H1202 0.930 . S
N1197 Li1147 1.990 . S
N1197 C1196 1.314 . S
N1197 C1200 1.279 . S
C1198 C1196 1.353 . S
C1198 C1201 1.348 . S
C1198 H1230 0.929 . S
C1199 C1200 1.358 . S
C1199 C1201 1.356 . S
C1199 H1231 0.930 . S
C1200 N1197 1.279 . S
C1200 C1199 1.358 . S
C1200 H1203 0.930 . S
C1201 C1198 1.348 . S
C1201 C1199 1.356 . S
H1202 C1196 0.930 . S
H1203 C1200 0.930 . S
O1204 Li1144 1.956 . S
O1204 Li1145 1.970 . S
O1204 Li1146 1.961 . S
O1204 C1148 1.325 . S
O1205 Li1144 1.970 . S
O1205 Li1145 1.956 . S
O1205 Li1147 1.961 . S
O1205 C1154 1.325 . S
O1206 Li1144 1.961 . S
O1206 Li1146 1.956 . S
O1206 Li1147 1.970 . S
O1206 C1176 1.325 . S
O1207 Li1145 1.961 . S
O1207 Li1146 1.970 . S
O1207 Li1147 1.956 . S
O1207 C1182 1.325 . S
H1208 C1150 0.929 . S
H1209 C1151 0.930 . S
H1210 C1152 0.930 . S
H1211 C1153 0.930 . S
H1212 C1155 0.930 . S
H1213 C1157 0.929 . S
H1214 C1158 0.930 . S
H1215 C1159 0.930 . S
H1216 C1162 0.930 . S
H1217 C1165 0.929 . S
H1218 C1170 0.929 . S
H1219 C1171 0.930 . S
H1220 C1178 0.929 . S
H1221 C1179 0.930 . S
H1222 C1180 0.930 . S
H1223 C1181 0.930 . S
H1224 C1183 0.929 . S
H1225 C1184 0.930 . S
H1226 C1185 0.930 . S
H1227 C1186 0.930 . S
H1228 C1190 0.929 . S
H1229 C1192 0.930 . S
H1230 C1198 0.929 . S
H1231 C1199 0.930 . S
Li1232 N1249 1.990 . S
Li1232 O1292 1.956 . S
Li1232 O1293 1.970 . S
Li1232 O1294 1.961 . S
Li1233 N1257 1.990 . S
Li1233 O1292 1.970 . S
Li1233 O1293 1.956 . S
Li1233 O1295 1.961 . S
Li1234 N1279 1.990 . S
Li1234 O1292 1.961 . S
Li1234 O1294 1.956 . S
Li1234 O1295 1.970 . S
Li1235 N1285 1.990 . S
Li1235 O1293 1.961 . S
Li1235 O1294 1.970 . S
Li1235 O1295 1.956 . S
C1236 C1238 1.348 . S
C1236 C1239 1.356 . S
C1236 O1292 1.325 . S
N1237 C1240 1.314 . S
N1237 C1241 1.279 . S
C1238 C1236 1.348 . S
C1238 C1240 1.353 . S
C1238 H1296 0.929 . S
C1239 C1236 1.356 . S
C1239 C1241 1.358 . S
C1239 H1297 0.930 . S
C1240 N1237 1.314 . S
C1240 C1238 1.353 . S
C1240 H1298 0.930 . S
C1241 N1237 1.279 . S
C1241 C1239 1.358 . S
C1241 H1299 0.930 . S
C1242 C1245 1.348 . S
C1242 C1246 1.356 . S
C1242 O1293 1.325 . S
C1243 N1244 1.279 . S
C1243 C1246 1.358 . S
C1243 H1300 0.930 . S
N1244 C1243 1.279 . S
N1244 C1247 1.314 . S
C1245 C1242 1.348 . S
C1245 C1247 1.353 . S
C1245 H1301 0.929 . S
C1246 C1242 1.356 . S
C1246 C1243 1.358 . S
C1246 H1302 0.930 . S
C1247 N1244 1.314 . S
C1247 C1245 1.353 . S
C1247 H1303 0.930 . S
C1248 N1249 1.314 . S
C1248 C1253 1.353 . S
C1248 H1254 0.930 . S
N1249 Li1232 1.990 . S
N1249 C1248 1.314 . S
N1249 C1251 1.279 . S
C1250 C1251 1.358 . S
C1250 C1252 1.356 . S
C1250 H1304 0.930 . S
C1251 N1249 1.279 . S
C1251 C1250 1.358 . S
C1251 H1255 0.930 . S
C1252 C1250 1.356 . S
C1252 C1253 1.348 . S
C1253 C1248 1.353 . S
C1253 C1252 1.348 . S
C1253 H1305 0.929 . S
H1254 C1248 0.930 . S
H1255 C1251 0.930 . S
C1256 N1257 1.314 . S
C1256 C1258 1.353 . S
C1256 H1262 0.930 . S
N1257 Li1233 1.990 . S
N1257 C1256 1.314 . S
N1257 C1260 1.279 . S
C1258 C1256 1.353 . S
C1258 C1261 1.348 . S
C1258 H1306 0.929 . S
C1259 C1260 1.358 . S
C1259 C1261 1.356 . S
C1259 H1307 0.930 . S
C1260 N1257 1.279 . S
C1260 C1259 1.358 . S
C1260 H1263 0.930 . S
C1261 C1258 1.348 . S
C1261 C1259 1.356 . S
H1262 C1256 0.930 . S
H1263 C1260 0.930 . S
C1264 C1266 1.348 . S
C1264 C1267 1.356 . S
C1264 O1294 1.325 . S
N1265 C1268 1.314 . S
N1265 C1269 1.279 . S
C1266 C1264 1.348 . S
C1266 C1268 1.353 . S
C1266 H1308 0.929 . S
C1267 C1264 1.356 . S
C1267 C1269 1.358 . S
C1267 H1309 0.930 . S
C1268 N1265 1.314 . S
C1268 C1266 1.353 . S
C1268 H1310 0.930 . S
C1269 N1265 1.279 . S
C1269 C1267 1.358 . S
C1269 H1311 0.930 . S
C1270 C1271 1.348 . S
C1270 C1272 1.356 . S
C1270 O1295 1.325 . S
C1271 C1270 1.348 . S
C1271 C1273 1.353 . S
C1271 H1312 0.929 . S
C1272 C1270 1.356 . S
C1272 C1274 1.358 . S
C1272 H1313 0.930 . S
C1273 C1271 1.353 . S
C1273 N1275 1.314 . S
C1273 H1314 0.930 . S
C1274 C1272 1.358 . S
C1274 N1275 1.279 . S
C1274 H1315 0.930 . S
N1275 C1273 1.314 . S
N1275 C1274 1.279 . S
C1276 C1278 1.353 . S
C1276 N1279 1.314 . S
C1276 H1282 0.930 . S
C1277 N1279 1.279 . S
C1277 C1280 1.358 . S
C1277 H1283 0.930 . S
C1278 C1276 1.353 . S
C1278 C1281 1.348 . S
C1278 H1316 0.929 . S
N1279 Li1234 1.990 . S
N1279 C1276 1.314 . S
N1279 C1277 1.279 . S
C1280 C1277 1.358 . S
C1280 C1281 1.356 . S
C1280 H1317 0.930 . S
C1281 C1278 1.348 . S
C1281 C1280 1.356 . S
H1282 C1276 0.930 . S
H1283 C1277 0.930 . S
C1284 N1285 1.314 . S
C1284 C1286 1.353 . S
C1284 H1290 0.930 . S
N1285 Li1235 1.990 . S
N1285 C1284 1.314 . S
N1285 C1288 1.279 . S
C1286 C1284 1.353 . S
C1286 C1289 1.348 . S
C1286 H1318 0.929 . S
C1287 C1288 1.358 . S
C1287 C1289 1.356 . S
C1287 H1319 0.930 . S
C1288 N1285 1.279 . S
C1288 C1287 1.358 . S
C1288 H1291 0.930 . S
C1289 C1286 1.348 . S
C1289 C1287 1.356 . S
H1290 C1284 0.930 . S
H1291 C1288 0.930 . S
O1292 Li1232 1.956 . S
O1292 Li1233 1.970 . S
O1292 Li1234 1.961 . S
O1292 C1236 1.325 . S
O1293 Li1232 1.970 . S
O1293 Li1233 1.956 . S
O1293 Li1235 1.961 . S
O1293 C1242 1.325 . S
O1294 Li1232 1.961 . S
O1294 Li1234 1.956 . S
O1294 Li1235 1.970 . S
O1294 C1264 1.325 . S
O1295 Li1233 1.961 . S
O1295 Li1234 1.970 . S
O1295 Li1235 1.956 . S
O1295 C1270 1.325 . S
H1296 C1238 0.929 . S
H1297 C1239 0.930 . S
H1298 C1240 0.930 . S
H1299 C1241 0.930 . S
H1300 C1243 0.930 . S
H1301 C1245 0.929 . S
H1302 C1246 0.930 . S
H1303 C1247 0.930 . S
H1304 C1250 0.930 . S
H1305 C1253 0.929 . S
H1306 C1258 0.929 . S
H1307 C1259 0.930 . S
H1308 C1266 0.929 . S
H1309 C1267 0.930 . S
H1310 C1268 0.930 . S
H1311 C1269 0.930 . S
H1312 C1271 0.929 . S
H1313 C1272 0.930 . S
H1314 C1273 0.930 . S
H1315 C1274 0.930 . S
H1316 C1278 0.929 . S
H1317 C1280 0.930 . S
H1318 C1286 0.929 . S
H1319 C1287 0.930 . S
Li1320 N1337 1.990 . S
Li1320 O1380 1.956 . S
Li1320 O1381 1.970 . S
Li1320 O1382 1.961 . S
Li1321 N1345 1.990 . S
Li1321 O1380 1.970 . S
Li1321 O1381 1.956 . S
Li1321 O1383 1.961 . S
Li1322 N1367 1.990 . S
Li1322 O1380 1.961 . S
Li1322 O1382 1.956 . S
Li1322 O1383 1.970 . S
Li1323 N1373 1.990 . S
Li1323 O1381 1.961 . S
Li1323 O1382 1.970 . S
Li1323 O1383 1.956 . S
C1324 C1326 1.348 . S
C1324 C1327 1.356 . S
C1324 O1380 1.325 . S
N1325 C1328 1.314 . S
N1325 C1329 1.279 . S
C1326 C1324 1.348 . S
C1326 C1328 1.353 . S
C1326 H1384 0.929 . S
C1327 C1324 1.356 . S
C1327 C1329 1.358 . S
C1327 H1385 0.930 . S
C1328 N1325 1.314 . S
C1328 C1326 1.353 . S
C1328 H1386 0.930 . S
C1329 N1325 1.279 . S
C1329 C1327 1.358 . S
C1329 H1387 0.930 . S
C1330 C1333 1.348 . S
C1330 C1334 1.356 . S
C1330 O1381 1.325 . S
C1331 N1332 1.279 . S
C1331 C1334 1.358 . S
C1331 H1388 0.930 . S
N1332 C1331 1.279 . S
N1332 C1335 1.314 . S
C1333 C1330 1.348 . S
C1333 C1335 1.353 . S
C1333 H1389 0.929 . S
C1334 C1330 1.356 . S
C1334 C1331 1.358 . S
C1334 H1390 0.930 . S
C1335 N1332 1.314 . S
C1335 C1333 1.353 . S
C1335 H1391 0.930 . S
C1336 N1337 1.314 . S
C1336 C1341 1.353 . S
C1336 H1342 0.930 . S
N1337 Li1320 1.990 . S
N1337 C1336 1.314 . S
N1337 C1339 1.279 . S
C1338 C1339 1.358 . S
C1338 C1340 1.356 . S
C1338 H1392 0.930 . S
C1339 N1337 1.279 . S
C1339 C1338 1.358 . S
C1339 H1343 0.930 . S
C1340 C1338 1.356 . S
C1340 C1341 1.348 . S
C1341 C1336 1.353 . S
C1341 C1340 1.348 . S
C1341 H1393 0.929 . S
H1342 C1336 0.930 . S
H1343 C1339 0.930 . S
C1344 N1345 1.314 . S
C1344 C1346 1.353 . S
C1344 H1350 0.930 . S
N1345 Li1321 1.990 . S
N1345 C1344 1.314 . S
N1345 C1348 1.279 . S
C1346 C1344 1.353 . S
C1346 C1349 1.348 . S
C1346 H1394 0.929 . S
C1347 C1348 1.358 . S
C1347 C1349 1.356 . S
C1347 H1395 0.930 . S
C1348 N1345 1.279 . S
C1348 C1347 1.358 . S
C1348 H1351 0.930 . S
C1349 C1346 1.348 . S
C1349 C1347 1.356 . S
H1350 C1344 0.930 . S
H1351 C1348 0.930 . S
C1352 C1354 1.348 . S
C1352 C1355 1.356 . S
C1352 O1382 1.325 . S
N1353 C1356 1.314 . S
N1353 C1357 1.279 . S
C1354 C1352 1.348 . S
C1354 C1356 1.353 . S
C1354 H1396 0.929 . S
C1355 C1352 1.356 . S
C1355 C1357 1.358 . S
C1355 H1397 0.930 . S
C1356 N1353 1.314 . S
C1356 C1354 1.353 . S
C1356 H1398 0.930 . S
C1357 N1353 1.279 . S
C1357 C1355 1.358 . S
C1357 H1399 0.930 . S
C1358 C1359 1.348 . S
C1358 C1360 1.356 . S
C1358 O1383 1.325 . S
C1359 C1358 1.348 . S
C1359 C1361 1.353 . S
C1359 H1400 0.929 . S
C1360 C1358 1.356 . S
C1360 C1362 1.358 . S
C1360 H1401 0.930 . S
C1361 C1359 1.353 . S
C1361 N1363 1.314 . S
C1361 H1402 0.930 . S
C1362 C1360 1.358 . S
C1362 N1363 1.279 . S
C1362 H1403 0.930 . S
N1363 C1361 1.314 . S
N1363 C1362 1.279 . S
C1364 C1366 1.353 . S
C1364 N1367 1.314 . S
C1364 H1370 0.930 . S
C1365 N1367 1.279 . S
C1365 C1368 1.358 . S
C1365 H1371 0.930 . S
C1366 C1364 1.353 . S
C1366 C1369 1.348 . S
C1366 H1404 0.929 . S
N1367 Li1322 1.990 . S
N1367 C1364 1.314 . S
N1367 C1365 1.279 . S
C1368 C1365 1.358 . S
C1368 C1369 1.356 . S
C1368 H1405 0.930 . S
C1369 C1366 1.348 . S
C1369 C1368 1.356 . S
H1370 C1364 0.930 . S
H1371 C1365 0.930 . S
C1372 N1373 1.314 . S
C1372 C1374 1.353 . S
C1372 H1378 0.930 . S
N1373 Li1323 1.990 . S
N1373 C1372 1.314 . S
N1373 C1376 1.279 . S
C1374 C1372 1.353 . S
C1374 C1377 1.348 . S
C1374 H1406 0.929 . S
C1375 C1376 1.358 . S
C1375 C1377 1.356 . S
C1375 H1407 0.930 . S
C1376 N1373 1.279 . S
C1376 C1375 1.358 . S
C1376 H1379 0.930 . S
C1377 C1374 1.348 . S
C1377 C1375 1.356 . S
H1378 C1372 0.930 . S
H1379 C1376 0.930 . S
O1380 Li1320 1.956 . S
O1380 Li1321 1.970 . S
O1380 Li1322 1.961 . S
O1380 C1324 1.325 . S
O1381 Li1320 1.970 . S
O1381 Li1321 1.956 . S
O1381 Li1323 1.961 . S
O1381 C1330 1.325 . S
O1382 Li1320 1.961 . S
O1382 Li1322 1.956 . S
O1382 Li1323 1.970 . S
O1382 C1352 1.325 . S
O1383 Li1321 1.961 . S
O1383 Li1322 1.970 . S
O1383 Li1323 1.956 . S
O1383 C1358 1.325 . S
H1384 C1326 0.929 . S
H1385 C1327 0.930 . S
H1386 C1328 0.930 . S
H1387 C1329 0.930 . S
H1388 C1331 0.930 . S
H1389 C1333 0.929 . S
H1390 C1334 0.930 . S
H1391 C1335 0.930 . S
H1392 C1338 0.930 . S
H1393 C1341 0.929 . S
H1394 C1346 0.929 . S
H1395 C1347 0.930 . S
H1396 C1354 0.929 . S
H1397 C1355 0.930 . S
H1398 C1356 0.930 . S
H1399 C1357 0.930 . S
H1400 C1359 0.929 . S
H1401 C1360 0.930 . S
H1402 C1361 0.930 . S
H1403 C1362 0.930 . S
H1404 C1366 0.929 . S
H1405 C1368 0.930 . S
H1406 C1374 0.929 . S
H1407 C1375 0.930 . S
Li1408 N1425 1.990 . S
Li1408 O1468 1.956 . S
Li1408 O1469 1.970 . S
Li1408 O1470 1.961 . S
Li1409 N1433 1.990 . S
Li1409 O1468 1.970 . S
Li1409 O1469 1.956 . S
Li1409 O1471 1.961 . S
Li1410 N1455 1.990 . S
Li1410 O1468 1.961 . S
Li1410 O1470 1.956 . S
Li1410 O1471 1.970 . S
Li1411 N1461 1.990 . S
Li1411 O1469 1.961 . S
Li1411 O1470 1.970 . S
Li1411 O1471 1.956 . S
C1412 C1414 1.348 . S
C1412 C1415 1.356 . S
C1412 O1468 1.325 . S
N1413 C1416 1.314 . S
N1413 C1417 1.279 . S
C1414 C1412 1.348 . S
C1414 C1416 1.353 . S
C1414 H1472 0.929 . S
C1415 C1412 1.356 . S
C1415 C1417 1.358 . S
C1415 H1473 0.930 . S
C1416 N1413 1.314 . S
C1416 C1414 1.353 . S
C1416 H1474 0.930 . S
C1417 N1413 1.279 . S
C1417 C1415 1.358 . S
C1417 H1475 0.930 . S
C1418 C1421 1.348 . S
C1418 C1422 1.356 . S
C1418 O1469 1.325 . S
C1419 N1420 1.279 . S
C1419 C1422 1.358 . S
C1419 H1476 0.930 . S
N1420 C1419 1.279 . S
N1420 C1423 1.314 . S
C1421 C1418 1.348 . S
C1421 C1423 1.353 . S
C1421 H1477 0.929 . S
C1422 C1418 1.356 . S
C1422 C1419 1.358 . S
C1422 H1478 0.930 . S
C1423 N1420 1.314 . S
C1423 C1421 1.353 . S
C1423 H1479 0.930 . S
C1424 N1425 1.314 . S
C1424 C1429 1.353 . S
C1424 H1430 0.930 . S
N1425 Li1408 1.990 . S
N1425 C1424 1.314 . S
N1425 C1427 1.279 . S
C1426 C1427 1.358 . S
C1426 C1428 1.356 . S
C1426 H1480 0.930 . S
C1427 N1425 1.279 . S
C1427 C1426 1.358 . S
C1427 H1431 0.930 . S
C1428 C1426 1.356 . S
C1428 C1429 1.348 . S
C1429 C1424 1.353 . S
C1429 C1428 1.348 . S
C1429 H1481 0.929 . S
H1430 C1424 0.930 . S
H1431 C1427 0.930 . S
C1432 N1433 1.314 . S
C1432 C1434 1.353 . S
C1432 H1438 0.930 . S
N1433 Li1409 1.990 . S
N1433 C1432 1.314 . S
N1433 C1436 1.279 . S
C1434 C1432 1.353 . S
C1434 C1437 1.348 . S
C1434 H1482 0.929 . S
C1435 C1436 1.358 . S
C1435 C1437 1.356 . S
C1435 H1483 0.930 . S
C1436 N1433 1.279 . S
C1436 C1435 1.358 . S
C1436 H1439 0.930 . S
C1437 C1434 1.348 . S
C1437 C1435 1.356 . S
H1438 C1432 0.930 . S
H1439 C1436 0.930 . S
C1440 C1442 1.348 . S
C1440 C1443 1.356 . S
C1440 O1470 1.325 . S
N1441 C1444 1.314 . S
N1441 C1445 1.279 . S
C1442 C1440 1.348 . S
C1442 C1444 1.353 . S
C1442 H1484 0.929 . S
C1443 C1440 1.356 . S
C1443 C1445 1.358 . S
C1443 H1485 0.930 . S
C1444 N1441 1.314 . S
C1444 C1442 1.353 . S
C1444 H1486 0.930 . S
C1445 N1441 1.279 . S
C1445 C1443 1.358 . S
C1445 H1487 0.930 . S
C1446 C1447 1.348 . S
C1446 C1448 1.356 . S
C1446 O1471 1.325 . S
C1447 C1446 1.348 . S
C1447 C1449 1.353 . S
C1447 H1488 0.929 . S
C1448 C1446 1.356 . S
C1448 C1450 1.358 . S
C1448 H1489 0.930 . S
C1449 C1447 1.353 . S
C1449 N1451 1.314 . S
C1449 H1490 0.930 . S
C1450 C1448 1.358 . S
C1450 N1451 1.279 . S
C1450 H1491 0.930 . S
N1451 C1449 1.314 . S
N1451 C1450 1.279 . S
C1452 C1454 1.353 . S
C1452 N1455 1.314 . S
C1452 H1458 0.930 . S
C1453 N1455 1.279 . S
C1453 C1456 1.358 . S
C1453 H1459 0.930 . S
C1454 C1452 1.353 . S
C1454 C1457 1.348 . S
C1454 H1492 0.929 . S
N1455 Li1410 1.990 . S
N1455 C1452 1.314 . S
N1455 C1453 1.279 . S
C1456 C1453 1.358 . S
C1456 C1457 1.356 . S
C1456 H1493 0.930 . S
C1457 C1454 1.348 . S
C1457 C1456 1.356 . S
H1458 C1452 0.930 . S
H1459 C1453 0.930 . S
C1460 N1461 1.314 . S
C1460 C1462 1.353 . S
C1460 H1466 0.930 . S
N1461 Li1411 1.990 . S
N1461 C1460 1.314 . S
N1461 C1464 1.279 . S
C1462 C1460 1.353 . S
C1462 C1465 1.348 . S
C1462 H1494 0.929 . S
C1463 C1464 1.358 . S
C1463 C1465 1.356 . S
C1463 H1495 0.930 . S
C1464 N1461 1.279 . S
C1464 C1463 1.358 . S
C1464 H1467 0.930 . S
C1465 C1462 1.348 . S
C1465 C1463 1.356 . S
H1466 C1460 0.930 . S
H1467 C1464 0.930 . S
O1468 Li1408 1.956 . S
O1468 Li1409 1.970 . S
O1468 Li1410 1.961 . S
O1468 C1412 1.325 . S
O1469 Li1408 1.970 . S
O1469 Li1409 1.956 . S
O1469 Li1411 1.961 . S
O1469 C1418 1.325 . S
O1470 Li1408 1.961 . S
O1470 Li1410 1.956 . S
O1470 Li1411 1.970 . S
O1470 C1440 1.325 . S
O1471 Li1409 1.961 . S
O1471 Li1410 1.970 . S
O1471 Li1411 1.956 . S
O1471 C1446 1.325 . S
H1472 C1414 0.929 . S
H1473 C1415 0.930 . S
H1474 C1416 0.930 . S
H1475 C1417 0.930 . S
H1476 C1419 0.930 . S
H1477 C1421 0.929 . S
H1478 C1422 0.930 . S
H1479 C1423 0.930 . S
H1480 C1426 0.930 . S
H1481 C1429 0.929 . S
H1482 C1434 0.929 . S
H1483 C1435 0.930 . S
H1484 C1442 0.929 . S
H1485 C1443 0.930 . S
H1486 C1444 0.930 . S
H1487 C1445 0.930 . S
H1488 C1447 0.929 . S
H1489 C1448 0.930 . S
H1490 C1449 0.930 . S
H1491 C1450 0.930 . S
H1492 C1454 0.929 . S
H1493 C1456 0.930 . S
H1494 C1462 0.929 . S
H1495 C1463 0.930 . S
Li1496 N1513 1.990 . S
Li1496 O1556 1.956 . S
Li1496 O1557 1.970 . S
Li1496 O1558 1.961 . S
Li1497 N1521 1.990 . S
Li1497 O1556 1.970 . S
Li1497 O1557 1.956 . S
Li1497 O1559 1.961 . S
Li1498 N1543 1.990 . S
Li1498 O1556 1.961 . S
Li1498 O1558 1.956 . S
Li1498 O1559 1.970 . S
Li1499 N1549 1.990 . S
Li1499 O1557 1.961 . S
Li1499 O1558 1.970 . S
Li1499 O1559 1.956 . S
C1500 C1502 1.348 . S
C1500 C1503 1.356 . S
C1500 O1556 1.325 . S
N1501 C1504 1.314 . S
N1501 C1505 1.279 . S
C1502 C1500 1.348 . S
C1502 C1504 1.353 . S
C1502 H1560 0.929 . S
C1503 C1500 1.356 . S
C1503 C1505 1.358 . S
C1503 H1561 0.930 . S
C1504 N1501 1.314 . S
C1504 C1502 1.353 . S
C1504 H1562 0.930 . S
C1505 N1501 1.279 . S
C1505 C1503 1.358 . S
C1505 H1563 0.930 . S
C1506 C1509 1.348 . S
C1506 C1510 1.356 . S
C1506 O1557 1.325 . S
C1507 N1508 1.279 . S
C1507 C1510 1.358 . S
C1507 H1564 0.930 . S
N1508 C1507 1.279 . S
N1508 C1511 1.314 . S
C1509 C1506 1.348 . S
C1509 C1511 1.353 . S
C1509 H1565 0.929 . S
C1510 C1506 1.356 . S
C1510 C1507 1.358 . S
C1510 H1566 0.930 . S
C1511 N1508 1.314 . S
C1511 C1509 1.353 . S
C1511 H1567 0.930 . S
C1512 N1513 1.314 . S
C1512 C1517 1.353 . S
C1512 H1518 0.930 . S
N1513 Li1496 1.990 . S
N1513 C1512 1.314 . S
N1513 C1515 1.279 . S
C1514 C1515 1.358 . S
C1514 C1516 1.356 . S
C1514 H1568 0.930 . S
C1515 N1513 1.279 . S
C1515 C1514 1.358 . S
C1515 H1519 0.930 . S
C1516 C1514 1.356 . S
C1516 C1517 1.348 . S
C1517 C1512 1.353 . S
C1517 C1516 1.348 . S
C1517 H1569 0.929 . S
H1518 C1512 0.930 . S
H1519 C1515 0.930 . S
C1520 N1521 1.314 . S
C1520 C1522 1.353 . S
C1520 H1526 0.930 . S
N1521 Li1497 1.990 . S
N1521 C1520 1.314 . S
N1521 C1524 1.279 . S
C1522 C1520 1.353 . S
C1522 C1525 1.348 . S
C1522 H1570 0.929 . S
C1523 C1524 1.358 . S
C1523 C1525 1.356 . S
C1523 H1571 0.930 . S
C1524 N1521 1.279 . S
C1524 C1523 1.358 . S
C1524 H1527 0.930 . S
C1525 C1522 1.348 . S
C1525 C1523 1.356 . S
H1526 C1520 0.930 . S
H1527 C1524 0.930 . S
C1528 C1530 1.348 . S
C1528 C1531 1.356 . S
C1528 O1558 1.325 . S
N1529 C1532 1.314 . S
N1529 C1533 1.279 . S
C1530 C1528 1.348 . S
C1530 C1532 1.353 . S
C1530 H1572 0.929 . S
C1531 C1528 1.356 . S
C1531 C1533 1.358 . S
C1531 H1573 0.930 . S
C1532 N1529 1.314 . S
C1532 C1530 1.353 . S
C1532 H1574 0.930 . S
C1533 N1529 1.279 . S
C1533 C1531 1.358 . S
C1533 H1575 0.930 . S
C1534 C1535 1.348 . S
C1534 C1536 1.356 . S
C1534 O1559 1.325 . S
C1535 C1534 1.348 . S
C1535 C1537 1.353 . S
C1535 H1576 0.929 . S
C1536 C1534 1.356 . S
C1536 C1538 1.358 . S
C1536 H1577 0.930 . S
C1537 C1535 1.353 . S
C1537 N1539 1.314 . S
C1537 H1578 0.930 . S
C1538 C1536 1.358 . S
C1538 N1539 1.279 . S
C1538 H1579 0.930 . S
N1539 C1537 1.314 . S
N1539 C1538 1.279 . S
C1540 C1542 1.353 . S
C1540 N1543 1.314 . S
C1540 H1546 0.930 . S
C1541 N1543 1.279 . S
C1541 C1544 1.358 . S
C1541 H1547 0.930 . S
C1542 C1540 1.353 . S
C1542 C1545 1.348 . S
C1542 H1580 0.929 . S
N1543 Li1498 1.990 . S
N1543 C1540 1.314 . S
N1543 C1541 1.279 . S
C1544 C1541 1.358 . S
C1544 C1545 1.356 . S
C1544 H1581 0.930 . S
C1545 C1542 1.348 . S
C1545 C1544 1.356 . S
H1546 C1540 0.930 . S
H1547 C1541 0.930 . S
C1548 N1549 1.314 . S
C1548 C1550 1.353 . S
C1548 H1554 0.930 . S
N1549 Li1499 1.990 . S
N1549 C1548 1.314 . S
N1549 C1552 1.279 . S
C1550 C1548 1.353 . S
C1550 C1553 1.348 . S
C1550 H1582 0.929 . S
C1551 C1552 1.358 . S
C1551 C1553 1.356 . S
C1551 H1583 0.930 . S
C1552 N1549 1.279 . S
C1552 C1551 1.358 . S
C1552 H1555 0.930 . S
C1553 C1550 1.348 . S
C1553 C1551 1.356 . S
H1554 C1548 0.930 . S
H1555 C1552 0.930 . S
O1556 Li1496 1.956 . S
O1556 Li1497 1.970 . S
O1556 Li1498 1.961 . S
O1556 C1500 1.325 . S
O1557 Li1496 1.970 . S
O1557 Li1497 1.956 . S
O1557 Li1499 1.961 . S
O1557 C1506 1.325 . S
O1558 Li1496 1.961 . S
O1558 Li1498 1.956 . S
O1558 Li1499 1.970 . S
O1558 C1528 1.325 . S
O1559 Li1497 1.961 . S
O1559 Li1498 1.970 . S
O1559 Li1499 1.956 . S
O1559 C1534 1.325 . S
H1560 C1502 0.929 . S
H1561 C1503 0.930 . S
H1562 C1504 0.930 . S
H1563 C1505 0.930 . S
H1564 C1507 0.930 . S
H1565 C1509 0.929 . S
H1566 C1510 0.930 . S
H1567 C1511 0.930 . S
H1568 C1514 0.930 . S
H1569 C1517 0.929 . S
H1570 C1522 0.929 . S
H1571 C1523 0.930 . S
H1572 C1530 0.929 . S
H1573 C1531 0.930 . S
H1574 C1532 0.930 . S
H1575 C1533 0.930 . S
H1576 C1535 0.929 . S
H1577 C1536 0.930 . S
H1578 C1537 0.930 . S
H1579 C1538 0.930 . S
H1580 C1542 0.929 . S
H1581 C1544 0.930 . S
H1582 C1550 0.929 . S
H1583 C1551 0.930 . S
Li1584 N1601 1.990 . S
Li1584 O1644 1.956 . S
Li1584 O1645 1.970 . S
Li1584 O1646 1.961 . S
Li1585 N1609 1.990 . S
Li1585 O1644 1.970 . S
Li1585 O1645 1.956 . S
Li1585 O1647 1.961 . S
Li1586 N1631 1.990 . S
Li1586 O1644 1.961 . S
Li1586 O1646 1.956 . S
Li1586 O1647 1.970 . S
Li1587 N1637 1.990 . S
Li1587 O1645 1.961 . S
Li1587 O1646 1.970 . S
Li1587 O1647 1.956 . S
C1588 C1590 1.348 . S
C1588 C1591 1.356 . S
C1588 O1644 1.325 . S
N1589 C1592 1.314 . S
N1589 C1593 1.279 . S
C1590 C1588 1.348 . S
C1590 C1592 1.353 . S
C1590 H1648 0.929 . S
C1591 C1588 1.356 . S
C1591 C1593 1.358 . S
C1591 H1649 0.930 . S
C1592 N1589 1.314 . S
C1592 C1590 1.353 . S
C1592 H1650 0.930 . S
C1593 N1589 1.279 . S
C1593 C1591 1.358 . S
C1593 H1651 0.930 . S
C1594 C1597 1.348 . S
C1594 C1598 1.356 . S
C1594 O1645 1.325 . S
C1595 N1596 1.279 . S
C1595 C1598 1.358 . S
C1595 H1652 0.930 . S
N1596 C1595 1.279 . S
N1596 C1599 1.314 . S
C1597 C1594 1.348 . S
C1597 C1599 1.353 . S
C1597 H1653 0.929 . S
C1598 C1594 1.356 . S
C1598 C1595 1.358 . S
C1598 H1654 0.930 . S
C1599 N1596 1.314 . S
C1599 C1597 1.353 . S
C1599 H1655 0.930 . S
C1600 N1601 1.314 . S
C1600 C1605 1.353 . S
C1600 H1606 0.930 . S
N1601 Li1584 1.990 . S
N1601 C1600 1.314 . S
N1601 C1603 1.279 . S
C1602 C1603 1.358 . S
C1602 C1604 1.356 . S
C1602 H1656 0.930 . S
C1603 N1601 1.279 . S
C1603 C1602 1.358 . S
C1603 H1607 0.930 . S
C1604 C1602 1.356 . S
C1604 C1605 1.348 . S
C1605 C1600 1.353 . S
C1605 C1604 1.348 . S
C1605 H1657 0.929 . S
H1606 C1600 0.930 . S
H1607 C1603 0.930 . S
C1608 N1609 1.314 . S
C1608 C1610 1.353 . S
C1608 H1614 0.930 . S
N1609 Li1585 1.990 . S
N1609 C1608 1.314 . S
N1609 C1612 1.279 . S
C1610 C1608 1.353 . S
C1610 C1613 1.348 . S
C1610 H1658 0.929 . S
C1611 C1612 1.358 . S
C1611 C1613 1.356 . S
C1611 H1659 0.930 . S
C1612 N1609 1.279 . S
C1612 C1611 1.358 . S
C1612 H1615 0.930 . S
C1613 C1610 1.348 . S
C1613 C1611 1.356 . S
H1614 C1608 0.930 . S
H1615 C1612 0.930 . S
C1616 C1618 1.348 . S
C1616 C1619 1.356 . S
C1616 O1646 1.325 . S
N1617 C1620 1.314 . S
N1617 C1621 1.279 . S
C1618 C1616 1.348 . S
C1618 C1620 1.353 . S
C1618 H1660 0.929 . S
C1619 C1616 1.356 . S
C1619 C1621 1.358 . S
C1619 H1661 0.930 . S
C1620 N1617 1.314 . S
C1620 C1618 1.353 . S
C1620 H1662 0.930 . S
C1621 N1617 1.279 . S
C1621 C1619 1.358 . S
C1621 H1663 0.930 . S
C1622 C1623 1.348 . S
C1622 C1624 1.356 . S
C1622 O1647 1.325 . S
C1623 C1622 1.348 . S
C1623 C1625 1.353 . S
C1623 H1664 0.929 . S
C1624 C1622 1.356 . S
C1624 C1626 1.358 . S
C1624 H1665 0.930 . S
C1625 C1623 1.353 . S
C1625 N1627 1.314 . S
C1625 H1666 0.930 . S
C1626 C1624 1.358 . S
C1626 N1627 1.279 . S
C1626 H1667 0.930 . S
N1627 C1625 1.314 . S
N1627 C1626 1.279 . S
C1628 C1630 1.353 . S
C1628 N1631 1.314 . S
C1628 H1634 0.930 . S
C1629 N1631 1.279 . S
C1629 C1632 1.358 . S
C1629 H1635 0.930 . S
C1630 C1628 1.353 . S
C1630 C1633 1.348 . S
C1630 H1668 0.929 . S
N1631 Li1586 1.990 . S
N1631 C1628 1.314 . S
N1631 C1629 1.279 . S
C1632 C1629 1.358 . S
C1632 C1633 1.356 . S
C1632 H1669 0.930 . S
C1633 C1630 1.348 . S
C1633 C1632 1.356 . S
H1634 C1628 0.930 . S
H1635 C1629 0.930 . S
C1636 N1637 1.314 . S
C1636 C1638 1.353 . S
C1636 H1642 0.930 . S
N1637 Li1587 1.990 . S
N1637 C1636 1.314 . S
N1637 C1640 1.279 . S
C1638 C1636 1.353 . S
C1638 C1641 1.348 . S
C1638 H1670 0.929 . S
C1639 C1640 1.358 . S
C1639 C1641 1.356 . S
C1639 H1671 0.930 . S
C1640 N1637 1.279 . S
C1640 C1639 1.358 . S
C1640 H1643 0.930 . S
C1641 C1638 1.348 . S
C1641 C1639 1.356 . S
H1642 C1636 0.930 . S
H1643 C1640 0.930 . S
O1644 Li1584 1.956 . S
O1644 Li1585 1.970 . S
O1644 Li1586 1.961 . S
O1644 C1588 1.325 . S
O1645 Li1584 1.970 . S
O1645 Li1585 1.956 . S
O1645 Li1587 1.961 . S
O1645 C1594 1.325 . S
O1646 Li1584 1.961 . S
O1646 Li1586 1.956 . S
O1646 Li1587 1.970 . S
O1646 C1616 1.325 . S
O1647 Li1585 1.961 . S
O1647 Li1586 1.970 . S
O1647 Li1587 1.956 . S
O1647 C1622 1.325 . S
H1648 C1590 0.929 . S
H1649 C1591 0.930 . S
H1650 C1592 0.930 . S
H1651 C1593 0.930 . S
H1652 C1595 0.930 . S
H1653 C1597 0.929 . S
H1654 C1598 0.930 . S
H1655 C1599 0.930 . S
H1656 C1602 0.930 . S
H1657 C1605 0.929 . S
H1658 C1610 0.929 . S
H1659 C1611 0.930 . S
H1660 C1618 0.929 . S
H1661 C1619 0.930 . S
H1662 C1620 0.930 . S
H1663 C1621 0.930 . S
H1664 C1623 0.929 . S
H1665 C1624 0.930 . S
H1666 C1625 0.930 . S
H1667 C1626 0.930 . S
H1668 C1630 0.929 . S
H1669 C1632 0.930 . S
H1670 C1638 0.929 . S
H1671 C1639 0.930 . S
Li1672 N1689 1.990 . S
Li1672 O1732 1.956 . S
Li1672 O1733 1.970 . S
Li1672 O1734 1.961 . S
Li1673 N1697 1.990 . S
Li1673 O1732 1.970 . S
Li1673 O1733 1.956 . S
Li1673 O1735 1.961 . S
Li1674 N1719 1.990 . S
Li1674 O1732 1.961 . S
Li1674 O1734 1.956 . S
Li1674 O1735 1.970 . S
Li1675 N1725 1.990 . S
Li1675 O1733 1.961 . S
Li1675 O1734 1.970 . S
Li1675 O1735 1.956 . S
C1676 C1678 1.348 . S
C1676 C1679 1.356 . S
C1676 O1732 1.325 . S
N1677 C1680 1.314 . S
N1677 C1681 1.279 . S
C1678 C1676 1.348 . S
C1678 C1680 1.353 . S
C1678 H1736 0.929 . S
C1679 C1676 1.356 . S
C1679 C1681 1.358 . S
C1679 H1737 0.930 . S
C1680 N1677 1.314 . S
C1680 C1678 1.353 . S
C1680 H1738 0.930 . S
C1681 N1677 1.279 . S
C1681 C1679 1.358 . S
C1681 H1739 0.930 . S
C1682 C1685 1.348 . S
C1682 C1686 1.356 . S
C1682 O1733 1.325 . S
C1683 N1684 1.279 . S
C1683 C1686 1.358 . S
C1683 H1740 0.930 . S
N1684 C1683 1.279 . S
N1684 C1687 1.314 . S
C1685 C1682 1.348 . S
C1685 C1687 1.353 . S
C1685 H1741 0.929 . S
C1686 C1682 1.356 . S
C1686 C1683 1.358 . S
C1686 H1742 0.930 . S
C1687 N1684 1.314 . S
C1687 C1685 1.353 . S
C1687 H1743 0.930 . S
C1688 N1689 1.314 . S
C1688 C1693 1.353 . S
C1688 H1694 0.930 . S
N1689 Li1672 1.990 . S
N1689 C1688 1.314 . S
N1689 C1691 1.279 . S
C1690 C1691 1.358 . S
C1690 C1692 1.356 . S
C1690 H1744 0.930 . S
C1691 N1689 1.279 . S
C1691 C1690 1.358 . S
C1691 H1695 0.930 . S
C1692 C1690 1.356 . S
C1692 C1693 1.348 . S
C1693 C1688 1.353 . S
C1693 C1692 1.348 . S
C1693 H1745 0.929 . S
H1694 C1688 0.930 . S
H1695 C1691 0.930 . S
C1696 N1697 1.314 . S
C1696 C1698 1.353 . S
C1696 H1702 0.930 . S
N1697 Li1673 1.990 . S
N1697 C1696 1.314 . S
N1697 C1700 1.279 . S
C1698 C1696 1.353 . S
C1698 C1701 1.348 . S
C1698 H1746 0.929 . S
C1699 C1700 1.358 . S
C1699 C1701 1.356 . S
C1699 H1747 0.930 . S
C1700 N1697 1.279 . S
C1700 C1699 1.358 . S
C1700 H1703 0.930 . S
C1701 C1698 1.348 . S
C1701 C1699 1.356 . S
H1702 C1696 0.930 . S
H1703 C1700 0.930 . S
C1704 C1706 1.348 . S
C1704 C1707 1.356 . S
C1704 O1734 1.325 . S
N1705 C1708 1.314 . S
N1705 C1709 1.279 . S
C1706 C1704 1.348 . S
C1706 C1708 1.353 . S
C1706 H1748 0.929 . S
C1707 C1704 1.356 . S
C1707 C1709 1.358 . S
C1707 H1749 0.930 . S
C1708 N1705 1.314 . S
C1708 C1706 1.353 . S
C1708 H1750 0.930 . S
C1709 N1705 1.279 . S
C1709 C1707 1.358 . S
C1709 H1751 0.930 . S
C1710 C1711 1.348 . S
C1710 C1712 1.356 . S
C1710 O1735 1.325 . S
C1711 C1710 1.348 . S
C1711 C1713 1.353 . S
C1711 H1752 0.929 . S
C1712 C1710 1.356 . S
C1712 C1714 1.358 . S
C1712 H1753 0.930 . S
C1713 C1711 1.353 . S
C1713 N1715 1.314 . S
C1713 H1754 0.930 . S
C1714 C1712 1.358 . S
C1714 N1715 1.279 . S
C1714 H1755 0.930 . S
N1715 C1713 1.314 . S
N1715 C1714 1.279 . S
C1716 C1718 1.353 . S
C1716 N1719 1.314 . S
C1716 H1722 0.930 . S
C1717 N1719 1.279 . S
C1717 C1720 1.358 . S
C1717 H1723 0.930 . S
C1718 C1716 1.353 . S
C1718 C1721 1.348 . S
C1718 H1756 0.929 . S
N1719 Li1674 1.990 . S
N1719 C1716 1.314 . S
N1719 C1717 1.279 . S
C1720 C1717 1.358 . S
C1720 C1721 1.356 . S
C1720 H1757 0.930 . S
C1721 C1718 1.348 . S
C1721 C1720 1.356 . S
H1722 C1716 0.930 . S
H1723 C1717 0.930 . S
C1724 N1725 1.314 . S
C1724 C1726 1.353 . S
C1724 H1730 0.930 . S
N1725 Li1675 1.990 . S
N1725 C1724 1.314 . S
N1725 C1728 1.279 . S
C1726 C1724 1.353 . S
C1726 C1729 1.348 . S
C1726 H1758 0.929 . S
C1727 C1728 1.358 . S
C1727 C1729 1.356 . S
C1727 H1759 0.930 . S
C1728 N1725 1.279 . S
C1728 C1727 1.358 . S
C1728 H1731 0.930 . S
C1729 C1726 1.348 . S
C1729 C1727 1.356 . S
H1730 C1724 0.930 . S
H1731 C1728 0.930 . S
O1732 Li1672 1.956 . S
O1732 Li1673 1.970 . S
O1732 Li1674 1.961 . S
O1732 C1676 1.325 . S
O1733 Li1672 1.970 . S
O1733 Li1673 1.956 . S
O1733 Li1675 1.961 . S
O1733 C1682 1.325 . S
O1734 Li1672 1.961 . S
O1734 Li1674 1.956 . S
O1734 Li1675 1.970 . S
O1734 C1704 1.325 . S
O1735 Li1673 1.961 . S
O1735 Li1674 1.970 . S
O1735 Li1675 1.956 . S
O1735 C1710 1.325 . S
H1736 C1678 0.929 . S
H1737 C1679 0.930 . S
H1738 C1680 0.930 . S
H1739 C1681 0.930 . S
H1740 C1683 0.930 . S
H1741 C1685 0.929 . S
H1742 C1686 0.930 . S
H1743 C1687 0.930 . S
H1744 C1690 0.930 . S
H1745 C1693 0.929 . S
H1746 C1698 0.929 . S
H1747 C1699 0.930 . S
H1748 C1706 0.929 . S
H1749 C1707 0.930 . S
H1750 C1708 0.930 . S
H1751 C1709 0.930 . S
H1752 C1711 0.929 . S
H1753 C1712 0.930 . S
H1754 C1713 0.930 . S
H1755 C1714 0.930 . S
H1756 C1718 0.929 . S
H1757 C1720 0.930 . S
H1758 C1726 0.929 . S
H1759 C1727 0.930 . S
Li1760 N1777 1.990 . S
Li1760 O1820 1.956 . S
Li1760 O1821 1.970 . S
Li1760 O1822 1.961 . S
Li1761 N1785 1.990 . S
Li1761 O1820 1.970 . S
Li1761 O1821 1.956 . S
Li1761 O1823 1.961 . S
Li1762 N1807 1.990 . S
Li1762 O1820 1.961 . S
Li1762 O1822 1.956 . S
Li1762 O1823 1.970 . S
Li1763 N1813 1.990 . S
Li1763 O1821 1.961 . S
Li1763 O1822 1.970 . S
Li1763 O1823 1.956 . S
C1764 C1766 1.348 . S
C1764 C1767 1.356 . S
C1764 O1820 1.325 . S
N1765 C1768 1.314 . S
N1765 C1769 1.279 . S
C1766 C1764 1.348 . S
C1766 C1768 1.353 . S
C1766 H1824 0.929 . S
C1767 C1764 1.356 . S
C1767 C1769 1.358 . S
C1767 H1825 0.930 . S
C1768 N1765 1.314 . S
C1768 C1766 1.353 . S
C1768 H1826 0.930 . S
C1769 N1765 1.279 . S
C1769 C1767 1.358 . S
C1769 H1827 0.930 . S
C1770 C1773 1.348 . S
C1770 C1774 1.356 . S
C1770 O1821 1.325 . S
C1771 N1772 1.279 . S
C1771 C1774 1.358 . S
C1771 H1828 0.930 . S
N1772 C1771 1.279 . S
N1772 C1775 1.314 . S
C1773 C1770 1.348 . S
C1773 C1775 1.353 . S
C1773 H1829 0.929 . S
C1774 C1770 1.356 . S
C1774 C1771 1.358 . S
C1774 H1830 0.930 . S
C1775 N1772 1.314 . S
C1775 C1773 1.353 . S
C1775 H1831 0.930 . S
C1776 N1777 1.314 . S
C1776 C1781 1.353 . S
C1776 H1782 0.930 . S
N1777 Li1760 1.990 . S
N1777 C1776 1.314 . S
N1777 C1779 1.279 . S
C1778 C1779 1.358 . S
C1778 C1780 1.356 . S
C1778 H1832 0.930 . S
C1779 N1777 1.279 . S
C1779 C1778 1.358 . S
C1779 H1783 0.930 . S
C1780 C1778 1.356 . S
C1780 C1781 1.348 . S
C1781 C1776 1.353 . S
C1781 C1780 1.348 . S
C1781 H1833 0.929 . S
H1782 C1776 0.930 . S
H1783 C1779 0.930 . S
C1784 N1785 1.314 . S
C1784 C1786 1.353 . S
C1784 H1790 0.930 . S
N1785 Li1761 1.990 . S
N1785 C1784 1.314 . S
N1785 C1788 1.279 . S
C1786 C1784 1.353 . S
C1786 C1789 1.348 . S
C1786 H1834 0.929 . S
C1787 C1788 1.358 . S
C1787 C1789 1.356 . S
C1787 H1835 0.930 . S
C1788 N1785 1.279 . S
C1788 C1787 1.358 . S
C1788 H1791 0.930 . S
C1789 C1786 1.348 . S
C1789 C1787 1.356 . S
H1790 C1784 0.930 . S
H1791 C1788 0.930 . S
C1792 C1794 1.348 . S
C1792 C1795 1.356 . S
C1792 O1822 1.325 . S
N1793 C1796 1.314 . S
N1793 C1797 1.279 . S
C1794 C1792 1.348 . S
C1794 C1796 1.353 . S
C1794 H1836 0.929 . S
C1795 C1792 1.356 . S
C1795 C1797 1.358 . S
C1795 H1837 0.930 . S
C1796 N1793 1.314 . S
C1796 C1794 1.353 . S
C1796 H1838 0.930 . S
C1797 N1793 1.279 . S
C1797 C1795 1.358 . S
C1797 H1839 0.930 . S
C1798 C1799 1.348 . S
C1798 C1800 1.356 . S
C1798 O1823 1.325 . S
C1799 C1798 1.348 . S
C1799 C1801 1.353 . S
C1799 H1840 0.929 . S
C1800 C1798 1.356 . S
C1800 C1802 1.358 . S
C1800 H1841 0.930 . S
C1801 C1799 1.353 . S
C1801 N1803 1.314 . S
C1801 H1842 0.930 . S
C1802 C1800 1.358 . S
C1802 N1803 1.279 . S
C1802 H1843 0.930 . S
N1803 C1801 1.314 . S
N1803 C1802 1.279 . S
C1804 C1806 1.353 . S
C1804 N1807 1.314 . S
C1804 H1810 0.930 . S
C1805 N1807 1.279 . S
C1805 C1808 1.358 . S
C1805 H1811 0.930 . S
C1806 C1804 1.353 . S
C1806 C1809 1.348 . S
C1806 H1844 0.929 . S
N1807 Li1762 1.990 . S
N1807 C1804 1.314 . S
N1807 C1805 1.279 . S
C1808 C1805 1.358 . S
C1808 C1809 1.356 . S
C1808 H1845 0.930 . S
C1809 C1806 1.348 . S
C1809 C1808 1.356 . S
H1810 C1804 0.930 . S
H1811 C1805 0.930 . S
C1812 N1813 1.314 . S
C1812 C1814 1.353 . S
C1812 H1818 0.930 . S
N1813 Li1763 1.990 . S
N1813 C1812 1.314 . S
N1813 C1816 1.279 . S
C1814 C1812 1.353 . S
C1814 C1817 1.348 . S
C1814 H1846 0.929 . S
C1815 C1816 1.358 . S
C1815 C1817 1.356 . S
C1815 H1847 0.930 . S
C1816 N1813 1.279 . S
C1816 C1815 1.358 . S
C1816 H1819 0.930 . S
C1817 C1814 1.348 . S
C1817 C1815 1.356 . S
H1818 C1812 0.930 . S
H1819 C1816 0.930 . S
O1820 Li1760 1.956 . S
O1820 Li1761 1.970 . S
O1820 Li1762 1.961 . S
O1820 C1764 1.325 . S
O1821 Li1760 1.970 . S
O1821 Li1761 1.956 . S
O1821 Li1763 1.961 . S
O1821 C1770 1.325 . S
O1822 Li1760 1.961 . S
O1822 Li1762 1.956 . S
O1822 Li1763 1.970 . S
O1822 C1792 1.325 . S
O1823 Li1761 1.961 . S
O1823 Li1762 1.970 . S
O1823 Li1763 1.956 . S
O1823 C1798 1.325 . S
H1824 C1766 0.929 . S
H1825 C1767 0.930 . S
H1826 C1768 0.930 . S
H1827 C1769 0.930 . S
H1828 C1771 0.930 . S
H1829 C1773 0.929 . S
H1830 C1774 0.930 . S
H1831 C1775 0.930 . S
H1832 C1778 0.930 . S
H1833 C1781 0.929 . S
H1834 C1786 0.929 . S
H1835 C1787 0.930 . S
H1836 C1794 0.929 . S
H1837 C1795 0.930 . S
H1838 C1796 0.930 . S
H1839 C1797 0.930 . S
H1840 C1799 0.929 . S
H1841 C1800 0.930 . S
H1842 C1801 0.930 . S
H1843 C1802 0.930 . S
H1844 C1806 0.929 . S
H1845 C1808 0.930 . S
H1846 C1814 0.929 . S
H1847 C1815 0.930 . S
Li1848 N1865 1.990 . S
Li1848 O1908 1.956 . S
Li1848 O1909 1.970 . S
Li1848 O1910 1.961 . S
Li1849 N1873 1.990 . S
Li1849 O1908 1.970 . S
Li1849 O1909 1.956 . S
Li1849 O1911 1.961 . S
Li1850 N1895 1.990 . S
Li1850 O1908 1.961 . S
Li1850 O1910 1.956 . S
Li1850 O1911 1.970 . S
Li1851 N1901 1.990 . S
Li1851 O1909 1.961 . S
Li1851 O1910 1.970 . S
Li1851 O1911 1.956 . S
C1852 C1854 1.348 . S
C1852 C1855 1.356 . S
C1852 O1908 1.325 . S
N1853 C1856 1.314 . S
N1853 C1857 1.279 . S
C1854 C1852 1.348 . S
C1854 C1856 1.353 . S
C1854 H1912 0.929 . S
C1855 C1852 1.356 . S
C1855 C1857 1.358 . S
C1855 H1913 0.930 . S
C1856 N1853 1.314 . S
C1856 C1854 1.353 . S
C1856 H1914 0.930 . S
C1857 N1853 1.279 . S
C1857 C1855 1.358 . S
C1857 H1915 0.930 . S
C1858 C1861 1.348 . S
C1858 C1862 1.356 . S
C1858 O1909 1.325 . S
C1859 N1860 1.279 . S
C1859 C1862 1.358 . S
C1859 H1916 0.930 . S
N1860 C1859 1.279 . S
N1860 C1863 1.314 . S
C1861 C1858 1.348 . S
C1861 C1863 1.353 . S
C1861 H1917 0.929 . S
C1862 C1858 1.356 . S
C1862 C1859 1.358 . S
C1862 H1918 0.930 . S
C1863 N1860 1.314 . S
C1863 C1861 1.353 . S
C1863 H1919 0.930 . S
C1864 N1865 1.314 . S
C1864 C1869 1.353 . S
C1864 H1870 0.930 . S
N1865 Li1848 1.990 . S
N1865 C1864 1.314 . S
N1865 C1867 1.279 . S
C1866 C1867 1.358 . S
C1866 C1868 1.356 . S
C1866 H1920 0.930 . S
C1867 N1865 1.279 . S
C1867 C1866 1.358 . S
C1867 H1871 0.930 . S
C1868 C1866 1.356 . S
C1868 C1869 1.348 . S
C1869 C1864 1.353 . S
C1869 C1868 1.348 . S
C1869 H1921 0.929 . S
H1870 C1864 0.930 . S
H1871 C1867 0.930 . S
C1872 N1873 1.314 . S
C1872 C1874 1.353 . S
C1872 H1878 0.930 . S
N1873 Li1849 1.990 . S
N1873 C1872 1.314 . S
N1873 C1876 1.279 . S
C1874 C1872 1.353 . S
C1874 C1877 1.348 . S
C1874 H1922 0.929 . S
C1875 C1876 1.358 . S
C1875 C1877 1.356 . S
C1875 H1923 0.930 . S
C1876 N1873 1.279 . S
C1876 C1875 1.358 . S
C1876 H1879 0.930 . S
C1877 C1874 1.348 . S
C1877 C1875 1.356 . S
H1878 C1872 0.930 . S
H1879 C1876 0.930 . S
C1880 C1882 1.348 . S
C1880 C1883 1.356 . S
C1880 O1910 1.325 . S
N1881 C1884 1.314 . S
N1881 C1885 1.279 . S
C1882 C1880 1.348 . S
C1882 C1884 1.353 . S
C1882 H1924 0.929 . S
C1883 C1880 1.356 . S
C1883 C1885 1.358 . S
C1883 H1925 0.930 . S
C1884 N1881 1.314 . S
C1884 C1882 1.353 . S
C1884 H1926 0.930 . S
C1885 N1881 1.279 . S
C1885 C1883 1.358 . S
C1885 H1927 0.930 . S
C1886 C1887 1.348 . S
C1886 C1888 1.356 . S
C1886 O1911 1.325 . S
C1887 C1886 1.348 . S
C1887 C1889 1.353 . S
C1887 H1928 0.929 . S
C1888 C1886 1.356 . S
C1888 C1890 1.358 . S
C1888 H1929 0.930 . S
C1889 C1887 1.353 . S
C1889 N1891 1.314 . S
C1889 H1930 0.930 . S
C1890 C1888 1.358 . S
C1890 N1891 1.279 . S
C1890 H1931 0.930 . S
N1891 C1889 1.314 . S
N1891 C1890 1.279 . S
C1892 C1894 1.353 . S
C1892 N1895 1.314 . S
C1892 H1898 0.930 . S
C1893 N1895 1.279 . S
C1893 C1896 1.358 . S
C1893 H1899 0.930 . S
C1894 C1892 1.353 . S
C1894 C1897 1.348 . S
C1894 H1932 0.929 . S
N1895 Li1850 1.990 . S
N1895 C1892 1.314 . S
N1895 C1893 1.279 . S
C1896 C1893 1.358 . S
C1896 C1897 1.356 . S
C1896 H1933 0.930 . S
C1897 C1894 1.348 . S
C1897 C1896 1.356 . S
H1898 C1892 0.930 . S
H1899 C1893 0.930 . S
C1900 N1901 1.314 . S
C1900 C1902 1.353 . S
C1900 H1906 0.930 . S
N1901 Li1851 1.990 . S
N1901 C1900 1.314 . S
N1901 C1904 1.279 . S
C1902 C1900 1.353 . S
C1902 C1905 1.348 . S
C1902 H1934 0.929 . S
C1903 C1904 1.358 . S
C1903 C1905 1.356 . S
C1903 H1935 0.930 . S
C1904 N1901 1.279 . S
C1904 C1903 1.358 . S
C1904 H1907 0.930 . S
C1905 C1902 1.348 . S
C1905 C1903 1.356 . S
H1906 C1900 0.930 . S
H1907 C1904 0.930 . S
O1908 Li1848 1.956 . S
O1908 Li1849 1.970 . S
O1908 Li1850 1.961 . S
O1908 C1852 1.325 . S
O1909 Li1848 1.970 . S
O1909 Li1849 1.956 . S
O1909 Li1851 1.961 . S
O1909 C1858 1.325 . S
O1910 Li1848 1.961 . S
O1910 Li1850 1.956 . S
O1910 Li1851 1.970 . S
O1910 C1880 1.325 . S
O1911 Li1849 1.961 . S
O1911 Li1850 1.970 . S
O1911 Li1851 1.956 . S
O1911 C1886 1.325 . S
H1912 C1854 0.929 . S
H1913 C1855 0.930 . S
H1914 C1856 0.930 . S
H1915 C1857 0.930 . S
H1916 C1859 0.930 . S
H1917 C1861 0.929 . S
H1918 C1862 0.930 . S
H1919 C1863 0.930 . S
H1920 C1866 0.930 . S
H1921 C1869 0.929 . S
H1922 C1874 0.929 . S
H1923 C1875 0.930 . S
H1924 C1882 0.929 . S
H1925 C1883 0.930 . S
H1926 C1884 0.930 . S
H1927 C1885 0.930 . S
H1928 C1887 0.929 . S
H1929 C1888 0.930 . S
H1930 C1889 0.930 . S
H1931 C1890 0.930 . S
H1932 C1894 0.929 . S
H1933 C1896 0.930 . S
H1934 C1902 0.929 . S
H1935 C1903 0.930 . S
Li1936 N1953 1.990 . S
Li1936 O1996 1.956 . S
Li1936 O1997 1.970 . S
Li1936 O1998 1.961 . S
Li1937 N1961 1.990 . S
Li1937 O1996 1.970 . S
Li1937 O1997 1.956 . S
Li1937 O1999 1.961 . S
Li1938 N1983 1.990 . S
Li1938 O1996 1.961 . S
Li1938 O1998 1.956 . S
Li1938 O1999 1.970 . S
Li1939 N1989 1.990 . S
Li1939 O1997 1.961 . S
Li1939 O1998 1.970 . S
Li1939 O1999 1.956 . S
C1940 C1942 1.348 . S
C1940 C1943 1.356 . S
C1940 O1996 1.325 . S
N1941 C1944 1.314 . S
N1941 C1945 1.279 . S
C1942 C1940 1.348 . S
C1942 C1944 1.353 . S
C1942 H2000 0.929 . S
C1943 C1940 1.356 . S
C1943 C1945 1.358 . S
C1943 H2001 0.930 . S
C1944 N1941 1.314 . S
C1944 C1942 1.353 . S
C1944 H2002 0.930 . S
C1945 N1941 1.279 . S
C1945 C1943 1.358 . S
C1945 H2003 0.930 . S
C1946 C1949 1.348 . S
C1946 C1950 1.356 . S
C1946 O1997 1.325 . S
C1947 N1948 1.279 . S
C1947 C1950 1.358 . S
C1947 H2004 0.930 . S
N1948 C1947 1.279 . S
N1948 C1951 1.314 . S
C1949 C1946 1.348 . S
C1949 C1951 1.353 . S
C1949 H2005 0.929 . S
C1950 C1946 1.356 . S
C1950 C1947 1.358 . S
C1950 H2006 0.930 . S
C1951 N1948 1.314 . S
C1951 C1949 1.353 . S
C1951 H2007 0.930 . S
C1952 N1953 1.314 . S
C1952 C1957 1.353 . S
C1952 H1958 0.930 . S
N1953 Li1936 1.990 . S
N1953 C1952 1.314 . S
N1953 C1955 1.279 . S
C1954 C1955 1.358 . S
C1954 C1956 1.356 . S
C1954 H2008 0.930 . S
C1955 N1953 1.279 . S
C1955 C1954 1.358 . S
C1955 H1959 0.930 . S
C1956 C1954 1.356 . S
C1956 C1957 1.348 . S
C1957 C1952 1.353 . S
C1957 C1956 1.348 . S
C1957 H2009 0.929 . S
H1958 C1952 0.930 . S
H1959 C1955 0.930 . S
C1960 N1961 1.314 . S
C1960 C1962 1.353 . S
C1960 H1966 0.930 . S
N1961 Li1937 1.990 . S
N1961 C1960 1.314 . S
N1961 C1964 1.279 . S
C1962 C1960 1.353 . S
C1962 C1965 1.348 . S
C1962 H2010 0.929 . S
C1963 C1964 1.358 . S
C1963 C1965 1.356 . S
C1963 H2011 0.930 . S
C1964 N1961 1.279 . S
C1964 C1963 1.358 . S
C1964 H1967 0.930 . S
C1965 C1962 1.348 . S
C1965 C1963 1.356 . S
H1966 C1960 0.930 . S
H1967 C1964 0.930 . S
C1968 C1970 1.348 . S
C1968 C1971 1.356 . S
C1968 O1998 1.325 . S
N1969 C1972 1.314 . S
N1969 C1973 1.279 . S
C1970 C1968 1.348 . S
C1970 C1972 1.353 . S
C1970 H2012 0.929 . S
C1971 C1968 1.356 . S
C1971 C1973 1.358 . S
C1971 H2013 0.930 . S
C1972 N1969 1.314 . S
C1972 C1970 1.353 . S
C1972 H2014 0.930 . S
C1973 N1969 1.279 . S
C1973 C1971 1.358 . S
C1973 H2015 0.930 . S
C1974 C1975 1.348 . S
C1974 C1976 1.356 . S
C1974 O1999 1.325 . S
C1975 C1974 1.348 . S
C1975 C1977 1.353 . S
C1975 H2016 0.929 . S
C1976 C1974 1.356 . S
C1976 C1978 1.358 . S
C1976 H2017 0.930 . S
C1977 C1975 1.353 . S
C1977 N1979 1.314 . S
C1977 H2018 0.930 . S
C1978 C1976 1.358 . S
C1978 N1979 1.279 . S
C1978 H2019 0.930 . S
N1979 C1977 1.314 . S
N1979 C1978 1.279 . S
C1980 C1982 1.353 . S
C1980 N1983 1.314 . S
C1980 H1986 0.930 . S
C1981 N1983 1.279 . S
C1981 C1984 1.358 . S
C1981 H1987 0.930 . S
C1982 C1980 1.353 . S
C1982 C1985 1.348 . S
C1982 H2020 0.929 . S
N1983 Li1938 1.990 . S
N1983 C1980 1.314 . S
N1983 C1981 1.279 . S
C1984 C1981 1.358 . S
C1984 C1985 1.356 . S
C1984 H2021 0.930 . S
C1985 C1982 1.348 . S
C1985 C1984 1.356 . S
H1986 C1980 0.930 . S
H1987 C1981 0.930 . S
C1988 N1989 1.314 . S
C1988 C1990 1.353 . S
C1988 H1994 0.930 . S
N1989 Li1939 1.990 . S
N1989 C1988 1.314 . S
N1989 C1992 1.279 . S
C1990 C1988 1.353 . S
C1990 C1993 1.348 . S
C1990 H2022 0.929 . S
C1991 C1992 1.358 . S
C1991 C1993 1.356 . S
C1991 H2023 0.930 . S
C1992 N1989 1.279 . S
C1992 C1991 1.358 . S
C1992 H1995 0.930 . S
C1993 C1990 1.348 . S
C1993 C1991 1.356 . S
H1994 C1988 0.930 . S
H1995 C1992 0.930 . S
O1996 Li1936 1.956 . S
O1996 Li1937 1.970 . S
O1996 Li1938 1.961 . S
O1996 C1940 1.325 . S
O1997 Li1936 1.970 . S
O1997 Li1937 1.956 . S
O1997 Li1939 1.961 . S
O1997 C1946 1.325 . S
O1998 Li1936 1.961 . S
O1998 Li1938 1.956 . S
O1998 Li1939 1.970 . S
O1998 C1968 1.325 . S
O1999 Li1937 1.961 . S
O1999 Li1938 1.970 . S
O1999 Li1939 1.956 . S
O1999 C1974 1.325 . S
H2000 C1942 0.929 . S
H2001 C1943 0.930 . S
H2002 C1944 0.930 . S
H2003 C1945 0.930 . S
H2004 C1947 0.930 . S
H2005 C1949 0.929 . S
H2006 C1950 0.930 . S
H2007 C1951 0.930 . S
H2008 C1954 0.930 . S
H2009 C1957 0.929 . S
H2010 C1962 0.929 . S
H2011 C1963 0.930 . S
H2012 C1970 0.929 . S
H2013 C1971 0.930 . S
H2014 C1972 0.930 . S
H2015 C1973 0.930 . S
H2016 C1975 0.929 . S
H2017 C1976 0.930 . S
H2018 C1977 0.930 . S
H2019 C1978 0.930 . S
H2020 C1982 0.929 . S
H2021 C1984 0.930 . S
H2022 C1990 0.929 . S
H2023 C1991 0.930 . S
Li2024 N2041 1.990 . S
Li2024 O2084 1.956 . S
Li2024 O2085 1.970 . S
Li2024 O2086 1.961 . S
Li2025 N2049 1.990 . S
Li2025 O2084 1.970 . S
Li2025 O2085 1.956 . S
Li2025 O2087 1.961 . S
Li2026 N2071 1.990 . S
Li2026 O2084 1.961 . S
Li2026 O2086 1.956 . S
Li2026 O2087 1.970 . S
Li2027 N2077 1.990 . S
Li2027 O2085 1.961 . S
Li2027 O2086 1.970 . S
Li2027 O2087 1.956 . S
C2028 C2030 1.348 . S
C2028 C2031 1.356 . S
C2028 O2084 1.325 . S
N2029 C2032 1.314 . S
N2029 C2033 1.279 . S
C2030 C2028 1.348 . S
C2030 C2032 1.353 . S
C2030 H2088 0.929 . S
C2031 C2028 1.356 . S
C2031 C2033 1.358 . S
C2031 H2089 0.930 . S
C2032 N2029 1.314 . S
C2032 C2030 1.353 . S
C2032 H2090 0.930 . S
C2033 N2029 1.279 . S
C2033 C2031 1.358 . S
C2033 H2091 0.930 . S
C2034 C2037 1.348 . S
C2034 C2038 1.356 . S
C2034 O2085 1.325 . S
C2035 N2036 1.279 . S
C2035 C2038 1.358 . S
C2035 H2092 0.930 . S
N2036 C2035 1.279 . S
N2036 C2039 1.314 . S
C2037 C2034 1.348 . S
C2037 C2039 1.353 . S
C2037 H2093 0.929 . S
C2038 C2034 1.356 . S
C2038 C2035 1.358 . S
C2038 H2094 0.930 . S
C2039 N2036 1.314 . S
C2039 C2037 1.353 . S
C2039 H2095 0.930 . S
C2040 N2041 1.314 . S
C2040 C2045 1.353 . S
C2040 H2046 0.930 . S
N2041 Li2024 1.990 . S
N2041 C2040 1.314 . S
N2041 C2043 1.279 . S
C2042 C2043 1.358 . S
C2042 C2044 1.356 . S
C2042 H2096 0.930 . S
C2043 N2041 1.279 . S
C2043 C2042 1.358 . S
C2043 H2047 0.930 . S
C2044 C2042 1.356 . S
C2044 C2045 1.348 . S
C2045 C2040 1.353 . S
C2045 C2044 1.348 . S
C2045 H2097 0.929 . S
H2046 C2040 0.930 . S
H2047 C2043 0.930 . S
C2048 N2049 1.314 . S
C2048 C2050 1.353 . S
C2048 H2054 0.930 . S
N2049 Li2025 1.990 . S
N2049 C2048 1.314 . S
N2049 C2052 1.279 . S
C2050 C2048 1.353 . S
C2050 C2053 1.348 . S
C2050 H2098 0.929 . S
C2051 C2052 1.358 . S
C2051 C2053 1.356 . S
C2051 H2099 0.930 . S
C2052 N2049 1.279 . S
C2052 C2051 1.358 . S
C2052 H2055 0.930 . S
C2053 C2050 1.348 . S
C2053 C2051 1.356 . S
H2054 C2048 0.930 . S
H2055 C2052 0.930 . S
C2056 C2058 1.348 . S
C2056 C2059 1.356 . S
C2056 O2086 1.325 . S
N2057 C2060 1.314 . S
N2057 C2061 1.279 . S
C2058 C2056 1.348 . S
C2058 C2060 1.353 . S
C2058 H2100 0.929 . S
C2059 C2056 1.356 . S
C2059 C2061 1.358 . S
C2059 H2101 0.930 . S
C2060 N2057 1.314 . S
C2060 C2058 1.353 . S
C2060 H2102 0.930 . S
C2061 N2057 1.279 . S
C2061 C2059 1.358 . S
C2061 H2103 0.930 . S
C2062 C2063 1.348 . S
C2062 C2064 1.356 . S
C2062 O2087 1.325 . S
C2063 C2062 1.348 . S
C2063 C2065 1.353 . S
C2063 H2104 0.929 . S
C2064 C2062 1.356 . S
C2064 C2066 1.358 . S
C2064 H2105 0.930 . S
C2065 C2063 1.353 . S
C2065 N2067 1.314 . S
C2065 H2106 0.930 . S
C2066 C2064 1.358 . S
C2066 N2067 1.279 . S
C2066 H2107 0.930 . S
N2067 C2065 1.314 . S
N2067 C2066 1.279 . S
C2068 C2070 1.353 . S
C2068 N2071 1.314 . S
C2068 H2074 0.930 . S
C2069 N2071 1.279 . S
C2069 C2072 1.358 . S
C2069 H2075 0.930 . S
C2070 C2068 1.353 . S
C2070 C2073 1.348 . S
C2070 H2108 0.929 . S
N2071 Li2026 1.990 . S
N2071 C2068 1.314 . S
N2071 C2069 1.279 . S
C2072 C2069 1.358 . S
C2072 C2073 1.356 . S
C2072 H2109 0.930 . S
C2073 C2070 1.348 . S
C2073 C2072 1.356 . S
H2074 C2068 0.930 . S
H2075 C2069 0.930 . S
C2076 N2077 1.314 . S
C2076 C2078 1.353 . S
C2076 H2082 0.930 . S
N2077 Li2027 1.990 . S
N2077 C2076 1.314 . S
N2077 C2080 1.279 . S
C2078 C2076 1.353 . S
C2078 C2081 1.348 . S
C2078 H2110 0.929 . S
C2079 C2080 1.358 . S
C2079 C2081 1.356 . S
C2079 H2111 0.930 . S
C2080 N2077 1.279 . S
C2080 C2079 1.358 . S
C2080 H2083 0.930 . S
C2081 C2078 1.348 . S
C2081 C2079 1.356 . S
H2082 C2076 0.930 . S
H2083 C2080 0.930 . S
O2084 Li2024 1.956 . S
O2084 Li2025 1.970 . S
O2084 Li2026 1.961 . S
O2084 C2028 1.325 . S
O2085 Li2024 1.970 . S
O2085 Li2025 1.956 . S
O2085 Li2027 1.961 . S
O2085 C2034 1.325 . S
O2086 Li2024 1.961 . S
O2086 Li2026 1.956 . S
O2086 Li2027 1.970 . S
O2086 C2056 1.325 . S
O2087 Li2025 1.961 . S
O2087 Li2026 1.970 . S
O2087 Li2027 1.956 . S
O2087 C2062 1.325 . S
H2088 C2030 0.929 . S
H2089 C2031 0.930 . S
H2090 C2032 0.930 . S
H2091 C2033 0.930 . S
H2092 C2035 0.930 . S
H2093 C2037 0.929 . S
H2094 C2038 0.930 . S
H2095 C2039 0.930 . S
H2096 C2042 0.930 . S
H2097 C2045 0.929 . S
H2098 C2050 0.929 . S
H2099 C2051 0.930 . S
H2100 C2058 0.929 . S
H2101 C2059 0.930 . S
H2102 C2060 0.930 . S
H2103 C2061 0.930 . S
H2104 C2063 0.929 . S
H2105 C2064 0.930 . S
H2106 C2065 0.930 . S
H2107 C2066 0.930 . S
H2108 C2070 0.929 . S
H2109 C2072 0.930 . S
H2110 C2078 0.929 . S
H2111 C2079 0.930 . S
Li2112 N2129 1.990 . S
Li2112 O2172 1.956 . S
Li2112 O2173 1.970 . S
Li2112 O2174 1.961 . S
Li2113 N2137 1.990 . S
Li2113 O2172 1.970 . S
Li2113 O2173 1.956 . S
Li2113 O2175 1.961 . S
Li2114 N2159 1.990 . S
Li2114 O2172 1.961 . S
Li2114 O2174 1.956 . S
Li2114 O2175 1.970 . S
Li2115 N2165 1.990 . S
Li2115 O2173 1.961 . S
Li2115 O2174 1.970 . S
Li2115 O2175 1.956 . S
C2116 C2118 1.348 . S
C2116 C2119 1.356 . S
C2116 O2172 1.325 . S
N2117 C2120 1.314 . S
N2117 C2121 1.279 . S
C2118 C2116 1.348 . S
C2118 C2120 1.353 . S
C2118 H2176 0.929 . S
C2119 C2116 1.356 . S
C2119 C2121 1.358 . S
C2119 H2177 0.930 . S
C2120 N2117 1.314 . S
C2120 C2118 1.353 . S
C2120 H2178 0.930 . S
C2121 N2117 1.279 . S
C2121 C2119 1.358 . S
C2121 H2179 0.930 . S
C2122 C2125 1.348 . S
C2122 C2126 1.356 . S
C2122 O2173 1.325 . S
C2123 N2124 1.279 . S
C2123 C2126 1.358 . S
C2123 H2180 0.930 . S
N2124 C2123 1.279 . S
N2124 C2127 1.314 . S
C2125 C2122 1.348 . S
C2125 C2127 1.353 . S
C2125 H2181 0.929 . S
C2126 C2122 1.356 . S
C2126 C2123 1.358 . S
C2126 H2182 0.930 . S
C2127 N2124 1.314 . S
C2127 C2125 1.353 . S
C2127 H2183 0.930 . S
C2128 N2129 1.314 . S
C2128 C2133 1.353 . S
C2128 H2134 0.930 . S
N2129 Li2112 1.990 . S
N2129 C2128 1.314 . S
N2129 C2131 1.279 . S
C2130 C2131 1.358 . S
C2130 C2132 1.356 . S
C2130 H2184 0.930 . S
C2131 N2129 1.279 . S
C2131 C2130 1.358 . S
C2131 H2135 0.930 . S
C2132 C2130 1.356 . S
C2132 C2133 1.348 . S
C2133 C2128 1.353 . S
C2133 C2132 1.348 . S
C2133 H2185 0.929 . S
H2134 C2128 0.930 . S
H2135 C2131 0.930 . S
C2136 N2137 1.314 . S
C2136 C2138 1.353 . S
C2136 H2142 0.930 . S
N2137 Li2113 1.990 . S
N2137 C2136 1.314 . S
N2137 C2140 1.279 . S
C2138 C2136 1.353 . S
C2138 C2141 1.348 . S
C2138 H2186 0.929 . S
C2139 C2140 1.358 . S
C2139 C2141 1.356 . S
C2139 H2187 0.930 . S
C2140 N2137 1.279 . S
C2140 C2139 1.358 . S
C2140 H2143 0.930 . S
C2141 C2138 1.348 . S
C2141 C2139 1.356 . S
H2142 C2136 0.930 . S
H2143 C2140 0.930 . S
C2144 C2146 1.348 . S
C2144 C2147 1.356 . S
C2144 O2174 1.325 . S
N2145 C2148 1.314 . S
N2145 C2149 1.279 . S
C2146 C2144 1.348 . S
C2146 C2148 1.353 . S
C2146 H2188 0.929 . S
C2147 C2144 1.356 . S
C2147 C2149 1.358 . S
C2147 H2189 0.930 . S
C2148 N2145 1.314 . S
C2148 C2146 1.353 . S
C2148 H2190 0.930 . S
C2149 N2145 1.279 . S
C2149 C2147 1.358 . S
C2149 H2191 0.930 . S
C2150 C2151 1.348 . S
C2150 C2152 1.356 . S
C2150 O2175 1.325 . S
C2151 C2150 1.348 . S
C2151 C2153 1.353 . S
C2151 H2192 0.929 . S
C2152 C2150 1.356 . S
C2152 C2154 1.358 . S
C2152 H2193 0.930 . S
C2153 C2151 1.353 . S
C2153 N2155 1.314 . S
C2153 H2194 0.930 . S
C2154 C2152 1.358 . S
C2154 N2155 1.279 . S
C2154 H2195 0.930 . S
N2155 C2153 1.314 . S
N2155 C2154 1.279 . S
C2156 C2158 1.353 . S
C2156 N2159 1.314 . S
C2156 H2162 0.930 . S
C2157 N2159 1.279 . S
C2157 C2160 1.358 . S
C2157 H2163 0.930 . S
C2158 C2156 1.353 . S
C2158 C2161 1.348 . S
C2158 H2196 0.929 . S
N2159 Li2114 1.990 . S
N2159 C2156 1.314 . S
N2159 C2157 1.279 . S
C2160 C2157 1.358 . S
C2160 C2161 1.356 . S
C2160 H2197 0.930 . S
C2161 C2158 1.348 . S
C2161 C2160 1.356 . S
H2162 C2156 0.930 . S
H2163 C2157 0.930 . S
C2164 N2165 1.314 . S
C2164 C2166 1.353 . S
C2164 H2170 0.930 . S
N2165 Li2115 1.990 . S
N2165 C2164 1.314 . S
N2165 C2168 1.279 . S
C2166 C2164 1.353 . S
C2166 C2169 1.348 . S
C2166 H2198 0.929 . S
C2167 C2168 1.358 . S
C2167 C2169 1.356 . S
C2167 H2199 0.930 . S
C2168 N2165 1.279 . S
C2168 C2167 1.358 . S
C2168 H2171 0.930 . S
C2169 C2166 1.348 . S
C2169 C2167 1.356 . S
H2170 C2164 0.930 . S
H2171 C2168 0.930 . S
O2172 Li2112 1.956 . S
O2172 Li2113 1.970 . S
O2172 Li2114 1.961 . S
O2172 C2116 1.325 . S
O2173 Li2112 1.970 . S
O2173 Li2113 1.956 . S
O2173 Li2115 1.961 . S
O2173 C2122 1.325 . S
O2174 Li2112 1.961 . S
O2174 Li2114 1.956 . S
O2174 Li2115 1.970 . S
O2174 C2144 1.325 . S
O2175 Li2113 1.961 . S
O2175 Li2114 1.970 . S
O2175 Li2115 1.956 . S
O2175 C2150 1.325 . S
H2176 C2118 0.929 . S
H2177 C2119 0.930 . S
H2178 C2120 0.930 . S
H2179 C2121 0.930 . S
H2180 C2123 0.930 . S
H2181 C2125 0.929 . S
H2182 C2126 0.930 . S
H2183 C2127 0.930 . S
H2184 C2130 0.930 . S
H2185 C2133 0.929 . S
H2186 C2138 0.929 . S
H2187 C2139 0.930 . S
H2188 C2146 0.929 . S
H2189 C2147 0.930 . S
H2190 C2148 0.930 . S
H2191 C2149 0.930 . S
H2192 C2151 0.929 . S
H2193 C2152 0.930 . S
H2194 C2153 0.930 . S
H2195 C2154 0.930 . S
H2196 C2158 0.929 . S
H2197 C2160 0.930 . S
H2198 C2166 0.929 . S
H2199 C2167 0.930 . S
Li2200 N2217 1.990 . S
Li2200 O2260 1.956 . S
Li2200 O2261 1.970 . S
Li2200 O2262 1.961 . S
Li2201 N2225 1.990 . S
Li2201 O2260 1.970 . S
Li2201 O2261 1.956 . S
Li2201 O2263 1.961 . S
Li2202 N2247 1.990 . S
Li2202 O2260 1.961 . S
Li2202 O2262 1.956 . S
Li2202 O2263 1.970 . S
Li2203 N2253 1.990 . S
Li2203 O2261 1.961 . S
Li2203 O2262 1.970 . S
Li2203 O2263 1.956 . S
C2204 C2206 1.348 . S
C2204 C2207 1.356 . S
C2204 O2260 1.325 . S
N2205 C2208 1.314 . S
N2205 C2209 1.279 . S
C2206 C2204 1.348 . S
C2206 C2208 1.353 . S
C2206 H2264 0.929 . S
C2207 C2204 1.356 . S
C2207 C2209 1.358 . S
C2207 H2265 0.930 . S
C2208 N2205 1.314 . S
C2208 C2206 1.353 . S
C2208 H2266 0.930 . S
C2209 N2205 1.279 . S
C2209 C2207 1.358 . S
C2209 H2267 0.930 . S
C2210 C2213 1.348 . S
C2210 C2214 1.356 . S
C2210 O2261 1.325 . S
C2211 N2212 1.279 . S
C2211 C2214 1.358 . S
C2211 H2268 0.930 . S
N2212 C2211 1.279 . S
N2212 C2215 1.314 . S
C2213 C2210 1.348 . S
C2213 C2215 1.353 . S
C2213 H2269 0.929 . S
C2214 C2210 1.356 . S
C2214 C2211 1.358 . S
C2214 H2270 0.930 . S
C2215 N2212 1.314 . S
C2215 C2213 1.353 . S
C2215 H2271 0.930 . S
C2216 N2217 1.314 . S
C2216 C2221 1.353 . S
C2216 H2222 0.930 . S
N2217 Li2200 1.990 . S
N2217 C2216 1.314 . S
N2217 C2219 1.279 . S
C2218 C2219 1.358 . S
C2218 C2220 1.356 . S
C2218 H2272 0.930 . S
C2219 N2217 1.279 . S
C2219 C2218 1.358 . S
C2219 H2223 0.930 . S
C2220 C2218 1.356 . S
C2220 C2221 1.348 . S
C2221 C2216 1.353 . S
C2221 C2220 1.348 . S
C2221 H2273 0.929 . S
H2222 C2216 0.930 . S
H2223 C2219 0.930 . S
C2224 N2225 1.314 . S
C2224 C2226 1.353 . S
C2224 H2230 0.930 . S
N2225 Li2201 1.990 . S
N2225 C2224 1.314 . S
N2225 C2228 1.279 . S
C2226 C2224 1.353 . S
C2226 C2229 1.348 . S
C2226 H2274 0.929 . S
C2227 C2228 1.358 . S
C2227 C2229 1.356 . S
C2227 H2275 0.930 . S
C2228 N2225 1.279 . S
C2228 C2227 1.358 . S
C2228 H2231 0.930 . S
C2229 C2226 1.348 . S
C2229 C2227 1.356 . S
H2230 C2224 0.930 . S
H2231 C2228 0.930 . S
C2232 C2234 1.348 . S
C2232 C2235 1.356 . S
C2232 O2262 1.325 . S
N2233 C2236 1.314 . S
N2233 C2237 1.279 . S
C2234 C2232 1.348 . S
C2234 C2236 1.353 . S
C2234 H2276 0.929 . S
C2235 C2232 1.356 . S
C2235 C2237 1.358 . S
C2235 H2277 0.930 . S
C2236 N2233 1.314 . S
C2236 C2234 1.353 . S
C2236 H2278 0.930 . S
C2237 N2233 1.279 . S
C2237 C2235 1.358 . S
C2237 H2279 0.930 . S
C2238 C2239 1.348 . S
C2238 C2240 1.356 . S
C2238 O2263 1.325 . S
C2239 C2238 1.348 . S
C2239 C2241 1.353 . S
C2239 H2280 0.929 . S
C2240 C2238 1.356 . S
C2240 C2242 1.358 . S
C2240 H2281 0.930 . S
C2241 C2239 1.353 . S
C2241 N2243 1.314 . S
C2241 H2282 0.930 . S
C2242 C2240 1.358 . S
C2242 N2243 1.279 . S
C2242 H2283 0.930 . S
N2243 C2241 1.314 . S
N2243 C2242 1.279 . S
C2244 C2246 1.353 . S
C2244 N2247 1.314 . S
C2244 H2250 0.930 . S
C2245 N2247 1.279 . S
C2245 C2248 1.358 . S
C2245 H2251 0.930 . S
C2246 C2244 1.353 . S
C2246 C2249 1.348 . S
C2246 H2284 0.929 . S
N2247 Li2202 1.990 . S
N2247 C2244 1.314 . S
N2247 C2245 1.279 . S
C2248 C2245 1.358 . S
C2248 C2249 1.356 . S
C2248 H2285 0.930 . S
C2249 C2246 1.348 . S
C2249 C2248 1.356 . S
H2250 C2244 0.930 . S
H2251 C2245 0.930 . S
C2252 N2253 1.314 . S
C2252 C2254 1.353 . S
C2252 H2258 0.930 . S
N2253 Li2203 1.990 . S
N2253 C2252 1.314 . S
N2253 C2256 1.279 . S
C2254 C2252 1.353 . S
C2254 C2257 1.348 . S
C2254 H2286 0.929 . S
C2255 C2256 1.358 . S
C2255 C2257 1.356 . S
C2255 H2287 0.930 . S
C2256 N2253 1.279 . S
C2256 C2255 1.358 . S
C2256 H2259 0.930 . S
C2257 C2254 1.348 . S
C2257 C2255 1.356 . S
H2258 C2252 0.930 . S
H2259 C2256 0.930 . S
O2260 Li2200 1.956 . S
O2260 Li2201 1.970 . S
O2260 Li2202 1.961 . S
O2260 C2204 1.325 . S
O2261 Li2200 1.970 . S
O2261 Li2201 1.956 . S
O2261 Li2203 1.961 . S
O2261 C2210 1.325 . S
O2262 Li2200 1.961 . S
O2262 Li2202 1.956 . S
O2262 Li2203 1.970 . S
O2262 C2232 1.325 . S
O2263 Li2201 1.961 . S
O2263 Li2202 1.970 . S
O2263 Li2203 1.956 . S
O2263 C2238 1.325 . S
H2264 C2206 0.929 . S
H2265 C2207 0.930 . S
H2266 C2208 0.930 . S
H2267 C2209 0.930 . S
H2268 C2211 0.930 . S
H2269 C2213 0.929 . S
H2270 C2214 0.930 . S
H2271 C2215 0.930 . S
H2272 C2218 0.930 . S
H2273 C2221 0.929 . S
H2274 C2226 0.929 . S
H2275 C2227 0.930 . S
H2276 C2234 0.929 . S
H2277 C2235 0.930 . S
H2278 C2236 0.930 . S
H2279 C2237 0.930 . S
H2280 C2239 0.929 . S
H2281 C2240 0.930 . S
H2282 C2241 0.930 . S
H2283 C2242 0.930 . S
H2284 C2246 0.929 . S
H2285 C2248 0.930 . S
H2286 C2254 0.929 . S
H2287 C2255 0.930 . S
Li2288 N2305 1.990 . S
Li2288 O2348 1.956 . S
Li2288 O2349 1.970 . S
Li2288 O2350 1.961 . S
Li2289 N2313 1.990 . S
Li2289 O2348 1.970 . S
Li2289 O2349 1.956 . S
Li2289 O2351 1.961 . S
Li2290 N2335 1.990 . S
Li2290 O2348 1.961 . S
Li2290 O2350 1.956 . S
Li2290 O2351 1.970 . S
Li2291 N2341 1.990 . S
Li2291 O2349 1.961 . S
Li2291 O2350 1.970 . S
Li2291 O2351 1.956 . S
C2292 C2294 1.348 . S
C2292 C2295 1.356 . S
C2292 O2348 1.325 . S
N2293 C2296 1.314 . S
N2293 C2297 1.279 . S
C2294 C2292 1.348 . S
C2294 C2296 1.353 . S
C2294 H2352 0.929 . S
C2295 C2292 1.356 . S
C2295 C2297 1.358 . S
C2295 H2353 0.930 . S
C2296 N2293 1.314 . S
C2296 C2294 1.353 . S
C2296 H2354 0.930 . S
C2297 N2293 1.279 . S
C2297 C2295 1.358 . S
C2297 H2355 0.930 . S
C2298 C2301 1.348 . S
C2298 C2302 1.356 . S
C2298 O2349 1.325 . S
C2299 N2300 1.279 . S
C2299 C2302 1.358 . S
C2299 H2356 0.930 . S
N2300 C2299 1.279 . S
N2300 C2303 1.314 . S
C2301 C2298 1.348 . S
C2301 C2303 1.353 . S
C2301 H2357 0.929 . S
C2302 C2298 1.356 . S
C2302 C2299 1.358 . S
C2302 H2358 0.930 . S
C2303 N2300 1.314 . S
C2303 C2301 1.353 . S
C2303 H2359 0.930 . S
C2304 N2305 1.314 . S
C2304 C2309 1.353 . S
C2304 H2310 0.930 . S
N2305 Li2288 1.990 . S
N2305 C2304 1.314 . S
N2305 C2307 1.279 . S
C2306 C2307 1.358 . S
C2306 C2308 1.356 . S
C2306 H2360 0.930 . S
C2307 N2305 1.279 . S
C2307 C2306 1.358 . S
C2307 H2311 0.930 . S
C2308 C2306 1.356 . S
C2308 C2309 1.348 . S
C2309 C2304 1.353 . S
C2309 C2308 1.348 . S
C2309 H2361 0.929 . S
H2310 C2304 0.930 . S
H2311 C2307 0.930 . S
C2312 N2313 1.314 . S
C2312 C2314 1.353 . S
C2312 H2318 0.930 . S
N2313 Li2289 1.990 . S
N2313 C2312 1.314 . S
N2313 C2316 1.279 . S
C2314 C2312 1.353 . S
C2314 C2317 1.348 . S
C2314 H2362 0.929 . S
C2315 C2316 1.358 . S
C2315 C2317 1.356 . S
C2315 H2363 0.930 . S
C2316 N2313 1.279 . S
C2316 C2315 1.358 . S
C2316 H2319 0.930 . S
C2317 C2314 1.348 . S
C2317 C2315 1.356 . S
H2318 C2312 0.930 . S
H2319 C2316 0.930 . S
C2320 C2322 1.348 . S
C2320 C2323 1.356 . S
C2320 O2350 1.325 . S
N2321 C2324 1.314 . S
N2321 C2325 1.279 . S
C2322 C2320 1.348 . S
C2322 C2324 1.353 . S
C2322 H2364 0.929 . S
C2323 C2320 1.356 . S
C2323 C2325 1.358 . S
C2323 H2365 0.930 . S
C2324 N2321 1.314 . S
C2324 C2322 1.353 . S
C2324 H2366 0.930 . S
C2325 N2321 1.279 . S
C2325 C2323 1.358 . S
C2325 H2367 0.930 . S
C2326 C2327 1.348 . S
C2326 C2328 1.356 . S
C2326 O2351 1.325 . S
C2327 C2326 1.348 . S
C2327 C2329 1.353 . S
C2327 H2368 0.929 . S
C2328 C2326 1.356 . S
C2328 C2330 1.358 . S
C2328 H2369 0.930 . S
C2329 C2327 1.353 . S
C2329 N2331 1.314 . S
C2329 H2370 0.930 . S
C2330 C2328 1.358 . S
C2330 N2331 1.279 . S
C2330 H2371 0.930 . S
N2331 C2329 1.314 . S
N2331 C2330 1.279 . S
C2332 C2334 1.353 . S
C2332 N2335 1.314 . S
C2332 H2338 0.930 . S
C2333 N2335 1.279 . S
C2333 C2336 1.358 . S
C2333 H2339 0.930 . S
C2334 C2332 1.353 . S
C2334 C2337 1.348 . S
C2334 H2372 0.929 . S
N2335 Li2290 1.990 . S
N2335 C2332 1.314 . S
N2335 C2333 1.279 . S
C2336 C2333 1.358 . S
C2336 C2337 1.356 . S
C2336 H2373 0.930 . S
C2337 C2334 1.348 . S
C2337 C2336 1.356 . S
H2338 C2332 0.930 . S
H2339 C2333 0.930 . S
C2340 N2341 1.314 . S
C2340 C2342 1.353 . S
C2340 H2346 0.930 . S
N2341 Li2291 1.990 . S
N2341 C2340 1.314 . S
N2341 C2344 1.279 . S
C2342 C2340 1.353 . S
C2342 C2345 1.348 . S
C2342 H2374 0.929 . S
C2343 C2344 1.358 . S
C2343 C2345 1.356 . S
C2343 H2375 0.930 . S
C2344 N2341 1.279 . S
C2344 C2343 1.358 . S
C2344 H2347 0.930 . S
C2345 C2342 1.348 . S
C2345 C2343 1.356 . S
H2346 C2340 0.930 . S
H2347 C2344 0.930 . S
O2348 Li2288 1.956 . S
O2348 Li2289 1.970 . S
O2348 Li2290 1.961 . S
O2348 C2292 1.325 . S
O2349 Li2288 1.970 . S
O2349 Li2289 1.956 . S
O2349 Li2291 1.961 . S
O2349 C2298 1.325 . S
O2350 Li2288 1.961 . S
O2350 Li2290 1.956 . S
O2350 Li2291 1.970 . S
O2350 C2320 1.325 . S
O2351 Li2289 1.961 . S
O2351 Li2290 1.970 . S
O2351 Li2291 1.956 . S
O2351 C2326 1.325 . S
H2352 C2294 0.929 . S
H2353 C2295 0.930 . S
H2354 C2296 0.930 . S
H2355 C2297 0.930 . S
H2356 C2299 0.930 . S
H2357 C2301 0.929 . S
H2358 C2302 0.930 . S
H2359 C2303 0.930 . S
H2360 C2306 0.930 . S
H2361 C2309 0.929 . S
H2362 C2314 0.929 . S
H2363 C2315 0.930 . S
H2364 C2322 0.929 . S
H2365 C2323 0.930 . S
H2366 C2324 0.930 . S
H2367 C2325 0.930 . S
H2368 C2327 0.929 . S
H2369 C2328 0.930 . S
H2370 C2329 0.930 . S
H2371 C2330 0.930 . S
H2372 C2334 0.929 . S
H2373 C2336 0.930 . S
H2374 C2342 0.929 . S
H2375 C2343 0.930 . S
Li2376 N2393 1.990 . S
Li2376 O2436 1.956 . S
Li2376 O2437 1.970 . S
Li2376 O2438 1.961 . S
Li2377 N2401 1.990 . S
Li2377 O2436 1.970 . S
Li2377 O2437 1.956 . S
Li2377 O2439 1.961 . S
Li2378 N2423 1.990 . S
Li2378 O2436 1.961 . S
Li2378 O2438 1.956 . S
Li2378 O2439 1.970 . S
Li2379 N2429 1.990 . S
Li2379 O2437 1.961 . S
Li2379 O2438 1.970 . S
Li2379 O2439 1.956 . S
C2380 C2382 1.348 . S
C2380 C2383 1.356 . S
C2380 O2436 1.325 . S
N2381 C2384 1.314 . S
N2381 C2385 1.279 . S
C2382 C2380 1.348 . S
C2382 C2384 1.353 . S
C2382 H2440 0.929 . S
C2383 C2380 1.356 . S
C2383 C2385 1.358 . S
C2383 H2441 0.930 . S
C2384 N2381 1.314 . S
C2384 C2382 1.353 . S
C2384 H2442 0.930 . S
C2385 N2381 1.279 . S
C2385 C2383 1.358 . S
C2385 H2443 0.930 . S
C2386 C2389 1.348 . S
C2386 C2390 1.356 . S
C2386 O2437 1.325 . S
C2387 N2388 1.279 . S
C2387 C2390 1.358 . S
C2387 H2444 0.930 . S
N2388 C2387 1.279 . S
N2388 C2391 1.314 . S
C2389 C2386 1.348 . S
C2389 C2391 1.353 . S
C2389 H2445 0.929 . S
C2390 C2386 1.356 . S
C2390 C2387 1.358 . S
C2390 H2446 0.930 . S
C2391 N2388 1.314 . S
C2391 C2389 1.353 . S
C2391 H2447 0.930 . S
C2392 N2393 1.314 . S
C2392 C2397 1.353 . S
C2392 H2398 0.930 . S
N2393 Li2376 1.990 . S
N2393 C2392 1.314 . S
N2393 C2395 1.279 . S
C2394 C2395 1.358 . S
C2394 C2396 1.356 . S
C2394 H2448 0.930 . S
C2395 N2393 1.279 . S
C2395 C2394 1.358 . S
C2395 H2399 0.930 . S
C2396 C2394 1.356 . S
C2396 C2397 1.348 . S
C2397 C2392 1.353 . S
C2397 C2396 1.348 . S
C2397 H2449 0.929 . S
H2398 C2392 0.930 . S
H2399 C2395 0.930 . S
C2400 N2401 1.314 . S
C2400 C2402 1.353 . S
C2400 H2406 0.930 . S
N2401 Li2377 1.990 . S
N2401 C2400 1.314 . S
N2401 C2404 1.279 . S
C2402 C2400 1.353 . S
C2402 C2405 1.348 . S
C2402 H2450 0.929 . S
C2403 C2404 1.358 . S
C2403 C2405 1.356 . S
C2403 H2451 0.930 . S
C2404 N2401 1.279 . S
C2404 C2403 1.358 . S
C2404 H2407 0.930 . S
C2405 C2402 1.348 . S
C2405 C2403 1.356 . S
H2406 C2400 0.930 . S
H2407 C2404 0.930 . S
C2408 C2410 1.348 . S
C2408 C2411 1.356 . S
C2408 O2438 1.325 . S
N2409 C2412 1.314 . S
N2409 C2413 1.279 . S
C2410 C2408 1.348 . S
C2410 C2412 1.353 . S
C2410 H2452 0.929 . S
C2411 C2408 1.356 . S
C2411 C2413 1.358 . S
C2411 H2453 0.930 . S
C2412 N2409 1.314 . S
C2412 C2410 1.353 . S
C2412 H2454 0.930 . S
C2413 N2409 1.279 . S
C2413 C2411 1.358 . S
C2413 H2455 0.930 . S
C2414 C2415 1.348 . S
C2414 C2416 1.356 . S
C2414 O2439 1.325 . S
C2415 C2414 1.348 . S
C2415 C2417 1.353 . S
C2415 H2456 0.929 . S
C2416 C2414 1.356 . S
C2416 C2418 1.358 . S
C2416 H2457 0.930 . S
C2417 C2415 1.353 . S
C2417 N2419 1.314 . S
C2417 H2458 0.930 . S
C2418 C2416 1.358 . S
C2418 N2419 1.279 . S
C2418 H2459 0.930 . S
N2419 C2417 1.314 . S
N2419 C2418 1.279 . S
C2420 C2422 1.353 . S
C2420 N2423 1.314 . S
C2420 H2426 0.930 . S
C2421 N2423 1.279 . S
C2421 C2424 1.358 . S
C2421 H2427 0.930 . S
C2422 C2420 1.353 . S
C2422 C2425 1.348 . S
C2422 H2460 0.929 . S
N2423 Li2378 1.990 . S
N2423 C2420 1.314 . S
N2423 C2421 1.279 . S
C2424 C2421 1.358 . S
C2424 C2425 1.356 . S
C2424 H2461 0.930 . S
C2425 C2422 1.348 . S
C2425 C2424 1.356 . S
H2426 C2420 0.930 . S
H2427 C2421 0.930 . S
C2428 N2429 1.314 . S
C2428 C2430 1.353 . S
C2428 H2434 0.930 . S
N2429 Li2379 1.990 . S
N2429 C2428 1.314 . S
N2429 C2432 1.279 . S
C2430 C2428 1.353 . S
C2430 C2433 1.348 . S
C2430 H2462 0.929 . S
C2431 C2432 1.358 . S
C2431 C2433 1.356 . S
C2431 H2463 0.930 . S
C2432 N2429 1.279 . S
C2432 C2431 1.358 . S
C2432 H2435 0.930 . S
C2433 C2430 1.348 . S
C2433 C2431 1.356 . S
H2434 C2428 0.930 . S
H2435 C2432 0.930 . S
O2436 Li2376 1.956 . S
O2436 Li2377 1.970 . S
O2436 Li2378 1.961 . S
O2436 C2380 1.325 . S
O2437 Li2376 1.970 . S
O2437 Li2377 1.956 . S
O2437 Li2379 1.961 . S
O2437 C2386 1.325 . S
O2438 Li2376 1.961 . S
O2438 Li2378 1.956 . S
O2438 Li2379 1.970 . S
O2438 C2408 1.325 . S
O2439 Li2377 1.961 . S
O2439 Li2378 1.970 . S
O2439 Li2379 1.956 . S
O2439 C2414 1.325 . S
H2440 C2382 0.929 . S
H2441 C2383 0.930 . S
H2442 C2384 0.930 . S
H2443 C2385 0.930 . S
H2444 C2387 0.930 . S
H2445 C2389 0.929 . S
H2446 C2390 0.930 . S
H2447 C2391 0.930 . S
H2448 C2394 0.930 . S
H2449 C2397 0.929 . S
H2450 C2402 0.929 . S
H2451 C2403 0.930 . S
H2452 C2410 0.929 . S
H2453 C2411 0.930 . S
H2454 C2412 0.930 . S
H2455 C2413 0.930 . S
H2456 C2415 0.929 . S
H2457 C2416 0.930 . S
H2458 C2417 0.930 . S
H2459 C2418 0.930 . S
H2460 C2422 0.929 . S
H2461 C2424 0.930 . S
H2462 C2430 0.929 . S
H2463 C2431 0.930 . S
Li2464 N2481 1.990 . S
Li2464 O2524 1.956 . S
Li2464 O2525 1.970 . S
Li2464 O2526 1.961 . S
Li2465 N2489 1.990 . S
Li2465 O2524 1.970 . S
Li2465 O2525 1.956 . S
Li2465 O2527 1.961 . S
Li2466 N2511 1.990 . S
Li2466 O2524 1.961 . S
Li2466 O2526 1.956 . S
Li2466 O2527 1.970 . S
Li2467 N2517 1.990 . S
Li2467 O2525 1.961 . S
Li2467 O2526 1.970 . S
Li2467 O2527 1.956 . S
C2468 C2470 1.348 . S
C2468 C2471 1.356 . S
C2468 O2524 1.325 . S
N2469 C2472 1.314 . S
N2469 C2473 1.279 . S
C2470 C2468 1.348 . S
C2470 C2472 1.353 . S
C2470 H2528 0.929 . S
C2471 C2468 1.356 . S
C2471 C2473 1.358 . S
C2471 H2529 0.930 . S
C2472 N2469 1.314 . S
C2472 C2470 1.353 . S
C2472 H2530 0.930 . S
C2473 N2469 1.279 . S
C2473 C2471 1.358 . S
C2473 H2531 0.930 . S
C2474 C2477 1.348 . S
C2474 C2478 1.356 . S
C2474 O2525 1.325 . S
C2475 N2476 1.279 . S
C2475 C2478 1.358 . S
C2475 H2532 0.930 . S
N2476 C2475 1.279 . S
N2476 C2479 1.314 . S
C2477 C2474 1.348 . S
C2477 C2479 1.353 . S
C2477 H2533 0.929 . S
C2478 C2474 1.356 . S
C2478 C2475 1.358 . S
C2478 H2534 0.930 . S
C2479 N2476 1.314 . S
C2479 C2477 1.353 . S
C2479 H2535 0.930 . S
C2480 N2481 1.314 . S
C2480 C2485 1.353 . S
C2480 H2486 0.930 . S
N2481 Li2464 1.990 . S
N2481 C2480 1.314 . S
N2481 C2483 1.279 . S
C2482 C2483 1.358 . S
C2482 C2484 1.356 . S
C2482 H2536 0.930 . S
C2483 N2481 1.279 . S
C2483 C2482 1.358 . S
C2483 H2487 0.930 . S
C2484 C2482 1.356 . S
C2484 C2485 1.348 . S
C2485 C2480 1.353 . S
C2485 C2484 1.348 . S
C2485 H2537 0.929 . S
H2486 C2480 0.930 . S
H2487 C2483 0.930 . S
C2488 N2489 1.314 . S
C2488 C2490 1.353 . S
C2488 H2494 0.930 . S
N2489 Li2465 1.990 . S
N2489 C2488 1.314 . S
N2489 C2492 1.279 . S
C2490 C2488 1.353 . S
C2490 C2493 1.348 . S
C2490 H2538 0.929 . S
C2491 C2492 1.358 . S
C2491 C2493 1.356 . S
C2491 H2539 0.930 . S
C2492 N2489 1.279 . S
C2492 C2491 1.358 . S
C2492 H2495 0.930 . S
C2493 C2490 1.348 . S
C2493 C2491 1.356 . S
H2494 C2488 0.930 . S
H2495 C2492 0.930 . S
C2496 C2498 1.348 . S
C2496 C2499 1.356 . S
C2496 O2526 1.325 . S
N2497 C2500 1.314 . S
N2497 C2501 1.279 . S
C2498 C2496 1.348 . S
C2498 C2500 1.353 . S
C2498 H2540 0.929 . S
C2499 C2496 1.356 . S
C2499 C2501 1.358 . S
C2499 H2541 0.930 . S
C2500 N2497 1.314 . S
C2500 C2498 1.353 . S
C2500 H2542 0.930 . S
C2501 N2497 1.279 . S
C2501 C2499 1.358 . S
C2501 H2543 0.930 . S
C2502 C2503 1.348 . S
C2502 C2504 1.356 . S
C2502 O2527 1.325 . S
C2503 C2502 1.348 . S
C2503 C2505 1.353 . S
C2503 H2544 0.929 . S
C2504 C2502 1.356 . S
C2504 C2506 1.358 . S
C2504 H2545 0.930 . S
C2505 C2503 1.353 . S
C2505 N2507 1.314 . S
C2505 H2546 0.930 . S
C2506 C2504 1.358 . S
C2506 N2507 1.279 . S
C2506 H2547 0.930 . S
N2507 C2505 1.314 . S
N2507 C2506 1.279 . S
C2508 C2510 1.353 . S
C2508 N2511 1.314 . S
C2508 H2514 0.930 . S
C2509 N2511 1.279 . S
C2509 C2512 1.358 . S
C2509 H2515 0.930 . S
C2510 C2508 1.353 . S
C2510 C2513 1.348 . S
C2510 H2548 0.929 . S
N2511 Li2466 1.990 . S
N2511 C2508 1.314 . S
N2511 C2509 1.279 . S
C2512 C2509 1.358 . S
C2512 C2513 1.356 . S
C2512 H2549 0.930 . S
C2513 C2510 1.348 . S
C2513 C2512 1.356 . S
H2514 C2508 0.930 . S
H2515 C2509 0.930 . S
C2516 N2517 1.314 . S
C2516 C2518 1.353 . S
C2516 H2522 0.930 . S
N2517 Li2467 1.990 . S
N2517 C2516 1.314 . S
N2517 C2520 1.279 . S
C2518 C2516 1.353 . S
C2518 C2521 1.348 . S
C2518 H2550 0.929 . S
C2519 C2520 1.358 . S
C2519 C2521 1.356 . S
C2519 H2551 0.930 . S
C2520 N2517 1.279 . S
C2520 C2519 1.358 . S
C2520 H2523 0.930 . S
C2521 C2518 1.348 . S
C2521 C2519 1.356 . S
H2522 C2516 0.930 . S
H2523 C2520 0.930 . S
O2524 Li2464 1.956 . S
O2524 Li2465 1.970 . S
O2524 Li2466 1.961 . S
O2524 C2468 1.325 . S
O2525 Li2464 1.970 . S
O2525 Li2465 1.956 . S
O2525 Li2467 1.961 . S
O2525 C2474 1.325 . S
O2526 Li2464 1.961 . S
O2526 Li2466 1.956 . S
O2526 Li2467 1.970 . S
O2526 C2496 1.325 . S
O2527 Li2465 1.961 . S
O2527 Li2466 1.970 . S
O2527 Li2467 1.956 . S
O2527 C2502 1.325 . S
H2528 C2470 0.929 . S
H2529 C2471 0.930 . S
H2530 C2472 0.930 . S
H2531 C2473 0.930 . S
H2532 C2475 0.930 . S
H2533 C2477 0.929 . S
H2534 C2478 0.930 . S
H2535 C2479 0.930 . S
H2536 C2482 0.930 . S
H2537 C2485 0.929 . S
H2538 C2490 0.929 . S
H2539 C2491 0.930 . S
H2540 C2498 0.929 . S
H2541 C2499 0.930 . S
H2542 C2500 0.930 . S
H2543 C2501 0.930 . S
H2544 C2503 0.929 . S
H2545 C2504 0.930 . S
H2546 C2505 0.930 . S
H2547 C2506 0.930 . S
H2548 C2510 0.929 . S
H2549 C2512 0.930 . S
H2550 C2518 0.929 . S
H2551 C2519 0.930 . S
Li2552 N2569 1.990 . S
Li2552 O2612 1.956 . S
Li2552 O2613 1.970 . S
Li2552 O2614 1.961 . S
Li2553 N2577 1.990 . S
Li2553 O2612 1.970 . S
Li2553 O2613 1.956 . S
Li2553 O2615 1.961 . S
Li2554 N2599 1.990 . S
Li2554 O2612 1.961 . S
Li2554 O2614 1.956 . S
Li2554 O2615 1.970 . S
Li2555 N2605 1.990 . S
Li2555 O2613 1.961 . S
Li2555 O2614 1.970 . S
Li2555 O2615 1.956 . S
C2556 C2558 1.348 . S
C2556 C2559 1.356 . S
C2556 O2612 1.325 . S
N2557 C2560 1.314 . S
N2557 C2561 1.279 . S
C2558 C2556 1.348 . S
C2558 C2560 1.353 . S
C2558 H2616 0.929 . S
C2559 C2556 1.356 . S
C2559 C2561 1.358 . S
C2559 H2617 0.930 . S
C2560 N2557 1.314 . S
C2560 C2558 1.353 . S
C2560 H2618 0.930 . S
C2561 N2557 1.279 . S
C2561 C2559 1.358 . S
C2561 H2619 0.930 . S
C2562 C2565 1.348 . S
C2562 C2566 1.356 . S
C2562 O2613 1.325 . S
C2563 N2564 1.279 . S
C2563 C2566 1.358 . S
C2563 H2620 0.930 . S
N2564 C2563 1.279 . S
N2564 C2567 1.314 . S
C2565 C2562 1.348 . S
C2565 C2567 1.353 . S
C2565 H2621 0.929 . S
C2566 C2562 1.356 . S
C2566 C2563 1.358 . S
C2566 H2622 0.930 . S
C2567 N2564 1.314 . S
C2567 C2565 1.353 . S
C2567 H2623 0.930 . S
C2568 N2569 1.314 . S
C2568 C2573 1.353 . S
C2568 H2574 0.930 . S
N2569 Li2552 1.990 . S
N2569 C2568 1.314 . S
N2569 C2571 1.279 . S
C2570 C2571 1.358 . S
C2570 C2572 1.356 . S
C2570 H2624 0.930 . S
C2571 N2569 1.279 . S
C2571 C2570 1.358 . S
C2571 H2575 0.930 . S
C2572 C2570 1.356 . S
C2572 C2573 1.348 . S
C2573 C2568 1.353 . S
C2573 C2572 1.348 . S
C2573 H2625 0.929 . S
H2574 C2568 0.930 . S
H2575 C2571 0.930 . S
C2576 N2577 1.314 . S
C2576 C2578 1.353 . S
C2576 H2582 0.930 . S
N2577 Li2553 1.990 . S
N2577 C2576 1.314 . S
N2577 C2580 1.279 . S
C2578 C2576 1.353 . S
C2578 C2581 1.348 . S
C2578 H2626 0.929 . S
C2579 C2580 1.358 . S
C2579 C2581 1.356 . S
C2579 H2627 0.930 . S
C2580 N2577 1.279 . S
C2580 C2579 1.358 . S
C2580 H2583 0.930 . S
C2581 C2578 1.348 . S
C2581 C2579 1.356 . S
H2582 C2576 0.930 . S
H2583 C2580 0.930 . S
C2584 C2586 1.348 . S
C2584 C2587 1.356 . S
C2584 O2614 1.325 . S
N2585 C2588 1.314 . S
N2585 C2589 1.279 . S
C2586 C2584 1.348 . S
C2586 C2588 1.353 . S
C2586 H2628 0.929 . S
C2587 C2584 1.356 . S
C2587 C2589 1.358 . S
C2587 H2629 0.930 . S
C2588 N2585 1.314 . S
C2588 C2586 1.353 . S
C2588 H2630 0.930 . S
C2589 N2585 1.279 . S
C2589 C2587 1.358 . S
C2589 H2631 0.930 . S
C2590 C2591 1.348 . S
C2590 C2592 1.356 . S
C2590 O2615 1.325 . S
C2591 C2590 1.348 . S
C2591 C2593 1.353 . S
C2591 H2632 0.929 . S
C2592 C2590 1.356 . S
C2592 C2594 1.358 . S
C2592 H2633 0.930 . S
C2593 C2591 1.353 . S
C2593 N2595 1.314 . S
C2593 H2634 0.930 . S
C2594 C2592 1.358 . S
C2594 N2595 1.279 . S
C2594 H2635 0.930 . S
N2595 C2593 1.314 . S
N2595 C2594 1.279 . S
C2596 C2598 1.353 . S
C2596 N2599 1.314 . S
C2596 H2602 0.930 . S
C2597 N2599 1.279 . S
C2597 C2600 1.358 . S
C2597 H2603 0.930 . S
C2598 C2596 1.353 . S
C2598 C2601 1.348 . S
C2598 H2636 0.929 . S
N2599 Li2554 1.990 . S
N2599 C2596 1.314 . S
N2599 C2597 1.279 . S
C2600 C2597 1.358 . S
C2600 C2601 1.356 . S
C2600 H2637 0.930 . S
C2601 C2598 1.348 . S
C2601 C2600 1.356 . S
H2602 C2596 0.930 . S
H2603 C2597 0.930 . S
C2604 N2605 1.314 . S
C2604 C2606 1.353 . S
C2604 H2610 0.930 . S
N2605 Li2555 1.990 . S
N2605 C2604 1.314 . S
N2605 C2608 1.279 . S
C2606 C2604 1.353 . S
C2606 C2609 1.348 . S
C2606 H2638 0.929 . S
C2607 C2608 1.358 . S
C2607 C2609 1.356 . S
C2607 H2639 0.930 . S
C2608 N2605 1.279 . S
C2608 C2607 1.358 . S
C2608 H2611 0.930 . S
C2609 C2606 1.348 . S
C2609 C2607 1.356 . S
H2610 C2604 0.930 . S
H2611 C2608 0.930 . S
O2612 Li2552 1.956 . S
O2612 Li2553 1.970 . S
O2612 Li2554 1.961 . S
O2612 C2556 1.325 . S
O2613 Li2552 1.970 . S
O2613 Li2553 1.956 . S
O2613 Li2555 1.961 . S
O2613 C2562 1.325 . S
O2614 Li2552 1.961 . S
O2614 Li2554 1.956 . S
O2614 Li2555 1.970 . S
O2614 C2584 1.325 . S
O2615 Li2553 1.961 . S
O2615 Li2554 1.970 . S
O2615 Li2555 1.956 . S
O2615 C2590 1.325 . S
H2616 C2558 0.929 . S
H2617 C2559 0.930 . S
H2618 C2560 0.930 . S
H2619 C2561 0.930 . S
H2620 C2563 0.930 . S
H2621 C2565 0.929 . S
H2622 C2566 0.930 . S
H2623 C2567 0.930 . S
H2624 C2570 0.930 . S
H2625 C2573 0.929 . S
H2626 C2578 0.929 . S
H2627 C2579 0.930 . S
H2628 C2586 0.929 . S
H2629 C2587 0.930 . S
H2630 C2588 0.930 . S
H2631 C2589 0.930 . S
H2632 C2591 0.929 . S
H2633 C2592 0.930 . S
H2634 C2593 0.930 . S
H2635 C2594 0.930 . S
H2636 C2598 0.929 . S
H2637 C2600 0.930 . S
H2638 C2606 0.929 . S
H2639 C2607 0.930 . S
Li2640 N2657 1.990 . S
Li2640 O2700 1.956 . S
Li2640 O2701 1.970 . S
Li2640 O2702 1.961 . S
Li2641 N2665 1.990 . S
Li2641 O2700 1.970 . S
Li2641 O2701 1.956 . S
Li2641 O2703 1.961 . S
Li2642 N2687 1.990 . S
Li2642 O2700 1.961 . S
Li2642 O2702 1.956 . S
Li2642 O2703 1.970 . S
Li2643 N2693 1.990 . S
Li2643 O2701 1.961 . S
Li2643 O2702 1.970 . S
Li2643 O2703 1.956 . S
C2644 C2646 1.348 . S
C2644 C2647 1.356 . S
C2644 O2700 1.325 . S
N2645 C2648 1.314 . S
N2645 C2649 1.279 . S
C2646 C2644 1.348 . S
C2646 C2648 1.353 . S
C2646 H2704 0.929 . S
C2647 C2644 1.356 . S
C2647 C2649 1.358 . S
C2647 H2705 0.930 . S
C2648 N2645 1.314 . S
C2648 C2646 1.353 . S
C2648 H2706 0.930 . S
C2649 N2645 1.279 . S
C2649 C2647 1.358 . S
C2649 H2707 0.930 . S
C2650 C2653 1.348 . S
C2650 C2654 1.356 . S
C2650 O2701 1.325 . S
C2651 N2652 1.279 . S
C2651 C2654 1.358 . S
C2651 H2708 0.930 . S
N2652 C2651 1.279 . S
N2652 C2655 1.314 . S
C2653 C2650 1.348 . S
C2653 C2655 1.353 . S
C2653 H2709 0.929 . S
C2654 C2650 1.356 . S
C2654 C2651 1.358 . S
C2654 H2710 0.930 . S
C2655 N2652 1.314 . S
C2655 C2653 1.353 . S
C2655 H2711 0.930 . S
C2656 N2657 1.314 . S
C2656 C2661 1.353 . S
C2656 H2662 0.930 . S
N2657 Li2640 1.990 . S
N2657 C2656 1.314 . S
N2657 C2659 1.279 . S
C2658 C2659 1.358 . S
C2658 C2660 1.356 . S
C2658 H2712 0.930 . S
C2659 N2657 1.279 . S
C2659 C2658 1.358 . S
C2659 H2663 0.930 . S
C2660 C2658 1.356 . S
C2660 C2661 1.348 . S
C2661 C2656 1.353 . S
C2661 C2660 1.348 . S
C2661 H2713 0.929 . S
H2662 C2656 0.930 . S
H2663 C2659 0.930 . S
C2664 N2665 1.314 . S
C2664 C2666 1.353 . S
C2664 H2670 0.930 . S
N2665 Li2641 1.990 . S
N2665 C2664 1.314 . S
N2665 C2668 1.279 . S
C2666 C2664 1.353 . S
C2666 C2669 1.348 . S
C2666 H2714 0.929 . S
C2667 C2668 1.358 . S
C2667 C2669 1.356 . S
C2667 H2715 0.930 . S
C2668 N2665 1.279 . S
C2668 C2667 1.358 . S
C2668 H2671 0.930 . S
C2669 C2666 1.348 . S
C2669 C2667 1.356 . S
H2670 C2664 0.930 . S
H2671 C2668 0.930 . S
C2672 C2674 1.348 . S
C2672 C2675 1.356 . S
C2672 O2702 1.325 . S
N2673 C2676 1.314 . S
N2673 C2677 1.279 . S
C2674 C2672 1.348 . S
C2674 C2676 1.353 . S
C2674 H2716 0.929 . S
C2675 C2672 1.356 . S
C2675 C2677 1.358 . S
C2675 H2717 0.930 . S
C2676 N2673 1.314 . S
C2676 C2674 1.353 . S
C2676 H2718 0.930 . S
C2677 N2673 1.279 . S
C2677 C2675 1.358 . S
C2677 H2719 0.930 . S
C2678 C2679 1.348 . S
C2678 C2680 1.356 . S
C2678 O2703 1.325 . S
C2679 C2678 1.348 . S
C2679 C2681 1.353 . S
C2679 H2720 0.929 . S
C2680 C2678 1.356 . S
C2680 C2682 1.358 . S
C2680 H2721 0.930 . S
C2681 C2679 1.353 . S
C2681 N2683 1.314 . S
C2681 H2722 0.930 . S
C2682 C2680 1.358 . S
C2682 N2683 1.279 . S
C2682 H2723 0.930 . S
N2683 C2681 1.314 . S
N2683 C2682 1.279 . S
C2684 C2686 1.353 . S
C2684 N2687 1.314 . S
C2684 H2690 0.930 . S
C2685 N2687 1.279 . S
C2685 C2688 1.358 . S
C2685 H2691 0.930 . S
C2686 C2684 1.353 . S
C2686 C2689 1.348 . S
C2686 H2724 0.929 . S
N2687 Li2642 1.990 . S
N2687 C2684 1.314 . S
N2687 C2685 1.279 . S
C2688 C2685 1.358 . S
C2688 C2689 1.356 . S
C2688 H2725 0.930 . S
C2689 C2686 1.348 . S
C2689 C2688 1.356 . S
H2690 C2684 0.930 . S
H2691 C2685 0.930 . S
C2692 N2693 1.314 . S
C2692 C2694 1.353 . S
C2692 H2698 0.930 . S
N2693 Li2643 1.990 . S
N2693 C2692 1.314 . S
N2693 C2696 1.279 . S
C2694 C2692 1.353 . S
C2694 C2697 1.348 . S
C2694 H2726 0.929 . S
C2695 C2696 1.358 . S
C2695 C2697 1.356 . S
C2695 H2727 0.930 . S
C2696 N2693 1.279 . S
C2696 C2695 1.358 . S
C2696 H2699 0.930 . S
C2697 C2694 1.348 . S
C2697 C2695 1.356 . S
H2698 C2692 0.930 . S
H2699 C2696 0.930 . S
O2700 Li2640 1.956 . S
O2700 Li2641 1.970 . S
O2700 Li2642 1.961 . S
O2700 C2644 1.325 . S
O2701 Li2640 1.970 . S
O2701 Li2641 1.956 . S
O2701 Li2643 1.961 . S
O2701 C2650 1.325 . S
O2702 Li2640 1.961 . S
O2702 Li2642 1.956 . S
O2702 Li2643 1.970 . S
O2702 C2672 1.325 . S
O2703 Li2641 1.961 . S
O2703 Li2642 1.970 . S
O2703 Li2643 1.956 . S
O2703 C2678 1.325 . S
H2704 C2646 0.929 . S
H2705 C2647 0.930 . S
H2706 C2648 0.930 . S
H2707 C2649 0.930 . S
H2708 C2651 0.930 . S
H2709 C2653 0.929 . S
H2710 C2654 0.930 . S
H2711 C2655 0.930 . S
H2712 C2658 0.930 . S
H2713 C2661 0.929 . S
H2714 C2666 0.929 . S
H2715 C2667 0.930 . S
H2716 C2674 0.929 . S
H2717 C2675 0.930 . S
H2718 C2676 0.930 . S
H2719 C2677 0.930 . S
H2720 C2679 0.929 . S
H2721 C2680 0.930 . S
H2722 C2681 0.930 . S
H2723 C2682 0.930 . S
H2724 C2686 0.929 . S
H2725 C2688 0.930 . S
H2726 C2694 0.929 . S
H2727 C2695 0.930 . S
Li2728 N2745 1.990 . S
Li2728 O2788 1.956 . S
Li2728 O2789 1.970 . S
Li2728 O2790 1.961 . S
Li2729 N2753 1.990 . S
Li2729 O2788 1.970 . S
Li2729 O2789 1.956 . S
Li2729 O2791 1.961 . S
Li2730 N2775 1.990 . S
Li2730 O2788 1.961 . S
Li2730 O2790 1.956 . S
Li2730 O2791 1.970 . S
Li2731 N2781 1.990 . S
Li2731 O2789 1.961 . S
Li2731 O2790 1.970 . S
Li2731 O2791 1.956 . S
C2732 C2734 1.348 . S
C2732 C2735 1.356 . S
C2732 O2788 1.325 . S
N2733 C2736 1.314 . S
N2733 C2737 1.279 . S
C2734 C2732 1.348 . S
C2734 C2736 1.353 . S
C2734 H2792 0.929 . S
C2735 C2732 1.356 . S
C2735 C2737 1.358 . S
C2735 H2793 0.930 . S
C2736 N2733 1.314 . S
C2736 C2734 1.353 . S
C2736 H2794 0.930 . S
C2737 N2733 1.279 . S
C2737 C2735 1.358 . S
C2737 H2795 0.930 . S
C2738 C2741 1.348 . S
C2738 C2742 1.356 . S
C2738 O2789 1.325 . S
C2739 N2740 1.279 . S
C2739 C2742 1.358 . S
C2739 H2796 0.930 . S
N2740 C2739 1.279 . S
N2740 C2743 1.314 . S
C2741 C2738 1.348 . S
C2741 C2743 1.353 . S
C2741 H2797 0.929 . S
C2742 C2738 1.356 . S
C2742 C2739 1.358 . S
C2742 H2798 0.930 . S
C2743 N2740 1.314 . S
C2743 C2741 1.353 . S
C2743 H2799 0.930 . S
C2744 N2745 1.314 . S
C2744 C2749 1.353 . S
C2744 H2750 0.930 . S
N2745 Li2728 1.990 . S
N2745 C2744 1.314 . S
N2745 C2747 1.279 . S
C2746 C2747 1.358 . S
C2746 C2748 1.356 . S
C2746 H2800 0.930 . S
C2747 N2745 1.279 . S
C2747 C2746 1.358 . S
C2747 H2751 0.930 . S
C2748 C2746 1.356 . S
C2748 C2749 1.348 . S
C2749 C2744 1.353 . S
C2749 C2748 1.348 . S
C2749 H2801 0.929 . S
H2750 C2744 0.930 . S
H2751 C2747 0.930 . S
C2752 N2753 1.314 . S
C2752 C2754 1.353 . S
C2752 H2758 0.930 . S
N2753 Li2729 1.990 . S
N2753 C2752 1.314 . S
N2753 C2756 1.279 . S
C2754 C2752 1.353 . S
C2754 C2757 1.348 . S
C2754 H2802 0.929 . S
C2755 C2756 1.358 . S
C2755 C2757 1.356 . S
C2755 H2803 0.930 . S
C2756 N2753 1.279 . S
C2756 C2755 1.358 . S
C2756 H2759 0.930 . S
C2757 C2754 1.348 . S
C2757 C2755 1.356 . S
H2758 C2752 0.930 . S
H2759 C2756 0.930 . S
C2760 C2762 1.348 . S
C2760 C2763 1.356 . S
C2760 O2790 1.325 . S
N2761 C2764 1.314 . S
N2761 C2765 1.279 . S
C2762 C2760 1.348 . S
C2762 C2764 1.353 . S
C2762 H2804 0.929 . S
C2763 C2760 1.356 . S
C2763 C2765 1.358 . S
C2763 H2805 0.930 . S
C2764 N2761 1.314 . S
C2764 C2762 1.353 . S
C2764 H2806 0.930 . S
C2765 N2761 1.279 . S
C2765 C2763 1.358 . S
C2765 H2807 0.930 . S
C2766 C2767 1.348 . S
C2766 C2768 1.356 . S
C2766 O2791 1.325 . S
C2767 C2766 1.348 . S
C2767 C2769 1.353 . S
C2767 H2808 0.929 . S
C2768 C2766 1.356 . S
C2768 C2770 1.358 . S
C2768 H2809 0.930 . S
C2769 C2767 1.353 . S
C2769 N2771 1.314 . S
C2769 H2810 0.930 . S
C2770 C2768 1.358 . S
C2770 N2771 1.279 . S
C2770 H2811 0.930 . S
N2771 C2769 1.314 . S
N2771 C2770 1.279 . S
C2772 C2774 1.353 . S
C2772 N2775 1.314 . S
C2772 H2778 0.930 . S
C2773 N2775 1.279 . S
C2773 C2776 1.358 . S
C2773 H2779 0.930 . S
C2774 C2772 1.353 . S
C2774 C2777 1.348 . S
C2774 H2812 0.929 . S
N2775 Li2730 1.990 . S
N2775 C2772 1.314 . S
N2775 C2773 1.279 . S
C2776 C2773 1.358 . S
C2776 C2777 1.356 . S
C2776 H2813 0.930 . S
C2777 C2774 1.348 . S
C2777 C2776 1.356 . S
H2778 C2772 0.930 . S
H2779 C2773 0.930 . S
C2780 N2781 1.314 . S
C2780 C2782 1.353 . S
C2780 H2786 0.930 . S
N2781 Li2731 1.990 . S
N2781 C2780 1.314 . S
N2781 C2784 1.279 . S
C2782 C2780 1.353 . S
C2782 C2785 1.348 . S
C2782 H2814 0.929 . S
C2783 C2784 1.358 . S
C2783 C2785 1.356 . S
C2783 H2815 0.930 . S
C2784 N2781 1.279 . S
C2784 C2783 1.358 . S
C2784 H2787 0.930 . S
C2785 C2782 1.348 . S
C2785 C2783 1.356 . S
H2786 C2780 0.930 . S
H2787 C2784 0.930 . S
O2788 Li2728 1.956 . S
O2788 Li2729 1.970 . S
O2788 Li2730 1.961 . S
O2788 C2732 1.325 . S
O2789 Li2728 1.970 . S
O2789 Li2729 1.956 . S
O2789 Li2731 1.961 . S
O2789 C2738 1.325 . S
O2790 Li2728 1.961 . S
O2790 Li2730 1.956 . S
O2790 Li2731 1.970 . S
O2790 C2760 1.325 . S
O2791 Li2729 1.961 . S
O2791 Li2730 1.970 . S
O2791 Li2731 1.956 . S
O2791 C2766 1.325 . S
H2792 C2734 0.929 . S
H2793 C2735 0.930 . S
H2794 C2736 0.930 . S
H2795 C2737 0.930 . S
H2796 C2739 0.930 . S
H2797 C2741 0.929 . S
H2798 C2742 0.930 . S
H2799 C2743 0.930 . S
H2800 C2746 0.930 . S
H2801 C2749 0.929 . S
H2802 C2754 0.929 . S
H2803 C2755 0.930 . S
H2804 C2762 0.929 . S
H2805 C2763 0.930 . S
H2806 C2764 0.930 . S
H2807 C2765 0.930 . S
H2808 C2767 0.929 . S
H2809 C2768 0.930 . S
H2810 C2769 0.930 . S
H2811 C2770 0.930 . S
H2812 C2774 0.929 . S
H2813 C2776 0.930 . S
H2814 C2782 0.929 . S
H2815 C2783 0.930 . S
Li2816 N2833 1.990 . S
Li2816 O2876 1.956 . S
Li2816 O2877 1.970 . S
Li2816 O2878 1.961 . S
Li2817 N2841 1.990 . S
Li2817 O2876 1.970 . S
Li2817 O2877 1.956 . S
Li2817 O2879 1.961 . S
Li2818 N2863 1.990 . S
Li2818 O2876 1.961 . S
Li2818 O2878 1.956 . S
Li2818 O2879 1.970 . S
Li2819 N2869 1.990 . S
Li2819 O2877 1.961 . S
Li2819 O2878 1.970 . S
Li2819 O2879 1.956 . S
C2820 C2822 1.348 . S
C2820 C2823 1.356 . S
C2820 O2876 1.325 . S
N2821 C2824 1.314 . S
N2821 C2825 1.279 . S
C2822 C2820 1.348 . S
C2822 C2824 1.353 . S
C2822 H2880 0.929 . S
C2823 C2820 1.356 . S
C2823 C2825 1.358 . S
C2823 H2881 0.930 . S
C2824 N2821 1.314 . S
C2824 C2822 1.353 . S
C2824 H2882 0.930 . S
C2825 N2821 1.279 . S
C2825 C2823 1.358 . S
C2825 H2883 0.930 . S
C2826 C2829 1.348 . S
C2826 C2830 1.356 . S
C2826 O2877 1.325 . S
C2827 N2828 1.279 . S
C2827 C2830 1.358 . S
C2827 H2884 0.930 . S
N2828 C2827 1.279 . S
N2828 C2831 1.314 . S
C2829 C2826 1.348 . S
C2829 C2831 1.353 . S
C2829 H2885 0.929 . S
C2830 C2826 1.356 . S
C2830 C2827 1.358 . S
C2830 H2886 0.930 . S
C2831 N2828 1.314 . S
C2831 C2829 1.353 . S
C2831 H2887 0.930 . S
C2832 N2833 1.314 . S
C2832 C2837 1.353 . S
C2832 H2838 0.930 . S
N2833 Li2816 1.990 . S
N2833 C2832 1.314 . S
N2833 C2835 1.279 . S
C2834 C2835 1.358 . S
C2834 C2836 1.356 . S
C2834 H2888 0.930 . S
C2835 N2833 1.279 . S
C2835 C2834 1.358 . S
C2835 H2839 0.930 . S
C2836 C2834 1.356 . S
C2836 C2837 1.348 . S
C2837 C2832 1.353 . S
C2837 C2836 1.348 . S
C2837 H2889 0.929 . S
H2838 C2832 0.930 . S
H2839 C2835 0.930 . S
C2840 N2841 1.314 . S
C2840 C2842 1.353 . S
C2840 H2846 0.930 . S
N2841 Li2817 1.990 . S
N2841 C2840 1.314 . S
N2841 C2844 1.279 . S
C2842 C2840 1.353 . S
C2842 C2845 1.348 . S
C2842 H2890 0.929 . S
C2843 C2844 1.358 . S
C2843 C2845 1.356 . S
C2843 H2891 0.930 . S
C2844 N2841 1.279 . S
C2844 C2843 1.358 . S
C2844 H2847 0.930 . S
C2845 C2842 1.348 . S
C2845 C2843 1.356 . S
H2846 C2840 0.930 . S
H2847 C2844 0.930 . S
C2848 C2850 1.348 . S
C2848 C2851 1.356 . S
C2848 O2878 1.325 . S
N2849 C2852 1.314 . S
N2849 C2853 1.279 . S
C2850 C2848 1.348 . S
C2850 C2852 1.353 . S
C2850 H2892 0.929 . S
C2851 C2848 1.356 . S
C2851 C2853 1.358 . S
C2851 H2893 0.930 . S
C2852 N2849 1.314 . S
C2852 C2850 1.353 . S
C2852 H2894 0.930 . S
C2853 N2849 1.279 . S
C2853 C2851 1.358 . S
C2853 H2895 0.930 . S
C2854 C2855 1.348 . S
C2854 C2856 1.356 . S
C2854 O2879 1.325 . S
C2855 C2854 1.348 . S
C2855 C2857 1.353 . S
C2855 H2896 0.929 . S
C2856 C2854 1.356 . S
C2856 C2858 1.358 . S
C2856 H2897 0.930 . S
C2857 C2855 1.353 . S
C2857 N2859 1.314 . S
C2857 H2898 0.930 . S
C2858 C2856 1.358 . S
C2858 N2859 1.279 . S
C2858 H2899 0.930 . S
N2859 C2857 1.314 . S
N2859 C2858 1.279 . S
C2860 C2862 1.353 . S
C2860 N2863 1.314 . S
C2860 H2866 0.930 . S
C2861 N2863 1.279 . S
C2861 C2864 1.358 . S
C2861 H2867 0.930 . S
C2862 C2860 1.353 . S
C2862 C2865 1.348 . S
C2862 H2900 0.929 . S
N2863 Li2818 1.990 . S
N2863 C2860 1.314 . S
N2863 C2861 1.279 . S
C2864 C2861 1.358 . S
C2864 C2865 1.356 . S
C2864 H2901 0.930 . S
C2865 C2862 1.348 . S
C2865 C2864 1.356 . S
H2866 C2860 0.930 . S
H2867 C2861 0.930 . S
C2868 N2869 1.314 . S
C2868 C2870 1.353 . S
C2868 H2874 0.930 . S
N2869 Li2819 1.990 . S
N2869 C2868 1.314 . S
N2869 C2872 1.279 . S
C2870 C2868 1.353 . S
C2870 C2873 1.348 . S
C2870 H2902 0.929 . S
C2871 C2872 1.358 . S
C2871 C2873 1.356 . S
C2871 H2903 0.930 . S
C2872 N2869 1.279 . S
C2872 C2871 1.358 . S
C2872 H2875 0.930 . S
C2873 C2870 1.348 . S
C2873 C2871 1.356 . S
H2874 C2868 0.930 . S
H2875 C2872 0.930 . S
O2876 Li2816 1.956 . S
O2876 Li2817 1.970 . S
O2876 Li2818 1.961 . S
O2876 C2820 1.325 . S
O2877 Li2816 1.970 . S
O2877 Li2817 1.956 . S
O2877 Li2819 1.961 . S
O2877 C2826 1.325 . S
O2878 Li2816 1.961 . S
O2878 Li2818 1.956 . S
O2878 Li2819 1.970 . S
O2878 C2848 1.325 . S
O2879 Li2817 1.961 . S
O2879 Li2818 1.970 . S
O2879 Li2819 1.956 . S
O2879 C2854 1.325 . S
H2880 C2822 0.929 . S
H2881 C2823 0.930 . S
H2882 C2824 0.930 . S
H2883 C2825 0.930 . S
H2884 C2827 0.930 . S
H2885 C2829 0.929 . S
H2886 C2830 0.930 . S
H2887 C2831 0.930 . S
H2888 C2834 0.930 . S
H2889 C2837 0.929 . S
H2890 C2842 0.929 . S
H2891 C2843 0.930 . S
H2892 C2850 0.929 . S
H2893 C2851 0.930 . S
H2894 C2852 0.930 . S
H2895 C2853 0.930 . S
H2896 C2855 0.929 . S
H2897 C2856 0.930 . S
H2898 C2857 0.930 . S
H2899 C2858 0.930 . S
H2900 C2862 0.929 . S
H2901 C2864 0.930 . S
H2902 C2870 0.929 . S
H2903 C2871 0.930 . S
Li2904 N2921 1.990 . S
Li2904 O2964 1.956 . S
Li2904 O2965 1.970 . S
Li2904 O2966 1.961 . S
Li2905 N2929 1.990 . S
Li2905 O2964 1.970 . S
Li2905 O2965 1.956 . S
Li2905 O2967 1.961 . S
Li2906 N2951 1.990 . S
Li2906 O2964 1.961 . S
Li2906 O2966 1.956 . S
Li2906 O2967 1.970 . S
Li2907 N2957 1.990 . S
Li2907 O2965 1.961 . S
Li2907 O2966 1.970 . S
Li2907 O2967 1.956 . S
C2908 C2910 1.348 . S
C2908 C2911 1.356 . S
C2908 O2964 1.325 . S
N2909 C2912 1.314 . S
N2909 C2913 1.279 . S
C2910 C2908 1.348 . S
C2910 C2912 1.353 . S
C2910 H2968 0.929 . S
C2911 C2908 1.356 . S
C2911 C2913 1.358 . S
C2911 H2969 0.930 . S
C2912 N2909 1.314 . S
C2912 C2910 1.353 . S
C2912 H2970 0.930 . S
C2913 N2909 1.279 . S
C2913 C2911 1.358 . S
C2913 H2971 0.930 . S
C2914 C2917 1.348 . S
C2914 C2918 1.356 . S
C2914 O2965 1.325 . S
C2915 N2916 1.279 . S
C2915 C2918 1.358 . S
C2915 H2972 0.930 . S
N2916 C2915 1.279 . S
N2916 C2919 1.314 . S
C2917 C2914 1.348 . S
C2917 C2919 1.353 . S
C2917 H2973 0.929 . S
C2918 C2914 1.356 . S
C2918 C2915 1.358 . S
C2918 H2974 0.930 . S
C2919 N2916 1.314 . S
C2919 C2917 1.353 . S
C2919 H2975 0.930 . S
C2920 N2921 1.314 . S
C2920 C2925 1.353 . S
C2920 H2926 0.930 . S
N2921 Li2904 1.990 . S
N2921 C2920 1.314 . S
N2921 C2923 1.279 . S
C2922 C2923 1.358 . S
C2922 C2924 1.356 . S
C2922 H2976 0.930 . S
C2923 N2921 1.279 . S
C2923 C2922 1.358 . S
C2923 H2927 0.930 . S
C2924 C2922 1.356 . S
C2924 C2925 1.348 . S
C2925 C2920 1.353 . S
C2925 C2924 1.348 . S
C2925 H2977 0.929 . S
H2926 C2920 0.930 . S
H2927 C2923 0.930 . S
C2928 N2929 1.314 . S
C2928 C2930 1.353 . S
C2928 H2934 0.930 . S
N2929 Li2905 1.990 . S
N2929 C2928 1.314 . S
N2929 C2932 1.279 . S
C2930 C2928 1.353 . S
C2930 C2933 1.348 . S
C2930 H2978 0.929 . S
C2931 C2932 1.358 . S
C2931 C2933 1.356 . S
C2931 H2979 0.930 . S
C2932 N2929 1.279 . S
C2932 C2931 1.358 . S
C2932 H2935 0.930 . S
C2933 C2930 1.348 . S
C2933 C2931 1.356 . S
H2934 C2928 0.930 . S
H2935 C2932 0.930 . S
C2936 C2938 1.348 . S
C2936 C2939 1.356 . S
C2936 O2966 1.325 . S
N2937 C2940 1.314 . S
N2937 C2941 1.279 . S
C2938 C2936 1.348 . S
C2938 C2940 1.353 . S
C2938 H2980 0.929 . S
C2939 C2936 1.356 . S
C2939 C2941 1.358 . S
C2939 H2981 0.930 . S
C2940 N2937 1.314 . S
C2940 C2938 1.353 . S
C2940 H2982 0.930 . S
C2941 N2937 1.279 . S
C2941 C2939 1.358 . S
C2941 H2983 0.930 . S
C2942 C2943 1.348 . S
C2942 C2944 1.356 . S
C2942 O2967 1.325 . S
C2943 C2942 1.348 . S
C2943 C2945 1.353 . S
C2943 H2984 0.929 . S
C2944 C2942 1.356 . S
C2944 C2946 1.358 . S
C2944 H2985 0.930 . S
C2945 C2943 1.353 . S
C2945 N2947 1.314 . S
C2945 H2986 0.930 . S
C2946 C2944 1.358 . S
C2946 N2947 1.279 . S
C2946 H2987 0.930 . S
N2947 C2945 1.314 . S
N2947 C2946 1.279 . S
C2948 C2950 1.353 . S
C2948 N2951 1.314 . S
C2948 H2954 0.930 . S
C2949 N2951 1.279 . S
C2949 C2952 1.358 . S
C2949 H2955 0.930 . S
C2950 C2948 1.353 . S
C2950 C2953 1.348 . S
C2950 H2988 0.929 . S
N2951 Li2906 1.990 . S
N2951 C2948 1.314 . S
N2951 C2949 1.279 . S
C2952 C2949 1.358 . S
C2952 C2953 1.356 . S
C2952 H2989 0.930 . S
C2953 C2950 1.348 . S
C2953 C2952 1.356 . S
H2954 C2948 0.930 . S
H2955 C2949 0.930 . S
C2956 N2957 1.314 . S
C2956 C2958 1.353 . S
C2956 H2962 0.930 . S
N2957 Li2907 1.990 . S
N2957 C2956 1.314 . S
N2957 C2960 1.279 . S
C2958 C2956 1.353 . S
C2958 C2961 1.348 . S
C2958 H2990 0.929 . S
C2959 C2960 1.358 . S
C2959 C2961 1.356 . S
C2959 H2991 0.930 . S
C2960 N2957 1.279 . S
C2960 C2959 1.358 . S
C2960 H2963 0.930 . S
C2961 C2958 1.348 . S
C2961 C2959 1.356 . S
H2962 C2956 0.930 . S
H2963 C2960 0.930 . S
O2964 Li2904 1.956 . S
O2964 Li2905 1.970 . S
O2964 Li2906 1.961 . S
O2964 C2908 1.325 . S
O2965 Li2904 1.970 . S
O2965 Li2905 1.956 . S
O2965 Li2907 1.961 . S
O2965 C2914 1.325 . S
O2966 Li2904 1.961 . S
O2966 Li2906 1.956 . S
O2966 Li2907 1.970 . S
O2966 C2936 1.325 . S
O2967 Li2905 1.961 . S
O2967 Li2906 1.970 . S
O2967 Li2907 1.956 . S
O2967 C2942 1.325 . S
H2968 C2910 0.929 . S
H2969 C2911 0.930 . S
H2970 C2912 0.930 . S
H2971 C2913 0.930 . S
H2972 C2915 0.930 . S
H2973 C2917 0.929 . S
H2974 C2918 0.930 . S
H2975 C2919 0.930 . S
H2976 C2922 0.930 . S
H2977 C2925 0.929 . S
H2978 C2930 0.929 . S
H2979 C2931 0.930 . S
H2980 C2938 0.929 . S
H2981 C2939 0.930 . S
H2982 C2940 0.930 . S
H2983 C2941 0.930 . S
H2984 C2943 0.929 . S
H2985 C2944 0.930 . S
H2986 C2945 0.930 . S
H2987 C2946 0.930 . S
H2988 C2950 0.929 . S
H2989 C2952 0.930 . S
H2990 C2958 0.929 . S
H2991 C2959 0.930 . S
Li2992 N3009 1.990 . S
Li2992 O3052 1.956 . S
Li2992 O3053 1.970 . S
Li2992 O3054 1.961 . S
Li2993 N3017 1.990 . S
Li2993 O3052 1.970 . S
Li2993 O3053 1.956 . S
Li2993 O3055 1.961 . S
Li2994 N3039 1.990 . S
Li2994 O3052 1.961 . S
Li2994 O3054 1.956 . S
Li2994 O3055 1.970 . S
Li2995 N3045 1.990 . S
Li2995 O3053 1.961 . S
Li2995 O3054 1.970 . S
Li2995 O3055 1.956 . S
C2996 C2998 1.348 . S
C2996 C2999 1.356 . S
C2996 O3052 1.325 . S
N2997 C3000 1.314 . S
N2997 C3001 1.279 . S
C2998 C2996 1.348 . S
C2998 C3000 1.353 . S
C2998 H3056 0.929 . S
C2999 C2996 1.356 . S
C2999 C3001 1.358 . S
C2999 H3057 0.930 . S
C3000 N2997 1.314 . S
C3000 C2998 1.353 . S
C3000 H3058 0.930 . S
C3001 N2997 1.279 . S
C3001 C2999 1.358 . S
C3001 H3059 0.930 . S
C3002 C3005 1.348 . S
C3002 C3006 1.356 . S
C3002 O3053 1.325 . S
C3003 N3004 1.279 . S
C3003 C3006 1.358 . S
C3003 H3060 0.930 . S
N3004 C3003 1.279 . S
N3004 C3007 1.314 . S
C3005 C3002 1.348 . S
C3005 C3007 1.353 . S
C3005 H3061 0.929 . S
C3006 C3002 1.356 . S
C3006 C3003 1.358 . S
C3006 H3062 0.930 . S
C3007 N3004 1.314 . S
C3007 C3005 1.353 . S
C3007 H3063 0.930 . S
C3008 N3009 1.314 . S
C3008 C3013 1.353 . S
C3008 H3014 0.930 . S
N3009 Li2992 1.990 . S
N3009 C3008 1.314 . S
N3009 C3011 1.279 . S
C3010 C3011 1.358 . S
C3010 C3012 1.356 . S
C3010 H3064 0.930 . S
C3011 N3009 1.279 . S
C3011 C3010 1.358 . S
C3011 H3015 0.930 . S
C3012 C3010 1.356 . S
C3012 C3013 1.348 . S
C3013 C3008 1.353 . S
C3013 C3012 1.348 . S
C3013 H3065 0.929 . S
H3014 C3008 0.930 . S
H3015 C3011 0.930 . S
C3016 N3017 1.314 . S
C3016 C3018 1.353 . S
C3016 H3022 0.930 . S
N3017 Li2993 1.990 . S
N3017 C3016 1.314 . S
N3017 C3020 1.279 . S
C3018 C3016 1.353 . S
C3018 C3021 1.348 . S
C3018 H3066 0.929 . S
C3019 C3020 1.358 . S
C3019 C3021 1.356 . S
C3019 H3067 0.930 . S
C3020 N3017 1.279 . S
C3020 C3019 1.358 . S
C3020 H3023 0.930 . S
C3021 C3018 1.348 . S
C3021 C3019 1.356 . S
H3022 C3016 0.930 . S
H3023 C3020 0.930 . S
C3024 C3026 1.348 . S
C3024 C3027 1.356 . S
C3024 O3054 1.325 . S
N3025 C3028 1.314 . S
N3025 C3029 1.279 . S
C3026 C3024 1.348 . S
C3026 C3028 1.353 . S
C3026 H3068 0.929 . S
C3027 C3024 1.356 . S
C3027 C3029 1.358 . S
C3027 H3069 0.930 . S
C3028 N3025 1.314 . S
C3028 C3026 1.353 . S
C3028 H3070 0.930 . S
C3029 N3025 1.279 . S
C3029 C3027 1.358 . S
C3029 H3071 0.930 . S
C3030 C3031 1.348 . S
C3030 C3032 1.356 . S
C3030 O3055 1.325 . S
C3031 C3030 1.348 . S
C3031 C3033 1.353 . S
C3031 H3072 0.929 . S
C3032 C3030 1.356 . S
C3032 C3034 1.358 . S
C3032 H3073 0.930 . S
C3033 C3031 1.353 . S
C3033 N3035 1.314 . S
C3033 H3074 0.930 . S
C3034 C3032 1.358 . S
C3034 N3035 1.279 . S
C3034 H3075 0.930 . S
N3035 C3033 1.314 . S
N3035 C3034 1.279 . S
C3036 C3038 1.353 . S
C3036 N3039 1.314 . S
C3036 H3042 0.930 . S
C3037 N3039 1.279 . S
C3037 C3040 1.358 . S
C3037 H3043 0.930 . S
C3038 C3036 1.353 . S
C3038 C3041 1.348 . S
C3038 H3076 0.929 . S
N3039 Li2994 1.990 . S
N3039 C3036 1.314 . S
N3039 C3037 1.279 . S
C3040 C3037 1.358 . S
C3040 C3041 1.356 . S
C3040 H3077 0.930 . S
C3041 C3038 1.348 . S
C3041 C3040 1.356 . S
H3042 C3036 0.930 . S
H3043 C3037 0.930 . S
C3044 N3045 1.314 . S
C3044 C3046 1.353 . S
C3044 H3050 0.930 . S
N3045 Li2995 1.990 . S
N3045 C3044 1.314 . S
N3045 C3048 1.279 . S
C3046 C3044 1.353 . S
C3046 C3049 1.348 . S
C3046 H3078 0.929 . S
C3047 C3048 1.358 . S
C3047 C3049 1.356 . S
C3047 H3079 0.930 . S
C3048 N3045 1.279 . S
C3048 C3047 1.358 . S
C3048 H3051 0.930 . S
C3049 C3046 1.348 . S
C3049 C3047 1.356 . S
H3050 C3044 0.930 . S
H3051 C3048 0.930 . S
O3052 Li2992 1.956 . S
O3052 Li2993 1.970 . S
O3052 Li2994 1.961 . S
O3052 C2996 1.325 . S
O3053 Li2992 1.970 . S
O3053 Li2993 1.956 . S
O3053 Li2995 1.961 . S
O3053 C3002 1.325 . S
O3054 Li2992 1.961 . S
O3054 Li2994 1.956 . S
O3054 Li2995 1.970 . S
O3054 C3024 1.325 . S
O3055 Li2993 1.961 . S
O3055 Li2994 1.970 . S
O3055 Li2995 1.956 . S
O3055 C3030 1.325 . S
H3056 C2998 0.929 . S
H3057 C2999 0.930 . S
H3058 C3000 0.930 . S
H3059 C3001 0.930 . S
H3060 C3003 0.930 . S
H3061 C3005 0.929 . S
H3062 C3006 0.930 . S
H3063 C3007 0.930 . S
H3064 C3010 0.930 . S
H3065 C3013 0.929 . S
H3066 C3018 0.929 . S
H3067 C3019 0.930 . S
H3068 C3026 0.929 . S
H3069 C3027 0.930 . S
H3070 C3028 0.930 . S
H3071 C3029 0.930 . S
H3072 C3031 0.929 . S
H3073 C3032 0.930 . S
H3074 C3033 0.930 . S
H3075 C3034 0.930 . S
H3076 C3038 0.929 . S
H3077 C3040 0.930 . S
H3078 C3046 0.929 . S
H3079 C3047 0.930 . S
Li3080 N3097 1.990 . S
Li3080 O3140 1.956 . S
Li3080 O3141 1.970 . S
Li3080 O3142 1.961 . S
Li3081 N3105 1.990 . S
Li3081 O3140 1.970 . S
Li3081 O3141 1.956 . S
Li3081 O3143 1.961 . S
Li3082 N3127 1.990 . S
Li3082 O3140 1.961 . S
Li3082 O3142 1.956 . S
Li3082 O3143 1.970 . S
Li3083 N3133 1.990 . S
Li3083 O3141 1.961 . S
Li3083 O3142 1.970 . S
Li3083 O3143 1.956 . S
C3084 C3086 1.348 . S
C3084 C3087 1.356 . S
C3084 O3140 1.325 . S
N3085 C3088 1.314 . S
N3085 C3089 1.279 . S
C3086 C3084 1.348 . S
C3086 C3088 1.353 . S
C3086 H3144 0.929 . S
C3087 C3084 1.356 . S
C3087 C3089 1.358 . S
C3087 H3145 0.930 . S
C3088 N3085 1.314 . S
C3088 C3086 1.353 . S
C3088 H3146 0.930 . S
C3089 N3085 1.279 . S
C3089 C3087 1.358 . S
C3089 H3147 0.930 . S
C3090 C3093 1.348 . S
C3090 C3094 1.356 . S
C3090 O3141 1.325 . S
C3091 N3092 1.279 . S
C3091 C3094 1.358 . S
C3091 H3148 0.930 . S
N3092 C3091 1.279 . S
N3092 C3095 1.314 . S
C3093 C3090 1.348 . S
C3093 C3095 1.353 . S
C3093 H3149 0.929 . S
C3094 C3090 1.356 . S
C3094 C3091 1.358 . S
C3094 H3150 0.930 . S
C3095 N3092 1.314 . S
C3095 C3093 1.353 . S
C3095 H3151 0.930 . S
C3096 N3097 1.314 . S
C3096 C3101 1.353 . S
C3096 H3102 0.930 . S
N3097 Li3080 1.990 . S
N3097 C3096 1.314 . S
N3097 C3099 1.279 . S
C3098 C3099 1.358 . S
C3098 C3100 1.356 . S
C3098 H3152 0.930 . S
C3099 N3097 1.279 . S
C3099 C3098 1.358 . S
C3099 H3103 0.930 . S
C3100 C3098 1.356 . S
C3100 C3101 1.348 . S
C3101 C3096 1.353 . S
C3101 C3100 1.348 . S
C3101 H3153 0.929 . S
H3102 C3096 0.930 . S
H3103 C3099 0.930 . S
C3104 N3105 1.314 . S
C3104 C3106 1.353 . S
C3104 H3110 0.930 . S
N3105 Li3081 1.990 . S
N3105 C3104 1.314 . S
N3105 C3108 1.279 . S
C3106 C3104 1.353 . S
C3106 C3109 1.348 . S
C3106 H3154 0.929 . S
C3107 C3108 1.358 . S
C3107 C3109 1.356 . S
C3107 H3155 0.930 . S
C3108 N3105 1.279 . S
C3108 C3107 1.358 . S
C3108 H3111 0.930 . S
C3109 C3106 1.348 . S
C3109 C3107 1.356 . S
H3110 C3104 0.930 . S
H3111 C3108 0.930 . S
C3112 C3114 1.348 . S
C3112 C3115 1.356 . S
C3112 O3142 1.325 . S
N3113 C3116 1.314 . S
N3113 C3117 1.279 . S
C3114 C3112 1.348 . S
C3114 C3116 1.353 . S
C3114 H3156 0.929 . S
C3115 C3112 1.356 . S
C3115 C3117 1.358 . S
C3115 H3157 0.930 . S
C3116 N3113 1.314 . S
C3116 C3114 1.353 . S
C3116 H3158 0.930 . S
C3117 N3113 1.279 . S
C3117 C3115 1.358 . S
C3117 H3159 0.930 . S
C3118 C3119 1.348 . S
C3118 C3120 1.356 . S
C3118 O3143 1.325 . S
C3119 C3118 1.348 . S
C3119 C3121 1.353 . S
C3119 H3160 0.929 . S
C3120 C3118 1.356 . S
C3120 C3122 1.358 . S
C3120 H3161 0.930 . S
C3121 C3119 1.353 . S
C3121 N3123 1.314 . S
C3121 H3162 0.930 . S
C3122 C3120 1.358 . S
C3122 N3123 1.279 . S
C3122 H3163 0.930 . S
N3123 C3121 1.314 . S
N3123 C3122 1.279 . S
C3124 C3126 1.353 . S
C3124 N3127 1.314 . S
C3124 H3130 0.930 . S
C3125 N3127 1.279 . S
C3125 C3128 1.358 . S
C3125 H3131 0.930 . S
C3126 C3124 1.353 . S
C3126 C3129 1.348 . S
C3126 H3164 0.929 . S
N3127 Li3082 1.990 . S
N3127 C3124 1.314 . S
N3127 C3125 1.279 . S
C3128 C3125 1.358 . S
C3128 C3129 1.356 . S
C3128 H3165 0.930 . S
C3129 C3126 1.348 . S
C3129 C3128 1.356 . S
H3130 C3124 0.930 . S
H3131 C3125 0.930 . S
C3132 N3133 1.314 . S
C3132 C3134 1.353 . S
C3132 H3138 0.930 . S
N3133 Li3083 1.990 . S
N3133 C3132 1.314 . S
N3133 C3136 1.279 . S
C3134 C3132 1.353 . S
C3134 C3137 1.348 . S
C3134 H3166 0.929 . S
C3135 C3136 1.358 . S
C3135 C3137 1.356 . S
C3135 H3167 0.930 . S
C3136 N3133 1.279 . S
C3136 C3135 1.358 . S
C3136 H3139 0.930 . S
C3137 C3134 1.348 . S
C3137 C3135 1.356 . S
H3138 C3132 0.930 . S
H3139 C3136 0.930 . S
O3140 Li3080 1.956 . S
O3140 Li3081 1.970 . S
O3140 Li3082 1.961 . S
O3140 C3084 1.325 . S
O3141 Li3080 1.970 . S
O3141 Li3081 1.956 . S
O3141 Li3083 1.961 . S
O3141 C3090 1.325 . S
O3142 Li3080 1.961 . S
O3142 Li3082 1.956 . S
O3142 Li3083 1.970 . S
O3142 C3112 1.325 . S
O3143 Li3081 1.961 . S
O3143 Li3082 1.970 . S
O3143 Li3083 1.956 . S
O3143 C3118 1.325 . S
H3144 C3086 0.929 . S
H3145 C3087 0.930 . S
H3146 C3088 0.930 . S
H3147 C3089 0.930 . S
H3148 C3091 0.930 . S
H3149 C3093 0.929 . S
H3150 C3094 0.930 . S
H3151 C3095 0.930 . S
H3152 C3098 0.930 . S
H3153 C3101 0.929 . S
H3154 C3106 0.929 . S
H3155 C3107 0.930 . S
H3156 C3114 0.929 . S
H3157 C3115 0.930 . S
H3158 C3116 0.930 . S
H3159 C3117 0.930 . S
H3160 C3119 0.929 . S
H3161 C3120 0.930 . S
H3162 C3121 0.930 . S
H3163 C3122 0.930 . S
H3164 C3126 0.929 . S
H3165 C3128 0.930 . S
H3166 C3134 0.929 . S
H3167 C3135 0.930 . S
C3168 C3169 1.387 . S
C3168 H3172 0.950 . S
C3168 C3177 1.390 . S
C3169 C3168 1.387 . S
C3169 C3171 1.387 . S
H3170 C3177 0.950 . S
C3171 C3169 1.387 . S
C3171 C3173 1.390 . S
C3171 H3175 0.950 . S
H3172 C3168 0.950 . S
C3173 C3171 1.390 . S
C3173 C3174 1.387 . S
C3173 H3176 0.950 . S
C3174 C3173 1.387 . S
C3174 C3177 1.387 . S
H3175 C3171 0.950 . S
H3176 C3173 0.950 . S
C3177 C3168 1.390 . S
C3177 H3170 0.950 . S
C3177 C3174 1.387 . S
C3178 C3179 1.387 . S
C3178 H3182 0.950 . S
C3178 C3187 1.390 . S
C3179 C3178 1.387 . S
C3179 C3181 1.387 . S
H3180 C3187 0.950 . S
C3181 C3179 1.387 . S
C3181 C3183 1.390 . S
C3181 H3185 0.950 . S
H3182 C3178 0.950 . S
C3183 C3181 1.390 . S
C3183 C3184 1.387 . S
C3183 H3186 0.950 . S
C3184 C3183 1.387 . S
C3184 C3187 1.387 . S
H3185 C3181 0.950 . S
H3186 C3183 0.950 . S
C3187 C3178 1.390 . S
C3187 H3180 0.950 . S
C3187 C3184 1.387 . S
C3188 C3189 1.387 . S
C3188 H3192 0.950 . S
C3188 C3197 1.390 . S
C3189 C3188 1.387 . S
C3189 C3191 1.387 . S
H3190 C3197 0.950 . S
C3191 C3189 1.387 . S
C3191 C3193 1.390 . S
C3191 H3195 0.950 . S
H3192 C3188 0.950 . S
C3193 C3191 1.390 . S
C3193 C3194 1.387 . S
C3193 H3196 0.950 . S
C3194 C3193 1.387 . S
C3194 C3197 1.387 . S
H3195 C3191 0.950 . S
H3196 C3193 0.950 . S
C3197 C3188 1.390 . S
C3197 H3190 0.950 . S
C3197 C3194 1.387 . S
C3198 C3199 1.387 . S
C3198 H3202 0.950 . S
C3198 C3207 1.390 . S
C3199 C3198 1.387 . S
C3199 C3201 1.387 . S
H3200 C3207 0.950 . S
C3201 C3199 1.387 . S
C3201 C3203 1.390 . S
C3201 H3205 0.950 . S
H3202 C3198 0.950 . S
C3203 C3201 1.390 . S
C3203 C3204 1.387 . S
C3203 H3206 0.950 . S
C3204 C3203 1.387 . S
C3204 C3207 1.387 . S
H3205 C3201 0.950 . S
H3206 C3203 0.950 . S
C3207 C3198 1.390 . S
C3207 H3200 0.950 . S
C3207 C3204 1.387 . S
C3208 C3209 1.387 . S
C3208 H3212 0.950 . S
C3208 C3217 1.390 . S
C3209 C3208 1.387 . S
C3209 C3211 1.387 . S
H3210 C3217 0.950 . S
C3211 C3209 1.387 . S
C3211 C3213 1.390 . S
C3211 H3215 0.950 . S
H3212 C3208 0.950 . S
C3213 C3211 1.390 . S
C3213 C3214 1.387 . S
C3213 H3216 0.950 . S
C3214 C3213 1.387 . S
C3214 C3217 1.387 . S
H3215 C3211 0.950 . S
H3216 C3213 0.950 . S
C3217 C3208 1.390 . S
C3217 H3210 0.950 . S
C3217 C3214 1.387 . S
C3218 C3219 1.387 . S
C3218 H3222 0.950 . S
C3218 C3227 1.390 . S
C3219 C3218 1.387 . S
C3219 C3221 1.387 . S
H3220 C3227 0.950 . S
C3221 C3219 1.387 . S
C3221 C3223 1.390 . S
C3221 H3225 0.950 . S
H3222 C3218 0.950 . S
C3223 C3221 1.390 . S
C3223 C3224 1.387 . S
C3223 H3226 0.950 . S
C3224 C3223 1.387 . S
C3224 C3227 1.387 . S
H3225 C3221 0.950 . S
H3226 C3223 0.950 . S
C3227 C3218 1.390 . S
C3227 H3220 0.950 . S
C3227 C3224 1.387 . S
C3228 C3229 1.387 . S
C3228 H3232 0.950 . S
C3228 C3237 1.390 . S
C3229 C3228 1.387 . S
C3229 C3231 1.387 . S
H3230 C3237 0.950 . S
C3231 C3229 1.387 . S
C3231 C3233 1.390 . S
C3231 H3235 0.950 . S
H3232 C3228 0.950 . S
C3233 C3231 1.390 . S
C3233 C3234 1.387 . S
C3233 H3236 0.950 . S
C3234 C3233 1.387 . S
C3234 C3237 1.387 . S
H3235 C3231 0.950 . S
H3236 C3233 0.950 . S
C3237 C3228 1.390 . S
C3237 H3230 0.950 . S
C3237 C3234 1.387 . S
C3238 C3239 1.387 . S
C3238 H3242 0.950 . S
C3238 C3247 1.390 . S
C3239 C3238 1.387 . S
C3239 C3241 1.387 . S
H3240 C3247 0.950 . S
C3241 C3239 1.387 . S
C3241 C3243 1.390 . S
C3241 H3245 0.950 . S
H3242 C3238 0.950 . S
C3243 C3241 1.390 . S
C3243 C3244 1.387 . S
C3243 H3246 0.950 . S
C3244 C3243 1.387 . S
C3244 C3247 1.387 . S
H3245 C3241 0.950 . S
H3246 C3243 0.950 . S
C3247 C3238 1.390 . S
C3247 H3240 0.950 . S
C3247 C3244 1.387 . S
C3248 C3249 1.387 . S
C3248 H3252 0.950 . S
C3248 C3257 1.390 . S
C3249 C3248 1.387 . S
C3249 C3251 1.387 . S
H3250 C3257 0.950 . S
C3251 C3249 1.387 . S
C3251 C3253 1.390 . S
C3251 H3255 0.950 . S
H3252 C3248 0.950 . S
C3253 C3251 1.390 . S
C3253 C3254 1.387 . S
C3253 H3256 0.950 . S
C3254 C3253 1.387 . S
C3254 C3257 1.387 . S
H3255 C3251 0.950 . S
H3256 C3253 0.950 . S
C3257 C3248 1.390 . S
C3257 H3250 0.950 . S
C3257 C3254 1.387 . S
C3258 C3259 1.387 . S
C3258 H3262 0.950 . S
C3258 C3267 1.390 . S
C3259 C3258 1.387 . S
C3259 C3261 1.387 . S
H3260 C3267 0.950 . S
C3261 C3259 1.387 . S
C3261 C3263 1.390 . S
C3261 H3265 0.950 . S
H3262 C3258 0.950 . S
C3263 C3261 1.390 . S
C3263 C3264 1.387 . S
C3263 H3266 0.950 . S
C3264 C3263 1.387 . S
C3264 C3267 1.387 . S
H3265 C3261 0.950 . S
H3266 C3263 0.950 . S
C3267 C3258 1.390 . S
C3267 H3260 0.950 . S
C3267 C3264 1.387 . S
C3268 C3269 1.387 . S
C3268 H3272 0.950 . S
C3268 C3277 1.390 . S
C3269 C3268 1.387 . S
C3269 C3271 1.387 . S
H3270 C3277 0.950 . S
C3271 C3269 1.387 . S
C3271 C3273 1.390 . S
C3271 H3275 0.950 . S
H3272 C3268 0.950 . S
C3273 C3271 1.390 . S
C3273 C3274 1.387 . S
C3273 H3276 0.950 . S
C3274 C3273 1.387 . S
C3274 C3277 1.387 . S
H3275 C3271 0.950 . S
H3276 C3273 0.950 . S
C3277 C3268 1.390 . S
C3277 H3270 0.950 . S
C3277 C3274 1.387 . S
C3278 C3279 1.387 . S
C3278 H3282 0.950 . S
C3278 C3287 1.390 . S
C3279 C3278 1.387 . S
C3279 C3281 1.387 . S
H3280 C3287 0.950 . S
C3281 C3279 1.387 . S
C3281 C3283 1.390 . S
C3281 H3285 0.950 . S
H3282 C3278 0.950 . S
C3283 C3281 1.390 . S
C3283 C3284 1.387 . S
C3283 H3286 0.950 . S
C3284 C3283 1.387 . S
C3284 C3287 1.387 . S
H3285 C3281 0.950 . S
H3286 C3283 0.950 . S
C3287 C3278 1.390 . S
C3287 H3280 0.950 . S
C3287 C3284 1.387 . S
C3288 C3289 1.387 . S
C3288 H3292 0.950 . S
C3288 C3297 1.390 . S
C3289 C3288 1.387 . S
C3289 C3291 1.387 . S
H3290 C3297 0.950 . S
C3291 C3289 1.387 . S
C3291 C3293 1.390 . S
C3291 H3295 0.950 . S
H3292 C3288 0.950 . S
C3293 C3291 1.390 . S
C3293 C3294 1.387 . S
C3293 H3296 0.950 . S
C3294 C3293 1.387 . S
C3294 C3297 1.387 . S
H3295 C3291 0.950 . S
H3296 C3293 0.950 . S
C3297 C3288 1.390 . S
C3297 H3290 0.950 . S
C3297 C3294 1.387 . S
C3298 C3299 1.387 . S
C3298 H3302 0.950 . S
C3298 C3307 1.390 . S
C3299 C3298 1.387 . S
C3299 C3301 1.387 . S
H3300 C3307 0.950 . S
C3301 C3299 1.387 . S
C3301 C3303 1.390 . S
C3301 H3305 0.950 . S
H3302 C3298 0.950 . S
C3303 C3301 1.390 . S
C3303 C3304 1.387 . S
C3303 H3306 0.950 . S
C3304 C3303 1.387 . S
C3304 C3307 1.387 . S
H3305 C3301 0.950 . S
H3306 C3303 0.950 . S
C3307 C3298 1.390 . S
C3307 H3300 0.950 . S
C3307 C3304 1.387 . S
C3308 C3309 1.387 . S
C3308 H3312 0.950 . S
C3308 C3317 1.390 . S
C3309 C3308 1.387 . S
C3309 C3311 1.387 . S
H3310 C3317 0.950 . S
C3311 C3309 1.387 . S
C3311 C3313 1.390 . S
C3311 H3315 0.950 . S
H3312 C3308 0.950 . S
C3313 C3311 1.390 . S
C3313 C3314 1.387 . S
C3313 H3316 0.950 . S
C3314 C3313 1.387 . S
C3314 C3317 1.387 . S
H3315 C3311 0.950 . S
H3316 C3313 0.950 . S
C3317 C3308 1.390 . S
C3317 H3310 0.950 . S
C3317 C3314 1.387 . S
C3318 C3319 1.387 . S
C3318 H3322 0.950 . S
C3318 C3327 1.390 . S
C3319 C3318 1.387 . S
C3319 C3321 1.387 . S
H3320 C3327 0.950 . S
C3321 C3319 1.387 . S
C3321 C3323 1.390 . S
C3321 H3325 0.950 . S
H3322 C3318 0.950 . S
C3323 C3321 1.390 . S
C3323 C3324 1.387 . S
C3323 H3326 0.950 . S
C3324 C3323 1.387 . S
C3324 C3327 1.387 . S
H3325 C3321 0.950 . S
H3326 C3323 0.950 . S
C3327 C3318 1.390 . S
C3327 H3320 0.950 . S
C3327 C3324 1.387 . S
C3328 C3329 1.387 . S
C3328 H3332 0.950 . S
C3328 C3337 1.390 . S
C3329 C3328 1.387 . S
C3329 C3331 1.387 . S
H3330 C3337 0.950 . S
C3331 C3329 1.387 . S
C3331 C3333 1.390 . S
C3331 H3335 0.950 . S
H3332 C3328 0.950 . S
C3333 C3331 1.390 . S
C3333 C3334 1.387 . S
C3333 H3336 0.950 . S
C3334 C3333 1.387 . S
C3334 C3337 1.387 . S
H3335 C3331 0.950 . S
H3336 C3333 0.950 . S
C3337 C3328 1.390 . S
C3337 H3330 0.950 . S
C3337 C3334 1.387 . S
C3338 C3339 1.387 . S
C3338 H3342 0.950 . S
C3338 C3347 1.390 . S
C3339 C3338 1.387 . S
C3339 C3341 1.387 . S
H3340 C3347 0.950 . S
C3341 C3339 1.387 . S
C3341 C3343 1.390 . S
C3341 H3345 0.950 . S
H3342 C3338 0.950 . S
C3343 C3341 1.390 . S
C3343 C3344 1.387 . S
C3343 H3346 0.950 . S
C3344 C3343 1.387 . S
C3344 C3347 1.387 . S
H3345 C3341 0.950 . S
H3346 C3343 0.950 . S
C3347 C3338 1.390 . S
C3347 H3340 0.950 . S
C3347 C3344 1.387 . S
C3348 C3349 1.387 1_556 S
C3348 H3352 0.950 . S
C3348 C3357 1.372 1_455 S
C3349 C3348 1.387 1_554 S
C3349 C3351 1.396 . S
H3350 C3357 0.940 . S
C3351 C3349 1.396 . S
C3351 C3353 1.369 1_455 S
C3351 H3355 0.940 . S
H3352 C3348 0.950 . S
C3353 C3351 1.369 1_655 S
C3353 C3354 1.389 1_554 S
C3353 H3356 0.950 . S
C3354 C3353 1.389 1_556 S
C3354 C3357 1.395 . S
H3355 C3351 0.940 . S
H3356 C3353 0.950 . S
C3357 C3348 1.372 1_655 S
C3357 H3350 0.940 . S
C3357 C3354 1.395 . S
C3358 C3359 1.387 . S
C3358 H3362 0.950 . S
C3358 C3367 1.390 1_556 S
C3359 C3358 1.387 . S
C3359 C3361 1.387 . S
H3360 C3367 0.950 . S
C3361 C3359 1.387 . S
C3361 C3363 1.390 1_556 S
C3361 H3365 0.950 . S
H3362 C3358 0.950 . S
C3363 C3361 1.390 1_554 S
C3363 C3364 1.387 . S
C3363 H3366 0.950 . S
C3364 C3363 1.387 . S
C3364 C3367 1.387 . S
H3365 C3361 0.950 . S
H3366 C3363 0.950 . S
C3367 C3358 1.390 1_554 S
C3367 H3360 0.950 . S
C3367 C3364 1.387 . S
C3368 C3369 1.387 . S
C3368 H3372 0.950 . S
C3368 C3377 1.390 1_564 S
C3369 C3368 1.387 . S
C3369 C3371 1.387 . S
H3370 C3377 0.950 . S
C3371 C3369 1.387 . S
C3371 C3373 1.390 1_564 S
C3371 H3375 0.950 . S
H3372 C3368 0.950 . S
C3373 C3371 1.390 1_546 S
C3373 C3374 1.387 . S
C3373 H3376 0.950 . S
C3374 C3373 1.387 . S
C3374 C3377 1.387 . S
H3375 C3371 0.950 . S
H3376 C3373 0.950 . S
C3377 C3368 1.390 1_546 S
C3377 H3370 0.950 . S
C3377 C3374 1.387 . S
C3378 C3379 1.395 . S
C3378 H3382 0.941 . S
C3378 C3387 1.381 1_655 S
C3379 C3378 1.395 . S
C3379 C3381 1.377 1_556 S
H3380 C3387 0.950 . S
C3381 C3379 1.377 1_554 S
C3381 C3383 1.384 1_655 S
C3381 H3385 0.950 . S
H3382 C3378 0.941 . S
C3383 C3381 1.384 1_455 S
C3383 C3384 1.395 . S
C3383 H3386 0.941 . S
C3384 C3383 1.395 . S
C3384 C3387 1.379 1_554 S
H3385 C3381 0.950 . S
H3386 C3383 0.941 . S
C3387 C3378 1.381 1_455 S
C3387 H3380 0.950 . S
C3387 C3384 1.379 1_556 S
C3388 C3389 1.387 1_554 S
C3388 H3392 0.950 . S
C3388 C3397 1.390 . S
C3389 C3388 1.387 1_556 S
C3389 C3391 1.387 . S
H3390 C3397 0.950 . S
C3391 C3389 1.387 . S
C3391 C3393 1.390 . S
C3391 H3395 0.950 . S
H3392 C3388 0.950 . S
C3393 C3391 1.390 . S
C3393 C3394 1.387 1_556 S
C3393 H3396 0.950 . S
C3394 C3393 1.387 1_554 S
C3394 C3397 1.387 . S
H3395 C3391 0.950 . S
H3396 C3393 0.950 . S
C3397 C3388 1.390 . S
C3397 H3390 0.950 . S
C3397 C3394 1.387 . S
C3398 C3399 1.387 . S
C3398 H3402 0.950 . S
C3398 C3407 1.390 1_546 S
C3399 C3398 1.387 . S
C3399 C3401 1.387 . S
H3400 C3407 0.950 . S
C3401 C3399 1.387 . S
C3401 C3403 1.390 1_546 S
C3401 H3405 0.950 . S
H3402 C3398 0.950 . S
C3403 C3401 1.390 1_564 S
C3403 C3404 1.387 . S
C3403 H3406 0.950 . S
C3404 C3403 1.387 . S
C3404 C3407 1.387 . S
H3405 C3401 0.950 . S
H3406 C3403 0.950 . S
C3407 C3398 1.390 1_564 S
C3407 H3400 0.950 . S
C3407 C3404 1.387 . S
C3408 C3409 1.387 . S
C3408 H3412 0.950 . S
C3408 C3417 1.390 . S
C3409 C3408 1.387 . S
C3409 C3411 1.387 . S
H3410 C3417 0.950 . S
C3411 C3409 1.387 . S
C3411 C3413 1.390 . S
C3411 H3415 0.950 . S
H3412 C3408 0.950 . S
C3413 C3411 1.390 . S
C3413 C3414 1.387 . S
C3413 H3416 0.950 . S
C3414 C3413 1.387 . S
C3414 C3417 1.387 . S
H3415 C3411 0.950 . S
H3416 C3413 0.950 . S
C3417 C3408 1.390 . S
C3417 H3410 0.950 . S
C3417 C3414 1.387 . S
C3418 C3419 1.387 . S
C3418 H3422 0.950 . S
C3418 C3427 1.390 . S
C3419 C3418 1.387 . S
C3419 C3421 1.387 . S
H3420 C3427 0.950 . S
C3421 C3419 1.387 . S
C3421 C3423 1.390 . S
C3421 H3425 0.950 . S
H3422 C3418 0.950 . S
C3423 C3421 1.390 . S
C3423 C3424 1.387 . S
C3423 H3426 0.950 . S
C3424 C3423 1.387 . S
C3424 C3427 1.387 . S
H3425 C3421 0.950 . S
H3426 C3423 0.950 . S
C3427 C3418 1.390 . S
C3427 H3420 0.950 . S
C3427 C3424 1.387 . S
C3428 C3429 1.387 . S
C3428 H3432 0.950 . S
C3428 C3437 1.390 . S
C3429 C3428 1.387 . S
C3429 C3431 1.387 . S
H3430 C3437 0.950 . S
C3431 C3429 1.387 . S
C3431 C3433 1.390 . S
C3431 H3435 0.950 . S
H3432 C3428 0.950 . S
C3433 C3431 1.390 . S
C3433 C3434 1.387 . S
C3433 H3436 0.950 . S
C3434 C3433 1.387 . S
C3434 C3437 1.387 . S
H3435 C3431 0.950 . S
H3436 C3433 0.950 . S
C3437 C3428 1.390 . S
C3437 H3430 0.950 . S
C3437 C3434 1.387 . S
C3438 C3439 1.387 . S
C3438 H3442 0.950 . S
C3438 C3447 1.390 . S
C3439 C3438 1.387 . S
C3439 C3441 1.387 . S
H3440 C3447 0.950 . S
C3441 C3439 1.387 . S
C3441 C3443 1.390 . S
C3441 H3445 0.950 . S
H3442 C3438 0.950 . S
C3443 C3441 1.390 . S
C3443 C3444 1.387 . S
C3443 H3446 0.950 . S
C3444 C3443 1.387 . S
C3444 C3447 1.387 . S
H3445 C3441 0.950 . S
H3446 C3443 0.950 . S
C3447 C3438 1.390 . S
C3447 H3440 0.950 . S
C3447 C3444 1.387 . S
C3448 C3449 1.387 . S
C3448 H3452 0.950 . S
C3448 C3457 1.390 . S
C3449 C3448 1.387 . S
C3449 C3451 1.387 . S
H3450 C3457 0.950 . S
C3451 C3449 1.387 . S
C3451 C3453 1.390 . S
C3451 H3455 0.950 . S
H3452 C3448 0.950 . S
C3453 C3451 1.390 . S
C3453 C3454 1.387 . S
C3453 H3456 0.950 . S
C3454 C3453 1.387 . S
C3454 C3457 1.387 . S
H3455 C3451 0.950 . S
H3456 C3453 0.950 . S
C3457 C3448 1.390 . S
C3457 H3450 0.950 . S
C3457 C3454 1.387 . S
C3458 C3459 1.387 . S
C3458 H3462 0.950 . S
C3458 C3467 1.390 . S
C3459 C3458 1.387 . S
C3459 C3461 1.387 . S
H3460 C3467 0.950 . S
C3461 C3459 1.387 . S
C3461 C3463 1.390 . S
C3461 H3465 0.950 . S
H3462 C3458 0.950 . S
C3463 C3461 1.390 . S
C3463 C3464 1.387 . S
C3463 H3466 0.950 . S
C3464 C3463 1.387 . S
C3464 C3467 1.387 . S
H3465 C3461 0.950 . S
H3466 C3463 0.950 . S
C3467 C3458 1.390 . S
C3467 H3460 0.950 . S
C3467 C3464 1.387 . S
C3468 C3469 1.387 . S
C3468 H3472 0.950 . S
C3468 C3477 1.390 . S
C3469 C3468 1.387 . S
C3469 C3471 1.387 . S
H3470 C3477 0.950 . S
C3471 C3469 1.387 . S
C3471 C3473 1.390 . S
C3471 H3475 0.950 . S
H3472 C3468 0.950 . S
C3473 C3471 1.390 . S
C3473 C3474 1.387 . S
C3473 H3476 0.950 . S
C3474 C3473 1.387 . S
C3474 C3477 1.387 . S
H3475 C3471 0.950 . S
H3476 C3473 0.950 . S
C3477 C3468 1.390 . S
C3477 H3470 0.950 . S
C3477 C3474 1.387 . S
C3478 C3479 1.387 . S
C3478 H3482 0.950 . S
C3478 C3487 1.390 . S
C3479 C3478 1.387 . S
C3479 C3481 1.387 . S
H3480 C3487 0.950 . S
C3481 C3479 1.387 . S
C3481 C3483 1.390 . S
C3481 H3485 0.950 . S
H3482 C3478 0.950 . S
C3483 C3481 1.390 . S
C3483 C3484 1.387 . S
C3483 H3486 0.950 . S
C3484 C3483 1.387 . S
C3484 C3487 1.387 . S
H3485 C3481 0.950 . S
H3486 C3483 0.950 . S
C3487 C3478 1.390 . S
C3487 H3480 0.950 . S
C3487 C3484 1.387 . S
C3488 C3489 1.387 . S
C3488 H3492 0.950 . S
C3488 C3497 1.390 . S
C3489 C3488 1.387 . S
C3489 C3491 1.387 . S
H3490 C3497 0.950 . S
C3491 C3489 1.387 . S
C3491 C3493 1.390 . S
C3491 H3495 0.950 . S
H3492 C3488 0.950 . S
C3493 C3491 1.390 . S
C3493 C3494 1.387 . S
C3493 H3496 0.950 . S
C3494 C3493 1.387 . S
C3494 C3497 1.387 . S
H3495 C3491 0.950 . S
H3496 C3493 0.950 . S
C3497 C3488 1.390 . S
C3497 H3490 0.950 . S
C3497 C3494 1.387 . S
C3498 C3499 1.387 . S
C3498 H3502 0.950 . S
C3498 C3507 1.390 . S
C3499 C3498 1.387 . S
C3499 C3501 1.387 . S
H3500 C3507 0.950 . S
C3501 C3499 1.387 . S
C3501 C3503 1.390 . S
C3501 H3505 0.950 . S
H3502 C3498 0.950 . S
C3503 C3501 1.390 . S
C3503 C3504 1.387 . S
C3503 H3506 0.950 . S
C3504 C3503 1.387 . S
C3504 C3507 1.387 . S
H3505 C3501 0.950 . S
H3506 C3503 0.950 . S
C3507 C3498 1.390 . S
C3507 H3500 0.950 . S
C3507 C3504 1.387 . S
C3508 C3509 1.387 . S
C3508 H3512 0.950 . S
C3508 C3517 1.390 . S
C3509 C3508 1.387 . S
C3509 C3511 1.387 . S
H3510 C3517 0.950 . S
C3511 C3509 1.387 . S
C3511 C3513 1.390 . S
C3511 H3515 0.950 . S
H3512 C3508 0.950 . S
C3513 C3511 1.390 . S
C3513 C3514 1.387 . S
C3513 H3516 0.950 . S
C3514 C3513 1.387 . S
C3514 C3517 1.387 . S
H3515 C3511 0.950 . S
H3516 C3513 0.950 . S
C3517 C3508 1.390 . S
C3517 H3510 0.950 . S
C3517 C3514 1.387 . S
C3518 C3519 1.387 . S
C3518 H3522 0.950 . S
C3518 C3527 1.390 . S
C3519 C3518 1.387 . S
C3519 C3521 1.387 . S
H3520 C3527 0.950 . S
C3521 C3519 1.387 . S
C3521 C3523 1.390 . S
C3521 H3525 0.950 . S
H3522 C3518 0.950 . S
C3523 C3521 1.390 . S
C3523 C3524 1.387 . S
C3523 H3526 0.950 . S
C3524 C3523 1.387 . S
C3524 C3527 1.387 . S
H3525 C3521 0.950 . S
H3526 C3523 0.950 . S
C3527 C3518 1.390 . S
C3527 H3520 0.950 . S
C3527 C3524 1.387 . S
C3528 C3529 1.387 . S
C3528 H3532 0.950 . S
C3528 C3537 1.390 . S
C3529 C3528 1.387 . S
C3529 C3531 1.387 . S
H3530 C3537 0.950 . S
C3531 C3529 1.387 . S
C3531 C3533 1.390 . S
C3531 H3535 0.950 . S
H3532 C3528 0.950 . S
C3533 C3531 1.390 . S
C3533 C3534 1.387 . S
C3533 H3536 0.950 . S
C3534 C3533 1.387 . S
C3534 C3537 1.387 . S
H3535 C3531 0.950 . S
H3536 C3533 0.950 . S
C3537 C3528 1.390 . S
C3537 H3530 0.950 . S
C3537 C3534 1.387 . S
C3538 C3539 1.387 . S
C3538 H3542 0.950 . S
C3538 C3547 1.390 . S
C3539 C3538 1.387 . S
C3539 C3541 1.387 . S
H3540 C3547 0.950 . S
C3541 C3539 1.387 . S
C3541 C3543 1.390 . S
C3541 H3545 0.950 . S
H3542 C3538 0.950 . S
C3543 C3541 1.390 . S
C3543 C3544 1.387 . S
C3543 H3546 0.950 . S
C3544 C3543 1.387 . S
C3544 C3547 1.387 . S
H3545 C3541 0.950 . S
H3546 C3543 0.950 . S
C3547 C3538 1.390 . S
C3547 H3540 0.950 . S
C3547 C3544 1.387 . S
C3548 C3549 1.387 . S
C3548 H3552 0.950 . S
C3548 C3557 1.390 . S
C3549 C3548 1.387 . S
C3549 C3551 1.387 . S
H3550 C3557 0.950 . S
C3551 C3549 1.387 . S
C3551 C3553 1.390 . S
C3551 H3555 0.950 . S
H3552 C3548 0.950 . S
C3553 C3551 1.390 . S
C3553 C3554 1.387 . S
C3553 H3556 0.950 . S
C3554 C3553 1.387 . S
C3554 C3557 1.387 . S
H3555 C3551 0.950 . S
H3556 C3553 0.950 . S
C3557 C3548 1.390 . S
C3557 H3550 0.950 . S
C3557 C3554 1.387 . S
C3558 C3559 1.387 . S
C3558 H3562 0.950 . S
C3558 C3567 1.390 . S
C3559 C3558 1.387 . S
C3559 C3561 1.387 . S
H3560 C3567 0.950 . S
C3561 C3559 1.387 . S
C3561 C3563 1.390 . S
C3561 H3565 0.950 . S
H3562 C3558 0.950 . S
C3563 C3561 1.390 . S
C3563 C3564 1.387 . S
C3563 H3566 0.950 . S
C3564 C3563 1.387 . S
C3564 C3567 1.387 . S
H3565 C3561 0.950 . S
H3566 C3563 0.950 . S
C3567 C3558 1.390 . S
C3567 H3560 0.950 . S
C3567 C3564 1.387 . S
C3568 C3569 1.387 . S
C3568 H3572 0.950 . S
C3568 C3577 1.390 . S
C3569 C3568 1.387 . S
C3569 C3571 1.387 . S
H3570 C3577 0.950 . S
C3571 C3569 1.387 . S
C3571 C3573 1.390 . S
C3571 H3575 0.950 . S
H3572 C3568 0.950 . S
C3573 C3571 1.390 . S
C3573 C3574 1.387 . S
C3573 H3576 0.950 . S
C3574 C3573 1.387 . S
C3574 C3577 1.387 . S
H3575 C3571 0.950 . S
H3576 C3573 0.950 . S
C3577 C3568 1.390 . S
C3577 H3570 0.950 . S
C3577 C3574 1.387 . S
C3578 C3579 1.387 . S
C3578 H3582 0.950 . S
C3578 C3587 1.390 . S
C3579 C3578 1.387 . S
C3579 C3581 1.387 . S
H3580 C3587 0.950 . S
C3581 C3579 1.387 . S
C3581 C3583 1.390 . S
C3581 H3585 0.950 . S
H3582 C3578 0.950 . S
C3583 C3581 1.390 . S
C3583 C3584 1.387 . S
C3583 H3586 0.950 . S
C3584 C3583 1.387 . S
C3584 C3587 1.387 . S
H3585 C3581 0.950 . S
H3586 C3583 0.950 . S
C3587 C3578 1.390 . S
C3587 H3580 0.950 . S
C3587 C3584 1.387 . S
C3588 C3589 1.387 . S
C3588 H3592 0.950 . S
C3588 C3597 1.390 . S
C3589 C3588 1.387 . S
C3589 C3591 1.387 . S
H3590 C3597 0.950 . S
C3591 C3589 1.387 . S
C3591 C3593 1.390 . S
C3591 H3595 0.950 . S
H3592 C3588 0.950 . S
C3593 C3591 1.390 . S
C3593 C3594 1.387 . S
C3593 H3596 0.950 . S
C3594 C3593 1.387 . S
C3594 C3597 1.387 . S
H3595 C3591 0.950 . S
H3596 C3593 0.950 . S
C3597 C3588 1.390 . S
C3597 H3590 0.950 . S
C3597 C3594 1.387 . S
C3598 C3599 1.387 . S
C3598 H3602 0.950 . S
C3598 C3607 1.390 . S
C3599 C3598 1.387 . S
C3599 C3601 1.387 . S
H3600 C3607 0.950 . S
C3601 C3599 1.387 . S
C3601 C3603 1.390 . S
C3601 H3605 0.950 . S
H3602 C3598 0.950 . S
C3603 C3601 1.390 . S
C3603 C3604 1.387 . S
C3603 H3606 0.950 . S
C3604 C3603 1.387 . S
C3604 C3607 1.387 . S
H3605 C3601 0.950 . S
H3606 C3603 0.950 . S
C3607 C3598 1.390 . S
C3607 H3600 0.950 . S
C3607 C3604 1.387 . S
C3608 C3609 1.387 . S
C3608 H3612 0.950 . S
C3608 C3617 1.390 . S
C3609 C3608 1.387 . S
C3609 C3611 1.387 . S
H3610 C3617 0.950 . S
C3611 C3609 1.387 . S
C3611 C3613 1.390 . S
C3611 H3615 0.950 . S
H3612 C3608 0.950 . S
C3613 C3611 1.390 . S
C3613 C3614 1.387 . S
C3613 H3616 0.950 . S
C3614 C3613 1.387 . S
C3614 C3617 1.387 . S
H3615 C3611 0.950 . S
H3616 C3613 0.950 . S
C3617 C3608 1.390 . S
C3617 H3610 0.950 . S
C3617 C3614 1.387 . S
C3618 C3619 1.387 . S
C3618 H3622 0.950 . S
C3618 C3627 1.390 . S
C3619 C3618 1.387 . S
C3619 C3621 1.387 . S
H3620 C3627 0.950 . S
C3621 C3619 1.387 . S
C3621 C3623 1.390 . S
C3621 H3625 0.950 . S
H3622 C3618 0.950 . S
C3623 C3621 1.390 . S
C3623 C3624 1.387 . S
C3623 H3626 0.950 . S
C3624 C3623 1.387 . S
C3624 C3627 1.387 . S
H3625 C3621 0.950 . S
H3626 C3623 0.950 . S
C3627 C3618 1.390 . S
C3627 H3620 0.950 . S
C3627 C3624 1.387 . S
C3628 C3629 1.387 . S
C3628 H3632 0.950 . S
C3628 C3637 1.390 . S
C3629 C3628 1.387 . S
C3629 C3631 1.387 . S
H3630 C3637 0.950 . S
C3631 C3629 1.387 . S
C3631 C3633 1.390 . S
C3631 H3635 0.950 . S
H3632 C3628 0.950 . S
C3633 C3631 1.390 . S
C3633 C3634 1.387 . S
C3633 H3636 0.950 . S
C3634 C3633 1.387 . S
C3634 C3637 1.387 . S
H3635 C3631 0.950 . S
H3636 C3633 0.950 . S
C3637 C3628 1.390 . S
C3637 H3630 0.950 . S
C3637 C3634 1.387 . S
C3638 C3639 1.387 . S
C3638 H3642 0.950 . S
C3638 C3647 1.390 . S
C3639 C3638 1.387 . S
C3639 C3641 1.387 . S
H3640 C3647 0.950 . S
C3641 C3639 1.387 . S
C3641 C3643 1.390 . S
C3641 H3645 0.950 . S
H3642 C3638 0.950 . S
C3643 C3641 1.390 . S
C3643 C3644 1.387 . S
C3643 H3646 0.950 . S
C3644 C3643 1.387 . S
C3644 C3647 1.387 . S
H3645 C3641 0.950 . S
H3646 C3643 0.950 . S
C3647 C3638 1.390 . S
C3647 H3640 0.950 . S
C3647 C3644 1.387 . S
C3648 C3649 1.387 . S
C3648 H3652 0.950 . S
C3648 C3657 1.390 1_455 S
C3649 C3648 1.387 . S
C3649 C3651 1.387 . S
H3650 C3657 0.950 . S
C3651 C3649 1.387 . S
C3651 C3653 1.390 1_455 S
C3651 H3655 0.950 . S
H3652 C3648 0.950 . S
C3653 C3651 1.390 1_655 S
C3653 C3654 1.387 . S
C3653 H3656 0.950 . S
C3654 C3653 1.387 . S
C3654 C3657 1.387 . S
H3655 C3651 0.950 . S
H3656 C3653 0.950 . S
C3657 C3648 1.390 1_655 S
C3657 H3650 0.950 . S
C3657 C3654 1.387 . S
C3658 C3659 1.387 . S
C3658 H3662 0.950 . S
C3658 C3667 1.390 . S
C3659 C3658 1.387 . S
C3659 C3661 1.387 . S
H3660 C3667 0.950 . S
C3661 C3659 1.387 . S
C3661 C3663 1.390 . S
C3661 H3665 0.950 . S
H3662 C3658 0.950 . S
C3663 C3661 1.390 . S
C3663 C3664 1.387 . S
C3663 H3666 0.950 . S
C3664 C3663 1.387 . S
C3664 C3667 1.387 . S
H3665 C3661 0.950 . S
H3666 C3663 0.950 . S
C3667 C3658 1.390 . S
C3667 H3660 0.950 . S
C3667 C3664 1.387 . S
C3668 C3669 1.387 . S
C3668 H3672 0.950 . S
C3668 C3677 1.390 1_565 S
C3669 C3668 1.387 . S
C3669 C3671 1.387 . S
H3670 C3677 0.950 . S
C3671 C3669 1.387 . S
C3671 C3673 1.390 1_565 S
C3671 H3675 0.950 . S
H3672 C3668 0.950 . S
C3673 C3671 1.390 1_545 S
C3673 C3674 1.387 . S
C3673 H3676 0.950 . S
C3674 C3673 1.387 . S
C3674 C3677 1.387 . S
H3675 C3671 0.950 . S
H3676 C3673 0.950 . S
C3677 C3668 1.390 1_545 S
C3677 H3670 0.950 . S
C3677 C3674 1.387 . S
C3678 C3679 1.387 . S
C3678 H3682 0.950 . S
C3678 C3687 1.390 1_565 S
C3679 C3678 1.387 . S
C3679 C3681 1.387 . S
H3680 C3687 0.950 . S
C3681 C3679 1.387 . S
C3681 C3683 1.390 1_565 S
C3681 H3685 0.950 . S
H3682 C3678 0.950 . S
C3683 C3681 1.390 1_545 S
C3683 C3684 1.387 . S
C3683 H3686 0.950 . S
C3684 C3683 1.387 . S
C3684 C3687 1.387 . S
H3685 C3681 0.950 . S
H3686 C3683 0.950 . S
C3687 C3678 1.390 1_545 S
C3687 H3680 0.950 . S
C3687 C3684 1.387 . S
C3688 C3689 1.387 . S
C3688 H3692 0.950 . S
C3688 C3697 1.390 1_655 S
C3689 C3688 1.387 . S
C3689 C3691 1.387 . S
H3690 C3697 0.950 . S
C3691 C3689 1.387 . S
C3691 C3693 1.390 1_655 S
C3691 H3695 0.950 . S
H3692 C3688 0.950 . S
C3693 C3691 1.390 1_455 S
C3693 C3694 1.387 . S
C3693 H3696 0.950 . S
C3694 C3693 1.387 . S
C3694 C3697 1.387 . S
H3695 C3691 0.950 . S
H3696 C3693 0.950 . S
C3697 C3688 1.390 1_455 S
C3697 H3690 0.950 . S
C3697 C3694 1.387 . S
C3698 C3699 1.387 . S
C3698 H3702 0.950 . S
C3698 C3707 1.390 . S
C3699 C3698 1.387 . S
C3699 C3701 1.387 . S
H3700 C3707 0.950 . S
C3701 C3699 1.387 . S
C3701 C3703 1.390 . S
C3701 H3705 0.950 . S
H3702 C3698 0.950 . S
C3703 C3701 1.390 . S
C3703 C3704 1.387 . S
C3703 H3706 0.950 . S
C3704 C3703 1.387 . S
C3704 C3707 1.387 . S
H3705 C3701 0.950 . S
H3706 C3703 0.950 . S
C3707 C3698 1.390 . S
C3707 H3700 0.950 . S
C3707 C3704 1.387 . S
C3708 C3709 1.387 . S
C3708 H3712 0.950 . S
C3708 C3717 1.390 . S
C3709 C3708 1.387 . S
C3709 C3711 1.387 . S
H3710 C3717 0.950 . S
C3711 C3709 1.387 . S
C3711 C3713 1.390 . S
C3711 H3715 0.950 . S
H3712 C3708 0.950 . S
C3713 C3711 1.390 . S
C3713 C3714 1.387 . S
C3713 H3716 0.950 . S
C3714 C3713 1.387 . S
C3714 C3717 1.387 . S
H3715 C3711 0.950 . S
H3716 C3713 0.950 . S
C3717 C3708 1.390 . S
C3717 H3710 0.950 . S
C3717 C3714 1.387 . S
C3718 C3719 1.387 . S
C3718 H3722 0.950 . S
C3718 C3727 1.390 . S
C3719 C3718 1.387 . S
C3719 C3721 1.387 . S
H3720 C3727 0.950 . S
C3721 C3719 1.387 . S
C3721 C3723 1.390 . S
C3721 H3725 0.950 . S
H3722 C3718 0.950 . S
C3723 C3721 1.390 . S
C3723 C3724 1.387 . S
C3723 H3726 0.950 . S
C3724 C3723 1.387 . S
C3724 C3727 1.387 . S
H3725 C3721 0.950 . S
H3726 C3723 0.950 . S
C3727 C3718 1.390 . S
C3727 H3720 0.950 . S
C3727 C3724 1.387 . S
C3728 C3729 1.387 . S
C3728 H3732 0.950 . S
C3728 C3737 1.390 . S
C3729 C3728 1.387 . S
C3729 C3731 1.387 . S
H3730 C3737 0.950 . S
C3731 C3729 1.387 . S
C3731 C3733 1.390 . S
C3731 H3735 0.950 . S
H3732 C3728 0.950 . S
C3733 C3731 1.390 . S
C3733 C3734 1.387 . S
C3733 H3736 0.950 . S
C3734 C3733 1.387 . S
C3734 C3737 1.387 . S
H3735 C3731 0.950 . S
H3736 C3733 0.950 . S
C3737 C3728 1.390 . S
C3737 H3730 0.950 . S
C3737 C3734 1.387 . S
C3738 C3739 1.387 . S
C3738 H3742 0.950 . S
C3738 C3747 1.390 . S
C3739 C3738 1.387 . S
C3739 C3741 1.387 . S
H3740 C3747 0.950 . S
C3741 C3739 1.387 . S
C3741 C3743 1.390 . S
C3741 H3745 0.950 . S
H3742 C3738 0.950 . S
C3743 C3741 1.390 . S
C3743 C3744 1.387 . S
C3743 H3746 0.950 . S
C3744 C3743 1.387 . S
C3744 C3747 1.387 . S
H3745 C3741 0.950 . S
H3746 C3743 0.950 . S
C3747 C3738 1.390 . S
C3747 H3740 0.950 . S
C3747 C3744 1.387 . S
C3748 C3749 1.387 . S
C3748 H3752 0.950 . S
C3748 C3757 1.390 . S
C3749 C3748 1.387 . S
C3749 C3751 1.387 . S
H3750 C3757 0.950 . S
C3751 C3749 1.387 . S
C3751 C3753 1.390 . S
C3751 H3755 0.950 . S
H3752 C3748 0.950 . S
C3753 C3751 1.390 . S
C3753 C3754 1.387 . S
C3753 H3756 0.950 . S
C3754 C3753 1.387 . S
C3754 C3757 1.387 . S
H3755 C3751 0.950 . S
H3756 C3753 0.950 . S
C3757 C3748 1.390 . S
C3757 H3750 0.950 . S
C3757 C3754 1.387 . S
C3758 C3759 1.387 . S
C3758 H3762 0.950 . S
C3758 C3767 1.390 . S
C3759 C3758 1.387 . S
C3759 C3761 1.387 . S
H3760 C3767 0.950 . S
C3761 C3759 1.387 . S
C3761 C3763 1.390 . S
C3761 H3765 0.950 . S
H3762 C3758 0.950 . S
C3763 C3761 1.390 . S
C3763 C3764 1.387 . S
C3763 H3766 0.950 . S
C3764 C3763 1.387 . S
C3764 C3767 1.387 . S
H3765 C3761 0.950 . S
H3766 C3763 0.950 . S
C3767 C3758 1.390 . S
C3767 H3760 0.950 . S
C3767 C3764 1.387 . S
C3768 C3769 1.387 . S
C3768 H3772 0.950 . S
C3768 C3777 1.390 . S
C3769 C3768 1.387 . S
C3769 C3771 1.387 . S
H3770 C3777 0.950 . S
C3771 C3769 1.387 . S
C3771 C3773 1.390 . S
C3771 H3775 0.950 . S
H3772 C3768 0.950 . S
C3773 C3771 1.390 . S
C3773 C3774 1.387 . S
C3773 H3776 0.950 . S
C3774 C3773 1.387 . S
C3774 C3777 1.387 . S
H3775 C3771 0.950 . S
H3776 C3773 0.950 . S
C3777 C3768 1.390 . S
C3777 H3770 0.950 . S
C3777 C3774 1.387 . S
C3778 C3779 1.387 . S
C3778 H3782 0.950 . S
C3778 C3787 1.390 . S
C3779 C3778 1.387 . S
C3779 C3781 1.387 . S
H3780 C3787 0.950 . S
C3781 C3779 1.387 . S
C3781 C3783 1.390 . S
C3781 H3785 0.950 . S
H3782 C3778 0.950 . S
C3783 C3781 1.390 . S
C3783 C3784 1.387 . S
C3783 H3786 0.950 . S
C3784 C3783 1.387 . S
C3784 C3787 1.387 . S
H3785 C3781 0.950 . S
H3786 C3783 0.950 . S
C3787 C3778 1.390 . S
C3787 H3780 0.950 . S
C3787 C3784 1.387 . S
C3788 C3789 1.387 . S
C3788 H3792 0.950 . S
C3788 C3797 1.390 . S
C3789 C3788 1.387 . S
C3789 C3791 1.387 . S
H3790 C3797 0.950 . S
C3791 C3789 1.387 . S
C3791 C3793 1.390 . S
C3791 H3795 0.950 . S
H3792 C3788 0.950 . S
C3793 C3791 1.390 . S
C3793 C3794 1.387 . S
C3793 H3796 0.950 . S
C3794 C3793 1.387 . S
C3794 C3797 1.387 . S
H3795 C3791 0.950 . S
H3796 C3793 0.950 . S
C3797 C3788 1.390 . S
C3797 H3790 0.950 . S
C3797 C3794 1.387 . S
C3798 C3799 1.387 . S
C3798 H3802 0.950 . S
C3798 C3807 1.390 . S
C3799 C3798 1.387 . S
C3799 C3801 1.387 . S
H3800 C3807 0.950 . S
C3801 C3799 1.387 . S
C3801 C3803 1.390 . S
C3801 H3805 0.950 . S
H3802 C3798 0.950 . S
C3803 C3801 1.390 . S
C3803 C3804 1.387 . S
C3803 H3806 0.950 . S
C3804 C3803 1.387 . S
C3804 C3807 1.387 . S
H3805 C3801 0.950 . S
H3806 C3803 0.950 . S
C3807 C3798 1.390 . S
C3807 H3800 0.950 . S
C3807 C3804 1.387 . S
C3808 C3809 1.387 . S
C3808 H3812 0.950 . S
C3808 C3817 1.390 . S
C3809 C3808 1.387 . S
C3809 C3811 1.387 . S
H3810 C3817 0.950 . S
C3811 C3809 1.387 . S
C3811 C3813 1.390 . S
C3811 H3815 0.950 . S
H3812 C3808 0.950 . S
C3813 C3811 1.390 . S
C3813 C3814 1.387 . S
C3813 H3816 0.950 . S
C3814 C3813 1.387 . S
C3814 C3817 1.387 . S
H3815 C3811 0.950 . S
H3816 C3813 0.950 . S
C3817 C3808 1.390 . S
C3817 H3810 0.950 . S
C3817 C3814 1.387 . S
C3818 C3819 1.387 . S
C3818 H3822 0.950 . S
C3818 C3827 1.390 . S
C3819 C3818 1.387 . S
C3819 C3821 1.387 . S
H3820 C3827 0.950 . S
C3821 C3819 1.387 . S
C3821 C3823 1.390 . S
C3821 H3825 0.950 . S
H3822 C3818 0.950 . S
C3823 C3821 1.390 . S
C3823 C3824 1.387 . S
C3823 H3826 0.950 . S
C3824 C3823 1.387 . S
C3824 C3827 1.387 . S
H3825 C3821 0.950 . S
H3826 C3823 0.950 . S
C3827 C3818 1.390 . S
C3827 H3820 0.950 . S
C3827 C3824 1.387 . S
C3828 C3829 1.387 1_554 S
C3828 H3832 0.950 . S
C3828 C3837 1.390 . S
C3829 C3828 1.387 1_556 S
C3829 C3831 1.387 1_455 S
H3830 C3837 0.950 . S
C3831 C3829 1.387 1_655 S
C3831 C3833 1.390 . S
C3831 H3835 0.950 . S
H3832 C3828 0.950 . S
C3833 C3831 1.390 . S
C3833 C3834 1.387 1_556 S
C3833 H3836 0.950 . S
C3834 C3833 1.387 1_554 S
C3834 C3837 1.387 1_655 S
H3835 C3831 0.950 . S
H3836 C3833 0.950 . S
C3837 C3828 1.390 . S
C3837 H3830 0.950 . S
C3837 C3834 1.387 1_455 S
C3838 C3839 1.387 . S
C3838 H3842 0.950 . S
C3838 C3847 1.390 . S
C3839 C3838 1.387 . S
C3839 C3841 1.387 1_554 S
H3840 C3847 0.950 . S
C3841 C3839 1.387 1_556 S
C3841 C3843 1.390 . S
C3841 H3845 0.950 . S
H3842 C3838 0.950 . S
C3843 C3841 1.390 . S
C3843 C3844 1.387 . S
C3843 H3846 0.950 . S
C3844 C3843 1.387 . S
C3844 C3847 1.387 1_556 S
H3845 C3841 0.950 . S
H3846 C3843 0.950 . S
C3847 C3838 1.390 . S
C3847 H3840 0.950 . S
C3847 C3844 1.387 1_554 S
C3848 C3849 1.387 . S
C3848 H3852 0.950 . S
C3848 C3857 1.390 1_544 S
C3849 C3848 1.387 . S
C3849 C3851 1.387 . S
H3850 C3857 0.950 . S
C3851 C3849 1.387 . S
C3851 C3853 1.390 1_544 S
C3851 H3855 0.950 . S
H3852 C3848 0.950 . S
C3853 C3851 1.390 1_566 S
C3853 C3854 1.387 . S
C3853 H3856 0.950 . S
C3854 C3853 1.387 . S
C3854 C3857 1.387 . S
H3855 C3851 0.950 . S
H3856 C3853 0.950 . S
C3857 C3848 1.390 1_566 S
C3857 H3850 0.950 . S
C3857 C3854 1.387 . S
C3858 C3859 1.387 . S
C3858 H3862 0.950 . S
C3858 C3867 1.390 1_566 S
C3859 C3858 1.387 . S
C3859 C3861 1.387 . S
H3860 C3867 0.950 . S
C3861 C3859 1.387 . S
C3861 C3863 1.390 1_566 S
C3861 H3865 0.950 . S
H3862 C3858 0.950 . S
C3863 C3861 1.390 1_544 S
C3863 C3864 1.387 . S
C3863 H3866 0.950 . S
C3864 C3863 1.387 . S
C3864 C3867 1.387 . S
H3865 C3861 0.950 . S
H3866 C3863 0.950 . S
C3867 C3858 1.390 1_544 S
C3867 H3860 0.950 . S
C3867 C3864 1.387 . S
C3868 C3869 1.406 . S
C3868 H3872 0.932 . S
C3868 C3877 1.348 1_455 S
C3869 C3868 1.406 . S
C3869 C3871 1.387 1_556 S
H3870 C3877 0.950 . S
C3871 C3869 1.387 1_554 S
C3871 C3873 1.353 1_455 S
C3871 H3875 0.950 . S
H3872 C3868 0.932 . S
C3873 C3871 1.353 1_655 S
C3873 C3874 1.404 . S
C3873 H3876 0.932 . S
C3874 C3873 1.404 . S
C3874 C3877 1.387 1_554 S
H3875 C3871 0.950 . S
H3876 C3873 0.932 . S
C3877 C3868 1.348 1_655 S
C3877 H3870 0.950 . S
C3877 C3874 1.387 1_556 S
C3878 C3879 1.387 . S
C3878 H3882 0.950 . S
C3878 C3887 1.390 1_554 S
C3879 C3878 1.387 . S
C3879 C3881 1.387 . S
H3880 C3887 0.950 . S
C3881 C3879 1.387 . S
C3881 C3883 1.390 1_554 S
C3881 H3885 0.950 . S
H3882 C3878 0.950 . S
C3883 C3881 1.390 1_556 S
C3883 C3884 1.387 . S
C3883 H3886 0.950 . S
C3884 C3883 1.387 . S
C3884 C3887 1.387 . S
H3885 C3881 0.950 . S
H3886 C3883 0.950 . S
C3887 C3878 1.390 1_556 S
C3887 H3880 0.950 . S
C3887 C3884 1.387 . S
C3169 C29 1.312 . S
C3174 C1017 1.312 . S
C3179 C108 1.312 . S
C3184 C841 1.313 . S
C3189 C909 1.311 . S
C3194 C205 1.314 . S
C3199 C321 1.311 . S
C3204 C636 1.313 . S
C3209 C724 1.311 . S
C3214 C409 1.314 . S
C3219 C489 1.313 . S
C3224 C548 1.312 . S
C3229 C2073 1.312 . S
C3234 C1085 1.312 . S
C3239 C1164 1.312 . S
C3244 C1897 1.313 . S
C3249 C1261 1.312 . S
C3254 C1985 1.314 . S
C3259 C1692 1.313 . S
C3264 C1377 1.311 . S
C3269 C1457 1.315 . S
C3274 C1789 1.311 . S
C3279 C1604 1.311 . S
C3284 C1545 1.314 . S
C3289 C2141 1.313 . S
C3294 C3129 1.313 . S
C3299 C2953 1.313 . S
C3304 C2220 1.312 . S
C3309 C3021 1.314 . S
C3314 C2317 1.312 . S
C3319 C2748 1.311 . S
C3324 C2433 1.314 . S
C3329 C2845 1.311 . S
C3334 C2513 1.314 . S
C3339 C2660 1.312 . S
C3344 C2601 1.313 . S
C3349 C57 1.339 . S
C3354 C381 1.340 . S
C3359 C460 1.335 . S
C3364 C137 1.335 . S
C3369 C233 1.340 . S
C3374 C293 1.340 . S
C3379 C577 1.338 . S
C3384 C937 1.339 . S
C3389 C665 1.338 . S
C3394 C988 1.337 . S
C3399 C753 1.335 . S
C3404 C812 1.335 . S
C3409 C1428 1.336 . S
C3414 C1113 1.337 . S
C3419 C1516 1.335 . S
C3424 C1193 1.335 . S
C3429 C1289 1.336 . S
C3434 C1349 1.336 . S
C3439 C1956 1.339 . S
C3444 C1633 1.339 . S
C3449 C2044 1.335 . S
C3454 C1721 1.334 . S
C3459 C1817 1.339 . S
C3464 C1868 1.339 . S
C3469 C2484 1.335 . S
C3474 C2169 1.336 . S
C3479 C2249 1.335 . S
C3484 C2572 1.336 . S
C3489 C2345 1.340 . S
C3494 C2405 1.340 . S
C3499 C3049 1.335 . S
C3504 C2689 1.336 . S
C3509 C2777 1.334 . S
C3514 C3100 1.335 . S
C3519 C2924 1.335 . S
C3524 C2873 1.335 . S
C3529 C2581 1.109 . S
C3534 C49 1.109 . S
C3539 C145 1.109 . S
C3544 C2396 1.109 . S
C3549 C225 1.109 . S
C3554 C2493 1.109 . S
C3559 C284 1.109 . S
C3564 C1201 1.109 . S
C3569 C1281 1.109 . S
C3574 C372 1.109 . S
C3579 C1105 1.109 . S
C3584 C469 1.109 . S
C3589 C557 1.109 . S
C3594 C2081 1.110 . S
C3599 C645 1.110 . S
C3604 C1905 1.110 . S
C3609 C733 1.110 . S
C3614 C1993 1.110 . S
C3619 C2757 1.109 . S
C3624 C849 1.109 . S
C3629 C2836 1.110 . S
C3634 C900 1.109 . S
C3639 C1025 1.110 . S
C3644 C2669 1.110 . S
C3649 C2257 1.109 . S
C3654 C1340 1.109 . S
C3659 C1437 1.109 . S
C3664 C2337 1.109 . S
C3669 C2161 1.109 . S
C3674 C1525 1.109 . S
C3679 C3137 1.109 . S
C3684 C1613 1.109 . S
C3689 C1701 1.109 . S
C3694 C2961 1.110 . S
C3699 C1780 1.110 . S
C3704 C3012 1.109 . S
C3709 C20 1.913 . S
C3714 C2609 1.913 . S
C3719 C2425 1.912 . S
C3724 C117 1.911 . S
C3729 C196 1.912 . S
C3734 C2521 1.913 . S
C3739 C1173 1.913 . S
C3744 C313 1.913 . S
C3749 C401 1.913 . S
C3754 C1252 1.913 . S
C3759 C497 1.911 . S
C3764 C1076 1.911 . S
C3769 C2053 1.911 . S
C3774 C585 1.911 . S
C3779 C673 1.912 . S
C3784 C1877 1.912 . S
C3789 C761 1.912 . S
C3794 C1965 1.913 . S
C3799 C821 1.911 . S
C3804 C2785 1.911 . S
C3809 C2865 1.911 . S
C3814 C929 1.911 . S
C3819 C997 1.911 . S
C3824 C2697 1.911 . S
C3829 C2229 1.913 . S
C3834 C1369 1.912 . S
C3839 C1465 1.912 . S
C3844 C2308 1.912 . S
C3849 C1553 1.911 . S
C3854 C2132 1.911 . S
C3859 C3109 1.911 . S
C3864 C1641 1.911 . S
C3869 C2933 1.912 . S
C3874 C1729 1.911 . S
C3879 C1809 1.912 . S
C3884 C3041 1.911 . S
