# Generated by pormake.
# Topology acs-a, (4)-cn, num edge types: 1
# Building blocks:
#     Node 0, Type 0, BuildingBlock: GALJAG_clean_sbu_0, # of connection points: 4
#     Node 1, Type 0, BuildingBlock: GALJAG_clean_sbu_0, # of connection points: 4
#     Node 2, Type 0, BuildingBlock: GALJAG_clean_sbu_0, # of connection points: 4
#     Node 3, Type 0, BuildingBlock: GALJAG_clean_sbu_0, # of connection points: 4
#     Node 4, Type 0, BuildingBlock: GALJAG_clean_sbu_0, # of connection points: 4
#     Node 5, Type 0, BuildingBlock: GALJAG_clean_sbu_0, # of connection points: 4
#     Node 6, Type 0, BuildingBlock: GALJAG_clean_sbu_0, # of connection points: 4
#     Node 7, Type 0, BuildingBlock: GALJAG_clean_sbu_0, # of connection points: 4
#     Node 8, Type 0, BuildingBlock: GALJAG_clean_sbu_0, # of connection points: 4
#     Node 9, Type 0, BuildingBlock: GALJAG_clean_sbu_0, # of connection points: 4
#     Node 10, Type 0, BuildingBlock: GALJAG_clean_sbu_0, # of connection points: 4
#     Node 11, Type 0, BuildingBlock: GALJAG_clean_sbu_0, # of connection points: 4
#     Edge 12, Type (0, 0), BuildingBlock: XUDNAN_clean_linker_2, # of connection points: 2
#     Edge 13, Type (0, 0), BuildingBlock: XUDNAN_clean_linker_2, # of connection points: 2
#     Edge 14, Type (0, 0), BuildingBlock: XUDNAN_clean_linker_2, # of connection points: 2
#     Edge 15, Type (0, 0), BuildingBlock: XUDNAN_clean_linker_2, # of connection points: 2
#     Edge 16, Type (0, 0), BuildingBlock: XUDNAN_clean_linker_2, # of connection points: 2
#     Edge 17, Type (0, 0), BuildingBlock: XUDNAN_clean_linker_2, # of connection points: 2
#     Edge 18, Type (0, 0), BuildingBlock: XUDNAN_clean_linker_2, # of connection points: 2
#     Edge 19, Type (0, 0), BuildingBlock: XUDNAN_clean_linker_2, # of connection points: 2
#     Edge 20, Type (0, 0), BuildingBlock: XUDNAN_clean_linker_2, # of connection points: 2
#     Edge 21, Type (0, 0), BuildingBlock: XUDNAN_clean_linker_2, # of connection points: 2
#     Edge 22, Type (0, 0), BuildingBlock: XUDNAN_clean_linker_2, # of connection points: 2
#     Edge 23, Type (0, 0), BuildingBlock: XUDNAN_clean_linker_2, # of connection points: 2
#     Edge 24, Type (0, 0), BuildingBlock: XUDNAN_clean_linker_2, # of connection points: 2
#     Edge 25, Type (0, 0), BuildingBlock: XUDNAN_clean_linker_2, # of connection points: 2
#     Edge 26, Type (0, 0), BuildingBlock: XUDNAN_clean_linker_2, # of connection points: 2
#     Edge 27, Type (0, 0), BuildingBlock: XUDNAN_clean_linker_2, # of connection points: 2
#     Edge 28, Type (0, 0), BuildingBlock: XUDNAN_clean_linker_2, # of connection points: 2
#     Edge 29, Type (0, 0), BuildingBlock: XUDNAN_clean_linker_2, # of connection points: 2
#     Edge 30, Type (0, 0), BuildingBlock: XUDNAN_clean_linker_2, # of connection points: 2
#     Edge 31, Type (0, 0), BuildingBlock: XUDNAN_clean_linker_2, # of connection points: 2
#     Edge 32, Type (0, 0), BuildingBlock: XUDNAN_clean_linker_2, # of connection points: 2
#     Edge 33, Type (0, 0), BuildingBlock: XUDNAN_clean_linker_2, # of connection points: 2
#     Edge 34, Type (0, 0), BuildingBlock: XUDNAN_clean_linker_2, # of connection points: 2
#     Edge 35, Type (0, 0), BuildingBlock: XUDNAN_clean_linker_2, # of connection points: 2
# Relax obj value: 0.468
# Max RMSD: 0.202
# Mean RMSD: 0.201
data_MOF--net-acs-a--node1-GALJAG_clean_sbu_0--edge1-XUDNAN_clean_linker_2
_symmetry_space_group_name_H-M    P1
_symmetry_Int_Tables_number       1
_symmetry_cell_setting            triclinic
loop_
_symmetry_equiv_pos_as_xyz
'x, y, z'
_cell_length_a     52.046187
_cell_length_b     51.943377
_cell_length_c     29.636211
_cell_angle_alpha  90.032498
_cell_angle_beta   89.911756
_cell_angle_gamma 119.95869
loop_
_atom_site_label
_atom_site_type_symbol
_atom_site_fract_x
_atom_site_fract_y
_atom_site_fract_z
_atom_type_partial_charge
In0 In 0.62608 0.16037 1.00019 0.0
O1 O 0.62283 0.17539 0.07123 0.0
O2 O 0.63389 0.14135 0.06459 0.0
C3 C 0.67992 0.20306 0.97202 0.0
C4 C 0.60568 0.10459 0.96959 0.0
C5 C 0.58707 0.17862 0.9809 0.0
O6 O 0.6732 0.1966 0.01293 0.0
O7 O 0.65949 0.1874 0.94448 0.0
O8 O 0.61094 0.18768 0.95914 0.0
O9 O 0.58272 0.16 0.01148 0.0
C10 C 0.62881 0.15745 0.09074 0.0
O11 O 0.58952 0.11605 0.97455 0.0
O12 O 0.63281 0.122 0.97709 0.0
In13 In 0.41168 0.56686 0.46965 0.0
O14 O 0.4298 0.55743 0.53344 0.0
O15 O 0.39258 0.56358 0.54033 0.0
C16 C 0.43119 0.62497 0.4539 0.0
C17 C 0.445 0.5449 0.43667 0.0
C18 C 0.35529 0.53621 0.43989 0.0
O19 O 0.42466 0.61349 0.49266 0.0
O20 O 0.42912 0.60737 0.42287 0.0
O21 O 0.36479 0.5272 0.47173 0.0
O22 O 0.37458 0.5601 0.4218 0.0
C23 C 0.41082 0.55785 0.5594 0.0
O24 O 0.41718 0.53156 0.43254 0.0
O25 O 0.45611 0.57033 0.4544 0.0
In26 In 0.82642 0.4585 0.02946 0.0
O27 O 0.87507 0.47205 0.03431 0.0
O28 O 0.86496 0.50548 0.01628 0.0
C29 C 0.81666 0.40675 0.99291 0.0
C30 C 0.80725 0.44676 0.11583 0.0
C31 C 0.79103 0.47525 0.98788 0.0
O32 O 0.81869 0.41154 0.0348 0.0
O33 O 0.82032 0.42843 0.96906 0.0
O34 O 0.79814 0.48068 0.02891 0.0
O35 O 0.80242 0.46206 0.96756 0.0
C36 C 0.88472 0.49891 0.0245 0.0
O37 O 0.83277 0.46746 0.10512 0.0
O38 O 0.7911 0.43237 0.08287 0.0
In39 In 0.37528 0.82648 0.47487 0.0
O40 O 0.41874 0.869 0.46286 0.0
O41 O 0.37944 0.86716 0.43875 0.0
C42 C 0.40212 0.79467 0.45605 0.0
C43 C 0.3768 0.83445 0.56501 0.0
C44 C 0.31835 0.79643 0.44633 0.0
O45 O 0.39793 0.80951 0.42615 0.0
O46 O 0.39313 0.79629 0.49487 0.0
O47 O 0.32624 0.81209 0.4815 0.0
O48 O 0.33922 0.79622 0.42508 0.0
C49 C 0.40708 0.88264 0.44469 0.0
O50 O 0.36763 0.80915 0.54758 0.0
O51 O 0.38448 0.85529 0.53707 0.0
In52 In 0.5453 0.38091 0.02776 0.0
O53 O 0.57042 0.37258 0.08384 0.0
O54 O 0.55011 0.39817 0.09959 0.0
C55 C 0.52987 0.32578 0.99907 0.0
C56 C 0.50081 0.39304 0.01977 0.0
C57 C 0.59454 0.42136 0.98459 0.0
O58 O 0.51989 0.33044 0.03509 0.0
O59 O 0.54673 0.34883 0.97678 0.0
O60 O 0.57312 0.40047 0.96362 0.0
O61 O 0.59051 0.42199 0.02642 0.0
C62 C 0.56578 0.38746 0.11303 0.0
O63 O 0.52691 0.41057 0.00702 0.0
O64 O 0.49654 0.36847 0.03438 0.0
In65 In 0.14322 0.5604 0.49976 0.0
O66 O 0.09529 0.54359 0.51763 0.0
O67 O 0.10368 0.52263 0.46271 0.0
C68 C 0.15348 0.6112 0.45925 0.0
C69 C 0.16256 0.57319 0.58587 0.0
C70 C 0.1752 0.53605 0.47005 0.0
O71 O 0.15792 0.59218 0.43977 0.0
O72 O 0.14277 0.60399 0.4984 0.0
O73 O 0.1552 0.52366 0.49961 0.0
O74 O 0.17887 0.5605 0.45567 0.0
C75 C 0.08471 0.52364 0.48797 0.0
O76 O 0.17781 0.58876 0.55301 0.0
O77 O 0.13824 0.55083 0.57509 0.0
In78 In 0.8137 0.39817 0.52294 0.0
O79 O 0.86113 0.42073 0.54908 0.0
O80 O 0.85013 0.39172 0.49281 0.0
C81 C 0.79973 0.43455 0.56805 0.0
C82 C 0.79818 0.40549 0.43872 0.0
C83 C 0.78777 0.34447 0.56299 0.0
O84 O 0.82503 0.44366 0.55091 0.0
O85 O 0.78173 0.4072 0.56268 0.0
O86 O 0.79041 0.34785 0.52075 0.0
O87 O 0.79834 0.36828 0.58536 0.0
C88 C 0.86991 0.40937 0.51948 0.0
O89 O 0.78081 0.3841 0.46364 0.0
O90 O 0.82275 0.42305 0.45655 0.0
In91 In 0.43537 0.83622 0.97239 0.0
O92 O 0.45546 0.88274 0.00136 0.0
O93 O 0.48514 0.86894 0.97769 0.0
C94 C 0.38484 0.81909 0.01882 0.0
C95 C 0.4216 0.84204 0.8867 0.0
C96 C 0.44874 0.79259 0.98163 0.0
O97 O 0.40887 0.82567 0.0385 0.0
O98 O 0.38664 0.82147 0.97648 0.0
O99 O 0.4568 0.80971 0.94794 0.0
O100 O 0.4344 0.7978 0.01105 0.0
C101 C 0.48194 0.88967 0.99349 0.0
O102 O 0.41676 0.81742 0.90243 0.0
O103 O 0.43341 0.86343 0.91403 0.0
In104 In 0.61474 0.44857 0.51125 0.0
O105 O 0.56674 0.43424 0.49663 0.0
O106 O 0.59498 0.47883 0.51822 0.0
C107 C 0.59884 0.39421 0.54343 0.0
C108 C 0.62738 0.44589 0.42336 0.0
C109 C 0.66052 0.48513 0.56444 0.0
O110 O 0.5819 0.40505 0.54715 0.0
O111 O 0.62341 0.41104 0.52476 0.0
O112 O 0.66102 0.48802 0.52215 0.0
O113 O 0.63589 0.46546 0.58004 0.0
C114 C 0.56966 0.45948 0.50418 0.0
O115 O 0.61983 0.46397 0.43772 0.0
O116 O 0.62999 0.43036 0.4535 0.0
In117 In 0.15532 0.61426 0.99785 0.0
O118 O 0.11095 0.58904 0.03443 0.0
O119 O 0.11775 0.62437 0.991 0.0
C120 C 0.16981 0.57319 0.0229 0.0
C121 C 0.16667 0.61385 0.9089 0.0
C122 C 0.19056 0.66704 0.03712 0.0
O123 O 0.18344 0.59962 0.03694 0.0
O124 O 0.14806 0.56712 0.99761 0.0
O125 O 0.18301 0.66438 0.99614 0.0
O126 O 0.17953 0.64293 0.0589 0.0
C127 C 0.10038 0.6039 0.01707 0.0
O128 O 0.18653 0.62993 0.93679 0.0
O129 O 0.14114 0.59858 0.92569 0.0
In130 In 0.57822 0.14893 0.50272 0.0
O131 O 0.58349 0.16419 0.42916 0.0
O132 O 0.59835 0.13426 0.44772 0.0
C133 C 0.57187 0.19592 0.523 0.0
C134 C 0.5295 0.09477 0.50301 0.0
C135 C 0.62376 0.162 0.55907 0.0
O136 O 0.59285 0.1978 0.49916 0.0
O137 O 0.55326 0.16994 0.53581 0.0
O138 O 0.59894 0.15729 0.57353 0.0
O139 O 0.62444 0.15788 0.51732 0.0
C140 C 0.59524 0.14913 0.41682 0.0
O141 O 0.55251 0.10051 0.52499 0.0
O142 O 0.53045 0.11678 0.48357 0.0
In143 In 0.37232 0.53137 0.97407 0.0
O144 O 0.40551 0.52363 0.01283 0.0
O145 O 0.36269 0.48652 0.00214 0.0
C146 C 0.40834 0.59051 0.98592 0.0
C147 C 0.37681 0.52493 0.88477 0.0
C148 C 0.31709 0.51769 0.99843 0.0
O149 O 0.38866 0.57451 0.01417 0.0
O150 O 0.41035 0.5766 0.95259 0.0
O151 O 0.32225 0.50784 0.96266 0.0
O152 O 0.33964 0.53384 0.02202 0.0
C153 C 0.38845 0.49606 0.01738 0.0
O154 O 0.3628 0.537 0.90053 0.0
O155 O 0.38762 0.51546 0.91404 0.0
H156 H 0.59064 0.17886 0.34358 0.0
H157 H 0.62018 0.11758 0.38428 0.0
H158 H 0.6342 0.11493 0.3056 0.0
H159 H 0.55875 0.144 0.23923 0.0
H160 H 0.57021 0.17821 0.20914 0.0
H161 H 0.56382 0.17648 0.26906 0.0
H162 H 0.61698 0.2208 0.28095 0.0
H163 H 0.62353 0.22265 0.22101 0.0
H164 H 0.64823 0.21864 0.25922 0.0
H165 H 0.64274 0.11693 0.22244 0.0
H166 H 0.64553 0.1238 0.13974 0.0
H167 H 0.61113 0.18427 0.15315 0.0
C168 C 0.60026 0.16508 0.33594 0.0
C169 C 0.60436 0.14845 0.36994 0.0
C170 C 0.61689 0.13054 0.35869 0.0
C171 C 0.62496 0.12891 0.31415 0.0
C172 C 0.62048 0.14543 0.28135 0.0
C173 C 0.60851 0.16324 0.29164 0.0
C174 C 0.60528 0.17807 0.24978 0.0
C175 C 0.57257 0.16861 0.24131 0.0
C176 C 0.62467 0.21206 0.25295 0.0
C177 C 0.61692 0.16548 0.21434 0.0
C178 C 0.62567 0.14678 0.2333 0.0
C179 C 0.63621 0.13171 0.20718 0.0
C180 C 0.63768 0.13572 0.16031 0.0
C181 C 0.62869 0.15466 0.1402 0.0
C182 C 0.61843 0.16988 0.16769 0.0
H183 H 0.37661 0.56383 0.62439 0.0
H184 H 0.44145 0.53564 0.6034 0.0
H185 H 0.43764 0.52169 0.68375 0.0
H186 H 0.40301 0.59616 0.73368 0.0
H187 H 0.36653 0.58457 0.75575 0.0
H188 H 0.37369 0.59144 0.69625 0.0
H189 H 0.33058 0.53837 0.67901 0.0
H190 H 0.32344 0.53125 0.73852 0.0
H191 H 0.33059 0.50681 0.70427 0.0
H192 H 0.42662 0.51046 0.76562 0.0
H193 H 0.41224 0.50647 0.84573 0.0
H194 H 0.35563 0.54333 0.81441 0.0
C195 C 0.38998 0.5547 0.63676 0.0
C196 C 0.40926 0.55071 0.60778 0.0
C197 C 0.42657 0.53891 0.62513 0.0
C198 C 0.42446 0.53079 0.67062 0.0
C199 C 0.40507 0.53479 0.69825 0.0
C200 C 0.38834 0.54673 0.68219 0.0
C201 C 0.37004 0.54968 0.71946 0.0
C202 C 0.37886 0.5824 0.72671 0.0
C203 C 0.33668 0.53037 0.70972 0.0
C204 C 0.37921 0.53765 0.75902 0.0
C205 C 0.39918 0.5289 0.74588 0.0
C206 C 0.41101 0.51724 0.77637 0.0
C207 C 0.40263 0.51498 0.82175 0.0
C208 C 0.38282 0.52458 0.8362 0.0
C209 C 0.37073 0.53573 0.80427 0.0
H210 H 0.83992 0.47261 0.19152 0.0
H211 H 0.75389 0.40212 0.14717 0.0
H212 H 0.74026 0.38588 0.22638 0.0
H213 H 0.85169 0.4312 0.273 0.0
H214 H 0.86987 0.46127 0.31277 0.0
H215 H 0.87148 0.46912 0.2534 0.0
H216 H 0.84952 0.50348 0.26824 0.0
H217 H 0.84795 0.49582 0.32779 0.0
H218 H 0.81491 0.48918 0.29832 0.0
H219 H 0.73791 0.37486 0.31023 0.0
H220 H 0.74704 0.3704 0.39113 0.0
H221 H 0.8345 0.44833 0.37934 0.0
C222 C 0.81799 0.4541 0.19851 0.0
C223 C 0.7979 0.4387 0.16328 0.0
C224 C 0.76957 0.41433 0.17374 0.0
C225 C 0.76163 0.40497 0.21861 0.0
C226 C 0.78222 0.42033 0.25254 0.0
C227 C 0.80976 0.44449 0.24297 0.0
C228 C 0.82856 0.45617 0.285 0.0
C229 C 0.85707 0.45431 0.28077 0.0
C230 C 0.83564 0.48806 0.29545 0.0
C231 C 0.80759 0.43443 0.31963 0.0
C232 C 0.78086 0.41403 0.30046 0.0
C233 C 0.75862 0.39094 0.32568 0.0
C234 C 0.76399 0.38855 0.37154 0.0
C235 C 0.7914 0.40908 0.39151 0.0
C236 C 0.81321 0.43245 0.36516 0.0
H237 H 0.39783 0.79987 0.81993 0.0
H238 H 0.42807 0.89265 0.84867 0.0
H239 H 0.41617 0.8996 0.77072 0.0
H240 H 0.42735 0.81092 0.70953 0.0
H241 H 0.39679 0.77757 0.68642 0.0
H242 H 0.40568 0.77927 0.7454 0.0
H243 H 0.3519 0.76539 0.76629 0.0
H244 H 0.34286 0.76373 0.70729 0.0
H245 H 0.33681 0.78754 0.74478 0.0
H246 H 0.40378 0.89741 0.68933 0.0
H247 H 0.3927 0.88647 0.60843 0.0
H248 H 0.37024 0.79506 0.63188 0.0
C249 C 0.40168 0.82156 0.80988 0.0
C250 C 0.41382 0.84572 0.84027 0.0
C251 C 0.41876 0.87383 0.82589 0.0
C252 C 0.41198 0.87798 0.78176 0.0
C253 C 0.40018 0.85378 0.75253 0.0
C254 C 0.39505 0.82611 0.76588 0.0
C255 C 0.38344 0.80419 0.7271 0.0
C256 C 0.40458 0.7923 0.71649 0.0
C257 C 0.35187 0.77871 0.73697 0.0
C258 C 0.38349 0.82407 0.68968 0.0
C259 C 0.39295 0.8525 0.70527 0.0
C260 C 0.39607 0.87517 0.67676 0.0
C261 C 0.38973 0.86874 0.63089 0.0
C262 C 0.38048 0.8399 0.61402 0.0
C263 C 0.37693 0.81721 0.64397 0.0
H264 H 0.60674 0.4646 0.35371 0.0
H265 H 0.64726 0.41128 0.38484 0.0
H266 H 0.63895 0.39282 0.30631 0.0
H267 H 0.54948 0.41167 0.29103 0.0
H268 H 0.54835 0.43663 0.24989 0.0
H269 H 0.56213 0.44985 0.30572 0.0
H270 H 0.61171 0.49145 0.2726 0.0
H271 H 0.59788 0.47876 0.21648 0.0
H272 H 0.63245 0.48187 0.23406 0.0
H273 H 0.6211 0.37598 0.22708 0.0
H274 H 0.59677 0.36357 0.15226 0.0
H275 H 0.56627 0.4265 0.17492 0.0
C276 C 0.61481 0.44987 0.34357 0.0
C277 C 0.62792 0.43958 0.37505 0.0
C278 C 0.63743 0.41962 0.36097 0.0
C279 C 0.63276 0.409 0.31652 0.0
C280 C 0.61859 0.41861 0.28674 0.0
C281 C 0.61004 0.43884 0.29956 0.0
C282 C 0.59287 0.44359 0.26253 0.0
C283 C 0.56135 0.4349 0.27826 0.0
C284 C 0.60974 0.47583 0.2454 0.0
C285 C 0.59233 0.42223 0.22741 0.0
C286 C 0.6076 0.4083 0.24168 0.0
C287 C 0.60935 0.38697 0.21535 0.0
C288 C 0.59535 0.37995 0.17309 0.0
C289 C 0.57958 0.39399 0.15804 0.0
C290 C 0.57808 0.41533 0.18566 0.0
H291 H 0.12821 0.54827 0.66023 0.0
H292 H 0.21522 0.61836 0.61839 0.0
H293 H 0.22689 0.63552 0.6976 0.0
H294 H 0.11455 0.59107 0.73756 0.0
H295 H 0.09527 0.56145 0.77775 0.0
H296 H 0.09501 0.55296 0.71882 0.0
H297 H 0.11624 0.51847 0.73758 0.0
H298 H 0.1163 0.52662 0.79669 0.0
H299 H 0.15001 0.53284 0.76977 0.0
H300 H 0.22782 0.64624 0.78136 0.0
H301 H 0.21783 0.64977 0.86221 0.0
H302 H 0.12945 0.5737 0.84713 0.0
C303 C 0.14995 0.56689 0.6678 0.0
C304 C 0.17093 0.58187 0.63334 0.0
C305 C 0.19891 0.60647 0.64444 0.0
C306 C 0.20571 0.61636 0.68928 0.0
C307 C 0.18422 0.60142 0.72237 0.0
C308 C 0.15694 0.57716 0.71211 0.0
C309 C 0.13705 0.56594 0.75317 0.0
C310 C 0.10881 0.56799 0.7464 0.0
C311 C 0.12947 0.53408 0.765 0.0
C312 C 0.15722 0.58791 0.78812 0.0
C313 C 0.18445 0.60804 0.76994 0.0
C314 C 0.2066 0.63054 0.79595 0.0
C315 C 0.20072 0.63241 0.84174 0.0
C316 C 0.17284 0.61211 0.86074 0.0
C317 C 0.15091 0.58964 0.83345 0.0
H318 H 0.54735 0.06289 0.97135 0.0
H319 H 0.6352 0.07343 0.95974 0.0
H320 H 0.61331 0.01883 0.96568 0.0
H321 H 0.52192 0.00876 0.05514 0.0
H322 H 0.48442 0.9882 0.0344 0.0
H323 H 0.50643 0.02746 0.02364 0.0
H324 H 0.4981 0.01833 0.93749 0.0
H325 H 0.47539 0.97909 0.94805 0.0
H326 H 0.50675 0.99246 0.91049 0.0
H327 H 0.58126 0.96283 0.97642 0.0
H328 H 0.54175 0.91045 0.98742 0.0
H329 H 0.47643 0.93881 0.99767 0.0
C330 C 0.56197 0.05373 0.96887 0.0
C331 C 0.59291 0.07227 0.96463 0.0
C332 C 0.61136 0.05948 0.96248 0.0
C333 C 0.59915 0.02857 0.9661 0.0
C334 C 0.56858 0.01101 0.97212 0.0
C335 C 0.55027 0.02319 0.97313 0.0
C336 C 0.51842 -2e-05 0.98231 0.0
C337 C 0.50716 0.0065 0.0265 0.0
C338 C 0.4985 -0.0027 0.94219 0.0
C339 C 0.52159 0.97277 0.98671 0.0
C340 C 0.55058 0.9794 0.9804 0.0
C341 C 0.55851 0.95743 0.98157 0.0
C342 C 0.53603 0.92783 0.98812 0.0
C343 C 0.5062 0.92074 0.99401 0.0
C344 C 0.49913 0.94363 0.99417 0.0
H345 H 0.50248 0.56516 0.46086 0.0
H346 H 0.42512 0.48889 0.40398 0.0
H347 H 0.44949 0.45884 0.41312 0.0
H348 H 0.55898 0.5479 0.41407 0.0
H349 H 0.58103 0.56097 0.46463 0.0
H350 H 0.5593 0.57734 0.44674 0.0
H351 H 0.53379 0.56547 0.52513 0.0
H352 H 0.55474 0.54829 0.54287 0.0
H353 H 0.5148 0.52763 0.54516 0.0
H354 H 0.47936 0.4356 0.4377 0.0
H355 H 0.51531 0.42215 0.46782 0.0
H356 H 0.57275 0.51355 0.50969 0.0
C357 C 0.4911 0.54245 0.44878 0.0
C358 C 0.462 0.52936 0.43146 0.0
C359 C 0.44755 0.49939 0.41697 0.0
C360 C 0.46114 0.48212 0.42225 0.0
C361 C 0.48921 0.49527 0.44177 0.0
C362 C 0.50428 0.52491 0.454 0.0
C363 C 0.53335 0.53316 0.47697 0.0
C364 C 0.55973 0.5562 0.44892 0.0
C365 C 0.53419 0.54429 0.52539 0.0
C366 C 0.5319 0.50336 0.47685 0.0
C367 C 0.50633 0.48182 0.45625 0.0
C368 C 0.49965 0.45236 0.45338 0.0
C369 C 0.52006 0.44488 0.47093 0.0
C370 C 0.54674 0.4668 0.49116 0.0
C371 C 0.55248 0.4963 0.49455 0.0
H372 H 0.05566 0.55285 0.05288 0.0
H373 H 0.07471 0.63645 0.9918 0.0
H374 H 0.0212 0.62009 0.99215 0.0
H375 H -0.00645 0.50854 0.98847 0.0
H376 H 0.97295 0.48246 0.03269 0.0
H377 H 0.01283 0.50231 0.03388 0.0
H378 H 0.01225 0.52241 0.11375 0.0
H379 H 0.97229 0.50231 0.11306 0.0
H380 H 0.99207 0.5418 0.12318 0.0
H381 H 0.96538 0.59278 0.99322 0.0
H382 H 0.91153 0.55657 0.99505 0.0
H383 H 0.92971 0.49054 0.05271 0.0
C384 C 0.04864 0.56803 0.04073 0.0
C385 C 0.0692 0.59598 0.02272 0.0
C386 C 0.0592 0.61499 0.00604 0.0
C387 C 0.02892 0.60591 0.00614 0.0
C388 C 0.00907 0.5778 0.02297 0.0
C389 C 0.01855 0.5592 0.04013 0.0
C390 C -0.0073 0.52918 0.05269 0.0
C391 C -0.00696 0.50417 0.02528 0.0
C392 C 0.99231 0.52361 0.1037 0.0
C393 C 0.9672 0.53356 0.03898 0.0
C394 C 0.97701 0.56184 0.02245 0.0
C395 C 0.95741 0.57066 0.00647 0.0
C396 C 0.92694 0.54997 0.00751 0.0
C397 C 0.9166 0.52083 0.0239 0.0
C398 C 0.93703 0.51268 0.03994 0.0
H399 H 0.52993 0.04356 0.52104 0.0
H400 H 0.47616 0.07725 0.46236 0.0
H401 H 0.43989 0.02659 0.43646 0.0
H402 H 0.51983 0.99347 0.43284 0.0
H403 H 0.5185 0.96509 0.46936 0.0
H404 H 0.53925 0.00354 0.48597 0.0
H405 H 0.50926 0.99162 0.56055 0.0
H406 H 0.48898 0.95303 0.54469 0.0
H407 H 0.46931 0.97238 0.55838 0.0
H408 H 0.41009 0.97222 0.4158 0.0
H409 H 0.38716 0.91772 0.40745 0.0
H410 H 0.46226 0.92101 0.4763 0.0
C411 C 0.51022 0.04019 0.50357 0.0
C412 C 0.50565 0.06419 0.494 0.0
C413 C 0.47989 0.05903 0.47031 0.0
C414 C 0.45931 0.03042 0.45522 0.0
C415 C 0.46502 0.00739 0.46386 0.0
C416 C 0.4897 0.01194 0.48785 0.0
C417 C 0.49104 0.98364 0.49205 0.0
C418 C 0.51881 0.98663 0.46865 0.0
C419 C 0.48954 0.97463 0.54187 0.0
C420 C 0.46315 0.96239 0.4669 0.0
C421 C 0.44844 0.97646 0.45078 0.0
C422 C 0.42149 0.96099 0.42805 0.0
C423 C 0.40874 0.93012 0.42318 0.0
C424 C 0.42309 0.91525 0.44083 0.0
C425 C 0.45101 0.93181 0.46176 0.0
H426 H 0.44588 0.51011 0.02519 0.0
H427 H 0.35575 0.43657 0.03635 0.0
H428 H 0.37484 0.40162 0.04314 0.0
H429 H 0.4701 0.47518 0.95351 0.0
H430 H 0.50702 0.49107 0.97628 0.0
H431 H 0.48699 0.51084 0.98119 0.0
H432 H 0.49341 0.51349 0.06809 0.0
H433 H 0.51414 0.49431 0.06345 0.0
H434 H 0.48203 0.47982 0.09964 0.0
H435 H 0.40398 0.37444 0.04107 0.0
H436 H 0.44074 0.35768 0.03174 0.0
H437 H 0.51062 0.44936 0.01619 0.0
C438 C 0.43019 0.48679 0.03072 0.0
C439 C 0.3994 0.47601 0.03084 0.0
C440 C 0.37948 0.44524 0.03671 0.0
C441 C 0.39011 0.42526 0.04049 0.0
C442 C 0.42064 0.43651 0.03812 0.0
C443 C 0.44038 0.46662 0.0337 0.0
C444 C 0.47179 0.47293 0.02734 0.0
C445 C 0.48471 0.48841 0.98188 0.0
C446 C 0.4915 0.49121 0.067 0.0
C447 C 0.46662 0.44165 0.02768 0.0
C448 C 0.43711 0.42091 0.03467 0.0
C449 C 0.42717 0.39051 0.03581 0.0
C450 C 0.44809 0.38119 0.03022 0.0
C451 C 0.47834 0.40224 0.02274 0.0
C452 C 0.48755 0.43275 0.02128 0.0
H453 H 0.91711 0.4527 0.56511 0.0
H454 H 0.89359 0.38814 0.45741 0.0
H455 H 0.94667 0.40911 0.43893 0.0
H456 H 0.97265 0.51252 0.50684 0.0
H457 H -0.00313 0.52878 0.55463 0.0
H458 H 0.95747 0.50649 0.5631 0.0
H459 H 0.96528 0.47197 0.61764 0.0
H460 H 0.00479 0.49447 0.60993 0.0
H461 H 0.98646 0.45508 0.59911 0.0
H462 H 0.00209 0.44013 0.4281 0.0
H463 H 0.05576 0.47726 0.42871 0.0
H464 H 0.04178 0.52142 0.54263 0.0
C465 C 0.92316 0.4425 0.53839 0.0
C466 C 0.90138 0.41877 0.51283 0.0
C467 C 0.91006 0.40629 0.47758 0.0
C468 C 0.9401 0.41805 0.46678 0.0
C469 C 0.96102 0.44215 0.49172 0.0
C470 C 0.95293 0.45401 0.52709 0.0
C471 C 0.97943 0.48091 0.54698 0.0
C472 C 0.97641 0.50881 0.54259 0.0
C473 C 0.98427 0.47526 0.59634 0.0
C474 C 0.00361 0.48271 0.51669 0.0
C475 C -0.00731 0.4601 0.48517 0.0
C476 C 0.01096 0.45779 0.45289 0.0
C477 C 0.0413 0.479 0.45329 0.0
C478 C 0.05278 0.50214 0.48562 0.0
C479 C 0.03361 0.50396 0.51745 0.0
H480 H 0.59769 0.22696 0.93049 0.0
H481 H 0.53317 0.15985 0.02028 0.0
H482 H 0.505 0.18643 0.02205 0.0
H483 H 0.60297 0.28571 0.98526 0.0
H484 H 0.6069 0.3083 0.93672 0.0
H485 H 0.6178 0.2806 0.93316 0.0
H486 H 0.58267 0.25635 0.86501 0.0
H487 H 0.57171 0.28421 0.86822 0.0
H488 H 0.54401 0.24535 0.87013 0.0
H489 H 0.49019 0.22488 0.02736 0.0
H490 H 0.48965 0.27197 0.03481 0.0
H491 H 0.56293 0.31397 0.94043 0.0
C492 C 0.57698 0.21726 0.94902 0.0
C493 C 0.56747 0.1913 0.975 0.0
C494 C 0.54074 0.17965 0.9999 0.0
C495 C 0.52451 0.19452 0.00094 0.0
C496 C 0.53515 0.22083 0.97651 0.0
C497 C 0.5606 0.23193 0.95051 0.0
C498 C 0.56959 0.26258 0.93255 0.0
C499 C 0.60116 0.28563 0.94787 0.0
C500 C 0.56682 0.26208 0.8809 0.0
C501 C 0.54636 0.26775 0.95486 0.0
C502 C 0.5263 0.24315 0.97928 0.0
C503 C 0.50518 0.24397 0.00733 0.0
C504 C 0.50507 0.27081 0.01147 0.0
C505 C 0.526 0.29641 0.98776 0.0
C506 C 0.54617 0.2945 0.95799 0.0
H507 H 0.32881 0.5608 0.39128 0.0
H508 H 0.31004 0.48352 0.47131 0.0
H509 H 0.25708 0.46883 0.47341 0.0
H510 H 0.28962 0.58123 0.45242 0.0
H511 H 0.27555 0.59441 0.40792 0.0
H512 H 0.30941 0.59389 0.39972 0.0
H513 H 0.28796 0.56143 0.32817 0.0
H514 H 0.25397 0.56222 0.33566 0.0
H515 H 0.25304 0.52715 0.33132 0.0
H516 H 0.21009 0.46943 0.48313 0.0
H517 H 0.17276 0.48458 0.4977 0.0
H518 H 0.22206 0.56189 0.41238 0.0
C519 C 0.31328 0.53998 0.40724 0.0
C520 C 0.32336 0.52316 0.43083 0.0
C521 C 0.30265 0.49657 0.45268 0.0
C522 C 0.2725 0.48801 0.45393 0.0
C523 C 0.26349 0.50617 0.43284 0.0
C524 C 0.28323 0.53141 0.40923 0.0
C525 C 0.26927 0.54985 0.39624 0.0
C526 C 0.28701 0.58169 0.41525 0.0
C527 C 0.26585 0.55016 0.34478 0.0
C528 C 0.23943 0.53227 0.41909 0.0
C529 C 0.23615 0.50671 0.43894 0.0
C530 C 0.21199 0.48889 0.46663 0.0
C531 C 0.19099 0.49774 0.47493 0.0
C532 C 0.19454 0.52432 0.45599 0.0
C533 C 0.21858 0.54121 0.42671 0.0
H534 H 0.80844 0.35802 0.03871 0.0
H535 H 0.80027 0.38793 0.90584 0.0
H536 H 0.77258 0.33582 0.87984 0.0
H537 H 0.80958 0.28782 1.00028 0.0
H538 H 0.78785 0.26794 0.04887 0.0
H539 H 0.81418 0.30715 0.05282 0.0
H540 H 0.77245 0.31648 0.0815 0.0
H541 H 0.74612 0.27759 0.07738 0.0
H542 H 0.73948 0.30406 0.04786 0.0
H543 H 0.73611 0.28146 0.8741 0.0
H544 H 0.69478 0.23072 0.88944 0.0
H545 H 0.72706 0.23632 0.02584 0.0
C546 C 0.80193 0.35364 0.00361 0.0
C547 C 0.80652 0.37688 0.97423 0.0
C548 C 0.79719 0.37038 0.92878 0.0
C549 C 0.78152 0.34083 0.9137 0.0
C550 C 0.77585 0.31819 0.94431 0.0
C551 C 0.78626 0.32435 0.98821 0.0
C552 C 0.77343 0.29645 0.01658 0.0
C553 C 0.79772 0.28943 0.03043 0.0
C554 C 0.75688 0.2988 0.05821 0.0
C555 C 0.75238 0.27398 0.98291 0.0
C556 C 0.75467 0.28665 0.94098 0.0
C557 C 0.73472 0.27106 0.90634 0.0
C558 C 0.71129 0.24226 0.91533 0.0
C559 C 0.70788 0.22968 0.95877 0.0
C560 C 0.72941 0.2453 0.99214 0.0
H561 H 0.41376 0.7626 0.5167 0.0
H562 H 0.4175 0.78192 0.37372 0.0
H563 H 0.43273 0.7446 0.35797 0.0
H564 H 0.47634 0.74712 0.51886 0.0
H565 H 0.45758 0.71767 0.55947 0.0
H566 H 0.45157 0.74897 0.55963 0.0
H567 H 0.39491 0.7132 0.55243 0.0
H568 H 0.40072 0.6819 0.55223 0.0
H569 H 0.38095 0.68701 0.50643 0.0
H570 H 0.44091 0.70042 0.35753 0.0
H571 H 0.44072 0.65343 0.37233 0.0
H572 H 0.43208 0.66411 0.51572 0.0
C573 C 0.41848 0.75953 0.48214 0.0
C574 C 0.41459 0.77519 0.44642 0.0
C575 C 0.42057 0.77026 0.40161 0.0
C576 C 0.42928 0.74917 0.39239 0.0
C577 C 0.43221 0.73354 0.42843 0.0
C578 C 0.42719 0.7387 0.47246 0.0
C579 C 0.42912 0.71726 0.50485 0.0
C580 C 0.45521 0.73375 0.53763 0.0
C581 C 0.39968 0.69875 0.53045 0.0
C582 C 0.43486 0.6984 0.47207 0.0
C583 C 0.43703 0.70832 0.42818 0.0
C584 C 0.43983 0.69281 0.39183 0.0
C585 C 0.43972 0.66616 0.40054 0.0
C586 C 0.43661 0.65528 0.44519 0.0
C587 C 0.43496 0.6721 0.4813 0.0
H588 H 0.64177 0.46747 0.0244 0.0
H589 H 0.61394 0.41644 0.90062 0.0
H590 H 0.66628 0.43832 0.87741 0.0
H591 H 0.71552 0.53384 0.97839 0.0
H592 H 0.73316 0.53555 0.03148 0.0
H593 H 0.69457 0.52537 0.03013 0.0
H594 H 0.68107 0.47696 0.07355 0.0
H595 H 0.71922 0.48668 0.0746 0.0
H596 H 0.69197 0.45167 0.05057 0.0
H597 H 0.71929 0.45295 0.87849 0.0
H598 H 0.76688 0.45845 0.90366 0.0
H599 H 0.76088 0.49935 0.02767 0.0
C600 C 0.6467 0.46209 0.99137 0.0
C601 C 0.62397 0.44037 0.96425 0.0
C602 C 0.63108 0.43331 0.92168 0.0
C603 C 0.66079 0.44572 0.90821 0.0
C604 C 0.68296 0.4654 0.93746 0.0
C605 C 0.67618 0.47399 0.97793 0.0
C606 C 0.70333 0.49038 0.00751 0.0
C607 C 0.71217 0.52324 0.01213 0.0
C608 C 0.6986 0.4755 0.05423 0.0
C609 C 0.72577 0.487 0.97953 0.0
C610 C 0.71401 0.47365 0.93841 0.0
C611 C 0.72906 0.46426 0.90987 0.0
C612 C 0.75607 0.46738 0.92452 0.0
C613 C 0.76746 0.47934 0.96762 0.0
C614 C 0.75284 0.49057 0.99429 0.0
H615 H 0.19467 0.63768 0.39332 0.0
H616 H 0.14197 0.65391 0.49011 0.0
H617 H 0.17382 0.70782 0.47894 0.0
H618 H 0.25792 0.68456 0.43376 0.0
H619 H 0.27914 0.69836 0.38245 0.0
H620 H 0.24662 0.66237 0.38307 0.0
H621 H 0.22415 0.67735 0.3172 0.0
H622 H 0.25704 0.71357 0.31579 0.0
H623 H 0.22107 0.71031 0.32178 0.0
H624 H 0.21819 0.75703 0.47668 0.0
H625 H 0.2703 0.79699 0.48213 0.0
H626 H 0.29578 0.75019 0.38729 0.0
C627 C 0.18886 0.65261 0.41005 0.0
C628 C 0.16585 0.64179 0.44229 0.0
C629 C 0.1594 0.66184 0.46495 0.0
C630 C 0.17734 0.69253 0.45864 0.0
C631 C 0.20149 0.70274 0.42934 0.0
C632 C 0.20698 0.68332 0.40465 0.0
C633 C 0.2374 0.69936 0.38289 0.0
C634 C 0.25635 0.68534 0.39642 0.0
C635 C 0.23474 0.70021 0.33135 0.0
C636 C 0.2493 0.73002 0.40301 0.0
C637 C 0.22787 0.73184 0.42826 0.0
C638 C 0.23486 0.75627 0.45577 0.0
C639 C 0.26457 0.77881 0.4589 0.0
C640 C 0.28691 0.77664 0.4349 0.0
C641 C 0.27895 0.75265 0.40513 0.0
H642 H 0.75322 0.4197 0.62412 0.0
H643 H 0.82432 0.49412 0.55342 0.0
H644 H 0.80068 0.52416 0.56906 0.0
H645 H 0.69858 0.42243 0.58079 0.0
H646 H 0.67486 0.41326 0.62959 0.0
H647 H 0.7021 0.40198 0.62725 0.0
H648 H 0.72448 0.42929 0.70274 0.0
H649 H 0.69712 0.44092 0.70503 0.0
H650 H 0.73602 0.46815 0.70823 0.0
H651 H 0.76225 0.53815 0.56671 0.0
H652 H 0.71436 0.53484 0.54978 0.0
H653 H 0.66919 0.45504 0.63049 0.0
C654 C 0.76443 0.44281 0.61396 0.0
C655 C 0.7904 0.45466 0.58758 0.0
C656 C 0.80449 0.48476 0.57408 0.0
C657 C 0.79124 0.50202 0.58301 0.0
C658 C 0.76443 0.48909 0.60663 0.0
C659 C 0.75161 0.46035 0.62318 0.0
C660 C 0.72056 0.44976 0.64057 0.0
C661 C 0.69774 0.42018 0.61816 0.0
C662 C 0.7195 0.44687 0.69222 0.0
C663 C 0.71651 0.47546 0.62603 0.0
C664 C 0.74238 0.49841 0.6078 0.0
C665 C 0.74225 0.52113 0.58274 0.0
C666 C 0.71494 0.51919 0.57333 0.0
C667 C 0.68828 0.49494 0.58948 0.0
C668 C 0.68943 0.47436 0.61916 0.0
H669 H 0.33368 0.81225 0.98483 0.0
H670 H 0.37078 0.7944 0.10339 0.0
H671 H 0.32021 0.761 0.13231 0.0
H672 H 0.26151 0.80135 0.04172 0.0
H673 H 0.24117 0.78408 0.9909 0.0
H674 H 0.27918 0.81376 0.98748 0.0
H675 H 0.29226 0.7798 0.94038 0.0
H676 H 0.25466 0.75018 0.9439 0.0
H677 H 0.28421 0.74433 0.96311 0.0
H678 H 0.26783 0.72013 0.13726 0.0
H679 H 0.2197 0.67641 0.11768 0.0
H680 H 0.21629 0.72081 0.99605 0.0
C681 C 0.3311 0.80234 0.01787 0.0
C682 C 0.35594 0.80581 0.04196 0.0
C683 C 0.35194 0.79223 0.08469 0.0
C684 C 0.32327 0.77328 0.10139 0.0
C685 C 0.29901 0.76873 0.07531 0.0
C686 C 0.30271 0.78343 0.03476 0.0
C687 C 0.27382 0.77108 0.00917 0.0
C688 C 0.2633 0.79393 0.00723 0.0
C689 C 0.27642 0.76072 0.9614 0.0
C690 C 0.25391 0.74525 0.03932 0.0
C691 C 0.26844 0.74486 0.07819 0.0
C692 C 0.25591 0.72071 0.10775 0.0
C693 C 0.22856 0.69592 0.09634 0.0
C694 C 0.21437 0.69537 0.05537 0.0
C695 C 0.22652 0.72089 0.02788 0.0
H696 H 0.61654 0.25312 0.51994 0.0
H697 H 0.52367 0.1985 0.5553 0.0
H698 H 0.52136 0.24394 0.57348 0.0
H699 H 0.63465 0.31022 0.60745 0.0
H700 H 0.66006 0.33967 0.57077 0.0
H701 H 0.65473 0.30279 0.56463 0.0
H702 H 0.64098 0.30222 0.4804 0.0
H703 H 0.64647 0.33907 0.4862 0.0
H704 H 0.61155 0.30944 0.4657 0.0
H705 H 0.5285 0.29615 0.57959 0.0
H706 H 0.54443 0.34967 0.57305 0.0
H707 H 0.63304 0.36864 0.53726 0.0
C708 C 0.59576 0.25068 0.53192 0.0
C709 C 0.57022 0.22244 0.53597 0.0
C710 C 0.54348 0.22005 0.552 0.0
C711 C 0.54202 0.24569 0.56253 0.0
C712 C 0.56765 0.27334 0.55767 0.0
C713 C 0.59408 0.27585 0.54317 0.0
C714 C 0.61817 0.30793 0.53861 0.0
C715 C 0.64339 0.31559 0.57238 0.0
C716 C 0.62996 0.31506 0.48984 0.0
C717 C 0.6009 0.32319 0.55091 0.0
C718 C 0.57189 0.30303 0.56234 0.0
C719 C 0.55131 0.31214 0.57149 0.0
C720 C 0.56051 0.34254 0.56777 0.0
C721 C 0.58995 0.36323 0.55483 0.0
C722 C 0.61044 0.35338 0.54763 0.0
H723 H 0.21732 0.58268 0.07356 0.0
H724 H 0.14979 0.51875 0.98393 0.0
H725 H 0.17665 0.49088 0.97977 0.0
H726 H 0.27536 0.58967 0.01716 0.0
H727 H 0.2985 0.59306 0.06458 0.0
H728 H 0.27051 0.60335 0.07059 0.0
H729 H 0.24713 0.56675 0.13751 0.0
H730 H 0.27541 0.55653 0.13212 0.0
H731 H 0.2368 0.52829 0.13044 0.0
H732 H 0.21617 0.47762 0.97034 0.0
H733 H 0.26366 0.47822 0.9607 0.0
H734 H 0.30481 0.5496 0.05838 0.0
C735 C 0.20754 0.5621 0.05466 0.0
C736 C 0.18149 0.55278 0.0292 0.0
C737 C 0.16962 0.52612 0.00403 0.0
C738 C 0.18472 0.51011 0.00151 0.0
C739 C 0.21131 0.52082 0.02503 0.0
C740 C 0.22231 0.54589 0.05193 0.0
C741 C 0.25314 0.55513 0.06884 0.0
C742 C 0.27568 0.58717 0.05439 0.0
C743 C 0.2531 0.55144 0.12029 0.0
C744 C 0.25858 0.53262 0.04474 0.0
C745 C 0.23402 0.51266 0.02028 0.0
C746 C 0.2352 0.49245 0.99051 0.0
C747 C 0.26227 0.49303 0.98505 0.0
C748 C 0.28769 0.51369 0.00924 0.0
C749 C 0.28549 0.53305 0.04037 0.0
H750 H 0.67893 0.17823 0.52999 0.0
H751 H 0.63112 0.18656 0.64345 0.0
H752 H 0.67704 0.23032 0.6699 0.0
H753 H 0.75829 0.21728 0.5844 0.0
H754 H 0.77353 0.23487 0.53092 0.0
H755 H 0.74202 0.19772 0.53259 0.0
H756 H 0.71311 0.21479 0.48135 0.0
H757 H 0.7439 0.25185 0.4803 0.0
H758 H 0.70818 0.24524 0.49933 0.0
H759 H 0.72167 0.28036 0.67024 0.0
H760 H 0.75935 0.33047 0.64451 0.0
H761 H 0.7767 0.292 0.52692 0.0
C762 C 0.67859 0.18824 0.56187 0.0
C763 C 0.65158 0.17911 0.58465 0.0
C764 C 0.65168 0.19301 0.62572 0.0
C765 C 0.67775 0.21799 0.64094 0.0
C766 C 0.70345 0.22852 0.61487 0.0
C767 C 0.70417 0.21367 0.57645 0.0
C768 C 0.73162 0.23265 0.54842 0.0
C769 C 0.75261 0.21987 0.54916 0.0
C770 C 0.72369 0.23636 0.49956 0.0
C771 C 0.74462 0.26148 0.57442 0.0
C772 C 0.72897 0.25834 0.6138 0.0
C773 C 0.73462 0.28286 0.64027 0.0
C774 C 0.75599 0.31127 0.62535 0.0
C775 C 0.77076 0.31487 0.58376 0.0
C776 C 0.76581 0.28964 0.55906 0.0
H777 H 0.3982 0.62613 0.04229 0.0
H778 H 0.45517 0.62848 0.93349 0.0
H779 H 0.47762 0.68295 0.92875 0.0
H780 H 0.38069 0.67496 0.99559 0.0
H781 H 0.38007 0.69315 0.04706 0.0
H782 H 0.3729 0.65555 0.04872 0.0
H783 H 0.41537 0.67063 0.10651 0.0
H784 H 0.42256 0.70836 0.10535 0.0
H785 H 0.45203 0.70066 0.09341 0.0
H786 H 0.48753 0.73499 0.92675 0.0
H787 H 0.48489 0.78115 0.92877 0.0
H788 H 0.42178 0.74536 0.03913 0.0
C789 C 0.41617 0.63827 0.01864 0.0
C790 C 0.42517 0.62322 0.98852 0.0
C791 C 0.44812 0.63968 0.95709 0.0
C792 C 0.46106 0.67062 0.95425 0.0
C793 C 0.45092 0.68473 0.98327 0.0
C794 C 0.42919 0.66915 0.01522 0.0
C795 C 0.41976 0.68903 0.03867 0.0
C796 C 0.3864 0.67748 0.03208 0.0
C797 C 0.42793 0.69237 0.08897 0.0
C798 C 0.43855 0.71783 0.01344 0.0
C799 C 0.45673 0.71502 0.98214 0.0
C800 C 0.47395 0.73772 0.95184 0.0
C801 C 0.47223 0.76379 0.9531 0.0
C802 C 0.45336 0.76686 0.98437 0.0
C803 C 0.43686 0.74383 0.01551 0.0
loop_
_geom_bond_atom_site_label_1
_geom_bond_atom_site_label_2
_geom_bond_distance
_geom_bond_site_symmetry_2
_ccdc_geom_bond_type
In0 O1 2.296 . S
In0 O2 2.328 . S
In0 O6 2.266 1_554 S
In0 O7 2.324 1_554 S
In0 O8 2.265 1_554 S
In0 O9 2.326 . S
In0 O11 2.293 1_554 S
In0 O12 2.326 . S
O1 In0 2.296 . S
O1 C10 1.240 . S
O2 In0 2.328 . S
O2 C10 1.252 . S
C3 O6 1.252 . S
C3 O7 1.260 . S
C4 O11 1.240 . S
C4 O12 1.252 1_556 S
C5 O8 1.252 . S
C5 O9 1.260 1_556 S
O6 In0 2.266 1_556 S
O6 C3 1.252 . S
O7 In0 2.324 1_556 S
O7 C3 1.260 . S
O8 In0 2.265 1_556 S
O8 C5 1.252 . S
O9 In0 2.326 . S
O9 C5 1.260 1_554 S
C10 O1 1.240 . S
C10 O2 1.252 . S
O11 In0 2.293 1_556 S
O11 C4 1.240 . S
O12 In0 2.326 . S
O12 C4 1.252 1_554 S
In13 O14 2.294 . S
In13 O15 2.326 . S
In13 O19 2.266 . S
In13 O20 2.326 . S
In13 O21 2.266 . S
In13 O22 2.326 . S
In13 O24 2.294 . S
In13 O25 2.326 . S
O14 In13 2.294 . S
O14 C23 1.240 . S
O15 In13 2.326 . S
O15 C23 1.252 . S
C16 O19 1.252 . S
C16 O20 1.260 . S
C17 O24 1.240 . S
C17 O25 1.252 . S
C18 O21 1.252 . S
C18 O22 1.260 . S
O19 In13 2.266 . S
O19 C16 1.252 . S
O20 In13 2.326 . S
O20 C16 1.260 . S
O21 In13 2.266 . S
O21 C18 1.252 . S
O22 In13 2.326 . S
O22 C18 1.260 . S
C23 O14 1.240 . S
C23 O15 1.252 . S
O24 In13 2.294 . S
O24 C17 1.240 . S
O25 In13 2.326 . S
O25 C17 1.252 . S
In26 O27 2.293 1_554 S
In26 O28 2.326 . S
In26 O32 2.265 1_554 S
In26 O33 2.326 . S
In26 O34 2.266 1_554 S
In26 O35 2.324 1_554 S
In26 O37 2.296 . S
In26 O38 2.328 . S
O27 In26 2.293 1_556 S
O27 C36 1.240 . S
O28 In26 2.326 . S
O28 C36 1.252 1_554 S
C29 O32 1.252 . S
C29 O33 1.260 1_556 S
C30 O37 1.240 . S
C30 O38 1.252 . S
C31 O34 1.252 . S
C31 O35 1.260 . S
O32 In26 2.265 1_556 S
O32 C29 1.252 . S
O33 In26 2.326 . S
O33 C29 1.260 1_554 S
O34 In26 2.266 1_556 S
O34 C31 1.252 . S
O35 In26 2.324 1_556 S
O35 C31 1.260 . S
C36 O27 1.240 . S
C36 O28 1.252 1_556 S
O37 In26 2.296 . S
O37 C30 1.240 . S
O38 In26 2.328 . S
O38 C30 1.252 . S
In39 O40 2.294 . S
In39 O41 2.326 . S
In39 O45 2.266 . S
In39 O46 2.326 . S
In39 O47 2.266 . S
In39 O48 2.326 . S
In39 O50 2.294 . S
In39 O51 2.326 . S
O40 In39 2.294 . S
O40 C49 1.240 . S
O41 In39 2.326 . S
O41 C49 1.252 . S
C42 O45 1.252 . S
C42 O46 1.260 . S
C43 O50 1.240 . S
C43 O51 1.252 . S
C44 O47 1.252 . S
C44 O48 1.260 . S
O45 In39 2.266 . S
O45 C42 1.252 . S
O46 In39 2.326 . S
O46 C42 1.260 . S
O47 In39 2.266 . S
O47 C44 1.252 . S
O48 In39 2.326 . S
O48 C44 1.260 . S
C49 O40 1.240 . S
C49 O41 1.252 . S
O50 In39 2.294 . S
O50 C43 1.240 . S
O51 In39 2.326 . S
O51 C43 1.252 . S
In52 O53 2.296 . S
In52 O54 2.328 . S
In52 O58 2.266 1_554 S
In52 O59 2.324 1_554 S
In52 O60 2.265 1_554 S
In52 O61 2.326 . S
In52 O63 2.293 1_554 S
In52 O64 2.326 . S
O53 In52 2.296 . S
O53 C62 1.240 . S
O54 In52 2.328 . S
O54 C62 1.252 . S
C55 O58 1.252 . S
C55 O59 1.260 . S
C56 O63 1.240 . S
C56 O64 1.252 1_556 S
C57 O60 1.252 . S
C57 O61 1.260 1_556 S
O58 In52 2.266 1_556 S
O58 C55 1.252 . S
O59 In52 2.324 1_556 S
O59 C55 1.260 . S
O60 In52 2.265 1_556 S
O60 C57 1.252 . S
O61 In52 2.326 . S
O61 C57 1.260 1_554 S
C62 O53 1.240 . S
C62 O54 1.252 . S
O63 In52 2.293 1_556 S
O63 C56 1.240 . S
O64 In52 2.326 . S
O64 C56 1.252 1_554 S
In65 O66 2.294 . S
In65 O67 2.326 . S
In65 O71 2.266 . S
In65 O72 2.326 . S
In65 O73 2.266 . S
In65 O74 2.326 . S
In65 O76 2.294 . S
In65 O77 2.326 . S
O66 In65 2.294 . S
O66 C75 1.240 . S
O67 In65 2.326 . S
O67 C75 1.252 . S
C68 O71 1.252 . S
C68 O72 1.260 . S
C69 O76 1.240 . S
C69 O77 1.252 . S
C70 O73 1.252 . S
C70 O74 1.260 . S
O71 In65 2.266 . S
O71 C68 1.252 . S
O72 In65 2.326 . S
O72 C68 1.260 . S
O73 In65 2.266 . S
O73 C70 1.252 . S
O74 In65 2.326 . S
O74 C70 1.260 . S
C75 O66 1.240 . S
C75 O67 1.252 . S
O76 In65 2.294 . S
O76 C69 1.240 . S
O77 In65 2.326 . S
O77 C69 1.252 . S
In78 O79 2.294 . S
In78 O80 2.326 . S
In78 O84 2.266 . S
In78 O85 2.326 . S
In78 O86 2.266 . S
In78 O87 2.326 . S
In78 O89 2.294 . S
In78 O90 2.326 . S
O79 In78 2.294 . S
O79 C88 1.240 . S
O80 In78 2.326 . S
O80 C88 1.252 . S
C81 O84 1.252 . S
C81 O85 1.260 . S
C82 O89 1.240 . S
C82 O90 1.252 . S
C83 O86 1.252 . S
C83 O87 1.260 . S
O84 In78 2.266 . S
O84 C81 1.252 . S
O85 In78 2.326 . S
O85 C81 1.260 . S
O86 In78 2.266 . S
O86 C83 1.252 . S
O87 In78 2.326 . S
O87 C83 1.260 . S
C88 O79 1.240 . S
C88 O80 1.252 . S
O89 In78 2.294 . S
O89 C82 1.240 . S
O90 In78 2.326 . S
O90 C82 1.252 . S
In91 O92 2.293 1_556 S
In91 O93 2.326 . S
In91 O97 2.265 1_556 S
In91 O98 2.326 . S
In91 O99 2.266 1_556 S
In91 O100 2.324 1_556 S
In91 O102 2.296 . S
In91 O103 2.328 . S
O92 In91 2.293 1_554 S
O92 C101 1.240 . S
O93 In91 2.326 . S
O93 C101 1.252 1_556 S
C94 O97 1.252 . S
C94 O98 1.260 1_554 S
C95 O102 1.240 . S
C95 O103 1.252 . S
C96 O99 1.252 . S
C96 O100 1.260 . S
O97 In91 2.265 1_554 S
O97 C94 1.252 . S
O98 In91 2.326 . S
O98 C94 1.260 1_556 S
O99 In91 2.266 1_554 S
O99 C96 1.252 . S
O100 In91 2.324 1_554 S
O100 C96 1.260 . S
C101 O92 1.240 . S
C101 O93 1.252 1_554 S
O102 In91 2.296 . S
O102 C95 1.240 . S
O103 In91 2.328 . S
O103 C95 1.252 . S
In104 O105 2.294 . S
In104 O106 2.326 . S
In104 O110 2.266 . S
In104 O111 2.326 . S
In104 O112 2.266 . S
In104 O113 2.326 . S
In104 O115 2.294 . S
In104 O116 2.326 . S
O105 In104 2.294 . S
O105 C114 1.240 . S
O106 In104 2.326 . S
O106 C114 1.252 . S
C107 O110 1.252 . S
C107 O111 1.260 . S
C108 O115 1.240 . S
C108 O116 1.252 . S
C109 O112 1.252 . S
C109 O113 1.260 . S
O110 In104 2.266 . S
O110 C107 1.252 . S
O111 In104 2.326 . S
O111 C107 1.260 . S
O112 In104 2.266 . S
O112 C109 1.252 . S
O113 In104 2.326 . S
O113 C109 1.260 . S
C114 O105 1.240 . S
C114 O106 1.252 . S
O115 In104 2.294 . S
O115 C108 1.240 . S
O116 In104 2.326 . S
O116 C108 1.252 . S
In117 O118 2.293 1_556 S
In117 O119 2.326 . S
In117 O123 2.265 1_556 S
In117 O124 2.326 . S
In117 O125 2.266 1_556 S
In117 O126 2.324 1_556 S
In117 O128 2.296 . S
In117 O129 2.328 . S
O118 In117 2.293 1_554 S
O118 C127 1.240 . S
O119 In117 2.326 . S
O119 C127 1.252 1_556 S
C120 O123 1.252 . S
C120 O124 1.260 1_554 S
C121 O128 1.240 . S
C121 O129 1.252 . S
C122 O125 1.252 . S
C122 O126 1.260 . S
O123 In117 2.265 1_554 S
O123 C120 1.252 . S
O124 In117 2.326 . S
O124 C120 1.260 1_556 S
O125 In117 2.266 1_554 S
O125 C122 1.252 . S
O126 In117 2.324 1_554 S
O126 C122 1.260 . S
C127 O118 1.240 . S
C127 O119 1.252 1_554 S
O128 In117 2.296 . S
O128 C121 1.240 . S
O129 In117 2.328 . S
O129 C121 1.252 . S
In130 O131 2.294 . S
In130 O132 2.326 . S
In130 O136 2.266 . S
In130 O137 2.326 . S
In130 O138 2.266 . S
In130 O139 2.326 . S
In130 O141 2.294 . S
In130 O142 2.326 . S
O131 In130 2.294 . S
O131 C140 1.240 . S
O132 In130 2.326 . S
O132 C140 1.252 . S
C133 O136 1.252 . S
C133 O137 1.260 . S
C134 O141 1.240 . S
C134 O142 1.252 . S
C135 O138 1.252 . S
C135 O139 1.260 . S
O136 In130 2.266 . S
O136 C133 1.252 . S
O137 In130 2.326 . S
O137 C133 1.260 . S
O138 In130 2.266 . S
O138 C135 1.252 . S
O139 In130 2.326 . S
O139 C135 1.260 . S
C140 O131 1.240 . S
C140 O132 1.252 . S
O141 In130 2.294 . S
O141 C134 1.240 . S
O142 In130 2.326 . S
O142 C134 1.252 . S
In143 O144 2.293 1_556 S
In143 O145 2.326 . S
In143 O149 2.265 1_556 S
In143 O150 2.326 . S
In143 O151 2.266 1_556 S
In143 O152 2.324 1_556 S
In143 O154 2.296 . S
In143 O155 2.328 . S
O144 In143 2.293 1_554 S
O144 C153 1.240 . S
O145 In143 2.326 . S
O145 C153 1.252 1_556 S
C146 O149 1.252 . S
C146 O150 1.260 1_554 S
C147 O154 1.240 . S
C147 O155 1.252 . S
C148 O151 1.252 . S
C148 O152 1.260 . S
O149 In143 2.265 1_554 S
O149 C146 1.252 . S
O150 In143 2.326 . S
O150 C146 1.260 1_556 S
O151 In143 2.266 1_554 S
O151 C148 1.252 . S
O152 In143 2.324 1_554 S
O152 C148 1.260 . S
C153 O144 1.240 . S
C153 O145 1.252 1_554 S
O154 In143 2.296 . S
O154 C147 1.240 . S
O155 In143 2.328 . S
O155 C147 1.252 . S
H156 C168 0.930 . S
H157 C170 0.930 . S
H158 C171 0.930 . S
H159 C175 0.959 . S
H160 C175 0.959 . S
H161 C175 0.961 . S
H162 C176 0.960 . S
H163 C176 0.961 . S
H164 C176 0.959 . S
H165 C179 0.929 . S
H166 C180 0.931 . S
H167 C182 0.930 . S
C168 H156 0.930 . S
C168 C169 1.399 . S
C168 C173 1.399 . S
C169 C168 1.399 . S
C169 C170 1.376 . S
C170 H157 0.930 . S
C170 C169 1.376 . S
C170 C171 1.388 . S
C171 H158 0.930 . S
C171 C170 1.388 . S
C171 C172 1.390 . S
C172 C171 1.390 . S
C172 C173 1.394 . S
C172 C178 1.465 . S
C173 C168 1.399 . S
C173 C172 1.394 . S
C173 C174 1.516 . S
C174 C173 1.516 . S
C174 C175 1.502 . S
C174 C176 1.561 . S
C174 C177 1.526 . S
C175 H159 0.959 . S
C175 H160 0.959 . S
C175 H161 0.961 . S
C175 C174 1.502 . S
C176 H162 0.960 . S
C176 H163 0.961 . S
C176 H164 0.959 . S
C176 C174 1.561 . S
C177 C174 1.526 . S
C177 C178 1.396 . S
C177 C182 1.390 . S
C178 C172 1.465 . S
C178 C177 1.396 . S
C178 C179 1.399 . S
C179 H165 0.929 . S
C179 C178 1.399 . S
C179 C180 1.385 . S
C180 H166 0.931 . S
C180 C179 1.385 . S
C180 C181 1.389 . S
C181 C180 1.389 . S
C181 C182 1.387 . S
C182 H167 0.930 . S
C182 C177 1.390 . S
C182 C181 1.387 . S
H183 C195 0.930 . S
H184 C197 0.930 . S
H185 C198 0.930 . S
H186 C202 0.959 . S
H187 C202 0.959 . S
H188 C202 0.961 . S
H189 C203 0.960 . S
H190 C203 0.961 . S
H191 C203 0.959 . S
H192 C206 0.929 . S
H193 C207 0.931 . S
H194 C209 0.930 . S
C195 H183 0.930 . S
C195 C196 1.399 . S
C195 C200 1.399 . S
C196 C195 1.399 . S
C196 C197 1.376 . S
C197 H184 0.930 . S
C197 C196 1.376 . S
C197 C198 1.388 . S
C198 H185 0.930 . S
C198 C197 1.388 . S
C198 C199 1.390 . S
C199 C198 1.390 . S
C199 C200 1.394 . S
C199 C205 1.465 . S
C200 C195 1.399 . S
C200 C199 1.394 . S
C200 C201 1.516 . S
C201 C200 1.516 . S
C201 C202 1.502 . S
C201 C203 1.561 . S
C201 C204 1.526 . S
C202 H186 0.959 . S
C202 H187 0.959 . S
C202 H188 0.961 . S
C202 C201 1.502 . S
C203 H189 0.960 . S
C203 H190 0.961 . S
C203 H191 0.959 . S
C203 C201 1.561 . S
C204 C201 1.526 . S
C204 C205 1.396 . S
C204 C209 1.390 . S
C205 C199 1.465 . S
C205 C204 1.396 . S
C205 C206 1.399 . S
C206 H192 0.929 . S
C206 C205 1.399 . S
C206 C207 1.385 . S
C207 H193 0.931 . S
C207 C206 1.385 . S
C207 C208 1.389 . S
C208 C207 1.389 . S
C208 C209 1.387 . S
C209 H194 0.930 . S
C209 C204 1.390 . S
C209 C208 1.387 . S
H210 C222 0.930 . S
H211 C224 0.930 . S
H212 C225 0.930 . S
H213 C229 0.959 . S
H214 C229 0.959 . S
H215 C229 0.961 . S
H216 C230 0.960 . S
H217 C230 0.961 . S
H218 C230 0.959 . S
H219 C233 0.929 . S
H220 C234 0.931 . S
H221 C236 0.930 . S
C222 H210 0.930 . S
C222 C223 1.399 . S
C222 C227 1.399 . S
C223 C222 1.399 . S
C223 C224 1.376 . S
C224 H211 0.930 . S
C224 C223 1.376 . S
C224 C225 1.388 . S
C225 H212 0.930 . S
C225 C224 1.388 . S
C225 C226 1.390 . S
C226 C225 1.390 . S
C226 C227 1.394 . S
C226 C232 1.465 . S
C227 C222 1.399 . S
C227 C226 1.394 . S
C227 C228 1.516 . S
C228 C227 1.516 . S
C228 C229 1.502 . S
C228 C230 1.561 . S
C228 C231 1.526 . S
C229 H213 0.959 . S
C229 H214 0.959 . S
C229 H215 0.961 . S
C229 C228 1.502 . S
C230 H216 0.960 . S
C230 H217 0.961 . S
C230 H218 0.959 . S
C230 C228 1.561 . S
C231 C228 1.526 . S
C231 C232 1.396 . S
C231 C236 1.390 . S
C232 C226 1.465 . S
C232 C231 1.396 . S
C232 C233 1.399 . S
C233 H219 0.929 . S
C233 C232 1.399 . S
C233 C234 1.385 . S
C234 H220 0.931 . S
C234 C233 1.385 . S
C234 C235 1.389 . S
C235 C234 1.389 . S
C235 C236 1.387 . S
C236 H221 0.930 . S
C236 C231 1.390 . S
C236 C235 1.387 . S
H237 C249 0.930 . S
H238 C251 0.930 . S
H239 C252 0.930 . S
H240 C256 0.959 . S
H241 C256 0.959 . S
H242 C256 0.961 . S
H243 C257 0.960 . S
H244 C257 0.961 . S
H245 C257 0.959 . S
H246 C260 0.929 . S
H247 C261 0.931 . S
H248 C263 0.930 . S
C249 H237 0.930 . S
C249 C250 1.399 . S
C249 C254 1.399 . S
C250 C249 1.399 . S
C250 C251 1.376 . S
C251 H238 0.930 . S
C251 C250 1.376 . S
C251 C252 1.388 . S
C252 H239 0.930 . S
C252 C251 1.388 . S
C252 C253 1.390 . S
C253 C252 1.390 . S
C253 C254 1.394 . S
C253 C259 1.465 . S
C254 C249 1.399 . S
C254 C253 1.394 . S
C254 C255 1.516 . S
C255 C254 1.516 . S
C255 C256 1.502 . S
C255 C257 1.561 . S
C255 C258 1.526 . S
C256 H240 0.959 . S
C256 H241 0.959 . S
C256 H242 0.961 . S
C256 C255 1.502 . S
C257 H243 0.960 . S
C257 H244 0.961 . S
C257 H245 0.959 . S
C257 C255 1.561 . S
C258 C255 1.526 . S
C258 C259 1.396 . S
C258 C263 1.390 . S
C259 C253 1.465 . S
C259 C258 1.396 . S
C259 C260 1.399 . S
C260 H246 0.929 . S
C260 C259 1.399 . S
C260 C261 1.385 . S
C261 H247 0.931 . S
C261 C260 1.385 . S
C261 C262 1.389 . S
C262 C261 1.389 . S
C262 C263 1.387 . S
C263 H248 0.930 . S
C263 C258 1.390 . S
C263 C262 1.387 . S
H264 C276 0.930 . S
H265 C278 0.930 . S
H266 C279 0.930 . S
H267 C283 0.959 . S
H268 C283 0.959 . S
H269 C283 0.961 . S
H270 C284 0.960 . S
H271 C284 0.961 . S
H272 C284 0.959 . S
H273 C287 0.929 . S
H274 C288 0.931 . S
H275 C290 0.930 . S
C276 H264 0.930 . S
C276 C277 1.399 . S
C276 C281 1.399 . S
C277 C276 1.399 . S
C277 C278 1.376 . S
C278 H265 0.930 . S
C278 C277 1.376 . S
C278 C279 1.388 . S
C279 H266 0.930 . S
C279 C278 1.388 . S
C279 C280 1.390 . S
C280 C279 1.390 . S
C280 C281 1.394 . S
C280 C286 1.465 . S
C281 C276 1.399 . S
C281 C280 1.394 . S
C281 C282 1.516 . S
C282 C281 1.516 . S
C282 C283 1.502 . S
C282 C284 1.561 . S
C282 C285 1.526 . S
C283 H267 0.959 . S
C283 H268 0.959 . S
C283 H269 0.961 . S
C283 C282 1.502 . S
C284 H270 0.960 . S
C284 H271 0.961 . S
C284 H272 0.959 . S
C284 C282 1.561 . S
C285 C282 1.526 . S
C285 C286 1.396 . S
C285 C290 1.390 . S
C286 C280 1.465 . S
C286 C285 1.396 . S
C286 C287 1.399 . S
C287 H273 0.929 . S
C287 C286 1.399 . S
C287 C288 1.385 . S
C288 H274 0.931 . S
C288 C287 1.385 . S
C288 C289 1.389 . S
C289 C288 1.389 . S
C289 C290 1.387 . S
C290 H275 0.930 . S
C290 C285 1.390 . S
C290 C289 1.387 . S
H291 C303 0.930 . S
H292 C305 0.930 . S
H293 C306 0.930 . S
H294 C310 0.959 . S
H295 C310 0.959 . S
H296 C310 0.961 . S
H297 C311 0.960 . S
H298 C311 0.961 . S
H299 C311 0.959 . S
H300 C314 0.929 . S
H301 C315 0.931 . S
H302 C317 0.930 . S
C303 H291 0.930 . S
C303 C304 1.399 . S
C303 C308 1.399 . S
C304 C303 1.399 . S
C304 C305 1.376 . S
C305 H292 0.930 . S
C305 C304 1.376 . S
C305 C306 1.388 . S
C306 H293 0.930 . S
C306 C305 1.388 . S
C306 C307 1.390 . S
C307 C306 1.390 . S
C307 C308 1.394 . S
C307 C313 1.465 . S
C308 C303 1.399 . S
C308 C307 1.394 . S
C308 C309 1.516 . S
C309 C308 1.516 . S
C309 C310 1.502 . S
C309 C311 1.561 . S
C309 C312 1.526 . S
C310 H294 0.959 . S
C310 H295 0.959 . S
C310 H296 0.961 . S
C310 C309 1.502 . S
C311 H297 0.960 . S
C311 H298 0.961 . S
C311 H299 0.959 . S
C311 C309 1.561 . S
C312 C309 1.526 . S
C312 C313 1.396 . S
C312 C317 1.390 . S
C313 C307 1.465 . S
C313 C312 1.396 . S
C313 C314 1.399 . S
C314 H300 0.929 . S
C314 C313 1.399 . S
C314 C315 1.385 . S
C315 H301 0.931 . S
C315 C314 1.385 . S
C315 C316 1.389 . S
C316 C315 1.389 . S
C316 C317 1.387 . S
C317 H302 0.930 . S
C317 C312 1.390 . S
C317 C316 1.387 . S
H318 C330 0.930 . S
H319 C332 0.930 . S
H320 C333 0.930 . S
H321 C337 0.959 . S
H322 C337 0.959 . S
H323 C337 0.961 1_545 S
H324 C338 0.936 1_545 S
H325 C338 0.961 . S
H326 C338 0.959 . S
H327 C341 0.929 . S
H328 C342 0.931 . S
H329 C344 0.930 . S
C330 H318 0.930 . S
C330 C331 1.399 . S
C330 C335 1.399 . S
C331 C330 1.399 . S
C331 C332 1.376 1_556 S
C332 H319 0.930 . S
C332 C331 1.376 1_554 S
C332 C333 1.388 . S
C333 H320 0.930 . S
C333 C332 1.388 . S
C333 C334 1.390 . S
C334 C333 1.390 . S
C334 C335 1.394 1_554 S
C334 C340 1.465 1_545 S
C335 C330 1.399 . S
C335 C334 1.394 1_556 S
C335 C336 1.516 1_545 S
C336 C335 1.516 1_565 S
C336 C337 1.502 . S
C336 C338 1.561 . S
C336 C339 1.526 . S
C337 H321 0.959 . S
C337 H322 0.959 . S
C337 H323 0.961 1_565 S
C337 C336 1.502 . S
C338 H324 0.936 1_565 S
C338 H325 0.961 . S
C338 H326 0.959 . S
C338 C336 1.561 . S
C339 C336 1.526 . S
C339 C340 1.396 1_556 S
C339 C344 1.390 . S
C340 C334 1.465 1_565 S
C340 C339 1.396 1_554 S
C340 C341 1.399 . S
C341 H327 0.929 . S
C341 C340 1.399 . S
C341 C342 1.385 . S
C342 H328 0.931 . S
C342 C341 1.385 . S
C342 C343 1.389 . S
C343 C342 1.389 . S
C343 C344 1.387 1_554 S
C344 H329 0.930 . S
C344 C339 1.390 . S
C344 C343 1.387 1_556 S
H345 C357 0.930 . S
H346 C359 0.930 . S
H347 C360 0.930 . S
H348 C364 0.959 . S
H349 C364 0.959 . S
H350 C364 0.961 . S
H351 C365 0.960 . S
H352 C365 0.961 . S
H353 C365 0.959 . S
H354 C368 0.929 . S
H355 C369 0.931 . S
H356 C371 0.930 . S
C357 H345 0.930 . S
C357 C358 1.399 . S
C357 C362 1.399 . S
C358 C357 1.399 . S
C358 C359 1.376 . S
C359 H346 0.930 . S
C359 C358 1.376 . S
C359 C360 1.388 . S
C360 H347 0.930 . S
C360 C359 1.388 . S
C360 C361 1.390 . S
C361 C360 1.390 . S
C361 C362 1.394 . S
C361 C367 1.465 . S
C362 C357 1.399 . S
C362 C361 1.394 . S
C362 C363 1.516 . S
C363 C362 1.516 . S
C363 C364 1.502 . S
C363 C365 1.561 . S
C363 C366 1.526 . S
C364 H348 0.959 . S
C364 H349 0.959 . S
C364 H350 0.961 . S
C364 C363 1.502 . S
C365 H351 0.960 . S
C365 H352 0.961 . S
C365 H353 0.959 . S
C365 C363 1.561 . S
C366 C363 1.526 . S
C366 C367 1.396 . S
C366 C371 1.390 . S
C367 C361 1.465 . S
C367 C366 1.396 . S
C367 C368 1.399 . S
C368 H354 0.929 . S
C368 C367 1.399 . S
C368 C369 1.385 . S
C369 H355 0.931 . S
C369 C368 1.385 . S
C369 C370 1.389 . S
C370 C369 1.389 . S
C370 C371 1.387 . S
C371 H356 0.930 . S
C371 C366 1.390 . S
C371 C370 1.387 . S
H372 C384 0.930 . S
H373 C386 0.930 . S
H374 C387 0.930 . S
H375 C391 0.959 . S
H376 C391 0.959 . S
H377 C391 0.961 1_455 S
H378 C392 0.941 1_455 S
H379 C392 0.961 . S
H380 C392 0.959 . S
H381 C395 0.929 . S
H382 C396 0.931 . S
H383 C398 0.930 . S
C384 H372 0.930 . S
C384 C385 1.399 . S
C384 C389 1.399 . S
C385 C384 1.399 . S
C385 C386 1.376 1_554 S
C386 H373 0.930 . S
C386 C385 1.376 1_556 S
C386 C387 1.388 . S
C387 H374 0.930 . S
C387 C386 1.388 . S
C387 C388 1.390 . S
C388 C387 1.390 . S
C388 C389 1.394 1_556 S
C388 C394 1.465 1_455 S
C389 C384 1.399 . S
C389 C388 1.394 1_554 S
C389 C390 1.516 1_455 S
C390 C389 1.516 1_655 S
C390 C391 1.502 . S
C390 C392 1.561 . S
C390 C393 1.526 . S
C391 H375 0.959 . S
C391 H376 0.959 . S
C391 H377 0.961 1_655 S
C391 C390 1.502 . S
C392 H378 0.941 1_655 S
C392 H379 0.961 . S
C392 H380 0.959 . S
C392 C390 1.561 . S
C393 C390 1.526 . S
C393 C394 1.396 1_554 S
C393 C398 1.390 . S
C394 C388 1.465 1_655 S
C394 C393 1.396 1_556 S
C394 C395 1.399 . S
C395 H381 0.929 . S
C395 C394 1.399 . S
C395 C396 1.385 . S
C396 H382 0.931 . S
C396 C395 1.385 . S
C396 C397 1.389 . S
C397 C396 1.389 . S
C397 C398 1.387 1_556 S
C398 H383 0.930 . S
C398 C393 1.390 . S
C398 C397 1.387 1_554 S
H399 C411 0.930 . S
H400 C413 0.930 . S
H401 C414 0.930 . S
H402 C418 0.959 . S
H403 C418 0.959 . S
H404 C418 0.961 1_545 S
H405 C419 0.960 . S
H406 C419 0.961 . S
H407 C419 0.959 . S
H408 C422 0.929 . S
H409 C423 0.931 . S
H410 C425 0.930 . S
C411 H399 0.930 . S
C411 C412 1.399 . S
C411 C416 1.399 . S
C412 C411 1.399 . S
C412 C413 1.376 . S
C413 H400 0.930 . S
C413 C412 1.376 . S
C413 C414 1.388 . S
C414 H401 0.930 . S
C414 C413 1.388 . S
C414 C415 1.390 . S
C415 C414 1.390 . S
C415 C416 1.394 . S
C415 C421 1.465 1_545 S
C416 C411 1.399 . S
C416 C415 1.394 . S
C416 C417 1.516 1_545 S
C417 C416 1.516 1_565 S
C417 C418 1.502 . S
C417 C419 1.561 . S
C417 C420 1.526 . S
C418 H402 0.959 . S
C418 H403 0.959 . S
C418 H404 0.961 1_565 S
C418 C417 1.502 . S
C419 H405 0.960 . S
C419 H406 0.961 . S
C419 H407 0.959 . S
C419 C417 1.561 . S
C420 C417 1.526 . S
C420 C421 1.396 . S
C420 C425 1.390 . S
C421 C415 1.465 1_565 S
C421 C420 1.396 . S
C421 C422 1.399 . S
C422 H408 0.929 . S
C422 C421 1.399 . S
C422 C423 1.385 . S
C423 H409 0.931 . S
C423 C422 1.385 . S
C423 C424 1.389 . S
C424 C423 1.389 . S
C424 C425 1.387 . S
C425 H410 0.930 . S
C425 C420 1.390 . S
C425 C424 1.387 . S
H426 C438 0.930 . S
H427 C440 0.930 . S
H428 C441 0.930 . S
H429 C445 0.959 . S
H430 C445 0.959 . S
H431 C445 0.961 . S
H432 C446 0.960 . S
H433 C446 0.961 . S
H434 C446 0.959 . S
H435 C449 0.929 . S
H436 C450 0.931 . S
H437 C452 0.930 . S
C438 H426 0.930 . S
C438 C439 1.399 1_556 S
C438 C443 1.399 . S
C439 C438 1.399 1_554 S
C439 C440 1.376 . S
C440 H427 0.930 . S
C440 C439 1.376 . S
C440 C441 1.388 . S
C441 H428 0.930 . S
C441 C440 1.388 . S
C441 C442 1.390 . S
C442 C441 1.390 . S
C442 C443 1.394 1_554 S
C442 C448 1.465 . S
C443 C438 1.399 . S
C443 C442 1.394 1_556 S
C443 C444 1.516 . S
C444 C443 1.516 . S
C444 C445 1.502 . S
C444 C446 1.561 . S
C444 C447 1.526 . S
C445 H429 0.959 . S
C445 H430 0.959 . S
C445 H431 0.961 . S
C445 C444 1.502 . S
C446 H432 0.960 . S
C446 H433 0.961 . S
C446 H434 0.959 . S
C446 C444 1.561 . S
C447 C444 1.526 . S
C447 C448 1.396 1_556 S
C447 C452 1.390 . S
C448 C442 1.465 . S
C448 C447 1.396 1_554 S
C448 C449 1.399 . S
C449 H435 0.929 . S
C449 C448 1.399 . S
C449 C450 1.385 . S
C450 H436 0.931 . S
C450 C449 1.385 . S
C450 C451 1.389 1_554 S
C451 C450 1.389 1_556 S
C451 C452 1.387 . S
C452 H437 0.930 . S
C452 C447 1.390 . S
C452 C451 1.387 . S
H453 C465 0.930 . S
H454 C467 0.930 . S
H455 C468 0.930 . S
H456 C472 0.959 . S
H457 C472 0.959 . S
H458 C472 0.961 . S
H459 C473 0.960 . S
H460 C473 0.961 . S
H461 C473 0.959 . S
H462 C476 0.929 . S
H463 C477 0.931 . S
H464 C479 0.930 . S
C465 H453 0.930 . S
C465 C466 1.399 . S
C465 C470 1.399 . S
C466 C465 1.399 . S
C466 C467 1.376 . S
C467 H454 0.930 . S
C467 C466 1.376 . S
C467 C468 1.388 . S
C468 H455 0.930 . S
C468 C467 1.388 . S
C468 C469 1.390 . S
C469 C468 1.390 . S
C469 C470 1.394 . S
C469 C475 1.465 1_655 S
C470 C465 1.399 . S
C470 C469 1.394 . S
C470 C471 1.516 1_655 S
C471 C470 1.516 1_455 S
C471 C472 1.502 . S
C471 C473 1.561 . S
C471 C474 1.526 . S
C472 H456 0.959 . S
C472 H457 0.959 . S
C472 H458 0.961 . S
C472 C471 1.502 . S
C473 H459 0.960 . S
C473 H460 0.961 . S
C473 H461 0.959 . S
C473 C471 1.561 . S
C474 C471 1.526 . S
C474 C475 1.396 . S
C474 C479 1.390 . S
C475 C469 1.465 1_455 S
C475 C474 1.396 . S
C475 C476 1.399 . S
C476 H462 0.929 . S
C476 C475 1.399 . S
C476 C477 1.385 . S
C477 H463 0.931 . S
C477 C476 1.385 . S
C477 C478 1.389 . S
C478 C477 1.389 . S
C478 C479 1.387 . S
C479 H464 0.930 . S
C479 C474 1.390 . S
C479 C478 1.387 . S
H480 C492 0.930 . S
H481 C494 0.930 . S
H482 C495 0.930 . S
H483 C499 0.959 . S
H484 C499 0.959 . S
H485 C499 0.961 . S
H486 C500 0.960 . S
H487 C500 0.961 . S
H488 C500 0.959 . S
H489 C503 0.929 . S
H490 C504 0.931 1_554 S
H491 C506 0.930 . S
C492 H480 0.930 . S
C492 C493 1.399 . S
C492 C497 1.399 . S
C493 C492 1.399 . S
C493 C494 1.376 1_556 S
C494 H481 0.930 . S
C494 C493 1.376 1_554 S
C494 C495 1.388 . S
C495 H482 0.930 . S
C495 C494 1.388 . S
C495 C496 1.390 1_554 S
C496 C495 1.390 1_556 S
C496 C497 1.394 . S
C496 C502 1.465 . S
C497 C492 1.399 . S
C497 C496 1.394 . S
C497 C498 1.516 . S
C498 C497 1.516 . S
C498 C499 1.502 . S
C498 C500 1.561 . S
C498 C501 1.526 . S
C499 H483 0.959 . S
C499 H484 0.959 . S
C499 H485 0.961 . S
C499 C498 1.502 . S
C500 H486 0.960 . S
C500 H487 0.961 . S
C500 H488 0.959 . S
C500 C498 1.561 . S
C501 C498 1.526 . S
C501 C502 1.396 . S
C501 C506 1.390 . S
C502 C496 1.465 . S
C502 C501 1.396 . S
C502 C503 1.399 1_556 S
C503 H489 0.929 . S
C503 C502 1.399 1_554 S
C503 C504 1.385 1_554 S
C504 H490 0.931 1_556 S
C504 C503 1.385 1_556 S
C504 C505 1.389 . S
C505 C504 1.389 . S
C505 C506 1.387 . S
C506 H491 0.930 . S
C506 C501 1.390 . S
C506 C505 1.387 . S
H507 C519 0.930 . S
H508 C521 0.930 . S
H509 C522 0.930 . S
H510 C526 0.959 . S
H511 C526 0.959 . S
H512 C526 0.961 . S
H513 C527 0.960 . S
H514 C527 0.961 . S
H515 C527 0.959 . S
H516 C530 0.929 . S
H517 C531 0.931 . S
H518 C533 0.930 . S
C519 H507 0.930 . S
C519 C520 1.399 . S
C519 C524 1.399 . S
C520 C519 1.399 . S
C520 C521 1.376 . S
C521 H508 0.930 . S
C521 C520 1.376 . S
C521 C522 1.388 . S
C522 H509 0.930 . S
C522 C521 1.388 . S
C522 C523 1.390 . S
C523 C522 1.390 . S
C523 C524 1.394 . S
C523 C529 1.465 . S
C524 C519 1.399 . S
C524 C523 1.394 . S
C524 C525 1.516 . S
C525 C524 1.516 . S
C525 C526 1.502 . S
C525 C527 1.561 . S
C525 C528 1.526 . S
C526 H510 0.959 . S
C526 H511 0.959 . S
C526 H512 0.961 . S
C526 C525 1.502 . S
C527 H513 0.960 . S
C527 H514 0.961 . S
C527 H515 0.959 . S
C527 C525 1.561 . S
C528 C525 1.526 . S
C528 C529 1.396 . S
C528 C533 1.390 . S
C529 C523 1.465 . S
C529 C528 1.396 . S
C529 C530 1.399 . S
C530 H516 0.929 . S
C530 C529 1.399 . S
C530 C531 1.385 . S
C531 H517 0.931 . S
C531 C530 1.385 . S
C531 C532 1.389 . S
C532 C531 1.389 . S
C532 C533 1.387 . S
C533 H518 0.930 . S
C533 C528 1.390 . S
C533 C532 1.387 . S
H534 C546 0.930 . S
H535 C548 0.930 . S
H536 C549 0.930 . S
H537 C553 0.959 . S
H538 C553 0.959 . S
H539 C553 0.961 . S
H540 C554 0.960 . S
H541 C554 0.961 . S
H542 C554 0.959 . S
H543 C557 0.929 . S
H544 C558 0.931 . S
H545 C560 0.930 1_554 S
C546 H534 0.930 . S
C546 C547 1.399 1_554 S
C546 C551 1.399 1_554 S
C547 C546 1.399 1_556 S
C547 C548 1.376 . S
C548 H535 0.930 . S
C548 C547 1.376 . S
C548 C549 1.388 . S
C549 H536 0.930 . S
C549 C548 1.388 . S
C549 C550 1.390 . S
C550 C549 1.390 . S
C550 C551 1.394 . S
C550 C556 1.465 . S
C551 C546 1.399 1_556 S
C551 C550 1.394 . S
C551 C552 1.516 1_556 S
C552 C551 1.516 1_554 S
C552 C553 1.502 . S
C552 C554 1.561 . S
C552 C555 1.526 1_554 S
C553 H537 0.959 . S
C553 H538 0.959 . S
C553 H539 0.961 . S
C553 C552 1.502 . S
C554 H540 0.960 . S
C554 H541 0.961 . S
C554 H542 0.959 . S
C554 C552 1.561 . S
C555 C552 1.526 1_556 S
C555 C556 1.396 . S
C555 C560 1.390 . S
C556 C550 1.465 . S
C556 C555 1.396 . S
C556 C557 1.399 . S
C557 H543 0.929 . S
C557 C556 1.399 . S
C557 C558 1.385 . S
C558 H544 0.931 . S
C558 C557 1.385 . S
C558 C559 1.389 . S
C559 C558 1.389 . S
C559 C560 1.387 . S
C560 H545 0.930 1_556 S
C560 C555 1.390 . S
C560 C559 1.387 . S
H561 C573 0.930 . S
H562 C575 0.930 . S
H563 C576 0.930 . S
H564 C580 0.959 . S
H565 C580 0.959 . S
H566 C580 0.961 . S
H567 C581 0.960 . S
H568 C581 0.961 . S
H569 C581 0.959 . S
H570 C584 0.929 . S
H571 C585 0.931 . S
H572 C587 0.930 . S
C573 H561 0.930 . S
C573 C574 1.399 . S
C573 C578 1.399 . S
C574 C573 1.399 . S
C574 C575 1.376 . S
C575 H562 0.930 . S
C575 C574 1.376 . S
C575 C576 1.388 . S
C576 H563 0.930 . S
C576 C575 1.388 . S
C576 C577 1.390 . S
C577 C576 1.390 . S
C577 C578 1.394 . S
C577 C583 1.465 . S
C578 C573 1.399 . S
C578 C577 1.394 . S
C578 C579 1.516 . S
C579 C578 1.516 . S
C579 C580 1.502 . S
C579 C581 1.561 . S
C579 C582 1.526 . S
C580 H564 0.959 . S
C580 H565 0.959 . S
C580 H566 0.961 . S
C580 C579 1.502 . S
C581 H567 0.960 . S
C581 H568 0.961 . S
C581 H569 0.959 . S
C581 C579 1.561 . S
C582 C579 1.526 . S
C582 C583 1.396 . S
C582 C587 1.390 . S
C583 C577 1.465 . S
C583 C582 1.396 . S
C583 C584 1.399 . S
C584 H570 0.929 . S
C584 C583 1.399 . S
C584 C585 1.385 . S
C585 H571 0.931 . S
C585 C584 1.385 . S
C585 C586 1.389 . S
C586 C585 1.389 . S
C586 C587 1.387 . S
C587 H572 0.930 . S
C587 C582 1.390 . S
C587 C586 1.387 . S
H588 C600 0.918 1_554 S
H589 C602 0.930 . S
H590 C603 0.930 . S
H591 C607 0.959 1_556 S
H592 C607 0.959 . S
H593 C607 0.961 . S
H594 C608 0.960 . S
H595 C608 0.961 . S
H596 C608 0.959 . S
H597 C611 0.929 . S
H598 C612 0.931 . S
H599 C614 0.930 1_554 S
C600 H588 0.918 1_556 S
C600 C601 1.407 . S
C600 C605 1.403 . S
C601 C600 1.407 . S
C601 C602 1.376 . S
C602 H589 0.930 . S
C602 C601 1.376 . S
C602 C603 1.388 . S
C603 H590 0.930 . S
C603 C602 1.388 . S
C603 C604 1.390 . S
C604 C603 1.390 . S
C604 C605 1.394 . S
C604 C610 1.465 . S
C605 C600 1.403 . S
C605 C604 1.394 . S
C605 C606 1.516 1_556 S
C606 C605 1.516 1_554 S
C606 C607 1.502 . S
C606 C608 1.561 . S
C606 C609 1.526 1_554 S
C607 H591 0.959 1_554 S
C607 H592 0.959 . S
C607 H593 0.961 . S
C607 C606 1.502 . S
C608 H594 0.960 . S
C608 H595 0.961 . S
C608 H596 0.959 . S
C608 C606 1.561 . S
C609 C606 1.526 1_556 S
C609 C610 1.396 . S
C609 C614 1.390 . S
C610 C604 1.465 . S
C610 C609 1.396 . S
C610 C611 1.399 . S
C611 H597 0.929 . S
C611 C610 1.399 . S
C611 C612 1.385 . S
C612 H598 0.931 . S
C612 C611 1.385 . S
C612 C613 1.389 . S
C613 C612 1.389 . S
C613 C614 1.387 . S
C614 H599 0.930 1_556 S
C614 C609 1.390 . S
C614 C613 1.387 . S
H615 C627 0.930 . S
H616 C629 0.930 . S
H617 C630 0.930 . S
H618 C634 0.959 . S
H619 C634 0.959 . S
H620 C634 0.961 . S
H621 C635 0.960 . S
H622 C635 0.961 . S
H623 C635 0.959 . S
H624 C638 0.929 . S
H625 C639 0.931 . S
H626 C641 0.930 . S
C627 H615 0.930 . S
C627 C628 1.399 . S
C627 C632 1.399 . S
C628 C627 1.399 . S
C628 C629 1.376 . S
C629 H616 0.930 . S
C629 C628 1.376 . S
C629 C630 1.388 . S
C630 H617 0.930 . S
C630 C629 1.388 . S
C630 C631 1.390 . S
C631 C630 1.390 . S
C631 C632 1.394 . S
C631 C637 1.465 . S
C632 C627 1.399 . S
C632 C631 1.394 . S
C632 C633 1.516 . S
C633 C632 1.516 . S
C633 C634 1.502 . S
C633 C635 1.561 . S
C633 C636 1.526 . S
C634 H618 0.959 . S
C634 H619 0.959 . S
C634 H620 0.961 . S
C634 C633 1.502 . S
C635 H621 0.960 . S
C635 H622 0.961 . S
C635 H623 0.959 . S
C635 C633 1.561 . S
C636 C633 1.526 . S
C636 C637 1.396 . S
C636 C641 1.390 . S
C637 C631 1.465 . S
C637 C636 1.396 . S
C637 C638 1.399 . S
C638 H624 0.929 . S
C638 C637 1.399 . S
C638 C639 1.385 . S
C639 H625 0.931 . S
C639 C638 1.385 . S
C639 C640 1.389 . S
C640 C639 1.389 . S
C640 C641 1.387 . S
C641 H626 0.930 . S
C641 C636 1.390 . S
C641 C640 1.387 . S
H642 C654 0.930 . S
H643 C656 0.930 . S
H644 C657 0.930 . S
H645 C661 0.959 . S
H646 C661 0.959 . S
H647 C661 0.961 . S
H648 C662 0.960 . S
H649 C662 0.961 . S
H650 C662 0.959 . S
H651 C665 0.929 . S
H652 C666 0.931 . S
H653 C668 0.930 . S
C654 H642 0.930 . S
C654 C655 1.399 . S
C654 C659 1.399 . S
C655 C654 1.399 . S
C655 C656 1.376 . S
C656 H643 0.930 . S
C656 C655 1.376 . S
C656 C657 1.388 . S
C657 H644 0.930 . S
C657 C656 1.388 . S
C657 C658 1.390 . S
C658 C657 1.390 . S
C658 C659 1.394 . S
C658 C664 1.465 . S
C659 C654 1.399 . S
C659 C658 1.394 . S
C659 C660 1.516 . S
C660 C659 1.516 . S
C660 C661 1.502 . S
C660 C662 1.561 . S
C660 C663 1.526 . S
C661 H645 0.959 . S
C661 H646 0.959 . S
C661 H647 0.961 . S
C661 C660 1.502 . S
C662 H648 0.960 . S
C662 H649 0.961 . S
C662 H650 0.959 . S
C662 C660 1.561 . S
C663 C660 1.526 . S
C663 C664 1.396 . S
C663 C668 1.390 . S
C664 C658 1.465 . S
C664 C663 1.396 . S
C664 C665 1.399 . S
C665 H651 0.929 . S
C665 C664 1.399 . S
C665 C666 1.385 . S
C666 H652 0.931 . S
C666 C665 1.385 . S
C666 C667 1.389 . S
C667 C666 1.389 . S
C667 C668 1.387 . S
C668 H653 0.930 . S
C668 C663 1.390 . S
C668 C667 1.387 . S
H669 C681 0.930 . S
H670 C683 0.930 . S
H671 C684 0.930 . S
H672 C688 0.959 . S
H673 C688 0.959 . S
H674 C688 0.961 . S
H675 C689 0.960 . S
H676 C689 0.961 . S
H677 C689 0.959 . S
H678 C692 0.929 . S
H679 C693 0.931 . S
H680 C695 0.930 1_556 S
C681 H669 0.930 . S
C681 C682 1.399 1_556 S
C681 C686 1.399 1_556 S
C682 C681 1.399 1_554 S
C682 C683 1.376 . S
C683 H670 0.930 . S
C683 C682 1.376 . S
C683 C684 1.388 . S
C684 H671 0.930 . S
C684 C683 1.388 . S
C684 C685 1.390 . S
C685 C684 1.390 . S
C685 C686 1.394 . S
C685 C691 1.465 . S
C686 C681 1.399 1_554 S
C686 C685 1.394 . S
C686 C687 1.516 1_554 S
C687 C686 1.516 1_556 S
C687 C688 1.502 . S
C687 C689 1.561 . S
C687 C690 1.526 1_556 S
C688 H672 0.959 . S
C688 H673 0.959 . S
C688 H674 0.961 . S
C688 C687 1.502 . S
C689 H675 0.960 . S
C689 H676 0.961 . S
C689 H677 0.959 . S
C689 C687 1.561 . S
C690 C687 1.526 1_554 S
C690 C691 1.396 . S
C690 C695 1.390 . S
C691 C685 1.465 . S
C691 C690 1.396 . S
C691 C692 1.399 . S
C692 H678 0.929 . S
C692 C691 1.399 . S
C692 C693 1.385 . S
C693 H679 0.931 . S
C693 C692 1.385 . S
C693 C694 1.389 . S
C694 C693 1.389 . S
C694 C695 1.387 . S
C695 H680 0.930 1_554 S
C695 C690 1.390 . S
C695 C694 1.387 . S
H696 C708 0.930 . S
H697 C710 0.930 . S
H698 C711 0.930 . S
H699 C715 0.959 . S
H700 C715 0.959 . S
H701 C715 0.961 . S
H702 C716 0.960 . S
H703 C716 0.961 . S
H704 C716 0.959 . S
H705 C719 0.929 . S
H706 C720 0.931 . S
H707 C722 0.930 . S
C708 H696 0.930 . S
C708 C709 1.399 . S
C708 C713 1.399 . S
C709 C708 1.399 . S
C709 C710 1.376 . S
C710 H697 0.930 . S
C710 C709 1.376 . S
C710 C711 1.388 . S
C711 H698 0.930 . S
C711 C710 1.388 . S
C711 C712 1.390 . S
C712 C711 1.390 . S
C712 C713 1.394 . S
C712 C718 1.465 . S
C713 C708 1.399 . S
C713 C712 1.394 . S
C713 C714 1.516 . S
C714 C713 1.516 . S
C714 C715 1.502 . S
C714 C716 1.561 . S
C714 C717 1.526 . S
C715 H699 0.959 . S
C715 H700 0.959 . S
C715 H701 0.961 . S
C715 C714 1.502 . S
C716 H702 0.960 . S
C716 H703 0.961 . S
C716 H704 0.959 . S
C716 C714 1.561 . S
C717 C714 1.526 . S
C717 C718 1.396 . S
C717 C722 1.390 . S
C718 C712 1.465 . S
C718 C717 1.396 . S
C718 C719 1.399 . S
C719 H705 0.929 . S
C719 C718 1.399 . S
C719 C720 1.385 . S
C720 H706 0.931 . S
C720 C719 1.385 . S
C720 C721 1.389 . S
C721 C720 1.389 . S
C721 C722 1.387 . S
C722 H707 0.930 . S
C722 C717 1.390 . S
C722 C721 1.387 . S
H723 C735 0.930 . S
H724 C737 0.930 . S
H725 C738 0.930 . S
H726 C742 0.959 . S
H727 C742 0.959 . S
H728 C742 0.961 . S
H729 C743 0.960 . S
H730 C743 0.961 . S
H731 C743 0.959 . S
H732 C746 0.929 . S
H733 C747 0.931 . S
H734 C749 0.930 . S
C735 H723 0.930 . S
C735 C736 1.399 . S
C735 C740 1.399 . S
C736 C735 1.399 . S
C736 C737 1.376 . S
C737 H724 0.930 . S
C737 C736 1.376 . S
C737 C738 1.388 . S
C738 H725 0.930 . S
C738 C737 1.388 . S
C738 C739 1.390 . S
C739 C738 1.390 . S
C739 C740 1.394 . S
C739 C745 1.465 . S
C740 C735 1.399 . S
C740 C739 1.394 . S
C740 C741 1.516 . S
C741 C740 1.516 . S
C741 C742 1.502 1_554 S
C741 C743 1.561 . S
C741 C744 1.526 . S
C742 H726 0.959 . S
C742 H727 0.959 . S
C742 H728 0.961 . S
C742 C741 1.502 1_556 S
C743 H729 0.960 . S
C743 H730 0.961 . S
C743 H731 0.959 . S
C743 C741 1.561 . S
C744 C741 1.526 . S
C744 C745 1.396 . S
C744 C749 1.390 . S
C745 C739 1.465 . S
C745 C744 1.396 . S
C745 C746 1.399 . S
C746 H732 0.929 . S
C746 C745 1.399 . S
C746 C747 1.385 . S
C747 H733 0.931 . S
C747 C746 1.385 . S
C747 C748 1.389 . S
C748 C747 1.389 . S
C748 C749 1.387 . S
C749 H734 0.930 . S
C749 C744 1.390 . S
C749 C748 1.387 . S
H750 C762 0.930 . S
H751 C764 0.930 . S
H752 C765 0.930 . S
H753 C769 0.959 . S
H754 C769 0.959 . S
H755 C769 0.961 . S
H756 C770 0.960 . S
H757 C770 0.961 . S
H758 C770 0.959 . S
H759 C773 0.929 . S
H760 C774 0.931 . S
H761 C776 0.930 . S
C762 H750 0.930 . S
C762 C763 1.399 . S
C762 C767 1.399 . S
C763 C762 1.399 . S
C763 C764 1.376 . S
C764 H751 0.930 . S
C764 C763 1.376 . S
C764 C765 1.388 . S
C765 H752 0.930 . S
C765 C764 1.388 . S
C765 C766 1.390 . S
C766 C765 1.390 . S
C766 C767 1.394 . S
C766 C772 1.465 . S
C767 C762 1.399 . S
C767 C766 1.394 . S
C767 C768 1.516 . S
C768 C767 1.516 . S
C768 C769 1.502 . S
C768 C770 1.561 . S
C768 C771 1.526 . S
C769 H753 0.959 . S
C769 H754 0.959 . S
C769 H755 0.961 . S
C769 C768 1.502 . S
C770 H756 0.960 . S
C770 H757 0.961 . S
C770 H758 0.959 . S
C770 C768 1.561 . S
C771 C768 1.526 . S
C771 C772 1.396 . S
C771 C776 1.390 . S
C772 C766 1.465 . S
C772 C771 1.396 . S
C772 C773 1.399 . S
C773 H759 0.929 . S
C773 C772 1.399 . S
C773 C774 1.385 . S
C774 H760 0.931 . S
C774 C773 1.385 . S
C774 C775 1.389 . S
C775 C774 1.389 . S
C775 C776 1.387 . S
C776 H761 0.930 . S
C776 C771 1.390 . S
C776 C775 1.387 . S
H777 C789 0.930 . S
H778 C791 0.930 . S
H779 C792 0.930 . S
H780 C796 0.959 . S
H781 C796 0.959 . S
H782 C796 0.961 . S
H783 C797 0.960 . S
H784 C797 0.961 . S
H785 C797 0.959 . S
H786 C800 0.929 . S
H787 C801 0.931 1_556 S
H788 C803 0.930 . S
C789 H777 0.930 . S
C789 C790 1.399 . S
C789 C794 1.399 . S
C790 C789 1.399 . S
C790 C791 1.376 1_554 S
C791 H778 0.930 . S
C791 C790 1.376 1_556 S
C791 C792 1.388 . S
C792 H779 0.930 . S
C792 C791 1.388 . S
C792 C793 1.390 1_556 S
C793 C792 1.390 1_554 S
C793 C794 1.394 . S
C793 C799 1.465 . S
C794 C789 1.399 . S
C794 C793 1.394 . S
C794 C795 1.516 . S
C795 C794 1.516 . S
C795 C796 1.502 . S
C795 C797 1.561 . S
C795 C798 1.526 . S
C796 H780 0.959 . S
C796 H781 0.959 . S
C796 H782 0.961 . S
C796 C795 1.502 . S
C797 H783 0.960 . S
C797 H784 0.961 . S
C797 H785 0.959 . S
C797 C795 1.561 . S
C798 C795 1.526 . S
C798 C799 1.396 . S
C798 C803 1.390 . S
C799 C793 1.465 . S
C799 C798 1.396 . S
C799 C800 1.399 1_554 S
C800 H786 0.929 . S
C800 C799 1.399 1_556 S
C800 C801 1.385 1_556 S
C801 H787 0.931 1_554 S
C801 C800 1.385 1_554 S
C801 C802 1.389 . S
C802 C801 1.389 . S
C802 C803 1.387 . S
C803 H788 0.930 . S
C803 C798 1.390 . S
C803 C802 1.387 . S
C169 C140 1.697 . S
C181 C10 1.680 . S
C196 C23 1.669 . S
C208 C147 1.688 . S
C223 C30 1.660 . S
C235 C82 1.651 . S
C250 C95 1.696 . S
C262 C43 1.679 . S
C277 C108 1.664 . S
C289 C62 1.649 . S
C304 C69 1.661 . S
C316 C121 1.650 . S
C331 C4 1.019 . S
C343 C101 1.105 . S
C358 C17 1.025 . S
C370 C114 1.091 . S
C385 C127 1.021 . S
C397 C36 1.105 . S
C412 C134 1.059 . S
C424 C49 1.132 . S
C439 C153 1.097 . S
C451 C56 0.995 . S
C466 C88 1.043 . S
C478 C75 1.137 . S
C493 C5 1.197 . S
C505 C55 1.095 . S
C520 C18 1.251 . S
C532 C70 1.198 . S
C547 C29 1.181 . S
C559 C3 1.153 . S
C574 C42 1.226 . S
C586 C16 1.198 . S
C601 C57 1.178 . S
C613 C31 1.144 . S
C628 C68 1.232 . S
C640 C44 1.119 . S
C655 C81 1.245 . S
C667 C109 1.163 . S
C682 C94 1.183 . S
C694 C122 1.160 . S
C709 C133 1.222 . S
C721 C107 1.245 . S
C736 C120 1.209 . S
C748 C148 1.174 . S
C763 C135 1.218 . S
C775 C83 1.179 . S
C790 C146 1.178 . S
C802 C96 1.058 . S
