# Generated by pormake.
# Topology vcc, (6)-cn, num edge types: 1
# Building blocks:
#     Node 0, Type 0, BuildingBlock: CUKXOW_clean_sbu_0, # of connection points: 6
#     Node 1, Type 0, BuildingBlock: CUKXOW_clean_sbu_0, # of connection points: 6
#     Node 2, Type 0, BuildingBlock: CUKXOW_clean_sbu_0, # of connection points: 6
#     Node 3, Type 0, BuildingBlock: CUKXOW_clean_sbu_0, # of connection points: 6
#     Node 4, Type 0, BuildingBlock: CUKXOW_clean_sbu_0, # of connection points: 6
#     Node 5, Type 0, BuildingBlock: CUKXOW_clean_sbu_0, # of connection points: 6
#     Node 6, Type 0, BuildingBlock: CUKXOW_clean_sbu_0, # of connection points: 6
#     Node 7, Type 0, BuildingBlock: CUKXOW_clean_sbu_0, # of connection points: 6
#     Node 8, Type 0, BuildingBlock: CUKXOW_clean_sbu_0, # of connection points: 6
#     Node 9, Type 0, BuildingBlock: CUKXOW_clean_sbu_0, # of connection points: 6
#     Node 10, Type 0, BuildingBlock: CUKXOW_clean_sbu_0, # of connection points: 6
#     Node 11, Type 0, BuildingBlock: CUKXOW_clean_sbu_0, # of connection points: 6
#     Node 12, Type 0, BuildingBlock: CUKXOW_clean_sbu_0, # of connection points: 6
#     Node 13, Type 0, BuildingBlock: CUKXOW_clean_sbu_0, # of connection points: 6
#     Node 14, Type 0, BuildingBlock: CUKXOW_clean_sbu_0, # of connection points: 6
#     Node 15, Type 0, BuildingBlock: CUKXOW_clean_sbu_0, # of connection points: 6
#     Node 16, Type 0, BuildingBlock: CUKXOW_clean_sbu_0, # of connection points: 6
#     Node 17, Type 0, BuildingBlock: CUKXOW_clean_sbu_0, # of connection points: 6
#     Node 18, Type 0, BuildingBlock: CUKXOW_clean_sbu_0, # of connection points: 6
#     Node 19, Type 0, BuildingBlock: CUKXOW_clean_sbu_0, # of connection points: 6
#     Node 20, Type 0, BuildingBlock: CUKXOW_clean_sbu_0, # of connection points: 6
#     Node 21, Type 0, BuildingBlock: CUKXOW_clean_sbu_0, # of connection points: 6
#     Node 22, Type 0, BuildingBlock: CUKXOW_clean_sbu_0, # of connection points: 6
#     Node 23, Type 0, BuildingBlock: CUKXOW_clean_sbu_0, # of connection points: 6
#     Node 24, Type 0, BuildingBlock: CUKXOW_clean_sbu_0, # of connection points: 6
#     Node 25, Type 0, BuildingBlock: CUKXOW_clean_sbu_0, # of connection points: 6
#     Node 26, Type 0, BuildingBlock: CUKXOW_clean_sbu_0, # of connection points: 6
#     Node 27, Type 0, BuildingBlock: CUKXOW_clean_sbu_0, # of connection points: 6
#     Node 28, Type 0, BuildingBlock: CUKXOW_clean_sbu_0, # of connection points: 6
#     Node 29, Type 0, BuildingBlock: CUKXOW_clean_sbu_0, # of connection points: 6
#     Node 30, Type 0, BuildingBlock: CUKXOW_clean_sbu_0, # of connection points: 6
#     Node 31, Type 0, BuildingBlock: CUKXOW_clean_sbu_0, # of connection points: 6
#     Edge 32, Type (0, 0), BuildingBlock: OJICUG_clean_linker_0, # of connection points: 2
#     Edge 33, Type (0, 0), BuildingBlock: OJICUG_clean_linker_0, # of connection points: 2
#     Edge 34, Type (0, 0), BuildingBlock: OJICUG_clean_linker_0, # of connection points: 2
#     Edge 35, Type (0, 0), BuildingBlock: OJICUG_clean_linker_0, # of connection points: 2
#     Edge 36, Type (0, 0), BuildingBlock: OJICUG_clean_linker_0, # of connection points: 2
#     Edge 37, Type (0, 0), BuildingBlock: OJICUG_clean_linker_0, # of connection points: 2
#     Edge 38, Type (0, 0), BuildingBlock: OJICUG_clean_linker_0, # of connection points: 2
#     Edge 39, Type (0, 0), BuildingBlock: OJICUG_clean_linker_0, # of connection points: 2
#     Edge 40, Type (0, 0), BuildingBlock: OJICUG_clean_linker_0, # of connection points: 2
#     Edge 41, Type (0, 0), BuildingBlock: OJICUG_clean_linker_0, # of connection points: 2
#     Edge 42, Type (0, 0), BuildingBlock: OJICUG_clean_linker_0, # of connection points: 2
#     Edge 43, Type (0, 0), BuildingBlock: OJICUG_clean_linker_0, # of connection points: 2
#     Edge 44, Type (0, 0), BuildingBlock: OJICUG_clean_linker_0, # of connection points: 2
#     Edge 45, Type (0, 0), BuildingBlock: OJICUG_clean_linker_0, # of connection points: 2
#     Edge 46, Type (0, 0), BuildingBlock: OJICUG_clean_linker_0, # of connection points: 2
#     Edge 47, Type (0, 0), BuildingBlock: OJICUG_clean_linker_0, # of connection points: 2
#     Edge 48, Type (0, 0), BuildingBlock: OJICUG_clean_linker_0, # of connection points: 2
#     Edge 49, Type (0, 0), BuildingBlock: OJICUG_clean_linker_0, # of connection points: 2
#     Edge 50, Type (0, 0), BuildingBlock: OJICUG_clean_linker_0, # of connection points: 2
#     Edge 51, Type (0, 0), BuildingBlock: OJICUG_clean_linker_0, # of connection points: 2
#     Edge 52, Type (0, 0), BuildingBlock: OJICUG_clean_linker_0, # of connection points: 2
#     Edge 53, Type (0, 0), BuildingBlock: OJICUG_clean_linker_0, # of connection points: 2
#     Edge 54, Type (0, 0), BuildingBlock: OJICUG_clean_linker_0, # of connection points: 2
#     Edge 55, Type (0, 0), BuildingBlock: OJICUG_clean_linker_0, # of connection points: 2
#     Edge 56, Type (0, 0), BuildingBlock: OJICUG_clean_linker_0, # of connection points: 2
#     Edge 57, Type (0, 0), BuildingBlock: OJICUG_clean_linker_0, # of connection points: 2
#     Edge 58, Type (0, 0), BuildingBlock: OJICUG_clean_linker_0, # of connection points: 2
#     Edge 59, Type (0, 0), BuildingBlock: OJICUG_clean_linker_0, # of connection points: 2
#     Edge 60, Type (0, 0), BuildingBlock: OJICUG_clean_linker_0, # of connection points: 2
#     Edge 61, Type (0, 0), BuildingBlock: OJICUG_clean_linker_0, # of connection points: 2
#     Edge 62, Type (0, 0), BuildingBlock: OJICUG_clean_linker_0, # of connection points: 2
#     Edge 63, Type (0, 0), BuildingBlock: OJICUG_clean_linker_0, # of connection points: 2
#     Edge 64, Type (0, 0), BuildingBlock: OJICUG_clean_linker_0, # of connection points: 2
#     Edge 65, Type (0, 0), BuildingBlock: OJICUG_clean_linker_0, # of connection points: 2
#     Edge 66, Type (0, 0), BuildingBlock: OJICUG_clean_linker_0, # of connection points: 2
#     Edge 67, Type (0, 0), BuildingBlock: OJICUG_clean_linker_0, # of connection points: 2
#     Edge 68, Type (0, 0), BuildingBlock: OJICUG_clean_linker_0, # of connection points: 2
#     Edge 69, Type (0, 0), BuildingBlock: OJICUG_clean_linker_0, # of connection points: 2
#     Edge 70, Type (0, 0), BuildingBlock: OJICUG_clean_linker_0, # of connection points: 2
#     Edge 71, Type (0, 0), BuildingBlock: OJICUG_clean_linker_0, # of connection points: 2
#     Edge 72, Type (0, 0), BuildingBlock: OJICUG_clean_linker_0, # of connection points: 2
#     Edge 73, Type (0, 0), BuildingBlock: OJICUG_clean_linker_0, # of connection points: 2
#     Edge 74, Type (0, 0), BuildingBlock: OJICUG_clean_linker_0, # of connection points: 2
#     Edge 75, Type (0, 0), BuildingBlock: OJICUG_clean_linker_0, # of connection points: 2
#     Edge 76, Type (0, 0), BuildingBlock: OJICUG_clean_linker_0, # of connection points: 2
#     Edge 77, Type (0, 0), BuildingBlock: OJICUG_clean_linker_0, # of connection points: 2
#     Edge 78, Type (0, 0), BuildingBlock: OJICUG_clean_linker_0, # of connection points: 2
#     Edge 79, Type (0, 0), BuildingBlock: OJICUG_clean_linker_0, # of connection points: 2
#     Edge 80, Type (0, 0), BuildingBlock: OJICUG_clean_linker_0, # of connection points: 2
#     Edge 81, Type (0, 0), BuildingBlock: OJICUG_clean_linker_0, # of connection points: 2
#     Edge 82, Type (0, 0), BuildingBlock: OJICUG_clean_linker_0, # of connection points: 2
#     Edge 83, Type (0, 0), BuildingBlock: OJICUG_clean_linker_0, # of connection points: 2
#     Edge 84, Type (0, 0), BuildingBlock: OJICUG_clean_linker_0, # of connection points: 2
#     Edge 85, Type (0, 0), BuildingBlock: OJICUG_clean_linker_0, # of connection points: 2
#     Edge 86, Type (0, 0), BuildingBlock: OJICUG_clean_linker_0, # of connection points: 2
#     Edge 87, Type (0, 0), BuildingBlock: OJICUG_clean_linker_0, # of connection points: 2
#     Edge 88, Type (0, 0), BuildingBlock: OJICUG_clean_linker_0, # of connection points: 2
#     Edge 89, Type (0, 0), BuildingBlock: OJICUG_clean_linker_0, # of connection points: 2
#     Edge 90, Type (0, 0), BuildingBlock: OJICUG_clean_linker_0, # of connection points: 2
#     Edge 91, Type (0, 0), BuildingBlock: OJICUG_clean_linker_0, # of connection points: 2
#     Edge 92, Type (0, 0), BuildingBlock: OJICUG_clean_linker_0, # of connection points: 2
#     Edge 93, Type (0, 0), BuildingBlock: OJICUG_clean_linker_0, # of connection points: 2
#     Edge 94, Type (0, 0), BuildingBlock: OJICUG_clean_linker_0, # of connection points: 2
#     Edge 95, Type (0, 0), BuildingBlock: OJICUG_clean_linker_0, # of connection points: 2
#     Edge 96, Type (0, 0), BuildingBlock: OJICUG_clean_linker_0, # of connection points: 2
#     Edge 97, Type (0, 0), BuildingBlock: OJICUG_clean_linker_0, # of connection points: 2
#     Edge 98, Type (0, 0), BuildingBlock: OJICUG_clean_linker_0, # of connection points: 2
#     Edge 99, Type (0, 0), BuildingBlock: OJICUG_clean_linker_0, # of connection points: 2
#     Edge 100, Type (0, 0), BuildingBlock: OJICUG_clean_linker_0, # of connection points: 2
#     Edge 101, Type (0, 0), BuildingBlock: OJICUG_clean_linker_0, # of connection points: 2
#     Edge 102, Type (0, 0), BuildingBlock: OJICUG_clean_linker_0, # of connection points: 2
#     Edge 103, Type (0, 0), BuildingBlock: OJICUG_clean_linker_0, # of connection points: 2
#     Edge 104, Type (0, 0), BuildingBlock: OJICUG_clean_linker_0, # of connection points: 2
#     Edge 105, Type (0, 0), BuildingBlock: OJICUG_clean_linker_0, # of connection points: 2
#     Edge 106, Type (0, 0), BuildingBlock: OJICUG_clean_linker_0, # of connection points: 2
#     Edge 107, Type (0, 0), BuildingBlock: OJICUG_clean_linker_0, # of connection points: 2
#     Edge 108, Type (0, 0), BuildingBlock: OJICUG_clean_linker_0, # of connection points: 2
#     Edge 109, Type (0, 0), BuildingBlock: OJICUG_clean_linker_0, # of connection points: 2
#     Edge 110, Type (0, 0), BuildingBlock: OJICUG_clean_linker_0, # of connection points: 2
#     Edge 111, Type (0, 0), BuildingBlock: OJICUG_clean_linker_0, # of connection points: 2
#     Edge 112, Type (0, 0), BuildingBlock: OJICUG_clean_linker_0, # of connection points: 2
#     Edge 113, Type (0, 0), BuildingBlock: OJICUG_clean_linker_0, # of connection points: 2
#     Edge 114, Type (0, 0), BuildingBlock: OJICUG_clean_linker_0, # of connection points: 2
#     Edge 115, Type (0, 0), BuildingBlock: OJICUG_clean_linker_0, # of connection points: 2
#     Edge 116, Type (0, 0), BuildingBlock: OJICUG_clean_linker_0, # of connection points: 2
#     Edge 117, Type (0, 0), BuildingBlock: OJICUG_clean_linker_0, # of connection points: 2
#     Edge 118, Type (0, 0), BuildingBlock: OJICUG_clean_linker_0, # of connection points: 2
#     Edge 119, Type (0, 0), BuildingBlock: OJICUG_clean_linker_0, # of connection points: 2
#     Edge 120, Type (0, 0), BuildingBlock: OJICUG_clean_linker_0, # of connection points: 2
#     Edge 121, Type (0, 0), BuildingBlock: OJICUG_clean_linker_0, # of connection points: 2
#     Edge 122, Type (0, 0), BuildingBlock: OJICUG_clean_linker_0, # of connection points: 2
#     Edge 123, Type (0, 0), BuildingBlock: OJICUG_clean_linker_0, # of connection points: 2
#     Edge 124, Type (0, 0), BuildingBlock: OJICUG_clean_linker_0, # of connection points: 2
#     Edge 125, Type (0, 0), BuildingBlock: OJICUG_clean_linker_0, # of connection points: 2
#     Edge 126, Type (0, 0), BuildingBlock: OJICUG_clean_linker_0, # of connection points: 2
#     Edge 127, Type (0, 0), BuildingBlock: OJICUG_clean_linker_0, # of connection points: 2
# Relax obj value: 0.234
# Max RMSD: 0.177
# Mean RMSD: 0.177
data_MOF--net-vcc--node1-CUKXOW_clean_sbu_0--edge1-OJICUG_clean_linker_0
_symmetry_space_group_name_H-M    P1
_symmetry_Int_Tables_number       1
_symmetry_cell_setting            triclinic
loop_
_symmetry_equiv_pos_as_xyz
'x, y, z'
_cell_length_a     44.173183
_cell_length_b     41.571591
_cell_length_c     24.817639
_cell_angle_alpha  90.08031
_cell_angle_beta   90.00791
_cell_angle_gamma 90.002781
loop_
_atom_site_label
_atom_site_type_symbol
_atom_site_fract_x
_atom_site_fract_y
_atom_site_fract_z
_atom_type_partial_charge
Tb0 Tb 0.21915 1.01004 0.1841 0.0
C1 C 0.21855 0.08129 0.22786 0.0
Tb2 Tb 0.26645 0.03208 0.22712 0.0
O3 O 0.1844 0.02286 0.2391 0.0
O4 O 0.2279 1.00993 0.27018 0.0
O5 O 0.20997 0.06341 0.18589 0.0
C6 C 0.3199 0.05069 0.26315 0.0
O7 O 0.24026 0.07059 0.25817 0.0
C8 C 0.26775 0.04114 1.11971 0.0
C9 C 0.26649 0.95864 0.22415 0.0
O10 O 0.29435 0.06169 0.28056 0.0
O11 O 0.31525 0.02808 0.22866 0.0
O12 O 0.27135 0.0635 0.15515 0.0
O13 O 0.26109 1.01603 0.14511 0.0
O14 O 0.28054 0.98347 0.24511 0.0
O15 O 0.241 0.963 0.19722 0.0
C16 C 0.18165 0.98472 1.11311 0.0
O17 O 0.18559 0.97427 0.16162 0.0
O18 O 0.19812 1.01005 1.10516 0.0
C19 C 0.20074 1.01944 0.28188 0.0
Tb20 Tb 0.87022 0.28071 0.18392 0.0
C21 C 0.87062 0.20948 0.22766 0.0
Tb22 Tb 0.82284 0.25883 0.22684 0.0
O23 O 0.90497 0.2679 0.23886 0.0
O24 O 0.86147 0.28085 0.27001 0.0
O25 O 0.87928 0.2273 0.18575 0.0
C26 C 0.7693 0.2405 0.26274 0.0
O27 O 0.84887 0.22025 0.25787 0.0
C28 C 0.82154 0.24974 1.11941 0.0
C29 C 0.82299 0.33229 0.22394 0.0
O30 O 0.7948 0.22943 0.28023 0.0
O31 O 0.77405 0.26301 0.22823 0.0
O32 O 0.81788 0.22739 0.15475 0.0
O33 O 0.82827 0.27483 0.14492 0.0
O34 O 0.80889 0.30751 0.24488 0.0
O35 O 0.84848 0.32783 0.19706 0.0
C36 C 0.90783 0.30558 1.1128 0.0
O37 O 0.90392 0.31624 0.16124 0.0
O38 O 0.89122 0.28032 1.10498 0.0
C39 C 0.88862 0.27129 0.28165 0.0
Tb40 Tb 0.21923 0.28075 0.33801 0.0
C41 C 0.21873 0.20946 0.29425 0.0
Tb42 Tb 0.2666 0.25874 0.29489 0.0
O43 O 0.18448 0.26789 0.283 0.0
O44 O 0.22798 0.2808 0.25192 0.0
O45 O 0.2101 0.22736 0.33616 0.0
C46 C 0.32011 0.24035 0.25884 0.0
O47 O 0.24048 0.22013 0.26399 0.0
C48 C 0.2679 0.24969 0.40227 0.0
C49 C 0.26651 0.33222 0.29799 0.0
O50 O 0.29459 0.22945 0.24109 0.0
O51 O 0.3154 0.26273 0.2937 0.0
O52 O 0.27154 0.22732 0.36685 0.0
O53 O 0.2612 0.27479 0.37686 0.0
O54 O 0.28058 0.3074 0.27699 0.0
O55 O 0.24102 0.32783 0.32491 0.0
C56 C 0.18168 0.30573 0.40926 0.0
O57 O 0.18555 0.31632 0.36082 0.0
O58 O 0.1983 0.28048 0.41701 0.0
C59 C 0.20084 0.27123 0.24023 0.0
Tb60 Tb 0.87034 1.01024 0.33796 0.0
C61 C 0.87087 0.08146 0.29434 0.0
Tb62 Tb 0.82302 0.03219 0.29506 0.0
O63 O 0.90507 0.02306 0.283 0.0
O64 O 0.86158 1.01006 0.25188 0.0
O65 O 0.87947 0.06363 0.33628 0.0
C66 C 0.76958 0.05079 0.25909 0.0
O67 O 0.84916 0.0707 0.26404 0.0
C68 C 0.82172 0.04128 0.40251 0.0
C69 C 0.823 0.95877 0.29785 0.0
O70 O 0.79513 0.06182 0.24179 0.0
O71 O 0.77422 0.02815 0.29341 0.0
O72 O 0.8181 0.06363 0.36716 0.0
O73 O 0.82841 1.01618 0.37701 0.0
O74 O 0.80893 0.98357 0.27695 0.0
O75 O 0.8485 0.96318 0.32476 0.0
C76 C 0.90789 0.98494 0.40874 0.0
O77 O 0.9039 0.97448 0.3602 0.0
O78 O 0.89144 1.01028 0.41684 0.0
C79 C 0.88873 1.01958 0.24021 0.0
Tb80 Tb 0.57306 1.00982 1.04488 0.0
C81 C 0.5732 0.08332 1.04825 0.0
Tb82 Tb 0.62049 0.03185 1.08831 0.0
O83 O 0.56786 0.97838 1.11678 0.0
O84 O 0.57846 0.02577 1.12701 0.0
O85 O 0.55914 0.05852 1.02713 0.0
C86 C 0.658 0.05688 0.15958 0.0
O87 O 0.59866 0.07891 1.07524 0.0
C88 C 0.63875 0.02214 0.99045 0.0
C89 C 0.6209 0.96049 1.04456 0.0
O90 O 0.65421 0.06739 1.11106 0.0
O91 O 0.64135 0.03167 0.16738 0.0
O92 O 0.65513 1.01873 1.03319 0.0
O93 O 0.61174 0.032 1.00236 0.0
O94 O 0.62954 0.97842 1.08645 0.0
O95 O 0.59918 0.97116 1.01421 0.0
C96 C 0.51962 0.99154 1.0084 0.0
O97 O 0.54516 0.9806 0.99084 0.0
O98 O 0.52428 1.01391 1.04333 0.0
C99 C 0.57159 1.00068 0.1523 0.0
Tb100 Tb 0.0165 0.78149 1.04492 0.0
C101 C 0.01636 0.708 1.04811 0.0
Tb102 Tb -0.03096 0.75951 1.08815 0.0
O103 O 0.02168 0.81294 1.11695 0.0
O104 O 0.01105 0.76557 1.12698 0.0
O105 O 0.03044 0.73277 1.02709 0.0
C106 C -0.06856 0.73446 0.1591 0.0
O107 O -0.00913 0.71244 1.07501 0.0
C108 C -0.04917 0.76917 0.9903 0.0
C109 C -0.03131 0.83084 1.04459 0.0
O110 O -0.06471 0.72397 1.11054 0.0
O111 O -0.05192 0.75967 0.16713 0.0
O112 O -0.06556 0.77264 1.03302 0.0
O113 O -0.02216 0.75931 1.00221 0.0
O114 O -0.03999 0.81295 1.08641 0.0
O115 O -0.00957 0.82013 1.01428 0.0
C116 C 0.06996 0.79977 1.0086 0.0
O117 O 0.04441 0.81071 0.99106 0.0
O118 O 0.06529 0.7774 1.04341 0.0
C119 C 0.01792 0.79066 0.15238 0.0
Tb120 Tb 0.57286 0.78318 0.97714 0.0
C121 C 0.57287 0.70969 0.97372 0.0
Tb122 Tb 0.6203 0.7611 0.93389 0.0
O123 O 0.56782 0.81467 0.90527 0.0
O124 O 0.57833 0.76726 0.89503 0.0
O125 O 0.55881 0.7345 0.99478 0.0
C126 C 0.65785 0.73585 0.86294 0.0
O127 O 0.59837 0.71407 0.94685 0.0
C128 C 0.63843 0.77069 1.03185 0.0
C129 C 0.62077 0.83244 0.97769 0.0
O130 O 0.65396 0.72543 0.91148 0.0
O131 O 0.6413 0.76112 0.85494 0.0
O132 O 0.65486 0.7742 0.98918 0.0
O133 O 0.61143 0.76086 1.01978 0.0
O134 O 0.62945 0.8145 0.93583 0.0
O135 O 0.59899 0.82181 1.00792 0.0
C136 C 0.51936 0.80151 1.01327 0.0
O137 O 0.54489 0.81228 1.03125 0.0
O138 O 0.52406 0.77928 0.97814 0.0
C139 C 0.57154 0.79237 0.86975 0.0
Tb140 Tb 0.01664 1.00802 0.97711 0.0
C141 C 0.01663 0.0815 0.97386 0.0
Tb142 Tb -0.0308 0.03005 0.93393 0.0
O143 O 0.02171 0.97652 0.90511 0.0
O144 O 0.01117 0.02392 0.89506 0.0
O145 O 0.0307 0.05672 0.99487 0.0
C146 C -0.06834 0.05527 0.86306 0.0
O147 O -0.00888 0.07709 0.94701 0.0
C148 C -0.04895 1.02053 1.03183 0.0
C149 C -0.03125 0.95875 0.97757 0.0
O150 O -0.06444 0.06573 0.91162 0.0
O151 O -0.05182 0.02998 0.85499 0.0
O152 O -0.06537 1.017 0.98914 0.0
O153 O -0.02194 0.03034 1.01984 0.0
O154 O -0.03993 0.97664 0.93574 0.0
O155 O -0.00947 0.96943 1.00782 0.0
C156 C 0.07011 0.98966 1.01326 0.0
O157 O 0.04457 0.97887 1.03106 0.0
O158 O 0.06544 1.01195 0.97831 0.0
C159 C 0.01798 0.99881 0.86967 0.0
Tb160 Tb 0.21917 0.51007 0.68396 0.0
C161 C 0.21858 0.58134 0.72771 0.0
Tb162 Tb 0.26647 0.53212 0.72698 0.0
O163 O 0.18442 0.52291 0.73896 0.0
O164 O 0.22792 0.50997 0.77003 0.0
O165 O 0.20999 0.56345 0.68575 0.0
C166 C 0.31992 0.55071 0.76302 0.0
O167 O 0.24029 0.57063 0.75802 0.0
C168 C 0.26778 0.54116 0.61957 0.0
C169 C 0.2665 0.45867 0.72401 0.0
O170 O 0.29437 0.56171 0.78044 0.0
O171 O 0.31527 0.52811 0.72851 0.0
O172 O 0.27138 0.56353 0.655 0.0
O173 O 0.2611 0.51605 0.64498 0.0
O174 O 0.28056 0.48351 0.74497 0.0
O175 O 0.24101 0.46304 0.69708 0.0
C176 C 0.18165 0.48477 0.61297 0.0
O177 O 0.1856 0.47432 0.66148 0.0
O178 O 0.19813 0.51009 0.60502 0.0
C179 C 0.20076 0.51948 0.78174 0.0
Tb180 Tb 0.87027 0.78077 0.68402 0.0
C181 C 0.87068 0.70953 0.7277 0.0
Tb182 Tb 0.82288 0.75887 0.72696 0.0
O183 O 0.905 0.76794 0.73897 0.0
O184 O 0.86151 0.78089 0.77011 0.0
O185 O 0.87934 0.72737 0.68581 0.0
C186 C 0.76934 0.74055 0.76289 0.0
O187 O 0.84893 0.72028 0.75792 0.0
C188 C 0.82159 0.74977 0.61954 0.0
C189 C 0.82302 0.83233 0.72407 0.0
O190 O 0.79485 0.72951 0.78043 0.0
O191 O 0.77409 0.76302 0.72831 0.0
O192 O 0.81792 0.72742 0.65489 0.0
O193 O 0.82831 0.77487 0.64504 0.0
O194 O 0.80892 0.80755 0.745 0.0
O195 O 0.84851 0.82789 0.69718 0.0
C196 C 0.90787 0.80569 0.61294 0.0
O197 O 0.90396 0.81632 0.6614 0.0
O198 O 0.89127 0.78043 0.60508 0.0
C199 C 0.88866 0.77133 0.78176 0.0
Tb200 Tb 0.21923 0.78077 0.83803 0.0
C201 C 0.21875 0.70949 0.79421 0.0
Tb202 Tb 0.2666 0.75878 0.79495 0.0
O203 O 0.18449 0.76791 0.78302 0.0
O204 O 0.22798 0.78083 0.75194 0.0
O205 O 0.21011 0.72737 0.83613 0.0
C206 C 0.32013 0.74042 0.75895 0.0
O207 O 0.2405 0.72017 0.76397 0.0
C208 C 0.26789 0.74971 0.90233 0.0
C209 C 0.2665 0.83226 0.79806 0.0
O210 O 0.29462 0.72947 0.74124 0.0
O211 O 0.3154 0.76284 0.79375 0.0
O212 O 0.27153 0.72735 0.8669 0.0
O213 O 0.26119 0.77481 0.87694 0.0
O214 O 0.28058 0.80745 0.77706 0.0
O215 O 0.24101 0.82786 0.82496 0.0
C216 C 0.18166 0.80574 0.90924 0.0
O217 O 0.18554 0.81634 0.8608 0.0
O218 O 0.19827 0.78049 0.917 0.0
C219 C 0.20084 0.77126 0.74025 0.0
Tb220 Tb 0.87034 0.51025 0.83777 0.0
C221 C 0.87088 0.58149 0.79423 0.0
Tb222 Tb 0.82302 0.53223 0.79488 0.0
O223 O 0.90507 0.52309 0.7828 0.0
O224 O 0.86157 0.51009 0.7517 0.0
O225 O 0.87949 0.56364 0.83614 0.0
C226 C 0.76958 0.55083 0.7589 0.0
O227 O 0.84917 0.57074 0.76391 0.0
C228 C 0.82173 0.5413 0.90233 0.0
C229 C 0.823 0.4588 0.79767 0.0
O230 O 0.79513 0.56183 0.74156 0.0
O231 O 0.77421 0.52822 0.79327 0.0
O232 O 0.8181 0.56366 0.86699 0.0
O233 O 0.82842 0.5162 0.87681 0.0
O234 O 0.80893 0.48361 0.77677 0.0
O235 O 0.8485 0.4632 0.82457 0.0
C236 C 0.90791 0.48494 0.90852 0.0
O237 O 0.90392 0.47449 0.85997 0.0
O238 O 0.89145 0.51027 0.91665 0.0
C239 C 0.88872 0.51962 0.74002 0.0
Tb240 Tb 0.57306 0.50978 0.54474 0.0
C241 C 0.57317 0.58328 0.54812 0.0
Tb242 Tb 0.62048 0.53182 0.58813 0.0
O243 O 0.56788 0.47834 0.61664 0.0
O244 O 0.57846 0.52573 0.62687 0.0
O245 O 0.5591 0.55848 0.52702 0.0
C246 C 0.658 0.55687 0.65936 0.0
O247 O 0.59864 0.57888 0.57507 0.0
C248 C 0.63873 0.52213 0.49026 0.0
C249 C 0.62091 0.46047 0.54437 0.0
O250 O 0.6542 0.56738 0.61084 0.0
O251 O 0.64136 0.53166 0.66718 0.0
O252 O 0.65512 0.51871 0.533 0.0
O253 O 0.61172 0.53197 0.50218 0.0
O254 O 0.62955 0.4784 0.58626 0.0
O255 O 0.59917 0.47114 0.51404 0.0
C256 C 0.51961 0.49147 0.5083 0.0
O257 O 0.54516 0.48054 0.49073 0.0
O258 O 0.52427 0.51385 0.54321 0.0
C259 C 0.57161 0.50064 0.65216 0.0
Tb260 Tb 0.0165 0.28146 0.54484 0.0
C261 C 0.01634 0.20798 0.54805 0.0
Tb262 Tb -0.03096 0.25953 0.58803 0.0
O263 O 0.02169 0.31292 0.61687 0.0
O264 O 0.01104 0.26555 0.62691 0.0
O265 O 0.03043 0.23275 0.52701 0.0
C266 C -0.06859 0.23452 0.65895 0.0
O267 O -0.00915 0.21244 0.57494 0.0
C268 C -0.04917 0.26917 0.49017 0.0
C269 C -0.03127 0.33085 0.54442 0.0
O270 O -0.06473 0.22401 0.61041 0.0
O271 O -0.05195 0.25972 0.66698 0.0
O272 O -0.06555 0.27266 0.5329 0.0
O273 O -0.02216 0.2593 0.50209 0.0
O274 O -0.03996 0.31297 0.58626 0.0
O275 O -0.00954 0.32011 0.51413 0.0
C276 C 0.06997 0.29972 0.50855 0.0
O277 O 0.04444 0.31071 0.49107 0.0
O278 O 0.06529 0.27731 0.54328 0.0
C279 C 0.01793 0.29064 0.65231 0.0
Tb280 Tb 0.57286 0.28324 0.47704 0.0
C281 C 0.57284 0.20973 0.47363 0.0
Tb282 Tb 0.6203 0.26109 0.43373 0.0
O283 O 0.56783 0.31471 0.40516 0.0
O284 O 0.57832 0.26729 0.39494 0.0
O285 O 0.55879 0.23456 0.49467 0.0
C286 C 0.65781 0.2358 0.36276 0.0
O287 O 0.59835 0.21409 0.44676 0.0
C288 C 0.63843 0.2707 0.53169 0.0
C289 C 0.62082 0.33245 0.47746 0.0
O290 O 0.65394 0.2254 0.41132 0.0
O291 O 0.64127 0.26107 0.35476 0.0
O292 O 0.65486 0.27419 0.48903 0.0
O293 O 0.61143 0.26089 0.51962 0.0
O294 O 0.62949 0.31449 0.43562 0.0
O295 O 0.59903 0.32186 0.50771 0.0
C296 C 0.51939 0.30162 0.51321 0.0
O297 O 0.54493 0.3123 0.53126 0.0
O298 O 0.52405 0.27943 0.47798 0.0
C299 C 0.57154 0.2924 0.36964 0.0
Tb300 Tb 0.01664 0.50806 0.47695 0.0
C301 C 0.01661 0.58154 0.47372 0.0
Tb302 Tb -0.0308 0.53008 0.43374 0.0
O303 O 0.02172 0.47656 0.40495 0.0
O304 O 0.01118 0.52395 0.3949 0.0
O305 O 0.03068 0.55675 0.49473 0.0
C306 C -0.06833 0.55527 0.36282 0.0
O307 O -0.0089 0.57712 0.44684 0.0
C308 C -0.04896 0.52055 0.53164 0.0
C309 C -0.03124 0.45877 0.47739 0.0
O310 O -0.06444 0.56574 0.41138 0.0
O311 O -0.0518 0.52998 0.35479 0.0
O312 O -0.06537 0.51702 0.48894 0.0
O313 O -0.02196 0.53037 0.51965 0.0
O314 O -0.03992 0.47666 0.43555 0.0
O315 O -0.00947 0.46946 0.50766 0.0
C316 C 0.07011 0.48972 0.51313 0.0
O317 O 0.04457 0.47891 0.53091 0.0
O318 O 0.06544 0.512 0.47817 0.0
C319 C 0.01799 0.49885 0.36951 0.0
Tb320 Tb 0.71926 1.0103 0.68408 0.0
C321 C 0.71879 0.08156 0.72795 0.0
Tb322 Tb 0.76662 0.03227 0.72708 0.0
O323 O 0.68451 0.02312 0.73907 0.0
O324 O 0.72802 1.01024 0.77018 0.0
O325 O 0.71014 0.06369 0.68602 0.0
C326 C 0.82017 0.05063 0.76298 0.0
O327 O 0.74055 0.07086 0.75816 0.0
C328 C 0.76789 0.04132 0.61969 0.0
C329 C 0.76651 0.95879 0.72404 0.0
O330 O 0.79467 0.06168 0.78058 0.0
O331 O 0.81541 0.02812 0.72837 0.0
O332 O 0.77153 0.06369 0.65511 0.0
O333 O 0.7612 1.01622 0.6451 0.0
O334 O 0.7806 0.98361 0.74502 0.0
O335 O 0.74102 0.9632 0.69715 0.0
C336 C 0.68167 0.9854 0.61281 0.0
O337 O 0.68556 0.97475 0.66123 0.0
O338 O 0.69829 1.01064 0.60511 0.0
C339 C 0.70086 1.01979 0.78185 0.0
Tb340 Tb 0.37035 0.2808 0.68394 0.0
C341 C 0.37089 0.20956 0.72747 0.0
Tb342 Tb 0.32301 0.25882 0.72692 0.0
O343 O 0.40507 0.26795 0.73893 0.0
O344 O 0.36158 0.28098 0.77 0.0
O345 O 0.37949 0.22741 0.68557 0.0
C346 C 0.26958 0.24024 0.76298 0.0
O347 O 0.34918 0.22029 0.75781 0.0
C348 C 0.32171 0.24972 0.61948 0.0
C349 C 0.323 0.33225 0.72406 0.0
O350 O 0.29514 0.2293 0.78041 0.0
O351 O 0.2742 0.26277 0.72844 0.0
O352 O 0.31807 0.22737 0.65483 0.0
O353 O 0.3284 0.27483 0.64497 0.0
O354 O 0.30893 0.30745 0.74498 0.0
O355 O 0.34849 0.32785 0.69715 0.0
C356 C 0.40789 0.30617 0.61322 0.0
O357 O 0.40391 0.31659 0.66177 0.0
O358 O 0.39144 0.28083 0.60505 0.0
C359 C 0.38873 0.27144 0.78171 0.0
Tb360 Tb 0.7191 0.28102 0.83793 0.0
C361 C 0.71848 0.20973 0.79432 0.0
Tb362 Tb 0.76643 0.25893 0.7948 0.0
O363 O 0.68437 0.26814 0.78289 0.0
O364 O 0.72786 0.28112 0.75186 0.0
O365 O 0.70991 0.22765 0.83624 0.0
C366 C 0.81984 0.24032 0.75865 0.0
O367 O 0.74019 0.22039 0.76396 0.0
C368 C 0.76773 0.24987 0.9022 0.0
C369 C 0.76648 0.33239 0.79784 0.0
O370 O 0.79427 0.22946 0.74105 0.0
O371 O 0.81524 0.26279 0.79341 0.0
O372 O 0.77135 0.22751 0.86676 0.0
O373 O 0.76107 0.27499 0.8768 0.0
O374 O 0.78052 0.30754 0.77686 0.0
O375 O 0.741 0.32804 0.82478 0.0
C376 C 0.68161 0.30644 0.90882 0.0
O377 O 0.68555 0.31682 0.86027 0.0
O378 O 0.69808 0.28112 0.91687 0.0
C379 C 0.70072 0.27157 0.74013 0.0
Tb380 Tb 0.37023 1.01033 0.83792 0.0
C381 C 0.37062 0.08154 0.79415 0.0
Tb382 Tb 0.32287 0.03218 0.7951 0.0
O383 O 0.40498 0.02313 0.78299 0.0
O384 O 0.36147 1.0102 0.75182 0.0
O385 O 0.3793 0.06374 0.83606 0.0
C386 C 0.2693 0.05052 0.75929 0.0
O387 O 0.34886 0.07076 0.76396 0.0
C388 C 0.32159 0.04126 0.90254 0.0
C389 C 0.323 0.95873 0.79792 0.0
O390 O 0.29479 0.06167 0.7419 0.0
O391 O 0.27408 0.02792 0.79363 0.0
O392 O 0.31793 0.06362 0.8672 0.0
O393 O 0.32831 1.01617 0.87702 0.0
O394 O 0.3089 0.98351 0.77701 0.0
O395 O 0.34851 0.96319 0.82478 0.0
C396 C 0.40789 0.98549 0.90901 0.0
O397 O 0.40395 0.97481 0.86058 0.0
O398 O 0.39127 1.01074 0.91683 0.0
C399 C 0.38863 1.01974 0.74019 0.0
Tb400 Tb 0.07289 1.00804 0.54491 0.0
C401 C 0.07288 0.08154 0.54832 0.0
Tb402 Tb 0.12031 0.03017 0.58826 0.0
O403 O 0.06784 0.97656 0.61679 0.0
O404 O 0.07833 0.02398 0.62702 0.0
O405 O 0.05884 0.05672 0.52726 0.0
C406 C 0.15779 0.0554 0.65937 0.0
O407 O 0.09838 0.07718 0.57522 0.0
C408 C 0.13849 0.02057 0.49032 0.0
C409 C 0.12084 0.95882 0.54447 0.0
O410 O 0.15394 0.06585 0.61083 0.0
O411 O 0.14124 0.03012 0.66727 0.0
O412 O 0.15491 1.01711 0.53302 0.0
O413 O 0.11147 0.03037 0.50234 0.0
O414 O 0.12949 0.97677 0.58633 0.0
O415 O 0.09905 0.96943 0.5142 0.0
C416 C 0.01942 0.98967 0.50869 0.0
O417 O 0.04496 0.97893 0.49074 0.0
O418 O 0.02409 1.0119 0.54385 0.0
C419 C 0.07155 0.99886 0.65231 0.0
Tb420 Tb 0.51665 0.7832 0.54493 0.0
C421 C 0.51663 0.70972 0.54814 0.0
Tb422 Tb 0.4692 0.76116 0.58805 0.0
O423 O 0.52171 0.8147 0.61694 0.0
O424 O 0.51116 0.7673 0.62697 0.0
O425 O 0.5307 0.73451 0.52715 0.0
C426 C 0.4316 0.73591 0.6588 0.0
O427 O 0.49112 0.71413 0.57498 0.0
C428 C 0.45107 0.77071 0.49013 0.0
C429 C 0.46877 0.83248 0.54446 0.0
O430 O 0.43553 0.72549 0.61022 0.0
O431 O 0.44814 0.76119 0.66696 0.0
O432 O 0.43466 0.77426 0.5328 0.0
O433 O 0.47807 0.76088 0.50216 0.0
O434 O 0.46008 0.81458 0.58627 0.0
O435 O 0.49055 0.82181 0.51423 0.0
C436 C 0.57014 0.80154 0.50885 0.0
O437 O 0.54461 0.81233 0.49098 0.0
O438 O 0.56545 0.77928 0.54383 0.0
C439 C 0.51797 0.79241 0.65237 0.0
Tb440 Tb 0.07302 0.78148 0.47714 0.0
C441 C 0.07313 0.70799 0.47375 0.0
Tb442 Tb 0.12046 0.75945 0.43378 0.0
O443 O 0.06785 0.81293 0.40524 0.0
O444 O 0.07844 0.76554 0.39502 0.0
O445 O 0.05907 0.73278 0.49484 0.0
C446 C 0.15801 0.73436 0.36265 0.0
O447 O 0.09861 0.71239 0.44682 0.0
C448 C 0.13868 0.76914 0.53167 0.0
C449 C 0.12087 0.8308 0.47753 0.0
O450 O 0.15419 0.72388 0.41119 0.0
O451 O 0.14137 0.75957 0.35476 0.0
O452 O 0.15507 0.77258 0.48895 0.0
O453 O 0.11167 0.75929 0.51972 0.0
O454 O 0.12953 0.81287 0.43565 0.0
O455 O 0.09914 0.82014 0.50783 0.0
C456 C 0.01957 0.79978 0.51353 0.0
O457 O 0.04511 0.81069 0.53117 0.0
O458 O 0.02423 0.77743 0.47858 0.0
C459 C 0.07159 0.79063 0.36972 0.0
Tb460 Tb 0.51648 1.0098 0.47711 0.0
C461 C 0.51632 0.08329 0.47389 0.0
Tb462 Tb 0.46905 0.03172 0.43382 0.0
O463 O 0.52171 0.97834 0.40509 0.0
O464 O 0.51106 0.02571 0.39504 0.0
O465 O 0.5304 0.05853 0.49496 0.0
C466 C 0.43148 0.05668 0.36271 0.0
O467 O 0.49084 0.07882 0.44695 0.0
C468 C 0.45079 0.02209 0.53165 0.0
C469 C 0.46871 0.96041 0.47747 0.0
O470 O 0.43531 0.06723 0.41124 0.0
O471 O 0.44812 0.03146 0.35481 0.0
O472 O 0.43441 1.01862 0.4889 0.0
O473 O 0.4778 0.03195 0.51978 0.0
O474 O 0.46004 0.97828 0.4356 0.0
O475 O 0.49043 0.97116 0.5078 0.0
C476 C 0.56994 0.99156 0.51352 0.0
O477 O 0.5444 0.98054 0.53092 0.0
O478 O 0.56527 1.01398 0.4788 0.0
C479 C 0.51796 1.00062 0.36965 0.0
Tb480 Tb 0.71926 0.51028 0.18391 0.0
C481 C 0.7188 0.58153 0.22785 0.0
Tb482 Tb 0.76661 0.53223 0.2269 0.0
O483 O 0.6845 0.52309 0.23888 0.0
O484 O 0.72801 0.51021 0.27001 0.0
O485 O 0.71016 0.56368 0.18589 0.0
C486 C 0.82017 0.55058 0.26278 0.0
O487 O 0.74056 0.57081 0.25805 0.0
C488 C 0.7679 0.54129 1.11951 0.0
C489 C 0.7665 0.45876 0.22387 0.0
O490 O 0.79468 0.56166 0.28033 0.0
O491 O 0.81539 0.52804 0.22823 0.0
O492 O 0.77153 0.56366 0.15494 0.0
O493 O 0.7612 0.51619 0.1449 0.0
O494 O 0.78059 0.48357 0.24485 0.0
O495 O 0.74101 0.46317 0.19696 0.0
C496 C 0.68168 0.4854 1.1126 0.0
O497 O 0.68557 0.47474 0.16101 0.0
O498 O 0.6983 0.51065 1.10493 0.0
C499 C 0.70085 0.51975 0.28167 0.0
Tb500 Tb 0.37032 0.78077 0.18401 0.0
C501 C 0.37088 0.70953 0.22755 0.0
Tb502 Tb 0.32299 0.75878 0.22699 0.0
O503 O 0.40506 0.76794 0.23899 0.0
O504 O 0.36157 0.78095 0.27008 0.0
O505 O 0.37947 0.72739 0.18565 0.0
C506 C 0.26956 0.7402 0.26303 0.0
O507 O 0.34916 0.72026 0.25789 0.0
C508 C 0.32168 0.7497 1.11955 0.0
C509 C 0.32298 0.83222 0.22416 0.0
O510 O 0.29512 0.72925 0.28045 0.0
O511 O 0.27419 0.76275 0.22852 0.0
O512 O 0.31805 0.72735 0.15489 0.0
O513 O 0.32837 0.77481 0.14506 0.0
O514 O 0.30892 0.80741 0.24508 0.0
O515 O 0.34847 0.82782 0.19724 0.0
C516 C 0.40784 0.8061 1.11322 0.0
O517 O 0.40388 0.81655 0.16176 0.0
O518 O 0.39139 0.78076 1.10511 0.0
C519 C 0.38872 0.77142 0.28177 0.0
Tb520 Tb 0.71915 0.78096 0.33805 0.0
C521 C 0.71854 0.70968 0.29437 0.0
Tb522 Tb 0.76647 0.75889 0.29493 0.0
O523 O 0.68441 0.76809 0.28303 0.0
O524 O 0.7279 0.78107 0.25198 0.0
O525 O 0.70997 0.72758 0.33632 0.0
C526 C 0.81988 0.74028 0.25878 0.0
O527 O 0.74025 0.72035 0.26403 0.0
C528 C 0.76779 0.74984 0.40233 0.0
C529 C 0.7665 0.83234 0.29797 0.0
O530 O 0.79432 0.72939 0.24123 0.0
O531 O 0.81528 0.76278 0.29349 0.0
O532 O 0.7714 0.72747 0.3669 0.0
O533 O 0.76111 0.77495 0.37692 0.0
O534 O 0.78055 0.80751 0.27698 0.0
O535 O 0.74103 0.82798 0.32491 0.0
C536 C 0.68167 0.80633 0.409 0.0
O537 O 0.6856 0.81675 0.36048 0.0
O538 O 0.69814 0.78101 0.417 0.0
C539 C 0.70075 0.77153 0.24026 0.0
Tb540 Tb 0.37026 0.51027 0.33783 0.0
C541 C 0.37067 0.58149 0.29411 0.0
Tb542 Tb 0.3229 0.53214 0.29496 0.0
O543 O 0.40501 0.52307 0.28291 0.0
O544 O 0.36151 0.51015 0.25173 0.0
O545 O 0.37933 0.56367 0.33602 0.0
C546 C 0.26935 0.55049 0.25909 0.0
O547 O 0.34892 0.57072 0.2639 0.0
C548 C 0.32161 0.54123 0.40239 0.0
C549 C 0.32302 0.45868 0.29781 0.0
O550 O 0.29485 0.5616 0.24167 0.0
O551 O 0.27411 0.52793 0.2935 0.0
O552 O 0.31795 0.56358 0.36705 0.0
O553 O 0.32833 0.51614 0.37689 0.0
O554 O 0.30892 0.48347 0.27689 0.0
O555 O 0.34853 0.46314 0.32469 0.0
C556 C 0.40789 0.4854 0.40893 0.0
O557 O 0.40397 0.47473 0.36049 0.0
O558 O 0.39128 0.51065 0.41676 0.0
C559 C 0.38866 0.5197 0.24011 0.0
Tb560 Tb 0.0729 0.50806 1.04475 0.0
C561 C 0.0729 0.58156 1.04821 0.0
Tb562 Tb 0.12034 0.53019 1.08812 0.0
O563 O 0.06784 0.47658 1.11662 0.0
O564 O 0.07835 0.524 1.12686 0.0
O565 O 0.05886 0.55675 1.02713 0.0
C566 C 0.15784 0.55543 0.15919 0.0
O567 O 0.09841 0.5772 1.07511 0.0
C568 C 0.1385 0.52057 0.99018 0.0
C569 C 0.12084 0.45883 1.04438 0.0
O570 O 0.15398 0.56586 1.11064 0.0
O571 O 0.14128 0.53016 0.16712 0.0
O572 O 0.15492 0.5171 1.03287 0.0
O573 O 0.1115 0.53039 1.00221 0.0
O574 O 0.1295 0.47678 1.08624 0.0
O575 O 0.09907 0.46944 1.01409 0.0
C576 C 0.01944 0.48969 1.00847 0.0
O577 O 0.04499 0.47898 0.9905 0.0
O578 O 0.0241 0.51189 1.04369 0.0
C579 C 0.07155 0.49888 0.15214 0.0
Tb580 Tb 0.51664 0.28324 1.04485 0.0
C581 C 0.51665 0.20975 1.04812 0.0
Tb582 Tb 0.46918 0.26117 1.088 0.0
O583 O 0.52169 0.31473 1.11686 0.0
O584 O 0.51114 0.26733 1.12689 0.0
O585 O 0.53072 0.23455 1.02714 0.0
C586 C 0.43158 0.23586 0.15869 0.0
O587 O 0.49113 0.21415 1.07493 0.0
C588 C 0.45107 0.27073 0.99007 0.0
C589 C 0.46873 0.3325 1.04448 0.0
O590 O 0.43552 0.22547 1.11009 0.0
O591 O 0.44811 0.26113 0.1669 0.0
O592 O 0.43465 0.27427 1.03273 0.0
O593 O 0.47807 0.2609 1.00212 0.0
O594 O 0.46003 0.31458 1.08626 0.0
O595 O 0.49052 0.32185 1.01423 0.0
C596 C 0.5701 0.30164 1.00871 0.0
O597 O 0.54455 0.31233 0.99078 0.0
O598 O 0.56545 0.27942 1.0438 0.0
C599 C 0.51794 0.29244 0.15229 0.0
Tb600 Tb 0.07302 0.28145 0.97707 0.0
C601 C 0.07315 0.20795 0.97374 0.0
Tb602 Tb 0.12046 0.25943 0.93375 0.0
O603 O 0.06785 0.31289 0.90518 0.0
O604 O 0.07845 0.2655 0.89495 0.0
O605 O 0.05909 0.23275 0.99483 0.0
C606 C 0.15803 0.23437 0.86263 0.0
O607 O 0.09863 0.21236 0.9468 0.0
C608 C 0.13868 0.26912 1.03165 0.0
C609 C 0.12085 0.33078 0.97752 0.0
O610 O 0.1542 0.22388 0.91116 0.0
O611 O 0.14138 0.25957 0.85475 0.0
O612 O 0.15507 0.27257 0.98893 0.0
O613 O 0.11167 0.25926 1.01969 0.0
O614 O 0.12951 0.31286 0.93564 0.0
O615 O 0.09911 0.3201 1.00782 0.0
C616 C 0.01955 0.2997 1.01341 0.0
O617 O 0.04508 0.31067 1.03102 0.0
O618 O 0.02424 0.27732 0.97853 0.0
C619 C 0.07159 0.29059 0.86966 0.0
Tb620 Tb 0.5165 0.50976 0.97696 0.0
C621 C 0.51635 0.58324 0.9738 0.0
Tb622 Tb 0.46907 0.53169 0.93373 0.0
O623 O 0.52169 0.4783 0.90493 0.0
O624 O 0.51107 0.52567 0.89489 0.0
O625 O 0.53043 0.55847 0.99483 0.0
C626 C 0.4315 0.55666 0.86263 0.0
O627 O 0.49086 0.57879 0.94688 0.0
C628 C 0.45081 0.52206 1.03156 0.0
C629 C 0.46871 0.46039 0.97739 0.0
O630 O 0.43533 0.56721 0.91116 0.0
O631 O 0.44813 0.53144 0.85472 0.0
O632 O 0.43443 0.51861 0.98881 0.0
O633 O 0.47783 0.53191 1.01968 0.0
O634 O 0.46004 0.47826 0.93553 0.0
O635 O 0.49045 0.47112 1.00769 0.0
C636 C 0.56996 0.4915 1.01329 0.0
O637 O 0.54443 0.48047 1.03069 0.0
O638 O 0.56528 0.51394 0.97862 0.0
C639 C 0.51795 0.50059 0.8695 0.0
C640 C 0.27696 0.86768 0.22822 0.0
C641 C 0.30873 0.86464 0.22745 0.0
H642 H 0.23864 0.89961 0.22657 0.0
C643 C 0.32635 0.89276 0.22735 0.0
H644 H 0.26271 0.84646 0.22782 0.0
C645 C 0.31252 0.92318 0.22825 0.0
C646 C 0.28074 0.92622 0.22743 0.0
H647 H 0.35083 0.89125 0.22664 0.0
H648 H 0.32676 0.9444 0.22787 0.0
C649 C 0.26312 0.8981 0.2273 0.0
C650 C 0.76313 0.3982 0.22694 0.0
C651 C 0.78074 0.42633 0.22708 0.0
H652 H 0.76272 0.34657 0.22749 0.0
C653 C 0.81252 0.42328 0.2279 0.0
H654 H 0.73865 0.39972 0.2262 0.0
C655 C 0.82636 0.39285 0.22701 0.0
C656 C 0.80874 0.36473 0.22714 0.0
H657 H 0.82677 0.44449 0.22753 0.0
H658 H 0.85083 0.39133 0.22633 0.0
C659 C 0.77696 0.36778 0.22788 0.0
C660 C 0.27699 0.4232 0.2939 0.0
C661 C 0.30877 0.42625 0.29463 0.0
H662 H 0.23867 0.39127 0.29562 0.0
C663 C 0.32638 0.39812 0.29476 0.0
H664 H 0.26275 0.44442 0.29428 0.0
C665 C 0.31254 0.3677 0.29391 0.0
C666 C 0.28076 0.36465 0.29474 0.0
H667 H 0.35086 0.39964 0.29544 0.0
H668 H 0.32678 0.34648 0.29429 0.0
C669 C 0.26315 0.39278 0.29487 0.0
C670 C 0.81253 0.8678 0.29383 0.0
C671 C 0.78076 0.86476 0.29467 0.0
H672 H 0.85084 0.89974 0.29538 0.0
C673 C 0.76314 0.89288 0.2948 0.0
H674 H 0.82677 0.84658 0.2942 0.0
C675 C 0.77697 0.9233 0.29385 0.0
C676 C 0.80875 0.92634 0.29459 0.0
H677 H 0.73866 0.89137 0.29556 0.0
H678 H 0.76273 0.94452 0.29425 0.0
C679 C 0.82637 0.89822 0.2947 0.0
C680 C 0.57656 0.14388 1.0453 0.0
C681 C 0.55895 0.11575 1.04504 0.0
H682 H 0.57695 0.19552 1.04484 0.0
C683 C 0.52717 0.11878 1.04409 0.0
H684 H 0.60103 0.14237 1.04615 0.0
C685 C 0.51333 0.1492 1.04496 0.0
C686 C 0.53093 0.17733 1.04496 0.0
H687 H 0.51293 0.09757 1.04436 0.0
H688 H 0.48885 0.15071 1.04554 0.0
C689 C 0.56271 0.1743 1.04435 0.0
C690 C 0.01301 0.64743 1.0451 0.0
C691 C 0.03062 0.67557 1.04494 0.0
H692 H 0.01262 0.59579 1.04461 0.0
C693 C 0.0624 0.67253 1.04417 0.0
H694 H -0.01147 0.64894 1.0458 0.0
C695 C 0.07624 0.64211 1.04512 0.0
C696 C 0.05863 0.61398 1.04501 0.0
H697 H 0.07663 0.69375 1.04453 0.0
H698 H 0.10072 0.64061 1.04583 0.0
C699 C 0.02685 0.61701 1.04422 0.0
C700 C 0.57621 0.64914 0.97684 0.0
C701 C 0.5586 0.67727 0.9769 0.0
H702 H 0.57662 0.59751 0.97745 0.0
C703 C 0.52682 0.67423 0.97766 0.0
H704 H 0.60069 0.65066 0.97615 0.0
C705 C 0.51298 0.6438 0.97678 0.0
C706 C 0.5306 0.61568 0.97698 0.0
H707 H 0.51258 0.69544 0.97724 0.0
H708 H 0.48851 0.64229 0.97605 0.0
C709 C 0.56237 0.61872 0.97778 0.0
C710 C 0.02713 0.17247 0.97783 0.0
C711 C 0.05891 0.17552 0.97695 0.0
H712 H -0.01119 0.14054 0.97634 0.0
C713 C 0.07652 0.14739 0.97675 0.0
H714 H 0.01289 0.19369 0.97752 0.0
C715 C 0.06268 0.11697 0.9777 0.0
C716 C 0.0309 0.11393 0.97703 0.0
H717 H 0.101 0.1489 0.97596 0.0
H718 H 0.07692 0.09575 0.97727 0.0
C719 C 0.01329 0.14205 0.97696 0.0
C720 C 0.32636 0.39279 0.72722 0.0
C721 C 0.30874 0.36467 0.72733 0.0
H722 H 0.32677 0.44443 0.72774 0.0
C723 C 0.27697 0.36771 0.72809 0.0
H724 H 0.35084 0.39128 0.72652 0.0
C725 C 0.26313 0.39813 0.72716 0.0
C726 C 0.28075 0.42625 0.72729 0.0
H727 H 0.26273 0.34649 0.72769 0.0
H728 H 0.23866 0.39964 0.72642 0.0
C729 C 0.31253 0.42322 0.72812 0.0
C730 C 0.76315 0.89824 0.72712 0.0
C731 C 0.78076 0.92636 0.72725 0.0
H732 H 0.76275 0.8466 0.72766 0.0
C733 C 0.81254 0.92332 0.72805 0.0
H734 H 0.73867 0.89975 0.72639 0.0
C735 C 0.82638 0.8929 0.72715 0.0
C736 C 0.80877 0.86477 0.72728 0.0
H737 H 0.82679 0.94453 0.72768 0.0
H738 H 0.85086 0.89138 0.72645 0.0
C739 C 0.77699 0.86781 0.72804 0.0
C740 C 0.32637 0.89817 0.79487 0.0
C741 C 0.30876 0.92629 0.79474 0.0
H742 H 0.32677 0.84653 0.79437 0.0
C743 C 0.27698 0.92324 0.79402 0.0
H744 H 0.35085 0.89968 0.79554 0.0
C745 C 0.26314 0.89281 0.79497 0.0
C746 C 0.28075 0.86469 0.79483 0.0
H747 H 0.26273 0.94445 0.79441 0.0
H748 H 0.23866 0.8913 0.79572 0.0
C749 C 0.31253 0.86774 0.794 0.0
C750 C 0.76312 0.39292 0.79465 0.0
C751 C 0.78073 0.3648 0.79453 0.0
H752 H 0.76272 0.44456 0.79409 0.0
C753 C 0.81251 0.36783 0.79367 0.0
H754 H 0.73864 0.39141 0.79541 0.0
C755 C 0.82635 0.39825 0.79453 0.0
C756 C 0.80874 0.42638 0.79442 0.0
H757 H 0.82675 0.34661 0.79404 0.0
H758 H 0.85083 0.39976 0.7952 0.0
C759 C 0.77696 0.42334 0.79369 0.0
C760 C 0.57652 0.64384 0.54517 0.0
C761 C 0.55891 0.61571 0.54494 0.0
H762 H 0.57692 0.69548 0.54472 0.0
C763 C 0.52714 0.61875 0.54406 0.0
H764 H 0.601 0.64233 0.54596 0.0
C765 C 0.51329 0.64917 0.54497 0.0
C766 C 0.5309 0.6773 0.54494 0.0
H767 H 0.5129 0.59753 0.54435 0.0
H768 H 0.48882 0.65067 0.54561 0.0
C769 C 0.56268 0.67426 0.54426 0.0
C770 C 0.07622 0.14209 0.54516 0.0
C771 C 0.05861 0.11396 0.54508 0.0
H772 H 0.07662 0.19372 0.5445 0.0
C773 C 0.02683 0.11699 0.54428 0.0
H774 H 0.10069 0.14058 0.54588 0.0
C775 C 0.01299 0.14742 0.54511 0.0
C776 C 0.0306 0.17555 0.54492 0.0
H777 H 0.01259 0.09577 0.54469 0.0
H778 H -0.01149 0.14893 0.54581 0.0
C779 C 0.06238 0.17251 0.54416 0.0
C780 C 0.52679 0.17428 0.4776 0.0
C781 C 0.55857 0.17732 0.47686 0.0
H782 H 0.48848 0.14234 0.47602 0.0
C783 C 0.57618 0.14919 0.47686 0.0
H784 H 0.51256 0.19549 0.47713 0.0
C785 C 0.56234 0.11877 0.47785 0.0
C786 C 0.53056 0.11572 0.47703 0.0
H787 H 0.60066 0.1507 0.47619 0.0
H788 H 0.57658 0.09755 0.47757 0.0
C789 C 0.51295 0.14385 0.47677 0.0
C790 C 0.07649 0.64743 0.47673 0.0
C791 C 0.05888 0.67556 0.47692 0.0
H792 H 0.07689 0.59579 0.47723 0.0
C793 C 0.0271 0.67251 0.47775 0.0
H794 H 0.10097 0.64894 0.47599 0.0
C795 C 0.01327 0.64209 0.47684 0.0
C796 C 0.03087 0.61396 0.47692 0.0
H797 H 0.01286 0.69373 0.47742 0.0
H798 H -0.01121 0.64058 0.47617 0.0
C799 C 0.06265 0.61701 0.47764 0.0
C800 C 0.15513 0.03068 0.33981 0.0
C801 C 0.18553 1.0199 0.3359 0.0
H802 H 0.11624 0.03927 0.39045 0.0
C803 C 0.19978 1.00929 0.38299 0.0
H804 H 0.14328 0.03919 0.30438 0.0
C805 C 0.18404 1.00933 0.43232 0.0
C806 C 0.15365 1.02013 0.43624 0.0
H807 H 0.22293 1.00076 0.38171 0.0
H808 H 0.19589 1.00081 0.46773 0.0
C809 C 0.13939 0.03074 0.38916 0.0
C810 C 0.90527 0.28065 0.43232 0.0
C811 C -0.06434 0.26983 0.43609 0.0
H812 H 0.8664 0.28949 0.3818 0.0
C813 C -0.05007 0.25946 0.38883 0.0
H814 H 0.8934 0.28898 0.46787 0.0
C815 C -0.06578 0.25978 0.33946 0.0
C816 C 0.90382 0.2706 0.3357 0.0
H817 H -0.02691 0.25093 0.38999 0.0
H818 H -0.05392 0.25146 0.30389 0.0
C819 C 0.88956 0.28095 0.38296 0.0
C820 C 0.18423 0.2806 1.08959 0.0
C821 C 0.15384 0.26978 1.08574 0.0
H822 H 0.22308 0.28944 0.14018 0.0
C823 C 0.13956 0.2594 1.13294 0.0
H824 H 0.1961 0.28895 1.05409 0.0
C825 C 0.15526 0.25971 0.18233 0.0
C826 C 0.18565 0.27053 0.18616 0.0
H827 H 0.1164 0.25086 1.13172 0.0
H828 H 0.14339 0.25138 0.21784 0.0
C829 C 0.19993 0.2809 0.13896 0.0
C830 C 0.88974 1.0093 0.1391 0.0
C831 C 0.90396 1.02 0.1862 0.0
H832 H 0.89367 1.0007 1.05435 0.0
C833 C -0.06565 0.03082 0.18233 0.0
H834 H 0.8666 1.00073 0.14034 0.0
C835 C -0.0499 0.03083 1.133 0.0
C836 C -0.06412 1.02012 1.0859 0.0
H837 H -0.05383 0.0394 0.21778 0.0
H838 H -0.02676 0.0394 1.13174 0.0
C839 C 0.9055 1.00929 1.08979 0.0
C840 C 0.63959 0.03168 0.88911 0.0
C841 C 0.6539 0.02144 0.93636 0.0
H842 H 0.64338 0.03953 0.80416 0.0
C843 C 0.68431 1.01067 0.93256 0.0
H844 H 0.61642 0.04017 0.89029 0.0
C845 C 0.7 1.0103 0.88317 0.0
C846 C 0.68569 1.02054 0.83592 0.0
H847 H 0.69621 1.00243 0.96811 0.0
H848 H 0.72317 1.00181 0.882 0.0
C849 C 0.65528 0.0313 0.83971 0.0
C850 C 0.90529 0.78068 0.93243 0.0
C851 C -0.06432 0.76984 0.93621 0.0
H852 H 0.86643 0.78955 0.8819 0.0
C853 C -0.05005 0.75947 0.88896 0.0
H854 H 0.89342 0.78903 0.96798 0.0
C855 C -0.06576 0.7598 0.83958 0.0
C856 C 0.90385 0.77063 0.83581 0.0
H857 H -0.0269 0.75092 0.89013 0.0
H858 H -0.0539 0.75146 0.80402 0.0
C859 C 0.88958 0.78099 0.88306 0.0
C860 C 0.68397 0.78193 1.08991 0.0
C861 C 0.6536 0.77107 1.08593 0.0
H862 H 0.72286 0.79049 0.14054 0.0
C863 C 0.63939 0.7603 1.13295 0.0
H864 H 0.69579 0.79058 1.05454 0.0
C865 C 0.65515 0.76027 0.18228 0.0
C866 C 0.68552 0.77112 0.18624 0.0
H867 H 0.61626 0.7517 1.13161 0.0
H868 H 0.64334 0.75164 0.21767 0.0
C869 C 0.69973 0.78189 0.13922 0.0
C870 C 0.18405 0.50932 0.93216 0.0
C871 C 0.15366 0.52013 0.9361 0.0
H872 H 0.22293 0.50073 0.88155 0.0
C873 C 0.13942 0.53079 0.88903 0.0
H874 H 0.19589 0.50076 0.96757 0.0
C875 C 0.15516 0.53075 0.83968 0.0
C876 C 0.18555 0.51994 0.83577 0.0
H877 H 0.11628 0.53934 0.89033 0.0
H878 H 0.14332 0.53928 0.80426 0.0
C879 C 0.19979 0.50929 0.88284 0.0
C880 C 0.18423 0.78063 0.58961 0.0
C881 C 0.15384 0.76981 0.58576 0.0
H882 H 0.22308 0.78947 0.6402 0.0
C883 C 0.13956 0.75943 0.63296 0.0
H884 H 0.1961 0.78898 0.55411 0.0
C885 C 0.15526 0.75975 0.68235 0.0
C886 C 0.18565 0.77056 0.68618 0.0
H887 H 0.1164 0.75089 0.63174 0.0
H888 H 0.14339 0.75141 0.71787 0.0
C889 C 0.19993 0.78093 0.63898 0.0
C890 C -0.04992 0.53088 0.6328 0.0
C891 C -0.06414 0.52016 0.5857 0.0
H892 H -0.05385 0.53946 0.71757 0.0
C893 C 0.90548 0.50931 0.58959 0.0
H894 H -0.02678 0.53946 0.63153 0.0
C895 C 0.88973 0.50933 0.6389 0.0
C896 C 0.90395 0.52004 0.686 0.0
H897 H 0.89366 0.50071 0.55416 0.0
H898 H 0.86659 0.50074 0.64016 0.0
C899 C -0.06567 0.53087 0.68213 0.0
C900 C 0.65525 0.53124 0.33951 0.0
C901 C 0.68567 0.5205 0.33573 0.0
H902 H 0.61639 0.5401 0.39008 0.0
C903 C 0.69998 0.51028 0.38299 0.0
H904 H 0.64335 0.53945 0.30395 0.0
C905 C 0.6843 0.51066 0.43237 0.0
C906 C 0.65388 0.52141 0.43617 0.0
H907 H 0.72316 0.50181 0.38182 0.0
H908 H 0.6962 0.50243 0.46793 0.0
C909 C 0.63956 0.53163 0.38891 0.0
C910 C 0.63938 0.26032 0.63279 0.0
C911 C 0.65359 0.2711 0.58578 0.0
H912 H 0.64332 0.25166 0.71751 0.0
C913 C 0.68396 0.28198 0.58977 0.0
H914 H 0.61625 0.25171 0.63144 0.0
C915 C 0.69971 0.28194 0.63909 0.0
C916 C 0.6855 0.27116 0.6861 0.0
H917 H 0.69578 0.29063 0.55441 0.0
H918 H 0.72283 0.29055 0.64042 0.0
C919 C 0.65513 0.2603 0.68213 0.0
C920 C 0.45009 0.26023 0.88896 0.0
C921 C 0.43591 0.27109 0.93599 0.0
H922 H 0.44611 0.25147 0.80423 0.0
C923 C 0.40555 0.28201 0.93205 0.0
H924 H 0.4732 0.25159 0.89027 0.0
C925 C 0.38979 0.28193 0.88275 0.0
C926 C 0.40396 0.27107 0.83572 0.0
H927 H 0.39376 0.29072 0.96743 0.0
H928 H 0.36667 0.29057 0.88146 0.0
C929 C 0.43432 0.26017 0.83964 0.0
C930 C 0.38951 1.01025 0.63883 0.0
C931 C 0.40382 1.02049 0.68614 0.0
H932 H 0.39332 1.00237 0.55387 0.0
C933 C 0.43423 0.03125 0.68241 0.0
H934 H 0.36634 1.00176 0.63995 0.0
C935 C 0.44993 0.03164 0.63303 0.0
C936 C 0.43562 0.02139 0.58573 0.0
H937 H 0.44612 0.03949 0.71802 0.0
H938 H 0.4731 0.04013 0.63191 0.0
C939 C 0.40521 1.01062 0.58946 0.0
C940 C 0.43432 0.76017 0.33969 0.0
C941 C 0.40395 0.77105 0.33578 0.0
H942 H 0.47321 0.75161 0.39031 0.0
C943 C 0.38977 0.78187 0.38283 0.0
H944 H 0.44611 0.7515 0.30428 0.0
C945 C 0.40554 0.78195 0.43213 0.0
C946 C 0.4359 0.77106 0.43606 0.0
H947 H 0.36664 0.79049 0.38154 0.0
H948 H 0.39374 0.79064 0.46752 0.0
C949 C 0.45009 0.76023 0.38901 0.0
C950 C 0.38955 0.51021 0.13874 0.0
C951 C 0.40385 0.52044 0.18606 0.0
H952 H 0.39334 0.50235 1.05378 0.0
C953 C 0.43427 0.5312 0.18233 0.0
H954 H 0.36638 0.50173 0.13987 0.0
C955 C 0.44996 0.53159 1.13295 0.0
C956 C 0.43565 0.52136 1.08564 0.0
H957 H 0.44616 0.53943 0.21794 0.0
H958 H 0.47313 0.54008 1.13182 0.0
C959 C 0.40524 0.51059 1.08937 0.0
C960 C 0.28791 1.01265 1.03674 0.0
C961 C 0.28108 0.04161 1.06375 0.0
H962 H 0.30643 0.98982 0.96626 0.0
C963 C 0.28807 0.07067 1.03723 0.0
H964 H 0.28306 0.98976 1.05569 0.0
C965 C 0.30117 0.0707 0.98518 0.0
C966 C 0.30825 0.04168 0.9585 0.0
H967 H 0.28326 0.09345 1.05664 0.0
H968 H 0.30592 0.09351 0.96591 0.0
C969 C 0.30151 1.01268 0.98534 0.0
C970 C 0.80113 0.2203 1.03675 0.0
C971 C 0.8082 0.24932 1.06344 0.0
H972 H 0.78322 0.19755 0.96528 0.0
C973 C 0.80147 0.27832 1.0366 0.0
H974 H 0.80588 0.19749 1.05603 0.0
C975 C 0.78787 0.27836 0.98519 0.0
C976 C 0.78105 0.2494 0.95817 0.0
H977 H 0.80638 0.30118 1.05569 0.0
H978 H 0.78302 0.30124 0.96624 0.0
C979 C 0.78804 0.22034 0.98469 0.0
C980 C 0.28825 0.22021 0.48479 0.0
C981 C 0.28122 0.24925 0.45824 0.0
H982 H 0.30613 0.19743 0.55614 0.0
C983 C 0.288 0.27823 0.48523 0.0
H984 H 0.28348 0.19741 0.4654 0.0
C985 C 0.3016 0.27824 0.53664 0.0
C986 C 0.30838 0.24927 0.56351 0.0
H987 H 0.28312 0.3011 0.46625 0.0
H988 H 0.30648 0.30112 0.5557 0.0
C989 C 0.30135 0.22022 0.53685 0.0
C990 C 0.80136 0.07078 0.48513 0.0
C991 C 0.80839 0.04174 0.45847 0.0
H992 H 0.78349 0.09359 0.55657 0.0
C993 C 0.8016 1.01276 0.48533 0.0
H994 H 0.80615 0.09357 0.46584 0.0
C995 C 0.788 1.01277 0.53674 0.0
C996 C 0.78122 0.04175 0.56372 0.0
H997 H 0.80648 0.98989 0.46627 0.0
H998 H 0.78311 0.9899 0.55571 0.0
C999 C 0.78826 0.07079 0.53718 0.0
C1000 C 0.55154 0.02919 0.23533 0.0
C1001 C 0.55831 1.00022 0.2083 0.0
H1002 H 0.53311 0.05204 0.30586 0.0
C1003 C 0.55132 0.97117 0.23485 0.0
H1004 H 0.55639 0.05207 0.21635 0.0
C1005 C 0.53829 0.97115 0.28696 0.0
C1006 C 0.53126 1.00019 0.31366 0.0
H1007 H 0.5561 0.94838 0.21544 0.0
H1008 H 0.53354 0.94835 0.30626 0.0
C1009 C 0.53799 0.02917 0.28678 0.0
C1010 C 0.03825 0.82014 0.23507 0.0
C1011 C 0.03123 0.7911 0.20837 0.0
H1012 H 0.05607 0.84292 0.30658 0.0
C1013 C 0.03796 0.76212 0.23526 0.0
H1014 H 0.0335 0.84293 0.21576 0.0
C1015 C 0.05152 0.76211 0.28671 0.0
C1016 C 0.05829 0.79108 0.31373 0.0
H1017 H 0.03308 0.73925 0.21617 0.0
H1018 H 0.05638 0.73923 0.30568 0.0
C1019 C 0.0513 0.82013 0.28717 0.0
C1020 C 0.55128 0.8219 0.78719 0.0
C1021 C 0.55827 0.79284 0.81374 0.0
H1022 H 0.53351 0.8447 0.71576 0.0
C1023 C 0.55151 0.76387 0.78671 0.0
H1024 H 0.55605 0.84468 0.80661 0.0
C1025 C 0.53797 0.76388 0.73526 0.0
C1026 C 0.53124 0.79286 0.70837 0.0
H1027 H 0.55636 0.741 0.80569 0.0
H1028 H 0.5331 0.74101 0.71617 0.0
C1029 C 0.53826 0.82191 0.73507 0.0
C1030 C 0.03828 0.96932 0.78698 0.0
C1031 C 0.03126 0.99836 0.81367 0.0
H1032 H 0.05607 0.94655 0.71544 0.0
C1033 C 0.03798 0.02734 0.78679 0.0
H1034 H 0.03353 0.94652 0.80628 0.0
C1035 C 0.05152 0.02736 0.73534 0.0
C1036 C 0.05828 0.99839 0.70831 0.0
H1037 H 0.03311 0.05021 0.80588 0.0
H1038 H 0.05636 0.05023 0.71637 0.0
C1039 C 0.0513 0.96933 0.73486 0.0
C1040 C 0.28792 0.51265 0.53661 0.0
C1041 C 0.2811 0.54162 0.56361 0.0
H1042 H 0.30644 0.4898 0.46614 0.0
C1043 C 0.2881 0.57067 0.53707 0.0
H1044 H 0.28307 0.48977 0.55557 0.0
C1045 C 0.3012 0.57069 0.48502 0.0
C1046 C 0.30827 0.54166 0.45835 0.0
H1047 H 0.28329 0.59346 0.55647 0.0
H1048 H 0.30595 0.59349 0.46574 0.0
C1049 C 0.30153 0.51267 0.48521 0.0
C1050 C 0.80119 0.72031 0.5369 0.0
C1051 C 0.80826 0.74934 0.56357 0.0
H1052 H 0.78329 0.69754 0.46544 0.0
C1053 C 0.80152 0.77833 0.53671 0.0
H1054 H 0.80594 0.69751 0.55619 0.0
C1055 C 0.78792 0.77835 0.48529 0.0
C1056 C 0.78111 0.74938 0.4583 0.0
H1057 H 0.80643 0.80119 0.55578 0.0
H1058 H 0.78307 0.80123 0.46633 0.0
C1059 C 0.7881 0.72032 0.48484 0.0
C1060 C 0.28797 0.77824 0.98531 0.0
C1061 C 0.2812 0.74926 0.95831 0.0
H1062 H 0.30644 0.80111 1.05581 0.0
C1063 C 0.28824 0.72021 0.98484 0.0
H1064 H 0.28309 0.80111 0.96635 0.0
C1065 C 0.30133 0.72021 1.0369 0.0
C1066 C 0.30835 0.74926 1.06358 0.0
H1067 H 0.28347 0.69742 0.96543 0.0
H1068 H 0.30611 0.69742 1.05618 0.0
C1069 C 0.30157 0.77824 1.03673 0.0
C1070 C 0.80137 0.57079 0.98496 0.0
C1071 C 0.80839 0.54174 0.95829 0.0
H1072 H 0.78349 0.59358 1.05641 0.0
C1073 C 0.80161 0.51276 0.98514 0.0
H1074 H 0.80615 0.59358 0.96568 0.0
C1075 C 0.788 0.51276 1.03655 0.0
C1076 C 0.78123 0.54174 1.06354 0.0
H1077 H 0.80648 0.48989 0.96607 0.0
H1078 H 0.78311 0.48989 1.0555 0.0
C1079 C 0.78827 0.57078 1.03702 0.0
C1080 C 0.53828 0.47112 0.78681 0.0
C1081 C 0.53125 0.50015 0.8135 0.0
H1082 H 0.55609 0.44834 0.71529 0.0
C1083 C 0.53799 0.52914 0.78663 0.0
H1084 H 0.53353 0.44832 0.8061 0.0
C1085 C 0.55154 0.52915 0.73518 0.0
C1086 C 0.55831 0.50018 0.70816 0.0
H1087 H 0.53311 0.552 0.80571 0.0
H1088 H 0.5564 0.55203 0.71621 0.0
C1089 C 0.55132 0.47113 0.7347 0.0
C1090 C 0.0513 0.3201 0.78711 0.0
C1091 C 0.0583 0.29105 0.81366 0.0
H1092 H 0.03351 0.34291 0.7157 0.0
C1093 C 0.05152 0.26208 0.78663 0.0
H1094 H 0.05608 0.34288 0.80652 0.0
C1095 C 0.03797 0.26209 0.73518 0.0
C1096 C 0.03123 0.29107 0.7083 0.0
H1097 H 0.05638 0.2392 0.8056 0.0
H1098 H 0.03308 0.23922 0.71609 0.0
C1099 C 0.03826 0.32011 0.735 0.0
C1100 C 0.53825 0.32194 0.23498 0.0
C1101 C 0.53123 0.2929 0.20829 0.0
H1102 H 0.55606 0.34472 0.30651 0.0
C1103 C 0.53795 0.26392 0.23517 0.0
H1104 H 0.5335 0.34473 0.21567 0.0
C1105 C 0.5515 0.2639 0.28662 0.0
C1106 C 0.55827 0.29288 0.31364 0.0
H1107 H 0.53308 0.24105 0.21609 0.0
H1108 H 0.55635 0.24103 0.30559 0.0
C1109 C 0.55128 0.32193 0.28709 0.0
C1110 C 0.05131 0.46936 0.2347 0.0
C1111 C 0.05829 0.49841 0.20815 0.0
H1112 H 0.03354 0.44655 0.30613 0.0
C1113 C 0.05153 0.52738 0.23517 0.0
H1114 H 0.05607 0.44657 0.21528 0.0
C1115 C 0.038 0.52737 0.28663 0.0
C1116 C 0.03127 0.49839 0.31351 0.0
H1117 H 0.05638 0.55026 0.2162 0.0
H1118 H 0.03313 0.55024 0.30571 0.0
C1119 C 0.03829 0.46935 0.28682 0.0
C1120 C 0.20377 0.15277 0.31639 0.0
C1121 C 0.20588 0.17774 0.2789 0.0
H1122 H 0.20513 0.10178 0.32852 0.0
C1123 C 0.20388 0.1701 0.22343 0.0
H1124 H 0.20555 0.15778 0.35912 0.0
C1125 C 0.2038 0.13802 0.20564 0.0
C1126 C 0.20576 0.11305 0.24315 0.0
H1127 H 0.2054 0.18901 0.19352 0.0
H1128 H 0.20563 0.13301 0.16292 0.0
C1129 C 0.20372 0.12069 0.2986 0.0
C1130 C 0.88551 0.13827 0.31648 0.0
C1131 C 0.88365 0.11319 0.27904 0.0
H1132 H 0.88382 0.18928 0.32849 0.0
C1133 C 0.88574 0.12071 0.22357 0.0
H1134 H 0.88364 0.13335 0.35921 0.0
C1135 C 0.88566 0.15274 0.2057 0.0
C1136 C 0.88346 0.1778 0.24313 0.0
H1137 H 0.88439 0.10171 0.19369 0.0
H1138 H 0.88392 0.15764 0.16295 0.0
C1139 C 0.88541 0.1703 0.29862 0.0
C1140 C 0.63579 0.88915 0.95577 0.0
C1141 C 0.63367 0.86412 0.99316 0.0
H1142 H 0.63441 0.94016 0.94385 0.0
C1143 C 0.63565 0.87169 1.04866 0.0
H1144 H 0.63401 0.8842 0.91302 0.0
C1145 C 0.63569 0.90374 1.06659 0.0
C1146 C 0.63374 0.92877 1.02919 0.0
H1147 H 0.63412 0.85274 1.07849 0.0
H1148 H 0.63384 0.90869 1.10933 0.0
C1149 C 0.63583 0.9212 0.9737 0.0
C1150 C -0.04618 0.88763 1.06652 0.0
C1151 C -0.04418 0.86252 1.02916 0.0
H1152 H -0.04466 0.93866 1.07836 0.0
C1153 C -0.04624 0.86997 0.97366 0.0
H1154 H -0.04434 0.88277 1.10926 0.0
C1155 C -0.04623 0.90198 0.95568 0.0
C1156 C -0.04415 0.92709 0.99304 0.0
H1157 H -0.0448 0.85095 0.94384 0.0
H1158 H -0.04443 0.90684 0.91293 0.0
C1159 C -0.04616 0.91964 1.04854 0.0
C1160 C 0.20377 0.65279 0.81628 0.0
C1161 C 0.20591 0.67777 0.77881 0.0
H1162 H 0.20512 0.60179 0.82837 0.0
C1163 C 0.20393 0.67015 0.72334 0.0
H1164 H 0.20554 0.65779 0.85902 0.0
C1165 C 0.20385 0.63807 0.70552 0.0
C1166 C 0.20579 0.61308 0.74301 0.0
H1167 H 0.20547 0.68907 0.69345 0.0
H1168 H 0.2057 0.63307 0.6628 0.0
C1169 C 0.20372 0.62072 0.79846 0.0
C1170 C 0.88569 0.6528 0.70566 0.0
C1171 C 0.88352 0.67784 0.74311 0.0
H1172 H 0.88438 0.60178 0.69358 0.0
C1173 C 0.88548 0.67032 0.79859 0.0
H1174 H 0.88393 0.65772 0.66292 0.0
C1175 C 0.88557 0.63828 0.81642 0.0
C1176 C 0.88367 0.61322 0.77895 0.0
H1177 H 0.88391 0.68929 0.82848 0.0
H1178 H 0.8837 0.63335 0.85915 0.0
C1179 C 0.88575 0.62075 0.72349 0.0
C1180 C 0.63577 0.37168 0.54838 0.0
C1181 C 0.63374 0.36413 0.49288 0.0
H1182 H 0.63397 0.40867 0.60908 0.0
C1183 C 0.6358 0.38917 0.45551 0.0
H1184 H 0.63428 0.35272 0.5782 0.0
C1185 C 0.63581 0.42122 0.47346 0.0
C1186 C 0.63378 0.42877 0.52896 0.0
H1187 H 0.63398 0.38423 0.41276 0.0
H1188 H 0.63436 0.44018 0.44363 0.0
C1189 C 0.63579 0.40373 0.56633 0.0
C1190 C -0.04616 0.38764 0.56631 0.0
C1191 C -0.04413 0.36253 0.52896 0.0
H1192 H -0.04469 0.43867 0.57816 0.0
C1193 C -0.04615 0.36998 0.47345 0.0
H1194 H -0.04435 0.38277 0.60906 0.0
C1195 C -0.04616 0.40199 0.45548 0.0
C1196 C -0.04412 0.4271 0.49284 0.0
H1197 H -0.04469 0.35096 0.44364 0.0
H1198 H -0.04433 0.40685 0.41273 0.0
C1199 C -0.04616 0.41965 0.54834 0.0
C1200 C 0.70364 0.13822 0.70592 0.0
C1201 C 0.70594 0.11326 0.7434 0.0
H1202 H 0.70481 0.18922 0.69377 0.0
C1203 C 0.70405 0.1209 0.79888 0.0
H1204 H 0.70532 0.13321 0.66318 0.0
C1205 C 0.70392 0.15297 0.81666 0.0
C1206 C 0.70569 0.17796 0.77914 0.0
H1207 H 0.70571 0.102 0.82878 0.0
H1208 H 0.70585 0.158 0.85937 0.0
C1209 C 0.70353 0.1703 0.7237 0.0
C1210 C 0.38546 0.15275 0.70527 0.0
C1211 C 0.38368 0.17783 0.74273 0.0
H1212 H 0.3837 0.10174 0.69327 0.0
C1213 C 0.38583 0.17031 0.79819 0.0
H1214 H 0.38354 0.15767 0.66256 0.0
C1215 C 0.38573 0.13827 0.81606 0.0
C1216 C 0.38346 0.11321 0.77864 0.0
H1217 H 0.38454 0.1893 0.82807 0.0
H1218 H 0.38404 0.13337 0.85881 0.0
C1219 C 0.38535 0.12071 0.72314 0.0
C1220 C 0.13579 0.87005 0.54845 0.0
C1221 C 0.13375 0.8625 0.49295 0.0
H1222 H 0.13396 0.90703 0.60916 0.0
C1223 C 0.13578 0.88754 0.45558 0.0
H1224 H 0.13432 0.85109 0.57827 0.0
C1225 C 0.13577 0.91959 0.47354 0.0
C1226 C 0.13374 0.92714 0.52904 0.0
H1227 H 0.13396 0.88261 0.41284 0.0
H1228 H 0.13429 0.93855 0.44372 0.0
C1229 C 0.13579 0.9021 0.56641 0.0
C1230 C 0.45386 0.8716 0.47351 0.0
C1231 C 0.45588 0.86415 0.52902 0.0
H1232 H 0.45567 0.90847 0.41279 0.0
C1233 C 0.45383 0.88926 0.56637 0.0
H1234 H 0.45535 0.85258 0.4437 0.0
C1235 C 0.45382 0.92128 0.5484 0.0
C1236 C 0.45586 0.92873 0.4929 0.0
H1237 H 0.45564 0.8844 0.60912 0.0
H1238 H 0.45528 0.94029 0.57822 0.0
C1239 C 0.45385 0.90362 0.45554 0.0
C1240 C 0.70369 0.63821 0.20587 0.0
C1241 C 0.70596 0.61323 0.24333 0.0
H1242 H 0.70489 0.68921 0.19379 0.0
C1243 C 0.70407 0.62085 0.29881 0.0
H1244 H 0.70538 0.63322 0.16313 0.0
C1245 C 0.70396 0.65292 0.31664 0.0
C1246 C 0.70575 0.67792 0.27915 0.0
H1247 H 0.70572 0.60193 0.3287 0.0
H1248 H 0.70588 0.65792 0.35935 0.0
C1249 C 0.70359 0.67028 0.2237 0.0
C1250 C 0.38541 0.62069 0.22318 0.0
C1251 C 0.3835 0.61318 0.27867 0.0
H1252 H 0.38361 0.65765 0.16261 0.0
C1253 C 0.38572 0.63823 0.31611 0.0
H1254 H 0.38381 0.60172 0.1933 0.0
C1255 C 0.38579 0.67027 0.29826 0.0
C1256 C 0.38367 0.6778 0.2428 0.0
H1257 H 0.384 0.63332 0.35885 0.0
H1258 H 0.38446 0.68925 0.32816 0.0
C1259 C 0.38551 0.65273 0.20534 0.0
C1260 C 0.13579 0.41957 0.97351 0.0
C1261 C 0.13373 0.42713 1.029 0.0
H1262 H 0.13398 0.38257 0.91282 0.0
C1263 C 0.13574 0.4021 1.06639 0.0
H1264 H 0.13434 0.43853 0.94368 0.0
C1265 C 0.13572 0.37004 1.04846 0.0
C1266 C 0.13372 0.36248 0.99296 0.0
H1267 H 0.1339 0.40705 1.10913 0.0
H1268 H 0.13423 0.35109 1.07829 0.0
C1269 C 0.13578 0.38751 0.95557 0.0
C1270 C 0.45376 0.37159 0.97353 0.0
C1271 C 0.45582 0.36415 1.02904 0.0
H1272 H 0.45557 0.40844 0.91278 0.0
C1273 C 0.45382 0.38928 1.06638 0.0
H1274 H 0.45521 0.35256 0.94373 0.0
C1275 C 0.45383 0.42129 1.04838 0.0
C1276 C 0.45584 0.42872 0.99287 0.0
H1277 H 0.45566 0.38443 1.10913 0.0
H1278 H 0.45532 0.44031 1.07819 0.0
C1279 C 0.45377 0.4036 0.95553 0.0
C1280 C 0.13182 0.95913 1.10159 0.0
C1281 C 0.15631 0.97591 1.07916 0.0
H1282 H 0.08406 0.95075 1.09759 0.0
C1283 C 0.15351 0.9907 1.02887 0.0
H1284 H 0.13382 0.94726 0.14026 0.0
C1285 C 0.12529 0.9928 1.00491 0.0
C1286 C 0.09994 0.98005 1.03124 0.0
H1287 H 0.17241 1.00328 1.01067 0.0
H1288 H 0.12298 1.00658 0.9681 0.0
C1289 C 0.10345 0.96131 1.07758 0.0
C1290 C -0.03563 0.2965 1.00508 0.0
C1291 C -0.01029 0.30937 1.03132 0.0
H1292 H 0.9172 0.28624 1.01071 0.0
C1293 C -0.01381 0.32841 1.07741 0.0
H1294 H -0.03332 0.28248 0.96845 0.0
C1295 C -0.04221 0.33085 1.10123 0.0
C1296 C -0.06673 0.31403 1.07889 0.0
H1297 H 0.00559 0.33906 1.09734 0.0
H1298 H -0.04422 0.34299 0.13973 0.0
C1299 C -0.06389 0.29887 1.02884 0.0
C1300 C 0.13171 0.33097 0.42093 0.0
C1301 C 0.15624 0.31419 0.44321 0.0
H1302 H 0.08391 0.3391 0.42483 0.0
C1303 C 0.15341 0.29903 0.4932 0.0
H1304 H 0.13372 0.34311 0.3825 0.0
C1305 C 0.12515 0.29661 0.51693 0.0
C1306 C 0.0998 0.30943 0.49072 0.0
H1307 H 0.17234 0.28644 0.51128 0.0
H1308 H 0.12285 0.28259 0.55348 0.0
C1309 C 0.10331 0.32848 0.44473 0.0
C1310 C -0.06397 0.99082 0.49302 0.0
C1311 C -0.06677 0.97609 0.44261 0.0
H1312 H -0.03344 1.00657 0.55397 0.0
C1313 C -0.04229 0.95931 0.42007 0.0
H1314 H 0.91714 1.0034 0.5113 0.0
C1315 C -0.01393 0.96142 0.44412 0.0
C1316 C -0.01041 0.98009 0.49063 0.0
H1317 H -0.04429 0.94748 0.3813 0.0
H1318 H 0.00546 0.95086 0.42404 0.0
C1319 C -0.03575 0.99284 0.51703 0.0
C1320 C 0.73631 0.07971 0.19535 0.0
C1321 C 0.73977 0.06063 0.24133 0.0
H1322 H 0.70597 0.09433 1.13301 0.0
C1323 C 0.71439 0.04784 0.26748 0.0
H1324 H 0.75574 0.0903 0.1755 0.0
C1325 C 0.68615 0.05028 0.24367 0.0
C1326 C 0.68338 0.06541 0.19365 0.0
H1327 H 0.71667 0.03381 0.30404 0.0
H1328 H 0.66721 0.03769 0.2617 0.0
C1329 C 0.70793 0.0822 0.17147 0.0
C1330 C 0.90329 0.74085 0.24327 0.0
C1331 C 0.90605 0.72588 0.19304 0.0
H1332 H 0.87282 0.7571 0.30391 0.0
C1333 C 0.88148 0.70917 0.17064 0.0
H1334 H -0.07775 0.75338 0.26145 0.0
C1335 C 0.85312 0.71157 0.1946 0.0
C1336 C 0.84968 0.73048 0.24086 0.0
H1337 H 0.88343 0.69716 1.13202 0.0
H1338 H 0.83368 0.70105 0.17461 0.0
C1339 C 0.87507 0.74319 0.26716 0.0
C1340 C 0.73595 0.71219 0.8271 0.0
C1341 C 0.73949 0.73102 0.78085 0.0
H1342 H 0.70559 0.69816 0.88979 0.0
C1343 C 0.71418 0.74396 0.75469 0.0
H1344 H 0.75532 0.7015 0.84699 0.0
C1345 C 0.68597 0.74193 0.7787 0.0
C1346 C 0.68315 0.72705 0.82892 0.0
H1347 H 0.71651 0.7578 0.71795 0.0
H1348 H 0.66711 0.75463 0.76062 0.0
C1349 C 0.7076 0.7101 0.85118 0.0
C1350 C 0.8536 0.07902 0.82724 0.0
C1351 C 0.85003 0.06017 0.78094 0.0
H1352 H 0.88397 0.09305 0.88999 0.0
C1353 C 0.87533 0.04719 0.75474 0.0
H1354 H 0.83424 0.08974 0.84716 0.0
C1355 C 0.90354 0.04919 0.77878 0.0
C1356 C 0.90637 0.06409 0.82904 0.0
H1357 H 0.87298 0.03332 0.71796 0.0
H1358 H -0.07761 0.03645 0.76067 0.0
C1359 C 0.88195 0.08109 0.85134 0.0
C1360 C 0.13182 0.45919 0.60145 0.0
C1361 C 0.15631 0.47597 0.57903 0.0
H1362 H 0.08406 0.4508 0.59746 0.0
C1363 C 0.15351 0.49077 0.52874 0.0
H1364 H 0.13382 0.44731 0.64012 0.0
C1365 C 0.12528 0.49287 0.50479 0.0
C1366 C 0.09994 0.48011 0.53111 0.0
H1367 H 0.17241 0.50335 0.51055 0.0
H1368 H 0.12298 0.50665 0.46797 0.0
C1369 C 0.10346 0.46137 0.57745 0.0
C1370 C -0.03561 0.79668 0.50517 0.0
C1371 C -0.01025 0.80948 0.53146 0.0
H1372 H 0.91721 0.78648 0.51078 0.0
C1373 C -0.01375 0.82847 0.57761 0.0
H1374 H -0.03332 0.7827 0.4685 0.0
C1375 C -0.04214 0.83092 0.60145 0.0
C1376 C -0.06668 0.81416 0.57906 0.0
H1377 H 0.00566 0.83906 0.59758 0.0
H1378 H -0.04414 0.84302 0.63998 0.0
C1379 C -0.06386 0.79906 0.52895 0.0
C1380 C 0.13167 0.83095 0.92086 0.0
C1381 C 0.15621 0.81421 0.94317 0.0
H1382 H 0.08386 0.83907 0.92475 0.0
C1383 C 0.15339 0.7991 0.9932 0.0
H1384 H 0.13367 0.84306 0.88238 0.0
C1385 C 0.12514 0.79669 1.01695 0.0
C1386 C 0.09978 0.80948 0.99073 0.0
H1387 H 0.17233 0.78653 1.01131 0.0
H1388 H 0.12285 0.78271 1.05355 0.0
C1389 C 0.10327 0.82848 0.94468 0.0
C1390 C -0.03573 0.49283 1.01681 0.0
C1391 C -0.01038 0.48011 0.99038 0.0
H1392 H 0.91716 0.50335 1.01112 0.0
C1393 C -0.01389 0.46147 0.94384 0.0
H1394 H -0.03342 0.50653 1.05378 0.0
C1395 C -0.04226 0.45935 0.9198 0.0
C1396 C -0.06674 0.4761 0.94238 0.0
H1397 H 0.0055 0.45094 0.92373 0.0
H1398 H -0.04425 0.44755 0.881 0.0
C1399 C -0.06394 0.49079 0.99281 0.0
C1400 C 0.68616 0.55032 0.74346 0.0
C1401 C 0.68338 0.56541 0.69341 0.0
H1402 H 0.71666 0.53389 0.80387 0.0
C1403 C 0.70794 0.58219 0.6712 0.0
H1404 H 0.66721 0.53774 0.76151 0.0
C1405 C 0.73631 0.57971 0.69511 0.0
C1406 C 0.73978 0.56067 0.74112 0.0
H1407 H 0.70597 0.59429 0.63272 0.0
H1408 H 0.75574 0.59029 0.67523 0.0
C1409 C 0.71439 0.5479 0.76729 0.0
C1410 C 0.88144 0.20925 0.67046 0.0
C1411 C 0.906 0.22595 0.69287 0.0
H1412 H 0.83363 0.20113 0.67441 0.0
C1413 C 0.90325 0.2409 0.74312 0.0
H1414 H 0.88339 0.19726 0.63182 0.0
C1415 C 0.87503 0.24323 0.76701 0.0
C1416 C 0.84963 0.23053 0.7407 0.0
H1417 H -0.07779 0.25342 0.76131 0.0
H1418 H 0.87278 0.25713 0.80378 0.0
C1419 C 0.85307 0.21165 0.69442 0.0
C1420 C 0.70754 0.21003 0.35097 0.0
C1421 C 0.6831 0.22698 0.32872 0.0
H1422 H 0.75526 0.20142 0.34679 0.0
C1423 C 0.68593 0.24187 0.27851 0.0
H1424 H 0.70553 0.19808 0.38958 0.0
C1425 C 0.71414 0.2439 0.2545 0.0
C1426 C 0.73945 0.23095 0.28067 0.0
H1427 H 0.66706 0.25458 0.26043 0.0
H1428 H 0.71647 0.25775 0.21777 0.0
C1429 C 0.73589 0.21212 0.3269 0.0
C1430 C 0.85361 0.57901 0.32697 0.0
C1431 C 0.85003 0.56011 0.28072 0.0
H1432 H 0.88399 0.59309 0.38967 0.0
C1433 C 0.87533 0.5471 0.25454 0.0
H1434 H 0.83426 0.58976 0.34686 0.0
C1435 C 0.90354 0.54912 0.27856 0.0
C1436 C 0.90638 0.56407 0.32879 0.0
H1437 H 0.87297 0.5332 0.2178 0.0
H1438 H -0.07762 0.53636 0.26048 0.0
C1439 C 0.88197 0.58109 0.35105 0.0
C1440 C 0.65338 0.99218 0.52891 0.0
C1441 C 0.65621 0.97699 0.57887 0.0
H1442 H 0.62283 1.0087 0.46866 0.0
C1443 C 0.63166 0.96022 0.60112 0.0
H1444 H 0.67232 1.00476 0.51084 0.0
C1445 C 0.60326 0.96276 0.57733 0.0
C1446 C 0.59976 0.98184 0.53137 0.0
H1447 H 0.63366 0.94806 0.63954 0.0
H1448 H 0.58384 0.95215 0.59722 0.0
C1449 C 0.62512 0.99465 0.50519 0.0
C1450 C 0.43601 0.3004 0.52889 0.0
C1451 C 0.43321 0.31507 0.57935 0.0
H1452 H 0.46652 0.28474 0.46789 0.0
C1453 C 0.45768 0.33185 0.60193 0.0
H1454 H 0.41712 0.28783 0.51059 0.0
C1455 C 0.48604 0.32979 0.57786 0.0
C1456 C 0.48956 0.31117 0.53129 0.0
H1457 H 0.45569 0.34363 0.64074 0.0
H1458 H 0.50543 0.34033 0.59797 0.0
C1459 C 0.46422 0.29843 0.50486 0.0
C1460 C 0.63178 0.33204 0.92023 0.0
C1461 C 0.65628 0.3153 0.94273 0.0
H1462 H 0.58402 0.34041 0.92418 0.0
C1463 C 0.6535 0.30062 0.99311 0.0
H1464 H 0.63377 0.34383 0.88148 0.0
C1465 C 0.62528 0.29856 1.01709 0.0
C1466 C 0.59992 0.31125 0.9907 0.0
H1467 H 0.6724 0.28808 1.01137 0.0
H1468 H 0.62299 0.28486 1.05399 0.0
C1469 C 0.60342 0.3299 0.94425 0.0
C1470 C 0.4579 0.96033 0.92051 0.0
C1471 C 0.43336 0.97708 0.94289 0.0
H1472 H 0.50571 0.95222 0.92438 0.0
C1473 C 0.43618 0.99222 0.99296 0.0
H1474 H 0.4559 0.94821 0.882 0.0
C1475 C 0.46444 0.99464 1.01673 0.0
C1476 C 0.4898 0.98184 0.99046 0.0
H1477 H 0.41725 1.00479 1.01111 0.0
H1478 H 0.46673 1.00864 1.05338 0.0
C1479 C 0.4863 0.96282 0.94434 0.0
C1480 C 0.20751 0.08118 0.67132 0.0
C1481 C 0.18308 0.06417 0.69347 0.0
H1482 H 0.25522 0.0898 0.67552 0.0
C1483 C 0.18592 0.04916 0.74358 0.0
H1484 H 0.20547 0.09323 0.6328 0.0
C1485 C 0.21414 0.04708 0.76755 0.0
C1486 C 0.23944 0.0601 0.74145 0.0
H1487 H 0.16707 0.03641 0.76158 0.0
H1488 H 0.21649 0.03314 0.80418 0.0
C1489 C 0.23587 0.07905 0.69536 0.0
C1490 C 0.37529 0.74382 0.76717 0.0
C1491 C 0.34998 0.73091 0.7409 0.0
H1492 H 0.42236 0.75455 0.76129 0.0
C1493 C 0.35352 0.71217 0.69447 0.0
H1494 H 0.37296 0.7576 0.80404 0.0
C1495 C 0.38186 0.71014 0.67035 0.0
C1496 C 0.4063 0.72706 0.69275 0.0
H1497 H 0.33415 0.70151 0.67449 0.0
H1498 H 0.38387 0.69826 0.63163 0.0
C1499 C 0.40349 0.74186 0.74311 0.0
C1500 C 0.21438 0.74314 0.25465 0.0
C1501 C 0.23976 0.7304 0.28087 0.0
H1502 H 0.16721 0.75334 0.26042 0.0
C1503 C 0.23631 0.71145 0.32699 0.0
H1504 H 0.21664 0.75708 0.218 0.0
C1505 C 0.20794 0.70903 0.35092 0.0
C1506 C 0.18339 0.72578 0.32864 0.0
H1507 H 0.25574 0.7009 0.3469 0.0
H1508 H 0.20599 0.697 0.38946 0.0
C1509 C 0.18615 0.74078 0.27851 0.0
C1510 C 0.40331 0.05009 0.2786 0.0
C1511 C 0.4061 0.06521 0.3287 0.0
H1512 H 0.3728 0.03367 0.21812 0.0
C1513 C 0.38156 0.08202 0.35097 0.0
H1514 H 0.42225 0.03749 0.26052 0.0
C1515 C 0.35318 0.07956 0.32705 0.0
C1516 C 0.3497 0.0605 0.28096 0.0
H1517 H 0.38353 0.09414 0.38949 0.0
H1518 H 0.33376 0.09017 0.34696 0.0
C1519 C 0.37508 0.04769 0.25475 0.0
C1520 C 0.62515 0.49463 1.00496 0.0
C1521 C 0.59979 0.48178 1.03112 0.0
H1522 H 0.67233 0.50479 1.01064 0.0
C1523 C 0.6033 0.46269 1.07706 0.0
H1524 H 0.62284 0.50868 0.96844 0.0
C1525 C 0.6317 0.46018 1.10086 0.0
C1526 C 0.65624 0.47698 1.07863 0.0
H1527 H 0.58389 0.45205 1.09693 0.0
H1528 H 0.63371 0.448 0.13927 0.0
C1529 C 0.6534 0.49218 1.02869 0.0
C1530 C 0.48598 0.82974 1.07779 0.0
C1531 C 0.48952 0.81105 1.03131 0.0
H1532 H 0.45561 0.84366 0.14058 0.0
C1533 C 0.46419 0.79823 1.00493 0.0
H1534 H 0.50535 0.84035 1.09785 0.0
C1535 C 0.43598 0.80022 1.02893 0.0
C1536 C 0.43316 0.81498 1.07932 0.0
H1537 H 0.46652 0.78449 0.96802 0.0
H1538 H 0.41711 0.7876 1.01067 0.0
C1539 C 0.45761 0.83182 1.10183 0.0
C1540 C 0.6035 0.82985 0.44451 0.0
C1541 C 0.59998 0.81113 0.49088 0.0
H1542 H 0.63387 0.84384 0.38182 0.0
C1543 C 0.62531 0.79835 0.51721 0.0
H1544 H 0.58412 0.84042 0.4245 0.0
C1545 C 0.65353 0.80041 0.49325 0.0
C1546 C 0.65635 0.81518 0.44295 0.0
H1547 H 0.623 0.78459 0.55404 0.0
H1548 H 0.67242 0.78781 0.51146 0.0
C1549 C 0.63187 0.83199 0.42051 0.0
C1550 C 0.43618 0.4921 0.49289 0.0
C1551 C 0.43335 0.47696 0.44282 0.0
H1552 H 0.46672 0.50853 0.5533 0.0
C1553 C 0.4579 0.46022 0.42044 0.0
H1554 H 0.41724 0.50466 0.51104 0.0
C1555 C 0.4863 0.46272 0.44426 0.0
C1556 C 0.4898 0.48175 0.49038 0.0
H1557 H 0.4559 0.4481 0.38193 0.0
H1558 H 0.50572 0.45213 0.4243 0.0
C1559 C 0.46443 0.49453 0.51665 0.0
C1560 C 0.23594 0.57901 0.19509 0.0
C1561 C 0.2395 0.56008 0.24123 0.0
H1562 H 0.20557 0.59318 1.13252 0.0
C1563 C 0.21419 0.54712 0.26736 0.0
H1564 H 0.25531 0.58972 0.17524 0.0
C1565 C 0.18597 0.54922 0.2434 0.0
C1566 C 0.18314 0.5642 0.19326 0.0
H1567 H 0.21653 0.5332 0.30402 0.0
H1568 H 0.1671 0.5365 0.26143 0.0
C1569 C 0.20758 0.58117 0.17106 0.0
C1570 C 0.37528 0.24367 0.26709 0.0
C1571 C 0.34995 0.23082 0.24077 0.0
H1572 H 0.42235 0.25436 0.26125 0.0
C1573 C 0.35348 0.21214 0.19427 0.0
H1574 H 0.37296 0.25741 0.30401 0.0
C1575 C 0.38183 0.21011 0.17015 0.0
C1576 C 0.40628 0.22698 0.19261 0.0
H1577 H 0.3341 0.20152 0.17425 0.0
H1578 H 0.38382 0.19828 1.13138 0.0
C1579 C 0.40348 0.24172 0.24302 0.0
C1580 C 0.21439 0.24318 0.75463 0.0
C1581 C 0.23979 0.23045 0.78084 0.0
H1582 H 0.16722 0.25337 0.7604 0.0
C1583 C 0.23634 0.2115 0.82696 0.0
H1584 H 0.21665 0.25712 0.71798 0.0
C1585 C 0.20797 0.20907 0.8509 0.0
C1586 C 0.18341 0.22581 0.82862 0.0
H1587 H 0.25577 0.20095 0.84687 0.0
H1588 H 0.20602 0.19704 0.88945 0.0
C1589 C 0.18617 0.24081 0.7785 0.0
C1590 C 0.38158 0.582 0.85089 0.0
C1591 C 0.40612 0.56519 0.82861 0.0
H1592 H 0.33378 0.59016 0.84687 0.0
C1593 C 0.40333 0.5501 0.7785 0.0
H1594 H 0.38355 0.5941 0.88942 0.0
C1595 C 0.3751 0.54771 0.75464 0.0
C1596 C 0.34973 0.56052 0.78085 0.0
H1597 H 0.42227 0.5375 0.7604 0.0
H1598 H 0.37282 0.53371 0.71799 0.0
C1599 C 0.3532 0.57956 0.82696 0.0
loop_
_geom_bond_atom_site_label_1
_geom_bond_atom_site_label_2
_geom_bond_distance
_geom_bond_site_symmetry_2
_ccdc_geom_bond_type
Tb0 O3 2.453 . S
Tb0 O4 2.596 . S
Tb0 O5 2.374 1_565 S
Tb0 O13 2.342 1_565 S
Tb0 O15 2.353 . S
Tb0 O17 2.427 1_554 S
Tb0 O18 2.513 1_564 S
C1 O5 1.251 . S
C1 O7 1.263 . S
Tb2 O4 2.342 1_545 S
Tb2 O7 2.353 . S
Tb2 O10 2.427 . S
Tb2 O11 2.513 1_545 S
Tb2 O12 2.453 . S
Tb2 O13 2.597 . S
Tb2 O14 2.374 1_545 S
O3 Tb0 2.453 . S
O3 C19 1.245 . S
O4 Tb0 2.596 . S
O4 Tb2 2.342 1_565 S
O4 C19 1.260 . S
O5 Tb0 2.374 1_545 S
O5 C1 1.251 . S
C6 O10 1.275 . S
C6 O11 1.246 1_545 S
O7 C1 1.263 . S
O7 Tb2 2.353 . S
C8 O12 1.245 1_556 S
C8 O13 1.260 1_556 S
C9 O14 1.250 . S
C9 O15 1.263 . S
O10 Tb2 2.427 . S
O10 C6 1.275 . S
O11 Tb2 2.513 1_565 S
O11 C6 1.246 1_565 S
O12 Tb2 2.453 . S
O12 C8 1.245 1_554 S
O13 Tb0 2.342 1_545 S
O13 Tb2 2.597 . S
O13 C8 1.260 1_554 S
O14 Tb2 2.374 1_565 S
O14 C9 1.250 . S
O15 Tb0 2.353 . S
O15 C9 1.263 . S
C16 O17 1.275 . S
C16 O18 1.246 1_565 S
O17 Tb0 2.427 1_556 S
O17 C16 1.275 . S
O18 Tb0 2.513 1_546 S
O18 C16 1.246 1_545 S
C19 O3 1.245 . S
C19 O4 1.260 . S
Tb20 O23 2.453 . S
Tb20 O24 2.596 . S
Tb20 O25 2.374 . S
Tb20 O33 2.343 . S
Tb20 O35 2.353 . S
Tb20 O37 2.427 1_554 S
Tb20 O38 2.513 1_554 S
C21 O25 1.251 . S
C21 O27 1.263 . S
Tb22 O24 2.343 . S
Tb22 O27 2.353 . S
Tb22 O30 2.427 . S
Tb22 O31 2.513 . S
Tb22 O32 2.453 . S
Tb22 O33 2.596 . S
Tb22 O34 2.374 . S
O23 Tb20 2.453 . S
O23 C39 1.245 . S
O24 Tb20 2.596 . S
O24 Tb22 2.343 . S
O24 C39 1.259 . S
O25 Tb20 2.374 . S
O25 C21 1.251 . S
C26 O30 1.275 . S
C26 O31 1.246 . S
O27 C21 1.263 . S
O27 Tb22 2.353 . S
C28 O32 1.245 1_556 S
C28 O33 1.259 1_556 S
C29 O34 1.250 . S
C29 O35 1.263 . S
O30 Tb22 2.427 . S
O30 C26 1.275 . S
O31 Tb22 2.513 . S
O31 C26 1.246 . S
O32 Tb22 2.453 . S
O32 C28 1.245 1_554 S
O33 Tb20 2.343 . S
O33 Tb22 2.596 . S
O33 C28 1.259 1_554 S
O34 Tb22 2.374 . S
O34 C29 1.250 . S
O35 Tb20 2.353 . S
O35 C29 1.263 . S
C36 O37 1.274 . S
C36 O38 1.245 . S
O37 Tb20 2.427 1_556 S
O37 C36 1.274 . S
O38 Tb20 2.513 1_556 S
O38 C36 1.245 . S
C39 O23 1.245 . S
C39 O24 1.259 . S
Tb40 O43 2.453 . S
Tb40 O44 2.596 . S
Tb40 O45 2.374 . S
Tb40 O53 2.343 . S
Tb40 O55 2.353 . S
Tb40 O57 2.427 . S
Tb40 O58 2.513 . S
C41 O45 1.251 . S
C41 O47 1.263 . S
Tb42 O44 2.343 . S
Tb42 O47 2.353 . S
Tb42 O50 2.427 . S
Tb42 O51 2.513 . S
Tb42 O52 2.453 . S
Tb42 O53 2.596 . S
Tb42 O54 2.374 . S
O43 Tb40 2.453 . S
O43 C59 1.245 . S
O44 Tb40 2.596 . S
O44 Tb42 2.343 . S
O44 C59 1.259 . S
O45 Tb40 2.374 . S
O45 C41 1.251 . S
C46 O50 1.275 . S
C46 O51 1.246 . S
O47 C41 1.263 . S
O47 Tb42 2.353 . S
C48 O52 1.245 . S
C48 O53 1.259 . S
C49 O54 1.250 . S
C49 O55 1.263 . S
O50 Tb42 2.427 . S
O50 C46 1.275 . S
O51 Tb42 2.513 . S
O51 C46 1.246 . S
O52 Tb42 2.453 . S
O52 C48 1.245 . S
O53 Tb40 2.343 . S
O53 Tb42 2.596 . S
O53 C48 1.259 . S
O54 Tb42 2.374 . S
O54 C49 1.250 . S
O55 Tb40 2.353 . S
O55 C49 1.263 . S
C56 O57 1.275 . S
C56 O58 1.246 . S
O57 Tb40 2.427 . S
O57 C56 1.275 . S
O58 Tb40 2.513 . S
O58 C56 1.246 . S
C59 O43 1.245 . S
C59 O44 1.259 . S
Tb60 O63 2.453 . S
Tb60 O64 2.596 . S
Tb60 O65 2.374 1_565 S
Tb60 O73 2.342 1_565 S
Tb60 O75 2.353 . S
Tb60 O77 2.427 . S
Tb60 O78 2.513 1_565 S
C61 O65 1.251 . S
C61 O67 1.263 . S
Tb62 O64 2.342 1_545 S
Tb62 O67 2.353 . S
Tb62 O70 2.427 . S
Tb62 O71 2.513 1_545 S
Tb62 O72 2.453 . S
Tb62 O73 2.597 . S
Tb62 O74 2.374 1_545 S
O63 Tb60 2.453 . S
O63 C79 1.245 . S
O64 Tb60 2.596 . S
O64 Tb62 2.342 1_565 S
O64 C79 1.260 . S
O65 Tb60 2.374 1_545 S
O65 C61 1.251 . S
C66 O70 1.275 . S
C66 O71 1.246 1_545 S
O67 C61 1.263 . S
O67 Tb62 2.353 . S
C68 O72 1.245 . S
C68 O73 1.260 . S
C69 O74 1.250 . S
C69 O75 1.263 . S
O70 Tb62 2.427 . S
O70 C66 1.275 . S
O71 Tb62 2.513 1_565 S
O71 C66 1.246 1_565 S
O72 Tb62 2.453 . S
O72 C68 1.245 . S
O73 Tb60 2.342 1_545 S
O73 Tb62 2.597 . S
O73 C68 1.260 . S
O74 Tb62 2.374 1_565 S
O74 C69 1.250 . S
O75 Tb60 2.353 . S
O75 C69 1.263 . S
C76 O77 1.274 . S
C76 O78 1.245 1_565 S
O77 Tb60 2.427 . S
O77 C76 1.274 . S
O78 Tb60 2.513 1_545 S
O78 C76 1.245 1_545 S
C79 O63 1.245 . S
C79 O64 1.260 . S
Tb80 O83 2.453 . S
Tb80 O84 2.597 . S
Tb80 O85 2.374 1_565 S
Tb80 O93 2.342 1_565 S
Tb80 O95 2.353 . S
Tb80 O97 2.427 . S
Tb80 O98 2.513 1_565 S
C81 O85 1.251 . S
C81 O87 1.263 . S
Tb82 O84 2.342 1_545 S
Tb82 O87 2.353 . S
Tb82 O90 2.427 1_556 S
Tb82 O91 2.513 1_546 S
Tb82 O92 2.453 . S
Tb82 O93 2.596 . S
Tb82 O94 2.374 1_545 S
O83 Tb80 2.453 . S
O83 C99 1.245 1_556 S
O84 Tb80 2.597 . S
O84 Tb82 2.342 1_565 S
O84 C99 1.260 1_556 S
O85 Tb80 2.374 1_545 S
O85 C81 1.251 . S
C86 O90 1.275 . S
C86 O91 1.246 1_545 S
O87 C81 1.263 . S
O87 Tb82 2.353 . S
C88 O92 1.245 . S
C88 O93 1.260 . S
C89 O94 1.250 . S
C89 O95 1.263 . S
O90 Tb82 2.427 1_554 S
O90 C86 1.275 . S
O91 Tb82 2.513 1_564 S
O91 C86 1.246 1_565 S
O92 Tb82 2.453 . S
O92 C88 1.245 . S
O93 Tb80 2.342 1_545 S
O93 Tb82 2.596 . S
O93 C88 1.260 . S
O94 Tb82 2.374 1_565 S
O94 C89 1.250 . S
O95 Tb80 2.353 . S
O95 C89 1.263 . S
C96 O97 1.275 . S
C96 O98 1.246 1_565 S
O97 Tb80 2.427 . S
O97 C96 1.275 . S
O98 Tb80 2.513 1_545 S
O98 C96 1.246 1_545 S
C99 O83 1.245 1_554 S
C99 O84 1.260 1_554 S
Tb100 O103 2.453 . S
Tb100 O104 2.596 . S
Tb100 O105 2.374 . S
Tb100 O113 2.343 . S
Tb100 O115 2.353 . S
Tb100 O117 2.427 . S
Tb100 O118 2.513 . S
C101 O105 1.251 . S
C101 O107 1.263 . S
Tb102 O104 2.343 . S
Tb102 O107 2.353 . S
Tb102 O110 2.427 1_556 S
Tb102 O111 2.513 1_556 S
Tb102 O112 2.453 . S
Tb102 O113 2.596 . S
Tb102 O114 2.374 . S
O103 Tb100 2.453 . S
O103 C119 1.245 1_556 S
O104 Tb100 2.596 . S
O104 Tb102 2.343 . S
O104 C119 1.259 1_556 S
O105 Tb100 2.374 . S
O105 C101 1.251 . S
C106 O110 1.274 . S
C106 O111 1.245 . S
O107 C101 1.263 . S
O107 Tb102 2.353 . S
C108 O112 1.245 . S
C108 O113 1.259 . S
C109 O114 1.250 . S
C109 O115 1.263 . S
O110 Tb102 2.427 1_554 S
O110 C106 1.274 . S
O111 Tb102 2.513 1_554 S
O111 C106 1.245 . S
O112 Tb102 2.453 . S
O112 C108 1.245 . S
O113 Tb100 2.343 . S
O113 Tb102 2.596 . S
O113 C108 1.259 . S
O114 Tb102 2.374 . S
O114 C109 1.250 . S
O115 Tb100 2.353 . S
O115 C109 1.263 . S
C116 O117 1.275 . S
C116 O118 1.246 . S
O117 Tb100 2.427 . S
O117 C116 1.275 . S
O118 Tb100 2.513 . S
O118 C116 1.246 . S
C119 O103 1.245 1_554 S
C119 O104 1.259 1_554 S
Tb120 O123 2.453 . S
Tb120 O124 2.596 . S
Tb120 O125 2.374 . S
Tb120 O133 2.343 . S
Tb120 O135 2.353 . S
Tb120 O137 2.427 . S
Tb120 O138 2.513 . S
C121 O125 1.251 . S
C121 O127 1.263 . S
Tb122 O124 2.343 . S
Tb122 O127 2.353 . S
Tb122 O130 2.427 . S
Tb122 O131 2.513 . S
Tb122 O132 2.453 . S
Tb122 O133 2.596 . S
Tb122 O134 2.374 . S
O123 Tb120 2.453 . S
O123 C139 1.245 . S
O124 Tb120 2.596 . S
O124 Tb122 2.343 . S
O124 C139 1.259 . S
O125 Tb120 2.374 . S
O125 C121 1.251 . S
C126 O130 1.275 . S
C126 O131 1.246 . S
O127 C121 1.263 . S
O127 Tb122 2.353 . S
C128 O132 1.245 . S
C128 O133 1.259 . S
C129 O134 1.250 . S
C129 O135 1.263 . S
O130 Tb122 2.427 . S
O130 C126 1.275 . S
O131 Tb122 2.513 . S
O131 C126 1.246 . S
O132 Tb122 2.453 . S
O132 C128 1.245 . S
O133 Tb120 2.343 . S
O133 Tb122 2.596 . S
O133 C128 1.259 . S
O134 Tb122 2.374 . S
O134 C129 1.250 . S
O135 Tb120 2.353 . S
O135 C129 1.263 . S
C136 O137 1.275 . S
C136 O138 1.246 . S
O137 Tb120 2.427 . S
O137 C136 1.275 . S
O138 Tb120 2.513 . S
O138 C136 1.246 . S
C139 O123 1.245 . S
C139 O124 1.259 . S
Tb140 O143 2.453 . S
Tb140 O144 2.597 . S
Tb140 O145 2.374 1_565 S
Tb140 O153 2.342 1_565 S
Tb140 O155 2.353 . S
Tb140 O157 2.427 . S
Tb140 O158 2.513 1_565 S
C141 O145 1.251 . S
C141 O147 1.263 . S
Tb142 O144 2.342 1_545 S
Tb142 O147 2.353 . S
Tb142 O150 2.427 . S
Tb142 O151 2.513 1_545 S
Tb142 O152 2.453 . S
Tb142 O153 2.596 . S
Tb142 O154 2.374 1_545 S
O143 Tb140 2.453 . S
O143 C159 1.245 . S
O144 Tb140 2.597 . S
O144 Tb142 2.342 1_565 S
O144 C159 1.260 . S
O145 Tb140 2.374 1_545 S
O145 C141 1.251 . S
C146 O150 1.274 . S
C146 O151 1.245 1_545 S
O147 C141 1.263 . S
O147 Tb142 2.353 . S
C148 O152 1.245 . S
C148 O153 1.260 . S
C149 O154 1.250 . S
C149 O155 1.263 . S
O150 Tb142 2.427 . S
O150 C146 1.274 . S
O151 Tb142 2.513 1_565 S
O151 C146 1.245 1_565 S
O152 Tb142 2.453 . S
O152 C148 1.245 . S
O153 Tb140 2.342 1_545 S
O153 Tb142 2.596 . S
O153 C148 1.260 . S
O154 Tb142 2.374 1_565 S
O154 C149 1.250 . S
O155 Tb140 2.353 . S
O155 C149 1.263 . S
C156 O157 1.275 . S
C156 O158 1.246 1_565 S
O157 Tb140 2.427 . S
O157 C156 1.275 . S
O158 Tb140 2.513 1_545 S
O158 C156 1.246 1_545 S
C159 O143 1.245 . S
C159 O144 1.260 . S
Tb160 O163 2.453 . S
Tb160 O164 2.596 . S
Tb160 O165 2.374 . S
Tb160 O173 2.343 . S
Tb160 O175 2.353 . S
Tb160 O177 2.427 . S
Tb160 O178 2.513 . S
C161 O165 1.251 . S
C161 O167 1.263 . S
Tb162 O164 2.343 . S
Tb162 O167 2.353 . S
Tb162 O170 2.427 . S
Tb162 O171 2.513 . S
Tb162 O172 2.453 . S
Tb162 O173 2.596 . S
Tb162 O174 2.374 . S
O163 Tb160 2.453 . S
O163 C179 1.245 . S
O164 Tb160 2.596 . S
O164 Tb162 2.343 . S
O164 C179 1.259 . S
O165 Tb160 2.374 . S
O165 C161 1.251 . S
C166 O170 1.275 . S
C166 O171 1.246 . S
O167 C161 1.263 . S
O167 Tb162 2.353 . S
C168 O172 1.245 . S
C168 O173 1.259 . S
C169 O174 1.250 . S
C169 O175 1.263 . S
O170 Tb162 2.427 . S
O170 C166 1.275 . S
O171 Tb162 2.513 . S
O171 C166 1.246 . S
O172 Tb162 2.453 . S
O172 C168 1.245 . S
O173 Tb160 2.343 . S
O173 Tb162 2.596 . S
O173 C168 1.259 . S
O174 Tb162 2.374 . S
O174 C169 1.250 . S
O175 Tb160 2.353 . S
O175 C169 1.263 . S
C176 O177 1.275 . S
C176 O178 1.246 . S
O177 Tb160 2.427 . S
O177 C176 1.275 . S
O178 Tb160 2.513 . S
O178 C176 1.246 . S
C179 O163 1.245 . S
C179 O164 1.259 . S
Tb180 O183 2.453 . S
Tb180 O184 2.596 . S
Tb180 O185 2.374 . S
Tb180 O193 2.343 . S
Tb180 O195 2.353 . S
Tb180 O197 2.427 . S
Tb180 O198 2.513 . S
C181 O185 1.251 . S
C181 O187 1.263 . S
Tb182 O184 2.343 . S
Tb182 O187 2.353 . S
Tb182 O190 2.427 . S
Tb182 O191 2.513 . S
Tb182 O192 2.453 . S
Tb182 O193 2.596 . S
Tb182 O194 2.374 . S
O183 Tb180 2.453 . S
O183 C199 1.245 . S
O184 Tb180 2.596 . S
O184 Tb182 2.343 . S
O184 C199 1.259 . S
O185 Tb180 2.374 . S
O185 C181 1.251 . S
C186 O190 1.275 . S
C186 O191 1.246 . S
O187 C181 1.263 . S
O187 Tb182 2.353 . S
C188 O192 1.245 . S
C188 O193 1.259 . S
C189 O194 1.250 . S
C189 O195 1.263 . S
O190 Tb182 2.427 . S
O190 C186 1.275 . S
O191 Tb182 2.513 . S
O191 C186 1.246 . S
O192 Tb182 2.453 . S
O192 C188 1.245 . S
O193 Tb180 2.343 . S
O193 Tb182 2.596 . S
O193 C188 1.259 . S
O194 Tb182 2.374 . S
O194 C189 1.250 . S
O195 Tb180 2.353 . S
O195 C189 1.263 . S
C196 O197 1.274 . S
C196 O198 1.245 . S
O197 Tb180 2.427 . S
O197 C196 1.274 . S
O198 Tb180 2.513 . S
O198 C196 1.245 . S
C199 O183 1.245 . S
C199 O184 1.259 . S
Tb200 O203 2.453 . S
Tb200 O204 2.596 . S
Tb200 O205 2.374 . S
Tb200 O213 2.343 . S
Tb200 O215 2.353 . S
Tb200 O217 2.427 . S
Tb200 O218 2.513 . S
C201 O205 1.251 . S
C201 O207 1.263 . S
Tb202 O204 2.343 . S
Tb202 O207 2.353 . S
Tb202 O210 2.427 . S
Tb202 O211 2.513 . S
Tb202 O212 2.453 . S
Tb202 O213 2.596 . S
Tb202 O214 2.374 . S
O203 Tb200 2.453 . S
O203 C219 1.245 . S
O204 Tb200 2.596 . S
O204 Tb202 2.343 . S
O204 C219 1.259 . S
O205 Tb200 2.374 . S
O205 C201 1.251 . S
C206 O210 1.275 . S
C206 O211 1.246 . S
O207 C201 1.263 . S
O207 Tb202 2.353 . S
C208 O212 1.245 . S
C208 O213 1.259 . S
C209 O214 1.250 . S
C209 O215 1.263 . S
O210 Tb202 2.427 . S
O210 C206 1.275 . S
O211 Tb202 2.513 . S
O211 C206 1.246 . S
O212 Tb202 2.453 . S
O212 C208 1.245 . S
O213 Tb200 2.343 . S
O213 Tb202 2.596 . S
O213 C208 1.259 . S
O214 Tb202 2.374 . S
O214 C209 1.250 . S
O215 Tb200 2.353 . S
O215 C209 1.263 . S
C216 O217 1.275 . S
C216 O218 1.246 . S
O217 Tb200 2.427 . S
O217 C216 1.275 . S
O218 Tb200 2.513 . S
O218 C216 1.246 . S
C219 O203 1.245 . S
C219 O204 1.259 . S
Tb220 O223 2.453 . S
Tb220 O224 2.596 . S
Tb220 O225 2.374 . S
Tb220 O233 2.343 . S
Tb220 O235 2.353 . S
Tb220 O237 2.427 . S
Tb220 O238 2.513 . S
C221 O225 1.251 . S
C221 O227 1.263 . S
Tb222 O224 2.343 . S
Tb222 O227 2.353 . S
Tb222 O230 2.427 . S
Tb222 O231 2.513 . S
Tb222 O232 2.453 . S
Tb222 O233 2.596 . S
Tb222 O234 2.374 . S
O223 Tb220 2.453 . S
O223 C239 1.245 . S
O224 Tb220 2.596 . S
O224 Tb222 2.343 . S
O224 C239 1.259 . S
O225 Tb220 2.374 . S
O225 C221 1.251 . S
C226 O230 1.275 . S
C226 O231 1.246 . S
O227 C221 1.263 . S
O227 Tb222 2.353 . S
C228 O232 1.245 . S
C228 O233 1.259 . S
C229 O234 1.250 . S
C229 O235 1.263 . S
O230 Tb222 2.427 . S
O230 C226 1.275 . S
O231 Tb222 2.513 . S
O231 C226 1.246 . S
O232 Tb222 2.453 . S
O232 C228 1.245 . S
O233 Tb220 2.343 . S
O233 Tb222 2.596 . S
O233 C228 1.259 . S
O234 Tb222 2.374 . S
O234 C229 1.250 . S
O235 Tb220 2.353 . S
O235 C229 1.263 . S
C236 O237 1.274 . S
C236 O238 1.245 . S
O237 Tb220 2.427 . S
O237 C236 1.274 . S
O238 Tb220 2.513 . S
O238 C236 1.245 . S
C239 O223 1.245 . S
C239 O224 1.259 . S
Tb240 O243 2.453 . S
Tb240 O244 2.596 . S
Tb240 O245 2.374 . S
Tb240 O253 2.343 . S
Tb240 O255 2.353 . S
Tb240 O257 2.427 . S
Tb240 O258 2.513 . S
C241 O245 1.251 . S
C241 O247 1.263 . S
Tb242 O244 2.343 . S
Tb242 O247 2.353 . S
Tb242 O250 2.427 . S
Tb242 O251 2.513 . S
Tb242 O252 2.453 . S
Tb242 O253 2.596 . S
Tb242 O254 2.374 . S
O243 Tb240 2.453 . S
O243 C259 1.245 . S
O244 Tb240 2.596 . S
O244 Tb242 2.343 . S
O244 C259 1.259 . S
O245 Tb240 2.374 . S
O245 C241 1.251 . S
C246 O250 1.275 . S
C246 O251 1.246 . S
O247 C241 1.263 . S
O247 Tb242 2.353 . S
C248 O252 1.245 . S
C248 O253 1.259 . S
C249 O254 1.250 . S
C249 O255 1.263 . S
O250 Tb242 2.427 . S
O250 C246 1.275 . S
O251 Tb242 2.513 . S
O251 C246 1.246 . S
O252 Tb242 2.453 . S
O252 C248 1.245 . S
O253 Tb240 2.343 . S
O253 Tb242 2.596 . S
O253 C248 1.259 . S
O254 Tb242 2.374 . S
O254 C249 1.250 . S
O255 Tb240 2.353 . S
O255 C249 1.263 . S
C256 O257 1.275 . S
C256 O258 1.246 . S
O257 Tb240 2.427 . S
O257 C256 1.275 . S
O258 Tb240 2.513 . S
O258 C256 1.246 . S
C259 O243 1.245 . S
C259 O244 1.259 . S
Tb260 O263 2.453 . S
Tb260 O264 2.596 . S
Tb260 O265 2.374 . S
Tb260 O273 2.343 . S
Tb260 O275 2.353 . S
Tb260 O277 2.427 . S
Tb260 O278 2.513 . S
C261 O265 1.251 . S
C261 O267 1.263 . S
Tb262 O264 2.343 . S
Tb262 O267 2.353 . S
Tb262 O270 2.427 . S
Tb262 O271 2.513 . S
Tb262 O272 2.453 . S
Tb262 O273 2.596 . S
Tb262 O274 2.374 . S
O263 Tb260 2.453 . S
O263 C279 1.245 . S
O264 Tb260 2.596 . S
O264 Tb262 2.343 . S
O264 C279 1.259 . S
O265 Tb260 2.374 . S
O265 C261 1.251 . S
C266 O270 1.274 . S
C266 O271 1.245 . S
O267 C261 1.263 . S
O267 Tb262 2.353 . S
C268 O272 1.245 . S
C268 O273 1.259 . S
C269 O274 1.250 . S
C269 O275 1.263 . S
O270 Tb262 2.427 . S
O270 C266 1.274 . S
O271 Tb262 2.513 . S
O271 C266 1.245 . S
O272 Tb262 2.453 . S
O272 C268 1.245 . S
O273 Tb260 2.343 . S
O273 Tb262 2.596 . S
O273 C268 1.259 . S
O274 Tb262 2.374 . S
O274 C269 1.250 . S
O275 Tb260 2.353 . S
O275 C269 1.263 . S
C276 O277 1.275 . S
C276 O278 1.246 . S
O277 Tb260 2.427 . S
O277 C276 1.275 . S
O278 Tb260 2.513 . S
O278 C276 1.246 . S
C279 O263 1.245 . S
C279 O264 1.259 . S
Tb280 O283 2.453 . S
Tb280 O284 2.596 . S
Tb280 O285 2.374 . S
Tb280 O293 2.343 . S
Tb280 O295 2.353 . S
Tb280 O297 2.427 . S
Tb280 O298 2.513 . S
C281 O285 1.251 . S
C281 O287 1.263 . S
Tb282 O284 2.343 . S
Tb282 O287 2.353 . S
Tb282 O290 2.427 . S
Tb282 O291 2.513 . S
Tb282 O292 2.453 . S
Tb282 O293 2.596 . S
Tb282 O294 2.374 . S
O283 Tb280 2.453 . S
O283 C299 1.245 . S
O284 Tb280 2.596 . S
O284 Tb282 2.343 . S
O284 C299 1.259 . S
O285 Tb280 2.374 . S
O285 C281 1.251 . S
C286 O290 1.275 . S
C286 O291 1.246 . S
O287 C281 1.263 . S
O287 Tb282 2.353 . S
C288 O292 1.245 . S
C288 O293 1.259 . S
C289 O294 1.250 . S
C289 O295 1.263 . S
O290 Tb282 2.427 . S
O290 C286 1.275 . S
O291 Tb282 2.513 . S
O291 C286 1.246 . S
O292 Tb282 2.453 . S
O292 C288 1.245 . S
O293 Tb280 2.343 . S
O293 Tb282 2.596 . S
O293 C288 1.259 . S
O294 Tb282 2.374 . S
O294 C289 1.250 . S
O295 Tb280 2.353 . S
O295 C289 1.263 . S
C296 O297 1.275 . S
C296 O298 1.246 . S
O297 Tb280 2.427 . S
O297 C296 1.275 . S
O298 Tb280 2.513 . S
O298 C296 1.246 . S
C299 O283 1.245 . S
C299 O284 1.259 . S
Tb300 O303 2.453 . S
Tb300 O304 2.596 . S
Tb300 O305 2.374 . S
Tb300 O313 2.343 . S
Tb300 O315 2.353 . S
Tb300 O317 2.427 . S
Tb300 O318 2.513 . S
C301 O305 1.251 . S
C301 O307 1.263 . S
Tb302 O304 2.343 . S
Tb302 O307 2.353 . S
Tb302 O310 2.427 . S
Tb302 O311 2.513 . S
Tb302 O312 2.453 . S
Tb302 O313 2.596 . S
Tb302 O314 2.374 . S
O303 Tb300 2.453 . S
O303 C319 1.245 . S
O304 Tb300 2.596 . S
O304 Tb302 2.343 . S
O304 C319 1.259 . S
O305 Tb300 2.374 . S
O305 C301 1.251 . S
C306 O310 1.274 . S
C306 O311 1.245 . S
O307 C301 1.263 . S
O307 Tb302 2.353 . S
C308 O312 1.245 . S
C308 O313 1.259 . S
C309 O314 1.250 . S
C309 O315 1.263 . S
O310 Tb302 2.427 . S
O310 C306 1.274 . S
O311 Tb302 2.513 . S
O311 C306 1.245 . S
O312 Tb302 2.453 . S
O312 C308 1.245 . S
O313 Tb300 2.343 . S
O313 Tb302 2.596 . S
O313 C308 1.259 . S
O314 Tb302 2.374 . S
O314 C309 1.250 . S
O315 Tb300 2.353 . S
O315 C309 1.263 . S
C316 O317 1.275 . S
C316 O318 1.246 . S
O317 Tb300 2.427 . S
O317 C316 1.275 . S
O318 Tb300 2.513 . S
O318 C316 1.246 . S
C319 O303 1.245 . S
C319 O304 1.259 . S
Tb320 O323 2.453 . S
Tb320 O324 2.596 . S
Tb320 O325 2.374 1_565 S
Tb320 O333 2.342 1_565 S
Tb320 O335 2.353 . S
Tb320 O337 2.427 . S
Tb320 O338 2.513 1_565 S
C321 O325 1.251 . S
C321 O327 1.263 . S
Tb322 O324 2.342 1_545 S
Tb322 O327 2.353 . S
Tb322 O330 2.427 . S
Tb322 O331 2.513 1_545 S
Tb322 O332 2.453 . S
Tb322 O333 2.597 . S
Tb322 O334 2.374 1_545 S
O323 Tb320 2.453 . S
O323 C339 1.245 . S
O324 Tb320 2.596 . S
O324 Tb322 2.342 1_565 S
O324 C339 1.260 . S
O325 Tb320 2.374 1_545 S
O325 C321 1.251 . S
C326 O330 1.275 . S
C326 O331 1.246 1_545 S
O327 C321 1.263 . S
O327 Tb322 2.353 . S
C328 O332 1.245 . S
C328 O333 1.260 . S
C329 O334 1.250 . S
C329 O335 1.263 . S
O330 Tb322 2.427 . S
O330 C326 1.275 . S
O331 Tb322 2.513 1_565 S
O331 C326 1.246 1_565 S
O332 Tb322 2.453 . S
O332 C328 1.245 . S
O333 Tb320 2.342 1_545 S
O333 Tb322 2.597 . S
O333 C328 1.260 . S
O334 Tb322 2.374 1_565 S
O334 C329 1.250 . S
O335 Tb320 2.353 . S
O335 C329 1.263 . S
C336 O337 1.275 . S
C336 O338 1.246 1_565 S
O337 Tb320 2.427 . S
O337 C336 1.275 . S
O338 Tb320 2.513 1_545 S
O338 C336 1.246 1_545 S
C339 O323 1.245 . S
C339 O324 1.260 . S
Tb340 O343 2.453 . S
Tb340 O344 2.596 . S
Tb340 O345 2.374 . S
Tb340 O353 2.343 . S
Tb340 O355 2.353 . S
Tb340 O357 2.427 . S
Tb340 O358 2.513 . S
C341 O345 1.251 . S
C341 O347 1.263 . S
Tb342 O344 2.343 . S
Tb342 O347 2.353 . S
Tb342 O350 2.427 . S
Tb342 O351 2.513 . S
Tb342 O352 2.453 . S
Tb342 O353 2.596 . S
Tb342 O354 2.374 . S
O343 Tb340 2.453 . S
O343 C359 1.245 . S
O344 Tb340 2.596 . S
O344 Tb342 2.343 . S
O344 C359 1.259 . S
O345 Tb340 2.374 . S
O345 C341 1.251 . S
C346 O350 1.275 . S
C346 O351 1.246 . S
O347 C341 1.263 . S
O347 Tb342 2.353 . S
C348 O352 1.245 . S
C348 O353 1.259 . S
C349 O354 1.250 . S
C349 O355 1.263 . S
O350 Tb342 2.427 . S
O350 C346 1.275 . S
O351 Tb342 2.513 . S
O351 C346 1.246 . S
O352 Tb342 2.453 . S
O352 C348 1.245 . S
O353 Tb340 2.343 . S
O353 Tb342 2.596 . S
O353 C348 1.259 . S
O354 Tb342 2.374 . S
O354 C349 1.250 . S
O355 Tb340 2.353 . S
O355 C349 1.263 . S
C356 O357 1.275 . S
C356 O358 1.246 . S
O357 Tb340 2.427 . S
O357 C356 1.275 . S
O358 Tb340 2.513 . S
O358 C356 1.246 . S
C359 O343 1.245 . S
C359 O344 1.259 . S
Tb360 O363 2.453 . S
Tb360 O364 2.596 . S
Tb360 O365 2.374 . S
Tb360 O373 2.343 . S
Tb360 O375 2.353 . S
Tb360 O377 2.427 . S
Tb360 O378 2.513 . S
C361 O365 1.251 . S
C361 O367 1.263 . S
Tb362 O364 2.343 . S
Tb362 O367 2.353 . S
Tb362 O370 2.427 . S
Tb362 O371 2.513 . S
Tb362 O372 2.453 . S
Tb362 O373 2.596 . S
Tb362 O374 2.374 . S
O363 Tb360 2.453 . S
O363 C379 1.245 . S
O364 Tb360 2.596 . S
O364 Tb362 2.343 . S
O364 C379 1.259 . S
O365 Tb360 2.374 . S
O365 C361 1.251 . S
C366 O370 1.275 . S
C366 O371 1.246 . S
O367 C361 1.263 . S
O367 Tb362 2.353 . S
C368 O372 1.245 . S
C368 O373 1.259 . S
C369 O374 1.250 . S
C369 O375 1.263 . S
O370 Tb362 2.427 . S
O370 C366 1.275 . S
O371 Tb362 2.513 . S
O371 C366 1.246 . S
O372 Tb362 2.453 . S
O372 C368 1.245 . S
O373 Tb360 2.343 . S
O373 Tb362 2.596 . S
O373 C368 1.259 . S
O374 Tb362 2.374 . S
O374 C369 1.250 . S
O375 Tb360 2.353 . S
O375 C369 1.263 . S
C376 O377 1.275 . S
C376 O378 1.246 . S
O377 Tb360 2.427 . S
O377 C376 1.275 . S
O378 Tb360 2.513 . S
O378 C376 1.246 . S
C379 O363 1.245 . S
C379 O364 1.259 . S
Tb380 O383 2.453 . S
Tb380 O384 2.596 . S
Tb380 O385 2.374 1_565 S
Tb380 O393 2.342 1_565 S
Tb380 O395 2.353 . S
Tb380 O397 2.427 . S
Tb380 O398 2.513 1_565 S
C381 O385 1.251 . S
C381 O387 1.263 . S
Tb382 O384 2.342 1_545 S
Tb382 O387 2.353 . S
Tb382 O390 2.427 . S
Tb382 O391 2.513 1_545 S
Tb382 O392 2.453 . S
Tb382 O393 2.597 . S
Tb382 O394 2.374 1_545 S
O383 Tb380 2.453 . S
O383 C399 1.245 . S
O384 Tb380 2.596 . S
O384 Tb382 2.342 1_565 S
O384 C399 1.260 . S
O385 Tb380 2.374 1_545 S
O385 C381 1.251 . S
C386 O390 1.275 . S
C386 O391 1.246 1_545 S
O387 C381 1.263 . S
O387 Tb382 2.353 . S
C388 O392 1.245 . S
C388 O393 1.260 . S
C389 O394 1.250 . S
C389 O395 1.263 . S
O390 Tb382 2.427 . S
O390 C386 1.275 . S
O391 Tb382 2.513 1_565 S
O391 C386 1.246 1_565 S
O392 Tb382 2.453 . S
O392 C388 1.245 . S
O393 Tb380 2.342 1_545 S
O393 Tb382 2.597 . S
O393 C388 1.260 . S
O394 Tb382 2.374 1_565 S
O394 C389 1.250 . S
O395 Tb380 2.353 . S
O395 C389 1.263 . S
C396 O397 1.275 . S
C396 O398 1.246 1_565 S
O397 Tb380 2.427 . S
O397 C396 1.275 . S
O398 Tb380 2.513 1_545 S
O398 C396 1.246 1_545 S
C399 O383 1.245 . S
C399 O384 1.260 . S
Tb400 O403 2.453 . S
Tb400 O404 2.597 . S
Tb400 O405 2.374 1_565 S
Tb400 O413 2.342 1_565 S
Tb400 O415 2.353 . S
Tb400 O417 2.427 . S
Tb400 O418 2.513 1_565 S
C401 O405 1.251 . S
C401 O407 1.263 . S
Tb402 O404 2.342 1_545 S
Tb402 O407 2.353 . S
Tb402 O410 2.427 . S
Tb402 O411 2.513 1_545 S
Tb402 O412 2.453 . S
Tb402 O413 2.596 . S
Tb402 O414 2.374 1_545 S
O403 Tb400 2.453 . S
O403 C419 1.245 . S
O404 Tb400 2.597 . S
O404 Tb402 2.342 1_565 S
O404 C419 1.260 . S
O405 Tb400 2.374 1_545 S
O405 C401 1.251 . S
C406 O410 1.275 . S
C406 O411 1.246 1_545 S
O407 C401 1.263 . S
O407 Tb402 2.353 . S
C408 O412 1.245 . S
C408 O413 1.260 . S
C409 O414 1.250 . S
C409 O415 1.263 . S
O410 Tb402 2.427 . S
O410 C406 1.275 . S
O411 Tb402 2.513 1_565 S
O411 C406 1.246 1_565 S
O412 Tb402 2.453 . S
O412 C408 1.245 . S
O413 Tb400 2.342 1_545 S
O413 Tb402 2.596 . S
O413 C408 1.260 . S
O414 Tb402 2.374 1_565 S
O414 C409 1.250 . S
O415 Tb400 2.353 . S
O415 C409 1.263 . S
C416 O417 1.275 . S
C416 O418 1.246 1_565 S
O417 Tb400 2.427 . S
O417 C416 1.275 . S
O418 Tb400 2.513 1_545 S
O418 C416 1.246 1_545 S
C419 O403 1.245 . S
C419 O404 1.260 . S
Tb420 O423 2.453 . S
Tb420 O424 2.596 . S
Tb420 O425 2.374 . S
Tb420 O433 2.343 . S
Tb420 O435 2.353 . S
Tb420 O437 2.427 . S
Tb420 O438 2.513 . S
C421 O425 1.251 . S
C421 O427 1.263 . S
Tb422 O424 2.343 . S
Tb422 O427 2.353 . S
Tb422 O430 2.427 . S
Tb422 O431 2.513 . S
Tb422 O432 2.453 . S
Tb422 O433 2.596 . S
Tb422 O434 2.374 . S
O423 Tb420 2.453 . S
O423 C439 1.245 . S
O424 Tb420 2.596 . S
O424 Tb422 2.343 . S
O424 C439 1.259 . S
O425 Tb420 2.374 . S
O425 C421 1.251 . S
C426 O430 1.275 . S
C426 O431 1.246 . S
O427 C421 1.263 . S
O427 Tb422 2.353 . S
C428 O432 1.245 . S
C428 O433 1.259 . S
C429 O434 1.250 . S
C429 O435 1.263 . S
O430 Tb422 2.427 . S
O430 C426 1.275 . S
O431 Tb422 2.513 . S
O431 C426 1.246 . S
O432 Tb422 2.453 . S
O432 C428 1.245 . S
O433 Tb420 2.343 . S
O433 Tb422 2.596 . S
O433 C428 1.259 . S
O434 Tb422 2.374 . S
O434 C429 1.250 . S
O435 Tb420 2.353 . S
O435 C429 1.263 . S
C436 O437 1.275 . S
C436 O438 1.246 . S
O437 Tb420 2.427 . S
O437 C436 1.275 . S
O438 Tb420 2.513 . S
O438 C436 1.246 . S
C439 O423 1.245 . S
C439 O424 1.259 . S
Tb440 O443 2.453 . S
Tb440 O444 2.596 . S
Tb440 O445 2.374 . S
Tb440 O453 2.343 . S
Tb440 O455 2.353 . S
Tb440 O457 2.427 . S
Tb440 O458 2.513 . S
C441 O445 1.251 . S
C441 O447 1.263 . S
Tb442 O444 2.343 . S
Tb442 O447 2.353 . S
Tb442 O450 2.427 . S
Tb442 O451 2.513 . S
Tb442 O452 2.453 . S
Tb442 O453 2.596 . S
Tb442 O454 2.374 . S
O443 Tb440 2.453 . S
O443 C459 1.245 . S
O444 Tb440 2.596 . S
O444 Tb442 2.343 . S
O444 C459 1.259 . S
O445 Tb440 2.374 . S
O445 C441 1.251 . S
C446 O450 1.275 . S
C446 O451 1.246 . S
O447 C441 1.263 . S
O447 Tb442 2.353 . S
C448 O452 1.245 . S
C448 O453 1.259 . S
C449 O454 1.250 . S
C449 O455 1.263 . S
O450 Tb442 2.427 . S
O450 C446 1.275 . S
O451 Tb442 2.513 . S
O451 C446 1.246 . S
O452 Tb442 2.453 . S
O452 C448 1.245 . S
O453 Tb440 2.343 . S
O453 Tb442 2.596 . S
O453 C448 1.259 . S
O454 Tb442 2.374 . S
O454 C449 1.250 . S
O455 Tb440 2.353 . S
O455 C449 1.263 . S
C456 O457 1.275 . S
C456 O458 1.246 . S
O457 Tb440 2.427 . S
O457 C456 1.275 . S
O458 Tb440 2.513 . S
O458 C456 1.246 . S
C459 O443 1.245 . S
C459 O444 1.259 . S
Tb460 O463 2.453 . S
Tb460 O464 2.597 . S
Tb460 O465 2.374 1_565 S
Tb460 O473 2.342 1_565 S
Tb460 O475 2.353 . S
Tb460 O477 2.427 . S
Tb460 O478 2.513 1_565 S
C461 O465 1.251 . S
C461 O467 1.263 . S
Tb462 O464 2.342 1_545 S
Tb462 O467 2.353 . S
Tb462 O470 2.427 . S
Tb462 O471 2.513 1_545 S
Tb462 O472 2.453 . S
Tb462 O473 2.596 . S
Tb462 O474 2.374 1_545 S
O463 Tb460 2.453 . S
O463 C479 1.245 . S
O464 Tb460 2.597 . S
O464 Tb462 2.342 1_565 S
O464 C479 1.260 . S
O465 Tb460 2.374 1_545 S
O465 C461 1.251 . S
C466 O470 1.275 . S
C466 O471 1.246 1_545 S
O467 C461 1.263 . S
O467 Tb462 2.353 . S
C468 O472 1.245 . S
C468 O473 1.260 . S
C469 O474 1.250 . S
C469 O475 1.263 . S
O470 Tb462 2.427 . S
O470 C466 1.275 . S
O471 Tb462 2.513 1_565 S
O471 C466 1.246 1_565 S
O472 Tb462 2.453 . S
O472 C468 1.245 . S
O473 Tb460 2.342 1_545 S
O473 Tb462 2.596 . S
O473 C468 1.260 . S
O474 Tb462 2.374 1_565 S
O474 C469 1.250 . S
O475 Tb460 2.353 . S
O475 C469 1.263 . S
C476 O477 1.275 . S
C476 O478 1.246 1_565 S
O477 Tb460 2.427 . S
O477 C476 1.275 . S
O478 Tb460 2.513 1_545 S
O478 C476 1.246 1_545 S
C479 O463 1.245 . S
C479 O464 1.260 . S
Tb480 O483 2.453 . S
Tb480 O484 2.596 . S
Tb480 O485 2.374 . S
Tb480 O493 2.343 . S
Tb480 O495 2.353 . S
Tb480 O497 2.427 1_554 S
Tb480 O498 2.513 1_554 S
C481 O485 1.251 . S
C481 O487 1.263 . S
Tb482 O484 2.343 . S
Tb482 O487 2.353 . S
Tb482 O490 2.427 . S
Tb482 O491 2.513 . S
Tb482 O492 2.453 . S
Tb482 O493 2.596 . S
Tb482 O494 2.374 . S
O483 Tb480 2.453 . S
O483 C499 1.245 . S
O484 Tb480 2.596 . S
O484 Tb482 2.343 . S
O484 C499 1.259 . S
O485 Tb480 2.374 . S
O485 C481 1.251 . S
C486 O490 1.275 . S
C486 O491 1.246 . S
O487 C481 1.263 . S
O487 Tb482 2.353 . S
C488 O492 1.245 1_556 S
C488 O493 1.259 1_556 S
C489 O494 1.250 . S
C489 O495 1.263 . S
O490 Tb482 2.427 . S
O490 C486 1.275 . S
O491 Tb482 2.513 . S
O491 C486 1.246 . S
O492 Tb482 2.453 . S
O492 C488 1.245 1_554 S
O493 Tb480 2.343 . S
O493 Tb482 2.596 . S
O493 C488 1.259 1_554 S
O494 Tb482 2.374 . S
O494 C489 1.250 . S
O495 Tb480 2.353 . S
O495 C489 1.263 . S
C496 O497 1.275 . S
C496 O498 1.246 . S
O497 Tb480 2.427 1_556 S
O497 C496 1.275 . S
O498 Tb480 2.513 1_556 S
O498 C496 1.246 . S
C499 O483 1.245 . S
C499 O484 1.259 . S
Tb500 O503 2.453 . S
Tb500 O504 2.596 . S
Tb500 O505 2.374 . S
Tb500 O513 2.343 . S
Tb500 O515 2.353 . S
Tb500 O517 2.427 1_554 S
Tb500 O518 2.513 1_554 S
C501 O505 1.251 . S
C501 O507 1.263 . S
Tb502 O504 2.343 . S
Tb502 O507 2.353 . S
Tb502 O510 2.427 . S
Tb502 O511 2.513 . S
Tb502 O512 2.453 . S
Tb502 O513 2.596 . S
Tb502 O514 2.374 . S
O503 Tb500 2.453 . S
O503 C519 1.245 . S
O504 Tb500 2.596 . S
O504 Tb502 2.343 . S
O504 C519 1.259 . S
O505 Tb500 2.374 . S
O505 C501 1.251 . S
C506 O510 1.275 . S
C506 O511 1.246 . S
O507 C501 1.263 . S
O507 Tb502 2.353 . S
C508 O512 1.245 1_556 S
C508 O513 1.259 1_556 S
C509 O514 1.250 . S
C509 O515 1.263 . S
O510 Tb502 2.427 . S
O510 C506 1.275 . S
O511 Tb502 2.513 . S
O511 C506 1.246 . S
O512 Tb502 2.453 . S
O512 C508 1.245 1_554 S
O513 Tb500 2.343 . S
O513 Tb502 2.596 . S
O513 C508 1.259 1_554 S
O514 Tb502 2.374 . S
O514 C509 1.250 . S
O515 Tb500 2.353 . S
O515 C509 1.263 . S
C516 O517 1.275 . S
C516 O518 1.246 . S
O517 Tb500 2.427 1_556 S
O517 C516 1.275 . S
O518 Tb500 2.513 1_556 S
O518 C516 1.246 . S
C519 O503 1.245 . S
C519 O504 1.259 . S
Tb520 O523 2.453 . S
Tb520 O524 2.596 . S
Tb520 O525 2.374 . S
Tb520 O533 2.343 . S
Tb520 O535 2.353 . S
Tb520 O537 2.427 . S
Tb520 O538 2.513 . S
C521 O525 1.251 . S
C521 O527 1.263 . S
Tb522 O524 2.343 . S
Tb522 O527 2.353 . S
Tb522 O530 2.427 . S
Tb522 O531 2.513 . S
Tb522 O532 2.453 . S
Tb522 O533 2.596 . S
Tb522 O534 2.374 . S
O523 Tb520 2.453 . S
O523 C539 1.245 . S
O524 Tb520 2.596 . S
O524 Tb522 2.343 . S
O524 C539 1.259 . S
O525 Tb520 2.374 . S
O525 C521 1.251 . S
C526 O530 1.275 . S
C526 O531 1.246 . S
O527 C521 1.263 . S
O527 Tb522 2.353 . S
C528 O532 1.245 . S
C528 O533 1.259 . S
C529 O534 1.250 . S
C529 O535 1.263 . S
O530 Tb522 2.427 . S
O530 C526 1.275 . S
O531 Tb522 2.513 . S
O531 C526 1.246 . S
O532 Tb522 2.453 . S
O532 C528 1.245 . S
O533 Tb520 2.343 . S
O533 Tb522 2.596 . S
O533 C528 1.259 . S
O534 Tb522 2.374 . S
O534 C529 1.250 . S
O535 Tb520 2.353 . S
O535 C529 1.263 . S
C536 O537 1.275 . S
C536 O538 1.246 . S
O537 Tb520 2.427 . S
O537 C536 1.275 . S
O538 Tb520 2.513 . S
O538 C536 1.246 . S
C539 O523 1.245 . S
C539 O524 1.259 . S
Tb540 O543 2.453 . S
Tb540 O544 2.596 . S
Tb540 O545 2.374 . S
Tb540 O553 2.343 . S
Tb540 O555 2.353 . S
Tb540 O557 2.427 . S
Tb540 O558 2.513 . S
C541 O545 1.251 . S
C541 O547 1.263 . S
Tb542 O544 2.343 . S
Tb542 O547 2.353 . S
Tb542 O550 2.427 . S
Tb542 O551 2.513 . S
Tb542 O552 2.453 . S
Tb542 O553 2.596 . S
Tb542 O554 2.374 . S
O543 Tb540 2.453 . S
O543 C559 1.245 . S
O544 Tb540 2.596 . S
O544 Tb542 2.343 . S
O544 C559 1.259 . S
O545 Tb540 2.374 . S
O545 C541 1.251 . S
C546 O550 1.275 . S
C546 O551 1.246 . S
O547 C541 1.263 . S
O547 Tb542 2.353 . S
C548 O552 1.245 . S
C548 O553 1.259 . S
C549 O554 1.250 . S
C549 O555 1.263 . S
O550 Tb542 2.427 . S
O550 C546 1.275 . S
O551 Tb542 2.513 . S
O551 C546 1.246 . S
O552 Tb542 2.453 . S
O552 C548 1.245 . S
O553 Tb540 2.343 . S
O553 Tb542 2.596 . S
O553 C548 1.259 . S
O554 Tb542 2.374 . S
O554 C549 1.250 . S
O555 Tb540 2.353 . S
O555 C549 1.263 . S
C556 O557 1.275 . S
C556 O558 1.246 . S
O557 Tb540 2.427 . S
O557 C556 1.275 . S
O558 Tb540 2.513 . S
O558 C556 1.246 . S
C559 O543 1.245 . S
C559 O544 1.259 . S
Tb560 O563 2.453 . S
Tb560 O564 2.596 . S
Tb560 O565 2.374 . S
Tb560 O573 2.343 . S
Tb560 O575 2.353 . S
Tb560 O577 2.427 . S
Tb560 O578 2.513 . S
C561 O565 1.251 . S
C561 O567 1.263 . S
Tb562 O564 2.343 . S
Tb562 O567 2.353 . S
Tb562 O570 2.427 1_556 S
Tb562 O571 2.513 1_556 S
Tb562 O572 2.453 . S
Tb562 O573 2.596 . S
Tb562 O574 2.374 . S
O563 Tb560 2.453 . S
O563 C579 1.245 1_556 S
O564 Tb560 2.596 . S
O564 Tb562 2.343 . S
O564 C579 1.259 1_556 S
O565 Tb560 2.374 . S
O565 C561 1.251 . S
C566 O570 1.275 . S
C566 O571 1.246 . S
O567 C561 1.263 . S
O567 Tb562 2.353 . S
C568 O572 1.245 . S
C568 O573 1.259 . S
C569 O574 1.250 . S
C569 O575 1.263 . S
O570 Tb562 2.427 1_554 S
O570 C566 1.275 . S
O571 Tb562 2.513 1_554 S
O571 C566 1.246 . S
O572 Tb562 2.453 . S
O572 C568 1.245 . S
O573 Tb560 2.343 . S
O573 Tb562 2.596 . S
O573 C568 1.259 . S
O574 Tb562 2.374 . S
O574 C569 1.250 . S
O575 Tb560 2.353 . S
O575 C569 1.263 . S
C576 O577 1.275 . S
C576 O578 1.246 . S
O577 Tb560 2.427 . S
O577 C576 1.275 . S
O578 Tb560 2.513 . S
O578 C576 1.246 . S
C579 O563 1.245 1_554 S
C579 O564 1.259 1_554 S
Tb580 O583 2.453 . S
Tb580 O584 2.596 . S
Tb580 O585 2.374 . S
Tb580 O593 2.343 . S
Tb580 O595 2.353 . S
Tb580 O597 2.427 . S
Tb580 O598 2.513 . S
C581 O585 1.251 . S
C581 O587 1.263 . S
Tb582 O584 2.343 . S
Tb582 O587 2.353 . S
Tb582 O590 2.427 1_556 S
Tb582 O591 2.513 1_556 S
Tb582 O592 2.453 . S
Tb582 O593 2.596 . S
Tb582 O594 2.374 . S
O583 Tb580 2.453 . S
O583 C599 1.245 1_556 S
O584 Tb580 2.596 . S
O584 Tb582 2.343 . S
O584 C599 1.259 1_556 S
O585 Tb580 2.374 . S
O585 C581 1.251 . S
C586 O590 1.275 . S
C586 O591 1.246 . S
O587 C581 1.263 . S
O587 Tb582 2.353 . S
C588 O592 1.245 . S
C588 O593 1.259 . S
C589 O594 1.250 . S
C589 O595 1.263 . S
O590 Tb582 2.427 1_554 S
O590 C586 1.275 . S
O591 Tb582 2.513 1_554 S
O591 C586 1.246 . S
O592 Tb582 2.453 . S
O592 C588 1.245 . S
O593 Tb580 2.343 . S
O593 Tb582 2.596 . S
O593 C588 1.259 . S
O594 Tb582 2.374 . S
O594 C589 1.250 . S
O595 Tb580 2.353 . S
O595 C589 1.263 . S
C596 O597 1.275 . S
C596 O598 1.246 . S
O597 Tb580 2.427 . S
O597 C596 1.275 . S
O598 Tb580 2.513 . S
O598 C596 1.246 . S
C599 O583 1.245 1_554 S
C599 O584 1.259 1_554 S
Tb600 O603 2.453 . S
Tb600 O604 2.596 . S
Tb600 O605 2.374 . S
Tb600 O613 2.343 . S
Tb600 O615 2.353 . S
Tb600 O617 2.427 . S
Tb600 O618 2.513 . S
C601 O605 1.251 . S
C601 O607 1.263 . S
Tb602 O604 2.343 . S
Tb602 O607 2.353 . S
Tb602 O610 2.427 . S
Tb602 O611 2.513 . S
Tb602 O612 2.453 . S
Tb602 O613 2.596 . S
Tb602 O614 2.374 . S
O603 Tb600 2.453 . S
O603 C619 1.245 . S
O604 Tb600 2.596 . S
O604 Tb602 2.343 . S
O604 C619 1.259 . S
O605 Tb600 2.374 . S
O605 C601 1.251 . S
C606 O610 1.275 . S
C606 O611 1.246 . S
O607 C601 1.263 . S
O607 Tb602 2.353 . S
C608 O612 1.245 . S
C608 O613 1.259 . S
C609 O614 1.250 . S
C609 O615 1.263 . S
O610 Tb602 2.427 . S
O610 C606 1.275 . S
O611 Tb602 2.513 . S
O611 C606 1.246 . S
O612 Tb602 2.453 . S
O612 C608 1.245 . S
O613 Tb600 2.343 . S
O613 Tb602 2.596 . S
O613 C608 1.259 . S
O614 Tb602 2.374 . S
O614 C609 1.250 . S
O615 Tb600 2.353 . S
O615 C609 1.263 . S
C616 O617 1.275 . S
C616 O618 1.246 . S
O617 Tb600 2.427 . S
O617 C616 1.275 . S
O618 Tb600 2.513 . S
O618 C616 1.246 . S
C619 O603 1.245 . S
C619 O604 1.259 . S
Tb620 O623 2.453 . S
Tb620 O624 2.596 . S
Tb620 O625 2.374 . S
Tb620 O633 2.343 . S
Tb620 O635 2.353 . S
Tb620 O637 2.427 . S
Tb620 O638 2.513 . S
C621 O625 1.251 . S
C621 O627 1.263 . S
Tb622 O624 2.343 . S
Tb622 O627 2.353 . S
Tb622 O630 2.427 . S
Tb622 O631 2.513 . S
Tb622 O632 2.453 . S
Tb622 O633 2.596 . S
Tb622 O634 2.374 . S
O623 Tb620 2.453 . S
O623 C639 1.245 . S
O624 Tb620 2.596 . S
O624 Tb622 2.343 . S
O624 C639 1.259 . S
O625 Tb620 2.374 . S
O625 C621 1.251 . S
C626 O630 1.275 . S
C626 O631 1.246 . S
O627 C621 1.263 . S
O627 Tb622 2.353 . S
C628 O632 1.245 . S
C628 O633 1.259 . S
C629 O634 1.250 . S
C629 O635 1.263 . S
O630 Tb622 2.427 . S
O630 C626 1.275 . S
O631 Tb622 2.513 . S
O631 C626 1.246 . S
O632 Tb622 2.453 . S
O632 C628 1.245 . S
O633 Tb620 2.343 . S
O633 Tb622 2.596 . S
O633 C628 1.259 . S
O634 Tb622 2.374 . S
O634 C629 1.250 . S
O635 Tb620 2.353 . S
O635 C629 1.263 . S
C636 O637 1.275 . S
C636 O638 1.246 . S
O637 Tb620 2.427 . S
O637 C636 1.275 . S
O638 Tb620 2.513 . S
O638 C636 1.246 . S
C639 O623 1.245 . S
C639 O624 1.259 . S
C640 C641 1.387 . S
C640 H644 0.950 . S
C640 C649 1.390 . S
C641 C640 1.387 . S
C641 C643 1.387 . S
H642 C649 0.950 . S
C643 C641 1.387 . S
C643 C645 1.390 . S
C643 H647 0.950 1_554 S
H644 C640 0.950 . S
C645 C643 1.390 . S
C645 C646 1.387 . S
C645 H648 0.950 1_554 S
C646 C645 1.387 . S
C646 C649 1.387 . S
H647 C643 0.950 1_556 S
H648 C645 0.950 1_556 S
C649 C640 1.390 . S
C649 H642 0.950 . S
C649 C646 1.387 . S
C650 C651 1.387 . S
C650 H654 0.950 . S
C650 C659 1.390 . S
C651 C650 1.387 . S
C651 C653 1.387 . S
H652 C659 0.950 . S
C653 C651 1.387 . S
C653 C655 1.390 . S
C653 H657 0.950 1_554 S
H654 C650 0.950 . S
C655 C653 1.390 . S
C655 C656 1.387 . S
C655 H658 0.950 1_554 S
C656 C655 1.387 . S
C656 C659 1.387 . S
H657 C653 0.950 1_556 S
H658 C655 0.950 1_556 S
C659 C650 1.390 . S
C659 H652 0.950 . S
C659 C656 1.387 . S
C660 C661 1.387 . S
C660 H664 0.950 . S
C660 C669 1.390 . S
C661 C660 1.387 . S
C661 C663 1.387 . S
H662 C669 0.950 . S
C663 C661 1.387 . S
C663 C665 1.390 . S
C663 H667 0.950 . S
H664 C660 0.950 . S
C665 C663 1.390 . S
C665 C666 1.387 . S
C665 H668 0.950 . S
C666 C665 1.387 . S
C666 C669 1.387 . S
H667 C663 0.950 . S
H668 C665 0.950 . S
C669 C660 1.390 . S
C669 H662 0.950 . S
C669 C666 1.387 . S
C670 C671 1.387 . S
C670 H674 0.950 . S
C670 C679 1.390 . S
C671 C670 1.387 . S
C671 C673 1.387 . S
H672 C679 0.950 . S
C673 C671 1.387 . S
C673 C675 1.390 . S
C673 H677 0.950 . S
H674 C670 0.950 . S
C675 C673 1.390 . S
C675 C676 1.387 . S
C675 H678 0.950 . S
C676 C675 1.387 . S
C676 C679 1.387 . S
H677 C673 0.950 . S
H678 C675 0.950 . S
C679 C670 1.390 . S
C679 H672 0.950 . S
C679 C676 1.387 . S
C680 C681 1.387 . S
C680 H684 0.950 . S
C680 C689 1.390 . S
C681 C680 1.387 . S
C681 C683 1.387 . S
H682 C689 0.950 . S
C683 C681 1.387 . S
C683 C685 1.390 . S
C683 H687 0.950 1_556 S
H684 C680 0.950 . S
C685 C683 1.390 . S
C685 C686 1.387 . S
C685 H688 0.950 1_556 S
C686 C685 1.387 . S
C686 C689 1.387 . S
H687 C683 0.950 1_554 S
H688 C685 0.950 1_554 S
C689 C680 1.390 . S
C689 H682 0.950 . S
C689 C686 1.387 . S
C690 C691 1.387 . S
C690 H694 0.950 1_556 S
C690 C699 1.390 . S
C691 C690 1.387 . S
C691 C693 1.387 . S
H692 C699 0.950 1_554 S
C693 C691 1.387 . S
C693 C695 1.390 . S
C693 H697 0.950 . S
H694 C690 0.950 1_554 S
C695 C693 1.390 . S
C695 C696 1.387 . S
C695 H698 0.950 . S
C696 C695 1.387 . S
C696 C699 1.387 . S
H697 C693 0.950 . S
H698 C695 0.950 . S
C699 C690 1.390 . S
C699 H692 0.950 1_556 S
C699 C696 1.387 . S
C700 C701 1.387 . S
C700 H704 0.950 . S
C700 C709 1.390 . S
C701 C700 1.387 . S
C701 C703 1.387 . S
H702 C709 0.950 . S
C703 C701 1.387 . S
C703 C705 1.390 . S
C703 H707 0.950 . S
H704 C700 0.950 . S
C705 C703 1.390 . S
C705 C706 1.387 . S
C705 H708 0.950 . S
C706 C705 1.387 . S
C706 C709 1.387 . S
H707 C703 0.950 . S
H708 C705 0.950 . S
C709 C700 1.390 . S
C709 H702 0.950 . S
C709 C706 1.387 . S
C710 C711 1.387 . S
C710 H714 0.950 . S
C710 C719 1.390 . S
C711 C710 1.387 . S
C711 C713 1.387 . S
H712 C719 0.950 . S
C713 C711 1.387 . S
C713 C715 1.390 . S
C713 H717 0.950 . S
H714 C710 0.950 . S
C715 C713 1.390 . S
C715 C716 1.387 . S
C715 H718 0.950 . S
C716 C715 1.387 . S
C716 C719 1.387 . S
H717 C713 0.950 . S
H718 C715 0.950 . S
C719 C710 1.390 . S
C719 H712 0.950 . S
C719 C716 1.387 . S
C720 C721 1.387 . S
C720 H724 0.950 . S
C720 C729 1.390 . S
C721 C720 1.387 . S
C721 C723 1.387 . S
H722 C729 0.950 . S
C723 C721 1.387 . S
C723 C725 1.390 . S
C723 H727 0.950 . S
H724 C720 0.950 . S
C725 C723 1.390 . S
C725 C726 1.387 . S
C725 H728 0.950 . S
C726 C725 1.387 . S
C726 C729 1.387 . S
H727 C723 0.950 . S
H728 C725 0.950 . S
C729 C720 1.390 . S
C729 H722 0.950 . S
C729 C726 1.387 . S
C730 C731 1.387 . S
C730 H734 0.950 . S
C730 C739 1.390 . S
C731 C730 1.387 . S
C731 C733 1.387 . S
H732 C739 0.950 . S
C733 C731 1.387 . S
C733 C735 1.390 . S
C733 H737 0.950 . S
H734 C730 0.950 . S
C735 C733 1.390 . S
C735 C736 1.387 . S
C735 H738 0.950 . S
C736 C735 1.387 . S
C736 C739 1.387 . S
H737 C733 0.950 . S
H738 C735 0.950 . S
C739 C730 1.390 . S
C739 H732 0.950 . S
C739 C736 1.387 . S
C740 C741 1.387 . S
C740 H744 0.950 . S
C740 C749 1.390 . S
C741 C740 1.387 . S
C741 C743 1.387 . S
H742 C749 0.950 . S
C743 C741 1.387 . S
C743 C745 1.390 . S
C743 H747 0.950 . S
H744 C740 0.950 . S
C745 C743 1.390 . S
C745 C746 1.387 . S
C745 H748 0.950 . S
C746 C745 1.387 . S
C746 C749 1.387 . S
H747 C743 0.950 . S
H748 C745 0.950 . S
C749 C740 1.390 . S
C749 H742 0.950 . S
C749 C746 1.387 . S
C750 C751 1.387 . S
C750 H754 0.950 . S
C750 C759 1.390 . S
C751 C750 1.387 . S
C751 C753 1.387 . S
H752 C759 0.950 . S
C753 C751 1.387 . S
C753 C755 1.390 . S
C753 H757 0.950 . S
H754 C750 0.950 . S
C755 C753 1.390 . S
C755 C756 1.387 . S
C755 H758 0.950 . S
C756 C755 1.387 . S
C756 C759 1.387 . S
H757 C753 0.950 . S
H758 C755 0.950 . S
C759 C750 1.390 . S
C759 H752 0.950 . S
C759 C756 1.387 . S
C760 C761 1.387 . S
C760 H764 0.950 . S
C760 C769 1.390 . S
C761 C760 1.387 . S
C761 C763 1.387 . S
H762 C769 0.950 . S
C763 C761 1.387 . S
C763 C765 1.390 . S
C763 H767 0.950 . S
H764 C760 0.950 . S
C765 C763 1.390 . S
C765 C766 1.387 . S
C765 H768 0.950 . S
C766 C765 1.387 . S
C766 C769 1.387 . S
H767 C763 0.950 . S
H768 C765 0.950 . S
C769 C760 1.390 . S
C769 H762 0.950 . S
C769 C766 1.387 . S
C770 C771 1.387 . S
C770 H774 0.950 . S
C770 C779 1.390 . S
C771 C770 1.387 . S
C771 C773 1.387 . S
H772 C779 0.950 . S
C773 C771 1.387 . S
C773 C775 1.390 . S
C773 H777 0.950 . S
H774 C770 0.950 . S
C775 C773 1.390 . S
C775 C776 1.387 . S
C775 H778 0.950 . S
C776 C775 1.387 . S
C776 C779 1.387 . S
H777 C773 0.950 . S
H778 C775 0.950 . S
C779 C770 1.390 . S
C779 H772 0.950 . S
C779 C776 1.387 . S
C780 C781 1.387 . S
C780 H784 0.950 . S
C780 C789 1.390 . S
C781 C780 1.387 . S
C781 C783 1.387 . S
H782 C789 0.950 . S
C783 C781 1.387 . S
C783 C785 1.390 . S
C783 H787 0.950 . S
H784 C780 0.950 . S
C785 C783 1.390 . S
C785 C786 1.387 . S
C785 H788 0.950 . S
C786 C785 1.387 . S
C786 C789 1.387 . S
H787 C783 0.950 . S
H788 C785 0.950 . S
C789 C780 1.390 . S
C789 H782 0.950 . S
C789 C786 1.387 . S
C790 C791 1.387 . S
C790 H794 0.950 . S
C790 C799 1.390 . S
C791 C790 1.387 . S
C791 C793 1.387 . S
H792 C799 0.950 . S
C793 C791 1.387 . S
C793 C795 1.390 . S
C793 H797 0.950 . S
H794 C790 0.950 . S
C795 C793 1.390 . S
C795 C796 1.387 . S
C795 H798 0.950 . S
C796 C795 1.387 . S
C796 C799 1.387 . S
H797 C793 0.950 . S
H798 C795 0.950 . S
C799 C790 1.390 . S
C799 H792 0.950 . S
C799 C796 1.387 . S
C800 C801 1.387 1_565 S
C800 H804 0.950 . S
C800 C809 1.390 . S
C801 C800 1.387 1_545 S
C801 C803 1.387 . S
H802 C809 0.950 . S
C803 C801 1.387 . S
C803 C805 1.390 . S
C803 H807 0.950 . S
H804 C800 0.950 . S
C805 C803 1.390 . S
C805 C806 1.357 1_545 S
C805 H808 0.950 . S
C806 C805 1.357 1_565 S
C806 C809 1.417 . S
H807 C803 0.950 . S
H808 C805 0.950 . S
C809 C800 1.390 . S
C809 H802 0.950 . S
C809 C806 1.417 . S
C810 C811 1.387 . S
C810 H814 0.950 . S
C810 C819 1.390 1_455 S
C811 C810 1.387 . S
C811 C813 1.387 . S
H812 C819 0.950 . S
C813 C811 1.387 . S
C813 C815 1.390 1_455 S
C813 H817 0.950 . S
H814 C810 0.950 . S
C815 C813 1.390 1_655 S
C815 C816 1.387 . S
C815 H818 0.950 . S
C816 C815 1.387 . S
C816 C819 1.387 . S
H817 C813 0.950 . S
H818 C815 0.950 . S
C819 C810 1.390 1_655 S
C819 H812 0.950 . S
C819 C816 1.387 . S
C820 C821 1.387 . S
C820 H824 0.950 . S
C820 C829 1.390 1_556 S
C821 C820 1.387 . S
C821 C823 1.387 . S
H822 C829 0.950 . S
C823 C821 1.387 . S
C823 C825 1.390 1_556 S
C823 H827 0.950 . S
H824 C820 0.950 . S
C825 C823 1.390 1_554 S
C825 C826 1.387 . S
C825 H828 0.950 . S
C826 C825 1.387 . S
C826 C829 1.387 . S
H827 C823 0.950 . S
H828 C825 0.950 . S
C829 C820 1.390 1_554 S
C829 H822 0.950 . S
C829 C826 1.387 . S
C830 C831 1.387 . S
C830 H834 0.950 . S
C830 C839 1.390 1_654 S
C831 C830 1.387 . S
C831 C833 1.387 1_545 S
H832 C839 0.950 . S
C833 C831 1.387 1_565 S
C833 C835 1.390 1_654 S
C833 H837 0.950 . S
H834 C830 0.950 . S
C835 C833 1.390 1_456 S
C835 C836 1.416 . S
C835 H838 0.950 . S
C836 C835 1.416 . S
C836 C839 1.358 1_565 S
H837 C833 0.950 . S
H838 C835 0.950 . S
C839 C830 1.390 1_456 S
C839 H832 0.950 . S
C839 C836 1.358 1_545 S
C840 C841 1.387 . S
C840 H844 0.950 . S
C840 C849 1.390 . S
C841 C840 1.387 . S
C841 C843 1.387 1_565 S
H842 C849 0.950 . S
C843 C841 1.387 1_545 S
C843 C845 1.390 . S
C843 H847 0.950 . S
H844 C840 0.950 . S
C845 C843 1.390 . S
C845 C846 1.417 . S
C845 H848 0.950 . S
C846 C845 1.417 . S
C846 C849 1.357 1_545 S
H847 C843 0.950 . S
H848 C845 0.950 . S
C849 C840 1.390 . S
C849 H842 0.950 . S
C849 C846 1.357 1_565 S
C850 C851 1.387 . S
C850 H854 0.950 . S
C850 C859 1.390 1_455 S
C851 C850 1.387 . S
C851 C853 1.387 . S
H852 C859 0.950 . S
C853 C851 1.387 . S
C853 C855 1.390 1_455 S
C853 H857 0.950 . S
H854 C850 0.950 . S
C855 C853 1.390 1_655 S
C855 C856 1.387 . S
C855 H858 0.950 . S
C856 C855 1.387 . S
C856 C859 1.387 . S
H857 C853 0.950 . S
H858 C855 0.950 . S
C859 C850 1.390 1_655 S
C859 H852 0.950 . S
C859 C856 1.387 . S
C860 C861 1.387 . S
C860 H864 0.950 . S
C860 C869 1.390 1_556 S
C861 C860 1.387 . S
C861 C863 1.387 . S
H862 C869 0.950 . S
C863 C861 1.387 . S
C863 C865 1.390 1_556 S
C863 H867 0.950 . S
H864 C860 0.950 . S
C865 C863 1.390 1_554 S
C865 C866 1.387 . S
C865 H868 0.950 . S
C866 C865 1.387 . S
C866 C869 1.387 . S
H867 C863 0.950 . S
H868 C865 0.950 . S
C869 C860 1.390 1_554 S
C869 H862 0.950 . S
C869 C866 1.387 . S
C870 C871 1.387 . S
C870 H874 0.950 . S
C870 C879 1.390 . S
C871 C870 1.387 . S
C871 C873 1.387 . S
H872 C879 0.950 . S
C873 C871 1.387 . S
C873 C875 1.390 . S
C873 H877 0.950 . S
H874 C870 0.950 . S
C875 C873 1.390 . S
C875 C876 1.387 . S
C875 H878 0.950 . S
C876 C875 1.387 . S
C876 C879 1.387 . S
H877 C873 0.950 . S
H878 C875 0.950 . S
C879 C870 1.390 . S
C879 H872 0.950 . S
C879 C876 1.387 . S
C880 C881 1.387 . S
C880 H884 0.950 . S
C880 C889 1.390 . S
C881 C880 1.387 . S
C881 C883 1.387 . S
H882 C889 0.950 . S
C883 C881 1.387 . S
C883 C885 1.390 . S
C883 H887 0.950 . S
H884 C880 0.950 . S
C885 C883 1.390 . S
C885 C886 1.387 . S
C885 H888 0.950 . S
C886 C885 1.387 . S
C886 C889 1.387 . S
H887 C883 0.950 . S
H888 C885 0.950 . S
C889 C880 1.390 . S
C889 H882 0.950 . S
C889 C886 1.387 . S
C890 C891 1.387 . S
C890 H894 0.950 . S
C890 C899 1.390 1_455 S
C891 C890 1.387 . S
C891 C893 1.387 . S
H892 C899 0.950 . S
C893 C891 1.387 . S
C893 C895 1.390 1_455 S
C893 H897 0.950 . S
H894 C890 0.950 . S
C895 C893 1.390 1_655 S
C895 C896 1.387 . S
C895 H898 0.950 . S
C896 C895 1.387 . S
C896 C899 1.387 . S
H897 C893 0.950 . S
H898 C895 0.950 . S
C899 C890 1.390 1_655 S
C899 H892 0.950 . S
C899 C896 1.387 . S
C900 C901 1.387 . S
C900 H904 0.950 . S
C900 C909 1.390 . S
C901 C900 1.387 . S
C901 C903 1.387 . S
H902 C909 0.950 . S
C903 C901 1.387 . S
C903 C905 1.390 . S
C903 H907 0.950 . S
H904 C900 0.950 . S
C905 C903 1.390 . S
C905 C906 1.387 . S
C905 H908 0.950 . S
C906 C905 1.387 . S
C906 C909 1.387 . S
H907 C903 0.950 . S
H908 C905 0.950 . S
C909 C900 1.390 . S
C909 H902 0.950 . S
C909 C906 1.387 . S
C910 C911 1.387 . S
C910 H914 0.950 . S
C910 C919 1.390 . S
C911 C910 1.387 . S
C911 C913 1.387 . S
H912 C919 0.950 . S
C913 C911 1.387 . S
C913 C915 1.390 . S
C913 H917 0.950 . S
H914 C910 0.950 . S
C915 C913 1.390 . S
C915 C916 1.387 . S
C915 H918 0.950 . S
C916 C915 1.387 . S
C916 C919 1.387 . S
H917 C913 0.950 . S
H918 C915 0.950 . S
C919 C910 1.390 . S
C919 H912 0.950 . S
C919 C916 1.387 . S
C920 C921 1.387 . S
C920 H924 0.950 . S
C920 C929 1.390 . S
C921 C920 1.387 . S
C921 C923 1.387 . S
H922 C929 0.950 . S
C923 C921 1.387 . S
C923 C925 1.390 . S
C923 H927 0.950 . S
H924 C920 0.950 . S
C925 C923 1.390 . S
C925 C926 1.387 . S
C925 H928 0.950 . S
C926 C925 1.387 . S
C926 C929 1.387 . S
H927 C923 0.950 . S
H928 C925 0.950 . S
C929 C920 1.390 . S
C929 H922 0.950 . S
C929 C926 1.387 . S
C930 C931 1.387 . S
C930 H934 0.950 . S
C930 C939 1.390 . S
C931 C930 1.387 . S
C931 C933 1.387 1_545 S
H932 C939 0.950 . S
C933 C931 1.387 1_565 S
C933 C935 1.390 . S
C933 H937 0.950 . S
H934 C930 0.950 . S
C935 C933 1.390 . S
C935 C936 1.417 . S
C935 H938 0.950 . S
C936 C935 1.417 . S
C936 C939 1.358 1_565 S
H937 C933 0.950 . S
H938 C935 0.950 . S
C939 C930 1.390 . S
C939 H932 0.950 . S
C939 C936 1.358 1_545 S
C940 C941 1.387 . S
C940 H944 0.950 . S
C940 C949 1.390 . S
C941 C940 1.387 . S
C941 C943 1.387 . S
H942 C949 0.950 . S
C943 C941 1.387 . S
C943 C945 1.390 . S
C943 H947 0.950 . S
H944 C940 0.950 . S
C945 C943 1.390 . S
C945 C946 1.387 . S
C945 H948 0.950 . S
C946 C945 1.387 . S
C946 C949 1.387 . S
H947 C943 0.950 . S
H948 C945 0.950 . S
C949 C940 1.390 . S
C949 H942 0.950 . S
C949 C946 1.387 . S
C950 C951 1.387 . S
C950 H954 0.950 . S
C950 C959 1.390 1_554 S
C951 C950 1.387 . S
C951 C953 1.387 . S
H952 C959 0.950 . S
C953 C951 1.387 . S
C953 C955 1.390 1_554 S
C953 H957 0.950 . S
H954 C950 0.950 . S
C955 C953 1.390 1_556 S
C955 C956 1.387 . S
C955 H958 0.950 . S
C956 C955 1.387 . S
C956 C959 1.387 . S
H957 C953 0.950 . S
H958 C955 0.950 . S
C959 C950 1.390 1_556 S
C959 H952 0.950 . S
C959 C956 1.387 . S
C960 C961 1.387 . S
C960 H964 0.950 . S
C960 C969 1.390 . S
C961 C960 1.387 . S
C961 C963 1.387 1_565 S
H962 C969 0.950 . S
C963 C961 1.387 1_545 S
C963 C965 1.390 . S
C963 H967 0.950 . S
H964 C960 0.950 . S
C965 C963 1.390 . S
C965 C966 1.387 1_545 S
C965 H968 0.950 . S
C966 C965 1.387 1_565 S
C966 C969 1.387 . S
H967 C963 0.950 . S
H968 C965 0.950 . S
C969 C960 1.390 . S
C969 H962 0.950 . S
C969 C966 1.387 . S
C970 C971 1.387 . S
C970 H974 0.950 . S
C970 C979 1.390 . S
C971 C970 1.387 . S
C971 C973 1.387 . S
H972 C979 0.950 . S
C973 C971 1.387 . S
C973 C975 1.390 . S
C973 H977 0.950 . S
H974 C970 0.950 . S
C975 C973 1.390 . S
C975 C976 1.387 . S
C975 H978 0.950 . S
C976 C975 1.387 . S
C976 C979 1.387 . S
H977 C973 0.950 . S
H978 C975 0.950 . S
C979 C970 1.390 . S
C979 H972 0.950 . S
C979 C976 1.387 . S
C980 C981 1.387 . S
C980 H984 0.950 . S
C980 C989 1.390 . S
C981 C980 1.387 . S
C981 C983 1.387 . S
H982 C989 0.950 . S
C983 C981 1.387 . S
C983 C985 1.390 . S
C983 H987 0.950 . S
H984 C980 0.950 . S
C985 C983 1.390 . S
C985 C986 1.387 . S
C985 H988 0.950 . S
C986 C985 1.387 . S
C986 C989 1.387 . S
H987 C983 0.950 . S
H988 C985 0.950 . S
C989 C980 1.390 . S
C989 H982 0.950 . S
C989 C986 1.387 . S
C990 C991 1.387 1_545 S
C990 H994 0.950 . S
C990 C999 1.390 . S
C991 C990 1.387 1_565 S
C991 C993 1.387 . S
H992 C999 0.950 . S
C993 C991 1.387 . S
C993 C995 1.390 . S
C993 H997 0.950 . S
H994 C990 0.950 . S
C995 C993 1.390 . S
C995 C996 1.387 . S
C995 H998 0.950 . S
C996 C995 1.387 . S
C996 C999 1.387 1_565 S
H997 C993 0.950 . S
H998 C995 0.950 . S
C999 C990 1.390 . S
C999 H992 0.950 . S
C999 C996 1.387 1_545 S
C1000 C1001 1.387 . S
C1000 H1004 0.950 . S
C1000 C1009 1.390 . S
C1001 C1000 1.387 . S
C1001 C1003 1.387 1_545 S
H1002 C1009 0.950 . S
C1003 C1001 1.387 1_565 S
C1003 C1005 1.390 . S
C1003 H1007 0.950 . S
H1004 C1000 0.950 . S
C1005 C1003 1.390 . S
C1005 C1006 1.387 1_565 S
C1005 H1008 0.950 . S
C1006 C1005 1.387 1_545 S
C1006 C1009 1.387 . S
H1007 C1003 0.950 . S
H1008 C1005 0.950 . S
C1009 C1000 1.390 . S
C1009 H1002 0.950 . S
C1009 C1006 1.387 . S
C1010 C1011 1.387 . S
C1010 H1014 0.950 . S
C1010 C1019 1.390 . S
C1011 C1010 1.387 . S
C1011 C1013 1.387 . S
H1012 C1019 0.950 . S
C1013 C1011 1.387 . S
C1013 C1015 1.390 . S
C1013 H1017 0.950 . S
H1014 C1010 0.950 . S
C1015 C1013 1.390 . S
C1015 C1016 1.387 . S
C1015 H1018 0.950 . S
C1016 C1015 1.387 . S
C1016 C1019 1.387 . S
H1017 C1013 0.950 . S
H1018 C1015 0.950 . S
C1019 C1010 1.390 . S
C1019 H1012 0.950 . S
C1019 C1016 1.387 . S
C1020 C1021 1.387 . S
C1020 H1024 0.950 . S
C1020 C1029 1.390 . S
C1021 C1020 1.387 . S
C1021 C1023 1.387 . S
H1022 C1029 0.950 . S
C1023 C1021 1.387 . S
C1023 C1025 1.390 . S
C1023 H1027 0.950 . S
H1024 C1020 0.950 . S
C1025 C1023 1.390 . S
C1025 C1026 1.387 . S
C1025 H1028 0.950 . S
C1026 C1025 1.387 . S
C1026 C1029 1.387 . S
H1027 C1023 0.950 . S
H1028 C1025 0.950 . S
C1029 C1020 1.390 . S
C1029 H1022 0.950 . S
C1029 C1026 1.387 . S
C1030 C1031 1.387 1_565 S
C1030 H1034 0.950 . S
C1030 C1039 1.390 . S
C1031 C1030 1.387 1_545 S
C1031 C1033 1.387 . S
H1032 C1039 0.950 . S
C1033 C1031 1.387 . S
C1033 C1035 1.390 . S
C1033 H1037 0.950 . S
H1034 C1030 0.950 . S
C1035 C1033 1.390 . S
C1035 C1036 1.387 . S
C1035 H1038 0.950 . S
C1036 C1035 1.387 . S
C1036 C1039 1.387 1_545 S
H1037 C1033 0.950 . S
H1038 C1035 0.950 . S
C1039 C1030 1.390 . S
C1039 H1032 0.950 . S
C1039 C1036 1.387 1_565 S
C1040 C1041 1.387 . S
C1040 H1044 0.950 . S
C1040 C1049 1.390 . S
C1041 C1040 1.387 . S
C1041 C1043 1.387 . S
H1042 C1049 0.950 . S
C1043 C1041 1.387 . S
C1043 C1045 1.390 . S
C1043 H1047 0.950 . S
H1044 C1040 0.950 . S
C1045 C1043 1.390 . S
C1045 C1046 1.387 . S
C1045 H1048 0.950 . S
C1046 C1045 1.387 . S
C1046 C1049 1.387 . S
H1047 C1043 0.950 . S
H1048 C1045 0.950 . S
C1049 C1040 1.390 . S
C1049 H1042 0.950 . S
C1049 C1046 1.387 . S
C1050 C1051 1.387 . S
C1050 H1054 0.950 . S
C1050 C1059 1.390 . S
C1051 C1050 1.387 . S
C1051 C1053 1.387 . S
H1052 C1059 0.950 . S
C1053 C1051 1.387 . S
C1053 C1055 1.390 . S
C1053 H1057 0.950 . S
H1054 C1050 0.950 . S
C1055 C1053 1.390 . S
C1055 C1056 1.387 . S
C1055 H1058 0.950 . S
C1056 C1055 1.387 . S
C1056 C1059 1.387 . S
H1057 C1053 0.950 . S
H1058 C1055 0.950 . S
C1059 C1050 1.390 . S
C1059 H1052 0.950 . S
C1059 C1056 1.387 . S
C1060 C1061 1.387 . S
C1060 H1064 0.950 . S
C1060 C1069 1.390 . S
C1061 C1060 1.387 . S
C1061 C1063 1.387 . S
H1062 C1069 0.950 . S
C1063 C1061 1.387 . S
C1063 C1065 1.390 . S
C1063 H1067 0.950 . S
H1064 C1060 0.950 . S
C1065 C1063 1.390 . S
C1065 C1066 1.387 . S
C1065 H1068 0.950 . S
C1066 C1065 1.387 . S
C1066 C1069 1.387 . S
H1067 C1063 0.950 . S
H1068 C1065 0.950 . S
C1069 C1060 1.390 . S
C1069 H1062 0.950 . S
C1069 C1066 1.387 . S
C1070 C1071 1.387 . S
C1070 H1074 0.950 . S
C1070 C1079 1.390 . S
C1071 C1070 1.387 . S
C1071 C1073 1.387 . S
H1072 C1079 0.950 . S
C1073 C1071 1.387 . S
C1073 C1075 1.390 . S
C1073 H1077 0.950 . S
H1074 C1070 0.950 . S
C1075 C1073 1.390 . S
C1075 C1076 1.387 . S
C1075 H1078 0.950 . S
C1076 C1075 1.387 . S
C1076 C1079 1.387 . S
H1077 C1073 0.950 . S
H1078 C1075 0.950 . S
C1079 C1070 1.390 . S
C1079 H1072 0.950 . S
C1079 C1076 1.387 . S
C1080 C1081 1.387 . S
C1080 H1084 0.950 . S
C1080 C1089 1.390 . S
C1081 C1080 1.387 . S
C1081 C1083 1.387 . S
H1082 C1089 0.950 . S
C1083 C1081 1.387 . S
C1083 C1085 1.390 . S
C1083 H1087 0.950 . S
H1084 C1080 0.950 . S
C1085 C1083 1.390 . S
C1085 C1086 1.387 . S
C1085 H1088 0.950 . S
C1086 C1085 1.387 . S
C1086 C1089 1.387 . S
H1087 C1083 0.950 . S
H1088 C1085 0.950 . S
C1089 C1080 1.390 . S
C1089 H1082 0.950 . S
C1089 C1086 1.387 . S
C1090 C1091 1.387 . S
C1090 H1094 0.950 . S
C1090 C1099 1.390 . S
C1091 C1090 1.387 . S
C1091 C1093 1.387 . S
H1092 C1099 0.950 . S
C1093 C1091 1.387 . S
C1093 C1095 1.390 . S
C1093 H1097 0.950 . S
H1094 C1090 0.950 . S
C1095 C1093 1.390 . S
C1095 C1096 1.387 . S
C1095 H1098 0.950 . S
C1096 C1095 1.387 . S
C1096 C1099 1.387 . S
H1097 C1093 0.950 . S
H1098 C1095 0.950 . S
C1099 C1090 1.390 . S
C1099 H1092 0.950 . S
C1099 C1096 1.387 . S
C1100 C1101 1.387 . S
C1100 H1104 0.950 . S
C1100 C1109 1.390 . S
C1101 C1100 1.387 . S
C1101 C1103 1.387 . S
H1102 C1109 0.950 . S
C1103 C1101 1.387 . S
C1103 C1105 1.390 . S
C1103 H1107 0.950 . S
H1104 C1100 0.950 . S
C1105 C1103 1.390 . S
C1105 C1106 1.387 . S
C1105 H1108 0.950 . S
C1106 C1105 1.387 . S
C1106 C1109 1.387 . S
H1107 C1103 0.950 . S
H1108 C1105 0.950 . S
C1109 C1100 1.390 . S
C1109 H1102 0.950 . S
C1109 C1106 1.387 . S
C1110 C1111 1.387 . S
C1110 H1114 0.950 . S
C1110 C1119 1.390 . S
C1111 C1110 1.387 . S
C1111 C1113 1.387 . S
H1112 C1119 0.950 . S
C1113 C1111 1.387 . S
C1113 C1115 1.390 . S
C1113 H1117 0.950 . S
H1114 C1110 0.950 . S
C1115 C1113 1.390 . S
C1115 C1116 1.387 . S
C1115 H1118 0.950 . S
C1116 C1115 1.387 . S
C1116 C1119 1.387 . S
H1117 C1113 0.950 . S
H1118 C1115 0.950 . S
C1119 C1110 1.390 . S
C1119 H1112 0.950 . S
C1119 C1116 1.387 . S
C1120 C1121 1.387 . S
C1120 H1124 0.950 . S
C1120 C1129 1.390 . S
C1121 C1120 1.387 . S
C1121 C1123 1.387 . S
H1122 C1129 0.950 . S
C1123 C1121 1.387 . S
C1123 C1125 1.390 . S
C1123 H1127 0.950 . S
H1124 C1120 0.950 . S
C1125 C1123 1.390 . S
C1125 C1126 1.387 . S
C1125 H1128 0.950 . S
C1126 C1125 1.387 . S
C1126 C1129 1.387 . S
H1127 C1123 0.950 . S
H1128 C1125 0.950 . S
C1129 C1120 1.390 . S
C1129 H1122 0.950 . S
C1129 C1126 1.387 . S
C1130 C1131 1.387 . S
C1130 H1134 0.950 . S
C1130 C1139 1.390 . S
C1131 C1130 1.387 . S
C1131 C1133 1.387 . S
H1132 C1139 0.950 . S
C1133 C1131 1.387 . S
C1133 C1135 1.390 . S
C1133 H1137 0.950 . S
H1134 C1130 0.950 . S
C1135 C1133 1.390 . S
C1135 C1136 1.387 . S
C1135 H1138 0.950 . S
C1136 C1135 1.387 . S
C1136 C1139 1.387 . S
H1137 C1133 0.950 . S
H1138 C1135 0.950 . S
C1139 C1130 1.390 . S
C1139 H1132 0.950 . S
C1139 C1136 1.387 . S
C1140 C1141 1.387 . S
C1140 H1144 0.950 . S
C1140 C1149 1.390 . S
C1141 C1140 1.387 . S
C1141 C1143 1.387 . S
H1142 C1149 0.950 . S
C1143 C1141 1.387 . S
C1143 C1145 1.390 . S
C1143 H1147 0.950 . S
H1144 C1140 0.950 . S
C1145 C1143 1.390 . S
C1145 C1146 1.387 . S
C1145 H1148 0.950 . S
C1146 C1145 1.387 . S
C1146 C1149 1.387 . S
H1147 C1143 0.950 . S
H1148 C1145 0.950 . S
C1149 C1140 1.390 . S
C1149 H1142 0.950 . S
C1149 C1146 1.387 . S
C1150 C1151 1.387 . S
C1150 H1154 0.950 . S
C1150 C1159 1.390 . S
C1151 C1150 1.387 . S
C1151 C1153 1.387 . S
H1152 C1159 0.950 . S
C1153 C1151 1.387 . S
C1153 C1155 1.390 . S
C1153 H1157 0.950 . S
H1154 C1150 0.950 . S
C1155 C1153 1.390 . S
C1155 C1156 1.387 . S
C1155 H1158 0.950 . S
C1156 C1155 1.387 . S
C1156 C1159 1.387 . S
H1157 C1153 0.950 . S
H1158 C1155 0.950 . S
C1159 C1150 1.390 . S
C1159 H1152 0.950 . S
C1159 C1156 1.387 . S
C1160 C1161 1.387 . S
C1160 H1164 0.950 . S
C1160 C1169 1.390 . S
C1161 C1160 1.387 . S
C1161 C1163 1.387 . S
H1162 C1169 0.950 . S
C1163 C1161 1.387 . S
C1163 C1165 1.390 . S
C1163 H1167 0.950 . S
H1164 C1160 0.950 . S
C1165 C1163 1.390 . S
C1165 C1166 1.387 . S
C1165 H1168 0.950 . S
C1166 C1165 1.387 . S
C1166 C1169 1.387 . S
H1167 C1163 0.950 . S
H1168 C1165 0.950 . S
C1169 C1160 1.390 . S
C1169 H1162 0.950 . S
C1169 C1166 1.387 . S
C1170 C1171 1.387 . S
C1170 H1174 0.950 . S
C1170 C1179 1.390 . S
C1171 C1170 1.387 . S
C1171 C1173 1.387 . S
H1172 C1179 0.950 . S
C1173 C1171 1.387 . S
C1173 C1175 1.390 . S
C1173 H1177 0.950 . S
H1174 C1170 0.950 . S
C1175 C1173 1.390 . S
C1175 C1176 1.387 . S
C1175 H1178 0.950 . S
C1176 C1175 1.387 . S
C1176 C1179 1.387 . S
H1177 C1173 0.950 . S
H1178 C1175 0.950 . S
C1179 C1170 1.390 . S
C1179 H1172 0.950 . S
C1179 C1176 1.387 . S
C1180 C1181 1.387 . S
C1180 H1184 0.950 . S
C1180 C1189 1.390 . S
C1181 C1180 1.387 . S
C1181 C1183 1.387 . S
H1182 C1189 0.950 . S
C1183 C1181 1.387 . S
C1183 C1185 1.390 . S
C1183 H1187 0.950 . S
H1184 C1180 0.950 . S
C1185 C1183 1.390 . S
C1185 C1186 1.387 . S
C1185 H1188 0.950 . S
C1186 C1185 1.387 . S
C1186 C1189 1.387 . S
H1187 C1183 0.950 . S
H1188 C1185 0.950 . S
C1189 C1180 1.390 . S
C1189 H1182 0.950 . S
C1189 C1186 1.387 . S
C1190 C1191 1.387 . S
C1190 H1194 0.950 . S
C1190 C1199 1.390 . S
C1191 C1190 1.387 . S
C1191 C1193 1.387 . S
H1192 C1199 0.950 . S
C1193 C1191 1.387 . S
C1193 C1195 1.390 . S
C1193 H1197 0.950 . S
H1194 C1190 0.950 . S
C1195 C1193 1.390 . S
C1195 C1196 1.387 . S
C1195 H1198 0.950 . S
C1196 C1195 1.387 . S
C1196 C1199 1.387 . S
H1197 C1193 0.950 . S
H1198 C1195 0.950 . S
C1199 C1190 1.390 . S
C1199 H1192 0.950 . S
C1199 C1196 1.387 . S
C1200 C1201 1.387 . S
C1200 H1204 0.950 . S
C1200 C1209 1.390 . S
C1201 C1200 1.387 . S
C1201 C1203 1.387 . S
H1202 C1209 0.950 . S
C1203 C1201 1.387 . S
C1203 C1205 1.390 . S
C1203 H1207 0.950 . S
H1204 C1200 0.950 . S
C1205 C1203 1.390 . S
C1205 C1206 1.387 . S
C1205 H1208 0.950 . S
C1206 C1205 1.387 . S
C1206 C1209 1.387 . S
H1207 C1203 0.950 . S
H1208 C1205 0.950 . S
C1209 C1200 1.390 . S
C1209 H1202 0.950 . S
C1209 C1206 1.387 . S
C1210 C1211 1.387 . S
C1210 H1214 0.950 . S
C1210 C1219 1.390 . S
C1211 C1210 1.387 . S
C1211 C1213 1.387 . S
H1212 C1219 0.950 . S
C1213 C1211 1.387 . S
C1213 C1215 1.390 . S
C1213 H1217 0.950 . S
H1214 C1210 0.950 . S
C1215 C1213 1.390 . S
C1215 C1216 1.387 . S
C1215 H1218 0.950 . S
C1216 C1215 1.387 . S
C1216 C1219 1.387 . S
H1217 C1213 0.950 . S
H1218 C1215 0.950 . S
C1219 C1210 1.390 . S
C1219 H1212 0.950 . S
C1219 C1216 1.387 . S
C1220 C1221 1.387 . S
C1220 H1224 0.950 . S
C1220 C1229 1.390 . S
C1221 C1220 1.387 . S
C1221 C1223 1.387 . S
H1222 C1229 0.950 . S
C1223 C1221 1.387 . S
C1223 C1225 1.390 . S
C1223 H1227 0.950 . S
H1224 C1220 0.950 . S
C1225 C1223 1.390 . S
C1225 C1226 1.387 . S
C1225 H1228 0.950 . S
C1226 C1225 1.387 . S
C1226 C1229 1.387 . S
H1227 C1223 0.950 . S
H1228 C1225 0.950 . S
C1229 C1220 1.390 . S
C1229 H1222 0.950 . S
C1229 C1226 1.387 . S
C1230 C1231 1.387 . S
C1230 H1234 0.950 . S
C1230 C1239 1.390 . S
C1231 C1230 1.387 . S
C1231 C1233 1.387 . S
H1232 C1239 0.950 . S
C1233 C1231 1.387 . S
C1233 C1235 1.390 . S
C1233 H1237 0.950 . S
H1234 C1230 0.950 . S
C1235 C1233 1.390 . S
C1235 C1236 1.387 . S
C1235 H1238 0.950 . S
C1236 C1235 1.387 . S
C1236 C1239 1.387 . S
H1237 C1233 0.950 . S
H1238 C1235 0.950 . S
C1239 C1230 1.390 . S
C1239 H1232 0.950 . S
C1239 C1236 1.387 . S
C1240 C1241 1.387 . S
C1240 H1244 0.950 . S
C1240 C1249 1.390 . S
C1241 C1240 1.387 . S
C1241 C1243 1.387 . S
H1242 C1249 0.950 . S
C1243 C1241 1.387 . S
C1243 C1245 1.390 . S
C1243 H1247 0.950 . S
H1244 C1240 0.950 . S
C1245 C1243 1.390 . S
C1245 C1246 1.387 . S
C1245 H1248 0.950 . S
C1246 C1245 1.387 . S
C1246 C1249 1.387 . S
H1247 C1243 0.950 . S
H1248 C1245 0.950 . S
C1249 C1240 1.390 . S
C1249 H1242 0.950 . S
C1249 C1246 1.387 . S
C1250 C1251 1.387 . S
C1250 H1254 0.950 . S
C1250 C1259 1.390 . S
C1251 C1250 1.387 . S
C1251 C1253 1.387 . S
H1252 C1259 0.950 . S
C1253 C1251 1.387 . S
C1253 C1255 1.390 . S
C1253 H1257 0.950 . S
H1254 C1250 0.950 . S
C1255 C1253 1.390 . S
C1255 C1256 1.387 . S
C1255 H1258 0.950 . S
C1256 C1255 1.387 . S
C1256 C1259 1.387 . S
H1257 C1253 0.950 . S
H1258 C1255 0.950 . S
C1259 C1250 1.390 . S
C1259 H1252 0.950 . S
C1259 C1256 1.387 . S
C1260 C1261 1.387 . S
C1260 H1264 0.950 . S
C1260 C1269 1.390 . S
C1261 C1260 1.387 . S
C1261 C1263 1.387 . S
H1262 C1269 0.950 . S
C1263 C1261 1.387 . S
C1263 C1265 1.390 . S
C1263 H1267 0.950 . S
H1264 C1260 0.950 . S
C1265 C1263 1.390 . S
C1265 C1266 1.387 . S
C1265 H1268 0.950 . S
C1266 C1265 1.387 . S
C1266 C1269 1.387 . S
H1267 C1263 0.950 . S
H1268 C1265 0.950 . S
C1269 C1260 1.390 . S
C1269 H1262 0.950 . S
C1269 C1266 1.387 . S
C1270 C1271 1.387 . S
C1270 H1274 0.950 . S
C1270 C1279 1.390 . S
C1271 C1270 1.387 . S
C1271 C1273 1.387 . S
H1272 C1279 0.950 . S
C1273 C1271 1.387 . S
C1273 C1275 1.390 . S
C1273 H1277 0.950 . S
H1274 C1270 0.950 . S
C1275 C1273 1.390 . S
C1275 C1276 1.387 . S
C1275 H1278 0.950 . S
C1276 C1275 1.387 . S
C1276 C1279 1.387 . S
H1277 C1273 0.950 . S
H1278 C1275 0.950 . S
C1279 C1270 1.390 . S
C1279 H1272 0.950 . S
C1279 C1276 1.387 . S
C1280 C1281 1.387 . S
C1280 H1284 0.950 . S
C1280 C1289 1.390 . S
C1281 C1280 1.387 . S
C1281 C1283 1.387 1_565 S
H1282 C1289 0.950 . S
C1283 C1281 1.387 1_545 S
C1283 C1285 1.390 . S
C1283 H1287 0.950 . S
H1284 C1280 0.950 . S
C1285 C1283 1.390 . S
C1285 C1286 1.387 1_545 S
C1285 H1288 0.950 . S
C1286 C1285 1.387 1_565 S
C1286 C1289 1.387 . S
H1287 C1283 0.950 . S
H1288 C1285 0.950 . S
C1289 C1280 1.390 . S
C1289 H1282 0.950 . S
C1289 C1286 1.387 . S
C1290 C1291 1.387 . S
C1290 H1294 0.950 . S
C1290 C1299 1.390 . S
C1291 C1290 1.387 . S
C1291 C1293 1.387 . S
H1292 C1299 0.950 . S
C1293 C1291 1.387 . S
C1293 C1295 1.390 . S
C1293 H1297 0.950 . S
H1294 C1290 0.950 . S
C1295 C1293 1.390 . S
C1295 C1296 1.387 . S
C1295 H1298 0.950 . S
C1296 C1295 1.387 . S
C1296 C1299 1.387 . S
H1297 C1293 0.950 . S
H1298 C1295 0.950 . S
C1299 C1290 1.390 . S
C1299 H1292 0.950 . S
C1299 C1296 1.387 . S
C1300 C1301 1.387 . S
C1300 H1304 0.950 . S
C1300 C1309 1.390 . S
C1301 C1300 1.387 . S
C1301 C1303 1.387 . S
H1302 C1309 0.950 . S
C1303 C1301 1.387 . S
C1303 C1305 1.390 . S
C1303 H1307 0.950 . S
H1304 C1300 0.950 . S
C1305 C1303 1.390 . S
C1305 C1306 1.387 . S
C1305 H1308 0.950 . S
C1306 C1305 1.387 . S
C1306 C1309 1.387 . S
H1307 C1303 0.950 . S
H1308 C1305 0.950 . S
C1309 C1300 1.390 . S
C1309 H1302 0.950 . S
C1309 C1306 1.387 . S
C1310 C1311 1.387 1_545 S
C1310 H1314 0.950 . S
C1310 C1319 1.390 . S
C1311 C1310 1.387 1_565 S
C1311 C1313 1.387 . S
H1312 C1319 0.950 . S
C1313 C1311 1.387 . S
C1313 C1315 1.390 . S
C1313 H1317 0.950 . S
H1314 C1310 0.950 . S
C1315 C1313 1.390 . S
C1315 C1316 1.387 . S
C1315 H1318 0.950 . S
C1316 C1315 1.387 . S
C1316 C1319 1.387 1_565 S
H1317 C1313 0.950 . S
H1318 C1315 0.950 . S
C1319 C1310 1.390 . S
C1319 H1312 0.950 . S
C1319 C1316 1.387 1_545 S
C1320 C1321 1.387 . S
C1320 H1324 0.950 . S
C1320 C1329 1.390 . S
C1321 C1320 1.387 . S
C1321 C1323 1.387 1_545 S
H1322 C1329 0.950 . S
C1323 C1321 1.387 1_565 S
C1323 C1325 1.390 . S
C1323 H1327 0.950 . S
H1324 C1320 0.950 . S
C1325 C1323 1.390 . S
C1325 C1326 1.387 1_565 S
C1325 H1328 0.950 . S
C1326 C1325 1.387 1_545 S
C1326 C1329 1.387 . S
H1327 C1323 0.950 . S
H1328 C1325 0.950 . S
C1329 C1320 1.390 . S
C1329 H1322 0.950 . S
C1329 C1326 1.387 . S
C1330 C1331 1.387 . S
C1330 H1334 0.950 . S
C1330 C1339 1.390 . S
C1331 C1330 1.387 . S
C1331 C1333 1.387 . S
H1332 C1339 0.950 . S
C1333 C1331 1.387 . S
C1333 C1335 1.390 . S
C1333 H1337 0.950 . S
H1334 C1330 0.950 . S
C1335 C1333 1.390 . S
C1335 C1336 1.387 . S
C1335 H1338 0.950 . S
C1336 C1335 1.387 . S
C1336 C1339 1.387 . S
H1337 C1333 0.950 . S
H1338 C1335 0.950 . S
C1339 C1330 1.390 . S
C1339 H1332 0.950 . S
C1339 C1336 1.387 . S
C1340 C1341 1.387 . S
C1340 H1344 0.950 . S
C1340 C1349 1.390 . S
C1341 C1340 1.387 . S
C1341 C1343 1.387 . S
H1342 C1349 0.950 . S
C1343 C1341 1.387 . S
C1343 C1345 1.390 . S
C1343 H1347 0.950 . S
H1344 C1340 0.950 . S
C1345 C1343 1.390 . S
C1345 C1346 1.387 . S
C1345 H1348 0.950 . S
C1346 C1345 1.387 . S
C1346 C1349 1.387 . S
H1347 C1343 0.950 . S
H1348 C1345 0.950 . S
C1349 C1340 1.390 . S
C1349 H1342 0.950 . S
C1349 C1346 1.387 . S
C1350 C1351 1.387 . S
C1350 H1354 0.950 . S
C1350 C1359 1.390 . S
C1351 C1350 1.387 . S
C1351 C1353 1.387 1_545 S
H1352 C1359 0.950 . S
C1353 C1351 1.387 1_565 S
C1353 C1355 1.390 . S
C1353 H1357 0.950 . S
H1354 C1350 0.950 . S
C1355 C1353 1.390 . S
C1355 C1356 1.387 1_565 S
C1355 H1358 0.950 . S
C1356 C1355 1.387 1_545 S
C1356 C1359 1.387 . S
H1357 C1353 0.950 . S
H1358 C1355 0.950 . S
C1359 C1350 1.390 . S
C1359 H1352 0.950 . S
C1359 C1356 1.387 . S
C1360 C1361 1.387 . S
C1360 H1364 0.950 . S
C1360 C1369 1.390 . S
C1361 C1360 1.387 . S
C1361 C1363 1.387 . S
H1362 C1369 0.950 . S
C1363 C1361 1.387 . S
C1363 C1365 1.390 . S
C1363 H1367 0.950 . S
H1364 C1360 0.950 . S
C1365 C1363 1.390 . S
C1365 C1366 1.387 . S
C1365 H1368 0.950 . S
C1366 C1365 1.387 . S
C1366 C1369 1.387 . S
H1367 C1363 0.950 . S
H1368 C1365 0.950 . S
C1369 C1360 1.390 . S
C1369 H1362 0.950 . S
C1369 C1366 1.387 . S
C1370 C1371 1.387 . S
C1370 H1374 0.950 . S
C1370 C1379 1.390 . S
C1371 C1370 1.387 . S
C1371 C1373 1.387 . S
H1372 C1379 0.950 . S
C1373 C1371 1.387 . S
C1373 C1375 1.390 . S
C1373 H1377 0.950 . S
H1374 C1370 0.950 . S
C1375 C1373 1.390 . S
C1375 C1376 1.387 . S
C1375 H1378 0.950 . S
C1376 C1375 1.387 . S
C1376 C1379 1.387 . S
H1377 C1373 0.950 . S
H1378 C1375 0.950 . S
C1379 C1370 1.390 . S
C1379 H1372 0.950 . S
C1379 C1376 1.387 . S
C1380 C1381 1.387 . S
C1380 H1384 0.950 . S
C1380 C1389 1.390 . S
C1381 C1380 1.387 . S
C1381 C1383 1.387 . S
H1382 C1389 0.950 . S
C1383 C1381 1.387 . S
C1383 C1385 1.390 . S
C1383 H1387 0.950 . S
H1384 C1380 0.950 . S
C1385 C1383 1.390 . S
C1385 C1386 1.387 . S
C1385 H1388 0.950 . S
C1386 C1385 1.387 . S
C1386 C1389 1.387 . S
H1387 C1383 0.950 . S
H1388 C1385 0.950 . S
C1389 C1380 1.390 . S
C1389 H1382 0.950 . S
C1389 C1386 1.387 . S
C1390 C1391 1.387 . S
C1390 H1394 0.950 . S
C1390 C1399 1.390 . S
C1391 C1390 1.387 . S
C1391 C1393 1.387 . S
H1392 C1399 0.950 . S
C1393 C1391 1.387 . S
C1393 C1395 1.390 . S
C1393 H1397 0.950 . S
H1394 C1390 0.950 . S
C1395 C1393 1.390 . S
C1395 C1396 1.387 . S
C1395 H1398 0.950 . S
C1396 C1395 1.387 . S
C1396 C1399 1.387 . S
H1397 C1393 0.950 . S
H1398 C1395 0.950 . S
C1399 C1390 1.390 . S
C1399 H1392 0.950 . S
C1399 C1396 1.387 . S
C1400 C1401 1.387 . S
C1400 H1404 0.950 . S
C1400 C1409 1.390 . S
C1401 C1400 1.387 . S
C1401 C1403 1.387 . S
H1402 C1409 0.950 . S
C1403 C1401 1.387 . S
C1403 C1405 1.390 . S
C1403 H1407 0.950 . S
H1404 C1400 0.950 . S
C1405 C1403 1.390 . S
C1405 C1406 1.387 . S
C1405 H1408 0.950 . S
C1406 C1405 1.387 . S
C1406 C1409 1.387 . S
H1407 C1403 0.950 . S
H1408 C1405 0.950 . S
C1409 C1400 1.390 . S
C1409 H1402 0.950 . S
C1409 C1406 1.387 . S
C1410 C1411 1.387 . S
C1410 H1414 0.950 . S
C1410 C1419 1.390 . S
C1411 C1410 1.387 . S
C1411 C1413 1.387 . S
H1412 C1419 0.950 . S
C1413 C1411 1.387 . S
C1413 C1415 1.390 . S
C1413 H1417 0.950 . S
H1414 C1410 0.950 . S
C1415 C1413 1.390 . S
C1415 C1416 1.387 . S
C1415 H1418 0.950 . S
C1416 C1415 1.387 . S
C1416 C1419 1.387 . S
H1417 C1413 0.950 . S
H1418 C1415 0.950 . S
C1419 C1410 1.390 . S
C1419 H1412 0.950 . S
C1419 C1416 1.387 . S
C1420 C1421 1.387 . S
C1420 H1424 0.950 . S
C1420 C1429 1.390 . S
C1421 C1420 1.387 . S
C1421 C1423 1.387 . S
H1422 C1429 0.950 . S
C1423 C1421 1.387 . S
C1423 C1425 1.390 . S
C1423 H1427 0.950 . S
H1424 C1420 0.950 . S
C1425 C1423 1.390 . S
C1425 C1426 1.387 . S
C1425 H1428 0.950 . S
C1426 C1425 1.387 . S
C1426 C1429 1.387 . S
H1427 C1423 0.950 . S
H1428 C1425 0.950 . S
C1429 C1420 1.390 . S
C1429 H1422 0.950 . S
C1429 C1426 1.387 . S
C1430 C1431 1.387 . S
C1430 H1434 0.950 . S
C1430 C1439 1.390 . S
C1431 C1430 1.387 . S
C1431 C1433 1.387 . S
H1432 C1439 0.950 . S
C1433 C1431 1.387 . S
C1433 C1435 1.390 . S
C1433 H1437 0.950 . S
H1434 C1430 0.950 . S
C1435 C1433 1.390 . S
C1435 C1436 1.387 . S
C1435 H1438 0.950 . S
C1436 C1435 1.387 . S
C1436 C1439 1.387 . S
H1437 C1433 0.950 . S
H1438 C1435 0.950 . S
C1439 C1430 1.390 . S
C1439 H1432 0.950 . S
C1439 C1436 1.387 . S
C1440 C1441 1.387 1_545 S
C1440 H1444 0.950 . S
C1440 C1449 1.390 . S
C1441 C1440 1.387 1_565 S
C1441 C1443 1.387 . S
H1442 C1449 0.950 . S
C1443 C1441 1.387 . S
C1443 C1445 1.390 . S
C1443 H1447 0.950 . S
H1444 C1440 0.950 . S
C1445 C1443 1.390 . S
C1445 C1446 1.387 . S
C1445 H1448 0.950 . S
C1446 C1445 1.387 . S
C1446 C1449 1.387 1_565 S
H1447 C1443 0.950 . S
H1448 C1445 0.950 . S
C1449 C1440 1.390 . S
C1449 H1442 0.950 . S
C1449 C1446 1.387 1_545 S
C1450 C1451 1.387 . S
C1450 H1454 0.950 . S
C1450 C1459 1.390 . S
C1451 C1450 1.387 . S
C1451 C1453 1.387 . S
H1452 C1459 0.950 . S
C1453 C1451 1.387 . S
C1453 C1455 1.390 . S
C1453 H1457 0.950 . S
H1454 C1450 0.950 . S
C1455 C1453 1.390 . S
C1455 C1456 1.387 . S
C1455 H1458 0.950 . S
C1456 C1455 1.387 . S
C1456 C1459 1.387 . S
H1457 C1453 0.950 . S
H1458 C1455 0.950 . S
C1459 C1450 1.390 . S
C1459 H1452 0.950 . S
C1459 C1456 1.387 . S
C1460 C1461 1.387 . S
C1460 H1464 0.950 . S
C1460 C1469 1.390 . S
C1461 C1460 1.387 . S
C1461 C1463 1.387 . S
H1462 C1469 0.950 . S
C1463 C1461 1.387 . S
C1463 C1465 1.390 . S
C1463 H1467 0.950 . S
H1464 C1460 0.950 . S
C1465 C1463 1.390 . S
C1465 C1466 1.387 . S
C1465 H1468 0.950 . S
C1466 C1465 1.387 . S
C1466 C1469 1.387 . S
H1467 C1463 0.950 . S
H1468 C1465 0.950 . S
C1469 C1460 1.390 . S
C1469 H1462 0.950 . S
C1469 C1466 1.387 . S
C1470 C1471 1.387 . S
C1470 H1474 0.950 . S
C1470 C1479 1.390 . S
C1471 C1470 1.387 . S
C1471 C1473 1.387 1_565 S
H1472 C1479 0.950 . S
C1473 C1471 1.387 1_545 S
C1473 C1475 1.390 . S
C1473 H1477 0.950 . S
H1474 C1470 0.950 . S
C1475 C1473 1.390 . S
C1475 C1476 1.387 1_545 S
C1475 H1478 0.950 . S
C1476 C1475 1.387 1_565 S
C1476 C1479 1.387 . S
H1477 C1473 0.950 . S
H1478 C1475 0.950 . S
C1479 C1470 1.390 . S
C1479 H1472 0.950 . S
C1479 C1476 1.387 . S
C1480 C1481 1.387 . S
C1480 H1484 0.950 . S
C1480 C1489 1.390 . S
C1481 C1480 1.387 . S
C1481 C1483 1.387 1_545 S
H1482 C1489 0.950 . S
C1483 C1481 1.387 1_565 S
C1483 C1485 1.390 . S
C1483 H1487 0.950 . S
H1484 C1480 0.950 . S
C1485 C1483 1.390 . S
C1485 C1486 1.387 1_565 S
C1485 H1488 0.950 . S
C1486 C1485 1.387 1_545 S
C1486 C1489 1.387 . S
H1487 C1483 0.950 . S
H1488 C1485 0.950 . S
C1489 C1480 1.390 . S
C1489 H1482 0.950 . S
C1489 C1486 1.387 . S
C1490 C1491 1.387 . S
C1490 H1494 0.950 . S
C1490 C1499 1.390 . S
C1491 C1490 1.387 . S
C1491 C1493 1.387 . S
H1492 C1499 0.950 . S
C1493 C1491 1.387 . S
C1493 C1495 1.390 . S
C1493 H1497 0.950 . S
H1494 C1490 0.950 . S
C1495 C1493 1.390 . S
C1495 C1496 1.387 . S
C1495 H1498 0.950 . S
C1496 C1495 1.387 . S
C1496 C1499 1.387 . S
H1497 C1493 0.950 . S
H1498 C1495 0.950 . S
C1499 C1490 1.390 . S
C1499 H1492 0.950 . S
C1499 C1496 1.387 . S
C1500 C1501 1.387 . S
C1500 H1504 0.950 . S
C1500 C1509 1.390 . S
C1501 C1500 1.387 . S
C1501 C1503 1.387 . S
H1502 C1509 0.950 . S
C1503 C1501 1.387 . S
C1503 C1505 1.390 . S
C1503 H1507 0.950 . S
H1504 C1500 0.950 . S
C1505 C1503 1.390 . S
C1505 C1506 1.387 . S
C1505 H1508 0.950 . S
C1506 C1505 1.387 . S
C1506 C1509 1.387 . S
H1507 C1503 0.950 . S
H1508 C1505 0.950 . S
C1509 C1500 1.390 . S
C1509 H1502 0.950 . S
C1509 C1506 1.387 . S
C1510 C1511 1.387 1_565 S
C1510 H1514 0.950 . S
C1510 C1519 1.390 . S
C1511 C1510 1.387 1_545 S
C1511 C1513 1.387 . S
H1512 C1519 0.950 . S
C1513 C1511 1.387 . S
C1513 C1515 1.390 . S
C1513 H1517 0.950 . S
H1514 C1510 0.950 . S
C1515 C1513 1.390 . S
C1515 C1516 1.387 . S
C1515 H1518 0.950 . S
C1516 C1515 1.387 . S
C1516 C1519 1.387 1_545 S
H1517 C1513 0.950 . S
H1518 C1515 0.950 . S
C1519 C1510 1.390 . S
C1519 H1512 0.950 . S
C1519 C1516 1.387 1_565 S
C1520 C1521 1.387 . S
C1520 H1524 0.950 . S
C1520 C1529 1.390 . S
C1521 C1520 1.387 . S
C1521 C1523 1.387 . S
H1522 C1529 0.950 . S
C1523 C1521 1.387 . S
C1523 C1525 1.390 . S
C1523 H1527 0.950 . S
H1524 C1520 0.950 . S
C1525 C1523 1.390 . S
C1525 C1526 1.387 . S
C1525 H1528 0.950 . S
C1526 C1525 1.387 . S
C1526 C1529 1.387 . S
H1527 C1523 0.950 . S
H1528 C1525 0.950 . S
C1529 C1520 1.390 . S
C1529 H1522 0.950 . S
C1529 C1526 1.387 . S
C1530 C1531 1.387 . S
C1530 H1534 0.950 . S
C1530 C1539 1.390 . S
C1531 C1530 1.387 . S
C1531 C1533 1.387 . S
H1532 C1539 0.950 . S
C1533 C1531 1.387 . S
C1533 C1535 1.390 . S
C1533 H1537 0.950 . S
H1534 C1530 0.950 . S
C1535 C1533 1.390 . S
C1535 C1536 1.387 . S
C1535 H1538 0.950 . S
C1536 C1535 1.387 . S
C1536 C1539 1.387 . S
H1537 C1533 0.950 . S
H1538 C1535 0.950 . S
C1539 C1530 1.390 . S
C1539 H1532 0.950 . S
C1539 C1536 1.387 . S
C1540 C1541 1.387 . S
C1540 H1544 0.950 . S
C1540 C1549 1.390 . S
C1541 C1540 1.387 . S
C1541 C1543 1.387 . S
H1542 C1549 0.950 . S
C1543 C1541 1.387 . S
C1543 C1545 1.390 . S
C1543 H1547 0.950 . S
H1544 C1540 0.950 . S
C1545 C1543 1.390 . S
C1545 C1546 1.387 . S
C1545 H1548 0.950 . S
C1546 C1545 1.387 . S
C1546 C1549 1.387 . S
H1547 C1543 0.950 . S
H1548 C1545 0.950 . S
C1549 C1540 1.390 . S
C1549 H1542 0.950 . S
C1549 C1546 1.387 . S
C1550 C1551 1.387 . S
C1550 H1554 0.950 . S
C1550 C1559 1.390 . S
C1551 C1550 1.387 . S
C1551 C1553 1.387 . S
H1552 C1559 0.950 . S
C1553 C1551 1.387 . S
C1553 C1555 1.390 . S
C1553 H1557 0.950 . S
H1554 C1550 0.950 . S
C1555 C1553 1.390 . S
C1555 C1556 1.387 . S
C1555 H1558 0.950 . S
C1556 C1555 1.387 . S
C1556 C1559 1.387 . S
H1557 C1553 0.950 . S
H1558 C1555 0.950 . S
C1559 C1550 1.390 . S
C1559 H1552 0.950 . S
C1559 C1556 1.387 . S
C1560 C1561 1.387 . S
C1560 H1564 0.950 . S
C1560 C1569 1.390 . S
C1561 C1560 1.387 . S
C1561 C1563 1.387 . S
H1562 C1569 0.950 . S
C1563 C1561 1.387 . S
C1563 C1565 1.390 . S
C1563 H1567 0.950 . S
H1564 C1560 0.950 . S
C1565 C1563 1.390 . S
C1565 C1566 1.387 . S
C1565 H1568 0.950 . S
C1566 C1565 1.387 . S
C1566 C1569 1.387 . S
H1567 C1563 0.950 . S
H1568 C1565 0.950 . S
C1569 C1560 1.390 . S
C1569 H1562 0.950 . S
C1569 C1566 1.387 . S
C1570 C1571 1.387 . S
C1570 H1574 0.950 . S
C1570 C1579 1.390 . S
C1571 C1570 1.387 . S
C1571 C1573 1.387 . S
H1572 C1579 0.950 . S
C1573 C1571 1.387 . S
C1573 C1575 1.390 . S
C1573 H1577 0.950 . S
H1574 C1570 0.950 . S
C1575 C1573 1.390 . S
C1575 C1576 1.387 . S
C1575 H1578 0.950 . S
C1576 C1575 1.387 . S
C1576 C1579 1.387 . S
H1577 C1573 0.950 . S
H1578 C1575 0.950 . S
C1579 C1570 1.390 . S
C1579 H1572 0.950 . S
C1579 C1576 1.387 . S
C1580 C1581 1.387 . S
C1580 H1584 0.950 . S
C1580 C1589 1.390 . S
C1581 C1580 1.387 . S
C1581 C1583 1.387 . S
H1582 C1589 0.950 . S
C1583 C1581 1.387 . S
C1583 C1585 1.390 . S
C1583 H1587 0.950 . S
H1584 C1580 0.950 . S
C1585 C1583 1.390 . S
C1585 C1586 1.387 . S
C1585 H1588 0.950 . S
C1586 C1585 1.387 . S
C1586 C1589 1.387 . S
H1587 C1583 0.950 . S
H1588 C1585 0.950 . S
C1589 C1580 1.390 . S
C1589 H1582 0.950 . S
C1589 C1586 1.387 . S
C1590 C1591 1.387 . S
C1590 H1594 0.950 . S
C1590 C1599 1.390 . S
C1591 C1590 1.387 . S
C1591 C1593 1.387 . S
H1592 C1599 0.950 . S
C1593 C1591 1.387 . S
C1593 C1595 1.390 . S
C1593 H1597 0.950 . S
H1594 C1590 0.950 . S
C1595 C1593 1.390 . S
C1595 C1596 1.387 . S
C1595 H1598 0.950 . S
C1596 C1595 1.387 . S
C1596 C1599 1.387 . S
H1597 C1593 0.950 . S
H1598 C1595 0.950 . S
C1599 C1590 1.390 . S
C1599 H1592 0.950 . S
C1599 C1596 1.387 . S
C641 C509 1.682 . S
C646 C9 1.686 . S
C651 C489 1.680 . S
C656 C29 1.680 . S
C661 C549 1.681 . S
C666 C49 1.681 . S
C671 C529 1.684 . S
C676 C69 1.688 . S
C681 C81 1.684 . S
C686 C581 1.688 . S
C691 C101 1.680 . S
C696 C561 1.680 . S
C701 C121 1.681 . S
C706 C621 1.681 . S
C711 C601 1.682 . S
C716 C141 1.686 . S
C721 C349 1.680 . S
C726 C169 1.680 . S
C731 C329 1.684 . S
C736 C189 1.688 . S
C741 C389 1.684 . S
C746 C209 1.688 . S
C751 C369 1.680 . S
C756 C229 1.680 . S
C761 C241 1.681 . S
C766 C421 1.681 . S
C771 C401 1.682 . S
C776 C261 1.686 . S
C781 C281 1.684 . S
C786 C461 1.688 . S
C791 C441 1.681 . S
C796 C301 1.681 . S
C801 C19 2.511 1_545 S
C806 C408 2.510 1_565 S
C811 C268 2.514 . S
C816 C39 2.514 . S
C821 C608 2.514 . S
C826 C59 2.514 . S
C831 C79 2.514 1_545 S
C836 C148 2.512 1_565 S
C841 C88 2.511 1_565 S
C846 C339 2.510 1_545 S
C851 C108 2.514 . S
C856 C199 2.514 . S
C861 C128 2.514 . S
C866 C539 2.514 . S
C871 C568 2.514 . S
C876 C179 2.514 . S
C881 C448 2.514 . S
C886 C219 2.514 . S
C891 C308 2.511 . S
C896 C239 2.511 . S
C901 C499 2.511 . S
C906 C248 2.511 . S
C911 C288 2.511 . S
C916 C379 2.511 . S
C921 C588 2.511 . S
C926 C359 2.511 . S
C931 C399 2.514 1_545 S
C936 C468 2.512 1_565 S
C941 C519 2.511 . S
C946 C428 2.511 . S
C951 C559 2.514 . S
C956 C628 2.514 . S
C961 C8 2.443 1_565 S
C966 C388 2.443 1_565 S
C971 C28 2.444 . S
C976 C368 2.444 . S
C981 C48 2.444 . S
C986 C348 2.444 . S
C991 C68 2.444 1_565 S
C996 C328 2.444 1_565 S
C1001 C99 2.444 1_545 S
C1006 C479 2.444 1_545 S
C1011 C119 2.442 . S
C1016 C459 2.442 . S
C1021 C139 2.442 . S
C1026 C439 2.442 . S
C1031 C159 2.443 1_545 S
C1036 C419 2.443 1_545 S
C1041 C168 2.443 . S
C1046 C548 2.443 . S
C1051 C188 2.444 . S
C1056 C528 2.444 . S
C1061 C208 2.442 . S
C1066 C508 2.442 . S
C1071 C228 2.445 . S
C1076 C488 2.445 . S
C1081 C639 2.443 . S
C1086 C259 2.443 . S
C1091 C619 2.442 . S
C1096 C279 2.442 . S
C1101 C599 2.442 . S
C1106 C299 2.442 . S
C1111 C579 2.443 . S
C1116 C319 2.443 . S
C1121 C41 1.673 . S
C1126 C1 1.670 . S
C1131 C61 1.673 . S
C1136 C21 1.670 . S
C1141 C129 1.673 . S
C1146 C89 1.670 . S
C1151 C109 1.673 . S
C1156 C149 1.670 . S
C1161 C201 1.676 . S
C1166 C161 1.676 . S
C1171 C181 1.676 . S
C1176 C221 1.676 . S
C1181 C289 1.676 . S
C1186 C249 1.676 . S
C1191 C269 1.676 . S
C1196 C309 1.676 . S
C1201 C321 1.673 . S
C1206 C361 1.670 . S
C1211 C341 1.673 . S
C1216 C381 1.670 . S
C1221 C449 1.673 . S
C1226 C409 1.670 . S
C1231 C429 1.673 . S
C1236 C469 1.670 . S
C1241 C481 1.676 . S
C1246 C521 1.676 . S
C1251 C541 1.676 . S
C1256 C501 1.676 . S
C1261 C569 1.676 . S
C1266 C609 1.676 . S
C1271 C589 1.676 . S
C1276 C629 1.676 . S
C1281 C16 0.788 . S
C1286 C156 0.788 . S
C1291 C616 0.779 . S
C1296 C36 0.780 1_455 S
C1301 C56 0.788 . S
C1306 C276 0.788 . S
C1311 C76 0.780 1_455 S
C1316 C416 0.779 . S
C1321 C66 0.779 . S
C1326 C86 0.779 . S
C1331 C106 0.790 1_655 S
C1336 C526 0.788 . S
C1341 C186 0.779 . S
C1346 C126 0.779 . S
C1351 C326 0.779 . S
C1356 C146 0.780 1_655 S
C1361 C176 0.788 . S
C1366 C316 0.788 . S
C1371 C456 0.779 . S
C1376 C196 0.780 1_455 S
C1381 C216 0.788 . S
C1386 C116 0.788 . S
C1391 C576 0.782 . S
C1396 C236 0.784 1_455 S
C1401 C246 0.788 . S
C1406 C226 0.788 . S
C1411 C266 0.780 1_655 S
C1416 C366 0.779 . S
C1421 C286 0.779 . S
C1426 C26 0.779 . S
C1431 C486 0.779 . S
C1436 C306 0.780 1_655 S
C1441 C336 0.779 . S
C1446 C476 0.779 . S
C1451 C356 0.779 . S
C1456 C296 0.779 . S
C1461 C376 0.788 . S
C1466 C596 0.788 . S
C1471 C396 0.788 . S
C1476 C96 0.788 . S
C1481 C406 0.779 . S
C1486 C386 0.779 . S
C1491 C206 0.788 . S
C1496 C426 0.788 . S
C1501 C506 0.788 . S
C1506 C446 0.788 . S
C1511 C466 0.788 . S
C1516 C6 0.788 . S
C1521 C636 0.779 . S
C1526 C496 0.779 . S
C1531 C136 0.788 . S
C1536 C516 0.788 . S
C1541 C436 0.788 . S
C1546 C536 0.788 . S
C1551 C556 0.779 . S
C1556 C256 0.779 . S
C1561 C546 0.779 . S
C1566 C566 0.779 . S
C1571 C46 0.788 . S
C1576 C586 0.788 . S
C1581 C346 0.788 . S
C1586 C606 0.788 . S
C1591 C626 0.779 . S
C1596 C166 0.779 . S
