# Generated by pormake.
# Topology qtz-x, (6)-cn, num edge types: 1
# Building blocks:
#     Node 0, Type 0, BuildingBlock: INOVEN_clean_sbu_0, # of connection points: 6
#     Node 1, Type 0, BuildingBlock: INOVEN_clean_sbu_0, # of connection points: 6
#     Node 2, Type 0, BuildingBlock: INOVEN_clean_sbu_0, # of connection points: 6
#     Edge 3, Type (0, 0), BuildingBlock: XIVTED_clean_linker_0, # of connection points: 2
#     Edge 4, Type (0, 0), BuildingBlock: XIVTED_clean_linker_0, # of connection points: 2
#     Edge 5, Type (0, 0), BuildingBlock: XIVTED_clean_linker_0, # of connection points: 2
#     Edge 6, Type (0, 0), BuildingBlock: XIVTED_clean_linker_0, # of connection points: 2
#     Edge 7, Type (0, 0), BuildingBlock: XIVTED_clean_linker_0, # of connection points: 2
#     Edge 8, Type (0, 0), BuildingBlock: XIVTED_clean_linker_0, # of connection points: 2
#     Edge 9, Type (0, 0), BuildingBlock: XIVTED_clean_linker_0, # of connection points: 2
#     Edge 10, Type (0, 0), BuildingBlock: XIVTED_clean_linker_0, # of connection points: 2
#     Edge 11, Type (0, 0), BuildingBlock: XIVTED_clean_linker_0, # of connection points: 2
# Relax obj value: 0.223
# Max RMSD: 0.267
# Mean RMSD: 0.239
data_MOF--net-qtz-x--node1-INOVEN_clean_sbu_0--edge1-XIVTED_clean_linker_0
_symmetry_space_group_name_H-M    P1
_symmetry_Int_Tables_number       1
_symmetry_cell_setting            triclinic
loop_
_symmetry_equiv_pos_as_xyz
'x, y, z'
_cell_length_a     14.735058
_cell_length_b     14.834787
_cell_length_c     53.589862
_cell_angle_alpha  69.0025
_cell_angle_beta   114.68491
_cell_angle_gamma 121.39904
loop_
_atom_site_label
_atom_site_type_symbol
_atom_site_fract_x
_atom_site_fract_y
_atom_site_fract_z
_atom_type_partial_charge
Gd0 Gd 1.01673 0.61664 0.19256 0.0
Gd1 Gd 0.2406 0.7573 0.1867 0.0
C2 C 0.23098 0.69177 0.24766 0.0
C3 C 0.85397 0.46388 0.21202 0.0
C4 C 0.83167 0.43161 0.23927 0.0
C5 C 0.83749 0.50544 0.25124 0.0
C6 C 0.80935 0.32656 0.25423 0.0
C7 C 0.80059 0.36979 0.29288 0.0
C8 C 0.79436 0.29606 0.28071 0.0
C9 C 0.8216 0.47477 0.27761 0.0
C10 C 0.06956 0.8279 0.18347 0.0
C11 C 1.03292 0.69238 0.13087 0.0
C12 C 0.40506 0.89862 0.16714 0.0
C13 C 0.42828 0.89981 0.1427 0.0
C14 C 0.4216 0.80656 0.13934 0.0
C15 C 0.44428 -0.01043 0.12102 0.0
C16 C 0.44538 0.89225 0.09298 0.0
C17 C 0.45239 -0.01425 0.0963 0.0
C18 C 0.43064 0.8031 0.11486 0.0
C19 C 0.18484 0.54491 0.19513 0.0
O20 O 0.13046 0.61788 0.23749 0.0
O21 O 0.28754 0.77033 0.23082 0.0
O22 O 0.85211 0.55411 0.19629 0.0
O23 O 0.93593 0.45111 0.2124 0.0
O24 O 0.97233 0.75584 0.17274 0.0
O25 O 0.1335 0.78451 0.19928 0.0
O26 O 0.13183 0.76396 0.14227 0.0
O27 O 0.97041 0.61375 0.1467 0.0
O28 O 0.41318 0.82267 0.18873 0.0
O29 O 0.31681 0.91177 0.16138 0.0
O30 O 0.282 0.61586 0.20606 0.0
O31 O 0.12278 0.59014 0.17945 0.0
H32 H 0.85525 0.58734 0.24036 0.0
H33 H 0.80535 0.26831 0.24561 0.0
H34 H 0.78034 0.21512 0.29185 0.0
H35 H 0.82534 0.5336 0.28594 0.0
H36 H 0.40645 0.73494 0.15534 0.0
H37 H 0.44792 0.0617 0.12295 0.0
H38 H 0.46434 0.05587 0.07983 0.0
H39 H 0.42311 0.72934 0.11275 0.0
Gd40 Gd 0.84811 0.20123 0.55107 0.0
Gd41 Gd 0.75599 0.97378 0.548 0.0
C42 C 0.83442 0.01934 0.60819 0.0
C43 C 0.90805 0.38085 0.56382 0.0
C44 C 0.94158 0.41668 0.58998 0.0
C45 C 1.03974 0.51013 0.59623 0.0
C46 C 0.88157 0.35536 0.60964 0.0
C47 C 1.01967 0.47929 0.64185 0.0
C48 C 0.92014 0.38645 0.6353 0.0
C49 C 0.07854 0.54113 0.6219 0.0
C50 C 0.99383 0.14996 0.54781 0.0
C51 C 0.76331 0.15712 0.49058 0.0
C52 C 0.7021 0.79823 0.53418 0.0
C53 C 0.66701 0.76981 0.50679 0.0
C54 C 0.57402 0.67319 0.50023 0.0
C55 C 0.71852 0.8432 0.48606 0.0
C56 C 0.57955 0.72724 0.45198 0.0
C57 C 0.67521 0.82228 0.45898 0.0
C58 C 0.53081 0.6519 0.47312 0.0
C59 C 0.60929 0.02382 0.5511 0.0
O60 O 0.83606 0.11402 0.59476 0.0
O61 O 0.82051 0.95146 0.59486 0.0
O62 O 0.97707 0.35568 0.56179 0.0
O63 O 0.804 0.31373 0.55464 0.0
O64 O 0.98369 0.23789 0.53473 0.0
O65 O 0.92811 0.09322 0.56277 0.0
O66 O 0.75777 0.06057 0.50341 0.0
O67 O 0.78411 0.22623 0.50454 0.0
O68 O 0.63199 0.81605 0.53832 0.0
O69 O 0.80515 0.8684 0.54279 0.0
O70 O 0.61827 0.935 0.5638 0.0
O71 O 0.67563 0.08136 0.53629 0.0
H72 H 0.0878 0.55807 0.58146 0.0
H73 H 0.80558 0.28276 0.60534 0.0
H74 H 0.87168 0.33783 0.64996 0.0
H75 H 0.15615 0.61223 0.62633 0.0
H76 H 0.53285 0.61549 0.51589 0.0
H77 H 0.79002 0.91875 0.49043 0.0
H78 H 0.71428 0.88307 0.44328 0.0
H79 H 0.4583 0.57704 0.46867 0.0
Gd80 Gd 0.78874 0.84273 0.85945 0.0
Gd81 Gd 0.96785 0.76973 0.87626 0.0
C82 C 0.90774 0.7748 0.92566 0.0
C83 C 0.61621 0.86049 0.85465 0.0
C84 C 0.56249 0.84465 0.87472 0.0
C85 C 0.53404 0.92351 0.87326 0.0
C86 C 0.54974 0.75719 0.89704 0.0
C87 C 0.49458 0.83504 0.91805 0.0
C88 C 0.51538 0.7521 0.91836 0.0
C89 C 0.50039 0.91888 0.89473 0.0
C90 C 0.99527 0.00243 0.86166 0.0
C91 C 0.84956 0.83814 0.80967 0.0
C92 C 0.14107 0.75355 0.88095 0.0
C93 C 0.17963 0.74682 0.86062 0.0
C94 C 0.21767 0.66967 0.86703 0.0
C95 C 0.16724 0.80896 0.83367 0.0
C96 C 0.21648 0.70745 0.81875 0.0
C97 C 0.18543 0.7895 0.81298 0.0
C98 C 0.236 0.65005 0.84626 0.0
C99 C 0.7611 0.61009 0.87401 0.0
O100 O 0.81749 0.78164 0.90647 0.0
O101 O 0.98847 0.78413 0.91859 0.0
O102 O 0.71485 0.94138 0.85647 0.0
O103 O 0.61048 0.77453 0.85114 0.0
O104 O 0.9062 0.00824 0.84312 0.0
O105 O 0.97051 0.91526 0.87887 0.0
O106 O 0.93271 0.81865 0.82909 0.0
O107 O 0.77433 0.84164 0.81619 0.0
O108 O 1.05054 0.67069 0.88583 0.0
O109 O 0.14144 0.84513 0.87814 0.0
O110 O 0.85015 0.60395 0.89251 0.0
O111 O 0.78625 0.69727 0.85683 0.0
H112 H 0.54311 -0.00845 0.85618 0.0
H113 H 0.57063 0.69488 0.89865 0.0
H114 H 0.50901 0.6849 0.93563 0.0
H115 H 0.4853 -0.01575 0.89379 0.0
H116 H 0.22856 0.62142 0.88777 0.0
H117 H 0.13823 0.86924 0.82813 0.0
H118 H 0.16836 0.83453 0.79201 0.0
H119 H 0.26169 0.58754 0.85148 0.0
H120 H 0.25738 -0.02063 0.21213 0.0
H121 H 0.99711 0.3954 0.16564 0.0
H122 H 0.9274 0.92193 0.15692 0.0
H123 H 0.32531 0.44953 0.22162 0.0
H124 H 0.9693 0.22174 0.16214 0.0
H125 H 0.28462 0.15297 0.21532 0.0
C126 C 0.19086 0.00357 0.20057 0.0
C127 C 0.08989 0.93598 0.18429 0.0
C128 C 1.04735 0.27147 0.17523 0.0
C129 C 0.12009 0.13456 0.18794 0.0
C130 C 0.06308 0.37047 0.17729 0.0
C131 C 0.16373 0.43707 0.19391 0.0
C132 C 0.13294 0.23872 0.1899 0.0
C133 C 0.24644 0.40081 0.20853 0.0
C134 C 0.20627 0.1026 0.20245 0.0
C135 C 1.00653 0.97145 0.16975 0.0
N136 N 0.22934 0.30444 0.20614 0.0
N137 N 1.02335 0.06802 0.17197 0.0
H138 H 0.45967 0.89958 0.5809 0.0
H139 H 0.14271 0.27334 0.5178 0.0
H140 H 0.55584 0.19333 0.52122 0.0
H141 H 1.04823 -0.01884 0.57806 0.0
H142 H 0.29292 0.24476 0.51859 0.0
H143 H 0.30951 0.92812 0.58017 0.0
C144 C 0.44924 0.97035 0.56762 0.0
C145 C 0.52035 0.04404 0.55099 0.0
C146 C 0.23955 0.1867 0.53166 0.0
C147 C 0.34761 0.07732 0.55007 0.0
C148 C 0.15349 0.20289 0.53122 0.0
C149 C 0.08281 0.12965 0.54798 0.0
C150 C 0.25565 0.09632 0.54898 0.0
C151 C 0.10074 0.03973 0.56484 0.0
C152 C 0.36325 -0.01347 0.56722 0.0
C153 C 0.50295 0.13439 0.53432 0.0
N154 N 0.1854 0.0257 0.56494 0.0
N155 N 0.4183 0.14836 0.53425 0.0
H156 H 0.18897 0.01108 0.90213 0.0
H157 H 0.56777 0.60089 0.83325 0.0
H158 H 0.05951 0.19477 0.82622 0.0
H159 H 0.69596 0.41971 0.91003 0.0
H160 H 0.38075 0.45367 0.83036 0.0
H161 H 0.37553 0.15924 0.90526 0.0
C162 C 0.19992 0.08254 0.88609 0.0
C163 C 0.10878 0.09063 0.86384 0.0
C164 C 0.44971 0.44602 0.84786 0.0
C165 C 0.32183 0.26103 0.86737 0.0
C166 C 0.5564 0.53027 0.84956 0.0
C167 C 0.64733 0.52256 0.87196 0.0
C168 C 0.4339 0.35302 0.86865 0.0
C169 C 0.6281 0.42885 0.89238 0.0
C170 C 0.30639 0.16728 0.88791 0.0
C171 C 0.12756 0.18527 0.84372 0.0
N172 N 0.52367 0.34776 0.89022 0.0
N173 N 0.23184 0.26672 0.84596 0.0
H174 H 0.35658 0.90299 0.9208 0.0
H175 H 0.56507 0.81147 0.08807 0.0
H176 H 0.5993 0.78076 0.9728 0.0
H177 H 0.34208 0.95831 0.03858 0.0
H178 H 0.57136 0.79421 0.04539 0.0
H179 H 0.34267 0.91862 0.96299 0.0
C180 C 0.4065 0.87898 0.94101 0.0
C181 C 0.47844 0.83944 0.94316 0.0
C182 C 0.52106 0.83044 0.04374 0.0
C183 C 0.46312 0.85743 0.99145 0.0
C184 C 0.51722 0.83999 0.06815 0.0
C185 C 0.45292 0.88631 0.06689 0.0
C186 C 0.45987 0.86714 1.01768 0.0
C187 C 0.39368 0.92314 0.04046 0.0
C188 C 0.39844 0.88788 0.96508 0.0
C189 C 0.54077 0.80929 0.96997 0.0
N190 N 0.39826 0.91246 1.01686 0.0
N191 N 0.53171 0.81907 0.99293 0.0
H192 H 0.84012 0.36164 0.46044 0.0
H193 H 0.66369 0.17365 0.31756 0.0
H194 H 0.67066 0.02919 0.45192 0.0
H195 H 0.90647 0.49251 0.33391 0.0
H196 H 0.64733 0.12247 0.36473 0.0
H197 H 0.84366 0.41442 0.41186 0.0
C198 C 0.80251 0.29969 0.44828 0.0
C199 C 0.75569 0.19065 0.46038 0.0
C200 C 0.70393 0.20372 0.35793 0.0
C201 C 0.75991 0.25063 0.40471 0.0
C202 C 0.71401 0.23305 0.33098 0.0
C203 C 0.78698 0.33785 0.32147 0.0
C204 C 0.76636 0.27973 0.37562 0.0
C205 C 0.84778 0.41137 0.33991 0.0
C206 C 0.80531 0.3299 0.42059 0.0
C207 C 0.70891 0.11403 0.44359 0.0
N208 N 0.83605 0.38097 0.36598 0.0
N209 N 0.71226 0.14538 0.41668 0.0
H210 H 0.73567 0.93795 0.76441 0.0
H211 H 0.8834 0.85813 0.64834 0.0
H212 H 0.94715 0.7849 0.78666 0.0
H213 H 0.79323 0.10774 0.6365 0.0
H214 H 0.8856 0.80918 0.69763 0.0
H215 H 0.73168 -0.02183 0.71563 0.0
C216 C 0.78071 0.91212 0.75905 0.0
C217 C 0.8423 0.85841 0.77977 0.0
C218 C 0.86568 0.87482 0.68414 0.0
C219 C 0.83762 0.90389 0.72374 0.0
C220 C 0.86421 0.90262 0.65604 0.0
C221 C 0.83887 -0.01227 0.63822 0.0
C222 C 0.83923 0.93102 0.69427 0.0
C223 C 0.81448 0.04243 0.6494 0.0
C224 C 0.77888 0.93563 0.73118 0.0
C225 C 0.89941 0.82736 0.77146 0.0
N226 N 0.81458 0.01279 0.67651 0.0
N227 N 0.89541 0.85016 0.7441 0.0
H228 H 0.09509 0.79488 0.96941 0.0
H229 H 0.82511 0.60317 0.09258 0.0
H230 H 0.74989 0.71618 0.9509 0.0
H231 H 0.17471 0.79356 0.09943 0.0
H232 H 0.78767 0.61964 0.04196 0.0
H233 H 0.11778 0.76877 1.01871 0.0
C234 C 1.02368 0.77178 0.97568 0.0
C235 C 0.92043 0.75811 0.95582 0.0
C236 C 0.87227 0.65771 0.05473 0.0
C237 C 0.94603 0.72734 1.01281 0.0
C238 C 0.89362 0.64804 0.08356 0.0
C239 C 1.00301 0.6976 0.10035 0.0
C240 C 0.9613 0.71524 0.04295 0.0
C241 C 0.08873 0.75478 0.0875 0.0
C242 C 1.03684 0.75709 1.00395 0.0
C243 C 0.8312 0.72815 0.96545 0.0
N244 N 0.06607 0.7614 0.05984 0.0
N245 N 0.84589 0.71342 0.99329 0.0
H246 H 0.12609 0.57341 0.28875 0.0
H247 H 0.68436 0.78182 0.41305 0.0
H248 H 0.447 0.80241 0.27615 0.0
H249 H 0.35741 0.63412 0.42327 0.0
H250 H 0.59893 0.7676 0.36377 0.0
H251 H 0.20997 0.57307 0.33911 0.0
C252 C 0.21416 0.62322 0.29656 0.0
C253 C 0.2796 0.68837 0.27819 0.0
C254 C 0.54589 0.73795 0.37684 0.0
C255 C 0.37593 0.68759 0.33569 0.0
C256 C 0.59463 0.74639 0.40501 0.0
C257 C 0.52832 0.71009 0.42247 0.0
C258 C 0.42971 0.69205 0.36591 0.0
C259 C 0.4122 0.66234 0.41082 0.0
C260 C 0.26184 0.62316 0.32527 0.0
C261 C 0.39319 0.75145 0.28948 0.0
N262 N 0.36666 0.65502 0.38327 0.0
N263 N 0.43767 0.74927 0.31745 0.0
H264 H 0.29207 0.8368 0.77328 0.0
H265 H 1.01562 0.34935 0.69347 0.0
H266 H 0.13596 0.50354 0.81058 0.0
H267 H 0.12165 0.68252 0.65321 0.0
H268 H 0.08192 0.40402 0.73822 0.0
H269 H 0.25721 0.78098 0.73118 0.0
C270 C 0.25148 0.75184 0.77274 0.0
C271 C 0.21544 0.67489 0.79539 0.0
C272 C 0.09114 0.46512 0.7196 0.0
C273 C 0.17522 0.61037 0.7472 0.0
C274 C 1.05248 0.43396 0.69397 0.0
C275 C 0.06222 0.51133 0.6694 0.0
C276 C 0.14027 0.57452 0.72075 0.0
C277 C 0.11319 0.61997 0.67155 0.0
C278 C 0.23158 0.72002 0.74869 0.0
C279 C 0.16551 0.56583 0.79372 0.0
N280 N 0.14982 0.64819 0.69672 0.0
N281 N 0.14576 0.53687 0.76992 0.0
loop_
_geom_bond_atom_site_label_1
_geom_bond_atom_site_label_2
_geom_bond_distance
_geom_bond_site_symmetry_2
_ccdc_geom_bond_type
Gd0 C3 2.818 . S
Gd0 O20 2.377 1_655 S
Gd0 O22 2.448 . S
Gd0 O23 2.506 . S
Gd0 O24 2.435 . S
Gd0 O25 2.717 1_655 S
Gd0 O27 2.395 . S
Gd0 O31 2.327 . S
Gd1 C12 2.818 . S
Gd1 O21 2.395 . S
Gd1 O25 2.327 . S
Gd1 O26 2.377 1_455 S
Gd1 O28 2.448 . S
Gd1 O29 2.506 . S
Gd1 O30 2.435 . S
Gd1 O31 2.717 1_455 S
C2 O20 1.240 . S
C2 O21 1.240 . S
C3 Gd0 2.818 . S
C3 C4 1.510 . S
C3 O22 1.249 . S
C3 O23 1.252 . S
C4 C3 1.510 . S
C4 C5 1.404 . S
C4 C6 1.352 . S
C5 C4 1.404 . S
C5 C9 1.389 . S
C5 H32 0.930 . S
C6 C4 1.352 . S
C6 C8 1.374 . S
C6 H33 0.931 . S
C7 C8 1.359 . S
C7 C9 1.364 . S
C8 C6 1.374 . S
C8 C7 1.359 . S
C8 H34 0.931 . S
C9 C5 1.389 . S
C9 C7 1.364 . S
C9 H35 0.931 . S
C10 O24 1.256 . S
C10 O25 1.257 1_655 S
C11 O26 1.240 . S
C11 O27 1.240 . S
C12 Gd1 2.818 . S
C12 C13 1.510 . S
C12 O28 1.249 . S
C12 O29 1.252 . S
C13 C12 1.510 . S
C13 C14 1.404 . S
C13 C15 1.352 . S
C14 C13 1.404 . S
C14 C18 1.389 . S
C14 H36 0.930 . S
C15 C13 1.352 . S
C15 C17 1.374 1_565 S
C15 H37 0.931 . S
C16 C17 1.359 1_565 S
C16 C18 1.364 . S
C17 C15 1.374 1_545 S
C17 C16 1.359 1_545 S
C17 H38 0.931 . S
C18 C14 1.389 . S
C18 C16 1.364 . S
C18 H39 0.931 . S
C19 O30 1.256 . S
C19 O31 1.257 1_455 S
O20 Gd0 2.377 1_455 S
O20 C2 1.240 . S
O21 Gd1 2.395 . S
O21 C2 1.240 . S
O22 Gd0 2.448 . S
O22 C3 1.249 . S
O23 Gd0 2.506 . S
O23 C3 1.252 . S
O24 Gd0 2.435 . S
O24 C10 1.256 . S
O25 Gd0 2.717 1_455 S
O25 Gd1 2.327 . S
O25 C10 1.257 1_455 S
O26 Gd1 2.377 1_655 S
O26 C11 1.240 . S
O27 Gd0 2.395 . S
O27 C11 1.240 . S
O28 Gd1 2.448 . S
O28 C12 1.249 . S
O29 Gd1 2.506 . S
O29 C12 1.252 . S
O30 Gd1 2.435 . S
O30 C19 1.256 . S
O31 Gd0 2.327 . S
O31 Gd1 2.717 1_655 S
O31 C19 1.257 1_655 S
H32 C5 0.930 . S
H33 C6 0.931 . S
H34 C8 0.931 . S
H35 C9 0.931 . S
H36 C14 0.930 . S
H37 C15 0.931 . S
H38 C17 0.931 . S
H39 C18 0.931 . S
Gd40 C43 2.818 . S
Gd40 O60 2.377 . S
Gd40 O62 2.448 . S
Gd40 O63 2.506 . S
Gd40 O64 2.435 . S
Gd40 O65 2.717 1_545 S
Gd40 O67 2.395 . S
Gd40 O71 2.327 . S
Gd41 C52 2.818 . S
Gd41 O61 2.395 . S
Gd41 O65 2.327 . S
Gd41 O66 2.377 1_565 S
Gd41 O68 2.448 . S
Gd41 O69 2.506 . S
Gd41 O70 2.435 . S
Gd41 O71 2.717 1_565 S
C42 O60 1.240 1_565 S
C42 O61 1.240 . S
C43 Gd40 2.818 . S
C43 C44 1.510 . S
C43 O62 1.249 . S
C43 O63 1.252 . S
C44 C43 1.510 . S
C44 C45 1.404 1_655 S
C44 C46 1.352 . S
C45 C44 1.404 1_455 S
C45 C49 1.389 . S
C45 H72 0.930 . S
C46 C44 1.352 . S
C46 C48 1.374 . S
C46 H73 0.931 . S
C47 C48 1.359 . S
C47 C49 1.364 1_655 S
C48 C46 1.374 . S
C48 C47 1.359 . S
C48 H74 0.931 . S
C49 C45 1.389 . S
C49 C47 1.364 1_455 S
C49 H75 0.931 . S
C50 O64 1.256 . S
C50 O65 1.257 1_545 S
C51 O66 1.240 . S
C51 O67 1.240 . S
C52 Gd41 2.818 . S
C52 C53 1.510 . S
C52 O68 1.249 . S
C52 O69 1.252 . S
C53 C52 1.510 . S
C53 C54 1.404 . S
C53 C55 1.352 . S
C54 C53 1.404 . S
C54 C58 1.389 . S
C54 H76 0.930 . S
C55 C53 1.352 . S
C55 C57 1.374 . S
C55 H77 0.931 . S
C56 C57 1.359 . S
C56 C58 1.364 . S
C57 C55 1.374 . S
C57 C56 1.359 . S
C57 H78 0.931 . S
C58 C54 1.389 . S
C58 C56 1.364 . S
C58 H79 0.931 . S
C59 O70 1.256 . S
C59 O71 1.257 1_565 S
O60 Gd40 2.377 . S
O60 C42 1.240 1_545 S
O61 Gd41 2.395 . S
O61 C42 1.240 . S
O62 Gd40 2.448 . S
O62 C43 1.249 . S
O63 Gd40 2.506 . S
O63 C43 1.252 . S
O64 Gd40 2.435 . S
O64 C50 1.256 . S
O65 Gd40 2.717 1_565 S
O65 Gd41 2.327 . S
O65 C50 1.257 1_565 S
O66 Gd41 2.377 1_545 S
O66 C51 1.240 . S
O67 Gd40 2.395 . S
O67 C51 1.240 . S
O68 Gd41 2.448 . S
O68 C52 1.249 . S
O69 Gd41 2.506 . S
O69 C52 1.252 . S
O70 Gd41 2.435 . S
O70 C59 1.256 . S
O71 Gd40 2.327 . S
O71 Gd41 2.717 1_545 S
O71 C59 1.257 1_545 S
H72 C45 0.930 . S
H73 C46 0.931 . S
H74 C48 0.931 . S
H75 C49 0.931 . S
H76 C54 0.930 . S
H77 C55 0.931 . S
H78 C57 0.931 . S
H79 C58 0.931 . S
Gd80 C83 2.818 . S
Gd80 O100 2.377 1_545 S
Gd80 O102 2.448 . S
Gd80 O103 2.506 1_545 S
Gd80 O104 2.435 1_655 S
Gd80 O105 2.717 . S
Gd80 O107 2.395 . S
Gd80 O111 2.327 1_545 S
Gd81 C92 2.818 1_655 S
Gd81 O101 2.395 . S
Gd81 O105 2.327 1_565 S
Gd81 O106 2.377 . S
Gd81 O108 2.448 . S
Gd81 O109 2.506 1_655 S
Gd81 O110 2.435 . S
Gd81 O111 2.717 . S
C82 O100 1.240 . S
C82 O101 1.240 . S
C83 Gd80 2.818 . S
C83 C84 1.510 . S
C83 O102 1.249 . S
C83 O103 1.252 1_545 S
C84 C83 1.510 . S
C84 C85 1.404 . S
C84 C86 1.352 1_545 S
C85 C84 1.404 . S
C85 C89 1.389 . S
C85 H112 0.930 . S
C86 C84 1.352 1_565 S
C86 C88 1.374 . S
C86 H113 0.931 . S
C87 C88 1.359 1_545 S
C87 C89 1.364 . S
C88 C86 1.374 . S
C88 C87 1.359 1_565 S
C88 H114 0.931 . S
C89 C85 1.389 . S
C89 C87 1.364 . S
C89 H115 0.931 . S
C90 O104 1.256 . S
C90 O105 1.257 1_455 S
C91 O106 1.240 . S
C91 O107 1.240 1_565 S
C92 Gd81 2.818 1_455 S
C92 C93 1.510 . S
C92 O108 1.249 1_455 S
C92 O109 1.252 . S
C93 C92 1.510 . S
C93 C94 1.404 . S
C93 C95 1.352 . S
C94 C93 1.404 . S
C94 C98 1.389 . S
C94 H116 0.930 1_455 S
C95 C93 1.352 . S
C95 C97 1.374 . S
C95 H117 0.931 . S
C96 C97 1.359 . S
C96 C98 1.364 . S
C97 C95 1.374 . S
C97 C96 1.359 . S
C97 H118 0.931 . S
C98 C94 1.389 . S
C98 C96 1.364 . S
C98 H119 0.931 . S
C99 O110 1.256 . S
C99 O111 1.257 . S
O100 Gd80 2.377 1_565 S
O100 C82 1.240 . S
O101 Gd81 2.395 . S
O101 C82 1.240 . S
O102 Gd80 2.448 . S
O102 C83 1.249 . S
O103 Gd80 2.506 1_565 S
O103 C83 1.252 1_565 S
O104 Gd80 2.435 1_455 S
O104 C90 1.256 . S
O105 Gd80 2.717 . S
O105 Gd81 2.327 1_545 S
O105 C90 1.257 1_655 S
O106 Gd81 2.377 . S
O106 C91 1.240 . S
O107 Gd80 2.395 . S
O107 C91 1.240 1_545 S
O108 Gd81 2.448 . S
O108 C92 1.249 1_655 S
O109 Gd81 2.506 1_455 S
O109 C92 1.252 . S
O110 Gd81 2.435 . S
O110 C99 1.256 . S
O111 Gd80 2.327 1_565 S
O111 Gd81 2.717 . S
O111 C99 1.257 . S
H112 C85 0.930 . S
H113 C86 0.931 . S
H114 C88 0.931 . S
H115 C89 0.931 . S
H116 C94 0.930 1_655 S
H117 C95 0.931 . S
H118 C97 0.931 . S
H119 C98 0.931 . S
H120 C126 0.930 . S
H121 C130 0.930 . S
H122 C135 0.929 . S
H123 C133 0.929 . S
H124 C128 0.929 . S
H125 C134 0.929 . S
C126 H120 0.930 . S
C126 C127 1.367 . S
C126 C134 1.378 1_565 S
C127 C126 1.367 . S
C127 C135 1.433 1_465 S
C128 H124 0.929 . S
C128 C130 1.378 . S
C128 C132 1.353 . S
C129 C132 1.455 1_455 S
C129 C134 1.350 . S
C129 N137 1.427 1_455 S
C130 H121 0.930 . S
C130 C128 1.378 . S
C130 C131 1.367 . S
C131 C130 1.367 . S
C131 C133 1.433 1_655 S
C132 C128 1.353 . S
C132 C129 1.455 1_655 S
C132 N136 1.432 1_655 S
C133 H123 0.929 . S
C133 C131 1.433 1_455 S
C133 N136 1.384 . S
C134 H125 0.929 . S
C134 C126 1.378 1_545 S
C134 C129 1.350 . S
C135 H122 0.929 . S
C135 C127 1.433 1_645 S
C135 N137 1.384 . S
N136 C132 1.432 1_455 S
N136 C133 1.384 . S
N137 C129 1.427 1_655 S
N137 C135 1.384 . S
H138 C144 0.930 . S
H139 C148 0.930 . S
H140 C153 0.929 . S
H141 C151 0.929 . S
H142 C146 0.929 . S
H143 C152 0.929 . S
C144 H138 0.930 . S
C144 C145 1.367 1_565 S
C144 C152 1.378 . S
C145 C144 1.367 1_545 S
C145 C153 1.433 . S
C146 H142 0.929 . S
C146 C148 1.378 . S
C146 C150 1.350 . S
C147 C150 1.463 . S
C147 C152 1.350 1_545 S
C147 N155 1.427 . S
C148 H139 0.930 . S
C148 C146 1.378 . S
C148 C149 1.367 . S
C149 C148 1.367 . S
C149 C151 1.433 1_545 S
C150 C146 1.350 . S
C150 C147 1.463 . S
C150 N154 1.427 1_545 S
C151 H141 0.929 . S
C151 C149 1.433 1_565 S
C151 N154 1.384 . S
C152 H143 0.929 . S
C152 C144 1.378 . S
C152 C147 1.350 1_565 S
C153 H140 0.929 . S
C153 C145 1.433 . S
C153 N155 1.384 . S
N154 C150 1.427 1_565 S
N154 C151 1.384 . S
N155 C147 1.427 . S
N155 C153 1.384 . S
H156 C162 0.930 . S
H157 C166 0.930 . S
H158 C171 0.929 . S
H159 C169 0.929 . S
H160 C164 0.929 . S
H161 C170 0.929 . S
C162 H156 0.930 . S
C162 C163 1.367 . S
C162 C170 1.378 . S
C163 C162 1.367 . S
C163 C171 1.433 . S
C164 H160 0.929 . S
C164 C166 1.378 . S
C164 C168 1.350 . S
C165 C168 1.463 . S
C165 C170 1.350 . S
C165 N173 1.427 . S
C166 H157 0.930 . S
C166 C164 1.378 . S
C166 C167 1.367 . S
C167 C166 1.367 . S
C167 C169 1.433 . S
C168 C164 1.350 . S
C168 C165 1.463 . S
C168 N172 1.427 . S
C169 H159 0.929 . S
C169 C167 1.433 . S
C169 N172 1.384 . S
C170 H161 0.929 . S
C170 C162 1.378 . S
C170 C165 1.350 . S
C171 H158 0.929 . S
C171 C163 1.433 . S
C171 N173 1.384 . S
N172 C168 1.427 . S
N172 C169 1.384 . S
N173 C165 1.427 . S
N173 C171 1.384 . S
H174 C180 0.930 . S
H175 C184 0.930 . S
H176 C189 0.929 . S
H177 C187 0.929 . S
H178 C182 0.929 . S
H179 C188 0.929 . S
C180 H174 0.930 . S
C180 C181 1.367 . S
C180 C188 1.378 . S
C181 C180 1.367 . S
C181 C189 1.433 . S
C182 H178 0.929 . S
C182 C184 1.378 . S
C182 C186 1.350 1_564 S
C183 C186 1.463 . S
C183 C188 1.350 . S
C183 N191 1.427 . S
C184 H175 0.930 . S
C184 C182 1.378 . S
C184 C185 1.367 1_565 S
C185 C184 1.367 1_545 S
C185 C187 1.433 1_554 S
C186 C182 1.350 1_546 S
C186 C183 1.463 . S
C186 N190 1.427 . S
C187 H177 0.929 . S
C187 C185 1.433 1_556 S
C187 N190 1.384 . S
C188 H179 0.929 . S
C188 C180 1.378 . S
C188 C183 1.350 . S
C189 H176 0.929 . S
C189 C181 1.433 . S
C189 N191 1.384 . S
N190 C186 1.427 . S
N190 C187 1.384 . S
N191 C183 1.427 . S
N191 C189 1.384 . S
H192 C198 0.930 . S
H193 C202 0.930 . S
H194 C207 0.929 . S
H195 C205 0.929 . S
H196 C200 0.929 . S
H197 C206 0.929 . S
C198 H192 0.930 . S
C198 C199 1.367 . S
C198 C206 1.378 . S
C199 C198 1.367 . S
C199 C207 1.433 . S
C200 H196 0.929 . S
C200 C202 1.378 . S
C200 C204 1.350 . S
C201 C204 1.463 . S
C201 C206 1.350 . S
C201 N209 1.427 . S
C202 H193 0.930 . S
C202 C200 1.378 . S
C202 C203 1.367 . S
C203 C202 1.367 . S
C203 C205 1.433 . S
C204 C200 1.350 . S
C204 C201 1.463 . S
C204 N208 1.427 . S
C205 H195 0.929 . S
C205 C203 1.433 . S
C205 N208 1.384 . S
C206 H197 0.929 . S
C206 C198 1.378 . S
C206 C201 1.350 . S
C207 H194 0.929 . S
C207 C199 1.433 . S
C207 N209 1.384 . S
N208 C204 1.427 . S
N208 C205 1.384 . S
N209 C201 1.427 . S
N209 C207 1.384 . S
H210 C216 0.930 . S
H211 C220 0.930 . S
H212 C225 0.929 . S
H213 C223 0.929 . S
H214 C218 0.929 . S
H215 C224 0.929 . S
C216 H210 0.930 . S
C216 C217 1.367 1_545 S
C216 C224 1.378 . S
C217 C216 1.367 1_565 S
C217 C225 1.433 . S
C218 H214 0.929 . S
C218 C220 1.378 . S
C218 C222 1.350 . S
C219 C222 1.463 . S
C219 C224 1.350 1_565 S
C219 N227 1.427 . S
C220 H211 0.930 . S
C220 C218 1.378 . S
C220 C221 1.367 . S
C221 C220 1.367 . S
C221 C223 1.433 1_565 S
C222 C218 1.350 . S
C222 C219 1.463 . S
C222 N226 1.427 1_565 S
C223 H213 0.929 . S
C223 C221 1.433 1_545 S
C223 N226 1.384 . S
C224 H215 0.929 . S
C224 C216 1.378 . S
C224 C219 1.350 1_545 S
C225 H212 0.929 . S
C225 C217 1.433 . S
C225 N227 1.384 . S
N226 C222 1.427 1_545 S
N226 C223 1.384 . S
N227 C219 1.427 . S
N227 C225 1.384 . S
H228 C234 0.930 1_455 S
H229 C238 0.930 . S
H230 C243 0.929 . S
H231 C241 0.929 . S
H232 C236 0.929 1_556 S
H233 C242 0.929 1_455 S
C234 H228 0.930 1_655 S
C234 C235 1.367 . S
C234 C242 1.378 . S
C235 C234 1.367 . S
C235 C243 1.433 . S
C236 H232 0.929 1_554 S
C236 C238 1.378 . S
C236 C240 1.350 . S
C237 C240 1.463 1_556 S
C237 C242 1.350 . S
C237 N245 1.427 . S
C238 H229 0.930 . S
C238 C236 1.378 . S
C238 C239 1.367 . S
C239 C238 1.367 . S
C239 C241 1.433 . S
C240 C236 1.350 . S
C240 C237 1.463 1_554 S
C240 N244 1.427 . S
C241 H231 0.929 . S
C241 C239 1.433 . S
C241 N244 1.384 . S
C242 H233 0.929 1_655 S
C242 C234 1.378 . S
C242 C237 1.350 . S
C243 H230 0.929 . S
C243 C235 1.433 . S
C243 N245 1.384 . S
N244 C240 1.427 . S
N244 C241 1.384 . S
N245 C237 1.427 . S
N245 C243 1.384 . S
H246 C252 0.930 . S
H247 C256 0.930 . S
H248 C261 0.929 . S
H249 C259 0.929 . S
H250 C254 0.929 . S
H251 C260 0.929 . S
C252 H246 0.930 . S
C252 C253 1.367 . S
C252 C260 1.378 . S
C253 C252 1.367 . S
C253 C261 1.433 . S
C254 H250 0.929 . S
C254 C256 1.378 . S
C254 C258 1.350 . S
C255 C258 1.463 . S
C255 C260 1.350 . S
C255 N263 1.427 . S
C256 H247 0.930 . S
C256 C254 1.378 . S
C256 C257 1.367 . S
C257 C256 1.367 . S
C257 C259 1.433 . S
C258 C254 1.350 . S
C258 C255 1.463 . S
C258 N262 1.427 . S
C259 H249 0.929 . S
C259 C257 1.433 . S
C259 N262 1.384 . S
C260 H251 0.929 . S
C260 C252 1.378 . S
C260 C255 1.350 . S
C261 H248 0.929 . S
C261 C253 1.433 . S
C261 N263 1.384 . S
N262 C258 1.427 . S
N262 C259 1.384 . S
N263 C255 1.427 . S
N263 C261 1.384 . S
H264 C270 0.930 . S
H265 C274 0.930 . S
H266 C279 0.929 1_655 S
H267 C277 0.929 . S
H268 C272 0.929 . S
H269 C278 0.929 . S
C270 H264 0.930 . S
C270 C271 1.367 . S
C270 C278 1.378 . S
C271 C270 1.367 . S
C271 C279 1.433 . S
C272 H268 0.929 . S
C272 C274 1.378 . S
C272 C276 1.350 1_655 S
C273 C276 1.463 . S
C273 C278 1.350 . S
C273 N281 1.427 1_455 S
C274 H265 0.930 . S
C274 C272 1.378 . S
C274 C275 1.367 1_655 S
C275 C274 1.367 1_455 S
C275 C277 1.433 . S
C276 C272 1.350 1_455 S
C276 C273 1.463 . S
C276 N280 1.427 . S
C277 H267 0.929 . S
C277 C275 1.433 . S
C277 N280 1.384 . S
C278 H269 0.929 . S
C278 C270 1.378 . S
C278 C273 1.350 . S
C279 H266 0.929 1_455 S
C279 C271 1.433 . S
C279 N281 1.384 1_455 S
N280 C276 1.427 . S
N280 C277 1.384 . S
N281 C273 1.427 1_655 S
N281 C279 1.384 1_655 S
C127 C10 1.543 1_455 S
C131 C19 1.543 1_655 S
C145 C59 1.646 1_545 S
C149 C50 1.646 1_455 S
C163 C90 1.346 . S
C167 C99 1.346 . S
C181 C87 0.990 . S
C185 C16 0.990 1_545 S
C199 C51 2.003 . S
C203 C7 1.937 . S
C217 C91 2.473 . S
C221 C42 2.466 . S
C235 C82 2.359 . S
C239 C11 2.309 . S
C253 C2 1.723 . S
C257 C56 1.634 . S
C271 C96 0.989 . S
C275 C47 0.984 1_455 S
