# Generated by pormake.
# Topology lcs, (4)-cn, num edge types: 1
# Building blocks:
#     Node 0, Type 0, BuildingBlock: NAHDIM_clean_sbu_0, # of connection points: 4
#     Node 1, Type 0, BuildingBlock: NAHDIM_clean_sbu_0, # of connection points: 4
#     Node 2, Type 0, BuildingBlock: NAHDIM_clean_sbu_0, # of connection points: 4
#     Node 3, Type 0, BuildingBlock: NAHDIM_clean_sbu_0, # of connection points: 4
#     Node 4, Type 0, BuildingBlock: NAHDIM_clean_sbu_0, # of connection points: 4
#     Node 5, Type 0, BuildingBlock: NAHDIM_clean_sbu_0, # of connection points: 4
#     Node 6, Type 0, BuildingBlock: NAHDIM_clean_sbu_0, # of connection points: 4
#     Node 7, Type 0, BuildingBlock: NAHDIM_clean_sbu_0, # of connection points: 4
#     Node 8, Type 0, BuildingBlock: NAHDIM_clean_sbu_0, # of connection points: 4
#     Node 9, Type 0, BuildingBlock: NAHDIM_clean_sbu_0, # of connection points: 4
#     Node 10, Type 0, BuildingBlock: NAHDIM_clean_sbu_0, # of connection points: 4
#     Node 11, Type 0, BuildingBlock: NAHDIM_clean_sbu_0, # of connection points: 4
#     Node 12, Type 0, BuildingBlock: NAHDIM_clean_sbu_0, # of connection points: 4
#     Node 13, Type 0, BuildingBlock: NAHDIM_clean_sbu_0, # of connection points: 4
#     Node 14, Type 0, BuildingBlock: NAHDIM_clean_sbu_0, # of connection points: 4
#     Node 15, Type 0, BuildingBlock: NAHDIM_clean_sbu_0, # of connection points: 4
#     Node 16, Type 0, BuildingBlock: NAHDIM_clean_sbu_0, # of connection points: 4
#     Node 17, Type 0, BuildingBlock: NAHDIM_clean_sbu_0, # of connection points: 4
#     Node 18, Type 0, BuildingBlock: NAHDIM_clean_sbu_0, # of connection points: 4
#     Node 19, Type 0, BuildingBlock: NAHDIM_clean_sbu_0, # of connection points: 4
#     Node 20, Type 0, BuildingBlock: NAHDIM_clean_sbu_0, # of connection points: 4
#     Node 21, Type 0, BuildingBlock: NAHDIM_clean_sbu_0, # of connection points: 4
#     Node 22, Type 0, BuildingBlock: NAHDIM_clean_sbu_0, # of connection points: 4
#     Node 23, Type 0, BuildingBlock: NAHDIM_clean_sbu_0, # of connection points: 4
#     Edge 24, Type (0, 0), BuildingBlock: AJUNOK_clean_linker_0, # of connection points: 2
#     Edge 25, Type (0, 0), BuildingBlock: AJUNOK_clean_linker_0, # of connection points: 2
#     Edge 26, Type (0, 0), BuildingBlock: AJUNOK_clean_linker_0, # of connection points: 2
#     Edge 27, Type (0, 0), BuildingBlock: AJUNOK_clean_linker_0, # of connection points: 2
#     Edge 28, Type (0, 0), BuildingBlock: AJUNOK_clean_linker_0, # of connection points: 2
#     Edge 29, Type (0, 0), BuildingBlock: AJUNOK_clean_linker_0, # of connection points: 2
#     Edge 30, Type (0, 0), BuildingBlock: AJUNOK_clean_linker_0, # of connection points: 2
#     Edge 31, Type (0, 0), BuildingBlock: AJUNOK_clean_linker_0, # of connection points: 2
#     Edge 32, Type (0, 0), BuildingBlock: AJUNOK_clean_linker_0, # of connection points: 2
#     Edge 33, Type (0, 0), BuildingBlock: AJUNOK_clean_linker_0, # of connection points: 2
#     Edge 34, Type (0, 0), BuildingBlock: AJUNOK_clean_linker_0, # of connection points: 2
#     Edge 35, Type (0, 0), BuildingBlock: AJUNOK_clean_linker_0, # of connection points: 2
#     Edge 36, Type (0, 0), BuildingBlock: AJUNOK_clean_linker_0, # of connection points: 2
#     Edge 37, Type (0, 0), BuildingBlock: AJUNOK_clean_linker_0, # of connection points: 2
#     Edge 38, Type (0, 0), BuildingBlock: AJUNOK_clean_linker_0, # of connection points: 2
#     Edge 39, Type (0, 0), BuildingBlock: AJUNOK_clean_linker_0, # of connection points: 2
#     Edge 40, Type (0, 0), BuildingBlock: AJUNOK_clean_linker_0, # of connection points: 2
#     Edge 41, Type (0, 0), BuildingBlock: AJUNOK_clean_linker_0, # of connection points: 2
#     Edge 42, Type (0, 0), BuildingBlock: AJUNOK_clean_linker_0, # of connection points: 2
#     Edge 43, Type (0, 0), BuildingBlock: AJUNOK_clean_linker_0, # of connection points: 2
#     Edge 44, Type (0, 0), BuildingBlock: AJUNOK_clean_linker_0, # of connection points: 2
#     Edge 45, Type (0, 0), BuildingBlock: AJUNOK_clean_linker_0, # of connection points: 2
#     Edge 46, Type (0, 0), BuildingBlock: AJUNOK_clean_linker_0, # of connection points: 2
#     Edge 47, Type (0, 0), BuildingBlock: AJUNOK_clean_linker_0, # of connection points: 2
#     Edge 48, Type (0, 0), BuildingBlock: AJUNOK_clean_linker_0, # of connection points: 2
#     Edge 49, Type (0, 0), BuildingBlock: AJUNOK_clean_linker_0, # of connection points: 2
#     Edge 50, Type (0, 0), BuildingBlock: AJUNOK_clean_linker_0, # of connection points: 2
#     Edge 51, Type (0, 0), BuildingBlock: AJUNOK_clean_linker_0, # of connection points: 2
#     Edge 52, Type (0, 0), BuildingBlock: AJUNOK_clean_linker_0, # of connection points: 2
#     Edge 53, Type (0, 0), BuildingBlock: AJUNOK_clean_linker_0, # of connection points: 2
#     Edge 54, Type (0, 0), BuildingBlock: AJUNOK_clean_linker_0, # of connection points: 2
#     Edge 55, Type (0, 0), BuildingBlock: AJUNOK_clean_linker_0, # of connection points: 2
#     Edge 56, Type (0, 0), BuildingBlock: AJUNOK_clean_linker_0, # of connection points: 2
#     Edge 57, Type (0, 0), BuildingBlock: AJUNOK_clean_linker_0, # of connection points: 2
#     Edge 58, Type (0, 0), BuildingBlock: AJUNOK_clean_linker_0, # of connection points: 2
#     Edge 59, Type (0, 0), BuildingBlock: AJUNOK_clean_linker_0, # of connection points: 2
#     Edge 60, Type (0, 0), BuildingBlock: AJUNOK_clean_linker_0, # of connection points: 2
#     Edge 61, Type (0, 0), BuildingBlock: AJUNOK_clean_linker_0, # of connection points: 2
#     Edge 62, Type (0, 0), BuildingBlock: AJUNOK_clean_linker_0, # of connection points: 2
#     Edge 63, Type (0, 0), BuildingBlock: AJUNOK_clean_linker_0, # of connection points: 2
#     Edge 64, Type (0, 0), BuildingBlock: AJUNOK_clean_linker_0, # of connection points: 2
#     Edge 65, Type (0, 0), BuildingBlock: AJUNOK_clean_linker_0, # of connection points: 2
#     Edge 66, Type (0, 0), BuildingBlock: AJUNOK_clean_linker_0, # of connection points: 2
#     Edge 67, Type (0, 0), BuildingBlock: AJUNOK_clean_linker_0, # of connection points: 2
#     Edge 68, Type (0, 0), BuildingBlock: AJUNOK_clean_linker_0, # of connection points: 2
#     Edge 69, Type (0, 0), BuildingBlock: AJUNOK_clean_linker_0, # of connection points: 2
#     Edge 70, Type (0, 0), BuildingBlock: AJUNOK_clean_linker_0, # of connection points: 2
#     Edge 71, Type (0, 0), BuildingBlock: AJUNOK_clean_linker_0, # of connection points: 2
# Relax obj value: 0.091
# Max RMSD: 0.165
# Mean RMSD: 0.151
data_MOF--net-lcs--node1-NAHDIM_clean_sbu_0--edge1-AJUNOK_clean_linker_0
_symmetry_space_group_name_H-M    P1
_symmetry_Int_Tables_number       1
_symmetry_cell_setting            triclinic
loop_
_symmetry_equiv_pos_as_xyz
'x, y, z'
_cell_length_a     37.310577
_cell_length_b     35.817222
_cell_length_c     35.873043
_cell_angle_alpha  92.069339
_cell_angle_beta   90.722437
_cell_angle_gamma 91.454761
loop_
_atom_site_label
_atom_site_type_symbol
_atom_site_fract_x
_atom_site_fract_y
_atom_site_fract_z
_atom_type_partial_charge
C0 C 0.93419 0.28619 0.41087 0.0
O1 O 0.92882 0.27665 0.3755 0.0
O2 O 0.9712 0.21296 0.36562 0.0
Zn3 Zn -0.0009 0.2566 0.38978 0.0
O4 O 0.01334 0.29476 0.35241 0.0
C5 C 0.05761 0.20888 0.40427 0.0
O6 O 0.04214 0.19019 0.37605 0.0
O7 O 0.96489 0.28108 0.42535 0.0
C8 C 0.04122 0.29184 0.33264 0.0
O9 O 0.06097 0.26226 0.33566 0.0
C10 C 0.97336 0.20026 0.33223 0.0
O11 O 0.99632 0.21564 0.30956 0.0
O12 O 0.04355 0.23887 0.41632 0.0
C13 C 0.07455 0.72085 0.60782 0.0
O14 O 0.0692 0.715 0.64329 0.0
O15 O 0.99101 0.71137 0.6437 0.0
Zn16 Zn 0.01271 0.75838 0.62365 0.0
O17 O 0.03537 0.79274 0.66347 0.0
C18 C 0.94218 0.78213 0.60487 0.0
O19 O 0.93397 0.75986 0.63195 0.0
O20 O 0.05278 0.74112 0.59063 0.0
C21 C 0.0216 0.82329 0.67431 0.0
O22 O 0.98969 0.83143 0.66162 0.0
C23 C 0.99036 0.70142 0.67729 0.0
O24 O 0.00339 0.72426 0.70386 0.0
O25 O 0.9748 0.78556 0.59533 0.0
C26 C 0.43659 0.7721 0.91619 0.0
O27 O 0.43112 0.76674 0.88014 0.0
O28 O 0.48648 0.70062 0.86636 0.0
Zn29 Zn 0.50423 0.74857 0.89271 0.0
O30 O 0.51244 0.79097 0.85801 0.0
C31 C 0.57203 0.71678 0.90037 0.0
O32 O 0.56181 0.70407 0.86701 0.0
O33 O 0.4673 0.76533 0.92969 0.0
C34 C 0.52799 0.78875 0.82674 0.0
O35 O 0.53913 0.75619 0.81427 0.0
C36 C 0.46969 0.69692 0.83537 0.0
O37 O 0.46157 0.72678 0.81714 0.0
O38 O 0.5511 0.73785 0.91863 0.0
C39 C 0.57406 0.21913 0.11245 0.0
O40 O 0.56875 0.21331 0.14791 0.0
O41 O 0.48886 0.22177 0.15252 0.0
Zn42 Zn 0.51501 0.26341 0.12744 0.0
O43 O 0.5388 0.30013 0.16404 0.0
C44 C 0.45103 0.27329 0.0837 0.0
O45 O 0.4473 0.23712 0.08787 0.0
O46 O 0.55348 0.24092 0.09566 0.0
C47 C 0.52312 0.32939 0.17545 0.0
O48 O 0.48967 0.33408 0.16519 0.0
C49 C 0.49338 0.21085 0.18549 0.0
O50 O 0.51691 0.22848 0.20776 0.0
O51 O 0.47903 0.29022 0.09678 0.0
C52 C 0.0886 0.78923 0.11951 0.0
O53 O 0.09128 0.7802 0.1546 0.0
O54 O 0.03294 0.72797 0.16508 0.0
Zn55 Zn 0.01668 0.77146 0.13579 0.0
O56 O 0.00376 0.81458 0.16972 0.0
C57 C 0.97183 0.72614 0.08504 0.0
O58 O 0.00073 0.706 0.08279 0.0
O59 O 0.05781 0.78773 0.10383 0.0
C60 C 0.97301 0.81474 0.18447 0.0
O61 O 0.95129 0.7856 0.17862 0.0
C62 C 0.01304 0.70126 0.17591 0.0
O63 O 0.97832 0.70189 0.16957 0.0
O64 O 0.97297 0.75612 0.10501 0.0
C65 C 0.45769 0.69604 0.43141 0.0
O66 O 0.48396 0.67406 0.42183 0.0
O67 O 0.52315 0.71574 0.36296 0.0
Zn68 Zn 0.50173 0.75381 0.39779 0.0
O69 O 0.48097 0.79503 0.36882 0.0
C70 C 0.57263 0.77606 0.42019 0.0
O71 O 0.5779 0.76495 0.38548 0.0
O72 O 0.46062 0.73066 0.42524 0.0
C73 C 0.49709 0.81362 0.34433 0.0
O74 O 0.53046 0.80615 0.33636 0.0
C75 C 0.5071 0.69783 0.33625 0.0
O76 O 0.47286 0.70324 0.3301 0.0
O77 O 0.54092 0.77437 0.43282 0.0
C78 C 0.58111 0.28558 0.6081 0.0
O79 O 0.58291 0.27769 0.64355 0.0
O80 O 0.5285 0.22063 0.65052 0.0
Zn81 Zn 0.51048 0.26544 0.62399 0.0
O82 O 0.49835 0.3101 0.65704 0.0
C83 C 0.44693 0.22279 0.60931 0.0
O84 O 0.45587 0.2123 0.64275 0.0
O85 O 0.5509 0.28229 0.5913 0.0
C86 C 0.46964 0.31292 0.67547 0.0
O87 O 0.44751 0.28389 0.67644 0.0
C88 C 0.52577 0.21088 0.68409 0.0
O89 O 0.51035 0.23317 0.70857 0.0
O90 O 0.4663 0.24755 0.59403 0.0
C91 C 0.94026 0.2008 0.90091 0.0
O92 O 0.94804 0.18625 0.86798 0.0
O93 O 0.01896 0.20225 0.85468 0.0
Zn94 Zn 4e-05 0.24656 0.88326 0.0
O95 O 0.98003 0.28287 0.84777 0.0
C96 C 0.06909 0.25792 0.92145 0.0
O97 O 0.07616 0.2253 0.90573 0.0
O98 O 0.95917 0.22816 0.91444 0.0
C99 C 0.99676 0.31223 0.83818 0.0
O100 O 0.02931 0.31938 0.8514 0.0
C101 C 0.0404 0.20311 0.82754 0.0
O102 O 0.05345 0.23541 0.81698 0.0
O103 O 0.03853 0.27182 0.91599 0.0
C104 C 0.41775 0.93344 0.27915 0.0
O105 O 0.38254 0.9317 0.28008 0.0
O106 O 0.37008 0.98749 0.21059 0.0
Zn107 Zn 0.39998 0.00425 0.25576 0.0
O108 O 0.36965 0.01374 0.30104 0.0
C109 C 0.41675 0.07362 0.22172 0.0
O110 O 0.38643 0.06524 0.20399 0.0
O111 O 0.43299 0.96315 0.26832 0.0
C112 C 0.35531 0.04498 0.30776 0.0
O113 O 0.359 0.07144 0.28359 0.0
C114 C 0.3363 0.99081 0.20813 0.0
O115 O 0.31916 0.00562 0.23654 0.0
O116 O 0.42855 0.05112 0.24526 0.0
C117 C 0.19261 0.15231 0.45968 0.0
O118 O 0.20286 0.1202 0.44516 0.0
O119 O 0.24298 0.10467 0.5393 0.0
Zn120 Zn 0.25645 0.14072 0.49948 0.0
O121 O 0.2764 0.1159 0.45329 0.0
C122 C 0.32107 0.15464 0.53484 0.0
O123 O 0.31817 0.11805 0.53142 0.0
O124 O 0.21231 0.16869 0.48478 0.0
C125 C 0.28699 0.08264 0.4488 0.0
O126 O 0.28507 0.05994 0.47668 0.0
C127 C 0.22115 0.07692 0.53624 0.0
O128 O 0.20545 0.06882 0.50388 0.0
O129 O 0.29612 0.174 0.52167 0.0
C130 C 0.16434 0.01557 0.67154 0.0
O131 O 0.13032 0.00511 0.67027 0.0
O132 O 0.12573 0.06083 0.76024 0.0
Zn133 Zn 0.14933 0.01198 0.74844 0.0
O134 O 0.11197 0.97148 0.73693 0.0
C135 C 0.15904 -0.00098 0.82413 0.0
O136 O 0.12523 0.00821 0.82217 0.0
O137 O 0.18001 0.01931 0.70321 0.0
C138 C 0.11857 0.93719 0.74053 0.0
O139 O 0.15054 0.928 0.75228 0.0
C140 C 0.09215 0.06305 0.76486 0.0
O141 O 0.07178 0.03274 0.76043 0.0
O142 O 0.17716 -0.00174 0.79431 0.0
C143 C 0.32466 0.84647 -8e-05 0.0
O144 O 0.32918 0.85921 0.03449 0.0
O145 O 0.28255 0.92131 0.04556 0.0
Zn146 Zn 0.26071 0.89123 0.00205 0.0
O147 O 0.24614 0.92389 0.96034 0.0
C148 C 0.21822 0.84387 0.04824 0.0
O149 O 0.24911 0.84101 0.06578 0.0
O150 O 0.29702 0.85568 0.98167 0.0
C151 C 0.21633 0.94023 0.9611 0.0
O152 O 0.19612 0.93711 0.99059 0.0
C153 C 0.26362 0.93521 0.07153 0.0
O154 O 0.22854 0.93192 0.06874 0.0
O155 O 0.21695 0.86318 0.0193 0.0
C156 C 0.32755 0.3553 0.0338 0.0
O157 O 0.32835 0.39192 0.03262 0.0
O158 O 0.24305 0.39904 0.05925 0.0
Zn159 Zn 0.25672 0.36965 0.01305 0.0
O160 O 0.27509 0.40423 0.97457 0.0
C161 C 0.18292 0.34258 0.00181 0.0
O162 O 0.17632 0.36799 0.02791 0.0
O163 O 0.2981 0.33775 0.0265 0.0
C164 C 0.25861 0.41334 0.94525 0.0
O165 O 0.22566 0.40063 0.93896 0.0
C166 C 0.22628 0.42942 0.05836 0.0
O167 O 0.21667 0.44235 0.02602 0.0
O168 O 0.21514 0.33786 0.99183 0.0
C169 C 0.68797 0.13802 0.03965 0.0
O170 O 0.68922 0.10185 0.04424 0.0
O171 O 0.76755 0.09001 0.04437 0.0
Zn172 Zn 0.75002 0.11946 0.00149 0.0
O173 O 0.7261 0.08686 0.96129 0.0
C174 C 0.82144 0.13244 0.97795 0.0
O175 O 0.8242 0.09808 0.98907 0.0
O176 O 0.71253 0.15387 0.02124 0.0
C177 C 0.74044 0.06268 0.93986 0.0
O178 O 0.77485 0.0566 0.94334 0.0
C179 C 0.76144 0.05547 0.04919 0.0
O180 O 0.74256 0.03564 0.02408 0.0
O181 O 0.79155 0.14847 0.98067 0.0
C182 C 0.08669 0.57183 0.22948 0.0
O183 O 0.12169 0.57492 0.23376 0.0
O184 O 0.13399 0.48839 0.19854 0.0
Zn185 Zn 0.10581 0.4994 0.24511 0.0
O186 O 0.13741 0.51875 0.28783 0.0
C187 C 0.09346 0.42088 0.25348 0.0
O188 O 0.12283 0.4196 0.23374 0.0
O189 O 0.07161 0.54002 0.23341 0.0
C190 C 0.15802 0.49913 0.30715 0.0
O191 O 0.16094 0.46339 0.29854 0.0
C192 C 0.16798 0.48778 0.197 0.0
O193 O 0.18727 0.49561 0.22725 0.0
O194 O 0.08006 0.45253 0.26106 0.0
C195 C 0.82785 0.86981 0.54257 0.0
O196 O 0.83445 0.90196 0.52723 0.0
O197 O 0.73094 0.91792 0.56181 0.0
Zn198 Zn 0.75565 0.88755 0.52223 0.0
O199 O 0.77643 0.92054 0.48349 0.0
C200 C 0.68856 0.8454 0.51076 0.0
O201 O 0.68166 0.8586 0.54447 0.0
O202 O 0.79552 0.8579 0.54442 0.0
C203 C 0.75828 0.93112 0.45579 0.0
O204 O 0.72397 0.92207 0.45342 0.0
C205 C 0.74523 0.94227 0.58431 0.0
O206 O 0.77986 0.94952 0.58261 0.0
O207 O 0.71879 0.85307 0.49653 0.0
C208 C 0.81716 0.99513 0.1862 0.0
O209 O 0.82245 0.95934 0.19001 0.0
O210 O 0.88208 0.95626 0.24343 0.0
Zn211 Zn 0.85613 0.00322 0.25651 0.0
O212 O 0.89083 0.04537 0.27044 0.0
C213 C 0.83787 0.98877 0.33095 0.0
O214 O 0.87294 0.99214 0.33428 0.0
O215 O 0.82827 0.0183 0.21169 0.0
C216 C 0.87941 0.07409 0.28784 0.0
O217 O 0.84549 0.07492 0.29715 0.0
C218 C 0.91571 0.95249 0.24683 0.0
O219 O 0.93568 0.98074 0.26012 0.0
O220 O 0.82348 0.993 0.29917 0.0
C221 C 0.18811 0.63902 0.53503 0.0
O222 O 0.18816 0.60273 0.53919 0.0
O223 O 0.26202 0.58608 0.5415 0.0
Zn224 Zn 0.24976 0.61779 0.49813 0.0
O225 O 0.22613 0.58876 0.4552 0.0
C226 C 0.32451 0.62796 0.48297 0.0
O227 O 0.32499 0.59359 0.49453 0.0
O228 O 0.21336 0.65422 0.51702 0.0
C229 C 0.24056 0.56612 0.4322 0.0
O230 O 0.27453 0.55825 0.4364 0.0
C231 C 0.26452 0.55085 0.54277 0.0
O232 O 0.25968 0.52992 0.51222 0.0
O233 O 0.29477 0.64447 0.48167 0.0
C234 C 0.32117 0.49154 0.67938 0.0
O235 O 0.33521 0.45826 0.67904 0.0
O236 O 0.38561 0.4572 0.74269 0.0
Zn237 Zn 0.35511 0.50183 0.75331 0.0
O238 O 0.38389 0.54862 0.76827 0.0
C239 C 0.33789 0.48205 0.82615 0.0
O240 O 0.373 0.48493 0.82837 0.0
O241 O 0.32597 0.51333 0.70785 0.0
C242 C 0.41492 0.55021 0.78336 0.0
O243 O 0.43146 0.51905 0.78956 0.0
C244 C 0.41362 0.45684 0.72293 0.0
O245 O 0.42503 0.48798 0.70828 0.0
O246 O 0.32256 0.48859 0.79534 0.0
C247 C 0.56996 0.0599 0.71507 0.0
O248 O 0.58192 0.03928 0.6871 0.0
O249 O 0.63193 0.98933 0.71385 0.0
Zn250 Zn 0.60096 0.00195 0.75786 0.0
O251 O 0.6311 0.0144 0.80326 0.0
C252 C 0.58125 0.9248 0.76097 0.0
O253 O 0.61171 0.92232 0.74319 0.0
O254 O 0.57312 0.04822 0.74793 0.0
C255 C 0.65957 -0.0016 0.81288 0.0
O256 O 0.67223 0.97148 0.7914 0.0
C257 C 0.66202 0.00459 0.70661 0.0
O258 O 0.67556 0.03103 0.72933 0.0
O259 O 0.56962 0.95707 0.76937 0.0
C260 C 0.70572 0.66136 0.95977 0.0
O261 O 0.71662 0.63008 0.94404 0.0
O262 O 0.75093 0.61282 0.04578 0.0
Zn263 Zn 0.76632 0.64633 0.00456 0.0
O264 O 0.7851 0.61849 0.95946 0.0
C265 C 0.83622 0.66082 0.02896 0.0
O266 O 0.83507 0.6245 0.02219 0.0
O267 O 0.72337 0.67559 0.98763 0.0
C268 C 0.79015 0.58385 0.95372 0.0
O269 O 0.78318 0.56048 0.98022 0.0
C270 C 0.72332 0.59135 0.04311 0.0
O271 O 0.70527 0.58894 0.01142 0.0
O272 O 0.80777 0.67896 0.02404 0.0
C273 C 0.91671 0.42779 0.76756 0.0
O274 O 0.88274 0.42193 0.75858 0.0
O275 O 0.86351 0.48682 0.71378 0.0
Zn276 Zn 0.89518 0.50191 0.75809 0.0
O277 O 0.86662 0.51045 0.80453 0.0
C278 C 0.93167 0.55498 0.71374 0.0
O279 O 0.92534 0.52842 0.68813 0.0
O280 O 0.92935 0.46108 0.7683 0.0
C281 C 0.85167 0.54148 0.81048 0.0
O282 O 0.85391 0.56687 0.785 0.0
C283 C 0.82944 0.48579 0.71369 0.0
O284 O 0.81258 0.49453 0.74458 0.0
O285 O 0.92202 0.54953 0.74696 0.0
C286 C 0.82317 0.36264 0.49415 0.0
O287 O 0.83247 0.38335 0.52383 0.0
O288 O 0.77457 0.42606 0.54839 0.0
Zn289 Zn 0.75428 0.39823 0.50277 0.0
O290 O 0.74074 0.43285 0.46243 0.0
C291 C 0.71149 0.34569 0.54286 0.0
O292 O 0.7424 0.34052 0.55963 0.0
O293 O 0.79129 0.36397 0.48143 0.0
C294 C 0.71024 0.44776 0.46196 0.0
O295 O 0.68851 0.44241 0.48991 0.0
C296 C 0.75544 0.43622 0.57582 0.0
O297 O 0.72054 0.43069 0.57356 0.0
O298 O 0.71025 0.36864 0.51677 0.0
C299 C 0.6563 0.53328 0.17546 0.0
O300 O 0.62255 0.52207 0.17246 0.0
O301 O 0.61358 0.57167 0.26699 0.0
Zn302 Zn 0.63983 0.52547 0.25202 0.0
O303 O 0.60456 0.48369 0.23859 0.0
C304 C 0.65161 0.50965 0.32704 0.0
O305 O 0.61756 0.5182 0.32682 0.0
O306 O 0.6707 0.5364 0.20778 0.0
C307 C 0.6137 0.44988 0.24019 0.0
O308 O 0.64652 0.4427 0.25098 0.0
C309 C 0.58089 0.57727 0.25926 0.0
O310 O 0.56249 0.55196 0.23907 0.0
O311 O 0.66873 0.51087 0.29667 0.0
C312 C 0.04903 0.38905 0.29421 0.0
C313 C 0.07847 0.38659 0.27017 0.0
C314 C 0.03647 0.35797 0.31327 0.0
C315 C 0.0529 0.32313 0.30923 0.0
H316 H 0.03603 0.41543 0.29919 0.0
H317 H 0.01434 0.36172 0.33218 0.0
S318 S 0.12851 0.30064 0.24666 0.0
N319 N 0.12196 0.34551 0.24115 0.0
N320 N 0.09842 0.28724 0.27708 0.0
C321 C 0.08138 0.3198 0.28408 0.0
C322 C 0.09412 0.35146 0.26452 0.0
C323 C 0.87752 0.79534 0.59376 0.0
C324 C 0.91384 0.80432 0.58743 0.0
C325 C 0.85002 0.81646 0.57894 0.0
C326 C 0.85764 0.84768 0.55741 0.0
H327 H 0.87014 0.77178 0.61039 0.0
H328 H 0.82254 0.80838 0.5848 0.0
S329 S 0.94841 0.88296 0.53231 0.0
N330 N 0.956 0.84646 0.55779 0.0
N331 N 0.9044 0.88626 0.53005 0.0
C332 C 0.89388 0.8569 0.55064 0.0
C333 C 0.92192 0.83519 0.56556 0.0
C334 C 0.41652 0.62005 0.78214 0.0
C335 C 0.43108 0.58706 0.79541 0.0
C336 C 0.42976 0.65538 0.79449 0.0
C337 C 0.45783 0.65921 0.82098 0.0
H338 H 0.39443 0.61867 0.7622 0.0
H339 H 0.41726 0.67985 0.7838 0.0
S340 S 0.50658 0.58176 0.86332 0.0
N341 N 0.47621 0.56061 0.83554 0.0
N342 N 0.50091 0.62695 0.85894 0.0
C343 C 0.47319 0.6265 0.83395 0.0
C344 C 0.45991 0.59047 0.82109 0.0
C345 C 0.61494 0.16558 0.10652 0.0
C346 C 0.60285 0.19933 0.09268 0.0
C347 C 0.64225 0.14595 0.0889 0.0
C348 C 0.65908 0.15966 0.05715 0.0
H349 H 0.60297 0.15394 0.13104 0.0
H350 H 0.65054 0.12003 0.10062 0.0
S351 S 0.63756 0.24688 0.00982 0.0
N352 N 0.6096 0.24562 0.04512 0.0
N353 N 0.66169 0.20899 0.01234 0.0
C354 C 0.64747 0.19349 0.04304 0.0
C355 C 0.61911 0.21322 0.06067 0.0
C356 C 0.08439 0.63907 0.21412 0.0
C357 C 0.0661 0.60469 0.21845 0.0
C358 C 0.0667 0.67021 0.20143 0.0
C359 C 0.02984 0.66849 0.19252 0.0
H360 H 0.1129 0.64199 0.21995 0.0
H361 H 0.08236 0.69571 0.19801 0.0
S362 S 0.96889 0.58569 0.20099 0.0
N363 N 0.00851 0.57118 0.21439 0.0
N364 N 0.97516 0.62985 0.19048 0.0
C365 C 0.01083 0.63465 0.19785 0.0
C366 C 0.02896 0.60275 0.21078 0.0
C367 C 0.59662 0.80755 0.47923 0.0
C368 C 0.603 0.79147 0.44364 0.0
C369 C 0.62459 0.82397 0.50111 0.0
C370 C 0.66012 0.82504 0.48829 0.0
H371 H 0.56968 0.80812 0.49013 0.0
H372 H 0.61806 0.83667 0.52794 0.0
S373 S 0.69174 0.78413 0.39832 0.0
N374 N 0.64806 0.77567 0.3975 0.0
N375 N 0.70045 0.80658 0.43851 0.0
C376 C 0.66708 0.80805 0.45322 0.0
C377 C 0.63861 0.79127 0.43095 0.0
C378 C 0.42647 0.35234 0.71095 0.0
C379 C 0.45865 0.34981 0.69112 0.0
C380 C 0.41288 0.38699 0.72215 0.0
C381 C 0.43076 0.42072 0.71382 0.0
H382 H 0.41098 0.32737 0.7171 0.0
H383 H 0.38749 0.38722 0.73645 0.0
S384 S 0.51801 0.42968 0.6659 0.0
N385 N 0.50962 0.38422 0.66618 0.0
N386 N 0.48389 0.44934 0.68708 0.0
C387 C 0.46381 0.41866 0.69548 0.0
C388 C 0.47781 0.38326 0.68423 0.0
C389 C 0.90357 0.14566 0.91885 0.0
C390 C 0.91054 0.18439 0.92204 0.0
C391 C 0.87511 0.12908 0.93778 0.0
C392 C 0.85199 0.1508 0.95972 0.0
H393 H 0.9204 0.12793 0.90177 0.0
H394 H 0.87069 0.09912 0.9345 0.0
S395 S 0.85865 0.25344 0.97701 0.0
N396 N 0.89249 0.24404 0.94923 0.0
N397 N 0.83801 0.21296 0.98387 0.0
C398 C 0.85856 0.18959 0.96308 0.0
C399 C 0.88815 0.20638 0.94452 0.0
C400 C 0.30375 0.09605 0.38338 0.0
C401 C 0.30279 0.07083 0.4126 0.0
C402 C 0.3201 0.08704 0.3495 0.0
C403 C 0.33622 0.05237 0.34321 0.0
H404 H 0.29217 0.12338 0.38672 0.0
H405 H 0.32045 0.10779 0.32826 0.0
S406 S 0.33966 0.97545 0.40988 0.0
N407 N 0.31834 0.00896 0.43247 0.0
N408 N 0.34908 0.99192 0.36865 0.0
C409 C 0.33471 0.02637 0.37177 0.0
C410 C 0.31801 0.03562 0.40645 0.0
C411 C 0.16412 0.02142 0.60235 0.0
C412 C 0.18225 0.027 0.63685 0.0
C413 C 0.1778 0.03608 0.56961 0.0
C414 C 0.2101 0.05717 0.57004 0.0
H415 H 0.13846 0.00655 0.60065 0.0
H416 H 0.16207 0.03213 0.54413 0.0
S417 S 0.27056 0.07579 0.65203 0.0
N418 N 0.23617 0.05205 0.66866 0.0
N419 N 0.26184 0.07969 0.60714 0.0
C420 C 0.22963 0.06116 0.60388 0.0
C421 C 0.21576 0.04604 0.63726 0.0
C422 C 0.20755 0.96895 0.86049 0.0
C423 C 0.17472 0.98739 0.85998 0.0
C424 C 0.22137 0.95493 0.89356 0.0
C425 C 0.20294 0.95878 0.92747 0.0
H426 H 0.22227 0.96432 0.83498 0.0
H427 H 0.24624 0.94001 0.89218 0.0
S428 S 0.11791 0.00868 0.94202 0.0
N429 N 0.1256 0.01154 0.897 0.0
N430 N 0.15152 0.98518 0.95898 0.0
C431 C 0.17087 0.97863 0.92767 0.0
C432 C 0.15679 0.99291 0.89399 0.0
C433 C 0.31878 0.95094 0.10985 0.0
C434 C 0.28121 0.9516 0.10595 0.0
C435 C 0.33618 0.9639 0.1428 0.0
C436 C 0.31684 0.97818 0.17335 0.0
H437 H 0.33504 0.9398 0.08748 0.0
H438 H 0.36512 0.96238 0.1443 0.0
S439 S 0.21797 0.98747 0.17713 0.0
N440 N 0.22518 0.96878 0.13526 0.0
N441 N 0.2579 0.99315 0.19717 0.0
C442 C 0.27927 0.97968 0.16966 0.0
C443 C 0.26149 0.96641 0.13602 0.0
C444 C 0.35828 0.29593 0.04766 0.0
C445 C 0.36012 0.33495 0.04436 0.0
C446 C 0.38812 0.27617 0.05923 0.0
C447 C 0.42108 0.29458 0.06805 0.0
H448 H 0.3334 0.28043 0.04187 0.0
H449 H 0.38495 0.24627 0.06206 0.0
S450 S 0.44096 0.39629 0.06149 0.0
N451 N 0.39836 0.39113 0.04898 0.0
N452 N 0.45432 0.35402 0.07077 0.0
C453 C 0.42367 0.33348 0.06378 0.0
C454 C 0.39325 0.35364 0.05195 0.0
C455 C 0.92319 0.8523 0.2106 0.0
C456 C 0.96004 0.84896 0.20386 0.0
C457 C 0.90939 0.88558 0.22526 0.0
C458 C 0.93186 0.9169 0.23412 0.0
H459 H 0.90453 0.82941 0.20346 0.0
H460 H 0.88068 0.88686 0.22909 0.0
S461 S 0.03086 0.92174 0.22474 0.0
N462 N 0.01918 0.87913 0.20929 0.0
N463 N 0.99321 0.94172 0.23708 0.0
C464 C 0.96899 0.91352 0.22899 0.0
C465 C 0.98307 0.87958 0.21378 0.0
C466 C 0.14337 0.64815 0.58496 0.0
C467 C 0.15984 0.66136 0.55281 0.0
C468 C 0.11616 0.66794 0.60256 0.0
C469 C 0.10377 0.70141 0.58832 0.0
H470 H 0.15176 0.62238 0.59692 0.0
H471 H 0.10438 0.65651 0.62728 0.0
S472 S 0.1378 0.74792 0.5046 0.0
N473 N 0.16207 0.71015 0.50741 0.0
N474 N 0.11007 0.74708 0.54013 0.0
C475 C 0.11982 0.71495 0.55605 0.0
C476 C 0.14813 0.69505 0.53844 0.0
C477 C 0.96853 0.65495 0.72299 0.0
C478 C 0.97604 0.66373 0.68595 0.0
C479 C 0.95459 0.61965 0.73172 0.0
C480 C 0.94782 0.59157 0.70381 0.0
H481 H 0.97304 0.67563 0.74546 0.0
H482 H 0.94888 0.61449 0.76064 0.0
S483 S 0.96454 0.59973 0.6025 0.0
N484 N 0.97677 0.64092 0.62116 0.0
N485 N 0.95075 0.57476 0.63757 0.0
C486 C 0.9558 0.59978 0.66669 0.0
C487 C 0.96982 0.63577 0.65777 0.0
C488 C 0.13766 0.14806 0.41946 0.0
C489 C 0.15832 0.16806 0.44692 0.0
C490 C 0.10518 0.16146 0.40639 0.0
C491 C 0.09171 0.19552 0.42013 0.0
H492 H 0.14657 0.12167 0.40768 0.0
H493 H 0.09063 0.14479 0.38512 0.0
S494 S 0.13513 0.25882 0.49255 0.0
N495 N 0.16282 0.22377 0.48779 0.0
N496 N 0.10153 0.24909 0.4631 0.0
C497 C 0.11188 0.21587 0.44782 0.0
C498 C 0.1452 0.20214 0.46121 0.0
C499 C 0.60161 0.38267 0.22213 0.0
C500 C 0.58877 0.41906 0.22723 0.0
C501 C 0.57973 0.35362 0.20672 0.0
C502 C 0.544 0.35964 0.19588 0.0
H503 H 0.62916 0.37666 0.22905 0.0
H504 H 0.59133 0.3264 0.20243 0.0
S505 S 0.49616 0.44902 0.2069 0.0
N506 N 0.53711 0.45894 0.22283 0.0
N507 N 0.49595 0.40433 0.19392 0.0
C508 C 0.53024 0.3955 0.20248 0.0
C509 C 0.55262 0.42519 0.21808 0.0
C510 C 0.34711 0.81174 0.94366 0.0
C511 C 0.35277 0.82452 0.98087 0.0
C512 C 0.37406 0.79397 0.92354 0.0
C513 C 0.40793 0.78812 0.93968 0.0
H514 H 0.32183 0.81614 0.92949 0.0
H515 H 0.36835 0.78541 0.89477 0.0
S516 S 0.43593 0.81385 0.03716 0.0
N517 N 0.39437 0.82826 0.03382 0.0
N518 N 0.44509 0.79479 -0.0041 0.0
C519 C 0.41364 0.79948 0.97733 0.0
C520 C 0.38608 0.81767 -0.00208 0.0
C521 C 0.97213 0.40502 0.79853 0.0
C522 C 0.93866 0.39695 0.78107 0.0
C523 C 0.99148 0.37712 0.81556 0.0
C524 C 0.97811 0.34006 0.8159 0.0
H525 H 0.98298 0.43337 0.80027 0.0
H526 H 0.01644 0.38506 0.8298 0.0
S527 S 0.89436 0.30313 0.76941 0.0
N528 N 0.89485 0.3483 0.76177 0.0
N529 N 0.93117 0.29595 0.79384 0.0
C530 C 0.94569 0.33116 0.79672 0.0
C531 C 0.926 0.35956 0.7793 0.0
C532 C 0.36539 0.20805 0.54516 0.0
C533 C 0.35265 0.17226 0.55432 0.0
C534 C 0.39634 0.22416 0.56253 0.0
C535 C 0.41506 0.2053 0.59016 0.0
H536 H 0.35173 0.22343 0.52401 0.0
H537 H 0.40536 0.25172 0.55464 0.0
S538 S 0.39202 0.11125 0.62473 0.0
N539 N 0.36083 0.11871 0.59306 0.0
N540 N 0.41847 0.1489 0.62582 0.0
C541 C 0.40229 0.16965 0.59974 0.0
C542 C 0.37122 0.15315 0.58179 0.0
C543 C 0.50754 0.64174 0.29246 0.0
C544 C 0.52658 0.66938 0.31401 0.0
C545 C 0.52539 0.61268 0.27385 0.0
C546 C 0.56297 0.61023 0.27601 0.0
H547 H 0.47854 0.64181 0.29081 0.0
H548 H 0.50943 0.59146 0.25853 0.0
S549 S 0.62562 0.67829 0.32521 0.0
N550 N 0.58538 0.69428 0.33381 0.0
N551 N 0.61884 0.63994 0.29894 0.0
C552 C 0.58244 0.63872 0.29609 0.0
C553 C 0.56428 0.6682 0.31506 0.0
C554 C 0.155 0.79904 0.11658 0.0
C555 C 0.12107 0.80161 0.09937 0.0
C556 C 0.18619 0.81185 0.09936 0.0
C557 C 0.18488 0.82799 0.06422 0.0
H558 H 0.15761 0.78731 0.14386 0.0
H559 H 0.21148 0.80967 0.1142 0.0
S560 S 0.1029 0.83997 0.00639 0.0
N561 N 0.08813 0.82045 0.04445 0.0
N562 N 0.14677 0.84468 0.01208 0.0
C563 C 0.15121 0.83005 0.04622 0.0
C564 C 0.11935 0.81683 0.06377 0.0
C565 C 0.7397 0.98225 0.64276 0.0
C566 C 0.72319 0.96039 0.61366 0.0
C567 C 0.71963 -0.00264 0.67223 0.0
C568 C 0.68232 0.99102 0.6738 0.0
H569 H 0.76848 0.9871 0.64333 0.0
H570 H 0.73366 0.01322 0.69444 0.0
S571 S 0.62546 0.93923 0.60257 0.0
N572 N 0.66666 0.93583 0.58686 0.0
N573 N 0.62922 0.96387 0.64223 0.0
C574 C 0.66528 0.97041 0.64421 0.0
C575 C 0.68562 0.95521 0.61415 0.0
C576 C 0.83334 0.96998 0.3971 0.0
C577 C 0.81608 0.97754 0.36321 0.0
C578 C 0.81418 0.95629 0.42718 0.0
C579 C 0.77686 0.94954 0.42476 0.0
H580 H 0.86213 0.97376 0.40029 0.0
H581 H 0.82905 0.95008 0.45223 0.0
S582 S 0.71823 0.96807 0.34339 0.0
N583 N 0.75898 0.97975 0.32983 0.0
N584 N 0.72292 0.95398 0.38644 0.0
C585 C 0.75895 0.9585 0.3916 0.0
C586 C 0.77854 0.97247 0.36084 0.0
C587 C 0.78731 0.06232 0.11351 0.0
C588 C 0.77445 0.03871 0.08385 0.0
C589 C 0.80025 0.04786 0.14657 0.0
C590 C 0.80117 0.0091 0.15145 0.0
H591 H 0.78745 0.09241 0.11131 0.0
H592 H 0.81007 0.06746 0.16829 0.0
S593 S 0.77005 0.935 0.08253 0.0
N594 N 0.76286 0.97449 0.06163 0.0
N595 N 0.78742 0.94717 0.12389 0.0
C596 C 0.78802 0.98503 0.1222 0.0
C597 C 0.7746 -0.00015 0.08842 0.0
C598 C 0.71629 0.00689 0.85056 0.0
C599 C 0.67916 0.01186 0.84704 0.0
C600 C 0.7358 0.02253 0.88121 0.0
C601 C 0.71885 0.04354 0.90954 0.0
H602 H 0.73062 0.9919 0.8289 0.0
H603 H 0.76453 0.01894 0.88211 0.0
S604 S 0.62116 0.06032 0.91574 0.0
N605 N 0.62559 0.03626 0.87605 0.0
N606 N 0.66202 0.06539 0.93366 0.0
C607 C 0.68138 0.04709 0.90718 0.0
C608 C 0.66161 0.03134 0.87594 0.0
C609 C 0.62647 0.67821 0.89635 0.0
C610 C 0.60673 0.70507 0.91625 0.0
C611 C 0.6586 0.66507 0.91054 0.0
C612 C 0.6727 0.67826 0.94525 0.0
H613 H 0.61688 0.66663 0.86964 0.0
H614 H 0.67234 0.64406 0.89405 0.0
S615 S 0.63241 0.74984 0.00806 0.0
N616 N 0.60419 0.7454 0.97223 0.0
N617 N 0.66497 0.72062 -0.00108 0.0
C618 C 0.6538 0.70579 0.96524 0.0
C619 C 0.62073 0.71915 0.95078 0.0
C620 C 0.0968 0.13245 0.77518 0.0
C621 C 0.07698 0.09876 0.77842 0.0
C622 C 0.08429 0.16631 0.79014 0.0
C623 C 0.05176 0.16765 0.80942 0.0
H624 H 0.12242 0.13266 0.7613 0.0
H625 H 0.10077 0.19139 0.78749 0.0
S626 S 0.9888 0.08766 0.82413 0.0
N627 N 0.02238 0.06919 0.80103 0.0
N628 N -0.00091 0.13263 0.82943 0.0
C629 C 0.03126 0.13432 0.8121 0.0
C630 C 0.04378 0.09994 0.7965 0.0
C631 C 0.91312 0.32329 0.46656 0.0
C632 C 0.90515 0.30337 0.43286 0.0
C633 C 0.88631 0.34161 0.48662 0.0
C634 C 0.8504 0.34054 0.47388 0.0
H635 H 0.94045 0.32556 0.47714 0.0
H636 H 0.89402 0.35728 0.51196 0.0
S637 S 0.81491 0.28902 0.38894 0.0
N638 N 0.85834 0.28149 0.38888 0.0
N639 N 0.80802 0.31568 0.4265 0.0
C640 C 0.84187 0.31951 0.44088 0.0
C641 C 0.8692 0.30103 0.42039 0.0
C642 C 0.57692 0.85525 0.76387 0.0
C643 C 0.5635 0.89038 0.77458 0.0
C644 C 0.56408 0.82239 0.77962 0.0
C645 C 0.53742 0.82326 0.80697 0.0
H646 H 0.59835 0.85305 0.74387 0.0
H647 H 0.57625 0.7963 0.77129 0.0
S648 S 0.49006 0.90741 0.84154 0.0
N649 N 0.51956 0.92359 0.81182 0.0
N650 N 0.49549 0.86182 0.84154 0.0
C651 C 0.52232 0.85792 0.81651 0.0
C652 C 0.5353 0.89145 0.80029 0.0
C653 C 0.91752 0.16138 0.33806 0.0
C654 C 0.94994 0.16824 0.31958 0.0
C655 C 0.89482 0.13109 0.32732 0.0
C656 C 0.90392 0.10605 0.29808 0.0
H657 H 0.90939 0.17975 0.36092 0.0
H658 H 0.87015 0.12704 0.34244 0.0
S659 S 0.98588 0.11146 0.24068 0.0
N660 N 0.98996 0.14766 0.2704 0.0
N661 N 0.94753 0.09024 0.25053 0.0
C662 C 0.93631 0.11248 0.27935 0.0
C663 C 0.95922 0.14373 0.28997 0.0
C664 C 0.55723 0.11131 0.67211 0.0
C665 C 0.5568 0.09795 0.70848 0.0
C666 C 0.54745 0.14778 0.66486 0.0
C667 C 0.53658 0.17267 0.6936 0.0
H668 H 0.56563 0.09364 0.64885 0.0
H669 H 0.54843 0.15637 0.63624 0.0
S670 S 0.52993 0.15149 0.79386 0.0
N671 N 0.54404 0.11245 0.77376 0.0
N672 N 0.52545 0.18112 0.76001 0.0
C673 C 0.53555 0.15966 0.73013 0.0
C674 C 0.54566 0.12233 0.73759 0.0
C675 C 0.16063 0.28917 0.96016 0.0
C676 C 0.15313 0.32068 0.98303 0.0
C677 C 0.13322 0.26869 0.94101 0.0
C678 C 0.09719 0.27911 0.9436 0.0
H679 H 0.18796 0.28022 0.95682 0.0
H680 H 0.14051 0.24489 0.9235 0.0
S681 S 0.06296 0.35888 0.00052 0.0
N682 N 0.10674 0.36084 0.00784 0.0
N683 N 0.05533 0.32255 0.97165 0.0
C684 C 0.0892 0.31031 0.96672 0.0
C685 C 0.11711 0.331 0.9865 0.0
C686 C 0.42141 0.64194 0.4542 0.0
C687 C 0.42388 0.68013 0.44641 0.0
C688 C 0.38934 0.62556 0.46635 0.0
C689 C 0.35824 0.6466 0.47103 0.0
H690 H 0.44436 0.6243 0.45057 0.0
H691 H 0.3889 0.59596 0.4716 0.0
S692 S 0.35058 0.74811 0.45583 0.0
N693 N 0.39246 0.73891 0.44538 0.0
N694 N 0.33223 0.70805 0.46804 0.0
C695 C 0.36039 0.68497 0.46391 0.0
C696 C 0.39316 0.70174 0.45171 0.0
C697 C 0.82031 0.58583 0.85332 0.0
C698 C 0.83407 0.55009 0.84653 0.0
C699 C 0.80575 0.59601 0.8878 0.0
C700 C 0.80415 0.57089 0.91709 0.0
H701 H 0.82127 0.60653 0.83206 0.0
H702 H 0.79594 0.62409 0.8915 0.0
S703 S 0.83487 0.47309 0.91327 0.0
N704 N 0.84393 0.48882 0.87164 0.0
N705 N 0.81644 0.50809 0.93658 0.0
C706 C 0.81689 0.53466 0.91047 0.0
C707 C 0.83187 0.52424 0.87521 0.0
C708 C 0.6586 0.54186 0.10669 0.0
C709 C 0.67592 0.54487 0.1418 0.0
C710 C 0.67479 0.5556 0.07478 0.0
C711 C 0.70899 0.57308 0.07655 0.0
H712 H 0.63184 0.52957 0.10379 0.0
H713 H 0.65975 0.55346 0.04874 0.0
S714 S 0.76749 0.58466 0.16099 0.0
N715 N 0.73051 0.56416 0.1759 0.0
N716 N 0.76094 0.59002 0.11593 0.0
C717 C 0.72739 0.57478 0.11115 0.0
C718 C 0.71088 0.56068 0.14374 0.0
C719 C 0.66206 0.47912 0.42668 0.0
C720 C 0.69755 0.46688 0.42837 0.0
C721 C 0.64791 0.49371 0.39412 0.0
C722 C 0.6686 0.49673 0.36177 0.0
H723 H 0.64459 0.4766 0.45039 0.0
H724 H 0.62017 0.50193 0.39422 0.0
S725 S 0.76415 0.47173 0.35239 0.0
N726 N 0.75395 0.46107 0.39543 0.0
N727 N 0.72728 0.48845 0.33421 0.0
C728 C 0.70461 0.48598 0.36343 0.0
C729 C 0.71908 0.47111 0.39671 0.0
C730 C 0.82827 0.46754 0.64575 0.0
C731 C 0.80936 0.47461 0.67886 0.0
C732 C 0.8105 0.45601 0.61257 0.0
C733 C 0.77296 0.45099 0.61094 0.0
H734 H 0.85723 0.47063 0.64535 0.0
H735 H 0.82653 0.45056 0.5881 0.0
S736 S 0.71057 0.46673 0.68955 0.0
N737 N 0.7507 0.47653 0.70774 0.0
N738 N 0.71726 0.45483 0.64536 0.0
C739 C 0.75355 0.45858 0.64366 0.0
C740 C 0.77171 0.47036 0.67758 0.0
C741 C 0.42584 0.13006 0.18395 0.0
C742 C 0.43646 0.10898 0.2143 0.0
C743 C 0.44405 0.16319 0.17546 0.0
C744 C 0.47357 0.17691 0.19711 0.0
H745 H 0.40347 0.12073 0.16612 0.0
H746 H 0.43493 0.17803 0.15148 0.0
S747 S 0.51151 0.13309 0.28059 0.0
N748 N 0.47795 0.10474 0.26684 0.0
N749 N 0.51217 0.16725 0.2509 0.0
C750 C 0.48413 0.15659 0.22806 0.0
C751 C 0.46565 0.12256 0.23661 0.0
C752 C 0.07912 0.84323 0.70664 0.0
C753 C 0.04384 0.85161 0.69601 0.0
C754 C 0.10259 0.87074 0.7224 0.0
C755 C 0.09185 0.90785 0.72805 0.0
H756 H 0.08923 0.81544 0.70165 0.0
H757 H 0.1298 0.86303 0.72888 0.0
S758 S 0.00092 0.9435 0.70973 0.0
N759 N -0.00175 0.89909 0.69577 0.0
N760 N 0.04242 0.95076 0.72526 0.0
C761 C 0.05606 0.91622 0.71954 0.0
C762 C 0.03205 0.88812 0.70361 0.0
C763 C 0.44042 0.84529 0.32861 0.0
C764 C 0.47791 0.84357 0.32554 0.0
C765 C 0.42133 0.87394 0.31275 0.0
C766 C 0.43889 0.90235 0.29337 0.0
H767 H 0.42553 0.82441 0.34363 0.0
H768 H 0.39256 0.87408 0.31645 0.0
S769 S 0.53668 0.91013 0.27603 0.0
N770 N 0.5319 0.87221 0.30052 0.0
N771 N 0.49596 0.92635 0.27083 0.0
C772 C 0.47633 0.9007 0.28941 0.0
C773 C 0.49583 0.87124 0.3054 0.0
C774 C 0.90221 0.65908 0.04054 0.0
C775 C 0.87042 0.67945 0.04172 0.0
C776 C 0.93491 0.67487 0.05349 0.0
C777 C 0.93731 0.71168 0.06847 0.0
H778 H 0.90193 0.63044 0.02975 0.0
H779 H 0.95834 0.65762 0.05247 0.0
S780 S 0.8623 0.77771 0.07644 0.0
N781 N 0.84363 0.739 0.05783 0.0
N782 N 0.90513 0.76874 0.08244 0.0
C783 C 0.9059 0.73277 0.06908 0.0
C784 C 0.8725 0.71667 0.05565 0.0
C785 C 0.64747 0.2958 0.60678 0.0
C786 C 0.61385 0.29894 0.58907 0.0
C787 C 0.67888 0.30996 0.59102 0.0
C788 C 0.67806 0.32817 0.55696 0.0
H789 H 0.64965 0.28261 0.63338 0.0
H790 H 0.70389 0.30733 0.60625 0.0
S791 S 0.59713 0.34218 0.49818 0.0
N792 N 0.58179 0.32032 0.53468 0.0
N793 N 0.64084 0.34719 0.50506 0.0
C794 C 0.64474 0.33072 0.53836 0.0
C795 C 0.61268 0.31602 0.55438 0.0
C796 C 0.1813 0.46611 0.09398 0.0
C797 C 0.21386 0.44723 0.09348 0.0
C798 C 0.16702 0.47978 0.12757 0.0
C799 C 0.18516 0.47577 0.16178 0.0
H800 H 0.16601 0.46912 0.06844 0.0
H801 H 0.14135 0.49322 0.12676 0.0
S802 S 0.2728 0.43099 0.17505 0.0
N803 N 0.26477 0.42678 0.1297 0.0
N804 N 0.23833 0.45317 0.1928 0.0
C805 C 0.21851 0.45833 0.16145 0.0
C806 C 0.23274 0.44384 0.12731 0.0
C807 C 0.28119 0.45578 0.85262 0.0
C808 C 0.31702 0.46829 0.85799 0.0
C809 C 0.26204 0.43925 0.88138 0.0
C810 C 0.27794 0.43467 0.91666 0.0
H811 H 0.2681 0.45764 0.82566 0.0
H812 H 0.23492 0.42901 0.87547 0.0
S813 S 0.36979 0.46679 0.94641 0.0
N814 N 0.36666 0.47785 0.90226 0.0
N815 N 0.3308 0.44701 0.95623 0.0
C816 C 0.31321 0.44875 0.92293 0.0
C817 C 0.3327 0.46547 0.89362 0.0
C818 C 0.2923 0.49963 0.57806 0.0
C819 C 0.27528 0.53421 0.57826 0.0
C820 C 0.30599 0.48536 0.61111 0.0
C821 C 0.30305 0.5051 0.64558 0.0
H822 H 0.29627 0.48407 0.55205 0.0
H823 H 0.32 0.45925 0.60934 0.0
S824 S 0.25602 0.59433 0.66174 0.0
N825 N 0.25288 0.58597 0.61627 0.0
N826 N 0.27842 0.55924 0.67824 0.0
C827 C 0.28432 0.53875 0.64636 0.0
C828 C 0.2705 0.55328 0.61275 0.0
C829 C 0.20968 0.49979 0.35247 0.0
C830 C 0.17861 0.51661 0.33904 0.0
C831 C 0.22977 0.51611 0.3824 0.0
C832 C 0.21916 0.54948 0.40045 0.0
H833 H 0.21881 0.47401 0.3395 0.0
H834 H 0.25357 0.50224 0.3917 0.0
S835 S 0.13961 0.60451 0.37627 0.0
N836 N 0.13816 0.56855 0.34617 0.0
N837 N 0.17553 0.5989 0.40258 0.0
C838 C 0.188 0.56646 0.38743 0.0
C839 C 0.16785 0.55013 0.35669 0.0
loop_
_geom_bond_atom_site_label_1
_geom_bond_atom_site_label_2
_geom_bond_distance
_geom_bond_site_symmetry_2
_ccdc_geom_bond_type
C0 O1 1.160 . S
C0 O7 1.185 . S
O1 C0 1.160 . S
O2 Zn3 1.894 1_655 S
O2 C10 1.284 . S
Zn3 O2 1.894 1_455 S
Zn3 O4 2.033 . S
Zn3 O7 2.080 1_455 S
Zn3 O12 1.986 . S
O4 Zn3 2.033 . S
O4 C8 1.278 . S
C5 O6 1.203 . S
C5 O12 1.267 . S
O6 C5 1.203 . S
O7 C0 1.185 . S
O7 Zn3 2.080 1_655 S
C8 O4 1.278 . S
C8 O9 1.211 . S
O9 C8 1.211 . S
C10 O2 1.284 . S
C10 O11 1.273 1_655 S
O11 C10 1.273 1_455 S
O12 Zn3 1.986 . S
O12 C5 1.267 . S
C13 O14 1.160 . S
C13 O20 1.185 . S
O14 C13 1.160 . S
O15 Zn16 1.899 1_655 S
O15 C23 1.284 . S
Zn16 O15 1.899 1_455 S
Zn16 O17 2.032 . S
Zn16 O20 2.086 . S
Zn16 O25 1.977 1_455 S
O17 Zn16 2.032 . S
O17 C21 1.278 . S
C18 O19 1.203 . S
C18 O25 1.267 . S
O19 C18 1.203 . S
O20 C13 1.185 . S
O20 Zn16 2.086 . S
C21 O17 1.278 . S
C21 O22 1.211 1_455 S
O22 C21 1.211 1_655 S
C23 O15 1.284 . S
C23 O24 1.273 . S
O24 C23 1.273 . S
O25 Zn16 1.977 1_655 S
O25 C18 1.267 . S
C26 O27 1.160 . S
C26 O33 1.185 . S
O27 C26 1.160 . S
O28 Zn29 1.899 . S
O28 C36 1.284 . S
Zn29 O28 1.899 . S
Zn29 O30 2.032 . S
Zn29 O33 2.086 . S
Zn29 O38 1.977 . S
O30 Zn29 2.032 . S
O30 C34 1.278 . S
C31 O32 1.203 . S
C31 O38 1.267 . S
O32 C31 1.203 . S
O33 C26 1.185 . S
O33 Zn29 2.086 . S
C34 O30 1.278 . S
C34 O35 1.211 . S
O35 C34 1.211 . S
C36 O28 1.284 . S
C36 O37 1.273 . S
O37 C36 1.273 . S
O38 Zn29 1.977 . S
O38 C31 1.267 . S
C39 O40 1.160 . S
C39 O46 1.185 . S
O40 C39 1.160 . S
O41 Zn42 1.899 . S
O41 C49 1.284 . S
Zn42 O41 1.899 . S
Zn42 O43 2.032 . S
Zn42 O46 2.086 . S
Zn42 O51 1.977 . S
O43 Zn42 2.032 . S
O43 C47 1.278 . S
C44 O45 1.203 . S
C44 O51 1.267 . S
O45 C44 1.203 . S
O46 C39 1.185 . S
O46 Zn42 2.086 . S
C47 O43 1.278 . S
C47 O48 1.211 . S
O48 C47 1.211 . S
C49 O41 1.284 . S
C49 O50 1.273 . S
O50 C49 1.273 . S
O51 Zn42 1.977 . S
O51 C44 1.267 . S
C52 O53 1.160 . S
C52 O59 1.185 . S
O53 C52 1.160 . S
O54 Zn55 1.899 . S
O54 C62 1.284 . S
Zn55 O54 1.899 . S
Zn55 O56 2.032 . S
Zn55 O59 2.086 . S
Zn55 O64 1.977 1_455 S
O56 Zn55 2.032 . S
O56 C60 1.278 1_455 S
C57 O58 1.203 . S
C57 O64 1.267 . S
O58 C57 1.203 . S
O59 C52 1.185 . S
O59 Zn55 2.086 . S
C60 O56 1.278 1_655 S
C60 O61 1.211 . S
O61 C60 1.211 . S
C62 O54 1.284 . S
C62 O63 1.273 . S
O63 C62 1.273 . S
O64 Zn55 1.977 1_655 S
O64 C57 1.267 . S
C65 O66 1.160 . S
C65 O72 1.185 . S
O66 C65 1.160 . S
O67 Zn68 1.899 . S
O67 C75 1.284 . S
Zn68 O67 1.899 . S
Zn68 O69 2.032 . S
Zn68 O72 2.086 . S
Zn68 O77 1.977 . S
O69 Zn68 2.032 . S
O69 C73 1.278 . S
C70 O71 1.203 . S
C70 O77 1.267 . S
O71 C70 1.203 . S
O72 C65 1.185 . S
O72 Zn68 2.086 . S
C73 O69 1.278 . S
C73 O74 1.211 . S
O74 C73 1.211 . S
C75 O67 1.284 . S
C75 O76 1.273 . S
O76 C75 1.273 . S
O77 Zn68 1.977 . S
O77 C70 1.267 . S
C78 O79 1.160 . S
C78 O85 1.185 . S
O79 C78 1.160 . S
O80 Zn81 1.899 . S
O80 C88 1.284 . S
Zn81 O80 1.899 . S
Zn81 O82 2.032 . S
Zn81 O85 2.086 . S
Zn81 O90 1.977 . S
O82 Zn81 2.032 . S
O82 C86 1.278 . S
C83 O84 1.203 . S
C83 O90 1.267 . S
O84 C83 1.203 . S
O85 C78 1.185 . S
O85 Zn81 2.086 . S
C86 O82 1.278 . S
C86 O87 1.211 . S
O87 C86 1.211 . S
C88 O80 1.284 . S
C88 O89 1.273 . S
O89 C88 1.273 . S
O90 Zn81 1.977 . S
O90 C83 1.267 . S
C91 O92 1.160 . S
C91 O98 1.185 . S
O92 C91 1.160 . S
O93 Zn94 1.899 . S
O93 C101 1.284 . S
Zn94 O93 1.899 . S
Zn94 O95 2.032 1_455 S
Zn94 O98 2.086 1_455 S
Zn94 O103 1.977 . S
O95 Zn94 2.032 1_655 S
O95 C99 1.278 . S
C96 O97 1.203 . S
C96 O103 1.267 . S
O97 C96 1.203 . S
O98 C91 1.185 . S
O98 Zn94 2.086 1_655 S
C99 O95 1.278 . S
C99 O100 1.211 1_655 S
O100 C99 1.211 1_455 S
C101 O93 1.284 . S
C101 O102 1.273 . S
O102 C101 1.273 . S
O103 Zn94 1.977 . S
O103 C96 1.267 . S
C104 O105 1.160 . S
C104 O111 1.185 . S
O105 C104 1.160 . S
O106 Zn107 1.899 1_565 S
O106 C114 1.284 . S
Zn107 O106 1.899 1_545 S
Zn107 O108 2.032 . S
Zn107 O111 2.086 1_545 S
Zn107 O116 1.977 . S
O108 Zn107 2.032 . S
O108 C112 1.278 . S
C109 O110 1.203 . S
C109 O116 1.267 . S
O110 C109 1.203 . S
O111 C104 1.185 . S
O111 Zn107 2.086 1_565 S
C112 O108 1.278 . S
C112 O113 1.211 . S
O113 C112 1.211 . S
C114 O106 1.284 . S
C114 O115 1.273 1_565 S
O115 C114 1.273 1_545 S
O116 Zn107 1.977 . S
O116 C109 1.267 . S
C117 O118 1.160 . S
C117 O124 1.185 . S
O118 C117 1.160 . S
O119 Zn120 1.899 . S
O119 C127 1.284 . S
Zn120 O119 1.899 . S
Zn120 O121 2.032 . S
Zn120 O124 2.086 . S
Zn120 O129 1.977 . S
O121 Zn120 2.032 . S
O121 C125 1.278 . S
C122 O123 1.203 . S
C122 O129 1.267 . S
O123 C122 1.203 . S
O124 C117 1.185 . S
O124 Zn120 2.086 . S
C125 O121 1.278 . S
C125 O126 1.211 . S
O126 C125 1.211 . S
C127 O119 1.284 . S
C127 O128 1.273 . S
O128 C127 1.273 . S
O129 Zn120 1.977 . S
O129 C122 1.267 . S
C130 O131 1.160 . S
C130 O137 1.185 . S
O131 C130 1.160 . S
O132 Zn133 1.899 . S
O132 C140 1.284 . S
Zn133 O132 1.899 . S
Zn133 O134 2.032 1_545 S
Zn133 O137 2.086 . S
Zn133 O142 1.977 1_545 S
O134 Zn133 2.032 1_565 S
O134 C138 1.278 . S
C135 O136 1.203 . S
C135 O142 1.267 . S
O136 C135 1.203 . S
O137 C130 1.185 . S
O137 Zn133 2.086 . S
C138 O134 1.278 . S
C138 O139 1.211 . S
O139 C138 1.211 . S
C140 O132 1.284 . S
C140 O141 1.273 . S
O141 C140 1.273 . S
O142 Zn133 1.977 1_565 S
O142 C135 1.267 . S
C143 O144 1.160 . S
C143 O150 1.185 . S
O144 C143 1.160 . S
O145 Zn146 1.899 . S
O145 C153 1.284 . S
Zn146 O145 1.899 . S
Zn146 O147 2.032 1_554 S
Zn146 O150 2.086 1_554 S
Zn146 O155 1.977 . S
O147 Zn146 2.032 1_556 S
O147 C151 1.278 . S
C148 O149 1.203 . S
C148 O155 1.267 . S
O149 C148 1.203 . S
O150 C143 1.185 . S
O150 Zn146 2.086 1_556 S
C151 O147 1.278 . S
C151 O152 1.211 . S
O152 C151 1.211 . S
C153 O145 1.284 . S
C153 O154 1.273 . S
O154 C153 1.273 . S
O155 Zn146 1.977 . S
O155 C148 1.267 . S
C156 O157 1.160 . S
C156 O163 1.185 . S
O157 C156 1.160 . S
O158 Zn159 1.899 . S
O158 C166 1.284 . S
Zn159 O158 1.899 . S
Zn159 O160 2.032 1_554 S
Zn159 O163 2.086 . S
Zn159 O168 1.977 1_554 S
O160 Zn159 2.032 1_556 S
O160 C164 1.278 . S
C161 O162 1.203 . S
C161 O168 1.267 . S
O162 C161 1.203 . S
O163 C156 1.185 . S
O163 Zn159 2.086 . S
C164 O160 1.278 . S
C164 O165 1.211 . S
O165 C164 1.211 . S
C166 O158 1.284 . S
C166 O167 1.273 . S
O167 C166 1.273 . S
O168 Zn159 1.977 1_556 S
O168 C161 1.267 . S
C169 O170 1.160 . S
C169 O176 1.185 . S
O170 C169 1.160 . S
O171 Zn172 1.899 . S
O171 C179 1.284 . S
Zn172 O171 1.899 . S
Zn172 O173 2.032 1_554 S
Zn172 O176 2.086 . S
Zn172 O181 1.977 1_554 S
O173 Zn172 2.032 1_556 S
O173 C177 1.278 . S
C174 O175 1.203 . S
C174 O181 1.267 . S
O175 C174 1.203 . S
O176 C169 1.185 . S
O176 Zn172 2.086 . S
C177 O173 1.278 . S
C177 O178 1.211 . S
O178 C177 1.211 . S
C179 O171 1.284 . S
C179 O180 1.273 . S
O180 C179 1.273 . S
O181 Zn172 1.977 1_556 S
O181 C174 1.267 . S
C182 O183 1.160 . S
C182 O189 1.185 . S
O183 C182 1.160 . S
O184 Zn185 1.899 . S
O184 C192 1.284 . S
Zn185 O184 1.899 . S
Zn185 O186 2.032 . S
Zn185 O189 2.086 . S
Zn185 O194 1.977 . S
O186 Zn185 2.032 . S
O186 C190 1.278 . S
C187 O188 1.203 . S
C187 O194 1.267 . S
O188 C187 1.203 . S
O189 C182 1.185 . S
O189 Zn185 2.086 . S
C190 O186 1.278 . S
C190 O191 1.211 . S
O191 C190 1.211 . S
C192 O184 1.284 . S
C192 O193 1.273 . S
O193 C192 1.273 . S
O194 Zn185 1.977 . S
O194 C187 1.267 . S
C195 O196 1.160 . S
C195 O202 1.185 . S
O196 C195 1.160 . S
O197 Zn198 1.899 . S
O197 C205 1.284 . S
Zn198 O197 1.899 . S
Zn198 O199 2.032 . S
Zn198 O202 2.086 . S
Zn198 O207 1.977 . S
O199 Zn198 2.032 . S
O199 C203 1.278 . S
C200 O201 1.203 . S
C200 O207 1.267 . S
O201 C200 1.203 . S
O202 C195 1.185 . S
O202 Zn198 2.086 . S
C203 O199 1.278 . S
C203 O204 1.211 . S
O204 C203 1.211 . S
C205 O197 1.284 . S
C205 O206 1.273 . S
O206 C205 1.273 . S
O207 Zn198 1.977 . S
O207 C200 1.267 . S
C208 O209 1.160 . S
C208 O215 1.185 . S
O209 C208 1.160 . S
O210 Zn211 1.899 . S
O210 C218 1.284 . S
Zn211 O210 1.899 . S
Zn211 O212 2.032 1_565 S
Zn211 O215 2.086 1_565 S
Zn211 O220 1.977 . S
O212 Zn211 2.032 1_545 S
O212 C216 1.278 . S
C213 O214 1.203 . S
C213 O220 1.267 . S
O214 C213 1.203 . S
O215 C208 1.185 . S
O215 Zn211 2.086 1_545 S
C216 O212 1.278 . S
C216 O217 1.211 . S
O217 C216 1.211 . S
C218 O210 1.284 . S
C218 O219 1.273 . S
O219 C218 1.273 . S
O220 Zn211 1.977 . S
O220 C213 1.267 . S
C221 O222 1.160 . S
C221 O228 1.185 . S
O222 C221 1.160 . S
O223 Zn224 1.899 . S
O223 C231 1.284 . S
Zn224 O223 1.899 . S
Zn224 O225 2.032 . S
Zn224 O228 2.086 . S
Zn224 O233 1.977 . S
O225 Zn224 2.032 . S
O225 C229 1.278 . S
C226 O227 1.203 . S
C226 O233 1.267 . S
O227 C226 1.203 . S
O228 C221 1.185 . S
O228 Zn224 2.086 . S
C229 O225 1.278 . S
C229 O230 1.211 . S
O230 C229 1.211 . S
C231 O223 1.284 . S
C231 O232 1.273 . S
O232 C231 1.273 . S
O233 Zn224 1.977 . S
O233 C226 1.267 . S
C234 O235 1.160 . S
C234 O241 1.185 . S
O235 C234 1.160 . S
O236 Zn237 1.899 . S
O236 C244 1.284 . S
Zn237 O236 1.899 . S
Zn237 O238 2.032 . S
Zn237 O241 2.086 . S
Zn237 O246 1.977 . S
O238 Zn237 2.032 . S
O238 C242 1.278 . S
C239 O240 1.203 . S
C239 O246 1.267 . S
O240 C239 1.203 . S
O241 C234 1.185 . S
O241 Zn237 2.086 . S
C242 O238 1.278 . S
C242 O243 1.211 . S
O243 C242 1.211 . S
C244 O236 1.284 . S
C244 O245 1.273 . S
O245 C244 1.273 . S
O246 Zn237 1.977 . S
O246 C239 1.267 . S
C247 O248 1.160 . S
C247 O254 1.185 . S
O248 C247 1.160 . S
O249 Zn250 1.899 1_565 S
O249 C257 1.284 . S
Zn250 O249 1.899 1_545 S
Zn250 O251 2.032 . S
Zn250 O254 2.086 . S
Zn250 O259 1.977 1_545 S
O251 Zn250 2.032 . S
O251 C255 1.278 . S
C252 O253 1.203 . S
C252 O259 1.267 . S
O253 C252 1.203 . S
O254 C247 1.185 . S
O254 Zn250 2.086 . S
C255 O251 1.278 . S
C255 O256 1.211 1_545 S
O256 C255 1.211 1_565 S
C257 O249 1.284 . S
C257 O258 1.273 . S
O258 C257 1.273 . S
O259 Zn250 1.977 1_565 S
O259 C252 1.267 . S
C260 O261 1.160 . S
C260 O267 1.185 . S
O261 C260 1.160 . S
O262 Zn263 1.899 . S
O262 C270 1.284 . S
Zn263 O262 1.899 . S
Zn263 O264 2.032 1_554 S
Zn263 O267 2.086 1_554 S
Zn263 O272 1.977 . S
O264 Zn263 2.032 1_556 S
O264 C268 1.278 . S
C265 O266 1.203 . S
C265 O272 1.267 . S
O266 C265 1.203 . S
O267 C260 1.185 . S
O267 Zn263 2.086 1_556 S
C268 O264 1.278 . S
C268 O269 1.211 . S
O269 C268 1.211 . S
C270 O262 1.284 . S
C270 O271 1.273 . S
O271 C270 1.273 . S
O272 Zn263 1.977 . S
O272 C265 1.267 . S
C273 O274 1.160 . S
C273 O280 1.185 . S
O274 C273 1.160 . S
O275 Zn276 1.899 . S
O275 C283 1.284 . S
Zn276 O275 1.899 . S
Zn276 O277 2.032 . S
Zn276 O280 2.086 . S
Zn276 O285 1.977 . S
O277 Zn276 2.032 . S
O277 C281 1.278 . S
C278 O279 1.203 . S
C278 O285 1.267 . S
O279 C278 1.203 . S
O280 C273 1.185 . S
O280 Zn276 2.086 . S
C281 O277 1.278 . S
C281 O282 1.211 . S
O282 C281 1.211 . S
C283 O275 1.284 . S
C283 O284 1.273 . S
O284 C283 1.273 . S
O285 Zn276 1.977 . S
O285 C278 1.267 . S
C286 O287 1.160 . S
C286 O293 1.185 . S
O287 C286 1.160 . S
O288 Zn289 1.899 . S
O288 C296 1.284 . S
Zn289 O288 1.899 . S
Zn289 O290 2.032 . S
Zn289 O293 2.086 . S
Zn289 O298 1.977 . S
O290 Zn289 2.032 . S
O290 C294 1.278 . S
C291 O292 1.203 . S
C291 O298 1.267 . S
O292 C291 1.203 . S
O293 C286 1.185 . S
O293 Zn289 2.086 . S
C294 O290 1.278 . S
C294 O295 1.211 . S
O295 C294 1.211 . S
C296 O288 1.284 . S
C296 O297 1.273 . S
O297 C296 1.273 . S
O298 Zn289 1.977 . S
O298 C291 1.267 . S
C299 O300 1.160 . S
C299 O306 1.185 . S
O300 C299 1.160 . S
O301 Zn302 1.899 . S
O301 C309 1.284 . S
Zn302 O301 1.899 . S
Zn302 O303 2.032 . S
Zn302 O306 2.086 . S
Zn302 O311 1.977 . S
O303 Zn302 2.032 . S
O303 C307 1.278 . S
C304 O305 1.203 . S
C304 O311 1.267 . S
O305 C304 1.203 . S
O306 C299 1.185 . S
O306 Zn302 2.086 . S
C307 O303 1.278 . S
C307 O308 1.211 . S
O308 C307 1.211 . S
C309 O301 1.284 . S
C309 O310 1.273 . S
O310 C309 1.273 . S
O311 Zn302 1.977 . S
O311 C304 1.267 . S
C312 C313 1.369 . S
C312 C314 1.419 . S
C312 H316 0.930 . S
C313 C312 1.369 . S
C313 C322 1.429 . S
C314 C312 1.419 . S
C314 C315 1.363 . S
C314 H317 0.929 1_455 S
C315 C314 1.363 . S
C315 C321 1.428 . S
H316 C312 0.930 . S
H317 C314 0.929 1_655 S
S318 N319 1.613 . S
S318 N320 1.610 . S
N319 S318 1.613 . S
N319 C322 1.350 . S
N320 S318 1.610 . S
N320 C321 1.351 . S
C321 C315 1.428 . S
C321 N320 1.351 . S
C321 C322 1.434 . S
C322 C313 1.429 . S
C322 N319 1.350 . S
C322 C321 1.434 . S
C323 C324 1.369 . S
C323 C325 1.419 . S
C323 H327 0.930 . S
C324 C323 1.369 . S
C324 C333 1.429 . S
C325 C323 1.419 . S
C325 C326 1.363 . S
C325 H328 0.929 . S
C326 C325 1.363 . S
C326 C332 1.428 . S
H327 C323 0.930 . S
H328 C325 0.929 . S
S329 N330 1.613 . S
S329 N331 1.610 . S
N330 S329 1.613 . S
N330 C333 1.350 . S
N331 S329 1.610 . S
N331 C332 1.351 . S
C332 C326 1.428 . S
C332 N331 1.351 . S
C332 C333 1.434 . S
C333 C324 1.429 . S
C333 N330 1.350 . S
C333 C332 1.434 . S
C334 C335 1.369 . S
C334 C336 1.419 . S
C334 H338 0.930 . S
C335 C334 1.369 . S
C335 C344 1.429 . S
C336 C334 1.419 . S
C336 C337 1.363 . S
C336 H339 0.929 . S
C337 C336 1.363 . S
C337 C343 1.428 . S
H338 C334 0.930 . S
H339 C336 0.929 . S
S340 N341 1.613 . S
S340 N342 1.610 . S
N341 S340 1.613 . S
N341 C344 1.350 . S
N342 S340 1.610 . S
N342 C343 1.351 . S
C343 C337 1.428 . S
C343 N342 1.351 . S
C343 C344 1.434 . S
C344 C335 1.429 . S
C344 N341 1.350 . S
C344 C343 1.434 . S
C345 C346 1.369 . S
C345 C347 1.419 . S
C345 H349 0.930 . S
C346 C345 1.369 . S
C346 C355 1.429 . S
C347 C345 1.419 . S
C347 C348 1.363 . S
C347 H350 0.929 . S
C348 C347 1.363 . S
C348 C354 1.428 . S
H349 C345 0.930 . S
H350 C347 0.929 . S
S351 N352 1.613 1_556 S
S351 N353 1.610 . S
N352 S351 1.613 1_554 S
N352 C355 1.350 . S
N353 S351 1.610 . S
N353 C354 1.351 1_556 S
C354 C348 1.428 . S
C354 N353 1.351 1_554 S
C354 C355 1.434 . S
C355 C346 1.429 . S
C355 N352 1.350 . S
C355 C354 1.434 . S
C356 C357 1.369 . S
C356 C358 1.419 . S
C356 H360 0.930 . S
C357 C356 1.369 . S
C357 C366 1.429 . S
C358 C356 1.419 . S
C358 C359 1.363 . S
C358 H361 0.929 . S
C359 C358 1.363 . S
C359 C365 1.428 . S
H360 C356 0.930 . S
H361 C358 0.929 . S
S362 N363 1.613 . S
S362 N364 1.610 . S
N363 S362 1.613 . S
N363 C366 1.350 . S
N364 S362 1.610 . S
N364 C365 1.351 . S
C365 C359 1.428 . S
C365 N364 1.351 . S
C365 C366 1.434 . S
C366 C357 1.429 . S
C366 N363 1.350 . S
C366 C365 1.434 . S
C367 C368 1.369 . S
C367 C369 1.419 . S
C367 H371 0.930 . S
C368 C367 1.369 . S
C368 C377 1.429 . S
C369 C367 1.419 . S
C369 C370 1.363 . S
C369 H372 0.929 . S
C370 C369 1.363 . S
C370 C376 1.428 . S
H371 C367 0.930 . S
H372 C369 0.929 . S
S373 N374 1.613 . S
S373 N375 1.610 . S
N374 S373 1.613 . S
N374 C377 1.350 . S
N375 S373 1.610 . S
N375 C376 1.351 . S
C376 C370 1.428 . S
C376 N375 1.351 . S
C376 C377 1.434 . S
C377 C368 1.429 . S
C377 N374 1.350 . S
C377 C376 1.434 . S
C378 C379 1.369 . S
C378 C380 1.419 . S
C378 H382 0.930 . S
C379 C378 1.369 . S
C379 C388 1.429 . S
C380 C378 1.419 . S
C380 C381 1.363 . S
C380 H383 0.929 . S
C381 C380 1.363 . S
C381 C387 1.428 . S
H382 C378 0.930 . S
H383 C380 0.929 . S
S384 N385 1.613 . S
S384 N386 1.610 . S
N385 S384 1.613 . S
N385 C388 1.350 . S
N386 S384 1.610 . S
N386 C387 1.351 . S
C387 C381 1.428 . S
C387 N386 1.351 . S
C387 C388 1.434 . S
C388 C379 1.429 . S
C388 N385 1.350 . S
C388 C387 1.434 . S
C389 C390 1.369 . S
C389 C391 1.419 . S
C389 H393 0.930 . S
C390 C389 1.369 . S
C390 C399 1.429 . S
C391 C389 1.419 . S
C391 C392 1.363 . S
C391 H394 0.929 . S
C392 C391 1.363 . S
C392 C398 1.428 . S
H393 C389 0.930 . S
H394 C391 0.929 . S
S395 N396 1.613 1_554 S
S395 N397 1.610 . S
N396 S395 1.613 1_556 S
N396 C399 1.350 . S
N397 S395 1.610 . S
N397 C398 1.351 1_554 S
C398 C392 1.428 . S
C398 N397 1.351 1_556 S
C398 C399 1.434 . S
C399 C390 1.429 . S
C399 N396 1.350 . S
C399 C398 1.434 . S
C400 C401 1.369 . S
C400 C402 1.419 . S
C400 H404 0.930 . S
C401 C400 1.369 . S
C401 C410 1.429 . S
C402 C400 1.419 . S
C402 C403 1.363 . S
C402 H405 0.929 . S
C403 C402 1.363 . S
C403 C409 1.428 . S
H404 C400 0.930 . S
H405 C402 0.929 . S
S406 N407 1.613 . S
S406 N408 1.610 . S
N407 S406 1.613 . S
N407 C410 1.350 . S
N408 S406 1.610 . S
N408 C409 1.351 . S
C409 C403 1.428 . S
C409 N408 1.351 . S
C409 C410 1.434 . S
C410 C401 1.429 . S
C410 N407 1.350 . S
C410 C409 1.434 . S
C411 C412 1.369 . S
C411 C413 1.419 . S
C411 H415 0.930 . S
C412 C411 1.369 . S
C412 C421 1.429 . S
C413 C411 1.419 . S
C413 C414 1.363 . S
C413 H416 0.929 . S
C414 C413 1.363 . S
C414 C420 1.428 . S
H415 C411 0.930 . S
H416 C413 0.929 . S
S417 N418 1.613 . S
S417 N419 1.610 . S
N418 S417 1.613 . S
N418 C421 1.350 . S
N419 S417 1.610 . S
N419 C420 1.351 . S
C420 C414 1.428 . S
C420 N419 1.351 . S
C420 C421 1.434 . S
C421 C412 1.429 . S
C421 N418 1.350 . S
C421 C420 1.434 . S
C422 C423 1.369 . S
C422 C424 1.419 . S
C422 H426 0.930 . S
C423 C422 1.369 . S
C423 C432 1.429 . S
C424 C422 1.419 . S
C424 C425 1.363 . S
C424 H427 0.929 . S
C425 C424 1.363 . S
C425 C431 1.428 . S
H426 C422 0.930 . S
H427 C424 0.929 . S
S428 N429 1.613 . S
S428 N430 1.610 1_545 S
N429 S428 1.613 . S
N429 C432 1.350 1_545 S
N430 S428 1.610 1_565 S
N430 C431 1.351 . S
C431 C425 1.428 . S
C431 N430 1.351 . S
C431 C432 1.434 . S
C432 C423 1.429 . S
C432 N429 1.350 1_565 S
C432 C431 1.434 . S
C433 C434 1.369 . S
C433 C435 1.419 . S
C433 H437 0.930 . S
C434 C433 1.369 . S
C434 C443 1.429 . S
C435 C433 1.419 . S
C435 C436 1.363 . S
C435 H438 0.929 . S
C436 C435 1.363 . S
C436 C442 1.428 . S
H437 C433 0.930 . S
H438 C435 0.929 . S
S439 N440 1.613 . S
S439 N441 1.610 . S
N440 S439 1.613 . S
N440 C443 1.350 1_545 S
N441 S439 1.610 . S
N441 C442 1.351 1_545 S
C442 C436 1.428 . S
C442 N441 1.351 1_565 S
C442 C443 1.434 . S
C443 C434 1.429 . S
C443 N440 1.350 1_565 S
C443 C442 1.434 . S
C444 C445 1.369 . S
C444 C446 1.419 . S
C444 H448 0.930 . S
C445 C444 1.369 . S
C445 C454 1.429 . S
C446 C444 1.419 . S
C446 C447 1.363 . S
C446 H449 0.929 . S
C447 C446 1.363 . S
C447 C453 1.428 . S
H448 C444 0.930 . S
H449 C446 0.929 . S
S450 N451 1.613 . S
S450 N452 1.610 . S
N451 S450 1.613 . S
N451 C454 1.350 . S
N452 S450 1.610 . S
N452 C453 1.351 . S
C453 C447 1.428 . S
C453 N452 1.351 . S
C453 C454 1.434 . S
C454 C445 1.429 . S
C454 N451 1.350 . S
C454 C453 1.434 . S
C455 C456 1.369 . S
C455 C457 1.419 . S
C455 H459 0.930 . S
C456 C455 1.369 . S
C456 C465 1.429 . S
C457 C455 1.419 . S
C457 C458 1.363 . S
C457 H460 0.929 . S
C458 C457 1.363 . S
C458 C464 1.428 . S
H459 C455 0.930 . S
H460 C457 0.929 . S
S461 N462 1.613 . S
S461 N463 1.610 . S
N462 S461 1.613 . S
N462 C465 1.350 1_455 S
N463 S461 1.610 . S
N463 C464 1.351 1_455 S
C464 C458 1.428 . S
C464 N463 1.351 1_655 S
C464 C465 1.434 . S
C465 C456 1.429 . S
C465 N462 1.350 1_655 S
C465 C464 1.434 . S
C466 C467 1.369 . S
C466 C468 1.419 . S
C466 H470 0.930 . S
C467 C466 1.369 . S
C467 C476 1.429 . S
C468 C466 1.419 . S
C468 C469 1.363 . S
C468 H471 0.929 . S
C469 C468 1.363 . S
C469 C475 1.428 . S
H470 C466 0.930 . S
H471 C468 0.929 . S
S472 N473 1.613 . S
S472 N474 1.610 . S
N473 S472 1.613 . S
N473 C476 1.350 . S
N474 S472 1.610 . S
N474 C475 1.351 . S
C475 C469 1.428 . S
C475 N474 1.351 . S
C475 C476 1.434 . S
C476 C467 1.429 . S
C476 N473 1.350 . S
C476 C475 1.434 . S
C477 C478 1.369 . S
C477 C479 1.419 . S
C477 H481 0.930 . S
C478 C477 1.369 . S
C478 C487 1.429 . S
C479 C477 1.419 . S
C479 C480 1.363 . S
C479 H482 0.929 . S
C480 C479 1.363 . S
C480 C486 1.428 . S
H481 C477 0.930 . S
H482 C479 0.929 . S
S483 N484 1.613 . S
S483 N485 1.610 . S
N484 S483 1.613 . S
N484 C487 1.350 . S
N485 S483 1.610 . S
N485 C486 1.351 . S
C486 C480 1.428 . S
C486 N485 1.351 . S
C486 C487 1.434 . S
C487 C478 1.429 . S
C487 N484 1.350 . S
C487 C486 1.434 . S
C488 C489 1.369 . S
C488 C490 1.419 . S
C488 H492 0.930 . S
C489 C488 1.369 . S
C489 C498 1.429 . S
C490 C488 1.419 . S
C490 C491 1.363 . S
C490 H493 0.929 . S
C491 C490 1.363 . S
C491 C497 1.428 . S
H492 C488 0.930 . S
H493 C490 0.929 . S
S494 N495 1.613 . S
S494 N496 1.610 . S
N495 S494 1.613 . S
N495 C498 1.350 . S
N496 S494 1.610 . S
N496 C497 1.351 . S
C497 C491 1.428 . S
C497 N496 1.351 . S
C497 C498 1.434 . S
C498 C489 1.429 . S
C498 N495 1.350 . S
C498 C497 1.434 . S
C499 C500 1.369 . S
C499 C501 1.419 . S
C499 H503 0.930 . S
C500 C499 1.369 . S
C500 C509 1.429 . S
C501 C499 1.419 . S
C501 C502 1.363 . S
C501 H504 0.929 . S
C502 C501 1.363 . S
C502 C508 1.428 . S
H503 C499 0.930 . S
H504 C501 0.929 . S
S505 N506 1.613 . S
S505 N507 1.610 . S
N506 S505 1.613 . S
N506 C509 1.350 . S
N507 S505 1.610 . S
N507 C508 1.351 . S
C508 C502 1.428 . S
C508 N507 1.351 . S
C508 C509 1.434 . S
C509 C500 1.429 . S
C509 N506 1.350 . S
C509 C508 1.434 . S
C510 C511 1.369 . S
C510 C512 1.419 . S
C510 H514 0.930 . S
C511 C510 1.369 . S
C511 C520 1.429 . S
C512 C510 1.419 . S
C512 C513 1.363 . S
C512 H515 0.929 . S
C513 C512 1.363 . S
C513 C519 1.428 . S
H514 C510 0.930 . S
H515 C512 0.929 . S
S516 N517 1.613 . S
S516 N518 1.610 . S
N517 S516 1.613 . S
N517 C520 1.350 . S
N518 S516 1.610 . S
N518 C519 1.351 . S
C519 C513 1.428 . S
C519 N518 1.351 . S
C519 C520 1.434 . S
C520 C511 1.429 . S
C520 N517 1.350 . S
C520 C519 1.434 . S
C521 C522 1.369 . S
C521 C523 1.419 . S
C521 H525 0.930 . S
C522 C521 1.369 . S
C522 C531 1.429 . S
C523 C521 1.419 . S
C523 C524 1.363 . S
C523 H526 0.929 . S
C524 C523 1.363 . S
C524 C530 1.428 . S
H525 C521 0.930 . S
H526 C523 0.929 . S
S527 N528 1.613 . S
S527 N529 1.610 . S
N528 S527 1.613 . S
N528 C531 1.350 . S
N529 S527 1.610 . S
N529 C530 1.351 . S
C530 C524 1.428 . S
C530 N529 1.351 . S
C530 C531 1.434 . S
C531 C522 1.429 . S
C531 N528 1.350 . S
C531 C530 1.434 . S
C532 C533 1.369 . S
C532 C534 1.419 . S
C532 H536 0.930 . S
C533 C532 1.369 . S
C533 C542 1.429 . S
C534 C532 1.419 . S
C534 C535 1.363 . S
C534 H537 0.929 . S
C535 C534 1.363 . S
C535 C541 1.428 . S
H536 C532 0.930 . S
H537 C534 0.929 . S
S538 N539 1.613 . S
S538 N540 1.610 . S
N539 S538 1.613 . S
N539 C542 1.350 . S
N540 S538 1.610 . S
N540 C541 1.351 . S
C541 C535 1.428 . S
C541 N540 1.351 . S
C541 C542 1.434 . S
C542 C533 1.429 . S
C542 N539 1.350 . S
C542 C541 1.434 . S
C543 C544 1.369 . S
C543 C545 1.419 . S
C543 H547 0.930 . S
C544 C543 1.369 . S
C544 C553 1.429 . S
C545 C543 1.419 . S
C545 C546 1.363 . S
C545 H548 0.929 . S
C546 C545 1.363 . S
C546 C552 1.428 . S
H547 C543 0.930 . S
H548 C545 0.929 . S
S549 N550 1.613 . S
S549 N551 1.610 . S
N550 S549 1.613 . S
N550 C553 1.350 . S
N551 S549 1.610 . S
N551 C552 1.351 . S
C552 C546 1.428 . S
C552 N551 1.351 . S
C552 C553 1.434 . S
C553 C544 1.429 . S
C553 N550 1.350 . S
C553 C552 1.434 . S
C554 C555 1.369 . S
C554 C556 1.419 . S
C554 H558 0.930 . S
C555 C554 1.369 . S
C555 C564 1.429 . S
C556 C554 1.419 . S
C556 C557 1.363 . S
C556 H559 0.929 . S
C557 C556 1.363 . S
C557 C563 1.428 . S
H558 C554 0.930 . S
H559 C556 0.929 . S
S560 N561 1.613 1_556 S
S560 N562 1.607 1_556 S
N561 S560 1.613 1_554 S
N561 C564 1.350 . S
N562 S560 1.607 1_554 S
N562 C563 1.363 . S
C563 C557 1.428 . S
C563 N562 1.363 . S
C563 C564 1.434 . S
C564 C555 1.429 . S
C564 N561 1.350 . S
C564 C563 1.434 . S
C565 C566 1.369 . S
C565 C567 1.419 . S
C565 H569 0.930 . S
C566 C565 1.369 . S
C566 C575 1.429 . S
C567 C565 1.419 . S
C567 C568 1.363 . S
C567 H570 0.929 . S
C568 C567 1.363 . S
C568 C574 1.428 . S
H569 C565 0.930 . S
H570 C567 0.929 . S
S571 N572 1.613 . S
S571 N573 1.610 . S
N572 S571 1.613 . S
N572 C575 1.350 . S
N573 S571 1.610 . S
N573 C574 1.351 . S
C574 C568 1.428 . S
C574 N573 1.351 . S
C574 C575 1.434 . S
C575 C566 1.429 . S
C575 N572 1.350 . S
C575 C574 1.434 . S
C576 C577 1.369 . S
C576 C578 1.419 . S
C576 H580 0.930 . S
C577 C576 1.369 . S
C577 C586 1.429 . S
C578 C576 1.419 . S
C578 C579 1.363 . S
C578 H581 0.929 . S
C579 C578 1.363 . S
C579 C585 1.428 . S
H580 C576 0.930 . S
H581 C578 0.929 . S
S582 N583 1.613 . S
S582 N584 1.610 1_545 S
N583 S582 1.613 . S
N583 C586 1.350 1_545 S
N584 S582 1.610 1_565 S
N584 C585 1.351 . S
C585 C579 1.428 . S
C585 N584 1.351 . S
C585 C586 1.434 . S
C586 C577 1.429 . S
C586 N583 1.350 1_565 S
C586 C585 1.434 . S
C587 C588 1.369 . S
C587 C589 1.419 . S
C587 H591 0.930 . S
C588 C587 1.369 . S
C588 C597 1.429 . S
C589 C587 1.419 . S
C589 C590 1.363 . S
C589 H592 0.929 . S
C590 C589 1.363 . S
C590 C596 1.428 . S
H591 C587 0.930 . S
H592 C589 0.929 . S
S593 N594 1.613 . S
S593 N595 1.610 . S
N594 S593 1.613 . S
N594 C597 1.350 1_565 S
N595 S593 1.610 . S
N595 C596 1.351 1_565 S
C596 C590 1.428 . S
C596 N595 1.351 1_545 S
C596 C597 1.434 . S
C597 C588 1.429 . S
C597 N594 1.350 1_545 S
C597 C596 1.434 . S
C598 C599 1.369 . S
C598 C600 1.419 . S
C598 H602 0.930 . S
C599 C598 1.369 . S
C599 C608 1.429 . S
C600 C598 1.419 . S
C600 C601 1.363 . S
C600 H603 0.929 . S
C601 C600 1.363 . S
C601 C607 1.428 . S
H602 C598 0.930 . S
H603 C600 0.929 . S
S604 N605 1.613 . S
S604 N606 1.610 . S
N605 S604 1.613 . S
N605 C608 1.350 . S
N606 S604 1.610 . S
N606 C607 1.351 . S
C607 C601 1.428 . S
C607 N606 1.351 . S
C607 C608 1.434 . S
C608 C599 1.429 . S
C608 N605 1.350 . S
C608 C607 1.434 . S
C609 C610 1.369 . S
C609 C611 1.419 . S
C609 H613 0.930 . S
C610 C609 1.369 . S
C610 C619 1.429 . S
C611 C609 1.419 . S
C611 C612 1.363 . S
C611 H614 0.929 . S
C612 C611 1.363 . S
C612 C618 1.428 . S
H613 C609 0.930 . S
H614 C611 0.929 . S
S615 N616 1.613 . S
S615 N617 1.610 . S
N616 S615 1.613 . S
N616 C619 1.350 . S
N617 S615 1.610 . S
N617 C618 1.351 . S
C618 C612 1.428 . S
C618 N617 1.351 . S
C618 C619 1.434 . S
C619 C610 1.429 . S
C619 N616 1.350 . S
C619 C618 1.434 . S
C620 C621 1.369 . S
C620 C622 1.419 . S
C620 H624 0.930 . S
C621 C620 1.369 . S
C621 C630 1.429 . S
C622 C620 1.419 . S
C622 C623 1.363 . S
C622 H625 0.929 . S
C623 C622 1.363 . S
C623 C629 1.428 . S
H624 C620 0.930 . S
H625 C622 0.929 . S
S626 N627 1.613 . S
S626 N628 1.610 . S
N627 S626 1.613 . S
N627 C630 1.350 . S
N628 S626 1.610 . S
N628 C629 1.351 . S
C629 C623 1.428 . S
C629 N628 1.351 . S
C629 C630 1.434 . S
C630 C621 1.429 . S
C630 N627 1.350 . S
C630 C629 1.434 . S
C631 C632 1.369 . S
C631 C633 1.419 . S
C631 H635 0.930 . S
C632 C631 1.369 . S
C632 C641 1.429 . S
C633 C631 1.419 . S
C633 C634 1.363 . S
C633 H636 0.929 . S
C634 C633 1.363 . S
C634 C640 1.428 . S
H635 C631 0.930 . S
H636 C633 0.929 . S
S637 N638 1.613 . S
S637 N639 1.610 . S
N638 S637 1.613 . S
N638 C641 1.350 . S
N639 S637 1.610 . S
N639 C640 1.351 . S
C640 C634 1.428 . S
C640 N639 1.351 . S
C640 C641 1.434 . S
C641 C632 1.429 . S
C641 N638 1.350 . S
C641 C640 1.434 . S
C642 C643 1.369 . S
C642 C644 1.419 . S
C642 H646 0.930 . S
C643 C642 1.369 . S
C643 C652 1.429 . S
C644 C642 1.419 . S
C644 C645 1.363 . S
C644 H647 0.929 . S
C645 C644 1.363 . S
C645 C651 1.428 . S
H646 C642 0.930 . S
H647 C644 0.929 . S
S648 N649 1.613 . S
S648 N650 1.610 . S
N649 S648 1.613 . S
N649 C652 1.350 . S
N650 S648 1.610 . S
N650 C651 1.351 . S
C651 C645 1.428 . S
C651 N650 1.351 . S
C651 C652 1.434 . S
C652 C643 1.429 . S
C652 N649 1.350 . S
C652 C651 1.434 . S
C653 C654 1.369 . S
C653 C655 1.419 . S
C653 H657 0.930 . S
C654 C653 1.369 . S
C654 C663 1.429 . S
C655 C653 1.419 . S
C655 C656 1.363 . S
C655 H658 0.929 . S
C656 C655 1.363 . S
C656 C662 1.428 . S
H657 C653 0.930 . S
H658 C655 0.929 . S
S659 N660 1.613 . S
S659 N661 1.612 . S
N660 S659 1.613 . S
N660 C663 1.350 . S
N661 S659 1.612 . S
N661 C662 1.351 . S
C662 C656 1.428 . S
C662 N661 1.351 . S
C662 C663 1.434 . S
C663 C654 1.429 . S
C663 N660 1.350 . S
C663 C662 1.434 . S
C664 C665 1.369 . S
C664 C666 1.419 . S
C664 H668 0.930 . S
C665 C664 1.369 . S
C665 C674 1.429 . S
C666 C664 1.419 . S
C666 C667 1.363 . S
C666 H669 0.929 . S
C667 C666 1.363 . S
C667 C673 1.428 . S
H668 C664 0.930 . S
H669 C666 0.929 . S
S670 N671 1.613 . S
S670 N672 1.610 . S
N671 S670 1.613 . S
N671 C674 1.350 . S
N672 S670 1.610 . S
N672 C673 1.351 . S
C673 C667 1.428 . S
C673 N672 1.351 . S
C673 C674 1.434 . S
C674 C665 1.429 . S
C674 N671 1.350 . S
C674 C673 1.434 . S
C675 C676 1.369 . S
C675 C677 1.419 . S
C675 H679 0.930 . S
C676 C675 1.369 . S
C676 C685 1.429 . S
C677 C675 1.419 . S
C677 C678 1.363 . S
C677 H680 0.929 . S
C678 C677 1.363 . S
C678 C684 1.428 . S
H679 C675 0.930 . S
H680 C677 0.929 . S
S681 N682 1.613 . S
S681 N683 1.610 1_554 S
N682 S681 1.613 . S
N682 C685 1.350 1_554 S
N683 S681 1.610 1_556 S
N683 C684 1.351 . S
C684 C678 1.428 . S
C684 N683 1.351 . S
C684 C685 1.434 . S
C685 C676 1.429 . S
C685 N682 1.350 1_556 S
C685 C684 1.434 . S
C686 C687 1.369 . S
C686 C688 1.419 . S
C686 H690 0.930 . S
C687 C686 1.369 . S
C687 C696 1.429 . S
C688 C686 1.419 . S
C688 C689 1.363 . S
C688 H691 0.929 . S
C689 C688 1.363 . S
C689 C695 1.428 . S
H690 C686 0.930 . S
H691 C688 0.929 . S
S692 N693 1.613 . S
S692 N694 1.610 . S
N693 S692 1.613 . S
N693 C696 1.350 . S
N694 S692 1.610 . S
N694 C695 1.351 . S
C695 C689 1.428 . S
C695 N694 1.351 . S
C695 C696 1.434 . S
C696 C687 1.429 . S
C696 N693 1.350 . S
C696 C695 1.434 . S
C697 C698 1.369 . S
C697 C699 1.419 . S
C697 H701 0.930 . S
C698 C697 1.369 . S
C698 C707 1.429 . S
C699 C697 1.419 . S
C699 C700 1.363 . S
C699 H702 0.929 . S
C700 C699 1.363 . S
C700 C706 1.428 . S
H701 C697 0.930 . S
H702 C699 0.929 . S
S703 N704 1.613 . S
S703 N705 1.610 . S
N704 S703 1.613 . S
N704 C707 1.350 . S
N705 S703 1.610 . S
N705 C706 1.351 . S
C706 C700 1.428 . S
C706 N705 1.351 . S
C706 C707 1.434 . S
C707 C698 1.429 . S
C707 N704 1.350 . S
C707 C706 1.434 . S
C708 C709 1.369 . S
C708 C710 1.419 . S
C708 H712 0.930 . S
C709 C708 1.369 . S
C709 C718 1.429 . S
C710 C708 1.419 . S
C710 C711 1.363 . S
C710 H713 0.929 . S
C711 C710 1.363 . S
C711 C717 1.428 . S
H712 C708 0.930 . S
H713 C710 0.929 . S
S714 N715 1.613 . S
S714 N716 1.610 . S
N715 S714 1.613 . S
N715 C718 1.350 . S
N716 S714 1.610 . S
N716 C717 1.351 . S
C717 C711 1.428 . S
C717 N716 1.351 . S
C717 C718 1.434 . S
C718 C709 1.429 . S
C718 N715 1.350 . S
C718 C717 1.434 . S
C719 C720 1.369 . S
C719 C721 1.419 . S
C719 H723 0.930 . S
C720 C719 1.369 . S
C720 C729 1.429 . S
C721 C719 1.419 . S
C721 C722 1.363 . S
C721 H724 0.929 . S
C722 C721 1.363 . S
C722 C728 1.428 . S
H723 C719 0.930 . S
H724 C721 0.929 . S
S725 N726 1.613 . S
S725 N727 1.610 . S
N726 S725 1.613 . S
N726 C729 1.350 . S
N727 S725 1.610 . S
N727 C728 1.351 . S
C728 C722 1.428 . S
C728 N727 1.351 . S
C728 C729 1.434 . S
C729 C720 1.429 . S
C729 N726 1.350 . S
C729 C728 1.434 . S
C730 C731 1.369 . S
C730 C732 1.419 . S
C730 H734 0.930 . S
C731 C730 1.369 . S
C731 C740 1.429 . S
C732 C730 1.419 . S
C732 C733 1.363 . S
C732 H735 0.929 . S
C733 C732 1.363 . S
C733 C739 1.428 . S
H734 C730 0.930 . S
H735 C732 0.929 . S
S736 N737 1.613 . S
S736 N738 1.610 . S
N737 S736 1.613 . S
N737 C740 1.350 . S
N738 S736 1.610 . S
N738 C739 1.351 . S
C739 C733 1.428 . S
C739 N738 1.351 . S
C739 C740 1.434 . S
C740 C731 1.429 . S
C740 N737 1.350 . S
C740 C739 1.434 . S
C741 C742 1.369 . S
C741 C743 1.419 . S
C741 H745 0.930 . S
C742 C741 1.369 . S
C742 C751 1.429 . S
C743 C741 1.419 . S
C743 C744 1.363 . S
C743 H746 0.929 . S
C744 C743 1.363 . S
C744 C750 1.428 . S
H745 C741 0.930 . S
H746 C743 0.929 . S
S747 N748 1.613 . S
S747 N749 1.610 . S
N748 S747 1.613 . S
N748 C751 1.350 . S
N749 S747 1.610 . S
N749 C750 1.351 . S
C750 C744 1.428 . S
C750 N749 1.351 . S
C750 C751 1.434 . S
C751 C742 1.429 . S
C751 N748 1.350 . S
C751 C750 1.434 . S
C752 C753 1.369 . S
C752 C754 1.419 . S
C752 H756 0.930 . S
C753 C752 1.369 . S
C753 C762 1.429 . S
C754 C752 1.419 . S
C754 C755 1.363 . S
C754 H757 0.929 . S
C755 C754 1.363 . S
C755 C761 1.428 . S
H756 C752 0.930 . S
H757 C754 0.929 . S
S758 N759 1.613 . S
S758 N760 1.610 1_655 S
N759 S758 1.613 . S
N759 C762 1.350 1_655 S
N760 S758 1.610 1_455 S
N760 C761 1.351 . S
C761 C755 1.428 . S
C761 N760 1.351 . S
C761 C762 1.434 . S
C762 C753 1.429 . S
C762 N759 1.350 1_455 S
C762 C761 1.434 . S
C763 C764 1.369 . S
C763 C765 1.419 . S
C763 H767 0.930 . S
C764 C763 1.369 . S
C764 C773 1.429 . S
C765 C763 1.419 . S
C765 C766 1.363 . S
C765 H768 0.929 . S
C766 C765 1.363 . S
C766 C772 1.428 . S
H767 C763 0.930 . S
H768 C765 0.929 . S
S769 N770 1.613 . S
S769 N771 1.610 . S
N770 S769 1.613 . S
N770 C773 1.350 . S
N771 S769 1.610 . S
N771 C772 1.351 . S
C772 C766 1.428 . S
C772 N771 1.351 . S
C772 C773 1.434 . S
C773 C764 1.429 . S
C773 N770 1.350 . S
C773 C772 1.434 . S
C774 C775 1.369 . S
C774 C776 1.419 . S
C774 H778 0.930 . S
C775 C774 1.369 . S
C775 C784 1.429 . S
C776 C774 1.419 . S
C776 C777 1.363 . S
C776 H779 0.929 . S
C777 C776 1.363 . S
C777 C783 1.428 . S
H778 C774 0.930 . S
H779 C776 0.929 . S
S780 N781 1.613 . S
S780 N782 1.610 . S
N781 S780 1.613 . S
N781 C784 1.350 . S
N782 S780 1.610 . S
N782 C783 1.351 . S
C783 C777 1.428 . S
C783 N782 1.351 . S
C783 C784 1.434 . S
C784 C775 1.429 . S
C784 N781 1.350 . S
C784 C783 1.434 . S
C785 C786 1.369 . S
C785 C787 1.419 . S
C785 H789 0.930 . S
C786 C785 1.369 . S
C786 C795 1.429 . S
C787 C785 1.419 . S
C787 C788 1.363 . S
C787 H790 0.929 . S
C788 C787 1.363 . S
C788 C794 1.428 . S
H789 C785 0.930 . S
H790 C787 0.929 . S
S791 N792 1.613 . S
S791 N793 1.610 . S
N792 S791 1.613 . S
N792 C795 1.350 . S
N793 S791 1.610 . S
N793 C794 1.351 . S
C794 C788 1.428 . S
C794 N793 1.351 . S
C794 C795 1.434 . S
C795 C786 1.429 . S
C795 N792 1.350 . S
C795 C794 1.434 . S
C796 C797 1.369 . S
C796 C798 1.419 . S
C796 H800 0.930 . S
C797 C796 1.369 . S
C797 C806 1.429 . S
C798 C796 1.419 . S
C798 C799 1.363 . S
C798 H801 0.929 . S
C799 C798 1.363 . S
C799 C805 1.428 . S
H800 C796 0.930 . S
H801 C798 0.929 . S
S802 N803 1.613 . S
S802 N804 1.610 . S
N803 S802 1.613 . S
N803 C806 1.350 . S
N804 S802 1.610 . S
N804 C805 1.351 . S
C805 C799 1.428 . S
C805 N804 1.351 . S
C805 C806 1.434 . S
C806 C797 1.429 . S
C806 N803 1.350 . S
C806 C805 1.434 . S
C807 C808 1.369 . S
C807 C809 1.419 . S
C807 H811 0.930 . S
C808 C807 1.369 . S
C808 C817 1.429 . S
C809 C807 1.419 . S
C809 C810 1.363 . S
C809 H812 0.929 . S
C810 C809 1.363 . S
C810 C816 1.428 . S
H811 C807 0.930 . S
H812 C809 0.929 . S
S813 N814 1.613 . S
S813 N815 1.610 . S
N814 S813 1.613 . S
N814 C817 1.350 . S
N815 S813 1.610 . S
N815 C816 1.351 . S
C816 C810 1.428 . S
C816 N815 1.351 . S
C816 C817 1.434 . S
C817 C808 1.429 . S
C817 N814 1.350 . S
C817 C816 1.434 . S
C818 C819 1.369 . S
C818 C820 1.419 . S
C818 H822 0.930 . S
C819 C818 1.369 . S
C819 C828 1.429 . S
C820 C818 1.419 . S
C820 C821 1.363 . S
C820 H823 0.929 . S
C821 C820 1.363 . S
C821 C827 1.428 . S
H822 C818 0.930 . S
H823 C820 0.929 . S
S824 N825 1.613 . S
S824 N826 1.610 . S
N825 S824 1.613 . S
N825 C828 1.350 . S
N826 S824 1.610 . S
N826 C827 1.351 . S
C827 C821 1.428 . S
C827 N826 1.351 . S
C827 C828 1.434 . S
C828 C819 1.429 . S
C828 N825 1.350 . S
C828 C827 1.434 . S
C829 C830 1.369 . S
C829 C831 1.419 . S
C829 H833 0.930 . S
C830 C829 1.369 . S
C830 C839 1.429 . S
C831 C829 1.419 . S
C831 C832 1.363 . S
C831 H834 0.929 . S
C832 C831 1.363 . S
C832 C838 1.428 . S
H833 C829 0.930 . S
H834 C831 0.929 . S
S835 N836 1.613 . S
S835 N837 1.610 . S
N836 S835 1.613 . S
N836 C839 1.350 . S
N837 S835 1.610 . S
N837 C838 1.351 . S
C838 C832 1.428 . S
C838 N837 1.351 . S
C838 C839 1.434 . S
C839 C830 1.429 . S
C839 N836 1.350 . S
C839 C838 1.434 . S
C313 C187 1.327 . S
C315 C8 1.349 . S
C324 C18 1.271 . S
C326 C195 1.278 . S
C335 C242 1.381 . S
C337 C36 1.400 . S
C346 C39 1.267 . S
C348 C169 1.266 . S
C357 C182 1.377 . S
C359 C62 1.401 . S
C368 C70 1.273 . S
C370 C200 1.281 . S
C379 C86 1.312 . S
C381 C244 1.353 . S
C390 C91 1.278 . S
C392 C174 1.257 . S
C401 C125 1.316 . S
C403 C112 1.339 . S
C412 C130 1.371 . S
C414 C127 1.399 . S
C423 C135 1.330 . S
C425 C151 1.350 . S
C434 C153 1.387 . S
C436 C114 1.383 . S
C445 C156 1.277 . S
C447 C44 1.270 . S
C456 C60 1.315 . S
C458 C218 1.355 . S
C467 C221 1.268 . S
C469 C13 1.268 . S
C478 C23 1.488 . S
C480 C278 1.442 . S
C489 C117 1.375 . S
C491 C5 1.401 . S
C500 C307 1.443 . S
C502 C47 1.432 . S
C511 C143 1.379 . S
C513 C26 1.388 . S
C522 C273 1.468 . S
C524 C99 1.477 . S
C533 C122 1.393 . S
C535 C83 1.401 . S
C544 C75 1.492 . S
C546 C309 1.489 . S
C555 C52 1.375 . S
C557 C148 1.393 . S
C566 C205 1.494 . S
C568 C257 1.490 . S
C577 C213 1.530 . S
C579 C203 1.499 . S
C588 C179 1.466 . S
C590 C208 1.394 . S
C599 C255 1.435 . S
C601 C177 1.434 . S
C610 C31 1.399 . S
C612 C260 1.377 . S
C621 C140 1.489 . S
C623 C101 1.491 . S
C632 C0 1.381 . S
C634 C286 1.387 . S
C643 C252 1.335 . S
C645 C34 1.348 . S
C654 C10 1.402 . S
C656 C216 1.381 . S
C665 C247 1.377 . S
C667 C88 1.402 . S
C676 C161 1.275 . S
C678 C96 1.283 . S
C687 C65 1.278 . S
C689 C226 1.257 . S
C698 C281 1.345 . S
C700 C268 1.323 . S
C709 C299 1.370 . S
C711 C270 1.399 . S
C720 C294 1.354 . S
C722 C304 1.336 . S
C731 C283 1.385 . S
C733 C296 1.386 . S
C742 C109 1.447 . S
C744 C49 1.488 . S
C753 C21 1.431 . S
C755 C138 1.442 . S
C764 C73 1.468 . S
C766 C104 1.476 . S
C775 C265 1.402 . S
C777 C57 1.404 . S
C786 C78 1.376 . S
C788 C291 1.393 . S
C797 C166 1.492 . S
C799 C192 1.491 . S
C808 C239 1.527 . S
C810 C164 1.494 . S
C819 C231 1.464 . S
C821 C234 1.402 . S
C830 C190 1.440 . S
C832 C229 1.430 . S
