# Generated by pormake.
# Topology tfs, (6)-cn, num edge types: 1
# Building blocks:
#     Node 0, Type 0, BuildingBlock: FUNLAD_clean_sbu_0, # of connection points: 6
#     Node 1, Type 0, BuildingBlock: FUNLAD_clean_sbu_0, # of connection points: 6
#     Node 2, Type 0, BuildingBlock: FUNLAD_clean_sbu_0, # of connection points: 6
#     Node 3, Type 0, BuildingBlock: FUNLAD_clean_sbu_0, # of connection points: 6
#     Node 4, Type 0, BuildingBlock: FUNLAD_clean_sbu_0, # of connection points: 6
#     Node 5, Type 0, BuildingBlock: FUNLAD_clean_sbu_0, # of connection points: 6
#     Edge 6, Type (0, 0), BuildingBlock: CIFDUS_clean_linker_0, # of connection points: 2
#     Edge 7, Type (0, 0), BuildingBlock: CIFDUS_clean_linker_0, # of connection points: 2
#     Edge 8, Type (0, 0), BuildingBlock: CIFDUS_clean_linker_0, # of connection points: 2
#     Edge 9, Type (0, 0), BuildingBlock: CIFDUS_clean_linker_0, # of connection points: 2
#     Edge 10, Type (0, 0), BuildingBlock: CIFDUS_clean_linker_0, # of connection points: 2
#     Edge 11, Type (0, 0), BuildingBlock: CIFDUS_clean_linker_0, # of connection points: 2
#     Edge 12, Type (0, 0), BuildingBlock: CIFDUS_clean_linker_0, # of connection points: 2
#     Edge 13, Type (0, 0), BuildingBlock: CIFDUS_clean_linker_0, # of connection points: 2
#     Edge 14, Type (0, 0), BuildingBlock: CIFDUS_clean_linker_0, # of connection points: 2
#     Edge 15, Type (0, 0), BuildingBlock: CIFDUS_clean_linker_0, # of connection points: 2
#     Edge 16, Type (0, 0), BuildingBlock: CIFDUS_clean_linker_0, # of connection points: 2
#     Edge 17, Type (0, 0), BuildingBlock: CIFDUS_clean_linker_0, # of connection points: 2
#     Edge 18, Type (0, 0), BuildingBlock: CIFDUS_clean_linker_0, # of connection points: 2
#     Edge 19, Type (0, 0), BuildingBlock: CIFDUS_clean_linker_0, # of connection points: 2
#     Edge 20, Type (0, 0), BuildingBlock: CIFDUS_clean_linker_0, # of connection points: 2
#     Edge 21, Type (0, 0), BuildingBlock: CIFDUS_clean_linker_0, # of connection points: 2
#     Edge 22, Type (0, 0), BuildingBlock: CIFDUS_clean_linker_0, # of connection points: 2
#     Edge 23, Type (0, 0), BuildingBlock: CIFDUS_clean_linker_0, # of connection points: 2
# Relax obj value: 0.111
# Max RMSD: 0.155
# Mean RMSD: 0.153
data_MOF--net-tfs--node1-FUNLAD_clean_sbu_0--edge1-CIFDUS_clean_linker_0
_symmetry_space_group_name_H-M    P1
_symmetry_Int_Tables_number       1
_symmetry_cell_setting            triclinic
loop_
_symmetry_equiv_pos_as_xyz
'x, y, z'
_cell_length_a     36.085976
_cell_length_b     36.024277
_cell_length_c     19.793958
_cell_angle_alpha  90.689618
_cell_angle_beta   90.188412
_cell_angle_gamma 119.88541
loop_
_atom_site_label
_atom_site_type_symbol
_atom_site_fract_x
_atom_site_fract_y
_atom_site_fract_z
_atom_type_partial_charge
C0 C 0.10841 0.34417 0.04752 0.0
N1 N 0.19467 0.4052 0.20695 0.0
C2 C 0.1603 0.40406 0.23717 0.0
C3 C 0.15622 0.40144 0.30709 0.0
C4 C 0.1878 0.40002 0.34659 0.0
C5 C 0.22333 0.40188 0.31432 0.0
C6 C 0.22609 0.4044 0.24393 0.0
Zn7 Zn 0.19603 0.40613 0.10408 0.0
C8 C 0.21693 0.34363 0.04498 0.0
N9 N 0.19277 0.40632 0.88937 0.0
C10 C 0.16172 0.40767 0.85217 0.0
C11 C 0.22684 0.4067 0.85937 0.0
C12 C 0.23102 0.40912 0.78946 0.0
C13 C 0.1998 0.41103 0.74974 0.0
C14 C 0.16455 0.40992 0.78176 0.0
Zn15 Zn 0.19128 0.40546 0.99224 0.0
O16 O 0.13047 0.35784 0.10164 0.0
C17 C 0.17138 0.46874 0.0528 0.0
O18 O 0.12625 0.35858 0.99118 0.0
H19 H 0.25114 0.40548 0.88977 0.0
H20 H 0.1357 0.40483 0.20694 0.0
H21 H 0.135 0.40746 0.87715 0.0
O22 O 0.17842 0.4535 0.1056 0.0
O23 O 0.17449 0.45457 0.99516 0.0
H24 H 0.25304 0.4052 0.21876 0.0
O25 O 0.25596 0.45269 0.99415 0.0
O26 O 0.26173 0.4553 0.1046 0.0
O27 O 0.20843 0.35696 0.99119 0.0
O28 O 0.21409 0.35887 0.10166 0.0
C29 C 0.27849 0.46878 0.04716 0.0
H30 H 0.12869 0.40078 0.33002 0.0
H31 H 0.24824 0.40057 0.34302 0.0
H32 H 0.25833 0.40923 0.76669 0.0
H33 H 0.13993 0.41162 0.75283 0.0
C34 C 0.85603 0.22581 1.00478 0.0
N35 N 0.7694 0.19766 0.84572 0.0
C36 C 0.8024 0.23233 0.8165 0.0
C37 C 0.80402 0.23659 0.74664 0.0
C38 C 0.77141 0.20487 0.70614 0.0
C39 C 0.73814 0.16888 0.73732 0.0
C40 C 0.73769 0.16596 0.80774 0.0
Zn41 Zn 0.76826 0.19718 0.94864 0.0
C42 C 0.7501 0.11616 1.00882 0.0
N43 N 0.77116 0.20319 0.16328 0.0
C44 C 0.80295 0.23487 0.2012 0.0
C45 C 0.73813 0.16858 0.19255 0.0
C46 C 0.73657 0.16433 0.2624 0.0
C47 C 0.76926 0.19602 0.30283 0.0
C48 C 0.80255 0.23196 0.2716 0.0
Zn49 Zn 0.77229 0.20372 0.06043 0.0
O50 O 0.83399 0.21625 0.95063 0.0
C51 C 0.78926 0.28458 1.00191 0.0
O52 O 0.83812 0.22344 0.06099 0.0
H53 H 0.71314 0.14375 0.16159 0.0
H54 H 0.82733 0.25719 0.84752 0.0
H55 H 0.82896 0.262 0.17678 0.0
O56 O 0.78338 0.26224 0.9486 0.0
O57 O 0.78692 0.26799 0.05914 0.0
H58 H 0.71169 0.13879 0.83212 0.0
O59 O 0.7062 0.18422 0.05824 0.0
O60 O 0.70264 0.17843 0.94773 0.0
O61 O 0.75767 0.13977 0.0609 0.0
O62 O 0.75215 0.13176 0.9507 0.0
C63 C 0.68453 0.17581 1.00381 0.0
H64 H 0.83059 0.26449 0.72456 0.0
H65 H 0.71225 0.14383 0.70777 0.0
H66 H 0.70998 0.13648 0.28454 0.0
H67 H 0.8285 0.25699 0.3011 0.0
C68 C 0.61374 0.75425 0.01859 0.0
N69 N 0.57044 0.7883 0.19347 0.0
C70 C 0.57353 0.75626 0.22398 0.0
C71 C 0.575 0.75461 0.29437 0.0
C72 C 0.57296 0.78604 0.33428 0.0
C73 C 0.57076 0.81933 0.30151 0.0
C74 C 0.56966 0.81992 0.23076 0.0
Zn75 Zn 0.56064 0.78403 0.09014 0.0
C76 C 0.61495 0.86313 1.01664 0.0
N77 N 0.53653 0.76994 0.8755 0.0
C78 C 0.53778 0.73872 0.8378 0.0
C79 C 0.53304 0.80187 0.84541 0.0
C80 C 0.53174 0.80389 0.77505 0.0
C81 C 0.5343 0.7729 0.73472 0.0
C82 C 0.5368 0.73965 0.76708 0.0
Zn83 Zn 0.54632 0.77399 0.97884 0.0
O84 O 0.60673 0.76502 0.07646 0.0
C85 C 0.49118 0.69484 0.0513 0.0
O86 O 0.59306 0.75557 0.96747 0.0
H87 H 0.53269 0.82678 0.87598 0.0
H88 H 0.57348 0.73104 0.19373 0.0
H89 H 0.5407 0.71366 0.86251 0.0
O90 O 0.51228 0.71918 0.10076 0.0
O91 O 0.49907 0.70934 0.99157 0.0
H92 H 0.56704 0.84504 0.20572 0.0
O93 O 0.49918 0.79213 0.99321 0.0
O94 O 0.51398 0.8022 0.10184 0.0
O95 O 0.59337 0.83819 0.96821 0.0
O96 O 0.60844 0.84911 0.07674 0.0
C97 C 0.49206 0.80227 0.05158 0.0
H98 H 0.57616 0.72805 0.31727 0.0
H99 H 0.5696 0.8445 0.33023 0.0
H100 H 0.53033 0.83041 0.75252 0.0
H101 H 0.53832 0.71478 0.73805 0.0
C102 C 0.73724 0.62508 0.05454 0.0
N103 N 0.75665 0.56273 0.89054 0.0
C104 C 0.72306 0.56305 0.8597 0.0
C105 C 0.72147 0.56506 0.7895 0.0
C106 C 0.75478 0.56681 0.75065 0.0
C107 C 0.78881 0.56595 0.78384 0.0
C108 C 0.78909 0.56386 0.85415 0.0
Zn109 Zn 0.75933 0.56273 0.99328 0.0
C110 C 0.8456 0.62587 0.04515 0.0
N111 N 0.76516 0.56417 0.20808 0.0
C112 C 0.73244 0.56257 0.2443 0.0
C113 C 0.79898 0.56442 0.23911 0.0
C114 C 0.80053 0.56251 0.30933 0.0
C115 C 0.76696 0.56032 0.34799 0.0
C116 C 0.7327 0.56063 0.31464 0.0
Zn117 Zn 0.76254 0.56415 0.10533 0.0
O118 O 0.7412 0.61031 0.99809 0.0
C119 C 0.67646 0.49973 0.05166 0.0
O120 O 0.74452 0.61128 0.1088 0.0
H121 H 0.82466 0.56573 0.20931 0.0
H122 H 0.6976 0.5621 0.88964 0.0
H123 H 0.7058 0.56224 0.21854 0.0
O124 O 0.69493 0.51461 0.99596 0.0
O125 O 0.69717 0.51493 0.10668 0.0
H126 H 0.81554 0.56373 0.87977 0.0
O127 O 0.78037 0.51704 0.10126 0.0
O128 O 0.77727 0.51456 0.99053 0.0
O129 O 0.82778 0.61246 0.10189 0.0
O130 O 0.82383 0.6106 0.99121 0.0
C131 C 0.7841 0.50122 0.04583 0.0
H132 H 0.69435 0.56507 0.76591 0.0
H133 H 0.81541 0.56777 0.75591 0.0
H134 H 0.82781 0.56291 0.3331 0.0
H135 H 0.70592 0.55848 0.34246 0.0
C136 C 0.26858 0.79387 0.04794 0.0
N137 N 0.17793 0.7779 0.9013 0.0
C138 C 0.20964 0.81311 0.87107 0.0
C139 C 0.21111 0.81617 0.80071 0.0
C140 C 0.17978 0.78259 0.76077 0.0
C141 C 0.14689 0.74703 0.7934 0.0
C142 C 0.14654 0.74537 0.86398 0.0
Zn143 Zn 0.18057 0.77213 1.00421 0.0
C144 C 0.16386 0.68518 0.04098 0.0
N145 N 0.18889 0.76013 0.21852 0.0
C146 C 0.22026 0.79262 0.25595 0.0
C147 C 0.15714 0.7249 0.24866 0.0
C148 C 0.15558 0.7218 0.31901 0.0
C149 C 0.18686 0.75535 0.35905 0.0
C150 C 0.21981 0.79091 0.32653 0.0
Zn151 Zn 0.18627 0.76594 0.11559 0.0
O152 O 0.24574 0.79105 0.99705 0.0
C153 C 0.20484 0.85318 0.07893 0.0
O154 O 0.25192 0.78534 0.1063 0.0
H155 H 0.13229 0.69957 0.21815 0.0
H156 H 0.23452 0.83847 0.90151 0.0
H157 H 0.24523 0.82037 0.23111 0.0
O158 O 0.19685 0.83682 0.01967 0.0
O159 O 0.20211 0.83017 0.12884 0.0
H160 H 0.12162 0.71763 0.88891 0.0
O161 O 0.12094 0.74669 0.12264 0.0
O162 O 0.11512 0.75268 1.01336 0.0
O163 O 0.1708 0.7016 0.10014 0.0
O164 O 0.16532 0.70755 0.99082 0.0
C165 C 0.0982 0.74367 0.07149 0.0
H166 H 0.23731 0.84398 0.77782 0.0
H167 H 0.12177 0.72067 0.76467 0.0
H168 H 0.12934 0.69398 0.34183 0.0
H169 H 0.2449 0.81725 0.35534 0.0
C170 C 0.34135 0.21528 0.08651 0.0
N171 N 0.39903 0.18297 0.24135 0.0
C172 C 0.39871 0.21483 0.27851 0.0
C173 C 0.39699 0.21286 0.34882 0.0
C174 C 0.39564 0.1778 0.38141 0.0
C175 C 0.39595 0.14532 0.34179 0.0
C176 C 0.39768 0.14858 0.27148 0.0
Zn177 Zn 0.40146 0.18758 0.13864 0.0
C178 C 0.33934 0.10618 0.06976 0.0
N179 N 0.40576 0.19806 0.92421 0.0
C180 C 0.40696 0.23227 0.89366 0.0
C181 C 0.40635 0.16621 0.88746 0.0
C182 C 0.40822 0.16797 0.81715 0.0
C183 C 0.40947 0.20285 0.78415 0.0
C184 C 0.40885 0.23533 0.82333 0.0
Zn185 Zn 0.40326 0.19365 0.02692 0.0
O186 O 0.35447 0.20648 0.14035 0.0
C187 C 0.46579 0.27507 0.09489 0.0
O188 O 0.35624 0.21206 0.03003 0.0
H189 H 0.40552 0.13936 0.91275 0.0
H190 H 0.39968 0.24183 0.25355 0.0
H191 H 0.4064 0.2572 0.92387 0.0
O192 O 0.45041 0.25259 0.14727 0.0
O193 O 0.45147 0.25828 0.03699 0.0
H194 H 0.39804 0.12367 0.24094 0.0
O195 O 0.45089 0.17572 0.02531 0.0
O196 O 0.44907 0.16946 0.13546 0.0
O197 O 0.35516 0.12917 0.01811 0.0
O198 O 0.35279 0.12252 0.12823 0.0
C199 C 0.46477 0.16761 0.07896 0.0
H200 H 0.39617 0.2383 0.37729 0.0
H201 H 0.39541 0.11796 0.36487 0.0
H202 H 0.40927 0.14254 0.78902 0.0
H203 H 0.40931 0.26256 0.79989 0.0
H204 H 0.30643 0.23571 0.98163 0.0
H205 H 0.31027 0.23399 0.19962 0.0
H206 H 0.26879 0.27055 0.20582 0.0
H207 H 0.23697 0.30845 0.14964 0.0
H208 H 0.23421 0.31119 0.93166 0.0
H209 H 0.26938 0.26839 0.92537 0.0
C210 C 0.2978 0.24288 0.03052 0.0
C211 C 0.31181 0.23251 0.09002 0.0
C212 C 0.27433 0.2643 0.0338 0.0
C213 C 0.30006 0.24177 0.15296 0.0
C214 C 0.27644 0.2628 0.15661 0.0
C215 C 0.24361 0.29929 0.10071 0.0
C216 C 0.23335 0.31338 0.04127 0.0
C217 C 0.26425 0.27507 0.09739 0.0
C218 C 0.24192 0.30095 0.97828 0.0
C219 C 0.26216 0.27657 0.97458 0.0
H220 H 0.05218 0.31053 0.94238 0.0
H221 H 0.05955 0.3135 0.16035 0.0
H222 H -0.01829 0.2744 0.16632 0.0
H223 H 0.91176 0.24497 0.10994 0.0
H224 H 0.90472 0.24298 0.89195 0.0
H225 H -0.01781 0.27591 0.88593 0.0
C226 C 0.0368 0.30215 0.99121 0.0
C227 C 0.06167 0.31529 0.05077 0.0
C228 C -0.00795 0.28016 0.99438 0.0
C229 C 0.04119 0.30394 0.11363 0.0
C230 C -0.00335 0.28172 0.11716 0.0
C231 C 0.92713 0.25138 0.06111 0.0
C232 C 0.90249 0.24192 1.00159 0.0
C233 C 0.97178 0.27058 0.0579 0.0
C234 C 0.9229 0.25011 0.93866 0.0
C235 C 0.96725 0.26902 0.93509 0.0
H236 H 0.71553 0.05235 0.91353 0.0
H237 H 0.74989 0.0766 0.12516 0.0
H238 H 0.71406 1e-05 0.14554 0.0
H239 H 0.66642 0.92633 0.1059 0.0
H240 H 0.63107 0.9021 0.89458 0.0
H241 H 0.67399 0.97819 0.87173 0.0
C242 C 0.71584 0.04086 0.96382 0.0
C243 C 0.73484 0.07014 0.01775 0.0
C244 C 0.69453 -0.00333 0.97561 0.0
C245 C 0.73508 0.05474 0.0827 0.0
C246 C 0.71449 0.01089 0.09458 0.0
C247 C 0.66851 0.93764 0.05475 0.0
C248 C 0.64508 0.90861 1.0024 0.0
C249 C 0.693 0.98159 0.04183 0.0
C250 C 0.64847 0.92377 0.93616 0.0
C251 C 0.673 0.96735 0.92289 0.0
H252 H 0.71027 0.65401 0.94972 0.0
H253 H 0.7289 0.66522 0.16629 0.0
H254 H 0.69605 0.7101 0.17309 0.0
H255 H 0.65652 0.74063 0.11916 0.0
H256 H 0.63532 0.72734 0.90319 0.0
H257 H 0.67526 0.68922 0.89459 0.0
C258 C 0.70762 0.66668 0.99832 0.0
C259 C 0.72164 0.65594 0.05744 0.0
C260 C 0.6881 0.69193 1.00207 0.0
C261 C 0.71807 0.67273 0.12001 0.0
C262 C 0.69926 0.69838 0.12401 0.0
C263 C 0.66109 0.72992 0.07003 0.0
C264 C 0.64264 0.73648 1.01202 0.0
C265 C 0.68332 0.70735 0.06558 0.0
C266 C 0.64901 0.72251 0.94874 0.0
C267 C 0.67173 0.70059 0.94377 0.0
H268 H 0.04024 0.73159 0.97337 0.0
H269 H 0.05235 0.71908 0.18789 0.0
H270 H 0.97509 0.68542 0.1998 0.0
H271 H 0.90383 0.65375 0.14787 0.0
H272 H 0.89168 0.66437 0.93283 0.0
H273 H 0.96924 0.70506 0.92291 0.0
C274 C 0.02604 0.72191 0.02284 0.0
C275 C 0.05199 0.72742 0.07944 0.0
C276 C -0.01845 0.70211 0.02931 0.0
C277 C 0.03309 0.71495 0.14331 0.0
C278 C -0.01112 0.69565 0.15024 0.0
C279 C 0.91812 0.66553 0.099 0.0
C280 C 0.89204 0.65569 0.04115 0.0
C281 C 0.96275 0.68822 0.09336 0.0
C282 C 0.91106 0.67123 0.97817 0.0
C283 C 0.95542 0.69442 0.97235 0.0
H284 H 0.22456 0.91312 0.98269 0.0
H285 H 0.22378 0.8975 0.19875 0.0
H286 H 0.2622 0.97503 0.2154 0.0
H287 H 0.3025 0.04693 0.16808 0.0
H288 H 0.30505 0.06221 0.95175 0.0
H289 H 0.25922 -0.01483 0.936 0.0
C290 C 0.23217 0.92663 0.0335 0.0
C291 C 0.22174 0.89956 0.08927 0.0
C292 C 0.25499 0.97121 0.04272 0.0
C293 C 0.23171 0.91762 0.15481 0.0
C294 C 0.25382 0.96197 0.16444 0.0
C295 C 0.29262 0.03347 0.11753 0.0
C296 C 0.30764 0.06024 0.06121 0.0
C297 C 0.26669 -0.01095 0.10866 0.0
C298 C 0.29428 0.04231 0.99605 0.0
C299 C 0.26808 -0.00178 0.9869 0.0
H300 H 0.15314 0.62759 0.13672 0.0
H301 H 0.16184 0.64562 0.92097 0.0
H302 H 0.16155 0.57813 0.90465 0.0
H303 H 0.16523 0.51716 0.95274 0.0
H304 H 0.1574 0.50062 0.16901 0.0
H305 H 0.1507 0.56411 0.1837 0.0
C306 C 0.15451 0.61659 0.08602 0.0
C307 C 0.15797 0.64185 0.03029 0.0
C308 C 0.15479 0.57807 0.07703 0.0
C309 C 0.1593 0.62686 0.96488 0.0
C310 C 0.1593 0.58833 0.95547 0.0
C311 C 0.16153 0.52717 1.00296 0.0
C312 C 0.16236 0.50441 0.05964 0.0
C313 C 0.15804 0.56414 1.01133 0.0
C314 C 0.15733 0.51773 0.12442 0.0
C315 C 0.15349 0.5541 0.13301 0.0
H316 H 0.50437 0.16087 0.96673 0.0
H317 H 0.50848 0.15855 0.18464 0.0
H318 H 0.57533 0.15708 0.18011 0.0
H319 H 0.6359 0.16354 0.11491 0.0
H320 H 0.63239 0.16716 0.89709 0.0
H321 H 0.56178 0.16065 0.90112 0.0
C322 C 0.51957 0.15951 1.01327 0.0
C323 C 0.50168 0.16037 0.07595 0.0
C324 C 0.55829 0.15923 1.01038 0.0
C325 C 0.52164 0.15817 0.13569 0.0
C326 C 0.55998 0.15749 0.13319 0.0
C327 C 0.61953 0.16247 0.06823 0.0
C328 C 0.63968 0.16641 1.00584 0.0
C329 C 0.57913 0.15915 0.0709 0.0
C330 C 0.61777 0.16445 0.94585 0.0
C331 C 0.57742 0.16084 0.94809 0.0
H332 H 0.44832 0.63095 0.959 0.0
H333 H 0.45475 0.66034 0.17221 0.0
H334 H 0.39154 0.59075 0.19146 0.0
H335 H 0.33052 0.5242 0.1459 0.0
H336 H 0.32478 0.4958 0.93224 0.0
H337 H 0.39176 0.56192 0.91545 0.0
C338 C 0.43614 0.62199 1.00978 0.0
C339 C 0.45589 0.65099 0.06384 0.0
C340 C 0.39974 0.58205 0.02052 0.0
C341 C 0.44002 0.63867 0.12952 0.0
C342 C 0.40379 0.5989 0.14063 0.0
C343 C 0.34434 0.53215 0.09593 0.0
C344 C 0.32235 0.50534 0.04039 0.0
C345 C 0.38282 0.57067 0.08626 0.0
C346 C 0.34074 0.51608 0.97589 0.0
C347 C 0.37906 0.55397 0.96608 0.0
H348 H 0.78643 0.45402 0.93885 0.0
H349 H 0.80216 0.46809 0.15577 0.0
H350 H 0.80882 0.40418 0.16055 0.0
H351 H 0.80393 0.34094 0.10479 0.0
H352 H 0.78719 0.3258 0.88818 0.0
H353 H 0.78767 0.39364 0.88178 0.0
C354 C 0.79184 0.4434 0.98705 0.0
C355 C 0.79326 0.46554 0.04685 0.0
C356 C 0.79523 0.40626 0.98968 0.0
C357 C 0.80052 0.45146 0.10891 0.0
C358 C 0.8043 0.41485 0.11181 0.0
C359 C 0.80086 0.35267 0.05606 0.0
C360 C 0.79504 0.32808 0.99724 0.0
C361 C 0.8007 0.39145 0.05274 0.0
C362 C 0.79148 0.34397 0.93442 0.0
C363 C 0.79163 0.38273 0.93066 0.0
H364 H 0.32761 0.80589 0.14452 0.0
H365 H 0.30947 0.80361 0.9284 0.0
H366 H 0.37926 0.81029 0.91048 0.0
H367 H 0.44209 0.8095 0.95572 0.0
H368 H 0.46035 0.81147 0.17172 0.0
H369 H 0.39421 0.8128 0.18991 0.0
C370 C 0.33913 0.80734 0.09353 0.0
C371 C 0.31307 0.80358 0.03798 0.0
C372 C 0.37926 0.81092 0.08343 0.0
C373 C 0.3287 0.80606 0.97218 0.0
C374 C 0.36861 0.8098 0.96178 0.0
C375 C 0.4319 0.81076 1.00678 0.0
C376 C 0.45579 0.80974 0.06218 0.0
C377 C 0.39364 0.81112 1.01698 0.0
C378 C 0.44241 0.81194 0.12806 0.0
C379 C 0.40449 0.81254 0.13859 0.0
H380 H 0.63233 0.45097 0.15859 0.0
H381 H 0.62239 0.46453 0.9438 0.0
H382 H 0.55443 0.39764 0.93952 0.0
H383 H 0.50125 0.3324 0.99437 0.0
H384 H 0.51137 0.31743 0.20855 0.0
H385 H 0.57563 0.38795 0.21542 0.0
C386 C 0.61498 0.43961 0.11104 0.0
C387 C 0.63266 0.46251 0.05153 0.0
C388 C 0.57613 0.4007 0.10864 0.0
C389 C 0.60972 0.44738 0.99032 0.0
C390 C 0.57086 0.40906 0.98773 0.0
C391 C 0.51725 0.34467 0.04273 0.0
C392 C 0.50181 0.31948 0.10067 0.0
C393 C 0.55434 0.38497 0.04621 0.0
C394 C 0.52271 0.33608 0.16305 0.0
C395 C 0.55952 0.37638 0.16702 0.0
H396 H 0.13841 0.36709 0.65445 0.0
H397 H 0.27163 0.46228 0.67847 0.0
H398 H 0.28001 0.46651 0.55596 0.0
H399 H 0.24929 0.44376 0.44197 0.0
H400 H 0.1161 0.34838 0.41797 0.0
H401 H 0.10776 0.34408 0.54045 0.0
C402 C 0.16915 0.38903 0.63278 0.0
C403 C 0.20432 0.41429 0.67537 0.0
C404 C 0.17375 0.39131 0.56235 0.0
C405 C 0.24416 0.44215 0.64667 0.0
C406 C 0.24895 0.44471 0.57667 0.0
C407 C 0.21857 0.42173 0.46361 0.0
C408 C 0.18338 0.39653 0.421 0.0
C409 C 0.214 0.41936 0.53404 0.0
C410 C 0.14359 0.36854 0.44973 0.0
C411 C 0.13881 0.36593 0.51973 0.0
H412 H 0.75513 0.14442 0.60922 0.0
H413 H 0.78958 0.27682 0.6367 0.0
H414 H 0.79301 0.28613 0.5145 0.0
H415 H 0.78561 0.25649 0.39971 0.0
H416 H 0.75114 0.12408 0.37221 0.0
H417 H 0.74775 0.11478 0.49442 0.0
C418 C 0.76299 0.17517 0.58837 0.0
C419 C 0.77218 0.20986 0.63188 0.0
C420 C 0.76487 0.1803 0.51809 0.0
C421 C 0.78289 0.24972 0.60422 0.0
C422 C 0.78469 0.25505 0.53438 0.0
C423 C 0.77776 0.22574 0.42056 0.0
C424 C 0.76855 0.19104 0.37707 0.0
C425 C 0.77589 0.2206 0.49084 0.0
C426 C 0.75785 0.15118 0.40471 0.0
C427 C 0.75606 0.14586 0.47455 0.0
H428 H 0.5854 0.75977 0.64779 0.0
H429 H 0.4868 0.79426 0.6526 0.0
H430 H 0.49107 0.80281 0.53015 0.0
H431 H 0.52223 0.79976 0.4212 0.0
H432 H 0.6207 0.76509 0.41644 0.0
H433 H 0.61662 0.75683 0.53893 0.0
C434 C 0.56448 0.76867 0.622 0.0
C435 C 0.53578 0.77629 0.65959 0.0
C436 C 0.5671 0.77356 0.55142 0.0
C437 C 0.50948 0.78857 0.62522 0.0
C438 C 0.5118 0.79335 0.55507 0.0
C439 C 0.54316 0.79088 0.44703 0.0
C440 C 0.57174 0.78308 0.40944 0.0
C441 C 0.54059 0.78608 0.51764 0.0
C442 C 0.5981 0.7709 0.44384 0.0
C443 C 0.59588 0.76627 0.514 0.0
H444 H 0.77683 0.52538 0.65741 0.0
H445 H 0.73176 0.61573 0.67639 0.0
H446 H 0.73121 0.6214 0.55366 0.0
H447 H 0.7447 0.60165 0.44111 0.0
H448 H 0.79001 0.5115 0.42224 0.0
H449 H 0.79044 0.50574 0.54496 0.0
C450 C 0.76726 0.54661 0.63473 0.0
C451 C 0.75432 0.57004 0.67603 0.0
C452 C 0.76737 0.55001 0.56422 0.0
C453 C 0.74132 0.59688 0.64575 0.0
C454 C 0.74126 0.60037 0.5756 0.0
C455 C 0.75433 0.58048 0.46384 0.0
C456 C 0.76735 0.5571 0.42259 0.0
C457 C 0.75423 0.57709 0.53437 0.0
C458 C 0.78038 0.53029 0.45288 0.0
C459 C 0.78038 0.52676 0.52302 0.0
H460 H 0.20082 0.81984 0.44733 0.0
H461 H 0.16688 0.68681 0.43967 0.0
H462 H 0.16071 0.68325 0.56258 0.0
H463 H 0.1657 0.71807 0.67249 0.0
H464 H 0.19963 0.85109 0.68015 0.0
H465 H 0.20575 0.85464 0.55723 0.0
C466 C 0.19253 0.79018 0.47258 0.0
C467 C 0.18438 0.75366 0.43417 0.0
C468 C 0.18906 0.78835 0.54336 0.0
C469 C 0.17292 0.7153 0.4678 0.0
C470 C 0.16953 0.71326 0.53816 0.0
C471 C 0.17397 0.74772 0.64724 0.0
C472 C 0.18215 0.78424 0.68565 0.0
C473 C 0.17741 0.74954 0.57645 0.0
C474 C 0.19358 0.8226 0.65202 0.0
C475 C 0.19694 0.82463 0.58165 0.0
H476 H 0.36553 0.13824 0.69279 0.0
H477 H 0.45825 0.27305 0.70745 0.0
H478 H 0.46209 0.27711 0.58441 0.0
H479 H 0.43994 0.24221 0.47285 0.0
H480 H 0.34712 0.10744 0.45811 0.0
H481 H 0.34347 0.10329 0.58117 0.0
C482 C 0.38687 0.16844 0.66909 0.0
C483 C 0.41155 0.20528 0.70931 0.0
C484 C 0.38915 0.17049 0.59837 0.0
C485 C 0.43849 0.24432 0.67772 0.0
C486 C 0.44092 0.24662 0.60737 0.0
C487 C 0.41861 0.212 0.49652 0.0
C488 C 0.39382 0.17522 0.45626 0.0
C489 C 0.41639 0.20992 0.56724 0.0
C490 C 0.36694 0.13614 0.48785 0.0
C491 C 0.36462 0.1338 0.55822 0.0
loop_
_geom_bond_atom_site_label_1
_geom_bond_atom_site_label_2
_geom_bond_distance
_geom_bond_site_symmetry_2
_ccdc_geom_bond_type
C0 O16 1.251 . S
C0 O18 1.254 1_554 S
N1 C2 1.333 . S
N1 C6 1.307 . S
N1 Zn7 2.020 . S
C2 N1 1.333 . S
C2 C3 1.379 . S
C2 H20 0.952 . S
C3 C2 1.379 . S
C3 C4 1.390 . S
C3 H30 0.949 . S
C4 C3 1.390 . S
C4 C5 1.357 . S
C5 C4 1.357 . S
C5 C6 1.370 . S
C5 H31 0.950 . S
C6 N1 1.307 . S
C6 C5 1.370 . S
C6 H24 0.948 . S
Zn7 N1 2.020 . S
Zn7 O16 2.039 . S
Zn7 O22 2.034 . S
Zn7 O26 2.025 . S
Zn7 O28 2.024 . S
C8 O27 1.246 1_554 S
C8 O28 1.249 . S
N9 C10 1.307 . S
N9 C11 1.333 . S
N9 Zn15 2.020 . S
C10 N9 1.307 . S
C10 C14 1.370 . S
C10 H21 0.948 . S
C11 N9 1.333 . S
C11 C12 1.379 . S
C11 H19 0.952 . S
C12 C11 1.379 . S
C12 C13 1.390 . S
C12 H32 0.949 . S
C13 C12 1.390 . S
C13 C14 1.357 . S
C14 C10 1.370 . S
C14 C13 1.357 . S
C14 H33 0.950 . S
Zn15 N9 2.020 . S
Zn15 O18 2.025 . S
Zn15 O23 2.024 . S
Zn15 O25 2.039 . S
Zn15 O27 2.034 . S
O16 C0 1.251 . S
O16 Zn7 2.039 . S
C17 O22 1.246 . S
C17 O23 1.249 1_554 S
O18 C0 1.254 1_556 S
O18 Zn15 2.025 . S
H19 C11 0.952 . S
H20 C2 0.952 . S
H21 C10 0.948 . S
O22 Zn7 2.034 . S
O22 C17 1.246 . S
O23 Zn15 2.024 . S
O23 C17 1.249 1_556 S
H24 C6 0.948 . S
O25 Zn15 2.039 . S
O25 C29 1.251 1_556 S
O26 Zn7 2.025 . S
O26 C29 1.254 . S
O27 C8 1.246 1_556 S
O27 Zn15 2.034 . S
O28 Zn7 2.024 . S
O28 C8 1.249 . S
C29 O25 1.251 1_554 S
C29 O26 1.254 . S
H30 C3 0.949 . S
H31 C5 0.950 . S
H32 C12 0.949 . S
H33 C14 0.950 . S
C34 O50 1.251 1_554 S
C34 O52 1.254 . S
N35 C36 1.333 . S
N35 C40 1.307 . S
N35 Zn41 2.020 . S
C36 N35 1.333 . S
C36 C37 1.379 . S
C36 H54 0.952 . S
C37 C36 1.379 . S
C37 C38 1.390 . S
C37 H64 0.949 . S
C38 C37 1.390 . S
C38 C39 1.357 . S
C39 C38 1.357 . S
C39 C40 1.370 . S
C39 H65 0.950 . S
C40 N35 1.307 . S
C40 C39 1.370 . S
C40 H58 0.948 . S
Zn41 N35 2.020 . S
Zn41 O50 2.039 . S
Zn41 O56 2.034 . S
Zn41 O60 2.025 . S
Zn41 O62 2.024 . S
C42 O61 1.246 . S
C42 O62 1.249 1_554 S
N43 C44 1.307 . S
N43 C45 1.333 . S
N43 Zn49 2.020 . S
C44 N43 1.307 . S
C44 C48 1.370 . S
C44 H55 0.948 . S
C45 N43 1.333 . S
C45 C46 1.379 . S
C45 H53 0.952 . S
C46 C45 1.379 . S
C46 C47 1.390 . S
C46 H66 0.949 . S
C47 C46 1.390 . S
C47 C48 1.357 . S
C48 C44 1.370 . S
C48 C47 1.357 . S
C48 H67 0.950 . S
Zn49 N43 2.020 . S
Zn49 O52 2.025 . S
Zn49 O57 2.024 . S
Zn49 O59 2.039 . S
Zn49 O61 2.034 . S
O50 C34 1.251 1_556 S
O50 Zn41 2.039 . S
C51 O56 1.246 1_554 S
C51 O57 1.249 . S
O52 C34 1.254 . S
O52 Zn49 2.025 . S
H53 C45 0.952 . S
H54 C36 0.952 . S
H55 C44 0.948 . S
O56 Zn41 2.034 . S
O56 C51 1.246 1_556 S
O57 Zn49 2.024 . S
O57 C51 1.249 . S
H58 C40 0.948 . S
O59 Zn49 2.039 . S
O59 C63 1.251 . S
O60 Zn41 2.025 . S
O60 C63 1.254 1_556 S
O61 C42 1.246 . S
O61 Zn49 2.034 . S
O62 Zn41 2.024 . S
O62 C42 1.249 1_556 S
C63 O59 1.251 . S
C63 O60 1.254 1_554 S
H64 C37 0.949 . S
H65 C39 0.950 . S
H66 C46 0.949 . S
H67 C48 0.950 . S
C68 O84 1.251 . S
C68 O86 1.254 1_554 S
N69 C70 1.333 . S
N69 C74 1.307 . S
N69 Zn75 2.020 . S
C70 N69 1.333 . S
C70 C71 1.379 . S
C70 H88 0.952 . S
C71 C70 1.379 . S
C71 C72 1.390 . S
C71 H98 0.949 . S
C72 C71 1.390 . S
C72 C73 1.357 . S
C73 C72 1.357 . S
C73 C74 1.370 . S
C73 H99 0.950 . S
C74 N69 1.307 . S
C74 C73 1.370 . S
C74 H92 0.948 . S
Zn75 N69 2.020 . S
Zn75 O84 2.039 . S
Zn75 O90 2.034 . S
Zn75 O94 2.025 . S
Zn75 O96 2.024 . S
C76 O95 1.246 1_554 S
C76 O96 1.249 . S
N77 C78 1.307 . S
N77 C79 1.333 . S
N77 Zn83 2.020 . S
C78 N77 1.307 . S
C78 C82 1.370 . S
C78 H89 0.948 . S
C79 N77 1.333 . S
C79 C80 1.379 . S
C79 H87 0.952 . S
C80 C79 1.379 . S
C80 C81 1.390 . S
C80 H100 0.949 . S
C81 C80 1.390 . S
C81 C82 1.357 . S
C82 C78 1.370 . S
C82 C81 1.357 . S
C82 H101 0.950 . S
Zn83 N77 2.020 . S
Zn83 O86 2.025 . S
Zn83 O91 2.024 . S
Zn83 O93 2.039 . S
Zn83 O95 2.034 . S
O84 C68 1.251 . S
O84 Zn75 2.039 . S
C85 O90 1.246 . S
C85 O91 1.249 1_554 S
O86 C68 1.254 1_556 S
O86 Zn83 2.025 . S
H87 C79 0.952 . S
H88 C70 0.952 . S
H89 C78 0.948 . S
O90 Zn75 2.034 . S
O90 C85 1.246 . S
O91 Zn83 2.024 . S
O91 C85 1.249 1_556 S
H92 C74 0.948 . S
O93 Zn83 2.039 . S
O93 C97 1.251 1_556 S
O94 Zn75 2.025 . S
O94 C97 1.254 . S
O95 C76 1.246 1_556 S
O95 Zn83 2.034 . S
O96 Zn75 2.024 . S
O96 C76 1.249 . S
C97 O93 1.251 1_554 S
C97 O94 1.254 . S
H98 C71 0.949 . S
H99 C73 0.950 . S
H100 C80 0.949 . S
H101 C82 0.950 . S
C102 O118 1.251 1_554 S
C102 O120 1.254 . S
N103 C104 1.333 . S
N103 C108 1.307 . S
N103 Zn109 2.020 . S
C104 N103 1.333 . S
C104 C105 1.379 . S
C104 H122 0.952 . S
C105 C104 1.379 . S
C105 C106 1.390 . S
C105 H132 0.949 . S
C106 C105 1.390 . S
C106 C107 1.357 . S
C107 C106 1.357 . S
C107 C108 1.370 . S
C107 H133 0.950 . S
C108 N103 1.307 . S
C108 C107 1.370 . S
C108 H126 0.948 . S
Zn109 N103 2.020 . S
Zn109 O118 2.039 . S
Zn109 O124 2.034 . S
Zn109 O128 2.025 . S
Zn109 O130 2.024 . S
C110 O129 1.246 . S
C110 O130 1.249 1_554 S
N111 C112 1.307 . S
N111 C113 1.333 . S
N111 Zn117 2.020 . S
C112 N111 1.307 . S
C112 C116 1.370 . S
C112 H123 0.948 . S
C113 N111 1.333 . S
C113 C114 1.379 . S
C113 H121 0.952 . S
C114 C113 1.379 . S
C114 C115 1.390 . S
C114 H134 0.949 . S
C115 C114 1.390 . S
C115 C116 1.357 . S
C116 C112 1.370 . S
C116 C115 1.357 . S
C116 H135 0.950 . S
Zn117 N111 2.020 . S
Zn117 O120 2.025 . S
Zn117 O125 2.024 . S
Zn117 O127 2.039 . S
Zn117 O129 2.034 . S
O118 C102 1.251 1_556 S
O118 Zn109 2.039 . S
C119 O124 1.246 1_554 S
C119 O125 1.249 . S
O120 C102 1.254 . S
O120 Zn117 2.025 . S
H121 C113 0.952 . S
H122 C104 0.952 . S
H123 C112 0.948 . S
O124 Zn109 2.034 . S
O124 C119 1.246 1_556 S
O125 Zn117 2.024 . S
O125 C119 1.249 . S
H126 C108 0.948 . S
O127 Zn117 2.039 . S
O127 C131 1.251 . S
O128 Zn109 2.025 . S
O128 C131 1.254 1_556 S
O129 C110 1.246 . S
O129 Zn117 2.034 . S
O130 Zn109 2.024 . S
O130 C110 1.249 1_556 S
C131 O127 1.251 . S
C131 O128 1.254 1_554 S
H132 C105 0.949 . S
H133 C107 0.950 . S
H134 C114 0.949 . S
H135 C116 0.950 . S
C136 O152 1.251 1_554 S
C136 O154 1.254 . S
N137 C138 1.333 . S
N137 C142 1.307 . S
N137 Zn143 2.020 . S
C138 N137 1.333 . S
C138 C139 1.379 . S
C138 H156 0.952 . S
C139 C138 1.379 . S
C139 C140 1.390 . S
C139 H166 0.949 . S
C140 C139 1.390 . S
C140 C141 1.357 . S
C141 C140 1.357 . S
C141 C142 1.370 . S
C141 H167 0.950 . S
C142 N137 1.307 . S
C142 C141 1.370 . S
C142 H160 0.948 . S
Zn143 N137 2.020 . S
Zn143 O152 2.039 . S
Zn143 O158 2.034 . S
Zn143 O162 2.025 . S
Zn143 O164 2.024 . S
C144 O163 1.246 . S
C144 O164 1.249 1_554 S
N145 C146 1.307 . S
N145 C147 1.333 . S
N145 Zn151 2.020 . S
C146 N145 1.307 . S
C146 C150 1.370 . S
C146 H157 0.948 . S
C147 N145 1.333 . S
C147 C148 1.379 . S
C147 H155 0.952 . S
C148 C147 1.379 . S
C148 C149 1.390 . S
C148 H168 0.949 . S
C149 C148 1.390 . S
C149 C150 1.357 . S
C150 C146 1.370 . S
C150 C149 1.357 . S
C150 H169 0.950 . S
Zn151 N145 2.020 . S
Zn151 O154 2.025 . S
Zn151 O159 2.024 . S
Zn151 O161 2.039 . S
Zn151 O163 2.034 . S
O152 C136 1.251 1_556 S
O152 Zn143 2.039 . S
C153 O158 1.246 1_554 S
C153 O159 1.249 . S
O154 C136 1.254 . S
O154 Zn151 2.025 . S
H155 C147 0.952 . S
H156 C138 0.952 . S
H157 C146 0.948 . S
O158 Zn143 2.034 . S
O158 C153 1.246 1_556 S
O159 Zn151 2.024 . S
O159 C153 1.249 . S
H160 C142 0.948 . S
O161 Zn151 2.039 . S
O161 C165 1.251 . S
O162 Zn143 2.025 . S
O162 C165 1.254 1_556 S
O163 C144 1.246 . S
O163 Zn151 2.034 . S
O164 Zn143 2.024 . S
O164 C144 1.249 1_556 S
C165 O161 1.251 . S
C165 O162 1.254 1_554 S
H166 C139 0.949 . S
H167 C141 0.950 . S
H168 C148 0.949 . S
H169 C150 0.950 . S
C170 O186 1.251 . S
C170 O188 1.254 1_554 S
N171 C172 1.333 . S
N171 C176 1.307 . S
N171 Zn177 2.020 . S
C172 N171 1.333 . S
C172 C173 1.379 . S
C172 H190 0.952 . S
C173 C172 1.379 . S
C173 C174 1.390 . S
C173 H200 0.949 . S
C174 C173 1.390 . S
C174 C175 1.357 . S
C175 C174 1.357 . S
C175 C176 1.370 . S
C175 H201 0.950 . S
C176 N171 1.307 . S
C176 C175 1.370 . S
C176 H194 0.948 . S
Zn177 N171 2.020 . S
Zn177 O186 2.039 . S
Zn177 O192 2.034 . S
Zn177 O196 2.025 . S
Zn177 O198 2.024 . S
C178 O197 1.246 1_554 S
C178 O198 1.249 . S
N179 C180 1.307 . S
N179 C181 1.333 . S
N179 Zn185 2.020 . S
C180 N179 1.307 . S
C180 C184 1.370 . S
C180 H191 0.948 . S
C181 N179 1.333 . S
C181 C182 1.379 . S
C181 H189 0.952 . S
C182 C181 1.379 . S
C182 C183 1.390 . S
C182 H202 0.949 . S
C183 C182 1.390 . S
C183 C184 1.357 . S
C184 C180 1.370 . S
C184 C183 1.357 . S
C184 H203 0.950 . S
Zn185 N179 2.020 . S
Zn185 O188 2.025 . S
Zn185 O193 2.024 . S
Zn185 O195 2.039 . S
Zn185 O197 2.034 . S
O186 C170 1.251 . S
O186 Zn177 2.039 . S
C187 O192 1.246 . S
C187 O193 1.249 1_554 S
O188 C170 1.254 1_556 S
O188 Zn185 2.025 . S
H189 C181 0.952 . S
H190 C172 0.952 . S
H191 C180 0.948 . S
O192 Zn177 2.034 . S
O192 C187 1.246 . S
O193 Zn185 2.024 . S
O193 C187 1.249 1_556 S
H194 C176 0.948 . S
O195 Zn185 2.039 . S
O195 C199 1.251 1_556 S
O196 Zn177 2.025 . S
O196 C199 1.254 . S
O197 C178 1.246 1_556 S
O197 Zn185 2.034 . S
O198 Zn177 2.024 . S
O198 C178 1.249 . S
C199 O195 1.251 1_554 S
C199 O196 1.254 . S
H200 C173 0.949 . S
H201 C175 0.950 . S
H202 C182 0.949 . S
H203 C184 0.950 . S
H204 C210 0.930 . S
H205 C213 0.930 . S
H206 C214 0.930 . S
H207 C215 0.930 . S
H208 C218 0.930 . S
H209 C219 0.930 . S
C210 H204 0.930 . S
C210 C211 1.355 . S
C210 C212 1.415 . S
C211 C210 1.355 . S
C211 C213 1.419 . S
C212 C210 1.415 . S
C212 C217 1.425 . S
C212 C219 1.409 . S
C213 H205 0.930 . S
C213 C211 1.419 . S
C213 C214 1.362 . S
C214 H206 0.930 . S
C214 C213 1.362 . S
C214 C217 1.409 . S
C215 H207 0.930 . S
C215 C216 1.355 . S
C215 C217 1.415 . S
C216 C215 1.355 . S
C216 C218 1.419 . S
C217 C212 1.425 . S
C217 C214 1.409 . S
C217 C215 1.415 . S
C218 H208 0.930 . S
C218 C216 1.419 . S
C218 C219 1.362 . S
C219 H209 0.930 . S
C219 C212 1.409 . S
C219 C218 1.362 . S
H220 C226 0.930 . S
H221 C229 0.930 . S
H222 C230 0.930 . S
H223 C231 0.930 . S
H224 C234 0.930 . S
H225 C235 0.930 . S
C226 H220 0.930 . S
C226 C227 1.355 1_556 S
C226 C228 1.415 1_556 S
C227 C226 1.355 1_554 S
C227 C229 1.419 . S
C228 C226 1.415 1_554 S
C228 C233 1.424 1_455 S
C228 C235 1.410 1_454 S
C229 H221 0.930 . S
C229 C227 1.419 . S
C229 C230 1.362 . S
C230 H222 0.930 . S
C230 C229 1.362 . S
C230 C233 1.409 1_455 S
C231 H223 0.930 . S
C231 C232 1.355 . S
C231 C233 1.415 . S
C232 C231 1.355 . S
C232 C234 1.419 1_554 S
C233 C228 1.424 1_655 S
C233 C230 1.409 1_655 S
C233 C231 1.415 . S
C234 H224 0.930 . S
C234 C232 1.419 1_556 S
C234 C235 1.362 . S
C235 H225 0.930 . S
C235 C228 1.410 1_656 S
C235 C234 1.362 . S
H236 C242 0.930 1_556 S
H237 C245 0.930 . S
H238 C246 0.930 . S
H239 C247 0.930 . S
H240 C250 0.930 . S
H241 C251 0.930 . S
C242 H236 0.930 1_554 S
C242 C243 1.355 . S
C242 C244 1.415 . S
C243 C242 1.355 . S
C243 C245 1.419 . S
C244 C242 1.415 . S
C244 C249 1.425 1_545 S
C244 C251 1.409 1_544 S
C245 H237 0.930 . S
C245 C243 1.419 . S
C245 C246 1.362 . S
C246 H238 0.930 . S
C246 C245 1.362 . S
C246 C249 1.409 1_545 S
C247 H239 0.930 . S
C247 C248 1.355 . S
C247 C249 1.415 . S
C248 C247 1.355 . S
C248 C250 1.419 1_554 S
C249 C244 1.425 1_565 S
C249 C246 1.409 1_565 S
C249 C247 1.415 . S
C250 H240 0.930 . S
C250 C248 1.419 1_556 S
C250 C251 1.362 . S
C251 H241 0.930 . S
C251 C244 1.409 1_566 S
C251 C250 1.362 . S
H252 C258 0.930 . S
H253 C261 0.930 . S
H254 C262 0.930 . S
H255 C263 0.930 . S
H256 C266 0.930 . S
H257 C267 0.930 . S
C258 H252 0.930 . S
C258 C259 1.355 . S
C258 C260 1.415 . S
C259 C258 1.355 . S
C259 C261 1.419 . S
C260 C258 1.415 . S
C260 C265 1.425 . S
C260 C267 1.409 . S
C261 H253 0.930 . S
C261 C259 1.419 . S
C261 C262 1.362 . S
C262 H254 0.930 . S
C262 C261 1.362 . S
C262 C265 1.409 . S
C263 H255 0.930 . S
C263 C264 1.355 . S
C263 C265 1.415 . S
C264 C263 1.355 . S
C264 C266 1.419 . S
C265 C260 1.425 . S
C265 C262 1.409 . S
C265 C263 1.415 . S
C266 H256 0.930 . S
C266 C264 1.419 . S
C266 C267 1.362 . S
C267 H257 0.930 . S
C267 C260 1.409 . S
C267 C266 1.362 . S
H268 C274 0.930 . S
H269 C277 0.930 . S
H270 C278 0.930 . S
H271 C279 0.930 . S
H272 C282 0.930 . S
H273 C283 0.930 . S
C274 H268 0.930 . S
C274 C275 1.355 1_556 S
C274 C276 1.415 1_556 S
C275 C274 1.355 1_554 S
C275 C277 1.419 . S
C276 C274 1.415 1_554 S
C276 C281 1.425 1_455 S
C276 C283 1.409 1_454 S
C277 H269 0.930 . S
C277 C275 1.419 . S
C277 C278 1.362 . S
C278 H270 0.930 . S
C278 C277 1.362 . S
C278 C281 1.409 1_455 S
C279 H271 0.930 . S
C279 C280 1.355 . S
C279 C281 1.415 . S
C280 C279 1.355 . S
C280 C282 1.419 1_554 S
C281 C276 1.425 1_655 S
C281 C278 1.409 1_655 S
C281 C279 1.415 . S
C282 H272 0.930 . S
C282 C280 1.419 1_556 S
C282 C283 1.362 . S
C283 H273 0.930 . S
C283 C276 1.409 1_656 S
C283 C282 1.362 . S
H284 C290 0.930 1_556 S
H285 C293 0.930 . S
H286 C294 0.930 . S
H287 C295 0.930 . S
H288 C298 0.930 . S
H289 C299 0.930 . S
C290 H284 0.930 1_554 S
C290 C291 1.355 . S
C290 C292 1.415 . S
C291 C290 1.355 . S
C291 C293 1.419 . S
C292 C290 1.415 . S
C292 C297 1.425 1_565 S
C292 C299 1.409 1_564 S
C293 H285 0.930 . S
C293 C291 1.419 . S
C293 C294 1.362 . S
C294 H286 0.930 . S
C294 C293 1.362 . S
C294 C297 1.409 1_565 S
C295 H287 0.930 . S
C295 C296 1.355 . S
C295 C297 1.415 . S
C296 C295 1.355 . S
C296 C298 1.419 1_554 S
C297 C292 1.425 1_545 S
C297 C294 1.409 1_545 S
C297 C295 1.415 . S
C298 H288 0.930 . S
C298 C296 1.419 1_556 S
C298 C299 1.362 . S
C299 H289 0.930 . S
C299 C292 1.409 1_546 S
C299 C298 1.362 . S
H300 C306 0.930 . S
H301 C309 0.930 . S
H302 C310 0.930 . S
H303 C311 0.930 . S
H304 C314 0.930 . S
H305 C315 0.930 . S
C306 H300 0.930 . S
C306 C307 1.355 . S
C306 C308 1.415 . S
C307 C306 1.355 . S
C307 C309 1.419 1_554 S
C308 C306 1.415 . S
C308 C313 1.425 1_554 S
C308 C315 1.409 . S
C309 H301 0.930 . S
C309 C307 1.419 1_556 S
C309 C310 1.362 . S
C310 H302 0.930 . S
C310 C309 1.362 . S
C310 C313 1.409 . S
C311 H303 0.930 . S
C311 C312 1.355 1_556 S
C311 C313 1.415 . S
C312 C311 1.355 1_554 S
C312 C314 1.419 . S
C313 C308 1.425 1_556 S
C313 C310 1.409 . S
C313 C311 1.415 . S
C314 H304 0.930 . S
C314 C312 1.419 . S
C314 C315 1.362 . S
C315 H305 0.930 . S
C315 C308 1.409 . S
C315 C314 1.362 . S
H316 C322 0.930 . S
H317 C325 0.930 . S
H318 C326 0.930 . S
H319 C327 0.930 . S
H320 C330 0.930 . S
H321 C331 0.930 . S
C322 H316 0.930 . S
C322 C323 1.355 1_556 S
C322 C324 1.415 1_556 S
C323 C322 1.355 1_554 S
C323 C325 1.419 . S
C324 C322 1.415 1_554 S
C324 C329 1.425 . S
C324 C331 1.409 1_554 S
C325 H317 0.930 . S
C325 C323 1.419 . S
C325 C326 1.362 . S
C326 H318 0.930 . S
C326 C325 1.362 . S
C326 C329 1.409 . S
C327 H319 0.930 . S
C327 C328 1.355 . S
C327 C329 1.415 . S
C328 C327 1.355 . S
C328 C330 1.419 1_554 S
C329 C324 1.425 . S
C329 C326 1.409 . S
C329 C327 1.415 . S
C330 H320 0.930 . S
C330 C328 1.419 1_556 S
C330 C331 1.362 . S
C331 H321 0.930 . S
C331 C324 1.409 1_556 S
C331 C330 1.362 . S
H332 C338 0.930 . S
H333 C341 0.930 . S
H334 C342 0.930 . S
H335 C343 0.930 . S
H336 C346 0.930 . S
H337 C347 0.930 . S
C338 H332 0.930 . S
C338 C339 1.355 1_556 S
C338 C340 1.415 . S
C339 C338 1.355 1_554 S
C339 C341 1.419 . S
C340 C338 1.415 . S
C340 C345 1.425 1_556 S
C340 C347 1.409 . S
C341 H333 0.930 . S
C341 C339 1.419 . S
C341 C342 1.362 . S
C342 H334 0.930 . S
C342 C341 1.362 . S
C342 C345 1.409 . S
C343 H335 0.930 . S
C343 C344 1.355 . S
C343 C345 1.415 . S
C344 C343 1.355 . S
C344 C346 1.419 1_554 S
C345 C340 1.425 1_554 S
C345 C342 1.409 . S
C345 C343 1.415 . S
C346 H336 0.930 . S
C346 C344 1.419 1_556 S
C346 C347 1.362 . S
C347 H337 0.930 . S
C347 C340 1.409 . S
C347 C346 1.362 . S
H348 C354 0.930 . S
H349 C357 0.930 . S
H350 C358 0.930 . S
H351 C359 0.930 . S
H352 C362 0.930 . S
H353 C363 0.930 . S
C354 H348 0.930 . S
C354 C355 1.355 . S
C354 C356 1.415 . S
C355 C354 1.355 . S
C355 C357 1.419 . S
C356 C354 1.415 . S
C356 C361 1.425 . S
C356 C363 1.409 1_554 S
C357 H349 0.930 . S
C357 C355 1.419 . S
C357 C358 1.362 . S
C358 H350 0.930 . S
C358 C357 1.362 . S
C358 C361 1.409 . S
C359 H351 0.930 . S
C359 C360 1.355 . S
C359 C361 1.415 . S
C360 C359 1.355 . S
C360 C362 1.419 1_554 S
C361 C356 1.425 . S
C361 C358 1.409 . S
C361 C359 1.415 . S
C362 H352 0.930 . S
C362 C360 1.419 1_556 S
C362 C363 1.362 . S
C363 H353 0.930 . S
C363 C356 1.409 1_556 S
C363 C362 1.362 . S
H364 C370 0.930 . S
H365 C373 0.930 . S
H366 C374 0.930 . S
H367 C375 0.930 . S
H368 C378 0.930 . S
H369 C379 0.930 . S
C370 H364 0.930 . S
C370 C371 1.355 . S
C370 C372 1.415 . S
C371 C370 1.355 . S
C371 C373 1.419 1_554 S
C372 C370 1.415 . S
C372 C377 1.425 1_554 S
C372 C379 1.409 . S
C373 H365 0.930 . S
C373 C371 1.419 1_556 S
C373 C374 1.362 . S
C374 H366 0.930 . S
C374 C373 1.362 . S
C374 C377 1.409 . S
C375 H367 0.930 . S
C375 C376 1.355 1_556 S
C375 C377 1.415 . S
C376 C375 1.355 1_554 S
C376 C378 1.419 . S
C377 C372 1.425 1_556 S
C377 C374 1.409 . S
C377 C375 1.415 . S
C378 H368 0.930 . S
C378 C376 1.419 . S
C378 C379 1.362 . S
C379 H369 0.930 . S
C379 C372 1.409 . S
C379 C378 1.362 . S
H380 C386 0.930 . S
H381 C389 0.930 . S
H382 C390 0.930 . S
H383 C391 0.930 . S
H384 C394 0.930 . S
H385 C395 0.930 . S
C386 H380 0.930 . S
C386 C387 1.355 . S
C386 C388 1.415 . S
C387 C386 1.355 . S
C387 C389 1.419 . S
C388 C386 1.415 . S
C388 C393 1.425 . S
C388 C395 1.409 . S
C389 H381 0.930 . S
C389 C387 1.419 . S
C389 C390 1.362 . S
C390 H382 0.930 . S
C390 C389 1.362 . S
C390 C393 1.409 . S
C391 H383 0.930 . S
C391 C392 1.355 . S
C391 C393 1.415 . S
C392 C391 1.355 . S
C392 C394 1.419 . S
C393 C388 1.425 . S
C393 C390 1.409 . S
C393 C391 1.415 . S
C394 H384 0.930 . S
C394 C392 1.419 . S
C394 C395 1.362 . S
C395 H385 0.930 . S
C395 C388 1.409 . S
C395 C394 1.362 . S
H396 C402 0.930 . S
H397 C405 0.930 . S
H398 C406 0.930 . S
H399 C407 0.930 . S
H400 C410 0.930 . S
H401 C411 0.930 . S
C402 H396 0.930 . S
C402 C403 1.355 . S
C402 C404 1.415 . S
C403 C402 1.355 . S
C403 C405 1.419 . S
C404 C402 1.415 . S
C404 C409 1.425 . S
C404 C411 1.409 . S
C405 H397 0.930 . S
C405 C403 1.419 . S
C405 C406 1.362 . S
C406 H398 0.930 . S
C406 C405 1.362 . S
C406 C409 1.409 . S
C407 H399 0.930 . S
C407 C408 1.355 . S
C407 C409 1.415 . S
C408 C407 1.355 . S
C408 C410 1.419 . S
C409 C404 1.425 . S
C409 C406 1.409 . S
C409 C407 1.415 . S
C410 H400 0.930 . S
C410 C408 1.419 . S
C410 C411 1.362 . S
C411 H401 0.930 . S
C411 C404 1.409 . S
C411 C410 1.362 . S
H412 C418 0.930 . S
H413 C421 0.930 . S
H414 C422 0.930 . S
H415 C423 0.930 . S
H416 C426 0.930 . S
H417 C427 0.930 . S
C418 H412 0.930 . S
C418 C419 1.355 . S
C418 C420 1.415 . S
C419 C418 1.355 . S
C419 C421 1.419 . S
C420 C418 1.415 . S
C420 C425 1.425 . S
C420 C427 1.409 . S
C421 H413 0.930 . S
C421 C419 1.419 . S
C421 C422 1.362 . S
C422 H414 0.930 . S
C422 C421 1.362 . S
C422 C425 1.409 . S
C423 H415 0.930 . S
C423 C424 1.355 . S
C423 C425 1.415 . S
C424 C423 1.355 . S
C424 C426 1.419 . S
C425 C420 1.425 . S
C425 C422 1.409 . S
C425 C423 1.415 . S
C426 H416 0.930 . S
C426 C424 1.419 . S
C426 C427 1.362 . S
C427 H417 0.930 . S
C427 C420 1.409 . S
C427 C426 1.362 . S
H428 C434 0.930 . S
H429 C437 0.930 . S
H430 C438 0.930 . S
H431 C439 0.930 . S
H432 C442 0.930 . S
H433 C443 0.930 . S
C434 H428 0.930 . S
C434 C435 1.355 . S
C434 C436 1.415 . S
C435 C434 1.355 . S
C435 C437 1.419 . S
C436 C434 1.415 . S
C436 C441 1.425 . S
C436 C443 1.409 . S
C437 H429 0.930 . S
C437 C435 1.419 . S
C437 C438 1.362 . S
C438 H430 0.930 . S
C438 C437 1.362 . S
C438 C441 1.409 . S
C439 H431 0.930 . S
C439 C440 1.355 . S
C439 C441 1.415 . S
C440 C439 1.355 . S
C440 C442 1.419 . S
C441 C436 1.425 . S
C441 C438 1.409 . S
C441 C439 1.415 . S
C442 H432 0.930 . S
C442 C440 1.419 . S
C442 C443 1.362 . S
C443 H433 0.930 . S
C443 C436 1.409 . S
C443 C442 1.362 . S
H444 C450 0.930 . S
H445 C453 0.930 . S
H446 C454 0.930 . S
H447 C455 0.930 . S
H448 C458 0.930 . S
H449 C459 0.930 . S
C450 H444 0.930 . S
C450 C451 1.355 . S
C450 C452 1.415 . S
C451 C450 1.355 . S
C451 C453 1.419 . S
C452 C450 1.415 . S
C452 C457 1.425 . S
C452 C459 1.409 . S
C453 H445 0.930 . S
C453 C451 1.419 . S
C453 C454 1.362 . S
C454 H446 0.930 . S
C454 C453 1.362 . S
C454 C457 1.409 . S
C455 H447 0.930 . S
C455 C456 1.355 . S
C455 C457 1.415 . S
C456 C455 1.355 . S
C456 C458 1.419 . S
C457 C452 1.425 . S
C457 C454 1.409 . S
C457 C455 1.415 . S
C458 H448 0.930 . S
C458 C456 1.419 . S
C458 C459 1.362 . S
C459 H449 0.930 . S
C459 C452 1.409 . S
C459 C458 1.362 . S
H460 C466 0.930 . S
H461 C469 0.930 . S
H462 C470 0.930 . S
H463 C471 0.930 . S
H464 C474 0.930 . S
H465 C475 0.930 . S
C466 H460 0.930 . S
C466 C467 1.355 . S
C466 C468 1.415 . S
C467 C466 1.355 . S
C467 C469 1.419 . S
C468 C466 1.415 . S
C468 C473 1.425 . S
C468 C475 1.409 . S
C469 H461 0.930 . S
C469 C467 1.419 . S
C469 C470 1.362 . S
C470 H462 0.930 . S
C470 C469 1.362 . S
C470 C473 1.409 . S
C471 H463 0.930 . S
C471 C472 1.355 . S
C471 C473 1.415 . S
C472 C471 1.355 . S
C472 C474 1.419 . S
C473 C468 1.425 . S
C473 C470 1.409 . S
C473 C471 1.415 . S
C474 H464 0.930 . S
C474 C472 1.419 . S
C474 C475 1.362 . S
C475 H465 0.930 . S
C475 C468 1.409 . S
C475 C474 1.362 . S
H476 C482 0.930 . S
H477 C485 0.930 . S
H478 C486 0.930 . S
H479 C487 0.930 . S
H480 C490 0.930 . S
H481 C491 0.930 . S
C482 H476 0.930 . S
C482 C483 1.355 . S
C482 C484 1.415 . S
C483 C482 1.355 . S
C483 C485 1.419 . S
C484 C482 1.415 . S
C484 C489 1.425 . S
C484 C491 1.409 . S
C485 H477 0.930 . S
C485 C483 1.419 . S
C485 C486 1.362 . S
C486 H478 0.930 . S
C486 C485 1.362 . S
C486 C489 1.409 . S
C487 H479 0.930 . S
C487 C488 1.355 . S
C487 C489 1.415 . S
C488 C487 1.355 . S
C488 C490 1.419 . S
C489 C484 1.425 . S
C489 C486 1.409 . S
C489 C487 1.415 . S
C490 H480 0.930 . S
C490 C488 1.419 . S
C490 C491 1.362 . S
C491 H481 0.930 . S
C491 C484 1.409 . S
C491 C490 1.362 . S
C211 C170 1.397 . S
C216 C8 1.437 . S
C227 C0 1.402 . S
C232 C34 1.433 . S
C243 C42 1.423 . S
C248 C76 1.389 . S
C259 C102 1.397 . S
C264 C68 1.438 . S
C275 C165 1.417 . S
C280 C110 1.411 . S
C291 C153 1.428 . S
C296 C178 1.389 . S
C307 C144 1.483 . S
C312 C17 1.498 . S
C323 C199 1.471 . S
C328 C63 1.479 . S
C339 C85 1.484 . S
C344 C29 1.478 . S
C355 C131 1.492 . S
C360 C51 1.484 . S
C371 C136 1.486 . S
C376 C97 1.472 . S
C387 C119 1.498 . S
C392 C187 1.485 . S
C403 C13 1.504 . S
C408 C4 1.504 . S
C419 C38 1.505 . S
C424 C47 1.505 . S
C435 C81 1.511 . S
C440 C72 1.511 . S
C451 C106 1.506 . S
C456 C115 1.506 . S
C467 C149 1.490 . S
C472 C140 1.490 . S
C483 C183 1.501 . S
C488 C174 1.501 . S
