# Generated by pormake.
# Topology wfv, (7)-cn, num edge types: 1
# Building blocks:
#     Node 0, Type 0, BuildingBlock: NUHQUE_clean_sbu_2, # of connection points: 7
#     Node 1, Type 0, BuildingBlock: NUHQUE_clean_sbu_2, # of connection points: 7
#     Node 2, Type 0, BuildingBlock: NUHQUE_clean_sbu_2, # of connection points: 7
#     Node 3, Type 0, BuildingBlock: NUHQUE_clean_sbu_2, # of connection points: 7
#     Node 4, Type 0, BuildingBlock: NUHQUE_clean_sbu_2, # of connection points: 7
#     Node 5, Type 0, BuildingBlock: NUHQUE_clean_sbu_2, # of connection points: 7
#     Node 6, Type 0, BuildingBlock: NUHQUE_clean_sbu_2, # of connection points: 7
#     Node 7, Type 0, BuildingBlock: NUHQUE_clean_sbu_2, # of connection points: 7
#     Node 8, Type 0, BuildingBlock: NUHQUE_clean_sbu_2, # of connection points: 7
#     Node 9, Type 0, BuildingBlock: NUHQUE_clean_sbu_2, # of connection points: 7
#     Node 10, Type 0, BuildingBlock: NUHQUE_clean_sbu_2, # of connection points: 7
#     Node 11, Type 0, BuildingBlock: NUHQUE_clean_sbu_2, # of connection points: 7
#     Node 12, Type 0, BuildingBlock: NUHQUE_clean_sbu_2, # of connection points: 7
#     Node 13, Type 0, BuildingBlock: NUHQUE_clean_sbu_2, # of connection points: 7
#     Node 14, Type 0, BuildingBlock: NUHQUE_clean_sbu_2, # of connection points: 7
#     Node 15, Type 0, BuildingBlock: NUHQUE_clean_sbu_2, # of connection points: 7
#     Edge 16, Type (0, 0), None
#     Edge 17, Type (0, 0), None
#     Edge 18, Type (0, 0), None
#     Edge 19, Type (0, 0), None
#     Edge 20, Type (0, 0), None
#     Edge 21, Type (0, 0), None
#     Edge 22, Type (0, 0), None
#     Edge 23, Type (0, 0), None
#     Edge 24, Type (0, 0), None
#     Edge 25, Type (0, 0), None
#     Edge 26, Type (0, 0), None
#     Edge 27, Type (0, 0), None
#     Edge 28, Type (0, 0), None
#     Edge 29, Type (0, 0), None
#     Edge 30, Type (0, 0), None
#     Edge 31, Type (0, 0), None
#     Edge 32, Type (0, 0), None
#     Edge 33, Type (0, 0), None
#     Edge 34, Type (0, 0), None
#     Edge 35, Type (0, 0), None
#     Edge 36, Type (0, 0), None
#     Edge 37, Type (0, 0), None
#     Edge 38, Type (0, 0), None
#     Edge 39, Type (0, 0), None
#     Edge 40, Type (0, 0), None
#     Edge 41, Type (0, 0), None
#     Edge 42, Type (0, 0), None
#     Edge 43, Type (0, 0), None
#     Edge 44, Type (0, 0), None
#     Edge 45, Type (0, 0), None
#     Edge 46, Type (0, 0), None
#     Edge 47, Type (0, 0), None
#     Edge 48, Type (0, 0), None
#     Edge 49, Type (0, 0), None
#     Edge 50, Type (0, 0), None
#     Edge 51, Type (0, 0), None
#     Edge 52, Type (0, 0), None
#     Edge 53, Type (0, 0), None
#     Edge 54, Type (0, 0), None
#     Edge 55, Type (0, 0), None
#     Edge 56, Type (0, 0), None
#     Edge 57, Type (0, 0), None
#     Edge 58, Type (0, 0), None
#     Edge 59, Type (0, 0), None
#     Edge 60, Type (0, 0), None
#     Edge 61, Type (0, 0), None
#     Edge 62, Type (0, 0), None
#     Edge 63, Type (0, 0), None
#     Edge 64, Type (0, 0), None
#     Edge 65, Type (0, 0), None
#     Edge 66, Type (0, 0), None
#     Edge 67, Type (0, 0), None
#     Edge 68, Type (0, 0), None
#     Edge 69, Type (0, 0), None
#     Edge 70, Type (0, 0), None
#     Edge 71, Type (0, 0), None
# Relax obj value: 0.187
# Max RMSD: 0.272
# Mean RMSD: 0.272
data_MOF--net-wfv--node1-NUHQUE_clean_sbu_2--edge1-none
_symmetry_space_group_name_H-M    P1
_symmetry_Int_Tables_number       1
_symmetry_cell_setting            triclinic
loop_
_symmetry_equiv_pos_as_xyz
'x, y, z'
_cell_length_a     26.656036
_cell_length_b     26.654974
_cell_length_c     18.643151
_cell_angle_alpha  90.617771
_cell_angle_beta   89.379791
_cell_angle_gamma 89.853161
loop_
_atom_site_label
_atom_site_type_symbol
_atom_site_fract_x
_atom_site_fract_y
_atom_site_fract_z
_atom_type_partial_charge
O0 O 0.661 0.17694 0.08705 0.0
Tb1 Tb 0.72872 0.16611 0.14868 0.0
Eu2 Eu 0.74326 0.00476 0.0861 0.0
C3 C 0.66608 0.21145 0.03752 0.0
O4 O 0.7094 0.23387 0.0307 0.0
C5 C 0.78204 0.09932 0.02263 0.0
O6 O 0.81339 0.95967 0.0998 0.0
C7 C 0.66536 0.96058 0.0314 0.0
C8 C 0.85389 0.9853 0.11579 0.0
O9 O 0.84876 0.03277 0.13422 0.0
C10 C 0.74811 0.07336 0.2321 0.0
C11 C 0.61008 0.95338 0.04126 0.0
C12 C 0.57409 0.99017 0.02224 0.0
C13 C 0.52133 0.97992 0.0242 0.0
C14 C 0.50668 0.9328 0.04977 0.0
C15 C 0.54193 0.89707 0.07111 0.0
C16 C 0.59312 0.90671 0.06506 0.0
O17 O 0.75042 0.10667 0.07563 0.0
O18 O 0.78649 0.05205 1.00495 0.0
O19 O 0.71792 0.24336 0.18068 0.0
O20 O 0.7892 0.21947 0.13605 0.0
C21 C 0.76302 0.25709 0.16248 0.0
O22 O 0.71995 0.05502 0.18017 0.0
O23 O 0.74614 0.12202 0.24272 0.0
O24 O 0.69526 0.93907 0.07802 0.0
O25 O 0.68176 0.0045 0.00973 0.0
H26 H 0.58807 0.02625 1.00584 0.0
H27 H 0.46771 0.92204 0.05084 0.0
H28 H 0.61975 0.87769 0.07911 0.0
O29 O 0.33217 0.65343 0.13196 0.0
Tb30 Tb 0.35383 0.73019 0.15623 0.0
Eu31 Eu 0.48378 0.74534 0.07775 0.0
C32 C 0.29272 0.65194 0.08973 0.0
O33 O 0.27421 0.69439 0.06691 0.0
C34 C 0.38518 0.77683 0.01606 0.0
O35 O 0.53913 0.80703 0.06525 0.0
C36 C 0.50262 0.66128 0.0104 0.0
C37 C 0.52377 0.84869 0.0964 0.0
O38 O 0.48264 0.84755 0.13581 0.0
C39 C 0.45235 0.76199 0.24617 0.0
C40 C 0.5239 0.61032 0.01985 0.0
C41 C 0.49442 0.56724 1.00564 0.0
C42 C 0.51382 0.5182 0.01576 0.0
C43 C 0.56312 0.51416 0.04119 0.0
C44 C 0.59354 0.55642 0.05063 0.0
C45 C 0.57411 0.60428 0.04017 0.0
O46 O 0.37761 0.73377 0.04619 0.0
O47 O 0.43019 0.79474 0.01837 0.0
O48 O 0.28058 0.725 0.20664 0.0
O49 O 0.29921 0.79083 0.14805 0.0
C50 C 0.26483 0.76859 0.18646 0.0
O51 O 0.48522 0.74287 0.1995 0.0
O52 O 0.40331 0.76108 0.23781 0.0
O53 O 0.53401 0.69946 0.01236 0.0
O54 O 0.45924 0.67102 0.04219 0.0
H55 H 0.45681 0.57247 0.98576 0.0
H56 H 0.57882 0.47789 0.05378 0.0
H57 H 0.5979 0.63658 0.04942 0.0
O58 O 0.87772 0.35569 0.03811 0.0
Tb59 Tb 0.81159 0.38886 0.08943 0.0
Eu60 Eu 0.74986 0.50789 0.04641 0.0
C61 C 0.86873 0.31198 1.00683 0.0
O62 O 0.82247 0.29539 1.00638 0.0
C63 C 0.73324 0.40442 0.96919 0.0
O64 O 0.68269 0.5568 0.02826 0.0
C65 C 0.83805 0.53003 0.99394 0.0
C66 C 0.64531 0.54881 0.0734 0.0
O67 O 0.65279 0.51885 0.12764 0.0
C68 C 0.77771 0.47011 0.20009 0.0
C69 C 0.89 0.54265 0.01644 0.0
C70 C 0.93034 0.50929 1.00112 0.0
C71 C 0.98096 0.52094 0.01951 0.0
C72 C 0.9884 0.56712 0.05575 0.0
C73 C 0.94845 0.60028 0.07134 0.0
C74 C 0.8998 0.5883 0.05088 0.0
O75 O 0.78118 0.39954 0.98261 0.0
O76 O 0.70908 0.4448 0.99031 0.0
O77 O 0.82411 0.3223 0.1522 0.0
O78 O 0.74933 0.34144 0.12173 0.0
C79 C 0.77749 0.30874 0.15403 0.0
O80 O 0.74621 0.49797 0.16521 0.0
O81 O 0.8173 0.45047 0.16678 0.0
O82 O 0.80209 0.56362 1.00452 0.0
O83 O 0.82329 0.48409 1.00658 0.0
H84 H 0.92087 0.4746 0.97459 0.0
H85 H 0.02544 0.57924 0.07066 0.0
H86 H 0.86963 0.6146 0.06249 0.0
O87 O 0.15313 0.87729 0.07301 0.0
Tb88 Tb 0.12645 0.81428 0.1356 0.0
Eu89 Eu 0.98416 0.75915 0.10527 0.0
C90 C 0.19027 0.86659 0.02803 0.0
O91 O 0.20438 0.81974 0.02106 0.0
C92 C 0.0903 0.73019 0.03641 0.0
O93 O 0.93973 0.69038 0.07963 0.0
C94 C 0.96313 0.84185 0.03898 0.0
C95 C 0.95873 0.64889 0.10576 0.0
O96 O 0.99561 0.65236 0.15177 0.0
C97 C 0.04116 0.78126 0.24314 0.0
C98 C 0.95534 0.89677 0.05008 0.0
C99 C 0.98974 0.93149 0.0207 0.0
C100 C 0.98285 0.98437 0.0284 0.0
C101 C 0.93964 1.00046 0.0668 0.0
C102 C 0.90336 0.96637 0.09159 0.0
C103 C 0.91176 0.91483 0.08415 0.0
O104 O 0.0984 0.77854 0.03964 0.0
O105 O 0.04649 0.71217 0.05484 0.0
O106 O 0.19635 0.82817 0.19086 0.0
O107 O 0.17867 0.75357 0.15544 0.0
C108 C 0.2123 0.78218 0.18535 0.0
O109 O 0.99756 0.76332 0.22437 0.0
O110 O 0.05946 0.8178 0.20315 0.0
O111 O 0.92854 0.81083 0.06367 0.0
O112 O 0.00914 0.82479 0.04627 0.0
H113 H 0.02093 0.91597 0.9906 0.0
H114 H 0.93211 0.0397 0.07551 0.0
H115 H 0.88354 0.88888 0.10343 0.0
O116 O 0.65357 0.33254 0.38601 0.0
Tb117 Tb 0.73032 0.35428 0.36182 0.0
Eu118 Eu 0.74564 0.48415 0.44005 0.0
C119 C 0.65205 0.29309 0.42825 0.0
O120 O 0.69448 0.27461 0.45119 0.0
C121 C 0.77698 0.38557 0.50198 0.0
O122 O 0.80727 0.53954 0.45268 0.0
C123 C 0.66156 0.503 0.50734 0.0
C124 C 0.84899 0.52423 0.42163 0.0
O125 O 0.8479 0.48313 0.38214 0.0
C126 C 0.76206 0.45272 0.27158 0.0
C127 C 0.61065 0.52436 0.49785 0.0
C128 C 0.56753 0.49493 0.51201 0.0
C129 C 0.51852 0.51439 0.5018 0.0
C130 C 0.51455 0.56372 0.47643 0.0
C131 C 0.55686 0.59407 0.46703 0.0
C132 C 0.6047 0.57457 0.47751 0.0
O133 O 0.73392 0.378 0.47188 0.0
O134 O 0.79501 0.43053 0.49941 0.0
O135 O 0.72518 0.28096 0.31161 0.0
O136 O 0.79104 0.29973 0.36999 0.0
C137 C 0.7688 0.26528 0.33173 0.0
O138 O 0.74321 0.48569 0.31832 0.0
O139 O 0.76099 0.40368 0.27996 0.0
O140 O 0.69978 0.53434 0.50553 0.0
O141 O 0.67127 0.45965 0.47544 0.0
H142 H 0.57272 0.45732 0.53189 0.0
H143 H 0.47833 0.57947 0.46379 0.0
H144 H 0.63704 0.59831 0.46826 0.0
O145 O 0.17673 0.66133 0.43126 0.0
Tb146 Tb 0.16596 0.72907 0.36968 0.0
Eu147 Eu 0.0048 0.74364 0.43276 0.0
C148 C 0.21107 0.66649 0.48099 0.0
O149 O 0.23332 0.70989 0.48799 0.0
C150 C 0.09939 0.78256 0.49587 0.0
O151 O 0.95986 0.81384 0.41898 0.0
C152 C 0.96061 0.6658 0.48761 0.0
C153 C 0.98557 0.8543 0.40304 0.0
O154 O 0.03303 0.8491 0.3846 0.0
C155 C 0.07315 0.74822 0.28652 0.0
C156 C 0.95345 0.61052 0.47762 0.0
C157 C 0.9902 0.57453 0.49676 0.0
C158 C 0.98003 0.52174 0.49452 0.0
C159 C 0.933 0.50711 0.46856 0.0
C160 C 0.8973 0.54237 0.44717 0.0
C161 C 0.90687 0.59355 0.45349 0.0
O162 O 0.1067 0.75085 0.44298 0.0
O163 O 0.05214 0.78696 0.51372 0.0
O164 O 0.24322 0.71818 0.33785 0.0
O165 O 0.21931 0.78958 0.38204 0.0
C166 C 0.25695 0.76332 0.35582 0.0
O167 O 0.05498 0.72018 0.3387 0.0
O168 O 0.12177 0.74628 0.27569 0.0
O169 O 0.93907 0.69572 0.44105 0.0
O170 O 0.00453 0.68219 0.50922 0.0
H171 H 0.02619 0.58854 0.51343 0.0
H172 H 0.92227 0.46813 0.4672 0.0
H173 H 0.87786 0.62018 0.43937 0.0
O174 O 0.87747 0.15356 0.44543 0.0
Tb175 Tb 0.81447 0.12692 0.38277 0.0
Eu176 Eu 0.75944 0.98453 0.4138 0.0
C177 C 0.86673 0.19067 0.49045 0.0
O178 O 0.81989 0.2048 0.49735 0.0
C179 C 0.73047 0.09078 0.48211 0.0
O180 O 0.69069 0.94019 0.43991 0.0
C181 C 0.84225 0.96364 0.47987 0.0
C182 C 0.64922 0.95925 0.41385 0.0
O183 O 0.65272 0.99608 0.36777 0.0
C184 C 0.78118 0.04149 0.27565 0.0
C185 C 0.89716 0.95585 0.46868 0.0
C186 C 0.93189 0.99023 0.49804 0.0
C187 C 0.98478 0.9833 0.49041 0.0
C188 C 1.00084 0.94003 0.45212 0.0
C189 C 0.96672 0.9038 0.42724 0.0
C190 C 0.91519 0.91226 0.4346 0.0
O191 O 0.77881 0.09888 0.47878 0.0
O192 O 0.7125 0.04685 0.46423 0.0
O193 O 0.82841 0.19681 0.32751 0.0
O194 O 0.75378 0.17913 0.36285 0.0
C195 C 0.78242 0.21276 0.33296 0.0
O196 O 0.76331 0.9979 0.29465 0.0
O197 O 0.81788 0.0599 0.31526 0.0
O198 O 0.81122 0.929 0.45535 0.0
O199 O 0.82516 0.00964 0.4725 0.0
H200 H 0.91636 0.02145 0.52808 0.0
H201 H 0.04008 0.9324 0.44357 0.0
H202 H 0.88922 0.88408 0.41529 0.0
O203 O 0.35582 0.87816 0.47985 0.0
Tb204 Tb 0.3888 0.8119 0.42856 0.0
Eu205 Eu 0.50757 0.75016 0.47127 0.0
C206 C 0.31214 0.86927 0.51131 0.0
O207 O 0.29548 0.82304 0.51186 0.0
C208 C 0.40427 0.73356 0.54888 0.0
O209 O 0.55674 0.68318 0.48957 0.0
C210 C 0.5294 0.8385 0.52352 0.0
C211 C 0.54936 0.64584 0.44414 0.0
O212 O 0.51987 0.65323 0.38937 0.0
C213 C 0.4698 0.77777 0.31757 0.0
C214 C 0.54226 0.89047 0.50137 0.0
C215 C 0.50884 0.93083 0.51632 0.0
C216 C 0.52098 0.98152 0.49907 0.0
C217 C 0.56757 0.98904 0.46402 0.0
C218 C 0.60056 0.94901 0.44813 0.0
C219 C 0.58823 0.90028 0.46781 0.0
O220 O 0.39939 0.7815 0.53543 0.0
O221 O 0.44455 0.70936 0.52752 0.0
O222 O 0.32213 0.82444 0.36603 0.0
O223 O 0.34132 0.74965 0.39644 0.0
C224 C 0.30858 0.77782 0.36423 0.0
O225 O 0.49764 0.7463 0.35252 0.0
O226 O 0.45018 0.81743 0.35077 0.0
O227 O 0.56303 0.80251 0.51358 0.0
O228 O 0.48355 0.82378 0.51013 0.0
H229 H 0.47368 0.92137 0.54157 0.0
H230 H 0.58011 0.02619 0.45032 0.0
H231 H 0.61447 0.87006 0.45622 0.0
O232 O 0.34917 0.83016 0.92466 0.0
Tb233 Tb 0.27811 0.8403 0.87208 0.0
Eu234 Eu 0.26044 1.00114 0.93602 0.0
C235 C 0.34361 0.80149 0.98092 0.0
O236 O 0.29825 0.78651 0.99743 0.0
C237 C 0.2214 0.90597 0.99605 0.0
O238 O 0.19053 0.04744 0.9265 0.0
C239 C 0.33826 0.04114 0.99724 0.0
C240 C 0.14959 0.02229 0.91131 0.0
O241 O 0.15412 0.9753 0.89014 0.0
C242 C 0.25722 0.93159 0.78921 0.0
C243 C 0.3936 0.04642 0.9856 0.0
C244 C 0.42906 0.01132 0.01174 0.0
C245 C 0.48176 0.01665 0.99779 0.0
C246 C 0.49661 0.05795 0.95671 0.0
C247 C 0.46229 0.0948 0.93627 0.0
C248 C 0.41135 0.08918 0.95075 0.0
O249 O 0.25773 0.89805 0.94939 0.0
O250 O 0.21524 0.95316 0.01266 0.0
O251 O 0.28939 0.76199 0.84519 0.0
O252 O 0.21769 0.78705 0.88615 0.0
C253 C 0.24421 0.7487 0.86324 0.0
O254 O 0.28437 0.95084 0.84176 0.0
O255 O 0.26091 0.8832 0.77787 0.0
O256 O 0.30885 0.06543 0.95274 0.0
O257 O 0.32075 0.99666 0.01433 0.0
H258 H 0.41481 0.98082 0.04352 0.0
H259 H 0.5354 0.06314 0.94175 0.0
H260 H 0.38555 0.11833 0.93439 0.0
O261 O 0.6682 0.36312 0.89602 0.0
Tb262 Tb 0.64542 0.28924 0.85641 0.0
Eu263 Eu 0.52624 0.24278 0.92148 0.0
C264 C 0.70746 0.36088 0.9385 0.0
O265 O 0.7266 0.31672 0.95183 0.0
C266 C 0.62514 0.22877 0.99289 0.0
O267 O 0.46776 0.18433 0.9345 0.0
C268 C 0.50784 0.33185 0.97273 0.0
C269 C 0.48145 0.14124 0.90575 0.0
O270 O 0.52288 0.13957 0.86696 0.0
C271 C 0.55568 0.25164 0.75264 0.0
C272 C 0.48081 0.38036 0.9737 0.0
C273 C 0.50815 0.4248 0.98473 0.0
C274 C 0.48391 0.47118 1.00015 0.0
C275 C 0.43103 0.47153 1.00172 0.0
C276 C 0.40349 0.42778 0.98612 0.0
C277 C 0.42837 0.38244 0.97215 0.0
O278 O 0.62631 0.27433 0.96766 0.0
O279 O 0.58581 0.20185 0.98037 0.0
O280 O 0.72101 0.29427 0.81135 0.0
O281 O 0.69587 0.22418 0.85142 0.0
C282 C 0.73367 0.24801 0.82274 0.0
O283 O 0.52732 0.23179 0.80262 0.0
O284 O 0.5937 0.28279 0.76483 0.0
O285 O 0.48327 0.29143 0.99284 0.0
O286 O 0.54252 0.32332 0.92318 0.0
H287 H 0.54862 0.4223 0.98195 0.0
H288 H 0.41075 0.50584 0.01401 0.0
H289 H 0.40684 0.34872 0.96181 0.0
O290 O 0.12425 0.65198 0.98555 0.0
Tb291 Tb 0.19298 0.6194 0.94214 0.0
Eu292 Eu 0.25738 0.50119 0.99442 0.0
C293 C 0.13122 0.69715 0.01308 0.0
O294 O 0.17697 0.71498 0.01466 0.0
C295 C 0.26751 0.60593 0.06757 0.0
O296 O 0.32295 0.45526 0.02863 0.0
C297 C 0.16751 0.47297 0.03397 0.0
C298 C 0.34884 0.43098 0.97912 0.0
O299 O 0.32927 0.42427 0.91543 0.0
C300 C 0.23848 0.54284 0.83957 0.0
C301 C 0.1158 0.46249 1.00743 0.0
C302 C 0.07554 0.49588 0.02342 0.0
C303 C 0.02534 0.48595 1.00106 0.0
C304 C 0.01807 0.44121 0.9612 0.0
C305 C 0.05723 0.40676 0.94785 0.0
C306 C 0.10566 0.41738 0.97118 0.0
O307 O 0.21991 0.60825 0.05064 0.0
O308 O 0.29294 0.56494 0.05459 0.0
O309 O 0.18328 0.6833 0.87289 0.0
O310 O 0.25608 0.66697 0.91395 0.0
C311 C 0.22968 0.69749 0.87515 0.0
O312 O 0.2709 0.51841 0.87811 0.0
O313 O 0.1949 0.55646 0.86765 0.0
O314 O 0.20393 0.44133 0.01639 0.0
O315 O 0.1823 0.5199 0.03472 0.0
H316 H 0.08445 0.52887 0.05447 0.0
H317 H 0.98157 0.43117 0.94152 0.0
H318 H 0.13532 0.39028 0.96091 0.0
O319 O 0.84498 0.13049 0.93784 0.0
Tb320 Tb 0.87103 0.19531 0.87773 0.0
Eu321 Eu 0.01605 0.24819 0.91463 0.0
C322 C 0.8096 0.13966 0.98621 0.0
O323 O 0.79564 0.18623 0.99725 0.0
C324 C 0.90818 0.27853 0.97896 0.0
O325 O 0.06231 0.31608 0.94091 0.0
C326 C 0.0359 0.16497 0.98021 0.0
C327 C 0.04578 0.35818 0.91335 0.0
O328 O 0.00946 0.35581 0.86632 0.0
C329 C 0.96155 0.22492 0.77509 0.0
C330 C 0.04476 0.11006 0.9698 0.0
C331 C 0.0095 0.07506 0.99621 0.0
C332 C 0.01927 0.02242 0.99573 0.0
C333 C 0.06536 0.00667 0.96483 0.0
C334 C 0.1003 0.04094 0.93682 0.0
C335 C 0.09014 0.09238 0.94022 0.0
O336 O 0.8987 0.23035 0.97478 0.0
O337 O 0.95317 0.29544 0.96377 0.0
O338 O 0.80031 0.18486 0.82151 0.0
O339 O 0.8206 0.25815 0.85818 0.0
C340 C 0.78582 0.23137 0.82739 0.0
O341 O 0.00495 0.24264 0.79522 0.0
O342 O 0.94111 0.19008 0.81617 0.0
O343 O 0.07085 0.1964 0.9579 0.0
O344 O 0.98994 0.18181 0.97113 0.0
H345 H 0.975 0.09026 0.0179 0.0
H346 H 0.07622 0.96777 0.96497 0.0
H347 H 0.1181 0.11856 0.92085 0.0
O348 O 0.36293 0.66863 0.62223 0.0
Tb349 Tb 0.28899 0.64602 0.6618 0.0
Eu350 Eu 0.24315 0.52651 0.59621 0.0
C351 C 0.36072 0.7078 0.57958 0.0
O352 O 0.31657 0.72692 0.56612 0.0
C353 C 0.22853 0.62553 0.52547 0.0
O354 O 0.18467 0.46807 0.58319 0.0
C355 C 0.33209 0.50834 0.5444 0.0
C356 C 0.14165 0.48177 0.61216 0.0
O357 O 0.14013 0.52318 0.65101 0.0
C358 C 0.25151 0.5559 0.76531 0.0
C359 C 0.38062 0.48135 0.54352 0.0
C360 C 0.42506 0.50871 0.53249 0.0
C361 C 0.47148 0.48447 0.51729 0.0
C362 C 0.47184 0.43159 0.51584 0.0
C363 C 0.42809 0.40405 0.53144 0.0
C364 C 0.38273 0.42892 0.54525 0.0
O365 O 0.27409 0.62679 0.55063 0.0
O366 O 0.20185 0.58598 0.53762 0.0
O367 O 0.29416 0.72164 0.70672 0.0
O368 O 0.22406 0.69663 0.66653 0.0
C369 C 0.24794 0.73438 0.69524 0.0
O370 O 0.2325 0.52708 0.71515 0.0
O371 O 0.28197 0.59453 0.75354 0.0
O372 O 0.29168 0.48362 0.52462 0.0
O373 O 0.3236 0.54309 0.59384 0.0
H374 H 0.42253 0.54918 0.53516 0.0
H375 H 0.50616 0.4113 0.50368 0.0
H376 H 0.34902 0.40738 0.55561 0.0
O377 O 0.83021 0.3496 0.59354 0.0
Tb378 Tb 0.84023 0.27858 0.64631 0.0
Eu379 Eu 1.00116 0.26075 0.58295 0.0
C380 C 0.8016 0.34401 0.53722 0.0
O381 O 0.78661 0.29865 0.52075 0.0
C382 C 0.90609 0.22174 0.52263 0.0
O383 O 0.04762 0.19095 0.59256 0.0
C384 C 0.04116 0.3386 0.52172 0.0
C385 C 0.02256 0.14996 0.60777 0.0
O386 O 0.97556 0.15441 0.62892 0.0
C387 C 0.93132 0.25753 0.72952 0.0
C388 C 0.04647 0.39395 0.5332 0.0
C389 C 0.01131 0.42941 0.50722 0.0
C390 C 0.01677 0.48213 0.52091 0.0
C391 C 0.05825 0.49698 0.56164 0.0
C392 C 0.09511 0.46264 0.58194 0.0
C393 C 0.08938 0.41169 0.56766 0.0
O394 O 0.89811 0.25807 0.56926 0.0
O395 O 0.95331 0.21552 0.50621 0.0
O396 O 0.76189 0.28992 0.67304 0.0
O397 O 0.78694 0.21821 0.63207 0.0
C398 C 0.74859 0.24476 0.65492 0.0
O399 O 0.95072 0.28467 0.67706 0.0
O400 O 0.88291 0.26132 0.74069 0.0
O401 O 0.06542 0.30923 0.5663 0.0
O402 O 0.99669 0.32106 0.50462 0.0
H403 H 0.98068 0.41511 0.47578 0.0
H404 H 0.06359 0.53578 0.57642 0.0
H405 H 0.11856 0.38588 0.58388 0.0
O406 O 0.13057 0.84571 0.58035 0.0
Tb407 Tb 0.1954 0.87178 0.64037 0.0
Eu408 Eu 0.24859 0.01656 0.60412 0.0
C409 C 0.13973 0.8103 0.53201 0.0
O410 O 0.18631 0.79645 0.52084 0.0
C411 C 0.27877 0.90878 0.53923 0.0
O412 O 0.31649 0.0629 0.57821 0.0
C413 C 0.16539 0.03651 0.53853 0.0
C414 C 0.35859 0.04645 0.60591 0.0
O415 O 0.35619 0.01009 0.65288 0.0
C416 C 0.22492 0.96202 0.74346 0.0
C417 C 0.11046 0.04531 0.54895 0.0
C418 C 0.07549 0.01004 0.52244 0.0
C419 C 0.02283 0.01973 0.52308 0.0
C420 C 0.00705 0.06575 0.55415 0.0
C421 C 0.04129 0.10071 0.58217 0.0
C422 C 0.09274 0.09062 0.57868 0.0
O423 O 0.23057 0.89939 0.54335 0.0
O424 O 0.2958 0.95366 0.55489 0.0
O425 O 0.18486 0.80105 0.69649 0.0
O426 O 0.2582 0.82132 0.65998 0.0
C427 C 0.23137 0.78654 0.69067 0.0
O428 O 0.24294 0.00532 0.72349 0.0
O429 O 0.19012 0.94174 0.70218 0.0
O430 O 0.19679 0.07143 0.56103 0.0
O431 O 0.18225 0.99055 0.54744 0.0
H432 H 0.09073 0.97563 0.50054 0.0
H433 H 0.96814 0.07656 0.55415 0.0
H434 H 0.11889 0.1186 0.59809 0.0
O435 O 0.65218 0.12472 0.53262 0.0
Tb436 Tb 0.61942 0.1934 0.57582 0.0
Eu437 Eu 0.50127 0.25779 0.52333 0.0
C438 C 0.69739 0.13171 0.50527 0.0
O439 O 0.71519 0.17747 0.50364 0.0
C440 C 0.60602 0.26787 0.45029 0.0
O441 O 0.45544 0.32343 0.48908 0.0
C442 C 0.47288 0.16797 0.48379 0.0
C443 C 0.4313 0.34942 0.53862 0.0
O444 O 0.42471 0.32995 0.6024 0.0
C445 C 0.5428 0.23877 0.67827 0.0
C446 C 0.46246 0.11629 0.51055 0.0
C447 C 0.49571 0.07597 0.49426 0.0
C448 C 0.48607 0.02593 0.51752 0.0
C449 C 0.44174 0.01882 0.55835 0.0
C450 C 0.40717 0.05791 0.57137 0.0
C451 C 0.41757 0.10625 0.54741 0.0
O452 O 0.60831 0.22027 0.46728 0.0
O453 O 0.56502 0.2933 0.46314 0.0
O454 O 0.68321 0.18383 0.64529 0.0
O455 O 0.66691 0.25657 0.60404 0.0
C456 C 0.69739 0.23023 0.64298 0.0
O457 O 0.51856 0.27129 0.63965 0.0
O458 O 0.5564 0.1952 0.65015 0.0
O459 O 0.44131 0.20441 0.50156 0.0
O460 O 0.51981 0.18273 0.48276 0.0
H461 H 0.5283 0.08464 0.4622 0.0
H462 H 0.43218 0.98245 0.57907 0.0
H463 H 0.39046 0.1359 0.55765 0.0
loop_
_geom_bond_atom_site_label_1
_geom_bond_atom_site_label_2
_geom_bond_distance
_geom_bond_site_symmetry_2
_ccdc_geom_bond_type
O0 Tb1 2.292 . S
O0 C3 1.255 . S
Tb1 O0 2.292 . S
Tb1 O17 2.326 . S
Tb1 O19 2.500 . S
Tb1 O20 2.473 . S
Tb1 O23 2.324 . S
Eu2 O6 2.292 1_545 S
Eu2 C7 2.852 1_545 S
Eu2 O18 2.324 . S
Eu2 O22 2.326 . S
Eu2 O24 2.500 1_545 S
Eu2 O25 2.473 . S
C3 O0 1.255 . S
C3 O4 1.247 . S
O4 C3 1.247 . S
C5 O17 1.242 . S
C5 O18 1.258 . S
O6 Eu2 2.292 1_565 S
O6 C8 1.255 . S
C7 Eu2 2.852 1_565 S
C7 C11 1.503 . S
C7 O24 1.273 . S
C7 O25 1.257 1_565 S
C8 O6 1.255 . S
C8 O9 1.247 1_565 S
O9 C8 1.247 1_545 S
C10 O22 1.242 . S
C10 O23 1.258 . S
C11 C7 1.503 . S
C11 C12 1.379 . S
C11 C16 1.392 . S
C12 C11 1.379 . S
C12 C13 1.404 . S
C12 H26 0.929 1_565 S
C13 C12 1.404 . S
C13 C14 1.389 . S
C14 C13 1.389 . S
C14 C15 1.399 . S
C14 H27 0.931 . S
C15 C14 1.399 . S
C15 C16 1.390 . S
C16 C11 1.392 . S
C16 C15 1.390 . S
C16 H28 0.929 . S
O17 Tb1 2.326 . S
O17 C5 1.242 . S
O18 Eu2 2.324 . S
O18 C5 1.258 . S
O19 Tb1 2.500 . S
O19 C21 1.273 . S
O20 Tb1 2.473 . S
O20 C21 1.257 . S
C21 O19 1.273 . S
C21 O20 1.257 . S
O22 Eu2 2.326 . S
O22 C10 1.242 . S
O23 Tb1 2.324 . S
O23 C10 1.258 . S
O24 Eu2 2.500 1_565 S
O24 C7 1.273 . S
O25 Eu2 2.473 . S
O25 C7 1.257 1_545 S
H26 C12 0.929 1_545 S
H27 C14 0.931 . S
H28 C16 0.929 . S
O29 Tb30 2.292 . S
O29 C32 1.255 . S
Tb30 O29 2.292 . S
Tb30 O46 2.326 . S
Tb30 O48 2.500 . S
Tb30 O49 2.473 . S
Tb30 O52 2.324 . S
Eu31 O35 2.292 . S
Eu31 C36 2.852 . S
Eu31 O47 2.324 . S
Eu31 O51 2.326 . S
Eu31 O53 2.500 . S
Eu31 O54 2.473 . S
C32 O29 1.255 . S
C32 O33 1.247 . S
O33 C32 1.247 . S
C34 O46 1.242 . S
C34 O47 1.258 . S
O35 Eu31 2.292 . S
O35 C37 1.255 . S
C36 Eu31 2.852 . S
C36 C40 1.503 . S
C36 O53 1.273 . S
C36 O54 1.257 . S
C37 O35 1.255 . S
C37 O38 1.247 . S
O38 C37 1.247 . S
C39 O51 1.242 . S
C39 O52 1.258 . S
C40 C36 1.503 . S
C40 C41 1.379 . S
C40 C45 1.392 . S
C41 C40 1.379 . S
C41 C42 1.404 . S
C41 H55 0.929 . S
C42 C41 1.404 . S
C42 C43 1.389 . S
C43 C42 1.389 . S
C43 C44 1.399 . S
C43 H56 0.931 . S
C44 C43 1.399 . S
C44 C45 1.390 . S
C45 C40 1.392 . S
C45 C44 1.390 . S
C45 H57 0.929 . S
O46 Tb30 2.326 . S
O46 C34 1.242 . S
O47 Eu31 2.324 . S
O47 C34 1.258 . S
O48 Tb30 2.500 . S
O48 C50 1.273 . S
O49 Tb30 2.473 . S
O49 C50 1.257 . S
C50 O48 1.273 . S
C50 O49 1.257 . S
O51 Eu31 2.326 . S
O51 C39 1.242 . S
O52 Tb30 2.324 . S
O52 C39 1.258 . S
O53 Eu31 2.500 . S
O53 C36 1.273 . S
O54 Eu31 2.473 . S
O54 C36 1.257 . S
H55 C41 0.929 . S
H56 C43 0.931 . S
H57 C45 0.929 . S
O58 Tb59 2.292 . S
O58 C61 1.255 . S
Tb59 O58 2.292 . S
Tb59 O75 2.326 . S
Tb59 O77 2.500 . S
Tb59 O78 2.473 . S
Tb59 O81 2.324 . S
Eu60 O64 2.292 . S
Eu60 C65 2.852 . S
Eu60 O76 2.324 . S
Eu60 O80 2.326 . S
Eu60 O82 2.500 . S
Eu60 O83 2.473 . S
C61 O58 1.255 . S
C61 O62 1.247 . S
O62 C61 1.247 . S
C63 O75 1.242 . S
C63 O76 1.258 . S
O64 Eu60 2.292 . S
O64 C66 1.255 . S
C65 Eu60 2.852 . S
C65 C69 1.503 . S
C65 O82 1.273 . S
C65 O83 1.257 . S
C66 O64 1.255 . S
C66 O67 1.247 . S
O67 C66 1.247 . S
C68 O80 1.242 . S
C68 O81 1.258 . S
C69 C65 1.503 . S
C69 C70 1.379 . S
C69 C74 1.392 . S
C70 C69 1.379 . S
C70 C71 1.404 . S
C70 H84 0.929 . S
C71 C70 1.404 . S
C71 C72 1.389 . S
C72 C71 1.389 . S
C72 C73 1.399 . S
C72 H85 0.931 1_655 S
C73 C72 1.399 . S
C73 C74 1.390 . S
C74 C69 1.392 . S
C74 C73 1.390 . S
C74 H86 0.929 . S
O75 Tb59 2.326 . S
O75 C63 1.242 . S
O76 Eu60 2.324 . S
O76 C63 1.258 . S
O77 Tb59 2.500 . S
O77 C79 1.273 . S
O78 Tb59 2.473 . S
O78 C79 1.257 . S
C79 O77 1.273 . S
C79 O78 1.257 . S
O80 Eu60 2.326 . S
O80 C68 1.242 . S
O81 Tb59 2.324 . S
O81 C68 1.258 . S
O82 Eu60 2.500 . S
O82 C65 1.273 . S
O83 Eu60 2.473 . S
O83 C65 1.257 . S
H84 C70 0.929 . S
H85 C72 0.931 1_455 S
H86 C74 0.929 . S
O87 Tb88 2.292 . S
O87 C90 1.255 . S
Tb88 O87 2.292 . S
Tb88 O104 2.326 . S
Tb88 O106 2.500 . S
Tb88 O107 2.473 . S
Tb88 O110 2.324 . S
Eu89 O93 2.292 1_455 S
Eu89 C94 2.852 1_455 S
Eu89 O105 2.324 . S
Eu89 O109 2.326 . S
Eu89 O111 2.500 1_455 S
Eu89 O112 2.473 . S
C90 O87 1.255 . S
C90 O91 1.247 . S
O91 C90 1.247 . S
C92 O104 1.242 . S
C92 O105 1.258 . S
O93 Eu89 2.292 1_655 S
O93 C95 1.255 . S
C94 Eu89 2.852 1_655 S
C94 C98 1.503 . S
C94 O111 1.273 . S
C94 O112 1.257 1_655 S
C95 O93 1.255 . S
C95 O96 1.247 1_655 S
O96 C95 1.247 1_455 S
C97 O109 1.242 . S
C97 O110 1.258 . S
C98 C94 1.503 . S
C98 C99 1.379 . S
C98 C103 1.392 . S
C99 C98 1.379 . S
C99 C100 1.404 . S
C99 H113 0.929 1_655 S
C100 C99 1.404 . S
C100 C101 1.389 . S
C101 C100 1.389 . S
C101 C102 1.399 . S
C101 H114 0.931 1_565 S
C102 C101 1.399 . S
C102 C103 1.390 . S
C103 C98 1.392 . S
C103 C102 1.390 . S
C103 H115 0.929 . S
O104 Tb88 2.326 . S
O104 C92 1.242 . S
O105 Eu89 2.324 . S
O105 C92 1.258 . S
O106 Tb88 2.500 . S
O106 C108 1.273 . S
O107 Tb88 2.473 . S
O107 C108 1.257 . S
C108 O106 1.273 . S
C108 O107 1.257 . S
O109 Eu89 2.326 . S
O109 C97 1.242 . S
O110 Tb88 2.324 . S
O110 C97 1.258 . S
O111 Eu89 2.500 1_655 S
O111 C94 1.273 . S
O112 Eu89 2.473 . S
O112 C94 1.257 1_455 S
H113 C99 0.929 1_455 S
H114 C101 0.931 1_545 S
H115 C103 0.929 . S
O116 Tb117 2.292 . S
O116 C119 1.255 . S
Tb117 O116 2.292 . S
Tb117 O133 2.326 . S
Tb117 O135 2.500 . S
Tb117 O136 2.473 . S
Tb117 O139 2.324 . S
Eu118 O122 2.292 . S
Eu118 C123 2.852 . S
Eu118 O134 2.324 . S
Eu118 O138 2.326 . S
Eu118 O140 2.500 . S
Eu118 O141 2.473 . S
C119 O116 1.255 . S
C119 O120 1.247 . S
O120 C119 1.247 . S
C121 O133 1.242 . S
C121 O134 1.258 . S
O122 Eu118 2.292 . S
O122 C124 1.255 . S
C123 Eu118 2.852 . S
C123 C127 1.503 . S
C123 O140 1.273 . S
C123 O141 1.257 . S
C124 O122 1.255 . S
C124 O125 1.247 . S
O125 C124 1.247 . S
C126 O138 1.242 . S
C126 O139 1.258 . S
C127 C123 1.503 . S
C127 C128 1.379 . S
C127 C132 1.392 . S
C128 C127 1.379 . S
C128 C129 1.404 . S
C128 H142 0.929 . S
C129 C128 1.404 . S
C129 C130 1.389 . S
C130 C129 1.389 . S
C130 C131 1.399 . S
C130 H143 0.931 . S
C131 C130 1.399 . S
C131 C132 1.390 . S
C132 C127 1.392 . S
C132 C131 1.390 . S
C132 H144 0.929 . S
O133 Tb117 2.326 . S
O133 C121 1.242 . S
O134 Eu118 2.324 . S
O134 C121 1.258 . S
O135 Tb117 2.500 . S
O135 C137 1.273 . S
O136 Tb117 2.473 . S
O136 C137 1.257 . S
C137 O135 1.273 . S
C137 O136 1.257 . S
O138 Eu118 2.326 . S
O138 C126 1.242 . S
O139 Tb117 2.324 . S
O139 C126 1.258 . S
O140 Eu118 2.500 . S
O140 C123 1.273 . S
O141 Eu118 2.473 . S
O141 C123 1.257 . S
H142 C128 0.929 . S
H143 C130 0.931 . S
H144 C132 0.929 . S
O145 Tb146 2.292 . S
O145 C148 1.255 . S
Tb146 O145 2.292 . S
Tb146 O162 2.326 . S
Tb146 O164 2.500 . S
Tb146 O165 2.473 . S
Tb146 O168 2.324 . S
Eu147 O151 2.292 1_455 S
Eu147 C152 2.852 1_455 S
Eu147 O163 2.324 . S
Eu147 O167 2.326 . S
Eu147 O169 2.500 1_455 S
Eu147 O170 2.473 . S
C148 O145 1.255 . S
C148 O149 1.247 . S
O149 C148 1.247 . S
C150 O162 1.242 . S
C150 O163 1.258 . S
O151 Eu147 2.292 1_655 S
O151 C153 1.255 . S
C152 Eu147 2.852 1_655 S
C152 C156 1.503 . S
C152 O169 1.273 . S
C152 O170 1.257 1_655 S
C153 O151 1.255 . S
C153 O154 1.247 1_655 S
O154 C153 1.247 1_455 S
C155 O167 1.242 . S
C155 O168 1.258 . S
C156 C152 1.503 . S
C156 C157 1.379 . S
C156 C161 1.392 . S
C157 C156 1.379 . S
C157 C158 1.404 . S
C157 H171 0.929 1_655 S
C158 C157 1.404 . S
C158 C159 1.389 . S
C159 C158 1.389 . S
C159 C160 1.399 . S
C159 H172 0.931 . S
C160 C159 1.399 . S
C160 C161 1.390 . S
C161 C156 1.392 . S
C161 C160 1.390 . S
C161 H173 0.929 . S
O162 Tb146 2.326 . S
O162 C150 1.242 . S
O163 Eu147 2.324 . S
O163 C150 1.258 . S
O164 Tb146 2.500 . S
O164 C166 1.273 . S
O165 Tb146 2.473 . S
O165 C166 1.257 . S
C166 O164 1.273 . S
C166 O165 1.257 . S
O167 Eu147 2.326 . S
O167 C155 1.242 . S
O168 Tb146 2.324 . S
O168 C155 1.258 . S
O169 Eu147 2.500 1_655 S
O169 C152 1.273 . S
O170 Eu147 2.473 . S
O170 C152 1.257 1_455 S
H171 C157 0.929 1_455 S
H172 C159 0.931 . S
H173 C161 0.929 . S
O174 Tb175 2.292 . S
O174 C177 1.255 . S
Tb175 O174 2.292 . S
Tb175 O191 2.326 . S
Tb175 O193 2.500 . S
Tb175 O194 2.473 . S
Tb175 O197 2.324 . S
Eu176 O180 2.292 1_545 S
Eu176 C181 2.852 1_545 S
Eu176 O192 2.324 . S
Eu176 O196 2.326 . S
Eu176 O198 2.500 1_545 S
Eu176 O199 2.473 . S
C177 O174 1.255 . S
C177 O178 1.247 . S
O178 C177 1.247 . S
C179 O191 1.242 . S
C179 O192 1.258 . S
O180 Eu176 2.292 1_565 S
O180 C182 1.255 . S
C181 Eu176 2.852 1_565 S
C181 C185 1.503 . S
C181 O198 1.273 . S
C181 O199 1.257 1_565 S
C182 O180 1.255 . S
C182 O183 1.247 1_565 S
O183 C182 1.247 1_545 S
C184 O196 1.242 . S
C184 O197 1.258 . S
C185 C181 1.503 . S
C185 C186 1.379 . S
C185 C190 1.392 . S
C186 C185 1.379 . S
C186 C187 1.404 . S
C186 H200 0.929 1_565 S
C187 C186 1.404 . S
C187 C188 1.389 . S
C188 C187 1.389 . S
C188 C189 1.399 . S
C188 H201 0.931 1_655 S
C189 C188 1.399 . S
C189 C190 1.390 . S
C190 C185 1.392 . S
C190 C189 1.390 . S
C190 H202 0.929 . S
O191 Tb175 2.326 . S
O191 C179 1.242 . S
O192 Eu176 2.324 . S
O192 C179 1.258 . S
O193 Tb175 2.500 . S
O193 C195 1.273 . S
O194 Tb175 2.473 . S
O194 C195 1.257 . S
C195 O193 1.273 . S
C195 O194 1.257 . S
O196 Eu176 2.326 . S
O196 C184 1.242 . S
O197 Tb175 2.324 . S
O197 C184 1.258 . S
O198 Eu176 2.500 1_565 S
O198 C181 1.273 . S
O199 Eu176 2.473 . S
O199 C181 1.257 1_545 S
H200 C186 0.929 1_545 S
H201 C188 0.931 1_455 S
H202 C190 0.929 . S
O203 Tb204 2.292 . S
O203 C206 1.255 . S
Tb204 O203 2.292 . S
Tb204 O220 2.326 . S
Tb204 O222 2.500 . S
Tb204 O223 2.473 . S
Tb204 O226 2.324 . S
Eu205 O209 2.292 . S
Eu205 C210 2.852 . S
Eu205 O221 2.324 . S
Eu205 O225 2.326 . S
Eu205 O227 2.500 . S
Eu205 O228 2.473 . S
C206 O203 1.255 . S
C206 O207 1.247 . S
O207 C206 1.247 . S
C208 O220 1.242 . S
C208 O221 1.258 . S
O209 Eu205 2.292 . S
O209 C211 1.255 . S
C210 Eu205 2.852 . S
C210 C214 1.503 . S
C210 O227 1.273 . S
C210 O228 1.257 . S
C211 O209 1.255 . S
C211 O212 1.247 . S
O212 C211 1.247 . S
C213 O225 1.242 . S
C213 O226 1.258 . S
C214 C210 1.503 . S
C214 C215 1.379 . S
C214 C219 1.392 . S
C215 C214 1.379 . S
C215 C216 1.404 . S
C215 H229 0.929 . S
C216 C215 1.404 . S
C216 C217 1.389 . S
C217 C216 1.389 . S
C217 C218 1.399 . S
C217 H230 0.931 1_565 S
C218 C217 1.399 . S
C218 C219 1.390 . S
C219 C214 1.392 . S
C219 C218 1.390 . S
C219 H231 0.929 . S
O220 Tb204 2.326 . S
O220 C208 1.242 . S
O221 Eu205 2.324 . S
O221 C208 1.258 . S
O222 Tb204 2.500 . S
O222 C224 1.273 . S
O223 Tb204 2.473 . S
O223 C224 1.257 . S
C224 O222 1.273 . S
C224 O223 1.257 . S
O225 Eu205 2.326 . S
O225 C213 1.242 . S
O226 Tb204 2.324 . S
O226 C213 1.258 . S
O227 Eu205 2.500 . S
O227 C210 1.273 . S
O228 Eu205 2.473 . S
O228 C210 1.257 . S
H229 C215 0.929 . S
H230 C217 0.931 1_545 S
H231 C219 0.929 . S
O232 Tb233 2.292 . S
O232 C235 1.255 . S
Tb233 O232 2.292 . S
Tb233 O249 2.326 . S
Tb233 O251 2.500 . S
Tb233 O252 2.473 . S
Tb233 O255 2.324 . S
Eu234 O238 2.292 1_565 S
Eu234 C239 2.852 1_565 S
Eu234 O250 2.324 . S
Eu234 O254 2.326 . S
Eu234 O256 2.500 1_565 S
Eu234 O257 2.473 . S
C235 O232 1.255 . S
C235 O236 1.247 . S
O236 C235 1.247 . S
C237 O249 1.242 . S
C237 O250 1.258 . S
O238 Eu234 2.292 1_545 S
O238 C240 1.255 . S
C239 Eu234 2.852 1_545 S
C239 C243 1.503 . S
C239 O256 1.273 . S
C239 O257 1.257 1_545 S
C240 O238 1.255 . S
C240 O241 1.247 1_545 S
O241 C240 1.247 1_565 S
C242 O254 1.242 . S
C242 O255 1.258 . S
C243 C239 1.503 . S
C243 C244 1.379 . S
C243 C248 1.392 . S
C244 C243 1.379 . S
C244 C245 1.404 . S
C244 H258 0.929 1_545 S
C245 C244 1.404 . S
C245 C246 1.389 . S
C246 C245 1.389 . S
C246 C247 1.399 . S
C246 H259 0.931 . S
C247 C246 1.399 . S
C247 C248 1.390 . S
C248 C243 1.392 . S
C248 C247 1.390 . S
C248 H260 0.929 . S
O249 Tb233 2.326 . S
O249 C237 1.242 . S
O250 Eu234 2.324 . S
O250 C237 1.258 . S
O251 Tb233 2.500 . S
O251 C253 1.273 . S
O252 Tb233 2.473 . S
O252 C253 1.257 . S
C253 O251 1.273 . S
C253 O252 1.257 . S
O254 Eu234 2.326 . S
O254 C242 1.242 . S
O255 Tb233 2.324 . S
O255 C242 1.258 . S
O256 Eu234 2.500 1_545 S
O256 C239 1.273 . S
O257 Eu234 2.473 . S
O257 C239 1.257 1_565 S
H258 C244 0.929 1_565 S
H259 C246 0.931 . S
H260 C248 0.929 . S
O261 Tb262 2.292 . S
O261 C264 1.255 . S
Tb262 O261 2.292 . S
Tb262 O278 2.326 . S
Tb262 O280 2.500 . S
Tb262 O281 2.473 . S
Tb262 O284 2.324 . S
Eu263 O267 2.292 . S
Eu263 C268 2.852 . S
Eu263 O279 2.324 . S
Eu263 O283 2.326 . S
Eu263 O285 2.500 . S
Eu263 O286 2.473 . S
C264 O261 1.255 . S
C264 O265 1.247 . S
O265 C264 1.247 . S
C266 O278 1.242 . S
C266 O279 1.258 . S
O267 Eu263 2.292 . S
O267 C269 1.255 . S
C268 Eu263 2.852 . S
C268 C272 1.503 . S
C268 O285 1.273 . S
C268 O286 1.257 . S
C269 O267 1.255 . S
C269 O270 1.247 . S
O270 C269 1.247 . S
C271 O283 1.242 . S
C271 O284 1.258 . S
C272 C268 1.503 . S
C272 C273 1.379 . S
C272 C277 1.392 . S
C273 C272 1.379 . S
C273 C274 1.404 . S
C273 H287 0.929 . S
C274 C273 1.404 . S
C274 C275 1.389 . S
C275 C274 1.389 . S
C275 C276 1.399 . S
C275 H288 0.931 . S
C276 C275 1.399 . S
C276 C277 1.390 . S
C277 C272 1.392 . S
C277 C276 1.390 . S
C277 H289 0.929 . S
O278 Tb262 2.326 . S
O278 C266 1.242 . S
O279 Eu263 2.324 . S
O279 C266 1.258 . S
O280 Tb262 2.500 . S
O280 C282 1.273 . S
O281 Tb262 2.473 . S
O281 C282 1.257 . S
C282 O280 1.273 . S
C282 O281 1.257 . S
O283 Eu263 2.326 . S
O283 C271 1.242 . S
O284 Tb262 2.324 . S
O284 C271 1.258 . S
O285 Eu263 2.500 . S
O285 C268 1.273 . S
O286 Eu263 2.473 . S
O286 C268 1.257 . S
H287 C273 0.929 . S
H288 C275 0.931 . S
H289 C277 0.929 . S
O290 Tb291 2.292 . S
O290 C293 1.255 . S
Tb291 O290 2.292 . S
Tb291 O307 2.326 . S
Tb291 O309 2.500 . S
Tb291 O310 2.473 . S
Tb291 O313 2.324 . S
Eu292 O296 2.292 . S
Eu292 C297 2.852 . S
Eu292 O308 2.324 . S
Eu292 O312 2.326 . S
Eu292 O314 2.500 . S
Eu292 O315 2.473 . S
C293 O290 1.255 . S
C293 O294 1.247 . S
O294 C293 1.247 . S
C295 O307 1.242 . S
C295 O308 1.258 . S
O296 Eu292 2.292 . S
O296 C298 1.255 . S
C297 Eu292 2.852 . S
C297 C301 1.503 . S
C297 O314 1.273 . S
C297 O315 1.257 . S
C298 O296 1.255 . S
C298 O299 1.247 . S
O299 C298 1.247 . S
C300 O312 1.242 . S
C300 O313 1.258 . S
C301 C297 1.503 . S
C301 C302 1.379 . S
C301 C306 1.392 . S
C302 C301 1.379 . S
C302 C303 1.404 . S
C302 H316 0.929 . S
C303 C302 1.404 . S
C303 C304 1.389 . S
C304 C303 1.389 . S
C304 C305 1.399 . S
C304 H317 0.931 1_455 S
C305 C304 1.399 . S
C305 C306 1.390 . S
C306 C301 1.392 . S
C306 C305 1.390 . S
C306 H318 0.929 . S
O307 Tb291 2.326 . S
O307 C295 1.242 . S
O308 Eu292 2.324 . S
O308 C295 1.258 . S
O309 Tb291 2.500 . S
O309 C311 1.273 . S
O310 Tb291 2.473 . S
O310 C311 1.257 . S
C311 O309 1.273 . S
C311 O310 1.257 . S
O312 Eu292 2.326 . S
O312 C300 1.242 . S
O313 Tb291 2.324 . S
O313 C300 1.258 . S
O314 Eu292 2.500 . S
O314 C297 1.273 . S
O315 Eu292 2.473 . S
O315 C297 1.257 . S
H316 C302 0.929 . S
H317 C304 0.931 1_655 S
H318 C306 0.929 . S
O319 Tb320 2.292 . S
O319 C322 1.255 . S
Tb320 O319 2.292 . S
Tb320 O336 2.326 . S
Tb320 O338 2.500 . S
Tb320 O339 2.473 . S
Tb320 O342 2.324 . S
Eu321 O325 2.292 1_655 S
Eu321 C326 2.852 1_655 S
Eu321 O337 2.324 . S
Eu321 O341 2.326 . S
Eu321 O343 2.500 1_655 S
Eu321 O344 2.473 . S
C322 O319 1.255 . S
C322 O323 1.247 . S
O323 C322 1.247 . S
C324 O336 1.242 . S
C324 O337 1.258 . S
O325 Eu321 2.292 1_455 S
O325 C327 1.255 . S
C326 Eu321 2.852 1_455 S
C326 C330 1.503 . S
C326 O343 1.273 . S
C326 O344 1.257 1_455 S
C327 O325 1.255 . S
C327 O328 1.247 1_455 S
O328 C327 1.247 1_655 S
C329 O341 1.242 . S
C329 O342 1.258 . S
C330 C326 1.503 . S
C330 C331 1.379 . S
C330 C335 1.392 . S
C331 C330 1.379 . S
C331 C332 1.404 . S
C331 H345 0.929 1_455 S
C332 C331 1.404 . S
C332 C333 1.389 . S
C333 C332 1.389 . S
C333 C334 1.399 . S
C333 H346 0.931 1_545 S
C334 C333 1.399 . S
C334 C335 1.390 . S
C335 C330 1.392 . S
C335 C334 1.390 . S
C335 H347 0.929 . S
O336 Tb320 2.326 . S
O336 C324 1.242 . S
O337 Eu321 2.324 . S
O337 C324 1.258 . S
O338 Tb320 2.500 . S
O338 C340 1.273 . S
O339 Tb320 2.473 . S
O339 C340 1.257 . S
C340 O338 1.273 . S
C340 O339 1.257 . S
O341 Eu321 2.326 . S
O341 C329 1.242 . S
O342 Tb320 2.324 . S
O342 C329 1.258 . S
O343 Eu321 2.500 1_455 S
O343 C326 1.273 . S
O344 Eu321 2.473 . S
O344 C326 1.257 1_655 S
H345 C331 0.929 1_655 S
H346 C333 0.931 1_565 S
H347 C335 0.929 . S
O348 Tb349 2.292 . S
O348 C351 1.255 . S
Tb349 O348 2.292 . S
Tb349 O365 2.326 . S
Tb349 O367 2.500 . S
Tb349 O368 2.473 . S
Tb349 O371 2.324 . S
Eu350 O354 2.292 . S
Eu350 C355 2.852 . S
Eu350 O366 2.324 . S
Eu350 O370 2.326 . S
Eu350 O372 2.500 . S
Eu350 O373 2.473 . S
C351 O348 1.255 . S
C351 O352 1.247 . S
O352 C351 1.247 . S
C353 O365 1.242 . S
C353 O366 1.258 . S
O354 Eu350 2.292 . S
O354 C356 1.255 . S
C355 Eu350 2.852 . S
C355 C359 1.503 . S
C355 O372 1.273 . S
C355 O373 1.257 . S
C356 O354 1.255 . S
C356 O357 1.247 . S
O357 C356 1.247 . S
C358 O370 1.242 . S
C358 O371 1.258 . S
C359 C355 1.503 . S
C359 C360 1.379 . S
C359 C364 1.392 . S
C360 C359 1.379 . S
C360 C361 1.404 . S
C360 H374 0.929 . S
C361 C360 1.404 . S
C361 C362 1.389 . S
C362 C361 1.389 . S
C362 C363 1.399 . S
C362 H375 0.931 . S
C363 C362 1.399 . S
C363 C364 1.390 . S
C364 C359 1.392 . S
C364 C363 1.390 . S
C364 H376 0.929 . S
O365 Tb349 2.326 . S
O365 C353 1.242 . S
O366 Eu350 2.324 . S
O366 C353 1.258 . S
O367 Tb349 2.500 . S
O367 C369 1.273 . S
O368 Tb349 2.473 . S
O368 C369 1.257 . S
C369 O367 1.273 . S
C369 O368 1.257 . S
O370 Eu350 2.326 . S
O370 C358 1.242 . S
O371 Tb349 2.324 . S
O371 C358 1.258 . S
O372 Eu350 2.500 . S
O372 C355 1.273 . S
O373 Eu350 2.473 . S
O373 C355 1.257 . S
H374 C360 0.929 . S
H375 C362 0.931 . S
H376 C364 0.929 . S
O377 Tb378 2.292 . S
O377 C380 1.255 . S
Tb378 O377 2.292 . S
Tb378 O394 2.326 . S
Tb378 O396 2.500 . S
Tb378 O397 2.473 . S
Tb378 O400 2.324 . S
Eu379 O383 2.292 1_655 S
Eu379 C384 2.852 1_655 S
Eu379 O395 2.324 . S
Eu379 O399 2.326 . S
Eu379 O401 2.500 1_655 S
Eu379 O402 2.473 . S
C380 O377 1.255 . S
C380 O381 1.247 . S
O381 C380 1.247 . S
C382 O394 1.242 . S
C382 O395 1.258 . S
O383 Eu379 2.292 1_455 S
O383 C385 1.255 . S
C384 Eu379 2.852 1_455 S
C384 C388 1.503 . S
C384 O401 1.273 . S
C384 O402 1.257 1_455 S
C385 O383 1.255 . S
C385 O386 1.247 1_455 S
O386 C385 1.247 1_655 S
C387 O399 1.242 . S
C387 O400 1.258 . S
C388 C384 1.503 . S
C388 C389 1.379 . S
C388 C393 1.392 . S
C389 C388 1.379 . S
C389 C390 1.404 . S
C389 H403 0.929 1_455 S
C390 C389 1.404 . S
C390 C391 1.389 . S
C391 C390 1.389 . S
C391 C392 1.399 . S
C391 H404 0.931 . S
C392 C391 1.399 . S
C392 C393 1.390 . S
C393 C388 1.392 . S
C393 C392 1.390 . S
C393 H405 0.929 . S
O394 Tb378 2.326 . S
O394 C382 1.242 . S
O395 Eu379 2.324 . S
O395 C382 1.258 . S
O396 Tb378 2.500 . S
O396 C398 1.273 . S
O397 Tb378 2.473 . S
O397 C398 1.257 . S
C398 O396 1.273 . S
C398 O397 1.257 . S
O399 Eu379 2.326 . S
O399 C387 1.242 . S
O400 Tb378 2.324 . S
O400 C387 1.258 . S
O401 Eu379 2.500 1_455 S
O401 C384 1.273 . S
O402 Eu379 2.473 . S
O402 C384 1.257 1_655 S
H403 C389 0.929 1_655 S
H404 C391 0.931 . S
H405 C393 0.929 . S
O406 Tb407 2.292 . S
O406 C409 1.255 . S
Tb407 O406 2.292 . S
Tb407 O423 2.326 . S
Tb407 O425 2.500 . S
Tb407 O426 2.473 . S
Tb407 O429 2.324 . S
Eu408 O412 2.292 1_565 S
Eu408 C413 2.852 1_565 S
Eu408 O424 2.324 . S
Eu408 O428 2.326 . S
Eu408 O430 2.500 1_565 S
Eu408 O431 2.473 . S
C409 O406 1.255 . S
C409 O410 1.247 . S
O410 C409 1.247 . S
C411 O423 1.242 . S
C411 O424 1.258 . S
O412 Eu408 2.292 1_545 S
O412 C414 1.255 . S
C413 Eu408 2.852 1_545 S
C413 C417 1.503 . S
C413 O430 1.273 . S
C413 O431 1.257 1_545 S
C414 O412 1.255 . S
C414 O415 1.247 1_545 S
O415 C414 1.247 1_565 S
C416 O428 1.242 . S
C416 O429 1.258 . S
C417 C413 1.503 . S
C417 C418 1.379 . S
C417 C422 1.392 . S
C418 C417 1.379 . S
C418 C419 1.404 . S
C418 H432 0.929 1_545 S
C419 C418 1.404 . S
C419 C420 1.389 . S
C420 C419 1.389 . S
C420 C421 1.399 . S
C420 H433 0.931 1_455 S
C421 C420 1.399 . S
C421 C422 1.390 . S
C422 C417 1.392 . S
C422 C421 1.390 . S
C422 H434 0.929 . S
O423 Tb407 2.326 . S
O423 C411 1.242 . S
O424 Eu408 2.324 . S
O424 C411 1.258 . S
O425 Tb407 2.500 . S
O425 C427 1.273 . S
O426 Tb407 2.473 . S
O426 C427 1.257 . S
C427 O425 1.273 . S
C427 O426 1.257 . S
O428 Eu408 2.326 . S
O428 C416 1.242 . S
O429 Tb407 2.324 . S
O429 C416 1.258 . S
O430 Eu408 2.500 1_545 S
O430 C413 1.273 . S
O431 Eu408 2.473 . S
O431 C413 1.257 1_565 S
H432 C418 0.929 1_565 S
H433 C420 0.931 1_655 S
H434 C422 0.929 . S
O435 Tb436 2.292 . S
O435 C438 1.255 . S
Tb436 O435 2.292 . S
Tb436 O452 2.326 . S
Tb436 O454 2.500 . S
Tb436 O455 2.473 . S
Tb436 O458 2.324 . S
Eu437 O441 2.292 . S
Eu437 C442 2.852 . S
Eu437 O453 2.324 . S
Eu437 O457 2.326 . S
Eu437 O459 2.500 . S
Eu437 O460 2.473 . S
C438 O435 1.255 . S
C438 O439 1.247 . S
O439 C438 1.247 . S
C440 O452 1.242 . S
C440 O453 1.258 . S
O441 Eu437 2.292 . S
O441 C443 1.255 . S
C442 Eu437 2.852 . S
C442 C446 1.503 . S
C442 O459 1.273 . S
C442 O460 1.257 . S
C443 O441 1.255 . S
C443 O444 1.247 . S
O444 C443 1.247 . S
C445 O457 1.242 . S
C445 O458 1.258 . S
C446 C442 1.503 . S
C446 C447 1.379 . S
C446 C451 1.392 . S
C447 C446 1.379 . S
C447 C448 1.404 . S
C447 H461 0.929 . S
C448 C447 1.404 . S
C448 C449 1.389 . S
C449 C448 1.389 . S
C449 C450 1.399 . S
C449 H462 0.931 1_545 S
C450 C449 1.399 . S
C450 C451 1.390 . S
C451 C446 1.392 . S
C451 C450 1.390 . S
C451 H463 0.929 . S
O452 Tb436 2.326 . S
O452 C440 1.242 . S
O453 Eu437 2.324 . S
O453 C440 1.258 . S
O454 Tb436 2.500 . S
O454 C456 1.273 . S
O455 Tb436 2.473 . S
O455 C456 1.257 . S
C456 O454 1.273 . S
C456 O455 1.257 . S
O457 Eu437 2.326 . S
O457 C445 1.242 . S
O458 Tb436 2.324 . S
O458 C445 1.258 . S
O459 Eu437 2.500 . S
O459 C442 1.273 . S
O460 Eu437 2.473 . S
O460 C442 1.257 . S
H461 C447 0.929 . S
H462 C449 0.931 1_565 S
H463 C451 0.929 . S
C79 C21 2.059 . S
C108 C50 2.059 . S
C137 C195 2.059 . S
C166 C224 2.059 . S
C253 C311 2.059 . S
C282 C340 2.059 . S
C427 C369 2.059 . S
C456 C398 2.059 . S
C3 C266 1.644 1_554 S
C295 C32 1.644 1_556 S
C61 C324 1.644 1_554 S
C237 C90 1.644 1_556 S
C119 C440 1.644 . S
C148 C353 1.644 . S
C177 C382 1.644 . S
C206 C411 1.644 . S
C235 C34 1.644 1_556 S
C63 C264 1.644 1_554 S
C293 C92 1.644 1_556 S
C5 C322 1.644 1_554 S
C351 C208 1.644 . S
C121 C380 1.644 . S
C409 C150 1.644 . S
C179 C438 1.644 . S
C184 C10 2.477 . S
C39 C213 2.477 . S
C68 C126 2.477 . S
C97 C155 2.477 . S
C416 C242 2.477 . S
C271 C445 2.477 . S
C358 C300 2.477 . S
C387 C329 2.477 . S
C245 C13 4.078 1_546 S
C274 C42 4.078 1_556 S
C303 C71 4.078 1_456 S
C332 C100 4.078 1_446 S
C361 C129 4.078 . S
C158 C390 4.078 1_655 S
C187 C419 4.078 1_665 S
C216 C448 4.078 1_565 S
C37 C15 2.454 . S
C66 C44 2.454 . S
C95 C73 2.454 . S
C8 C102 2.454 . S
C131 C211 2.454 . S
C160 C124 2.454 . S
C189 C153 2.454 . S
C218 C182 2.454 . S
C247 C269 2.454 . S
C276 C298 2.454 . S
C305 C327 2.454 . S
C240 C334 2.454 . S
C443 C363 2.454 . S
C392 C356 2.454 . S
C385 C421 2.454 . S
C414 C450 2.454 . S
