# Generated by pormake.
# Topology wjg, (4)-cn, num edge types: 1
# Building blocks:
#     Node 0, Type 0, BuildingBlock: TATPOV_clean_sbu_0, # of connection points: 4
#     Node 1, Type 0, BuildingBlock: TATPOV_clean_sbu_0, # of connection points: 4
#     Node 2, Type 0, BuildingBlock: TATPOV_clean_sbu_0, # of connection points: 4
#     Node 3, Type 0, BuildingBlock: TATPOV_clean_sbu_0, # of connection points: 4
#     Node 4, Type 0, BuildingBlock: TATPOV_clean_sbu_0, # of connection points: 4
#     Node 5, Type 0, BuildingBlock: TATPOV_clean_sbu_0, # of connection points: 4
#     Node 6, Type 0, BuildingBlock: TATPOV_clean_sbu_0, # of connection points: 4
#     Node 7, Type 0, BuildingBlock: TATPOV_clean_sbu_0, # of connection points: 4
#     Node 8, Type 0, BuildingBlock: TATPOV_clean_sbu_0, # of connection points: 4
#     Node 9, Type 0, BuildingBlock: TATPOV_clean_sbu_0, # of connection points: 4
#     Node 10, Type 0, BuildingBlock: TATPOV_clean_sbu_0, # of connection points: 4
#     Node 11, Type 0, BuildingBlock: TATPOV_clean_sbu_0, # of connection points: 4
#     Edge 12, Type (0, 0), BuildingBlock: KIFKEQ_clean_linker_1, # of connection points: 2
#     Edge 13, Type (0, 0), BuildingBlock: KIFKEQ_clean_linker_1, # of connection points: 2
#     Edge 14, Type (0, 0), BuildingBlock: KIFKEQ_clean_linker_1, # of connection points: 2
#     Edge 15, Type (0, 0), BuildingBlock: KIFKEQ_clean_linker_1, # of connection points: 2
#     Edge 16, Type (0, 0), BuildingBlock: KIFKEQ_clean_linker_1, # of connection points: 2
#     Edge 17, Type (0, 0), BuildingBlock: KIFKEQ_clean_linker_1, # of connection points: 2
#     Edge 18, Type (0, 0), BuildingBlock: KIFKEQ_clean_linker_1, # of connection points: 2
#     Edge 19, Type (0, 0), BuildingBlock: KIFKEQ_clean_linker_1, # of connection points: 2
#     Edge 20, Type (0, 0), BuildingBlock: KIFKEQ_clean_linker_1, # of connection points: 2
#     Edge 21, Type (0, 0), BuildingBlock: KIFKEQ_clean_linker_1, # of connection points: 2
#     Edge 22, Type (0, 0), BuildingBlock: KIFKEQ_clean_linker_1, # of connection points: 2
#     Edge 23, Type (0, 0), BuildingBlock: KIFKEQ_clean_linker_1, # of connection points: 2
#     Edge 24, Type (0, 0), BuildingBlock: KIFKEQ_clean_linker_1, # of connection points: 2
#     Edge 25, Type (0, 0), BuildingBlock: KIFKEQ_clean_linker_1, # of connection points: 2
#     Edge 26, Type (0, 0), BuildingBlock: KIFKEQ_clean_linker_1, # of connection points: 2
#     Edge 27, Type (0, 0), BuildingBlock: KIFKEQ_clean_linker_1, # of connection points: 2
#     Edge 28, Type (0, 0), BuildingBlock: KIFKEQ_clean_linker_1, # of connection points: 2
#     Edge 29, Type (0, 0), BuildingBlock: KIFKEQ_clean_linker_1, # of connection points: 2
#     Edge 30, Type (0, 0), BuildingBlock: KIFKEQ_clean_linker_1, # of connection points: 2
#     Edge 31, Type (0, 0), BuildingBlock: KIFKEQ_clean_linker_1, # of connection points: 2
#     Edge 32, Type (0, 0), BuildingBlock: KIFKEQ_clean_linker_1, # of connection points: 2
#     Edge 33, Type (0, 0), BuildingBlock: KIFKEQ_clean_linker_1, # of connection points: 2
#     Edge 34, Type (0, 0), BuildingBlock: KIFKEQ_clean_linker_1, # of connection points: 2
#     Edge 35, Type (0, 0), BuildingBlock: KIFKEQ_clean_linker_1, # of connection points: 2
# Relax obj value: 0.292
# Max RMSD: 0.117
# Mean RMSD: 0.115
data_MOF--net-wjg--node1-TATPOV_clean_sbu_0--edge1-KIFKEQ_clean_linker_1
_symmetry_space_group_name_H-M    P1
_symmetry_Int_Tables_number       1
_symmetry_cell_setting            triclinic
loop_
_symmetry_equiv_pos_as_xyz
'x, y, z'
_cell_length_a     35.7739
_cell_length_b     35.710648
_cell_length_c     36.042913
_cell_angle_alpha  89.910005
_cell_angle_beta   90.103545
_cell_angle_gamma 119.99815
loop_
_atom_site_label
_atom_site_type_symbol
_atom_site_fract_x
_atom_site_fract_y
_atom_site_fract_z
_atom_type_partial_charge
Zn0 Zn 0.3333 0.4136 0.28933 0.0
Zn1 Zn 0.25533 0.38804 0.29459 0.0
O2 O 0.28781 0.45651 0.29437 0.0
O3 O 0.35652 0.47669 0.29036 0.0
O4 O 0.1938 0.36836 0.27747 0.0
O5 O 0.33581 0.38407 0.24314 0.0
O6 O 0.26935 0.34754 0.2631 0.0
C7 C 0.32739 0.48657 0.29369 0.0
C8 C 0.28989 0.36708 0.35905 0.0
O9 O 0.25695 0.36876 0.3476 0.0
O10 O 0.32344 0.38184 0.3389 0.0
C11 C 0.17417 0.38968 0.28053 0.0
O12 O 0.19266 0.42628 0.29901 0.0
C13 C 0.29999 0.34931 0.24373 0.0
Zn14 Zn 0.87452 0.30342 0.67417 0.0
Zn15 Zn 0.82223 0.23429 0.65133 0.0
O16 O 0.78864 0.26908 0.6511 0.0
O17 O 0.83242 0.32137 0.68847 0.0
O18 O 0.78566 0.17857 0.62202 0.0
O19 O 0.9122 0.3285 0.62983 0.0
O20 O 0.88216 0.25829 0.62474 0.0
C21 C 0.79683 0.30157 0.67155 0.0
C22 C 0.8622 0.23848 0.72461 0.0
O23 O 0.82759 0.21788 0.7056 0.0
O24 O 0.89194 0.27467 0.71309 0.0
C25 C 0.74502 0.15879 0.61667 0.0
O26 O 0.72176 0.17331 0.63262 0.0
C27 C 0.91287 0.29611 0.61667 0.0
Zn28 Zn 0.56163 0.89319 0.98534 0.0
Zn29 Zn 0.57771 0.83406 0.98294 0.0
O30 O 0.51045 0.80632 0.9746 0.0
O31 O 0.49872 0.86091 0.97822 0.0
O32 O 0.59116 0.78852 0.96298 0.0
O33 O 0.59891 0.93166 0.94518 0.0
O34 O 0.62735 0.89172 0.95965 0.0
C35 C 0.48419 0.82082 0.97479 0.0
C36 C 0.58984 0.87343 0.056 0.0
O37 O 0.58634 0.8405 0.03901 0.0
O38 O 0.58429 0.90121 0.03857 0.0
C39 C 0.62963 0.79613 0.95817 0.0
O40 O 0.66193 0.83322 0.96952 0.0
C41 C 0.63066 0.92553 0.94439 0.0
Zn42 Zn 0.68158 0.58984 0.34599 0.0
Zn43 Zn 0.74792 0.60592 0.31775 0.0
O44 O 0.71251 0.53764 0.31709 0.0
O45 O 0.66376 0.52912 0.35831 0.0
O46 O 0.80137 0.62262 0.2865 0.0
O47 O 0.65408 0.60344 0.30411 0.0
O48 O 0.72339 0.64296 0.29356 0.0
C49 C 0.68171 0.51317 0.33895 0.0
C50 C 0.75013 0.64026 0.39346 0.0
O51 O 0.76849 0.62655 0.3714 0.0
O52 O 0.7134 0.63489 0.38515 0.0
C53 C 0.83336 0.61868 0.29655 0.0
O54 O 0.83285 0.60266 0.3295 0.0
C55 C 0.68498 0.6357 0.28851 0.0
Zn56 Zn 0.13635 0.71264 0.68867 0.0
Zn57 Zn 0.19044 0.78032 0.66611 0.0
O58 O 0.21946 0.74131 0.66623 0.0
O59 O 0.17511 0.69084 0.70454 0.0
O60 O 0.23219 0.83362 0.6362 0.0
O61 O 0.09997 0.69006 0.6429 0.0
O62 O 0.13018 0.76043 0.64127 0.0
C63 C 0.21041 0.7089 0.68714 0.0
C64 C 0.15279 0.77945 0.73874 0.0
O65 O 0.18779 0.79823 0.72012 0.0
O66 O 0.1215 0.74447 0.72675 0.0
C67 C 0.22173 0.86006 0.62259 0.0
O68 O 0.18341 0.85468 0.63003 0.0
C69 C 0.09927 0.72328 0.63195 0.0
Zn70 Zn 0.44896 0.12421 0.96608 0.0
Zn71 Zn 0.42115 0.17414 0.96948 0.0
O72 O 0.48912 0.20922 0.96424 0.0
O73 O 0.51075 0.16247 0.95408 0.0
O74 O 0.39896 0.21179 0.94613 0.0
O75 O 0.41014 0.0796 0.92991 0.0
O76 O 0.37585 0.11192 0.95015 0.0
C77 C 0.51959 0.20109 0.95835 0.0
C78 C 0.41768 0.13808 0.04026 0.0
O79 O 0.41268 0.16752 0.02495 0.0
O80 O 0.43039 0.11654 0.02126 0.0
C81 C 0.42171 0.25232 0.94035 0.0
O82 O 0.46146 0.27322 0.95306 0.0
C83 C 0.37517 0.0796 0.93435 0.0
Zn84 Zn 0.46189 0.80458 0.294 0.0
Zn85 Zn 0.53403 0.86434 0.3747 0.0
O86 O 0.47727 0.81211 0.39358 0.0
O87 O 0.44767 0.82066 0.34478 0.0
O88 O 0.57038 0.89749 0.41963 0.0
O89 O 0.51823 0.80098 0.2942 0.0
O90 O 0.56193 0.83678 0.3424 0.0
C91 C 0.44569 0.7962 0.37117 0.0
C92 C 0.50795 0.89333 0.31377 0.0
O93 O 0.53323 0.91034 0.34094 0.0
O94 O 0.47235 0.85957 0.32132 0.0
C95 C 0.60597 0.93267 0.41545 0.0
O96 O 0.62087 0.94519 0.38169 0.0
C97 C 0.55322 0.8139 0.31267 0.0
Zn98 Zn 0.69709 0.5147 0.63485 0.0
Zn99 Zn 0.71195 0.58689 0.71505 0.0
O100 O 0.69277 0.52449 0.73246 0.0
O101 O 0.65821 0.50241 0.68078 0.0
O102 O 0.71564 0.62336 0.75995 0.0
O103 O 0.76138 0.56197 0.64231 0.0
O104 O 0.77085 0.6079 0.68911 0.0
C105 C 0.67229 0.49358 0.70987 0.0
C106 C 0.66709 0.57379 0.64908 0.0
O107 O 0.67674 0.59868 0.67669 0.0
O108 O 0.6572 0.53515 0.65651 0.0
C109 C 0.68262 0.60789 0.78097 0.0
O110 O 0.65031 0.56895 0.77391 0.0
C111 C 0.78538 0.59522 0.66217 0.0
Zn112 Zn 0.173 0.67957 0.96707 0.0
Zn113 Zn 0.11672 0.70098 0.04505 0.0
O114 O 0.15905 0.68247 0.06536 0.0
O115 O 0.14638 0.64569 0.01513 0.0
O116 O 0.08487 0.70797 0.08882 0.0
O117 O 0.19096 0.74473 0.97078 0.0
O118 O 0.15527 0.75778 0.01594 0.0
C119 C 0.17093 0.66331 0.04276 0.0
C120 C 0.08497 0.65375 0.98096 0.0
O121 O 0.06891 0.6621 0.0087 0.0
O122 O 0.11191 0.64148 0.98863 0.0
C123 C 0.0657 0.67443 0.10922 0.0
O124 O 0.0704 0.64107 0.10145 0.0
C125 C 0.18233 0.77037 0.98885 0.0
Zn126 Zn 0.5246 0.18785 0.28834 0.0
Zn127 Zn 0.44017 0.12167 0.3593 0.0
O128 O 0.49348 0.17226 0.38405 0.0
O129 O 0.53142 0.16745 0.33996 0.0
O130 O 0.39745 0.08673 0.40025 0.0
O131 O 0.46912 0.19222 0.28222 0.0
O132 O 0.4171 0.151 0.32336 0.0
C133 C 0.52903 0.18922 0.36669 0.0
C134 C 0.47514 0.09724 0.30256 0.0
O135 O 0.44665 0.07795 0.32714 0.0
O136 O 0.50956 0.13023 0.31373 0.0
C137 C 0.41272 0.07587 0.42752 0.0
O138 O 0.45419 0.08891 0.42782 0.0
C139 C 0.43112 0.17723 0.29562 0.0
Zn140 Zn 0.31558 0.45788 0.62659 0.0
Zn141 Zn 0.29509 0.41453 0.68278 0.0
O142 O 0.31345 0.47964 0.69554 0.0
O143 O 0.3385 0.51723 0.64428 0.0
O144 O 0.30245 0.38759 0.73047 0.0
O145 O 0.25 0.42097 0.61555 0.0
O146 O 0.23204 0.38679 0.66925 0.0
C147 C 0.32965 0.5158 0.67824 0.0
C148 C 0.34213 0.40432 0.61259 0.0
O149 O 0.31756 0.38986 0.6409 0.0
O150 O 0.35653 0.44312 0.6031 0.0
C151 C 0.34081 0.39694 0.73878 0.0
O152 O 0.37249 0.42382 0.71714 0.0
C153 C 0.22119 0.39416 0.63753 0.0
Zn154 Zn 0.83332 0.32239 0.95275 0.0
Zn155 Zn 0.88224 0.30465 0.0372 0.0
O156 O 0.83759 0.3236 0.05109 0.0
O157 O 0.85627 0.35944 1.00003 0.0
O158 O 0.91179 0.30032 0.08417 0.0
O159 O 0.81612 0.2577 0.95958 0.0
O160 O 0.8468 0.24641 0.00993 0.0
C161 C 0.82976 0.34444 0.02672 0.0
C162 C 0.91958 0.35038 0.97218 0.0
O163 O 0.93214 0.33965 0.00096 0.0
O164 O 0.89197 0.36223 0.97769 0.0
C165 C 0.93777 0.33672 0.0988 0.0
O166 O 0.94065 0.37175 0.08404 0.0
C167 C 0.82296 0.23284 0.98072 0.0
H168 H 0.27599 0.52147 0.31146 0.0
H169 H 0.40898 0.55556 0.29474 0.0
H170 H 0.30034 0.59541 0.33304 0.0
H171 H 0.43275 0.62832 0.31644 0.0
H172 H 0.46359 0.73495 0.39864 0.0
H173 H 0.43103 0.65954 0.37939 0.0
H174 H 0.34179 0.67469 0.30895 0.0
H175 H 0.37445 0.75037 0.32806 0.0
C176 C 0.31023 0.54472 0.31187 0.0
C177 C 0.34046 0.53237 0.30154 0.0
C178 C 0.32414 0.58695 0.32436 0.0
C179 C 0.36848 0.6173 0.32716 0.0
C180 C 0.39843 0.60536 0.31544 0.0
C181 C 0.38465 0.56363 0.30265 0.0
C182 C 0.43654 0.7221 0.3796 0.0
C183 C 0.42184 0.74881 0.36466 0.0
C184 C 0.41809 0.67896 0.36835 0.0
C185 C 0.38422 0.66141 0.3423 0.0
C186 C 0.36778 0.6873 0.32907 0.0
C187 C 0.38657 0.73062 0.33998 0.0
H188 H 0.77168 0.31656 0.73728 0.0
H189 H 0.75391 0.32232 0.61951 0.0
H190 H 0.73361 0.35585 0.74905 0.0
H191 H 0.71722 0.3637 0.63093 0.0
H192 H 0.6367 0.42394 0.6636 0.0
H193 H 0.65796 0.36939 0.65526 0.0
H194 H 0.75243 0.42887 0.74278 0.0
H195 H 0.73023 0.48237 0.75181 0.0
C196 C 0.75884 0.32572 0.7139 0.0
C197 C 0.76565 0.31653 0.67751 0.0
C198 C 0.73749 0.34871 0.7206 0.0
C199 C 0.72318 0.36397 0.69098 0.0
C200 C 0.72761 0.35235 0.65449 0.0
C201 C 0.74852 0.32858 0.64783 0.0
C202 C 0.66159 0.42494 0.68144 0.0
C203 C 0.68188 0.45767 0.70829 0.0
C204 C 0.67401 0.39382 0.67643 0.0
C205 C 0.70709 0.39466 0.69814 0.0
C206 C 0.72634 0.42661 0.72586 0.0
C207 C 0.71375 0.45756 0.731 0.0
H208 H 0.43927 0.73353 0.99039 0.0
H209 H 0.42191 0.84256 0.96669 0.0
H210 H 0.36309 0.69103 0.00868 0.0
H211 H 0.34671 0.8005 0.98518 0.0
H212 H 0.23874 0.73923 0.06897 0.0
H213 H 0.31398 0.77297 0.04954 0.0
H214 H 0.28454 0.66098 0.98323 0.0
H215 H 0.20888 0.62706 0.00252 0.0
C216 C 0.41908 0.74808 0.98819 0.0
C217 C 0.43683 0.79159 0.97744 0.0
C218 C 0.3756 0.72386 0.99891 0.0
C219 C 0.34942 0.74294 0.99929 0.0
C220 C 0.36647 0.78537 0.98612 0.0
C221 C 0.40951 0.80931 0.97519 0.0
C222 C 0.24836 0.72131 0.05093 0.0
C223 C 0.21777 0.6805 0.03715 0.0
C224 C 0.29139 0.74084 0.03949 0.0
C225 C 0.30489 0.71981 0.01442 0.0
C226 C 0.27499 0.6779 0.00251 0.0
C227 C 0.23178 0.65855 0.01359 0.0
H228 H 0.51448 0.24928 0.40097 0.0
H229 H 0.6048 0.23749 0.32941 0.0
H230 H 0.55519 0.32729 0.39384 0.0
H231 H 0.64669 0.31605 0.32329 0.0
H232 H 0.65151 0.46677 0.40178 0.0
H233 H 0.61984 0.38946 0.41033 0.0
H234 H 0.64467 0.37609 0.29516 0.0
H235 H 0.6785 0.45471 0.28715 0.0
C236 C 0.54347 0.26336 0.38421 0.0
C237 C 0.55628 0.23704 0.36571 0.0
C238 C 0.56706 0.30828 0.3802 0.0
C239 C 0.60444 0.32822 0.35798 0.0
C240 C 0.6178 0.3019 0.34016 0.0
C241 C 0.59398 0.25686 0.34396 0.0
C242 C 0.65056 0.44739 0.3783 0.0
C243 C 0.66696 0.46667 0.34364 0.0
C244 C 0.63208 0.40293 0.38315 0.0
C245 C 0.62868 0.37618 0.35328 0.0
C246 C 0.64683 0.39567 0.31885 0.0
C247 C 0.66611 0.44064 0.31415 0.0
H248 H 0.26584 0.70564 0.63628 0.0
H249 H 0.22157 0.6731 0.74926 0.0
H250 H 0.30522 0.6664 0.64267 0.0
H251 H 0.26252 0.63602 0.75656 0.0
H252 H 0.27396 0.51493 0.73014 0.0
H253 H 0.25368 0.56996 0.73737 0.0
H254 H 0.3607 0.65683 0.66779 0.0
H255 H 0.3797 0.60068 0.65938 0.0
C256 C 0.26552 0.69107 0.66274 0.0
C257 C 0.24009 0.6917 0.692 0.0
C258 C 0.2883 0.66875 0.66662 0.0
C259 C 0.2867 0.64734 0.7001 0.0
C260 C 0.26366 0.65093 0.7301 0.0
C261 C 0.24032 0.67241 0.72596 0.0
C262 C 0.2942 0.54634 0.71762 0.0
C263 C 0.32809 0.55327 0.69387 0.0
C264 C 0.28248 0.57809 0.72159 0.0
C265 C 0.30486 0.61772 0.70234 0.0
C266 C 0.34184 0.62629 0.68205 0.0
C267 C 0.35318 0.59433 0.6777 0.0
H268 H 0.79945 0.36942 0.96783 0.0
H269 H 0.75713 0.29506 0.06934 0.0
H270 H 0.72457 0.34252 0.95001 0.0
H271 H 0.68182 0.26949 0.0517 0.0
H272 H 0.55279 0.26374 0.01132 0.0
H273 H 0.62879 0.30577 0.03054 0.0
H274 H 0.66505 0.25422 0.93809 0.0
H275 H 0.58916 0.21099 0.91974 0.0
C276 C 0.77427 0.34791 0.98671 0.0
C277 C 0.78442 0.33366 0.01972 0.0
C278 C 0.73141 0.33269 0.97643 0.0
C279 C 0.69763 0.3039 0.99939 0.0
C280 C 0.70748 0.29188 0.03361 0.0
C281 C 0.75053 0.30643 0.04363 0.0
C282 C 0.5772 0.26247 0.99449 0.0
C283 C 0.56525 0.23449 0.96381 0.0
C284 C 0.62048 0.28606 0.00576 0.0
C285 C 0.65251 0.28295 0.98585 0.0
C286 C 0.64088 0.25722 0.95379 0.0
C287 C 0.59759 0.23273 0.94318 0.0
H288 H 0.3441 0.33571 0.18837 0.0
H289 H 0.25754 0.27268 0.28004 0.0
H290 H 0.36609 0.28124 0.19012 0.0
H291 H 0.28198 0.22088 0.2842 0.0
H292 H 0.34259 0.1396 0.29843 0.0
H293 H 0.2985 0.16781 0.27221 0.0
H294 H 0.41423 0.27857 0.22983 0.0
H295 H 0.457 0.24924 0.25382 0.0
C296 C 0.32879 0.30939 0.20811 0.0
C297 C 0.29978 0.30894 0.23448 0.0
C298 C 0.34196 0.27856 0.20969 0.0
C299 C 0.32766 0.2478 0.2386 0.0
C300 C 0.29425 0.24403 0.2617 0.0
C301 C 0.28004 0.27396 0.25929 0.0
C302 C 0.35829 0.16972 0.28309 0.0
C303 C 0.40332 0.19241 0.27861 0.0
C304 C 0.33307 0.18599 0.26803 0.0
C305 C 0.35247 0.22575 0.24879 0.0
C306 C 0.39747 0.24743 0.24346 0.0
C307 C 0.42237 0.23082 0.25781 0.0
H308 H 0.94124 0.23788 0.61632 0.0
H309 H 0.97908 0.36939 0.58671 0.0
H310 H 0.0166 0.25585 0.6135 0.0
H311 H 0.05418 0.38728 0.58399 0.0
H312 H 0.18763 0.40724 0.57388 0.0
H313 H 0.11183 0.3765 0.5572 0.0
H314 H 0.07477 0.30217 0.65867 0.0
H315 H 0.1506 0.33264 0.67536 0.0
C316 C 0.96536 0.27016 0.60777 0.0
C317 C 0.95431 0.30242 0.60226 0.0
C318 C 0.00859 0.28055 0.60661 0.0
C319 C 0.04136 0.32318 0.59935 0.0
C320 C 0.02972 0.35414 0.58971 0.0
C321 C 0.98662 0.34389 0.59124 0.0
C322 C 0.16338 0.38397 0.5925 0.0
C323 C 0.17521 0.37279 0.62623 0.0
C324 C 0.11995 0.36638 0.58286 0.0
C325 C 0.08734 0.33695 0.60657 0.0
C326 C 0.09917 0.32433 0.63953 0.0
C327 C 0.14263 0.34213 0.6493 0.0
H328 H 0.84971 0.17478 0.9973 0.0
H329 H 0.75059 0.1871 0.93951 0.0
H330 H 0.81557 0.09892 0.97855 0.0
H331 H 0.7153 0.11169 0.92264 0.0
H332 H 0.65435 0.98144 0.8862 0.0
H333 H 0.71217 0.05662 0.88789 0.0
H334 H 0.75653 0.03223 0.99208 0.0
H335 H 0.70117 0.95664 0.98828 0.0
C336 C 0.82046 0.16115 0.98084 0.0
C337 C 0.80263 0.18676 0.97014 0.0
C338 C 0.80086 0.11767 0.97001 0.0
C339 C 0.7626 0.09874 0.94878 0.0
C340 C 0.7453 0.1249 0.93794 0.0
C341 C 0.76525 0.16828 0.94813 0.0
C342 C 0.67802 0.99186 0.90832 0.0
C343 C 0.67326 0.96348 0.93718 0.0
C344 C 0.71065 0.03516 0.90983 0.0
C345 C 0.73794 0.05126 0.94106 0.0
C346 C 0.73623 0.02148 0.96764 0.0
C347 C 0.70446 0.97784 0.96543 0.0
H348 H 0.5535 0.77907 0.24535 0.0
H349 H 0.62135 0.81638 0.35017 0.0
H350 H 0.59488 0.74485 0.22728 0.0
H351 H 0.66253 0.78175 0.33205 0.0
H352 H 0.73813 0.72315 0.29201 0.0
H353 H 0.7147 0.77678 0.28912 0.0
H354 H 0.58872 0.67773 0.25205 0.0
H355 H 0.61208 0.62451 0.25501 0.0
C356 C 0.57761 0.78046 0.26441 0.0
C357 C 0.58338 0.79959 0.29965 0.0
C358 C 0.6014 0.76092 0.25393 0.0
C359 C 0.63161 0.76014 0.27835 0.0
C360 C 0.63973 0.78209 0.31244 0.0
C361 C 0.61588 0.80168 0.32297 0.0
C362 C 0.70608 0.71332 0.28166 0.0
C363 C 0.67675 0.6696 0.27401 0.0
C364 C 0.6925 0.74392 0.28048 0.0
C365 C 0.64966 0.73136 0.271 0.0
C366 C 0.62198 0.68859 0.25936 0.0
C367 C 0.63534 0.658 0.26102 0.0
H368 H 0.04055 0.66494 0.58347 0.0
H369 H 0.06182 0.76698 0.65933 0.0
H370 H 0.96349 0.6399 0.58316 0.0
H371 H 0.98483 0.74004 0.66202 0.0
H372 H 0.8405 0.68291 0.66302 0.0
H373 H 0.91636 0.72176 0.64429 0.0
H374 H 0.91021 0.59927 0.62405 0.0
H375 H 0.83447 0.56153 0.64008 0.0
C376 C 0.02874 0.68269 0.59927 0.0
C377 C 0.05701 0.71778 0.62141 0.0
C378 C 0.98442 0.66784 0.59985 0.0
C379 C 0.96726 0.68663 0.62386 0.0
C380 C 0.99629 0.72445 0.64317 0.0
C381 C 0.04075 0.74015 0.64156 0.0
C382 C 0.85569 0.66462 0.65447 0.0
C383 C 0.83182 0.6193 0.65313 0.0
C384 C 0.89919 0.68678 0.64369 0.0
C385 C 0.91993 0.66397 0.63219 0.0
C386 C 0.89561 0.61845 0.63137 0.0
C387 C 0.85212 0.59655 0.64118 0.0
H388 H 0.35442 0.01557 0.88362 0.0
H389 H 0.30557 0.04873 0.97993 0.0
H390 H 0.29909 0.93994 0.89097 0.0
H391 H 0.25227 0.97301 0.98905 0.0
H392 H 0.15599 0.83014 0.99811 0.0
H393 H 0.19258 0.90514 0.9764 0.0
H394 H 0.29555 0.88843 0.93189 0.0
H395 H 0.25825 0.81389 0.95189 0.0
C396 C 0.33107 0.00676 0.90579 0.0
C397 C 0.33447 0.03792 0.93132 0.0
C398 C 0.29976 0.96329 0.91047 0.0
C399 C 0.2721 0.94986 0.94149 0.0
C400 C 0.27285 0.98179 0.96486 0.0
C401 C 0.30348 0.02544 0.95958 0.0
C402 C 0.18643 0.84271 0.98361 0.0
C403 C 0.20433 0.81617 0.97689 0.0
C404 C 0.20743 0.88568 0.97108 0.0
C405 C 0.24703 0.90313 0.95199 0.0
C406 C 0.2646 0.87621 0.94539 0.0
C407 C 0.24341 0.83336 0.95735 0.0
H408 H 0.94579 0.27244 0.13408 0.0
H409 H 0.99666 0.41053 0.1337 0.0
H410 H 0.99787 0.28117 0.18229 0.0
H411 H 0.04902 0.41936 0.18064 0.0
H412 H 0.12179 0.42517 0.28305 0.0
H413 H 0.05999 0.40851 0.24364 0.0
H414 H 0.07391 0.30833 0.18943 0.0
H415 H 0.13484 0.32411 0.22968 0.0
C416 C 0.96786 0.30458 0.14438 0.0
C417 C 0.96701 0.34075 0.12989 0.0
C418 C 0.99794 0.30966 0.17187 0.0
C419 C 0.02785 0.35102 0.18551 0.0
C420 C 0.02618 0.38692 0.17146 0.0
C421 C 0.9962 0.38186 0.14418 0.0
C422 C 0.11134 0.3992 0.26307 0.0
C423 C 0.13361 0.37627 0.2594 0.0
C424 C 0.076 0.3898 0.24022 0.0
C425 C 0.06212 0.35741 0.21285 0.0
C426 C 0.08329 0.33323 0.2103 0.0
C427 C 0.11848 0.34247 0.23333 0.0
H428 H 0.65912 0.10784 0.59968 0.0
H429 H 0.78486 0.12564 0.5738 0.0
H430 H 0.62657 0.05043 0.55338 0.0
H431 H 0.75222 0.06799 0.52781 0.0
H432 H 0.68485 0.00646 0.41633 0.0
H433 H 0.71833 0.05788 0.46689 0.0
H434 H 0.61075 0.97668 0.53802 0.0
H435 H 0.57692 0.9252 0.48716 0.0
C436 C 0.67981 0.09927 0.58441 0.0
C437 C 0.7247 0.12164 0.59042 0.0
C438 C 0.66108 0.06613 0.55796 0.0
C439 C 0.68676 0.05463 0.53668 0.0
C440 C 0.73152 0.07634 0.54332 0.0
C441 C 0.75022 0.1093 0.56988 0.0
C442 C 0.66845 0.99926 0.44283 0.0
C443 C 0.62808 0.96166 0.44755 0.0
C444 C 0.6878 0.02873 0.47195 0.0
C445 C 0.66723 0.02158 0.50658 0.0
C446 C 0.62728 0.98348 0.5116 0.0
C447 C 0.60803 0.95378 0.4825 0.0
H448 H 0.57122 0.72189 0.92234 0.0
H449 H 0.70766 0.80204 0.94408 0.0
H450 H 0.58601 0.67618 0.88205 0.0
H451 H 0.72242 0.75559 0.90456 0.0
H452 H 0.73483 0.69465 0.79528 0.0
H453 H 0.72285 0.73848 0.84044 0.0
H454 H 0.60883 0.62415 0.87983 0.0
H455 H 0.62014 0.58078 0.8341 0.0
C456 C 0.60435 0.72942 0.919 0.0
C457 C 0.63821 0.76579 0.93644 0.0
C458 C 0.61288 0.70302 0.89595 0.0
C459 C 0.65551 0.71211 0.88982 0.0
C460 C 0.68927 0.74791 0.90805 0.0
C461 C 0.68074 0.7744 0.931 0.0
C462 C 0.70745 0.67884 0.81382 0.0
C463 C 0.67831 0.63422 0.81083 0.0
C464 C 0.70061 0.70396 0.83988 0.0
C465 C 0.66459 0.68504 0.86373 0.0
C466 C 0.63638 0.64012 0.86149 0.0
C467 C 0.64307 0.61513 0.83537 0.0
H468 H 0.02742 0.61024 0.16058 0.0
H469 H 0.03589 0.73014 0.12603 0.0
H470 H 0.97396 0.60025 0.20692 0.0
H471 H 0.98239 0.72032 0.1731 0.0
H472 H 0.84567 0.65469 0.22718 0.0
H473 H 0.90471 0.67194 0.18414 0.0
H474 H 0.96418 0.6287 0.26499 0.0
H475 H 0.90489 0.61087 0.30784 0.0
C476 C 0.01822 0.63478 0.16312 0.0
C477 C 0.03592 0.67096 0.13944 0.0
C478 C 0.98767 0.62914 0.18993 0.0
C479 C 0.97376 0.65943 0.19379 0.0
C480 C 0.99205 0.69613 0.17061 0.0
C481 C 0.02294 0.70192 0.14382 0.0
C482 C 0.87142 0.64901 0.23588 0.0
C483 C 0.8703 0.63107 0.27093 0.0
C484 C 0.90547 0.65924 0.21126 0.0
C485 C 0.93919 0.65162 0.22101 0.0
C486 C 0.93847 0.63447 0.25636 0.0
C487 C 0.90451 0.62439 0.28101 0.0
H488 H 0.32406 0.03347 0.43225 0.0
H489 H 0.4377 0.0533 0.49131 0.0
H490 H 0.27854 0.98302 0.48039 0.0
H491 H 0.3925 0.00402 0.53968 0.0
H492 H 0.29974 0.87539 0.59554 0.0
H493 H 0.34513 0.92862 0.54939 0.0
H494 H 0.25559 0.97638 0.54397 0.0
H495 H 0.20959 0.92233 0.58948 0.0
C496 C 0.33935 0.02745 0.45566 0.0
C497 C 0.38456 0.04729 0.45772 0.0
C498 C 0.31325 0.99864 0.48341 0.0
C499 C 0.33174 0.98907 0.51394 0.0
C500 C 0.377 0.0098 0.51631 0.0
C501 C 0.40299 0.03839 0.48859 0.0
C502 C 0.28981 0.89739 0.5847 0.0
C503 C 0.25092 0.89445 0.59628 0.0
C504 C 0.316 0.92814 0.55828 0.0
C505 C 0.30413 0.95695 0.54278 0.0
C506 C 0.26551 0.95438 0.5548 0.0
C507 C 0.23926 0.92354 0.58117 0.0
H508 H 0.46067 0.33875 0.92454 0.0
H509 H 0.34662 0.21681 0.8996 0.0
H510 H 0.43867 0.37466 0.87926 0.0
H511 H 0.3251 0.25261 0.85349 0.0
H512 H 0.28371 0.33691 0.78868 0.0
H513 H 0.3004 0.3034 0.84066 0.0
H514 H 0.43592 0.37782 0.81335 0.0
H515 H 0.41946 0.41168 0.7624 0.0
C516 C 0.43074 0.31957 0.90956 0.0
C517 C 0.40565 0.27476 0.91562 0.0
C518 C 0.41823 0.34017 0.88332 0.0
C519 C 0.38035 0.31655 0.86217 0.0
C520 C 0.3543 0.27199 0.86932 0.0
C521 C 0.36676 0.25138 0.89573 0.0
C522 C 0.31707 0.34629 0.79399 0.0
C523 C 0.35019 0.37707 0.77128 0.0
C524 C 0.32665 0.32689 0.82369 0.0
C525 C 0.36959 0.33792 0.83146 0.0
C526 C 0.40257 0.36898 0.80882 0.0
C527 C 0.39304 0.38825 0.77928 0.0
H528 H 0.34839 0.34599 0.38534 0.0
H529 H 0.23547 0.3523 0.41787 0.0
H530 H 0.36066 0.33419 0.44965 0.0
H531 H 0.24806 0.34085 0.4824 0.0
H532 H 0.40337 0.41804 0.56138 0.0
H533 H 0.38631 0.38986 0.49859 0.0
H534 H 0.25663 0.29718 0.53284 0.0
H535 H 0.274 0.32529 0.59595 0.0
C536 C 0.32566 0.34404 0.40613 0.0
C537 C 0.29151 0.35117 0.39665 0.0
C538 C 0.33268 0.33709 0.44297 0.0
C539 C 0.30571 0.33708 0.47116 0.0
C540 C 0.26927 0.34029 0.46128 0.0
C541 C 0.2622 0.34722 0.42432 0.0
C542 C 0.37206 0.38995 0.55601 0.0
C543 C 0.33985 0.37446 0.58334 0.0
C544 C 0.36208 0.37385 0.51989 0.0
C545 C 0.31965 0.34215 0.51056 0.0
C546 C 0.28934 0.32222 0.53914 0.0
C547 C 0.29955 0.33794 0.57545 0.0
H548 H 0.89459 0.36448 0.90534 0.0
H549 H 0.93426 0.28215 0.96008 0.0
H550 H 0.87495 0.31895 0.85036 0.0
H551 H 0.91577 0.23728 0.9039 0.0
H552 H 0.9325 0.24695 0.76091 0.0
H553 H 0.94625 0.26383 0.82693 0.0
H554 H 0.81304 0.22817 0.84248 0.0
H555 H 0.79896 0.21047 0.77656 0.0
C556 C 0.89953 0.33691 0.9055 0.0
C557 C 0.91532 0.32662 0.93729 0.0
C558 C 0.88784 0.31064 0.87422 0.0
C559 C 0.89271 0.27405 0.87354 0.0
C560 C 0.91102 0.26495 0.90425 0.0
C561 C 0.92205 0.29094 0.93608 0.0
C562 C 0.90558 0.24018 0.77888 0.0
C563 C 0.86479 0.22788 0.76367 0.0
C564 C 0.91352 0.24995 0.8166 0.0
C565 C 0.88084 0.24791 0.83935 0.0
C566 C 0.83869 0.22999 0.82524 0.0
C567 C 0.83057 0.21952 0.7876 0.0
H568 H 0.465 0.85958 0.24931 0.0
H569 H 0.59408 0.93196 0.29438 0.0
H570 H 0.49457 0.85297 0.1904 0.0
H571 H 0.6236 0.92662 0.23448 0.0
H572 H 0.62867 0.94692 0.0972 0.0
H573 H 0.61589 0.95334 0.16293 0.0
H574 H 0.54293 0.81434 0.1721 0.0
H575 H 0.55643 0.80774 0.10647 0.0
C576 C 0.49969 0.87429 0.24659 0.0
C577 C 0.52705 0.89556 0.27678 0.0
C578 C 0.51652 0.8702 0.21299 0.0
C579 C 0.56119 0.88837 0.20842 0.0
C580 C 0.58896 0.91181 0.2377 0.0
C581 C 0.57203 0.91517 0.27176 0.0
C582 C 0.61131 0.91774 0.11362 0.0
C583 C 0.59326 0.87683 0.09678 0.0
C584 C 0.60406 0.92147 0.15116 0.0
C585 C 0.57801 0.88435 0.17218 0.0
C586 C 0.56296 0.84338 0.1562 0.0
C587 C 0.57095 0.83963 0.1188 0.0
H588 H 0.74001 0.69576 0.43807 0.0
H589 H 0.78857 0.6068 0.43685 0.0
H590 H 0.7318 0.68826 0.50528 0.0
H591 H 0.77986 0.59893 0.50412 0.0
H592 H 0.6597 0.53056 0.58516 0.0
H593 H 0.69899 0.55911 0.5275 0.0
H594 H 0.76175 0.68811 0.573 0.0
H595 H 0.72337 0.65935 0.63175 0.0
C596 C 0.75103 0.67637 0.45243 0.0
C597 C 0.76418 0.65126 0.4323 0.0
C598 C 0.74626 0.67203 0.4909 0.0
C599 C 0.75419 0.6422 0.50956 0.0
C600 C 0.77305 0.62174 0.49011 0.0
C601 C 0.77843 0.62657 0.45167 0.0
C602 C 0.68229 0.56494 0.5832 0.0
C603 C 0.68877 0.59249 0.61328 0.0
C604 C 0.70509 0.58122 0.55028 0.0
C605 C 0.73421 0.62564 0.54623 0.0
C606 C 0.73998 0.65363 0.57576 0.0
C607 C 0.71767 0.63716 0.60915 0.0
H608 H 0.11927 0.64668 0.91621 0.0
H609 H 0.06927 0.72123 0.96896 0.0
H610 H 0.14328 0.69626 0.86374 0.0
H611 H 0.09222 0.77016 0.9153 0.0
H612 H 0.08436 0.77409 0.77582 0.0
H613 H 0.06975 0.75397 0.84115 0.0
H614 H 0.2011 0.7825 0.85574 0.0
H615 H 0.21596 0.8032 0.79046 0.0
C616 C 0.11333 0.6736 0.91657 0.0
C617 C 0.09327 0.68049 0.94715 0.0
C618 C 0.12749 0.70222 0.88674 0.0
C619 C 0.12083 0.73775 0.8862 0.0
C620 C 0.0985 0.74347 0.91559 0.0
C621 C 0.08496 0.71515 0.94598 0.0
C622 C 0.11081 0.7786 0.79354 0.0
C623 C 0.15107 0.7895 0.77807 0.0
C624 C 0.10237 0.76691 0.83088 0.0
C625 C 0.13403 0.7657 0.85297 0.0
C626 C 0.1761 0.78279 0.83893 0.0
C627 C 0.18472 0.79509 0.80168 0.0
H628 H 0.52552 0.13715 0.24263 0.0
H629 H 0.39186 0.05943 0.27538 0.0
H630 H 0.50274 0.14812 0.18168 0.0
H631 H 0.36937 0.06908 0.21344 0.0
H632 H 0.38353 0.06094 0.07557 0.0
H633 H 0.3907 0.04895 0.14146 0.0
H634 H 0.4511 0.18614 0.16132 0.0
H635 H 0.44278 0.19816 0.09541 0.0
C636 C 0.49131 0.12227 0.23681 0.0
C637 C 0.4606 0.0982 0.26417 0.0
C638 C 0.47837 0.12879 0.20204 0.0
C639 C 0.43442 0.11025 0.19345 0.0
C640 C 0.40347 0.08418 0.21983 0.0
C641 C 0.41642 0.07839 0.25506 0.0
C642 C 0.39702 0.08835 0.09428 0.0
C643 C 0.41271 0.13048 0.08057 0.0
C644 C 0.40103 0.08145 0.13185 0.0
C645 C 0.42168 0.11667 0.15609 0.0
C646 C 0.43505 0.15857 0.14292 0.0
C647 C 0.43008 0.16539 0.10542 0.0
loop_
_geom_bond_atom_site_label_1
_geom_bond_atom_site_label_2
_geom_bond_distance
_geom_bond_site_symmetry_2
_ccdc_geom_bond_type
Zn0 O3 2.031 . S
Zn0 O5 2.049 . S
Zn0 O10 2.067 . S
Zn1 O2 1.962 . S
Zn1 O4 1.986 . S
Zn1 O6 1.996 . S
Zn1 O9 1.943 . S
O2 Zn1 1.962 . S
O2 C7 1.254 . S
O3 Zn0 2.031 . S
O3 C7 1.269 . S
O4 Zn1 1.986 . S
O4 C11 1.262 . S
O5 Zn0 2.049 . S
O5 C13 1.260 . S
O6 Zn1 1.996 . S
O6 C13 1.257 . S
C7 O2 1.254 . S
C7 O3 1.269 . S
C8 O9 1.249 . S
C8 O10 1.270 . S
O9 Zn1 1.943 . S
O9 C8 1.249 . S
O10 Zn0 2.067 . S
O10 C8 1.270 . S
C11 O4 1.262 . S
C11 O12 1.232 . S
O12 C11 1.232 . S
C13 O5 1.260 . S
C13 O6 1.257 . S
Zn14 O17 2.031 . S
Zn14 O19 2.049 . S
Zn14 O24 2.067 . S
Zn15 O16 1.962 . S
Zn15 O18 1.986 . S
Zn15 O20 1.996 . S
Zn15 O23 1.943 . S
O16 Zn15 1.962 . S
O16 C21 1.254 . S
O17 Zn14 2.031 . S
O17 C21 1.269 . S
O18 Zn15 1.986 . S
O18 C25 1.262 . S
O19 Zn14 2.049 . S
O19 C27 1.260 . S
O20 Zn15 1.996 . S
O20 C27 1.257 . S
C21 O16 1.254 . S
C21 O17 1.269 . S
C22 O23 1.249 . S
C22 O24 1.270 . S
O23 Zn15 1.943 . S
O23 C22 1.249 . S
O24 Zn14 2.067 . S
O24 C22 1.270 . S
C25 O18 1.262 . S
C25 O26 1.232 . S
O26 C25 1.232 . S
C27 O19 1.260 . S
C27 O20 1.257 . S
Zn28 O31 2.031 . S
Zn28 O33 2.049 . S
Zn28 O38 2.067 . S
Zn29 O30 1.962 . S
Zn29 O32 1.986 . S
Zn29 O34 1.996 . S
Zn29 O37 1.943 1_556 S
O30 Zn29 1.962 . S
O30 C35 1.254 . S
O31 Zn28 2.031 . S
O31 C35 1.269 1_554 S
O32 Zn29 1.986 . S
O32 C39 1.262 . S
O33 Zn28 2.049 . S
O33 C41 1.244 1_554 S
O34 Zn29 1.996 . S
O34 C41 1.265 . S
C35 O30 1.254 . S
C35 O31 1.269 1_556 S
C36 O37 1.249 . S
C36 O38 1.270 . S
O37 Zn29 1.943 1_554 S
O37 C36 1.249 . S
O38 Zn28 2.067 . S
O38 C36 1.270 . S
C39 O32 1.262 . S
C39 O40 1.232 . S
O40 C39 1.232 . S
C41 O33 1.244 1_556 S
C41 O34 1.265 . S
Zn42 O45 2.031 . S
Zn42 O47 2.049 . S
Zn42 O52 2.067 . S
Zn43 O44 1.962 . S
Zn43 O46 1.986 . S
Zn43 O48 1.996 . S
Zn43 O51 1.943 . S
O44 Zn43 1.962 . S
O44 C49 1.254 . S
O45 Zn42 2.031 . S
O45 C49 1.269 . S
O46 Zn43 1.986 . S
O46 C53 1.262 . S
O47 Zn42 2.049 . S
O47 C55 1.260 . S
O48 Zn43 1.996 . S
O48 C55 1.257 . S
C49 O44 1.254 . S
C49 O45 1.269 . S
C50 O51 1.249 . S
C50 O52 1.270 . S
O51 Zn43 1.943 . S
O51 C50 1.249 . S
O52 Zn42 2.067 . S
O52 C50 1.270 . S
C53 O46 1.262 . S
C53 O54 1.232 . S
O54 C53 1.232 . S
C55 O47 1.260 . S
C55 O48 1.257 . S
Zn56 O59 2.031 . S
Zn56 O61 2.049 . S
Zn56 O66 2.067 . S
Zn57 O58 1.962 . S
Zn57 O60 1.986 . S
Zn57 O62 1.996 . S
Zn57 O65 1.943 . S
O58 Zn57 1.962 . S
O58 C63 1.254 . S
O59 Zn56 2.031 . S
O59 C63 1.269 . S
O60 Zn57 1.986 . S
O60 C67 1.262 . S
O61 Zn56 2.049 . S
O61 C69 1.260 . S
O62 Zn57 1.996 . S
O62 C69 1.257 . S
C63 O58 1.254 . S
C63 O59 1.269 . S
C64 O65 1.249 . S
C64 O66 1.270 . S
O65 Zn57 1.943 . S
O65 C64 1.249 . S
O66 Zn56 2.067 . S
O66 C64 1.270 . S
C67 O60 1.262 . S
C67 O68 1.232 . S
O68 C67 1.232 . S
C69 O61 1.260 . S
C69 O62 1.257 . S
Zn70 O73 2.031 . S
Zn70 O75 2.049 . S
Zn70 O80 2.067 . S
Zn71 O72 1.962 . S
Zn71 O74 1.986 . S
Zn71 O76 1.996 . S
Zn71 O79 1.943 1_556 S
O72 Zn71 1.962 . S
O72 C77 1.254 . S
O73 Zn70 2.031 . S
O73 C77 1.269 1_554 S
O74 Zn71 1.986 . S
O74 C81 1.262 . S
O75 Zn70 2.049 . S
O75 C83 1.244 1_554 S
O76 Zn71 1.996 . S
O76 C83 1.265 . S
C77 O72 1.254 . S
C77 O73 1.269 1_556 S
C78 O79 1.249 . S
C78 O80 1.270 . S
O79 Zn71 1.943 1_554 S
O79 C78 1.249 . S
O80 Zn70 2.067 . S
O80 C78 1.270 . S
C81 O74 1.262 . S
C81 O82 1.232 . S
O82 C81 1.232 . S
C83 O75 1.244 1_556 S
C83 O76 1.265 . S
Zn84 O87 2.031 . S
Zn84 O89 2.049 . S
Zn84 O94 2.067 . S
Zn85 O86 1.962 . S
Zn85 O88 1.986 . S
Zn85 O90 1.996 . S
Zn85 O93 1.943 . S
O86 Zn85 1.962 . S
O86 C91 1.254 . S
O87 Zn84 2.031 . S
O87 C91 1.269 . S
O88 Zn85 1.986 . S
O88 C95 1.262 . S
O89 Zn84 2.049 . S
O89 C97 1.260 . S
O90 Zn85 1.996 . S
O90 C97 1.257 . S
C91 O86 1.254 . S
C91 O87 1.269 . S
C92 O93 1.249 . S
C92 O94 1.270 . S
O93 Zn85 1.943 . S
O93 C92 1.249 . S
O94 Zn84 2.067 . S
O94 C92 1.270 . S
C95 O88 1.262 . S
C95 O96 1.232 . S
O96 C95 1.232 . S
C97 O89 1.260 . S
C97 O90 1.257 . S
Zn98 O101 2.031 . S
Zn98 O103 2.049 . S
Zn98 O108 2.067 . S
Zn99 O100 1.962 . S
Zn99 O102 1.986 . S
Zn99 O104 1.996 . S
Zn99 O107 1.943 . S
O100 Zn99 1.962 . S
O100 C105 1.254 . S
O101 Zn98 2.031 . S
O101 C105 1.269 . S
O102 Zn99 1.986 . S
O102 C109 1.262 . S
O103 Zn98 2.049 . S
O103 C111 1.260 . S
O104 Zn99 1.996 . S
O104 C111 1.257 . S
C105 O100 1.254 . S
C105 O101 1.269 . S
C106 O107 1.249 . S
C106 O108 1.270 . S
O107 Zn99 1.943 . S
O107 C106 1.249 . S
O108 Zn98 2.067 . S
O108 C106 1.270 . S
C109 O102 1.262 . S
C109 O110 1.232 . S
O110 C109 1.232 . S
C111 O103 1.260 . S
C111 O104 1.257 . S
Zn112 O115 2.031 . S
Zn112 O117 2.049 . S
Zn112 O122 2.067 . S
Zn113 O114 1.962 . S
Zn113 O116 1.986 . S
Zn113 O118 1.996 . S
Zn113 O121 1.943 1_554 S
O114 Zn113 1.962 . S
O114 C119 1.254 . S
O115 Zn112 2.031 . S
O115 C119 1.269 1_556 S
O116 Zn113 1.986 . S
O116 C123 1.262 . S
O117 Zn112 2.049 . S
O117 C125 1.244 1_556 S
O118 Zn113 1.996 . S
O118 C125 1.265 . S
C119 O114 1.254 . S
C119 O115 1.269 1_554 S
C120 O121 1.249 . S
C120 O122 1.270 . S
O121 Zn113 1.943 1_556 S
O121 C120 1.249 . S
O122 Zn112 2.067 . S
O122 C120 1.270 . S
C123 O116 1.262 . S
C123 O124 1.232 . S
O124 C123 1.232 . S
C125 O117 1.244 1_554 S
C125 O118 1.265 . S
Zn126 O129 2.031 . S
Zn126 O131 2.049 . S
Zn126 O136 2.067 . S
Zn127 O128 1.962 . S
Zn127 O130 1.986 . S
Zn127 O132 1.996 . S
Zn127 O135 1.943 . S
O128 Zn127 1.962 . S
O128 C133 1.254 . S
O129 Zn126 2.031 . S
O129 C133 1.269 . S
O130 Zn127 1.986 . S
O130 C137 1.262 . S
O131 Zn126 2.049 . S
O131 C139 1.260 . S
O132 Zn127 1.996 . S
O132 C139 1.257 . S
C133 O128 1.254 . S
C133 O129 1.269 . S
C134 O135 1.249 . S
C134 O136 1.270 . S
O135 Zn127 1.943 . S
O135 C134 1.249 . S
O136 Zn126 2.067 . S
O136 C134 1.270 . S
C137 O130 1.262 . S
C137 O138 1.232 . S
O138 C137 1.232 . S
C139 O131 1.260 . S
C139 O132 1.257 . S
Zn140 O143 2.031 . S
Zn140 O145 2.049 . S
Zn140 O150 2.067 . S
Zn141 O142 1.962 . S
Zn141 O144 1.986 . S
Zn141 O146 1.996 . S
Zn141 O149 1.943 . S
O142 Zn141 1.962 . S
O142 C147 1.254 . S
O143 Zn140 2.031 . S
O143 C147 1.269 . S
O144 Zn141 1.986 . S
O144 C151 1.262 . S
O145 Zn140 2.049 . S
O145 C153 1.260 . S
O146 Zn141 1.996 . S
O146 C153 1.257 . S
C147 O142 1.254 . S
C147 O143 1.269 . S
C148 O149 1.249 . S
C148 O150 1.270 . S
O149 Zn141 1.943 . S
O149 C148 1.249 . S
O150 Zn140 2.067 . S
O150 C148 1.270 . S
C151 O144 1.262 . S
C151 O152 1.232 . S
O152 C151 1.232 . S
C153 O145 1.260 . S
C153 O146 1.257 . S
Zn154 O157 2.031 . S
Zn154 O159 2.049 . S
Zn154 O164 2.067 . S
Zn155 O156 1.962 . S
Zn155 O158 1.986 . S
Zn155 O160 1.996 . S
Zn155 O163 1.943 1_554 S
O156 Zn155 1.962 . S
O156 C161 1.254 . S
O157 Zn154 2.031 . S
O157 C161 1.269 1_556 S
O158 Zn155 1.986 . S
O158 C165 1.262 . S
O159 Zn154 2.049 . S
O159 C167 1.244 1_556 S
O160 Zn155 1.996 . S
O160 C167 1.265 . S
C161 O156 1.254 . S
C161 O157 1.269 1_554 S
C162 O163 1.249 . S
C162 O164 1.270 . S
O163 Zn155 1.943 1_556 S
O163 C162 1.249 . S
O164 Zn154 2.067 . S
O164 C162 1.270 . S
C165 O158 1.262 . S
C165 O166 1.232 . S
O166 C165 1.232 . S
C167 O159 1.244 1_554 S
C167 O160 1.265 . S
H168 C176 0.950 . S
H169 C181 0.950 . S
H170 C178 0.950 . S
H171 C180 0.950 . S
H172 C182 0.950 . S
H173 C184 0.950 . S
H174 C186 0.950 . S
H175 C187 0.950 . S
C176 H168 0.950 . S
C176 C177 1.386 . S
C176 C178 1.391 . S
C177 C176 1.386 . S
C177 C181 1.393 . S
C178 H170 0.950 . S
C178 C176 1.391 . S
C178 C179 1.400 . S
C179 C178 1.400 . S
C179 C180 1.398 . S
C179 C185 1.491 . S
C180 H171 0.950 . S
C180 C179 1.398 . S
C180 C181 1.391 . S
C181 H169 0.950 . S
C181 C177 1.393 . S
C181 C180 1.391 . S
C182 H172 0.950 . S
C182 C183 1.386 . S
C182 C184 1.391 . S
C183 C182 1.386 . S
C183 C187 1.393 . S
C184 H173 0.950 . S
C184 C182 1.391 . S
C184 C185 1.400 . S
C185 C179 1.491 . S
C185 C184 1.400 . S
C185 C186 1.398 . S
C186 H174 0.950 . S
C186 C185 1.398 . S
C186 C187 1.391 . S
C187 H175 0.950 . S
C187 C183 1.393 . S
C187 C186 1.391 . S
H188 C196 0.950 . S
H189 C201 0.950 . S
H190 C198 0.950 . S
H191 C200 0.950 . S
H192 C202 0.950 . S
H193 C204 0.950 . S
H194 C206 0.950 . S
H195 C207 0.950 . S
C196 H188 0.950 . S
C196 C197 1.386 . S
C196 C198 1.391 . S
C197 C196 1.386 . S
C197 C201 1.393 . S
C198 H190 0.950 . S
C198 C196 1.391 . S
C198 C199 1.400 . S
C199 C198 1.400 . S
C199 C200 1.398 . S
C199 C205 1.491 . S
C200 H191 0.950 . S
C200 C199 1.398 . S
C200 C201 1.391 . S
C201 H189 0.950 . S
C201 C197 1.393 . S
C201 C200 1.391 . S
C202 H192 0.950 . S
C202 C203 1.386 . S
C202 C204 1.391 . S
C203 C202 1.386 . S
C203 C207 1.393 . S
C204 H193 0.950 . S
C204 C202 1.391 . S
C204 C205 1.400 . S
C205 C199 1.491 . S
C205 C204 1.400 . S
C205 C206 1.398 . S
C206 H194 0.950 . S
C206 C205 1.398 . S
C206 C207 1.391 . S
C207 H195 0.950 . S
C207 C203 1.393 . S
C207 C206 1.391 . S
H208 C216 0.950 . S
H209 C221 0.950 . S
H210 C218 0.950 . S
H211 C220 0.950 . S
H212 C222 0.950 . S
H213 C224 0.950 . S
H214 C226 0.950 . S
H215 C227 0.950 . S
C216 H208 0.950 . S
C216 C217 1.386 . S
C216 C218 1.391 . S
C217 C216 1.386 . S
C217 C221 1.393 1_556 S
C218 H210 0.950 . S
C218 C216 1.391 . S
C218 C219 1.404 . S
C219 C218 1.404 . S
C219 C220 1.395 1_556 S
C219 C225 1.490 1_556 S
C220 H211 0.950 . S
C220 C219 1.395 1_554 S
C220 C221 1.391 . S
C221 H209 0.950 . S
C221 C217 1.393 1_554 S
C221 C220 1.391 . S
C222 H212 0.950 . S
C222 C223 1.386 . S
C222 C224 1.391 . S
C223 C222 1.386 . S
C223 C227 1.393 1_554 S
C224 H213 0.950 . S
C224 C222 1.391 . S
C224 C225 1.403 . S
C225 C219 1.490 1_554 S
C225 C224 1.403 . S
C225 C226 1.396 1_554 S
C226 H214 0.950 . S
C226 C225 1.396 1_556 S
C226 C227 1.391 . S
C227 H215 0.950 . S
C227 C223 1.393 1_556 S
C227 C226 1.391 . S
H228 C236 0.950 . S
H229 C241 0.950 . S
H230 C238 0.950 . S
H231 C240 0.950 . S
H232 C242 0.950 . S
H233 C244 0.950 . S
H234 C246 0.950 . S
H235 C247 0.950 . S
C236 H228 0.950 . S
C236 C237 1.386 . S
C236 C238 1.391 . S
C237 C236 1.386 . S
C237 C241 1.393 . S
C238 H230 0.950 . S
C238 C236 1.391 . S
C238 C239 1.400 . S
C239 C238 1.400 . S
C239 C240 1.398 . S
C239 C245 1.491 . S
C240 H231 0.950 . S
C240 C239 1.398 . S
C240 C241 1.391 . S
C241 H229 0.950 . S
C241 C237 1.393 . S
C241 C240 1.391 . S
C242 H232 0.950 . S
C242 C243 1.386 . S
C242 C244 1.391 . S
C243 C242 1.386 . S
C243 C247 1.393 . S
C244 H233 0.950 . S
C244 C242 1.391 . S
C244 C245 1.400 . S
C245 C239 1.491 . S
C245 C244 1.400 . S
C245 C246 1.398 . S
C246 H234 0.950 . S
C246 C245 1.398 . S
C246 C247 1.391 . S
C247 H235 0.950 . S
C247 C243 1.393 . S
C247 C246 1.391 . S
H248 C256 0.950 . S
H249 C261 0.950 . S
H250 C258 0.950 . S
H251 C260 0.950 . S
H252 C262 0.950 . S
H253 C264 0.950 . S
H254 C266 0.950 . S
H255 C267 0.950 . S
C256 H248 0.950 . S
C256 C257 1.386 . S
C256 C258 1.391 . S
C257 C256 1.386 . S
C257 C261 1.393 . S
C258 H250 0.950 . S
C258 C256 1.391 . S
C258 C259 1.400 . S
C259 C258 1.400 . S
C259 C260 1.398 . S
C259 C265 1.491 . S
C260 H251 0.950 . S
C260 C259 1.398 . S
C260 C261 1.391 . S
C261 H249 0.950 . S
C261 C257 1.393 . S
C261 C260 1.391 . S
C262 H252 0.950 . S
C262 C263 1.386 . S
C262 C264 1.391 . S
C263 C262 1.386 . S
C263 C267 1.393 . S
C264 H253 0.950 . S
C264 C262 1.391 . S
C264 C265 1.400 . S
C265 C259 1.491 . S
C265 C264 1.400 . S
C265 C266 1.398 . S
C266 H254 0.950 . S
C266 C265 1.398 . S
C266 C267 1.391 . S
C267 H255 0.950 . S
C267 C263 1.393 . S
C267 C266 1.391 . S
H268 C276 0.950 . S
H269 C281 0.950 . S
H270 C278 0.950 . S
H271 C280 0.950 . S
H272 C282 0.950 . S
H273 C284 0.950 . S
H274 C286 0.950 . S
H275 C287 0.950 . S
C276 H268 0.950 . S
C276 C277 1.386 1_556 S
C276 C278 1.391 . S
C277 C276 1.386 1_554 S
C277 C281 1.393 . S
C278 H270 0.950 . S
C278 C276 1.391 . S
C278 C279 1.400 1_556 S
C279 C278 1.400 1_554 S
C279 C280 1.398 . S
C279 C285 1.491 1_554 S
C280 H271 0.950 . S
C280 C279 1.398 . S
C280 C281 1.391 . S
C281 H269 0.950 . S
C281 C277 1.393 . S
C281 C280 1.391 . S
C282 H272 0.950 . S
C282 C283 1.386 1_554 S
C282 C284 1.391 . S
C283 C282 1.386 1_556 S
C283 C287 1.393 . S
C284 H273 0.950 . S
C284 C282 1.391 . S
C284 C285 1.400 1_554 S
C285 C279 1.491 1_556 S
C285 C284 1.400 1_556 S
C285 C286 1.398 . S
C286 H274 0.950 . S
C286 C285 1.398 . S
C286 C287 1.391 . S
C287 H275 0.950 . S
C287 C283 1.393 . S
C287 C286 1.391 . S
H288 C296 0.950 . S
H289 C301 0.950 . S
H290 C298 0.950 . S
H291 C300 0.950 . S
H292 C302 0.950 . S
H293 C304 0.950 . S
H294 C306 0.950 . S
H295 C307 0.950 . S
C296 H288 0.950 . S
C296 C297 1.386 . S
C296 C298 1.391 . S
C297 C296 1.386 . S
C297 C301 1.393 . S
C298 H290 0.950 . S
C298 C296 1.391 . S
C298 C299 1.400 . S
C299 C298 1.400 . S
C299 C300 1.398 . S
C299 C305 1.491 . S
C300 H291 0.950 . S
C300 C299 1.398 . S
C300 C301 1.391 . S
C301 H289 0.950 . S
C301 C297 1.393 . S
C301 C300 1.391 . S
C302 H292 0.950 . S
C302 C303 1.386 . S
C302 C304 1.391 . S
C303 C302 1.386 . S
C303 C307 1.393 . S
C304 H293 0.950 . S
C304 C302 1.391 . S
C304 C305 1.400 . S
C305 C299 1.491 . S
C305 C304 1.400 . S
C305 C306 1.398 . S
C306 H294 0.950 . S
C306 C305 1.398 . S
C306 C307 1.391 . S
C307 H295 0.950 . S
C307 C303 1.393 . S
C307 C306 1.391 . S
H308 C316 0.950 . S
H309 C321 0.950 . S
H310 C318 0.950 . S
H311 C320 0.950 . S
H312 C322 0.950 . S
H313 C324 0.950 . S
H314 C326 0.950 . S
H315 C327 0.950 . S
C316 H308 0.950 . S
C316 C317 1.386 . S
C316 C318 1.391 . S
C317 C316 1.386 . S
C317 C321 1.393 . S
C318 H310 0.950 . S
C318 C316 1.391 . S
C318 C319 1.400 . S
C319 C318 1.400 . S
C319 C320 1.398 . S
C319 C325 1.491 1_655 S
C320 H311 0.950 . S
C320 C319 1.398 . S
C320 C321 1.391 . S
C321 H309 0.950 . S
C321 C317 1.393 . S
C321 C320 1.391 . S
C322 H312 0.950 . S
C322 C323 1.386 . S
C322 C324 1.391 . S
C323 C322 1.386 . S
C323 C327 1.393 . S
C324 H313 0.950 . S
C324 C322 1.391 . S
C324 C325 1.400 . S
C325 C319 1.491 1_455 S
C325 C324 1.400 . S
C325 C326 1.398 . S
C326 H314 0.950 . S
C326 C325 1.398 . S
C326 C327 1.391 . S
C327 H315 0.950 . S
C327 C323 1.393 . S
C327 C326 1.391 . S
H328 C336 0.950 . S
H329 C341 0.953 . S
H330 C338 0.950 . S
H331 C340 0.949 1_556 S
H332 C342 0.950 . S
H333 C344 0.950 . S
H334 C346 0.951 1_554 S
H335 C347 0.952 . S
C336 H328 0.950 . S
C336 C337 1.386 . S
C336 C338 1.391 . S
C337 C336 1.386 . S
C337 C341 1.393 . S
C338 H330 0.950 . S
C338 C336 1.391 . S
C338 C339 1.400 . S
C339 C338 1.400 . S
C339 C340 1.399 . S
C339 C345 1.491 1_544 S
C340 H331 0.949 1_554 S
C340 C339 1.399 . S
C340 C341 1.391 . S
C341 H329 0.953 . S
C341 C337 1.393 . S
C341 C340 1.391 . S
C342 H332 0.950 . S
C342 C343 1.386 . S
C342 C344 1.391 . S
C343 C342 1.386 . S
C343 C347 1.393 . S
C344 H333 0.950 . S
C344 C342 1.391 . S
C344 C345 1.400 . S
C345 C339 1.491 1_566 S
C345 C344 1.400 . S
C345 C346 1.398 . S
C346 H334 0.951 1_556 S
C346 C345 1.398 . S
C346 C347 1.390 . S
C347 H335 0.952 . S
C347 C343 1.393 . S
C347 C346 1.390 . S
H348 C356 0.950 . S
H349 C361 0.950 . S
H350 C358 0.950 . S
H351 C360 0.950 . S
H352 C362 0.950 . S
H353 C364 0.950 . S
H354 C366 0.950 . S
H355 C367 0.950 . S
C356 H348 0.950 . S
C356 C357 1.386 . S
C356 C358 1.391 . S
C357 C356 1.386 . S
C357 C361 1.393 . S
C358 H350 0.950 . S
C358 C356 1.391 . S
C358 C359 1.400 . S
C359 C358 1.400 . S
C359 C360 1.398 . S
C359 C365 1.491 . S
C360 H351 0.950 . S
C360 C359 1.398 . S
C360 C361 1.391 . S
C361 H349 0.950 . S
C361 C357 1.393 . S
C361 C360 1.391 . S
C362 H352 0.950 . S
C362 C363 1.386 . S
C362 C364 1.391 . S
C363 C362 1.386 . S
C363 C367 1.393 . S
C364 H353 0.950 . S
C364 C362 1.391 . S
C364 C365 1.400 . S
C365 C359 1.491 . S
C365 C364 1.400 . S
C365 C366 1.398 . S
C366 H354 0.950 . S
C366 C365 1.398 . S
C366 C367 1.391 . S
C367 H355 0.950 . S
C367 C363 1.393 . S
C367 C366 1.391 . S
H368 C376 0.950 . S
H369 C381 0.950 . S
H370 C378 0.950 . S
H371 C380 0.950 . S
H372 C382 0.950 . S
H373 C384 0.950 . S
H374 C386 0.950 . S
H375 C387 0.950 . S
C376 H368 0.950 . S
C376 C377 1.386 . S
C376 C378 1.391 . S
C377 C376 1.386 . S
C377 C381 1.393 . S
C378 H370 0.950 . S
C378 C376 1.391 . S
C378 C379 1.400 . S
C379 C378 1.400 . S
C379 C380 1.398 . S
C379 C385 1.491 1_455 S
C380 H371 0.950 . S
C380 C379 1.398 . S
C380 C381 1.391 . S
C381 H369 0.950 . S
C381 C377 1.393 . S
C381 C380 1.391 . S
C382 H372 0.950 . S
C382 C383 1.386 . S
C382 C384 1.391 . S
C383 C382 1.386 . S
C383 C387 1.393 . S
C384 H373 0.950 . S
C384 C382 1.391 . S
C384 C385 1.400 . S
C385 C379 1.491 1_655 S
C385 C384 1.400 . S
C385 C386 1.398 . S
C386 H374 0.950 . S
C386 C385 1.398 . S
C386 C387 1.391 . S
C387 H375 0.950 . S
C387 C383 1.393 . S
C387 C386 1.391 . S
H388 C396 0.950 . S
H389 C401 0.948 1_554 S
H390 C398 0.950 . S
H391 C400 0.950 . S
H392 C402 0.950 . S
H393 C404 0.950 . S
H394 C406 0.950 . S
H395 C407 0.949 1_556 S
C396 H388 0.950 . S
C396 C397 1.386 . S
C396 C398 1.391 . S
C397 C396 1.386 . S
C397 C401 1.397 . S
C398 H390 0.950 . S
C398 C396 1.391 . S
C398 C399 1.400 . S
C399 C398 1.400 . S
C399 C400 1.398 1_556 S
C399 C405 1.491 1_546 S
C400 H391 0.950 . S
C400 C399 1.398 1_554 S
C400 C401 1.389 1_554 S
C401 H389 0.948 1_556 S
C401 C397 1.397 . S
C401 C400 1.389 1_556 S
C402 H392 0.950 . S
C402 C403 1.386 . S
C402 C404 1.391 . S
C403 C402 1.386 . S
C403 C407 1.395 . S
C404 H393 0.950 . S
C404 C402 1.391 . S
C404 C405 1.400 . S
C405 C399 1.491 1_564 S
C405 C404 1.400 . S
C405 C406 1.398 1_554 S
C406 H394 0.950 . S
C406 C405 1.398 1_556 S
C406 C407 1.389 1_556 S
C407 H395 0.949 1_554 S
C407 C403 1.395 . S
C407 C406 1.389 1_554 S
H408 C416 0.950 . S
H409 C421 0.950 . S
H410 C418 0.950 . S
H411 C420 0.950 . S
H412 C422 0.950 . S
H413 C424 0.950 . S
H414 C426 0.950 . S
H415 C427 0.950 . S
C416 H408 0.950 . S
C416 C417 1.386 . S
C416 C418 1.391 . S
C417 C416 1.386 . S
C417 C421 1.393 . S
C418 H410 0.950 . S
C418 C416 1.391 . S
C418 C419 1.400 . S
C419 C418 1.400 . S
C419 C420 1.398 . S
C419 C425 1.491 1_655 S
C420 H411 0.950 . S
C420 C419 1.398 . S
C420 C421 1.391 . S
C421 H409 0.950 . S
C421 C417 1.393 . S
C421 C420 1.391 . S
C422 H412 0.950 . S
C422 C423 1.386 . S
C422 C424 1.391 . S
C423 C422 1.386 . S
C423 C427 1.393 . S
C424 H413 0.950 . S
C424 C422 1.391 . S
C424 C425 1.400 . S
C425 C419 1.491 1_455 S
C425 C424 1.400 . S
C425 C426 1.398 . S
C426 H414 0.950 . S
C426 C425 1.398 . S
C426 C427 1.391 . S
C427 H415 0.950 . S
C427 C423 1.393 . S
C427 C426 1.391 . S
H428 C436 0.950 . S
H429 C441 0.950 . S
H430 C438 0.947 1_565 S
H431 C440 0.950 . S
H432 C442 0.950 . S
H433 C444 0.948 1_545 S
H434 C446 0.950 . S
H435 C447 0.950 . S
C436 H428 0.950 . S
C436 C437 1.386 . S
C436 C438 1.393 . S
C437 C436 1.386 . S
C437 C441 1.393 . S
C438 H430 0.947 1_545 S
C438 C436 1.393 . S
C438 C439 1.401 . S
C439 C438 1.401 . S
C439 C440 1.398 . S
C439 C445 1.491 1_545 S
C440 H431 0.950 . S
C440 C439 1.398 . S
C440 C441 1.391 . S
C441 H429 0.950 . S
C441 C437 1.393 . S
C441 C440 1.391 . S
C442 H432 0.950 . S
C442 C443 1.386 . S
C442 C444 1.393 . S
C443 C442 1.386 . S
C443 C447 1.393 . S
C444 H433 0.948 1_565 S
C444 C442 1.393 . S
C444 C445 1.400 . S
C445 C439 1.491 1_565 S
C445 C444 1.400 . S
C445 C446 1.398 . S
C446 H434 0.950 . S
C446 C445 1.398 . S
C446 C447 1.391 . S
C447 H435 0.950 . S
C447 C443 1.393 . S
C447 C446 1.391 . S
H448 C456 0.950 . S
H449 C461 0.950 . S
H450 C458 0.950 . S
H451 C460 0.950 . S
H452 C462 0.950 . S
H453 C464 0.950 . S
H454 C466 0.950 . S
H455 C467 0.950 . S
C456 H448 0.950 . S
C456 C457 1.386 . S
C456 C458 1.391 . S
C457 C456 1.386 . S
C457 C461 1.393 . S
C458 H450 0.950 . S
C458 C456 1.391 . S
C458 C459 1.400 . S
C459 C458 1.400 . S
C459 C460 1.398 . S
C459 C465 1.491 . S
C460 H451 0.950 . S
C460 C459 1.398 . S
C460 C461 1.391 . S
C461 H449 0.950 . S
C461 C457 1.393 . S
C461 C460 1.391 . S
C462 H452 0.950 . S
C462 C463 1.386 . S
C462 C464 1.391 . S
C463 C462 1.386 . S
C463 C467 1.393 . S
C464 H453 0.950 . S
C464 C462 1.391 . S
C464 C465 1.400 . S
C465 C459 1.491 . S
C465 C464 1.400 . S
C465 C466 1.398 . S
C466 H454 0.950 . S
C466 C465 1.398 . S
C466 C467 1.391 . S
C467 H455 0.950 . S
C467 C463 1.393 . S
C467 C466 1.391 . S
H468 C476 0.950 . S
H469 C481 0.950 . S
H470 C478 0.950 . S
H471 C480 0.950 . S
H472 C482 0.950 . S
H473 C484 0.950 . S
H474 C486 0.950 . S
H475 C487 0.950 . S
C476 H468 0.950 . S
C476 C477 1.386 . S
C476 C478 1.391 . S
C477 C476 1.386 . S
C477 C481 1.393 . S
C478 H470 0.950 . S
C478 C476 1.391 . S
C478 C479 1.400 . S
C479 C478 1.400 . S
C479 C480 1.398 . S
C479 C485 1.491 1_455 S
C480 H471 0.950 . S
C480 C479 1.398 . S
C480 C481 1.391 . S
C481 H469 0.950 . S
C481 C477 1.393 . S
C481 C480 1.391 . S
C482 H472 0.950 . S
C482 C483 1.386 . S
C482 C484 1.391 . S
C483 C482 1.386 . S
C483 C487 1.393 . S
C484 H473 0.950 . S
C484 C482 1.391 . S
C484 C485 1.400 . S
C485 C479 1.491 1_655 S
C485 C484 1.400 . S
C485 C486 1.398 . S
C486 H474 0.950 . S
C486 C485 1.398 . S
C486 C487 1.391 . S
C487 H475 0.950 . S
C487 C483 1.393 . S
C487 C486 1.391 . S
H488 C496 0.950 . S
H489 C501 0.950 . S
H490 C498 0.950 . S
H491 C500 0.950 . S
H492 C502 0.950 . S
H493 C504 0.950 . S
H494 C506 0.950 . S
H495 C507 0.950 . S
C496 H488 0.950 . S
C496 C497 1.386 . S
C496 C498 1.391 . S
C497 C496 1.386 . S
C497 C501 1.393 . S
C498 H490 0.950 . S
C498 C496 1.391 . S
C498 C499 1.400 . S
C499 C498 1.400 . S
C499 C500 1.398 1_545 S
C499 C505 1.491 1_545 S
C500 H491 0.950 . S
C500 C499 1.398 1_565 S
C500 C501 1.391 1_565 S
C501 H489 0.950 . S
C501 C497 1.393 . S
C501 C500 1.391 1_545 S
C502 H492 0.950 . S
C502 C503 1.386 . S
C502 C504 1.391 . S
C503 C502 1.386 . S
C503 C507 1.393 . S
C504 H493 0.950 . S
C504 C502 1.391 . S
C504 C505 1.400 . S
C505 C499 1.491 1_565 S
C505 C504 1.400 . S
C505 C506 1.398 1_565 S
C506 H494 0.950 . S
C506 C505 1.398 1_545 S
C506 C507 1.391 1_545 S
C507 H495 0.950 . S
C507 C503 1.393 . S
C507 C506 1.391 1_565 S
H508 C516 0.950 . S
H509 C521 0.950 . S
H510 C518 0.950 . S
H511 C520 0.950 . S
H512 C522 0.950 . S
H513 C524 0.950 . S
H514 C526 0.950 . S
H515 C527 0.950 . S
C516 H508 0.950 . S
C516 C517 1.386 . S
C516 C518 1.391 . S
C517 C516 1.386 . S
C517 C521 1.393 . S
C518 H510 0.950 . S
C518 C516 1.391 . S
C518 C519 1.400 . S
C519 C518 1.400 . S
C519 C520 1.398 . S
C519 C525 1.491 . S
C520 H511 0.950 . S
C520 C519 1.398 . S
C520 C521 1.391 . S
C521 H509 0.950 . S
C521 C517 1.393 . S
C521 C520 1.391 . S
C522 H512 0.950 . S
C522 C523 1.386 . S
C522 C524 1.391 . S
C523 C522 1.386 . S
C523 C527 1.393 . S
C524 H513 0.950 . S
C524 C522 1.391 . S
C524 C525 1.400 . S
C525 C519 1.491 . S
C525 C524 1.400 . S
C525 C526 1.398 . S
C526 H514 0.950 . S
C526 C525 1.398 . S
C526 C527 1.391 . S
C527 H515 0.950 . S
C527 C523 1.393 . S
C527 C526 1.391 . S
H528 C536 0.950 . S
H529 C541 0.950 . S
H530 C538 0.950 . S
H531 C540 0.950 . S
H532 C542 0.950 . S
H533 C544 0.950 . S
H534 C546 0.950 . S
H535 C547 0.950 . S
C536 H528 0.950 . S
C536 C537 1.386 . S
C536 C538 1.391 . S
C537 C536 1.386 . S
C537 C541 1.393 . S
C538 H530 0.950 . S
C538 C536 1.391 . S
C538 C539 1.400 . S
C539 C538 1.400 . S
C539 C540 1.398 . S
C539 C545 1.491 . S
C540 H531 0.950 . S
C540 C539 1.398 . S
C540 C541 1.391 . S
C541 H529 0.950 . S
C541 C537 1.393 . S
C541 C540 1.391 . S
C542 H532 0.950 . S
C542 C543 1.386 . S
C542 C544 1.391 . S
C543 C542 1.386 . S
C543 C547 1.393 . S
C544 H533 0.950 . S
C544 C542 1.391 . S
C544 C545 1.400 . S
C545 C539 1.491 . S
C545 C544 1.400 . S
C545 C546 1.398 . S
C546 H534 0.950 . S
C546 C545 1.398 . S
C546 C547 1.391 . S
C547 H535 0.950 . S
C547 C543 1.393 . S
C547 C546 1.391 . S
H548 C556 0.950 . S
H549 C561 0.950 . S
H550 C558 0.950 . S
H551 C560 0.950 . S
H552 C562 0.950 . S
H553 C564 0.950 . S
H554 C566 0.950 . S
H555 C567 0.950 . S
C556 H548 0.950 . S
C556 C557 1.386 . S
C556 C558 1.391 . S
C557 C556 1.386 . S
C557 C561 1.393 . S
C558 H550 0.950 . S
C558 C556 1.391 . S
C558 C559 1.400 . S
C559 C558 1.400 . S
C559 C560 1.398 . S
C559 C565 1.491 . S
C560 H551 0.950 . S
C560 C559 1.398 . S
C560 C561 1.391 . S
C561 H549 0.950 . S
C561 C557 1.393 . S
C561 C560 1.391 . S
C562 H552 0.950 . S
C562 C563 1.386 . S
C562 C564 1.391 . S
C563 C562 1.386 . S
C563 C567 1.393 . S
C564 H553 0.950 . S
C564 C562 1.391 . S
C564 C565 1.400 . S
C565 C559 1.491 . S
C565 C564 1.400 . S
C565 C566 1.398 . S
C566 H554 0.950 . S
C566 C565 1.398 . S
C566 C567 1.391 . S
C567 H555 0.950 . S
C567 C563 1.393 . S
C567 C566 1.391 . S
H568 C576 0.950 . S
H569 C581 0.950 . S
H570 C578 0.950 . S
H571 C580 0.950 . S
H572 C582 0.950 . S
H573 C584 0.950 . S
H574 C586 0.950 . S
H575 C587 0.950 . S
C576 H568 0.950 . S
C576 C577 1.386 . S
C576 C578 1.391 . S
C577 C576 1.386 . S
C577 C581 1.393 . S
C578 H570 0.950 . S
C578 C576 1.391 . S
C578 C579 1.400 . S
C579 C578 1.400 . S
C579 C580 1.398 . S
C579 C585 1.491 . S
C580 H571 0.950 . S
C580 C579 1.398 . S
C580 C581 1.391 . S
C581 H569 0.950 . S
C581 C577 1.393 . S
C581 C580 1.391 . S
C582 H572 0.950 . S
C582 C583 1.386 . S
C582 C584 1.391 . S
C583 C582 1.386 . S
C583 C587 1.393 . S
C584 H573 0.950 . S
C584 C582 1.391 . S
C584 C585 1.400 . S
C585 C579 1.491 . S
C585 C584 1.400 . S
C585 C586 1.398 . S
C586 H574 0.950 . S
C586 C585 1.398 . S
C586 C587 1.391 . S
C587 H575 0.950 . S
C587 C583 1.393 . S
C587 C586 1.391 . S
H588 C596 0.950 . S
H589 C601 0.950 . S
H590 C598 0.950 . S
H591 C600 0.950 . S
H592 C602 0.950 . S
H593 C604 0.950 . S
H594 C606 0.950 . S
H595 C607 0.950 . S
C596 H588 0.950 . S
C596 C597 1.386 . S
C596 C598 1.391 . S
C597 C596 1.386 . S
C597 C601 1.393 . S
C598 H590 0.950 . S
C598 C596 1.391 . S
C598 C599 1.400 . S
C599 C598 1.400 . S
C599 C600 1.398 . S
C599 C605 1.491 . S
C600 H591 0.950 . S
C600 C599 1.398 . S
C600 C601 1.391 . S
C601 H589 0.950 . S
C601 C597 1.393 . S
C601 C600 1.391 . S
C602 H592 0.950 . S
C602 C603 1.386 . S
C602 C604 1.391 . S
C603 C602 1.386 . S
C603 C607 1.393 . S
C604 H593 0.950 . S
C604 C602 1.391 . S
C604 C605 1.400 . S
C605 C599 1.491 . S
C605 C604 1.400 . S
C605 C606 1.398 . S
C606 H594 0.950 . S
C606 C605 1.398 . S
C606 C607 1.391 . S
C607 H595 0.950 . S
C607 C603 1.393 . S
C607 C606 1.391 . S
H608 C616 0.950 . S
H609 C621 0.950 . S
H610 C618 0.950 . S
H611 C620 0.950 . S
H612 C622 0.950 . S
H613 C624 0.950 . S
H614 C626 0.950 . S
H615 C627 0.950 . S
C616 H608 0.950 . S
C616 C617 1.386 . S
C616 C618 1.391 . S
C617 C616 1.386 . S
C617 C621 1.393 . S
C618 H610 0.950 . S
C618 C616 1.391 . S
C618 C619 1.400 . S
C619 C618 1.400 . S
C619 C620 1.398 . S
C619 C625 1.491 . S
C620 H611 0.950 . S
C620 C619 1.398 . S
C620 C621 1.391 . S
C621 H609 0.950 . S
C621 C617 1.393 . S
C621 C620 1.391 . S
C622 H612 0.950 . S
C622 C623 1.386 . S
C622 C624 1.391 . S
C623 C622 1.386 . S
C623 C627 1.393 . S
C624 H613 0.950 . S
C624 C622 1.391 . S
C624 C625 1.400 . S
C625 C619 1.491 . S
C625 C624 1.400 . S
C625 C626 1.398 . S
C626 H614 0.950 . S
C626 C625 1.398 . S
C626 C627 1.391 . S
C627 H615 0.950 . S
C627 C623 1.393 . S
C627 C626 1.391 . S
H628 C636 0.950 . S
H629 C641 0.950 . S
H630 C638 0.950 . S
H631 C640 0.950 . S
H632 C642 0.950 . S
H633 C644 0.950 . S
H634 C646 0.950 . S
H635 C647 0.950 . S
C636 H628 0.950 . S
C636 C637 1.386 . S
C636 C638 1.391 . S
C637 C636 1.386 . S
C637 C641 1.393 . S
C638 H630 0.950 . S
C638 C636 1.391 . S
C638 C639 1.400 . S
C639 C638 1.400 . S
C639 C640 1.398 . S
C639 C645 1.491 . S
C640 H631 0.950 . S
C640 C639 1.398 . S
C640 C641 1.391 . S
C641 H629 0.950 . S
C641 C637 1.393 . S
C641 C640 1.391 . S
C642 H632 0.950 . S
C642 C643 1.386 . S
C642 C644 1.391 . S
C643 C642 1.386 . S
C643 C647 1.393 . S
C644 H633 0.950 . S
C644 C642 1.391 . S
C644 C645 1.400 . S
C645 C639 1.491 . S
C645 C644 1.400 . S
C645 C646 1.398 . S
C646 H634 0.950 . S
C646 C645 1.398 . S
C646 C647 1.391 . S
C647 H635 0.950 . S
C647 C643 1.393 . S
C647 C646 1.391 . S
C177 C7 1.350 . S
C183 C91 1.327 . S
C197 C21 1.323 . S
C203 C105 1.345 . S
C217 C35 1.314 . S
C223 C119 1.312 . S
C237 C133 1.340 . S
C243 C49 1.345 . S
C257 C63 1.351 . S
C263 C147 1.324 . S
C277 C161 1.309 . S
C283 C77 1.333 . S
C297 C13 0.852 . S
C303 C139 0.852 . S
C317 C27 0.907 . S
C323 C153 0.861 . S
C337 C167 0.885 . S
C343 C41 0.898 . S
C357 C97 0.903 . S
C363 C55 0.846 . S
C377 C69 0.870 . S
C383 C111 0.839 . S
C397 C83 0.850 . S
C403 C125 0.849 . S
C417 C165 1.767 . S
C423 C11 1.764 . S
C437 C25 1.784 . S
C443 C95 1.785 . S
C457 C39 1.761 . S
C463 C109 1.757 . S
C477 C123 1.754 . S
C483 C53 1.750 . S
C497 C137 1.790 . S
C503 C67 1.789 . S
C517 C81 1.754 . S
C523 C151 1.750 . S
C537 C8 0.683 . S
C543 C148 0.698 . S
C557 C162 0.712 . S
C563 C22 0.729 . S
C577 C92 0.748 . S
C583 C36 0.757 . S
C597 C50 0.658 . S
C603 C106 0.666 . S
C617 C120 0.750 . S
C623 C64 0.758 . S
C637 C134 0.708 . S
C643 C78 0.726 . S
