# Generated by pormake.
# Topology pem, (4)-cn, num edge types: 1
# Building blocks:
#     Node 0, Type 0, BuildingBlock: QUQFOY_clean_sbu_1, # of connection points: 4
#     Node 1, Type 0, BuildingBlock: QUQFOY_clean_sbu_1, # of connection points: 4
#     Node 2, Type 0, BuildingBlock: QUQFOY_clean_sbu_1, # of connection points: 4
#     Node 3, Type 0, BuildingBlock: QUQFOY_clean_sbu_1, # of connection points: 4
#     Node 4, Type 0, BuildingBlock: QUQFOY_clean_sbu_1, # of connection points: 4
#     Node 5, Type 0, BuildingBlock: QUQFOY_clean_sbu_1, # of connection points: 4
#     Node 6, Type 0, BuildingBlock: QUQFOY_clean_sbu_1, # of connection points: 4
#     Node 7, Type 0, BuildingBlock: QUQFOY_clean_sbu_1, # of connection points: 4
#     Node 8, Type 0, BuildingBlock: QUQFOY_clean_sbu_1, # of connection points: 4
#     Node 9, Type 0, BuildingBlock: QUQFOY_clean_sbu_1, # of connection points: 4
#     Node 10, Type 0, BuildingBlock: QUQFOY_clean_sbu_1, # of connection points: 4
#     Node 11, Type 0, BuildingBlock: QUQFOY_clean_sbu_1, # of connection points: 4
#     Node 12, Type 0, BuildingBlock: QUQFOY_clean_sbu_1, # of connection points: 4
#     Node 13, Type 0, BuildingBlock: QUQFOY_clean_sbu_1, # of connection points: 4
#     Node 14, Type 0, BuildingBlock: QUQFOY_clean_sbu_1, # of connection points: 4
#     Node 15, Type 0, BuildingBlock: QUQFOY_clean_sbu_1, # of connection points: 4
#     Node 16, Type 0, BuildingBlock: QUQFOY_clean_sbu_1, # of connection points: 4
#     Node 17, Type 0, BuildingBlock: QUQFOY_clean_sbu_1, # of connection points: 4
#     Node 18, Type 0, BuildingBlock: QUQFOY_clean_sbu_1, # of connection points: 4
#     Node 19, Type 0, BuildingBlock: QUQFOY_clean_sbu_1, # of connection points: 4
#     Node 20, Type 0, BuildingBlock: QUQFOY_clean_sbu_1, # of connection points: 4
#     Node 21, Type 0, BuildingBlock: QUQFOY_clean_sbu_1, # of connection points: 4
#     Node 22, Type 0, BuildingBlock: QUQFOY_clean_sbu_1, # of connection points: 4
#     Node 23, Type 0, BuildingBlock: QUQFOY_clean_sbu_1, # of connection points: 4
#     Node 24, Type 0, BuildingBlock: QUQFOY_clean_sbu_1, # of connection points: 4
#     Node 25, Type 0, BuildingBlock: QUQFOY_clean_sbu_1, # of connection points: 4
#     Node 26, Type 0, BuildingBlock: QUQFOY_clean_sbu_1, # of connection points: 4
#     Node 27, Type 0, BuildingBlock: QUQFOY_clean_sbu_1, # of connection points: 4
#     Node 28, Type 0, BuildingBlock: QUQFOY_clean_sbu_1, # of connection points: 4
#     Node 29, Type 0, BuildingBlock: QUQFOY_clean_sbu_1, # of connection points: 4
#     Node 30, Type 0, BuildingBlock: QUQFOY_clean_sbu_1, # of connection points: 4
#     Node 31, Type 0, BuildingBlock: QUQFOY_clean_sbu_1, # of connection points: 4
#     Edge 32, Type (0, 0), BuildingBlock: MIFKUJ_clean_linker_0, # of connection points: 2
#     Edge 33, Type (0, 0), BuildingBlock: MIFKUJ_clean_linker_0, # of connection points: 2
#     Edge 34, Type (0, 0), BuildingBlock: MIFKUJ_clean_linker_0, # of connection points: 2
#     Edge 35, Type (0, 0), BuildingBlock: MIFKUJ_clean_linker_0, # of connection points: 2
#     Edge 36, Type (0, 0), BuildingBlock: MIFKUJ_clean_linker_0, # of connection points: 2
#     Edge 37, Type (0, 0), BuildingBlock: MIFKUJ_clean_linker_0, # of connection points: 2
#     Edge 38, Type (0, 0), BuildingBlock: MIFKUJ_clean_linker_0, # of connection points: 2
#     Edge 39, Type (0, 0), BuildingBlock: MIFKUJ_clean_linker_0, # of connection points: 2
#     Edge 40, Type (0, 0), BuildingBlock: MIFKUJ_clean_linker_0, # of connection points: 2
#     Edge 41, Type (0, 0), BuildingBlock: MIFKUJ_clean_linker_0, # of connection points: 2
#     Edge 42, Type (0, 0), BuildingBlock: MIFKUJ_clean_linker_0, # of connection points: 2
#     Edge 43, Type (0, 0), BuildingBlock: MIFKUJ_clean_linker_0, # of connection points: 2
#     Edge 44, Type (0, 0), BuildingBlock: MIFKUJ_clean_linker_0, # of connection points: 2
#     Edge 45, Type (0, 0), BuildingBlock: MIFKUJ_clean_linker_0, # of connection points: 2
#     Edge 46, Type (0, 0), BuildingBlock: MIFKUJ_clean_linker_0, # of connection points: 2
#     Edge 47, Type (0, 0), BuildingBlock: MIFKUJ_clean_linker_0, # of connection points: 2
#     Edge 48, Type (0, 0), BuildingBlock: MIFKUJ_clean_linker_0, # of connection points: 2
#     Edge 49, Type (0, 0), BuildingBlock: MIFKUJ_clean_linker_0, # of connection points: 2
#     Edge 50, Type (0, 0), BuildingBlock: MIFKUJ_clean_linker_0, # of connection points: 2
#     Edge 51, Type (0, 0), BuildingBlock: MIFKUJ_clean_linker_0, # of connection points: 2
#     Edge 52, Type (0, 0), BuildingBlock: MIFKUJ_clean_linker_0, # of connection points: 2
#     Edge 53, Type (0, 0), BuildingBlock: MIFKUJ_clean_linker_0, # of connection points: 2
#     Edge 54, Type (0, 0), BuildingBlock: MIFKUJ_clean_linker_0, # of connection points: 2
#     Edge 55, Type (0, 0), BuildingBlock: MIFKUJ_clean_linker_0, # of connection points: 2
#     Edge 56, Type (0, 0), BuildingBlock: MIFKUJ_clean_linker_0, # of connection points: 2
#     Edge 57, Type (0, 0), BuildingBlock: MIFKUJ_clean_linker_0, # of connection points: 2
#     Edge 58, Type (0, 0), BuildingBlock: MIFKUJ_clean_linker_0, # of connection points: 2
#     Edge 59, Type (0, 0), BuildingBlock: MIFKUJ_clean_linker_0, # of connection points: 2
#     Edge 60, Type (0, 0), BuildingBlock: MIFKUJ_clean_linker_0, # of connection points: 2
#     Edge 61, Type (0, 0), BuildingBlock: MIFKUJ_clean_linker_0, # of connection points: 2
#     Edge 62, Type (0, 0), BuildingBlock: MIFKUJ_clean_linker_0, # of connection points: 2
#     Edge 63, Type (0, 0), BuildingBlock: MIFKUJ_clean_linker_0, # of connection points: 2
#     Edge 64, Type (0, 0), BuildingBlock: MIFKUJ_clean_linker_0, # of connection points: 2
#     Edge 65, Type (0, 0), BuildingBlock: MIFKUJ_clean_linker_0, # of connection points: 2
#     Edge 66, Type (0, 0), BuildingBlock: MIFKUJ_clean_linker_0, # of connection points: 2
#     Edge 67, Type (0, 0), BuildingBlock: MIFKUJ_clean_linker_0, # of connection points: 2
#     Edge 68, Type (0, 0), BuildingBlock: MIFKUJ_clean_linker_0, # of connection points: 2
#     Edge 69, Type (0, 0), BuildingBlock: MIFKUJ_clean_linker_0, # of connection points: 2
#     Edge 70, Type (0, 0), BuildingBlock: MIFKUJ_clean_linker_0, # of connection points: 2
#     Edge 71, Type (0, 0), BuildingBlock: MIFKUJ_clean_linker_0, # of connection points: 2
#     Edge 72, Type (0, 0), BuildingBlock: MIFKUJ_clean_linker_0, # of connection points: 2
#     Edge 73, Type (0, 0), BuildingBlock: MIFKUJ_clean_linker_0, # of connection points: 2
#     Edge 74, Type (0, 0), BuildingBlock: MIFKUJ_clean_linker_0, # of connection points: 2
#     Edge 75, Type (0, 0), BuildingBlock: MIFKUJ_clean_linker_0, # of connection points: 2
#     Edge 76, Type (0, 0), BuildingBlock: MIFKUJ_clean_linker_0, # of connection points: 2
#     Edge 77, Type (0, 0), BuildingBlock: MIFKUJ_clean_linker_0, # of connection points: 2
#     Edge 78, Type (0, 0), BuildingBlock: MIFKUJ_clean_linker_0, # of connection points: 2
#     Edge 79, Type (0, 0), BuildingBlock: MIFKUJ_clean_linker_0, # of connection points: 2
#     Edge 80, Type (0, 0), BuildingBlock: MIFKUJ_clean_linker_0, # of connection points: 2
#     Edge 81, Type (0, 0), BuildingBlock: MIFKUJ_clean_linker_0, # of connection points: 2
#     Edge 82, Type (0, 0), BuildingBlock: MIFKUJ_clean_linker_0, # of connection points: 2
#     Edge 83, Type (0, 0), BuildingBlock: MIFKUJ_clean_linker_0, # of connection points: 2
#     Edge 84, Type (0, 0), BuildingBlock: MIFKUJ_clean_linker_0, # of connection points: 2
#     Edge 85, Type (0, 0), BuildingBlock: MIFKUJ_clean_linker_0, # of connection points: 2
#     Edge 86, Type (0, 0), BuildingBlock: MIFKUJ_clean_linker_0, # of connection points: 2
#     Edge 87, Type (0, 0), BuildingBlock: MIFKUJ_clean_linker_0, # of connection points: 2
#     Edge 88, Type (0, 0), BuildingBlock: MIFKUJ_clean_linker_0, # of connection points: 2
#     Edge 89, Type (0, 0), BuildingBlock: MIFKUJ_clean_linker_0, # of connection points: 2
#     Edge 90, Type (0, 0), BuildingBlock: MIFKUJ_clean_linker_0, # of connection points: 2
#     Edge 91, Type (0, 0), BuildingBlock: MIFKUJ_clean_linker_0, # of connection points: 2
#     Edge 92, Type (0, 0), BuildingBlock: MIFKUJ_clean_linker_0, # of connection points: 2
#     Edge 93, Type (0, 0), BuildingBlock: MIFKUJ_clean_linker_0, # of connection points: 2
#     Edge 94, Type (0, 0), BuildingBlock: MIFKUJ_clean_linker_0, # of connection points: 2
#     Edge 95, Type (0, 0), BuildingBlock: MIFKUJ_clean_linker_0, # of connection points: 2
# Relax obj value: 0.281
# Max RMSD: 0.273
# Mean RMSD: 0.235
data_MOF--net-pem--node1-QUQFOY_clean_sbu_1--edge1-MIFKUJ_clean_linker_0
_symmetry_space_group_name_H-M    P1
_symmetry_Int_Tables_number       1
_symmetry_cell_setting            triclinic
loop_
_symmetry_equiv_pos_as_xyz
'x, y, z'
_cell_length_a     56.685374
_cell_length_b     57.46687
_cell_length_c     56.627669
_cell_angle_alpha  89.742711
_cell_angle_beta   89.75211
_cell_angle_gamma 95.909912
loop_
_atom_site_label
_atom_site_type_symbol
_atom_site_fract_x
_atom_site_fract_y
_atom_site_fract_z
_atom_type_partial_charge
O0 O 0.11934 0.05763 0.10828 0.0
Cd1 Cd 0.10109 0.07668 0.08469 0.0
Cd2 Cd 0.08878 0.09464 0.12432 0.0
O3 O 0.1188 0.08249 0.13766 0.0
O4 O 0.11108 0.06483 0.05383 0.0
O5 O 0.11951 0.10158 0.06494 0.0
C6 C 0.12112 0.08549 0.04933 0.0
C7 C 0.08075 0.13312 0.12293 0.0
C8 C 0.12659 0.06464 0.12847 0.0
C9 C 0.05148 0.06574 0.10034 0.0
O10 O 0.05908 0.07095 0.12086 0.0
O11 O 0.0649 0.07015 0.08257 0.0
O12 O 0.07823 0.12116 0.14233 0.0
O13 O 0.08978 0.12369 0.10474 0.0
O14 O 0.16144 0.9034 0.32297 0.0
Cd15 Cd 0.16117 0.87163 0.33982 0.0
Cd16 Cd 0.20867 0.89766 0.35104 0.0
O17 O 0.19416 0.9248 0.3341 0.0
O18 O 0.13251 0.85571 0.3237 0.0
O19 O 0.13541 0.85807 0.36235 0.0
C20 C 0.1235 0.85051 0.34408 0.0
C21 C 0.23047 0.90173 0.38612 0.0
C22 C 0.17506 0.92239 0.32222 0.0
C23 C 0.20708 0.85317 0.32373 0.0
O24 O 0.21925 0.87218 0.32914 0.0
O25 O 0.18517 0.84966 0.32874 0.0
O26 O 0.23846 0.91139 0.36669 0.0
O27 O 0.20936 0.89083 0.38606 0.0
O28 O 0.41798 0.92014 0.63076 0.0
Cd29 Cd 0.43186 0.9041 0.60185 0.0
Cd30 Cd 0.4644 0.90055 0.64043 0.0
O31 O 0.43743 0.90882 0.66185 0.0
O32 O 0.41371 0.91945 0.57713 0.0
O33 O 0.40995 0.88134 0.58217 0.0
C34 C 0.40398 0.89933 0.57083 0.0
C35 C 0.48709 0.86927 0.64272 0.0
C36 C 0.42112 0.91968 0.65298 0.0
C37 C 0.48002 0.92997 0.60093 0.0
O38 O 0.48042 0.929 0.62323 0.0
O39 O 0.46512 0.91657 0.58934 0.0
O40 O 0.48969 0.88611 0.65785 0.0
O41 O 0.47023 0.86942 0.62737 0.0
O42 O 0.34874 0.12332 0.78887 0.0
Cd43 Cd 0.34316 0.15173 0.80942 0.0
Cd44 Cd 0.30239 0.12029 0.82214 0.0
O45 O 0.31711 0.09913 0.79808 0.0
O46 O 0.37293 0.1722 0.8033 0.0
O47 O 0.36214 0.15914 0.83898 0.0
C48 C 0.37735 0.17115 0.82552 0.0
C49 C 0.2853 0.10587 0.8574 0.0
C50 C 0.33616 0.10393 0.78636 0.0
C51 C 0.29453 0.16752 0.80233 0.0
O52 O 0.2857 0.14762 0.80966 0.0
O53 O 0.31685 0.17249 0.80085 0.0
O54 O 0.27607 0.09995 0.83729 0.0
O55 O 0.30535 0.11881 0.85753 0.0
O56 O 0.11937 0.92165 0.37105 0.0
Cd57 Cd 0.11373 0.90329 0.40226 0.0
Cd58 Cd 0.0724 0.88546 0.37798 0.0
O59 O 0.0895 0.9046 0.3505 0.0
O60 O 0.14403 0.91067 0.41947 0.0
O61 O 0.12921 0.87449 0.41171 0.0
C62 C 0.14553 0.88855 0.42145 0.0
C63 C 0.04526 0.85328 0.36801 0.0
C64 C 0.10749 0.91967 0.35205 0.0
C65 C 0.06738 0.91517 0.42124 0.0
O66 O 0.05788 0.90485 0.40339 0.0
O67 O 0.08952 0.91578 0.42468 0.0
O68 O 0.04345 0.87402 0.36029 0.0
O69 O 0.063 0.85025 0.38134 0.0
O70 O 0.37877 0.82675 0.62009 0.0
Cd71 Cd 0.34719 0.84256 0.62292 0.0
Cd72 Cd 0.37598 0.85652 0.66596 0.0
O73 O 0.40277 0.84716 0.64489 0.0
O74 O 0.32639 0.82489 0.59914 0.0
O75 O 0.3362 0.86291 0.59657 0.0
C76 C 0.32436 0.84432 0.58836 0.0
C77 C 0.37969 0.88744 0.69288 0.0
C78 C 0.39935 0.83174 0.62888 0.0
C79 C 0.33117 0.82895 0.67184 0.0
O80 O 0.35269 0.82965 0.67783 0.0
O81 O 0.32542 0.8379 0.65245 0.0
O82 O 0.39128 0.86948 0.69564 0.0
O83 O 0.36725 0.88865 0.67392 0.0
O84 O 0.38767 0.14719 0.92614 0.0
Cd85 Cd 0.42136 0.14014 0.91589 0.0
Cd86 Cd 0.38987 0.09765 0.89772 0.0
O87 O 0.3645 0.11738 0.91123 0.0
O88 O 0.44242 0.16997 0.92151 0.0
O89 O 0.43786 0.15309 0.88655 0.0
C90 C 0.44782 0.1698 0.8994 0.0
C91 C 0.38086 0.07056 0.86693 0.0
C92 C 0.36717 0.13634 0.92297 0.0
C93 C 0.42883 0.09267 0.93463 0.0
O94 O 0.41146 0.08433 0.92215 0.0
O95 O 0.4362 0.1143 0.93408 0.0
O96 O 0.37168 0.06748 0.88766 0.0
O97 O 0.39406 0.08989 0.86302 0.0
O98 O 0.14322 0.19462 0.13601 0.0
Cd99 Cd 0.17016 0.17233 0.13426 0.0
Cd100 Cd 0.1356 0.15324 0.17586 0.0
O101 O 0.1164 0.17854 0.16167 0.0
O102 O 0.19275 0.18874 0.11079 0.0
O103 O 0.17642 0.15283 0.10518 0.0
C104 C 0.191 0.17019 0.09804 0.0
C105 C 0.11874 0.12123 0.1984 0.0
C106 C 0.12345 0.19465 0.14693 0.0
C107 C 0.18782 0.17033 0.18445 0.0
O108 O 0.16671 0.1652 0.19154 0.0
O109 O 0.19292 0.17172 0.16262 0.0
O110 O 0.11886 0.14235 0.20582 0.0
O111 O 0.12603 0.11821 0.17712 0.0
O112 O 0.6334 0.42838 0.89256 0.0
Cd113 Cd 0.62249 0.40585 0.9197 0.0
Cd114 Cd 0.5892 0.39042 0.88809 0.0
O115 O 0.61087 0.41155 0.86455 0.0
O116 O 0.64809 0.4124 0.94327 0.0
O117 O 0.63933 0.37752 0.92747 0.0
C118 C 0.65212 0.39083 0.94183 0.0
C119 C 0.57363 0.35132 0.88221 0.0
C120 C 0.62693 0.42738 0.87112 0.0
C121 C 0.57261 0.41488 0.93023 0.0
O122 O 0.56752 0.40809 0.90938 0.0
O123 O 0.59326 0.41355 0.93833 0.0
O124 O 0.56699 0.36823 0.86963 0.0
O125 O 0.59055 0.35628 0.89717 0.0
O126 O 0.90823 0.30356 0.09166 0.0
Cd127 Cd 0.875 0.30981 0.10265 0.0
Cd128 Cd 0.90058 0.3272 0.14324 0.0
O129 O 0.92848 0.31816 0.12244 0.0
O130 O 0.8548 0.30272 0.07454 0.0
O131 O 0.85814 0.33711 0.09231 0.0
C132 C 0.8484 0.32351 0.0762 0.0
C133 C 0.90248 0.36162 0.16568 0.0
C134 C 0.92776 0.30813 0.10238 0.0
C135 C 0.86286 0.28656 0.14928 0.0
O136 O 0.87907 0.30034 0.15863 0.0
O137 O 0.85855 0.28776 0.1274 0.0
O138 O 0.91431 0.34449 0.17148 0.0
O139 O 0.89057 0.3598 0.14623 0.0
O140 O 0.892 0.62532 0.38901 0.0
Cd141 Cd 0.92517 0.61764 0.37808 0.0
Cd142 Cd 0.89279 0.57358 0.36501 0.0
O143 O 0.8679 0.59386 0.37975 0.0
O144 O 0.94451 0.64554 0.39117 0.0
O145 O 0.94483 0.63708 0.35339 0.0
C146 C 0.95236 0.65078 0.37033 0.0
C147 C 0.88487 0.54891 0.33206 0.0
C148 C 0.8714 0.61419 0.38891 0.0
C149 C 0.93432 0.57017 0.39846 0.0
O150 O 0.91626 0.56021 0.38799 0.0
O151 O 0.94028 0.59195 0.39606 0.0
O152 O 0.87507 0.54423 0.35234 0.0
O153 O 0.89797 0.56859 0.32989 0.0
O154 O 0.84892 0.60912 0.28941 0.0
Cd155 Cd 0.83575 0.63489 0.30958 0.0
Cd156 Cd 0.79499 0.60632 0.30442 0.0
O157 O 0.81575 0.58581 0.2857 0.0
O158 O 0.86512 0.65573 0.31516 0.0
O159 O 0.84207 0.64106 0.34435 0.0
C160 C 0.86042 0.6545 0.33738 0.0
C161 C 0.77726 0.59444 0.3397 0.0
C162 C 0.83771 0.59059 0.28134 0.0
C163 C 0.7937 0.65431 0.28639 0.0
O164 O 0.78213 0.63425 0.28791 0.0
O165 O 0.81484 0.65764 0.29386 0.0
O166 O 0.76826 0.58696 0.31987 0.0
O167 O 0.79699 0.60794 0.33933 0.0
O168 O 0.65581 0.38261 0.76315 0.0
Cd169 Cd 0.65091 0.35763 0.78926 0.0
Cd170 Cd 0.67435 0.3958 0.81165 0.0
O171 O 0.65284 0.41128 0.78816 0.0
O172 O 0.63678 0.32983 0.77164 0.0
O173 O 0.61741 0.34793 0.7989 0.0
C174 C 0.61752 0.33157 0.78332 0.0
C175 C 0.68114 0.40659 0.85072 0.0
C176 C 0.65107 0.40325 0.76731 0.0
C177 C 0.69925 0.35604 0.80394 0.0
O178 O 0.70141 0.37766 0.79888 0.0
O179 O 0.67874 0.34542 0.80686 0.0
O180 O 0.68993 0.41964 0.83357 0.0
O181 O 0.66656 0.3885 0.84562 0.0
O182 O 0.86924 0.87689 0.9362 0.0
Cd183 Cd 0.9019 0.89299 0.92628 0.0
Cd184 Cd 0.91546 0.85517 0.9485 0.0
O185 O 0.88004 0.84315 0.94847 0.0
O186 O 0.89317 0.92181 0.91051 0.0
O187 O 0.91163 0.89531 0.89174 0.0
C188 C 0.9027 0.91506 0.89147 0.0
C189 C 0.94509 0.83473 0.93275 0.0
C190 C 0.8639 0.85643 0.9445 0.0
C191 C 0.92761 0.90003 0.97247 0.0
O192 O 0.92517 0.87801 0.97534 0.0
O193 O 0.92183 0.90898 0.95307 0.0
O194 O 0.93433 0.82815 0.95217 0.0
O195 O 0.93829 0.85258 0.92165 0.0
O196 O 0.8809 0.17032 0.69799 0.0
Cd197 Cd 0.85413 0.1452 0.70848 0.0
Cd198 Cd 0.83792 0.15575 0.66678 0.0
O199 O 0.87213 0.17063 0.66016 0.0
O200 O 0.8682 0.12865 0.73495 0.0
O201 O 0.85376 0.1105 0.70291 0.0
C202 C 0.86379 0.10951 0.72328 0.0
C203 C 0.81554 0.13426 0.63823 0.0
C204 C 0.88569 0.17749 0.6771 0.0
C205 C 0.81428 0.17326 0.71003 0.0
O206 O 0.81815 0.17557 0.68798 0.0
O207 O 0.82514 0.15906 0.72204 0.0
O208 O 0.82199 0.15626 0.63557 0.0
O209 O 0.82272 0.12394 0.65677 0.0
O210 O 0.64546 0.0957 0.42579 0.0
Cd211 Cd 0.61773 0.08645 0.40295 0.0
Cd212 Cd 0.60717 0.12823 0.41358 0.0
O213 O 0.64026 0.13299 0.42934 0.0
O214 O 0.62598 0.05734 0.38737 0.0
O215 O 0.61727 0.08862 0.36754 0.0
C216 C 0.62225 0.06719 0.36745 0.0
C217 C 0.59091 0.15307 0.38707 0.0
C218 C 0.65156 0.11569 0.43463 0.0
C219 C 0.5753 0.08909 0.43321 0.0
O220 O 0.58182 0.11079 0.43478 0.0
O221 O 0.58632 0.07634 0.41969 0.0
O222 O 0.59562 0.15922 0.40857 0.0
O223 O 0.59735 0.13336 0.37989 0.0
O224 O 0.5972 0.82961 0.1707 0.0
Cd225 Cd 0.62186 0.85555 0.18362 0.0
Cd226 Cd 0.64566 0.84141 0.14057 0.0
O227 O 0.6125 0.82387 0.13538 0.0
O228 O 0.60516 0.8742 0.20712 0.0
O229 O 0.62454 0.8901 0.17602 0.0
C230 C 0.61252 0.89266 0.19511 0.0
C231 C 0.67043 0.84718 0.10726 0.0
C232 C 0.59634 0.81932 0.15081 0.0
C233 C 0.66514 0.83189 0.19029 0.0
O234 O 0.66502 0.82987 0.16797 0.0
O235 O 0.64969 0.84265 0.20078 0.0
O236 O 0.66213 0.82668 0.11416 0.0
O237 O 0.66386 0.86491 0.11848 0.0
O238 O 0.90058 0.05826 0.63247 0.0
Cd239 Cd 0.91497 0.07874 0.60502 0.0
Cd240 Cd 0.87561 0.06018 0.58413 0.0
O241 O 0.86563 0.04665 0.61707 0.0
O242 O 0.94222 0.09722 0.61997 0.0
O243 O 0.91386 0.11362 0.60152 0.0
C244 C 0.93384 0.11589 0.61256 0.0
C245 C 0.85198 0.08098 0.5603 0.0
C246 C 0.8802 0.04688 0.6341 0.0
C247 C 0.92158 0.04643 0.56552 0.0
O248 O 0.89915 0.04242 0.56526 0.0
O249 O 0.93157 0.06145 0.57952 0.0
O250 O 0.84786 0.05861 0.56286 0.0
O251 O 0.86866 0.09199 0.57265 0.0
O252 O 0.6509 0.14389 0.339 0.0
Cd253 Cd 0.67339 0.16956 0.35482 0.0
Cd254 Cd 0.63927 0.19574 0.3379 0.0
O255 O 0.62188 0.16401 0.32751 0.0
O256 O 0.69786 0.14967 0.36573 0.0
O257 O 0.67982 0.1722 0.38987 0.0
C258 C 0.69547 0.15773 0.38659 0.0
C259 C 0.6206 0.22334 0.35925 0.0
C260 C 0.63116 0.1448 0.32868 0.0
C261 C 0.68737 0.20518 0.31701 0.0
O262 O 0.6658 0.20895 0.31536 0.0
O263 O 0.69391 0.19126 0.33251 0.0
O264 O 0.61636 0.21957 0.33716 0.0
O265 O 0.63503 0.21068 0.3697 0.0
O266 O 0.57831 0.93378 0.1431 0.0
Cd267 Cd 0.55699 0.91178 0.12168 0.0
Cd268 Cd 0.59607 0.92188 0.09067 0.0
O269 O 0.60843 0.9424 0.11858 0.0
O270 O 0.53084 0.89733 0.14227 0.0
O271 O 0.5548 0.87676 0.12193 0.0
C272 C 0.53649 0.87724 0.13556 0.0
C273 C 0.6238 0.90752 0.06522 0.0
C274 C 0.59823 0.94505 0.13823 0.0
C275 C 0.54803 0.93624 0.07668 0.0
O276 O 0.56966 0.93483 0.07175 0.0
O277 O 0.53915 0.92799 0.09592 0.0
O278 O 0.62196 0.92948 0.06733 0.0
O279 O 0.61059 0.89331 0.0786 0.0
O280 O 0.82207 0.87613 0.83051 0.0
Cd281 Cd 0.80567 0.84807 0.84927 0.0
Cd282 Cd 0.84988 0.82947 0.83491 0.0
O283 O 0.85411 0.86144 0.81717 0.0
O284 O 0.77853 0.8614 0.86457 0.0
O285 O 0.80589 0.84512 0.88485 0.0
C286 C 0.78644 0.85501 0.8846 0.0
C287 C 0.883 0.8112 0.84611 0.0
C288 C 0.84094 0.87807 0.8181 0.0
C289 C 0.80115 0.80272 0.82452 0.0
O290 O 0.82356 0.80385 0.82572 0.0
O291 O 0.79012 0.81967 0.83114 0.0
O292 O 0.87729 0.81319 0.82429 0.0
O293 O 0.87105 0.82141 0.86174 0.0
O294 O 0.40019 0.55189 0.14544 0.0
Cd295 Cd 0.41836 0.57144 0.11903 0.0
Cd296 Cd 0.37958 0.55811 0.09386 0.0
O297 O 0.36877 0.53992 0.12419 0.0
O298 O 0.44502 0.59052 0.13492 0.0
O299 O 0.41777 0.60618 0.11403 0.0
C300 C 0.43704 0.60894 0.12626 0.0
C301 C 0.35567 0.58174 0.07338 0.0
C302 C 0.38039 0.53948 0.1433 0.0
C303 C 0.4244 0.54182 0.07622 0.0
O304 O 0.40229 0.54188 0.07289 0.0
O305 O 0.43434 0.55263 0.09365 0.0
O306 O 0.35045 0.55942 0.0748 0.0
O307 O 0.37403 0.59104 0.08461 0.0
O308 O 0.17104 0.62215 0.83047 0.0
Cd309 Cd 0.18204 0.64923 0.85396 0.0
Cd310 Cd 0.13941 0.66078 0.83705 0.0
O311 O 0.13289 0.62645 0.82756 0.0
O312 O 0.21428 0.64198 0.86366 0.0
O313 O 0.18488 0.64317 0.88912 0.0
C314 C 0.20691 0.64056 0.88518 0.0
C315 C 0.11344 0.68348 0.8555 0.0
C316 C 0.15033 0.61488 0.82314 0.0
C317 C 0.18122 0.69064 0.82293 0.0
O318 O 0.16195 0.68066 0.81512 0.0
O319 O 0.19042 0.68296 0.84136 0.0
O320 O 0.11042 0.67714 0.83383 0.0
O321 O 0.13002 0.67515 0.86753 0.0
O322 O 0.08459 0.43672 0.63661 0.0
Cd323 Cd 0.06566 0.41869 0.61044 0.0
Cd324 Cd 0.11151 0.43198 0.58618 0.0
O325 O 0.11962 0.44563 0.61961 0.0
O326 O 0.03545 0.40675 0.62686 0.0
O327 O 0.05908 0.38346 0.60995 0.0
C328 C 0.03972 0.38588 0.6214 0.0
C329 C 0.13974 0.41471 0.56357 0.0
C330 C 0.10578 0.44641 0.63732 0.0
C331 C 0.0662 0.44885 0.56659 0.0
O332 O 0.08856 0.44858 0.5652 0.0
O333 O 0.05425 0.43808 0.58303 0.0
O334 O 0.14224 0.43669 0.5684 0.0
O335 O 0.12179 0.40205 0.57266 0.0
O336 O 0.08204 0.33412 0.67551 0.0
Cd337 Cd 0.10534 0.35295 0.69761 0.0
Cd338 Cd 0.13841 0.34619 0.66156 0.0
O339 O 0.10881 0.32598 0.64917 0.0
O340 O 0.08679 0.36657 0.72288 0.0
O341 O 0.11023 0.38808 0.69787 0.0
C342 C 0.09646 0.3868 0.71617 0.0
C343 C 0.16546 0.36157 0.63311 0.0
C344 C 0.08764 0.32353 0.65696 0.0
C345 C 0.1479 0.32959 0.71093 0.0
O346 O 0.15556 0.33418 0.6902 0.0
O347 O 0.12745 0.33433 0.71712 0.0
O348 O 0.16141 0.33947 0.63671 0.0
O349 O 0.15363 0.37544 0.64517 0.0
O350 O 0.36082 0.66832 0.18859 0.0
Cd351 Cd 0.33057 0.64571 0.19404 0.0
Cd352 Cd 0.32687 0.65733 0.14812 0.0
O353 O 0.36307 0.66576 0.14984 0.0
O354 O 0.33441 0.63365 0.2267 0.0
O355 O 0.3311 0.61085 0.19531 0.0
C356 C 0.3334 0.61297 0.21791 0.0
C357 C 0.30729 0.64079 0.11501 0.0
C358 C 0.372 0.67296 0.16936 0.0
C359 C 0.29596 0.67806 0.18321 0.0
O360 O 0.30744 0.68132 0.16401 0.0
O361 O 0.29968 0.66114 0.19665 0.0
O362 O 0.31862 0.66139 0.11441 0.0
O363 O 0.30861 0.62858 0.13408 0.0
O364 O 0.62052 0.59558 0.60263 0.0
Cd365 Cd 0.60686 0.61382 0.57482 0.0
Cd366 Cd 0.58023 0.62246 0.61611 0.0
O367 O 0.60718 0.61085 0.63512 0.0
O368 O 0.61611 0.59308 0.54923 0.0
O369 O 0.63055 0.63006 0.55158 0.0
C370 C 0.62968 0.61033 0.54067 0.0
C371 C 0.56241 0.65643 0.62147 0.0
C372 C 0.62038 0.5973 0.62502 0.0
C373 C 0.55566 0.59939 0.5779 0.0
O374 O 0.55845 0.59699 0.59988 0.0
O375 O 0.57132 0.61168 0.56596 0.0
O376 O 0.55847 0.63897 0.6359 0.0
O377 O 0.57832 0.65536 0.60514 0.0
O378 O 0.8904 0.42669 0.09266 0.0
Cd379 Cd 0.87824 0.4043 0.06527 0.0
Cd380 Cd 0.93476 0.38344 0.10912 0.0
O381 O 0.91907 0.41466 0.11629 0.0
O382 O 0.87027 0.41799 0.03398 0.0
O383 O 0.84321 0.40209 0.05919 0.0
C384 C 0.84822 0.41185 0.03891 0.0
C385 C 0.96821 0.37195 0.12872 0.0
C386 C 0.9045 0.4294 0.11035 0.0
C387 C 0.9151 0.37607 0.06327 0.0
O388 O 0.92597 0.36523 0.0786 0.0
O389 O 0.89269 0.3733 0.06446 0.0
O390 O 0.97038 0.3872 0.11186 0.0
O391 O 0.94699 0.36439 0.13543 0.0
O392 O 0.66292 0.68853 0.61633 0.0
Cd393 Cd 0.69164 0.66953 0.60598 0.0
Cd394 Cd 0.66541 0.65192 0.66786 0.0
O395 O 0.65012 0.68001 0.65362 0.0
O396 O 0.71038 0.68772 0.58064 0.0
O397 O 0.69427 0.65148 0.57559 0.0
C398 C 0.70786 0.66927 0.56765 0.0
C399 C 0.65307 0.63253 0.70281 0.0
C400 C 0.64979 0.6918 0.63439 0.0
C401 C 0.71207 0.65353 0.64857 0.0
O402 O 0.69225 0.64116 0.6483 0.0
O403 O 0.71749 0.66588 0.63048 0.0
O404 O 0.66886 0.65042 0.70303 0.0
O405 O 0.6436 0.62633 0.68275 0.0
O406 O 0.35464 0.39023 0.4484 0.0
Cd407 Cd 0.37889 0.40295 0.423 0.0
Cd408 Cd 0.40286 0.36923 0.45002 0.0
O409 O 0.3701 0.36056 0.46526 0.0
O410 O 0.36043 0.42805 0.41066 0.0
O411 O 0.37293 0.40124 0.38748 0.0
C412 C 0.36205 0.41973 0.38981 0.0
C413 C 0.42885 0.34203 0.43955 0.0
C414 C 0.35336 0.37355 0.46334 0.0
C415 C 0.42117 0.42009 0.45219 0.0
O416 O 0.42039 0.39996 0.46163 0.0
O417 O 0.40781 0.42389 0.43498 0.0
O418 O 0.42367 0.34567 0.46132 0.0
O419 O 0.41785 0.35268 0.42347 0.0
O420 O 0.1033 0.59048 0.94796 0.0
Cd421 Cd 0.07538 0.58239 0.92498 0.0
Cd422 Cd 0.06326 0.62228 0.94574 0.0
O423 O 0.09842 0.62736 0.95522 0.0
O424 O 0.08479 0.55281 0.91147 0.0
O425 O 0.07955 0.58358 0.88942 0.0
C426 C 0.08466 0.56224 0.89086 0.0
C427 C 0.04377 0.65035 0.92649 0.0
C428 C 0.11062 0.61012 0.9569 0.0
C429 C 0.03323 0.57896 0.95694 0.0
O430 O 0.04122 0.59865 0.96528 0.0
O431 O 0.0427 0.57091 0.9388 0.0
O432 O 0.04952 0.65253 0.94846 0.0
O433 O 0.05036 0.63271 0.915 0.0
O434 O 0.34111 0.35615 0.33331 0.0
Cd435 Cd 0.33111 0.33393 0.36113 0.0
Cd436 Cd 0.38214 0.31955 0.34157 0.0
O437 O 0.37848 0.35094 0.32438 0.0
O438 O 0.2978 0.3414 0.36652 0.0
O439 O 0.32537 0.34679 0.39377 0.0
C440 C 0.30361 0.34782 0.38758 0.0
C441 C 0.41935 0.30473 0.34127 0.0
C442 C 0.36009 0.36166 0.32162 0.0
C443 C 0.33626 0.28508 0.34342 0.0
O444 O 0.35728 0.29143 0.33658 0.0
O445 O 0.3242 0.29889 0.35458 0.0
O446 O 0.40782 0.30762 0.32219 0.0
O447 O 0.41075 0.31212 0.36067 0.0
H448 H 0.02496 0.06456 0.06071 0.0
H449 H 0.99146 0.03648 0.05121 0.0
H450 H 0.9917 0.00844 0.12206 0.0
H451 H 0.02572 0.03672 0.13167 0.0
H452 H 0.99662 0.97565 0.09018 0.0
H453 H 0.941 0.02985 0.10098 0.0
H454 H 0.92422 0.06772 0.09931 0.0
H455 H 0.92401 0.06517 0.02355 0.0
H456 H 0.94112 0.02748 0.0247 0.0
H457 H 0.92797 0.88937 0.01966 0.0
H458 H 0.93766 0.91646 0.05235 0.0
H459 H 0.95419 0.97276 0.00235 0.0
H460 H 0.94394 0.9461 0.96985 0.0
H461 H 0.92861 0.98692 0.03809 0.0
H462 H 0.99759 0.94173 0.02952 0.0
H463 H 0.01672 0.90504 0.03039 0.0
H464 H 0.99267 0.89214 0.10173 0.0
H465 H 0.97321 0.92866 0.10116 0.0
C466 C 0.01747 0.05287 0.0745 0.0
C467 C 0.0281 0.05256 0.0968 0.0
C468 C 0.9981 0.03696 0.06914 0.0
C469 C 0.98894 0.02041 0.08598 0.0
C470 C 0.99842 0.02117 0.10887 0.0
C471 C 0.0178 0.03732 0.11434 0.0
C472 C 0.97288 8e-05 0.0779 0.0
C473 C 0.98119 0.97794 0.07946 0.0
C474 C 0.95284 0.00306 0.06386 0.0
C475 C 0.94234 0.02573 0.06296 0.0
C476 C 0.93748 0.03739 0.08395 0.0
C477 C 0.9279 0.05884 0.08309 0.0
C478 C 0.92303 0.06883 0.06134 0.0
C479 C 0.92773 0.05738 0.0404 0.0
C480 C 0.93731 0.03592 0.04115 0.0
C481 C 0.93386 0.9075 0.01569 0.0
C482 C 0.93535 0.91561 0.9922 0.0
C483 C 0.93926 0.92295 0.03437 0.0
C484 C 0.94661 0.94663 0.02978 0.0
C485 C 0.94828 0.95462 0.00632 0.0
C486 C 0.94264 0.93932 0.98774 0.0
C487 C 0.95362 0.96327 0.049 0.0
C488 C 0.94341 0.98451 0.04961 0.0
C489 C 0.97203 0.95958 0.06492 0.0
C490 C 0.98371 0.93769 0.06519 0.0
C491 C 0.99626 0.93096 0.04532 0.0
C492 C 0.00718 0.91023 0.04577 0.0
C493 C 0.00583 0.89622 0.06607 0.0
C494 C 0.99364 0.90297 0.08599 0.0
C495 C 0.98267 0.92367 0.08562 0.0
H496 H 0.0143 0.88018 0.06638 0.0
H497 H 0.91564 0.08545 0.06072 0.0
H498 H 0.26177 0.67334 0.21744 0.0
H499 H 0.2439 0.70506 0.23725 0.0
H500 H 0.28056 0.75515 0.18941 0.0
H501 H 0.29806 0.72356 0.16912 0.0
H502 H 0.28981 0.76059 0.24101 0.0
H503 H 0.22701 0.75162 0.18408 0.0
H504 H 0.19543 0.72948 0.16115 0.0
H505 H 0.15822 0.70867 0.22526 0.0
H506 H 0.18979 0.73039 0.24862 0.0
H507 H 0.24501 0.85958 0.29368 0.0
H508 H 0.25889 0.83072 0.26671 0.0
H509 H 0.2071 0.77777 0.29572 0.0
H510 H 0.19259 0.80673 0.32196 0.0
H511 H 0.20567 0.77556 0.25034 0.0
H512 H 0.26781 0.77992 0.30774 0.0
H513 H 0.29955 0.79902 0.33279 0.0
H514 H 0.33811 0.82483 0.27101 0.0
H515 H 0.30643 0.80614 0.24559 0.0
C516 C 0.26549 0.69104 0.21075 0.0
C517 C 0.28141 0.69604 0.19189 0.0
C518 C 0.25528 0.70908 0.22203 0.0
C519 C 0.26111 0.73231 0.21477 0.0
C520 C 0.27593 0.73725 0.19515 0.0
C521 C 0.28579 0.71918 0.18357 0.0
C522 C 0.25395 0.75148 0.22939 0.0
C523 C 0.27149 0.76427 0.24278 0.0
C524 C 0.22997 0.75547 0.23212 0.0
C525 C 0.21089 0.74247 0.21812 0.0
C526 C 0.21221 0.74215 0.19331 0.0
C527 C 0.19428 0.72971 0.18023 0.0
C528 C 0.17485 0.71763 0.19174 0.0
C529 C 0.17329 0.71802 0.21637 0.0
C530 C 0.19118 0.73041 0.22954 0.0
C531 C 0.23688 0.8417 0.29452 0.0
C532 C 0.21774 0.83535 0.30985 0.0
C533 C 0.24479 0.82522 0.27911 0.0
C534 C 0.23406 0.80206 0.27925 0.0
C535 C 0.2155 0.79558 0.29517 0.0
C536 C 0.20732 0.81209 0.31024 0.0
C537 C 0.24152 0.78469 0.26231 0.0
C538 C 0.22405 0.77215 0.24849 0.0
C539 C 0.26556 0.78057 0.25953 0.0
C540 C 0.28462 0.79186 0.27477 0.0
C541 C 0.28296 0.78984 0.2995 0.0
C542 C 0.30096 0.80056 0.31377 0.0
C543 C 0.3208 0.81319 0.3035 0.0
C544 C 0.32271 0.81508 0.27894 0.0
C545 C 0.30475 0.80442 0.26459 0.0
H546 H 0.33471 0.82147 0.31457 0.0
H547 H 0.16099 0.70801 0.18158 0.0
H548 H 0.49758 0.92922 0.55639 0.0
H549 H 0.51499 0.96286 0.53338 0.0
H550 H 0.50987 0.00755 0.5938 0.0
H551 H 0.49304 0.97376 0.61721 0.0
H552 H 0.48666 0.02047 0.54846 0.0
H553 H 0.56053 0.00522 0.58076 0.0
H554 H 0.59194 0.98141 0.59358 0.0
H555 H 0.60141 0.95931 0.52213 0.0
H556 H 0.56978 0.98271 0.50892 0.0
H557 H 0.55658 0.10823 0.47236 0.0
H558 H 0.53725 0.08622 0.50549 0.0
H559 H 0.53561 0.02261 0.46516 0.0
H560 H 0.5547 0.04428 0.43201 0.0
H561 H 0.56503 0.02681 0.50832 0.0
H562 H 0.4868 0.03725 0.47781 0.0
H563 H 0.45498 0.06061 0.46505 0.0
H564 H 0.45404 0.09215 0.5336 0.0
H565 H 0.48614 0.06919 0.54667 0.0
C566 C 0.50073 0.9461 0.56489 0.0
C567 C 0.49412 0.949 0.58848 0.0
C568 C 0.5106 0.96523 0.5518 0.0
C569 C 0.51355 0.9875 0.56203 0.0
C570 C 0.50769 0.99038 0.58579 0.0
C571 C 0.49831 0.97111 0.59909 0.0
C572 C 0.52112 0.00775 0.54697 0.0
C573 C 0.50401 0.02239 0.54008 0.0
C574 C 0.54363 0.00985 0.53608 0.0
C575 C 0.56265 0.99563 0.54387 0.0
C576 C 0.56915 0.99512 0.5678 0.0
C577 C 0.58703 0.98173 0.57514 0.0
C578 C 0.59864 0.96882 0.55869 0.0
C579 C 0.5924 0.96932 0.53486 0.0
C580 C 0.57452 0.98267 0.52743 0.0
C581 C 0.55132 0.0897 0.47023 0.0
C582 C 0.55768 0.07781 0.44987 0.0
C583 C 0.54031 0.07721 0.48916 0.0
C584 C 0.53549 0.05288 0.4877 0.0
C585 C 0.53947 0.04143 0.4665 0.0
C586 C 0.55038 0.05383 0.44763 0.0
C587 C 0.53022 0.03876 0.50906 0.0
C588 C 0.5479 0.02536 0.51714 0.0
C589 C 0.50828 0.0379 0.521 0.0
C590 C 0.48912 0.05179 0.5131 0.0
C591 C 0.48003 0.04939 0.49007 0.0
C592 C 0.46188 0.06249 0.4828 0.0
C593 C 0.45257 0.07793 0.49847 0.0
C594 C 0.46133 0.08023 0.52146 0.0
C595 C 0.47949 0.06718 0.52881 0.0
H596 H 0.4385 0.08804 0.49282 0.0
H597 H 0.61249 0.95848 0.5644 0.0
H598 H 0.30511 0.2086 0.77818 0.0
H599 H 0.27847 0.23835 0.76965 0.0
H600 H 0.22159 0.19707 0.80623 0.0
H601 H 0.24784 0.16692 0.81409 0.0
H602 H 0.20587 0.21228 0.76717 0.0
H603 H 0.25028 0.24775 0.83068 0.0
H604 H 0.28597 0.26156 0.85339 0.0
H605 H 0.30909 0.3093 0.79741 0.0
H606 H 0.2737 0.29554 0.7742 0.0
H607 H 0.13344 0.30452 0.7505 0.0
H608 H 0.15706 0.27963 0.77403 0.0
H609 H 0.21879 0.30214 0.73177 0.0
H610 H 0.19541 0.32689 0.70817 0.0
H611 H 0.22843 0.2969 0.78079 0.0
H612 H 0.18633 0.25516 0.7157 0.0
H613 H 0.15 0.24128 0.69396 0.0
H614 H 0.12158 0.20517 0.756 0.0
H615 H 0.15765 0.21913 0.7782 0.0
C616 C 0.28693 0.20588 0.78439 0.0
C617 C 0.27855 0.18542 0.79673 0.0
C618 C 0.27178 0.22297 0.77971 0.0
C619 C 0.24816 0.22011 0.78771 0.0
C620 C 0.23976 0.19966 0.79997 0.0
C621 C 0.25479 0.18243 0.80438 0.0
C622 C 0.23192 0.23794 0.78223 0.0
C623 C 0.21059 0.23072 0.77067 0.0
C624 C 0.23811 0.26202 0.78668 0.0
C625 C 0.25938 0.27049 0.80063 0.0
C626 C 0.26305 0.26109 0.82314 0.0
C627 C 0.28322 0.26892 0.83611 0.0
C628 C 0.29981 0.28627 0.82683 0.0
C629 C 0.29623 0.29586 0.80457 0.0
C630 C 0.27609 0.28807 0.79151 0.0
C631 C 0.15216 0.30452 0.74656 0.0
C632 C 0.16255 0.31735 0.72732 0.0
C633 C 0.16558 0.29033 0.75999 0.0
C634 C 0.18954 0.289 0.75443 0.0
C635 C 0.2003 0.30301 0.7363 0.0
C636 C 0.18688 0.31698 0.72273 0.0
C637 C 0.20286 0.27114 0.76542 0.0
C638 C 0.22359 0.27837 0.77791 0.0
C639 C 0.19603 0.24704 0.76211 0.0
C640 C 0.17452 0.23842 0.74867 0.0
C641 C 0.17225 0.24441 0.72474 0.0
C642 C 0.15172 0.23651 0.71234 0.0
C643 C 0.13345 0.22242 0.72361 0.0
C644 C 0.13572 0.21613 0.7473 0.0
C645 C 0.15619 0.22402 0.7598 0.0
H646 H 0.11757 0.21633 0.71398 0.0
H647 H 0.31542 0.2923 0.8369 0.0
H648 H 0.01912 0.91151 0.42314 0.0
H649 H 0.99431 0.93317 0.44844 0.0
H650 H 0.05681 0.96792 0.48124 0.0
H651 H 0.08187 0.94589 0.4563 0.0
H652 H 0.02274 0.95537 0.51328 0.0
H653 H 0.02803 0.99526 0.43857 0.0
H654 H 0.02535 0.9985 0.39525 0.0
H655 H 0.951 0.97505 0.39851 0.0
H656 H 0.9533 0.97135 0.44185 0.0
H657 H 0.96985 0.04994 0.56283 0.0
H658 H 0.99423 0.02688 0.53849 0.0
H659 H 0.93119 0.98974 0.50906 0.0
H660 H 0.90652 0.0129 0.53325 0.0
H661 H 0.96531 0.00336 0.47545 0.0
H662 H 0.96049 0.96409 0.55077 0.0
H663 H 0.96377 0.9615 0.59409 0.0
H664 H 0.03809 0.98487 0.58957 0.0
H665 H 0.03517 0.98792 0.54623 0.0
C666 C 0.02762 0.92368 0.43581 0.0
C667 C 0.05246 0.92718 0.43759 0.0
C668 C 0.01341 0.93607 0.45019 0.0
C669 C 0.02379 0.95243 0.46634 0.0
C670 C 0.04853 0.95542 0.46877 0.0
C671 C 0.06279 0.94286 0.4545 0.0
C672 C 0.00877 0.96676 0.48035 0.0
C673 C 0.01039 0.9661 0.50503 0.0
C674 C 0.99239 0.98037 0.46949 0.0
C675 C 0.99089 0.98282 0.44344 0.0
C676 C 0.01114 0.99064 0.43004 0.0
C677 C 0.00969 0.99258 0.40548 0.0
C678 C 0.98803 0.98693 0.39413 0.0
C679 C 0.96777 0.9794 0.40733 0.0
C680 C 0.96913 0.9774 0.43189 0.0
C681 C 0.96112 0.03693 0.55114 0.0
C682 C 0.93624 0.03313 0.55005 0.0
C683 C 0.97509 0.02373 0.53732 0.0
C684 C 0.96444 0.00645 0.52229 0.0
C685 C 0.93966 0.00298 0.52068 0.0
C686 C 0.92563 0.01617 0.53453 0.0
C687 C 0.97927 0.99193 0.50835 0.0
C688 C 0.97763 0.99259 0.48368 0.0
C689 C 0.99573 0.97843 0.51922 0.0
C690 C 0.99756 0.97644 0.54527 0.0
C691 C 0.97749 0.96885 0.55903 0.0
C692 C 0.97929 0.96727 0.58359 0.0
C693 C 0.00111 0.97307 0.59458 0.0
C694 C 0.02119 0.98041 0.58103 0.0
C695 C 0.01948 0.98204 0.55647 0.0
H696 H 0.00247 0.97184 0.6136 0.0
H697 H 0.98695 0.98843 0.37511 0.0
H698 H 0.28937 0.84609 0.68194 0.0
H699 H 0.2606 0.8319 0.71252 0.0
H700 H 0.30256 0.77514 0.72822 0.0
H701 H 0.33201 0.79032 0.69903 0.0
H702 H 0.23237 0.79654 0.71934 0.0
H703 H 0.30095 0.75833 0.78313 0.0
H704 H 0.34211 0.76904 0.79593 0.0
H705 H 0.33697 0.8405 0.77611 0.0
H706 H 0.29551 0.83047 0.76395 0.0
H707 H 0.18338 0.69726 0.7757 0.0
H708 H 0.20476 0.72966 0.75423 0.0
H709 H 0.22555 0.76298 0.82031 0.0
H710 H 0.2056 0.72938 0.8418 0.0
H711 H 0.2607 0.76704 0.79548 0.0
H712 H 0.18462 0.78599 0.77934 0.0
H713 H 0.14222 0.78097 0.769 0.0
H714 H 0.15969 0.75903 0.69927 0.0
H715 H 0.20217 0.76354 0.70926 0.0
C716 C 0.29231 0.83059 0.69202 0.0
C717 C 0.31283 0.8193 0.68843 0.0
C718 C 0.27595 0.82253 0.70946 0.0
C719 C 0.27973 0.80282 0.72315 0.0
C720 C 0.29971 0.79092 0.7186 0.0
C721 C 0.31639 0.7994 0.70175 0.0
C722 C 0.26263 0.79405 0.74177 0.0
C723 C 0.23847 0.79032 0.73611 0.0
C724 C 0.27035 0.78721 0.76427 0.0
C725 C 0.29505 0.79358 0.77252 0.0
C726 C 0.30845 0.7764 0.7818 0.0
C727 C 0.33186 0.78236 0.78894 0.0
C728 C 0.34213 0.80545 0.78689 0.0
C729 C 0.32895 0.82266 0.77781 0.0
C730 C 0.30548 0.81684 0.7708 0.0
C731 C 0.1924 0.7116 0.78558 0.0
C732 C 0.19303 0.71091 0.81029 0.0
C733 C 0.20435 0.73031 0.77333 0.0
C734 C 0.21633 0.74917 0.78559 0.0
C735 C 0.21642 0.74871 0.81041 0.0
C736 C 0.20509 0.72956 0.82268 0.0
C737 C 0.2307 0.76792 0.77228 0.0
C738 C 0.25436 0.77377 0.77902 0.0
C739 C 0.22224 0.77778 0.75138 0.0
C740 C 0.19666 0.77508 0.7451 0.0
C741 C 0.17944 0.77998 0.76183 0.0
C742 C 0.15537 0.77723 0.75602 0.0
C743 C 0.14827 0.76968 0.73349 0.0
C744 C 0.16522 0.7649 0.7167 0.0
C745 C 0.18931 0.76761 0.72242 0.0
H746 H 0.12962 0.76756 0.72904 0.0
H747 H 0.3603 0.81 0.79231 0.0
H748 H 0.4085 0.05238 0.95431 0.0
H749 H 0.42747 0.0247 0.97897 0.0
H750 H 0.49382 0.06849 0.97403 0.0
H751 H 0.47479 0.09675 0.94977 0.0
H752 H 0.49016 0.01462 0.96147 0.0
H753 H 0.47413 0.0721 0.02111 0.0
H754 H 0.44766 0.09649 0.04225 0.0
H755 H 0.40286 0.03493 0.06309 0.0
H756 H 0.42889 0.0102 0.04173 0.0
H757 H 0.56443 0.96588 0.0415 0.0
H758 H 0.54188 0.99036 0.01713 0.0
H759 H 0.47695 0.96077 0.05054 0.0
H760 H 0.49972 0.93674 0.07595 0.0
H761 H 0.47682 0.00554 0.04785 0.0
H762 H 0.49164 0.9473 0.99241 0.0
H763 H 0.51481 0.92061 0.9702 0.0
H764 H 0.55731 0.97936 0.93964 0.0
H765 H 0.53462 0.00643 0.96193 0.0
C766 C 0.42712 0.05618 0.95857 0.0
C767 C 0.44026 0.07664 0.95014 0.0
C768 C 0.43784 0.04041 0.97265 0.0
C769 C 0.46191 0.0447 0.97817 0.0
C770 C 0.47515 0.06506 0.96985 0.0
C771 C 0.46429 0.08114 0.95614 0.0
C772 C 0.47332 0.02748 0.99218 0.0
C773 C 0.48761 0.01275 0.98041 0.0
C774 C 0.46881 0.02448 0.01658 0.0
C775 C 0.45329 0.03933 0.02959 0.0
C776 C 0.4585 0.06378 0.02999 0.0
C777 C 0.44361 0.07767 0.04206 0.0
C778 C 0.42355 0.06727 0.05394 0.0
C779 C 0.41838 0.04297 0.05385 0.0
C780 C 0.43321 0.02901 0.04178 0.0
C781 C 0.54532 0.96431 0.04351 0.0
C782 C 0.53381 0.94931 0.06058 0.0
C783 C 0.53242 0.97827 0.02946 0.0
C784 C 0.50768 0.97711 0.0317 0.0
C785 C 0.49604 0.96187 0.04848 0.0
C786 C 0.50903 0.94812 0.0629 0.0
C787 C 0.49434 0.9928 0.01731 0.0
C788 C 0.47946 0.0072 0.02891 0.0
C789 C 0.49787 0.9951 0.99259 0.0
C790 C 0.51151 0.9789 0.97899 0.0
C791 C 0.50603 0.95454 0.98108 0.0
C792 C 0.51906 0.93934 0.96845 0.0
C793 C 0.53755 0.94829 0.95355 0.0
C794 C 0.54299 0.97246 0.9512 0.0
C795 C 0.53002 0.98774 0.9638 0.0
H796 H 0.54763 0.93649 0.9438 0.0
H797 H 0.41204 0.07805 0.06327 0.0
H798 H 0.35703 0.24953 0.32236 0.0
H799 H 0.3367 0.21712 0.3002 0.0
H800 H 0.26916 0.23714 0.32359 0.0
H801 H 0.28924 0.26919 0.34615 0.0
H802 H 0.26691 0.19036 0.31583 0.0
H803 H 0.29603 0.26308 0.27517 0.0
H804 H 0.32776 0.29339 0.26284 0.0
H805 H 0.36461 0.24121 0.22847 0.0
H806 H 0.33318 0.21055 0.24089 0.0
H807 H 0.1823 0.18843 0.22779 0.0
H808 H 0.21229 0.19716 0.25785 0.0
H809 H 0.26501 0.17148 0.21225 0.0
H810 H 0.23497 0.16386 0.18131 0.0
H811 H 0.28187 0.21024 0.23133 0.0
H812 H 0.2394 0.1409 0.26206 0.0
H813 H 0.20331 0.11573 0.27324 0.0
H814 H 0.18807 0.16404 0.3273 0.0
H815 H 0.22324 0.19035 0.3156 0.0
C816 C 0.33787 0.24661 0.32337 0.0
C817 C 0.32468 0.26233 0.33541 0.0
C818 C 0.32631 0.22803 0.31075 0.0
C819 C 0.30146 0.22517 0.30979 0.0
C820 C 0.28837 0.23916 0.32401 0.0
C821 C 0.29989 0.2576 0.33678 0.0
C822 C 0.28906 0.211 0.29105 0.0
C823 C 0.27017 0.19443 0.2973 0.0
C824 C 0.29377 0.21613 0.26691 0.0
C825 C 0.31247 0.23454 0.25918 0.0
C826 C 0.31097 0.25808 0.26508 0.0
C827 C 0.32889 0.27531 0.25809 0.0
C828 C 0.34823 0.26922 0.24495 0.0
C829 C 0.34965 0.24589 0.23871 0.0
C830 C 0.3318 0.22858 0.24572 0.0
C831 C 0.20026 0.18452 0.22419 0.0
C832 C 0.20635 0.17536 0.20231 0.0
C833 C 0.21736 0.18929 0.2415 0.0
C834 C 0.24075 0.18424 0.23765 0.0
C835 C 0.24697 0.1752 0.21571 0.0
C836 C 0.22989 0.17094 0.19806 0.0
C837 C 0.25887 0.19015 0.25603 0.0
C838 C 0.27894 0.20523 0.2497 0.0
C839 C 0.25482 0.18398 0.28013 0.0
C840 C 0.2341 0.16767 0.28789 0.0
C841 C 0.22835 0.14626 0.27628 0.0
C842 C 0.208 0.13177 0.2827 0.0
C843 C 0.19355 0.13809 0.30112 0.0
C844 C 0.19933 0.15908 0.31308 0.0
C845 C 0.21944 0.17387 0.30649 0.0
H846 H 0.17782 0.12678 0.30604 0.0
H847 H 0.36209 0.28257 0.23955 0.0
H848 H 0.40955 0.51913 0.03577 0.0
H849 H 0.43279 0.49678 0.00939 0.0
H850 H 0.49412 0.51204 0.0537 0.0
H851 H 0.47118 0.53478 0.07995 0.0
H852 H 0.5055 0.51788 0.00819 0.0
H853 H 0.46126 0.45872 0.05564 0.0
H854 H 0.42514 0.43772 0.07304 0.0
H855 H 0.39845 0.42082 0.00369 0.0
H856 H 0.43429 0.442 0.98586 0.0
H857 H 0.57909 0.43364 0.9741 0.0
H858 H 0.55135 0.4542 0.997 0.0
H859 H 0.4986 0.44114 0.9427 0.0
H860 H 0.52635 0.4204 0.91944 0.0
H861 H 0.48087 0.4345 0.99002 0.0
H862 H 0.52697 0.49225 0.94299 0.0
H863 H 0.56387 0.51256 0.92649 0.0
H864 H 0.58769 0.5316 0.99633 0.0
H865 H 0.55107 0.51109 0.01328 0.0
C866 C 0.428 0.51776 0.0399 0.0
C867 C 0.43852 0.52868 0.05999 0.0
C868 C 0.4412 0.5049 0.02486 0.0
C869 C 0.46507 0.50254 0.02977 0.0
C870 C 0.4757 0.51365 0.04963 0.0
C871 C 0.46255 0.52661 0.06462 0.0
C872 C 0.47913 0.48866 0.01415 0.0
C873 C 0.50022 0.4996 0.00441 0.0
C874 C 0.47186 0.46498 0.00873 0.0
C875 C 0.45034 0.45216 0.01942 0.0
C876 C 0.4476 0.45069 0.0441 0.0
C877 C 0.4272 0.43872 0.05404 0.0
C878 C 0.40948 0.428 0.03948 0.0
C879 C 0.41217 0.42916 0.01495 0.0
C880 C 0.43253 0.44113 0.00491 0.0
C881 C 0.56155 0.43493 0.96703 0.0
C882 C 0.555 0.42557 0.94482 0.0
C883 C 0.54575 0.44672 0.98015 0.0
C884 C 0.52312 0.4494 0.97134 0.0
C885 C 0.51607 0.43928 0.94968 0.0
C886 C 0.53196 0.42752 0.93643 0.0
C887 C 0.50737 0.46366 0.9845 0.0
C888 C 0.48598 0.45284 0.9937 0.0
C889 C 0.5144 0.48743 0.98956 0.0
C890 C 0.53635 0.49997 0.97941 0.0
C891 C 0.54016 0.50062 0.95484 0.0
C892 C 0.56101 0.51219 0.94541 0.0
C893 C 0.57813 0.52332 0.96036 0.0
C894 C 0.57441 0.52295 0.98477 0.0
C895 C 0.5536 0.51138 0.9943 0.0
H896 H 0.59427 0.53227 0.95302 0.0
H897 H 0.3937 0.41875 0.04721 0.0
H898 H 0.82088 0.26218 0.13706 0.0
H899 H 0.79084 0.24353 0.16396 0.0
H900 H 0.83842 0.25727 0.22261 0.0
H901 H 0.86863 0.27618 0.19591 0.0
H902 H 0.80799 0.21218 0.2238 0.0
H903 H 0.80495 0.29636 0.21265 0.0
H904 H 0.80273 0.33128 0.18759 0.0
H905 H 0.73708 0.30059 0.15827 0.0
H906 H 0.73913 0.26532 0.18292 0.0
H907 H 0.73492 0.21428 0.32275 0.0
H908 H 0.76447 0.2253 0.29214 0.0
H909 H 0.70873 0.22761 0.24071 0.0
H910 H 0.67901 0.21751 0.27155 0.0
H911 H 0.74165 0.26163 0.23274 0.0
H912 H 0.7409 0.17971 0.24526 0.0
H913 H 0.74193 0.1433 0.26823 0.0
H914 H 0.81221 0.16657 0.29203 0.0
H915 H 0.81149 0.20329 0.26944 0.0
C916 C 0.82523 0.26073 0.15558 0.0
C917 C 0.84696 0.27103 0.16447 0.0
C918 C 0.80804 0.25006 0.17087 0.0
C919 C 0.81244 0.24939 0.19517 0.0
C920 C 0.83482 0.25774 0.20385 0.0
C921 C 0.85197 0.26862 0.1886 0.0
C922 C 0.79286 0.24292 0.21181 0.0
C923 C 0.79352 0.22297 0.22594 0.0
C924 C 0.77374 0.25676 0.21391 0.0
C925 C 0.77232 0.27813 0.19942 0.0
C926 C 0.79014 0.297 0.20073 0.0
C927 C 0.7889 0.31686 0.18662 0.0
C928 C 0.76981 0.31813 0.1713 0.0
C929 C 0.75188 0.29957 0.17012 0.0
C930 C 0.75306 0.27965 0.18416 0.0
C931 C 0.72899 0.21748 0.30497 0.0
C932 C 0.70476 0.21498 0.29942 0.0
C933 C 0.74586 0.22356 0.28748 0.0
C934 C 0.73879 0.22659 0.26405 0.0
C935 C 0.71454 0.22516 0.25867 0.0
C936 C 0.6976 0.2195 0.27628 0.0
C937 C 0.75679 0.23094 0.24518 0.0
C938 C 0.75589 0.25057 0.23056 0.0
C939 C 0.77543 0.21652 0.24235 0.0
C940 C 0.77607 0.19434 0.25578 0.0
C941 C 0.75653 0.17713 0.2555 0.0
C942 C 0.75706 0.15642 0.26844 0.0
C943 C 0.77711 0.15264 0.28162 0.0
C944 C 0.79669 0.16953 0.28182 0.0
C945 C 0.79624 0.19028 0.26892 0.0
H946 H 0.77748 0.1366 0.29165 0.0
H947 H 0.76889 0.33351 0.16038 0.0
H948 H 0.02583 0.47015 0.57199 0.0
H949 H 0.00447 0.48972 0.54164 0.0
H950 H 0.05629 0.47371 0.48962 0.0
H951 H 0.07849 0.45546 0.52032 0.0
H952 H 0.04582 0.51411 0.48089 0.0
H953 H 0.99843 0.44197 0.49573 0.0
H954 H 0.9761 0.41118 0.51973 0.0
H955 H 0.92861 0.46018 0.54275 0.0
H956 H 0.95085 0.49135 0.51913 0.0
H957 H 0.93297 0.52247 0.40199 0.0
H958 H 0.95667 0.50004 0.42799 0.0
H959 H 0.99053 0.56434 0.45685 0.0
H960 H 0.96759 0.58678 0.43049 0.0
H961 H 0.95871 0.49605 0.47334 0.0
H962 H 0.04618 0.55907 0.47303 0.0
H963 H 0.06917 0.58609 0.44549 0.0
H964 H 0.03775 0.54803 0.38648 0.0
H965 H 0.01483 0.5206 0.41364 0.0
C966 C 0.03268 0.47092 0.55408 0.0
C967 C 0.05373 0.46125 0.54843 0.0
C968 C 0.02037 0.48194 0.5367 0.0
C969 C 0.0284 0.4827 0.51316 0.0
C970 C 0.04967 0.47332 0.50761 0.0
C971 C 0.06234 0.46287 0.52514 0.0
C972 C 0.01475 0.49344 0.4944 0.0
C973 C 0.02679 0.51007 0.47921 0.0
C974 C 0.98997 0.48779 0.49172 0.0
C975 C 0.97642 0.46903 0.50579 0.0
C976 C 0.9833 0.44621 0.50601 0.0
C977 C 0.97065 0.42868 0.51954 0.0
C978 C 0.95098 0.43373 0.53279 0.0
C979 C 0.94387 0.4563 0.53249 0.0
C980 C 0.95647 0.47389 0.51901 0.0
C981 C 0.94556 0.53181 0.41379 0.0
C982 C 0.94851 0.5564 0.41407 0.0
C983 C 0.95906 0.51898 0.42867 0.0
C984 C 0.97563 0.5305 0.44413 0.0
C985 C 0.9783 0.55504 0.44467 0.0
C986 C 0.96506 0.56786 0.42964 0.0
C987 C 0.98974 0.51698 0.4602 0.0
C988 C 0.97777 0.4999 0.47491 0.0
C989 C 0.0147 0.5216 0.46188 0.0
C990 C 0.02863 0.5379 0.4454 0.0
C991 C 0.04426 0.5564 0.45418 0.0
C992 C 0.05726 0.57181 0.43863 0.0
C993 C 0.05487 0.56883 0.41425 0.0
C994 C 0.03952 0.55038 0.40537 0.0
C995 C 0.0265 0.53491 0.42083 0.0
H996 H 0.06493 0.58078 0.40225 0.0
H997 H 0.94122 0.42014 0.54326 0.0
H998 H 0.75396 0.65378 0.25905 0.0
H999 H 0.73441 0.68753 0.24575 0.0
H1000 H 0.78683 0.7338 0.28224 0.0
H1001 H 0.80696 0.70036 0.29461 0.0
H1002 H 0.71332 0.71882 0.2677 0.0
H1003 H 0.79582 0.78587 0.25481 0.0
H1004 H 0.83825 0.78656 0.24455 0.0
H1005 H 0.82391 0.72211 0.20669 0.0
H1006 H 0.78139 0.72119 0.2165 0.0
H1007 H 0.66736 0.82516 0.23837 0.0
H1008 H 0.69243 0.79944 0.25914 0.0
H1009 H 0.72608 0.78464 0.19313 0.0
H1010 H 0.70198 0.81064 0.1726 0.0
H1011 H 0.75733 0.78617 0.22616 0.0
H1012 H 0.67733 0.74936 0.21561 0.0
H1013 H 0.63383 0.74596 0.22047 0.0
H1014 H 0.64156 0.74496 0.29586 0.0
H1015 H 0.68514 0.74864 0.29143 0.0
C1016 C 0.7614 0.67118 0.26401 0.0
C1017 C 0.78212 0.67446 0.2776 0.0
C1018 C 0.75016 0.69043 0.25655 0.0
C1019 C 0.7593 0.71322 0.26279 0.0
C1020 C 0.77975 0.71645 0.27674 0.0
C1021 C 0.79123 0.69729 0.28381 0.0
C1022 C 0.74743 0.7336 0.25467 0.0
C1023 C 0.72298 0.73357 0.25869 0.0
C1024 C 0.75998 0.75285 0.24284 0.0
C1025 C 0.78549 0.75334 0.23663 0.0
C1026 C 0.80173 0.77189 0.24424 0.0
C1027 C 0.82579 0.77231 0.23852 0.0
C1028 C 0.83379 0.75435 0.22505 0.0
C1029 C 0.81772 0.73597 0.21721 0.0
C1030 C 0.79364 0.73547 0.22287 0.0
C1031 C 0.68048 0.81681 0.22843 0.0
C1032 C 0.68241 0.81964 0.20379 0.0
C1033 C 0.69469 0.80204 0.24028 0.0
C1034 C 0.71079 0.78978 0.22759 0.0
C1035 C 0.71376 0.79385 0.2033 0.0
C1036 C 0.6998 0.80866 0.19154 0.0
C1037 C 0.72318 0.77116 0.23879 0.0
C1038 C 0.74776 0.77156 0.23549 0.0
C1039 C 0.71061 0.75187 0.25051 0.0
C1040 C 0.68445 0.74956 0.2532 0.0
C1041 C 0.66974 0.74857 0.23322 0.0
C1042 C 0.64508 0.74657 0.2359 0.0
C1043 C 0.63494 0.74532 0.25846 0.0
C1044 C 0.64944 0.74599 0.2784 0.0
C1045 C 0.67411 0.74803 0.27582 0.0
H1046 H 0.61585 0.74377 0.2605 0.0
H1047 H 0.85242 0.7547 0.22066 0.0
H1048 H 0.79771 0.2123 0.69167 0.0
H1049 H 0.78047 0.24303 0.71335 0.0
H1050 H 0.78108 0.20236 0.77746 0.0
H1051 H 0.79878 0.17146 0.75598 0.0
H1052 H 0.7375 0.22776 0.76658 0.0
H1053 H 0.82305 0.23903 0.77442 0.0
H1054 H 0.86364 0.24166 0.75809 0.0
H1055 H 0.84907 0.29997 0.71481 0.0
H1056 H 0.80823 0.29742 0.73057 0.0
H1057 H 0.70901 0.32101 0.83319 0.0
H1058 H 0.73389 0.29 0.82356 0.0
H1059 H 0.75754 0.32715 0.75993 0.0
H1060 H 0.73358 0.35873 0.7702 0.0
H1061 H 0.79075 0.30152 0.77473 0.0
H1062 H 0.70677 0.2892 0.76062 0.0
H1063 H 0.66447 0.28709 0.77171 0.0
H1064 H 0.67381 0.23179 0.82096 0.0
H1065 H 0.7163 0.23383 0.8104 0.0
C1066 C 0.79377 0.2096 0.71028 0.0
C1067 C 0.79982 0.18954 0.72218 0.0
C1068 C 0.78401 0.22723 0.72262 0.0
C1069 C 0.77988 0.22497 0.74696 0.0
C1070 C 0.7843 0.20434 0.75865 0.0
C1071 C 0.7944 0.18677 0.74636 0.0
C1072 C 0.7725 0.24495 0.7603 0.0
C1073 C 0.74923 0.24373 0.76889 0.0
C1074 C 0.78774 0.2659 0.76253 0.0
C1075 C 0.81252 0.26791 0.75355 0.0
C1076 C 0.82845 0.25232 0.76131 0.0
C1077 C 0.85151 0.2538 0.75217 0.0
C1078 C 0.85892 0.27094 0.73538 0.0
C1079 C 0.8433 0.2867 0.7278 0.0
C1080 C 0.8202 0.28525 0.73685 0.0
C1081 C 0.72033 0.32294 0.81768 0.0
C1082 C 0.71927 0.34194 0.80221 0.0
C1083 C 0.73439 0.30521 0.81212 0.0
C1084 C 0.74684 0.30591 0.79062 0.0
C1085 C 0.74787 0.32617 0.77651 0.0
C1086 C 0.73423 0.34422 0.78238 0.0
C1087 C 0.75564 0.28445 0.78112 0.0
C1088 C 0.77913 0.28541 0.77301 0.0
C1089 C 0.74039 0.26339 0.7788 0.0
C1090 C 0.71477 0.26185 0.78492 0.0
C1091 C 0.69983 0.27668 0.77391 0.0
C1092 C 0.67582 0.2755 0.7801 0.0
C1093 C 0.66647 0.25936 0.79708 0.0
C1094 C 0.6811 0.24432 0.80785 0.0
C1095 C 0.70514 0.24548 0.80177 0.0
H1096 H 0.64788 0.25848 0.80186 0.0
H1097 H 0.87676 0.27202 0.72828 0.0
H1098 H 0.81257 0.75831 0.82928 0.0
H1099 H 0.79494 0.72357 0.80865 0.0
H1100 H 0.74394 0.76456 0.77646 0.0
H1101 H 0.76078 0.7991 0.79812 0.0
H1102 H 0.72457 0.7212 0.78264 0.0
H1103 H 0.79912 0.75826 0.75036 0.0
H1104 H 0.84166 0.77239 0.75252 0.0
H1105 H 0.85808 0.70303 0.76977 0.0
H1106 H 0.81556 0.68857 0.76797 0.0
H1107 H 0.7419 0.69299 0.65616 0.0
H1108 H 0.75619 0.7088 0.69363 0.0
H1109 H 0.72202 0.64828 0.73 0.0
H1110 H 0.70803 0.63168 0.69188 0.0
H1111 H 0.78397 0.69216 0.72852 0.0
H1112 H 0.69825 0.67453 0.78168 0.0
H1113 H 0.65491 0.66701 0.77637 0.0
H1114 H 0.66016 0.70532 0.71094 0.0
H1115 H 0.70347 0.71309 0.71594 0.0
C1116 C 0.79726 0.75975 0.81817 0.0
C1117 C 0.78824 0.7814 0.81486 0.0
C1118 C 0.7872 0.7399 0.80644 0.0
C1119 C 0.76853 0.7416 0.79057 0.0
C1120 C 0.75839 0.76285 0.78859 0.0
C1121 C 0.76808 0.78261 0.80083 0.0
C1122 C 0.76168 0.72248 0.77371 0.0
C1123 C 0.73759 0.71449 0.77109 0.0
C1124 C 0.77865 0.7138 0.75853 0.0
C1125 C 0.8042 0.72241 0.75932 0.0
C1126 C 0.81181 0.74607 0.75473 0.0
C1127 C 0.8359 0.75413 0.75588 0.0
C1128 C 0.85255 0.73863 0.76137 0.0
C1129 C 0.84515 0.71502 0.7656 0.0
C1130 C 0.82107 0.70688 0.76451 0.0
C1131 C 0.73761 0.68274 0.67198 0.0
C1132 C 0.72314 0.66137 0.67115 0.0
C1133 C 0.74586 0.69185 0.69343 0.0
C1134 C 0.73984 0.67987 0.71455 0.0
C1135 C 0.72653 0.65791 0.71384 0.0
C1136 C 0.7185 0.64854 0.69215 0.0
C1137 C 0.74685 0.69147 0.73701 0.0
C1138 C 0.77104 0.69803 0.74073 0.0
C1139 C 0.72992 0.69937 0.75267 0.0
C1140 C 0.70408 0.69405 0.74902 0.0
C1141 C 0.69013 0.68125 0.76613 0.0
C1142 C 0.66558 0.67703 0.76322 0.0
C1143 C 0.65479 0.68567 0.74332 0.0
C1144 C 0.66853 0.6986 0.72632 0.0
C1145 C 0.6931 0.7028 0.72912 0.0
H1146 H 0.6358 0.68233 0.74107 0.0
H1147 H 0.8712 0.74491 0.76227 0.0
H1148 H 0.4317 0.46408 0.43394 0.0
H1149 H 0.4524 0.49794 0.45382 0.0
H1150 H 0.4642 0.4548 0.51429 0.0
H1151 H 0.44377 0.42085 0.4946 0.0
H1152 H 0.44292 0.49674 0.52446 0.0
H1153 H 0.50873 0.47023 0.48068 0.0
H1154 H 0.52934 0.45932 0.44457 0.0
H1155 H 0.52451 0.52779 0.41548 0.0
H1156 H 0.50353 0.53899 0.45129 0.0
H1157 H 0.52936 0.56014 0.59377 0.0
H1158 H 0.50246 0.53352 0.5707 0.0
H1159 H 0.51067 0.58112 0.51131 0.0
H1160 H 0.53852 0.60739 0.53406 0.0
H1161 H 0.5184 0.5403 0.49759 0.0
H1162 H 0.45647 0.5689 0.54222 0.0
H1163 H 0.4352 0.58056 0.57762 0.0
H1164 H 0.431 0.51014 0.60414 0.0
H1165 H 0.45254 0.4981 0.56906 0.0
C1166 C 0.43896 0.46174 0.45135 0.0
C1167 C 0.43604 0.43983 0.46276 0.0
C1168 C 0.45074 0.48107 0.46264 0.0
C1169 C 0.4596 0.47875 0.4855 0.0
C1170 C 0.4573 0.45684 0.49667 0.0
C1171 C 0.44577 0.43747 0.48532 0.0
C1172 C 0.47064 0.49931 0.4982 0.0
C1173 C 0.45952 0.50625 0.51878 0.0
C1174 C 0.49171 0.5121 0.49007 0.0
C1175 C 0.5043 0.50534 0.46854 0.0
C1176 C 0.51184 0.48288 0.46648 0.0
C1177 C 0.52364 0.47666 0.44609 0.0
C1178 C 0.52816 0.49282 0.42771 0.0
C1179 C 0.52095 0.51527 0.42971 0.0
C1180 C 0.50911 0.52156 0.45005 0.0
C1181 C 0.52501 0.56519 0.57598 0.0
C1182 C 0.53614 0.58569 0.56561 0.0
C1183 C 0.50951 0.55001 0.56283 0.0
C1184 C 0.50442 0.55539 0.5393 0.0
C1185 C 0.51442 0.5766 0.52941 0.0
C1186 C 0.53027 0.59158 0.54242 0.0
C1187 C 0.49097 0.53769 0.52434 0.0
C1188 C 0.50159 0.53119 0.50323 0.0
C1189 C 0.46927 0.52549 0.53187 0.0
C1190 C 0.45627 0.53264 0.55304 0.0
C1191 C 0.45117 0.55593 0.55567 0.0
C1192 C 0.43903 0.5626 0.57567 0.0
C1193 C 0.43179 0.54611 0.59313 0.0
C1194 C 0.43662 0.5229 0.5906 0.0
C1195 C 0.44876 0.51613 0.57064 0.0
H1196 H 0.4224 0.55131 0.6086 0.0
H1197 H 0.53732 0.48798 0.41194 0.0
H1198 H 0.0008 0.54675 0.93747 0.0
H1199 H 0.97505 0.51659 0.95833 0.0
H1200 H 0.9984 0.54641 0.02505 0.0
H1201 H 0.02385 0.57709 0.00422 0.0
H1202 H 0.008 0.49823 0.01515 0.0
H1203 H 0.94442 0.54697 0.01547 0.0
H1204 H 0.91674 0.57248 0.99792 0.0
H1205 H 0.88824 0.51632 0.95333 0.0
H1206 H 0.91603 0.49056 0.97034 0.0
H1207 H 0.9495 0.40884 0.08244 0.0
H1208 H 0.96396 0.44635 0.06669 0.0
H1209 H 0.92356 0.43129 0.00318 0.0
H1210 H 0.90686 0.39394 0.02042 0.0
H1211 H 0.92139 0.47442 0.01338 0.0
H1212 H 0.98616 0.42712 0.00809 0.0
H1213 H 0.01459 0.40073 0.02271 0.0
H1214 H 0.04221 0.45293 0.07217 0.0
H1215 H 0.01374 0.47952 0.05804 0.0
C1216 C -9e-05 0.54726 0.95657 0.0
C1217 C 0.01441 0.56405 0.9693 0.0
C1218 C 0.98513 0.53013 0.96843 0.0
C1219 C 0.98491 0.52937 0.99315 0.0
C1220 C 0.9983 0.54691 0.00592 0.0
C1221 C 0.01276 0.56438 0.99404 0.0
C1222 C 0.97384 0.50824 0.00528 0.0
C1223 C 0.98901 0.49318 0.01525 0.0
C1224 C 0.94922 0.50142 0.00434 0.0
C1225 C 0.93249 0.51688 0.99405 0.0
C1226 C 0.93243 0.54011 0.00176 0.0
C1227 C 0.91667 0.55461 0.99194 0.0
C1228 C 0.90078 0.54605 0.97448 0.0
C1229 C 0.90058 0.52294 0.96684 0.0
C1230 C 0.91631 0.50837 0.97659 0.0
C1231 C 0.94308 0.4133 0.06551 0.0
C1232 C 0.92617 0.39849 0.05325 0.0
C1233 C 0.95182 0.43493 0.05618 0.0
C1234 C 0.94519 0.44164 0.03355 0.0
C1235 C 0.92887 0.42661 0.02078 0.0
C1236 C 0.91943 0.40526 0.03059 0.0
C1237 C 0.95558 0.46421 0.02326 0.0
C1238 C 0.94036 0.47948 0.0135 0.0
C1239 C 0.98032 0.47108 0.02384 0.0
C1240 C 0.99767 0.45522 0.03214 0.0
C1241 C 0.99822 0.43292 0.02217 0.0
C1242 C 0.01434 0.41793 0.03036 0.0
C1243 C 0.03015 0.42513 0.0484 0.0
C1244 C 0.02993 0.44737 0.05821 0.0
C1245 C 0.01383 0.46241 0.0501 0.0
H1246 H 0.0426 0.41349 0.05473 0.0
H1247 H 0.88859 0.5573 0.9669 0.0
H1248 H 0.13035 0.0178 0.12463 0.0
H1249 H 0.14591 0.99286 0.15476 0.0
H1250 H 0.17266 0.05422 0.19355 0.0
H1251 H 0.15626 0.0791 0.16436 0.0
H1252 H 0.19916 0.0159 0.20067 0.0
H1253 H 0.11639 0.03039 0.19194 0.0
H1254 H 0.07668 0.02644 0.17427 0.0
H1255 H 0.07091 0.95227 0.18621 0.0
H1256 H 0.11094 0.95572 0.20337 0.0
H1257 H 0.19472 0.96824 0.31724 0.0
H1258 H 0.19079 0.99399 0.28307 0.0
H1259 H 0.14331 0.93998 0.25045 0.0
H1260 H 0.14584 0.91532 0.28469 0.0
H1261 H 0.12793 0.97589 0.24023 0.0
H1262 H 0.20678 0.9538 0.23752 0.0
H1263 H 0.24726 0.9499 0.2517 0.0
H1264 H 0.26149 0.02467 0.25482 0.0
H1265 H 0.22105 0.02897 0.24084 0.0
C1266 C 0.14011 0.02598 0.13932 0.0
C1267 C 0.1414 0.05032 0.14267 0.0
C1268 C 0.14907 0.01169 0.15646 0.0
C1269 C 0.15944 0.02167 0.17702 0.0
C1270 C 0.16384 0.0461 0.17846 0.0
C1271 C 0.15447 0.06034 0.16169 0.0
C1272 C 0.16137 0.0074 0.19867 0.0
C1273 C 0.18364 0.00696 0.2093 0.0
C1274 C 0.14106 0.99533 0.20963 0.0
C1275 C 0.11694 0.99341 0.19892 0.0
C1276 C 0.10682 0.01321 0.19068 0.0
C1277 C 0.0842 0.01105 0.18068 0.0
C1278 C 0.07125 0.98911 0.17911 0.0
C1279 C 0.08096 0.96928 0.18743 0.0
C1280 C 0.10366 0.97137 0.19724 0.0
C1281 C 0.18312 0.96215 0.30292 0.0
C1282 C 0.17063 0.93972 0.30373 0.0
C1283 C 0.18115 0.97672 0.28322 0.0
C1284 C 0.16718 0.96883 0.26376 0.0
C1285 C 0.15418 0.94671 0.26508 0.0
C1286 C 0.15567 0.93251 0.28483 0.0
C1287 C 0.16595 0.98305 0.24176 0.0
C1288 C 0.14365 0.98413 0.23136 0.0
C1289 C 0.18634 0.99423 0.23022 0.0
C1290 C 0.21071 0.99172 0.23857 0.0
C1291 C 0.21847 0.96941 0.24144 0.0
C1292 C 0.24143 0.96711 0.24939 0.0
C1293 C 0.2569 0.98702 0.25428 0.0
C1294 C 0.24946 0.00926 0.25113 0.0
C1295 C 0.22651 0.01163 0.24321 0.0
H1296 H 0.27468 0.98521 0.26042 0.0
H1297 H 0.05369 0.98747 0.17146 0.0
H1298 H 0.37445 0.86086 0.55693 0.0
H1299 H 0.34397 0.85942 0.52639 0.0
H1300 H 0.36383 0.93225 0.51011 0.0
H1301 H 0.39371 0.93395 0.54093 0.0
H1302 H 0.31835 0.92551 0.5129 0.0
H1303 H 0.37398 0.88701 0.45954 0.0
H1304 H 0.40322 0.85841 0.4539 0.0
H1305 H 0.35493 0.80465 0.48574 0.0
H1306 H 0.3258 0.83317 0.49198 0.0
H1307 H 0.26676 0.9343 0.39818 0.0
H1308 H 0.29504 0.93225 0.43059 0.0
H1309 H 0.25893 0.86606 0.45257 0.0
H1310 H 0.23001 0.86833 0.42068 0.0
H1311 H 0.31081 0.86774 0.44786 0.0
H1312 H 0.25066 0.9104 0.48366 0.0
H1313 H 0.22489 0.94258 0.48449 0.0
H1314 H 0.28633 0.99288 0.48567 0.0
H1315 H 0.31235 0.96105 0.48387 0.0
C1316 C 0.37246 0.87647 0.54666 0.0
C1317 C 0.38646 0.89751 0.55142 0.0
C1318 C 0.35514 0.8756 0.529 0.0
C1319 C 0.35163 0.89568 0.51566 0.0
C1320 C 0.36598 0.91654 0.52018 0.0
C1321 C 0.38314 0.91746 0.53784 0.0
C1322 C 0.33249 0.89551 0.49767 0.0
C1323 C 0.31677 0.91288 0.49866 0.0
C1324 C 0.33014 0.87903 0.47917 0.0
C1325 C 0.3476 0.86196 0.47575 0.0
C1326 C 0.36965 0.86905 0.46523 0.0
C1327 C 0.38623 0.85291 0.46203 0.0
C1328 C 0.38089 0.82968 0.46932 0.0
C1329 C 0.35899 0.82258 0.47991 0.0
C1330 C 0.34239 0.83867 0.48314 0.0
C1331 C 0.26462 0.91948 0.41016 0.0
C1332 C 0.24602 0.90161 0.40707 0.0
C1333 C 0.28082 0.91829 0.4286 0.0
C1334 C 0.27901 0.89899 0.44403 0.0
C1335 C 0.2605 0.88111 0.44096 0.0
C1336 C 0.24394 0.88254 0.42284 0.0
C1337 C 0.29653 0.89753 0.46331 0.0
C1338 C 0.31211 0.88007 0.46236 0.0
C1339 C 0.29896 0.91419 0.48168 0.0
C1340 C 0.28337 0.93334 0.48334 0.0
C1341 C 0.25859 0.92834 0.48377 0.0
C1342 C 0.24398 0.9465 0.48444 0.0
C1343 C 0.25397 0.96974 0.48515 0.0
C1344 C 0.27861 0.97487 0.48512 0.0
C1345 C 0.29329 0.95677 0.48422 0.0
H1346 H 0.24263 0.98377 0.48575 0.0
H1347 H 0.39375 0.81722 0.46686 0.0
H1348 H 0.30831 0.07754 0.75565 0.0
H1349 H 0.32059 0.04879 0.72762 0.0
H1350 H 0.39298 0.06296 0.75128 0.0
H1351 H 0.38094 0.09313 0.77775 0.0
H1352 H 0.39488 0.05256 0.70876 0.0
H1353 H 0.34756 0.01881 0.7731 0.0
H1354 H 0.31197 0.01201 0.79824 0.0
H1355 H 0.27199 0.983 0.73917 0.0
H1356 H 0.30736 0.99 0.71361 0.0
H1357 H 0.43793 0.94336 0.69191 0.0
H1358 H 0.42086 0.97581 0.71118 0.0
H1359 H 0.35977 0.96562 0.66589 0.0
H1360 H 0.37706 0.93348 0.64604 0.0
H1361 H 0.3488 0.97462 0.71356 0.0
H1362 H 0.39784 0.00621 0.65129 0.0
H1363 H 0.43415 0.012 0.62698 0.0
H1364 H 0.47288 0.04248 0.68613 0.0
H1365 H 0.43688 0.03653 0.71087 0.0
C1366 C 0.32684 0.07452 0.75469 0.0
C1367 C 0.34363 0.08699 0.76921 0.0
C1368 C 0.33387 0.0581 0.73872 0.0
C1369 C 0.35757 0.05289 0.73802 0.0
C1370 C 0.37453 0.06634 0.75165 0.0
C1371 C 0.36764 0.08341 0.76696 0.0
C1372 C 0.3645 0.03249 0.72449 0.0
C1373 C 0.38505 0.0354 0.71034 0.0
C1374 C 0.3513 0.01011 0.72584 0.0
C1375 C 0.33015 0.00513 0.74139 0.0
C1376 C 0.33122 0.01097 0.76548 0.0
C1377 C 0.31102 0.00723 0.77977 0.0
C1378 C 0.28964 0.99727 0.77026 0.0
C1379 C 0.28852 0.99086 0.74648 0.0
C1380 C 0.30866 0.99472 0.73209 0.0
C1381 C 0.42064 0.9477 0.6864 0.0
C1382 C 0.40873 0.93582 0.6676 0.0
C1383 C 0.411 0.96633 0.69729 0.0
C1384 C 0.38921 0.97322 0.68974 0.0
C1385 C 0.37665 0.96059 0.67186 0.0
C1386 C 0.38651 0.94224 0.66062 0.0
C1387 C 0.38014 0.99423 0.69993 0.0
C1388 C 0.35895 0.99157 0.71285 0.0
C1389 C 0.39308 0.01654 0.69809 0.0
C1390 C 0.4147 0.02061 0.68309 0.0
C1391 C 0.41414 0.01394 0.6592 0.0
C1392 C 0.43467 0.01729 0.6453 0.0
C1393 C 0.45584 0.02751 0.65502 0.0
C1394 C 0.45649 0.0345 0.67863 0.0
C1395 C 0.43602 0.03114 0.6926 0.0
H1396 H 0.47172 0.03008 0.64424 0.0
H1397 H 0.27402 0.99433 0.78135 0.0
H1398 H 0.28746 0.13044 0.89856 0.0
H1399 H 0.25894 0.12584 0.93136 0.0
H1400 H 0.22339 0.06473 0.89824 0.0
H1401 H 0.25109 0.06978 0.86489 0.0
H1402 H 0.19347 0.0971 0.91057 0.0
H1403 H 0.25649 0.06047 0.94375 0.0
H1404 H 0.29562 0.05376 0.95934 0.0
H1405 H 0.28817 0.10377 0.01425 0.0
H1406 H 0.24987 0.11213 0.99805 0.0
H1407 H 0.12066 0.05772 0.0106 0.0
H1408 H 0.14784 0.0617 0.97693 0.0
H1409 H 0.18094 0.12653 0.00517 0.0
H1410 H 0.1536 0.12278 0.039 0.0
H1411 H 0.21162 0.09038 0.9957 0.0
H1412 H 0.14887 0.12801 0.95962 0.0
H1413 H 0.10839 0.13116 0.94545 0.0
H1414 H 0.11369 0.07315 0.89889 0.0
H1415 H 0.1542 0.06941 0.91299 0.0
C1416 C 0.27402 0.1156 0.89864 0.0
C1417 C 0.2716 0.10033 0.87929 0.0
C1418 C 0.25783 0.11298 0.91741 0.0
C1419 C 0.23942 0.0947 0.91745 0.0
C1420 C 0.23757 0.07888 0.89859 0.0
C1421 C 0.25347 0.08171 0.87964 0.0
C1422 C 0.22092 0.09328 0.9361 0.0
C1423 C 0.19745 0.09537 0.92918 0.0
C1424 C 0.22626 0.0913 0.96042 0.0
C1425 C 0.25031 0.08741 0.96918 0.0
C1426 C 0.26346 0.07069 0.95863 0.0
C1427 C 0.28558 0.06654 0.96765 0.0
C1428 C 0.29454 0.07853 0.98761 0.0
C1429 C 0.28142 0.09472 0.99858 0.0
C1430 C 0.25957 0.09932 0.98934 0.0
C1431 C 0.13348 0.07303 0.00949 0.0
C1432 C 0.13523 0.08983 0.02755 0.0
C1433 C 0.14891 0.07529 0.99021 0.0
C1434 C 0.16638 0.09431 0.98873 0.0
C1435 C 0.16757 0.11166 0.00618 0.0
C1436 C 0.15194 0.10955 0.02539 0.0
C1437 C 0.18469 0.09493 0.97011 0.0
C1438 C 0.20796 0.09236 0.97704 0.0
C1439 C 0.17917 0.0961 0.94588 0.0
C1440 C 0.15467 0.09834 0.9375 0.0
C1441 C 0.14144 0.11579 0.94648 0.0
C1442 C 0.11845 0.11771 0.93843 0.0
C1443 C 0.10845 0.10235 0.9213 0.0
C1444 C 0.12145 0.08505 0.91217 0.0
C1445 C 0.14446 0.08304 0.92017 0.0
H1446 H 0.09064 0.10387 0.91508 0.0
H1447 H 0.31157 0.07514 0.99468 0.0
H1448 H 0.13284 0.11932 0.24396 0.0
H1449 H 0.12998 0.08529 0.27026 0.0
H1450 H 0.08914 0.04506 0.21782 0.0
H1451 H 0.09386 0.07848 0.19052 0.0
H1452 H 0.07429 0.02966 0.25545 0.0
H1453 H 0.15488 0.04805 0.22961 0.0
H1454 H 0.19553 0.06821 0.22475 0.0
H1455 H 0.20433 0.06919 0.29985 0.0
H1456 H 0.16383 0.04976 0.30513 0.0
H1457 H 0.09118 0.91927 0.30623 0.0
H1458 H 0.09286 0.95255 0.27882 0.0
H1459 H 0.13292 0.99558 0.33003 0.0
H1460 H 0.13286 0.96224 0.35636 0.0
H1461 H 0.14841 0.00862 0.29199 0.0
H1462 H 0.06745 0.99375 0.31872 0.0
H1463 H 0.02897 0.97018 0.32468 0.0
H1464 H 0.022 0.96077 0.24974 0.0
H1465 H 0.06058 0.9841 0.24337 0.0
C1466 C 0.12339 0.10309 0.23796 0.0
C1467 C 0.11399 0.10135 0.21501 0.0
C1468 C 0.12197 0.08353 0.25295 0.0
C1469 C 0.11087 0.06185 0.2454 0.0
C1470 C 0.09937 0.06092 0.22338 0.0
C1471 C 0.10167 0.08016 0.20794 0.0
C1472 C 0.11164 0.04007 0.25996 0.0
C1473 C 0.09067 0.02498 0.2631 0.0
C1474 C 0.13277 0.03392 0.27073 0.0
C1475 C 0.15626 0.04762 0.26764 0.0
C1476 C 0.16543 0.05294 0.24499 0.0
C1477 C 0.18839 0.06414 0.24219 0.0
C1478 C 0.20247 0.06974 0.26192 0.0
C1479 C 0.19346 0.06469 0.28455 0.0
C1480 C 0.17046 0.05372 0.28745 0.0
C1481 C 0.10074 0.93574 0.31137 0.0
C1482 C 0.11176 0.93808 0.33357 0.0
C1483 C 0.10135 0.95491 0.29585 0.0
C1484 C 0.11223 0.97701 0.30258 0.0
C1485 C 0.12421 0.97892 0.32428 0.0
C1486 C 0.12421 0.9597 0.33942 0.0
C1487 C 0.11125 0.99832 0.28744 0.0
C1488 C 0.13213 0.01331 0.28421 0.0
C1489 C 0.09013 0.00442 0.27681 0.0
C1490 C 0.06696 0.99047 0.2806 0.0
C1491 C 0.05776 0.98654 0.30354 0.0
C1492 C 0.03593 0.97324 0.30698 0.0
C1493 C 0.02308 0.96393 0.2876 0.0
C1494 C 0.03199 0.96796 0.26473 0.0
C1495 C 0.05382 0.98124 0.26119 0.0
H1496 H 0.00619 0.95364 0.29031 0.0
H1497 H 0.22034 0.0781 0.25968 0.0
H1498 H 0.31529 0.88242 0.56181 0.0
H1499 H 0.28503 0.88418 0.53143 0.0
H1500 H 0.26337 0.81063 0.54145 0.0
H1501 H 0.29463 0.80839 0.57039 0.0
H1502 H 0.23965 0.87709 0.53928 0.0
H1503 H 0.2856 0.83731 0.4705 0.0
H1504 H 0.30692 0.80419 0.45745 0.0
H1505 H 0.25789 0.75657 0.49652 0.0
H1506 H 0.23612 0.78948 0.50927 0.0
H1507 H 0.18403 0.91428 0.43965 0.0
H1508 H 0.21253 0.90172 0.46759 0.0
H1509 H 0.17867 0.83107 0.46476 0.0
H1510 H 0.14985 0.84359 0.43635 0.0
H1511 H 0.22458 0.83002 0.46675 0.0
H1512 H 0.16905 0.8667 0.5095 0.0
H1513 H 0.14273 0.89606 0.52153 0.0
H1514 H 0.20318 0.9444 0.53808 0.0
H1515 H 0.22991 0.91549 0.52591 0.0
C1516 C 0.30456 0.86647 0.55701 0.0
C1517 C 0.30758 0.84523 0.56839 0.0
C1518 C 0.28722 0.86748 0.53962 0.0
C1519 C 0.27211 0.84741 0.53358 0.0
C1520 C 0.2753 0.82615 0.5448 0.0
C1521 C 0.29303 0.825 0.56175 0.0
C1522 C 0.25146 0.84971 0.51781 0.0
C1523 C 0.23662 0.8671 0.52317 0.0
C1524 C 0.24612 0.83537 0.49786 0.0
C1525 C 0.25988 0.81588 0.49145 0.0
C1526 C 0.27967 0.81982 0.47652 0.0
C1527 C 0.29168 0.80108 0.46903 0.0
C1528 C 0.28397 0.77832 0.47642 0.0
C1529 C 0.26402 0.77423 0.49102 0.0
C1530 C 0.25181 0.7929 0.49829 0.0
C1531 C 0.18266 0.89601 0.4448 0.0
C1532 C 0.16447 0.87998 0.436 0.0
C1533 C 0.19895 0.88887 0.46094 0.0
C1534 C 0.19745 0.86558 0.4688 0.0
C1535 C 0.18006 0.8492 0.45913 0.0
C1536 C 0.16364 0.85636 0.44287 0.0
C1537 C 0.21401 0.8587 0.48726 0.0
C1538 C 0.22764 0.84017 0.48276 0.0
C1539 C 0.21767 0.8715 0.5085 0.0
C1540 C 0.2016 0.88903 0.51613 0.0
C1541 C 0.17681 0.8837 0.51535 0.0
C1542 C 0.16177 0.90025 0.52232 0.0
C1543 C 0.17127 0.92214 0.5304 0.0
C1544 C 0.19583 0.92747 0.5317 0.0
C1545 C 0.21094 0.91098 0.52476 0.0
H1546 H 0.1596 0.93493 0.53578 0.0
H1547 H 0.29333 0.76384 0.47067 0.0
H1548 H 0.3677 0.02421 0.87484 0.0
H1549 H 0.36761 0.99206 0.84686 0.0
H1550 H 0.38667 0.04151 0.79077 0.0
H1551 H 0.38809 0.07369 0.81901 0.0
H1552 H 0.346 0.97584 0.81224 0.0
H1553 H 0.41623 0.02153 0.74777 0.0
H1554 H 0.45124 0.05096 0.74923 0.0
H1555 H 0.46244 0.03325 0.82175 0.0
H1556 H 0.42758 0.00379 0.82068 0.0
H1557 H 0.34405 0.91378 0.70424 0.0
H1558 H 0.34308 0.94189 0.73641 0.0
H1559 H 0.41449 0.93017 0.75556 0.0
H1560 H 0.41488 0.90079 0.72431 0.0
H1561 H 0.41178 0.97502 0.75432 0.0
H1562 H 0.36672 0.91116 0.79192 0.0
H1563 H 0.33569 0.87798 0.7957 0.0
H1564 H 0.28185 0.92431 0.78511 0.0
H1565 H 0.31265 0.95772 0.78142 0.0
C1566 C 0.37173 0.02828 0.85647 0.0
C1567 C 0.37809 0.05154 0.84918 0.0
C1568 C 0.37165 0.0098 0.84042 0.0
C1569 C 0.37761 0.01411 0.81657 0.0
C1570 C 0.38269 0.03752 0.80909 0.0
C1571 C 0.38331 0.05598 0.82523 0.0
C1572 C 0.37885 0.9942 0.7997 0.0
C1573 C 0.36049 0.97572 0.7997 0.0
C1574 C 0.39793 0.99338 0.78352 0.0
C1575 C 0.41923 0.01063 0.78415 0.0
C1576 C 0.42627 0.02388 0.76394 0.0
C1577 C 0.44603 0.04057 0.76473 0.0
C1578 C 0.45902 0.04396 0.78556 0.0
C1579 C 0.45232 0.03065 0.80565 0.0
C1580 C 0.43254 0.014 0.80497 0.0
C1581 C 0.35955 0.91724 0.7153 0.0
C1582 C 0.37965 0.90533 0.7116 0.0
C1583 C 0.35901 0.93334 0.7337 0.0
C1584 C 0.37888 0.9386 0.74821 0.0
C1585 C 0.39899 0.92664 0.74451 0.0
C1586 C 0.39921 0.90986 0.72667 0.0
C1587 C 0.37887 0.95698 0.76675 0.0
C1588 C 0.39739 0.97517 0.76698 0.0
C1589 C 0.36055 0.95695 0.78382 0.0
C1590 C 0.34196 0.93694 0.78621 0.0
C1591 C 0.34826 0.91424 0.79029 0.0
C1592 C 0.33073 0.89538 0.79244 0.0
C1593 C 0.30681 0.89898 0.7905 0.0
C1594 C 0.30038 0.92151 0.78658 0.0
C1595 C 0.31786 0.94044 0.78456 0.0
H1596 H 0.29327 0.88433 0.7921 0.0
H1597 H 0.4743 0.05689 0.78613 0.0
H1598 H 0.36531 0.17641 0.94889 0.0
H1599 H 0.33368 0.18537 0.97593 0.0
H1600 H 0.29175 0.12217 0.95501 0.0
H1601 H 0.3227 0.11326 0.92762 0.0
H1602 H 0.26513 0.16099 0.96041 0.0
H1603 H 0.32628 0.12319 0.00045 0.0
H1604 H 0.36646 0.11944 0.01503 0.0
H1605 H 0.36507 0.18283 0.05459 0.0
H1606 H 0.32483 0.18715 0.04002 0.0
H1607 H 0.18953 0.13574 0.06407 0.0
H1608 H 0.21745 0.13295 0.03098 0.0
H1609 H 0.25607 0.19796 0.05221 0.0
H1610 H 0.22825 0.20115 0.0847 0.0
H1611 H 0.28438 0.16067 0.04571 0.0
H1612 H 0.22291 0.19746 0.00947 0.0
H1613 H 0.18343 0.20365 0.99449 0.0
H1614 H 0.18707 0.14778 0.94505 0.0
H1615 H 0.22582 0.14015 0.9608 0.0
C1616 C 0.34909 0.16468 0.9496 0.0
C1617 C 0.34662 0.14406 0.93605 0.0
C1618 C 0.33108 0.1698 0.96515 0.0
C1619 C 0.31034 0.15436 0.96754 0.0
C1620 C 0.30738 0.13446 0.95321 0.0
C1621 C 0.32524 0.12937 0.93758 0.0
C1622 C 0.29241 0.15789 0.98604 0.0
C1623 C 0.26911 0.16062 0.97912 0.0
C1624 C 0.29809 0.15822 0.01036 0.0
C1625 C 0.32243 0.15556 0.019 0.0
C1626 C 0.33446 0.13641 0.01217 0.0
C1627 C 0.35731 0.13417 0.02044 0.0
C1628 C 0.36834 0.1509 0.03571 0.0
C1629 C 0.35651 0.16989 0.04275 0.0
C1630 C 0.33366 0.17222 0.03449 0.0
C1631 C 0.20377 0.14958 0.06144 0.0
C1632 C 0.20655 0.16872 0.07699 0.0
C1633 C 0.21967 0.14798 0.04254 0.0
C1634 C 0.23878 0.16531 0.0391 0.0
C1635 C 0.24146 0.18441 0.05452 0.0
C1636 C 0.22543 0.18623 0.07306 0.0
C1637 C 0.25673 0.16325 0.02018 0.0
C1638 C 0.28015 0.16091 0.02704 0.0
C1639 C 0.25114 0.16356 0.9958 0.0
C1640 C 0.22711 0.16756 0.98707 0.0
C1641 C 0.215 0.18583 0.99607 0.0
C1642 C 0.19267 0.18967 0.98735 0.0
C1643 C 0.18249 0.1758 0.96915 0.0
C1644 C 0.19466 0.15813 0.95956 0.0
C1645 C 0.21674 0.15392 0.96852 0.0
H1646 H 0.16531 0.17894 0.96226 0.0
H1647 H 0.38603 0.14913 0.04211 0.0
H1648 H 0.92929 0.27241 0.0708 0.0
H1649 H 0.96078 0.24665 0.06795 0.0
H1650 H 0.00529 0.29347 0.1121 0.0
H1651 H 0.97386 0.31937 0.11471 0.0
H1652 H 0.00665 0.24231 0.05883 0.0
H1653 H 0.01913 0.25964 0.16121 0.0
H1654 H 0.99479 0.27254 0.19411 0.0
H1655 H 0.93142 0.25362 0.1547 0.0
H1656 H 0.95505 0.23962 0.12216 0.0
H1657 H 0.09412 0.17024 0.09351 0.0
H1658 H 0.07212 0.20405 0.08608 0.0
H1659 H 0.01963 0.1778 0.1378 0.0
H1660 H 0.0425 0.14541 0.14651 0.0
H1661 H 0.02124 0.21884 0.14146 0.0
H1662 H 0.01598 0.171 0.0748 0.0
H1663 H 0.02784 0.14831 0.04074 0.0
H1664 H 0.05704 0.2116 0.00634 0.0
H1665 H 0.04557 0.23468 0.04027 0.0
C1666 C 0.94614 0.27776 0.07911 0.0
C1667 C 0.94889 0.29751 0.09385 0.0
C1668 C 0.96419 0.263 0.07739 0.0
C1669 C 0.98512 0.26785 0.09038 0.0
C1670 C 0.98912 0.28924 0.10228 0.0
C1671 C 0.9711 0.30395 0.10397 0.0
C1672 C 0.00023 0.2489 0.09547 0.0
C1673 C 0.01023 0.23726 0.07683 0.0
C1674 C 0.00328 0.24127 0.11895 0.0
C1675 C 0.98901 0.24929 0.13888 0.0
C1676 C 3e-05 0.25828 0.15956 0.0
C1677 C 0.98636 0.26563 0.1782 0.0
C1678 C 0.9617 0.26421 0.17635 0.0
C1679 C 0.95056 0.25497 0.15604 0.0
C1680 C 0.96408 0.24726 0.13752 0.0
C1681 C 0.07815 0.17211 0.1036 0.0
C1682 C 0.06999 0.15528 0.12058 0.0
C1683 C 0.0654 0.19127 0.09916 0.0
C1684 C 0.04377 0.19335 0.11089 0.0
C1685 C 0.03621 0.17686 0.12846 0.0
C1686 C 0.04935 0.15826 0.13348 0.0
C1687 C 0.02866 0.21228 0.10479 0.0
C1688 C 0.01836 0.22396 0.12334 0.0
C1689 C 0.02365 0.2184 0.08109 0.0
C1690 C 0.03058 0.20456 0.06052 0.0
C1691 C 0.02526 0.18009 0.06016 0.0
C1692 C 0.03182 0.16714 0.0408 0.0
C1693 C 0.04338 0.17848 0.02148 0.0
C1694 C 0.04825 0.20281 0.0214 0.0
C1695 C 0.04174 0.21583 0.04072 0.0
H1696 H 0.04843 0.16843 0.0065 0.0
H1697 H 0.95122 0.27009 0.19074 0.0
H1698 H 0.56733 0.31634 0.91604 0.0
H1699 H 0.54219 0.27879 0.91305 0.0
H1700 H 0.52735 0.29518 0.84046 0.0
H1701 H 0.55052 0.33262 0.84401 0.0
H1702 H 0.48999 0.28495 0.85308 0.0
H1703 H 0.53477 0.19161 0.86668 0.0
H1704 H 0.56464 0.18501 0.83423 0.0
H1705 H 0.61882 0.25225 0.845 0.0
H1706 H 0.55975 0.24046 0.89338 0.0
H1707 H 0.41997 0.17633 0.80364 0.0
H1708 H 0.45684 0.19678 0.81794 0.0
H1709 H 0.42115 0.21533 0.88158 0.0
H1710 H 0.38433 0.19364 0.86771 0.0
H1711 H 0.50698 0.19496 0.89296 0.0
H1712 H 0.4431 0.28248 0.8686 0.0
H1713 H 0.40991 0.30006 0.84983 0.0
H1714 H 0.41462 0.25565 0.78959 0.0
H1715 H 0.44789 0.23814 0.80777 0.0
C1716 C 0.55875 0.31167 0.89943 0.0
C1717 C 0.561 0.32742 0.88018 0.0
C1718 C 0.54439 0.29017 0.89774 0.0
C1719 C 0.5328 0.28365 0.87648 0.0
C1720 C 0.53538 0.29956 0.85737 0.0
C1721 C 0.54913 0.32102 0.8592 0.0
C1722 C 0.51603 0.26184 0.87421 0.0
C1723 C 0.49144 0.26708 0.85846 0.0
C1724 C 0.52222 0.23539 0.88626 0.0
C1725 C 0.54836 0.22932 0.88469 0.0
C1726 C 0.54857 0.20582 0.86563 0.0
C1727 C 0.56852 0.20086 0.84432 0.0
C1728 C 0.59376 0.21727 0.83719 0.0
C1729 C 0.60262 0.24227 0.85158 0.0
C1730 C 0.57274 0.25112 0.8844 0.0
C1731 C 0.42016 0.18434 0.82093 0.0
C1732 C 0.39954 0.18304 0.83484 0.0
C1733 C 0.44132 0.19585 0.82922 0.0
C1734 C 0.44226 0.20652 0.8515 0.0
C1735 C 0.42126 0.20625 0.8649 0.0
C1736 C 0.40021 0.19398 0.85695 0.0
C1737 C 0.4652 0.21999 0.85982 0.0
C1738 C 0.50222 0.21098 0.88446 0.0
C1739 C 0.46775 0.24856 0.85126 0.0
C1740 C 0.44776 0.25869 0.83981 0.0
C1741 C 0.43702 0.27646 0.85135 0.0
C1742 C 0.41819 0.28645 0.84079 0.0
C1743 C 0.41006 0.27888 0.81858 0.0
C1744 C 0.4208 0.26137 0.80688 0.0
C1745 C 0.4396 0.25133 0.81739 0.0
H1746 H 0.3955 0.28665 0.81042 0.0
H1747 H 0.60458 0.21176 0.8229 0.0
H1748 H 0.98021 0.6621 0.33175 0.0
H1749 H 0.00652 0.6974 0.32403 0.0
H1750 H 0.9781 0.70401 0.38558 0.0
H1751 H 0.95796 0.68455 0.4008 0.0
H1752 H 0.98745 0.75625 0.34667 0.0
H1753 H 0.03756 0.70595 0.38966 0.0
H1754 H 0.05616 0.6692 0.39394 0.0
H1755 H 0.08865 0.67997 0.32558 0.0
H1756 H 0.06994 0.71664 0.32078 0.0
H1757 H 0.10973 0.82183 0.38094 0.0
H1758 H 0.07598 0.7918 0.38251 0.0
H1759 H 0.0547 0.81161 0.31284 0.0
H1760 H 0.08829 0.84222 0.31138 0.0
H1761 H 0.07426 0.75677 0.34991 0.0
H1762 H 0.00596 0.80426 0.32602 0.0
H1763 H 0.98449 0.83631 0.2852 0.0
H1764 H 0.96218 0.86397 0.36104 0.0
H1765 H 0.98312 0.83262 0.38789 0.0
C1766 C 0.9817 0.6756 0.3451 0.0
C1767 C 0.96877 0.6723 0.36621 0.0
C1768 C 0.99686 0.69601 0.34062 0.0
C1769 C -0.00019 0.71465 0.35669 0.0
C1770 C 0.98792 0.71402 0.37833 0.0
C1771 C 0.97116 0.69122 0.384 0.0
C1772 C 0.01605 0.7359 0.35148 0.0
C1773 C 0.00635 0.75706 0.348 0.0
C1774 C 0.0408 0.73576 0.35175 0.0
C1775 C 0.05214 0.71385 0.35475 0.0
C1776 C 0.04849 0.70036 0.37546 0.0
C1777 C 0.05909 0.67958 0.378 0.0
C1778 C 0.07351 0.67221 0.36001 0.0
C1779 C 0.07743 0.68566 0.33948 0.0
C1780 C 0.06685 0.70645 0.33684 0.0
C1781 C 0.09754 0.82021 0.36621 0.0
C1782 C 0.1015 0.83448 0.34615 0.0
C1783 C 0.07825 0.80307 0.3671 0.0
C1784 C 0.06255 0.79973 0.34795 0.0
C1785 C 0.06616 0.81428 0.32804 0.0
C1786 C 0.08548 0.83157 0.32717 0.0
C1787 C 0.0454 0.77853 0.34768 0.0
C1788 C 0.05514 0.75698 0.34953 0.0
C1789 C 0.02033 0.77883 0.34694 0.0
C1790 C 0.00673 0.80246 0.34121 0.0
C1791 C 0.00217 0.81039 0.31086 0.0
C1792 C 0.98628 0.83299 0.30388 0.0
C1793 C 0.97275 0.85119 0.32218 0.0
C1794 C 0.9717 0.85116 0.35215 0.0
C1795 C 0.98511 0.83141 0.3687 0.0
H1796 H 0.9636 0.86444 0.31353 0.0
H1797 H 0.0817 0.65612 0.36201 0.0
H1798 H 0.96951 0.33801 0.16279 0.0
H1799 H 0.00143 0.31339 0.16929 0.0
H1800 H 0.04648 0.35658 0.12138 0.0
H1801 H 0.01429 0.38067 0.11407 0.0
H1802 H 0.04826 0.3162 0.10822 0.0
H1803 H 0.05588 0.3502 0.18232 0.0
H1804 H 0.0459 0.3649 0.22147 0.0
H1805 H 0.02549 0.29471 0.24539 0.0
H1806 H 0.03507 0.27953 0.20634 0.0
H1807 H 0.13766 0.23697 0.12613 0.0
H1808 H 0.11695 0.27222 0.12614 0.0
H1809 H 0.05766 0.23455 0.16238 0.0
H1810 H 0.07849 0.19939 0.16301 0.0
H1811 H 0.06988 0.277 0.1819 0.0
H1812 H 0.0652 0.24708 0.10057 0.0
H1813 H 0.0836 0.23842 0.06249 0.0
H1814 H 0.10926 0.3108 0.05401 0.0
H1815 H 0.09212 0.3197 0.09256 0.0
C1816 C 0.98642 0.34266 0.15412 0.0
C1817 C 0.98916 0.36108 0.13757 0.0
C1818 C 0.00476 0.32849 0.15786 0.0
C1819 C 0.02645 0.33278 0.14561 0.0
C1820 C 0.02986 0.35253 0.13077 0.0
C1821 C 0.01145 0.36648 0.12675 0.0
C1822 C 0.04433 0.31534 0.14613 0.0
C1823 C 0.05324 0.30799 0.12448 0.0
C1824 C 0.05131 0.30468 0.16727 0.0
C1825 C 0.04559 0.31372 0.19101 0.0
C1826 C 0.0489 0.33787 0.19576 0.0
C1827 C 0.04343 0.34631 0.21802 0.0
C1828 C 0.03488 0.33077 0.23586 0.0
C1829 C 0.03197 0.30675 0.23151 0.0
C1830 C 0.03742 0.29822 0.20929 0.0
C1831 C 0.12006 0.23605 0.13383 0.0
C1832 C 0.1097 0.21522 0.14444 0.0
C1833 C 0.10826 0.2563 0.13387 0.0
C1834 C 0.08557 0.25604 0.14399 0.0
C1835 C 0.07509 0.2352 0.15435 0.0
C1836 C 0.08699 0.21504 0.15459 0.0
C1837 C 0.07256 0.27732 0.14404 0.0
C1838 C 0.06483 0.28548 0.16582 0.0
C1839 C 0.06763 0.28954 0.12312 0.0
C1840 C 0.0774 0.28398 0.09963 0.0
C1841 C 0.07478 0.26111 0.09065 0.0
C1842 C 0.08506 0.25615 0.069 0.0
C1843 C 0.09739 0.27405 0.05576 0.0
C1844 C 0.09966 0.29693 0.06425 0.0
C1845 C 0.08979 0.3019 0.08608 0.0
H1846 H 0.10524 0.27016 0.03896 0.0
H1847 H 0.03065 0.33734 0.25308 0.0
H1848 H 0.62404 0.70687 0.59731 0.0
H1849 H 0.59703 0.73751 0.598 0.0
H1850 H 0.61505 0.75171 0.67094 0.0
H1851 H 0.64058 0.72017 0.67062 0.0
H1852 H 0.57285 0.75367 0.66899 0.0
H1853 H 0.6345 0.78893 0.6184 0.0
H1854 H 0.66199 0.79181 0.58437 0.0
H1855 H 0.60299 0.78485 0.53672 0.0
H1856 H 0.57515 0.78165 0.57048 0.0
H1857 H 0.52102 0.86135 0.67522 0.0
H1858 H 0.55021 0.8329 0.67298 0.0
H1859 H 0.52109 0.80834 0.60632 0.0
H1860 H 0.49238 0.83745 0.60805 0.0
H1861 H 0.56851 0.81218 0.60506 0.0
H1862 H 0.50776 0.78459 0.65988 0.0
H1863 H 0.48268 0.78261 0.69548 0.0
H1864 H 0.54404 0.77823 0.73878 0.0
H1865 H 0.56959 0.78065 0.70338 0.0
C1866 C 0.62224 0.71666 0.6134 0.0
C1867 C 0.63434 0.71109 0.63391 0.0
C1868 C 0.60692 0.73435 0.61379 0.0
C1869 C 0.604 0.74736 0.63447 0.0
C1870 C 0.61658 0.74196 0.65478 0.0
C1871 C 0.6313 0.72392 0.65458 0.0
C1872 C 0.58738 0.76601 0.63545 0.0
C1873 C 0.57232 0.76676 0.6552 0.0
C1874 C 0.58609 0.78289 0.61728 0.0
C1875 C 0.60277 0.78485 0.59696 0.0
C1876 C 0.6274 0.78788 0.60066 0.0
C1877 C 0.64304 0.78958 0.58143 0.0
C1878 C 0.63424 0.78845 0.5584 0.0
C1879 C 0.60978 0.78569 0.55456 0.0
C1880 C 0.59406 0.78395 0.57373 0.0
C1881 C 0.52077 0.84986 0.6601 0.0
C1882 C 0.50404 0.85129 0.64201 0.0
C1883 C 0.5375 0.83361 0.65883 0.0
C1884 C 0.53765 0.81824 0.63961 0.0
C1885 C 0.52125 0.81995 0.62134 0.0
C1886 C 0.50469 0.83637 0.62248 0.0
C1887 C 0.5544 0.79995 0.63874 0.0
C1888 C 0.56933 0.79923 0.61896 0.0
C1889 C 0.55603 0.78355 0.65729 0.0
C1890 C 0.54068 0.78298 0.67878 0.0
C1891 C 0.516 0.78354 0.67695 0.0
C1892 C 0.50166 0.78228 0.69714 0.0
C1893 C 0.51176 0.78033 0.7194 0.0
C1894 C 0.53623 0.77974 0.72151 0.0
C1895 C 0.55065 0.78106 0.70135 0.0
H1896 H 0.50062 0.77923 0.73502 0.0
H1897 H 0.64638 0.78977 0.54353 0.0
H1898 H 0.90779 0.66004 0.34102 0.0
H1899 H 0.93118 0.69515 0.35507 0.0
H1900 H 0.86776 0.72225 0.38002 0.0
H1901 H 0.8442 0.6866 0.36667 0.0
H1902 H 0.90857 0.73752 0.33282 0.0
H1903 H 0.88684 0.73304 0.41525 0.0
H1904 H 0.88256 0.71255 0.45353 0.0
H1905 H 0.95799 0.71081 0.45685 0.0
H1906 H 0.96263 0.7307 0.41826 0.0
H1907 H 0.01503 0.85573 0.32844 0.0
H1908 H 0.95505 0.81226 0.32754 0.0
H1909 H 0.99178 0.78017 0.3948 0.0
H1910 H 0.03016 0.81023 0.39601 0.0
H1911 H 0.95339 0.77097 0.40159 0.0
H1912 H 0.96971 0.75412 0.31216 0.0
H1913 H 0.97359 0.76727 0.27086 0.0
H1914 H 0.91014 0.80159 0.27765 0.0
H1915 H 0.90628 0.78913 0.31939 0.0
C1916 C 0.8991 0.67268 0.35113 0.0
C1917 C 0.87439 0.67045 0.35333 0.0
C1918 C 0.91252 0.6926 0.3594 0.0
C1919 C 0.90152 0.71077 0.3698 0.0
C1920 C 0.87684 0.70797 0.37329 0.0
C1921 C 0.86336 0.68766 0.36549 0.0
C1922 C 0.91495 0.73424 0.36988 0.0
C1923 C 0.91838 0.74508 0.34787 0.0
C1924 C 0.92768 0.74371 0.38953 0.0
C1925 C 0.92497 0.73256 0.41327 0.0
C1926 C 0.90245 0.72774 0.42377 0.0
C1927 C 0.89998 0.71639 0.44567 0.0
C1928 C 0.91996 0.71014 0.45751 0.0
C1929 C 0.94249 0.71547 0.44758 0.0
C1930 C 0.94503 0.72676 0.42565 0.0
C1931 C 0.00894 0.84051 0.33939 0.0
C1932 C 0.02644 0.83465 0.36236 0.0
C1933 C 0.97064 0.81211 0.33852 0.0
C1934 C 0.96989 0.79229 0.36117 0.0
C1935 C 0.99283 0.79331 0.38102 0.0
C1936 C 0.01832 0.81227 0.38139 0.0
C1937 C 0.94937 0.77347 0.36364 0.0
C1938 C 0.94427 0.76353 0.38622 0.0
C1939 C 0.93559 0.76397 0.34419 0.0
C1940 C 0.93849 0.77181 0.31934 0.0
C1941 C 0.95707 0.76513 0.30522 0.0
C1942 C 0.9591 0.77225 0.28159 0.0
C1943 C 0.94234 0.78559 0.27174 0.0
C1944 C 0.92329 0.79153 0.28539 0.0
C1945 C 0.92116 0.78443 0.30901 0.0
H1946 H 0.94397 0.79108 0.25345 0.0
H1947 H 0.91802 0.70134 0.47445 0.0
H1948 H 0.47531 0.16313 0.85818 0.0
H1949 H 0.50319 0.19123 0.82963 0.0
H1950 H 0.48073 0.25617 0.89887 0.0
H1951 H 0.4549 0.2177 0.91747 0.0
H1952 H 0.4883 0.24528 0.81097 0.0
H1953 H 0.57064 0.28347 0.83539 0.0
H1954 H 0.60546 0.29947 0.86489 0.0
H1955 H 0.62024 0.2288 0.90534 0.0
H1956 H 0.58601 0.19982 0.88354 0.0
H1957 H 0.5722 0.33518 0.79779 0.0
H1958 H 0.53982 0.30409 0.799 0.0
H1959 H 0.58309 0.25823 0.76222 0.0
H1960 H 0.61562 0.28961 0.76064 0.0
H1961 H 0.57437 0.24453 0.80478 0.0
H1962 H 0.52553 0.25903 0.74422 0.0
H1963 H 0.50321 0.27934 0.71468 0.0
H1964 H 0.46053 0.30505 0.76963 0.0
H1965 H 0.48289 0.28544 0.79958 0.0
C1966 C 0.47825 0.18125 0.86349 0.0
C1967 C 0.4642 0.18861 0.88882 0.0
C1968 C 0.49578 0.19885 0.84507 0.0
C1969 C 0.50236 0.22814 0.85028 0.0
C1970 C 0.48102 0.23963 0.8894 0.0
C1971 C 0.46502 0.21557 0.90153 0.0
C1972 C 0.5194 0.23982 0.83135 0.0
C1973 C 0.50737 0.2472 0.81136 0.0
C1974 C 0.54501 0.23834 0.8289 0.0
C1975 C 0.56449 0.24238 0.84796 0.0
C1976 C 0.5766 0.27135 0.84811 0.0
C1977 C 0.59925 0.28108 0.86634 0.0
C1978 C 0.61388 0.26528 0.88609 0.0
C1979 C 0.60922 0.2362 0.89233 0.0
C1980 C 0.58754 0.21835 0.87856 0.0
C1981 C 0.57458 0.31873 0.78929 0.0
C1982 C 0.5966 0.31455 0.77977 0.0
C1983 C 0.55586 0.30102 0.78956 0.0
C1984 C 0.55902 0.27868 0.78079 0.0
C1985 C 0.58021 0.27532 0.76897 0.0
C1986 C 0.59888 0.29319 0.7684 0.0
C1987 C 0.54401 0.25843 0.79091 0.0
C1988 C 0.55532 0.24462 0.80681 0.0
C1989 C 0.51933 0.25838 0.7922 0.0
C1990 C 0.50591 0.27056 0.77422 0.0
C1991 C 0.51151 0.26914 0.75007 0.0
C1992 C 0.49883 0.28055 0.73322 0.0
C1993 C 0.48045 0.29344 0.74026 0.0
C1994 C 0.47474 0.29501 0.76418 0.0
C1995 C 0.4874 0.2837 0.78111 0.0
H1996 H 0.47064 0.30224 0.72718 0.0
H1997 H 0.62799 0.275 0.89579 0.0
H1998 H 0.90039 0.10405 0.75253 0.0
H1999 H 0.91128 0.06791 0.77028 0.0
H2000 H 0.8522 0.02894 0.73589 0.0
H2001 H 0.84183 0.06514 0.7169 0.0
H2002 H 0.85277 0.01917 0.78685 0.0
H2003 H 0.90788 0.0341 0.71618 0.0
H2004 H 0.93381 0.05689 0.68812 0.0
H2005 H 0.99188 0.05731 0.73653 0.0
H2006 H 0.96623 0.03469 0.76527 0.0
H2007 H 0.89034 0.90407 0.84584 0.0
H2008 H 0.88986 0.93169 0.81266 0.0
H2009 H 0.91811 0.98783 0.85766 0.0
H2010 H 0.91799 0.96081 0.89067 0.0
H2011 H 0.95162 0.9956 0.77438 0.0
H2012 H 0.87785 0.99332 0.857 0.0
H2013 H 0.84619 0.98642 0.88637 0.0
H2014 H 0.79457 0.98294 0.83107 0.0
H2015 H 0.82637 0.98854 0.80147 0.0
C2016 C 0.88988 0.08775 0.74848 0.0
C2017 C 0.87042 0.08733 0.73318 0.0
C2018 C 0.89614 0.06712 0.75858 0.0
C2019 C 0.8829 0.04572 0.75385 0.0
C2020 C 0.86302 0.04522 0.73914 0.0
C2021 C 0.85711 0.06586 0.72839 0.0
C2022 C 0.88992 0.02434 0.76504 0.0
C2023 C 0.86951 0.0117 0.78626 0.0
C2024 C 0.91962 0.01825 0.76049 0.0
C2025 C 0.93496 0.0321 0.74301 0.0
C2026 C 0.9261 0.03882 0.72107 0.0
C2027 C 0.94083 0.05187 0.70493 0.0
C2028 C 0.96453 0.05846 0.71046 0.0
C2029 C 0.97354 0.05205 0.73218 0.0
C2030 C 0.95888 0.03897 0.74838 0.0
C2031 C 0.89661 0.92233 0.84841 0.0
C2032 C 0.90425 0.93046 0.87067 0.0
C2033 C 0.89604 0.93808 0.82952 0.0
C2034 C 0.90373 0.9619 0.83231 0.0
C2035 C 0.91222 0.96962 0.85456 0.0
C2036 C 0.91208 0.95417 0.87358 0.0
C2037 C 0.90228 0.97902 0.81181 0.0
C2038 C 0.93312 0.99813 0.77823 0.0
C2039 C 0.87418 0.991 0.8085 0.0
C2040 C 0.85504 0.98764 0.82665 0.0
C2041 C 0.86014 0.98867 0.8509 0.0
C2042 C 0.84195 0.98586 0.86775 0.0
C2043 C 0.81832 0.98314 0.8606 0.0
C2044 C 0.8129 0.98411 0.83664 0.0
C2045 C 0.83112 0.98695 0.81984 0.0
H2046 H 0.80423 0.98109 0.87363 0.0
H2047 H 0.9759 0.0686 0.69796 0.0
H2048 H 0.67634 0.15923 0.45149 0.0
H2049 H 0.70183 0.16823 0.49125 0.0
H2050 H 0.69001 0.09787 0.50719 0.0
H2051 H 0.6597 0.07627 0.46271 0.0
H2052 H 0.73275 0.08393 0.5163 0.0
H2053 H 0.69041 0.14317 0.58948 0.0
H2054 H 0.64946 0.1493 0.60067 0.0
H2055 H 0.62277 0.09058 0.55849 0.0
H2056 H 0.66355 0.08384 0.54731 0.0
H2057 H 0.81173 0.14394 0.59167 0.0
H2058 H 0.78078 0.12809 0.56455 0.0
H2059 H 0.74922 0.08323 0.61975 0.0
H2060 H 0.78103 0.09825 0.64686 0.0
H2061 H 0.71798 0.11359 0.59625 0.0
H2062 H 0.76045 0.05636 0.58552 0.0
H2063 H 0.7873 0.02611 0.58033 0.0
H2064 H 0.79428 0.04291 0.50666 0.0
H2065 H 0.76955 0.07498 0.51162 0.0
C2066 C 0.67943 0.1446 0.46271 0.0
C2067 C 0.66777 0.11735 0.45508 0.0
C2068 C 0.69468 0.15005 0.48825 0.0
C2069 C 0.69675 0.11077 0.51311 0.0
C2070 C 0.68145 0.08703 0.49686 0.0
C2071 C 0.66887 0.09179 0.47047 0.0
C2072 C 0.71142 0.10457 0.53707 0.0
C2073 C 0.73039 0.09108 0.53369 0.0
C2074 C 0.70465 0.10897 0.56065 0.0
C2075 C 0.68011 0.11327 0.56717 0.0
C2076 C 0.67584 0.13151 0.58263 0.0
C2077 C 0.65263 0.1351 0.58896 0.0
C2078 C 0.63352 0.12042 0.5802 0.0
C2079 C 0.63758 0.10203 0.56515 0.0
C2080 C 0.66075 0.09837 0.55874 0.0
C2081 C 0.79871 0.13009 0.5978 0.0
C2082 C 0.79897 0.12206 0.62122 0.0
C2083 C 0.78111 0.12101 0.58228 0.0
C2084 C 0.76308 0.10416 0.58999 0.0
C2085 C 0.7633 0.0959 0.61336 0.0
C2086 C 0.78146 0.10443 0.62875 0.0
C2087 C 0.74281 0.09794 0.57405 0.0
C2088 C 0.72143 0.10739 0.57864 0.0
C2089 C 0.74584 0.08673 0.55222 0.0
C2090 C 0.76334 0.06908 0.54925 0.0
C2091 C 0.76853 0.05465 0.56839 0.0
C2092 C 0.78341 0.03694 0.56544 0.0
C2093 C 0.79273 0.03275 0.54323 0.0
C2094 C 0.78723 0.04633 0.52395 0.0
C2095 C 0.77297 0.06458 0.52693 0.0
H2096 H 0.80403 0.01886 0.5409 0.0
H2097 H 0.61557 0.12324 0.58512 0.0
H2098 H 0.57169 0.9132 0.20296 0.0
H2099 H 0.56791 0.94967 0.22487 0.0
H2100 H 0.64384 0.95983 0.23275 0.0
H2101 H 0.64764 0.9238 0.21072 0.0
H2102 H 0.59683 0.94878 0.27446 0.0
H2103 H 0.64997 0.02744 0.21589 0.0
H2104 H 0.64547 0.05513 0.17437 0.0
H2105 H 0.55771 0.0344 0.17637 0.0
H2106 H 0.5632 0.00274 0.21544 0.0
H2107 H 0.64879 0.03193 0.35597 0.0
H2108 H 0.64376 0.006 0.32161 0.0
H2109 H 0.58657 0.04359 0.29713 0.0
H2110 H 0.59231 0.07029 0.33064 0.0
H2111 H 0.61845 0.03344 0.26072 0.0
H2112 H 0.57227 0.99538 0.3237 0.0
H2113 H 0.56548 0.97929 0.36388 0.0
H2114 H 0.61762 0.93139 0.35201 0.0
H2115 H 0.62499 0.94745 0.31185 0.0
C2116 C 0.58755 0.92373 0.20872 0.0
C2117 C 0.60999 0.91605 0.20484 0.0
C2118 C 0.5854 0.94461 0.221 0.0
C2119 C 0.60566 0.95798 0.22964 0.0
C2120 C 0.62805 0.95032 0.22545 0.0
C2121 C 0.63021 0.92966 0.21304 0.0
C2122 C 0.60369 0.97583 0.24811 0.0
C2123 C 0.60092 0.96742 0.27139 0.0
C2124 C 0.60878 0.00021 0.24415 0.0
C2125 C 0.60706 0.0116 0.22083 0.0
C2126 C 0.63272 0.02811 0.20796 0.0
C2127 C 0.62986 0.0458 0.18236 0.0
C2128 C 0.601 0.04975 0.17122 0.0
C2129 C 0.57502 0.03318 0.18398 0.0
C2130 C 0.57845 0.01328 0.2082 0.0
C2131 C 0.63555 0.03497 0.34288 0.0
C2132 C 0.62123 0.05333 0.34562 0.0
C2133 C 0.63262 0.02013 0.32338 0.0
C2134 C 0.61499 0.02314 0.30664 0.0
C2135 C 0.60074 0.04149 0.3094 0.0
C2136 C 0.60396 0.05661 0.32861 0.0
C2137 C 0.61063 0.00654 0.28682 0.0
C2138 C 0.61317 0.01502 0.2636 0.0
C2139 C 0.60373 0.98252 0.29076 0.0
C2140 C 0.59935 0.97278 0.31486 0.0
C2141 C 0.58244 0.98155 0.32973 0.0
C2142 C 0.57846 0.97242 0.35249 0.0
C2143 C 0.59116 0.95437 0.36052 0.0
C2144 C 0.60783 0.94539 0.34578 0.0
C2145 C 0.6119 0.9545 0.32301 0.0
H2146 H 0.58804 0.94731 0.37814 0.0
H2147 H 0.59916 0.06135 0.1564 0.0
H2148 H 0.82548 0.88128 0.94056 0.0
H2149 H 0.79081 0.8779 0.96635 0.0
H2150 H 0.81339 0.81525 0.99749 0.0
H2151 H 0.8481 0.81843 0.97168 0.0
H2152 H 0.76877 0.81101 0.99798 0.0
H2153 H 0.82737 0.86884 0.02172 0.0
H2154 H 0.85685 0.90339 0.01901 0.0
H2155 H 0.80116 0.94743 0.00749 0.0
H2156 H 0.77149 0.91305 0.00977 0.0
H2157 H 0.71383 0.87195 0.10857 0.0
H2158 H 0.7462 0.87019 0.08019 0.0
H2159 H 0.69886 0.82763 0.03428 0.0
H2160 H 0.66786 0.8266 0.06442 0.0
H2161 H 0.75861 0.88327 0.04271 0.0
H2162 H 0.72605 0.7941 0.99583 0.0
H2163 H 0.70465 0.75595 0.00643 0.0
H2164 H 0.72246 0.7675 0.07936 0.0
H2165 H 0.74404 0.80569 0.06918 0.0
C2166 C 0.82279 0.86641 0.95245 0.0
C2167 C 0.83986 0.8504 0.95442 0.0
C2168 C 0.80302 0.86462 0.96734 0.0
C2169 C 0.79985 0.84671 0.98434 0.0
C2170 C 0.81554 0.82934 0.98464 0.0
C2171 C 0.83538 0.83114 0.96979 0.0
C2172 C 0.7814 0.84718 0.00297 0.0
C2173 C 0.76636 0.8268 0.00773 0.0
C2174 C 0.77926 0.86743 0.01665 0.0
C2175 C 0.79713 0.88826 0.0154 0.0
C2176 C 0.82141 0.88584 0.01832 0.0
C2177 C 0.83819 0.90541 0.01692 0.0
C2178 C 0.83091 0.92759 0.01293 0.0
C2179 C 0.80682 0.93023 0.01045 0.0
C2180 C 0.79 0.91069 0.01176 0.0
C2181 C 0.71049 0.86229 0.09233 0.0
C2182 C 0.68839 0.84964 0.0884 0.0
C2183 C 0.72899 0.86121 0.07606 0.0
C2184 C 0.7254 0.84832 0.05502 0.0
C2185 C 0.70272 0.83682 0.05067 0.0
C2186 C 0.68475 0.83668 0.06764 0.0
C2187 C 0.74515 0.8471 0.0376 0.0
C2188 C 0.76062 0.86739 0.03303 0.0
C2189 C 0.74892 0.82617 0.02546 0.0
C2190 C 0.73617 0.80306 0.03177 0.0
C2191 C 0.72527 0.78858 0.01414 0.0
C2192 C 0.71316 0.76691 0.02008 0.0
C2193 C 0.71205 0.75937 0.04358 0.0
C2194 C 0.72319 0.77344 0.06118 0.0
C2195 C 0.73532 0.79513 0.05533 0.0
H2196 H 0.70266 0.74259 0.04815 0.0
H2197 H 0.84392 0.94272 0.01188 0.0
H2198 H 0.90984 0.01859 0.65353 0.0
H2199 H 0.90227 0.99152 0.68657 0.0
H2200 H 0.83226 0.01393 0.69491 0.0
H2201 H 0.83927 0.03967 0.66035 0.0
H2202 H 0.89745 0.99695 0.72788 0.0
H2203 H 0.79499 0.97416 0.72429 0.0
H2204 H 0.76376 0.96682 0.69421 0.0
H2205 H 0.81567 0.94927 0.64364 0.0
H2206 H 0.84713 0.95621 0.67349 0.0
H2207 H 0.81917 0.91828 0.81924 0.0
H2208 H 0.82524 0.95132 0.79238 0.0
H2209 H 0.88036 0.92008 0.75662 0.0
H2210 H 0.87377 0.8857 0.78227 0.0
H2211 H 0.8251 0.94423 0.74229 0.0
H2212 H 0.91073 0.94563 0.76531 0.0
H2213 H 0.94574 0.94576 0.79673 0.0
H2214 H 0.94205 0.02107 0.83135 0.0
H2215 H 0.9046 0.00945 0.79387 0.0
C2216 C 0.89275 0.01755 0.66233 0.0
C2217 C 0.87513 0.03122 0.65455 0.0
C2218 C 0.88841 0.00204 0.68122 0.0
C2219 C 0.86662 0.0004 0.69331 0.0
C2220 C 0.849 0.01428 0.68559 0.0
C2221 C 0.85307 0.02923 0.66605 0.0
C2222 C 0.86307 0.98546 0.71492 0.0
C2223 C 0.88084 0.98726 0.73222 0.0
C2224 C 0.8422 0.97042 0.71913 0.0
C2225 C 0.82343 0.96601 0.70105 0.0
C2226 C 0.79971 0.96869 0.70677 0.0
C2227 C 0.78198 0.9646 0.68976 0.0
C2228 C 0.78774 0.95768 0.667 0.0
C2229 C 0.81124 0.95474 0.66124 0.0
C2230 C 0.82903 0.95878 0.67819 0.0
C2231 C 0.83355 0.91882 0.80652 0.0
C2232 C 0.84677 0.89962 0.80374 0.0
C2233 C 0.83774 0.9385 0.79196 0.0
C2234 C 0.85627 0.94046 0.77539 0.0
C2235 C 0.86838 0.92061 0.77148 0.0
C2236 C 0.86406 0.90059 0.78576 0.0
C2237 C 0.85783 0.95966 0.75755 0.0
C2238 C 0.84014 0.95738 0.74011 0.0
C2239 C 0.8774 0.97741 0.75497 0.0
C2240 C 0.89649 0.98346 0.77416 0.0
C2241 C 0.91336 0.96033 0.77703 0.0
C2242 C 0.93594 0.96094 0.79642 0.0
C2243 C 0.94533 0.98296 0.8151 0.0
C2244 C 0.93406 0.0088 0.81856 0.0
C2245 C 0.91085 0.0163 0.80262 0.0
H2246 H 0.96029 0.98007 0.82613 0.0
H2247 H 0.77399 0.95453 0.65386 0.0
H2248 H 0.84036 0.0651 0.51683 0.0
H2249 H 0.8164 0.08272 0.48734 0.0
H2250 H 0.81072 0.14173 0.53307 0.0
H2251 H 0.83555 0.12417 0.5626 0.0
H2252 H 0.767 0.12215 0.517 0.0
H2253 H 0.84194 0.14921 0.48304 0.0
H2254 H 0.88257 0.14602 0.46859 0.0
H2255 H 0.85561 0.09624 0.41649 0.0
H2256 H 0.81483 0.09888 0.43084 0.0
H2257 H 0.71011 0.18314 0.42545 0.0
H2258 H 0.73781 0.17239 0.45593 0.0
H2259 H 0.74459 0.10733 0.42009 0.0
H2260 H 0.7168 0.11779 0.38987 0.0
H2261 H 0.78802 0.1336 0.43242 0.0
H2262 H 0.70863 0.10735 0.45998 0.0
H2263 H 0.6472 0.11837 0.49316 0.0
H2264 H 0.70095 0.16036 0.54585 0.0
H2265 H 0.74109 0.15349 0.52456 0.0
C2266 C 0.83414 0.08193 0.52053 0.0
C2267 C 0.83907 0.09301 0.54221 0.0
C2268 C 0.82065 0.0921 0.50358 0.0
C2269 C 0.81149 0.1134 0.50812 0.0
C2270 C 0.81728 0.12507 0.5294 0.0
C2271 C 0.83136 0.11508 0.54622 0.0
C2272 C 0.79477 0.1224 0.49106 0.0
C2273 C 0.77147 0.12485 0.49852 0.0
C2274 C 0.80082 0.12563 0.46694 0.0
C2275 C 0.82532 0.12415 0.45813 0.0
C2276 C 0.84468 0.13747 0.4686 0.0
C2277 C 0.86774 0.13577 0.46041 0.0
C2278 C 0.87167 0.12091 0.44166 0.0
C2279 C 0.85254 0.10775 0.43102 0.0
C2280 C 0.82944 0.10936 0.43915 0.0
C2281 C 0.71729 0.16642 0.42432 0.0
C2282 C 0.71105 0.15109 0.40563 0.0
C2283 C 0.73311 0.16036 0.44162 0.0
C2284 C 0.74288 0.13894 0.44035 0.0
C2285 C 0.73702 0.12384 0.42143 0.0
C2286 C 0.72115 0.12981 0.40426 0.0
C2287 C 0.75992 0.13253 0.45824 0.0
C2288 C 0.78331 0.13068 0.45087 0.0
C2289 C 0.75368 0.12921 0.48231 0.0
C2290 C 0.72901 0.13021 0.49109 0.0
C2291 C 0.70508 0.11708 0.47591 0.0
C2292 C 0.66579 0.1239 0.49719 0.0
C2293 C 0.67128 0.14006 0.52199 0.0
C2294 C 0.69928 0.14976 0.5301 0.0
C2295 C 0.72519 0.14537 0.51626 0.0
H2296 H 0.65653 0.1446 0.53258 0.0
H2297 H 0.88953 0.11962 0.43535 0.0
H2298 H 0.62967 0.95593 0.17409 0.0
H2299 H 0.63353 0.98898 0.19682 0.0
H2300 H 0.58616 0.01927 0.14588 0.0
H2301 H 0.58283 0.98503 0.12705 0.0
H2302 H 0.62611 0.08109 0.19978 0.0
H2303 H 0.5584 0.07964 0.19986 0.0
H2304 H 0.51523 0.07811 0.19327 0.0
H2305 H 0.50316 0.02221 0.24385 0.0
H2306 H 0.54626 0.02346 0.2507 0.0
H2307 H 0.58799 0.13754 0.30638 0.0
H2308 H 0.57751 0.1094 0.27474 0.0
H2309 H 0.6435 0.0796 0.28477 0.0
H2310 H 0.65376 0.10689 0.31675 0.0
H2311 H 0.57228 0.06364 0.26497 0.0
H2312 H 0.66803 0.08269 0.22913 0.0
H2313 H 0.69996 0.1153 0.23091 0.0
H2314 H 0.64848 0.16356 0.2442 0.0
H2315 H 0.61628 0.13131 0.24211 0.0
C2316 C 0.6192 0.96994 0.16945 0.0
C2317 C 0.60404 0.96717 0.15061 0.0
C2318 C 0.62093 0.99061 0.18282 0.0
C2319 C 0.60663 0.01105 0.17961 0.0
C2320 C 0.59562 0.00691 0.15563 0.0
C2321 C 0.59346 0.9862 0.14301 0.0
C2322 C 0.60092 0.04963 0.21172 0.0
C2323 C 0.61641 0.07222 0.21432 0.0
C2324 C 0.58163 0.05276 0.22979 0.0
C2325 C 0.5556 0.05081 0.22484 0.0
C2326 C 0.54652 0.06677 0.20925 0.0
C2327 C 0.52209 0.06603 0.20557 0.0
C2328 C 0.50649 0.04983 0.21786 0.0
C2329 C 0.51528 0.03451 0.23407 0.0
C2330 C 0.53969 0.03519 0.23782 0.0
C2331 C 0.59988 0.12447 0.3024 0.0
C2332 C 0.62181 0.12467 0.31396 0.0
C2333 C 0.59386 0.10838 0.28434 0.0
C2334 C 0.60988 0.0926 0.27728 0.0
C2335 C 0.631 0.09174 0.28985 0.0
C2336 C 0.63676 0.10737 0.30822 0.0
C2337 C 0.60626 0.07938 0.25493 0.0
C2338 C 0.58608 0.06422 0.25156 0.0
C2339 C 0.62072 0.0848 0.23534 0.0
C2340 C 0.63983 0.10455 0.23578 0.0
C2341 C 0.66356 0.10029 0.23233 0.0
C2342 C 0.68169 0.1187 0.23339 0.0
C2343 C 0.67626 0.14147 0.23777 0.0
C2344 C 0.65268 0.14591 0.24091 0.0
C2345 C 0.63449 0.12757 0.2398 0.0
H2346 H 0.69033 0.15569 0.23868 0.0
H2347 H 0.48758 0.04931 0.21501 0.0
H2348 H 0.63456 0.86263 0.05712 0.0
H2349 H 0.66212 0.85012 0.02742 0.0
H2350 H 0.67574 0.92116 0.00233 0.0
H2351 H 0.64852 0.93375 0.03166 0.0
H2352 H 0.67016 0.84766 0.98505 0.0
H2353 H 0.73161 0.93596 0.98347 0.0
H2354 H 0.74388 0.96908 0.00969 0.0
H2355 H 0.72385 0.92638 0.07037 0.0
H2356 H 0.7115 0.89309 0.04452 0.0
H2357 H 0.76424 0.89282 0.89564 0.0
H2358 H 0.73814 0.89762 0.92931 0.0
H2359 H 0.75048 0.82925 0.95531 0.0
H2360 H 0.77746 0.82472 0.92176 0.0
H2361 H 0.74718 0.89651 0.97741 0.0
H2362 H 0.6901 0.80771 0.98074 0.0
H2363 H 0.68008 0.77325 0.95555 0.0
H2364 H 0.69152 0.81624 0.89351 0.0
H2365 H 0.70143 0.85094 0.91833 0.0
C2366 C 0.64369 0.87559 0.04544 0.0
C2367 C 0.64002 0.8993 0.04731 0.0
C2368 C 0.65955 0.86845 0.02858 0.0
C2369 C 0.67242 0.88492 0.01379 0.0
C2370 C 0.66723 0.90827 0.01447 0.0
C2371 C 0.65153 0.91545 0.03126 0.0
C2372 C 0.69162 0.87802 0.99806 0.0
C2373 C 0.68716 0.85813 0.98378 0.0
C2374 C 0.71393 0.89164 0.99628 0.0
C2375 C 0.72082 0.91185 0.01202 0.0
C2376 C 0.7299 0.93359 0.0024 0.0
C2377 C 0.73684 0.95244 0.01721 0.0
C2378 C 0.73472 0.94983 0.04169 0.0
C2379 C 0.72556 0.92839 0.05141 0.0
C2380 C 0.71862 0.9095 0.03669 0.0
C2381 C 0.76167 0.87898 0.90873 0.0
C2382 C 0.77288 0.85849 0.90628 0.0
C2383 C 0.74677 0.88171 0.92793 0.0
C2384 C 0.74229 0.86374 0.9447 0.0
C2385 C 0.75364 0.84325 0.94246 0.0
C2386 C 0.76912 0.84076 0.92346 0.0
C2387 C 0.72531 0.8668 0.96411 0.0
C2388 C 0.7303 0.8859 0.97919 0.0
C2389 C 0.70367 0.85237 0.96674 0.0
C2390 C 0.6973 0.83179 0.95145 0.0
C2391 C 0.6907 0.80976 0.96173 0.0
C2392 C 0.68493 0.7902 0.94751 0.0
C2393 C 0.68539 0.79251 0.92294 0.0
C2394 C 0.69141 0.81443 0.91255 0.0
C2395 C 0.69719 0.83404 0.9267 0.0
H2396 H 0.68091 0.77735 0.91195 0.0
H2397 H 0.74011 0.96445 0.05312 0.0
H2398 H 0.97925 0.85011 0.90021 0.0
H2399 H 0.01355 0.83029 0.8879 0.0
H2400 H 0.98986 0.77169 0.93302 0.0
H2401 H 0.95678 0.79217 0.94662 0.0
H2402 H 0.03509 0.78078 0.9371 0.0
H2403 H 0.98093 0.78026 0.87084 0.0
H2404 H 0.95972 0.79669 0.83778 0.0
H2405 H 0.0261 0.82253 0.80585 0.0
H2406 H 0.04766 0.80649 0.83885 0.0
H2407 H 0.08556 0.68257 0.89507 0.0
H2408 H 0.06261 0.71368 0.90885 0.0
H2409 H 0.09074 0.75825 0.85165 0.0
H2410 H 0.11244 0.72656 0.83709 0.0
H2411 H 0.04922 0.76342 0.85295 0.0
H2412 H 0.10426 0.76708 0.91532 0.0
H2413 H 0.12888 0.7528 0.94697 0.0
H2414 H 0.06619 0.72602 0.98509 0.0
H2415 H 0.04117 0.73995 0.95358 0.0
C2416 C 0.9814 0.83298 0.90745 0.0
C2417 C 0.96517 0.82252 0.92416 0.0
C2418 C 0.001 0.82166 0.90039 0.0
C2419 C 0.00417 0.79929 0.90926 0.0
C2420 C 0.98789 0.78893 0.92593 0.0
C2421 C 0.96884 0.80054 0.93354 0.0
C2422 C 0.02412 0.78624 0.90131 0.0
C2423 C 0.03805 0.7768 0.91868 0.0
C2424 C 0.02904 0.78222 0.87717 0.0
C2425 C 0.01589 0.79215 0.85746 0.0
C2426 C 0.99098 0.7894 0.85679 0.0
C2427 C 0.97889 0.79869 0.83807 0.0
C2428 C 0.99154 0.8106 0.81972 0.0
C2429 C 0.0163 0.81329 0.82008 0.0
C2430 C 0.02845 0.80411 0.83882 0.0
C2431 C 0.0868 0.69907 0.88559 0.0
C2432 C 0.10045 0.70223 0.86496 0.0
C2433 C 0.07384 0.71697 0.89355 0.0
C2434 C 0.07491 0.73859 0.88152 0.0
C2435 C 0.08934 0.74184 0.86129 0.0
C2436 C 0.10175 0.72374 0.85296 0.0
C2437 C 0.05949 0.75694 0.88882 0.0
C2438 C 0.0466 0.76761 0.87136 0.0
C2439 C 0.05589 0.76259 0.91279 0.0
C2440 C 0.07084 0.75445 0.93199 0.0
C2441 C 0.09572 0.75806 0.9304 0.0
C2442 C 0.10975 0.75004 0.94834 0.0
C2443 C 0.09911 0.73848 0.96802 0.0
C2444 C 0.07441 0.73499 0.96984 0.0
C2445 C 0.06029 0.74299 0.95198 0.0
H2446 H 0.11 0.73226 0.98186 0.0
H2447 H 0.98216 0.81776 0.80523 0.0
H2448 H 0.43324 0.64911 0.10081 0.0
H2449 H 0.45832 0.68639 0.10388 0.0
H2450 H 0.49638 0.65838 0.16149 0.0
H2451 H 0.47156 0.62123 0.15843 0.0
H2452 H 0.48709 0.70198 0.17064 0.0
H2453 H 0.51841 0.66145 0.10439 0.0
H2454 H 0.51567 0.64228 0.06547 0.0
H2455 H 0.4958 0.70538 0.03376 0.0
H2456 H 0.49816 0.72482 0.07256 0.0
H2457 H 0.58756 0.78296 0.18079 0.0
H2458 H 0.56161 0.747 0.17492 0.0
H2459 H 0.53989 0.7733 0.10766 0.0
H2460 H 0.56883 0.80769 0.11216 0.0
H2461 H 0.53662 0.73233 0.10273 0.0
H2462 H 0.51319 0.77505 0.17004 0.0
H2463 H 0.51535 0.79291 0.20951 0.0
H2464 H 0.52 0.72553 0.24109 0.0
H2465 H 0.51825 0.70732 0.20178 0.0
C2466 C 0.44681 0.65101 0.11426 0.0
C2467 C 0.45048 0.63222 0.12934 0.0
C2468 C 0.46124 0.67226 0.11589 0.0
C2469 C 0.4794 0.67514 0.13279 0.0
C2470 C 0.4825 0.65662 0.14833 0.0
C2471 C 0.46832 0.63535 0.14652 0.0
C2472 C 0.49566 0.69714 0.1342 0.0
C2473 C 0.49808 0.70871 0.15591 0.0
C2474 C 0.50944 0.70614 0.11473 0.0
C2475 C 0.50819 0.69449 0.0914 0.0
C2476 C 0.51329 0.67117 0.08914 0.0
C2477 C 0.51184 0.66027 0.0671 0.0
C2478 C 0.50549 0.67258 0.04716 0.0
C2479 C 0.50066 0.69585 0.04922 0.0
C2480 C 0.50207 0.70682 0.07123 0.0
C2481 C 0.57702 0.78108 0.16486 0.0
C2482 C 0.57911 0.79862 0.14746 0.0
C2483 C 0.56201 0.76054 0.16154 0.0
C2484 C 0.54725 0.75788 0.14161 0.0
C2485 C 0.55039 0.77498 0.12362 0.0
C2486 C 0.56657 0.79491 0.12631 0.0
C2487 C 0.52861 0.7375 0.13956 0.0
C2488 C 0.52557 0.72616 0.11762 0.0
C2489 C 0.51423 0.72873 0.159 0.0
C2490 C 0.51536 0.73979 0.18279 0.0
C2491 C 0.51455 0.76401 0.18537 0.0
C2492 C 0.51585 0.77423 0.20774 0.0
C2493 C 0.51771 0.76036 0.22781 0.0
C2494 C 0.51851 0.73627 0.22552 0.0
C2495 C 0.51737 0.726 0.20317 0.0
H2496 H 0.51856 0.76827 0.24513 0.0
H2497 H 0.50437 0.66411 0.03012 0.0
H2498 H 0.00261 0.38463 0.65247 0.0
H2499 H 0.9739 0.35149 0.66228 0.0
H2500 H 0.00857 0.30835 0.6137 0.0
H2501 H 0.03732 0.3415 0.60375 0.0
H2502 H 0.96412 0.29821 0.6107 0.0
H2503 H 0.01191 0.29407 0.69295 0.0
H2504 H 0.02828 0.31637 0.72712 0.0
H2505 H 0.96591 0.35282 0.73049 0.0
H2506 H 0.94943 0.33086 0.69588 0.0
H2507 H 0.92054 0.18399 0.6433 0.0
H2508 H 0.94675 0.21998 0.63565 0.0
H2509 H 0.9143 0.25353 0.69373 0.0
H2510 H 0.89 0.21708 0.70261 0.0
H2511 H 0.95472 0.27081 0.69365 0.0
H2512 H 0.9002 0.25988 0.62978 0.0
H2513 H 0.87894 0.23868 0.59715 0.0
H2514 H 0.94481 0.23446 0.56056 0.0
H2515 H 0.96653 0.25536 0.59325 0.0
C2516 C 0.00436 0.36795 0.64418 0.0
C2517 C 0.02263 0.36555 0.62774 0.0
C2518 C 0.9881 0.34882 0.65015 0.0
C2519 C 0.98984 0.3268 0.64003 0.0
C2520 C 0.00729 0.32483 0.62258 0.0
C2521 C 0.02379 0.34382 0.61686 0.0
C2522 C 0.97342 0.30581 0.64689 0.0
C2523 C 0.96219 0.29217 0.62885 0.0
C2524 C 0.96986 0.29823 0.67065 0.0
C2525 C 0.98006 0.31176 0.69101 0.0
C2526 C 0.00203 0.30733 0.70043 0.0
C2527 C 0.01123 0.31975 0.72007 0.0
C2528 C 0.99832 0.33631 0.73076 0.0
C2529 C 0.97605 0.34023 0.722 0.0
C2530 C 0.96681 0.32781 0.70237 0.0
C2531 C 0.91952 0.19898 0.65463 0.0
C2532 C 0.90344 0.19782 0.67355 0.0
C2533 C 0.93423 0.21965 0.65011 0.0
C2534 C 0.93215 0.23992 0.6636 0.0
C2535 C 0.91645 0.23836 0.68296 0.0
C2536 C 0.9025 0.21747 0.68805 0.0
C2537 C 0.94576 0.26284 0.65735 0.0
C2538 C 0.95646 0.27681 0.67548 0.0
C2539 C 0.948 0.2712 0.63376 0.0
C2540 C 0.93499 0.25902 0.61396 0.0
C2541 C 0.91015 0.25436 0.61481 0.0
C2542 C 0.89804 0.24238 0.59634 0.0
C2543 C 0.91055 0.23517 0.57684 0.0
C2544 C 0.9352 0.24002 0.57571 0.0
C2545 C 0.94741 0.25193 0.59418 0.0
H2546 H 0.90115 0.22589 0.56256 0.0
H2547 H 0.00545 0.3459 0.74598 0.0
H2548 H 0.01863 0.64482 0.88539 0.0
H2549 H 0.99011 0.67017 0.86988 0.0
H2550 H 0.00672 0.71856 0.92698 0.0
H2551 H 0.03383 0.69251 0.94341 0.0
H2552 H 0.96134 0.71139 0.92215 0.0
H2553 H 0.02704 0.72157 0.86688 0.0
H2554 H 0.05425 0.71018 0.83595 0.0
H2555 H 0.99538 0.69246 0.78984 0.0
H2556 H 0.96778 0.70337 0.82063 0.0
H2557 H 0.9102 0.81191 0.88618 0.0
H2558 H 0.93689 0.78305 0.89794 0.0
H2559 H 0.92021 0.74442 0.83393 0.0
H2560 H 0.89492 0.77389 0.82148 0.0
H2561 H 0.96257 0.74268 0.84048 0.0
H2562 H 0.89679 0.72916 0.89157 0.0
H2563 H 0.86627 0.73798 0.92036 0.0
H2564 H 0.92014 0.75611 0.97206 0.0
H2565 H 0.951 0.74757 0.94355 0.0
C2566 C 0.0163 0.66096 0.89451 0.0
C2567 C 0.02856 0.66675 0.91554 0.0
C2568 C 3e-05 0.67547 0.8856 0.0
C2569 C 0.99639 0.69644 0.89711 0.0
C2570 C 0.00907 0.70243 0.91783 0.0
C2571 C 0.02468 0.68758 0.92715 0.0
C2572 C 0.97887 0.71193 0.88832 0.0
C2573 C 0.96183 0.71854 0.90437 0.0
C2574 C 0.97855 0.72008 0.86466 0.0
C2575 C 0.99532 0.71333 0.84621 0.0
C2576 C 0.0199 0.71528 0.85019 0.0
C2577 C 0.0354 0.70887 0.83268 0.0
C2578 C 0.02658 0.70068 0.81094 0.0
C2579 C 0.00222 0.69883 0.80669 0.0
C2580 C 0.98664 0.70512 0.8242 0.0
C2581 C 0.9125 0.79738 0.87456 0.0
C2582 C 0.90058 0.79518 0.8529 0.0
C2583 C 0.92753 0.78073 0.8814 0.0
C2584 C 0.93021 0.76114 0.86714 0.0
C2585 C 0.91852 0.75924 0.84533 0.0
C2586 C 0.90408 0.77619 0.83819 0.0
C2587 C 0.9456 0.74291 0.87459 0.0
C2588 C 0.96198 0.73551 0.85824 0.0
C2589 C 0.94493 0.73351 0.89777 0.0
C2590 C 0.92631 0.7382 0.91519 0.0
C2591 C 0.90218 0.73524 0.909 0.0
C2592 C 0.88479 0.74013 0.9253 0.0
C2593 C 0.89127 0.74774 0.94798 0.0
C2594 C 0.91514 0.75031 0.95446 0.0
C2595 C 0.93259 0.74543 0.93822 0.0
H2596 H 0.87778 0.75155 0.96057 0.0
H2597 H 0.03862 0.69574 0.79741 0.0
H2598 H 0.44191 0.28929 0.30265 0.0
H2599 H 0.4709 0.26075 0.30162 0.0
H2600 H 0.47256 0.25986 0.3778 0.0
H2601 H 0.4426 0.28763 0.37892 0.0
H2602 H 0.51366 0.25775 0.31441 0.0
H2603 H 0.47663 0.20505 0.398 0.0
H2604 H 0.43807 0.19566 0.41782 0.0
H2605 H 0.40203 0.20731 0.35297 0.0
H2606 H 0.44042 0.21647 0.33265 0.0
H2607 H 0.58331 0.19795 0.39415 0.0
H2608 H 0.55607 0.22094 0.37336 0.0
H2609 H 0.53447 0.16212 0.32899 0.0
H2610 H 0.56402 0.13969 0.34805 0.0
H2611 H 0.49881 0.18647 0.36414 0.0
H2612 H 0.54885 0.19421 0.29954 0.0
H2613 H 0.58458 0.20112 0.27481 0.0
H2614 H 0.5898 0.27429 0.29118 0.0
H2615 H 0.55487 0.26772 0.31711 0.0
C2616 C 0.44863 0.28325 0.31922 0.0
C2617 C 0.43993 0.29077 0.34091 0.0
C2618 C 0.46525 0.2669 0.31858 0.0
C2619 C 0.47357 0.25773 0.33959 0.0
C2620 C 0.46597 0.26624 0.36131 0.0
C2621 C 0.44912 0.28243 0.36196 0.0
C2622 C 0.48966 0.23882 0.33884 0.0
C2623 C 0.51058 0.2422 0.32534 0.0
C2624 C 0.48467 0.21772 0.35178 0.0
C2625 C 0.4615 0.21171 0.36385 0.0
C2626 C 0.46054 0.20553 0.38791 0.0
C2627 C 0.43868 0.20025 0.39926 0.0
C2628 C 0.41761 0.20096 0.38669 0.0
C2629 C 0.41836 0.20685 0.36272 0.0
C2630 C 0.44018 0.21211 0.35129 0.0
C2631 C 0.57379 0.19035 0.3791 0.0
C2632 C 0.57645 0.16737 0.37226 0.0
C2633 C 0.55806 0.20342 0.36739 0.0
C2634 C 0.54353 0.19343 0.34949 0.0
C2635 C 0.54594 0.17037 0.34246 0.0
C2636 C 0.56277 0.1576 0.35338 0.0
C2637 C 0.5238 0.2064 0.34129 0.0
C2638 C 0.50197 0.20195 0.35307 0.0
C2639 C 0.52774 0.22613 0.32617 0.0
C2640 C 0.5494 0.23025 0.31104 0.0
C2641 C 0.55796 0.21167 0.29858 0.0
C2642 C 0.57807 0.21556 0.28416 0.0
C2643 C 0.58958 0.2381 0.28156 0.0
C2644 C 0.58091 0.2568 0.29326 0.0
C2645 C 0.56094 0.25296 0.3079 0.0
H2646 H 0.60511 0.24109 0.27035 0.0
H2647 H 0.4007 0.1969 0.39551 0.0
H2648 H 0.92658 0.1581 0.59215 0.0
H2649 H 0.952 0.19521 0.5957 0.0
H2650 H 0.99805 0.16203 0.64286 0.0
H2651 H 0.97285 0.12538 0.63969 0.0
H2652 H 0.98933 0.20175 0.65983 0.0
H2653 H 0.01088 0.17258 0.58544 0.0
H2654 H 0.00539 0.1585 0.54464 0.0
H2655 H 0.98622 0.22569 0.52296 0.0
H2656 H 0.99136 0.24013 0.56365 0.0
H2657 H 0.0955 0.29056 0.62364 0.0
H2658 H 0.06821 0.25665 0.6124 0.0
H2659 H 0.0133 0.28213 0.65465 0.0
H2660 H 0.0404 0.31596 0.6664 0.0
H2661 H 0.02684 0.24631 0.59188 0.0
H2662 H 0.98185 0.23695 0.6851 0.0
H2663 H 0.99112 0.24832 0.72618 0.0
H2664 H 0.06561 0.251 0.71088 0.0
H2665 H 0.05677 0.23941 0.66976 0.0
C2666 C 0.94203 0.15885 0.6034 0.0
C2667 C 0.94771 0.13885 0.61568 0.0
C2668 C 0.95664 0.17997 0.60523 0.0
C2669 C 0.97703 0.18131 0.61939 0.0
C2670 C 0.9824 0.16142 0.63186 0.0
C2671 C 0.96795 0.14045 0.63002 0.0
C2672 C 0.99271 0.20342 0.62199 0.0
C2673 C 0.99746 0.21154 0.64495 0.0
C2674 C 0.00367 0.21587 0.60252 0.0
C2675 C 0.00079 0.20726 0.57788 0.0
C2676 C 0.00511 0.18428 0.57209 0.0
C2677 C 0.00219 0.17625 0.54892 0.0
C2678 C 0.99526 0.19112 0.53125 0.0
C2679 C 0.99143 0.21412 0.53669 0.0
C2680 C 0.99432 0.22223 0.55984 0.0
C2681 C 0.07745 0.28921 0.63025 0.0
C2682 C 0.0702 0.30572 0.64635 0.0
C2683 C 0.06188 0.2698 0.62378 0.0
C2684 C 0.03886 0.26667 0.63329 0.0
C2685 C 0.0312 0.28401 0.64786 0.0
C2686 C 0.04668 0.30328 0.65445 0.0
C2687 C 0.02335 0.24457 0.62974 0.0
C2688 C 0.01858 0.23654 0.60669 0.0
C2689 C 0.01298 0.23158 0.64917 0.0
C2690 C 0.01859 0.23791 0.67412 0.0
C2691 C 0.00019 0.24005 0.69046 0.0
C2692 C 0.00538 0.24644 0.7138 0.0
C2693 C 0.02894 0.25055 0.7211 0.0
C2694 C 0.04736 0.24801 0.70515 0.0
C2695 C 0.04226 0.24154 0.68181 0.0
H2696 H 0.03293 0.25561 0.73915 0.0
H2697 H 0.99301 0.18487 0.51331 0.0
H2698 H 0.41134 0.6766 0.14065 0.0
H2699 H 0.44202 0.70998 0.13802 0.0
H2700 H 0.40653 0.74486 0.19312 0.0
H2701 H 0.3775 0.71101 0.19717 0.0
H2702 H 0.44061 0.74938 0.12404 0.0
H2703 H 0.44115 0.78874 0.22024 0.0
H2704 H 0.43993 0.77487 0.26151 0.0
H2705 H 0.46147 0.70887 0.23938 0.0
H2706 H 0.46314 0.72242 0.19808 0.0
H2707 H 0.49877 0.87237 0.16619 0.0
H2708 H 0.47103 0.83744 0.17291 0.0
H2709 H 0.51169 0.79862 0.12551 0.0
H2710 H 0.5389 0.83361 0.118 0.0
H2711 H 0.47438 0.79701 0.19084 0.0
H2712 H 0.48166 0.75538 0.09937 0.0
H2713 H 0.48946 0.76737 0.05793 0.0
H2714 H 0.4615 0.83277 0.07116 0.0
H2715 H 0.4533 0.82106 0.11261 0.0
C2716 C 0.4107 0.69113 0.15267 0.0
C2717 C 0.39235 0.6911 0.16936 0.0
C2718 C 0.42807 0.71025 0.15107 0.0
C2719 C 0.42695 0.72995 0.16557 0.0
C2720 C 0.40855 0.72972 0.18229 0.0
C2721 C 0.39179 0.71032 0.18451 0.0
C2722 C 0.44371 0.75144 0.16197 0.0
C2723 C 0.4485 0.75934 0.13876 0.0
C2724 C 0.45355 0.76507 0.18104 0.0
C2725 C 0.45207 0.75657 0.20592 0.0
C2726 C 0.44568 0.77128 0.22415 0.0
C2727 C 0.4449 0.76347 0.24759 0.0
C2728 C 0.45054 0.74098 0.25306 0.0
C2729 C 0.45696 0.72625 0.23512 0.0
C2730 C 0.45779 0.73399 0.21167 0.0
C2731 C 0.50188 0.85632 0.15729 0.0
C2732 C 0.52117 0.85565 0.14167 0.0
C2733 C 0.48598 0.83636 0.16114 0.0
C2734 C 0.48903 0.81541 0.14939 0.0
C2735 C 0.50874 0.81462 0.13444 0.0
C2736 C 0.5245 0.83454 0.13044 0.0
C2737 C 0.472 0.79419 0.15309 0.0
C2738 C 0.46667 0.7867 0.17629 0.0
C2739 C 0.46267 0.7803 0.13406 0.0
C2740 C 0.46694 0.78736 0.10906 0.0
C2741 C 0.47701 0.77224 0.09336 0.0
C2742 C 0.48156 0.77901 0.0699 0.0
C2743 C 0.476 0.80083 0.06193 0.0
C2744 C 0.46582 0.8159 0.07738 0.0
C2745 C 0.46124 0.80921 0.10085 0.0
H2746 H 0.47956 0.80605 0.04377 0.0
H2747 H 0.44998 0.73498 0.27122 0.0
H2748 H 0.61585 0.43171 0.76314 0.0
H2749 H 0.61434 0.46341 0.73424 0.0
H2750 H 0.67741 0.44344 0.70036 0.0
H2751 H 0.677 0.40974 0.72714 0.0
H2752 H 0.63531 0.46123 0.67211 0.0
H2753 H 0.62012 0.5006 0.74286 0.0
H2754 H 0.61545 0.52214 0.78413 0.0
H2755 H 0.71473 0.54053 0.77618 0.0
H2756 H 0.70483 0.51555 0.73617 0.0
H2757 H 0.61361 0.58626 0.67146 0.0
H2758 H 0.62766 0.55347 0.69273 0.0
H2759 H 0.66765 0.53624 0.63139 0.0
H2760 H 0.65397 0.56951 0.6101 0.0
H2761 H 0.66941 0.53711 0.7045 0.0
H2762 H 0.65758 0.47523 0.62715 0.0
H2763 H 0.63886 0.47231 0.58782 0.0
H2764 H 0.58455 0.51359 0.6118 0.0
H2765 H 0.60279 0.51647 0.6513 0.0
C2766 C 0.62898 0.43384 0.74912 0.0
C2767 C 0.64704 0.41899 0.74769 0.0
C2768 C 0.62853 0.45232 0.73309 0.0
C2769 C 0.64711 0.457 0.71672 0.0
C2770 C 0.66355 0.44063 0.71361 0.0
C2771 C 0.66322 0.42138 0.72878 0.0
C2772 C 0.64984 0.47895 0.70306 0.0
C2773 C 0.6427 0.47784 0.67937 0.0
C2774 C 0.65994 0.50056 0.71265 0.0
C2775 C 0.66274 0.50524 0.73851 0.0
C2776 C 0.63624 0.50667 0.75196 0.0
C2777 C 0.63348 0.52154 0.77731 0.0
C2778 C 0.67456 0.54009 0.79207 0.0
C2779 C 0.69656 0.53375 0.77278 0.0
C2780 C 0.69007 0.51735 0.74797 0.0
C2781 C 0.62617 0.57613 0.66282 0.0
C2782 C 0.63271 0.58057 0.63917 0.0
C2783 C 0.63411 0.55728 0.67494 0.0
C2784 C 0.64851 0.54227 0.66354 0.0
C2785 C 0.65642 0.54752 0.64044 0.0
C2786 C 0.64857 0.56653 0.62833 0.0
C2787 C 0.65238 0.51978 0.6751 0.0
C2788 C 0.66208 0.52037 0.69782 0.0
C2789 C 0.64298 0.49813 0.66556 0.0
C2790 C 0.63174 0.49633 0.642 0.0
C2791 C 0.64164 0.48365 0.62399 0.0
C2792 C 0.63111 0.48199 0.60169 0.0
C2793 C 0.61059 0.49284 0.59728 0.0
C2794 C 0.60049 0.50527 0.6152 0.0
C2795 C 0.61092 0.50693 0.63753 0.0
H2796 H 0.60248 0.49156 0.58 0.0
H2797 H 0.67985 0.55085 0.80742 0.0
H2798 H 0.85368 0.42012 0.99157 0.0
H2799 H 0.82265 0.4216 0.96192 0.0
H2800 H 0.76912 0.41046 0.01633 0.0
H2801 H 0.80023 0.41019 0.04623 0.0
H2802 H 0.78967 0.38986 0.94783 0.0
H2803 H 0.71943 0.44087 0.99803 0.0
H2804 H 0.71949 0.47089 0.02881 0.0
H2805 H 0.7922 0.49426 0.01288 0.0
H2806 H 0.79258 0.46445 0.98185 0.0
H2807 H 0.68405 0.37344 0.88474 0.0
H2808 H 0.70994 0.37657 0.91919 0.0
H2809 H 0.72666 0.45029 0.90568 0.0
H2810 H 0.70152 0.44709 0.87046 0.0
H2811 H 0.72467 0.44125 0.95315 0.0
H2812 H 0.76077 0.41457 0.88488 0.0
H2813 H 0.76457 0.39017 0.8497 0.0
H2814 H 0.76865 0.32983 0.89389 0.0
H2815 H 0.76437 0.35377 0.92922 0.0
C2816 C 0.83532 0.41834 0.99729 0.0
C2817 C 0.8294 0.41467 0.02126 0.0
C2818 C 0.81756 0.41897 0.98027 0.0
C2819 C 0.79349 0.41607 0.98681 0.0
C2820 C 0.78753 0.41286 0.01081 0.0
C2821 C 0.80532 0.41242 0.02787 0.0
C2822 C 0.77473 0.41622 0.96843 0.0
C2823 C 0.7754 0.401 0.94913 0.0
C2824 C 0.75649 0.43137 0.96963 0.0
C2825 C 0.75625 0.44973 0.98805 0.0
C2826 C 0.73553 0.45216 0.00119 0.0
C2827 C 0.73545 0.46927 0.01865 0.0
C2828 C 0.75591 0.48432 0.02298 0.0
C2829 C 0.77643 0.48243 0.00969 0.0
C2830 C 0.7766 0.46536 0.9922 0.0
C2831 C 0.69261 0.39049 0.8895 0.0
C2832 C 0.6909 0.41 0.8748 0.0
C2833 C 0.70745 0.39223 0.90921 0.0
C2834 C 0.72033 0.41361 0.91498 0.0
C2835 C 0.71689 0.43361 0.90159 0.0
C2836 C 0.70252 0.43176 0.88148 0.0
C2837 C 0.73935 0.41446 0.93309 0.0
C2838 C 0.73879 0.42991 0.95217 0.0
C2839 C 0.75838 0.40038 0.93113 0.0
C2840 C 0.76162 0.38591 0.90984 0.0
C2841 C 0.76215 0.39604 0.88713 0.0
C2842 C 0.76445 0.38229 0.86711 0.0
C2843 C 0.76665 0.35842 0.86953 0.0
C2844 C 0.76676 0.3483 0.892 0.0
C2845 C 0.76434 0.36196 0.91206 0.0
H2846 H 0.7684 0.34779 0.854 0.0
H2847 H 0.75581 0.49755 0.0365 0.0
H2848 H 0.8798 0.60103 0.2576 0.0
H2849 H 0.89547 0.57865 0.22546 0.0
H2850 H 0.83782 0.52452 0.23558 0.0
H2851 H 0.82207 0.54652 0.26731 0.0
H2852 H 0.91185 0.53988 0.2187 0.0
H2853 H 0.81858 0.49913 0.18599 0.0
H2854 H 0.77776 0.51018 0.18434 0.0
H2855 H 0.80421 0.58284 0.18751 0.0
H2856 H 0.84523 0.57226 0.18889 0.0
H2857 H 0.9205 0.43662 0.1555 0.0
H2858 H 0.91274 0.4687 0.18167 0.0
H2859 H 0.88048 0.5031 0.12438 0.0
H2860 H 0.88571 0.46995 0.09873 0.0
H2861 H 0.85472 0.50568 0.15912 0.0
H2862 H 0.93772 0.5215 0.15034 0.0
H2863 H 0.97975 0.514 0.14971 0.0
H2864 H 0.97663 0.49842 0.22394 0.0
H2865 H 0.93449 0.50534 0.22494 0.0
C2866 C 0.8707 0.58412 0.25318 0.0
C2867 C 0.8495 0.57567 0.26477 0.0
C2868 C 0.87965 0.57138 0.23476 0.0
C2869 C 0.86754 0.55001 0.22768 0.0
C2870 C 0.84726 0.54102 0.24034 0.0
C2871 C 0.83827 0.55368 0.25857 0.0
C2872 C 0.87564 0.53709 0.20695 0.0
C2873 C 0.89939 0.53234 0.20568 0.0
C2874 C 0.85967 0.5283 0.18916 0.0
C2875 C 0.83502 0.53485 0.18781 0.0
C2876 C 0.81573 0.51747 0.18622 0.0
C2877 C 0.79253 0.52366 0.18536 0.0
C2878 C 0.78838 0.5472 0.1859 0.0
C2879 C 0.80744 0.56461 0.18719 0.0
C2880 C 0.83067 0.55852 0.18805 0.0
C2881 C 0.91177 0.45101 0.14843 0.0
C2882 C 0.90321 0.45043 0.12518 0.0
C2883 C 0.90783 0.46955 0.16333 0.0
C2884 C 0.89656 0.48856 0.15501 0.0
C2885 C 0.88915 0.48862 0.13136 0.0
C2886 C 0.89221 0.46966 0.11668 0.0
C2887 C 0.89071 0.5072 0.17161 0.0
C2888 C 0.86732 0.5132 0.17203 0.0
C2889 C 0.90725 0.51765 0.18817 0.0
C2890 C 0.93276 0.51368 0.18765 0.0
C2891 C 0.94591 0.51627 0.16649 0.0
C2892 C 0.96979 0.51213 0.16607 0.0
C2893 C 0.98083 0.50565 0.18675 0.0
C2894 C 0.96806 0.50342 0.20792 0.0
C2895 C 0.94415 0.5074 0.20841 0.0
H2896 H 0.99931 0.50243 0.18638 0.0
H2897 H 0.77041 0.55195 0.18526 0.0
H2898 H 0.78492 0.61664 0.38152 0.0
H2899 H 0.76015 0.61246 0.4167 0.0
H2900 H 0.71467 0.55753 0.38354 0.0
H2901 H 0.73939 0.56177 0.34787 0.0
H2902 H 0.68906 0.58764 0.40051 0.0
H2903 H 0.75148 0.54911 0.43138 0.0
H2904 H 0.7918 0.541 0.44246 0.0
H2905 H 0.79727 0.59971 0.48944 0.0
H2906 H 0.7576 0.60888 0.47777 0.0
H2907 H 0.62752 0.5717 0.51296 0.0
H2908 H 0.65228 0.56482 0.47885 0.0
H2909 H 0.68875 0.63403 0.48574 0.0
H2910 H 0.6638 0.6413 0.51998 0.0
H2911 H 0.71719 0.5902 0.48333 0.0
H2912 H 0.65506 0.62998 0.44644 0.0
H2913 H 0.61362 0.63474 0.43648 0.0
H2914 H 0.60649 0.56744 0.40315 0.0
H2915 H 0.64791 0.56212 0.41319 0.0
C2916 C 0.77004 0.60322 0.38192 0.0
C2917 C 0.76418 0.58946 0.36201 0.0
C2918 C 0.75584 0.60088 0.40208 0.0
C2919 C 0.73564 0.58461 0.40295 0.0
C2920 C 0.73021 0.5702 0.38335 0.0
C2921 C 0.74436 0.57261 0.36301 0.0
C2922 C 0.71905 0.58466 0.4233 0.0
C2923 C 0.69521 0.58766 0.41862 0.0
C2924 C 0.72705 0.58493 0.44702 0.0
C2925 C 0.75146 0.57986 0.45348 0.0
C2926 C 0.76141 0.56058 0.44374 0.0
C2927 C 0.78422 0.55578 0.45013 0.0
C2928 C 0.79717 0.5699 0.46655 0.0
C2929 C 0.78734 0.58886 0.47659 0.0
C2930 C 0.7647 0.59392 0.47001 0.0
C2931 C 0.64074 0.58555 0.50723 0.0
C2932 C 0.64391 0.607 0.51931 0.0
C2933 C 0.65483 0.58154 0.48774 0.0
C2934 C 0.67239 0.59882 0.48009 0.0
C2935 C 0.6754 0.62042 0.49173 0.0
C2936 C 0.6611 0.62457 0.51114 0.0
C2937 C 0.68796 0.59405 0.46019 0.0
C2938 C 0.71135 0.58994 0.46511 0.0
C2939 C 0.67951 0.59225 0.43681 0.0
C2940 C 0.65459 0.59554 0.4308 0.0
C2941 C 0.64466 0.61608 0.43718 0.0
C2942 C 0.62116 0.61891 0.43147 0.0
C2943 C 0.6074 0.60138 0.41925 0.0
C2944 C 0.61716 0.581 0.41265 0.0
C2945 C 0.64066 0.57808 0.41833 0.0
H2946 H 0.58921 0.6036 0.41484 0.0
H2947 H 0.81479 0.56611 0.47154 0.0
H2948 H 0.62335 0.42925 0.82267 0.0
H2949 H 0.63467 0.46293 0.79685 0.0
H2950 H 0.66187 0.50306 0.85673 0.0
H2951 H 0.6513 0.46934 0.88253 0.0
H2952 H 0.63337 0.5309 0.83543 0.0
H2953 H 0.70203 0.50356 0.81272 0.0
H2954 H 0.73054 0.47458 0.81746 0.0
H2955 H 0.69864 0.43495 0.76004 0.0
H2956 H 0.66927 0.46369 0.75581 0.0
H2957 H 0.67907 0.63241 0.74344 0.0
H2958 H 0.67548 0.60252 0.77459 0.0
H2959 H 0.61285 0.56906 0.74132 0.0
H2960 H 0.61573 0.59931 0.71069 0.0
H2961 H 0.66738 0.54902 0.74002 0.0
H2962 H 0.60016 0.57828 0.78708 0.0
H2963 H 0.58184 0.60947 0.80791 0.0
H2964 H 0.6309 0.6059 0.86506 0.0
H2965 H 0.64985 0.57502 0.84429 0.0
C2966 C 0.63219 0.44506 0.83027 0.0
C2967 C 0.63631 0.44651 0.8547 0.0
C2968 C 0.63873 0.46433 0.81549 0.0
C2969 C 0.64914 0.48557 0.82487 0.0
C2970 C 0.65384 0.48691 0.8491 0.0
C2971 C 0.64782 0.4675 0.8638 0.0
C2972 C 0.65312 0.50663 0.80949 0.0
C2973 C 0.64098 0.53133 0.81786 0.0
C2974 C 0.66541 0.50412 0.78163 0.0
C2975 C 0.68358 0.4862 0.78301 0.0
C2976 C 0.70103 0.48877 0.80084 0.0
C2977 C 0.71731 0.47233 0.80371 0.0
C2978 C 0.71647 0.45299 0.78889 0.0
C2979 C 0.69923 0.45006 0.77137 0.0
C2980 C 0.68274 0.46642 0.76871 0.0
C2981 C 0.66388 0.61934 0.74335 0.0
C2982 C 0.64789 0.61801 0.72433 0.0
C2983 C 0.66177 0.60235 0.7613 0.0
C2984 C 0.64361 0.58387 0.76055 0.0
C2985 C 0.62665 0.58352 0.74257 0.0
C2986 C 0.62859 0.60059 0.72479 0.0
C2987 C 0.6466 0.56185 0.77302 0.0
C2988 C 0.66027 0.5424 0.7569 0.0
C2989 C 0.63797 0.55617 0.80157 0.0
C2990 C 0.62663 0.5746 0.81397 0.0
C2991 C 0.6073 0.58441 0.8039 0.0
C2992 C 0.59672 0.60196 0.81575 0.0
C2993 C 0.60526 0.60974 0.83776 0.0
C2994 C 0.62433 0.5999 0.84799 0.0
C2995 C 0.63497 0.58235 0.8362 0.0
H2996 H 0.59704 0.62333 0.84691 0.0
H2997 H 0.72906 0.4402 0.79105 0.0
H2998 H 0.82811 0.30038 0.03827 0.0
H2999 H 0.7939 0.31011 0.01577 0.0
H3000 H 0.79038 0.37184 0.05823 0.0
H3001 H 0.82429 0.36189 0.08111 0.0
H3002 H 0.74941 0.35471 0.05262 0.0
H3003 H 0.81332 0.36972 0.9986 0.0
H3004 H 0.84751 0.36388 0.97317 0.0
H3005 H 0.80502 0.31086 0.93464 0.0
H3006 H 0.77059 0.31635 0.95999 0.0
H3007 H 0.67986 0.41493 0.97444 0.0
H3008 H 0.71168 0.40098 0.99774 0.0
H3009 H 0.6996 0.33335 0.96507 0.0
H3010 H 0.66718 0.34693 0.94177 0.0
H3011 H 0.74699 0.35214 0.96525 0.0
H3012 H 0.68287 0.33953 0.02171 0.0
H3013 H 0.64921 0.35165 0.04473 0.0
H3014 H 0.69505 0.40682 0.07651 0.0
H3015 H 0.72894 0.39519 0.05348 0.0
C3016 C 0.82029 0.31626 0.04255 0.0
C3017 C 0.82919 0.33066 0.06116 0.0
C3018 C 0.80077 0.32189 0.02957 0.0
C3019 C 0.78998 0.34223 0.03466 0.0
C3020 C 0.79876 0.35646 0.05343 0.0
C3021 C 0.81824 0.35081 0.06648 0.0
C3022 C 0.76908 0.34828 0.02099 0.0
C3023 C 0.74917 0.35442 0.03347 0.0
C3024 C 0.76838 0.34754 0.99596 0.0
C3025 C 0.78935 0.34347 0.98128 0.0
C3026 C 0.81128 0.35677 0.98479 0.0
C3027 C 0.83072 0.35352 0.97037 0.0
C3028 C 0.82846 0.33698 0.9523 0.0
C3029 C 0.80677 0.32364 0.94867 0.0
C3030 C 0.78728 0.32683 0.96307 0.0
C3031 C 0.68374 0.39699 0.9723 0.0
C3032 C 0.67094 0.38198 0.95628 0.0
C3033 C 0.70192 0.38913 0.98566 0.0
C3034 C 0.70781 0.36621 0.98324 0.0
C3035 C 0.69517 0.35111 0.96726 0.0
C3036 C 0.67666 0.35886 0.95403 0.0
C3037 C 0.72789 0.35857 0.99682 0.0
C3038 C 0.74756 0.35223 0.98433 0.0
C3039 C 0.72869 0.35977 0.02171 0.0
C3040 C 0.70841 0.36653 0.03583 0.0
C3041 C 0.68574 0.3543 0.03354 0.0
C3042 C 0.66663 0.36108 0.0466 0.0
C3043 C 0.66999 0.38 0.06206 0.0
C3044 C 0.69248 0.39215 0.06455 0.0
C3045 C 0.71166 0.38545 0.05154 0.0
H3046 H 0.65516 0.38523 0.07213 0.0
H3047 H 0.84351 0.33451 0.94111 0.0
H3048 H 0.90098 0.55349 0.28609 0.0
H3049 H 0.90236 0.5223 0.2568 0.0
H3050 H 0.86838 0.47248 0.30633 0.0
H3051 H 0.86593 0.5034 0.33515 0.0
H3052 H 0.92573 0.48108 0.26455 0.0
H3053 H 0.84019 0.4465 0.28857 0.0
H3054 H 0.79834 0.45304 0.29519 0.0
H3055 H 0.79796 0.49072 0.22959 0.0
H3056 H 0.84007 0.48468 0.22291 0.0
H3057 H 0.92473 0.36931 0.20815 0.0
H3058 H 0.92117 0.40136 0.23565 0.0
H3059 H 0.87487 0.43214 0.18687 0.0
H3060 H 0.87783 0.39976 0.15961 0.0
H3061 H 0.85751 0.4343 0.22756 0.0
H3062 H 0.93844 0.44743 0.19842 0.0
H3063 H 0.97995 0.44055 0.19238 0.0
H3064 H 0.99081 0.44054 0.26733 0.0
H3065 H 0.94911 0.44727 0.27391 0.0
C3066 C 0.89314 0.53602 0.29048 0.0
C3067 C 0.88309 0.53107 0.31294 0.0
C3068 C 0.89392 0.51819 0.27368 0.0
C3069 C 0.88463 0.49509 0.27889 0.0
C3070 C 0.87448 0.49024 0.30124 0.0
C3071 C 0.8734 0.50802 0.31791 0.0
C3072 C 0.88776 0.47576 0.26199 0.0
C3073 C 0.91088 0.4707 0.25648 0.0
C3074 C 0.86841 0.46219 0.25147 0.0
C3075 C 0.84354 0.46641 0.25595 0.0
C3076 C 0.83139 0.45684 0.27597 0.0
C3077 C 0.80758 0.46024 0.27961 0.0
C3078 C 0.79561 0.47266 0.26301 0.0
C3079 C 0.80735 0.48142 0.24259 0.0
C3080 C 0.83119 0.47811 0.23895 0.0
C3081 C 0.91397 0.38304 0.20314 0.0
C3082 C 0.90173 0.38206 0.18153 0.0
C3083 C 0.91206 0.40148 0.21889 0.0
C3084 C 0.89825 0.41966 0.2132 0.0
C3085 C 0.88587 0.41855 0.19168 0.0
C3086 C 0.88764 0.40003 0.176 0.0
C3087 C 0.89567 0.43929 0.22995 0.0
C3088 C 0.8726 0.4445 0.23548 0.0
C3089 C 0.91523 0.45252 0.24085 0.0
C3090 C 0.94034 0.44796 0.23666 0.0
C3091 C 0.94947 0.44597 0.21367 0.0
C3092 C 0.97314 0.44203 0.21014 0.0
C3093 C 0.98804 0.44012 0.22946 0.0
C3094 C 0.97926 0.44208 0.25236 0.0
C3095 C 0.95558 0.44598 0.25598 0.0
H3096 H 0.00638 0.4371 0.22668 0.0
H3097 H 0.77716 0.47523 0.26581 0.0
H3098 H 0.87176 0.6583 0.40728 0.0
H3099 H 0.84245 0.67307 0.43355 0.0
H3100 H 0.79904 0.60725 0.42872 0.0
H3101 H 0.82761 0.59262 0.40156 0.0
H3102 H 0.77332 0.65104 0.42755 0.0
H3103 H 0.83568 0.61474 0.47126 0.0
H3104 H 0.87762 0.6131 0.4816 0.0
H3105 H 0.88238 0.68438 0.50506 0.0
H3106 H 0.84042 0.68649 0.4947 0.0
H3107 H 0.70585 0.63372 0.53528 0.0
H3108 H 0.73185 0.63023 0.5011 0.0
H3109 H 0.76988 0.69696 0.51746 0.0
H3110 H 0.74321 0.70117 0.55093 0.0
H3111 H 0.79935 0.65981 0.51082 0.0
H3112 H 0.73931 0.69653 0.47466 0.0
H3113 H 0.69931 0.70457 0.46258 0.0
H3114 H 0.69225 0.64191 0.42118 0.0
H3115 H 0.73164 0.63289 0.43407 0.0
C3116 C 0.85562 0.64714 0.41119 0.0
C3117 C 0.85204 0.62425 0.40208 0.0
C3118 C 0.8389 0.65564 0.42632 0.0
C3119 C 0.81836 0.64135 0.43298 0.0
C3120 C 0.8144 0.6188 0.4234 0.0
C3121 C 0.83091 0.61038 0.40796 0.0
C3122 C 0.8022 0.64889 0.45165 0.0
C3123 C 0.77875 0.65241 0.44586 0.0
C3124 C 0.8099 0.65248 0.47523 0.0
C3125 C 0.83488 0.65079 0.48216 0.0
C3126 C 0.84561 0.63006 0.47865 0.0
C3127 C 0.86942 0.62906 0.48449 0.0
C3128 C 0.88267 0.64863 0.49397 0.0
C3129 C 0.87209 0.66922 0.49773 0.0
C3130 C 0.84828 0.67031 0.49193 0.0
C3131 C 0.7193 0.64795 0.53122 0.0
C3132 C 0.72211 0.66789 0.54565 0.0
C3133 C 0.73432 0.64584 0.51178 0.0
C3134 C 0.75285 0.66332 0.5067 0.0
C3135 C 0.75569 0.68326 0.52102 0.0
C3136 C 0.74031 0.68567 0.54009 0.0
C3137 C 0.76983 0.66028 0.48706 0.0
C3138 C 0.7936 0.65798 0.49262 0.0
C3139 C 0.76251 0.65846 0.46319 0.0
C3140 C 0.73838 0.66361 0.45585 0.0
C3141 C 0.72903 0.68407 0.46351 0.0
C3142 C 0.70641 0.68887 0.45648 0.0
C3143 C 0.69308 0.67359 0.44137 0.0
C3144 C 0.70241 0.65355 0.43319 0.0
C3145 C 0.72486 0.64853 0.44045 0.0
H3146 H 0.67563 0.67738 0.43583 0.0
H3147 H 0.90112 0.64784 0.4984 0.0
H3148 H 0.57042 0.69958 0.60062 0.0
H3149 H 0.54408 0.7309 0.60063 0.0
H3150 H 0.49215 0.68645 0.64057 0.0
H3151 H 0.51923 0.65628 0.64242 0.0
H3152 H 0.503 0.73468 0.58305 0.0
H3153 H 0.45759 0.7212 0.67629 0.0
H3154 H 0.46665 0.70768 0.71625 0.0
H3155 H 0.54121 0.71924 0.70109 0.0
H3156 H 0.53262 0.73305 0.66121 0.0
H3157 H 0.39921 0.79667 0.59601 0.0
H3158 H 0.42788 0.76784 0.59231 0.0
H3159 H 0.47089 0.80347 0.6464 0.0
H3160 H 0.44242 0.83207 0.65033 0.0
H3161 H 0.46481 0.75997 0.65612 0.0
H3162 H 0.48428 0.8038 0.58425 0.0
H3163 H 0.47657 0.8202 0.54514 0.0
H3164 H 0.45657 0.75107 0.51878 0.0
H3165 H 0.46396 0.73432 0.55789 0.0
C3166 C 0.55369 0.69689 0.60997 0.0
C3167 C 0.54724 0.67584 0.62215 0.0
C3168 C 0.53845 0.71458 0.60964 0.0
C3169 C 0.51617 0.71121 0.62087 0.0
C3170 C 0.50945 0.68981 0.63234 0.0
C3171 C 0.525 0.67254 0.6334 0.0
C3172 C 0.49997 0.73001 0.62076 0.0
C3173 C 0.49477 0.74032 0.59908 0.0
C3174 C 0.48903 0.73724 0.64167 0.0
C3175 C 0.49443 0.72811 0.66553 0.0
C3176 C 0.47594 0.72091 0.68144 0.0
C3177 C 0.48098 0.71317 0.70413 0.0
C3178 C 0.50449 0.71255 0.7112 0.0
C3179 C 0.52299 0.7196 0.69558 0.0
C3180 C 0.51803 0.72734 0.67289 0.0
C3181 C 0.41507 0.79869 0.60672 0.0
C3182 C 0.41852 0.81682 0.62339 0.0
C3183 C 0.43149 0.78217 0.60455 0.0
C3184 C 0.45176 0.78357 0.61888 0.0
C3185 C 0.45554 0.80209 0.63497 0.0
C3186 C 0.43925 0.81857 0.6371 0.0
C3187 C 0.46826 0.76501 0.61857 0.0
C3188 C 0.47314 0.75438 0.64013 0.0
C3189 C 0.47909 0.75771 0.59766 0.0
C3190 C 0.47458 0.76784 0.57413 0.0
C3191 C 0.47817 0.79212 0.57019 0.0
C3192 C 0.47384 0.80147 0.54799 0.0
C3193 C 0.46605 0.78669 0.52948 0.0
C3194 C 0.4626 0.76252 0.53314 0.0
C3195 C 0.46688 0.75309 0.55533 0.0
H3196 H 0.4627 0.79396 0.51229 0.0
H3197 H 0.50835 0.70663 0.7288 0.0
H3198 H 0.33134 0.61156 0.26617 0.0
H3199 H 0.32931 0.57688 0.29173 0.0
H3200 H 0.33533 0.53341 0.23051 0.0
H3201 H 0.33682 0.56778 0.20488 0.0
H3202 H 0.29619 0.51597 0.25371 0.0
H3203 H 0.38177 0.5487 0.2685 0.0
H3204 H 0.41218 0.58171 0.2759 0.0
H3205 H 0.38941 0.58418 0.3482 0.0
H3206 H 0.35861 0.55137 0.34108 0.0
H3207 H 0.37535 0.41819 0.34331 0.0
H3208 H 0.36399 0.44388 0.31131 0.0
H3209 H 0.31815 0.47592 0.35921 0.0
H3210 H 0.32927 0.45084 0.39097 0.0
H3211 H 0.36597 0.50496 0.33027 0.0
H3212 H 0.25632 0.48657 0.2906 0.0
H3213 H 0.22083 0.46583 0.27254 0.0
H3214 H 0.26466 0.43193 0.2243 0.0
H3215 H 0.3003 0.45241 0.24199 0.0
C3216 C 0.33238 0.5946 0.25818 0.0
C3217 C 0.33401 0.59234 0.23347 0.0
C3218 C 0.33128 0.57486 0.27283 0.0
C3219 C 0.33204 0.55264 0.26299 0.0
C3220 C 0.33442 0.55044 0.23843 0.0
C3221 C 0.33534 0.57008 0.22378 0.0
C3222 C 0.32925 0.53136 0.27772 0.0
C3223 C 0.30751 0.51124 0.26793 0.0
C3224 C 0.34944 0.52826 0.29995 0.0
C3225 C 0.36766 0.54795 0.30416 0.0
C3226 C 0.38307 0.55649 0.28589 0.0
C3227 C 0.40041 0.57511 0.29005 0.0
C3228 C 0.40265 0.58512 0.31247 0.0
C3229 C 0.3876 0.57647 0.33081 0.0
C3230 C 0.3702 0.55787 0.32672 0.0
C3231 C 0.36206 0.43003 0.34664 0.0
C3232 C 0.35282 0.43217 0.36949 0.0
C3233 C 0.35545 0.44447 0.32831 0.0
C3234 C 0.33886 0.46055 0.33225 0.0
C3235 C 0.32979 0.46269 0.35516 0.0
C3236 C 0.33642 0.44847 0.37346 0.0
C3237 C 0.33419 0.47845 0.31359 0.0
C3238 C 0.35228 0.50412 0.31694 0.0
C3239 C 0.30295 0.48366 0.2794 0.0
C3240 C 0.28126 0.46993 0.26882 0.0
C3241 C 0.2585 0.47421 0.27659 0.0
C3242 C 0.23826 0.46265 0.26623 0.0
C3243 C 0.24049 0.4472 0.24759 0.0
C3244 C 0.26295 0.44355 0.23906 0.0
C3245 C 0.28323 0.45509 0.24937 0.0
H3246 H 0.2248 0.43831 0.23954 0.0
H3247 H 0.41611 0.59952 0.31567 0.0
H3248 H 0.30117 0.66375 0.07393 0.0
H3249 H 0.26989 0.65541 0.04497 0.0
H3250 H 0.24398 0.59298 0.08336 0.0
H3251 H 0.27586 0.60096 0.11238 0.0
H3252 H 0.23825 0.58606 0.0368 0.0
H3253 H 0.21933 0.6449 0.09137 0.0
H3254 H 0.22648 0.68151 0.11399 0.0
H3255 H 0.23386 0.72105 0.04939 0.0
H3256 H 0.22705 0.68462 0.02637 0.0
H3257 H 0.12101 0.58053 0.9915 0.0
H3258 H 0.15569 0.58378 0.01722 0.0
H3259 H 0.18382 0.6464 0.97999 0.0
H3260 H 0.14803 0.64408 0.95542 0.0
H3261 H 0.18922 0.65193 0.02529 0.0
H3262 H 0.19894 0.58835 0.97182 0.0
H3263 H 0.18577 0.55037 0.95403 0.0
H3264 H 0.19096 0.51653 0.02125 0.0
H3265 H 0.20327 0.55451 0.03977 0.0
C3266 C 0.28923 0.6479 0.07598 0.0
C3267 C 0.29098 0.63307 0.09553 0.0
C3268 C 0.27122 0.64325 0.05946 0.0
C3269 C 0.25429 0.62388 0.06223 0.0
C3270 C 0.25679 0.60814 0.08091 0.0
C3271 C 0.27501 0.61272 0.09748 0.0
C3272 C 0.23315 0.62135 0.04662 0.0
C3273 C 0.22734 0.60033 0.03441 0.0
C3274 C 0.21902 0.64006 0.04338 0.0
C3275 C 0.22286 0.66203 0.05716 0.0
C3276 C 0.2226 0.66139 0.082 0.0
C3277 C 0.22658 0.6821 0.09489 0.0
C3278 C 0.23067 0.70358 0.08313 0.0
C3279 C 0.23071 0.7044 0.05846 0.0
C3280 C 0.22676 0.68373 0.04549 0.0
C3281 C 0.13467 0.59494 0.98884 0.0
C3282 C 0.13209 0.61197 0.97147 0.0
C3283 C 0.15451 0.59674 0.00345 0.0
C3284 C 0.1727 0.615 0.00019 0.0
C3285 C 0.17008 0.63208 0.98277 0.0
C3286 C 0.14976 0.63074 0.96871 0.0
C3287 C 0.19418 0.61665 0.01531 0.0
C3288 C 0.20013 0.63762 0.02745 0.0
C3289 C 0.20788 0.59758 0.0189 0.0
C3290 C 0.20194 0.57451 0.0073 0.0
C3291 C 0.19721 0.57293 0.98293 0.0
C3292 C 0.18965 0.55136 0.97272 0.0
C3293 C 0.18737 0.53106 0.98653 0.0
C3294 C 0.19267 0.53229 0.01058 0.0
C3295 C 0.19987 0.55387 0.02096 0.0
H3296 H 0.18167 0.51436 0.97856 0.0
H3297 H 0.23376 0.7196 0.09314 0.0
H3298 H 0.10407 0.52097 0.8896 0.0
H3299 H 0.10817 0.49579 0.85566 0.0
H3300 H 0.0789 0.54615 0.81057 0.0
H3301 H 0.07497 0.57171 0.8446 0.0
H3302 H 0.05807 0.50328 0.80338 0.0
H3303 H 0.1372 0.53719 0.8137 0.0
H3304 H 0.17593 0.54842 0.83179 0.0
H3305 H 0.18744 0.47609 0.83887 0.0
H3306 H 0.14857 0.46437 0.82107 0.0
H3307 H 0.07872 0.42802 0.70514 0.0
H3308 H 0.07663 0.46176 0.73154 0.0
H3309 H 0.10919 0.42479 0.78706 0.0
H3310 H 0.1102 0.39093 0.76124 0.0
H3311 H 0.13104 0.46719 0.78248 0.0
H3312 H 0.04953 0.43354 0.78751 0.0
H3313 H 0.01055 0.41896 0.77119 0.0
H3314 H 0.00395 0.48639 0.74037 0.0
H3315 H 0.04309 0.50128 0.75627 0.0
C3316 C 0.09884 0.5269 0.8724 0.0
C3317 C 0.08923 0.54835 0.86975 0.0
C3318 C 0.10131 0.51251 0.85298 0.0
C3319 C 0.09429 0.51928 0.83046 0.0
C3320 C 0.08484 0.54079 0.8277 0.0
C3321 C 0.08261 0.55537 0.84714 0.0
C3322 C 0.09543 0.50309 0.81025 0.0
C3323 C 0.07418 0.49574 0.79854 0.0
C3324 C 0.1164 0.49283 0.80433 0.0
C3325 C 0.13976 0.49991 0.81569 0.0
C3326 C 0.14787 0.52364 0.81901 0.0
C3327 C 0.16992 0.53011 0.82931 0.0
C3328 C 0.1842 0.51299 0.83639 0.0
C3329 C 0.1764 0.48936 0.83329 0.0
C3330 C 0.15433 0.48281 0.82304 0.0
C3331 C 0.08531 0.42727 0.72302 0.0
C3332 C 0.09469 0.40715 0.73131 0.0
C3333 C 0.08412 0.44643 0.73803 0.0
C3334 C 0.09311 0.44596 0.76112 0.0
C3335 C 0.10238 0.42569 0.76926 0.0
C3336 C 0.10288 0.40636 0.75458 0.0
C3337 C 0.09352 0.46658 0.77685 0.0
C3338 C 0.11509 0.47498 0.78736 0.0
C3339 C 0.07284 0.47729 0.78232 0.0
C3340 C 0.04931 0.46844 0.77285 0.0
C3341 C 0.03983 0.4452 0.7771 0.0
C3342 C 0.01771 0.43689 0.76795 0.0
C3343 C 0.00481 0.45172 0.75469 0.0
C3344 C 0.01399 0.47491 0.75061 0.0
C3345 C 0.03613 0.4833 0.75969 0.0
H3346 H 0.98768 0.44525 0.74763 0.0
H3347 H 0.20128 0.51802 0.84435 0.0
H3348 H 0.21061 0.37781 0.64341 0.0
H3349 H 0.24417 0.38157 0.61569 0.0
H3350 H 0.19568 0.36643 0.5579 0.0
H3351 H 0.16244 0.36197 0.58564 0.0
H3352 H 0.22923 0.33963 0.55538 0.0
H3353 H 0.22757 0.42258 0.56901 0.0
H3354 H 0.22871 0.4582 0.59326 0.0
H3355 H 0.29759 0.44606 0.61891 0.0
H3356 H 0.29664 0.4102 0.59498 0.0
H3357 H 0.32336 0.40627 0.47269 0.0
H3358 H 0.29286 0.40532 0.50295 0.0
H3359 H 0.30879 0.33671 0.52489 0.0
H3360 H 0.33952 0.33739 0.49414 0.0
H3361 H 0.29373 0.40431 0.54796 0.0
H3362 H 0.25529 0.30594 0.54715 0.0
H3363 H 0.25016 0.27282 0.51944 0.0
H3364 H 0.25519 0.32062 0.46072 0.0
H3365 H 0.25971 0.35397 0.48815 0.0
C3366 C 0.20721 0.37616 0.62464 0.0
C3367 C 0.1841 0.37012 0.61641 0.0
C3368 C 0.22634 0.3782 0.60884 0.0
C3369 C 0.22251 0.3744 0.58459 0.0
C3370 C 0.19916 0.36941 0.57643 0.0
C3371 C 0.18012 0.36715 0.59221 0.0
C3372 C 0.2427 0.37372 0.56789 0.0
C3373 C 0.24317 0.35393 0.55351 0.0
C3374 C 0.26129 0.39205 0.56597 0.0
C3375 C 0.26188 0.41359 0.58037 0.0
C3376 C 0.24285 0.42743 0.57994 0.0
C3377 C 0.24348 0.44767 0.59361 0.0
C3378 C 0.26319 0.45436 0.60767 0.0
C3379 C 0.28232 0.44084 0.60804 0.0
C3380 C 0.28173 0.42057 0.59441 0.0
C3381 C 0.32029 0.39079 0.48371 0.0
C3382 C 0.33366 0.3717 0.48071 0.0
C3383 C 0.30291 0.3904 0.5012 0.0
C3384 C 0.29833 0.37092 0.51609 0.0
C3385 C 0.31175 0.35182 0.51334 0.0
C3386 C 0.32928 0.3522 0.49577 0.0
C3387 C 0.27936 0.37088 0.53428 0.0
C3388 C 0.27952 0.39021 0.54944 0.0
C3389 C 0.26077 0.35253 0.53625 0.0
C3390 C 0.25825 0.33248 0.51968 0.0
C3391 C 0.25527 0.30939 0.52833 0.0
C3392 C 0.25239 0.29056 0.51268 0.0
C3393 C 0.25242 0.29461 0.48833 0.0
C3394 C 0.25523 0.31749 0.47958 0.0
C3395 C 0.25796 0.33635 0.49516 0.0
H3396 H 0.25022 0.28001 0.47625 0.0
H3397 H 0.26367 0.47004 0.61825 0.0
H3398 H 0.39648 0.39419 0.30807 0.0
H3399 H 0.39498 0.42515 0.27807 0.0
H3400 H 0.32306 0.39891 0.26166 0.0
H3401 H 0.32372 0.36927 0.29276 0.0
H3402 H 0.37683 0.41195 0.2265 0.0
H3403 H 0.31215 0.42829 0.28648 0.0
H3404 H 0.28375 0.4422 0.31889 0.0
H3405 H 0.30919 0.52388 0.3158 0.0
H3406 H 0.3551 0.50196 0.26779 0.0
H3407 H 0.35261 0.49814 0.1378 0.0
H3408 H 0.34519 0.46635 0.16678 0.0
H3409 H 0.38373 0.50902 0.21915 0.0
H3410 H 0.39165 0.54064 0.19019 0.0
H3411 H 0.33948 0.48555 0.23384 0.0
H3412 H 0.41071 0.46911 0.19117 0.0
H3413 H 0.43173 0.46036 0.15456 0.0
H3414 H 0.38262 0.39935 0.14377 0.0
H3415 H 0.36109 0.40795 0.18017 0.0
C3416 C 0.38021 0.3954 0.29837 0.0
C3417 C 0.35996 0.37991 0.30324 0.0
C3418 C 0.37933 0.41309 0.28139 0.0
C3419 C 0.35828 0.41532 0.26895 0.0
C3420 C 0.33882 0.39856 0.27236 0.0
C3421 C 0.33932 0.38154 0.28994 0.0
C3422 C 0.35781 0.43296 0.24999 0.0
C3423 C 0.36892 0.42825 0.22848 0.0
C3424 C 0.34751 0.45432 0.25262 0.0
C3425 C 0.3367 0.46292 0.27472 0.0
C3426 C 0.3155 0.44647 0.29069 0.0
C3427 C 0.29618 0.45565 0.31114 0.0
C3428 C 0.29375 0.48342 0.32022 0.0
C3429 C 0.31177 0.50648 0.30912 0.0
C3430 C 0.34107 0.49237 0.27841 0.0
C3431 C 0.35919 0.50088 0.1556 0.0
C3432 C 0.37273 0.52192 0.16174 0.0
C3433 C 0.35513 0.4826 0.17203 0.0
C3434 C 0.36424 0.4852 0.19495 0.0
C3435 C 0.37675 0.50659 0.20144 0.0
C3436 C 0.38119 0.52468 0.18493 0.0
C3437 C 0.36088 0.46588 0.21251 0.0
C3438 C 0.34838 0.46975 0.23312 0.0
C3439 C 0.37101 0.44463 0.2099 0.0
C3440 C 0.38415 0.43931 0.18824 0.0
C3441 C 0.40429 0.45393 0.18089 0.0
C3442 C 0.41631 0.44898 0.1602 0.0
C3443 C 0.40848 0.42935 0.14681 0.0
C3444 C 0.38865 0.41457 0.15414 0.0
C3445 C 0.37654 0.41947 0.1748 0.0
H3446 H 0.4178 0.42556 0.13078 0.0
H3447 H 0.28046 0.48654 0.33326 0.0
H3448 H 0.373 0.61382 0.04049 0.0
H3449 H 0.35089 0.62851 0.00741 0.0
H3450 H 0.28577 0.59488 0.03715 0.0
H3451 H 0.30801 0.57918 0.06925 0.0
H3452 H 0.29052 0.58191 0.99453 0.0
H3453 H 0.30996 0.65829 0.0325 0.0
H3454 H 0.33666 0.69239 0.04507 0.0
H3455 H 0.36025 0.70394 0.97343 0.0
H3456 H 0.33364 0.66976 0.96062 0.0
H3457 H 0.19673 0.62672 0.93098 0.0
H3458 H 0.22532 0.62073 0.96246 0.0
H3459 H 0.28322 0.64105 0.91474 0.0
H3460 H 0.25506 0.64688 0.88323 0.0
H3461 H 0.28743 0.66142 0.96143 0.0
H3462 H 0.27499 0.59184 0.9208 0.0
H3463 H 0.25736 0.55598 0.9017 0.0
H3464 H 0.23504 0.52724 0.96916 0.0
H3465 H 0.25065 0.56379 0.98862 0.0
C3466 C 0.35386 0.61026 0.04025 0.0
C3467 C 0.3421 0.59547 0.05734 0.0
C3468 C 0.34122 0.61868 0.02136 0.0
C3469 C 0.31654 0.61304 0.0198 0.0
C3470 C 0.30475 0.59957 0.03792 0.0
C3471 C 0.31741 0.59065 0.05633 0.0
C3472 C 0.30301 0.61832 0.99827 0.0
C3473 C 0.28932 0.59942 0.98772 0.0
C3474 C 0.30348 0.64086 0.98778 0.0
C3475 C 0.31965 0.66134 0.9957 0.0
C3476 C 0.32073 0.66808 0.0195 0.0
C3477 C 0.33593 0.68743 0.02665 0.0
C3478 C 0.35016 0.70036 0.01006 0.0
C3479 C 0.3492 0.69393 0.9863 0.0
C3480 C 0.33402 0.67455 0.97911 0.0
C3481 C 0.21554 0.62981 0.92719 0.0
C3482 C 0.22365 0.63695 0.90453 0.0
C3483 C 0.23178 0.62625 0.94511 0.0
C3484 C 0.25628 0.63001 0.94071 0.0
C3485 C 0.26438 0.63792 0.9184 0.0
C3486 C 0.24824 0.64107 0.90039 0.0
C3487 C 0.27343 0.62526 0.95934 0.0
C3488 C 0.28816 0.64404 0.96877 0.0
C3489 C 0.27499 0.6024 0.96806 0.0
C3490 C 0.26338 0.58114 0.95618 0.0
C3491 C 0.2654 0.57842 0.93157 0.0
C3492 C 0.2558 0.55784 0.92064 0.0
C3493 C 0.24473 0.53948 0.93417 0.0
C3494 C 0.24322 0.54166 0.95865 0.0
C3495 C 0.25223 0.56243 0.96961 0.0
H3496 H 0.23756 0.52344 0.92572 0.0
H3497 H 0.36194 0.71534 0.0156 0.0
H3498 H 0.15086 0.4646 0.65038 0.0
H3499 H 0.16146 0.49185 0.68293 0.0
H3500 H 0.08765 0.48962 0.70242 0.0
H3501 H 0.07709 0.46222 0.67084 0.0
H3502 H 0.10636 0.53248 0.69999 0.0
H3503 H 0.131 0.46063 0.73072 0.0
H3504 H 0.15417 0.42688 0.73381 0.0
H3505 H 0.21801 0.47325 0.74169 0.0
H3506 H 0.19509 0.50731 0.73846 0.0
H3507 H 0.10866 0.59132 0.80816 0.0
H3508 H 0.10343 0.56148 0.77758 0.0
H3509 H 0.17935 0.564 0.76924 0.0
H3510 H 0.18472 0.59321 0.80045 0.0
H3511 H 0.16237 0.5216 0.76512 0.0
H3512 H 0.14075 0.59274 0.72974 0.0
H3513 H 0.11899 0.62768 0.72696 0.0
H3514 H 0.05282 0.58398 0.72595 0.0
H3515 H 0.07419 0.54879 0.72899 0.0
C3516 C 0.13699 0.4696 0.66194 0.0
C3517 C 0.11315 0.46102 0.6581 0.0
C3518 C 0.14307 0.48514 0.68054 0.0
C3519 C 0.12537 0.49248 0.69544 0.0
C3520 C 0.10167 0.48388 0.69153 0.0
C3521 C 0.09566 0.46815 0.67336 0.0
C3522 C 0.13085 0.50998 0.71446 0.0
C3523 C 0.11852 0.52996 0.71431 0.0
C3524 C 0.14734 0.50716 0.73276 0.0
C3525 C 0.1612 0.48658 0.7342 0.0
C3526 C 0.14992 0.46366 0.73299 0.0
C3527 C 0.16304 0.44445 0.7348 0.0
C3528 C 0.18758 0.4479 0.73792 0.0
C3529 C 0.199 0.47059 0.73926 0.0
C3530 C 0.18591 0.48985 0.73746 0.0
C3531 C 0.12426 0.58535 0.80001 0.0
C3532 C 0.14711 0.59475 0.80673 0.0
C3533 C 0.12124 0.56846 0.78228 0.0
C3534 C 0.14096 0.56086 0.77055 0.0
C3535 C 0.16381 0.56961 0.77785 0.0
C3536 C 0.16686 0.58631 0.79578 0.0
C3537 C 0.13773 0.54394 0.75064 0.0
C3538 C 0.15042 0.52416 0.75064 0.0
C3539 C 0.12191 0.54704 0.73188 0.0
C3540 C 0.10906 0.56816 0.72972 0.0
C3541 C 0.12156 0.5906 0.729 0.0
C3542 C 0.1093 0.61044 0.72739 0.0
C3543 C 0.08454 0.60805 0.72631 0.0
C3544 C 0.072 0.58581 0.72678 0.0
C3545 C 0.08417 0.56591 0.72841 0.0
H3546 H 0.07508 0.62344 0.72509 0.0
H3547 H 0.19773 0.43301 0.73932 0.0
H3548 H 0.12845 0.38216 0.52953 0.0
H3549 H 0.15369 0.37123 0.4973 0.0
H3550 H 0.21321 0.41374 0.52763 0.0
H3551 H 0.18702 0.42675 0.55817 0.0
H3552 H 0.21755 0.42087 0.48658 0.0
H3553 H 0.20327 0.34527 0.52451 0.0
H3554 H 0.17963 0.31087 0.54194 0.0
H3555 H 0.14344 0.29853 0.47597 0.0
H3556 H 0.16686 0.33305 0.45851 0.0
H3557 H 0.3108 0.3695 0.43027 0.0
H3558 H 0.28053 0.38146 0.4574 0.0
H3559 H 0.22556 0.3552 0.40945 0.0
H3560 H 0.25556 0.34337 0.38205 0.0
H3561 H 0.21588 0.34071 0.45437 0.0
H3562 H 0.24083 0.41313 0.41585 0.0
H3563 H 0.27037 0.44439 0.40117 0.0
H3564 H 0.29248 0.46024 0.47223 0.0
H3565 H 0.26325 0.42893 0.48733 0.0
C3566 C 0.14702 0.38886 0.52943 0.0
C3567 C 0.1559 0.40508 0.54646 0.0
C3568 C 0.16162 0.38243 0.51104 0.0
C3569 C 0.18578 0.39115 0.50995 0.0
C3570 C 0.19471 0.4068 0.52763 0.0
C3571 C 0.17984 0.41405 0.54534 0.0
C3572 C 0.20149 0.38522 0.48989 0.0
C3573 C 0.21743 0.40315 0.48005 0.0
C3574 C 0.2009 0.36241 0.48016 0.0
C3575 C 0.18648 0.34192 0.49052 0.0
C3576 C 0.19007 0.33532 0.51398 0.0
C3577 C 0.17679 0.31579 0.52378 0.0
C3578 C 0.15993 0.30257 0.5101 0.0
C3579 C 0.15644 0.30883 0.48658 0.0
C3580 C 0.16973 0.32838 0.47675 0.0
C3581 C 0.29229 0.36634 0.42547 0.0
C3582 C 0.2856 0.35552 0.40402 0.0
C3583 C 0.27507 0.37326 0.44094 0.0
C3584 C 0.25087 0.36939 0.43543 0.0
C3585 C 0.24413 0.35846 0.41406 0.0
C3586 C 0.26133 0.35177 0.39841 0.0
C3587 C 0.23268 0.37595 0.45246 0.0
C3588 C 0.21598 0.35831 0.46123 0.0
C3589 C 0.23319 0.3988 0.46175 0.0
C3590 C 0.25006 0.41838 0.45272 0.0
C3591 C 0.25208 0.42317 0.42835 0.0
C3592 C 0.26875 0.44094 0.41995 0.0
C3593 C 0.28336 0.45422 0.43575 0.0
C3594 C 0.2812 0.44989 0.46 0.0
C3595 C 0.26456 0.43214 0.46849 0.0
H3596 H 0.29631 0.46792 0.4292 0.0
H3597 H 0.14964 0.28743 0.51768 0.0
H3598 H 0.4539 0.3168 0.46965 0.0
H3599 H 0.49024 0.29895 0.46113 0.0
H3600 H 0.48527 0.31811 0.38772 0.0
H3601 H 0.44903 0.33633 0.39616 0.0
H3602 H 0.50197 0.2646 0.43434 0.0
H3603 H 0.53941 0.33378 0.3651 0.0
H3604 H 0.53771 0.37567 0.35633 0.0
H3605 H 0.52259 0.3884 0.42924 0.0
H3606 H 0.52453 0.34667 0.4385 0.0
H3607 H 0.5956 0.25634 0.34043 0.0
H3608 H 0.56667 0.27807 0.36031 0.0
H3609 H 0.58998 0.25379 0.42763 0.0
H3610 H 0.61764 0.23034 0.40738 0.0
H3611 H 0.56748 0.3116 0.39207 0.0
H3612 H 0.55765 0.24608 0.45755 0.0
H3613 H 0.55808 0.20415 0.46726 0.0
H3614 H 0.51665 0.18563 0.40559 0.0
H3615 H 0.51645 0.22757 0.39543 0.0
C3616 C 0.46037 0.31699 0.45162 0.0
C3617 C 0.44864 0.32814 0.4336 0.0
C3618 C 0.48118 0.30678 0.4468 0.0
C3619 C 0.49077 0.30761 0.4239 0.0
C3620 C 0.47849 0.31774 0.40565 0.0
C3621 C 0.45764 0.32795 0.41045 0.0
C3622 C 0.51381 0.29827 0.41919 0.0
C3623 C 0.51645 0.27505 0.42549 0.0
C3624 C 0.53283 0.31186 0.40779 0.0
C3625 C 0.53194 0.33706 0.40244 0.0
C3626 C 0.53584 0.34554 0.37928 0.0
C3627 C 0.53481 0.36925 0.37422 0.0
C3628 C 0.52998 0.38467 0.3922 0.0
C3629 C 0.52625 0.37643 0.41531 0.0
C3630 C 0.52729 0.35274 0.42046 0.0
C3631 C 0.59427 0.25538 0.35942 0.0
C3632 C 0.6078 0.2406 0.37218 0.0
C3633 C 0.57794 0.26802 0.37085 0.0
C3634 C 0.57517 0.2666 0.39547 0.0
C3635 C 0.59069 0.25402 0.40856 0.0
C3636 C 0.60689 0.24104 0.39699 0.0
C3637 C 0.5554 0.27776 0.40666 0.0
C3638 C 0.55322 0.30136 0.40147 0.0
C3639 C 0.53701 0.26471 0.41953 0.0
C3640 C 0.53765 0.23971 0.42535 0.0
C3641 C 0.54891 0.23299 0.44595 0.0
C3642 C 0.54909 0.20928 0.45154 0.0
C3643 C 0.53757 0.19222 0.43692 0.0
C3644 C 0.52569 0.19885 0.41681 0.0
C3645 C 0.52563 0.22255 0.41108 0.0
H3646 H 0.53774 0.17387 0.44125 0.0
H3647 H 0.52917 0.40302 0.38825 0.0
loop_
_geom_bond_atom_site_label_1
_geom_bond_atom_site_label_2
_geom_bond_distance
_geom_bond_site_symmetry_2
_ccdc_geom_bond_type
O0 Cd1 2.223 . S
O0 C8 1.315 . S
Cd1 O0 2.223 . S
Cd1 O4 2.297 . S
Cd1 O5 2.439 . S
Cd1 O11 2.240 . S
Cd2 O3 2.240 . S
Cd2 O10 2.223 . S
Cd2 O12 2.297 . S
Cd2 O13 2.439 . S
O3 Cd2 2.240 . S
O3 C8 1.279 . S
O4 Cd1 2.297 . S
O4 C6 1.247 . S
O5 Cd1 2.439 . S
O5 C6 1.208 . S
C6 O4 1.247 . S
C6 O5 1.208 . S
C7 O12 1.247 . S
C7 O13 1.208 . S
C8 O0 1.315 . S
C8 O3 1.279 . S
C9 O10 1.315 . S
C9 O11 1.279 . S
O10 Cd2 2.223 . S
O10 C9 1.315 . S
O11 Cd1 2.240 . S
O11 C9 1.279 . S
O12 Cd2 2.297 . S
O12 C7 1.247 . S
O13 Cd2 2.439 . S
O13 C7 1.208 . S
O14 Cd15 2.223 . S
O14 C22 1.315 . S
Cd15 O14 2.223 . S
Cd15 O18 2.297 . S
Cd15 O19 2.439 . S
Cd15 O25 2.240 . S
Cd16 O17 2.240 . S
Cd16 O24 2.223 . S
Cd16 O26 2.297 . S
Cd16 O27 2.439 . S
O17 Cd16 2.240 . S
O17 C22 1.279 . S
O18 Cd15 2.297 . S
O18 C20 1.247 . S
O19 Cd15 2.439 . S
O19 C20 1.208 . S
C20 O18 1.247 . S
C20 O19 1.208 . S
C21 O26 1.247 . S
C21 O27 1.208 . S
C22 O14 1.315 . S
C22 O17 1.279 . S
C23 O24 1.315 . S
C23 O25 1.279 . S
O24 Cd16 2.223 . S
O24 C23 1.315 . S
O25 Cd15 2.240 . S
O25 C23 1.279 . S
O26 Cd16 2.297 . S
O26 C21 1.247 . S
O27 Cd16 2.439 . S
O27 C21 1.208 . S
O28 Cd29 2.223 . S
O28 C36 1.315 . S
Cd29 O28 2.223 . S
Cd29 O32 2.297 . S
Cd29 O33 2.439 . S
Cd29 O39 2.240 . S
Cd30 O31 2.240 . S
Cd30 O38 2.223 . S
Cd30 O40 2.297 . S
Cd30 O41 2.439 . S
O31 Cd30 2.240 . S
O31 C36 1.279 . S
O32 Cd29 2.297 . S
O32 C34 1.247 . S
O33 Cd29 2.439 . S
O33 C34 1.208 . S
C34 O32 1.247 . S
C34 O33 1.208 . S
C35 O40 1.247 . S
C35 O41 1.208 . S
C36 O28 1.315 . S
C36 O31 1.279 . S
C37 O38 1.315 . S
C37 O39 1.279 . S
O38 Cd30 2.223 . S
O38 C37 1.315 . S
O39 Cd29 2.240 . S
O39 C37 1.279 . S
O40 Cd30 2.297 . S
O40 C35 1.247 . S
O41 Cd30 2.439 . S
O41 C35 1.208 . S
O42 Cd43 2.223 . S
O42 C50 1.315 . S
Cd43 O42 2.223 . S
Cd43 O46 2.297 . S
Cd43 O47 2.439 . S
Cd43 O53 2.240 . S
Cd44 O45 2.240 . S
Cd44 O52 2.223 . S
Cd44 O54 2.297 . S
Cd44 O55 2.439 . S
O45 Cd44 2.240 . S
O45 C50 1.279 . S
O46 Cd43 2.297 . S
O46 C48 1.247 . S
O47 Cd43 2.439 . S
O47 C48 1.208 . S
C48 O46 1.247 . S
C48 O47 1.208 . S
C49 O54 1.247 . S
C49 O55 1.208 . S
C50 O42 1.315 . S
C50 O45 1.279 . S
C51 O52 1.315 . S
C51 O53 1.279 . S
O52 Cd44 2.223 . S
O52 C51 1.315 . S
O53 Cd43 2.240 . S
O53 C51 1.279 . S
O54 Cd44 2.297 . S
O54 C49 1.247 . S
O55 Cd44 2.439 . S
O55 C49 1.208 . S
O56 Cd57 2.223 . S
O56 C64 1.315 . S
Cd57 O56 2.223 . S
Cd57 O60 2.297 . S
Cd57 O61 2.439 . S
Cd57 O67 2.240 . S
Cd58 O59 2.240 . S
Cd58 O66 2.223 . S
Cd58 O68 2.297 . S
Cd58 O69 2.439 . S
O59 Cd58 2.240 . S
O59 C64 1.279 . S
O60 Cd57 2.297 . S
O60 C62 1.247 . S
O61 Cd57 2.439 . S
O61 C62 1.208 . S
C62 O60 1.247 . S
C62 O61 1.208 . S
C63 O68 1.247 . S
C63 O69 1.208 . S
C64 O56 1.315 . S
C64 O59 1.279 . S
C65 O66 1.315 . S
C65 O67 1.279 . S
O66 Cd58 2.223 . S
O66 C65 1.315 . S
O67 Cd57 2.240 . S
O67 C65 1.279 . S
O68 Cd58 2.297 . S
O68 C63 1.247 . S
O69 Cd58 2.439 . S
O69 C63 1.208 . S
O70 Cd71 2.223 . S
O70 C78 1.315 . S
Cd71 O70 2.223 . S
Cd71 O74 2.297 . S
Cd71 O75 2.439 . S
Cd71 O81 2.240 . S
Cd72 O73 2.240 . S
Cd72 O80 2.223 . S
Cd72 O82 2.297 . S
Cd72 O83 2.439 . S
O73 Cd72 2.240 . S
O73 C78 1.279 . S
O74 Cd71 2.297 . S
O74 C76 1.247 . S
O75 Cd71 2.439 . S
O75 C76 1.208 . S
C76 O74 1.247 . S
C76 O75 1.208 . S
C77 O82 1.247 . S
C77 O83 1.208 . S
C78 O70 1.315 . S
C78 O73 1.279 . S
C79 O80 1.315 . S
C79 O81 1.279 . S
O80 Cd72 2.223 . S
O80 C79 1.315 . S
O81 Cd71 2.240 . S
O81 C79 1.279 . S
O82 Cd72 2.297 . S
O82 C77 1.247 . S
O83 Cd72 2.439 . S
O83 C77 1.208 . S
O84 Cd85 2.223 . S
O84 C92 1.315 . S
Cd85 O84 2.223 . S
Cd85 O88 2.297 . S
Cd85 O89 2.439 . S
Cd85 O95 2.240 . S
Cd86 O87 2.240 . S
Cd86 O94 2.223 . S
Cd86 O96 2.297 . S
Cd86 O97 2.439 . S
O87 Cd86 2.240 . S
O87 C92 1.279 . S
O88 Cd85 2.297 . S
O88 C90 1.247 . S
O89 Cd85 2.439 . S
O89 C90 1.208 . S
C90 O88 1.247 . S
C90 O89 1.208 . S
C91 O96 1.247 . S
C91 O97 1.208 . S
C92 O84 1.315 . S
C92 O87 1.279 . S
C93 O94 1.315 . S
C93 O95 1.279 . S
O94 Cd86 2.223 . S
O94 C93 1.315 . S
O95 Cd85 2.240 . S
O95 C93 1.279 . S
O96 Cd86 2.297 . S
O96 C91 1.247 . S
O97 Cd86 2.439 . S
O97 C91 1.208 . S
O98 Cd99 2.223 . S
O98 C106 1.315 . S
Cd99 O98 2.223 . S
Cd99 O102 2.297 . S
Cd99 O103 2.439 . S
Cd99 O109 2.240 . S
Cd100 O101 2.240 . S
Cd100 O108 2.223 . S
Cd100 O110 2.297 . S
Cd100 O111 2.439 . S
O101 Cd100 2.240 . S
O101 C106 1.279 . S
O102 Cd99 2.297 . S
O102 C104 1.247 . S
O103 Cd99 2.439 . S
O103 C104 1.208 . S
C104 O102 1.247 . S
C104 O103 1.208 . S
C105 O110 1.247 . S
C105 O111 1.208 . S
C106 O98 1.315 . S
C106 O101 1.279 . S
C107 O108 1.315 . S
C107 O109 1.279 . S
O108 Cd100 2.223 . S
O108 C107 1.315 . S
O109 Cd99 2.240 . S
O109 C107 1.279 . S
O110 Cd100 2.297 . S
O110 C105 1.247 . S
O111 Cd100 2.439 . S
O111 C105 1.208 . S
O112 Cd113 2.223 . S
O112 C120 1.315 . S
Cd113 O112 2.223 . S
Cd113 O116 2.297 . S
Cd113 O117 2.439 . S
Cd113 O123 2.240 . S
Cd114 O115 2.240 . S
Cd114 O122 2.223 . S
Cd114 O124 2.297 . S
Cd114 O125 2.439 . S
O115 Cd114 2.240 . S
O115 C120 1.279 . S
O116 Cd113 2.297 . S
O116 C118 1.247 . S
O117 Cd113 2.439 . S
O117 C118 1.208 . S
C118 O116 1.247 . S
C118 O117 1.208 . S
C119 O124 1.247 . S
C119 O125 1.208 . S
C120 O112 1.315 . S
C120 O115 1.279 . S
C121 O122 1.315 . S
C121 O123 1.279 . S
O122 Cd114 2.223 . S
O122 C121 1.315 . S
O123 Cd113 2.240 . S
O123 C121 1.279 . S
O124 Cd114 2.297 . S
O124 C119 1.247 . S
O125 Cd114 2.439 . S
O125 C119 1.208 . S
O126 Cd127 2.223 . S
O126 C134 1.315 . S
Cd127 O126 2.223 . S
Cd127 O130 2.297 . S
Cd127 O131 2.439 . S
Cd127 O137 2.240 . S
Cd128 O129 2.240 . S
Cd128 O136 2.223 . S
Cd128 O138 2.297 . S
Cd128 O139 2.439 . S
O129 Cd128 2.240 . S
O129 C134 1.279 . S
O130 Cd127 2.297 . S
O130 C132 1.247 . S
O131 Cd127 2.439 . S
O131 C132 1.208 . S
C132 O130 1.247 . S
C132 O131 1.208 . S
C133 O138 1.247 . S
C133 O139 1.208 . S
C134 O126 1.315 . S
C134 O129 1.279 . S
C135 O136 1.315 . S
C135 O137 1.279 . S
O136 Cd128 2.223 . S
O136 C135 1.315 . S
O137 Cd127 2.240 . S
O137 C135 1.279 . S
O138 Cd128 2.297 . S
O138 C133 1.247 . S
O139 Cd128 2.439 . S
O139 C133 1.208 . S
O140 Cd141 2.223 . S
O140 C148 1.315 . S
Cd141 O140 2.223 . S
Cd141 O144 2.297 . S
Cd141 O145 2.439 . S
Cd141 O151 2.240 . S
Cd142 O143 2.240 . S
Cd142 O150 2.223 . S
Cd142 O152 2.297 . S
Cd142 O153 2.439 . S
O143 Cd142 2.240 . S
O143 C148 1.279 . S
O144 Cd141 2.297 . S
O144 C146 1.247 . S
O145 Cd141 2.439 . S
O145 C146 1.208 . S
C146 O144 1.247 . S
C146 O145 1.208 . S
C147 O152 1.247 . S
C147 O153 1.208 . S
C148 O140 1.315 . S
C148 O143 1.279 . S
C149 O150 1.315 . S
C149 O151 1.279 . S
O150 Cd142 2.223 . S
O150 C149 1.315 . S
O151 Cd141 2.240 . S
O151 C149 1.279 . S
O152 Cd142 2.297 . S
O152 C147 1.247 . S
O153 Cd142 2.439 . S
O153 C147 1.208 . S
O154 Cd155 2.223 . S
O154 C162 1.315 . S
Cd155 O154 2.223 . S
Cd155 O158 2.297 . S
Cd155 O159 2.439 . S
Cd155 O165 2.240 . S
Cd156 O157 2.240 . S
Cd156 O164 2.223 . S
Cd156 O166 2.297 . S
Cd156 O167 2.439 . S
O157 Cd156 2.240 . S
O157 C162 1.279 . S
O158 Cd155 2.297 . S
O158 C160 1.247 . S
O159 Cd155 2.439 . S
O159 C160 1.208 . S
C160 O158 1.247 . S
C160 O159 1.208 . S
C161 O166 1.247 . S
C161 O167 1.208 . S
C162 O154 1.315 . S
C162 O157 1.279 . S
C163 O164 1.315 . S
C163 O165 1.279 . S
O164 Cd156 2.223 . S
O164 C163 1.315 . S
O165 Cd155 2.240 . S
O165 C163 1.279 . S
O166 Cd156 2.297 . S
O166 C161 1.247 . S
O167 Cd156 2.439 . S
O167 C161 1.208 . S
O168 Cd169 2.223 . S
O168 C176 1.315 . S
Cd169 O168 2.223 . S
Cd169 O172 2.297 . S
Cd169 O173 2.439 . S
Cd169 O179 2.240 . S
Cd170 O171 2.240 . S
Cd170 O178 2.223 . S
Cd170 O180 2.297 . S
Cd170 O181 2.439 . S
O171 Cd170 2.240 . S
O171 C176 1.279 . S
O172 Cd169 2.297 . S
O172 C174 1.247 . S
O173 Cd169 2.439 . S
O173 C174 1.208 . S
C174 O172 1.247 . S
C174 O173 1.208 . S
C175 O180 1.247 . S
C175 O181 1.208 . S
C176 O168 1.315 . S
C176 O171 1.279 . S
C177 O178 1.315 . S
C177 O179 1.279 . S
O178 Cd170 2.223 . S
O178 C177 1.315 . S
O179 Cd169 2.240 . S
O179 C177 1.279 . S
O180 Cd170 2.297 . S
O180 C175 1.247 . S
O181 Cd170 2.439 . S
O181 C175 1.208 . S
O182 Cd183 2.223 . S
O182 C190 1.315 . S
Cd183 O182 2.223 . S
Cd183 O186 2.297 . S
Cd183 O187 2.439 . S
Cd183 O193 2.240 . S
Cd184 O185 2.240 . S
Cd184 O192 2.223 . S
Cd184 O194 2.297 . S
Cd184 O195 2.439 . S
O185 Cd184 2.240 . S
O185 C190 1.279 . S
O186 Cd183 2.297 . S
O186 C188 1.247 . S
O187 Cd183 2.439 . S
O187 C188 1.208 . S
C188 O186 1.247 . S
C188 O187 1.208 . S
C189 O194 1.247 . S
C189 O195 1.208 . S
C190 O182 1.315 . S
C190 O185 1.279 . S
C191 O192 1.315 . S
C191 O193 1.279 . S
O192 Cd184 2.223 . S
O192 C191 1.315 . S
O193 Cd183 2.240 . S
O193 C191 1.279 . S
O194 Cd184 2.297 . S
O194 C189 1.247 . S
O195 Cd184 2.439 . S
O195 C189 1.208 . S
O196 Cd197 2.223 . S
O196 C204 1.315 . S
Cd197 O196 2.223 . S
Cd197 O200 2.297 . S
Cd197 O201 2.439 . S
Cd197 O207 2.240 . S
Cd198 O199 2.240 . S
Cd198 O206 2.223 . S
Cd198 O208 2.297 . S
Cd198 O209 2.439 . S
O199 Cd198 2.240 . S
O199 C204 1.279 . S
O200 Cd197 2.297 . S
O200 C202 1.247 . S
O201 Cd197 2.439 . S
O201 C202 1.208 . S
C202 O200 1.247 . S
C202 O201 1.208 . S
C203 O208 1.247 . S
C203 O209 1.208 . S
C204 O196 1.315 . S
C204 O199 1.279 . S
C205 O206 1.315 . S
C205 O207 1.279 . S
O206 Cd198 2.223 . S
O206 C205 1.315 . S
O207 Cd197 2.240 . S
O207 C205 1.279 . S
O208 Cd198 2.297 . S
O208 C203 1.247 . S
O209 Cd198 2.439 . S
O209 C203 1.208 . S
O210 Cd211 2.223 . S
O210 C218 1.315 . S
Cd211 O210 2.223 . S
Cd211 O214 2.297 . S
Cd211 O215 2.439 . S
Cd211 O221 2.240 . S
Cd212 O213 2.240 . S
Cd212 O220 2.223 . S
Cd212 O222 2.297 . S
Cd212 O223 2.439 . S
O213 Cd212 2.240 . S
O213 C218 1.279 . S
O214 Cd211 2.297 . S
O214 C216 1.247 . S
O215 Cd211 2.439 . S
O215 C216 1.208 . S
C216 O214 1.247 . S
C216 O215 1.208 . S
C217 O222 1.247 . S
C217 O223 1.208 . S
C218 O210 1.315 . S
C218 O213 1.279 . S
C219 O220 1.315 . S
C219 O221 1.279 . S
O220 Cd212 2.223 . S
O220 C219 1.315 . S
O221 Cd211 2.240 . S
O221 C219 1.279 . S
O222 Cd212 2.297 . S
O222 C217 1.247 . S
O223 Cd212 2.439 . S
O223 C217 1.208 . S
O224 Cd225 2.223 . S
O224 C232 1.315 . S
Cd225 O224 2.223 . S
Cd225 O228 2.297 . S
Cd225 O229 2.439 . S
Cd225 O235 2.240 . S
Cd226 O227 2.240 . S
Cd226 O234 2.223 . S
Cd226 O236 2.297 . S
Cd226 O237 2.439 . S
O227 Cd226 2.240 . S
O227 C232 1.279 . S
O228 Cd225 2.297 . S
O228 C230 1.247 . S
O229 Cd225 2.439 . S
O229 C230 1.208 . S
C230 O228 1.247 . S
C230 O229 1.208 . S
C231 O236 1.247 . S
C231 O237 1.208 . S
C232 O224 1.315 . S
C232 O227 1.279 . S
C233 O234 1.315 . S
C233 O235 1.279 . S
O234 Cd226 2.223 . S
O234 C233 1.315 . S
O235 Cd225 2.240 . S
O235 C233 1.279 . S
O236 Cd226 2.297 . S
O236 C231 1.247 . S
O237 Cd226 2.439 . S
O237 C231 1.208 . S
O238 Cd239 2.223 . S
O238 C246 1.315 . S
Cd239 O238 2.223 . S
Cd239 O242 2.297 . S
Cd239 O243 2.439 . S
Cd239 O249 2.240 . S
Cd240 O241 2.240 . S
Cd240 O248 2.223 . S
Cd240 O250 2.297 . S
Cd240 O251 2.439 . S
O241 Cd240 2.240 . S
O241 C246 1.279 . S
O242 Cd239 2.297 . S
O242 C244 1.247 . S
O243 Cd239 2.439 . S
O243 C244 1.208 . S
C244 O242 1.247 . S
C244 O243 1.208 . S
C245 O250 1.247 . S
C245 O251 1.208 . S
C246 O238 1.315 . S
C246 O241 1.279 . S
C247 O248 1.315 . S
C247 O249 1.279 . S
O248 Cd240 2.223 . S
O248 C247 1.315 . S
O249 Cd239 2.240 . S
O249 C247 1.279 . S
O250 Cd240 2.297 . S
O250 C245 1.247 . S
O251 Cd240 2.439 . S
O251 C245 1.208 . S
O252 Cd253 2.223 . S
O252 C260 1.315 . S
Cd253 O252 2.223 . S
Cd253 O256 2.297 . S
Cd253 O257 2.439 . S
Cd253 O263 2.240 . S
Cd254 O255 2.240 . S
Cd254 O262 2.223 . S
Cd254 O264 2.297 . S
Cd254 O265 2.439 . S
O255 Cd254 2.240 . S
O255 C260 1.279 . S
O256 Cd253 2.297 . S
O256 C258 1.247 . S
O257 Cd253 2.439 . S
O257 C258 1.208 . S
C258 O256 1.247 . S
C258 O257 1.208 . S
C259 O264 1.247 . S
C259 O265 1.208 . S
C260 O252 1.315 . S
C260 O255 1.279 . S
C261 O262 1.315 . S
C261 O263 1.279 . S
O262 Cd254 2.223 . S
O262 C261 1.315 . S
O263 Cd253 2.240 . S
O263 C261 1.279 . S
O264 Cd254 2.297 . S
O264 C259 1.247 . S
O265 Cd254 2.439 . S
O265 C259 1.208 . S
O266 Cd267 2.223 . S
O266 C274 1.315 . S
Cd267 O266 2.223 . S
Cd267 O270 2.297 . S
Cd267 O271 2.439 . S
Cd267 O277 2.240 . S
Cd268 O269 2.240 . S
Cd268 O276 2.223 . S
Cd268 O278 2.297 . S
Cd268 O279 2.439 . S
O269 Cd268 2.240 . S
O269 C274 1.279 . S
O270 Cd267 2.297 . S
O270 C272 1.247 . S
O271 Cd267 2.439 . S
O271 C272 1.208 . S
C272 O270 1.247 . S
C272 O271 1.208 . S
C273 O278 1.247 . S
C273 O279 1.208 . S
C274 O266 1.315 . S
C274 O269 1.279 . S
C275 O276 1.315 . S
C275 O277 1.279 . S
O276 Cd268 2.223 . S
O276 C275 1.315 . S
O277 Cd267 2.240 . S
O277 C275 1.279 . S
O278 Cd268 2.297 . S
O278 C273 1.247 . S
O279 Cd268 2.439 . S
O279 C273 1.208 . S
O280 Cd281 2.223 . S
O280 C288 1.315 . S
Cd281 O280 2.223 . S
Cd281 O284 2.297 . S
Cd281 O285 2.439 . S
Cd281 O291 2.240 . S
Cd282 O283 2.240 . S
Cd282 O290 2.223 . S
Cd282 O292 2.297 . S
Cd282 O293 2.439 . S
O283 Cd282 2.240 . S
O283 C288 1.279 . S
O284 Cd281 2.297 . S
O284 C286 1.247 . S
O285 Cd281 2.439 . S
O285 C286 1.208 . S
C286 O284 1.247 . S
C286 O285 1.208 . S
C287 O292 1.247 . S
C287 O293 1.208 . S
C288 O280 1.315 . S
C288 O283 1.279 . S
C289 O290 1.315 . S
C289 O291 1.279 . S
O290 Cd282 2.223 . S
O290 C289 1.315 . S
O291 Cd281 2.240 . S
O291 C289 1.279 . S
O292 Cd282 2.297 . S
O292 C287 1.247 . S
O293 Cd282 2.439 . S
O293 C287 1.208 . S
O294 Cd295 2.223 . S
O294 C302 1.315 . S
Cd295 O294 2.223 . S
Cd295 O298 2.297 . S
Cd295 O299 2.439 . S
Cd295 O305 2.240 . S
Cd296 O297 2.240 . S
Cd296 O304 2.223 . S
Cd296 O306 2.297 . S
Cd296 O307 2.439 . S
O297 Cd296 2.240 . S
O297 C302 1.279 . S
O298 Cd295 2.297 . S
O298 C300 1.247 . S
O299 Cd295 2.439 . S
O299 C300 1.208 . S
C300 O298 1.247 . S
C300 O299 1.208 . S
C301 O306 1.247 . S
C301 O307 1.208 . S
C302 O294 1.315 . S
C302 O297 1.279 . S
C303 O304 1.315 . S
C303 O305 1.279 . S
O304 Cd296 2.223 . S
O304 C303 1.315 . S
O305 Cd295 2.240 . S
O305 C303 1.279 . S
O306 Cd296 2.297 . S
O306 C301 1.247 . S
O307 Cd296 2.439 . S
O307 C301 1.208 . S
O308 Cd309 2.223 . S
O308 C316 1.315 . S
Cd309 O308 2.223 . S
Cd309 O312 2.297 . S
Cd309 O313 2.439 . S
Cd309 O319 2.240 . S
Cd310 O311 2.240 . S
Cd310 O318 2.223 . S
Cd310 O320 2.297 . S
Cd310 O321 2.439 . S
O311 Cd310 2.240 . S
O311 C316 1.279 . S
O312 Cd309 2.297 . S
O312 C314 1.247 . S
O313 Cd309 2.439 . S
O313 C314 1.208 . S
C314 O312 1.247 . S
C314 O313 1.208 . S
C315 O320 1.247 . S
C315 O321 1.208 . S
C316 O308 1.315 . S
C316 O311 1.279 . S
C317 O318 1.315 . S
C317 O319 1.279 . S
O318 Cd310 2.223 . S
O318 C317 1.315 . S
O319 Cd309 2.240 . S
O319 C317 1.279 . S
O320 Cd310 2.297 . S
O320 C315 1.247 . S
O321 Cd310 2.439 . S
O321 C315 1.208 . S
O322 Cd323 2.223 . S
O322 C330 1.315 . S
Cd323 O322 2.223 . S
Cd323 O326 2.297 . S
Cd323 O327 2.439 . S
Cd323 O333 2.240 . S
Cd324 O325 2.240 . S
Cd324 O332 2.223 . S
Cd324 O334 2.297 . S
Cd324 O335 2.439 . S
O325 Cd324 2.240 . S
O325 C330 1.279 . S
O326 Cd323 2.297 . S
O326 C328 1.247 . S
O327 Cd323 2.439 . S
O327 C328 1.208 . S
C328 O326 1.247 . S
C328 O327 1.208 . S
C329 O334 1.247 . S
C329 O335 1.208 . S
C330 O322 1.315 . S
C330 O325 1.279 . S
C331 O332 1.315 . S
C331 O333 1.279 . S
O332 Cd324 2.223 . S
O332 C331 1.315 . S
O333 Cd323 2.240 . S
O333 C331 1.279 . S
O334 Cd324 2.297 . S
O334 C329 1.247 . S
O335 Cd324 2.439 . S
O335 C329 1.208 . S
O336 Cd337 2.223 . S
O336 C344 1.315 . S
Cd337 O336 2.223 . S
Cd337 O340 2.297 . S
Cd337 O341 2.439 . S
Cd337 O347 2.240 . S
Cd338 O339 2.240 . S
Cd338 O346 2.223 . S
Cd338 O348 2.297 . S
Cd338 O349 2.439 . S
O339 Cd338 2.240 . S
O339 C344 1.279 . S
O340 Cd337 2.297 . S
O340 C342 1.247 . S
O341 Cd337 2.439 . S
O341 C342 1.208 . S
C342 O340 1.247 . S
C342 O341 1.208 . S
C343 O348 1.247 . S
C343 O349 1.208 . S
C344 O336 1.315 . S
C344 O339 1.279 . S
C345 O346 1.315 . S
C345 O347 1.279 . S
O346 Cd338 2.223 . S
O346 C345 1.315 . S
O347 Cd337 2.240 . S
O347 C345 1.279 . S
O348 Cd338 2.297 . S
O348 C343 1.247 . S
O349 Cd338 2.439 . S
O349 C343 1.208 . S
O350 Cd351 2.223 . S
O350 C358 1.315 . S
Cd351 O350 2.223 . S
Cd351 O354 2.297 . S
Cd351 O355 2.439 . S
Cd351 O361 2.240 . S
Cd352 O353 2.240 . S
Cd352 O360 2.223 . S
Cd352 O362 2.297 . S
Cd352 O363 2.439 . S
O353 Cd352 2.240 . S
O353 C358 1.279 . S
O354 Cd351 2.297 . S
O354 C356 1.247 . S
O355 Cd351 2.439 . S
O355 C356 1.208 . S
C356 O354 1.247 . S
C356 O355 1.208 . S
C357 O362 1.247 . S
C357 O363 1.208 . S
C358 O350 1.315 . S
C358 O353 1.279 . S
C359 O360 1.315 . S
C359 O361 1.279 . S
O360 Cd352 2.223 . S
O360 C359 1.315 . S
O361 Cd351 2.240 . S
O361 C359 1.279 . S
O362 Cd352 2.297 . S
O362 C357 1.247 . S
O363 Cd352 2.439 . S
O363 C357 1.208 . S
O364 Cd365 2.223 . S
O364 C372 1.315 . S
Cd365 O364 2.223 . S
Cd365 O368 2.297 . S
Cd365 O369 2.439 . S
Cd365 O375 2.240 . S
Cd366 O367 2.240 . S
Cd366 O374 2.223 . S
Cd366 O376 2.297 . S
Cd366 O377 2.439 . S
O367 Cd366 2.240 . S
O367 C372 1.279 . S
O368 Cd365 2.297 . S
O368 C370 1.247 . S
O369 Cd365 2.439 . S
O369 C370 1.208 . S
C370 O368 1.247 . S
C370 O369 1.208 . S
C371 O376 1.247 . S
C371 O377 1.208 . S
C372 O364 1.315 . S
C372 O367 1.279 . S
C373 O374 1.315 . S
C373 O375 1.279 . S
O374 Cd366 2.223 . S
O374 C373 1.315 . S
O375 Cd365 2.240 . S
O375 C373 1.279 . S
O376 Cd366 2.297 . S
O376 C371 1.247 . S
O377 Cd366 2.439 . S
O377 C371 1.208 . S
O378 Cd379 2.223 . S
O378 C386 1.315 . S
Cd379 O378 2.223 . S
Cd379 O382 2.297 . S
Cd379 O383 2.439 . S
Cd379 O389 2.240 . S
Cd380 O381 2.240 . S
Cd380 O388 2.223 . S
Cd380 O390 2.297 . S
Cd380 O391 2.439 . S
O381 Cd380 2.240 . S
O381 C386 1.279 . S
O382 Cd379 2.297 . S
O382 C384 1.247 . S
O383 Cd379 2.439 . S
O383 C384 1.208 . S
C384 O382 1.247 . S
C384 O383 1.208 . S
C385 O390 1.247 . S
C385 O391 1.208 . S
C386 O378 1.315 . S
C386 O381 1.279 . S
C387 O388 1.315 . S
C387 O389 1.279 . S
O388 Cd380 2.223 . S
O388 C387 1.315 . S
O389 Cd379 2.240 . S
O389 C387 1.279 . S
O390 Cd380 2.297 . S
O390 C385 1.247 . S
O391 Cd380 2.439 . S
O391 C385 1.208 . S
O392 Cd393 2.223 . S
O392 C400 1.315 . S
Cd393 O392 2.223 . S
Cd393 O396 2.297 . S
Cd393 O397 2.439 . S
Cd393 O403 2.240 . S
Cd394 O395 2.240 . S
Cd394 O402 2.223 . S
Cd394 O404 2.297 . S
Cd394 O405 2.439 . S
O395 Cd394 2.240 . S
O395 C400 1.279 . S
O396 Cd393 2.297 . S
O396 C398 1.247 . S
O397 Cd393 2.439 . S
O397 C398 1.208 . S
C398 O396 1.247 . S
C398 O397 1.208 . S
C399 O404 1.247 . S
C399 O405 1.208 . S
C400 O392 1.315 . S
C400 O395 1.279 . S
C401 O402 1.315 . S
C401 O403 1.279 . S
O402 Cd394 2.223 . S
O402 C401 1.315 . S
O403 Cd393 2.240 . S
O403 C401 1.279 . S
O404 Cd394 2.297 . S
O404 C399 1.247 . S
O405 Cd394 2.439 . S
O405 C399 1.208 . S
O406 Cd407 2.223 . S
O406 C414 1.315 . S
Cd407 O406 2.223 . S
Cd407 O410 2.297 . S
Cd407 O411 2.439 . S
Cd407 O417 2.240 . S
Cd408 O409 2.240 . S
Cd408 O416 2.223 . S
Cd408 O418 2.297 . S
Cd408 O419 2.439 . S
O409 Cd408 2.240 . S
O409 C414 1.279 . S
O410 Cd407 2.297 . S
O410 C412 1.247 . S
O411 Cd407 2.439 . S
O411 C412 1.208 . S
C412 O410 1.247 . S
C412 O411 1.208 . S
C413 O418 1.247 . S
C413 O419 1.208 . S
C414 O406 1.315 . S
C414 O409 1.279 . S
C415 O416 1.315 . S
C415 O417 1.279 . S
O416 Cd408 2.223 . S
O416 C415 1.315 . S
O417 Cd407 2.240 . S
O417 C415 1.279 . S
O418 Cd408 2.297 . S
O418 C413 1.247 . S
O419 Cd408 2.439 . S
O419 C413 1.208 . S
O420 Cd421 2.223 . S
O420 C428 1.315 . S
Cd421 O420 2.223 . S
Cd421 O424 2.297 . S
Cd421 O425 2.439 . S
Cd421 O431 2.240 . S
Cd422 O423 2.240 . S
Cd422 O430 2.223 . S
Cd422 O432 2.297 . S
Cd422 O433 2.439 . S
O423 Cd422 2.240 . S
O423 C428 1.279 . S
O424 Cd421 2.297 . S
O424 C426 1.247 . S
O425 Cd421 2.439 . S
O425 C426 1.208 . S
C426 O424 1.247 . S
C426 O425 1.208 . S
C427 O432 1.247 . S
C427 O433 1.208 . S
C428 O420 1.315 . S
C428 O423 1.279 . S
C429 O430 1.315 . S
C429 O431 1.279 . S
O430 Cd422 2.223 . S
O430 C429 1.315 . S
O431 Cd421 2.240 . S
O431 C429 1.279 . S
O432 Cd422 2.297 . S
O432 C427 1.247 . S
O433 Cd422 2.439 . S
O433 C427 1.208 . S
O434 Cd435 2.223 . S
O434 C442 1.315 . S
Cd435 O434 2.223 . S
Cd435 O438 2.297 . S
Cd435 O439 2.439 . S
Cd435 O445 2.240 . S
Cd436 O437 2.240 . S
Cd436 O444 2.223 . S
Cd436 O446 2.297 . S
Cd436 O447 2.439 . S
O437 Cd436 2.240 . S
O437 C442 1.279 . S
O438 Cd435 2.297 . S
O438 C440 1.247 . S
O439 Cd435 2.439 . S
O439 C440 1.208 . S
C440 O438 1.247 . S
C440 O439 1.208 . S
C441 O446 1.247 . S
C441 O447 1.208 . S
C442 O434 1.315 . S
C442 O437 1.279 . S
C443 O444 1.315 . S
C443 O445 1.279 . S
O444 Cd436 2.223 . S
O444 C443 1.315 . S
O445 Cd435 2.240 . S
O445 C443 1.279 . S
O446 Cd436 2.297 . S
O446 C441 1.247 . S
O447 Cd436 2.439 . S
O447 C441 1.208 . S
H448 C466 0.951 . S
H449 C468 0.951 . S
H450 C470 0.950 . S
H451 C471 0.950 1_655 S
H452 C473 0.950 . S
H453 C476 0.950 1_655 S
H454 C477 0.950 . S
H455 C479 0.950 . S
H456 C480 0.950 1_565 S
H457 C481 0.951 . S
H458 C483 0.921 1_554 S
H459 C485 0.950 . S
H460 C486 0.950 . S
H461 C488 0.950 . S
H462 C491 0.950 . S
H463 C492 0.950 . S
H464 C494 0.950 . S
H465 C495 0.950 . S
C466 H448 0.951 . S
C466 C467 1.366 . S
C466 C468 1.388 . S
C467 C466 1.366 . S
C467 C471 1.385 . S
C468 H449 0.951 . S
C468 C466 1.388 . S
C468 C469 1.366 . S
C469 C468 1.366 . S
C469 C470 1.414 1_455 S
C469 C472 1.499 1_445 S
C470 H450 0.950 . S
C470 C469 1.414 1_655 S
C470 C471 1.374 1_655 S
C471 H451 0.950 1_455 S
C471 C467 1.385 . S
C471 C470 1.374 1_455 S
C472 C469 1.499 1_665 S
C472 C473 1.373 . S
C472 C474 1.389 . S
C473 H452 0.950 . S
C473 C472 1.373 . S
C473 C489 1.377 . S
C474 C472 1.389 . S
C474 C475 1.524 1_665 S
C474 C488 1.377 1_554 S
C475 C474 1.524 1_445 S
C475 C476 1.397 . S
C475 C480 1.363 1_554 S
C476 H453 0.950 1_455 S
C476 C475 1.397 . S
C476 C477 1.334 1_554 S
C477 H454 0.950 . S
C477 C476 1.334 1_556 S
C477 C478 1.287 . S
C478 C477 1.287 . S
C478 C479 1.524 . S
C478 H497 0.913 . S
C479 H455 0.950 . S
C479 C478 1.524 . S
C479 C480 1.415 . S
C480 H456 0.950 1_545 S
C480 C475 1.363 1_556 S
C480 C479 1.415 . S
C481 H457 0.951 . S
C481 C482 1.366 . S
C481 C483 1.388 . S
C482 C481 1.366 . S
C482 C486 1.385 . S
C483 H458 0.921 1_556 S
C483 C481 1.388 . S
C483 C484 1.366 . S
C484 C483 1.366 . S
C484 C485 1.414 . S
C484 C487 1.499 1_556 S
C485 H459 0.950 . S
C485 C484 1.414 . S
C485 C486 1.374 . S
C486 H460 0.950 . S
C486 C482 1.385 . S
C486 C485 1.374 . S
C487 C484 1.499 1_554 S
C487 C488 1.373 1_554 S
C487 C489 1.389 . S
C488 H461 0.950 . S
C488 C474 1.377 1_556 S
C488 C487 1.373 1_556 S
C489 C473 1.377 . S
C489 C487 1.389 . S
C489 C490 1.524 . S
C490 C489 1.524 . S
C490 C491 1.397 . S
C490 C495 1.363 . S
C491 H462 0.950 . S
C491 C490 1.397 . S
C491 C492 1.334 . S
C492 H463 0.950 . S
C492 C491 1.334 . S
C492 C493 1.287 . S
C493 C492 1.287 . S
C493 C494 1.524 . S
C493 H496 0.999 . S
C494 H464 0.950 . S
C494 C493 1.524 . S
C494 C495 1.415 . S
C495 H465 0.950 . S
C495 C490 1.363 . S
C495 C494 1.415 . S
H496 C493 0.999 . S
H497 C478 0.913 . S
H498 C516 0.951 . S
H499 C518 0.951 . S
H500 C520 0.950 . S
H501 C521 0.950 . S
H502 C523 0.950 . S
H503 C526 0.950 . S
H504 C527 0.950 . S
H505 C529 0.950 . S
H506 C530 0.950 . S
H507 C531 0.951 . S
H508 C533 0.951 . S
H509 C535 0.950 . S
H510 C536 0.950 . S
H511 C538 0.950 . S
H512 C541 0.950 . S
H513 C542 0.950 . S
H514 C544 0.950 . S
H515 C545 0.950 . S
C516 H498 0.951 . S
C516 C517 1.366 . S
C516 C518 1.388 . S
C517 C516 1.366 . S
C517 C521 1.385 . S
C518 H499 0.951 . S
C518 C516 1.388 . S
C518 C519 1.366 . S
C519 C518 1.366 . S
C519 C520 1.414 . S
C519 C522 1.499 . S
C520 H500 0.950 . S
C520 C519 1.414 . S
C520 C521 1.374 . S
C521 H501 0.950 . S
C521 C517 1.385 . S
C521 C520 1.374 . S
C522 C519 1.499 . S
C522 C523 1.373 . S
C522 C524 1.389 . S
C523 H502 0.950 . S
C523 C522 1.373 . S
C523 C539 1.377 . S
C524 C522 1.389 . S
C524 C525 1.524 . S
C524 C538 1.377 . S
C525 C524 1.524 . S
C525 C526 1.397 . S
C525 C530 1.363 . S
C526 H503 0.950 . S
C526 C525 1.397 . S
C526 C527 1.334 . S
C527 H504 0.950 . S
C527 C526 1.334 . S
C527 C528 1.287 . S
C528 C527 1.287 . S
C528 C529 1.524 . S
C528 H547 0.913 . S
C529 H505 0.950 . S
C529 C528 1.524 . S
C529 C530 1.415 . S
C530 H506 0.950 . S
C530 C525 1.363 . S
C530 C529 1.415 . S
C531 H507 0.951 . S
C531 C532 1.366 . S
C531 C533 1.388 . S
C532 C531 1.366 . S
C532 C536 1.385 . S
C533 H508 0.951 . S
C533 C531 1.388 . S
C533 C534 1.366 . S
C534 C533 1.366 . S
C534 C535 1.414 . S
C534 C537 1.499 . S
C535 H509 0.950 . S
C535 C534 1.414 . S
C535 C536 1.374 . S
C536 H510 0.950 . S
C536 C532 1.385 . S
C536 C535 1.374 . S
C537 C534 1.499 . S
C537 C538 1.373 . S
C537 C539 1.389 . S
C538 H511 0.950 . S
C538 C524 1.377 . S
C538 C537 1.373 . S
C539 C523 1.377 . S
C539 C537 1.389 . S
C539 C540 1.524 . S
C540 C539 1.524 . S
C540 C541 1.397 . S
C540 C545 1.363 . S
C541 H512 0.950 . S
C541 C540 1.397 . S
C541 C542 1.334 . S
C542 H513 0.950 . S
C542 C541 1.334 . S
C542 C543 1.287 . S
C543 C542 1.287 . S
C543 C544 1.524 . S
C543 H546 0.999 . S
C544 H514 0.950 . S
C544 C543 1.524 . S
C544 C545 1.415 . S
C545 H515 0.950 . S
C545 C540 1.363 . S
C545 C544 1.415 . S
H546 C543 0.999 . S
H547 C528 0.913 . S
H548 C566 0.951 . S
H549 C568 0.951 . S
H550 C570 0.950 1_545 S
H551 C571 0.950 . S
H552 C573 0.950 . S
H553 C576 0.950 . S
H554 C577 0.953 . S
H555 C579 0.950 . S
H556 C580 0.950 . S
H557 C581 0.951 . S
H558 C583 0.951 . S
H559 C585 0.950 . S
H560 C586 0.950 . S
H561 C588 0.950 . S
H562 C591 0.950 . S
H563 C592 0.950 . S
H564 C594 0.950 . S
H565 C595 0.950 . S
C566 H548 0.951 . S
C566 C567 1.366 . S
C566 C568 1.388 . S
C567 C566 1.366 . S
C567 C571 1.385 . S
C568 H549 0.951 . S
C568 C566 1.388 . S
C568 C569 1.366 . S
C569 C568 1.366 . S
C569 C570 1.414 . S
C569 C572 1.499 1_565 S
C570 H550 0.950 1_565 S
C570 C569 1.414 . S
C570 C571 1.374 . S
C571 H551 0.950 . S
C571 C567 1.385 . S
C571 C570 1.374 . S
C572 C569 1.499 1_545 S
C572 C573 1.373 . S
C572 C574 1.389 . S
C573 H552 0.950 . S
C573 C572 1.373 . S
C573 C589 1.377 . S
C574 C572 1.389 . S
C574 C575 1.524 . S
C574 C588 1.377 . S
C575 C574 1.524 . S
C575 C576 1.397 . S
C575 C580 1.363 1_545 S
C576 H553 0.950 . S
C576 C575 1.397 . S
C576 C577 1.340 . S
C577 H554 0.953 . S
C577 C576 1.340 . S
C577 C578 1.278 1_545 S
C578 C577 1.278 1_565 S
C578 C579 1.524 . S
C578 H597 0.913 . S
C579 H555 0.950 . S
C579 C578 1.524 . S
C579 C580 1.415 . S
C580 H556 0.950 . S
C580 C575 1.363 1_565 S
C580 C579 1.415 . S
C581 H557 0.951 . S
C581 C582 1.366 . S
C581 C583 1.388 . S
C582 C581 1.366 . S
C582 C586 1.385 . S
C583 H558 0.951 . S
C583 C581 1.388 . S
C583 C584 1.366 . S
C584 C583 1.366 . S
C584 C585 1.414 . S
C584 C587 1.499 . S
C585 H559 0.950 . S
C585 C584 1.414 . S
C585 C586 1.374 . S
C586 H560 0.950 . S
C586 C582 1.385 . S
C586 C585 1.374 . S
C587 C584 1.499 . S
C587 C588 1.373 . S
C587 C589 1.389 . S
C588 H561 0.950 . S
C588 C574 1.377 . S
C588 C587 1.373 . S
C589 C573 1.377 . S
C589 C587 1.389 . S
C589 C590 1.524 . S
C590 C589 1.524 . S
C590 C591 1.397 . S
C590 C595 1.363 . S
C591 H562 0.950 . S
C591 C590 1.397 . S
C591 C592 1.334 . S
C592 H563 0.950 . S
C592 C591 1.334 . S
C592 C593 1.287 . S
C593 C592 1.287 . S
C593 C594 1.524 . S
C593 H596 0.999 . S
C594 H564 0.950 . S
C594 C593 1.524 . S
C594 C595 1.415 . S
C595 H565 0.950 . S
C595 C590 1.363 . S
C595 C594 1.415 . S
H596 C593 0.999 . S
H597 C578 0.913 . S
H598 C616 0.951 . S
H599 C618 0.951 . S
H600 C620 0.950 . S
H601 C621 0.950 . S
H602 C623 0.950 . S
H603 C626 0.950 . S
H604 C627 0.950 . S
H605 C629 0.950 . S
H606 C630 0.950 . S
H607 C631 0.951 . S
H608 C633 0.951 . S
H609 C635 0.950 . S
H610 C636 0.950 . S
H611 C638 0.950 . S
H612 C641 0.950 . S
H613 C642 0.950 . S
H614 C644 0.950 . S
H615 C645 0.950 . S
C616 H598 0.951 . S
C616 C617 1.366 . S
C616 C618 1.388 . S
C617 C616 1.366 . S
C617 C621 1.385 . S
C618 H599 0.951 . S
C618 C616 1.388 . S
C618 C619 1.366 . S
C619 C618 1.366 . S
C619 C620 1.414 . S
C619 C622 1.499 . S
C620 H600 0.950 . S
C620 C619 1.414 . S
C620 C621 1.374 . S
C621 H601 0.950 . S
C621 C617 1.385 . S
C621 C620 1.374 . S
C622 C619 1.499 . S
C622 C623 1.373 . S
C622 C624 1.389 . S
C623 H602 0.950 . S
C623 C622 1.373 . S
C623 C639 1.377 . S
C624 C622 1.389 . S
C624 C625 1.524 . S
C624 C638 1.377 . S
C625 C624 1.524 . S
C625 C626 1.397 . S
C625 C630 1.363 . S
C626 H603 0.950 . S
C626 C625 1.397 . S
C626 C627 1.334 . S
C627 H604 0.950 . S
C627 C626 1.334 . S
C627 C628 1.287 . S
C628 C627 1.287 . S
C628 C629 1.524 . S
C628 H647 0.913 . S
C629 H605 0.950 . S
C629 C628 1.524 . S
C629 C630 1.415 . S
C630 H606 0.950 . S
C630 C625 1.363 . S
C630 C629 1.415 . S
C631 H607 0.951 . S
C631 C632 1.366 . S
C631 C633 1.388 . S
C632 C631 1.366 . S
C632 C636 1.385 . S
C633 H608 0.951 . S
C633 C631 1.388 . S
C633 C634 1.366 . S
C634 C633 1.366 . S
C634 C635 1.414 . S
C634 C637 1.499 . S
C635 H609 0.950 . S
C635 C634 1.414 . S
C635 C636 1.374 . S
C636 H610 0.950 . S
C636 C632 1.385 . S
C636 C635 1.374 . S
C637 C634 1.499 . S
C637 C638 1.373 . S
C637 C639 1.389 . S
C638 H611 0.950 . S
C638 C624 1.377 . S
C638 C637 1.373 . S
C639 C623 1.377 . S
C639 C637 1.389 . S
C639 C640 1.524 . S
C640 C639 1.524 . S
C640 C641 1.397 . S
C640 C645 1.363 . S
C641 H612 0.950 . S
C641 C640 1.397 . S
C641 C642 1.334 . S
C642 H613 0.950 . S
C642 C641 1.334 . S
C642 C643 1.287 . S
C643 C642 1.287 . S
C643 C644 1.524 . S
C643 H646 0.999 . S
C644 H614 0.950 . S
C644 C643 1.524 . S
C644 C645 1.415 . S
C645 H615 0.950 . S
C645 C640 1.363 . S
C645 C644 1.415 . S
H646 C643 0.999 . S
H647 C628 0.913 . S
H648 C666 0.951 . S
H649 C668 0.940 1_655 S
H650 C670 0.950 . S
H651 C671 0.950 . S
H652 C673 0.969 . S
H653 C676 0.950 . S
H654 C677 0.950 . S
H655 C679 0.950 . S
H656 C680 0.950 . S
H657 C681 0.951 . S
H658 C683 0.951 . S
H659 C685 0.950 . S
H660 C686 0.965 . S
H661 C688 0.950 . S
H662 C691 0.950 . S
H663 C692 0.950 . S
H664 C694 0.950 . S
H665 C695 0.966 . S
C666 H648 0.951 . S
C666 C667 1.366 . S
C666 C668 1.396 . S
C667 C666 1.366 . S
C667 C671 1.385 . S
C668 H649 0.940 1_455 S
C668 C666 1.396 . S
C668 C669 1.368 . S
C669 C668 1.368 . S
C669 C670 1.414 . S
C669 C672 1.499 1_455 S
C670 H650 0.950 . S
C670 C669 1.414 . S
C670 C671 1.374 . S
C671 H651 0.950 . S
C671 C667 1.385 . S
C671 C670 1.374 . S
C672 C669 1.499 1_655 S
C672 C673 1.367 1_655 S
C672 C674 1.389 . S
C673 H652 0.969 . S
C673 C672 1.367 1_455 S
C673 C689 1.364 1_455 S
C674 C672 1.389 . S
C674 C675 1.524 . S
C674 C688 1.377 . S
C675 C674 1.524 . S
C675 C676 1.397 . S
C675 C680 1.363 . S
C676 H653 0.950 . S
C676 C675 1.397 . S
C676 C677 1.334 . S
C677 H654 0.950 . S
C677 C676 1.334 . S
C677 C678 1.287 . S
C678 C677 1.287 . S
C678 C679 1.524 . S
C678 H697 0.913 . S
C679 H655 0.950 . S
C679 C678 1.524 . S
C679 C680 1.415 . S
C680 H656 0.950 . S
C680 C675 1.363 . S
C680 C679 1.415 . S
C681 H657 0.951 . S
C681 C682 1.366 . S
C681 C683 1.388 . S
C682 C681 1.366 . S
C682 C686 1.346 1_545 S
C683 H658 0.951 . S
C683 C681 1.388 . S
C683 C684 1.366 1_545 S
C684 C683 1.366 1_565 S
C684 C685 1.414 . S
C684 C687 1.499 . S
C685 H659 0.950 . S
C685 C684 1.414 . S
C685 C686 1.399 . S
C686 H660 0.965 . S
C686 C682 1.346 1_565 S
C686 C685 1.399 . S
C687 C684 1.499 . S
C687 C688 1.373 . S
C687 C689 1.389 . S
C688 H661 0.950 . S
C688 C674 1.377 . S
C688 C687 1.373 . S
C689 C673 1.364 1_655 S
C689 C687 1.389 . S
C689 C690 1.524 . S
C690 C689 1.524 . S
C690 C691 1.397 . S
C690 C695 1.342 1_665 S
C691 H662 0.950 . S
C691 C690 1.397 . S
C691 C692 1.334 . S
C692 H663 0.950 . S
C692 C691 1.334 . S
C692 C693 1.287 1_655 S
C693 C692 1.287 1_455 S
C693 C694 1.524 1_565 S
C693 H696 0.999 . S
C694 H664 0.950 . S
C694 C693 1.524 1_545 S
C694 C695 1.422 . S
C695 H665 0.966 . S
C695 C690 1.342 1_445 S
C695 C694 1.422 . S
H696 C693 0.999 . S
H697 C678 0.913 . S
H698 C716 0.951 . S
H699 C718 0.951 . S
H700 C720 0.950 . S
H701 C721 0.950 . S
H702 C723 0.950 . S
H703 C726 0.950 . S
H704 C727 0.950 . S
H705 C729 0.950 . S
H706 C730 0.950 . S
H707 C731 0.951 . S
H708 C733 0.951 . S
H709 C735 0.950 . S
H710 C736 0.950 . S
H711 C738 0.950 . S
H712 C741 0.950 . S
H713 C742 0.950 . S
H714 C744 0.950 . S
H715 C745 0.950 . S
C716 H698 0.951 . S
C716 C717 1.366 . S
C716 C718 1.388 . S
C717 C716 1.366 . S
C717 C721 1.385 . S
C718 H699 0.951 . S
C718 C716 1.388 . S
C718 C719 1.366 . S
C719 C718 1.366 . S
C719 C720 1.414 . S
C719 C722 1.499 . S
C720 H700 0.950 . S
C720 C719 1.414 . S
C720 C721 1.374 . S
C721 H701 0.950 . S
C721 C717 1.385 . S
C721 C720 1.374 . S
C722 C719 1.499 . S
C722 C723 1.373 . S
C722 C724 1.389 . S
C723 H702 0.950 . S
C723 C722 1.373 . S
C723 C739 1.377 . S
C724 C722 1.389 . S
C724 C725 1.524 . S
C724 C738 1.377 . S
C725 C724 1.524 . S
C725 C726 1.397 . S
C725 C730 1.363 . S
C726 H703 0.950 . S
C726 C725 1.397 . S
C726 C727 1.334 . S
C727 H704 0.950 . S
C727 C726 1.334 . S
C727 C728 1.287 . S
C728 C727 1.287 . S
C728 C729 1.524 . S
C728 H747 0.913 . S
C729 H705 0.950 . S
C729 C728 1.524 . S
C729 C730 1.415 . S
C730 H706 0.950 . S
C730 C725 1.363 . S
C730 C729 1.415 . S
C731 H707 0.951 . S
C731 C732 1.366 . S
C731 C733 1.388 . S
C732 C731 1.366 . S
C732 C736 1.385 . S
C733 H708 0.951 . S
C733 C731 1.388 . S
C733 C734 1.366 . S
C734 C733 1.366 . S
C734 C735 1.414 . S
C734 C737 1.499 . S
C735 H709 0.950 . S
C735 C734 1.414 . S
C735 C736 1.374 . S
C736 H710 0.950 . S
C736 C732 1.385 . S
C736 C735 1.374 . S
C737 C734 1.499 . S
C737 C738 1.373 . S
C737 C739 1.389 . S
C738 H711 0.950 . S
C738 C724 1.377 . S
C738 C737 1.373 . S
C739 C723 1.377 . S
C739 C737 1.389 . S
C739 C740 1.524 . S
C740 C739 1.524 . S
C740 C741 1.397 . S
C740 C745 1.363 . S
C741 H712 0.950 . S
C741 C740 1.397 . S
C741 C742 1.334 . S
C742 H713 0.950 . S
C742 C741 1.334 . S
C742 C743 1.287 . S
C743 C742 1.287 . S
C743 C744 1.524 . S
C743 H746 0.999 . S
C744 H714 0.950 . S
C744 C743 1.524 . S
C744 C745 1.415 . S
C745 H715 0.950 . S
C745 C740 1.363 . S
C745 C744 1.415 . S
H746 C743 0.999 . S
H747 C728 0.913 . S
H748 C766 0.951 . S
H749 C768 0.951 . S
H750 C770 0.950 . S
H751 C771 0.950 . S
H752 C773 0.950 . S
H753 C776 0.950 . S
H754 C777 0.950 . S
H755 C779 0.950 . S
H756 C780 0.950 . S
H757 C781 0.951 . S
H758 C783 0.951 1_545 S
H759 C785 0.950 . S
H760 C786 0.950 . S
H761 C788 0.950 . S
H762 C791 0.948 1_554 S
H763 C792 0.950 . S
H764 C794 0.950 . S
H765 C795 0.950 1_545 S
C766 H748 0.951 . S
C766 C767 1.366 . S
C766 C768 1.388 . S
C767 C766 1.366 . S
C767 C771 1.385 . S
C768 H749 0.951 . S
C768 C766 1.388 . S
C768 C769 1.366 . S
C769 C768 1.366 . S
C769 C770 1.414 . S
C769 C772 1.499 . S
C770 H750 0.950 . S
C770 C769 1.414 . S
C770 C771 1.374 . S
C771 H751 0.950 . S
C771 C767 1.385 . S
C771 C770 1.374 . S
C772 C769 1.499 . S
C772 C773 1.373 . S
C772 C774 1.389 1_556 S
C773 H752 0.950 . S
C773 C772 1.373 . S
C773 C789 1.377 . S
C774 C772 1.389 1_554 S
C774 C775 1.524 . S
C774 C788 1.377 . S
C775 C774 1.524 . S
C775 C776 1.397 . S
C775 C780 1.363 . S
C776 H753 0.950 . S
C776 C775 1.397 . S
C776 C777 1.334 . S
C777 H754 0.950 . S
C777 C776 1.334 . S
C777 C778 1.287 . S
C778 C777 1.287 . S
C778 C779 1.524 . S
C778 H797 0.913 . S
C779 H755 0.950 . S
C779 C778 1.524 . S
C779 C780 1.415 . S
C780 H756 0.950 . S
C780 C775 1.363 . S
C780 C779 1.415 . S
C781 H757 0.951 . S
C781 C782 1.366 . S
C781 C783 1.388 . S
C782 C781 1.366 . S
C782 C786 1.385 . S
C783 H758 0.951 1_565 S
C783 C781 1.388 . S
C783 C784 1.366 . S
C784 C783 1.366 . S
C784 C785 1.414 . S
C784 C787 1.499 1_565 S
C785 H759 0.950 . S
C785 C784 1.414 . S
C785 C786 1.374 . S
C786 H760 0.950 . S
C786 C782 1.385 . S
C786 C785 1.374 . S
C787 C784 1.499 1_545 S
C787 C788 1.373 . S
C787 C789 1.389 1_554 S
C788 H761 0.950 . S
C788 C774 1.377 . S
C788 C787 1.373 . S
C789 C773 1.377 . S
C789 C787 1.389 1_556 S
C789 C790 1.524 1_545 S
C790 C789 1.524 1_565 S
C790 C791 1.397 . S
C790 C795 1.363 . S
C791 H762 0.948 1_556 S
C791 C790 1.397 . S
C791 C792 1.334 . S
C792 H763 0.950 . S
C792 C791 1.334 . S
C792 C793 1.287 . S
C793 C792 1.287 . S
C793 C794 1.524 . S
C793 H796 0.999 . S
C794 H764 0.950 . S
C794 C793 1.524 . S
C794 C795 1.415 . S
C795 H765 0.950 1_565 S
C795 C790 1.363 . S
C795 C794 1.415 . S
H796 C793 0.999 . S
H797 C778 0.913 . S
H798 C816 0.951 . S
H799 C818 0.951 . S
H800 C820 0.950 . S
H801 C821 0.950 . S
H802 C823 0.950 . S
H803 C826 0.950 . S
H804 C827 0.950 . S
H805 C829 0.950 . S
H806 C830 0.950 . S
H807 C831 0.951 . S
H808 C833 0.951 . S
H809 C835 0.950 . S
H810 C836 0.950 . S
H811 C838 0.950 . S
H812 C841 0.950 . S
H813 C842 0.950 . S
H814 C844 0.950 . S
H815 C845 0.950 . S
C816 H798 0.951 . S
C816 C817 1.366 . S
C816 C818 1.388 . S
C817 C816 1.366 . S
C817 C821 1.385 . S
C818 H799 0.951 . S
C818 C816 1.388 . S
C818 C819 1.366 . S
C819 C818 1.366 . S
C819 C820 1.414 . S
C819 C822 1.499 . S
C820 H800 0.950 . S
C820 C819 1.414 . S
C820 C821 1.374 . S
C821 H801 0.950 . S
C821 C817 1.385 . S
C821 C820 1.374 . S
C822 C819 1.499 . S
C822 C823 1.373 . S
C822 C824 1.389 . S
C823 H802 0.950 . S
C823 C822 1.373 . S
C823 C839 1.377 . S
C824 C822 1.389 . S
C824 C825 1.524 . S
C824 C838 1.377 . S
C825 C824 1.524 . S
C825 C826 1.397 . S
C825 C830 1.363 . S
C826 H803 0.950 . S
C826 C825 1.397 . S
C826 C827 1.334 . S
C827 H804 0.950 . S
C827 C826 1.334 . S
C827 C828 1.287 . S
C828 C827 1.287 . S
C828 C829 1.524 . S
C828 H847 0.913 . S
C829 H805 0.950 . S
C829 C828 1.524 . S
C829 C830 1.415 . S
C830 H806 0.950 . S
C830 C825 1.363 . S
C830 C829 1.415 . S
C831 H807 0.951 . S
C831 C832 1.366 . S
C831 C833 1.388 . S
C832 C831 1.366 . S
C832 C836 1.385 . S
C833 H808 0.951 . S
C833 C831 1.388 . S
C833 C834 1.366 . S
C834 C833 1.366 . S
C834 C835 1.414 . S
C834 C837 1.499 . S
C835 H809 0.950 . S
C835 C834 1.414 . S
C835 C836 1.374 . S
C836 H810 0.950 . S
C836 C832 1.385 . S
C836 C835 1.374 . S
C837 C834 1.499 . S
C837 C838 1.373 . S
C837 C839 1.389 . S
C838 H811 0.950 . S
C838 C824 1.377 . S
C838 C837 1.373 . S
C839 C823 1.377 . S
C839 C837 1.389 . S
C839 C840 1.524 . S
C840 C839 1.524 . S
C840 C841 1.397 . S
C840 C845 1.363 . S
C841 H812 0.950 . S
C841 C840 1.397 . S
C841 C842 1.334 . S
C842 H813 0.950 . S
C842 C841 1.334 . S
C842 C843 1.287 . S
C843 C842 1.287 . S
C843 C844 1.524 . S
C843 H846 0.999 . S
C844 H814 0.950 . S
C844 C843 1.524 . S
C844 C845 1.415 . S
C845 H815 0.950 . S
C845 C840 1.363 . S
C845 C844 1.415 . S
H846 C843 0.999 . S
H847 C828 0.913 . S
H848 C866 0.951 . S
H849 C868 0.951 1_556 S
H850 C870 0.950 . S
H851 C871 0.950 . S
H852 C873 0.950 . S
H853 C876 0.950 . S
H854 C877 0.950 . S
H855 C879 0.950 . S
H856 C880 0.950 . S
H857 C881 0.951 . S
H858 C883 0.951 . S
H859 C885 0.950 . S
H860 C886 0.950 . S
H861 C888 0.950 . S
H862 C891 0.950 . S
H863 C892 0.950 . S
H864 C894 0.950 . S
H865 C895 0.950 . S
C866 H848 0.951 . S
C866 C867 1.366 . S
C866 C868 1.388 . S
C867 C866 1.366 . S
C867 C871 1.385 . S
C868 H849 0.951 1_554 S
C868 C866 1.388 . S
C868 C869 1.366 . S
C869 C868 1.366 . S
C869 C870 1.414 . S
C869 C872 1.499 . S
C870 H850 0.950 . S
C870 C869 1.414 . S
C870 C871 1.374 . S
C871 H851 0.950 . S
C871 C867 1.385 . S
C871 C870 1.374 . S
C872 C869 1.499 . S
C872 C873 1.373 . S
C872 C874 1.389 1_554 S
C873 H852 0.950 . S
C873 C872 1.373 . S
C873 C889 1.377 1_554 S
C874 C872 1.389 1_556 S
C874 C875 1.524 . S
C874 C888 1.377 . S
C875 C874 1.524 . S
C875 C876 1.397 1_556 S
C875 C880 1.363 . S
C876 H853 0.950 . S
C876 C875 1.397 1_554 S
C876 C877 1.334 . S
C877 H854 0.950 . S
C877 C876 1.334 . S
C877 C878 1.287 . S
C878 C877 1.287 . S
C878 C879 1.524 1_554 S
C878 H897 0.913 . S
C879 H855 0.950 . S
C879 C878 1.524 1_556 S
C879 C880 1.415 . S
C880 H856 0.950 . S
C880 C875 1.363 . S
C880 C879 1.415 . S
C881 H857 0.951 . S
C881 C882 1.366 . S
C881 C883 1.388 . S
C882 C881 1.366 . S
C882 C886 1.385 . S
C883 H858 0.951 . S
C883 C881 1.388 . S
C883 C884 1.366 . S
C884 C883 1.366 . S
C884 C885 1.414 . S
C884 C887 1.499 . S
C885 H859 0.950 . S
C885 C884 1.414 . S
C885 C886 1.374 . S
C886 H860 0.950 . S
C886 C882 1.385 . S
C886 C885 1.374 . S
C887 C884 1.499 . S
C887 C888 1.373 . S
C887 C889 1.389 . S
C888 H861 0.950 . S
C888 C874 1.377 . S
C888 C887 1.373 . S
C889 C873 1.377 1_556 S
C889 C887 1.389 . S
C889 C890 1.524 . S
C890 C889 1.524 . S
C890 C891 1.397 . S
C890 C895 1.363 1_556 S
C891 H862 0.950 . S
C891 C890 1.397 . S
C891 C892 1.334 . S
C892 H863 0.950 . S
C892 C891 1.334 . S
C892 C893 1.287 . S
C893 C892 1.287 . S
C893 C894 1.524 1_556 S
C893 H896 0.999 . S
C894 H864 0.950 . S
C894 C893 1.524 1_554 S
C894 C895 1.415 . S
C895 H865 0.950 . S
C895 C890 1.363 1_554 S
C895 C894 1.415 . S
H896 C893 0.999 . S
H897 C878 0.913 . S
H898 C916 0.951 . S
H899 C918 0.951 . S
H900 C920 0.950 . S
H901 C921 0.950 . S
H902 C923 0.950 . S
H903 C926 0.950 . S
H904 C927 0.950 . S
H905 C929 0.950 . S
H906 C930 0.950 . S
H907 C931 0.951 . S
H908 C933 0.951 . S
H909 C935 0.950 . S
H910 C936 0.950 . S
H911 C938 0.950 . S
H912 C941 0.950 . S
H913 C942 0.950 . S
H914 C944 0.950 . S
H915 C945 0.950 . S
C916 H898 0.951 . S
C916 C917 1.366 . S
C916 C918 1.388 . S
C917 C916 1.366 . S
C917 C921 1.385 . S
C918 H899 0.951 . S
C918 C916 1.388 . S
C918 C919 1.366 . S
C919 C918 1.366 . S
C919 C920 1.414 . S
C919 C922 1.499 . S
C920 H900 0.950 . S
C920 C919 1.414 . S
C920 C921 1.374 . S
C921 H901 0.950 . S
C921 C917 1.385 . S
C921 C920 1.374 . S
C922 C919 1.499 . S
C922 C923 1.373 . S
C922 C924 1.389 . S
C923 H902 0.950 . S
C923 C922 1.373 . S
C923 C939 1.377 . S
C924 C922 1.389 . S
C924 C925 1.524 . S
C924 C938 1.377 . S
C925 C924 1.524 . S
C925 C926 1.397 . S
C925 C930 1.363 . S
C926 H903 0.950 . S
C926 C925 1.397 . S
C926 C927 1.334 . S
C927 H904 0.950 . S
C927 C926 1.334 . S
C927 C928 1.287 . S
C928 C927 1.287 . S
C928 C929 1.524 . S
C928 H947 0.913 . S
C929 H905 0.950 . S
C929 C928 1.524 . S
C929 C930 1.415 . S
C930 H906 0.950 . S
C930 C925 1.363 . S
C930 C929 1.415 . S
C931 H907 0.951 . S
C931 C932 1.366 . S
C931 C933 1.388 . S
C932 C931 1.366 . S
C932 C936 1.385 . S
C933 H908 0.951 . S
C933 C931 1.388 . S
C933 C934 1.366 . S
C934 C933 1.366 . S
C934 C935 1.414 . S
C934 C937 1.499 . S
C935 H909 0.950 . S
C935 C934 1.414 . S
C935 C936 1.374 . S
C936 H910 0.950 . S
C936 C932 1.385 . S
C936 C935 1.374 . S
C937 C934 1.499 . S
C937 C938 1.373 . S
C937 C939 1.389 . S
C938 H911 0.950 . S
C938 C924 1.377 . S
C938 C937 1.373 . S
C939 C923 1.377 . S
C939 C937 1.389 . S
C939 C940 1.524 . S
C940 C939 1.524 . S
C940 C941 1.397 . S
C940 C945 1.363 . S
C941 H912 0.950 . S
C941 C940 1.397 . S
C941 C942 1.334 . S
C942 H913 0.950 . S
C942 C941 1.334 . S
C942 C943 1.287 . S
C943 C942 1.287 . S
C943 C944 1.524 . S
C943 H946 0.999 . S
C944 H914 0.950 . S
C944 C943 1.524 . S
C944 C945 1.415 . S
C945 H915 0.950 . S
C945 C940 1.363 . S
C945 C944 1.415 . S
H946 C943 0.999 . S
H947 C928 0.913 . S
H948 C966 0.951 . S
H949 C968 0.951 . S
H950 C970 0.950 . S
H951 C971 0.950 . S
H952 C973 0.950 . S
H953 C976 0.950 . S
H954 C977 0.950 . S
H955 C979 0.950 . S
H956 C980 0.950 . S
H957 C981 0.951 . S
H958 C983 0.951 . S
H959 C985 0.950 . S
H960 C986 0.950 . S
H961 C988 0.950 . S
H962 C991 0.950 . S
H963 C992 0.950 . S
H964 C994 0.950 . S
H965 C995 0.950 . S
C966 H948 0.951 . S
C966 C967 1.366 . S
C966 C968 1.388 . S
C967 C966 1.366 . S
C967 C971 1.385 . S
C968 H949 0.951 . S
C968 C966 1.388 . S
C968 C969 1.366 . S
C969 C968 1.366 . S
C969 C970 1.414 . S
C969 C972 1.499 . S
C970 H950 0.950 . S
C970 C969 1.414 . S
C970 C971 1.374 . S
C971 H951 0.950 . S
C971 C967 1.385 . S
C971 C970 1.374 . S
C972 C969 1.499 . S
C972 C973 1.373 . S
C972 C974 1.389 1_455 S
C973 H952 0.950 . S
C973 C972 1.373 . S
C973 C989 1.377 . S
C974 C972 1.389 1_655 S
C974 C975 1.524 . S
C974 C988 1.377 . S
C975 C974 1.524 . S
C975 C976 1.397 . S
C975 C980 1.363 . S
C976 H953 0.950 . S
C976 C975 1.397 . S
C976 C977 1.334 . S
C977 H954 0.950 . S
C977 C976 1.334 . S
C977 C978 1.287 . S
C978 C977 1.287 . S
C978 C979 1.524 . S
C978 H997 0.913 . S
C979 H955 0.950 . S
C979 C978 1.524 . S
C979 C980 1.415 . S
C980 H956 0.950 . S
C980 C975 1.363 . S
C980 C979 1.415 . S
C981 H957 0.951 . S
C981 C982 1.366 . S
C981 C983 1.388 . S
C982 C981 1.366 . S
C982 C986 1.385 . S
C983 H958 0.951 . S
C983 C981 1.388 . S
C983 C984 1.366 . S
C984 C983 1.366 . S
C984 C985 1.414 . S
C984 C987 1.499 . S
C985 H959 0.950 . S
C985 C984 1.414 . S
C985 C986 1.374 . S
C986 H960 0.950 . S
C986 C982 1.385 . S
C986 C985 1.374 . S
C987 C984 1.499 . S
C987 C988 1.373 . S
C987 C989 1.389 1_655 S
C988 H961 0.950 . S
C988 C974 1.377 . S
C988 C987 1.373 . S
C989 C973 1.377 . S
C989 C987 1.389 1_455 S
C989 C990 1.524 . S
C990 C989 1.524 . S
C990 C991 1.397 . S
C990 C995 1.363 . S
C991 H962 0.950 . S
C991 C990 1.397 . S
C991 C992 1.334 . S
C992 H963 0.950 . S
C992 C991 1.334 . S
C992 C993 1.287 . S
C993 C992 1.287 . S
C993 C994 1.524 . S
C993 H996 0.999 . S
C994 H964 0.950 . S
C994 C993 1.524 . S
C994 C995 1.415 . S
C995 H965 0.950 . S
C995 C990 1.363 . S
C995 C994 1.415 . S
H996 C993 0.999 . S
H997 C978 0.913 . S
H998 C1016 0.951 . S
H999 C1018 0.951 . S
H1000 C1020 0.950 . S
H1001 C1021 0.950 . S
H1002 C1023 0.950 . S
H1003 C1026 0.950 . S
H1004 C1027 0.950 . S
H1005 C1029 0.950 . S
H1006 C1030 0.950 . S
H1007 C1031 0.951 . S
H1008 C1033 0.951 . S
H1009 C1035 0.950 . S
H1010 C1036 0.950 . S
H1011 C1038 0.950 . S
H1012 C1041 0.950 . S
H1013 C1042 0.950 . S
H1014 C1044 0.950 . S
H1015 C1045 0.950 . S
C1016 H998 0.951 . S
C1016 C1017 1.366 . S
C1016 C1018 1.388 . S
C1017 C1016 1.366 . S
C1017 C1021 1.385 . S
C1018 H999 0.951 . S
C1018 C1016 1.388 . S
C1018 C1019 1.366 . S
C1019 C1018 1.366 . S
C1019 C1020 1.414 . S
C1019 C1022 1.499 . S
C1020 H1000 0.950 . S
C1020 C1019 1.414 . S
C1020 C1021 1.374 . S
C1021 H1001 0.950 . S
C1021 C1017 1.385 . S
C1021 C1020 1.374 . S
C1022 C1019 1.499 . S
C1022 C1023 1.373 . S
C1022 C1024 1.389 . S
C1023 H1002 0.950 . S
C1023 C1022 1.373 . S
C1023 C1039 1.377 . S
C1024 C1022 1.389 . S
C1024 C1025 1.524 . S
C1024 C1038 1.377 . S
C1025 C1024 1.524 . S
C1025 C1026 1.397 . S
C1025 C1030 1.363 . S
C1026 H1003 0.950 . S
C1026 C1025 1.397 . S
C1026 C1027 1.334 . S
C1027 H1004 0.950 . S
C1027 C1026 1.334 . S
C1027 C1028 1.287 . S
C1028 C1027 1.287 . S
C1028 C1029 1.524 . S
C1028 H1047 0.913 . S
C1029 H1005 0.950 . S
C1029 C1028 1.524 . S
C1029 C1030 1.415 . S
C1030 H1006 0.950 . S
C1030 C1025 1.363 . S
C1030 C1029 1.415 . S
C1031 H1007 0.951 . S
C1031 C1032 1.366 . S
C1031 C1033 1.388 . S
C1032 C1031 1.366 . S
C1032 C1036 1.385 . S
C1033 H1008 0.951 . S
C1033 C1031 1.388 . S
C1033 C1034 1.366 . S
C1034 C1033 1.366 . S
C1034 C1035 1.414 . S
C1034 C1037 1.499 . S
C1035 H1009 0.950 . S
C1035 C1034 1.414 . S
C1035 C1036 1.374 . S
C1036 H1010 0.950 . S
C1036 C1032 1.385 . S
C1036 C1035 1.374 . S
C1037 C1034 1.499 . S
C1037 C1038 1.373 . S
C1037 C1039 1.389 . S
C1038 H1011 0.950 . S
C1038 C1024 1.377 . S
C1038 C1037 1.373 . S
C1039 C1023 1.377 . S
C1039 C1037 1.389 . S
C1039 C1040 1.524 . S
C1040 C1039 1.524 . S
C1040 C1041 1.397 . S
C1040 C1045 1.363 . S
C1041 H1012 0.950 . S
C1041 C1040 1.397 . S
C1041 C1042 1.334 . S
C1042 H1013 0.950 . S
C1042 C1041 1.334 . S
C1042 C1043 1.287 . S
C1043 C1042 1.287 . S
C1043 C1044 1.524 . S
C1043 H1046 0.999 . S
C1044 H1014 0.950 . S
C1044 C1043 1.524 . S
C1044 C1045 1.415 . S
C1045 H1015 0.950 . S
C1045 C1040 1.363 . S
C1045 C1044 1.415 . S
H1046 C1043 0.999 . S
H1047 C1028 0.913 . S
H1048 C1066 0.951 . S
H1049 C1068 0.951 . S
H1050 C1070 0.950 . S
H1051 C1071 0.950 . S
H1052 C1073 0.950 . S
H1053 C1076 0.950 . S
H1054 C1077 0.950 . S
H1055 C1079 0.950 . S
H1056 C1080 0.950 . S
H1057 C1081 0.951 . S
H1058 C1083 0.951 . S
H1059 C1085 0.950 . S
H1060 C1086 0.950 . S
H1061 C1088 0.950 . S
H1062 C1091 0.950 . S
H1063 C1092 0.950 . S
H1064 C1094 0.950 . S
H1065 C1095 0.950 . S
C1066 H1048 0.951 . S
C1066 C1067 1.366 . S
C1066 C1068 1.388 . S
C1067 C1066 1.366 . S
C1067 C1071 1.385 . S
C1068 H1049 0.951 . S
C1068 C1066 1.388 . S
C1068 C1069 1.366 . S
C1069 C1068 1.366 . S
C1069 C1070 1.414 . S
C1069 C1072 1.499 . S
C1070 H1050 0.950 . S
C1070 C1069 1.414 . S
C1070 C1071 1.374 . S
C1071 H1051 0.950 . S
C1071 C1067 1.385 . S
C1071 C1070 1.374 . S
C1072 C1069 1.499 . S
C1072 C1073 1.373 . S
C1072 C1074 1.389 . S
C1073 H1052 0.950 . S
C1073 C1072 1.373 . S
C1073 C1089 1.377 . S
C1074 C1072 1.389 . S
C1074 C1075 1.524 . S
C1074 C1088 1.377 . S
C1075 C1074 1.524 . S
C1075 C1076 1.397 . S
C1075 C1080 1.363 . S
C1076 H1053 0.950 . S
C1076 C1075 1.397 . S
C1076 C1077 1.334 . S
C1077 H1054 0.950 . S
C1077 C1076 1.334 . S
C1077 C1078 1.287 . S
C1078 C1077 1.287 . S
C1078 C1079 1.524 . S
C1078 H1097 0.913 . S
C1079 H1055 0.950 . S
C1079 C1078 1.524 . S
C1079 C1080 1.415 . S
C1080 H1056 0.950 . S
C1080 C1075 1.363 . S
C1080 C1079 1.415 . S
C1081 H1057 0.951 . S
C1081 C1082 1.366 . S
C1081 C1083 1.388 . S
C1082 C1081 1.366 . S
C1082 C1086 1.385 . S
C1083 H1058 0.951 . S
C1083 C1081 1.388 . S
C1083 C1084 1.366 . S
C1084 C1083 1.366 . S
C1084 C1085 1.414 . S
C1084 C1087 1.499 . S
C1085 H1059 0.950 . S
C1085 C1084 1.414 . S
C1085 C1086 1.374 . S
C1086 H1060 0.950 . S
C1086 C1082 1.385 . S
C1086 C1085 1.374 . S
C1087 C1084 1.499 . S
C1087 C1088 1.373 . S
C1087 C1089 1.389 . S
C1088 H1061 0.950 . S
C1088 C1074 1.377 . S
C1088 C1087 1.373 . S
C1089 C1073 1.377 . S
C1089 C1087 1.389 . S
C1089 C1090 1.524 . S
C1090 C1089 1.524 . S
C1090 C1091 1.397 . S
C1090 C1095 1.363 . S
C1091 H1062 0.950 . S
C1091 C1090 1.397 . S
C1091 C1092 1.334 . S
C1092 H1063 0.950 . S
C1092 C1091 1.334 . S
C1092 C1093 1.287 . S
C1093 C1092 1.287 . S
C1093 C1094 1.524 . S
C1093 H1096 0.999 . S
C1094 H1064 0.950 . S
C1094 C1093 1.524 . S
C1094 C1095 1.415 . S
C1095 H1065 0.950 . S
C1095 C1090 1.363 . S
C1095 C1094 1.415 . S
H1096 C1093 0.999 . S
H1097 C1078 0.913 . S
H1098 C1116 0.951 . S
H1099 C1118 0.951 . S
H1100 C1120 0.950 . S
H1101 C1121 0.950 . S
H1102 C1123 0.950 . S
H1103 C1126 0.950 . S
H1104 C1127 0.950 . S
H1105 C1129 0.950 . S
H1106 C1130 0.950 . S
H1107 C1131 0.951 . S
H1108 C1133 0.951 . S
H1109 C1135 0.950 . S
H1110 C1136 0.950 . S
H1111 C1138 0.950 . S
H1112 C1141 0.950 . S
H1113 C1142 0.950 . S
H1114 C1144 0.950 . S
H1115 C1145 0.950 . S
C1116 H1098 0.951 . S
C1116 C1117 1.366 . S
C1116 C1118 1.388 . S
C1117 C1116 1.366 . S
C1117 C1121 1.385 . S
C1118 H1099 0.951 . S
C1118 C1116 1.388 . S
C1118 C1119 1.366 . S
C1119 C1118 1.366 . S
C1119 C1120 1.414 . S
C1119 C1122 1.499 . S
C1120 H1100 0.950 . S
C1120 C1119 1.414 . S
C1120 C1121 1.374 . S
C1121 H1101 0.950 . S
C1121 C1117 1.385 . S
C1121 C1120 1.374 . S
C1122 C1119 1.499 . S
C1122 C1123 1.373 . S
C1122 C1124 1.389 . S
C1123 H1102 0.950 . S
C1123 C1122 1.373 . S
C1123 C1139 1.377 . S
C1124 C1122 1.389 . S
C1124 C1125 1.524 . S
C1124 C1138 1.377 . S
C1125 C1124 1.524 . S
C1125 C1126 1.397 . S
C1125 C1130 1.363 . S
C1126 H1103 0.950 . S
C1126 C1125 1.397 . S
C1126 C1127 1.334 . S
C1127 H1104 0.950 . S
C1127 C1126 1.334 . S
C1127 C1128 1.287 . S
C1128 C1127 1.287 . S
C1128 C1129 1.524 . S
C1128 H1147 0.913 . S
C1129 H1105 0.950 . S
C1129 C1128 1.524 . S
C1129 C1130 1.415 . S
C1130 H1106 0.950 . S
C1130 C1125 1.363 . S
C1130 C1129 1.415 . S
C1131 H1107 0.951 . S
C1131 C1132 1.366 . S
C1131 C1133 1.388 . S
C1132 C1131 1.366 . S
C1132 C1136 1.385 . S
C1133 H1108 0.951 . S
C1133 C1131 1.388 . S
C1133 C1134 1.366 . S
C1134 C1133 1.366 . S
C1134 C1135 1.414 . S
C1134 C1137 1.499 . S
C1135 H1109 0.950 . S
C1135 C1134 1.414 . S
C1135 C1136 1.374 . S
C1136 H1110 0.950 . S
C1136 C1132 1.385 . S
C1136 C1135 1.374 . S
C1137 C1134 1.499 . S
C1137 C1138 1.373 . S
C1137 C1139 1.389 . S
C1138 H1111 0.950 . S
C1138 C1124 1.377 . S
C1138 C1137 1.373 . S
C1139 C1123 1.377 . S
C1139 C1137 1.389 . S
C1139 C1140 1.524 . S
C1140 C1139 1.524 . S
C1140 C1141 1.397 . S
C1140 C1145 1.363 . S
C1141 H1112 0.950 . S
C1141 C1140 1.397 . S
C1141 C1142 1.334 . S
C1142 H1113 0.950 . S
C1142 C1141 1.334 . S
C1142 C1143 1.287 . S
C1143 C1142 1.287 . S
C1143 C1144 1.524 . S
C1143 H1146 0.999 . S
C1144 H1114 0.950 . S
C1144 C1143 1.524 . S
C1144 C1145 1.415 . S
C1145 H1115 0.950 . S
C1145 C1140 1.363 . S
C1145 C1144 1.415 . S
H1146 C1143 0.999 . S
H1147 C1128 0.913 . S
H1148 C1166 0.951 . S
H1149 C1168 0.951 . S
H1150 C1170 0.950 . S
H1151 C1171 0.950 . S
H1152 C1173 0.950 . S
H1153 C1176 0.950 . S
H1154 C1177 0.950 . S
H1155 C1179 0.950 . S
H1156 C1180 0.950 . S
H1157 C1181 0.951 . S
H1158 C1183 0.951 . S
H1159 C1185 0.950 . S
H1160 C1186 0.950 . S
H1161 C1188 0.950 . S
H1162 C1191 0.950 . S
H1163 C1192 0.950 . S
H1164 C1194 0.950 . S
H1165 C1195 0.950 . S
C1166 H1148 0.951 . S
C1166 C1167 1.366 . S
C1166 C1168 1.388 . S
C1167 C1166 1.366 . S
C1167 C1171 1.385 . S
C1168 H1149 0.951 . S
C1168 C1166 1.388 . S
C1168 C1169 1.366 . S
C1169 C1168 1.366 . S
C1169 C1170 1.414 . S
C1169 C1172 1.499 . S
C1170 H1150 0.950 . S
C1170 C1169 1.414 . S
C1170 C1171 1.374 . S
C1171 H1151 0.950 . S
C1171 C1167 1.385 . S
C1171 C1170 1.374 . S
C1172 C1169 1.499 . S
C1172 C1173 1.373 . S
C1172 C1174 1.389 . S
C1173 H1152 0.950 . S
C1173 C1172 1.373 . S
C1173 C1189 1.377 . S
C1174 C1172 1.389 . S
C1174 C1175 1.524 . S
C1174 C1188 1.377 . S
C1175 C1174 1.524 . S
C1175 C1176 1.397 . S
C1175 C1180 1.363 . S
C1176 H1153 0.950 . S
C1176 C1175 1.397 . S
C1176 C1177 1.334 . S
C1177 H1154 0.950 . S
C1177 C1176 1.334 . S
C1177 C1178 1.287 . S
C1178 C1177 1.287 . S
C1178 C1179 1.524 . S
C1178 H1197 0.913 . S
C1179 H1155 0.950 . S
C1179 C1178 1.524 . S
C1179 C1180 1.415 . S
C1180 H1156 0.950 . S
C1180 C1175 1.363 . S
C1180 C1179 1.415 . S
C1181 H1157 0.951 . S
C1181 C1182 1.366 . S
C1181 C1183 1.388 . S
C1182 C1181 1.366 . S
C1182 C1186 1.385 . S
C1183 H1158 0.951 . S
C1183 C1181 1.388 . S
C1183 C1184 1.366 . S
C1184 C1183 1.366 . S
C1184 C1185 1.414 . S
C1184 C1187 1.499 . S
C1185 H1159 0.950 . S
C1185 C1184 1.414 . S
C1185 C1186 1.374 . S
C1186 H1160 0.950 . S
C1186 C1182 1.385 . S
C1186 C1185 1.374 . S
C1187 C1184 1.499 . S
C1187 C1188 1.373 . S
C1187 C1189 1.389 . S
C1188 H1161 0.950 . S
C1188 C1174 1.377 . S
C1188 C1187 1.373 . S
C1189 C1173 1.377 . S
C1189 C1187 1.389 . S
C1189 C1190 1.524 . S
C1190 C1189 1.524 . S
C1190 C1191 1.397 . S
C1190 C1195 1.363 . S
C1191 H1162 0.950 . S
C1191 C1190 1.397 . S
C1191 C1192 1.334 . S
C1192 H1163 0.950 . S
C1192 C1191 1.334 . S
C1192 C1193 1.287 . S
C1193 C1192 1.287 . S
C1193 C1194 1.524 . S
C1193 H1196 0.999 . S
C1194 H1164 0.950 . S
C1194 C1193 1.524 . S
C1194 C1195 1.415 . S
C1195 H1165 0.950 . S
C1195 C1190 1.363 . S
C1195 C1194 1.415 . S
H1196 C1193 0.999 . S
H1197 C1178 0.913 . S
H1198 C1216 0.951 . S
H1199 C1218 0.951 . S
H1200 C1220 0.944 1_554 S
H1201 C1221 0.950 . S
H1202 C1223 0.950 . S
H1203 C1226 0.950 1_455 S
H1204 C1227 0.950 . S
H1205 C1229 0.950 . S
H1206 C1230 0.950 . S
H1207 C1231 0.951 . S
H1208 C1233 0.951 . S
H1209 C1235 0.950 . S
H1210 C1236 0.950 . S
H1211 C1238 0.950 . S
H1212 C1241 0.950 . S
H1213 C1242 0.950 . S
H1214 C1244 0.950 . S
H1215 C1245 0.950 . S
C1216 H1198 0.951 . S
C1216 C1217 1.366 . S
C1216 C1218 1.388 . S
C1217 C1216 1.366 . S
C1217 C1221 1.385 . S
C1218 H1199 0.951 . S
C1218 C1216 1.388 . S
C1218 C1219 1.366 . S
C1219 C1218 1.366 . S
C1219 C1220 1.416 . S
C1219 C1222 1.499 1_556 S
C1220 H1200 0.944 1_556 S
C1220 C1219 1.416 . S
C1220 C1221 1.378 . S
C1221 H1201 0.950 . S
C1221 C1217 1.385 . S
C1221 C1220 1.378 . S
C1222 C1219 1.499 1_554 S
C1222 C1223 1.373 . S
C1222 C1224 1.389 . S
C1223 H1202 0.950 . S
C1223 C1222 1.373 . S
C1223 C1239 1.377 . S
C1224 C1222 1.389 . S
C1224 C1225 1.524 1_455 S
C1224 C1238 1.377 1_455 S
C1225 C1224 1.524 1_655 S
C1225 C1226 1.397 . S
C1225 C1230 1.363 1_554 S
C1226 H1203 0.950 1_655 S
C1226 C1225 1.397 . S
C1226 C1227 1.334 . S
C1227 H1204 0.950 . S
C1227 C1226 1.334 . S
C1227 C1228 1.287 1_554 S
C1228 C1227 1.287 1_556 S
C1228 C1229 1.524 . S
C1228 H1247 0.913 . S
C1229 H1205 0.950 . S
C1229 C1228 1.524 . S
C1229 C1230 1.415 . S
C1230 H1206 0.950 . S
C1230 C1225 1.363 1_556 S
C1230 C1229 1.415 . S
C1231 H1207 0.951 . S
C1231 C1232 1.366 . S
C1231 C1233 1.388 1_655 S
C1232 C1231 1.366 . S
C1232 C1236 1.385 . S
C1233 H1208 0.951 . S
C1233 C1231 1.388 1_455 S
C1233 C1234 1.366 1_455 S
C1234 C1233 1.366 1_655 S
C1234 C1235 1.414 . S
C1234 C1237 1.499 1_655 S
C1235 H1209 0.950 . S
C1235 C1234 1.414 . S
C1235 C1236 1.374 . S
C1236 H1210 0.950 . S
C1236 C1232 1.385 . S
C1236 C1235 1.374 . S
C1237 C1234 1.499 1_455 S
C1237 C1238 1.373 1_455 S
C1237 C1239 1.389 . S
C1238 H1211 0.950 . S
C1238 C1224 1.377 1_655 S
C1238 C1237 1.373 1_655 S
C1239 C1223 1.377 . S
C1239 C1237 1.389 . S
C1239 C1240 1.524 . S
C1240 C1239 1.524 . S
C1240 C1241 1.397 . S
C1240 C1245 1.363 . S
C1241 H1212 0.950 . S
C1241 C1240 1.397 . S
C1241 C1242 1.334 . S
C1242 H1213 0.950 . S
C1242 C1241 1.334 . S
C1242 C1243 1.287 . S
C1243 C1242 1.287 . S
C1243 C1244 1.524 . S
C1243 H1246 0.999 . S
C1244 H1214 0.950 . S
C1244 C1243 1.524 . S
C1244 C1245 1.415 . S
C1245 H1215 0.950 . S
C1245 C1240 1.363 . S
C1245 C1244 1.415 . S
H1246 C1243 0.999 . S
H1247 C1228 0.913 . S
H1248 C1266 0.946 1_565 S
H1249 C1268 0.951 . S
H1250 C1270 0.950 . S
H1251 C1271 0.950 . S
H1252 C1273 0.950 . S
H1253 C1276 0.946 1_545 S
H1254 C1277 0.950 . S
H1255 C1279 0.950 . S
H1256 C1280 0.950 . S
H1257 C1281 0.951 . S
H1258 C1283 0.951 . S
H1259 C1285 0.950 . S
H1260 C1286 0.950 . S
H1261 C1288 0.950 . S
H1262 C1291 0.950 . S
H1263 C1292 0.950 . S
H1264 C1294 0.950 . S
H1265 C1295 0.950 . S
C1266 H1248 0.946 1_545 S
C1266 C1267 1.366 . S
C1266 C1268 1.388 1_545 S
C1267 C1266 1.366 . S
C1267 C1271 1.385 . S
C1268 H1249 0.951 . S
C1268 C1266 1.388 1_565 S
C1268 C1269 1.366 . S
C1269 C1268 1.366 . S
C1269 C1270 1.414 1_565 S
C1269 C1272 1.499 . S
C1270 H1250 0.950 . S
C1270 C1269 1.414 1_545 S
C1270 C1271 1.374 . S
C1271 H1251 0.950 . S
C1271 C1267 1.385 . S
C1271 C1270 1.374 . S
C1272 C1269 1.499 . S
C1272 C1273 1.373 . S
C1272 C1274 1.389 . S
C1273 H1252 0.950 . S
C1273 C1272 1.373 . S
C1273 C1289 1.377 . S
C1274 C1272 1.389 . S
C1274 C1275 1.524 . S
C1274 C1288 1.377 . S
C1275 C1274 1.524 . S
C1275 C1276 1.403 . S
C1275 C1280 1.363 . S
C1276 H1253 0.946 1_565 S
C1276 C1275 1.403 . S
C1276 C1277 1.331 1_565 S
C1277 H1254 0.950 . S
C1277 C1276 1.331 1_545 S
C1277 C1278 1.287 1_545 S
C1278 C1277 1.287 1_565 S
C1278 C1279 1.524 . S
C1278 H1297 0.913 . S
C1279 H1255 0.950 . S
C1279 C1278 1.524 . S
C1279 C1280 1.415 . S
C1280 H1256 0.950 . S
C1280 C1275 1.363 . S
C1280 C1279 1.415 . S
C1281 H1257 0.951 . S
C1281 C1282 1.366 . S
C1281 C1283 1.388 . S
C1282 C1281 1.366 . S
C1282 C1286 1.385 . S
C1283 H1258 0.951 . S
C1283 C1281 1.388 . S
C1283 C1284 1.366 . S
C1284 C1283 1.366 . S
C1284 C1285 1.414 . S
C1284 C1287 1.499 . S
C1285 H1259 0.950 . S
C1285 C1284 1.414 . S
C1285 C1286 1.374 . S
C1286 H1260 0.950 . S
C1286 C1282 1.385 . S
C1286 C1285 1.374 . S
C1287 C1284 1.499 . S
C1287 C1288 1.373 . S
C1287 C1289 1.389 . S
C1288 H1261 0.950 . S
C1288 C1274 1.377 . S
C1288 C1287 1.373 . S
C1289 C1273 1.377 . S
C1289 C1287 1.389 . S
C1289 C1290 1.524 . S
C1290 C1289 1.524 . S
C1290 C1291 1.397 . S
C1290 C1295 1.363 . S
C1291 H1262 0.950 . S
C1291 C1290 1.397 . S
C1291 C1292 1.334 . S
C1292 H1263 0.950 . S
C1292 C1291 1.334 . S
C1292 C1293 1.287 . S
C1293 C1292 1.287 . S
C1293 C1294 1.524 . S
C1293 H1296 0.999 . S
C1294 H1264 0.950 . S
C1294 C1293 1.524 . S
C1294 C1295 1.415 . S
C1295 H1265 0.950 . S
C1295 C1290 1.363 . S
C1295 C1294 1.415 . S
H1296 C1293 0.999 . S
H1297 C1278 0.913 . S
H1298 C1316 0.951 . S
H1299 C1318 0.951 . S
H1300 C1320 0.950 . S
H1301 C1321 0.950 . S
H1302 C1323 0.950 . S
H1303 C1326 0.950 . S
H1304 C1327 0.950 . S
H1305 C1329 0.950 . S
H1306 C1330 0.950 . S
H1307 C1331 0.951 . S
H1308 C1333 0.951 . S
H1309 C1335 0.950 . S
H1310 C1336 0.950 . S
H1311 C1338 0.950 . S
H1312 C1341 0.950 . S
H1313 C1342 0.950 . S
H1314 C1344 0.950 . S
H1315 C1345 0.950 . S
C1316 H1298 0.951 . S
C1316 C1317 1.366 . S
C1316 C1318 1.388 . S
C1317 C1316 1.366 . S
C1317 C1321 1.385 . S
C1318 H1299 0.951 . S
C1318 C1316 1.388 . S
C1318 C1319 1.366 . S
C1319 C1318 1.366 . S
C1319 C1320 1.414 . S
C1319 C1322 1.499 . S
C1320 H1300 0.950 . S
C1320 C1319 1.414 . S
C1320 C1321 1.374 . S
C1321 H1301 0.950 . S
C1321 C1317 1.385 . S
C1321 C1320 1.374 . S
C1322 C1319 1.499 . S
C1322 C1323 1.373 . S
C1322 C1324 1.389 . S
C1323 H1302 0.950 . S
C1323 C1322 1.373 . S
C1323 C1339 1.377 . S
C1324 C1322 1.389 . S
C1324 C1325 1.524 . S
C1324 C1338 1.377 . S
C1325 C1324 1.524 . S
C1325 C1326 1.397 . S
C1325 C1330 1.363 . S
C1326 H1303 0.950 . S
C1326 C1325 1.397 . S
C1326 C1327 1.334 . S
C1327 H1304 0.950 . S
C1327 C1326 1.334 . S
C1327 C1328 1.287 . S
C1328 C1327 1.287 . S
C1328 C1329 1.524 . S
C1328 H1347 0.913 . S
C1329 H1305 0.950 . S
C1329 C1328 1.524 . S
C1329 C1330 1.415 . S
C1330 H1306 0.950 . S
C1330 C1325 1.363 . S
C1330 C1329 1.415 . S
C1331 H1307 0.951 . S
C1331 C1332 1.366 . S
C1331 C1333 1.388 . S
C1332 C1331 1.366 . S
C1332 C1336 1.385 . S
C1333 H1308 0.951 . S
C1333 C1331 1.388 . S
C1333 C1334 1.366 . S
C1334 C1333 1.366 . S
C1334 C1335 1.414 . S
C1334 C1337 1.499 . S
C1335 H1309 0.950 . S
C1335 C1334 1.414 . S
C1335 C1336 1.374 . S
C1336 H1310 0.950 . S
C1336 C1332 1.385 . S
C1336 C1335 1.374 . S
C1337 C1334 1.499 . S
C1337 C1338 1.373 . S
C1337 C1339 1.389 . S
C1338 H1311 0.950 . S
C1338 C1324 1.377 . S
C1338 C1337 1.373 . S
C1339 C1323 1.377 . S
C1339 C1337 1.389 . S
C1339 C1340 1.524 . S
C1340 C1339 1.524 . S
C1340 C1341 1.397 . S
C1340 C1345 1.363 . S
C1341 H1312 0.950 . S
C1341 C1340 1.397 . S
C1341 C1342 1.334 . S
C1342 H1313 0.950 . S
C1342 C1341 1.334 . S
C1342 C1343 1.287 . S
C1343 C1342 1.287 . S
C1343 C1344 1.524 . S
C1343 H1346 0.999 . S
C1344 H1314 0.950 . S
C1344 C1343 1.524 . S
C1344 C1345 1.415 . S
C1345 H1315 0.950 . S
C1345 C1340 1.363 . S
C1345 C1344 1.415 . S
H1346 C1343 0.999 . S
H1347 C1328 0.913 . S
H1348 C1366 0.951 . S
H1349 C1368 0.951 . S
H1350 C1370 0.950 . S
H1351 C1371 0.950 . S
H1352 C1373 0.950 . S
H1353 C1376 0.950 . S
H1354 C1377 0.950 . S
H1355 C1379 0.950 . S
H1356 C1380 0.950 . S
H1357 C1381 0.951 . S
H1358 C1383 0.951 . S
H1359 C1385 0.950 1_545 S
H1360 C1386 0.950 . S
H1361 C1388 0.950 . S
H1362 C1391 0.950 . S
H1363 C1392 0.950 . S
H1364 C1394 0.950 . S
H1365 C1395 0.950 . S
C1366 H1348 0.951 . S
C1366 C1367 1.366 . S
C1366 C1368 1.388 . S
C1367 C1366 1.366 . S
C1367 C1371 1.385 . S
C1368 H1349 0.951 . S
C1368 C1366 1.388 . S
C1368 C1369 1.366 . S
C1369 C1368 1.366 . S
C1369 C1370 1.414 . S
C1369 C1372 1.499 . S
C1370 H1350 0.950 . S
C1370 C1369 1.414 . S
C1370 C1371 1.374 . S
C1371 H1351 0.950 . S
C1371 C1367 1.385 . S
C1371 C1370 1.374 . S
C1372 C1369 1.499 . S
C1372 C1373 1.373 . S
C1372 C1374 1.389 . S
C1373 H1352 0.950 . S
C1373 C1372 1.373 . S
C1373 C1389 1.377 . S
C1374 C1372 1.389 . S
C1374 C1375 1.524 . S
C1374 C1388 1.377 . S
C1375 C1374 1.524 . S
C1375 C1376 1.397 . S
C1375 C1380 1.363 . S
C1376 H1353 0.950 . S
C1376 C1375 1.397 . S
C1376 C1377 1.334 . S
C1377 H1354 0.950 . S
C1377 C1376 1.334 . S
C1377 C1378 1.287 . S
C1378 C1377 1.287 . S
C1378 C1379 1.524 . S
C1378 H1397 0.913 . S
C1379 H1355 0.950 . S
C1379 C1378 1.524 . S
C1379 C1380 1.415 . S
C1380 H1356 0.950 . S
C1380 C1375 1.363 . S
C1380 C1379 1.415 . S
C1381 H1357 0.951 . S
C1381 C1382 1.366 . S
C1381 C1383 1.388 . S
C1382 C1381 1.366 . S
C1382 C1386 1.385 . S
C1383 H1358 0.951 . S
C1383 C1381 1.388 . S
C1383 C1384 1.366 1_565 S
C1384 C1383 1.366 1_545 S
C1384 C1385 1.414 1_545 S
C1384 C1387 1.499 . S
C1385 H1359 0.950 1_565 S
C1385 C1384 1.414 1_565 S
C1385 C1386 1.374 . S
C1386 H1360 0.950 . S
C1386 C1382 1.385 . S
C1386 C1385 1.374 . S
C1387 C1384 1.499 . S
C1387 C1388 1.373 . S
C1387 C1389 1.389 . S
C1388 H1361 0.950 . S
C1388 C1374 1.377 . S
C1388 C1387 1.373 . S
C1389 C1373 1.377 . S
C1389 C1387 1.389 . S
C1389 C1390 1.524 . S
C1390 C1389 1.524 . S
C1390 C1391 1.397 . S
C1390 C1395 1.363 . S
C1391 H1362 0.950 . S
C1391 C1390 1.397 . S
C1391 C1392 1.334 . S
C1392 H1363 0.950 . S
C1392 C1391 1.334 . S
C1392 C1393 1.287 . S
C1393 C1392 1.287 . S
C1393 C1394 1.524 . S
C1393 H1396 0.999 . S
C1394 H1364 0.950 . S
C1394 C1393 1.524 . S
C1394 C1395 1.415 . S
C1395 H1365 0.950 . S
C1395 C1390 1.363 . S
C1395 C1394 1.415 . S
H1396 C1393 0.999 . S
H1397 C1378 0.913 . S
H1398 C1416 0.951 . S
H1399 C1418 0.951 . S
H1400 C1420 0.950 . S
H1401 C1421 0.950 . S
H1402 C1423 0.950 . S
H1403 C1426 0.950 . S
H1404 C1427 0.950 . S
H1405 C1429 0.950 . S
H1406 C1430 0.950 . S
H1407 C1431 0.951 . S
H1408 C1433 0.912 1_556 S
H1409 C1435 0.950 . S
H1410 C1436 0.950 . S
H1411 C1438 0.950 1_554 S
H1412 C1441 0.950 . S
H1413 C1442 0.950 . S
H1414 C1444 0.950 . S
H1415 C1445 0.950 . S
C1416 H1398 0.951 . S
C1416 C1417 1.366 . S
C1416 C1418 1.388 . S
C1417 C1416 1.366 . S
C1417 C1421 1.385 . S
C1418 H1399 0.951 . S
C1418 C1416 1.388 . S
C1418 C1419 1.366 . S
C1419 C1418 1.366 . S
C1419 C1420 1.414 . S
C1419 C1422 1.499 . S
C1420 H1400 0.950 . S
C1420 C1419 1.414 . S
C1420 C1421 1.374 . S
C1421 H1401 0.950 . S
C1421 C1417 1.385 . S
C1421 C1420 1.374 . S
C1422 C1419 1.499 . S
C1422 C1423 1.373 . S
C1422 C1424 1.389 . S
C1423 H1402 0.950 . S
C1423 C1422 1.373 . S
C1423 C1439 1.377 . S
C1424 C1422 1.389 . S
C1424 C1425 1.524 . S
C1424 C1438 1.377 . S
C1425 C1424 1.524 . S
C1425 C1426 1.397 . S
C1425 C1430 1.363 1_556 S
C1426 H1403 0.950 . S
C1426 C1425 1.397 . S
C1426 C1427 1.334 . S
C1427 H1404 0.950 . S
C1427 C1426 1.334 . S
C1427 C1428 1.287 . S
C1428 C1427 1.287 . S
C1428 C1429 1.524 1_556 S
C1428 H1447 0.913 . S
C1429 H1405 0.950 . S
C1429 C1428 1.524 1_554 S
C1429 C1430 1.415 . S
C1430 H1406 0.950 . S
C1430 C1425 1.363 1_554 S
C1430 C1429 1.415 . S
C1431 H1407 0.951 . S
C1431 C1432 1.366 . S
C1431 C1433 1.388 . S
C1432 C1431 1.366 . S
C1432 C1436 1.385 . S
C1433 H1408 0.912 1_554 S
C1433 C1431 1.388 . S
C1433 C1434 1.366 . S
C1434 C1433 1.366 . S
C1434 C1435 1.414 . S
C1434 C1437 1.499 1_554 S
C1435 H1409 0.950 . S
C1435 C1434 1.414 . S
C1435 C1436 1.374 . S
C1436 H1410 0.950 . S
C1436 C1432 1.385 . S
C1436 C1435 1.374 . S
C1437 C1434 1.499 1_556 S
C1437 C1438 1.373 . S
C1437 C1439 1.389 . S
C1438 H1411 0.950 1_556 S
C1438 C1424 1.377 . S
C1438 C1437 1.373 . S
C1439 C1423 1.377 . S
C1439 C1437 1.389 . S
C1439 C1440 1.524 . S
C1440 C1439 1.524 . S
C1440 C1441 1.397 . S
C1440 C1445 1.363 . S
C1441 H1412 0.950 . S
C1441 C1440 1.397 . S
C1441 C1442 1.334 . S
C1442 H1413 0.950 . S
C1442 C1441 1.334 . S
C1442 C1443 1.287 . S
C1443 C1442 1.287 . S
C1443 C1444 1.524 . S
C1443 H1446 0.999 . S
C1444 H1414 0.950 . S
C1444 C1443 1.524 . S
C1444 C1445 1.415 . S
C1445 H1415 0.950 . S
C1445 C1440 1.363 . S
C1445 C1444 1.415 . S
H1446 C1443 0.999 . S
H1447 C1428 0.913 . S
H1448 C1466 0.951 . S
H1449 C1468 0.951 . S
H1450 C1470 0.950 . S
H1451 C1471 0.950 . S
H1452 C1473 0.950 . S
H1453 C1476 0.950 . S
H1454 C1477 0.950 . S
H1455 C1479 0.950 . S
H1456 C1480 0.950 . S
H1457 C1481 0.951 . S
H1458 C1483 0.951 . S
H1459 C1485 0.950 . S
H1460 C1486 0.950 . S
H1461 C1488 0.950 1_565 S
H1462 C1491 0.950 . S
H1463 C1492 0.950 . S
H1464 C1494 0.950 . S
H1465 C1495 0.950 . S
C1466 H1448 0.951 . S
C1466 C1467 1.366 . S
C1466 C1468 1.388 . S
C1467 C1466 1.366 . S
C1467 C1471 1.385 . S
C1468 H1449 0.951 . S
C1468 C1466 1.388 . S
C1468 C1469 1.366 . S
C1469 C1468 1.366 . S
C1469 C1470 1.414 . S
C1469 C1472 1.499 . S
C1470 H1450 0.950 . S
C1470 C1469 1.414 . S
C1470 C1471 1.374 . S
C1471 H1451 0.950 . S
C1471 C1467 1.385 . S
C1471 C1470 1.374 . S
C1472 C1469 1.499 . S
C1472 C1473 1.373 . S
C1472 C1474 1.389 . S
C1473 H1452 0.950 . S
C1473 C1472 1.373 . S
C1473 C1489 1.377 . S
C1474 C1472 1.389 . S
C1474 C1475 1.524 . S
C1474 C1488 1.377 . S
C1475 C1474 1.524 . S
C1475 C1476 1.397 . S
C1475 C1480 1.363 . S
C1476 H1453 0.950 . S
C1476 C1475 1.397 . S
C1476 C1477 1.334 . S
C1477 H1454 0.950 . S
C1477 C1476 1.334 . S
C1477 C1478 1.287 . S
C1478 C1477 1.287 . S
C1478 C1479 1.524 . S
C1478 H1497 0.913 . S
C1479 H1455 0.950 . S
C1479 C1478 1.524 . S
C1479 C1480 1.415 . S
C1480 H1456 0.950 . S
C1480 C1475 1.363 . S
C1480 C1479 1.415 . S
C1481 H1457 0.951 . S
C1481 C1482 1.366 . S
C1481 C1483 1.388 . S
C1482 C1481 1.366 . S
C1482 C1486 1.385 . S
C1483 H1458 0.951 . S
C1483 C1481 1.388 . S
C1483 C1484 1.366 . S
C1484 C1483 1.366 . S
C1484 C1485 1.414 . S
C1484 C1487 1.466 1_565 S
C1485 H1459 0.950 . S
C1485 C1484 1.414 . S
C1485 C1486 1.374 . S
C1486 H1460 0.950 . S
C1486 C1482 1.385 . S
C1486 C1485 1.374 . S
C1487 C1484 1.466 1_545 S
C1487 C1488 1.379 . S
C1487 C1489 1.416 . S
C1488 H1461 0.950 1_545 S
C1488 C1474 1.377 . S
C1488 C1487 1.379 . S
C1489 C1473 1.377 . S
C1489 C1487 1.416 . S
C1489 C1490 1.524 . S
C1490 C1489 1.524 . S
C1490 C1491 1.397 . S
C1490 C1495 1.363 . S
C1491 H1462 0.950 . S
C1491 C1490 1.397 . S
C1491 C1492 1.334 . S
C1492 H1463 0.950 . S
C1492 C1491 1.334 . S
C1492 C1493 1.287 . S
C1493 C1492 1.287 . S
C1493 C1494 1.524 . S
C1493 H1496 0.999 . S
C1494 H1464 0.950 . S
C1494 C1493 1.524 . S
C1494 C1495 1.415 . S
C1495 H1465 0.950 . S
C1495 C1490 1.363 . S
C1495 C1494 1.415 . S
H1496 C1493 0.999 . S
H1497 C1478 0.913 . S
H1498 C1516 0.951 . S
H1499 C1518 0.951 . S
H1500 C1520 0.950 . S
H1501 C1521 0.950 . S
H1502 C1523 0.950 . S
H1503 C1526 0.950 . S
H1504 C1527 0.950 . S
H1505 C1529 0.950 . S
H1506 C1530 0.950 . S
H1507 C1531 0.951 . S
H1508 C1533 0.951 . S
H1509 C1535 0.950 . S
H1510 C1536 0.950 . S
H1511 C1538 0.950 . S
H1512 C1541 0.950 . S
H1513 C1542 0.950 . S
H1514 C1544 0.950 . S
H1515 C1545 0.950 . S
C1516 H1498 0.951 . S
C1516 C1517 1.366 . S
C1516 C1518 1.388 . S
C1517 C1516 1.366 . S
C1517 C1521 1.385 . S
C1518 H1499 0.951 . S
C1518 C1516 1.388 . S
C1518 C1519 1.366 . S
C1519 C1518 1.366 . S
C1519 C1520 1.414 . S
C1519 C1522 1.499 . S
C1520 H1500 0.950 . S
C1520 C1519 1.414 . S
C1520 C1521 1.374 . S
C1521 H1501 0.950 . S
C1521 C1517 1.385 . S
C1521 C1520 1.374 . S
C1522 C1519 1.499 . S
C1522 C1523 1.373 . S
C1522 C1524 1.389 . S
C1523 H1502 0.950 . S
C1523 C1522 1.373 . S
C1523 C1539 1.377 . S
C1524 C1522 1.389 . S
C1524 C1525 1.524 . S
C1524 C1538 1.377 . S
C1525 C1524 1.524 . S
C1525 C1526 1.397 . S
C1525 C1530 1.363 . S
C1526 H1503 0.950 . S
C1526 C1525 1.397 . S
C1526 C1527 1.334 . S
C1527 H1504 0.950 . S
C1527 C1526 1.334 . S
C1527 C1528 1.287 . S
C1528 C1527 1.287 . S
C1528 C1529 1.524 . S
C1528 H1547 0.913 . S
C1529 H1505 0.950 . S
C1529 C1528 1.524 . S
C1529 C1530 1.415 . S
C1530 H1506 0.950 . S
C1530 C1525 1.363 . S
C1530 C1529 1.415 . S
C1531 H1507 0.951 . S
C1531 C1532 1.366 . S
C1531 C1533 1.388 . S
C1532 C1531 1.366 . S
C1532 C1536 1.385 . S
C1533 H1508 0.951 . S
C1533 C1531 1.388 . S
C1533 C1534 1.366 . S
C1534 C1533 1.366 . S
C1534 C1535 1.414 . S
C1534 C1537 1.499 . S
C1535 H1509 0.950 . S
C1535 C1534 1.414 . S
C1535 C1536 1.374 . S
C1536 H1510 0.950 . S
C1536 C1532 1.385 . S
C1536 C1535 1.374 . S
C1537 C1534 1.499 . S
C1537 C1538 1.373 . S
C1537 C1539 1.389 . S
C1538 H1511 0.950 . S
C1538 C1524 1.377 . S
C1538 C1537 1.373 . S
C1539 C1523 1.377 . S
C1539 C1537 1.389 . S
C1539 C1540 1.524 . S
C1540 C1539 1.524 . S
C1540 C1541 1.397 . S
C1540 C1545 1.363 . S
C1541 H1512 0.950 . S
C1541 C1540 1.397 . S
C1541 C1542 1.334 . S
C1542 H1513 0.950 . S
C1542 C1541 1.334 . S
C1542 C1543 1.287 . S
C1543 C1542 1.287 . S
C1543 C1544 1.524 . S
C1543 H1546 0.999 . S
C1544 H1514 0.950 . S
C1544 C1543 1.524 . S
C1544 C1545 1.415 . S
C1545 H1515 0.950 . S
C1545 C1540 1.363 . S
C1545 C1544 1.415 . S
H1546 C1543 0.999 . S
H1547 C1528 0.913 . S
H1548 C1566 0.951 . S
H1549 C1568 0.904 1_565 S
H1550 C1570 0.950 . S
H1551 C1571 0.950 . S
H1552 C1573 0.950 . S
H1553 C1576 0.950 . S
H1554 C1577 0.950 . S
H1555 C1579 0.950 . S
H1556 C1580 0.950 . S
H1557 C1581 0.951 . S
H1558 C1583 0.951 . S
H1559 C1585 0.950 . S
H1560 C1586 0.950 . S
H1561 C1588 0.950 . S
H1562 C1591 0.950 . S
H1563 C1592 0.950 . S
H1564 C1594 0.950 . S
H1565 C1595 0.950 . S
C1566 H1548 0.951 . S
C1566 C1567 1.366 . S
C1566 C1568 1.388 . S
C1567 C1566 1.366 . S
C1567 C1571 1.385 . S
C1568 H1549 0.904 1_545 S
C1568 C1566 1.388 . S
C1568 C1569 1.366 . S
C1569 C1568 1.366 . S
C1569 C1570 1.414 . S
C1569 C1572 1.499 . S
C1570 H1550 0.950 . S
C1570 C1569 1.414 . S
C1570 C1571 1.374 . S
C1571 H1551 0.950 . S
C1571 C1567 1.385 . S
C1571 C1570 1.374 . S
C1572 C1569 1.499 . S
C1572 C1573 1.373 . S
C1572 C1574 1.389 1_545 S
C1573 H1552 0.950 . S
C1573 C1572 1.373 . S
C1573 C1589 1.377 1_545 S
C1574 C1572 1.389 1_565 S
C1574 C1575 1.524 . S
C1574 C1588 1.377 . S
C1575 C1574 1.524 . S
C1575 C1576 1.397 1_565 S
C1575 C1580 1.363 . S
C1576 H1553 0.950 . S
C1576 C1575 1.397 1_545 S
C1576 C1577 1.334 . S
C1577 H1554 0.950 . S
C1577 C1576 1.334 . S
C1577 C1578 1.287 1_545 S
C1578 C1577 1.287 1_565 S
C1578 C1579 1.524 . S
C1578 H1597 0.913 . S
C1579 H1555 0.950 . S
C1579 C1578 1.524 . S
C1579 C1580 1.415 . S
C1580 H1556 0.950 . S
C1580 C1575 1.363 . S
C1580 C1579 1.415 . S
C1581 H1557 0.951 . S
C1581 C1582 1.366 . S
C1581 C1583 1.388 . S
C1582 C1581 1.366 . S
C1582 C1586 1.385 . S
C1583 H1558 0.951 . S
C1583 C1581 1.388 . S
C1583 C1584 1.366 . S
C1584 C1583 1.366 . S
C1584 C1585 1.414 . S
C1584 C1587 1.499 . S
C1585 H1559 0.950 . S
C1585 C1584 1.414 . S
C1585 C1586 1.374 . S
C1586 H1560 0.950 . S
C1586 C1582 1.385 . S
C1586 C1585 1.374 . S
C1587 C1584 1.499 . S
C1587 C1588 1.373 . S
C1587 C1589 1.389 . S
C1588 H1561 0.950 . S
C1588 C1574 1.377 . S
C1588 C1587 1.373 . S
C1589 C1573 1.377 1_565 S
C1589 C1587 1.389 . S
C1589 C1590 1.524 . S
C1590 C1589 1.524 . S
C1590 C1591 1.397 . S
C1590 C1595 1.363 1_565 S
C1591 H1562 0.950 . S
C1591 C1590 1.397 . S
C1591 C1592 1.334 . S
C1592 H1563 0.950 . S
C1592 C1591 1.334 . S
C1592 C1593 1.287 . S
C1593 C1592 1.287 . S
C1593 C1594 1.524 1_565 S
C1593 H1596 0.999 . S
C1594 H1564 0.950 . S
C1594 C1593 1.524 1_545 S
C1594 C1595 1.415 . S
C1595 H1565 0.950 . S
C1595 C1590 1.363 1_545 S
C1595 C1594 1.415 . S
H1596 C1593 0.999 . S
H1597 C1578 0.913 . S
H1598 C1616 0.951 . S
H1599 C1618 0.951 . S
H1600 C1620 0.950 . S
H1601 C1621 0.950 . S
H1602 C1623 0.950 . S
H1603 C1626 0.950 1_556 S
H1604 C1627 0.950 1_556 S
H1605 C1629 0.950 . S
H1606 C1630 0.950 . S
H1607 C1631 0.951 . S
H1608 C1633 0.951 . S
H1609 C1635 0.950 . S
H1610 C1636 0.950 . S
H1611 C1638 0.950 . S
H1612 C1641 0.950 . S
H1613 C1642 0.950 . S
H1614 C1644 0.950 . S
H1615 C1645 0.950 . S
C1616 H1598 0.951 . S
C1616 C1617 1.366 . S
C1616 C1618 1.388 . S
C1617 C1616 1.366 . S
C1617 C1621 1.385 . S
C1618 H1599 0.951 . S
C1618 C1616 1.388 . S
C1618 C1619 1.366 . S
C1619 C1618 1.366 . S
C1619 C1620 1.414 . S
C1619 C1622 1.499 . S
C1620 H1600 0.950 . S
C1620 C1619 1.414 . S
C1620 C1621 1.374 . S
C1621 H1601 0.950 . S
C1621 C1617 1.385 . S
C1621 C1620 1.374 . S
C1622 C1619 1.499 . S
C1622 C1623 1.373 . S
C1622 C1624 1.389 1_556 S
C1623 H1602 0.950 . S
C1623 C1622 1.373 . S
C1623 C1639 1.377 1_556 S
C1624 C1622 1.389 1_554 S
C1624 C1625 1.524 . S
C1624 C1638 1.377 . S
C1625 C1624 1.524 . S
C1625 C1626 1.397 . S
C1625 C1630 1.363 . S
C1626 H1603 0.950 1_554 S
C1626 C1625 1.397 . S
C1626 C1627 1.334 . S
C1627 H1604 0.950 1_554 S
C1627 C1626 1.334 . S
C1627 C1628 1.287 . S
C1628 C1627 1.287 . S
C1628 C1629 1.524 . S
C1628 H1647 0.913 . S
C1629 H1605 0.950 . S
C1629 C1628 1.524 . S
C1629 C1630 1.415 . S
C1630 H1606 0.950 . S
C1630 C1625 1.363 . S
C1630 C1629 1.415 . S
C1631 H1607 0.951 . S
C1631 C1632 1.366 . S
C1631 C1633 1.388 . S
C1632 C1631 1.366 . S
C1632 C1636 1.385 . S
C1633 H1608 0.951 . S
C1633 C1631 1.388 . S
C1633 C1634 1.366 . S
C1634 C1633 1.366 . S
C1634 C1635 1.414 . S
C1634 C1637 1.499 . S
C1635 H1609 0.950 . S
C1635 C1634 1.414 . S
C1635 C1636 1.374 . S
C1636 H1610 0.950 . S
C1636 C1632 1.385 . S
C1636 C1635 1.374 . S
C1637 C1634 1.499 . S
C1637 C1638 1.373 . S
C1637 C1639 1.389 . S
C1638 H1611 0.950 . S
C1638 C1624 1.377 . S
C1638 C1637 1.373 . S
C1639 C1623 1.377 1_554 S
C1639 C1637 1.389 . S
C1639 C1640 1.524 . S
C1640 C1639 1.524 . S
C1640 C1641 1.397 . S
C1640 C1645 1.363 1_554 S
C1641 H1612 0.950 . S
C1641 C1640 1.397 . S
C1641 C1642 1.334 . S
C1642 H1613 0.950 . S
C1642 C1641 1.334 . S
C1642 C1643 1.287 1_554 S
C1643 C1642 1.287 1_556 S
C1643 C1644 1.524 . S
C1643 H1646 0.999 . S
C1644 H1614 0.950 . S
C1644 C1643 1.524 . S
C1644 C1645 1.415 . S
C1645 H1615 0.950 . S
C1645 C1640 1.363 1_556 S
C1645 C1644 1.415 . S
H1646 C1643 0.999 . S
H1647 C1628 0.913 . S
H1648 C1666 0.951 . S
H1649 C1668 0.951 . S
H1650 C1670 0.950 . S
H1651 C1671 0.950 . S
H1652 C1673 0.950 . S
H1653 C1676 0.950 . S
H1654 C1677 0.950 . S
H1655 C1679 0.950 . S
H1656 C1680 0.950 . S
H1657 C1681 0.951 . S
H1658 C1683 0.951 . S
H1659 C1685 0.950 . S
H1660 C1686 0.950 . S
H1661 C1688 0.950 . S
H1662 C1691 0.950 . S
H1663 C1692 0.950 . S
H1664 C1694 0.950 . S
H1665 C1695 0.950 . S
C1666 H1648 0.951 . S
C1666 C1667 1.366 . S
C1666 C1668 1.388 . S
C1667 C1666 1.366 . S
C1667 C1671 1.385 . S
C1668 H1649 0.951 . S
C1668 C1666 1.388 . S
C1668 C1669 1.366 . S
C1669 C1668 1.366 . S
C1669 C1670 1.414 . S
C1669 C1672 1.499 . S
C1670 H1650 0.950 . S
C1670 C1669 1.414 . S
C1670 C1671 1.374 . S
C1671 H1651 0.950 . S
C1671 C1667 1.385 . S
C1671 C1670 1.374 . S
C1672 C1669 1.499 . S
C1672 C1673 1.373 . S
C1672 C1674 1.389 . S
C1673 H1652 0.950 . S
C1673 C1672 1.373 . S
C1673 C1689 1.377 . S
C1674 C1672 1.389 . S
C1674 C1675 1.524 . S
C1674 C1688 1.377 . S
C1675 C1674 1.524 . S
C1675 C1676 1.397 . S
C1675 C1680 1.363 . S
C1676 H1653 0.950 . S
C1676 C1675 1.397 . S
C1676 C1677 1.334 . S
C1677 H1654 0.950 . S
C1677 C1676 1.334 . S
C1677 C1678 1.287 . S
C1678 C1677 1.287 . S
C1678 C1679 1.524 . S
C1678 H1697 0.913 . S
C1679 H1655 0.950 . S
C1679 C1678 1.524 . S
C1679 C1680 1.415 . S
C1680 H1656 0.950 . S
C1680 C1675 1.363 . S
C1680 C1679 1.415 . S
C1681 H1657 0.951 . S
C1681 C1682 1.366 . S
C1681 C1683 1.388 . S
C1682 C1681 1.366 . S
C1682 C1686 1.385 1_455 S
C1683 H1658 0.951 . S
C1683 C1681 1.388 . S
C1683 C1684 1.366 1_455 S
C1684 C1683 1.366 1_655 S
C1684 C1685 1.414 . S
C1684 C1687 1.499 . S
C1685 H1659 0.950 . S
C1685 C1684 1.414 . S
C1685 C1686 1.374 . S
C1686 H1660 0.950 . S
C1686 C1682 1.385 1_655 S
C1686 C1685 1.374 . S
C1687 C1684 1.499 . S
C1687 C1688 1.373 . S
C1687 C1689 1.389 . S
C1688 H1661 0.950 . S
C1688 C1674 1.377 . S
C1688 C1687 1.373 . S
C1689 C1673 1.377 . S
C1689 C1687 1.389 . S
C1689 C1690 1.524 . S
C1690 C1689 1.524 . S
C1690 C1691 1.397 . S
C1690 C1695 1.363 . S
C1691 H1662 0.950 . S
C1691 C1690 1.397 . S
C1691 C1692 1.334 . S
C1692 H1663 0.950 . S
C1692 C1691 1.334 . S
C1692 C1693 1.287 . S
C1693 C1692 1.287 . S
C1693 C1694 1.524 . S
C1693 H1696 0.999 1_554 S
C1694 H1664 0.950 . S
C1694 C1693 1.524 . S
C1694 C1695 1.415 . S
C1695 H1665 0.950 . S
C1695 C1690 1.363 . S
C1695 C1694 1.415 . S
H1696 C1693 0.999 1_556 S
H1697 C1678 0.913 . S
H1698 C1716 0.951 . S
H1699 C1718 0.951 . S
H1700 C1720 0.950 . S
H1701 C1721 0.950 . S
H1702 C1723 0.950 . S
H1703 C1726 0.950 . S
H1704 C1727 0.950 . S
H1705 C1729 0.950 . S
H1706 C1730 0.950 . S
H1707 C1731 0.951 . S
H1708 C1733 0.951 . S
H1709 C1735 0.950 . S
H1710 C1736 0.950 . S
H1711 C1738 0.950 . S
H1712 C1741 0.950 . S
H1713 C1742 0.950 . S
H1714 C1744 0.950 . S
H1715 C1745 0.950 . S
C1716 H1698 0.951 . S
C1716 C1717 1.366 . S
C1716 C1718 1.388 . S
C1717 C1716 1.366 . S
C1717 C1721 1.385 . S
C1718 H1699 0.951 . S
C1718 C1716 1.388 . S
C1718 C1719 1.366 . S
C1719 C1718 1.366 . S
C1719 C1720 1.414 . S
C1719 C1722 1.499 . S
C1720 H1700 0.950 . S
C1720 C1719 1.414 . S
C1720 C1721 1.374 . S
C1721 H1701 0.950 . S
C1721 C1717 1.385 . S
C1721 C1720 1.374 . S
C1722 C1719 1.499 . S
C1722 C1723 1.373 . S
C1722 C1724 1.389 . S
C1723 H1702 0.950 . S
C1723 C1722 1.373 . S
C1723 C1739 1.377 . S
C1724 C1722 1.389 . S
C1724 C1725 1.524 . S
C1724 C1738 1.377 . S
C1725 C1724 1.524 . S
C1725 C1726 1.397 . S
C1725 C1730 1.363 . S
C1726 H1703 0.950 . S
C1726 C1725 1.397 . S
C1726 C1727 1.334 . S
C1727 H1704 0.950 . S
C1727 C1726 1.334 . S
C1727 C1728 1.287 . S
C1728 C1727 1.287 . S
C1728 C1729 1.524 . S
C1728 H1747 0.913 . S
C1729 H1705 0.950 . S
C1729 C1728 1.524 . S
C1729 C1730 1.415 . S
C1730 H1706 0.950 . S
C1730 C1725 1.363 . S
C1730 C1729 1.415 . S
C1731 H1707 0.951 . S
C1731 C1732 1.366 . S
C1731 C1733 1.388 . S
C1732 C1731 1.366 . S
C1732 C1736 1.385 . S
C1733 H1708 0.951 . S
C1733 C1731 1.388 . S
C1733 C1734 1.366 . S
C1734 C1733 1.366 . S
C1734 C1735 1.414 . S
C1734 C1737 1.499 . S
C1735 H1709 0.950 . S
C1735 C1734 1.414 . S
C1735 C1736 1.374 . S
C1736 H1710 0.950 . S
C1736 C1732 1.385 . S
C1736 C1735 1.374 . S
C1737 C1734 1.499 . S
C1737 C1738 1.373 . S
C1737 C1739 1.389 . S
C1738 H1711 0.950 . S
C1738 C1724 1.377 . S
C1738 C1737 1.373 . S
C1739 C1723 1.377 . S
C1739 C1737 1.389 . S
C1739 C1740 1.524 . S
C1740 C1739 1.524 . S
C1740 C1741 1.397 . S
C1740 C1745 1.363 . S
C1741 H1712 0.950 . S
C1741 C1740 1.397 . S
C1741 C1742 1.334 . S
C1742 H1713 0.950 . S
C1742 C1741 1.334 . S
C1742 C1743 1.287 . S
C1743 C1742 1.287 . S
C1743 C1744 1.524 . S
C1743 H1746 0.999 . S
C1744 H1714 0.950 . S
C1744 C1743 1.524 . S
C1744 C1745 1.415 . S
C1745 H1715 0.950 . S
C1745 C1740 1.363 . S
C1745 C1744 1.415 . S
H1746 C1743 0.999 . S
H1747 C1728 0.913 . S
H1748 C1766 0.951 . S
H1749 C1768 0.951 . S
H1750 C1770 0.950 . S
H1751 C1771 0.950 . S
H1752 C1773 0.950 . S
H1753 C1776 0.950 . S
H1754 C1777 0.950 . S
H1755 C1779 0.950 . S
H1756 C1780 0.950 . S
H1757 C1781 0.951 . S
H1758 C1783 0.951 . S
H1759 C1785 0.950 . S
H1760 C1786 0.950 . S
H1761 C1788 0.950 . S
H1762 C1791 0.950 . S
H1763 C1792 0.950 . S
H1764 C1794 0.950 . S
H1765 C1795 0.953 1_655 S
C1766 H1748 0.951 . S
C1766 C1767 1.366 . S
C1766 C1768 1.388 . S
C1767 C1766 1.366 . S
C1767 C1771 1.385 . S
C1768 H1749 0.951 . S
C1768 C1766 1.388 . S
C1768 C1769 1.366 . S
C1769 C1768 1.366 . S
C1769 C1770 1.414 . S
C1769 C1772 1.499 . S
C1770 H1750 0.950 . S
C1770 C1769 1.414 . S
C1770 C1771 1.374 . S
C1771 H1751 0.950 . S
C1771 C1767 1.385 . S
C1771 C1770 1.374 . S
C1772 C1769 1.499 . S
C1772 C1773 1.373 . S
C1772 C1774 1.389 1_655 S
C1773 H1752 0.950 . S
C1773 C1772 1.373 . S
C1773 C1789 1.377 1_655 S
C1774 C1772 1.389 1_455 S
C1774 C1775 1.524 . S
C1774 C1788 1.377 . S
C1775 C1774 1.524 . S
C1775 C1776 1.397 . S
C1775 C1780 1.363 . S
C1776 H1753 0.950 . S
C1776 C1775 1.397 . S
C1776 C1777 1.334 . S
C1777 H1754 0.950 . S
C1777 C1776 1.334 . S
C1777 C1778 1.287 . S
C1778 C1777 1.287 . S
C1778 C1779 1.524 . S
C1778 H1797 0.913 . S
C1779 H1755 0.950 . S
C1779 C1778 1.524 . S
C1779 C1780 1.415 . S
C1780 H1756 0.950 . S
C1780 C1775 1.363 . S
C1780 C1779 1.415 . S
C1781 H1757 0.951 . S
C1781 C1782 1.366 . S
C1781 C1783 1.388 . S
C1782 C1781 1.366 . S
C1782 C1786 1.385 . S
C1783 H1758 0.951 . S
C1783 C1781 1.388 . S
C1783 C1784 1.366 . S
C1784 C1783 1.366 . S
C1784 C1785 1.414 . S
C1784 C1787 1.499 . S
C1785 H1759 0.950 . S
C1785 C1784 1.414 . S
C1785 C1786 1.374 . S
C1786 H1760 0.950 . S
C1786 C1782 1.385 . S
C1786 C1785 1.374 . S
C1787 C1784 1.499 . S
C1787 C1788 1.373 . S
C1787 C1789 1.389 . S
C1788 H1761 0.950 . S
C1788 C1774 1.377 . S
C1788 C1787 1.373 . S
C1789 C1773 1.377 1_455 S
C1789 C1787 1.389 . S
C1789 C1790 1.524 . S
C1790 C1789 1.524 . S
C1790 C1791 1.397 . S
C1790 C1795 1.364 . S
C1791 H1762 0.950 . S
C1791 C1790 1.397 . S
C1791 C1792 1.334 . S
C1792 H1763 0.950 . S
C1792 C1791 1.334 . S
C1792 C1793 1.287 1_455 S
C1793 C1792 1.287 1_655 S
C1793 C1794 1.524 . S
C1793 H1796 0.999 . S
C1794 H1764 0.950 . S
C1794 C1793 1.524 . S
C1794 C1795 1.413 1_655 S
C1795 H1765 0.953 1_455 S
C1795 C1790 1.364 . S
C1795 C1794 1.413 1_455 S
H1796 C1793 0.999 . S
H1797 C1778 0.913 . S
H1798 C1816 0.951 . S
H1799 C1818 0.951 . S
H1800 C1820 0.950 . S
H1801 C1821 0.950 . S
H1802 C1823 0.950 . S
H1803 C1826 0.950 . S
H1804 C1827 0.950 . S
H1805 C1829 0.950 . S
H1806 C1830 0.950 . S
H1807 C1831 0.951 . S
H1808 C1833 0.951 . S
H1809 C1835 0.950 . S
H1810 C1836 0.950 . S
H1811 C1838 0.950 . S
H1812 C1841 0.950 . S
H1813 C1842 0.950 . S
H1814 C1844 0.950 . S
H1815 C1845 0.950 . S
C1816 H1798 0.951 . S
C1816 C1817 1.366 1_655 S
C1816 C1818 1.388 1_655 S
C1817 C1816 1.366 1_455 S
C1817 C1821 1.385 . S
C1818 H1799 0.951 . S
C1818 C1816 1.388 1_455 S
C1818 C1819 1.366 . S
C1819 C1818 1.366 . S
C1819 C1820 1.414 . S
C1819 C1822 1.499 . S
C1820 H1800 0.950 . S
C1820 C1819 1.414 . S
C1820 C1821 1.374 . S
C1821 H1801 0.950 . S
C1821 C1817 1.385 . S
C1821 C1820 1.374 . S
C1822 C1819 1.499 . S
C1822 C1823 1.373 . S
C1822 C1824 1.389 . S
C1823 H1802 0.950 . S
C1823 C1822 1.373 . S
C1823 C1839 1.377 . S
C1824 C1822 1.389 . S
C1824 C1825 1.524 . S
C1824 C1838 1.377 . S
C1825 C1824 1.524 . S
C1825 C1826 1.397 . S
C1825 C1830 1.363 . S
C1826 H1803 0.950 . S
C1826 C1825 1.397 . S
C1826 C1827 1.334 . S
C1827 H1804 0.950 . S
C1827 C1826 1.334 . S
C1827 C1828 1.287 . S
C1828 C1827 1.287 . S
C1828 C1829 1.524 . S
C1828 H1847 0.913 . S
C1829 H1805 0.950 . S
C1829 C1828 1.524 . S
C1829 C1830 1.415 . S
C1830 H1806 0.950 . S
C1830 C1825 1.363 . S
C1830 C1829 1.415 . S
C1831 H1807 0.951 . S
C1831 C1832 1.366 . S
C1831 C1833 1.388 . S
C1832 C1831 1.366 . S
C1832 C1836 1.385 . S
C1833 H1808 0.951 . S
C1833 C1831 1.388 . S
C1833 C1834 1.366 . S
C1834 C1833 1.366 . S
C1834 C1835 1.414 . S
C1834 C1837 1.499 . S
C1835 H1809 0.950 . S
C1835 C1834 1.414 . S
C1835 C1836 1.374 . S
C1836 H1810 0.950 . S
C1836 C1832 1.385 . S
C1836 C1835 1.374 . S
C1837 C1834 1.499 . S
C1837 C1838 1.373 . S
C1837 C1839 1.389 . S
C1838 H1811 0.950 . S
C1838 C1824 1.377 . S
C1838 C1837 1.373 . S
C1839 C1823 1.377 . S
C1839 C1837 1.389 . S
C1839 C1840 1.524 . S
C1840 C1839 1.524 . S
C1840 C1841 1.397 . S
C1840 C1845 1.363 . S
C1841 H1812 0.950 . S
C1841 C1840 1.397 . S
C1841 C1842 1.334 . S
C1842 H1813 0.950 . S
C1842 C1841 1.334 . S
C1842 C1843 1.287 . S
C1843 C1842 1.287 . S
C1843 C1844 1.524 . S
C1843 H1846 0.999 . S
C1844 H1814 0.950 . S
C1844 C1843 1.524 . S
C1844 C1845 1.415 . S
C1845 H1815 0.950 . S
C1845 C1840 1.363 . S
C1845 C1844 1.415 . S
H1846 C1843 0.999 . S
H1847 C1828 0.913 . S
H1848 C1866 0.951 . S
H1849 C1868 0.951 . S
H1850 C1870 0.950 . S
H1851 C1871 0.950 . S
H1852 C1873 0.950 . S
H1853 C1876 0.950 . S
H1854 C1877 0.950 . S
H1855 C1879 0.950 . S
H1856 C1880 0.950 . S
H1857 C1881 0.951 . S
H1858 C1883 0.951 . S
H1859 C1885 0.950 . S
H1860 C1886 0.950 . S
H1861 C1888 0.950 . S
H1862 C1891 0.950 . S
H1863 C1892 0.950 . S
H1864 C1894 0.950 . S
H1865 C1895 0.950 . S
C1866 H1848 0.951 . S
C1866 C1867 1.366 . S
C1866 C1868 1.388 . S
C1867 C1866 1.366 . S
C1867 C1871 1.385 . S
C1868 H1849 0.951 . S
C1868 C1866 1.388 . S
C1868 C1869 1.366 . S
C1869 C1868 1.366 . S
C1869 C1870 1.414 . S
C1869 C1872 1.499 . S
C1870 H1850 0.950 . S
C1870 C1869 1.414 . S
C1870 C1871 1.374 . S
C1871 H1851 0.950 . S
C1871 C1867 1.385 . S
C1871 C1870 1.374 . S
C1872 C1869 1.499 . S
C1872 C1873 1.373 . S
C1872 C1874 1.389 . S
C1873 H1852 0.950 . S
C1873 C1872 1.373 . S
C1873 C1889 1.377 . S
C1874 C1872 1.389 . S
C1874 C1875 1.524 . S
C1874 C1888 1.377 . S
C1875 C1874 1.524 . S
C1875 C1876 1.397 . S
C1875 C1880 1.363 . S
C1876 H1853 0.950 . S
C1876 C1875 1.397 . S
C1876 C1877 1.334 . S
C1877 H1854 0.950 . S
C1877 C1876 1.334 . S
C1877 C1878 1.287 . S
C1878 C1877 1.287 . S
C1878 C1879 1.524 . S
C1878 H1897 0.913 . S
C1879 H1855 0.950 . S
C1879 C1878 1.524 . S
C1879 C1880 1.415 . S
C1880 H1856 0.950 . S
C1880 C1875 1.363 . S
C1880 C1879 1.415 . S
C1881 H1857 0.951 . S
C1881 C1882 1.366 . S
C1881 C1883 1.388 . S
C1882 C1881 1.366 . S
C1882 C1886 1.385 . S
C1883 H1858 0.951 . S
C1883 C1881 1.388 . S
C1883 C1884 1.366 . S
C1884 C1883 1.366 . S
C1884 C1885 1.414 . S
C1884 C1887 1.499 . S
C1885 H1859 0.950 . S
C1885 C1884 1.414 . S
C1885 C1886 1.374 . S
C1886 H1860 0.950 . S
C1886 C1882 1.385 . S
C1886 C1885 1.374 . S
C1887 C1884 1.499 . S
C1887 C1888 1.373 . S
C1887 C1889 1.389 . S
C1888 H1861 0.950 . S
C1888 C1874 1.377 . S
C1888 C1887 1.373 . S
C1889 C1873 1.377 . S
C1889 C1887 1.389 . S
C1889 C1890 1.524 . S
C1890 C1889 1.524 . S
C1890 C1891 1.397 . S
C1890 C1895 1.363 . S
C1891 H1862 0.950 . S
C1891 C1890 1.397 . S
C1891 C1892 1.334 . S
C1892 H1863 0.950 . S
C1892 C1891 1.334 . S
C1892 C1893 1.287 . S
C1893 C1892 1.287 . S
C1893 C1894 1.524 . S
C1893 H1896 0.999 . S
C1894 H1864 0.950 . S
C1894 C1893 1.524 . S
C1894 C1895 1.415 . S
C1895 H1865 0.950 . S
C1895 C1890 1.363 . S
C1895 C1894 1.415 . S
H1896 C1893 0.999 . S
H1897 C1878 0.913 . S
H1898 C1916 0.951 . S
H1899 C1918 0.951 . S
H1900 C1920 0.950 . S
H1901 C1921 0.950 . S
H1902 C1923 0.950 . S
H1903 C1926 0.950 . S
H1904 C1927 0.950 . S
H1905 C1929 0.950 . S
H1906 C1930 0.950 . S
H1907 C1931 0.951 . S
H1908 C1933 0.951 1_655 S
H1909 C1935 0.950 . S
H1910 C1936 0.950 . S
H1911 C1938 0.950 1_455 S
H1912 C1941 0.950 . S
H1913 C1942 0.950 . S
H1914 C1944 0.950 . S
H1915 C1945 0.950 . S
C1916 H1898 0.951 . S
C1916 C1917 1.366 . S
C1916 C1918 1.388 . S
C1917 C1916 1.366 . S
C1917 C1921 1.385 . S
C1918 H1899 0.951 . S
C1918 C1916 1.388 . S
C1918 C1919 1.366 . S
C1919 C1918 1.366 . S
C1919 C1920 1.414 . S
C1919 C1922 1.499 . S
C1920 H1900 0.950 . S
C1920 C1919 1.414 . S
C1920 C1921 1.374 . S
C1921 H1901 0.950 . S
C1921 C1917 1.385 . S
C1921 C1920 1.374 . S
C1922 C1919 1.499 . S
C1922 C1923 1.373 . S
C1922 C1924 1.389 . S
C1923 H1902 0.950 . S
C1923 C1922 1.373 . S
C1923 C1939 1.377 . S
C1924 C1922 1.389 . S
C1924 C1925 1.524 . S
C1924 C1938 1.377 . S
C1925 C1924 1.524 . S
C1925 C1926 1.397 . S
C1925 C1930 1.363 1_655 S
C1926 H1903 0.950 . S
C1926 C1925 1.397 . S
C1926 C1927 1.334 . S
C1927 H1904 0.950 . S
C1927 C1926 1.334 . S
C1927 C1928 1.287 . S
C1928 C1927 1.287 . S
C1928 C1929 1.524 1_655 S
C1928 H1947 0.913 . S
C1929 H1905 0.950 . S
C1929 C1928 1.524 1_455 S
C1929 C1930 1.415 . S
C1930 H1906 0.950 . S
C1930 C1925 1.363 1_455 S
C1930 C1929 1.415 . S
C1931 H1907 0.951 . S
C1931 C1932 1.366 . S
C1931 C1933 1.388 . S
C1932 C1931 1.366 . S
C1932 C1936 1.385 . S
C1933 H1908 0.951 1_455 S
C1933 C1931 1.388 . S
C1933 C1934 1.366 . S
C1934 C1933 1.366 . S
C1934 C1935 1.414 . S
C1934 C1937 1.499 1_455 S
C1935 H1909 0.950 . S
C1935 C1934 1.414 . S
C1935 C1936 1.374 . S
C1936 H1910 0.950 . S
C1936 C1932 1.385 . S
C1936 C1935 1.374 . S
C1937 C1934 1.499 1_655 S
C1937 C1938 1.373 . S
C1937 C1939 1.389 . S
C1938 H1911 0.950 1_655 S
C1938 C1924 1.377 . S
C1938 C1937 1.373 . S
C1939 C1923 1.377 . S
C1939 C1937 1.389 . S
C1939 C1940 1.524 . S
C1940 C1939 1.524 . S
C1940 C1941 1.397 . S
C1940 C1945 1.363 . S
C1941 H1912 0.950 . S
C1941 C1940 1.397 . S
C1941 C1942 1.334 . S
C1942 H1913 0.950 . S
C1942 C1941 1.334 . S
C1942 C1943 1.287 . S
C1943 C1942 1.287 . S
C1943 C1944 1.524 . S
C1943 H1946 0.999 . S
C1944 H1914 0.950 . S
C1944 C1943 1.524 . S
C1944 C1945 1.415 . S
C1945 H1915 0.950 . S
C1945 C1940 1.363 . S
C1945 C1944 1.415 . S
H1946 C1943 0.999 . S
H1947 C1928 0.913 . S
H1948 C1966 0.951 . S
H1949 C1968 0.951 . S
H1950 C1970 0.950 . S
H1951 C1971 0.950 . S
H1952 C1973 0.950 . S
H1953 C1976 0.950 . S
H1954 C1977 0.950 . S
H1955 C1979 0.950 . S
H1956 C1980 0.950 . S
H1957 C1981 0.951 . S
H1958 C1983 0.951 . S
H1959 C1985 0.950 . S
H1960 C1986 0.950 . S
H1961 C1988 0.950 . S
H1962 C1991 0.950 . S
H1963 C1992 0.950 . S
H1964 C1994 0.950 . S
H1965 C1995 0.950 . S
C1966 H1948 0.951 . S
C1966 C1967 1.366 . S
C1966 C1968 1.388 . S
C1967 C1966 1.366 . S
C1967 C1971 1.385 . S
C1968 H1949 0.951 . S
C1968 C1966 1.388 . S
C1968 C1969 1.366 . S
C1969 C1968 1.366 . S
C1969 C1970 1.414 . S
C1969 C1972 1.499 . S
C1970 H1950 0.950 . S
C1970 C1969 1.414 . S
C1970 C1971 1.374 . S
C1971 H1951 0.950 . S
C1971 C1967 1.385 . S
C1971 C1970 1.374 . S
C1972 C1969 1.499 . S
C1972 C1973 1.373 . S
C1972 C1974 1.389 . S
C1973 H1952 0.950 . S
C1973 C1972 1.373 . S
C1973 C1989 1.377 . S
C1974 C1972 1.389 . S
C1974 C1975 1.524 . S
C1974 C1988 1.377 . S
C1975 C1974 1.524 . S
C1975 C1976 1.397 . S
C1975 C1980 1.363 . S
C1976 H1953 0.950 . S
C1976 C1975 1.397 . S
C1976 C1977 1.334 . S
C1977 H1954 0.950 . S
C1977 C1976 1.334 . S
C1977 C1978 1.287 . S
C1978 C1977 1.287 . S
C1978 C1979 1.524 . S
C1978 H1997 0.913 . S
C1979 H1955 0.950 . S
C1979 C1978 1.524 . S
C1979 C1980 1.415 . S
C1980 H1956 0.950 . S
C1980 C1975 1.363 . S
C1980 C1979 1.415 . S
C1981 H1957 0.951 . S
C1981 C1982 1.366 . S
C1981 C1983 1.388 . S
C1982 C1981 1.366 . S
C1982 C1986 1.385 . S
C1983 H1958 0.951 . S
C1983 C1981 1.388 . S
C1983 C1984 1.366 . S
C1984 C1983 1.366 . S
C1984 C1985 1.414 . S
C1984 C1987 1.499 . S
C1985 H1959 0.950 . S
C1985 C1984 1.414 . S
C1985 C1986 1.374 . S
C1986 H1960 0.950 . S
C1986 C1982 1.385 . S
C1986 C1985 1.374 . S
C1987 C1984 1.499 . S
C1987 C1988 1.373 . S
C1987 C1989 1.389 . S
C1988 H1961 0.950 . S
C1988 C1974 1.377 . S
C1988 C1987 1.373 . S
C1989 C1973 1.377 . S
C1989 C1987 1.389 . S
C1989 C1990 1.524 . S
C1990 C1989 1.524 . S
C1990 C1991 1.397 . S
C1990 C1995 1.363 . S
C1991 H1962 0.950 . S
C1991 C1990 1.397 . S
C1991 C1992 1.334 . S
C1992 H1963 0.950 . S
C1992 C1991 1.334 . S
C1992 C1993 1.287 . S
C1993 C1992 1.287 . S
C1993 C1994 1.524 . S
C1993 H1996 0.999 . S
C1994 H1964 0.950 . S
C1994 C1993 1.524 . S
C1994 C1995 1.415 . S
C1995 H1965 0.950 . S
C1995 C1990 1.363 . S
C1995 C1994 1.415 . S
H1996 C1993 0.999 . S
H1997 C1978 0.913 . S
H1998 C2016 0.951 . S
H1999 C2018 0.951 . S
H2000 C2020 0.950 . S
H2001 C2021 0.950 . S
H2002 C2023 0.950 . S
H2003 C2026 0.950 . S
H2004 C2027 0.950 . S
H2005 C2029 0.950 . S
H2006 C2030 0.950 . S
H2007 C2031 0.951 . S
H2008 C2033 0.951 . S
H2009 C2035 0.950 . S
H2010 C2036 0.950 . S
H2011 C2038 0.950 . S
H2012 C2041 0.950 . S
H2013 C2042 0.950 . S
H2014 C2044 0.950 . S
H2015 C2045 0.950 . S
C2016 H1998 0.951 . S
C2016 C2017 1.366 . S
C2016 C2018 1.388 . S
C2017 C2016 1.366 . S
C2017 C2021 1.385 . S
C2018 H1999 0.951 . S
C2018 C2016 1.388 . S
C2018 C2019 1.366 . S
C2019 C2018 1.366 . S
C2019 C2020 1.414 . S
C2019 C2022 1.499 . S
C2020 H2000 0.950 . S
C2020 C2019 1.414 . S
C2020 C2021 1.374 . S
C2021 H2001 0.950 . S
C2021 C2017 1.385 . S
C2021 C2020 1.374 . S
C2022 C2019 1.499 . S
C2022 C2023 1.373 . S
C2022 C2024 1.389 . S
C2023 H2002 0.950 . S
C2023 C2022 1.373 . S
C2023 C2039 1.377 . S
C2024 C2022 1.389 . S
C2024 C2025 1.524 . S
C2024 C2038 1.377 1_545 S
C2025 C2024 1.524 . S
C2025 C2026 1.397 . S
C2025 C2030 1.363 . S
C2026 H2003 0.950 . S
C2026 C2025 1.397 . S
C2026 C2027 1.334 . S
C2027 H2004 0.950 . S
C2027 C2026 1.334 . S
C2027 C2028 1.287 . S
C2028 C2027 1.287 . S
C2028 C2029 1.524 . S
C2028 H2047 0.913 . S
C2029 H2005 0.950 . S
C2029 C2028 1.524 . S
C2029 C2030 1.415 . S
C2030 H2006 0.950 . S
C2030 C2025 1.363 . S
C2030 C2029 1.415 . S
C2031 H2007 0.951 . S
C2031 C2032 1.366 . S
C2031 C2033 1.388 . S
C2032 C2031 1.366 . S
C2032 C2036 1.385 . S
C2033 H2008 0.951 . S
C2033 C2031 1.388 . S
C2033 C2034 1.366 . S
C2034 C2033 1.366 . S
C2034 C2035 1.414 . S
C2034 C2037 1.499 . S
C2035 H2009 0.950 . S
C2035 C2034 1.414 . S
C2035 C2036 1.374 . S
C2036 H2010 0.950 . S
C2036 C2032 1.385 . S
C2036 C2035 1.374 . S
C2037 C2034 1.499 . S
C2037 C2038 1.373 . S
C2037 C2039 1.389 1_565 S
C2038 H2011 0.950 . S
C2038 C2024 1.377 1_565 S
C2038 C2037 1.373 . S
C2039 C2023 1.377 . S
C2039 C2037 1.389 1_545 S
C2039 C2040 1.524 . S
C2040 C2039 1.524 . S
C2040 C2041 1.397 . S
C2040 C2045 1.363 . S
C2041 H2012 0.950 . S
C2041 C2040 1.397 . S
C2041 C2042 1.334 . S
C2042 H2013 0.950 . S
C2042 C2041 1.334 . S
C2042 C2043 1.287 . S
C2043 C2042 1.287 . S
C2043 C2044 1.524 . S
C2043 H2046 0.999 . S
C2044 H2014 0.950 . S
C2044 C2043 1.524 . S
C2044 C2045 1.415 . S
C2045 H2015 0.950 . S
C2045 C2040 1.363 . S
C2045 C2044 1.415 . S
H2046 C2043 0.999 . S
H2047 C2028 0.913 . S
H2048 C2066 0.951 . S
H2049 C2068 0.951 . S
H2050 C2070 0.950 . S
H2051 C2071 0.950 . S
H2052 C2073 0.950 . S
H2053 C2076 0.950 . S
H2054 C2077 0.950 . S
H2055 C2079 0.950 . S
H2056 C2080 0.950 . S
H2057 C2081 0.951 . S
H2058 C2083 0.951 . S
H2059 C2085 0.950 . S
H2060 C2086 0.950 . S
H2061 C2088 0.950 . S
H2062 C2091 0.950 . S
H2063 C2092 0.950 . S
H2064 C2094 0.950 . S
H2065 C2095 0.950 . S
C2066 H2048 0.951 . S
C2066 C2067 1.366 . S
C2066 C2068 1.388 . S
C2067 C2066 1.366 . S
C2067 C2071 1.385 . S
C2068 H2049 0.951 . S
C2068 C2066 1.388 . S
C2068 C2069 1.366 . S
C2069 C2068 1.366 . S
C2069 C2070 1.414 . S
C2069 C2072 1.499 . S
C2070 H2050 0.950 . S
C2070 C2069 1.414 . S
C2070 C2071 1.374 . S
C2071 H2051 0.950 . S
C2071 C2067 1.385 . S
C2071 C2070 1.374 . S
C2072 C2069 1.499 . S
C2072 C2073 1.373 . S
C2072 C2074 1.389 . S
C2073 H2052 0.950 . S
C2073 C2072 1.373 . S
C2073 C2089 1.377 . S
C2074 C2072 1.389 . S
C2074 C2075 1.524 . S
C2074 C2088 1.377 . S
C2075 C2074 1.524 . S
C2075 C2076 1.397 . S
C2075 C2080 1.363 . S
C2076 H2053 0.950 . S
C2076 C2075 1.397 . S
C2076 C2077 1.334 . S
C2077 H2054 0.950 . S
C2077 C2076 1.334 . S
C2077 C2078 1.287 . S
C2078 C2077 1.287 . S
C2078 C2079 1.524 . S
C2078 H2097 0.913 . S
C2079 H2055 0.950 . S
C2079 C2078 1.524 . S
C2079 C2080 1.415 . S
C2080 H2056 0.950 . S
C2080 C2075 1.363 . S
C2080 C2079 1.415 . S
C2081 H2057 0.951 . S
C2081 C2082 1.366 . S
C2081 C2083 1.388 . S
C2082 C2081 1.366 . S
C2082 C2086 1.385 . S
C2083 H2058 0.951 . S
C2083 C2081 1.388 . S
C2083 C2084 1.366 . S
C2084 C2083 1.366 . S
C2084 C2085 1.414 . S
C2084 C2087 1.499 . S
C2085 H2059 0.950 . S
C2085 C2084 1.414 . S
C2085 C2086 1.374 . S
C2086 H2060 0.950 . S
C2086 C2082 1.385 . S
C2086 C2085 1.374 . S
C2087 C2084 1.499 . S
C2087 C2088 1.373 . S
C2087 C2089 1.389 . S
C2088 H2061 0.950 . S
C2088 C2074 1.377 . S
C2088 C2087 1.373 . S
C2089 C2073 1.377 . S
C2089 C2087 1.389 . S
C2089 C2090 1.524 . S
C2090 C2089 1.524 . S
C2090 C2091 1.397 . S
C2090 C2095 1.363 . S
C2091 H2062 0.950 . S
C2091 C2090 1.397 . S
C2091 C2092 1.334 . S
C2092 H2063 0.950 . S
C2092 C2091 1.334 . S
C2092 C2093 1.287 . S
C2093 C2092 1.287 . S
C2093 C2094 1.524 . S
C2093 H2096 0.999 . S
C2094 H2064 0.950 . S
C2094 C2093 1.524 . S
C2094 C2095 1.415 . S
C2095 H2065 0.950 . S
C2095 C2090 1.363 . S
C2095 C2094 1.415 . S
H2096 C2093 0.999 . S
H2097 C2078 0.913 . S
H2098 C2116 0.951 . S
H2099 C2118 0.951 . S
H2100 C2120 0.950 . S
H2101 C2121 0.950 . S
H2102 C2123 0.950 . S
H2103 C2126 0.950 . S
H2104 C2127 0.950 1_565 S
H2105 C2129 0.950 . S
H2106 C2130 0.950 . S
H2107 C2131 0.951 . S
H2108 C2133 0.951 . S
H2109 C2135 0.950 . S
H2110 C2136 0.950 . S
H2111 C2138 0.950 . S
H2112 C2141 0.950 . S
H2113 C2142 0.950 . S
H2114 C2144 0.950 . S
H2115 C2145 0.950 . S
C2116 H2098 0.951 . S
C2116 C2117 1.366 . S
C2116 C2118 1.388 . S
C2117 C2116 1.366 . S
C2117 C2121 1.385 . S
C2118 H2099 0.951 . S
C2118 C2116 1.388 . S
C2118 C2119 1.366 . S
C2119 C2118 1.366 . S
C2119 C2120 1.414 . S
C2119 C2122 1.499 . S
C2120 H2100 0.950 . S
C2120 C2119 1.414 . S
C2120 C2121 1.374 . S
C2121 H2101 0.950 . S
C2121 C2117 1.385 . S
C2121 C2120 1.374 . S
C2122 C2119 1.499 . S
C2122 C2123 1.373 . S
C2122 C2124 1.389 . S
C2123 H2102 0.950 . S
C2123 C2122 1.373 . S
C2123 C2139 1.377 . S
C2124 C2122 1.389 . S
C2124 C2125 1.524 1_565 S
C2124 C2138 1.377 1_565 S
C2125 C2124 1.524 1_545 S
C2125 C2126 1.397 1_545 S
C2125 C2130 1.363 . S
C2126 H2103 0.950 . S
C2126 C2125 1.397 1_565 S
C2126 C2127 1.334 1_565 S
C2127 H2104 0.950 1_545 S
C2127 C2126 1.334 1_545 S
C2127 C2128 1.287 . S
C2128 C2127 1.287 . S
C2128 C2129 1.524 . S
C2128 H2147 0.913 . S
C2129 H2105 0.950 . S
C2129 C2128 1.524 . S
C2129 C2130 1.415 . S
C2130 H2106 0.950 . S
C2130 C2125 1.363 . S
C2130 C2129 1.415 . S
C2131 H2107 0.951 . S
C2131 C2132 1.366 . S
C2131 C2133 1.388 . S
C2132 C2131 1.366 . S
C2132 C2136 1.385 . S
C2133 H2108 0.951 . S
C2133 C2131 1.388 . S
C2133 C2134 1.366 . S
C2134 C2133 1.366 . S
C2134 C2135 1.414 . S
C2134 C2137 1.499 . S
C2135 H2109 0.950 . S
C2135 C2134 1.414 . S
C2135 C2136 1.374 . S
C2136 H2110 0.950 . S
C2136 C2132 1.385 . S
C2136 C2135 1.374 . S
C2137 C2134 1.499 . S
C2137 C2138 1.373 . S
C2137 C2139 1.389 1_545 S
C2138 H2111 0.950 . S
C2138 C2124 1.377 1_545 S
C2138 C2137 1.373 . S
C2139 C2123 1.377 . S
C2139 C2137 1.389 1_565 S
C2139 C2140 1.524 . S
C2140 C2139 1.524 . S
C2140 C2141 1.397 . S
C2140 C2145 1.363 . S
C2141 H2112 0.950 . S
C2141 C2140 1.397 . S
C2141 C2142 1.334 . S
C2142 H2113 0.950 . S
C2142 C2141 1.334 . S
C2142 C2143 1.287 . S
C2143 C2142 1.287 . S
C2143 C2144 1.524 . S
C2143 H2146 0.999 . S
C2144 H2114 0.950 . S
C2144 C2143 1.524 . S
C2144 C2145 1.415 . S
C2145 H2115 0.950 . S
C2145 C2140 1.363 . S
C2145 C2144 1.415 . S
H2146 C2143 0.999 . S
H2147 C2128 0.913 . S
H2148 C2166 0.951 . S
H2149 C2168 0.951 . S
H2150 C2170 0.950 . S
H2151 C2171 0.950 . S
H2152 C2173 0.950 . S
H2153 C2176 0.950 . S
H2154 C2177 0.950 . S
H2155 C2179 0.950 . S
H2156 C2180 0.950 . S
H2157 C2181 0.951 . S
H2158 C2183 0.951 . S
H2159 C2185 0.950 . S
H2160 C2186 0.950 . S
H2161 C2188 0.950 . S
H2162 C2191 0.950 . S
H2163 C2192 0.950 . S
H2164 C2194 0.950 . S
H2165 C2195 0.950 . S
C2166 H2148 0.951 . S
C2166 C2167 1.366 . S
C2166 C2168 1.388 . S
C2167 C2166 1.366 . S
C2167 C2171 1.385 . S
C2168 H2149 0.951 . S
C2168 C2166 1.388 . S
C2168 C2169 1.374 . S
C2169 C2168 1.374 . S
C2169 C2170 1.412 1_556 S
C2169 C2172 1.492 1_556 S
C2170 H2150 0.950 . S
C2170 C2169 1.412 1_554 S
C2170 C2171 1.374 1_554 S
C2171 H2151 0.950 . S
C2171 C2167 1.385 . S
C2171 C2170 1.374 1_556 S
C2172 C2169 1.492 1_554 S
C2172 C2173 1.373 . S
C2172 C2174 1.389 . S
C2173 H2152 0.950 . S
C2173 C2172 1.373 . S
C2173 C2189 1.377 . S
C2174 C2172 1.389 . S
C2174 C2175 1.524 . S
C2174 C2188 1.377 . S
C2175 C2174 1.524 . S
C2175 C2176 1.397 . S
C2175 C2180 1.363 1_554 S
C2176 H2153 0.950 . S
C2176 C2175 1.397 . S
C2176 C2177 1.334 1_554 S
C2177 H2154 0.950 . S
C2177 C2176 1.334 1_556 S
C2177 C2178 1.287 . S
C2178 C2177 1.287 . S
C2178 C2179 1.524 . S
C2178 H2197 0.913 . S
C2179 H2155 0.950 . S
C2179 C2178 1.524 . S
C2179 C2180 1.415 . S
C2180 H2156 0.950 . S
C2180 C2175 1.363 1_556 S
C2180 C2179 1.415 . S
C2181 H2157 0.951 . S
C2181 C2182 1.366 . S
C2181 C2183 1.388 . S
C2182 C2181 1.366 . S
C2182 C2186 1.385 . S
C2183 H2158 0.951 . S
C2183 C2181 1.388 . S
C2183 C2184 1.366 . S
C2184 C2183 1.366 . S
C2184 C2185 1.414 . S
C2184 C2187 1.499 . S
C2185 H2159 0.950 . S
C2185 C2184 1.414 . S
C2185 C2186 1.374 . S
C2186 H2160 0.950 . S
C2186 C2182 1.385 . S
C2186 C2185 1.374 . S
C2187 C2184 1.499 . S
C2187 C2188 1.373 . S
C2187 C2189 1.389 . S
C2188 H2161 0.950 . S
C2188 C2174 1.377 . S
C2188 C2187 1.373 . S
C2189 C2173 1.377 . S
C2189 C2187 1.389 . S
C2189 C2190 1.524 . S
C2190 C2189 1.524 . S
C2190 C2191 1.397 . S
C2190 C2195 1.363 . S
C2191 H2162 0.950 . S
C2191 C2190 1.397 . S
C2191 C2192 1.334 . S
C2192 H2163 0.950 . S
C2192 C2191 1.334 . S
C2192 C2193 1.287 . S
C2193 C2192 1.287 . S
C2193 C2194 1.524 . S
C2193 H2196 0.999 . S
C2194 H2164 0.950 . S
C2194 C2193 1.524 . S
C2194 C2195 1.415 . S
C2195 H2165 0.950 . S
C2195 C2190 1.363 . S
C2195 C2194 1.415 . S
H2196 C2193 0.999 . S
H2197 C2178 0.913 . S
H2198 C2216 0.951 . S
H2199 C2218 0.951 . S
H2200 C2220 0.950 . S
H2201 C2221 0.950 . S
H2202 C2223 0.950 1_545 S
H2203 C2226 0.950 . S
H2204 C2227 0.950 . S
H2205 C2229 0.950 . S
H2206 C2230 0.950 . S
H2207 C2231 0.951 . S
H2208 C2233 0.951 . S
H2209 C2235 0.950 . S
H2210 C2236 0.950 . S
H2211 C2238 0.950 . S
H2212 C2241 0.950 . S
H2213 C2242 0.950 . S
H2214 C2244 0.950 . S
H2215 C2245 0.950 . S
C2216 H2198 0.951 . S
C2216 C2217 1.366 . S
C2216 C2218 1.388 1_545 S
C2217 C2216 1.366 . S
C2217 C2221 1.385 . S
C2218 H2199 0.951 . S
C2218 C2216 1.388 1_565 S
C2218 C2219 1.361 1_565 S
C2219 C2218 1.361 1_545 S
C2219 C2220 1.430 . S
C2219 C2222 1.489 1_545 S
C2220 H2200 0.950 . S
C2220 C2219 1.430 . S
C2220 C2221 1.374 . S
C2221 H2201 0.950 . S
C2221 C2217 1.385 . S
C2221 C2220 1.374 . S
C2222 C2219 1.489 1_565 S
C2222 C2223 1.373 . S
C2222 C2224 1.389 . S
C2223 H2202 0.950 1_565 S
C2223 C2222 1.373 . S
C2223 C2239 1.377 . S
C2224 C2222 1.389 . S
C2224 C2225 1.524 . S
C2224 C2238 1.377 . S
C2225 C2224 1.524 . S
C2225 C2226 1.397 . S
C2225 C2230 1.363 . S
C2226 H2203 0.950 . S
C2226 C2225 1.397 . S
C2226 C2227 1.334 . S
C2227 H2204 0.950 . S
C2227 C2226 1.334 . S
C2227 C2228 1.287 . S
C2228 C2227 1.287 . S
C2228 C2229 1.524 . S
C2228 H2247 0.913 . S
C2229 H2205 0.950 . S
C2229 C2228 1.524 . S
C2229 C2230 1.415 . S
C2230 H2206 0.950 . S
C2230 C2225 1.363 . S
C2230 C2229 1.415 . S
C2231 H2207 0.951 . S
C2231 C2232 1.366 . S
C2231 C2233 1.388 . S
C2232 C2231 1.366 . S
C2232 C2236 1.385 . S
C2233 H2208 0.951 . S
C2233 C2231 1.388 . S
C2233 C2234 1.366 . S
C2234 C2233 1.366 . S
C2234 C2235 1.414 . S
C2234 C2237 1.499 . S
C2235 H2209 0.950 . S
C2235 C2234 1.414 . S
C2235 C2236 1.374 . S
C2236 H2210 0.950 . S
C2236 C2232 1.385 . S
C2236 C2235 1.374 . S
C2237 C2234 1.499 . S
C2237 C2238 1.373 . S
C2237 C2239 1.389 . S
C2238 H2211 0.950 . S
C2238 C2224 1.377 . S
C2238 C2237 1.373 . S
C2239 C2223 1.377 . S
C2239 C2237 1.389 . S
C2239 C2240 1.524 . S
C2240 C2239 1.524 . S
C2240 C2241 1.397 . S
C2240 C2245 1.363 1_565 S
C2241 H2212 0.950 . S
C2241 C2240 1.397 . S
C2241 C2242 1.334 . S
C2242 H2213 0.950 . S
C2242 C2241 1.334 . S
C2242 C2243 1.287 . S
C2243 C2242 1.287 . S
C2243 C2244 1.524 1_565 S
C2243 H2246 0.999 . S
C2244 H2214 0.950 . S
C2244 C2243 1.524 1_545 S
C2244 C2245 1.415 . S
C2245 H2215 0.950 . S
C2245 C2240 1.363 1_545 S
C2245 C2244 1.415 . S
H2246 C2243 0.999 . S
H2247 C2228 0.913 . S
H2248 C2266 0.951 . S
H2249 C2268 0.951 . S
H2250 C2270 0.950 . S
H2251 C2271 0.950 . S
H2252 C2273 0.950 . S
H2253 C2276 0.950 . S
H2254 C2277 0.950 . S
H2255 C2279 0.950 . S
H2256 C2280 0.950 . S
H2257 C2281 0.951 . S
H2258 C2283 0.951 . S
H2259 C2285 0.950 . S
H2260 C2286 0.950 . S
H2261 C2288 0.950 . S
H2262 C2291 0.950 . S
H2263 C2292 0.950 . S
H2264 C2294 0.950 . S
H2265 C2295 0.950 . S
C2266 H2248 0.951 . S
C2266 C2267 1.366 . S
C2266 C2268 1.388 . S
C2267 C2266 1.366 . S
C2267 C2271 1.385 . S
C2268 H2249 0.951 . S
C2268 C2266 1.388 . S
C2268 C2269 1.366 . S
C2269 C2268 1.366 . S
C2269 C2270 1.414 . S
C2269 C2272 1.499 . S
C2270 H2250 0.950 . S
C2270 C2269 1.414 . S
C2270 C2271 1.374 . S
C2271 H2251 0.950 . S
C2271 C2267 1.385 . S
C2271 C2270 1.374 . S
C2272 C2269 1.499 . S
C2272 C2273 1.373 . S
C2272 C2274 1.389 . S
C2273 H2252 0.950 . S
C2273 C2272 1.373 . S
C2273 C2289 1.377 . S
C2274 C2272 1.389 . S
C2274 C2275 1.524 . S
C2274 C2288 1.377 . S
C2275 C2274 1.524 . S
C2275 C2276 1.397 . S
C2275 C2280 1.363 . S
C2276 H2253 0.950 . S
C2276 C2275 1.397 . S
C2276 C2277 1.334 . S
C2277 H2254 0.950 . S
C2277 C2276 1.334 . S
C2277 C2278 1.287 . S
C2278 C2277 1.287 . S
C2278 C2279 1.524 . S
C2278 H2297 0.913 . S
C2279 H2255 0.950 . S
C2279 C2278 1.524 . S
C2279 C2280 1.415 . S
C2280 H2256 0.950 . S
C2280 C2275 1.363 . S
C2280 C2279 1.415 . S
C2281 H2257 0.951 . S
C2281 C2282 1.366 . S
C2281 C2283 1.388 . S
C2282 C2281 1.366 . S
C2282 C2286 1.385 . S
C2283 H2258 0.951 . S
C2283 C2281 1.388 . S
C2283 C2284 1.366 . S
C2284 C2283 1.366 . S
C2284 C2285 1.414 . S
C2284 C2287 1.499 . S
C2285 H2259 0.950 . S
C2285 C2284 1.414 . S
C2285 C2286 1.374 . S
C2286 H2260 0.950 . S
C2286 C2282 1.385 . S
C2286 C2285 1.374 . S
C2287 C2284 1.499 . S
C2287 C2288 1.373 . S
C2287 C2289 1.389 . S
C2288 H2261 0.950 . S
C2288 C2274 1.377 . S
C2288 C2287 1.373 . S
C2289 C2273 1.377 . S
C2289 C2287 1.389 . S
C2289 C2290 1.524 . S
C2290 C2289 1.524 . S
C2290 C2291 1.397 . S
C2290 C2295 1.363 . S
C2291 H2262 0.950 . S
C2291 C2290 1.397 . S
C2291 C2292 1.334 . S
C2292 H2263 0.950 . S
C2292 C2291 1.334 . S
C2292 C2293 1.287 . S
C2293 C2292 1.287 . S
C2293 C2294 1.524 . S
C2293 H2296 0.999 . S
C2294 H2264 0.950 . S
C2294 C2293 1.524 . S
C2294 C2295 1.415 . S
C2295 H2265 0.950 . S
C2295 C2290 1.363 . S
C2295 C2294 1.415 . S
H2296 C2293 0.999 . S
H2297 C2278 0.913 . S
H2298 C2316 0.951 . S
H2299 C2318 0.951 . S
H2300 C2320 0.932 1_545 S
H2301 C2321 0.950 . S
H2302 C2323 0.950 . S
H2303 C2326 0.950 . S
H2304 C2327 0.950 . S
H2305 C2329 0.950 . S
H2306 C2330 0.950 . S
H2307 C2331 0.951 . S
H2308 C2333 0.951 . S
H2309 C2335 0.950 . S
H2310 C2336 0.950 . S
H2311 C2338 0.950 . S
H2312 C2341 0.950 . S
H2313 C2342 0.950 . S
H2314 C2344 0.950 . S
H2315 C2345 0.950 . S
C2316 H2298 0.951 . S
C2316 C2317 1.366 . S
C2316 C2318 1.388 . S
C2317 C2316 1.366 . S
C2317 C2321 1.385 . S
C2318 H2299 0.951 . S
C2318 C2316 1.388 . S
C2318 C2319 1.366 . S
C2319 C2318 1.366 . S
C2319 C2320 1.418 . S
C2319 C2322 1.499 1_565 S
C2320 H2300 0.932 1_565 S
C2320 C2319 1.418 . S
C2320 C2321 1.388 . S
C2321 H2301 0.950 . S
C2321 C2317 1.385 . S
C2321 C2320 1.388 . S
C2322 C2319 1.499 1_545 S
C2322 C2323 1.373 . S
C2322 C2324 1.389 . S
C2323 H2302 0.950 . S
C2323 C2322 1.373 . S
C2323 C2339 1.377 . S
C2324 C2322 1.389 . S
C2324 C2325 1.524 1_545 S
C2324 C2338 1.377 . S
C2325 C2324 1.524 1_565 S
C2325 C2326 1.397 . S
C2325 C2330 1.363 . S
C2326 H2303 0.950 . S
C2326 C2325 1.397 . S
C2326 C2327 1.334 . S
C2327 H2304 0.950 . S
C2327 C2326 1.334 . S
C2327 C2328 1.287 . S
C2328 C2327 1.287 . S
C2328 C2329 1.524 . S
C2328 H2347 0.913 . S
C2329 H2305 0.950 . S
C2329 C2328 1.524 . S
C2329 C2330 1.415 . S
C2330 H2306 0.950 . S
C2330 C2325 1.363 . S
C2330 C2329 1.415 . S
C2331 H2307 0.951 . S
C2331 C2332 1.366 . S
C2331 C2333 1.388 . S
C2332 C2331 1.366 . S
C2332 C2336 1.385 . S
C2333 H2308 0.951 . S
C2333 C2331 1.388 . S
C2333 C2334 1.366 . S
C2334 C2333 1.366 . S
C2334 C2335 1.414 . S
C2334 C2337 1.499 . S
C2335 H2309 0.950 . S
C2335 C2334 1.414 . S
C2335 C2336 1.374 . S
C2336 H2310 0.950 . S
C2336 C2332 1.385 . S
C2336 C2335 1.374 . S
C2337 C2334 1.499 . S
C2337 C2338 1.373 . S
C2337 C2339 1.389 . S
C2338 H2311 0.950 . S
C2338 C2324 1.377 . S
C2338 C2337 1.373 . S
C2339 C2323 1.377 . S
C2339 C2337 1.389 . S
C2339 C2340 1.524 . S
C2340 C2339 1.524 . S
C2340 C2341 1.397 . S
C2340 C2345 1.363 . S
C2341 H2312 0.950 . S
C2341 C2340 1.397 . S
C2341 C2342 1.334 . S
C2342 H2313 0.950 . S
C2342 C2341 1.334 . S
C2342 C2343 1.287 . S
C2343 C2342 1.287 . S
C2343 C2344 1.524 . S
C2343 H2346 0.999 . S
C2344 H2314 0.950 . S
C2344 C2343 1.524 . S
C2344 C2345 1.415 . S
C2345 H2315 0.950 . S
C2345 C2340 1.363 . S
C2345 C2344 1.415 . S
H2346 C2343 0.999 . S
H2347 C2328 0.913 . S
H2348 C2366 0.951 . S
H2349 C2368 0.951 . S
H2350 C2370 0.950 1_556 S
H2351 C2371 0.950 . S
H2352 C2373 0.950 . S
H2353 C2376 0.950 . S
H2354 C2377 0.950 . S
H2355 C2379 0.950 . S
H2356 C2380 0.950 . S
H2357 C2381 0.951 . S
H2358 C2383 0.951 . S
H2359 C2385 0.950 . S
H2360 C2386 0.950 . S
H2361 C2388 0.950 . S
H2362 C2391 0.950 . S
H2363 C2392 0.950 . S
H2364 C2394 0.950 . S
H2365 C2395 0.950 . S
C2366 H2348 0.951 . S
C2366 C2367 1.366 . S
C2366 C2368 1.388 . S
C2367 C2366 1.366 . S
C2367 C2371 1.385 . S
C2368 H2349 0.951 . S
C2368 C2366 1.388 . S
C2368 C2369 1.366 . S
C2369 C2368 1.366 . S
C2369 C2370 1.414 . S
C2369 C2372 1.499 . S
C2370 H2350 0.950 1_554 S
C2370 C2369 1.414 . S
C2370 C2371 1.374 . S
C2371 H2351 0.950 . S
C2371 C2367 1.385 . S
C2371 C2370 1.374 . S
C2372 C2369 1.499 . S
C2372 C2373 1.373 1_554 S
C2372 C2374 1.389 . S
C2373 H2352 0.950 . S
C2373 C2372 1.373 1_556 S
C2373 C2389 1.377 . S
C2374 C2372 1.389 . S
C2374 C2375 1.524 . S
C2374 C2388 1.377 1_554 S
C2375 C2374 1.524 . S
C2375 C2376 1.397 . S
C2375 C2380 1.363 . S
C2376 H2353 0.950 . S
C2376 C2375 1.397 . S
C2376 C2377 1.334 . S
C2377 H2354 0.950 . S
C2377 C2376 1.334 . S
C2377 C2378 1.287 . S
C2378 C2377 1.287 . S
C2378 C2379 1.524 . S
C2378 H2397 0.913 . S
C2379 H2355 0.950 . S
C2379 C2378 1.524 . S
C2379 C2380 1.415 . S
C2380 H2356 0.950 . S
C2380 C2375 1.363 . S
C2380 C2379 1.415 . S
C2381 H2357 0.951 . S
C2381 C2382 1.366 . S
C2381 C2383 1.388 . S
C2382 C2381 1.366 . S
C2382 C2386 1.385 . S
C2383 H2358 0.951 . S
C2383 C2381 1.388 . S
C2383 C2384 1.366 . S
C2384 C2383 1.366 . S
C2384 C2385 1.414 . S
C2384 C2387 1.499 . S
C2385 H2359 0.950 . S
C2385 C2384 1.414 . S
C2385 C2386 1.374 . S
C2386 H2360 0.950 . S
C2386 C2382 1.385 . S
C2386 C2385 1.374 . S
C2387 C2384 1.499 . S
C2387 C2388 1.373 . S
C2387 C2389 1.389 . S
C2388 H2361 0.950 . S
C2388 C2374 1.377 1_556 S
C2388 C2387 1.373 . S
C2389 C2373 1.377 . S
C2389 C2387 1.389 . S
C2389 C2390 1.524 . S
C2390 C2389 1.524 . S
C2390 C2391 1.397 . S
C2390 C2395 1.363 . S
C2391 H2362 0.950 . S
C2391 C2390 1.397 . S
C2391 C2392 1.334 . S
C2392 H2363 0.950 . S
C2392 C2391 1.334 . S
C2392 C2393 1.287 . S
C2393 C2392 1.287 . S
C2393 C2394 1.524 . S
C2393 H2396 0.999 . S
C2394 H2364 0.950 . S
C2394 C2393 1.524 . S
C2394 C2395 1.415 . S
C2395 H2365 0.950 . S
C2395 C2390 1.363 . S
C2395 C2394 1.415 . S
H2396 C2393 0.999 . S
H2397 C2378 0.913 . S
H2398 C2416 0.951 . S
H2399 C2418 0.951 . S
H2400 C2420 0.950 . S
H2401 C2421 0.950 . S
H2402 C2423 0.950 . S
H2403 C2426 0.950 . S
H2404 C2427 0.950 . S
H2405 C2429 0.950 . S
H2406 C2430 0.950 . S
H2407 C2431 0.951 . S
H2408 C2433 0.951 . S
H2409 C2435 0.950 . S
H2410 C2436 0.950 . S
H2411 C2438 0.950 . S
H2412 C2441 0.950 . S
H2413 C2442 0.950 . S
H2414 C2444 0.950 . S
H2415 C2445 0.950 . S
C2416 H2398 0.951 . S
C2416 C2417 1.366 . S
C2416 C2418 1.388 . S
C2417 C2416 1.366 . S
C2417 C2421 1.385 . S
C2418 H2399 0.951 . S
C2418 C2416 1.388 . S
C2418 C2419 1.366 1_655 S
C2419 C2418 1.366 1_455 S
C2419 C2420 1.414 . S
C2419 C2422 1.499 . S
C2420 H2400 0.950 . S
C2420 C2419 1.414 . S
C2420 C2421 1.374 1_455 S
C2421 H2401 0.950 . S
C2421 C2417 1.385 . S
C2421 C2420 1.374 1_655 S
C2422 C2419 1.499 . S
C2422 C2423 1.373 . S
C2422 C2424 1.389 . S
C2423 H2402 0.950 . S
C2423 C2422 1.373 . S
C2423 C2439 1.377 . S
C2424 C2422 1.389 . S
C2424 C2425 1.524 1_455 S
C2424 C2438 1.377 . S
C2425 C2424 1.524 1_655 S
C2425 C2426 1.397 . S
C2425 C2430 1.363 . S
C2426 H2403 0.950 . S
C2426 C2425 1.397 . S
C2426 C2427 1.334 . S
C2427 H2404 0.950 . S
C2427 C2426 1.334 . S
C2427 C2428 1.287 . S
C2428 C2427 1.287 . S
C2428 C2429 1.524 . S
C2428 H2447 0.913 . S
C2429 H2405 0.950 . S
C2429 C2428 1.524 . S
C2429 C2430 1.415 . S
C2430 H2406 0.950 . S
C2430 C2425 1.363 . S
C2430 C2429 1.415 . S
C2431 H2407 0.951 . S
C2431 C2432 1.366 . S
C2431 C2433 1.388 . S
C2432 C2431 1.366 . S
C2432 C2436 1.385 . S
C2433 H2408 0.951 . S
C2433 C2431 1.388 . S
C2433 C2434 1.366 . S
C2434 C2433 1.366 . S
C2434 C2435 1.414 . S
C2434 C2437 1.499 . S
C2435 H2409 0.950 . S
C2435 C2434 1.414 . S
C2435 C2436 1.374 . S
C2436 H2410 0.950 . S
C2436 C2432 1.385 . S
C2436 C2435 1.374 . S
C2437 C2434 1.499 . S
C2437 C2438 1.373 . S
C2437 C2439 1.389 . S
C2438 H2411 0.950 . S
C2438 C2424 1.377 . S
C2438 C2437 1.373 . S
C2439 C2423 1.377 . S
C2439 C2437 1.389 . S
C2439 C2440 1.524 . S
C2440 C2439 1.524 . S
C2440 C2441 1.397 . S
C2440 C2445 1.363 . S
C2441 H2412 0.950 . S
C2441 C2440 1.397 . S
C2441 C2442 1.334 . S
C2442 H2413 0.950 . S
C2442 C2441 1.334 . S
C2442 C2443 1.287 . S
C2443 C2442 1.287 . S
C2443 C2444 1.524 . S
C2443 H2446 0.999 . S
C2444 H2414 0.950 . S
C2444 C2443 1.524 . S
C2444 C2445 1.415 . S
C2445 H2415 0.950 . S
C2445 C2440 1.363 . S
C2445 C2444 1.415 . S
H2446 C2443 0.999 . S
H2447 C2428 0.913 . S
H2448 C2466 0.951 . S
H2449 C2468 0.951 . S
H2450 C2470 0.950 . S
H2451 C2471 0.950 . S
H2452 C2473 0.950 . S
H2453 C2476 0.950 . S
H2454 C2477 0.950 . S
H2455 C2479 0.950 . S
H2456 C2480 0.950 . S
H2457 C2481 0.951 . S
H2458 C2483 0.951 . S
H2459 C2485 0.950 . S
H2460 C2486 0.950 . S
H2461 C2488 0.950 . S
H2462 C2491 0.950 . S
H2463 C2492 0.950 . S
H2464 C2494 0.950 . S
H2465 C2495 0.950 . S
C2466 H2448 0.951 . S
C2466 C2467 1.366 . S
C2466 C2468 1.388 . S
C2467 C2466 1.366 . S
C2467 C2471 1.385 . S
C2468 H2449 0.951 . S
C2468 C2466 1.388 . S
C2468 C2469 1.366 . S
C2469 C2468 1.366 . S
C2469 C2470 1.414 . S
C2469 C2472 1.499 . S
C2470 H2450 0.950 . S
C2470 C2469 1.414 . S
C2470 C2471 1.374 . S
C2471 H2451 0.950 . S
C2471 C2467 1.385 . S
C2471 C2470 1.374 . S
C2472 C2469 1.499 . S
C2472 C2473 1.373 . S
C2472 C2474 1.389 . S
C2473 H2452 0.950 . S
C2473 C2472 1.373 . S
C2473 C2489 1.377 . S
C2474 C2472 1.389 . S
C2474 C2475 1.524 . S
C2474 C2488 1.377 . S
C2475 C2474 1.524 . S
C2475 C2476 1.397 . S
C2475 C2480 1.363 . S
C2476 H2453 0.950 . S
C2476 C2475 1.397 . S
C2476 C2477 1.334 . S
C2477 H2454 0.950 . S
C2477 C2476 1.334 . S
C2477 C2478 1.287 . S
C2478 C2477 1.287 . S
C2478 C2479 1.524 . S
C2478 H2497 0.913 . S
C2479 H2455 0.950 . S
C2479 C2478 1.524 . S
C2479 C2480 1.415 . S
C2480 H2456 0.950 . S
C2480 C2475 1.363 . S
C2480 C2479 1.415 . S
C2481 H2457 0.951 . S
C2481 C2482 1.366 . S
C2481 C2483 1.388 . S
C2482 C2481 1.366 . S
C2482 C2486 1.385 . S
C2483 H2458 0.951 . S
C2483 C2481 1.388 . S
C2483 C2484 1.366 . S
C2484 C2483 1.366 . S
C2484 C2485 1.414 . S
C2484 C2487 1.499 . S
C2485 H2459 0.950 . S
C2485 C2484 1.414 . S
C2485 C2486 1.374 . S
C2486 H2460 0.950 . S
C2486 C2482 1.385 . S
C2486 C2485 1.374 . S
C2487 C2484 1.499 . S
C2487 C2488 1.373 . S
C2487 C2489 1.389 . S
C2488 H2461 0.950 . S
C2488 C2474 1.377 . S
C2488 C2487 1.373 . S
C2489 C2473 1.377 . S
C2489 C2487 1.389 . S
C2489 C2490 1.524 . S
C2490 C2489 1.524 . S
C2490 C2491 1.397 . S
C2490 C2495 1.363 . S
C2491 H2462 0.950 . S
C2491 C2490 1.397 . S
C2491 C2492 1.334 . S
C2492 H2463 0.950 . S
C2492 C2491 1.334 . S
C2492 C2493 1.287 . S
C2493 C2492 1.287 . S
C2493 C2494 1.524 . S
C2493 H2496 0.999 . S
C2494 H2464 0.950 . S
C2494 C2493 1.524 . S
C2494 C2495 1.415 . S
C2495 H2465 0.950 . S
C2495 C2490 1.363 . S
C2495 C2494 1.415 . S
H2496 C2493 0.999 . S
H2497 C2478 0.913 . S
H2498 C2516 0.951 . S
H2499 C2518 0.951 1_655 S
H2500 C2520 0.950 . S
H2501 C2521 0.950 . S
H2502 C2523 0.950 . S
H2503 C2526 0.950 . S
H2504 C2527 0.950 . S
H2505 C2529 0.950 . S
H2506 C2530 0.950 . S
H2507 C2531 0.951 . S
H2508 C2533 0.951 . S
H2509 C2535 0.950 . S
H2510 C2536 0.950 . S
H2511 C2538 0.950 . S
H2512 C2541 0.950 . S
H2513 C2542 0.950 . S
H2514 C2544 0.950 . S
H2515 C2545 0.950 . S
C2516 H2498 0.951 . S
C2516 C2517 1.366 . S
C2516 C2518 1.388 . S
C2517 C2516 1.366 . S
C2517 C2521 1.385 . S
C2518 H2499 0.951 1_455 S
C2518 C2516 1.388 . S
C2518 C2519 1.366 . S
C2519 C2518 1.366 . S
C2519 C2520 1.414 . S
C2519 C2522 1.499 1_455 S
C2520 H2500 0.950 . S
C2520 C2519 1.414 . S
C2520 C2521 1.374 . S
C2521 H2501 0.950 . S
C2521 C2517 1.385 . S
C2521 C2520 1.374 . S
C2522 C2519 1.499 1_655 S
C2522 C2523 1.373 . S
C2522 C2524 1.389 . S
C2523 H2502 0.950 . S
C2523 C2522 1.373 . S
C2523 C2539 1.377 . S
C2524 C2522 1.389 . S
C2524 C2525 1.524 . S
C2524 C2538 1.377 . S
C2525 C2524 1.524 . S
C2525 C2526 1.397 1_655 S
C2525 C2530 1.363 . S
C2526 H2503 0.950 . S
C2526 C2525 1.397 1_455 S
C2526 C2527 1.334 . S
C2527 H2504 0.950 . S
C2527 C2526 1.334 . S
C2527 C2528 1.287 . S
C2528 C2527 1.287 . S
C2528 C2529 1.524 1_455 S
C2528 H2547 0.913 . S
C2529 H2505 0.950 . S
C2529 C2528 1.524 1_655 S
C2529 C2530 1.415 . S
C2530 H2506 0.950 . S
C2530 C2525 1.363 . S
C2530 C2529 1.415 . S
C2531 H2507 0.951 . S
C2531 C2532 1.366 . S
C2531 C2533 1.388 . S
C2532 C2531 1.366 . S
C2532 C2536 1.385 . S
C2533 H2508 0.951 . S
C2533 C2531 1.388 . S
C2533 C2534 1.366 . S
C2534 C2533 1.366 . S
C2534 C2535 1.414 . S
C2534 C2537 1.499 . S
C2535 H2509 0.950 . S
C2535 C2534 1.414 . S
C2535 C2536 1.374 . S
C2536 H2510 0.950 . S
C2536 C2532 1.385 . S
C2536 C2535 1.374 . S
C2537 C2534 1.499 . S
C2537 C2538 1.373 . S
C2537 C2539 1.389 . S
C2538 H2511 0.950 . S
C2538 C2524 1.377 . S
C2538 C2537 1.373 . S
C2539 C2523 1.377 . S
C2539 C2537 1.389 . S
C2539 C2540 1.524 . S
C2540 C2539 1.524 . S
C2540 C2541 1.397 . S
C2540 C2545 1.363 . S
C2541 H2512 0.950 . S
C2541 C2540 1.397 . S
C2541 C2542 1.334 . S
C2542 H2513 0.950 . S
C2542 C2541 1.334 . S
C2542 C2543 1.287 . S
C2543 C2542 1.287 . S
C2543 C2544 1.524 . S
C2543 H2546 0.999 . S
C2544 H2514 0.950 . S
C2544 C2543 1.524 . S
C2544 C2545 1.415 . S
C2545 H2515 0.950 . S
C2545 C2540 1.363 . S
C2545 C2544 1.415 . S
H2546 C2543 0.999 . S
H2547 C2528 0.913 . S
H2548 C2566 0.951 . S
H2549 C2568 0.951 . S
H2550 C2570 0.950 1_655 S
H2551 C2571 0.950 . S
H2552 C2573 0.950 . S
H2553 C2576 0.950 . S
H2554 C2577 0.950 . S
H2555 C2579 0.950 . S
H2556 C2580 0.950 1_655 S
H2557 C2581 0.951 . S
H2558 C2583 0.951 . S
H2559 C2585 0.950 . S
H2560 C2586 0.950 . S
H2561 C2588 0.950 . S
H2562 C2591 0.950 . S
H2563 C2592 0.950 . S
H2564 C2594 0.950 . S
H2565 C2595 0.950 . S
C2566 H2548 0.951 . S
C2566 C2567 1.366 . S
C2566 C2568 1.388 . S
C2567 C2566 1.366 . S
C2567 C2571 1.385 . S
C2568 H2549 0.951 . S
C2568 C2566 1.388 . S
C2568 C2569 1.366 1_455 S
C2569 C2568 1.366 1_655 S
C2569 C2570 1.414 1_655 S
C2569 C2572 1.499 . S
C2570 H2550 0.950 1_455 S
C2570 C2569 1.414 1_455 S
C2570 C2571 1.374 . S
C2571 H2551 0.950 . S
C2571 C2567 1.385 . S
C2571 C2570 1.374 . S
C2572 C2569 1.499 . S
C2572 C2573 1.373 . S
C2572 C2574 1.389 . S
C2573 H2552 0.950 . S
C2573 C2572 1.373 . S
C2573 C2589 1.377 . S
C2574 C2572 1.389 . S
C2574 C2575 1.524 1_655 S
C2574 C2588 1.377 . S
C2575 C2574 1.524 1_455 S
C2575 C2576 1.397 . S
C2575 C2580 1.363 . S
C2576 H2553 0.950 . S
C2576 C2575 1.397 . S
C2576 C2577 1.334 . S
C2577 H2554 0.950 . S
C2577 C2576 1.334 . S
C2577 C2578 1.287 . S
C2578 C2577 1.287 . S
C2578 C2579 1.524 . S
C2578 H2597 0.913 . S
C2579 H2555 0.950 . S
C2579 C2578 1.524 . S
C2579 C2580 1.415 . S
C2580 H2556 0.950 1_455 S
C2580 C2575 1.363 . S
C2580 C2579 1.415 . S
C2581 H2557 0.951 . S
C2581 C2582 1.366 . S
C2581 C2583 1.388 . S
C2582 C2581 1.366 . S
C2582 C2586 1.385 . S
C2583 H2558 0.951 . S
C2583 C2581 1.388 . S
C2583 C2584 1.366 . S
C2584 C2583 1.366 . S
C2584 C2585 1.414 . S
C2584 C2587 1.499 . S
C2585 H2559 0.950 . S
C2585 C2584 1.414 . S
C2585 C2586 1.374 . S
C2586 H2560 0.950 . S
C2586 C2582 1.385 . S
C2586 C2585 1.374 . S
C2587 C2584 1.499 . S
C2587 C2588 1.373 . S
C2587 C2589 1.389 . S
C2588 H2561 0.950 . S
C2588 C2574 1.377 . S
C2588 C2587 1.373 . S
C2589 C2573 1.377 . S
C2589 C2587 1.389 . S
C2589 C2590 1.524 . S
C2590 C2589 1.524 . S
C2590 C2591 1.397 . S
C2590 C2595 1.363 . S
C2591 H2562 0.950 . S
C2591 C2590 1.397 . S
C2591 C2592 1.334 . S
C2592 H2563 0.950 . S
C2592 C2591 1.334 . S
C2592 C2593 1.287 . S
C2593 C2592 1.287 . S
C2593 C2594 1.524 . S
C2593 H2596 0.999 . S
C2594 H2564 0.950 . S
C2594 C2593 1.524 . S
C2594 C2595 1.415 . S
C2595 H2565 0.950 . S
C2595 C2590 1.363 . S
C2595 C2594 1.415 . S
H2596 C2593 0.999 . S
H2597 C2578 0.913 . S
H2598 C2616 0.951 . S
H2599 C2618 0.951 . S
H2600 C2620 0.950 . S
H2601 C2621 0.950 . S
H2602 C2623 0.950 . S
H2603 C2626 0.950 . S
H2604 C2627 0.950 . S
H2605 C2629 0.950 . S
H2606 C2630 0.950 . S
H2607 C2631 0.951 . S
H2608 C2633 0.951 . S
H2609 C2635 0.950 . S
H2610 C2636 0.950 . S
H2611 C2638 0.950 . S
H2612 C2641 0.950 . S
H2613 C2642 0.950 . S
H2614 C2644 0.950 . S
H2615 C2645 0.950 . S
C2616 H2598 0.951 . S
C2616 C2617 1.366 . S
C2616 C2618 1.388 . S
C2617 C2616 1.366 . S
C2617 C2621 1.385 . S
C2618 H2599 0.951 . S
C2618 C2616 1.388 . S
C2618 C2619 1.366 . S
C2619 C2618 1.366 . S
C2619 C2620 1.414 . S
C2619 C2622 1.499 . S
C2620 H2600 0.950 . S
C2620 C2619 1.414 . S
C2620 C2621 1.374 . S
C2621 H2601 0.950 . S
C2621 C2617 1.385 . S
C2621 C2620 1.374 . S
C2622 C2619 1.499 . S
C2622 C2623 1.373 . S
C2622 C2624 1.389 . S
C2623 H2602 0.950 . S
C2623 C2622 1.373 . S
C2623 C2639 1.377 . S
C2624 C2622 1.389 . S
C2624 C2625 1.524 . S
C2624 C2638 1.377 . S
C2625 C2624 1.524 . S
C2625 C2626 1.397 . S
C2625 C2630 1.363 . S
C2626 H2603 0.950 . S
C2626 C2625 1.397 . S
C2626 C2627 1.334 . S
C2627 H2604 0.950 . S
C2627 C2626 1.334 . S
C2627 C2628 1.287 . S
C2628 C2627 1.287 . S
C2628 C2629 1.524 . S
C2628 H2647 0.913 . S
C2629 H2605 0.950 . S
C2629 C2628 1.524 . S
C2629 C2630 1.415 . S
C2630 H2606 0.950 . S
C2630 C2625 1.363 . S
C2630 C2629 1.415 . S
C2631 H2607 0.951 . S
C2631 C2632 1.366 . S
C2631 C2633 1.388 . S
C2632 C2631 1.366 . S
C2632 C2636 1.385 . S
C2633 H2608 0.951 . S
C2633 C2631 1.388 . S
C2633 C2634 1.366 . S
C2634 C2633 1.366 . S
C2634 C2635 1.414 . S
C2634 C2637 1.499 . S
C2635 H2609 0.950 . S
C2635 C2634 1.414 . S
C2635 C2636 1.374 . S
C2636 H2610 0.950 . S
C2636 C2632 1.385 . S
C2636 C2635 1.374 . S
C2637 C2634 1.499 . S
C2637 C2638 1.373 . S
C2637 C2639 1.389 . S
C2638 H2611 0.950 . S
C2638 C2624 1.377 . S
C2638 C2637 1.373 . S
C2639 C2623 1.377 . S
C2639 C2637 1.389 . S
C2639 C2640 1.524 . S
C2640 C2639 1.524 . S
C2640 C2641 1.397 . S
C2640 C2645 1.363 . S
C2641 H2612 0.950 . S
C2641 C2640 1.397 . S
C2641 C2642 1.334 . S
C2642 H2613 0.950 . S
C2642 C2641 1.334 . S
C2642 C2643 1.287 . S
C2643 C2642 1.287 . S
C2643 C2644 1.524 . S
C2643 H2646 0.999 . S
C2644 H2614 0.950 . S
C2644 C2643 1.524 . S
C2644 C2645 1.415 . S
C2645 H2615 0.950 . S
C2645 C2640 1.363 . S
C2645 C2644 1.415 . S
H2646 C2643 0.999 . S
H2647 C2628 0.913 . S
H2648 C2666 0.951 . S
H2649 C2668 0.951 . S
H2650 C2670 0.950 . S
H2651 C2671 0.950 . S
H2652 C2673 0.948 1_655 S
H2653 C2676 0.950 . S
H2654 C2677 0.950 . S
H2655 C2679 0.950 . S
H2656 C2680 0.950 . S
H2657 C2681 0.951 . S
H2658 C2683 0.951 . S
H2659 C2685 0.950 . S
H2660 C2686 0.950 . S
H2661 C2688 0.950 . S
H2662 C2691 0.950 . S
H2663 C2692 0.950 . S
H2664 C2694 0.950 . S
H2665 C2695 0.950 . S
C2666 H2648 0.951 . S
C2666 C2667 1.366 . S
C2666 C2668 1.388 . S
C2667 C2666 1.366 . S
C2667 C2671 1.385 . S
C2668 H2649 0.951 . S
C2668 C2666 1.388 . S
C2668 C2669 1.366 . S
C2669 C2668 1.366 . S
C2669 C2670 1.414 . S
C2669 C2672 1.499 . S
C2670 H2650 0.950 . S
C2670 C2669 1.414 . S
C2670 C2671 1.374 . S
C2671 H2651 0.950 . S
C2671 C2667 1.385 . S
C2671 C2670 1.374 . S
C2672 C2669 1.499 . S
C2672 C2673 1.373 1_655 S
C2672 C2674 1.389 . S
C2673 H2652 0.948 1_455 S
C2673 C2672 1.373 1_455 S
C2673 C2689 1.377 . S
C2674 C2672 1.389 . S
C2674 C2675 1.524 . S
C2674 C2688 1.377 1_655 S
C2675 C2674 1.524 . S
C2675 C2676 1.397 . S
C2675 C2680 1.363 . S
C2676 H2653 0.950 . S
C2676 C2675 1.397 . S
C2676 C2677 1.334 . S
C2677 H2654 0.950 . S
C2677 C2676 1.334 . S
C2677 C2678 1.287 . S
C2678 C2677 1.287 . S
C2678 C2679 1.524 . S
C2678 H2697 0.913 . S
C2679 H2655 0.950 . S
C2679 C2678 1.524 . S
C2679 C2680 1.415 . S
C2680 H2656 0.950 . S
C2680 C2675 1.363 . S
C2680 C2679 1.415 . S
C2681 H2657 0.951 . S
C2681 C2682 1.366 . S
C2681 C2683 1.388 . S
C2682 C2681 1.366 . S
C2682 C2686 1.385 . S
C2683 H2658 0.951 . S
C2683 C2681 1.388 . S
C2683 C2684 1.366 . S
C2684 C2683 1.366 . S
C2684 C2685 1.414 . S
C2684 C2687 1.499 . S
C2685 H2659 0.950 . S
C2685 C2684 1.414 . S
C2685 C2686 1.374 . S
C2686 H2660 0.950 . S
C2686 C2682 1.385 . S
C2686 C2685 1.374 . S
C2687 C2684 1.499 . S
C2687 C2688 1.373 . S
C2687 C2689 1.389 . S
C2688 H2661 0.950 . S
C2688 C2674 1.377 1_455 S
C2688 C2687 1.373 . S
C2689 C2673 1.377 . S
C2689 C2687 1.389 . S
C2689 C2690 1.524 . S
C2690 C2689 1.524 . S
C2690 C2691 1.397 . S
C2690 C2695 1.363 . S
C2691 H2662 0.950 . S
C2691 C2690 1.397 . S
C2691 C2692 1.334 . S
C2692 H2663 0.950 . S
C2692 C2691 1.334 . S
C2692 C2693 1.287 . S
C2693 C2692 1.287 . S
C2693 C2694 1.524 . S
C2693 H2696 0.999 . S
C2694 H2664 0.950 . S
C2694 C2693 1.524 . S
C2694 C2695 1.415 . S
C2695 H2665 0.950 . S
C2695 C2690 1.363 . S
C2695 C2694 1.415 . S
H2696 C2693 0.999 . S
H2697 C2678 0.913 . S
H2698 C2716 0.951 . S
H2699 C2718 0.951 . S
H2700 C2720 0.950 . S
H2701 C2721 0.950 . S
H2702 C2723 0.950 . S
H2703 C2726 0.950 . S
H2704 C2727 0.950 . S
H2705 C2729 0.950 . S
H2706 C2730 0.950 . S
H2707 C2731 0.951 . S
H2708 C2733 0.951 . S
H2709 C2735 0.950 . S
H2710 C2736 0.950 . S
H2711 C2738 0.950 . S
H2712 C2741 0.950 . S
H2713 C2742 0.950 . S
H2714 C2744 0.950 . S
H2715 C2745 0.950 . S
C2716 H2698 0.951 . S
C2716 C2717 1.366 . S
C2716 C2718 1.388 . S
C2717 C2716 1.366 . S
C2717 C2721 1.385 . S
C2718 H2699 0.951 . S
C2718 C2716 1.388 . S
C2718 C2719 1.366 . S
C2719 C2718 1.366 . S
C2719 C2720 1.414 . S
C2719 C2722 1.499 . S
C2720 H2700 0.950 . S
C2720 C2719 1.414 . S
C2720 C2721 1.374 . S
C2721 H2701 0.950 . S
C2721 C2717 1.385 . S
C2721 C2720 1.374 . S
C2722 C2719 1.499 . S
C2722 C2723 1.373 . S
C2722 C2724 1.389 . S
C2723 H2702 0.950 . S
C2723 C2722 1.373 . S
C2723 C2739 1.377 . S
C2724 C2722 1.389 . S
C2724 C2725 1.524 . S
C2724 C2738 1.377 . S
C2725 C2724 1.524 . S
C2725 C2726 1.397 . S
C2725 C2730 1.363 . S
C2726 H2703 0.950 . S
C2726 C2725 1.397 . S
C2726 C2727 1.334 . S
C2727 H2704 0.950 . S
C2727 C2726 1.334 . S
C2727 C2728 1.287 . S
C2728 C2727 1.287 . S
C2728 C2729 1.524 . S
C2728 H2747 0.913 . S
C2729 H2705 0.950 . S
C2729 C2728 1.524 . S
C2729 C2730 1.415 . S
C2730 H2706 0.950 . S
C2730 C2725 1.363 . S
C2730 C2729 1.415 . S
C2731 H2707 0.951 . S
C2731 C2732 1.366 . S
C2731 C2733 1.388 . S
C2732 C2731 1.366 . S
C2732 C2736 1.385 . S
C2733 H2708 0.951 . S
C2733 C2731 1.388 . S
C2733 C2734 1.366 . S
C2734 C2733 1.366 . S
C2734 C2735 1.414 . S
C2734 C2737 1.499 . S
C2735 H2709 0.950 . S
C2735 C2734 1.414 . S
C2735 C2736 1.374 . S
C2736 H2710 0.950 . S
C2736 C2732 1.385 . S
C2736 C2735 1.374 . S
C2737 C2734 1.499 . S
C2737 C2738 1.373 . S
C2737 C2739 1.389 . S
C2738 H2711 0.950 . S
C2738 C2724 1.377 . S
C2738 C2737 1.373 . S
C2739 C2723 1.377 . S
C2739 C2737 1.389 . S
C2739 C2740 1.524 . S
C2740 C2739 1.524 . S
C2740 C2741 1.397 . S
C2740 C2745 1.363 . S
C2741 H2712 0.950 . S
C2741 C2740 1.397 . S
C2741 C2742 1.334 . S
C2742 H2713 0.950 . S
C2742 C2741 1.334 . S
C2742 C2743 1.287 . S
C2743 C2742 1.287 . S
C2743 C2744 1.524 . S
C2743 H2746 0.999 . S
C2744 H2714 0.950 . S
C2744 C2743 1.524 . S
C2744 C2745 1.415 . S
C2745 H2715 0.950 . S
C2745 C2740 1.363 . S
C2745 C2744 1.415 . S
H2746 C2743 0.999 . S
H2747 C2728 0.913 . S
H2748 C2766 0.951 . S
H2749 C2768 0.951 . S
H2750 C2770 0.950 . S
H2751 C2771 0.950 . S
H2752 C2773 0.950 . S
H2753 C2776 0.950 . S
H2754 C2777 0.950 . S
H2755 C2779 0.950 . S
H2756 C2780 0.950 . S
H2757 C2781 0.951 . S
H2758 C2783 0.951 . S
H2759 C2785 0.950 . S
H2760 C2786 0.950 . S
H2761 C2788 0.950 . S
H2762 C2791 0.950 . S
H2763 C2792 0.950 . S
H2764 C2794 0.950 . S
H2765 C2795 0.950 . S
C2766 H2748 0.951 . S
C2766 C2767 1.366 . S
C2766 C2768 1.388 . S
C2767 C2766 1.366 . S
C2767 C2771 1.385 . S
C2768 H2749 0.951 . S
C2768 C2766 1.388 . S
C2768 C2769 1.366 . S
C2769 C2768 1.366 . S
C2769 C2770 1.414 . S
C2769 C2772 1.499 . S
C2770 H2750 0.950 . S
C2770 C2769 1.414 . S
C2770 C2771 1.374 . S
C2771 H2751 0.950 . S
C2771 C2767 1.385 . S
C2771 C2770 1.374 . S
C2772 C2769 1.499 . S
C2772 C2773 1.373 . S
C2772 C2774 1.389 . S
C2773 H2752 0.950 . S
C2773 C2772 1.373 . S
C2773 C2789 1.377 . S
C2774 C2772 1.389 . S
C2774 C2775 1.524 . S
C2774 C2788 1.377 . S
C2775 C2774 1.524 . S
C2775 C2776 1.397 . S
C2775 C2780 1.363 . S
C2776 H2753 0.950 . S
C2776 C2775 1.397 . S
C2776 C2777 1.334 . S
C2777 H2754 0.950 . S
C2777 C2776 1.334 . S
C2777 C2778 1.287 . S
C2778 C2777 1.287 . S
C2778 C2779 1.524 . S
C2778 H2797 0.913 . S
C2779 H2755 0.950 . S
C2779 C2778 1.524 . S
C2779 C2780 1.415 . S
C2780 H2756 0.950 . S
C2780 C2775 1.363 . S
C2780 C2779 1.415 . S
C2781 H2757 0.951 . S
C2781 C2782 1.366 . S
C2781 C2783 1.388 . S
C2782 C2781 1.366 . S
C2782 C2786 1.385 . S
C2783 H2758 0.951 . S
C2783 C2781 1.388 . S
C2783 C2784 1.366 . S
C2784 C2783 1.366 . S
C2784 C2785 1.414 . S
C2784 C2787 1.499 . S
C2785 H2759 0.950 . S
C2785 C2784 1.414 . S
C2785 C2786 1.374 . S
C2786 H2760 0.950 . S
C2786 C2782 1.385 . S
C2786 C2785 1.374 . S
C2787 C2784 1.499 . S
C2787 C2788 1.373 . S
C2787 C2789 1.389 . S
C2788 H2761 0.950 . S
C2788 C2774 1.377 . S
C2788 C2787 1.373 . S
C2789 C2773 1.377 . S
C2789 C2787 1.389 . S
C2789 C2790 1.524 . S
C2790 C2789 1.524 . S
C2790 C2791 1.397 . S
C2790 C2795 1.363 . S
C2791 H2762 0.950 . S
C2791 C2790 1.397 . S
C2791 C2792 1.334 . S
C2792 H2763 0.950 . S
C2792 C2791 1.334 . S
C2792 C2793 1.287 . S
C2793 C2792 1.287 . S
C2793 C2794 1.524 . S
C2793 H2796 0.999 . S
C2794 H2764 0.950 . S
C2794 C2793 1.524 . S
C2794 C2795 1.415 . S
C2795 H2765 0.950 . S
C2795 C2790 1.363 . S
C2795 C2794 1.415 . S
H2796 C2793 0.999 . S
H2797 C2778 0.913 . S
H2798 C2816 0.951 . S
H2799 C2818 0.951 . S
H2800 C2820 0.950 . S
H2801 C2821 0.950 . S
H2802 C2823 0.950 . S
H2803 C2826 0.950 . S
H2804 C2827 0.950 . S
H2805 C2829 0.950 . S
H2806 C2830 0.950 . S
H2807 C2831 0.951 . S
H2808 C2833 0.951 . S
H2809 C2835 0.950 . S
H2810 C2836 0.950 . S
H2811 C2838 0.950 . S
H2812 C2841 0.950 . S
H2813 C2842 0.950 . S
H2814 C2844 0.950 . S
H2815 C2845 0.950 . S
C2816 H2798 0.951 . S
C2816 C2817 1.366 . S
C2816 C2818 1.388 . S
C2817 C2816 1.366 . S
C2817 C2821 1.385 . S
C2818 H2799 0.951 . S
C2818 C2816 1.388 . S
C2818 C2819 1.366 . S
C2819 C2818 1.366 . S
C2819 C2820 1.414 . S
C2819 C2822 1.499 1_554 S
C2820 H2800 0.950 . S
C2820 C2819 1.414 . S
C2820 C2821 1.374 . S
C2821 H2801 0.950 . S
C2821 C2817 1.385 . S
C2821 C2820 1.374 . S
C2822 C2819 1.499 1_556 S
C2822 C2823 1.373 . S
C2822 C2824 1.389 . S
C2823 H2802 0.950 . S
C2823 C2822 1.373 . S
C2823 C2839 1.377 . S
C2824 C2822 1.389 . S
C2824 C2825 1.529 . S
C2824 C2838 1.377 . S
C2825 C2824 1.529 . S
C2825 C2826 1.387 1_556 S
C2825 C2830 1.368 . S
C2826 H2803 0.950 . S
C2826 C2825 1.387 1_554 S
C2826 C2827 1.334 . S
C2827 H2804 0.950 . S
C2827 C2826 1.334 . S
C2827 C2828 1.287 . S
C2828 C2827 1.287 . S
C2828 C2829 1.524 1_554 S
C2828 H2847 0.913 . S
C2829 H2805 0.950 . S
C2829 C2828 1.524 1_556 S
C2829 C2830 1.415 . S
C2830 H2806 0.950 . S
C2830 C2825 1.368 . S
C2830 C2829 1.415 . S
C2831 H2807 0.951 . S
C2831 C2832 1.366 . S
C2831 C2833 1.388 . S
C2832 C2831 1.366 . S
C2832 C2836 1.385 . S
C2833 H2808 0.951 . S
C2833 C2831 1.388 . S
C2833 C2834 1.366 . S
C2834 C2833 1.366 . S
C2834 C2835 1.414 . S
C2834 C2837 1.499 . S
C2835 H2809 0.950 . S
C2835 C2834 1.414 . S
C2835 C2836 1.374 . S
C2836 H2810 0.950 . S
C2836 C2832 1.385 . S
C2836 C2835 1.374 . S
C2837 C2834 1.499 . S
C2837 C2838 1.373 . S
C2837 C2839 1.389 . S
C2838 H2811 0.950 . S
C2838 C2824 1.377 . S
C2838 C2837 1.373 . S
C2839 C2823 1.377 . S
C2839 C2837 1.389 . S
C2839 C2840 1.524 . S
C2840 C2839 1.524 . S
C2840 C2841 1.397 . S
C2840 C2845 1.363 . S
C2841 H2812 0.950 . S
C2841 C2840 1.397 . S
C2841 C2842 1.334 . S
C2842 H2813 0.950 . S
C2842 C2841 1.334 . S
C2842 C2843 1.287 . S
C2843 C2842 1.287 . S
C2843 C2844 1.524 . S
C2843 H2846 0.999 . S
C2844 H2814 0.950 . S
C2844 C2843 1.524 . S
C2844 C2845 1.415 . S
C2845 H2815 0.950 . S
C2845 C2840 1.363 . S
C2845 C2844 1.415 . S
H2846 C2843 0.999 . S
H2847 C2828 0.913 . S
H2848 C2866 0.951 . S
H2849 C2868 0.951 . S
H2850 C2870 0.950 . S
H2851 C2871 0.950 . S
H2852 C2873 0.950 . S
H2853 C2876 0.950 . S
H2854 C2877 0.950 . S
H2855 C2879 0.950 . S
H2856 C2880 0.950 . S
H2857 C2881 0.951 . S
H2858 C2883 0.951 . S
H2859 C2885 0.950 . S
H2860 C2886 0.950 . S
H2861 C2888 0.950 . S
H2862 C2891 0.950 . S
H2863 C2892 0.950 . S
H2864 C2894 0.950 . S
H2865 C2895 0.950 . S
C2866 H2848 0.951 . S
C2866 C2867 1.366 . S
C2866 C2868 1.388 . S
C2867 C2866 1.366 . S
C2867 C2871 1.385 . S
C2868 H2849 0.951 . S
C2868 C2866 1.388 . S
C2868 C2869 1.366 . S
C2869 C2868 1.366 . S
C2869 C2870 1.414 . S
C2869 C2872 1.499 . S
C2870 H2850 0.950 . S
C2870 C2869 1.414 . S
C2870 C2871 1.374 . S
C2871 H2851 0.950 . S
C2871 C2867 1.385 . S
C2871 C2870 1.374 . S
C2872 C2869 1.499 . S
C2872 C2873 1.373 . S
C2872 C2874 1.389 . S
C2873 H2852 0.950 . S
C2873 C2872 1.373 . S
C2873 C2889 1.377 . S
C2874 C2872 1.389 . S
C2874 C2875 1.524 . S
C2874 C2888 1.377 . S
C2875 C2874 1.524 . S
C2875 C2876 1.397 . S
C2875 C2880 1.363 . S
C2876 H2853 0.950 . S
C2876 C2875 1.397 . S
C2876 C2877 1.334 . S
C2877 H2854 0.950 . S
C2877 C2876 1.334 . S
C2877 C2878 1.287 . S
C2878 C2877 1.287 . S
C2878 C2879 1.524 . S
C2878 H2897 0.913 . S
C2879 H2855 0.950 . S
C2879 C2878 1.524 . S
C2879 C2880 1.415 . S
C2880 H2856 0.950 . S
C2880 C2875 1.363 . S
C2880 C2879 1.415 . S
C2881 H2857 0.951 . S
C2881 C2882 1.366 . S
C2881 C2883 1.388 . S
C2882 C2881 1.366 . S
C2882 C2886 1.385 . S
C2883 H2858 0.951 . S
C2883 C2881 1.388 . S
C2883 C2884 1.366 . S
C2884 C2883 1.366 . S
C2884 C2885 1.414 . S
C2884 C2887 1.499 . S
C2885 H2859 0.950 . S
C2885 C2884 1.414 . S
C2885 C2886 1.374 . S
C2886 H2860 0.950 . S
C2886 C2882 1.385 . S
C2886 C2885 1.374 . S
C2887 C2884 1.499 . S
C2887 C2888 1.373 . S
C2887 C2889 1.389 . S
C2888 H2861 0.950 . S
C2888 C2874 1.377 . S
C2888 C2887 1.373 . S
C2889 C2873 1.377 . S
C2889 C2887 1.389 . S
C2889 C2890 1.524 . S
C2890 C2889 1.524 . S
C2890 C2891 1.397 . S
C2890 C2895 1.363 . S
C2891 H2862 0.950 . S
C2891 C2890 1.397 . S
C2891 C2892 1.334 . S
C2892 H2863 0.950 . S
C2892 C2891 1.334 . S
C2892 C2893 1.287 . S
C2893 C2892 1.287 . S
C2893 C2894 1.524 . S
C2893 H2896 0.999 . S
C2894 H2864 0.950 . S
C2894 C2893 1.524 . S
C2894 C2895 1.415 . S
C2895 H2865 0.950 . S
C2895 C2890 1.363 . S
C2895 C2894 1.415 . S
H2896 C2893 0.999 . S
H2897 C2878 0.913 . S
H2898 C2916 0.951 . S
H2899 C2918 0.951 . S
H2900 C2920 0.950 . S
H2901 C2921 0.950 . S
H2902 C2923 0.950 . S
H2903 C2926 0.950 . S
H2904 C2927 0.950 . S
H2905 C2929 0.950 . S
H2906 C2930 0.950 . S
H2907 C2931 0.951 . S
H2908 C2933 0.951 . S
H2909 C2935 0.950 . S
H2910 C2936 0.950 . S
H2911 C2938 0.950 . S
H2912 C2941 0.950 . S
H2913 C2942 0.950 . S
H2914 C2944 0.950 . S
H2915 C2945 0.950 . S
C2916 H2898 0.951 . S
C2916 C2917 1.366 . S
C2916 C2918 1.388 . S
C2917 C2916 1.366 . S
C2917 C2921 1.385 . S
C2918 H2899 0.951 . S
C2918 C2916 1.388 . S
C2918 C2919 1.366 . S
C2919 C2918 1.366 . S
C2919 C2920 1.414 . S
C2919 C2922 1.499 . S
C2920 H2900 0.950 . S
C2920 C2919 1.414 . S
C2920 C2921 1.374 . S
C2921 H2901 0.950 . S
C2921 C2917 1.385 . S
C2921 C2920 1.374 . S
C2922 C2919 1.499 . S
C2922 C2923 1.373 . S
C2922 C2924 1.389 . S
C2923 H2902 0.950 . S
C2923 C2922 1.373 . S
C2923 C2939 1.377 . S
C2924 C2922 1.389 . S
C2924 C2925 1.524 . S
C2924 C2938 1.377 . S
C2925 C2924 1.524 . S
C2925 C2926 1.397 . S
C2925 C2930 1.363 . S
C2926 H2903 0.950 . S
C2926 C2925 1.397 . S
C2926 C2927 1.334 . S
C2927 H2904 0.950 . S
C2927 C2926 1.334 . S
C2927 C2928 1.287 . S
C2928 C2927 1.287 . S
C2928 C2929 1.524 . S
C2928 H2947 0.913 . S
C2929 H2905 0.950 . S
C2929 C2928 1.524 . S
C2929 C2930 1.415 . S
C2930 H2906 0.950 . S
C2930 C2925 1.363 . S
C2930 C2929 1.415 . S
C2931 H2907 0.951 . S
C2931 C2932 1.366 . S
C2931 C2933 1.388 . S
C2932 C2931 1.366 . S
C2932 C2936 1.385 . S
C2933 H2908 0.951 . S
C2933 C2931 1.388 . S
C2933 C2934 1.366 . S
C2934 C2933 1.366 . S
C2934 C2935 1.414 . S
C2934 C2937 1.499 . S
C2935 H2909 0.950 . S
C2935 C2934 1.414 . S
C2935 C2936 1.374 . S
C2936 H2910 0.950 . S
C2936 C2932 1.385 . S
C2936 C2935 1.374 . S
C2937 C2934 1.499 . S
C2937 C2938 1.373 . S
C2937 C2939 1.389 . S
C2938 H2911 0.950 . S
C2938 C2924 1.377 . S
C2938 C2937 1.373 . S
C2939 C2923 1.377 . S
C2939 C2937 1.389 . S
C2939 C2940 1.524 . S
C2940 C2939 1.524 . S
C2940 C2941 1.397 . S
C2940 C2945 1.363 . S
C2941 H2912 0.950 . S
C2941 C2940 1.397 . S
C2941 C2942 1.334 . S
C2942 H2913 0.950 . S
C2942 C2941 1.334 . S
C2942 C2943 1.287 . S
C2943 C2942 1.287 . S
C2943 C2944 1.524 . S
C2943 H2946 0.999 . S
C2944 H2914 0.950 . S
C2944 C2943 1.524 . S
C2944 C2945 1.415 . S
C2945 H2915 0.950 . S
C2945 C2940 1.363 . S
C2945 C2944 1.415 . S
H2946 C2943 0.999 . S
H2947 C2928 0.913 . S
H2948 C2966 0.951 . S
H2949 C2968 0.951 . S
H2950 C2970 0.950 . S
H2951 C2971 0.950 . S
H2952 C2973 0.950 . S
H2953 C2976 0.950 . S
H2954 C2977 0.950 . S
H2955 C2979 0.950 . S
H2956 C2980 0.950 . S
H2957 C2981 0.951 . S
H2958 C2983 0.951 . S
H2959 C2985 0.950 . S
H2960 C2986 0.950 . S
H2961 C2988 0.950 . S
H2962 C2991 0.950 . S
H2963 C2992 0.950 . S
H2964 C2994 0.950 . S
H2965 C2995 0.950 . S
C2966 H2948 0.951 . S
C2966 C2967 1.366 . S
C2966 C2968 1.388 . S
C2967 C2966 1.366 . S
C2967 C2971 1.385 . S
C2968 H2949 0.951 . S
C2968 C2966 1.388 . S
C2968 C2969 1.366 . S
C2969 C2968 1.366 . S
C2969 C2970 1.414 . S
C2969 C2972 1.499 . S
C2970 H2950 0.950 . S
C2970 C2969 1.414 . S
C2970 C2971 1.374 . S
C2971 H2951 0.950 . S
C2971 C2967 1.385 . S
C2971 C2970 1.374 . S
C2972 C2969 1.499 . S
C2972 C2973 1.373 . S
C2972 C2974 1.389 . S
C2973 H2952 0.950 . S
C2973 C2972 1.373 . S
C2973 C2989 1.377 . S
C2974 C2972 1.389 . S
C2974 C2975 1.524 . S
C2974 C2988 1.377 . S
C2975 C2974 1.524 . S
C2975 C2976 1.397 . S
C2975 C2980 1.363 . S
C2976 H2953 0.950 . S
C2976 C2975 1.397 . S
C2976 C2977 1.334 . S
C2977 H2954 0.950 . S
C2977 C2976 1.334 . S
C2977 C2978 1.287 . S
C2978 C2977 1.287 . S
C2978 C2979 1.524 . S
C2978 H2997 0.913 . S
C2979 H2955 0.950 . S
C2979 C2978 1.524 . S
C2979 C2980 1.415 . S
C2980 H2956 0.950 . S
C2980 C2975 1.363 . S
C2980 C2979 1.415 . S
C2981 H2957 0.951 . S
C2981 C2982 1.366 . S
C2981 C2983 1.388 . S
C2982 C2981 1.366 . S
C2982 C2986 1.385 . S
C2983 H2958 0.951 . S
C2983 C2981 1.388 . S
C2983 C2984 1.366 . S
C2984 C2983 1.366 . S
C2984 C2985 1.414 . S
C2984 C2987 1.499 . S
C2985 H2959 0.950 . S
C2985 C2984 1.414 . S
C2985 C2986 1.374 . S
C2986 H2960 0.950 . S
C2986 C2982 1.385 . S
C2986 C2985 1.374 . S
C2987 C2984 1.499 . S
C2987 C2988 1.373 . S
C2987 C2989 1.389 . S
C2988 H2961 0.950 . S
C2988 C2974 1.377 . S
C2988 C2987 1.373 . S
C2989 C2973 1.377 . S
C2989 C2987 1.389 . S
C2989 C2990 1.524 . S
C2990 C2989 1.524 . S
C2990 C2991 1.397 . S
C2990 C2995 1.363 . S
C2991 H2962 0.950 . S
C2991 C2990 1.397 . S
C2991 C2992 1.334 . S
C2992 H2963 0.950 . S
C2992 C2991 1.334 . S
C2992 C2993 1.287 . S
C2993 C2992 1.287 . S
C2993 C2994 1.524 . S
C2993 H2996 0.999 . S
C2994 H2964 0.950 . S
C2994 C2993 1.524 . S
C2994 C2995 1.415 . S
C2995 H2965 0.950 . S
C2995 C2990 1.363 . S
C2995 C2994 1.415 . S
H2996 C2993 0.999 . S
H2997 C2978 0.913 . S
H2998 C3016 0.951 . S
H2999 C3018 0.951 . S
H3000 C3020 0.950 . S
H3001 C3021 0.950 . S
H3002 C3023 0.950 . S
H3003 C3026 0.950 . S
H3004 C3027 0.950 . S
H3005 C3029 0.950 . S
H3006 C3030 0.950 . S
H3007 C3031 0.951 . S
H3008 C3033 0.951 . S
H3009 C3035 0.950 . S
H3010 C3036 0.950 . S
H3011 C3038 0.950 . S
H3012 C3041 0.950 1_556 S
H3013 C3042 0.950 . S
H3014 C3044 0.950 . S
H3015 C3045 0.950 . S
C3016 H2998 0.951 . S
C3016 C3017 1.366 . S
C3016 C3018 1.388 . S
C3017 C3016 1.366 . S
C3017 C3021 1.385 . S
C3018 H2999 0.951 . S
C3018 C3016 1.388 . S
C3018 C3019 1.366 . S
C3019 C3018 1.366 . S
C3019 C3020 1.414 . S
C3019 C3022 1.499 1_554 S
C3020 H3000 0.950 . S
C3020 C3019 1.414 . S
C3020 C3021 1.374 . S
C3021 H3001 0.950 . S
C3021 C3017 1.385 . S
C3021 C3020 1.374 . S
C3022 C3019 1.499 1_556 S
C3022 C3023 1.373 1_556 S
C3022 C3024 1.389 . S
C3023 H3002 0.950 . S
C3023 C3022 1.373 1_554 S
C3023 C3039 1.377 1_554 S
C3024 C3022 1.389 . S
C3024 C3025 1.524 . S
C3024 C3038 1.377 . S
C3025 C3024 1.524 . S
C3025 C3026 1.397 . S
C3025 C3030 1.363 . S
C3026 H3003 0.950 . S
C3026 C3025 1.397 . S
C3026 C3027 1.334 . S
C3027 H3004 0.950 . S
C3027 C3026 1.334 . S
C3027 C3028 1.287 . S
C3028 C3027 1.287 . S
C3028 C3029 1.524 . S
C3028 H3047 0.913 . S
C3029 H3005 0.950 . S
C3029 C3028 1.524 . S
C3029 C3030 1.415 . S
C3030 H3006 0.950 . S
C3030 C3025 1.363 . S
C3030 C3029 1.415 . S
C3031 H3007 0.951 . S
C3031 C3032 1.366 . S
C3031 C3033 1.388 . S
C3032 C3031 1.366 . S
C3032 C3036 1.385 . S
C3033 H3008 0.951 . S
C3033 C3031 1.388 . S
C3033 C3034 1.366 . S
C3034 C3033 1.366 . S
C3034 C3035 1.414 . S
C3034 C3037 1.499 . S
C3035 H3009 0.950 . S
C3035 C3034 1.414 . S
C3035 C3036 1.374 . S
C3036 H3010 0.950 . S
C3036 C3032 1.385 . S
C3036 C3035 1.374 . S
C3037 C3034 1.499 . S
C3037 C3038 1.373 . S
C3037 C3039 1.389 . S
C3038 H3011 0.950 . S
C3038 C3024 1.377 . S
C3038 C3037 1.373 . S
C3039 C3023 1.377 1_556 S
C3039 C3037 1.389 . S
C3039 C3040 1.524 1_556 S
C3040 C3039 1.524 1_554 S
C3040 C3041 1.397 . S
C3040 C3045 1.363 . S
C3041 H3012 0.950 1_554 S
C3041 C3040 1.397 . S
C3041 C3042 1.334 . S
C3042 H3013 0.950 . S
C3042 C3041 1.334 . S
C3042 C3043 1.287 . S
C3043 C3042 1.287 . S
C3043 C3044 1.524 . S
C3043 H3046 0.999 . S
C3044 H3014 0.950 . S
C3044 C3043 1.524 . S
C3044 C3045 1.415 . S
C3045 H3015 0.950 . S
C3045 C3040 1.363 . S
C3045 C3044 1.415 . S
H3046 C3043 0.999 . S
H3047 C3028 0.913 . S
H3048 C3066 0.951 . S
H3049 C3068 0.951 . S
H3050 C3070 0.950 . S
H3051 C3071 0.950 . S
H3052 C3073 0.950 . S
H3053 C3076 0.950 . S
H3054 C3077 0.950 . S
H3055 C3079 0.950 . S
H3056 C3080 0.950 . S
H3057 C3081 0.951 . S
H3058 C3083 0.951 . S
H3059 C3085 0.950 . S
H3060 C3086 0.950 . S
H3061 C3088 0.950 . S
H3062 C3091 0.950 . S
H3063 C3092 0.950 . S
H3064 C3094 0.950 . S
H3065 C3095 0.950 . S
C3066 H3048 0.951 . S
C3066 C3067 1.366 . S
C3066 C3068 1.388 . S
C3067 C3066 1.366 . S
C3067 C3071 1.385 . S
C3068 H3049 0.951 . S
C3068 C3066 1.388 . S
C3068 C3069 1.366 . S
C3069 C3068 1.366 . S
C3069 C3070 1.414 . S
C3069 C3072 1.499 . S
C3070 H3050 0.950 . S
C3070 C3069 1.414 . S
C3070 C3071 1.374 . S
C3071 H3051 0.950 . S
C3071 C3067 1.385 . S
C3071 C3070 1.374 . S
C3072 C3069 1.499 . S
C3072 C3073 1.373 . S
C3072 C3074 1.389 . S
C3073 H3052 0.950 . S
C3073 C3072 1.373 . S
C3073 C3089 1.377 . S
C3074 C3072 1.389 . S
C3074 C3075 1.524 . S
C3074 C3088 1.377 . S
C3075 C3074 1.524 . S
C3075 C3076 1.397 . S
C3075 C3080 1.363 . S
C3076 H3053 0.950 . S
C3076 C3075 1.397 . S
C3076 C3077 1.334 . S
C3077 H3054 0.950 . S
C3077 C3076 1.334 . S
C3077 C3078 1.287 . S
C3078 C3077 1.287 . S
C3078 C3079 1.524 . S
C3078 H3097 0.913 . S
C3079 H3055 0.950 . S
C3079 C3078 1.524 . S
C3079 C3080 1.415 . S
C3080 H3056 0.950 . S
C3080 C3075 1.363 . S
C3080 C3079 1.415 . S
C3081 H3057 0.951 . S
C3081 C3082 1.366 . S
C3081 C3083 1.388 . S
C3082 C3081 1.366 . S
C3082 C3086 1.385 . S
C3083 H3058 0.951 . S
C3083 C3081 1.388 . S
C3083 C3084 1.366 . S
C3084 C3083 1.366 . S
C3084 C3085 1.414 . S
C3084 C3087 1.499 . S
C3085 H3059 0.950 . S
C3085 C3084 1.414 . S
C3085 C3086 1.374 . S
C3086 H3060 0.950 . S
C3086 C3082 1.385 . S
C3086 C3085 1.374 . S
C3087 C3084 1.499 . S
C3087 C3088 1.373 . S
C3087 C3089 1.389 . S
C3088 H3061 0.950 . S
C3088 C3074 1.377 . S
C3088 C3087 1.373 . S
C3089 C3073 1.377 . S
C3089 C3087 1.389 . S
C3089 C3090 1.524 . S
C3090 C3089 1.524 . S
C3090 C3091 1.397 . S
C3090 C3095 1.363 . S
C3091 H3062 0.950 . S
C3091 C3090 1.397 . S
C3091 C3092 1.334 . S
C3092 H3063 0.950 . S
C3092 C3091 1.334 . S
C3092 C3093 1.287 . S
C3093 C3092 1.287 . S
C3093 C3094 1.524 . S
C3093 H3096 0.999 . S
C3094 H3064 0.950 . S
C3094 C3093 1.524 . S
C3094 C3095 1.415 . S
C3095 H3065 0.950 . S
C3095 C3090 1.363 . S
C3095 C3094 1.415 . S
H3096 C3093 0.999 . S
H3097 C3078 0.913 . S
H3098 C3116 0.951 . S
H3099 C3118 0.951 . S
H3100 C3120 0.950 . S
H3101 C3121 0.950 . S
H3102 C3123 0.950 . S
H3103 C3126 0.950 . S
H3104 C3127 0.950 . S
H3105 C3129 0.950 . S
H3106 C3130 0.950 . S
H3107 C3131 0.951 . S
H3108 C3133 0.951 . S
H3109 C3135 0.950 . S
H3110 C3136 0.950 . S
H3111 C3138 0.950 . S
H3112 C3141 0.950 . S
H3113 C3142 0.950 . S
H3114 C3144 0.950 . S
H3115 C3145 0.950 . S
C3116 H3098 0.951 . S
C3116 C3117 1.366 . S
C3116 C3118 1.388 . S
C3117 C3116 1.366 . S
C3117 C3121 1.385 . S
C3118 H3099 0.951 . S
C3118 C3116 1.388 . S
C3118 C3119 1.366 . S
C3119 C3118 1.366 . S
C3119 C3120 1.414 . S
C3119 C3122 1.499 . S
C3120 H3100 0.950 . S
C3120 C3119 1.414 . S
C3120 C3121 1.374 . S
C3121 H3101 0.950 . S
C3121 C3117 1.385 . S
C3121 C3120 1.374 . S
C3122 C3119 1.499 . S
C3122 C3123 1.373 . S
C3122 C3124 1.389 . S
C3123 H3102 0.950 . S
C3123 C3122 1.373 . S
C3123 C3139 1.377 . S
C3124 C3122 1.389 . S
C3124 C3125 1.524 . S
C3124 C3138 1.377 . S
C3125 C3124 1.524 . S
C3125 C3126 1.397 . S
C3125 C3130 1.363 . S
C3126 H3103 0.950 . S
C3126 C3125 1.397 . S
C3126 C3127 1.334 . S
C3127 H3104 0.950 . S
C3127 C3126 1.334 . S
C3127 C3128 1.287 . S
C3128 C3127 1.287 . S
C3128 C3129 1.524 . S
C3128 H3147 0.913 . S
C3129 H3105 0.950 . S
C3129 C3128 1.524 . S
C3129 C3130 1.415 . S
C3130 H3106 0.950 . S
C3130 C3125 1.363 . S
C3130 C3129 1.415 . S
C3131 H3107 0.951 . S
C3131 C3132 1.366 . S
C3131 C3133 1.388 . S
C3132 C3131 1.366 . S
C3132 C3136 1.385 . S
C3133 H3108 0.951 . S
C3133 C3131 1.388 . S
C3133 C3134 1.366 . S
C3134 C3133 1.366 . S
C3134 C3135 1.414 . S
C3134 C3137 1.499 . S
C3135 H3109 0.950 . S
C3135 C3134 1.414 . S
C3135 C3136 1.374 . S
C3136 H3110 0.950 . S
C3136 C3132 1.385 . S
C3136 C3135 1.374 . S
C3137 C3134 1.499 . S
C3137 C3138 1.373 . S
C3137 C3139 1.389 . S
C3138 H3111 0.950 . S
C3138 C3124 1.377 . S
C3138 C3137 1.373 . S
C3139 C3123 1.377 . S
C3139 C3137 1.389 . S
C3139 C3140 1.524 . S
C3140 C3139 1.524 . S
C3140 C3141 1.397 . S
C3140 C3145 1.363 . S
C3141 H3112 0.950 . S
C3141 C3140 1.397 . S
C3141 C3142 1.334 . S
C3142 H3113 0.950 . S
C3142 C3141 1.334 . S
C3142 C3143 1.287 . S
C3143 C3142 1.287 . S
C3143 C3144 1.524 . S
C3143 H3146 0.999 . S
C3144 H3114 0.950 . S
C3144 C3143 1.524 . S
C3144 C3145 1.415 . S
C3145 H3115 0.950 . S
C3145 C3140 1.363 . S
C3145 C3144 1.415 . S
H3146 C3143 0.999 . S
H3147 C3128 0.913 . S
H3148 C3166 0.951 . S
H3149 C3168 0.951 . S
H3150 C3170 0.950 . S
H3151 C3171 0.950 . S
H3152 C3173 0.950 . S
H3153 C3176 0.950 . S
H3154 C3177 0.950 . S
H3155 C3179 0.950 . S
H3156 C3180 0.950 . S
H3157 C3181 0.951 . S
H3158 C3183 0.951 . S
H3159 C3185 0.950 . S
H3160 C3186 0.950 . S
H3161 C3188 0.950 . S
H3162 C3191 0.950 . S
H3163 C3192 0.950 . S
H3164 C3194 0.950 . S
H3165 C3195 0.950 . S
C3166 H3148 0.951 . S
C3166 C3167 1.366 . S
C3166 C3168 1.388 . S
C3167 C3166 1.366 . S
C3167 C3171 1.385 . S
C3168 H3149 0.951 . S
C3168 C3166 1.388 . S
C3168 C3169 1.366 . S
C3169 C3168 1.366 . S
C3169 C3170 1.414 . S
C3169 C3172 1.499 . S
C3170 H3150 0.950 . S
C3170 C3169 1.414 . S
C3170 C3171 1.374 . S
C3171 H3151 0.950 . S
C3171 C3167 1.385 . S
C3171 C3170 1.374 . S
C3172 C3169 1.499 . S
C3172 C3173 1.373 . S
C3172 C3174 1.389 . S
C3173 H3152 0.950 . S
C3173 C3172 1.373 . S
C3173 C3189 1.377 . S
C3174 C3172 1.389 . S
C3174 C3175 1.524 . S
C3174 C3188 1.377 . S
C3175 C3174 1.524 . S
C3175 C3176 1.397 . S
C3175 C3180 1.363 . S
C3176 H3153 0.950 . S
C3176 C3175 1.397 . S
C3176 C3177 1.334 . S
C3177 H3154 0.950 . S
C3177 C3176 1.334 . S
C3177 C3178 1.287 . S
C3178 C3177 1.287 . S
C3178 C3179 1.524 . S
C3178 H3197 0.913 . S
C3179 H3155 0.950 . S
C3179 C3178 1.524 . S
C3179 C3180 1.415 . S
C3180 H3156 0.950 . S
C3180 C3175 1.363 . S
C3180 C3179 1.415 . S
C3181 H3157 0.951 . S
C3181 C3182 1.366 . S
C3181 C3183 1.388 . S
C3182 C3181 1.366 . S
C3182 C3186 1.385 . S
C3183 H3158 0.951 . S
C3183 C3181 1.388 . S
C3183 C3184 1.366 . S
C3184 C3183 1.366 . S
C3184 C3185 1.414 . S
C3184 C3187 1.499 . S
C3185 H3159 0.950 . S
C3185 C3184 1.414 . S
C3185 C3186 1.374 . S
C3186 H3160 0.950 . S
C3186 C3182 1.385 . S
C3186 C3185 1.374 . S
C3187 C3184 1.499 . S
C3187 C3188 1.373 . S
C3187 C3189 1.389 . S
C3188 H3161 0.950 . S
C3188 C3174 1.377 . S
C3188 C3187 1.373 . S
C3189 C3173 1.377 . S
C3189 C3187 1.389 . S
C3189 C3190 1.524 . S
C3190 C3189 1.524 . S
C3190 C3191 1.397 . S
C3190 C3195 1.363 . S
C3191 H3162 0.950 . S
C3191 C3190 1.397 . S
C3191 C3192 1.334 . S
C3192 H3163 0.950 . S
C3192 C3191 1.334 . S
C3192 C3193 1.287 . S
C3193 C3192 1.287 . S
C3193 C3194 1.524 . S
C3193 H3196 0.999 . S
C3194 H3164 0.950 . S
C3194 C3193 1.524 . S
C3194 C3195 1.415 . S
C3195 H3165 0.950 . S
C3195 C3190 1.363 . S
C3195 C3194 1.415 . S
H3196 C3193 0.999 . S
H3197 C3178 0.913 . S
H3198 C3216 0.951 . S
H3199 C3218 0.951 . S
H3200 C3220 0.950 . S
H3201 C3221 0.950 . S
H3202 C3223 0.950 . S
H3203 C3226 0.950 . S
H3204 C3227 0.950 . S
H3205 C3229 0.950 . S
H3206 C3230 0.950 . S
H3207 C3231 0.951 . S
H3208 C3233 0.951 . S
H3209 C3235 0.950 . S
H3210 C3236 0.950 . S
H3211 C3238 0.950 . S
H3212 C3241 0.950 . S
H3213 C3242 0.950 . S
H3214 C3244 0.950 . S
H3215 C3245 0.950 . S
C3216 H3198 0.951 . S
C3216 C3217 1.366 . S
C3216 C3218 1.388 . S
C3217 C3216 1.366 . S
C3217 C3221 1.385 . S
C3218 H3199 0.951 . S
C3218 C3216 1.388 . S
C3218 C3219 1.366 . S
C3219 C3218 1.366 . S
C3219 C3220 1.414 . S
C3219 C3222 1.499 . S
C3220 H3200 0.950 . S
C3220 C3219 1.414 . S
C3220 C3221 1.374 . S
C3221 H3201 0.950 . S
C3221 C3217 1.385 . S
C3221 C3220 1.374 . S
C3222 C3219 1.499 . S
C3222 C3223 1.373 . S
C3222 C3224 1.389 . S
C3223 H3202 0.950 . S
C3223 C3222 1.373 . S
C3223 C3239 1.377 . S
C3224 C3222 1.389 . S
C3224 C3225 1.524 . S
C3224 C3238 1.377 . S
C3225 C3224 1.524 . S
C3225 C3226 1.397 . S
C3225 C3230 1.363 . S
C3226 H3203 0.950 . S
C3226 C3225 1.397 . S
C3226 C3227 1.334 . S
C3227 H3204 0.950 . S
C3227 C3226 1.334 . S
C3227 C3228 1.287 . S
C3228 C3227 1.287 . S
C3228 C3229 1.524 . S
C3228 H3247 0.913 . S
C3229 H3205 0.950 . S
C3229 C3228 1.524 . S
C3229 C3230 1.415 . S
C3230 H3206 0.950 . S
C3230 C3225 1.363 . S
C3230 C3229 1.415 . S
C3231 H3207 0.951 . S
C3231 C3232 1.366 . S
C3231 C3233 1.388 . S
C3232 C3231 1.366 . S
C3232 C3236 1.385 . S
C3233 H3208 0.951 . S
C3233 C3231 1.388 . S
C3233 C3234 1.366 . S
C3234 C3233 1.366 . S
C3234 C3235 1.414 . S
C3234 C3237 1.499 . S
C3235 H3209 0.950 . S
C3235 C3234 1.414 . S
C3235 C3236 1.374 . S
C3236 H3210 0.950 . S
C3236 C3232 1.385 . S
C3236 C3235 1.374 . S
C3237 C3234 1.499 . S
C3237 C3238 1.373 . S
C3237 C3239 1.389 . S
C3238 H3211 0.950 . S
C3238 C3224 1.377 . S
C3238 C3237 1.373 . S
C3239 C3223 1.377 . S
C3239 C3237 1.389 . S
C3239 C3240 1.524 . S
C3240 C3239 1.524 . S
C3240 C3241 1.397 . S
C3240 C3245 1.363 . S
C3241 H3212 0.950 . S
C3241 C3240 1.397 . S
C3241 C3242 1.334 . S
C3242 H3213 0.950 . S
C3242 C3241 1.334 . S
C3242 C3243 1.287 . S
C3243 C3242 1.287 . S
C3243 C3244 1.524 . S
C3243 H3246 0.999 . S
C3244 H3214 0.950 . S
C3244 C3243 1.524 . S
C3244 C3245 1.415 . S
C3245 H3215 0.950 . S
C3245 C3240 1.363 . S
C3245 C3244 1.415 . S
H3246 C3243 0.999 . S
H3247 C3228 0.913 . S
H3248 C3266 0.951 . S
H3249 C3268 0.951 . S
H3250 C3270 0.950 . S
H3251 C3271 0.950 . S
H3252 C3273 0.950 . S
H3253 C3276 0.950 . S
H3254 C3277 0.950 . S
H3255 C3279 0.950 . S
H3256 C3280 0.950 . S
H3257 C3281 0.951 . S
H3258 C3283 0.951 . S
H3259 C3285 0.950 . S
H3260 C3286 0.950 . S
H3261 C3288 0.950 . S
H3262 C3291 0.950 . S
H3263 C3292 0.950 . S
H3264 C3294 0.950 . S
H3265 C3295 0.950 . S
C3266 H3248 0.951 . S
C3266 C3267 1.366 . S
C3266 C3268 1.388 . S
C3267 C3266 1.366 . S
C3267 C3271 1.385 . S
C3268 H3249 0.951 . S
C3268 C3266 1.388 . S
C3268 C3269 1.366 . S
C3269 C3268 1.366 . S
C3269 C3270 1.414 . S
C3269 C3272 1.499 . S
C3270 H3250 0.950 . S
C3270 C3269 1.414 . S
C3270 C3271 1.374 . S
C3271 H3251 0.950 . S
C3271 C3267 1.385 . S
C3271 C3270 1.374 . S
C3272 C3269 1.499 . S
C3272 C3273 1.373 . S
C3272 C3274 1.389 . S
C3273 H3252 0.950 . S
C3273 C3272 1.373 . S
C3273 C3289 1.377 . S
C3274 C3272 1.389 . S
C3274 C3275 1.524 . S
C3274 C3288 1.377 . S
C3275 C3274 1.524 . S
C3275 C3276 1.397 . S
C3275 C3280 1.363 . S
C3276 H3253 0.950 . S
C3276 C3275 1.397 . S
C3276 C3277 1.334 . S
C3277 H3254 0.950 . S
C3277 C3276 1.334 . S
C3277 C3278 1.287 . S
C3278 C3277 1.287 . S
C3278 C3279 1.524 . S
C3278 H3297 0.913 . S
C3279 H3255 0.950 . S
C3279 C3278 1.524 . S
C3279 C3280 1.415 . S
C3280 H3256 0.950 . S
C3280 C3275 1.363 . S
C3280 C3279 1.415 . S
C3281 H3257 0.951 . S
C3281 C3282 1.366 . S
C3281 C3283 1.388 1_556 S
C3282 C3281 1.366 . S
C3282 C3286 1.385 . S
C3283 H3258 0.951 . S
C3283 C3281 1.388 1_554 S
C3283 C3284 1.366 . S
C3284 C3283 1.366 . S
C3284 C3285 1.414 1_554 S
C3284 C3287 1.499 . S
C3285 H3259 0.950 . S
C3285 C3284 1.414 1_556 S
C3285 C3286 1.374 . S
C3286 H3260 0.950 . S
C3286 C3282 1.385 . S
C3286 C3285 1.374 . S
C3287 C3284 1.499 . S
C3287 C3288 1.373 . S
C3287 C3289 1.389 . S
C3288 H3261 0.950 . S
C3288 C3274 1.377 . S
C3288 C3287 1.373 . S
C3289 C3273 1.377 . S
C3289 C3287 1.389 . S
C3289 C3290 1.524 . S
C3290 C3289 1.524 . S
C3290 C3291 1.397 1_554 S
C3290 C3295 1.363 . S
C3291 H3262 0.950 . S
C3291 C3290 1.397 1_556 S
C3291 C3292 1.334 . S
C3292 H3263 0.950 . S
C3292 C3291 1.334 . S
C3292 C3293 1.287 1_556 S
C3293 C3292 1.287 1_554 S
C3293 C3294 1.524 . S
C3293 H3296 0.999 1_554 S
C3294 H3264 0.950 . S
C3294 C3293 1.524 . S
C3294 C3295 1.415 . S
C3295 H3265 0.950 . S
C3295 C3290 1.363 . S
C3295 C3294 1.415 . S
H3296 C3293 0.999 1_556 S
H3297 C3278 0.913 . S
H3298 C3316 0.951 . S
H3299 C3318 0.951 . S
H3300 C3320 0.950 . S
H3301 C3321 0.950 . S
H3302 C3323 0.950 . S
H3303 C3326 0.950 . S
H3304 C3327 0.950 . S
H3305 C3329 0.950 . S
H3306 C3330 0.950 . S
H3307 C3331 0.951 . S
H3308 C3333 0.951 . S
H3309 C3335 0.950 . S
H3310 C3336 0.950 . S
H3311 C3338 0.950 . S
H3312 C3341 0.950 . S
H3313 C3342 0.950 . S
H3314 C3344 0.950 . S
H3315 C3345 0.950 . S
C3316 H3298 0.951 . S
C3316 C3317 1.366 . S
C3316 C3318 1.388 . S
C3317 C3316 1.366 . S
C3317 C3321 1.385 . S
C3318 H3299 0.951 . S
C3318 C3316 1.388 . S
C3318 C3319 1.366 . S
C3319 C3318 1.366 . S
C3319 C3320 1.414 . S
C3319 C3322 1.499 . S
C3320 H3300 0.950 . S
C3320 C3319 1.414 . S
C3320 C3321 1.374 . S
C3321 H3301 0.950 . S
C3321 C3317 1.385 . S
C3321 C3320 1.374 . S
C3322 C3319 1.499 . S
C3322 C3323 1.373 . S
C3322 C3324 1.389 . S
C3323 H3302 0.950 . S
C3323 C3322 1.373 . S
C3323 C3339 1.377 . S
C3324 C3322 1.389 . S
C3324 C3325 1.524 . S
C3324 C3338 1.377 . S
C3325 C3324 1.524 . S
C3325 C3326 1.397 . S
C3325 C3330 1.363 . S
C3326 H3303 0.950 . S
C3326 C3325 1.397 . S
C3326 C3327 1.334 . S
C3327 H3304 0.950 . S
C3327 C3326 1.334 . S
C3327 C3328 1.287 . S
C3328 C3327 1.287 . S
C3328 C3329 1.524 . S
C3328 H3347 0.913 . S
C3329 H3305 0.950 . S
C3329 C3328 1.524 . S
C3329 C3330 1.415 . S
C3330 H3306 0.950 . S
C3330 C3325 1.363 . S
C3330 C3329 1.415 . S
C3331 H3307 0.951 . S
C3331 C3332 1.366 . S
C3331 C3333 1.388 . S
C3332 C3331 1.366 . S
C3332 C3336 1.385 . S
C3333 H3308 0.951 . S
C3333 C3331 1.388 . S
C3333 C3334 1.366 . S
C3334 C3333 1.366 . S
C3334 C3335 1.414 . S
C3334 C3337 1.499 . S
C3335 H3309 0.950 . S
C3335 C3334 1.414 . S
C3335 C3336 1.374 . S
C3336 H3310 0.950 . S
C3336 C3332 1.385 . S
C3336 C3335 1.374 . S
C3337 C3334 1.499 . S
C3337 C3338 1.373 . S
C3337 C3339 1.389 . S
C3338 H3311 0.950 . S
C3338 C3324 1.377 . S
C3338 C3337 1.373 . S
C3339 C3323 1.377 . S
C3339 C3337 1.389 . S
C3339 C3340 1.524 . S
C3340 C3339 1.524 . S
C3340 C3341 1.397 . S
C3340 C3345 1.363 . S
C3341 H3312 0.950 . S
C3341 C3340 1.397 . S
C3341 C3342 1.334 . S
C3342 H3313 0.950 . S
C3342 C3341 1.334 . S
C3342 C3343 1.287 . S
C3343 C3342 1.287 . S
C3343 C3344 1.524 . S
C3343 H3346 0.999 . S
C3344 H3314 0.950 . S
C3344 C3343 1.524 . S
C3344 C3345 1.415 . S
C3345 H3315 0.950 . S
C3345 C3340 1.363 . S
C3345 C3344 1.415 . S
H3346 C3343 0.999 . S
H3347 C3328 0.913 . S
H3348 C3366 0.951 . S
H3349 C3368 0.951 . S
H3350 C3370 0.950 . S
H3351 C3371 0.950 . S
H3352 C3373 0.950 . S
H3353 C3376 0.950 . S
H3354 C3377 0.950 . S
H3355 C3379 0.950 . S
H3356 C3380 0.950 . S
H3357 C3381 0.951 . S
H3358 C3383 0.951 . S
H3359 C3385 0.950 . S
H3360 C3386 0.950 . S
H3361 C3388 0.950 . S
H3362 C3391 0.950 . S
H3363 C3392 0.950 . S
H3364 C3394 0.950 . S
H3365 C3395 0.950 . S
C3366 H3348 0.951 . S
C3366 C3367 1.366 . S
C3366 C3368 1.388 . S
C3367 C3366 1.366 . S
C3367 C3371 1.385 . S
C3368 H3349 0.951 . S
C3368 C3366 1.388 . S
C3368 C3369 1.366 . S
C3369 C3368 1.366 . S
C3369 C3370 1.414 . S
C3369 C3372 1.499 . S
C3370 H3350 0.950 . S
C3370 C3369 1.414 . S
C3370 C3371 1.374 . S
C3371 H3351 0.950 . S
C3371 C3367 1.385 . S
C3371 C3370 1.374 . S
C3372 C3369 1.499 . S
C3372 C3373 1.373 . S
C3372 C3374 1.389 . S
C3373 H3352 0.950 . S
C3373 C3372 1.373 . S
C3373 C3389 1.377 . S
C3374 C3372 1.389 . S
C3374 C3375 1.524 . S
C3374 C3388 1.377 . S
C3375 C3374 1.524 . S
C3375 C3376 1.397 . S
C3375 C3380 1.363 . S
C3376 H3353 0.950 . S
C3376 C3375 1.397 . S
C3376 C3377 1.334 . S
C3377 H3354 0.950 . S
C3377 C3376 1.334 . S
C3377 C3378 1.287 . S
C3378 C3377 1.287 . S
C3378 C3379 1.524 . S
C3378 H3397 0.913 . S
C3379 H3355 0.950 . S
C3379 C3378 1.524 . S
C3379 C3380 1.415 . S
C3380 H3356 0.950 . S
C3380 C3375 1.363 . S
C3380 C3379 1.415 . S
C3381 H3357 0.951 . S
C3381 C3382 1.366 . S
C3381 C3383 1.388 . S
C3382 C3381 1.366 . S
C3382 C3386 1.385 . S
C3383 H3358 0.951 . S
C3383 C3381 1.388 . S
C3383 C3384 1.366 . S
C3384 C3383 1.366 . S
C3384 C3385 1.414 . S
C3384 C3387 1.499 . S
C3385 H3359 0.950 . S
C3385 C3384 1.414 . S
C3385 C3386 1.374 . S
C3386 H3360 0.950 . S
C3386 C3382 1.385 . S
C3386 C3385 1.374 . S
C3387 C3384 1.499 . S
C3387 C3388 1.373 . S
C3387 C3389 1.389 . S
C3388 H3361 0.950 . S
C3388 C3374 1.377 . S
C3388 C3387 1.373 . S
C3389 C3373 1.377 . S
C3389 C3387 1.389 . S
C3389 C3390 1.524 . S
C3390 C3389 1.524 . S
C3390 C3391 1.397 . S
C3390 C3395 1.363 . S
C3391 H3362 0.950 . S
C3391 C3390 1.397 . S
C3391 C3392 1.334 . S
C3392 H3363 0.950 . S
C3392 C3391 1.334 . S
C3392 C3393 1.287 . S
C3393 C3392 1.287 . S
C3393 C3394 1.524 . S
C3393 H3396 0.999 . S
C3394 H3364 0.950 . S
C3394 C3393 1.524 . S
C3394 C3395 1.415 . S
C3395 H3365 0.950 . S
C3395 C3390 1.363 . S
C3395 C3394 1.415 . S
H3396 C3393 0.999 . S
H3397 C3378 0.913 . S
H3398 C3416 0.951 . S
H3399 C3418 0.951 . S
H3400 C3420 0.950 . S
H3401 C3421 0.950 . S
H3402 C3423 0.950 . S
H3403 C3426 0.950 . S
H3404 C3427 0.950 . S
H3405 C3429 0.950 . S
H3406 C3430 0.950 . S
H3407 C3431 0.951 . S
H3408 C3433 0.951 . S
H3409 C3435 0.950 . S
H3410 C3436 0.950 . S
H3411 C3438 0.950 . S
H3412 C3441 0.950 . S
H3413 C3442 0.950 . S
H3414 C3444 0.950 . S
H3415 C3445 0.950 . S
C3416 H3398 0.951 . S
C3416 C3417 1.366 . S
C3416 C3418 1.388 . S
C3417 C3416 1.366 . S
C3417 C3421 1.385 . S
C3418 H3399 0.951 . S
C3418 C3416 1.388 . S
C3418 C3419 1.366 . S
C3419 C3418 1.366 . S
C3419 C3420 1.414 . S
C3419 C3422 1.499 . S
C3420 H3400 0.950 . S
C3420 C3419 1.414 . S
C3420 C3421 1.374 . S
C3421 H3401 0.950 . S
C3421 C3417 1.385 . S
C3421 C3420 1.374 . S
C3422 C3419 1.499 . S
C3422 C3423 1.373 . S
C3422 C3424 1.389 . S
C3423 H3402 0.950 . S
C3423 C3422 1.373 . S
C3423 C3439 1.377 . S
C3424 C3422 1.389 . S
C3424 C3425 1.524 . S
C3424 C3438 1.377 . S
C3425 C3424 1.524 . S
C3425 C3426 1.397 . S
C3425 C3430 1.363 . S
C3426 H3403 0.950 . S
C3426 C3425 1.397 . S
C3426 C3427 1.334 . S
C3427 H3404 0.950 . S
C3427 C3426 1.334 . S
C3427 C3428 1.287 . S
C3428 C3427 1.287 . S
C3428 C3429 1.524 . S
C3428 H3447 0.913 . S
C3429 H3405 0.950 . S
C3429 C3428 1.524 . S
C3429 C3430 1.415 . S
C3430 H3406 0.950 . S
C3430 C3425 1.363 . S
C3430 C3429 1.415 . S
C3431 H3407 0.951 . S
C3431 C3432 1.366 . S
C3431 C3433 1.388 . S
C3432 C3431 1.366 . S
C3432 C3436 1.385 . S
C3433 H3408 0.951 . S
C3433 C3431 1.388 . S
C3433 C3434 1.366 . S
C3434 C3433 1.366 . S
C3434 C3435 1.414 . S
C3434 C3437 1.499 . S
C3435 H3409 0.950 . S
C3435 C3434 1.414 . S
C3435 C3436 1.374 . S
C3436 H3410 0.950 . S
C3436 C3432 1.385 . S
C3436 C3435 1.374 . S
C3437 C3434 1.499 . S
C3437 C3438 1.373 . S
C3437 C3439 1.389 . S
C3438 H3411 0.950 . S
C3438 C3424 1.377 . S
C3438 C3437 1.373 . S
C3439 C3423 1.377 . S
C3439 C3437 1.389 . S
C3439 C3440 1.524 . S
C3440 C3439 1.524 . S
C3440 C3441 1.397 . S
C3440 C3445 1.363 . S
C3441 H3412 0.950 . S
C3441 C3440 1.397 . S
C3441 C3442 1.334 . S
C3442 H3413 0.950 . S
C3442 C3441 1.334 . S
C3442 C3443 1.287 . S
C3443 C3442 1.287 . S
C3443 C3444 1.524 . S
C3443 H3446 0.999 . S
C3444 H3414 0.950 . S
C3444 C3443 1.524 . S
C3444 C3445 1.415 . S
C3445 H3415 0.950 . S
C3445 C3440 1.363 . S
C3445 C3444 1.415 . S
H3446 C3443 0.999 . S
H3447 C3428 0.913 . S
H3448 C3466 0.951 . S
H3449 C3468 0.951 1_556 S
H3450 C3470 0.950 . S
H3451 C3471 0.950 . S
H3452 C3473 0.950 . S
H3453 C3476 0.950 . S
H3454 C3477 0.950 . S
H3455 C3479 0.950 . S
H3456 C3480 0.950 . S
H3457 C3481 0.951 . S
H3458 C3483 0.951 . S
H3459 C3485 0.950 . S
H3460 C3486 0.950 . S
H3461 C3488 0.950 . S
H3462 C3491 0.950 . S
H3463 C3492 0.950 . S
H3464 C3494 0.950 . S
H3465 C3495 0.950 . S
C3466 H3448 0.951 . S
C3466 C3467 1.366 . S
C3466 C3468 1.388 . S
C3467 C3466 1.366 . S
C3467 C3471 1.385 . S
C3468 H3449 0.951 1_554 S
C3468 C3466 1.388 . S
C3468 C3469 1.366 . S
C3469 C3468 1.366 . S
C3469 C3470 1.414 . S
C3469 C3472 1.499 1_554 S
C3470 H3450 0.950 . S
C3470 C3469 1.414 . S
C3470 C3471 1.374 . S
C3471 H3451 0.950 . S
C3471 C3467 1.385 . S
C3471 C3470 1.374 . S
C3472 C3469 1.499 1_556 S
C3472 C3473 1.373 . S
C3472 C3474 1.389 . S
C3473 H3452 0.950 . S
C3473 C3472 1.373 . S
C3473 C3489 1.377 . S
C3474 C3472 1.389 . S
C3474 C3475 1.524 . S
C3474 C3488 1.377 . S
C3475 C3474 1.524 . S
C3475 C3476 1.397 1_556 S
C3475 C3480 1.363 . S
C3476 H3453 0.950 . S
C3476 C3475 1.397 1_554 S
C3476 C3477 1.334 . S
C3477 H3454 0.950 . S
C3477 C3476 1.334 . S
C3477 C3478 1.287 1_554 S
C3478 C3477 1.287 1_556 S
C3478 C3479 1.524 . S
C3478 H3497 0.910 1_556 S
C3479 H3455 0.950 . S
C3479 C3478 1.524 . S
C3479 C3480 1.415 . S
C3480 H3456 0.950 . S
C3480 C3475 1.363 . S
C3480 C3479 1.415 . S
C3481 H3457 0.951 . S
C3481 C3482 1.366 . S
C3481 C3483 1.388 . S
C3482 C3481 1.366 . S
C3482 C3486 1.385 . S
C3483 H3458 0.951 . S
C3483 C3481 1.388 . S
C3483 C3484 1.366 . S
C3484 C3483 1.366 . S
C3484 C3485 1.414 . S
C3484 C3487 1.499 . S
C3485 H3459 0.950 . S
C3485 C3484 1.414 . S
C3485 C3486 1.374 . S
C3486 H3460 0.950 . S
C3486 C3482 1.385 . S
C3486 C3485 1.374 . S
C3487 C3484 1.499 . S
C3487 C3488 1.373 . S
C3487 C3489 1.389 . S
C3488 H3461 0.950 . S
C3488 C3474 1.377 . S
C3488 C3487 1.373 . S
C3489 C3473 1.377 . S
C3489 C3487 1.389 . S
C3489 C3490 1.524 . S
C3490 C3489 1.524 . S
C3490 C3491 1.397 . S
C3490 C3495 1.363 . S
C3491 H3462 0.950 . S
C3491 C3490 1.397 . S
C3491 C3492 1.334 . S
C3492 H3463 0.950 . S
C3492 C3491 1.334 . S
C3492 C3493 1.287 . S
C3493 C3492 1.287 . S
C3493 C3494 1.524 . S
C3493 H3496 0.999 . S
C3494 H3464 0.950 . S
C3494 C3493 1.524 . S
C3494 C3495 1.415 . S
C3495 H3465 0.950 . S
C3495 C3490 1.363 . S
C3495 C3494 1.415 . S
H3496 C3493 0.999 . S
H3497 C3478 0.910 1_554 S
H3498 C3516 0.951 . S
H3499 C3518 0.951 . S
H3500 C3520 0.950 . S
H3501 C3521 0.950 . S
H3502 C3523 0.950 . S
H3503 C3526 0.950 . S
H3504 C3527 0.950 . S
H3505 C3529 0.950 . S
H3506 C3530 0.950 . S
H3507 C3531 0.951 . S
H3508 C3533 0.951 . S
H3509 C3535 0.950 . S
H3510 C3536 0.950 . S
H3511 C3538 0.950 . S
H3512 C3541 0.950 . S
H3513 C3542 0.950 . S
H3514 C3544 0.950 . S
H3515 C3545 0.950 . S
C3516 H3498 0.951 . S
C3516 C3517 1.366 . S
C3516 C3518 1.388 . S
C3517 C3516 1.366 . S
C3517 C3521 1.385 . S
C3518 H3499 0.951 . S
C3518 C3516 1.388 . S
C3518 C3519 1.366 . S
C3519 C3518 1.366 . S
C3519 C3520 1.414 . S
C3519 C3522 1.499 . S
C3520 H3500 0.950 . S
C3520 C3519 1.414 . S
C3520 C3521 1.374 . S
C3521 H3501 0.950 . S
C3521 C3517 1.385 . S
C3521 C3520 1.374 . S
C3522 C3519 1.499 . S
C3522 C3523 1.373 . S
C3522 C3524 1.389 . S
C3523 H3502 0.950 . S
C3523 C3522 1.373 . S
C3523 C3539 1.377 . S
C3524 C3522 1.389 . S
C3524 C3525 1.524 . S
C3524 C3538 1.377 . S
C3525 C3524 1.524 . S
C3525 C3526 1.397 . S
C3525 C3530 1.363 . S
C3526 H3503 0.950 . S
C3526 C3525 1.397 . S
C3526 C3527 1.334 . S
C3527 H3504 0.950 . S
C3527 C3526 1.334 . S
C3527 C3528 1.287 . S
C3528 C3527 1.287 . S
C3528 C3529 1.524 . S
C3528 H3547 0.913 . S
C3529 H3505 0.950 . S
C3529 C3528 1.524 . S
C3529 C3530 1.415 . S
C3530 H3506 0.950 . S
C3530 C3525 1.363 . S
C3530 C3529 1.415 . S
C3531 H3507 0.951 . S
C3531 C3532 1.366 . S
C3531 C3533 1.388 . S
C3532 C3531 1.366 . S
C3532 C3536 1.385 . S
C3533 H3508 0.951 . S
C3533 C3531 1.388 . S
C3533 C3534 1.366 . S
C3534 C3533 1.366 . S
C3534 C3535 1.414 . S
C3534 C3537 1.499 . S
C3535 H3509 0.950 . S
C3535 C3534 1.414 . S
C3535 C3536 1.374 . S
C3536 H3510 0.950 . S
C3536 C3532 1.385 . S
C3536 C3535 1.374 . S
C3537 C3534 1.499 . S
C3537 C3538 1.373 . S
C3537 C3539 1.389 . S
C3538 H3511 0.950 . S
C3538 C3524 1.377 . S
C3538 C3537 1.373 . S
C3539 C3523 1.377 . S
C3539 C3537 1.389 . S
C3539 C3540 1.524 . S
C3540 C3539 1.524 . S
C3540 C3541 1.397 . S
C3540 C3545 1.363 . S
C3541 H3512 0.950 . S
C3541 C3540 1.397 . S
C3541 C3542 1.334 . S
C3542 H3513 0.950 . S
C3542 C3541 1.334 . S
C3542 C3543 1.287 . S
C3543 C3542 1.287 . S
C3543 C3544 1.524 . S
C3543 H3546 0.999 . S
C3544 H3514 0.950 . S
C3544 C3543 1.524 . S
C3544 C3545 1.415 . S
C3545 H3515 0.950 . S
C3545 C3540 1.363 . S
C3545 C3544 1.415 . S
H3546 C3543 0.999 . S
H3547 C3528 0.913 . S
H3548 C3566 0.951 . S
H3549 C3568 0.951 . S
H3550 C3570 0.950 . S
H3551 C3571 0.950 . S
H3552 C3573 0.950 . S
H3553 C3576 0.950 . S
H3554 C3577 0.950 . S
H3555 C3579 0.950 . S
H3556 C3580 0.950 . S
H3557 C3581 0.951 . S
H3558 C3583 0.951 . S
H3559 C3585 0.950 . S
H3560 C3586 0.950 . S
H3561 C3588 0.950 . S
H3562 C3591 0.950 . S
H3563 C3592 0.950 . S
H3564 C3594 0.950 . S
H3565 C3595 0.950 . S
C3566 H3548 0.951 . S
C3566 C3567 1.366 . S
C3566 C3568 1.388 . S
C3567 C3566 1.366 . S
C3567 C3571 1.385 . S
C3568 H3549 0.951 . S
C3568 C3566 1.388 . S
C3568 C3569 1.366 . S
C3569 C3568 1.366 . S
C3569 C3570 1.414 . S
C3569 C3572 1.499 . S
C3570 H3550 0.950 . S
C3570 C3569 1.414 . S
C3570 C3571 1.374 . S
C3571 H3551 0.950 . S
C3571 C3567 1.385 . S
C3571 C3570 1.374 . S
C3572 C3569 1.499 . S
C3572 C3573 1.373 . S
C3572 C3574 1.389 . S
C3573 H3552 0.950 . S
C3573 C3572 1.373 . S
C3573 C3589 1.377 . S
C3574 C3572 1.389 . S
C3574 C3575 1.524 . S
C3574 C3588 1.377 . S
C3575 C3574 1.524 . S
C3575 C3576 1.397 . S
C3575 C3580 1.363 . S
C3576 H3553 0.950 . S
C3576 C3575 1.397 . S
C3576 C3577 1.334 . S
C3577 H3554 0.950 . S
C3577 C3576 1.334 . S
C3577 C3578 1.287 . S
C3578 C3577 1.287 . S
C3578 C3579 1.524 . S
C3578 H3597 0.913 . S
C3579 H3555 0.950 . S
C3579 C3578 1.524 . S
C3579 C3580 1.415 . S
C3580 H3556 0.950 . S
C3580 C3575 1.363 . S
C3580 C3579 1.415 . S
C3581 H3557 0.951 . S
C3581 C3582 1.366 . S
C3581 C3583 1.388 . S
C3582 C3581 1.366 . S
C3582 C3586 1.385 . S
C3583 H3558 0.951 . S
C3583 C3581 1.388 . S
C3583 C3584 1.366 . S
C3584 C3583 1.366 . S
C3584 C3585 1.414 . S
C3584 C3587 1.499 . S
C3585 H3559 0.950 . S
C3585 C3584 1.414 . S
C3585 C3586 1.374 . S
C3586 H3560 0.950 . S
C3586 C3582 1.385 . S
C3586 C3585 1.374 . S
C3587 C3584 1.499 . S
C3587 C3588 1.373 . S
C3587 C3589 1.389 . S
C3588 H3561 0.950 . S
C3588 C3574 1.377 . S
C3588 C3587 1.373 . S
C3589 C3573 1.377 . S
C3589 C3587 1.389 . S
C3589 C3590 1.524 . S
C3590 C3589 1.524 . S
C3590 C3591 1.397 . S
C3590 C3595 1.363 . S
C3591 H3562 0.950 . S
C3591 C3590 1.397 . S
C3591 C3592 1.334 . S
C3592 H3563 0.950 . S
C3592 C3591 1.334 . S
C3592 C3593 1.287 . S
C3593 C3592 1.287 . S
C3593 C3594 1.524 . S
C3593 H3596 0.999 . S
C3594 H3564 0.950 . S
C3594 C3593 1.524 . S
C3594 C3595 1.415 . S
C3595 H3565 0.950 . S
C3595 C3590 1.363 . S
C3595 C3594 1.415 . S
H3596 C3593 0.999 . S
H3597 C3578 0.913 . S
H3598 C3616 0.951 . S
H3599 C3618 0.951 . S
H3600 C3620 0.950 . S
H3601 C3621 0.950 . S
H3602 C3623 0.950 . S
H3603 C3626 0.950 . S
H3604 C3627 0.950 . S
H3605 C3629 0.950 . S
H3606 C3630 0.950 . S
H3607 C3631 0.951 . S
H3608 C3633 0.951 . S
H3609 C3635 0.950 . S
H3610 C3636 0.950 . S
H3611 C3638 0.950 . S
H3612 C3641 0.950 . S
H3613 C3642 0.950 . S
H3614 C3644 0.950 . S
H3615 C3645 0.950 . S
C3616 H3598 0.951 . S
C3616 C3617 1.366 . S
C3616 C3618 1.388 . S
C3617 C3616 1.366 . S
C3617 C3621 1.385 . S
C3618 H3599 0.951 . S
C3618 C3616 1.388 . S
C3618 C3619 1.366 . S
C3619 C3618 1.366 . S
C3619 C3620 1.414 . S
C3619 C3622 1.499 . S
C3620 H3600 0.950 . S
C3620 C3619 1.414 . S
C3620 C3621 1.374 . S
C3621 H3601 0.950 . S
C3621 C3617 1.385 . S
C3621 C3620 1.374 . S
C3622 C3619 1.499 . S
C3622 C3623 1.373 . S
C3622 C3624 1.389 . S
C3623 H3602 0.950 . S
C3623 C3622 1.373 . S
C3623 C3639 1.377 . S
C3624 C3622 1.389 . S
C3624 C3625 1.524 . S
C3624 C3638 1.377 . S
C3625 C3624 1.524 . S
C3625 C3626 1.397 . S
C3625 C3630 1.363 . S
C3626 H3603 0.950 . S
C3626 C3625 1.397 . S
C3626 C3627 1.334 . S
C3627 H3604 0.950 . S
C3627 C3626 1.334 . S
C3627 C3628 1.287 . S
C3628 C3627 1.287 . S
C3628 C3629 1.524 . S
C3628 H3647 0.913 . S
C3629 H3605 0.950 . S
C3629 C3628 1.524 . S
C3629 C3630 1.415 . S
C3630 H3606 0.950 . S
C3630 C3625 1.363 . S
C3630 C3629 1.415 . S
C3631 H3607 0.951 . S
C3631 C3632 1.366 . S
C3631 C3633 1.388 . S
C3632 C3631 1.366 . S
C3632 C3636 1.385 . S
C3633 H3608 0.951 . S
C3633 C3631 1.388 . S
C3633 C3634 1.366 . S
C3634 C3633 1.366 . S
C3634 C3635 1.414 . S
C3634 C3637 1.499 . S
C3635 H3609 0.950 . S
C3635 C3634 1.414 . S
C3635 C3636 1.374 . S
C3636 H3610 0.950 . S
C3636 C3632 1.385 . S
C3636 C3635 1.374 . S
C3637 C3634 1.499 . S
C3637 C3638 1.373 . S
C3637 C3639 1.389 . S
C3638 H3611 0.950 . S
C3638 C3624 1.377 . S
C3638 C3637 1.373 . S
C3639 C3623 1.377 . S
C3639 C3637 1.389 . S
C3639 C3640 1.524 . S
C3640 C3639 1.524 . S
C3640 C3641 1.397 . S
C3640 C3645 1.363 . S
C3641 H3612 0.950 . S
C3641 C3640 1.397 . S
C3641 C3642 1.334 . S
C3642 H3613 0.950 . S
C3642 C3641 1.334 . S
C3642 C3643 1.287 . S
C3643 C3642 1.287 . S
C3643 C3644 1.524 . S
C3643 H3646 0.999 . S
C3644 H3614 0.950 . S
C3644 C3643 1.524 . S
C3644 C3645 1.415 . S
C3645 H3615 0.950 . S
C3645 C3640 1.363 . S
C3645 C3644 1.415 . S
H3646 C3643 0.999 . S
H3647 C3628 0.913 . S
C467 C9 0.169 . S
C482 C191 0.033 . S
C517 C359 1.575 . S
C532 C23 1.567 . S
C567 C37 0.152 . S
C582 C219 0.040 . S
C617 C51 1.618 . S
C632 C345 1.625 . S
C667 C65 2.540 . S
C682 C247 2.540 . S
C717 C79 1.526 . S
C732 C317 1.533 . S
C767 C93 2.389 . S
C782 C275 2.386 . S
C817 C443 0.543 . S
C832 C107 0.545 . S
C867 C303 2.541 . S
C882 C121 2.540 . S
C917 C135 1.526 . S
C932 C261 1.533 . S
C967 C331 2.386 . S
C982 C149 2.390 . S
C1017 C163 1.618 . S
C1032 C233 1.625 . S
C1067 C205 1.574 . S
C1082 C177 1.566 . S
C1117 C289 0.543 . S
C1132 C401 0.545 . S
C1167 C415 0.034 . S
C1182 C373 0.164 . S
C1217 C429 0.040 . S
C1232 C387 0.154 . S
C1267 C8 1.561 . S
C1282 C22 1.560 . S
C1317 C34 1.749 . S
C1332 C21 1.893 . S
C1367 C50 1.704 . S
C1382 C36 1.706 . S
C1417 C49 1.462 . S
C1432 C6 1.366 . S
C1467 C105 2.060 . S
C1482 C64 2.115 . S
C1517 C76 1.077 . S
C1532 C62 1.104 . S
C1567 C91 1.817 . S
C1582 C77 1.799 . S
C1617 C92 1.412 . S
C1632 C104 1.317 . S
C1667 C134 1.844 . S
C1682 C7 1.835 . S
C1717 C119 1.089 . S
C1732 C48 1.030 . S
C1767 C146 1.040 . S
C1782 C20 1.033 . S
C1817 C385 2.329 1_455 S
C1832 C106 2.382 . S
C1867 C400 2.382 . S
C1882 C35 2.329 . S
C1917 C160 1.028 . S
C1932 C63 1.090 . S
C1967 C90 1.041 . S
C1982 C174 1.034 . S
C2017 C202 1.579 . S
C2032 C188 1.571 . S
C2067 C218 1.444 . S
C2082 C203 1.393 . S
C2117 C230 1.739 . S
C2132 C216 1.732 . S
C2167 C190 1.583 . S
C2182 C231 1.531 . S
C2217 C246 1.772 . S
C2232 C288 1.772 . S
C2267 C245 1.136 . S
C2282 C258 1.096 . S
C2317 C274 1.686 . S
C2332 C260 1.685 . S
C2367 C273 1.421 . S
C2382 C286 1.368 . S
C2417 C189 1.498 . S
C2432 C315 1.490 . S
C2467 C300 1.839 . S
C2482 C232 1.968 . S
C2517 C328 1.448 . S
C2532 C204 1.555 . S
C2567 C427 1.434 . S
C2582 C287 1.434 . S
C2617 C441 1.434 . S
C2632 C217 1.433 . S
C2667 C244 1.838 . S
C2682 C344 1.968 . S
C2717 C358 1.555 . S
C2732 C272 1.450 . S
C2767 C176 1.559 . S
C2782 C372 1.561 . S
C2817 C384 1.750 . S
C2832 C175 1.893 . S
C2867 C162 1.704 . S
C2882 C386 1.706 . S
C2917 C161 1.462 . S
C2932 C370 1.365 . S
C2967 C120 2.115 . S
C2982 C399 2.060 . S
C3017 C132 1.077 . S
C3032 C118 1.104 . S
C3067 C147 1.817 . S
C3082 C133 1.800 . S
C3117 C148 1.412 . S
C3132 C398 1.317 . S
C3167 C371 1.835 . S
C3182 C78 1.844 . S
C3217 C356 1.579 . S
C3232 C412 1.570 . S
C3267 C357 1.394 . S
C3282 C428 1.444 . S
C3317 C426 1.730 . S
C3332 C342 1.740 . S
C3367 C343 1.530 . S
C3382 C414 1.583 . S
C3417 C442 1.773 . S
C3432 C302 1.772 . S
C3467 C301 1.136 . S
C3482 C314 1.096 . S
C3517 C330 1.686 . S
C3532 C316 1.685 . S
C3567 C329 1.420 . S
C3582 C440 1.366 . S
C3617 C413 1.497 . S
C3632 C259 1.490 . S
