# Generated by pormake.
# Topology wiv, (6)-cn, num edge types: 1
# Building blocks:
#     Node 0, Type 0, BuildingBlock: NUHQIS_clean_sbu_0, # of connection points: 6
#     Node 1, Type 0, BuildingBlock: NUHQIS_clean_sbu_0, # of connection points: 6
#     Node 2, Type 0, BuildingBlock: NUHQIS_clean_sbu_0, # of connection points: 6
#     Node 3, Type 0, BuildingBlock: NUHQIS_clean_sbu_0, # of connection points: 6
#     Node 4, Type 0, BuildingBlock: NUHQIS_clean_sbu_0, # of connection points: 6
#     Node 5, Type 0, BuildingBlock: NUHQIS_clean_sbu_0, # of connection points: 6
#     Node 6, Type 0, BuildingBlock: NUHQIS_clean_sbu_0, # of connection points: 6
#     Node 7, Type 0, BuildingBlock: NUHQIS_clean_sbu_0, # of connection points: 6
#     Node 8, Type 0, BuildingBlock: NUHQIS_clean_sbu_0, # of connection points: 6
#     Node 9, Type 0, BuildingBlock: NUHQIS_clean_sbu_0, # of connection points: 6
#     Node 10, Type 0, BuildingBlock: NUHQIS_clean_sbu_0, # of connection points: 6
#     Node 11, Type 0, BuildingBlock: NUHQIS_clean_sbu_0, # of connection points: 6
#     Node 12, Type 0, BuildingBlock: NUHQIS_clean_sbu_0, # of connection points: 6
#     Node 13, Type 0, BuildingBlock: NUHQIS_clean_sbu_0, # of connection points: 6
#     Node 14, Type 0, BuildingBlock: NUHQIS_clean_sbu_0, # of connection points: 6
#     Node 15, Type 0, BuildingBlock: NUHQIS_clean_sbu_0, # of connection points: 6
#     Edge 16, Type (0, 0), BuildingBlock: EZIPEK_clean_linker_0, # of connection points: 2
#     Edge 17, Type (0, 0), BuildingBlock: EZIPEK_clean_linker_0, # of connection points: 2
#     Edge 18, Type (0, 0), BuildingBlock: EZIPEK_clean_linker_0, # of connection points: 2
#     Edge 19, Type (0, 0), BuildingBlock: EZIPEK_clean_linker_0, # of connection points: 2
#     Edge 20, Type (0, 0), BuildingBlock: EZIPEK_clean_linker_0, # of connection points: 2
#     Edge 21, Type (0, 0), BuildingBlock: EZIPEK_clean_linker_0, # of connection points: 2
#     Edge 22, Type (0, 0), BuildingBlock: EZIPEK_clean_linker_0, # of connection points: 2
#     Edge 23, Type (0, 0), BuildingBlock: EZIPEK_clean_linker_0, # of connection points: 2
#     Edge 24, Type (0, 0), BuildingBlock: EZIPEK_clean_linker_0, # of connection points: 2
#     Edge 25, Type (0, 0), BuildingBlock: EZIPEK_clean_linker_0, # of connection points: 2
#     Edge 26, Type (0, 0), BuildingBlock: EZIPEK_clean_linker_0, # of connection points: 2
#     Edge 27, Type (0, 0), BuildingBlock: EZIPEK_clean_linker_0, # of connection points: 2
#     Edge 28, Type (0, 0), BuildingBlock: EZIPEK_clean_linker_0, # of connection points: 2
#     Edge 29, Type (0, 0), BuildingBlock: EZIPEK_clean_linker_0, # of connection points: 2
#     Edge 30, Type (0, 0), BuildingBlock: EZIPEK_clean_linker_0, # of connection points: 2
#     Edge 31, Type (0, 0), BuildingBlock: EZIPEK_clean_linker_0, # of connection points: 2
#     Edge 32, Type (0, 0), BuildingBlock: EZIPEK_clean_linker_0, # of connection points: 2
#     Edge 33, Type (0, 0), BuildingBlock: EZIPEK_clean_linker_0, # of connection points: 2
#     Edge 34, Type (0, 0), BuildingBlock: EZIPEK_clean_linker_0, # of connection points: 2
#     Edge 35, Type (0, 0), BuildingBlock: EZIPEK_clean_linker_0, # of connection points: 2
#     Edge 36, Type (0, 0), BuildingBlock: EZIPEK_clean_linker_0, # of connection points: 2
#     Edge 37, Type (0, 0), BuildingBlock: EZIPEK_clean_linker_0, # of connection points: 2
#     Edge 38, Type (0, 0), BuildingBlock: EZIPEK_clean_linker_0, # of connection points: 2
#     Edge 39, Type (0, 0), BuildingBlock: EZIPEK_clean_linker_0, # of connection points: 2
#     Edge 40, Type (0, 0), BuildingBlock: EZIPEK_clean_linker_0, # of connection points: 2
#     Edge 41, Type (0, 0), BuildingBlock: EZIPEK_clean_linker_0, # of connection points: 2
#     Edge 42, Type (0, 0), BuildingBlock: EZIPEK_clean_linker_0, # of connection points: 2
#     Edge 43, Type (0, 0), BuildingBlock: EZIPEK_clean_linker_0, # of connection points: 2
#     Edge 44, Type (0, 0), BuildingBlock: EZIPEK_clean_linker_0, # of connection points: 2
#     Edge 45, Type (0, 0), BuildingBlock: EZIPEK_clean_linker_0, # of connection points: 2
#     Edge 46, Type (0, 0), BuildingBlock: EZIPEK_clean_linker_0, # of connection points: 2
#     Edge 47, Type (0, 0), BuildingBlock: EZIPEK_clean_linker_0, # of connection points: 2
#     Edge 48, Type (0, 0), BuildingBlock: EZIPEK_clean_linker_0, # of connection points: 2
#     Edge 49, Type (0, 0), BuildingBlock: EZIPEK_clean_linker_0, # of connection points: 2
#     Edge 50, Type (0, 0), BuildingBlock: EZIPEK_clean_linker_0, # of connection points: 2
#     Edge 51, Type (0, 0), BuildingBlock: EZIPEK_clean_linker_0, # of connection points: 2
#     Edge 52, Type (0, 0), BuildingBlock: EZIPEK_clean_linker_0, # of connection points: 2
#     Edge 53, Type (0, 0), BuildingBlock: EZIPEK_clean_linker_0, # of connection points: 2
#     Edge 54, Type (0, 0), BuildingBlock: EZIPEK_clean_linker_0, # of connection points: 2
#     Edge 55, Type (0, 0), BuildingBlock: EZIPEK_clean_linker_0, # of connection points: 2
#     Edge 56, Type (0, 0), BuildingBlock: EZIPEK_clean_linker_0, # of connection points: 2
#     Edge 57, Type (0, 0), BuildingBlock: EZIPEK_clean_linker_0, # of connection points: 2
#     Edge 58, Type (0, 0), BuildingBlock: EZIPEK_clean_linker_0, # of connection points: 2
#     Edge 59, Type (0, 0), BuildingBlock: EZIPEK_clean_linker_0, # of connection points: 2
#     Edge 60, Type (0, 0), BuildingBlock: EZIPEK_clean_linker_0, # of connection points: 2
#     Edge 61, Type (0, 0), BuildingBlock: EZIPEK_clean_linker_0, # of connection points: 2
#     Edge 62, Type (0, 0), BuildingBlock: EZIPEK_clean_linker_0, # of connection points: 2
#     Edge 63, Type (0, 0), BuildingBlock: EZIPEK_clean_linker_0, # of connection points: 2
# Relax obj value: 0.172
# Max RMSD: 0.222
# Mean RMSD: 0.222
data_MOF--net-wiv--node1-NUHQIS_clean_sbu_0--edge1-EZIPEK_clean_linker_0
_symmetry_space_group_name_H-M    P1
_symmetry_Int_Tables_number       1
_symmetry_cell_setting            triclinic
loop_
_symmetry_equiv_pos_as_xyz
'x, y, z'
_cell_length_a     35.352247
_cell_length_b     35.532056
_cell_length_c     20.043407
_cell_angle_alpha  89.961491
_cell_angle_beta   90.144998
_cell_angle_gamma 89.949829
loop_
_atom_site_label
_atom_site_type_symbol
_atom_site_fract_x
_atom_site_fract_y
_atom_site_fract_z
_atom_type_partial_charge
Tb0 Tb 0.31681 0.0918 0.19738 0.0
Eu1 Eu 0.38158 0.09407 0.08076 0.0
C2 C 0.34807 0.16913 0.14752 0.0
C3 C 0.2933 0.08957 1.04494 0.0
C4 C 0.28792 0.08565 0.36993 0.0
C5 C 0.29127 0.11683 0.47828 0.0
C6 C 0.27756 0.11534 0.41254 0.0
C7 C 0.31256 0.05763 0.39463 0.0
C8 C 0.32659 0.05942 0.45989 0.0
C9 C 0.31608 0.08898 0.50232 0.0
C10 C 0.27555 0.08546 0.29882 0.0
O11 O 0.32826 0.03521 0.1615 0.0
O12 O 0.39035 0.04123 0.14221 0.0
O13 O 0.41562 0.10826 0.17336 0.0
O14 O 0.37081 0.09084 0.25172 0.0
C15 C 0.36215 0.02035 0.16296 0.0
O16 O 0.41089 0.06245 1.00291 0.0
O17 O 0.41852 0.12273 1.0096 0.0
O18 O 0.35858 0.15353 0.09096 0.0
O19 O 0.33704 0.14904 0.19846 0.0
O20 O 0.28424 0.10289 0.10452 0.0
O21 O 0.32683 0.07534 1.03409 0.0
C22 C 0.40507 0.10236 0.23565 0.0
O23 O 0.27935 0.11694 0.26611 0.0
O24 O 0.28661 0.05694 0.26306 0.0
C25 C 0.40939 0.09614 0.90196 0.0
C26 C 0.37945 0.09567 0.77091 0.0
C27 C 0.41138 0.07383 0.78705 0.0
C28 C 0.42628 0.07414 0.85202 0.0
C29 C 0.37757 0.11818 0.88553 0.0
C30 C 0.36295 0.11819 0.8205 0.0
C31 C 0.42211 0.09281 0.97223 0.0
H32 H 0.28289 0.13995 0.51021 0.0
H33 H 0.25893 0.13744 0.39491 0.0
H34 H 0.3217 0.03459 0.36321 0.0
H35 H 0.34585 0.03778 0.47728 0.0
H36 H 0.42447 0.05623 0.7495 0.0
H37 H 0.45042 0.05649 0.8637 0.0
H38 H 0.36341 0.13475 0.92336 0.0
H39 H 0.3382 0.13505 0.80919 0.0
Tb40 Tb 0.09989 0.61158 1.02044 0.0
Eu41 Eu 0.09069 0.67484 0.90377 0.0
C42 C 0.02581 0.61936 0.93945 0.0
C43 C 0.11193 0.58619 0.86902 0.0
C44 C 0.09711 0.58477 0.19616 0.0
C45 C 0.06958 0.6263 0.27984 0.0
C46 C 0.07195 0.61386 0.21389 0.0
C47 C 0.11979 0.56835 0.24591 0.0
C48 C 0.11755 0.58102 0.31208 0.0
C49 C 0.09249 0.61014 0.32929 0.0
C50 C 0.10048 0.57266 0.12572 0.0
O51 O 0.15676 0.63566 1.00778 0.0
O52 O 0.15221 0.66083 0.90225 0.0
O53 O 0.10131 0.709 0.99793 0.0
O54 O 0.07671 0.66316 0.06452 0.0
C55 C 0.17239 0.64891 0.95286 0.0
O56 O 0.10548 0.71913 0.8326 0.0
O57 O 0.04941 0.69453 0.83074 0.0
O58 O 0.03419 0.65515 0.94154 0.0
O59 O 0.05155 0.59556 0.95939 0.0
O60 O 0.11264 0.57649 0.93287 0.0
O61 O 0.10456 0.62083 0.84989 0.0
C62 C 0.08981 0.69748 0.05696 0.0
O63 O 0.07052 0.57805 0.08896 0.0
O64 O 0.1312 0.58275 0.0945 0.0
C65 C 0.07938 0.70085 0.72797 0.0
C66 C 0.08385 0.66988 0.59863 0.0
C67 C 0.11072 0.66022 0.64735 0.0
C68 C 0.10867 0.67577 0.71129 0.0
C69 C 0.05192 0.70973 0.67979 0.0
C70 C 0.05435 0.69467 0.61533 0.0
C71 C 0.0747 0.71344 0.7976 0.0
H72 H 0.05023 0.6489 0.29219 0.0
H73 H 0.05419 0.62726 0.17674 0.0
H74 H 0.13946 0.54605 0.23346 0.0
H75 H 0.13551 0.56833 0.34977 0.0
H76 H 0.13337 0.64077 0.63569 0.0
H77 H 0.12961 0.66759 0.74808 0.0
H78 H 0.02859 0.72825 0.69209 0.0
H79 H 0.03312 0.70214 0.57855 0.0
Tb80 Tb 0.68418 0.89955 0.19803 0.0
Eu81 Eu 0.61804 0.90306 0.08027 0.0
C82 C 0.65018 0.82456 0.14269 0.0
C83 C 0.70656 0.90583 1.04658 0.0
C84 C 0.71408 0.91005 0.37138 0.0
C85 C 0.69269 0.88153 0.47556 0.0
C86 C 0.70767 0.87803 0.41109 0.0
C87 C 0.70586 0.94569 0.39869 0.0
C88 C 0.68905 0.949 0.46168 0.0
C89 C 0.68241 0.91698 0.50116 0.0
C90 C 0.72573 0.90648 0.30002 0.0
O91 O 0.66975 0.95748 0.17418 0.0
O92 O 0.60764 0.95188 0.1504 0.0
O93 O 0.58189 0.89022 0.17038 0.0
O94 O 0.63002 0.88918 0.24924 0.0
C95 C 0.63527 0.97024 0.17921 0.0
O96 O 0.59005 0.93799 1.00513 0.0
O97 O 0.58165 0.87771 1.00416 0.0
O98 O 0.63616 0.84175 0.08972 0.0
O99 O 0.66635 0.84229 0.1921 0.0
O100 O 0.71554 0.88986 0.10414 0.0
O101 O 0.67392 0.92275 1.0391 0.0
C102 C 0.59399 0.88673 0.23244 0.0
O103 O 0.71989 0.87437 0.27038 0.0
O104 O 0.71618 0.93428 0.26129 0.0
C105 C 0.58979 0.90847 0.90018 0.0
C106 C 0.61552 0.9126 0.76682 0.0
C107 C 0.57958 0.92648 0.78416 0.0
C108 C 0.5668 0.92438 0.85034 0.0
C109 C 0.62561 0.89438 0.8827 0.0
C110 C 0.63829 0.89632 0.81665 0.0
C111 C 0.57795 0.90917 0.97095 0.0
H112 H 0.68798 0.85633 0.50482 0.0
H113 H 0.71382 0.85017 0.39211 0.0
H114 H 0.71052 0.97106 0.36987 0.0
H115 H 0.68096 0.97665 0.47945 0.0
H116 H 0.5617 0.93941 0.74662 0.0
H117 H 0.5393 0.9358 0.86284 0.0
H118 H 0.64409 0.88246 0.92043 0.0
H119 H 0.66621 0.88575 0.80459 0.0
Tb120 Tb 0.89816 0.38331 1.01116 0.0
Eu121 Eu 0.89914 0.31635 0.89469 0.0
C122 C 0.97228 0.36879 0.92124 0.0
C123 C 0.89121 0.40745 0.86057 0.0
C124 C 0.89525 0.41316 0.18691 0.0
C125 C 0.91355 0.42469 0.3026 0.0
C126 C 0.91157 0.43647 0.23573 0.0
C127 C 0.88042 0.37811 0.20641 0.0
C128 C 0.8826 0.36626 0.27299 0.0
C129 C 0.8994 0.3893 0.3216 0.0
C130 C 0.89701 0.42377 0.11535 0.0
O131 O 0.84051 0.37748 0.97051 0.0
O132 O 0.84288 0.31488 0.94534 0.0
O133 O 0.91632 0.28462 0.98905 0.0
O134 O 0.89525 0.32951 0.06306 0.0
C135 C 0.8234 0.34553 0.95609 0.0
O136 O 0.8651 0.29045 0.81628 0.0
O137 O 0.92453 0.27607 0.82522 0.0
O138 O 0.95516 0.34374 0.88448 0.0
O139 O 0.957 0.38398 0.97491 0.0
O140 O 0.8976 0.41871 0.92225 0.0
O141 O 0.8871 0.37188 0.84427 0.0
C142 C 0.90803 0.29565 1.05032 0.0
O143 O 0.92778 0.41359 0.08483 0.0
O144 O 0.86724 0.41663 0.079 0.0
C145 C 0.90018 0.29099 0.71661 0.0
C146 C 0.90535 0.32496 0.58879 0.0
C147 C 0.87353 0.30347 0.60634 0.0
C148 C 0.87092 0.28679 0.6696 0.0
C149 C 0.9322 0.31234 0.69878 0.0
C150 C 0.93472 0.32916 0.63557 0.0
C151 C 0.89485 0.2771 0.786 0.0
H152 H 0.92675 0.44283 0.33928 0.0
H153 H 0.92351 0.46344 0.2219 0.0
H154 H 0.86773 0.35952 0.17 0.0
H155 H 0.87164 0.33883 0.28648 0.0
H156 H 0.85045 0.3 0.57124 0.0
H157 H 0.84572 0.27102 0.68223 0.0
H158 H 0.95491 0.3169 0.73422 0.0
H159 H 0.95935 0.34589 0.6234 0.0
Tb160 Tb 0.3229 0.40648 0.15498 0.0
Eu161 Eu 0.3877 0.40285 0.27185 0.0
C162 C 0.35169 0.32856 0.20722 0.0
C163 C 0.29892 0.40639 0.30756 0.0
C164 C 0.29801 0.41505 0.98069 0.0
C165 C 0.31695 0.3818 0.87943 0.0
C166 C 0.30171 0.38149 0.94399 0.0
C167 C 0.31101 0.44876 0.95157 0.0
C168 C 0.32763 0.44882 0.88816 0.0
C169 C 0.33034 0.41541 0.85103 0.0
C170 C 0.28397 0.41465 0.05095 0.0
O171 O 0.3333 0.46205 0.19573 0.0
O172 O 0.39558 0.45589 0.21013 0.0
O173 O 0.4199 0.38541 0.17911 0.0
O174 O 0.37711 0.40935 0.10285 0.0
C175 C 0.36694 0.47717 0.19239 0.0
O176 O 0.41879 0.43498 0.34699 0.0
O177 O 0.42532 0.37447 0.3428 0.0
O178 O 0.36224 0.34429 0.26375 0.0
O179 O 0.34247 0.3488 0.15506 0.0
O180 O 0.28952 0.39518 0.24659 0.0
O181 O 0.33278 0.41957 0.32038 0.0
C182 C 0.41014 0.39436 0.11751 0.0
O183 O 0.28584 0.38286 0.08349 0.0
O184 O 0.29486 0.44263 0.08824 0.0
C185 C 0.42079 0.40324 0.45024 0.0
C186 C 0.39512 0.40656 0.58388 0.0
C187 C 0.42129 0.43304 0.55991 0.0
C188 C 0.43416 0.43126 0.49382 0.0
C189 C 0.39508 0.37635 0.47476 0.0
C190 C 0.38262 0.37784 0.54106 0.0
C191 C 0.43052 0.40493 0.37823 0.0
H192 H 0.31904 0.3556 0.85205 0.0
H193 H 0.29285 0.35489 0.96518 0.0
H194 H 0.30919 0.47508 0.97848 0.0
H195 H 0.33809 0.47504 0.86769 0.0
H196 H 0.4312 0.45548 0.59206 0.0
H197 H 0.45366 0.45252 0.47608 0.0
H198 H 0.38372 0.35478 0.44225 0.0
H199 H 0.36227 0.3573 0.55843 0.0
Tb200 Tb 0.40653 0.61492 0.83544 0.0
Eu201 Eu 0.41292 0.67894 0.95109 0.0
C202 C 0.48158 0.62962 0.91102 0.0
C203 C 0.3963 0.58994 0.98743 0.0
C204 C 0.41096 0.58675 0.66042 0.0
C205 C 0.43674 0.62851 0.57516 0.0
C206 C 0.43538 0.6162 0.64139 0.0
C207 C 0.38808 0.56983 0.61154 0.0
C208 C 0.38928 0.58238 0.54513 0.0
C209 C 0.41353 0.61192 0.52662 0.0
C210 C 0.40829 0.57502 0.73136 0.0
O211 O 0.34968 0.63936 0.84325 0.0
O212 O 0.35213 0.66137 0.95069 0.0
O213 O 0.40175 0.71268 0.85621 0.0
O214 O 0.42655 0.66711 0.78865 0.0
C215 C 0.33281 0.65056 0.89828 0.0
O216 O 0.39439 0.72152 1.02278 0.0
O217 O 0.45232 0.70149 1.02477 0.0
O218 O 0.47026 0.66461 0.91012 0.0
O219 O 0.45662 0.60384 0.896 0.0
O220 O 0.39153 0.58079 0.92373 0.0
O221 O 0.40662 0.6239 1.00583 0.0
C222 C 0.41332 0.70139 0.79694 0.0
O223 O 0.43783 0.58221 0.76818 0.0
O224 O 0.37703 0.58363 0.76231 0.0
C225 C 0.42142 0.70431 0.12765 0.0
C226 C 0.4181 0.67234 0.25672 0.0
C227 C 0.39055 0.66345 0.20872 0.0
C228 C 0.39209 0.6794 0.14491 0.0
C229 C 0.44954 0.71239 0.17514 0.0
C230 C 0.44771 0.69681 0.23936 0.0
C231 C 0.42536 0.71785 0.05817 0.0
H232 H 0.45547 0.65145 0.56194 0.0
H233 H 0.45324 0.63007 0.67778 0.0
H234 H 0.36896 0.54725 0.62491 0.0
H235 H 0.3711 0.5693 0.50828 0.0
H236 H 0.36779 0.64424 0.22082 0.0
H237 H 0.37069 0.67166 0.10867 0.0
H238 H 0.47294 0.73071 0.16247 0.0
H239 H 0.46946 0.70371 0.27548 0.0
Tb240 Tb 0.68405 0.59247 0.15087 0.0
Eu241 Eu 0.61791 0.58904 0.26815 0.0
C242 C 0.64974 0.6674 0.20661 0.0
C243 C 0.70637 0.58657 0.30258 0.0
C244 C 0.71474 0.58379 0.978 0.0
C245 C 0.70157 0.61331 0.87032 0.0
C246 C 0.71567 0.61543 0.93577 0.0
C247 C 0.70076 0.54965 0.95198 0.0
C248 C 0.68543 0.54791 0.88759 0.0
C249 C 0.68559 0.57972 0.84607 0.0
C250 C 0.72606 0.58679 1.04963 0.0
O251 O 0.66898 0.53429 0.17168 0.0
O252 O 0.60713 0.54031 0.19826 0.0
O253 O 0.58208 0.60221 0.17743 0.0
O254 O 0.63014 0.60267 0.0988 0.0
C255 C 0.63427 0.52188 0.16831 0.0
O256 O 0.59096 0.55421 0.34435 0.0
O257 O 0.58023 0.6142 0.34216 0.0
O258 O 0.63594 0.65022 0.25955 0.0
O259 O 0.66583 0.6497 0.15718 0.0
O260 O 0.71528 0.60234 0.245 0.0
O261 O 0.67386 0.56955 0.31004 0.0
C262 C 0.59417 0.60552 0.11543 0.0
O263 O 0.71922 0.6186 0.07947 0.0
O264 O 0.71715 0.55855 0.08778 0.0
C265 C 0.58984 0.58529 0.44807 0.0
C266 C 0.6183 0.58354 0.58011 0.0
C267 C 0.59031 0.55791 0.55966 0.0
C268 C 0.57609 0.55889 0.49425 0.0
C269 C 0.6177 0.61108 0.46885 0.0
C270 C 0.63155 0.61039 0.5344 0.0
C271 C 0.57804 0.5832 0.37711 0.0
H272 H 0.7021 0.63821 0.83914 0.0
H273 H 0.72676 0.64198 0.95369 0.0
H274 H 0.70046 0.52436 0.98215 0.0
H275 H 0.67326 0.52171 0.87018 0.0
H276 H 0.57987 0.53686 0.59411 0.0
H277 H 0.55505 0.53841 0.47921 0.0
H278 H 0.62946 0.63123 0.43403 0.0
H279 H 0.65334 0.63018 0.54903 0.0
Tb280 Tb 0.59064 0.37539 0.83236 0.0
Eu281 Eu 0.58005 0.31411 0.9524 0.0
C282 C 0.51379 0.36268 0.9036 0.0
C283 C 0.59823 0.40194 0.98207 0.0
C284 C 0.59295 0.40629 0.65762 0.0
C285 C 0.57745 0.36128 0.57029 0.0
C286 C 0.57707 0.37188 0.6373 0.0
C287 C 0.60871 0.43026 0.6094 0.0
C288 C 0.60901 0.41965 0.54194 0.0
C289 C 0.59357 0.38494 0.52216 0.0
C290 C 0.59404 0.41632 0.72912 0.0
O291 O 0.64572 0.34776 0.84704 0.0
O292 O 0.64004 0.33359 0.95773 0.0
O293 O 0.592 0.27911 0.85926 0.0
O294 O 0.56933 0.32384 0.78739 0.0
C295 C 0.66111 0.34052 0.90572 0.0
O296 O 0.59769 0.27009 1.02156 0.0
O297 O 0.54159 0.29407 1.02989 0.0
O298 O 0.52491 0.32762 0.90328 0.0
O299 O 0.53906 0.38821 0.88815 0.0
O300 O 0.60893 0.40729 0.91969 0.0
O301 O 0.5805 0.37133 1.00118 0.0
C302 C 0.58133 0.28956 0.79886 0.0
O303 O 0.56307 0.40985 0.76226 0.0
O304 O 0.62366 0.40482 0.76211 0.0
C305 C 0.57605 0.28734 0.12986 0.0
C306 C 0.58808 0.32006 0.25699 0.0
C307 C 0.61809 0.31617 0.21177 0.0
C308 C 0.61234 0.29937 0.14944 0.0
C309 C 0.54599 0.2913 0.17507 0.0
C310 C 0.55207 0.30684 0.23837 0.0
C311 C 0.56842 0.27541 0.06016 0.0
H312 H 0.56556 0.33435 0.556 0.0
H313 H 0.56457 0.35297 0.67321 0.0
H314 H 0.62113 0.45689 0.62398 0.0
H315 H 0.62171 0.43817 0.50538 0.0
H316 H 0.64602 0.32642 0.22464 0.0
H317 H 0.6361 0.29727 0.11564 0.0
H318 H 0.51762 0.28286 0.16099 0.0
H319 H 0.52837 0.30963 0.27218 0.0
Tb320 Tb 0.82583 0.58797 0.69506 0.0
Eu321 Eu 0.89138 0.59076 0.5777 0.0
C322 C 0.86002 0.66575 0.6512 0.0
C323 C 0.80169 0.58828 0.54249 0.0
C324 C 0.79941 0.5845 0.86838 0.0
C325 C 0.83928 0.61577 0.95103 0.0
C326 C 0.82313 0.61453 0.88707 0.0
C327 C 0.79243 0.55575 0.9148 0.0
C328 C 0.80807 0.55725 0.97902 0.0
C329 C 0.83175 0.58719 0.99763 0.0
C330 C 0.78672 0.57978 0.79836 0.0
O331 O 0.8333 0.53379 0.64776 0.0
O332 O 0.89593 0.53653 0.63659 0.0
O333 O 0.92551 0.60372 0.67038 0.0
O334 O 0.88023 0.586 0.74755 0.0
C335 C 0.86593 0.51679 0.65205 0.0
O336 O 0.92636 0.55892 0.50795 0.0
O337 O 0.92433 0.61955 0.5005 0.0
O338 O 0.87381 0.6514 0.59574 0.0
O339 O 0.84475 0.64527 0.69803 0.0
O340 O 0.79231 0.59911 0.60359 0.0
O341 O 0.83588 0.57646 0.52842 0.0
C342 C 0.91464 0.59719 0.73223 0.0
O343 O 0.78461 0.60978 0.7607 0.0
O344 O 0.80305 0.5521 0.7674 0.0
C345 C 0.92197 0.58534 0.39939 0.0
C346 C 0.89553 0.58526 0.266 0.0
C347 C 0.87875 0.56183 0.31389 0.0
C348 C 0.89166 0.56203 0.37998 0.0
C349 C 0.93934 0.60812 0.35102 0.0
C350 C 0.92615 0.60817 0.28488 0.0
C351 C 0.93328 0.5882 0.47058 0.0
H352 H 0.85785 0.63886 0.96407 0.0
H353 H 0.83008 0.6365 0.85171 0.0
H354 H 0.77507 0.53188 0.90107 0.0
H355 H 0.80213 0.53476 1.01397 0.0
H356 H 0.85505 0.54406 0.3004 0.0
H357 H 0.87734 0.54447 0.41618 0.0
H358 H 0.96255 0.62647 0.36475 0.0
H359 H 0.93947 0.62644 0.2486 0.0
Tb360 Tb 0.59328 0.11451 0.51988 0.0
Eu361 Eu 0.58388 0.17657 0.40053 0.0
C362 C 0.51705 0.12629 0.44269 0.0
C363 C 0.60269 0.0889 0.3704 0.0
C364 C 0.59192 0.0828 0.6938 0.0
C365 C 0.56385 0.1211 0.78156 0.0
C366 C 0.56492 0.10936 0.71502 0.0
C367 C 0.61739 0.0678 0.74069 0.0
C368 C 0.61654 0.07986 0.80724 0.0
C369 C 0.59001 0.10688 0.82788 0.0
C370 C 0.59562 0.07308 0.62232 0.0
O371 O 0.64954 0.13999 0.50792 0.0
O372 O 0.64498 0.15959 0.39908 0.0
O373 O 0.5934 0.2109 0.49549 0.0
O374 O 0.57099 0.16528 0.56575 0.0
C375 C 0.66534 0.14991 0.45099 0.0
O376 O 0.6032 0.21924 0.33036 0.0
O377 O 0.54576 0.19893 0.32395 0.0
O378 O 0.52715 0.16168 0.44236 0.0
O379 O 0.54234 0.10146 0.46181 0.0
O380 O 0.6131 0.08362 0.43289 0.0
O381 O 0.58505 0.11955 0.35098 0.0
C382 C 0.58232 0.19984 0.55525 0.0
O383 O 0.56554 0.07765 0.58554 0.0
O384 O 0.62563 0.08607 0.59267 0.0
C385 C 0.579 0.20404 0.22252 0.0
C386 C 0.58759 0.17262 0.09351 0.0
C387 C 0.61843 0.17451 0.13764 0.0
C388 C 0.61442 0.19076 0.20083 0.0
C389 C 0.54802 0.20171 0.1786 0.0
C390 C 0.55243 0.18687 0.11434 0.0
C391 C 0.57315 0.21599 0.29278 0.0
H392 H 0.54339 0.14217 0.79652 0.0
H393 H 0.54518 0.12179 0.67993 0.0
H394 H 0.63858 0.04755 0.72541 0.0
H395 H 0.63704 0.06872 0.84235 0.0
H396 H 0.64569 0.16334 0.12304 0.0
H397 H 0.63883 0.19158 0.23352 0.0
H398 H 0.52024 0.21102 0.1943 0.0
H399 H 0.5281 0.18543 0.08149 0.0
Tb400 Tb 0.18136 0.40001 0.70163 0.0
Eu401 Eu 0.11639 0.40088 0.58467 0.0
C402 C 0.14687 0.32454 0.65024 0.0
C403 C 0.2052 0.40205 0.5489 0.0
C404 C 0.20628 0.40289 0.87542 0.0
C405 C 0.19913 0.37226 0.98374 0.0
C406 C 0.21391 0.3727 0.91876 0.0
C407 C 0.1819 0.43168 0.89764 0.0
C408 C 0.1666 0.43092 0.96192 0.0
C409 C 0.1754 0.40145 1.00585 0.0
C410 C 0.22086 0.40294 0.80566 0.0
O411 O 0.17445 0.45667 0.66306 0.0
O412 O 0.11191 0.45457 0.64532 0.0
O413 O 0.08275 0.3877 0.67787 0.0
O414 O 0.12761 0.40694 0.75455 0.0
C415 C 0.14169 0.47374 0.66471 0.0
O416 O 0.08796 0.43383 0.50723 0.0
O417 O 0.07677 0.37416 0.51539 0.0
O418 O 0.13743 0.34064 0.59349 0.0
O419 O 0.15766 0.34414 0.70181 0.0
O420 O 0.21408 0.38895 0.609 0.0
O421 O 0.17169 0.41611 0.53657 0.0
C422 C 0.09331 0.39515 0.73968 0.0
O423 O 0.2165 0.37201 0.77148 0.0
O424 O 0.21242 0.43236 0.76982 0.0
C425 C 0.08517 0.39977 0.40681 0.0
C426 C 0.11248 0.39833 0.27433 0.0
C427 C 0.08267 0.42251 0.29213 0.0
C428 C 0.06906 0.42314 0.35782 0.0
C429 C 0.11472 0.37527 0.38864 0.0
C430 C 0.12803 0.37436 0.32289 0.0
C431 C 0.07425 0.4041 0.47772 0.0
H432 H 0.20582 0.34894 1.01654 0.0
H433 H 0.23121 0.34935 0.90225 0.0
H434 H 0.17387 0.45452 0.86487 0.0
H435 H 0.14786 0.45339 0.97749 0.0
H436 H 0.0704 0.4413 0.25539 0.0
H437 H 0.04669 0.44264 0.37082 0.0
H438 H 0.12825 0.35752 0.42566 0.0
H439 H 0.15121 0.35572 0.31028 0.0
Tb440 Tb 0.4074 0.88105 0.51609 0.0
Eu441 Eu 0.40875 0.81732 0.39952 0.0
C442 C 0.48093 0.86385 0.43545 0.0
C443 C 0.39732 0.90701 0.36429 0.0
C444 C 0.40557 0.91033 0.69052 0.0
C445 C 0.42789 0.91395 0.80537 0.0
C446 C 0.4282 0.92736 0.73959 0.0
C447 C 0.38208 0.88004 0.70861 0.0
C448 C 0.38145 0.86693 0.77451 0.0
C449 C 0.40475 0.88344 0.82316 0.0
C450 C 0.40994 0.92119 0.61971 0.0
O451 O 0.34999 0.85742 0.5119 0.0
O452 O 0.34995 0.83957 0.40247 0.0
O453 O 0.39778 0.78421 0.49538 0.0
O454 O 0.42601 0.82819 0.56215 0.0
C455 C 0.33183 0.84853 0.45672 0.0
O456 O 0.38178 0.78091 0.32529 0.0
O457 O 0.44276 0.78542 0.3286 0.0
O458 O 0.46821 0.82937 0.43272 0.0
O459 O 0.45774 0.89043 0.45512 0.0
O460 O 0.39368 0.91587 0.42821 0.0
O461 O 0.40686 0.87293 0.34498 0.0
C462 C 0.41138 0.79454 0.55399 0.0
O463 O 0.43979 0.9073 0.59073 0.0
O464 O 0.38 0.91838 0.58171 0.0
C465 C 0.41329 0.79143 0.22254 0.0
C466 C 0.41087 0.82229 0.09242 0.0
C467 C 0.38266 0.79726 0.11389 0.0
C468 C 0.38375 0.78211 0.17851 0.0
C469 C 0.44133 0.81684 0.20085 0.0
C470 C 0.44001 0.8322 0.13662 0.0
C471 C 0.41329 0.77704 0.29222 0.0
H472 H 0.44617 0.92694 0.8422 0.0
H473 H 0.44695 0.95031 0.72658 0.0
H474 H 0.36498 0.86583 0.67144 0.0
H475 H 0.36364 0.84318 0.78716 0.0
H476 H 0.35976 0.78953 0.08062 0.0
H477 H 0.36156 0.76304 0.19407 0.0
H478 H 0.46415 0.82534 0.2337 0.0
H479 H 0.4618 0.85178 0.12124 0.0
Tb480 Tb 0.82244 0.8982 0.65273 0.0
Eu481 Eu 0.88841 0.90422 0.76955 0.0
C482 C 0.85691 0.82403 0.71235 0.0
C483 C 0.79941 0.90501 0.8038 0.0
C484 C 0.79443 0.90781 0.47831 0.0
C485 C 0.81258 0.8787 0.37276 0.0
C486 C 0.7977 0.87579 0.43745 0.0
C487 C 0.80603 0.94282 0.45224 0.0
C488 C 0.82274 0.94533 0.38917 0.0
C489 C 0.82584 0.91341 0.34832 0.0
C490 C 0.78206 0.90472 0.5493 0.0
O491 O 0.83468 0.95665 0.67669 0.0
O492 O 0.89709 0.95279 0.69759 0.0
O493 O 0.92472 0.89109 0.68023 0.0
O494 O 0.87646 0.88775 0.60208 0.0
C495 C 0.86857 0.97061 0.67032 0.0
O496 O 0.91427 0.94053 0.84491 0.0
O497 O 0.92766 0.88105 0.8434 0.0
O498 O 0.87179 0.84239 0.7633 0.0
O499 O 0.83952 0.84067 0.66284 0.0
O500 O 0.79054 0.88916 0.74613 0.0
O501 O 0.83203 0.92183 0.81204 0.0
C502 C 0.91253 0.88635 0.61864 0.0
O503 O 0.78722 0.87272 0.57986 0.0
O504 O 0.79168 0.93265 0.58756 0.0
C505 C 0.91846 0.9101 0.94918 0.0
C506 C 0.89243 0.9112 0.08248 0.0
C507 C 0.91862 0.93811 0.06019 0.0
C508 C 0.93164 0.93746 0.99415 0.0
C509 C 0.8925 0.88295 0.97186 0.0
C510 C 0.87983 0.88335 1.03803 0.0
C511 C 0.92895 0.91231 0.87769 0.0
H512 H 0.81478 0.85361 0.34234 0.0
H513 H 0.78897 0.84844 0.4556 0.0
H514 H 0.80376 0.96824 0.48177 0.0
H515 H 0.83313 0.97233 0.37203 0.0
H516 H 0.92846 0.95998 0.09363 0.0
H517 H 0.95123 0.95895 0.97766 0.0
H518 H 0.88124 0.86196 0.93805 0.0
H519 H 0.85935 0.86259 0.05409 0.0
Tb520 Tb 0.90138 0.1183 0.33032 0.0
Eu521 Eu 0.90813 0.18177 0.4492 0.0
C522 C 0.97665 0.13321 0.40692 0.0
C523 C 0.89359 0.09245 0.48087 0.0
C524 C 0.90298 0.08833 0.15517 0.0
C525 C 0.91828 0.13445 0.06939 0.0
C526 C 0.91858 0.1231 0.1361 0.0
C527 C 0.88776 0.0647 0.10578 0.0
C528 C 0.88777 0.07595 1.03857 0.0
C529 C 0.90277 0.11109 1.02016 0.0
C530 C 0.90131 0.07768 0.22654 0.0
O531 O 0.84304 0.13828 0.34592 0.0
O532 O 0.84746 0.16381 0.45134 0.0
O533 O 0.89779 0.21611 0.35439 0.0
O534 O 0.92034 0.17051 0.28429 0.0
C535 C 0.82744 0.15039 0.40176 0.0
O536 O 0.88925 0.22538 0.51865 0.0
O537 O 0.94644 0.20374 0.52533 0.0
O538 O 0.96469 0.16801 0.40534 0.0
O539 O 0.9525 0.10704 0.38924 0.0
O540 O 0.88649 0.08494 0.41753 0.0
O541 O 0.90661 0.12521 0.50091 0.0
C542 C 0.90848 0.20493 0.29451 0.0
O543 O 0.93144 0.08512 0.26168 0.0
O544 O 0.87075 0.08765 0.25812 0.0
C545 C 0.91343 0.20918 0.62621 0.0
C546 C 0.90652 0.17665 0.75456 0.0
C547 C 0.87706 0.17351 0.70782 0.0
C548 C 0.88032 0.18987 0.64459 0.0
C549 C 0.94284 0.21257 0.67309 0.0
C550 C 0.9393 0.19672 0.73688 0.0
C551 C 0.9193 0.22134 0.55627 0.0
H552 H 0.92994 0.16164 0.05617 0.0
H553 H 0.93086 0.14173 0.17273 0.0
H554 H 0.87555 0.03779 0.11925 0.0
H555 H 0.87561 0.05759 1.00112 0.0
H556 H 0.85161 0.15814 0.7203 0.0
H557 H 0.85726 0.18653 0.60947 0.0
H558 H 0.96882 0.2269 0.65994 0.0
H559 H 0.96245 0.19945 0.77206 0.0
Tb560 Tb 0.17168 0.08797 0.65328 0.0
Eu561 Eu 0.10838 0.09025 0.77221 0.0
C562 C 0.14262 0.16491 0.70672 0.0
C563 C 0.19778 0.08752 0.80519 0.0
C564 C 0.19716 0.08892 0.4798 0.0
C565 C 0.15861 0.12567 0.40251 0.0
C566 C 0.17524 0.12101 0.46541 0.0
C567 C 0.20217 0.06167 0.42969 0.0
C568 C 0.18561 0.06645 0.36647 0.0
C569 C 0.16343 0.09836 0.35268 0.0
C570 C 0.21019 0.08133 0.54892 0.0
O571 O 0.16386 0.03293 0.69757 0.0
O572 O 0.10145 0.03699 0.71082 0.0
O573 O 0.07405 0.1068 0.68098 0.0
O574 O 0.11689 0.08643 0.60193 0.0
C575 C 0.13084 0.01661 0.6938 0.0
O576 O 0.08135 0.05828 0.85212 0.0
O577 O 0.06919 0.11768 0.84103 0.0
O578 O 0.13404 0.14872 0.76382 0.0
O579 O 0.15036 0.14499 0.6536 0.0
O580 O 0.20628 0.09871 0.74389 0.0
O581 O 0.16405 0.07475 0.81976 0.0
C582 C 0.08338 0.09957 0.61856 0.0
O583 O 0.21339 0.11009 0.58926 0.0
O584 O 0.19319 0.05321 0.57764 0.0
C585 C 0.077 0.09389 0.95084 0.0
C586 C 0.09696 0.1047 0.08808 0.0
C587 C 0.0659 0.08177 0.06873 0.0
C588 C 0.05557 0.07736 1.00151 0.0
C589 C 0.1103 0.11281 0.9683 0.0
C590 C 0.12057 0.11727 1.03538 0.0
C591 C 0.06688 0.08819 0.87984 0.0
H592 H 0.14135 0.15032 0.39303 0.0
H593 H 0.16996 0.14204 0.50337 0.0
H594 H 0.21837 0.03641 0.43985 0.0
H595 H 0.18957 0.04501 0.32875 0.0
H596 H 0.04973 0.06573 0.10416 0.0
H597 H 0.03128 0.06015 0.9891 0.0
H598 H 0.12892 0.12357 0.92987 0.0
H599 H 0.14781 0.1299 1.04477 0.0
Tb600 Tb 0.09779 0.87779 0.33476 0.0
Eu601 Eu 0.09517 0.81415 0.45203 0.0
C602 C 0.02385 0.86209 0.41431 0.0
C603 C 0.10522 0.90435 0.48681 0.0
C604 C 0.10091 0.90649 0.15981 0.0
C605 C 0.07863 0.91024 1.045 0.0
C606 C 0.07858 0.92382 0.1106 0.0
C607 C 0.1239 0.87573 0.14207 0.0
C608 C 0.12427 0.86243 0.07632 0.0
C609 C 0.1012 0.87924 1.02756 0.0
C610 C 0.09649 0.9175 0.23046 0.0
O611 O 0.15562 0.85543 0.34351 0.0
O612 O 0.15388 0.83642 0.4525 0.0
O613 O 0.10688 0.78108 0.35679 0.0
O614 O 0.07864 0.82495 0.28971 0.0
C615 C 0.17278 0.84643 0.39969 0.0
O616 O 0.12062 0.7764 0.52595 0.0
O617 O 0.05985 0.78341 0.52245 0.0
O618 O 0.03611 0.82741 0.41764 0.0
O619 O 0.04722 0.88822 0.39395 0.0
O620 O 0.10776 0.91347 0.42285 0.0
O621 O 0.09833 0.86967 0.50633 0.0
C622 C 0.09318 0.79128 0.29824 0.0
O623 O 0.0663 0.90415 0.25904 0.0
O624 O 0.12622 0.91422 0.26889 0.0
C625 C 0.08929 0.78756 0.62868 0.0
C626 C 0.09268 0.81789 0.75899 0.0
C627 C 0.12025 0.79222 0.73717 0.0
C628 C 0.11869 0.77734 0.67244 0.0
C629 C 0.06178 0.81344 0.65088 0.0
C630 C 0.06361 0.82856 0.71518 0.0
C631 C 0.08891 0.77361 0.5588 0.0
H632 H 0.06055 0.92346 1.00805 0.0
H633 H 0.0602 0.94713 0.12339 0.0
H634 H 0.14074 0.86129 0.17941 0.0
H635 H 0.14164 0.8383 0.0639 0.0
H636 H 0.14308 0.78389 0.77018 0.0
H637 H 0.14044 0.75783 0.65655 0.0
H638 H 0.03905 0.82256 0.61833 0.0
H639 H 0.04229 0.84859 0.73089 0.0
C640 C 0.41504 0.94176 0.25724 0.0
C641 C 0.38874 0.93536 0.31015 0.0
C642 C 0.341 0.97047 0.24562 0.0
C643 C 0.36923 0.98432 0.20191 0.0
N644 N 0.4309 0.97464 0.15439 0.0
N645 N 0.32605 0.94612 0.35437 0.0
C646 C 0.40564 0.96724 0.20412 0.0
C647 C 0.35172 0.95082 0.30449 0.0
N648 N 0.44877 0.92298 0.25704 0.0
N649 N 0.30374 0.97251 0.22779 0.0
H650 H 0.33142 0.92985 0.39624 0.0
H651 H 0.30049 0.96075 0.35603 0.0
H652 H 0.29516 0.98035 0.17996 0.0
H653 H 0.28207 0.96048 0.25576 0.0
H654 H 0.46704 0.92205 0.21649 0.0
H655 H 0.45809 0.9067 0.29692 0.0
H656 H 0.45967 0.96863 0.15726 0.0
H657 H 0.42259 0.98645 0.10901 0.0
C658 C 0.97029 0.57329 0.79902 0.0
C659 C 0.94203 0.6011 0.78865 0.0
C660 C 0.96089 0.63214 0.89345 0.0
C661 C 0.99183 0.60706 0.89951 0.0
N662 N 0.01496 0.54453 0.87589 0.0
N663 N 0.91137 0.6584 0.82399 0.0
C664 C 0.99322 0.57468 0.85779 0.0
C665 C 0.9372 0.63058 0.83595 0.0
N666 N 0.97544 0.54576 0.75231 0.0
N667 N 0.95309 0.65606 0.94501 0.0
H668 H 0.89384 0.65848 0.78236 0.0
H669 H 0.90934 0.68294 0.85204 0.0
H670 H 0.9687 0.65573 0.98931 0.0
H671 H 0.92899 0.67284 0.9475 0.0
H672 H 0.99856 0.52769 0.75184 0.0
H673 H 0.95819 0.54277 0.71045 0.0
H674 H 0.01882 0.52066 0.84687 0.0
H675 H 0.02533 0.54098 0.9241 0.0
C676 C 0.61969 0.99276 0.29499 0.0
C677 C 0.62723 0.00134 0.22713 0.0
C678 C 0.62448 0.06812 0.25572 0.0
C679 C 0.61027 0.05895 0.3203 0.0
N680 N 0.58677 0.01063 0.39493 0.0
N681 N 0.63204 0.04819 0.14074 0.0
C682 C 0.60506 0.02069 0.33767 0.0
C683 C 0.62779 0.03937 0.20658 0.0
N684 N 0.62994 0.95895 0.32075 0.0
N685 N 0.63799 0.1033 0.24277 0.0
H686 H 0.63556 0.02772 0.10394 0.0
H687 H 0.62913 0.07557 0.12263 0.0
H688 H 0.63906 0.12449 0.27859 0.0
H689 H 0.65274 0.10968 0.19929 0.0
H690 H 0.62544 0.95095 0.37009 0.0
H691 H 0.64988 0.94288 0.29632 0.0
H692 H 0.58008 0.98282 0.40637 0.0
H693 H 0.57472 0.02989 0.42762 0.0
C694 C 0.00927 0.41501 0.85481 0.0
C695 C 0.00923 0.38208 0.89463 0.0
C696 C 0.06933 0.36267 0.84367 0.0
C697 C 0.06537 0.39181 0.79523 0.0
N698 N 0.03111 0.44569 0.75379 0.0
N699 N 0.03918 0.32481 0.92968 0.0
C700 C 0.03529 0.41814 0.8008 0.0
C701 C 0.03966 0.35628 0.89046 0.0
N702 N 0.98391 0.44296 0.86834 0.0
N703 N 0.10121 0.34091 0.84471 0.0
H704 H 0.01908 0.32092 0.96714 0.0
H705 H 0.05758 0.30217 0.9238 0.0
H706 H 0.12307 0.34396 0.81054 0.0
H707 H 0.1074 0.32158 0.88222 0.0
H708 H 0.98196 0.46802 0.84186 0.0
H709 H 0.96649 0.44218 0.91014 0.0
H710 H 0.00701 0.46231 0.7495 0.0
H711 H 0.05062 0.45026 0.71582 0.0
C712 C 0.40942 0.52953 0.14639 0.0
C713 C 0.37295 0.51304 0.15255 0.0
C714 C 0.35183 0.5479 0.05309 0.0
C715 C 0.38895 0.56206 1.04283 0.0
N716 N 0.45049 0.57433 0.09111 0.0
N717 N 0.30671 0.52586 0.13462 0.0
C718 C 0.41699 0.55526 0.093 0.0
C719 C 0.34318 0.5277 0.11251 0.0
N720 N 0.43667 0.52133 0.19259 0.0
N721 N 0.32414 0.55484 1.00735 0.0
H722 H 0.3 0.51747 0.18301 0.0
H723 H 0.284 0.53834 0.1098 0.0
H724 H 0.32841 0.57207 0.96633 0.0
H725 H 0.29785 0.54165 1.00833 0.0
H726 H 0.46537 0.52655 0.18565 0.0
H727 H 0.4302 0.5097 0.23896 0.0
H728 H 0.46947 0.57546 0.1308 0.0
H729 H 0.45857 0.5911 0.05118 0.0
C730 C 0.56829 0.64444 1.01983 0.0
C731 C 0.56665 0.61107 0.05932 0.0
C732 C 0.52146 0.58411 0.97902 0.0
C733 C 0.51739 0.61978 0.9482 0.0
N734 N 0.54867 0.67722 0.91864 0.0
N735 N 0.53911 0.54971 0.07836 0.0
C736 C 0.54432 0.64817 0.96269 0.0
C737 C 0.54255 0.58102 1.03934 0.0
N738 N 0.59165 0.67318 1.0386 0.0
N739 N 0.50692 0.55284 0.94885 0.0
H740 H 0.55353 0.54628 0.12307 0.0
H741 H 0.51924 0.52863 0.0698 0.0
H742 H 0.49736 0.5532 0.89962 0.0
H743 H 0.50956 0.52575 0.96799 0.0
H744 H 0.59121 0.6999 1.01741 0.0
H745 H 0.61023 0.67111 0.07871 0.0
H746 H 0.56942 0.69783 0.92248 0.0
H747 H 0.53409 0.6781 0.8733 0.0
C748 C 0.62613 0.45247 0.14397 0.0
C749 C 0.62523 0.49027 0.12209 0.0
C750 C 0.59951 0.46984 1.01456 0.0
C751 C 0.60561 0.43185 1.03229 0.0
N752 N 0.63465 0.38798 0.10958 0.0
N753 N 0.62524 0.53164 1.02694 0.0
C754 C 0.62132 0.4232 0.09615 0.0
C755 C 0.61566 0.49818 0.05472 0.0
N756 N 0.63212 0.44439 0.20974 0.0
N757 N 0.57873 0.47907 0.95938 0.0
H758 H 0.64581 0.54802 1.0494 0.0
H759 H 0.61948 0.53887 0.97755 0.0
H760 H 0.56428 0.45916 0.93092 0.0
H761 H 0.57258 0.50678 0.94634 0.0
H762 H 0.62956 0.41726 0.22909 0.0
H763 H 0.63678 0.46525 0.24545 0.0
H764 H 0.65055 0.38195 0.15209 0.0
H765 H 0.63407 0.36618 0.07497 0.0
C766 C 0.45369 0.41726 1.02669 0.0
C767 C 0.43608 0.38679 0.06049 0.0
C768 C 0.45699 0.34391 0.9718 0.0
C769 C 0.47964 0.37292 0.94453 0.0
N770 N 0.48296 0.43957 0.9246 0.0
N771 N 0.42224 0.32043 0.06663 0.0
C772 C 0.47333 0.4105 0.96573 0.0
C773 C 0.43796 0.34994 1.0332 0.0
N774 N 0.45289 0.45239 0.05428 0.0
N775 N 0.45112 0.31176 0.93591 0.0
H776 H 0.40754 0.32394 0.11091 0.0
H777 H 0.42651 0.29238 0.05358 0.0
H778 H 0.46097 0.30874 0.88715 0.0
H779 H 0.43235 0.29067 0.95014 0.0
H780 H 0.46843 0.47504 1.0361 0.0
H781 H 0.4391 0.45808 0.09902 0.0
H782 H 0.47629 0.46756 0.93426 0.0
H783 H 0.49256 0.4351 0.87608 0.0
C784 C 0.91066 0.43518 0.74935 0.0
C785 C 0.886 0.43533 0.80568 0.0
C786 C 0.84138 0.47297 0.74105 0.0
C787 C 0.86974 0.48169 0.69368 0.0
N788 N 0.92999 0.46516 0.64593 0.0
N789 N 0.82922 0.45992 0.85685 0.0
C790 C 0.90415 0.46105 0.69589 0.0
C791 C 0.85202 0.45634 0.80242 0.0
N792 N 0.93947 0.40964 0.74575 0.0
N793 N 0.80402 0.47711 0.72548 0.0
H794 H 0.83564 0.44815 0.90314 0.0
H795 H 0.80519 0.47694 0.8565 0.0
H796 H 0.7949 0.48338 0.67721 0.0
H797 H 0.78241 0.46885 0.75765 0.0
H798 H 0.95589 0.40552 0.70334 0.0
H799 H 0.94554 0.39065 0.7838 0.0
H800 H 0.95773 0.45544 0.64913 0.0
H801 H 0.92341 0.4785 0.60099 0.0
C802 C 0.45442 0.14271 0.38979 0.0
C803 C 0.4825 0.11511 0.40263 0.0
C804 C 0.4565 0.07669 0.31052 0.0
C805 C 0.4329 0.10719 0.29129 0.0
N806 N 0.41016 0.17014 0.31125 0.0
N807 N 0.50319 0.05112 0.38623 0.0
C808 C 0.43189 0.14034 0.33091 0.0
C809 C 0.48123 0.08058 0.36653 0.0
N810 N 0.44801 0.17014 0.43615 0.0
N811 N 0.4541 0.04338 0.27674 0.0
H812 H 0.51098 0.04736 0.43593 0.0
H813 H 0.51159 0.02967 0.35429 0.0
H814 H 0.43801 0.0403 0.23366 0.0
H815 H 0.46683 0.01839 0.29197 0.0
H816 H 0.42588 0.18942 0.43307 0.0
H817 H 0.46203 0.17051 0.48206 0.0
H818 H 0.41154 0.19666 0.33322 0.0
H819 H 0.39291 0.16923 0.26922 0.0
C820 C 0.09457 0.55595 0.75718 0.0
C821 C 0.11892 0.55763 0.81454 0.0
C822 C 0.1648 0.51928 0.75296 0.0
C823 C 0.13714 0.50956 0.7047 0.0
N824 N 0.0776 0.52506 0.65306 0.0
N825 N 0.17534 0.5333 0.86858 0.0
C826 C 0.10253 0.5299 0.7045 0.0
C827 C 0.15333 0.53687 0.81308 0.0
N828 N 0.06411 0.5795 0.75201 0.0
N829 N 0.20234 0.51426 0.73999 0.0
H830 H 0.16661 0.54197 0.9154 0.0
H831 H 0.19994 0.51709 0.86955 0.0
H832 H 0.2122 0.50712 0.69268 0.0
H833 H 0.22359 0.52322 0.77247 0.0
H834 H 0.04892 0.58356 0.70805 0.0
H835 H 0.05454 0.59643 0.79064 0.0
H836 H 0.04949 0.5338 0.65449 0.0
H837 H 0.08537 0.51221 0.60836 0.0
C838 C 0.54328 0.91187 0.30947 0.0
C839 C 0.56645 0.88135 0.28841 0.0
C840 C 0.54304 0.84383 0.38351 0.0
C841 C 0.51709 0.87297 0.3991 0.0
N842 N 0.50951 0.94021 0.40164 0.0
N843 N 0.59001 0.81849 0.30743 0.0
C844 C 0.52237 0.9088 0.36978 0.0
C845 C 0.56723 0.84754 0.3268 0.0
N846 N 0.54045 0.94365 0.2715 0.0
N847 N 0.54628 0.81401 0.42626 0.0
H848 H 0.60879 0.82063 0.26778 0.0
H849 H 0.58909 0.79159 0.32782 0.0
H850 H 0.53156 0.81302 0.47132 0.0
H851 H 0.56614 0.79258 0.42161 0.0
H852 H 0.52111 0.9651 0.28102 0.0
H853 H 0.55473 0.94708 0.22676 0.0
H854 H 0.51394 0.96735 0.38409 0.0
H855 H 0.50001 0.93957 0.45079 0.0
C856 C 0.88719 0.99539 0.55723 0.0
C857 C 0.87481 0.0027 0.62323 0.0
C858 C 0.86918 0.06929 0.59292 0.0
C859 C 0.88825 0.06218 0.53153 0.0
N860 N 0.92381 0.01799 0.46458 0.0
N861 N 0.85777 0.04842 0.70656 0.0
C862 C 0.90029 0.02515 0.51696 0.0
C863 C 0.86721 0.04031 0.64218 0.0
N864 N 0.88232 0.96082 0.52991 0.0
N865 N 0.85032 0.10235 0.60233 0.0
H866 H 0.85521 0.02765 0.74312 0.0
H867 H 0.85549 0.07591 0.72428 0.0
H868 H 0.84847 0.12307 0.56571 0.0
H869 H 0.83272 0.10707 0.6431 0.0
H870 H 0.88987 0.95408 0.48111 0.0
H871 H 0.86322 0.94244 0.55123 0.0
H872 H 0.93432 0.99121 0.45453 0.0
H873 H 0.93596 0.03914 0.4358 0.0
C874 C 0.05148 0.14543 0.54061 0.0
C875 C 0.05646 0.10773 0.56265 0.0
C876 C 0.02009 0.08567 0.46503 0.0
C877 C 0.01114 0.12358 0.44849 0.0
N878 N 0.03613 0.18654 0.44809 0.0
N879 N 0.0447 0.04156 0.54728 0.0
C880 C 0.03196 0.15277 0.47984 0.0
C881 C 0.04085 0.07768 0.52475 0.0
N882 N 0.06497 0.17449 0.57819 0.0
N883 N 0.01197 0.05776 0.42046 0.0
H884 H 0.05953 0.03483 0.59072 0.0
H885 H 0.03075 0.01866 0.52628 0.0
H886 H 0.00166 0.06352 0.37274 0.0
H887 H 0.02029 0.02987 0.4265 0.0
H888 H 0.05834 0.2026 0.56903 0.0
H889 H 0.08013 0.17021 0.62196 0.0
H890 H 0.05345 0.20808 0.46564 0.0
H891 H 0.02691 0.19081 0.39917 0.0
C892 C 0.08412 0.93619 0.59482 0.0
C893 C 0.11049 0.93346 0.54087 0.0
C894 C 0.15511 0.97056 0.60758 0.0
C895 C 0.12612 0.98127 0.65244 0.0
N896 N 0.06404 0.96818 0.69591 0.0
N897 N 0.16944 0.95581 0.49369 0.0
C898 C 0.09085 0.96221 0.64816 0.0
C899 C 0.1453 0.95322 0.54632 0.0
N900 N 0.05299 0.9135 0.59619 0.0
N901 N 0.19228 0.97413 0.62508 0.0
H902 H 0.16286 0.94564 0.44666 0.0
H903 H 0.19381 0.97234 0.4951 0.0
H904 H 0.2007 0.98086 0.67351 0.0
H905 H 0.21427 0.96445 0.59501 0.0
H906 H 0.03592 0.91012 0.63801 0.0
H907 H 0.04504 0.89636 0.55663 0.0
H908 H 0.03579 0.96046 0.69044 0.0
H909 H 0.07036 0.98083 0.74153 0.0
C910 C 0.98377 0.90784 0.48075 0.0
C911 C 0.98803 0.87199 0.45081 0.0
C912 C 0.93861 0.84692 0.52465 0.0
C913 C 0.93989 0.88074 0.56276 0.0
N914 N 0.96637 0.9428 0.57942 0.0
N915 N 0.95778 0.81358 0.42407 0.0
C916 C 0.96318 0.91108 0.54139 0.0
C917 C 0.9619 0.8432 0.46694 0.0
N918 N 0.99762 0.93907 0.44952 0.0
N919 N 0.91646 0.8177 0.54548 0.0
H920 H 0.97217 0.81242 0.37868 0.0
H921 H 0.93742 0.79267 0.42901 0.0
H922 H 0.89871 0.81955 0.58666 0.0
H923 H 0.91731 0.79081 0.52507 0.0
H924 H 0.99497 0.96624 0.46814 0.0
H925 H 0.00659 0.93855 0.40004 0.0
H926 H 0.986 0.96398 0.57016 0.0
H927 H 0.95195 0.94656 0.62395 0.0
C928 C 0.31457 0.23058 0.16508 0.0
C929 C 0.34908 0.21063 0.15702 0.0
C930 C 0.3845 0.26579 0.19697 0.0
C931 C 0.35034 0.28688 0.1992 0.0
N932 N 0.28288 0.29045 0.18176 0.0
N933 N 0.41725 0.21041 0.15583 0.0
C934 C 0.31538 0.26951 0.18218 0.0
C935 C 0.38416 0.22864 0.17008 0.0
N936 N 0.28093 0.21204 0.15745 0.0
N937 N 0.41731 0.28114 0.22084 0.0
H938 H 0.41814 0.18306 0.13719 0.0
H939 H 0.44368 0.22329 0.15721 0.0
H940 H 0.41913 0.3086 0.23868 0.0
H941 H 0.44219 0.2659 0.22756 0.0
H942 H 0.25485 0.22332 0.17084 0.0
H943 H 0.27913 0.18432 0.14062 0.0
H944 H 0.25742 0.28118 0.16144 0.0
H945 H 0.28165 0.31803 0.19938 0.0
C946 C 0.27214 0.68597 0.91942 0.0
C947 C 0.29076 0.6517 0.90299 0.0
C948 C 0.23458 0.6166 0.93632 0.0
C949 C 0.21429 0.65048 0.94578 0.0
N950 N 0.21267 0.71826 0.94055 0.0
N951 N 0.28383 0.58609 0.87353 0.0
C952 C 0.23275 0.68552 0.93532 0.0
C953 C 0.27016 0.61756 0.90411 0.0
N954 N 0.29209 0.7189 0.91966 0.0
N955 N 0.22086 0.58349 0.96048 0.0
H956 H 0.30963 0.58542 0.84863 0.0
H957 H 0.26787 0.56158 0.86836 0.0
H958 H 0.19609 0.58189 0.98831 0.0
H959 H 0.23636 0.55852 0.95934 0.0
H960 H 0.2816 0.74405 0.93882 0.0
H961 H 0.31992 0.72072 0.90274 0.0
H962 H 0.22316 0.74439 0.92608 0.0
H963 H 0.18466 0.71905 0.95674 0.0
C964 C 0.61354 0.76504 0.1627 0.0
C965 C 0.64864 0.78319 0.15019 0.0
C966 C 0.68301 0.72791 0.19128 0.0
C967 C 0.64823 0.70874 0.1995 0.0
N968 N 0.5803 0.70702 0.18818 0.0
N969 N 0.71657 0.7803 0.14202 0.0
C970 C 0.61338 0.72682 0.18434 0.0
C971 C 0.6833 0.76404 0.16141 0.0
N972 N 0.58048 0.78479 0.15668 0.0
N973 N 0.7158 0.71167 0.21359 0.0
H974 H 0.71787 0.80692 0.12033 0.0
H975 H 0.74246 0.76632 0.14192 0.0
H976 H 0.71654 0.68514 0.23582 0.0
H977 H 0.74166 0.7256 0.2157 0.0
H978 H 0.55442 0.7749 0.17315 0.0
H979 H 0.5793 0.8123 0.13879 0.0
H980 H 0.55456 0.71677 0.16968 0.0
H981 H 0.5789 0.6796 0.20651 0.0
C982 C 0.76525 0.36836 0.89471 0.0
C983 C 0.78179 0.34444 0.94348 0.0
C984 C 0.72063 0.31258 0.95517 0.0
C985 C 0.70301 0.34081 0.91524 0.0
N986 N 0.70891 0.40149 0.861 0.0
N987 N 0.77325 0.29672 1.02777 0.0
C988 C 0.72535 0.37042 0.88889 0.0
C989 C 0.75887 0.31736 0.97604 0.0
N990 N 0.78743 0.38727 0.85055 0.0
N991 N 0.70151 0.28035 0.97064 0.0
H992 H 0.80091 0.29989 1.04518 0.0
H993 H 0.75668 0.27917 0.05737 0.0
H994 H 0.67446 0.27465 0.95251 0.0
H995 H 0.7141 0.25752 0.99467 0.0
H996 H 0.77639 0.40209 0.80999 0.0
H997 H 0.81662 0.38408 0.84964 0.0
H998 H 0.7245 0.42504 0.84661 0.0
H999 H 0.67978 0.40569 0.85935 0.0
C1000 C 0.82535 0.72551 0.67241 0.0
C1001 C 0.86047 0.70683 0.66361 0.0
C1002 C 0.89437 0.76437 0.69628 0.0
C1003 C 0.85907 0.78245 0.70765 0.0
N1004 N 0.7914 0.77847 0.71917 0.0
N1005 N 0.92828 0.70595 0.67735 0.0
C1006 C 0.82471 0.76236 0.69956 0.0
C1007 C 0.895 0.72555 0.67833 0.0
N1008 N 0.79254 0.70833 0.65276 0.0
N1009 N 0.92717 0.78466 0.69935 0.0
H1010 H 0.93011 0.678 0.66206 0.0
H1011 H 0.95369 0.71651 0.69585 0.0
H1012 H 0.92812 0.81277 0.71399 0.0
H1013 H 0.9532 0.77448 0.68314 0.0
H1014 H 0.76649 0.72193 0.65045 0.0
H1015 H 0.79174 0.68116 0.63326 0.0
H1016 H 0.76585 0.764 0.72174 0.0
H1017 H 0.78984 0.8056 0.73871 0.0
C1018 C 0.76447 0.18325 0.40504 0.0
C1019 C 0.78554 0.14937 0.41037 0.0
C1020 C 0.72794 0.11562 0.44486 0.0
C1021 C 0.70736 0.15002 0.44343 0.0
N1022 N 0.70724 0.21754 0.43351 0.0
N1023 N 0.78876 0.08415 0.44312 0.0
C1024 C 0.72601 0.18412 0.42648 0.0
C1025 C 0.76762 0.11579 0.43235 0.0
N1026 N 0.78111 0.21443 0.37794 0.0
N1027 N 0.70936 0.08244 0.45549 0.0
H1028 H 0.81715 0.08233 0.43026 0.0
H1029 H 0.7788 0.06043 0.46802 0.0
H1030 H 0.68095 0.08102 0.46848 0.0
H1031 H 0.72148 0.05608 0.44779 0.0
H1032 H 0.76643 0.23896 0.36611 0.0
H1033 H 0.80917 0.21471 0.36191 0.0
H1034 H 0.72008 0.24374 0.42852 0.0
H1035 H 0.67943 0.21919 0.45056 0.0
C1036 C 0.11072 0.26602 0.6781 0.0
C1037 C 0.14534 0.2831 0.65919 0.0
C1038 C 0.17882 0.22338 0.67826 0.0
C1039 C 0.1444 0.20662 0.69969 0.0
N1040 N 0.07895 0.21354 0.73158 0.0
N1041 N 0.21321 0.2803 0.64985 0.0
C1042 C 0.11078 0.2285 0.70348 0.0
C1043 C 0.17965 0.26236 0.66162 0.0
N1044 N 0.07762 0.28552 0.67045 0.0
N1045 N 0.21083 0.20186 0.67364 0.0
H1046 H 0.21482 0.30829 0.63444 0.0
H1047 H 0.23961 0.2683 0.65874 0.0
H1048 H 0.21247 0.1744 0.69182 0.0
H1049 H 0.2354 0.2106 0.64974 0.0
H1050 H 0.05094 0.27366 0.67658 0.0
H1051 H 0.07663 0.313 0.65224 0.0
H1052 H 0.05484 0.22916 0.74254 0.0
H1053 H 0.07733 0.18585 0.74839 0.0
C1054 C 0.27242 0.81172 0.43688 0.0
C1055 C 0.28995 0.84648 0.45357 0.0
C1056 C 0.23377 0.8803 0.41582 0.0
C1057 C 0.21458 0.84591 0.40566 0.0
N1058 N 0.21418 0.77817 0.41209 0.0
N1059 N 0.28198 0.91214 0.47985 0.0
C1060 C 0.2335 0.81131 0.41803 0.0
C1061 C 0.26896 0.88026 0.44975 0.0
N1062 N 0.2931 0.77921 0.43866 0.0
N1063 N 0.21917 0.91292 0.3909 0.0
H1064 H 0.30727 0.91275 0.50672 0.0
H1065 H 0.26596 0.93673 0.48297 0.0
H1066 H 0.19443 0.91346 0.36246 0.0
H1067 H 0.23373 0.93841 0.39249 0.0
H1068 H 0.28352 0.7537 0.41952 0.0
H1069 H 0.32068 0.77815 0.45726 0.0
H1070 H 0.22485 0.75233 0.42791 0.0
H1071 H 0.18657 0.77678 0.39369 0.0
C1072 C 0.23741 0.05471 0.8928 0.0
C1073 C 0.22591 0.08891 0.86194 0.0
C1074 C 0.25774 0.12423 0.95264 0.0
C1075 C 0.26625 0.08998 0.98648 0.0
N1076 N 0.25969 0.0227 0.99285 0.0
N1077 N 0.22117 0.15647 0.86688 0.0
C1078 C 0.25484 0.05525 0.95744 0.0
C1079 C 0.23515 0.12375 0.893 0.0
N1080 N 0.23252 0.02161 0.85917 0.0
N1081 N 0.27252 0.15723 0.97599 0.0
H1082 H 0.20592 0.15745 0.82233 0.0
H1083 H 0.22266 0.18228 0.8913 0.0
H1084 H 0.28823 0.15892 1.01997 0.0
H1085 H 0.27145 0.18245 0.94958 0.0
H1086 H 0.24353 0.99596 0.87518 0.0
H1087 H 0.22041 0.02038 0.81167 0.0
H1088 H 0.24873 0.99682 0.97812 0.0
H1089 H 0.27178 0.02216 1.0404 0.0
C1090 C 0.05668 0.7324 0.15076 0.0
C1091 C 0.0908 0.72307 0.11706 0.0
C1092 C 0.12684 0.75785 0.20331 0.0
C1093 C 0.09296 0.76483 0.23943 0.0
N1094 N 0.02624 0.75412 0.25259 0.0
N1095 N 0.15899 0.72192 0.11728 0.0
C1096 C 0.05805 0.75076 0.21442 0.0
C1097 C 0.12605 0.73458 0.14491 0.0
N1098 N 0.02279 0.72495 0.12055 0.0
N1099 N 0.15974 0.77457 0.22347 0.0
H1100 H 0.15979 0.70531 0.07448 0.0
H1101 H 0.18542 0.72539 0.13947 0.0
H1102 H 0.16183 0.7906 0.26688 0.0
H1103 H 0.18432 0.77476 0.19496 0.0
H1104 H 0.99689 0.73434 0.13866 0.0
H1105 H 0.02077 0.71217 0.07382 0.0
H1106 H 0.00064 0.74118 0.24109 0.0
H1107 H 0.02631 0.76722 0.29917 0.0
C1108 C 0.74301 0.93935 0.95531 0.0
C1109 C 0.73253 0.90502 0.98686 0.0
C1110 C 0.76616 0.87028 0.89815 0.0
C1111 C 0.77311 0.90436 0.86297 0.0
N1112 N 0.76249 0.97105 0.85345 0.0
N1113 N 0.72693 0.83754 0.97841 0.0
C1114 C 0.75986 0.93882 0.89038 0.0
C1115 C 0.74218 0.87038 0.95558 0.0
N1116 N 0.73803 0.97257 0.98847 0.0
N1117 N 0.78382 0.83792 0.87874 0.0
H1118 H 0.70822 0.83654 1.01841 0.0
H1119 H 0.72981 0.81197 0.9535 0.0
H1120 H 0.80226 0.83687 0.83833 0.0
H1121 H 0.78303 0.81315 0.90656 0.0
H1122 H 0.74848 -0.00179 0.97137 0.0
H1123 H 0.72673 0.97395 1.03646 0.0
H1124 H 0.74993 0.99637 0.86734 0.0
H1125 H 0.77413 0.97154 0.80566 0.0
C1126 C 0.93605 0.27923 0.16318 0.0
C1127 C 0.91104 0.26974 0.10971 0.0
C1128 C 0.88069 0.22244 0.18253 0.0
C1129 C 0.90715 0.2304 0.23442 0.0
N1130 N 0.96298 0.26289 0.27138 0.0
N1131 N 0.86132 0.23044 0.06655 0.0
C1132 C 0.93551 0.25802 0.22406 0.0
C1133 C 0.88406 0.24056 0.11881 0.0
N1134 N 0.96012 0.30906 0.15599 0.0
N1135 N 0.85143 0.19833 0.19534 0.0
H1136 H 0.86227 0.24357 1.02009 0.0
H1137 H 0.84293 0.20767 0.0674 0.0
H1138 H 0.84775 0.18533 0.2415 0.0
H1139 H 0.82904 0.19329 0.16286 0.0
H1140 H 0.97531 0.32089 0.19528 0.0
H1141 H 0.9637 0.32327 0.11088 0.0
H1142 H 0.9872 0.27899 0.26401 0.0
H1143 H 0.96271 0.2489 0.31716 0.0
C1144 C 0.26211 0.43833 0.39973 0.0
C1145 C 0.27183 0.40456 0.36576 0.0
C1146 C 0.23931 0.36826 0.45434 0.0
C1147 C 0.23254 0.40188 0.4911 0.0
N1148 N 0.24214 0.46853 0.50279 0.0
N1149 N 0.27434 0.33678 0.36621 0.0
C1150 C 0.24533 0.43678 0.46473 0.0
C1151 C 0.26157 0.36935 0.39452 0.0
N1152 N 0.26779 0.47209 0.36858 0.0
N1153 N 0.22319 0.33537 0.47514 0.0
H1154 H 0.28977 0.33628 0.32198 0.0
H1155 H 0.27191 0.31051 0.38884 0.0
H1156 H 0.20765 0.33325 0.51912 0.0
H1157 H 0.22298 0.31087 0.44665 0.0
H1158 H 0.25799 0.49766 0.38705 0.0
H1159 H 0.27922 0.47414 0.32075 0.0
H1160 H 0.25426 0.49423 0.4901 0.0
H1161 H 0.23031 0.4683 0.55045 0.0
C1162 C 0.3775 0.73795 0.70734 0.0
C1163 C 0.41256 0.72727 0.737 0.0
C1164 C 0.44612 0.75528 0.64065 0.0
C1165 C 0.41128 0.76833 0.61346 0.0
N1166 N 0.34403 0.77652 0.62603 0.0
N1167 N 0.4805 0.73067 0.73669 0.0
C1168 C 0.37703 0.76075 0.64819 0.0
C1169 C 0.44693 0.73726 0.70474 0.0
N1170 N 0.34445 0.72503 0.73416 0.0
N1171 N 0.47846 0.75918 0.60404 0.0
H1172 H 0.48207 0.71811 0.7837 0.0
H1173 H 0.50646 0.74057 0.71976 0.0
H1174 H 0.4788 0.77192 0.55712 0.0
H1175 H 0.50421 0.74699 0.61715 0.0
H1176 H 0.31826 0.7277 0.71075 0.0
H1177 H 0.34341 0.70917 0.77788 0.0
H1178 H 0.31901 0.77632 0.65329 0.0
H1179 H 0.3422 0.79214 0.58211 0.0
C1180 C 0.74729 0.55382 0.38888 0.0
C1181 C 0.73236 0.58786 0.3623 0.0
C1182 C 0.76137 0.62261 0.45627 0.0
C1183 C 0.77375 0.58825 0.48555 0.0
N1184 N 0.77277 0.52054 0.48514 0.0
N1185 N 0.71849 0.65362 0.37904 0.0
C1186 C 0.76499 0.55368 0.45325 0.0
C1187 C 0.73756 0.62198 0.39836 0.0
N1188 N 0.74553 0.5217 0.35155 0.0
N1189 N 0.77376 0.65603 0.48182 0.0
H1190 H 0.7007 0.65428 0.33753 0.0
H1191 H 0.71768 0.67816 0.4074 0.0
H1192 H 0.79124 0.65766 0.52363 0.0
H1193 H 0.76932 0.68183 0.45836 0.0
H1194 H 0.75925 0.49681 0.36453 0.0
H1195 H 0.73312 0.52089 0.30427 0.0
H1196 H 0.76389 0.49438 0.46779 0.0
H1197 H 0.78503 0.51948 0.53252 0.0
C1198 C 0.5477 0.23565 0.64494 0.0
C1199 C 0.58254 0.22573 0.61438 0.0
C1200 C 0.61704 0.25514 0.70819 0.0
C1201 C 0.58217 0.26318 0.74046 0.0
N1202 N 0.51457 0.25659 0.74464 0.0
N1203 N 0.65049 0.22162 0.62058 0.0
C1204 C 0.54756 0.25215 0.71007 0.0
C1205 C 0.61726 0.23443 0.64694 0.0
N1206 N 0.5147 0.23018 0.61056 0.0
N1207 N 0.65001 0.26844 0.735 0.0
H1208 H 0.65204 0.20788 0.57473 0.0
H1209 H 0.67629 0.22259 0.64566 0.0
H1210 H 0.65129 0.28177 0.78126 0.0
H1211 H 0.6758 0.26811 0.71007 0.0
H1212 H 0.48847 0.23988 0.62653 0.0
H1213 H 0.51396 0.21858 0.56275 0.0
H1214 H 0.48861 0.24601 0.72887 0.0
H1215 H 0.51369 0.26815 0.79247 0.0
C1216 C 0.31676 0.06799 0.62277 0.0
C1217 C 0.33193 0.09111 0.57149 0.0
C1218 C 0.3794 0.11593 0.65017 0.0
C1219 C 0.36282 0.09444 0.70227 0.0
N1220 N 0.31293 0.05373 0.74111 0.0
N1221 N 0.37527 0.1396 0.53662 0.0
C1222 C 0.33062 0.07159 0.68938 0.0
C1223 C 0.36256 0.11584 0.58536 0.0
N1224 N 0.28978 0.0418 0.60739 0.0
N1225 N 0.41176 0.13587 0.66246 0.0
H1226 H 0.36548 0.13877 0.48752 0.0
H1227 H 0.39392 0.16169 0.54539 0.0
H1228 H 0.42382 0.13818 0.70982 0.0
H1229 H 0.42805 0.14841 0.62543 0.0
H1230 H 0.28049 0.02119 0.64041 0.0
H1231 H 0.2783 0.03884 0.55973 0.0
H1232 H 0.2867 0.04065 0.73686 0.0
H1233 H 0.32322 0.05404 0.78991 0.0
C1234 C 0.11371 0.66842 0.48469 0.0
C1235 C 0.08657 0.65383 0.53004 0.0
C1236 C 0.06555 0.60818 0.44543 0.0
C1237 C 0.09081 0.6247 0.39886 0.0
N1238 N 0.13505 0.67367 0.37011 0.0
N1239 N 0.03503 0.6115 0.55387 0.0
C1240 C 0.11384 0.65568 0.41741 0.0
C1241 C 0.06197 0.62416 0.51041 0.0
N1242 N 0.13998 0.69391 0.50629 0.0
N1243 N 0.04549 0.57682 0.42762 0.0
H1244 H 0.03295 0.62096 0.60296 0.0
H1245 H 0.01345 0.593 0.54089 0.0
H1246 H 0.04658 0.56515 0.37992 0.0
H1247 H 0.02945 0.56089 0.46064 0.0
H1248 H 0.1632 0.70229 0.47811 0.0
H1249 H 0.14026 0.70492 0.55445 0.0
H1250 H 0.14859 0.69928 0.37819 0.0
H1251 H 0.13698 0.66445 0.32084 0.0
C1252 C 0.62875 0.89965 0.57836 0.0
C1253 C 0.66293 0.91987 0.56769 0.0
C1254 C 0.66042 0.94189 0.68426 0.0
C1255 C 0.6303 0.91655 0.69723 0.0
N1256 N 0.58809 0.86807 0.6578 0.0
N1257 N 0.71254 0.95936 0.61281 0.0
C1258 C 0.61493 0.89467 0.6445 0.0
C1259 C 0.67895 0.94105 0.62115 0.0
N1260 N 0.60861 0.88647 0.52494 0.0
N1261 N 0.67067 0.96758 0.73177 0.0
H1262 H 0.72651 0.96102 0.56736 0.0
H1263 H 0.72801 0.97083 0.65212 0.0
H1264 H 0.65752 0.96932 0.77821 0.0
H1265 H 0.68957 0.98949 0.72305 0.0
H1266 H 0.58172 0.87473 0.52913 0.0
H1267 H 0.61687 0.89106 0.47566 0.0
H1268 H 0.57891 0.84848 0.62265 0.0
H1269 H 0.57727 0.86345 0.70546 0.0
C1270 C 0.8782 0.38838 0.44212 0.0
C1271 C 0.9033 0.37546 0.39185 0.0
C1272 C 0.93161 0.33075 0.47154 0.0
C1273 C 0.90694 0.34415 0.5222 0.0
N1274 N 0.86379 0.392 0.56038 0.0
N1275 N 0.9592 0.34058 0.36205 0.0
C1276 C 0.88232 0.3749 0.50881 0.0
C1277 C 0.93161 0.34847 0.40764 0.0
N1278 N 0.84956 0.41256 0.42566 0.0
N1279 N 0.95425 0.30031 0.48372 0.0
H1280 H 0.95999 0.35281 0.31473 0.0
H1281 H 0.98308 0.3245 0.3729 0.0
H1282 H 0.95669 0.28787 0.5306 0.0
H1283 H 0.96896 0.28599 0.44664 0.0
H1284 H 0.82776 0.41971 0.45814 0.0
H1285 H 0.84599 0.42349 0.37773 0.0
H1286 H 0.8486 0.41696 0.55523 0.0
H1287 H 0.86661 0.38325 0.60985 0.0
C1288 C 0.3429 0.42619 0.66197 0.0
C1289 C 0.37929 0.41 0.65281 0.0
C1290 C 0.38424 0.39838 0.7738 0.0
C1291 C 0.34807 0.41524 0.78308 0.0
N1292 N 0.29592 0.45114 0.73807 0.0
N1293 N 0.43664 0.38422 0.69922 0.0
C1294 C 0.3283 0.43091 0.72771 0.0
C1295 C 0.40057 0.39715 0.70864 0.0
N1296 N 0.32185 0.43638 0.60747 0.0
N1297 N 0.40287 0.38336 0.82751 0.0
H1298 H 0.44875 0.38121 0.65213 0.0
H1299 H 0.45552 0.37823 0.73768 0.0
H1300 H 0.39353 0.38652 0.87651 0.0
H1301 H 0.42688 0.36658 0.82391 0.0
H1302 H 0.29329 0.44334 0.60969 0.0
H1303 H 0.33221 0.43568 0.55881 0.0
H1304 H 0.28258 0.46714 0.7014 0.0
H1305 H 0.28357 0.45438 0.78479 0.0
C1306 C 0.39047 0.67119 0.37258 0.0
C1307 C 0.41605 0.65583 0.32522 0.0
C1308 C 0.43745 0.60921 0.4082 0.0
C1309 C 0.41394 0.6265 0.45677 0.0
N1310 N 0.37169 0.67667 0.48855 0.0
N1311 N 0.46531 0.61162 0.29737 0.0
C1312 C 0.39144 0.65825 0.43983 0.0
C1313 C 0.43997 0.62518 0.34294 0.0
N1314 N 0.36456 0.69757 0.35287 0.0
N1315 N 0.45693 0.57719 0.42444 0.0
H1316 H 0.46633 0.62098 0.24807 0.0
H1317 H 0.48659 0.5924 0.30868 0.0
H1318 H 0.45677 0.56555 0.47224 0.0
H1319 H 0.47157 0.56076 0.39019 0.0
H1320 H 0.34235 0.70677 0.38271 0.0
H1321 H 0.3634 0.70844 0.30461 0.0
H1322 H 0.35878 0.70273 0.48157 0.0
H1323 H 0.37033 0.66724 0.53778 0.0
C1324 C 0.68462 0.55906 0.72501 0.0
C1325 C 0.6671 0.57859 0.77865 0.0
C1326 C 0.61515 0.59781 0.70345 0.0
C1327 C 0.63475 0.58146 0.64882 0.0
N1328 N 0.68974 0.54966 0.60546 0.0
N1329 N 0.61539 0.61607 0.82042 0.0
C1330 C 0.66992 0.56294 0.65908 0.0
C1331 C 0.6322 0.59781 0.7682 0.0
N1332 N 0.71464 0.53576 0.73724 0.0
N1333 N 0.57996 0.61286 0.69337 0.0
H1334 H 0.62499 0.61391 0.86952 0.0
H1335 H 0.59263 0.63442 0.81541 0.0
H1336 H 0.56742 0.6149 0.64634 0.0
H1337 H 0.56208 0.6216 0.73148 0.0
H1338 H 0.72592 0.51749 0.70193 0.0
H1339 H 0.72648 0.5321 0.78438 0.0
H1340 H 0.71772 0.5406 0.60824 0.0
H1341 H 0.67918 0.55 0.55683 0.0
C1342 C 0.62212 0.34369 0.43423 0.0
C1343 C 0.59562 0.37198 0.45166 0.0
C1344 C 0.57162 0.37233 0.3368 0.0
C1345 C 0.59351 0.33973 0.32244 0.0
N1346 N 0.63887 0.29306 0.35942 0.0
N1347 N 0.54256 0.41125 0.42176 0.0
C1348 C 0.61891 0.32527 0.37143 0.0
C1349 C 0.56978 0.38596 0.40344 0.0
N1350 N 0.65078 0.33486 0.47747 0.0
N1351 N 0.5537 0.3911 0.28622 0.0
H1352 H 0.54065 0.42231 0.46982 0.0
H1353 H 0.52021 0.41906 0.39071 0.0
H1354 H 0.55581 0.38293 0.23637 0.0
H1355 H 0.54028 0.41696 0.29261 0.0
H1356 H 0.67341 0.31747 0.46504 0.0
H1357 H 0.6539 0.34772 0.52394 0.0
H1358 H 0.65367 0.27851 0.39624 0.0
H1359 H 0.63869 0.27915 0.31382 0.0
C1360 C 0.88067 0.56426 0.08026 0.0
C1361 C 0.84928 0.58798 0.06563 0.0
C1362 C 0.8477 0.60912 0.18253 0.0
C1363 C 0.88004 0.58662 0.19656 0.0
N1364 N 0.92972 0.54542 0.15894 0.0
N1365 N 0.80601 0.63683 0.09944 0.0
C1366 C 0.89723 0.56495 0.14534 0.0
C1367 C 0.83373 0.61155 0.11585 0.0
N1368 N 0.89428 0.54069 1.03196 0.0
N1369 N 0.82977 0.62746 0.23348 0.0
H1370 H 0.79418 0.63866 0.05186 0.0
H1371 H 0.79634 0.65777 0.13142 0.0
H1372 H 0.84009 0.62795 0.28226 0.0
H1373 H 0.80341 0.64028 0.22873 0.0
H1374 H 0.91388 0.5194 1.04078 0.0
H1375 H 0.88462 0.54114 0.98276 0.0
H1376 H 0.94617 0.53223 0.1229 0.0
H1377 H 0.94167 0.54399 0.2065 0.0
C1378 C 0.57275 0.10291 0.9497 0.0
C1379 C 0.59113 0.12227 0.89698 0.0
C1380 C 0.61301 0.17068 0.97546 0.0
C1381 C 0.59122 0.15377 1.02696 0.0
N1382 N 0.55198 0.10265 0.06532 0.0
N1383 N 0.62567 0.17627 0.85711 0.0
C1384 C 0.57158 0.11944 1.01462 0.0
C1385 C 0.61053 0.15652 0.90926 0.0
N1386 N 0.55687 0.06847 0.93757 0.0
N1387 N 0.63708 0.19963 0.9898 0.0
H1388 H 0.62625 0.16618 0.80827 0.0
H1389 H 0.63534 0.20386 0.8612 0.0
H1390 H 0.63907 0.21223 1.03649 0.0
H1391 H 0.6576 0.20909 0.95666 0.0
H1392 H 0.54611 0.05083 0.97431 0.0
H1393 H 0.55607 0.0563 0.89023 0.0
H1394 H 0.53324 0.08041 0.05883 0.0
H1395 H 0.55379 0.11153 0.11481 0.0
C1396 C 0.1616 0.42042 0.19225 0.0
C1397 C 0.12843 0.39912 0.20536 0.0
C1398 C 0.12691 0.37801 0.08837 0.0
C1399 C 0.15896 0.40087 0.07455 0.0
N1400 N 0.20288 0.44883 0.10989 0.0
N1401 N 0.0769 0.36078 0.16573 0.0
C1402 C 0.1752 0.42348 0.12558 0.0
C1403 C 0.11033 0.3788 0.15326 0.0
N1404 N 0.18051 0.43727 0.24383 0.0
N1405 N 0.11255 0.3553 1.03941 0.0
H1406 H 0.06483 0.35936 0.2131 0.0
H1407 H 0.05981 0.34906 0.12887 0.0
H1408 H 0.12248 0.35559 0.99048 0.0
H1409 H 0.09217 0.33472 1.04759 0.0
H1410 H 0.20737 0.44898 0.23926 0.0
H1411 H 0.17056 0.43737 0.29276 0.0
H1412 H 0.21301 0.46908 0.14288 0.0
H1413 H 0.21387 0.45171 0.06197 0.0
C1414 C 0.43264 0.82267 0.97277 0.0
C1415 C 0.40973 0.83851 1.0237 0.0
C1416 C 0.38537 0.88555 0.94419 0.0
C1417 C 0.40609 0.86781 0.89227 0.0
N1418 N 0.44584 0.81691 0.85447 0.0
N1419 N 0.3628 0.88354 0.0587 0.0
C1420 C 0.42864 0.83557 0.90583 0.0
C1421 C 0.38564 0.86957 1.00957 0.0
N1422 N 0.45918 0.79611 0.9888 0.0
N1423 N 0.3659 0.91802 0.93099 0.0
H1424 H 0.36378 0.87402 0.10792 0.0
H1425 H 0.34151 0.90326 0.05057 0.0
H1426 H 0.36358 0.92947 0.88323 0.0
H1427 H 0.35371 0.93489 0.96749 0.0
H1428 H 0.47958 0.78636 0.95567 0.0
H1429 H 0.46297 0.78586 1.03708 0.0
H1430 H 0.45848 0.79058 0.85958 0.0
H1431 H 0.4453 0.82644 0.80526 0.0
C1432 C 0.88018 0.89781 0.27107 0.0
C1433 C 0.84457 0.91572 0.28127 0.0
C1434 C 0.84095 0.93099 0.16154 0.0
C1435 C 0.87652 0.91337 0.15138 0.0
N1436 N 0.93251 0.884 0.19605 0.0
N1437 N 0.79589 0.95732 0.23922 0.0
C1438 C 0.89691 0.89797 0.20618 0.0
C1439 C 0.82642 0.9347 0.22741 0.0
N1440 N 0.898 0.88077 0.32375 0.0
N1441 N 0.82049 0.94345 0.10781 0.0
H1442 H 0.78369 0.96055 0.28601 0.0
H1443 H 0.78438 0.97547 0.20377 0.0
H1444 H 0.83082 0.94323 0.05911 0.0
H1445 H 0.79225 0.95161 0.11061 0.0
H1446 H 0.92152 0.86338 0.31924 0.0
H1447 H 0.88867 0.88323 0.37288 0.0
H1448 H 0.9508 0.87575 0.23407 0.0
H1449 H 0.94491 0.88237 0.14897 0.0
C1450 C 0.87246 0.14962 0.92968 0.0
C1451 C 0.90147 0.12447 0.94971 0.0
C1452 C 0.92934 0.12827 0.83783 0.0
C1453 C 0.90364 0.15765 0.82107 0.0
N1454 N 0.85259 0.19892 0.85403 0.0
N1455 N 0.95954 0.0918 0.92547 0.0
C1456 C 0.8755 0.16888 0.86766 0.0
C1457 C 0.93045 0.11423 0.90441 0.0
N1458 N 0.84147 0.15444 0.96941 0.0
N1459 N 0.95164 0.11274 0.78945 0.0
H1460 H 0.96071 0.08012 0.97321 0.0
H1461 H 0.9837 0.08682 0.89723 0.0
H1462 H 0.95076 0.12138 0.73973 0.0
H1463 H 0.96825 0.08889 0.79699 0.0
H1464 H 0.81743 0.16921 0.95448 0.0
H1465 H 0.83838 0.1409 1.01529 0.0
H1466 H 0.83512 0.21144 0.88944 0.0
H1467 H 0.85295 0.21325 0.80876 0.0
C1468 C 0.08828 0.09446 0.21546 0.0
C1469 C 0.10763 0.11177 0.16144 0.0
C1470 C 0.1589 0.12864 0.23903 0.0
C1471 C 0.1441 0.10317 0.28688 0.0
N1472 N 0.09311 0.06242 0.32163 0.0
N1473 N 0.14348 0.16863 0.14543 0.0
C1474 C 0.10834 0.08616 0.27535 0.0
C1475 C 0.13823 0.13573 0.1793 0.0
N1476 N 0.04974 0.09305 0.2151 0.0
N1477 N 0.19289 0.14581 0.24995 0.0
H1478 H 0.12438 0.17765 0.10895 0.0
H1479 H 0.16307 0.18899 0.15977 0.0
H1480 H 0.20834 0.14229 0.29391 0.0
H1481 H 0.20679 0.16134 0.21331 0.0
H1482 H 0.03388 0.08373 0.25566 0.0
H1483 H 0.03391 0.10717 0.17883 0.0
H1484 H 0.06897 0.04646 0.312 0.0
H1485 H 0.10595 0.05682 0.36751 0.0
C1486 C 0.07144 0.81891 0.87887 0.0
C1487 C 0.09452 0.8341 0.82757 0.0
C1488 C 0.12031 0.8806 0.90643 0.0
C1489 C 0.09942 0.86342 0.95871 0.0
N1490 N 0.05873 0.81351 0.99737 0.0
N1491 N 0.14236 0.8779 0.79168 0.0
C1492 C 0.07608 0.83173 0.94566 0.0
C1493 C 0.1194 0.86456 0.84118 0.0
N1494 N 0.04413 0.79311 0.86332 0.0
N1495 N 0.14053 0.91263 0.91914 0.0
H1496 H 0.14094 0.86837 0.74252 0.0
H1497 H 0.16415 0.89707 0.79945 0.0
H1498 H 0.14332 0.92408 0.9668 0.0
H1499 H 0.1529 0.92918 0.88236 0.0
H1500 H 0.02364 0.78396 0.89681 0.0
H1501 H 0.03982 0.78297 0.81512 0.0
H1502 H 0.04547 0.7875 0.99253 0.0
H1503 H 0.05978 0.82301 1.04655 0.0
loop_
_geom_bond_atom_site_label_1
_geom_bond_atom_site_label_2
_geom_bond_distance
_geom_bond_site_symmetry_2
_ccdc_geom_bond_type
Tb0 C10 2.825 . S
Tb0 O11 2.347 . S
Tb0 O14 2.366 . S
Tb0 O19 2.418 . S
Tb0 O20 2.384 . S
Tb0 O23 2.479 . S
Tb0 O24 2.471 . S
Eu1 O12 2.418 . S
Eu1 O13 2.384 . S
Eu1 O16 2.479 1_554 S
Eu1 O17 2.471 1_554 S
Eu1 O18 2.347 . S
Eu1 O21 2.366 . S
Eu1 C31 2.825 1_554 S
C2 O18 1.259 . S
C2 O19 1.265 . S
C3 O20 1.255 . S
C3 O21 1.265 . S
C4 C6 1.380 . S
C4 C7 1.374 . S
C4 C10 1.507 . S
C5 C6 1.384 . S
C5 C9 1.387 . S
C5 H32 0.930 . S
C6 C4 1.380 . S
C6 C5 1.384 . S
C6 H33 0.931 . S
C7 C4 1.374 . S
C7 C8 1.390 . S
C7 H34 0.930 . S
C8 C7 1.390 . S
C8 C9 1.391 . S
C8 H35 0.930 . S
C9 C5 1.387 . S
C9 C8 1.391 . S
C10 Tb0 2.825 . S
C10 C4 1.507 . S
C10 O23 1.238 . S
C10 O24 1.247 . S
O11 Tb0 2.347 . S
O11 C15 1.259 . S
O12 Eu1 2.418 . S
O12 C15 1.265 . S
O13 Eu1 2.384 . S
O13 C22 1.255 . S
O14 Tb0 2.366 . S
O14 C22 1.265 . S
C15 O11 1.259 . S
C15 O12 1.265 . S
O16 Eu1 2.479 1_556 S
O16 C31 1.238 . S
O17 Eu1 2.471 1_556 S
O17 C31 1.247 . S
O18 Eu1 2.347 . S
O18 C2 1.259 . S
O19 Tb0 2.418 . S
O19 C2 1.265 . S
O20 Tb0 2.384 . S
O20 C3 1.255 . S
O21 Eu1 2.366 . S
O21 C3 1.265 . S
C22 O13 1.255 . S
C22 O14 1.265 . S
O23 Tb0 2.479 . S
O23 C10 1.238 . S
O24 Tb0 2.471 . S
O24 C10 1.247 . S
C25 C28 1.380 . S
C25 C29 1.374 . S
C25 C31 1.507 . S
C26 C27 1.387 . S
C26 C30 1.391 . S
C27 C26 1.387 . S
C27 C28 1.384 . S
C27 H36 0.930 . S
C28 C25 1.380 . S
C28 C27 1.384 . S
C28 H37 0.931 . S
C29 C25 1.374 . S
C29 C30 1.390 . S
C29 H38 0.930 . S
C30 C26 1.391 . S
C30 C29 1.390 . S
C30 H39 0.930 . S
C31 Eu1 2.825 1_556 S
C31 O16 1.238 . S
C31 O17 1.247 . S
C31 C25 1.507 . S
H32 C5 0.930 . S
H33 C6 0.931 . S
H34 C7 0.930 . S
H35 C8 0.930 . S
H36 C27 0.930 . S
H37 C28 0.931 . S
H38 C29 0.930 . S
H39 C30 0.930 . S
Tb40 C50 2.825 1_556 S
Tb40 O51 2.347 . S
Tb40 O54 2.366 . S
Tb40 O59 2.418 . S
Tb40 O60 2.384 . S
Tb40 O63 2.479 1_556 S
Tb40 O64 2.471 1_556 S
Eu41 O52 2.418 . S
Eu41 O53 2.384 . S
Eu41 O56 2.479 . S
Eu41 O57 2.471 . S
Eu41 O58 2.347 . S
Eu41 O61 2.366 . S
Eu41 C71 2.825 . S
C42 O58 1.259 . S
C42 O59 1.265 . S
C43 O60 1.255 . S
C43 O61 1.265 . S
C44 C46 1.380 . S
C44 C47 1.374 . S
C44 C50 1.507 . S
C45 C46 1.384 . S
C45 C49 1.387 . S
C45 H72 0.930 . S
C46 C44 1.380 . S
C46 C45 1.384 . S
C46 H73 0.931 . S
C47 C44 1.374 . S
C47 C48 1.390 . S
C47 H74 0.930 . S
C48 C47 1.390 . S
C48 C49 1.391 . S
C48 H75 0.930 . S
C49 C45 1.387 . S
C49 C48 1.391 . S
C50 Tb40 2.825 1_554 S
C50 C44 1.507 . S
C50 O63 1.238 . S
C50 O64 1.247 . S
O51 Tb40 2.347 . S
O51 C55 1.259 . S
O52 Eu41 2.418 . S
O52 C55 1.265 . S
O53 Eu41 2.384 . S
O53 C62 1.255 . S
O54 Tb40 2.366 . S
O54 C62 1.265 . S
C55 O51 1.259 . S
C55 O52 1.265 . S
O56 Eu41 2.479 . S
O56 C71 1.238 . S
O57 Eu41 2.471 . S
O57 C71 1.247 . S
O58 Eu41 2.347 . S
O58 C42 1.259 . S
O59 Tb40 2.418 . S
O59 C42 1.265 . S
O60 Tb40 2.384 . S
O60 C43 1.255 . S
O61 Eu41 2.366 . S
O61 C43 1.265 . S
C62 O53 1.255 . S
C62 O54 1.265 . S
O63 Tb40 2.479 1_554 S
O63 C50 1.238 . S
O64 Tb40 2.471 1_554 S
O64 C50 1.247 . S
C65 C68 1.380 . S
C65 C69 1.374 . S
C65 C71 1.507 . S
C66 C67 1.387 . S
C66 C70 1.391 . S
C67 C66 1.387 . S
C67 C68 1.384 . S
C67 H76 0.930 . S
C68 C65 1.380 . S
C68 C67 1.384 . S
C68 H77 0.931 . S
C69 C65 1.374 . S
C69 C70 1.390 . S
C69 H78 0.930 . S
C70 C66 1.391 . S
C70 C69 1.390 . S
C70 H79 0.930 . S
C71 Eu41 2.825 . S
C71 O56 1.238 . S
C71 O57 1.247 . S
C71 C65 1.507 . S
H72 C45 0.930 . S
H73 C46 0.931 . S
H74 C47 0.930 . S
H75 C48 0.930 . S
H76 C67 0.930 . S
H77 C68 0.931 . S
H78 C69 0.930 . S
H79 C70 0.930 . S
Tb80 C90 2.825 . S
Tb80 O91 2.347 . S
Tb80 O94 2.366 . S
Tb80 O99 2.418 . S
Tb80 O100 2.384 . S
Tb80 O103 2.479 . S
Tb80 O104 2.471 . S
Eu81 O92 2.418 . S
Eu81 O93 2.384 . S
Eu81 O96 2.479 1_554 S
Eu81 O97 2.471 1_554 S
Eu81 O98 2.347 . S
Eu81 O101 2.366 . S
Eu81 C111 2.825 1_554 S
C82 O98 1.259 . S
C82 O99 1.265 . S
C83 O100 1.255 . S
C83 O101 1.265 . S
C84 C86 1.380 . S
C84 C87 1.374 . S
C84 C90 1.507 . S
C85 C86 1.384 . S
C85 C89 1.387 . S
C85 H112 0.930 . S
C86 C84 1.380 . S
C86 C85 1.384 . S
C86 H113 0.931 . S
C87 C84 1.374 . S
C87 C88 1.390 . S
C87 H114 0.930 . S
C88 C87 1.390 . S
C88 C89 1.391 . S
C88 H115 0.930 . S
C89 C85 1.387 . S
C89 C88 1.391 . S
C90 Tb80 2.825 . S
C90 C84 1.507 . S
C90 O103 1.238 . S
C90 O104 1.247 . S
O91 Tb80 2.347 . S
O91 C95 1.259 . S
O92 Eu81 2.418 . S
O92 C95 1.265 . S
O93 Eu81 2.384 . S
O93 C102 1.255 . S
O94 Tb80 2.366 . S
O94 C102 1.265 . S
C95 O91 1.259 . S
C95 O92 1.265 . S
O96 Eu81 2.479 1_556 S
O96 C111 1.238 . S
O97 Eu81 2.471 1_556 S
O97 C111 1.247 . S
O98 Eu81 2.347 . S
O98 C82 1.259 . S
O99 Tb80 2.418 . S
O99 C82 1.265 . S
O100 Tb80 2.384 . S
O100 C83 1.255 . S
O101 Eu81 2.366 . S
O101 C83 1.265 . S
C102 O93 1.255 . S
C102 O94 1.265 . S
O103 Tb80 2.479 . S
O103 C90 1.238 . S
O104 Tb80 2.471 . S
O104 C90 1.247 . S
C105 C108 1.380 . S
C105 C109 1.374 . S
C105 C111 1.507 . S
C106 C107 1.387 . S
C106 C110 1.391 . S
C107 C106 1.387 . S
C107 C108 1.384 . S
C107 H116 0.930 . S
C108 C105 1.380 . S
C108 C107 1.384 . S
C108 H117 0.931 . S
C109 C105 1.374 . S
C109 C110 1.390 . S
C109 H118 0.930 . S
C110 C106 1.391 . S
C110 C109 1.390 . S
C110 H119 0.930 . S
C111 Eu81 2.825 1_556 S
C111 O96 1.238 . S
C111 O97 1.247 . S
C111 C105 1.507 . S
H112 C85 0.930 . S
H113 C86 0.931 . S
H114 C87 0.930 . S
H115 C88 0.930 . S
H116 C107 0.930 . S
H117 C108 0.931 . S
H118 C109 0.930 . S
H119 C110 0.930 . S
Tb120 C130 2.825 1_556 S
Tb120 O131 2.347 . S
Tb120 O134 2.366 . S
Tb120 O139 2.418 . S
Tb120 O140 2.384 . S
Tb120 O143 2.479 1_556 S
Tb120 O144 2.471 1_556 S
Eu121 O132 2.418 . S
Eu121 O133 2.384 . S
Eu121 O136 2.479 . S
Eu121 O137 2.471 . S
Eu121 O138 2.347 . S
Eu121 O141 2.366 . S
Eu121 C151 2.825 . S
C122 O138 1.259 . S
C122 O139 1.265 . S
C123 O140 1.255 . S
C123 O141 1.265 . S
C124 C126 1.380 . S
C124 C127 1.374 . S
C124 C130 1.507 . S
C125 C126 1.384 . S
C125 C129 1.387 . S
C125 H152 0.930 . S
C126 C124 1.380 . S
C126 C125 1.384 . S
C126 H153 0.931 . S
C127 C124 1.374 . S
C127 C128 1.390 . S
C127 H154 0.930 . S
C128 C127 1.390 . S
C128 C129 1.391 . S
C128 H155 0.930 . S
C129 C125 1.387 . S
C129 C128 1.391 . S
C130 Tb120 2.825 1_554 S
C130 C124 1.507 . S
C130 O143 1.238 . S
C130 O144 1.247 . S
O131 Tb120 2.347 . S
O131 C135 1.259 . S
O132 Eu121 2.418 . S
O132 C135 1.265 . S
O133 Eu121 2.384 . S
O133 C142 1.255 . S
O134 Tb120 2.366 . S
O134 C142 1.265 . S
C135 O131 1.259 . S
C135 O132 1.265 . S
O136 Eu121 2.479 . S
O136 C151 1.238 . S
O137 Eu121 2.471 . S
O137 C151 1.247 . S
O138 Eu121 2.347 . S
O138 C122 1.259 . S
O139 Tb120 2.418 . S
O139 C122 1.265 . S
O140 Tb120 2.384 . S
O140 C123 1.255 . S
O141 Eu121 2.366 . S
O141 C123 1.265 . S
C142 O133 1.255 . S
C142 O134 1.265 . S
O143 Tb120 2.479 1_554 S
O143 C130 1.238 . S
O144 Tb120 2.471 1_554 S
O144 C130 1.247 . S
C145 C148 1.380 . S
C145 C149 1.374 . S
C145 C151 1.507 . S
C146 C147 1.387 . S
C146 C150 1.391 . S
C147 C146 1.387 . S
C147 C148 1.384 . S
C147 H156 0.930 . S
C148 C145 1.380 . S
C148 C147 1.384 . S
C148 H157 0.931 . S
C149 C145 1.374 . S
C149 C150 1.390 . S
C149 H158 0.930 . S
C150 C146 1.391 . S
C150 C149 1.390 . S
C150 H159 0.930 . S
C151 Eu121 2.825 . S
C151 O136 1.238 . S
C151 O137 1.247 . S
C151 C145 1.507 . S
H152 C125 0.930 . S
H153 C126 0.931 . S
H154 C127 0.930 . S
H155 C128 0.930 . S
H156 C147 0.930 . S
H157 C148 0.931 . S
H158 C149 0.930 . S
H159 C150 0.930 . S
Tb160 C170 2.825 1_554 S
Tb160 O171 2.347 . S
Tb160 O174 2.366 . S
Tb160 O179 2.418 . S
Tb160 O180 2.384 . S
Tb160 O183 2.479 1_554 S
Tb160 O184 2.471 1_554 S
Eu161 O172 2.418 . S
Eu161 O173 2.384 . S
Eu161 O176 2.479 . S
Eu161 O177 2.471 . S
Eu161 O178 2.347 . S
Eu161 O181 2.366 . S
Eu161 C191 2.825 . S
C162 O178 1.259 . S
C162 O179 1.265 . S
C163 O180 1.255 . S
C163 O181 1.265 . S
C164 C166 1.380 . S
C164 C167 1.374 . S
C164 C170 1.507 . S
C165 C166 1.384 . S
C165 C169 1.387 . S
C165 H192 0.930 . S
C166 C164 1.380 . S
C166 C165 1.384 . S
C166 H193 0.931 . S
C167 C164 1.374 . S
C167 C168 1.390 . S
C167 H194 0.930 . S
C168 C167 1.390 . S
C168 C169 1.391 . S
C168 H195 0.930 . S
C169 C165 1.387 . S
C169 C168 1.391 . S
C170 Tb160 2.825 1_556 S
C170 C164 1.507 . S
C170 O183 1.238 . S
C170 O184 1.247 . S
O171 Tb160 2.347 . S
O171 C175 1.259 . S
O172 Eu161 2.418 . S
O172 C175 1.265 . S
O173 Eu161 2.384 . S
O173 C182 1.255 . S
O174 Tb160 2.366 . S
O174 C182 1.265 . S
C175 O171 1.259 . S
C175 O172 1.265 . S
O176 Eu161 2.479 . S
O176 C191 1.238 . S
O177 Eu161 2.471 . S
O177 C191 1.247 . S
O178 Eu161 2.347 . S
O178 C162 1.259 . S
O179 Tb160 2.418 . S
O179 C162 1.265 . S
O180 Tb160 2.384 . S
O180 C163 1.255 . S
O181 Eu161 2.366 . S
O181 C163 1.265 . S
C182 O173 1.255 . S
C182 O174 1.265 . S
O183 Tb160 2.479 1_556 S
O183 C170 1.238 . S
O184 Tb160 2.471 1_556 S
O184 C170 1.247 . S
C185 C188 1.380 . S
C185 C189 1.374 . S
C185 C191 1.507 . S
C186 C187 1.387 . S
C186 C190 1.391 . S
C187 C186 1.387 . S
C187 C188 1.384 . S
C187 H196 0.930 . S
C188 C185 1.380 . S
C188 C187 1.384 . S
C188 H197 0.931 . S
C189 C185 1.374 . S
C189 C190 1.390 . S
C189 H198 0.930 . S
C190 C186 1.391 . S
C190 C189 1.390 . S
C190 H199 0.930 . S
C191 Eu161 2.825 . S
C191 O176 1.238 . S
C191 O177 1.247 . S
C191 C185 1.507 . S
H192 C165 0.930 . S
H193 C166 0.931 . S
H194 C167 0.930 . S
H195 C168 0.930 . S
H196 C187 0.930 . S
H197 C188 0.931 . S
H198 C189 0.930 . S
H199 C190 0.930 . S
Tb200 C210 2.825 . S
Tb200 O211 2.347 . S
Tb200 O214 2.366 . S
Tb200 O219 2.418 . S
Tb200 O220 2.384 . S
Tb200 O223 2.479 . S
Tb200 O224 2.471 . S
Eu201 O212 2.418 . S
Eu201 O213 2.384 . S
Eu201 O216 2.479 1_556 S
Eu201 O217 2.471 1_556 S
Eu201 O218 2.347 . S
Eu201 O221 2.366 . S
Eu201 C231 2.825 1_556 S
C202 O218 1.259 . S
C202 O219 1.265 . S
C203 O220 1.255 . S
C203 O221 1.265 . S
C204 C206 1.380 . S
C204 C207 1.374 . S
C204 C210 1.507 . S
C205 C206 1.384 . S
C205 C209 1.387 . S
C205 H232 0.930 . S
C206 C204 1.380 . S
C206 C205 1.384 . S
C206 H233 0.931 . S
C207 C204 1.374 . S
C207 C208 1.390 . S
C207 H234 0.930 . S
C208 C207 1.390 . S
C208 C209 1.391 . S
C208 H235 0.930 . S
C209 C205 1.387 . S
C209 C208 1.391 . S
C210 Tb200 2.825 . S
C210 C204 1.507 . S
C210 O223 1.238 . S
C210 O224 1.247 . S
O211 Tb200 2.347 . S
O211 C215 1.259 . S
O212 Eu201 2.418 . S
O212 C215 1.265 . S
O213 Eu201 2.384 . S
O213 C222 1.255 . S
O214 Tb200 2.366 . S
O214 C222 1.265 . S
C215 O211 1.259 . S
C215 O212 1.265 . S
O216 Eu201 2.479 1_554 S
O216 C231 1.238 . S
O217 Eu201 2.471 1_554 S
O217 C231 1.247 . S
O218 Eu201 2.347 . S
O218 C202 1.259 . S
O219 Tb200 2.418 . S
O219 C202 1.265 . S
O220 Tb200 2.384 . S
O220 C203 1.255 . S
O221 Eu201 2.366 . S
O221 C203 1.265 . S
C222 O213 1.255 . S
C222 O214 1.265 . S
O223 Tb200 2.479 . S
O223 C210 1.238 . S
O224 Tb200 2.471 . S
O224 C210 1.247 . S
C225 C228 1.380 . S
C225 C229 1.374 . S
C225 C231 1.507 . S
C226 C227 1.387 . S
C226 C230 1.391 . S
C227 C226 1.387 . S
C227 C228 1.384 . S
C227 H236 0.930 . S
C228 C225 1.380 . S
C228 C227 1.384 . S
C228 H237 0.931 . S
C229 C225 1.374 . S
C229 C230 1.390 . S
C229 H238 0.930 . S
C230 C226 1.391 . S
C230 C229 1.390 . S
C230 H239 0.930 . S
C231 Eu201 2.825 1_554 S
C231 O216 1.238 . S
C231 O217 1.247 . S
C231 C225 1.507 . S
H232 C205 0.930 . S
H233 C206 0.931 . S
H234 C207 0.930 . S
H235 C208 0.930 . S
H236 C227 0.930 . S
H237 C228 0.931 . S
H238 C229 0.930 . S
H239 C230 0.930 . S
Tb240 C250 2.825 1_554 S
Tb240 O251 2.347 . S
Tb240 O254 2.366 . S
Tb240 O259 2.418 . S
Tb240 O260 2.384 . S
Tb240 O263 2.479 1_554 S
Tb240 O264 2.471 1_554 S
Eu241 O252 2.418 . S
Eu241 O253 2.384 . S
Eu241 O256 2.479 . S
Eu241 O257 2.471 . S
Eu241 O258 2.347 . S
Eu241 O261 2.366 . S
Eu241 C271 2.825 . S
C242 O258 1.259 . S
C242 O259 1.265 . S
C243 O260 1.255 . S
C243 O261 1.265 . S
C244 C246 1.380 . S
C244 C247 1.374 . S
C244 C250 1.507 . S
C245 C246 1.384 . S
C245 C249 1.387 . S
C245 H272 0.930 . S
C246 C244 1.380 . S
C246 C245 1.384 . S
C246 H273 0.931 . S
C247 C244 1.374 . S
C247 C248 1.390 . S
C247 H274 0.930 . S
C248 C247 1.390 . S
C248 C249 1.391 . S
C248 H275 0.930 . S
C249 C245 1.387 . S
C249 C248 1.391 . S
C250 Tb240 2.825 1_556 S
C250 C244 1.507 . S
C250 O263 1.238 . S
C250 O264 1.247 . S
O251 Tb240 2.347 . S
O251 C255 1.259 . S
O252 Eu241 2.418 . S
O252 C255 1.265 . S
O253 Eu241 2.384 . S
O253 C262 1.255 . S
O254 Tb240 2.366 . S
O254 C262 1.265 . S
C255 O251 1.259 . S
C255 O252 1.265 . S
O256 Eu241 2.479 . S
O256 C271 1.238 . S
O257 Eu241 2.471 . S
O257 C271 1.247 . S
O258 Eu241 2.347 . S
O258 C242 1.259 . S
O259 Tb240 2.418 . S
O259 C242 1.265 . S
O260 Tb240 2.384 . S
O260 C243 1.255 . S
O261 Eu241 2.366 . S
O261 C243 1.265 . S
C262 O253 1.255 . S
C262 O254 1.265 . S
O263 Tb240 2.479 1_556 S
O263 C250 1.238 . S
O264 Tb240 2.471 1_556 S
O264 C250 1.247 . S
C265 C268 1.380 . S
C265 C269 1.374 . S
C265 C271 1.507 . S
C266 C267 1.387 . S
C266 C270 1.391 . S
C267 C266 1.387 . S
C267 C268 1.384 . S
C267 H276 0.930 . S
C268 C265 1.380 . S
C268 C267 1.384 . S
C268 H277 0.931 . S
C269 C265 1.374 . S
C269 C270 1.390 . S
C269 H278 0.930 . S
C270 C266 1.391 . S
C270 C269 1.390 . S
C270 H279 0.930 . S
C271 Eu241 2.825 . S
C271 O256 1.238 . S
C271 O257 1.247 . S
C271 C265 1.507 . S
H272 C245 0.930 . S
H273 C246 0.931 . S
H274 C247 0.930 . S
H275 C248 0.930 . S
H276 C267 0.930 . S
H277 C268 0.931 . S
H278 C269 0.930 . S
H279 C270 0.930 . S
Tb280 C290 2.825 . S
Tb280 O291 2.347 . S
Tb280 O294 2.366 . S
Tb280 O299 2.418 . S
Tb280 O300 2.384 . S
Tb280 O303 2.479 . S
Tb280 O304 2.471 . S
Eu281 O292 2.418 . S
Eu281 O293 2.384 . S
Eu281 O296 2.479 1_556 S
Eu281 O297 2.471 1_556 S
Eu281 O298 2.347 . S
Eu281 O301 2.366 . S
Eu281 C311 2.825 1_556 S
C282 O298 1.259 . S
C282 O299 1.265 . S
C283 O300 1.255 . S
C283 O301 1.265 . S
C284 C286 1.380 . S
C284 C287 1.374 . S
C284 C290 1.507 . S
C285 C286 1.384 . S
C285 C289 1.387 . S
C285 H312 0.930 . S
C286 C284 1.380 . S
C286 C285 1.384 . S
C286 H313 0.931 . S
C287 C284 1.374 . S
C287 C288 1.390 . S
C287 H314 0.930 . S
C288 C287 1.390 . S
C288 C289 1.391 . S
C288 H315 0.930 . S
C289 C285 1.387 . S
C289 C288 1.391 . S
C290 Tb280 2.825 . S
C290 C284 1.507 . S
C290 O303 1.238 . S
C290 O304 1.247 . S
O291 Tb280 2.347 . S
O291 C295 1.259 . S
O292 Eu281 2.418 . S
O292 C295 1.265 . S
O293 Eu281 2.384 . S
O293 C302 1.255 . S
O294 Tb280 2.366 . S
O294 C302 1.265 . S
C295 O291 1.259 . S
C295 O292 1.265 . S
O296 Eu281 2.479 1_554 S
O296 C311 1.238 . S
O297 Eu281 2.471 1_554 S
O297 C311 1.247 . S
O298 Eu281 2.347 . S
O298 C282 1.259 . S
O299 Tb280 2.418 . S
O299 C282 1.265 . S
O300 Tb280 2.384 . S
O300 C283 1.255 . S
O301 Eu281 2.366 . S
O301 C283 1.265 . S
C302 O293 1.255 . S
C302 O294 1.265 . S
O303 Tb280 2.479 . S
O303 C290 1.238 . S
O304 Tb280 2.471 . S
O304 C290 1.247 . S
C305 C308 1.380 . S
C305 C309 1.374 . S
C305 C311 1.507 . S
C306 C307 1.387 . S
C306 C310 1.391 . S
C307 C306 1.387 . S
C307 C308 1.384 . S
C307 H316 0.930 . S
C308 C305 1.380 . S
C308 C307 1.384 . S
C308 H317 0.931 . S
C309 C305 1.374 . S
C309 C310 1.390 . S
C309 H318 0.930 . S
C310 C306 1.391 . S
C310 C309 1.390 . S
C310 H319 0.930 . S
C311 Eu281 2.825 1_554 S
C311 O296 1.238 . S
C311 O297 1.247 . S
C311 C305 1.507 . S
H312 C285 0.930 . S
H313 C286 0.931 . S
H314 C287 0.930 . S
H315 C288 0.930 . S
H316 C307 0.930 . S
H317 C308 0.931 . S
H318 C309 0.930 . S
H319 C310 0.930 . S
Tb320 C330 2.825 . S
Tb320 O331 2.347 . S
Tb320 O334 2.366 . S
Tb320 O339 2.418 . S
Tb320 O340 2.384 . S
Tb320 O343 2.479 . S
Tb320 O344 2.471 . S
Eu321 O332 2.418 . S
Eu321 O333 2.384 . S
Eu321 O336 2.479 . S
Eu321 O337 2.471 . S
Eu321 O338 2.347 . S
Eu321 O341 2.366 . S
Eu321 C351 2.825 . S
C322 O338 1.259 . S
C322 O339 1.265 . S
C323 O340 1.255 . S
C323 O341 1.265 . S
C324 C326 1.380 . S
C324 C327 1.374 . S
C324 C330 1.507 . S
C325 C326 1.384 . S
C325 C329 1.387 1_556 S
C325 H352 0.930 1_556 S
C326 C324 1.380 . S
C326 C325 1.384 . S
C326 H353 0.931 . S
C327 C324 1.374 . S
C327 C328 1.390 . S
C327 H354 0.930 . S
C328 C327 1.390 . S
C328 C329 1.391 1_556 S
C328 H355 0.927 1_556 S
C329 C325 1.387 1_554 S
C329 C328 1.391 1_554 S
C330 Tb320 2.825 . S
C330 C324 1.507 . S
C330 O343 1.238 . S
C330 O344 1.247 . S
O331 Tb320 2.347 . S
O331 C335 1.259 . S
O332 Eu321 2.418 . S
O332 C335 1.265 . S
O333 Eu321 2.384 . S
O333 C342 1.255 . S
O334 Tb320 2.366 . S
O334 C342 1.265 . S
C335 O331 1.259 . S
C335 O332 1.265 . S
O336 Eu321 2.479 . S
O336 C351 1.238 . S
O337 Eu321 2.471 . S
O337 C351 1.247 . S
O338 Eu321 2.347 . S
O338 C322 1.259 . S
O339 Tb320 2.418 . S
O339 C322 1.265 . S
O340 Tb320 2.384 . S
O340 C323 1.255 . S
O341 Eu321 2.366 . S
O341 C323 1.265 . S
C342 O333 1.255 . S
C342 O334 1.265 . S
O343 Tb320 2.479 . S
O343 C330 1.238 . S
O344 Tb320 2.471 . S
O344 C330 1.247 . S
C345 C348 1.380 . S
C345 C349 1.374 . S
C345 C351 1.507 . S
C346 C347 1.387 . S
C346 C350 1.391 . S
C347 C346 1.387 . S
C347 C348 1.384 . S
C347 H356 0.930 . S
C348 C345 1.380 . S
C348 C347 1.384 . S
C348 H357 0.931 . S
C349 C345 1.374 . S
C349 C350 1.390 . S
C349 H358 0.930 . S
C350 C346 1.391 . S
C350 C349 1.390 . S
C350 H359 0.930 . S
C351 Eu321 2.825 . S
C351 O336 1.238 . S
C351 O337 1.247 . S
C351 C345 1.507 . S
H352 C325 0.930 1_554 S
H353 C326 0.931 . S
H354 C327 0.930 . S
H355 C328 0.927 1_554 S
H356 C347 0.930 . S
H357 C348 0.931 . S
H358 C349 0.930 . S
H359 C350 0.930 . S
Tb360 C370 2.825 . S
Tb360 O371 2.347 . S
Tb360 O374 2.366 . S
Tb360 O379 2.418 . S
Tb360 O380 2.384 . S
Tb360 O383 2.479 . S
Tb360 O384 2.471 . S
Eu361 O372 2.418 . S
Eu361 O373 2.384 . S
Eu361 O376 2.479 . S
Eu361 O377 2.471 . S
Eu361 O378 2.347 . S
Eu361 O381 2.366 . S
Eu361 C391 2.825 . S
C362 O378 1.259 . S
C362 O379 1.265 . S
C363 O380 1.255 . S
C363 O381 1.265 . S
C364 C366 1.380 . S
C364 C367 1.374 . S
C364 C370 1.507 . S
C365 C366 1.384 . S
C365 C369 1.387 . S
C365 H392 0.930 . S
C366 C364 1.380 . S
C366 C365 1.384 . S
C366 H393 0.931 . S
C367 C364 1.374 . S
C367 C368 1.390 . S
C367 H394 0.930 . S
C368 C367 1.390 . S
C368 C369 1.391 . S
C368 H395 0.930 . S
C369 C365 1.387 . S
C369 C368 1.391 . S
C370 Tb360 2.825 . S
C370 C364 1.507 . S
C370 O383 1.238 . S
C370 O384 1.247 . S
O371 Tb360 2.347 . S
O371 C375 1.259 . S
O372 Eu361 2.418 . S
O372 C375 1.265 . S
O373 Eu361 2.384 . S
O373 C382 1.255 . S
O374 Tb360 2.366 . S
O374 C382 1.265 . S
C375 O371 1.259 . S
C375 O372 1.265 . S
O376 Eu361 2.479 . S
O376 C391 1.238 . S
O377 Eu361 2.471 . S
O377 C391 1.247 . S
O378 Eu361 2.347 . S
O378 C362 1.259 . S
O379 Tb360 2.418 . S
O379 C362 1.265 . S
O380 Tb360 2.384 . S
O380 C363 1.255 . S
O381 Eu361 2.366 . S
O381 C363 1.265 . S
C382 O373 1.255 . S
C382 O374 1.265 . S
O383 Tb360 2.479 . S
O383 C370 1.238 . S
O384 Tb360 2.471 . S
O384 C370 1.247 . S
C385 C388 1.380 . S
C385 C389 1.374 . S
C385 C391 1.507 . S
C386 C387 1.387 1_556 S
C386 C390 1.391 1_556 S
C387 C386 1.387 1_554 S
C387 C388 1.384 . S
C387 H396 0.930 1_554 S
C388 C385 1.380 . S
C388 C387 1.384 . S
C388 H397 0.931 . S
C389 C385 1.374 . S
C389 C390 1.390 . S
C389 H398 0.930 . S
C390 C386 1.391 1_554 S
C390 C389 1.390 . S
C390 H399 0.927 1_554 S
C391 Eu361 2.825 . S
C391 O376 1.238 . S
C391 O377 1.247 . S
C391 C385 1.507 . S
H392 C365 0.930 . S
H393 C366 0.931 . S
H394 C367 0.930 . S
H395 C368 0.930 . S
H396 C387 0.930 1_556 S
H397 C388 0.931 . S
H398 C389 0.930 . S
H399 C390 0.927 1_556 S
Tb400 C410 2.825 . S
Tb400 O411 2.347 . S
Tb400 O414 2.366 . S
Tb400 O419 2.418 . S
Tb400 O420 2.384 . S
Tb400 O423 2.479 . S
Tb400 O424 2.471 . S
Eu401 O412 2.418 . S
Eu401 O413 2.384 . S
Eu401 O416 2.479 . S
Eu401 O417 2.471 . S
Eu401 O418 2.347 . S
Eu401 O421 2.366 . S
Eu401 C431 2.825 . S
C402 O418 1.259 . S
C402 O419 1.265 . S
C403 O420 1.255 . S
C403 O421 1.265 . S
C404 C406 1.380 . S
C404 C407 1.374 . S
C404 C410 1.507 . S
C405 C406 1.384 . S
C405 C409 1.387 1_556 S
C405 H432 0.930 1_556 S
C406 C404 1.380 . S
C406 C405 1.384 . S
C406 H433 0.931 . S
C407 C404 1.374 . S
C407 C408 1.390 . S
C407 H434 0.930 . S
C408 C407 1.390 . S
C408 C409 1.391 1_556 S
C408 H435 0.927 1_556 S
C409 C405 1.387 1_554 S
C409 C408 1.391 1_554 S
C410 Tb400 2.825 . S
C410 C404 1.507 . S
C410 O423 1.238 . S
C410 O424 1.247 . S
O411 Tb400 2.347 . S
O411 C415 1.259 . S
O412 Eu401 2.418 . S
O412 C415 1.265 . S
O413 Eu401 2.384 . S
O413 C422 1.255 . S
O414 Tb400 2.366 . S
O414 C422 1.265 . S
C415 O411 1.259 . S
C415 O412 1.265 . S
O416 Eu401 2.479 . S
O416 C431 1.238 . S
O417 Eu401 2.471 . S
O417 C431 1.247 . S
O418 Eu401 2.347 . S
O418 C402 1.259 . S
O419 Tb400 2.418 . S
O419 C402 1.265 . S
O420 Tb400 2.384 . S
O420 C403 1.255 . S
O421 Eu401 2.366 . S
O421 C403 1.265 . S
C422 O413 1.255 . S
C422 O414 1.265 . S
O423 Tb400 2.479 . S
O423 C410 1.238 . S
O424 Tb400 2.471 . S
O424 C410 1.247 . S
C425 C428 1.380 . S
C425 C429 1.374 . S
C425 C431 1.507 . S
C426 C427 1.387 . S
C426 C430 1.391 . S
C427 C426 1.387 . S
C427 C428 1.384 . S
C427 H436 0.930 . S
C428 C425 1.380 . S
C428 C427 1.384 . S
C428 H437 0.931 . S
C429 C425 1.374 . S
C429 C430 1.390 . S
C429 H438 0.930 . S
C430 C426 1.391 . S
C430 C429 1.390 . S
C430 H439 0.930 . S
C431 Eu401 2.825 . S
C431 O416 1.238 . S
C431 O417 1.247 . S
C431 C425 1.507 . S
H432 C405 0.930 1_554 S
H433 C406 0.931 . S
H434 C407 0.930 . S
H435 C408 0.927 1_554 S
H436 C427 0.930 . S
H437 C428 0.931 . S
H438 C429 0.930 . S
H439 C430 0.930 . S
Tb440 C450 2.825 . S
Tb440 O451 2.347 . S
Tb440 O454 2.366 . S
Tb440 O459 2.418 . S
Tb440 O460 2.384 . S
Tb440 O463 2.479 . S
Tb440 O464 2.471 . S
Eu441 O452 2.418 . S
Eu441 O453 2.384 . S
Eu441 O456 2.479 . S
Eu441 O457 2.471 . S
Eu441 O458 2.347 . S
Eu441 O461 2.366 . S
Eu441 C471 2.825 . S
C442 O458 1.259 . S
C442 O459 1.265 . S
C443 O460 1.255 . S
C443 O461 1.265 . S
C444 C446 1.380 . S
C444 C447 1.374 . S
C444 C450 1.507 . S
C445 C446 1.384 . S
C445 C449 1.387 . S
C445 H472 0.930 . S
C446 C444 1.380 . S
C446 C445 1.384 . S
C446 H473 0.931 . S
C447 C444 1.374 . S
C447 C448 1.390 . S
C447 H474 0.930 . S
C448 C447 1.390 . S
C448 C449 1.391 . S
C448 H475 0.930 . S
C449 C445 1.387 . S
C449 C448 1.391 . S
C450 Tb440 2.825 . S
C450 C444 1.507 . S
C450 O463 1.238 . S
C450 O464 1.247 . S
O451 Tb440 2.347 . S
O451 C455 1.259 . S
O452 Eu441 2.418 . S
O452 C455 1.265 . S
O453 Eu441 2.384 . S
O453 C462 1.255 . S
O454 Tb440 2.366 . S
O454 C462 1.265 . S
C455 O451 1.259 . S
C455 O452 1.265 . S
O456 Eu441 2.479 . S
O456 C471 1.238 . S
O457 Eu441 2.471 . S
O457 C471 1.247 . S
O458 Eu441 2.347 . S
O458 C442 1.259 . S
O459 Tb440 2.418 . S
O459 C442 1.265 . S
O460 Tb440 2.384 . S
O460 C443 1.255 . S
O461 Eu441 2.366 . S
O461 C443 1.265 . S
C462 O453 1.255 . S
C462 O454 1.265 . S
O463 Tb440 2.479 . S
O463 C450 1.238 . S
O464 Tb440 2.471 . S
O464 C450 1.247 . S
C465 C468 1.380 . S
C465 C469 1.374 . S
C465 C471 1.507 . S
C466 C467 1.387 1_556 S
C466 C470 1.391 1_556 S
C467 C466 1.387 1_554 S
C467 C468 1.384 . S
C467 H476 0.930 1_554 S
C468 C465 1.380 . S
C468 C467 1.384 . S
C468 H477 0.931 . S
C469 C465 1.374 . S
C469 C470 1.390 . S
C469 H478 0.930 . S
C470 C466 1.391 1_554 S
C470 C469 1.390 . S
C470 H479 0.927 1_554 S
C471 Eu441 2.825 . S
C471 O456 1.238 . S
C471 O457 1.247 . S
C471 C465 1.507 . S
H472 C445 0.930 . S
H473 C446 0.931 . S
H474 C447 0.930 . S
H475 C448 0.930 . S
H476 C467 0.930 1_556 S
H477 C468 0.931 . S
H478 C469 0.930 . S
H479 C470 0.927 1_556 S
Tb480 C490 2.825 . S
Tb480 O491 2.347 . S
Tb480 O494 2.366 . S
Tb480 O499 2.418 . S
Tb480 O500 2.384 . S
Tb480 O503 2.479 . S
Tb480 O504 2.471 . S
Eu481 O492 2.418 . S
Eu481 O493 2.384 . S
Eu481 O496 2.479 . S
Eu481 O497 2.471 . S
Eu481 O498 2.347 . S
Eu481 O501 2.366 . S
Eu481 C511 2.825 . S
C482 O498 1.259 . S
C482 O499 1.265 . S
C483 O500 1.255 . S
C483 O501 1.265 . S
C484 C486 1.380 . S
C484 C487 1.374 . S
C484 C490 1.507 . S
C485 C486 1.384 . S
C485 C489 1.387 . S
C485 H512 0.930 . S
C486 C484 1.380 . S
C486 C485 1.384 . S
C486 H513 0.931 . S
C487 C484 1.374 . S
C487 C488 1.390 . S
C487 H514 0.930 . S
C488 C487 1.390 . S
C488 C489 1.391 . S
C488 H515 0.930 . S
C489 C485 1.387 . S
C489 C488 1.391 . S
C490 Tb480 2.825 . S
C490 C484 1.507 . S
C490 O503 1.238 . S
C490 O504 1.247 . S
O491 Tb480 2.347 . S
O491 C495 1.259 . S
O492 Eu481 2.418 . S
O492 C495 1.265 . S
O493 Eu481 2.384 . S
O493 C502 1.255 . S
O494 Tb480 2.366 . S
O494 C502 1.265 . S
C495 O491 1.259 . S
C495 O492 1.265 . S
O496 Eu481 2.479 . S
O496 C511 1.238 . S
O497 Eu481 2.471 . S
O497 C511 1.247 . S
O498 Eu481 2.347 . S
O498 C482 1.259 . S
O499 Tb480 2.418 . S
O499 C482 1.265 . S
O500 Tb480 2.384 . S
O500 C483 1.255 . S
O501 Eu481 2.366 . S
O501 C483 1.265 . S
C502 O493 1.255 . S
C502 O494 1.265 . S
O503 Tb480 2.479 . S
O503 C490 1.238 . S
O504 Tb480 2.471 . S
O504 C490 1.247 . S
C505 C508 1.380 . S
C505 C509 1.374 . S
C505 C511 1.507 . S
C506 C507 1.387 1_554 S
C506 C510 1.391 1_554 S
C507 C506 1.387 1_556 S
C507 C508 1.384 . S
C507 H516 0.930 1_556 S
C508 C505 1.380 . S
C508 C507 1.384 . S
C508 H517 0.931 . S
C509 C505 1.374 . S
C509 C510 1.390 . S
C509 H518 0.930 . S
C510 C506 1.391 1_556 S
C510 C509 1.390 . S
C510 H519 0.930 . S
C511 Eu481 2.825 . S
C511 O496 1.238 . S
C511 O497 1.247 . S
C511 C505 1.507 . S
H512 C485 0.930 . S
H513 C486 0.931 . S
H514 C487 0.930 . S
H515 C488 0.930 . S
H516 C507 0.930 1_554 S
H517 C508 0.931 . S
H518 C509 0.930 . S
H519 C510 0.930 . S
Tb520 C530 2.825 . S
Tb520 O531 2.347 . S
Tb520 O534 2.366 . S
Tb520 O539 2.418 . S
Tb520 O540 2.384 . S
Tb520 O543 2.479 . S
Tb520 O544 2.471 . S
Eu521 O532 2.418 . S
Eu521 O533 2.384 . S
Eu521 O536 2.479 . S
Eu521 O537 2.471 . S
Eu521 O538 2.347 . S
Eu521 O541 2.366 . S
Eu521 C551 2.825 . S
C522 O538 1.259 . S
C522 O539 1.265 . S
C523 O540 1.255 . S
C523 O541 1.265 . S
C524 C526 1.380 . S
C524 C527 1.374 . S
C524 C530 1.507 . S
C525 C526 1.384 . S
C525 C529 1.387 1_554 S
C525 H552 0.930 1_554 S
C526 C524 1.380 . S
C526 C525 1.384 . S
C526 H553 0.931 . S
C527 C524 1.374 . S
C527 C528 1.390 . S
C527 H554 0.930 . S
C528 C527 1.390 . S
C528 C529 1.391 1_554 S
C528 H555 0.930 . S
C529 C525 1.387 1_556 S
C529 C528 1.391 1_556 S
C530 Tb520 2.825 . S
C530 C524 1.507 . S
C530 O543 1.238 . S
C530 O544 1.247 . S
O531 Tb520 2.347 . S
O531 C535 1.259 . S
O532 Eu521 2.418 . S
O532 C535 1.265 . S
O533 Eu521 2.384 . S
O533 C542 1.255 . S
O534 Tb520 2.366 . S
O534 C542 1.265 . S
C535 O531 1.259 . S
C535 O532 1.265 . S
O536 Eu521 2.479 . S
O536 C551 1.238 . S
O537 Eu521 2.471 . S
O537 C551 1.247 . S
O538 Eu521 2.347 . S
O538 C522 1.259 . S
O539 Tb520 2.418 . S
O539 C522 1.265 . S
O540 Tb520 2.384 . S
O540 C523 1.255 . S
O541 Eu521 2.366 . S
O541 C523 1.265 . S
C542 O533 1.255 . S
C542 O534 1.265 . S
O543 Tb520 2.479 . S
O543 C530 1.238 . S
O544 Tb520 2.471 . S
O544 C530 1.247 . S
C545 C548 1.380 . S
C545 C549 1.374 . S
C545 C551 1.507 . S
C546 C547 1.387 . S
C546 C550 1.391 . S
C547 C546 1.387 . S
C547 C548 1.384 . S
C547 H556 0.930 . S
C548 C545 1.380 . S
C548 C547 1.384 . S
C548 H557 0.931 . S
C549 C545 1.374 . S
C549 C550 1.390 . S
C549 H558 0.930 . S
C550 C546 1.391 . S
C550 C549 1.390 . S
C550 H559 0.930 . S
C551 Eu521 2.825 . S
C551 O536 1.238 . S
C551 O537 1.247 . S
C551 C545 1.507 . S
H552 C525 0.930 1_556 S
H553 C526 0.931 . S
H554 C527 0.930 . S
H555 C528 0.930 . S
H556 C547 0.930 . S
H557 C548 0.931 . S
H558 C549 0.930 . S
H559 C550 0.930 . S
Tb560 C570 2.825 . S
Tb560 O571 2.347 . S
Tb560 O574 2.366 . S
Tb560 O579 2.418 . S
Tb560 O580 2.384 . S
Tb560 O583 2.479 . S
Tb560 O584 2.471 . S
Eu561 O572 2.418 . S
Eu561 O573 2.384 . S
Eu561 O576 2.479 . S
Eu561 O577 2.471 . S
Eu561 O578 2.347 . S
Eu561 O581 2.366 . S
Eu561 C591 2.825 . S
C562 O578 1.259 . S
C562 O579 1.265 . S
C563 O580 1.255 . S
C563 O581 1.265 . S
C564 C566 1.380 . S
C564 C567 1.374 . S
C564 C570 1.507 . S
C565 C566 1.384 . S
C565 C569 1.387 . S
C565 H592 0.930 . S
C566 C564 1.380 . S
C566 C565 1.384 . S
C566 H593 0.931 . S
C567 C564 1.374 . S
C567 C568 1.390 . S
C567 H594 0.930 . S
C568 C567 1.390 . S
C568 C569 1.391 . S
C568 H595 0.930 . S
C569 C565 1.387 . S
C569 C568 1.391 . S
C570 Tb560 2.825 . S
C570 C564 1.507 . S
C570 O583 1.238 . S
C570 O584 1.247 . S
O571 Tb560 2.347 . S
O571 C575 1.259 . S
O572 Eu561 2.418 . S
O572 C575 1.265 . S
O573 Eu561 2.384 . S
O573 C582 1.255 . S
O574 Tb560 2.366 . S
O574 C582 1.265 . S
C575 O571 1.259 . S
C575 O572 1.265 . S
O576 Eu561 2.479 . S
O576 C591 1.238 . S
O577 Eu561 2.471 . S
O577 C591 1.247 . S
O578 Eu561 2.347 . S
O578 C562 1.259 . S
O579 Tb560 2.418 . S
O579 C562 1.265 . S
O580 Tb560 2.384 . S
O580 C563 1.255 . S
O581 Eu561 2.366 . S
O581 C563 1.265 . S
C582 O573 1.255 . S
C582 O574 1.265 . S
O583 Tb560 2.479 . S
O583 C570 1.238 . S
O584 Tb560 2.471 . S
O584 C570 1.247 . S
C585 C588 1.380 . S
C585 C589 1.374 . S
C585 C591 1.507 . S
C586 C587 1.387 1_554 S
C586 C590 1.391 1_554 S
C587 C586 1.387 1_556 S
C587 C588 1.384 . S
C587 H596 0.930 1_556 S
C588 C585 1.380 . S
C588 C587 1.384 . S
C588 H597 0.931 . S
C589 C585 1.374 . S
C589 C590 1.390 . S
C589 H598 0.930 . S
C590 C586 1.391 1_556 S
C590 C589 1.390 . S
C590 H599 0.930 . S
C591 Eu561 2.825 . S
C591 O576 1.238 . S
C591 O577 1.247 . S
C591 C585 1.507 . S
H592 C565 0.930 . S
H593 C566 0.931 . S
H594 C567 0.930 . S
H595 C568 0.930 . S
H596 C587 0.930 1_554 S
H597 C588 0.931 . S
H598 C589 0.930 . S
H599 C590 0.930 . S
Tb600 C610 2.825 . S
Tb600 O611 2.347 . S
Tb600 O614 2.366 . S
Tb600 O619 2.418 . S
Tb600 O620 2.384 . S
Tb600 O623 2.479 . S
Tb600 O624 2.471 . S
Eu601 O612 2.418 . S
Eu601 O613 2.384 . S
Eu601 O616 2.479 . S
Eu601 O617 2.471 . S
Eu601 O618 2.347 . S
Eu601 O621 2.366 . S
Eu601 C631 2.825 . S
C602 O618 1.259 . S
C602 O619 1.265 . S
C603 O620 1.255 . S
C603 O621 1.265 . S
C604 C606 1.380 . S
C604 C607 1.374 . S
C604 C610 1.507 . S
C605 C606 1.384 . S
C605 C609 1.387 1_554 S
C605 H632 0.930 1_554 S
C606 C604 1.380 . S
C606 C605 1.384 . S
C606 H633 0.931 . S
C607 C604 1.374 . S
C607 C608 1.390 . S
C607 H634 0.930 . S
C608 C607 1.390 . S
C608 C609 1.391 1_554 S
C608 H635 0.930 . S
C609 C605 1.387 1_556 S
C609 C608 1.391 1_556 S
C610 Tb600 2.825 . S
C610 C604 1.507 . S
C610 O623 1.238 . S
C610 O624 1.247 . S
O611 Tb600 2.347 . S
O611 C615 1.259 . S
O612 Eu601 2.418 . S
O612 C615 1.265 . S
O613 Eu601 2.384 . S
O613 C622 1.255 . S
O614 Tb600 2.366 . S
O614 C622 1.265 . S
C615 O611 1.259 . S
C615 O612 1.265 . S
O616 Eu601 2.479 . S
O616 C631 1.238 . S
O617 Eu601 2.471 . S
O617 C631 1.247 . S
O618 Eu601 2.347 . S
O618 C602 1.259 . S
O619 Tb600 2.418 . S
O619 C602 1.265 . S
O620 Tb600 2.384 . S
O620 C603 1.255 . S
O621 Eu601 2.366 . S
O621 C603 1.265 . S
C622 O613 1.255 . S
C622 O614 1.265 . S
O623 Tb600 2.479 . S
O623 C610 1.238 . S
O624 Tb600 2.471 . S
O624 C610 1.247 . S
C625 C628 1.380 . S
C625 C629 1.374 . S
C625 C631 1.507 . S
C626 C627 1.387 . S
C626 C630 1.391 . S
C627 C626 1.387 . S
C627 C628 1.384 . S
C627 H636 0.930 . S
C628 C625 1.380 . S
C628 C627 1.384 . S
C628 H637 0.931 . S
C629 C625 1.374 . S
C629 C630 1.390 . S
C629 H638 0.930 . S
C630 C626 1.391 . S
C630 C629 1.390 . S
C630 H639 0.930 . S
C631 Eu601 2.825 . S
C631 O616 1.238 . S
C631 O617 1.247 . S
C631 C625 1.507 . S
H632 C605 0.930 1_556 S
H633 C606 0.931 . S
H634 C607 0.930 . S
H635 C608 0.930 . S
H636 C627 0.930 . S
H637 C628 0.931 . S
H638 C629 0.930 . S
H639 C630 0.930 . S
C640 C641 1.363 . S
C640 C646 1.379 . S
C640 N648 1.356 . S
C641 C640 1.363 . S
C641 C647 1.363 . S
C642 C643 1.363 . S
C642 C647 1.379 . S
C642 N649 1.356 . S
C643 C642 1.363 . S
C643 C646 1.363 . S
N644 C646 1.356 . S
N644 H656 0.984 . S
N644 H657 0.985 1_565 S
N645 C647 1.356 . S
N645 H650 0.984 . S
N645 H651 0.985 . S
C646 C640 1.379 . S
C646 C643 1.363 . S
C646 N644 1.356 . S
C647 C641 1.363 . S
C647 C642 1.379 . S
C647 N645 1.356 . S
N648 C640 1.356 . S
N648 H654 0.984 . S
N648 H655 0.984 . S
N649 C642 1.356 . S
N649 H652 0.984 1_565 S
N649 H653 0.985 . S
H650 N645 0.984 . S
H651 N645 0.985 . S
H652 N649 0.984 1_545 S
H653 N649 0.985 . S
H654 N648 0.984 . S
H655 N648 0.984 . S
H656 N644 0.984 . S
H657 N644 0.985 1_545 S
C658 C659 1.363 . S
C658 C664 1.379 . S
C658 N666 1.356 . S
C659 C658 1.363 . S
C659 C665 1.363 . S
C660 C661 1.363 . S
C660 C665 1.379 . S
C660 N667 1.356 . S
C661 C660 1.363 . S
C661 C664 1.363 . S
N662 C664 1.356 1_455 S
N662 H674 0.984 . S
N662 H675 0.985 . S
N663 C665 1.356 . S
N663 H668 0.984 . S
N663 H669 0.985 . S
C664 C658 1.379 . S
C664 C661 1.363 . S
C664 N662 1.356 1_655 S
C665 C659 1.363 . S
C665 C660 1.379 . S
C665 N663 1.356 . S
N666 C658 1.356 . S
N666 H672 0.984 . S
N666 H673 0.984 . S
N667 C660 1.356 . S
N667 H670 0.984 . S
N667 H671 0.985 . S
H668 N663 0.984 . S
H669 N663 0.985 . S
H670 N667 0.984 . S
H671 N667 0.985 . S
H672 N666 0.984 . S
H673 N666 0.984 . S
H674 N662 0.984 . S
H675 N662 0.985 . S
C676 C677 1.363 . S
C676 C682 1.379 . S
C676 N684 1.356 1_545 S
C677 C676 1.363 . S
C677 C683 1.363 . S
C678 C679 1.363 . S
C678 C683 1.379 . S
C678 N685 1.356 . S
C679 C678 1.363 . S
C679 C682 1.363 . S
N680 C682 1.356 . S
N680 H692 0.984 . S
N680 H693 0.985 . S
N681 C683 1.356 . S
N681 H686 0.984 . S
N681 H687 0.985 . S
C682 C676 1.379 . S
C682 C679 1.363 . S
C682 N680 1.356 . S
C683 C677 1.363 . S
C683 C678 1.379 . S
C683 N681 1.356 . S
N684 C676 1.356 1_565 S
N684 H690 0.984 . S
N684 H691 0.984 . S
N685 C678 1.356 . S
N685 H688 0.984 . S
N685 H689 0.985 . S
H686 N681 0.984 . S
H687 N681 0.985 . S
H688 N685 0.984 . S
H689 N685 0.985 . S
H690 N684 0.984 . S
H691 N684 0.984 . S
H692 N680 0.984 . S
H693 N680 0.985 . S
C694 C695 1.363 . S
C694 C700 1.379 . S
C694 N702 1.356 1_455 S
C695 C694 1.363 . S
C695 C701 1.363 . S
C696 C697 1.363 . S
C696 C701 1.379 . S
C696 N703 1.356 . S
C697 C696 1.363 . S
C697 C700 1.363 . S
N698 C700 1.356 . S
N698 H710 0.984 . S
N698 H711 0.985 . S
N699 C701 1.356 . S
N699 H704 0.984 . S
N699 H705 0.985 . S
C700 C694 1.379 . S
C700 C697 1.363 . S
C700 N698 1.356 . S
C701 C695 1.363 . S
C701 C696 1.379 . S
C701 N699 1.356 . S
N702 C694 1.356 1_655 S
N702 H708 0.984 . S
N702 H709 0.984 . S
N703 C696 1.356 . S
N703 H706 0.984 . S
N703 H707 0.985 . S
H704 N699 0.984 . S
H705 N699 0.985 . S
H706 N703 0.984 . S
H707 N703 0.985 . S
H708 N702 0.984 . S
H709 N702 0.984 . S
H710 N698 0.984 . S
H711 N698 0.985 . S
C712 C713 1.363 . S
C712 C718 1.379 . S
C712 N720 1.356 . S
C713 C712 1.363 . S
C713 C719 1.363 . S
C714 C715 1.363 1_556 S
C714 C719 1.379 1_556 S
C714 N721 1.356 . S
C715 C714 1.363 1_554 S
C715 C718 1.363 . S
N716 C718 1.356 . S
N716 H728 0.984 . S
N716 H729 0.985 . S
N717 C719 1.358 . S
N717 H722 0.992 . S
N717 H723 0.976 1_554 S
C718 C712 1.379 . S
C718 C715 1.363 . S
C718 N716 1.356 . S
C719 C713 1.363 . S
C719 C714 1.379 1_554 S
C719 N717 1.358 . S
N720 C712 1.356 . S
N720 H726 0.984 . S
N720 H727 0.984 . S
N721 C714 1.356 . S
N721 H724 0.984 . S
N721 H725 0.985 . S
H722 N717 0.992 . S
H723 N717 0.976 1_556 S
H724 N721 0.984 . S
H725 N721 0.985 . S
H726 N720 0.984 . S
H727 N720 0.984 . S
H728 N716 0.984 . S
H729 N716 0.985 . S
C730 C731 1.363 . S
C730 C736 1.379 . S
C730 N738 1.356 . S
C731 C730 1.363 . S
C731 C737 1.363 . S
C732 C733 1.363 . S
C732 C737 1.379 . S
C732 N739 1.356 . S
C733 C732 1.363 . S
C733 C736 1.363 . S
N734 C736 1.356 . S
N734 H746 0.984 . S
N734 H747 0.985 . S
N735 C737 1.356 1_554 S
N735 H740 0.984 . S
N735 H741 0.985 . S
C736 C730 1.379 . S
C736 C733 1.363 . S
C736 N734 1.356 . S
C737 C731 1.363 . S
C737 C732 1.379 . S
C737 N735 1.356 1_556 S
N738 C730 1.356 . S
N738 H744 0.984 . S
N738 H745 0.984 1_556 S
N739 C732 1.356 . S
N739 H742 0.984 . S
N739 H743 0.985 . S
H740 N735 0.984 . S
H741 N735 0.985 . S
H742 N739 0.984 . S
H743 N739 0.985 . S
H744 N738 0.984 . S
H745 N738 0.984 1_554 S
H746 N734 0.984 . S
H747 N734 0.985 . S
C748 C749 1.363 . S
C748 C754 1.379 . S
C748 N756 1.356 . S
C749 C748 1.363 . S
C749 C755 1.363 . S
C750 C751 1.363 1_556 S
C750 C755 1.379 1_556 S
C750 N757 1.356 . S
C751 C750 1.363 1_554 S
C751 C754 1.363 . S
N752 C754 1.356 . S
N752 H764 0.984 . S
N752 H765 0.985 . S
N753 C755 1.356 . S
N753 H758 0.984 . S
N753 H759 0.985 1_554 S
C754 C748 1.379 . S
C754 C751 1.363 . S
C754 N752 1.356 . S
C755 C749 1.363 . S
C755 C750 1.379 1_554 S
C755 N753 1.356 . S
N756 C748 1.356 . S
N756 H762 0.984 . S
N756 H763 0.984 . S
N757 C750 1.356 . S
N757 H760 0.984 . S
N757 H761 0.985 . S
H758 N753 0.984 . S
H759 N753 0.985 1_556 S
H760 N757 0.984 . S
H761 N757 0.985 . S
H762 N756 0.984 . S
H763 N756 0.984 . S
H764 N752 0.984 . S
H765 N752 0.985 . S
C766 C767 1.363 1_554 S
C766 C772 1.379 1_554 S
C766 N774 1.356 . S
C767 C766 1.363 1_556 S
C767 C773 1.363 . S
C768 C769 1.363 . S
C768 C773 1.379 . S
C768 N775 1.356 . S
C769 C768 1.363 . S
C769 C772 1.363 . S
N770 C772 1.356 . S
N770 H782 0.984 1_556 S
N770 H783 0.985 . S
N771 C773 1.356 . S
N771 H776 0.984 . S
N771 H777 0.985 . S
C772 C766 1.379 1_556 S
C772 C769 1.363 . S
C772 N770 1.356 . S
C773 C767 1.363 . S
C773 C768 1.379 . S
C773 N771 1.356 . S
N774 C766 1.356 . S
N774 H780 0.984 . S
N774 H781 0.984 . S
N775 C768 1.356 . S
N775 H778 0.984 . S
N775 H779 0.985 . S
H776 N771 0.984 . S
H777 N771 0.985 . S
H778 N775 0.984 . S
H779 N775 0.985 . S
H780 N774 0.984 . S
H781 N774 0.984 . S
H782 N770 0.984 1_554 S
H783 N770 0.985 . S
C784 C785 1.363 . S
C784 C790 1.379 . S
C784 N792 1.356 . S
C785 C784 1.363 . S
C785 C791 1.363 . S
C786 C787 1.363 . S
C786 C791 1.379 . S
C786 N793 1.356 . S
C787 C786 1.363 . S
C787 C790 1.363 . S
N788 C790 1.356 . S
N788 H800 0.984 . S
N788 H801 0.985 . S
N789 C791 1.356 . S
N789 H794 0.984 . S
N789 H795 0.985 . S
C790 C784 1.379 . S
C790 C787 1.363 . S
C790 N788 1.356 . S
C791 C785 1.363 . S
C791 C786 1.379 . S
C791 N789 1.356 . S
N792 C784 1.356 . S
N792 H798 0.984 . S
N792 H799 0.984 . S
N793 C786 1.356 . S
N793 H796 0.984 . S
N793 H797 0.985 . S
H794 N789 0.984 . S
H795 N789 0.985 . S
H796 N793 0.984 . S
H797 N793 0.985 . S
H798 N792 0.984 . S
H799 N792 0.984 . S
H800 N788 0.984 . S
H801 N788 0.985 . S
C802 C803 1.363 . S
C802 C808 1.379 . S
C802 N810 1.356 . S
C803 C802 1.363 . S
C803 C809 1.363 . S
C804 C805 1.363 . S
C804 C809 1.379 . S
C804 N811 1.356 . S
C805 C804 1.363 . S
C805 C808 1.363 . S
N806 C808 1.356 . S
N806 H818 0.984 . S
N806 H819 0.985 . S
N807 C809 1.356 . S
N807 H812 0.984 . S
N807 H813 0.985 . S
C808 C802 1.379 . S
C808 C805 1.363 . S
C808 N806 1.356 . S
C809 C803 1.363 . S
C809 C804 1.379 . S
C809 N807 1.356 . S
N810 C802 1.356 . S
N810 H816 0.984 . S
N810 H817 0.984 . S
N811 C804 1.356 . S
N811 H814 0.984 . S
N811 H815 0.985 . S
H812 N807 0.984 . S
H813 N807 0.985 . S
H814 N811 0.984 . S
H815 N811 0.985 . S
H816 N810 0.984 . S
H817 N810 0.984 . S
H818 N806 0.984 . S
H819 N806 0.985 . S
C820 C821 1.363 . S
C820 C826 1.379 . S
C820 N828 1.356 . S
C821 C820 1.363 . S
C821 C827 1.363 . S
C822 C823 1.363 . S
C822 C827 1.379 . S
C822 N829 1.356 . S
C823 C822 1.363 . S
C823 C826 1.363 . S
N824 C826 1.356 . S
N824 H836 0.984 . S
N824 H837 0.985 . S
N825 C827 1.356 . S
N825 H830 0.984 . S
N825 H831 0.985 . S
C826 C820 1.379 . S
C826 C823 1.363 . S
C826 N824 1.356 . S
C827 C821 1.363 . S
C827 C822 1.379 . S
C827 N825 1.356 . S
N828 C820 1.356 . S
N828 H834 0.984 . S
N828 H835 0.984 . S
N829 C822 1.356 . S
N829 H832 0.984 . S
N829 H833 0.985 . S
H830 N825 0.984 . S
H831 N825 0.985 . S
H832 N829 0.984 . S
H833 N829 0.985 . S
H834 N828 0.984 . S
H835 N828 0.984 . S
H836 N824 0.984 . S
H837 N824 0.985 . S
C838 C839 1.363 . S
C838 C844 1.379 . S
C838 N846 1.356 . S
C839 C838 1.363 . S
C839 C845 1.363 . S
C840 C841 1.363 . S
C840 C845 1.379 . S
C840 N847 1.356 . S
C841 C840 1.363 . S
C841 C844 1.363 . S
N842 C844 1.356 . S
N842 H854 0.984 . S
N842 H855 0.985 . S
N843 C845 1.356 . S
N843 H848 0.984 . S
N843 H849 0.985 . S
C844 C838 1.379 . S
C844 C841 1.363 . S
C844 N842 1.356 . S
C845 C839 1.363 . S
C845 C840 1.379 . S
C845 N843 1.356 . S
N846 C838 1.356 . S
N846 H852 0.984 . S
N846 H853 0.984 . S
N847 C840 1.356 . S
N847 H850 0.984 . S
N847 H851 0.985 . S
H848 N843 0.984 . S
H849 N843 0.985 . S
H850 N847 0.984 . S
H851 N847 0.985 . S
H852 N846 0.984 . S
H853 N846 0.984 . S
H854 N842 0.984 . S
H855 N842 0.985 . S
C856 C857 1.363 . S
C856 C862 1.379 . S
C856 N864 1.356 1_545 S
C857 C856 1.363 . S
C857 C863 1.363 . S
C858 C859 1.363 . S
C858 C863 1.379 . S
C858 N865 1.356 . S
C859 C858 1.363 . S
C859 C862 1.363 . S
N860 C862 1.356 . S
N860 H872 0.984 . S
N860 H873 0.985 . S
N861 C863 1.356 . S
N861 H866 0.984 . S
N861 H867 0.985 . S
C862 C856 1.379 . S
C862 C859 1.363 . S
C862 N860 1.356 . S
C863 C857 1.363 . S
C863 C858 1.379 . S
C863 N861 1.356 . S
N864 C856 1.356 1_565 S
N864 H870 0.984 . S
N864 H871 0.984 . S
N865 C858 1.356 . S
N865 H868 0.984 . S
N865 H869 0.985 . S
H866 N861 0.984 . S
H867 N861 0.985 . S
H868 N865 0.984 . S
H869 N865 0.985 . S
H870 N864 0.984 . S
H871 N864 0.984 . S
H872 N860 0.984 . S
H873 N860 0.985 . S
C874 C875 1.363 . S
C874 C880 1.379 . S
C874 N882 1.356 . S
C875 C874 1.363 . S
C875 C881 1.363 . S
C876 C877 1.363 . S
C876 C881 1.379 . S
C876 N883 1.356 . S
C877 C876 1.363 . S
C877 C880 1.363 . S
N878 C880 1.356 . S
N878 H890 0.984 . S
N878 H891 0.985 1_455 S
N879 C881 1.356 . S
N879 H884 0.984 . S
N879 H885 0.985 . S
C880 C874 1.379 . S
C880 C877 1.363 . S
C880 N878 1.356 . S
C881 C875 1.363 . S
C881 C876 1.379 . S
C881 N879 1.356 . S
N882 C874 1.356 . S
N882 H888 0.984 . S
N882 H889 0.984 . S
N883 C876 1.356 . S
N883 H886 0.984 1_455 S
N883 H887 0.985 . S
H884 N879 0.984 . S
H885 N879 0.985 . S
H886 N883 0.984 1_655 S
H887 N883 0.985 . S
H888 N882 0.984 . S
H889 N882 0.984 . S
H890 N878 0.984 . S
H891 N878 0.985 1_655 S
C892 C893 1.363 . S
C892 C898 1.379 . S
C892 N900 1.356 . S
C893 C892 1.363 . S
C893 C899 1.363 . S
C894 C895 1.363 . S
C894 C899 1.379 . S
C894 N901 1.353 1_565 S
C895 C894 1.363 . S
C895 C898 1.363 . S
N896 C898 1.356 . S
N896 H908 0.984 . S
N896 H909 0.985 1_565 S
N897 C899 1.356 . S
N897 H902 0.984 . S
N897 H903 0.985 . S
C898 C892 1.379 . S
C898 C895 1.363 . S
C898 N896 1.356 . S
C899 C893 1.363 . S
C899 C894 1.379 . S
C899 N897 1.356 . S
N900 C892 1.356 . S
N900 H906 0.984 . S
N900 H907 0.984 . S
N901 C894 1.353 1_545 S
N901 H904 0.988 . S
N901 H905 0.984 1_545 S
H902 N897 0.984 . S
H903 N897 0.985 . S
H904 N901 0.988 . S
H905 N901 0.984 1_565 S
H906 N900 0.984 . S
H907 N900 0.984 . S
H908 N896 0.984 . S
H909 N896 0.985 1_545 S
C910 C911 1.363 . S
C910 C916 1.379 . S
C910 N918 1.356 1_655 S
C911 C910 1.363 . S
C911 C917 1.363 . S
C912 C913 1.363 . S
C912 C917 1.379 . S
C912 N919 1.356 . S
C913 C912 1.363 . S
C913 C916 1.363 . S
N914 C916 1.356 . S
N914 H926 0.984 . S
N914 H927 0.985 . S
N915 C917 1.356 . S
N915 H920 0.987 1_655 S
N915 H921 0.985 . S
C916 C910 1.379 . S
C916 C913 1.363 . S
C916 N914 1.356 . S
C917 C911 1.363 . S
C917 C912 1.379 . S
C917 N915 1.356 . S
N918 C910 1.356 1_455 S
N918 H924 0.984 . S
N918 H925 0.984 . S
N919 C912 1.356 . S
N919 H922 0.984 . S
N919 H923 0.985 . S
H920 N915 0.987 1_455 S
H921 N915 0.985 . S
H922 N919 0.984 . S
H923 N919 0.985 . S
H924 N918 0.984 . S
H925 N918 0.984 . S
H926 N914 0.984 . S
H927 N914 0.985 . S
C928 C929 1.363 . S
C928 C934 1.379 . S
C928 N936 1.356 . S
C929 C928 1.363 . S
C929 C935 1.363 . S
C930 C931 1.363 . S
C930 C935 1.379 . S
C930 N937 1.356 . S
C931 C930 1.363 . S
C931 C934 1.363 . S
N932 C934 1.356 . S
N932 H944 0.984 . S
N932 H945 0.985 . S
N933 C935 1.356 . S
N933 H938 0.984 . S
N933 H939 0.985 . S
C934 C928 1.379 . S
C934 C931 1.363 . S
C934 N932 1.356 . S
C935 C929 1.363 . S
C935 C930 1.379 . S
C935 N933 1.356 . S
N936 C928 1.356 . S
N936 H942 0.984 . S
N936 H943 0.984 . S
N937 C930 1.356 . S
N937 H940 0.984 . S
N937 H941 0.985 . S
H938 N933 0.984 . S
H939 N933 0.985 . S
H940 N937 0.984 . S
H941 N937 0.985 . S
H942 N936 0.984 . S
H943 N936 0.984 . S
H944 N932 0.984 . S
H945 N932 0.985 . S
C946 C947 1.363 . S
C946 C952 1.379 . S
C946 N954 1.356 . S
C947 C946 1.363 . S
C947 C953 1.363 . S
C948 C949 1.363 . S
C948 C953 1.379 . S
C948 N955 1.356 . S
C949 C948 1.363 . S
C949 C952 1.363 . S
N950 C952 1.356 . S
N950 H962 0.984 . S
N950 H963 0.985 . S
N951 C953 1.356 . S
N951 H956 0.984 . S
N951 H957 0.985 . S
C952 C946 1.379 . S
C952 C949 1.363 . S
C952 N950 1.356 . S
C953 C947 1.363 . S
C953 C948 1.379 . S
C953 N951 1.356 . S
N954 C946 1.356 . S
N954 H960 0.984 . S
N954 H961 0.984 . S
N955 C948 1.356 . S
N955 H958 0.984 . S
N955 H959 0.985 . S
H956 N951 0.984 . S
H957 N951 0.985 . S
H958 N955 0.984 . S
H959 N955 0.985 . S
H960 N954 0.984 . S
H961 N954 0.984 . S
H962 N950 0.984 . S
H963 N950 0.985 . S
C964 C965 1.363 . S
C964 C970 1.379 . S
C964 N972 1.356 . S
C965 C964 1.363 . S
C965 C971 1.363 . S
C966 C967 1.363 . S
C966 C971 1.379 . S
C966 N973 1.356 . S
C967 C966 1.363 . S
C967 C970 1.363 . S
N968 C970 1.356 . S
N968 H980 0.984 . S
N968 H981 0.985 . S
N969 C971 1.356 . S
N969 H974 0.984 . S
N969 H975 0.985 . S
C970 C964 1.379 . S
C970 C967 1.363 . S
C970 N968 1.356 . S
C971 C965 1.363 . S
C971 C966 1.379 . S
C971 N969 1.356 . S
N972 C964 1.356 . S
N972 H978 0.984 . S
N972 H979 0.984 . S
N973 C966 1.356 . S
N973 H976 0.984 . S
N973 H977 0.985 . S
H974 N969 0.984 . S
H975 N969 0.985 . S
H976 N973 0.984 . S
H977 N973 0.985 . S
H978 N972 0.984 . S
H979 N972 0.984 . S
H980 N968 0.984 . S
H981 N968 0.985 . S
C982 C983 1.363 . S
C982 C988 1.379 . S
C982 N990 1.356 . S
C983 C982 1.363 . S
C983 C989 1.363 . S
C984 C985 1.363 . S
C984 C989 1.379 . S
C984 N991 1.356 . S
C985 C984 1.363 . S
C985 C988 1.363 . S
N986 C988 1.356 . S
N986 H998 0.984 . S
N986 H999 0.985 . S
N987 C989 1.356 . S
N987 H992 0.984 . S
N987 H993 0.985 1_556 S
C988 C982 1.379 . S
C988 C985 1.363 . S
C988 N986 1.356 . S
C989 C983 1.363 . S
C989 C984 1.379 . S
C989 N987 1.356 . S
N990 C982 1.356 . S
N990 H996 0.984 . S
N990 H997 0.984 . S
N991 C984 1.356 . S
N991 H994 0.984 . S
N991 H995 0.985 . S
H992 N987 0.984 . S
H993 N987 0.985 1_554 S
H994 N991 0.984 . S
H995 N991 0.985 . S
H996 N990 0.984 . S
H997 N990 0.984 . S
H998 N986 0.984 . S
H999 N986 0.985 . S
C1000 C1001 1.363 . S
C1000 C1006 1.379 . S
C1000 N1008 1.356 . S
C1001 C1000 1.363 . S
C1001 C1007 1.363 . S
C1002 C1003 1.363 . S
C1002 C1007 1.379 . S
C1002 N1009 1.356 . S
C1003 C1002 1.363 . S
C1003 C1006 1.363 . S
N1004 C1006 1.356 . S
N1004 H1016 0.984 . S
N1004 H1017 0.985 . S
N1005 C1007 1.356 . S
N1005 H1010 0.984 . S
N1005 H1011 0.985 . S
C1006 C1000 1.379 . S
C1006 C1003 1.363 . S
C1006 N1004 1.356 . S
C1007 C1001 1.363 . S
C1007 C1002 1.379 . S
C1007 N1005 1.356 . S
N1008 C1000 1.356 . S
N1008 H1014 0.984 . S
N1008 H1015 0.984 . S
N1009 C1002 1.356 . S
N1009 H1012 0.984 . S
N1009 H1013 0.985 . S
H1010 N1005 0.984 . S
H1011 N1005 0.985 . S
H1012 N1009 0.984 . S
H1013 N1009 0.985 . S
H1014 N1008 0.984 . S
H1015 N1008 0.984 . S
H1016 N1004 0.984 . S
H1017 N1004 0.985 . S
C1018 C1019 1.363 . S
C1018 C1024 1.379 . S
C1018 N1026 1.356 . S
C1019 C1018 1.363 . S
C1019 C1025 1.363 . S
C1020 C1021 1.363 . S
C1020 C1025 1.379 . S
C1020 N1027 1.356 . S
C1021 C1020 1.363 . S
C1021 C1024 1.363 . S
N1022 C1024 1.356 . S
N1022 H1034 0.984 . S
N1022 H1035 0.985 . S
N1023 C1025 1.356 . S
N1023 H1028 0.984 . S
N1023 H1029 0.985 . S
C1024 C1018 1.379 . S
C1024 C1021 1.363 . S
C1024 N1022 1.356 . S
C1025 C1019 1.363 . S
C1025 C1020 1.379 . S
C1025 N1023 1.356 . S
N1026 C1018 1.356 . S
N1026 H1032 0.984 . S
N1026 H1033 0.984 . S
N1027 C1020 1.356 . S
N1027 H1030 0.984 . S
N1027 H1031 0.985 . S
H1028 N1023 0.984 . S
H1029 N1023 0.985 . S
H1030 N1027 0.984 . S
H1031 N1027 0.985 . S
H1032 N1026 0.984 . S
H1033 N1026 0.984 . S
H1034 N1022 0.984 . S
H1035 N1022 0.985 . S
C1036 C1037 1.363 . S
C1036 C1042 1.379 . S
C1036 N1044 1.356 . S
C1037 C1036 1.363 . S
C1037 C1043 1.363 . S
C1038 C1039 1.363 . S
C1038 C1043 1.379 . S
C1038 N1045 1.356 . S
C1039 C1038 1.363 . S
C1039 C1042 1.363 . S
N1040 C1042 1.356 . S
N1040 H1052 0.984 . S
N1040 H1053 0.985 . S
N1041 C1043 1.356 . S
N1041 H1046 0.984 . S
N1041 H1047 0.985 . S
C1042 C1036 1.379 . S
C1042 C1039 1.363 . S
C1042 N1040 1.356 . S
C1043 C1037 1.363 . S
C1043 C1038 1.379 . S
C1043 N1041 1.356 . S
N1044 C1036 1.356 . S
N1044 H1050 0.984 . S
N1044 H1051 0.984 . S
N1045 C1038 1.356 . S
N1045 H1048 0.984 . S
N1045 H1049 0.985 . S
H1046 N1041 0.984 . S
H1047 N1041 0.985 . S
H1048 N1045 0.984 . S
H1049 N1045 0.985 . S
H1050 N1044 0.984 . S
H1051 N1044 0.984 . S
H1052 N1040 0.984 . S
H1053 N1040 0.985 . S
C1054 C1055 1.363 . S
C1054 C1060 1.379 . S
C1054 N1062 1.356 . S
C1055 C1054 1.363 . S
C1055 C1061 1.363 . S
C1056 C1057 1.363 . S
C1056 C1061 1.379 . S
C1056 N1063 1.356 . S
C1057 C1056 1.363 . S
C1057 C1060 1.363 . S
N1058 C1060 1.356 . S
N1058 H1070 0.984 . S
N1058 H1071 0.985 . S
N1059 C1061 1.356 . S
N1059 H1064 0.984 . S
N1059 H1065 0.985 . S
C1060 C1054 1.379 . S
C1060 C1057 1.363 . S
C1060 N1058 1.356 . S
C1061 C1055 1.363 . S
C1061 C1056 1.379 . S
C1061 N1059 1.356 . S
N1062 C1054 1.356 . S
N1062 H1068 0.984 . S
N1062 H1069 0.984 . S
N1063 C1056 1.356 . S
N1063 H1066 0.984 . S
N1063 H1067 0.985 . S
H1064 N1059 0.984 . S
H1065 N1059 0.985 . S
H1066 N1063 0.984 . S
H1067 N1063 0.985 . S
H1068 N1062 0.984 . S
H1069 N1062 0.984 . S
H1070 N1058 0.984 . S
H1071 N1058 0.985 . S
C1072 C1073 1.363 . S
C1072 C1078 1.379 . S
C1072 N1080 1.356 . S
C1073 C1072 1.363 . S
C1073 C1079 1.363 . S
C1074 C1075 1.363 . S
C1074 C1079 1.379 . S
C1074 N1081 1.356 . S
C1075 C1074 1.363 . S
C1075 C1078 1.363 . S
N1076 C1078 1.356 . S
N1076 H1088 0.984 . S
N1076 H1089 0.985 . S
N1077 C1079 1.356 . S
N1077 H1082 0.984 . S
N1077 H1083 0.985 . S
C1078 C1072 1.379 . S
C1078 C1075 1.363 . S
C1078 N1076 1.356 . S
C1079 C1073 1.363 . S
C1079 C1074 1.379 . S
C1079 N1077 1.356 . S
N1080 C1072 1.356 . S
N1080 H1086 0.984 . S
N1080 H1087 0.984 . S
N1081 C1074 1.356 . S
N1081 H1084 0.984 . S
N1081 H1085 0.985 . S
H1082 N1077 0.984 . S
H1083 N1077 0.985 . S
H1084 N1081 0.984 . S
H1085 N1081 0.985 . S
H1086 N1080 0.984 . S
H1087 N1080 0.984 . S
H1088 N1076 0.984 . S
H1089 N1076 0.985 . S
C1090 C1091 1.363 . S
C1090 C1096 1.379 . S
C1090 N1098 1.356 . S
C1091 C1090 1.363 . S
C1091 C1097 1.363 . S
C1092 C1093 1.363 . S
C1092 C1097 1.379 . S
C1092 N1099 1.356 . S
C1093 C1092 1.363 . S
C1093 C1096 1.363 . S
N1094 C1096 1.356 . S
N1094 H1106 0.984 . S
N1094 H1107 0.985 . S
N1095 C1097 1.356 . S
N1095 H1100 0.984 . S
N1095 H1101 0.985 . S
C1096 C1090 1.379 . S
C1096 C1093 1.363 . S
C1096 N1094 1.356 . S
C1097 C1091 1.363 . S
C1097 C1092 1.379 . S
C1097 N1095 1.356 . S
N1098 C1090 1.356 . S
N1098 H1104 0.984 . S
N1098 H1105 0.984 . S
N1099 C1092 1.356 . S
N1099 H1102 0.984 . S
N1099 H1103 0.985 . S
H1100 N1095 0.984 . S
H1101 N1095 0.985 . S
H1102 N1099 0.984 . S
H1103 N1099 0.985 . S
H1104 N1098 0.984 . S
H1105 N1098 0.984 . S
H1106 N1094 0.984 . S
H1107 N1094 0.985 . S
C1108 C1109 1.363 . S
C1108 C1114 1.379 . S
C1108 N1116 1.356 . S
C1109 C1108 1.363 . S
C1109 C1115 1.363 . S
C1110 C1111 1.363 . S
C1110 C1115 1.379 . S
C1110 N1117 1.356 . S
C1111 C1110 1.363 . S
C1111 C1114 1.363 . S
N1112 C1114 1.356 . S
N1112 H1124 0.984 . S
N1112 H1125 0.985 . S
N1113 C1115 1.356 . S
N1113 H1118 0.984 . S
N1113 H1119 0.985 . S
C1114 C1108 1.379 . S
C1114 C1111 1.363 . S
C1114 N1112 1.356 . S
C1115 C1109 1.363 . S
C1115 C1110 1.379 . S
C1115 N1113 1.356 . S
N1116 C1108 1.356 . S
N1116 H1122 0.984 . S
N1116 H1123 0.984 . S
N1117 C1110 1.356 . S
N1117 H1120 0.984 . S
N1117 H1121 0.985 . S
H1118 N1113 0.984 . S
H1119 N1113 0.985 . S
H1120 N1117 0.984 . S
H1121 N1117 0.985 . S
H1122 N1116 0.984 . S
H1123 N1116 0.984 . S
H1124 N1112 0.984 . S
H1125 N1112 0.985 . S
C1126 C1127 1.363 . S
C1126 C1132 1.379 . S
C1126 N1134 1.356 . S
C1127 C1126 1.363 . S
C1127 C1133 1.363 . S
C1128 C1129 1.363 . S
C1128 C1133 1.379 . S
C1128 N1135 1.356 . S
C1129 C1128 1.363 . S
C1129 C1132 1.363 . S
N1130 C1132 1.356 . S
N1130 H1142 0.984 . S
N1130 H1143 0.985 . S
N1131 C1133 1.356 . S
N1131 H1136 0.984 . S
N1131 H1137 0.985 . S
C1132 C1126 1.379 . S
C1132 C1129 1.363 . S
C1132 N1130 1.356 . S
C1133 C1127 1.363 . S
C1133 C1128 1.379 . S
C1133 N1131 1.356 . S
N1134 C1126 1.356 . S
N1134 H1140 0.984 . S
N1134 H1141 0.984 . S
N1135 C1128 1.356 . S
N1135 H1138 0.984 . S
N1135 H1139 0.985 . S
H1136 N1131 0.984 . S
H1137 N1131 0.985 . S
H1138 N1135 0.984 . S
H1139 N1135 0.985 . S
H1140 N1134 0.984 . S
H1141 N1134 0.984 . S
H1142 N1130 0.984 . S
H1143 N1130 0.985 . S
C1144 C1145 1.363 . S
C1144 C1150 1.379 . S
C1144 N1152 1.356 . S
C1145 C1144 1.363 . S
C1145 C1151 1.363 . S
C1146 C1147 1.363 . S
C1146 C1151 1.379 . S
C1146 N1153 1.356 . S
C1147 C1146 1.363 . S
C1147 C1150 1.363 . S
N1148 C1150 1.356 . S
N1148 H1160 0.984 . S
N1148 H1161 0.985 . S
N1149 C1151 1.356 . S
N1149 H1154 0.984 . S
N1149 H1155 0.985 . S
C1150 C1144 1.379 . S
C1150 C1147 1.363 . S
C1150 N1148 1.356 . S
C1151 C1145 1.363 . S
C1151 C1146 1.379 . S
C1151 N1149 1.356 . S
N1152 C1144 1.356 . S
N1152 H1158 0.984 . S
N1152 H1159 0.984 . S
N1153 C1146 1.356 . S
N1153 H1156 0.984 . S
N1153 H1157 0.985 . S
H1154 N1149 0.984 . S
H1155 N1149 0.985 . S
H1156 N1153 0.984 . S
H1157 N1153 0.985 . S
H1158 N1152 0.984 . S
H1159 N1152 0.984 . S
H1160 N1148 0.984 . S
H1161 N1148 0.985 . S
C1162 C1163 1.363 . S
C1162 C1168 1.379 . S
C1162 N1170 1.356 . S
C1163 C1162 1.363 . S
C1163 C1169 1.363 . S
C1164 C1165 1.363 . S
C1164 C1169 1.379 . S
C1164 N1171 1.356 . S
C1165 C1164 1.363 . S
C1165 C1168 1.363 . S
N1166 C1168 1.356 . S
N1166 H1178 0.984 . S
N1166 H1179 0.985 . S
N1167 C1169 1.356 . S
N1167 H1172 0.984 . S
N1167 H1173 0.985 . S
C1168 C1162 1.379 . S
C1168 C1165 1.363 . S
C1168 N1166 1.356 . S
C1169 C1163 1.363 . S
C1169 C1164 1.379 . S
C1169 N1167 1.356 . S
N1170 C1162 1.356 . S
N1170 H1176 0.984 . S
N1170 H1177 0.984 . S
N1171 C1164 1.356 . S
N1171 H1174 0.984 . S
N1171 H1175 0.985 . S
H1172 N1167 0.984 . S
H1173 N1167 0.985 . S
H1174 N1171 0.984 . S
H1175 N1171 0.985 . S
H1176 N1170 0.984 . S
H1177 N1170 0.984 . S
H1178 N1166 0.984 . S
H1179 N1166 0.985 . S
C1180 C1181 1.363 . S
C1180 C1186 1.379 . S
C1180 N1188 1.356 . S
C1181 C1180 1.363 . S
C1181 C1187 1.363 . S
C1182 C1183 1.363 . S
C1182 C1187 1.379 . S
C1182 N1189 1.356 . S
C1183 C1182 1.363 . S
C1183 C1186 1.363 . S
N1184 C1186 1.356 . S
N1184 H1196 0.984 . S
N1184 H1197 0.985 . S
N1185 C1187 1.356 . S
N1185 H1190 0.984 . S
N1185 H1191 0.985 . S
C1186 C1180 1.379 . S
C1186 C1183 1.363 . S
C1186 N1184 1.356 . S
C1187 C1181 1.363 . S
C1187 C1182 1.379 . S
C1187 N1185 1.356 . S
N1188 C1180 1.356 . S
N1188 H1194 0.984 . S
N1188 H1195 0.984 . S
N1189 C1182 1.356 . S
N1189 H1192 0.984 . S
N1189 H1193 0.985 . S
H1190 N1185 0.984 . S
H1191 N1185 0.985 . S
H1192 N1189 0.984 . S
H1193 N1189 0.985 . S
H1194 N1188 0.984 . S
H1195 N1188 0.984 . S
H1196 N1184 0.984 . S
H1197 N1184 0.985 . S
C1198 C1199 1.363 . S
C1198 C1204 1.379 . S
C1198 N1206 1.356 . S
C1199 C1198 1.363 . S
C1199 C1205 1.363 . S
C1200 C1201 1.363 . S
C1200 C1205 1.379 . S
C1200 N1207 1.356 . S
C1201 C1200 1.363 . S
C1201 C1204 1.363 . S
N1202 C1204 1.356 . S
N1202 H1214 0.984 . S
N1202 H1215 0.985 . S
N1203 C1205 1.356 . S
N1203 H1208 0.984 . S
N1203 H1209 0.985 . S
C1204 C1198 1.379 . S
C1204 C1201 1.363 . S
C1204 N1202 1.356 . S
C1205 C1199 1.363 . S
C1205 C1200 1.379 . S
C1205 N1203 1.356 . S
N1206 C1198 1.356 . S
N1206 H1212 0.984 . S
N1206 H1213 0.984 . S
N1207 C1200 1.356 . S
N1207 H1210 0.984 . S
N1207 H1211 0.985 . S
H1208 N1203 0.984 . S
H1209 N1203 0.985 . S
H1210 N1207 0.984 . S
H1211 N1207 0.985 . S
H1212 N1206 0.984 . S
H1213 N1206 0.984 . S
H1214 N1202 0.984 . S
H1215 N1202 0.985 . S
C1216 C1217 1.363 . S
C1216 C1222 1.379 . S
C1216 N1224 1.356 . S
C1217 C1216 1.363 . S
C1217 C1223 1.363 . S
C1218 C1219 1.363 . S
C1218 C1223 1.379 . S
C1218 N1225 1.356 . S
C1219 C1218 1.363 . S
C1219 C1222 1.363 . S
N1220 C1222 1.356 . S
N1220 H1232 0.984 . S
N1220 H1233 0.985 . S
N1221 C1223 1.356 . S
N1221 H1226 0.984 . S
N1221 H1227 0.985 . S
C1222 C1216 1.379 . S
C1222 C1219 1.363 . S
C1222 N1220 1.356 . S
C1223 C1217 1.363 . S
C1223 C1218 1.379 . S
C1223 N1221 1.356 . S
N1224 C1216 1.356 . S
N1224 H1230 0.984 . S
N1224 H1231 0.984 . S
N1225 C1218 1.356 . S
N1225 H1228 0.984 . S
N1225 H1229 0.985 . S
H1226 N1221 0.984 . S
H1227 N1221 0.985 . S
H1228 N1225 0.984 . S
H1229 N1225 0.985 . S
H1230 N1224 0.984 . S
H1231 N1224 0.984 . S
H1232 N1220 0.984 . S
H1233 N1220 0.985 . S
C1234 C1235 1.363 . S
C1234 C1240 1.379 . S
C1234 N1242 1.356 . S
C1235 C1234 1.363 . S
C1235 C1241 1.363 . S
C1236 C1237 1.363 . S
C1236 C1241 1.379 . S
C1236 N1243 1.356 . S
C1237 C1236 1.363 . S
C1237 C1240 1.363 . S
N1238 C1240 1.356 . S
N1238 H1250 0.984 . S
N1238 H1251 0.985 . S
N1239 C1241 1.356 . S
N1239 H1244 0.984 . S
N1239 H1245 0.985 . S
C1240 C1234 1.379 . S
C1240 C1237 1.363 . S
C1240 N1238 1.356 . S
C1241 C1235 1.363 . S
C1241 C1236 1.379 . S
C1241 N1239 1.356 . S
N1242 C1234 1.356 . S
N1242 H1248 0.984 . S
N1242 H1249 0.984 . S
N1243 C1236 1.356 . S
N1243 H1246 0.984 . S
N1243 H1247 0.985 . S
H1244 N1239 0.984 . S
H1245 N1239 0.985 . S
H1246 N1243 0.984 . S
H1247 N1243 0.985 . S
H1248 N1242 0.984 . S
H1249 N1242 0.984 . S
H1250 N1238 0.984 . S
H1251 N1238 0.985 . S
C1252 C1253 1.363 . S
C1252 C1258 1.379 . S
C1252 N1260 1.356 . S
C1253 C1252 1.363 . S
C1253 C1259 1.363 . S
C1254 C1255 1.363 . S
C1254 C1259 1.379 . S
C1254 N1261 1.356 . S
C1255 C1254 1.363 . S
C1255 C1258 1.363 . S
N1256 C1258 1.356 . S
N1256 H1268 0.984 . S
N1256 H1269 0.985 . S
N1257 C1259 1.356 . S
N1257 H1262 0.984 . S
N1257 H1263 0.985 . S
C1258 C1252 1.379 . S
C1258 C1255 1.363 . S
C1258 N1256 1.356 . S
C1259 C1253 1.363 . S
C1259 C1254 1.379 . S
C1259 N1257 1.356 . S
N1260 C1252 1.356 . S
N1260 H1266 0.984 . S
N1260 H1267 0.984 . S
N1261 C1254 1.356 . S
N1261 H1264 0.984 . S
N1261 H1265 0.985 . S
H1262 N1257 0.984 . S
H1263 N1257 0.985 . S
H1264 N1261 0.984 . S
H1265 N1261 0.985 . S
H1266 N1260 0.984 . S
H1267 N1260 0.984 . S
H1268 N1256 0.984 . S
H1269 N1256 0.985 . S
C1270 C1271 1.363 . S
C1270 C1276 1.379 . S
C1270 N1278 1.356 . S
C1271 C1270 1.363 . S
C1271 C1277 1.363 . S
C1272 C1273 1.363 . S
C1272 C1277 1.379 . S
C1272 N1279 1.356 . S
C1273 C1272 1.363 . S
C1273 C1276 1.363 . S
N1274 C1276 1.356 . S
N1274 H1286 0.984 . S
N1274 H1287 0.985 . S
N1275 C1277 1.356 . S
N1275 H1280 0.984 . S
N1275 H1281 0.985 . S
C1276 C1270 1.379 . S
C1276 C1273 1.363 . S
C1276 N1274 1.356 . S
C1277 C1271 1.363 . S
C1277 C1272 1.379 . S
C1277 N1275 1.356 . S
N1278 C1270 1.356 . S
N1278 H1284 0.984 . S
N1278 H1285 0.984 . S
N1279 C1272 1.356 . S
N1279 H1282 0.984 . S
N1279 H1283 0.985 . S
H1280 N1275 0.984 . S
H1281 N1275 0.985 . S
H1282 N1279 0.984 . S
H1283 N1279 0.985 . S
H1284 N1278 0.984 . S
H1285 N1278 0.984 . S
H1286 N1274 0.984 . S
H1287 N1274 0.985 . S
C1288 C1289 1.363 . S
C1288 C1294 1.379 . S
C1288 N1296 1.356 . S
C1289 C1288 1.363 . S
C1289 C1295 1.363 . S
C1290 C1291 1.363 . S
C1290 C1295 1.379 . S
C1290 N1297 1.356 . S
C1291 C1290 1.363 . S
C1291 C1294 1.363 . S
N1292 C1294 1.356 . S
N1292 H1304 0.984 . S
N1292 H1305 0.985 . S
N1293 C1295 1.356 . S
N1293 H1298 0.984 . S
N1293 H1299 0.985 . S
C1294 C1288 1.379 . S
C1294 C1291 1.363 . S
C1294 N1292 1.356 . S
C1295 C1289 1.363 . S
C1295 C1290 1.379 . S
C1295 N1293 1.356 . S
N1296 C1288 1.356 . S
N1296 H1302 0.984 . S
N1296 H1303 0.984 . S
N1297 C1290 1.356 . S
N1297 H1300 0.984 . S
N1297 H1301 0.985 . S
H1298 N1293 0.984 . S
H1299 N1293 0.985 . S
H1300 N1297 0.984 . S
H1301 N1297 0.985 . S
H1302 N1296 0.984 . S
H1303 N1296 0.984 . S
H1304 N1292 0.984 . S
H1305 N1292 0.985 . S
C1306 C1307 1.363 . S
C1306 C1312 1.379 . S
C1306 N1314 1.356 . S
C1307 C1306 1.363 . S
C1307 C1313 1.363 . S
C1308 C1309 1.363 . S
C1308 C1313 1.379 . S
C1308 N1315 1.356 . S
C1309 C1308 1.363 . S
C1309 C1312 1.363 . S
N1310 C1312 1.356 . S
N1310 H1322 0.984 . S
N1310 H1323 0.985 . S
N1311 C1313 1.356 . S
N1311 H1316 0.984 . S
N1311 H1317 0.985 . S
C1312 C1306 1.379 . S
C1312 C1309 1.363 . S
C1312 N1310 1.356 . S
C1313 C1307 1.363 . S
C1313 C1308 1.379 . S
C1313 N1311 1.356 . S
N1314 C1306 1.356 . S
N1314 H1320 0.984 . S
N1314 H1321 0.984 . S
N1315 C1308 1.356 . S
N1315 H1318 0.984 . S
N1315 H1319 0.985 . S
H1316 N1311 0.984 . S
H1317 N1311 0.985 . S
H1318 N1315 0.984 . S
H1319 N1315 0.985 . S
H1320 N1314 0.984 . S
H1321 N1314 0.984 . S
H1322 N1310 0.984 . S
H1323 N1310 0.985 . S
C1324 C1325 1.363 . S
C1324 C1330 1.379 . S
C1324 N1332 1.356 . S
C1325 C1324 1.363 . S
C1325 C1331 1.363 . S
C1326 C1327 1.363 . S
C1326 C1331 1.379 . S
C1326 N1333 1.356 . S
C1327 C1326 1.363 . S
C1327 C1330 1.363 . S
N1328 C1330 1.356 . S
N1328 H1340 0.984 . S
N1328 H1341 0.985 . S
N1329 C1331 1.356 . S
N1329 H1334 0.984 . S
N1329 H1335 0.985 . S
C1330 C1324 1.379 . S
C1330 C1327 1.363 . S
C1330 N1328 1.356 . S
C1331 C1325 1.363 . S
C1331 C1326 1.379 . S
C1331 N1329 1.356 . S
N1332 C1324 1.356 . S
N1332 H1338 0.984 . S
N1332 H1339 0.984 . S
N1333 C1326 1.356 . S
N1333 H1336 0.984 . S
N1333 H1337 0.985 . S
H1334 N1329 0.984 . S
H1335 N1329 0.985 . S
H1336 N1333 0.984 . S
H1337 N1333 0.985 . S
H1338 N1332 0.984 . S
H1339 N1332 0.984 . S
H1340 N1328 0.984 . S
H1341 N1328 0.985 . S
C1342 C1343 1.363 . S
C1342 C1348 1.379 . S
C1342 N1350 1.356 . S
C1343 C1342 1.363 . S
C1343 C1349 1.363 . S
C1344 C1345 1.363 . S
C1344 C1349 1.379 . S
C1344 N1351 1.356 . S
C1345 C1344 1.363 . S
C1345 C1348 1.363 . S
N1346 C1348 1.356 . S
N1346 H1358 0.984 . S
N1346 H1359 0.985 . S
N1347 C1349 1.356 . S
N1347 H1352 0.984 . S
N1347 H1353 0.985 . S
C1348 C1342 1.379 . S
C1348 C1345 1.363 . S
C1348 N1346 1.356 . S
C1349 C1343 1.363 . S
C1349 C1344 1.379 . S
C1349 N1347 1.356 . S
N1350 C1342 1.356 . S
N1350 H1356 0.984 . S
N1350 H1357 0.984 . S
N1351 C1344 1.356 . S
N1351 H1354 0.984 . S
N1351 H1355 0.985 . S
H1352 N1347 0.984 . S
H1353 N1347 0.985 . S
H1354 N1351 0.984 . S
H1355 N1351 0.985 . S
H1356 N1350 0.984 . S
H1357 N1350 0.984 . S
H1358 N1346 0.984 . S
H1359 N1346 0.985 . S
C1360 C1361 1.363 . S
C1360 C1366 1.379 . S
C1360 N1368 1.356 . S
C1361 C1360 1.363 . S
C1361 C1367 1.363 . S
C1362 C1363 1.363 . S
C1362 C1367 1.379 . S
C1362 N1369 1.356 . S
C1363 C1362 1.363 . S
C1363 C1366 1.363 . S
N1364 C1366 1.356 . S
N1364 H1376 0.984 . S
N1364 H1377 0.985 . S
N1365 C1367 1.356 . S
N1365 H1370 0.984 . S
N1365 H1371 0.985 . S
C1366 C1360 1.379 . S
C1366 C1363 1.363 . S
C1366 N1364 1.356 . S
C1367 C1361 1.363 . S
C1367 C1362 1.379 . S
C1367 N1365 1.356 . S
N1368 C1360 1.356 . S
N1368 H1374 0.984 . S
N1368 H1375 0.984 1_554 S
N1369 C1362 1.356 . S
N1369 H1372 0.984 . S
N1369 H1373 0.985 . S
H1370 N1365 0.984 . S
H1371 N1365 0.985 . S
H1372 N1369 0.984 . S
H1373 N1369 0.985 . S
H1374 N1368 0.984 . S
H1375 N1368 0.984 1_556 S
H1376 N1364 0.984 . S
H1377 N1364 0.985 . S
C1378 C1379 1.363 . S
C1378 C1384 1.379 . S
C1378 N1386 1.356 . S
C1379 C1378 1.363 . S
C1379 C1385 1.363 . S
C1380 C1381 1.363 . S
C1380 C1385 1.379 . S
C1380 N1387 1.356 . S
C1381 C1380 1.363 . S
C1381 C1384 1.363 . S
N1382 C1384 1.356 . S
N1382 H1394 0.984 . S
N1382 H1395 0.985 1_556 S
N1383 C1385 1.356 . S
N1383 H1388 0.984 . S
N1383 H1389 0.985 . S
C1384 C1378 1.379 . S
C1384 C1381 1.363 . S
C1384 N1382 1.356 . S
C1385 C1379 1.363 . S
C1385 C1380 1.379 . S
C1385 N1383 1.356 . S
N1386 C1378 1.356 . S
N1386 H1392 0.984 . S
N1386 H1393 0.984 . S
N1387 C1380 1.356 . S
N1387 H1390 0.984 . S
N1387 H1391 0.985 . S
H1388 N1383 0.984 . S
H1389 N1383 0.985 . S
H1390 N1387 0.984 . S
H1391 N1387 0.985 . S
H1392 N1386 0.984 . S
H1393 N1386 0.984 . S
H1394 N1382 0.984 . S
H1395 N1382 0.985 1_554 S
C1396 C1397 1.363 . S
C1396 C1402 1.379 . S
C1396 N1404 1.356 . S
C1397 C1396 1.363 . S
C1397 C1403 1.363 . S
C1398 C1399 1.363 . S
C1398 C1403 1.379 . S
C1398 N1405 1.356 . S
C1399 C1398 1.363 . S
C1399 C1402 1.363 . S
N1400 C1402 1.356 . S
N1400 H1412 0.984 . S
N1400 H1413 0.985 . S
N1401 C1403 1.356 . S
N1401 H1406 0.984 . S
N1401 H1407 0.985 . S
C1402 C1396 1.379 . S
C1402 C1399 1.363 . S
C1402 N1400 1.356 . S
C1403 C1397 1.363 . S
C1403 C1398 1.379 . S
C1403 N1401 1.356 . S
N1404 C1396 1.356 . S
N1404 H1410 0.984 . S
N1404 H1411 0.984 . S
N1405 C1398 1.356 . S
N1405 H1408 0.984 1_554 S
N1405 H1409 0.985 . S
H1406 N1401 0.984 . S
H1407 N1401 0.985 . S
H1408 N1405 0.984 1_556 S
H1409 N1405 0.985 . S
H1410 N1404 0.984 . S
H1411 N1404 0.984 . S
H1412 N1400 0.984 . S
H1413 N1400 0.985 . S
C1414 C1415 1.363 . S
C1414 C1420 1.379 . S
C1414 N1422 1.356 . S
C1415 C1414 1.363 . S
C1415 C1421 1.363 . S
C1416 C1417 1.363 . S
C1416 C1421 1.379 . S
C1416 N1423 1.356 . S
C1417 C1416 1.363 . S
C1417 C1420 1.363 . S
N1418 C1420 1.356 . S
N1418 H1430 0.984 . S
N1418 H1431 0.985 . S
N1419 C1421 1.356 . S
N1419 H1424 0.984 1_556 S
N1419 H1425 0.985 . S
C1420 C1414 1.379 . S
C1420 C1417 1.363 . S
C1420 N1418 1.356 . S
C1421 C1415 1.363 . S
C1421 C1416 1.379 . S
C1421 N1419 1.356 . S
N1422 C1414 1.356 . S
N1422 H1428 0.984 . S
N1422 H1429 0.984 . S
N1423 C1416 1.356 . S
N1423 H1426 0.984 . S
N1423 H1427 0.985 . S
H1424 N1419 0.984 1_554 S
H1425 N1419 0.985 . S
H1426 N1423 0.984 . S
H1427 N1423 0.985 . S
H1428 N1422 0.984 . S
H1429 N1422 0.984 . S
H1430 N1418 0.984 . S
H1431 N1418 0.985 . S
C1432 C1433 1.363 . S
C1432 C1438 1.379 . S
C1432 N1440 1.356 . S
C1433 C1432 1.363 . S
C1433 C1439 1.363 . S
C1434 C1435 1.363 . S
C1434 C1439 1.379 . S
C1434 N1441 1.356 . S
C1435 C1434 1.363 . S
C1435 C1438 1.363 . S
N1436 C1438 1.356 . S
N1436 H1448 0.984 . S
N1436 H1449 0.985 . S
N1437 C1439 1.356 . S
N1437 H1442 0.984 . S
N1437 H1443 0.985 . S
C1438 C1432 1.379 . S
C1438 C1435 1.363 . S
C1438 N1436 1.356 . S
C1439 C1433 1.363 . S
C1439 C1434 1.379 . S
C1439 N1437 1.356 . S
N1440 C1432 1.356 . S
N1440 H1446 0.984 . S
N1440 H1447 0.984 . S
N1441 C1434 1.356 . S
N1441 H1444 0.998 . S
N1441 H1445 0.985 . S
H1442 N1437 0.984 . S
H1443 N1437 0.985 . S
H1444 N1441 0.998 . S
H1445 N1441 0.985 . S
H1446 N1440 0.984 . S
H1447 N1440 0.984 . S
H1448 N1436 0.984 . S
H1449 N1436 0.985 . S
C1450 C1451 1.363 . S
C1450 C1456 1.379 . S
C1450 N1458 1.356 . S
C1451 C1450 1.363 . S
C1451 C1457 1.363 . S
C1452 C1453 1.363 . S
C1452 C1457 1.379 . S
C1452 N1459 1.356 . S
C1453 C1452 1.363 . S
C1453 C1456 1.363 . S
N1454 C1456 1.356 . S
N1454 H1466 0.984 . S
N1454 H1467 0.985 . S
N1455 C1457 1.356 . S
N1455 H1460 0.984 . S
N1455 H1461 0.985 . S
C1456 C1450 1.379 . S
C1456 C1453 1.363 . S
C1456 N1454 1.356 . S
C1457 C1451 1.363 . S
C1457 C1452 1.379 . S
C1457 N1455 1.356 . S
N1458 C1450 1.356 . S
N1458 H1464 0.984 . S
N1458 H1465 0.984 1_556 S
N1459 C1452 1.356 . S
N1459 H1462 0.984 . S
N1459 H1463 0.985 . S
H1460 N1455 0.984 . S
H1461 N1455 0.985 . S
H1462 N1459 0.984 . S
H1463 N1459 0.985 . S
H1464 N1458 0.984 . S
H1465 N1458 0.984 1_554 S
H1466 N1454 0.984 . S
H1467 N1454 0.985 . S
C1468 C1469 1.363 . S
C1468 C1474 1.379 . S
C1468 N1476 1.356 . S
C1469 C1468 1.363 . S
C1469 C1475 1.363 . S
C1470 C1471 1.363 . S
C1470 C1475 1.379 . S
C1470 N1477 1.356 . S
C1471 C1470 1.363 . S
C1471 C1474 1.363 . S
N1472 C1474 1.356 . S
N1472 H1484 0.984 . S
N1472 H1485 0.985 . S
N1473 C1475 1.356 . S
N1473 H1478 0.984 1_554 S
N1473 H1479 0.985 . S
C1474 C1468 1.379 . S
C1474 C1471 1.363 . S
C1474 N1472 1.356 . S
C1475 C1469 1.363 . S
C1475 C1470 1.379 . S
C1475 N1473 1.356 . S
N1476 C1468 1.356 . S
N1476 H1482 0.984 . S
N1476 H1483 0.984 . S
N1477 C1470 1.356 . S
N1477 H1480 0.984 . S
N1477 H1481 0.985 . S
H1478 N1473 0.984 1_556 S
H1479 N1473 0.985 . S
H1480 N1477 0.984 . S
H1481 N1477 0.985 . S
H1482 N1476 0.984 . S
H1483 N1476 0.984 . S
H1484 N1472 0.984 . S
H1485 N1472 0.985 . S
C1486 C1487 1.363 . S
C1486 C1492 1.379 . S
C1486 N1494 1.356 . S
C1487 C1486 1.363 . S
C1487 C1493 1.363 . S
C1488 C1489 1.363 . S
C1488 C1493 1.379 . S
C1488 N1495 1.356 . S
C1489 C1488 1.363 . S
C1489 C1492 1.363 . S
N1490 C1492 1.356 . S
N1490 H1502 0.984 . S
N1490 H1503 0.985 1_556 S
N1491 C1493 1.356 . S
N1491 H1496 0.984 . S
N1491 H1497 0.985 . S
C1492 C1486 1.379 . S
C1492 C1489 1.363 . S
C1492 N1490 1.356 . S
C1493 C1487 1.363 . S
C1493 C1488 1.379 . S
C1493 N1491 1.356 . S
N1494 C1486 1.356 . S
N1494 H1500 0.984 . S
N1494 H1501 0.984 . S
N1495 C1488 1.356 . S
N1495 H1498 0.984 . S
N1495 H1499 0.985 . S
H1496 N1491 0.984 . S
H1497 N1491 0.985 . S
H1498 N1495 0.984 . S
H1499 N1495 0.985 . S
H1500 N1494 0.984 . S
H1501 N1494 0.984 . S
H1502 N1490 0.984 . S
H1503 N1490 0.985 1_554 S
C641 C443 1.804 . S
C643 C15 1.761 1_565 S
C659 C342 1.804 . S
C661 C42 1.761 1_655 S
C677 C95 1.761 1_545 S
C679 C363 1.804 . S
C695 C122 1.761 1_455 S
C697 C422 1.804 . S
C713 C175 1.761 . S
C715 C203 1.804 1_554 S
C731 C262 1.804 1_556 S
C733 C202 1.761 . S
C749 C255 1.761 . S
C751 C283 1.804 1_554 S
C767 C182 1.804 1_556 S
C769 C282 1.761 . S
C785 C123 1.804 . S
C787 C335 1.761 . S
C803 C362 1.761 . S
C805 C22 1.804 . S
C821 C43 1.804 . S
C823 C415 1.761 . S
C839 C102 1.804 . S
C841 C442 1.761 . S
C857 C495 1.761 1_545 S
C859 C523 1.804 . S
C875 C582 1.804 . S
C877 C522 1.761 1_455 S
C893 C603 1.804 . S
C895 C575 1.761 1_565 S
C911 C602 1.761 1_655 S
C913 C502 1.804 . S
C929 C2 1.263 . S
C931 C162 1.263 . S
C947 C215 1.263 . S
C949 C55 1.263 . S
C965 C82 1.263 . S
C967 C242 1.263 . S
C983 C135 1.263 . S
C985 C295 1.263 . S
C1001 C322 1.263 . S
C1003 C482 1.263 . S
C1019 C535 1.263 . S
C1021 C375 1.263 . S
C1037 C402 1.263 . S
C1039 C562 1.263 . S
C1055 C455 1.263 . S
C1057 C615 1.263 . S
C1073 C563 2.519 . S
C1075 C3 2.519 1_556 S
C1091 C62 2.519 1_554 S
C1093 C622 2.519 . S
C1109 C83 2.519 1_556 S
C1111 C483 2.519 . S
C1127 C142 2.519 1_554 S
C1129 C542 2.519 . S
C1145 C163 2.519 . S
C1147 C403 2.519 . S
C1163 C222 2.519 . S
C1165 C462 2.519 . S
C1181 C243 2.519 . S
C1183 C323 2.519 . S
C1199 C382 2.519 . S
C1201 C302 2.519 . S
C1217 C9 1.196 . S
C1219 C26 1.196 . S
C1235 C66 1.196 . S
C1237 C49 1.196 . S
C1253 C89 1.196 . S
C1255 C106 1.196 . S
C1271 C129 1.196 . S
C1273 C146 1.196 . S
C1289 C186 1.196 . S
C1291 C169 1.196 . S
C1307 C226 1.196 . S
C1309 C209 1.196 . S
C1325 C249 1.196 . S
C1327 C266 1.196 . S
C1343 C289 1.196 . S
C1345 C306 1.196 . S
C1361 C329 1.196 . S
C1363 C346 1.196 . S
C1379 C369 1.196 . S
C1381 C386 1.196 . S
C1397 C426 1.196 . S
C1399 C409 1.196 . S
C1415 C466 1.196 . S
C1417 C449 1.196 . S
C1433 C489 1.196 . S
C1435 C506 1.196 . S
C1451 C529 1.196 . S
C1453 C546 1.196 . S
C1469 C586 1.196 . S
C1471 C569 1.196 . S
C1487 C626 1.196 . S
C1489 C609 1.196 . S
