# Generated by pormake.
# Topology sxa, (6)-cn, num edge types: 1
# Building blocks:
#     Node 0, Type 0, BuildingBlock: IZENUY_clean_sbu_0, # of connection points: 6
#     Node 1, Type 0, BuildingBlock: IZENUY_clean_sbu_0, # of connection points: 6
#     Node 2, Type 0, BuildingBlock: IZENUY_clean_sbu_0, # of connection points: 6
#     Node 3, Type 0, BuildingBlock: IZENUY_clean_sbu_0, # of connection points: 6
#     Edge 4, Type (0, 0), BuildingBlock: ZUJKAS_clean_linker_0, # of connection points: 2
#     Edge 5, Type (0, 0), BuildingBlock: ZUJKAS_clean_linker_0, # of connection points: 2
#     Edge 6, Type (0, 0), BuildingBlock: ZUJKAS_clean_linker_0, # of connection points: 2
#     Edge 7, Type (0, 0), BuildingBlock: ZUJKAS_clean_linker_0, # of connection points: 2
#     Edge 8, Type (0, 0), BuildingBlock: ZUJKAS_clean_linker_0, # of connection points: 2
#     Edge 9, Type (0, 0), BuildingBlock: ZUJKAS_clean_linker_0, # of connection points: 2
#     Edge 10, Type (0, 0), BuildingBlock: ZUJKAS_clean_linker_0, # of connection points: 2
#     Edge 11, Type (0, 0), BuildingBlock: ZUJKAS_clean_linker_0, # of connection points: 2
#     Edge 12, Type (0, 0), BuildingBlock: ZUJKAS_clean_linker_0, # of connection points: 2
#     Edge 13, Type (0, 0), BuildingBlock: ZUJKAS_clean_linker_0, # of connection points: 2
#     Edge 14, Type (0, 0), BuildingBlock: ZUJKAS_clean_linker_0, # of connection points: 2
#     Edge 15, Type (0, 0), BuildingBlock: ZUJKAS_clean_linker_0, # of connection points: 2
# Relax obj value: 0.274
# Max RMSD: 0.267
# Mean RMSD: 0.267
data_MOF--net-sxa--node1-IZENUY_clean_sbu_0--edge1-ZUJKAS_clean_linker_0
_symmetry_space_group_name_H-M    P1
_symmetry_Int_Tables_number       1
_symmetry_cell_setting            triclinic
loop_
_symmetry_equiv_pos_as_xyz
'x, y, z'
_cell_length_a     30.952677
_cell_length_b     35.075485
_cell_length_c     22.345369
_cell_angle_alpha  90.24741
_cell_angle_beta   90.141534
_cell_angle_gamma 90.120596
loop_
_atom_site_label
_atom_site_type_symbol
_atom_site_fract_x
_atom_site_fract_y
_atom_site_fract_z
_atom_type_partial_charge
Fe0 Fe 0.03057 0.83758 0.30168 0.0
Fe1 Fe 0.01511 0.74941 0.30023 0.0
O2 O 0.02329 0.79358 0.26239 0.0
Fe3 Fe 0.02419 0.79377 0.18304 0.0
O4 O 0.08022 0.80761 0.18388 0.0
O5 O 0.07232 0.85476 0.24925 0.0
O6 O 0.07461 0.8189 0.34585 0.0
C7 C 0.07929 0.7872 0.37131 0.0
C8 C -0.01279 0.86633 0.20542 0.0
O9 O 0.05377 0.75958 0.36113 0.0
C10 C 0.95379 0.74974 0.20454 0.0
O11 O -0.00959 0.82717 0.36011 0.0
O12 O 0.9699 0.76793 0.34236 0.0
O13 O 0.00762 0.84326 0.17294 0.0
O14 O -0.01275 0.86192 0.26131 0.0
C15 C 0.06092 0.72122 0.20559 0.0
O16 O 0.97492 0.73234 0.24501 0.0
O17 O 0.96814 0.77986 0.18065 0.0
C18 C 0.96458 0.79957 0.36822 0.0
O19 O 0.05947 0.72523 0.2616 0.0
O20 O 0.04111 0.74437 0.17269 0.0
C21 C 0.09444 0.83723 0.20984 0.0
Fe22 Fe 0.52509 0.28832 0.18122 0.0
Fe23 Fe 0.53227 0.33403 0.29791 0.0
O24 O 0.52483 0.28939 0.26054 0.0
Fe25 Fe 0.51693 0.24579 0.30011 0.0
O26 O 0.56088 0.22091 0.26155 0.0
O27 O 0.54153 0.23877 0.17241 0.0
O28 O 0.58116 0.30197 0.18056 0.0
C29 C 0.5953 0.33244 0.20416 0.0
C30 C 0.45461 0.24506 0.20575 0.0
O31 O 0.57388 0.35017 0.24422 0.0
C32 C 0.4667 0.2971 0.36679 0.0
O33 O 0.50912 0.33766 0.16937 0.0
O34 O 0.48867 0.35783 0.25675 0.0
O35 O 0.47612 0.22805 0.24627 0.0
O36 O 0.46893 0.27471 0.18039 0.0
C37 C 0.5816 0.28467 0.3689 0.0
O38 O 0.49226 0.32469 0.35703 0.0
O39 O 0.47216 0.26499 0.34246 0.0
C40 C 0.4894 0.36172 0.20078 0.0
O41 O 0.57651 0.31608 0.34264 0.0
O42 O 0.5562 0.25681 0.35982 0.0
C43 C 0.56192 0.21626 0.20564 0.0
Fe44 Fe 0.03132 0.29233 0.91851 0.0
Fe45 Fe 0.01859 0.33712 0.8021 0.0
O46 O 0.02783 0.29291 0.83927 0.0
Fe47 Fe 0.03394 0.24909 0.7991 0.0
O48 O -0.00918 0.225 0.84027 0.0
O49 O 0.0137 0.243 0.92828 0.0
O50 O 0.97578 0.30688 0.92466 0.0
C51 C 0.96069 0.33704 0.90191 0.0
C52 C 0.09953 0.24775 0.88864 0.0
O53 O 0.9798 0.35396 0.85911 0.0
C54 C 0.08177 0.29982 0.72921 0.0
O55 O 0.04934 0.34151 0.92856 0.0
O56 O 0.0638 0.36153 0.83882 0.0
O57 O 0.07585 0.23083 0.85026 0.0
O58 O 0.08713 0.27789 0.91461 0.0
C59 C 0.96704 0.28731 0.7347 0.0
O60 O 0.05587 0.32707 0.73966 0.0
O61 O 0.07771 0.268 0.75466 0.0
C62 C 0.06702 0.36542 0.89472 0.0
O63 O 0.97225 0.31856 0.76177 0.0
O64 O -0.00658 0.26006 0.74128 0.0
C65 C -0.00839 0.22064 0.89625 0.0
Fe66 Fe 0.51757 0.83405 0.80318 0.0
Fe67 Fe 0.53203 0.74587 0.79902 0.0
O68 O 0.52815 0.78978 0.83937 0.0
Fe69 Fe 0.53539 0.78909 0.91811 0.0
O70 O 0.47997 0.80309 0.92899 0.0
O71 O 0.48072 0.85025 0.86296 0.0
O72 O 0.46996 0.81575 0.76534 0.0
C73 C 0.46332 0.78441 0.73911 0.0
C74 C 0.5691 0.86245 0.89253 0.0
O75 O 0.48915 0.75675 0.74481 0.0
C76 C 0.60219 0.74512 0.88137 0.0
O77 O 0.55293 0.82421 0.73867 0.0
O78 O 0.57369 0.76447 0.75058 0.0
O79 O 0.55292 0.83838 0.92737 0.0
O80 O 0.56385 0.85861 0.83696 0.0
C81 C 0.4955 0.71712 0.89984 0.0
O82 O 0.57631 0.72775 0.84634 0.0
O83 O 0.59114 0.77524 0.90867 0.0
C84 C 0.57775 0.79657 0.72594 0.0
O85 O 0.49059 0.72221 0.84442 0.0
O86 O 0.51936 0.73952 0.92918 0.0
C87 C 0.46345 0.83296 0.90695 0.0
H88 H 0.08614 0.37859 1.0121 0.0
H89 H 0.0963 0.43985 0.06205 0.0
H90 H 0.09323 0.49663 0.89139 0.0
H91 H 0.08183 0.4351 0.84079 0.0
H92 H 0.15419 0.49826 0.05949 0.0
H93 H -0.00575 0.54783 0.97851 0.0
H94 H 0.01184 0.49913 0.97013 0.0
H95 H 0.03115 0.53525 0.91987 0.0
C96 C 0.08822 0.40399 0.98484 0.0
C97 C 0.08257 0.4018 0.92228 0.0
C98 C 0.09409 0.43912 1.01366 0.0
C99 C 0.09444 0.47313 0.98086 0.0
C100 C 0.09196 0.47092 0.91796 0.0
H101 H 0.08221 0.71087 0.08877 0.0
H102 H 0.09538 0.65097 1.03627 0.0
C103 C 0.08597 0.43562 0.88893 0.0
C104 C 0.09475 0.51059 1.01319 0.0
H105 H 0.03533 0.59154 1.03545 0.0
C106 C 0.12825 0.5187 0.05407 0.0
C107 C 0.06063 0.53718 1.00697 0.0
C108 C 0.02219 0.52939 0.96699 0.0
C109 C 0.12886 0.55275 0.08795 0.0
C110 C 0.09488 0.57934 0.08133 0.0
C111 C 0.06151 0.57127 1.0404 0.0
C112 C 0.09306 0.61599 0.11559 0.0
C113 C 0.16615 0.56029 0.12992 0.0
C114 C 0.08848 0.61666 0.17829 0.0
C115 C 0.08099 0.65121 0.20884 0.0
C116 C 0.0776 0.68566 0.17709 0.0
C117 C 0.08442 0.68494 0.11477 0.0
C118 C 0.09189 0.65062 0.0845 0.0
H119 H 0.1942 0.54161 0.11999 0.0
H120 H 0.1767 0.59052 0.12727 0.0
H121 H 0.15568 0.55471 0.17653 0.0
H122 H 0.08862 0.59029 0.20331 0.0
H123 H 0.07545 0.65061 0.25666 0.0
H124 H 0.42824 0.41547 0.23562 0.0
H125 H 0.41016 0.47536 0.18371 0.0
H126 H 0.50767 0.45112 0.05139 0.0
H127 H 0.52392 0.39152 0.10029 0.0
H128 H 0.45139 0.53712 0.16267 0.0
H129 H 0.41499 0.47877 0.94018 0.0
H130 H 0.42079 0.44833 1.00452 0.0
H131 H 0.46745 0.46222 0.96123 0.0
C132 C 0.4452 0.42281 0.19492 0.0
C133 C 0.47686 0.39822 0.17157 0.0
C134 C 0.4349 0.45703 0.16519 0.0
C135 C 0.4564 0.46741 0.11201 0.0
C136 C 0.4889 0.44327 0.09027 0.0
H137 H 0.53518 0.68334 0.99352 0.0
H138 H 0.51681 0.62461 1.04383 0.0
C139 C 0.49849 0.40908 0.11892 0.0
C140 C 0.44787 0.50445 0.0809 0.0
H141 H 0.4442 0.54393 0.94115 0.0
C142 C 0.44886 0.53846 0.11431 0.0
C143 C 0.44291 0.50684 1.0178 0.0
C144 C 0.43593 0.47198 0.97915 0.0
C145 C 0.44874 0.57433 0.08626 0.0
C146 C 0.44964 0.57649 1.02281 0.0
C147 C 0.44485 0.54264 0.98963 0.0
C148 C 0.45974 0.61283 0.99063 0.0
C149 C 0.44805 0.60951 0.12534 0.0
C150 C 0.43544 0.62527 0.94088 0.0
C151 C 0.44675 0.65895 0.91032 0.0
C152 C 0.48234 0.6809 0.92938 0.0
C153 C 0.50684 0.66785 0.97835 0.0
C154 C 0.4961 0.6342 1.00782 0.0
H155 H 0.42944 0.60424 0.16696 0.0
H156 H 0.48157 0.61689 0.13889 0.0
H157 H 0.43356 0.63423 0.10186 0.0
H158 H 0.40762 0.60905 0.92585 0.0
H159 H 0.42744 0.66803 0.87252 0.0
H160 H 0.57624 0.93337 0.84008 0.0
H161 H 0.58835 0.99447 0.89172 0.0
H162 H 0.60734 0.93493 0.05809 0.0
H163 H 0.59632 0.87427 1.00697 0.0
H164 H 0.53697 1.02213 0.97944 0.0
H165 H 0.70315 1.01199 0.06936 0.0
H166 H 0.68307 0.98017 1.01193 0.0
H167 H 0.67069 0.97164 0.08944 0.0
C168 C 0.58444 0.93325 0.88722 0.0
C169 C 0.58534 0.8988 0.91924 0.0
C170 C 0.59104 0.96825 0.91688 0.0
C171 C 0.59917 0.9695 0.97894 0.0
C172 C 0.60212 0.93498 1.01016 0.0
H173 H 0.57411 0.14519 0.25643 0.0
H174 H 0.58717 0.08494 0.20237 0.0
C175 C 0.59551 0.90016 0.98072 0.0
C176 C 0.59992 1.00657 1.01233 0.0
H177 H 0.65764 0.05957 0.11416 0.0
C178 C 0.56365 1.03045 1.00827 0.0
C179 C 0.63445 1.01745 0.0507 0.0
C180 C 0.67521 0.99414 0.05523 0.0
C181 C 0.56056 0.06425 1.04211 0.0
C182 C 0.59485 0.07491 0.0808 0.0
C183 C 0.63125 0.05125 0.08485 0.0
C184 C 0.59353 0.11132 0.11547 0.0
C185 C 0.52015 0.08805 1.03707 0.0
C186 C 0.59466 0.14618 0.0851 0.0
C187 C 0.58743 0.18039 0.11571 0.0
C188 C 0.57896 0.18073 0.17763 0.0
C189 C 0.58077 0.14601 0.2089 0.0
C190 C 0.588 0.11154 0.17797 0.0
H191 H 0.49321 0.07205 1.01556 0.0
H192 H 0.50946 0.098 0.0819 0.0
H193 H 0.52707 0.11357 1.0095 0.0
H194 H 0.59944 0.14679 1.0371 0.0
H195 H 0.5866 0.20659 0.09021 0.0
H196 H 0.97225 0.87925 0.08711 0.0
H197 H 0.96113 0.94027 1.0376 0.0
H198 H 0.95627 0.99666 0.20923 0.0
H199 H 0.96832 0.93539 0.25945 0.0
H200 H 0.89949 0.99716 1.03979 0.0
H201 H 0.05668 0.05056 0.12698 0.0
H202 H 0.04064 1.00126 0.13284 0.0
H203 H 0.01903 1.03621 0.18362 0.0
C204 C 0.96822 0.9045 0.11461 0.0
C205 C 0.97173 0.90235 0.17741 0.0
C206 C 0.96178 0.93946 0.08606 0.0
C207 C 0.95883 0.97331 0.11942 0.0
C208 C 0.95942 0.97106 0.18235 0.0
H209 H 0.97143 0.21101 1.01339 0.0
H210 H 0.95788 0.15141 0.06597 0.0
C211 C 0.96584 0.93592 0.21111 0.0
C212 C 0.95796 1.01079 0.08781 0.0
H213 H 0.01591 0.09289 0.06825 0.0
C214 C 0.92485 1.01818 1.04621 0.0
C215 C -0.00869 1.03811 0.09546 0.0
C216 C 0.02918 1.03115 0.13667 0.0
C217 C 0.92387 0.05226 1.01289 0.0
C218 C 0.95724 0.07952 1.02064 0.0
C219 C -0.00981 0.07214 0.06238 0.0
C220 C 0.95901 0.11606 0.98649 0.0
C221 C 0.88682 0.05902 0.97033 0.0
C222 C 0.96298 0.11647 0.9237 0.0
C223 C 0.97051 0.15085 0.89315 0.0
C224 C 0.97469 0.18539 0.92497 0.0
C225 C 0.96856 0.18497 0.9874 0.0
C226 C 0.9609 0.15083 1.01768 0.0
H227 H 0.85864 1.04056 0.98076 0.0
H228 H 0.87639 0.08929 0.97171 0.0
H229 H 0.89743 0.05236 0.92406 0.0
H230 H 0.9624 0.09001 0.89856 0.0
H231 H 0.97559 0.15004 0.84522 0.0
H232 H 0.40811 0.84063 0.70248 0.0
H233 H 0.34352 0.8345 0.64014 0.0
H234 H 0.36431 0.71341 0.62534 0.0
H235 H 0.42946 0.7192 0.68774 0.0
H236 H 0.33979 0.80061 0.51777 0.0
H237 H 0.23483 0.72708 0.68344 0.0
H238 H 0.28163 0.75457 0.70584 0.0
H239 H 0.28844 0.70869 0.67154 0.0
C240 C 0.3991 0.8126 0.68616 0.0
C241 C 0.4242 0.78039 0.70035 0.0
C242 C 0.36207 0.80918 0.65041 0.0
C243 C 0.34881 0.77348 0.62851 0.0
C244 C 0.37367 0.74121 0.64231 0.0
H245 H 0.11415 0.72093 0.41711 0.0
H246 H 0.17996 0.71459 0.47811 0.0
C247 C 0.41106 0.74462 0.67774 0.0
C248 C 0.30947 0.77059 0.59016 0.0
H249 H 0.20393 0.74135 0.58978 0.0
C250 C 0.31015 0.78747 0.53337 0.0
C251 C 0.27094 0.75309 0.61027 0.0
C252 C 0.26845 0.73492 0.6712 0.0
C253 C 0.27328 0.78777 0.49644 0.0
C254 C 0.23408 0.77176 0.51752 0.0
C255 C 0.23377 0.75381 0.57366 0.0
C256 C 0.19284 0.7752 0.48308 0.0
C257 C 0.27689 0.80505 0.43491 0.0
C258 C 0.17727 0.81132 0.46715 0.0
C259 C 0.13998 0.81501 0.43225 0.0
C260 C 0.1167 0.78265 0.41293 0.0
C261 C 0.1312 0.74645 0.43111 0.0
C262 C 0.1689 0.74279 0.46588 0.0
H263 H 0.31072 0.80434 0.41841 0.0
H264 H 0.25594 0.7899 0.4021 0.0
H265 H 0.26673 0.83535 0.43697 0.0
H266 H 0.19427 0.83685 0.48129 0.0
H267 H 0.12966 0.8434 0.4199 0.0
H268 H 0.13266 0.24439 0.68012 0.0
H269 H 0.19615 0.25193 0.61685 0.0
H270 H 0.1794 0.37385 0.61921 0.0
H271 H 0.11527 0.36661 0.68302 0.0
H272 H 0.20253 0.28928 0.50101 0.0
H273 H 0.30756 0.35611 0.67503 0.0
H274 H 0.25925 0.32983 0.69387 0.0
H275 H 0.25507 0.37669 0.66263 0.0
C276 C 0.14218 0.27291 0.66716 0.0
C277 C 0.11866 0.30491 0.68697 0.0
C278 C 0.17862 0.27713 0.63085 0.0
C279 C 0.19296 0.31344 0.61379 0.0
C280 C 0.1693 0.34554 0.63244 0.0
H281 H 0.43285 0.36384 0.41334 0.0
H282 H 0.36602 0.37136 0.47144 0.0
C283 C 0.13242 0.34133 0.66854 0.0
C284 C 0.23264 0.31705 0.57636 0.0
H285 H 0.33914 0.34349 0.58133 0.0
C286 C 0.23229 0.30143 0.51842 0.0
C287 C 0.27146 0.33313 0.59882 0.0
C288 C 0.27381 0.34977 0.66109 0.0
C289 C 0.26971 0.30085 0.48279 0.0
C290 C 0.30912 0.31531 0.50621 0.0
C291 C 0.30912 0.33219 0.5634 0.0
C292 C 0.35085 0.31112 0.47322 0.0
C293 C 0.26654 0.28474 0.42019 0.0
C294 C 0.36544 0.27476 0.45636 0.0
C295 C 0.40338 0.27039 0.42318 0.0
C296 C 0.42829 0.30226 0.40641 0.0
C297 C 0.41459 0.33865 0.42533 0.0
C298 C 0.3763 0.343 0.45849 0.0
H299 H 0.23304 0.28666 0.40249 0.0
H300 H 0.28854 0.29988 0.38907 0.0
H301 H 0.27565 0.25417 0.42089 0.0
H302 H 0.34722 0.24958 0.46856 0.0
H303 H 0.41294 0.24186 0.41016 0.0
H304 H 0.93401 0.22161 0.68353 0.0
H305 H 0.86932 0.21528 0.62012 0.0
H306 H 0.84867 0.33651 0.63167 0.0
H307 H 0.91266 0.34317 0.69488 0.0
H308 H 0.77949 0.24167 0.65003 0.0
H309 H 0.84807 0.31018 0.44784 0.0
H310 H 0.88148 0.29012 0.50613 0.0
H311 H 0.85651 0.33582 0.51674 0.0
C312 C 0.91588 0.24697 0.67225 0.0
C313 C 0.92884 0.28294 0.69427 0.0
C314 C 0.87879 0.24326 0.63619 0.0
C315 C 0.85432 0.27547 0.62072 0.0
C316 C 0.86725 0.31131 0.64245 0.0
H317 H 0.63296 0.34136 0.4143 0.0
H318 H 0.69759 0.33543 0.47594 0.0
C319 C 0.90392 0.31501 0.6788 0.0
C320 C 0.81488 0.27206 0.58259 0.0
H321 H 0.77212 0.30103 0.44923 0.0
C322 C 0.77791 0.25422 0.60581 0.0
C323 C 0.81283 0.28853 0.52501 0.0
C324 C 0.85188 0.307 0.49702 0.0
C325 C 0.73844 0.25388 0.57405 0.0
C326 C 0.73613 0.27112 0.51684 0.0
C327 C 0.77361 0.28794 0.49307 0.0
C328 C 0.69495 0.27392 0.48189 0.0
C329 C 0.69919 0.23658 0.60329 0.0
C330 C 0.6713 0.24133 0.46465 0.0
C331 C 0.63372 0.24467 0.42957 0.0
C332 C 0.61929 0.28065 0.41025 0.0
C333 C 0.64293 0.31314 0.4281 0.0
C334 C 0.68011 0.30981 0.46339 0.0
H335 H 0.70357 0.23356 0.65241 0.0
H336 H 0.67 0.25413 0.59492 0.0
H337 H 0.69345 0.20774 0.58426 0.0
H338 H 0.68243 0.21321 0.47706 0.0
H339 H 0.61669 0.21899 0.41619 0.0
H340 H 0.9309 0.86554 0.41734 0.0
H341 H 0.86579 0.87184 0.47949 0.0
H342 H 0.84649 0.75024 0.47107 0.0
H343 H 0.91092 0.7436 0.40947 0.0
H344 H 0.77748 0.84633 0.45004 0.0
H345 H 0.84285 0.7761 0.65268 0.0
H346 H 0.87714 0.79507 0.59461 0.0
H347 H 0.85105 0.74964 0.58466 0.0
C348 C 0.91302 0.8401 0.42919 0.0
C349 C 0.92648 0.80403 0.4085 0.0
C350 C 0.87569 0.84379 0.46449 0.0
C351 C 0.85146 0.81147 0.48047 0.0
C352 C 0.86492 0.77554 0.46006 0.0
H353 H 0.62708 0.7413 0.67356 0.0
H354 H 0.69184 0.74911 0.61312 0.0
C355 C 0.90185 0.77185 0.42458 0.0
C356 C 0.81162 0.81477 0.51753 0.0
H357 H 0.76649 0.78354 0.64788 0.0
C358 C 0.77513 0.83308 0.49368 0.0
C359 C 0.80857 0.79747 0.57444 0.0
C360 C 0.84707 0.77874 0.6035 0.0
C361 C 0.73517 0.83293 0.52395 0.0
C362 C 0.73181 0.81455 0.58012 0.0
C363 C 0.76881 0.79742 0.60472 0.0
C364 C 0.69002 0.81075 0.613 0.0
C365 C 0.69648 0.85092 0.49428 0.0
C366 C 0.66667 0.84282 0.63267 0.0
C367 C 0.62905 0.83843 0.66717 0.0
C368 C 0.61429 0.80186 0.68328 0.0
C369 C 0.63733 0.76992 0.66228 0.0
C370 C 0.67459 0.77433 0.62771 0.0
H371 H 0.70192 0.85576 0.44577 0.0
H372 H 0.6673 0.8328 0.49967 0.0
H373 H 0.68999 0.87894 0.51562 0.0
H374 H 0.67824 0.87127 0.623 0.0
H375 H 0.6125 0.86367 0.68306 0.0
H376 H 0.41196 0.80004 0.99038 0.0
H377 H 0.35331 0.82934 1.04614 0.0
H378 H 0.37327 0.93516 0.9524 0.0
H379 H 0.43219 0.90576 0.89525 0.0
H380 H 0.35645 0.89689 0.12104 0.0
H381 H 0.24338 0.90906 0.92695 0.0
H382 H 0.29027 0.8787 0.92265 0.0
H383 H 0.2967 0.92952 0.92271 0.0
C384 C 0.40397 0.82953 0.98139 0.0
C385 C 0.42662 0.85054 0.93828 0.0
C386 C 0.37062 0.8463 1.01357 0.0
C387 C 0.35925 0.88441 1.00351 0.0
C388 C 0.38159 0.90566 0.96052 0.0
H389 H 0.12377 0.91078 0.22394 0.0
H390 H 0.18892 0.93887 0.17881 0.0
C391 C 0.41503 0.88876 0.92786 0.0
C392 C 0.32242 0.90021 1.03702 0.0
H393 H 0.21319 0.90693 1.02284 0.0
C394 C 0.32524 0.90078 0.09974 0.0
C395 C 0.282 0.9056 1.00885 0.0
C396 C 0.27749 0.90572 0.9416 0.0
C397 C 0.28789 0.90154 0.13496 0.0
C398 C 0.24727 0.9019 0.10639 0.0
C399 C 0.2447 0.90657 1.04422 0.0
C400 C 0.20914 0.88627 0.13672 0.0
C401 C 0.29172 0.89722 0.20185 0.0
C402 C 0.19988 0.84752 0.12841 0.0
C403 C 0.16317 0.83154 0.15365 0.0
C404 C 0.13501 0.85405 0.18789 0.0
C405 C 0.14502 0.89277 0.19781 0.0
C406 C 0.18195 0.90889 0.17203 0.0
H407 H 0.32507 0.90311 0.21796 0.0
H408 H 0.26898 0.9168 0.22488 0.0
H409 H 0.2829 0.86761 0.21439 0.0
H410 H 0.2209 0.8297 0.10152 0.0
H411 H 0.15659 0.80159 0.14567 0.0
H412 H 0.16792 0.28126 0.94344 0.0
H413 H 0.22861 0.24974 0.99228 0.0
H414 H 0.17975 0.14004 0.93614 0.0
H415 H 0.11867 0.17153 0.88602 0.0
H416 H 0.20326 0.17269 0.08204 0.0
H417 H 0.32642 0.16644 0.90198 0.0
H418 H 0.29053 0.20679 0.90025 0.0
H419 H 0.26925 0.15972 0.88798 0.0
C420 C 0.17034 0.25048 0.94072 0.0
C421 C 0.13859 0.22882 0.91125 0.0
C422 C 0.20493 0.23256 0.96853 0.0
C423 C 0.20821 0.19273 0.96775 0.0
C424 C 0.1775 0.17085 0.93686 0.0
H425 H 0.43135 0.16959 0.21023 0.0
H426 H 0.37117 0.13899 0.15596 0.0
C427 C 0.14292 0.18888 0.90821 0.0
C428 C 0.24286 0.17521 1.00307 0.0
H429 H 0.35263 0.17573 1.00273 0.0
C430 C 0.23594 0.17127 0.06473 0.0
C431 C 0.28511 0.17329 0.97996 0.0
C432 C 0.29349 0.17648 0.91377 0.0
C433 C 0.27087 0.17099 0.10471 0.0
C434 C 0.31306 0.17468 0.08185 0.0
C435 C 0.32002 0.173 1.0199 0.0
C436 C 0.34737 0.19173 0.11879 0.0
C437 C 0.26243 0.17184 0.17109 0.0
C438 C 0.35283 0.23135 0.11641 0.0
C439 C 0.38679 0.24876 0.14678 0.0
C440 C 0.41582 0.22682 0.18034 0.0
C441 C 0.40925 0.18717 0.18484 0.0
C442 C 0.3752 0.16963 0.15379 0.0
H443 H 0.22908 0.16236 0.18184 0.0
H444 H 0.28587 0.15334 0.19489 0.0
H445 H 0.26682 0.20141 0.18804 0.0
H446 H 0.33127 0.24874 0.08974 0.0
H447 H 0.39088 0.27934 0.1429 0.0
H448 H 0.62842 0.40406 0.22607 0.0
H449 H 0.68821 0.43528 0.17298 0.0
H450 H 0.70705 0.33342 0.06754 0.0
H451 H 0.64824 0.3022 0.11966 0.0
H452 H 0.77551 0.41042 0.16373 0.0
H453 H 0.7002 0.41826 0.94075 0.0
H454 H 0.66889 0.41407 1.00871 0.0
H455 H 0.69075 0.37223 0.97282 0.0
C456 C 0.64547 0.38834 0.19168 0.0
C457 C 0.63337 0.35073 0.17677 0.0
C458 C 0.67928 0.40633 0.16119 0.0
C459 C 0.7009 0.38703 0.11513 0.0
C460 C 0.6897 0.34922 0.1016 0.0
H461 H 0.91758 0.31183 0.99997 0.0
H462 H 0.85801 0.34216 0.05149 0.0
C463 C 0.65632 0.33127 0.13195 0.0
C464 C 0.73764 0.40425 0.0832 0.0
H465 H 0.77839 0.40328 0.94194 0.0
C466 C 0.77599 0.41054 0.11519 0.0
C467 C 0.73802 0.40573 1.02 0.0
C468 C 0.69704 0.40265 0.98369 0.0
C469 C 0.81569 0.41215 0.08534 0.0
C470 C 0.81657 0.40657 1.02264 0.0
C471 C 0.77775 0.40658 0.99023 0.0
C472 C 0.8553 0.39113 0.9929 0.0
C473 C 0.85658 0.4162 0.12161 0.0
C474 C 0.87254 0.40789 0.9413 0.0
C475 C 0.90673 0.39029 0.91105 0.0
C476 C 0.92358 0.35544 0.93163 0.0
C477 C 0.90565 0.33869 0.9829 0.0
C478 C 0.87191 0.35631 1.01304 0.0
H479 H 0.85121 0.43497 0.16106 0.0
H480 H 0.86637 0.38778 0.13851 0.0
H481 H 0.88337 0.42806 0.09439 0.0
H482 H 0.85943 0.43437 0.9244 0.0
H483 H 0.91984 0.40389 0.87162 0.0
H484 H 0.89149 0.7837 0.13842 0.0
H485 H 0.83442 0.75265 0.08074 0.0
H486 H 0.87364 0.64306 0.14837 0.0
H487 H 0.93123 0.67408 0.20713 0.0
H488 H 0.85974 0.68317 0.99363 0.0
H489 H 0.73184 0.66026 0.16463 0.0
H490 H 0.7684 0.69983 0.1754 0.0
H491 H 0.78843 0.65199 0.18011 0.0
C492 C 0.88773 0.75306 0.14172 0.0
C493 C 0.91591 0.73129 0.1769 0.0
C494 C 0.85522 0.73539 0.10875 0.0
C495 C 0.85038 0.69569 0.11016 0.0
C496 C 0.87719 0.67377 0.14693 0.0
H497 H 0.61598 0.66898 0.89572 0.0
H498 H 0.6796 0.63906 0.94189 0.0
C499 C 0.90977 0.69155 0.18053 0.0
C500 C 0.81805 0.67831 0.07028 0.0
H501 H 0.70872 0.66971 0.06392 0.0
C502 C 0.8269 0.6784 1.00877 0.0
C503 C 0.77558 0.67173 0.09046 0.0
C504 C 0.7652 0.67067 0.1563 0.0
C505 C 0.79326 0.6774 0.96686 0.0
C506 C 0.75028 0.6764 0.98748 0.0
C507 C 0.7419 0.67067 1.04847 0.0
C508 C 0.7151 0.69194 0.95072 0.0
C509 C 0.80353 0.68169 0.90134 0.0
C510 C 0.71454 0.73136 0.94044 0.0
C511 C 0.67827 0.74849 0.91554 0.0
C512 C 0.6423 0.72633 0.89974 0.0
C513 C 0.64369 0.68653 0.90707 0.0
C514 C 0.67979 0.66944 0.93333 0.0
H515 H 0.83622 0.67049 0.8909 0.0
H516 H 0.77925 0.66663 0.87316 0.0
H517 H 0.80293 0.7124 0.88955 0.0
H518 H 0.74137 0.74918 0.9546 0.0
H519 H 0.67781 0.77919 0.91026 0.0
loop_
_geom_bond_atom_site_label_1
_geom_bond_atom_site_label_2
_geom_bond_distance
_geom_bond_site_symmetry_2
_ccdc_geom_bond_type
Fe0 O2 1.918 . S
Fe0 O5 1.997 . S
Fe0 O6 2.002 . S
Fe0 O11 1.976 . S
Fe0 O14 1.996 . S
Fe1 O2 1.918 . S
Fe1 O9 1.997 . S
Fe1 O12 1.996 1_455 S
Fe1 O16 1.976 1_455 S
Fe1 O19 2.002 . S
O2 Fe0 1.918 . S
O2 Fe1 1.918 . S
O2 Fe3 1.918 . S
Fe3 O2 1.918 . S
Fe3 O4 2.002 . S
Fe3 O13 1.976 . S
Fe3 O17 1.996 1_455 S
Fe3 O20 1.997 . S
O4 Fe3 2.002 . S
O4 C21 1.295 . S
O5 Fe0 1.997 . S
O5 C21 1.235 . S
O6 Fe0 2.002 . S
O6 C7 1.295 . S
C7 O6 1.295 . S
C7 O9 1.235 . S
C8 O13 1.287 . S
C8 O14 1.255 . S
O9 Fe1 1.997 . S
O9 C7 1.235 . S
C10 O16 1.287 . S
C10 O17 1.255 . S
O11 Fe0 1.976 . S
O11 C18 1.287 1_455 S
O12 Fe1 1.996 1_655 S
O12 C18 1.255 . S
O13 Fe3 1.976 . S
O13 C8 1.287 . S
O14 Fe0 1.996 . S
O14 C8 1.255 . S
C15 O19 1.295 . S
C15 O20 1.235 . S
O16 Fe1 1.976 1_655 S
O16 C10 1.287 . S
O17 Fe3 1.996 1_655 S
O17 C10 1.255 . S
C18 O11 1.287 1_655 S
C18 O12 1.255 . S
O19 Fe1 2.002 . S
O19 C15 1.295 . S
O20 Fe3 1.997 . S
O20 C15 1.235 . S
C21 O4 1.295 . S
C21 O5 1.235 . S
Fe22 O24 1.918 . S
Fe22 O27 1.997 . S
Fe22 O28 2.002 . S
Fe22 O33 1.976 . S
Fe22 O36 1.996 . S
Fe23 O24 1.918 . S
Fe23 O31 1.997 . S
Fe23 O34 1.996 . S
Fe23 O38 1.976 . S
Fe23 O41 2.002 . S
O24 Fe22 1.918 . S
O24 Fe23 1.918 . S
O24 Fe25 1.918 . S
Fe25 O24 1.918 . S
Fe25 O26 2.002 . S
Fe25 O35 1.976 . S
Fe25 O39 1.996 . S
Fe25 O42 1.997 . S
O26 Fe25 2.002 . S
O26 C43 1.295 . S
O27 Fe22 1.997 . S
O27 C43 1.235 . S
O28 Fe22 2.002 . S
O28 C29 1.295 . S
C29 O28 1.295 . S
C29 O31 1.235 . S
C30 O35 1.287 . S
C30 O36 1.255 . S
O31 Fe23 1.997 . S
O31 C29 1.235 . S
C32 O38 1.287 . S
C32 O39 1.255 . S
O33 Fe22 1.976 . S
O33 C40 1.287 . S
O34 Fe23 1.996 . S
O34 C40 1.255 . S
O35 Fe25 1.976 . S
O35 C30 1.287 . S
O36 Fe22 1.996 . S
O36 C30 1.255 . S
C37 O41 1.295 . S
C37 O42 1.235 . S
O38 Fe23 1.976 . S
O38 C32 1.287 . S
O39 Fe25 1.996 . S
O39 C32 1.255 . S
C40 O33 1.287 . S
C40 O34 1.255 . S
O41 Fe23 2.002 . S
O41 C37 1.295 . S
O42 Fe25 1.997 . S
O42 C37 1.235 . S
C43 O26 1.295 . S
C43 O27 1.235 . S
Fe44 O46 1.918 . S
Fe44 O49 1.997 . S
Fe44 O50 2.002 1_455 S
Fe44 O55 1.976 . S
Fe44 O58 1.996 . S
Fe45 O46 1.918 . S
Fe45 O53 1.997 1_455 S
Fe45 O56 1.996 . S
Fe45 O60 1.976 . S
Fe45 O63 2.002 1_455 S
O46 Fe44 1.918 . S
O46 Fe45 1.918 . S
O46 Fe47 1.918 . S
Fe47 O46 1.918 . S
Fe47 O48 2.002 . S
Fe47 O57 1.976 . S
Fe47 O61 1.996 . S
Fe47 O64 1.997 . S
O48 Fe47 2.002 . S
O48 C65 1.295 . S
O49 Fe44 1.997 . S
O49 C65 1.235 . S
O50 Fe44 2.002 1_655 S
O50 C51 1.295 . S
C51 O50 1.295 . S
C51 O53 1.235 . S
C52 O57 1.287 . S
C52 O58 1.255 . S
O53 Fe45 1.997 1_655 S
O53 C51 1.235 . S
C54 O60 1.287 . S
C54 O61 1.255 . S
O55 Fe44 1.976 . S
O55 C62 1.287 . S
O56 Fe45 1.996 . S
O56 C62 1.255 . S
O57 Fe47 1.976 . S
O57 C52 1.287 . S
O58 Fe44 1.996 . S
O58 C52 1.255 . S
C59 O63 1.295 . S
C59 O64 1.235 1_655 S
O60 Fe45 1.976 . S
O60 C54 1.287 . S
O61 Fe47 1.996 . S
O61 C54 1.255 . S
C62 O55 1.287 . S
C62 O56 1.255 . S
O63 Fe45 2.002 1_655 S
O63 C59 1.295 . S
O64 Fe47 1.997 . S
O64 C59 1.235 1_455 S
C65 O48 1.295 . S
C65 O49 1.235 . S
Fe66 O68 1.918 . S
Fe66 O71 1.997 . S
Fe66 O72 2.002 . S
Fe66 O77 1.976 . S
Fe66 O80 1.996 . S
Fe67 O68 1.918 . S
Fe67 O75 1.997 . S
Fe67 O78 1.996 . S
Fe67 O82 1.976 . S
Fe67 O85 2.002 . S
O68 Fe66 1.918 . S
O68 Fe67 1.918 . S
O68 Fe69 1.918 . S
Fe69 O68 1.918 . S
Fe69 O70 2.002 . S
Fe69 O79 1.976 . S
Fe69 O83 1.996 . S
Fe69 O86 1.997 . S
O70 Fe69 2.002 . S
O70 C87 1.295 . S
O71 Fe66 1.997 . S
O71 C87 1.235 . S
O72 Fe66 2.002 . S
O72 C73 1.295 . S
C73 O72 1.295 . S
C73 O75 1.235 . S
C74 O79 1.287 . S
C74 O80 1.255 . S
O75 Fe67 1.997 . S
O75 C73 1.235 . S
C76 O82 1.287 . S
C76 O83 1.255 . S
O77 Fe66 1.976 . S
O77 C84 1.287 . S
O78 Fe67 1.996 . S
O78 C84 1.255 . S
O79 Fe69 1.976 . S
O79 C74 1.287 . S
O80 Fe66 1.996 . S
O80 C74 1.255 . S
C81 O85 1.295 . S
C81 O86 1.235 . S
O82 Fe67 1.976 . S
O82 C76 1.287 . S
O83 Fe69 1.996 . S
O83 C76 1.255 . S
C84 O77 1.287 . S
C84 O78 1.255 . S
O85 Fe67 2.002 . S
O85 C81 1.295 . S
O86 Fe69 1.997 . S
O86 C81 1.235 . S
C87 O70 1.295 . S
C87 O71 1.235 . S
H88 C96 0.929 . S
H89 C98 0.930 1_554 S
H90 C100 0.930 . S
H91 C103 0.929 . S
H92 C106 0.930 . S
H93 C108 0.960 . S
H94 C108 0.960 . S
H95 C108 0.960 1_455 S
C96 H88 0.929 . S
C96 C97 1.377 . S
C96 C98 1.384 . S
C97 C96 1.377 . S
C97 C103 1.390 . S
C98 H89 0.930 1_556 S
C98 C96 1.384 . S
C98 C99 1.372 . S
C99 C98 1.372 . S
C99 C100 1.400 . S
C99 C104 1.490 . S
C100 H90 0.930 . S
C100 C99 1.400 . S
C100 C103 1.386 . S
H101 C117 0.930 . S
H102 C118 0.931 1_556 S
C103 H91 0.929 . S
C103 C97 1.390 . S
C103 C100 1.386 . S
C104 C99 1.490 . S
C104 C106 1.395 1_556 S
C104 C107 1.403 . S
H105 C111 0.930 . S
C106 H92 0.930 . S
C106 C104 1.395 1_554 S
C106 C109 1.403 . S
C107 C104 1.403 . S
C107 C108 1.524 1_455 S
C107 C111 1.400 . S
C108 H93 0.960 . S
C108 H94 0.960 . S
C108 H95 0.960 1_655 S
C108 C107 1.524 1_655 S
C109 C106 1.403 . S
C109 C110 1.392 . S
C109 C113 1.495 . S
C110 C109 1.392 . S
C110 C111 1.385 1_554 S
C110 C112 1.478 . S
C111 H105 0.930 . S
C111 C107 1.400 . S
C111 C110 1.385 1_556 S
C112 C110 1.478 . S
C112 C114 1.381 . S
C112 C118 1.383 . S
C113 C109 1.495 . S
C113 H119 0.959 . S
C113 H120 0.961 . S
C113 H121 0.960 . S
C114 C112 1.381 . S
C114 C115 1.394 . S
C114 H122 0.930 . S
C115 C114 1.394 . S
C115 C116 1.383 . S
C115 H123 0.929 . S
C116 C115 1.383 . S
C116 C117 1.377 . S
C117 H101 0.930 . S
C117 C116 1.377 . S
C117 C118 1.379 . S
C118 H102 0.931 1_554 S
C118 C112 1.383 . S
C118 C117 1.379 . S
H119 C113 0.959 . S
H120 C113 0.961 . S
H121 C113 0.960 . S
H122 C114 0.930 . S
H123 C115 0.929 . S
H124 C132 0.929 . S
H125 C134 0.930 . S
H126 C136 0.930 . S
H127 C139 0.929 . S
H128 C142 0.930 . S
H129 C144 0.960 . S
H130 C144 0.960 . S
H131 C144 0.960 . S
C132 H124 0.929 . S
C132 C133 1.377 . S
C132 C134 1.384 . S
C133 C132 1.377 . S
C133 C139 1.390 . S
C134 H125 0.930 . S
C134 C132 1.384 . S
C134 C135 1.372 . S
C135 C134 1.372 . S
C135 C136 1.400 . S
C135 C140 1.490 . S
C136 H126 0.930 . S
C136 C135 1.400 . S
C136 C139 1.386 . S
H137 C153 0.930 . S
H138 C154 0.931 . S
C139 H127 0.929 . S
C139 C133 1.390 . S
C139 C136 1.386 . S
C140 C135 1.490 . S
C140 C142 1.395 . S
C140 C143 1.403 1_554 S
H141 C147 0.930 . S
C142 H128 0.930 . S
C142 C140 1.395 . S
C142 C145 1.403 . S
C143 C140 1.403 1_556 S
C143 C144 1.524 . S
C143 C147 1.400 . S
C144 H129 0.960 . S
C144 H130 0.960 . S
C144 H131 0.960 . S
C144 C143 1.524 . S
C145 C142 1.403 . S
C145 C146 1.392 1_554 S
C145 C149 1.495 . S
C146 C145 1.392 1_556 S
C146 C147 1.385 . S
C146 C148 1.478 . S
C147 H141 0.930 . S
C147 C143 1.400 . S
C147 C146 1.385 . S
C148 C146 1.478 . S
C148 C150 1.381 . S
C148 C154 1.383 . S
C149 C145 1.495 . S
C149 H155 0.959 . S
C149 H156 0.961 . S
C149 H157 0.960 . S
C150 C148 1.381 . S
C150 C151 1.394 . S
C150 H158 0.930 . S
C151 C150 1.394 . S
C151 C152 1.383 . S
C151 H159 0.929 . S
C152 C151 1.383 . S
C152 C153 1.377 . S
C153 H137 0.930 . S
C153 C152 1.377 . S
C153 C154 1.379 . S
C154 H138 0.931 . S
C154 C148 1.383 . S
C154 C153 1.379 . S
H155 C149 0.959 . S
H156 C149 0.961 . S
H157 C149 0.960 . S
H158 C150 0.930 . S
H159 C151 0.929 . S
H160 C168 0.929 . S
H161 C170 0.930 . S
H162 C172 0.930 1_554 S
H163 C175 0.929 . S
H164 C178 0.930 . S
H165 C180 0.960 . S
H166 C180 0.960 . S
H167 C180 0.960 . S
C168 H160 0.929 . S
C168 C169 1.377 . S
C168 C170 1.384 . S
C169 C168 1.377 . S
C169 C175 1.390 . S
C170 H161 0.930 . S
C170 C168 1.384 . S
C170 C171 1.372 . S
C171 C170 1.372 . S
C171 C172 1.400 . S
C171 C176 1.490 . S
C172 H162 0.930 1_556 S
C172 C171 1.400 . S
C172 C175 1.386 . S
H173 C189 0.930 . S
H174 C190 0.931 . S
C175 H163 0.929 . S
C175 C169 1.390 . S
C175 C172 1.386 . S
C176 C171 1.490 . S
C176 C178 1.395 . S
C176 C179 1.403 . S
H177 C183 0.930 . S
C178 H164 0.930 . S
C178 C176 1.395 . S
C178 C181 1.403 1_566 S
C179 C176 1.403 . S
C179 C180 1.524 . S
C179 C183 1.400 1_566 S
C180 H165 0.960 . S
C180 H166 0.960 . S
C180 H167 0.960 . S
C180 C179 1.524 . S
C181 C178 1.403 1_544 S
C181 C182 1.392 . S
C181 C185 1.495 . S
C182 C181 1.392 . S
C182 C183 1.385 . S
C182 C184 1.478 . S
C183 H177 0.930 . S
C183 C179 1.400 1_544 S
C183 C182 1.385 . S
C184 C182 1.478 . S
C184 C186 1.381 . S
C184 C190 1.383 . S
C185 C181 1.495 . S
C185 H191 0.959 . S
C185 H192 0.961 . S
C185 H193 0.960 . S
C186 C184 1.381 . S
C186 C187 1.394 . S
C186 H194 0.930 1_554 S
C187 C186 1.394 . S
C187 C188 1.383 . S
C187 H195 0.929 . S
C188 C187 1.383 . S
C188 C189 1.377 . S
C189 H173 0.930 . S
C189 C188 1.377 . S
C189 C190 1.379 . S
C190 H174 0.931 . S
C190 C184 1.383 . S
C190 C189 1.379 . S
H191 C185 0.959 . S
H192 C185 0.961 . S
H193 C185 0.960 . S
H194 C186 0.930 1_556 S
H195 C187 0.929 . S
H196 C204 0.929 . S
H197 C206 0.930 . S
H198 C208 0.930 1_655 S
H199 C211 0.929 1_655 S
H200 C214 0.930 . S
H201 C216 0.974 . S
H202 C216 0.952 1_565 S
H203 C216 0.954 1_565 S
C204 H196 0.929 . S
C204 C205 1.377 . S
C204 C206 1.384 . S
C205 C204 1.377 . S
C205 C211 1.390 . S
C206 H197 0.930 . S
C206 C204 1.384 . S
C206 C207 1.372 . S
C207 C206 1.372 . S
C207 C208 1.400 . S
C207 C212 1.490 . S
C208 H198 0.930 1_455 S
C208 C207 1.400 . S
C208 C211 1.386 . S
H209 C225 0.930 . S
H210 C226 0.931 . S
C211 H199 0.929 1_455 S
C211 C205 1.390 . S
C211 C208 1.386 . S
C212 C207 1.490 . S
C212 C214 1.395 1_554 S
C212 C215 1.425 . S
H213 C219 0.930 . S
C214 H200 0.930 . S
C214 C212 1.395 1_556 S
C214 C217 1.394 1_565 S
C215 C212 1.425 . S
C215 C216 1.523 1_565 S
C215 C219 1.378 1_565 S
C216 H201 0.974 . S
C216 H202 0.952 1_545 S
C216 H203 0.954 1_545 S
C216 C215 1.523 1_545 S
C217 C214 1.394 1_545 S
C217 C218 1.402 . S
C217 C221 1.495 1_545 S
C218 C217 1.402 . S
C218 C219 1.385 1_556 S
C218 C220 1.478 . S
C219 H213 0.930 . S
C219 C215 1.378 1_545 S
C219 C218 1.385 1_554 S
C220 C218 1.478 . S
C220 C222 1.381 . S
C220 C226 1.383 1_455 S
C221 C217 1.495 1_565 S
C221 H227 0.967 . S
C221 H228 0.957 1_465 S
C221 H229 0.956 1_565 S
C222 C220 1.381 . S
C222 C223 1.394 . S
C222 H230 0.930 . S
C223 C222 1.394 . S
C223 C224 1.383 . S
C223 H231 0.929 . S
C224 C223 1.383 . S
C224 C225 1.377 1_455 S
C225 H209 0.930 . S
C225 C224 1.377 1_655 S
C225 C226 1.379 . S
C226 H210 0.931 . S
C226 C220 1.383 1_655 S
C226 C225 1.379 . S
H227 C221 0.967 . S
H228 C221 0.957 1_645 S
H229 C221 0.956 1_545 S
H230 C222 0.930 . S
H231 C223 0.929 . S
H232 C240 0.929 . S
H233 C242 0.930 . S
H234 C244 0.930 . S
H235 C247 0.929 . S
H236 C250 0.930 . S
H237 C252 0.960 . S
H238 C252 0.960 . S
H239 C252 0.960 . S
C240 H232 0.929 . S
C240 C241 1.377 . S
C240 C242 1.384 . S
C241 C240 1.377 . S
C241 C247 1.390 . S
C242 H233 0.930 . S
C242 C240 1.384 . S
C242 C243 1.372 . S
C243 C242 1.372 . S
C243 C244 1.400 . S
C243 C248 1.490 . S
C244 H234 0.930 . S
C244 C243 1.400 . S
C244 C247 1.386 . S
H245 C261 0.930 . S
H246 C262 0.931 . S
C247 H235 0.929 . S
C247 C241 1.390 . S
C247 C244 1.386 . S
C248 C243 1.490 . S
C248 C250 1.395 . S
C248 C251 1.403 . S
H249 C255 0.930 . S
C250 H236 0.930 . S
C250 C248 1.395 . S
C250 C253 1.403 . S
C251 C248 1.403 . S
C251 C252 1.524 . S
C251 C255 1.400 . S
C252 H237 0.960 . S
C252 H238 0.960 . S
C252 H239 0.960 . S
C252 C251 1.524 . S
C253 C250 1.403 . S
C253 C254 1.392 . S
C253 C257 1.495 . S
C254 C253 1.392 . S
C254 C255 1.385 . S
C254 C256 1.478 . S
C255 H249 0.930 . S
C255 C251 1.400 . S
C255 C254 1.385 . S
C256 C254 1.478 . S
C256 C258 1.381 . S
C256 C262 1.383 . S
C257 C253 1.495 . S
C257 H263 0.959 . S
C257 H264 0.961 . S
C257 H265 0.960 . S
C258 C256 1.381 . S
C258 C259 1.394 . S
C258 H266 0.930 . S
C259 C258 1.394 . S
C259 C260 1.383 . S
C259 H267 0.929 . S
C260 C259 1.383 . S
C260 C261 1.377 . S
C261 H245 0.930 . S
C261 C260 1.377 . S
C261 C262 1.379 . S
C262 H246 0.931 . S
C262 C256 1.383 . S
C262 C261 1.379 . S
H263 C257 0.959 . S
H264 C257 0.961 . S
H265 C257 0.960 . S
H266 C258 0.930 . S
H267 C259 0.929 . S
H268 C276 0.929 . S
H269 C278 0.930 . S
H270 C280 0.930 . S
H271 C283 0.929 . S
H272 C286 0.930 . S
H273 C288 0.960 . S
H274 C288 0.960 . S
H275 C288 0.960 . S
C276 H268 0.929 . S
C276 C277 1.377 . S
C276 C278 1.384 . S
C277 C276 1.377 . S
C277 C283 1.390 . S
C278 H269 0.930 . S
C278 C276 1.384 . S
C278 C279 1.372 . S
C279 C278 1.372 . S
C279 C280 1.400 . S
C279 C284 1.490 . S
C280 H270 0.930 . S
C280 C279 1.400 . S
C280 C283 1.386 . S
H281 C297 0.930 . S
H282 C298 0.931 . S
C283 H271 0.929 . S
C283 C277 1.390 . S
C283 C280 1.386 . S
C284 C279 1.490 . S
C284 C286 1.395 . S
C284 C287 1.403 . S
H285 C291 0.930 . S
C286 H272 0.930 . S
C286 C284 1.395 . S
C286 C289 1.403 . S
C287 C284 1.403 . S
C287 C288 1.524 . S
C287 C291 1.400 . S
C288 H273 0.960 . S
C288 H274 0.960 . S
C288 H275 0.960 . S
C288 C287 1.524 . S
C289 C286 1.403 . S
C289 C290 1.392 . S
C289 C293 1.495 . S
C290 C289 1.392 . S
C290 C291 1.385 . S
C290 C292 1.478 . S
C291 H285 0.930 . S
C291 C287 1.400 . S
C291 C290 1.385 . S
C292 C290 1.478 . S
C292 C294 1.381 . S
C292 C298 1.383 . S
C293 C289 1.495 . S
C293 H299 0.959 . S
C293 H300 0.961 . S
C293 H301 0.960 . S
C294 C292 1.381 . S
C294 C295 1.394 . S
C294 H302 0.930 . S
C295 C294 1.394 . S
C295 C296 1.383 . S
C295 H303 0.929 . S
C296 C295 1.383 . S
C296 C297 1.377 . S
C297 H281 0.930 . S
C297 C296 1.377 . S
C297 C298 1.379 . S
C298 H282 0.931 . S
C298 C292 1.383 . S
C298 C297 1.379 . S
H299 C293 0.959 . S
H300 C293 0.961 . S
H301 C293 0.960 . S
H302 C294 0.930 . S
H303 C295 0.929 . S
H304 C312 0.929 . S
H305 C314 0.930 . S
H306 C316 0.930 . S
H307 C319 0.929 . S
H308 C322 0.930 . S
H309 C324 0.960 . S
H310 C324 0.960 . S
H311 C324 0.960 . S
C312 H304 0.929 . S
C312 C313 1.377 . S
C312 C314 1.384 . S
C313 C312 1.377 . S
C313 C319 1.390 . S
C314 H305 0.930 . S
C314 C312 1.384 . S
C314 C315 1.372 . S
C315 C314 1.372 . S
C315 C316 1.400 . S
C315 C320 1.490 . S
C316 H306 0.930 . S
C316 C315 1.400 . S
C316 C319 1.386 . S
H317 C333 0.930 . S
H318 C334 0.931 . S
C319 H307 0.929 . S
C319 C313 1.390 . S
C319 C316 1.386 . S
C320 C315 1.490 . S
C320 C322 1.395 . S
C320 C323 1.403 . S
H321 C327 0.930 . S
C322 H308 0.930 . S
C322 C320 1.395 . S
C322 C325 1.403 . S
C323 C320 1.403 . S
C323 C324 1.524 . S
C323 C327 1.400 . S
C324 H309 0.960 . S
C324 H310 0.960 . S
C324 H311 0.960 . S
C324 C323 1.524 . S
C325 C322 1.403 . S
C325 C326 1.392 . S
C325 C329 1.495 . S
C326 C325 1.392 . S
C326 C327 1.385 . S
C326 C328 1.478 . S
C327 H321 0.930 . S
C327 C323 1.400 . S
C327 C326 1.385 . S
C328 C326 1.478 . S
C328 C330 1.381 . S
C328 C334 1.383 . S
C329 C325 1.495 . S
C329 H335 0.959 . S
C329 H336 0.961 . S
C329 H337 0.960 . S
C330 C328 1.381 . S
C330 C331 1.394 . S
C330 H338 0.930 . S
C331 C330 1.394 . S
C331 C332 1.383 . S
C331 H339 0.929 . S
C332 C331 1.383 . S
C332 C333 1.377 . S
C333 H317 0.930 . S
C333 C332 1.377 . S
C333 C334 1.379 . S
C334 H318 0.931 . S
C334 C328 1.383 . S
C334 C333 1.379 . S
H335 C329 0.959 . S
H336 C329 0.961 . S
H337 C329 0.960 . S
H338 C330 0.930 . S
H339 C331 0.929 . S
H340 C348 0.929 . S
H341 C350 0.930 . S
H342 C352 0.930 . S
H343 C355 0.929 . S
H344 C358 0.930 . S
H345 C360 0.960 . S
H346 C360 0.960 . S
H347 C360 0.960 . S
C348 H340 0.929 . S
C348 C349 1.377 . S
C348 C350 1.384 . S
C349 C348 1.377 . S
C349 C355 1.390 . S
C350 H341 0.930 . S
C350 C348 1.384 . S
C350 C351 1.372 . S
C351 C350 1.372 . S
C351 C352 1.400 . S
C351 C356 1.490 . S
C352 H342 0.930 . S
C352 C351 1.400 . S
C352 C355 1.386 . S
H353 C369 0.930 . S
H354 C370 0.931 . S
C355 H343 0.929 . S
C355 C349 1.390 . S
C355 C352 1.386 . S
C356 C351 1.490 . S
C356 C358 1.395 . S
C356 C359 1.403 . S
H357 C363 0.930 . S
C358 H344 0.930 . S
C358 C356 1.395 . S
C358 C361 1.403 . S
C359 C356 1.403 . S
C359 C360 1.524 . S
C359 C363 1.400 . S
C360 H345 0.960 . S
C360 H346 0.960 . S
C360 H347 0.960 . S
C360 C359 1.524 . S
C361 C358 1.403 . S
C361 C362 1.392 . S
C361 C365 1.495 . S
C362 C361 1.392 . S
C362 C363 1.385 . S
C362 C364 1.478 . S
C363 H357 0.930 . S
C363 C359 1.400 . S
C363 C362 1.385 . S
C364 C362 1.478 . S
C364 C366 1.381 . S
C364 C370 1.383 . S
C365 C361 1.495 . S
C365 H371 0.959 . S
C365 H372 0.961 . S
C365 H373 0.960 . S
C366 C364 1.381 . S
C366 C367 1.394 . S
C366 H374 0.930 . S
C367 C366 1.394 . S
C367 C368 1.383 . S
C367 H375 0.929 . S
C368 C367 1.383 . S
C368 C369 1.377 . S
C369 H353 0.930 . S
C369 C368 1.377 . S
C369 C370 1.379 . S
C370 H354 0.931 . S
C370 C364 1.383 . S
C370 C369 1.379 . S
H371 C365 0.959 . S
H372 C365 0.961 . S
H373 C365 0.960 . S
H374 C366 0.930 . S
H375 C367 0.929 . S
H376 C384 0.929 . S
H377 C386 0.930 . S
H378 C388 0.930 . S
H379 C391 0.929 . S
H380 C394 0.930 . S
H381 C396 0.960 . S
H382 C396 0.960 . S
H383 C396 0.960 . S
C384 H376 0.929 . S
C384 C385 1.377 . S
C384 C386 1.384 . S
C385 C384 1.377 . S
C385 C391 1.390 . S
C386 H377 0.930 . S
C386 C384 1.384 . S
C386 C387 1.372 . S
C387 C386 1.372 . S
C387 C388 1.400 . S
C387 C392 1.490 . S
C388 H378 0.930 . S
C388 C387 1.400 . S
C388 C391 1.386 . S
H389 C405 0.930 . S
H390 C406 0.931 . S
C391 H379 0.929 . S
C391 C385 1.390 . S
C391 C388 1.386 . S
C392 C387 1.490 . S
C392 C394 1.395 1_556 S
C392 C395 1.403 . S
H393 C399 0.930 . S
C394 H380 0.930 . S
C394 C392 1.395 1_554 S
C394 C397 1.403 . S
C395 C392 1.403 . S
C395 C396 1.524 . S
C395 C399 1.400 . S
C396 H381 0.960 . S
C396 H382 0.960 . S
C396 H383 0.960 . S
C396 C395 1.524 . S
C397 C394 1.403 . S
C397 C398 1.392 . S
C397 C401 1.495 . S
C398 C397 1.392 . S
C398 C399 1.385 1_554 S
C398 C400 1.478 . S
C399 H393 0.930 . S
C399 C395 1.400 . S
C399 C398 1.385 1_556 S
C400 C398 1.478 . S
C400 C402 1.381 . S
C400 C406 1.383 . S
C401 C397 1.495 . S
C401 H407 0.959 . S
C401 H408 0.961 . S
C401 H409 0.960 . S
C402 C400 1.381 . S
C402 C403 1.394 . S
C402 H410 0.930 . S
C403 C402 1.394 . S
C403 C404 1.383 . S
C403 H411 0.929 . S
C404 C403 1.383 . S
C404 C405 1.377 . S
C405 H389 0.930 . S
C405 C404 1.377 . S
C405 C406 1.379 . S
C406 H390 0.931 . S
C406 C400 1.383 . S
C406 C405 1.379 . S
H407 C401 0.959 . S
H408 C401 0.961 . S
H409 C401 0.960 . S
H410 C402 0.930 . S
H411 C403 0.929 . S
H412 C420 0.929 . S
H413 C422 0.930 . S
H414 C424 0.930 . S
H415 C427 0.929 . S
H416 C430 0.930 . S
H417 C432 0.960 . S
H418 C432 0.960 . S
H419 C432 0.960 . S
C420 H412 0.929 . S
C420 C421 1.377 . S
C420 C422 1.384 . S
C421 C420 1.377 . S
C421 C427 1.390 . S
C422 H413 0.930 . S
C422 C420 1.384 . S
C422 C423 1.372 . S
C423 C422 1.372 . S
C423 C424 1.400 . S
C423 C428 1.490 . S
C424 H414 0.930 . S
C424 C423 1.400 . S
C424 C427 1.386 . S
H425 C441 0.930 . S
H426 C442 0.931 . S
C427 H415 0.929 . S
C427 C421 1.390 . S
C427 C424 1.386 . S
C428 C423 1.490 . S
C428 C430 1.395 1_556 S
C428 C431 1.403 . S
H429 C435 0.930 . S
C430 H416 0.930 . S
C430 C428 1.395 1_554 S
C430 C433 1.403 . S
C431 C428 1.403 . S
C431 C432 1.524 . S
C431 C435 1.400 . S
C432 H417 0.960 . S
C432 H418 0.960 . S
C432 H419 0.960 . S
C432 C431 1.524 . S
C433 C430 1.403 . S
C433 C434 1.392 . S
C433 C437 1.495 . S
C434 C433 1.392 . S
C434 C435 1.385 1_554 S
C434 C436 1.478 . S
C435 H429 0.930 . S
C435 C431 1.400 . S
C435 C434 1.385 1_556 S
C436 C434 1.478 . S
C436 C438 1.381 . S
C436 C442 1.383 . S
C437 C433 1.495 . S
C437 H443 0.959 . S
C437 H444 0.961 . S
C437 H445 0.960 . S
C438 C436 1.381 . S
C438 C439 1.394 . S
C438 H446 0.930 . S
C439 C438 1.394 . S
C439 C440 1.383 . S
C439 H447 0.929 . S
C440 C439 1.383 . S
C440 C441 1.377 . S
C441 H425 0.930 . S
C441 C440 1.377 . S
C441 C442 1.379 . S
C442 H426 0.931 . S
C442 C436 1.383 . S
C442 C441 1.379 . S
H443 C437 0.959 . S
H444 C437 0.961 . S
H445 C437 0.960 . S
H446 C438 0.930 . S
H447 C439 0.929 . S
H448 C456 0.929 . S
H449 C458 0.930 . S
H450 C460 0.930 . S
H451 C463 0.929 . S
H452 C466 0.930 . S
H453 C468 0.960 . S
H454 C468 0.960 . S
H455 C468 0.960 1_554 S
C456 H448 0.929 . S
C456 C457 1.377 . S
C456 C458 1.384 . S
C457 C456 1.377 . S
C457 C463 1.390 . S
C458 H449 0.930 . S
C458 C456 1.384 . S
C458 C459 1.372 . S
C459 C458 1.372 . S
C459 C460 1.400 . S
C459 C464 1.490 . S
C460 H450 0.930 . S
C460 C459 1.400 . S
C460 C463 1.386 . S
H461 C477 0.930 . S
H462 C478 0.931 . S
C463 H451 0.929 . S
C463 C457 1.390 . S
C463 C460 1.386 . S
C464 C459 1.490 . S
C464 C466 1.395 . S
C464 C467 1.403 1_554 S
H465 C471 0.930 . S
C466 H452 0.930 . S
C466 C464 1.395 . S
C466 C469 1.403 . S
C467 C464 1.403 1_556 S
C467 C468 1.524 . S
C467 C471 1.400 . S
C468 H453 0.960 . S
C468 H454 0.960 . S
C468 H455 0.960 1_556 S
C468 C467 1.524 . S
C469 C466 1.403 . S
C469 C470 1.392 1_554 S
C469 C473 1.495 . S
C470 C469 1.392 1_556 S
C470 C471 1.385 . S
C470 C472 1.478 . S
C471 H465 0.930 . S
C471 C467 1.400 . S
C471 C470 1.385 . S
C472 C470 1.478 . S
C472 C474 1.381 . S
C472 C478 1.383 . S
C473 C469 1.495 . S
C473 H479 0.959 . S
C473 H480 0.961 . S
C473 H481 0.960 1_554 S
C474 C472 1.381 . S
C474 C475 1.394 . S
C474 H482 0.930 . S
C475 C474 1.394 . S
C475 C476 1.383 . S
C475 H483 0.929 . S
C476 C475 1.383 . S
C476 C477 1.377 . S
C477 H461 0.930 . S
C477 C476 1.377 . S
C477 C478 1.379 . S
C478 H462 0.931 . S
C478 C472 1.383 . S
C478 C477 1.379 . S
H479 C473 0.959 . S
H480 C473 0.961 . S
H481 C473 0.960 1_556 S
H482 C474 0.930 . S
H483 C475 0.929 . S
H484 C492 0.929 . S
H485 C494 0.930 . S
H486 C496 0.930 . S
H487 C499 0.929 . S
H488 C502 0.930 . S
H489 C504 0.960 . S
H490 C504 0.960 . S
H491 C504 0.960 . S
C492 H484 0.929 . S
C492 C493 1.377 . S
C492 C494 1.384 . S
C493 C492 1.377 . S
C493 C499 1.390 . S
C494 H485 0.930 . S
C494 C492 1.384 . S
C494 C495 1.372 . S
C495 C494 1.372 . S
C495 C496 1.400 . S
C495 C500 1.490 . S
C496 H486 0.930 . S
C496 C495 1.400 . S
C496 C499 1.386 . S
H497 C513 0.930 . S
H498 C514 0.931 . S
C499 H487 0.929 . S
C499 C493 1.390 . S
C499 C496 1.386 . S
C500 C495 1.490 . S
C500 C502 1.395 1_554 S
C500 C503 1.403 . S
H501 C507 0.930 . S
C502 H488 0.930 . S
C502 C500 1.395 1_556 S
C502 C505 1.403 . S
C503 C500 1.403 . S
C503 C504 1.524 . S
C503 C507 1.400 . S
C504 H489 0.960 . S
C504 H490 0.960 . S
C504 H491 0.960 . S
C504 C503 1.524 . S
C505 C502 1.403 . S
C505 C506 1.392 . S
C505 C509 1.495 . S
C506 C505 1.392 . S
C506 C507 1.385 1_556 S
C506 C508 1.478 . S
C507 H501 0.930 . S
C507 C503 1.400 . S
C507 C506 1.385 1_554 S
C508 C506 1.478 . S
C508 C510 1.381 . S
C508 C514 1.383 . S
C509 C505 1.495 . S
C509 H515 0.959 . S
C509 H516 0.961 . S
C509 H517 0.960 . S
C510 C508 1.381 . S
C510 C511 1.394 . S
C510 H518 0.930 . S
C511 C510 1.394 . S
C511 C512 1.383 . S
C511 H519 0.929 . S
C512 C511 1.383 . S
C512 C513 1.377 . S
C513 H497 0.930 . S
C513 C512 1.377 . S
C513 C514 1.379 . S
C514 H498 0.931 . S
C514 C508 1.383 . S
C514 C513 1.379 . S
H515 C509 0.959 . S
H516 C509 0.961 . S
H517 C509 0.960 . S
H518 C510 0.930 . S
H519 C511 0.929 . S
C97 C62 1.606 . S
C116 C15 1.603 . S
C133 C40 1.609 . S
C152 C81 1.591 . S
C169 C74 1.609 . S
C188 C43 1.573 . S
C205 C8 1.607 . S
C224 C65 1.597 . S
C241 C73 2.300 . S
C260 C7 2.285 . S
C277 C54 2.223 . S
C296 C32 2.214 . S
C313 C59 2.301 . S
C332 C37 2.314 . S
C349 C18 2.226 . S
C368 C84 2.237 . S
C385 C87 0.266 . S
C404 C21 0.356 . S
C421 C52 0.300 . S
C440 C30 0.381 . S
C457 C29 0.236 . S
C476 C51 0.207 . S
C493 C10 0.294 . S
C512 C76 0.384 . S
