# Generated by pormake.
# Topology snx, (6)-cn, num edge types: 1
# Building blocks:
#     Node 0, Type 0, BuildingBlock: IZENUY_clean_sbu_0, # of connection points: 6
#     Node 1, Type 0, BuildingBlock: IZENUY_clean_sbu_0, # of connection points: 6
#     Node 2, Type 0, BuildingBlock: IZENUY_clean_sbu_0, # of connection points: 6
#     Node 3, Type 0, BuildingBlock: IZENUY_clean_sbu_0, # of connection points: 6
#     Node 4, Type 0, BuildingBlock: IZENUY_clean_sbu_0, # of connection points: 6
#     Node 5, Type 0, BuildingBlock: IZENUY_clean_sbu_0, # of connection points: 6
#     Edge 6, Type (0, 0), BuildingBlock: XUDNAN_clean_linker_2, # of connection points: 2
#     Edge 7, Type (0, 0), BuildingBlock: XUDNAN_clean_linker_2, # of connection points: 2
#     Edge 8, Type (0, 0), BuildingBlock: XUDNAN_clean_linker_2, # of connection points: 2
#     Edge 9, Type (0, 0), BuildingBlock: XUDNAN_clean_linker_2, # of connection points: 2
#     Edge 10, Type (0, 0), BuildingBlock: XUDNAN_clean_linker_2, # of connection points: 2
#     Edge 11, Type (0, 0), BuildingBlock: XUDNAN_clean_linker_2, # of connection points: 2
#     Edge 12, Type (0, 0), BuildingBlock: XUDNAN_clean_linker_2, # of connection points: 2
#     Edge 13, Type (0, 0), BuildingBlock: XUDNAN_clean_linker_2, # of connection points: 2
#     Edge 14, Type (0, 0), BuildingBlock: XUDNAN_clean_linker_2, # of connection points: 2
#     Edge 15, Type (0, 0), BuildingBlock: XUDNAN_clean_linker_2, # of connection points: 2
#     Edge 16, Type (0, 0), BuildingBlock: XUDNAN_clean_linker_2, # of connection points: 2
#     Edge 17, Type (0, 0), BuildingBlock: XUDNAN_clean_linker_2, # of connection points: 2
#     Edge 18, Type (0, 0), BuildingBlock: XUDNAN_clean_linker_2, # of connection points: 2
#     Edge 19, Type (0, 0), BuildingBlock: XUDNAN_clean_linker_2, # of connection points: 2
#     Edge 20, Type (0, 0), BuildingBlock: XUDNAN_clean_linker_2, # of connection points: 2
#     Edge 21, Type (0, 0), BuildingBlock: XUDNAN_clean_linker_2, # of connection points: 2
#     Edge 22, Type (0, 0), BuildingBlock: XUDNAN_clean_linker_2, # of connection points: 2
#     Edge 23, Type (0, 0), BuildingBlock: XUDNAN_clean_linker_2, # of connection points: 2
# Relax obj value: 0.026
# Max RMSD: 0.068
# Mean RMSD: 0.067
data_MOF--net-snx--node1-IZENUY_clean_sbu_0--edge1-XUDNAN_clean_linker_2
_symmetry_space_group_name_H-M    P1
_symmetry_Int_Tables_number       1
_symmetry_cell_setting            triclinic
loop_
_symmetry_equiv_pos_as_xyz
'x, y, z'
_cell_length_a     35.783135
_cell_length_b     35.519557
_cell_length_c     21.312391
_cell_angle_alpha  89.946866
_cell_angle_beta   90.014817
_cell_angle_gamma 120.02027
loop_
_atom_site_label
_atom_site_type_symbol
_atom_site_fract_x
_atom_site_fract_y
_atom_site_fract_z
_atom_type_partial_charge
Fe0 Fe 0.18269 0.33281 0.27664 0.0
Fe1 Fe 0.214 0.42094 0.34029 0.0
O2 O 0.20224 0.38927 0.27137 0.0
Fe3 Fe 0.21048 0.41376 0.19629 0.0
O4 O 0.1536 0.38054 0.17677 0.0
O5 O 0.15099 0.31961 0.20392 0.0
O6 O 0.13522 0.32411 0.31786 0.0
C7 C 0.13568 0.3426 0.36854 0.0
C8 C 0.23963 0.35363 0.18091 0.0
O9 O 0.1687 0.37786 0.38557 0.0
C10 C 0.28389 0.47211 0.25821 0.0
O11 O 0.21006 0.33479 0.35061 0.0
O12 O 0.25153 0.40443 0.36813 0.0
O13 O 0.22421 0.37572 0.15711 0.0
O14 O 0.22964 0.33884 0.23589 0.0
C15 C 0.18048 0.46074 0.26894 0.0
O16 O 0.26141 0.46899 0.3062 0.0
O17 O 0.26726 0.44753 0.21152 0.0
C18 C 0.24219 0.36571 0.3776 0.0
O19 O 0.17753 0.44011 0.31844 0.0
O20 O 0.19956 0.45712 0.22121 0.0
C21 C 0.13512 0.33958 0.17498 0.0
Fe22 Fe 0.82517 0.21798 0.69724 0.0
Fe23 Fe 0.8206 0.21854 0.84139 0.0
O24 O 0.83212 0.19932 0.77127 0.0
Fe25 Fe 0.85091 0.16159 0.77384 0.0
O26 O 0.88423 0.18282 0.70313 0.0
O27 O 0.8822 0.24197 0.67912 0.0
O28 O 0.83617 0.27173 0.72428 0.0
C29 C 0.85511 0.29367 0.77248 0.0
C30 C 0.79576 0.12909 0.67516 0.0
O31 O 0.85742 0.275 0.82126 0.0
C32 C 0.79115 0.13361 0.87529 0.0
O33 O 0.76842 0.19483 0.71117 0.0
O34 O 0.77329 0.21944 0.80764 0.0
O35 O 0.80504 0.12162 0.72904 0.0
O36 O 0.8114 0.16759 0.65507 0.0
C37 C 0.8979 0.21705 0.86909 0.0
O38 O 0.78306 0.16411 0.86915 0.0
O39 O 0.82163 0.13368 0.84529 0.0
C40 C 0.75154 0.20198 0.75811 0.0
O41 O 0.86566 0.22039 0.88599 0.0
O42 O 0.89782 0.19864 0.81847 0.0
C43 C 0.9006 0.21958 0.67641 0.0
Fe44 Fe 0.70033 0.85044 0.27879 0.0
Fe45 Fe 0.6186 0.81073 0.1958 0.0
O46 O 0.64322 0.82294 0.271 0.0
Fe47 Fe 0.61038 0.80826 0.33878 0.0
O48 O 0.63398 0.86458 0.36154 0.0
O49 O 0.70166 0.88119 0.34969 0.0
O50 O 0.70583 0.89644 0.23375 0.0
C51 C 0.69056 0.89471 0.17984 0.0
C52 C 0.67804 0.79362 0.37695 0.0
O53 O 0.66202 0.859 0.15677 0.0
C54 C 0.56533 0.73559 0.268 0.0
O55 O 0.70895 0.82469 0.20871 0.0
O56 O 0.64301 0.77835 0.17659 0.0
O57 O 0.64757 0.80082 0.38847 0.0
O58 O 0.69887 0.80654 0.32604 0.0
C59 C 0.56786 0.83631 0.2571 0.0
O60 O 0.57119 0.75995 0.22115 0.0
O61 O 0.58443 0.75096 0.31942 0.0
C62 C 0.68275 0.79089 0.17825 0.0
O63 O 0.59187 0.84239 0.21029 0.0
O64 O 0.56703 0.81322 0.30258 0.0
C65 C 0.67367 0.88994 0.37085 0.0
Fe66 Fe 0.86422 0.70324 0.77193 0.0
Fe67 Fe 0.83864 0.61864 0.84303 0.0
O68 O 0.84468 0.64652 0.77161 0.0
Fe69 Fe 0.83084 0.61778 0.69919 0.0
O70 O 0.88601 0.65006 0.67067 0.0
O71 O 0.89133 0.71273 0.69533 0.0
O72 O 0.91455 0.71455 0.80765 0.0
C73 C 0.91798 0.69808 0.85824 0.0
C74 C 0.80176 0.67824 0.68311 0.0
O75 O 0.88639 0.66376 0.88049 0.0
C76 C 0.76319 0.56272 0.77406 0.0
O77 O 0.84102 0.70471 0.8487 0.0
O78 O 0.80277 0.63598 0.87488 0.0
O79 O 0.81436 0.65364 0.65983 0.0
O80 O 0.81489 0.69534 0.73628 0.0
C81 C 0.86666 0.57494 0.76935 0.0
O82 O 0.78971 0.56912 0.81786 0.0
O83 O 0.7751 0.58409 0.72348 0.0
C84 C 0.81101 0.67466 0.88045 0.0
O85 O 0.87373 0.59857 0.81696 0.0
O86 O 0.84393 0.57605 0.72459 0.0
C87 C 0.90459 0.69091 0.66508 0.0
Fe88 Fe 0.19561 0.87309 0.26915 0.0
Fe89 Fe 0.22677 0.8175 0.201 0.0
O90 O 0.21496 0.83566 0.27216 0.0
Fe91 Fe 0.22207 0.81609 0.34529 0.0
O92 O 0.17454 0.81369 0.38244 0.0
O93 O 0.14607 0.83547 0.30903 0.0
O94 O 0.1667 0.85221 0.19472 0.0
C95 C 0.15293 0.81611 0.16701 0.0
C96 C 0.24971 0.90111 0.37725 0.0
O97 O 0.17117 0.79385 0.17462 0.0
C98 C 0.29607 0.83281 0.27348 0.0
O99 O 0.24373 0.91359 0.2286 0.0
O100 O 0.24329 0.86817 0.15816 0.0
O101 O 0.25772 0.87042 0.37467 0.0
O102 O 0.22079 0.90105 0.34303 0.0
C103 C 0.19193 0.74133 0.27616 0.0
O104 O 0.28272 0.83995 0.2226 0.0
O105 O 0.27116 0.81573 0.32026 0.0
C106 C 0.25651 0.90652 0.17712 0.0
O107 O 0.21365 0.76361 0.22976 0.0
O108 O 0.18686 0.75959 0.32335 0.0
C109 C 0.14304 0.81638 0.36039 0.0
Fe110 Fe 0.42686 0.22853 0.69861 0.0
Fe111 Fe 0.43237 0.22385 0.84091 0.0
O112 O 0.40096 0.21243 0.77245 0.0
Fe113 Fe 0.34389 0.18461 0.77835 0.0
O114 O 0.33959 0.14067 0.73004 0.0
O115 O 0.38405 0.18153 0.65549 0.0
O116 O 0.4533 0.19662 0.7092 0.0
C117 C 0.47823 0.20216 0.75444 0.0
C118 C 0.3628 0.24831 0.68389 0.0
O119 O 0.47703 0.22138 0.80352 0.0
C120 C 0.36503 0.23817 0.87979 0.0
O121 O 0.4742 0.27853 0.7287 0.0
O122 O 0.45752 0.28162 0.82714 0.0
O123 O 0.33627 0.21269 0.71028 0.0
O124 O 0.40263 0.2615 0.68363 0.0
C125 C 0.36913 0.14134 0.86616 0.0
O126 O 0.39388 0.2286 0.89174 0.0
O127 O 0.34487 0.22694 0.82827 0.0
C128 C 0.47923 0.3001 0.77866 0.0
O129 O 0.40891 0.16665 0.85768 0.0
O130 O 0.34157 0.15138 0.84708 0.0
C131 C 0.35569 0.14465 0.67616 0.0
H132 H 0.20754 0.53143 0.19097 0.0
H133 H 0.12777 0.46889 0.35423 0.0
H134 H 0.11601 0.5312 0.36781 0.0
H135 H 0.26099 0.63544 0.25337 0.0
H136 H 0.2638 0.6634 0.18138 0.0
H137 H 0.26099 0.61143 0.17887 0.0
H138 H 0.1932 0.58101 0.10791 0.0
H139 H 0.19596 0.63308 0.10983 0.0
H140 H 0.14713 0.58476 0.13339 0.0
H141 H 0.11978 0.60395 0.37097 0.0
H142 H 0.13782 0.68064 0.36202 0.0
H143 H 0.21493 0.6956 0.19666 0.0
C144 C 0.18655 0.53021 0.22846 0.0
C145 C 0.16832 0.49504 0.27124 0.0
C146 C 0.14196 0.49535 0.32068 0.0
C147 C 0.13503 0.5306 0.32875 0.0
C148 C 0.15453 0.56535 0.28691 0.0
C149 C 0.17951 0.56529 0.23743 0.0
C150 C 0.19966 0.6081 0.20216 0.0
C151 C 0.24928 0.63092 0.2041 0.0
C152 C 0.18298 0.60132 0.1343 0.0
C153 C 0.18297 0.63258 0.24039 0.0
C154 C 0.15671 0.60728 0.28877 0.0
C155 C 0.13978 0.62385 0.33267 0.0
C156 C 0.15029 0.6675 0.32731 0.0
C157 C 0.17756 0.69419 0.27844 0.0
C158 C 0.19346 0.67602 0.23403 0.0
H159 H 0.70682 0.22773 0.83593 0.0
H160 H 0.69483 0.15639 0.66458 0.0
H161 H 0.6217 0.1444 0.64859 0.0
H162 H 0.59389 0.16179 0.88604 0.0
H163 H 0.59148 0.20818 0.91505 0.0
H164 H 0.64191 0.20831 0.91599 0.0
H165 H 0.6779 0.28012 0.85206 0.0
H166 H 0.62763 0.28014 0.85084 0.0
H167 H 0.65455 0.28252 0.77825 0.0
H168 H 0.55192 0.14443 0.64648 0.0
H169 H 0.48993 0.15635 0.66 0.0
H170 H 0.5471 0.22694 0.83256 0.0
C171 C 0.68857 0.20902 0.79561 0.0
C172 C 0.70663 0.19293 0.75169 0.0
C173 C 0.6818 0.16907 0.69903 0.0
C174 C 0.6401 0.16194 0.68948 0.0
C175 C 0.62349 0.17878 0.73303 0.0
C176 C 0.64681 0.2017 0.78516 0.0
C177 C 0.62218 0.21819 0.82297 0.0
C178 C 0.61175 0.19789 0.88892 0.0
C179 C 0.64705 0.2682 0.82618 0.0
C180 C 0.5818 0.20144 0.78342 0.0
C181 C 0.58307 0.17864 0.73188 0.0
C182 C 0.55027 0.16185 0.68704 0.0
C183 C 0.51528 0.16884 0.69498 0.0
C184 C 0.51356 0.19241 0.74734 0.0
C185 C 0.54714 0.20839 0.79229 0.0
H186 H 0.33164 0.53811 0.34262 0.0
H187 H 0.34046 0.48344 0.16456 0.0
H188 H 0.41627 0.54074 0.15465 0.0
H189 H 0.39403 0.6478 0.29795 0.0
H190 H 0.4206 0.6668 0.37259 0.0
H191 H 0.36785 0.61914 0.36901 0.0
H192 H 0.39688 0.5748 0.42701 0.0
H193 H 0.44987 0.62238 0.43046 0.0
H194 H 0.44271 0.57299 0.39553 0.0
H195 H 0.48776 0.60708 0.15728 0.0
H196 H 0.55176 0.67967 0.17345 0.0
H197 H 0.4996 0.69091 0.35145 0.0
C198 C 0.34968 0.53792 0.30195 0.0
C199 C 0.3299 0.50628 0.25433 0.0
C200 C 0.35464 0.50737 0.20163 0.0
C201 C 0.39791 0.53966 0.19564 0.0
C202 C 0.41628 0.57053 0.24294 0.0
C203 C 0.39317 0.57 0.29522 0.0
C204 C 0.42026 0.60868 0.33727 0.0
C205 C 0.39944 0.63729 0.3446 0.0
C206 C 0.42788 0.59381 0.40137 0.0
C207 C 0.46166 0.63153 0.29944 0.0
C208 C 0.45864 0.60868 0.24539 0.0
C209 C 0.491 0.62489 0.20002 0.0
C210 C 0.52712 0.66602 0.20949 0.0
C211 C 0.5307 0.69009 0.26414 0.0
C212 C 0.49806 0.67232 0.31029 0.0
H213 H 0.83709 0.5033 0.69278 0.0
H214 H 0.92073 0.56656 0.85231 0.0
H215 H 0.93216 0.50391 0.86456 0.0
H216 H 0.78469 0.39904 0.75662 0.0
H217 H 0.7803 0.37104 0.68411 0.0
H218 H 0.78292 0.42295 0.68283 0.0
H219 H 0.849 0.45338 0.60842 0.0
H220 H 0.84645 0.4014 0.60919 0.0
H221 H 0.89572 0.44984 0.63092 0.0
H222 H 0.92811 0.43095 0.86671 0.0
H223 H 0.91032 0.3544 0.85674 0.0
H224 H 0.83003 0.33898 0.69516 0.0
C225 C 0.85874 0.50457 0.7293 0.0
C226 C 0.87823 0.54014 0.77134 0.0
C227 C 0.90555 0.53987 0.81934 0.0
C228 C 0.91228 0.5044 0.82666 0.0
C229 C 0.89164 0.46939 0.78549 0.0
C230 C 0.86567 0.46934 0.73743 0.0
C231 C 0.84481 0.42646 0.70232 0.0
C232 C 0.79526 0.40354 0.70677 0.0
C233 C 0.85991 0.43319 0.63364 0.0
C234 C 0.86243 0.40208 0.73886 0.0
C235 C 0.88955 0.42747 0.78647 0.0
C236 C 0.90746 0.41102 0.82898 0.0
C237 C 0.89708 0.36745 0.82305 0.0
C238 C 0.86911 0.34072 0.77484 0.0
C239 C 0.85217 0.3587 0.73178 0.0
H240 H 0.50831 0.82939 0.16862 0.0
H241 H 0.55712 0.87686 0.35524 0.0
H242 H 0.49607 0.88863 0.37525 0.0
H243 H 0.45892 0.90176 0.14113 0.0
H244 H 0.41315 0.85869 0.101 0.0
H245 H 0.46515 0.8623 0.09611 0.0
H246 H 0.43099 0.78309 0.13653 0.0
H247 H 0.37916 0.77946 0.14277 0.0
H248 H 0.40262 0.7687 0.21042 0.0
H249 H 0.42427 0.88126 0.38385 0.0
H250 H 0.34848 0.86402 0.37513 0.0
H251 H 0.34506 0.82387 0.18208 0.0
C252 C 0.50707 0.84427 0.2123 0.0
C253 C 0.53775 0.85312 0.26002 0.0
C254 C 0.53427 0.8707 0.31782 0.0
C255 C 0.49963 0.87732 0.32971 0.0
C256 C 0.46866 0.86633 0.28317 0.0
C257 C 0.47227 0.85099 0.22508 0.0
C258 C 0.43211 0.83781 0.18596 0.0
C259 C 0.44299 0.86688 0.12759 0.0
C260 C 0.40993 0.7894 0.16789 0.0
C261 C 0.40496 0.84643 0.23216 0.0
C262 C 0.42682 0.86298 0.28785 0.0
C263 C 0.40714 0.86945 0.33994 0.0
C264 C 0.36405 0.8592 0.33481 0.0
C265 C 0.34131 0.84311 0.27787 0.0
C266 C 0.36215 0.83701 0.22575 0.0
H267 H 0.70897 0.5025 0.68804 0.0
H268 H 0.71601 0.54575 0.88009 0.0
H269 H 0.64067 0.48776 0.89779 0.0
H270 H 0.59445 0.46658 0.65882 0.0
H271 H 0.58524 0.41913 0.61547 0.0
H272 H 0.63789 0.46727 0.61501 0.0
H273 H 0.67192 0.42208 0.65457 0.0
H274 H 0.61947 0.37388 0.65485 0.0
H275 H 0.65158 0.39039 0.72536 0.0
H276 H 0.56668 0.42398 0.89661 0.0
H277 H 0.50057 0.35358 0.88061 0.0
H278 H 0.54208 0.34794 0.69094 0.0
C279 C 0.6942 0.50009 0.73333 0.0
C280 C 0.71782 0.52874 0.7826 0.0
C281 C 0.69817 0.52409 0.84184 0.0
C282 C 0.65541 0.49148 0.85217 0.0
C283 C 0.63298 0.46341 0.80296 0.0
C284 C 0.65173 0.46695 0.74492 0.0
C285 C 0.62186 0.42977 0.7023 0.0
C286 C 0.6091 0.44671 0.64447 0.0
C287 C 0.64244 0.40242 0.68317 0.0
C288 C 0.58367 0.40465 0.74575 0.0
C289 C 0.59058 0.42514 0.80315 0.0
C290 C 0.56076 0.40765 0.8518 0.0
C291 C 0.52327 0.36757 0.84218 0.0
C292 C 0.51608 0.34502 0.78456 0.0
C293 C 0.54641 0.3644 0.73536 0.0
H294 H 0.30604 0.26762 0.87661 0.0
H295 H 0.39553 0.25362 0.99924 0.0
H296 H 0.37529 0.28462 0.08627 0.0
H297 H 0.32532 0.37094 0.94347 0.0
H298 H 0.26974 0.35741 0.93699 0.0
H299 H 0.29173 0.33501 0.88212 0.0
H300 H 0.23113 0.25719 0.91057 0.0
H301 H 0.20894 0.27935 0.96542 0.0
H302 H 0.22327 0.23991 0.99142 0.0
H303 H 0.34352 0.31243 0.16203 0.0
H304 H 0.30227 0.33845 0.22273 0.0
H305 H 0.23483 0.33852 0.05344 0.0
C306 C 0.32145 0.27129 0.92169 0.0
C307 C 0.35234 0.25797 0.93075 0.0
C308 C 0.37179 0.26344 0.99063 0.0
C309 C 0.36059 0.28112 0.04068 0.0
C310 C 0.33008 0.29369 0.03042 0.0
C311 C 0.31084 0.28936 0.9726 0.0
C312 C 0.27851 0.30518 0.97544 0.0
C313 C 0.29215 0.34448 0.93192 0.0
C314 C 0.23275 0.2682 0.95979 0.0
C315 C 0.28231 0.31828 0.04403 0.0
C316 C 0.31231 0.31125 0.0746 0.0
C317 C 0.32025 0.31859 0.13863 0.0
C318 C 0.29663 0.33323 0.17272 0.0
C319 C 0.26573 0.34078 0.14266 0.0
C320 C 0.25885 0.33371 0.07729 0.0
H321 H 0.95945 0.3012 0.63205 0.0
H322 H 0.9219 0.16464 0.61954 0.0
H323 H 0.97847 0.1823 0.54093 0.0
H324 H 0.98405 0.32726 0.47006 0.0
H325 H 0.03075 0.37997 0.48341 0.0
H326 H 0.98761 0.35735 0.54006 0.0
H327 H 0.04179 0.36599 0.62728 0.0
H328 H 0.08516 0.38884 0.57093 0.0
H329 H 0.07552 0.34212 0.61671 0.0
H330 H 0.03425 0.21252 0.45959 0.0
H331 H 0.09268 0.25556 0.38479 0.0
H332 H 0.09939 0.37401 0.45268 0.0
C333 C 0.9634 0.27518 0.61287 0.0
C334 C 0.93629 0.23157 0.63181 0.0
C335 C 0.94247 0.19832 0.60608 0.0
C336 C 0.9744 0.20795 0.56118 0.0
C337 C 1.00034 0.25105 0.54317 0.0
C338 C 0.99583 0.28432 0.5686 0.0
C339 C 0.02876 0.32791 0.54104 0.0
C340 C 1.00645 0.34938 0.5066 0.0
C341 C 0.05964 0.35799 0.59204 0.0
C342 C 0.05181 0.31361 0.49547 0.0
C343 C 0.03445 0.26904 0.49739 0.0
C344 C 0.04852 0.2475 0.45798 0.0
C345 C 0.08149 0.27219 0.41545 0.0
C346 C 0.10042 0.31799 0.41323 0.0
C347 C 0.08562 0.33905 0.45403 0.0
H348 H 0.77129 0.04833 0.87677 0.0
H349 H 0.76463 0.14659 0.98904 0.0
H350 H 0.73869 0.09622 0.07949 0.0
H351 H 0.67268 0.95602 0.94286 0.0
H352 H 0.69424 0.91982 0.93896 0.0
H353 H 0.71131 0.96339 0.88291 0.0
H354 H 0.79097 0.99143 0.91383 0.0
H355 H 0.77414 0.94834 0.97057 0.0
H356 H 0.80703 1.00416 0.99476 0.0
H357 H 0.72151 0.03816 0.16079 0.0
H358 H 0.70192 0.97171 0.22259 0.0
H359 H 0.71223 0.90831 0.05514 0.0
C360 C 0.76371 0.05891 0.92017 0.0
C361 C 0.76993 0.10131 0.92602 0.0
C362 C 0.75967 0.11409 0.98342 0.0
C363 C 0.74525 0.08583 0.03516 0.0
C364 C 0.74033 0.04456 0.0283 0.0
C365 C 0.74816 0.03067 0.97181 0.0
C366 C 0.73929 0.9843 0.9766 0.0
C367 C 0.70216 0.9541 0.93273 0.0
C368 C 0.78031 0.98195 0.96315 0.0
C369 C 0.72613 0.97461 0.04493 0.0
C370 C 0.72762 1.01007 0.07416 0.0
C371 C 0.71949 1.00994 0.13817 0.0
C372 C 0.70875 0.97228 0.17296 0.0
C373 C 0.70537 0.93506 0.1434 0.0
C374 C 0.71417 0.93628 0.07859 0.0
H375 H 0.73299 0.75878 0.37385 0.0
H376 H 0.65499 0.78812 0.49909 0.0
H377 H 0.67612 0.75937 0.58785 0.0
H378 H 0.70894 0.65722 0.4513 0.0
H379 H 0.76256 0.66545 0.44144 0.0
H380 H 0.74151 0.68821 0.38551 0.0
H381 H 0.80745 0.76481 0.40428 0.0
H382 H 0.82875 0.74226 0.4601 0.0
H383 H 0.82008 0.78614 0.48298 0.0
H384 H 0.70677 0.73107 0.66456 0.0
H385 H 0.74552 0.70238 0.72584 0.0
H386 H 0.80219 0.68723 0.55442 0.0
C387 C 0.72042 0.75906 0.41994 0.0
C388 C 0.69215 0.77569 0.42898 0.0
C389 C 0.67637 0.77536 0.49026 0.0
C390 C 0.68821 0.75911 0.54141 0.0
C391 C 0.71572 0.74281 0.53109 0.0
C392 C 0.73165 0.74237 0.47215 0.0
C393 C 0.76089 0.72277 0.47525 0.0
C394 C 0.74236 0.68092 0.43604 0.0
C395 C 0.80703 0.75598 0.45442 0.0
C396 C 0.75906 0.71295 0.54506 0.0
C397 C 0.7328 0.72496 0.57609 0.0
C398 C 0.72715 0.72109 0.6409 0.0
C399 C 0.74929 0.70482 0.6753 0.0
C400 C 0.77641 0.6922 0.64486 0.0
C401 C 0.78097 0.69587 0.57874 0.0
H402 H 0.94781 0.66671 0.95215 0.0
H403 H 0.97785 0.7843 0.84962 0.0
H404 H 0.04172 0.82628 0.91643 0.0
H405 H 0.9786 0.71429 0.10335 0.0
H406 H 1.00247 0.68244 0.12791 0.0
H407 H 0.95952 0.66084 0.07099 0.0
H408 H 1.00786 0.64852 0.99296 0.0
H409 H 0.05092 0.66985 0.0498 0.0
H410 H 0.06018 0.6934 0.97242 0.0
H411 H 0.09812 0.85658 0.99877 0.0
H412 H 0.14905 0.87277 0.08619 0.0
H413 H 0.08672 0.73542 0.132 0.0
C414 C 0.96803 0.70124 0.94358 0.0
C415 C 0.95777 0.72228 0.89584 0.0
C416 C 0.98514 0.76745 0.88572 0.0
C417 C 1.02142 0.79162 0.92354 0.0
C418 C 0.03031 0.77006 0.97063 0.0
C419 C 1.00491 0.72582 0.98027 0.0
C420 C 1.02209 0.71081 0.03406 0.0
C421 C 0.98867 0.69093 0.08722 0.0
C422 C 0.0361 0.67875 1.01091 0.0
C423 C 0.06064 0.75371 0.05378 0.0
C424 C 0.06443 0.78743 1.01673 0.0
C425 C 0.09588 0.83045 0.02762 0.0
C426 C 0.12445 0.83932 0.07757 0.0
C427 C 0.12178 0.80529 0.11547 0.0
C428 C 0.08966 0.76189 0.10315 0.0
H429 H 0.33033 0.12975 0.55192 0.0
H430 H 0.3511 0.07037 0.71608 0.0
H431 H 0.33031 1.00349 0.65537 0.0
H432 H 0.23456 0.03233 0.5016 0.0
H433 H 0.24574 0.04297 0.41901 0.0
H434 H 0.26548 0.08753 0.47364 0.0
H435 H 0.34333 0.11613 0.43308 0.0
H436 H 0.32383 0.07153 0.37847 0.0
H437 H 0.36575 0.08059 0.43357 0.0
H438 H 0.30927 0.94406 0.57703 0.0
H439 H 0.28008 0.89158 0.4898 0.0
H440 H 0.26544 0.98563 0.37803 0.0
C441 C 0.33075 0.10268 0.57463 0.0
C442 C 0.34266 0.10513 0.63841 0.0
C443 C 0.34207 0.06895 0.66723 0.0
C444 C 0.33054 0.03098 0.63307 0.0
C445 C 0.31883 0.02936 0.57036 0.0
C446 C 0.31805 0.06387 0.54156 0.0
C447 C 0.30109 0.05218 0.47485 0.0
C448 C 0.25923 0.05385 0.46683 0.0
C449 C 0.33557 0.08188 0.42718 0.0
C450 C 0.29259 1.00583 0.4708 0.0
C451 C 0.30388 0.99375 0.52612 0.0
C452 C 0.30005 0.95301 0.5336 0.0
C453 C 0.28361 0.92348 0.48362 0.0
C454 C 0.27032 0.93439 0.42716 0.0
C455 C 0.27509 0.97627 0.42075 0.0
H456 H 0.7591 0.82228 0.11142 0.0
H457 H 0.64037 0.70404 0.15829 0.0
H458 H 0.66147 0.66193 0.08975 0.0
H459 H 0.75868 0.79634 0.9494 0.0
H460 H 0.81633 0.81976 0.94309 0.0
H461 H 0.7941 0.84072 0.99985 0.0
H462 H 0.83532 0.82718 0.08879 0.0
H463 H 0.8579 0.80642 0.03223 0.0
H464 H 0.82844 0.77366 0.09881 0.0
H465 H 0.69374 0.63255 1.01506 0.0
H466 H 0.73478 0.6175 0.93619 0.0
H467 H 0.83181 0.75463 0.93162 0.0
C468 C 0.73804 0.78742 0.108 0.0
C469 C 0.69825 0.7663 0.14065 0.0
C470 C 0.671 0.72082 0.13384 0.0
C471 C 0.68273 0.6966 0.09507 0.0
C472 C 0.72167 0.71832 0.06266 0.0
C473 C 0.74896 0.76268 0.06838 0.0
C474 C 0.78784 0.77802 0.02537 0.0
C475 C 0.7893 0.81064 0.97654 0.0
C476 C 0.82987 0.79746 0.0636 0.0
C477 C 0.77797 0.73537 0.99472 0.0
C478 C 0.73978 0.7014 1.01749 0.0
C479 C 0.72374 0.65886 0.9969 0.0
C480 C 0.74737 0.65064 0.95202 0.0
C481 C 0.78658 0.68479 0.92748 0.0
C482 C 0.80188 0.72781 0.94913 0.0
H483 H 0.97076 0.67742 0.62802 0.0
H484 H 0.90959 0.75375 0.58757 0.0
H485 H 0.96181 0.7914 0.50219 0.0
H486 H 0.07906 0.7653 0.60516 0.0
H487 H 0.09844 0.73197 0.57058 0.0
H488 H 0.05439 0.70857 0.6257 0.0
H489 H 1.00697 0.6501 0.54388 0.0
H490 H 0.05088 0.67339 0.48844 0.0
H491 H 0.99916 0.66684 0.46743 0.0
H492 H 1.01971 0.82032 0.42098 0.0
H493 H 0.08418 0.84381 0.35475 0.0
H494 H 0.11197 0.75307 0.45183 0.0
C495 C 0.96831 0.70183 0.60071 0.0
C496 C 0.93614 0.71265 0.61404 0.0
C497 C 0.93417 0.74519 0.57818 0.0
C498 C 0.96351 0.76657 0.52941 0.0
C499 C 0.99507 0.75549 0.51761 0.0
C500 C 0.99808 0.72429 0.55257 0.0
C501 C 0.03682 0.72064 0.53237 0.0
C502 C 0.06908 0.73233 0.58669 0.0
C503 C 0.02259 0.67503 0.50649 0.0
C504 C 0.05502 0.75468 0.4808 0.0
C505 C 0.02998 0.77384 0.4725 0.0
C506 C 0.03972 0.8057 0.42714 0.0
C507 C 0.07634 0.81873 0.38962 0.0
C508 C 0.10324 0.80046 0.3983 0.0
C509 C 0.09222 0.76787 0.44444 0.0
H510 H 0.24364 0.97397 0.14508 0.0
H511 H 0.32452 0.9177 0.10775 0.0
H512 H 0.36213 0.97197 0.02399 0.0
H513 H 0.22903 0.9915 0.98515 0.0
H514 H 0.22954 0.04191 0.998 0.0
H515 H 0.21166 1.00171 0.05942 0.0
H516 H 0.26836 0.05846 0.1354 0.0
H517 H 0.286 0.09902 0.0745 0.0
H518 H 0.32437 0.08776 0.1125 0.0
H519 H 0.38993 0.03085 0.9439 0.0
H520 H 0.40632 0.09113 0.87076 0.0
H521 H 0.30389 0.10628 0.95369 0.0
C522 C 0.27003 0.97396 0.12021 0.0
C523 C 0.28196 0.94241 0.13332 0.0
C524 C 0.31547 0.94211 0.09859 0.0
C525 C 0.33686 0.97265 0.05098 0.0
C526 C 0.32378 1.00276 0.03806 0.0
C527 C 0.29113 1.00371 0.07146 0.0
C528 C 0.28175 0.03788 0.04537 0.0
C529 C 0.23523 1.01699 1.02051 0.0
C530 C 0.29066 0.07286 0.09489 0.0
C531 C 0.31427 0.05599 0.99226 0.0
C532 C 0.33836 0.03542 0.98933 0.0
C533 C 0.37121 0.04711 0.94551 0.0
C534 C 0.38021 0.08127 0.90415 0.0
C535 C 0.35607 0.1029 0.90628 0.0
C536 C 0.32229 0.0897 0.95038 0.0
H537 H 0.28774 0.21792 0.61514 0.0
H538 H 0.4052 0.3356 0.66782 0.0
H539 H 0.38598 0.3785 0.59763 0.0
H540 H 0.29225 0.24439 0.45442 0.0
H541 H 0.23488 0.22142 0.44455 0.0
H542 H 0.25517 0.20002 0.50365 0.0
H543 H 0.21199 0.21389 0.58911 0.0
H544 H 0.19118 0.23493 0.53012 0.0
H545 H 0.21897 0.26754 0.59761 0.0
H546 H 0.35658 0.40831 0.51826 0.0
H547 H 0.31789 0.42344 0.43514 0.0
H548 H 0.2204 0.28644 0.43021 0.0
C549 C 0.30878 0.25284 0.61289 0.0
C550 C 0.34777 0.27356 0.64726 0.0
C551 C 0.37513 0.31916 0.64196 0.0
C552 C 0.3645 0.34381 0.60226 0.0
C553 C 0.32649 0.32239 0.56774 0.0
C554 C 0.29891 0.278 0.57264 0.0
C555 C 0.26133 0.26292 0.52745 0.0
C556 C 0.26091 0.23026 0.4797 0.0
C557 C 0.21832 0.24369 0.56322 0.0
C558 C 0.2724 0.30568 0.49621 0.0
C559 C 0.30997 0.33957 0.52052 0.0
C560 C 0.32699 0.38209 0.49899 0.0
C561 C 0.3048 0.39035 0.45166 0.0
C562 C 0.26612 0.3562 0.42599 0.0
C563 C 0.24997 0.31328 0.44858 0.0
H564 H 0.93258 0.28494 0.95361 0.0
H565 H 0.94551 0.1776 0.8821 0.0
H566 H 1.00605 0.19676 0.95444 0.0
H567 H 0.04734 0.35957 0.96781 0.0
H568 H 0.04276 0.38478 0.03851 0.0
H569 H 0.99893 0.36181 0.98301 0.0
H570 H 0.94678 0.31363 0.07078 0.0
H571 H 0.99048 0.33639 0.12653 0.0
H572 H 0.95945 0.27835 0.11549 0.0
H573 H 0.06288 0.22512 0.03512 0.0
H574 H 0.11849 0.26563 0.11471 0.0
H575 H 0.07387 0.35865 0.13083 0.0
C576 C 0.94814 0.26547 0.9536 0.0
C577 C 0.93434 0.22969 0.91255 0.0
C578 C 0.95574 0.20524 0.91301 0.0
C579 C 0.99 0.21572 0.9541 0.0
C580 C 1.00293 0.25114 0.99385 0.0
C581 C 0.98319 0.27608 0.9936 0.0
C582 C 1.00509 0.31363 0.0395 0.0
C583 C 0.0247 0.35755 1.00514 0.0
C584 C 0.97356 0.31028 0.09114 0.0
C585 C 0.03996 0.30558 0.06562 0.0
C586 C 0.03757 0.26898 0.03898 0.0
C587 C 0.0653 0.25397 0.05619 0.0
C588 C 0.09665 0.27711 0.10167 0.0
C589 C 0.10048 0.31527 0.12886 0.0
C590 C 0.07178 0.32973 0.11046 0.0
H591 H 0.74652 0.93225 0.44459 0.0
H592 H 0.62955 0.93261 0.39169 0.0
H593 H 0.64774 0.99292 0.46512 0.0
H594 H 0.74201 0.95253 0.60792 0.0
H595 H 0.79947 0.98745 0.61676 0.0
H596 H 0.77866 0.94554 0.55778 0.0
H597 H 0.82121 1.00295 0.47191 0.0
H598 H 0.84243 0.045 0.53071 0.0
H599 H 0.81404 0.04948 0.46385 0.0
H600 H 0.67881 0.05379 0.54195 0.0
H601 H 0.72047 0.11072 0.62077 0.0
H602 H 0.81485 0.06851 0.63015 0.0
C603 C 0.72504 0.94538 0.44805 0.0
C604 C 0.6866 0.92779 0.4124 0.0
C605 C 0.65901 0.94544 0.41879 0.0
C606 C 0.6691 0.97975 0.46026 0.0
C607 C 0.70679 0.99591 0.49544 0.0
C608 C 0.73436 0.97938 0.49 0.0
C609 C 0.77229 1.00218 0.5346 0.0
C610 C 0.77313 0.96999 0.58208 0.0
C611 C 0.81502 0.02633 0.49808 0.0
C612 C 0.76145 0.03377 0.5662 0.0
C613 C 0.72378 0.02989 0.54223 0.0
C614 C 0.7081 0.05686 0.5616 0.0
C615 C 0.73178 0.08893 0.60634 0.0
C616 C 0.77003 0.09307 0.63203 0.0
C617 C 0.78497 0.06503 0.61212 0.0
loop_
_geom_bond_atom_site_label_1
_geom_bond_atom_site_label_2
_geom_bond_distance
_geom_bond_site_symmetry_2
_ccdc_geom_bond_type
Fe0 O2 1.918 . S
Fe0 O5 1.997 . S
Fe0 O6 2.002 . S
Fe0 O11 1.976 . S
Fe0 O14 1.996 . S
Fe1 O2 1.918 . S
Fe1 O9 1.997 . S
Fe1 O12 1.996 . S
Fe1 O16 1.976 . S
Fe1 O19 2.002 . S
O2 Fe0 1.918 . S
O2 Fe1 1.918 . S
O2 Fe3 1.918 . S
Fe3 O2 1.918 . S
Fe3 O4 2.002 . S
Fe3 O13 1.976 . S
Fe3 O17 1.996 . S
Fe3 O20 1.997 . S
O4 Fe3 2.002 . S
O4 C21 1.295 . S
O5 Fe0 1.997 . S
O5 C21 1.235 . S
O6 Fe0 2.002 . S
O6 C7 1.295 . S
C7 O6 1.295 . S
C7 O9 1.235 . S
C8 O13 1.287 . S
C8 O14 1.255 . S
O9 Fe1 1.997 . S
O9 C7 1.235 . S
C10 O16 1.287 . S
C10 O17 1.255 . S
O11 Fe0 1.976 . S
O11 C18 1.287 . S
O12 Fe1 1.996 . S
O12 C18 1.255 . S
O13 Fe3 1.976 . S
O13 C8 1.287 . S
O14 Fe0 1.996 . S
O14 C8 1.255 . S
C15 O19 1.295 . S
C15 O20 1.235 . S
O16 Fe1 1.976 . S
O16 C10 1.287 . S
O17 Fe3 1.996 . S
O17 C10 1.255 . S
C18 O11 1.287 . S
C18 O12 1.255 . S
O19 Fe1 2.002 . S
O19 C15 1.295 . S
O20 Fe3 1.997 . S
O20 C15 1.235 . S
C21 O4 1.295 . S
C21 O5 1.235 . S
Fe22 O24 1.918 . S
Fe22 O27 1.997 . S
Fe22 O28 2.002 . S
Fe22 O33 1.976 . S
Fe22 O36 1.996 . S
Fe23 O24 1.918 . S
Fe23 O31 1.997 . S
Fe23 O34 1.996 . S
Fe23 O38 1.976 . S
Fe23 O41 2.002 . S
O24 Fe22 1.918 . S
O24 Fe23 1.918 . S
O24 Fe25 1.918 . S
Fe25 O24 1.918 . S
Fe25 O26 2.002 . S
Fe25 O35 1.976 . S
Fe25 O39 1.996 . S
Fe25 O42 1.997 . S
O26 Fe25 2.002 . S
O26 C43 1.295 . S
O27 Fe22 1.997 . S
O27 C43 1.235 . S
O28 Fe22 2.002 . S
O28 C29 1.295 . S
C29 O28 1.295 . S
C29 O31 1.235 . S
C30 O35 1.287 . S
C30 O36 1.255 . S
O31 Fe23 1.997 . S
O31 C29 1.235 . S
C32 O38 1.287 . S
C32 O39 1.255 . S
O33 Fe22 1.976 . S
O33 C40 1.287 . S
O34 Fe23 1.996 . S
O34 C40 1.255 . S
O35 Fe25 1.976 . S
O35 C30 1.287 . S
O36 Fe22 1.996 . S
O36 C30 1.255 . S
C37 O41 1.295 . S
C37 O42 1.235 . S
O38 Fe23 1.976 . S
O38 C32 1.287 . S
O39 Fe25 1.996 . S
O39 C32 1.255 . S
C40 O33 1.287 . S
C40 O34 1.255 . S
O41 Fe23 2.002 . S
O41 C37 1.295 . S
O42 Fe25 1.997 . S
O42 C37 1.235 . S
C43 O26 1.295 . S
C43 O27 1.235 . S
Fe44 O46 1.918 . S
Fe44 O49 1.997 . S
Fe44 O50 2.002 . S
Fe44 O55 1.976 . S
Fe44 O58 1.996 . S
Fe45 O46 1.918 . S
Fe45 O53 1.997 . S
Fe45 O56 1.996 . S
Fe45 O60 1.976 . S
Fe45 O63 2.002 . S
O46 Fe44 1.918 . S
O46 Fe45 1.918 . S
O46 Fe47 1.918 . S
Fe47 O46 1.918 . S
Fe47 O48 2.002 . S
Fe47 O57 1.976 . S
Fe47 O61 1.996 . S
Fe47 O64 1.997 . S
O48 Fe47 2.002 . S
O48 C65 1.295 . S
O49 Fe44 1.997 . S
O49 C65 1.235 . S
O50 Fe44 2.002 . S
O50 C51 1.295 . S
C51 O50 1.295 . S
C51 O53 1.235 . S
C52 O57 1.287 . S
C52 O58 1.255 . S
O53 Fe45 1.997 . S
O53 C51 1.235 . S
C54 O60 1.287 . S
C54 O61 1.255 . S
O55 Fe44 1.976 . S
O55 C62 1.287 . S
O56 Fe45 1.996 . S
O56 C62 1.255 . S
O57 Fe47 1.976 . S
O57 C52 1.287 . S
O58 Fe44 1.996 . S
O58 C52 1.255 . S
C59 O63 1.295 . S
C59 O64 1.235 . S
O60 Fe45 1.976 . S
O60 C54 1.287 . S
O61 Fe47 1.996 . S
O61 C54 1.255 . S
C62 O55 1.287 . S
C62 O56 1.255 . S
O63 Fe45 2.002 . S
O63 C59 1.295 . S
O64 Fe47 1.997 . S
O64 C59 1.235 . S
C65 O48 1.295 . S
C65 O49 1.235 . S
Fe66 O68 1.918 . S
Fe66 O71 1.997 . S
Fe66 O72 2.002 . S
Fe66 O77 1.976 . S
Fe66 O80 1.996 . S
Fe67 O68 1.918 . S
Fe67 O75 1.997 . S
Fe67 O78 1.996 . S
Fe67 O82 1.976 . S
Fe67 O85 2.002 . S
O68 Fe66 1.918 . S
O68 Fe67 1.918 . S
O68 Fe69 1.918 . S
Fe69 O68 1.918 . S
Fe69 O70 2.002 . S
Fe69 O79 1.976 . S
Fe69 O83 1.996 . S
Fe69 O86 1.997 . S
O70 Fe69 2.002 . S
O70 C87 1.295 . S
O71 Fe66 1.997 . S
O71 C87 1.235 . S
O72 Fe66 2.002 . S
O72 C73 1.295 . S
C73 O72 1.295 . S
C73 O75 1.235 . S
C74 O79 1.287 . S
C74 O80 1.255 . S
O75 Fe67 1.997 . S
O75 C73 1.235 . S
C76 O82 1.287 . S
C76 O83 1.255 . S
O77 Fe66 1.976 . S
O77 C84 1.287 . S
O78 Fe67 1.996 . S
O78 C84 1.255 . S
O79 Fe69 1.976 . S
O79 C74 1.287 . S
O80 Fe66 1.996 . S
O80 C74 1.255 . S
C81 O85 1.295 . S
C81 O86 1.235 . S
O82 Fe67 1.976 . S
O82 C76 1.287 . S
O83 Fe69 1.996 . S
O83 C76 1.255 . S
C84 O77 1.287 . S
C84 O78 1.255 . S
O85 Fe67 2.002 . S
O85 C81 1.295 . S
O86 Fe69 1.997 . S
O86 C81 1.235 . S
C87 O70 1.295 . S
C87 O71 1.235 . S
Fe88 O90 1.918 . S
Fe88 O93 1.997 . S
Fe88 O94 2.002 . S
Fe88 O99 1.976 . S
Fe88 O102 1.996 . S
Fe89 O90 1.918 . S
Fe89 O97 1.997 . S
Fe89 O100 1.996 . S
Fe89 O104 1.976 . S
Fe89 O107 2.002 . S
O90 Fe88 1.918 . S
O90 Fe89 1.918 . S
O90 Fe91 1.918 . S
Fe91 O90 1.918 . S
Fe91 O92 2.002 . S
Fe91 O101 1.976 . S
Fe91 O105 1.996 . S
Fe91 O108 1.997 . S
O92 Fe91 2.002 . S
O92 C109 1.295 . S
O93 Fe88 1.997 . S
O93 C109 1.235 . S
O94 Fe88 2.002 . S
O94 C95 1.295 . S
C95 O94 1.295 . S
C95 O97 1.235 . S
C96 O101 1.287 . S
C96 O102 1.255 . S
O97 Fe89 1.997 . S
O97 C95 1.235 . S
C98 O104 1.287 . S
C98 O105 1.255 . S
O99 Fe88 1.976 . S
O99 C106 1.287 . S
O100 Fe89 1.996 . S
O100 C106 1.255 . S
O101 Fe91 1.976 . S
O101 C96 1.287 . S
O102 Fe88 1.996 . S
O102 C96 1.255 . S
C103 O107 1.295 . S
C103 O108 1.235 . S
O104 Fe89 1.976 . S
O104 C98 1.287 . S
O105 Fe91 1.996 . S
O105 C98 1.255 . S
C106 O99 1.287 . S
C106 O100 1.255 . S
O107 Fe89 2.002 . S
O107 C103 1.295 . S
O108 Fe91 1.997 . S
O108 C103 1.235 . S
C109 O92 1.295 . S
C109 O93 1.235 . S
Fe110 O112 1.918 . S
Fe110 O115 1.997 . S
Fe110 O116 2.002 . S
Fe110 O121 1.976 . S
Fe110 O124 1.996 . S
Fe111 O112 1.918 . S
Fe111 O119 1.997 . S
Fe111 O122 1.996 . S
Fe111 O126 1.976 . S
Fe111 O129 2.002 . S
O112 Fe110 1.918 . S
O112 Fe111 1.918 . S
O112 Fe113 1.918 . S
Fe113 O112 1.918 . S
Fe113 O114 2.002 . S
Fe113 O123 1.976 . S
Fe113 O127 1.996 . S
Fe113 O130 1.997 . S
O114 Fe113 2.002 . S
O114 C131 1.295 . S
O115 Fe110 1.997 . S
O115 C131 1.235 . S
O116 Fe110 2.002 . S
O116 C117 1.295 . S
C117 O116 1.295 . S
C117 O119 1.235 . S
C118 O123 1.287 . S
C118 O124 1.255 . S
O119 Fe111 1.997 . S
O119 C117 1.235 . S
C120 O126 1.287 . S
C120 O127 1.255 . S
O121 Fe110 1.976 . S
O121 C128 1.287 . S
O122 Fe111 1.996 . S
O122 C128 1.255 . S
O123 Fe113 1.976 . S
O123 C118 1.287 . S
O124 Fe110 1.996 . S
O124 C118 1.255 . S
C125 O129 1.295 . S
C125 O130 1.235 . S
O126 Fe111 1.976 . S
O126 C120 1.287 . S
O127 Fe113 1.996 . S
O127 C120 1.255 . S
C128 O121 1.287 . S
C128 O122 1.255 . S
O129 Fe111 2.002 . S
O129 C125 1.295 . S
O130 Fe113 1.997 . S
O130 C125 1.235 . S
C131 O114 1.295 . S
C131 O115 1.235 . S
H132 C144 0.930 . S
H133 C146 0.930 . S
H134 C147 0.930 . S
H135 C151 0.959 . S
H136 C151 0.959 . S
H137 C151 0.961 . S
H138 C152 0.960 . S
H139 C152 0.961 . S
H140 C152 0.959 . S
H141 C155 0.929 . S
H142 C156 0.931 . S
H143 C158 0.930 . S
C144 H132 0.930 . S
C144 C145 1.399 . S
C144 C149 1.399 . S
C145 C144 1.399 . S
C145 C146 1.376 . S
C146 H133 0.930 . S
C146 C145 1.376 . S
C146 C147 1.388 . S
C147 H134 0.930 . S
C147 C146 1.388 . S
C147 C148 1.390 . S
C148 C147 1.390 . S
C148 C149 1.394 . S
C148 C154 1.465 . S
C149 C144 1.399 . S
C149 C148 1.394 . S
C149 C150 1.516 . S
C150 C149 1.516 . S
C150 C151 1.502 . S
C150 C152 1.561 . S
C150 C153 1.526 . S
C151 H135 0.959 . S
C151 H136 0.959 . S
C151 H137 0.961 . S
C151 C150 1.502 . S
C152 H138 0.960 . S
C152 H139 0.961 . S
C152 H140 0.959 . S
C152 C150 1.561 . S
C153 C150 1.526 . S
C153 C154 1.396 . S
C153 C158 1.390 . S
C154 C148 1.465 . S
C154 C153 1.396 . S
C154 C155 1.399 . S
C155 H141 0.929 . S
C155 C154 1.399 . S
C155 C156 1.385 . S
C156 H142 0.931 . S
C156 C155 1.385 . S
C156 C157 1.389 . S
C157 C156 1.389 . S
C157 C158 1.387 . S
C158 H143 0.930 . S
C158 C153 1.390 . S
C158 C157 1.387 . S
H159 C171 0.930 . S
H160 C173 0.930 . S
H161 C174 0.930 . S
H162 C178 0.959 . S
H163 C178 0.959 . S
H164 C178 0.961 . S
H165 C179 0.960 . S
H166 C179 0.961 . S
H167 C179 0.959 . S
H168 C182 0.929 . S
H169 C183 0.931 . S
H170 C185 0.930 . S
C171 H159 0.930 . S
C171 C172 1.399 . S
C171 C176 1.399 . S
C172 C171 1.399 . S
C172 C173 1.376 . S
C173 H160 0.930 . S
C173 C172 1.376 . S
C173 C174 1.388 . S
C174 H161 0.930 . S
C174 C173 1.388 . S
C174 C175 1.390 . S
C175 C174 1.390 . S
C175 C176 1.394 . S
C175 C181 1.465 . S
C176 C171 1.399 . S
C176 C175 1.394 . S
C176 C177 1.516 . S
C177 C176 1.516 . S
C177 C178 1.502 . S
C177 C179 1.561 . S
C177 C180 1.526 . S
C178 H162 0.959 . S
C178 H163 0.959 . S
C178 H164 0.961 . S
C178 C177 1.502 . S
C179 H165 0.960 . S
C179 H166 0.961 . S
C179 H167 0.959 . S
C179 C177 1.561 . S
C180 C177 1.526 . S
C180 C181 1.396 . S
C180 C185 1.390 . S
C181 C175 1.465 . S
C181 C180 1.396 . S
C181 C182 1.399 . S
C182 H168 0.929 . S
C182 C181 1.399 . S
C182 C183 1.385 . S
C183 H169 0.931 . S
C183 C182 1.385 . S
C183 C184 1.389 . S
C184 C183 1.389 . S
C184 C185 1.387 . S
C185 H170 0.930 . S
C185 C180 1.390 . S
C185 C184 1.387 . S
H186 C198 0.930 . S
H187 C200 0.930 . S
H188 C201 0.930 . S
H189 C205 0.959 . S
H190 C205 0.959 . S
H191 C205 0.961 . S
H192 C206 0.960 . S
H193 C206 0.961 . S
H194 C206 0.959 . S
H195 C209 0.929 . S
H196 C210 0.931 . S
H197 C212 0.930 . S
C198 H186 0.930 . S
C198 C199 1.399 . S
C198 C203 1.399 . S
C199 C198 1.399 . S
C199 C200 1.376 . S
C200 H187 0.930 . S
C200 C199 1.376 . S
C200 C201 1.388 . S
C201 H188 0.930 . S
C201 C200 1.388 . S
C201 C202 1.390 . S
C202 C201 1.390 . S
C202 C203 1.394 . S
C202 C208 1.465 . S
C203 C198 1.399 . S
C203 C202 1.394 . S
C203 C204 1.516 . S
C204 C203 1.516 . S
C204 C205 1.502 . S
C204 C206 1.561 . S
C204 C207 1.526 . S
C205 H189 0.959 . S
C205 H190 0.959 . S
C205 H191 0.961 . S
C205 C204 1.502 . S
C206 H192 0.960 . S
C206 H193 0.961 . S
C206 H194 0.959 . S
C206 C204 1.561 . S
C207 C204 1.526 . S
C207 C208 1.396 . S
C207 C212 1.390 . S
C208 C202 1.465 . S
C208 C207 1.396 . S
C208 C209 1.399 . S
C209 H195 0.929 . S
C209 C208 1.399 . S
C209 C210 1.385 . S
C210 H196 0.931 . S
C210 C209 1.385 . S
C210 C211 1.389 . S
C211 C210 1.389 . S
C211 C212 1.387 . S
C212 H197 0.930 . S
C212 C207 1.390 . S
C212 C211 1.387 . S
H213 C225 0.930 . S
H214 C227 0.930 . S
H215 C228 0.930 . S
H216 C232 0.959 . S
H217 C232 0.959 . S
H218 C232 0.961 . S
H219 C233 0.960 . S
H220 C233 0.961 . S
H221 C233 0.959 . S
H222 C236 0.929 . S
H223 C237 0.931 . S
H224 C239 0.930 . S
C225 H213 0.930 . S
C225 C226 1.399 . S
C225 C230 1.399 . S
C226 C225 1.399 . S
C226 C227 1.376 . S
C227 H214 0.930 . S
C227 C226 1.376 . S
C227 C228 1.388 . S
C228 H215 0.930 . S
C228 C227 1.388 . S
C228 C229 1.390 . S
C229 C228 1.390 . S
C229 C230 1.394 . S
C229 C235 1.465 . S
C230 C225 1.399 . S
C230 C229 1.394 . S
C230 C231 1.516 . S
C231 C230 1.516 . S
C231 C232 1.502 . S
C231 C233 1.561 . S
C231 C234 1.526 . S
C232 H216 0.959 . S
C232 H217 0.959 . S
C232 H218 0.961 . S
C232 C231 1.502 . S
C233 H219 0.960 . S
C233 H220 0.961 . S
C233 H221 0.959 . S
C233 C231 1.561 . S
C234 C231 1.526 . S
C234 C235 1.396 . S
C234 C239 1.390 . S
C235 C229 1.465 . S
C235 C234 1.396 . S
C235 C236 1.399 . S
C236 H222 0.929 . S
C236 C235 1.399 . S
C236 C237 1.385 . S
C237 H223 0.931 . S
C237 C236 1.385 . S
C237 C238 1.389 . S
C238 C237 1.389 . S
C238 C239 1.387 . S
C239 H224 0.930 . S
C239 C234 1.390 . S
C239 C238 1.387 . S
H240 C252 0.930 . S
H241 C254 0.930 . S
H242 C255 0.930 . S
H243 C259 0.959 . S
H244 C259 0.959 . S
H245 C259 0.961 . S
H246 C260 0.960 . S
H247 C260 0.961 . S
H248 C260 0.959 . S
H249 C263 0.929 . S
H250 C264 0.931 . S
H251 C266 0.930 . S
C252 H240 0.930 . S
C252 C253 1.399 . S
C252 C257 1.399 . S
C253 C252 1.399 . S
C253 C254 1.376 . S
C254 H241 0.930 . S
C254 C253 1.376 . S
C254 C255 1.388 . S
C255 H242 0.930 . S
C255 C254 1.388 . S
C255 C256 1.390 . S
C256 C255 1.390 . S
C256 C257 1.394 . S
C256 C262 1.465 . S
C257 C252 1.399 . S
C257 C256 1.394 . S
C257 C258 1.516 . S
C258 C257 1.516 . S
C258 C259 1.502 . S
C258 C260 1.561 . S
C258 C261 1.526 . S
C259 H243 0.959 . S
C259 H244 0.959 . S
C259 H245 0.961 . S
C259 C258 1.502 . S
C260 H246 0.960 . S
C260 H247 0.961 . S
C260 H248 0.959 . S
C260 C258 1.561 . S
C261 C258 1.526 . S
C261 C262 1.396 . S
C261 C266 1.390 . S
C262 C256 1.465 . S
C262 C261 1.396 . S
C262 C263 1.399 . S
C263 H249 0.929 . S
C263 C262 1.399 . S
C263 C264 1.385 . S
C264 H250 0.931 . S
C264 C263 1.385 . S
C264 C265 1.389 . S
C265 C264 1.389 . S
C265 C266 1.387 . S
C266 H251 0.930 . S
C266 C261 1.390 . S
C266 C265 1.387 . S
H267 C279 0.930 . S
H268 C281 0.930 . S
H269 C282 0.930 . S
H270 C286 0.959 . S
H271 C286 0.959 . S
H272 C286 0.961 . S
H273 C287 0.960 . S
H274 C287 0.961 . S
H275 C287 0.959 . S
H276 C290 0.929 . S
H277 C291 0.931 . S
H278 C293 0.930 . S
C279 H267 0.930 . S
C279 C280 1.399 . S
C279 C284 1.399 . S
C280 C279 1.399 . S
C280 C281 1.376 . S
C281 H268 0.930 . S
C281 C280 1.376 . S
C281 C282 1.388 . S
C282 H269 0.930 . S
C282 C281 1.388 . S
C282 C283 1.390 . S
C283 C282 1.390 . S
C283 C284 1.394 . S
C283 C289 1.465 . S
C284 C279 1.399 . S
C284 C283 1.394 . S
C284 C285 1.516 . S
C285 C284 1.516 . S
C285 C286 1.502 . S
C285 C287 1.561 . S
C285 C288 1.526 . S
C286 H270 0.959 . S
C286 H271 0.959 . S
C286 H272 0.961 . S
C286 C285 1.502 . S
C287 H273 0.960 . S
C287 H274 0.961 . S
C287 H275 0.959 . S
C287 C285 1.561 . S
C288 C285 1.526 . S
C288 C289 1.396 . S
C288 C293 1.390 . S
C289 C283 1.465 . S
C289 C288 1.396 . S
C289 C290 1.399 . S
C290 H276 0.929 . S
C290 C289 1.399 . S
C290 C291 1.385 . S
C291 H277 0.931 . S
C291 C290 1.385 . S
C291 C292 1.389 . S
C292 C291 1.389 . S
C292 C293 1.387 . S
C293 H278 0.930 . S
C293 C288 1.390 . S
C293 C292 1.387 . S
H294 C306 0.930 . S
H295 C308 0.930 . S
H296 C309 0.930 1_554 S
H297 C313 0.959 . S
H298 C313 0.959 . S
H299 C313 0.961 . S
H300 C314 0.960 . S
H301 C314 0.961 . S
H302 C314 0.959 . S
H303 C317 0.929 . S
H304 C318 0.931 . S
H305 C320 0.930 . S
C306 H294 0.930 . S
C306 C307 1.399 . S
C306 C311 1.399 . S
C307 C306 1.399 . S
C307 C308 1.376 . S
C308 H295 0.930 . S
C308 C307 1.376 . S
C308 C309 1.388 . S
C309 H296 0.930 1_556 S
C309 C308 1.388 . S
C309 C310 1.390 . S
C310 C309 1.390 . S
C310 C311 1.394 . S
C310 C316 1.465 1_556 S
C311 C306 1.399 . S
C311 C310 1.394 . S
C311 C312 1.516 . S
C312 C311 1.516 . S
C312 C313 1.502 . S
C312 C314 1.561 . S
C312 C315 1.526 1_556 S
C313 H297 0.959 . S
C313 H298 0.959 . S
C313 H299 0.961 . S
C313 C312 1.502 . S
C314 H300 0.960 . S
C314 H301 0.961 . S
C314 H302 0.959 . S
C314 C312 1.561 . S
C315 C312 1.526 1_554 S
C315 C316 1.396 . S
C315 C320 1.390 . S
C316 C310 1.465 1_554 S
C316 C315 1.396 . S
C316 C317 1.399 . S
C317 H303 0.929 . S
C317 C316 1.399 . S
C317 C318 1.385 . S
C318 H304 0.931 . S
C318 C317 1.385 . S
C318 C319 1.389 . S
C319 C318 1.389 . S
C319 C320 1.387 . S
C320 H305 0.930 . S
C320 C315 1.390 . S
C320 C319 1.387 . S
H321 C333 0.930 . S
H322 C335 0.930 . S
H323 C336 0.930 . S
H324 C340 0.959 . S
H325 C340 0.959 1_455 S
H326 C340 0.961 . S
H327 C341 0.960 . S
H328 C341 0.961 . S
H329 C341 0.959 . S
H330 C344 0.929 . S
H331 C345 0.931 . S
H332 C347 0.930 . S
C333 H321 0.930 . S
C333 C334 1.399 . S
C333 C338 1.399 . S
C334 C333 1.399 . S
C334 C335 1.376 . S
C335 H322 0.930 . S
C335 C334 1.376 . S
C335 C336 1.388 . S
C336 H323 0.930 . S
C336 C335 1.388 . S
C336 C337 1.390 . S
C337 C336 1.390 . S
C337 C338 1.394 . S
C337 C343 1.465 1_655 S
C338 C333 1.399 . S
C338 C337 1.394 . S
C338 C339 1.516 1_655 S
C339 C338 1.516 1_455 S
C339 C340 1.502 1_455 S
C339 C341 1.561 . S
C339 C342 1.526 . S
C340 H324 0.959 . S
C340 H325 0.959 1_655 S
C340 H326 0.961 . S
C340 C339 1.502 1_655 S
C341 H327 0.960 . S
C341 H328 0.961 . S
C341 H329 0.959 . S
C341 C339 1.561 . S
C342 C339 1.526 . S
C342 C343 1.396 . S
C342 C347 1.390 . S
C343 C337 1.465 1_455 S
C343 C342 1.396 . S
C343 C344 1.399 . S
C344 H330 0.929 . S
C344 C343 1.399 . S
C344 C345 1.385 . S
C345 H331 0.931 . S
C345 C344 1.385 . S
C345 C346 1.389 . S
C346 C345 1.389 . S
C346 C347 1.387 . S
C347 H332 0.930 . S
C347 C342 1.390 . S
C347 C346 1.387 . S
H348 C360 0.930 . S
H349 C362 0.930 . S
H350 C363 0.930 . S
H351 C367 0.959 . S
H352 C367 0.959 . S
H353 C367 0.961 . S
H354 C368 0.960 . S
H355 C368 0.961 . S
H356 C368 0.959 . S
H357 C371 0.929 1_545 S
H358 C372 0.931 . S
H359 C374 0.930 . S
C360 H348 0.930 . S
C360 C361 1.399 . S
C360 C365 1.399 . S
C361 C360 1.399 . S
C361 C362 1.376 . S
C362 H349 0.930 . S
C362 C361 1.376 . S
C362 C363 1.388 1_556 S
C363 H350 0.930 . S
C363 C362 1.388 1_554 S
C363 C364 1.390 . S
C364 C363 1.390 . S
C364 C365 1.394 1_554 S
C364 C370 1.465 1_545 S
C365 C360 1.399 . S
C365 C364 1.394 1_556 S
C365 C366 1.516 1_545 S
C366 C365 1.516 1_565 S
C366 C367 1.502 . S
C366 C368 1.561 . S
C366 C369 1.526 1_556 S
C367 H351 0.959 . S
C367 H352 0.959 . S
C367 H353 0.961 . S
C367 C366 1.502 . S
C368 H354 0.960 . S
C368 H355 0.961 . S
C368 H356 0.959 . S
C368 C366 1.561 . S
C369 C366 1.526 1_554 S
C369 C370 1.396 . S
C369 C374 1.390 . S
C370 C364 1.465 1_565 S
C370 C369 1.396 . S
C370 C371 1.399 . S
C371 H357 0.929 1_565 S
C371 C370 1.399 . S
C371 C372 1.385 . S
C372 H358 0.931 . S
C372 C371 1.385 . S
C372 C373 1.389 . S
C373 C372 1.389 . S
C373 C374 1.387 . S
C374 H359 0.930 . S
C374 C369 1.390 . S
C374 C373 1.387 . S
H375 C387 0.930 . S
H376 C389 0.930 . S
H377 C390 0.930 . S
H378 C394 0.959 . S
H379 C394 0.959 . S
H380 C394 0.961 . S
H381 C395 0.960 . S
H382 C395 0.961 . S
H383 C395 0.959 . S
H384 C398 0.929 . S
H385 C399 0.931 . S
H386 C401 0.930 . S
C387 H375 0.930 . S
C387 C388 1.399 . S
C387 C392 1.399 . S
C388 C387 1.399 . S
C388 C389 1.376 . S
C389 H376 0.930 . S
C389 C388 1.376 . S
C389 C390 1.388 . S
C390 H377 0.930 . S
C390 C389 1.388 . S
C390 C391 1.390 . S
C391 C390 1.390 . S
C391 C392 1.394 . S
C391 C397 1.465 . S
C392 C387 1.399 . S
C392 C391 1.394 . S
C392 C393 1.516 . S
C393 C392 1.516 . S
C393 C394 1.502 . S
C393 C395 1.561 . S
C393 C396 1.526 . S
C394 H378 0.959 . S
C394 H379 0.959 . S
C394 H380 0.961 . S
C394 C393 1.502 . S
C395 H381 0.960 . S
C395 H382 0.961 . S
C395 H383 0.959 . S
C395 C393 1.561 . S
C396 C393 1.526 . S
C396 C397 1.396 . S
C396 C401 1.390 . S
C397 C391 1.465 . S
C397 C396 1.396 . S
C397 C398 1.399 . S
C398 H384 0.929 . S
C398 C397 1.399 . S
C398 C399 1.385 . S
C399 H385 0.931 . S
C399 C398 1.385 . S
C399 C400 1.389 . S
C400 C399 1.389 . S
C400 C401 1.387 . S
C401 H386 0.930 . S
C401 C396 1.390 . S
C401 C400 1.387 . S
H402 C414 0.930 . S
H403 C416 0.930 . S
H404 C417 0.930 1_455 S
H405 C421 0.959 . S
H406 C421 0.959 . S
H407 C421 0.961 . S
H408 C422 0.960 1_655 S
H409 C422 0.961 1_554 S
H410 C422 0.959 . S
H411 C425 0.929 1_556 S
H412 C426 0.931 . S
H413 C428 0.930 . S
C414 H402 0.930 . S
C414 C415 1.399 . S
C414 C419 1.399 . S
C415 C414 1.399 . S
C415 C416 1.376 . S
C416 H403 0.930 . S
C416 C415 1.376 . S
C416 C417 1.388 . S
C417 H404 0.930 1_655 S
C417 C416 1.388 . S
C417 C418 1.390 . S
C418 C417 1.390 . S
C418 C419 1.394 . S
C418 C424 1.465 1_656 S
C419 C414 1.399 . S
C419 C418 1.394 . S
C419 C420 1.516 1_556 S
C420 C419 1.516 1_554 S
C420 C421 1.502 . S
C420 C422 1.561 1_654 S
C420 C423 1.526 1_655 S
C421 H405 0.959 . S
C421 H406 0.959 . S
C421 H407 0.961 . S
C421 C420 1.502 . S
C422 H408 0.960 1_455 S
C422 H409 0.961 1_556 S
C422 H410 0.959 . S
C422 C420 1.561 1_456 S
C423 C420 1.526 1_455 S
C423 C424 1.396 . S
C423 C428 1.390 . S
C424 C418 1.465 1_454 S
C424 C423 1.396 . S
C424 C425 1.399 . S
C425 H411 0.929 1_554 S
C425 C424 1.399 . S
C425 C426 1.385 . S
C426 H412 0.931 . S
C426 C425 1.385 . S
C426 C427 1.389 . S
C427 C426 1.389 . S
C427 C428 1.387 . S
C428 H413 0.930 . S
C428 C423 1.390 . S
C428 C427 1.387 . S
H429 C441 0.930 . S
H430 C443 0.930 . S
H431 C444 0.930 1_565 S
H432 C448 0.959 . S
H433 C448 0.959 . S
H434 C448 0.961 . S
H435 C449 0.960 . S
H436 C449 0.961 . S
H437 C449 0.959 . S
H438 C452 0.929 . S
H439 C453 0.931 . S
H440 C455 0.930 . S
C441 H429 0.930 . S
C441 C442 1.399 . S
C441 C446 1.399 . S
C442 C441 1.399 . S
C442 C443 1.376 . S
C443 H430 0.930 . S
C443 C442 1.376 . S
C443 C444 1.388 . S
C444 H431 0.930 1_545 S
C444 C443 1.388 . S
C444 C445 1.390 . S
C445 C444 1.390 . S
C445 C446 1.394 . S
C445 C451 1.465 1_545 S
C446 C441 1.399 . S
C446 C445 1.394 . S
C446 C447 1.516 . S
C447 C446 1.516 . S
C447 C448 1.502 . S
C447 C449 1.561 . S
C447 C450 1.526 1_545 S
C448 H432 0.959 . S
C448 H433 0.959 . S
C448 H434 0.961 . S
C448 C447 1.502 . S
C449 H435 0.960 . S
C449 H436 0.961 . S
C449 H437 0.959 . S
C449 C447 1.561 . S
C450 C447 1.526 1_565 S
C450 C451 1.396 . S
C450 C455 1.390 . S
C451 C445 1.465 1_565 S
C451 C450 1.396 . S
C451 C452 1.399 . S
C452 H438 0.929 . S
C452 C451 1.399 . S
C452 C453 1.385 . S
C453 H439 0.931 . S
C453 C452 1.385 . S
C453 C454 1.389 . S
C454 C453 1.389 . S
C454 C455 1.387 . S
C455 H440 0.930 . S
C455 C450 1.390 . S
C455 C454 1.387 . S
H456 C468 0.930 . S
H457 C470 0.930 . S
H458 C471 0.930 . S
H459 C475 0.959 . S
H460 C475 0.959 . S
H461 C475 0.961 . S
H462 C476 0.960 . S
H463 C476 0.961 . S
H464 C476 0.959 . S
H465 C479 0.929 . S
H466 C480 0.931 . S
H467 C482 0.930 . S
C468 H456 0.930 . S
C468 C469 1.399 . S
C468 C473 1.399 . S
C469 C468 1.399 . S
C469 C470 1.376 . S
C470 H457 0.930 . S
C470 C469 1.376 . S
C470 C471 1.388 . S
C471 H458 0.930 . S
C471 C470 1.388 . S
C471 C472 1.390 . S
C472 C471 1.390 . S
C472 C473 1.394 . S
C472 C478 1.465 1_554 S
C473 C468 1.399 . S
C473 C472 1.394 . S
C473 C474 1.516 . S
C474 C473 1.516 . S
C474 C475 1.502 1_554 S
C474 C476 1.561 . S
C474 C477 1.526 1_554 S
C475 H459 0.959 . S
C475 H460 0.959 . S
C475 H461 0.961 . S
C475 C474 1.502 1_556 S
C476 H462 0.960 . S
C476 H463 0.961 . S
C476 H464 0.959 . S
C476 C474 1.561 . S
C477 C474 1.526 1_556 S
C477 C478 1.396 . S
C477 C482 1.390 . S
C478 C472 1.465 1_556 S
C478 C477 1.396 . S
C478 C479 1.399 . S
C479 H465 0.929 . S
C479 C478 1.399 . S
C479 C480 1.385 . S
C480 H466 0.931 . S
C480 C479 1.385 . S
C480 C481 1.389 . S
C481 C480 1.389 . S
C481 C482 1.387 . S
C482 H467 0.930 . S
C482 C477 1.390 . S
C482 C481 1.387 . S
H483 C495 0.930 . S
H484 C497 0.930 . S
H485 C498 0.930 1_455 S
H486 C502 0.959 . S
H487 C502 0.959 . S
H488 C502 0.961 . S
H489 C503 0.960 . S
H490 C503 0.961 . S
H491 C503 0.959 . S
H492 C506 0.929 . S
H493 C507 0.931 . S
H494 C509 0.930 . S
C495 H483 0.930 . S
C495 C496 1.399 . S
C495 C500 1.399 . S
C496 C495 1.399 . S
C496 C497 1.376 . S
C497 H484 0.930 . S
C497 C496 1.376 . S
C497 C498 1.388 . S
C498 H485 0.930 1_655 S
C498 C497 1.388 . S
C498 C499 1.390 . S
C499 C498 1.390 . S
C499 C500 1.394 . S
C499 C505 1.465 1_655 S
C500 C495 1.399 . S
C500 C499 1.394 . S
C500 C501 1.516 . S
C501 C500 1.516 . S
C501 C502 1.502 . S
C501 C503 1.561 . S
C501 C504 1.526 1_655 S
C502 H486 0.959 . S
C502 H487 0.959 . S
C502 H488 0.961 . S
C502 C501 1.502 . S
C503 H489 0.960 . S
C503 H490 0.961 . S
C503 H491 0.959 . S
C503 C501 1.561 . S
C504 C501 1.526 1_455 S
C504 C505 1.396 . S
C504 C509 1.390 . S
C505 C499 1.465 1_455 S
C505 C504 1.396 . S
C505 C506 1.399 . S
C506 H492 0.929 . S
C506 C505 1.399 . S
C506 C507 1.385 . S
C507 H493 0.931 . S
C507 C506 1.385 . S
C507 C508 1.389 . S
C508 C507 1.389 . S
C508 C509 1.387 . S
C509 H494 0.930 . S
C509 C504 1.390 . S
C509 C508 1.387 . S
H510 C522 0.930 . S
H511 C524 0.930 . S
H512 C525 0.930 . S
H513 C529 0.959 . S
H514 C529 0.959 . S
H515 C529 0.961 . S
H516 C530 0.960 . S
H517 C530 0.961 . S
H518 C530 0.959 . S
H519 C533 0.929 1_565 S
H520 C534 0.931 . S
H521 C536 0.930 . S
C522 H510 0.930 . S
C522 C523 1.399 . S
C522 C527 1.399 . S
C523 C522 1.399 . S
C523 C524 1.376 . S
C524 H511 0.930 . S
C524 C523 1.376 . S
C524 C525 1.388 1_554 S
C525 H512 0.930 . S
C525 C524 1.388 1_556 S
C525 C526 1.390 . S
C526 C525 1.390 . S
C526 C527 1.394 1_556 S
C526 C532 1.465 1_565 S
C527 C522 1.399 . S
C527 C526 1.394 1_554 S
C527 C528 1.516 1_565 S
C528 C527 1.516 1_545 S
C528 C529 1.502 . S
C528 C530 1.561 . S
C528 C531 1.526 1_554 S
C529 H513 0.959 . S
C529 H514 0.959 . S
C529 H515 0.961 . S
C529 C528 1.502 . S
C530 H516 0.960 . S
C530 H517 0.961 . S
C530 H518 0.959 . S
C530 C528 1.561 . S
C531 C528 1.526 1_556 S
C531 C532 1.396 . S
C531 C536 1.390 . S
C532 C526 1.465 1_545 S
C532 C531 1.396 . S
C532 C533 1.399 . S
C533 H519 0.929 1_545 S
C533 C532 1.399 . S
C533 C534 1.385 . S
C534 H520 0.931 . S
C534 C533 1.385 . S
C534 C535 1.389 . S
C535 C534 1.389 . S
C535 C536 1.387 . S
C536 H521 0.930 . S
C536 C531 1.390 . S
C536 C535 1.387 . S
H537 C549 0.930 . S
H538 C551 0.930 . S
H539 C552 0.930 . S
H540 C556 0.959 . S
H541 C556 0.959 . S
H542 C556 0.961 . S
H543 C557 0.960 . S
H544 C557 0.961 . S
H545 C557 0.959 . S
H546 C560 0.929 . S
H547 C561 0.931 . S
H548 C563 0.930 . S
C549 H537 0.930 . S
C549 C550 1.399 . S
C549 C554 1.399 . S
C550 C549 1.399 . S
C550 C551 1.376 . S
C551 H538 0.930 . S
C551 C550 1.376 . S
C551 C552 1.388 . S
C552 H539 0.930 . S
C552 C551 1.388 . S
C552 C553 1.390 . S
C553 C552 1.390 . S
C553 C554 1.394 . S
C553 C559 1.465 . S
C554 C549 1.399 . S
C554 C553 1.394 . S
C554 C555 1.516 . S
C555 C554 1.516 . S
C555 C556 1.502 . S
C555 C557 1.561 . S
C555 C558 1.526 . S
C556 H540 0.959 . S
C556 H541 0.959 . S
C556 H542 0.961 . S
C556 C555 1.502 . S
C557 H543 0.960 . S
C557 H544 0.961 . S
C557 H545 0.959 . S
C557 C555 1.561 . S
C558 C555 1.526 . S
C558 C559 1.396 . S
C558 C563 1.390 . S
C559 C553 1.465 . S
C559 C558 1.396 . S
C559 C560 1.399 . S
C560 H546 0.929 . S
C560 C559 1.399 . S
C560 C561 1.385 . S
C561 H547 0.931 . S
C561 C560 1.385 . S
C561 C562 1.389 . S
C562 C561 1.389 . S
C562 C563 1.387 . S
C563 H548 0.930 . S
C563 C558 1.390 . S
C563 C562 1.387 . S
H564 C576 0.930 . S
H565 C578 0.930 . S
H566 C579 0.930 . S
H567 C583 0.959 . S
H568 C583 0.959 1_554 S
H569 C583 0.961 1_655 S
H570 C584 0.960 . S
H571 C584 0.961 . S
H572 C584 0.959 . S
H573 C587 0.929 . S
H574 C588 0.931 . S
H575 C590 0.930 . S
C576 H564 0.930 . S
C576 C577 1.399 . S
C576 C581 1.399 . S
C577 C576 1.399 . S
C577 C578 1.376 . S
C578 H565 0.930 . S
C578 C577 1.376 . S
C578 C579 1.388 . S
C579 H566 0.930 . S
C579 C578 1.388 . S
C579 C580 1.390 . S
C580 C579 1.390 . S
C580 C581 1.394 . S
C580 C586 1.465 1_656 S
C581 C576 1.399 . S
C581 C580 1.394 . S
C581 C582 1.516 1_556 S
C582 C581 1.516 1_554 S
C582 C583 1.502 1_654 S
C582 C584 1.561 . S
C582 C585 1.526 1_655 S
C583 H567 0.959 . S
C583 H568 0.959 1_556 S
C583 H569 0.961 1_455 S
C583 C582 1.502 1_456 S
C584 H570 0.960 . S
C584 H571 0.961 . S
C584 H572 0.959 . S
C584 C582 1.561 . S
C585 C582 1.526 1_455 S
C585 C586 1.396 . S
C585 C590 1.390 . S
C586 C580 1.465 1_454 S
C586 C585 1.396 . S
C586 C587 1.399 . S
C587 H573 0.929 . S
C587 C586 1.399 . S
C587 C588 1.385 . S
C588 H574 0.931 . S
C588 C587 1.385 . S
C588 C589 1.389 . S
C589 C588 1.389 . S
C589 C590 1.387 . S
C590 H575 0.930 . S
C590 C585 1.390 . S
C590 C589 1.387 . S
H591 C603 0.930 . S
H592 C605 0.930 . S
H593 C606 0.930 . S
H594 C610 0.959 1_565 S
H595 C610 0.959 . S
H596 C610 0.961 1_565 S
H597 C611 0.960 . S
H598 C611 0.961 . S
H599 C611 0.959 . S
H600 C614 0.929 . S
H601 C615 0.931 . S
H602 C617 0.930 . S
C603 H591 0.930 . S
C603 C604 1.399 . S
C603 C608 1.399 . S
C604 C603 1.399 . S
C604 C605 1.376 . S
C605 H592 0.930 . S
C605 C604 1.376 . S
C605 C606 1.388 . S
C606 H593 0.930 . S
C606 C605 1.388 . S
C606 C607 1.390 . S
C607 C606 1.390 . S
C607 C608 1.394 . S
C607 C613 1.465 1_565 S
C608 C603 1.399 . S
C608 C607 1.394 . S
C608 C609 1.516 1_565 S
C609 C608 1.516 1_545 S
C609 C610 1.502 . S
C609 C611 1.561 . S
C609 C612 1.526 . S
C610 H594 0.959 1_545 S
C610 H595 0.959 . S
C610 H596 0.961 1_545 S
C610 C609 1.502 . S
C611 H597 0.960 . S
C611 H598 0.961 . S
C611 H599 0.959 . S
C611 C609 1.561 . S
C612 C609 1.526 . S
C612 C613 1.396 . S
C612 C617 1.390 . S
C613 C607 1.465 1_545 S
C613 C612 1.396 . S
C613 C614 1.399 . S
C614 H600 0.929 . S
C614 C613 1.399 . S
C614 C615 1.385 . S
C615 H601 0.931 . S
C615 C614 1.385 . S
C615 C616 1.389 . S
C616 C615 1.389 . S
C616 C617 1.387 . S
C617 H602 0.930 . S
C617 C612 1.390 . S
C617 C616 1.387 . S
C145 C15 1.470 . S
C157 C103 1.468 . S
C172 C40 1.439 . S
C184 C117 1.427 . S
C199 C10 1.391 . S
C211 C54 1.389 . S
C226 C81 1.470 . S
C238 C29 1.468 . S
C253 C59 1.389 . S
C265 C98 1.420 . S
C280 C76 1.387 . S
C292 C128 1.386 . S
C307 C120 1.473 . S
C319 C8 1.477 . S
C334 C43 1.538 . S
C346 C7 1.535 . S
C361 C32 1.510 . S
C373 C51 1.516 . S
C388 C52 1.473 . S
C400 C74 1.475 . S
C415 C73 1.549 . S
C427 C95 1.529 . S
C442 C131 1.523 . S
C454 C96 1.514 . S
C469 C62 1.479 . S
C481 C84 1.476 . S
C496 C87 1.542 . S
C508 C109 1.529 . S
C523 C106 1.510 . S
C535 C125 1.522 . S
C550 C118 1.481 . S
C562 C18 1.473 . S
C577 C37 1.534 . S
C589 C21 1.535 . S
C604 C65 1.515 . S
C616 C30 1.516 . S
