# Generated by pormake.
# Topology ure, (4)-cn, num edge types: 1
# Building blocks:
#     Node 0, Type 0, BuildingBlock: UXUYUI_clean_sbu_0, # of connection points: 4
#     Node 1, Type 0, BuildingBlock: UXUYUI_clean_sbu_0, # of connection points: 4
#     Node 2, Type 0, BuildingBlock: UXUYUI_clean_sbu_0, # of connection points: 4
#     Node 3, Type 0, BuildingBlock: UXUYUI_clean_sbu_0, # of connection points: 4
#     Node 4, Type 0, BuildingBlock: UXUYUI_clean_sbu_0, # of connection points: 4
#     Node 5, Type 0, BuildingBlock: UXUYUI_clean_sbu_0, # of connection points: 4
#     Node 6, Type 0, BuildingBlock: UXUYUI_clean_sbu_0, # of connection points: 4
#     Node 7, Type 0, BuildingBlock: UXUYUI_clean_sbu_0, # of connection points: 4
#     Node 8, Type 0, BuildingBlock: UXUYUI_clean_sbu_0, # of connection points: 4
#     Node 9, Type 0, BuildingBlock: UXUYUI_clean_sbu_0, # of connection points: 4
#     Node 10, Type 0, BuildingBlock: UXUYUI_clean_sbu_0, # of connection points: 4
#     Node 11, Type 0, BuildingBlock: UXUYUI_clean_sbu_0, # of connection points: 4
#     Node 12, Type 0, BuildingBlock: UXUYUI_clean_sbu_0, # of connection points: 4
#     Node 13, Type 0, BuildingBlock: UXUYUI_clean_sbu_0, # of connection points: 4
#     Node 14, Type 0, BuildingBlock: UXUYUI_clean_sbu_0, # of connection points: 4
#     Node 15, Type 0, BuildingBlock: UXUYUI_clean_sbu_0, # of connection points: 4
#     Edge 16, Type (0, 0), BuildingBlock: UVAHIK_clean_linker_0, # of connection points: 2
#     Edge 17, Type (0, 0), BuildingBlock: UVAHIK_clean_linker_0, # of connection points: 2
#     Edge 18, Type (0, 0), BuildingBlock: UVAHIK_clean_linker_0, # of connection points: 2
#     Edge 19, Type (0, 0), BuildingBlock: UVAHIK_clean_linker_0, # of connection points: 2
#     Edge 20, Type (0, 0), BuildingBlock: UVAHIK_clean_linker_0, # of connection points: 2
#     Edge 21, Type (0, 0), BuildingBlock: UVAHIK_clean_linker_0, # of connection points: 2
#     Edge 22, Type (0, 0), BuildingBlock: UVAHIK_clean_linker_0, # of connection points: 2
#     Edge 23, Type (0, 0), BuildingBlock: UVAHIK_clean_linker_0, # of connection points: 2
#     Edge 24, Type (0, 0), BuildingBlock: UVAHIK_clean_linker_0, # of connection points: 2
#     Edge 25, Type (0, 0), BuildingBlock: UVAHIK_clean_linker_0, # of connection points: 2
#     Edge 26, Type (0, 0), BuildingBlock: UVAHIK_clean_linker_0, # of connection points: 2
#     Edge 27, Type (0, 0), BuildingBlock: UVAHIK_clean_linker_0, # of connection points: 2
#     Edge 28, Type (0, 0), BuildingBlock: UVAHIK_clean_linker_0, # of connection points: 2
#     Edge 29, Type (0, 0), BuildingBlock: UVAHIK_clean_linker_0, # of connection points: 2
#     Edge 30, Type (0, 0), BuildingBlock: UVAHIK_clean_linker_0, # of connection points: 2
#     Edge 31, Type (0, 0), BuildingBlock: UVAHIK_clean_linker_0, # of connection points: 2
#     Edge 32, Type (0, 0), BuildingBlock: UVAHIK_clean_linker_0, # of connection points: 2
#     Edge 33, Type (0, 0), BuildingBlock: UVAHIK_clean_linker_0, # of connection points: 2
#     Edge 34, Type (0, 0), BuildingBlock: UVAHIK_clean_linker_0, # of connection points: 2
#     Edge 35, Type (0, 0), BuildingBlock: UVAHIK_clean_linker_0, # of connection points: 2
#     Edge 36, Type (0, 0), BuildingBlock: UVAHIK_clean_linker_0, # of connection points: 2
#     Edge 37, Type (0, 0), BuildingBlock: UVAHIK_clean_linker_0, # of connection points: 2
#     Edge 38, Type (0, 0), BuildingBlock: UVAHIK_clean_linker_0, # of connection points: 2
#     Edge 39, Type (0, 0), BuildingBlock: UVAHIK_clean_linker_0, # of connection points: 2
#     Edge 40, Type (0, 0), BuildingBlock: UVAHIK_clean_linker_0, # of connection points: 2
#     Edge 41, Type (0, 0), BuildingBlock: UVAHIK_clean_linker_0, # of connection points: 2
#     Edge 42, Type (0, 0), BuildingBlock: UVAHIK_clean_linker_0, # of connection points: 2
#     Edge 43, Type (0, 0), BuildingBlock: UVAHIK_clean_linker_0, # of connection points: 2
#     Edge 44, Type (0, 0), BuildingBlock: UVAHIK_clean_linker_0, # of connection points: 2
#     Edge 45, Type (0, 0), BuildingBlock: UVAHIK_clean_linker_0, # of connection points: 2
#     Edge 46, Type (0, 0), BuildingBlock: UVAHIK_clean_linker_0, # of connection points: 2
#     Edge 47, Type (0, 0), BuildingBlock: UVAHIK_clean_linker_0, # of connection points: 2
# Relax obj value: 0.164
# Max RMSD: 0.090
# Mean RMSD: 0.090
data_MOF--net-ure--node1-UXUYUI_clean_sbu_0--edge1-UVAHIK_clean_linker_0
_symmetry_space_group_name_H-M    P1
_symmetry_Int_Tables_number       1
_symmetry_cell_setting            triclinic
loop_
_symmetry_equiv_pos_as_xyz
'x, y, z'
_cell_length_a     55.765228
_cell_length_b     55.672712
_cell_length_c     55.684667
_cell_angle_alpha  90.074276
_cell_angle_beta   90.111824
_cell_angle_gamma 90.261429
loop_
_atom_site_label
_atom_site_type_symbol
_atom_site_fract_x
_atom_site_fract_y
_atom_site_fract_z
_atom_type_partial_charge
Li0 Li 0.25504 0.28932 0.26501 0.0
Li1 Li 0.25621 0.25378 0.28918 0.0
Li2 Li 0.28639 0.25875 0.25986 0.0
Li3 Li 0.24405 0.24801 0.2483 0.0
C4 C 0.2966 0.2981 0.28985 0.0
N5 N 0.3289 0.33574 0.29354 0.0
C6 C 0.30217 0.3079 0.31231 0.0
C7 C 0.3074 0.30752 0.26928 0.0
C8 C 0.31854 0.32691 0.31381 0.0
C9 C 0.32371 0.32651 0.2715 0.0
C10 C 0.20914 0.26644 0.28857 0.0
C11 C 0.17174 0.24877 0.30135 0.0
N12 N 0.17158 0.2637 0.32071 0.0
C13 C 0.20853 0.28175 0.30846 0.0
C14 C 0.19057 0.24989 0.28486 0.0
C15 C 0.18942 0.28001 0.32456 0.0
C16 C 0.24348 0.3336 0.2427 0.0
N17 N 0.24829 0.32257 0.26391 0.0
C18 C 0.24651 0.35993 0.28489 0.0
C19 C 0.24945 0.33509 0.28484 0.0
C20 C 0.24227 0.372 0.26317 0.0
C21 C 0.2404 0.35848 0.2419 0.0
H22 H 0.24247 0.32312 0.22636 0.0
H23 H 0.25309 0.32579 0.30148 0.0
C24 C 0.27105 0.24823 0.33634 0.0
N25 N 0.25233 0.2428 0.32162 0.0
C26 C 0.2703 0.24225 0.3606 0.0
C27 C 0.23129 0.22427 0.35416 0.0
C28 C 0.23288 0.23051 0.3299 0.0
C29 C 0.25008 0.23041 0.36989 0.0
H30 H 0.2866 0.25738 0.32922 0.0
H31 H 0.21858 0.22555 0.31778 0.0
C32 C 0.27476 0.27539 0.21197 0.0
N33 N 0.29301 0.27864 0.16595 0.0
C34 C 0.27409 0.25546 0.19667 0.0
C35 C 0.28454 0.29704 0.20375 0.0
C36 C 0.28344 0.25745 0.1735 0.0
C37 C 0.29375 0.29829 0.18047 0.0
C38 C 0.26699 0.20944 0.2808 0.0
C39 C 0.28693 0.20313 0.29461 0.0
C40 C 0.24584 0.19598 0.28256 0.0
C41 C 0.28533 0.1835 0.31013 0.0
C42 C 0.24498 0.17644 0.29825 0.0
N43 N 0.26456 0.17067 0.31162 0.0
C44 C 0.33354 0.25272 0.27401 0.0
C45 C 0.32936 0.25073 0.23171 0.0
C46 C 0.35825 0.24958 0.27221 0.0
N47 N 0.31967 0.2535 0.25393 0.0
C48 C 0.35404 0.2475 0.22906 0.0
C49 C 0.36884 0.247 0.2495 0.0
H50 H 0.32538 0.25477 0.29149 0.0
H51 H 0.31809 0.25099 0.216 0.0
C52 C 0.20477 0.24244 0.21685 0.0
N53 N 0.22434 0.2314 0.2262 0.0
C54 C 0.19016 0.23039 0.20033 0.0
C55 C 0.21631 0.19597 0.20336 0.0
C56 C 0.23033 0.20864 0.21985 0.0
C57 C 0.19592 0.20685 0.19336 0.0
H58 H 0.20056 0.26062 0.22224 0.0
H59 H 0.2461 0.2004 0.22752 0.0
O60 O 0.28019 0.27977 0.28813 0.0
O61 O 0.22761 0.26787 0.27255 0.0
O62 O 0.26535 0.27391 0.23462 0.0
O63 O 0.26802 0.22891 0.2659 0.0
H64 H 0.29376 0.30105 0.32843 0.0
H65 H 0.30331 0.30021 0.2518 0.0
H66 H 0.32297 0.33469 0.33108 0.0
H67 H 0.33223 0.33391 0.25571 0.0
H68 H 0.15729 0.23599 0.29879 0.0
H69 H 0.22279 0.29462 0.31156 0.0
H70 H 0.19078 0.23796 0.2695 0.0
H71 H 0.18879 0.29162 0.34014 0.0
H72 H 0.24767 0.36959 0.30175 0.0
H73 H 0.23729 0.36709 0.22476 0.0
H74 H 0.28514 0.24745 0.37208 0.0
H75 H 0.21556 0.21476 0.36053 0.0
H76 H 0.26685 0.23852 0.20273 0.0
H77 H 0.28502 0.31276 0.21517 0.0
H78 H 0.28316 0.24212 0.16154 0.0
H79 H 0.30144 0.31491 0.17392 0.0
H80 H 0.3034 0.21341 0.2935 0.0
H81 H 0.23014 0.20082 0.27222 0.0
H82 H 0.30058 0.17848 0.32103 0.0
H83 H 0.22869 0.16595 0.29991 0.0
H84 H 0.36896 0.24964 0.28845 0.0
H85 H 0.36142 0.24523 0.21123 0.0
H86 H 0.17471 0.23948 0.19289 0.0
H87 H 0.22122 0.17775 0.19872 0.0
Li88 Li 0.98668 0.03973 0.50371 0.0
Li89 Li 0.96111 0.00588 0.5056 0.0
Li90 Li 0.99115 0.00958 0.53561 0.0
Li91 Li 0.00135 0.998 0.49326 0.0
C92 C 0.96558 0.0496 0.5469 0.0
N93 N 0.9688 0.08487 0.58184 0.0
C94 C 0.94534 0.0561 0.56016 0.0
C95 C 0.98752 0.06098 0.55163 0.0
C96 C 0.94732 0.07398 0.57769 0.0
C97 C 0.98876 0.07879 0.56928 0.0
C98 C 0.96107 0.01409 0.45922 0.0
C99 C 0.94517 0.9891 0.42754 0.0
N100 N 0.9268 0.00481 0.42453 0.0
C101 C 0.94216 0.0301 0.4557 0.0
C102 C 0.96271 0.99349 0.44497 0.0
C103 C 0.92496 0.02504 0.43811 0.0
C104 C 0.01004 0.08345 0.49136 0.0
N105 N 0.98861 0.07271 0.49588 0.0
C106 C 0.96806 0.1099 0.49118 0.0
C107 C 0.96781 0.08528 0.4957 0.0
C108 C 0.98999 0.12178 0.4871 0.0
C109 C 0.01118 0.10814 0.48705 0.0
H110 H 0.02625 0.0729 0.4914 0.0
H111 H 0.95104 0.07617 0.49934 0.0
C112 C 0.92022 0.97836 0.48735 0.0
N113 N 0.92793 0.99728 0.50087 0.0
C114 C 0.89575 0.97299 0.48566 0.0
C115 C 0.88753 0.00733 0.51082 0.0
C116 C 0.91207 0.01193 0.51207 0.0
C117 C 0.87907 0.98742 0.49779 0.0
H118 H 0.93295 0.96738 0.47785 0.0
H119 H 0.91846 0.02734 0.52194 0.0
C120 C 0.0398 0.02002 0.52169 0.0
N121 N 0.08655 0.01297 0.53659 0.0
C122 C 0.04866 0.99676 0.52453 0.0
C123 C 0.05466 0.03971 0.52668 0.0
C124 C 0.07237 0.99356 0.53197 0.0
C125 C 0.07824 0.03577 0.53417 0.0
C126 C 0.96843 0.96 0.51765 0.0
C127 C 0.95284 0.95587 0.53684 0.0
C128 C 0.96924 0.94353 0.49868 0.0
C129 C 0.93822 0.93542 0.53668 0.0
C130 C 0.95441 0.92324 0.49923 0.0
N131 N 0.93931 0.91966 0.51805 0.0
C132 C 0.97721 0.0024 0.58258 0.0
C133 C 0.01941 0.0062 0.57965 0.0
C134 C 0.97874 -0.00035 0.60739 0.0
N135 N 0.99735 0.00538 0.56918 0.0
C136 C 0.0218 0.00351 0.60448 0.0
C137 C 0.00127 0.00012 0.61866 0.0
H138 H 0.95983 0.00265 0.57398 0.0
H139 H 0.03521 0.00919 0.56901 0.0
C140 C 0.03106 0.99195 0.45307 0.0
N141 N 0.02265 0.98082 0.47307 0.0
C142 C 0.04677 0.98001 0.43767 0.0
C143 C 0.04487 0.94545 0.46386 0.0
C144 C 0.02928 0.95806 0.47874 0.0
C145 C 0.05386 0.95641 0.44299 0.0
H146 H 0.02555 0.01013 0.44911 0.0
H147 H 0.02247 0.94969 0.49487 0.0
O148 O 0.96388 0.03172 0.52996 0.0
O149 O 0.9779 0.01855 0.47655 0.0
O150 O 0.01673 0.0236 0.51412 0.0
O151 O 0.98305 0.97984 0.51759 0.0
H152 H 0.92826 0.04732 0.55718 0.0
H153 H 0.00349 0.05621 0.54189 0.0
H154 H 0.93178 0.07914 0.58806 0.0
H155 H 0.00561 0.08773 0.57304 0.0
H156 H 0.94611 0.97315 0.41647 0.0
H157 H 0.94066 0.04612 0.4666 0.0
H158 H 0.97721 0.9809 0.44752 0.0
H159 H 0.91012 0.03717 0.4353 0.0
H160 H 0.95121 0.11948 0.49091 0.0
H161 H 0.02852 0.11647 0.48427 0.0
H162 H 0.89002 0.95752 0.4753 0.0
H163 H 0.87531 0.01939 0.51984 0.0
H164 H 0.03717 0.98137 0.52167 0.0
H165 H 0.04803 0.05785 0.52497 0.0
H166 H 0.07944 0.97565 0.53427 0.0
H167 H 0.08992 0.05085 0.53809 0.0
H168 H 0.95189 0.96835 0.55164 0.0
H169 H 0.98076 0.9466 0.48341 0.0
H170 H 0.926 0.93209 0.55138 0.0
H171 H 0.95477 0.91045 0.4846 0.0
H172 H 0.9624 0.99769 0.61769 0.0
H173 H 0.03952 0.00399 0.61246 0.0
H174 H 0.05347 0.98924 0.42193 0.0
H175 H 0.04957 0.92719 0.46852 0.0
Li176 Li 0.21093 0.73886 0.75704 0.0
Li177 Li 0.25164 0.75169 0.74611 0.0
Li178 Li 0.24415 0.71157 0.76194 0.0
Li179 Li 0.24058 0.74569 0.78724 0.0
C180 C 0.22491 0.73208 0.7089 0.0
N181 N 0.21063 0.74589 0.66344 0.0
C182 C 0.21565 0.75506 0.70507 0.0
C183 C 0.22693 0.71614 0.68961 0.0
C184 C 0.20853 0.7617 0.68196 0.0
C185 C 0.21959 0.72345 0.66677 0.0
C186 C 0.23108 0.79016 0.77751 0.0
C187 C 0.25823 0.81944 0.79457 0.0
N188 N 0.2394 0.83045 0.80539 0.0
C189 C 0.21199 0.80182 0.78872 0.0
C190 C 0.2544 0.79905 0.7804 0.0
C191 C 0.21657 0.82215 0.80277 0.0
C192 C 0.16435 0.75095 0.76864 0.0
N193 N 0.17742 0.7406 0.75091 0.0
C194 C 0.14173 0.73058 0.72918 0.0
C195 C 0.16668 0.73037 0.73144 0.0
C196 C 0.12776 0.7411 0.74731 0.0
C197 C 0.13942 0.75155 0.76715 0.0
H198 H 0.17334 0.75818 0.78429 0.0
H199 H 0.17734 0.72138 0.71802 0.0
C200 C 0.28909 0.7588 0.71334 0.0
N201 N 0.27013 0.76962 0.72403 0.0
C202 C 0.30333 0.77153 0.6971 0.0
C203 C 0.27811 0.80622 0.7032 0.0
C204 C 0.26425 0.79275 0.71911 0.0
C205 C 0.29805 0.79568 0.69199 0.0
H206 H 0.29313 0.74026 0.71747 0.0
H207 H 0.24888 0.80081 0.7277 0.0
C208 C 0.20195 0.69994 0.78567 0.0
N209 N 0.1691 0.66265 0.78701 0.0
C210 C 0.19093 0.69366 0.80729 0.0
C211 C 0.19624 0.68726 0.7647 0.0
C212 C 0.17438 0.67474 0.80761 0.0
C213 C 0.1796 0.66847 0.76576 0.0
C214 C 0.28629 0.72389 0.78594 0.0
C215 C 0.27848 0.71115 0.8061 0.0
C216 C 0.31082 0.72588 0.78125 0.0
C217 C 0.2954 0.70059 0.82125 0.0
C218 C 0.32718 0.71507 0.79684 0.0
N219 N 0.3192 0.70275 0.81635 0.0
C220 C 0.26332 0.67008 0.73981 0.0
C221 C 0.25006 0.66446 0.77983 0.0
C222 C 0.2693 0.64578 0.73799 0.0
N223 N 0.2537 0.67881 0.76043 0.0
C224 C 0.25563 0.64011 0.77877 0.0
C225 C 0.26523 0.63037 0.75759 0.0
H226 H 0.26611 0.68196 0.72471 0.0
H227 H 0.24237 0.67178 0.79603 0.0
C228 C 0.22429 0.75573 0.83335 0.0
N229 N 0.24419 0.7568 0.81936 0.0
C230 C 0.22565 0.76169 0.85764 0.0
C231 C 0.26787 0.77038 0.85251 0.0
C232 C 0.26564 0.76443 0.82824 0.0
C233 C 0.24777 0.76867 0.86759 0.0
H234 H 0.20746 0.74971 0.82569 0.0
H235 H 0.28112 0.76539 0.81661 0.0
O236 O 0.23224 0.72513 0.73129 0.0
O237 O 0.22712 0.76984 0.7642 0.0
O238 O 0.21805 0.71858 0.78519 0.0
O239 O 0.27017 0.73462 0.7709 0.0
H240 H 0.21386 0.76764 0.71974 0.0
H241 H 0.23409 0.6983 0.69228 0.0
H242 H 0.20132 0.77941 0.67874 0.0
H243 H 0.22104 0.7113 0.65167 0.0
H244 H 0.2762 0.82641 0.79709 0.0
H245 H 0.19383 0.79528 0.78663 0.0
H246 H 0.26944 0.79005 0.77213 0.0
H247 H 0.20196 0.83132 0.81161 0.0
H248 H 0.13344 0.72191 0.71383 0.0
H249 H 0.12937 0.75995 0.78148 0.0
H250 H 0.31822 0.76249 0.68859 0.0
H251 H 0.27349 0.82483 0.70011 0.0
H252 H 0.19513 0.70331 0.82367 0.0
H253 H 0.20454 0.6918 0.74778 0.0
H254 H 0.16572 0.66969 0.82423 0.0
H255 H 0.17503 0.65852 0.74969 0.0
H256 H 0.25958 0.70961 0.81014 0.0
H257 H 0.31713 0.73575 0.76573 0.0
H258 H 0.28961 0.69072 0.83694 0.0
H259 H 0.34623 0.7165 0.79344 0.0
H260 H 0.27693 0.63915 0.72141 0.0
H261 H 0.25178 0.62893 0.7942 0.0
H262 H 0.20979 0.75993 0.8687 0.0
H263 H 0.28518 0.77595 0.85947 0.0
Li264 Li 0.50137 0.99002 0.03732 0.0
Li265 Li 0.50316 0.95944 0.00583 0.0
Li266 Li 0.53527 0.99141 0.00996 0.0
Li267 Li 0.49541 0.00128 0.99404 0.0
C268 C 0.53279 0.95785 0.05483 0.0
N269 N 0.54517 0.94351 0.10068 0.0
C270 C 0.5266 0.9349 0.06293 0.0
C271 C 0.54558 0.97337 0.06993 0.0
C272 C 0.53295 0.92801 0.0862 0.0
C273 C 0.55158 0.96584 0.09309 0.0
C274 C 0.45423 0.96903 0.00968 0.0
C275 C 0.42435 0.9563 0.98094 0.0
N276 N 0.411 0.94693 -0.00089 0.0
C277 C 0.44009 0.95955 0.0281 0.0
C278 C 0.4462 0.96762 0.98593 0.0
C279 C 0.41835 0.94833 0.02238 0.0
C280 C 0.49372 0.01712 0.07977 0.0
N281 N 0.49167 0.99503 0.06958 0.0
C282 C 0.47981 0.97785 0.10701 0.0
C283 C 0.48421 0.9757 0.08246 0.0
C284 C 0.4826 0.00028 0.11836 0.0
C285 C 0.4891 0.0202 0.10422 0.0
H286 H 0.49941 0.03225 0.06901 0.0
H287 H 0.48254 0.95837 0.07381 0.0
C288 C 0.50903 0.91535 0.98115 0.0
N289 N 0.4973 0.92648 -0.00061 0.0
C290 C 0.50642 0.89064 0.97767 0.0
C291 C 0.47979 0.88932 0.01186 0.0
C292 C 0.48279 0.91406 0.01457 0.0
C293 C 0.49193 0.87727 0.99339 0.0
H294 H 0.52103 0.92552 0.96979 0.0
H295 H 0.47427 0.92321 0.02937 0.0
C296 C 0.52791 0.0386 0.01982 0.0
N297 N 0.55658 0.07922 0.02002 0.0
C298 C 0.52715 0.05466 0.00056 0.0
C299 C 0.54302 0.04337 0.03932 0.0
C300 C 0.54182 0.07507 0.00097 0.0
C301 C 0.55746 0.06394 0.03903 0.0
C302 C 0.52051 0.97757 0.95607 0.0
C303 C 0.53954 0.98842 0.94383 0.0
C304 C 0.5027 0.96541 0.94313 0.0
C305 C 0.54022 0.98726 0.91877 0.0
C306 C 0.50402 0.96465 0.91809 0.0
N307 N 0.52257 0.97553 0.90653 0.0
C308 C 0.58337 0.98114 0.01928 0.0
C309 C 0.57833 0.0161 0.99564 0.0
C310 C 0.60814 0.98443 0.01953 0.0
N311 N 0.56897 0.9971 0.00784 0.0
C312 C 0.60309 0.02012 0.99545 0.0
C313 C 0.61832 0.00429 0.00776 0.0
H314 H 0.57562 0.96576 0.02822 0.0
H315 H 0.56662 0.02818 0.98609 0.0
C316 C 0.45636 0.02993 0.98205 0.0
N317 N 0.47734 0.02136 0.97316 0.0
C318 C 0.44189 0.04478 0.96805 0.0
C319 C 0.47087 0.04172 0.93598 0.0
C320 C 0.48493 0.0272 0.95071 0.0
C321 C 0.44907 0.05068 0.94465 0.0
H322 H 0.45088 0.02516 6e-05 0.0
H323 H 0.50198 0.02091 0.94425 0.0
O324 O 0.52638 0.96507 0.03223 0.0
O325 O 0.47558 0.98004 0.01499 0.0
O326 O 0.51368 0.01852 0.01971 0.0
O327 O 0.51959 0.97859 0.9806 0.0
H328 H 0.51691 0.92256 0.05142 0.0
H329 H 0.55072 0.99108 0.06386 0.0
H330 H 0.52816 0.91035 0.09275 0.0
H331 H 0.56132 0.97775 0.10502 0.0
H332 H 0.41795 0.95502 0.96263 0.0
H333 H 0.44591 0.96071 0.04661 0.0
H334 H 0.45661 0.97535 0.97152 0.0
H335 H 0.40731 0.94077 0.03644 0.0
H336 H 0.47517 0.96186 0.11705 0.0
H337 H 0.49094 0.03796 0.11197 0.0
H338 H 0.51643 0.88194 0.96348 0.0
H339 H 0.46844 0.87966 0.02435 0.0
H340 H 0.51549 0.05135 0.98537 0.0
H341 H 0.54363 0.03133 0.05451 0.0
H342 H 0.54151 0.08758 0.98612 0.0
H343 H 0.56935 0.06777 0.05394 0.0
H344 H 0.55357 0.99775 0.95355 0.0
H345 H 0.48814 0.95645 0.9523 0.0
H346 H 0.55477 0.9957 0.90906 0.0
H347 H 0.49032 0.95535 0.90785 0.0
H348 H 0.61923 0.97138 0.02868 0.0
H349 H 0.61017 0.03563 0.98608 0.0
H350 H 0.42513 0.05132 0.97531 0.0
H351 H 0.47718 0.04625 0.91816 0.0
Li352 Li 0.24888 0.7541 0.24898 0.0
Li353 Li 0.2578 0.71218 0.23902 0.0
Li354 Li 0.28993 0.7435 0.24078 0.0
Li355 Li 0.26205 0.74267 0.20708 0.0
C356 C 0.2632 0.73235 0.29066 0.0
N357 N 0.25016 0.73509 0.33844 0.0
C358 C 0.24972 0.7139 0.30111 0.0
C359 C 0.27027 0.75206 0.30459 0.0
C360 C 0.24327 0.71564 0.32528 0.0
C361 C 0.26342 0.75316 0.32868 0.0
C362 C 0.21105 0.72204 0.22023 0.0
C363 C 0.18549 0.69806 0.19455 0.0
N364 N 0.16756 0.69976 0.21098 0.0
C365 C 0.19224 0.72378 0.2367 0.0
C366 C 0.20754 0.7093 0.19884 0.0
C367 C 0.17044 0.71231 0.23175 0.0
C368 C 0.22814 0.79856 0.26055 0.0
N369 N 0.22851 0.77496 0.26675 0.0
C370 C 0.20017 0.7819 0.2981 0.0
C371 C 0.21471 0.76641 0.28495 0.0
C372 C 0.19957 0.80644 0.29227 0.0
C373 C 0.21375 0.8147 0.27313 0.0
H374 H 0.23898 0.80486 0.24575 0.0
H375 H 0.21491 0.74753 0.28931 0.0
C376 C 0.27127 0.66483 0.24616 0.0
N377 N 0.25156 0.67907 0.24531 0.0
C378 C 0.26888 0.64014 0.24964 0.0
C379 C 0.22593 0.64522 0.25203 0.0
C380 C 0.22918 0.66985 0.24855 0.0
C381 C 0.24595 0.63 0.25241 0.0
H382 H 0.28888 0.67267 0.24375 0.0
H383 H 0.21381 0.68149 0.24852 0.0
C384 C 0.28828 0.78887 0.22835 0.0
N385 N 0.32279 0.82453 0.23128 0.0
C386 C 0.30095 0.79584 0.20786 0.0
C387 C 0.29294 0.80025 0.25026 0.0
C388 C 0.31838 0.81385 0.20973 0.0
C389 C 0.31052 0.81817 0.2514 0.0
C390 C 0.29001 0.70212 0.19827 0.0
C391 C 0.31296 0.70117 0.18827 0.0
C392 C 0.27203 0.68692 0.18944 0.0
C393 C 0.31741 0.68533 0.16933 0.0
C394 C 0.27717 0.67129 0.17052 0.0
N395 N 0.29956 0.67085 0.1609 0.0
C396 C 0.33098 0.7483 0.27107 0.0
C397 C 0.33784 0.75182 0.2292 0.0
C398 C 0.35554 0.75033 0.27572 0.0
N399 N 0.32273 0.74886 0.24809 0.0
C400 C 0.36249 0.75361 0.23298 0.0
C401 C 0.37161 0.75253 0.25646 0.0
H402 H 0.31859 0.74564 0.28572 0.0
H403 H 0.33071 0.75232 0.21115 0.0
C404 C 0.23779 0.75284 0.16324 0.0
N405 N 0.25943 0.74884 0.17372 0.0
C406 C 0.23626 0.75687 0.13853 0.0
C407 C 0.2794 0.75353 0.13613 0.0
C408 C 0.28005 0.74934 0.16078 0.0
C409 C 0.25727 0.75715 0.12458 0.0
H410 H 0.22171 0.75279 0.17405 0.0
H411 H 0.29706 0.74666 0.1697 0.0
O412 O 0.26969 0.73092 0.26702 0.0
O413 O 0.2325 0.73326 0.22479 0.0
O414 O 0.27145 0.77096 0.22699 0.0
O415 O 0.2853 0.7177 0.21672 0.0
H416 H 0.2442 0.69845 0.29067 0.0
H417 H 0.28081 0.76643 0.29688 0.0
H418 H 0.23276 0.70155 0.33356 0.0
H419 H 0.26864 0.76839 0.33963 0.0
H420 H 0.1826 0.68807 0.17812 0.0
H421 H 0.19446 0.7337 0.25321 0.0
H422 H 0.22156 0.70824 0.18553 0.0
H423 H 0.15582 0.71338 0.24444 0.0
H424 H 0.18976 0.77473 0.31286 0.0
H425 H 0.21355 0.83338 0.26774 0.0
H426 H 0.28479 0.62905 0.24962 0.0
H427 H 0.20798 0.63817 0.25452 0.0
H428 H 0.29746 0.78736 0.19073 0.0
H429 H 0.28312 0.79525 0.26621 0.0
H430 H 0.32842 0.81933 0.19404 0.0
H431 H 0.31439 0.82703 0.26827 0.0
H432 H 0.32722 0.71255 0.19499 0.0
H433 H 0.25437 0.68698 0.19729 0.0
H434 H 0.33506 0.68451 0.16135 0.0
H435 H 0.26338 0.65946 0.16354 0.0
H436 H 0.36197 0.74924 0.29405 0.0
H437 H 0.37434 0.75555 0.21771 0.0
H438 H 0.21879 0.75939 0.13044 0.0
H439 H 0.29612 0.75418 0.12629 0.0
Li440 Li 0.54135 0.00451 0.48984 0.0
Li441 Li 0.51374 0.03705 0.49225 0.0
Li442 Li 0.50048 0.9942 0.50037 0.0
Li443 Li 0.51101 0.00888 0.45888 0.0
C444 C 0.53732 0.01085 0.53823 0.0
N445 N 0.56581 0.00274 0.57803 0.0
C446 C 0.55676 0.02601 0.54318 0.0
C447 C 0.53229 0.99163 0.55358 0.0
C448 C 0.57098 0.02157 0.56336 0.0
C449 C 0.54692 0.98782 0.5736 0.0
C450 C 0.54491 0.05329 0.46039 0.0
C451 C 0.53848 0.09043 0.43912 0.0
N452 N 0.55938 0.09923 0.44827 0.0
C453 C 0.56638 0.06267 0.4695 0.0
C454 C 0.5309 0.06722 0.44498 0.0
C455 C 0.57337 0.08594 0.46318 0.0
C456 C 0.58858 0.00195 0.4744 0.0
N457 N 0.57443 0.99553 0.49319 0.0
C458 C 0.60771 0.97683 0.51274 0.0
C459 C 0.58339 0.98274 0.51197 0.0
C460 C 0.6228 0.98374 0.49379 0.0
C461 C 0.61289 0.99631 0.47435 0.0
H462 H 0.58093 0.01142 0.45931 0.0
H463 H 0.57171 0.97677 0.52619 0.0
C464 C 0.48714 0.07989 0.49731 0.0
N465 N 0.50897 0.06982 0.5011 0.0
C466 C 0.48373 0.10439 0.50139 0.0
C467 C 0.52508 0.10752 0.51411 0.0
C468 C 0.52762 0.08295 0.50992 0.0
C469 C 0.50299 0.11866 0.50946 0.0
H470 H 0.47244 0.069 0.4908 0.0
H471 H 0.54473 0.07453 0.51301 0.0
C472 C 0.53704 0.96134 0.47203 0.0
N473 N 0.57237 0.92733 0.46562 0.0
C474 C 0.54908 0.95973 0.45011 0.0
C475 C 0.54289 0.94561 0.49067 0.0
C476 C 0.56692 0.94243 0.44723 0.0
C477 C 0.56081 0.92854 0.48707 0.0
C478 C 0.46413 0.02058 0.46718 0.0
C479 C 0.44663 0.0027 0.46974 0.0
C480 C 0.46056 0.03915 0.4507 0.0
C481 C 0.42592 0.00361 0.4556 0.0
C482 C 0.43965 0.0394 0.43686 0.0
N483 N 0.42291 0.02177 0.43957 0.0
C484 C 0.46508 0.98456 0.53491 0.0
C485 C 0.47945 0.95029 0.51416 0.0
C486 C 0.4496 0.97027 0.5485 0.0
N487 N 0.47963 0.97435 0.51826 0.0
C488 C 0.46452 0.9353 0.52756 0.0
C489 C 0.44939 0.94528 0.54501 0.0
H490 H 0.4656 0.0038 0.53763 0.0
H491 H 0.49087 0.94275 0.50046 0.0
C492 C 0.5218 0.01438 0.41027 0.0
N493 N 0.50476 0.00564 0.42536 0.0
C494 C 0.51835 0.01358 0.38548 0.0
C495 C 0.48008 0.99419 0.39207 0.0
C496 C 0.4845 0.995 0.41676 0.0
C497 C 0.49703 0.00381 0.37601 0.0
H498 H 0.53816 0.02199 0.41751 0.0
H499 H 0.47161 0.98736 0.42904 0.0
O500 O 0.52293 0.01508 0.5188 0.0
O501 O 0.53761 0.03064 0.4666 0.0
O502 O 0.52004 0.97863 0.47541 0.0
O503 O 0.48452 0.01998 0.48088 0.0
H504 H 0.56105 0.04081 0.53139 0.0
H505 H 0.51732 0.97972 0.55006 0.0
H506 H 0.58618 0.03307 0.56733 0.0
H507 H 0.54327 0.97299 0.5856 0.0
H508 H 0.52775 0.10143 0.42729 0.0
H509 H 0.57735 0.05224 0.48164 0.0
H510 H 0.51432 0.06021 0.43767 0.0
H511 H 0.58986 0.09348 0.47022 0.0
H512 H 0.61455 0.96668 0.52784 0.0
H513 H 0.62388 0.00209 0.45941 0.0
H514 H 0.46624 0.11208 0.49806 0.0
H515 H 0.54049 0.11779 0.52013 0.0
H516 H 0.54487 0.97188 0.43556 0.0
H517 H 0.53403 0.9469 0.5079 0.0
H518 H 0.57648 0.94105 0.43041 0.0
H519 H 0.56565 0.91637 0.50139 0.0
H520 H 0.44904 0.98819 0.48238 0.0
H521 H 0.47384 0.05319 0.44854 0.0
H522 H 0.41228 0.98985 0.45733 0.0
H523 H 0.43672 0.05361 0.42396 0.0
H524 H 0.43825 0.97857 0.56188 0.0
H525 H 0.46459 0.91613 0.52416 0.0
H526 H 0.53234 0.02048 0.37391 0.0
H527 H 0.46337 0.9865 0.38573 0.0
Li528 Li 0.25131 0.25032 0.75012 0.0
Li529 Li 0.24023 0.29121 0.73705 0.0
Li530 Li 0.2096 0.25992 0.7421 0.0
Li531 Li 0.23726 0.25894 0.7084 0.0
C532 C 0.21551 0.28026 0.7848 0.0
N533 N 0.18201 0.29223 0.81929 0.0
C534 C 0.20708 0.30381 0.78652 0.0
C535 C 0.20704 0.26286 0.8008 0.0
C536 C 0.19013 0.30949 0.80405 0.0
C537 C 0.19006 0.26924 0.81805 0.0
C538 C 0.28585 0.28572 0.72463 0.0
C539 C 0.30714 0.31944 0.70763 0.0
N540 N 0.32398 0.31758 0.72523 0.0
C541 C 0.30341 0.28408 0.74249 0.0
C542 C 0.28777 0.30345 0.70697 0.0
C543 C 0.32254 0.30037 0.74249 0.0
C544 C 0.28816 0.21689 0.7576 0.0
N545 N 0.27253 0.23175 0.76885 0.0
C546 C 0.28661 0.21916 0.8073 0.0
C547 C 0.27161 0.23332 0.79317 0.0
C548 C 0.30295 0.20347 0.79627 0.0
C549 C 0.30369 0.20258 0.77103 0.0
H550 H 0.2885 0.21617 0.73819 0.0
H551 H 0.25899 0.24535 0.80158 0.0
C552 C 0.2339 0.34036 0.72769 0.0
N553 N 0.24706 0.32456 0.74072 0.0
C554 C 0.23845 0.36494 0.72933 0.0
C555 C 0.26976 0.35668 0.75819 0.0
C556 C 0.26443 0.33221 0.75615 0.0
C557 C 0.25678 0.37343 0.74454 0.0
H558 H 0.21972 0.33388 0.71611 0.0
H559 H 0.27427 0.31928 0.7667 0.0
C560 C 0.22291 0.209 0.73597 0.0
N561 N 0.21307 0.16187 0.74818 0.0
C562 C 0.21817 0.19199 0.71808 0.0
C563 C 0.22286 0.20197 0.76005 0.0
C564 C 0.21314 0.16828 0.72462 0.0
C565 C 0.21781 0.17808 0.76587 0.0
C566 C 0.20265 0.28712 0.69404 0.0
C567 C 0.18053 0.2765 0.6886 0.0
C568 C 0.21455 0.30066 0.67657 0.0
C569 C 0.17074 0.2795 0.66569 0.0
C570 C 0.2042 0.30318 0.65385 0.0
N571 N 0.1827 0.29264 0.64893 0.0
C572 C 0.16372 0.27565 0.7532 0.0
C573 C 0.1668 0.23324 0.75449 0.0
C574 C 0.13941 0.27442 0.7589 0.0
N575 N 0.17689 0.25526 0.75116 0.0
C576 C 0.14248 0.23115 0.76006 0.0
C577 C 0.12845 0.25193 0.7622 0.0
H578 H 0.17207 0.2929 0.74993 0.0
H579 H 0.17735 0.21723 0.75245 0.0
C580 C 0.26002 0.2565 0.66291 0.0
N581 N 0.24022 0.25005 0.67557 0.0
C582 C 0.26149 0.25136 0.63841 0.0
C583 C 0.22237 0.2326 0.6406 0.0
C584 C 0.22172 0.238 0.66506 0.0
C585 C 0.24236 0.23948 0.62689 0.0
H586 H 0.27452 0.26595 0.67175 0.0
H587 H 0.20623 0.23301 0.67562 0.0
O588 O 0.23171 0.27422 0.76738 0.0
O589 O 0.26685 0.27009 0.72447 0.0
O590 O 0.22796 0.23227 0.72981 0.0
O591 O 0.21277 0.284 0.71622 0.0
H592 H 0.2133 0.31753 0.77428 0.0
H593 H 0.21334 0.24457 0.79985 0.0
H594 H 0.18335 0.32761 0.80547 0.0
H595 H 0.18325 0.2559 0.83043 0.0
H596 H 0.30875 0.33337 0.69419 0.0
H597 H 0.3022 0.2705 0.75631 0.0
H598 H 0.27427 0.30507 0.6931 0.0
H599 H 0.33622 0.29937 0.75625 0.0
H600 H 0.28508 0.22022 0.82665 0.0
H601 H 0.31623 0.19109 0.76171 0.0
H602 H 0.22749 0.37717 0.71899 0.0
H603 H 0.2841 0.36233 0.77008 0.0
H604 H 0.21834 0.19704 0.69933 0.0
H605 H 0.22648 0.21484 0.77411 0.0
H606 H 0.20933 0.15496 0.71095 0.0
H607 H 0.21764 0.17244 0.78445 0.0
H608 H 0.17114 0.2658 0.70181 0.0
H609 H 0.23176 0.30886 0.68042 0.0
H610 H 0.1537 0.27128 0.6612 0.0
H611 H 0.2133 0.31346 0.64012 0.0
H612 H 0.12915 0.29085 0.75995 0.0
H613 H 0.13471 0.21347 0.76254 0.0
H614 H 0.27715 0.25716 0.62847 0.0
H615 H 0.20737 0.22315 0.63251 0.0
Li616 Li 0.98961 0.98896 0.96016 0.0
Li617 Li 0.99878 0.00309 0.0006 0.0
Li618 Li 0.98835 0.95959 0.99352 0.0
Li619 Li 0.95809 0.9914 0.99224 0.0
C620 C 0.03648 0.97115 0.96957 0.0
N621 N 0.07713 0.95635 0.94545 0.0
C622 C 0.05695 0.98573 0.96919 0.0
C623 C 0.03687 0.94885 0.95802 0.0
C624 C 0.07728 0.97799 0.95681 0.0
C625 C 0.05753 0.94174 0.94584 0.0
C626 C 0.98229 0.04147 0.97683 0.0
C627 C 0.98079 0.0806 0.99538 0.0
N628 N 0.99478 0.08955 0.97748 0.0
C629 C 0.99646 0.05109 0.9585 0.0
C630 C 0.97418 0.05637 0.9953 0.0
C631 C 0.00264 0.07543 0.95919 0.0
C632 C 0.97415 0.99112 0.91305 0.0
N633 N 0.99441 0.99246 0.92658 0.0
C634 C 0.01851 0.99647 0.89136 0.0
C635 C 0.01632 0.99559 0.91633 0.0
C636 C 0.99794 0.99424 0.8769 0.0
C637 C 0.9755 0.99188 0.88808 0.0
H638 H 0.95693 0.98904 0.92172 0.0
H639 H 0.03211 0.99724 0.92741 0.0
C640 C 0.01668 0.02451 0.0429 0.0
N641 N 0.01851 0.02447 0.01857 0.0
C642 C 0.03076 0.04011 0.05664 0.0
C643 C 0.04846 0.05527 0.02004 0.0
C644 C 0.03409 0.03932 0.00703 0.0
C645 C 0.04691 0.05577 0.04521 0.0
H646 H 0.00433 0.01238 0.05166 0.0
H647 H 0.0354 0.03875 0.98769 0.0
C648 C 0.95662 0.94626 0.95525 0.0
N649 N 0.94176 0.90723 0.9282 0.0
C650 C 0.93363 0.93665 0.95833 0.0
C651 C 0.97188 0.93625 0.93809 0.0
C652 C 0.9265 0.91684 0.9446 0.0
C653 C 0.96408 0.91648 0.92466 0.0
C654 C 0.96244 0.98118 0.0388 0.0
C655 C 0.95531 0.95949 0.04925 0.0
C656 C 0.95326 0.0028 0.04756 0.0
C657 C 0.93878 0.95977 0.06807 0.0
C658 C 0.93674 0.00233 0.06638 0.0
N659 N 0.92988 0.981 0.07614 0.0
C660 C 0.01564 0.91847 0.00675 0.0
C661 C 0.97373 0.91239 0.00286 0.0
C662 C 0.01904 0.89405 0.0114 0.0
N663 N 0.99331 0.92697 0.00206 0.0
C664 C 0.97626 0.88794 0.00745 0.0
C665 C -0.00081 0.87839 0.01149 0.0
H666 H 0.03086 0.93057 0.00654 0.0
H667 H 0.95611 0.91975 -0.00023 0.0
C668 C 0.91492 0.0181 0.99048 0.0
N669 N 0.92502 0.99709 0.99755 0.0
C670 C 0.89018 0.02143 0.99258 0.0
C671 C 0.88694 0.98167 0.00972 0.0
C672 C 0.91164 0.97907 0.00714 0.0
C673 C 0.8758 0.00291 0.00201 0.0
H674 H 0.92598 0.032 0.98261 0.0
H675 H 0.9201 0.96243 0.01231 0.0
O676 O 0.0164 0.97853 0.98159 0.0
O677 O 0.97625 0.01764 0.97657 0.0
O678 O 0.96384 0.96574 0.96855 0.0
O679 O 0.97842 0.98124 0.02019 0.0
H680 H 0.05716 0.00289 0.97827 0.0
H681 H 0.02153 0.93698 0.9587 0.0
H682 H 0.09318 0.98918 0.95625 0.0
H683 H 0.05802 0.92455 0.93678 0.0
H684 H 0.97479 0.0923 0.00966 0.0
H685 H 0.00281 0.03984 0.94402 0.0
H686 H 0.963 0.04927 0.00948 0.0
H687 H 0.01373 0.08308 0.94521 0.0
H688 H 0.03616 0.99831 0.88348 0.0
H689 H 0.95913 0.99063 0.87765 0.0
H690 H 0.02887 0.04005 0.076 0.0
H691 H 0.06092 0.06679 0.01053 0.0
H692 H 0.92143 0.9443 0.97127 0.0
H693 H 0.9894 0.94385 0.93484 0.0
H694 H 0.90882 0.90913 0.94694 0.0
H695 H 0.97574 0.90857 0.91134 0.0
H696 H 0.96242 0.94261 0.04288 0.0
H697 H 0.95872 0.01974 0.03979 0.0
H698 H 0.93301 0.94311 0.07625 0.0
H699 H 0.92937 0.01892 0.07321 0.0
H700 H 0.03698 0.88751 0.01483 0.0
H701 H 0.96047 0.87655 0.00721 0.0
H702 H 0.88234 0.03798 0.98615 0.0
H703 H 0.87667 0.96706 0.01744 0.0
Li704 Li 0.74984 0.25298 0.75008 0.0
Li705 Li 0.75767 0.21099 0.73999 0.0
Li706 Li 0.79049 0.24176 0.74199 0.0
Li707 Li 0.76264 0.24165 0.70821 0.0
C708 C 0.76235 0.23119 0.79139 0.0
N709 N 0.74667 0.2351 0.83828 0.0
C710 C 0.74726 0.21361 0.80111 0.0
C711 C 0.76971 0.25058 0.80561 0.0
C712 C 0.73949 0.21594 0.82484 0.0
C713 C 0.7615 0.2523 0.82924 0.0
C714 C 0.71192 0.22174 0.71891 0.0
C715 C 0.68926 0.19767 0.69072 0.0
N716 N 0.66956 0.19973 0.70492 0.0
C717 C 0.69134 0.22385 0.73305 0.0
C718 C 0.71078 0.20876 0.69742 0.0
C719 C 0.67015 0.21251 0.72574 0.0
C720 C 0.73263 0.2979 0.76553 0.0
N721 N 0.72998 0.27378 0.76831 0.0
C722 C 0.69962 0.27963 0.79791 0.0
C723 C 0.71371 0.26447 0.78392 0.0
C724 C 0.70222 0.30463 0.79572 0.0
C725 C 0.71889 0.31375 0.77915 0.0
H726 H 0.7455 0.30486 0.75281 0.0
H727 H 0.71172 0.24525 0.78559 0.0
C728 C 0.77021 0.16369 0.74869 0.0
N729 N 0.75072 0.178 0.74595 0.0
C730 C 0.76742 0.13892 0.75129 0.0
C731 C 0.72447 0.1441 0.74886 0.0
C732 C 0.72809 0.16881 0.74654 0.0
C733 C 0.74432 0.12883 0.75097 0.0
H734 H 0.78799 0.17153 0.74824 0.0
H735 H 0.71283 0.18048 0.74496 0.0
C736 C 0.78999 0.28707 0.72869 0.0
N737 N 0.82556 0.32179 0.72968 0.0
C738 C 0.80066 0.29478 0.70734 0.0
C739 C 0.79719 0.29727 0.7505 0.0
C740 C 0.81866 0.3123 0.70822 0.0
C741 C 0.81527 0.31472 0.75065 0.0
C742 C 0.79101 0.20065 0.69961 0.0
C743 C 0.81411 0.20075 0.6899 0.0
C744 C 0.774 0.18432 0.69087 0.0
C745 C 0.81963 0.18491 0.67126 0.0
C746 C 0.7802 0.16872 0.67225 0.0
N747 N 0.80269 0.16936 0.66287 0.0
C748 C 0.83156 0.2445 0.77237 0.0
C749 C 0.83841 0.25085 0.73083 0.0
C750 C 0.85611 0.24637 0.77715 0.0
N751 N 0.82333 0.24651 0.74947 0.0
C752 C 0.86304 0.25262 0.73474 0.0
C753 C 0.87217 0.25001 0.75809 0.0
H754 H 0.81915 0.24087 0.78681 0.0
H755 H 0.8313 0.25254 0.71285 0.0
C756 C 0.73863 0.25296 0.66454 0.0
N757 N 0.76015 0.24807 0.67487 0.0
C758 C 0.73709 0.25709 0.63985 0.0
C759 C 0.78007 0.2523 0.6372 0.0
C760 C 0.7807 0.24795 0.66183 0.0
C761 C 0.75801 0.25668 0.62577 0.0
H762 H 0.72262 0.25351 0.67544 0.0
H763 H 0.79767 0.24478 0.67065 0.0
O764 O 0.77004 0.22927 0.76815 0.0
O765 O 0.73286 0.23269 0.72591 0.0
O766 O 0.77259 0.26966 0.72823 0.0
O767 O 0.78532 0.21611 0.7179 0.0
H768 H 0.74145 0.19843 0.79042 0.0
H769 H 0.78152 0.26425 0.79846 0.0
H770 H 0.72769 0.20255 0.83255 0.0
H771 H 0.76691 0.26731 0.84038 0.0
H772 H 0.68819 0.18752 0.67417 0.0
H773 H 0.6917 0.23404 0.74955 0.0
H774 H 0.72622 0.20747 0.68583 0.0
H775 H 0.65416 0.21388 0.73661 0.0
H776 H 0.6867 0.27183 0.81015 0.0
H777 H 0.72159 0.3329 0.77702 0.0
H778 H 0.78319 0.12772 0.75271 0.0
H779 H 0.70635 0.13698 0.7489 0.0
H780 H 0.79515 0.28731 0.69027 0.0
H781 H 0.789 0.29165 0.76716 0.0
H782 H 0.82715 0.31834 0.69184 0.0
H783 H 0.82112 0.32263 0.76743 0.0
H784 H 0.82767 0.21296 0.69661 0.0
H785 H 0.75629 0.18342 0.69855 0.0
H786 H 0.83739 0.18494 0.66349 0.0
H787 H 0.76716 0.15603 0.66533 0.0
H788 H 0.86254 0.24411 0.79537 0.0
H789 H 0.87485 0.25573 0.71963 0.0
H790 H 0.71966 0.26021 0.63189 0.0
H791 H 0.79675 0.25246 0.6273 0.0
Li792 Li 0.01256 0.53847 0.99005 0.0
Li793 Li 0.03928 0.50466 0.98965 0.0
Li794 Li 0.00821 0.50869 0.9584 0.0
Li795 Li 0.99727 0.49691 0.00027 0.0
C796 C 0.04192 0.55091 0.95387 0.0
N797 N 0.05303 0.59438 0.93257 0.0
C798 C 0.06484 0.56087 0.95651 0.0
C799 C 0.02481 0.5629 0.94005 0.0
C800 C 0.07007 0.5829 0.9457 0.0
C801 C 0.03072 0.58489 0.92951 0.0
C802 C 0.03438 0.51106 0.037 0.0
C803 C 0.04972 0.48071 0.0637 0.0
N804 N 0.06213 0.49793 0.0759 0.0
C805 C 0.04723 0.52847 0.04982 0.0
C806 C 0.03555 0.487 0.04398 0.0
C807 C 0.06119 0.52146 0.06943 0.0
C808 C 0.9897 0.58351 0.99575 0.0
N809 N 0.01083 0.57159 0.99754 0.0
C810 C 0.03152 0.60779 0.0079 0.0
C811 C 0.03146 0.58306 0.00383 0.0
C812 C 0.01008 0.62074 0.00568 0.0
C813 C 0.9889 0.60825 -0.00021 0.0
H814 H 0.97354 0.57386 0.99091 0.0
H815 H 0.04795 0.57302 0.0053 0.0
C816 C 0.08208 0.47502 0.99375 0.0
N817 N 0.07209 0.49712 0.99634 0.0
C818 C 0.10679 0.47204 0.99648 0.0
C819 C 0.11035 0.51432 0.00567 0.0
C820 C 0.0856 0.51644 0.00287 0.0
C821 C 0.1213 0.49199 0.0019 0.0
H822 H 0.07122 0.45976 0.98897 0.0
H823 H 0.07714 0.5337 0.00534 0.0
C824 C 0.96116 0.52288 0.9671 0.0
N825 N 0.91828 0.52383 0.94208 0.0
C826 C 0.94435 0.50438 0.96995 0.0
C827 C 0.95591 0.54208 0.95183 0.0
C828 C 0.92283 0.50515 0.95708 0.0
C829 C 0.93422 0.54216 0.93923 0.0
C830 C 0.02733 0.45838 0.97015 0.0
C831 C 0.03858 0.4565 0.94782 0.0
C832 C 0.02688 0.43854 0.98554 0.0
C833 C 0.04909 0.43475 0.9412 0.0
C834 C 0.0376 0.41711 0.97826 0.0
N835 N 0.04838 0.41567 0.95642 0.0
C836 C 0.01899 0.5099 0.90936 0.0
C837 C 0.98065 0.49333 0.91747 0.0
C838 C 0.0156 0.5067 0.88477 0.0
N839 N 0.00153 0.5035 0.92514 0.0
C840 C 0.9763 0.49017 0.89294 0.0
C841 C 0.99396 0.49691 0.87632 0.0
H842 H 0.03573 0.51729 0.91589 0.0
H843 H 0.96743 0.48745 0.93032 0.0
C844 C 0.96849 0.48734 0.04077 0.0
N845 N 0.97656 0.47835 0.01959 0.0
C846 C 0.95377 0.47336 0.0555 0.0
C847 C 0.95616 0.44122 0.02632 0.0
C848 C 0.97046 0.45594 0.01201 0.0
C849 C 0.94773 0.44991 0.04837 0.0
H850 H 0.97368 0.50528 0.04627 0.0
H851 H 0.97671 0.44952 0.99481 0.0
O852 O 0.03618 0.52963 0.96483 0.0
O853 O 0.02093 0.5175 0.01752 0.0
O854 O 0.9823 0.52246 0.97966 0.0
O855 O 0.0167 0.47942 0.97687 0.0
H856 H 0.07848 0.55174 0.96677 0.0
H857 H 0.00719 0.55524 0.93747 0.0
H858 H 0.08769 0.59087 0.94772 0.0
H859 H 0.01758 0.59439 0.91888 0.0
H860 H 0.05087 0.46215 0.06927 0.0
H861 H 0.0465 0.54717 0.0446 0.0
H862 H 0.0258 0.4733 0.03415 0.0
H863 H 0.07128 0.53472 0.0795 0.0
H864 H 0.04817 0.61667 0.01273 0.0
H865 H 0.97203 0.61758 0.99774 0.0
H866 H 0.11454 0.45451 0.99336 0.0
H867 H 0.12085 0.53007 0.01032 0.0
H868 H 0.94792 0.48947 0.98177 0.0
H869 H 0.96833 0.55687 0.94978 0.0
H870 H 0.90977 0.49085 0.95901 0.0
H871 H 0.93002 0.55684 0.92726 0.0
H872 H 0.03936 0.4717 0.9358 0.0
H873 H 0.01864 0.43974 0.00306 0.0
H874 H 0.05786 0.43305 0.92397 0.0
H875 H 0.03743 0.40165 0.99001 0.0
H876 H 0.02964 0.51209 0.87246 0.0
H877 H 0.95955 0.48218 0.88705 0.0
H878 H 0.94758 0.48057 0.07246 0.0
H879 H 0.95154 0.42333 0.02013 0.0
Li880 Li 0.7507 0.74794 0.25155 0.0
Li881 Li 0.73935 0.78974 0.23941 0.0
Li882 Li 0.70922 0.75824 0.24336 0.0
Li883 Li 0.73595 0.75788 0.20984 0.0
C884 C 0.71484 0.77367 0.28708 0.0
N885 N 0.68041 0.77731 0.32246 0.0
C886 C 0.70319 0.79549 0.291 0.0
C887 C 0.70909 0.75373 0.3012 0.0
C888 C 0.6858 0.79696 0.30897 0.0
C889 C 0.6916 0.75593 0.31898 0.0
C890 C 0.78576 0.783 0.22583 0.0
C891 C 0.80911 0.81494 0.2081 0.0
N892 N 0.82631 0.81171 0.22512 0.0
C893 C 0.80374 0.77992 0.24307 0.0
C894 C 0.78852 0.80055 0.2081 0.0
C895 C 0.82409 0.79464 0.24242 0.0
C896 C 0.7863 0.71305 0.2591 0.0
N897 N 0.77234 0.72972 0.27002 0.0
C898 C 0.78866 0.71985 0.30837 0.0
C899 C 0.77337 0.73352 0.29409 0.0
C900 C 0.80323 0.70228 0.29771 0.0
C901 C 0.80202 0.69908 0.27267 0.0
H902 H 0.78513 0.7106 0.23985 0.0
H903 H 0.76216 0.74705 0.30223 0.0
C904 C 0.72839 0.83855 0.23665 0.0
N905 N 0.74543 0.82302 0.24447 0.0
C906 C 0.73143 0.86322 0.23977 0.0
C907 C 0.76945 0.85556 0.25919 0.0
C908 C 0.76546 0.83096 0.25605 0.0
C909 C 0.75226 0.87196 0.25098 0.0
H910 H 0.71231 0.83175 0.22812 0.0
H911 H 0.77829 0.81824 0.26296 0.0
C912 C 0.71522 0.7094 0.23562 0.0
N913 N 0.69104 0.66691 0.24475 0.0
C914 C 0.69731 0.70132 0.21992 0.0
C915 C 0.72084 0.6958 0.25595 0.0
C916 C 0.68528 0.67982 0.22486 0.0
C917 C 0.70842 0.67438 0.26025 0.0
C918 C 0.70367 0.78986 0.19638 0.0
C919 C 0.68172 0.78109 0.18787 0.0
C920 C 0.71704 0.80574 0.18227 0.0
C921 C 0.67362 0.78819 0.16521 0.0
C922 C 0.70835 0.81238 0.15971 0.0
N923 N 0.687 0.80354 0.15171 0.0
C924 C 0.66262 0.77408 0.24963 0.0
C925 C 0.66699 0.73382 0.26258 0.0
C926 C 0.63828 0.77363 0.25526 0.0
N927 N 0.67636 0.75423 0.25291 0.0
C928 C 0.6426 0.73244 0.2681 0.0
C929 C 0.62794 0.75248 0.26424 0.0
H930 H 0.67058 0.79029 0.24247 0.0
H931 H 0.67828 0.71861 0.26617 0.0
C932 C 0.75995 0.75524 0.16495 0.0
N933 N 0.73908 0.75049 0.1766 0.0
C934 C 0.76178 0.75121 0.14025 0.0
C935 C 0.72079 0.73691 0.14019 0.0
C936 C 0.71979 0.7412 0.16483 0.0
C937 C 0.7419 0.74216 0.12751 0.0
H938 H 0.7751 0.76245 0.17475 0.0
H939 H 0.70342 0.73759 0.17447 0.0
O940 O 0.73132 0.77168 0.26906 0.0
O941 O 0.7657 0.76876 0.22618 0.0
O942 O 0.72757 0.73014 0.2308 0.0
O943 O 0.71208 0.78286 0.21838 0.0
H944 H 0.70735 0.81105 0.28012 0.0
H945 H 0.71775 0.73664 0.29817 0.0
H946 H 0.67653 0.81369 0.31214 0.0
H947 H 0.68684 0.74061 0.32993 0.0
H948 H 0.81141 0.82867 0.19456 0.0
H949 H 0.80197 0.76643 0.25691 0.0
H950 H 0.77487 0.80311 0.19454 0.0
H951 H 0.83809 0.79251 0.25571 0.0
H952 H 0.78871 0.72275 0.3276 0.0
H953 H 0.81316 0.68603 0.26363 0.0
H954 H 0.71777 0.87535 0.23323 0.0
H955 H 0.78554 0.86167 0.26829 0.0
H956 H 0.69257 0.71159 0.2042 0.0
H957 H 0.73447 0.70172 0.26843 0.0
H958 H 0.67134 0.67343 0.2129 0.0
H959 H 0.71256 0.66373 0.27594 0.0
H960 H 0.6712 0.76865 0.19848 0.0
H961 H 0.73398 0.8128 0.18865 0.0
H962 H 0.65673 0.78143 0.15833 0.0
H963 H 0.71857 0.82458 0.14856 0.0
H964 H 0.62752 0.78945 0.25201 0.0
H965 H 0.6353 0.71594 0.2754 0.0
H966 H 0.77835 0.75567 0.13116 0.0
H967 H 0.70515 0.72958 0.13119 0.0
Li968 Li 0.00567 0.48593 0.53705 0.0
Li969 Li 0.00782 0.46032 0.50236 0.0
Li970 Li 0.03811 0.49009 0.50741 0.0
Li971 Li 0.99627 0.50103 0.49483 0.0
C972 C 0.0466 0.46077 0.54782 0.0
N973 N 0.07731 0.45719 0.58666 0.0
C974 C 0.05173 0.43832 0.55773 0.0
C975 C 0.05704 0.4814 0.55772 0.0
C976 C 0.0673 0.43688 0.57736 0.0
C977 C 0.07255 0.47922 0.57731 0.0
C978 C 0.95961 0.46265 0.51395 0.0
C979 C 0.92169 0.45133 0.49628 0.0
N980 N 0.92 0.43275 0.51204 0.0
C981 C 0.95743 0.44357 0.53008 0.0
C982 C 0.94157 0.46669 0.49698 0.0
C983 C 0.9373 0.42859 0.52877 0.0
C984 C 0.99296 0.50904 0.58091 0.0
N985 N 0.9978 0.48774 0.57003 0.0
C986 C 0.99474 0.46689 0.60731 0.0
C987 C 0.99834 0.46684 0.58258 0.0
C988 C 0.99037 0.48866 0.61923 0.0
C989 C 0.98908 0.50991 0.60571 0.0
H990 H 0.99256 0.52537 0.57042 0.0
H991 H 0.00207 0.45016 0.57341 0.0
C992 C 0.02274 0.41309 0.4972 0.0
N993 N 0.00377 0.42758 0.49245 0.0
C994 C 0.02167 0.38867 0.49171 0.0
C995 C 0.98169 0.39451 0.47599 0.0
C996 C 0.9837 0.41892 0.48144 0.0
C997 C 0.00077 0.37907 0.48137 0.0
H998 H 0.03872 0.42052 0.50541 0.0
H999 H 0.96923 0.43086 0.47688 0.0
C1000 C 0.02593 0.53856 0.52165 0.0
N1001 N 0.04416 0.58479 0.52325 0.0
C1002 C 0.02529 0.55308 0.50119 0.0
C1003 C 0.0356 0.54768 0.543 0.0
C1004 C 0.03464 0.57638 0.50235 0.0
C1005 C 0.04483 0.57105 0.54341 0.0
C1006 C 0.02191 0.46646 0.45876 0.0
C1007 C 0.04317 0.4541 0.45417 0.0
C1008 C 0.00158 0.46179 0.44477 0.0
C1009 C 0.04369 0.43711 0.43569 0.0
C1010 C 0.00284 0.44469 0.42643 0.0
N1011 N 0.02368 0.43279 0.42233 0.0
C1012 C 0.08611 0.4769 0.50511 0.0
C1013 C 0.08075 0.51859 0.49875 0.0
C1014 C 0.11088 0.47941 0.50289 0.0
N1015 N 0.0716 0.49637 0.50333 0.0
C1016 C 0.10547 0.52193 0.49637 0.0
C1017 C 0.12089 0.50217 0.49852 0.0
H1018 H 0.07842 0.45935 0.50835 0.0
H1019 H 0.069 0.53373 0.49678 0.0
C1020 C 0.95909 0.5344 0.48721 0.0
N1021 N 0.97712 0.52203 0.47653 0.0
C1022 C 0.94459 0.54961 0.47359 0.0
C1023 C 0.9676 0.53898 0.43838 0.0
C1024 C 0.98178 0.52422 0.45269 0.0
C1025 C 0.94868 0.55181 0.44881 0.0
H1026 H 0.95592 0.53228 0.50625 0.0
H1027 H 0.99654 0.5145 0.44481 0.0
O1028 O 0.03093 0.46245 0.52894 0.0
O1029 O 0.97909 0.47759 0.51495 0.0
O1030 O 0.01654 0.51581 0.52099 0.0
O1031 O 0.02088 0.48271 0.47717 0.0
H1032 H 0.0436 0.42218 0.55047 0.0
H1033 H 0.05326 0.49887 0.5503 0.0
H1034 H 0.07138 0.41962 0.58524 0.0
H1035 H 0.08078 0.49505 0.5851 0.0
H1036 H 0.90763 0.45416 0.48319 0.0
H1037 H 0.97125 0.44021 0.54328 0.0
H1038 H 0.94299 0.48143 0.4844 0.0
H1039 H 0.93543 0.41365 0.54103 0.0
H1040 H 0.99553 0.45008 0.61705 0.0
H1041 H 0.98586 0.52706 0.61429 0.0
H1042 H 0.03675 0.3773 0.49615 0.0
H1043 H 0.96544 0.38777 0.46764 0.0
H1044 H 0.01803 0.54633 0.48448 0.0
H1045 H 0.03595 0.53688 0.55914 0.0
H1046 H 0.0344 0.58774 0.4866 0.0
H1047 H 0.05245 0.57829 0.55978 0.0
H1048 H 0.05904 0.45745 0.46487 0.0
H1049 H 0.98487 0.47093 0.44832 0.0
H1050 H 0.05999 0.42731 0.43201 0.0
H1051 H 0.9872 0.44076 0.41557 0.0
H1052 H 0.12208 0.46369 0.50492 0.0
H1053 H 0.1124 0.53973 0.49258 0.0
H1054 H 0.93009 0.55917 0.48222 0.0
H1055 H 0.97154 0.54053 0.4194 0.0
Li1056 Li 0.48822 0.53642 0.00347 0.0
Li1057 Li 0.4598 0.50278 0.00383 0.0
Li1058 Li 0.49065 0.5068 0.03494 0.0
Li1059 Li 0.50074 0.49593 0.99362 0.0
C1060 C 0.45369 0.55019 0.03199 0.0
N1061 N 0.43429 0.59536 0.03808 0.0
C1062 C 0.43236 0.5563 0.02033 0.0
C1063 C 0.46508 0.56699 0.04686 0.0
C1064 C 0.42284 0.57923 0.02364 0.0
C1065 C 0.45502 0.58976 0.04965 0.0
C1066 C 0.48388 0.51334 0.95307 0.0
C1067 C 0.48582 0.48915 0.91717 0.0
N1068 N 0.4995 0.50639 0.90654 0.0
C1069 C 0.49786 0.53087 0.94176 0.0
C1070 C 0.47767 0.49236 0.94066 0.0
C1071 C 0.50559 0.52701 0.91822 0.0
C1072 C 0.51013 0.5821 0.00618 0.0
N1073 N 0.49155 0.56959 0.99642 0.0
C1074 C 0.47513 0.60544 0.97972 0.0
C1075 C 0.47446 0.58058 0.98297 0.0
C1076 C 0.49357 0.61897 0.99046 0.0
C1077 C 0.51146 0.60695 0.00348 0.0
H1078 H 0.52361 0.57286 0.01653 0.0
H1079 H 0.4599 0.5701 0.97541 0.0
C1080 C 0.41412 0.49014 0.01951 0.0
N1081 N 0.42717 0.49438 -0.00063 0.0
C1082 C 0.38964 0.48531 0.01785 0.0
C1083 C 0.39238 0.48965 0.97472 0.0
C1084 C 0.41694 0.49414 0.9772 0.0
C1085 C 0.37843 0.48532 0.99526 0.0
H1086 H 0.4227 0.49103 0.03692 0.0
H1087 H 0.42771 0.49797 0.96154 0.0
C1088 C 0.53631 0.51855 0.02987 0.0
N1089 N 0.57443 0.51544 0.06148 0.0
C1090 C 0.55368 0.50079 0.02682 0.0
C1091 C 0.53836 0.53477 0.04897 0.0
C1092 C 0.57283 0.49953 0.04299 0.0
C1093 C 0.55774 0.53287 0.06478 0.0
C1094 C 0.46578 0.45915 0.02075 0.0
C1095 C 0.45856 0.4536 0.04413 0.0
C1096 C 0.45623 0.44624 0.0014 0.0
C1097 C 0.44169 0.43532 0.04773 0.0
C1098 C 0.43937 0.42813 0.00574 0.0
N1099 N 0.43251 0.4231 0.02862 0.0
C1100 C 0.48093 0.51268 0.08354 0.0
C1101 C 0.51383 0.48683 0.07638 0.0
C1102 C 0.48308 0.50933 0.1082 0.0
N1103 N 0.49627 0.50164 0.06821 0.0
C1104 C 0.51687 0.48323 0.10104 0.0
C1105 C 0.50122 0.49445 0.11722 0.0
H1106 H 0.46677 0.52387 0.07659 0.0
H1107 H 0.52535 0.47771 0.06376 0.0
C1108 C 0.53893 0.48975 0.96138 0.0
N1109 N 0.52177 0.47792 0.97406 0.0
C1110 C 0.55443 0.47708 0.94642 0.0
C1111 C 0.53468 0.44023 0.95841 0.0
C1112 C 0.51946 0.45364 0.973 0.0
C1113 C 0.55239 0.45198 0.94483 0.0
H1114 H 0.54055 0.50906 0.96292 0.0
H1115 H 0.5058 0.44471 0.98347 0.0
O1116 O 0.46366 0.52806 0.02848 0.0
O1117 O 0.4765 0.51659 0.97624 0.0
O1118 O 0.5174 0.52007 0.01425 0.0
O1119 O 0.48199 0.47724 0.01682 0.0
H1120 H 0.4234 0.54359 0.00862 0.0
H1121 H 0.48169 0.5626 0.05589 0.0
H1122 H 0.40641 0.58426 0.01464 0.0
H1123 H 0.46375 0.603 0.06094 0.0
H1124 H 0.48131 0.47293 0.90742 0.0
H1125 H 0.50289 0.54717 0.95113 0.0
H1126 H 0.46693 0.47859 0.94919 0.0
H1127 H 0.51653 0.54036 0.90928 0.0
H1128 H 0.46091 0.61405 0.96969 0.0
H1129 H 0.52619 0.6167 0.0117 0.0
H1130 H 0.37943 0.48249 0.03414 0.0
H1131 H 0.38435 0.4898 0.957 0.0
H1132 H 0.55237 0.48801 0.01224 0.0
H1133 H 0.52492 0.54842 0.05181 0.0
H1134 H 0.58637 0.48584 0.04087 0.0
H1135 H 0.55946 0.54519 0.07972 0.0
H1136 H 0.46574 0.46338 0.05933 0.0
H1137 H 0.46153 0.45038 0.98319 0.0
H1138 H 0.43586 0.4309 0.06571 0.0
H1139 H 0.4317 0.41812 0.99092 0.0
H1140 H 0.47073 0.51837 0.12014 0.0
H1141 H 0.5309 0.47141 0.10738 0.0
H1142 H 0.56806 0.48676 0.93648 0.0
H1143 H 0.53245 0.42091 0.95755 0.0
Li1144 Li 0.75527 0.78905 0.76071 0.0
Li1145 Li 0.7562 0.7567 0.78866 0.0
Li1146 Li 0.78755 0.76024 0.75881 0.0
Li1147 Li 0.74602 0.74658 0.74756 0.0
C1148 C 0.78644 0.80498 0.7924 0.0
N1149 N 0.79842 0.85112 0.80651 0.0
C1150 C 0.77734 0.8144 0.8138 0.0
C1151 C 0.80174 0.81899 0.77827 0.0
C1152 C 0.7836 0.83776 0.82061 0.0
C1153 C 0.80753 0.84228 0.78568 0.0
C1154 C 0.70825 0.7639 0.7838 0.0
C1155 C 0.67213 0.74164 0.79271 0.0
N1156 N 0.6681 0.75627 0.81184 0.0
C1157 C 0.7037 0.77876 0.80351 0.0
C1158 C 0.69232 0.7452 0.77831 0.0
C1159 C 0.68333 0.77458 0.8175 0.0
C1160 C 0.75235 0.83264 0.73447 0.0
N1161 N 0.74735 0.82197 0.75583 0.0
C1162 C 0.73415 0.85925 0.77229 0.0
C1163 C 0.73788 0.83461 0.77437 0.0
C1164 C 0.7398 0.87101 0.7507 0.0
C1165 C 0.74863 0.85726 0.73147 0.0
H1166 H 0.75955 0.82213 0.71987 0.0
H1167 H 0.73401 0.82575 0.79113 0.0
C1168 C 0.77078 0.75391 0.83624 0.0
N1169 N 0.75214 0.74774 0.8217 0.0
C1170 C 0.77013 0.7486 0.86067 0.0
C1171 C 0.73141 0.72983 0.85476 0.0
C1172 C 0.73293 0.73533 0.83034 0.0
C1173 C 0.75012 0.73667 0.87026 0.0
H1174 H 0.78624 0.76302 0.82884 0.0
H1175 H 0.71886 0.72948 0.81834 0.0
C1176 C 0.78123 0.7708 0.71198 0.0
N1177 N 0.81088 0.76885 0.67232 0.0
C1178 C 0.77882 0.75211 0.69535 0.0
C1179 C 0.79858 0.78861 0.70832 0.0
C1180 C 0.794 0.75143 0.67543 0.0
C1181 C 0.81345 0.78727 0.68821 0.0
C1182 C 0.77288 0.71309 0.78478 0.0
C1183 C 0.7946 0.71116 0.79717 0.0
C1184 C 0.75393 0.69755 0.79031 0.0
C1185 C 0.79697 0.69371 0.81502 0.0
C1186 C 0.75702 0.68033 0.80827 0.0
N1187 N 0.77829 0.6788 0.82016 0.0
C1188 C 0.83594 0.76539 0.77016 0.0
C1189 C 0.82943 0.742 0.73514 0.0
C1190 C 0.86062 0.76228 0.76831 0.0
N1191 N 0.82092 0.75554 0.75358 0.0
C1192 C 0.85412 0.7386 0.73245 0.0
C1193 C 0.87001 0.74874 0.74927 0.0
H1194 H 0.82873 0.77542 0.78508 0.0
H1195 H 0.8171 0.73359 0.7227 0.0
C1196 C 0.71115 0.73736 0.71225 0.0
N1197 N 0.7278 0.727 0.72671 0.0
C1198 C 0.69711 0.72317 0.697 0.0
C1199 C 0.71773 0.68803 0.71184 0.0
C1200 C 0.73155 0.70291 0.72657 0.0
C1201 C 0.7002 0.69816 0.69689 0.0
H1202 H 0.7087 0.75662 0.71275 0.0
H1203 H 0.74526 0.69526 0.73793 0.0
O1204 O 0.78027 0.78224 0.78524 0.0
O1205 O 0.72789 0.76788 0.76964 0.0
O1206 O 0.76653 0.77177 0.73161 0.0
O1207 O 0.77002 0.7305 0.76773 0.0
H1208 H 0.76525 0.80394 0.82485 0.0
H1209 H 0.809 0.81196 0.76172 0.0
H1210 H 0.77658 0.84533 0.83704 0.0
H1211 H 0.81927 0.85335 0.77485 0.0
H1212 H 0.65969 0.72721 0.78869 0.0
H1213 H 0.71598 0.79305 0.80828 0.0
H1214 H 0.69552 0.7335 0.76316 0.0
H1215 H 0.67969 0.78583 0.8329 0.0
H1216 H 0.72766 0.86905 0.78775 0.0
H1217 H 0.75281 0.86543 0.71434 0.0
H1218 H 0.78493 0.75424 0.87201 0.0
H1219 H 0.7159 0.72016 0.8614 0.0
H1220 H 0.76549 0.73818 0.69783 0.0
H1221 H 0.80062 0.80328 0.72091 0.0
H1222 H 0.7924 0.73701 0.66247 0.0
H1223 H 0.82704 0.80087 0.68523 0.0
H1224 H 0.80939 0.72316 0.79321 0.0
H1225 H 0.73686 0.69908 0.78117 0.0
H1226 H 0.81363 0.69208 0.82485 0.0
H1227 H 0.74246 0.66829 0.81286 0.0
H1228 H 0.87226 0.77048 0.78161 0.0
H1229 H 0.86066 0.72772 0.71773 0.0
H1230 H 0.68367 0.73159 0.68578 0.0
H1231 H 0.72084 0.66884 0.71197 0.0
Li1232 Li 0.75143 0.25282 0.24704 0.0
Li1233 Li 0.70999 0.24058 0.25802 0.0
Li1234 Li 0.74015 0.24588 0.28772 0.0
Li1235 Li 0.74226 0.21147 0.26234 0.0
C1236 C 0.72876 0.29021 0.28065 0.0
N1237 N 0.7323 0.32847 0.31214 0.0
C1238 C 0.70832 0.29886 0.29221 0.0
C1239 C 0.75098 0.30113 0.28498 0.0
C1240 C 0.71049 0.31818 0.30812 0.0
C1241 C 0.7524 0.32044 0.30098 0.0
C1242 C 0.72411 0.23359 0.20939 0.0
C1243 C 0.71669 0.22403 0.16777 0.0
N1244 N 0.71085 0.24736 0.16361 0.0
C1245 C 0.71802 0.25748 0.20471 0.0
C1246 C 0.72347 0.21673 0.19079 0.0
C1247 C 0.71138 0.26408 0.18144 0.0
C1248 C 0.7873 0.25935 0.21208 0.0
N1249 N 0.77045 0.27074 0.22543 0.0
C1250 C 0.78065 0.30847 0.20787 0.0
C1251 C 0.76669 0.29473 0.22342 0.0
C1252 C 0.79837 0.29734 0.19385 0.0
C1253 C 0.80149 0.27236 0.19601 0.0
H1254 H 0.78963 0.24016 0.21391 0.0
H1255 H 0.75285 0.30324 0.23392 0.0
C1256 C 0.66335 0.2485 0.27226 0.0
N1257 N 0.67638 0.24323 0.25236 0.0
C1258 C 0.63838 0.24897 0.2712 0.0
C1259 C 0.64057 0.23869 0.22908 0.0
C1260 C 0.66553 0.23819 0.23101 0.0
C1261 C 0.6267 0.24391 0.24942 0.0
H1262 H 0.67241 0.25169 0.28916 0.0
H1263 H 0.67602 0.23305 0.21563 0.0
C1264 C 0.78842 0.23308 0.28511 0.0
N1265 N 0.82834 0.23252 0.31451 0.0
C1266 C 0.7898 0.21672 0.30406 0.0
C1267 C 0.80738 0.24903 0.28096 0.0
C1268 C 0.81012 0.21677 0.31878 0.0
C1269 C 0.82741 0.24848 0.29606 0.0
C1270 C 0.70029 0.20108 0.28575 0.0
C1271 C 0.69018 0.19345 0.3074 0.0
C1272 C 0.69344 0.1899 0.26428 0.0
C1273 C 0.67337 0.17477 0.30722 0.0
C1274 C 0.67656 0.17129 0.26485 0.0
N1275 N 0.66695 0.16418 0.28613 0.0
C1276 C 0.72474 0.25256 0.33459 0.0
C1277 C 0.76489 0.26559 0.32929 0.0
C1278 C 0.7258 0.25804 0.35901 0.0
N1279 N 0.74425 0.25594 0.32038 0.0
C1280 C 0.76685 0.27105 0.35368 0.0
C1281 C 0.74722 0.26698 0.36888 0.0
H1282 H 0.70839 0.24533 0.32696 0.0
H1283 H 0.77989 0.26905 0.31758 0.0
C1284 C 0.75626 0.16762 0.24004 0.0
N1285 N 0.75019 0.17847 0.26104 0.0
C1286 C 0.76009 0.14281 0.23936 0.0
C1287 C 0.75171 0.14112 0.28193 0.0
C1288 C 0.74825 0.16586 0.28182 0.0
C1289 C 0.75738 0.12924 0.26045 0.0
H1290 H 0.75761 0.17815 0.22379 0.0
H1291 H 0.74342 0.17499 0.29826 0.0
O1292 O 0.72711 0.271 0.26538 0.0
O1293 O 0.731 0.2267 0.23193 0.0
O1294 O 0.76875 0.23337 0.27046 0.0
O1295 O 0.71675 0.21943 0.28578 0.0
H1296 H 0.69097 0.29076 0.28896 0.0
H1297 H 0.76705 0.29446 0.27644 0.0
H1298 H 0.69483 0.325 0.31725 0.0
H1299 H 0.76951 0.32893 0.30464 0.0
H1300 H 0.71608 0.21116 0.15321 0.0
H1301 H 0.71824 0.27076 0.21888 0.0
H1302 H 0.72813 0.19818 0.19412 0.0
H1303 H 0.70661 0.28248 0.17757 0.0
H1304 H 0.77776 0.32766 0.20716 0.0
H1305 H 0.81459 0.2629 0.18529 0.0
H1306 H 0.62833 0.25311 0.28729 0.0
H1307 H 0.63218 0.23423 0.21208 0.0
H1308 H 0.77523 0.20435 0.30756 0.0
H1309 H 0.80657 0.26176 0.2663 0.0
H1310 H 0.81139 0.20433 0.33363 0.0
H1311 H 0.8422 0.26077 0.29313 0.0
H1312 H 0.69532 0.20184 0.32419 0.0
H1313 H 0.70101 0.19544 0.24732 0.0
H1314 H 0.66541 0.1687 0.32386 0.0
H1315 H 0.6711 0.16251 0.24838 0.0
H1316 H 0.71028 0.2546 0.37018 0.0
H1317 H 0.78355 0.2783 0.3606 0.0
H1318 H 0.7643 0.13425 0.22242 0.0
H1319 H 0.74975 0.13132 0.29861 0.0
Li1320 Li 0.50084 0.50067 0.49962 0.0
Li1321 Li 0.49178 0.48777 0.45813 0.0
Li1322 Li 0.46085 0.49202 0.48696 0.0
Li1323 Li 0.48747 0.45877 0.49046 0.0
C1324 C 0.46766 0.53721 0.47805 0.0
N1325 N 0.43704 0.57545 0.48518 0.0
C1326 C 0.4558 0.54762 0.45856 0.0
C1327 C 0.46402 0.54634 0.50115 0.0
C1328 C 0.44036 0.56691 0.46254 0.0
C1329 C 0.44847 0.56567 0.50439 0.0
C1330 C 0.53982 0.48382 0.47374 0.0
C1331 C 0.5825 0.47819 0.46982 0.0
N1332 N 0.58472 0.50108 0.46159 0.0
C1333 C 0.54254 0.50729 0.46521 0.0
C1334 C 0.55995 0.46914 0.47607 0.0
C1335 C 0.56538 0.51568 0.45918 0.0
C1336 C 0.53225 0.50917 0.53828 0.0
N1337 N 0.52125 0.51954 0.51915 0.0
C1338 C 0.53939 0.55741 0.52809 0.0
C1339 C 0.52474 0.54307 0.51365 0.0
C1340 C 0.55082 0.54729 0.54811 0.0
C1341 C 0.54732 0.5228 0.55306 0.0
H1342 H 0.5292 0.49035 0.54206 0.0
H1343 H 0.51612 0.5507 0.49804 0.0
C1344 C 0.48037 0.49913 0.41127 0.0
N1345 N 0.49863 0.49045 0.42481 0.0
C1346 C 0.48221 0.4997 0.38633 0.0
C1347 C 0.52165 0.48214 0.38961 0.0
C1348 C 0.51905 0.48197 0.41456 0.0
C1349 C 0.50294 0.49084 0.37515 0.0
H1350 H 0.46401 0.50487 0.41986 0.0
H1351 H 0.53296 0.47423 0.42558 0.0
C1352 C 0.46178 0.4804 0.53525 0.0
N1353 N 0.43019 0.4803 0.57338 0.0
C1354 C 0.44313 0.46358 0.53609 0.0
C1355 C 0.46453 0.49703 0.55389 0.0
C1356 C 0.42729 0.46388 0.55549 0.0
C1357 C 0.44833 0.49671 0.573 0.0
C1358 C 0.46594 0.44701 0.44771 0.0
C1359 C 0.44502 0.43865 0.43658 0.0
C1360 C 0.48792 0.43634 0.44216 0.0
C1361 C 0.44642 0.41984 0.42002 0.0
C1362 C 0.48858 0.41758 0.42551 0.0
N1363 N 0.46799 0.40979 0.41486 0.0
C1364 C 0.41497 0.49597 0.46893 0.0
C1365 C 0.41712 0.5104 0.50891 0.0
C1366 C 0.39029 0.49967 0.46836 0.0
N1367 N 0.42775 0.50069 0.48919 0.0
C1368 C 0.39239 0.51429 0.50918 0.0
C1369 C 0.37858 0.50836 0.48888 0.0
H1370 H 0.42398 0.48904 0.45323 0.0
H1371 H 0.42767 0.51483 0.52457 0.0
C1372 C 0.51107 0.41567 0.5045 0.0
N1373 N 0.48973 0.42584 0.49867 0.0
C1374 C 0.51248 0.39091 0.50842 0.0
C1375 C 0.46989 0.38783 0.50069 0.0
C1376 C 0.4693 0.41255 0.49699 0.0
C1377 C 0.49173 0.37663 0.50615 0.0
H1378 H 0.52704 0.42671 0.50556 0.0
H1379 H 0.45261 0.42112 0.49216 0.0
O1380 O 0.48249 0.51798 0.47465 0.0
O1381 O 0.51768 0.47519 0.47999 0.0
O1382 O 0.47755 0.4804 0.51649 0.0
O1383 O 0.46472 0.46546 0.46397 0.0
H1384 H 0.45848 0.54094 0.44055 0.0
H1385 H 0.47279 0.53832 0.51649 0.0
H1386 H 0.43102 0.57509 0.44763 0.0
H1387 H 0.44538 0.57279 0.52219 0.0
H1388 H 0.59823 0.46702 0.47153 0.0
H1389 H 0.52721 0.51891 0.46314 0.0
H1390 H 0.55817 0.45093 0.48263 0.0
H1391 H 0.56773 0.5338 0.45255 0.0
H1392 H 0.54196 0.57616 0.52353 0.0
H1393 H 0.55581 0.51442 0.56841 0.0
H1394 H 0.4674 0.50672 0.37592 0.0
H1395 H 0.53773 0.47471 0.38173 0.0
H1396 H 0.44072 0.45066 0.52177 0.0
H1397 H 0.47897 0.51008 0.55355 0.0
H1398 H 0.41265 0.45108 0.5563 0.0
H1399 H 0.45017 0.50953 0.58751 0.0
H1400 H 0.42783 0.44657 0.44074 0.0
H1401 H 0.50432 0.44239 0.45061 0.0
H1402 H 0.43036 0.41322 0.41128 0.0
H1403 H 0.50546 0.40921 0.42105 0.0
H1404 H 0.38045 0.49547 0.45209 0.0
H1405 H 0.38411 0.52109 0.52538 0.0
H1406 H 0.52972 0.38294 0.51241 0.0
H1407 H 0.45342 0.37756 0.49909 0.0
C1408 C 0.19122 0.17927 0.15803 0.0
C1409 C 0.18069 0.19349 0.17599 0.0
C1410 C 0.17695 0.16566 0.14247 0.0
C1411 C 0.11518 0.15879 0.11915 0.0
H1412 H 0.13506 0.09321 0.10708 0.0
C1413 C 0.06607 0.09611 0.05198 0.0
C1414 C 0.06228 0.07229 0.05947 0.0
C1415 C 0.08066 0.11159 0.0654 0.0
C1416 C 0.12921 0.11144 0.11037 0.0
H1417 H 0.14694 0.20485 0.19148 0.0
H1418 H 0.122 0.181 0.16432 0.0
H1419 H 0.16009 0.11935 0.13182 0.0
H1420 H 0.07101 0.04597 0.08676 0.0
H1421 H 0.09616 0.07306 0.11036 0.0
H1422 H 0.08399 0.15064 0.09812 0.0
C1423 C 0.14129 0.18062 0.16209 0.0
C1424 C 0.14369 0.12651 0.12431 0.0
C1425 C 0.15557 0.19426 0.17766 0.0
C1426 C 0.07338 0.06429 0.08065 0.0
C1427 C 0.08801 0.07973 0.09401 0.0
C1428 C 0.10071 0.14372 0.10514 0.0
C1429 C 0.15184 0.16595 0.14452 0.0
C1430 C 0.13678 0.15031 0.12897 0.0
C1431 C 0.09185 0.10353 0.08652 0.0
C1432 C 0.10749 0.11982 0.10076 0.0
H1433 H 0.21052 0.17866 0.15601 0.0
H1434 H 0.18561 0.15488 0.12882 0.0
H1435 H 0.10948 0.17711 0.12225 0.0
H1436 H 0.05757 0.10286 0.03585 0.0
H1437 H 0.08342 0.12978 0.05908 0.0
C1438 C 0.088 0.92796 0.43641 0.0
C1439 C 0.07027 0.94308 0.42682 0.0
C1440 C 0.10255 0.91435 0.4213 0.0
C1441 C 0.1251 0.90947 0.3595 0.0
H1442 H 0.13305 0.84222 0.37569 0.0
C1443 C 0.19263 0.84643 0.31204 0.0
C1444 C 0.18433 0.82324 0.30621 0.0
C1445 C 0.17861 0.86187 0.3259 0.0
C1446 C 0.13089 0.86093 0.37088 0.0
H1447 H 0.05427 0.95605 0.39376 0.0
H1448 H 0.07996 0.93244 0.36736 0.0
H1449 H 0.1092 0.86801 0.4017 0.0
H1450 H 0.15434 0.7985 0.30967 0.0
H1451 H 0.13011 0.82531 0.33418 0.0
H1452 H 0.14677 0.90227 0.32858 0.0
C1453 C 0.0826 0.93125 0.3866 0.0
C1454 C 0.11745 0.87574 0.38589 0.0
C1455 C 0.06792 0.94479 0.40173 0.0
C1456 C 0.16152 0.81603 0.31424 0.0
C1457 C 0.14759 0.8314 0.32822 0.0
C1458 C 0.13875 0.89467 0.34457 0.0
C1459 C 0.09983 0.91565 0.39626 0.0
C1460 C 0.11439 0.90015 0.38035 0.0
C1461 C 0.15607 0.8544 0.33436 0.0
C1462 C 0.14169 0.87023 0.35009 0.0
H1463 H 0.09063 0.92661 0.45563 0.0
H1464 H 0.11597 0.90278 0.42922 0.0
H1465 H 0.12313 0.92825 0.35488 0.0
H1466 H 0.21024 0.85246 0.30642 0.0
H1467 H 0.18569 0.87942 0.33057 0.0
C1468 C 0.40931 0.93519 0.56264 0.0
C1469 C 0.43367 0.92963 0.55962 0.0
C1470 C 0.39448 0.92024 0.57631 0.0
C1471 C 0.39574 0.87679 0.62522 0.0
H1472 H 0.33447 0.85513 0.6 0.0
C1473 C 0.33849 0.80683 0.67542 0.0
C1474 C 0.31348 0.80996 0.67551 0.0
C1475 C 0.35307 0.82083 0.66058 0.0
C1476 C 0.35136 0.86127 0.60747 0.0
H1477 H 0.46173 0.90441 0.5687 0.0
H1478 H 0.43585 0.87843 0.59289 0.0
H1479 H 0.35991 0.88136 0.57578 0.0
H1480 H 0.28421 0.82995 0.65947 0.0
H1481 H 0.30968 0.85502 0.63443 0.0
H1482 H 0.38711 0.85736 0.65712 0.0
C1483 C 0.42823 0.89425 0.58458 0.0
C1484 C 0.36594 0.87622 0.59354 0.0
C1485 C 0.44297 0.90899 0.57064 0.0
C1486 C 0.30342 0.82728 0.66017 0.0
C1487 C 0.31803 0.84144 0.64551 0.0
C1488 C 0.38106 0.8621 0.63927 0.0
C1489 C 0.40385 0.8997 0.58748 0.0
C1490 C 0.38828 0.88404 0.60227 0.0
C1491 C 0.34307 0.8385 0.64562 0.0
C1492 C 0.35871 0.85407 0.63055 0.0
H1493 H 0.40169 0.95094 0.5542 0.0
H1494 H 0.37576 0.92491 0.57841 0.0
H1495 H 0.41277 0.88283 0.63247 0.0
H1496 H 0.34692 0.79388 0.68716 0.0
H1497 H 0.37223 0.81776 0.66086 0.0
C1498 C 0.4288 0.05961 0.90556 0.0
C1499 C 0.434 0.06625 0.92936 0.0
C1500 C 0.41465 0.07434 0.89108 0.0
C1501 C 0.39633 0.13654 0.88285 0.0
H1502 H 0.34259 0.10958 0.8475 0.0
C1503 C 0.32852 0.19638 0.83282 0.0
C1504 C 0.31884 0.18793 0.81103 0.0
C1505 C 0.34282 0.18155 0.84704 0.0
C1506 C 0.35776 0.11737 0.85692 0.0
H1507 H 0.42877 0.09351 0.95664 0.0
H1508 H 0.40425 0.1195 0.93114 0.0
H1509 H 0.36716 0.08356 0.87261 0.0
H1510 H 0.3168 0.15713 0.78715 0.0
H1511 H 0.34259 0.13171 0.81136 0.0
H1512 H 0.38743 0.17022 0.86684 0.0
C1513 C 0.41104 0.10284 0.92379 0.0
C1514 C 0.37174 0.10245 0.87138 0.0
C1515 C 0.42488 0.08793 0.93839 0.0
C1516 C 0.32415 0.16438 0.80366 0.0
C1517 C 0.33867 0.14963 0.81777 0.0
C1518 C 0.38256 0.15142 0.86815 0.0
C1519 C 0.40576 0.09615 0.90002 0.0
C1520 C 0.39107 0.11192 0.88455 0.0
C1521 C 0.34805 0.15796 0.83973 0.0
C1522 C 0.36301 0.14205 0.85507 0.0
H1523 H 0.4355 0.04291 0.89824 0.0
H1524 H 0.41094 0.06886 0.87276 0.0
H1525 H 0.41135 0.14422 0.89261 0.0
H1526 H 0.32513 0.21452 0.83892 0.0
H1527 H 0.34947 0.18852 0.86396 0.0
C1528 C 0.67782 0.34207 0.80094 0.0
C1529 C 0.68771 0.32107 0.81076 0.0
C1530 C 0.66403 0.35741 0.81513 0.0
C1531 C 0.65142 0.37304 0.8784 0.0
H1532 H 0.59269 0.39953 0.85233 0.0
C1533 C 0.5792 0.41678 0.93762 0.0
C1534 C 0.56874 0.43809 0.92923 0.0
C1535 C 0.59452 0.40359 0.92292 0.0
C1536 C 0.60919 0.3925 0.85975 0.0
H1537 H 0.69123 0.29993 0.84326 0.0
H1538 H 0.66673 0.32636 0.86784 0.0
H1539 H 0.61802 0.37443 0.82703 0.0
H1540 H 0.56596 0.46224 0.89885 0.0
H1541 H 0.59287 0.43917 0.87312 0.0
H1542 H 0.64237 0.39082 0.91124 0.0
C1543 C 0.66984 0.33113 0.84926 0.0
C1544 C 0.62371 0.37815 0.84527 0.0
C1545 C 0.68362 0.31582 0.83509 0.0
C1546 C 0.57393 0.44597 0.90584 0.0
C1547 C 0.58914 0.43268 0.89106 0.0
C1548 C 0.63686 0.38731 0.8929 0.0
C1549 C 0.65986 0.35208 0.83944 0.0
C1550 C 0.6449 0.36811 0.8545 0.0
C1551 C 0.59959 0.41135 0.89946 0.0
C1552 C 0.61551 0.39703 0.88378 0.0
H1553 H 0.68047 0.3465 0.7822 0.0
H1554 H 0.65677 0.37352 0.80709 0.0
H1555 H 0.66786 0.36594 0.88591 0.0
H1556 H 0.57568 0.4104 0.95565 0.0
H1557 H 0.60213 0.3871 0.92979 0.0
C1558 C 0.9106 0.44251 0.07239 0.0
C1559 C 0.9328 0.4344 0.06384 0.0
C1560 C 0.89609 0.42739 0.08619 0.0
C1561 C 0.89746 0.37648 0.12675 0.0
H1562 H 0.8318 0.36506 0.10657 0.0
C1563 C 0.838 0.3063 0.1742 0.0
C1564 C 0.81364 0.31185 0.17742 0.0
C1565 C 0.85254 0.3206 0.15959 0.0
C1566 C 0.84996 0.3683 0.11271 0.0
H1567 H 0.95764 0.4046 0.06338 0.0
H1568 H 0.93245 0.3783 0.08806 0.0
H1569 H 0.85719 0.39229 0.08351 0.0
H1570 H 0.78537 0.33645 0.16699 0.0
H1571 H 0.81089 0.36201 0.14272 0.0
H1572 H 0.89022 0.35325 0.15638 0.0
C1573 C 0.92621 0.39621 0.08386 0.0
C1574 C 0.86449 0.38382 0.09942 0.0
C1575 C 0.94051 0.41116 0.0697 0.0
C1576 C 0.80414 0.33185 0.16535 0.0
C1577 C 0.81874 0.34634 0.15104 0.0
C1578 C 0.88283 0.36126 0.1403 0.0
C1579 C 0.90379 0.40413 0.09201 0.0
C1580 C 0.88835 0.38798 0.10631 0.0
C1581 C 0.84318 0.341 0.14807 0.0
C1582 C 0.85888 0.35693 0.13343 0.0
H1583 H 0.90429 0.46035 0.06799 0.0
H1584 H 0.87891 0.43389 0.09242 0.0
H1585 H 0.91579 0.37959 0.13248 0.0
H1586 H 0.84605 0.2912 0.18336 0.0
H1587 H 0.87116 0.31565 0.1574 0.0
C1588 C 0.92434 0.55874 0.41174 0.0
C1589 C 0.93328 0.56729 0.43375 0.0
C1590 C 0.91029 0.57344 0.39717 0.0
C1591 C 0.87381 0.62897 0.3981 0.0
H1592 H 0.88231 0.62571 0.32905 0.0
C1593 C 0.83117 0.697 0.33274 0.0
C1594 C 0.81922 0.68716 0.31272 0.0
C1595 C 0.84542 0.68258 0.34743 0.0
C1596 C 0.87966 0.62668 0.34829 0.0
H1597 H 0.93465 0.59787 0.45781 0.0
H1598 H 0.91052 0.62383 0.43214 0.0
H1599 H 0.9065 0.60027 0.35509 0.0
H1600 H 0.81299 0.65435 0.29248 0.0
H1601 H 0.83833 0.62935 0.31785 0.0
H1602 H 0.84722 0.65574 0.39117 0.0
C1603 C 0.9139 0.60559 0.42633 0.0
C1604 C 0.89343 0.61206 0.36323 0.0
C1605 C 0.92777 0.59077 0.44102 0.0
C1606 C 0.82223 0.66263 0.30751 0.0
C1607 C 0.83666 0.64827 0.32207 0.0
C1608 C 0.86021 0.64376 0.38316 0.0
C1609 C 0.90506 0.59712 0.40417 0.0
C1610 C 0.89059 0.61293 0.38832 0.0
C1611 C 0.84822 0.65806 0.34228 0.0
C1612 C 0.86294 0.64268 0.35812 0.0
H1613 H 0.92805 0.54057 0.40588 0.0
H1614 H 0.90337 0.56614 0.3805 0.0
H1615 H 0.87087 0.62985 0.4173 0.0
H1616 H 0.82965 0.71591 0.33704 0.0
H1617 H 0.85442 0.69065 0.36272 0.0
C1618 C 0.58915 0.55457 0.57048 0.0
C1619 C 0.56619 0.56234 0.56377 0.0
C1620 C 0.60386 0.56913 0.58476 0.0
C1621 C 0.61137 0.63235 0.60489 0.0
H1622 H 0.65276 0.60364 0.65281 0.0
C1623 C 0.68139 0.68829 0.6572 0.0
C1624 C 0.68505 0.68261 0.68148 0.0
C1625 C 0.66722 0.67346 0.64266 0.0
C1626 C 0.64114 0.612 0.63969 0.0
H1627 H 0.54027 0.59098 0.56718 0.0
H1628 H 0.56558 0.61614 0.59267 0.0
H1629 H 0.62683 0.57808 0.62855 0.0
H1630 H 0.67644 0.65737 0.70978 0.0
H1631 H 0.65117 0.6318 0.68465 0.0
H1632 H 0.62493 0.66633 0.61669 0.0
C1633 C 0.57261 0.59917 0.58636 0.0
C1634 C 0.62651 0.59728 0.62551 0.0
C1635 C 0.55804 0.58474 0.57186 0.0
C1636 C 0.67415 0.66196 0.69102 0.0
C1637 C 0.65976 0.64728 0.67658 0.0
C1638 C 0.62582 0.64707 0.61923 0.0
C1639 C 0.59578 0.59164 0.59286 0.0
C1640 C 0.61143 0.60727 0.60793 0.0
C1641 C 0.65618 0.65279 0.65219 0.0
C1642 C 0.6409 0.63709 0.63681 0.0
H1643 H 0.59592 0.53745 0.56426 0.0
H1644 H 0.62172 0.56291 0.58908 0.0
H1645 H 0.60027 0.64066 0.59129 0.0
H1646 H 0.68982 0.704 0.64937 0.0
H1647 H 0.6652 0.67805 0.62388 0.0
C1648 C 0.22706 0.23038 0.40854 0.0
C1649 C 0.24837 0.22556 0.39604 0.0
C1650 C 0.22624 0.22837 0.43354 0.0
C1651 C 0.26613 0.23129 0.48603 0.0
H1652 H 0.21039 0.208 0.52055 0.0
C1653 C 0.26412 0.22696 0.5895 0.0
C1654 C 0.24298 0.23487 0.60064 0.0
C1655 C 0.26482 0.2233 0.56467 0.0
C1656 C 0.22602 0.21472 0.51115 0.0
H1657 H 0.28508 0.21344 0.39978 0.0
H1658 H 0.28363 0.20985 0.44341 0.0
H1659 H 0.21134 0.20542 0.47678 0.0
H1660 H 0.20606 0.24529 0.59445 0.0
H1661 H 0.20732 0.23905 0.55115 0.0
H1662 H 0.28066 0.241 0.52027 0.0
C1663 C 0.26771 0.21567 0.43394 0.0
C1664 C 0.22657 0.21321 0.48609 0.0
C1665 C 0.26853 0.2177 0.40896 0.0
C1666 C 0.22251 0.23882 0.58645 0.0
C1667 C 0.22322 0.23522 0.56164 0.0
C1668 C 0.26557 0.23282 0.51105 0.0
C1669 C 0.24671 0.22146 0.44656 0.0
C1670 C 0.24656 0.22166 0.47324 0.0
C1671 C 0.24442 0.22754 0.55043 0.0
C1672 C 0.24543 0.22475 0.52391 0.0
H1673 H 0.2113 0.23673 0.39912 0.0
H1674 H 0.20986 0.2332 0.44274 0.0
H1675 H 0.28163 0.23836 0.47666 0.0
H1676 H 0.28009 0.22343 0.6 0.0
H1677 H 0.28133 0.21705 0.55665 0.0
C1678 C 0.98578 0.97778 0.83679 0.0
C1679 C -0.00022 0.99393 0.85033 0.0
C1680 C 0.98707 0.97764 0.81178 0.0
C1681 C 0.02504 0.99593 0.76079 0.0
H1682 H 0.96547 0.99148 0.72497 0.0
C1683 C 0.01872 0.01257 0.65839 0.0
C1684 C 0.00313 0.9977 0.64512 0.0
C1685 C 0.01941 0.0112 0.68343 0.0
C1686 C 0.98229 0.99241 0.73469 0.0
H1687 H 0.02621 0.02254 0.8482 0.0
H1688 H 0.02847 0.0223 0.8044 0.0
H1689 H 0.96457 0.99103 0.76867 0.0
H1690 H 0.97684 0.969 0.64765 0.0
H1691 H 0.97807 0.96656 0.69133 0.0
H1692 H 0.04274 0.99741 0.72671 0.0
C1693 C 0.01668 0.00957 0.81321 0.0
C1694 C 0.98177 0.99218 0.75973 0.0
C1695 C 0.01538 0.00972 0.83828 0.0
C1696 C 0.98871 0.98101 0.6574 0.0
C1697 C 0.98941 0.97962 0.68241 0.0
C1698 C 0.02557 0.99615 0.73569 0.0
C1699 C 0.0024 0.99364 0.7997 0.0
C1700 C 0.00313 0.99391 0.77307 0.0
C1701 C 0.00454 0.99491 0.69573 0.0
C1702 C 0.00419 0.99437 0.72237 0.0
H1703 H 0.97395 0.96504 0.84555 0.0
H1704 H 0.97617 0.96485 0.80189 0.0
H1705 H 0.04182 0.997 0.77058 0.0
H1706 H 0.02985 0.02581 0.64946 0.0
H1707 H 0.03106 0.0234 0.6932 0.0
C1708 C 0.23257 0.78524 0.90663 0.0
C1709 C 0.2501 0.77249 0.89384 0.0
C1710 C 0.2338 0.78701 0.93164 0.0
C1711 C 0.27473 0.77762 0.98371 0.0
H1712 H 0.21538 0.76876 0.01888 0.0
C1713 C 0.27192 0.74871 0.0828 0.0
C1714 C 0.25623 0.76108 0.09817 0.0
C1715 C 0.27128 0.75256 0.05806 0.0
C1716 C 0.23205 0.77155 0.00929 0.0
H1717 H 0.28274 0.75177 0.89718 0.0
H1718 H 0.28474 0.7545 0.94072 0.0
H1719 H 0.21439 0.7716 0.97518 0.0
H1720 H 0.22756 0.78733 0.09937 0.0
H1721 H 0.22608 0.79353 0.05598 0.0
H1722 H 0.2924 0.7767 0.01787 0.0
C1723 C 0.27032 0.76364 0.9315 0.0
C1724 C 0.23151 0.77327 0.98426 0.0
C1725 C 0.26917 0.76203 0.90651 0.0
C1726 C 0.23968 0.77722 0.08809 0.0
C1727 C 0.23888 0.78088 0.06326 0.0
C1728 C 0.27528 0.77567 0.0087 0.0
C1729 C 0.25249 0.7759 0.94442 0.0
C1730 C 0.25288 0.77601 0.97113 0.0
C1731 C 0.25477 0.76867 0.04804 0.0
C1732 C 0.25398 0.77232 0.0217 0.0
H1733 H 0.2178 0.79371 0.89728 0.0
H1734 H 0.22001 0.79694 0.94098 0.0
H1735 H 0.29148 0.78021 0.97423 0.0
H1736 H 0.28453 0.73575 0.08983 0.0
H1737 H 0.28345 0.74259 0.04669 0.0
C1738 C 0.48012 0.98492 0.33838 0.0
C1739 C 0.49255 0.00391 0.34962 0.0
C1740 C 0.47612 0.98509 0.31358 0.0
C1741 C 0.47784 0.02558 0.26011 0.0
H1742 H 0.48193 0.96554 0.22501 0.0
C1743 C 0.49493 0.01823 0.15803 0.0
C1744 C 0.47999 0.00251 0.14491 0.0
C1745 C 0.49366 0.01921 0.18305 0.0
C1746 C 0.48048 0.98239 0.23465 0.0
H1747 H 0.51002 0.03827 0.34336 0.0
H1748 H 0.50435 0.03788 0.30025 0.0
H1749 H 0.4855 0.9654 0.26865 0.0
H1750 H 0.45131 0.97615 0.14811 0.0
H1751 H 0.44989 0.97727 0.19191 0.0
H1752 H 0.474 0.04257 0.22579 0.0
C1753 C 0.4971 0.02309 0.31059 0.0
C1754 C 0.48242 0.98235 0.25967 0.0
C1755 C 0.50077 0.02309 0.33538 0.0
C1756 C 0.46346 0.98811 0.15754 0.0
C1757 C 0.46251 0.98881 0.18262 0.0
C1758 C 0.47632 0.02564 0.23507 0.0
C1759 C 0.48471 0.00411 0.29931 0.0
C1760 C 0.48134 0.00398 0.27275 0.0
C1761 C 0.47772 0.00425 0.19557 0.0
C1762 C 0.47779 0.00407 0.22213 0.0
H1763 H 0.47372 0.96969 0.34865 0.0
H1764 H 0.46623 0.9703 0.30564 0.0
H1765 H 0.47634 0.04253 0.26953 0.0
H1766 H 0.50823 0.02925 0.14909 0.0
H1767 H 0.50577 0.03108 0.19269 0.0
C1768 C 0.40799 0.23028 0.26392 0.0
C1769 C 0.39522 0.24429 0.2473 0.0
C1770 C 0.43296 0.22908 0.26295 0.0
C1771 C 0.48525 0.239 0.22392 0.0
H1772 H 0.51901 0.24793 0.28425 0.0
C1773 C 0.58789 0.25416 0.2291 0.0
C1774 C 0.60017 0.24324 0.2482 0.0
C1775 C 0.56283 0.25372 0.22824 0.0
C1776 C 0.5099 0.24507 0.26728 0.0
H1777 H 0.39868 0.26757 0.21626 0.0
H1778 H 0.44235 0.26524 0.21445 0.0
H1779 H 0.47539 0.24741 0.28376 0.0
H1780 H 0.59599 0.22262 0.28092 0.0
H1781 H 0.55236 0.22152 0.2793 0.0
H1782 H 0.51981 0.2365 0.20745 0.0
C1783 C 0.43296 0.25512 0.22815 0.0
C1784 C 0.48489 0.2448 0.26702 0.0
C1785 C 0.40795 0.25642 0.22918 0.0
C1786 C 0.58697 0.23157 0.26622 0.0
C1787 C 0.56197 0.23098 0.26529 0.0
C1788 C 0.51032 0.23912 0.22419 0.0
C1789 C 0.44572 0.24175 0.24528 0.0
C1790 C 0.4723 0.24174 0.24535 0.0
C1791 C 0.54958 0.2422 0.24639 0.0
C1792 C 0.52294 0.24213 0.2459 0.0
H1793 H 0.3987 0.22031 0.27778 0.0
H1794 H 0.44231 0.21827 0.27611 0.0
H1795 H 0.47599 0.23642 0.20698 0.0
H1796 H 0.59764 0.26344 0.21507 0.0
H1797 H 0.55385 0.2628 0.21361 0.0
C1798 C 0.01716 0.34011 0.46617 0.0
C1799 C 0.99859 0.35289 0.47728 0.0
C1800 C 0.01578 0.31514 0.46392 0.0
C1801 C 0.97342 0.26328 0.46922 0.0
H1802 H 0.03185 0.22738 0.4803 0.0
C1803 C 0.97489 0.16331 0.49603 0.0
C1804 C 0.99073 0.14826 0.48344 0.0
C1805 C 0.97559 0.18816 0.49278 0.0
C1806 C 0.01546 0.2372 0.47691 0.0
H1807 H 0.964 0.34979 0.49463 0.0
H1808 H 0.96182 0.30622 0.49142 0.0
H1809 H 0.03339 0.27111 0.47903 0.0
H1810 H 0.0196 0.14778 0.45731 0.0
H1811 H 0.02129 0.19134 0.45235 0.0
H1812 H 0.95543 0.22919 0.4682 0.0
C1813 C 0.97717 0.31537 0.48377 0.0
C1814 C 0.01631 0.26226 0.47606 0.0
C1815 C 0.97842 0.34035 0.48571 0.0
C1816 C 0.00739 0.15878 0.4676 0.0
C1817 C 0.0083 0.1837 0.46463 0.0
C1818 C 0.97254 0.23824 0.47042 0.0
C1819 C 0.99595 0.30239 0.47306 0.0
C1820 C 0.99526 0.27566 0.47242 0.0
C1821 C 0.99236 0.19858 0.47716 0.0
C1822 C 0.99351 0.225 0.47447 0.0
H1823 H 0.0328 0.34944 0.45931 0.0
H1824 H 0.03035 0.30584 0.45513 0.0
H1825 H 0.95693 0.27292 0.46589 0.0
H1826 H 0.9622 0.15599 0.50878 0.0
H1827 H 0.96336 0.19929 0.50293 0.0
C1828 C 0.90812 0.74812 0.72531 0.0
C1829 C 0.89625 0.74516 0.74736 0.0
C1830 C 0.93313 0.74655 0.72409 0.0
C1831 C 0.98648 0.75279 0.76281 0.0
H1832 H 0.01998 0.7218 0.71036 0.0
C1833 C 0.08767 0.73553 0.76675 0.0
C1834 C 0.10117 0.74052 0.74605 0.0
C1835 C 0.06268 0.73551 0.7659 0.0
C1836 C 0.01085 0.73073 0.72499 0.0
H1837 H 0.90104 0.73686 0.78508 0.0
H1838 H 0.94452 0.73388 0.78294 0.0
H1839 H 0.97611 0.72231 0.71062 0.0
H1840 H 0.099 0.7491 0.70814 0.0
H1841 H 0.05516 0.74905 0.70666 0.0
H1842 H 0.02105 0.7612 0.77723 0.0
C1843 C 0.93465 0.73806 0.76671 0.0
C1844 C 0.98576 0.73101 0.72515 0.0
C1845 C 0.90975 0.73972 0.76794 0.0
C1846 C 0.08908 0.74502 0.72434 0.0
C1847 C 0.06401 0.74498 0.72349 0.0
C1848 C 0.01147 0.75247 0.76267 0.0
C1849 C 0.94669 0.74191 0.74489 0.0
C1850 C 0.97331 0.74188 0.74419 0.0
C1851 C 0.05055 0.74045 0.74434 0.0
C1852 C 0.02396 0.74127 0.74389 0.0
H1853 H 0.89814 0.75246 0.70919 0.0
H1854 H 0.94188 0.74975 0.70704 0.0
H1855 H 0.97746 0.76181 0.77746 0.0
H1856 H 0.09643 0.73144 0.78362 0.0
H1857 H 0.05282 0.73146 0.78216 0.0
C1858 C 0.49844 0.65926 0.00974 0.0
C1859 C 0.49364 0.64556 0.98908 0.0
C1860 C 0.49835 0.68429 0.00875 0.0
C1861 C 0.47627 0.73546 0.97294 0.0
H1862 H 0.52364 0.77071 0.01014 0.0
C1863 C 0.48834 0.83925 0.96925 0.0
C1864 C 0.49088 0.85072 0.99162 0.0
C1865 C 0.48844 0.81416 0.9677 0.0
C1866 C 0.51021 0.7611 -0.00022 0.0
H1867 H 0.48501 0.64728 0.95116 0.0
H1868 H 0.48513 0.69117 0.94933 0.0
H1869 H 0.52479 0.72701 0.00934 0.0
H1870 H 0.49558 0.84498 0.02985 0.0
H1871 H 0.49566 0.80129 0.02716 0.0
H1872 H 0.46183 0.76978 0.96333 0.0
C1873 C 0.48864 0.68252 0.96638 0.0
C1874 C 0.51082 0.73607 -0.00065 0.0
C1875 C 0.48862 0.65742 0.9674 0.0
C1876 C 0.49332 0.83665 0.0124 0.0
C1877 C 0.49363 0.81165 0.01083 0.0
C1878 C 0.47575 0.76058 0.97325 0.0
C1879 C 0.49357 0.69624 0.98705 0.0
C1880 C 0.49366 0.72292 0.98623 0.0
C1881 C 0.49138 0.80015 0.98847 0.0
C1882 C 0.49252 0.77361 0.98697 0.0
H1883 H 0.50188 0.65063 0.02682 0.0
H1884 H 0.50168 0.69427 0.02514 0.0
H1885 H 0.46264 0.72587 0.96284 0.0
H1886 H 0.4863 0.84967 0.95297 0.0
H1887 H 0.48675 0.80574 0.95023 0.0
C1888 C 0.58828 0.73214 0.25885 0.0
C1889 C 0.6018 0.75114 0.26854 0.0
C1890 C 0.56335 0.73186 0.26101 0.0
C1891 C 0.51226 0.77278 0.27198 0.0
H1892 H 0.47661 0.71291 0.27519 0.0
C1893 C 0.40836 0.76747 0.27798 0.0
C1894 C 0.39782 0.7524 0.26063 0.0
C1895 C 0.43319 0.76727 0.2816 0.0
C1896 C 0.48637 0.72975 0.27431 0.0
H1897 H 0.60012 0.78418 0.289 0.0
H1898 H 0.55658 0.78336 0.29356 0.0
H1899 H 0.52026 0.71233 0.27781 0.0
H1900 H 0.40472 0.72494 0.23393 0.0
H1901 H 0.44803 0.72438 0.24048 0.0
H1902 H 0.47816 0.79011 0.26867 0.0
C1903 C 0.56509 0.76902 0.28363 0.0
C1904 C 0.51138 0.72945 0.27568 0.0
C1905 C 0.59003 0.76946 0.28115 0.0
C1906 C 0.41244 0.73689 0.24726 0.0
C1907 C 0.43715 0.73642 0.25115 0.0
C1908 C 0.48722 0.77309 0.27095 0.0
C1909 C 0.55138 0.75043 0.27322 0.0
C1910 C 0.52469 0.75092 0.27404 0.0
C1911 C 0.44777 0.75166 0.26827 0.0
C1912 C 0.4741 0.75154 0.27164 0.0
H1913 H 0.59693 0.71795 0.24878 0.0
H1914 H 0.55344 0.71748 0.25237 0.0
H1915 H 0.52184 0.78965 0.27028 0.0
H1916 H 0.39743 0.77962 0.28846 0.0
H1917 H 0.44099 0.77915 0.29495 0.0
C1918 C 0.48716 0.1582 0.49499 0.0
C1919 C 0.50039 0.1451 0.512 0.0
C1920 C 0.48554 0.18315 0.49664 0.0
C1921 C 0.51696 0.23588 0.52092 0.0
H1922 H 0.45683 0.26802 0.50769 0.0
C1923 C 0.50643 0.33932 0.52685 0.0
C1924 C 0.49284 0.35011 0.50855 0.0
C1925 C 0.50707 0.3143 0.52908 0.0
C1926 C 0.47381 0.25933 0.51123 0.0
H1927 H 0.52181 0.14804 0.54446 0.0
H1928 H 0.51915 0.19174 0.54716 0.0
H1929 H 0.45811 0.22428 0.50854 0.0
H1930 H 0.46995 0.34309 0.47778 0.0
H1931 H 0.47116 0.29961 0.48156 0.0
H1932 H 0.53275 0.27094 0.52317 0.0
C1933 C 0.51022 0.18261 0.53244 0.0
C1934 C 0.47452 0.23428 0.51175 0.0
C1935 C 0.51176 0.15759 0.53086 0.0
C1936 C 0.48017 0.33536 0.49239 0.0
C1937 C 0.48085 0.31042 0.49458 0.0
C1938 C 0.51627 0.26098 0.52033 0.0
C1939 C 0.49718 0.19566 0.51527 0.0
C1940 C 0.49615 0.22227 0.51631 0.0
C1941 C 0.49419 0.29957 0.51301 0.0
C1942 C 0.49474 0.27298 0.51515 0.0
H1943 H 0.47857 0.14924 0.47997 0.0
H1944 H 0.47567 0.19273 0.48291 0.0
H1945 H 0.53395 0.22713 0.52423 0.0
H1946 H 0.51623 0.35023 0.5397 0.0
H1947 H 0.51736 0.3065 0.5436 0.0
C1948 C 0.09087 0.26588 0.78257 0.0
C1949 C 0.10229 0.25016 0.76652 0.0
C1950 C 0.06599 0.26505 0.7855 0.0
C1951 C 0.01238 0.22693 0.77311 0.0
H1952 H 0.97837 0.28752 0.77501 0.0
C1953 C 0.91316 0.2358 0.7474 0.0
C1954 C 0.8984 0.2498 0.76221 0.0
C1955 C 0.93789 0.23532 0.75111 0.0
C1956 C 0.98764 0.27047 0.77485 0.0
H1957 H 0.09662 0.22127 0.74097 0.0
H1958 H 0.0533 0.22002 0.74577 0.0
H1959 H 0.02213 0.28742 0.77588 0.0
H1960 H 0.89782 0.27429 0.79247 0.0
H1961 H 0.94138 0.2737 0.79879 0.0
H1962 H 0.97784 0.21008 0.77113 0.0
C1963 C 0.06353 0.23262 0.75657 0.0
C1964 C 0.01271 0.27038 0.7754 0.0
C1965 C 0.08838 0.23336 0.75376 0.0
C1966 C 0.90883 0.2633 0.78086 0.0
C1967 C 0.93369 0.26305 0.78439 0.0
C1968 C 0.98737 0.22705 0.77234 0.0
C1969 C 0.05199 0.24858 0.77233 0.0
C1970 C 0.02539 0.24861 0.77409 0.0
C1971 C 0.94841 0.24898 0.76957 0.0
C1972 C 0.97478 0.24883 0.77278 0.0
H1973 H 0.1012 0.27884 0.79285 0.0
H1974 H 0.05772 0.27736 0.79805 0.0
H1975 H 0.02154 0.20983 0.77261 0.0
H1976 H 0.90555 0.22504 0.73304 0.0
H1977 H 0.94884 0.22452 0.73926 0.0
C1978 C 0.98564 0.83879 0.02835 0.0
C1979 C 0.0023 0.85212 0.01485 0.0
C1980 C 0.98739 0.81382 0.02981 0.0
C1981 C 0.02854 0.76283 0.02063 0.0
H1982 H 0.96982 0.72669 0.01016 0.0
C1983 C 0.02816 0.66146 -0.00108 0.0
C1984 C 0.00991 0.64718 0.00894 0.0
C1985 C 0.02773 0.68642 0.0014 0.0
C1986 C 0.98633 0.73647 0.01348 0.0
H1987 H 0.03416 0.84967 0.99271 0.0
H1988 H 0.03729 0.80609 0.99539 0.0
H1989 H 0.96849 0.77037 0.01193 0.0
H1990 H 0.97721 0.64783 0.02991 0.0
H1991 H 0.97653 0.69142 0.03442 0.0
H1992 H 0.0464 0.72891 0.02204 0.0
C1993 C 0.02299 0.815 0.00501 0.0
C1994 C 0.98557 0.76151 0.01449 0.0
C1995 C 0.02121 0.83998 0.0035 0.0
C1996 C 0.99135 0.65838 0.02171 0.0
C1997 C 0.99096 0.68335 0.02427 0.0
C1998 C 0.0293 0.73775 0.01971 0.0
C1999 C 0.00587 0.80162 0.01786 0.0
C2000 C 0.00668 0.77498 0.01791 0.0
C2001 C 0.00907 0.69768 0.01402 0.0
C2002 C 0.00822 0.72429 0.01595 0.0
H2003 H 0.97111 0.84765 0.03767 0.0
H2004 H 0.97417 0.80403 0.04019 0.0
H2005 H 0.04507 0.77272 0.02358 0.0
H2006 H 0.04251 0.65338 0.98866 0.0
H2007 H 0.04174 0.69693 0.99293 0.0
C2008 C 0.22342 0.41016 0.24833 0.0
C2009 C 0.24058 0.3986 0.26272 0.0
C2010 C 0.2221 0.43524 0.24789 0.0
C2011 C 0.23991 0.48941 0.2823 0.0
H2012 H 0.23192 0.52195 0.2213 0.0
C2013 C 0.25868 0.59055 0.26988 0.0
C2014 C 0.24299 0.60365 0.25516 0.0
C2015 C 0.25657 0.56561 0.27161 0.0
C2016 C 0.23383 0.51313 0.23852 0.0
H2017 H 0.27013 0.4043 0.28751 0.0
H2018 H 0.26785 0.44792 0.28671 0.0
H2019 H 0.2316 0.47817 0.22262 0.0
H2020 H 0.21267 0.6009 0.23085 0.0
H2021 H 0.20882 0.55732 0.23409 0.0
H2022 H 0.24249 0.52438 0.29813 0.0
C2023 C 0.25508 0.43765 0.27615 0.0
C2024 C 0.23364 0.48804 0.23927 0.0
C2025 C 0.25639 0.41264 0.2766 0.0
C2026 C 0.2249 0.59132 0.24249 0.0
C2027 C 0.22285 0.56635 0.24415 0.0
C2028 C 0.24014 0.51448 0.28153 0.0
C2029 C 0.23792 0.44926 0.26181 0.0
C2030 C 0.23691 0.4759 0.26114 0.0
C2031 C 0.23877 0.55321 0.2586 0.0
C2032 C 0.23732 0.52661 0.25961 0.0
H2033 H 0.21082 0.39983 0.23764 0.0
H2034 H 0.2085 0.44364 0.23686 0.0
H2035 H 0.24206 0.48059 0.29949 0.0
H2036 H 0.27264 0.59958 0.28004 0.0
H2037 H 0.26924 0.55598 0.28274 0.0
C2038 C 0.72577 0.09092 0.73528 0.0
C2039 C 0.74107 0.10243 0.75178 0.0
C2040 C 0.72379 0.0659 0.73498 0.0
C2041 C 0.73237 0.01198 0.77153 0.0
H2042 H 0.73974 0.9793 0.7104 0.0
C2043 C 0.71869 0.90967 0.76046 0.0
C2044 C 0.73745 0.89755 0.74876 0.0
C2045 C 0.71759 0.93472 0.7602 0.0
C2046 C 0.73763 0.98821 0.72757 0.0
H2047 H 0.76575 0.09693 0.78136 0.0
H2048 H 0.76211 0.05312 0.78099 0.0
H2049 H 0.7406 0.02322 0.7119 0.0
H2050 H 0.76955 0.90251 0.72727 0.0
H2051 H 0.76715 0.94619 0.72628 0.0
H2052 H 0.72955 0.97696 0.78721 0.0
C2053 C 0.75173 0.06348 0.76826 0.0
C2054 C 0.73795 0.01329 0.72841 0.0
C2055 C 0.75393 0.08849 0.76836 0.0
C2056 C 0.75463 0.91114 0.73614 0.0
C2057 C 0.75334 0.93618 0.73565 0.0
C2058 C 0.73174 0.9869 0.77064 0.0
C2059 C 0.73686 0.05195 0.75137 0.0
C2060 C 0.73553 0.0254 0.75042 0.0
C2061 C 0.73502 0.94821 0.74796 0.0
C2062 C 0.73457 0.97479 0.74868 0.0
H2063 H 0.71581 0.10123 0.72216 0.0
H2064 H 0.71208 0.05745 0.72189 0.0
H2065 H 0.73034 0.02089 0.7887 0.0
H2066 H 0.70488 0.89981 0.76994 0.0
H2067 H 0.70309 0.94358 0.76957 0.0
C2068 C 0.34017 0.46463 0.00693 0.0
C2069 C 0.35208 0.48236 0.99348 0.0
C2070 C 0.31514 0.46323 0.00683 0.0
C2071 C 0.261 0.48452 0.97422 0.0
H2072 H 0.22961 0.47362 0.03538 0.0
C2073 C 0.16187 0.50714 0.99013 0.0
C2074 C 0.14779 0.48987 0.00199 0.0
C2075 C 0.18671 0.50463 0.98888 0.0
C2076 C 0.23813 0.47642 0.01813 0.0
H2077 H 0.34721 0.51234 0.96922 0.0
H2078 H 0.30361 0.5102 0.9693 0.0
H2079 H 0.27321 0.47157 0.03284 0.0
H2080 H 0.14872 0.45667 0.02227 0.0
H2081 H 0.19235 0.45234 0.02018 0.0
H2082 H 0.22588 0.49002 0.95971 0.0
C2083 C 0.31351 0.49701 0.97952 0.0
C2084 C 0.2631 0.47517 0.01663 0.0
C2085 C 0.33852 0.49828 0.97948 0.0
C2086 C 0.15913 0.47019 0.01291 0.0
C2087 C 0.18406 0.46779 0.01184 0.0
C2088 C 0.23607 0.48595 0.97577 0.0
C2089 C 0.3015 0.47966 0.99343 0.0
C2090 C 0.27486 0.47944 0.99469 0.0
C2091 C 0.19805 0.48487 -0.00042 0.0
C2092 C 0.2244 0.48216 0.99779 0.0
H2093 H 0.35022 0.45196 0.01767 0.0
H2094 H 0.30649 0.44937 0.01739 0.0
H2095 H 0.26941 0.48745 0.95695 0.0
H2096 H 0.15363 0.52235 0.9813 0.0
H2097 H 0.19708 0.51822 0.97957 0.0
C2098 C 0.77841 0.09135 0.24817 0.0
C2099 C 0.75938 0.10272 0.26005 0.0
C2100 C 0.78024 0.06628 0.24828 0.0
C2101 C 0.75765 0.01228 0.28058 0.0
H2102 H 0.77674 0.97858 0.22276 0.0
C2103 C 0.73734 0.9123 0.26355 0.0
C2104 C 0.75584 0.89811 0.25415 0.0
C2105 C 0.74024 0.93712 0.26567 0.0
C2106 C 0.77169 0.98778 0.23912 0.0
H2107 H 0.72695 0.09686 0.28066 0.0
H2108 H 0.72978 0.05332 0.28044 0.0
H2109 H 0.77699 0.02243 0.22337 0.0
H2110 H 0.79189 0.89858 0.23971 0.0
H2111 H 0.79685 0.94225 0.2431 0.0
H2112 H 0.75151 0.97757 0.29597 0.0
C2113 C 0.74376 0.06362 0.27168 0.0
C2114 C 0.77187 0.0129 0.23951 0.0
C2115 C 0.74206 0.08859 0.27174 0.0
C2116 C 0.77742 0.90915 0.24713 0.0
C2117 C 0.78019 0.93407 0.24892 0.0
C2118 C 0.75723 0.98722 0.28009 0.0
C2119 C 0.76295 0.05212 0.2601 0.0
C2120 C 0.7645 0.02546 0.26014 0.0
C2121 C 0.76158 0.94827 0.25814 0.0
C2122 C 0.76394 0.97475 0.25926 0.0
H2123 H 0.79208 0.10185 0.23916 0.0
H2124 H 0.79537 0.05804 0.23938 0.0
H2125 H 0.75242 0.02133 0.29697 0.0
H2126 H 0.7206 0.90418 0.26923 0.0
H2127 H 0.72554 0.94768 0.27266 0.0
C2128 C 0.8346 0.98534 0.99737 0.0
C2129 C 0.84928 0.00519 0.00294 0.0
C2130 C 0.8097 0.98715 0.99848 0.0
C2131 C 0.75989 0.02979 0.99649 0.0
H2132 H 0.72479 0.97805 0.0273 0.0
C2133 C 0.6571 0.01542 0.98752 0.0
C2134 C 0.64469 0.00811 0.00824 0.0
C2135 C 0.68212 0.01738 0.98771 0.0
C2136 C 0.73433 0.99275 0.01882 0.0
H2137 H 0.84917 0.04263 0.01381 0.0
H2138 H 0.80546 0.04583 0.01544 0.0
H2139 H 0.76843 0.97691 0.0261 0.0
H2140 H 0.64874 0.99848 0.04577 0.0
H2141 H 0.69232 0.00166 0.04601 0.0
H2142 H 0.72562 0.04554 0.98912 0.0
C2143 C 0.81339 0.0289 0.01018 0.0
C2144 C 0.7593 0.99197 0.01793 0.0
C2145 C 0.83839 0.02706 0.00922 0.0
C2146 C 0.65778 0.00362 0.02936 0.0
C2147 C 0.68274 0.00549 0.02952 0.0
C2148 C 0.73481 0.03048 0.99721 0.0
C2149 C 0.79882 0.00889 0.00501 0.0
C2150 C 0.77234 0.01039 0.00663 0.0
C2151 C 0.6952 0.01201 0.00861 0.0
C2152 C 0.72179 0.01191 0.00834 0.0
H2153 H 0.84233 0.9684 0.99188 0.0
H2154 H 0.79891 0.97155 0.99395 0.0
H2155 H 0.7695 0.04416 0.98755 0.0
H2156 H 0.64757 0.01882 0.97091 0.0
H2157 H 0.69127 0.02224 0.97127 0.0
C2158 C 0.26443 0.59151 0.73455 0.0
C2159 C 0.26987 0.60414 0.75579 0.0
C2160 C 0.26683 0.56655 0.73353 0.0
C2161 C 0.26481 0.51385 0.77226 0.0
H2162 H 0.29118 0.48055 0.71719 0.0
C2163 C 0.26804 0.41034 0.76828 0.0
C2164 C 0.26205 0.39961 0.74618 0.0
C2165 C 0.27203 0.43511 0.76986 0.0
C2166 C 0.28355 0.48956 0.73261 0.0
H2167 H 0.28334 0.60043 0.7922 0.0
H2168 H 0.28705 0.55682 0.7905 0.0
H2169 H 0.29275 0.52435 0.71888 0.0
H2170 H 0.25645 0.40654 0.70823 0.0
H2171 H 0.26239 0.44967 0.71116 0.0
H2172 H 0.25478 0.4793 0.78567 0.0
C2173 C 0.28071 0.56629 0.77475 0.0
C2174 C 0.28454 0.51463 0.73359 0.0
C2175 C 0.2785 0.59125 0.77572 0.0
C2176 C 0.26061 0.41421 0.72564 0.0
C2177 C 0.26441 0.43896 0.72725 0.0
C2178 C 0.2636 0.4888 0.77119 0.0
C2179 C 0.27457 0.55365 0.75376 0.0
C2180 C 0.27499 0.52703 0.75333 0.0
C2181 C 0.26999 0.44978 0.7494 0.0
C2182 C 0.27273 0.47633 0.75124 0.0
H2183 H 0.25742 0.60076 0.71897 0.0
H2184 H 0.26173 0.55725 0.71719 0.0
H2185 H 0.25701 0.52294 0.78756 0.0
H2186 H 0.26913 0.39971 0.78451 0.0
H2187 H 0.27662 0.44276 0.78716 0.0
C2188 C 0.16092 0.48783 0.48419 0.0
C2189 C 0.14727 0.50514 0.49636 0.0
C2190 C 0.18584 0.48974 0.48333 0.0
C2191 C 0.23658 0.53172 0.49014 0.0
H2192 H 0.27223 0.47336 0.50248 0.0
C2193 C 0.34035 0.52919 0.50068 0.0
C2194 C 0.35201 0.50987 0.48943 0.0
C2195 C 0.31528 0.52988 0.50178 0.0
C2196 C 0.26255 0.48977 0.49876 0.0
H2197 H 0.1491 0.53835 0.51673 0.0
H2198 H 0.19278 0.54176 0.51505 0.0
H2199 H 0.22862 0.47242 0.50344 0.0
H2200 H 0.34649 0.47611 0.47065 0.0
H2201 H 0.30301 0.4776 0.47208 0.0
H2202 H 0.27067 0.549 0.4853 0.0
C2203 C 0.18409 0.52677 0.50611 0.0
C2204 C 0.23757 0.48923 0.49931 0.0
C2205 C 0.15909 0.52483 0.50703 0.0
C2206 C 0.3381 0.49142 0.47916 0.0
C2207 C 0.31315 0.4921 0.48027 0.0
C2208 C 0.26166 0.53225 0.48953 0.0
C2209 C 0.19772 0.50904 0.49456 0.0
C2210 C 0.2243 0.51011 0.49473 0.0
C2211 C 0.30144 0.51119 0.49178 0.0
C2212 C 0.27489 0.51119 0.49355 0.0
H2213 H 0.15233 0.47274 0.47533 0.0
H2214 H 0.19585 0.47606 0.47387 0.0
H2215 H 0.22679 0.54807 0.48643 0.0
H2216 H 0.35057 0.54378 0.5086 0.0
H2217 H 0.30676 0.54478 0.51087 0.0
C2218 C 0.72747 0.73735 0.90904 0.0
C2219 C 0.74862 0.73217 0.89644 0.0
C2220 C 0.72674 0.73529 0.93403 0.0
C2221 C 0.76694 0.73614 0.9866 0.0
H2222 H 0.71003 0.71504 0.02061 0.0
C2223 C 0.76355 0.72933 0.0901 0.0
C2224 C 0.74292 0.73869 0.10109 0.0
C2225 C 0.76445 0.72632 0.06519 0.0
C2226 C 0.726 0.7211 0.01134 0.0
H2227 H 0.78516 0.71952 0.8999 0.0
H2228 H 0.78383 0.71562 0.94352 0.0
H2229 H 0.71105 0.7129 0.97685 0.0
H2230 H 0.70722 0.75258 0.09447 0.0
H2231 H 0.70878 0.74722 0.0511 0.0
H2232 H 0.78179 0.74454 0.02108 0.0
C2233 C 0.76798 0.72184 0.93418 0.0
C2234 C 0.72659 0.71989 0.98629 0.0
C2235 C 0.76874 0.72401 0.90921 0.0
C2236 C 0.72322 0.7449 0.08663 0.0
C2237 C 0.72409 0.74183 0.06177 0.0
C2238 C 0.76638 0.73727 0.01164 0.0
C2239 C 0.74712 0.72788 0.94693 0.0
C2240 C 0.74697 0.72764 0.97361 0.0
C2241 C 0.74473 0.73256 0.05077 0.0
C2242 C 0.74581 0.73002 0.02427 0.0
H2243 H 0.71177 0.74393 0.89969 0.0
H2244 H 0.71048 0.74039 0.9433 0.0
H2245 H 0.78277 0.74265 0.9774 0.0
H2246 H 0.77891 0.72408 0.10077 0.0
H2247 H 0.7805 0.71889 0.05724 0.0
C2248 C 0.48423 0.4832 0.33492 0.0
C2249 C 0.50447 0.4898 0.34855 0.0
C2250 C 0.48527 0.48271 0.30992 0.0
C2251 C 0.52619 0.47861 0.25855 0.0
H2252 H 0.47336 0.50794 0.22419 0.0
C2253 C 0.52549 0.49351 0.15518 0.0
C2254 C 0.50336 0.49068 0.14342 0.0
C2255 C 0.52683 0.49223 0.18025 0.0
C2256 C 0.4881 0.49936 0.23346 0.0
H2257 H 0.54182 0.50066 0.34653 0.0
H2258 H 0.54366 0.49959 0.30264 0.0
H2259 H 0.47355 0.50814 0.26783 0.0
H2260 H 0.46562 0.48275 0.14832 0.0
H2261 H 0.46797 0.47998 0.19189 0.0
H2262 H 0.54061 0.46964 0.22404 0.0
C2263 C 0.52703 0.49474 0.31146 0.0
C2264 C 0.48823 0.49956 0.25848 0.0
C2265 C 0.52597 0.49535 0.33656 0.0
C2266 C 0.48282 0.48546 0.15701 0.0
C2267 C 0.48418 0.48397 0.18195 0.0
C2268 C 0.526 0.47829 0.23341 0.0
C2269 C 0.5066 0.48867 0.29791 0.0
C2270 C 0.50715 0.48902 0.2713 0.0
C2271 C 0.50607 0.48792 0.19393 0.0
C2272 C 0.50682 0.48848 0.2206 0.0
H2273 H 0.46757 0.47823 0.34358 0.0
H2274 H 0.46937 0.47751 0.29995 0.0
H2275 H 0.54093 0.47022 0.268 0.0
H2276 H 0.54156 0.49766 0.14507 0.0
H2277 H 0.54394 0.49548 0.18892 0.0
C2278 C 0.73125 0.28252 0.40795 0.0
C2279 C 0.74939 0.27076 0.39511 0.0
C2280 C 0.73257 0.28446 0.43294 0.0
C2281 C 0.77441 0.27706 0.48476 0.0
H2282 H 0.71559 0.26682 0.52045 0.0
C2283 C 0.77233 0.248 0.58391 0.0
C2284 C 0.75692 0.26064 0.59937 0.0
C2285 C 0.77155 0.25178 0.55916 0.0
C2286 C 0.73209 0.26998 0.5107 0.0
H2287 H 0.78316 0.25194 0.39818 0.0
H2288 H 0.78525 0.25472 0.44173 0.0
H2289 H 0.71419 0.26916 0.47675 0.0
H2290 H 0.72867 0.28734 0.60067 0.0
H2291 H 0.72684 0.29327 0.55726 0.0
H2292 H 0.79234 0.27682 0.51883 0.0
C2293 C 0.7703 0.26307 0.43261 0.0
C2294 C 0.73133 0.27144 0.48567 0.0
C2295 C 0.76909 0.26139 0.40763 0.0
C2296 C 0.74054 0.277 0.58935 0.0
C2297 C 0.73956 0.28053 0.56451 0.0
C2298 C 0.77519 0.27529 0.50976 0.0
C2299 C 0.75193 0.27442 0.44563 0.0
C2300 C 0.75252 0.27471 0.47235 0.0
C2301 C 0.75514 0.26803 0.54923 0.0
C2302 C 0.75408 0.27147 0.52292 0.0
H2303 H 0.71598 0.29011 0.39866 0.0
H2304 H 0.71834 0.29372 0.44232 0.0
H2305 H 0.79102 0.28011 0.47517 0.0
H2306 H 0.7848 0.23486 0.59086 0.0
H2307 H 0.7835 0.24163 0.54771 0.0
C2308 C 0.9699 0.5023 0.65701 0.0
C2309 C 0.98811 0.4891 0.64574 0.0
C2310 C 0.96773 0.50218 0.68204 0.0
C2311 C 0.98688 0.46783 0.73597 0.0
H2312 H 0.97219 0.52676 0.76998 0.0
C2313 C 0.00771 0.48276 0.83608 0.0
C2314 C 0.99005 0.49371 0.85024 0.0
C2315 C 0.00471 0.48083 0.81127 0.0
C2316 C 0.97598 0.5101 0.76069 0.0
H2317 H 0.01881 0.46613 0.65179 0.0
H2318 H 0.01538 0.46626 0.69529 0.0
H2319 H 0.97244 0.5265 0.72614 0.0
H2320 H 0.95533 0.51101 0.84975 0.0
H2321 H 0.95022 0.50794 0.80609 0.0
H2322 H 0.99129 0.45172 0.77059 0.0
C2323 C 0.00226 0.4761 0.68491 0.0
C2324 C 0.97609 0.50992 0.73558 0.0
C2325 C 0.0043 0.47609 0.65996 0.0
C2326 C 0.96914 0.50239 0.8392 0.0
C2327 C 0.9663 0.50078 0.81428 0.0
C2328 C 0.987 0.46809 0.76103 0.0
C2329 C 0.98386 0.489 0.69628 0.0
C2330 C 0.98192 0.48886 0.72292 0.0
C2331 C 0.98413 0.49008 0.8001 0.0
C2332 C 0.98189 0.4893 0.77362 0.0
H2333 H 0.95708 0.51235 0.64644 0.0
H2334 H 0.95323 0.51213 0.6902 0.0
H2335 H 0.99088 0.45115 0.72682 0.0
H2336 H 0.02392 0.4758 0.84421 0.0
H2337 H 0.01882 0.47267 0.80073 0.0
C2338 C 0.8389 0.98477 0.51772 0.0
C2339 C 0.85299 0.98196 0.497 0.0
C2340 C 0.81417 0.98098 0.51689 0.0
C2341 C 0.76353 0.98107 0.47459 0.0
H2342 H 0.72912 0.95309 0.52826 0.0
C2343 C 0.66074 0.97089 0.47345 0.0
C2344 C 0.64884 0.97843 0.49435 0.0
C2345 C 0.68558 0.96779 0.47344 0.0
C2346 C 0.73848 0.96104 0.51319 0.0
H2347 H 0.85214 0.97239 0.45924 0.0
H2348 H 0.8089 0.96529 0.45789 0.0
H2349 H 0.77289 0.9538 0.52859 0.0
H2350 H 0.65359 0.98807 0.5318 0.0
H2351 H 0.69698 0.98272 0.5318 0.0
H2352 H 0.72917 0.98869 0.45937 0.0
C2353 C 0.81703 0.97077 0.47472 0.0
C2354 C 0.76354 0.96145 0.51337 0.0
C2355 C 0.84183 0.97459 0.47555 0.0
C2356 C 0.66222 0.98201 0.51548 0.0
C2357 C 0.68707 0.97893 0.51547 0.0
C2358 C 0.73849 0.98062 0.47439 0.0
C2359 C 0.80289 0.97418 0.49533 0.0
C2360 C 0.77635 0.9718 0.49423 0.0
C2361 C 0.69908 0.97215 0.49435 0.0
C2362 C 0.72567 0.9709 0.49384 0.0
H2363 H 0.84698 0.99007 0.53463 0.0
H2364 H 0.80382 0.98403 0.53303 0.0
H2365 H 0.77281 0.9895 0.45973 0.0
H2366 H 0.65086 0.96757 0.457 0.0
H2367 H 0.69425 0.96215 0.457 0.0
loop_
_geom_bond_atom_site_label_1
_geom_bond_atom_site_label_2
_geom_bond_distance
_geom_bond_site_symmetry_2
_ccdc_geom_bond_type
Li0 N17 1.990 . S
Li0 O60 1.956 . S
Li0 O61 1.970 . S
Li0 O62 1.961 . S
Li1 N25 1.990 . S
Li1 O60 1.970 . S
Li1 O61 1.956 . S
Li1 O63 1.961 . S
Li2 N47 1.990 . S
Li2 O60 1.961 . S
Li2 O62 1.956 . S
Li2 O63 1.970 . S
Li3 N53 1.990 . S
Li3 O61 1.961 . S
Li3 O62 1.970 . S
Li3 O63 1.956 . S
C4 C6 1.348 . S
C4 C7 1.356 . S
C4 O60 1.325 . S
N5 C8 1.314 . S
N5 C9 1.279 . S
C6 C4 1.348 . S
C6 C8 1.353 . S
C6 H64 0.929 . S
C7 C4 1.356 . S
C7 C9 1.358 . S
C7 H65 0.930 . S
C8 N5 1.314 . S
C8 C6 1.353 . S
C8 H66 0.930 . S
C9 N5 1.279 . S
C9 C7 1.358 . S
C9 H67 0.930 . S
C10 C13 1.348 . S
C10 C14 1.356 . S
C10 O61 1.325 . S
C11 N12 1.279 . S
C11 C14 1.358 . S
C11 H68 0.930 . S
N12 C11 1.279 . S
N12 C15 1.314 . S
C13 C10 1.348 . S
C13 C15 1.353 . S
C13 H69 0.929 . S
C14 C10 1.356 . S
C14 C11 1.358 . S
C14 H70 0.930 . S
C15 N12 1.314 . S
C15 C13 1.353 . S
C15 H71 0.930 . S
C16 N17 1.314 . S
C16 C21 1.353 . S
C16 H22 0.930 . S
N17 Li0 1.990 . S
N17 C16 1.314 . S
N17 C19 1.279 . S
C18 C19 1.358 . S
C18 C20 1.356 . S
C18 H72 0.930 . S
C19 N17 1.279 . S
C19 C18 1.358 . S
C19 H23 0.930 . S
C20 C18 1.356 . S
C20 C21 1.348 . S
C21 C16 1.353 . S
C21 C20 1.348 . S
C21 H73 0.929 . S
H22 C16 0.930 . S
H23 C19 0.930 . S
C24 N25 1.314 . S
C24 C26 1.353 . S
C24 H30 0.930 . S
N25 Li1 1.990 . S
N25 C24 1.314 . S
N25 C28 1.279 . S
C26 C24 1.353 . S
C26 C29 1.348 . S
C26 H74 0.929 . S
C27 C28 1.358 . S
C27 C29 1.356 . S
C27 H75 0.930 . S
C28 N25 1.279 . S
C28 C27 1.358 . S
C28 H31 0.930 . S
C29 C26 1.348 . S
C29 C27 1.356 . S
H30 C24 0.930 . S
H31 C28 0.930 . S
C32 C34 1.348 . S
C32 C35 1.356 . S
C32 O62 1.325 . S
N33 C36 1.314 . S
N33 C37 1.279 . S
C34 C32 1.348 . S
C34 C36 1.353 . S
C34 H76 0.929 . S
C35 C32 1.356 . S
C35 C37 1.358 . S
C35 H77 0.930 . S
C36 N33 1.314 . S
C36 C34 1.353 . S
C36 H78 0.930 . S
C37 N33 1.279 . S
C37 C35 1.358 . S
C37 H79 0.930 . S
C38 C39 1.348 . S
C38 C40 1.356 . S
C38 O63 1.325 . S
C39 C38 1.348 . S
C39 C41 1.353 . S
C39 H80 0.929 . S
C40 C38 1.356 . S
C40 C42 1.358 . S
C40 H81 0.930 . S
C41 C39 1.353 . S
C41 N43 1.314 . S
C41 H82 0.930 . S
C42 C40 1.358 . S
C42 N43 1.279 . S
C42 H83 0.930 . S
N43 C41 1.314 . S
N43 C42 1.279 . S
C44 C46 1.353 . S
C44 N47 1.314 . S
C44 H50 0.930 . S
C45 N47 1.279 . S
C45 C48 1.358 . S
C45 H51 0.930 . S
C46 C44 1.353 . S
C46 C49 1.348 . S
C46 H84 0.929 . S
N47 Li2 1.990 . S
N47 C44 1.314 . S
N47 C45 1.279 . S
C48 C45 1.358 . S
C48 C49 1.356 . S
C48 H85 0.930 . S
C49 C46 1.348 . S
C49 C48 1.356 . S
H50 C44 0.930 . S
H51 C45 0.930 . S
C52 N53 1.314 . S
C52 C54 1.353 . S
C52 H58 0.930 . S
N53 Li3 1.990 . S
N53 C52 1.314 . S
N53 C56 1.279 . S
C54 C52 1.353 . S
C54 C57 1.348 . S
C54 H86 0.929 . S
C55 C56 1.358 . S
C55 C57 1.356 . S
C55 H87 0.930 . S
C56 N53 1.279 . S
C56 C55 1.358 . S
C56 H59 0.930 . S
C57 C54 1.348 . S
C57 C55 1.356 . S
H58 C52 0.930 . S
H59 C56 0.930 . S
O60 Li0 1.956 . S
O60 Li1 1.970 . S
O60 Li2 1.961 . S
O60 C4 1.325 . S
O61 Li0 1.970 . S
O61 Li1 1.956 . S
O61 Li3 1.961 . S
O61 C10 1.325 . S
O62 Li0 1.961 . S
O62 Li2 1.956 . S
O62 Li3 1.970 . S
O62 C32 1.325 . S
O63 Li1 1.961 . S
O63 Li2 1.970 . S
O63 Li3 1.956 . S
O63 C38 1.325 . S
H64 C6 0.929 . S
H65 C7 0.930 . S
H66 C8 0.930 . S
H67 C9 0.930 . S
H68 C11 0.930 . S
H69 C13 0.929 . S
H70 C14 0.930 . S
H71 C15 0.930 . S
H72 C18 0.930 . S
H73 C21 0.929 . S
H74 C26 0.929 . S
H75 C27 0.930 . S
H76 C34 0.929 . S
H77 C35 0.930 . S
H78 C36 0.930 . S
H79 C37 0.930 . S
H80 C39 0.929 . S
H81 C40 0.930 . S
H82 C41 0.930 . S
H83 C42 0.930 . S
H84 C46 0.929 . S
H85 C48 0.930 . S
H86 C54 0.929 . S
H87 C55 0.930 . S
Li88 N105 1.990 . S
Li88 O148 1.956 . S
Li88 O149 1.970 . S
Li88 O150 1.961 1_655 S
Li89 N113 1.990 . S
Li89 O148 1.970 . S
Li89 O149 1.956 . S
Li89 O151 1.961 1_545 S
Li90 N135 1.990 . S
Li90 O148 1.961 . S
Li90 O150 1.956 1_655 S
Li90 O151 1.970 1_545 S
Li91 N141 1.990 1_645 S
Li91 O149 1.961 . S
Li91 O150 1.970 1_655 S
Li91 O151 1.956 1_545 S
C92 C94 1.348 . S
C92 C95 1.356 . S
C92 O148 1.325 . S
N93 C96 1.314 . S
N93 C97 1.279 . S
C94 C92 1.348 . S
C94 C96 1.353 . S
C94 H152 0.929 . S
C95 C92 1.356 . S
C95 C97 1.358 . S
C95 H153 0.930 . S
C96 N93 1.314 . S
C96 C94 1.353 . S
C96 H154 0.930 . S
C97 N93 1.279 . S
C97 C95 1.358 . S
C97 H155 0.930 . S
C98 C101 1.348 . S
C98 C102 1.356 . S
C98 O149 1.325 . S
C99 N100 1.279 . S
C99 C102 1.358 . S
C99 H156 0.930 . S
N100 C99 1.279 . S
N100 C103 1.314 . S
C101 C98 1.348 . S
C101 C103 1.353 . S
C101 H157 0.929 . S
C102 C98 1.356 . S
C102 C99 1.358 . S
C102 H158 0.973 . S
C103 N100 1.314 . S
C103 C101 1.353 . S
C103 H159 0.930 . S
C104 N105 1.314 1_455 S
C104 C109 1.353 . S
C104 H110 0.930 . S
N105 Li88 1.990 . S
N105 C104 1.314 1_655 S
N105 C107 1.279 . S
C106 C107 1.358 . S
C106 C108 1.356 1_655 S
C106 H160 0.930 . S
C107 N105 1.279 . S
C107 C106 1.358 . S
C107 H111 0.930 . S
C108 C106 1.356 1_455 S
C108 C109 1.348 . S
C109 C104 1.353 . S
C109 C108 1.348 . S
C109 H161 0.929 . S
H110 C104 0.930 . S
H111 C107 0.930 . S
C112 N113 1.314 1_565 S
C112 C114 1.353 . S
C112 H118 0.930 . S
N113 Li89 1.990 . S
N113 C112 1.314 1_545 S
N113 C116 1.279 . S
C114 C112 1.353 . S
C114 C117 1.348 1_565 S
C114 H162 0.929 . S
C115 C116 1.358 . S
C115 C117 1.356 . S
C115 H163 0.930 . S
C116 N113 1.279 . S
C116 C115 1.358 . S
C116 H119 0.930 . S
C117 C114 1.348 1_545 S
C117 C115 1.356 . S
H118 C112 0.930 . S
H119 C116 0.930 . S
C120 C122 1.348 . S
C120 C123 1.356 . S
C120 O150 1.325 . S
N121 C124 1.314 . S
N121 C125 1.279 . S
C122 C120 1.348 . S
C122 C124 1.353 . S
C122 H164 0.892 1_545 S
C123 C120 1.356 . S
C123 C125 1.358 . S
C123 H165 0.930 . S
C124 N121 1.314 . S
C124 C122 1.353 . S
C124 H166 0.930 . S
C125 N121 1.279 . S
C125 C123 1.358 . S
C125 H167 0.930 . S
C126 C127 1.348 . S
C126 C128 1.356 . S
C126 O151 1.325 . S
C127 C126 1.348 . S
C127 C129 1.353 . S
C127 H168 0.929 . S
C128 C126 1.356 . S
C128 C130 1.358 . S
C128 H169 0.930 . S
C129 C127 1.353 . S
C129 N131 1.314 . S
C129 H170 0.930 . S
C130 C128 1.358 . S
C130 N131 1.279 . S
C130 H171 0.930 . S
N131 C129 1.314 . S
N131 C130 1.279 . S
C132 C134 1.353 1_545 S
C132 N135 1.314 . S
C132 H138 0.930 . S
C133 N135 1.279 1_455 S
C133 C136 1.358 1_545 S
C133 H139 0.930 . S
C134 C132 1.353 1_565 S
C134 C137 1.348 . S
C134 H172 0.929 . S
N135 Li90 1.990 . S
N135 C132 1.314 . S
N135 C133 1.279 1_655 S
C136 C133 1.358 1_565 S
C136 C137 1.356 1_455 S
C136 H173 0.930 . S
C137 C134 1.348 . S
C137 C136 1.356 1_655 S
H138 C132 0.930 . S
H139 C133 0.930 . S
C140 N141 1.314 . S
C140 C142 1.353 . S
C140 H146 0.930 1_565 S
N141 Li91 1.990 1_465 S
N141 C140 1.314 . S
N141 C144 1.279 . S
C142 C140 1.353 . S
C142 C145 1.348 . S
C142 H174 0.929 . S
C143 C144 1.358 . S
C143 C145 1.356 . S
C143 H175 0.930 . S
C144 N141 1.279 . S
C144 C143 1.358 . S
C144 H147 0.930 . S
C145 C142 1.348 . S
C145 C143 1.356 . S
H146 C140 0.930 1_545 S
H147 C144 0.930 . S
O148 Li88 1.956 . S
O148 Li89 1.970 . S
O148 Li90 1.961 . S
O148 C92 1.325 . S
O149 Li88 1.970 . S
O149 Li89 1.956 . S
O149 Li91 1.961 . S
O149 C98 1.325 . S
O150 Li88 1.961 1_455 S
O150 Li90 1.956 1_455 S
O150 Li91 1.970 1_455 S
O150 C120 1.325 . S
O151 Li89 1.961 1_565 S
O151 Li90 1.970 1_565 S
O151 Li91 1.956 1_565 S
O151 C126 1.325 . S
H152 C94 0.929 . S
H153 C95 0.930 . S
H154 C96 0.930 . S
H155 C97 0.930 . S
H156 C99 0.930 . S
H157 C101 0.929 . S
H158 C102 0.973 . S
H159 C103 0.930 . S
H160 C106 0.930 . S
H161 C109 0.929 . S
H162 C114 0.929 . S
H163 C115 0.930 . S
H164 C122 0.892 1_565 S
H165 C123 0.930 . S
H166 C124 0.930 . S
H167 C125 0.930 . S
H168 C127 0.929 . S
H169 C128 0.930 . S
H170 C129 0.930 . S
H171 C130 0.930 . S
H172 C134 0.929 . S
H173 C136 0.930 . S
H174 C142 0.929 . S
H175 C143 0.930 . S
Li176 N193 1.990 . S
Li176 O236 1.956 . S
Li176 O237 1.970 . S
Li176 O238 1.961 . S
Li177 N201 1.990 . S
Li177 O236 1.970 . S
Li177 O237 1.956 . S
Li177 O239 1.961 . S
Li178 N223 1.990 . S
Li178 O236 1.961 . S
Li178 O238 1.956 . S
Li178 O239 1.970 . S
Li179 N229 1.990 . S
Li179 O237 1.961 . S
Li179 O238 1.970 . S
Li179 O239 1.956 . S
C180 C182 1.348 . S
C180 C183 1.356 . S
C180 O236 1.325 . S
N181 C184 1.314 . S
N181 C185 1.279 . S
C182 C180 1.348 . S
C182 C184 1.353 . S
C182 H240 0.929 . S
C183 C180 1.356 . S
C183 C185 1.358 . S
C183 H241 0.930 . S
C184 N181 1.314 . S
C184 C182 1.353 . S
C184 H242 0.930 . S
C185 N181 1.279 . S
C185 C183 1.358 . S
C185 H243 0.930 . S
C186 C189 1.348 . S
C186 C190 1.356 . S
C186 O237 1.325 . S
C187 N188 1.279 . S
C187 C190 1.358 . S
C187 H244 0.930 . S
N188 C187 1.279 . S
N188 C191 1.314 . S
C189 C186 1.348 . S
C189 C191 1.353 . S
C189 H245 0.929 . S
C190 C186 1.356 . S
C190 C187 1.358 . S
C190 H246 0.930 . S
C191 N188 1.314 . S
C191 C189 1.353 . S
C191 H247 0.930 . S
C192 N193 1.314 . S
C192 C197 1.353 . S
C192 H198 0.930 . S
N193 Li176 1.990 . S
N193 C192 1.314 . S
N193 C195 1.279 . S
C194 C195 1.358 . S
C194 C196 1.356 . S
C194 H248 0.930 . S
C195 N193 1.279 . S
C195 C194 1.358 . S
C195 H199 0.930 . S
C196 C194 1.356 . S
C196 C197 1.348 . S
C197 C192 1.353 . S
C197 C196 1.348 . S
C197 H249 0.929 . S
H198 C192 0.930 . S
H199 C195 0.930 . S
C200 N201 1.314 . S
C200 C202 1.353 . S
C200 H206 0.930 . S
N201 Li177 1.990 . S
N201 C200 1.314 . S
N201 C204 1.279 . S
C202 C200 1.353 . S
C202 C205 1.348 . S
C202 H250 0.929 . S
C203 C204 1.358 . S
C203 C205 1.356 . S
C203 H251 0.930 . S
C204 N201 1.279 . S
C204 C203 1.358 . S
C204 H207 0.930 . S
C205 C202 1.348 . S
C205 C203 1.356 . S
H206 C200 0.930 . S
H207 C204 0.930 . S
C208 C210 1.348 . S
C208 C211 1.356 . S
C208 O238 1.325 . S
N209 C212 1.314 . S
N209 C213 1.279 . S
C210 C208 1.348 . S
C210 C212 1.353 . S
C210 H252 0.929 . S
C211 C208 1.356 . S
C211 C213 1.358 . S
C211 H253 0.930 . S
C212 N209 1.314 . S
C212 C210 1.353 . S
C212 H254 0.930 . S
C213 N209 1.279 . S
C213 C211 1.358 . S
C213 H255 0.930 . S
C214 C215 1.348 . S
C214 C216 1.356 . S
C214 O239 1.325 . S
C215 C214 1.348 . S
C215 C217 1.353 . S
C215 H256 0.929 . S
C216 C214 1.356 . S
C216 C218 1.358 . S
C216 H257 0.930 . S
C217 C215 1.353 . S
C217 N219 1.314 . S
C217 H258 0.930 . S
C218 C216 1.358 . S
C218 N219 1.279 . S
C218 H259 0.930 . S
N219 C217 1.314 . S
N219 C218 1.279 . S
C220 C222 1.353 . S
C220 N223 1.314 . S
C220 H226 0.930 . S
C221 N223 1.279 . S
C221 C224 1.358 . S
C221 H227 0.930 . S
C222 C220 1.353 . S
C222 C225 1.348 . S
C222 H260 0.929 . S
N223 Li178 1.990 . S
N223 C220 1.314 . S
N223 C221 1.279 . S
C224 C221 1.358 . S
C224 C225 1.356 . S
C224 H261 0.930 . S
C225 C222 1.348 . S
C225 C224 1.356 . S
H226 C220 0.930 . S
H227 C221 0.930 . S
C228 N229 1.314 . S
C228 C230 1.353 . S
C228 H234 0.930 . S
N229 Li179 1.990 . S
N229 C228 1.314 . S
N229 C232 1.279 . S
C230 C228 1.353 . S
C230 C233 1.348 . S
C230 H262 0.929 . S
C231 C232 1.358 . S
C231 C233 1.356 . S
C231 H263 0.930 . S
C232 N229 1.279 . S
C232 C231 1.358 . S
C232 H235 0.930 . S
C233 C230 1.348 . S
C233 C231 1.356 . S
H234 C228 0.930 . S
H235 C232 0.930 . S
O236 Li176 1.956 . S
O236 Li177 1.970 . S
O236 Li178 1.961 . S
O236 C180 1.325 . S
O237 Li176 1.970 . S
O237 Li177 1.956 . S
O237 Li179 1.961 . S
O237 C186 1.325 . S
O238 Li176 1.961 . S
O238 Li178 1.956 . S
O238 Li179 1.970 . S
O238 C208 1.325 . S
O239 Li177 1.961 . S
O239 Li178 1.970 . S
O239 Li179 1.956 . S
O239 C214 1.325 . S
H240 C182 0.929 . S
H241 C183 0.930 . S
H242 C184 0.930 . S
H243 C185 0.930 . S
H244 C187 0.930 . S
H245 C189 0.929 . S
H246 C190 0.930 . S
H247 C191 0.930 . S
H248 C194 0.930 . S
H249 C197 0.929 . S
H250 C202 0.929 . S
H251 C203 0.930 . S
H252 C210 0.929 . S
H253 C211 0.930 . S
H254 C212 0.930 . S
H255 C213 0.930 . S
H256 C215 0.929 . S
H257 C216 0.930 . S
H258 C217 0.930 . S
H259 C218 0.930 . S
H260 C222 0.929 . S
H261 C224 0.930 . S
H262 C230 0.929 . S
H263 C231 0.930 . S
Li264 N281 1.990 . S
Li264 O324 1.956 . S
Li264 O325 1.970 . S
Li264 O326 1.961 1_565 S
Li265 N289 1.990 . S
Li265 O324 1.970 . S
Li265 O325 1.956 . S
Li265 O327 1.961 1_554 S
Li266 N311 1.990 . S
Li266 O324 1.961 . S
Li266 O326 1.956 1_565 S
Li266 O327 1.970 1_554 S
Li267 N317 1.990 1_564 S
Li267 O325 1.961 . S
Li267 O326 1.970 1_565 S
Li267 O327 1.956 1_554 S
C268 C270 1.348 . S
C268 C271 1.356 . S
C268 O324 1.325 . S
N269 C272 1.314 . S
N269 C273 1.279 . S
C270 C268 1.348 . S
C270 C272 1.353 . S
C270 H328 0.929 . S
C271 C268 1.356 . S
C271 C273 1.358 . S
C271 H329 0.930 . S
C272 N269 1.314 . S
C272 C270 1.353 . S
C272 H330 0.930 . S
C273 N269 1.279 . S
C273 C271 1.358 . S
C273 H331 0.930 . S
C274 C277 1.348 . S
C274 C278 1.356 . S
C274 O325 1.325 . S
C275 N276 1.279 . S
C275 C278 1.358 . S
C275 H332 0.930 . S
N276 C275 1.279 . S
N276 C279 1.314 . S
C277 C274 1.348 . S
C277 C279 1.353 . S
C277 H333 0.929 . S
C278 C274 1.356 . S
C278 C275 1.358 . S
C278 H334 0.926 . S
C279 N276 1.314 . S
C279 C277 1.353 . S
C279 H335 0.930 . S
C280 N281 1.314 1_545 S
C280 C285 1.353 . S
C280 H286 0.930 . S
N281 Li264 1.990 . S
N281 C280 1.314 1_565 S
N281 C283 1.279 . S
C282 C283 1.358 . S
C282 C284 1.356 1_565 S
C282 H336 0.930 . S
C283 N281 1.279 . S
C283 C282 1.358 . S
C283 H287 0.930 . S
C284 C282 1.356 1_545 S
C284 C285 1.348 . S
C285 C280 1.353 . S
C285 C284 1.348 . S
C285 H337 0.929 . S
H286 C280 0.930 . S
H287 C283 0.930 . S
C288 N289 1.314 1_556 S
C288 C290 1.353 . S
C288 H294 0.930 . S
N289 Li265 1.990 . S
N289 C288 1.314 1_554 S
N289 C292 1.279 . S
C290 C288 1.353 . S
C290 C293 1.348 1_556 S
C290 H338 0.929 . S
C291 C292 1.358 . S
C291 C293 1.356 . S
C291 H339 0.930 . S
C292 N289 1.279 . S
C292 C291 1.358 . S
C292 H295 0.930 . S
C293 C290 1.348 1_554 S
C293 C291 1.356 . S
H294 C288 0.930 . S
H295 C292 0.930 . S
C296 C298 1.348 . S
C296 C299 1.356 . S
C296 O326 1.325 . S
N297 C300 1.314 . S
N297 C301 1.279 . S
C298 C296 1.348 . S
C298 C300 1.353 . S
C298 H340 0.929 1_554 S
C299 C296 1.356 . S
C299 C301 1.358 . S
C299 H341 0.930 . S
C300 N297 1.314 . S
C300 C298 1.353 . S
C300 H342 0.930 . S
C301 N297 1.279 . S
C301 C299 1.358 . S
C301 H343 0.930 . S
C302 C303 1.348 . S
C302 C304 1.356 . S
C302 O327 1.325 . S
C303 C302 1.348 . S
C303 C305 1.353 . S
C303 H344 0.929 . S
C304 C302 1.356 . S
C304 C306 1.358 . S
C304 H345 0.930 . S
C305 C303 1.353 . S
C305 N307 1.314 . S
C305 H346 0.930 . S
C306 C304 1.358 . S
C306 N307 1.279 . S
C306 H347 0.930 . S
N307 C305 1.314 . S
N307 C306 1.279 . S
C308 C310 1.353 1_554 S
C308 N311 1.314 . S
C308 H314 0.930 . S
C309 N311 1.279 1_545 S
C309 C312 1.358 1_554 S
C309 H315 0.930 . S
C310 C308 1.353 1_556 S
C310 C313 1.348 . S
C310 H348 0.929 . S
N311 Li266 1.990 . S
N311 C308 1.314 . S
N311 C309 1.279 1_565 S
C312 C309 1.358 1_556 S
C312 C313 1.356 1_545 S
C312 H349 0.930 . S
C313 C310 1.348 . S
C313 C312 1.356 1_565 S
H314 C308 0.930 . S
H315 C309 0.930 . S
C316 N317 1.314 . S
C316 C318 1.353 . S
C316 H322 0.930 1_556 S
N317 Li267 1.990 1_546 S
N317 C316 1.314 . S
N317 C320 1.279 . S
C318 C316 1.353 . S
C318 C321 1.348 . S
C318 H350 0.929 . S
C319 C320 1.358 . S
C319 C321 1.356 . S
C319 H351 0.930 . S
C320 N317 1.279 . S
C320 C319 1.358 . S
C320 H323 0.930 . S
C321 C318 1.348 . S
C321 C319 1.356 . S
H322 C316 0.930 1_554 S
H323 C320 0.930 . S
O324 Li264 1.956 . S
O324 Li265 1.970 . S
O324 Li266 1.961 . S
O324 C268 1.325 . S
O325 Li264 1.970 . S
O325 Li265 1.956 . S
O325 Li267 1.961 . S
O325 C274 1.325 . S
O326 Li264 1.961 1_545 S
O326 Li266 1.956 1_545 S
O326 Li267 1.970 1_545 S
O326 C296 1.325 . S
O327 Li265 1.961 1_556 S
O327 Li266 1.970 1_556 S
O327 Li267 1.956 1_556 S
O327 C302 1.325 . S
H328 C270 0.929 . S
H329 C271 0.930 . S
H330 C272 0.930 . S
H331 C273 0.930 . S
H332 C275 0.930 . S
H333 C277 0.929 . S
H334 C278 0.926 . S
H335 C279 0.930 . S
H336 C282 0.930 . S
H337 C285 0.929 . S
H338 C290 0.929 . S
H339 C291 0.930 . S
H340 C298 0.929 1_556 S
H341 C299 0.930 . S
H342 C300 0.930 . S
H343 C301 0.930 . S
H344 C303 0.929 . S
H345 C304 0.930 . S
H346 C305 0.930 . S
H347 C306 0.930 . S
H348 C310 0.929 . S
H349 C312 0.930 . S
H350 C318 0.929 . S
H351 C319 0.930 . S
Li352 N369 1.990 . S
Li352 O412 1.956 . S
Li352 O413 1.970 . S
Li352 O414 1.961 . S
Li353 N377 1.990 . S
Li353 O412 1.970 . S
Li353 O413 1.956 . S
Li353 O415 1.961 . S
Li354 N399 1.990 . S
Li354 O412 1.961 . S
Li354 O414 1.956 . S
Li354 O415 1.970 . S
Li355 N405 1.990 . S
Li355 O413 1.961 . S
Li355 O414 1.970 . S
Li355 O415 1.956 . S
C356 C358 1.348 . S
C356 C359 1.356 . S
C356 O412 1.325 . S
N357 C360 1.314 . S
N357 C361 1.279 . S
C358 C356 1.348 . S
C358 C360 1.353 . S
C358 H416 0.929 . S
C359 C356 1.356 . S
C359 C361 1.358 . S
C359 H417 0.930 . S
C360 N357 1.314 . S
C360 C358 1.353 . S
C360 H418 0.930 . S
C361 N357 1.279 . S
C361 C359 1.358 . S
C361 H419 0.930 . S
C362 C365 1.348 . S
C362 C366 1.356 . S
C362 O413 1.325 . S
C363 N364 1.279 . S
C363 C366 1.358 . S
C363 H420 0.930 . S
N364 C363 1.279 . S
N364 C367 1.314 . S
C365 C362 1.348 . S
C365 C367 1.353 . S
C365 H421 0.929 . S
C366 C362 1.356 . S
C366 C363 1.358 . S
C366 H422 0.930 . S
C367 N364 1.314 . S
C367 C365 1.353 . S
C367 H423 0.930 . S
C368 N369 1.314 . S
C368 C373 1.353 . S
C368 H374 0.930 . S
N369 Li352 1.990 . S
N369 C368 1.314 . S
N369 C371 1.279 . S
C370 C371 1.358 . S
C370 C372 1.356 . S
C370 H424 0.930 . S
C371 N369 1.279 . S
C371 C370 1.358 . S
C371 H375 0.930 . S
C372 C370 1.356 . S
C372 C373 1.348 . S
C373 C368 1.353 . S
C373 C372 1.348 . S
C373 H425 0.929 . S
H374 C368 0.930 . S
H375 C371 0.930 . S
C376 N377 1.314 . S
C376 C378 1.353 . S
C376 H382 0.930 . S
N377 Li353 1.990 . S
N377 C376 1.314 . S
N377 C380 1.279 . S
C378 C376 1.353 . S
C378 C381 1.348 . S
C378 H426 0.929 . S
C379 C380 1.358 . S
C379 C381 1.356 . S
C379 H427 0.930 . S
C380 N377 1.279 . S
C380 C379 1.358 . S
C380 H383 0.930 . S
C381 C378 1.348 . S
C381 C379 1.356 . S
H382 C376 0.930 . S
H383 C380 0.930 . S
C384 C386 1.348 . S
C384 C387 1.356 . S
C384 O414 1.325 . S
N385 C388 1.314 . S
N385 C389 1.279 . S
C386 C384 1.348 . S
C386 C388 1.353 . S
C386 H428 0.929 . S
C387 C384 1.356 . S
C387 C389 1.358 . S
C387 H429 0.930 . S
C388 N385 1.314 . S
C388 C386 1.353 . S
C388 H430 0.930 . S
C389 N385 1.279 . S
C389 C387 1.358 . S
C389 H431 0.930 . S
C390 C391 1.348 . S
C390 C392 1.356 . S
C390 O415 1.325 . S
C391 C390 1.348 . S
C391 C393 1.353 . S
C391 H432 0.929 . S
C392 C390 1.356 . S
C392 C394 1.358 . S
C392 H433 0.930 . S
C393 C391 1.353 . S
C393 N395 1.314 . S
C393 H434 0.930 . S
C394 C392 1.358 . S
C394 N395 1.279 . S
C394 H435 0.930 . S
N395 C393 1.314 . S
N395 C394 1.279 . S
C396 C398 1.353 . S
C396 N399 1.314 . S
C396 H402 0.930 . S
C397 N399 1.279 . S
C397 C400 1.358 . S
C397 H403 0.930 . S
C398 C396 1.353 . S
C398 C401 1.348 . S
C398 H436 0.929 . S
N399 Li354 1.990 . S
N399 C396 1.314 . S
N399 C397 1.279 . S
C400 C397 1.358 . S
C400 C401 1.356 . S
C400 H437 0.930 . S
C401 C398 1.348 . S
C401 C400 1.356 . S
H402 C396 0.930 . S
H403 C397 0.930 . S
C404 N405 1.314 . S
C404 C406 1.353 . S
C404 H410 0.930 . S
N405 Li355 1.990 . S
N405 C404 1.314 . S
N405 C408 1.279 . S
C406 C404 1.353 . S
C406 C409 1.348 . S
C406 H438 0.929 . S
C407 C408 1.358 . S
C407 C409 1.356 . S
C407 H439 0.930 . S
C408 N405 1.279 . S
C408 C407 1.358 . S
C408 H411 0.930 . S
C409 C406 1.348 . S
C409 C407 1.356 . S
H410 C404 0.930 . S
H411 C408 0.930 . S
O412 Li352 1.956 . S
O412 Li353 1.970 . S
O412 Li354 1.961 . S
O412 C356 1.325 . S
O413 Li352 1.970 . S
O413 Li353 1.956 . S
O413 Li355 1.961 . S
O413 C362 1.325 . S
O414 Li352 1.961 . S
O414 Li354 1.956 . S
O414 Li355 1.970 . S
O414 C384 1.325 . S
O415 Li353 1.961 . S
O415 Li354 1.970 . S
O415 Li355 1.956 . S
O415 C390 1.325 . S
H416 C358 0.929 . S
H417 C359 0.930 . S
H418 C360 0.930 . S
H419 C361 0.930 . S
H420 C363 0.930 . S
H421 C365 0.929 . S
H422 C366 0.930 . S
H423 C367 0.930 . S
H424 C370 0.930 . S
H425 C373 0.929 . S
H426 C378 0.929 . S
H427 C379 0.930 . S
H428 C386 0.929 . S
H429 C387 0.930 . S
H430 C388 0.930 . S
H431 C389 0.930 . S
H432 C391 0.929 . S
H433 C392 0.930 . S
H434 C393 0.930 . S
H435 C394 0.930 . S
H436 C398 0.929 . S
H437 C400 0.930 . S
H438 C406 0.929 . S
H439 C407 0.930 . S
Li440 N457 1.990 . S
Li440 O500 1.956 . S
Li440 O501 1.970 . S
Li440 O502 1.961 1_545 S
Li441 N465 1.990 . S
Li441 O500 1.970 . S
Li441 O501 1.956 . S
Li441 O503 1.961 . S
Li442 N487 1.990 1_545 S
Li442 O500 1.961 . S
Li442 O502 1.956 1_545 S
Li442 O503 1.970 . S
Li443 N493 1.990 . S
Li443 O501 1.961 . S
Li443 O502 1.970 1_545 S
Li443 O503 1.956 . S
C444 C446 1.348 . S
C444 C447 1.356 . S
C444 O500 1.325 . S
N445 C448 1.314 . S
N445 C449 1.279 . S
C446 C444 1.348 . S
C446 C448 1.353 . S
C446 H504 0.929 . S
C447 C444 1.356 . S
C447 C449 1.358 . S
C447 H505 0.930 . S
C448 N445 1.314 . S
C448 C446 1.353 . S
C448 H506 0.930 . S
C449 N445 1.279 . S
C449 C447 1.358 . S
C449 H507 0.930 . S
C450 C453 1.348 . S
C450 C454 1.356 . S
C450 O501 1.325 . S
C451 N452 1.279 . S
C451 C454 1.358 . S
C451 H508 0.930 . S
N452 C451 1.279 . S
N452 C455 1.314 . S
C453 C450 1.348 . S
C453 C455 1.353 . S
C453 H509 0.929 . S
C454 C450 1.356 . S
C454 C451 1.358 . S
C454 H510 0.930 . S
C455 N452 1.314 . S
C455 C453 1.353 . S
C455 H511 0.930 . S
C456 N457 1.314 1_565 S
C456 C461 1.353 . S
C456 H462 0.930 . S
N457 Li440 1.990 . S
N457 C456 1.314 1_545 S
N457 C459 1.279 . S
C458 C459 1.358 . S
C458 C460 1.356 . S
C458 H512 0.930 . S
C459 N457 1.279 . S
C459 C458 1.358 . S
C459 H463 0.930 . S
C460 C458 1.356 . S
C460 C461 1.348 1_545 S
C461 C456 1.353 . S
C461 C460 1.348 1_565 S
C461 H513 0.929 . S
H462 C456 0.930 . S
H463 C459 0.930 . S
C464 N465 1.314 . S
C464 C466 1.353 . S
C464 H470 0.930 . S
N465 Li441 1.990 . S
N465 C464 1.314 . S
N465 C468 1.279 . S
C466 C464 1.353 . S
C466 C469 1.348 . S
C466 H514 0.929 . S
C467 C468 1.358 . S
C467 C469 1.356 . S
C467 H515 0.930 . S
C468 N465 1.279 . S
C468 C467 1.358 . S
C468 H471 0.930 . S
C469 C466 1.348 . S
C469 C467 1.356 . S
H470 C464 0.930 . S
H471 C468 0.930 . S
C472 C474 1.348 . S
C472 C475 1.356 . S
C472 O502 1.325 . S
N473 C476 1.314 . S
N473 C477 1.279 . S
C474 C472 1.348 . S
C474 C476 1.353 . S
C474 H516 0.929 . S
C475 C472 1.356 . S
C475 C477 1.358 . S
C475 H517 0.930 . S
C476 N473 1.314 . S
C476 C474 1.353 . S
C476 H518 0.930 . S
C477 N473 1.279 . S
C477 C475 1.358 . S
C477 H519 0.930 . S
C478 C479 1.348 . S
C478 C480 1.356 . S
C478 O503 1.325 . S
C479 C478 1.348 . S
C479 C481 1.353 . S
C479 H520 0.929 1_545 S
C480 C478 1.356 . S
C480 C482 1.358 . S
C480 H521 0.930 . S
C481 C479 1.353 . S
C481 N483 1.314 . S
C481 H522 0.930 . S
C482 C480 1.358 . S
C482 N483 1.279 . S
C482 H523 0.930 . S
N483 C481 1.314 . S
N483 C482 1.279 . S
C484 C486 1.353 . S
C484 N487 1.314 . S
C484 H490 0.930 1_565 S
C485 N487 1.279 . S
C485 C488 1.358 . S
C485 H491 0.930 . S
C486 C484 1.353 . S
C486 C489 1.348 . S
C486 H524 0.929 . S
N487 Li442 1.990 1_565 S
N487 C484 1.314 . S
N487 C485 1.279 . S
C488 C485 1.358 . S
C488 C489 1.356 . S
C488 H525 0.930 . S
C489 C486 1.348 . S
C489 C488 1.356 . S
H490 C484 0.930 1_545 S
H491 C485 0.930 . S
C492 N493 1.314 . S
C492 C494 1.353 1_545 S
C492 H498 0.930 . S
N493 Li443 1.990 . S
N493 C492 1.314 . S
N493 C496 1.279 . S
C494 C492 1.353 1_565 S
C494 C497 1.348 . S
C494 H526 0.929 . S
C495 C496 1.358 1_565 S
C495 C497 1.356 . S
C495 H527 0.930 . S
C496 N493 1.279 . S
C496 C495 1.358 1_545 S
C496 H499 0.930 . S
C497 C494 1.348 . S
C497 C495 1.356 . S
H498 C492 0.930 . S
H499 C496 0.930 . S
O500 Li440 1.956 . S
O500 Li441 1.970 . S
O500 Li442 1.961 . S
O500 C444 1.325 . S
O501 Li440 1.970 . S
O501 Li441 1.956 . S
O501 Li443 1.961 . S
O501 C450 1.325 . S
O502 Li440 1.961 1_565 S
O502 Li442 1.956 1_565 S
O502 Li443 1.970 1_565 S
O502 C472 1.325 . S
O503 Li441 1.961 . S
O503 Li442 1.970 . S
O503 Li443 1.956 . S
O503 C478 1.325 . S
H504 C446 0.929 . S
H505 C447 0.930 . S
H506 C448 0.930 . S
H507 C449 0.930 . S
H508 C451 0.930 . S
H509 C453 0.929 . S
H510 C454 0.930 . S
H511 C455 0.930 . S
H512 C458 0.930 . S
H513 C461 0.929 . S
H514 C466 0.929 . S
H515 C467 0.930 . S
H516 C474 0.929 . S
H517 C475 0.930 . S
H518 C476 0.930 . S
H519 C477 0.930 . S
H520 C479 0.929 1_565 S
H521 C480 0.930 . S
H522 C481 0.930 . S
H523 C482 0.930 . S
H524 C486 0.929 . S
H525 C488 0.930 . S
H526 C494 0.929 . S
H527 C495 0.930 . S
Li528 N545 1.990 . S
Li528 O588 1.956 . S
Li528 O589 1.970 . S
Li528 O590 1.961 . S
Li529 N553 1.990 . S
Li529 O588 1.970 . S
Li529 O589 1.956 . S
Li529 O591 1.961 . S
Li530 N575 1.990 . S
Li530 O588 1.961 . S
Li530 O590 1.956 . S
Li530 O591 1.970 . S
Li531 N581 1.990 . S
Li531 O589 1.961 . S
Li531 O590 1.970 . S
Li531 O591 1.956 . S
C532 C534 1.348 . S
C532 C535 1.356 . S
C532 O588 1.325 . S
N533 C536 1.314 . S
N533 C537 1.279 . S
C534 C532 1.348 . S
C534 C536 1.353 . S
C534 H592 0.929 . S
C535 C532 1.356 . S
C535 C537 1.358 . S
C535 H593 0.930 . S
C536 N533 1.314 . S
C536 C534 1.353 . S
C536 H594 0.930 . S
C537 N533 1.279 . S
C537 C535 1.358 . S
C537 H595 0.930 . S
C538 C541 1.348 . S
C538 C542 1.356 . S
C538 O589 1.325 . S
C539 N540 1.279 . S
C539 C542 1.358 . S
C539 H596 0.930 . S
N540 C539 1.279 . S
N540 C543 1.314 . S
C541 C538 1.348 . S
C541 C543 1.353 . S
C541 H597 0.929 . S
C542 C538 1.356 . S
C542 C539 1.358 . S
C542 H598 0.930 . S
C543 N540 1.314 . S
C543 C541 1.353 . S
C543 H599 0.930 . S
C544 N545 1.314 . S
C544 C549 1.353 . S
C544 H550 0.930 . S
N545 Li528 1.990 . S
N545 C544 1.314 . S
N545 C547 1.279 . S
C546 C547 1.358 . S
C546 C548 1.356 . S
C546 H600 0.930 . S
C547 N545 1.279 . S
C547 C546 1.358 . S
C547 H551 0.930 . S
C548 C546 1.356 . S
C548 C549 1.348 . S
C549 C544 1.353 . S
C549 C548 1.348 . S
C549 H601 0.929 . S
H550 C544 0.930 . S
H551 C547 0.930 . S
C552 N553 1.314 . S
C552 C554 1.353 . S
C552 H558 0.930 . S
N553 Li529 1.990 . S
N553 C552 1.314 . S
N553 C556 1.279 . S
C554 C552 1.353 . S
C554 C557 1.348 . S
C554 H602 0.929 . S
C555 C556 1.358 . S
C555 C557 1.356 . S
C555 H603 0.930 . S
C556 N553 1.279 . S
C556 C555 1.358 . S
C556 H559 0.930 . S
C557 C554 1.348 . S
C557 C555 1.356 . S
H558 C552 0.930 . S
H559 C556 0.930 . S
C560 C562 1.348 . S
C560 C563 1.356 . S
C560 O590 1.325 . S
N561 C564 1.314 . S
N561 C565 1.279 . S
C562 C560 1.348 . S
C562 C564 1.353 . S
C562 H604 0.929 . S
C563 C560 1.356 . S
C563 C565 1.358 . S
C563 H605 0.930 . S
C564 N561 1.314 . S
C564 C562 1.353 . S
C564 H606 0.930 . S
C565 N561 1.279 . S
C565 C563 1.358 . S
C565 H607 0.930 . S
C566 C567 1.348 . S
C566 C568 1.356 . S
C566 O591 1.325 . S
C567 C566 1.348 . S
C567 C569 1.353 . S
C567 H608 0.929 . S
C568 C566 1.356 . S
C568 C570 1.358 . S
C568 H609 0.930 . S
C569 C567 1.353 . S
C569 N571 1.314 . S
C569 H610 0.930 . S
C570 C568 1.358 . S
C570 N571 1.279 . S
C570 H611 0.930 . S
N571 C569 1.314 . S
N571 C570 1.279 . S
C572 C574 1.353 . S
C572 N575 1.314 . S
C572 H578 0.930 . S
C573 N575 1.279 . S
C573 C576 1.358 . S
C573 H579 0.930 . S
C574 C572 1.353 . S
C574 C577 1.348 . S
C574 H612 0.929 . S
N575 Li530 1.990 . S
N575 C572 1.314 . S
N575 C573 1.279 . S
C576 C573 1.358 . S
C576 C577 1.356 . S
C576 H613 0.930 . S
C577 C574 1.348 . S
C577 C576 1.356 . S
H578 C572 0.930 . S
H579 C573 0.930 . S
C580 N581 1.314 . S
C580 C582 1.353 . S
C580 H586 0.930 . S
N581 Li531 1.990 . S
N581 C580 1.314 . S
N581 C584 1.279 . S
C582 C580 1.353 . S
C582 C585 1.348 . S
C582 H614 0.929 . S
C583 C584 1.358 . S
C583 C585 1.356 . S
C583 H615 0.930 . S
C584 N581 1.279 . S
C584 C583 1.358 . S
C584 H587 0.930 . S
C585 C582 1.348 . S
C585 C583 1.356 . S
H586 C580 0.930 . S
H587 C584 0.930 . S
O588 Li528 1.956 . S
O588 Li529 1.970 . S
O588 Li530 1.961 . S
O588 C532 1.325 . S
O589 Li528 1.970 . S
O589 Li529 1.956 . S
O589 Li531 1.961 . S
O589 C538 1.325 . S
O590 Li528 1.961 . S
O590 Li530 1.956 . S
O590 Li531 1.970 . S
O590 C560 1.325 . S
O591 Li529 1.961 . S
O591 Li530 1.970 . S
O591 Li531 1.956 . S
O591 C566 1.325 . S
H592 C534 0.929 . S
H593 C535 0.930 . S
H594 C536 0.930 . S
H595 C537 0.930 . S
H596 C539 0.930 . S
H597 C541 0.929 . S
H598 C542 0.930 . S
H599 C543 0.930 . S
H600 C546 0.930 . S
H601 C549 0.929 . S
H602 C554 0.929 . S
H603 C555 0.930 . S
H604 C562 0.929 . S
H605 C563 0.930 . S
H606 C564 0.930 . S
H607 C565 0.930 . S
H608 C567 0.929 . S
H609 C568 0.930 . S
H610 C569 0.930 . S
H611 C570 0.930 . S
H612 C574 0.929 . S
H613 C576 0.930 . S
H614 C582 0.929 . S
H615 C583 0.930 . S
Li616 N633 1.990 . S
Li616 O676 1.956 1_655 S
Li616 O677 1.970 1_565 S
Li616 O678 1.961 . S
Li617 N641 1.990 1_666 S
Li617 O676 1.970 1_655 S
Li617 O677 1.956 1_565 S
Li617 O679 1.961 1_556 S
Li618 N663 1.990 . S
Li618 O676 1.961 1_655 S
Li618 O678 1.956 . S
Li618 O679 1.970 1_556 S
Li619 N669 1.990 . S
Li619 O677 1.961 1_565 S
Li619 O678 1.970 . S
Li619 O679 1.956 1_556 S
C620 C622 1.348 . S
C620 C623 1.356 . S
C620 O676 1.325 . S
N621 C624 1.314 . S
N621 C625 1.279 . S
C622 C620 1.348 . S
C622 C624 1.353 . S
C622 H680 0.898 1_565 S
C623 C620 1.356 . S
C623 C625 1.358 . S
C623 H681 0.930 . S
C624 N621 1.314 . S
C624 C622 1.353 . S
C624 H682 0.930 . S
C625 N621 1.279 . S
C625 C623 1.358 . S
C625 H683 0.930 . S
C626 C629 1.348 . S
C626 C630 1.356 . S
C626 O677 1.325 . S
C627 N628 1.279 . S
C627 C630 1.358 . S
C627 H684 0.930 . S
N628 C627 1.279 . S
N628 C631 1.314 . S
C629 C626 1.348 . S
C629 C631 1.353 . S
C629 H685 0.929 . S
C630 C626 1.356 . S
C630 C627 1.358 . S
C630 H686 0.930 1_556 S
C631 N628 1.314 . S
C631 C629 1.353 . S
C631 H687 0.930 . S
C632 N633 1.314 . S
C632 C637 1.353 1_565 S
C632 H638 0.930 . S
N633 Li616 1.990 . S
N633 C632 1.314 . S
N633 C635 1.279 1_655 S
C634 C635 1.358 1_545 S
C634 C636 1.356 1_455 S
C634 H688 0.930 . S
C635 N633 1.279 1_455 S
C635 C634 1.358 1_565 S
C635 H639 0.930 . S
C636 C634 1.356 1_655 S
C636 C637 1.348 . S
C637 C632 1.353 1_545 S
C637 C636 1.348 . S
C637 H689 0.929 . S
H638 C632 0.930 . S
H639 C635 0.930 . S
C640 N641 1.314 . S
C640 C642 1.353 . S
C640 H646 0.930 1_545 S
N641 Li617 1.990 1_444 S
N641 C640 1.314 . S
N641 C644 1.279 . S
C642 C640 1.353 . S
C642 C645 1.348 . S
C642 H690 0.929 . S
C643 C644 1.358 . S
C643 C645 1.356 . S
C643 H691 0.930 . S
C644 N641 1.279 . S
C644 C643 1.358 . S
C644 H647 0.930 . S
C645 C642 1.348 . S
C645 C643 1.356 . S
H646 C640 0.930 1_565 S
H647 C644 0.930 . S
C648 C650 1.348 . S
C648 C651 1.356 . S
C648 O678 1.325 . S
N649 C652 1.314 . S
N649 C653 1.279 . S
C650 C648 1.348 . S
C650 C652 1.353 . S
C650 H692 0.929 . S
C651 C648 1.356 . S
C651 C653 1.358 . S
C651 H693 0.930 . S
C652 N649 1.314 . S
C652 C650 1.353 . S
C652 H694 0.930 . S
C653 N649 1.279 . S
C653 C651 1.358 . S
C653 H695 0.930 . S
C654 C655 1.348 . S
C654 C656 1.356 . S
C654 O679 1.325 . S
C655 C654 1.348 . S
C655 C657 1.353 . S
C655 H696 0.929 . S
C656 C654 1.356 . S
C656 C658 1.358 . S
C656 H697 0.930 . S
C657 C655 1.353 . S
C657 N659 1.314 . S
C657 H698 0.930 . S
C658 C656 1.358 . S
C658 N659 1.279 . S
C658 H699 0.930 . S
N659 C657 1.314 . S
N659 C658 1.279 . S
C660 C662 1.349 1_556 S
C660 N663 1.314 1_455 S
C660 H666 0.920 1_556 S
C661 N663 1.279 . S
C661 C664 1.358 . S
C661 H667 0.930 . S
C662 C660 1.349 1_554 S
C662 C665 1.343 1_554 S
C662 H700 0.939 . S
N663 Li618 1.990 . S
N663 C660 1.314 1_655 S
N663 C661 1.279 . S
C664 C661 1.358 . S
C664 C665 1.356 1_655 S
C664 H701 0.930 . S
C665 C662 1.343 1_556 S
C665 C664 1.356 1_455 S
H666 C660 0.920 1_554 S
H667 C661 0.930 . S
C668 N669 1.314 1_545 S
C668 C670 1.353 . S
C668 H674 0.930 . S
N669 Li619 1.990 . S
N669 C668 1.314 1_565 S
N669 C672 1.279 1_556 S
C670 C668 1.353 . S
C670 C673 1.348 1_546 S
C670 H702 0.929 . S
C671 C672 1.358 . S
C671 C673 1.356 . S
C671 H703 0.930 . S
C672 N669 1.279 1_554 S
C672 C671 1.358 . S
C672 H675 0.930 . S
C673 C670 1.348 1_564 S
C673 C671 1.356 . S
H674 C668 0.930 . S
H675 C672 0.930 . S
O676 Li616 1.956 1_455 S
O676 Li617 1.970 1_455 S
O676 Li618 1.961 1_455 S
O676 C620 1.325 . S
O677 Li616 1.970 1_545 S
O677 Li617 1.956 1_545 S
O677 Li619 1.961 1_545 S
O677 C626 1.325 . S
O678 Li616 1.961 . S
O678 Li618 1.956 . S
O678 Li619 1.970 . S
O678 C648 1.325 . S
O679 Li617 1.961 1_554 S
O679 Li618 1.970 1_554 S
O679 Li619 1.956 1_554 S
O679 C654 1.325 . S
H680 C622 0.898 1_545 S
H681 C623 0.930 . S
H682 C624 0.930 . S
H683 C625 0.930 . S
H684 C627 0.930 . S
H685 C629 0.929 . S
H686 C630 0.930 1_554 S
H687 C631 0.930 . S
H688 C634 0.930 . S
H689 C637 0.929 . S
H690 C642 0.929 . S
H691 C643 0.930 . S
H692 C650 0.929 . S
H693 C651 0.930 . S
H694 C652 0.930 . S
H695 C653 0.930 . S
H696 C655 0.929 . S
H697 C656 0.930 . S
H698 C657 0.930 . S
H699 C658 0.930 . S
H700 C662 0.939 . S
H701 C664 0.930 . S
H702 C670 0.929 . S
H703 C671 0.930 . S
Li704 N721 1.990 . S
Li704 O764 1.956 . S
Li704 O765 1.970 . S
Li704 O766 1.961 . S
Li705 N729 1.990 . S
Li705 O764 1.970 . S
Li705 O765 1.956 . S
Li705 O767 1.961 . S
Li706 N751 1.990 . S
Li706 O764 1.961 . S
Li706 O766 1.956 . S
Li706 O767 1.970 . S
Li707 N757 1.990 . S
Li707 O765 1.961 . S
Li707 O766 1.970 . S
Li707 O767 1.956 . S
C708 C710 1.348 . S
C708 C711 1.356 . S
C708 O764 1.325 . S
N709 C712 1.314 . S
N709 C713 1.279 . S
C710 C708 1.348 . S
C710 C712 1.353 . S
C710 H768 0.929 . S
C711 C708 1.356 . S
C711 C713 1.358 . S
C711 H769 0.930 . S
C712 N709 1.314 . S
C712 C710 1.353 . S
C712 H770 0.930 . S
C713 N709 1.279 . S
C713 C711 1.358 . S
C713 H771 0.930 . S
C714 C717 1.348 . S
C714 C718 1.356 . S
C714 O765 1.325 . S
C715 N716 1.279 . S
C715 C718 1.358 . S
C715 H772 0.930 . S
N716 C715 1.279 . S
N716 C719 1.314 . S
C717 C714 1.348 . S
C717 C719 1.353 . S
C717 H773 0.929 . S
C718 C714 1.356 . S
C718 C715 1.358 . S
C718 H774 0.930 . S
C719 N716 1.314 . S
C719 C717 1.353 . S
C719 H775 0.930 . S
C720 N721 1.314 . S
C720 C725 1.353 . S
C720 H726 0.930 . S
N721 Li704 1.990 . S
N721 C720 1.314 . S
N721 C723 1.279 . S
C722 C723 1.358 . S
C722 C724 1.356 . S
C722 H776 0.930 . S
C723 N721 1.279 . S
C723 C722 1.358 . S
C723 H727 0.930 . S
C724 C722 1.356 . S
C724 C725 1.348 . S
C725 C720 1.353 . S
C725 C724 1.348 . S
C725 H777 0.929 . S
H726 C720 0.930 . S
H727 C723 0.930 . S
C728 N729 1.314 . S
C728 C730 1.353 . S
C728 H734 0.930 . S
N729 Li705 1.990 . S
N729 C728 1.314 . S
N729 C732 1.279 . S
C730 C728 1.353 . S
C730 C733 1.348 . S
C730 H778 0.929 . S
C731 C732 1.358 . S
C731 C733 1.356 . S
C731 H779 0.930 . S
C732 N729 1.279 . S
C732 C731 1.358 . S
C732 H735 0.930 . S
C733 C730 1.348 . S
C733 C731 1.356 . S
H734 C728 0.930 . S
H735 C732 0.930 . S
C736 C738 1.348 . S
C736 C739 1.356 . S
C736 O766 1.325 . S
N737 C740 1.314 . S
N737 C741 1.279 . S
C738 C736 1.348 . S
C738 C740 1.353 . S
C738 H780 0.929 . S
C739 C736 1.356 . S
C739 C741 1.358 . S
C739 H781 0.930 . S
C740 N737 1.314 . S
C740 C738 1.353 . S
C740 H782 0.930 . S
C741 N737 1.279 . S
C741 C739 1.358 . S
C741 H783 0.930 . S
C742 C743 1.348 . S
C742 C744 1.356 . S
C742 O767 1.325 . S
C743 C742 1.348 . S
C743 C745 1.353 . S
C743 H784 0.929 . S
C744 C742 1.356 . S
C744 C746 1.358 . S
C744 H785 0.930 . S
C745 C743 1.353 . S
C745 N747 1.314 . S
C745 H786 0.930 . S
C746 C744 1.358 . S
C746 N747 1.279 . S
C746 H787 0.930 . S
N747 C745 1.314 . S
N747 C746 1.279 . S
C748 C750 1.353 . S
C748 N751 1.314 . S
C748 H754 0.930 . S
C749 N751 1.279 . S
C749 C752 1.358 . S
C749 H755 0.930 . S
C750 C748 1.353 . S
C750 C753 1.348 . S
C750 H788 0.929 . S
N751 Li706 1.990 . S
N751 C748 1.314 . S
N751 C749 1.279 . S
C752 C749 1.358 . S
C752 C753 1.356 . S
C752 H789 0.930 . S
C753 C750 1.348 . S
C753 C752 1.356 . S
H754 C748 0.930 . S
H755 C749 0.930 . S
C756 N757 1.314 . S
C756 C758 1.353 . S
C756 H762 0.930 . S
N757 Li707 1.990 . S
N757 C756 1.314 . S
N757 C760 1.279 . S
C758 C756 1.353 . S
C758 C761 1.348 . S
C758 H790 0.929 . S
C759 C760 1.358 . S
C759 C761 1.356 . S
C759 H791 0.930 . S
C760 N757 1.279 . S
C760 C759 1.358 . S
C760 H763 0.930 . S
C761 C758 1.348 . S
C761 C759 1.356 . S
H762 C756 0.930 . S
H763 C760 0.930 . S
O764 Li704 1.956 . S
O764 Li705 1.970 . S
O764 Li706 1.961 . S
O764 C708 1.325 . S
O765 Li704 1.970 . S
O765 Li705 1.956 . S
O765 Li707 1.961 . S
O765 C714 1.325 . S
O766 Li704 1.961 . S
O766 Li706 1.956 . S
O766 Li707 1.970 . S
O766 C736 1.325 . S
O767 Li705 1.961 . S
O767 Li706 1.970 . S
O767 Li707 1.956 . S
O767 C742 1.325 . S
H768 C710 0.929 . S
H769 C711 0.930 . S
H770 C712 0.930 . S
H771 C713 0.930 . S
H772 C715 0.930 . S
H773 C717 0.929 . S
H774 C718 0.930 . S
H775 C719 0.930 . S
H776 C722 0.930 . S
H777 C725 0.929 . S
H778 C730 0.929 . S
H779 C731 0.930 . S
H780 C738 0.929 . S
H781 C739 0.930 . S
H782 C740 0.930 . S
H783 C741 0.930 . S
H784 C743 0.929 . S
H785 C744 0.930 . S
H786 C745 0.930 . S
H787 C746 0.930 . S
H788 C750 0.929 . S
H789 C752 0.930 . S
H790 C758 0.929 . S
H791 C759 0.930 . S
Li792 N809 1.990 . S
Li792 O852 1.956 . S
Li792 O853 1.970 1_556 S
Li792 O854 1.961 1_455 S
Li793 N817 1.990 . S
Li793 O852 1.970 . S
Li793 O853 1.956 1_556 S
Li793 O855 1.961 . S
Li794 N839 1.990 . S
Li794 O852 1.961 . S
Li794 O854 1.956 1_455 S
Li794 O855 1.970 . S
Li795 N845 1.990 1_456 S
Li795 O853 1.961 1_556 S
Li795 O854 1.970 1_455 S
Li795 O855 1.956 . S
C796 C798 1.348 . S
C796 C799 1.356 . S
C796 O852 1.325 . S
N797 C800 1.314 . S
N797 C801 1.279 . S
C798 C796 1.348 . S
C798 C800 1.353 . S
C798 H856 0.929 . S
C799 C796 1.356 . S
C799 C801 1.358 . S
C799 H857 0.930 . S
C800 N797 1.314 . S
C800 C798 1.353 . S
C800 H858 0.930 . S
C801 N797 1.279 . S
C801 C799 1.358 . S
C801 H859 0.930 . S
C802 C805 1.348 . S
C802 C806 1.356 . S
C802 O853 1.325 . S
C803 N804 1.279 . S
C803 C806 1.358 . S
C803 H860 0.930 . S
N804 C803 1.279 . S
N804 C807 1.314 . S
C805 C802 1.348 . S
C805 C807 1.353 . S
C805 H861 0.929 . S
C806 C802 1.356 . S
C806 C803 1.358 . S
C806 H862 0.930 . S
C807 N804 1.314 . S
C807 C805 1.353 . S
C807 H863 0.930 . S
C808 N809 1.314 1_655 S
C808 C813 1.347 1_556 S
C808 H814 0.918 1_556 S
N809 Li792 1.990 . S
N809 C808 1.314 1_455 S
N809 C811 1.279 . S
C810 C811 1.358 . S
C810 C812 1.356 1_455 S
C810 H864 0.930 . S
C811 N809 1.279 . S
C811 C810 1.358 . S
C811 H815 0.930 . S
C812 C810 1.356 1_655 S
C812 C813 1.341 1_556 S
C813 C808 1.347 1_554 S
C813 C812 1.341 1_554 S
C813 H865 0.944 . S
H814 C808 0.918 1_554 S
H815 C811 0.930 . S
C816 N817 1.314 . S
C816 C818 1.353 . S
C816 H822 0.930 . S
N817 Li793 1.990 . S
N817 C816 1.314 . S
N817 C820 1.279 1_556 S
C818 C816 1.353 . S
C818 C821 1.348 1_556 S
C818 H866 0.929 . S
C819 C820 1.358 . S
C819 C821 1.356 . S
C819 H867 0.930 . S
C820 N817 1.279 1_554 S
C820 C819 1.358 . S
C820 H823 0.930 . S
C821 C818 1.348 1_554 S
C821 C819 1.356 . S
H822 C816 0.930 . S
H823 C820 0.930 . S
C824 C826 1.348 . S
C824 C827 1.356 . S
C824 O854 1.325 . S
N825 C828 1.314 . S
N825 C829 1.279 . S
C826 C824 1.348 . S
C826 C828 1.353 . S
C826 H868 0.929 . S
C827 C824 1.356 . S
C827 C829 1.358 . S
C827 H869 0.930 . S
C828 N825 1.314 . S
C828 C826 1.353 . S
C828 H870 0.930 . S
C829 N825 1.279 . S
C829 C827 1.358 . S
C829 H871 0.930 . S
C830 C831 1.348 . S
C830 C832 1.356 . S
C830 O855 1.325 . S
C831 C830 1.348 . S
C831 C833 1.353 . S
C831 H872 0.929 . S
C832 C830 1.356 . S
C832 C834 1.358 . S
C832 H873 0.930 1_556 S
C833 C831 1.353 . S
C833 N835 1.314 . S
C833 H874 0.930 . S
C834 C832 1.358 . S
C834 N835 1.279 . S
C834 H875 0.930 . S
N835 C833 1.314 . S
N835 C834 1.279 . S
C836 C838 1.353 . S
C836 N839 1.314 . S
C836 H842 0.930 . S
C837 N839 1.279 1_655 S
C837 C840 1.358 . S
C837 H843 0.930 . S
C838 C836 1.353 . S
C838 C841 1.348 . S
C838 H876 0.929 . S
N839 Li794 1.990 . S
N839 C836 1.314 . S
N839 C837 1.279 1_455 S
C840 C837 1.358 . S
C840 C841 1.356 1_655 S
C840 H877 0.930 . S
C841 C838 1.348 . S
C841 C840 1.356 1_455 S
H842 C836 0.930 . S
H843 C837 0.930 . S
C844 N845 1.314 . S
C844 C846 1.353 . S
C844 H850 0.930 . S
N845 Li795 1.990 1_654 S
N845 C844 1.314 . S
N845 C848 1.279 . S
C846 C844 1.353 . S
C846 C849 1.348 . S
C846 H878 0.929 . S
C847 C848 1.358 . S
C847 C849 1.356 . S
C847 H879 0.930 . S
C848 N845 1.279 . S
C848 C847 1.358 . S
C848 H851 0.930 . S
C849 C846 1.348 . S
C849 C847 1.356 . S
H850 C844 0.930 . S
H851 C848 0.930 . S
O852 Li792 1.956 . S
O852 Li793 1.970 . S
O852 Li794 1.961 . S
O852 C796 1.325 . S
O853 Li792 1.970 1_554 S
O853 Li793 1.956 1_554 S
O853 Li795 1.961 1_554 S
O853 C802 1.325 . S
O854 Li792 1.961 1_655 S
O854 Li794 1.956 1_655 S
O854 Li795 1.970 1_655 S
O854 C824 1.325 . S
O855 Li793 1.961 . S
O855 Li794 1.970 . S
O855 Li795 1.956 . S
O855 C830 1.325 . S
H856 C798 0.929 . S
H857 C799 0.930 . S
H858 C800 0.930 . S
H859 C801 0.930 . S
H860 C803 0.930 . S
H861 C805 0.929 . S
H862 C806 0.930 . S
H863 C807 0.930 . S
H864 C810 0.930 . S
H865 C813 0.944 . S
H866 C818 0.929 . S
H867 C819 0.930 . S
H868 C826 0.929 . S
H869 C827 0.930 . S
H870 C828 0.930 . S
H871 C829 0.930 . S
H872 C831 0.929 . S
H873 C832 0.930 1_554 S
H874 C833 0.930 . S
H875 C834 0.930 . S
H876 C838 0.929 . S
H877 C840 0.930 . S
H878 C846 0.929 . S
H879 C847 0.930 . S
Li880 N897 1.990 . S
Li880 O940 1.956 . S
Li880 O941 1.970 . S
Li880 O942 1.961 . S
Li881 N905 1.990 . S
Li881 O940 1.970 . S
Li881 O941 1.956 . S
Li881 O943 1.961 . S
Li882 N927 1.990 . S
Li882 O940 1.961 . S
Li882 O942 1.956 . S
Li882 O943 1.970 . S
Li883 N933 1.990 . S
Li883 O941 1.961 . S
Li883 O942 1.970 . S
Li883 O943 1.956 . S
C884 C886 1.348 . S
C884 C887 1.356 . S
C884 O940 1.325 . S
N885 C888 1.314 . S
N885 C889 1.279 . S
C886 C884 1.348 . S
C886 C888 1.353 . S
C886 H944 0.929 . S
C887 C884 1.356 . S
C887 C889 1.358 . S
C887 H945 0.930 . S
C888 N885 1.314 . S
C888 C886 1.353 . S
C888 H946 0.930 . S
C889 N885 1.279 . S
C889 C887 1.358 . S
C889 H947 0.930 . S
C890 C893 1.348 . S
C890 C894 1.356 . S
C890 O941 1.325 . S
C891 N892 1.279 . S
C891 C894 1.358 . S
C891 H948 0.930 . S
N892 C891 1.279 . S
N892 C895 1.314 . S
C893 C890 1.348 . S
C893 C895 1.353 . S
C893 H949 0.929 . S
C894 C890 1.356 . S
C894 C891 1.358 . S
C894 H950 0.930 . S
C895 N892 1.314 . S
C895 C893 1.353 . S
C895 H951 0.930 . S
C896 N897 1.314 . S
C896 C901 1.353 . S
C896 H902 0.930 . S
N897 Li880 1.990 . S
N897 C896 1.314 . S
N897 C899 1.279 . S
C898 C899 1.358 . S
C898 C900 1.356 . S
C898 H952 0.930 . S
C899 N897 1.279 . S
C899 C898 1.358 . S
C899 H903 0.930 . S
C900 C898 1.356 . S
C900 C901 1.348 . S
C901 C896 1.353 . S
C901 C900 1.348 . S
C901 H953 0.929 . S
H902 C896 0.930 . S
H903 C899 0.930 . S
C904 N905 1.314 . S
C904 C906 1.353 . S
C904 H910 0.930 . S
N905 Li881 1.990 . S
N905 C904 1.314 . S
N905 C908 1.279 . S
C906 C904 1.353 . S
C906 C909 1.348 . S
C906 H954 0.929 . S
C907 C908 1.358 . S
C907 C909 1.356 . S
C907 H955 0.930 . S
C908 N905 1.279 . S
C908 C907 1.358 . S
C908 H911 0.930 . S
C909 C906 1.348 . S
C909 C907 1.356 . S
H910 C904 0.930 . S
H911 C908 0.930 . S
C912 C914 1.348 . S
C912 C915 1.356 . S
C912 O942 1.325 . S
N913 C916 1.314 . S
N913 C917 1.279 . S
C914 C912 1.348 . S
C914 C916 1.353 . S
C914 H956 0.929 . S
C915 C912 1.356 . S
C915 C917 1.358 . S
C915 H957 0.930 . S
C916 N913 1.314 . S
C916 C914 1.353 . S
C916 H958 0.930 . S
C917 N913 1.279 . S
C917 C915 1.358 . S
C917 H959 0.930 . S
C918 C919 1.348 . S
C918 C920 1.356 . S
C918 O943 1.325 . S
C919 C918 1.348 . S
C919 C921 1.353 . S
C919 H960 0.929 . S
C920 C918 1.356 . S
C920 C922 1.358 . S
C920 H961 0.930 . S
C921 C919 1.353 . S
C921 N923 1.314 . S
C921 H962 0.930 . S
C922 C920 1.358 . S
C922 N923 1.279 . S
C922 H963 0.930 . S
N923 C921 1.314 . S
N923 C922 1.279 . S
C924 C926 1.353 . S
C924 N927 1.314 . S
C924 H930 0.930 . S
C925 N927 1.279 . S
C925 C928 1.358 . S
C925 H931 0.930 . S
C926 C924 1.353 . S
C926 C929 1.348 . S
C926 H964 0.929 . S
N927 Li882 1.990 . S
N927 C924 1.314 . S
N927 C925 1.279 . S
C928 C925 1.358 . S
C928 C929 1.356 . S
C928 H965 0.930 . S
C929 C926 1.348 . S
C929 C928 1.356 . S
H930 C924 0.930 . S
H931 C925 0.930 . S
C932 N933 1.314 . S
C932 C934 1.353 . S
C932 H938 0.930 . S
N933 Li883 1.990 . S
N933 C932 1.314 . S
N933 C936 1.279 . S
C934 C932 1.353 . S
C934 C937 1.348 . S
C934 H966 0.929 . S
C935 C936 1.358 . S
C935 C937 1.356 . S
C935 H967 0.930 . S
C936 N933 1.279 . S
C936 C935 1.358 . S
C936 H939 0.930 . S
C937 C934 1.348 . S
C937 C935 1.356 . S
H938 C932 0.930 . S
H939 C936 0.930 . S
O940 Li880 1.956 . S
O940 Li881 1.970 . S
O940 Li882 1.961 . S
O940 C884 1.325 . S
O941 Li880 1.970 . S
O941 Li881 1.956 . S
O941 Li883 1.961 . S
O941 C890 1.325 . S
O942 Li880 1.961 . S
O942 Li882 1.956 . S
O942 Li883 1.970 . S
O942 C912 1.325 . S
O943 Li881 1.961 . S
O943 Li882 1.970 . S
O943 Li883 1.956 . S
O943 C918 1.325 . S
H944 C886 0.929 . S
H945 C887 0.930 . S
H946 C888 0.930 . S
H947 C889 0.930 . S
H948 C891 0.930 . S
H949 C893 0.929 . S
H950 C894 0.930 . S
H951 C895 0.930 . S
H952 C898 0.930 . S
H953 C901 0.929 . S
H954 C906 0.929 . S
H955 C907 0.930 . S
H956 C914 0.929 . S
H957 C915 0.930 . S
H958 C916 0.930 . S
H959 C917 0.930 . S
H960 C919 0.929 . S
H961 C920 0.930 . S
H962 C921 0.930 . S
H963 C922 0.930 . S
H964 C926 0.929 . S
H965 C928 0.930 . S
H966 C934 0.929 . S
H967 C935 0.930 . S
Li968 N985 1.990 . S
Li968 O1028 1.956 . S
Li968 O1029 1.970 1_455 S
Li968 O1030 1.961 . S
Li969 N993 1.990 . S
Li969 O1028 1.970 . S
Li969 O1029 1.956 1_455 S
Li969 O1031 1.961 . S
Li970 N1015 1.990 . S
Li970 O1028 1.961 . S
Li970 O1030 1.956 . S
Li970 O1031 1.970 . S
Li971 N1021 1.990 1_455 S
Li971 O1029 1.961 1_455 S
Li971 O1030 1.970 . S
Li971 O1031 1.956 . S
C972 C974 1.348 . S
C972 C975 1.356 . S
C972 O1028 1.325 . S
N973 C976 1.314 . S
N973 C977 1.279 . S
C974 C972 1.348 . S
C974 C976 1.353 . S
C974 H1032 0.929 . S
C975 C972 1.356 . S
C975 C977 1.358 . S
C975 H1033 0.930 . S
C976 N973 1.314 . S
C976 C974 1.353 . S
C976 H1034 0.930 . S
C977 N973 1.279 . S
C977 C975 1.358 . S
C977 H1035 0.930 . S
C978 C981 1.348 . S
C978 C982 1.356 . S
C978 O1029 1.325 . S
C979 N980 1.279 . S
C979 C982 1.358 . S
C979 H1036 0.930 . S
N980 C979 1.279 . S
N980 C983 1.314 . S
C981 C978 1.348 . S
C981 C983 1.353 . S
C981 H1037 0.929 . S
C982 C978 1.356 . S
C982 C979 1.358 . S
C982 H1038 0.930 . S
C983 N980 1.314 . S
C983 C981 1.353 . S
C983 H1039 0.930 . S
C984 N985 1.314 . S
C984 C989 1.350 1_455 S
C984 H990 0.923 1_455 S
N985 Li968 1.990 . S
N985 C984 1.314 . S
N985 C987 1.279 . S
C986 C987 1.358 . S
C986 C988 1.356 . S
C986 H1040 0.930 . S
C987 N985 1.279 . S
C987 C986 1.358 . S
C987 H991 0.930 . S
C988 C986 1.356 . S
C988 C989 1.344 1_455 S
C989 C984 1.350 1_655 S
C989 C988 1.344 1_655 S
C989 H1041 0.935 . S
H990 C984 0.923 1_655 S
H991 C987 0.930 . S
C992 N993 1.314 . S
C992 C994 1.353 . S
C992 H998 0.930 . S
N993 Li969 1.990 . S
N993 C992 1.314 . S
N993 C996 1.279 1_455 S
C994 C992 1.353 . S
C994 C997 1.348 1_455 S
C994 H1042 0.929 . S
C995 C996 1.358 . S
C995 C997 1.356 . S
C995 H1043 0.930 . S
C996 N993 1.279 1_655 S
C996 C995 1.358 . S
C996 H999 0.930 . S
C997 C994 1.348 1_655 S
C997 C995 1.356 . S
H998 C992 0.930 . S
H999 C996 0.930 . S
C1000 C1002 1.348 . S
C1000 C1003 1.356 . S
C1000 O1030 1.325 . S
N1001 C1004 1.314 . S
N1001 C1005 1.279 . S
C1002 C1000 1.348 . S
C1002 C1004 1.353 . S
C1002 H1044 0.929 . S
C1003 C1000 1.356 . S
C1003 C1005 1.358 . S
C1003 H1045 0.930 . S
C1004 N1001 1.314 . S
C1004 C1002 1.353 . S
C1004 H1046 0.930 . S
C1005 N1001 1.279 . S
C1005 C1003 1.358 . S
C1005 H1047 0.930 . S
C1006 C1007 1.348 . S
C1006 C1008 1.356 . S
C1006 O1031 1.325 . S
C1007 C1006 1.348 . S
C1007 C1009 1.353 . S
C1007 H1048 0.929 . S
C1008 C1006 1.356 . S
C1008 C1010 1.358 . S
C1008 H1049 0.930 1_455 S
C1009 C1007 1.353 . S
C1009 N1011 1.314 . S
C1009 H1050 0.930 . S
C1010 C1008 1.358 . S
C1010 N1011 1.279 . S
C1010 H1051 0.930 . S
N1011 C1009 1.314 . S
N1011 C1010 1.279 . S
C1012 C1014 1.353 . S
C1012 N1015 1.314 . S
C1012 H1018 0.930 . S
C1013 N1015 1.279 . S
C1013 C1016 1.358 . S
C1013 H1019 0.930 . S
C1014 C1012 1.353 . S
C1014 C1017 1.348 . S
C1014 H1052 0.929 . S
N1015 Li970 1.990 . S
N1015 C1012 1.314 . S
N1015 C1013 1.279 . S
C1016 C1013 1.358 . S
C1016 C1017 1.356 . S
C1016 H1053 0.930 . S
C1017 C1014 1.348 . S
C1017 C1016 1.356 . S
H1018 C1012 0.930 . S
H1019 C1013 0.930 . S
C1020 N1021 1.314 . S
C1020 C1022 1.353 . S
C1020 H1026 0.930 . S
N1021 Li971 1.990 1_655 S
N1021 C1020 1.314 . S
N1021 C1024 1.279 . S
C1022 C1020 1.353 . S
C1022 C1025 1.348 . S
C1022 H1054 0.929 . S
C1023 C1024 1.358 . S
C1023 C1025 1.356 . S
C1023 H1055 0.930 . S
C1024 N1021 1.279 . S
C1024 C1023 1.358 . S
C1024 H1027 0.930 . S
C1025 C1022 1.348 . S
C1025 C1023 1.356 . S
H1026 C1020 0.930 . S
H1027 C1024 0.930 . S
O1028 Li968 1.956 . S
O1028 Li969 1.970 . S
O1028 Li970 1.961 . S
O1028 C972 1.325 . S
O1029 Li968 1.970 1_655 S
O1029 Li969 1.956 1_655 S
O1029 Li971 1.961 1_655 S
O1029 C978 1.325 . S
O1030 Li968 1.961 . S
O1030 Li970 1.956 . S
O1030 Li971 1.970 . S
O1030 C1000 1.325 . S
O1031 Li969 1.961 . S
O1031 Li970 1.970 . S
O1031 Li971 1.956 . S
O1031 C1006 1.325 . S
H1032 C974 0.929 . S
H1033 C975 0.930 . S
H1034 C976 0.930 . S
H1035 C977 0.930 . S
H1036 C979 0.930 . S
H1037 C981 0.929 . S
H1038 C982 0.930 . S
H1039 C983 0.930 . S
H1040 C986 0.930 . S
H1041 C989 0.935 . S
H1042 C994 0.929 . S
H1043 C995 0.930 . S
H1044 C1002 0.929 . S
H1045 C1003 0.930 . S
H1046 C1004 0.930 . S
H1047 C1005 0.930 . S
H1048 C1007 0.929 . S
H1049 C1008 0.930 1_655 S
H1050 C1009 0.930 . S
H1051 C1010 0.930 . S
H1052 C1014 0.929 . S
H1053 C1016 0.930 . S
H1054 C1022 0.929 . S
H1055 C1023 0.930 . S
Li1056 N1073 1.990 . S
Li1056 O1116 1.956 . S
Li1056 O1117 1.970 1_554 S
Li1056 O1118 1.961 . S
Li1057 N1081 1.990 . S
Li1057 O1116 1.970 . S
Li1057 O1117 1.956 1_554 S
Li1057 O1119 1.961 . S
Li1058 N1103 1.990 . S
Li1058 O1116 1.961 . S
Li1058 O1118 1.956 . S
Li1058 O1119 1.970 . S
Li1059 N1109 1.990 1_554 S
Li1059 O1117 1.961 1_554 S
Li1059 O1118 1.970 . S
Li1059 O1119 1.956 . S
C1060 C1062 1.348 . S
C1060 C1063 1.356 . S
C1060 O1116 1.325 . S
N1061 C1064 1.314 . S
N1061 C1065 1.279 . S
C1062 C1060 1.348 . S
C1062 C1064 1.353 . S
C1062 H1120 0.929 . S
C1063 C1060 1.356 . S
C1063 C1065 1.358 . S
C1063 H1121 0.930 . S
C1064 N1061 1.314 . S
C1064 C1062 1.353 . S
C1064 H1122 0.930 . S
C1065 N1061 1.279 . S
C1065 C1063 1.358 . S
C1065 H1123 0.930 . S
C1066 C1069 1.348 . S
C1066 C1070 1.356 . S
C1066 O1117 1.325 . S
C1067 N1068 1.279 . S
C1067 C1070 1.358 . S
C1067 H1124 0.930 . S
N1068 C1067 1.279 . S
N1068 C1071 1.314 . S
C1069 C1066 1.348 . S
C1069 C1071 1.353 . S
C1069 H1125 0.929 . S
C1070 C1066 1.356 . S
C1070 C1067 1.358 . S
C1070 H1126 0.930 . S
C1071 N1068 1.314 . S
C1071 C1069 1.353 . S
C1071 H1127 0.930 . S
C1072 N1073 1.314 . S
C1072 C1077 1.353 1_554 S
C1072 H1078 0.930 1_554 S
N1073 Li1056 1.990 . S
N1073 C1072 1.314 . S
N1073 C1075 1.279 . S
C1074 C1075 1.358 . S
C1074 C1076 1.356 . S
C1074 H1128 0.930 . S
C1075 N1073 1.279 . S
C1075 C1074 1.358 . S
C1075 H1079 0.930 . S
C1076 C1074 1.356 . S
C1076 C1077 1.348 1_554 S
C1077 C1072 1.353 1_556 S
C1077 C1076 1.348 1_556 S
C1077 H1129 0.929 . S
H1078 C1072 0.930 1_556 S
H1079 C1075 0.930 . S
C1080 N1081 1.314 . S
C1080 C1082 1.353 . S
C1080 H1086 0.930 . S
N1081 Li1057 1.990 . S
N1081 C1080 1.314 . S
N1081 C1084 1.279 1_554 S
C1082 C1080 1.353 . S
C1082 C1085 1.348 1_554 S
C1082 H1130 0.929 . S
C1083 C1084 1.358 . S
C1083 C1085 1.356 . S
C1083 H1131 0.930 . S
C1084 N1081 1.279 1_556 S
C1084 C1083 1.358 . S
C1084 H1087 0.930 . S
C1085 C1082 1.348 1_556 S
C1085 C1083 1.356 . S
H1086 C1080 0.930 . S
H1087 C1084 0.930 . S
C1088 C1090 1.348 . S
C1088 C1091 1.356 . S
C1088 O1118 1.325 . S
N1089 C1092 1.314 . S
N1089 C1093 1.279 . S
C1090 C1088 1.348 . S
C1090 C1092 1.353 . S
C1090 H1132 0.929 . S
C1091 C1088 1.356 . S
C1091 C1093 1.358 . S
C1091 H1133 0.930 . S
C1092 N1089 1.314 . S
C1092 C1090 1.353 . S
C1092 H1134 0.930 . S
C1093 N1089 1.279 . S
C1093 C1091 1.358 . S
C1093 H1135 0.930 . S
C1094 C1095 1.348 . S
C1094 C1096 1.356 . S
C1094 O1119 1.325 . S
C1095 C1094 1.348 . S
C1095 C1097 1.353 . S
C1095 H1136 0.929 . S
C1096 C1094 1.356 . S
C1096 C1098 1.358 . S
C1096 H1137 0.930 1_554 S
C1097 C1095 1.353 . S
C1097 N1099 1.314 . S
C1097 H1138 0.930 . S
C1098 C1096 1.358 . S
C1098 N1099 1.279 . S
C1098 H1139 0.930 . S
N1099 C1097 1.314 . S
N1099 C1098 1.279 . S
C1100 C1102 1.353 . S
C1100 N1103 1.314 . S
C1100 H1106 0.930 . S
C1101 N1103 1.279 . S
C1101 C1104 1.358 . S
C1101 H1107 0.930 . S
C1102 C1100 1.353 . S
C1102 C1105 1.348 . S
C1102 H1140 0.929 . S
N1103 Li1058 1.990 . S
N1103 C1100 1.314 . S
N1103 C1101 1.279 . S
C1104 C1101 1.358 . S
C1104 C1105 1.356 . S
C1104 H1141 0.930 . S
C1105 C1102 1.348 . S
C1105 C1104 1.356 . S
H1106 C1100 0.930 . S
H1107 C1101 0.930 . S
C1108 N1109 1.314 . S
C1108 C1110 1.353 . S
C1108 H1114 0.930 . S
N1109 Li1059 1.990 1_556 S
N1109 C1108 1.314 . S
N1109 C1112 1.279 . S
C1110 C1108 1.353 . S
C1110 C1113 1.348 . S
C1110 H1142 0.929 . S
C1111 C1112 1.358 . S
C1111 C1113 1.356 . S
C1111 H1143 0.930 . S
C1112 N1109 1.279 . S
C1112 C1111 1.358 . S
C1112 H1115 0.930 . S
C1113 C1110 1.348 . S
C1113 C1111 1.356 . S
H1114 C1108 0.930 . S
H1115 C1112 0.930 . S
O1116 Li1056 1.956 . S
O1116 Li1057 1.970 . S
O1116 Li1058 1.961 . S
O1116 C1060 1.325 . S
O1117 Li1056 1.970 1_556 S
O1117 Li1057 1.956 1_556 S
O1117 Li1059 1.961 1_556 S
O1117 C1066 1.325 . S
O1118 Li1056 1.961 . S
O1118 Li1058 1.956 . S
O1118 Li1059 1.970 . S
O1118 C1088 1.325 . S
O1119 Li1057 1.961 . S
O1119 Li1058 1.970 . S
O1119 Li1059 1.956 . S
O1119 C1094 1.325 . S
H1120 C1062 0.929 . S
H1121 C1063 0.930 . S
H1122 C1064 0.930 . S
H1123 C1065 0.930 . S
H1124 C1067 0.930 . S
H1125 C1069 0.929 . S
H1126 C1070 0.930 . S
H1127 C1071 0.930 . S
H1128 C1074 0.930 . S
H1129 C1077 0.929 . S
H1130 C1082 0.929 . S
H1131 C1083 0.930 . S
H1132 C1090 0.929 . S
H1133 C1091 0.930 . S
H1134 C1092 0.930 . S
H1135 C1093 0.930 . S
H1136 C1095 0.929 . S
H1137 C1096 0.930 1_556 S
H1138 C1097 0.930 . S
H1139 C1098 0.930 . S
H1140 C1102 0.929 . S
H1141 C1104 0.930 . S
H1142 C1110 0.929 . S
H1143 C1111 0.930 . S
Li1144 N1161 1.990 . S
Li1144 O1204 1.956 . S
Li1144 O1205 1.970 . S
Li1144 O1206 1.961 . S
Li1145 N1169 1.990 . S
Li1145 O1204 1.970 . S
Li1145 O1205 1.956 . S
Li1145 O1207 1.961 . S
Li1146 N1191 1.990 . S
Li1146 O1204 1.961 . S
Li1146 O1206 1.956 . S
Li1146 O1207 1.970 . S
Li1147 N1197 1.990 . S
Li1147 O1205 1.961 . S
Li1147 O1206 1.970 . S
Li1147 O1207 1.956 . S
C1148 C1150 1.348 . S
C1148 C1151 1.356 . S
C1148 O1204 1.325 . S
N1149 C1152 1.314 . S
N1149 C1153 1.279 . S
C1150 C1148 1.348 . S
C1150 C1152 1.353 . S
C1150 H1208 0.929 . S
C1151 C1148 1.356 . S
C1151 C1153 1.358 . S
C1151 H1209 0.930 . S
C1152 N1149 1.314 . S
C1152 C1150 1.353 . S
C1152 H1210 0.930 . S
C1153 N1149 1.279 . S
C1153 C1151 1.358 . S
C1153 H1211 0.930 . S
C1154 C1157 1.348 . S
C1154 C1158 1.356 . S
C1154 O1205 1.325 . S
C1155 N1156 1.279 . S
C1155 C1158 1.358 . S
C1155 H1212 0.930 . S
N1156 C1155 1.279 . S
N1156 C1159 1.314 . S
C1157 C1154 1.348 . S
C1157 C1159 1.353 . S
C1157 H1213 0.929 . S
C1158 C1154 1.356 . S
C1158 C1155 1.358 . S
C1158 H1214 0.930 . S
C1159 N1156 1.314 . S
C1159 C1157 1.353 . S
C1159 H1215 0.930 . S
C1160 N1161 1.314 . S
C1160 C1165 1.353 . S
C1160 H1166 0.930 . S
N1161 Li1144 1.990 . S
N1161 C1160 1.314 . S
N1161 C1163 1.279 . S
C1162 C1163 1.358 . S
C1162 C1164 1.356 . S
C1162 H1216 0.930 . S
C1163 N1161 1.279 . S
C1163 C1162 1.358 . S
C1163 H1167 0.930 . S
C1164 C1162 1.356 . S
C1164 C1165 1.348 . S
C1165 C1160 1.353 . S
C1165 C1164 1.348 . S
C1165 H1217 0.929 . S
H1166 C1160 0.930 . S
H1167 C1163 0.930 . S
C1168 N1169 1.314 . S
C1168 C1170 1.353 . S
C1168 H1174 0.930 . S
N1169 Li1145 1.990 . S
N1169 C1168 1.314 . S
N1169 C1172 1.279 . S
C1170 C1168 1.353 . S
C1170 C1173 1.348 . S
C1170 H1218 0.929 . S
C1171 C1172 1.358 . S
C1171 C1173 1.356 . S
C1171 H1219 0.930 . S
C1172 N1169 1.279 . S
C1172 C1171 1.358 . S
C1172 H1175 0.930 . S
C1173 C1170 1.348 . S
C1173 C1171 1.356 . S
H1174 C1168 0.930 . S
H1175 C1172 0.930 . S
C1176 C1178 1.348 . S
C1176 C1179 1.356 . S
C1176 O1206 1.325 . S
N1177 C1180 1.314 . S
N1177 C1181 1.279 . S
C1178 C1176 1.348 . S
C1178 C1180 1.353 . S
C1178 H1220 0.929 . S
C1179 C1176 1.356 . S
C1179 C1181 1.358 . S
C1179 H1221 0.930 . S
C1180 N1177 1.314 . S
C1180 C1178 1.353 . S
C1180 H1222 0.930 . S
C1181 N1177 1.279 . S
C1181 C1179 1.358 . S
C1181 H1223 0.930 . S
C1182 C1183 1.348 . S
C1182 C1184 1.356 . S
C1182 O1207 1.325 . S
C1183 C1182 1.348 . S
C1183 C1185 1.353 . S
C1183 H1224 0.929 . S
C1184 C1182 1.356 . S
C1184 C1186 1.358 . S
C1184 H1225 0.930 . S
C1185 C1183 1.353 . S
C1185 N1187 1.314 . S
C1185 H1226 0.930 . S
C1186 C1184 1.358 . S
C1186 N1187 1.279 . S
C1186 H1227 0.930 . S
N1187 C1185 1.314 . S
N1187 C1186 1.279 . S
C1188 C1190 1.353 . S
C1188 N1191 1.314 . S
C1188 H1194 0.930 . S
C1189 N1191 1.279 . S
C1189 C1192 1.358 . S
C1189 H1195 0.930 . S
C1190 C1188 1.353 . S
C1190 C1193 1.348 . S
C1190 H1228 0.929 . S
N1191 Li1146 1.990 . S
N1191 C1188 1.314 . S
N1191 C1189 1.279 . S
C1192 C1189 1.358 . S
C1192 C1193 1.356 . S
C1192 H1229 0.930 . S
C1193 C1190 1.348 . S
C1193 C1192 1.356 . S
H1194 C1188 0.930 . S
H1195 C1189 0.930 . S
C1196 N1197 1.314 . S
C1196 C1198 1.353 . S
C1196 H1202 0.930 . S
N1197 Li1147 1.990 . S
N1197 C1196 1.314 . S
N1197 C1200 1.279 . S
C1198 C1196 1.353 . S
C1198 C1201 1.348 . S
C1198 H1230 0.929 . S
C1199 C1200 1.358 . S
C1199 C1201 1.356 . S
C1199 H1231 0.930 . S
C1200 N1197 1.279 . S
C1200 C1199 1.358 . S
C1200 H1203 0.930 . S
C1201 C1198 1.348 . S
C1201 C1199 1.356 . S
H1202 C1196 0.930 . S
H1203 C1200 0.930 . S
O1204 Li1144 1.956 . S
O1204 Li1145 1.970 . S
O1204 Li1146 1.961 . S
O1204 C1148 1.325 . S
O1205 Li1144 1.970 . S
O1205 Li1145 1.956 . S
O1205 Li1147 1.961 . S
O1205 C1154 1.325 . S
O1206 Li1144 1.961 . S
O1206 Li1146 1.956 . S
O1206 Li1147 1.970 . S
O1206 C1176 1.325 . S
O1207 Li1145 1.961 . S
O1207 Li1146 1.970 . S
O1207 Li1147 1.956 . S
O1207 C1182 1.325 . S
H1208 C1150 0.929 . S
H1209 C1151 0.930 . S
H1210 C1152 0.930 . S
H1211 C1153 0.930 . S
H1212 C1155 0.930 . S
H1213 C1157 0.929 . S
H1214 C1158 0.930 . S
H1215 C1159 0.930 . S
H1216 C1162 0.930 . S
H1217 C1165 0.929 . S
H1218 C1170 0.929 . S
H1219 C1171 0.930 . S
H1220 C1178 0.929 . S
H1221 C1179 0.930 . S
H1222 C1180 0.930 . S
H1223 C1181 0.930 . S
H1224 C1183 0.929 . S
H1225 C1184 0.930 . S
H1226 C1185 0.930 . S
H1227 C1186 0.930 . S
H1228 C1190 0.929 . S
H1229 C1192 0.930 . S
H1230 C1198 0.929 . S
H1231 C1199 0.930 . S
Li1232 N1249 1.990 . S
Li1232 O1292 1.956 . S
Li1232 O1293 1.970 . S
Li1232 O1294 1.961 . S
Li1233 N1257 1.990 . S
Li1233 O1292 1.970 . S
Li1233 O1293 1.956 . S
Li1233 O1295 1.961 . S
Li1234 N1279 1.990 . S
Li1234 O1292 1.961 . S
Li1234 O1294 1.956 . S
Li1234 O1295 1.970 . S
Li1235 N1285 1.990 . S
Li1235 O1293 1.961 . S
Li1235 O1294 1.970 . S
Li1235 O1295 1.956 . S
C1236 C1238 1.348 . S
C1236 C1239 1.356 . S
C1236 O1292 1.325 . S
N1237 C1240 1.314 . S
N1237 C1241 1.279 . S
C1238 C1236 1.348 . S
C1238 C1240 1.353 . S
C1238 H1296 0.929 . S
C1239 C1236 1.356 . S
C1239 C1241 1.358 . S
C1239 H1297 0.930 . S
C1240 N1237 1.314 . S
C1240 C1238 1.353 . S
C1240 H1298 0.930 . S
C1241 N1237 1.279 . S
C1241 C1239 1.358 . S
C1241 H1299 0.930 . S
C1242 C1245 1.348 . S
C1242 C1246 1.356 . S
C1242 O1293 1.325 . S
C1243 N1244 1.279 . S
C1243 C1246 1.358 . S
C1243 H1300 0.930 . S
N1244 C1243 1.279 . S
N1244 C1247 1.314 . S
C1245 C1242 1.348 . S
C1245 C1247 1.353 . S
C1245 H1301 0.929 . S
C1246 C1242 1.356 . S
C1246 C1243 1.358 . S
C1246 H1302 0.930 . S
C1247 N1244 1.314 . S
C1247 C1245 1.353 . S
C1247 H1303 0.930 . S
C1248 N1249 1.314 . S
C1248 C1253 1.353 . S
C1248 H1254 0.930 . S
N1249 Li1232 1.990 . S
N1249 C1248 1.314 . S
N1249 C1251 1.279 . S
C1250 C1251 1.358 . S
C1250 C1252 1.356 . S
C1250 H1304 0.930 . S
C1251 N1249 1.279 . S
C1251 C1250 1.358 . S
C1251 H1255 0.930 . S
C1252 C1250 1.356 . S
C1252 C1253 1.348 . S
C1253 C1248 1.353 . S
C1253 C1252 1.348 . S
C1253 H1305 0.929 . S
H1254 C1248 0.930 . S
H1255 C1251 0.930 . S
C1256 N1257 1.314 . S
C1256 C1258 1.353 . S
C1256 H1262 0.930 . S
N1257 Li1233 1.990 . S
N1257 C1256 1.314 . S
N1257 C1260 1.279 . S
C1258 C1256 1.353 . S
C1258 C1261 1.348 . S
C1258 H1306 0.929 . S
C1259 C1260 1.358 . S
C1259 C1261 1.356 . S
C1259 H1307 0.930 . S
C1260 N1257 1.279 . S
C1260 C1259 1.358 . S
C1260 H1263 0.930 . S
C1261 C1258 1.348 . S
C1261 C1259 1.356 . S
H1262 C1256 0.930 . S
H1263 C1260 0.930 . S
C1264 C1266 1.348 . S
C1264 C1267 1.356 . S
C1264 O1294 1.325 . S
N1265 C1268 1.314 . S
N1265 C1269 1.279 . S
C1266 C1264 1.348 . S
C1266 C1268 1.353 . S
C1266 H1308 0.929 . S
C1267 C1264 1.356 . S
C1267 C1269 1.358 . S
C1267 H1309 0.930 . S
C1268 N1265 1.314 . S
C1268 C1266 1.353 . S
C1268 H1310 0.930 . S
C1269 N1265 1.279 . S
C1269 C1267 1.358 . S
C1269 H1311 0.930 . S
C1270 C1271 1.348 . S
C1270 C1272 1.356 . S
C1270 O1295 1.325 . S
C1271 C1270 1.348 . S
C1271 C1273 1.353 . S
C1271 H1312 0.929 . S
C1272 C1270 1.356 . S
C1272 C1274 1.358 . S
C1272 H1313 0.930 . S
C1273 C1271 1.353 . S
C1273 N1275 1.314 . S
C1273 H1314 0.930 . S
C1274 C1272 1.358 . S
C1274 N1275 1.279 . S
C1274 H1315 0.930 . S
N1275 C1273 1.314 . S
N1275 C1274 1.279 . S
C1276 C1278 1.353 . S
C1276 N1279 1.314 . S
C1276 H1282 0.930 . S
C1277 N1279 1.279 . S
C1277 C1280 1.358 . S
C1277 H1283 0.930 . S
C1278 C1276 1.353 . S
C1278 C1281 1.348 . S
C1278 H1316 0.929 . S
N1279 Li1234 1.990 . S
N1279 C1276 1.314 . S
N1279 C1277 1.279 . S
C1280 C1277 1.358 . S
C1280 C1281 1.356 . S
C1280 H1317 0.930 . S
C1281 C1278 1.348 . S
C1281 C1280 1.356 . S
H1282 C1276 0.930 . S
H1283 C1277 0.930 . S
C1284 N1285 1.314 . S
C1284 C1286 1.353 . S
C1284 H1290 0.930 . S
N1285 Li1235 1.990 . S
N1285 C1284 1.314 . S
N1285 C1288 1.279 . S
C1286 C1284 1.353 . S
C1286 C1289 1.348 . S
C1286 H1318 0.929 . S
C1287 C1288 1.358 . S
C1287 C1289 1.356 . S
C1287 H1319 0.930 . S
C1288 N1285 1.279 . S
C1288 C1287 1.358 . S
C1288 H1291 0.930 . S
C1289 C1286 1.348 . S
C1289 C1287 1.356 . S
H1290 C1284 0.930 . S
H1291 C1288 0.930 . S
O1292 Li1232 1.956 . S
O1292 Li1233 1.970 . S
O1292 Li1234 1.961 . S
O1292 C1236 1.325 . S
O1293 Li1232 1.970 . S
O1293 Li1233 1.956 . S
O1293 Li1235 1.961 . S
O1293 C1242 1.325 . S
O1294 Li1232 1.961 . S
O1294 Li1234 1.956 . S
O1294 Li1235 1.970 . S
O1294 C1264 1.325 . S
O1295 Li1233 1.961 . S
O1295 Li1234 1.970 . S
O1295 Li1235 1.956 . S
O1295 C1270 1.325 . S
H1296 C1238 0.929 . S
H1297 C1239 0.930 . S
H1298 C1240 0.930 . S
H1299 C1241 0.930 . S
H1300 C1243 0.930 . S
H1301 C1245 0.929 . S
H1302 C1246 0.930 . S
H1303 C1247 0.930 . S
H1304 C1250 0.930 . S
H1305 C1253 0.929 . S
H1306 C1258 0.929 . S
H1307 C1259 0.930 . S
H1308 C1266 0.929 . S
H1309 C1267 0.930 . S
H1310 C1268 0.930 . S
H1311 C1269 0.930 . S
H1312 C1271 0.929 . S
H1313 C1272 0.930 . S
H1314 C1273 0.930 . S
H1315 C1274 0.930 . S
H1316 C1278 0.929 . S
H1317 C1280 0.930 . S
H1318 C1286 0.929 . S
H1319 C1287 0.930 . S
Li1320 N1337 1.990 . S
Li1320 O1380 1.956 . S
Li1320 O1381 1.970 . S
Li1320 O1382 1.961 . S
Li1321 N1345 1.990 . S
Li1321 O1380 1.970 . S
Li1321 O1381 1.956 . S
Li1321 O1383 1.961 . S
Li1322 N1367 1.990 . S
Li1322 O1380 1.961 . S
Li1322 O1382 1.956 . S
Li1322 O1383 1.970 . S
Li1323 N1373 1.990 . S
Li1323 O1381 1.961 . S
Li1323 O1382 1.970 . S
Li1323 O1383 1.956 . S
C1324 C1326 1.348 . S
C1324 C1327 1.356 . S
C1324 O1380 1.325 . S
N1325 C1328 1.314 . S
N1325 C1329 1.279 . S
C1326 C1324 1.348 . S
C1326 C1328 1.353 . S
C1326 H1384 0.929 . S
C1327 C1324 1.356 . S
C1327 C1329 1.358 . S
C1327 H1385 0.930 . S
C1328 N1325 1.314 . S
C1328 C1326 1.353 . S
C1328 H1386 0.930 . S
C1329 N1325 1.279 . S
C1329 C1327 1.358 . S
C1329 H1387 0.930 . S
C1330 C1333 1.348 . S
C1330 C1334 1.356 . S
C1330 O1381 1.325 . S
C1331 N1332 1.279 . S
C1331 C1334 1.358 . S
C1331 H1388 0.930 . S
N1332 C1331 1.279 . S
N1332 C1335 1.314 . S
C1333 C1330 1.348 . S
C1333 C1335 1.353 . S
C1333 H1389 0.929 . S
C1334 C1330 1.356 . S
C1334 C1331 1.358 . S
C1334 H1390 0.930 . S
C1335 N1332 1.314 . S
C1335 C1333 1.353 . S
C1335 H1391 0.930 . S
C1336 N1337 1.314 . S
C1336 C1341 1.353 . S
C1336 H1342 0.930 . S
N1337 Li1320 1.990 . S
N1337 C1336 1.314 . S
N1337 C1339 1.279 . S
C1338 C1339 1.358 . S
C1338 C1340 1.356 . S
C1338 H1392 0.930 . S
C1339 N1337 1.279 . S
C1339 C1338 1.358 . S
C1339 H1343 0.930 . S
C1340 C1338 1.356 . S
C1340 C1341 1.348 . S
C1341 C1336 1.353 . S
C1341 C1340 1.348 . S
C1341 H1393 0.929 . S
H1342 C1336 0.930 . S
H1343 C1339 0.930 . S
C1344 N1345 1.314 . S
C1344 C1346 1.353 . S
C1344 H1350 0.930 . S
N1345 Li1321 1.990 . S
N1345 C1344 1.314 . S
N1345 C1348 1.279 . S
C1346 C1344 1.353 . S
C1346 C1349 1.348 . S
C1346 H1394 0.929 . S
C1347 C1348 1.358 . S
C1347 C1349 1.356 . S
C1347 H1395 0.930 . S
C1348 N1345 1.279 . S
C1348 C1347 1.358 . S
C1348 H1351 0.930 . S
C1349 C1346 1.348 . S
C1349 C1347 1.356 . S
H1350 C1344 0.930 . S
H1351 C1348 0.930 . S
C1352 C1354 1.348 . S
C1352 C1355 1.356 . S
C1352 O1382 1.325 . S
N1353 C1356 1.314 . S
N1353 C1357 1.279 . S
C1354 C1352 1.348 . S
C1354 C1356 1.353 . S
C1354 H1396 0.929 . S
C1355 C1352 1.356 . S
C1355 C1357 1.358 . S
C1355 H1397 0.930 . S
C1356 N1353 1.314 . S
C1356 C1354 1.353 . S
C1356 H1398 0.930 . S
C1357 N1353 1.279 . S
C1357 C1355 1.358 . S
C1357 H1399 0.930 . S
C1358 C1359 1.348 . S
C1358 C1360 1.356 . S
C1358 O1383 1.325 . S
C1359 C1358 1.348 . S
C1359 C1361 1.353 . S
C1359 H1400 0.929 . S
C1360 C1358 1.356 . S
C1360 C1362 1.358 . S
C1360 H1401 0.930 . S
C1361 C1359 1.353 . S
C1361 N1363 1.314 . S
C1361 H1402 0.930 . S
C1362 C1360 1.358 . S
C1362 N1363 1.279 . S
C1362 H1403 0.930 . S
N1363 C1361 1.314 . S
N1363 C1362 1.279 . S
C1364 C1366 1.353 . S
C1364 N1367 1.314 . S
C1364 H1370 0.930 . S
C1365 N1367 1.279 . S
C1365 C1368 1.358 . S
C1365 H1371 0.930 . S
C1366 C1364 1.353 . S
C1366 C1369 1.348 . S
C1366 H1404 0.929 . S
N1367 Li1322 1.990 . S
N1367 C1364 1.314 . S
N1367 C1365 1.279 . S
C1368 C1365 1.358 . S
C1368 C1369 1.356 . S
C1368 H1405 0.930 . S
C1369 C1366 1.348 . S
C1369 C1368 1.356 . S
H1370 C1364 0.930 . S
H1371 C1365 0.930 . S
C1372 N1373 1.314 . S
C1372 C1374 1.353 . S
C1372 H1378 0.930 . S
N1373 Li1323 1.990 . S
N1373 C1372 1.314 . S
N1373 C1376 1.279 . S
C1374 C1372 1.353 . S
C1374 C1377 1.348 . S
C1374 H1406 0.929 . S
C1375 C1376 1.358 . S
C1375 C1377 1.356 . S
C1375 H1407 0.930 . S
C1376 N1373 1.279 . S
C1376 C1375 1.358 . S
C1376 H1379 0.930 . S
C1377 C1374 1.348 . S
C1377 C1375 1.356 . S
H1378 C1372 0.930 . S
H1379 C1376 0.930 . S
O1380 Li1320 1.956 . S
O1380 Li1321 1.970 . S
O1380 Li1322 1.961 . S
O1380 C1324 1.325 . S
O1381 Li1320 1.970 . S
O1381 Li1321 1.956 . S
O1381 Li1323 1.961 . S
O1381 C1330 1.325 . S
O1382 Li1320 1.961 . S
O1382 Li1322 1.956 . S
O1382 Li1323 1.970 . S
O1382 C1352 1.325 . S
O1383 Li1321 1.961 . S
O1383 Li1322 1.970 . S
O1383 Li1323 1.956 . S
O1383 C1358 1.325 . S
H1384 C1326 0.929 . S
H1385 C1327 0.930 . S
H1386 C1328 0.930 . S
H1387 C1329 0.930 . S
H1388 C1331 0.930 . S
H1389 C1333 0.929 . S
H1390 C1334 0.930 . S
H1391 C1335 0.930 . S
H1392 C1338 0.930 . S
H1393 C1341 0.929 . S
H1394 C1346 0.929 . S
H1395 C1347 0.930 . S
H1396 C1354 0.929 . S
H1397 C1355 0.930 . S
H1398 C1356 0.930 . S
H1399 C1357 0.930 . S
H1400 C1359 0.929 . S
H1401 C1360 0.930 . S
H1402 C1361 0.930 . S
H1403 C1362 0.930 . S
H1404 C1366 0.929 . S
H1405 C1368 0.930 . S
H1406 C1374 0.929 . S
H1407 C1375 0.930 . S
C1408 C1409 1.349 . S
C1408 C1410 1.327 . S
C1408 H1433 0.950 . S
C1409 C1408 1.349 . S
C1409 C1425 1.349 . S
C1410 C1408 1.327 . S
C1410 C1429 1.429 . S
C1410 H1434 0.950 . S
C1411 C1428 1.574 . S
C1411 C1430 1.368 . S
C1411 H1435 0.949 . S
H1412 C1416 0.949 . S
C1413 C1414 1.349 . S
C1413 C1415 1.327 . S
C1413 H1436 0.950 . S
C1414 C1413 1.349 . S
C1414 C1426 1.349 . S
C1415 C1413 1.327 . S
C1415 C1431 1.429 . S
C1415 H1437 0.950 . S
C1416 H1412 0.949 . S
C1416 C1424 1.574 . S
C1416 C1432 1.368 . S
H1417 C1425 0.950 . S
H1418 C1423 0.950 . S
H1419 C1424 0.949 . S
H1420 C1426 0.950 . S
H1421 C1427 0.950 . S
H1422 C1428 0.949 . S
C1423 H1418 0.950 . S
C1423 C1425 1.327 . S
C1423 C1429 1.429 . S
C1424 C1416 1.574 . S
C1424 H1419 0.949 . S
C1424 C1430 1.368 . S
C1425 C1409 1.349 . S
C1425 H1417 0.950 . S
C1425 C1423 1.327 . S
C1426 C1414 1.349 . S
C1426 H1420 0.950 . S
C1426 C1427 1.327 . S
C1427 H1421 0.950 . S
C1427 C1426 1.327 . S
C1427 C1431 1.429 . S
C1428 C1411 1.574 . S
C1428 H1422 0.949 . S
C1428 C1432 1.368 . S
C1429 C1410 1.429 . S
C1429 C1423 1.429 . S
C1429 C1430 1.523 . S
C1430 C1411 1.368 . S
C1430 C1424 1.368 . S
C1430 C1429 1.523 . S
C1431 C1415 1.429 . S
C1431 C1427 1.429 . S
C1431 C1432 1.523 . S
C1432 C1416 1.368 . S
C1432 C1428 1.368 . S
C1432 C1431 1.523 . S
H1433 C1408 0.950 . S
H1434 C1410 0.950 . S
H1435 C1411 0.949 . S
H1436 C1413 0.950 . S
H1437 C1415 0.950 . S
C1438 C1439 1.349 . S
C1438 C1440 1.327 . S
C1438 H1463 0.950 . S
C1439 C1438 1.349 . S
C1439 C1455 1.349 . S
C1440 C1438 1.327 . S
C1440 C1459 1.429 . S
C1440 H1464 0.950 . S
C1441 C1458 1.574 . S
C1441 C1460 1.368 . S
C1441 H1465 0.949 . S
H1442 C1446 0.949 . S
C1443 C1444 1.349 . S
C1443 C1445 1.327 . S
C1443 H1466 0.950 . S
C1444 C1443 1.349 . S
C1444 C1456 1.349 . S
C1445 C1443 1.327 . S
C1445 C1461 1.429 . S
C1445 H1467 0.950 . S
C1446 H1442 0.949 . S
C1446 C1454 1.574 . S
C1446 C1462 1.368 . S
H1447 C1455 0.950 . S
H1448 C1453 0.950 . S
H1449 C1454 0.949 . S
H1450 C1456 0.950 . S
H1451 C1457 0.950 . S
H1452 C1458 0.949 . S
C1453 H1448 0.950 . S
C1453 C1455 1.327 . S
C1453 C1459 1.429 . S
C1454 C1446 1.574 . S
C1454 H1449 0.949 . S
C1454 C1460 1.368 . S
C1455 C1439 1.349 . S
C1455 H1447 0.950 . S
C1455 C1453 1.327 . S
C1456 C1444 1.349 . S
C1456 H1450 0.950 . S
C1456 C1457 1.327 . S
C1457 H1451 0.950 . S
C1457 C1456 1.327 . S
C1457 C1461 1.429 . S
C1458 C1441 1.574 . S
C1458 H1452 0.949 . S
C1458 C1462 1.368 . S
C1459 C1440 1.429 . S
C1459 C1453 1.429 . S
C1459 C1460 1.523 . S
C1460 C1441 1.368 . S
C1460 C1454 1.368 . S
C1460 C1459 1.523 . S
C1461 C1445 1.429 . S
C1461 C1457 1.429 . S
C1461 C1462 1.523 . S
C1462 C1446 1.368 . S
C1462 C1458 1.368 . S
C1462 C1461 1.523 . S
H1463 C1438 0.950 . S
H1464 C1440 0.950 . S
H1465 C1441 0.949 . S
H1466 C1443 0.950 . S
H1467 C1445 0.950 . S
C1468 C1469 1.349 . S
C1468 C1470 1.327 . S
C1468 H1493 0.950 . S
C1469 C1468 1.349 . S
C1469 C1485 1.349 . S
C1470 C1468 1.327 . S
C1470 C1489 1.429 . S
C1470 H1494 0.950 . S
C1471 C1488 1.574 . S
C1471 C1490 1.368 . S
C1471 H1495 0.949 . S
H1472 C1476 0.949 . S
C1473 C1474 1.349 . S
C1473 C1475 1.327 . S
C1473 H1496 0.950 . S
C1474 C1473 1.349 . S
C1474 C1486 1.349 . S
C1475 C1473 1.327 . S
C1475 C1491 1.429 . S
C1475 H1497 0.950 . S
C1476 H1472 0.949 . S
C1476 C1484 1.574 . S
C1476 C1492 1.368 . S
H1477 C1485 0.950 . S
H1478 C1483 0.950 . S
H1479 C1484 0.949 . S
H1480 C1486 0.950 . S
H1481 C1487 0.950 . S
H1482 C1488 0.949 . S
C1483 H1478 0.950 . S
C1483 C1485 1.327 . S
C1483 C1489 1.429 . S
C1484 C1476 1.574 . S
C1484 H1479 0.949 . S
C1484 C1490 1.368 . S
C1485 C1469 1.349 . S
C1485 H1477 0.950 . S
C1485 C1483 1.327 . S
C1486 C1474 1.349 . S
C1486 H1480 0.950 . S
C1486 C1487 1.327 . S
C1487 H1481 0.950 . S
C1487 C1486 1.327 . S
C1487 C1491 1.429 . S
C1488 C1471 1.574 . S
C1488 H1482 0.949 . S
C1488 C1492 1.368 . S
C1489 C1470 1.429 . S
C1489 C1483 1.429 . S
C1489 C1490 1.523 . S
C1490 C1471 1.368 . S
C1490 C1484 1.368 . S
C1490 C1489 1.523 . S
C1491 C1475 1.429 . S
C1491 C1487 1.429 . S
C1491 C1492 1.523 . S
C1492 C1476 1.368 . S
C1492 C1488 1.368 . S
C1492 C1491 1.523 . S
H1493 C1468 0.950 . S
H1494 C1470 0.950 . S
H1495 C1471 0.949 . S
H1496 C1473 0.950 . S
H1497 C1475 0.950 . S
C1498 C1499 1.349 . S
C1498 C1500 1.327 . S
C1498 H1523 0.950 . S
C1499 C1498 1.349 . S
C1499 C1515 1.349 . S
C1500 C1498 1.327 . S
C1500 C1519 1.429 . S
C1500 H1524 0.950 . S
C1501 C1518 1.574 . S
C1501 C1520 1.368 . S
C1501 H1525 0.949 . S
H1502 C1506 0.949 . S
C1503 C1504 1.349 . S
C1503 C1505 1.327 . S
C1503 H1526 0.950 . S
C1504 C1503 1.349 . S
C1504 C1516 1.349 . S
C1505 C1503 1.327 . S
C1505 C1521 1.429 . S
C1505 H1527 0.950 . S
C1506 H1502 0.949 . S
C1506 C1514 1.574 . S
C1506 C1522 1.368 . S
H1507 C1515 0.950 . S
H1508 C1513 0.950 . S
H1509 C1514 0.949 . S
H1510 C1516 0.950 . S
H1511 C1517 0.950 . S
H1512 C1518 0.949 . S
C1513 H1508 0.950 . S
C1513 C1515 1.327 . S
C1513 C1519 1.429 . S
C1514 C1506 1.574 . S
C1514 H1509 0.949 . S
C1514 C1520 1.368 . S
C1515 C1499 1.349 . S
C1515 H1507 0.950 . S
C1515 C1513 1.327 . S
C1516 C1504 1.349 . S
C1516 H1510 0.950 . S
C1516 C1517 1.327 . S
C1517 H1511 0.950 . S
C1517 C1516 1.327 . S
C1517 C1521 1.429 . S
C1518 C1501 1.574 . S
C1518 H1512 0.949 . S
C1518 C1522 1.368 . S
C1519 C1500 1.429 . S
C1519 C1513 1.429 . S
C1519 C1520 1.523 . S
C1520 C1501 1.368 . S
C1520 C1514 1.368 . S
C1520 C1519 1.523 . S
C1521 C1505 1.429 . S
C1521 C1517 1.429 . S
C1521 C1522 1.523 . S
C1522 C1506 1.368 . S
C1522 C1518 1.368 . S
C1522 C1521 1.523 . S
H1523 C1498 0.950 . S
H1524 C1500 0.950 . S
H1525 C1501 0.949 . S
H1526 C1503 0.950 . S
H1527 C1505 0.950 . S
C1528 C1529 1.349 . S
C1528 C1530 1.327 . S
C1528 H1553 0.950 . S
C1529 C1528 1.349 . S
C1529 C1545 1.349 . S
C1530 C1528 1.327 . S
C1530 C1549 1.429 . S
C1530 H1554 0.950 . S
C1531 C1548 1.574 . S
C1531 C1550 1.368 . S
C1531 H1555 0.949 . S
H1532 C1536 0.949 . S
C1533 C1534 1.349 . S
C1533 C1535 1.327 . S
C1533 H1556 0.950 . S
C1534 C1533 1.349 . S
C1534 C1546 1.349 . S
C1535 C1533 1.327 . S
C1535 C1551 1.429 . S
C1535 H1557 0.950 . S
C1536 H1532 0.949 . S
C1536 C1544 1.574 . S
C1536 C1552 1.368 . S
H1537 C1545 0.950 . S
H1538 C1543 0.950 . S
H1539 C1544 0.949 . S
H1540 C1546 0.950 . S
H1541 C1547 0.950 . S
H1542 C1548 0.949 . S
C1543 H1538 0.950 . S
C1543 C1545 1.327 . S
C1543 C1549 1.429 . S
C1544 C1536 1.574 . S
C1544 H1539 0.949 . S
C1544 C1550 1.368 . S
C1545 C1529 1.349 . S
C1545 H1537 0.950 . S
C1545 C1543 1.327 . S
C1546 C1534 1.349 . S
C1546 H1540 0.950 . S
C1546 C1547 1.327 . S
C1547 H1541 0.950 . S
C1547 C1546 1.327 . S
C1547 C1551 1.429 . S
C1548 C1531 1.574 . S
C1548 H1542 0.949 . S
C1548 C1552 1.368 . S
C1549 C1530 1.429 . S
C1549 C1543 1.429 . S
C1549 C1550 1.523 . S
C1550 C1531 1.368 . S
C1550 C1544 1.368 . S
C1550 C1549 1.523 . S
C1551 C1535 1.429 . S
C1551 C1547 1.429 . S
C1551 C1552 1.523 . S
C1552 C1536 1.368 . S
C1552 C1548 1.368 . S
C1552 C1551 1.523 . S
H1553 C1528 0.950 . S
H1554 C1530 0.950 . S
H1555 C1531 0.949 . S
H1556 C1533 0.950 . S
H1557 C1535 0.950 . S
C1558 C1559 1.349 . S
C1558 C1560 1.327 . S
C1558 H1583 0.950 . S
C1559 C1558 1.349 . S
C1559 C1575 1.349 . S
C1560 C1558 1.327 . S
C1560 C1579 1.429 . S
C1560 H1584 0.950 . S
C1561 C1578 1.574 . S
C1561 C1580 1.368 . S
C1561 H1585 0.949 . S
H1562 C1566 0.949 . S
C1563 C1564 1.349 . S
C1563 C1565 1.327 . S
C1563 H1586 0.950 . S
C1564 C1563 1.349 . S
C1564 C1576 1.349 . S
C1565 C1563 1.327 . S
C1565 C1581 1.429 . S
C1565 H1587 0.950 . S
C1566 H1562 0.949 . S
C1566 C1574 1.574 . S
C1566 C1582 1.368 . S
H1567 C1575 0.950 . S
H1568 C1573 0.950 . S
H1569 C1574 0.949 . S
H1570 C1576 0.950 . S
H1571 C1577 0.950 . S
H1572 C1578 0.949 . S
C1573 H1568 0.950 . S
C1573 C1575 1.327 . S
C1573 C1579 1.429 . S
C1574 C1566 1.574 . S
C1574 H1569 0.949 . S
C1574 C1580 1.368 . S
C1575 C1559 1.349 . S
C1575 H1567 0.950 . S
C1575 C1573 1.327 . S
C1576 C1564 1.349 . S
C1576 H1570 0.950 . S
C1576 C1577 1.327 . S
C1577 H1571 0.950 . S
C1577 C1576 1.327 . S
C1577 C1581 1.429 . S
C1578 C1561 1.574 . S
C1578 H1572 0.949 . S
C1578 C1582 1.368 . S
C1579 C1560 1.429 . S
C1579 C1573 1.429 . S
C1579 C1580 1.523 . S
C1580 C1561 1.368 . S
C1580 C1574 1.368 . S
C1580 C1579 1.523 . S
C1581 C1565 1.429 . S
C1581 C1577 1.429 . S
C1581 C1582 1.523 . S
C1582 C1566 1.368 . S
C1582 C1578 1.368 . S
C1582 C1581 1.523 . S
H1583 C1558 0.950 . S
H1584 C1560 0.950 . S
H1585 C1561 0.949 . S
H1586 C1563 0.950 . S
H1587 C1565 0.950 . S
C1588 C1589 1.349 . S
C1588 C1590 1.327 . S
C1588 H1613 0.950 . S
C1589 C1588 1.349 . S
C1589 C1605 1.349 . S
C1590 C1588 1.327 . S
C1590 C1609 1.429 . S
C1590 H1614 0.950 . S
C1591 C1608 1.574 . S
C1591 C1610 1.368 . S
C1591 H1615 0.949 . S
H1592 C1596 0.949 . S
C1593 C1594 1.349 . S
C1593 C1595 1.327 . S
C1593 H1616 0.950 . S
C1594 C1593 1.349 . S
C1594 C1606 1.349 . S
C1595 C1593 1.327 . S
C1595 C1611 1.429 . S
C1595 H1617 0.950 . S
C1596 H1592 0.949 . S
C1596 C1604 1.574 . S
C1596 C1612 1.368 . S
H1597 C1605 0.950 . S
H1598 C1603 0.950 . S
H1599 C1604 0.949 . S
H1600 C1606 0.950 . S
H1601 C1607 0.950 . S
H1602 C1608 0.949 . S
C1603 H1598 0.950 . S
C1603 C1605 1.327 . S
C1603 C1609 1.429 . S
C1604 C1596 1.574 . S
C1604 H1599 0.949 . S
C1604 C1610 1.368 . S
C1605 C1589 1.349 . S
C1605 H1597 0.950 . S
C1605 C1603 1.327 . S
C1606 C1594 1.349 . S
C1606 H1600 0.950 . S
C1606 C1607 1.327 . S
C1607 H1601 0.950 . S
C1607 C1606 1.327 . S
C1607 C1611 1.429 . S
C1608 C1591 1.574 . S
C1608 H1602 0.949 . S
C1608 C1612 1.368 . S
C1609 C1590 1.429 . S
C1609 C1603 1.429 . S
C1609 C1610 1.523 . S
C1610 C1591 1.368 . S
C1610 C1604 1.368 . S
C1610 C1609 1.523 . S
C1611 C1595 1.429 . S
C1611 C1607 1.429 . S
C1611 C1612 1.523 . S
C1612 C1596 1.368 . S
C1612 C1608 1.368 . S
C1612 C1611 1.523 . S
H1613 C1588 0.950 . S
H1614 C1590 0.950 . S
H1615 C1591 0.949 . S
H1616 C1593 0.950 . S
H1617 C1595 0.950 . S
C1618 C1619 1.349 . S
C1618 C1620 1.327 . S
C1618 H1643 0.950 . S
C1619 C1618 1.349 . S
C1619 C1635 1.349 . S
C1620 C1618 1.327 . S
C1620 C1639 1.429 . S
C1620 H1644 0.950 . S
C1621 C1638 1.574 . S
C1621 C1640 1.368 . S
C1621 H1645 0.949 . S
H1622 C1626 0.949 . S
C1623 C1624 1.349 . S
C1623 C1625 1.327 . S
C1623 H1646 0.950 . S
C1624 C1623 1.349 . S
C1624 C1636 1.349 . S
C1625 C1623 1.327 . S
C1625 C1641 1.429 . S
C1625 H1647 0.950 . S
C1626 H1622 0.949 . S
C1626 C1634 1.574 . S
C1626 C1642 1.368 . S
H1627 C1635 0.950 . S
H1628 C1633 0.950 . S
H1629 C1634 0.949 . S
H1630 C1636 0.950 . S
H1631 C1637 0.950 . S
H1632 C1638 0.949 . S
C1633 H1628 0.950 . S
C1633 C1635 1.327 . S
C1633 C1639 1.429 . S
C1634 C1626 1.574 . S
C1634 H1629 0.949 . S
C1634 C1640 1.368 . S
C1635 C1619 1.349 . S
C1635 H1627 0.950 . S
C1635 C1633 1.327 . S
C1636 C1624 1.349 . S
C1636 H1630 0.950 . S
C1636 C1637 1.327 . S
C1637 H1631 0.950 . S
C1637 C1636 1.327 . S
C1637 C1641 1.429 . S
C1638 C1621 1.574 . S
C1638 H1632 0.949 . S
C1638 C1642 1.368 . S
C1639 C1620 1.429 . S
C1639 C1633 1.429 . S
C1639 C1640 1.523 . S
C1640 C1621 1.368 . S
C1640 C1634 1.368 . S
C1640 C1639 1.523 . S
C1641 C1625 1.429 . S
C1641 C1637 1.429 . S
C1641 C1642 1.523 . S
C1642 C1626 1.368 . S
C1642 C1638 1.368 . S
C1642 C1641 1.523 . S
H1643 C1618 0.950 . S
H1644 C1620 0.950 . S
H1645 C1621 0.949 . S
H1646 C1623 0.950 . S
H1647 C1625 0.950 . S
C1648 C1649 1.349 . S
C1648 C1650 1.327 . S
C1648 H1673 0.950 . S
C1649 C1648 1.349 . S
C1649 C1665 1.349 . S
C1650 C1648 1.327 . S
C1650 C1669 1.429 . S
C1650 H1674 0.950 . S
C1651 C1668 1.574 . S
C1651 C1670 1.368 . S
C1651 H1675 0.949 . S
H1652 C1656 0.949 . S
C1653 C1654 1.349 . S
C1653 C1655 1.327 . S
C1653 H1676 0.950 . S
C1654 C1653 1.349 . S
C1654 C1666 1.349 . S
C1655 C1653 1.327 . S
C1655 C1671 1.429 . S
C1655 H1677 0.950 . S
C1656 H1652 0.949 . S
C1656 C1664 1.574 . S
C1656 C1672 1.368 . S
H1657 C1665 0.950 . S
H1658 C1663 0.950 . S
H1659 C1664 0.949 . S
H1660 C1666 0.950 . S
H1661 C1667 0.950 . S
H1662 C1668 0.949 . S
C1663 H1658 0.950 . S
C1663 C1665 1.327 . S
C1663 C1669 1.429 . S
C1664 C1656 1.574 . S
C1664 H1659 0.949 . S
C1664 C1670 1.368 . S
C1665 C1649 1.349 . S
C1665 H1657 0.950 . S
C1665 C1663 1.327 . S
C1666 C1654 1.349 . S
C1666 H1660 0.950 . S
C1666 C1667 1.327 . S
C1667 H1661 0.950 . S
C1667 C1666 1.327 . S
C1667 C1671 1.429 . S
C1668 C1651 1.574 . S
C1668 H1662 0.949 . S
C1668 C1672 1.368 . S
C1669 C1650 1.429 . S
C1669 C1663 1.429 . S
C1669 C1670 1.523 . S
C1670 C1651 1.368 . S
C1670 C1664 1.368 . S
C1670 C1669 1.523 . S
C1671 C1655 1.429 . S
C1671 C1667 1.429 . S
C1671 C1672 1.523 . S
C1672 C1656 1.368 . S
C1672 C1668 1.368 . S
C1672 C1671 1.523 . S
H1673 C1648 0.950 . S
H1674 C1650 0.950 . S
H1675 C1651 0.949 . S
H1676 C1653 0.950 . S
H1677 C1655 0.950 . S
C1678 C1679 1.349 1_565 S
C1678 C1680 1.327 . S
C1678 H1703 0.950 . S
C1679 C1678 1.349 1_545 S
C1679 C1695 1.349 1_655 S
C1680 C1678 1.327 . S
C1680 C1699 1.429 1_565 S
C1680 H1704 0.950 . S
C1681 C1698 1.574 . S
C1681 C1700 1.368 1_455 S
C1681 H1705 0.949 . S
H1682 C1686 0.949 . S
C1683 C1684 1.349 1_445 S
C1683 C1685 1.327 . S
C1683 H1706 0.950 . S
C1684 C1683 1.349 1_665 S
C1684 C1696 1.349 . S
C1685 C1683 1.327 . S
C1685 C1701 1.429 1_445 S
C1685 H1707 0.950 . S
C1686 H1682 0.949 . S
C1686 C1694 1.574 . S
C1686 C1702 1.368 . S
H1687 C1695 0.950 . S
H1688 C1693 0.950 . S
H1689 C1694 0.949 . S
H1690 C1696 0.950 . S
H1691 C1697 0.950 . S
H1692 C1698 0.949 . S
C1693 H1688 0.950 . S
C1693 C1695 1.327 . S
C1693 C1699 1.429 1_455 S
C1694 C1686 1.574 . S
C1694 H1689 0.949 . S
C1694 C1700 1.368 1_565 S
C1695 C1679 1.349 1_455 S
C1695 H1687 0.950 . S
C1695 C1693 1.327 . S
C1696 C1684 1.349 . S
C1696 H1690 0.950 . S
C1696 C1697 1.327 . S
C1697 H1691 0.950 . S
C1697 C1696 1.327 . S
C1697 C1701 1.429 . S
C1698 C1681 1.574 . S
C1698 H1692 0.949 . S
C1698 C1702 1.368 1_445 S
C1699 C1680 1.429 1_545 S
C1699 C1693 1.429 1_655 S
C1699 C1700 1.523 . S
C1700 C1681 1.368 1_655 S
C1700 C1694 1.368 1_545 S
C1700 C1699 1.523 . S
C1701 C1685 1.429 1_665 S
C1701 C1697 1.429 . S
C1701 C1702 1.523 . S
C1702 C1686 1.368 . S
C1702 C1698 1.368 1_665 S
C1702 C1701 1.523 . S
H1703 C1678 0.950 . S
H1704 C1680 0.950 . S
H1705 C1681 0.949 . S
H1706 C1683 0.950 . S
H1707 C1685 0.950 . S
C1708 C1709 1.349 . S
C1708 C1710 1.327 . S
C1708 H1733 0.950 . S
C1709 C1708 1.349 . S
C1709 C1725 1.349 . S
C1710 C1708 1.327 . S
C1710 C1729 1.429 . S
C1710 H1734 0.950 . S
C1711 C1728 1.574 1_556 S
C1711 C1730 1.368 . S
C1711 H1735 0.949 . S
H1712 C1716 0.949 . S
C1713 C1714 1.349 . S
C1713 C1715 1.327 . S
C1713 H1736 0.950 . S
C1714 C1713 1.349 . S
C1714 C1726 1.349 . S
C1715 C1713 1.327 . S
C1715 C1731 1.429 . S
C1715 H1737 0.950 . S
C1716 H1712 0.949 . S
C1716 C1724 1.574 1_554 S
C1716 C1732 1.368 . S
H1717 C1725 0.950 . S
H1718 C1723 0.950 . S
H1719 C1724 0.949 . S
H1720 C1726 0.950 . S
H1721 C1727 0.950 . S
H1722 C1728 0.949 . S
C1723 H1718 0.950 . S
C1723 C1725 1.327 . S
C1723 C1729 1.429 . S
C1724 C1716 1.574 1_556 S
C1724 H1719 0.949 . S
C1724 C1730 1.368 . S
C1725 C1709 1.349 . S
C1725 H1717 0.950 . S
C1725 C1723 1.327 . S
C1726 C1714 1.349 . S
C1726 H1720 0.950 . S
C1726 C1727 1.327 . S
C1727 H1721 0.950 . S
C1727 C1726 1.327 . S
C1727 C1731 1.429 . S
C1728 C1711 1.574 1_554 S
C1728 H1722 0.949 . S
C1728 C1732 1.368 . S
C1729 C1710 1.429 . S
C1729 C1723 1.429 . S
C1729 C1730 1.523 . S
C1730 C1711 1.368 . S
C1730 C1724 1.368 . S
C1730 C1729 1.523 . S
C1731 C1715 1.429 . S
C1731 C1727 1.429 . S
C1731 C1732 1.523 . S
C1732 C1716 1.368 . S
C1732 C1728 1.368 . S
C1732 C1731 1.523 . S
H1733 C1708 0.950 . S
H1734 C1710 0.950 . S
H1735 C1711 0.949 . S
H1736 C1713 0.950 . S
H1737 C1715 0.950 . S
C1738 C1739 1.349 . S
C1738 C1740 1.327 . S
C1738 H1763 0.950 . S
C1739 C1738 1.349 . S
C1739 C1755 1.349 1_565 S
C1740 C1738 1.327 . S
C1740 C1759 1.429 . S
C1740 H1764 0.950 . S
C1741 C1758 1.574 . S
C1741 C1760 1.368 1_545 S
C1741 H1765 0.949 . S
H1742 C1746 0.949 . S
C1743 C1744 1.349 . S
C1743 C1745 1.327 . S
C1743 H1766 0.950 . S
C1744 C1743 1.349 . S
C1744 C1756 1.349 1_545 S
C1745 C1743 1.327 . S
C1745 C1761 1.429 . S
C1745 H1767 0.950 . S
C1746 H1742 0.949 . S
C1746 C1754 1.574 . S
C1746 C1762 1.368 1_565 S
H1747 C1755 0.950 . S
H1748 C1753 0.950 . S
H1749 C1754 0.949 . S
H1750 C1756 0.950 . S
H1751 C1757 0.950 . S
H1752 C1758 0.949 . S
C1753 H1748 0.950 . S
C1753 C1755 1.327 . S
C1753 C1759 1.429 1_545 S
C1754 C1746 1.574 . S
C1754 H1749 0.949 . S
C1754 C1760 1.368 . S
C1755 C1739 1.349 1_545 S
C1755 H1747 0.950 . S
C1755 C1753 1.327 . S
C1756 C1744 1.349 1_565 S
C1756 H1750 0.950 . S
C1756 C1757 1.327 . S
C1757 H1751 0.950 . S
C1757 C1756 1.327 . S
C1757 C1761 1.429 1_565 S
C1758 C1741 1.574 . S
C1758 H1752 0.949 . S
C1758 C1762 1.368 . S
C1759 C1740 1.429 . S
C1759 C1753 1.429 1_565 S
C1759 C1760 1.523 . S
C1760 C1741 1.368 1_565 S
C1760 C1754 1.368 . S
C1760 C1759 1.523 . S
C1761 C1745 1.429 . S
C1761 C1757 1.429 1_545 S
C1761 C1762 1.523 . S
C1762 C1746 1.368 1_545 S
C1762 C1758 1.368 . S
C1762 C1761 1.523 . S
H1763 C1738 0.950 . S
H1764 C1740 0.950 . S
H1765 C1741 0.949 . S
H1766 C1743 0.950 . S
H1767 C1745 0.950 . S
C1768 C1769 1.349 . S
C1768 C1770 1.327 . S
C1768 H1793 0.950 . S
C1769 C1768 1.349 . S
C1769 C1785 1.349 . S
C1770 C1768 1.327 . S
C1770 C1789 1.429 . S
C1770 H1794 0.950 . S
C1771 C1788 1.574 . S
C1771 C1790 1.368 . S
C1771 H1795 0.949 . S
H1772 C1776 0.949 . S
C1773 C1774 1.349 . S
C1773 C1775 1.327 . S
C1773 H1796 0.950 . S
C1774 C1773 1.349 . S
C1774 C1786 1.349 . S
C1775 C1773 1.327 . S
C1775 C1791 1.429 . S
C1775 H1797 0.950 . S
C1776 H1772 0.949 . S
C1776 C1784 1.574 . S
C1776 C1792 1.368 . S
H1777 C1785 0.950 . S
H1778 C1783 0.950 . S
H1779 C1784 0.949 . S
H1780 C1786 0.950 . S
H1781 C1787 0.950 . S
H1782 C1788 0.949 . S
C1783 H1778 0.950 . S
C1783 C1785 1.327 . S
C1783 C1789 1.429 . S
C1784 C1776 1.574 . S
C1784 H1779 0.949 . S
C1784 C1790 1.368 . S
C1785 C1769 1.349 . S
C1785 H1777 0.950 . S
C1785 C1783 1.327 . S
C1786 C1774 1.349 . S
C1786 H1780 0.950 . S
C1786 C1787 1.327 . S
C1787 H1781 0.950 . S
C1787 C1786 1.327 . S
C1787 C1791 1.429 . S
C1788 C1771 1.574 . S
C1788 H1782 0.949 . S
C1788 C1792 1.368 . S
C1789 C1770 1.429 . S
C1789 C1783 1.429 . S
C1789 C1790 1.523 . S
C1790 C1771 1.368 . S
C1790 C1784 1.368 . S
C1790 C1789 1.523 . S
C1791 C1775 1.429 . S
C1791 C1787 1.429 . S
C1791 C1792 1.523 . S
C1792 C1776 1.368 . S
C1792 C1788 1.368 . S
C1792 C1791 1.523 . S
H1793 C1768 0.950 . S
H1794 C1770 0.950 . S
H1795 C1771 0.949 . S
H1796 C1773 0.950 . S
H1797 C1775 0.950 . S
C1798 C1799 1.349 1_455 S
C1798 C1800 1.327 . S
C1798 H1823 0.950 . S
C1799 C1798 1.349 1_655 S
C1799 C1815 1.349 . S
C1800 C1798 1.327 . S
C1800 C1819 1.429 1_455 S
C1800 H1824 0.950 . S
C1801 C1818 1.574 . S
C1801 C1820 1.368 . S
C1801 H1825 0.949 . S
H1802 C1806 0.949 . S
C1803 C1804 1.349 1_655 S
C1803 C1805 1.327 . S
C1803 H1826 0.950 . S
C1804 C1803 1.349 1_455 S
C1804 C1816 1.349 . S
C1805 C1803 1.327 . S
C1805 C1821 1.429 1_655 S
C1805 H1827 0.950 . S
C1806 H1802 0.949 . S
C1806 C1814 1.574 . S
C1806 C1822 1.368 . S
H1807 C1815 0.950 . S
H1808 C1813 0.950 . S
H1809 C1814 0.949 . S
H1810 C1816 0.950 . S
H1811 C1817 0.950 . S
H1812 C1818 0.949 . S
C1813 H1808 0.950 . S
C1813 C1815 1.327 . S
C1813 C1819 1.429 . S
C1814 C1806 1.574 . S
C1814 H1809 0.949 . S
C1814 C1820 1.368 1_455 S
C1815 C1799 1.349 . S
C1815 H1807 0.950 . S
C1815 C1813 1.327 . S
C1816 C1804 1.349 . S
C1816 H1810 0.950 . S
C1816 C1817 1.327 . S
C1817 H1811 0.950 . S
C1817 C1816 1.327 . S
C1817 C1821 1.429 . S
C1818 C1801 1.574 . S
C1818 H1812 0.949 . S
C1818 C1822 1.368 1_655 S
C1819 C1800 1.429 1_655 S
C1819 C1813 1.429 . S
C1819 C1820 1.523 . S
C1820 C1801 1.368 . S
C1820 C1814 1.368 1_655 S
C1820 C1819 1.523 . S
C1821 C1805 1.429 1_455 S
C1821 C1817 1.429 . S
C1821 C1822 1.523 . S
C1822 C1806 1.368 . S
C1822 C1818 1.368 1_455 S
C1822 C1821 1.523 . S
H1823 C1798 0.950 . S
H1824 C1800 0.950 . S
H1825 C1801 0.949 . S
H1826 C1803 0.950 . S
H1827 C1805 0.950 . S
C1828 C1829 1.349 . S
C1828 C1830 1.327 . S
C1828 H1853 0.950 . S
C1829 C1828 1.349 . S
C1829 C1845 1.349 . S
C1830 C1828 1.327 . S
C1830 C1849 1.429 . S
C1830 H1854 0.950 . S
C1831 C1848 1.574 1_655 S
C1831 C1850 1.368 . S
C1831 H1855 0.949 . S
H1832 C1836 0.949 . S
C1833 C1834 1.349 . S
C1833 C1835 1.327 . S
C1833 H1856 0.950 . S
C1834 C1833 1.349 . S
C1834 C1846 1.349 . S
C1835 C1833 1.327 . S
C1835 C1851 1.429 . S
C1835 H1857 0.950 . S
C1836 H1832 0.949 . S
C1836 C1844 1.574 1_455 S
C1836 C1852 1.368 . S
H1837 C1845 0.950 . S
H1838 C1843 0.950 . S
H1839 C1844 0.949 . S
H1840 C1846 0.950 . S
H1841 C1847 0.950 . S
H1842 C1848 0.949 . S
C1843 H1838 0.950 . S
C1843 C1845 1.327 . S
C1843 C1849 1.429 . S
C1844 C1836 1.574 1_655 S
C1844 H1839 0.949 . S
C1844 C1850 1.368 . S
C1845 C1829 1.349 . S
C1845 H1837 0.950 . S
C1845 C1843 1.327 . S
C1846 C1834 1.349 . S
C1846 H1840 0.950 . S
C1846 C1847 1.327 . S
C1847 H1841 0.950 . S
C1847 C1846 1.327 . S
C1847 C1851 1.429 . S
C1848 C1831 1.574 1_455 S
C1848 H1842 0.949 . S
C1848 C1852 1.368 . S
C1849 C1830 1.429 . S
C1849 C1843 1.429 . S
C1849 C1850 1.523 . S
C1850 C1831 1.368 . S
C1850 C1844 1.368 . S
C1850 C1849 1.523 . S
C1851 C1835 1.429 . S
C1851 C1847 1.429 . S
C1851 C1852 1.523 . S
C1852 C1836 1.368 . S
C1852 C1848 1.368 . S
C1852 C1851 1.523 . S
H1853 C1828 0.950 . S
H1854 C1830 0.950 . S
H1855 C1831 0.949 . S
H1856 C1833 0.950 . S
H1857 C1835 0.950 . S
C1858 C1859 1.349 . S
C1858 C1860 1.327 . S
C1858 H1883 0.950 . S
C1859 C1858 1.349 . S
C1859 C1875 1.349 1_554 S
C1860 C1858 1.327 . S
C1860 C1879 1.429 . S
C1860 H1884 0.950 . S
C1861 C1878 1.574 . S
C1861 C1880 1.368 1_556 S
C1861 H1885 0.949 . S
H1862 C1866 0.949 . S
C1863 C1864 1.349 1_556 S
C1863 C1865 1.327 . S
C1863 H1886 0.950 . S
C1864 C1863 1.349 1_554 S
C1864 C1876 1.349 . S
C1865 C1863 1.327 . S
C1865 C1881 1.429 1_556 S
C1865 H1887 0.950 . S
C1866 H1862 0.949 . S
C1866 C1874 1.574 . S
C1866 C1882 1.368 . S
H1867 C1875 0.950 . S
H1868 C1873 0.950 . S
H1869 C1874 0.949 . S
H1870 C1876 0.950 . S
H1871 C1877 0.950 . S
H1872 C1878 0.949 . S
C1873 H1868 0.950 . S
C1873 C1875 1.327 . S
C1873 C1879 1.429 1_556 S
C1874 C1866 1.574 . S
C1874 H1869 0.949 . S
C1874 C1880 1.368 . S
C1875 C1859 1.349 1_556 S
C1875 H1867 0.950 . S
C1875 C1873 1.327 . S
C1876 C1864 1.349 . S
C1876 H1870 0.950 . S
C1876 C1877 1.327 . S
C1877 H1871 0.950 . S
C1877 C1876 1.327 . S
C1877 C1881 1.429 . S
C1878 C1861 1.574 . S
C1878 H1872 0.949 . S
C1878 C1882 1.368 1_556 S
C1879 C1860 1.429 . S
C1879 C1873 1.429 1_554 S
C1879 C1880 1.523 . S
C1880 C1861 1.368 1_554 S
C1880 C1874 1.368 . S
C1880 C1879 1.523 . S
C1881 C1865 1.429 1_554 S
C1881 C1877 1.429 . S
C1881 C1882 1.523 . S
C1882 C1866 1.368 . S
C1882 C1878 1.368 1_554 S
C1882 C1881 1.523 . S
H1883 C1858 0.950 . S
H1884 C1860 0.950 . S
H1885 C1861 0.949 . S
H1886 C1863 0.950 . S
H1887 C1865 0.950 . S
C1888 C1889 1.349 . S
C1888 C1890 1.327 . S
C1888 H1913 0.950 . S
C1889 C1888 1.349 . S
C1889 C1905 1.349 . S
C1890 C1888 1.327 . S
C1890 C1909 1.429 . S
C1890 H1914 0.950 . S
C1891 C1908 1.574 . S
C1891 C1910 1.368 . S
C1891 H1915 0.949 . S
H1892 C1896 0.949 . S
C1893 C1894 1.349 . S
C1893 C1895 1.327 . S
C1893 H1916 0.950 . S
C1894 C1893 1.349 . S
C1894 C1906 1.349 . S
C1895 C1893 1.327 . S
C1895 C1911 1.429 . S
C1895 H1917 0.950 . S
C1896 H1892 0.949 . S
C1896 C1904 1.574 . S
C1896 C1912 1.368 . S
H1897 C1905 0.950 . S
H1898 C1903 0.950 . S
H1899 C1904 0.949 . S
H1900 C1906 0.950 . S
H1901 C1907 0.950 . S
H1902 C1908 0.949 . S
C1903 H1898 0.950 . S
C1903 C1905 1.327 . S
C1903 C1909 1.429 . S
C1904 C1896 1.574 . S
C1904 H1899 0.949 . S
C1904 C1910 1.368 . S
C1905 C1889 1.349 . S
C1905 H1897 0.950 . S
C1905 C1903 1.327 . S
C1906 C1894 1.349 . S
C1906 H1900 0.950 . S
C1906 C1907 1.327 . S
C1907 H1901 0.950 . S
C1907 C1906 1.327 . S
C1907 C1911 1.429 . S
C1908 C1891 1.574 . S
C1908 H1902 0.949 . S
C1908 C1912 1.368 . S
C1909 C1890 1.429 . S
C1909 C1903 1.429 . S
C1909 C1910 1.523 . S
C1910 C1891 1.368 . S
C1910 C1904 1.368 . S
C1910 C1909 1.523 . S
C1911 C1895 1.429 . S
C1911 C1907 1.429 . S
C1911 C1912 1.523 . S
C1912 C1896 1.368 . S
C1912 C1908 1.368 . S
C1912 C1911 1.523 . S
H1913 C1888 0.950 . S
H1914 C1890 0.950 . S
H1915 C1891 0.949 . S
H1916 C1893 0.950 . S
H1917 C1895 0.950 . S
C1918 C1919 1.349 . S
C1918 C1920 1.327 . S
C1918 H1943 0.950 . S
C1919 C1918 1.349 . S
C1919 C1935 1.349 . S
C1920 C1918 1.327 . S
C1920 C1939 1.429 . S
C1920 H1944 0.950 . S
C1921 C1938 1.574 . S
C1921 C1940 1.368 . S
C1921 H1945 0.949 . S
H1922 C1926 0.949 . S
C1923 C1924 1.349 . S
C1923 C1925 1.327 . S
C1923 H1946 0.950 . S
C1924 C1923 1.349 . S
C1924 C1936 1.349 . S
C1925 C1923 1.327 . S
C1925 C1941 1.429 . S
C1925 H1947 0.950 . S
C1926 H1922 0.949 . S
C1926 C1934 1.574 . S
C1926 C1942 1.368 . S
H1927 C1935 0.950 . S
H1928 C1933 0.950 . S
H1929 C1934 0.949 . S
H1930 C1936 0.950 . S
H1931 C1937 0.950 . S
H1932 C1938 0.949 . S
C1933 H1928 0.950 . S
C1933 C1935 1.327 . S
C1933 C1939 1.429 . S
C1934 C1926 1.574 . S
C1934 H1929 0.949 . S
C1934 C1940 1.368 . S
C1935 C1919 1.349 . S
C1935 H1927 0.950 . S
C1935 C1933 1.327 . S
C1936 C1924 1.349 . S
C1936 H1930 0.950 . S
C1936 C1937 1.327 . S
C1937 H1931 0.950 . S
C1937 C1936 1.327 . S
C1937 C1941 1.429 . S
C1938 C1921 1.574 . S
C1938 H1932 0.949 . S
C1938 C1942 1.368 . S
C1939 C1920 1.429 . S
C1939 C1933 1.429 . S
C1939 C1940 1.523 . S
C1940 C1921 1.368 . S
C1940 C1934 1.368 . S
C1940 C1939 1.523 . S
C1941 C1925 1.429 . S
C1941 C1937 1.429 . S
C1941 C1942 1.523 . S
C1942 C1926 1.368 . S
C1942 C1938 1.368 . S
C1942 C1941 1.523 . S
H1943 C1918 0.950 . S
H1944 C1920 0.950 . S
H1945 C1921 0.949 . S
H1946 C1923 0.950 . S
H1947 C1925 0.950 . S
C1948 C1949 1.349 . S
C1948 C1950 1.327 . S
C1948 H1973 0.950 . S
C1949 C1948 1.349 . S
C1949 C1965 1.349 . S
C1950 C1948 1.327 . S
C1950 C1969 1.429 . S
C1950 H1974 0.950 . S
C1951 C1968 1.574 1_455 S
C1951 C1970 1.368 . S
C1951 H1975 0.949 . S
H1952 C1956 0.949 . S
C1953 C1954 1.349 . S
C1953 C1955 1.327 . S
C1953 H1976 0.950 . S
C1954 C1953 1.349 . S
C1954 C1966 1.349 . S
C1955 C1953 1.327 . S
C1955 C1971 1.429 . S
C1955 H1977 0.950 . S
C1956 H1952 0.949 . S
C1956 C1964 1.574 1_655 S
C1956 C1972 1.368 . S
H1957 C1965 0.950 . S
H1958 C1963 0.950 . S
H1959 C1964 0.949 . S
H1960 C1966 0.950 . S
H1961 C1967 0.950 . S
H1962 C1968 0.949 . S
C1963 H1958 0.950 . S
C1963 C1965 1.327 . S
C1963 C1969 1.429 . S
C1964 C1956 1.574 1_455 S
C1964 H1959 0.949 . S
C1964 C1970 1.368 . S
C1965 C1949 1.349 . S
C1965 H1957 0.950 . S
C1965 C1963 1.327 . S
C1966 C1954 1.349 . S
C1966 H1960 0.950 . S
C1966 C1967 1.327 . S
C1967 H1961 0.950 . S
C1967 C1966 1.327 . S
C1967 C1971 1.429 . S
C1968 C1951 1.574 1_655 S
C1968 H1962 0.949 . S
C1968 C1972 1.368 . S
C1969 C1950 1.429 . S
C1969 C1963 1.429 . S
C1969 C1970 1.523 . S
C1970 C1951 1.368 . S
C1970 C1964 1.368 . S
C1970 C1969 1.523 . S
C1971 C1955 1.429 . S
C1971 C1967 1.429 . S
C1971 C1972 1.523 . S
C1972 C1956 1.368 . S
C1972 C1968 1.368 . S
C1972 C1971 1.523 . S
H1973 C1948 0.950 . S
H1974 C1950 0.950 . S
H1975 C1951 0.949 . S
H1976 C1953 0.950 . S
H1977 C1955 0.950 . S
C1978 C1979 1.349 1_654 S
C1978 C1980 1.327 . S
C1978 H2003 0.950 . S
C1979 C1978 1.349 1_456 S
C1979 C1995 1.349 . S
C1980 C1978 1.327 . S
C1980 C1999 1.429 1_654 S
C1980 H2004 0.950 . S
C1981 C1998 1.574 . S
C1981 C2000 1.368 . S
C1981 H2005 0.949 . S
H1982 C1986 0.949 . S
C1983 C1984 1.349 1_455 S
C1983 C1985 1.327 . S
C1983 H2006 0.950 . S
C1984 C1983 1.349 1_655 S
C1984 C1996 1.349 1_556 S
C1985 C1983 1.327 . S
C1985 C2001 1.429 1_455 S
C1985 H2007 0.950 . S
C1986 H1982 0.949 . S
C1986 C1994 1.574 . S
C1986 C2002 1.368 1_554 S
H1987 C1995 0.950 . S
H1988 C1993 0.950 . S
H1989 C1994 0.949 . S
H1990 C1996 0.950 . S
H1991 C1997 0.950 . S
H1992 C1998 0.949 . S
C1993 H1988 0.950 . S
C1993 C1995 1.327 . S
C1993 C1999 1.429 . S
C1994 C1986 1.574 . S
C1994 H1989 0.949 . S
C1994 C2000 1.368 1_654 S
C1995 C1979 1.349 . S
C1995 H1987 0.950 . S
C1995 C1993 1.327 . S
C1996 C1984 1.349 1_554 S
C1996 H1990 0.950 . S
C1996 C1997 1.327 . S
C1997 H1991 0.950 . S
C1997 C1996 1.327 . S
C1997 C2001 1.429 1_554 S
C1998 C1981 1.574 . S
C1998 H1992 0.949 . S
C1998 C2002 1.368 1_455 S
C1999 C1980 1.429 1_456 S
C1999 C1993 1.429 . S
C1999 C2000 1.523 . S
C2000 C1981 1.368 . S
C2000 C1994 1.368 1_456 S
C2000 C1999 1.523 . S
C2001 C1985 1.429 1_655 S
C2001 C1997 1.429 1_556 S
C2001 C2002 1.523 . S
C2002 C1986 1.368 1_556 S
C2002 C1998 1.368 1_655 S
C2002 C2001 1.523 . S
H2003 C1978 0.950 . S
H2004 C1980 0.950 . S
H2005 C1981 0.949 . S
H2006 C1983 0.950 . S
H2007 C1985 0.950 . S
C2008 C2009 1.349 . S
C2008 C2010 1.327 . S
C2008 H2033 0.950 . S
C2009 C2008 1.349 . S
C2009 C2025 1.349 . S
C2010 C2008 1.327 . S
C2010 C2029 1.429 . S
C2010 H2034 0.950 . S
C2011 C2028 1.574 . S
C2011 C2030 1.368 . S
C2011 H2035 0.949 . S
H2012 C2016 0.949 . S
C2013 C2014 1.349 . S
C2013 C2015 1.327 . S
C2013 H2036 0.950 . S
C2014 C2013 1.349 . S
C2014 C2026 1.349 . S
C2015 C2013 1.327 . S
C2015 C2031 1.429 . S
C2015 H2037 0.950 . S
C2016 H2012 0.949 . S
C2016 C2024 1.574 . S
C2016 C2032 1.368 . S
H2017 C2025 0.950 . S
H2018 C2023 0.950 . S
H2019 C2024 0.949 . S
H2020 C2026 0.950 . S
H2021 C2027 0.950 . S
H2022 C2028 0.949 . S
C2023 H2018 0.950 . S
C2023 C2025 1.327 . S
C2023 C2029 1.429 . S
C2024 C2016 1.574 . S
C2024 H2019 0.949 . S
C2024 C2030 1.368 . S
C2025 C2009 1.349 . S
C2025 H2017 0.950 . S
C2025 C2023 1.327 . S
C2026 C2014 1.349 . S
C2026 H2020 0.950 . S
C2026 C2027 1.327 . S
C2027 H2021 0.950 . S
C2027 C2026 1.327 . S
C2027 C2031 1.429 . S
C2028 C2011 1.574 . S
C2028 H2022 0.949 . S
C2028 C2032 1.368 . S
C2029 C2010 1.429 . S
C2029 C2023 1.429 . S
C2029 C2030 1.523 . S
C2030 C2011 1.368 . S
C2030 C2024 1.368 . S
C2030 C2029 1.523 . S
C2031 C2015 1.429 . S
C2031 C2027 1.429 . S
C2031 C2032 1.523 . S
C2032 C2016 1.368 . S
C2032 C2028 1.368 . S
C2032 C2031 1.523 . S
H2033 C2008 0.950 . S
H2034 C2010 0.950 . S
H2035 C2011 0.949 . S
H2036 C2013 0.950 . S
H2037 C2015 0.950 . S
C2038 C2039 1.349 . S
C2038 C2040 1.327 . S
C2038 H2063 0.950 . S
C2039 C2038 1.349 . S
C2039 C2055 1.349 . S
C2040 C2038 1.327 . S
C2040 C2059 1.429 . S
C2040 H2064 0.950 . S
C2041 C2058 1.574 1_545 S
C2041 C2060 1.368 . S
C2041 H2065 0.949 . S
H2042 C2046 0.949 . S
C2043 C2044 1.349 . S
C2043 C2045 1.327 . S
C2043 H2066 0.950 . S
C2044 C2043 1.349 . S
C2044 C2056 1.349 . S
C2045 C2043 1.327 . S
C2045 C2061 1.429 . S
C2045 H2067 0.950 . S
C2046 H2042 0.949 . S
C2046 C2054 1.574 1_565 S
C2046 C2062 1.368 . S
H2047 C2055 0.950 . S
H2048 C2053 0.950 . S
H2049 C2054 0.949 . S
H2050 C2056 0.950 . S
H2051 C2057 0.950 . S
H2052 C2058 0.949 . S
C2053 H2048 0.950 . S
C2053 C2055 1.327 . S
C2053 C2059 1.429 . S
C2054 C2046 1.574 1_545 S
C2054 H2049 0.949 . S
C2054 C2060 1.368 . S
C2055 C2039 1.349 . S
C2055 H2047 0.950 . S
C2055 C2053 1.327 . S
C2056 C2044 1.349 . S
C2056 H2050 0.950 . S
C2056 C2057 1.327 . S
C2057 H2051 0.950 . S
C2057 C2056 1.327 . S
C2057 C2061 1.429 . S
C2058 C2041 1.574 1_565 S
C2058 H2052 0.949 . S
C2058 C2062 1.368 . S
C2059 C2040 1.429 . S
C2059 C2053 1.429 . S
C2059 C2060 1.523 . S
C2060 C2041 1.368 . S
C2060 C2054 1.368 . S
C2060 C2059 1.523 . S
C2061 C2045 1.429 . S
C2061 C2057 1.429 . S
C2061 C2062 1.523 . S
C2062 C2046 1.368 . S
C2062 C2058 1.368 . S
C2062 C2061 1.523 . S
H2063 C2038 0.950 . S
H2064 C2040 0.950 . S
H2065 C2041 0.949 . S
H2066 C2043 0.950 . S
H2067 C2045 0.950 . S
C2068 C2069 1.349 1_554 S
C2068 C2070 1.327 . S
C2068 H2093 0.950 . S
C2069 C2068 1.349 1_556 S
C2069 C2085 1.349 . S
C2070 C2068 1.327 . S
C2070 C2089 1.429 1_554 S
C2070 H2094 0.950 . S
C2071 C2088 1.574 . S
C2071 C2090 1.368 . S
C2071 H2095 0.949 . S
H2072 C2076 0.949 . S
C2073 C2074 1.349 1_556 S
C2073 C2075 1.327 . S
C2073 H2096 0.950 . S
C2074 C2073 1.349 1_554 S
C2074 C2086 1.349 . S
C2075 C2073 1.327 . S
C2075 C2091 1.429 1_556 S
C2075 H2097 0.950 . S
C2076 H2072 0.949 . S
C2076 C2084 1.574 . S
C2076 C2092 1.368 . S
H2077 C2085 0.950 . S
H2078 C2083 0.950 . S
H2079 C2084 0.949 . S
H2080 C2086 0.950 . S
H2081 C2087 0.950 . S
H2082 C2088 0.949 . S
C2083 H2078 0.950 . S
C2083 C2085 1.327 . S
C2083 C2089 1.429 . S
C2084 C2076 1.574 . S
C2084 H2079 0.949 . S
C2084 C2090 1.368 1_554 S
C2085 C2069 1.349 . S
C2085 H2077 0.950 . S
C2085 C2083 1.327 . S
C2086 C2074 1.349 . S
C2086 H2080 0.950 . S
C2086 C2087 1.327 . S
C2087 H2081 0.950 . S
C2087 C2086 1.327 . S
C2087 C2091 1.429 . S
C2088 C2071 1.574 . S
C2088 H2082 0.949 . S
C2088 C2092 1.368 1_556 S
C2089 C2070 1.429 1_556 S
C2089 C2083 1.429 . S
C2089 C2090 1.523 . S
C2090 C2071 1.368 . S
C2090 C2084 1.368 1_556 S
C2090 C2089 1.523 . S
C2091 C2075 1.429 1_554 S
C2091 C2087 1.429 . S
C2091 C2092 1.523 . S
C2092 C2076 1.368 . S
C2092 C2088 1.368 1_554 S
C2092 C2091 1.523 . S
H2093 C2068 0.950 . S
H2094 C2070 0.950 . S
H2095 C2071 0.949 . S
H2096 C2073 0.950 . S
H2097 C2075 0.950 . S
C2098 C2099 1.349 . S
C2098 C2100 1.327 . S
C2098 H2123 0.950 . S
C2099 C2098 1.349 . S
C2099 C2115 1.349 . S
C2100 C2098 1.327 . S
C2100 C2119 1.429 . S
C2100 H2124 0.950 . S
C2101 C2118 1.574 1_545 S
C2101 C2120 1.368 . S
C2101 H2125 0.949 . S
H2102 C2106 0.949 . S
C2103 C2104 1.349 . S
C2103 C2105 1.327 . S
C2103 H2126 0.950 . S
C2104 C2103 1.349 . S
C2104 C2116 1.349 . S
C2105 C2103 1.327 . S
C2105 C2121 1.429 . S
C2105 H2127 0.950 . S
C2106 H2102 0.949 . S
C2106 C2114 1.574 1_565 S
C2106 C2122 1.368 . S
H2107 C2115 0.950 . S
H2108 C2113 0.950 . S
H2109 C2114 0.949 . S
H2110 C2116 0.950 . S
H2111 C2117 0.950 . S
H2112 C2118 0.949 . S
C2113 H2108 0.950 . S
C2113 C2115 1.327 . S
C2113 C2119 1.429 . S
C2114 C2106 1.574 1_545 S
C2114 H2109 0.949 . S
C2114 C2120 1.368 . S
C2115 C2099 1.349 . S
C2115 H2107 0.950 . S
C2115 C2113 1.327 . S
C2116 C2104 1.349 . S
C2116 H2110 0.950 . S
C2116 C2117 1.327 . S
C2117 H2111 0.950 . S
C2117 C2116 1.327 . S
C2117 C2121 1.429 . S
C2118 C2101 1.574 1_565 S
C2118 H2112 0.949 . S
C2118 C2122 1.368 . S
C2119 C2100 1.429 . S
C2119 C2113 1.429 . S
C2119 C2120 1.523 . S
C2120 C2101 1.368 . S
C2120 C2114 1.368 . S
C2120 C2119 1.523 . S
C2121 C2105 1.429 . S
C2121 C2117 1.429 . S
C2121 C2122 1.523 . S
C2122 C2106 1.368 . S
C2122 C2118 1.368 . S
C2122 C2121 1.523 . S
H2123 C2098 0.950 . S
H2124 C2100 0.950 . S
H2125 C2101 0.949 . S
H2126 C2103 0.950 . S
H2127 C2105 0.950 . S
C2128 C2129 1.349 . S
C2128 C2130 1.327 . S
C2128 H2153 0.950 . S
C2129 C2128 1.349 . S
C2129 C2145 1.349 1_564 S
C2130 C2128 1.327 . S
C2130 C2149 1.429 . S
C2130 H2154 0.950 . S
C2131 C2148 1.574 . S
C2131 C2150 1.368 1_546 S
C2131 H2155 0.949 . S
H2132 C2136 0.949 . S
C2133 C2134 1.349 1_545 S
C2133 C2135 1.327 . S
C2133 H2156 0.950 . S
C2134 C2133 1.349 1_565 S
C2134 C2146 1.349 1_556 S
C2135 C2133 1.327 . S
C2135 C2151 1.429 1_545 S
C2135 H2157 0.950 . S
C2136 H2132 0.949 . S
C2136 C2144 1.574 . S
C2136 C2152 1.368 1_554 S
H2137 C2145 0.950 . S
H2138 C2143 0.950 . S
H2139 C2144 0.949 . S
H2140 C2146 0.950 . S
H2141 C2147 0.950 . S
H2142 C2148 0.949 . S
C2143 H2138 0.950 . S
C2143 C2145 1.327 . S
C2143 C2149 1.429 1_546 S
C2144 C2136 1.574 . S
C2144 H2139 0.949 . S
C2144 C2150 1.368 . S
C2145 C2129 1.349 1_546 S
C2145 H2137 0.950 . S
C2145 C2143 1.327 . S
C2146 C2134 1.349 1_554 S
C2146 H2140 0.950 . S
C2146 C2147 1.327 . S
C2147 H2141 0.950 . S
C2147 C2146 1.327 . S
C2147 C2151 1.429 1_554 S
C2148 C2131 1.574 . S
C2148 H2142 0.949 . S
C2148 C2152 1.368 1_545 S
C2149 C2130 1.429 . S
C2149 C2143 1.429 1_564 S
C2149 C2150 1.523 . S
C2150 C2131 1.368 1_564 S
C2150 C2144 1.368 . S
C2150 C2149 1.523 . S
C2151 C2135 1.429 1_565 S
C2151 C2147 1.429 1_556 S
C2151 C2152 1.523 . S
C2152 C2136 1.368 1_556 S
C2152 C2148 1.368 1_565 S
C2152 C2151 1.523 . S
H2153 C2128 0.950 . S
H2154 C2130 0.950 . S
H2155 C2131 0.949 . S
H2156 C2133 0.950 . S
H2157 C2135 0.950 . S
C2158 C2159 1.349 . S
C2158 C2160 1.327 . S
C2158 H2183 0.950 . S
C2159 C2158 1.349 . S
C2159 C2175 1.349 . S
C2160 C2158 1.327 . S
C2160 C2179 1.429 . S
C2160 H2184 0.950 . S
C2161 C2178 1.574 . S
C2161 C2180 1.368 . S
C2161 H2185 0.949 . S
H2162 C2166 0.949 . S
C2163 C2164 1.349 . S
C2163 C2165 1.327 . S
C2163 H2186 0.950 . S
C2164 C2163 1.349 . S
C2164 C2176 1.349 . S
C2165 C2163 1.327 . S
C2165 C2181 1.429 . S
C2165 H2187 0.950 . S
C2166 H2162 0.949 . S
C2166 C2174 1.574 . S
C2166 C2182 1.368 . S
H2167 C2175 0.950 . S
H2168 C2173 0.950 . S
H2169 C2174 0.949 . S
H2170 C2176 0.950 . S
H2171 C2177 0.950 . S
H2172 C2178 0.949 . S
C2173 H2168 0.950 . S
C2173 C2175 1.327 . S
C2173 C2179 1.429 . S
C2174 C2166 1.574 . S
C2174 H2169 0.949 . S
C2174 C2180 1.368 . S
C2175 C2159 1.349 . S
C2175 H2167 0.950 . S
C2175 C2173 1.327 . S
C2176 C2164 1.349 . S
C2176 H2170 0.950 . S
C2176 C2177 1.327 . S
C2177 H2171 0.950 . S
C2177 C2176 1.327 . S
C2177 C2181 1.429 . S
C2178 C2161 1.574 . S
C2178 H2172 0.949 . S
C2178 C2182 1.368 . S
C2179 C2160 1.429 . S
C2179 C2173 1.429 . S
C2179 C2180 1.523 . S
C2180 C2161 1.368 . S
C2180 C2174 1.368 . S
C2180 C2179 1.523 . S
C2181 C2165 1.429 . S
C2181 C2177 1.429 . S
C2181 C2182 1.523 . S
C2182 C2166 1.368 . S
C2182 C2178 1.368 . S
C2182 C2181 1.523 . S
H2183 C2158 0.950 . S
H2184 C2160 0.950 . S
H2185 C2161 0.949 . S
H2186 C2163 0.950 . S
H2187 C2165 0.950 . S
C2188 C2189 1.349 . S
C2188 C2190 1.327 . S
C2188 H2213 0.950 . S
C2189 C2188 1.349 . S
C2189 C2205 1.349 . S
C2190 C2188 1.327 . S
C2190 C2209 1.429 . S
C2190 H2214 0.950 . S
C2191 C2208 1.574 . S
C2191 C2210 1.368 . S
C2191 H2215 0.949 . S
H2192 C2196 0.949 . S
C2193 C2194 1.349 . S
C2193 C2195 1.327 . S
C2193 H2216 0.950 . S
C2194 C2193 1.349 . S
C2194 C2206 1.349 . S
C2195 C2193 1.327 . S
C2195 C2211 1.429 . S
C2195 H2217 0.950 . S
C2196 H2192 0.949 . S
C2196 C2204 1.574 . S
C2196 C2212 1.368 . S
H2197 C2205 0.950 . S
H2198 C2203 0.950 . S
H2199 C2204 0.949 . S
H2200 C2206 0.950 . S
H2201 C2207 0.950 . S
H2202 C2208 0.949 . S
C2203 H2198 0.950 . S
C2203 C2205 1.327 . S
C2203 C2209 1.429 . S
C2204 C2196 1.574 . S
C2204 H2199 0.949 . S
C2204 C2210 1.368 . S
C2205 C2189 1.349 . S
C2205 H2197 0.950 . S
C2205 C2203 1.327 . S
C2206 C2194 1.349 . S
C2206 H2200 0.950 . S
C2206 C2207 1.327 . S
C2207 H2201 0.950 . S
C2207 C2206 1.327 . S
C2207 C2211 1.429 . S
C2208 C2191 1.574 . S
C2208 H2202 0.949 . S
C2208 C2212 1.368 . S
C2209 C2190 1.429 . S
C2209 C2203 1.429 . S
C2209 C2210 1.523 . S
C2210 C2191 1.368 . S
C2210 C2204 1.368 . S
C2210 C2209 1.523 . S
C2211 C2195 1.429 . S
C2211 C2207 1.429 . S
C2211 C2212 1.523 . S
C2212 C2196 1.368 . S
C2212 C2208 1.368 . S
C2212 C2211 1.523 . S
H2213 C2188 0.950 . S
H2214 C2190 0.950 . S
H2215 C2191 0.949 . S
H2216 C2193 0.950 . S
H2217 C2195 0.950 . S
C2218 C2219 1.349 . S
C2218 C2220 1.327 . S
C2218 H2243 0.950 . S
C2219 C2218 1.349 . S
C2219 C2235 1.349 . S
C2220 C2218 1.327 . S
C2220 C2239 1.429 . S
C2220 H2244 0.950 . S
C2221 C2238 1.574 1_556 S
C2221 C2240 1.368 . S
C2221 H2245 0.949 . S
H2222 C2226 0.949 . S
C2223 C2224 1.349 . S
C2223 C2225 1.327 . S
C2223 H2246 0.950 . S
C2224 C2223 1.349 . S
C2224 C2236 1.349 . S
C2225 C2223 1.327 . S
C2225 C2241 1.429 . S
C2225 H2247 0.950 . S
C2226 H2222 0.949 . S
C2226 C2234 1.574 1_554 S
C2226 C2242 1.368 . S
H2227 C2235 0.950 . S
H2228 C2233 0.950 . S
H2229 C2234 0.949 . S
H2230 C2236 0.950 . S
H2231 C2237 0.950 . S
H2232 C2238 0.949 . S
C2233 H2228 0.950 . S
C2233 C2235 1.327 . S
C2233 C2239 1.429 . S
C2234 C2226 1.574 1_556 S
C2234 H2229 0.949 . S
C2234 C2240 1.368 . S
C2235 C2219 1.349 . S
C2235 H2227 0.950 . S
C2235 C2233 1.327 . S
C2236 C2224 1.349 . S
C2236 H2230 0.950 . S
C2236 C2237 1.327 . S
C2237 H2231 0.950 . S
C2237 C2236 1.327 . S
C2237 C2241 1.429 . S
C2238 C2221 1.574 1_554 S
C2238 H2232 0.949 . S
C2238 C2242 1.368 . S
C2239 C2220 1.429 . S
C2239 C2233 1.429 . S
C2239 C2240 1.523 . S
C2240 C2221 1.368 . S
C2240 C2234 1.368 . S
C2240 C2239 1.523 . S
C2241 C2225 1.429 . S
C2241 C2237 1.429 . S
C2241 C2242 1.523 . S
C2242 C2226 1.368 . S
C2242 C2238 1.368 . S
C2242 C2241 1.523 . S
H2243 C2218 0.950 . S
H2244 C2220 0.950 . S
H2245 C2221 0.949 . S
H2246 C2223 0.950 . S
H2247 C2225 0.950 . S
C2248 C2249 1.349 . S
C2248 C2250 1.327 . S
C2248 H2273 0.950 . S
C2249 C2248 1.349 . S
C2249 C2265 1.349 . S
C2250 C2248 1.327 . S
C2250 C2269 1.429 . S
C2250 H2274 0.950 . S
C2251 C2268 1.574 . S
C2251 C2270 1.368 . S
C2251 H2275 0.949 . S
H2252 C2256 0.949 . S
C2253 C2254 1.349 . S
C2253 C2255 1.327 . S
C2253 H2276 0.950 . S
C2254 C2253 1.349 . S
C2254 C2266 1.349 . S
C2255 C2253 1.327 . S
C2255 C2271 1.429 . S
C2255 H2277 0.950 . S
C2256 H2252 0.949 . S
C2256 C2264 1.574 . S
C2256 C2272 1.368 . S
H2257 C2265 0.950 . S
H2258 C2263 0.950 . S
H2259 C2264 0.949 . S
H2260 C2266 0.950 . S
H2261 C2267 0.950 . S
H2262 C2268 0.949 . S
C2263 H2258 0.950 . S
C2263 C2265 1.327 . S
C2263 C2269 1.429 . S
C2264 C2256 1.574 . S
C2264 H2259 0.949 . S
C2264 C2270 1.368 . S
C2265 C2249 1.349 . S
C2265 H2257 0.950 . S
C2265 C2263 1.327 . S
C2266 C2254 1.349 . S
C2266 H2260 0.950 . S
C2266 C2267 1.327 . S
C2267 H2261 0.950 . S
C2267 C2266 1.327 . S
C2267 C2271 1.429 . S
C2268 C2251 1.574 . S
C2268 H2262 0.949 . S
C2268 C2272 1.368 . S
C2269 C2250 1.429 . S
C2269 C2263 1.429 . S
C2269 C2270 1.523 . S
C2270 C2251 1.368 . S
C2270 C2264 1.368 . S
C2270 C2269 1.523 . S
C2271 C2255 1.429 . S
C2271 C2267 1.429 . S
C2271 C2272 1.523 . S
C2272 C2256 1.368 . S
C2272 C2268 1.368 . S
C2272 C2271 1.523 . S
H2273 C2248 0.950 . S
H2274 C2250 0.950 . S
H2275 C2251 0.949 . S
H2276 C2253 0.950 . S
H2277 C2255 0.950 . S
C2278 C2279 1.349 . S
C2278 C2280 1.327 . S
C2278 H2303 0.950 . S
C2279 C2278 1.349 . S
C2279 C2295 1.349 . S
C2280 C2278 1.327 . S
C2280 C2299 1.429 . S
C2280 H2304 0.950 . S
C2281 C2298 1.574 . S
C2281 C2300 1.368 . S
C2281 H2305 0.949 . S
H2282 C2286 0.949 . S
C2283 C2284 1.349 . S
C2283 C2285 1.327 . S
C2283 H2306 0.950 . S
C2284 C2283 1.349 . S
C2284 C2296 1.349 . S
C2285 C2283 1.327 . S
C2285 C2301 1.429 . S
C2285 H2307 0.950 . S
C2286 H2282 0.949 . S
C2286 C2294 1.574 . S
C2286 C2302 1.368 . S
H2287 C2295 0.950 . S
H2288 C2293 0.950 . S
H2289 C2294 0.949 . S
H2290 C2296 0.950 . S
H2291 C2297 0.950 . S
H2292 C2298 0.949 . S
C2293 H2288 0.950 . S
C2293 C2295 1.327 . S
C2293 C2299 1.429 . S
C2294 C2286 1.574 . S
C2294 H2289 0.949 . S
C2294 C2300 1.368 . S
C2295 C2279 1.349 . S
C2295 H2287 0.950 . S
C2295 C2293 1.327 . S
C2296 C2284 1.349 . S
C2296 H2290 0.950 . S
C2296 C2297 1.327 . S
C2297 H2291 0.950 . S
C2297 C2296 1.327 . S
C2297 C2301 1.429 . S
C2298 C2281 1.574 . S
C2298 H2292 0.949 . S
C2298 C2302 1.368 . S
C2299 C2280 1.429 . S
C2299 C2293 1.429 . S
C2299 C2300 1.523 . S
C2300 C2281 1.368 . S
C2300 C2294 1.368 . S
C2300 C2299 1.523 . S
C2301 C2285 1.429 . S
C2301 C2297 1.429 . S
C2301 C2302 1.523 . S
C2302 C2286 1.368 . S
C2302 C2298 1.368 . S
C2302 C2301 1.523 . S
H2303 C2278 0.950 . S
H2304 C2280 0.950 . S
H2305 C2281 0.949 . S
H2306 C2283 0.950 . S
H2307 C2285 0.950 . S
C2308 C2309 1.349 1_655 S
C2308 C2310 1.327 . S
C2308 H2333 0.950 . S
C2309 C2308 1.349 1_455 S
C2309 C2325 1.349 . S
C2310 C2308 1.327 . S
C2310 C2329 1.429 1_655 S
C2310 H2334 0.950 . S
C2311 C2328 1.574 . S
C2311 C2330 1.368 . S
C2311 H2335 0.949 . S
H2312 C2316 0.949 . S
C2313 C2314 1.349 . S
C2313 C2315 1.327 . S
C2313 H2336 0.950 . S
C2314 C2313 1.349 . S
C2314 C2326 1.349 1_455 S
C2315 C2313 1.327 . S
C2315 C2331 1.429 . S
C2315 H2337 0.950 . S
C2316 H2312 0.949 . S
C2316 C2324 1.574 . S
C2316 C2332 1.368 1_655 S
H2317 C2325 0.950 . S
H2318 C2323 0.950 . S
H2319 C2324 0.949 . S
H2320 C2326 0.950 . S
H2321 C2327 0.950 . S
H2322 C2328 0.949 . S
C2323 H2318 0.950 . S
C2323 C2325 1.327 . S
C2323 C2329 1.429 . S
C2324 C2316 1.574 . S
C2324 H2319 0.949 . S
C2324 C2330 1.368 1_655 S
C2325 C2309 1.349 . S
C2325 H2317 0.950 . S
C2325 C2323 1.327 . S
C2326 C2314 1.349 1_655 S
C2326 H2320 0.950 . S
C2326 C2327 1.327 . S
C2327 H2321 0.950 . S
C2327 C2326 1.327 . S
C2327 C2331 1.429 1_655 S
C2328 C2311 1.574 . S
C2328 H2322 0.949 . S
C2328 C2332 1.368 . S
C2329 C2310 1.429 1_455 S
C2329 C2323 1.429 . S
C2329 C2330 1.523 . S
C2330 C2311 1.368 . S
C2330 C2324 1.368 1_455 S
C2330 C2329 1.523 . S
C2331 C2315 1.429 . S
C2331 C2327 1.429 1_455 S
C2331 C2332 1.523 . S
C2332 C2316 1.368 1_455 S
C2332 C2328 1.368 . S
C2332 C2331 1.523 . S
H2333 C2308 0.950 . S
H2334 C2310 0.950 . S
H2335 C2311 0.949 . S
H2336 C2313 0.950 . S
H2337 C2315 0.950 . S
C2338 C2339 1.349 . S
C2338 C2340 1.327 . S
C2338 H2363 0.950 . S
C2339 C2338 1.349 . S
C2339 C2355 1.349 1_545 S
C2340 C2338 1.327 . S
C2340 C2359 1.429 . S
C2340 H2364 0.950 . S
C2341 C2358 1.574 . S
C2341 C2360 1.368 1_565 S
C2341 H2365 0.949 . S
H2342 C2346 0.949 . S
C2343 C2344 1.349 1_565 S
C2343 C2345 1.327 . S
C2343 H2366 0.950 . S
C2344 C2343 1.349 1_545 S
C2344 C2356 1.349 . S
C2345 C2343 1.327 . S
C2345 C2361 1.429 1_565 S
C2345 H2367 0.950 . S
C2346 H2342 0.949 . S
C2346 C2354 1.574 . S
C2346 C2362 1.368 . S
H2347 C2355 0.950 . S
H2348 C2353 0.950 . S
H2349 C2354 0.949 . S
H2350 C2356 0.950 . S
H2351 C2357 0.950 . S
H2352 C2358 0.949 . S
C2353 H2348 0.950 . S
C2353 C2355 1.327 . S
C2353 C2359 1.429 1_565 S
C2354 C2346 1.574 . S
C2354 H2349 0.949 . S
C2354 C2360 1.368 . S
C2355 C2339 1.349 1_565 S
C2355 H2347 0.950 . S
C2355 C2353 1.327 . S
C2356 C2344 1.349 . S
C2356 H2350 0.950 . S
C2356 C2357 1.327 . S
C2357 H2351 0.950 . S
C2357 C2356 1.327 . S
C2357 C2361 1.429 . S
C2358 C2341 1.574 . S
C2358 H2352 0.949 . S
C2358 C2362 1.368 1_565 S
C2359 C2340 1.429 . S
C2359 C2353 1.429 1_545 S
C2359 C2360 1.523 . S
C2360 C2341 1.368 1_545 S
C2360 C2354 1.368 . S
C2360 C2359 1.523 . S
C2361 C2345 1.429 1_545 S
C2361 C2357 1.429 . S
C2361 C2362 1.523 . S
C2362 C2346 1.368 . S
C2362 C2358 1.368 1_545 S
C2362 C2361 1.523 . S
H2363 C2338 0.950 . S
H2364 C2340 0.950 . S
H2365 C2341 0.949 . S
H2366 C2343 0.950 . S
H2367 C2345 0.950 . S
C1409 C57 1.998 . S
C1414 C645 1.998 . S
C1439 C145 2.002 . S
C1444 C372 2.002 . S
C1469 C489 1.997 . S
C1474 C205 1.997 . S
C1499 C321 2.000 . S
C1504 C548 2.000 . S
C1529 C724 2.002 . S
C1534 C1113 2.002 . S
C1559 C849 1.997 . S
C1564 C1252 1.997 . S
C1589 C1025 2.000 . S
C1594 C900 2.000 . S
C1619 C1340 1.998 . S
C1624 C1201 1.998 . S
C1649 C29 0.978 . S
C1654 C585 0.974 . S
C1679 C636 0.990 . S
C1684 C137 0.990 . S
C1709 C233 0.973 . S
C1714 C409 0.969 . S
C1739 C497 1.006 . S
C1744 C284 1.007 . S
C1769 C49 0.984 . S
C1774 C1261 0.984 . S
C1799 C997 0.964 . S
C1804 C108 0.960 . S
C1829 C1193 0.984 . S
C1834 C196 0.984 . S
C1859 C1076 0.960 . S
C1864 C293 0.964 . S
C1889 C929 1.010 . S
C1894 C401 1.010 . S
C1919 C469 0.980 . S
C1924 C1377 0.980 . S
C1949 C577 1.010 . S
C1954 C753 1.010 . S
C1979 C665 0.980 . S
C1984 C812 0.980 . S
C2009 C20 0.995 . S
C2014 C381 0.995 . S
C2039 C733 0.995 . S
C2044 C1164 0.995 . S
C2069 C1085 0.995 . S
C2074 C821 0.995 . S
C2099 C1289 0.983 . S
C2104 C909 0.983 . S
C2129 C673 0.987 . S
C2134 C313 0.983 . S
C2159 C225 0.983 . S
C2164 C557 0.983 . S
C2189 C1017 0.983 . S
C2194 C1369 0.987 . S
C2219 C1173 0.978 . S
C2224 C937 0.974 . S
C2249 C1349 0.990 . S
C2254 C1105 0.990 . S
C2279 C1281 0.973 . S
C2284 C761 0.969 . S
C2309 C988 1.007 . S
C2314 C841 1.006 . S
C2339 C117 0.995 . S
C2344 C460 0.995 . S
