# Generated by pormake.
# Topology fnr, (5)-cn, num edge types: 1
# Building blocks:
#     Node 0, Type 0, BuildingBlock: BEQFEK_clean_sbu_0, # of connection points: 5
#     Node 1, Type 0, BuildingBlock: BEQFEK_clean_sbu_0, # of connection points: 5
#     Node 2, Type 0, BuildingBlock: BEQFEK_clean_sbu_0, # of connection points: 5
#     Node 3, Type 0, BuildingBlock: BEQFEK_clean_sbu_0, # of connection points: 5
#     Node 4, Type 0, BuildingBlock: BEQFEK_clean_sbu_0, # of connection points: 5
#     Node 5, Type 0, BuildingBlock: BEQFEK_clean_sbu_0, # of connection points: 5
#     Node 6, Type 0, BuildingBlock: BEQFEK_clean_sbu_0, # of connection points: 5
#     Node 7, Type 0, BuildingBlock: BEQFEK_clean_sbu_0, # of connection points: 5
#     Node 8, Type 0, BuildingBlock: BEQFEK_clean_sbu_0, # of connection points: 5
#     Node 9, Type 0, BuildingBlock: BEQFEK_clean_sbu_0, # of connection points: 5
#     Node 10, Type 0, BuildingBlock: BEQFEK_clean_sbu_0, # of connection points: 5
#     Node 11, Type 0, BuildingBlock: BEQFEK_clean_sbu_0, # of connection points: 5
#     Edge 12, Type (0, 0), BuildingBlock: OJICUG_clean_linker_0, # of connection points: 2
#     Edge 13, Type (0, 0), BuildingBlock: OJICUG_clean_linker_0, # of connection points: 2
#     Edge 14, Type (0, 0), BuildingBlock: OJICUG_clean_linker_0, # of connection points: 2
#     Edge 15, Type (0, 0), BuildingBlock: OJICUG_clean_linker_0, # of connection points: 2
#     Edge 16, Type (0, 0), BuildingBlock: OJICUG_clean_linker_0, # of connection points: 2
#     Edge 17, Type (0, 0), BuildingBlock: OJICUG_clean_linker_0, # of connection points: 2
#     Edge 18, Type (0, 0), BuildingBlock: OJICUG_clean_linker_0, # of connection points: 2
#     Edge 19, Type (0, 0), BuildingBlock: OJICUG_clean_linker_0, # of connection points: 2
#     Edge 20, Type (0, 0), BuildingBlock: OJICUG_clean_linker_0, # of connection points: 2
#     Edge 21, Type (0, 0), BuildingBlock: OJICUG_clean_linker_0, # of connection points: 2
#     Edge 22, Type (0, 0), BuildingBlock: OJICUG_clean_linker_0, # of connection points: 2
#     Edge 23, Type (0, 0), BuildingBlock: OJICUG_clean_linker_0, # of connection points: 2
#     Edge 24, Type (0, 0), BuildingBlock: OJICUG_clean_linker_0, # of connection points: 2
#     Edge 25, Type (0, 0), BuildingBlock: OJICUG_clean_linker_0, # of connection points: 2
#     Edge 26, Type (0, 0), BuildingBlock: OJICUG_clean_linker_0, # of connection points: 2
#     Edge 27, Type (0, 0), BuildingBlock: OJICUG_clean_linker_0, # of connection points: 2
#     Edge 28, Type (0, 0), BuildingBlock: OJICUG_clean_linker_0, # of connection points: 2
#     Edge 29, Type (0, 0), BuildingBlock: OJICUG_clean_linker_0, # of connection points: 2
#     Edge 30, Type (0, 0), BuildingBlock: OJICUG_clean_linker_0, # of connection points: 2
#     Edge 31, Type (0, 0), BuildingBlock: OJICUG_clean_linker_0, # of connection points: 2
#     Edge 32, Type (0, 0), BuildingBlock: OJICUG_clean_linker_0, # of connection points: 2
#     Edge 33, Type (0, 0), BuildingBlock: OJICUG_clean_linker_0, # of connection points: 2
#     Edge 34, Type (0, 0), BuildingBlock: OJICUG_clean_linker_0, # of connection points: 2
#     Edge 35, Type (0, 0), BuildingBlock: OJICUG_clean_linker_0, # of connection points: 2
#     Edge 36, Type (0, 0), BuildingBlock: OJICUG_clean_linker_0, # of connection points: 2
#     Edge 37, Type (0, 0), BuildingBlock: OJICUG_clean_linker_0, # of connection points: 2
#     Edge 38, Type (0, 0), BuildingBlock: OJICUG_clean_linker_0, # of connection points: 2
#     Edge 39, Type (0, 0), BuildingBlock: OJICUG_clean_linker_0, # of connection points: 2
#     Edge 40, Type (0, 0), BuildingBlock: OJICUG_clean_linker_0, # of connection points: 2
#     Edge 41, Type (0, 0), BuildingBlock: OJICUG_clean_linker_0, # of connection points: 2
# Relax obj value: 0.160
# Max RMSD: 0.109
# Mean RMSD: 0.109
data_MOF--net-fnr--node1-BEQFEK_clean_sbu_0--edge1-OJICUG_clean_linker_0
_symmetry_space_group_name_H-M    P1
_symmetry_Int_Tables_number       1
_symmetry_cell_setting            triclinic
loop_
_symmetry_equiv_pos_as_xyz
'x, y, z'
_cell_length_a     34.308429
_cell_length_b     34.330568
_cell_length_c     35.678869
_cell_angle_alpha  89.976238
_cell_angle_beta   89.922302
_cell_angle_gamma 119.99336
loop_
_atom_site_label
_atom_site_type_symbol
_atom_site_fract_x
_atom_site_fract_y
_atom_site_fract_z
_atom_type_partial_charge
Co0 Co 0.48282 0.30177 0.12785 0.0
Co1 Co 0.40721 0.20548 0.10387 0.0
C2 C 0.50062 0.22729 0.10121 0.0
O3 O 0.51106 0.26524 0.11535 0.0
O4 O 0.46048 0.19986 0.09132 0.0
C5 C 0.55664 0.38143 0.09902 0.0
O6 O 0.54021 0.36031 0.06721 0.0
C7 C 0.35115 0.12409 0.06059 0.0
C8 C 0.28594 0.0943 0.09031 0.0
C9 C 0.30783 0.08726 0.06065 0.0
N10 N 0.35476 0.15126 0.08908 0.0
N11 N 0.31568 0.13331 0.10676 0.0
C12 C 0.38786 0.13515 0.03269 0.0
H13 H 0.40933 0.17217 0.02978 0.0
H14 H 0.37373 0.1202 1.00494 0.0
H15 H 0.40927 0.12153 0.04277 0.0
C16 C 0.43013 0.32772 0.07806 0.0
N17 N 0.43901 0.29679 0.09277 0.0
N18 N 0.40833 0.25654 0.08129 0.0
C19 C 0.37981 0.26082 0.05784 0.0
C20 C 0.39262 0.30607 0.05511 0.0
C21 C 0.45637 0.37695 0.08675 0.0
H22 H 0.47217 0.3825 0.11478 0.0
H23 H 0.48315 0.39407 0.06535 0.0
H24 H 0.43476 0.39242 0.0859 0.0
O25 O 0.45453 0.2793 0.17744 0.0
O26 O 0.40644 0.20884 0.15995 0.0
H27 H 0.31532 0.20188 0.06384 0.0
H28 H 0.32128 0.23337 0.02166 0.0
C29 C 0.33884 0.22203 0.04108 0.0
H30 H 0.34863 0.20011 0.02578 0.0
H31 H 0.30938 0.14761 0.13013 0.0
O32 O 0.53566 0.36375 0.12944 0.0
C33 C 0.42518 0.23873 0.18538 0.0
Co34 Co 0.19224 0.47752 0.63125 0.0
Co35 Co 0.21413 0.40456 0.60372 0.0
C36 C 0.28508 0.49733 0.60284 0.0
O37 O 0.25736 0.50665 0.61837 0.0
O38 O 0.27276 0.45779 0.59156 0.0
C39 C 0.18504 0.55006 0.60325 0.0
O40 O 0.18742 0.53222 0.57137 0.0
C41 C 0.24027 0.34861 0.56105 0.0
C42 C 0.19931 0.28199 0.58759 0.0
C43 C 0.2315 0.3045 0.5601 0.0
N44 N 0.21486 0.35199 0.58809 0.0
N45 N 0.19038 0.31208 0.60383 0.0
C46 C 0.26947 0.38636 0.53501 0.0
H47 H 0.25593 0.4095 0.53168 0.0
H48 H 0.27162 0.37337 0.50707 0.0
H49 H 0.30379 0.40574 0.54703 0.0
C50 C 0.11337 0.42603 0.58189 0.0
N51 N 0.1535 0.43493 0.59566 0.0
N52 N 0.16463 0.40665 0.58133 0.0
C53 C 0.13322 0.38051 0.55596 0.0
C54 C 0.09891 0.39136 0.55559 0.0
C55 C 0.08728 0.44659 0.59761 0.0
H56 H 0.09889 0.45916 0.62642 0.0
H57 H 0.09282 0.47548 0.57988 0.0
H58 H 0.05074 0.42169 0.59827 0.0
O59 O 0.18579 0.44807 0.67978 0.0
O60 O 0.20974 0.40195 0.6602 0.0
H61 H 0.12354 0.31479 0.54622 0.0
H62 H 0.1197 0.34274 0.50447 0.0
C63 C 0.13759 0.34753 0.53143 0.0
H64 H 0.17348 0.35973 0.52529 0.0
H65 H 0.16773 0.30545 0.62575 0.0
O66 O 0.18299 0.52998 0.63384 0.0
C67 C 0.19765 0.41899 0.68646 0.0
Co68 Co 0.71838 0.18455 0.13107 0.0
Co69 Co 0.81294 0.20527 0.10209 0.0
C70 C 0.7912 0.27606 0.10015 0.0
O71 O 0.75454 0.24894 0.11653 0.0
O72 O 0.81815 0.26338 0.08881 0.0
C73 C 0.63809 0.17745 0.10376 0.0
O74 O 0.65741 0.17852 0.07167 0.0
C75 C 0.89864 0.23329 0.06327 0.0
C76 C 0.9104 0.17697 0.07604 0.0
C77 C 0.92798 0.21732 0.05687 0.0
N78 N 0.86505 0.2037 0.08534 0.0
N79 N 0.87248 0.1703 0.09312 0.0
C80 C 0.90056 0.27416 0.04644 0.0
H81 H 0.86783 0.26459 0.03301 0.0
H82 H 0.9277 0.29027 0.02519 0.0
H83 H 0.90632 0.29871 0.06899 0.0
C84 C 0.68965 0.10477 0.08239 0.0
N85 N 0.72128 0.14484 0.09597 0.0
N86 N 0.76038 0.15575 0.08098 0.0
C87 C 0.75446 0.12439 0.05535 0.0
C88 C 0.70933 0.09019 0.05567 0.0
C89 C 0.64301 0.0791 0.09819 0.0
H90 H 0.64209 0.0911 0.12687 0.0
H91 H 0.61972 0.08448 0.08026 0.0
H92 H 0.63124 0.04255 0.09912 0.0
O93 O 0.743 0.17985 0.17946 0.0
O94 O 0.81256 0.20285 0.15875 0.0
H95 H 0.80897 0.11334 0.04196 0.0
H96 H 0.77642 0.11254 1.00201 0.0
C97 C 0.79078 0.12915 0.02922 0.0
H98 H 0.81516 0.16521 0.0241 0.0
H99 H 0.85118 0.14251 0.10954 0.0
O100 O 0.6568 0.17618 0.13422 0.0
C101 C 0.78413 0.19187 0.18552 0.0
Co102 Co 0.54573 0.71702 0.62823 0.0
Co103 Co 0.62054 0.81337 0.60417 0.0
C104 C 0.52698 0.79105 0.60196 0.0
O105 O 0.51691 0.75318 0.61611 0.0
O106 O 0.56705 0.81874 0.59194 0.0
C107 C 0.47118 0.6378 0.60049 0.0
O108 O 0.48731 0.65867 0.56848 0.0
C109 C 0.67623 0.89431 0.56035 0.0
C110 C 0.74084 0.92561 0.59089 0.0
C111 C 0.71919 0.93174 0.56059 0.0
N112 N 0.67264 0.86774 0.58933 0.0
N113 N 0.71135 0.88655 0.60749 0.0
C114 C 0.63985 0.88207 0.53196 0.0
H115 H 0.61854 0.84495 0.52995 0.0
H116 H 0.65434 0.89608 0.50401 0.0
H117 H 0.61814 0.89583 0.54092 0.0
C118 C 0.59819 0.69168 0.57701 0.0
N119 N 0.58925 0.72227 0.59243 0.0
N120 N 0.61974 0.76272 0.58108 0.0
C121 C 0.6482 0.75892 0.55712 0.0
C122 C 0.63548 0.71379 0.55378 0.0
C123 C 0.57271 0.64242 0.58562 0.0
H124 H 0.55708 0.63646 0.61381 0.0
H125 H 0.5458 0.62509 0.56444 0.0
H126 H 0.59505 0.62774 0.58427 0.0
O127 O 0.57434 0.73922 0.67764 0.0
O128 O 0.62184 0.80986 0.66023 0.0
H129 H 0.71225 0.81851 0.56282 0.0
H130 H 0.70677 0.78674 0.52087 0.0
C131 C 0.68892 0.79793 0.54017 0.0
H132 H 0.67873 0.81935 0.52461 0.0
H133 H 0.71752 0.87284 0.63132 0.0
O134 O 0.49292 0.6552 0.63058 0.0
C135 C 0.60352 0.77977 0.68561 0.0
Co136 Co 0.83248 0.5364 0.12356 0.0
Co137 Co 0.81586 0.61626 0.1046 0.0
C138 C 0.74221 0.52205 0.09806 0.0
O139 O 0.769 0.50902 0.10898 0.0
O140 O 0.75552 0.5635 0.09303 0.0
C141 C 0.83678 0.46179 0.09554 0.0
O142 O 0.8317 0.47761 0.06351 0.0
C143 C 0.78862 0.67295 0.06431 0.0
C144 C 0.83521 0.74073 0.08651 0.0
C145 C 0.80022 0.71765 0.06154 0.0
N146 N 0.81548 0.66949 0.08984 0.0
N147 N 0.84311 0.7101 0.10319 0.0
C148 C 0.75453 0.63453 0.04136 0.0
H149 H 0.76811 0.61247 0.03302 0.0
H150 H 0.7452 0.64657 0.01589 0.0
H151 H 0.72386 0.6144 0.05853 0.0
C152 C 0.91212 0.58989 0.07466 0.0
N153 N 0.87293 0.5818 0.09029 0.0
N154 N 0.86457 0.61384 0.08038 0.0
C155 C 0.89741 0.64235 0.05683 0.0
C156 C 0.92871 0.62825 0.05264 0.0
C157 C 0.93397 0.56219 0.08157 0.0
H158 H 0.9244 0.54609 0.10958 0.0
H159 H 0.92261 0.53559 0.05989 0.0
H160 H 0.97113 0.58295 0.07964 0.0
O161 O 0.83416 0.56077 0.17373 0.0
O162 O 0.82158 0.61712 0.16075 0.0
H163 H 0.91045 0.7096 0.06307 0.0
H164 H 0.92597 0.69826 0.0179 0.0
C165 C 0.90055 0.68402 0.04066 0.0
H166 H 0.8673 0.67638 0.02957 0.0
H167 H 0.86767 0.71696 0.1234 0.0
O168 O 0.84138 0.48374 0.12554 0.0
C169 C 0.8278 0.59267 0.18425 0.0
Co170 Co 0.30536 0.82902 0.62953 0.0
Co171 Co 0.21006 0.80672 0.60138 0.0
C172 C 0.23234 0.73637 0.60089 0.0
O173 O 0.26917 0.76418 0.61658 0.0
O174 O 0.20516 0.74853 0.58909 0.0
C175 C 0.38669 0.83715 0.60229 0.0
O176 O 0.36776 0.83577 0.56997 0.0
C177 C 0.12773 0.78166 0.55854 0.0
C178 C 0.10388 0.8244 0.58465 0.0
C179 C 0.09372 0.79234 0.5571 0.0
N180 N 0.15692 0.80668 0.58547 0.0
N181 N 0.14249 0.83214 0.60095 0.0
C182 C 0.13103 0.74598 0.53699 0.0
H183 H 0.12625 0.71884 0.55659 0.0
H184 H 0.16516 0.7603 0.5246 0.0
H185 H 0.10526 0.73089 0.51471 0.0
C186 C 0.33256 0.90782 0.57998 0.0
N187 N 0.30141 0.86767 0.59386 0.0
N188 N 0.26203 0.85628 0.57932 0.0
C189 C 0.26729 0.88743 0.55366 0.0
C190 C 0.31235 0.92196 0.55338 0.0
C191 C 0.37908 0.93415 0.59581 0.0
H192 H 0.38003 0.92238 0.62459 0.0
H193 H 0.40278 0.9291 0.57809 0.0
H194 H 0.39033 0.97058 0.59658 0.0
O195 O 0.28144 0.83479 0.67793 0.0
O196 O 0.21141 0.81033 0.65792 0.0
H197 H 0.21076 0.89604 0.54281 0.0
H198 H 0.24346 0.90015 0.50156 0.0
C199 C 0.2301 0.88234 0.52856 0.0
H200 H 0.20692 0.84629 0.52259 0.0
H201 H 0.1589 0.85463 0.62282 0.0
O202 O 0.36731 0.83809 0.63251 0.0
C203 C 0.24026 0.82232 0.68436 0.0
Co204 Co 0.72377 0.53772 0.40228 0.0
Co205 Co 0.82059 0.61834 0.41853 0.0
C206 C 0.80061 0.52411 0.42586 0.0
O207 O 0.76032 0.51062 0.41605 0.0
O208 O 0.82868 0.56572 0.43009 0.0
C209 C 0.64544 0.46263 0.4312 0.0
O210 O 0.66704 0.47787 0.463 0.0
C211 C 0.89959 0.67878 0.46311 0.0
C212 C 0.9381 0.73482 0.42364 0.0
C213 C 0.93975 0.71906 0.45903 0.0
N214 N 0.87534 0.67122 0.43164 0.0
N215 N 0.89833 0.70507 0.40831 0.0
C216 C 0.88624 0.64591 0.4948 0.0
H217 H 0.85453 0.61448 0.48842 0.0
H218 H 0.88083 0.6607 0.52051 0.0
H219 H 0.91359 0.63839 0.50056 0.0
C220 C 0.69865 0.59174 0.45136 0.0
N221 N 0.72954 0.58366 0.43532 0.0
N222 N 0.77013 0.61685 0.44335 0.0
C223 C 0.76616 0.64661 0.46554 0.0
C224 C 0.72077 0.63158 0.47143 0.0
C225 C 0.64887 0.56279 0.44633 0.0
H226 H 0.64129 0.54665 0.41834 0.0
H227 H 0.63551 0.53616 0.46812 0.0
H228 H 0.63151 0.58251 0.44949 0.0
O229 O 0.74482 0.56148 0.3515 0.0
O230 O 0.81406 0.6182 0.3626 0.0
H231 H 0.82634 0.70874 0.45373 0.0
H232 H 0.79309 0.71199 0.4917 0.0
C233 C 0.80479 0.69057 0.47812 0.0
H234 H 0.82536 0.68416 0.49841 0.0
H235 H 0.88756 0.70709 0.38141 0.0
O236 O 0.66216 0.48503 0.40124 0.0
C237 C 0.78265 0.59326 0.33992 0.0
Co238 Co 0.19032 0.71662 0.89676 0.0
Co239 Co 0.21129 0.81287 0.92106 0.0
C240 C 0.28278 0.79102 0.92311 0.0
O241 O 0.25511 0.75316 0.90895 0.0
O242 O 0.27026 0.81853 0.93324 0.0
C243 C 0.18542 0.6374 0.92514 0.0
O244 O 0.18984 0.65835 0.957 0.0
C245 C 0.23669 0.8943 0.96441 0.0
C246 C 0.2005 0.92356 0.93528 0.0
C247 C 0.22982 0.93088 0.96463 0.0
N248 N 0.21297 0.867 0.93606 0.0
N249 N 0.19139 0.88464 0.91873 0.0
C250 C 0.2628 0.88354 0.99199 0.0
H251 H 0.2475 0.84655 0.99491 0.0
H252 H 0.26377 0.89848 0.0198 0.0
H253 H 0.29777 0.89737 0.9816 0.0
C254 C 0.11217 0.6906 0.94745 0.0
N255 N 0.15179 0.72152 0.93234 0.0
N256 N 0.16154 0.76177 0.94396 0.0
C257 C 0.12907 0.7575 0.9679 0.0
C258 C 0.09668 0.71227 0.97082 0.0
C259 C 0.08877 0.64143 0.93856 0.0
H260 H 0.09895 0.63588 0.91046 0.0
H261 H 0.09813 0.62398 0.95983 0.0
H262 H 0.0517 0.62643 0.9395 0.0
O263 O 0.18407 0.73903 0.84739 0.0
O264 O 0.20681 0.80955 0.86494 0.0
H265 H 0.09877 0.78476 1.00519 0.0
H266 H 0.15924 0.81831 0.99983 0.0
C267 C 0.12716 0.79622 0.98513 0.0
H268 H 0.12304 0.81622 0.96268 0.0
H269 H 0.17054 0.87016 0.89555 0.0
O270 O 0.18164 0.65485 0.89481 0.0
C271 C 0.19534 0.7796 0.8395 0.0
Co272 Co 0.48416 0.18588 0.39494 0.0
Co273 Co 0.4111 0.20747 0.4233 0.0
C274 C 0.50392 0.27751 0.42592 0.0
O275 O 0.51314 0.25023 0.40954 0.0
O276 O 0.46427 0.26518 0.43701 0.0
C277 C 0.55725 0.17899 0.42212 0.0
O278 O 0.53911 0.18032 0.4542 0.0
C279 C 0.35492 0.23305 0.46637 0.0
C280 C 0.28858 0.19321 0.43922 0.0
C281 C 0.31092 0.22475 0.46709 0.0
N282 N 0.35841 0.20805 0.43907 0.0
N283 N 0.31866 0.18421 0.42299 0.0
C284 C 0.3924 0.2615 0.49279 0.0
H285 H 0.41505 0.2474 0.4963 0.0
H286 H 0.37908 0.26355 0.52063 0.0
H287 H 0.41243 0.29591 0.481 0.0
C288 C 0.43183 0.10573 0.44316 0.0
N289 N 0.44092 0.14612 0.42984 0.0
N290 N 0.41249 0.15698 0.44435 0.0
C291 C 0.38599 0.12508 0.46931 0.0
C292 C 0.39676 0.09074 0.46923 0.0
C293 C 0.45296 0.08019 0.42745 0.0
H294 H 0.46612 0.09242 0.39884 0.0
H295 H 0.48155 0.08556 0.44547 0.0
H296 H 0.42822 0.04364 0.42634 0.0
O297 O 0.45553 0.18168 0.34638 0.0
O298 O 0.40965 0.2056 0.36674 0.0
H299 H 0.32034 0.11567 0.47925 0.0
H300 H 0.34782 0.11063 0.52079 0.0
C301 C 0.35296 0.12916 0.49409 0.0
H302 H 0.36536 0.16492 0.50075 0.0
H303 H 0.31217 0.16204 0.40077 0.0
O304 O 0.53698 0.17709 0.3917 0.0
C305 C 0.42697 0.19433 0.34012 0.0
Co306 Co 0.30303 0.4767 0.89755 0.0
Co307 Co 0.2071 0.40267 0.92386 0.0
C308 C 0.22968 0.49599 0.92517 0.0
O309 O 0.2668 0.50541 0.90978 0.0
O310 O 0.20253 0.45642 0.93659 0.0
C311 C 0.38172 0.55099 0.92529 0.0
O312 O 0.36054 0.53439 0.95712 0.0
C313 C 0.11805 0.34543 0.95849 0.0
C314 C 0.10853 0.2775 0.94982 0.0
C315 C 0.0892 0.3002 0.96657 0.0
N316 N 0.15348 0.34922 0.93915 0.0
N317 N 0.14705 0.3084 0.93339 0.0
C318 C 0.11023 0.38402 0.96546 0.0
H319 H 0.11979 0.40572 0.94022 0.0
H320 H 0.13152 0.40439 0.9892 0.0
H321 H 0.07439 0.37241 0.97167 0.0
C322 C 0.32984 0.42569 0.94838 0.0
N323 N 0.29861 0.43399 0.93348 0.0
N324 N 0.2587 0.40466 0.94674 0.0
C325 C 0.26381 0.37835 0.9722 0.0
C326 C 0.30893 0.39042 0.97366 0.0
C327 C 0.37867 0.45055 0.938 0.0
H328 H 0.38331 0.4653 0.90956 0.0
H329 H 0.39725 0.47803 0.95848 0.0
H330 H 0.39324 0.42813 0.93894 0.0
O331 O 0.28041 0.44729 0.84883 0.0
O332 O 0.20992 0.40095 0.86752 0.0
H333 H 0.21289 0.3094 0.97743 0.0
H334 H 0.23823 0.33564 0.02098 0.0
C335 C 0.22621 0.34102 0.99369 0.0
H336 H 0.19887 0.34868 0.99873 0.0
H337 H 0.1695 0.30172 0.91887 0.0
O338 O 0.36468 0.52961 0.89499 0.0
C339 C 0.23956 0.41832 0.84164 0.0
Co340 Co 0.83786 0.30307 0.39526 0.0
Co341 Co 0.81542 0.20744 0.42248 0.0
C342 C 0.74484 0.22984 0.42346 0.0
O343 O 0.77267 0.26712 0.40827 0.0
O344 O 0.75707 0.20243 0.43447 0.0
C345 C 0.84784 0.38499 0.4234 0.0
O346 O 0.84638 0.36573 0.4556 0.0
C347 C 0.78823 0.12429 0.46441 0.0
C348 C 0.83122 0.10017 0.43927 0.0
C349 C 0.79777 0.08946 0.46578 0.0
N350 N 0.81443 0.1538 0.43804 0.0
N351 N 0.84007 0.13923 0.42313 0.0
C352 C 0.75757 0.13164 0.48963 0.0
H353 H 0.77089 0.16813 0.49393 0.0
H354 H 0.75385 0.11525 0.51726 0.0
H355 H 0.72396 0.11724 0.47632 0.0
C356 C 0.91682 0.32918 0.44436 0.0
N357 N 0.87649 0.29838 0.4306 0.0
N358 N 0.86493 0.25883 0.44488 0.0
C359 C 0.89613 0.2636 0.47028 0.0
C360 C 0.93086 0.30854 0.47065 0.0
C361 C 0.94349 0.37573 0.42857 0.0
H362 H 0.93173 0.37697 0.39987 0.0
H363 H 0.9388 0.39951 0.44643 0.0
H364 H 0.97986 0.38662 0.42762 0.0
O365 O 0.84338 0.27961 0.34638 0.0
O366 O 0.81962 0.20959 0.36603 0.0
H367 H 0.90496 0.20708 0.48034 0.0
H368 H 0.9087 0.23893 0.52198 0.0
C369 C 0.89104 0.22602 0.49491 0.0
H370 H 0.85499 0.20263 0.50078 0.0
H371 H 0.86359 0.15597 0.40191 0.0
O372 O 0.84789 0.36545 0.39302 0.0
C373 C 0.8313 0.23861 0.33969 0.0
Co374 Co 0.54201 0.82938 0.89451 0.0
Co375 Co 0.61449 0.80726 0.92409 0.0
C376 C 0.52186 0.73704 0.92482 0.0
O377 O 0.51318 0.76457 0.90812 0.0
O378 O 0.56098 0.74945 0.93734 0.0
C379 C 0.46912 0.83748 0.92147 0.0
O380 O 0.48677 0.83587 0.95367 0.0
C381 C 0.67234 0.77606 0.95812 0.0
C382 C 0.73882 0.83804 0.9568 0.0
C383 C 0.7169 0.79393 0.96944 0.0
N384 N 0.66808 0.80866 0.94103 0.0
N385 N 0.70816 0.84528 0.93956 0.0
C386 C 0.63526 0.72806 0.95998 0.0
H387 H 0.61433 0.7194 0.93434 0.0
H388 H 0.61354 0.72343 0.98459 0.0
H389 H 0.64878 0.70478 0.96212 0.0
C390 C 0.59255 0.90835 0.94391 0.0
N391 N 0.58417 0.86842 0.93007 0.0
N392 N 0.61144 0.85675 0.94566 0.0
C393 C 0.63579 0.88728 0.97223 0.0
C394 C 0.62549 0.92191 0.97163 0.0
C395 C 0.57272 0.93478 0.92757 0.0
H396 H 0.56068 0.92325 0.89863 0.0
H397 H 0.54362 0.92965 0.94484 0.0
H398 H 0.59796 0.97122 0.9271 0.0
O399 O 0.5721 0.83487 0.84649 0.0
O400 O 0.61716 0.81019 0.8674 0.0
H401 H 0.70005 0.8985 0.99052 0.0
H402 H 0.66307 0.89479 0.02783 0.0
C403 C 0.66459 0.88079 1.00018 0.0
H404 H 0.65325 0.84451 1.0034 0.0
H405 H 0.71434 0.87559 0.92759 0.0
O406 O 0.48928 0.83848 0.89114 0.0
C407 C 0.60071 0.82217 0.84059 0.0
C408 C 0.56921 0.17239 0.07458 0.0
C409 C 0.60023 0.18635 0.10431 0.0
H410 H 0.51234 0.17365 0.05053 0.0
C411 C 0.5976 0.21298 0.13288 0.0
H412 H 0.57076 0.15199 0.0521 0.0
C413 C 0.56561 0.22666 0.1312 0.0
C414 C 0.53469 0.213 0.10147 0.0
H415 H 0.62139 0.22469 0.15586 0.0
H416 H 0.56484 0.24774 0.15345 0.0
C417 C 0.53607 0.18491 0.07354 0.0
C418 C 0.3514 0.56243 0.63203 0.0
C419 C 0.33316 0.53214 0.60197 0.0
H420 H 0.40978 0.61851 0.65565 0.0
C421 C 0.36139 0.53503 0.57227 0.0
H422 H 0.3305 0.56054 0.65554 0.0
C423 C 0.40675 0.56899 0.57198 0.0
C424 C 0.42482 0.59933 0.60206 0.0
H425 H 0.34813 0.51185 0.54892 0.0
H426 H 0.42766 0.57166 0.54823 0.0
C427 C 0.39688 0.59525 0.63233 0.0
C428 C 0.82903 0.35146 0.06823 0.0
C429 C 0.8045 0.32404 0.09858 0.0
H430 H 0.858 0.4171 0.04316 0.0
C431 C 0.79323 0.34297 0.12863 0.0
H432 H 0.83835 0.33762 0.04488 0.0
C433 C 0.80582 0.38836 0.12832 0.0
C434 C 0.82883 0.4155 0.09744 0.0
H435 H 0.77487 0.32268 0.15263 0.0
H436 H 0.79608 0.4018 0.1517 0.0
C437 C 0.84037 0.39676 0.06734 0.0
C438 C 0.46097 0.79053 0.6313 0.0
C439 C 0.49236 0.80463 0.60181 0.0
H440 H 0.40406 0.79118 0.65519 0.0
C441 C 0.49063 0.83216 0.57351 0.0
H442 H 0.46193 0.76982 0.6538 0.0
C443 C 0.45673 0.84368 0.57394 0.0
C444 C 0.42522 0.82925 0.60341 0.0
H445 H 0.51465 0.8437 0.55063 0.0
H446 H 0.45497 0.86364 0.55118 0.0
C447 C 0.42818 0.80322 0.63237 0.0
C448 C 0.67581 0.46018 0.12948 0.0
C449 C 0.69377 0.48879 0.09831 0.0
H450 H 0.61801 0.40488 0.1546 0.0
C451 C 0.66541 0.48441 0.06837 0.0
H452 H 0.697 0.46334 0.15313 0.0
C453 C 0.62015 0.45005 0.06885 0.0
C454 C 0.60249 0.42089 0.09987 0.0
H455 H 0.6786 0.50633 0.04419 0.0
H456 H 0.59911 0.4459 0.04485 0.0
C457 C 0.63053 0.42703 0.1305 0.0
C458 C 0.18032 0.61365 0.57337 0.0
C459 C 0.19341 0.59655 0.60366 0.0
H460 H 0.18168 0.67163 0.54896 0.0
C461 C 0.21862 0.62551 0.63287 0.0
H462 H 0.16102 0.59191 0.55043 0.0
C463 C 0.23175 0.67102 0.63132 0.0
C464 C 0.21891 0.68831 0.60105 0.0
H465 H 0.22963 0.61336 0.6563 0.0
H466 H 0.2517 0.69266 0.65409 0.0
C467 C 0.19228 0.65911 0.57241 0.0
C468 C 0.80342 0.46114 0.39478 0.0
C469 C 0.81612 0.49107 0.42516 0.0
H470 H 0.80487 0.40528 0.36985 0.0
C471 C 0.84272 0.48841 0.45375 0.0
H472 H 0.78338 0.46295 0.37211 0.0
C473 C 0.85429 0.45452 0.45284 0.0
C474 C 0.84078 0.42407 0.42264 0.0
H475 H 0.85309 0.51134 0.47729 0.0
H476 H 0.87325 0.45174 0.4759 0.0
C477 C 0.81613 0.42844 0.39327 0.0
C478 C 0.36038 0.83218 0.95117 0.0
C479 C 0.33103 0.80488 0.92289 0.0
H480 H 0.42764 0.86354 0.97316 0.0
C481 C 0.3482 0.7912 0.89306 0.0
H482 H 0.34797 0.84341 0.97428 0.0
C483 C 0.39368 0.80399 0.89167 0.0
C484 C 0.42276 0.8297 0.92062 0.0
H485 H 0.32643 0.77069 0.87056 0.0
H486 H 0.40566 0.79221 0.86862 0.0
C487 C 0.40582 0.84381 0.9504 0.0
C488 C 0.57683 0.39755 0.45956 0.0
C489 C 0.60685 0.41648 0.42928 0.0
H490 H 0.5195 0.3384 0.48195 0.0
C491 C 0.60213 0.38968 0.39805 0.0
H492 H 0.57999 0.41763 0.484 0.0
C493 C 0.56898 0.34442 0.39753 0.0
C494 C 0.53898 0.32531 0.42773 0.0
H495 H 0.62512 0.40328 0.37452 0.0
H496 H 0.56658 0.32438 0.37325 0.0
C497 C 0.54249 0.3524 0.45847 0.0
C498 C 0.21641 0.59379 0.8941 0.0
C499 C 0.19269 0.59852 0.92412 0.0
H500 H 0.24765 0.55839 0.87165 0.0
C501 C 0.17995 0.56839 0.95449 0.0
H502 H 0.22708 0.61682 0.87056 0.0
C503 C 0.19092 0.53412 0.95478 0.0
C504 C 0.21628 0.53071 0.92537 0.0
H505 H 0.16175 0.57152 0.97805 0.0
H506 H 0.18075 0.5112 0.97836 0.0
C507 C 0.22862 0.56068 0.89497 0.0
C508 C 0.62169 0.175 0.45105 0.0
C509 C 0.60424 0.18866 0.42141 0.0
H510 H 0.68015 0.17671 0.47469 0.0
C511 C 0.63323 0.21561 0.39276 0.0
H512 H 0.59996 0.15442 0.4736 0.0
C513 C 0.67903 0.22971 0.39416 0.0
C514 C 0.69663 0.21612 0.4237 0.0
H515 H 0.62081 0.22714 0.36987 0.0
H516 H 0.70065 0.25086 0.37178 0.0
C517 C 0.66744 0.18794 0.45182 0.0
C518 C 0.42485 0.62545 0.89398 0.0
C519 C 0.42015 0.59735 0.92425 0.0
H520 H 0.45992 0.69193 0.87119 0.0
C521 C 0.44977 0.61522 0.95481 0.0
H522 H 0.40215 0.61269 0.87029 0.0
C523 C 0.4836 0.6606 0.95502 0.0
C524 C 0.48707 0.689 0.92531 0.0
H525 H 0.44662 0.59416 0.97856 0.0
H526 H 0.50623 0.6737 0.97873 0.0
C527 C 0.45753 0.67092 0.89476 0.0
C528 C 0.41529 0.17222 0.27259 0.0
C529 C 0.4186 0.20195 0.30099 0.0
H530 H 0.41307 0.16007 0.21357 0.0
C531 C 0.41938 0.24202 0.29119 0.0
H532 H 0.41487 0.14127 0.27947 0.0
C533 C 0.41984 0.25353 0.25347 0.0
C534 C 0.4179 0.22438 0.22503 0.0
H535 H 0.42245 0.26574 0.31262 0.0
H536 H 0.42294 0.28568 0.24653 0.0
C537 C 0.41413 0.18297 0.23496 0.0
C538 C 0.24292 0.4092 0.73625 0.0
C539 C 0.20385 0.41005 0.72581 0.0
H540 H 0.28541 0.41195 0.7815 0.0
C541 C 0.17424 0.4083 0.75379 0.0
H542 H 0.26657 0.41105 0.71518 0.0
C543 C 0.18435 0.40739 0.79163 0.0
C544 C 0.22501 0.40985 0.80211 0.0
H545 H 0.14403 0.40911 0.74641 0.0
H546 H 0.16176 0.40779 0.81268 0.0
C547 C 0.25381 0.4099 0.77411 0.0
C548 C 0.85181 0.25097 0.27155 0.0
C549 C 0.82399 0.22301 0.30037 0.0
H550 H 0.86164 0.26188 0.21227 0.0
C551 C 0.7855 0.18205 0.29097 0.0
H552 H 0.88153 0.28277 0.27807 0.0
C553 C 0.77336 0.17078 0.25343 0.0
C554 C 0.80035 0.19948 0.22463 0.0
H555 H 0.76318 0.16008 0.31265 0.0
H556 H 0.74217 0.14033 0.24693 0.0
C557 C 0.84049 0.2389 0.23398 0.0
C558 C 0.61401 0.84558 0.77335 0.0
C559 C 0.60995 0.81524 0.8015 0.0
H560 H 0.61687 0.85863 0.71444 0.0
C561 C 0.60878 0.77509 0.79138 0.0
H562 H 0.61473 0.8766 0.78048 0.0
C563 C 0.60852 0.76406 0.75356 0.0
C564 C 0.61102 0.79375 0.72534 0.0
H565 H 0.6051 0.75089 0.81261 0.0
H566 H 0.60501 0.73181 0.74637 0.0
C567 C 0.61536 0.83529 0.73563 0.0
C568 C 0.8336 0.63569 0.24332 0.0
C569 C 0.81798 0.59475 0.22422 0.0
H570 H 0.83542 0.66754 0.29585 0.0
C571 C 0.78951 0.55431 0.24291 0.0
H572 H 0.85523 0.6673 0.22926 0.0
C573 C 0.77669 0.55454 0.27989 0.0
C574 C 0.79306 0.59514 0.29955 0.0
H575 H 0.77633 0.52232 0.22864 0.0
H576 H 0.75494 0.52261 0.29349 0.0
C577 C 0.82203 0.63583 0.28113 0.0
C578 C 0.17433 0.7646 0.77164 0.0
C579 C 0.20204 0.7938 0.79981 0.0
H580 H 0.16404 0.75187 0.71262 0.0
C581 C 0.23985 0.83493 0.7895 0.0
H582 H 0.14513 0.73265 0.77887 0.0
C583 C 0.25145 0.84527 0.75175 0.0
C584 C 0.22455 0.81542 0.72362 0.0
H585 H 0.26208 0.85786 0.81068 0.0
H586 H 0.28214 0.87596 0.74456 0.0
C587 C 0.18507 0.77571 0.73382 0.0
C588 C 0.22421 0.98994 1.00123 0.0
C589 C 0.24984 0.97056 0.98958 0.0
H590 H 0.22255 0.04196 0.03322 0.0
C591 C 0.29494 0.99027 1.00096 0.0
H592 H 0.1894 0.97551 0.99271 0.0
C593 C 0.31387 0.02822 0.02398 0.0
C594 C 0.28825 0.04757 0.03571 0.0
H595 H 0.31591 0.97685 0.99168 0.0
H596 H 0.34837 0.04192 0.03299 0.0
C597 C 0.24311 0.02782 0.02442 0.0
C598 C 0.22643 0.23937 0.52466 0.0
C599 C 0.25195 0.28446 0.536 0.0
H600 H 0.22522 0.18521 0.49385 0.0
C601 C 0.29726 0.30956 0.52504 0.0
H602 H 0.19145 0.21913 0.53287 0.0
C603 C 0.31634 0.29039 0.50239 0.0
C604 C 0.29096 0.24526 0.49118 0.0
H605 H 0.31836 0.34387 0.53427 0.0
H606 H 0.35083 0.31129 0.49335 0.0
C607 C 0.24568 0.22003 0.50226 0.0
C608 C 1.00363 0.28209 0.042 0.0
C609 C 0.96931 0.23821 0.03415 0.0
H610 H 0.06949 0.33525 0.02829 0.0
C611 C 0.97481 0.21436 1.00471 0.0
H612 H 1.00039 0.30058 0.06525 0.0
C613 C 0.01362 0.2348 0.98251 0.0
C614 C 0.04776 0.2792 0.98975 0.0
H615 H 0.94874 0.18026 0.99846 0.0
H616 H 0.01678 0.21595 0.95952 0.0
C617 C 0.04284 0.30214 0.0204 0.0
C618 C 0.71228 0.98879 0.52156 0.0
C619 C 0.73872 0.97131 0.53542 0.0
H620 H 0.70971 0.03881 0.48773 0.0
C621 C 0.78471 0.9931 0.52631 0.0
H622 H 0.67708 0.9737 0.52892 0.0
C623 C 0.80375 0.03131 0.50345 0.0
C624 C 0.77732 0.0489 0.4898 0.0
H625 H 0.80593 0.98046 0.53673 0.0
H626 H 0.83931 0.04749 0.49688 0.0
C627 C 0.73128 0.0269 0.49868 0.0
C628 C 0.73266 0.72057 0.04058 0.0
C629 C 0.77904 0.73699 0.03793 0.0
H630 H 0.67703 0.72727 0.02301 0.0
C631 C 0.80497 0.77213 0.013 0.0
H632 H 0.7123 0.69412 0.06035 0.0
C633 C 0.78447 0.78986 0.99021 0.0
C634 C 0.7378 0.77324 0.99246 0.0
H635 H 0.84093 0.78538 1.01076 0.0
H636 H 0.8052 0.81665 0.97085 0.0
C637 C 0.71236 0.73907 0.01859 0.0
C638 C 0.97383 0.74144 0.52308 0.0
C639 C 0.97907 0.73883 0.48429 0.0
H640 H 1.00647 0.76074 0.57661 0.0
C641 C 0.02248 0.75541 0.46945 0.0
H642 H 0.941 0.7305 0.53512 0.0
C643 C 0.05983 0.77281 0.49314 0.0
C644 C 0.0544 0.77413 0.53201 0.0
H645 H 0.02747 0.75426 0.43958 0.0
H646 H 0.093 0.7855 0.48105 0.0
C647 C 1.01127 0.75919 0.54675 0.0
C648 C 0.64251 0.02678 0.0229 0.0
C649 C 0.68775 0.04703 0.03419 0.0
H650 H 0.58661 0.97039 0.9973 0.0
C651 C 0.71202 0.02529 0.02511 0.0
H652 H 0.62274 0.04268 0.02846 0.0
C653 C 0.69219 0.98545 1.00431 0.0
C654 C 0.64668 0.96464 0.99374 0.0
H655 H 0.74643 0.03872 0.03414 0.0
H656 H 0.71301 0.97146 0.99628 0.0
C657 C 0.62197 0.98562 1.00388 0.0
C658 C 0.67707 0.67211 0.47339 0.0
C659 C 0.70039 0.65419 0.49239 0.0
H660 H 0.63845 0.70556 0.47824 0.0
C661 C 0.70343 0.65714 0.53161 0.0
H662 H 0.67465 0.67044 0.4431 0.0
C663 C 0.68239 0.67668 0.55163 0.0
C664 C 0.65855 0.69404 0.53265 0.0
H665 H 0.72141 0.64364 0.54675 0.0
H666 H 0.68461 0.67815 0.58193 0.0
C667 C 0.65651 0.69214 0.49337 0.0
C668 C 1.01293 0.67102 0.05094 0.0
C669 C 0.97173 0.65084 0.03171 0.0
H670 H 0.08509 0.70679 0.0464 0.0
C671 C 0.97179 0.65204 0.99241 0.0
H672 H 0.01355 0.67076 0.08129 0.0
C673 C 1.01249 0.67232 0.97257 0.0
C674 C 0.05369 0.69198 0.99177 0.0
H675 H 0.94034 0.63681 0.9771 0.0
H676 H 1.01185 0.67262 0.94221 0.0
C677 C 0.05364 0.69165 0.03109 0.0
C678 C 0.30909 0.98607 0.52133 0.0
C679 C 0.33366 0.96494 0.53141 0.0
H680 H 0.30792 0.03916 0.49123 0.0
C681 C 0.37917 0.9857 0.52068 0.0
H682 H 0.27444 0.97237 0.52988 0.0
C683 C 0.3998 0.02696 0.50178 0.0
C684 C 0.37492 0.0474 0.4907 0.0
H685 H 0.39924 0.97027 0.52673 0.0
H686 H 0.43544 0.04272 0.49611 0.0
C687 C 0.32896 0.02576 0.50017 0.0
C688 C 0.34763 0.34504 0.97537 0.0
C689 C 0.32937 0.36791 0.99462 0.0
H690 H 0.38193 0.30725 0.97972 0.0
C691 C 0.3308 0.36923 0.03392 0.0
H692 H 0.34639 0.3432 0.94505 0.0
C693 C 0.35091 0.34863 0.05365 0.0
C694 C 0.36988 0.32644 0.03437 0.0
H695 H 0.3168 0.38661 0.04929 0.0
H696 H 0.35172 0.35009 0.08399 0.0
C697 C 0.36766 0.32437 0.9951 0.0
C698 C 0.03429 0.32414 0.52386 0.0
C699 C 0.05595 0.36993 0.53366 0.0
H700 H 0.98105 0.27014 0.49375 0.0
C701 C 0.0358 0.39509 0.52258 0.0
H702 H 0.04748 0.30289 0.53272 0.0
C703 C 0.9947 0.37484 0.50353 0.0
C704 C 0.97383 0.32947 0.49257 0.0
H705 H 0.05163 0.43064 0.52845 0.0
H706 H 0.97943 0.39508 0.4976 0.0
C707 C 0.99478 0.30467 0.50251 0.0
loop_
_geom_bond_atom_site_label_1
_geom_bond_atom_site_label_2
_geom_bond_distance
_geom_bond_site_symmetry_2
_ccdc_geom_bond_type
Co0 O3 1.970 . S
Co0 N17 1.989 . S
Co0 O25 1.967 . S
Co0 O32 1.920 . S
Co1 O4 1.966 . S
Co1 N10 2.022 . S
Co1 N18 1.993 . S
Co1 O26 1.941 . S
C2 O3 1.258 . S
C2 O4 1.263 . S
O3 Co0 1.970 . S
O3 C2 1.258 . S
O4 Co1 1.966 . S
O4 C2 1.263 . S
C5 O6 1.235 . S
C5 O32 1.289 . S
O6 C5 1.235 . S
C7 C9 1.400 . S
C7 N10 1.351 . S
C7 C12 1.501 . S
C8 C9 1.387 . S
C8 N11 1.341 . S
C9 C7 1.400 . S
C9 C8 1.387 . S
N10 Co1 2.022 . S
N10 C7 1.351 . S
N10 N11 1.365 . S
N11 C8 1.341 . S
N11 N10 1.365 . S
N11 H31 0.862 . S
C12 C7 1.501 . S
C12 H13 0.961 . S
C12 H14 0.961 . S
C12 H15 0.960 . S
H13 C12 0.961 . S
H14 C12 0.961 . S
H15 C12 0.960 . S
C16 N17 1.342 . S
C16 C20 1.401 . S
C16 C21 1.499 . S
N17 Co0 1.989 . S
N17 C16 1.342 . S
N17 N18 1.388 . S
N18 Co1 1.993 . S
N18 N17 1.388 . S
N18 C19 1.346 . S
C19 N18 1.346 . S
C19 C20 1.396 . S
C19 C29 1.510 . S
C20 C16 1.401 . S
C20 C19 1.396 . S
C21 C16 1.499 . S
C21 H22 0.959 . S
C21 H23 0.960 . S
C21 H24 0.961 . S
H22 C21 0.959 . S
H23 C21 0.960 . S
H24 C21 0.961 . S
O25 Co0 1.967 . S
O25 C33 1.258 . S
O26 Co1 1.941 . S
O26 C33 1.266 . S
H27 C29 0.959 . S
H28 C29 0.961 . S
C29 C19 1.510 . S
C29 H27 0.959 . S
C29 H28 0.961 . S
C29 H30 0.960 . S
H30 C29 0.960 . S
H31 N11 0.862 . S
O32 Co0 1.920 . S
O32 C5 1.289 . S
C33 O25 1.258 . S
C33 O26 1.266 . S
Co34 O37 1.970 . S
Co34 N51 1.989 . S
Co34 O59 1.967 . S
Co34 O66 1.920 . S
Co35 O38 1.966 . S
Co35 N44 2.022 . S
Co35 N52 1.993 . S
Co35 O60 1.941 . S
C36 O37 1.258 . S
C36 O38 1.263 . S
O37 Co34 1.970 . S
O37 C36 1.258 . S
O38 Co35 1.966 . S
O38 C36 1.263 . S
C39 O40 1.235 . S
C39 O66 1.289 . S
O40 C39 1.235 . S
C41 C43 1.400 . S
C41 N44 1.351 . S
C41 C46 1.501 . S
C42 C43 1.387 . S
C42 N45 1.341 . S
C43 C41 1.400 . S
C43 C42 1.387 . S
N44 Co35 2.022 . S
N44 C41 1.351 . S
N44 N45 1.365 . S
N45 C42 1.341 . S
N45 N44 1.365 . S
N45 H65 0.862 . S
C46 C41 1.501 . S
C46 H47 0.961 . S
C46 H48 0.961 . S
C46 H49 0.960 . S
H47 C46 0.961 . S
H48 C46 0.961 . S
H49 C46 0.960 . S
C50 N51 1.342 . S
C50 C54 1.401 . S
C50 C55 1.499 . S
N51 Co34 1.989 . S
N51 C50 1.342 . S
N51 N52 1.388 . S
N52 Co35 1.993 . S
N52 N51 1.388 . S
N52 C53 1.346 . S
C53 N52 1.346 . S
C53 C54 1.396 . S
C53 C63 1.510 . S
C54 C50 1.401 . S
C54 C53 1.396 . S
C55 C50 1.499 . S
C55 H56 0.959 . S
C55 H57 0.960 . S
C55 H58 0.961 . S
H56 C55 0.959 . S
H57 C55 0.960 . S
H58 C55 0.961 . S
O59 Co34 1.967 . S
O59 C67 1.258 . S
O60 Co35 1.941 . S
O60 C67 1.266 . S
H61 C63 0.959 . S
H62 C63 0.961 . S
C63 C53 1.510 . S
C63 H61 0.959 . S
C63 H62 0.961 . S
C63 H64 0.960 . S
H64 C63 0.960 . S
H65 N45 0.862 . S
O66 Co34 1.920 . S
O66 C39 1.289 . S
C67 O59 1.258 . S
C67 O60 1.266 . S
Co68 O71 1.970 . S
Co68 N85 1.989 . S
Co68 O93 1.967 . S
Co68 O100 1.920 . S
Co69 O72 1.966 . S
Co69 N78 2.022 . S
Co69 N86 1.993 . S
Co69 O94 1.941 . S
C70 O71 1.258 . S
C70 O72 1.263 . S
O71 Co68 1.970 . S
O71 C70 1.258 . S
O72 Co69 1.966 . S
O72 C70 1.263 . S
C73 O74 1.235 . S
C73 O100 1.289 . S
O74 C73 1.235 . S
C75 C77 1.400 . S
C75 N78 1.351 . S
C75 C80 1.501 . S
C76 C77 1.387 . S
C76 N79 1.341 . S
C77 C75 1.400 . S
C77 C76 1.387 . S
N78 Co69 2.022 . S
N78 C75 1.351 . S
N78 N79 1.365 . S
N79 C76 1.341 . S
N79 N78 1.365 . S
N79 H99 0.862 . S
C80 C75 1.501 . S
C80 H81 0.961 . S
C80 H82 0.961 . S
C80 H83 0.960 . S
H81 C80 0.961 . S
H82 C80 0.961 . S
H83 C80 0.960 . S
C84 N85 1.342 . S
C84 C88 1.401 . S
C84 C89 1.499 . S
N85 Co68 1.989 . S
N85 C84 1.342 . S
N85 N86 1.388 . S
N86 Co69 1.993 . S
N86 N85 1.388 . S
N86 C87 1.346 . S
C87 N86 1.346 . S
C87 C88 1.396 . S
C87 C97 1.510 . S
C88 C84 1.401 . S
C88 C87 1.396 . S
C89 C84 1.499 . S
C89 H90 0.959 . S
C89 H91 0.960 . S
C89 H92 0.961 . S
H90 C89 0.959 . S
H91 C89 0.960 . S
H92 C89 0.961 . S
O93 Co68 1.967 . S
O93 C101 1.258 . S
O94 Co69 1.941 . S
O94 C101 1.266 . S
H95 C97 0.959 . S
H96 C97 0.961 . S
C97 C87 1.510 . S
C97 H95 0.959 . S
C97 H96 0.961 . S
C97 H98 0.960 . S
H98 C97 0.960 . S
H99 N79 0.862 . S
O100 Co68 1.920 . S
O100 C73 1.289 . S
C101 O93 1.258 . S
C101 O94 1.266 . S
Co102 O105 1.970 . S
Co102 N119 1.989 . S
Co102 O127 1.967 . S
Co102 O134 1.920 . S
Co103 O106 1.966 . S
Co103 N112 2.022 . S
Co103 N120 1.993 . S
Co103 O128 1.941 . S
C104 O105 1.258 . S
C104 O106 1.263 . S
O105 Co102 1.970 . S
O105 C104 1.258 . S
O106 Co103 1.966 . S
O106 C104 1.263 . S
C107 O108 1.235 . S
C107 O134 1.289 . S
O108 C107 1.235 . S
C109 C111 1.400 . S
C109 N112 1.351 . S
C109 C114 1.501 . S
C110 C111 1.387 . S
C110 N113 1.341 . S
C111 C109 1.400 . S
C111 C110 1.387 . S
N112 Co103 2.022 . S
N112 C109 1.351 . S
N112 N113 1.365 . S
N113 C110 1.341 . S
N113 N112 1.365 . S
N113 H133 0.862 . S
C114 C109 1.501 . S
C114 H115 0.961 . S
C114 H116 0.961 . S
C114 H117 0.960 . S
H115 C114 0.961 . S
H116 C114 0.961 . S
H117 C114 0.960 . S
C118 N119 1.342 . S
C118 C122 1.401 . S
C118 C123 1.499 . S
N119 Co102 1.989 . S
N119 C118 1.342 . S
N119 N120 1.388 . S
N120 Co103 1.993 . S
N120 N119 1.388 . S
N120 C121 1.346 . S
C121 N120 1.346 . S
C121 C122 1.396 . S
C121 C131 1.510 . S
C122 C118 1.401 . S
C122 C121 1.396 . S
C123 C118 1.499 . S
C123 H124 0.959 . S
C123 H125 0.960 . S
C123 H126 0.961 . S
H124 C123 0.959 . S
H125 C123 0.960 . S
H126 C123 0.961 . S
O127 Co102 1.967 . S
O127 C135 1.258 . S
O128 Co103 1.941 . S
O128 C135 1.266 . S
H129 C131 0.959 . S
H130 C131 0.961 . S
C131 C121 1.510 . S
C131 H129 0.959 . S
C131 H130 0.961 . S
C131 H132 0.960 . S
H132 C131 0.960 . S
H133 N113 0.862 . S
O134 Co102 1.920 . S
O134 C107 1.289 . S
C135 O127 1.258 . S
C135 O128 1.266 . S
Co136 O139 1.970 . S
Co136 N153 1.989 . S
Co136 O161 1.967 . S
Co136 O168 1.920 . S
Co137 O140 1.966 . S
Co137 N146 2.022 . S
Co137 N154 1.993 . S
Co137 O162 1.941 . S
C138 O139 1.258 . S
C138 O140 1.263 . S
O139 Co136 1.970 . S
O139 C138 1.258 . S
O140 Co137 1.966 . S
O140 C138 1.263 . S
C141 O142 1.235 . S
C141 O168 1.289 . S
O142 C141 1.235 . S
C143 C145 1.400 . S
C143 N146 1.351 . S
C143 C148 1.501 . S
C144 C145 1.387 . S
C144 N147 1.341 . S
C145 C143 1.400 . S
C145 C144 1.387 . S
N146 Co137 2.022 . S
N146 C143 1.351 . S
N146 N147 1.365 . S
N147 C144 1.341 . S
N147 N146 1.365 . S
N147 H167 0.862 . S
C148 C143 1.501 . S
C148 H149 0.961 . S
C148 H150 0.961 . S
C148 H151 0.960 . S
H149 C148 0.961 . S
H150 C148 0.961 . S
H151 C148 0.960 . S
C152 N153 1.342 . S
C152 C156 1.401 . S
C152 C157 1.499 . S
N153 Co136 1.989 . S
N153 C152 1.342 . S
N153 N154 1.388 . S
N154 Co137 1.993 . S
N154 N153 1.388 . S
N154 C155 1.346 . S
C155 N154 1.346 . S
C155 C156 1.396 . S
C155 C165 1.510 . S
C156 C152 1.401 . S
C156 C155 1.396 . S
C157 C152 1.499 . S
C157 H158 0.959 . S
C157 H159 0.960 . S
C157 H160 0.961 . S
H158 C157 0.959 . S
H159 C157 0.960 . S
H160 C157 0.961 . S
O161 Co136 1.967 . S
O161 C169 1.258 . S
O162 Co137 1.941 . S
O162 C169 1.266 . S
H163 C165 0.959 . S
H164 C165 0.961 . S
C165 C155 1.510 . S
C165 H163 0.959 . S
C165 H164 0.961 . S
C165 H166 0.960 . S
H166 C165 0.960 . S
H167 N147 0.862 . S
O168 Co136 1.920 . S
O168 C141 1.289 . S
C169 O161 1.258 . S
C169 O162 1.266 . S
Co170 O173 1.970 . S
Co170 N187 1.989 . S
Co170 O195 1.967 . S
Co170 O202 1.920 . S
Co171 O174 1.966 . S
Co171 N180 2.022 . S
Co171 N188 1.993 . S
Co171 O196 1.941 . S
C172 O173 1.258 . S
C172 O174 1.263 . S
O173 Co170 1.970 . S
O173 C172 1.258 . S
O174 Co171 1.966 . S
O174 C172 1.263 . S
C175 O176 1.235 . S
C175 O202 1.289 . S
O176 C175 1.235 . S
C177 C179 1.400 . S
C177 N180 1.351 . S
C177 C182 1.501 . S
C178 C179 1.387 . S
C178 N181 1.341 . S
C179 C177 1.400 . S
C179 C178 1.387 . S
N180 Co171 2.022 . S
N180 C177 1.351 . S
N180 N181 1.365 . S
N181 C178 1.341 . S
N181 N180 1.365 . S
N181 H201 0.862 . S
C182 C177 1.501 . S
C182 H183 0.961 . S
C182 H184 0.961 . S
C182 H185 0.960 . S
H183 C182 0.961 . S
H184 C182 0.961 . S
H185 C182 0.960 . S
C186 N187 1.342 . S
C186 C190 1.401 . S
C186 C191 1.499 . S
N187 Co170 1.989 . S
N187 C186 1.342 . S
N187 N188 1.388 . S
N188 Co171 1.993 . S
N188 N187 1.388 . S
N188 C189 1.346 . S
C189 N188 1.346 . S
C189 C190 1.396 . S
C189 C199 1.510 . S
C190 C186 1.401 . S
C190 C189 1.396 . S
C191 C186 1.499 . S
C191 H192 0.959 . S
C191 H193 0.960 . S
C191 H194 0.961 . S
H192 C191 0.959 . S
H193 C191 0.960 . S
H194 C191 0.961 . S
O195 Co170 1.967 . S
O195 C203 1.258 . S
O196 Co171 1.941 . S
O196 C203 1.266 . S
H197 C199 0.959 . S
H198 C199 0.961 . S
C199 C189 1.510 . S
C199 H197 0.959 . S
C199 H198 0.961 . S
C199 H200 0.960 . S
H200 C199 0.960 . S
H201 N181 0.862 . S
O202 Co170 1.920 . S
O202 C175 1.289 . S
C203 O195 1.258 . S
C203 O196 1.266 . S
Co204 O207 1.970 . S
Co204 N221 1.989 . S
Co204 O229 1.967 . S
Co204 O236 1.920 . S
Co205 O208 1.966 . S
Co205 N214 2.022 . S
Co205 N222 1.993 . S
Co205 O230 1.941 . S
C206 O207 1.258 . S
C206 O208 1.263 . S
O207 Co204 1.970 . S
O207 C206 1.258 . S
O208 Co205 1.966 . S
O208 C206 1.263 . S
C209 O210 1.235 . S
C209 O236 1.289 . S
O210 C209 1.235 . S
C211 C213 1.400 . S
C211 N214 1.351 . S
C211 C216 1.501 . S
C212 C213 1.387 . S
C212 N215 1.341 . S
C213 C211 1.400 . S
C213 C212 1.387 . S
N214 Co205 2.022 . S
N214 C211 1.351 . S
N214 N215 1.365 . S
N215 C212 1.341 . S
N215 N214 1.365 . S
N215 H235 0.862 . S
C216 C211 1.501 . S
C216 H217 0.961 . S
C216 H218 0.961 . S
C216 H219 0.960 . S
H217 C216 0.961 . S
H218 C216 0.961 . S
H219 C216 0.960 . S
C220 N221 1.342 . S
C220 C224 1.401 . S
C220 C225 1.499 . S
N221 Co204 1.989 . S
N221 C220 1.342 . S
N221 N222 1.388 . S
N222 Co205 1.993 . S
N222 N221 1.388 . S
N222 C223 1.346 . S
C223 N222 1.346 . S
C223 C224 1.396 . S
C223 C233 1.510 . S
C224 C220 1.401 . S
C224 C223 1.396 . S
C225 C220 1.499 . S
C225 H226 0.959 . S
C225 H227 0.960 . S
C225 H228 0.961 . S
H226 C225 0.959 . S
H227 C225 0.960 . S
H228 C225 0.961 . S
O229 Co204 1.967 . S
O229 C237 1.258 . S
O230 Co205 1.941 . S
O230 C237 1.266 . S
H231 C233 0.959 . S
H232 C233 0.961 . S
C233 C223 1.510 . S
C233 H231 0.959 . S
C233 H232 0.961 . S
C233 H234 0.960 . S
H234 C233 0.960 . S
H235 N215 0.862 . S
O236 Co204 1.920 . S
O236 C209 1.289 . S
C237 O229 1.258 . S
C237 O230 1.266 . S
Co238 O241 1.970 . S
Co238 N255 1.989 . S
Co238 O263 1.967 . S
Co238 O270 1.920 . S
Co239 O242 1.966 . S
Co239 N248 2.022 . S
Co239 N256 1.993 . S
Co239 O264 1.941 . S
C240 O241 1.258 . S
C240 O242 1.263 . S
O241 Co238 1.970 . S
O241 C240 1.258 . S
O242 Co239 1.966 . S
O242 C240 1.263 . S
C243 O244 1.235 . S
C243 O270 1.289 . S
O244 C243 1.235 . S
C245 C247 1.400 . S
C245 N248 1.351 . S
C245 C250 1.501 . S
C246 C247 1.387 . S
C246 N249 1.341 . S
C247 C245 1.400 . S
C247 C246 1.387 . S
N248 Co239 2.022 . S
N248 C245 1.351 . S
N248 N249 1.365 . S
N249 C246 1.341 . S
N249 N248 1.365 . S
N249 H269 0.862 . S
C250 C245 1.501 . S
C250 H251 0.961 . S
C250 H252 0.961 . S
C250 H253 0.960 . S
H251 C250 0.961 . S
H252 C250 0.961 . S
H253 C250 0.960 . S
C254 N255 1.342 . S
C254 C258 1.401 . S
C254 C259 1.499 . S
N255 Co238 1.989 . S
N255 C254 1.342 . S
N255 N256 1.388 . S
N256 Co239 1.993 . S
N256 N255 1.388 . S
N256 C257 1.346 . S
C257 N256 1.346 . S
C257 C258 1.396 . S
C257 C267 1.510 . S
C258 C254 1.401 . S
C258 C257 1.396 . S
C259 C254 1.499 . S
C259 H260 0.959 . S
C259 H261 0.960 . S
C259 H262 0.961 . S
H260 C259 0.959 . S
H261 C259 0.960 . S
H262 C259 0.961 . S
O263 Co238 1.967 . S
O263 C271 1.258 . S
O264 Co239 1.941 . S
O264 C271 1.266 . S
H265 C267 0.959 . S
H266 C267 0.961 . S
C267 C257 1.510 . S
C267 H265 0.959 . S
C267 H266 0.961 . S
C267 H268 0.960 . S
H268 C267 0.960 . S
H269 N249 0.862 . S
O270 Co238 1.920 . S
O270 C243 1.289 . S
C271 O263 1.258 . S
C271 O264 1.266 . S
Co272 O275 1.970 . S
Co272 N289 1.989 . S
Co272 O297 1.967 . S
Co272 O304 1.920 . S
Co273 O276 1.966 . S
Co273 N282 2.022 . S
Co273 N290 1.993 . S
Co273 O298 1.941 . S
C274 O275 1.258 . S
C274 O276 1.263 . S
O275 Co272 1.970 . S
O275 C274 1.258 . S
O276 Co273 1.966 . S
O276 C274 1.263 . S
C277 O278 1.235 . S
C277 O304 1.289 . S
O278 C277 1.235 . S
C279 C281 1.400 . S
C279 N282 1.351 . S
C279 C284 1.501 . S
C280 C281 1.387 . S
C280 N283 1.341 . S
C281 C279 1.400 . S
C281 C280 1.387 . S
N282 Co273 2.022 . S
N282 C279 1.351 . S
N282 N283 1.365 . S
N283 C280 1.341 . S
N283 N282 1.365 . S
N283 H303 0.862 . S
C284 C279 1.501 . S
C284 H285 0.961 . S
C284 H286 0.961 . S
C284 H287 0.960 . S
H285 C284 0.961 . S
H286 C284 0.961 . S
H287 C284 0.960 . S
C288 N289 1.342 . S
C288 C292 1.401 . S
C288 C293 1.499 . S
N289 Co272 1.989 . S
N289 C288 1.342 . S
N289 N290 1.388 . S
N290 Co273 1.993 . S
N290 N289 1.388 . S
N290 C291 1.346 . S
C291 N290 1.346 . S
C291 C292 1.396 . S
C291 C301 1.510 . S
C292 C288 1.401 . S
C292 C291 1.396 . S
C293 C288 1.499 . S
C293 H294 0.959 . S
C293 H295 0.960 . S
C293 H296 0.961 . S
H294 C293 0.959 . S
H295 C293 0.960 . S
H296 C293 0.961 . S
O297 Co272 1.967 . S
O297 C305 1.258 . S
O298 Co273 1.941 . S
O298 C305 1.266 . S
H299 C301 0.959 . S
H300 C301 0.961 . S
C301 C291 1.510 . S
C301 H299 0.959 . S
C301 H300 0.961 . S
C301 H302 0.960 . S
H302 C301 0.960 . S
H303 N283 0.862 . S
O304 Co272 1.920 . S
O304 C277 1.289 . S
C305 O297 1.258 . S
C305 O298 1.266 . S
Co306 O309 1.970 . S
Co306 N323 1.989 . S
Co306 O331 1.967 . S
Co306 O338 1.920 . S
Co307 O310 1.966 . S
Co307 N316 2.022 . S
Co307 N324 1.993 . S
Co307 O332 1.941 . S
C308 O309 1.258 . S
C308 O310 1.263 . S
O309 Co306 1.970 . S
O309 C308 1.258 . S
O310 Co307 1.966 . S
O310 C308 1.263 . S
C311 O312 1.235 . S
C311 O338 1.289 . S
O312 C311 1.235 . S
C313 C315 1.400 . S
C313 N316 1.351 . S
C313 C318 1.501 . S
C314 C315 1.387 . S
C314 N317 1.341 . S
C315 C313 1.400 . S
C315 C314 1.387 . S
N316 Co307 2.022 . S
N316 C313 1.351 . S
N316 N317 1.365 . S
N317 C314 1.341 . S
N317 N316 1.365 . S
N317 H337 0.862 . S
C318 C313 1.501 . S
C318 H319 0.961 . S
C318 H320 0.961 . S
C318 H321 0.960 . S
H319 C318 0.961 . S
H320 C318 0.961 . S
H321 C318 0.960 . S
C322 N323 1.342 . S
C322 C326 1.401 . S
C322 C327 1.499 . S
N323 Co306 1.989 . S
N323 C322 1.342 . S
N323 N324 1.388 . S
N324 Co307 1.993 . S
N324 N323 1.388 . S
N324 C325 1.346 . S
C325 N324 1.346 . S
C325 C326 1.396 . S
C325 C335 1.510 . S
C326 C322 1.401 . S
C326 C325 1.396 . S
C327 C322 1.499 . S
C327 H328 0.959 . S
C327 H329 0.960 . S
C327 H330 0.961 . S
H328 C327 0.959 . S
H329 C327 0.960 . S
H330 C327 0.961 . S
O331 Co306 1.967 . S
O331 C339 1.258 . S
O332 Co307 1.941 . S
O332 C339 1.266 . S
H333 C335 0.959 . S
H334 C335 0.961 . S
C335 C325 1.510 . S
C335 H333 0.959 . S
C335 H334 0.961 . S
C335 H336 0.960 . S
H336 C335 0.960 . S
H337 N317 0.862 . S
O338 Co306 1.920 . S
O338 C311 1.289 . S
C339 O331 1.258 . S
C339 O332 1.266 . S
Co340 O343 1.970 . S
Co340 N357 1.989 . S
Co340 O365 1.967 . S
Co340 O372 1.920 . S
Co341 O344 1.966 . S
Co341 N350 2.022 . S
Co341 N358 1.993 . S
Co341 O366 1.941 . S
C342 O343 1.258 . S
C342 O344 1.263 . S
O343 Co340 1.970 . S
O343 C342 1.258 . S
O344 Co341 1.966 . S
O344 C342 1.263 . S
C345 O346 1.235 . S
C345 O372 1.289 . S
O346 C345 1.235 . S
C347 C349 1.400 . S
C347 N350 1.351 . S
C347 C352 1.501 . S
C348 C349 1.387 . S
C348 N351 1.341 . S
C349 C347 1.400 . S
C349 C348 1.387 . S
N350 Co341 2.022 . S
N350 C347 1.351 . S
N350 N351 1.365 . S
N351 C348 1.341 . S
N351 N350 1.365 . S
N351 H371 0.862 . S
C352 C347 1.501 . S
C352 H353 0.961 . S
C352 H354 0.961 . S
C352 H355 0.960 . S
H353 C352 0.961 . S
H354 C352 0.961 . S
H355 C352 0.960 . S
C356 N357 1.342 . S
C356 C360 1.401 . S
C356 C361 1.499 . S
N357 Co340 1.989 . S
N357 C356 1.342 . S
N357 N358 1.388 . S
N358 Co341 1.993 . S
N358 N357 1.388 . S
N358 C359 1.346 . S
C359 N358 1.346 . S
C359 C360 1.396 . S
C359 C369 1.510 . S
C360 C356 1.401 . S
C360 C359 1.396 . S
C361 C356 1.499 . S
C361 H362 0.959 . S
C361 H363 0.960 . S
C361 H364 0.961 . S
H362 C361 0.959 . S
H363 C361 0.960 . S
H364 C361 0.961 . S
O365 Co340 1.967 . S
O365 C373 1.258 . S
O366 Co341 1.941 . S
O366 C373 1.266 . S
H367 C369 0.959 . S
H368 C369 0.961 . S
C369 C359 1.510 . S
C369 H367 0.959 . S
C369 H368 0.961 . S
C369 H370 0.960 . S
H370 C369 0.960 . S
H371 N351 0.862 . S
O372 Co340 1.920 . S
O372 C345 1.289 . S
C373 O365 1.258 . S
C373 O366 1.266 . S
Co374 O377 1.970 . S
Co374 N391 1.989 . S
Co374 O399 1.967 . S
Co374 O406 1.920 . S
Co375 O378 1.966 . S
Co375 N384 2.022 . S
Co375 N392 1.993 . S
Co375 O400 1.941 . S
C376 O377 1.258 . S
C376 O378 1.263 . S
O377 Co374 1.970 . S
O377 C376 1.258 . S
O378 Co375 1.966 . S
O378 C376 1.263 . S
C379 O380 1.235 . S
C379 O406 1.289 . S
O380 C379 1.235 . S
C381 C383 1.400 . S
C381 N384 1.351 . S
C381 C386 1.501 . S
C382 C383 1.387 . S
C382 N385 1.341 . S
C383 C381 1.400 . S
C383 C382 1.387 . S
N384 Co375 2.022 . S
N384 C381 1.351 . S
N384 N385 1.365 . S
N385 C382 1.341 . S
N385 N384 1.365 . S
N385 H405 0.862 . S
C386 C381 1.501 . S
C386 H387 0.961 . S
C386 H388 0.961 . S
C386 H389 0.960 . S
H387 C386 0.961 . S
H388 C386 0.961 . S
H389 C386 0.960 . S
C390 N391 1.342 . S
C390 C394 1.401 . S
C390 C395 1.499 . S
N391 Co374 1.989 . S
N391 C390 1.342 . S
N391 N392 1.388 . S
N392 Co375 1.993 . S
N392 N391 1.388 . S
N392 C393 1.346 . S
C393 N392 1.346 . S
C393 C394 1.396 . S
C393 C403 1.510 . S
C394 C390 1.401 . S
C394 C393 1.396 . S
C395 C390 1.499 . S
C395 H396 0.959 . S
C395 H397 0.960 . S
C395 H398 0.961 . S
H396 C395 0.959 . S
H397 C395 0.960 . S
H398 C395 0.961 . S
O399 Co374 1.967 . S
O399 C407 1.258 . S
O400 Co375 1.941 . S
O400 C407 1.266 . S
H401 C403 0.959 . S
H402 C403 0.961 . S
C403 C393 1.510 . S
C403 H401 0.959 . S
C403 H402 0.961 . S
C403 H404 0.960 . S
H404 C403 0.960 . S
H405 N385 0.862 . S
O406 Co374 1.920 . S
O406 C379 1.289 . S
C407 O399 1.258 . S
C407 O400 1.266 . S
C408 C409 1.387 . S
C408 H412 0.950 . S
C408 C417 1.390 . S
C409 C408 1.387 . S
C409 C411 1.387 . S
H410 C417 0.950 . S
C411 C409 1.387 . S
C411 C413 1.390 . S
C411 H415 0.950 . S
H412 C408 0.950 . S
C413 C411 1.390 . S
C413 C414 1.387 . S
C413 H416 0.950 . S
C414 C413 1.387 . S
C414 C417 1.387 . S
H415 C411 0.950 . S
H416 C413 0.950 . S
C417 C408 1.390 . S
C417 H410 0.950 . S
C417 C414 1.387 . S
C418 C419 1.387 . S
C418 H422 0.950 . S
C418 C427 1.390 . S
C419 C418 1.387 . S
C419 C421 1.387 . S
H420 C427 0.950 . S
C421 C419 1.387 . S
C421 C423 1.390 . S
C421 H425 0.950 . S
H422 C418 0.950 . S
C423 C421 1.390 . S
C423 C424 1.387 . S
C423 H426 0.950 . S
C424 C423 1.387 . S
C424 C427 1.387 . S
H425 C421 0.950 . S
H426 C423 0.950 . S
C427 C418 1.390 . S
C427 H420 0.950 . S
C427 C424 1.387 . S
C428 C429 1.387 . S
C428 H432 0.950 . S
C428 C437 1.390 . S
C429 C428 1.387 . S
C429 C431 1.387 . S
H430 C437 0.950 . S
C431 C429 1.387 . S
C431 C433 1.390 . S
C431 H435 0.950 . S
H432 C428 0.950 . S
C433 C431 1.390 . S
C433 C434 1.387 . S
C433 H436 0.950 . S
C434 C433 1.387 . S
C434 C437 1.387 . S
H435 C431 0.950 . S
H436 C433 0.950 . S
C437 C428 1.390 . S
C437 H430 0.950 . S
C437 C434 1.387 . S
C438 C439 1.387 . S
C438 H442 0.950 . S
C438 C447 1.390 . S
C439 C438 1.387 . S
C439 C441 1.387 . S
H440 C447 0.950 . S
C441 C439 1.387 . S
C441 C443 1.390 . S
C441 H445 0.950 . S
H442 C438 0.950 . S
C443 C441 1.390 . S
C443 C444 1.387 . S
C443 H446 0.950 . S
C444 C443 1.387 . S
C444 C447 1.387 . S
H445 C441 0.950 . S
H446 C443 0.950 . S
C447 C438 1.390 . S
C447 H440 0.950 . S
C447 C444 1.387 . S
C448 C449 1.387 . S
C448 H452 0.950 . S
C448 C457 1.390 . S
C449 C448 1.387 . S
C449 C451 1.387 . S
H450 C457 0.950 . S
C451 C449 1.387 . S
C451 C453 1.390 . S
C451 H455 0.950 . S
H452 C448 0.950 . S
C453 C451 1.390 . S
C453 C454 1.387 . S
C453 H456 0.950 . S
C454 C453 1.387 . S
C454 C457 1.387 . S
H455 C451 0.950 . S
H456 C453 0.950 . S
C457 C448 1.390 . S
C457 H450 0.950 . S
C457 C454 1.387 . S
C458 C459 1.387 . S
C458 H462 0.950 . S
C458 C467 1.390 . S
C459 C458 1.387 . S
C459 C461 1.387 . S
H460 C467 0.950 . S
C461 C459 1.387 . S
C461 C463 1.390 . S
C461 H465 0.950 . S
H462 C458 0.950 . S
C463 C461 1.390 . S
C463 C464 1.387 . S
C463 H466 0.950 . S
C464 C463 1.387 . S
C464 C467 1.387 . S
H465 C461 0.950 . S
H466 C463 0.950 . S
C467 C458 1.390 . S
C467 H460 0.950 . S
C467 C464 1.387 . S
C468 C469 1.387 . S
C468 H472 0.950 . S
C468 C477 1.390 . S
C469 C468 1.387 . S
C469 C471 1.387 . S
H470 C477 0.950 . S
C471 C469 1.387 . S
C471 C473 1.390 . S
C471 H475 0.950 . S
H472 C468 0.950 . S
C473 C471 1.390 . S
C473 C474 1.387 . S
C473 H476 0.950 . S
C474 C473 1.387 . S
C474 C477 1.387 . S
H475 C471 0.950 . S
H476 C473 0.950 . S
C477 C468 1.390 . S
C477 H470 0.950 . S
C477 C474 1.387 . S
C478 C479 1.387 . S
C478 H482 0.950 . S
C478 C487 1.390 . S
C479 C478 1.387 . S
C479 C481 1.387 . S
H480 C487 0.950 . S
C481 C479 1.387 . S
C481 C483 1.390 . S
C481 H485 0.950 . S
H482 C478 0.950 . S
C483 C481 1.390 . S
C483 C484 1.387 . S
C483 H486 0.950 . S
C484 C483 1.387 . S
C484 C487 1.387 . S
H485 C481 0.950 . S
H486 C483 0.950 . S
C487 C478 1.390 . S
C487 H480 0.950 . S
C487 C484 1.387 . S
C488 C489 1.387 . S
C488 H492 0.950 . S
C488 C497 1.390 . S
C489 C488 1.387 . S
C489 C491 1.387 . S
H490 C497 0.950 . S
C491 C489 1.387 . S
C491 C493 1.390 . S
C491 H495 0.950 . S
H492 C488 0.950 . S
C493 C491 1.390 . S
C493 C494 1.387 . S
C493 H496 0.950 . S
C494 C493 1.387 . S
C494 C497 1.387 . S
H495 C491 0.950 . S
H496 C493 0.950 . S
C497 C488 1.390 . S
C497 H490 0.950 . S
C497 C494 1.387 . S
C498 C499 1.387 . S
C498 H502 0.950 . S
C498 C507 1.390 . S
C499 C498 1.387 . S
C499 C501 1.387 . S
H500 C507 0.950 . S
C501 C499 1.387 . S
C501 C503 1.390 . S
C501 H505 0.950 . S
H502 C498 0.950 . S
C503 C501 1.390 . S
C503 C504 1.387 . S
C503 H506 0.950 . S
C504 C503 1.387 . S
C504 C507 1.387 . S
H505 C501 0.950 . S
H506 C503 0.950 . S
C507 C498 1.390 . S
C507 H500 0.950 . S
C507 C504 1.387 . S
C508 C509 1.387 . S
C508 H512 0.950 . S
C508 C517 1.390 . S
C509 C508 1.387 . S
C509 C511 1.387 . S
H510 C517 0.950 . S
C511 C509 1.387 . S
C511 C513 1.390 . S
C511 H515 0.950 . S
H512 C508 0.950 . S
C513 C511 1.390 . S
C513 C514 1.387 . S
C513 H516 0.950 . S
C514 C513 1.387 . S
C514 C517 1.387 . S
H515 C511 0.950 . S
H516 C513 0.950 . S
C517 C508 1.390 . S
C517 H510 0.950 . S
C517 C514 1.387 . S
C518 C519 1.387 . S
C518 H522 0.950 . S
C518 C527 1.390 . S
C519 C518 1.387 . S
C519 C521 1.387 . S
H520 C527 0.950 . S
C521 C519 1.387 . S
C521 C523 1.390 . S
C521 H525 0.950 . S
H522 C518 0.950 . S
C523 C521 1.390 . S
C523 C524 1.387 . S
C523 H526 0.950 . S
C524 C523 1.387 . S
C524 C527 1.387 . S
H525 C521 0.950 . S
H526 C523 0.950 . S
C527 C518 1.390 . S
C527 H520 0.950 . S
C527 C524 1.387 . S
C528 C529 1.387 . S
C528 H532 0.950 . S
C528 C537 1.390 . S
C529 C528 1.387 . S
C529 C531 1.387 . S
H530 C537 0.950 . S
C531 C529 1.387 . S
C531 C533 1.390 . S
C531 H535 0.950 . S
H532 C528 0.950 . S
C533 C531 1.390 . S
C533 C534 1.387 . S
C533 H536 0.950 . S
C534 C533 1.387 . S
C534 C537 1.387 . S
H535 C531 0.950 . S
H536 C533 0.950 . S
C537 C528 1.390 . S
C537 H530 0.950 . S
C537 C534 1.387 . S
C538 C539 1.387 . S
C538 H542 0.950 . S
C538 C547 1.390 . S
C539 C538 1.387 . S
C539 C541 1.387 . S
H540 C547 0.950 . S
C541 C539 1.387 . S
C541 C543 1.390 . S
C541 H545 0.950 . S
H542 C538 0.950 . S
C543 C541 1.390 . S
C543 C544 1.387 . S
C543 H546 0.950 . S
C544 C543 1.387 . S
C544 C547 1.387 . S
H545 C541 0.950 . S
H546 C543 0.950 . S
C547 C538 1.390 . S
C547 H540 0.950 . S
C547 C544 1.387 . S
C548 C549 1.387 . S
C548 H552 0.950 . S
C548 C557 1.390 . S
C549 C548 1.387 . S
C549 C551 1.387 . S
H550 C557 0.950 . S
C551 C549 1.387 . S
C551 C553 1.390 . S
C551 H555 0.950 . S
H552 C548 0.950 . S
C553 C551 1.390 . S
C553 C554 1.387 . S
C553 H556 0.950 . S
C554 C553 1.387 . S
C554 C557 1.387 . S
H555 C551 0.950 . S
H556 C553 0.950 . S
C557 C548 1.390 . S
C557 H550 0.950 . S
C557 C554 1.387 . S
C558 C559 1.387 . S
C558 H562 0.950 . S
C558 C567 1.390 . S
C559 C558 1.387 . S
C559 C561 1.387 . S
H560 C567 0.950 . S
C561 C559 1.387 . S
C561 C563 1.390 . S
C561 H565 0.950 . S
H562 C558 0.950 . S
C563 C561 1.390 . S
C563 C564 1.387 . S
C563 H566 0.950 . S
C564 C563 1.387 . S
C564 C567 1.387 . S
H565 C561 0.950 . S
H566 C563 0.950 . S
C567 C558 1.390 . S
C567 H560 0.950 . S
C567 C564 1.387 . S
C568 C569 1.387 . S
C568 H572 0.950 . S
C568 C577 1.390 . S
C569 C568 1.387 . S
C569 C571 1.387 . S
H570 C577 0.950 . S
C571 C569 1.387 . S
C571 C573 1.390 . S
C571 H575 0.950 . S
H572 C568 0.950 . S
C573 C571 1.390 . S
C573 C574 1.387 . S
C573 H576 0.950 . S
C574 C573 1.387 . S
C574 C577 1.387 . S
H575 C571 0.950 . S
H576 C573 0.950 . S
C577 C568 1.390 . S
C577 H570 0.950 . S
C577 C574 1.387 . S
C578 C579 1.387 . S
C578 H582 0.950 . S
C578 C587 1.390 . S
C579 C578 1.387 . S
C579 C581 1.387 . S
H580 C587 0.950 . S
C581 C579 1.387 . S
C581 C583 1.390 . S
C581 H585 0.950 . S
H582 C578 0.950 . S
C583 C581 1.390 . S
C583 C584 1.387 . S
C583 H586 0.950 . S
C584 C583 1.387 . S
C584 C587 1.387 . S
H585 C581 0.950 . S
H586 C583 0.950 . S
C587 C578 1.390 . S
C587 H580 0.950 . S
C587 C584 1.387 . S
C588 C589 1.387 . S
C588 H592 0.950 . S
C588 C597 1.390 1_566 S
C589 C588 1.387 . S
C589 C591 1.387 . S
H590 C597 0.950 . S
C591 C589 1.387 . S
C591 C593 1.390 1_566 S
C591 H595 0.950 . S
H592 C588 0.950 . S
C593 C591 1.390 1_544 S
C593 C594 1.387 . S
C593 H596 0.950 . S
C594 C593 1.387 . S
C594 C597 1.387 . S
H595 C591 0.950 . S
H596 C593 0.950 . S
C597 C588 1.390 1_544 S
C597 H590 0.950 . S
C597 C594 1.387 . S
C598 C599 1.387 . S
C598 H602 0.950 . S
C598 C607 1.390 . S
C599 C598 1.387 . S
C599 C601 1.387 . S
H600 C607 0.950 . S
C601 C599 1.387 . S
C601 C603 1.390 . S
C601 H605 0.950 . S
H602 C598 0.950 . S
C603 C601 1.390 . S
C603 C604 1.387 . S
C603 H606 0.950 . S
C604 C603 1.387 . S
C604 C607 1.387 . S
H605 C601 0.950 . S
H606 C603 0.950 . S
C607 C598 1.390 . S
C607 H600 0.950 . S
C607 C604 1.387 . S
C608 C609 1.391 . S
C608 H612 0.946 . S
C608 C617 1.383 1_655 S
C609 C608 1.391 . S
C609 C611 1.387 1_554 S
H610 C617 0.950 . S
C611 C609 1.387 1_556 S
C611 C613 1.383 1_655 S
C611 H615 0.950 . S
H612 C608 0.946 . S
C613 C611 1.383 1_455 S
C613 C614 1.392 . S
C613 H616 0.946 . S
C614 C613 1.392 . S
C614 C617 1.387 1_556 S
H615 C611 0.950 . S
H616 C613 0.946 . S
C617 C608 1.383 1_455 S
C617 H610 0.950 . S
C617 C614 1.387 1_554 S
C618 C619 1.387 . S
C618 H622 0.950 . S
C618 C627 1.390 1_565 S
C619 C618 1.387 . S
C619 C621 1.387 . S
H620 C627 0.950 . S
C621 C619 1.387 . S
C621 C623 1.390 1_565 S
C621 H625 0.950 . S
H622 C618 0.950 . S
C623 C621 1.390 1_545 S
C623 C624 1.387 . S
C623 H626 0.950 . S
C624 C623 1.387 . S
C624 C627 1.387 . S
H625 C621 0.950 . S
H626 C623 0.950 . S
C627 C618 1.390 1_545 S
C627 H620 0.950 . S
C627 C624 1.387 . S
C628 C629 1.387 . S
C628 H632 0.950 . S
C628 C637 1.390 . S
C629 C628 1.387 . S
C629 C631 1.387 1_554 S
H630 C637 0.950 . S
C631 C629 1.387 1_556 S
C631 C633 1.390 . S
C631 H635 0.950 . S
H632 C628 0.950 . S
C633 C631 1.390 . S
C633 C634 1.387 . S
C633 H636 0.950 . S
C634 C633 1.387 . S
C634 C637 1.387 1_556 S
H635 C631 0.950 . S
H636 C633 0.950 . S
C637 C628 1.390 . S
C637 H630 0.950 . S
C637 C634 1.387 1_554 S
C638 C639 1.387 . S
C638 H642 0.950 . S
C638 C647 1.390 . S
C639 C638 1.387 . S
C639 C641 1.387 1_655 S
H640 C647 0.950 . S
C641 C639 1.387 1_455 S
C641 C643 1.390 . S
C641 H645 0.950 . S
H642 C638 0.950 . S
C643 C641 1.390 . S
C643 C644 1.387 . S
C643 H646 0.950 . S
C644 C643 1.387 . S
C644 C647 1.387 1_455 S
H645 C641 0.950 . S
H646 C643 0.950 . S
C647 C638 1.390 . S
C647 H640 0.950 . S
C647 C644 1.387 1_655 S
C648 C649 1.387 . S
C648 H652 0.950 . S
C648 C657 1.390 1_544 S
C649 C648 1.387 . S
C649 C651 1.387 . S
H650 C657 0.950 . S
C651 C649 1.387 . S
C651 C653 1.390 1_544 S
C651 H655 0.950 . S
H652 C648 0.950 . S
C653 C651 1.390 1_566 S
C653 C654 1.387 . S
C653 H656 0.950 . S
C654 C653 1.387 . S
C654 C657 1.387 . S
H655 C651 0.950 . S
H656 C653 0.950 . S
C657 C648 1.390 1_566 S
C657 H650 0.950 . S
C657 C654 1.387 . S
C658 C659 1.387 . S
C658 H662 0.950 . S
C658 C667 1.390 . S
C659 C658 1.387 . S
C659 C661 1.387 . S
H660 C667 0.950 . S
C661 C659 1.387 . S
C661 C663 1.390 . S
C661 H665 0.950 . S
H662 C658 0.950 . S
C663 C661 1.390 . S
C663 C664 1.387 . S
C663 H666 0.950 . S
C664 C663 1.387 . S
C664 C667 1.387 . S
H665 C661 0.950 . S
H666 C663 0.950 . S
C667 C658 1.390 . S
C667 H660 0.950 . S
C667 C664 1.387 . S
C668 C669 1.387 . S
C668 H672 0.950 . S
C668 C677 1.390 1_655 S
C669 C668 1.387 . S
C669 C671 1.387 1_554 S
H670 C677 0.950 . S
C671 C669 1.387 1_556 S
C671 C673 1.390 1_655 S
C671 H675 0.950 . S
H672 C668 0.950 . S
C673 C671 1.390 1_455 S
C673 C674 1.387 . S
C673 H676 0.950 . S
C674 C673 1.387 . S
C674 C677 1.387 1_556 S
H675 C671 0.950 . S
H676 C673 0.950 . S
C677 C668 1.390 1_455 S
C677 H670 0.950 . S
C677 C674 1.387 1_554 S
C678 C679 1.387 . S
C678 H682 0.950 . S
C678 C687 1.390 1_565 S
C679 C678 1.387 . S
C679 C681 1.387 . S
H680 C687 0.950 . S
C681 C679 1.387 . S
C681 C683 1.390 1_565 S
C681 H685 0.950 . S
H682 C678 0.950 . S
C683 C681 1.390 1_545 S
C683 C684 1.387 . S
C683 H686 0.950 . S
C684 C683 1.387 . S
C684 C687 1.387 . S
H685 C681 0.950 . S
H686 C683 0.950 . S
C687 C678 1.390 1_545 S
C687 H680 0.950 . S
C687 C684 1.387 . S
C688 C689 1.387 . S
C688 H692 0.950 . S
C688 C697 1.390 . S
C689 C688 1.387 . S
C689 C691 1.387 1_556 S
H690 C697 0.950 . S
C691 C689 1.387 1_554 S
C691 C693 1.390 . S
C691 H695 0.950 . S
H692 C688 0.950 . S
C693 C691 1.390 . S
C693 C694 1.387 . S
C693 H696 0.950 . S
C694 C693 1.387 . S
C694 C697 1.387 1_554 S
H695 C691 0.950 . S
H696 C693 0.950 . S
C697 C688 1.390 . S
C697 H690 0.950 . S
C697 C694 1.387 1_556 S
C698 C699 1.387 . S
C698 H702 0.950 . S
C698 C707 1.390 1_455 S
C699 C698 1.387 . S
C699 C701 1.387 . S
H700 C707 0.950 . S
C701 C699 1.387 . S
C701 C703 1.390 1_455 S
C701 H705 0.950 . S
H702 C698 0.950 . S
C703 C701 1.390 1_655 S
C703 C704 1.387 . S
C703 H706 0.950 . S
C704 C703 1.387 . S
C704 C707 1.387 . S
H705 C701 0.950 . S
H706 C703 0.950 . S
C707 C698 1.390 1_655 S
C707 H700 0.950 . S
C707 C704 1.387 . S
C409 C73 1.574 . S
C414 C2 1.731 . S
C419 C36 1.731 . S
C424 C107 1.577 . S
C429 C70 1.731 . S
C434 C141 1.573 . S
C439 C104 1.731 . S
C444 C175 1.578 . S
C449 C138 1.731 . S
C454 C5 1.577 . S
C459 C39 1.573 . S
C464 C172 1.731 . S
C469 C206 1.731 . S
C474 C345 1.577 . S
C479 C240 1.731 . S
C484 C379 1.573 . S
C489 C209 1.573 . S
C494 C274 1.731 . S
C499 C243 1.578 . S
C504 C308 1.731 . S
C509 C277 1.573 . S
C514 C342 1.731 . S
C519 C311 1.578 . S
C524 C376 1.731 . S
C529 C305 1.314 . S
C534 C33 1.315 . S
C539 C67 1.314 . S
C544 C339 1.314 . S
C549 C373 1.313 . S
C554 C101 1.313 . S
C559 C407 1.315 . S
C564 C135 1.316 . S
C569 C169 1.316 . S
C574 C237 1.316 . S
C579 C271 1.314 . S
C584 C203 1.314 . S
C589 C247 1.510 . S
C594 C9 1.510 . S
C599 C43 1.511 . S
C604 C281 1.510 . S
C609 C77 1.511 . S
C614 C315 1.511 . S
C619 C111 1.511 . S
C624 C349 1.511 . S
C629 C145 1.512 . S
C634 C383 1.511 . S
C639 C213 1.510 . S
C644 C179 1.511 . S
C649 C88 1.884 . S
C654 C394 1.884 . S
C659 C224 1.885 . S
C664 C122 1.884 . S
C669 C156 1.884 . S
C674 C258 1.884 . S
C679 C190 1.884 . S
C684 C292 1.884 . S
C689 C326 1.885 . S
C694 C20 1.884 . S
C699 C54 1.884 . S
C704 C360 1.884 . S
