# Generated by pormake.
# Topology wfs, (7)-cn, num edge types: 1
# Building blocks:
#     Node 0, Type 0, BuildingBlock: NUHQUE_clean_sbu_2, # of connection points: 7
#     Node 1, Type 0, BuildingBlock: NUHQUE_clean_sbu_2, # of connection points: 7
#     Node 2, Type 0, BuildingBlock: NUHQUE_clean_sbu_2, # of connection points: 7
#     Node 3, Type 0, BuildingBlock: NUHQUE_clean_sbu_2, # of connection points: 7
#     Node 4, Type 0, BuildingBlock: NUHQUE_clean_sbu_2, # of connection points: 7
#     Node 5, Type 0, BuildingBlock: NUHQUE_clean_sbu_2, # of connection points: 7
#     Node 6, Type 0, BuildingBlock: NUHQUE_clean_sbu_2, # of connection points: 7
#     Node 7, Type 0, BuildingBlock: NUHQUE_clean_sbu_2, # of connection points: 7
#     Edge 8, Type (0, 0), BuildingBlock: AJUNOK_clean_linker_0, # of connection points: 2
#     Edge 9, Type (0, 0), BuildingBlock: AJUNOK_clean_linker_0, # of connection points: 2
#     Edge 10, Type (0, 0), BuildingBlock: AJUNOK_clean_linker_0, # of connection points: 2
#     Edge 11, Type (0, 0), BuildingBlock: AJUNOK_clean_linker_0, # of connection points: 2
#     Edge 12, Type (0, 0), BuildingBlock: AJUNOK_clean_linker_0, # of connection points: 2
#     Edge 13, Type (0, 0), BuildingBlock: AJUNOK_clean_linker_0, # of connection points: 2
#     Edge 14, Type (0, 0), BuildingBlock: AJUNOK_clean_linker_0, # of connection points: 2
#     Edge 15, Type (0, 0), BuildingBlock: AJUNOK_clean_linker_0, # of connection points: 2
#     Edge 16, Type (0, 0), BuildingBlock: AJUNOK_clean_linker_0, # of connection points: 2
#     Edge 17, Type (0, 0), BuildingBlock: AJUNOK_clean_linker_0, # of connection points: 2
#     Edge 18, Type (0, 0), BuildingBlock: AJUNOK_clean_linker_0, # of connection points: 2
#     Edge 19, Type (0, 0), BuildingBlock: AJUNOK_clean_linker_0, # of connection points: 2
#     Edge 20, Type (0, 0), BuildingBlock: AJUNOK_clean_linker_0, # of connection points: 2
#     Edge 21, Type (0, 0), BuildingBlock: AJUNOK_clean_linker_0, # of connection points: 2
#     Edge 22, Type (0, 0), BuildingBlock: AJUNOK_clean_linker_0, # of connection points: 2
#     Edge 23, Type (0, 0), BuildingBlock: AJUNOK_clean_linker_0, # of connection points: 2
#     Edge 24, Type (0, 0), BuildingBlock: AJUNOK_clean_linker_0, # of connection points: 2
#     Edge 25, Type (0, 0), BuildingBlock: AJUNOK_clean_linker_0, # of connection points: 2
#     Edge 26, Type (0, 0), BuildingBlock: AJUNOK_clean_linker_0, # of connection points: 2
#     Edge 27, Type (0, 0), BuildingBlock: AJUNOK_clean_linker_0, # of connection points: 2
#     Edge 28, Type (0, 0), BuildingBlock: AJUNOK_clean_linker_0, # of connection points: 2
#     Edge 29, Type (0, 0), BuildingBlock: AJUNOK_clean_linker_0, # of connection points: 2
#     Edge 30, Type (0, 0), BuildingBlock: AJUNOK_clean_linker_0, # of connection points: 2
#     Edge 31, Type (0, 0), BuildingBlock: AJUNOK_clean_linker_0, # of connection points: 2
#     Edge 32, Type (0, 0), BuildingBlock: AJUNOK_clean_linker_0, # of connection points: 2
#     Edge 33, Type (0, 0), BuildingBlock: AJUNOK_clean_linker_0, # of connection points: 2
#     Edge 34, Type (0, 0), BuildingBlock: AJUNOK_clean_linker_0, # of connection points: 2
#     Edge 35, Type (0, 0), BuildingBlock: AJUNOK_clean_linker_0, # of connection points: 2
# Relax obj value: 0.249
# Max RMSD: 0.185
# Mean RMSD: 0.185
data_MOF--net-wfs--node1-NUHQUE_clean_sbu_2--edge1-AJUNOK_clean_linker_0
_symmetry_space_group_name_H-M    P1
_symmetry_Int_Tables_number       1
_symmetry_cell_setting            triclinic
loop_
_symmetry_equiv_pos_as_xyz
'x, y, z'
_cell_length_a     23.789144
_cell_length_b     29.669162
_cell_length_c     23.646775
_cell_angle_alpha  90.010276
_cell_angle_beta   89.516588
_cell_angle_gamma 90.030758
loop_
_atom_site_label
_atom_site_type_symbol
_atom_site_fract_x
_atom_site_fract_y
_atom_site_fract_z
_atom_type_partial_charge
O0 O 0.23177 0.05236 0.26271 0.0
Tb1 Tb 0.21866 0.09494 0.18977 0.0
Eu2 Eu 0.23422 0.1886 0.10695 0.0
C3 C 0.27435 0.02447 0.2668 0.0
O4 O 0.31666 0.02813 0.23106 0.0
C5 C 0.27734 0.09078 0.07803 0.0
O6 O 0.17077 0.23051 0.05974 0.0
C7 C 0.33055 0.22619 0.1286 0.0
C8 C 0.13745 0.20928 0.02455 0.0
O9 O 0.15198 0.1686 0.00827 0.0
C10 C 0.16261 0.18435 0.22503 0.0
C11 C 0.35811 0.26689 0.15151 0.0
C12 C 0.41566 0.26587 0.16667 0.0
C13 C 0.44331 0.30564 0.18415 0.0
C14 C 0.41226 0.34579 0.18652 0.0
C15 C 0.35563 0.34731 0.17071 0.0
C16 C 0.32837 0.30768 0.15423 0.0
O17 O 0.28943 0.09021 0.1321 0.0
O18 O 0.2449 0.12315 0.05905 0.0
O19 O 0.16883 0.03655 0.16617 0.0
O20 O 0.14128 0.10141 0.14046 0.0
C21 C 0.13058 0.05833 0.13857 0.0
O22 O 0.16579 0.19925 0.17274 0.0
O23 O 0.19645 0.15233 0.24257 0.0
O24 O 0.3036 0.23125 0.08043 0.0
O25 O 0.30432 0.1993 0.16467 0.0
H26 H 0.43898 0.23461 0.16338 0.0
H27 H 0.43226 0.37639 0.20139 0.0
H28 H 0.28455 0.30884 0.14204 0.0
O29 O 0.23856 0.97182 0.7497 0.0
Tb30 Tb 0.21984 0.92835 0.82114 0.0
Eu31 Eu 0.23051 0.8345 0.90455 0.0
C32 C 0.27716 1.00344 0.75247 0.0
O33 O 0.31174 1.00349 0.79546 0.0
C34 C 0.27597 0.93191 0.93385 0.0
O35 O 0.1681 0.80561 0.96697 0.0
C36 C 0.32581 0.79266 0.89049 0.0
C37 C 0.13579 0.77099 0.95469 0.0
O38 O 0.14821 0.74568 0.91077 0.0
C39 C 0.16329 0.83864 0.78507 0.0
C40 C 0.35549 0.75392 0.86436 0.0
C41 C 0.41398 0.75669 0.85331 0.0
C42 C 0.44373 0.71886 0.83298 0.0
C43 C 0.41428 0.67884 0.82279 0.0
C44 C 0.35614 0.67575 0.83249 0.0
C45 C 0.32683 0.71342 0.85338 0.0
O46 O 0.28886 0.93392 0.87983 0.0
O47 O 0.24207 0.89989 0.95153 0.0
O48 O 0.16803 0.98656 0.8413 0.0
O49 O 0.14158 0.92224 0.8705 0.0
C50 C 0.12948 0.96507 0.86957 0.0
O51 O 0.1656 0.82272 0.83691 0.0
O52 O 0.1973 0.87113 0.76809 0.0
O53 O 0.29011 0.78376 0.93199 0.0
O54 O 0.30891 0.82541 0.85696 0.0
H55 H 0.43641 0.78776 0.86168 0.0
H56 H 0.43681 0.65003 0.8057 0.0
H57 H 0.28207 0.71103 0.86186 0.0
O58 O 0.81097 0.97263 0.25319 0.0
Tb59 Tb 0.83075 0.92981 0.18135 0.0
Eu60 Eu 0.81645 0.83596 0.09797 0.0
C61 C 0.7739 1.0053 0.24893 0.0
O62 O 0.73973 1.00515 0.20568 0.0
C63 C 0.77178 0.93286 0.06969 0.0
O64 O 0.8764 0.80663 0.03365 0.0
C65 C 0.71997 0.79602 0.1134 0.0
C66 C 0.90727 0.77085 0.04408 0.0
O67 O 0.89307 0.74392 0.08588 0.0
C68 C 0.88988 0.83952 0.21431 0.0
C69 C 0.69075 0.75664 0.13837 0.0
C70 C 0.632 0.75794 0.14866 0.0
C71 C 0.6031 0.71903 0.1674 0.0
C72 C 0.63391 0.67944 0.17645 0.0
C73 C 0.69221 0.67797 0.16711 0.0
C74 C 0.72055 0.7167 0.14859 0.0
O75 O 0.7603 0.93507 0.12401 0.0
O76 O 0.80596 0.90133 0.05163 0.0
O77 O 0.88011 0.98992 0.16396 0.0
O78 O 0.9078 0.92769 0.12948 0.0
C79 C 0.91864 0.97068 0.13329 0.0
O80 O 0.88348 0.82297 0.16313 0.0
O81 O 0.85842 0.87311 0.23309 0.0
O82 O 0.75375 0.78792 0.07007 0.0
O83 O 0.73956 0.82695 0.14816 0.0
H84 H 0.60876 0.78871 0.14097 0.0
H85 H 0.61252 0.64971 0.19252 0.0
H86 H 0.76558 0.7155 0.14116 0.0
O87 O 0.82055 0.0532 0.74049 0.0
Tb88 Tb 0.83396 0.09411 0.81519 0.0
Eu89 Eu 0.81283 0.18888 0.90198 0.0
C90 C 0.77846 0.0247 0.73649 0.0
O91 O 0.73598 0.02821 0.77202 0.0
C92 C 0.76936 0.09021 0.92477 0.0
O93 O 0.8727 0.22896 0.95599 0.0
C94 C 0.7182 0.22765 0.87658 0.0
C95 C 0.89815 0.208 0.99756 0.0
O96 O 0.87685 0.16955 0.01507 0.0
C97 C 0.8957 0.18399 0.79057 0.0
C98 C 0.69173 0.2693 0.85514 0.0
C99 C 0.63585 0.26869 0.83491 0.0
C100 C 0.60951 0.309 0.81774 0.0
C101 C 0.63944 0.34952 0.82135 0.0
C102 C 0.69507 0.35036 0.84071 0.0
C103 C 0.72119 0.31022 0.8571 0.0
O104 O 0.76059 0.08991 0.86996 0.0
O105 O 0.7997 0.12269 0.94652 0.0
O106 O 0.88066 0.03338 0.8359 0.0
O107 O 0.90818 0.09574 0.86972 0.0
C108 C 0.91774 0.0525 0.86784 0.0
O109 O 0.88648 0.19863 0.84233 0.0
O110 O 0.86405 0.15257 0.76763 0.0
O111 O 0.742 0.23054 0.92666 0.0
O112 O 0.74682 0.20247 0.84036 0.0
H113 H 0.61322 0.23706 0.83212 0.0
H114 H 0.62008 0.38041 0.80653 0.0
H115 H 0.76427 0.3109 0.87175 0.0
O116 O 0.7328 0.54809 0.77182 0.0
Tb117 Tb 0.71631 0.5899 0.69908 0.0
Eu118 Eu 0.73823 0.68666 0.62187 0.0
C119 C 0.77673 0.52159 0.77556 0.0
O120 O 0.81811 0.52593 0.73885 0.0
C121 C 0.77815 0.58769 0.59023 0.0
O122 O 0.67247 0.71834 0.56627 0.0
C123 C 0.83344 0.72961 0.62762 0.0
C124 C 0.61949 0.7081 0.57704 0.0
O125 O 0.60804 0.68008 0.61846 0.0
C126 C 0.66416 0.68299 0.74094 0.0
C127 C 0.86104 0.77081 0.64951 0.0
C128 C 0.9185 0.7696 0.66436 0.0
C129 C 0.94668 0.80931 0.68065 0.0
C130 C 0.91642 0.84979 0.68296 0.0
C131 C 0.85944 0.85163 0.66834 0.0
C132 C 0.83167 0.81194 0.65229 0.0
O133 O 0.78924 0.58564 0.64439 0.0
O134 O 0.74733 0.62148 0.5725 0.0
O135 O 0.66877 0.52951 0.67896 0.0
O136 O 0.64552 0.59126 0.64025 0.0
C137 C 0.63469 0.54825 0.64342 0.0
O138 O 0.67963 0.70468 0.69468 0.0
O139 O 0.68363 0.64278 0.75399 0.0
O140 O 0.79705 0.73509 0.58645 0.0
O141 O 0.81821 0.69845 0.66448 0.0
H142 H 0.94144 0.73808 0.66216 0.0
H143 H 0.93717 0.88011 0.69774 0.0
H144 H 0.78762 0.81326 0.64104 0.0
O145 O 0.73498 0.48036 0.25748 0.0
Tb146 Tb 0.71154 0.44048 0.33058 0.0
Eu147 Eu 0.73699 0.33442 0.39804 0.0
C148 C 0.77204 0.51302 0.261 0.0
O149 O 0.80409 0.51512 0.30585 0.0
C150 C 0.7732 0.43136 0.43875 0.0
O151 O 0.6654 0.29718 0.44035 0.0
C152 C 0.83242 0.29204 0.39073 0.0
C153 C 0.61578 0.31538 0.43163 0.0
O154 O 0.61397 0.35427 0.40532 0.0
C155 C 0.65933 0.34688 0.28292 0.0
C156 C 0.8597 0.25195 0.36515 0.0
C157 C 0.91749 0.2532 0.35068 0.0
C158 C 0.94477 0.21434 0.32989 0.0
C159 C 0.91346 0.17478 0.32271 0.0
C160 C 0.85585 0.17321 0.33576 0.0
C161 C 0.8291 0.21191 0.35705 0.0
O162 O 0.7841 0.4365 0.38472 0.0
O163 O 0.74297 0.3963 0.45397 0.0
O164 O 0.67075 0.50426 0.35107 0.0
O165 O 0.63926 0.44438 0.38827 0.0
C166 C 0.63253 0.48783 0.38478 0.0
O167 O 0.68383 0.3208 0.32062 0.0
O168 O 0.6684 0.3907 0.27869 0.0
O169 O 0.79483 0.28456 0.43101 0.0
O170 O 0.81844 0.32513 0.35633 0.0
H171 H 0.94129 0.28399 0.35647 0.0
H172 H 0.93388 0.14522 0.305 0.0
H173 H 0.78475 0.2107 0.36783 0.0
O174 O 0.32336 0.4759 0.74095 0.0
Tb175 Tb 0.33745 0.42992 0.67088 0.0
Eu176 Eu 0.31554 0.33321 0.59191 0.0
C177 C 0.28401 0.50697 0.73865 0.0
O178 O 0.2467 0.50474 0.6982 0.0
C179 C 0.2745 0.4323 0.5615 0.0
O180 O 0.36646 0.29877 0.52399 0.0
C181 C 0.2216 0.29226 0.61689 0.0
C182 C 0.40556 0.26884 0.5353 0.0
O183 O 0.40594 0.2497 0.58539 0.0
C184 C 0.39629 0.34059 0.70321 0.0
C185 C 0.1967 0.25162 0.64353 0.0
C186 C 0.14028 0.25244 0.66307 0.0
C187 C 0.11509 0.21317 0.68528 0.0
C188 C 0.14615 0.17314 0.68618 0.0
C189 C 0.20212 0.17183 0.66739 0.0
C190 C 0.22765 0.21126 0.64676 0.0
O191 O 0.26516 0.43576 0.6161 0.0
O192 O 0.30365 0.39777 0.54288 0.0
O193 O 0.38943 0.48631 0.64362 0.0
O194 O 0.4129 0.42044 0.61823 0.0
C195 C 0.426 0.46297 0.61507 0.0
O196 O 0.388 0.32375 0.65239 0.0
O197 O 0.36435 0.37333 0.72341 0.0
O198 O 0.25015 0.2857 0.56969 0.0
O199 O 0.24428 0.32302 0.64994 0.0
H200 H 0.11645 0.28354 0.66172 0.0
H201 H 0.12712 0.14295 0.70386 0.0
H202 H 0.2711 0.21034 0.63259 0.0
O203 O 0.32438 0.5467 0.23881 0.0
Tb204 Tb 0.333 0.5953 0.30624 0.0
Eu205 Eu 0.31456 0.68917 0.38404 0.0
C206 C 0.27938 0.52168 0.23201 0.0
O207 O 0.23442 0.52934 0.26314 0.0
C208 C 0.27146 0.59102 0.41478 0.0
O209 O 0.38034 0.72003 0.44119 0.0
C210 C 0.21881 0.73136 0.3787 0.0
C211 C 0.43393 0.71616 0.42684 0.0
O212 O 0.44741 0.69458 0.38037 0.0
C213 C 0.38077 0.68636 0.26032 0.0
C214 C 0.19112 0.77214 0.35588 0.0
C215 C 0.1342 0.77047 0.33915 0.0
C216 C 0.10623 0.80991 0.3214 0.0
C217 C 0.13595 0.85073 0.32073 0.0
C218 C 0.19259 0.85277 0.33663 0.0
C219 C 0.22019 0.81336 0.35353 0.0
O220 O 0.26008 0.58969 0.36065 0.0
O221 O 0.30428 0.62359 0.43259 0.0
O222 O 0.38671 0.54247 0.33976 0.0
O223 O 0.40595 0.61062 0.35879 0.0
C224 C 0.42047 0.56889 0.36706 0.0
O225 O 0.37097 0.70662 0.30904 0.0
O226 O 0.3555 0.64837 0.24687 0.0
O227 O 0.25573 0.73766 0.41921 0.0
O228 O 0.23377 0.69969 0.34248 0.0
H229 H 0.11157 0.73877 0.34074 0.0
H230 H 0.11535 0.881 0.30568 0.0
H231 H 0.264 0.81498 0.36567 0.0
C232 C 0.29129 0.94204 0.27998 0.0
C233 C 0.26506 0.98203 0.29846 0.0
C234 C 0.27037 0.89972 0.29627 0.0
C235 C 0.22296 0.89618 0.33186 0.0
H236 H 0.32508 0.94319 0.24904 0.0
H237 H 0.28869 0.86978 0.27745 0.0
S238 S 0.14833 0.99024 0.40312 0.0
N239 N 0.19595 0.01513 0.3626 0.0
N240 N 0.157 0.93557 0.39323 0.0
C241 C 0.20059 0.9357 0.35568 0.0
C242 C 0.22171 0.97868 0.33912 0.0
C243 C 0.07771 0.79044 0.76851 0.0
C244 C 0.11455 0.82472 0.74928 0.0
C245 C 0.02511 0.78307 0.74327 0.0
C246 C 1.00699 0.80973 0.69784 0.0
H247 H 0.08812 0.77059 0.80538 0.0
H248 H 0.99699 0.75834 0.76185 0.0
S249 S 0.08978 0.89915 0.62556 0.0
N250 N 0.13081 0.88206 0.67729 0.0
N251 N 0.03236 0.86805 0.63023 0.0
C252 C 0.04492 0.84166 0.67538 0.0
C253 C 0.09854 0.84913 0.70087 0.0
C254 C 0.84648 0.08963 0.34301 0.0
C255 C 0.82446 0.13097 0.32443 0.0
C256 C 0.82601 0.04864 0.32232 0.0
C257 C 0.78293 0.04736 0.28185 0.0
H258 H 0.882 0.08907 0.37139 0.0
H259 H 0.84677 0.01794 0.33547 0.0
S260 S 0.70492 0.1464 0.22679 0.0
N261 N 0.75281 0.16826 0.26885 0.0
N262 N 0.71364 0.09125 0.23011 0.0
C263 C 0.7569 0.0884 0.26712 0.0
C264 C 0.77789 0.13022 0.28833 0.0
C265 C 0.9557 0.20623 0.70571 0.0
C266 C 0.9506 0.19594 0.76373 0.0
C267 C 1.00881 0.21502 0.68067 0.0
C268 C 0.05846 0.213 0.7127 0.0
H269 H 0.9186 0.20698 0.6795 0.0
H270 H 1.01131 0.22147 0.63564 0.0
S271 S 0.06851 0.18379 0.86456 0.0
N272 N 1.00045 0.1827 0.85156 0.0
N273 N 0.09915 0.19843 0.8045 0.0
C274 C 0.05365 0.2029 0.77053 0.0
C275 C 1.00008 0.19455 0.79601 0.0
C276 C 0.29525 0.0855 0.73556 0.0
C277 C 0.27048 0.04476 0.71772 0.0
C278 C 0.27701 0.12714 0.71437 0.0
C279 C 0.23368 0.12931 0.67453 0.0
H280 H 0.32558 0.08568 0.76947 0.0
H281 H 0.29343 0.15781 0.73287 0.0
S282 S 0.16434 0.0327 0.60443 0.0
N283 N 0.20747 1.00931 0.65026 0.0
N284 N 0.17313 0.08766 0.6111 0.0
C285 C 0.21315 0.08889 0.65176 0.0
C286 C 0.23167 0.04654 0.67313 0.0
C287 C 1.00809 0.84156 0.32244 0.0
C288 C 0.04685 0.80978 0.30105 0.0
C289 C 0.95567 0.84859 0.29675 0.0
C290 C 0.93975 0.82448 0.24804 0.0
H291 H 1.01946 0.8626 0.35801 0.0
H292 H 0.92885 0.87496 0.31355 0.0
S293 S 0.02486 0.73486 0.17777 0.0
N294 N 0.06452 0.75211 0.23049 0.0
N295 N 0.96646 0.76471 0.18226 0.0
C296 C 0.97704 0.79066 0.22829 0.0
C297 C 0.03035 0.78347 0.25472 0.0
C298 C 0.76135 0.94204 0.72382 0.0
C299 C 0.78836 0.98185 0.70561 0.0
C300 C 0.78178 0.89945 0.70788 0.0
C301 C 0.82948 0.89536 0.67279 0.0
H302 H 0.72707 0.94353 0.75418 0.0
H303 H 0.76275 0.86972 0.72654 0.0
S304 S 0.90659 0.98873 0.60254 0.0
N305 N 0.85899 0.01413 0.64254 0.0
N306 N 0.89671 0.93417 0.61216 0.0
C307 C 0.85274 0.93473 0.64926 0.0
C308 C 0.83225 0.97797 0.66565 0.0
C309 C 1.02384 0.24018 0.2667 0.0
C310 C 1.00526 0.21401 0.3127 0.0
C311 C 0.0766 0.23244 0.24107 0.0
C312 C 0.11312 0.19832 0.26055 0.0
H313 H 0.99594 0.26479 0.24804 0.0
H314 H 0.08747 0.25191 0.2038 0.0
S315 S 0.08641 0.12451 0.38494 0.0
N316 N 0.0292 0.15574 0.38031 0.0
N317 N 0.12823 0.14132 0.33299 0.0
C318 C 0.09646 0.17425 0.30933 0.0
C319 C 0.0426 0.18199 0.33506 0.0
C320 C 0.79497 0.4394 0.78737 0.0
C321 C 0.76927 0.47912 0.8074 0.0
C322 C 0.7738 0.39696 0.80259 0.0
C323 C 0.72668 0.39314 0.83851 0.0
H324 H 0.82803 0.44096 0.75565 0.0
H325 H 0.7913 0.36729 0.78236 0.0
S326 S 0.65411 0.48605 0.9139 0.0
N327 N 0.70169 0.51143 0.87383 0.0
N328 N 0.66189 0.43154 0.90198 0.0
C329 C 0.70522 0.43218 0.86414 0.0
C330 C 0.72675 0.47528 0.84887 0.0
C331 C 0.53776 0.34349 0.17983 0.0
C332 C 0.50433 0.30751 0.19989 0.0
C333 C 0.59023 0.3535 0.20352 0.0
C334 C 0.61234 0.3278 0.24822 0.0
H335 H 0.52173 0.36585 0.14753 0.0
H336 H 0.6121 0.38331 0.18864 0.0
S337 S 0.54611 0.22497 0.30954 0.0
N338 N 0.50025 0.24273 0.26247 0.0
N339 N 0.59952 0.26048 0.30605 0.0
C340 C 0.58195 0.28888 0.26475 0.0
C341 C 0.5279 0.27899 0.24086 0.0
C342 C 0.35004 0.59184 0.83695 0.0
C343 C 0.32717 0.63293 0.81845 0.0
C344 C 0.33231 0.55072 0.81421 0.0
C345 C 0.29105 0.54904 0.77194 0.0
H346 H 0.38413 0.59168 0.86706 0.0
H347 H 0.35353 0.52029 0.8276 0.0
S348 S 0.21241 0.64702 0.71492 0.0
N349 N 0.25714 0.66935 0.76 0.0
N350 N 0.22299 0.59206 0.71752 0.0
C351 C 0.26429 0.58966 0.75677 0.0
C352 C 0.28257 0.63163 0.77996 0.0
C353 C 0.46442 0.73777 0.24547 0.0
C354 C 0.4303 0.70211 0.22555 0.0
C355 C 0.51874 0.74572 0.22325 0.0
C356 C 0.54132 0.71847 0.18006 0.0
H357 H 0.45077 0.75797 0.28116 0.0
H358 H 0.54466 0.77131 0.24278 0.0
S359 S 0.4671 0.62601 0.10586 0.0
N360 N 0.42155 0.64327 0.15428 0.0
N361 N 0.52311 0.65831 0.11316 0.0
C362 C 0.50616 0.68537 0.15644 0.0
C363 C 0.45086 0.67727 0.17885 0.0
C364 C 0.78499 0.59555 0.244 0.0
C365 C 0.76401 0.55366 0.22549 0.0
C366 C 0.76476 0.6361 0.22157 0.0
C367 C 0.72306 0.63602 0.1799 0.0
H368 H 0.81395 0.59732 0.27903 0.0
H369 H 0.77875 0.66761 0.23989 0.0
S370 S 0.66397 0.53604 0.10774 0.0
N371 N 0.70652 0.51496 0.15581 0.0
N372 N 0.6684 0.59134 0.11426 0.0
C373 C 0.70615 0.59464 0.15691 0.0
C374 C 0.72681 0.55338 0.17945 0.0
C375 C 0.45243 0.32711 0.79271 0.0
C376 C 0.44917 0.32771 0.73317 0.0
C377 C 0.50373 0.31816 0.82043 0.0
C378 C 0.55361 0.30973 0.7896 0.0
H379 H 0.41534 0.3343 0.81801 0.0
H380 H 0.50484 0.31942 0.86618 0.0
S381 S 0.56975 0.31254 0.63393 0.0
N382 N 0.50209 0.32172 0.64488 0.0
N383 N 0.59731 0.30546 0.69706 0.0
C384 C 0.55095 0.31048 0.73044 0.0
C385 C 0.49911 0.31924 0.70224 0.0
C386 C 0.25862 0.43958 0.22194 0.0
C387 C 0.28652 0.4784 0.20199 0.0
C388 C 0.27828 0.39639 0.20782 0.0
C389 C 0.32581 0.39099 0.17278 0.0
H390 H 0.22474 0.44243 0.25261 0.0
H391 H 0.25905 0.36737 0.22796 0.0
S392 S 0.40382 0.48145 0.09776 0.0
N393 N 0.35693 0.50839 0.13699 0.0
N394 N 0.39314 0.42728 0.10979 0.0
C395 C 0.34939 0.42932 0.14707 0.0
C396 C 0.32978 0.47309 0.16172 0.0
C397 C 0.52622 0.7434 0.77337 0.0
C398 C 0.50531 0.71952 0.82037 0.0
C399 C 0.58022 0.73448 0.75104 0.0
C400 C 0.61539 0.7011 0.77466 0.0
H401 H 0.49913 0.76665 0.75113 0.0
H402 H 0.59253 0.75156 0.7124 0.0
S403 S 0.5831 0.63495 0.90449 0.0
N404 N 0.52609 0.6655 0.8942 0.0
N405 N 0.62728 0.64885 0.85313 0.0
C406 C 0.59654 0.68006 0.82489 0.0
C407 C 0.54162 0.68915 0.84739 0.0
C408 C 0.02746 0.06233 0.12397 0.0
C409 C 0.07757 0.03758 0.12022 0.0
C410 C 0.97531 0.04045 0.12295 0.0
C411 C 0.97173 0.99326 0.11753 0.0
H412 H 0.02846 0.09815 0.13274 0.0
H413 H 0.93777 0.06032 0.13043 0.0
S414 S 0.09074 0.9149 0.09298 0.0
N415 N 0.12061 0.96472 0.10143 0.0
N416 N 1.02232 0.92361 0.09856 0.0
C417 C 1.0213 0.9689 0.10707 0.0
C418 C 0.07446 0.99113 0.10879 0.0
C419 C 1.01968 0.05484 0.88916 0.0
C420 C 0.9697 0.02992 0.8859 0.0
C421 C 0.07191 0.03311 0.88883 0.0
C422 C 0.07562 0.98581 0.88641 0.0
H423 H 1.01869 0.09124 0.88697 0.0
H424 H 0.1096 0.0536 0.88667 0.0
S425 S 0.95639 0.90543 0.89122 0.0
N426 N 0.9265 0.95567 0.88985 0.0
N427 N 0.02488 0.91472 0.89078 0.0
C428 C 0.02587 0.96051 0.89023 0.0
C429 C 0.97267 0.98268 0.88954 0.0
C430 C 0.5807 0.47794 0.62696 0.0
C431 C 0.58621 0.52472 0.61854 0.0
C432 C 0.52934 0.45614 0.61804 0.0
C433 C 0.482 0.4807 0.60114 0.0
H434 H 0.61496 0.45862 0.64466 0.0
H435 H 0.52536 0.42107 0.63022 0.0
S436 S 0.47866 0.60058 0.55789 0.0
N437 N 0.54354 0.59256 0.58021 0.0
N438 N 0.44632 0.55158 0.56496 0.0
C439 C 0.48885 0.52601 0.58558 0.0
C440 C 0.54134 0.54813 0.59392 0.0
C441 C 0.5758 0.55807 0.38519 0.0
C442 C 0.5808 0.51239 0.40052 0.0
C443 C 0.52293 0.57851 0.38089 0.0
C444 C 0.47379 0.55355 0.39121 0.0
H445 H 0.61244 0.57702 0.37158 0.0
H446 H 0.52047 0.61236 0.3639 0.0
S447 S 0.46502 0.43776 0.44916 0.0
N448 N 0.53297 0.44644 0.43888 0.0
N449 N 0.43339 0.48467 0.42932 0.0
C450 C 0.47857 0.51004 0.41391 0.0
C451 C 0.53237 0.48944 0.4191 0.0
C452 C 0.28934 0.05357 0.98339 0.0
C453 C 0.28589 0.04975 0.04266 0.0
C454 C 0.28982 0.0152 0.9484 0.0
C455 C 0.28575 0.97146 0.97126 0.0
H456 H 0.29013 0.08655 0.96374 0.0
H457 H 0.29031 0.02011 0.90309 0.0
S458 S 0.2767 0.94272 0.12374 0.0
N459 N 0.27988 0.99828 0.1225 0.0
N460 N 0.27995 0.9266 0.057 0.0
C461 C 0.28389 0.96714 0.03046 0.0
C462 C 0.28422 1.00611 0.06608 0.0
C463 C 0.04977 0.80943 0.99056 0.0
C464 C 0.07864 0.76892 0.97986 0.0
C465 C 0.99389 0.80939 0.0095 0.0
C466 C 0.96482 0.76884 0.01976 0.0
H467 H 0.07002 0.84161 0.98291 0.0
H468 H 0.97372 0.84158 0.01723 0.0
S469 S 1.02183 0.65361 0.99986 0.0
N470 N 0.07414 0.68713 0.98067 0.0
N471 N 0.96946 0.68704 0.019 0.0
C472 C 0.9934 0.72804 0.01024 0.0
C473 C 0.05013 0.72809 0.98944 0.0
C474 C 0.75366 0.0534 0.01876 0.0
C475 C 0.75904 0.04927 0.95963 0.0
C476 C 0.7537 0.01536 0.05412 0.0
C477 C 0.76003 0.97166 0.03182 0.0
H478 H 0.75152 0.08647 0.03811 0.0
H479 H 0.75218 0.02062 0.09932 0.0
S480 S 0.7724 0.942 0.87976 0.0
N481 N 0.76787 0.9975 0.88038 0.0
N482 N 0.76822 0.92627 0.94658 0.0
C483 C 0.76274 0.96691 0.97264 0.0
C484 C 0.76214 1.0056 0.93662 0.0
C485 C 0.04207 0.19395 0.06151 0.0
C486 C 0.07676 0.21959 0.02557 0.0
C487 C 0.98358 0.19382 0.05542 0.0
C488 C 0.95732 0.21912 0.01268 0.0
H489 H 0.06063 0.17174 0.09257 0.0
H490 H 0.95921 0.1714 0.08222 0.0
S491 S 0.02968 0.29799 0.91387 0.0
N492 N 0.08117 0.27552 0.95096 0.0
N493 N 0.97091 0.27538 0.93861 0.0
C494 C 0.99144 0.24817 0.97974 0.0
C495 C 0.05132 0.2483 0.9863 0.0
C496 C 0.78522 0.51452 0.45771 0.0
C497 C 0.78031 0.47016 0.47858 0.0
C498 C 0.78638 0.552 0.49419 0.0
C499 C 0.78385 0.54692 0.55335 0.0
H500 H 0.78595 0.52067 0.4127 0.0
H501 H 0.78825 0.5854 0.47575 0.0
S502 S 0.77204 0.43796 0.63011 0.0
N503 N 0.77367 0.42343 0.56272 0.0
N504 N 0.7771 0.49345 0.63107 0.0
C505 C 0.78066 0.50266 0.57494 0.0
C506 C 0.77848 0.4645 0.53769 0.0
C507 C 0.50864 0.25364 0.52247 0.0
C508 C 0.45739 0.26893 0.49985 0.0
C509 C 0.56046 0.26602 0.49798 0.0
C510 C 0.56247 0.29423 0.45033 0.0
H511 H 0.50911 0.23492 0.5618 0.0
H512 H 0.5989 0.25618 0.51882 0.0
S513 S 0.44055 0.33179 0.36525 0.0
N514 N 0.4123 0.30498 0.41966 0.0
N515 N 0.50911 0.32908 0.37461 0.0
C516 C 0.51162 0.30516 0.42361 0.0
C517 C 0.45914 0.29214 0.44799 0.0
C518 C 0.25948 0.5157 0.54529 0.0
C519 C 0.2657 0.47181 0.52319 0.0
C520 C 0.25942 0.5539 0.50984 0.0
C521 C 0.2644 0.54988 0.45065 0.0
H522 H 0.25718 0.52095 0.59047 0.0
H523 H 0.25667 0.58697 0.52908 0.0
S524 S 0.28123 0.44267 0.37113 0.0
N525 N 0.2763 0.42683 0.43784 0.0
N526 N 0.27544 0.49808 0.37171 0.0
C527 C 0.26883 0.50612 0.4279 0.0
C528 C 0.26968 0.46733 0.46397 0.0
C529 C 0.51738 0.72006 0.56095 0.0
C530 C 0.57304 0.72241 0.54012 0.0
C531 C 0.47137 0.72275 0.52453 0.0
C532 C 0.47966 0.72749 0.46606 0.0
H533 H 0.50927 0.71332 0.60532 0.0
H534 H 0.42957 0.71728 0.54176 0.0
S535 S 0.61618 0.74385 0.39158 0.0
N536 N 0.6333 0.73635 0.45846 0.0
N537 N 0.54687 0.7414 0.38986 0.0
C538 C 0.53475 0.73443 0.44548 0.0
C539 C 0.58154 0.73194 0.4826 0.0
loop_
_geom_bond_atom_site_label_1
_geom_bond_atom_site_label_2
_geom_bond_distance
_geom_bond_site_symmetry_2
_ccdc_geom_bond_type
O0 Tb1 2.292 . S
O0 C3 1.255 . S
Tb1 O0 2.292 . S
Tb1 O17 2.326 . S
Tb1 O19 2.500 . S
Tb1 O20 2.473 . S
Tb1 O23 2.324 . S
Eu2 O6 2.292 . S
Eu2 C7 2.852 . S
Eu2 O18 2.324 . S
Eu2 O22 2.326 . S
Eu2 O24 2.500 . S
Eu2 O25 2.473 . S
C3 O0 1.255 . S
C3 O4 1.247 . S
O4 C3 1.247 . S
C5 O17 1.242 . S
C5 O18 1.258 . S
O6 Eu2 2.292 . S
O6 C8 1.255 . S
C7 Eu2 2.852 . S
C7 C11 1.503 . S
C7 O24 1.273 . S
C7 O25 1.257 . S
C8 O6 1.255 . S
C8 O9 1.247 1_455 S
O9 C8 1.247 1_655 S
C10 O22 1.242 . S
C10 O23 1.258 . S
C11 C7 1.503 . S
C11 C12 1.379 . S
C11 C16 1.392 . S
C12 C11 1.379 . S
C12 C13 1.404 . S
C12 H26 0.929 . S
C13 C12 1.404 . S
C13 C14 1.389 . S
C14 C13 1.389 . S
C14 C15 1.399 . S
C14 H27 0.931 . S
C15 C14 1.399 . S
C15 C16 1.390 . S
C16 C11 1.392 . S
C16 C15 1.390 . S
C16 H28 0.929 . S
O17 Tb1 2.326 . S
O17 C5 1.242 . S
O18 Eu2 2.324 . S
O18 C5 1.258 . S
O19 Tb1 2.500 . S
O19 C21 1.273 . S
O20 Tb1 2.473 . S
O20 C21 1.257 . S
C21 O19 1.273 . S
C21 O20 1.257 . S
O22 Eu2 2.326 . S
O22 C10 1.242 . S
O23 Tb1 2.324 . S
O23 C10 1.258 . S
O24 Eu2 2.500 . S
O24 C7 1.273 . S
O25 Eu2 2.473 . S
O25 C7 1.257 . S
H26 C12 0.929 . S
H27 C14 0.931 . S
H28 C16 0.929 . S
O29 Tb30 2.292 . S
O29 C32 1.255 . S
Tb30 O29 2.292 . S
Tb30 O46 2.326 . S
Tb30 O48 2.500 . S
Tb30 O49 2.473 . S
Tb30 O52 2.324 . S
Eu31 O35 2.292 . S
Eu31 C36 2.852 . S
Eu31 O47 2.324 . S
Eu31 O51 2.326 . S
Eu31 O53 2.500 . S
Eu31 O54 2.473 . S
C32 O29 1.255 . S
C32 O33 1.247 . S
O33 C32 1.247 . S
C34 O46 1.242 . S
C34 O47 1.258 . S
O35 Eu31 2.292 . S
O35 C37 1.255 . S
C36 Eu31 2.852 . S
C36 C40 1.503 . S
C36 O53 1.273 . S
C36 O54 1.257 . S
C37 O35 1.255 . S
C37 O38 1.247 1_455 S
O38 C37 1.247 1_655 S
C39 O51 1.242 . S
C39 O52 1.258 . S
C40 C36 1.503 . S
C40 C41 1.379 . S
C40 C45 1.392 . S
C41 C40 1.379 . S
C41 C42 1.404 . S
C41 H55 0.929 . S
C42 C41 1.404 . S
C42 C43 1.389 . S
C43 C42 1.389 . S
C43 C44 1.399 . S
C43 H56 0.931 . S
C44 C43 1.399 . S
C44 C45 1.390 . S
C45 C40 1.392 . S
C45 C44 1.390 . S
C45 H57 0.929 . S
O46 Tb30 2.326 . S
O46 C34 1.242 . S
O47 Eu31 2.324 . S
O47 C34 1.258 . S
O48 Tb30 2.500 . S
O48 C50 1.273 . S
O49 Tb30 2.473 . S
O49 C50 1.257 . S
C50 O48 1.273 . S
C50 O49 1.257 . S
O51 Eu31 2.326 . S
O51 C39 1.242 . S
O52 Tb30 2.324 . S
O52 C39 1.258 . S
O53 Eu31 2.500 . S
O53 C36 1.273 . S
O54 Eu31 2.473 . S
O54 C36 1.257 . S
H55 C41 0.929 . S
H56 C43 0.931 . S
H57 C45 0.929 . S
O58 Tb59 2.292 . S
O58 C61 1.255 . S
Tb59 O58 2.292 . S
Tb59 O75 2.326 . S
Tb59 O77 2.500 . S
Tb59 O78 2.473 . S
Tb59 O81 2.324 . S
Eu60 O64 2.292 . S
Eu60 C65 2.852 . S
Eu60 O76 2.324 . S
Eu60 O80 2.326 . S
Eu60 O82 2.500 . S
Eu60 O83 2.473 . S
C61 O58 1.255 . S
C61 O62 1.247 . S
O62 C61 1.247 . S
C63 O75 1.242 . S
C63 O76 1.258 . S
O64 Eu60 2.292 . S
O64 C66 1.255 . S
C65 Eu60 2.852 . S
C65 C69 1.503 . S
C65 O82 1.273 . S
C65 O83 1.257 . S
C66 O64 1.255 . S
C66 O67 1.247 1_655 S
O67 C66 1.247 1_455 S
C68 O80 1.242 . S
C68 O81 1.258 . S
C69 C65 1.503 . S
C69 C70 1.379 . S
C69 C74 1.392 . S
C70 C69 1.379 . S
C70 C71 1.404 . S
C70 H84 0.929 . S
C71 C70 1.404 . S
C71 C72 1.389 . S
C72 C71 1.389 . S
C72 C73 1.399 . S
C72 H85 0.931 . S
C73 C72 1.399 . S
C73 C74 1.390 . S
C74 C69 1.392 . S
C74 C73 1.390 . S
C74 H86 0.929 . S
O75 Tb59 2.326 . S
O75 C63 1.242 . S
O76 Eu60 2.324 . S
O76 C63 1.258 . S
O77 Tb59 2.500 . S
O77 C79 1.273 . S
O78 Tb59 2.473 . S
O78 C79 1.257 . S
C79 O77 1.273 . S
C79 O78 1.257 . S
O80 Eu60 2.326 . S
O80 C68 1.242 . S
O81 Tb59 2.324 . S
O81 C68 1.258 . S
O82 Eu60 2.500 . S
O82 C65 1.273 . S
O83 Eu60 2.473 . S
O83 C65 1.257 . S
H84 C70 0.929 . S
H85 C72 0.931 . S
H86 C74 0.929 . S
O87 Tb88 2.292 . S
O87 C90 1.255 . S
Tb88 O87 2.292 . S
Tb88 O104 2.326 . S
Tb88 O106 2.500 . S
Tb88 O107 2.473 . S
Tb88 O110 2.324 . S
Eu89 O93 2.292 . S
Eu89 C94 2.852 . S
Eu89 O105 2.324 . S
Eu89 O109 2.326 . S
Eu89 O111 2.500 . S
Eu89 O112 2.473 . S
C90 O87 1.255 . S
C90 O91 1.247 . S
O91 C90 1.247 . S
C92 O104 1.242 . S
C92 O105 1.258 . S
O93 Eu89 2.292 . S
O93 C95 1.255 . S
C94 Eu89 2.852 . S
C94 C98 1.503 . S
C94 O111 1.273 . S
C94 O112 1.257 . S
C95 O93 1.255 . S
C95 O96 1.247 1_655 S
O96 C95 1.247 1_455 S
C97 O109 1.242 . S
C97 O110 1.258 . S
C98 C94 1.503 . S
C98 C99 1.379 . S
C98 C103 1.392 . S
C99 C98 1.379 . S
C99 C100 1.404 . S
C99 H113 0.929 . S
C100 C99 1.404 . S
C100 C101 1.389 . S
C101 C100 1.389 . S
C101 C102 1.399 . S
C101 H114 0.931 . S
C102 C101 1.399 . S
C102 C103 1.390 . S
C103 C98 1.392 . S
C103 C102 1.390 . S
C103 H115 0.929 . S
O104 Tb88 2.326 . S
O104 C92 1.242 . S
O105 Eu89 2.324 . S
O105 C92 1.258 . S
O106 Tb88 2.500 . S
O106 C108 1.273 . S
O107 Tb88 2.473 . S
O107 C108 1.257 . S
C108 O106 1.273 . S
C108 O107 1.257 . S
O109 Eu89 2.326 . S
O109 C97 1.242 . S
O110 Tb88 2.324 . S
O110 C97 1.258 . S
O111 Eu89 2.500 . S
O111 C94 1.273 . S
O112 Eu89 2.473 . S
O112 C94 1.257 . S
H113 C99 0.929 . S
H114 C101 0.931 . S
H115 C103 0.929 . S
O116 Tb117 2.292 . S
O116 C119 1.255 . S
Tb117 O116 2.292 . S
Tb117 O133 2.326 . S
Tb117 O135 2.500 . S
Tb117 O136 2.473 . S
Tb117 O139 2.324 . S
Eu118 O122 2.292 . S
Eu118 C123 2.852 . S
Eu118 O134 2.324 . S
Eu118 O138 2.326 . S
Eu118 O140 2.500 . S
Eu118 O141 2.473 . S
C119 O116 1.255 . S
C119 O120 1.247 . S
O120 C119 1.247 . S
C121 O133 1.242 . S
C121 O134 1.258 . S
O122 Eu118 2.292 . S
O122 C124 1.255 . S
C123 Eu118 2.852 . S
C123 C127 1.503 . S
C123 O140 1.273 . S
C123 O141 1.257 . S
C124 O122 1.255 . S
C124 O125 1.247 . S
O125 C124 1.247 . S
C126 O138 1.242 . S
C126 O139 1.258 . S
C127 C123 1.503 . S
C127 C128 1.379 . S
C127 C132 1.392 . S
C128 C127 1.379 . S
C128 C129 1.404 . S
C128 H142 0.929 . S
C129 C128 1.404 . S
C129 C130 1.389 . S
C130 C129 1.389 . S
C130 C131 1.399 . S
C130 H143 0.931 . S
C131 C130 1.399 . S
C131 C132 1.390 . S
C132 C127 1.392 . S
C132 C131 1.390 . S
C132 H144 0.929 . S
O133 Tb117 2.326 . S
O133 C121 1.242 . S
O134 Eu118 2.324 . S
O134 C121 1.258 . S
O135 Tb117 2.500 . S
O135 C137 1.273 . S
O136 Tb117 2.473 . S
O136 C137 1.257 . S
C137 O135 1.273 . S
C137 O136 1.257 . S
O138 Eu118 2.326 . S
O138 C126 1.242 . S
O139 Tb117 2.324 . S
O139 C126 1.258 . S
O140 Eu118 2.500 . S
O140 C123 1.273 . S
O141 Eu118 2.473 . S
O141 C123 1.257 . S
H142 C128 0.929 . S
H143 C130 0.931 . S
H144 C132 0.929 . S
O145 Tb146 2.292 . S
O145 C148 1.255 . S
Tb146 O145 2.292 . S
Tb146 O162 2.326 . S
Tb146 O164 2.500 . S
Tb146 O165 2.473 . S
Tb146 O168 2.324 . S
Eu147 O151 2.292 . S
Eu147 C152 2.852 . S
Eu147 O163 2.324 . S
Eu147 O167 2.326 . S
Eu147 O169 2.500 . S
Eu147 O170 2.473 . S
C148 O145 1.255 . S
C148 O149 1.247 . S
O149 C148 1.247 . S
C150 O162 1.242 . S
C150 O163 1.258 . S
O151 Eu147 2.292 . S
O151 C153 1.255 . S
C152 Eu147 2.852 . S
C152 C156 1.503 . S
C152 O169 1.273 . S
C152 O170 1.257 . S
C153 O151 1.255 . S
C153 O154 1.247 . S
O154 C153 1.247 . S
C155 O167 1.242 . S
C155 O168 1.258 . S
C156 C152 1.503 . S
C156 C157 1.379 . S
C156 C161 1.392 . S
C157 C156 1.379 . S
C157 C158 1.404 . S
C157 H171 0.929 . S
C158 C157 1.404 . S
C158 C159 1.389 . S
C159 C158 1.389 . S
C159 C160 1.399 . S
C159 H172 0.931 . S
C160 C159 1.399 . S
C160 C161 1.390 . S
C161 C156 1.392 . S
C161 C160 1.390 . S
C161 H173 0.929 . S
O162 Tb146 2.326 . S
O162 C150 1.242 . S
O163 Eu147 2.324 . S
O163 C150 1.258 . S
O164 Tb146 2.500 . S
O164 C166 1.273 . S
O165 Tb146 2.473 . S
O165 C166 1.257 . S
C166 O164 1.273 . S
C166 O165 1.257 . S
O167 Eu147 2.326 . S
O167 C155 1.242 . S
O168 Tb146 2.324 . S
O168 C155 1.258 . S
O169 Eu147 2.500 . S
O169 C152 1.273 . S
O170 Eu147 2.473 . S
O170 C152 1.257 . S
H171 C157 0.929 . S
H172 C159 0.931 . S
H173 C161 0.929 . S
O174 Tb175 2.292 . S
O174 C177 1.255 . S
Tb175 O174 2.292 . S
Tb175 O191 2.326 . S
Tb175 O193 2.500 . S
Tb175 O194 2.473 . S
Tb175 O197 2.324 . S
Eu176 O180 2.292 . S
Eu176 C181 2.852 . S
Eu176 O192 2.324 . S
Eu176 O196 2.326 . S
Eu176 O198 2.500 . S
Eu176 O199 2.473 . S
C177 O174 1.255 . S
C177 O178 1.247 . S
O178 C177 1.247 . S
C179 O191 1.242 . S
C179 O192 1.258 . S
O180 Eu176 2.292 . S
O180 C182 1.255 . S
C181 Eu176 2.852 . S
C181 C185 1.503 . S
C181 O198 1.273 . S
C181 O199 1.257 . S
C182 O180 1.255 . S
C182 O183 1.247 . S
O183 C182 1.247 . S
C184 O196 1.242 . S
C184 O197 1.258 . S
C185 C181 1.503 . S
C185 C186 1.379 . S
C185 C190 1.392 . S
C186 C185 1.379 . S
C186 C187 1.404 . S
C186 H200 0.929 . S
C187 C186 1.404 . S
C187 C188 1.389 . S
C188 C187 1.389 . S
C188 C189 1.399 . S
C188 H201 0.931 . S
C189 C188 1.399 . S
C189 C190 1.390 . S
C190 C185 1.392 . S
C190 C189 1.390 . S
C190 H202 0.929 . S
O191 Tb175 2.326 . S
O191 C179 1.242 . S
O192 Eu176 2.324 . S
O192 C179 1.258 . S
O193 Tb175 2.500 . S
O193 C195 1.273 . S
O194 Tb175 2.473 . S
O194 C195 1.257 . S
C195 O193 1.273 . S
C195 O194 1.257 . S
O196 Eu176 2.326 . S
O196 C184 1.242 . S
O197 Tb175 2.324 . S
O197 C184 1.258 . S
O198 Eu176 2.500 . S
O198 C181 1.273 . S
O199 Eu176 2.473 . S
O199 C181 1.257 . S
H200 C186 0.929 . S
H201 C188 0.931 . S
H202 C190 0.929 . S
O203 Tb204 2.292 . S
O203 C206 1.255 . S
Tb204 O203 2.292 . S
Tb204 O220 2.326 . S
Tb204 O222 2.500 . S
Tb204 O223 2.473 . S
Tb204 O226 2.324 . S
Eu205 O209 2.292 . S
Eu205 C210 2.852 . S
Eu205 O221 2.324 . S
Eu205 O225 2.326 . S
Eu205 O227 2.500 . S
Eu205 O228 2.473 . S
C206 O203 1.255 . S
C206 O207 1.247 . S
O207 C206 1.247 . S
C208 O220 1.242 . S
C208 O221 1.258 . S
O209 Eu205 2.292 . S
O209 C211 1.255 . S
C210 Eu205 2.852 . S
C210 C214 1.503 . S
C210 O227 1.273 . S
C210 O228 1.257 . S
C211 O209 1.255 . S
C211 O212 1.247 . S
O212 C211 1.247 . S
C213 O225 1.242 . S
C213 O226 1.258 . S
C214 C210 1.503 . S
C214 C215 1.379 . S
C214 C219 1.392 . S
C215 C214 1.379 . S
C215 C216 1.404 . S
C215 H229 0.929 . S
C216 C215 1.404 . S
C216 C217 1.389 . S
C217 C216 1.389 . S
C217 C218 1.399 . S
C217 H230 0.931 . S
C218 C217 1.399 . S
C218 C219 1.390 . S
C219 C214 1.392 . S
C219 C218 1.390 . S
C219 H231 0.929 . S
O220 Tb204 2.326 . S
O220 C208 1.242 . S
O221 Eu205 2.324 . S
O221 C208 1.258 . S
O222 Tb204 2.500 . S
O222 C224 1.273 . S
O223 Tb204 2.473 . S
O223 C224 1.257 . S
C224 O222 1.273 . S
C224 O223 1.257 . S
O225 Eu205 2.326 . S
O225 C213 1.242 . S
O226 Tb204 2.324 . S
O226 C213 1.258 . S
O227 Eu205 2.500 . S
O227 C210 1.273 . S
O228 Eu205 2.473 . S
O228 C210 1.257 . S
H229 C215 0.929 . S
H230 C217 0.931 . S
H231 C219 0.929 . S
C232 C233 1.369 . S
C232 C234 1.419 . S
C232 H236 0.930 . S
C233 C232 1.369 . S
C233 C242 1.429 . S
C234 C232 1.419 . S
C234 C235 1.363 . S
C234 H237 0.929 . S
C235 C234 1.363 . S
C235 C241 1.428 . S
H236 C232 0.930 . S
H237 C234 0.929 . S
S238 N239 1.613 1_565 S
S238 N240 1.610 . S
N239 S238 1.613 1_545 S
N239 C242 1.350 1_545 S
N240 S238 1.610 . S
N240 C241 1.351 . S
C241 C235 1.428 . S
C241 N240 1.351 . S
C241 C242 1.434 . S
C242 C233 1.429 . S
C242 N239 1.350 1_565 S
C242 C241 1.434 . S
C243 C244 1.369 1_655 S
C243 C245 1.419 . S
C243 H247 0.930 . S
C244 C243 1.369 1_455 S
C244 C253 1.429 . S
C245 C243 1.419 . S
C245 C246 1.363 . S
C245 H248 0.929 . S
C246 C245 1.363 . S
C246 C252 1.428 . S
H247 C243 0.930 . S
H248 C245 0.929 . S
S249 N250 1.609 1_655 S
S249 N251 1.616 . S
N250 S249 1.609 1_455 S
N250 C253 1.350 . S
N251 S249 1.616 . S
N251 C252 1.351 . S
C252 C246 1.428 . S
C252 N251 1.351 . S
C252 C253 1.434 1_655 S
C253 C244 1.429 . S
C253 N250 1.350 . S
C253 C252 1.434 1_455 S
C254 C255 1.369 . S
C254 C256 1.419 . S
C254 H258 0.930 . S
C255 C254 1.369 . S
C255 C264 1.429 . S
C256 C254 1.419 . S
C256 C257 1.363 . S
C256 H259 0.929 . S
C257 C256 1.363 . S
C257 C263 1.428 . S
H258 C254 0.930 . S
H259 C256 0.929 . S
S260 N261 1.613 . S
S260 N262 1.610 . S
N261 S260 1.613 . S
N261 C264 1.350 . S
N262 S260 1.610 . S
N262 C263 1.351 . S
C263 C257 1.428 . S
C263 N262 1.351 . S
C263 C264 1.434 . S
C264 C255 1.429 . S
C264 N261 1.350 . S
C264 C263 1.434 . S
C265 C266 1.367 1_455 S
C265 C267 1.424 . S
C265 H269 0.926 1_455 S
C266 C265 1.367 1_655 S
C266 C275 1.429 1_655 S
C267 C265 1.424 . S
C267 C268 1.363 . S
C267 H270 0.929 . S
C268 C267 1.363 . S
C268 C274 1.428 . S
H269 C265 0.926 1_655 S
H270 C267 0.929 . S
S271 N272 1.613 . S
S271 N273 1.610 . S
N272 S271 1.613 . S
N272 C275 1.350 . S
N273 S271 1.610 . S
N273 C274 1.351 . S
C274 C268 1.428 . S
C274 N273 1.351 . S
C274 C275 1.434 . S
C275 C266 1.429 1_455 S
C275 N272 1.350 . S
C275 C274 1.434 . S
C276 C277 1.369 . S
C276 C278 1.419 . S
C276 H280 0.930 . S
C277 C276 1.369 . S
C277 C286 1.429 . S
C278 C276 1.419 . S
C278 C279 1.363 . S
C278 H281 0.929 . S
C279 C278 1.363 . S
C279 C285 1.428 . S
H280 C276 0.930 . S
H281 C278 0.929 . S
S282 N283 1.613 1_545 S
S282 N284 1.610 . S
N283 S282 1.613 1_565 S
N283 C286 1.350 1_565 S
N284 S282 1.610 . S
N284 C285 1.351 . S
C285 C279 1.428 . S
C285 N284 1.351 . S
C285 C286 1.434 . S
C286 C277 1.429 . S
C286 N283 1.350 1_545 S
C286 C285 1.434 . S
C287 C288 1.369 . S
C287 C289 1.419 . S
C287 H291 0.930 . S
C288 C287 1.369 . S
C288 C297 1.429 . S
C289 C287 1.419 . S
C289 C290 1.363 1_455 S
C289 H292 0.929 1_455 S
C290 C289 1.363 1_655 S
C290 C296 1.428 1_655 S
H291 C287 0.930 . S
H292 C289 0.929 1_655 S
S293 N294 1.613 . S
S293 N295 1.610 . S
N294 S293 1.613 . S
N294 C297 1.350 . S
N295 S293 1.610 . S
N295 C296 1.351 . S
C296 C290 1.428 1_455 S
C296 N295 1.351 . S
C296 C297 1.434 . S
C297 C288 1.429 . S
C297 N294 1.350 . S
C297 C296 1.434 . S
C298 C299 1.369 . S
C298 C300 1.419 . S
C298 H302 0.930 . S
C299 C298 1.369 . S
C299 C308 1.429 . S
C300 C298 1.419 . S
C300 C301 1.363 . S
C300 H303 0.929 . S
C301 C300 1.363 . S
C301 C307 1.428 . S
H302 C298 0.930 . S
H303 C300 0.929 . S
S304 N305 1.613 1_565 S
S304 N306 1.610 . S
N305 S304 1.613 1_545 S
N305 C308 1.350 1_545 S
N306 S304 1.610 . S
N306 C307 1.351 . S
C307 C301 1.428 . S
C307 N306 1.351 . S
C307 C308 1.434 . S
C308 C299 1.429 . S
C308 N305 1.350 1_565 S
C308 C307 1.434 . S
C309 C310 1.369 . S
C309 C311 1.419 . S
C309 H313 0.930 . S
C310 C309 1.369 . S
C310 C319 1.429 . S
C311 C309 1.419 . S
C311 C312 1.363 1_655 S
C311 H314 0.929 . S
C312 C311 1.363 1_455 S
C312 C318 1.432 . S
H313 C309 0.930 . S
H314 C311 0.929 . S
S315 N316 1.613 . S
S315 N317 1.610 1_655 S
N316 S315 1.613 . S
N316 C319 1.350 . S
N317 S315 1.610 1_455 S
N317 C318 1.361 . S
C318 C312 1.432 . S
C318 N317 1.361 . S
C318 C319 1.419 1_455 S
C319 C310 1.429 . S
C319 N316 1.350 . S
C319 C318 1.419 1_655 S
C320 C321 1.369 . S
C320 C322 1.419 . S
C320 H324 0.930 . S
C321 C320 1.369 . S
C321 C330 1.429 . S
C322 C320 1.419 . S
C322 C323 1.363 . S
C322 H325 0.929 . S
C323 C322 1.363 . S
C323 C329 1.428 . S
H324 C320 0.930 . S
H325 C322 0.929 . S
S326 N327 1.613 . S
S326 N328 1.610 . S
N327 S326 1.613 . S
N327 C330 1.350 . S
N328 S326 1.610 . S
N328 C329 1.351 . S
C329 C323 1.428 . S
C329 N328 1.351 . S
C329 C330 1.434 . S
C330 C321 1.429 . S
C330 N327 1.350 . S
C330 C329 1.434 . S
C331 C332 1.369 . S
C331 C333 1.419 . S
C331 H335 0.930 . S
C332 C331 1.369 . S
C332 C341 1.429 . S
C333 C331 1.419 . S
C333 C334 1.363 . S
C333 H336 0.929 . S
C334 C333 1.363 . S
C334 C340 1.428 . S
H335 C331 0.930 . S
H336 C333 0.929 . S
S337 N338 1.613 . S
S337 N339 1.610 . S
N338 S337 1.613 . S
N338 C341 1.350 . S
N339 S337 1.610 . S
N339 C340 1.351 . S
C340 C334 1.428 . S
C340 N339 1.351 . S
C340 C341 1.434 . S
C341 C332 1.429 . S
C341 N338 1.350 . S
C341 C340 1.434 . S
C342 C343 1.369 . S
C342 C344 1.419 . S
C342 H346 0.930 . S
C343 C342 1.369 . S
C343 C352 1.429 . S
C344 C342 1.419 . S
C344 C345 1.363 . S
C344 H347 0.929 . S
C345 C344 1.363 . S
C345 C351 1.428 . S
H346 C342 0.930 . S
H347 C344 0.929 . S
S348 N349 1.613 . S
S348 N350 1.610 . S
N349 S348 1.613 . S
N349 C352 1.350 . S
N350 S348 1.610 . S
N350 C351 1.351 . S
C351 C345 1.428 . S
C351 N350 1.351 . S
C351 C352 1.434 . S
C352 C343 1.429 . S
C352 N349 1.350 . S
C352 C351 1.434 . S
C353 C354 1.369 . S
C353 C355 1.419 . S
C353 H357 0.930 . S
C354 C353 1.369 . S
C354 C363 1.429 . S
C355 C353 1.419 . S
C355 C356 1.363 . S
C355 H358 0.929 . S
C356 C355 1.363 . S
C356 C362 1.428 . S
H357 C353 0.930 . S
H358 C355 0.929 . S
S359 N360 1.613 . S
S359 N361 1.610 . S
N360 S359 1.613 . S
N360 C363 1.350 . S
N361 S359 1.610 . S
N361 C362 1.351 . S
C362 C356 1.428 . S
C362 N361 1.351 . S
C362 C363 1.434 . S
C363 C354 1.429 . S
C363 N360 1.350 . S
C363 C362 1.434 . S
C364 C365 1.369 . S
C364 C366 1.419 . S
C364 H368 0.930 . S
C365 C364 1.369 . S
C365 C374 1.429 . S
C366 C364 1.419 . S
C366 C367 1.363 . S
C366 H369 0.929 . S
C367 C366 1.363 . S
C367 C373 1.428 . S
H368 C364 0.930 . S
H369 C366 0.929 . S
S370 N371 1.613 . S
S370 N372 1.610 . S
N371 S370 1.613 . S
N371 C374 1.350 . S
N372 S370 1.610 . S
N372 C373 1.351 . S
C373 C367 1.428 . S
C373 N372 1.351 . S
C373 C374 1.434 . S
C374 C365 1.429 . S
C374 N371 1.350 . S
C374 C373 1.434 . S
C375 C376 1.369 . S
C375 C377 1.419 . S
C375 H379 0.930 . S
C376 C375 1.369 . S
C376 C385 1.429 . S
C377 C375 1.419 . S
C377 C378 1.363 . S
C377 H380 0.929 . S
C378 C377 1.363 . S
C378 C384 1.428 . S
H379 C375 0.930 . S
H380 C377 0.929 . S
S381 N382 1.613 . S
S381 N383 1.610 . S
N382 S381 1.613 . S
N382 C385 1.350 . S
N383 S381 1.610 . S
N383 C384 1.351 . S
C384 C378 1.428 . S
C384 N383 1.351 . S
C384 C385 1.434 . S
C385 C376 1.429 . S
C385 N382 1.350 . S
C385 C384 1.434 . S
C386 C387 1.369 . S
C386 C388 1.419 . S
C386 H390 0.930 . S
C387 C386 1.369 . S
C387 C396 1.429 . S
C388 C386 1.419 . S
C388 C389 1.363 . S
C388 H391 0.929 . S
C389 C388 1.363 . S
C389 C395 1.428 . S
H390 C386 0.930 . S
H391 C388 0.929 . S
S392 N393 1.613 . S
S392 N394 1.610 . S
N393 S392 1.613 . S
N393 C396 1.350 . S
N394 S392 1.610 . S
N394 C395 1.351 . S
C395 C389 1.428 . S
C395 N394 1.351 . S
C395 C396 1.434 . S
C396 C387 1.429 . S
C396 N393 1.350 . S
C396 C395 1.434 . S
C397 C398 1.369 . S
C397 C399 1.419 . S
C397 H401 0.930 . S
C398 C397 1.369 . S
C398 C407 1.429 . S
C399 C397 1.419 . S
C399 C400 1.363 . S
C399 H402 0.929 . S
C400 C399 1.363 . S
C400 C406 1.428 . S
H401 C397 0.930 . S
H402 C399 0.929 . S
S403 N404 1.613 . S
S403 N405 1.610 . S
N404 S403 1.613 . S
N404 C407 1.350 . S
N405 S403 1.610 . S
N405 C406 1.351 . S
C406 C400 1.428 . S
C406 N405 1.351 . S
C406 C407 1.434 . S
C407 C398 1.429 . S
C407 N404 1.350 . S
C407 C406 1.434 . S
C408 C409 1.369 . S
C408 C410 1.419 1_445 S
C408 H412 0.930 . S
C409 C408 1.369 . S
C409 C418 1.429 . S
C410 C408 1.419 1_665 S
C410 C411 1.363 . S
C410 H413 0.929 . S
C411 C410 1.363 . S
C411 C417 1.428 . S
H412 C408 0.930 . S
H413 C410 0.929 . S
S414 N415 1.613 1_565 S
S414 N416 1.610 1_455 S
N415 S414 1.613 1_545 S
N415 C418 1.350 . S
N416 S414 1.610 1_655 S
N416 C417 1.351 . S
C417 C411 1.428 . S
C417 N416 1.351 . S
C417 C418 1.434 1_665 S
C418 C409 1.429 . S
C418 N415 1.350 . S
C418 C417 1.434 1_445 S
C419 C420 1.369 1_455 S
C419 C421 1.419 . S
C419 H423 0.930 . S
C420 C419 1.369 1_655 S
C420 C429 1.429 1_545 S
C421 C419 1.419 . S
C421 C422 1.363 1_545 S
C421 H424 0.929 . S
C422 C421 1.363 1_565 S
C422 C428 1.428 1_455 S
H423 C419 0.930 . S
H424 C421 0.929 . S
S425 N426 1.613 . S
S425 N427 1.610 . S
N426 S425 1.613 . S
N426 C429 1.350 . S
N427 S425 1.610 . S
N427 C428 1.351 . S
C428 C422 1.428 1_655 S
C428 N427 1.351 . S
C428 C429 1.434 . S
C429 C420 1.429 1_565 S
C429 N426 1.350 . S
C429 C428 1.434 . S
C430 C431 1.369 . S
C430 C432 1.419 . S
C430 H434 0.930 . S
C431 C430 1.369 . S
C431 C440 1.429 . S
C432 C430 1.419 . S
C432 C433 1.363 . S
C432 H435 0.929 . S
C433 C432 1.363 . S
C433 C439 1.428 . S
H434 C430 0.930 . S
H435 C432 0.929 . S
S436 N437 1.613 . S
S436 N438 1.610 . S
N437 S436 1.613 . S
N437 C440 1.350 . S
N438 S436 1.610 . S
N438 C439 1.351 . S
C439 C433 1.428 . S
C439 N438 1.351 . S
C439 C440 1.434 . S
C440 C431 1.429 . S
C440 N437 1.350 . S
C440 C439 1.434 . S
C441 C442 1.369 . S
C441 C443 1.419 . S
C441 H445 0.930 . S
C442 C441 1.369 . S
C442 C451 1.429 . S
C443 C441 1.419 . S
C443 C444 1.363 . S
C443 H446 0.929 . S
C444 C443 1.363 . S
C444 C450 1.428 . S
H445 C441 0.930 . S
H446 C443 0.929 . S
S447 N448 1.613 . S
S447 N449 1.610 . S
N448 S447 1.613 . S
N448 C451 1.350 . S
N449 S447 1.610 . S
N449 C450 1.351 . S
C450 C444 1.428 . S
C450 N449 1.351 . S
C450 C451 1.434 . S
C451 C442 1.429 . S
C451 N448 1.350 . S
C451 C450 1.434 . S
C452 C453 1.369 . S
C452 C454 1.419 1_544 S
C452 H456 0.930 . S
C453 C452 1.369 . S
C453 C462 1.429 . S
C454 C452 1.419 1_566 S
C454 C455 1.363 . S
C454 H457 0.929 . S
C455 C454 1.363 . S
C455 C461 1.428 . S
H456 C452 0.930 . S
H457 C454 0.929 . S
S458 N459 1.613 1_565 S
S458 N460 1.610 1_554 S
N459 S458 1.613 1_545 S
N459 C462 1.350 . S
N460 S458 1.610 1_556 S
N460 C461 1.351 . S
C461 C455 1.428 . S
C461 N460 1.351 . S
C461 C462 1.434 1_566 S
C462 C453 1.429 . S
C462 N459 1.350 . S
C462 C461 1.434 1_544 S
C463 C464 1.369 . S
C463 C465 1.419 1_456 S
C463 H467 0.930 . S
C464 C463 1.369 . S
C464 C473 1.429 . S
C465 C463 1.419 1_654 S
C465 C466 1.363 . S
C465 H468 0.929 . S
C466 C465 1.363 . S
C466 C472 1.428 . S
H467 C463 0.930 . S
H468 C465 0.929 . S
S469 N470 1.613 1_655 S
S469 N471 1.610 1_556 S
N470 S469 1.613 1_455 S
N470 C473 1.350 . S
N471 S469 1.610 1_554 S
N471 C472 1.351 . S
C472 C466 1.428 . S
C472 N471 1.351 . S
C472 C473 1.434 1_654 S
C473 C464 1.429 . S
C473 N470 1.350 . S
C473 C472 1.434 1_456 S
C474 C475 1.369 1_554 S
C474 C476 1.418 1_545 S
C474 H478 0.930 . S
C475 C474 1.369 1_556 S
C475 C484 1.429 1_545 S
C476 C474 1.418 1_565 S
C476 C477 1.364 . S
C476 H479 0.929 1_565 S
C477 C476 1.364 . S
C477 C483 1.428 1_554 S
H478 C474 0.930 . S
H479 C476 0.929 1_545 S
S480 N481 1.613 . S
S480 N482 1.610 . S
N481 S480 1.613 . S
N481 C484 1.350 . S
N482 S480 1.610 . S
N482 C483 1.351 . S
C483 C477 1.428 1_556 S
C483 N482 1.351 . S
C483 C484 1.434 . S
C484 C475 1.429 1_565 S
C484 N481 1.350 . S
C484 C483 1.434 . S
C485 C486 1.369 1_655 S
C485 C487 1.419 . S
C485 H489 0.930 . S
C486 C485 1.369 1_455 S
C486 C495 1.429 1_554 S
C487 C485 1.419 . S
C487 C488 1.363 1_554 S
C487 H490 0.929 . S
C488 C487 1.363 1_556 S
C488 C494 1.428 1_655 S
H489 C485 0.930 . S
H490 C487 0.929 . S
S491 N492 1.613 . S
S491 N493 1.610 . S
N492 S491 1.613 . S
N492 C495 1.350 . S
N493 S491 1.610 . S
N493 C494 1.351 . S
C494 C488 1.428 1_455 S
C494 N493 1.351 . S
C494 C495 1.434 . S
C495 C486 1.429 1_556 S
C495 N492 1.350 . S
C495 C494 1.434 . S
C496 C497 1.369 . S
C496 C498 1.419 . S
C496 H500 0.930 . S
C497 C496 1.369 . S
C497 C506 1.429 . S
C498 C496 1.419 . S
C498 C499 1.363 . S
C498 H501 0.929 . S
C499 C498 1.363 . S
C499 C505 1.428 . S
H500 C496 0.930 . S
H501 C498 0.929 . S
S502 N503 1.613 . S
S502 N504 1.610 . S
N503 S502 1.613 . S
N503 C506 1.350 . S
N504 S502 1.610 . S
N504 C505 1.351 . S
C505 C499 1.428 . S
C505 N504 1.351 . S
C505 C506 1.434 . S
C506 C497 1.429 . S
C506 N503 1.350 . S
C506 C505 1.434 . S
C507 C508 1.369 . S
C507 C509 1.419 . S
C507 H511 0.930 . S
C508 C507 1.369 . S
C508 C517 1.429 . S
C509 C507 1.419 . S
C509 C510 1.363 . S
C509 H512 0.929 . S
C510 C509 1.363 . S
C510 C516 1.428 . S
H511 C507 0.930 . S
H512 C509 0.929 . S
S513 N514 1.613 . S
S513 N515 1.610 . S
N514 S513 1.613 . S
N514 C517 1.350 . S
N515 S513 1.610 . S
N515 C516 1.351 . S
C516 C510 1.428 . S
C516 N515 1.351 . S
C516 C517 1.434 . S
C517 C508 1.429 . S
C517 N514 1.350 . S
C517 C516 1.434 . S
C518 C519 1.369 . S
C518 C520 1.419 . S
C518 H522 0.930 . S
C519 C518 1.369 . S
C519 C528 1.429 . S
C520 C518 1.419 . S
C520 C521 1.363 . S
C520 H523 0.929 . S
C521 C520 1.363 . S
C521 C527 1.428 . S
H522 C518 0.930 . S
H523 C520 0.929 . S
S524 N525 1.613 . S
S524 N526 1.610 . S
N525 S524 1.613 . S
N525 C528 1.350 . S
N526 S524 1.610 . S
N526 C527 1.351 . S
C527 C521 1.428 . S
C527 N526 1.351 . S
C527 C528 1.434 . S
C528 C519 1.429 . S
C528 N525 1.350 . S
C528 C527 1.434 . S
C529 C530 1.369 . S
C529 C531 1.419 . S
C529 H533 0.930 . S
C530 C529 1.369 . S
C530 C539 1.429 . S
C531 C529 1.419 . S
C531 C532 1.363 . S
C531 H534 0.929 . S
C532 C531 1.363 . S
C532 C538 1.428 . S
H533 C529 0.930 . S
H534 C531 0.929 . S
S535 N536 1.613 . S
S535 N537 1.610 . S
N536 S535 1.613 . S
N536 C539 1.350 . S
N537 S535 1.610 . S
N537 C538 1.351 . S
C538 C532 1.428 . S
C538 N537 1.351 . S
C538 C539 1.434 . S
C539 C530 1.429 . S
C539 N536 1.350 . S
C539 C538 1.434 . S
C233 C3 1.732 1_565 S
C235 C218 1.788 . S
C244 C39 2.109 . S
C246 C129 2.144 . S
C255 C160 1.784 . S
C257 C61 1.730 1_545 S
C266 C97 2.107 . S
C268 C187 2.148 . S
C277 C32 1.733 1_545 S
C279 C189 1.788 . S
C288 C216 2.143 . S
C290 C68 2.104 . S
C299 C90 1.734 1_565 S
C301 C131 1.787 . S
C310 C158 2.145 . S
C312 C10 2.110 . S
C321 C119 1.727 . S
C323 C102 1.788 . S
C332 C13 2.150 . S
C334 C155 2.109 . S
C343 C44 1.786 . S
C345 C177 1.734 . S
C354 C213 2.110 . S
C356 C71 2.145 . S
C365 C148 1.734 . S
C367 C73 1.787 . S
C376 C184 2.103 . S
C378 C100 2.145 . S
C387 C206 1.727 . S
C389 C15 1.788 . S
C398 C42 2.143 . S
C400 C126 2.108 . S
C409 C21 0.565 . S
C411 C79 0.567 . S
C420 C108 0.585 . S
C422 C50 0.581 . S
C431 C137 0.577 . S
C433 C195 0.579 . S
C442 C166 0.573 . S
C444 C224 0.576 . S
C453 C5 1.831 . S
C455 C34 1.830 . S
C464 C37 0.847 . S
C466 C66 0.843 . S
C475 C92 1.831 . S
C477 C63 1.828 . S
C486 C8 0.839 . S
C488 C95 0.840 . S
C497 C150 1.828 . S
C499 C121 1.830 . S
C508 C182 0.830 . S
C510 C153 0.833 . S
C519 C179 1.824 . S
C521 C208 1.828 . S
C530 C124 0.834 . S
C532 C211 0.836 . S
