# Generated by pormake.
# Topology zft, (5)-cn, num edge types: 1
# Building blocks:
#     Node 0, Type 0, BuildingBlock: BEQFEK_clean_sbu_0, # of connection points: 5
#     Node 1, Type 0, BuildingBlock: BEQFEK_clean_sbu_0, # of connection points: 5
#     Node 2, Type 0, BuildingBlock: BEQFEK_clean_sbu_0, # of connection points: 5
#     Node 3, Type 0, BuildingBlock: BEQFEK_clean_sbu_0, # of connection points: 5
#     Node 4, Type 0, BuildingBlock: BEQFEK_clean_sbu_0, # of connection points: 5
#     Node 5, Type 0, BuildingBlock: BEQFEK_clean_sbu_0, # of connection points: 5
#     Node 6, Type 0, BuildingBlock: BEQFEK_clean_sbu_0, # of connection points: 5
#     Node 7, Type 0, BuildingBlock: BEQFEK_clean_sbu_0, # of connection points: 5
#     Edge 8, Type (0, 0), None
#     Edge 9, Type (0, 0), None
#     Edge 10, Type (0, 0), None
#     Edge 11, Type (0, 0), None
#     Edge 12, Type (0, 0), None
#     Edge 13, Type (0, 0), None
#     Edge 14, Type (0, 0), None
#     Edge 15, Type (0, 0), None
#     Edge 16, Type (0, 0), None
#     Edge 17, Type (0, 0), None
#     Edge 18, Type (0, 0), None
#     Edge 19, Type (0, 0), None
#     Edge 20, Type (0, 0), None
#     Edge 21, Type (0, 0), None
#     Edge 22, Type (0, 0), None
#     Edge 23, Type (0, 0), None
#     Edge 24, Type (0, 0), None
#     Edge 25, Type (0, 0), None
#     Edge 26, Type (0, 0), None
#     Edge 27, Type (0, 0), None
# Relax obj value: 0.031
# Max RMSD: 0.117
# Mean RMSD: 0.117
data_MOF--net-zft--node1-BEQFEK_clean_sbu_0--edge1-none
_symmetry_space_group_name_H-M    P1
_symmetry_Int_Tables_number       1
_symmetry_cell_setting            triclinic
loop_
_symmetry_equiv_pos_as_xyz
'x, y, z'
_cell_length_a     14.857072
_cell_length_b     14.857282
_cell_length_c     26.501344
_cell_angle_alpha  89.999866
_cell_angle_beta   90.000146
_cell_angle_gamma 90.000801
loop_
_atom_site_label
_atom_site_type_symbol
_atom_site_fract_x
_atom_site_fract_y
_atom_site_fract_z
_atom_type_partial_charge
Co0 Co 0.99485 0.29321 0.18831 0.0
Co1 Co 0.17263 0.37793 0.14654 0.0
C2 C 0.9931 0.38663 0.09164 0.0
O3 O 0.94732 0.35063 0.12674 0.0
O4 O 0.0777 0.39701 0.09508 0.0
C5 C 0.81863 0.26452 0.23657 0.0
O6 O 0.79185 0.34419 0.22128 0.0
C7 C 0.25893 0.55021 0.12267 0.0
C8 C 0.39891 0.51134 0.106 0.0
C9 C 0.3421 0.58539 0.10934 0.0
N10 N 0.26658 0.46002 0.12744 0.0
N11 N 0.3505 0.43726 0.11716 0.0
C12 C 0.17345 0.60136 0.13085 0.0
H13 H 0.15398 0.63569 0.09529 0.0
H14 H 0.1184 0.55579 0.14301 0.0
H15 H 0.18412 0.65407 0.15992 0.0
C16 C 0.04758 0.39825 0.27901 0.0
N17 N 0.05841 0.37339 0.23039 0.0
N18 N 0.13433 0.40721 0.21319 0.0
C19 C 0.17436 0.45416 0.25051 0.0
C20 C 0.1204 0.4504 0.29299 0.0
C21 C 0.97112 0.36992 0.31207 0.0
H22 H 0.96582 0.29547 0.31207 0.0
H23 H 0.90756 0.398 0.29684 0.0
H24 H 0.98019 0.39398 0.3514 0.0
O25 O 0.07482 0.19239 0.16837 0.0
O26 O 0.20734 0.24624 0.14323 0.0
H27 H 0.31097 0.45309 0.22382 0.0
H28 H 0.29639 0.50316 0.28548 0.0
C29 C 0.26618 0.49537 0.24741 0.0
H30 H 0.26092 0.56312 0.23018 0.0
H31 H 0.37481 0.37138 0.11808 0.0
O32 O 0.89695 0.23609 0.22603 0.0
C33 C 0.15483 0.17991 0.15256 0.0
Co34 Co 0.23201 0.49484 0.43831 0.0
Co35 Co 0.1473 0.67261 0.39654 0.0
C36 C 0.13857 0.49308 0.34165 0.0
O37 O 0.17458 0.44731 0.37675 0.0
O38 O 0.12819 0.57769 0.34508 0.0
C39 C 0.2607 0.31862 0.48657 0.0
O40 O 0.18102 0.29184 0.47129 0.0
C41 C 0.97502 0.75893 0.37268 0.0
C42 C 0.0139 0.8989 0.35601 0.0
C43 C 0.93985 0.8421 0.35934 0.0
N44 N 0.06521 0.76657 0.37744 0.0
N45 N 0.08797 0.85049 0.36717 0.0
C46 C 0.92387 0.67345 0.38086 0.0
H47 H 0.88953 0.65397 0.34529 0.0
H48 H 0.96943 0.6184 0.39301 0.0
H49 H 0.87115 0.68412 0.40992 0.0
C50 C 0.12698 0.54758 0.52902 0.0
N51 N 0.15184 0.55841 0.48039 0.0
N52 N 0.11802 0.63432 0.46319 0.0
C53 C 0.07108 0.67436 0.50051 0.0
C54 C 0.07483 0.6204 0.54299 0.0
C55 C 0.1553 0.47111 0.56207 0.0
H56 H 0.22976 0.46581 0.56207 0.0
H57 H 0.12722 0.40756 0.54684 0.0
H58 H 0.13125 0.48019 0.6014 0.0
O59 O 0.33284 0.5748 0.41837 0.0
O60 O 0.27898 0.70732 0.39323 0.0
H61 H 0.07215 0.81096 0.47382 0.0
H62 H 0.02208 0.79639 0.53548 0.0
C63 C 0.02987 0.76618 0.49741 0.0
H64 H 0.96211 0.76091 0.48018 0.0
H65 H 0.15386 0.8748 0.36808 0.0
O66 O 0.28913 0.39694 0.47603 0.0
C67 C 0.34532 0.65481 0.40256 0.0
Co68 Co 0.03039 0.73202 0.68831 0.0
Co69 Co 0.85261 0.64729 0.64654 0.0
C70 C 0.03215 0.63856 0.59165 0.0
O71 O 0.07792 0.67458 0.62675 0.0
O72 O 0.94754 0.62819 0.59508 0.0
C73 C 0.2066 0.7607 0.73657 0.0
O74 O 0.23338 0.68103 0.72128 0.0
C75 C 0.7663 0.47501 0.62267 0.0
C76 C 0.62633 0.51388 0.606 0.0
C77 C 0.68313 0.43983 0.60933 0.0
N78 N 0.75865 0.5652 0.62744 0.0
N79 N 0.67473 0.58796 0.61716 0.0
C80 C 0.85179 0.42386 0.63085 0.0
H81 H 0.87127 0.38954 0.59529 0.0
H82 H 0.90683 0.46943 0.64301 0.0
H83 H 0.84111 0.37115 0.65992 0.0
C84 C 0.97764 0.62698 0.77901 0.0
N85 N 0.96682 0.65184 0.73039 0.0
N86 N 0.8909 0.61802 0.71318 0.0
C87 C 0.85087 0.57107 0.75051 0.0
C88 C 0.90482 0.57484 0.79298 0.0
C89 C 0.05411 0.65531 0.81207 0.0
H90 H 0.05941 0.72977 0.81206 0.0
H91 H 0.11766 0.62723 0.79684 0.0
H92 H 0.04503 0.63126 0.8514 0.0
O93 O 0.95042 0.83284 0.66836 0.0
O94 O 0.81791 0.77898 0.64322 0.0
H95 H 0.71426 0.57214 0.72381 0.0
H96 H 0.72884 0.52206 0.78547 0.0
C97 C 0.75905 0.52986 0.7474 0.0
H98 H 0.76432 0.4621 0.73018 0.0
H99 H 0.65043 0.65385 0.61807 0.0
O100 O 0.12829 0.78914 0.72603 0.0
C101 C 0.87042 0.84532 0.65255 0.0
Co102 Co 0.79322 0.53038 0.93831 0.0
Co103 Co 0.87794 0.35261 0.89654 0.0
C104 C 0.88666 0.53215 0.84165 0.0
O105 O 0.85065 0.57792 0.87675 0.0
O106 O 0.89704 0.44754 0.84508 0.0
C107 C 0.76453 0.70659 0.98657 0.0
O108 O 0.84421 0.73337 0.97129 0.0
C109 C 0.05022 0.2663 0.87266 0.0
C110 C 1.01134 0.12633 0.85599 0.0
C111 C 0.08539 0.18313 0.85933 0.0
N112 N 0.96002 0.25866 0.87743 0.0
N113 N 0.93726 0.17473 0.86715 0.0
C114 C 0.10137 0.35178 0.88085 0.0
H115 H 0.13571 0.37126 0.84529 0.0
H116 H 0.05581 0.40683 0.893 0.0
H117 H 0.15408 0.3411 0.90991 0.0
C118 C 0.89827 0.47763 0.02901 0.0
N119 N 0.8734 0.46681 0.98039 0.0
N120 N 0.90722 0.3909 0.96318 0.0
C121 C 0.95417 0.35085 1.0005 0.0
C122 C 0.95041 0.4048 0.04298 0.0
C123 C 0.86994 0.55409 0.06207 0.0
H124 H 0.79548 0.55939 0.06207 0.0
H125 H 0.89802 0.61765 0.04684 0.0
H126 H 0.894 0.54501 0.1014 0.0
O127 O 0.6924 0.45041 0.91836 0.0
O128 O 0.74625 0.3179 0.89322 0.0
H129 H 0.95308 0.21426 0.9738 0.0
H130 H 1.00316 0.22882 0.03546 0.0
C131 C 0.99537 0.25903 0.99739 0.0
H132 H 0.06313 0.2643 0.98017 0.0
H133 H 0.87137 0.15043 0.86806 0.0
O134 O 0.7361 0.62828 0.97604 0.0
C135 C 0.67992 0.37041 0.90255 0.0
Co136 Co 0.49486 0.232 0.56522 0.0
Co137 Co 0.67264 0.14729 0.60699 0.0
C138 C 0.49311 0.13859 0.66189 0.0
O139 O 0.44733 0.17458 0.62679 0.0
O140 O 0.57772 0.12821 0.65845 0.0
C141 C 0.31864 0.26069 0.51697 0.0
O142 O 0.29186 0.18101 0.53225 0.0
C143 C 0.75895 0.97501 0.63085 0.0
C144 C 0.89893 0.01389 0.64752 0.0
C145 C 0.84213 0.93984 0.64418 0.0
N146 N 0.76659 0.06521 0.62609 0.0
N147 N 0.85052 0.08796 0.63636 0.0
C148 C 0.67346 0.92386 0.62268 0.0
H149 H 0.654 0.88953 0.65824 0.0
H150 H 0.61842 0.96943 0.61053 0.0
H151 H 0.68413 0.87116 0.59361 0.0
C152 C 0.54759 0.12696 0.47452 0.0
N153 N 0.55842 0.15182 0.52314 0.0
N154 N 0.63434 0.11801 0.54035 0.0
C155 C 0.67437 0.07106 0.50302 0.0
C156 C 0.62041 0.07481 0.46055 0.0
C157 C 0.47112 0.15528 0.44147 0.0
H158 H 0.46582 0.22973 0.44147 0.0
H159 H 0.40757 0.1272 0.4567 0.0
H160 H 0.48019 0.13122 0.40213 0.0
O161 O 0.57483 0.33283 0.58516 0.0
O162 O 0.70735 0.27898 0.6103 0.0
H163 H 0.81098 0.07214 0.52971 0.0
H164 H 0.79641 0.02207 0.46806 0.0
C165 C 0.7662 0.02986 0.50613 0.0
H166 H 0.76094 0.9621 0.52335 0.0
H167 H 0.87482 0.15385 0.63545 0.0
O168 O 0.39696 0.28912 0.5275 0.0
C169 C 0.65484 0.34531 0.60097 0.0
Co170 Co 0.29322 0.99486 0.81522 0.0
Co171 Co 0.37794 0.17263 0.85699 0.0
C172 C 0.38663 0.9931 0.91189 0.0
O173 O 0.35064 0.94733 0.87679 0.0
O174 O 0.39702 0.07771 0.90846 0.0
C175 C 0.26454 0.81864 0.76696 0.0
O176 O 0.34422 0.79187 0.78225 0.0
C177 C 0.55022 0.25894 0.88086 0.0
C178 C 0.51134 0.39892 0.89753 0.0
C179 C 0.5854 0.34212 0.89418 0.0
N180 N 0.46002 0.26659 0.8761 0.0
N181 N 0.43726 0.35051 0.88637 0.0
C182 C 0.60137 0.17346 0.87268 0.0
H183 H 0.6357 0.154 0.90824 0.0
H184 H 0.5558 0.11841 0.86053 0.0
H185 H 0.65407 0.18413 0.84361 0.0
C186 C 0.39828 0.0476 0.72452 0.0
N187 N 0.37341 0.05842 0.77315 0.0
N188 N 0.40723 0.13434 0.79035 0.0
C189 C 0.45418 0.17437 0.75303 0.0
C190 C 0.45043 0.12042 0.71056 0.0
C191 C 0.36995 0.97113 0.69146 0.0
H192 H 0.2955 0.96583 0.69147 0.0
H193 H 0.39803 0.90758 0.70669 0.0
H194 H 0.39401 0.98021 0.65213 0.0
O195 O 0.1924 0.07483 0.83516 0.0
O196 O 0.24625 0.20734 0.8603 0.0
H197 H 0.45309 0.31098 0.77972 0.0
H198 H 0.50316 0.29641 0.71807 0.0
C199 C 0.49538 0.2662 0.75614 0.0
H200 H 0.56313 0.26095 0.77336 0.0
H201 H 0.37137 0.37481 0.88546 0.0
O202 O 0.23611 0.89696 0.7775 0.0
C203 C 0.17991 0.15484 0.85097 0.0
Co204 Co 0.53038 0.79322 0.06522 0.0
Co205 Co 0.3526 0.87793 0.107 0.0
C206 C 0.53213 0.88662 0.16189 0.0
O207 O 0.57791 0.85063 0.12679 0.0
O208 O 0.44753 0.89701 0.15846 0.0
C209 C 0.70659 0.76453 0.01697 0.0
O210 O 0.73337 0.84421 0.03225 0.0
C211 C 0.26629 0.05021 0.13087 0.0
C212 C 0.12632 1.01134 0.14754 0.0
C213 C 0.18312 0.08539 0.14419 0.0
N214 N 0.25865 0.96002 0.1261 0.0
N215 N 0.17472 0.93726 0.13638 0.0
C216 C 0.35178 0.10136 0.12269 0.0
H217 H 0.37125 0.1357 0.15825 0.0
H218 H 0.40683 0.0558 0.11053 0.0
H219 H 0.34111 0.15406 0.09362 0.0
C220 C 0.47763 0.89827 0.97452 0.0
N221 N 0.46681 0.8734 0.02315 0.0
N222 N 0.39089 0.90722 0.04036 0.0
C223 C 0.35085 0.95416 0.00303 0.0
C224 C 0.40481 0.95042 0.96056 0.0
C225 C 0.55409 0.86995 0.94147 0.0
H226 H 0.55939 0.79549 0.94146 0.0
H227 H 0.61765 0.89802 0.9567 0.0
H228 H 0.54502 0.89402 0.90213 0.0
O229 O 0.4504 0.69239 0.08516 0.0
O230 O 0.31789 0.74624 0.11031 0.0
H231 H 0.21425 0.95308 0.02973 0.0
H232 H 0.22881 1.00315 0.96807 0.0
C233 C 0.25903 0.99536 0.00614 0.0
H234 H 0.26428 0.06312 0.02336 0.0
H235 H 0.15042 0.87137 0.13547 0.0
O236 O 0.62827 0.7361 0.0275 0.0
C237 C 0.3704 0.67991 0.10097 0.0
Co238 Co 0.73202 0.03037 0.31523 0.0
Co239 Co 0.6473 0.85259 0.357 0.0
C240 C 0.63857 0.03212 0.41189 0.0
O241 O 0.67459 0.0779 0.37679 0.0
O242 O 0.6282 0.94752 0.40846 0.0
C243 C 0.7607 0.20658 0.26696 0.0
O244 O 0.68101 0.23335 0.28225 0.0
C245 C 0.47502 0.76628 0.38086 0.0
C246 C 0.51389 0.6263 0.39753 0.0
C247 C 0.43984 0.6831 0.39419 0.0
N248 N 0.56521 0.75863 0.3761 0.0
N249 N 0.58797 0.67471 0.38638 0.0
C250 C 0.42387 0.85176 0.37268 0.0
H251 H 0.38954 0.87123 0.40825 0.0
H252 H 0.46943 0.90681 0.36053 0.0
H253 H 0.37116 0.84109 0.34362 0.0
C254 C 0.62697 0.97762 0.22452 0.0
N255 N 0.65184 0.96679 0.27315 0.0
N256 N 0.61802 0.89088 0.29035 0.0
C257 C 0.57107 0.85084 0.25303 0.0
C258 C 0.57483 0.90479 0.21056 0.0
C259 C 0.6553 0.05408 0.19146 0.0
H260 H 0.72975 0.05938 0.19147 0.0
H261 H 0.62722 0.11763 0.20669 0.0
H262 H 0.63124 0.045 0.15213 0.0
O263 O 0.83284 0.9504 0.33517 0.0
O264 O 0.77899 0.81789 0.36031 0.0
H265 H 0.57215 0.71424 0.27973 0.0
H266 H 0.52208 0.72881 0.21807 0.0
C267 C 0.52987 0.75902 0.25614 0.0
H268 H 0.46211 0.76428 0.27336 0.0
H269 H 0.65386 0.65041 0.38547 0.0
O270 O 0.78913 0.12826 0.2775 0.0
C271 C 0.84532 0.87039 0.35098 0.0
loop_
_geom_bond_atom_site_label_1
_geom_bond_atom_site_label_2
_geom_bond_distance
_geom_bond_site_symmetry_2
_ccdc_geom_bond_type
Co0 O3 1.970 1_455 S
Co0 N17 1.989 . S
Co0 O25 1.967 . S
Co0 O32 1.920 1_455 S
Co1 O4 1.966 . S
Co1 N10 2.022 . S
Co1 N18 1.993 . S
Co1 O26 1.941 . S
C2 O3 1.258 . S
C2 O4 1.263 1_655 S
O3 Co0 1.970 1_655 S
O3 C2 1.258 . S
O4 Co1 1.966 . S
O4 C2 1.263 1_455 S
C5 O6 1.235 . S
C5 O32 1.289 . S
O6 C5 1.235 . S
C7 C9 1.400 . S
C7 N10 1.351 . S
C7 C12 1.501 . S
C8 C9 1.387 . S
C8 N11 1.341 . S
C9 C7 1.400 . S
C9 C8 1.387 . S
N10 Co1 2.022 . S
N10 C7 1.351 . S
N10 N11 1.365 . S
N11 C8 1.341 . S
N11 N10 1.365 . S
N11 H31 0.862 . S
C12 C7 1.501 . S
C12 H13 0.961 . S
C12 H14 0.961 . S
C12 H15 0.960 . S
H13 C12 0.961 . S
H14 C12 0.961 . S
H15 C12 0.960 . S
C16 N17 1.342 . S
C16 C20 1.401 . S
C16 C21 1.499 1_455 S
N17 Co0 1.989 . S
N17 C16 1.342 . S
N17 N18 1.388 . S
N18 Co1 1.993 . S
N18 N17 1.388 . S
N18 C19 1.346 . S
C19 N18 1.346 . S
C19 C20 1.396 . S
C19 C29 1.510 . S
C20 C16 1.401 . S
C20 C19 1.396 . S
C21 C16 1.499 1_655 S
C21 H22 0.959 . S
C21 H23 0.960 . S
C21 H24 0.961 1_655 S
H22 C21 0.959 . S
H23 C21 0.960 . S
H24 C21 0.961 1_455 S
O25 Co0 1.967 . S
O25 C33 1.258 . S
O26 Co1 1.941 . S
O26 C33 1.266 . S
H27 C29 0.959 . S
H28 C29 0.961 . S
C29 C19 1.510 . S
C29 H27 0.959 . S
C29 H28 0.961 . S
C29 H30 0.960 . S
H30 C29 0.960 . S
H31 N11 0.862 . S
O32 Co0 1.920 1_655 S
O32 C5 1.289 . S
C33 O25 1.258 . S
C33 O26 1.266 . S
Co34 O37 1.970 . S
Co34 N51 1.989 . S
Co34 O59 1.967 . S
Co34 O66 1.920 . S
Co35 O38 1.966 . S
Co35 N44 2.022 1_455 S
Co35 N52 1.993 . S
Co35 O60 1.941 . S
C36 O37 1.258 . S
C36 O38 1.263 . S
O37 Co34 1.970 . S
O37 C36 1.258 . S
O38 Co35 1.966 . S
O38 C36 1.263 . S
C39 O40 1.235 . S
C39 O66 1.289 . S
O40 C39 1.235 . S
C41 C43 1.400 . S
C41 N44 1.351 . S
C41 C46 1.501 . S
C42 C43 1.387 . S
C42 N45 1.341 . S
C43 C41 1.400 . S
C43 C42 1.387 . S
N44 Co35 2.022 1_655 S
N44 C41 1.351 . S
N44 N45 1.365 . S
N45 C42 1.341 . S
N45 N44 1.365 . S
N45 H65 0.862 1_655 S
C46 C41 1.501 . S
C46 H47 0.961 . S
C46 H48 0.961 . S
C46 H49 0.960 . S
H47 C46 0.961 . S
H48 C46 0.961 . S
H49 C46 0.960 . S
C50 N51 1.342 . S
C50 C54 1.401 . S
C50 C55 1.499 . S
N51 Co34 1.989 . S
N51 C50 1.342 . S
N51 N52 1.388 . S
N52 Co35 1.993 . S
N52 N51 1.388 . S
N52 C53 1.346 . S
C53 N52 1.346 . S
C53 C54 1.396 . S
C53 C63 1.510 1_455 S
C54 C50 1.401 . S
C54 C53 1.396 . S
C55 C50 1.499 . S
C55 H56 0.959 . S
C55 H57 0.960 . S
C55 H58 0.961 . S
H56 C55 0.959 . S
H57 C55 0.960 . S
H58 C55 0.961 . S
O59 Co34 1.967 . S
O59 C67 1.258 . S
O60 Co35 1.941 . S
O60 C67 1.266 . S
H61 C63 0.959 . S
H62 C63 0.961 . S
C63 C53 1.510 1_655 S
C63 H61 0.959 . S
C63 H62 0.961 . S
C63 H64 0.960 . S
H64 C63 0.960 . S
H65 N45 0.862 1_455 S
O66 Co34 1.920 . S
O66 C39 1.289 . S
C67 O59 1.258 . S
C67 O60 1.266 . S
Co68 O71 1.970 1_655 S
Co68 N85 1.989 . S
Co68 O93 1.967 . S
Co68 O100 1.920 1_655 S
Co69 O72 1.966 . S
Co69 N78 2.022 . S
Co69 N86 1.993 . S
Co69 O94 1.941 . S
C70 O71 1.258 . S
C70 O72 1.263 1_455 S
O71 Co68 1.970 1_455 S
O71 C70 1.258 . S
O72 Co69 1.966 . S
O72 C70 1.263 1_655 S
C73 O74 1.235 . S
C73 O100 1.289 . S
O74 C73 1.235 . S
C75 C77 1.400 . S
C75 N78 1.351 . S
C75 C80 1.501 . S
C76 C77 1.387 . S
C76 N79 1.341 . S
C77 C75 1.400 . S
C77 C76 1.387 . S
N78 Co69 2.022 . S
N78 C75 1.351 . S
N78 N79 1.365 . S
N79 C76 1.341 . S
N79 N78 1.365 . S
N79 H99 0.862 . S
C80 C75 1.501 . S
C80 H81 0.961 . S
C80 H82 0.961 . S
C80 H83 0.960 . S
H81 C80 0.961 . S
H82 C80 0.961 . S
H83 C80 0.960 . S
C84 N85 1.342 . S
C84 C88 1.401 . S
C84 C89 1.499 1_655 S
N85 Co68 1.989 . S
N85 C84 1.342 . S
N85 N86 1.388 . S
N86 Co69 1.993 . S
N86 N85 1.388 . S
N86 C87 1.346 . S
C87 N86 1.346 . S
C87 C88 1.396 . S
C87 C97 1.510 . S
C88 C84 1.401 . S
C88 C87 1.396 . S
C89 C84 1.499 1_455 S
C89 H90 0.959 . S
C89 H91 0.960 . S
C89 H92 0.961 1_455 S
H90 C89 0.959 . S
H91 C89 0.960 . S
H92 C89 0.961 1_655 S
O93 Co68 1.967 . S
O93 C101 1.258 . S
O94 Co69 1.941 . S
O94 C101 1.266 . S
H95 C97 0.959 . S
H96 C97 0.961 . S
C97 C87 1.510 . S
C97 H95 0.959 . S
C97 H96 0.961 . S
C97 H98 0.960 . S
H98 C97 0.960 . S
H99 N79 0.862 . S
O100 Co68 1.920 1_455 S
O100 C73 1.289 . S
C101 O93 1.258 . S
C101 O94 1.266 . S
Co102 O105 1.970 . S
Co102 N119 1.989 . S
Co102 O127 1.967 . S
Co102 O134 1.920 . S
Co103 O106 1.966 . S
Co103 N112 2.022 1_655 S
Co103 N120 1.993 . S
Co103 O128 1.941 . S
C104 O105 1.258 . S
C104 O106 1.263 . S
O105 Co102 1.970 . S
O105 C104 1.258 . S
O106 Co103 1.966 . S
O106 C104 1.263 . S
C107 O108 1.235 . S
C107 O134 1.289 . S
O108 C107 1.235 . S
C109 C111 1.400 . S
C109 N112 1.351 . S
C109 C114 1.501 . S
C110 C111 1.387 . S
C110 N113 1.341 . S
C111 C109 1.400 . S
C111 C110 1.387 . S
N112 Co103 2.022 1_455 S
N112 C109 1.351 . S
N112 N113 1.365 . S
N113 C110 1.341 . S
N113 N112 1.365 . S
N113 H133 0.862 1_455 S
C114 C109 1.501 . S
C114 H115 0.961 . S
C114 H116 0.961 . S
C114 H117 0.960 . S
H115 C114 0.961 . S
H116 C114 0.961 . S
H117 C114 0.960 . S
C118 N119 1.342 1_554 S
C118 C122 1.401 . S
C118 C123 1.499 . S
N119 Co102 1.989 . S
N119 C118 1.342 1_556 S
N119 N120 1.388 . S
N120 Co103 1.993 . S
N120 N119 1.388 . S
N120 C121 1.346 1_556 S
C121 N120 1.346 1_554 S
C121 C122 1.396 . S
C121 C131 1.510 1_655 S
C122 C118 1.401 . S
C122 C121 1.396 . S
C123 C118 1.499 . S
C123 H124 0.959 . S
C123 H125 0.960 . S
C123 H126 0.961 . S
H124 C123 0.959 . S
H125 C123 0.960 . S
H126 C123 0.961 . S
O127 Co102 1.967 . S
O127 C135 1.258 . S
O128 Co103 1.941 . S
O128 C135 1.266 . S
H129 C131 0.959 . S
H130 C131 0.961 . S
C131 C121 1.510 1_455 S
C131 H129 0.959 . S
C131 H130 0.961 . S
C131 H132 0.960 1_554 S
H132 C131 0.960 1_556 S
H133 N113 0.862 1_655 S
O134 Co102 1.920 . S
O134 C107 1.289 . S
C135 O127 1.258 . S
C135 O128 1.266 . S
Co136 O139 1.970 . S
Co136 N153 1.989 . S
Co136 O161 1.967 . S
Co136 O168 1.920 . S
Co137 O140 1.966 . S
Co137 N146 2.022 1_545 S
Co137 N154 1.993 . S
Co137 O162 1.941 . S
C138 O139 1.258 . S
C138 O140 1.263 . S
O139 Co136 1.970 . S
O139 C138 1.258 . S
O140 Co137 1.966 . S
O140 C138 1.263 . S
C141 O142 1.235 . S
C141 O168 1.289 . S
O142 C141 1.235 . S
C143 C145 1.400 . S
C143 N146 1.351 . S
C143 C148 1.501 . S
C144 C145 1.387 . S
C144 N147 1.341 . S
C145 C143 1.400 . S
C145 C144 1.387 . S
N146 Co137 2.022 1_565 S
N146 C143 1.351 . S
N146 N147 1.365 . S
N147 C144 1.341 . S
N147 N146 1.365 . S
N147 H167 0.862 1_565 S
C148 C143 1.501 . S
C148 H149 0.961 . S
C148 H150 0.961 . S
C148 H151 0.960 . S
H149 C148 0.961 . S
H150 C148 0.961 . S
H151 C148 0.960 . S
C152 N153 1.342 . S
C152 C156 1.401 . S
C152 C157 1.499 . S
N153 Co136 1.989 . S
N153 C152 1.342 . S
N153 N154 1.388 . S
N154 Co137 1.993 . S
N154 N153 1.388 . S
N154 C155 1.346 . S
C155 N154 1.346 . S
C155 C156 1.396 . S
C155 C165 1.510 1_545 S
C156 C152 1.401 . S
C156 C155 1.396 . S
C157 C152 1.499 . S
C157 H158 0.959 . S
C157 H159 0.960 . S
C157 H160 0.961 . S
H158 C157 0.959 . S
H159 C157 0.960 . S
H160 C157 0.961 . S
O161 Co136 1.967 . S
O161 C169 1.258 . S
O162 Co137 1.941 . S
O162 C169 1.266 . S
H163 C165 0.959 . S
H164 C165 0.961 . S
C165 C155 1.510 1_565 S
C165 H163 0.959 . S
C165 H164 0.961 . S
C165 H166 0.960 . S
H166 C165 0.960 . S
H167 N147 0.862 1_545 S
O168 Co136 1.920 . S
O168 C141 1.289 . S
C169 O161 1.258 . S
C169 O162 1.266 . S
Co170 O173 1.970 1_545 S
Co170 N187 1.989 . S
Co170 O195 1.967 . S
Co170 O202 1.920 1_545 S
Co171 O174 1.966 . S
Co171 N180 2.022 . S
Co171 N188 1.993 . S
Co171 O196 1.941 . S
C172 O173 1.258 . S
C172 O174 1.263 1_565 S
O173 Co170 1.970 1_565 S
O173 C172 1.258 . S
O174 Co171 1.966 . S
O174 C172 1.263 1_545 S
C175 O176 1.235 . S
C175 O202 1.289 . S
O176 C175 1.235 . S
C177 C179 1.400 . S
C177 N180 1.351 . S
C177 C182 1.501 . S
C178 C179 1.387 . S
C178 N181 1.341 . S
C179 C177 1.400 . S
C179 C178 1.387 . S
N180 Co171 2.022 . S
N180 C177 1.351 . S
N180 N181 1.365 . S
N181 C178 1.341 . S
N181 N180 1.365 . S
N181 H201 0.862 . S
C182 C177 1.501 . S
C182 H183 0.961 . S
C182 H184 0.961 . S
C182 H185 0.960 . S
H183 C182 0.961 . S
H184 C182 0.961 . S
H185 C182 0.960 . S
C186 N187 1.342 . S
C186 C190 1.401 . S
C186 C191 1.499 1_545 S
N187 Co170 1.989 . S
N187 C186 1.342 . S
N187 N188 1.388 . S
N188 Co171 1.993 . S
N188 N187 1.388 . S
N188 C189 1.346 . S
C189 N188 1.346 . S
C189 C190 1.396 . S
C189 C199 1.510 . S
C190 C186 1.401 . S
C190 C189 1.396 . S
C191 C186 1.499 1_565 S
C191 H192 0.959 . S
C191 H193 0.960 . S
C191 H194 0.961 1_565 S
H192 C191 0.959 . S
H193 C191 0.960 . S
H194 C191 0.961 1_545 S
O195 Co170 1.967 . S
O195 C203 1.258 . S
O196 Co171 1.941 . S
O196 C203 1.266 . S
H197 C199 0.959 . S
H198 C199 0.961 . S
C199 C189 1.510 . S
C199 H197 0.959 . S
C199 H198 0.961 . S
C199 H200 0.960 . S
H200 C199 0.960 . S
H201 N181 0.862 . S
O202 Co170 1.920 1_565 S
O202 C175 1.289 . S
C203 O195 1.258 . S
C203 O196 1.266 . S
Co204 O207 1.970 . S
Co204 N221 1.989 . S
Co204 O229 1.967 . S
Co204 O236 1.920 . S
Co205 O208 1.966 . S
Co205 N214 2.022 1_565 S
Co205 N222 1.993 . S
Co205 O230 1.941 . S
C206 O207 1.258 . S
C206 O208 1.263 . S
O207 Co204 1.970 . S
O207 C206 1.258 . S
O208 Co205 1.966 . S
O208 C206 1.263 . S
C209 O210 1.235 . S
C209 O236 1.289 . S
O210 C209 1.235 . S
C211 C213 1.400 . S
C211 N214 1.351 . S
C211 C216 1.501 . S
C212 C213 1.387 . S
C212 N215 1.341 . S
C213 C211 1.400 . S
C213 C212 1.387 . S
N214 Co205 2.022 1_545 S
N214 C211 1.351 . S
N214 N215 1.365 . S
N215 C212 1.341 . S
N215 N214 1.365 . S
N215 H235 0.862 1_545 S
C216 C211 1.501 . S
C216 H217 0.961 . S
C216 H218 0.961 . S
C216 H219 0.960 . S
H217 C216 0.961 . S
H218 C216 0.961 . S
H219 C216 0.960 . S
C220 N221 1.342 1_556 S
C220 C224 1.401 . S
C220 C225 1.499 . S
N221 Co204 1.989 . S
N221 C220 1.342 1_554 S
N221 N222 1.388 . S
N222 Co205 1.993 . S
N222 N221 1.388 . S
N222 C223 1.346 1_554 S
C223 N222 1.346 1_556 S
C223 C224 1.396 . S
C223 C233 1.510 1_565 S
C224 C220 1.401 . S
C224 C223 1.396 . S
C225 C220 1.499 . S
C225 H226 0.959 . S
C225 H227 0.960 . S
C225 H228 0.961 . S
H226 C225 0.959 . S
H227 C225 0.960 . S
H228 C225 0.961 . S
O229 Co204 1.967 . S
O229 C237 1.258 . S
O230 Co205 1.941 . S
O230 C237 1.266 . S
H231 C233 0.959 . S
H232 C233 0.961 . S
C233 C223 1.510 1_545 S
C233 H231 0.959 . S
C233 H232 0.961 . S
C233 H234 0.960 1_556 S
H234 C233 0.960 1_554 S
H235 N215 0.862 1_565 S
O236 Co204 1.920 . S
O236 C209 1.289 . S
C237 O229 1.258 . S
C237 O230 1.266 . S
Co238 O241 1.970 1_565 S
Co238 N255 1.989 . S
Co238 O263 1.967 . S
Co238 O270 1.920 1_565 S
Co239 O242 1.966 . S
Co239 N248 2.022 . S
Co239 N256 1.993 . S
Co239 O264 1.941 . S
C240 O241 1.258 . S
C240 O242 1.263 1_545 S
O241 Co238 1.970 1_545 S
O241 C240 1.258 . S
O242 Co239 1.966 . S
O242 C240 1.263 1_565 S
C243 O244 1.235 . S
C243 O270 1.289 . S
O244 C243 1.235 . S
C245 C247 1.400 . S
C245 N248 1.351 . S
C245 C250 1.501 . S
C246 C247 1.387 . S
C246 N249 1.341 . S
C247 C245 1.400 . S
C247 C246 1.387 . S
N248 Co239 2.022 . S
N248 C245 1.351 . S
N248 N249 1.365 . S
N249 C246 1.341 . S
N249 N248 1.365 . S
N249 H269 0.862 . S
C250 C245 1.501 . S
C250 H251 0.961 . S
C250 H252 0.961 . S
C250 H253 0.960 . S
H251 C250 0.961 . S
H252 C250 0.961 . S
H253 C250 0.960 . S
C254 N255 1.342 . S
C254 C258 1.401 . S
C254 C259 1.499 1_565 S
N255 Co238 1.989 . S
N255 C254 1.342 . S
N255 N256 1.388 . S
N256 Co239 1.993 . S
N256 N255 1.388 . S
N256 C257 1.346 . S
C257 N256 1.346 . S
C257 C258 1.396 . S
C257 C267 1.510 . S
C258 C254 1.401 . S
C258 C257 1.396 . S
C259 C254 1.499 1_545 S
C259 H260 0.959 . S
C259 H261 0.960 . S
C259 H262 0.961 1_545 S
H260 C259 0.959 . S
H261 C259 0.960 . S
H262 C259 0.961 1_565 S
O263 Co238 1.967 . S
O263 C271 1.258 . S
O264 Co239 1.941 . S
O264 C271 1.266 . S
H265 C267 0.959 . S
H266 C267 0.961 . S
C267 C257 1.510 . S
C267 H265 0.959 . S
C267 H266 0.961 . S
C267 H268 0.960 . S
H268 C267 0.960 . S
H269 N249 0.862 . S
O270 Co238 1.920 1_545 S
O270 C243 1.289 . S
C271 O263 1.258 . S
C271 O264 1.266 . S
C20 C36 1.389 . S
C70 C54 1.389 . S
C104 C88 1.389 . S
C122 C2 1.389 . S
C156 C240 1.389 . S
C190 C138 1.389 . S
C224 C172 1.389 . S
C258 C206 1.389 . S
C213 C33 1.387 . S
C247 C67 1.387 . S
C145 C101 1.387 . S
C179 C135 1.387 . S
C169 C77 1.386 . S
C203 C111 1.387 . S
C237 C9 1.387 . S
C271 C43 1.387 . S
C243 C5 1.645 . S
C141 C39 1.645 . S
C73 C175 1.645 . S
C107 C209 1.645 1_556 S
