# Generated by pormake.
# Topology lcy-e, (6)-cn, num edge types: 1
# Building blocks:
#     Node 0, Type 0, BuildingBlock: JUFBIX_clean_sbu_0, # of connection points: 6
#     Node 1, Type 0, BuildingBlock: JUFBIX_clean_sbu_0, # of connection points: 6
#     Node 2, Type 0, BuildingBlock: JUFBIX_clean_sbu_0, # of connection points: 6
#     Node 3, Type 0, BuildingBlock: JUFBIX_clean_sbu_0, # of connection points: 6
#     Node 4, Type 0, BuildingBlock: JUFBIX_clean_sbu_0, # of connection points: 6
#     Node 5, Type 0, BuildingBlock: JUFBIX_clean_sbu_0, # of connection points: 6
#     Node 6, Type 0, BuildingBlock: JUFBIX_clean_sbu_0, # of connection points: 6
#     Node 7, Type 0, BuildingBlock: JUFBIX_clean_sbu_0, # of connection points: 6
#     Node 8, Type 0, BuildingBlock: JUFBIX_clean_sbu_0, # of connection points: 6
#     Node 9, Type 0, BuildingBlock: JUFBIX_clean_sbu_0, # of connection points: 6
#     Node 10, Type 0, BuildingBlock: JUFBIX_clean_sbu_0, # of connection points: 6
#     Node 11, Type 0, BuildingBlock: JUFBIX_clean_sbu_0, # of connection points: 6
#     Edge 12, Type (0, 0), BuildingBlock: OJICUG_clean_linker_0, # of connection points: 2
#     Edge 13, Type (0, 0), BuildingBlock: OJICUG_clean_linker_0, # of connection points: 2
#     Edge 14, Type (0, 0), BuildingBlock: OJICUG_clean_linker_0, # of connection points: 2
#     Edge 15, Type (0, 0), BuildingBlock: OJICUG_clean_linker_0, # of connection points: 2
#     Edge 16, Type (0, 0), BuildingBlock: OJICUG_clean_linker_0, # of connection points: 2
#     Edge 17, Type (0, 0), BuildingBlock: OJICUG_clean_linker_0, # of connection points: 2
#     Edge 18, Type (0, 0), BuildingBlock: OJICUG_clean_linker_0, # of connection points: 2
#     Edge 19, Type (0, 0), BuildingBlock: OJICUG_clean_linker_0, # of connection points: 2
#     Edge 20, Type (0, 0), BuildingBlock: OJICUG_clean_linker_0, # of connection points: 2
#     Edge 21, Type (0, 0), BuildingBlock: OJICUG_clean_linker_0, # of connection points: 2
#     Edge 22, Type (0, 0), BuildingBlock: OJICUG_clean_linker_0, # of connection points: 2
#     Edge 23, Type (0, 0), BuildingBlock: OJICUG_clean_linker_0, # of connection points: 2
#     Edge 24, Type (0, 0), BuildingBlock: OJICUG_clean_linker_0, # of connection points: 2
#     Edge 25, Type (0, 0), BuildingBlock: OJICUG_clean_linker_0, # of connection points: 2
#     Edge 26, Type (0, 0), BuildingBlock: OJICUG_clean_linker_0, # of connection points: 2
#     Edge 27, Type (0, 0), BuildingBlock: OJICUG_clean_linker_0, # of connection points: 2
#     Edge 28, Type (0, 0), BuildingBlock: OJICUG_clean_linker_0, # of connection points: 2
#     Edge 29, Type (0, 0), BuildingBlock: OJICUG_clean_linker_0, # of connection points: 2
#     Edge 30, Type (0, 0), BuildingBlock: OJICUG_clean_linker_0, # of connection points: 2
#     Edge 31, Type (0, 0), BuildingBlock: OJICUG_clean_linker_0, # of connection points: 2
#     Edge 32, Type (0, 0), BuildingBlock: OJICUG_clean_linker_0, # of connection points: 2
#     Edge 33, Type (0, 0), BuildingBlock: OJICUG_clean_linker_0, # of connection points: 2
#     Edge 34, Type (0, 0), BuildingBlock: OJICUG_clean_linker_0, # of connection points: 2
#     Edge 35, Type (0, 0), BuildingBlock: OJICUG_clean_linker_0, # of connection points: 2
#     Edge 36, Type (0, 0), BuildingBlock: OJICUG_clean_linker_0, # of connection points: 2
#     Edge 37, Type (0, 0), BuildingBlock: OJICUG_clean_linker_0, # of connection points: 2
#     Edge 38, Type (0, 0), BuildingBlock: OJICUG_clean_linker_0, # of connection points: 2
#     Edge 39, Type (0, 0), BuildingBlock: OJICUG_clean_linker_0, # of connection points: 2
#     Edge 40, Type (0, 0), BuildingBlock: OJICUG_clean_linker_0, # of connection points: 2
#     Edge 41, Type (0, 0), BuildingBlock: OJICUG_clean_linker_0, # of connection points: 2
#     Edge 42, Type (0, 0), BuildingBlock: OJICUG_clean_linker_0, # of connection points: 2
#     Edge 43, Type (0, 0), BuildingBlock: OJICUG_clean_linker_0, # of connection points: 2
#     Edge 44, Type (0, 0), BuildingBlock: OJICUG_clean_linker_0, # of connection points: 2
#     Edge 45, Type (0, 0), BuildingBlock: OJICUG_clean_linker_0, # of connection points: 2
#     Edge 46, Type (0, 0), BuildingBlock: OJICUG_clean_linker_0, # of connection points: 2
#     Edge 47, Type (0, 0), BuildingBlock: OJICUG_clean_linker_0, # of connection points: 2
# Relax obj value: 0.535
# Max RMSD: 0.363
# Mean RMSD: 0.291
data_MOF--net-lcy-e--node1-JUFBIX_clean_sbu_0--edge1-OJICUG_clean_linker_0
_symmetry_space_group_name_H-M    P1
_symmetry_Int_Tables_number       1
_symmetry_cell_setting            triclinic
loop_
_symmetry_equiv_pos_as_xyz
'x, y, z'
_cell_length_a     27.158853
_cell_length_b     29.331113
_cell_length_c     26.915785
_cell_angle_alpha  88.123583
_cell_angle_beta   89.877414
_cell_angle_gamma 81.629728
loop_
_atom_site_label
_atom_site_type_symbol
_atom_site_fract_x
_atom_site_fract_y
_atom_site_fract_z
_atom_type_partial_charge
Co0 Co 0.20482 0.23097 0.46343 0.0
C1 C 0.11036 0.23861 0.50442 0.0
Co2 Co 0.16502 0.17589 0.43799 0.0
C3 C 0.21728 0.32427 0.46968 0.0
C4 C 0.28498 0.28093 0.49012 0.0
N5 N 0.23689 0.27989 0.47878 0.0
N6 N 0.25123 0.35318 0.47339 0.0
C7 C 0.29392 0.32605 0.48693 0.0
H8 H 0.17898 0.33476 0.4585 0.0
H9 H 0.31236 0.25076 0.49716 0.0
C10 C 0.26371 0.16976 0.40232 0.0
N11 N 0.13144 0.12788 0.4191 0.0
C12 C 0.08217 0.12923 0.4101 0.0
C13 C 0.1521 0.08511 0.4068 0.0
N14 N 0.07152 0.08927 0.39203 0.0
C15 C 0.1155 0.06145 0.39001 0.0
C16 C 0.154 0.24856 0.37225 0.0
O17 O 0.26291 0.20354 0.43065 0.0
O18 O 0.22378 0.15179 0.39782 0.0
O19 O 0.13805 0.21073 0.38128 0.0
O20 O 0.18295 0.26293 0.40311 0.0
O21 O 0.1079 0.20137 0.48139 0.0
H22 H 0.19142 0.07212 0.40915 0.0
H23 H 0.05479 0.15941 0.4153 0.0
O24 O 0.14802 0.25878 0.49717 0.0
O25 O 0.22558 0.19802 0.5237 0.0
O26 O 0.19208 0.14089 0.49307 0.0
C27 C 0.21522 0.15706 0.52781 0.0
H28 H 0.32966 0.33747 0.49183 0.0
H29 H 0.12073 0.02629 0.37773 0.0
Co30 Co 0.05664 0.86784 0.71319 0.0
C31 C 0.98687 0.93205 0.75448 0.0
Co32 Co 0.07594 0.93734 0.69916 0.0
C33 C 0.08577 0.77433 0.73645 0.0
C34 C 1.00644 0.78746 0.73068 0.0
N35 N 0.04764 0.80714 0.72314 0.0
N36 N 0.07058 0.73583 0.75569 0.0
C37 C 0.02043 0.7436 0.75076 0.0
H38 H 0.12393 0.78081 0.73729 0.0
H39 H 0.96882 0.80536 0.72704 0.0
C40 C 0.13744 0.87258 0.65064 0.0
N41 N 0.08996 0.99721 0.69188 0.0
C42 C 0.12005 1.01377 0.65805 0.0
C43 C 0.08276 0.02967 0.72664 0.0
N44 N 0.13299 0.05457 0.67088 0.0
C45 C 0.10887 0.06509 0.71367 0.0
C46 C 0.12469 0.89244 0.78346 0.0
O47 O 0.11056 0.84732 0.67357 0.0
O48 O 0.13213 0.91533 0.6586 0.0
O49 O 0.1189 0.93003 0.75783 0.0
O50 O 0.09873 0.86167 0.77187 0.0
O51 O 0.01632 0.95901 0.73751 0.0
H52 H 0.06272 0.02639 0.76104 0.0
H53 H 0.13364 0.99543 0.62542 0.0
O54 O 0.99968 0.8888 0.75137 0.0
O55 O 0.01664 0.87365 0.6549 0.0
O56 O 0.0357 0.94325 0.63999 0.0
C57 C 1.01414 0.90965 0.62667 0.0
H58 H 0.99506 0.72187 0.76661 0.0
H59 H 0.11187 0.09499 0.73537 0.0
Co60 Co 0.33165 0.78013 1.0033 0.0
C61 C 0.4261 0.76295 0.04593 0.0
Co62 Co 0.38647 0.82177 0.9682 0.0
C63 C 0.30219 0.69331 0.0381 0.0
C64 C 0.23935 0.74647 0.03577 0.0
N65 N 0.28935 0.73973 0.03114 0.0
N66 N 0.26247 0.67084 0.04602 0.0
C67 C 0.22285 0.70445 0.04477 0.0
H68 H 0.33983 0.67584 0.0338 0.0
H69 H 0.216 0.77935 0.02989 0.0
C70 C 0.28701 0.83795 0.9273 0.0
N71 N 0.43199 0.85707 0.93563 0.0
C72 C 0.47264 0.8759 0.95023 0.0
C73 C 0.42993 0.86538 0.88608 0.0
N74 N 0.49522 0.8959 0.9115 0.0
C75 C 0.46795 0.88882 0.87141 0.0
C76 C 0.38194 0.74009 0.92215 0.0
O77 O 0.27914 0.81009 0.96261 0.0
O78 O 0.33115 0.84837 0.92207 0.0
O79 O 0.40564 0.77416 0.92396 0.0
O80 O 0.34743 0.73647 0.95319 0.0
O81 O 0.43763 0.79452 1.01599 0.0
H82 H 0.40308 0.85393 0.86153 0.0
H83 H 0.48547 0.87481 0.98835 0.0
O84 O 0.38335 0.75078 0.04311 0.0
O85 O 0.31771 0.82695 0.05406 0.0
O86 O 0.36753 0.86808 1.01236 0.0
C87 C 0.33912 0.86322 0.04913 0.0
H88 H 0.18444 0.69904 0.04892 0.0
H89 H 0.4756 0.89872 0.83341 0.0
Co90 Co 0.52584 0.15326 0.23047 0.0
C91 C 0.57057 0.06352 0.24525 0.0
Co92 Co 0.48562 0.10503 0.19035 0.0
C93 C 0.55504 0.20607 0.31339 0.0
C94 C 0.57371 0.23272 0.24192 0.0
N95 N 0.55586 0.19669 0.26438 0.0
N96 N 0.57067 0.2469 0.32186 0.0
C97 C 0.5827 0.26351 0.27698 0.0
H98 H 0.54053 0.18486 0.34194 0.0
H99 H 0.57711 0.23778 0.20215 0.0
C100 C 0.44674 0.19784 0.17527 0.0
N101 N 0.45163 0.06558 0.1536 0.0
C102 C 0.43064 0.02721 0.16523 0.0
C103 C 0.43725 0.07666 0.10623 0.0
N104 N 0.4032 1.01495 0.127 0.0
C105 C 0.40786 0.046 0.09 0.0
C106 C 0.44294 0.12534 0.28197 0.0
O107 O 0.48434 0.20229 0.20101 0.0
O108 O 0.43813 0.15736 0.16616 0.0
O109 O 0.44288 0.09849 0.24581 0.0
O110 O 0.47696 0.1512 0.2836 0.0
O111 O 0.53672 0.05418 0.21539 0.0
H112 H 0.44641 0.10622 0.08501 0.0
H113 H 0.4339 1.00967 0.20134 0.0
O114 O 0.56898 0.10439 0.26008 0.0
O115 O 0.57281 0.15423 0.1755 0.0
O116 O 0.52686 0.1123 0.13489 0.0
C117 C 0.56389 0.13401 0.1359 0.0
H118 H 0.59621 0.29607 0.26995 0.0
H119 H 0.39128 0.04636 0.05341 0.0
Co120 Co 0.70434 0.35861 0.53952 0.0
C121 C 0.61991 0.33828 0.49292 0.0
Co122 Co 0.63539 0.38799 0.57649 0.0
C123 C 0.79084 0.29455 0.52881 0.0
C124 C 0.76693 0.32739 0.45926 0.0
N125 N 0.7617 0.33153 0.5087 0.0
N126 N 0.8077 0.26366 0.49451 0.0
C127 C 0.79509 0.28564 0.45043 0.0
H128 H 0.79242 0.28676 0.56835 0.0
H129 H 0.74424 0.34856 0.43184 0.0
C130 C 0.72338 0.40544 0.62124 0.0
N131 N 0.57752 0.41329 0.60707 0.0
C132 C 0.53348 0.42889 0.58502 0.0
C133 C 0.56842 0.41524 0.65617 0.0
N134 N 0.49679 0.44023 0.61832 0.0
C135 C 0.51903 0.43196 0.66323 0.0
C136 C 0.66871 0.3009 0.61295 0.0
O137 O 0.74234 0.38472 0.58386 0.0
O138 O 0.67632 0.41006 0.62785 0.0
O139 O 0.63304 0.33367 0.61419 0.0
O140 O 0.70499 0.30474 0.58402 0.0
O141 O 0.59664 0.36459 0.52457 0.0
H142 H 0.59568 0.40426 0.68499 0.0
H143 H 0.52857 0.43096 0.54515 0.0
O144 O 0.66684 0.33113 0.49393 0.0
O145 O 0.70187 0.41279 0.49689 0.0
O146 O 0.63676 0.44336 0.53909 0.0
C147 C 0.6689 0.44723 0.50548 0.0
H148 H 0.79765 0.26957 0.41469 0.0
H149 H 0.50138 0.43782 0.69895 0.0
Co150 Co 1.00521 0.4092 0.73209 0.0
C151 C 0.01732 0.32757 0.67813 0.0
Co152 Co 0.98235 0.34978 0.77556 0.0
C153 C 0.05668 0.48656 0.71258 0.0
C154 C 1.00794 0.47794 0.65226 0.0
N155 N 0.02428 0.45918 0.69664 0.0
N156 N 0.06121 0.52168 0.68013 0.0
C157 C 0.03057 0.51636 0.64202 0.0
H158 H 0.07614 0.48127 0.74781 0.0
H159 H 0.98132 0.46462 0.62893 0.0
C160 C 0.97344 0.43504 0.82536 0.0
N161 N 0.96464 0.29992 0.81596 0.0
C162 C 0.93235 0.26902 0.81014 0.0
C163 C 0.98397 0.28932 0.86179 0.0
N164 N 0.93148 0.23956 0.85037 0.0
C165 C 0.96414 0.25264 0.88262 0.0
C166 C 0.08069 0.36171 0.79028 0.0
O167 O 0.98828 0.44823 0.78366 0.0
O168 O 0.96675 0.39282 0.8317 0.0
O169 O 0.04822 0.33559 0.79907 0.0
O170 O 0.07065 0.39561 0.75968 0.0
O171 O 0.99958 0.30954 0.71732 0.0
H172 H 1.01042 0.30773 0.87964 0.0
H173 H 0.90982 0.26833 0.77714 0.0
O174 O 0.02305 0.36989 0.67849 0.0
O175 O 0.93825 0.42264 0.70697 0.0
O176 O 0.91637 0.36508 0.75234 0.0
C177 C 0.90465 0.39931 0.72228 0.0
H178 H 0.02582 0.53797 0.60849 0.0
H179 H 0.97206 0.23783 0.91961 0.0
Co180 Co 0.98044 0.65894 1.01673 0.0
C181 C 0.903 0.7175 0.97307 0.0
Co182 Co 0.90734 0.64098 0.03595 0.0
C183 C 0.07451 0.65001 0.96726 0.0
C184 C 0.05708 0.7157 0.99991 0.0
N185 N 0.04255 0.67381 0.9988 0.0
N186 N 0.10437 0.67667 0.94372 0.0
C187 C 0.09515 0.71744 0.96651 0.0
H188 H 0.07149 0.61542 0.95639 0.0
H189 H 0.03685 0.74507 1.01801 0.0
C190 C 0.98509 0.5899 0.0866 0.0
N191 N 0.84769 0.6233 0.05196 0.0
C192 C 0.80964 0.64607 0.07712 0.0
C193 C 0.8361 0.58046 0.04687 0.0
N194 N 0.77527 0.61876 0.08871 0.0
C195 C 0.79146 0.57767 0.06916 0.0
C196 C 0.95033 0.58933 0.9583 0.0
O197 O 1.01057 0.61583 0.06248 0.0
O198 O 0.93888 0.59236 0.07825 0.0
O199 O 0.91054 0.59986 0.98216 0.0
O200 O 0.98584 0.61197 0.96629 0.0
O201 O 0.8759 0.6914 0.99547 0.0
H202 H 0.86029 0.55182 0.03155 0.0
H203 H 0.80874 0.68092 0.08946 0.0
O204 O 0.94975 0.70486 0.97163 0.0
O205 O 0.97379 0.70402 0.06718 0.0
O206 O 0.90335 0.68203 0.09049 0.0
C207 C 0.93627 0.70818 0.09602 0.0
H208 H 0.10843 0.74893 0.95398 0.0
H209 H 0.77479 0.54655 0.07484 0.0
Co210 Co 0.55262 0.61191 0.2913 0.0
C211 C 0.51519 0.68551 0.23044 0.0
Co212 Co 0.57558 0.67592 0.31665 0.0
C213 C 0.51504 0.52875 0.30852 0.0
C214 C 0.52822 0.53827 0.23072 0.0
N215 N 0.53373 0.55674 0.27509 0.0
N216 N 0.49538 0.4948 0.28706 0.0
C217 C 0.50443 0.50016 0.23797 0.0
H218 H 0.51198 0.53561 0.34776 0.0
H219 H 0.53709 0.55362 0.19533 0.0
C220 C 0.61604 0.59922 0.3727 0.0
N221 N 0.59327 0.73058 0.33607 0.0
C222 C 0.63702 0.73862 0.3547 0.0
C223 C 0.56267 0.77097 0.33862 0.0
N224 N 0.63484 0.78246 0.36918 0.0
C225 C 0.58815 0.80298 0.35891 0.0
C226 C 0.49108 0.65655 0.36209 0.0
O227 O 0.5919 0.58027 0.34137 0.0
O228 O 0.61387 0.64288 0.37106 0.0
O229 O 0.5204 0.6862 0.35918 0.0
O230 O 0.49819 0.62191 0.33483 0.0
O231 O 0.53794 0.70778 0.26078 0.0
H232 H 0.52409 0.77658 0.32703 0.0
H233 H 0.66952 0.71257 0.3583 0.0
O234 O 0.51407 0.64291 0.23945 0.0
O235 O 0.60566 0.60281 0.24834 0.0
O236 O 0.63094 0.66589 0.2744 0.0
C237 C 0.6358 0.63195 0.24576 0.0
H238 H 0.48988 0.48126 0.20883 0.0
H239 H 0.57372 0.8388 0.36464 0.0
Co240 Co 0.2338 0.42776 0.17954 0.0
C241 C 0.2506 0.47992 0.09559 0.0
Co242 Co 0.20758 0.39774 0.11222 0.0
C243 C 0.28913 0.42899 0.26844 0.0
C244 C 0.2473 0.49519 0.2517 0.0
N245 N 0.25459 0.45135 0.23708 0.0
N246 N 0.30752 0.45762 0.29936 0.0
C247 C 0.27966 0.49914 0.29002 0.0
H248 H 0.30449 0.39313 0.26488 0.0
H249 H 0.22407 0.5233 0.23237 0.0
C250 C 0.18703 0.35267 0.20096 0.0
N251 N 0.18842 0.37039 0.05496 0.0
C252 C 0.18054 0.3867 1.00753 0.0
C253 C 0.18699 0.32473 0.05256 0.0
N254 N 0.1743 0.35282 0.97589 0.0
C255 C 0.17794 0.31404 1.00475 0.0
C256 C 0.30295 0.35985 0.1392 0.0
O257 O 0.20848 0.38406 0.21814 0.0
O258 O 0.18427 0.34916 0.15406 0.0
O259 O 0.26991 0.3613 0.10602 0.0
O260 O 0.2959 0.38761 0.17463 0.0
O261 O 0.22939 0.44999 0.07319 0.0
H262 H 0.19392 0.29995 0.08324 0.0
H263 H 0.1808 0.42241 0.99637 0.0
O264 O 0.25913 0.47403 0.14178 0.0
O265 O 0.17142 0.46589 0.18332 0.0
O266 O 0.14533 0.43214 0.11845 0.0
C267 C 0.1368 0.46025 0.15334 0.0
H268 H 0.28695 0.53153 0.30448 0.0
H269 H 0.17422 0.27992 0.99269 0.0
Co270 Co 0.75926 0.0239 0.92571 0.0
C271 C 0.79117 1.00177 0.8297 0.0
Co272 Co 0.71656 0.06512 0.86763 0.0
C273 C 0.79767 0.93633 0.96585 0.0
C274 C 0.83951 0.9862 0.99418 0.0
N275 N 0.79751 0.98231 0.96902 0.0
N276 N 0.83834 0.91136 0.98644 0.0
C277 C 0.86487 0.94251 1.00472 0.0
H278 H 0.77193 0.9213 0.94301 0.0
H279 H 0.8534 0.01835 0.99999 0.0
C280 C 0.68998 0.08717 0.96744 0.0
N281 N 0.67898 0.10267 0.82078 0.0
C282 C 0.69549 0.12783 0.78297 0.0
C283 C 0.6291 0.11279 0.81889 0.0
N284 N 0.65789 0.15387 0.75759 0.0
C285 C 0.61603 0.14407 0.78033 0.0
C286 C 0.67047 0.99011 0.89771 0.0
O287 O 0.72864 0.05852 0.97789 0.0
O288 O 0.67652 0.09409 0.92187 0.0
O289 O 0.67141 0.02078 0.86339 0.0
O290 O 0.70541 0.98525 0.92983 0.0
O291 O 0.75954 0.03609 0.81528 0.0
H292 H 0.6039 0.09912 0.84467 0.0
H293 H 0.73458 0.12751 0.7752 0.0
O294 O 0.79113 0.9889 0.8748 0.0
O295 O 0.81141 0.06531 0.92023 0.0
O296 O 0.75935 0.10933 0.87116 0.0
C297 C 0.80096 0.10233 0.8932 0.0
H298 H 0.90146 0.93446 0.02142 0.0
H299 H 0.57834 0.15915 0.77115 0.0
Co300 Co 0.81564 0.9755 0.41103 0.0
C301 C 0.76328 0.98555 0.32117 0.0
Co302 Co 0.85463 0.93448 0.35171 0.0
C303 C 0.80871 0.04144 0.48434 0.0
C304 C 0.73574 0.02909 0.46461 0.0
N305 N 0.78437 1.01277 0.45903 0.0
N306 N 0.77797 0.07732 0.5018 0.0
C307 C 0.73175 0.06918 0.49068 0.0
H308 H 0.84873 0.04024 0.48317 0.0
H309 H 0.70577 0.01648 0.44542 0.0
C310 C 0.90107 0.92463 0.44612 0.0
N311 N 0.89002 0.89756 0.30396 0.0
C312 C 0.8771 0.8676 0.27058 0.0
C313 C 0.93956 0.89597 0.29812 0.0
N314 N 0.91686 0.84796 0.24408 0.0
C315 C 0.95599 0.8659 0.26179 0.0
C316 C 0.88932 0.01746 0.36054 0.0
O317 O 0.8622 0.95076 0.45816 0.0
O318 O 0.90693 0.91265 0.40108 0.0
O319 O 0.8909 0.98322 0.33274 0.0
O320 O 0.85681 0.02203 0.39463 0.0
O321 O 0.79946 0.95709 0.30441 0.0
H322 H 0.9627 0.9152 0.3195 0.0
H323 H 0.83942 0.86052 0.26576 0.0
O324 O 0.76699 1.00051 0.36448 0.0
O325 O 0.77656 0.92874 0.42666 0.0
O326 O 0.81961 0.88623 0.37115 0.0
C327 C 0.78532 0.8912 0.40361 0.0
H328 H 0.69821 0.09377 0.49443 0.0
H329 H 0.99428 0.85717 0.2502 0.0
Co330 Co 0.25408 0.63411 0.54477 0.0
C331 C 0.20934 0.62757 0.63714 0.0
Co332 Co 0.30018 0.64993 0.60738 0.0
C333 C 0.23911 0.57827 0.46616 0.0
C334 C 0.1688 0.60755 0.49527 0.0
N335 N 0.21737 0.61249 0.49456 0.0
N336 N 0.20787 0.54853 0.45446 0.0
C337 C 0.16293 0.56808 0.47079 0.0
H338 H 0.27909 0.57041 0.46232 0.0
H339 H 0.14131 0.62622 0.51909 0.0
C340 C 0.34241 0.65432 0.51245 0.0
N341 N 0.33928 0.66965 0.65564 0.0
C342 C 0.34375 0.65703 0.70422 0.0
C343 C 0.37003 0.70144 0.64862 0.0
N344 N 0.37617 0.67979 0.72779 0.0
C345 C 0.39273 0.70769 0.69275 0.0
C346 C 0.32007 0.56021 0.59114 0.0
O347 O 0.3005 0.64578 0.49873 0.0
O348 O 0.35118 0.65736 0.55854 0.0
O349 O 0.32935 0.59044 0.62052 0.0
O350 O 0.28956 0.5716 0.55556 0.0
O351 O 0.24807 0.64091 0.65513 0.0
H352 H 0.37455 0.72001 0.61392 0.0
H353 H 0.32291 0.63234 0.72205 0.0
O354 O 0.20645 0.62231 0.5909 0.0
O355 O 0.22122 0.69645 0.53553 0.0
O356 O 0.27175 0.7104 0.59494 0.0
C357 C 0.23879 0.7251 0.56284 0.0
H358 H 0.13004 0.55121 0.4726 0.0
H359 H 0.41725 0.73291 0.69909 0.0
C360 C 0.27611 0.43012 0.48223 0.0
C361 C 0.24338 0.40232 0.46302 0.0
H362 H 0.29092 0.49776 0.49453 0.0
C363 C 0.20178 0.42361 0.43521 0.0
H364 H 0.30832 0.41527 0.50391 0.0
C365 C 0.19149 0.47168 0.42983 0.0
C366 C 0.22289 0.49944 0.45143 0.0
H367 H 0.17644 0.40341 0.41835 0.0
H368 H 0.15819 0.48726 0.41019 0.0
C369 C 0.26611 0.47789 0.47644 0.0
C370 C 0.86459 1.01245 0.77558 0.0
C371 C 0.83565 0.9828 0.80046 0.0
H372 H 0.93544 0.0203 0.74297 0.0
C373 C 0.85679 0.93651 0.8093 0.0
H374 H 0.85017 0.04865 0.76978 0.0
C375 C 0.90566 0.92042 0.79475 0.0
C376 C 0.93547 0.95031 0.77164 0.0
H377 H 0.8361 0.91305 0.82961 0.0
H378 H 0.92044 0.8846 0.80268 0.0
C379 C 0.91398 0.99643 0.76148 0.0
C380 C 0.30178 0.59305 0.07676 0.0
C381 C 0.26227 0.6213 0.0523 0.0
H382 H 0.32923 0.52626 0.10902 0.0
C383 C 0.22185 0.60032 0.03585 0.0
H384 H 0.33334 0.60782 0.09016 0.0
C385 C 0.22018 0.55293 0.0454 0.0
C386 C 0.25847 0.52542 0.07242 0.0
H387 H 0.19095 0.62076 1.01641 0.0
H388 H 0.18737 0.53861 0.03455 0.0
C389 C 0.29957 0.54609 0.08725 0.0
C390 C 0.65714 0.02352 0.22736 0.0
C391 C 0.61562 0.03031 0.25951 0.0
H392 H 0.73684 1.0037 0.22076 0.0
C393 C 0.62302 0.01722 0.30973 0.0
H394 H 0.65297 0.03486 0.18868 0.0
C395 C 0.67062 1.0001 0.32795 0.0
C396 C 0.71293 0.99615 0.2969 0.0
H397 H 0.59238 0.02307 0.3357 0.0
H398 H 0.67458 0.99175 0.36736 0.0
C399 C 0.70535 1.00621 0.24577 0.0
C400 C 0.78546 0.19611 0.54304 0.0
C401 C 0.81035 0.21443 0.50238 0.0
H402 H 0.75527 0.13775 0.57433 0.0
C403 C 0.82868 0.18487 0.4646 0.0
H404 H 0.76977 0.21745 0.57263 0.0
C405 C 0.81863 0.13968 0.4652 0.0
C406 C 0.79197 0.12235 0.50457 0.0
H407 H 0.84769 0.19763 0.43281 0.0
H408 H 0.82894 0.119 0.4333 0.0
C409 C 0.77628 0.15051 0.54398 0.0
C410 C 0.14279 0.54296 0.70434 0.0
C411 C 0.09521 0.55508 0.68286 0.0
H412 H 0.21755 0.55858 0.70808 0.0
C413 C 0.0835 0.59861 0.6591 0.0
H414 H 0.15289 0.5097 0.72306 0.0
C415 C 0.12017 0.62691 0.65161 0.0
C416 C 0.16936 0.61211 0.66739 0.0
H417 H 0.04688 0.60937 0.64327 0.0
H418 H 0.11139 0.65803 0.62857 0.0
C419 C 0.17971 0.57129 0.69652 0.0
C420 C 0.81904 0.83177 0.98178 0.0
C421 C 0.85391 0.86284 0.97944 0.0
H422 H 0.80676 0.76123 0.98042 0.0
C423 C 0.90341 0.8462 0.96746 0.0
H424 H 0.78048 0.84388 0.99034 0.0
C425 C 0.91822 0.79919 0.96012 0.0
C426 C 0.88406 0.76745 0.9656 0.0
H427 H 0.93075 0.86954 0.96399 0.0
H428 H 0.95721 0.7875 0.95298 0.0
C429 C 0.83398 0.78455 0.97534 0.0
C430 C 0.42269 0.4953 0.34224 0.0
C431 C 0.45593 0.47241 0.30773 0.0
H432 H 0.34764 0.50675 0.36834 0.0
C433 C 0.44345 0.43311 0.28566 0.0
H434 H 0.43141 0.52504 0.36127 0.0
C435 C 0.39522 0.42261 0.29001 0.0
C436 C 0.35867 0.45206 0.31566 0.0
H437 H 0.46912 0.41376 0.26054 0.0
H438 H 0.38562 0.39535 0.26758 0.0
C439 C 0.37433 0.48494 0.34634 0.0
C440 C 0.56164 0.31756 0.37089 0.0
C441 C 0.57353 0.26928 0.36846 0.0
H442 H 0.56535 0.37759 0.41376 0.0
C443 C 0.59286 0.24391 0.41089 0.0
H444 H 0.54628 0.33786 0.33875 0.0
C445 C 0.60405 0.26665 0.45345 0.0
C446 C 0.5947 0.31502 0.45486 0.0
H447 H 0.60261 0.20682 0.40986 0.0
H448 H 0.62268 0.24661 0.48432 0.0
C449 C 0.57185 0.34025 0.41391 0.0
C450 C 0.06126 0.30589 0.54492 0.0
C451 C 0.07428 0.2578 0.54364 0.0
H452 H 0.03281 0.36457 0.58657 0.0
C453 C 0.06331 0.23144 0.58611 0.0
H454 H 0.06976 0.32747 0.51353 0.0
C455 C 0.04251 0.25309 0.62947 0.0
C456 C 0.03232 0.30166 0.63135 0.0
H457 H 0.07404 0.19438 0.58713 0.0
H458 H 0.03696 0.232 0.66219 0.0
C459 C 0.0405 0.32726 0.58752 0.0
C460 C 0.07775 0.66676 0.81103 0.0
C461 C 0.09742 0.70568 0.79316 0.0
H462 H 0.06586 0.62491 0.87411 0.0
C463 C 0.13593 0.72071 0.82074 0.0
H464 H 0.05016 0.65262 0.78965 0.0
C465 C 0.1454 0.70457 0.86962 0.0
C466 C 0.11638 0.67358 0.89147 0.0
H467 H 0.1543 0.7491 0.80776 0.0
H468 H 0.17006 0.7212 0.89223 0.0
C469 C 0.08729 0.65063 0.85986 0.0
C470 C 0.47248 0.67913 0.14946 0.0
C471 C 0.49492 0.70646 0.18212 0.0
H472 H 0.43538 0.67517 0.08025 0.0
C473 C 0.50044 0.75175 0.16619 0.0
H474 H 0.46817 0.64391 0.15971 0.0
C475 C 0.48201 0.76964 0.11946 0.0
C476 C 0.45787 0.74246 0.08801 0.0
H477 H 0.51828 0.77351 0.19006 0.0
H478 H 0.48426 0.80528 0.10915 0.0
C479 C 0.45429 0.69683 0.10333 0.0
C480 C 0.13429 0.32091 0.32272 0.0
C481 C 0.14592 0.27291 0.32382 0.0
H482 H 0.13619 0.38362 0.28109 0.0
C483 C 0.16134 0.2503 0.27983 0.0
H484 H 0.12267 0.33896 0.35625 0.0
C485 C 0.17028 0.27601 0.23659 0.0
C486 C 0.16335 0.32429 0.23739 0.0
H487 H 0.17126 0.21314 0.28031 0.0
H488 H 0.18684 0.25837 0.20456 0.0
C489 C 0.14232 0.34631 0.27974 0.0
C490 C 0.99209 0.94736 0.54276 0.0
C491 C 0.98918 0.91089 0.57739 0.0
H492 H 0.96764 0.97898 0.47232 0.0
C493 C 0.96317 0.87491 0.56389 0.0
H494 H 1.01223 0.97535 0.55157 0.0
C495 C 0.93834 0.87674 0.51809 0.0
C496 C 0.93981 0.91407 0.48452 0.0
H497 H 0.96047 0.84608 0.58944 0.0
H498 H 0.91563 0.85038 0.51015 0.0
C499 C 0.96752 0.94897 0.49692 0.0
C500 C 0.34591 0.67498 0.81405 0.0
C501 C 0.384 0.68192 0.78041 0.0
H502 H 0.31595 0.68734 0.88666 0.0
C503 C 0.42675 0.69795 0.79815 0.0
H504 H 0.3126 0.66245 0.8017 0.0
C505 C 0.42847 0.71269 0.84669 0.0
C506 C 0.38767 0.71106 0.87842 0.0
H507 H 0.45738 0.70222 0.77347 0.0
H508 H 0.46006 0.72858 0.8581 0.0
C509 C 0.34785 0.68928 0.86285 0.0
C510 C 0.64903 0.12358 0.09734 0.0
C511 C 0.59709 0.13189 0.09189 0.0
H512 H 0.71927 0.10247 0.06208 0.0
C513 C 0.57656 0.13084 0.044 0.0
H514 H 0.66583 0.12352 0.13382 0.0
C515 C 0.60705 0.11963 1.00278 0.0
C516 C 0.65875 0.10798 1.00873 0.0
H517 H 0.53657 0.13689 0.03874 0.0
H518 H 0.58982 0.11723 0.96688 0.0
C519 C 0.67951 0.11122 0.05626 0.0
C520 C 0.71083 0.23435 0.66591 0.0
C521 C 0.66727 0.25981 0.64589 0.0
H522 H 0.74248 0.18109 0.71703 0.0
C523 C 0.62106 0.248 0.66061 0.0
H524 H 0.74694 0.24319 0.65572 0.0
C525 C 0.61818 0.21239 0.69563 0.0
C526 C 0.66149 0.18786 0.71776 0.0
H527 H 0.5868 0.26684 0.64547 0.0
H528 H 0.58159 0.20508 0.70574 0.0
C529 C 0.70802 0.19882 0.70153 0.0
C530 C 0.14666 0.39926 0.89926 0.0
C531 C 0.16314 0.35636 0.92315 0.0
H532 H 0.10987 0.43457 0.83569 0.0
C533 C 0.16395 0.31619 0.89548 0.0
H534 H 0.14605 0.43107 0.91859 0.0
C535 C 0.14225 0.31828 0.84839 0.0
C536 C 0.12087 0.36067 0.82706 0.0
H537 H 0.17842 0.28253 0.91109 0.0
H538 H 0.13864 0.28642 0.83037 0.0
C539 C 0.12626 0.40137 0.85133 0.0
C540 C 0.95797 0.81113 0.17038 0.0
C541 C 0.91926 0.81427 0.20559 0.0
H542 H 0.99385 0.77555 0.10909 0.0
C543 C 0.88508 0.78263 0.20365 0.0
H544 H 0.98436 0.83543 0.16975 0.0
C545 C 0.89041 0.74807 0.16819 0.0
C546 C 0.93008 0.74439 0.13396 0.0
H547 H 0.85498 0.78386 0.23022 0.0
H548 H 0.86374 0.72397 0.16792 0.0
C549 C 0.96341 0.77669 0.13531 0.0
C550 C 0.42095 0.68077 0.48161 0.0
C551 C 0.38048 0.65704 0.47435 0.0
H552 H 0.48777 0.70037 0.45029 0.0
C553 C 0.37568 0.63522 0.42925 0.0
H554 H 0.42517 0.69791 0.51607 0.0
C555 C 0.41109 0.63629 0.3923 0.0
C556 C 0.45167 0.65975 0.39938 0.0
H557 H 0.34496 0.61636 0.42272 0.0
H558 H 0.40695 0.61832 0.35835 0.0
C559 C 0.45622 0.68254 0.44396 0.0
C560 C 0.35369 0.17477 0.38289 0.0
C561 C 0.3108 0.15401 0.37436 0.0
H562 H 0.42845 0.18181 0.36162 0.0
C563 C 0.31361 0.12043 0.3379 0.0
H564 H 0.35347 0.20063 0.41073 0.0
C565 C 0.35734 0.10936 0.30966 0.0
C566 C 0.39952 0.13153 0.31706 0.0
H567 H 0.28161 0.10364 0.33021 0.0
H568 H 0.35741 0.08451 0.28077 0.0
C569 C 0.39716 0.16379 0.35476 0.0
C570 C 0.22549 0.08452 0.57716 0.0
C571 C 0.2151 0.13275 0.57608 0.0
H572 H 0.20793 0.02143 0.60919 0.0
C573 C 0.18611 0.15473 0.61401 0.0
H574 H 0.24761 0.06692 0.54807 0.0
C575 C 0.1615 0.12877 0.64781 0.0
C576 C 0.16642 0.08057 0.64446 0.0
H577 H 0.17696 0.19197 0.61341 0.0
H578 H 0.13521 0.14678 0.67328 0.0
C579 C 0.20155 0.05859 0.6113 0.0
C580 C 0.16303 0.84562 0.85778 0.0
C581 C 0.16447 0.88213 0.82285 0.0
H582 H 0.19924 0.80389 0.91748 0.0
C583 C 0.20656 0.90538 0.82336 0.0
H584 H 0.13167 0.82662 0.8586 0.0
C585 C 0.24643 0.89164 0.85696 0.0
C586 C 0.24493 0.8548 0.89165 0.0
H587 H 0.20944 0.9333 0.79666 0.0
H588 H 0.2785 0.90968 0.85556 0.0
C589 C 0.20217 0.83252 0.89172 0.0
C590 C 0.3967 0.93181 0.13954 0.0
C591 C 0.37593 0.97635 0.12291 0.0
H592 H 0.39867 0.85912 0.13016 0.0
C593 C 0.33238 0.98132 0.09366 0.0
H594 H 0.43031 0.92684 0.16182 0.0
C595 C 0.31403 0.9427 0.07593 0.0
C596 C 0.33848 0.89816 0.08742 0.0
H597 H 0.31511 0.01525 0.08081 0.0
H598 H 0.28433 0.94786 0.0486 0.0
C599 C 0.37813 0.89301 0.12182 0.0
C600 C 0.81513 0.38676 0.7239 0.0
C601 C 0.85273 0.41022 0.70379 0.0
H602 H 0.74195 0.3689 0.71411 0.0
C603 C 0.84095 0.44143 0.66343 0.0
H604 H 0.82278 0.3629 0.75545 0.0
C605 C 0.79441 0.44519 0.64035 0.0
C606 C 0.75862 0.41837 0.65757 0.0
H607 H 0.8688 0.46036 0.64733 0.0
H608 H 0.78809 0.46575 0.60614 0.0
C609 C 0.76837 0.39091 0.701 0.0
C610 C 0.9265 0.47917 0.89477 0.0
C611 C 0.96901 0.46967 0.86504 0.0
H612 H 0.88648 0.52516 0.94637 0.0
C613 C 1.00542 0.49932 0.86704 0.0
H614 H 0.89735 0.45768 0.89332 0.0
C615 C 0.9995 0.53768 0.89723 0.0
C616 C 0.95632 0.54848 0.92566 0.0
H617 H 0.03837 0.49344 0.84407 0.0
H618 H 0.02856 0.55925 0.89766 0.0
C619 C 0.92009 0.51834 0.92452 0.0
C620 C 0.69716 0.60179 0.1245 0.0
C621 C 0.73752 0.62646 0.12559 0.0
H622 H 0.6339 0.58336 0.16253 0.0
C623 C 0.74372 0.6541 0.16613 0.0
H624 H 0.69142 0.58077 0.09329 0.0
C625 C 0.71077 0.65578 0.2058 0.0
C626 C 0.67168 0.6295 0.20543 0.0
H627 H 0.77506 0.6729 0.16827 0.0
H628 H 0.71638 0.67688 0.23701 0.0
C629 C 0.66468 0.60299 0.16427 0.0
C630 C 0.68735 0.49167 0.42823 0.0
C631 C 0.66545 0.4908 0.47543 0.0
H632 H 0.68919 0.52849 0.35833 0.0
C633 C 0.63589 0.53104 0.49184 0.0
H634 H 0.71034 0.46137 0.41458 0.0
C635 C 0.62489 0.56991 0.46004 0.0
C636 C 0.64294 0.56894 0.41127 0.0
H637 H 0.61889 0.53158 0.52831 0.0
H638 H 0.59855 0.59883 0.47196 0.0
C639 C 0.67572 0.53027 0.39625 0.0
C640 C 0.38542 0.32218 0.17156 0.0
C641 C 0.34379 0.32065 0.14151 0.0
H642 H 0.45069 0.28488 0.20506 0.0
C643 C 0.3381 0.27898 0.11892 0.0
H644 H 0.39078 0.35371 0.18928 0.0
C645 C 0.37201 0.23892 0.12861 0.0
C646 C 0.41259 0.2401 0.16038 0.0
H647 H 0.30599 0.27665 0.09584 0.0
H648 H 0.36576 0.20695 0.11235 0.0
C649 C 0.41963 0.28251 0.18056 0.0
C650 C 0.91449 0.16691 0.89459 0.0
C651 C 0.90025 0.20378 0.85981 0.0
H652 H 0.89519 0.106 0.93263 0.0
C653 C 0.8538 0.20609 0.83648 0.0
H654 H 0.95026 0.16345 0.91302 0.0
C655 C 0.8223 0.1734 0.84805 0.0
C656 C 0.83606 0.13675 0.88314 0.0
H657 H 0.8411 0.23387 0.81004 0.0
H658 H 0.78672 0.17714 0.82914 0.0
C659 C 0.88294 0.13376 0.90595 0.0
C660 C 0.04786 0.47615 0.13018 0.0
C661 C 0.08897 0.49006 0.15398 0.0
H662 H 0.97996 0.49862 0.09055 0.0
C663 C 0.08704 0.53574 0.16823 0.0
H664 H 0.04846 0.4407 0.11975 0.0
C665 C 0.04821 0.56862 0.15124 0.0
C666 C 1.01101 0.55559 0.12096 0.0
H667 H 0.11818 0.54704 0.187 0.0
H668 H 0.05007 0.60471 0.15717 0.0
C669 C 1.00858 0.50901 0.11388 0.0
C670 C 0.70252 0.86983 0.42612 0.0
C671 C 0.75043 0.85732 0.40675 0.0
H672 H 0.62775 0.85511 0.42947 0.0
C673 C 0.76144 0.81568 0.38191 0.0
H674 H 0.693 0.90165 0.44558 0.0
C675 C 0.724 0.78938 0.37228 0.0
C676 C 0.67494 0.80432 0.38729 0.0
H677 H 0.79819 0.80501 0.36685 0.0
H678 H 0.73285 0.75926 0.34999 0.0
C679 C 0.66502 0.84354 0.41632 0.0
C680 C 0.43069 0.47722 0.56011 0.0
C681 C 0.44573 0.46015 0.60819 0.0
H682 H 0.37649 0.52166 0.51652 0.0
C683 C 0.41098 0.46678 0.64712 0.0
H684 H 0.45554 0.4725 0.52873 0.0
C685 C 0.36551 0.49502 0.63976 0.0
C686 C 0.3534 0.5163 0.59316 0.0
H687 H 0.41988 0.45284 0.6842 0.0
H688 H 0.34178 0.5036 0.67155 0.0
C689 C 0.38474 0.50493 0.55267 0.0
C690 C 0.244 0.80388 0.59098 0.0
C691 C 0.21755 0.77414 0.5648 0.0
H692 H 0.23825 0.86067 0.63996 0.0
C693 C 0.16736 0.78833 0.55347 0.0
H694 H 0.28326 0.79422 0.59915 0.0
C695 C 0.14217 0.82724 0.57575 0.0
C696 C 0.16694 0.85167 0.60967 0.0
H697 H 0.14626 0.76646 0.53305 0.0
H698 H 0.10202 0.8344 0.57188 0.0
C699 C 0.21859 0.84231 0.61398 0.0
C700 C 0.54468 0.95198 0.87139 0.0
C701 C 0.53897 0.91975 0.9103 0.0
H702 H 0.58944 0.9981 0.83668 0.0
C703 C 0.57776 0.91047 0.94567 0.0
H704 H 0.51568 0.9612 0.84388 0.0
C705 C 0.62097 0.9323 0.94152 0.0
C706 C 0.62655 0.96406 0.90195 0.0
H707 H 0.57511 0.88586 0.97605 0.0
H708 H 0.64991 0.92443 0.96941 0.0
C709 C 0.58744 0.97347 0.86724 0.0
C710 C 0.97317 0.03288 0.33004 0.0
C711 C 0.93219 0.04399 0.36176 0.0
H712 H 0.04982 0.0384 0.31514 0.0
C713 C 0.9369 0.07408 0.40067 0.0
H714 H 0.97136 1.00948 0.30001 0.0
C715 C 0.98171 0.09112 0.40885 0.0
C716 C 0.02343 0.0775 0.37915 0.0
H717 H 0.90722 0.08209 0.42704 0.0
H718 H 0.9847 0.11251 0.44042 0.0
C719 C 0.01834 0.0491 0.33893 0.0
loop_
_geom_bond_atom_site_label_1
_geom_bond_atom_site_label_2
_geom_bond_distance
_geom_bond_site_symmetry_2
_ccdc_geom_bond_type
Co0 N5 2.057 . S
Co0 O17 2.021 . S
Co0 O20 2.062 . S
Co0 O24 2.117 . S
Co0 O25 2.020 . S
C1 O21 1.259 . S
C1 O24 1.258 . S
Co2 N11 2.057 . S
Co2 O18 2.117 . S
Co2 O19 2.020 . S
Co2 O21 2.021 . S
Co2 O26 2.062 . S
C3 N5 1.316 . S
C3 N6 1.347 . S
C3 H8 0.931 . S
C4 N5 1.375 . S
C4 C7 1.350 . S
C4 H9 0.930 . S
N5 Co0 2.057 . S
N5 C3 1.316 . S
N5 C4 1.375 . S
N6 C3 1.347 . S
N6 C7 1.373 . S
C7 C4 1.350 . S
C7 N6 1.373 . S
C7 H28 0.931 . S
H8 C3 0.931 . S
H9 C4 0.930 . S
C10 O17 1.259 . S
C10 O18 1.258 . S
N11 Co2 2.057 . S
N11 C12 1.316 . S
N11 C13 1.375 . S
C12 N11 1.316 . S
C12 N14 1.347 . S
C12 H23 0.931 . S
C13 N11 1.375 . S
C13 C15 1.350 . S
C13 H22 0.930 . S
N14 C12 1.347 . S
N14 C15 1.373 . S
C15 C13 1.350 . S
C15 N14 1.373 . S
C15 H29 0.931 . S
C16 O19 1.256 . S
C16 O20 1.255 . S
O17 Co0 2.021 . S
O17 C10 1.259 . S
O18 Co2 2.117 . S
O18 C10 1.258 . S
O19 Co2 2.020 . S
O19 C16 1.256 . S
O20 Co0 2.062 . S
O20 C16 1.255 . S
O21 C1 1.259 . S
O21 Co2 2.021 . S
H22 C13 0.930 . S
H23 C12 0.931 . S
O24 Co0 2.117 . S
O24 C1 1.258 . S
O25 Co0 2.020 . S
O25 C27 1.256 . S
O26 Co2 2.062 . S
O26 C27 1.255 . S
C27 O25 1.256 . S
C27 O26 1.255 . S
H28 C7 0.931 . S
H29 C15 0.931 . S
Co30 N35 2.057 . S
Co30 O47 2.021 . S
Co30 O50 2.062 . S
Co30 O54 2.117 . S
Co30 O55 2.020 . S
C31 O51 1.259 . S
C31 O54 1.258 . S
Co32 N41 2.057 . S
Co32 O48 2.117 . S
Co32 O49 2.020 . S
Co32 O51 2.021 . S
Co32 O56 2.062 . S
C33 N35 1.316 . S
C33 N36 1.347 . S
C33 H38 0.931 . S
C34 N35 1.375 1_655 S
C34 C37 1.350 . S
C34 H39 0.930 . S
N35 Co30 2.057 . S
N35 C33 1.316 . S
N35 C34 1.375 1_455 S
N36 C33 1.347 . S
N36 C37 1.373 1_455 S
C37 C34 1.350 . S
C37 N36 1.373 1_655 S
C37 H58 0.931 . S
H38 C33 0.931 . S
H39 C34 0.930 . S
C40 O47 1.259 . S
C40 O48 1.258 . S
N41 Co32 2.057 . S
N41 C42 1.316 . S
N41 C43 1.375 . S
C42 N41 1.316 . S
C42 N44 1.347 1_565 S
C42 H53 0.931 1_565 S
C43 N41 1.375 . S
C43 C45 1.350 . S
C43 H52 0.930 . S
N44 C42 1.347 1_545 S
N44 C45 1.373 1_545 S
C45 C43 1.350 . S
C45 N44 1.373 1_565 S
C45 H59 0.931 . S
C46 O49 1.256 . S
C46 O50 1.255 . S
O47 Co30 2.021 . S
O47 C40 1.259 . S
O48 Co32 2.117 . S
O48 C40 1.258 . S
O49 Co32 2.020 . S
O49 C46 1.256 . S
O50 Co30 2.062 . S
O50 C46 1.255 . S
O51 C31 1.259 . S
O51 Co32 2.021 . S
H52 C43 0.930 . S
H53 C42 0.931 1_545 S
O54 Co30 2.117 . S
O54 C31 1.258 . S
O55 Co30 2.020 . S
O55 C57 1.256 . S
O56 Co32 2.062 . S
O56 C57 1.255 . S
C57 O55 1.256 . S
C57 O56 1.255 . S
H58 C37 0.931 . S
H59 C45 0.931 . S
Co60 N65 2.057 1_556 S
Co60 O77 2.021 . S
Co60 O80 2.062 . S
Co60 O84 2.117 1_556 S
Co60 O85 2.020 1_556 S
C61 O81 1.259 1_554 S
C61 O84 1.258 . S
Co62 N71 2.057 . S
Co62 O78 2.117 . S
Co62 O79 2.020 . S
Co62 O81 2.021 . S
Co62 O86 2.062 . S
C63 N65 1.316 . S
C63 N66 1.347 . S
C63 H68 0.931 1_554 S
C64 N65 1.375 . S
C64 C67 1.350 . S
C64 H69 0.930 . S
N65 Co60 2.057 1_554 S
N65 C63 1.316 . S
N65 C64 1.375 . S
N66 C63 1.347 . S
N66 C67 1.373 . S
C67 C64 1.350 . S
C67 N66 1.373 . S
C67 H88 0.931 . S
H68 C63 0.931 1_556 S
H69 C64 0.930 . S
C70 O77 1.259 . S
C70 O78 1.258 . S
N71 Co62 2.057 . S
N71 C72 1.316 . S
N71 C73 1.375 . S
C72 N71 1.316 . S
C72 N74 1.347 . S
C72 H83 0.931 . S
C73 N71 1.375 . S
C73 C75 1.350 . S
C73 H82 0.930 . S
N74 C72 1.347 . S
N74 C75 1.373 . S
C75 C73 1.350 . S
C75 N74 1.373 . S
C75 H89 0.931 . S
C76 O79 1.256 . S
C76 O80 1.255 . S
O77 Co60 2.021 . S
O77 C70 1.259 . S
O78 Co62 2.117 . S
O78 C70 1.258 . S
O79 Co62 2.020 . S
O79 C76 1.256 . S
O80 Co60 2.062 . S
O80 C76 1.255 . S
O81 C61 1.259 1_556 S
O81 Co62 2.021 . S
H82 C73 0.930 . S
H83 C72 0.931 . S
O84 Co60 2.117 1_554 S
O84 C61 1.258 . S
O85 Co60 2.020 1_554 S
O85 C87 1.256 . S
O86 Co62 2.062 . S
O86 C87 1.255 1_556 S
C87 O85 1.256 . S
C87 O86 1.255 1_554 S
H88 C67 0.931 . S
H89 C75 0.931 . S
Co90 N95 2.057 . S
Co90 O107 2.021 . S
Co90 O110 2.062 . S
Co90 O114 2.117 . S
Co90 O115 2.020 . S
C91 O111 1.259 . S
C91 O114 1.258 . S
Co92 N101 2.057 . S
Co92 O108 2.117 . S
Co92 O109 2.020 . S
Co92 O111 2.021 . S
Co92 O116 2.062 . S
C93 N95 1.316 . S
C93 N96 1.347 . S
C93 H98 0.931 . S
C94 N95 1.375 . S
C94 C97 1.350 . S
C94 H99 0.930 . S
N95 Co90 2.057 . S
N95 C93 1.316 . S
N95 C94 1.375 . S
N96 C93 1.347 . S
N96 C97 1.373 . S
C97 C94 1.350 . S
C97 N96 1.373 . S
C97 H118 0.931 . S
H98 C93 0.931 . S
H99 C94 0.930 . S
C100 O107 1.259 . S
C100 O108 1.258 . S
N101 Co92 2.057 . S
N101 C102 1.316 . S
N101 C103 1.375 . S
C102 N101 1.316 . S
C102 N104 1.348 . S
C102 H113 0.931 1_545 S
C103 N101 1.375 . S
C103 C105 1.350 . S
C103 H112 0.930 . S
N104 C102 1.348 . S
N104 C105 1.375 . S
C105 C103 1.350 . S
C105 N104 1.375 . S
C105 H119 0.931 . S
C106 O109 1.256 . S
C106 O110 1.255 . S
O107 Co90 2.021 . S
O107 C100 1.259 . S
O108 Co92 2.117 . S
O108 C100 1.258 . S
O109 Co92 2.020 . S
O109 C106 1.256 . S
O110 Co90 2.062 . S
O110 C106 1.255 . S
O111 C91 1.259 . S
O111 Co92 2.021 . S
H112 C103 0.930 . S
H113 C102 0.931 1_565 S
O114 Co90 2.117 . S
O114 C91 1.258 . S
O115 Co90 2.020 . S
O115 C117 1.256 . S
O116 Co92 2.062 . S
O116 C117 1.255 . S
C117 O115 1.256 . S
C117 O116 1.255 . S
H118 C97 0.931 . S
H119 C105 0.931 . S
Co120 N125 2.057 . S
Co120 O137 2.021 . S
Co120 O140 2.062 . S
Co120 O144 2.117 . S
Co120 O145 2.020 . S
C121 O141 1.259 . S
C121 O144 1.258 . S
Co122 N131 2.057 . S
Co122 O138 2.117 . S
Co122 O139 2.020 . S
Co122 O141 2.021 . S
Co122 O146 2.062 . S
C123 N125 1.316 . S
C123 N126 1.347 . S
C123 H128 0.931 . S
C124 N125 1.375 . S
C124 C127 1.350 . S
C124 H129 0.930 . S
N125 Co120 2.057 . S
N125 C123 1.316 . S
N125 C124 1.375 . S
N126 C123 1.347 . S
N126 C127 1.373 . S
C127 C124 1.350 . S
C127 N126 1.373 . S
C127 H148 0.931 . S
H128 C123 0.931 . S
H129 C124 0.930 . S
C130 O137 1.259 . S
C130 O138 1.258 . S
N131 Co122 2.057 . S
N131 C132 1.316 . S
N131 C133 1.375 . S
C132 N131 1.316 . S
C132 N134 1.347 . S
C132 H143 0.931 . S
C133 N131 1.375 . S
C133 C135 1.350 . S
C133 H142 0.930 . S
N134 C132 1.347 . S
N134 C135 1.373 . S
C135 C133 1.350 . S
C135 N134 1.373 . S
C135 H149 0.931 . S
C136 O139 1.256 . S
C136 O140 1.255 . S
O137 Co120 2.021 . S
O137 C130 1.259 . S
O138 Co122 2.117 . S
O138 C130 1.258 . S
O139 Co122 2.020 . S
O139 C136 1.256 . S
O140 Co120 2.062 . S
O140 C136 1.255 . S
O141 C121 1.259 . S
O141 Co122 2.021 . S
H142 C133 0.930 . S
H143 C132 0.931 . S
O144 Co120 2.117 . S
O144 C121 1.258 . S
O145 Co120 2.020 . S
O145 C147 1.256 . S
O146 Co122 2.062 . S
O146 C147 1.255 . S
C147 O145 1.256 . S
C147 O146 1.255 . S
H148 C127 0.931 . S
H149 C135 0.931 . S
Co150 N155 2.057 1_655 S
Co150 O167 2.021 . S
Co150 O170 2.062 1_655 S
Co150 O174 2.117 . S
Co150 O175 2.020 . S
C151 O171 1.259 . S
C151 O174 1.258 . S
Co152 N161 2.057 . S
Co152 O168 2.117 . S
Co152 O169 2.020 . S
Co152 O171 2.021 . S
Co152 O176 2.062 . S
C153 N155 1.316 . S
C153 N156 1.347 . S
C153 H158 0.931 1_455 S
C154 N155 1.375 . S
C154 C157 1.350 . S
C154 H159 0.930 . S
N155 Co150 2.057 1_455 S
N155 C153 1.316 . S
N155 C154 1.375 . S
N156 C153 1.347 . S
N156 C157 1.373 . S
C157 C154 1.350 . S
C157 N156 1.373 . S
C157 H178 0.931 . S
H158 C153 0.931 1_655 S
H159 C154 0.930 . S
C160 O167 1.259 . S
C160 O168 1.258 . S
N161 Co152 2.057 . S
N161 C162 1.316 . S
N161 C163 1.375 . S
C162 N161 1.316 . S
C162 N164 1.347 . S
C162 H173 0.931 . S
C163 N161 1.375 . S
C163 C165 1.350 . S
C163 H172 0.930 . S
N164 C162 1.347 . S
N164 C165 1.373 . S
C165 C163 1.350 . S
C165 N164 1.373 . S
C165 H179 0.931 . S
C166 O169 1.256 1_455 S
C166 O170 1.255 . S
O167 Co150 2.021 . S
O167 C160 1.259 . S
O168 Co152 2.117 . S
O168 C160 1.258 . S
O169 Co152 2.020 . S
O169 C166 1.256 1_655 S
O170 Co150 2.062 1_455 S
O170 C166 1.255 . S
O171 C151 1.259 . S
O171 Co152 2.021 . S
H172 C163 0.930 . S
H173 C162 0.931 . S
O174 Co150 2.117 . S
O174 C151 1.258 . S
O175 Co150 2.020 . S
O175 C177 1.256 . S
O176 Co152 2.062 . S
O176 C177 1.255 . S
C177 O175 1.256 . S
C177 O176 1.255 . S
H178 C157 0.931 . S
H179 C165 0.931 . S
Co180 N185 2.057 1_554 S
Co180 O197 2.021 . S
Co180 O200 2.062 1_554 S
Co180 O204 2.117 1_554 S
Co180 O205 2.020 . S
C181 O201 1.259 . S
C181 O204 1.258 1_554 S
Co182 N191 2.057 . S
Co182 O198 2.117 . S
Co182 O199 2.020 . S
Co182 O201 2.021 . S
Co182 O206 2.062 . S
C183 N185 1.316 1_455 S
C183 N186 1.347 . S
C183 H188 0.931 . S
C184 N185 1.375 . S
C184 C187 1.350 . S
C184 H189 0.930 . S
N185 Co180 2.057 1_556 S
N185 C183 1.316 1_655 S
N185 C184 1.375 . S
N186 C183 1.347 . S
N186 C187 1.373 1_455 S
C187 C184 1.350 . S
C187 N186 1.373 1_655 S
C187 H208 0.931 . S
H188 C183 0.931 . S
H189 C184 0.930 . S
C190 O197 1.259 . S
C190 O198 1.258 . S
N191 Co182 2.057 . S
N191 C192 1.316 . S
N191 C193 1.375 . S
C192 N191 1.316 . S
C192 N194 1.347 . S
C192 H203 0.931 . S
C193 N191 1.375 . S
C193 C195 1.350 . S
C193 H202 0.930 . S
N194 C192 1.347 . S
N194 C195 1.373 . S
C195 C193 1.350 . S
C195 N194 1.373 . S
C195 H209 0.931 . S
C196 O199 1.256 1_556 S
C196 O200 1.255 . S
O197 Co180 2.021 . S
O197 C190 1.259 . S
O198 Co182 2.117 . S
O198 C190 1.258 . S
O199 Co182 2.020 . S
O199 C196 1.256 1_554 S
O200 Co180 2.062 1_556 S
O200 C196 1.255 . S
O201 C181 1.259 . S
O201 Co182 2.021 . S
H202 C193 0.930 . S
H203 C192 0.931 . S
O204 Co180 2.117 1_556 S
O204 C181 1.258 1_556 S
O205 Co180 2.020 . S
O205 C207 1.256 . S
O206 Co182 2.062 . S
O206 C207 1.255 . S
C207 O205 1.256 . S
C207 O206 1.255 . S
H208 C187 0.931 . S
H209 C195 0.931 . S
Co210 N215 2.057 . S
Co210 O227 2.021 . S
Co210 O230 2.062 . S
Co210 O234 2.117 . S
Co210 O235 2.020 . S
C211 O231 1.259 . S
C211 O234 1.258 . S
Co212 N221 2.057 . S
Co212 O228 2.117 . S
Co212 O229 2.020 . S
Co212 O231 2.021 . S
Co212 O236 2.062 . S
C213 N215 1.316 . S
C213 N216 1.347 . S
C213 H218 0.931 . S
C214 N215 1.375 . S
C214 C217 1.350 . S
C214 H219 0.930 . S
N215 Co210 2.057 . S
N215 C213 1.316 . S
N215 C214 1.375 . S
N216 C213 1.347 . S
N216 C217 1.373 . S
C217 C214 1.350 . S
C217 N216 1.373 . S
C217 H238 0.931 . S
H218 C213 0.931 . S
H219 C214 0.930 . S
C220 O227 1.259 . S
C220 O228 1.258 . S
N221 Co212 2.057 . S
N221 C222 1.316 . S
N221 C223 1.375 . S
C222 N221 1.316 . S
C222 N224 1.347 . S
C222 H233 0.931 . S
C223 N221 1.375 . S
C223 C225 1.350 . S
C223 H232 0.930 . S
N224 C222 1.347 . S
N224 C225 1.373 . S
C225 C223 1.350 . S
C225 N224 1.373 . S
C225 H239 0.931 . S
C226 O229 1.256 . S
C226 O230 1.255 . S
O227 Co210 2.021 . S
O227 C220 1.259 . S
O228 Co212 2.117 . S
O228 C220 1.258 . S
O229 Co212 2.020 . S
O229 C226 1.256 . S
O230 Co210 2.062 . S
O230 C226 1.255 . S
O231 C211 1.259 . S
O231 Co212 2.021 . S
H232 C223 0.930 . S
H233 C222 0.931 . S
O234 Co210 2.117 . S
O234 C211 1.258 . S
O235 Co210 2.020 . S
O235 C237 1.256 . S
O236 Co212 2.062 . S
O236 C237 1.255 . S
C237 O235 1.256 . S
C237 O236 1.255 . S
H238 C217 0.931 . S
H239 C225 0.931 . S
Co240 N245 2.057 . S
Co240 O257 2.021 . S
Co240 O260 2.062 . S
Co240 O264 2.117 . S
Co240 O265 2.020 . S
C241 O261 1.259 . S
C241 O264 1.258 . S
Co242 N251 2.057 . S
Co242 O258 2.117 . S
Co242 O259 2.020 . S
Co242 O261 2.021 . S
Co242 O266 2.062 . S
C243 N245 1.316 . S
C243 N246 1.347 . S
C243 H248 0.931 . S
C244 N245 1.375 . S
C244 C247 1.350 . S
C244 H249 0.930 . S
N245 Co240 2.057 . S
N245 C243 1.316 . S
N245 C244 1.375 . S
N246 C243 1.347 . S
N246 C247 1.373 . S
C247 C244 1.350 . S
C247 N246 1.373 . S
C247 H268 0.931 . S
H248 C243 0.931 . S
H249 C244 0.930 . S
C250 O257 1.259 . S
C250 O258 1.258 . S
N251 Co242 2.057 . S
N251 C252 1.316 1_554 S
N251 C253 1.375 . S
C252 N251 1.316 1_556 S
C252 N254 1.347 . S
C252 H263 0.931 . S
C253 N251 1.375 . S
C253 C255 1.350 1_554 S
C253 H262 0.930 . S
N254 C252 1.347 . S
N254 C255 1.373 . S
C255 C253 1.350 1_556 S
C255 N254 1.373 . S
C255 H269 0.931 . S
C256 O259 1.256 . S
C256 O260 1.255 . S
O257 Co240 2.021 . S
O257 C250 1.259 . S
O258 Co242 2.117 . S
O258 C250 1.258 . S
O259 Co242 2.020 . S
O259 C256 1.256 . S
O260 Co240 2.062 . S
O260 C256 1.255 . S
O261 C241 1.259 . S
O261 Co242 2.021 . S
H262 C253 0.930 . S
H263 C252 0.931 . S
O264 Co240 2.117 . S
O264 C241 1.258 . S
O265 Co240 2.020 . S
O265 C267 1.256 . S
O266 Co242 2.062 . S
O266 C267 1.255 . S
C267 O265 1.256 . S
C267 O266 1.255 . S
H268 C247 0.931 . S
H269 C255 0.931 . S
Co270 N275 2.057 1_545 S
Co270 O287 2.021 . S
Co270 O290 2.062 1_545 S
Co270 O294 2.117 1_545 S
Co270 O295 2.020 . S
C271 O291 1.259 1_565 S
C271 O294 1.258 . S
Co272 N281 2.057 . S
Co272 O288 2.117 . S
Co272 O289 2.020 . S
Co272 O291 2.021 . S
Co272 O296 2.062 . S
C273 N275 1.316 . S
C273 N276 1.347 . S
C273 H278 0.931 1_556 S
C274 N275 1.375 . S
C274 C277 1.350 . S
C274 H279 0.930 . S
N275 Co270 2.057 1_565 S
N275 C273 1.316 . S
N275 C274 1.375 . S
N276 C273 1.347 . S
N276 C277 1.373 . S
C277 C274 1.350 . S
C277 N276 1.373 . S
C277 H298 0.931 . S
H278 C273 0.931 1_554 S
H279 C274 0.930 . S
C280 O287 1.259 . S
C280 O288 1.258 . S
N281 Co272 2.057 . S
N281 C282 1.316 . S
N281 C283 1.375 . S
C282 N281 1.316 . S
C282 N284 1.347 . S
C282 H293 0.931 . S
C283 N281 1.375 . S
C283 C285 1.350 . S
C283 H292 0.930 . S
N284 C282 1.347 . S
N284 C285 1.373 . S
C285 C283 1.350 . S
C285 N284 1.373 . S
C285 H299 0.931 . S
C286 O289 1.256 1_565 S
C286 O290 1.255 . S
O287 Co270 2.021 . S
O287 C280 1.259 . S
O288 Co272 2.117 . S
O288 C280 1.258 . S
O289 Co272 2.020 . S
O289 C286 1.256 1_545 S
O290 Co270 2.062 1_565 S
O290 C286 1.255 . S
O291 C271 1.259 1_545 S
O291 Co272 2.021 . S
H292 C283 0.930 . S
H293 C282 0.931 . S
O294 Co270 2.117 1_565 S
O294 C271 1.258 . S
O295 Co270 2.020 . S
O295 C297 1.256 . S
O296 Co272 2.062 . S
O296 C297 1.255 . S
C297 O295 1.256 . S
C297 O296 1.255 . S
H298 C277 0.931 . S
H299 C285 0.931 . S
Co300 N305 2.057 . S
Co300 O317 2.021 . S
Co300 O320 2.062 . S
Co300 O324 2.117 . S
Co300 O325 2.020 . S
C301 O321 1.259 . S
C301 O324 1.258 . S
Co302 N311 2.057 . S
Co302 O318 2.117 . S
Co302 O319 2.020 . S
Co302 O321 2.021 . S
Co302 O326 2.062 . S
C303 N305 1.316 1_545 S
C303 N306 1.347 . S
C303 H308 0.931 1_545 S
C304 N305 1.375 1_545 S
C304 C307 1.350 . S
C304 H309 0.930 . S
N305 Co300 2.057 . S
N305 C303 1.316 1_565 S
N305 C304 1.375 1_565 S
N306 C303 1.347 . S
N306 C307 1.373 . S
C307 C304 1.350 . S
C307 N306 1.373 . S
C307 H328 0.931 . S
H308 C303 0.931 1_565 S
H309 C304 0.930 . S
C310 O317 1.259 . S
C310 O318 1.258 . S
N311 Co302 2.057 . S
N311 C312 1.316 . S
N311 C313 1.375 . S
C312 N311 1.316 . S
C312 N314 1.347 . S
C312 H323 0.931 . S
C313 N311 1.375 . S
C313 C315 1.350 . S
C313 H322 0.930 . S
N314 C312 1.347 . S
N314 C315 1.373 . S
C315 C313 1.350 . S
C315 N314 1.373 . S
C315 H329 0.931 . S
C316 O319 1.256 . S
C316 O320 1.255 . S
O317 Co300 2.021 . S
O317 C310 1.259 . S
O318 Co302 2.117 . S
O318 C310 1.258 . S
O319 Co302 2.020 . S
O319 C316 1.256 . S
O320 Co300 2.062 . S
O320 C316 1.255 . S
O321 C301 1.259 . S
O321 Co302 2.021 . S
H322 C313 0.930 . S
H323 C312 0.931 . S
O324 Co300 2.117 . S
O324 C301 1.258 . S
O325 Co300 2.020 . S
O325 C327 1.256 . S
O326 Co302 2.062 . S
O326 C327 1.255 . S
C327 O325 1.256 . S
C327 O326 1.255 . S
H328 C307 0.931 . S
H329 C315 0.931 . S
Co330 N335 2.057 . S
Co330 O347 2.021 . S
Co330 O350 2.062 . S
Co330 O354 2.117 . S
Co330 O355 2.020 . S
C331 O351 1.259 . S
C331 O354 1.258 . S
Co332 N341 2.057 . S
Co332 O348 2.117 . S
Co332 O349 2.020 . S
Co332 O351 2.021 . S
Co332 O356 2.062 . S
C333 N335 1.316 . S
C333 N336 1.347 . S
C333 H338 0.931 . S
C334 N335 1.375 . S
C334 C337 1.350 . S
C334 H339 0.930 . S
N335 Co330 2.057 . S
N335 C333 1.316 . S
N335 C334 1.375 . S
N336 C333 1.347 . S
N336 C337 1.373 . S
C337 C334 1.350 . S
C337 N336 1.373 . S
C337 H358 0.931 . S
H338 C333 0.931 . S
H339 C334 0.930 . S
C340 O347 1.259 . S
C340 O348 1.258 . S
N341 Co332 2.057 . S
N341 C342 1.316 . S
N341 C343 1.375 . S
C342 N341 1.316 . S
C342 N344 1.347 . S
C342 H353 0.931 . S
C343 N341 1.375 . S
C343 C345 1.350 . S
C343 H352 0.930 . S
N344 C342 1.347 . S
N344 C345 1.373 . S
C345 C343 1.350 . S
C345 N344 1.373 . S
C345 H359 0.931 . S
C346 O349 1.256 . S
C346 O350 1.255 . S
O347 Co330 2.021 . S
O347 C340 1.259 . S
O348 Co332 2.117 . S
O348 C340 1.258 . S
O349 Co332 2.020 . S
O349 C346 1.256 . S
O350 Co330 2.062 . S
O350 C346 1.255 . S
O351 C331 1.259 . S
O351 Co332 2.021 . S
H352 C343 0.930 . S
H353 C342 0.931 . S
O354 Co330 2.117 . S
O354 C331 1.258 . S
O355 Co330 2.020 . S
O355 C357 1.256 . S
O356 Co332 2.062 . S
O356 C357 1.255 . S
C357 O355 1.256 . S
C357 O356 1.255 . S
H358 C337 0.931 . S
H359 C345 0.931 . S
C360 C361 1.387 . S
C360 H364 0.950 . S
C360 C369 1.390 . S
C361 C360 1.387 . S
C361 C363 1.387 . S
H362 C369 0.950 . S
C363 C361 1.387 . S
C363 C365 1.390 . S
C363 H367 0.950 . S
H364 C360 0.950 . S
C365 C363 1.390 . S
C365 C366 1.387 . S
C365 H368 0.950 . S
C366 C365 1.387 . S
C366 C369 1.387 . S
H367 C363 0.950 . S
H368 C365 0.950 . S
C369 C360 1.390 . S
C369 H362 0.950 . S
C369 C366 1.387 . S
C370 C371 1.387 1_545 S
C370 H374 0.950 . S
C370 C379 1.390 . S
C371 C370 1.387 1_565 S
C371 C373 1.387 . S
H372 C379 0.950 . S
C373 C371 1.387 . S
C373 C375 1.390 . S
C373 H377 0.950 . S
H374 C370 0.950 . S
C375 C373 1.390 . S
C375 C376 1.387 . S
C375 H378 0.950 . S
C376 C375 1.387 . S
C376 C379 1.387 1_565 S
H377 C373 0.950 . S
H378 C375 0.950 . S
C379 C370 1.390 . S
C379 H372 0.950 . S
C379 C376 1.387 1_545 S
C380 C381 1.387 . S
C380 H384 0.950 . S
C380 C389 1.390 . S
C381 C380 1.387 . S
C381 C383 1.387 1_554 S
H382 C389 0.950 . S
C383 C381 1.387 1_556 S
C383 C385 1.390 . S
C383 H387 0.950 . S
H384 C380 0.950 . S
C385 C383 1.390 . S
C385 C386 1.387 1_556 S
C385 H388 0.950 . S
C386 C385 1.387 1_554 S
C386 C389 1.387 . S
H387 C383 0.950 . S
H388 C385 0.950 . S
C389 C380 1.390 . S
C389 H382 0.950 . S
C389 C386 1.387 . S
C390 C391 1.387 . S
C390 H394 0.950 . S
C390 C399 1.390 1_545 S
C391 C390 1.387 . S
C391 C393 1.387 . S
H392 C399 0.950 . S
C393 C391 1.387 . S
C393 C395 1.390 . S
C393 H397 0.950 . S
H394 C390 0.950 . S
C395 C393 1.390 . S
C395 C396 1.387 1_545 S
C395 H398 0.950 . S
C396 C395 1.387 1_565 S
C396 C399 1.387 . S
H397 C393 0.950 . S
H398 C395 0.950 . S
C399 C390 1.390 1_565 S
C399 H392 0.950 . S
C399 C396 1.387 . S
C400 C401 1.387 . S
C400 H404 0.950 . S
C400 C409 1.390 . S
C401 C400 1.387 . S
C401 C403 1.387 . S
H402 C409 0.950 . S
C403 C401 1.387 . S
C403 C405 1.390 . S
C403 H407 0.950 . S
H404 C400 0.950 . S
C405 C403 1.390 . S
C405 C406 1.387 . S
C405 H408 0.950 . S
C406 C405 1.387 . S
C406 C409 1.387 . S
H407 C403 0.950 . S
H408 C405 0.950 . S
C409 C400 1.390 . S
C409 H402 0.950 . S
C409 C406 1.387 . S
C410 C411 1.387 . S
C410 H414 0.950 . S
C410 C419 1.390 . S
C411 C410 1.387 . S
C411 C413 1.387 . S
H412 C419 0.950 . S
C413 C411 1.387 . S
C413 C415 1.390 . S
C413 H417 0.950 . S
H414 C410 0.950 . S
C415 C413 1.390 . S
C415 C416 1.387 . S
C415 H418 0.950 . S
C416 C415 1.387 . S
C416 C419 1.387 . S
H417 C413 0.950 . S
H418 C415 0.950 . S
C419 C410 1.390 . S
C419 H412 0.950 . S
C419 C416 1.387 . S
C420 C421 1.387 . S
C420 H424 0.950 . S
C420 C429 1.390 . S
C421 C420 1.387 . S
C421 C423 1.387 1_554 S
H422 C429 0.950 . S
C423 C421 1.387 1_556 S
C423 C425 1.390 . S
C423 H427 0.950 . S
H424 C420 0.950 . S
C425 C423 1.390 . S
C425 C426 1.379 1_556 S
C425 H428 0.950 . S
C426 C425 1.379 1_554 S
C426 C429 1.398 . S
H427 C423 0.950 . S
H428 C425 0.950 . S
C429 C420 1.390 . S
C429 H422 0.950 . S
C429 C426 1.398 . S
C430 C431 1.387 . S
C430 H434 0.950 . S
C430 C439 1.390 . S
C431 C430 1.387 . S
C431 C433 1.387 . S
H432 C439 0.950 . S
C433 C431 1.387 . S
C433 C435 1.390 . S
C433 H437 0.950 . S
H434 C430 0.950 . S
C435 C433 1.390 . S
C435 C436 1.387 . S
C435 H438 0.950 . S
C436 C435 1.387 . S
C436 C439 1.387 . S
H437 C433 0.950 . S
H438 C435 0.950 . S
C439 C430 1.390 . S
C439 H432 0.950 . S
C439 C436 1.387 . S
C440 C441 1.387 . S
C440 H444 0.950 . S
C440 C449 1.390 . S
C441 C440 1.387 . S
C441 C443 1.387 . S
H442 C449 0.950 . S
C443 C441 1.387 . S
C443 C445 1.390 . S
C443 H447 0.950 . S
H444 C440 0.950 . S
C445 C443 1.390 . S
C445 C446 1.387 . S
C445 H448 0.950 . S
C446 C445 1.387 . S
C446 C449 1.387 . S
H447 C443 0.950 . S
H448 C445 0.950 . S
C449 C440 1.390 . S
C449 H442 0.950 . S
C449 C446 1.387 . S
C450 C451 1.387 . S
C450 H454 0.950 . S
C450 C459 1.390 . S
C451 C450 1.387 . S
C451 C453 1.387 . S
H452 C459 0.950 1_655 S
C453 C451 1.387 . S
C453 C455 1.390 . S
C453 H457 0.950 . S
H454 C450 0.950 . S
C455 C453 1.390 . S
C455 C456 1.387 . S
C455 H458 0.950 . S
C456 C455 1.387 . S
C456 C459 1.387 . S
H457 C453 0.950 . S
H458 C455 0.950 . S
C459 C450 1.390 . S
C459 H452 0.950 1_455 S
C459 C456 1.387 . S
C460 C461 1.387 . S
C460 H464 0.950 1_455 S
C460 C469 1.390 . S
C461 C460 1.387 . S
C461 C463 1.387 . S
H462 C469 0.950 . S
C463 C461 1.387 . S
C463 C465 1.390 . S
C463 H467 0.950 . S
H464 C460 0.950 1_655 S
C465 C463 1.390 . S
C465 C466 1.387 . S
C465 H468 0.950 . S
C466 C465 1.387 . S
C466 C469 1.387 . S
H467 C463 0.950 . S
H468 C465 0.950 . S
C469 C460 1.390 . S
C469 H462 0.950 . S
C469 C466 1.387 . S
C470 C471 1.387 . S
C470 H474 0.950 . S
C470 C479 1.390 . S
C471 C470 1.387 . S
C471 C473 1.387 . S
H472 C479 0.950 . S
C473 C471 1.387 . S
C473 C475 1.390 . S
C473 H477 0.950 . S
H474 C470 0.950 . S
C475 C473 1.390 . S
C475 C476 1.387 . S
C475 H478 0.950 . S
C476 C475 1.387 . S
C476 C479 1.387 . S
H477 C473 0.950 . S
H478 C475 0.950 . S
C479 C470 1.390 . S
C479 H472 0.950 . S
C479 C476 1.387 . S
C480 C481 1.387 . S
C480 H484 0.950 . S
C480 C489 1.390 . S
C481 C480 1.387 . S
C481 C483 1.387 . S
H482 C489 0.950 . S
C483 C481 1.387 . S
C483 C485 1.390 . S
C483 H487 0.950 . S
H484 C480 0.950 . S
C485 C483 1.390 . S
C485 C486 1.387 . S
C485 H488 0.950 . S
C486 C485 1.387 . S
C486 C489 1.387 . S
H487 C483 0.950 . S
H488 C485 0.950 . S
C489 C480 1.390 . S
C489 H482 0.950 . S
C489 C486 1.387 . S
C490 C491 1.387 . S
C490 H494 0.950 . S
C490 C499 1.390 . S
C491 C490 1.387 . S
C491 C493 1.387 . S
H492 C499 0.950 . S
C493 C491 1.387 . S
C493 C495 1.390 . S
C493 H497 0.950 . S
H494 C490 0.950 . S
C495 C493 1.390 . S
C495 C496 1.387 . S
C495 H498 0.950 . S
C496 C495 1.387 . S
C496 C499 1.387 . S
H497 C493 0.950 . S
H498 C495 0.950 . S
C499 C490 1.390 . S
C499 H492 0.950 . S
C499 C496 1.387 . S
C500 C501 1.387 . S
C500 H504 0.950 . S
C500 C509 1.390 . S
C501 C500 1.387 . S
C501 C503 1.387 . S
H502 C509 0.950 . S
C503 C501 1.387 . S
C503 C505 1.390 . S
C503 H507 0.950 . S
H504 C500 0.950 . S
C505 C503 1.390 . S
C505 C506 1.387 . S
C505 H508 0.950 . S
C506 C505 1.387 . S
C506 C509 1.387 . S
H507 C503 0.950 . S
H508 C505 0.950 . S
C509 C500 1.390 . S
C509 H502 0.950 . S
C509 C506 1.387 . S
C510 C511 1.387 . S
C510 H514 0.950 . S
C510 C519 1.390 . S
C511 C510 1.387 . S
C511 C513 1.387 . S
H512 C519 0.950 1_556 S
C513 C511 1.387 . S
C513 C515 1.390 . S
C513 H517 0.950 . S
H514 C510 0.950 . S
C515 C513 1.390 . S
C515 C516 1.387 1_554 S
C515 H518 0.950 1_554 S
C516 C515 1.387 1_556 S
C516 C519 1.387 1_556 S
H517 C513 0.950 . S
H518 C515 0.950 1_556 S
C519 C510 1.390 . S
C519 H512 0.950 1_554 S
C519 C516 1.387 1_554 S
C520 C521 1.387 . S
C520 H524 0.950 . S
C520 C529 1.390 . S
C521 C520 1.387 . S
C521 C523 1.387 . S
H522 C529 0.950 . S
C523 C521 1.387 . S
C523 C525 1.390 . S
C523 H527 0.950 . S
H524 C520 0.950 . S
C525 C523 1.390 . S
C525 C526 1.387 . S
C525 H528 0.950 . S
C526 C525 1.387 . S
C526 C529 1.387 . S
H527 C523 0.950 . S
H528 C525 0.950 . S
C529 C520 1.390 . S
C529 H522 0.950 . S
C529 C526 1.387 . S
C530 C531 1.387 . S
C530 H534 0.950 . S
C530 C539 1.390 . S
C531 C530 1.387 . S
C531 C533 1.387 . S
H532 C539 0.950 . S
C533 C531 1.387 . S
C533 C535 1.390 . S
C533 H537 0.950 . S
H534 C530 0.950 . S
C535 C533 1.390 . S
C535 C536 1.387 . S
C535 H538 0.950 . S
C536 C535 1.387 . S
C536 C539 1.387 . S
H537 C533 0.950 . S
H538 C535 0.950 . S
C539 C530 1.390 . S
C539 H532 0.950 . S
C539 C536 1.387 . S
C540 C541 1.387 . S
C540 H544 0.950 . S
C540 C549 1.390 . S
C541 C540 1.387 . S
C541 C543 1.387 . S
H542 C549 0.950 . S
C543 C541 1.387 . S
C543 C545 1.390 . S
C543 H547 0.950 . S
H544 C540 0.950 . S
C545 C543 1.390 . S
C545 C546 1.387 . S
C545 H548 0.950 . S
C546 C545 1.387 . S
C546 C549 1.387 . S
H547 C543 0.950 . S
H548 C545 0.950 . S
C549 C540 1.390 . S
C549 H542 0.950 . S
C549 C546 1.387 . S
C550 C551 1.387 . S
C550 H554 0.950 . S
C550 C559 1.390 . S
C551 C550 1.387 . S
C551 C553 1.387 . S
H552 C559 0.950 . S
C553 C551 1.387 . S
C553 C555 1.390 . S
C553 H557 0.950 . S
H554 C550 0.950 . S
C555 C553 1.390 . S
C555 C556 1.387 . S
C555 H558 0.950 . S
C556 C555 1.387 . S
C556 C559 1.387 . S
H557 C553 0.950 . S
H558 C555 0.950 . S
C559 C550 1.390 . S
C559 H552 0.950 . S
C559 C556 1.387 . S
C560 C561 1.387 . S
C560 H564 0.950 . S
C560 C569 1.390 . S
C561 C560 1.387 . S
C561 C563 1.387 . S
H562 C569 0.950 . S
C563 C561 1.387 . S
C563 C565 1.390 . S
C563 H567 0.950 . S
H564 C560 0.950 . S
C565 C563 1.390 . S
C565 C566 1.387 . S
C565 H568 0.950 . S
C566 C565 1.387 . S
C566 C569 1.387 . S
H567 C563 0.950 . S
H568 C565 0.950 . S
C569 C560 1.390 . S
C569 H562 0.950 . S
C569 C566 1.387 . S
C570 C571 1.387 . S
C570 H574 0.950 . S
C570 C579 1.390 . S
C571 C570 1.387 . S
C571 C573 1.387 . S
H572 C579 0.950 . S
C573 C571 1.387 . S
C573 C575 1.390 . S
C573 H577 0.950 . S
H574 C570 0.950 . S
C575 C573 1.390 . S
C575 C576 1.387 . S
C575 H578 0.950 . S
C576 C575 1.387 . S
C576 C579 1.387 . S
H577 C573 0.950 . S
H578 C575 0.950 . S
C579 C570 1.390 . S
C579 H572 0.950 . S
C579 C576 1.387 . S
C580 C581 1.387 . S
C580 H584 0.950 . S
C580 C589 1.390 . S
C581 C580 1.387 . S
C581 C583 1.387 . S
H582 C589 0.950 . S
C583 C581 1.387 . S
C583 C585 1.390 . S
C583 H587 0.950 . S
H584 C580 0.950 . S
C585 C583 1.390 . S
C585 C586 1.387 . S
C585 H588 0.950 . S
C586 C585 1.387 . S
C586 C589 1.387 . S
H587 C583 0.950 . S
H588 C585 0.950 . S
C589 C580 1.390 . S
C589 H582 0.950 . S
C589 C586 1.387 . S
C590 C591 1.387 . S
C590 H594 0.950 . S
C590 C599 1.390 . S
C591 C590 1.387 . S
C591 C593 1.387 . S
H592 C599 0.950 . S
C593 C591 1.387 . S
C593 C595 1.390 . S
C593 H597 0.950 1_554 S
H594 C590 0.950 . S
C595 C593 1.390 . S
C595 C596 1.387 . S
C595 H598 0.950 1_554 S
C596 C595 1.387 . S
C596 C599 1.387 . S
H597 C593 0.950 1_556 S
H598 C595 0.950 1_556 S
C599 C590 1.390 . S
C599 H592 0.950 . S
C599 C596 1.387 . S
C600 C601 1.387 . S
C600 H604 0.950 . S
C600 C609 1.390 . S
C601 C600 1.387 . S
C601 C603 1.387 . S
H602 C609 0.950 . S
C603 C601 1.387 . S
C603 C605 1.390 . S
C603 H607 0.950 . S
H604 C600 0.950 . S
C605 C603 1.390 . S
C605 C606 1.387 . S
C605 H608 0.950 . S
C606 C605 1.387 . S
C606 C609 1.387 . S
H607 C603 0.950 . S
H608 C605 0.950 . S
C609 C600 1.390 . S
C609 H602 0.950 . S
C609 C606 1.387 . S
C610 C611 1.387 . S
C610 H614 0.950 . S
C610 C619 1.390 . S
C611 C610 1.387 . S
C611 C613 1.387 . S
H612 C619 0.950 . S
C613 C611 1.387 . S
C613 C615 1.390 . S
C613 H617 0.950 . S
H614 C610 0.950 . S
C615 C613 1.390 . S
C615 C616 1.387 . S
C615 H618 0.950 . S
C616 C615 1.387 . S
C616 C619 1.387 . S
H617 C613 0.950 . S
H618 C615 0.950 . S
C619 C610 1.390 . S
C619 H612 0.950 . S
C619 C616 1.387 . S
C620 C621 1.387 . S
C620 H624 0.950 . S
C620 C629 1.390 . S
C621 C620 1.387 . S
C621 C623 1.387 . S
H622 C629 0.950 . S
C623 C621 1.387 . S
C623 C625 1.390 . S
C623 H627 0.950 . S
H624 C620 0.950 . S
C625 C623 1.390 . S
C625 C626 1.387 . S
C625 H628 0.950 . S
C626 C625 1.387 . S
C626 C629 1.387 . S
H627 C623 0.950 . S
H628 C625 0.950 . S
C629 C620 1.390 . S
C629 H622 0.950 . S
C629 C626 1.387 . S
C630 C631 1.387 . S
C630 H634 0.950 . S
C630 C639 1.390 . S
C631 C630 1.387 . S
C631 C633 1.387 . S
H632 C639 0.950 . S
C633 C631 1.387 . S
C633 C635 1.390 . S
C633 H637 0.950 . S
H634 C630 0.950 . S
C635 C633 1.390 . S
C635 C636 1.387 . S
C635 H638 0.950 . S
C636 C635 1.387 . S
C636 C639 1.387 . S
H637 C633 0.950 . S
H638 C635 0.950 . S
C639 C630 1.390 . S
C639 H632 0.950 . S
C639 C636 1.387 . S
C640 C641 1.387 . S
C640 H644 0.950 . S
C640 C649 1.390 . S
C641 C640 1.387 . S
C641 C643 1.387 . S
H642 C649 0.950 . S
C643 C641 1.387 . S
C643 C645 1.390 . S
C643 H647 0.950 . S
H644 C640 0.950 . S
C645 C643 1.390 . S
C645 C646 1.387 . S
C645 H648 0.950 . S
C646 C645 1.387 . S
C646 C649 1.387 . S
H647 C643 0.950 . S
H648 C645 0.950 . S
C649 C640 1.390 . S
C649 H642 0.950 . S
C649 C646 1.387 . S
C650 C651 1.387 . S
C650 H654 0.950 . S
C650 C659 1.390 . S
C651 C650 1.387 . S
C651 C653 1.387 . S
H652 C659 0.950 . S
C653 C651 1.387 . S
C653 C655 1.390 . S
C653 H657 0.950 . S
H654 C650 0.950 . S
C655 C653 1.390 . S
C655 C656 1.387 . S
C655 H658 0.950 . S
C656 C655 1.387 . S
C656 C659 1.387 . S
H657 C653 0.950 . S
H658 C655 0.950 . S
C659 C650 1.390 . S
C659 H652 0.950 . S
C659 C656 1.387 . S
C660 C661 1.387 . S
C660 H664 0.950 . S
C660 C669 1.390 . S
C661 C660 1.387 . S
C661 C663 1.387 . S
H662 C669 0.950 . S
C663 C661 1.387 . S
C663 C665 1.390 . S
C663 H667 0.950 . S
H664 C660 0.950 . S
C665 C663 1.390 . S
C665 C666 1.387 1_455 S
C665 H668 0.950 . S
C666 C665 1.387 1_655 S
C666 C669 1.387 1_655 S
H667 C663 0.950 . S
H668 C665 0.950 . S
C669 C660 1.390 . S
C669 H662 0.950 . S
C669 C666 1.387 1_455 S
C670 C671 1.387 . S
C670 H674 0.950 . S
C670 C679 1.390 . S
C671 C670 1.387 . S
C671 C673 1.387 . S
H672 C679 0.950 . S
C673 C671 1.387 . S
C673 C675 1.390 . S
C673 H677 0.950 . S
H674 C670 0.950 . S
C675 C673 1.390 . S
C675 C676 1.387 . S
C675 H678 0.950 . S
C676 C675 1.387 . S
C676 C679 1.387 . S
H677 C673 0.950 . S
H678 C675 0.950 . S
C679 C670 1.390 . S
C679 H672 0.950 . S
C679 C676 1.387 . S
C680 C681 1.387 . S
C680 H684 0.950 . S
C680 C689 1.390 . S
C681 C680 1.387 . S
C681 C683 1.387 . S
H682 C689 0.950 . S
C683 C681 1.387 . S
C683 C685 1.390 . S
C683 H687 0.950 . S
H684 C680 0.950 . S
C685 C683 1.390 . S
C685 C686 1.387 . S
C685 H688 0.950 . S
C686 C685 1.387 . S
C686 C689 1.387 . S
H687 C683 0.950 . S
H688 C685 0.950 . S
C689 C680 1.390 . S
C689 H682 0.950 . S
C689 C686 1.387 . S
C690 C691 1.387 . S
C690 H694 0.950 . S
C690 C699 1.390 . S
C691 C690 1.387 . S
C691 C693 1.387 . S
H692 C699 0.950 . S
C693 C691 1.387 . S
C693 C695 1.390 . S
C693 H697 0.950 . S
H694 C690 0.950 . S
C695 C693 1.390 . S
C695 C696 1.387 . S
C695 H698 0.950 . S
C696 C695 1.387 . S
C696 C699 1.387 . S
H697 C693 0.950 . S
H698 C695 0.950 . S
C699 C690 1.390 . S
C699 H692 0.950 . S
C699 C696 1.387 . S
C700 C701 1.387 . S
C700 H704 0.950 . S
C700 C709 1.390 . S
C701 C700 1.387 . S
C701 C703 1.387 . S
H702 C709 0.950 1_545 S
C703 C701 1.387 . S
C703 C705 1.390 . S
C703 H707 0.950 . S
H704 C700 0.950 . S
C705 C703 1.390 . S
C705 C706 1.387 . S
C705 H708 0.950 . S
C706 C705 1.387 . S
C706 C709 1.387 . S
H707 C703 0.950 . S
H708 C705 0.950 . S
C709 C700 1.390 . S
C709 H702 0.950 1_565 S
C709 C706 1.387 . S
C710 C711 1.387 . S
C710 H714 0.950 1_545 S
C710 C719 1.390 . S
C711 C710 1.387 . S
C711 C713 1.387 . S
H712 C719 0.950 . S
C713 C711 1.387 . S
C713 C715 1.390 . S
C713 H717 0.950 . S
H714 C710 0.950 1_565 S
C715 C713 1.390 . S
C715 C716 1.387 . S
C715 H718 0.950 . S
C716 C715 1.387 . S
C716 C719 1.387 . S
H717 C713 0.950 . S
H718 C715 0.950 . S
C719 C710 1.390 . S
C719 H712 0.950 . S
C719 C716 1.387 . S
C361 N6 1.686 . S
C366 N336 1.624 . S
C371 C271 2.318 . S
C376 C31 2.330 1_655 S
C381 N66 2.152 . S
C386 C241 2.256 . S
C391 C91 2.304 . S
C396 C301 2.292 . S
C401 N126 1.352 . S
C406 N306 1.453 . S
C411 N156 1.717 . S
C416 C331 1.757 . S
C421 N276 1.870 1_554 S
C426 C181 1.963 . S
C431 N216 0.955 . S
C436 N246 0.874 . S
C441 N96 1.652 . S
C446 C121 1.711 . S
C451 C1 2.459 . S
C456 C151 2.507 1_455 S
C461 N36 0.882 . S
C466 N186 0.817 . S
C471 C211 2.390 . S
C476 C61 2.382 . S
C481 C16 1.221 . S
C486 C250 1.226 . S
C491 C57 1.583 1_655 S
C496 C310 1.518 . S
C501 N344 1.062 . S
C506 C76 1.009 . S
C511 C117 1.837 . S
C516 C280 1.848 . S
C521 C136 1.020 . S
C526 N284 1.015 . S
C531 N254 1.077 . S
C536 C166 1.053 . S
C541 N314 1.220 . S
C546 C207 1.221 . S
C551 C340 1.300 . S
C556 C226 1.343 . S
C561 C10 1.709 . S
C566 C106 1.699 . S
C571 C27 1.015 . S
C576 N44 1.022 . S
C581 C46 1.792 . S
C586 C70 1.769 . S
C591 N104 1.276 1_565 S
C596 C87 1.247 . S
C601 C177 1.365 . S
C606 C130 1.361 . S
C611 C160 1.758 . S
C616 C196 1.799 . S
C621 N194 1.128 . S
C626 C237 1.132 . S
C631 C147 1.272 . S
C636 C220 1.253 . S
C641 C256 1.495 . S
C646 C100 1.500 . S
C651 N164 1.443 . S
C656 C297 1.411 . S
C661 C267 1.145 . S
C666 C190 1.118 . S
C671 C327 1.254 . S
C676 N224 1.249 . S
C681 N134 0.697 . S
C686 C346 0.704 . S
C691 C357 0.970 . S
C696 C40 0.972 . S
C701 N74 1.294 . S
C706 C286 1.275 . S
C711 C316 1.300 1_545 S
C716 N14 1.291 1_655 S
