# Generated by pormake.
# Topology zfa, (5)-cn, num edge types: 1
# Building blocks:
#     Node 0, Type 0, BuildingBlock: XOMCOT_clean_sbu_0, # of connection points: 5
#     Node 1, Type 0, BuildingBlock: XOMCOT_clean_sbu_0, # of connection points: 5
#     Node 2, Type 0, BuildingBlock: XOMCOT_clean_sbu_0, # of connection points: 5
#     Node 3, Type 0, BuildingBlock: XOMCOT_clean_sbu_0, # of connection points: 5
#     Node 4, Type 0, BuildingBlock: XOMCOT_clean_sbu_0, # of connection points: 5
#     Node 5, Type 0, BuildingBlock: XOMCOT_clean_sbu_0, # of connection points: 5
#     Node 6, Type 0, BuildingBlock: XOMCOT_clean_sbu_0, # of connection points: 5
#     Node 7, Type 0, BuildingBlock: XOMCOT_clean_sbu_0, # of connection points: 5
#     Edge 8, Type (0, 0), BuildingBlock: EZIPEK_clean_linker_0, # of connection points: 2
#     Edge 9, Type (0, 0), BuildingBlock: EZIPEK_clean_linker_0, # of connection points: 2
#     Edge 10, Type (0, 0), BuildingBlock: EZIPEK_clean_linker_0, # of connection points: 2
#     Edge 11, Type (0, 0), BuildingBlock: EZIPEK_clean_linker_0, # of connection points: 2
#     Edge 12, Type (0, 0), BuildingBlock: EZIPEK_clean_linker_0, # of connection points: 2
#     Edge 13, Type (0, 0), BuildingBlock: EZIPEK_clean_linker_0, # of connection points: 2
#     Edge 14, Type (0, 0), BuildingBlock: EZIPEK_clean_linker_0, # of connection points: 2
#     Edge 15, Type (0, 0), BuildingBlock: EZIPEK_clean_linker_0, # of connection points: 2
#     Edge 16, Type (0, 0), BuildingBlock: EZIPEK_clean_linker_0, # of connection points: 2
#     Edge 17, Type (0, 0), BuildingBlock: EZIPEK_clean_linker_0, # of connection points: 2
#     Edge 18, Type (0, 0), BuildingBlock: EZIPEK_clean_linker_0, # of connection points: 2
#     Edge 19, Type (0, 0), BuildingBlock: EZIPEK_clean_linker_0, # of connection points: 2
#     Edge 20, Type (0, 0), BuildingBlock: EZIPEK_clean_linker_0, # of connection points: 2
#     Edge 21, Type (0, 0), BuildingBlock: EZIPEK_clean_linker_0, # of connection points: 2
#     Edge 22, Type (0, 0), BuildingBlock: EZIPEK_clean_linker_0, # of connection points: 2
#     Edge 23, Type (0, 0), BuildingBlock: EZIPEK_clean_linker_0, # of connection points: 2
#     Edge 24, Type (0, 0), BuildingBlock: EZIPEK_clean_linker_0, # of connection points: 2
#     Edge 25, Type (0, 0), BuildingBlock: EZIPEK_clean_linker_0, # of connection points: 2
#     Edge 26, Type (0, 0), BuildingBlock: EZIPEK_clean_linker_0, # of connection points: 2
#     Edge 27, Type (0, 0), BuildingBlock: EZIPEK_clean_linker_0, # of connection points: 2
# Relax obj value: 0.223
# Max RMSD: 0.196
# Mean RMSD: 0.196
data_MOF--net-zfa--node1-XOMCOT_clean_sbu_0--edge1-EZIPEK_clean_linker_0
_symmetry_space_group_name_H-M    P1
_symmetry_Int_Tables_number       1
_symmetry_cell_setting            triclinic
loop_
_symmetry_equiv_pos_as_xyz
'x, y, z'
_cell_length_a     23.899676
_cell_length_b     23.877722
_cell_length_c     30.744482
_cell_angle_alpha  89.673281
_cell_angle_beta   89.490631
_cell_angle_gamma 90.231684
loop_
_atom_site_label
_atom_site_type_symbol
_atom_site_fract_x
_atom_site_fract_y
_atom_site_fract_z
_atom_type_partial_charge
Co0 Co 0.1197 0.24599 0.36577 0.0
C1 C 0.10432 0.36953 0.35509 0.0
C2 C 0.09955 0.34134 0.42128 0.0
C3 C 0.08154 0.39557 0.41968 0.0
N4 N 0.11485 0.32467 0.38102 0.0
N5 N 0.08377 0.41307 0.3781 0.0
H6 H 0.10599 0.36897 0.32 0.0
H7 H 0.0954 0.31423 0.44936 0.0
C8 C 0.18853 0.24982 0.44783 0.0
O9 O 0.22024 0.28861 0.42961 0.0
N10 N 0.12132 0.16739 0.35278 0.0
C11 C 0.13189 0.14184 0.31489 0.0
C12 C 0.10933 0.08858 0.31721 0.0
C13 C 0.09413 0.12965 0.37757 0.0
N14 N 0.08506 0.08052 0.35691 0.0
C15 C 0.20654 0.29094 0.30815 0.0
C16 C 0.29142 0.2217 0.33658 0.0
C17 C 0.30352 0.26099 0.30384 0.0
C18 C 0.26017 0.29554 0.28928 0.0
C19 C 0.23725 0.2183 0.35437 0.0
N20 N 0.19584 0.25404 0.34139 0.0
H21 H 0.17341 0.31602 0.29501 0.0
H22 H 0.22853 0.18638 0.37847 0.0
H23 H 0.14839 0.16247 0.28608 0.0
H24 H 0.07483 0.14209 0.40772 0.0
O25 O 0.07479 0.25979 0.31385 0.0
O26 O 0.04011 0.23924 0.37875 0.0
O27 O 0.14853 0.22776 0.42631 0.0
C28 C 0.03057 0.25071 0.33814 0.0
H29 H 0.06396 0.41914 0.44648 0.0
H30 H 0.10488 0.06146 0.28943 0.0
H31 H 0.32347 0.19337 0.34796 0.0
H32 H 0.26761 0.32545 0.26323 0.0
Co33 Co 0.29183 0.61203 0.85403 0.0
C34 C 0.16787 0.59599 0.85369 0.0
C35 C 0.20836 0.55818 0.90864 0.0
C36 C 0.15314 0.54278 0.9094 0.0
N37 N 0.21785 0.59081 0.87352 0.0
N38 N 0.12758 0.5661 0.87485 0.0
H39 H 0.16172 0.62017 0.8243 0.0
H40 H 0.24018 0.54431 0.93101 0.0
C41 C 0.32997 0.68341 0.93206 0.0
O42 O 0.35139 0.72252 0.90665 0.0
N43 N 0.36712 0.63224 0.83447 0.0
C44 C 0.38602 0.64891 0.77792 0.0
C45 C 0.46999 0.66936 0.78064 0.0
C46 C 0.42572 0.63891 0.8713 0.0
N47 N 0.48684 0.65988 0.83863 0.0
C48 C 0.26504 0.69482 0.78896 0.0
C49 C 0.23587 0.77978 0.84515 0.0
C50 C 0.24554 0.793 0.80114 0.0
C51 C 0.25766 0.74914 0.77259 0.0
C52 C 0.24377 0.72457 0.86 0.0
N53 N 0.26365 0.68425 0.83265 0.0
H54 H 0.27329 0.66141 0.76648 0.0
H55 H 0.23504 0.7145 0.89357 0.0
H56 H 0.36076 0.64292 0.74938 0.0
H57 H 0.42739 0.62224 0.90378 0.0
O58 O 0.28342 0.5662 0.80203 0.0
O59 O 0.31553 0.53564 0.86456 0.0
O60 O 0.30563 0.64063 0.91572 0.0
C61 C 0.30196 0.524 0.82483 0.0
H62 H 0.13333 0.51492 0.93287 0.0
H63 H 0.49969 0.67081 0.75388 0.0
H64 H 0.22374 0.81205 0.86793 0.0
H65 H 0.26284 0.75708 0.73806 0.0
Co66 Co 0.91637 0.77808 0.35316 0.0
C67 C 0.96291 0.662 0.34903 0.0
C68 C 0.90747 0.67263 0.40357 0.0
C69 C 0.92851 0.6192 0.40504 0.0
N70 N 0.92912 0.69989 0.36856 0.0
N71 N 0.96344 0.61295 0.37097 0.0
H72 H 0.9882 0.67016 0.32035 0.0
H73 H 0.87951 0.69031 0.42753 0.0
C74 C 0.84886 0.81916 0.43204 0.0
O75 O 0.81158 0.84372 0.40729 0.0
N76 N 0.90349 0.85632 0.33815 0.0
C77 C 0.89025 0.8815 0.28293 0.0
C78 C 0.87576 0.96615 0.29057 0.0
C79 C 0.89967 0.91165 0.37852 0.0
N80 N 0.88416 0.97687 0.34951 0.0
C81 C 0.83314 0.75725 0.2878 0.0
C82 C 0.74403 0.73831 0.34384 0.0
C83 C 0.73331 0.74236 0.29917 0.0
C84 C 0.77947 0.74877 0.27088 0.0
C85 C 0.79889 0.74266 0.35895 0.0
N86 N 0.84194 0.75748 0.33163 0.0
H87 H 0.86753 0.76435 0.26548 0.0
H88 H 0.80586 0.73528 0.39292 0.0
H89 H 0.89305 0.85766 0.25325 0.0
H90 H 0.91571 0.90937 0.41102 0.0
O91 O 0.961 0.76947 0.30007 0.0
O92 O 0.99445 0.79567 0.36348 0.0
O93 O 0.88911 0.79139 0.41513 0.0
C94 C 1.00432 0.7842 0.32287 0.0
H95 H 0.92078 0.58806 0.43014 0.0
H96 H 0.87616 0.99836 0.26567 0.0
H97 H 0.71027 0.73177 0.36707 0.0
H98 H 0.77372 0.74992 0.23598 0.0
Co99 Co 0.76052 0.41463 0.8581 0.0
C100 C 0.87878 0.45155 0.85053 0.0
C101 C 0.86902 0.38475 0.8969 0.0
C102 C 0.92317 0.40472 0.89903 0.0
N103 N 0.8408 0.41494 0.86707 0.0
N104 N 0.92862 0.44685 0.87005 0.0
H105 H 0.87009 0.48334 0.82643 0.0
H106 H 0.85099 0.35243 0.9174 0.0
C107 C 0.70712 0.36412 0.93943 0.0
O108 O 0.66222 0.35127 0.91727 0.0
N109 N 0.68046 0.41587 0.8484 0.0
C110 C 0.6529 0.39822 0.81314 0.0
C111 C 0.60197 0.42522 0.81157 0.0
C112 C 0.64572 0.45259 0.86765 0.0
N113 N 0.59656 0.4592 0.84659 0.0
C114 C 0.78391 0.33462 0.79026 0.0
C115 C 0.76038 0.23833 0.83743 0.0
C116 C 0.77689 0.2331 0.79404 0.0
C117 C 0.78913 0.28202 0.77027 0.0
C118 C 0.75575 0.29133 0.85605 0.0
N119 N 0.76656 0.3392 0.83265 0.0
H120 H 0.79372 0.37175 0.77148 0.0
H121 H 0.74373 0.29231 0.88938 0.0
H122 H 0.6711 0.37347 0.78736 0.0
H123 H 0.66003 0.47928 0.8933 0.0
O124 O 0.76934 0.46184 0.80612 0.0
O125 O 0.75759 0.49359 0.87275 0.0
O126 O 0.75006 0.3856 0.92038 0.0
C127 C 0.7634 0.50496 0.83166 0.0
H128 H 0.95508 0.39155 0.92162 0.0
H129 H 0.57559 0.42487 0.7833 0.0
H130 H 0.75094 0.20147 0.85691 0.0
H131 H 0.80235 0.27956 0.73655 0.0
Co132 Co 0.62178 0.27826 0.20489 0.0
C133 C 0.60625 0.15556 0.21789 0.0
C134 C 0.61671 0.17912 0.15084 0.0
C135 C 0.59874 0.12481 0.15258 0.0
N136 N 0.62116 0.19903 0.19168 0.0
N137 N 0.5913 0.1101 0.19452 0.0
H138 H 0.60248 0.1583 0.2529 0.0
H139 H 0.62076 0.20331 0.12122 0.0
C140 C 0.67167 0.33575 0.12372 0.0
O141 O 0.68022 0.3829 0.14438 0.0
N142 N 0.61932 0.35768 0.21663 0.0
C143 C 0.63575 0.38666 0.2516 0.0
C144 C 0.61064 0.43889 0.25021 0.0
C145 C 0.58484 0.39217 0.19512 0.0
N146 N 0.57919 0.44298 0.21376 0.0
C147 C 0.70242 0.24559 0.26983 0.0
C148 C 0.79709 0.28775 0.22881 0.0
C149 C 0.80314 0.26099 0.26895 0.0
C150 C 0.75496 0.23979 0.28972 0.0
C151 C 0.74408 0.29306 0.21036 0.0
N152 N 0.6971 0.27187 0.2304 0.0
H153 H 0.66589 0.22892 0.28634 0.0
H154 H 0.74221 0.31476 0.18011 0.0
H155 H 0.65943 0.36939 0.27829 0.0
H156 H 0.56031 0.37756 0.16825 0.0
O157 O 0.5751 0.26515 0.25664 0.0
O158 O 0.54232 0.28064 0.19101 0.0
O159 O 0.65268 0.29234 0.14358 0.0
C160 C 0.53152 0.27122 0.2319 0.0
H161 H 0.58834 0.09893 0.12495 0.0
H162 H 0.61142 0.4683 0.2767 0.0
H163 H 0.83329 0.30488 0.21185 0.0
H164 H 0.75794 0.21895 0.32098 0.0
Co165 Co 0.25521 0.11439 0.7047 0.0
C166 C 0.37568 0.08412 0.70453 0.0
C167 C 0.33943 0.08328 0.64083 0.0
C168 C 0.39252 0.06229 0.63772 0.0
N169 N 0.32872 0.09689 0.68262 0.0
N170 N 0.41484 0.06227 0.67768 0.0
H171 H 0.37999 0.08748 0.73938 0.0
H172 H 0.30946 0.08446 0.61474 0.0
C173 C 0.2134 0.19179 0.63216 0.0
O174 O 0.19311 0.2269 0.66099 0.0
N175 N 0.17997 0.13081 0.72586 0.0
C176 C 0.16097 0.14228 0.78301 0.0
C177 C 0.07712 0.16269 0.78108 0.0
C178 C 0.12144 0.14052 0.68927 0.0
N179 N 0.06035 0.15842 0.72277 0.0
C180 C 0.27942 0.19714 0.76976 0.0
C181 C 0.31535 0.28093 0.71384 0.0
C182 C 0.30317 0.29454 0.75725 0.0
C183 C 0.28762 0.25125 0.78579 0.0
C184 C 0.30558 0.22617 0.69912 0.0
N185 N 0.28273 0.1865 0.72627 0.0
H186 H 0.26957 0.16393 0.79231 0.0
H187 H 0.31461 0.21633 0.66556 0.0
H188 H 0.1862 0.13388 0.81124 0.0
H189 H 0.12003 0.12694 0.65588 0.0
O190 O 0.26646 0.06751 0.75599 0.0
O191 O 0.23411 0.03697 0.69406 0.0
O192 O 0.23795 0.14711 0.64483 0.0
C193 C 0.24897 0.02485 0.73364 0.0
H194 H 0.41206 0.04484 0.60894 0.0
H195 H 0.04736 0.16173 0.80781 0.0
H196 H 0.33007 0.3128 0.69125 0.0
H197 H 0.28086 0.25942 0.82005 0.0
Co198 Co 0.41749 0.7477 0.20137 0.0
C199 C 0.46488 0.86293 0.20777 0.0
C200 C 0.41372 0.85382 0.15125 0.0
C201 C 0.43433 0.90772 0.15196 0.0
N202 N 0.43316 0.82541 0.18612 0.0
N203 N 0.46645 0.91293 0.18737 0.0
H204 H 0.4876 0.85412 0.23725 0.0
H205 H 0.38695 0.83684 0.12644 0.0
C206 C 0.35204 0.70719 0.12062 0.0
O207 O 0.31424 0.68129 0.14472 0.0
N208 N 0.40131 0.67046 0.2174 0.0
C209 C 0.37956 0.64847 0.27212 0.0
C210 C 0.36294 0.56395 0.2659 0.0
C211 C 0.40102 0.61338 0.17861 0.0
N212 N 0.37913 0.55005 0.20821 0.0
C213 C 0.3341 0.77309 0.26659 0.0
C214 C 0.24584 0.78861 0.21054 0.0
C215 C 0.23446 0.78556 0.25534 0.0
C216 C 0.28012 0.7811 0.28357 0.0
C217 C 0.30099 0.78395 0.19529 0.0
N218 N 0.3434 0.77038 0.22274 0.0
H219 H 0.36821 0.76779 0.28893 0.0
H220 H 0.3092 0.79077 0.16138 0.0
H221 H 0.37983 0.6734 0.30131 0.0
H222 H 0.42107 0.61392 0.14718 0.0
O223 O 0.46065 0.7557 0.25465 0.0
O224 O 0.49535 0.72821 0.19162 0.0
O225 O 0.39197 0.73458 0.13847 0.0
C226 C 0.50432 0.74024 0.23215 0.0
H227 H 0.42783 0.94007 0.12774 0.0
H228 H 0.35909 0.53303 0.29163 0.0
H229 H 0.21241 0.79446 0.18742 0.0
H230 H 0.27376 0.7811 0.3185 0.0
Co231 Co 0.7838 0.9148 0.69923 0.0
C232 C 0.66439 0.94922 0.70446 0.0
C233 C 0.6753 0.87335 0.66846 0.0
C234 C 0.61971 0.88811 0.66696 0.0
N235 N 0.70354 0.91225 0.69126 0.0
N236 N 0.61339 0.93586 0.68944 0.0
H237 H 0.6725 0.98616 0.72349 0.0
H238 H 0.69391 0.83734 0.65316 0.0
C239 C 0.83674 0.86775 0.61656 0.0
O240 O 0.88458 0.86104 0.63651 0.0
N241 N 0.86368 0.91783 0.70809 0.0
C242 C 0.8921 0.89874 0.74254 0.0
C243 C 0.94346 0.92518 0.74321 0.0
C244 C 0.89808 0.95504 0.68847 0.0
N245 N 0.9481 0.9603 0.70846 0.0
C246 C 0.75173 0.83356 0.76423 0.0
C247 C 0.79671 0.74036 0.72422 0.0
C248 C 0.76852 0.73345 0.76378 0.0
C249 C 0.7459 0.78073 0.78412 0.0
C250 C 0.802 0.79363 0.70576 0.0
N251 N 0.77957 0.83973 0.72543 0.0
H252 H 0.73346 0.86966 0.77983 0.0
H253 H 0.82429 0.79651 0.6757 0.0
H254 H 0.87447 0.87287 0.76823 0.0
H255 H 0.88359 0.98167 0.66259 0.0
O256 O 0.77498 0.96185 0.75088 0.0
O257 O 0.78526 0.99395 0.68394 0.0
O258 O 0.79321 0.88466 0.63735 0.0
C259 C 0.78012 1.00521 0.72504 0.0
H260 H 0.58686 0.86675 0.6495 0.0
H261 H 0.97117 0.92336 0.77068 0.0
H262 H 0.81491 0.70469 0.70778 0.0
H263 H 0.7239 0.77677 0.81494 0.0
C264 C 0.0512 0.56325 0.3866 0.0
C265 C 0.99995 0.56613 0.36407 0.0
C266 C 1.01094 0.46909 0.34025 0.0
C267 C 0.06202 0.46614 0.36355 0.0
N268 N 0.13856 0.51384 0.39697 0.0
N269 N 0.93615 0.52782 0.31236 0.0
C270 C 0.08486 0.5149 0.3823 0.0
C271 C 0.98187 0.521 0.33814 0.0
N272 N 0.06567 0.60506 0.41445 0.0
N273 N 0.98846 0.42186 0.32265 0.0
H274 H 0.91362 0.56516 0.31155 0.0
H275 H 0.92316 0.4985 0.28961 0.0
H276 H 1.00923 0.38375 0.32203 0.0
H277 H 0.94816 0.41967 0.3102 0.0
H278 H 0.09982 0.60283 0.43518 0.0
H279 H 0.04081 0.64027 0.41928 0.0
H280 H 0.15962 0.54921 0.40803 0.0
H281 H 0.16357 0.47829 0.39384 0.0
C282 C 0.98011 0.52876 0.89802 0.0
C283 C 0.97415 0.48615 0.86647 0.0
C284 C 0.057 0.52126 0.82778 0.0
C285 C 0.06983 0.55503 0.86411 0.0
N286 N 0.0396 0.60131 0.92883 0.0
N287 N 1.00493 0.44138 0.8009 0.0
C288 C 0.02916 0.56275 0.89727 0.0
C289 C 1.01156 0.4829 0.83079 0.0
N290 N 0.93911 0.5358 0.92872 0.0
N291 N 0.08689 0.52708 0.79011 0.0
H292 H 0.97154 0.4131 0.80227 0.0
H293 H 0.03438 0.43254 0.77675 0.0
H294 H 0.11754 0.55761 0.78596 0.0
H295 H 0.07653 0.50682 0.76136 0.0
H296 H 0.93855 0.56804 0.9513 0.0
H297 H 0.90357 0.51038 0.9303 0.0
H298 H 1.015 0.60691 0.95651 0.0
H299 H 0.07417 0.62816 0.9268 0.0
C300 C 0.48058 1.0039 0.22321 0.0
C301 C 0.50174 0.95976 0.19755 0.0
C302 C 0.59108 1.00861 0.19042 0.0
C303 C 0.56657 0.05741 0.20777 0.0
N304 N 0.48747 0.10177 0.24271 0.0
N305 N 0.57435 0.92258 0.15169 0.0
C306 C 0.51148 0.05494 0.22574 0.0
C307 C 0.55666 0.96228 0.18035 0.0
N308 N 0.43054 0.99698 0.24436 0.0
N309 N 0.64718 1.00814 0.18195 0.0
H310 H 0.54871 0.88967 0.14187 0.0
H311 H 0.61225 0.92515 0.13479 0.0
H312 H 0.67266 0.04244 0.1892 0.0
H313 H 0.66865 0.97242 0.17211 0.0
H314 H 0.41464 0.02536 0.26684 0.0
H315 H 0.40686 0.96035 0.24169 0.0
H316 H 0.44527 0.10446 0.2511 0.0
H317 H 0.5092 0.13898 0.24716 0.0
C318 C 0.56394 0.02201 0.668 0.0
C319 C 0.56432 0.97033 0.6908 0.0
C320 C 0.46503 0.98083 0.7081 0.0
C321 C 0.46614 0.03475 0.68851 0.0
N322 N 0.51853 0.11167 0.65825 0.0
N323 N 0.51906 0.90523 0.7396 0.0
C324 C 0.5166 0.05711 0.67161 0.0
C325 C 0.51601 0.95137 0.71336 0.0
N326 N 0.60677 0.03533 0.64015 0.0
N327 N 0.41509 0.95615 0.71864 0.0
H328 H 0.55621 0.88308 0.74377 0.0
H329 H 0.48634 0.89217 0.75991 0.0
H330 H 0.3768 0.97549 0.71311 0.0
H331 H 0.41144 0.91474 0.72915 0.0
H332 H 0.6064 0.07039 0.61983 0.0
H333 H 0.63993 1.00818 0.63404 0.0
H334 H 0.55554 0.13185 0.64898 0.0
H335 H 0.48378 0.13788 0.6606 0.0
C336 C 0.43129 0.23468 0.23 0.0
C337 C 0.47247 0.26968 0.24955 0.0
C338 C 0.40073 0.30328 0.30178 0.0
C339 C 0.36129 0.26503 0.28438 0.0
N340 N 0.33939 0.19076 0.23474 0.0
N341 N 0.49618 0.33826 0.30397 0.0
C342 C 0.37664 0.23007 0.24907 0.0
C343 C 0.45706 0.30409 0.28553 0.0
N344 N 0.44413 0.20562 0.19304 0.0
N345 N 0.38362 0.34009 0.33312 0.0
H346 H 0.53535 0.34596 0.29018 0.0
H347 H 0.49078 0.35818 0.33369 0.0
H348 H 0.34345 0.33954 0.34665 0.0
H349 H 0.40759 0.37349 0.34412 0.0
H350 H 0.41429 0.18653 0.17356 0.0
H351 H 0.48458 0.20165 0.18066 0.0
H352 H 0.34976 0.1589 0.21321 0.0
H353 H 0.29847 0.18754 0.2466 0.0
C354 C 0.28925 0.9461 0.78162 0.0
C355 C 0.24741 0.96534 0.75181 0.0
C356 C 0.20166 0.87187 0.75802 0.0
C357 C 0.24524 0.85255 0.78504 0.0
N358 N 0.33666 0.86727 0.81499 0.0
N359 N 0.16686 0.94093 0.7077 0.0
C360 C 0.29039 0.8887 0.79501 0.0
C361 C 0.20486 0.92647 0.73869 0.0
N362 N 0.3291 0.98173 0.79719 0.0
N363 N 0.15543 0.8388 0.7524 0.0
H364 H 0.15775 0.98184 0.69871 0.0
H365 H 0.14353 0.91145 0.69071 0.0
H366 H 0.15132 0.79899 0.76625 0.0
H367 H 0.11916 0.85229 0.73714 0.0
H368 H 0.35268 0.97278 0.8247 0.0
H369 H 0.33904 0.02032 0.78365 0.0
H370 H 0.37432 0.88903 0.8177 0.0
H371 H 0.33955 0.82573 0.82537 0.0
C372 C 0.60427 0.77658 0.23102 0.0
C373 C 0.56235 0.7417 0.25033 0.0
C374 C 0.63448 0.70135 0.29724 0.0
C375 C 0.67426 0.74176 0.28232 0.0
N376 N 0.68756 0.83059 0.24519 0.0
N377 N 0.53664 0.68315 0.31196 0.0
C378 C 0.65658 0.78307 0.25204 0.0
C379 C 0.57694 0.70822 0.28683 0.0
N380 N 0.5949 0.80418 0.19287 0.0
N381 N 0.6515 0.65469 0.31922 0.0
H382 H 0.49404 0.68713 0.30604 0.0
H383 H 0.54584 0.66239 0.34095 0.0
H384 H 0.69357 0.64536 0.32409 0.0
H385 H 0.62418 0.62221 0.32778 0.0
H386 H 0.62699 0.82441 0.17567 0.0
H387 H 0.55707 0.80296 0.17653 0.0
H388 H 0.67351 0.86389 0.22614 0.0
H389 H 0.72344 0.83993 0.26281 0.0
C390 C 0.7385 0.15859 0.74448 0.0
C391 C 0.78014 0.17616 0.77399 0.0
C392 C 0.82062 0.0814 0.77305 0.0
C393 C 0.78081 0.06454 0.74134 0.0
N394 N 0.71031 0.0929 0.68948 0.0
N395 N 0.86719 0.15809 0.81006 0.0
C396 C 0.74255 0.10494 0.72467 0.0
C397 C 0.82299 0.13855 0.78652 0.0
N398 N 0.69336 0.19213 0.73675 0.0
N399 N 0.85665 0.04307 0.79022 0.0
H400 H 0.87038 0.19959 0.82021 0.0
H401 H 0.90305 0.13485 0.81623 0.0
H402 H 0.85998 1.00224 0.77902 0.0
H403 H 0.88137 0.05081 0.81726 0.0
H404 H 0.65811 0.17871 0.71999 0.0
H405 H 0.68869 0.23176 0.75037 0.0
H406 H 0.68715 0.123 0.67294 0.0
H407 H 0.7102 0.05434 0.67415 0.0
C408 C 0.93126 0.28853 0.34042 0.0
C409 C 0.97188 0.25278 0.32079 0.0
C410 C 0.89872 0.21633 0.27201 0.0
C411 C 0.86014 0.256 0.2887 0.0
N412 N 0.84169 0.3355 0.33433 0.0
N413 N 0.99472 0.18493 0.26538 0.0
C414 C 0.87687 0.29336 0.3219 0.0
C415 C 0.95573 0.21755 0.28572 0.0
N416 N 0.9444 0.31832 0.37679 0.0
N417 N 0.8802 0.17602 0.2441 0.0
H418 H 0.03556 0.18071 0.27621 0.0
H419 H 0.98761 0.16431 0.2362 0.0
H420 H 0.83894 0.17391 0.23341 0.0
H421 H 0.90408 0.14185 0.23442 0.0
H422 H 0.91468 0.3386 0.39595 0.0
H423 H 0.98467 0.32113 0.38918 0.0
H424 H 0.85384 0.36858 0.35409 0.0
H425 H 0.80138 0.34005 0.3221 0.0
C426 C 0.34704 0.42683 0.81902 0.0
C427 C 0.30341 0.46484 0.80746 0.0
C428 C 0.26108 0.39106 0.7619 0.0
C429 C 0.30482 0.35382 0.77303 0.0
N430 N 0.39332 0.33748 0.80714 0.0
N431 N 0.2095 0.47441 0.78002 0.0
C432 C 0.34844 0.37186 0.80069 0.0
C433 C 0.25827 0.44487 0.78164 0.0
N434 N 0.38642 0.44213 0.84866 0.0
N435 N 0.22166 0.37498 0.73242 0.0
H436 H 0.20264 0.51053 0.7979 0.0
H437 H 0.17309 0.45933 0.7659 0.0
H438 H 0.21892 0.33459 0.71991 0.0
H439 H 0.1939 0.40276 0.71791 0.0
H440 H 0.41154 0.41358 0.86503 0.0
H441 H 0.39425 0.48326 0.85771 0.0
H442 H 0.4299 0.34971 0.82259 0.0
H443 H 0.39606 0.29743 0.79393 0.0
C444 C 0.10407 0.74808 0.32301 0.0
C445 C 0.06279 0.78374 0.30466 0.0
C446 C 0.1362 0.82641 0.25873 0.0
C447 C 0.17527 0.78539 0.27249 0.0
N448 N 0.1884 0.69593 0.30831 0.0
N449 N 0.03885 0.84669 0.24575 0.0
C450 C 0.15702 0.74297 0.30202 0.0
C451 C 0.07846 0.81944 0.2694 0.0
N452 N 0.09347 0.7187 0.36037 0.0
N453 N 0.15418 0.87361 0.23748 0.0
H454 H 0.99619 0.84246 0.25182 0.0
H455 H 0.0485 0.86931 0.21754 0.0
H456 H 0.19642 0.8824 0.2319 0.0
H457 H 0.12766 0.90685 0.23014 0.0
H458 H 0.12465 0.69721 0.37701 0.0
H459 H 0.05541 0.71987 0.37689 0.0
H460 H 0.17416 0.66171 0.32656 0.0
H461 H 0.22528 0.68803 0.29109 0.0
C462 C 0.80512 0.65903 0.8141 0.0
C463 C 0.76439 0.67651 0.78378 0.0
C464 C 0.72434 0.58142 0.7832 0.0
C465 C 0.76359 0.56425 0.81525 0.0
N466 N 0.83471 0.59065 0.86719 0.0
N467 N 0.67968 0.65823 0.74464 0.0
C468 C 0.80176 0.60429 0.83263 0.0
C469 C 0.72239 0.63874 0.76982 0.0
N470 N 0.84853 0.69412 0.82399 0.0
N471 N 0.68871 0.54309 0.76546 0.0
H472 H 0.67742 0.69969 0.73391 0.0
H473 H 0.64415 0.63494 0.73723 0.0
H474 H 0.68536 0.50195 0.77638 0.0
H475 H 0.6643 0.55106 0.73827 0.0
H476 H 0.88374 0.68144 0.8411 0.0
H477 H 0.8516 0.73513 0.8123 0.0
H478 H 0.8575 0.62001 0.8847 0.0
H479 H 0.83656 0.55085 0.88079 0.0
C480 C 0.20505 0.27651 0.52643 0.0
C481 C 0.19659 0.23424 0.49471 0.0
C482 C 0.19463 0.16359 0.55349 0.0
C483 C 0.20947 0.2053 0.58443 0.0
N484 N 0.24521 0.299 0.59589 0.0
N485 N 0.19671 0.13544 0.47795 0.0
C486 C 0.21948 0.26101 0.5696 0.0
C487 C 0.1952 0.17715 0.5082 0.0
N488 N 0.19675 0.33166 0.51638 0.0
N489 N 0.17761 0.11154 0.5669 0.0
H490 H 0.19925 0.14306 0.44462 0.0
H491 H 0.20166 0.09334 0.48608 0.0
H492 H 0.17579 0.09895 0.59929 0.0
H493 H 0.16005 0.08231 0.54594 0.0
H494 H 0.19677 0.3631 0.53977 0.0
H495 H 0.18354 0.3456 0.48606 0.0
H496 H 0.25832 0.33835 0.5849 0.0
H497 H 0.2597 0.28913 0.62679 0.0
C498 C 0.30354 0.73197 0.04954 0.0
C499 C 0.34776 0.70472 0.07193 0.0
C500 C 0.37122 0.65534 1.0046 0.0
C501 C 0.33374 0.68925 0.98057 0.0
N502 N 0.27143 0.76874 0.98057 0.0
N503 N 0.43498 0.65451 0.06496 0.0
C504 C 0.30229 0.73056 1.0031 0.0
C505 C 0.38528 0.67089 0.0477 0.0
N506 N 0.26209 0.75837 0.07217 0.0
N507 N 0.39198 0.60713 0.98739 0.0
H508 H 0.44944 0.66983 0.09445 0.0
H509 H 0.46486 0.63242 0.04713 0.0
H510 H 0.37751 0.59075 0.95826 0.0
H511 H 0.41695 0.57966 1.0051 0.0
H512 H 0.22627 0.77411 0.05745 0.0
H513 H 0.26066 0.75965 0.10593 0.0
H514 H 0.25214 0.80287 0.99534 0.0
H515 H 0.26952 0.76944 0.94679 0.0
C516 C 0.87896 0.87908 0.54282 0.0
C517 C 0.83533 0.85658 0.56897 0.0
C518 C 0.79757 0.81051 0.50429 0.0
C519 C 0.84606 0.82699 0.48005 0.0
N520 N 0.94184 0.86156 0.48328 0.0
N521 N 0.75927 0.79031 0.57605 0.0
C522 C 0.88971 0.85619 0.5014 0.0
C523 C 0.79589 0.81953 0.55016 0.0
N524 N 0.90869 0.92433 0.5567 0.0
N525 N 0.75368 0.78528 0.48398 0.0
H526 H 0.75932 0.79327 0.60981 0.0
H527 H 0.73309 0.75889 0.56443 0.0
H528 H 0.75463 0.77431 0.45125 0.0
H529 H 0.71514 0.77822 0.49921 0.0
H530 H 0.93821 0.94507 0.5372 0.0
H531 H 0.89785 0.94532 0.58512 0.0
H532 H 0.97528 0.87919 0.50002 0.0
H533 H 0.95381 0.84294 0.4542 0.0
C534 C 0.72658 0.30882 0.05591 0.0
C535 C 0.67994 0.33529 0.07591 0.0
C536 C 0.66275 0.38792 1.00974 0.0
C537 C 0.7047 0.35785 0.98752 0.0
N538 N 0.77469 0.28538 0.98835 0.0
N539 N 0.59235 0.38224 0.06567 0.0
C540 C 0.7364 0.31696 1.01027 0.0
C541 C 0.64462 0.36948 0.05095 0.0
N542 N 0.7615 0.27671 0.08043 0.0
N543 N 0.64225 0.43617 0.99252 0.0
H544 H 0.5761 0.36479 0.09429 0.0
H545 H 0.56344 0.40365 0.04662 0.0
H546 H 0.65977 0.4539 0.96452 0.0
H547 H 0.61432 0.46182 1.00934 0.0
H548 H 0.79947 0.26116 0.06899 0.0
H549 H 0.75322 0.26742 0.11302 0.0
H550 H 0.79466 0.25084 1.00188 0.0
H551 H 0.78457 0.29232 0.95574 0.0
C552 C 0.94274 0.04263 0.39207 0.0
C553 C 0.93078 1.0107 0.35538 0.0
C554 C 0.02771 0.99539 0.3391 0.0
C555 C 0.04057 0.04061 0.3675 0.0
N556 N 1.01743 0.06895 0.44078 0.0
N557 N 0.94751 0.92982 0.3209 0.0
C558 C 1.00012 0.05381 0.40044 0.0
C559 C 0.97071 0.98014 0.33548 0.0
N560 N 0.90051 0.06001 0.41858 0.0
N561 N 0.06885 0.96719 0.31793 0.0
H562 H 0.8542 0.91224 0.33047 0.0
H563 H 0.97911 0.90234 0.30992 0.0
H564 H 0.11101 0.9746 0.32456 0.0
H565 H 0.06037 0.93681 0.29475 0.0
H566 H 0.90679 0.08644 0.44496 0.0
H567 H 0.85892 0.04973 0.41194 0.0
H568 H 0.99013 0.07569 0.4668 0.0
H569 H 0.05979 0.06786 0.44889 0.0
C570 C 0.49441 0.57432 0.82272 0.0
C571 C 0.52406 0.61553 0.8418 0.0
C572 C 0.5698 0.54668 0.88587 0.0
C573 C 0.55818 0.50608 0.85306 0.0
N574 N 0.48649 0.47745 0.80176 0.0
N575 N 0.57511 0.64601 0.90367 0.0
C576 C 0.513 0.51819 0.82435 0.0
C577 C 0.55782 0.60386 0.87742 0.0
N578 N 0.44125 0.59416 0.81219 0.0
N579 N 0.58218 0.52914 0.92675 0.0
H580 H 0.56395 0.68751 0.89732 0.0
H581 H 0.60261 0.63966 0.92936 0.0
H582 H 0.57896 0.48671 0.93467 0.0
H583 H 0.58727 0.55622 0.9529 0.0
H584 H 0.4148 0.561 0.8022 0.0
H585 H 0.41884 0.68574 0.82385 0.0
H586 H 0.45682 0.4866 0.77809 0.0
H587 H 0.49191 0.43518 0.8092 0.0
C588 C 0.46294 0.54491 0.22901 0.0
C589 C 0.42496 0.51464 0.20676 0.0
C590 C 0.49943 0.47118 0.16687 0.0
C591 C 0.53534 0.48287 0.20262 0.0
N592 N 0.55827 0.55671 0.25337 0.0
N593 N 0.403 0.46556 0.14168 0.0
C594 C 0.51973 0.52818 0.23008 0.0
C595 C 0.44144 0.48253 0.17119 0.0
N596 N 0.4399 0.59678 0.23985 0.0
N597 N 0.52231 0.45767 0.12775 0.0
H598 H 0.36081 0.47604 0.14529 0.0
H599 H 0.4128 0.43911 0.11588 0.0
H600 H 0.56572 0.45825 0.12349 0.0
H601 H 0.49888 0.45303 0.09957 0.0
H602 H 0.47092 0.62404 0.25203 0.0
H603 H 0.34907 0.61633 0.22319 0.0
H604 H 0.54676 0.58615 0.27653 0.0
H605 H 0.60109 0.55185 0.24768 0.0
C606 C 0.05247 0.07162 0.73454 0.0
C607 C 0.02288 0.11448 0.71768 0.0
C608 C 0.97468 0.05018 0.67144 0.0
C609 C 0.98732 1.00668 0.702 0.0
N610 N 0.06067 0.97279 0.74966 0.0
N611 N 0.97058 0.151 0.65831 0.0
C612 C 0.03368 1.01585 0.7301 0.0
C613 C 0.98802 0.10637 0.68216 0.0
N614 N 0.10561 0.09057 0.74621 0.0
N615 N 0.95943 0.03653 0.63036 0.0
H616 H 0.98265 0.19173 0.66638 0.0
H617 H 0.94218 0.14736 0.63294 0.0
H618 H 0.96123 0.99496 0.6203 0.0
H619 H 0.95324 0.06597 0.60574 0.0
H620 H 0.13195 0.05669 0.75467 0.0
H621 H 0.12844 0.18305 0.73876 0.0
H622 H 0.09104 0.97918 0.7733 0.0
H623 H 0.05405 0.93144 0.74017 0.0
loop_
_geom_bond_atom_site_label_1
_geom_bond_atom_site_label_2
_geom_bond_distance
_geom_bond_site_symmetry_2
_ccdc_geom_bond_type
Co0 N4 2.148 . S
Co0 N10 2.128 . S
Co0 N20 2.194 . S
Co0 O25 2.351 1_455 S
Co0 O26 2.155 1_455 S
Co0 O27 2.096 . S
C1 N4 1.301 . S
C1 N5 1.328 . S
C1 H6 0.930 . S
C2 C3 1.333 . S
C2 N4 1.317 . S
C2 H7 0.930 . S
C3 C2 1.333 . S
C3 N5 1.350 . S
C3 H29 0.931 . S
N4 Co0 2.148 . S
N4 C1 1.301 . S
N4 C2 1.317 . S
N5 C1 1.328 . S
N5 C3 1.350 . S
H6 C1 0.930 . S
H7 C2 0.930 . S
C8 O9 1.224 . S
C8 O27 1.247 . S
O9 C8 1.224 . S
N10 Co0 2.128 . S
N10 C11 1.355 . S
N10 C13 1.311 . S
C11 N10 1.355 . S
C11 C12 1.363 . S
C11 H23 0.929 . S
C12 C11 1.363 . S
C12 N14 1.375 . S
C12 H30 0.931 . S
C13 N10 1.311 . S
C13 N14 1.347 . S
C13 H24 0.929 . S
N14 C12 1.375 . S
N14 C13 1.347 . S
C15 C18 1.365 . S
C15 N20 1.328 . S
C15 H21 0.929 . S
C16 C17 1.362 . S
C16 C19 1.378 . S
C16 H31 0.929 . S
C17 C16 1.362 . S
C17 C18 1.366 . S
C18 C15 1.365 . S
C18 C17 1.366 . S
C18 H32 0.930 . S
C19 C16 1.378 . S
C19 N20 1.315 . S
C19 H22 0.930 . S
N20 Co0 2.194 . S
N20 C15 1.328 . S
N20 C19 1.315 . S
H21 C15 0.929 . S
H22 C19 0.930 . S
H23 C11 0.929 . S
H24 C13 0.929 . S
O25 Co0 2.351 1_655 S
O25 C28 1.244 . S
O26 Co0 2.155 1_655 S
O26 C28 1.240 . S
O27 Co0 2.096 . S
O27 C8 1.247 . S
C28 O25 1.244 . S
C28 O26 1.240 . S
H29 C3 0.931 . S
H30 C12 0.931 . S
H31 C16 0.929 . S
H32 C18 0.930 . S
Co33 N37 2.148 . S
Co33 N43 2.128 . S
Co33 N53 2.194 . S
Co33 O58 2.351 . S
Co33 O59 2.155 . S
Co33 O60 2.096 . S
C34 N37 1.301 . S
C34 N38 1.328 . S
C34 H39 0.930 . S
C35 C36 1.333 . S
C35 N37 1.317 . S
C35 H40 0.930 . S
C36 C35 1.333 . S
C36 N38 1.350 . S
C36 H62 0.931 . S
N37 Co33 2.148 . S
N37 C34 1.301 . S
N37 C35 1.317 . S
N38 C34 1.328 . S
N38 C36 1.350 . S
H39 C34 0.930 . S
H40 C35 0.930 . S
C41 O42 1.224 . S
C41 O60 1.247 . S
O42 C41 1.224 . S
N43 Co33 2.128 . S
N43 C44 1.355 . S
N43 C46 1.311 . S
C44 N43 1.355 . S
C44 C45 1.363 . S
C44 H56 0.929 . S
C45 C44 1.363 . S
C45 N47 1.375 . S
C45 H63 0.931 . S
C46 N43 1.311 . S
C46 N47 1.347 . S
C46 H57 0.929 . S
N47 C45 1.375 . S
N47 C46 1.347 . S
C48 C51 1.365 . S
C48 N53 1.328 . S
C48 H54 0.929 . S
C49 C50 1.362 . S
C49 C52 1.378 . S
C49 H64 0.929 . S
C50 C49 1.362 . S
C50 C51 1.366 . S
C51 C48 1.365 . S
C51 C50 1.366 . S
C51 H65 0.930 . S
C52 C49 1.378 . S
C52 N53 1.315 . S
C52 H55 0.930 . S
N53 Co33 2.194 . S
N53 C48 1.328 . S
N53 C52 1.315 . S
H54 C48 0.929 . S
H55 C52 0.930 . S
H56 C44 0.929 . S
H57 C46 0.929 . S
O58 Co33 2.351 . S
O58 C61 1.244 . S
O59 Co33 2.155 . S
O59 C61 1.240 . S
O60 Co33 2.096 . S
O60 C41 1.247 . S
C61 O58 1.244 . S
C61 O59 1.240 . S
H62 C36 0.931 . S
H63 C45 0.931 . S
H64 C49 0.929 . S
H65 C51 0.930 . S
Co66 N70 2.148 . S
Co66 N76 2.128 . S
Co66 N86 2.194 . S
Co66 O91 2.351 1_655 S
Co66 O92 2.155 1_655 S
Co66 O93 2.096 . S
C67 N70 1.301 . S
C67 N71 1.328 . S
C67 H72 0.930 . S
C68 C69 1.333 . S
C68 N70 1.317 . S
C68 H73 0.930 . S
C69 C68 1.333 . S
C69 N71 1.350 . S
C69 H95 0.931 . S
N70 Co66 2.148 . S
N70 C67 1.301 . S
N70 C68 1.317 . S
N71 C67 1.328 . S
N71 C69 1.350 . S
H72 C67 0.930 . S
H73 C68 0.930 . S
C74 O75 1.224 . S
C74 O93 1.247 . S
O75 C74 1.224 . S
N76 Co66 2.128 . S
N76 C77 1.355 . S
N76 C79 1.311 . S
C77 N76 1.355 . S
C77 C78 1.363 . S
C77 H89 0.929 . S
C78 C77 1.363 . S
C78 N80 1.375 . S
C78 H96 0.931 . S
C79 N76 1.311 . S
C79 N80 1.347 . S
C79 H90 0.929 . S
N80 C78 1.375 . S
N80 C79 1.347 . S
C81 C84 1.365 . S
C81 N86 1.328 . S
C81 H87 0.929 . S
C82 C83 1.362 . S
C82 C85 1.378 . S
C82 H97 0.929 . S
C83 C82 1.362 . S
C83 C84 1.366 . S
C84 C81 1.365 . S
C84 C83 1.366 . S
C84 H98 0.930 . S
C85 C82 1.378 . S
C85 N86 1.315 . S
C85 H88 0.930 . S
N86 Co66 2.194 . S
N86 C81 1.328 . S
N86 C85 1.315 . S
H87 C81 0.929 . S
H88 C85 0.930 . S
H89 C77 0.929 . S
H90 C79 0.929 . S
O91 Co66 2.351 1_455 S
O91 C94 1.244 . S
O92 Co66 2.155 1_455 S
O92 C94 1.240 . S
O93 Co66 2.096 . S
O93 C74 1.247 . S
C94 O91 1.244 . S
C94 O92 1.240 . S
H95 C69 0.931 . S
H96 C78 0.931 . S
H97 C82 0.929 . S
H98 C84 0.930 . S
Co99 N103 2.148 . S
Co99 N109 2.128 . S
Co99 N119 2.194 . S
Co99 O124 2.351 . S
Co99 O125 2.155 . S
Co99 O126 2.096 . S
C100 N103 1.301 . S
C100 N104 1.328 . S
C100 H105 0.930 . S
C101 C102 1.333 . S
C101 N103 1.317 . S
C101 H106 0.930 . S
C102 C101 1.333 . S
C102 N104 1.350 . S
C102 H128 0.931 . S
N103 Co99 2.148 . S
N103 C100 1.301 . S
N103 C101 1.317 . S
N104 C100 1.328 . S
N104 C102 1.350 . S
H105 C100 0.930 . S
H106 C101 0.930 . S
C107 O108 1.224 . S
C107 O126 1.247 . S
O108 C107 1.224 . S
N109 Co99 2.128 . S
N109 C110 1.355 . S
N109 C112 1.311 . S
C110 N109 1.355 . S
C110 C111 1.363 . S
C110 H122 0.929 . S
C111 C110 1.363 . S
C111 N113 1.375 . S
C111 H129 0.931 . S
C112 N109 1.311 . S
C112 N113 1.347 . S
C112 H123 0.929 . S
N113 C111 1.375 . S
N113 C112 1.347 . S
C114 C117 1.365 . S
C114 N119 1.328 . S
C114 H120 0.929 . S
C115 C116 1.362 . S
C115 C118 1.378 . S
C115 H130 0.929 . S
C116 C115 1.362 . S
C116 C117 1.366 . S
C117 C114 1.365 . S
C117 C116 1.366 . S
C117 H131 0.930 . S
C118 C115 1.378 . S
C118 N119 1.315 . S
C118 H121 0.930 . S
N119 Co99 2.194 . S
N119 C114 1.328 . S
N119 C118 1.315 . S
H120 C114 0.929 . S
H121 C118 0.930 . S
H122 C110 0.929 . S
H123 C112 0.929 . S
O124 Co99 2.351 . S
O124 C127 1.244 . S
O125 Co99 2.155 . S
O125 C127 1.240 . S
O126 Co99 2.096 . S
O126 C107 1.247 . S
C127 O124 1.244 . S
C127 O125 1.240 . S
H128 C102 0.931 . S
H129 C111 0.931 . S
H130 C115 0.929 . S
H131 C117 0.930 . S
Co132 N136 2.148 . S
Co132 N142 2.128 . S
Co132 N152 2.194 . S
Co132 O157 2.351 . S
Co132 O158 2.155 . S
Co132 O159 2.096 . S
C133 N136 1.301 . S
C133 N137 1.328 . S
C133 H138 0.930 . S
C134 C135 1.333 . S
C134 N136 1.317 . S
C134 H139 0.930 . S
C135 C134 1.333 . S
C135 N137 1.350 . S
C135 H161 0.931 . S
N136 Co132 2.148 . S
N136 C133 1.301 . S
N136 C134 1.317 . S
N137 C133 1.328 . S
N137 C135 1.350 . S
H138 C133 0.930 . S
H139 C134 0.930 . S
C140 O141 1.224 . S
C140 O159 1.247 . S
O141 C140 1.224 . S
N142 Co132 2.128 . S
N142 C143 1.355 . S
N142 C145 1.311 . S
C143 N142 1.355 . S
C143 C144 1.363 . S
C143 H155 0.929 . S
C144 C143 1.363 . S
C144 N146 1.375 . S
C144 H162 0.931 . S
C145 N142 1.311 . S
C145 N146 1.347 . S
C145 H156 0.929 . S
N146 C144 1.375 . S
N146 C145 1.347 . S
C147 C150 1.365 . S
C147 N152 1.328 . S
C147 H153 0.929 . S
C148 C149 1.362 . S
C148 C151 1.378 . S
C148 H163 0.929 . S
C149 C148 1.362 . S
C149 C150 1.366 . S
C150 C147 1.365 . S
C150 C149 1.366 . S
C150 H164 0.930 . S
C151 C148 1.378 . S
C151 N152 1.315 . S
C151 H154 0.930 . S
N152 Co132 2.194 . S
N152 C147 1.328 . S
N152 C151 1.315 . S
H153 C147 0.929 . S
H154 C151 0.930 . S
H155 C143 0.929 . S
H156 C145 0.929 . S
O157 Co132 2.351 . S
O157 C160 1.244 . S
O158 Co132 2.155 . S
O158 C160 1.240 . S
O159 Co132 2.096 . S
O159 C140 1.247 . S
C160 O157 1.244 . S
C160 O158 1.240 . S
H161 C135 0.931 . S
H162 C144 0.931 . S
H163 C148 0.929 . S
H164 C150 0.930 . S
Co165 N169 2.148 . S
Co165 N175 2.128 . S
Co165 N185 2.194 . S
Co165 O190 2.351 1_545 S
Co165 O191 2.155 1_545 S
Co165 O192 2.096 . S
C166 N169 1.301 . S
C166 N170 1.328 . S
C166 H171 0.930 . S
C167 C168 1.333 . S
C167 N169 1.317 . S
C167 H172 0.930 . S
C168 C167 1.333 . S
C168 N170 1.350 . S
C168 H194 0.931 . S
N169 Co165 2.148 . S
N169 C166 1.301 . S
N169 C167 1.317 . S
N170 C166 1.328 . S
N170 C168 1.350 . S
H171 C166 0.930 . S
H172 C167 0.930 . S
C173 O174 1.224 . S
C173 O192 1.247 . S
O174 C173 1.224 . S
N175 Co165 2.128 . S
N175 C176 1.355 . S
N175 C178 1.311 . S
C176 N175 1.355 . S
C176 C177 1.363 . S
C176 H188 0.929 . S
C177 C176 1.363 . S
C177 N179 1.375 . S
C177 H195 0.931 . S
C178 N175 1.311 . S
C178 N179 1.347 . S
C178 H189 0.929 . S
N179 C177 1.375 . S
N179 C178 1.347 . S
C180 C183 1.365 . S
C180 N185 1.328 . S
C180 H186 0.929 . S
C181 C182 1.362 . S
C181 C184 1.378 . S
C181 H196 0.929 . S
C182 C181 1.362 . S
C182 C183 1.366 . S
C183 C180 1.365 . S
C183 C182 1.366 . S
C183 H197 0.930 . S
C184 C181 1.378 . S
C184 N185 1.315 . S
C184 H187 0.930 . S
N185 Co165 2.194 . S
N185 C180 1.328 . S
N185 C184 1.315 . S
H186 C180 0.929 . S
H187 C184 0.930 . S
H188 C176 0.929 . S
H189 C178 0.929 . S
O190 Co165 2.351 1_565 S
O190 C193 1.244 . S
O191 Co165 2.155 1_565 S
O191 C193 1.240 . S
O192 Co165 2.096 . S
O192 C173 1.247 . S
C193 O190 1.244 . S
C193 O191 1.240 . S
H194 C168 0.931 . S
H195 C177 0.931 . S
H196 C181 0.929 . S
H197 C183 0.930 . S
Co198 N202 2.148 . S
Co198 N208 2.128 . S
Co198 N218 2.194 . S
Co198 O223 2.351 . S
Co198 O224 2.155 . S
Co198 O225 2.096 . S
C199 N202 1.301 . S
C199 N203 1.328 . S
C199 H204 0.930 . S
C200 C201 1.333 . S
C200 N202 1.317 . S
C200 H205 0.930 . S
C201 C200 1.333 . S
C201 N203 1.350 . S
C201 H227 0.931 . S
N202 Co198 2.148 . S
N202 C199 1.301 . S
N202 C200 1.317 . S
N203 C199 1.328 . S
N203 C201 1.350 . S
H204 C199 0.930 . S
H205 C200 0.930 . S
C206 O207 1.224 . S
C206 O225 1.247 . S
O207 C206 1.224 . S
N208 Co198 2.128 . S
N208 C209 1.355 . S
N208 C211 1.311 . S
C209 N208 1.355 . S
C209 C210 1.363 . S
C209 H221 0.929 . S
C210 C209 1.363 . S
C210 N212 1.375 . S
C210 H228 0.931 . S
C211 N208 1.311 . S
C211 N212 1.347 . S
C211 H222 0.929 . S
N212 C210 1.375 . S
N212 C211 1.347 . S
C213 C216 1.365 . S
C213 N218 1.328 . S
C213 H219 0.929 . S
C214 C215 1.362 . S
C214 C217 1.378 . S
C214 H229 0.929 . S
C215 C214 1.362 . S
C215 C216 1.366 . S
C216 C213 1.365 . S
C216 C215 1.366 . S
C216 H230 0.930 . S
C217 C214 1.378 . S
C217 N218 1.315 . S
C217 H220 0.930 . S
N218 Co198 2.194 . S
N218 C213 1.328 . S
N218 C217 1.315 . S
H219 C213 0.929 . S
H220 C217 0.930 . S
H221 C209 0.929 . S
H222 C211 0.929 . S
O223 Co198 2.351 . S
O223 C226 1.244 . S
O224 Co198 2.155 . S
O224 C226 1.240 . S
O225 Co198 2.096 . S
O225 C206 1.247 . S
C226 O223 1.244 . S
C226 O224 1.240 . S
H227 C201 0.931 . S
H228 C210 0.931 . S
H229 C214 0.929 . S
H230 C216 0.930 . S
Co231 N235 2.148 . S
Co231 N241 2.128 . S
Co231 N251 2.194 . S
Co231 O256 2.351 1_565 S
Co231 O257 2.155 1_565 S
Co231 O258 2.096 . S
C232 N235 1.301 . S
C232 N236 1.328 . S
C232 H237 0.930 . S
C233 C234 1.333 . S
C233 N235 1.317 . S
C233 H238 0.930 . S
C234 C233 1.333 . S
C234 N236 1.350 . S
C234 H260 0.931 . S
N235 Co231 2.148 . S
N235 C232 1.301 . S
N235 C233 1.317 . S
N236 C232 1.328 . S
N236 C234 1.350 . S
H237 C232 0.930 . S
H238 C233 0.930 . S
C239 O240 1.224 . S
C239 O258 1.247 . S
O240 C239 1.224 . S
N241 Co231 2.128 . S
N241 C242 1.355 . S
N241 C244 1.311 . S
C242 N241 1.355 . S
C242 C243 1.363 . S
C242 H254 0.929 . S
C243 C242 1.363 . S
C243 N245 1.375 . S
C243 H261 0.931 . S
C244 N241 1.311 . S
C244 N245 1.347 . S
C244 H255 0.929 . S
N245 C243 1.375 . S
N245 C244 1.347 . S
C246 C249 1.365 . S
C246 N251 1.328 . S
C246 H252 0.929 . S
C247 C248 1.362 . S
C247 C250 1.378 . S
C247 H262 0.929 . S
C248 C247 1.362 . S
C248 C249 1.366 . S
C249 C246 1.365 . S
C249 C248 1.366 . S
C249 H263 0.930 . S
C250 C247 1.378 . S
C250 N251 1.315 . S
C250 H253 0.930 . S
N251 Co231 2.194 . S
N251 C246 1.328 . S
N251 C250 1.315 . S
H252 C246 0.929 . S
H253 C250 0.930 . S
H254 C242 0.929 . S
H255 C244 0.929 . S
O256 Co231 2.351 1_545 S
O256 C259 1.244 . S
O257 Co231 2.155 1_545 S
O257 C259 1.240 . S
O258 Co231 2.096 . S
O258 C239 1.247 . S
C259 O256 1.244 . S
C259 O257 1.240 . S
H260 C234 0.931 . S
H261 C243 0.931 . S
H262 C247 0.929 . S
H263 C249 0.930 . S
C264 C265 1.363 1_455 S
C264 C270 1.379 . S
C264 N272 1.356 . S
C265 C264 1.363 1_655 S
C265 C271 1.363 . S
C266 C267 1.363 1_655 S
C266 C271 1.379 . S
C266 N273 1.356 . S
C267 C266 1.363 1_455 S
C267 C270 1.363 . S
N268 C270 1.356 . S
N268 H280 0.984 . S
N268 H281 0.985 . S
N269 C271 1.356 . S
N269 H274 0.984 . S
N269 H275 0.985 . S
C270 C264 1.379 . S
C270 C267 1.363 . S
C270 N268 1.356 . S
C271 C265 1.363 . S
C271 C266 1.379 . S
C271 N269 1.356 . S
N272 C264 1.356 . S
N272 H278 0.984 . S
N272 H279 0.984 1_455 S
N273 C266 1.356 . S
N273 H276 0.984 1_655 S
N273 H277 0.985 . S
H274 N269 0.984 . S
H275 N269 0.985 . S
H276 N273 0.984 1_455 S
H277 N273 0.985 . S
H278 N272 0.984 . S
H279 N272 0.984 1_655 S
H280 N268 0.984 . S
H281 N268 0.985 . S
C282 C283 1.363 . S
C282 C288 1.379 1_655 S
C282 N290 1.356 . S
C283 C282 1.363 . S
C283 C289 1.363 . S
C284 C285 1.363 . S
C284 C289 1.379 1_455 S
C284 N291 1.356 . S
C285 C284 1.363 . S
C285 C288 1.363 . S
N286 C288 1.356 . S
N286 H298 0.984 . S
N286 H299 0.985 . S
N287 C289 1.356 . S
N287 H292 0.984 . S
N287 H293 0.985 . S
C288 C282 1.379 1_455 S
C288 C285 1.363 . S
C288 N286 1.356 . S
C289 C283 1.363 . S
C289 C284 1.379 1_655 S
C289 N287 1.356 . S
N290 C282 1.356 . S
N290 H296 0.984 . S
N290 H297 0.984 . S
N291 C284 1.356 . S
N291 H294 0.984 . S
N291 H295 0.985 . S
H292 N287 0.984 . S
H293 N287 0.985 . S
H294 N291 0.984 . S
H295 N291 0.985 . S
H296 N290 0.984 . S
H297 N290 0.984 . S
H298 N286 0.984 . S
H299 N286 0.985 . S
C300 C301 1.363 . S
C300 C306 1.379 1_565 S
C300 N308 1.356 . S
C301 C300 1.363 . S
C301 C307 1.363 . S
C302 C303 1.363 . S
C302 C307 1.379 1_545 S
C302 N309 1.356 . S
C303 C302 1.363 . S
C303 C306 1.363 . S
N304 C306 1.356 . S
N304 H316 0.984 . S
N304 H317 0.985 . S
N305 C307 1.356 . S
N305 H310 0.984 . S
N305 H311 0.985 . S
C306 C300 1.379 1_545 S
C306 C303 1.363 . S
C306 N304 1.356 . S
C307 C301 1.363 . S
C307 C302 1.379 1_565 S
C307 N305 1.356 . S
N308 C300 1.356 . S
N308 H314 0.984 . S
N308 H315 0.984 . S
N309 C302 1.356 . S
N309 H312 0.984 . S
N309 H313 0.985 . S
H310 N305 0.984 . S
H311 N305 0.985 . S
H312 N309 0.984 . S
H313 N309 0.985 . S
H314 N308 0.984 . S
H315 N308 0.984 . S
H316 N304 0.984 . S
H317 N304 0.985 . S
C318 C319 1.363 1_545 S
C318 C324 1.379 . S
C318 N326 1.356 . S
C319 C318 1.363 1_565 S
C319 C325 1.363 . S
C320 C321 1.363 1_565 S
C320 C325 1.379 . S
C320 N327 1.356 . S
C321 C320 1.363 1_545 S
C321 C324 1.363 . S
N322 C324 1.356 . S
N322 H334 0.984 . S
N322 H335 0.985 . S
N323 C325 1.356 . S
N323 H328 0.984 . S
N323 H329 0.985 . S
C324 C318 1.379 . S
C324 C321 1.363 . S
C324 N322 1.356 . S
C325 C319 1.363 . S
C325 C320 1.379 . S
C325 N323 1.356 . S
N326 C318 1.356 . S
N326 H332 0.984 . S
N326 H333 0.984 1_545 S
N327 C320 1.356 . S
N327 H330 0.984 1_565 S
N327 H331 0.985 . S
H328 N323 0.984 . S
H329 N323 0.985 . S
H330 N327 0.984 1_545 S
H331 N327 0.985 . S
H332 N326 0.984 . S
H333 N326 0.984 1_565 S
H334 N322 0.984 . S
H335 N322 0.985 . S
C336 C337 1.363 . S
C336 C342 1.379 . S
C336 N344 1.356 . S
C337 C336 1.363 . S
C337 C343 1.363 . S
C338 C339 1.363 . S
C338 C343 1.379 . S
C338 N345 1.356 . S
C339 C338 1.363 . S
C339 C342 1.363 . S
N340 C342 1.356 . S
N340 H352 0.984 . S
N340 H353 0.985 . S
N341 C343 1.356 . S
N341 H346 0.984 . S
N341 H347 0.985 . S
C342 C336 1.379 . S
C342 C339 1.363 . S
C342 N340 1.356 . S
C343 C337 1.363 . S
C343 C338 1.379 . S
C343 N341 1.356 . S
N344 C336 1.356 . S
N344 H350 0.984 . S
N344 H351 0.984 . S
N345 C338 1.356 . S
N345 H348 0.984 . S
N345 H349 0.985 . S
H346 N341 0.984 . S
H347 N341 0.985 . S
H348 N345 0.984 . S
H349 N345 0.985 . S
H350 N344 0.984 . S
H351 N344 0.984 . S
H352 N340 0.984 . S
H353 N340 0.985 . S
C354 C355 1.363 . S
C354 C360 1.379 . S
C354 N362 1.356 . S
C355 C354 1.363 . S
C355 C361 1.363 . S
C356 C357 1.363 . S
C356 C361 1.379 . S
C356 N363 1.356 . S
C357 C356 1.363 . S
C357 C360 1.363 . S
N358 C360 1.356 . S
N358 H370 0.984 . S
N358 H371 0.985 . S
N359 C361 1.356 . S
N359 H364 0.984 . S
N359 H365 0.985 . S
C360 C354 1.379 . S
C360 C357 1.363 . S
C360 N358 1.356 . S
C361 C355 1.363 . S
C361 C356 1.379 . S
C361 N359 1.356 . S
N362 C354 1.356 . S
N362 H368 0.984 . S
N362 H369 0.984 . S
N363 C356 1.356 . S
N363 H366 0.984 . S
N363 H367 0.985 . S
H364 N359 0.984 . S
H365 N359 0.985 . S
H366 N363 0.984 . S
H367 N363 0.985 . S
H368 N362 0.984 . S
H369 N362 0.984 . S
H370 N358 0.984 . S
H371 N358 0.985 . S
C372 C373 1.363 . S
C372 C378 1.379 . S
C372 N380 1.356 . S
C373 C372 1.363 . S
C373 C379 1.363 . S
C374 C375 1.363 . S
C374 C379 1.379 . S
C374 N381 1.356 . S
C375 C374 1.363 . S
C375 C378 1.363 . S
N376 C378 1.356 . S
N376 H388 0.984 . S
N376 H389 0.985 . S
N377 C379 1.356 . S
N377 H382 0.984 . S
N377 H383 0.985 . S
C378 C372 1.379 . S
C378 C375 1.363 . S
C378 N376 1.356 . S
C379 C373 1.363 . S
C379 C374 1.379 . S
C379 N377 1.356 . S
N380 C372 1.356 . S
N380 H386 0.984 . S
N380 H387 0.984 . S
N381 C374 1.356 . S
N381 H384 0.984 . S
N381 H385 0.985 . S
H382 N377 0.984 . S
H383 N377 0.985 . S
H384 N381 0.984 . S
H385 N381 0.985 . S
H386 N380 0.984 . S
H387 N380 0.984 . S
H388 N376 0.984 . S
H389 N376 0.985 . S
C390 C391 1.363 . S
C390 C396 1.379 . S
C390 N398 1.356 . S
C391 C390 1.363 . S
C391 C397 1.363 . S
C392 C393 1.363 . S
C392 C397 1.379 . S
C392 N399 1.356 . S
C393 C392 1.363 . S
C393 C396 1.363 . S
N394 C396 1.356 . S
N394 H406 0.984 . S
N394 H407 0.985 . S
N395 C397 1.356 . S
N395 H400 0.984 . S
N395 H401 0.985 . S
C396 C390 1.379 . S
C396 C393 1.363 . S
C396 N394 1.356 . S
C397 C391 1.363 . S
C397 C392 1.379 . S
C397 N395 1.356 . S
N398 C390 1.356 . S
N398 H404 0.984 . S
N398 H405 0.984 . S
N399 C392 1.356 . S
N399 H402 0.984 . S
N399 H403 0.985 . S
H400 N395 0.984 . S
H401 N395 0.985 . S
H402 N399 0.984 . S
H403 N399 0.985 . S
H404 N398 0.984 . S
H405 N398 0.984 . S
H406 N394 0.984 . S
H407 N394 0.985 . S
C408 C409 1.363 . S
C408 C414 1.379 . S
C408 N416 1.356 . S
C409 C408 1.363 . S
C409 C415 1.363 . S
C410 C411 1.363 . S
C410 C415 1.379 . S
C410 N417 1.356 . S
C411 C410 1.363 . S
C411 C414 1.363 . S
N412 C414 1.356 . S
N412 H424 0.984 . S
N412 H425 0.985 . S
N413 C415 1.356 . S
N413 H418 0.984 . S
N413 H419 0.985 . S
C414 C408 1.379 . S
C414 C411 1.363 . S
C414 N412 1.356 . S
C415 C409 1.363 . S
C415 C410 1.379 . S
C415 N413 1.356 . S
N416 C408 1.356 . S
N416 H422 0.984 . S
N416 H423 0.984 . S
N417 C410 1.356 . S
N417 H420 0.984 . S
N417 H421 0.985 . S
H418 N413 0.984 . S
H419 N413 0.985 . S
H420 N417 0.984 . S
H421 N417 0.985 . S
H422 N416 0.984 . S
H423 N416 0.984 . S
H424 N412 0.984 . S
H425 N412 0.985 . S
C426 C427 1.363 . S
C426 C432 1.379 . S
C426 N434 1.356 . S
C427 C426 1.363 . S
C427 C433 1.363 . S
C428 C429 1.363 . S
C428 C433 1.379 . S
C428 N435 1.356 . S
C429 C428 1.363 . S
C429 C432 1.363 . S
N430 C432 1.356 . S
N430 H442 0.984 . S
N430 H443 0.985 . S
N431 C433 1.356 . S
N431 H436 0.984 . S
N431 H437 0.985 . S
C432 C426 1.379 . S
C432 C429 1.363 . S
C432 N430 1.356 . S
C433 C427 1.363 . S
C433 C428 1.379 . S
C433 N431 1.356 . S
N434 C426 1.356 . S
N434 H440 0.984 . S
N434 H441 0.984 . S
N435 C428 1.356 . S
N435 H438 0.984 . S
N435 H439 0.985 . S
H436 N431 0.984 . S
H437 N431 0.985 . S
H438 N435 0.984 . S
H439 N435 0.985 . S
H440 N434 0.984 . S
H441 N434 0.984 . S
H442 N430 0.984 . S
H443 N430 0.985 . S
C444 C445 1.363 . S
C444 C450 1.379 . S
C444 N452 1.356 . S
C445 C444 1.363 . S
C445 C451 1.363 . S
C446 C447 1.363 . S
C446 C451 1.379 . S
C446 N453 1.356 . S
C447 C446 1.363 . S
C447 C450 1.363 . S
N448 C450 1.356 . S
N448 H460 0.984 . S
N448 H461 0.985 . S
N449 C451 1.356 . S
N449 H454 0.984 . S
N449 H455 0.985 . S
C450 C444 1.379 . S
C450 C447 1.363 . S
C450 N448 1.356 . S
C451 C445 1.363 . S
C451 C446 1.379 . S
C451 N449 1.356 . S
N452 C444 1.356 . S
N452 H458 0.984 . S
N452 H459 0.984 . S
N453 C446 1.356 . S
N453 H456 0.984 . S
N453 H457 0.985 . S
H454 N449 0.984 . S
H455 N449 0.985 . S
H456 N453 0.984 . S
H457 N453 0.985 . S
H458 N452 0.984 . S
H459 N452 0.984 . S
H460 N448 0.984 . S
H461 N448 0.985 . S
C462 C463 1.363 . S
C462 C468 1.379 . S
C462 N470 1.356 . S
C463 C462 1.363 . S
C463 C469 1.363 . S
C464 C465 1.363 . S
C464 C469 1.379 . S
C464 N471 1.356 . S
C465 C464 1.363 . S
C465 C468 1.363 . S
N466 C468 1.356 . S
N466 H478 0.984 . S
N466 H479 0.985 . S
N467 C469 1.356 . S
N467 H472 0.984 . S
N467 H473 0.985 . S
C468 C462 1.379 . S
C468 C465 1.363 . S
C468 N466 1.356 . S
C469 C463 1.363 . S
C469 C464 1.379 . S
C469 N467 1.356 . S
N470 C462 1.356 . S
N470 H476 0.984 . S
N470 H477 0.984 . S
N471 C464 1.356 . S
N471 H474 0.984 . S
N471 H475 0.985 . S
H472 N467 0.984 . S
H473 N467 0.985 . S
H474 N471 0.984 . S
H475 N471 0.985 . S
H476 N470 0.984 . S
H477 N470 0.984 . S
H478 N466 0.984 . S
H479 N466 0.985 . S
C480 C481 1.363 . S
C480 C486 1.379 . S
C480 N488 1.356 . S
C481 C480 1.363 . S
C481 C487 1.363 . S
C482 C483 1.363 . S
C482 C487 1.379 . S
C482 N489 1.356 . S
C483 C482 1.363 . S
C483 C486 1.363 . S
N484 C486 1.356 . S
N484 H496 0.984 . S
N484 H497 0.985 . S
N485 C487 1.356 . S
N485 H490 0.984 . S
N485 H491 0.985 . S
C486 C480 1.379 . S
C486 C483 1.363 . S
C486 N484 1.356 . S
C487 C481 1.363 . S
C487 C482 1.379 . S
C487 N485 1.356 . S
N488 C480 1.356 . S
N488 H494 0.984 . S
N488 H495 0.984 . S
N489 C482 1.356 . S
N489 H492 0.984 . S
N489 H493 0.984 . S
H490 N485 0.984 . S
H491 N485 0.985 . S
H492 N489 0.984 . S
H493 N489 0.984 . S
H494 N488 0.984 . S
H495 N488 0.984 . S
H496 N484 0.984 . S
H497 N484 0.985 . S
C498 C499 1.363 . S
C498 C504 1.379 1_554 S
C498 N506 1.356 . S
C499 C498 1.363 . S
C499 C505 1.363 . S
C500 C501 1.363 . S
C500 C505 1.379 1_556 S
C500 N507 1.356 . S
C501 C500 1.363 . S
C501 C504 1.363 . S
N502 C504 1.356 . S
N502 H514 0.984 . S
N502 H515 0.985 . S
N503 C505 1.356 . S
N503 H508 0.984 . S
N503 H509 0.985 . S
C504 C498 1.379 1_556 S
C504 C501 1.363 . S
C504 N502 1.356 . S
C505 C499 1.363 . S
C505 C500 1.379 1_554 S
C505 N503 1.356 . S
N506 C498 1.356 . S
N506 H512 0.984 . S
N506 H513 0.984 . S
N507 C500 1.356 . S
N507 H510 0.984 . S
N507 H511 0.985 . S
H508 N503 0.984 . S
H509 N503 0.985 . S
H510 N507 0.984 . S
H511 N507 0.985 . S
H512 N506 0.984 . S
H513 N506 0.984 . S
H514 N502 0.984 . S
H515 N502 0.985 . S
C516 C517 1.363 . S
C516 C522 1.379 . S
C516 N524 1.356 . S
C517 C516 1.363 . S
C517 C523 1.363 . S
C518 C519 1.363 . S
C518 C523 1.379 . S
C518 N525 1.356 . S
C519 C518 1.363 . S
C519 C522 1.363 . S
N520 C522 1.356 . S
N520 H532 0.984 . S
N520 H533 0.985 . S
N521 C523 1.356 . S
N521 H526 0.984 . S
N521 H527 0.985 . S
C522 C516 1.379 . S
C522 C519 1.363 . S
C522 N520 1.356 . S
C523 C517 1.363 . S
C523 C518 1.379 . S
C523 N521 1.356 . S
N524 C516 1.356 . S
N524 H530 0.984 . S
N524 H531 0.984 . S
N525 C518 1.356 . S
N525 H528 0.984 . S
N525 H529 0.985 . S
H526 N521 0.984 . S
H527 N521 0.985 . S
H528 N525 0.984 . S
H529 N525 0.985 . S
H530 N524 0.984 . S
H531 N524 0.984 . S
H532 N520 0.984 . S
H533 N520 0.985 . S
C534 C535 1.363 . S
C534 C540 1.379 1_554 S
C534 N542 1.356 . S
C535 C534 1.363 . S
C535 C541 1.363 . S
C536 C537 1.363 . S
C536 C541 1.379 1_556 S
C536 N543 1.356 . S
C537 C536 1.363 . S
C537 C540 1.363 . S
N538 C540 1.356 . S
N538 H550 0.984 . S
N538 H551 0.985 . S
N539 C541 1.356 . S
N539 H544 0.984 . S
N539 H545 0.985 . S
C540 C534 1.379 1_556 S
C540 C537 1.363 . S
C540 N538 1.356 . S
C541 C535 1.363 . S
C541 C536 1.379 1_554 S
C541 N539 1.356 . S
N542 C534 1.356 . S
N542 H548 0.984 . S
N542 H549 0.984 . S
N543 C536 1.356 . S
N543 H546 0.984 . S
N543 H547 0.985 . S
H544 N539 0.984 . S
H545 N539 0.985 . S
H546 N543 0.984 . S
H547 N543 0.985 . S
H548 N542 0.984 . S
H549 N542 0.984 . S
H550 N538 0.984 . S
H551 N538 0.985 . S
C552 C553 1.363 1_545 S
C552 C558 1.379 1_655 S
C552 N560 1.356 . S
C553 C552 1.363 1_565 S
C553 C559 1.363 . S
C554 C555 1.363 1_565 S
C554 C559 1.379 1_455 S
C554 N561 1.356 . S
C555 C554 1.363 1_545 S
C555 C558 1.363 . S
N556 C558 1.356 . S
N556 H568 0.984 . S
N556 H569 0.985 . S
N557 C559 1.356 . S
N557 H562 0.984 . S
N557 H563 0.985 . S
C558 C552 1.379 1_455 S
C558 C555 1.363 . S
C558 N556 1.356 . S
C559 C553 1.363 . S
C559 C554 1.379 1_655 S
C559 N557 1.356 . S
N560 C552 1.356 . S
N560 H566 0.984 . S
N560 H567 0.984 1_545 S
N561 C554 1.356 . S
N561 H564 0.984 1_565 S
N561 H565 0.985 . S
H562 N557 0.984 . S
H563 N557 0.985 . S
H564 N561 0.984 1_545 S
H565 N561 0.985 . S
H566 N560 0.984 . S
H567 N560 0.984 1_565 S
H568 N556 0.984 . S
H569 N556 0.985 . S
C570 C571 1.363 . S
C570 C576 1.379 . S
C570 N578 1.356 . S
C571 C570 1.363 . S
C571 C577 1.363 . S
C572 C573 1.363 . S
C572 C577 1.379 . S
C572 N579 1.356 . S
C573 C572 1.363 . S
C573 C576 1.363 . S
N574 C576 1.356 . S
N574 H586 0.984 . S
N574 H587 0.985 . S
N575 C577 1.356 . S
N575 H580 0.984 . S
N575 H581 0.985 . S
C576 C570 1.379 . S
C576 C573 1.363 . S
C576 N574 1.356 . S
C577 C571 1.363 . S
C577 C572 1.379 . S
C577 N575 1.356 . S
N578 C570 1.356 . S
N578 H584 0.984 . S
N578 H585 0.984 . S
N579 C572 1.356 . S
N579 H582 0.984 . S
N579 H583 0.985 . S
H580 N575 0.984 . S
H581 N575 0.985 . S
H582 N579 0.984 . S
H583 N579 0.985 . S
H584 N578 0.984 . S
H585 N578 0.984 . S
H586 N574 0.984 . S
H587 N574 0.985 . S
C588 C589 1.363 . S
C588 C594 1.379 . S
C588 N596 1.356 . S
C589 C588 1.363 . S
C589 C595 1.363 . S
C590 C591 1.363 . S
C590 C595 1.379 . S
C590 N597 1.356 . S
C591 C590 1.363 . S
C591 C594 1.363 . S
N592 C594 1.356 . S
N592 H604 0.984 . S
N592 H605 0.985 . S
N593 C595 1.356 . S
N593 H598 0.984 . S
N593 H599 0.985 . S
C594 C588 1.379 . S
C594 C591 1.363 . S
C594 N592 1.356 . S
C595 C589 1.363 . S
C595 C590 1.379 . S
C595 N593 1.356 . S
N596 C588 1.356 . S
N596 H602 0.984 . S
N596 H603 0.984 . S
N597 C590 1.356 . S
N597 H600 0.984 . S
N597 H601 0.985 . S
H598 N593 0.984 . S
H599 N593 0.985 . S
H600 N597 0.984 . S
H601 N597 0.985 . S
H602 N596 0.984 . S
H603 N596 0.984 . S
H604 N592 0.984 . S
H605 N592 0.985 . S
C606 C607 1.363 . S
C606 C612 1.379 1_545 S
C606 N614 1.356 . S
C607 C606 1.363 . S
C607 C613 1.363 1_455 S
C608 C609 1.363 . S
C608 C613 1.379 1_565 S
C608 N615 1.356 . S
C609 C608 1.363 . S
C609 C612 1.363 1_655 S
N610 C612 1.356 . S
N610 H622 0.984 . S
N610 H623 0.985 1_455 S
N611 C613 1.356 . S
N611 H616 0.984 1_655 S
N611 H617 0.985 . S
C612 C606 1.379 1_565 S
C612 C609 1.363 1_455 S
C612 N610 1.356 . S
C613 C607 1.363 1_655 S
C613 C608 1.379 1_545 S
C613 N611 1.356 . S
N614 C606 1.356 . S
N614 H620 0.984 . S
N614 H621 0.984 . S
N615 C608 1.356 . S
N615 H618 0.984 . S
N615 H619 0.985 . S
H616 N611 0.984 1_455 S
H617 N611 0.985 . S
H618 N615 0.984 . S
H619 N615 0.985 . S
H620 N614 0.984 . S
H621 N614 0.984 . S
H622 N610 0.984 . S
H623 N610 0.985 1_655 S
C265 N71 1.231 . S
C267 N5 1.231 . S
C283 N104 1.231 . S
C285 N38 1.231 . S
C301 N203 1.231 . S
C303 N137 1.231 . S
C319 N236 1.231 . S
C321 N170 1.231 . S
C337 C160 1.888 . S
C339 C17 1.885 . S
C355 C193 1.888 . S
C357 C50 1.885 . S
C373 C226 1.888 . S
C375 C83 1.885 . S
C391 C116 1.885 . S
C393 C259 1.888 . S
C409 C28 1.888 . S
C411 C149 1.885 . S
C427 C61 1.888 . S
C429 C182 1.885 . S
C445 C94 1.888 . S
C447 C215 1.885 . S
C463 C248 1.885 . S
C465 C127 1.888 . S
C481 C8 1.868 . S
C483 C173 1.868 . S
C499 C206 1.868 . S
C501 C41 1.868 . S
C517 C239 1.868 . S
C519 C74 1.868 . S
C535 C140 1.868 . S
C537 C107 1.868 . S
C553 N80 0.750 . S
C555 N14 0.750 . S
C571 N47 0.750 . S
C573 N113 0.750 . S
C589 N212 0.750 . S
C591 N146 0.750 . S
C607 N179 0.750 . S
C609 N245 0.750 . S
