# Generated by pormake.
# Topology pem, (4)-cn, num edge types: 1
# Building blocks:
#     Node 0, Type 0, BuildingBlock: CEKHIL_clean_sbu_0, # of connection points: 4
#     Node 1, Type 0, BuildingBlock: CEKHIL_clean_sbu_0, # of connection points: 4
#     Node 2, Type 0, BuildingBlock: CEKHIL_clean_sbu_0, # of connection points: 4
#     Node 3, Type 0, BuildingBlock: CEKHIL_clean_sbu_0, # of connection points: 4
#     Node 4, Type 0, BuildingBlock: CEKHIL_clean_sbu_0, # of connection points: 4
#     Node 5, Type 0, BuildingBlock: CEKHIL_clean_sbu_0, # of connection points: 4
#     Node 6, Type 0, BuildingBlock: CEKHIL_clean_sbu_0, # of connection points: 4
#     Node 7, Type 0, BuildingBlock: CEKHIL_clean_sbu_0, # of connection points: 4
#     Node 8, Type 0, BuildingBlock: CEKHIL_clean_sbu_0, # of connection points: 4
#     Node 9, Type 0, BuildingBlock: CEKHIL_clean_sbu_0, # of connection points: 4
#     Node 10, Type 0, BuildingBlock: CEKHIL_clean_sbu_0, # of connection points: 4
#     Node 11, Type 0, BuildingBlock: CEKHIL_clean_sbu_0, # of connection points: 4
#     Node 12, Type 0, BuildingBlock: CEKHIL_clean_sbu_0, # of connection points: 4
#     Node 13, Type 0, BuildingBlock: CEKHIL_clean_sbu_0, # of connection points: 4
#     Node 14, Type 0, BuildingBlock: CEKHIL_clean_sbu_0, # of connection points: 4
#     Node 15, Type 0, BuildingBlock: CEKHIL_clean_sbu_0, # of connection points: 4
#     Node 16, Type 0, BuildingBlock: CEKHIL_clean_sbu_0, # of connection points: 4
#     Node 17, Type 0, BuildingBlock: CEKHIL_clean_sbu_0, # of connection points: 4
#     Node 18, Type 0, BuildingBlock: CEKHIL_clean_sbu_0, # of connection points: 4
#     Node 19, Type 0, BuildingBlock: CEKHIL_clean_sbu_0, # of connection points: 4
#     Node 20, Type 0, BuildingBlock: CEKHIL_clean_sbu_0, # of connection points: 4
#     Node 21, Type 0, BuildingBlock: CEKHIL_clean_sbu_0, # of connection points: 4
#     Node 22, Type 0, BuildingBlock: CEKHIL_clean_sbu_0, # of connection points: 4
#     Node 23, Type 0, BuildingBlock: CEKHIL_clean_sbu_0, # of connection points: 4
#     Node 24, Type 0, BuildingBlock: CEKHIL_clean_sbu_0, # of connection points: 4
#     Node 25, Type 0, BuildingBlock: CEKHIL_clean_sbu_0, # of connection points: 4
#     Node 26, Type 0, BuildingBlock: CEKHIL_clean_sbu_0, # of connection points: 4
#     Node 27, Type 0, BuildingBlock: CEKHIL_clean_sbu_0, # of connection points: 4
#     Node 28, Type 0, BuildingBlock: CEKHIL_clean_sbu_0, # of connection points: 4
#     Node 29, Type 0, BuildingBlock: CEKHIL_clean_sbu_0, # of connection points: 4
#     Node 30, Type 0, BuildingBlock: CEKHIL_clean_sbu_0, # of connection points: 4
#     Node 31, Type 0, BuildingBlock: CEKHIL_clean_sbu_0, # of connection points: 4
#     Edge 32, Type (0, 0), BuildingBlock: CIFDUS_clean_linker_0, # of connection points: 2
#     Edge 33, Type (0, 0), BuildingBlock: CIFDUS_clean_linker_0, # of connection points: 2
#     Edge 34, Type (0, 0), BuildingBlock: CIFDUS_clean_linker_0, # of connection points: 2
#     Edge 35, Type (0, 0), BuildingBlock: CIFDUS_clean_linker_0, # of connection points: 2
#     Edge 36, Type (0, 0), BuildingBlock: CIFDUS_clean_linker_0, # of connection points: 2
#     Edge 37, Type (0, 0), BuildingBlock: CIFDUS_clean_linker_0, # of connection points: 2
#     Edge 38, Type (0, 0), BuildingBlock: CIFDUS_clean_linker_0, # of connection points: 2
#     Edge 39, Type (0, 0), BuildingBlock: CIFDUS_clean_linker_0, # of connection points: 2
#     Edge 40, Type (0, 0), BuildingBlock: CIFDUS_clean_linker_0, # of connection points: 2
#     Edge 41, Type (0, 0), BuildingBlock: CIFDUS_clean_linker_0, # of connection points: 2
#     Edge 42, Type (0, 0), BuildingBlock: CIFDUS_clean_linker_0, # of connection points: 2
#     Edge 43, Type (0, 0), BuildingBlock: CIFDUS_clean_linker_0, # of connection points: 2
#     Edge 44, Type (0, 0), BuildingBlock: CIFDUS_clean_linker_0, # of connection points: 2
#     Edge 45, Type (0, 0), BuildingBlock: CIFDUS_clean_linker_0, # of connection points: 2
#     Edge 46, Type (0, 0), BuildingBlock: CIFDUS_clean_linker_0, # of connection points: 2
#     Edge 47, Type (0, 0), BuildingBlock: CIFDUS_clean_linker_0, # of connection points: 2
#     Edge 48, Type (0, 0), BuildingBlock: CIFDUS_clean_linker_0, # of connection points: 2
#     Edge 49, Type (0, 0), BuildingBlock: CIFDUS_clean_linker_0, # of connection points: 2
#     Edge 50, Type (0, 0), BuildingBlock: CIFDUS_clean_linker_0, # of connection points: 2
#     Edge 51, Type (0, 0), BuildingBlock: CIFDUS_clean_linker_0, # of connection points: 2
#     Edge 52, Type (0, 0), BuildingBlock: CIFDUS_clean_linker_0, # of connection points: 2
#     Edge 53, Type (0, 0), BuildingBlock: CIFDUS_clean_linker_0, # of connection points: 2
#     Edge 54, Type (0, 0), BuildingBlock: CIFDUS_clean_linker_0, # of connection points: 2
#     Edge 55, Type (0, 0), BuildingBlock: CIFDUS_clean_linker_0, # of connection points: 2
#     Edge 56, Type (0, 0), BuildingBlock: CIFDUS_clean_linker_0, # of connection points: 2
#     Edge 57, Type (0, 0), BuildingBlock: CIFDUS_clean_linker_0, # of connection points: 2
#     Edge 58, Type (0, 0), BuildingBlock: CIFDUS_clean_linker_0, # of connection points: 2
#     Edge 59, Type (0, 0), BuildingBlock: CIFDUS_clean_linker_0, # of connection points: 2
#     Edge 60, Type (0, 0), BuildingBlock: CIFDUS_clean_linker_0, # of connection points: 2
#     Edge 61, Type (0, 0), BuildingBlock: CIFDUS_clean_linker_0, # of connection points: 2
#     Edge 62, Type (0, 0), BuildingBlock: CIFDUS_clean_linker_0, # of connection points: 2
#     Edge 63, Type (0, 0), BuildingBlock: CIFDUS_clean_linker_0, # of connection points: 2
#     Edge 64, Type (0, 0), BuildingBlock: CIFDUS_clean_linker_0, # of connection points: 2
#     Edge 65, Type (0, 0), BuildingBlock: CIFDUS_clean_linker_0, # of connection points: 2
#     Edge 66, Type (0, 0), BuildingBlock: CIFDUS_clean_linker_0, # of connection points: 2
#     Edge 67, Type (0, 0), BuildingBlock: CIFDUS_clean_linker_0, # of connection points: 2
#     Edge 68, Type (0, 0), BuildingBlock: CIFDUS_clean_linker_0, # of connection points: 2
#     Edge 69, Type (0, 0), BuildingBlock: CIFDUS_clean_linker_0, # of connection points: 2
#     Edge 70, Type (0, 0), BuildingBlock: CIFDUS_clean_linker_0, # of connection points: 2
#     Edge 71, Type (0, 0), BuildingBlock: CIFDUS_clean_linker_0, # of connection points: 2
#     Edge 72, Type (0, 0), BuildingBlock: CIFDUS_clean_linker_0, # of connection points: 2
#     Edge 73, Type (0, 0), BuildingBlock: CIFDUS_clean_linker_0, # of connection points: 2
#     Edge 74, Type (0, 0), BuildingBlock: CIFDUS_clean_linker_0, # of connection points: 2
#     Edge 75, Type (0, 0), BuildingBlock: CIFDUS_clean_linker_0, # of connection points: 2
#     Edge 76, Type (0, 0), BuildingBlock: CIFDUS_clean_linker_0, # of connection points: 2
#     Edge 77, Type (0, 0), BuildingBlock: CIFDUS_clean_linker_0, # of connection points: 2
#     Edge 78, Type (0, 0), BuildingBlock: CIFDUS_clean_linker_0, # of connection points: 2
#     Edge 79, Type (0, 0), BuildingBlock: CIFDUS_clean_linker_0, # of connection points: 2
#     Edge 80, Type (0, 0), BuildingBlock: CIFDUS_clean_linker_0, # of connection points: 2
#     Edge 81, Type (0, 0), BuildingBlock: CIFDUS_clean_linker_0, # of connection points: 2
#     Edge 82, Type (0, 0), BuildingBlock: CIFDUS_clean_linker_0, # of connection points: 2
#     Edge 83, Type (0, 0), BuildingBlock: CIFDUS_clean_linker_0, # of connection points: 2
#     Edge 84, Type (0, 0), BuildingBlock: CIFDUS_clean_linker_0, # of connection points: 2
#     Edge 85, Type (0, 0), BuildingBlock: CIFDUS_clean_linker_0, # of connection points: 2
#     Edge 86, Type (0, 0), BuildingBlock: CIFDUS_clean_linker_0, # of connection points: 2
#     Edge 87, Type (0, 0), BuildingBlock: CIFDUS_clean_linker_0, # of connection points: 2
#     Edge 88, Type (0, 0), BuildingBlock: CIFDUS_clean_linker_0, # of connection points: 2
#     Edge 89, Type (0, 0), BuildingBlock: CIFDUS_clean_linker_0, # of connection points: 2
#     Edge 90, Type (0, 0), BuildingBlock: CIFDUS_clean_linker_0, # of connection points: 2
#     Edge 91, Type (0, 0), BuildingBlock: CIFDUS_clean_linker_0, # of connection points: 2
#     Edge 92, Type (0, 0), BuildingBlock: CIFDUS_clean_linker_0, # of connection points: 2
#     Edge 93, Type (0, 0), BuildingBlock: CIFDUS_clean_linker_0, # of connection points: 2
#     Edge 94, Type (0, 0), BuildingBlock: CIFDUS_clean_linker_0, # of connection points: 2
#     Edge 95, Type (0, 0), BuildingBlock: CIFDUS_clean_linker_0, # of connection points: 2
# Relax obj value: 0.209
# Max RMSD: 0.173
# Mean RMSD: 0.151
data_MOF--net-pem--node1-CEKHIL_clean_sbu_0--edge1-CIFDUS_clean_linker_0
_symmetry_space_group_name_H-M    P1
_symmetry_Int_Tables_number       1
_symmetry_cell_setting            triclinic
loop_
_symmetry_equiv_pos_as_xyz
'x, y, z'
_cell_length_a     40.063777
_cell_length_b     34.126301
_cell_length_c     34.006494
_cell_angle_alpha  93.502617
_cell_angle_beta   91.225856
_cell_angle_gamma 91.634595
loop_
_atom_site_label
_atom_site_type_symbol
_atom_site_fract_x
_atom_site_fract_y
_atom_site_fract_z
_atom_type_partial_charge
Co0 Co 0.07083 0.10016 0.13337 0.0
O1 O 0.10517 0.0688 0.10755 0.0
O2 O 0.10179 0.13186 0.10242 0.0
C3 C 0.0792 0.06519 0.18896 0.0
O4 O 0.038 0.14506 0.15228 0.0
Co5 Co 1.00726 0.06877 0.16858 0.0
O6 O 0.99093 0.12225 0.17866 0.0
C7 C 0.02884 0.05197 0.08682 0.0
C8 C 0.11745 0.1 0.09288 0.0
C9 C 1.00837 0.15062 0.16678 0.0
O10 O 0.04091 0.08704 0.08817 0.0
O11 O 1.01582 0.03789 0.11723 0.0
O12 O 0.09624 0.09752 0.18315 0.0
O13 O 0.05481 0.05832 0.16406 0.0
Co14 Co 0.21715 0.85035 0.34921 0.0
O15 O 0.248 0.82376 0.38444 0.0
O16 O 0.24125 0.88635 0.39104 0.0
C17 C 0.17347 0.8042 0.34617 0.0
O18 O 0.1856 0.88582 0.31657 0.0
Co19 Co 0.20038 0.80902 0.26385 0.0
O20 O 0.16782 0.85103 0.26038 0.0
C21 C 0.26484 0.83087 0.29047 0.0
C22 C 0.25763 0.85652 0.40286 0.0
C23 C 0.16732 0.88147 0.2839 0.0
O24 O 0.25371 0.85969 0.31156 0.0
O25 O 0.24949 0.82195 0.25783 0.0
O26 O 0.17795 0.82903 0.37648 0.0
O27 O 0.19721 0.80596 0.32154 0.0
Co28 Co 0.44396 0.87991 0.63035 0.0
O29 O 0.41474 0.91276 0.59831 0.0
O30 O 0.42778 0.85418 0.57812 0.0
C31 C 0.41891 0.89452 0.69592 0.0
O32 O 0.47629 0.83682 0.64815 0.0
Co33 Co 0.4928 0.91663 0.6912 0.0
O34 O 0.51715 0.86613 0.68662 0.0
C35 C 0.49278 0.93909 0.61047 0.0
C36 C 0.4127 0.88585 0.56938 0.0
C37 C 0.50543 0.83626 0.66589 0.0
O38 O 0.48187 0.90388 0.60307 0.0
O39 O 0.49661 0.9532 0.64607 0.0
O40 O 0.40813 0.86708 0.67033 0.0
O41 O 0.44441 0.91208 0.68052 0.0
Co42 Co 0.33451 0.15038 0.89907 0.0
O43 O 0.37334 0.17407 0.87233 0.0
O44 O 0.36047 0.19214 0.93174 0.0
C45 C 0.3441 0.08303 0.87536 0.0
O46 O 0.29665 0.13763 0.9389 0.0
Co47 Co 0.27561 0.09817 0.86126 0.0
O48 O 0.25809 0.0931 0.9141 0.0
C49 C 0.29438 0.17805 0.83728 0.0
C50 C 0.38058 0.19722 0.90291 0.0
C51 C 0.26983 0.11568 0.94242 0.0
O52 O 0.3066 0.1883 0.87187 0.0
O53 O 0.28368 0.14307 0.82742 0.0
O54 O 0.3583 0.0997 0.90611 0.0
O55 O 0.32355 0.10723 0.86205 0.0
Co56 Co 0.07486 0.87655 0.39313 0.0
O57 O 0.04986 0.83052 0.41049 0.0
O58 O 0.05029 0.84616 0.3492 0.0
C59 C 0.12257 0.87009 0.42916 0.0
O60 O 0.09959 0.92349 0.36595 0.0
Co61 Co 0.09323 0.94557 0.45438 0.0
O62 O 0.11599 0.97194 0.41122 0.0
C63 C 0.02591 0.91063 0.4398 0.0
C64 C 0.0377 0.8235 0.37512 0.0
C65 C 0.11506 0.95726 0.37583 0.0
O66 O 0.03407 0.9063 0.40381 0.0
O67 O 0.04723 0.92389 0.46635 0.0
O68 O 0.11752 0.84996 0.39572 0.0
O69 O 0.09749 0.88982 0.44105 0.0
Co70 Co 0.34373 0.82014 0.61323 0.0
O71 O 0.38171 0.80404 0.64484 0.0
O72 O 0.37409 0.78614 0.58251 0.0
C73 C 0.34642 0.88652 0.63909 0.0
O74 O 0.30732 0.82949 0.57103 0.0
Co75 Co 0.27918 0.85342 0.65243 0.0
O76 O 0.2662 0.86497 0.59861 0.0
C77 C 0.30861 0.7766 0.66733 0.0
C78 C 0.39232 0.78398 0.61439 0.0
C79 C 0.28004 0.84882 0.56874 0.0
O80 O 0.319 0.77407 0.63198 0.0
O81 O 0.29231 0.80615 0.68069 0.0
O82 O 0.36353 0.87376 0.61015 0.0
O83 O 0.32746 0.85814 0.64986 0.0
Co84 Co 0.43731 0.11228 0.87191 0.0
O85 O 0.41451 0.07837 0.9106 0.0
O86 O 0.42954 0.13838 0.92531 0.0
C87 C 0.40356 0.09127 0.81117 0.0
O88 O 0.46458 0.15759 0.84898 0.0
Co89 Co 0.47627 0.0822 0.79641 0.0
O90 O 0.50358 0.13095 0.80993 0.0
C91 C 0.49013 0.05791 0.8764 0.0
C92 C 0.41549 0.10706 0.93783 0.0
C93 C 0.49408 0.15848 0.83377 0.0
O94 O 0.48003 0.09132 0.88979 0.0
O95 O 0.48757 0.04656 0.83981 0.0
O96 O 0.394 0.11664 0.83801 0.0
O97 O 0.43324 0.08177 0.82183 0.0
Co98 Co 0.21287 0.13075 0.1659 0.0
O99 O 0.17976 0.1578 0.19924 0.0
O100 O 0.181 0.16331 0.13629 0.0
C101 C 0.20338 0.07503 0.20184 0.0
O102 O 0.24504 0.10959 0.11898 0.0
Co103 Co 0.27584 0.09622 0.19658 0.0
O104 O 0.29498 0.09345 0.14374 0.0
C105 C 0.2575 0.17811 0.2116 0.0
C106 C 0.16671 0.1735 0.16917 0.0
C107 C 0.27668 0.10061 0.11432 0.0
O108 O 0.24404 0.1755 0.17716 0.0
O109 O 0.26992 0.1481 0.22651 0.0
O110 O 0.1862 0.08178 0.17 0.0
O111 O 0.22822 0.09961 0.20833 0.0
Co112 Co 0.58422 0.3989 0.89596 0.0
O113 O 0.55427 0.36147 0.92103 0.0
O114 O 0.5634 0.35724 0.85822 0.0
C115 C 0.62529 0.40156 0.94406 0.0
O116 O 0.61357 0.43706 0.86241 0.0
Co117 Co 0.59746 0.48035 0.94318 0.0
O118 O 0.62675 0.4932 0.89935 0.0
C119 C 0.53134 0.45018 0.91238 0.0
C120 C 0.54614 0.34424 0.88724 0.0
C121 C 0.62842 0.47199 0.86732 0.0
O122 O 0.54539 0.43052 0.88508 0.0
O123 O 0.54764 0.46894 0.94085 0.0
O124 O 0.62412 0.37354 0.91644 0.0
O125 O 0.60025 0.42413 0.94342 0.0
Co126 Co 0.83114 0.37182 0.15728 0.0
O127 O 0.8664 0.35009 0.18938 0.0
O128 O 0.84929 0.32182 0.13342 0.0
C129 C 0.85027 0.43753 0.16175 0.0
O130 O 0.7947 0.38209 0.11589 0.0
Co131 Co 0.78211 0.43401 0.19128 0.0
O132 O 0.76154 0.43065 0.13767 0.0
C133 C 0.78706 0.35555 0.22161 0.0
C134 C 0.86939 0.32078 0.16382 0.0
C135 C 0.76979 0.40478 0.11133 0.0
O136 O 0.79846 0.34308 0.18834 0.0
O137 O 0.781 0.39166 0.2301 0.0
O138 O 0.86145 0.41152 0.1365 0.0
O139 O 0.82895 0.42272 0.18489 0.0
Co140 Co 0.94997 0.6115 0.37237 0.0
O141 O 0.91382 0.581 0.39562 0.0
O142 O 0.93056 0.6378 0.4212 0.0
C143 C 0.93245 0.60166 0.30584 0.0
O144 O 0.98778 0.65173 0.36085 0.0
Co145 Co 1.00048 0.57352 0.31315 0.0
O146 O 0.02362 0.62568 0.31686 0.0
C147 C 0.98465 0.54538 0.39048 0.0
C148 C 0.90999 0.60793 0.4236 0.0
C149 C 1.01454 0.65388 0.34015 0.0
O150 O 0.98106 0.58127 0.40235 0.0
O151 O 0.9913 0.53524 0.35475 0.0
O152 O 0.92095 0.62886 0.32951 0.0
O153 O 0.95344 0.58056 0.32328 0.0
Co154 Co 0.82973 0.62471 0.36395 0.0
O155 O 0.86558 0.65411 0.33815 0.0
O156 O 0.85294 0.66619 0.39893 0.0
C157 C 0.84295 0.56005 0.34005 0.0
O158 O 0.79508 0.60603 0.40392 0.0
Co159 Co 0.77263 0.57762 0.32187 0.0
O160 O 0.75321 0.56958 0.37446 0.0
C161 C 0.7849 0.66126 0.31057 0.0
C162 C 0.87205 0.67532 0.37041 0.0
C163 C 0.76703 0.58639 0.40535 0.0
O164 O 0.7983 0.66347 0.3451 0.0
O165 O 0.77525 0.62826 0.29347 0.0
O166 O 0.85729 0.57814 0.37057 0.0
O167 O 0.82144 0.58179 0.32357 0.0
Co168 Co 0.70456 0.34148 0.88309 0.0
O169 O 0.73528 0.319 0.92175 0.0
O170 O 0.72301 0.38082 0.92414 0.0
C171 C 0.66322 0.29185 0.87775 0.0
O172 O 0.67587 0.37524 0.84499 0.0
Co173 Co 0.68991 0.29863 0.80007 0.0
O174 O 0.65312 0.33521 0.79573 0.0
C175 C 0.75007 0.3511 0.81593 0.0
C176 C 0.74175 0.35387 0.93796 0.0
C177 C 0.65681 0.36904 0.81318 0.0
O178 O 0.74369 0.35599 0.85227 0.0
O179 O 0.73264 0.32871 0.79122 0.0
O180 O 0.66418 0.318 0.90709 0.0
O181 O 0.68919 0.29358 0.85618 0.0
Co182 Co 0.95227 0.93419 0.8795 0.0
O183 O 0.98322 0.9147 0.83976 0.0
O184 O 0.9591 0.87791 0.88261 0.0
C185 C 0.9232 0.97569 0.8415 0.0
O186 O 0.91784 0.94093 0.92386 0.0
Co187 Co 0.95095 0.02112 0.90944 0.0
O188 O 0.90957 0.00511 0.93705 0.0
C189 C 1.01123 0.9741 0.91096 0.0
C190 C 0.98116 0.88085 0.85537 0.0
C191 C 0.90149 0.96909 0.94088 0.0
O192 O 0.99145 0.94463 0.91515 0.0
O193 O 0.99978 0.00794 0.90472 0.0
O194 O 0.91555 0.93835 0.84096 0.0
O195 O 0.94912 0.98587 0.86267 0.0
Co196 Co 0.85246 0.17323 0.63751 0.0
O197 O 0.88396 0.16802 0.68135 0.0
O198 O 0.84234 0.12632 0.66683 0.0
C199 C 0.89746 0.18957 0.60086 0.0
O200 O 0.81267 0.1653 0.59503 0.0
Co201 Co 0.84419 0.24171 0.58604 0.0
O202 O 0.80628 0.21563 0.55669 0.0
C203 C 0.83078 0.24551 0.67178 0.0
C204 C 0.86838 0.13576 0.68919 0.0
C205 C 0.79623 0.18254 0.56767 0.0
O206 O 0.82571 0.2082 0.67164 0.0
O207 O 0.84137 0.2629 0.64198 0.0
O208 O 0.88717 0.15347 0.60295 0.0
O209 O 0.8777 0.215 0.61577 0.0
Co210 Co 0.55818 0.14012 0.38705 0.0
O211 O 0.51339 0.14655 0.36385 0.0
O212 O 0.54021 0.19193 0.40135 0.0
C213 C 0.57589 0.11107 0.32738 0.0
O214 O 0.60508 0.14638 0.4181 0.0
Co215 Co 0.59421 0.06193 0.38994 0.0
O216 O 0.62886 0.08845 0.4256 0.0
C217 C 0.53877 0.0805 0.44386 0.0
C218 C 0.51374 0.18189 0.38002 0.0
C219 C 0.62808 0.12526 0.43389 0.0
O220 O 0.53884 0.11685 0.43537 0.0
O221 O 0.55568 0.0544 0.42523 0.0
O222 O 0.57699 0.14906 0.33377 0.0
O223 O 0.56633 0.09281 0.35731 0.0
Co224 Co 0.71385 0.89221 0.13047 0.0
O225 O 0.75638 0.91946 0.12081 0.0
O226 O 0.72939 0.8802 0.07699 0.0
C227 C 0.69335 0.94969 0.16302 0.0
O228 O 0.66881 0.85605 0.1281 0.0
Co229 Co 0.68864 0.88279 0.21258 0.0
O230 O 0.65717 0.84103 0.18952 0.0
C231 C 0.74582 0.83922 0.18567 0.0
C232 C 0.75534 0.90292 0.08556 0.0
C233 C 0.65203 0.83505 0.15259 0.0
O234 O 0.73831 0.84595 0.14981 0.0
O235 O 0.73292 0.85783 0.21502 0.0
O236 O 0.69012 0.943 0.125 0.0
O237 O 0.70746 0.92113 0.17925 0.0
Co238 Co 0.95315 0.07143 0.60767 0.0
O239 O 0.93612 0.01827 0.61655 0.0
O240 O 0.95222 0.06124 0.66415 0.0
C241 C 0.91181 0.08274 0.56298 0.0
O242 O 0.97092 0.13148 0.60897 0.0
Co243 Co 0.97507 0.09799 0.52262 0.0
O244 O 0.99239 0.14606 0.55015 0.0
C245 C 1.01257 0.05389 0.56905 0.0
C246 C 0.93925 0.02656 0.6541 0.0
C247 C 0.98563 0.1559 0.58562 0.0
O248 O 0.99968 0.05175 0.60279 0.0
O249 O 1.01532 0.08802 0.55715 0.0
O250 O 0.907 0.08575 0.60064 0.0
O251 O 0.94084 0.07089 0.55271 0.0
Co252 Co 0.71692 0.11908 0.37229 0.0
O253 O 0.7553 0.09145 0.38968 0.0
O254 O 0.72822 0.13414 0.42732 0.0
C255 C 0.69452 0.062 0.34148 0.0
O256 O 0.67533 0.15511 0.36196 0.0
Co257 Co 0.706 0.12179 0.28346 0.0
O258 O 0.67398 0.16386 0.297 0.0
C259 C 0.76169 0.1647 0.32289 0.0
C260 C 0.75278 0.1101 0.42347 0.0
C261 C 0.66361 0.17264 0.3315 0.0
O262 O 0.74687 0.16219 0.3556 0.0
O263 O 0.75262 0.14407 0.29169 0.0
O264 O 0.6884 0.0714 0.3782 0.0
O265 O 0.7134 0.08739 0.32549 0.0
Co266 Co 0.56342 0.88036 0.10337 0.0
O267 O 0.51856 0.87415 0.12262 0.0
O268 O 0.54322 0.82967 0.08524 0.0
C269 C 0.57756 0.90302 0.16624 0.0
O270 O 0.6111 0.8782 0.07546 0.0
Co271 Co 0.60056 0.96009 0.11171 0.0
O272 O 0.63421 0.93894 0.07492 0.0
C273 C 0.54138 0.94477 0.05933 0.0
C274 C 0.51744 0.83935 0.10586 0.0
C275 C 0.63396 0.90281 0.06318 0.0
O276 O 0.54558 0.90763 0.05797 0.0
O277 O 0.55722 0.96918 0.08355 0.0
O278 O 0.5796 0.86585 0.15638 0.0
O279 O 0.57109 0.92429 0.13722 0.0
Co280 Co 0.82804 0.85997 0.86529 0.0
O281 O 0.7881 0.89179 0.87352 0.0
O282 O 0.8177 0.86953 0.92169 0.0
C283 C 0.85122 0.89284 0.81351 0.0
O284 O 0.87127 0.82626 0.86991 0.0
Co285 Co 0.8386 0.81059 0.78675 0.0
O286 O 0.88051 0.79397 0.81157 0.0
C287 C 0.77838 0.80656 0.83433 0.0
C288 C 0.7906 0.88665 0.91103 0.0
C289 C 0.88903 0.80293 0.8474 0.0
O290 O 0.7974 0.81325 0.86464 0.0
O291 O 0.78996 0.80613 0.79948 0.0
O292 O 0.85569 0.90612 0.8502 0.0
O293 O 0.8309 0.86314 0.80958 0.0
Co294 Co 0.43434 0.62966 0.08171 0.0
O295 O 0.40107 0.58728 0.0915 0.0
O296 O 0.44338 0.60361 0.13106 0.0
C297 C 0.39232 0.66893 0.05882 0.0
O298 O 0.47603 0.67131 0.0851 0.0
Co299 Co 0.44602 0.66635 1.00337 0.0
O300 O 0.48403 0.69754 0.02715 0.0
C301 C 0.44857 0.58178 0.01566 0.0
C302 C 0.41773 0.58 0.12317 0.0
C303 C 0.49336 0.69398 0.06269 0.0
O304 O 0.45944 0.59039 0.0509 0.0
O305 O 0.43897 0.60814 0.9931 0.0
O306 O 0.40068 0.66876 0.09604 0.0
O307 O 0.41102 0.64793 0.03678 0.0
Co308 Co 0.20829 0.70221 0.87373 0.0
O309 O 0.25005 0.68037 0.89058 0.0
O310 O 0.21703 0.71553 0.929 0.0
C311 C 0.19233 0.64592 0.83779 0.0
O312 O 0.16186 0.72972 0.86833 0.0
Co313 Co 0.18857 0.71299 0.78727 0.0
O314 O 0.14634 0.73523 0.80511 0.0
C315 C 0.2498 0.74752 0.8268 0.0
C316 C 0.24451 0.69639 0.92529 0.0
C317 C 0.14074 0.74067 0.84164 0.0
O318 O 0.23445 0.74938 0.85938 0.0
O319 O 0.23594 0.73227 0.79498 0.0
O320 O 0.18669 0.64964 0.87531 0.0
O321 O 0.20652 0.67611 0.82356 0.0
Co322 Co 0.09093 0.4237 0.60167 0.0
O323 O 0.04738 0.40653 0.61739 0.0
O324 O 0.08176 0.37094 0.58062 0.0
C325 C 0.09882 0.45098 0.66388 0.0
O326 O 0.13823 0.43063 0.5765 0.0
Co327 Co 0.11408 0.50862 0.60416 0.0
O328 O 0.1521 0.49385 0.56992 0.0
C329 C 0.0541 0.47619 0.56199 0.0
C330 C 0.05312 0.37399 0.59765 0.0
C331 C 0.15721 0.45762 0.56188 0.0
O332 O 0.07024 0.44494 0.55567 0.0
O333 O 0.06594 0.50489 0.58456 0.0
O334 O 0.10732 0.41478 0.65574 0.0
O335 O 0.09004 0.46984 0.63386 0.0
Co336 Co 0.21048 0.36462 0.63294 0.0
O337 O 0.25507 0.38536 0.62262 0.0
O338 O 0.22817 0.34258 0.58235 0.0
C339 C 0.1983 0.42848 0.65401 0.0
O340 O 0.1627 0.33282 0.63157 0.0
Co341 Co 0.17092 0.37549 0.70847 0.0
O342 O 0.13362 0.34088 0.68702 0.0
C343 C 0.23511 0.33323 0.70276 0.0
C344 C 0.25467 0.36499 0.58926 0.0
C345 C 0.13671 0.32411 0.65296 0.0
O346 O 0.23057 0.32475 0.66557 0.0
O347 O 0.2165 0.35672 0.72259 0.0
O348 O 0.19456 0.41643 0.61709 0.0
O349 O 0.20394 0.40078 0.67677 0.0
Co350 Co 0.35064 0.64374 0.20788 0.0
O351 O 0.38527 0.63954 0.24869 0.0
O352 O 0.36123 0.5893 0.21481 0.0
C353 C 0.37649 0.69329 0.17842 0.0
O354 O 0.31485 0.63888 0.16104 0.0
Co355 Co 0.31012 0.71738 0.20643 0.0
O356 O 0.28321 0.69242 0.16192 0.0
C357 C 0.31221 0.66835 0.27376 0.0
C358 C 0.38281 0.60192 0.24212 0.0
C359 C 0.29038 0.6588 0.1468 0.0
O360 O 0.31645 0.63949 0.24916 0.0
O361 O 0.31331 0.7036 0.26286 0.0
O362 O 0.38444 0.65706 0.17067 0.0
O363 O 0.3556 0.69898 0.20646 0.0
Co364 Co 0.58937 0.57875 0.62441 0.0
O365 O 0.61879 0.54297 0.59495 0.0
O366 O 0.62017 0.60666 0.59053 0.0
C367 C 0.59651 0.54395 0.68002 0.0
O368 O 0.56226 0.62768 0.64519 0.0
Co369 Co 0.52795 0.56184 0.67479 0.0
O370 O 0.525 0.61696 0.69173 0.0
C371 C 0.53087 0.54519 0.58655 0.0
C372 C 0.63214 0.57307 0.57893 0.0
C373 C 0.53915 0.63987 0.66898 0.0
O374 O 0.55485 0.57021 0.58252 0.0
O375 O 0.5173 0.54041 0.61981 0.0
O376 O 0.61792 0.57165 0.67175 0.0
O377 O 0.57034 0.54136 0.65774 0.0
Co378 Co 0.95318 0.37551 0.13472 0.0
O379 O 0.91536 0.39955 0.10678 0.0
O380 O 0.92919 0.33969 0.09442 0.0
C381 C 0.94024 0.40175 0.19938 0.0
O382 O 0.99008 0.3361 0.15101 0.0
Co383 Co 1.01047 0.41546 0.18431 0.0
O384 O 0.03138 0.36392 0.18948 0.0
C385 C 1.00088 0.42814 0.09934 0.0
C386 C 0.90876 0.36692 0.08624 0.0
C387 C 1.01851 0.33401 0.17005 0.0
O388 O 0.98335 0.39608 0.09462 0.0
O389 O 1.01093 0.44269 0.13332 0.0
O390 O 0.92622 0.36993 0.18314 0.0
O391 O 0.96219 0.4164 0.17687 0.0
Co392 Co 0.70563 0.64256 0.65119 0.0
O393 O 0.66993 0.66205 0.68548 0.0
O394 O 0.6702 0.6709 0.62276 0.0
C395 C 0.70654 0.58412 0.68375 0.0
O396 O 0.7399 0.62907 0.60411 0.0
Co397 Co 0.77489 0.61788 0.67951 0.0
O398 O 0.78868 0.60561 0.62525 0.0
C399 C 0.74425 0.69439 0.69952 0.0
C400 C 0.65559 0.67793 0.65619 0.0
C401 C 0.77009 0.61596 0.59732 0.0
O402 O 0.73078 0.69197 0.66506 0.0
O403 O 0.76411 0.66805 0.71026 0.0
O404 O 0.68591 0.58869 0.65418 0.0
O405 O 0.72713 0.61338 0.69051 0.0
Co406 Co 0.4744 0.37354 0.39323 0.0
O407 O 0.51904 0.36654 0.37047 0.0
O408 O 0.48408 0.31841 0.38068 0.0
C409 C 0.46038 0.42804 0.35927 0.0
O410 O 0.4264 0.36913 0.4183 0.0
Co411 Co 0.45942 0.45213 0.44181 0.0
O412 O 0.4155 0.42752 0.44943 0.0
C413 C 0.49291 0.38516 0.47819 0.0
C414 C 0.51381 0.32887 0.37008 0.0
C415 C 0.40727 0.39188 0.4399 0.0
O416 O 0.49405 0.36499 0.44572 0.0
O417 O 0.48095 0.41966 0.4817 0.0
O418 O 0.45582 0.39265 0.34307 0.0
O419 O 0.47504 0.42917 0.39318 0.0
Co420 Co 0.09581 0.62824 0.89313 0.0
O421 O 0.05312 0.63457 0.86613 0.0
O422 O 0.07548 0.67965 0.90768 0.0
C423 C 0.11711 0.60182 0.83362 0.0
O424 O 0.13993 0.63176 0.93008 0.0
Co425 Co 0.13101 0.54829 0.89442 0.0
O426 O 0.16471 0.57328 0.93218 0.0
C427 C 0.07042 0.56502 0.94107 0.0
C428 C 0.05076 0.66913 0.88348 0.0
C429 C 0.16252 0.60902 0.94462 0.0
O430 O 0.07297 0.60214 0.9367 0.0
O431 O 0.08802 0.53951 0.92243 0.0
O432 O 0.11752 0.6397 0.84196 0.0
O433 O 0.10626 0.58248 0.86228 0.0
Co434 Co 0.33012 0.40645 0.3435 0.0
O435 O 0.29466 0.44222 0.36026 0.0
O436 O 0.32932 0.41626 0.40119 0.0
C437 C 0.34787 0.43915 0.28822 0.0
O438 O 0.36917 0.36675 0.33876 0.0
Co439 Co 0.32427 0.35985 0.26284 0.0
O440 O 0.36584 0.33411 0.27903 0.0
C441 C 0.27732 0.34649 0.32637 0.0
C442 C 0.30248 0.43628 0.39664 0.0
C443 C 0.37956 0.34012 0.31314 0.0
O444 O 0.29882 0.36187 0.35108 0.0
O445 O 0.28078 0.3479 0.28906 0.0
O446 O 0.35854 0.4497 0.32373 0.0
O447 O 0.32486 0.41213 0.28778 0.0
H448 H 0.06498 0.06902 0.0234 0.0
H449 H 0.02215 0.97201 0.08327 0.0
H450 H 0.03581 0.92673 0.02845 0.0
H451 H 0.03956 0.9211 0.95729 0.0
H452 H 0.06654 0.02188 0.89493 0.0
H453 H 0.08516 0.05747 0.95616 0.0
C454 C 0.05904 0.03791 0.02473 0.0
C455 C 0.04046 0.0242 0.05589 0.0
C456 C 0.0657 0.01237 0.99258 0.0
C457 C 0.0346 0.98358 0.05831 0.0
C458 C 0.04301 0.9575 0.02737 0.0
C459 C 0.05094 0.95037 0.95726 0.0
C460 C 0.04641 0.97212 0.92414 0.0
C461 C 0.05561 0.97223 0.99305 0.0
C462 C 0.06614 0.00659 0.92193 0.0
C463 C 0.07577 0.02744 0.95709 0.0
H464 H 0.33925 0.69105 0.34885 0.0
H465 H 0.25296 0.63193 0.29744 0.0
H466 H 0.22103 0.69175 0.3048 0.0
H467 H 0.23209 0.7601 0.28935 0.0
H468 H 0.31936 0.82399 0.33837 0.0
H469 H 0.33989 0.76303 0.36378 0.0
C470 C 0.31281 0.69127 0.34132 0.0
C471 C 0.29968 0.66225 0.31354 0.0
C472 C 0.29684 0.72747 0.34224 0.0
C473 C 0.26481 0.65787 0.31223 0.0
C474 C 0.2467 0.6923 0.31563 0.0
C475 C 0.2541 0.76202 0.30846 0.0
C476 C 0.27426 0.79654 0.31193 0.0
C477 C 0.26442 0.72801 0.32485 0.0
C478 C 0.30395 0.79736 0.33466 0.0
C479 C 0.31529 0.76283 0.3499 0.0
H480 H 0.51127 0.01797 0.60972 0.0
H481 H 0.48421 0.91521 0.53355 0.0
H482 H 0.48871 0.95315 0.47632 0.0
H483 H 0.5045 0.01306 0.44661 0.0
H484 H 0.53692 0.11558 0.51888 0.0
H485 H 0.52475 0.08099 0.57863 0.0
C486 C 0.50655 0.00395 0.58059 0.0
C487 C 0.49785 0.96352 0.57629 0.0
C488 C 0.50946 0.0261 0.54696 0.0
C489 C 0.49135 0.94603 0.53818 0.0
C490 C 0.49363 0.96777 0.50515 0.0
C491 C 0.50803 0.02822 0.47548 0.0
C492 C 0.5214 0.06671 0.47845 0.0
C493 C 0.50301 0.00754 0.50914 0.0
C494 C 0.52604 0.0861 0.5159 0.0
C495 C 0.51974 0.06601 0.55001 0.0
H496 H 0.29903 0.25807 0.84338 0.0
H497 H 0.29385 0.15801 0.7591 0.0
H498 H 0.2834 0.20026 0.70582 0.0
H499 H 0.26224 0.26267 0.68637 0.0
H500 H 0.26589 0.36275 0.77032 0.0
H501 H 0.29154 0.32396 0.81981 0.0
C502 C 0.29627 0.24577 0.81327 0.0
C503 C 0.29523 0.2051 0.80547 0.0
C504 C 0.2898 0.27017 0.78255 0.0
C505 C 0.29294 0.18935 0.76614 0.0
C506 C 0.28726 0.21342 0.73546 0.0
C507 C 0.26983 0.27624 0.71498 0.0
C508 C 0.26094 0.3146 0.72548 0.0
C509 C 0.28349 0.25352 0.74372 0.0
C510 C 0.27151 0.33247 0.76226 0.0
C511 C 0.28605 0.31038 0.79065 0.0
H512 H 0.97692 0.95467 0.41389 0.0
H513 H 0.99196 0.86399 0.49234 0.0
H514 H 0.97965 0.90852 0.5491 0.0
H515 H 0.99067 0.9776 0.57558 0.0
H516 H 1.00892 0.06398 0.48979 0.0
H517 H 0.98454 0.02101 0.43833 0.0
C518 C 0.97599 0.94466 0.44358 0.0
C519 C 0.99065 0.90932 0.45062 0.0
C520 C 0.9772 0.97251 0.47541 0.0
C521 C 0.98455 0.89356 0.48719 0.0
C522 C 0.97879 0.9194 0.51982 0.0
C523 C 0.98874 0.98703 0.54575 0.0
C524 C 0.99982 0.02503 0.53754 0.0
C525 C 0.97962 0.95988 0.51443 0.0
C526 C 0.99875 0.03601 0.49808 0.0
C527 C 0.98484 0.01129 0.46811 0.0
H528 H 0.34432 0.80963 0.72761 0.0
H529 H 0.31089 0.69677 0.67587 0.0
H530 H 0.30941 0.67079 0.74134 0.0
H531 H 0.29015 0.68987 0.80666 0.0
H532 H 0.29164 0.81227 0.84447 0.0
H533 H 0.33461 0.8256 0.79674 0.0
C534 C 0.33801 0.77885 0.73093 0.0
C535 C 0.32579 0.75555 0.69785 0.0
C536 C 0.3307 0.76688 0.76832 0.0
C537 C 0.31926 0.71545 0.70127 0.0
C538 C 0.31792 0.70095 0.73885 0.0
C539 C 0.30137 0.71912 0.80541 0.0
C540 C 0.28642 0.75056 0.82648 0.0
C541 C 0.31934 0.7277 0.77213 0.0
C542 C 0.30181 0.7879 0.82716 0.0
C543 C 0.32573 0.79554 0.79904 0.0
H544 H 0.47854 0.06369 0.95382 0.0
H545 H 0.52115 0.98791 0.8629 0.0
H546 H 0.53521 0.94091 0.91187 0.0
H547 H 0.54018 0.92539 0.98157 0.0
H548 H 0.49872 1.00337 0.07118 0.0
H549 H 0.47797 0.04516 0.021 0.0
C550 C 0.49101 0.037 0.94451 0.0
C551 C 0.49967 0.0297 0.90508 0.0
C552 C 0.49851 0.0103 0.97238 0.0
C553 C 0.51494 0.99447 0.89339 0.0
C554 C 0.5227 0.96752 0.92122 0.0
C555 C 0.52556 0.95079 0.98972 0.0
C556 C 0.52083 0.9617 0.02952 0.0
C557 C 0.51508 0.97552 0.96091 0.0
C558 C 0.50241 0.99478 0.0404 0.0
C559 C 0.49095 0.01879 0.01189 0.0
H560 H 0.21348 0.33097 0.30079 0.0
H561 H 0.28636 0.29343 0.38318 0.0
H562 H 0.28312 0.22702 0.35239 0.0
H563 H 0.27711 0.19079 0.2879 0.0
H564 H 0.2147 0.23654 0.19705 0.0
H565 H 0.19777 0.28922 0.24287 0.0
C566 C 0.22713 0.30737 0.31309 0.0
C567 C 0.25343 0.31717 0.3398 0.0
C568 C 0.22906 0.27174 0.29107 0.0
C569 C 0.26812 0.28678 0.35953 0.0
C570 C 0.26722 0.24911 0.34104 0.0
C571 C 0.25964 0.21212 0.27816 0.0
C572 C 0.24811 0.2106 0.23881 0.0
C573 C 0.25095 0.24309 0.30413 0.0
C574 C 0.22486 0.23786 0.22687 0.0
C575 C 0.21466 0.26762 0.2532 0.0
H576 H 0.43021 0.55569 0.94202 0.0
H577 H 0.45659 0.51565 0.05633 0.0
H578 H 0.46821 0.45097 0.02626 0.0
H579 H 0.49518 0.422 0.9689 0.0
H580 H 0.48704 0.47557 0.85825 0.0
H581 H 0.44175 0.51568 0.883 0.0
C582 C 0.43771 0.53249 0.96049 0.0
C583 C 0.44532 0.54083 1.00065 0.0
C584 C 0.44734 0.49707 0.94264 0.0
C585 C 0.4528 0.51024 0.0248 0.0
C586 C 0.4591 0.47323 0.00765 0.0
C587 C 0.48185 0.44101 0.94987 0.0
C588 C 0.49521 0.44869 0.91345 0.0
C589 C 0.46034 0.46823 0.96651 0.0
C590 C 0.47758 0.47092 0.88727 0.0
C591 C 0.45223 0.4944 0.90182 0.0
H592 H 0.82362 0.29195 0.22837 0.0
H593 H 0.74493 0.35725 0.28398 0.0
H594 H 0.73719 0.30584 0.33052 0.0
H595 H 0.7458 0.23762 0.34588 0.0
H596 H 0.81991 0.1702 0.28412 0.0
H597 H 0.83809 0.22827 0.25068 0.0
C598 C 0.80486 0.29503 0.25081 0.0
C599 C 0.78393 0.32731 0.25205 0.0
C600 C 0.80037 0.2654 0.27669 0.0
C601 C 0.76069 0.33197 0.2821 0.0
C602 C 0.75642 0.30277 0.3087 0.0
C603 C 0.76695 0.23625 0.32645 0.0
C604 C 0.78158 0.2001 0.31703 0.0
C605 C 0.77523 0.26869 0.30514 0.0
C606 C 0.80857 0.19805 0.29157 0.0
C607 C 0.81848 0.23095 0.27208 0.0
H608 H 0.02902 0.42928 0.50169 0.0
H609 H 1.00554 0.52841 0.58007 0.0
H610 H 0.96473 0.54934 0.53222 0.0
H611 H 0.95829 0.5554 0.46211 0.0
H612 H 0.9963 0.46665 0.38042 0.0
H613 H 1.00719 0.42473 0.43448 0.0
C614 C 1.01417 0.45478 0.5087 0.0
C615 C 0.02182 0.47934 0.54234 0.0
C616 C 0.99375 0.4688 0.47958 0.0
C617 C 1.00125 0.51068 0.5528 0.0
C618 C 0.97793 0.52252 0.52555 0.0
C619 C 0.96832 0.5265 0.45608 0.0
C620 C 0.97955 0.51527 0.41847 0.0
C621 C 0.97749 0.50467 0.48737 0.0
C622 C 0.98971 0.47674 0.40999 0.0
C623 C 0.99582 0.4528 0.44082 0.0
H624 H 0.76582 0.66948 0.23372 0.0
H625 H 0.80289 0.73504 0.3393 0.0
H626 H 0.80232 0.79542 0.30533 0.0
H627 H 0.78516 0.83076 0.24892 0.0
H628 H 0.74393 0.76766 0.1446 0.0
H629 H 0.754 0.7051 0.17392 0.0
C630 C 0.77367 0.69699 0.24928 0.0
C631 C 0.78354 0.69771 0.28932 0.0
C632 C 0.77321 0.732 0.22955 0.0
C633 C 0.79444 0.73354 0.30876 0.0
C634 C 0.79446 0.76817 0.28928 0.0
C635 C 0.77936 0.80322 0.23214 0.0
C636 C 0.76356 0.80368 0.19498 0.0
C637 C 0.78321 0.76784 0.25006 0.0
C638 C 0.75636 0.76799 0.17323 0.0
C639 C 0.76146 0.73227 0.19034 0.0
H640 H 0.81695 0.32152 0.67732 0.0
H641 H 0.84102 0.22394 0.74673 0.0
H642 H 0.83435 0.2651 0.80735 0.0
H643 H 0.80684 0.32115 0.83768 0.0
H644 H 0.76643 0.40763 0.76514 0.0
H645 H 0.79858 0.38252 0.70943 0.0
C646 C 0.82126 0.30952 0.70578 0.0
C647 C 0.82811 0.26971 0.70811 0.0
C648 C 0.81586 0.33259 0.73991 0.0
C649 C 0.83425 0.25428 0.74474 0.0
C650 C 0.8311 0.27793 0.77918 0.0
C651 C 0.80679 0.33562 0.81008 0.0
C652 C 0.78285 0.36361 0.8037 0.0
C653 C 0.81995 0.3163 0.77697 0.0
C654 C 0.78387 0.38451 0.76956 0.0
C655 C 0.80129 0.36925 0.73744 0.0
H656 H 0.73525 0.75185 0.86444 0.0
H657 H 0.73349 0.86172 0.8116 0.0
H658 H 0.71023 0.83058 0.75024 0.0
H659 H 0.72101 0.7693 0.70784 0.0
H660 H 0.7219 0.6589 0.76317 0.0
H661 H 0.71384 0.69201 0.82723 0.0
C662 C 0.72749 0.76921 0.84034 0.0
C663 C 0.74178 0.80667 0.83784 0.0
C664 C 0.71552 0.75004 0.80501 0.0
C665 C 0.72657 0.83075 0.81088 0.0
C666 C 0.71399 0.81287 0.77526 0.0
C667 C 0.71785 0.7525 0.73363 0.0
C668 C 0.72535 0.71264 0.73198 0.0
C669 C 0.7132 0.77173 0.7707 0.0
C670 C 0.719 0.69043 0.7648 0.0
C671 C 0.71391 0.70916 0.80142 0.0
H672 H 0.56033 0.38902 0.49079 0.0
H673 H 0.47279 0.35275 0.54882 0.0
H674 H 0.47442 0.41358 0.591 0.0
H675 H 0.48805 0.48366 0.59071 0.0
H676 H 0.57359 0.52422 0.52711 0.0
H677 H 0.58225 0.45702 0.50106 0.0
C678 C 0.54252 0.39424 0.514 0.0
C679 C 0.51224 0.37264 0.51191 0.0
C680 C 0.54155 0.43176 0.53304 0.0
C681 C 0.4934 0.37361 0.54621 0.0
C682 C 0.49357 0.40887 0.56931 0.0
C683 C 0.50889 0.47808 0.57146 0.0
C684 C 0.5301 0.50906 0.56087 0.0
C685 C 0.51518 0.43965 0.55918 0.0
C686 C 0.55648 0.50107 0.53517 0.0
C687 C 0.56226 0.46255 0.52145 0.0
H688 H 0.03418 0.49759 0.93748 0.0
H689 H 0.06231 0.59862 0.01463 0.0
H690 H 0.04169 0.56496 0.07125 0.0
H691 H 0.02223 0.50412 0.09909 0.0
H692 H 0.9949 0.40259 0.02171 0.0
H693 H 1.00878 0.43928 0.96456 0.0
C694 C 0.03494 0.51251 0.96662 0.0
C695 C 0.04971 0.55027 0.9722 0.0
C696 C 0.02394 0.49266 0.99887 0.0
C697 C 0.05059 0.56967 0.00978 0.0
C698 C 0.03929 0.55022 0.04214 0.0
C699 C 0.01933 0.48994 0.06974 0.0
C700 C 1.00838 0.45038 0.06466 0.0
C701 C 0.02712 0.51121 0.03711 0.0
C702 C 1.00385 0.4328 0.02641 0.0
C703 C 1.01163 0.45378 0.99374 0.0
H704 H 0.06035 0.00892 0.24137 0.0
H705 H 0.13655 0.03687 0.15953 0.0
H706 H 0.16961 0.98276 0.17999 0.0
H707 H 0.18102 0.93273 0.22787 0.0
H708 H 0.10161 0.89384 0.29958 0.0
H709 H 0.0662 0.94684 0.27787 0.0
C710 C 0.08435 1.00339 0.22836 0.0
C711 C 0.09736 0.02968 0.2014 0.0
C712 C 0.10319 0.97084 0.23968 0.0
C713 C 0.12708 0.01954 0.18251 0.0
C714 C 0.1459 0.98798 0.19384 0.0
C715 C 0.15615 0.93633 0.23927 0.0
C716 C 0.14555 0.91308 0.26983 0.0
C717 C 0.13514 0.96476 0.22396 0.0
C718 C 0.1119 0.91509 0.28052 0.0
C719 C 0.09129 0.94452 0.26687 0.0
H720 H 0.38375 0.82534 0.51817 0.0
H721 H 0.37941 0.95002 0.54459 0.0
H722 H 0.33254 0.95338 0.49751 0.0
H723 H 0.29022 0.92063 0.44871 0.0
H724 H 0.29349 0.79507 0.42641 0.0
H725 H 0.34162 0.79282 0.47085 0.0
C726 C 0.37297 0.85345 0.51349 0.0
C727 C 0.3863 0.88749 0.53548 0.0
C728 C 0.34483 0.85514 0.48661 0.0
C729 C 0.37076 0.9232 0.52842 0.0
C730 C 0.34342 0.92514 0.50136 0.0
C731 C 0.30137 0.8927 0.45341 0.0
C732 C 0.28731 0.85801 0.43297 0.0
C733 C 0.32977 0.89127 0.48028 0.0
C734 C 0.303 0.82251 0.44057 0.0
C735 C 0.33095 0.82108 0.46644 0.0
H736 H 0.41396 0.02185 0.86467 0.0
H737 H 0.30068 0.06047 0.81765 0.0
H738 H 0.30279 0.03324 0.74564 0.0
H739 H 0.32879 0.9698 0.69768 0.0
H740 H 0.44357 0.90709 0.76439 0.0
H741 H 0.45063 0.96747 0.80939 0.0
C742 C 0.39687 0.02494 0.84018 0.0
C743 C 0.35587 0.04861 0.84717 0.0
C744 C 0.40823 0.00462 0.78958 0.0
C745 C 0.32494 0.04958 0.81033 0.0
C746 C 0.32583 0.03343 0.76283 0.0
C747 C 0.35094 0.96964 0.71719 0.0
C748 C 0.39551 0.91928 0.72757 0.0
C749 C 0.35831 0.01034 0.74336 0.0
C750 C 0.42472 0.92886 0.76067 0.0
C751 C 0.431 0.96796 0.7871 0.0
H752 H 0.23548 0.05757 0.97679 0.0
H753 H 0.25329 0.18281 0.98616 0.0
H754 H 0.20691 0.19001 0.03204 0.0
H755 H 0.15742 0.16057 0.06496 0.0
H756 H 0.14457 0.03435 0.05969 0.0
H757 H 0.19179 0.02793 0.01618 0.0
C758 C 0.22977 0.08644 0.98957 0.0
C759 C 0.24818 0.11957 0.97794 0.0
C760 C 0.20317 0.09027 0.0161 0.0
C761 C 0.24015 0.15668 0.99489 0.0
C762 C 0.21319 0.16082 0.02077 0.0
C763 C 0.1653 0.13163 0.05495 0.0
C764 C 0.14712 0.09798 0.06624 0.0
C765 C 0.19388 0.12787 0.0309 0.0
C766 C 0.15774 0.06086 0.052 0.0
C767 C 0.18499 0.05707 0.02704 0.0
H768 H 0.22207 0.01802 0.25375 0.0
H769 H 0.14597 0.10151 0.23406 0.0
H770 H 0.11269 0.07527 0.28639 0.0
H771 H 0.10104 0.02189 0.33218 0.0
H772 H 0.18037 0.94587 0.36047 0.0
H773 H 0.21586 0.97492 0.31108 0.0
C774 C 0.19819 0.03047 0.26082 0.0
C775 C 0.18553 0.06001 0.23736 0.0
C776 C 0.17915 0.0156 0.2922 0.0
C777 C 0.15554 0.07723 0.2494 0.0
C778 C 0.13651 0.0624 0.27988 0.0
C779 C 0.12599 0.01144 0.32732 0.0
C780 C 0.13664 0.97835 0.34702 0.0
C781 C 0.14713 0.03016 0.30021 0.0
C782 C 0.17023 0.96816 0.34274 0.0
C783 C 0.19089 0.98561 0.3151 0.0
H784 H 0.25024 0.90967 0.53748 0.0
H785 H 0.26205 0.78483 0.5203 0.0
H786 H 0.21385 0.77997 0.47434 0.0
H787 H 0.1637 0.81036 0.44693 0.0
H788 H 0.1533 0.9356 0.46314 0.0
H789 H 0.20492 0.94115 0.50276 0.0
C790 C 0.24286 0.88162 0.52261 0.0
C791 C 0.25973 0.8477 0.53195 0.0
C792 C 0.21476 0.87902 0.4971 0.0
C793 C 0.24981 0.81142 0.51299 0.0
C794 C 0.22188 0.80858 0.48729 0.0
C795 C 0.17326 0.83897 0.4581 0.0
C796 C 0.15496 0.87266 0.45131 0.0
C797 C 0.20343 0.84201 0.4803 0.0
C798 C 0.16698 0.9093 0.46758 0.0
C799 C 0.1966 0.91252 0.49011 0.0
H800 H 0.33987 0.98259 0.82732 0.0
H801 H 0.41213 0.0899 0.73971 0.0
H802 H 0.42885 0.0349 0.69449 0.0
H803 H 0.40149 0.9678 0.64581 0.0
H804 H 0.33936 0.90788 0.73852 0.0
H805 H 0.32744 0.90921 0.78894 0.0
C806 C 0.35597 0.99151 0.80357 0.0
C807 C 0.37984 0.05843 0.78548 0.0
C808 C 0.37011 0.95566 0.77526 0.0
C809 C 0.40271 0.06123 0.74736 0.0
C810 C 0.41536 0.02662 0.72007 0.0
C811 C 0.39183 0.9571 0.67268 0.0
C812 C 0.35933 0.91717 0.6708 0.0
C813 C 0.40514 0.98231 0.72103 0.0
C814 C 0.33862 0.90038 0.71116 0.0
C815 C 0.34316 0.9178 0.76116 0.0
H816 H 0.36618 0.05267 0.96391 0.0
H817 H 0.41251 0.16592 0.9967 0.0
H818 H 0.37287 0.17549 0.04982 0.0
H819 H 0.32419 0.15269 0.08823 0.0
H820 H 0.27473 0.04213 0.05344 0.0
H821 H 0.31466 0.03171 1.00005 0.0
C822 C 0.368 0.07944 0.98276 0.0
C823 C 0.39345 0.10846 0.97523 0.0
C824 C 0.34339 0.08595 0.01276 0.0
C825 C 0.39418 0.14269 1.00084 0.0
C826 C 0.37093 0.14848 0.03134 0.0
C827 C 0.32133 0.12676 0.06826 0.0
C828 C 0.29493 0.09901 0.07483 0.0
C829 C 0.34506 0.12069 0.03746 0.0
C830 C 0.29338 0.06494 0.04904 0.0
C831 C 0.31689 0.05864 0.01861 0.0
H832 H 0.90531 0.27465 0.10873 0.0
H833 H 0.89188 0.29472 0.23355 0.0
H834 H 0.93437 0.24676 0.24651 0.0
H835 H 0.97519 0.19709 0.22242 0.0
H836 H 0.99636 0.18677 0.09873 0.0
H837 H 0.95326 0.23421 0.08564 0.0
C838 C 0.91216 0.2695 0.13882 0.0
C839 C 0.89493 0.28915 0.16999 0.0
C840 C 0.9389 0.24382 0.14641 0.0
C841 C 0.90416 0.28046 0.20871 0.0
C842 C 0.92885 0.25304 0.21625 0.0
C843 C 0.9712 0.20614 0.19272 0.0
C844 C 0.98977 0.18823 0.16172 0.0
C845 C 0.94659 0.2345 0.1854 0.0
C846 C 0.98337 0.20026 0.12343 0.0
C847 C 0.95814 0.2271 0.1158 0.0
H848 H 0.50394 0.31917 0.94474 0.0
H849 H 0.51892 0.30402 0.81971 0.0
H850 H 0.46949 0.25953 0.81299 0.0
H851 H 0.42181 0.22277 0.84297 0.0
H852 H 0.40787 0.23862 0.96822 0.0
H853 H 0.45638 0.28393 0.9742 0.0
C854 C 0.49664 0.30614 0.91586 0.0
C855 C 0.51608 0.31528 0.8828 0.0
C856 C 0.46786 0.28022 0.9122 0.0
C857 C 0.50521 0.29791 0.84585 0.0
C858 C 0.47658 0.27236 0.84198 0.0
C859 C 0.42923 0.23616 0.87165 0.0
C860 C 0.41052 0.22649 0.90521 0.0
C861 C 0.45766 0.26292 0.87497 0.0
C862 C 0.42112 0.24486 0.94179 0.0
C863 C 0.44917 0.271 0.94526 0.0
H864 H 0.0565 0.6839 0.28693 0.0
H865 H 0.02819 0.69944 0.4083 0.0
H866 H 0.07526 0.74627 0.42163 0.0
H867 H 0.12723 0.77885 0.39959 0.0
H868 H 0.15288 0.76601 0.27706 0.0
H869 H 0.10499 0.7211 0.2638 0.0
C870 C 0.06023 0.69807 0.31618 0.0
C871 C 0.03864 0.68809 0.34652 0.0
C872 C 0.08736 0.725 0.3236 0.0
C873 C 0.04406 0.70673 0.38425 0.0
C874 C 0.07129 0.73322 0.39199 0.0
C875 C 0.12183 0.76742 0.36973 0.0
C876 C 0.1435 0.77704 0.33922 0.0
C877 C 0.09345 0.74217 0.36199 0.0
C878 C 0.13674 0.75974 0.30116 0.0
C879 C 0.10916 0.73405 0.29346 0.0
H880 H 0.06051 0.30202 0.22435 0.0
H881 H 0.02739 0.28612 0.10302 0.0
H882 H 0.07056 0.23749 0.09054 0.0
H883 H 0.12146 0.20245 0.11323 0.0
H884 H 0.14849 0.21254 0.23696 0.0
H885 H 0.10547 0.26056 0.24869 0.0
C886 C 0.06218 0.28739 0.19528 0.0
C887 C 0.04016 0.29816 0.16478 0.0
C888 C 0.0869 0.25861 0.18841 0.0
C889 C 0.04331 0.27853 0.12738 0.0
C890 C 0.06846 0.25083 0.12008 0.0
C891 C 0.11751 0.21427 0.14294 0.0
C892 C 0.13875 0.20288 0.17412 0.0
C893 C 0.09097 0.24099 0.15019 0.0
C894 C 0.13306 0.22002 0.21213 0.0
C895 C 0.10815 0.24772 0.21903 0.0
H896 H 0.60794 0.70577 0.60263 0.0
H897 H 0.63804 0.71444 0.7255 0.0
H898 H 0.59512 0.76202 0.73956 0.0
H899 H 0.5496 0.80391 0.71766 0.0
H900 H 0.5156 0.7928 0.59648 0.0
H901 H 0.55867 0.74466 0.58149 0.0
C902 C 0.6051 0.71796 0.6325 0.0
C903 C 0.62695 0.70602 0.66282 0.0
C904 C 0.57935 0.74548 0.64091 0.0
C905 C 0.62205 0.72237 0.70133 0.0
C906 C 0.59735 0.74999 0.70953 0.0
C907 C 0.55119 0.79058 0.68803 0.0
C908 C 0.52862 0.8021 0.65847 0.0
C909 C 0.57588 0.76206 0.67968 0.0
C910 C 0.53185 0.78441 0.6202 0.0
C911 C 0.5569 0.75694 0.61148 0.0
H912 H 0.91729 0.70316 0.31504 0.0
H913 H 0.89246 0.71873 0.43763 0.0
H914 H 0.94117 0.76237 0.45001 0.0
H915 H 0.99191 0.79652 0.42712 0.0
H916 H 1.01586 0.78556 0.30418 0.0
H917 H 0.96754 0.74011 0.29131 0.0
C918 C 0.9225 0.71585 0.34459 0.0
C919 C 0.90101 0.7058 0.37564 0.0
C920 C 0.95094 0.74207 0.35161 0.0
C921 C 0.90835 0.72424 0.4132 0.0
C922 C 0.93648 0.74962 0.42037 0.0
C923 C 0.98678 0.78414 0.39742 0.0
C924 C 1.00822 0.79467 0.36676 0.0
C925 C 0.95822 0.75858 0.39002 0.0
C926 C 1.00025 0.77841 0.3285 0.0
C927 C 0.97238 0.75226 0.32112 0.0
H928 H 0.54772 0.18354 0.79299 0.0
H929 H 0.50156 0.20045 0.90568 0.0
H930 H 0.54893 0.24333 0.92976 0.0
H931 H 0.60494 0.27583 0.91879 0.0
H932 H 0.65219 0.2505 0.80757 0.0
H933 H 0.60333 0.21228 0.78326 0.0
C934 C 0.54755 0.19719 0.82263 0.0
C935 C 0.52012 0.18969 0.84681 0.0
C936 C 0.57548 0.2207 0.83672 0.0
C937 C 0.52141 0.20672 0.88566 0.0
C938 C 0.54888 0.23089 0.89967 0.0
C939 C 0.60457 0.26189 0.88927 0.0
C940 C 0.63262 0.26693 0.86505 0.0
C941 C 0.57624 0.2382 0.87548 0.0
C942 C 0.63135 0.24803 0.82702 0.0
C943 C 0.60318 0.22588 0.8129 0.0
H944 H 0.83517 0.08077 0.73262 0.0
H945 H 0.93264 0.13263 0.71438 0.0
H946 H 0.95768 0.08867 0.75969 0.0
H947 H 0.95287 0.03342 0.80248 0.0
H948 H 0.85581 0.98512 0.82734 0.0
H949 H 0.82967 0.03017 0.78288 0.0
C950 C 0.86184 0.08258 0.7388 0.0
C951 C 0.88198 0.10986 0.71946 0.0
C952 C 0.87622 0.05779 0.76628 0.0
C953 C 0.91643 0.11208 0.72854 0.0
C954 C 0.93088 0.08682 0.75452 0.0
C955 C 0.92595 0.03277 0.79825 0.0
C956 C 0.90644 0.00459 0.81685 0.0
C957 C 0.91116 0.05923 0.77319 0.0
C958 C 0.87155 0.00515 0.81198 0.0
C959 C 0.85659 0.03129 0.78683 0.0
H960 H 0.66893 0.08798 0.48679 0.0
H961 H 0.64684 0.20421 0.45341 0.0
H962 H 0.69759 0.23022 0.48657 0.0
H963 H 0.75034 0.21988 0.52299 0.0
H964 H 0.76517 0.1087 0.57342 0.0
H965 H 0.71393 0.08195 0.53913 0.0
C966 C 0.67497 0.11912 0.48666 0.0
C967 C 0.65542 0.1431 0.46248 0.0
C968 C 0.70275 0.13506 0.51023 0.0
C969 C 0.66297 0.18373 0.46619 0.0
C970 C 0.69176 0.19904 0.48683 0.0
C971 C 0.74281 0.18956 0.52647 0.0
C972 C 0.76334 0.16582 0.54934 0.0
C973 C 0.71255 0.17476 0.50784 0.0
C974 C 0.75117 0.12748 0.55499 0.0
C975 C 0.72156 0.11219 0.53541 0.0
H976 H 0.70005 0.03257 0.19282 0.0
H977 H 0.64025 0.92215 0.1808 0.0
H978 H 0.58657 0.94748 0.27363 0.0
H979 H 0.56806 0.02536 0.31754 0.0
H980 H 0.61771 0.14331 0.26018 0.0
H981 H 0.67135 0.10697 0.22173 0.0
C982 C 0.68059 0.01643 0.20705 0.0
C983 C 0.67012 0.97473 0.18732 0.0
C984 C 0.66404 0.03838 0.24405 0.0
C985 C 0.64125 0.94831 0.20153 0.0
C986 C 0.60826 0.96255 0.26168 0.0
C987 C 0.58847 0.03723 0.30116 0.0
C988 C 0.58986 0.08819 0.29255 0.0
C989 C 0.61902 0.00478 0.28369 0.0
C990 C 0.6203 0.11227 0.26304 0.0
C991 C 0.65604 0.08988 0.24057 0.0
H992 H 0.88733 0.9042 0.98406 0.0
H993 H 0.84683 0.01362 0.95119 0.0
H994 H 0.79801 1.00244 0.99107 0.0
H995 H 0.76732 0.96335 0.03828 0.0
H996 H 0.80688 0.85407 0.07177 0.0
H997 H 0.85525 0.86357 0.02979 0.0
C998 C 0.86781 0.92555 0.98557 0.0
C999 C 0.87132 0.96011 0.96485 0.0
C1000 C 0.83953 0.91915 0.00923 0.0
C1001 C 0.84544 0.98721 0.96728 0.0
C1002 C 0.81732 0.98082 0.99013 0.0
C1003 C 0.78644 0.94152 0.03607 0.0
C1004 C 0.78337 0.90789 0.05787 0.0
C1005 C 0.81423 0.94723 0.01173 0.0
C1006 C 0.80844 0.87995 0.05489 0.0
C1007 C 0.83619 0.88548 0.03093 0.0
H1008 H 0.87511 0.00628 0.67348 0.0
H1009 H 0.97768 0.9818 0.70002 0.0
H1010 H 0.95961 0.93309 0.74607 0.0
H1011 H 0.91428 0.89793 0.78014 0.0
H1012 H 0.81266 0.9319 0.76293 0.0
H1013 H 0.82992 0.97262 0.70945 0.0
C1014 C 0.89349 0.99024 0.68937 0.0
C1015 C 0.92785 0.99798 0.68336 0.0
C1016 C 0.88282 0.96294 0.71686 0.0
C1017 C 0.95121 0.97685 0.70427 0.0
C1018 C 0.94081 0.94869 0.73043 0.0
C1019 C 0.89604 0.91554 0.76592 0.0
C1020 C 0.86244 0.91409 0.77805 0.0
C1021 C 0.90667 0.94177 0.73741 0.0
C1022 C 0.83885 0.93362 0.75571 0.0
C1023 C 0.84879 0.95714 0.72511 0.0
H1024 H 0.84819 0.05391 0.55763 0.0
H1025 H 0.91732 0.13124 0.50291 0.0
H1026 H 0.8727 0.15117 0.45834 0.0
H1027 H 0.81386 0.14509 0.434 0.0
H1028 H 0.7489 0.05648 0.47848 0.0
H1029 H 0.79181 0.04142 0.52742 0.0
C1030 C 0.85335 0.07508 0.53585 0.0
C1031 C 0.8856 0.09214 0.53412 0.0
C1032 C 0.82818 0.08421 0.50865 0.0
C1033 C 0.89242 0.11862 0.5052 0.0
C1034 C 0.86696 0.12981 0.47971 0.0
C1035 C 0.80902 0.12317 0.45513 0.0
C1036 C 0.77755 0.10384 0.45491 0.0
C1037 C 0.83465 0.11292 0.48128 0.0
C1038 C 0.77229 0.07331 0.48001 0.0
C1039 C 0.79697 0.06436 0.50753 0.0
H1040 H 0.56706 0.9855 0.18178 0.0
H1041 H 0.61243 0.86628 0.23568 0.0
H1042 H 0.66231 0.9458 0.26327 0.0
H1043 H 0.69991 0.98167 0.31361 0.0
H1044 H 0.64262 0.08929 0.32041 0.0
H1045 H 0.58836 0.06128 0.2254 0.0
C1046 C 0.58722 0.97338 0.19841 0.0
C1047 C 0.58692 0.92262 0.20538 0.0
C1048 C 0.61874 0.00541 0.21749 0.0
C1049 C 0.61579 0.8978 0.23553 0.0
C1050 C 0.65251 0.91873 0.26045 0.0
C1051 C 0.68088 0.99667 0.29779 0.0
C1052 C 0.67101 0.03757 0.31602 0.0
C1053 C 0.66297 0.97208 0.25909 0.0
C1054 C 0.64315 0.06305 0.29982 0.0
C1055 C 0.60969 0.04705 0.2386 0.0
H1056 H 0.67019 0.95059 0.01608 0.0
H1057 H 0.66143 0.8287 0.04172 0.0
H1058 H 0.70831 0.81386 0.99971 0.0
H1059 H 0.75519 0.83592 0.95716 0.0
H1060 H 0.75917 0.95611 0.92528 0.0
H1061 H 0.7121 0.97093 0.96813 0.0
C1062 C 0.67827 0.92056 0.01279 0.0
C1063 C 0.66149 0.89115 0.0339 0.0
C1064 C 0.70547 0.91196 0.98746 0.0
C1065 C 0.67261 0.85246 0.02707 0.0
C1066 C 0.70012 0.84386 1.00272 0.0
C1067 C 0.74595 0.86549 0.95983 0.0
C1068 C 0.76193 0.89524 0.93867 0.0
C1069 C 0.71734 0.87348 0.98333 0.0
C1070 C 0.7483 0.93282 0.94158 0.0
C1071 C 0.72109 0.94126 0.9661 0.0
H1072 H 1.01781 0.84003 0.90802 0.0
H1073 H 1.00326 0.85419 0.78384 0.0
H1074 H 0.04915 0.81015 0.76919 0.0
H1075 H 0.09561 0.77134 0.79124 0.0
H1076 H 0.11424 0.76001 0.91541 0.0
H1077 H 0.06482 0.79893 0.93038 0.0
C1078 C 0.02435 0.83286 0.87771 0.0
C1079 C 1.00654 0.85005 0.84691 0.0
C1080 C 0.0519 0.8084 0.86954 0.0
C1081 C 1.01609 0.8412 0.80798 0.0
C1082 C 0.04251 0.81609 0.79965 0.0
C1083 C 0.08905 0.77698 0.82177 0.0
C1084 C 0.10931 0.76245 0.85212 0.0
C1085 C 0.06098 0.80007 0.83015 0.0
C1086 C 0.09967 0.77062 0.89129 0.0
C1087 C 0.07128 0.79305 0.89986 0.0
H1088 H 0.52858 0.70649 0.1376 0.0
H1089 H 0.53571 0.73208 0.01517 0.0
H1090 H 0.58562 0.77177 0.02967 0.0
H1091 H 0.62421 0.80741 0.07746 0.0
H1092 H 0.61736 0.78648 0.20037 0.0
H1093 H 0.57199 0.7387 0.18539 0.0
C1094 C 0.54084 0.72077 0.11402 0.0
C1095 C 0.52634 0.71648 0.07527 0.0
C1096 C 0.57026 0.74559 0.12266 0.0
C1097 C 0.5444 0.73488 0.04559 0.0
C1098 C 0.57369 0.75785 0.05373 0.0
C1099 C 0.61342 0.79269 0.10113 0.0
C1100 C 0.62505 0.80273 0.14023 0.0
C1101 C 0.58631 0.76491 0.09235 0.0
C1102 C 0.60958 0.78119 0.16978 0.0
C1103 C 0.58324 0.75317 0.16124 0.0
H1104 H 0.04316 0.30891 0.53639 0.0
H1105 H 1.01821 0.36215 0.67101 0.0
H1106 H 0.99161 0.29664 0.70287 0.0
H1107 H 0.94184 0.21936 0.67371 0.0
H1108 H 0.93282 0.19566 0.52367 0.0
H1109 H 0.99435 0.23209 0.50318 0.0
C1110 C 0.03464 0.30132 0.56499 0.0
C1111 C 0.03235 0.33929 0.60274 0.0
C1112 C 0.0208 0.25279 0.57049 0.0
C1113 C 1.01698 0.33555 0.65196 0.0
C1114 C 1.00218 0.29298 0.67394 0.0
C1115 C 0.95598 0.21898 0.64697 0.0
C1116 C 0.93351 0.20059 0.59909 0.0
C1117 C 0.99779 0.2468 0.64853 0.0
C1118 C 0.94966 0.20514 0.54781 0.0
C1119 C 0.99049 0.2281 0.53406 0.0
H1120 H 1.01831 0.72864 0.92857 0.0
H1121 H 1.01803 0.66716 0.81376 0.0
H1122 H 0.97008 0.70323 0.79321 0.0
H1123 H 0.92705 0.75001 0.80691 0.0
H1124 H 0.92265 0.81167 0.92112 0.0
H1125 H 0.97307 0.77811 0.94244 0.0
C1126 C 1.00785 0.7234 0.89901 0.0
C1127 C 0.02223 0.6948 0.87281 0.0
C1128 C 0.97909 0.74418 0.88718 0.0
C1129 C 1.00784 0.68853 0.83476 0.0
C1130 C 0.98023 0.7093 0.82283 0.0
C1131 C 0.93682 0.75658 0.83663 0.0
C1132 C 0.92039 0.78378 0.86218 0.0
C1133 C 0.96544 0.73685 0.84875 0.0
C1134 C 0.9342 0.79103 0.90053 0.0
C1135 C 0.9632 0.77168 0.91277 0.0
H1136 H 0.39039 0.2972 0.37886 0.0
H1137 H 0.43119 0.32045 0.26627 0.0
H1138 H 0.47354 0.27137 0.27481 0.0
H1139 H 0.50068 0.22251 0.31492 0.0
H1140 H 0.46413 0.20332 0.4304 0.0
H1141 H 0.41875 0.24894 0.42024 0.0
C1142 C 0.40891 0.292 0.35663 0.0
C1143 C 0.40785 0.31357 0.32236 0.0
C1144 C 0.43342 0.26308 0.3617 0.0
C1145 C 0.43151 0.30504 0.2932 0.0
C1146 C 0.4556 0.27648 0.29783 0.0
C1147 C 0.48256 0.22809 0.33768 0.0
C1148 C 0.48588 0.20945 0.37343 0.0
C1149 C 0.45694 0.25524 0.3319 0.0
C1150 C 0.46235 0.21737 0.40275 0.0
C1151 C 0.43622 0.24339 0.39682 0.0
H1152 H 0.04352 0.16928 0.6126 0.0
H1153 H 0.98067 0.22676 0.59458 0.0
H1154 H 0.97511 0.31881 0.60333 0.0
H1155 H 0.07395 0.33144 0.6563 0.0
H1156 H 0.14173 0.24489 0.63183 0.0
H1157 H 0.09798 0.19446 0.62434 0.0
C1158 C 0.03247 0.19799 0.61285 0.0
C1159 C 0.99506 0.20018 0.59749 0.0
C1160 C 0.05589 0.233 0.62547 0.0
C1161 C 0.9692 0.25532 0.59306 0.0
C1162 C 0.9891 0.29185 0.6062 0.0
C1163 C 0.07473 0.30184 0.64339 0.0
C1164 C 0.10897 0.29307 0.63979 0.0
C1165 C 0.04443 0.27688 0.62792 0.0
C1166 C 0.11598 0.25375 0.63201 0.0
C1167 C 0.09036 0.22464 0.6281 0.0
H1168 H 0.4402 0.71263 0.19841 0.0
H1169 H 0.35772 0.74683 0.12678 0.0
H1170 H 0.39483 0.79258 0.09336 0.0
H1171 H 0.45209 0.82119 0.08385 0.0
H1172 H 0.52952 0.7984 0.16796 0.0
H1173 H 0.49356 0.74997 0.19768 0.0
C1174 C 0.43038 0.73048 0.17575 0.0
C1175 C 0.39679 0.72569 0.16373 0.0
C1176 C 0.45131 0.75798 0.15856 0.0
C1177 C 0.38389 0.74953 0.1353 0.0
C1178 C 0.40505 0.77555 0.11638 0.0
C1179 C 0.46105 0.80487 0.10812 0.0
C1180 C 0.49447 0.80996 0.12135 0.0
C1181 C 0.43909 0.77946 0.12723 0.0
C1182 C 0.50498 0.79165 0.15503 0.0
C1183 C 0.48415 0.76479 0.17261 0.0
H1184 H 0.59658 0.40513 0.79788 0.0
H1185 H 0.69849 0.39923 0.76137 0.0
H1186 H 0.68755 0.44614 0.71135 0.0
H1187 H 0.65191 0.49782 0.68516 0.0
H1188 H 0.5535 0.51282 0.73098 0.0
H1189 H 0.56076 0.45702 0.77208 0.0
C1190 C 0.61703 0.41602 0.78089 0.0
C1191 C 0.64941 0.40152 0.78665 0.0
C1192 C 0.61142 0.44605 0.75447 0.0
C1193 C 0.67411 0.41209 0.76004 0.0
C1194 C 0.66773 0.43872 0.73103 0.0
C1195 C 0.63239 0.4895 0.70487 0.0
C1196 C 0.60296 0.51134 0.70672 0.0
C1197 C 0.63714 0.45779 0.72949 0.0
C1198 C 0.57703 0.49795 0.7303 0.0
C1199 C 0.58105 0.46566 0.75359 0.0
H1200 H 0.86168 0.41961 0.0576 0.0
H1201 H 0.88747 0.29767 0.04728 0.0
H1202 H 0.83916 0.28275 1.00361 0.0
H1203 H 0.78853 0.30323 0.96725 0.0
H1204 H 0.76344 0.4253 0.97426 0.0
H1205 H 0.81133 0.4406 0.01929 0.0
C1206 C 0.85684 0.38968 0.04597 0.0
C1207 C 0.87887 0.35981 0.05706 0.0
C1208 C 0.82851 0.38104 0.01976 0.0
C1209 C 0.87155 0.32151 0.04043 0.0
C1210 C 0.84358 0.31282 0.01508 0.0
C1211 C 0.79328 0.33326 0.97866 0.0
C1212 C 0.77132 0.36283 0.9671 0.0
C1213 C 0.82165 0.34215 1.00449 0.0
C1214 C 0.77907 0.40155 0.98231 0.0
C1215 C 0.80683 0.41042 0.00825 0.0
H1216 H 0.90795 0.5325 0.33646 0.0
H1217 H 0.80745 0.50018 0.29837 0.0
H1218 H 0.82809 0.44272 0.26065 0.0
H1219 H 0.87544 0.407 0.23008 0.0
H1220 H 0.97576 0.45167 0.25244 0.0
H1221 H 0.95534 0.49816 0.30332 0.0
C1222 C 0.89051 0.51351 0.31939 0.0
C1223 C 0.85592 0.52209 0.3201 0.0
C1224 C 0.90301 0.48246 0.29404 0.0
C1225 C 0.83405 0.49537 0.29852 0.0
C1226 C 0.84602 0.46232 0.27655 0.0
C1227 C 0.89304 0.42671 0.24556 0.0
C1228 C 0.92743 0.42526 0.23585 0.0
C1229 C 0.88058 0.4564 0.27256 0.0
C1230 C 0.94929 0.45137 0.25831 0.0
C1231 C 0.93748 0.4784 0.28766 0.0
H1232 H 0.72746 0.52846 0.43566 0.0
H1233 H 0.7612 0.64881 0.45872 0.0
H1234 H 0.72263 0.6561 0.51343 0.0
H1235 H 0.67682 0.62916 0.55328 0.0
H1236 H 0.64659 0.50718 0.53358 0.0
H1237 H 0.68608 0.49967 0.47999 0.0
C1238 C 0.72681 0.5561 0.45309 0.0
C1239 C 0.74747 0.58803 0.44278 0.0
C1240 C 0.70487 0.5599 0.48533 0.0
C1241 C 0.74603 0.62357 0.46592 0.0
C1242 C 0.72364 0.62787 0.49714 0.0
C1243 C 0.679 0.60084 0.53751 0.0
C1244 C 0.65824 0.56886 0.54767 0.0
C1245 C 0.70258 0.59639 0.50695 0.0
C1246 C 0.66195 0.53239 0.52675 0.0
C1247 C 0.68461 0.52805 0.49587 0.0
H1248 H 0.68932 0.46969 0.82636 0.0
H1249 H 0.59648 0.52992 0.83474 0.0
H1250 H 0.61393 0.57311 0.78401 0.0
H1251 H 0.65324 0.59109 0.73263 0.0
H1252 H 0.74268 0.52614 0.71622 0.0
H1253 H 0.72981 0.48887 0.77406 0.0
C1254 C 0.67261 0.49162 0.81639 0.0
C1255 C 0.6405 0.49467 0.83315 0.0
C1256 C 0.6825 0.5161 0.78556 0.0
C1257 C 0.6205 0.52537 0.8214 0.0
C1258 C 0.63067 0.55057 0.79253 0.0
C1259 C 0.66932 0.56777 0.74069 0.0
C1260 C 0.69769 0.5596 0.71787 0.0
C1261 C 0.66105 0.54546 0.77333 0.0
C1262 C 0.71977 0.53178 0.73162 0.0
C1263 C 0.71254 0.51072 0.76518 0.0
H1264 H 0.73411 0.45885 0.07437 0.0
H1265 H 0.75284 0.33498 0.0712 0.0
H1266 H 0.70906 0.32243 0.02018 0.0
H1267 H 0.66425 0.34681 0.9774 0.0
H1268 H 0.64762 0.47112 0.97923 0.0
H1269 H 0.69154 0.48334 0.02966 0.0
C1270 C 0.72891 0.42916 0.06211 0.0
C1271 C 0.7469 0.39794 0.07643 0.0
C1272 C 0.70395 0.42224 0.0325 0.0
C1273 C 0.73969 0.3596 0.06041 0.0
C1274 C 0.71437 0.35237 0.03152 0.0
C1275 C 0.67071 0.37659 0.98819 0.0
C1276 C 0.65301 0.40806 0.97382 0.0
C1277 C 0.69629 0.38348 0.01728 0.0
C1278 C 0.66091 0.44637 0.98945 0.0
C1279 C 0.68611 0.45341 0.01831 0.0
H1280 H 0.95589 0.55486 0.24368 0.0
H1281 H 0.86794 0.61504 0.28025 0.0
H1282 H 0.83318 0.57117 0.23703 0.0
H1283 H 0.82725 0.50574 0.19919 0.0
H1284 H 0.91548 0.45833 0.14726 0.0
H1285 H 0.95036 0.50726 0.18456 0.0
C1286 C 0.92926 0.55935 0.24138 0.0
C1287 C 0.9144 0.58642 0.26831 0.0
C1288 C 0.90928 0.53548 0.21387 0.0
C1289 C 0.88013 0.59292 0.26269 0.0
C1290 C 0.85999 0.56778 0.23734 0.0
C1291 C 0.854 0.50674 0.195 0.0
C1292 C 0.86879 0.47595 0.17254 0.0
C1293 C 0.87412 0.53711 0.21472 0.0
C1294 C 0.9033 0.47962 0.16599 0.0
C1295 C 0.92349 0.50808 0.18734 0.0
H1296 H 0.87713 0.66577 0.47116 0.0
H1297 H 0.88072 0.54048 0.44844 0.0
H1298 H 0.83681 0.53114 0.49621 0.0
H1299 H 0.79777 0.55821 0.54723 0.0
H1300 H 0.78838 0.68344 0.56281 0.0
H1301 H 0.83218 0.6929 0.51465 0.0
C1302 C 0.86812 0.63638 0.47593 0.0
C1303 C 0.88304 0.60397 0.45514 0.0
C1304 C 0.84084 0.6311 0.50218 0.0
C1305 C 0.87045 0.56628 0.46325 0.0
C1306 C 0.8449 0.56083 0.49071 0.0
C1307 C 0.80432 0.58762 0.53911 0.0
C1308 C 0.78841 0.62002 0.55861 0.0
C1309 C 0.82969 0.59295 0.51049 0.0
C1310 C 0.79875 0.65774 0.54794 0.0
C1311 C 0.8245 0.6632 0.52064 0.0
H1312 H 0.51205 0.66404 0.60006 0.0
H1313 H 0.52044 0.69509 0.7246 0.0
H1314 H 0.47617 0.74246 0.71873 0.0
H1315 H 0.43157 0.77138 0.67942 0.0
H1316 H 0.42203 0.73998 0.5549 0.0
H1317 H 0.46975 0.69692 0.5595 0.0
C1318 C 0.50505 0.68223 0.62565 0.0
C1319 C 0.52054 0.67661 0.66266 0.0
C1320 C 0.4785 0.70875 0.62222 0.0
C1321 C 0.50981 0.69936 0.69567 0.0
C1322 C 0.484 0.72607 0.6924 0.0
C1323 C 0.43996 0.75532 0.65314 0.0
C1324 C 0.42275 0.75905 0.6168 0.0
C1325 C 0.46756 0.7304 0.65604 0.0
C1326 C 0.43441 0.73784 0.58328 0.0
C1327 C 0.46185 0.71311 0.58592 0.0
H1328 H 0.36802 0.56474 0.30883 0.0
H1329 H 0.44692 0.58273 0.22757 0.0
H1330 H 0.47935 0.53134 0.25691 0.0
H1331 H 0.48051 0.47355 0.29928 0.0
H1332 H 0.40719 0.46603 0.38933 0.0
H1333 H 0.37839 0.52193 0.36444 0.0
C1334 C 0.39237 0.55742 0.29768 0.0
C1335 C 0.40407 0.57522 0.26413 0.0
C1336 C 0.41168 0.52931 0.31605 0.0
C1337 C 0.43663 0.56766 0.2519 0.0
C1338 C 0.45528 0.53848 0.26891 0.0
C1339 C 0.45804 0.48395 0.31317 0.0
C1340 C 0.44461 0.46368 0.34447 0.0
C1341 C 0.44209 0.51734 0.29949 0.0
C1342 C 0.41721 0.47974 0.36416 0.0
C1343 C 0.40074 0.51197 0.34999 0.0
H1344 H 0.23059 0.62659 0.11564 0.0
H1345 H 0.30445 0.67193 0.05101 0.0
H1346 H 0.3166 0.68388 0.99374 0.0
H1347 H 0.22522 0.62644 0.94635 0.0
H1348 H 0.14698 0.60874 0.02137 0.0
H1349 H 0.18284 0.61324 0.07887 0.0
C1350 C 0.2455 0.63538 0.09128 0.0
C1351 C 0.27927 0.65183 0.10458 0.0
C1352 C 0.22846 0.63061 0.05055 0.0
C1353 C 0.30397 0.66924 0.07897 0.0
C1354 C 0.2993 0.67212 0.01597 0.0
C1355 C 0.21962 0.62942 0.97722 0.0
C1356 C 0.18496 0.62183 0.98045 0.0
C1357 C 0.24431 0.64123 0.01062 0.0
C1358 C 0.17302 0.61703 0.01791 0.0
C1359 C 0.19421 0.61932 0.05116 0.0
H1360 H 0.19831 0.59488 0.75116 0.0
H1361 H 0.07673 0.54703 0.80741 0.0
H1362 H 0.08304 0.49149 0.76676 0.0
H1363 H 0.15598 0.48783 0.71324 0.0
H1364 H 0.23657 0.50011 0.65569 0.0
H1365 H 0.22896 0.55933 0.69911 0.0
C1366 C 0.17636 0.57489 0.75276 0.0
C1367 C 0.12671 0.57907 0.79347 0.0
C1368 C 0.18285 0.53961 0.72422 0.0
C1369 C 0.09946 0.54618 0.79058 0.0
C1370 C 0.10538 0.51053 0.76354 0.0
C1371 C 0.16541 0.46849 0.69582 0.0
C1372 C 0.19202 0.46881 0.6718 0.0
C1373 C 0.15443 0.50326 0.72299 0.0
C1374 C 0.21446 0.50161 0.67341 0.0
C1375 C 0.21029 0.53576 0.69898 0.0
H1376 H 0.28693 0.31376 0.53465 0.0
H1377 H 0.28047 0.43557 0.57547 0.0
H1378 H 0.32334 0.45387 0.53022 0.0
H1379 H 0.36445 0.43657 0.48255 0.0
H1380 H 0.37858 0.31548 0.44407 0.0
H1381 H 0.33071 0.29595 0.4837 0.0
C1382 C 0.29493 0.34425 0.53344 0.0
C1383 C 0.28045 0.37324 0.55908 0.0
C1384 C 0.321 0.35481 0.50759 0.0
C1385 C 0.29132 0.41254 0.55693 0.0
C1386 C 0.31589 0.42313 0.53083 0.0
C1387 C 0.35752 0.40561 0.48234 0.0
C1388 C 0.3757 0.37771 0.45945 0.0
C1389 C 0.33126 0.3946 0.50658 0.0
C1390 C 0.36517 0.33801 0.46026 0.0
C1391 C 0.33787 0.32679 0.48354 0.0
H1392 H 0.40904 0.45219 0.25255 0.0
H1393 H 0.30429 0.47454 0.24042 0.0
H1394 H 0.31529 0.51407 0.18409 0.0
H1395 H 0.35555 0.54894 0.14212 0.0
H1396 H 0.46068 0.53084 0.15801 0.0
H1397 H 0.44856 0.48038 0.20447 0.0
C1398 C 0.38866 0.46586 0.23769 0.0
C1399 C 0.35587 0.46129 0.25202 0.0
C1400 C 0.39524 0.48887 0.20477 0.0
C1401 C 0.32978 0.478 0.23093 0.0
C1402 C 0.33609 0.5006 0.19838 0.0
C1403 C 0.37589 0.53411 0.1559 0.0
C1404 C 0.40922 0.54562 0.14788 0.0
C1405 C 0.36885 0.50732 0.18562 0.0
C1406 C 0.43489 0.52436 0.16479 0.0
C1407 C 0.42792 0.49542 0.19165 0.0
H1408 H 0.34985 0.59743 0.03778 0.0
H1409 H 0.35628 0.74386 0.05502 0.0
H1410 H 0.28948 0.76306 0.05711 0.0
H1411 H 0.24688 0.70441 0.03298 0.0
H1412 H 0.28583 0.62946 0.92406 0.0
H1413 H 0.30347 0.58 0.97718 0.0
C1414 C 0.33491 0.62335 0.04029 0.0
C1415 C 0.35654 0.67113 0.04655 0.0
C1416 C 0.28944 0.61656 0.03733 0.0
C1417 C 0.33857 0.71938 0.05186 0.0
C1418 C 0.29513 0.7322 0.0552 0.0
C1419 C 0.2506 0.71011 1.00239 0.0
C1420 C 0.26299 0.6848 0.96058 0.0
C1421 C 0.25947 0.69517 0.04827 0.0
C1422 C 0.28192 0.63981 0.95426 0.0
C1423 C 0.29175 0.60669 0.98778 0.0
H1424 H 0.09075 0.53539 0.67148 0.0
H1425 H 0.12068 0.416 0.74306 0.0
H1426 H 0.16046 0.45441 0.80459 0.0
H1427 H 0.16864 0.5359 0.80511 0.0
H1428 H 0.15378 0.66701 0.77069 0.0
H1429 H 0.11698 0.62663 0.71155 0.0
C1430 C 0.10285 0.52435 0.69711 0.0
C1431 C 0.10176 0.47227 0.70351 0.0
C1432 C 0.12531 0.55872 0.72904 0.0
C1433 C 0.12202 0.44775 0.7444 0.0
C1434 C 0.14905 0.47205 0.78294 0.0
C1435 C 0.179 0.56209 0.81978 0.0
C1436 C 0.1769 0.61471 0.811 0.0
C1437 C 0.15719 0.52507 0.78662 0.0
C1438 C 0.15371 0.63558 0.77135 0.0
C1439 C 0.12967 0.60995 0.73305 0.0
H1440 H 0.1996 0.5068 0.52226 0.0
H1441 H 0.17905 0.38384 0.53659 0.0
H1442 H 0.2227 0.36667 0.48964 0.0
H1443 H 0.26649 0.38629 0.44225 0.0
H1444 H 0.28359 0.50905 0.42472 0.0
H1445 H 0.2424 0.52624 0.47482 0.0
C1446 C 0.20468 0.47612 0.51557 0.0
C1447 C 0.18563 0.44682 0.53406 0.0
C1448 C 0.22968 0.4663 0.48761 0.0
C1449 C 0.19295 0.40735 0.52375 0.0
C1450 C 0.21804 0.39743 0.49652 0.0
C1451 C 0.26148 0.41686 0.44974 0.0
C1452 C 0.27896 0.44642 0.42992 0.0
C1453 C 0.23663 0.42658 0.47805 0.0
C1454 C 0.27121 0.48571 0.43957 0.0
C1455 C 0.24741 0.49553 0.46828 0.0
H1456 H 0.54791 0.29736 0.30543 0.0
H1457 H 0.54467 0.29733 0.43182 0.0
H1458 H 0.59128 0.25227 0.43248 0.0
H1459 H 0.63135 0.2089 0.39602 0.0
H1460 H 0.63482 0.21019 0.27041 0.0
H1461 H 0.59016 0.25663 0.27022 0.0
C1462 C 0.55727 0.28729 0.33309 0.0
C1463 C 0.54223 0.3006 0.36855 0.0
C1464 C 0.58398 0.2604 0.33326 0.0
C1465 C 0.55529 0.28743 0.40403 0.0
C1466 C 0.58219 0.26166 0.40443 0.0
C1467 C 0.62237 0.21909 0.369 0.0
C1468 C 0.63654 0.20387 0.33376 0.0
C1469 C 0.59639 0.24707 0.36913 0.0
C1470 C 0.62448 0.21932 0.29852 0.0
C1471 C 0.59867 0.24652 0.29821 0.0
loop_
_geom_bond_atom_site_label_1
_geom_bond_atom_site_label_2
_geom_bond_distance
_geom_bond_site_symmetry_2
_ccdc_geom_bond_type
Co0 O1 2.216 . S
Co0 O2 2.091 . S
Co0 O4 2.004 . S
Co0 O10 2.021 . S
Co0 O12 2.137 . S
Co0 O13 2.244 . S
O1 Co0 2.216 . S
O1 C8 1.247 . S
O2 Co0 2.091 . S
O2 C8 1.261 . S
C3 O12 1.247 . S
C3 O13 1.272 . S
O4 Co0 2.004 . S
O4 C9 1.259 . S
Co5 O6 2.061 . S
Co5 O11 2.052 . S
Co5 O13 2.135 . S
O6 Co5 2.061 . S
O6 C9 1.235 . S
C7 O10 1.238 . S
C7 O11 1.241 . S
C8 O1 1.247 . S
C8 O2 1.261 . S
C9 O4 1.259 . S
C9 O6 1.235 . S
O10 Co0 2.021 . S
O10 C7 1.238 . S
O11 Co5 2.052 . S
O11 C7 1.241 . S
O12 Co0 2.137 . S
O12 C3 1.247 . S
O13 Co0 2.244 . S
O13 C3 1.272 . S
O13 Co5 2.135 . S
Co14 O15 2.216 . S
Co14 O16 2.091 . S
Co14 O18 2.004 . S
Co14 O24 2.021 . S
Co14 O26 2.137 . S
Co14 O27 2.244 . S
O15 Co14 2.216 . S
O15 C22 1.247 . S
O16 Co14 2.091 . S
O16 C22 1.261 . S
C17 O26 1.247 . S
C17 O27 1.272 . S
O18 Co14 2.004 . S
O18 C23 1.259 . S
Co19 O20 2.061 . S
Co19 O25 2.052 . S
Co19 O27 2.135 . S
O20 Co19 2.061 . S
O20 C23 1.235 . S
C21 O24 1.238 . S
C21 O25 1.241 . S
C22 O15 1.247 . S
C22 O16 1.261 . S
C23 O18 1.259 . S
C23 O20 1.235 . S
O24 Co14 2.021 . S
O24 C21 1.238 . S
O25 Co19 2.052 . S
O25 C21 1.241 . S
O26 Co14 2.137 . S
O26 C17 1.247 . S
O27 Co14 2.244 . S
O27 C17 1.272 . S
O27 Co19 2.135 . S
Co28 O29 2.216 . S
Co28 O30 2.091 . S
Co28 O32 2.004 . S
Co28 O38 2.021 . S
Co28 O40 2.137 . S
Co28 O41 2.244 . S
O29 Co28 2.216 . S
O29 C36 1.247 . S
O30 Co28 2.091 . S
O30 C36 1.261 . S
C31 O40 1.247 . S
C31 O41 1.272 . S
O32 Co28 2.004 . S
O32 C37 1.259 . S
Co33 O34 2.061 . S
Co33 O39 2.052 . S
Co33 O41 2.135 . S
O34 Co33 2.061 . S
O34 C37 1.235 . S
C35 O38 1.238 . S
C35 O39 1.241 . S
C36 O29 1.247 . S
C36 O30 1.261 . S
C37 O32 1.259 . S
C37 O34 1.235 . S
O38 Co28 2.021 . S
O38 C35 1.238 . S
O39 Co33 2.052 . S
O39 C35 1.241 . S
O40 Co28 2.137 . S
O40 C31 1.247 . S
O41 Co28 2.244 . S
O41 C31 1.272 . S
O41 Co33 2.135 . S
Co42 O43 2.216 . S
Co42 O44 2.091 . S
Co42 O46 2.004 . S
Co42 O52 2.021 . S
Co42 O54 2.137 . S
Co42 O55 2.244 . S
O43 Co42 2.216 . S
O43 C50 1.247 . S
O44 Co42 2.091 . S
O44 C50 1.261 . S
C45 O54 1.247 . S
C45 O55 1.272 . S
O46 Co42 2.004 . S
O46 C51 1.259 . S
Co47 O48 2.061 . S
Co47 O53 2.052 . S
Co47 O55 2.135 . S
O48 Co47 2.061 . S
O48 C51 1.235 . S
C49 O52 1.238 . S
C49 O53 1.241 . S
C50 O43 1.247 . S
C50 O44 1.261 . S
C51 O46 1.259 . S
C51 O48 1.235 . S
O52 Co42 2.021 . S
O52 C49 1.238 . S
O53 Co47 2.052 . S
O53 C49 1.241 . S
O54 Co42 2.137 . S
O54 C45 1.247 . S
O55 Co42 2.244 . S
O55 C45 1.272 . S
O55 Co47 2.135 . S
Co56 O57 2.216 . S
Co56 O58 2.091 . S
Co56 O60 2.004 . S
Co56 O66 2.021 . S
Co56 O68 2.137 . S
Co56 O69 2.244 . S
O57 Co56 2.216 . S
O57 C64 1.247 . S
O58 Co56 2.091 . S
O58 C64 1.261 . S
C59 O68 1.247 . S
C59 O69 1.272 . S
O60 Co56 2.004 . S
O60 C65 1.259 . S
Co61 O62 2.061 . S
Co61 O67 2.052 . S
Co61 O69 2.135 . S
O62 Co61 2.061 . S
O62 C65 1.235 . S
C63 O66 1.238 . S
C63 O67 1.241 . S
C64 O57 1.247 . S
C64 O58 1.261 . S
C65 O60 1.259 . S
C65 O62 1.235 . S
O66 Co56 2.021 . S
O66 C63 1.238 . S
O67 Co61 2.052 . S
O67 C63 1.241 . S
O68 Co56 2.137 . S
O68 C59 1.247 . S
O69 Co56 2.244 . S
O69 C59 1.272 . S
O69 Co61 2.135 . S
Co70 O71 2.216 . S
Co70 O72 2.091 . S
Co70 O74 2.004 . S
Co70 O80 2.021 . S
Co70 O82 2.137 . S
Co70 O83 2.244 . S
O71 Co70 2.216 . S
O71 C78 1.247 . S
O72 Co70 2.091 . S
O72 C78 1.261 . S
C73 O82 1.247 . S
C73 O83 1.272 . S
O74 Co70 2.004 . S
O74 C79 1.259 . S
Co75 O76 2.061 . S
Co75 O81 2.052 . S
Co75 O83 2.135 . S
O76 Co75 2.061 . S
O76 C79 1.235 . S
C77 O80 1.238 . S
C77 O81 1.241 . S
C78 O71 1.247 . S
C78 O72 1.261 . S
C79 O74 1.259 . S
C79 O76 1.235 . S
O80 Co70 2.021 . S
O80 C77 1.238 . S
O81 Co75 2.052 . S
O81 C77 1.241 . S
O82 Co70 2.137 . S
O82 C73 1.247 . S
O83 Co70 2.244 . S
O83 C73 1.272 . S
O83 Co75 2.135 . S
Co84 O85 2.216 . S
Co84 O86 2.091 . S
Co84 O88 2.004 . S
Co84 O94 2.021 . S
Co84 O96 2.137 . S
Co84 O97 2.244 . S
O85 Co84 2.216 . S
O85 C92 1.247 . S
O86 Co84 2.091 . S
O86 C92 1.261 . S
C87 O96 1.247 . S
C87 O97 1.272 . S
O88 Co84 2.004 . S
O88 C93 1.259 . S
Co89 O90 2.061 . S
Co89 O95 2.052 . S
Co89 O97 2.135 . S
O90 Co89 2.061 . S
O90 C93 1.235 . S
C91 O94 1.238 . S
C91 O95 1.241 . S
C92 O85 1.247 . S
C92 O86 1.261 . S
C93 O88 1.259 . S
C93 O90 1.235 . S
O94 Co84 2.021 . S
O94 C91 1.238 . S
O95 Co89 2.052 . S
O95 C91 1.241 . S
O96 Co84 2.137 . S
O96 C87 1.247 . S
O97 Co84 2.244 . S
O97 C87 1.272 . S
O97 Co89 2.135 . S
Co98 O99 2.216 . S
Co98 O100 2.091 . S
Co98 O102 2.004 . S
Co98 O108 2.021 . S
Co98 O110 2.137 . S
Co98 O111 2.244 . S
O99 Co98 2.216 . S
O99 C106 1.247 . S
O100 Co98 2.091 . S
O100 C106 1.261 . S
C101 O110 1.247 . S
C101 O111 1.272 . S
O102 Co98 2.004 . S
O102 C107 1.259 . S
Co103 O104 2.061 . S
Co103 O109 2.052 . S
Co103 O111 2.135 . S
O104 Co103 2.061 . S
O104 C107 1.235 . S
C105 O108 1.238 . S
C105 O109 1.241 . S
C106 O99 1.247 . S
C106 O100 1.261 . S
C107 O102 1.259 . S
C107 O104 1.235 . S
O108 Co98 2.021 . S
O108 C105 1.238 . S
O109 Co103 2.052 . S
O109 C105 1.241 . S
O110 Co98 2.137 . S
O110 C101 1.247 . S
O111 Co98 2.244 . S
O111 C101 1.272 . S
O111 Co103 2.135 . S
Co112 O113 2.216 . S
Co112 O114 2.091 . S
Co112 O116 2.004 . S
Co112 O122 2.021 . S
Co112 O124 2.137 . S
Co112 O125 2.244 . S
O113 Co112 2.216 . S
O113 C120 1.247 . S
O114 Co112 2.091 . S
O114 C120 1.261 . S
C115 O124 1.247 . S
C115 O125 1.272 . S
O116 Co112 2.004 . S
O116 C121 1.259 . S
Co117 O118 2.061 . S
Co117 O123 2.052 . S
Co117 O125 2.135 . S
O118 Co117 2.061 . S
O118 C121 1.235 . S
C119 O122 1.238 . S
C119 O123 1.241 . S
C120 O113 1.247 . S
C120 O114 1.261 . S
C121 O116 1.259 . S
C121 O118 1.235 . S
O122 Co112 2.021 . S
O122 C119 1.238 . S
O123 Co117 2.052 . S
O123 C119 1.241 . S
O124 Co112 2.137 . S
O124 C115 1.247 . S
O125 Co112 2.244 . S
O125 C115 1.272 . S
O125 Co117 2.135 . S
Co126 O127 2.216 . S
Co126 O128 2.091 . S
Co126 O130 2.004 . S
Co126 O136 2.021 . S
Co126 O138 2.137 . S
Co126 O139 2.244 . S
O127 Co126 2.216 . S
O127 C134 1.247 . S
O128 Co126 2.091 . S
O128 C134 1.261 . S
C129 O138 1.247 . S
C129 O139 1.272 . S
O130 Co126 2.004 . S
O130 C135 1.259 . S
Co131 O132 2.061 . S
Co131 O137 2.052 . S
Co131 O139 2.135 . S
O132 Co131 2.061 . S
O132 C135 1.235 . S
C133 O136 1.238 . S
C133 O137 1.241 . S
C134 O127 1.247 . S
C134 O128 1.261 . S
C135 O130 1.259 . S
C135 O132 1.235 . S
O136 Co126 2.021 . S
O136 C133 1.238 . S
O137 Co131 2.052 . S
O137 C133 1.241 . S
O138 Co126 2.137 . S
O138 C129 1.247 . S
O139 Co126 2.244 . S
O139 C129 1.272 . S
O139 Co131 2.135 . S
Co140 O141 2.216 . S
Co140 O142 2.091 . S
Co140 O144 2.004 . S
Co140 O150 2.021 . S
Co140 O152 2.137 . S
Co140 O153 2.244 . S
O141 Co140 2.216 . S
O141 C148 1.247 . S
O142 Co140 2.091 . S
O142 C148 1.261 . S
C143 O152 1.247 . S
C143 O153 1.272 . S
O144 Co140 2.004 . S
O144 C149 1.259 . S
Co145 O146 2.061 . S
Co145 O151 2.052 . S
Co145 O153 2.135 . S
O146 Co145 2.061 . S
O146 C149 1.235 . S
C147 O150 1.238 . S
C147 O151 1.241 . S
C148 O141 1.247 . S
C148 O142 1.261 . S
C149 O144 1.259 . S
C149 O146 1.235 . S
O150 Co140 2.021 . S
O150 C147 1.238 . S
O151 Co145 2.052 . S
O151 C147 1.241 . S
O152 Co140 2.137 . S
O152 C143 1.247 . S
O153 Co140 2.244 . S
O153 C143 1.272 . S
O153 Co145 2.135 . S
Co154 O155 2.216 . S
Co154 O156 2.091 . S
Co154 O158 2.004 . S
Co154 O164 2.021 . S
Co154 O166 2.137 . S
Co154 O167 2.244 . S
O155 Co154 2.216 . S
O155 C162 1.247 . S
O156 Co154 2.091 . S
O156 C162 1.261 . S
C157 O166 1.247 . S
C157 O167 1.272 . S
O158 Co154 2.004 . S
O158 C163 1.259 . S
Co159 O160 2.061 . S
Co159 O165 2.052 . S
Co159 O167 2.135 . S
O160 Co159 2.061 . S
O160 C163 1.235 . S
C161 O164 1.238 . S
C161 O165 1.241 . S
C162 O155 1.247 . S
C162 O156 1.261 . S
C163 O158 1.259 . S
C163 O160 1.235 . S
O164 Co154 2.021 . S
O164 C161 1.238 . S
O165 Co159 2.052 . S
O165 C161 1.241 . S
O166 Co154 2.137 . S
O166 C157 1.247 . S
O167 Co154 2.244 . S
O167 C157 1.272 . S
O167 Co159 2.135 . S
Co168 O169 2.216 . S
Co168 O170 2.091 . S
Co168 O172 2.004 . S
Co168 O178 2.021 . S
Co168 O180 2.137 . S
Co168 O181 2.244 . S
O169 Co168 2.216 . S
O169 C176 1.247 . S
O170 Co168 2.091 . S
O170 C176 1.261 . S
C171 O180 1.247 . S
C171 O181 1.272 . S
O172 Co168 2.004 . S
O172 C177 1.259 . S
Co173 O174 2.061 . S
Co173 O179 2.052 . S
Co173 O181 2.135 . S
O174 Co173 2.061 . S
O174 C177 1.235 . S
C175 O178 1.238 . S
C175 O179 1.241 . S
C176 O169 1.247 . S
C176 O170 1.261 . S
C177 O172 1.259 . S
C177 O174 1.235 . S
O178 Co168 2.021 . S
O178 C175 1.238 . S
O179 Co173 2.052 . S
O179 C175 1.241 . S
O180 Co168 2.137 . S
O180 C171 1.247 . S
O181 Co168 2.244 . S
O181 C171 1.272 . S
O181 Co173 2.135 . S
Co182 O183 2.216 . S
Co182 O184 2.091 . S
Co182 O186 2.004 . S
Co182 O192 2.021 . S
Co182 O194 2.137 . S
Co182 O195 2.244 . S
O183 Co182 2.216 . S
O183 C190 1.247 . S
O184 Co182 2.091 . S
O184 C190 1.261 . S
C185 O194 1.247 . S
C185 O195 1.272 . S
O186 Co182 2.004 . S
O186 C191 1.259 . S
Co187 O188 2.061 . S
Co187 O193 2.052 . S
Co187 O195 2.135 . S
O188 Co187 2.061 . S
O188 C191 1.235 . S
C189 O192 1.238 . S
C189 O193 1.241 . S
C190 O183 1.247 . S
C190 O184 1.261 . S
C191 O186 1.259 . S
C191 O188 1.235 . S
O192 Co182 2.021 . S
O192 C189 1.238 . S
O193 Co187 2.052 . S
O193 C189 1.241 . S
O194 Co182 2.137 . S
O194 C185 1.247 . S
O195 Co182 2.244 . S
O195 C185 1.272 . S
O195 Co187 2.135 . S
Co196 O197 2.216 . S
Co196 O198 2.091 . S
Co196 O200 2.004 . S
Co196 O206 2.021 . S
Co196 O208 2.137 . S
Co196 O209 2.244 . S
O197 Co196 2.216 . S
O197 C204 1.247 . S
O198 Co196 2.091 . S
O198 C204 1.261 . S
C199 O208 1.247 . S
C199 O209 1.272 . S
O200 Co196 2.004 . S
O200 C205 1.259 . S
Co201 O202 2.061 . S
Co201 O207 2.052 . S
Co201 O209 2.135 . S
O202 Co201 2.061 . S
O202 C205 1.235 . S
C203 O206 1.238 . S
C203 O207 1.241 . S
C204 O197 1.247 . S
C204 O198 1.261 . S
C205 O200 1.259 . S
C205 O202 1.235 . S
O206 Co196 2.021 . S
O206 C203 1.238 . S
O207 Co201 2.052 . S
O207 C203 1.241 . S
O208 Co196 2.137 . S
O208 C199 1.247 . S
O209 Co196 2.244 . S
O209 C199 1.272 . S
O209 Co201 2.135 . S
Co210 O211 2.216 . S
Co210 O212 2.091 . S
Co210 O214 2.004 . S
Co210 O220 2.021 . S
Co210 O222 2.137 . S
Co210 O223 2.244 . S
O211 Co210 2.216 . S
O211 C218 1.247 . S
O212 Co210 2.091 . S
O212 C218 1.261 . S
C213 O222 1.247 . S
C213 O223 1.272 . S
O214 Co210 2.004 . S
O214 C219 1.259 . S
Co215 O216 2.061 . S
Co215 O221 2.052 . S
Co215 O223 2.135 . S
O216 Co215 2.061 . S
O216 C219 1.235 . S
C217 O220 1.238 . S
C217 O221 1.241 . S
C218 O211 1.247 . S
C218 O212 1.261 . S
C219 O214 1.259 . S
C219 O216 1.235 . S
O220 Co210 2.021 . S
O220 C217 1.238 . S
O221 Co215 2.052 . S
O221 C217 1.241 . S
O222 Co210 2.137 . S
O222 C213 1.247 . S
O223 Co210 2.244 . S
O223 C213 1.272 . S
O223 Co215 2.135 . S
Co224 O225 2.216 . S
Co224 O226 2.091 . S
Co224 O228 2.004 . S
Co224 O234 2.021 . S
Co224 O236 2.137 . S
Co224 O237 2.244 . S
O225 Co224 2.216 . S
O225 C232 1.247 . S
O226 Co224 2.091 . S
O226 C232 1.261 . S
C227 O236 1.247 . S
C227 O237 1.272 . S
O228 Co224 2.004 . S
O228 C233 1.259 . S
Co229 O230 2.061 . S
Co229 O235 2.052 . S
Co229 O237 2.135 . S
O230 Co229 2.061 . S
O230 C233 1.235 . S
C231 O234 1.238 . S
C231 O235 1.241 . S
C232 O225 1.247 . S
C232 O226 1.261 . S
C233 O228 1.259 . S
C233 O230 1.235 . S
O234 Co224 2.021 . S
O234 C231 1.238 . S
O235 Co229 2.052 . S
O235 C231 1.241 . S
O236 Co224 2.137 . S
O236 C227 1.247 . S
O237 Co224 2.244 . S
O237 C227 1.272 . S
O237 Co229 2.135 . S
Co238 O239 2.216 . S
Co238 O240 2.091 . S
Co238 O242 2.004 . S
Co238 O248 2.021 . S
Co238 O250 2.137 . S
Co238 O251 2.244 . S
O239 Co238 2.216 . S
O239 C246 1.247 . S
O240 Co238 2.091 . S
O240 C246 1.261 . S
C241 O250 1.247 . S
C241 O251 1.272 . S
O242 Co238 2.004 . S
O242 C247 1.259 . S
Co243 O244 2.061 . S
Co243 O249 2.052 . S
Co243 O251 2.135 . S
O244 Co243 2.061 . S
O244 C247 1.235 . S
C245 O248 1.238 . S
C245 O249 1.241 . S
C246 O239 1.247 . S
C246 O240 1.261 . S
C247 O242 1.259 . S
C247 O244 1.235 . S
O248 Co238 2.021 . S
O248 C245 1.238 . S
O249 Co243 2.052 . S
O249 C245 1.241 . S
O250 Co238 2.137 . S
O250 C241 1.247 . S
O251 Co238 2.244 . S
O251 C241 1.272 . S
O251 Co243 2.135 . S
Co252 O253 2.216 . S
Co252 O254 2.091 . S
Co252 O256 2.004 . S
Co252 O262 2.021 . S
Co252 O264 2.137 . S
Co252 O265 2.244 . S
O253 Co252 2.216 . S
O253 C260 1.247 . S
O254 Co252 2.091 . S
O254 C260 1.261 . S
C255 O264 1.247 . S
C255 O265 1.272 . S
O256 Co252 2.004 . S
O256 C261 1.259 . S
Co257 O258 2.061 . S
Co257 O263 2.052 . S
Co257 O265 2.135 . S
O258 Co257 2.061 . S
O258 C261 1.235 . S
C259 O262 1.238 . S
C259 O263 1.241 . S
C260 O253 1.247 . S
C260 O254 1.261 . S
C261 O256 1.259 . S
C261 O258 1.235 . S
O262 Co252 2.021 . S
O262 C259 1.238 . S
O263 Co257 2.052 . S
O263 C259 1.241 . S
O264 Co252 2.137 . S
O264 C255 1.247 . S
O265 Co252 2.244 . S
O265 C255 1.272 . S
O265 Co257 2.135 . S
Co266 O267 2.216 . S
Co266 O268 2.091 . S
Co266 O270 2.004 . S
Co266 O276 2.021 . S
Co266 O278 2.137 . S
Co266 O279 2.244 . S
O267 Co266 2.216 . S
O267 C274 1.247 . S
O268 Co266 2.091 . S
O268 C274 1.261 . S
C269 O278 1.247 . S
C269 O279 1.272 . S
O270 Co266 2.004 . S
O270 C275 1.259 . S
Co271 O272 2.061 . S
Co271 O277 2.052 . S
Co271 O279 2.135 . S
O272 Co271 2.061 . S
O272 C275 1.235 . S
C273 O276 1.238 . S
C273 O277 1.241 . S
C274 O267 1.247 . S
C274 O268 1.261 . S
C275 O270 1.259 . S
C275 O272 1.235 . S
O276 Co266 2.021 . S
O276 C273 1.238 . S
O277 Co271 2.052 . S
O277 C273 1.241 . S
O278 Co266 2.137 . S
O278 C269 1.247 . S
O279 Co266 2.244 . S
O279 C269 1.272 . S
O279 Co271 2.135 . S
Co280 O281 2.216 . S
Co280 O282 2.091 . S
Co280 O284 2.004 . S
Co280 O290 2.021 . S
Co280 O292 2.137 . S
Co280 O293 2.244 . S
O281 Co280 2.216 . S
O281 C288 1.247 . S
O282 Co280 2.091 . S
O282 C288 1.261 . S
C283 O292 1.247 . S
C283 O293 1.272 . S
O284 Co280 2.004 . S
O284 C289 1.259 . S
Co285 O286 2.061 . S
Co285 O291 2.052 . S
Co285 O293 2.135 . S
O286 Co285 2.061 . S
O286 C289 1.235 . S
C287 O290 1.238 . S
C287 O291 1.241 . S
C288 O281 1.247 . S
C288 O282 1.261 . S
C289 O284 1.259 . S
C289 O286 1.235 . S
O290 Co280 2.021 . S
O290 C287 1.238 . S
O291 Co285 2.052 . S
O291 C287 1.241 . S
O292 Co280 2.137 . S
O292 C283 1.247 . S
O293 Co280 2.244 . S
O293 C283 1.272 . S
O293 Co285 2.135 . S
Co294 O295 2.216 . S
Co294 O296 2.091 . S
Co294 O298 2.004 . S
Co294 O304 2.021 . S
Co294 O306 2.137 . S
Co294 O307 2.244 . S
O295 Co294 2.216 . S
O295 C302 1.247 . S
O296 Co294 2.091 . S
O296 C302 1.261 . S
C297 O306 1.247 . S
C297 O307 1.272 . S
O298 Co294 2.004 . S
O298 C303 1.259 . S
Co299 O300 2.061 . S
Co299 O305 2.052 . S
Co299 O307 2.135 . S
O300 Co299 2.061 . S
O300 C303 1.235 . S
C301 O304 1.238 . S
C301 O305 1.241 . S
C302 O295 1.247 . S
C302 O296 1.261 . S
C303 O298 1.259 . S
C303 O300 1.235 . S
O304 Co294 2.021 . S
O304 C301 1.238 . S
O305 Co299 2.052 . S
O305 C301 1.241 . S
O306 Co294 2.137 . S
O306 C297 1.247 . S
O307 Co294 2.244 . S
O307 C297 1.272 . S
O307 Co299 2.135 . S
Co308 O309 2.216 . S
Co308 O310 2.091 . S
Co308 O312 2.004 . S
Co308 O318 2.021 . S
Co308 O320 2.137 . S
Co308 O321 2.244 . S
O309 Co308 2.216 . S
O309 C316 1.247 . S
O310 Co308 2.091 . S
O310 C316 1.261 . S
C311 O320 1.247 . S
C311 O321 1.272 . S
O312 Co308 2.004 . S
O312 C317 1.259 . S
Co313 O314 2.061 . S
Co313 O319 2.052 . S
Co313 O321 2.135 . S
O314 Co313 2.061 . S
O314 C317 1.235 . S
C315 O318 1.238 . S
C315 O319 1.241 . S
C316 O309 1.247 . S
C316 O310 1.261 . S
C317 O312 1.259 . S
C317 O314 1.235 . S
O318 Co308 2.021 . S
O318 C315 1.238 . S
O319 Co313 2.052 . S
O319 C315 1.241 . S
O320 Co308 2.137 . S
O320 C311 1.247 . S
O321 Co308 2.244 . S
O321 C311 1.272 . S
O321 Co313 2.135 . S
Co322 O323 2.216 . S
Co322 O324 2.091 . S
Co322 O326 2.004 . S
Co322 O332 2.021 . S
Co322 O334 2.137 . S
Co322 O335 2.244 . S
O323 Co322 2.216 . S
O323 C330 1.247 . S
O324 Co322 2.091 . S
O324 C330 1.261 . S
C325 O334 1.247 . S
C325 O335 1.272 . S
O326 Co322 2.004 . S
O326 C331 1.259 . S
Co327 O328 2.061 . S
Co327 O333 2.052 . S
Co327 O335 2.135 . S
O328 Co327 2.061 . S
O328 C331 1.235 . S
C329 O332 1.238 . S
C329 O333 1.241 . S
C330 O323 1.247 . S
C330 O324 1.261 . S
C331 O326 1.259 . S
C331 O328 1.235 . S
O332 Co322 2.021 . S
O332 C329 1.238 . S
O333 Co327 2.052 . S
O333 C329 1.241 . S
O334 Co322 2.137 . S
O334 C325 1.247 . S
O335 Co322 2.244 . S
O335 C325 1.272 . S
O335 Co327 2.135 . S
Co336 O337 2.216 . S
Co336 O338 2.091 . S
Co336 O340 2.004 . S
Co336 O346 2.021 . S
Co336 O348 2.137 . S
Co336 O349 2.244 . S
O337 Co336 2.216 . S
O337 C344 1.247 . S
O338 Co336 2.091 . S
O338 C344 1.261 . S
C339 O348 1.247 . S
C339 O349 1.272 . S
O340 Co336 2.004 . S
O340 C345 1.259 . S
Co341 O342 2.061 . S
Co341 O347 2.052 . S
Co341 O349 2.135 . S
O342 Co341 2.061 . S
O342 C345 1.235 . S
C343 O346 1.238 . S
C343 O347 1.241 . S
C344 O337 1.247 . S
C344 O338 1.261 . S
C345 O340 1.259 . S
C345 O342 1.235 . S
O346 Co336 2.021 . S
O346 C343 1.238 . S
O347 Co341 2.052 . S
O347 C343 1.241 . S
O348 Co336 2.137 . S
O348 C339 1.247 . S
O349 Co336 2.244 . S
O349 C339 1.272 . S
O349 Co341 2.135 . S
Co350 O351 2.216 . S
Co350 O352 2.091 . S
Co350 O354 2.004 . S
Co350 O360 2.021 . S
Co350 O362 2.137 . S
Co350 O363 2.244 . S
O351 Co350 2.216 . S
O351 C358 1.247 . S
O352 Co350 2.091 . S
O352 C358 1.261 . S
C353 O362 1.247 . S
C353 O363 1.272 . S
O354 Co350 2.004 . S
O354 C359 1.259 . S
Co355 O356 2.061 . S
Co355 O361 2.052 . S
Co355 O363 2.135 . S
O356 Co355 2.061 . S
O356 C359 1.235 . S
C357 O360 1.238 . S
C357 O361 1.241 . S
C358 O351 1.247 . S
C358 O352 1.261 . S
C359 O354 1.259 . S
C359 O356 1.235 . S
O360 Co350 2.021 . S
O360 C357 1.238 . S
O361 Co355 2.052 . S
O361 C357 1.241 . S
O362 Co350 2.137 . S
O362 C353 1.247 . S
O363 Co350 2.244 . S
O363 C353 1.272 . S
O363 Co355 2.135 . S
Co364 O365 2.216 . S
Co364 O366 2.091 . S
Co364 O368 2.004 . S
Co364 O374 2.021 . S
Co364 O376 2.137 . S
Co364 O377 2.244 . S
O365 Co364 2.216 . S
O365 C372 1.247 . S
O366 Co364 2.091 . S
O366 C372 1.261 . S
C367 O376 1.247 . S
C367 O377 1.272 . S
O368 Co364 2.004 . S
O368 C373 1.259 . S
Co369 O370 2.061 . S
Co369 O375 2.052 . S
Co369 O377 2.135 . S
O370 Co369 2.061 . S
O370 C373 1.235 . S
C371 O374 1.238 . S
C371 O375 1.241 . S
C372 O365 1.247 . S
C372 O366 1.261 . S
C373 O368 1.259 . S
C373 O370 1.235 . S
O374 Co364 2.021 . S
O374 C371 1.238 . S
O375 Co369 2.052 . S
O375 C371 1.241 . S
O376 Co364 2.137 . S
O376 C367 1.247 . S
O377 Co364 2.244 . S
O377 C367 1.272 . S
O377 Co369 2.135 . S
Co378 O379 2.216 . S
Co378 O380 2.091 . S
Co378 O382 2.004 . S
Co378 O388 2.021 . S
Co378 O390 2.137 . S
Co378 O391 2.244 . S
O379 Co378 2.216 . S
O379 C386 1.247 . S
O380 Co378 2.091 . S
O380 C386 1.261 . S
C381 O390 1.247 . S
C381 O391 1.272 . S
O382 Co378 2.004 . S
O382 C387 1.259 . S
Co383 O384 2.061 . S
Co383 O389 2.052 . S
Co383 O391 2.135 . S
O384 Co383 2.061 . S
O384 C387 1.235 . S
C385 O388 1.238 . S
C385 O389 1.241 . S
C386 O379 1.247 . S
C386 O380 1.261 . S
C387 O382 1.259 . S
C387 O384 1.235 . S
O388 Co378 2.021 . S
O388 C385 1.238 . S
O389 Co383 2.052 . S
O389 C385 1.241 . S
O390 Co378 2.137 . S
O390 C381 1.247 . S
O391 Co378 2.244 . S
O391 C381 1.272 . S
O391 Co383 2.135 . S
Co392 O393 2.216 . S
Co392 O394 2.091 . S
Co392 O396 2.004 . S
Co392 O402 2.021 . S
Co392 O404 2.137 . S
Co392 O405 2.244 . S
O393 Co392 2.216 . S
O393 C400 1.247 . S
O394 Co392 2.091 . S
O394 C400 1.261 . S
C395 O404 1.247 . S
C395 O405 1.272 . S
O396 Co392 2.004 . S
O396 C401 1.259 . S
Co397 O398 2.061 . S
Co397 O403 2.052 . S
Co397 O405 2.135 . S
O398 Co397 2.061 . S
O398 C401 1.235 . S
C399 O402 1.238 . S
C399 O403 1.241 . S
C400 O393 1.247 . S
C400 O394 1.261 . S
C401 O396 1.259 . S
C401 O398 1.235 . S
O402 Co392 2.021 . S
O402 C399 1.238 . S
O403 Co397 2.052 . S
O403 C399 1.241 . S
O404 Co392 2.137 . S
O404 C395 1.247 . S
O405 Co392 2.244 . S
O405 C395 1.272 . S
O405 Co397 2.135 . S
Co406 O407 2.216 . S
Co406 O408 2.091 . S
Co406 O410 2.004 . S
Co406 O416 2.021 . S
Co406 O418 2.137 . S
Co406 O419 2.244 . S
O407 Co406 2.216 . S
O407 C414 1.247 . S
O408 Co406 2.091 . S
O408 C414 1.261 . S
C409 O418 1.247 . S
C409 O419 1.272 . S
O410 Co406 2.004 . S
O410 C415 1.259 . S
Co411 O412 2.061 . S
Co411 O417 2.052 . S
Co411 O419 2.135 . S
O412 Co411 2.061 . S
O412 C415 1.235 . S
C413 O416 1.238 . S
C413 O417 1.241 . S
C414 O407 1.247 . S
C414 O408 1.261 . S
C415 O410 1.259 . S
C415 O412 1.235 . S
O416 Co406 2.021 . S
O416 C413 1.238 . S
O417 Co411 2.052 . S
O417 C413 1.241 . S
O418 Co406 2.137 . S
O418 C409 1.247 . S
O419 Co406 2.244 . S
O419 C409 1.272 . S
O419 Co411 2.135 . S
Co420 O421 2.216 . S
Co420 O422 2.091 . S
Co420 O424 2.004 . S
Co420 O430 2.021 . S
Co420 O432 2.137 . S
Co420 O433 2.244 . S
O421 Co420 2.216 . S
O421 C428 1.247 . S
O422 Co420 2.091 . S
O422 C428 1.261 . S
C423 O432 1.247 . S
C423 O433 1.272 . S
O424 Co420 2.004 . S
O424 C429 1.259 . S
Co425 O426 2.061 . S
Co425 O431 2.052 . S
Co425 O433 2.135 . S
O426 Co425 2.061 . S
O426 C429 1.235 . S
C427 O430 1.238 . S
C427 O431 1.241 . S
C428 O421 1.247 . S
C428 O422 1.261 . S
C429 O424 1.259 . S
C429 O426 1.235 . S
O430 Co420 2.021 . S
O430 C427 1.238 . S
O431 Co425 2.052 . S
O431 C427 1.241 . S
O432 Co420 2.137 . S
O432 C423 1.247 . S
O433 Co420 2.244 . S
O433 C423 1.272 . S
O433 Co425 2.135 . S
Co434 O435 2.216 . S
Co434 O436 2.091 . S
Co434 O438 2.004 . S
Co434 O444 2.021 . S
Co434 O446 2.137 . S
Co434 O447 2.244 . S
O435 Co434 2.216 . S
O435 C442 1.247 . S
O436 Co434 2.091 . S
O436 C442 1.261 . S
C437 O446 1.247 . S
C437 O447 1.272 . S
O438 Co434 2.004 . S
O438 C443 1.259 . S
Co439 O440 2.061 . S
Co439 O445 2.052 . S
Co439 O447 2.135 . S
O440 Co439 2.061 . S
O440 C443 1.235 . S
C441 O444 1.238 . S
C441 O445 1.241 . S
C442 O435 1.247 . S
C442 O436 1.261 . S
C443 O438 1.259 . S
C443 O440 1.235 . S
O444 Co434 2.021 . S
O444 C441 1.238 . S
O445 Co439 2.052 . S
O445 C441 1.241 . S
O446 Co434 2.137 . S
O446 C437 1.247 . S
O447 Co434 2.244 . S
O447 C437 1.272 . S
O447 Co439 2.135 . S
H448 C454 0.930 1_556 S
H449 C457 0.930 . S
H450 C458 0.930 . S
H451 C459 0.930 1_554 S
H452 C462 0.930 . S
H453 C463 0.934 . S
C454 H448 0.930 1_554 S
C454 C455 1.355 . S
C454 C456 1.415 1_554 S
C455 C454 1.355 . S
C455 C457 1.419 . S
C456 C454 1.415 1_556 S
C456 C461 1.425 1_446 S
C456 C463 1.409 1_455 S
C457 H449 0.930 . S
C457 C455 1.419 . S
C457 C458 1.362 1_545 S
C458 H450 0.930 . S
C458 C457 1.362 1_565 S
C458 C461 1.409 1_455 S
C459 H451 0.930 1_556 S
C459 C460 1.355 . S
C459 C461 1.415 1_556 S
C460 C459 1.355 . S
C460 C462 1.419 . S
C461 C456 1.425 1_664 S
C461 C458 1.409 1_655 S
C461 C459 1.415 1_554 S
C462 H452 0.930 . S
C462 C460 1.419 . S
C462 C463 1.362 1_565 S
C463 H453 0.934 . S
C463 C456 1.409 1_655 S
C463 C462 1.362 1_545 S
H464 C470 0.930 . S
H465 C473 0.930 . S
H466 C474 0.930 . S
H467 C475 0.930 . S
H468 C478 0.930 . S
H469 C479 0.930 . S
C470 H464 0.930 . S
C470 C471 1.355 . S
C470 C472 1.415 . S
C471 C470 1.355 . S
C471 C473 1.419 . S
C472 C470 1.415 . S
C472 C477 1.425 . S
C472 C479 1.409 . S
C473 H465 0.930 . S
C473 C471 1.419 . S
C473 C474 1.362 . S
C474 H466 0.930 . S
C474 C473 1.362 . S
C474 C477 1.409 . S
C475 H467 0.930 . S
C475 C476 1.355 . S
C475 C477 1.415 . S
C476 C475 1.355 . S
C476 C478 1.419 . S
C477 C472 1.425 . S
C477 C474 1.409 . S
C477 C475 1.415 . S
C478 H468 0.930 . S
C478 C476 1.419 . S
C478 C479 1.362 . S
C479 H469 0.930 . S
C479 C472 1.409 . S
C479 C478 1.362 . S
H480 C486 0.930 . S
H481 C489 0.930 . S
H482 C490 0.930 . S
H483 C491 0.930 . S
H484 C494 0.930 . S
H485 C495 0.930 . S
C486 H480 0.930 . S
C486 C487 1.355 . S
C486 C488 1.415 . S
C487 C486 1.355 . S
C487 C489 1.419 . S
C488 C486 1.415 . S
C488 C493 1.425 1_565 S
C488 C495 1.409 1_565 S
C489 H481 0.930 . S
C489 C487 1.419 . S
C489 C490 1.362 . S
C490 H482 0.930 . S
C490 C489 1.362 . S
C490 C493 1.409 1_565 S
C491 H483 0.930 . S
C491 C492 1.355 . S
C491 C493 1.415 . S
C492 C491 1.355 . S
C492 C494 1.419 . S
C493 C488 1.425 1_545 S
C493 C490 1.409 1_545 S
C493 C491 1.415 . S
C494 H484 0.930 . S
C494 C492 1.419 . S
C494 C495 1.362 . S
C495 H485 0.930 . S
C495 C488 1.409 1_545 S
C495 C494 1.362 . S
H496 C502 0.930 . S
H497 C505 0.930 . S
H498 C506 0.930 . S
H499 C507 0.930 . S
H500 C510 0.930 . S
H501 C511 0.930 . S
C502 H496 0.930 . S
C502 C503 1.355 . S
C502 C504 1.415 . S
C503 C502 1.355 . S
C503 C505 1.419 . S
C504 C502 1.415 . S
C504 C509 1.425 . S
C504 C511 1.409 . S
C505 H497 0.930 . S
C505 C503 1.419 . S
C505 C506 1.362 . S
C506 H498 0.930 . S
C506 C505 1.362 . S
C506 C509 1.409 . S
C507 H499 0.930 . S
C507 C508 1.355 . S
C507 C509 1.415 . S
C508 C507 1.355 . S
C508 C510 1.419 . S
C509 C504 1.425 . S
C509 C506 1.409 . S
C509 C507 1.415 . S
C510 H500 0.930 . S
C510 C508 1.419 . S
C510 C511 1.362 . S
C511 H501 0.930 . S
C511 C504 1.409 . S
C511 C510 1.362 . S
H512 C518 0.930 . S
H513 C521 0.930 . S
H514 C522 0.930 . S
H515 C523 0.930 . S
H516 C526 0.930 . S
H517 C527 0.930 . S
C518 H512 0.930 . S
C518 C519 1.355 . S
C518 C520 1.415 1_465 S
C519 C518 1.355 . S
C519 C521 1.419 . S
C520 C518 1.415 1_645 S
C520 C525 1.425 1_645 S
C520 C527 1.409 . S
C521 H513 0.930 . S
C521 C519 1.419 . S
C521 C522 1.362 . S
C522 H514 0.930 . S
C522 C521 1.362 . S
C522 C525 1.409 . S
C523 H515 0.930 . S
C523 C524 1.355 . S
C523 C525 1.415 1_645 S
C524 C523 1.355 . S
C524 C526 1.419 . S
C525 C520 1.425 1_465 S
C525 C522 1.409 . S
C525 C523 1.415 1_465 S
C526 H516 0.930 . S
C526 C524 1.419 . S
C526 C527 1.362 . S
C527 H517 0.930 . S
C527 C520 1.409 . S
C527 C526 1.362 . S
H528 C534 0.930 . S
H529 C537 0.930 . S
H530 C538 0.930 . S
H531 C539 0.930 . S
H532 C542 0.930 . S
H533 C543 0.930 . S
C534 H528 0.930 . S
C534 C535 1.355 . S
C534 C536 1.415 . S
C535 C534 1.355 . S
C535 C537 1.419 . S
C536 C534 1.415 . S
C536 C541 1.425 . S
C536 C543 1.409 . S
C537 H529 0.930 . S
C537 C535 1.419 . S
C537 C538 1.362 . S
C538 H530 0.930 . S
C538 C537 1.362 . S
C538 C541 1.409 . S
C539 H531 0.930 . S
C539 C540 1.355 . S
C539 C541 1.415 . S
C540 C539 1.355 . S
C540 C542 1.419 . S
C541 C536 1.425 . S
C541 C538 1.409 . S
C541 C539 1.415 . S
C542 H532 0.930 . S
C542 C540 1.419 . S
C542 C543 1.362 . S
C543 H533 0.930 . S
C543 C536 1.409 . S
C543 C542 1.362 . S
H544 C550 0.930 1_554 S
H545 C553 0.930 . S
H546 C554 0.930 . S
H547 C555 0.930 1_556 S
H548 C558 0.930 . S
H549 C559 0.930 . S
C550 H544 0.930 1_556 S
C550 C551 1.355 . S
C550 C552 1.415 1_556 S
C551 C550 1.355 . S
C551 C553 1.419 . S
C552 C550 1.415 1_554 S
C552 C557 1.425 1_544 S
C552 C559 1.409 . S
C553 H545 0.930 . S
C553 C551 1.419 . S
C553 C554 1.362 1_545 S
C554 H546 0.930 . S
C554 C553 1.362 1_565 S
C554 C557 1.409 . S
C555 H547 0.930 1_554 S
C555 C556 1.355 . S
C555 C557 1.415 1_554 S
C556 C555 1.355 . S
C556 C558 1.419 . S
C557 C552 1.425 1_566 S
C557 C554 1.409 . S
C557 C555 1.415 1_556 S
C558 H548 0.930 . S
C558 C556 1.419 . S
C558 C559 1.362 1_565 S
C559 H549 0.930 . S
C559 C552 1.409 . S
C559 C558 1.362 1_545 S
H560 C566 0.930 . S
H561 C569 0.930 . S
H562 C570 0.930 . S
H563 C571 0.930 . S
H564 C574 0.930 . S
H565 C575 0.930 . S
C566 H560 0.930 . S
C566 C567 1.355 . S
C566 C568 1.415 . S
C567 C566 1.355 . S
C567 C569 1.419 . S
C568 C566 1.415 . S
C568 C573 1.425 . S
C568 C575 1.409 . S
C569 H561 0.930 . S
C569 C567 1.419 . S
C569 C570 1.362 . S
C570 H562 0.930 . S
C570 C569 1.362 . S
C570 C573 1.409 . S
C571 H563 0.930 . S
C571 C572 1.355 . S
C571 C573 1.415 . S
C572 C571 1.355 . S
C572 C574 1.419 . S
C573 C568 1.425 . S
C573 C570 1.409 . S
C573 C571 1.415 . S
C574 H564 0.930 . S
C574 C572 1.419 . S
C574 C575 1.362 . S
C575 H565 0.930 . S
C575 C568 1.409 . S
C575 C574 1.362 . S
H576 C582 0.930 1_556 S
H577 C585 0.930 . S
H578 C586 0.930 . S
H579 C587 0.930 1_554 S
H580 C590 0.930 . S
H581 C591 0.930 . S
C582 H576 0.930 1_554 S
C582 C583 1.355 . S
C582 C584 1.415 1_554 S
C583 C582 1.355 . S
C583 C585 1.419 . S
C584 C582 1.415 1_556 S
C584 C589 1.425 1_556 S
C584 C591 1.409 . S
C585 H577 0.930 . S
C585 C583 1.419 . S
C585 C586 1.362 . S
C586 H578 0.930 . S
C586 C585 1.362 . S
C586 C589 1.409 . S
C587 H579 0.930 1_556 S
C587 C588 1.355 . S
C587 C589 1.415 1_556 S
C588 C587 1.355 . S
C588 C590 1.419 . S
C589 C584 1.425 1_554 S
C589 C586 1.409 . S
C589 C587 1.415 1_554 S
C590 H580 0.930 . S
C590 C588 1.419 . S
C590 C591 1.362 . S
C591 H581 0.930 . S
C591 C584 1.409 . S
C591 C590 1.362 . S
H592 C598 0.930 . S
H593 C601 0.930 . S
H594 C602 0.930 . S
H595 C603 0.930 . S
H596 C606 0.930 . S
H597 C607 0.930 . S
C598 H592 0.930 . S
C598 C599 1.355 . S
C598 C600 1.415 . S
C599 C598 1.355 . S
C599 C601 1.419 . S
C600 C598 1.415 . S
C600 C605 1.425 . S
C600 C607 1.409 . S
C601 H593 0.930 . S
C601 C599 1.419 . S
C601 C602 1.362 . S
C602 H594 0.930 . S
C602 C601 1.362 . S
C602 C605 1.409 . S
C603 H595 0.930 . S
C603 C604 1.355 . S
C603 C605 1.415 . S
C604 C603 1.355 . S
C604 C606 1.419 . S
C605 C600 1.425 . S
C605 C602 1.409 . S
C605 C603 1.415 . S
C606 H596 0.930 . S
C606 C604 1.419 . S
C606 C607 1.362 . S
C607 H597 0.930 . S
C607 C600 1.409 . S
C607 C606 1.362 . S
H608 C614 0.930 . S
H609 C617 0.930 . S
H610 C618 0.920 1_655 S
H611 C619 0.930 . S
H612 C622 0.930 . S
H613 C623 0.930 . S
C614 H608 0.930 . S
C614 C615 1.355 . S
C614 C616 1.402 1_455 S
C615 C614 1.355 . S
C615 C617 1.419 . S
C616 C614 1.402 1_655 S
C616 C621 1.432 . S
C616 C623 1.416 . S
C617 H609 0.930 . S
C617 C615 1.419 . S
C617 C618 1.385 . S
C618 H610 0.920 1_455 S
C618 C617 1.385 . S
C618 C621 1.398 1_455 S
C619 H611 0.930 . S
C619 C620 1.355 . S
C619 C621 1.415 . S
C620 C619 1.355 . S
C620 C622 1.419 . S
C621 C616 1.432 . S
C621 C618 1.398 1_655 S
C621 C619 1.415 . S
C622 H612 0.930 . S
C622 C620 1.419 . S
C622 C623 1.362 . S
C623 H613 0.930 . S
C623 C616 1.416 . S
C623 C622 1.362 . S
H624 C630 0.930 . S
H625 C633 0.930 . S
H626 C634 0.930 . S
H627 C635 0.930 . S
H628 C638 0.930 . S
H629 C639 0.930 . S
C630 H624 0.930 . S
C630 C631 1.355 . S
C630 C632 1.415 . S
C631 C630 1.355 . S
C631 C633 1.419 . S
C632 C630 1.415 . S
C632 C637 1.425 . S
C632 C639 1.409 . S
C633 H625 0.930 . S
C633 C631 1.419 . S
C633 C634 1.362 . S
C634 H626 0.930 . S
C634 C633 1.362 . S
C634 C637 1.409 . S
C635 H627 0.930 . S
C635 C636 1.355 . S
C635 C637 1.415 . S
C636 C635 1.355 . S
C636 C638 1.419 . S
C637 C632 1.425 . S
C637 C634 1.409 . S
C637 C635 1.415 . S
C638 H628 0.930 . S
C638 C636 1.419 . S
C638 C639 1.362 . S
C639 H629 0.930 . S
C639 C632 1.409 . S
C639 C638 1.362 . S
H640 C646 0.930 . S
H641 C649 0.930 . S
H642 C650 0.930 . S
H643 C651 0.930 . S
H644 C654 0.930 . S
H645 C655 0.930 . S
C646 H640 0.930 . S
C646 C647 1.355 . S
C646 C648 1.415 . S
C647 C646 1.355 . S
C647 C649 1.419 . S
C648 C646 1.415 . S
C648 C653 1.425 . S
C648 C655 1.409 . S
C649 H641 0.930 . S
C649 C647 1.419 . S
C649 C650 1.362 . S
C650 H642 0.930 . S
C650 C649 1.362 . S
C650 C653 1.409 . S
C651 H643 0.930 . S
C651 C652 1.355 . S
C651 C653 1.415 . S
C652 C651 1.355 . S
C652 C654 1.419 . S
C653 C648 1.425 . S
C653 C650 1.409 . S
C653 C651 1.415 . S
C654 H644 0.930 . S
C654 C652 1.419 . S
C654 C655 1.362 . S
C655 H645 0.930 . S
C655 C648 1.409 . S
C655 C654 1.362 . S
H656 C662 0.930 . S
H657 C665 0.930 . S
H658 C666 0.930 . S
H659 C667 0.930 . S
H660 C670 0.930 . S
H661 C671 0.930 . S
C662 H656 0.930 . S
C662 C663 1.355 . S
C662 C664 1.415 . S
C663 C662 1.355 . S
C663 C665 1.419 . S
C664 C662 1.415 . S
C664 C669 1.425 . S
C664 C671 1.409 . S
C665 H657 0.930 . S
C665 C663 1.419 . S
C665 C666 1.362 . S
C666 H658 0.930 . S
C666 C665 1.362 . S
C666 C669 1.409 . S
C667 H659 0.930 . S
C667 C668 1.355 . S
C667 C669 1.415 . S
C668 C667 1.355 . S
C668 C670 1.419 . S
C669 C664 1.425 . S
C669 C666 1.409 . S
C669 C667 1.415 . S
C670 H660 0.930 . S
C670 C668 1.419 . S
C670 C671 1.362 . S
C671 H661 0.930 . S
C671 C664 1.409 . S
C671 C670 1.362 . S
H672 C678 0.930 . S
H673 C681 0.930 . S
H674 C682 0.930 . S
H675 C683 0.930 . S
H676 C686 0.930 . S
H677 C687 0.930 . S
C678 H672 0.930 . S
C678 C679 1.355 . S
C678 C680 1.415 . S
C679 C678 1.355 . S
C679 C681 1.419 . S
C680 C678 1.415 . S
C680 C685 1.425 . S
C680 C687 1.409 . S
C681 H673 0.930 . S
C681 C679 1.419 . S
C681 C682 1.362 . S
C682 H674 0.930 . S
C682 C681 1.362 . S
C682 C685 1.409 . S
C683 H675 0.930 . S
C683 C684 1.355 . S
C683 C685 1.415 . S
C684 C683 1.355 . S
C684 C686 1.419 . S
C685 C680 1.425 . S
C685 C682 1.409 . S
C685 C683 1.415 . S
C686 H676 0.930 . S
C686 C684 1.419 . S
C686 C687 1.362 . S
C687 H677 0.930 . S
C687 C680 1.409 . S
C687 C686 1.362 . S
H688 C694 0.930 . S
H689 C697 0.930 . S
H690 C698 0.930 . S
H691 C699 0.930 1_455 S
H692 C702 0.930 . S
H693 C703 0.930 . S
C694 H688 0.930 . S
C694 C695 1.355 1_655 S
C694 C696 1.415 . S
C695 C694 1.355 1_455 S
C695 C697 1.419 . S
C696 C694 1.415 . S
C696 C701 1.425 1_656 S
C696 C703 1.409 . S
C697 H689 0.930 . S
C697 C695 1.419 . S
C697 C698 1.362 1_556 S
C698 H690 0.930 . S
C698 C697 1.362 1_554 S
C698 C701 1.409 . S
C699 H691 0.930 1_655 S
C699 C700 1.355 . S
C699 C701 1.415 1_655 S
C700 C699 1.355 . S
C700 C702 1.419 . S
C701 C696 1.425 1_454 S
C701 C698 1.409 . S
C701 C699 1.415 1_455 S
C702 H692 0.930 . S
C702 C700 1.419 . S
C702 C703 1.362 1_554 S
C703 H693 0.930 . S
C703 C696 1.409 . S
C703 C702 1.362 1_556 S
H704 C710 0.930 . S
H705 C713 0.930 . S
H706 C714 0.930 . S
H707 C715 0.930 . S
H708 C718 0.930 . S
H709 C719 0.930 . S
C710 H704 0.930 . S
C710 C711 1.355 1_565 S
C710 C712 1.415 . S
C711 C710 1.355 1_545 S
C711 C713 1.419 . S
C712 C710 1.415 . S
C712 C717 1.425 . S
C712 C719 1.409 . S
C713 H705 0.930 . S
C713 C711 1.419 . S
C713 C714 1.362 . S
C714 H706 0.930 . S
C714 C713 1.362 . S
C714 C717 1.409 1_545 S
C715 H707 0.930 . S
C715 C716 1.355 . S
C715 C717 1.415 . S
C716 C715 1.355 . S
C716 C718 1.419 . S
C717 C712 1.425 . S
C717 C714 1.409 1_565 S
C717 C715 1.415 . S
C718 H708 0.930 . S
C718 C716 1.419 . S
C718 C719 1.362 . S
C719 H709 0.930 . S
C719 C712 1.409 . S
C719 C718 1.362 . S
H720 C726 0.930 . S
H721 C729 0.930 . S
H722 C730 0.930 . S
H723 C731 0.930 . S
H724 C734 0.930 . S
H725 C735 0.930 . S
C726 H720 0.930 . S
C726 C727 1.355 . S
C726 C728 1.415 . S
C727 C726 1.355 . S
C727 C729 1.419 . S
C728 C726 1.415 . S
C728 C733 1.425 . S
C728 C735 1.409 . S
C729 H721 0.930 . S
C729 C727 1.419 . S
C729 C730 1.362 . S
C730 H722 0.930 . S
C730 C729 1.362 . S
C730 C733 1.409 . S
C731 H723 0.930 . S
C731 C732 1.355 . S
C731 C733 1.415 . S
C732 C731 1.355 . S
C732 C734 1.419 . S
C733 C728 1.425 . S
C733 C730 1.409 . S
C733 C731 1.415 . S
C734 H724 0.930 . S
C734 C732 1.419 . S
C734 C735 1.362 . S
C735 H725 0.930 . S
C735 C728 1.409 . S
C735 C734 1.362 . S
H736 C742 0.930 1_565 S
H737 C745 0.930 . S
H738 C746 0.930 . S
H739 C747 0.930 . S
H740 C750 0.930 . S
H741 C751 0.930 . S
C742 H736 0.930 1_545 S
C742 C743 1.355 . S
C742 C744 1.415 1_545 S
C743 C742 1.355 . S
C743 C745 1.419 . S
C744 C742 1.415 1_565 S
C744 C749 1.425 . S
C744 C751 1.409 . S
C745 H737 0.930 . S
C745 C743 1.419 . S
C745 C746 1.362 . S
C746 H738 0.930 . S
C746 C745 1.362 . S
C746 C749 1.409 1_545 S
C747 H739 0.930 . S
C747 C748 1.355 . S
C747 C749 1.415 . S
C748 C747 1.355 . S
C748 C750 1.419 . S
C749 C744 1.425 . S
C749 C746 1.409 1_565 S
C749 C747 1.415 . S
C750 H740 0.930 . S
C750 C748 1.419 . S
C750 C751 1.362 . S
C751 H741 0.930 . S
C751 C744 1.409 . S
C751 C750 1.362 . S
H752 C758 0.930 . S
H753 C761 0.930 . S
H754 C762 0.930 . S
H755 C763 0.927 1_556 S
H756 C766 0.930 . S
H757 C767 0.930 . S
C758 H752 0.930 . S
C758 C759 1.355 . S
C758 C760 1.416 1_556 S
C759 C758 1.355 . S
C759 C761 1.419 . S
C760 C758 1.416 1_554 S
C760 C765 1.426 1_554 S
C760 C767 1.407 . S
C761 H753 0.930 . S
C761 C759 1.419 . S
C761 C762 1.362 . S
C762 H754 0.930 . S
C762 C761 1.362 . S
C762 C765 1.409 . S
C763 H755 0.927 1_554 S
C763 C764 1.360 . S
C763 C765 1.412 1_554 S
C764 C763 1.360 . S
C764 C766 1.419 . S
C765 C760 1.426 1_556 S
C765 C762 1.409 . S
C765 C763 1.412 1_556 S
C766 H756 0.930 . S
C766 C764 1.419 . S
C766 C767 1.362 . S
C767 H757 0.930 . S
C767 C760 1.407 . S
C767 C766 1.362 . S
H768 C774 0.930 . S
H769 C777 0.930 . S
H770 C778 0.930 . S
H771 C779 0.930 . S
H772 C782 0.930 . S
H773 C783 0.930 . S
C774 H768 0.930 . S
C774 C775 1.355 . S
C774 C776 1.415 . S
C775 C774 1.355 . S
C775 C777 1.419 . S
C776 C774 1.415 . S
C776 C781 1.425 . S
C776 C783 1.409 1_545 S
C777 H769 0.930 . S
C777 C775 1.419 . S
C777 C778 1.362 . S
C778 H770 0.930 . S
C778 C777 1.362 . S
C778 C781 1.409 . S
C779 H771 0.930 . S
C779 C780 1.355 . S
C779 C781 1.415 1_565 S
C780 C779 1.355 . S
C780 C782 1.419 . S
C781 C776 1.425 . S
C781 C778 1.409 . S
C781 C779 1.415 1_545 S
C782 H772 0.930 . S
C782 C780 1.419 . S
C782 C783 1.362 . S
C783 H773 0.930 . S
C783 C776 1.409 1_565 S
C783 C782 1.362 . S
H784 C790 0.930 . S
H785 C793 0.930 . S
H786 C794 0.930 . S
H787 C795 0.930 . S
H788 C798 0.930 . S
H789 C799 0.930 . S
C790 H784 0.930 . S
C790 C791 1.355 . S
C790 C792 1.415 . S
C791 C790 1.355 . S
C791 C793 1.419 . S
C792 C790 1.415 . S
C792 C797 1.425 . S
C792 C799 1.409 . S
C793 H785 0.930 . S
C793 C791 1.419 . S
C793 C794 1.362 . S
C794 H786 0.930 . S
C794 C793 1.362 . S
C794 C797 1.409 . S
C795 H787 0.930 . S
C795 C796 1.355 . S
C795 C797 1.415 . S
C796 C795 1.355 . S
C796 C798 1.419 . S
C797 C792 1.425 . S
C797 C794 1.409 . S
C797 C795 1.415 . S
C798 H788 0.930 . S
C798 C796 1.419 . S
C798 C799 1.362 . S
C799 H789 0.930 . S
C799 C792 1.409 . S
C799 C798 1.362 . S
H800 C806 0.930 . S
H801 C809 0.930 . S
H802 C810 0.930 . S
H803 C811 0.930 . S
H804 C814 0.930 . S
H805 C815 0.930 . S
C806 H800 0.930 . S
C806 C807 1.355 . S
C806 C808 1.415 1_545 S
C807 C806 1.355 . S
C807 C809 1.419 . S
C808 C806 1.415 1_565 S
C808 C813 1.425 . S
C808 C815 1.409 . S
C809 H801 0.930 . S
C809 C807 1.419 . S
C809 C810 1.362 . S
C810 H802 0.930 . S
C810 C809 1.362 . S
C810 C813 1.409 1_545 S
C811 H803 0.930 . S
C811 C812 1.355 . S
C811 C813 1.415 . S
C812 C811 1.355 . S
C812 C814 1.419 . S
C813 C808 1.425 . S
C813 C810 1.409 1_565 S
C813 C811 1.415 . S
C814 H804 0.930 . S
C814 C812 1.419 . S
C814 C815 1.362 . S
C815 H805 0.930 . S
C815 C808 1.409 . S
C815 C814 1.362 . S
H816 C822 0.930 . S
H817 C825 0.930 . S
H818 C826 0.930 . S
H819 C827 0.930 . S
H820 C830 0.930 . S
H821 C831 0.930 . S
C822 H816 0.930 . S
C822 C823 1.355 1_554 S
C822 C824 1.415 . S
C823 C822 1.355 1_556 S
C823 C825 1.419 . S
C824 C822 1.415 . S
C824 C829 1.425 . S
C824 C831 1.409 . S
C825 H817 0.930 . S
C825 C823 1.419 . S
C825 C826 1.362 . S
C826 H818 0.930 . S
C826 C825 1.362 . S
C826 C829 1.409 1_556 S
C827 H819 0.930 . S
C827 C828 1.355 . S
C827 C829 1.415 . S
C828 C827 1.355 . S
C828 C830 1.419 . S
C829 C824 1.425 . S
C829 C826 1.409 1_554 S
C829 C827 1.415 . S
C830 H820 0.930 . S
C830 C828 1.419 . S
C830 C831 1.362 . S
C831 H821 0.930 . S
C831 C824 1.409 . S
C831 C830 1.362 . S
H832 C838 0.930 . S
H833 C841 0.930 . S
H834 C842 0.930 . S
H835 C843 0.930 . S
H836 C846 0.930 . S
H837 C847 0.930 . S
C838 H832 0.930 . S
C838 C839 1.355 . S
C838 C840 1.415 . S
C839 C838 1.355 . S
C839 C841 1.419 . S
C840 C838 1.415 . S
C840 C845 1.425 . S
C840 C847 1.409 1_655 S
C841 H833 0.930 . S
C841 C839 1.419 . S
C841 C842 1.362 . S
C842 H834 0.930 . S
C842 C841 1.362 . S
C842 C845 1.409 . S
C843 H835 0.930 . S
C843 C844 1.355 1_655 S
C843 C845 1.415 . S
C844 C843 1.355 1_455 S
C844 C846 1.419 . S
C845 C840 1.425 . S
C845 C842 1.409 . S
C845 C843 1.415 . S
C846 H836 0.930 . S
C846 C844 1.419 . S
C846 C847 1.362 . S
C847 H837 0.930 . S
C847 C840 1.409 1_455 S
C847 C846 1.362 . S
H848 C854 0.930 . S
H849 C857 0.930 . S
H850 C858 0.930 . S
H851 C859 0.930 . S
H852 C862 0.930 . S
H853 C863 0.930 . S
C854 H848 0.930 . S
C854 C855 1.355 . S
C854 C856 1.415 . S
C855 C854 1.355 . S
C855 C857 1.419 . S
C856 C854 1.415 . S
C856 C861 1.425 . S
C856 C863 1.409 . S
C857 H849 0.930 . S
C857 C855 1.419 . S
C857 C858 1.362 . S
C858 H850 0.930 . S
C858 C857 1.362 . S
C858 C861 1.409 . S
C859 H851 0.930 . S
C859 C860 1.355 . S
C859 C861 1.415 . S
C860 C859 1.355 . S
C860 C862 1.419 . S
C861 C856 1.425 . S
C861 C858 1.409 . S
C861 C859 1.415 . S
C862 H852 0.930 . S
C862 C860 1.419 . S
C862 C863 1.362 . S
C863 H853 0.930 . S
C863 C856 1.409 . S
C863 C862 1.362 . S
H864 C870 0.930 . S
H865 C873 0.930 . S
H866 C874 0.930 . S
H867 C875 0.930 . S
H868 C878 0.930 . S
H869 C879 0.930 . S
C870 H864 0.930 . S
C870 C871 1.355 . S
C870 C872 1.415 1_655 S
C871 C870 1.355 . S
C871 C873 1.419 . S
C872 C870 1.415 1_455 S
C872 C877 1.425 . S
C872 C879 1.409 . S
C873 H865 0.930 . S
C873 C871 1.419 . S
C873 C874 1.362 1_655 S
C874 H866 0.930 . S
C874 C873 1.362 1_455 S
C874 C877 1.409 . S
C875 H867 0.930 . S
C875 C876 1.355 . S
C875 C877 1.415 . S
C876 C875 1.355 . S
C876 C878 1.419 . S
C877 C872 1.425 . S
C877 C874 1.409 . S
C877 C875 1.415 . S
C878 H868 0.930 . S
C878 C876 1.419 . S
C878 C879 1.362 . S
C879 H869 0.930 . S
C879 C872 1.409 . S
C879 C878 1.362 . S
H880 C886 0.930 . S
H881 C889 0.930 . S
H882 C890 0.930 . S
H883 C891 0.930 . S
H884 C894 0.930 . S
H885 C895 0.930 . S
C886 H880 0.930 . S
C886 C887 1.355 1_455 S
C886 C888 1.415 . S
C887 C886 1.355 1_655 S
C887 C889 1.419 . S
C888 C886 1.415 . S
C888 C893 1.425 . S
C888 C895 1.409 . S
C889 H881 0.930 . S
C889 C887 1.419 . S
C889 C890 1.362 . S
C890 H882 0.930 . S
C890 C889 1.362 . S
C890 C893 1.409 1_655 S
C891 H883 0.930 . S
C891 C892 1.355 . S
C891 C893 1.415 . S
C892 C891 1.355 . S
C892 C894 1.419 . S
C893 C888 1.425 . S
C893 C890 1.409 1_455 S
C893 C891 1.415 . S
C894 H884 0.930 . S
C894 C892 1.419 . S
C894 C895 1.362 . S
C895 H885 0.930 . S
C895 C888 1.409 . S
C895 C894 1.362 . S
H896 C902 0.930 . S
H897 C905 0.930 . S
H898 C906 0.930 . S
H899 C907 0.930 . S
H900 C910 0.930 . S
H901 C911 0.930 . S
C902 H896 0.930 . S
C902 C903 1.355 . S
C902 C904 1.415 . S
C903 C902 1.355 . S
C903 C905 1.419 . S
C904 C902 1.415 . S
C904 C909 1.425 . S
C904 C911 1.409 . S
C905 H897 0.930 . S
C905 C903 1.419 . S
C905 C906 1.362 . S
C906 H898 0.930 . S
C906 C905 1.362 . S
C906 C909 1.409 . S
C907 H899 0.930 . S
C907 C908 1.355 . S
C907 C909 1.415 . S
C908 C907 1.355 . S
C908 C910 1.419 . S
C909 C904 1.425 . S
C909 C906 1.409 . S
C909 C907 1.415 . S
C910 H900 0.930 . S
C910 C908 1.419 . S
C910 C911 1.362 . S
C911 H901 0.930 . S
C911 C904 1.409 . S
C911 C910 1.362 . S
H912 C918 0.930 . S
H913 C921 0.930 . S
H914 C922 0.930 . S
H915 C923 0.930 . S
H916 C926 0.930 . S
H917 C927 0.930 . S
C918 H912 0.930 . S
C918 C919 1.355 . S
C918 C920 1.415 . S
C919 C918 1.355 . S
C919 C921 1.419 . S
C920 C918 1.415 . S
C920 C925 1.425 . S
C920 C927 1.409 1_655 S
C921 H913 0.930 . S
C921 C919 1.419 . S
C921 C922 1.362 . S
C922 H914 0.930 . S
C922 C921 1.362 . S
C922 C925 1.409 . S
C923 H915 0.930 . S
C923 C924 1.355 1_655 S
C923 C925 1.415 . S
C924 C923 1.355 1_455 S
C924 C926 1.419 . S
C925 C920 1.425 . S
C925 C922 1.409 . S
C925 C923 1.415 . S
C926 H916 0.930 . S
C926 C924 1.419 . S
C926 C927 1.362 . S
C927 H917 0.930 . S
C927 C920 1.409 1_455 S
C927 C926 1.362 . S
H928 C934 0.930 . S
H929 C937 0.930 . S
H930 C938 0.930 . S
H931 C939 0.930 . S
H932 C942 0.930 . S
H933 C943 0.930 . S
C934 H928 0.930 . S
C934 C935 1.355 . S
C934 C936 1.415 . S
C935 C934 1.355 . S
C935 C937 1.419 . S
C936 C934 1.415 . S
C936 C941 1.425 . S
C936 C943 1.409 . S
C937 H929 0.930 . S
C937 C935 1.419 . S
C937 C938 1.362 . S
C938 H930 0.930 . S
C938 C937 1.362 . S
C938 C941 1.409 . S
C939 H931 0.930 . S
C939 C940 1.355 . S
C939 C941 1.415 . S
C940 C939 1.355 . S
C940 C942 1.419 . S
C941 C936 1.425 . S
C941 C938 1.409 . S
C941 C939 1.415 . S
C942 H932 0.930 . S
C942 C940 1.419 . S
C942 C943 1.362 . S
C943 H933 0.930 . S
C943 C936 1.409 . S
C943 C942 1.362 . S
H944 C950 0.930 . S
H945 C953 0.930 . S
H946 C954 0.930 . S
H947 C955 0.930 . S
H948 C958 0.930 . S
H949 C959 0.930 . S
C950 H944 0.930 . S
C950 C951 1.355 . S
C950 C952 1.415 . S
C951 C950 1.355 . S
C951 C953 1.419 . S
C952 C950 1.415 . S
C952 C957 1.425 . S
C952 C959 1.409 . S
C953 H945 0.930 . S
C953 C951 1.419 . S
C953 C954 1.362 . S
C954 H946 0.930 . S
C954 C953 1.362 . S
C954 C957 1.409 . S
C955 H947 0.930 . S
C955 C956 1.355 . S
C955 C957 1.415 1_565 S
C956 C955 1.355 . S
C956 C958 1.419 . S
C957 C952 1.425 . S
C957 C954 1.409 . S
C957 C955 1.415 1_545 S
C958 H948 0.930 . S
C958 C956 1.419 . S
C958 C959 1.362 1_565 S
C959 H949 0.930 . S
C959 C952 1.409 . S
C959 C958 1.362 1_545 S
H960 C966 0.930 . S
H961 C969 0.930 . S
H962 C970 0.930 . S
H963 C971 0.930 . S
H964 C974 0.930 . S
H965 C975 0.930 . S
C966 H960 0.930 . S
C966 C967 1.355 . S
C966 C968 1.415 . S
C967 C966 1.355 . S
C967 C969 1.419 . S
C968 C966 1.415 . S
C968 C973 1.425 . S
C968 C975 1.409 . S
C969 H961 0.930 . S
C969 C967 1.419 . S
C969 C970 1.362 . S
C970 H962 0.930 . S
C970 C969 1.362 . S
C970 C973 1.409 . S
C971 H963 0.930 . S
C971 C972 1.355 . S
C971 C973 1.415 . S
C972 C971 1.355 . S
C972 C974 1.419 . S
C973 C968 1.425 . S
C973 C970 1.409 . S
C973 C971 1.415 . S
C974 H964 0.930 . S
C974 C972 1.419 . S
C974 C975 1.362 . S
C975 H965 0.930 . S
C975 C968 1.409 . S
C975 C974 1.362 . S
H976 C982 0.930 1_545 S
H977 C985 0.930 . S
H978 C986 0.930 . S
H979 C987 0.930 . S
H980 C990 0.930 . S
H981 C991 0.930 . S
C982 H976 0.930 1_565 S
C982 C983 1.355 . S
C982 C984 1.415 1_565 S
C983 C982 1.355 . S
C983 C985 1.419 . S
C984 C982 1.415 1_545 S
C984 C989 1.425 . S
C984 C991 1.409 . S
C985 H977 0.930 . S
C985 C983 1.419 . S
C985 C986 1.362 . S
C986 H978 0.930 . S
C986 C985 1.362 . S
C986 C989 1.409 1_565 S
C987 H979 0.930 . S
C987 C988 1.355 . S
C987 C989 1.415 . S
C988 C987 1.355 . S
C988 C990 1.419 . S
C989 C984 1.425 . S
C989 C986 1.409 1_545 S
C989 C987 1.415 . S
C990 H980 0.930 . S
C990 C988 1.419 . S
C990 C991 1.362 . S
C991 H981 0.930 . S
C991 C984 1.409 . S
C991 C990 1.362 . S
H992 C998 0.930 1_554 S
H993 C1001 0.930 . S
H994 C1002 0.930 . S
H995 C1003 0.930 . S
H996 C1006 0.930 . S
H997 C1007 0.930 . S
C998 H992 0.930 1_556 S
C998 C999 1.355 . S
C998 C1000 1.415 1_556 S
C999 C998 1.355 . S
C999 C1001 1.419 . S
C1000 C998 1.415 1_554 S
C1000 C1005 1.425 1_554 S
C1000 C1007 1.409 . S
C1001 H993 0.930 . S
C1001 C999 1.419 . S
C1001 C1002 1.362 . S
C1002 H994 0.930 . S
C1002 C1001 1.362 . S
C1002 C1005 1.409 . S
C1003 H995 0.930 . S
C1003 C1004 1.355 . S
C1003 C1005 1.415 1_554 S
C1004 C1003 1.355 . S
C1004 C1006 1.419 . S
C1005 C1000 1.425 1_556 S
C1005 C1002 1.409 . S
C1005 C1003 1.415 1_556 S
C1006 H996 0.930 . S
C1006 C1004 1.419 . S
C1006 C1007 1.362 . S
C1007 H997 0.930 . S
C1007 C1000 1.409 . S
C1007 C1006 1.362 . S
H1008 C1014 0.930 . S
H1009 C1017 0.930 . S
H1010 C1018 0.930 . S
H1011 C1019 0.930 . S
H1012 C1022 0.930 . S
H1013 C1023 0.930 . S
C1014 H1008 0.930 . S
C1014 C1015 1.355 . S
C1014 C1016 1.415 1_545 S
C1015 C1014 1.355 . S
C1015 C1017 1.419 . S
C1016 C1014 1.415 1_565 S
C1016 C1021 1.425 1_565 S
C1016 C1023 1.409 . S
C1017 H1009 0.930 . S
C1017 C1015 1.419 . S
C1017 C1018 1.362 . S
C1018 H1010 0.930 . S
C1018 C1017 1.362 . S
C1018 C1021 1.409 . S
C1019 H1011 0.930 . S
C1019 C1020 1.355 . S
C1019 C1021 1.415 1_565 S
C1020 C1019 1.355 . S
C1020 C1022 1.419 . S
C1021 C1016 1.425 1_545 S
C1021 C1018 1.409 . S
C1021 C1019 1.415 1_545 S
C1022 H1012 0.930 . S
C1022 C1020 1.419 . S
C1022 C1023 1.362 . S
C1023 H1013 0.930 . S
C1023 C1016 1.409 . S
C1023 C1022 1.362 . S
H1024 C1030 0.930 . S
H1025 C1033 0.930 . S
H1026 C1034 0.930 . S
H1027 C1035 0.930 . S
H1028 C1038 0.930 . S
H1029 C1039 0.930 . S
C1030 H1024 0.930 . S
C1030 C1031 1.355 . S
C1030 C1032 1.415 . S
C1031 C1030 1.355 . S
C1031 C1033 1.419 . S
C1032 C1030 1.415 . S
C1032 C1037 1.425 . S
C1032 C1039 1.409 . S
C1033 H1025 0.930 . S
C1033 C1031 1.419 . S
C1033 C1034 1.362 . S
C1034 H1026 0.930 . S
C1034 C1033 1.362 . S
C1034 C1037 1.409 . S
C1035 H1027 0.930 . S
C1035 C1036 1.355 . S
C1035 C1037 1.415 . S
C1036 C1035 1.355 . S
C1036 C1038 1.419 . S
C1037 C1032 1.425 . S
C1037 C1034 1.409 . S
C1037 C1035 1.415 . S
C1038 H1028 0.930 . S
C1038 C1036 1.419 . S
C1038 C1039 1.362 . S
C1039 H1029 0.930 . S
C1039 C1032 1.409 . S
C1039 C1038 1.362 . S
H1040 C1046 0.930 1_545 S
H1041 C1049 0.930 . S
H1042 C1050 0.930 . S
H1043 C1051 0.930 . S
H1044 C1054 0.930 . S
H1045 C1055 0.930 . S
C1046 H1040 0.930 1_565 S
C1046 C1047 1.355 . S
C1046 C1048 1.415 1_565 S
C1047 C1046 1.355 . S
C1047 C1049 1.419 . S
C1048 C1046 1.415 1_545 S
C1048 C1053 1.425 . S
C1048 C1055 1.409 . S
C1049 H1041 0.930 . S
C1049 C1047 1.419 . S
C1049 C1050 1.362 . S
C1050 H1042 0.930 . S
C1050 C1049 1.362 . S
C1050 C1053 1.409 1_565 S
C1051 H1043 0.930 . S
C1051 C1052 1.355 . S
C1051 C1053 1.415 . S
C1052 C1051 1.355 . S
C1052 C1054 1.419 . S
C1053 C1048 1.425 . S
C1053 C1050 1.409 1_545 S
C1053 C1051 1.415 . S
C1054 H1044 0.930 . S
C1054 C1052 1.419 . S
C1054 C1055 1.362 . S
C1055 H1045 0.930 . S
C1055 C1048 1.409 . S
C1055 C1054 1.362 . S
H1056 C1062 0.930 . S
H1057 C1065 0.930 . S
H1058 C1066 0.930 . S
H1059 C1067 0.930 . S
H1060 C1070 0.930 . S
H1061 C1071 0.930 . S
C1062 H1056 0.930 . S
C1062 C1063 1.355 1_556 S
C1062 C1064 1.415 . S
C1063 C1062 1.355 1_554 S
C1063 C1065 1.419 . S
C1064 C1062 1.415 . S
C1064 C1069 1.425 . S
C1064 C1071 1.409 . S
C1065 H1057 0.930 . S
C1065 C1063 1.419 . S
C1065 C1066 1.362 . S
C1066 H1058 0.930 . S
C1066 C1065 1.362 . S
C1066 C1069 1.409 1_554 S
C1067 H1059 0.930 . S
C1067 C1068 1.355 . S
C1067 C1069 1.415 . S
C1068 C1067 1.355 . S
C1068 C1070 1.419 . S
C1069 C1064 1.425 . S
C1069 C1066 1.409 1_556 S
C1069 C1067 1.415 . S
C1070 H1060 0.930 . S
C1070 C1068 1.419 . S
C1070 C1071 1.362 . S
C1071 H1061 0.930 . S
C1071 C1064 1.409 . S
C1071 C1070 1.362 . S
H1072 C1078 0.930 . S
H1073 C1081 0.930 . S
H1074 C1082 0.930 . S
H1075 C1083 0.930 . S
H1076 C1086 0.930 . S
H1077 C1087 0.930 . S
C1078 H1072 0.930 . S
C1078 C1079 1.355 1_455 S
C1078 C1080 1.415 . S
C1079 C1078 1.355 1_655 S
C1079 C1081 1.419 . S
C1080 C1078 1.415 . S
C1080 C1085 1.425 . S
C1080 C1087 1.409 . S
C1081 H1073 0.930 . S
C1081 C1079 1.419 . S
C1081 C1082 1.362 1_655 S
C1082 H1074 0.930 . S
C1082 C1081 1.362 1_455 S
C1082 C1085 1.409 . S
C1083 H1075 0.930 . S
C1083 C1084 1.355 . S
C1083 C1085 1.415 . S
C1084 C1083 1.355 . S
C1084 C1086 1.419 . S
C1085 C1080 1.425 . S
C1085 C1082 1.409 . S
C1085 C1083 1.415 . S
C1086 H1076 0.930 . S
C1086 C1084 1.419 . S
C1086 C1087 1.362 . S
C1087 H1077 0.930 . S
C1087 C1080 1.409 . S
C1087 C1086 1.362 . S
H1088 C1094 0.930 . S
H1089 C1097 0.930 . S
H1090 C1098 0.930 . S
H1091 C1099 0.930 . S
H1092 C1102 0.930 . S
H1093 C1103 0.930 . S
C1094 H1088 0.930 . S
C1094 C1095 1.355 . S
C1094 C1096 1.415 . S
C1095 C1094 1.355 . S
C1095 C1097 1.419 . S
C1096 C1094 1.415 . S
C1096 C1101 1.425 . S
C1096 C1103 1.409 . S
C1097 H1089 0.930 . S
C1097 C1095 1.419 . S
C1097 C1098 1.362 . S
C1098 H1090 0.930 . S
C1098 C1097 1.362 . S
C1098 C1101 1.409 . S
C1099 H1091 0.930 . S
C1099 C1100 1.355 . S
C1099 C1101 1.415 . S
C1100 C1099 1.355 . S
C1100 C1102 1.419 . S
C1101 C1096 1.425 . S
C1101 C1098 1.409 . S
C1101 C1099 1.415 . S
C1102 H1092 0.930 . S
C1102 C1100 1.419 . S
C1102 C1103 1.362 . S
C1103 H1093 0.930 . S
C1103 C1096 1.409 . S
C1103 C1102 1.362 . S
H1104 C1110 0.930 . S
H1105 C1113 0.930 . S
H1106 C1114 0.930 . S
H1107 C1115 0.930 . S
H1108 C1118 0.930 . S
H1109 C1119 0.930 . S
C1110 H1104 0.930 . S
C1110 C1111 1.355 . S
C1110 C1112 1.415 1_455 S
C1111 C1110 1.355 . S
C1111 C1113 1.419 1_455 S
C1112 C1110 1.415 1_655 S
C1112 C1117 1.425 . S
C1112 C1119 1.409 . S
C1113 H1105 0.930 . S
C1113 C1111 1.419 1_655 S
C1113 C1114 1.362 . S
C1114 H1106 0.930 . S
C1114 C1113 1.362 . S
C1114 C1117 1.409 . S
C1115 H1107 0.930 . S
C1115 C1116 1.355 . S
C1115 C1117 1.415 . S
C1116 C1115 1.355 . S
C1116 C1118 1.419 . S
C1117 C1112 1.425 . S
C1117 C1114 1.409 . S
C1117 C1115 1.415 . S
C1118 H1108 0.930 . S
C1118 C1116 1.419 . S
C1118 C1119 1.362 . S
C1119 H1109 0.930 . S
C1119 C1112 1.409 . S
C1119 C1118 1.362 . S
H1120 C1126 0.930 . S
H1121 C1129 0.930 . S
H1122 C1130 0.930 . S
H1123 C1131 0.930 . S
H1124 C1134 0.930 . S
H1125 C1135 0.942 . S
C1126 H1120 0.930 . S
C1126 C1127 1.355 . S
C1126 C1128 1.415 1_455 S
C1127 C1126 1.355 . S
C1127 C1129 1.419 1_455 S
C1128 C1126 1.415 1_655 S
C1128 C1133 1.425 . S
C1128 C1135 1.409 . S
C1129 H1121 0.930 . S
C1129 C1127 1.419 1_655 S
C1129 C1130 1.362 . S
C1130 H1122 0.930 . S
C1130 C1129 1.362 . S
C1130 C1133 1.409 . S
C1131 H1123 0.930 . S
C1131 C1132 1.355 . S
C1131 C1133 1.415 . S
C1132 C1131 1.355 . S
C1132 C1134 1.419 . S
C1133 C1128 1.425 . S
C1133 C1130 1.409 . S
C1133 C1131 1.415 . S
C1134 H1124 0.930 . S
C1134 C1132 1.419 . S
C1134 C1135 1.362 . S
C1135 H1125 0.942 . S
C1135 C1128 1.409 . S
C1135 C1134 1.362 . S
H1136 C1142 0.930 . S
H1137 C1145 0.930 . S
H1138 C1146 0.930 . S
H1139 C1147 0.930 . S
H1140 C1150 0.930 . S
H1141 C1151 0.930 . S
C1142 H1136 0.930 . S
C1142 C1143 1.355 . S
C1142 C1144 1.415 . S
C1143 C1142 1.355 . S
C1143 C1145 1.419 . S
C1144 C1142 1.415 . S
C1144 C1149 1.425 . S
C1144 C1151 1.409 . S
C1145 H1137 0.930 . S
C1145 C1143 1.419 . S
C1145 C1146 1.362 . S
C1146 H1138 0.930 . S
C1146 C1145 1.362 . S
C1146 C1149 1.409 . S
C1147 H1139 0.930 . S
C1147 C1148 1.355 . S
C1147 C1149 1.415 . S
C1148 C1147 1.355 . S
C1148 C1150 1.419 . S
C1149 C1144 1.425 . S
C1149 C1146 1.409 . S
C1149 C1147 1.415 . S
C1150 H1140 0.930 . S
C1150 C1148 1.419 . S
C1150 C1151 1.362 . S
C1151 H1141 0.930 . S
C1151 C1144 1.409 . S
C1151 C1150 1.362 . S
H1152 C1158 0.930 . S
H1153 C1161 0.930 . S
H1154 C1162 0.930 . S
H1155 C1163 0.930 . S
H1156 C1166 0.930 . S
H1157 C1167 0.930 . S
C1158 H1152 0.930 . S
C1158 C1159 1.355 1_455 S
C1158 C1160 1.415 . S
C1159 C1158 1.355 1_655 S
C1159 C1161 1.419 . S
C1160 C1158 1.415 . S
C1160 C1165 1.425 . S
C1160 C1167 1.409 . S
C1161 H1153 0.930 . S
C1161 C1159 1.419 . S
C1161 C1162 1.362 . S
C1162 H1154 0.930 . S
C1162 C1161 1.362 . S
C1162 C1165 1.409 1_655 S
C1163 H1155 0.930 . S
C1163 C1164 1.355 . S
C1163 C1165 1.415 . S
C1164 C1163 1.355 . S
C1164 C1166 1.419 . S
C1165 C1160 1.425 . S
C1165 C1162 1.409 1_455 S
C1165 C1163 1.415 . S
C1166 H1156 0.930 . S
C1166 C1164 1.419 . S
C1166 C1167 1.362 . S
C1167 H1157 0.930 . S
C1167 C1160 1.409 . S
C1167 C1166 1.362 . S
H1168 C1174 0.930 . S
H1169 C1177 0.930 . S
H1170 C1178 0.930 . S
H1171 C1179 0.930 . S
H1172 C1182 0.930 . S
H1173 C1183 0.930 . S
C1174 H1168 0.930 . S
C1174 C1175 1.355 . S
C1174 C1176 1.415 . S
C1175 C1174 1.355 . S
C1175 C1177 1.419 . S
C1176 C1174 1.415 . S
C1176 C1181 1.425 . S
C1176 C1183 1.409 . S
C1177 H1169 0.930 . S
C1177 C1175 1.419 . S
C1177 C1178 1.362 . S
C1178 H1170 0.930 . S
C1178 C1177 1.362 . S
C1178 C1181 1.409 . S
C1179 H1171 0.930 . S
C1179 C1180 1.355 . S
C1179 C1181 1.415 . S
C1180 C1179 1.355 . S
C1180 C1182 1.419 . S
C1181 C1176 1.425 . S
C1181 C1178 1.409 . S
C1181 C1179 1.415 . S
C1182 H1172 0.930 . S
C1182 C1180 1.419 . S
C1182 C1183 1.362 . S
C1183 H1173 0.930 . S
C1183 C1176 1.409 . S
C1183 C1182 1.362 . S
H1184 C1190 0.930 . S
H1185 C1193 0.930 . S
H1186 C1194 0.930 . S
H1187 C1195 0.930 . S
H1188 C1198 0.930 . S
H1189 C1199 0.930 . S
C1190 H1184 0.930 . S
C1190 C1191 1.355 . S
C1190 C1192 1.415 . S
C1191 C1190 1.355 . S
C1191 C1193 1.419 . S
C1192 C1190 1.415 . S
C1192 C1197 1.425 . S
C1192 C1199 1.409 . S
C1193 H1185 0.930 . S
C1193 C1191 1.419 . S
C1193 C1194 1.362 . S
C1194 H1186 0.930 . S
C1194 C1193 1.362 . S
C1194 C1197 1.409 . S
C1195 H1187 0.930 . S
C1195 C1196 1.355 . S
C1195 C1197 1.415 . S
C1196 C1195 1.355 . S
C1196 C1198 1.419 . S
C1197 C1192 1.425 . S
C1197 C1194 1.409 . S
C1197 C1195 1.415 . S
C1198 H1188 0.930 . S
C1198 C1196 1.419 . S
C1198 C1199 1.362 . S
C1199 H1189 0.930 . S
C1199 C1192 1.409 . S
C1199 C1198 1.362 . S
H1200 C1206 0.930 . S
H1201 C1209 0.930 . S
H1202 C1210 0.930 . S
H1203 C1211 0.930 . S
H1204 C1214 0.930 . S
H1205 C1215 0.930 . S
C1206 H1200 0.930 . S
C1206 C1207 1.355 . S
C1206 C1208 1.415 1_554 S
C1207 C1206 1.355 . S
C1207 C1209 1.419 . S
C1208 C1206 1.415 1_556 S
C1208 C1213 1.425 1_556 S
C1208 C1215 1.409 . S
C1209 H1201 0.930 . S
C1209 C1207 1.419 . S
C1209 C1210 1.362 . S
C1210 H1202 0.930 . S
C1210 C1209 1.362 . S
C1210 C1213 1.409 . S
C1211 H1203 0.930 . S
C1211 C1212 1.355 . S
C1211 C1213 1.415 1_556 S
C1212 C1211 1.355 . S
C1212 C1214 1.419 . S
C1213 C1208 1.425 1_554 S
C1213 C1210 1.409 . S
C1213 C1211 1.415 1_554 S
C1214 H1204 0.930 . S
C1214 C1212 1.419 . S
C1214 C1215 1.362 . S
C1215 H1205 0.930 . S
C1215 C1208 1.409 . S
C1215 C1214 1.362 . S
H1216 C1222 0.930 . S
H1217 C1225 0.930 . S
H1218 C1226 0.930 . S
H1219 C1227 0.930 . S
H1220 C1230 0.930 . S
H1221 C1231 0.930 . S
C1222 H1216 0.930 . S
C1222 C1223 1.355 . S
C1222 C1224 1.415 . S
C1223 C1222 1.355 . S
C1223 C1225 1.419 . S
C1224 C1222 1.415 . S
C1224 C1229 1.425 . S
C1224 C1231 1.409 . S
C1225 H1217 0.930 . S
C1225 C1223 1.419 . S
C1225 C1226 1.362 . S
C1226 H1218 0.930 . S
C1226 C1225 1.362 . S
C1226 C1229 1.409 . S
C1227 H1219 0.930 . S
C1227 C1228 1.355 . S
C1227 C1229 1.415 . S
C1228 C1227 1.355 . S
C1228 C1230 1.419 . S
C1229 C1224 1.425 . S
C1229 C1226 1.409 . S
C1229 C1227 1.415 . S
C1230 H1220 0.930 . S
C1230 C1228 1.419 . S
C1230 C1231 1.362 . S
C1231 H1221 0.930 . S
C1231 C1224 1.409 . S
C1231 C1230 1.362 . S
H1232 C1238 0.930 . S
H1233 C1241 0.930 . S
H1234 C1242 0.930 . S
H1235 C1243 0.930 . S
H1236 C1246 0.930 . S
H1237 C1247 0.930 . S
C1238 H1232 0.930 . S
C1238 C1239 1.355 . S
C1238 C1240 1.415 . S
C1239 C1238 1.355 . S
C1239 C1241 1.419 . S
C1240 C1238 1.415 . S
C1240 C1245 1.425 . S
C1240 C1247 1.409 . S
C1241 H1233 0.930 . S
C1241 C1239 1.419 . S
C1241 C1242 1.362 . S
C1242 H1234 0.930 . S
C1242 C1241 1.362 . S
C1242 C1245 1.409 . S
C1243 H1235 0.930 . S
C1243 C1244 1.355 . S
C1243 C1245 1.415 . S
C1244 C1243 1.355 . S
C1244 C1246 1.419 . S
C1245 C1240 1.425 . S
C1245 C1242 1.409 . S
C1245 C1243 1.415 . S
C1246 H1236 0.930 . S
C1246 C1244 1.419 . S
C1246 C1247 1.362 . S
C1247 H1237 0.930 . S
C1247 C1240 1.409 . S
C1247 C1246 1.362 . S
H1248 C1254 0.930 . S
H1249 C1257 0.930 . S
H1250 C1258 0.930 . S
H1251 C1259 0.930 . S
H1252 C1262 0.930 . S
H1253 C1263 0.930 . S
C1254 H1248 0.930 . S
C1254 C1255 1.355 . S
C1254 C1256 1.415 . S
C1255 C1254 1.355 . S
C1255 C1257 1.419 . S
C1256 C1254 1.415 . S
C1256 C1261 1.425 . S
C1256 C1263 1.409 . S
C1257 H1249 0.930 . S
C1257 C1255 1.419 . S
C1257 C1258 1.362 . S
C1258 H1250 0.930 . S
C1258 C1257 1.362 . S
C1258 C1261 1.409 . S
C1259 H1251 0.930 . S
C1259 C1260 1.355 . S
C1259 C1261 1.415 . S
C1260 C1259 1.355 . S
C1260 C1262 1.419 . S
C1261 C1256 1.425 . S
C1261 C1258 1.409 . S
C1261 C1259 1.415 . S
C1262 H1252 0.930 . S
C1262 C1260 1.419 . S
C1262 C1263 1.362 . S
C1263 H1253 0.930 . S
C1263 C1256 1.409 . S
C1263 C1262 1.362 . S
H1264 C1270 0.930 . S
H1265 C1273 0.930 . S
H1266 C1274 0.930 . S
H1267 C1275 0.930 . S
H1268 C1278 0.930 . S
H1269 C1279 0.930 . S
C1270 H1264 0.930 . S
C1270 C1271 1.355 . S
C1270 C1272 1.415 . S
C1271 C1270 1.355 . S
C1271 C1273 1.419 . S
C1272 C1270 1.415 . S
C1272 C1277 1.425 . S
C1272 C1279 1.409 1_554 S
C1273 H1265 0.930 . S
C1273 C1271 1.419 . S
C1273 C1274 1.362 . S
C1274 H1266 0.930 . S
C1274 C1273 1.362 . S
C1274 C1277 1.409 . S
C1275 H1267 0.930 . S
C1275 C1276 1.355 1_554 S
C1275 C1277 1.415 . S
C1276 C1275 1.355 1_556 S
C1276 C1278 1.419 . S
C1277 C1272 1.425 . S
C1277 C1274 1.409 . S
C1277 C1275 1.415 . S
C1278 H1268 0.930 . S
C1278 C1276 1.419 . S
C1278 C1279 1.362 . S
C1279 H1269 0.930 . S
C1279 C1272 1.409 1_556 S
C1279 C1278 1.362 . S
H1280 C1286 0.930 . S
H1281 C1289 0.930 . S
H1282 C1290 0.930 . S
H1283 C1291 0.930 . S
H1284 C1294 0.930 . S
H1285 C1295 0.930 . S
C1286 H1280 0.930 . S
C1286 C1287 1.355 . S
C1286 C1288 1.415 . S
C1287 C1286 1.355 . S
C1287 C1289 1.419 . S
C1288 C1286 1.415 . S
C1288 C1293 1.425 . S
C1288 C1295 1.409 . S
C1289 H1281 0.930 . S
C1289 C1287 1.419 . S
C1289 C1290 1.362 . S
C1290 H1282 0.930 . S
C1290 C1289 1.362 . S
C1290 C1293 1.409 . S
C1291 H1283 0.930 . S
C1291 C1292 1.355 . S
C1291 C1293 1.415 . S
C1292 C1291 1.355 . S
C1292 C1294 1.419 . S
C1293 C1288 1.425 . S
C1293 C1290 1.409 . S
C1293 C1291 1.415 . S
C1294 H1284 0.930 . S
C1294 C1292 1.419 . S
C1294 C1295 1.362 . S
C1295 H1285 0.930 . S
C1295 C1288 1.409 . S
C1295 C1294 1.362 . S
H1296 C1302 0.930 . S
H1297 C1305 0.930 . S
H1298 C1306 0.930 . S
H1299 C1307 0.930 . S
H1300 C1310 0.930 . S
H1301 C1311 0.930 . S
C1302 H1296 0.930 . S
C1302 C1303 1.355 . S
C1302 C1304 1.415 . S
C1303 C1302 1.355 . S
C1303 C1305 1.419 . S
C1304 C1302 1.415 . S
C1304 C1309 1.425 . S
C1304 C1311 1.409 . S
C1305 H1297 0.930 . S
C1305 C1303 1.419 . S
C1305 C1306 1.362 . S
C1306 H1298 0.930 . S
C1306 C1305 1.362 . S
C1306 C1309 1.409 . S
C1307 H1299 0.930 . S
C1307 C1308 1.355 . S
C1307 C1309 1.415 . S
C1308 C1307 1.355 . S
C1308 C1310 1.419 . S
C1309 C1304 1.425 . S
C1309 C1306 1.409 . S
C1309 C1307 1.415 . S
C1310 H1300 0.930 . S
C1310 C1308 1.419 . S
C1310 C1311 1.362 . S
C1311 H1301 0.930 . S
C1311 C1304 1.409 . S
C1311 C1310 1.362 . S
H1312 C1318 0.930 . S
H1313 C1321 0.930 . S
H1314 C1322 0.930 . S
H1315 C1323 0.930 . S
H1316 C1326 0.930 . S
H1317 C1327 0.930 . S
C1318 H1312 0.930 . S
C1318 C1319 1.355 . S
C1318 C1320 1.415 . S
C1319 C1318 1.355 . S
C1319 C1321 1.419 . S
C1320 C1318 1.415 . S
C1320 C1325 1.425 . S
C1320 C1327 1.409 . S
C1321 H1313 0.930 . S
C1321 C1319 1.419 . S
C1321 C1322 1.362 . S
C1322 H1314 0.930 . S
C1322 C1321 1.362 . S
C1322 C1325 1.409 . S
C1323 H1315 0.930 . S
C1323 C1324 1.355 . S
C1323 C1325 1.415 . S
C1324 C1323 1.355 . S
C1324 C1326 1.419 . S
C1325 C1320 1.425 . S
C1325 C1322 1.409 . S
C1325 C1323 1.415 . S
C1326 H1316 0.930 . S
C1326 C1324 1.419 . S
C1326 C1327 1.362 . S
C1327 H1317 0.930 . S
C1327 C1320 1.409 . S
C1327 C1326 1.362 . S
H1328 C1334 0.930 . S
H1329 C1337 0.930 . S
H1330 C1338 0.930 . S
H1331 C1339 0.930 . S
H1332 C1342 0.930 . S
H1333 C1343 0.930 . S
C1334 H1328 0.930 . S
C1334 C1335 1.355 . S
C1334 C1336 1.415 . S
C1335 C1334 1.355 . S
C1335 C1337 1.419 . S
C1336 C1334 1.415 . S
C1336 C1341 1.425 . S
C1336 C1343 1.409 . S
C1337 H1329 0.930 . S
C1337 C1335 1.419 . S
C1337 C1338 1.362 . S
C1338 H1330 0.930 . S
C1338 C1337 1.362 . S
C1338 C1341 1.409 . S
C1339 H1331 0.930 . S
C1339 C1340 1.355 . S
C1339 C1341 1.415 . S
C1340 C1339 1.355 . S
C1340 C1342 1.419 . S
C1341 C1336 1.425 . S
C1341 C1338 1.409 . S
C1341 C1339 1.415 . S
C1342 H1332 0.930 . S
C1342 C1340 1.419 . S
C1342 C1343 1.362 . S
C1343 H1333 0.930 . S
C1343 C1336 1.409 . S
C1343 C1342 1.362 . S
H1344 C1350 0.930 . S
H1345 C1353 0.930 . S
H1346 C1354 0.930 . S
H1347 C1355 0.930 . S
H1348 C1358 0.930 . S
H1349 C1359 0.930 . S
C1350 H1344 0.930 . S
C1350 C1351 1.355 . S
C1350 C1352 1.415 . S
C1351 C1350 1.355 . S
C1351 C1353 1.419 1_554 S
C1352 C1350 1.415 . S
C1352 C1357 1.425 1_554 S
C1352 C1359 1.409 . S
C1353 H1345 0.930 . S
C1353 C1351 1.419 1_556 S
C1353 C1354 1.362 . S
C1354 H1346 0.930 . S
C1354 C1353 1.362 . S
C1354 C1357 1.409 . S
C1355 H1347 0.930 . S
C1355 C1356 1.355 . S
C1355 C1357 1.415 . S
C1356 C1355 1.355 . S
C1356 C1358 1.419 . S
C1357 C1352 1.425 1_556 S
C1357 C1354 1.409 . S
C1357 C1355 1.415 . S
C1358 H1348 0.930 . S
C1358 C1356 1.419 . S
C1358 C1359 1.362 1_556 S
C1359 H1349 0.930 . S
C1359 C1352 1.409 . S
C1359 C1358 1.362 1_554 S
H1360 C1366 0.930 . S
H1361 C1369 0.930 . S
H1362 C1370 0.930 . S
H1363 C1371 0.930 . S
H1364 C1374 0.930 . S
H1365 C1375 0.930 . S
C1366 H1360 0.930 . S
C1366 C1367 1.355 . S
C1366 C1368 1.415 . S
C1367 C1366 1.355 . S
C1367 C1369 1.419 . S
C1368 C1366 1.415 . S
C1368 C1373 1.425 . S
C1368 C1375 1.409 . S
C1369 H1361 0.930 . S
C1369 C1367 1.419 . S
C1369 C1370 1.362 . S
C1370 H1362 0.930 . S
C1370 C1369 1.362 . S
C1370 C1373 1.409 . S
C1371 H1363 0.930 . S
C1371 C1372 1.355 . S
C1371 C1373 1.415 . S
C1372 C1371 1.355 . S
C1372 C1374 1.419 . S
C1373 C1368 1.425 . S
C1373 C1370 1.409 . S
C1373 C1371 1.415 . S
C1374 H1364 0.930 . S
C1374 C1372 1.419 . S
C1374 C1375 1.362 . S
C1375 H1365 0.930 . S
C1375 C1368 1.409 . S
C1375 C1374 1.362 . S
H1376 C1382 0.930 . S
H1377 C1385 0.930 . S
H1378 C1386 0.930 . S
H1379 C1387 0.930 . S
H1380 C1390 0.930 . S
H1381 C1391 0.930 . S
C1382 H1376 0.930 . S
C1382 C1383 1.355 . S
C1382 C1384 1.415 . S
C1383 C1382 1.355 . S
C1383 C1385 1.419 . S
C1384 C1382 1.415 . S
C1384 C1389 1.425 . S
C1384 C1391 1.409 . S
C1385 H1377 0.930 . S
C1385 C1383 1.419 . S
C1385 C1386 1.362 . S
C1386 H1378 0.930 . S
C1386 C1385 1.362 . S
C1386 C1389 1.409 . S
C1387 H1379 0.930 . S
C1387 C1388 1.355 . S
C1387 C1389 1.415 . S
C1388 C1387 1.355 . S
C1388 C1390 1.419 . S
C1389 C1384 1.425 . S
C1389 C1386 1.409 . S
C1389 C1387 1.415 . S
C1390 H1380 0.930 . S
C1390 C1388 1.419 . S
C1390 C1391 1.362 . S
C1391 H1381 0.930 . S
C1391 C1384 1.409 . S
C1391 C1390 1.362 . S
H1392 C1398 0.930 . S
H1393 C1401 0.930 . S
H1394 C1402 0.930 . S
H1395 C1403 0.930 . S
H1396 C1406 0.930 . S
H1397 C1407 0.930 . S
C1398 H1392 0.930 . S
C1398 C1399 1.355 . S
C1398 C1400 1.415 . S
C1399 C1398 1.355 . S
C1399 C1401 1.419 . S
C1400 C1398 1.415 . S
C1400 C1405 1.425 . S
C1400 C1407 1.409 . S
C1401 H1393 0.930 . S
C1401 C1399 1.419 . S
C1401 C1402 1.362 . S
C1402 H1394 0.930 . S
C1402 C1401 1.362 . S
C1402 C1405 1.409 . S
C1403 H1395 0.930 . S
C1403 C1404 1.355 . S
C1403 C1405 1.415 . S
C1404 C1403 1.355 . S
C1404 C1406 1.419 . S
C1405 C1400 1.425 . S
C1405 C1402 1.409 . S
C1405 C1403 1.415 . S
C1406 H1396 0.930 . S
C1406 C1404 1.419 . S
C1406 C1407 1.362 . S
C1407 H1397 0.930 . S
C1407 C1400 1.409 . S
C1407 C1406 1.362 . S
H1408 C1414 0.930 1_556 S
H1409 C1417 0.930 . S
H1410 C1418 0.930 . S
H1411 C1419 0.930 . S
H1412 C1422 0.930 . S
H1413 C1423 0.930 . S
C1414 H1408 0.930 1_554 S
C1414 C1415 1.355 . S
C1414 C1416 1.415 1_554 S
C1415 C1414 1.355 . S
C1415 C1417 1.419 . S
C1416 C1414 1.415 1_556 S
C1416 C1421 1.425 . S
C1416 C1423 1.409 . S
C1417 H1409 0.930 . S
C1417 C1415 1.419 . S
C1417 C1418 1.362 . S
C1418 H1410 0.930 . S
C1418 C1417 1.362 . S
C1418 C1421 1.409 1_554 S
C1419 H1411 0.930 . S
C1419 C1420 1.355 . S
C1419 C1421 1.415 . S
C1420 C1419 1.355 . S
C1420 C1422 1.419 . S
C1421 C1416 1.425 . S
C1421 C1418 1.409 1_556 S
C1421 C1419 1.415 . S
C1422 H1412 0.930 . S
C1422 C1420 1.419 . S
C1422 C1423 1.362 . S
C1423 H1413 0.930 . S
C1423 C1416 1.409 . S
C1423 C1422 1.362 . S
H1424 C1430 0.930 . S
H1425 C1433 0.930 . S
H1426 C1434 0.930 . S
H1427 C1435 0.930 . S
H1428 C1438 0.930 . S
H1429 C1439 0.930 . S
C1430 H1424 0.930 . S
C1430 C1431 1.355 . S
C1430 C1432 1.415 . S
C1431 C1430 1.355 . S
C1431 C1433 1.419 . S
C1432 C1430 1.415 . S
C1432 C1437 1.425 . S
C1432 C1439 1.409 . S
C1433 H1425 0.930 . S
C1433 C1431 1.419 . S
C1433 C1434 1.362 . S
C1434 H1426 0.930 . S
C1434 C1433 1.362 . S
C1434 C1437 1.409 . S
C1435 H1427 0.930 . S
C1435 C1436 1.355 . S
C1435 C1437 1.415 . S
C1436 C1435 1.355 . S
C1436 C1438 1.419 . S
C1437 C1432 1.425 . S
C1437 C1434 1.409 . S
C1437 C1435 1.415 . S
C1438 H1428 0.930 . S
C1438 C1436 1.419 . S
C1438 C1439 1.362 . S
C1439 H1429 0.930 . S
C1439 C1432 1.409 . S
C1439 C1438 1.362 . S
H1440 C1446 0.930 . S
H1441 C1449 0.930 . S
H1442 C1450 0.930 . S
H1443 C1451 0.930 . S
H1444 C1454 0.930 . S
H1445 C1455 0.930 . S
C1446 H1440 0.930 . S
C1446 C1447 1.355 . S
C1446 C1448 1.415 . S
C1447 C1446 1.355 . S
C1447 C1449 1.419 . S
C1448 C1446 1.415 . S
C1448 C1453 1.425 . S
C1448 C1455 1.409 . S
C1449 H1441 0.930 . S
C1449 C1447 1.419 . S
C1449 C1450 1.362 . S
C1450 H1442 0.930 . S
C1450 C1449 1.362 . S
C1450 C1453 1.409 . S
C1451 H1443 0.930 . S
C1451 C1452 1.355 . S
C1451 C1453 1.415 . S
C1452 C1451 1.355 . S
C1452 C1454 1.419 . S
C1453 C1448 1.425 . S
C1453 C1450 1.409 . S
C1453 C1451 1.415 . S
C1454 H1444 0.930 . S
C1454 C1452 1.419 . S
C1454 C1455 1.362 . S
C1455 H1445 0.930 . S
C1455 C1448 1.409 . S
C1455 C1454 1.362 . S
H1456 C1462 0.930 . S
H1457 C1465 0.930 . S
H1458 C1466 0.930 . S
H1459 C1467 0.930 . S
H1460 C1470 0.930 . S
H1461 C1471 0.930 . S
C1462 H1456 0.930 . S
C1462 C1463 1.355 . S
C1462 C1464 1.415 . S
C1463 C1462 1.355 . S
C1463 C1465 1.419 . S
C1464 C1462 1.415 . S
C1464 C1469 1.425 . S
C1464 C1471 1.409 . S
C1465 H1457 0.930 . S
C1465 C1463 1.419 . S
C1465 C1466 1.362 . S
C1466 H1458 0.930 . S
C1466 C1465 1.362 . S
C1466 C1469 1.409 . S
C1467 H1459 0.930 . S
C1467 C1468 1.355 . S
C1467 C1469 1.415 . S
C1468 C1467 1.355 . S
C1468 C1470 1.419 . S
C1469 C1464 1.425 . S
C1469 C1466 1.409 . S
C1469 C1467 1.415 . S
C1470 H1460 0.930 . S
C1470 C1468 1.419 . S
C1470 C1471 1.362 . S
C1471 H1461 0.930 . S
C1471 C1464 1.409 . S
C1471 C1470 1.362 . S
C455 C7 0.616 . S
C460 C189 0.662 . S
C471 C357 1.214 . S
C476 C21 1.226 . S
C487 C35 1.887 . S
C492 C217 1.845 . S
C503 C49 1.847 . S
C508 C343 1.858 . S
C519 C63 1.155 . S
C524 C245 1.141 . S
C535 C77 1.041 . S
C540 C315 1.032 . S
C551 C91 0.918 . S
C556 C273 0.923 . S
C567 C441 0.712 . S
C572 C105 0.781 . S
C583 C301 1.223 . S
C588 C119 1.194 . S
C599 C133 0.911 . S
C604 C259 0.976 . S
C615 C329 0.929 . S
C620 C147 0.910 . S
C631 C161 1.878 . S
C636 C231 1.838 . S
C647 C203 1.197 . S
C652 C175 1.161 . S
C663 C287 0.625 . S
C668 C399 0.663 . S
C679 C413 0.742 . S
C684 C371 0.780 . S
C695 C427 1.849 . S
C700 C385 1.892 . S
C711 C3 1.479 . S
C716 C23 1.461 . S
C727 C36 1.568 . S
C732 C22 1.569 . S
C743 C45 1.246 . S
C748 C31 1.286 . S
C759 C51 1.668 . S
C764 C8 1.699 . S
C775 C101 1.470 . S
C780 C65 1.476 . S
C791 C79 1.678 . S
C796 C59 1.704 . S
C807 C87 1.396 . S
C812 C73 1.386 . S
C823 C92 1.737 . S
C828 C107 1.695 . S
C839 C134 1.722 . S
C844 C9 1.719 . S
C855 C120 1.539 . S
C860 C50 1.570 . S
C871 C149 1.660 . S
C876 C17 1.674 . S
C887 C387 1.677 . S
C892 C106 1.688 . S
C903 C400 1.699 . S
C908 C37 1.655 . S
C919 C162 1.568 . S
C924 C64 1.564 . S
C935 C93 1.665 . S
C940 C171 1.693 . S
C951 C204 1.461 . S
C956 C185 1.447 . S
C967 C219 1.623 . S
C972 C205 1.599 . S
C983 C227 1.309 . S
C988 C213 1.340 . S
C999 C191 1.691 . S
C1004 C232 1.699 . S
C1015 C246 1.428 . S
C1020 C283 1.404 . S
C1031 C241 1.685 . S
C1036 C260 1.698 . S
C1047 C269 1.411 . S
C1052 C255 1.389 . S
C1063 C275 1.695 . S
C1068 C288 1.697 . S
C1079 C190 1.703 . S
C1084 C317 1.698 . S
C1095 C303 1.572 . S
C1100 C233 1.585 . S
C1111 C330 1.681 . S
C1116 C199 1.676 . S
C1127 C428 1.688 . S
C1132 C289 1.676 . S
C1143 C443 1.689 . S
C1148 C218 1.698 . S
C1159 C247 1.616 . S
C1164 C345 1.610 . S
C1175 C353 1.697 . S
C1180 C274 1.704 . S
C1191 C177 1.471 . S
C1196 C367 1.475 . S
C1207 C386 1.570 . S
C1212 C176 1.537 . S
C1223 C157 1.248 . S
C1228 C381 1.260 . S
C1239 C163 1.679 . S
C1244 C372 1.688 . S
C1255 C121 1.461 . S
C1260 C395 1.479 . S
C1271 C135 1.665 . S
C1276 C115 1.693 . S
C1287 C143 1.427 . S
C1292 C129 1.425 . S
C1303 C148 1.731 . S
C1308 C401 1.682 . S
C1319 C373 1.696 . S
C1324 C78 1.737 . S
C1335 C358 1.462 . S
C1340 C409 1.450 . S
C1351 C359 1.616 . S
C1356 C429 1.608 . S
C1367 C423 1.310 . S
C1372 C339 1.332 . S
C1383 C344 1.705 . S
C1388 C415 1.690 . S
C1399 C437 1.405 . S
C1404 C302 1.423 . S
C1415 C297 1.695 . S
C1420 C316 1.701 . S
C1431 C325 1.409 . S
C1436 C311 1.378 . S
C1447 C331 1.688 . S
C1452 C442 1.690 . S
C1463 C414 1.670 . S
C1468 C261 1.660 . S
