# Generated by pormake.
# Topology wju, (5)-cn, num edge types: 1
# Building blocks:
#     Node 0, Type 0, BuildingBlock: XOMCOT_clean_sbu_1, # of connection points: 5
#     Node 1, Type 0, BuildingBlock: XOMCOT_clean_sbu_1, # of connection points: 5
#     Node 2, Type 0, BuildingBlock: XOMCOT_clean_sbu_1, # of connection points: 5
#     Node 3, Type 0, BuildingBlock: XOMCOT_clean_sbu_1, # of connection points: 5
#     Node 4, Type 0, BuildingBlock: XOMCOT_clean_sbu_1, # of connection points: 5
#     Node 5, Type 0, BuildingBlock: XOMCOT_clean_sbu_1, # of connection points: 5
#     Node 6, Type 0, BuildingBlock: XOMCOT_clean_sbu_1, # of connection points: 5
#     Node 7, Type 0, BuildingBlock: XOMCOT_clean_sbu_1, # of connection points: 5
#     Node 8, Type 0, BuildingBlock: XOMCOT_clean_sbu_1, # of connection points: 5
#     Node 9, Type 0, BuildingBlock: XOMCOT_clean_sbu_1, # of connection points: 5
#     Node 10, Type 0, BuildingBlock: XOMCOT_clean_sbu_1, # of connection points: 5
#     Node 11, Type 0, BuildingBlock: XOMCOT_clean_sbu_1, # of connection points: 5
#     Edge 12, Type (0, 0), None
#     Edge 13, Type (0, 0), None
#     Edge 14, Type (0, 0), None
#     Edge 15, Type (0, 0), None
#     Edge 16, Type (0, 0), None
#     Edge 17, Type (0, 0), None
#     Edge 18, Type (0, 0), None
#     Edge 19, Type (0, 0), None
#     Edge 20, Type (0, 0), None
#     Edge 21, Type (0, 0), None
#     Edge 22, Type (0, 0), None
#     Edge 23, Type (0, 0), None
#     Edge 24, Type (0, 0), None
#     Edge 25, Type (0, 0), None
#     Edge 26, Type (0, 0), None
#     Edge 27, Type (0, 0), None
#     Edge 28, Type (0, 0), None
#     Edge 29, Type (0, 0), None
#     Edge 30, Type (0, 0), None
#     Edge 31, Type (0, 0), None
#     Edge 32, Type (0, 0), None
#     Edge 33, Type (0, 0), None
#     Edge 34, Type (0, 0), None
#     Edge 35, Type (0, 0), None
#     Edge 36, Type (0, 0), None
#     Edge 37, Type (0, 0), None
#     Edge 38, Type (0, 0), None
#     Edge 39, Type (0, 0), None
#     Edge 40, Type (0, 0), None
#     Edge 41, Type (0, 0), None
# Relax obj value: 0.087
# Max RMSD: 0.114
# Mean RMSD: 0.114
data_MOF--net-wju--node1-XOMCOT_clean_sbu_1--edge1-none
_symmetry_space_group_name_H-M    P1
_symmetry_Int_Tables_number       1
_symmetry_cell_setting            triclinic
loop_
_symmetry_equiv_pos_as_xyz
'x, y, z'
_cell_length_a     13.479832
_cell_length_b     13.479985
_cell_length_c     55.43253
_cell_angle_alpha  90.002354
_cell_angle_beta   89.998855
_cell_angle_gamma 120.00065
loop_
_atom_site_label
_atom_site_type_symbol
_atom_site_fract_x
_atom_site_fract_y
_atom_site_fract_z
_atom_type_partial_charge
C0 C 0.23787 0.20532 0.14732 0.0
C1 C 0.23381 0.21597 0.17181 0.0
N2 N 0.27602 0.15487 0.18187 0.0
N3 N 0.28395 0.13884 0.14166 0.0
C4 C 0.30396 0.10662 0.16351 0.0
H5 H 0.21331 0.24909 0.13447 0.0
Co6 Co 0.32525 0.13275 0.10885 0.0
C7 C 0.51802 0.06871 0.1122 0.0
O8 O 0.58836 0.17089 0.10355 0.0
N9 N 0.36335 0.12844 0.07559 0.0
C10 C 0.43682 0.17251 0.03824 0.0
C11 C 0.44566 0.21151 0.06154 0.0
C12 C 0.3087 0.03803 0.06038 0.0
N13 N 0.35088 0.06385 0.03775 0.0
O14 O 0.16598 1.01118 0.10302 0.0
H15 H 0.50917 0.29598 0.06757 0.0
H16 H 0.23826 0.95534 0.06562 0.0
O17 O 0.40971 0.03832 0.11585 0.0
C18 C 0.10406 0.0587 0.09838 0.0
O19 O 0.15513 0.16904 0.09435 0.0
N20 N 0.45539 0.26553 0.11436 0.0
C21 C 0.50698 0.46564 0.13748 0.0
C22 C 0.55389 0.39988 0.14592 0.0
C23 C 0.52169 0.29539 0.13471 0.0
C24 C 0.4145 0.33248 0.10572 0.0
C25 C 0.42958 0.42602 0.11837 0.0
H26 H 0.54318 0.23646 0.1432 0.0
H27 H 0.35659 0.30534 0.09063 0.0
H28 H 0.34276 0.05379 0.16593 0.0
H29 H 0.20124 0.26341 0.18151 0.0
H30 H 0.49035 0.21899 1.02304 0.0
H31 H 0.61583 0.43028 0.16047 0.0
H32 H 0.39419 0.47645 0.11104 0.0
C33 C 0.05945 0.22477 0.48064 0.0
C34 C 0.04468 0.22066 0.50513 0.0
N35 N 0.14797 0.26272 0.5152 0.0
N36 N 0.172 0.27073 0.47499 0.0
C37 C 0.22418 0.29062 0.49684 0.0
H38 H 0.99114 0.2003 0.46778 0.0
Co39 Co 0.21942 0.31201 0.44218 0.0
C40 C 0.47624 0.50475 0.44553 0.0
O41 O 0.44441 0.57509 0.43687 0.0
N42 N 0.26185 0.35008 0.40892 0.0
C43 C 0.29131 0.42355 0.37157 0.0
C44 C 0.26118 0.43243 0.39487 0.0
C45 C 0.29752 0.29535 0.39371 0.0
N46 N 0.31391 0.33753 0.37107 0.0
O47 O 0.18169 0.15274 0.43636 0.0
H48 H 0.24031 0.49601 0.4009 0.0
H49 H 0.30967 0.22485 0.39895 0.0
O50 O 0.39831 0.39645 0.44918 0.0
C51 C 0.07225 0.09082 0.43171 0.0
O52 O 1.01299 0.14191 0.42768 0.0
N53 N 0.21683 0.44217 0.44769 0.0
C54 C 0.06836 0.49384 0.4708 0.0
C55 C 0.181 0.54067 0.47925 0.0
C56 C 0.25327 0.50845 0.46804 0.0
C57 C 0.10901 0.40137 0.43903 0.0
C58 C 1.03057 0.41651 0.45168 0.0
H59 H 0.33366 0.52988 0.47653 0.0
H60 H 0.07822 0.34344 0.42394 0.0
H61 H 0.31579 0.32927 0.49927 0.0
H62 H 0.96466 0.18813 0.51482 0.0
H63 H 0.29841 0.4771 0.35636 0.0
H64 H 0.21255 0.60257 0.4938 0.0
H65 H 0.94477 0.38119 0.44434 0.0
C66 C 0.86157 0.04606 0.81397 0.0
C67 C 0.85092 0.03128 0.83846 0.0
N68 N 0.91212 0.13456 0.84853 0.0
N69 N 0.92817 0.15861 0.80833 0.0
C70 C 0.96045 0.21078 0.83017 0.0
H71 H 0.81775 0.97776 0.80111 0.0
Co72 Co 0.93432 0.20604 0.77551 0.0
C73 C 0.9984 0.46286 0.77887 0.0
O74 O 0.89623 0.43102 0.77021 0.0
N75 N 0.93868 0.24847 0.74225 0.0
C76 C 0.89467 0.27794 0.7049 0.0
C77 C 0.85567 0.24783 0.7282 0.0
C78 C 1.02907 0.2841 0.72704 0.0
N79 N 1.00328 0.3005 0.70441 0.0
O80 O 0.05586 0.1683 0.76969 0.0
H81 H 0.77123 0.22699 0.73424 0.0
H82 H 0.11171 0.29622 0.73228 0.0
O83 O 1.02877 0.38493 0.78252 0.0
C84 C 1.00832 0.05886 0.76504 0.0
O85 O 0.89799 0.99961 0.76101 0.0
N86 N 0.80156 0.20345 0.78102 0.0
C87 C 0.60143 0.05497 0.80413 0.0
C88 C 0.66724 0.16762 0.81258 0.0
C89 C 0.77173 0.23989 0.80137 0.0
C90 C 0.73454 0.09563 0.77237 0.0
C91 C 0.64096 1.01719 0.78501 0.0
H92 H 0.8307 0.32028 0.80986 0.0
H93 H 0.76167 0.06484 0.75727 0.0
H94 H 1.0134 0.30239 0.83261 0.0
H95 H 0.80341 0.95126 0.84815 0.0
H96 H 0.84822 0.28505 0.6897 0.0
H97 H 0.63689 0.19916 0.82714 0.0
H98 H 0.59048 0.93139 0.77767 0.0
C99 C 0.84297 0.84871 0.14731 0.0
C100 C 0.84699 0.838 0.1718 0.0
N101 N 0.80449 0.89883 0.18187 0.0
N102 N 0.79665 0.91498 0.14167 0.0
C103 C 0.77645 0.94702 0.16351 0.0
H104 H 0.86776 0.80514 0.13446 0.0
Co105 Co 0.75533 0.92103 0.10885 0.0
C106 C 0.56246 0.98494 0.11221 0.0
O107 O 0.4921 0.88271 0.10358 0.0
N108 N 0.71722 0.92532 0.07559 0.0
C109 C 0.6437 0.88122 0.03824 0.0
C110 C 0.63486 0.84226 0.06155 0.0
C111 C 0.77191 1.01569 0.06038 0.0
N112 N 0.72969 0.98986 0.03774 0.0
O113 O 0.91458 0.04266 0.10303 0.0
H114 H 0.57132 0.75781 0.06759 0.0
H115 H 0.8424 0.09836 0.06561 0.0
O116 O 0.67079 1.01537 0.11585 0.0
C117 C 0.97653 0.99518 0.09837 0.0
O118 O 0.92547 0.88487 0.0943 0.0
N119 N 0.62522 0.78818 0.11436 0.0
C120 C 0.57435 0.58841 0.13752 0.0
C121 C 0.5271 0.65388 0.14595 0.0
C122 C 0.55897 0.75825 0.13471 0.0
C123 C 0.66632 0.72138 0.10572 0.0
C124 C 0.65166 0.62806 0.1184 0.0
H125 H 0.53726 0.81705 0.14319 0.0
H126 H 0.7241 0.74853 0.0906 0.0
H127 H 0.73746 0.99967 0.16594 0.0
H128 H 0.87975 0.79071 0.1815 0.0
H129 H 0.59014 0.83474 1.02304 0.0
H130 H 0.46516 0.62336 0.1605 0.0
H131 H 0.68722 0.57777 0.11107 0.0
C132 C 1.02116 0.82988 0.48066 0.0
C133 C 1.03586 0.83385 0.50515 0.0
N134 N 0.93248 0.79119 0.51521 0.0
N135 N 0.90857 0.78344 0.47501 0.0
C136 C 0.85628 0.76311 0.49685 0.0
H137 H 0.08956 0.85477 0.46781 0.0
Co138 Co 0.86124 0.7421 0.44219 0.0
C139 C 0.60446 0.54919 0.44555 0.0
O140 O 0.63634 0.47883 0.43692 0.0
N141 N 0.81885 0.70395 0.40893 0.0
C142 C 0.7895 0.63044 0.37158 0.0
C143 C 0.81967 0.62165 0.39489 0.0
C144 C 0.78306 0.75855 0.39372 0.0
N145 N 0.76672 0.71634 0.37108 0.0
O146 O 0.89881 0.90133 0.43636 0.0
H147 H 0.84068 0.55819 0.40093 0.0
H148 H 0.77079 0.82898 0.39895 0.0
O149 O 0.68234 0.65753 0.44918 0.0
C150 C 1.00824 0.96329 0.4317 0.0
O151 O 0.06751 0.91226 0.42764 0.0
N152 N 0.86402 0.61202 0.4477 0.0
C153 C 1.01295 0.56121 0.47086 0.0
C154 C 0.90021 0.51389 0.47929 0.0
C155 C 0.8277 0.54574 0.46805 0.0
C156 C 0.97194 0.6532 0.43907 0.0
C157 C 0.05063 0.6386 0.45176 0.0
H158 H 0.74716 0.52397 0.47652 0.0
H159 H 1.00257 0.71097 0.42396 0.0
H160 H 0.76462 0.72398 0.49927 0.0
H161 H 0.11589 0.86665 0.51486 0.0
H162 H 0.78249 0.5769 0.35638 0.0
H163 H 0.8688 0.45191 0.49383 0.0
H164 H 0.1365 0.67422 0.44444 0.0
C165 C 0.21817 1.00776 0.814 0.0
C166 C 0.22888 1.02245 0.83849 0.0
N167 N 0.16816 0.91907 0.84855 0.0
N168 N 0.15202 0.89517 0.80834 0.0
C169 C 0.12005 0.84287 0.83018 0.0
H170 H 0.26168 0.07616 0.80115 0.0
Co171 Co 0.14604 0.84785 0.77552 0.0
C172 C 0.08217 0.59108 0.77888 0.0
O173 O 0.18441 0.62295 0.77025 0.0
N174 N 0.14181 0.80547 0.74226 0.0
C175 C 0.18596 0.77613 0.70491 0.0
C176 C 0.22494 0.80632 0.72822 0.0
C177 C 0.0514 0.76963 0.72705 0.0
N178 N 0.07727 0.7533 0.70442 0.0
O179 O 1.02438 0.88542 0.76969 0.0
H180 H 0.30942 0.82737 0.73425 0.0
H181 H 0.96868 0.75732 0.73229 0.0
O182 O 0.05172 0.66896 0.78252 0.0
C183 C 0.07184 0.99485 0.76503 0.0
O184 O 0.18216 0.05413 0.76097 0.0
N185 N 0.27891 0.85064 0.78104 0.0
C186 C 0.47865 0.99956 0.8042 0.0
C187 C 0.41323 0.88683 0.81262 0.0
C188 C 0.30886 0.81431 0.80139 0.0
C189 C 0.34565 0.95856 0.77241 0.0
C190 C 0.43893 0.03725 0.7851 0.0
H191 H 0.2501 0.73378 0.80986 0.0
H192 H 0.31849 0.98919 0.7573 0.0
H193 H 0.06752 0.75121 0.83259 0.0
H194 H 0.27611 0.10247 0.84819 0.0
H195 H 0.23249 0.76914 0.68971 0.0
H196 H 0.4438 0.85541 0.82716 0.0
H197 H 0.48918 0.12312 0.77778 0.0
C198 C 0.86101 0.82839 0.57468 0.0
C199 C 0.85042 0.83257 0.55019 0.0
N200 N 0.91209 0.79102 0.54012 0.0
N201 N 0.92796 0.78283 0.58032 0.0
C202 C 0.96051 0.76325 0.55848 0.0
H203 H 0.81696 0.85259 0.58753 0.0
Co204 Co 0.93447 0.74175 0.61314 0.0
C205 C 0.99842 0.54899 0.60974 0.0
O206 O 0.8963 0.4787 0.61843 0.0
N207 N 0.93923 0.70383 0.6464 0.0
C208 C 0.89566 0.63 0.68372 0.0
C209 C 0.85653 0.62106 0.66043 0.0
C210 C 1.02958 0.7589 0.6616 0.0
N211 N 1.00405 0.71647 0.68423 0.0
O212 O 0.056 0.90106 0.6189 0.0
H213 H 0.77224 0.55714 0.65439 0.0
H214 H 0.11202 0.82979 0.65638 0.0
O215 O 1.02884 0.65731 0.60609 0.0
C216 C 1.00837 0.96291 0.62352 0.0
O217 O 0.89802 0.91173 0.62756 0.0
N218 N 0.80173 0.61153 0.6077 0.0
C219 C 0.60141 0.55984 0.58469 0.0
C220 C 0.66716 0.51306 0.57618 0.0
C221 C 0.77174 0.5453 0.58734 0.0
C222 C 0.73474 0.6522 0.61642 0.0
C223 C 0.64102 0.63704 0.60383 0.0
H224 H 0.83067 0.52397 0.57879 0.0
H225 H 0.76198 0.71008 0.63152 0.0
H226 H 1.01378 0.72494 0.55604 0.0
H227 H 0.80266 0.8648 0.5405 0.0
H228 H 0.84945 0.57619 0.69892 0.0
H229 H 0.63671 0.45124 0.56161 0.0
H230 H 0.59055 0.67227 0.61122 0.0
C231 C 0.05946 0.84757 0.90801 0.0
C232 C 0.0447 0.83698 0.88352 0.0
N233 N 0.14792 0.89866 0.87345 0.0
N234 N 0.17197 0.91452 0.91366 0.0
C235 C 0.22411 0.94708 0.89181 0.0
H236 H 0.9912 0.80351 0.92086 0.0
Co237 Co 0.21956 0.92102 0.94647 0.0
C238 C 0.47626 0.98497 0.94308 0.0
O239 O 0.44444 0.88285 0.95176 0.0
N240 N 0.26223 0.92577 0.97973 0.0
C241 C 0.29247 0.8822 1.01706 0.0
C242 C 0.26227 0.84307 0.99377 0.0
C243 C 0.29755 1.01614 0.99494 0.0
N244 N 0.31443 0.99061 1.01756 0.0
O245 O 0.18177 0.04255 0.95223 0.0
H246 H 0.24187 0.75877 0.98773 0.0
H247 H 0.30914 0.09858 0.98971 0.0
O248 O 0.39837 1.01539 0.93942 0.0
C249 C 0.0723 0.99492 0.95685 0.0
O250 O 1.01312 0.88457 0.96088 0.0
N251 N 0.21703 0.78828 0.94103 0.0
C252 C 0.0684 0.58795 0.91802 0.0
C253 C 0.18093 0.6537 0.90951 0.0
C254 C 0.25328 0.75829 0.92067 0.0
C255 C 0.10935 0.72129 0.94975 0.0
C256 C 1.03081 0.62757 0.93716 0.0
H257 H 0.33354 0.81722 0.91213 0.0
H258 H 0.07872 0.74853 0.96485 0.0
H259 H 0.31568 1.00035 0.88938 0.0
H260 H 0.96472 0.78922 0.87382 0.0
H261 H 0.30006 0.83599 0.03225 0.0
H262 H 0.2123 0.62325 0.89494 0.0
H263 H 0.9451 0.5771 0.94455 0.0
C264 C 0.23844 0.04601 0.24133 0.0
C265 C 0.23432 0.03129 0.21684 0.0
N266 N 0.27601 0.13455 0.20678 0.0
N267 N 0.28411 0.15852 0.24698 0.0
C268 C 0.30383 0.21071 0.22514 0.0
H269 H 0.21415 0.97771 0.25418 0.0
Co270 Co 0.32522 0.20608 0.2798 0.0
C271 C 0.51801 0.46277 0.2764 0.0
O272 O 0.58831 0.43094 0.28509 0.0
N273 N 0.36317 0.24873 0.31306 0.0
C274 C 0.43699 0.27893 0.35039 0.0
C275 C 0.44588 0.24869 0.3271 0.0
C276 C 0.3082 0.28414 0.32826 0.0
N277 N 0.35062 0.301 0.35089 0.0
O278 O 0.16592 0.16832 0.28556 0.0
H279 H 0.50972 0.22821 0.32106 0.0
H280 H 0.23739 0.29581 0.32303 0.0
O281 O 0.40969 0.38489 0.27275 0.0
C282 C 0.10406 0.05885 0.29019 0.0
O283 O 0.15522 0.99967 0.29422 0.0
N284 N 0.45541 0.20351 0.27435 0.0
C285 C 0.50703 0.05483 0.25134 0.0
C286 C 0.55389 0.16737 0.24284 0.0
C287 C 0.52167 0.23975 0.254 0.0
C288 C 0.41465 0.09581 0.28307 0.0
C289 C 0.42975 1.01724 0.27047 0.0
H290 H 0.54307 0.32003 0.24546 0.0
H291 H 0.35678 0.06519 0.29817 0.0
H292 H 0.34227 0.3023 0.22272 0.0
H293 H 0.20205 0.95131 0.20714 0.0
H294 H 0.49079 0.28648 0.36558 0.0
H295 H 0.61576 0.19874 0.22828 0.0
H296 H 0.39445 0.93151 0.27785 0.0
C297 C 0.21871 0.2244 0.57465 0.0
C298 C 0.22937 0.22038 0.55015 0.0
N299 N 0.16818 0.26252 0.5401 0.0
N300 N 0.15221 0.27045 0.58031 0.0
C301 C 0.11998 0.29048 0.55847 0.0
H302 H 0.26246 0.19978 0.58749 0.0
Co303 Co 0.14587 0.3116 0.61313 0.0
C304 C 0.08215 0.50453 0.60973 0.0
O305 O 0.18434 0.57485 0.61838 0.0
N306 N 0.14125 0.3496 0.64639 0.0
C307 C 0.18498 0.42345 0.68371 0.0
C308 C 0.22406 0.43228 0.66042 0.0
C309 C 0.05088 0.29471 0.6616 0.0
N310 N 0.0765 0.33715 0.68422 0.0
O311 O 1.02423 0.15233 0.6189 0.0
H312 H 0.30841 0.49605 0.65438 0.0
H313 H 0.96837 0.22394 0.65637 0.0
O314 O 0.05165 0.39619 0.60609 0.0
C315 C 0.07179 0.09043 0.62354 0.0
O316 O 0.18211 0.14155 0.62759 0.0
N317 N 0.27873 0.44173 0.60768 0.0
C318 C 0.47866 0.49256 0.58462 0.0
C319 C 0.41332 0.53983 0.57614 0.0
C320 C 0.30885 0.50797 0.58732 0.0
C321 C 0.34545 0.40067 0.61638 0.0
C322 C 0.43886 0.41527 0.60374 0.0
H323 H 0.25013 0.52965 0.5788 0.0
H324 H 0.31818 0.34293 0.6315 0.0
H325 H 0.06714 0.32926 0.55606 0.0
H326 H 0.27685 0.18787 0.54045 0.0
H327 H 0.23127 0.47724 0.6989 0.0
H328 H 0.44398 0.60174 0.56158 0.0
H329 H 0.48909 0.37972 0.61111 0.0
C330 C 1.02116 0.20528 0.90798 0.0
C331 C 1.03586 0.21595 0.88349 0.0
N332 N 0.93254 0.15477 0.87344 0.0
N333 N 0.90861 0.13877 0.91364 0.0
C334 C 0.85635 0.10655 0.8918 0.0
H335 H 0.08952 0.24902 0.92083 0.0
Co336 Co 0.86111 0.13242 0.94646 0.0
C337 C 0.60445 0.0687 0.94306 0.0
O338 O 0.63632 0.17088 0.95172 0.0
N339 N 0.81849 0.1278 0.97972 0.0
C340 C 0.78834 0.17152 1.01704 0.0
C341 C 0.81858 0.2106 0.99375 0.0
C342 C 0.78304 0.03744 0.99493 0.0
N343 N 0.7662 0.06305 1.01755 0.0
O344 O 0.89874 1.01078 0.95223 0.0
H345 H 0.83912 0.29493 0.9877 0.0
H346 H 0.77134 0.95494 0.98971 0.0
O347 O 0.6823 0.0382 0.93942 0.0
C348 C 1.00819 0.05834 0.95687 0.0
O349 O 0.06739 0.16866 0.96093 0.0
N350 N 0.86384 0.26528 0.94101 0.0
C351 C 1.01294 0.46521 0.91796 0.0
C352 C 0.90032 0.39986 0.90947 0.0
C353 C 0.82772 0.29539 0.92065 0.0
C354 C 0.97162 0.332 0.94971 0.0
C355 C 0.05042 0.42541 0.93708 0.0
H356 H 0.74731 0.23667 0.91213 0.0
H357 H 1.00208 0.30473 0.96484 0.0
H358 H 0.76473 0.05371 0.88938 0.0
H359 H 0.11585 0.26343 0.87379 0.0
H360 H 0.78083 0.2178 0.03223 0.0
H361 H 0.86908 0.43051 0.89492 0.0
H362 H 0.1362 0.47565 0.94445 0.0
C363 C 0.84242 1.00771 0.24133 0.0
C364 C 0.84649 1.02244 0.21684 0.0
N365 N 0.80451 0.91915 0.20678 0.0
N366 N 0.79649 0.89516 0.24698 0.0
C367 C 0.77659 0.84295 0.22514 0.0
H368 H 0.86694 0.07603 0.25418 0.0
Co369 Co 0.75536 0.84762 0.2798 0.0
C370 C 0.56247 0.59096 0.2764 0.0
O371 O 0.49215 0.62282 0.28506 0.0
N372 N 0.7174 0.80498 0.31306 0.0
C373 C 0.64353 0.77476 0.35038 0.0
C374 C 0.63464 0.80496 0.32709 0.0
C375 C 0.77241 0.76964 0.32827 0.0
N376 N 0.72995 0.75276 0.35089 0.0
O377 O 0.91465 0.88529 0.28556 0.0
H378 H 0.57078 0.82539 0.32104 0.0
H379 H 0.84327 0.75804 0.32305 0.0
O380 O 0.67081 0.66882 0.27276 0.0
C381 C 0.97653 0.99475 0.2902 0.0
O382 O 0.9254 0.05393 0.29426 0.0
N383 N 0.62521 0.8503 0.27436 0.0
C384 C 0.57432 0.99936 0.25131 0.0
C385 C 0.52711 0.88677 0.24281 0.0
C386 C 0.559 0.81418 0.254 0.0
C387 C 0.66618 0.95805 0.28307 0.0
C388 C 0.65151 0.03683 0.27045 0.0
H389 H 0.53738 0.73381 0.24547 0.0
H390 H 0.72392 0.98852 0.29819 0.0
H391 H 0.73795 0.75135 0.22271 0.0
H392 H 0.87896 0.10244 0.20714 0.0
H393 H 0.58971 0.76719 0.36557 0.0
H394 H 0.46525 0.85553 0.22825 0.0
H395 H 0.68699 0.12259 0.27782 0.0
loop_
_geom_bond_atom_site_label_1
_geom_bond_atom_site_label_2
_geom_bond_distance
_geom_bond_site_symmetry_2
_ccdc_geom_bond_type
C0 C1 1.351 . S
C0 N3 1.368 . S
C0 H5 0.931 . S
C1 C0 1.351 . S
C1 N2 1.373 . S
C1 H29 0.930 . S
N2 C1 1.373 . S
N2 C4 1.340 . S
N3 C0 1.368 . S
N3 C4 1.321 . S
N3 Co6 2.135 . S
C4 N2 1.340 . S
C4 N3 1.321 . S
C4 H28 0.930 . S
H5 C0 0.931 . S
Co6 N3 2.135 . S
Co6 N9 2.121 . S
Co6 O14 2.055 1_545 S
Co6 O17 2.039 1_545 S
Co6 N20 2.140 . S
C7 O8 1.227 . S
C7 O17 1.265 1_545 S
O8 C7 1.227 . S
N9 Co6 2.121 . S
N9 C11 1.375 . S
N9 C12 1.313 . S
C10 C11 1.338 . S
C10 N13 1.377 . S
C10 H30 0.930 . S
C11 N9 1.375 . S
C11 C10 1.338 . S
C11 H15 0.931 . S
C12 N9 1.313 . S
C12 N13 1.344 . S
C12 H16 0.930 1_545 S
N13 C10 1.377 . S
N13 C12 1.344 . S
O14 Co6 2.055 1_565 S
O14 C18 1.253 . S
H15 C11 0.931 . S
H16 C12 0.930 1_565 S
O17 Co6 2.039 1_565 S
O17 C7 1.265 1_565 S
C18 O14 1.253 . S
C18 O19 1.227 1_565 S
O19 C18 1.227 1_545 S
N20 Co6 2.140 . S
N20 C23 1.346 . S
N20 C24 1.345 . S
C21 C22 1.387 . S
C21 C25 1.391 . S
C22 C21 1.387 . S
C22 C23 1.369 . S
C22 H31 0.929 . S
C23 N20 1.346 . S
C23 C22 1.369 . S
C23 H26 0.928 . S
C24 N20 1.345 . S
C24 C25 1.371 . S
C24 H27 0.931 . S
C25 C21 1.391 . S
C25 C24 1.371 . S
C25 H32 0.930 . S
H26 C23 0.928 . S
H27 C24 0.931 . S
H28 C4 0.930 . S
H29 C1 0.930 . S
H30 C10 0.930 . S
H31 C22 0.929 . S
H32 C25 0.930 . S
C33 C34 1.351 . S
C33 N36 1.368 . S
C33 H38 0.931 . S
C34 C33 1.351 . S
C34 N35 1.373 . S
C34 H62 0.930 . S
N35 C34 1.373 . S
N35 C37 1.340 . S
N36 C33 1.368 . S
N36 C37 1.321 . S
N36 Co39 2.135 . S
C37 N35 1.340 . S
C37 N36 1.321 . S
C37 H61 0.930 . S
H38 C33 0.931 . S
Co39 N36 2.135 . S
Co39 N42 2.121 . S
Co39 O47 2.055 . S
Co39 O50 2.039 . S
Co39 N53 2.140 . S
C40 O41 1.227 . S
C40 O50 1.265 . S
O41 C40 1.227 . S
N42 Co39 2.121 . S
N42 C44 1.375 . S
N42 C45 1.313 . S
C43 C44 1.338 . S
C43 N46 1.377 . S
C43 H63 0.930 . S
C44 N42 1.375 . S
C44 C43 1.338 . S
C44 H48 0.931 . S
C45 N42 1.313 . S
C45 N46 1.344 . S
C45 H49 0.930 . S
N46 C43 1.377 . S
N46 C45 1.344 . S
O47 Co39 2.055 . S
O47 C51 1.253 . S
H48 C44 0.931 . S
H49 C45 0.930 . S
O50 Co39 2.039 . S
O50 C40 1.265 . S
C51 O47 1.253 . S
C51 O52 1.227 . S
O52 C51 1.227 . S
N53 Co39 2.140 . S
N53 C56 1.346 . S
N53 C57 1.345 . S
C54 C55 1.387 . S
C54 C58 1.393 1_455 S
C55 C54 1.387 . S
C55 C56 1.369 . S
C55 H64 0.929 . S
C56 N53 1.346 . S
C56 C55 1.369 . S
C56 H59 0.928 . S
C57 N53 1.345 . S
C57 C58 1.362 1_455 S
C57 H60 0.931 . S
C58 C54 1.393 1_655 S
C58 C57 1.362 1_655 S
C58 H65 0.937 . S
H59 C56 0.928 . S
H60 C57 0.931 . S
H61 C37 0.930 . S
H62 C34 0.930 . S
H63 C43 0.930 . S
H64 C55 0.929 . S
H65 C58 0.937 . S
C66 C67 1.351 . S
C66 N69 1.368 . S
C66 H71 0.931 . S
C67 C66 1.351 . S
C67 N68 1.373 . S
C67 H95 0.930 . S
N68 C67 1.373 . S
N68 C70 1.340 . S
N69 C66 1.368 . S
N69 C70 1.321 . S
N69 Co72 2.135 . S
C70 N68 1.340 . S
C70 N69 1.321 . S
C70 H94 0.930 . S
H71 C66 0.931 . S
Co72 N69 2.135 . S
Co72 N75 2.121 . S
Co72 O80 2.055 1_655 S
Co72 O83 2.039 1_655 S
Co72 N86 2.140 . S
C73 O74 1.227 . S
C73 O83 1.265 1_655 S
O74 C73 1.227 . S
N75 Co72 2.121 . S
N75 C77 1.375 . S
N75 C78 1.313 . S
C76 C77 1.338 . S
C76 N79 1.377 . S
C76 H96 0.930 . S
C77 N75 1.375 . S
C77 C76 1.338 . S
C77 H81 0.931 . S
C78 N75 1.313 . S
C78 N79 1.344 . S
C78 H82 0.930 1_655 S
N79 C76 1.377 . S
N79 C78 1.344 . S
O80 Co72 2.055 1_455 S
O80 C84 1.253 . S
H81 C77 0.931 . S
H82 C78 0.930 1_455 S
O83 Co72 2.039 1_455 S
O83 C73 1.265 1_455 S
C84 O80 1.253 . S
C84 O85 1.227 1_455 S
O85 C84 1.227 1_655 S
N86 Co72 2.140 . S
N86 C89 1.346 . S
N86 C90 1.345 . S
C87 C88 1.387 . S
C87 C91 1.385 1_545 S
C88 C87 1.387 . S
C88 C89 1.369 . S
C88 H97 0.929 . S
C89 N86 1.346 . S
C89 C88 1.369 . S
C89 H92 0.928 . S
C90 N86 1.345 . S
C90 C91 1.371 1_545 S
C90 H93 0.931 . S
C91 C87 1.385 1_565 S
C91 C90 1.371 1_565 S
C91 H98 0.936 . S
H92 C89 0.928 . S
H93 C90 0.931 . S
H94 C70 0.930 . S
H95 C67 0.930 . S
H96 C76 0.930 . S
H97 C88 0.929 . S
H98 C91 0.936 . S
C99 C100 1.351 . S
C99 N102 1.368 . S
C99 H104 0.931 . S
C100 C99 1.351 . S
C100 N101 1.373 . S
C100 H128 0.930 . S
N101 C100 1.373 . S
N101 C103 1.340 . S
N102 C99 1.368 . S
N102 C103 1.321 . S
N102 Co105 2.135 . S
C103 N101 1.340 . S
C103 N102 1.321 . S
C103 H127 0.930 . S
H104 C99 0.931 . S
Co105 N102 2.135 . S
Co105 N108 2.121 . S
Co105 O113 2.055 1_565 S
Co105 O116 2.039 1_565 S
Co105 N119 2.140 . S
C106 O107 1.227 . S
C106 O116 1.265 1_565 S
O107 C106 1.227 . S
N108 Co105 2.121 . S
N108 C110 1.375 . S
N108 C111 1.313 . S
C109 C110 1.338 . S
C109 N112 1.377 . S
C109 H129 0.930 . S
C110 N108 1.375 . S
C110 C109 1.338 . S
C110 H114 0.931 . S
C111 N108 1.313 . S
C111 N112 1.344 . S
C111 H115 0.930 1_565 S
N112 C109 1.377 . S
N112 C111 1.344 . S
O113 Co105 2.055 1_545 S
O113 C117 1.253 . S
H114 C110 0.931 . S
H115 C111 0.930 1_545 S
O116 Co105 2.039 1_545 S
O116 C106 1.265 1_545 S
C117 O113 1.253 . S
C117 O118 1.227 1_545 S
O118 C117 1.227 1_565 S
N119 Co105 2.140 . S
N119 C122 1.346 . S
N119 C123 1.345 . S
C120 C121 1.387 . S
C120 C124 1.391 . S
C121 C120 1.387 . S
C121 C122 1.369 . S
C121 H130 0.929 . S
C122 N119 1.346 . S
C122 C121 1.369 . S
C122 H125 0.928 . S
C123 N119 1.345 . S
C123 C124 1.371 . S
C123 H126 0.931 . S
C124 C120 1.391 . S
C124 C123 1.371 . S
C124 H131 0.930 . S
H125 C122 0.928 . S
H126 C123 0.931 . S
H127 C103 0.930 . S
H128 C100 0.930 . S
H129 C109 0.930 . S
H130 C121 0.929 . S
H131 C124 0.930 . S
C132 C133 1.351 . S
C132 N135 1.368 . S
C132 H137 0.931 . S
C133 C132 1.351 . S
C133 N134 1.373 . S
C133 H161 0.930 . S
N134 C133 1.373 . S
N134 C136 1.340 . S
N135 C132 1.368 . S
N135 C136 1.321 . S
N135 Co138 2.135 . S
C136 N134 1.340 . S
C136 N135 1.321 . S
C136 H160 0.930 . S
H137 C132 0.931 . S
Co138 N135 2.135 . S
Co138 N141 2.121 . S
Co138 O146 2.055 . S
Co138 O149 2.039 . S
Co138 N152 2.140 . S
C139 O140 1.227 . S
C139 O149 1.265 . S
O140 C139 1.227 . S
N141 Co138 2.121 . S
N141 C143 1.375 . S
N141 C144 1.313 . S
C142 C143 1.338 . S
C142 N145 1.377 . S
C142 H162 0.930 . S
C143 N141 1.375 . S
C143 C142 1.338 . S
C143 H147 0.931 . S
C144 N141 1.313 . S
C144 N145 1.344 . S
C144 H148 0.930 . S
N145 C142 1.377 . S
N145 C144 1.344 . S
O146 Co138 2.055 . S
O146 C150 1.253 . S
H147 C143 0.931 . S
H148 C144 0.930 . S
O149 Co138 2.039 . S
O149 C139 1.265 . S
C150 O146 1.253 . S
C150 O151 1.227 . S
O151 C150 1.227 . S
N152 Co138 2.140 . S
N152 C155 1.346 . S
N152 C156 1.345 . S
C153 C154 1.387 . S
C153 C157 1.393 1_655 S
C154 C153 1.387 . S
C154 C155 1.369 . S
C154 H163 0.929 . S
C155 N152 1.346 . S
C155 C154 1.369 . S
C155 H158 0.928 . S
C156 N152 1.345 . S
C156 C157 1.362 1_655 S
C156 H159 0.931 . S
C157 C153 1.393 1_455 S
C157 C156 1.362 1_455 S
C157 H164 0.937 . S
H158 C155 0.928 . S
H159 C156 0.931 . S
H160 C136 0.930 . S
H161 C133 0.930 . S
H162 C142 0.930 . S
H163 C154 0.929 . S
H164 C157 0.937 . S
C165 C166 1.351 . S
C165 N168 1.368 . S
C165 H170 0.931 . S
C166 C165 1.351 . S
C166 N167 1.373 . S
C166 H194 0.930 . S
N167 C166 1.373 . S
N167 C169 1.340 . S
N168 C165 1.368 . S
N168 C169 1.321 . S
N168 Co171 2.135 . S
C169 N167 1.340 . S
C169 N168 1.321 . S
C169 H193 0.930 . S
H170 C165 0.931 . S
Co171 N168 2.135 . S
Co171 N174 2.121 . S
Co171 O179 2.055 1_455 S
Co171 O182 2.039 1_455 S
Co171 N185 2.140 . S
C172 O173 1.227 . S
C172 O182 1.265 1_455 S
O173 C172 1.227 . S
N174 Co171 2.121 . S
N174 C176 1.375 . S
N174 C177 1.313 . S
C175 C176 1.338 . S
C175 N178 1.377 . S
C175 H195 0.930 . S
C176 N174 1.375 . S
C176 C175 1.338 . S
C176 H180 0.931 . S
C177 N174 1.313 . S
C177 N178 1.344 . S
C177 H181 0.930 1_455 S
N178 C175 1.377 . S
N178 C177 1.344 . S
O179 Co171 2.055 1_655 S
O179 C183 1.253 . S
H180 C176 0.931 . S
H181 C177 0.930 1_655 S
O182 Co171 2.039 1_655 S
O182 C172 1.265 1_655 S
C183 O179 1.253 . S
C183 O184 1.227 1_655 S
O184 C183 1.227 1_455 S
N185 Co171 2.140 . S
N185 C188 1.346 . S
N185 C189 1.345 . S
C186 C187 1.387 . S
C186 C190 1.385 1_565 S
C187 C186 1.387 . S
C187 C188 1.369 . S
C187 H196 0.929 . S
C188 N185 1.346 . S
C188 C187 1.369 . S
C188 H191 0.928 . S
C189 N185 1.345 . S
C189 C190 1.371 1_565 S
C189 H192 0.931 . S
C190 C186 1.385 1_545 S
C190 C189 1.371 1_545 S
C190 H197 0.936 . S
H191 C188 0.928 . S
H192 C189 0.931 . S
H193 C169 0.930 . S
H194 C166 0.930 . S
H195 C175 0.930 . S
H196 C187 0.929 . S
H197 C190 0.936 . S
C198 C199 1.351 . S
C198 N201 1.368 . S
C198 H203 0.931 . S
C199 C198 1.351 . S
C199 N200 1.373 . S
C199 H227 0.930 . S
N200 C199 1.373 . S
N200 C202 1.340 . S
N201 C198 1.368 . S
N201 C202 1.321 . S
N201 Co204 2.135 . S
C202 N200 1.340 . S
C202 N201 1.321 . S
C202 H226 0.930 . S
H203 C198 0.931 . S
Co204 N201 2.135 . S
Co204 N207 2.121 . S
Co204 O212 2.055 1_655 S
Co204 O215 2.039 1_655 S
Co204 N218 2.140 . S
C205 O206 1.227 . S
C205 O215 1.265 1_655 S
O206 C205 1.227 . S
N207 Co204 2.121 . S
N207 C209 1.375 . S
N207 C210 1.313 . S
C208 C209 1.338 . S
C208 N211 1.377 . S
C208 H228 0.930 . S
C209 N207 1.375 . S
C209 C208 1.338 . S
C209 H213 0.931 . S
C210 N207 1.313 . S
C210 N211 1.344 . S
C210 H214 0.930 1_655 S
N211 C208 1.377 . S
N211 C210 1.344 . S
O212 Co204 2.055 1_455 S
O212 C216 1.253 . S
H213 C209 0.931 . S
H214 C210 0.930 1_455 S
O215 Co204 2.039 1_455 S
O215 C205 1.265 1_455 S
C216 O212 1.253 . S
C216 O217 1.227 1_455 S
O217 C216 1.227 1_655 S
N218 Co204 2.140 . S
N218 C221 1.346 . S
N218 C222 1.345 . S
C219 C220 1.387 . S
C219 C223 1.391 . S
C220 C219 1.387 . S
C220 C221 1.369 . S
C220 H229 0.929 . S
C221 N218 1.346 . S
C221 C220 1.369 . S
C221 H224 0.928 . S
C222 N218 1.345 . S
C222 C223 1.371 . S
C222 H225 0.931 . S
C223 C219 1.391 . S
C223 C222 1.371 . S
C223 H230 0.930 . S
H224 C221 0.928 . S
H225 C222 0.931 . S
H226 C202 0.930 . S
H227 C199 0.930 . S
H228 C208 0.930 . S
H229 C220 0.929 . S
H230 C223 0.930 . S
C231 C232 1.351 . S
C231 N234 1.368 . S
C231 H236 0.931 . S
C232 C231 1.351 . S
C232 N233 1.373 . S
C232 H260 0.930 . S
N233 C232 1.373 . S
N233 C235 1.340 . S
N234 C231 1.368 . S
N234 C235 1.321 . S
N234 Co237 2.135 . S
C235 N233 1.340 . S
C235 N234 1.321 . S
C235 H259 0.930 . S
H236 C231 0.931 . S
Co237 N234 2.135 . S
Co237 N240 2.121 . S
Co237 O245 2.055 1_565 S
Co237 O248 2.039 1_565 S
Co237 N251 2.140 . S
C238 O239 1.227 . S
C238 O248 1.265 1_565 S
O239 C238 1.227 . S
N240 Co237 2.121 . S
N240 C242 1.375 . S
N240 C243 1.313 . S
C241 C242 1.338 . S
C241 N244 1.377 . S
C241 H261 0.930 . S
C242 N240 1.375 . S
C242 C241 1.338 . S
C242 H246 0.931 . S
C243 N240 1.313 . S
C243 N244 1.344 . S
C243 H247 0.930 1_565 S
N244 C241 1.377 . S
N244 C243 1.344 . S
O245 Co237 2.055 1_545 S
O245 C249 1.253 . S
H246 C242 0.931 . S
H247 C243 0.930 1_545 S
O248 Co237 2.039 1_545 S
O248 C238 1.265 1_545 S
C249 O245 1.253 . S
C249 O250 1.227 1_545 S
O250 C249 1.227 1_565 S
N251 Co237 2.140 . S
N251 C254 1.346 . S
N251 C255 1.345 . S
C252 C253 1.387 . S
C252 C256 1.385 1_455 S
C253 C252 1.387 . S
C253 C254 1.369 . S
C253 H262 0.929 . S
C254 N251 1.346 . S
C254 C253 1.369 . S
C254 H257 0.928 . S
C255 N251 1.345 . S
C255 C256 1.371 1_455 S
C255 H258 0.931 . S
C256 C252 1.385 1_655 S
C256 C255 1.371 1_655 S
C256 H263 0.936 . S
H257 C254 0.928 . S
H258 C255 0.931 . S
H259 C235 0.930 . S
H260 C232 0.930 . S
H261 C241 0.930 . S
H262 C253 0.929 . S
H263 C256 0.936 . S
C264 C265 1.351 . S
C264 N267 1.368 . S
C264 H269 0.931 . S
C265 C264 1.351 . S
C265 N266 1.373 . S
C265 H293 0.930 . S
N266 C265 1.373 . S
N266 C268 1.340 . S
N267 C264 1.368 . S
N267 C268 1.321 . S
N267 Co270 2.135 . S
C268 N266 1.340 . S
C268 N267 1.321 . S
C268 H292 0.930 . S
H269 C264 0.931 . S
Co270 N267 2.135 . S
Co270 N273 2.121 . S
Co270 O278 2.055 . S
Co270 O281 2.039 . S
Co270 N284 2.140 . S
C271 O272 1.227 . S
C271 O281 1.265 . S
O272 C271 1.227 . S
N273 Co270 2.121 . S
N273 C275 1.375 . S
N273 C276 1.313 . S
C274 C275 1.338 . S
C274 N277 1.377 . S
C274 H294 0.930 . S
C275 N273 1.375 . S
C275 C274 1.338 . S
C275 H279 0.931 . S
C276 N273 1.313 . S
C276 N277 1.344 . S
C276 H280 0.930 . S
N277 C274 1.377 . S
N277 C276 1.344 . S
O278 Co270 2.055 . S
O278 C282 1.253 . S
H279 C275 0.931 . S
H280 C276 0.930 . S
O281 Co270 2.039 . S
O281 C271 1.265 . S
C282 O278 1.253 . S
C282 O283 1.227 . S
O283 C282 1.227 . S
N284 Co270 2.140 . S
N284 C287 1.346 . S
N284 C288 1.345 . S
C285 C286 1.387 . S
C285 C289 1.393 1_545 S
C286 C285 1.387 . S
C286 C287 1.369 . S
C286 H295 0.929 . S
C287 N284 1.346 . S
C287 C286 1.369 . S
C287 H290 0.928 . S
C288 N284 1.345 . S
C288 C289 1.362 1_545 S
C288 H291 0.931 . S
C289 C285 1.393 1_565 S
C289 C288 1.362 1_565 S
C289 H296 0.937 . S
H290 C287 0.928 . S
H291 C288 0.931 . S
H292 C268 0.930 . S
H293 C265 0.930 . S
H294 C274 0.930 . S
H295 C286 0.929 . S
H296 C289 0.937 . S
C297 C298 1.351 . S
C297 N300 1.368 . S
C297 H302 0.931 . S
C298 C297 1.351 . S
C298 N299 1.373 . S
C298 H326 0.930 . S
N299 C298 1.373 . S
N299 C301 1.340 . S
N300 C297 1.368 . S
N300 C301 1.321 . S
N300 Co303 2.135 . S
C301 N299 1.340 . S
C301 N300 1.321 . S
C301 H325 0.930 . S
H302 C297 0.931 . S
Co303 N300 2.135 . S
Co303 N306 2.121 . S
Co303 O311 2.055 1_455 S
Co303 O314 2.039 1_455 S
Co303 N317 2.140 . S
C304 O305 1.227 . S
C304 O314 1.265 1_455 S
O305 C304 1.227 . S
N306 Co303 2.121 . S
N306 C308 1.375 . S
N306 C309 1.313 . S
C307 C308 1.338 . S
C307 N310 1.377 . S
C307 H327 0.930 . S
C308 N306 1.375 . S
C308 C307 1.338 . S
C308 H312 0.931 . S
C309 N306 1.313 . S
C309 N310 1.344 . S
C309 H313 0.930 1_455 S
N310 C307 1.377 . S
N310 C309 1.344 . S
O311 Co303 2.055 1_655 S
O311 C315 1.253 . S
H312 C308 0.931 . S
H313 C309 0.930 1_655 S
O314 Co303 2.039 1_655 S
O314 C304 1.265 1_655 S
C315 O311 1.253 . S
C315 O316 1.227 1_655 S
O316 C315 1.227 1_455 S
N317 Co303 2.140 . S
N317 C320 1.346 . S
N317 C321 1.345 . S
C318 C319 1.387 . S
C318 C322 1.391 . S
C319 C318 1.387 . S
C319 C320 1.369 . S
C319 H328 0.929 . S
C320 N317 1.346 . S
C320 C319 1.369 . S
C320 H323 0.928 . S
C321 N317 1.345 . S
C321 C322 1.371 . S
C321 H324 0.931 . S
C322 C318 1.391 . S
C322 C321 1.371 . S
C322 H329 0.930 . S
H323 C320 0.928 . S
H324 C321 0.931 . S
H325 C301 0.930 . S
H326 C298 0.930 . S
H327 C307 0.930 . S
H328 C319 0.929 . S
H329 C322 0.930 . S
C330 C331 1.351 . S
C330 N333 1.368 . S
C330 H335 0.931 . S
C331 C330 1.351 . S
C331 N332 1.373 . S
C331 H359 0.930 . S
N332 C331 1.373 . S
N332 C334 1.340 . S
N333 C330 1.368 . S
N333 C334 1.321 . S
N333 Co336 2.135 . S
C334 N332 1.340 . S
C334 N333 1.321 . S
C334 H358 0.930 . S
H335 C330 0.931 . S
Co336 N333 2.135 . S
Co336 N339 2.121 . S
Co336 O344 2.055 1_545 S
Co336 O347 2.039 1_545 S
Co336 N350 2.140 . S
C337 O338 1.227 . S
C337 O347 1.265 1_545 S
O338 C337 1.227 . S
N339 Co336 2.121 . S
N339 C341 1.375 . S
N339 C342 1.313 . S
C340 C341 1.338 . S
C340 N343 1.377 . S
C340 H360 0.930 . S
C341 N339 1.375 . S
C341 C340 1.338 . S
C341 H345 0.931 . S
C342 N339 1.313 . S
C342 N343 1.344 . S
C342 H346 0.930 1_545 S
N343 C340 1.377 . S
N343 C342 1.344 . S
O344 Co336 2.055 1_565 S
O344 C348 1.253 . S
H345 C341 0.931 . S
H346 C342 0.930 1_565 S
O347 Co336 2.039 1_565 S
O347 C337 1.265 1_565 S
C348 O344 1.253 . S
C348 O349 1.227 1_565 S
O349 C348 1.227 1_545 S
N350 Co336 2.140 . S
N350 C353 1.346 . S
N350 C354 1.345 . S
C351 C352 1.387 . S
C351 C355 1.385 1_655 S
C352 C351 1.387 . S
C352 C353 1.369 . S
C352 H361 0.929 . S
C353 N350 1.346 . S
C353 C352 1.369 . S
C353 H356 0.928 . S
C354 N350 1.345 . S
C354 C355 1.371 1_655 S
C354 H357 0.931 . S
C355 C351 1.385 1_455 S
C355 C354 1.371 1_455 S
C355 H362 0.936 . S
H356 C353 0.928 . S
H357 C354 0.931 . S
H358 C334 0.930 . S
H359 C331 0.930 . S
H360 C340 0.930 . S
H361 C352 0.929 . S
H362 C355 0.936 . S
C363 C364 1.351 . S
C363 N366 1.368 . S
C363 H368 0.931 . S
C364 C363 1.351 . S
C364 N365 1.373 . S
C364 H392 0.930 . S
N365 C364 1.373 . S
N365 C367 1.340 . S
N366 C363 1.368 . S
N366 C367 1.321 . S
N366 Co369 2.135 . S
C367 N365 1.340 . S
C367 N366 1.321 . S
C367 H391 0.930 . S
H368 C363 0.931 . S
Co369 N366 2.135 . S
Co369 N372 2.121 . S
Co369 O377 2.055 . S
Co369 O380 2.039 . S
Co369 N383 2.140 . S
C370 O371 1.227 . S
C370 O380 1.265 . S
O371 C370 1.227 . S
N372 Co369 2.121 . S
N372 C374 1.375 . S
N372 C375 1.313 . S
C373 C374 1.338 . S
C373 N376 1.377 . S
C373 H393 0.930 . S
C374 N372 1.375 . S
C374 C373 1.338 . S
C374 H378 0.931 . S
C375 N372 1.313 . S
C375 N376 1.344 . S
C375 H379 0.930 . S
N376 C373 1.377 . S
N376 C375 1.344 . S
O377 Co369 2.055 . S
O377 C381 1.253 . S
H378 C374 0.931 . S
H379 C375 0.930 . S
O380 Co369 2.039 . S
O380 C370 1.265 . S
C381 O377 1.253 . S
C381 O382 1.227 . S
O382 C381 1.227 . S
N383 Co369 2.140 . S
N383 C386 1.346 . S
N383 C387 1.345 . S
C384 C385 1.387 . S
C384 C388 1.393 1_565 S
C385 C384 1.387 . S
C385 C386 1.369 . S
C385 H394 0.929 . S
C386 N383 1.346 . S
C386 C385 1.369 . S
C386 H389 0.928 . S
C387 N383 1.345 . S
C387 C388 1.362 1_565 S
C387 H390 0.931 . S
C388 C384 1.393 1_545 S
C388 C387 1.362 1_545 S
C388 H395 0.937 . S
H389 C386 0.928 . S
H390 C387 0.931 . S
H391 C367 0.930 . S
H392 C364 0.930 . S
H393 C373 0.930 . S
H394 C385 0.929 . S
H395 C388 0.937 . S
N13 N244 1.411 1_544 S
N46 N277 1.411 . S
N79 N310 1.411 1_655 S
N343 N112 1.411 1_546 S
N376 N145 1.411 . S
N178 N211 1.411 1_455 S
C106 C7 2.164 1_565 S
C40 C139 2.164 . S
C172 C73 2.163 1_455 S
C304 C205 2.164 1_455 S
C337 C238 2.163 1_545 S
C271 C370 2.164 . S
N266 N2 1.592 . S
N35 N299 1.592 . S
N68 N332 1.592 . S
N101 N365 1.592 . S
N134 N200 1.592 . S
N233 N167 1.592 . S
C120 C21 0.904 . S
C54 C153 0.904 1_455 S
C186 C87 0.905 1_565 S
C219 C318 0.904 . S
C252 C351 0.905 1_455 S
C384 C285 0.904 1_565 S
C18 C117 1.566 1_465 S
C51 C150 1.566 1_445 S
C84 C183 1.566 1_445 S
C216 C315 1.566 1_465 S
C348 C249 1.566 1_665 S
C282 C381 1.566 1_445 S
