# Generated by pormake.
# Topology pcl, (4)-cn, num edge types: 1
# Building blocks:
#     Node 0, Type 0, BuildingBlock: GALJAG_clean_sbu_0, # of connection points: 4
#     Node 1, Type 0, BuildingBlock: GALJAG_clean_sbu_0, # of connection points: 4
#     Node 2, Type 0, BuildingBlock: GALJAG_clean_sbu_0, # of connection points: 4
#     Node 3, Type 0, BuildingBlock: GALJAG_clean_sbu_0, # of connection points: 4
#     Node 4, Type 0, BuildingBlock: GALJAG_clean_sbu_0, # of connection points: 4
#     Node 5, Type 0, BuildingBlock: GALJAG_clean_sbu_0, # of connection points: 4
#     Node 6, Type 0, BuildingBlock: GALJAG_clean_sbu_0, # of connection points: 4
#     Node 7, Type 0, BuildingBlock: GALJAG_clean_sbu_0, # of connection points: 4
#     Node 8, Type 0, BuildingBlock: GALJAG_clean_sbu_0, # of connection points: 4
#     Node 9, Type 0, BuildingBlock: GALJAG_clean_sbu_0, # of connection points: 4
#     Node 10, Type 0, BuildingBlock: GALJAG_clean_sbu_0, # of connection points: 4
#     Node 11, Type 0, BuildingBlock: GALJAG_clean_sbu_0, # of connection points: 4
#     Node 12, Type 0, BuildingBlock: GALJAG_clean_sbu_0, # of connection points: 4
#     Node 13, Type 0, BuildingBlock: GALJAG_clean_sbu_0, # of connection points: 4
#     Node 14, Type 0, BuildingBlock: GALJAG_clean_sbu_0, # of connection points: 4
#     Node 15, Type 0, BuildingBlock: GALJAG_clean_sbu_0, # of connection points: 4
#     Edge 16, Type (0, 0), BuildingBlock: TEMPAE_clean_linker_10, # of connection points: 2
#     Edge 17, Type (0, 0), BuildingBlock: TEMPAE_clean_linker_10, # of connection points: 2
#     Edge 18, Type (0, 0), BuildingBlock: TEMPAE_clean_linker_10, # of connection points: 2
#     Edge 19, Type (0, 0), BuildingBlock: TEMPAE_clean_linker_10, # of connection points: 2
#     Edge 20, Type (0, 0), BuildingBlock: TEMPAE_clean_linker_10, # of connection points: 2
#     Edge 21, Type (0, 0), BuildingBlock: TEMPAE_clean_linker_10, # of connection points: 2
#     Edge 22, Type (0, 0), BuildingBlock: TEMPAE_clean_linker_10, # of connection points: 2
#     Edge 23, Type (0, 0), BuildingBlock: TEMPAE_clean_linker_10, # of connection points: 2
#     Edge 24, Type (0, 0), BuildingBlock: TEMPAE_clean_linker_10, # of connection points: 2
#     Edge 25, Type (0, 0), BuildingBlock: TEMPAE_clean_linker_10, # of connection points: 2
#     Edge 26, Type (0, 0), BuildingBlock: TEMPAE_clean_linker_10, # of connection points: 2
#     Edge 27, Type (0, 0), BuildingBlock: TEMPAE_clean_linker_10, # of connection points: 2
#     Edge 28, Type (0, 0), BuildingBlock: TEMPAE_clean_linker_10, # of connection points: 2
#     Edge 29, Type (0, 0), BuildingBlock: TEMPAE_clean_linker_10, # of connection points: 2
#     Edge 30, Type (0, 0), BuildingBlock: TEMPAE_clean_linker_10, # of connection points: 2
#     Edge 31, Type (0, 0), BuildingBlock: TEMPAE_clean_linker_10, # of connection points: 2
#     Edge 32, Type (0, 0), BuildingBlock: TEMPAE_clean_linker_10, # of connection points: 2
#     Edge 33, Type (0, 0), BuildingBlock: TEMPAE_clean_linker_10, # of connection points: 2
#     Edge 34, Type (0, 0), BuildingBlock: TEMPAE_clean_linker_10, # of connection points: 2
#     Edge 35, Type (0, 0), BuildingBlock: TEMPAE_clean_linker_10, # of connection points: 2
#     Edge 36, Type (0, 0), BuildingBlock: TEMPAE_clean_linker_10, # of connection points: 2
#     Edge 37, Type (0, 0), BuildingBlock: TEMPAE_clean_linker_10, # of connection points: 2
#     Edge 38, Type (0, 0), BuildingBlock: TEMPAE_clean_linker_10, # of connection points: 2
#     Edge 39, Type (0, 0), BuildingBlock: TEMPAE_clean_linker_10, # of connection points: 2
#     Edge 40, Type (0, 0), BuildingBlock: TEMPAE_clean_linker_10, # of connection points: 2
#     Edge 41, Type (0, 0), BuildingBlock: TEMPAE_clean_linker_10, # of connection points: 2
#     Edge 42, Type (0, 0), BuildingBlock: TEMPAE_clean_linker_10, # of connection points: 2
#     Edge 43, Type (0, 0), BuildingBlock: TEMPAE_clean_linker_10, # of connection points: 2
#     Edge 44, Type (0, 0), BuildingBlock: TEMPAE_clean_linker_10, # of connection points: 2
#     Edge 45, Type (0, 0), BuildingBlock: TEMPAE_clean_linker_10, # of connection points: 2
#     Edge 46, Type (0, 0), BuildingBlock: TEMPAE_clean_linker_10, # of connection points: 2
#     Edge 47, Type (0, 0), BuildingBlock: TEMPAE_clean_linker_10, # of connection points: 2
# Relax obj value: 0.122
# Max RMSD: 0.108
# Mean RMSD: 0.092
data_MOF--net-pcl--node1-GALJAG_clean_sbu_0--edge1-TEMPAE_clean_linker_10
_symmetry_space_group_name_H-M    P1
_symmetry_Int_Tables_number       1
_symmetry_cell_setting            triclinic
loop_
_symmetry_equiv_pos_as_xyz
'x, y, z'
_cell_length_a     53.672899
_cell_length_b     40.47286
_cell_length_c     44.159502
_cell_angle_alpha  89.941931
_cell_angle_beta   89.988164
_cell_angle_gamma 89.924403
loop_
_atom_site_label
_atom_site_type_symbol
_atom_site_fract_x
_atom_site_fract_y
_atom_site_fract_z
_atom_type_partial_charge
In0 In 0.10912 0.32586 0.07265 0.0
O1 O 0.12909 0.2806 0.05287 0.0
O2 O 0.14368 0.32836 0.0436 0.0
C3 C 0.0625 0.30137 0.07558 0.0
C4 C 0.13066 0.32497 0.12784 0.0
C5 C 0.0976 0.38403 0.04649 0.0
O6 O 0.07737 0.2933 0.05467 0.0
O7 O 0.07136 0.32113 0.09478 0.0
O8 O 0.09965 0.38086 0.07483 0.0
O9 O 0.10104 0.35789 0.03156 0.0
C10 C 0.14565 0.29764 0.03984 0.0
O11 O 0.13386 0.34835 0.10935 0.0
O12 O 0.11689 0.30198 0.11837 0.0
In13 In 0.88447 0.67846 0.56243 0.0
O14 O 0.86938 0.69895 0.5179 0.0
O15 O 0.8539 0.71752 0.55872 0.0
C16 C 0.93357 0.69265 0.55601 0.0
C17 C 0.86999 0.68009 0.62094 0.0
C18 C 0.87833 0.61585 0.54289 0.0
O19 O 0.9172 0.71506 0.55629 0.0
O20 O 0.92505 0.66387 0.55852 0.0
O21 O 0.88706 0.62265 0.56864 0.0
O22 O 0.87225 0.64062 0.5272 0.0
C23 C 0.85342 0.71752 0.53016 0.0
O24 O 0.85752 0.66582 0.60059 0.0
O25 O 0.88961 0.69401 0.6117 0.0
In26 In 0.10858 0.66894 0.92724 0.0
O27 O 0.1246 0.63989 0.88734 0.0
O28 O 0.11933 0.69149 0.88178 0.0
C29 C 0.10054 0.60934 0.95262 0.0
C30 C 0.14544 0.70111 0.95619 0.0
C31 C 0.06245 0.69531 0.93137 0.0
O32 O 0.08932 0.61844 0.9289 0.0
O33 O 0.11547 0.63025 0.96338 0.0
O34 O 0.0752 0.68815 0.95449 0.0
O35 O 0.07331 0.69013 0.90652 0.0
C36 C 0.12641 0.66465 0.87016 0.0
O37 O 0.12558 0.71562 0.94844 0.0
O38 O 0.14653 0.67105 0.9491 0.0
In39 In 0.89246 0.32363 0.43737 0.0
O40 O 0.86782 0.34114 0.39844 0.0
O41 O 0.89964 0.31251 0.38735 0.0
C42 C 0.88651 0.386 0.4574 0.0
C43 C 0.86125 0.28297 0.46756 0.0
C44 C 0.94022 0.30439 0.4464 0.0
O45 O 0.90238 0.37838 0.43749 0.0
O46 O 0.87361 0.36219 0.46707 0.0
O47 O 0.92429 0.28572 0.43423 0.0
O48 O 0.93181 0.33202 0.45466 0.0
C49 C 0.88075 0.32795 0.37793 0.0
O50 O 0.87844 0.29871 0.48056 0.0
O51 O 0.86058 0.28657 0.43923 0.0
In52 In 0.83215 0.65575 0.90445 0.0
O53 O 0.8112 0.69639 0.92979 0.0
O54 O 0.79017 0.6581 0.90897 0.0
C55 C 0.87944 0.67409 0.91569 0.0
C56 C 0.82844 0.60047 0.93788 0.0
C57 C 0.83267 0.65994 0.84344 0.0
O58 O 0.86134 0.69351 0.92022 0.0
O59 O 0.8735 0.6461 0.9055 0.0
O60 O 0.83602 0.63311 0.85743 0.0
O61 O 0.82845 0.68452 0.8602 0.0
C62 C 0.78999 0.68395 0.92487 0.0
O63 O 0.82075 0.60191 0.91086 0.0
O64 O 0.838 0.62677 0.94781 0.0
In65 In 0.16891 0.33211 0.4085 0.0
O66 O 0.17577 0.38696 0.41668 0.0
O67 O 0.15604 0.36008 0.45038 0.0
C68 C 0.17371 0.33642 0.34785 0.0
C69 C 0.21124 0.30409 0.42934 0.0
C70 C 0.1229 0.30576 0.41467 0.0
O71 O 0.16575 0.35988 0.36396 0.0
O72 O 0.18006 0.31092 0.36244 0.0
O73 O 0.14051 0.29824 0.43236 0.0
O74 O 0.12883 0.32553 0.39387 0.0
C75 C 0.16484 0.38748 0.44199 0.0
O76 O 0.19247 0.2871 0.42195 0.0
O77 O 0.20864 0.33479 0.42586 0.0
In78 In 0.83422 0.337 0.09493 0.0
O79 O 0.82235 0.39088 0.0895 0.0
O80 O 0.83749 0.36581 0.05124 0.0
C81 C 0.83909 0.33873 0.15578 0.0
C82 C 0.79172 0.30795 0.0768 0.0
C83 C 0.87982 0.31413 0.08028 0.0
O84 O 0.84457 0.36292 0.13907 0.0
O85 O 0.83066 0.31398 0.14188 0.0
O86 O 0.86234 0.29477 0.0875 0.0
O87 O 0.87411 0.34432 0.08051 0.0
C88 C 0.82863 0.39223 0.06192 0.0
O89 O 0.81291 0.29736 0.069 0.0
O90 O 0.7921 0.33245 0.09438 0.0
In91 In 0.15895 0.65871 0.58684 0.0
O92 O 0.17054 0.60463 0.58348 0.0
O93 O 0.14158 0.62151 0.55449 0.0
C94 C 0.16024 0.65064 0.64743 0.0
C95 C 0.20031 0.68703 0.56333 0.0
C96 C 0.11695 0.69335 0.57442 0.0
O97 O 0.14469 0.63626 0.6306 0.0
O98 O 0.17573 0.66864 0.63361 0.0
O99 O 0.13074 0.68172 0.55387 0.0
O100 O 0.12497 0.68872 0.60088 0.0
C101 C 0.15531 0.59779 0.56263 0.0
O102 O 0.18421 0.70353 0.57766 0.0
O103 O 0.19548 0.65676 0.56102 0.0
In104 In 0.61008 0.81955 0.06073 0.0
O105 O 0.63843 0.83113 0.09782 0.0
O106 O 0.60198 0.817 0.11131 0.0
C107 C 0.61495 0.88223 0.04078 0.0
C108 C 0.64009 0.77766 0.03018 0.0
C109 C 0.5629 0.79818 0.05214 0.0
O110 O 0.60092 0.87469 0.06263 0.0
O111 O 0.62678 0.85832 0.0295 0.0
O112 O 0.57822 0.78268 0.06853 0.0
O113 O 0.57159 0.8237 0.03973 0.0
C114 C 0.62356 0.82561 0.11937 0.0
O115 O 0.6248 0.79663 0.01729 0.0
O116 O 0.63947 0.77862 0.05871 0.0
In117 In 0.39217 0.171 0.57119 0.0
O118 O 0.37967 0.20496 0.53228 0.0
O119 O 0.35223 0.18627 0.56243 0.0
C120 C 0.44105 0.187 0.56906 0.0
C121 C 0.38317 0.17532 0.63117 0.0
C122 C 0.38635 0.11144 0.54508 0.0
O123 O 0.42433 0.20899 0.57009 0.0
O124 O 0.43298 0.15784 0.56928 0.0
O125 O 0.37673 0.11844 0.57036 0.0
O126 O 0.39845 0.13459 0.5329 0.0
C127 C 0.35689 0.20352 0.53937 0.0
O128 O 0.39258 0.14996 0.61913 0.0
O129 O 0.3788 0.19877 0.6131 0.0
In130 In 0.61636 0.17502 0.93401 0.0
O131 O 0.64307 0.15543 0.89795 0.0
O132 O 0.62099 0.19747 0.88715 0.0
C133 C 0.6181 0.11134 0.95211 0.0
C134 C 0.64318 0.2156 0.96975 0.0
C135 C 0.56784 0.19279 0.93494 0.0
O136 O 0.5998 0.12316 0.93783 0.0
O137 O 0.63565 0.13138 0.95657 0.0
O138 O 0.58148 0.19457 0.95814 0.0
O139 O 0.57877 0.1826 0.91151 0.0
C140 C 0.63706 0.17679 0.87843 0.0
O141 O 0.6307 0.19171 0.97991 0.0
O142 O 0.64127 0.22001 0.94157 0.0
In143 In 0.38013 0.82545 0.42391 0.0
O144 O 0.3676 0.78677 0.45903 0.0
O145 O 0.33995 0.81245 0.43413 0.0
C146 C 0.42907 0.81104 0.4195 0.0
C147 C 0.36505 0.81683 0.36644 0.0
C148 C 0.38093 0.88549 0.45066 0.0
O149 O 0.41473 0.79553 0.43719 0.0
O150 O 0.41867 0.83337 0.40404 0.0
O151 O 0.3741 0.8812 0.4237 0.0
O152 O 0.38759 0.85956 0.4642 0.0
C153 C 0.34469 0.79136 0.45422 0.0
O154 O 0.35925 0.84176 0.38203 0.0
O155 O 0.37857 0.79579 0.37984 0.0
In156 In 0.33434 0.16782 0.91304 0.0
O157 O 0.32228 0.11361 0.91518 0.0
O158 O 0.33519 0.13655 0.95554 0.0
C159 C 0.33813 0.17387 0.85243 0.0
C160 C 0.29497 0.20287 0.93338 0.0
C161 C 0.38254 0.17965 0.92529 0.0
O162 O 0.32974 0.14807 0.86487 0.0
O163 O 0.34379 0.19679 0.87047 0.0
O164 O 0.36622 0.20216 0.92658 0.0
O165 O 0.37444 0.15152 0.91794 0.0
C166 C 0.32701 0.11074 0.94309 0.0
O167 O 0.3163 0.20481 0.94515 0.0
O168 O 0.2937 0.18422 0.91062 0.0
In169 In 0.66236 0.8426 0.40289 0.0
O170 O 0.67236 0.89679 0.40996 0.0
O171 O 0.65813 0.86951 0.44752 0.0
C172 C 0.6625 0.84176 0.3417 0.0
C173 C 0.70398 0.81267 0.42359 0.0
C174 C 0.61448 0.82524 0.41252 0.0
O175 O 0.66046 0.86812 0.35673 0.0
O176 O 0.66503 0.81604 0.35753 0.0
O177 O 0.63162 0.80385 0.41086 0.0
O178 O 0.6216 0.85467 0.40933 0.0
C179 C 0.66603 0.89682 0.43756 0.0
O180 O 0.68244 0.80173 0.42931 0.0
O181 O 0.70439 0.83794 0.4069 0.0
In182 In 0.33287 0.83534 0.08284 0.0
O183 O 0.31648 0.88738 0.07774 0.0
O184 O 0.34252 0.87093 0.04487 0.0
C185 C 0.33206 0.83008 0.1435 0.0
C186 C 0.29348 0.80416 0.05848 0.0
C187 C 0.38017 0.81434 0.07638 0.0
O188 O 0.33577 0.85716 0.13002 0.0
O189 O 0.32798 0.80573 0.12636 0.0
O190 O 0.36196 0.79724 0.06727 0.0
O191 O 0.37433 0.84152 0.08835 0.0
C192 C 0.3284 0.89377 0.05383 0.0
O193 O 0.31497 0.80272 0.04691 0.0
O194 O 0.29208 0.82052 0.0827 0.0
In195 In 0.67072 0.15955 0.597 0.0
O196 O 0.68004 0.10508 0.58991 0.0
O197 O 0.65672 0.12842 0.55749 0.0
C198 C 0.67577 0.15884 0.65764 0.0
C199 C 0.71257 0.18721 0.57461 0.0
C200 C 0.62476 0.18633 0.5916 0.0
O201 O 0.66749 0.13457 0.64282 0.0
O202 O 0.68215 0.1834 0.64175 0.0
O203 O 0.64165 0.1916 0.57223 0.0
O204 O 0.63128 0.16819 0.6134 0.0
C205 C 0.66782 0.10245 0.56566 0.0
O206 O 0.69254 0.20337 0.57739 0.0
O207 O 0.71139 0.15768 0.58348 0.0
C208 C 0.02123 0.30084 0.10097 0.0
C209 C 0.03603 0.29152 0.07627 0.0
C210 C 0.99532 0.29727 0.10014 0.0
C211 C 0.98392 0.28397 0.07395 0.0
C212 C 0.99891 0.27189 0.04999 0.0
C213 C 0.0249 0.2759 0.05139 0.0
C214 C 0.98006 0.31031 0.1263 0.0
C215 C 0.98746 0.257 0.02197 0.0
C216 C 0.91421 0.27229 0.08343 0.0
C217 C 0.90551 0.30326 0.07388 0.0
C218 C 0.9397 0.2644 0.08164 0.0
C219 C 0.95661 0.28807 0.06999 0.0
C220 C 0.94751 0.31831 0.05821 0.0
C221 C 0.9221 0.32553 0.06039 0.0
C222 C 0.94868 0.23175 0.09404 0.0
C223 C 0.96483 0.34415 0.0453 0.0
H224 H 0.02978 0.3125 0.12046 0.0
H225 H 0.03632 0.26838 0.03234 0.0
H226 H 0.97005 0.33302 0.11911 0.0
H227 H 0.96585 0.29196 0.13328 0.0
H228 H 0.99177 0.31644 0.14625 0.0
H229 H 0.00134 0.2428 0.00857 0.0
H230 H 0.97174 0.24045 0.02796 0.0
H231 H 0.97992 0.27703 0.00743 0.0
H232 H 0.90137 0.25495 0.09374 0.0
H233 H 0.91534 0.34931 0.05254 0.0
H234 H 0.95714 0.23569 0.11667 0.0
H235 H 0.96322 0.22089 0.0792 0.0
H236 H 0.93319 0.21376 0.09651 0.0
H237 H 0.97658 0.35443 0.06369 0.0
H238 H 0.95455 0.36484 0.03443 0.0
H239 H 0.97748 0.33298 0.02828 0.0
C240 C 0.97722 0.6723 0.55756 0.0
C241 C 0.96069 0.69895 0.55462 0.0
C242 C 0.003 0.67724 0.55847 0.0
C243 C 0.01264 0.70968 0.55604 0.0
C244 C 0.99614 0.73668 0.55204 0.0
C245 C 0.97025 0.73102 0.55157 0.0
C246 C 0.01988 0.64769 0.56295 0.0
C247 C 0.00578 0.77152 0.54894 0.0
C248 C 0.07589 0.71366 0.59304 0.0
C249 C 0.09151 0.70595 0.56858 0.0
C250 C 0.0502 0.71796 0.58887 0.0
C251 C 0.03995 0.71476 0.55948 0.0
C252 C 0.05599 0.71037 0.53433 0.0
C253 C 0.08164 0.70584 0.53919 0.0
C254 C 0.03382 0.72262 0.61634 0.0
C255 C 0.04586 0.7075 0.50257 0.0
H256 H 0.96999 0.64743 0.55988 0.0
H257 H 0.95753 0.75168 0.54919 0.0
H258 H 0.03364 0.6462 0.54426 0.0
H259 H 0.03046 0.65042 0.58439 0.0
H260 H 0.0094 0.62406 0.56385 0.0
H261 H 0.9908 0.78925 0.54275 0.0
H262 H 0.01419 0.77954 0.57066 0.0
H263 H 0.02064 0.77262 0.53149 0.0
H264 H 0.08345 0.7141 0.6158 0.0
H265 H 0.09367 0.70022 0.52015 0.0
H266 H 0.02386 0.69919 0.62124 0.0
H267 H 0.01955 0.74191 0.61214 0.0
H268 H 0.04475 0.72959 0.63672 0.0
H269 H 0.03749 0.68268 0.49949 0.0
H270 H 0.0607 0.71076 0.48528 0.0
H271 H 0.031 0.72607 0.49852 0.0
C272 C 0.92405 0.65834 0.91925 0.0
C273 C 0.9057 0.68284 0.92164 0.0
C274 C 0.94924 0.66576 0.92356 0.0
C275 C 0.95636 0.6986 0.9303 0.0
C276 C 0.93791 0.72341 0.93343 0.0
C277 C 0.91268 0.71521 0.92909 0.0
C278 C 0.9683 0.63845 0.9202 0.0
C279 C 0.94485 0.75866 0.9406 0.0
C280 C 0.02242 0.70071 0.95989 0.0
C281 C 0.03577 0.70418 0.93279 0.0
C282 C 0.99626 0.70185 0.96 0.0
C283 C 0.98333 0.70661 0.93238 0.0
C284 C 0.99684 0.71327 0.90554 0.0
C285 C 0.02293 0.71191 0.90607 0.0
C286 C 0.98253 0.69495 0.98915 0.0
C287 C 0.98379 0.71878 0.87566 0.0
H288 H 0.91876 0.63322 0.91373 0.0
H289 H 0.89852 0.7342 0.931 0.0
H290 H 0.98094 0.64408 0.90099 0.0
H291 H 0.97991 0.63671 0.94092 0.0
H292 H 0.95956 0.614 0.91608 0.0
H293 H 0.92823 0.77433 0.94495 0.0
H294 H 0.95722 0.75954 0.9607 0.0
H295 H 0.95537 0.76939 0.92133 0.0
H296 H 0.03227 0.69495 0.98066 0.0
H297 H 0.03319 0.71503 0.88511 0.0
H298 H 0.97551 0.66917 0.98887 0.0
H299 H 0.96619 0.71154 0.99158 0.0
H300 H 0.99478 0.69795 0.00924 0.0
H301 H 0.97615 0.69496 0.86743 0.0
H302 H 0.99662 0.72869 0.85812 0.0
H303 H 0.96794 0.73613 0.87836 0.0
C304 C 0.08943 0.27899 0.44589 0.0
C305 C 0.09672 0.2957 0.41951 0.0
C306 C 0.06405 0.27412 0.45253 0.0
C307 C 0.04572 0.28649 0.4324 0.0
C308 C 0.05311 0.30155 0.40489 0.0
C309 C 0.07849 0.30585 0.39876 0.0
C310 C 0.05689 0.25742 0.48182 0.0
C311 C 0.03421 0.31511 0.38275 0.0
C312 C 0.9765 0.26752 0.43453 0.0
C313 C 0.96712 0.29654 0.44763 0.0
C314 C 0.00231 0.26262 0.43134 0.0
C315 C 0.01898 0.28746 0.44126 0.0
C316 C 0.00959 0.31574 0.4563 0.0
C317 C 0.98379 0.31986 0.45939 0.0
C318 C 0.01163 0.23187 0.41568 0.0
C319 C 0.02667 0.34286 0.46722 0.0
H320 H 0.10346 0.27096 0.46195 0.0
H321 H 0.084 0.31853 0.37819 0.0
H322 H 0.04989 0.2762 0.49802 0.0
H323 H 0.04166 0.23939 0.47803 0.0
H324 H 0.07294 0.24443 0.49238 0.0
H325 H 0.04297 0.32381 0.36139 0.0
H326 H 0.02016 0.29601 0.37712 0.0
H327 H 0.02416 0.33619 0.39322 0.0
H328 H 0.96369 0.2493 0.42558 0.0
H329 H 0.97666 0.34223 0.46976 0.0
H330 H 0.02798 0.22146 0.42777 0.0
H331 H 0.01773 0.23822 0.39239 0.0
H332 H 0.99696 0.2126 0.41415 0.0
H333 H 0.04202 0.3324 0.48105 0.0
H334 H 0.01666 0.36166 0.48094 0.0
H335 H 0.03524 0.35542 0.44745 0.0
C336 C 0.42505 0.82276 0.08729 0.0
C337 C 0.40647 0.80437 0.07279 0.0
C338 C 0.45029 0.81577 0.0827 0.0
C339 C 0.45719 0.78978 0.06296 0.0
C340 C 0.43853 0.77026 0.04907 0.0
C341 C 0.41328 0.77777 0.05421 0.0
C342 C 0.46958 0.83706 0.09818 0.0
C343 C 0.44523 0.74235 0.02795 0.0
C344 C 0.52072 0.80704 0.03028 0.0
C345 C 0.53613 0.79 0.0506 0.0
C346 C 0.49474 0.8048 0.03235 0.0
C347 C 0.48396 0.78521 0.05545 0.0
C348 C 0.49943 0.76575 0.07437 0.0
C349 C 0.52544 0.76833 0.07168 0.0
C350 C 0.47891 0.82568 0.01149 0.0
C351 C 0.48864 0.74441 0.09914 0.0
H352 H 0.41988 0.84314 0.10192 0.0
H353 H 0.39893 0.76346 0.04302 0.0
H354 H 0.48298 0.82139 0.11083 0.0
H355 H 0.48031 0.85106 0.08095 0.0
H356 H 0.4611 0.85499 0.1142 0.0
H357 H 0.42876 0.72712 0.02189 0.0
H358 H 0.45334 0.75259 0.00683 0.0
H359 H 0.45954 0.72614 0.03838 0.0
H360 H 0.52894 0.82352 0.01369 0.0
H361 H 0.53731 0.75497 0.08734 0.0
H362 H 0.47104 0.84679 0.02436 0.0
H363 H 0.46306 0.81114 0.00249 0.0
H364 H 0.48981 0.83564 0.99214 0.0
H365 H 0.48238 0.76036 0.11811 0.0
H366 H 0.50252 0.72649 0.10806 0.0
H367 H 0.47214 0.73063 0.09086 0.0
C368 C 0.58983 0.20894 0.56004 0.0
C369 C 0.59866 0.19736 0.58798 0.0
C370 C 0.56418 0.2138 0.55521 0.0
C371 C 0.54714 0.20694 0.57891 0.0
C372 C 0.55624 0.19782 0.60782 0.0
C373 C 0.58187 0.19308 0.61197 0.0
C374 C 0.55523 0.22385 0.52415 0.0
C375 C 0.53878 0.19046 0.6338 0.0
C376 C 0.47755 0.22529 0.57545 0.0
C377 C 0.46809 0.19394 0.56844 0.0
C378 C 0.50343 0.23053 0.57763 0.0
C379 C 0.52002 0.20382 0.57255 0.0
C380 C 0.51046 0.17261 0.56401 0.0
C381 C 0.48468 0.16808 0.56215 0.0
C382 C 0.51294 0.26417 0.58665 0.0
C383 C 0.52744 0.14347 0.55817 0.0
H384 H 0.60277 0.21246 0.54146 0.0
H385 H 0.58864 0.18453 0.63375 0.0
H386 H 0.54736 0.20198 0.51244 0.0
H387 H 0.54021 0.24263 0.52581 0.0
H388 H 0.57058 0.23395 0.51004 0.0
H389 H 0.54885 0.18784 0.65566 0.0
H390 H 0.52464 0.2103 0.63612 0.0
H391 H 0.5287 0.16706 0.62922 0.0
H392 H 0.46477 0.24537 0.58024 0.0
H393 H 0.47748 0.14388 0.55636 0.0
H394 H 0.52857 0.27181 0.57177 0.0
H395 H 0.52023 0.26311 0.61014 0.0
H396 H 0.4981 0.2833 0.58564 0.0
H397 H 0.54195 0.15015 0.54137 0.0
H398 H 0.51713 0.12158 0.54965 0.0
H399 H 0.5371 0.13644 0.57944 0.0
C400 C 0.52731 0.19951 0.90831 0.0
C401 C 0.54075 0.199 0.93551 0.0
C402 C 0.50124 0.20073 0.90834 0.0
C403 C 0.48831 0.20116 0.93628 0.0
C404 C 0.50181 0.20256 0.9638 0.0
C405 C 0.52796 0.20157 0.96308 0.0
C406 C 0.48752 0.19956 0.8785 0.0
C407 C 0.48865 0.20301 0.99401 0.0
C408 C 0.4187 0.21788 0.93231 0.0
C409 C 0.40927 0.18564 0.93075 0.0
C410 C 0.44443 0.22349 0.93508 0.0
C411 C 0.46091 0.19619 0.93654 0.0
C412 C 0.45132 0.16363 0.93615 0.0
C413 C 0.42562 0.15877 0.93313 0.0
C414 C 0.45404 0.25852 0.9353 0.0
C415 C 0.46826 0.13384 0.93792 0.0
H416 H 0.53716 0.19783 0.88693 0.0
H417 H 0.53831 0.20125 0.98415 0.0
H418 H 0.47808 0.17533 0.87612 0.0
H419 H 0.47292 0.21896 0.87768 0.0
H420 H 0.50022 0.20297 0.85887 0.0
H421 H 0.50162 0.20836 0.01298 0.0
H422 H 0.47354 0.22173 0.99406 0.0
H423 H 0.47991 0.17858 0.99813 0.0
H424 H 0.40607 0.2387 0.93048 0.0
H425 H 0.41837 0.1338 0.93217 0.0
H426 H 0.4648 0.26324 0.91428 0.0
H427 H 0.46689 0.26229 0.95465 0.0
H428 H 0.43872 0.27694 0.93676 0.0
H429 H 0.48037 0.13294 0.91757 0.0
H430 H 0.4577 0.1103 0.93935 0.0
H431 H 0.48061 0.13569 0.95798 0.0
C432 C 0.46884 0.79073 0.4425 0.0
C433 C 0.4562 0.80517 0.41806 0.0
C434 C 0.495 0.78913 0.44289 0.0
C435 C 0.50868 0.80172 0.41799 0.0
C436 C 0.49585 0.81433 0.39244 0.0
C437 C 0.46978 0.81623 0.39294 0.0
C438 C 0.50799 0.77592 0.47069 0.0
C439 C 0.5097 0.82742 0.36518 0.0
C440 C 0.57186 0.8414 0.42845 0.0
C441 C 0.58794 0.81716 0.417 0.0
C442 C 0.54617 0.83589 0.43034 0.0
C443 C 0.5362 0.8056 0.41991 0.0
C444 C 0.55244 0.78053 0.40926 0.0
C445 C 0.57825 0.78651 0.40819 0.0
C446 C 0.5296 0.86306 0.44242 0.0
C447 C 0.54246 0.7481 0.3976 0.0
H448 H 0.45835 0.78219 0.46198 0.0
H449 H 0.46001 0.82708 0.37386 0.0
H450 H 0.52288 0.75824 0.46428 0.0
H451 H 0.51701 0.79664 0.48294 0.0
H452 H 0.49487 0.76342 0.48641 0.0
H453 H 0.49704 0.83261 0.34585 0.0
H454 H 0.51942 0.85065 0.3713 0.0
H455 H 0.52408 0.80947 0.35774 0.0
H456 H 0.57937 0.86501 0.43556 0.0
H457 H 0.59069 0.76779 0.39923 0.0
H458 H 0.51696 0.85321 0.46014 0.0
H459 H 0.51778 0.87291 0.42387 0.0
H460 H 0.54046 0.88383 0.45218 0.0
H461 H 0.52922 0.73717 0.41407 0.0
H462 H 0.55757 0.72998 0.39306 0.0
H463 H 0.53205 0.75245 0.37626 0.0
C464 C 0.16093 0.34597 0.16625 0.0
C465 C 0.14084 0.32542 0.15885 0.0
C466 C 0.16972 0.3479 0.19616 0.0
C467 C 0.15763 0.32957 0.21918 0.0
C468 C 0.1376 0.30838 0.21165 0.0
C469 C 0.12966 0.30624 0.18148 0.0
C470 C 0.19156 0.37005 0.20322 0.0
C471 C 0.12386 0.28895 0.23563 0.0
C472 C 0.18488 0.31335 0.2971 0.0
C473 C 0.17257 0.3373 0.31447 0.0
C474 C 0.18137 0.31173 0.26562 0.0
C475 C 0.16466 0.33402 0.25146 0.0
C476 C 0.15291 0.35898 0.2688 0.0
C477 C 0.15726 0.36055 0.30005 0.0
C478 C 0.19476 0.28538 0.24772 0.0
C479 C 0.13461 0.38284 0.25469 0.0
H480 H 0.16971 0.36063 0.14869 0.0
H481 H 0.11405 0.29046 0.1758 0.0
H482 H 0.18528 0.39113 0.21732 0.0
H483 H 0.20577 0.35632 0.21648 0.0
H484 H 0.20045 0.37998 0.18239 0.0
H485 H 0.10898 0.27312 0.2259 0.0
H486 H 0.13704 0.27301 0.24833 0.0
H487 H 0.11525 0.30617 0.25215 0.0
H488 H 0.19685 0.29547 0.3082 0.0
H489 H 0.14762 0.37902 0.31344 0.0
H490 H 0.20339 0.29621 0.22715 0.0
H491 H 0.18121 0.26645 0.2401 0.0
H492 H 0.20946 0.27291 0.26127 0.0
H493 H 0.14318 0.39551 0.235 0.0
H494 H 0.12807 0.40185 0.271 0.0
H495 H 0.11818 0.36905 0.2462 0.0
C496 C 0.87946 0.68977 0.67555 0.0
C497 C 0.86273 0.67929 0.65319 0.0
C498 C 0.87343 0.6872 0.70638 0.0
C499 C 0.84998 0.67424 0.71498 0.0
C500 C 0.83274 0.66445 0.69247 0.0
C501 C 0.83939 0.66689 0.66181 0.0
C502 C 0.8924 0.69762 0.72974 0.0
C503 C 0.80744 0.65091 0.70079 0.0
C504 C 0.84538 0.63659 0.79351 0.0
C505 C 0.83526 0.66278 0.81024 0.0
C506 C 0.84994 0.63985 0.76237 0.0
C507 C 0.84391 0.66987 0.74758 0.0
C508 C 0.83293 0.69602 0.76418 0.0
C509 C 0.82889 0.69223 0.7954 0.0
C510 C 0.86189 0.61152 0.7455 0.0
C511 C 0.82592 0.7282 0.74908 0.0
H512 H 0.89755 0.69928 0.66898 0.0
H513 H 0.82636 0.65888 0.64457 0.0
H514 H 0.88429 0.71657 0.74498 0.0
H515 H 0.89761 0.6761 0.744 0.0
H516 H 0.90957 0.70784 0.7193 0.0
H517 H 0.7957 0.64607 0.68056 0.0
H518 H 0.80965 0.62748 0.71358 0.0
H519 H 0.7975 0.66853 0.71577 0.0
H520 H 0.85042 0.61382 0.80492 0.0
H521 H 0.82098 0.7125 0.80826 0.0
H522 H 0.88018 0.6194 0.7363 0.0
H523 H 0.85011 0.60422 0.72598 0.0
H524 H 0.86482 0.58953 0.76016 0.0
H525 H 0.84291 0.74063 0.74047 0.0
H526 H 0.81616 0.74531 0.76478 0.0
H527 H 0.81368 0.72345 0.72932 0.0
C528 C 0.13007 0.68798 0.81816 0.0
C529 C 0.135 0.66222 0.83851 0.0
C530 C 0.13637 0.68514 0.78747 0.0
C531 C 0.14833 0.65608 0.77705 0.0
C532 C 0.15429 0.63056 0.79777 0.0
C533 C 0.14729 0.63378 0.82826 0.0
C534 C 0.12935 0.71269 0.76599 0.0
C535 C 0.16748 0.59953 0.78758 0.0
C536 C 0.13753 0.6354 0.6945 0.0
C537 C 0.15872 0.64896 0.68076 0.0
C538 C 0.13426 0.63679 0.72595 0.0
C539 C 0.15286 0.65159 0.74413 0.0
C540 C 0.17486 0.66392 0.73053 0.0
C541 C 0.17744 0.66273 0.6989 0.0
C542 C 0.11038 0.62374 0.73954 0.0
C543 C 0.1953 0.67926 0.7493 0.0
H544 H 0.12052 0.70998 0.82603 0.0
H545 H 0.1513 0.61394 0.84404 0.0
H546 H 0.14599 0.7213 0.75339 0.0
H547 H 0.11578 0.70341 0.74906 0.0
H548 H 0.12093 0.73414 0.77791 0.0
H549 H 0.17289 0.58351 0.80694 0.0
H550 H 0.15515 0.58519 0.77234 0.0
H551 H 0.18447 0.60593 0.77451 0.0
H552 H 0.12297 0.62478 0.68056 0.0
H553 H 0.19391 0.67309 0.68833 0.0
H554 H 0.09987 0.64432 0.75016 0.0
H555 H 0.11456 0.6055 0.7576 0.0
H556 H 0.09823 0.61178 0.72239 0.0
H557 H 0.18856 0.70275 0.75934 0.0
H558 H 0.21224 0.68456 0.73567 0.0
H559 H 0.20046 0.66265 0.7683 0.0
C560 C 0.85679 0.36446 0.2024 0.0
C561 C 0.8435 0.33865 0.18878 0.0
C562 C 0.86255 0.36361 0.23338 0.0
C563 C 0.85464 0.33643 0.25113 0.0
C564 C 0.84072 0.31068 0.23763 0.0
C565 C 0.8354 0.31204 0.20655 0.0
C566 C 0.87756 0.39142 0.24698 0.0
C567 C 0.83177 0.28146 0.25591 0.0
C568 C 0.88984 0.31657 0.32346 0.0
C569 C 0.87418 0.3303 0.34552 0.0
C570 C 0.88375 0.31856 0.29261 0.0
C571 C 0.86143 0.33452 0.2837 0.0
C572 C 0.84557 0.34845 0.30589 0.0
C573 C 0.85217 0.34624 0.33656 0.0
C574 C 0.90119 0.30354 0.26956 0.0
C575 C 0.82157 0.36554 0.29723 0.0
H576 H 0.86315 0.38503 0.18871 0.0
H577 H 0.82507 0.29206 0.19611 0.0
H578 H 0.86731 0.40254 0.26627 0.0
H579 H 0.89541 0.38165 0.25599 0.0
H580 H 0.88176 0.41116 0.23024 0.0
H581 H 0.82034 0.26414 0.24223 0.0
H582 H 0.84797 0.26774 0.26519 0.0
H583 H 0.82049 0.29005 0.27544 0.0
H584 H 0.90689 0.30428 0.33029 0.0
H585 H 0.84 0.35687 0.35356 0.0
H586 H 0.90729 0.3227 0.25318 0.0
H587 H 0.89134 0.28414 0.25649 0.0
H588 H 0.91797 0.29237 0.28019 0.0
H589 H 0.82552 0.38646 0.28172 0.0
H590 H 0.81132 0.37512 0.31725 0.0
H591 H 0.80929 0.34811 0.28489 0.0
C592 C 0.66292 0.81064 0.29293 0.0
C593 C 0.66027 0.84069 0.30836 0.0
C594 C 0.65864 0.80858 0.26165 0.0
C595 C 0.65142 0.83725 0.24548 0.0
C596 C 0.64952 0.86789 0.26076 0.0
C597 C 0.65403 0.86926 0.29205 0.0
C598 C 0.66104 0.77551 0.24611 0.0
C599 C 0.64183 0.89898 0.24429 0.0
C600 C 0.65541 0.83638 0.15952 0.0
C601 C 0.63077 0.82891 0.15153 0.0
C602 C 0.66245 0.83928 0.19004 0.0
C603 C 0.64436 0.83474 0.213 0.0
C604 C 0.61943 0.8274 0.20502 0.0
C605 C 0.61295 0.82449 0.17438 0.0
C606 C 0.68923 0.84697 0.19771 0.0
C607 C 0.59959 0.82251 0.22887 0.0
H608 H 0.66784 0.7885 0.30542 0.0
H609 H 0.65196 0.89256 0.30388 0.0
H610 H 0.64252 0.76745 0.23779 0.0
H611 H 0.67347 0.77757 0.22612 0.0
H612 H 0.66853 0.75612 0.26144 0.0
H613 H 0.64278 0.92118 0.25902 0.0
H614 H 0.65394 0.90302 0.22426 0.0
H615 H 0.62245 0.89633 0.23589 0.0
H616 H 0.66926 0.83979 0.14192 0.0
H617 H 0.59387 0.81878 0.16832 0.0
H618 H 0.69719 0.82681 0.21175 0.0
H619 H 0.69023 0.86997 0.2113 0.0
H620 H 0.70097 0.85004 0.17718 0.0
H621 H 0.60473 0.80157 0.24385 0.0
H622 H 0.58099 0.81743 0.21886 0.0
H623 H 0.59817 0.84487 0.24329 0.0
C624 C 0.3313 0.15451 0.79936 0.0
C625 C 0.34292 0.17619 0.81959 0.0
C626 C 0.33692 0.15538 0.76831 0.0
C627 C 0.35508 0.17787 0.7575 0.0
C628 C 0.36671 0.19999 0.77786 0.0
C629 C 0.36025 0.19915 0.80862 0.0
C630 C 0.32369 0.13196 0.74714 0.0
C631 C 0.38654 0.22383 0.76733 0.0
C632 C 0.3881 0.15542 0.68429 0.0
C633 C 0.3766 0.17675 0.66357 0.0
C634 C 0.38152 0.15588 0.71504 0.0
C635 C 0.3625 0.17758 0.72506 0.0
C636 C 0.35072 0.19903 0.70414 0.0
C637 C 0.35816 0.19867 0.67367 0.0
C638 C 0.39494 0.13322 0.7368 0.0
C639 C 0.33 0.22196 0.71386 0.0
H640 H 0.31782 0.13682 0.80781 0.0
H641 H 0.36943 0.21577 0.82429 0.0
H642 H 0.31514 0.14591 0.72815 0.0
H643 H 0.33729 0.1144 0.73717 0.0
H644 H 0.30891 0.11758 0.7588 0.0
H645 H 0.39357 0.23965 0.786 0.0
H646 H 0.40245 0.20991 0.75759 0.0
H647 H 0.37908 0.24 0.74917 0.0
H648 H 0.40243 0.13854 0.67649 0.0
H649 H 0.34908 0.21496 0.65758 0.0
H650 H 0.38153 0.11579 0.74726 0.0
H651 H 0.40336 0.14786 0.7554 0.0
H652 H 0.40988 0.1187 0.72555 0.0
H653 H 0.31459 0.20747 0.72407 0.0
H654 H 0.32244 0.23664 0.69466 0.0
H655 H 0.33684 0.23923 0.73147 0.0
C656 C 0.63411 0.19361 0.82434 0.0
C657 C 0.64674 0.17633 0.84717 0.0
C658 C 0.6415 0.19101 0.79401 0.0
C659 C 0.66235 0.17119 0.78644 0.0
C660 C 0.67589 0.1549 0.80958 0.0
C661 C 0.66772 0.15736 0.83971 0.0
C662 C 0.62633 0.20833 0.76993 0.0
C663 C 0.69853 0.13418 0.80242 0.0
C664 C 0.66117 0.13632 0.70695 0.0
C665 C 0.67523 0.15975 0.69103 0.0
C666 C 0.65755 0.13916 0.73826 0.0
C667 C 0.66868 0.16571 0.75409 0.0
C668 C 0.68409 0.18836 0.73841 0.0
C669 C 0.68697 0.18532 0.70692 0.0
C670 C 0.64069 0.11475 0.75407 0.0
C671 C 0.69673 0.21652 0.75467 0.0
H672 H 0.61783 0.20822 0.83004 0.0
H673 H 0.67762 0.14416 0.85739 0.0
H674 H 0.63848 0.22441 0.75596 0.0
H675 H 0.6179 0.18976 0.75456 0.0
H676 H 0.61116 0.22368 0.77969 0.0
H677 H 0.70847 0.12605 0.8232 0.0
H678 H 0.69285 0.11194 0.78951 0.0
H679 H 0.71167 0.14829 0.78795 0.0
H680 H 0.65201 0.11655 0.69473 0.0
H681 H 0.69799 0.20336 0.69467 0.0
H682 H 0.62393 0.12776 0.76275 0.0
H683 H 0.65033 0.10366 0.77383 0.0
H684 H 0.63453 0.09455 0.73881 0.0
H685 H 0.68255 0.23472 0.76218 0.0
H686 H 0.71044 0.22943 0.74001 0.0
H687 H 0.70642 0.20735 0.77523 0.0
C688 C 0.34772 0.8503 0.19309 0.0
C689 C 0.33433 0.82671 0.17662 0.0
C690 C 0.35177 0.84641 0.22422 0.0
C691 C 0.34163 0.81865 0.23936 0.0
C692 C 0.32753 0.79516 0.22298 0.0
C693 C 0.32432 0.79925 0.19164 0.0
C694 C 0.3673 0.8717 0.2408 0.0
C695 C 0.31589 0.76575 0.23854 0.0
C696 C 0.37234 0.79619 0.314 0.0
C697 C 0.35753 0.81377 0.33452 0.0
C698 C 0.36696 0.7967 0.28289 0.0
C699 C 0.34592 0.8145 0.27237 0.0
C700 C 0.33011 0.83067 0.2933 0.0
C701 C 0.33632 0.8305 0.32412 0.0
C702 C 0.38452 0.77972 0.26117 0.0
C703 C 0.30716 0.84917 0.28305 0.0
H704 H 0.35568 0.8714 0.18145 0.0
H705 H 0.3139 0.78103 0.17889 0.0
H706 H 0.35611 0.88342 0.25898 0.0
H707 H 0.38346 0.85944 0.25179 0.0
H708 H 0.37437 0.8914 0.22552 0.0
H709 H 0.30466 0.75046 0.22276 0.0
H710 H 0.33062 0.74999 0.24865 0.0
H711 H 0.30371 0.77419 0.25732 0.0
H712 H 0.38882 0.7834 0.32207 0.0
H713 H 0.32474 0.84386 0.34009 0.0
H714 H 0.39376 0.79849 0.24669 0.0
H715 H 0.37409 0.76292 0.24596 0.0
H716 H 0.39913 0.76524 0.2731 0.0
H717 H 0.31274 0.87146 0.2701 0.0
H718 H 0.29536 0.85709 0.30241 0.0
H719 H 0.29581 0.83354 0.26773 0.0
C720 C 0.2743 0.23298 0.97567 0.0
C721 C 0.27283 0.21872 0.94683 0.0
C722 C 0.253 0.24556 0.98998 0.0
C723 C 0.22977 0.24421 0.97487 0.0
C724 C 0.22827 0.23057 0.94544 0.0
C725 C 0.24983 0.21777 0.93181 0.0
C726 C 0.25529 0.25977 0.02148 0.0
C727 C 0.20386 0.22921 0.92849 0.0
C728 C 0.17176 0.24951 0.02386 0.0
C729 C 0.16612 0.28324 0.02191 0.0
C730 C 0.19225 0.23628 0.00823 0.0
C731 C 0.20711 0.25727 0.98998 0.0
C732 C 0.20096 0.29112 0.98719 0.0
C733 C 0.18064 0.30374 0.00337 0.0
C734 C 0.19842 0.2001 0.01193 0.0
C735 C 0.21615 0.31416 0.9676 0.0
H736 H 0.29202 0.23357 0.98743 0.0
H737 H 0.24864 0.20676 0.90949 0.0
H738 H 0.24892 0.28585 0.0216 0.0
H739 H 0.24312 0.24589 0.03732 0.0
H740 H 0.27472 0.25883 0.03012 0.0
H741 H 0.206 0.21866 0.90542 0.0
H742 H 0.19027 0.21397 0.94124 0.0
H743 H 0.19582 0.25439 0.92648 0.0
H744 H 0.16056 0.23365 0.03822 0.0
H745 H 0.17619 0.32981 0.00162 0.0
H746 H 0.21703 0.19742 0.02261 0.0
H747 H 0.19935 0.18792 0.98946 0.0
H748 H 0.18451 0.18691 0.02611 0.0
H749 H 0.23535 0.31612 0.97673 0.0
H750 H 0.20796 0.33935 0.96642 0.0
H751 H 0.21764 0.30416 0.94428 0.0
C752 C 0.83023 0.72734 0.48199 0.0
C753 C 0.83384 0.73474 0.51269 0.0
C754 C 0.80982 0.7403 0.46602 0.0
C755 C 0.79283 0.76144 0.48105 0.0
C756 C 0.79695 0.77001 0.51173 0.0
C757 C 0.81734 0.75639 0.52724 0.0
C758 C 0.80597 0.73043 0.43339 0.0
C759 C 0.77944 0.79288 0.5284 0.0
C760 C 0.74951 0.8157 0.43461 0.0
C761 C 0.72691 0.79848 0.43683 0.0
C762 C 0.77117 0.80381 0.44868 0.0
C763 C 0.77027 0.77377 0.46505 0.0
C764 C 0.74765 0.75585 0.46675 0.0
C765 C 0.72617 0.76855 0.45278 0.0
C766 C 0.79487 0.82377 0.44662 0.0
C767 C 0.74606 0.7235 0.48369 0.0
H768 H 0.84287 0.71046 0.47068 0.0
H769 H 0.82009 0.7622 0.55096 0.0
H770 H 0.78831 0.7164 0.43121 0.0
H771 H 0.80426 0.75272 0.4189 0.0
H772 H 0.82145 0.7149 0.42463 0.0
H773 H 0.78608 0.79861 0.55164 0.0
H774 H 0.77725 0.81638 0.51572 0.0
H775 H 0.76074 0.78139 0.53006 0.0
H776 H 0.75015 0.83894 0.42242 0.0
H777 H 0.70876 0.75514 0.45449 0.0
H778 H 0.81009 0.80849 0.43698 0.0
H779 H 0.80081 0.83143 0.46963 0.0
H780 H 0.7926 0.84625 0.43242 0.0
H781 H 0.7602 0.70593 0.47488 0.0
H782 H 0.72737 0.71193 0.48178 0.0
H783 H 0.75022 0.72755 0.50801 0.0
C784 C 0.24898 0.78666 0.06021 0.0
C785 C 0.27141 0.78925 0.04412 0.0
C786 C 0.22766 0.77327 0.04661 0.0
C787 C 0.22877 0.76276 0.01609 0.0
C788 C 0.25131 0.76567 -0.00036 0.0
C789 C 0.27245 0.77865 0.01396 0.0
C790 C 0.20406 0.76999 0.065 0.0
C791 C 0.2531 0.75503 0.96694 0.0
C792 C 0.18359 0.6981 0.98779 0.0
C793 C 0.16597 0.71744 0.97244 0.0
C794 C 0.20379 0.71266 0.00269 0.0
C795 C 0.20668 0.74737 0.00168 0.0
C796 C 0.18884 0.7671 0.98639 0.0
C797 C 0.16847 0.75187 0.97216 0.0
C798 C 0.22216 0.69086 0.01926 0.0
C799 C 0.19158 0.80417 0.98452 0.0
H800 H 0.24815 0.79486 0.08355 0.0
H801 H 0.28972 0.78091 0.0014 0.0
H802 H 0.18861 0.78346 0.05376 0.0
H803 H 0.19854 0.74361 0.06636 0.0
H804 H 0.20623 0.77971 0.08836 0.0
H805 H 0.27168 0.76034 0.95697 0.0
H806 H 0.2495 0.72813 0.9651 0.0
H807 H 0.23868 0.76787 0.95328 0.0
H808 H 0.18155 0.67146 0.98825 0.0
H809 H 0.15488 0.76679 0.96018 0.0
H810 H 0.22397 0.69903 0.04314 0.0
H811 H 0.24083 0.69299 0.00869 0.0
H812 H 0.21654 0.66444 0.01907 0.0
H813 H 0.19258 0.81488 0.0076 0.0
H814 H 0.1759 0.81598 0.97215 0.0
H815 H 0.20925 0.81046 0.97283 0.0
C816 C 0.73627 0.23385 0.55109 0.0
C817 C 0.73545 0.20098 0.56099 0.0
C818 C 0.75763 0.24649 0.53687 0.0
C819 C 0.77856 0.22568 0.53241 0.0
C820 C 0.77796 0.19263 0.5428 0.0
C821 C 0.75642 0.1807 0.55702 0.0
C822 C 0.75767 0.28194 0.52618 0.0
C823 C 0.79988 0.16969 0.53838 0.0
C824 C 0.82248 0.24911 0.46864 0.0
C825 C 0.84162 0.26517 0.48437 0.0
C826 C 0.80208 0.23554 0.48408 0.0
C827 C 0.8008 0.23821 0.516 0.0
C828 C 0.82046 0.25347 0.5321 0.0
C829 C 0.8407 0.26673 0.51607 0.0
C830 C 0.78156 0.21916 0.46616 0.0
C831 C 0.81974 0.2567 0.56615 0.0
H832 H 0.72011 0.2496 0.55415 0.0
H833 H 0.75589 0.15524 0.56463 0.0
H834 H 0.77373 0.29534 0.53611 0.0
H835 H 0.75985 0.28275 0.50121 0.0
H836 H 0.74026 0.29519 0.53236 0.0
H837 H 0.79672 0.145 0.54868 0.0
H838 H 0.80354 0.1664 0.51384 0.0
H839 H 0.8169 0.1806 0.5485 0.0
H840 H 0.82311 0.24786 0.44413 0.0
H841 H 0.85542 0.27923 0.52833 0.0
H842 H 0.76392 0.23311 0.4691 0.0
H843 H 0.77832 0.19374 0.4747 0.0
H844 H 0.78592 0.21785 0.44159 0.0
H845 H 0.80365 0.27228 0.5729 0.0
H846 H 0.83703 0.26793 0.57536 0.0
H847 H 0.8171 0.2321 0.57676 0.0
C848 C 0.67601 0.73846 0.02843 0.0
C849 C 0.65936 0.75937 0.01324 0.0
C850 C 0.69642 0.72449 0.01325 0.0
C851 C 0.70034 0.73198 0.98228 0.0
C852 C 0.68304 0.75208 0.96657 0.0
C853 C 0.66265 0.76538 0.98222 0.0
C854 C 0.71428 0.7027 0.0306 0.0
C855 C 0.68667 0.76073 0.93358 0.0
C856 C 0.76689 0.72741 0.95358 0.0
C857 C 0.76684 0.69715 0.93824 0.0
C858 C 0.74523 0.73924 0.9677 0.0
C859 C 0.72316 0.72011 0.9667 0.0
C860 C 0.72297 0.68966 0.95103 0.0
C861 C 0.7448 0.67863 0.93682 0.0
C862 C 0.74602 0.77206 0.98391 0.0
C863 C 0.69984 0.66849 0.94972 0.0
H864 H 0.67348 0.73372 0.0524 0.0
H865 H 0.64985 0.78163 0.97039 0.0
H866 H 0.71714 0.67902 0.01845 0.0
H867 H 0.73269 0.71501 0.03224 0.0
H868 H 0.70755 0.69725 0.05386 0.0
H869 H 0.67078 0.77511 0.92426 0.0
H870 H 0.70392 0.77554 0.9309 0.0
H871 H 0.68903 0.73797 0.91991 0.0
H872 H 0.78389 0.74178 0.95469 0.0
H873 H 0.74472 0.6551 0.92511 0.0
H874 H 0.74181 0.76847 0.00829 0.0
H875 H 0.73155 0.78883 0.97459 0.0
H876 H 0.76445 0.78432 0.98185 0.0
H877 H 0.69409 0.66146 0.97299 0.0
H878 H 0.70273 0.6456 0.9363 0.0
H879 H 0.68423 0.68265 0.93957 0.0
C880 C 0.34087 0.23011 0.49198 0.0
C881 C 0.33688 0.21976 0.52188 0.0
C882 C 0.32134 0.24377 0.47481 0.0
C883 C 0.29751 0.24767 0.48815 0.0
C884 C 0.29359 0.23782 0.51854 0.0
C885 C 0.31327 0.22372 0.53492 0.0
C886 C 0.32608 0.25357 0.44233 0.0
C887 C 0.26859 0.24215 0.53378 0.0
C888 C 0.25152 0.31013 0.45678 0.0
C889 C 0.23413 0.28963 0.44241 0.0
C890 C 0.27259 0.29686 0.47113 0.0
C891 C 0.27656 0.2623 0.47062 0.0
C892 C 0.25954 0.24158 0.45516 0.0
C893 C 0.23836 0.25549 0.44146 0.0
C894 C 0.29006 0.31972 0.4878 0.0
C895 C 0.26338 0.20466 0.45374 0.0
H896 H 0.35908 0.22684 0.48179 0.0
H897 H 0.31016 0.21586 0.55809 0.0
H898 H 0.31339 0.23972 0.42713 0.0
H899 H 0.32203 0.28023 0.43914 0.0
H900 H 0.34561 0.24873 0.43527 0.0
H901 H 0.26883 0.23396 0.5578 0.0
H902 H 0.26289 0.2685 0.53299 0.0
H903 H 0.25419 0.22778 0.52152 0.0
H904 H 0.2483 0.33656 0.45763 0.0
H905 H 0.22502 0.23961 0.43018 0.0
H906 H 0.30947 0.31605 0.47984 0.0
H907 H 0.28972 0.31387 0.51235 0.0
H908 H 0.285 0.34614 0.48477 0.0
H909 H 0.28244 0.19893 0.4455 0.0
H910 H 0.24965 0.19238 0.43868 0.0
H911 H 0.26163 0.19392 0.47677 0.0
C912 C 0.76868 0.26652 0.04585 0.0
C913 C 0.7683 0.29444 0.06455 0.0
C914 C 0.74679 0.25496 0.03222 0.0
C915 C 0.72406 0.27191 0.03728 0.0
C916 C 0.72347 0.29971 0.05664 0.0
C917 C 0.74563 0.31059 0.07015 0.0
C918 C 0.74806 0.22499 0.01191 0.0
C919 C 0.69959 0.31843 0.06244 0.0
C920 C 0.67579 0.2589 0.97592 0.0
C921 C 0.66121 0.23376 0.9886 0.0
C922 C 0.69567 0.2727 0.99214 0.0
C923 C 0.70111 0.26086 0.02159 0.0
C924 C 0.68564 0.23671 0.03508 0.0
C925 C 0.66578 0.22351 0.01844 0.0
C926 C 0.7116 0.29876 0.97717 0.0
C927 C 0.69087 0.22349 0.06644 0.0
H928 H 0.78617 0.25396 0.04151 0.0
H929 H 0.74527 0.33227 0.08455 0.0
H930 H 0.7347 0.20594 0.0198 0.0
H931 H 0.74264 0.23193 0.98851 0.0
H932 H 0.767 0.2139 0.01127 0.0
H933 H 0.70211 0.33873 0.07906 0.0
H934 H 0.6926 0.32914 0.04091 0.0
H935 H 0.68501 0.30142 0.07101 0.0
H936 H 0.67225 0.26695 0.9529 0.0
H937 H 0.65453 0.20408 0.02835 0.0
H938 H 0.73043 0.28855 0.97266 0.0
H939 H 0.71392 0.32031 0.99241 0.0
H940 H 0.70353 0.30745 0.9554 0.0
H941 H 0.70857 0.2093 0.06622 0.0
H942 H 0.67578 0.20702 0.07472 0.0
H943 H 0.6932 0.24409 0.08273 0.0
C944 C 0.23729 0.68294 0.52951 0.0
C945 C 0.22283 0.70168 0.54963 0.0
C946 C 0.25816 0.69658 0.51516 0.0
C947 C 0.26493 0.72964 0.5214 0.0
C948 C 0.25085 0.74841 0.5424 0.0
C949 C 0.2298 0.73425 0.55613 0.0
C950 C 0.27248 0.67594 0.49259 0.0
C951 C 0.25773 0.78362 0.54988 0.0
C952 C 0.32981 0.75762 0.49819 0.0
C953 C 0.32471 0.77449 0.47117 0.0
C954 C 0.31049 0.74313 0.51507 0.0
C955 C 0.28566 0.74523 0.50432 0.0
C956 C 0.28054 0.76183 0.47681 0.0
C957 C 0.30011 0.77644 0.46068 0.0
C958 C 0.31656 0.72589 0.54448 0.0
C959 C 0.25438 0.76414 0.46434 0.0
H960 H 0.23195 0.65772 0.52441 0.0
H961 H 0.21875 0.74871 0.57184 0.0
H962 H 0.27105 0.68726 0.46976 0.0
H963 H 0.29253 0.67527 0.49867 0.0
H964 H 0.26546 0.65017 0.49132 0.0
H965 H 0.24604 0.79397 0.56835 0.0
H966 H 0.27758 0.78503 0.55674 0.0
H967 H 0.25546 0.79936 0.52948 0.0
H968 H 0.34881 0.75628 0.50642 0.0
H969 H 0.29611 0.78939 0.43973 0.0
H970 H 0.31068 0.69965 0.54337 0.0
H971 H 0.30606 0.73753 0.56332 0.0
H972 H 0.33676 0.72677 0.54987 0.0
H973 H 0.24665 0.739 0.46099 0.0
H974 H 0.25363 0.77757 0.44241 0.0
H975 H 0.24213 0.77705 0.48075 0.0
C976 C 0.11605 0.56368 0.98511 0.0
C977 C 0.09734 0.57643 0.96634 0.0
C978 C 0.11397 0.53207 0.99775 0.0
C979 C 0.09233 0.51312 0.99211 0.0
C980 C 0.07306 0.52618 0.97374 0.0
C981 C 0.07595 0.55762 0.96067 0.0
C982 C 0.1352 0.51873 0.01666 0.0
C983 C 0.04946 0.50697 0.96788 0.0
C984 C 0.1007 0.42078 0.00149 0.0
C985 C 0.09351 0.41625 0.03171 0.0
C986 C 0.09958 0.45206 0.98792 0.0
C987 C 0.09048 0.47922 0.00481 0.0
C988 C 0.08186 0.47438 0.0348 0.0
C989 C 0.08382 0.44296 0.04808 0.0
C990 C 0.10946 0.45635 0.95613 0.0
C991 C 0.07144 0.5026 0.05321 0.0
H992 H 0.13267 0.57816 0.98936 0.0
H993 H 0.06139 0.56762 0.94631 0.0
H994 H 0.12853 0.51275 0.03979 0.0
H995 H 0.14234 0.49549 0.00654 0.0
H996 H 0.15087 0.53651 0.01852 0.0
H997 H 0.03571 0.52136 0.95445 0.0
H998 H 0.05388 0.48388 0.95547 0.0
H999 H 0.04075 0.49971 0.98969 0.0
H1000 H 0.10828 0.40014 0.98883 0.0
H1001 H 0.07805 0.43938 0.07138 0.0
H1002 H 0.12631 0.47221 0.95663 0.0
H1003 H 0.09547 0.46897 0.94169 0.0
H1004 H 0.11446 0.4324 0.94545 0.0
H1005 H 0.08659 0.52012 0.05894 0.0
H1006 H 0.06271 0.49396 0.07461 0.0
H1007 H 0.05734 0.51645 0.03987 0.0
C1008 C 0.88858 0.55594 0.54699 0.0
C1009 C 0.87693 0.58176 0.53125 0.0
C1010 C 0.88917 0.52387 0.53505 0.0
C1011 C 0.87755 0.51748 0.50688 0.0
C1012 C 0.8651 0.54325 0.49133 0.0
C1013 C 0.86507 0.57519 0.50364 0.0
C1014 C 0.9028 0.49704 0.55215 0.0
C1015 C 0.85224 0.53722 0.46144 0.0
C1016 C 0.90121 0.44423 0.46172 0.0
C1017 C 0.88367 0.41991 0.4691 0.0
C1018 C 0.89932 0.4762 0.4737 0.0
C1019 C 0.87924 0.48405 0.49323 0.0
C1020 C 0.8612 0.45977 0.50026 0.0
C1021 C 0.86371 0.42788 0.48824 0.0
C1022 C 0.91905 0.50139 0.46592 0.0
C1023 C 0.83939 0.4674 0.52072 0.0
H1024 H 0.89785 0.56096 0.5683 0.0
H1025 H 0.85597 0.5951 0.49147 0.0
H1026 H 0.89018 0.47589 0.55649 0.0
H1027 H 0.91854 0.48769 0.53828 0.0
H1028 H 0.91027 0.50589 0.57416 0.0
H1029 H 0.8422 0.55947 0.45311 0.0
H1030 H 0.86615 0.52978 0.44415 0.0
H1031 H 0.83873 0.51664 0.46366 0.0
H1032 H 0.9167 0.43811 0.44698 0.0
H1033 H 0.85006 0.40915 0.49389 0.0
H1034 H 0.92856 0.5097 0.48688 0.0
H1035 H 0.91034 0.52348 0.45544 0.0
H1036 H 0.93329 0.49143 0.4501 0.0
H1037 H 0.84621 0.47416 0.5436 0.0
H1038 H 0.82643 0.44614 0.52294 0.0
H1039 H 0.82886 0.48893 0.51182 0.0
C1040 C 0.84094 0.42572 0.01719 0.0
C1041 C 0.82672 0.42259 0.04364 0.0
C1042 C 0.84025 0.45478 -2e-05 0.0
C1043 C 0.82452 0.48103 0.00912 0.0
C1044 C 0.80963 0.47769 0.03543 0.0
C1045 C 0.81114 0.44857 0.05264 0.0
C1046 C 0.85678 0.45768 0.97242 0.0
C1047 C 0.79227 0.50495 0.04547 0.0
C1048 C 0.84186 0.56685 0.98214 0.0
C1049 C 0.82675 0.57032 0.95647 0.0
C1050 C 0.84112 0.538 -0.00033 0.0
C1051 C 0.82446 0.51238 0.99167 0.0
C1052 C 0.80867 0.51613 0.96622 0.0
C1053 C 0.81021 0.54498 0.94866 0.0
C1054 C 0.85862 0.5346 0.02629 0.0
C1055 C 0.79033 0.48958 0.9574 0.0
H1056 H 0.85311 0.40568 0.0103 0.0
H1057 H 0.80002 0.44605 0.073 0.0
H1058 H 0.84536 0.46282 0.95202 0.0
H1059 H 0.8698 0.47873 0.97526 0.0
H1060 H 0.86786 0.43491 0.96834 0.0
H1061 H 0.7809 0.49769 0.06542 0.0
H1062 H 0.80317 0.52729 0.05139 0.0
H1063 H 0.77956 0.51185 0.02668 0.0
H1064 H 0.85472 0.58641 0.98814 0.0
H1065 H 0.79836 0.54781 0.92895 0.0
H1066 H 0.87119 0.51316 0.02274 0.0
H1067 H 0.8479 0.52981 0.04731 0.0
H1068 H 0.87019 0.55703 0.02972 0.0
H1069 H 0.80049 0.46681 0.9508 0.0
H1070 H 0.77824 0.49726 0.93822 0.0
H1071 H 0.77833 0.48318 0.97701 0.0
C1072 C 0.17483 0.44674 0.45165 0.0
C1073 C 0.16264 0.41769 0.4605 0.0
C1074 C 0.17307 0.47554 0.46916 0.0
C1075 C 0.15864 0.47528 0.49601 0.0
C1076 C 0.1462 0.44606 0.50497 0.0
C1077 C 0.14842 0.41754 0.48713 0.0
C1078 C 0.18672 0.50621 0.45898 0.0
C1079 C 0.13052 0.44495 0.53336 0.0
C1080 C 0.17304 0.54154 0.5541 0.0
C1081 C 0.15488 0.56536 0.54739 0.0
C1082 C 0.17419 0.51176 0.53793 0.0
C1083 C 0.15664 0.50566 0.51467 0.0
C1084 C 0.13778 0.52919 0.50847 0.0
C1085 C 0.13718 0.55884 0.52486 0.0
C1086 C 0.19462 0.48728 0.54511 0.0
C1087 C 0.11863 0.52339 0.484 0.0
H1088 H 0.18588 0.44693 0.43111 0.0
H1089 H 0.13892 0.39514 0.49401 0.0
H1090 H 0.17329 0.52671 0.45543 0.0
H1091 H 0.19995 0.51422 0.47683 0.0
H1092 H 0.19726 0.50225 0.43764 0.0
H1093 H 0.12188 0.42034 0.53702 0.0
H1094 H 0.14215 0.45102 0.55335 0.0
H1095 H 0.11553 0.46379 0.53206 0.0
H1096 H 0.18679 0.54651 0.57148 0.0
H1097 H 0.12306 0.57717 0.51966 0.0
H1098 H 0.20696 0.48432 0.52513 0.0
H1099 H 0.1865 0.46269 0.55015 0.0
H1100 H 0.20614 0.49513 0.56472 0.0
H1101 H 0.12797 0.522 0.46163 0.0
H1102 H 0.10438 0.54331 0.48315 0.0
H1103 H 0.10908 0.49944 0.48775 0.0
C1104 C 0.59932 0.05517 0.95693 0.0
C1105 C 0.61852 0.07727 0.964 0.0
C1106 C 0.59901 0.02319 0.9692 0.0
C1107 C 0.61826 0.0133 0.98918 0.0
C1108 C 0.63779 0.03544 0.99621 0.0
C1109 C 0.63774 0.06715 0.98342 0.0
C1110 C 0.57802 8e-05 0.96097 0.0
C1111 C 0.65854 0.0258 0.01758 0.0
C1112 C 0.60464 0.94236 0.04291 0.0
C1113 C 0.61655 0.91598 0.02832 0.0
C1114 C 0.60527 0.9743 0.03057 0.0
C1115 C 0.6179 0.9798 0.00287 0.0
C1116 C 0.63008 0.95328 0.98814 0.0
C1117 C 0.62936 0.92169 0.00114 0.0
C1118 C 0.59229 0.00211 0.04705 0.0
C1119 C 0.64358 0.95818 0.95847 0.0
H1120 H 0.58444 0.06293 0.94191 0.0
H1121 H 0.65258 0.08422 0.98903 0.0
H1122 H 0.58565 0.97704 0.951 0.0
H1123 H 0.56755 0.993 0.98164 0.0
H1124 H 0.5648 0.01133 0.94456 0.0
H1125 H 0.67241 0.04589 0.02057 0.0
H1126 H 0.65069 0.01938 0.04007 0.0
H1127 H 0.66831 0.00354 0.00896 0.0
H1128 H 0.59475 0.93802 0.06395 0.0
H1129 H 0.63851 0.90131 0.98973 0.0
H1130 H 0.57742 0.0127 0.03252 0.0
H1131 H 0.60572 0.02223 0.05192 0.0
H1132 H 0.58381 0.99385 0.06872 0.0
H1133 H 0.63041 0.96751 0.94108 0.0
H1134 H 0.6522 0.93498 0.95001 0.0
H1135 H 0.65839 0.97704 0.96112 0.0
C1136 C 0.39444 0.92358 0.49186 0.0
C1137 C 0.38096 0.91827 0.46515 0.0
C1138 C 0.39504 0.9549 0.50543 0.0
C1139 C 0.38141 0.98121 0.49225 0.0
C1140 C 0.36737 0.97576 0.4656 0.0
C1141 C 0.36752 0.94439 0.45219 0.0
C1142 C 0.4106 0.95997 0.53353 0.0
C1143 C 0.35228 0.0031 0.4512 0.0
C1144 C 0.36682 0.05562 0.54147 0.0
C1145 C 0.3846 0.07838 0.53131 0.0
C1146 C 0.36536 0.02393 0.52873 0.0
C1147 C 0.38244 0.01472 0.50579 0.0
C1148 C 0.40054 0.03758 0.49562 0.0
C1149 C 0.40123 0.06928 0.50831 0.0
C1150 C 0.34553 0.00036 0.5397 0.0
C1151 C 0.41933 0.02846 0.47156 0.0
H1152 H 0.40492 0.9034 0.50184 0.0
H1153 H 0.35693 0.94024 0.43164 0.0
H1154 H 0.42502 0.97901 0.52915 0.0
H1155 H 0.39875 0.96919 0.5523 0.0
H1156 H 0.41998 0.93689 0.54103 0.0
H1157 H 0.34145 0.99438 0.43132 0.0
H1158 H 0.33916 0.01374 0.468 0.0
H1159 H 0.3648 0.02331 0.44373 0.0
H1160 H 0.3539 0.06269 0.55921 0.0
H1161 H 0.41514 0.08678 0.50059 0.0
H1162 H 0.35432 0.97787 0.54933 0.0
H1163 H 0.33376 0.99236 0.5204 0.0
H1164 H 0.33334 0.0116 0.55724 0.0
H1165 H 0.43017 0.0065 0.47889 0.0
H1166 H 0.43252 0.04891 0.46666 0.0
H1167 H 0.40961 0.02175 0.45028 0.0
C1168 C 0.30684 0.94752 0.04394 0.0
C1169 C 0.32626 0.92545 0.03749 0.0
C1170 C 0.30479 0.97767 0.02837 0.0
C1171 C 0.32287 0.98604 0.0063 0.0
C1172 C 0.34246 0.96375 -0.00032 0.0
C1173 C 0.34379 0.93359 0.0152 0.0
C1174 C 0.28345 0.00065 0.03565 0.0
C1175 C 0.36232 0.97202 0.97665 0.0
C1176 C 0.3117 0.05255 0.94712 0.0
C1177 C 0.32442 0.07937 0.95982 0.0
C1178 C 0.31019 0.02226 0.96254 0.0
C1179 C 0.32209 0.01869 0.99099 0.0
C1180 C 0.3346 0.04591 0.00409 0.0
C1181 C 0.33543 0.076 0.98844 0.0
C1182 C 0.29633 0.99389 0.94815 0.0
C1183 C 0.34784 0.04294 0.03416 0.0
H1184 H 0.29315 0.94113 0.06103 0.0
H1185 H 0.35887 0.9166 0.01021 0.0
H1186 H 0.29074 0.02408 0.04516 0.0
H1187 H 0.27311 0.00699 0.01467 0.0
H1188 H 0.27022 0.98969 0.05219 0.0
H1189 H 0.37614 0.95178 0.97391 0.0
H1190 H 0.35366 0.97711 0.95432 0.0
H1191 H 0.37233 0.99474 0.98364 0.0
H1192 H 0.30303 0.05519 0.92508 0.0
H1193 H 0.34534 0.09668 0.99831 0.0
H1194 H 0.28254 0.98358 0.96431 0.0
H1195 H 0.30959 0.97377 0.94248 0.0
H1196 H 0.28646 0.00144 0.92714 0.0
H1197 H 0.33475 0.0341 0.05183 0.0
H1198 H 0.35598 0.06678 0.04169 0.0
H1199 H 0.36304 0.02442 0.03239 0.0
C1200 C 0.68491 0.04683 0.55297 0.0
C1201 C 0.66738 0.07184 0.54758 0.0
C1202 C 0.68539 0.0182 0.5351 0.0
C1203 C 0.66762 0.01432 0.51169 0.0
C1204 C 0.64966 0.03932 0.50644 0.0
C1205 C 0.6499 0.06795 0.52431 0.0
C1206 C 0.70505 0.99226 0.54106 0.0
C1207 C 0.63015 0.03578 0.48201 0.0
C1208 C 0.68045 0.9545 0.44733 0.0
C1209 C 0.66697 0.92668 0.45665 0.0
C1210 C 0.68115 0.98309 0.46527 0.0
C1211 C 0.66767 0.98396 0.49283 0.0
C1212 C 0.65398 0.95593 0.50227 0.0
C1213 C 0.65398 0.9275 0.48417 0.0
C1214 C 0.69628 0.01236 0.45475 0.0
C1215 C 0.63906 0.95611 0.53128 0.0
H1216 H 0.69857 0.0499 0.57082 0.0
H1217 H 0.63628 0.08724 0.52016 0.0
H1218 H 0.69609 0.96841 0.54691 0.0
H1219 H 0.71628 0.98812 0.5203 0.0
H1220 H 0.71778 -0.00068 0.55979 0.0
H1221 H 0.61722 0.05722 0.48123 0.0
H1222 H 0.63926 0.03329 0.45958 0.0
H1223 H 0.61911 0.013 0.48588 0.0
H1224 H 0.6906 0.95384 0.42611 0.0
H1225 H 0.64341 0.90606 0.49135 0.0
H1226 H 0.7101 0.0192 0.47234 0.0
H1227 H 0.68393 0.03404 0.45133 0.0
H1228 H 0.70633 0.00732 0.43324 0.0
H1229 H 0.65148 0.96109 0.55083 0.0
H1230 H 0.6293 0.93232 0.53528 0.0
H1231 H 0.62501 0.97622 0.53056 0.0
loop_
_geom_bond_atom_site_label_1
_geom_bond_atom_site_label_2
_geom_bond_distance
_geom_bond_site_symmetry_2
_ccdc_geom_bond_type
In0 O1 2.294 . S
In0 O2 2.326 . S
In0 O6 2.266 . S
In0 O7 2.326 . S
In0 O8 2.266 . S
In0 O9 2.326 . S
In0 O11 2.294 . S
In0 O12 2.326 . S
O1 In0 2.294 . S
O1 C10 1.240 . S
O2 In0 2.326 . S
O2 C10 1.252 . S
C3 O6 1.252 . S
C3 O7 1.260 . S
C4 O11 1.240 . S
C4 O12 1.252 . S
C5 O8 1.252 . S
C5 O9 1.260 . S
O6 In0 2.266 . S
O6 C3 1.252 . S
O7 In0 2.326 . S
O7 C3 1.260 . S
O8 In0 2.266 . S
O8 C5 1.252 . S
O9 In0 2.326 . S
O9 C5 1.260 . S
C10 O1 1.240 . S
C10 O2 1.252 . S
O11 In0 2.294 . S
O11 C4 1.240 . S
O12 In0 2.326 . S
O12 C4 1.252 . S
In13 O14 2.294 . S
In13 O15 2.326 . S
In13 O19 2.266 . S
In13 O20 2.326 . S
In13 O21 2.266 . S
In13 O22 2.326 . S
In13 O24 2.294 . S
In13 O25 2.326 . S
O14 In13 2.294 . S
O14 C23 1.240 . S
O15 In13 2.326 . S
O15 C23 1.252 . S
C16 O19 1.252 . S
C16 O20 1.260 . S
C17 O24 1.240 . S
C17 O25 1.252 . S
C18 O21 1.252 . S
C18 O22 1.260 . S
O19 In13 2.266 . S
O19 C16 1.252 . S
O20 In13 2.326 . S
O20 C16 1.260 . S
O21 In13 2.266 . S
O21 C18 1.252 . S
O22 In13 2.326 . S
O22 C18 1.260 . S
C23 O14 1.240 . S
C23 O15 1.252 . S
O24 In13 2.294 . S
O24 C17 1.240 . S
O25 In13 2.326 . S
O25 C17 1.252 . S
In26 O27 2.294 . S
In26 O28 2.326 . S
In26 O32 2.266 . S
In26 O33 2.326 . S
In26 O34 2.266 . S
In26 O35 2.326 . S
In26 O37 2.294 . S
In26 O38 2.326 . S
O27 In26 2.294 . S
O27 C36 1.240 . S
O28 In26 2.326 . S
O28 C36 1.252 . S
C29 O32 1.252 . S
C29 O33 1.260 . S
C30 O37 1.240 . S
C30 O38 1.252 . S
C31 O34 1.252 . S
C31 O35 1.260 . S
O32 In26 2.266 . S
O32 C29 1.252 . S
O33 In26 2.326 . S
O33 C29 1.260 . S
O34 In26 2.266 . S
O34 C31 1.252 . S
O35 In26 2.326 . S
O35 C31 1.260 . S
C36 O27 1.240 . S
C36 O28 1.252 . S
O37 In26 2.294 . S
O37 C30 1.240 . S
O38 In26 2.326 . S
O38 C30 1.252 . S
In39 O40 2.294 . S
In39 O41 2.326 . S
In39 O45 2.266 . S
In39 O46 2.326 . S
In39 O47 2.266 . S
In39 O48 2.326 . S
In39 O50 2.294 . S
In39 O51 2.326 . S
O40 In39 2.294 . S
O40 C49 1.240 . S
O41 In39 2.326 . S
O41 C49 1.252 . S
C42 O45 1.252 . S
C42 O46 1.260 . S
C43 O50 1.240 . S
C43 O51 1.252 . S
C44 O47 1.252 . S
C44 O48 1.260 . S
O45 In39 2.266 . S
O45 C42 1.252 . S
O46 In39 2.326 . S
O46 C42 1.260 . S
O47 In39 2.266 . S
O47 C44 1.252 . S
O48 In39 2.326 . S
O48 C44 1.260 . S
C49 O40 1.240 . S
C49 O41 1.252 . S
O50 In39 2.294 . S
O50 C43 1.240 . S
O51 In39 2.326 . S
O51 C43 1.252 . S
In52 O53 2.294 . S
In52 O54 2.326 . S
In52 O58 2.266 . S
In52 O59 2.326 . S
In52 O60 2.266 . S
In52 O61 2.326 . S
In52 O63 2.294 . S
In52 O64 2.326 . S
O53 In52 2.294 . S
O53 C62 1.240 . S
O54 In52 2.326 . S
O54 C62 1.252 . S
C55 O58 1.252 . S
C55 O59 1.260 . S
C56 O63 1.240 . S
C56 O64 1.252 . S
C57 O60 1.252 . S
C57 O61 1.260 . S
O58 In52 2.266 . S
O58 C55 1.252 . S
O59 In52 2.326 . S
O59 C55 1.260 . S
O60 In52 2.266 . S
O60 C57 1.252 . S
O61 In52 2.326 . S
O61 C57 1.260 . S
C62 O53 1.240 . S
C62 O54 1.252 . S
O63 In52 2.294 . S
O63 C56 1.240 . S
O64 In52 2.326 . S
O64 C56 1.252 . S
In65 O66 2.294 . S
In65 O67 2.326 . S
In65 O71 2.266 . S
In65 O72 2.326 . S
In65 O73 2.266 . S
In65 O74 2.326 . S
In65 O76 2.294 . S
In65 O77 2.326 . S
O66 In65 2.294 . S
O66 C75 1.240 . S
O67 In65 2.326 . S
O67 C75 1.252 . S
C68 O71 1.252 . S
C68 O72 1.260 . S
C69 O76 1.240 . S
C69 O77 1.252 . S
C70 O73 1.252 . S
C70 O74 1.260 . S
O71 In65 2.266 . S
O71 C68 1.252 . S
O72 In65 2.326 . S
O72 C68 1.260 . S
O73 In65 2.266 . S
O73 C70 1.252 . S
O74 In65 2.326 . S
O74 C70 1.260 . S
C75 O66 1.240 . S
C75 O67 1.252 . S
O76 In65 2.294 . S
O76 C69 1.240 . S
O77 In65 2.326 . S
O77 C69 1.252 . S
In78 O79 2.294 . S
In78 O80 2.326 . S
In78 O84 2.266 . S
In78 O85 2.326 . S
In78 O86 2.266 . S
In78 O87 2.326 . S
In78 O89 2.294 . S
In78 O90 2.326 . S
O79 In78 2.294 . S
O79 C88 1.240 . S
O80 In78 2.326 . S
O80 C88 1.252 . S
C81 O84 1.252 . S
C81 O85 1.260 . S
C82 O89 1.240 . S
C82 O90 1.252 . S
C83 O86 1.252 . S
C83 O87 1.260 . S
O84 In78 2.266 . S
O84 C81 1.252 . S
O85 In78 2.326 . S
O85 C81 1.260 . S
O86 In78 2.266 . S
O86 C83 1.252 . S
O87 In78 2.326 . S
O87 C83 1.260 . S
C88 O79 1.240 . S
C88 O80 1.252 . S
O89 In78 2.294 . S
O89 C82 1.240 . S
O90 In78 2.326 . S
O90 C82 1.252 . S
In91 O92 2.294 . S
In91 O93 2.326 . S
In91 O97 2.266 . S
In91 O98 2.326 . S
In91 O99 2.266 . S
In91 O100 2.326 . S
In91 O102 2.294 . S
In91 O103 2.326 . S
O92 In91 2.294 . S
O92 C101 1.240 . S
O93 In91 2.326 . S
O93 C101 1.252 . S
C94 O97 1.252 . S
C94 O98 1.260 . S
C95 O102 1.240 . S
C95 O103 1.252 . S
C96 O99 1.252 . S
C96 O100 1.260 . S
O97 In91 2.266 . S
O97 C94 1.252 . S
O98 In91 2.326 . S
O98 C94 1.260 . S
O99 In91 2.266 . S
O99 C96 1.252 . S
O100 In91 2.326 . S
O100 C96 1.260 . S
C101 O92 1.240 . S
C101 O93 1.252 . S
O102 In91 2.294 . S
O102 C95 1.240 . S
O103 In91 2.326 . S
O103 C95 1.252 . S
In104 O105 2.294 . S
In104 O106 2.326 . S
In104 O110 2.266 . S
In104 O111 2.326 . S
In104 O112 2.266 . S
In104 O113 2.326 . S
In104 O115 2.294 . S
In104 O116 2.326 . S
O105 In104 2.294 . S
O105 C114 1.240 . S
O106 In104 2.326 . S
O106 C114 1.252 . S
C107 O110 1.252 . S
C107 O111 1.260 . S
C108 O115 1.240 . S
C108 O116 1.252 . S
C109 O112 1.252 . S
C109 O113 1.260 . S
O110 In104 2.266 . S
O110 C107 1.252 . S
O111 In104 2.326 . S
O111 C107 1.260 . S
O112 In104 2.266 . S
O112 C109 1.252 . S
O113 In104 2.326 . S
O113 C109 1.260 . S
C114 O105 1.240 . S
C114 O106 1.252 . S
O115 In104 2.294 . S
O115 C108 1.240 . S
O116 In104 2.326 . S
O116 C108 1.252 . S
In117 O118 2.294 . S
In117 O119 2.326 . S
In117 O123 2.266 . S
In117 O124 2.326 . S
In117 O125 2.266 . S
In117 O126 2.326 . S
In117 O128 2.294 . S
In117 O129 2.326 . S
O118 In117 2.294 . S
O118 C127 1.240 . S
O119 In117 2.326 . S
O119 C127 1.252 . S
C120 O123 1.252 . S
C120 O124 1.260 . S
C121 O128 1.240 . S
C121 O129 1.252 . S
C122 O125 1.252 . S
C122 O126 1.260 . S
O123 In117 2.266 . S
O123 C120 1.252 . S
O124 In117 2.326 . S
O124 C120 1.260 . S
O125 In117 2.266 . S
O125 C122 1.252 . S
O126 In117 2.326 . S
O126 C122 1.260 . S
C127 O118 1.240 . S
C127 O119 1.252 . S
O128 In117 2.294 . S
O128 C121 1.240 . S
O129 In117 2.326 . S
O129 C121 1.252 . S
In130 O131 2.294 . S
In130 O132 2.326 . S
In130 O136 2.266 . S
In130 O137 2.326 . S
In130 O138 2.266 . S
In130 O139 2.326 . S
In130 O141 2.294 . S
In130 O142 2.326 . S
O131 In130 2.294 . S
O131 C140 1.240 . S
O132 In130 2.326 . S
O132 C140 1.252 . S
C133 O136 1.252 . S
C133 O137 1.260 . S
C134 O141 1.240 . S
C134 O142 1.252 . S
C135 O138 1.252 . S
C135 O139 1.260 . S
O136 In130 2.266 . S
O136 C133 1.252 . S
O137 In130 2.326 . S
O137 C133 1.260 . S
O138 In130 2.266 . S
O138 C135 1.252 . S
O139 In130 2.326 . S
O139 C135 1.260 . S
C140 O131 1.240 . S
C140 O132 1.252 . S
O141 In130 2.294 . S
O141 C134 1.240 . S
O142 In130 2.326 . S
O142 C134 1.252 . S
In143 O144 2.294 . S
In143 O145 2.326 . S
In143 O149 2.266 . S
In143 O150 2.326 . S
In143 O151 2.266 . S
In143 O152 2.326 . S
In143 O154 2.294 . S
In143 O155 2.326 . S
O144 In143 2.294 . S
O144 C153 1.240 . S
O145 In143 2.326 . S
O145 C153 1.252 . S
C146 O149 1.252 . S
C146 O150 1.260 . S
C147 O154 1.240 . S
C147 O155 1.252 . S
C148 O151 1.252 . S
C148 O152 1.260 . S
O149 In143 2.266 . S
O149 C146 1.252 . S
O150 In143 2.326 . S
O150 C146 1.260 . S
O151 In143 2.266 . S
O151 C148 1.252 . S
O152 In143 2.326 . S
O152 C148 1.260 . S
C153 O144 1.240 . S
C153 O145 1.252 . S
O154 In143 2.294 . S
O154 C147 1.240 . S
O155 In143 2.326 . S
O155 C147 1.252 . S
In156 O157 2.294 . S
In156 O158 2.326 . S
In156 O162 2.266 . S
In156 O163 2.326 . S
In156 O164 2.266 . S
In156 O165 2.326 . S
In156 O167 2.294 . S
In156 O168 2.326 . S
O157 In156 2.294 . S
O157 C166 1.240 . S
O158 In156 2.326 . S
O158 C166 1.252 . S
C159 O162 1.252 . S
C159 O163 1.260 . S
C160 O167 1.240 . S
C160 O168 1.252 . S
C161 O164 1.252 . S
C161 O165 1.260 . S
O162 In156 2.266 . S
O162 C159 1.252 . S
O163 In156 2.326 . S
O163 C159 1.260 . S
O164 In156 2.266 . S
O164 C161 1.252 . S
O165 In156 2.326 . S
O165 C161 1.260 . S
C166 O157 1.240 . S
C166 O158 1.252 . S
O167 In156 2.294 . S
O167 C160 1.240 . S
O168 In156 2.326 . S
O168 C160 1.252 . S
In169 O170 2.294 . S
In169 O171 2.326 . S
In169 O175 2.266 . S
In169 O176 2.326 . S
In169 O177 2.266 . S
In169 O178 2.326 . S
In169 O180 2.294 . S
In169 O181 2.326 . S
O170 In169 2.294 . S
O170 C179 1.240 . S
O171 In169 2.326 . S
O171 C179 1.252 . S
C172 O175 1.252 . S
C172 O176 1.260 . S
C173 O180 1.240 . S
C173 O181 1.252 . S
C174 O177 1.252 . S
C174 O178 1.260 . S
O175 In169 2.266 . S
O175 C172 1.252 . S
O176 In169 2.326 . S
O176 C172 1.260 . S
O177 In169 2.266 . S
O177 C174 1.252 . S
O178 In169 2.326 . S
O178 C174 1.260 . S
C179 O170 1.240 . S
C179 O171 1.252 . S
O180 In169 2.294 . S
O180 C173 1.240 . S
O181 In169 2.326 . S
O181 C173 1.252 . S
In182 O183 2.294 . S
In182 O184 2.326 . S
In182 O188 2.266 . S
In182 O189 2.326 . S
In182 O190 2.266 . S
In182 O191 2.326 . S
In182 O193 2.294 . S
In182 O194 2.326 . S
O183 In182 2.294 . S
O183 C192 1.240 . S
O184 In182 2.326 . S
O184 C192 1.252 . S
C185 O188 1.252 . S
C185 O189 1.260 . S
C186 O193 1.240 . S
C186 O194 1.252 . S
C187 O190 1.252 . S
C187 O191 1.260 . S
O188 In182 2.266 . S
O188 C185 1.252 . S
O189 In182 2.326 . S
O189 C185 1.260 . S
O190 In182 2.266 . S
O190 C187 1.252 . S
O191 In182 2.326 . S
O191 C187 1.260 . S
C192 O183 1.240 . S
C192 O184 1.252 . S
O193 In182 2.294 . S
O193 C186 1.240 . S
O194 In182 2.326 . S
O194 C186 1.252 . S
In195 O196 2.294 . S
In195 O197 2.326 . S
In195 O201 2.266 . S
In195 O202 2.326 . S
In195 O203 2.266 . S
In195 O204 2.326 . S
In195 O206 2.294 . S
In195 O207 2.326 . S
O196 In195 2.294 . S
O196 C205 1.240 . S
O197 In195 2.326 . S
O197 C205 1.252 . S
C198 O201 1.252 . S
C198 O202 1.260 . S
C199 O206 1.240 . S
C199 O207 1.252 . S
C200 O203 1.252 . S
C200 O204 1.260 . S
O201 In195 2.266 . S
O201 C198 1.252 . S
O202 In195 2.326 . S
O202 C198 1.260 . S
O203 In195 2.266 . S
O203 C200 1.252 . S
O204 In195 2.326 . S
O204 C200 1.260 . S
C205 O196 1.240 . S
C205 O197 1.252 . S
O206 In195 2.294 . S
O206 C199 1.240 . S
O207 In195 2.326 . S
O207 C199 1.252 . S
C208 C209 1.391 . S
C208 C210 1.394 1_455 S
C208 H224 0.931 . S
C209 C208 1.391 . S
C209 C213 1.376 . S
C210 C208 1.394 1_655 S
C210 C211 1.369 . S
C210 C214 1.531 . S
C211 C210 1.369 . S
C211 C212 1.410 . S
C211 C219 1.503 . S
C212 C211 1.410 . S
C212 C213 1.392 1_655 S
C212 C215 1.511 . S
C213 C209 1.376 . S
C213 C212 1.392 1_455 S
C213 H225 0.929 . S
C214 C210 1.531 . S
C214 H226 0.960 . S
C214 H227 0.962 . S
C214 H228 0.960 . S
C215 C212 1.511 . S
C215 H229 0.961 . S
C215 H230 0.961 . S
C215 H231 0.961 . S
C216 C217 1.370 . S
C216 C218 1.363 . S
C216 H232 0.931 . S
C217 C216 1.370 . S
C217 C221 1.408 . S
C218 C216 1.363 . S
C218 C219 1.370 . S
C218 C222 1.524 . S
C219 C211 1.503 . S
C219 C218 1.370 . S
C219 C220 1.403 . S
C220 C219 1.403 . S
C220 C221 1.404 . S
C220 C223 1.539 . S
C221 C217 1.408 . S
C221 C220 1.404 . S
C221 H233 0.930 . S
C222 C218 1.524 . S
C222 H234 0.956 . S
C222 H235 0.961 . S
C222 H236 0.961 . S
C223 C220 1.539 . S
C223 H237 0.958 . S
C223 H238 0.961 . S
C223 H239 0.960 . S
H224 C208 0.931 . S
H225 C213 0.929 . S
H226 C214 0.960 . S
H227 C214 0.962 . S
H228 C214 0.960 . S
H229 C215 0.961 . S
H230 C215 0.961 . S
H231 C215 0.961 . S
H232 C216 0.931 . S
H233 C221 0.930 . S
H234 C222 0.956 . S
H235 C222 0.961 . S
H236 C222 0.961 . S
H237 C223 0.958 . S
H238 C223 0.961 . S
H239 C223 0.960 . S
C240 C241 1.391 . S
C240 C242 1.394 1_655 S
C240 H256 0.931 . S
C241 C240 1.391 . S
C241 C245 1.376 . S
C242 C240 1.394 1_455 S
C242 C243 1.369 . S
C242 C246 1.531 . S
C243 C242 1.369 . S
C243 C244 1.410 . S
C243 C251 1.503 . S
C244 C243 1.410 . S
C244 C245 1.392 1_455 S
C244 C247 1.511 . S
C245 C241 1.376 . S
C245 C244 1.392 1_655 S
C245 H257 0.929 . S
C246 C242 1.531 . S
C246 H258 0.960 . S
C246 H259 0.962 . S
C246 H260 0.960 . S
C247 C244 1.511 . S
C247 H261 0.961 . S
C247 H262 0.961 . S
C247 H263 0.961 . S
C248 C249 1.370 . S
C248 C250 1.363 . S
C248 H264 0.931 . S
C249 C248 1.370 . S
C249 C253 1.408 . S
C250 C248 1.363 . S
C250 C251 1.370 . S
C250 C254 1.524 . S
C251 C243 1.503 . S
C251 C250 1.370 . S
C251 C252 1.403 . S
C252 C251 1.403 . S
C252 C253 1.404 . S
C252 C255 1.539 . S
C253 C249 1.408 . S
C253 C252 1.404 . S
C253 H265 0.930 . S
C254 C250 1.524 . S
C254 H266 0.956 . S
C254 H267 0.961 . S
C254 H268 0.961 . S
C255 C252 1.539 . S
C255 H269 0.958 . S
C255 H270 0.961 . S
C255 H271 0.960 . S
H256 C240 0.931 . S
H257 C245 0.929 . S
H258 C246 0.960 . S
H259 C246 0.962 . S
H260 C246 0.960 . S
H261 C247 0.961 . S
H262 C247 0.961 . S
H263 C247 0.961 . S
H264 C248 0.931 . S
H265 C253 0.930 . S
H266 C254 0.956 . S
H267 C254 0.961 . S
H268 C254 0.961 . S
H269 C255 0.958 . S
H270 C255 0.961 . S
H271 C255 0.960 . S
C272 C273 1.391 . S
C272 C274 1.394 . S
C272 H288 0.931 . S
C273 C272 1.391 . S
C273 C277 1.376 . S
C274 C272 1.394 . S
C274 C275 1.369 . S
C274 C278 1.531 . S
C275 C274 1.369 . S
C275 C276 1.410 . S
C275 C283 1.503 . S
C276 C275 1.410 . S
C276 C277 1.392 . S
C276 C279 1.511 . S
C277 C273 1.376 . S
C277 C276 1.392 . S
C277 H289 0.929 . S
C278 C274 1.531 . S
C278 H290 0.960 . S
C278 H291 0.962 . S
C278 H292 0.960 . S
C279 C276 1.511 . S
C279 H293 0.961 . S
C279 H294 0.961 . S
C279 H295 0.961 . S
C280 C281 1.370 . S
C280 C282 1.363 1_455 S
C280 H296 0.931 . S
C281 C280 1.370 . S
C281 C285 1.408 . S
C282 C280 1.363 1_655 S
C282 C283 1.370 . S
C282 C286 1.524 . S
C283 C275 1.503 . S
C283 C282 1.370 . S
C283 C284 1.403 . S
C284 C283 1.403 . S
C284 C285 1.404 1_655 S
C284 C287 1.539 . S
C285 C281 1.408 . S
C285 C284 1.404 1_455 S
C285 H297 0.930 . S
C286 C282 1.524 . S
C286 H298 0.956 . S
C286 H299 0.961 . S
C286 H300 0.961 . S
C287 C284 1.539 . S
C287 H301 0.958 . S
C287 H302 0.961 . S
C287 H303 0.960 . S
H288 C272 0.931 . S
H289 C277 0.929 . S
H290 C278 0.960 . S
H291 C278 0.962 . S
H292 C278 0.960 . S
H293 C279 0.961 . S
H294 C279 0.961 . S
H295 C279 0.961 . S
H296 C280 0.931 . S
H297 C285 0.930 . S
H298 C286 0.956 . S
H299 C286 0.961 . S
H300 C286 0.961 . S
H301 C287 0.958 . S
H302 C287 0.961 . S
H303 C287 0.960 . S
C304 C305 1.391 . S
C304 C306 1.394 . S
C304 H320 0.931 . S
C305 C304 1.391 . S
C305 C309 1.376 . S
C306 C304 1.394 . S
C306 C307 1.369 . S
C306 C310 1.531 . S
C307 C306 1.369 . S
C307 C308 1.410 . S
C307 C315 1.503 . S
C308 C307 1.410 . S
C308 C309 1.392 . S
C308 C311 1.511 . S
C309 C305 1.376 . S
C309 C308 1.392 . S
C309 H321 0.929 . S
C310 C306 1.531 . S
C310 H322 0.960 . S
C310 H323 0.962 . S
C310 H324 0.960 . S
C311 C308 1.511 . S
C311 H325 0.961 . S
C311 H326 0.961 . S
C311 H327 0.961 . S
C312 C313 1.370 . S
C312 C314 1.363 1_655 S
C312 H328 0.931 . S
C313 C312 1.370 . S
C313 C317 1.408 . S
C314 C312 1.363 1_455 S
C314 C315 1.370 . S
C314 C318 1.524 . S
C315 C307 1.503 . S
C315 C314 1.370 . S
C315 C316 1.403 . S
C316 C315 1.403 . S
C316 C317 1.404 1_455 S
C316 C319 1.539 . S
C317 C313 1.408 . S
C317 C316 1.404 1_655 S
C317 H329 0.930 . S
C318 C314 1.524 . S
C318 H330 0.956 . S
C318 H331 0.961 . S
C318 H332 0.961 . S
C319 C316 1.539 . S
C319 H333 0.958 . S
C319 H334 0.961 . S
C319 H335 0.960 . S
H320 C304 0.931 . S
H321 C309 0.929 . S
H322 C310 0.960 . S
H323 C310 0.962 . S
H324 C310 0.960 . S
H325 C311 0.961 . S
H326 C311 0.961 . S
H327 C311 0.961 . S
H328 C312 0.931 . S
H329 C317 0.930 . S
H330 C318 0.956 . S
H331 C318 0.961 . S
H332 C318 0.961 . S
H333 C319 0.958 . S
H334 C319 0.961 . S
H335 C319 0.960 . S
C336 C337 1.391 . S
C336 C338 1.394 . S
C336 H352 0.931 . S
C337 C336 1.391 . S
C337 C341 1.376 . S
C338 C336 1.394 . S
C338 C339 1.369 . S
C338 C342 1.531 . S
C339 C338 1.369 . S
C339 C340 1.410 . S
C339 C347 1.503 . S
C340 C339 1.410 . S
C340 C341 1.392 . S
C340 C343 1.511 . S
C341 C337 1.376 . S
C341 C340 1.392 . S
C341 H353 0.929 . S
C342 C338 1.531 . S
C342 H354 0.960 . S
C342 H355 0.962 . S
C342 H356 0.960 . S
C343 C340 1.511 . S
C343 H357 0.961 . S
C343 H358 0.961 . S
C343 H359 0.961 . S
C344 C345 1.370 . S
C344 C346 1.363 . S
C344 H360 0.931 . S
C345 C344 1.370 . S
C345 C349 1.408 . S
C346 C344 1.363 . S
C346 C347 1.370 . S
C346 C350 1.524 . S
C347 C339 1.503 . S
C347 C346 1.370 . S
C347 C348 1.403 . S
C348 C347 1.403 . S
C348 C349 1.404 . S
C348 C351 1.539 . S
C349 C345 1.408 . S
C349 C348 1.404 . S
C349 H361 0.930 . S
C350 C346 1.524 . S
C350 H362 0.956 . S
C350 H363 0.961 . S
C350 H364 0.961 . S
C351 C348 1.539 . S
C351 H365 0.958 . S
C351 H366 0.961 . S
C351 H367 0.960 . S
H352 C336 0.931 . S
H353 C341 0.929 . S
H354 C342 0.960 . S
H355 C342 0.962 . S
H356 C342 0.960 . S
H357 C343 0.961 . S
H358 C343 0.961 . S
H359 C343 0.961 . S
H360 C344 0.931 . S
H361 C349 0.930 . S
H362 C350 0.956 . S
H363 C350 0.961 . S
H364 C350 0.961 . S
H365 C351 0.958 . S
H366 C351 0.961 . S
H367 C351 0.960 . S
C368 C369 1.391 . S
C368 C370 1.394 . S
C368 H384 0.931 . S
C369 C368 1.391 . S
C369 C373 1.376 . S
C370 C368 1.394 . S
C370 C371 1.369 . S
C370 C374 1.531 . S
C371 C370 1.369 . S
C371 C372 1.410 . S
C371 C379 1.503 . S
C372 C371 1.410 . S
C372 C373 1.392 . S
C372 C375 1.511 . S
C373 C369 1.376 . S
C373 C372 1.392 . S
C373 H385 0.929 . S
C374 C370 1.531 . S
C374 H386 0.960 . S
C374 H387 0.962 . S
C374 H388 0.960 . S
C375 C372 1.511 . S
C375 H389 0.961 . S
C375 H390 0.961 . S
C375 H391 0.961 . S
C376 C377 1.370 . S
C376 C378 1.363 . S
C376 H392 0.931 . S
C377 C376 1.370 . S
C377 C381 1.408 . S
C378 C376 1.363 . S
C378 C379 1.370 . S
C378 C382 1.524 . S
C379 C371 1.503 . S
C379 C378 1.370 . S
C379 C380 1.403 . S
C380 C379 1.403 . S
C380 C381 1.404 . S
C380 C383 1.539 . S
C381 C377 1.408 . S
C381 C380 1.404 . S
C381 H393 0.930 . S
C382 C378 1.524 . S
C382 H394 0.956 . S
C382 H395 0.961 . S
C382 H396 0.961 . S
C383 C380 1.539 . S
C383 H397 0.958 . S
C383 H398 0.961 . S
C383 H399 0.960 . S
H384 C368 0.931 . S
H385 C373 0.929 . S
H386 C374 0.960 . S
H387 C374 0.962 . S
H388 C374 0.960 . S
H389 C375 0.961 . S
H390 C375 0.961 . S
H391 C375 0.961 . S
H392 C376 0.931 . S
H393 C381 0.930 . S
H394 C382 0.956 . S
H395 C382 0.961 . S
H396 C382 0.961 . S
H397 C383 0.958 . S
H398 C383 0.961 . S
H399 C383 0.960 . S
C400 C401 1.391 . S
C400 C402 1.394 . S
C400 H416 0.931 . S
C401 C400 1.391 . S
C401 C405 1.376 . S
C402 C400 1.394 . S
C402 C403 1.369 . S
C402 C406 1.531 . S
C403 C402 1.369 . S
C403 C404 1.410 . S
C403 C411 1.503 . S
C404 C403 1.410 . S
C404 C405 1.392 . S
C404 C407 1.511 . S
C405 C401 1.376 . S
C405 C404 1.392 . S
C405 H417 0.929 . S
C406 C402 1.531 . S
C406 H418 0.960 . S
C406 H419 0.962 . S
C406 H420 0.960 . S
C407 C404 1.511 . S
C407 H421 0.961 . S
C407 H422 0.961 . S
C407 H423 0.961 . S
C408 C409 1.370 . S
C408 C410 1.363 . S
C408 H424 0.931 . S
C409 C408 1.370 . S
C409 C413 1.408 . S
C410 C408 1.363 . S
C410 C411 1.370 . S
C410 C414 1.524 . S
C411 C403 1.503 . S
C411 C410 1.370 . S
C411 C412 1.403 . S
C412 C411 1.403 . S
C412 C413 1.404 . S
C412 C415 1.539 . S
C413 C409 1.408 . S
C413 C412 1.404 . S
C413 H425 0.930 . S
C414 C410 1.524 . S
C414 H426 0.956 . S
C414 H427 0.961 . S
C414 H428 0.961 . S
C415 C412 1.539 . S
C415 H429 0.958 . S
C415 H430 0.961 . S
C415 H431 0.960 . S
H416 C400 0.931 . S
H417 C405 0.929 . S
H418 C406 0.960 . S
H419 C406 0.962 . S
H420 C406 0.960 . S
H421 C407 0.961 . S
H422 C407 0.961 . S
H423 C407 0.961 . S
H424 C408 0.931 . S
H425 C413 0.930 . S
H426 C414 0.956 . S
H427 C414 0.961 . S
H428 C414 0.961 . S
H429 C415 0.958 . S
H430 C415 0.961 . S
H431 C415 0.960 . S
C432 C433 1.391 . S
C432 C434 1.394 . S
C432 H448 0.931 . S
C433 C432 1.391 . S
C433 C437 1.376 . S
C434 C432 1.394 . S
C434 C435 1.369 . S
C434 C438 1.531 . S
C435 C434 1.369 . S
C435 C436 1.410 . S
C435 C443 1.503 . S
C436 C435 1.410 . S
C436 C437 1.392 . S
C436 C439 1.511 . S
C437 C433 1.376 . S
C437 C436 1.392 . S
C437 H449 0.929 . S
C438 C434 1.531 . S
C438 H450 0.960 . S
C438 H451 0.962 . S
C438 H452 0.960 . S
C439 C436 1.511 . S
C439 H453 0.961 . S
C439 H454 0.961 . S
C439 H455 0.961 . S
C440 C441 1.370 . S
C440 C442 1.363 . S
C440 H456 0.931 . S
C441 C440 1.370 . S
C441 C445 1.408 . S
C442 C440 1.363 . S
C442 C443 1.370 . S
C442 C446 1.524 . S
C443 C435 1.503 . S
C443 C442 1.370 . S
C443 C444 1.403 . S
C444 C443 1.403 . S
C444 C445 1.404 . S
C444 C447 1.539 . S
C445 C441 1.408 . S
C445 C444 1.404 . S
C445 H457 0.930 . S
C446 C442 1.524 . S
C446 H458 0.956 . S
C446 H459 0.961 . S
C446 H460 0.961 . S
C447 C444 1.539 . S
C447 H461 0.958 . S
C447 H462 0.961 . S
C447 H463 0.960 . S
H448 C432 0.931 . S
H449 C437 0.929 . S
H450 C438 0.960 . S
H451 C438 0.962 . S
H452 C438 0.960 . S
H453 C439 0.961 . S
H454 C439 0.961 . S
H455 C439 0.961 . S
H456 C440 0.931 . S
H457 C445 0.930 . S
H458 C446 0.956 . S
H459 C446 0.961 . S
H460 C446 0.961 . S
H461 C447 0.958 . S
H462 C447 0.961 . S
H463 C447 0.960 . S
C464 C465 1.391 . S
C464 C466 1.394 . S
C464 H480 0.931 . S
C465 C464 1.391 . S
C465 C469 1.376 . S
C466 C464 1.394 . S
C466 C467 1.369 . S
C466 C470 1.531 . S
C467 C466 1.369 . S
C467 C468 1.410 . S
C467 C475 1.503 . S
C468 C467 1.410 . S
C468 C469 1.392 . S
C468 C471 1.511 . S
C469 C465 1.376 . S
C469 C468 1.392 . S
C469 H481 0.929 . S
C470 C466 1.531 . S
C470 H482 0.960 . S
C470 H483 0.962 . S
C470 H484 0.960 . S
C471 C468 1.511 . S
C471 H485 0.961 . S
C471 H486 0.961 . S
C471 H487 0.961 . S
C472 C473 1.370 . S
C472 C474 1.363 . S
C472 H488 0.931 . S
C473 C472 1.370 . S
C473 C477 1.408 . S
C474 C472 1.363 . S
C474 C475 1.370 . S
C474 C478 1.524 . S
C475 C467 1.503 . S
C475 C474 1.370 . S
C475 C476 1.403 . S
C476 C475 1.403 . S
C476 C477 1.404 . S
C476 C479 1.539 . S
C477 C473 1.408 . S
C477 C476 1.404 . S
C477 H489 0.930 . S
C478 C474 1.524 . S
C478 H490 0.956 . S
C478 H491 0.961 . S
C478 H492 0.961 . S
C479 C476 1.539 . S
C479 H493 0.958 . S
C479 H494 0.961 . S
C479 H495 0.960 . S
H480 C464 0.931 . S
H481 C469 0.929 . S
H482 C470 0.960 . S
H483 C470 0.962 . S
H484 C470 0.960 . S
H485 C471 0.961 . S
H486 C471 0.961 . S
H487 C471 0.961 . S
H488 C472 0.931 . S
H489 C477 0.930 . S
H490 C478 0.956 . S
H491 C478 0.961 . S
H492 C478 0.961 . S
H493 C479 0.958 . S
H494 C479 0.961 . S
H495 C479 0.960 . S
C496 C497 1.391 . S
C496 C498 1.394 . S
C496 H512 0.931 . S
C497 C496 1.391 . S
C497 C501 1.376 . S
C498 C496 1.394 . S
C498 C499 1.369 . S
C498 C502 1.531 . S
C499 C498 1.369 . S
C499 C500 1.410 . S
C499 C507 1.503 . S
C500 C499 1.410 . S
C500 C501 1.392 . S
C500 C503 1.511 . S
C501 C497 1.376 . S
C501 C500 1.392 . S
C501 H513 0.929 . S
C502 C498 1.531 . S
C502 H514 0.960 . S
C502 H515 0.962 . S
C502 H516 0.960 . S
C503 C500 1.511 . S
C503 H517 0.961 . S
C503 H518 0.961 . S
C503 H519 0.961 . S
C504 C505 1.370 . S
C504 C506 1.363 . S
C504 H520 0.931 . S
C505 C504 1.370 . S
C505 C509 1.408 . S
C506 C504 1.363 . S
C506 C507 1.370 . S
C506 C510 1.524 . S
C507 C499 1.503 . S
C507 C506 1.370 . S
C507 C508 1.403 . S
C508 C507 1.403 . S
C508 C509 1.404 . S
C508 C511 1.539 . S
C509 C505 1.408 . S
C509 C508 1.404 . S
C509 H521 0.930 . S
C510 C506 1.524 . S
C510 H522 0.956 . S
C510 H523 0.961 . S
C510 H524 0.961 . S
C511 C508 1.539 . S
C511 H525 0.958 . S
C511 H526 0.961 . S
C511 H527 0.960 . S
H512 C496 0.931 . S
H513 C501 0.929 . S
H514 C502 0.960 . S
H515 C502 0.962 . S
H516 C502 0.960 . S
H517 C503 0.961 . S
H518 C503 0.961 . S
H519 C503 0.961 . S
H520 C504 0.931 . S
H521 C509 0.930 . S
H522 C510 0.956 . S
H523 C510 0.961 . S
H524 C510 0.961 . S
H525 C511 0.958 . S
H526 C511 0.961 . S
H527 C511 0.960 . S
C528 C529 1.391 . S
C528 C530 1.394 . S
C528 H544 0.931 . S
C529 C528 1.391 . S
C529 C533 1.376 . S
C530 C528 1.394 . S
C530 C531 1.369 . S
C530 C534 1.531 . S
C531 C530 1.369 . S
C531 C532 1.410 . S
C531 C539 1.503 . S
C532 C531 1.410 . S
C532 C533 1.392 . S
C532 C535 1.511 . S
C533 C529 1.376 . S
C533 C532 1.392 . S
C533 H545 0.929 . S
C534 C530 1.531 . S
C534 H546 0.960 . S
C534 H547 0.962 . S
C534 H548 0.960 . S
C535 C532 1.511 . S
C535 H549 0.961 . S
C535 H550 0.961 . S
C535 H551 0.961 . S
C536 C537 1.370 . S
C536 C538 1.363 . S
C536 H552 0.931 . S
C537 C536 1.370 . S
C537 C541 1.408 . S
C538 C536 1.363 . S
C538 C539 1.370 . S
C538 C542 1.524 . S
C539 C531 1.503 . S
C539 C538 1.370 . S
C539 C540 1.403 . S
C540 C539 1.403 . S
C540 C541 1.404 . S
C540 C543 1.539 . S
C541 C537 1.408 . S
C541 C540 1.404 . S
C541 H553 0.930 . S
C542 C538 1.524 . S
C542 H554 0.956 . S
C542 H555 0.961 . S
C542 H556 0.961 . S
C543 C540 1.539 . S
C543 H557 0.958 . S
C543 H558 0.961 . S
C543 H559 0.960 . S
H544 C528 0.931 . S
H545 C533 0.929 . S
H546 C534 0.960 . S
H547 C534 0.962 . S
H548 C534 0.960 . S
H549 C535 0.961 . S
H550 C535 0.961 . S
H551 C535 0.961 . S
H552 C536 0.931 . S
H553 C541 0.930 . S
H554 C542 0.956 . S
H555 C542 0.961 . S
H556 C542 0.961 . S
H557 C543 0.958 . S
H558 C543 0.961 . S
H559 C543 0.960 . S
C560 C561 1.391 . S
C560 C562 1.394 . S
C560 H576 0.931 . S
C561 C560 1.391 . S
C561 C565 1.376 . S
C562 C560 1.394 . S
C562 C563 1.369 . S
C562 C566 1.531 . S
C563 C562 1.369 . S
C563 C564 1.410 . S
C563 C571 1.503 . S
C564 C563 1.410 . S
C564 C565 1.392 . S
C564 C567 1.511 . S
C565 C561 1.376 . S
C565 C564 1.392 . S
C565 H577 0.929 . S
C566 C562 1.531 . S
C566 H578 0.960 . S
C566 H579 0.962 . S
C566 H580 0.960 . S
C567 C564 1.511 . S
C567 H581 0.961 . S
C567 H582 0.961 . S
C567 H583 0.961 . S
C568 C569 1.370 . S
C568 C570 1.363 . S
C568 H584 0.931 . S
C569 C568 1.370 . S
C569 C573 1.408 . S
C570 C568 1.363 . S
C570 C571 1.370 . S
C570 C574 1.524 . S
C571 C563 1.503 . S
C571 C570 1.370 . S
C571 C572 1.403 . S
C572 C571 1.403 . S
C572 C573 1.404 . S
C572 C575 1.539 . S
C573 C569 1.408 . S
C573 C572 1.404 . S
C573 H585 0.930 . S
C574 C570 1.524 . S
C574 H586 0.956 . S
C574 H587 0.961 . S
C574 H588 0.961 . S
C575 C572 1.539 . S
C575 H589 0.958 . S
C575 H590 0.961 . S
C575 H591 0.960 . S
H576 C560 0.931 . S
H577 C565 0.929 . S
H578 C566 0.960 . S
H579 C566 0.962 . S
H580 C566 0.960 . S
H581 C567 0.961 . S
H582 C567 0.961 . S
H583 C567 0.961 . S
H584 C568 0.931 . S
H585 C573 0.930 . S
H586 C574 0.956 . S
H587 C574 0.961 . S
H588 C574 0.961 . S
H589 C575 0.958 . S
H590 C575 0.961 . S
H591 C575 0.960 . S
C592 C593 1.391 . S
C592 C594 1.394 . S
C592 H608 0.931 . S
C593 C592 1.391 . S
C593 C597 1.376 . S
C594 C592 1.394 . S
C594 C595 1.369 . S
C594 C598 1.531 . S
C595 C594 1.369 . S
C595 C596 1.410 . S
C595 C603 1.503 . S
C596 C595 1.410 . S
C596 C597 1.392 . S
C596 C599 1.511 . S
C597 C593 1.376 . S
C597 C596 1.392 . S
C597 H609 0.929 . S
C598 C594 1.531 . S
C598 H610 0.960 . S
C598 H611 0.962 . S
C598 H612 0.960 . S
C599 C596 1.511 . S
C599 H613 0.961 . S
C599 H614 0.961 . S
C599 H615 0.961 . S
C600 C601 1.370 . S
C600 C602 1.363 . S
C600 H616 0.931 . S
C601 C600 1.370 . S
C601 C605 1.408 . S
C602 C600 1.363 . S
C602 C603 1.370 . S
C602 C606 1.524 . S
C603 C595 1.503 . S
C603 C602 1.370 . S
C603 C604 1.403 . S
C604 C603 1.403 . S
C604 C605 1.404 . S
C604 C607 1.539 . S
C605 C601 1.408 . S
C605 C604 1.404 . S
C605 H617 0.930 . S
C606 C602 1.524 . S
C606 H618 0.956 . S
C606 H619 0.961 . S
C606 H620 0.961 . S
C607 C604 1.539 . S
C607 H621 0.958 . S
C607 H622 0.961 . S
C607 H623 0.960 . S
H608 C592 0.931 . S
H609 C597 0.929 . S
H610 C598 0.960 . S
H611 C598 0.962 . S
H612 C598 0.960 . S
H613 C599 0.961 . S
H614 C599 0.961 . S
H615 C599 0.961 . S
H616 C600 0.931 . S
H617 C605 0.930 . S
H618 C606 0.956 . S
H619 C606 0.961 . S
H620 C606 0.961 . S
H621 C607 0.958 . S
H622 C607 0.961 . S
H623 C607 0.960 . S
C624 C625 1.391 . S
C624 C626 1.394 . S
C624 H640 0.931 . S
C625 C624 1.391 . S
C625 C629 1.376 . S
C626 C624 1.394 . S
C626 C627 1.369 . S
C626 C630 1.531 . S
C627 C626 1.369 . S
C627 C628 1.410 . S
C627 C635 1.503 . S
C628 C627 1.410 . S
C628 C629 1.392 . S
C628 C631 1.511 . S
C629 C625 1.376 . S
C629 C628 1.392 . S
C629 H641 0.929 . S
C630 C626 1.531 . S
C630 H642 0.960 . S
C630 H643 0.962 . S
C630 H644 0.960 . S
C631 C628 1.511 . S
C631 H645 0.961 . S
C631 H646 0.961 . S
C631 H647 0.961 . S
C632 C633 1.370 . S
C632 C634 1.363 . S
C632 H648 0.931 . S
C633 C632 1.370 . S
C633 C637 1.408 . S
C634 C632 1.363 . S
C634 C635 1.370 . S
C634 C638 1.524 . S
C635 C627 1.503 . S
C635 C634 1.370 . S
C635 C636 1.403 . S
C636 C635 1.403 . S
C636 C637 1.404 . S
C636 C639 1.539 . S
C637 C633 1.408 . S
C637 C636 1.404 . S
C637 H649 0.930 . S
C638 C634 1.524 . S
C638 H650 0.956 . S
C638 H651 0.961 . S
C638 H652 0.961 . S
C639 C636 1.539 . S
C639 H653 0.958 . S
C639 H654 0.961 . S
C639 H655 0.960 . S
H640 C624 0.931 . S
H641 C629 0.929 . S
H642 C630 0.960 . S
H643 C630 0.962 . S
H644 C630 0.960 . S
H645 C631 0.961 . S
H646 C631 0.961 . S
H647 C631 0.961 . S
H648 C632 0.931 . S
H649 C637 0.930 . S
H650 C638 0.956 . S
H651 C638 0.961 . S
H652 C638 0.961 . S
H653 C639 0.958 . S
H654 C639 0.961 . S
H655 C639 0.960 . S
C656 C657 1.391 . S
C656 C658 1.394 . S
C656 H672 0.931 . S
C657 C656 1.391 . S
C657 C661 1.376 . S
C658 C656 1.394 . S
C658 C659 1.369 . S
C658 C662 1.531 . S
C659 C658 1.369 . S
C659 C660 1.410 . S
C659 C667 1.503 . S
C660 C659 1.410 . S
C660 C661 1.392 . S
C660 C663 1.511 . S
C661 C657 1.376 . S
C661 C660 1.392 . S
C661 H673 0.929 . S
C662 C658 1.531 . S
C662 H674 0.960 . S
C662 H675 0.962 . S
C662 H676 0.960 . S
C663 C660 1.511 . S
C663 H677 0.961 . S
C663 H678 0.961 . S
C663 H679 0.961 . S
C664 C665 1.370 . S
C664 C666 1.363 . S
C664 H680 0.931 . S
C665 C664 1.370 . S
C665 C669 1.408 . S
C666 C664 1.363 . S
C666 C667 1.370 . S
C666 C670 1.524 . S
C667 C659 1.503 . S
C667 C666 1.370 . S
C667 C668 1.403 . S
C668 C667 1.403 . S
C668 C669 1.404 . S
C668 C671 1.539 . S
C669 C665 1.408 . S
C669 C668 1.404 . S
C669 H681 0.930 . S
C670 C666 1.524 . S
C670 H682 0.956 . S
C670 H683 0.961 . S
C670 H684 0.961 . S
C671 C668 1.539 . S
C671 H685 0.958 . S
C671 H686 0.961 . S
C671 H687 0.960 . S
H672 C656 0.931 . S
H673 C661 0.929 . S
H674 C662 0.960 . S
H675 C662 0.962 . S
H676 C662 0.960 . S
H677 C663 0.961 . S
H678 C663 0.961 . S
H679 C663 0.961 . S
H680 C664 0.931 . S
H681 C669 0.930 . S
H682 C670 0.956 . S
H683 C670 0.961 . S
H684 C670 0.961 . S
H685 C671 0.958 . S
H686 C671 0.961 . S
H687 C671 0.960 . S
C688 C689 1.391 . S
C688 C690 1.394 . S
C688 H704 0.931 . S
C689 C688 1.391 . S
C689 C693 1.376 . S
C690 C688 1.394 . S
C690 C691 1.369 . S
C690 C694 1.531 . S
C691 C690 1.369 . S
C691 C692 1.410 . S
C691 C699 1.503 . S
C692 C691 1.410 . S
C692 C693 1.392 . S
C692 C695 1.511 . S
C693 C689 1.376 . S
C693 C692 1.392 . S
C693 H705 0.929 . S
C694 C690 1.531 . S
C694 H706 0.960 . S
C694 H707 0.962 . S
C694 H708 0.960 . S
C695 C692 1.511 . S
C695 H709 0.961 . S
C695 H710 0.961 . S
C695 H711 0.961 . S
C696 C697 1.370 . S
C696 C698 1.363 . S
C696 H712 0.931 . S
C697 C696 1.370 . S
C697 C701 1.408 . S
C698 C696 1.363 . S
C698 C699 1.370 . S
C698 C702 1.524 . S
C699 C691 1.503 . S
C699 C698 1.370 . S
C699 C700 1.403 . S
C700 C699 1.403 . S
C700 C701 1.404 . S
C700 C703 1.539 . S
C701 C697 1.408 . S
C701 C700 1.404 . S
C701 H713 0.930 . S
C702 C698 1.524 . S
C702 H714 0.956 . S
C702 H715 0.961 . S
C702 H716 0.961 . S
C703 C700 1.539 . S
C703 H717 0.958 . S
C703 H718 0.961 . S
C703 H719 0.960 . S
H704 C688 0.931 . S
H705 C693 0.929 . S
H706 C694 0.960 . S
H707 C694 0.962 . S
H708 C694 0.960 . S
H709 C695 0.961 . S
H710 C695 0.961 . S
H711 C695 0.961 . S
H712 C696 0.931 . S
H713 C701 0.930 . S
H714 C702 0.956 . S
H715 C702 0.961 . S
H716 C702 0.961 . S
H717 C703 0.958 . S
H718 C703 0.961 . S
H719 C703 0.960 . S
C720 C721 1.391 . S
C720 C722 1.402 . S
C720 H736 0.931 . S
C721 C720 1.391 . S
C721 C725 1.376 . S
C722 C720 1.402 . S
C722 C723 1.375 . S
C722 C726 1.516 1_556 S
C723 C722 1.375 . S
C723 C724 1.410 . S
C723 C731 1.503 1_556 S
C724 C723 1.410 . S
C724 C725 1.392 . S
C724 C727 1.511 . S
C725 C721 1.376 . S
C725 C724 1.392 . S
C725 H737 0.929 . S
C726 C722 1.516 1_554 S
C726 H738 0.960 . S
C726 H739 0.962 . S
C726 H740 0.960 . S
C727 C724 1.511 . S
C727 H741 0.961 . S
C727 H742 0.961 . S
C727 H743 0.961 . S
C728 C729 1.370 . S
C728 C730 1.363 . S
C728 H744 0.931 . S
C729 C728 1.370 . S
C729 C733 1.408 . S
C730 C728 1.363 . S
C730 C731 1.370 . S
C730 C734 1.524 . S
C731 C723 1.503 1_554 S
C731 C730 1.370 . S
C731 C732 1.403 . S
C732 C731 1.403 . S
C732 C733 1.404 . S
C732 C735 1.539 1_554 S
C733 C729 1.408 . S
C733 C732 1.404 . S
C733 H745 0.930 . S
C734 C730 1.524 . S
C734 H746 0.956 . S
C734 H747 0.961 1_554 S
C734 H748 0.961 . S
C735 C732 1.539 1_556 S
C735 H749 0.958 1_556 S
C735 H750 0.961 . S
C735 H751 0.960 . S
H736 C720 0.931 . S
H737 C725 0.929 . S
H738 C726 0.960 . S
H739 C726 0.962 . S
H740 C726 0.960 . S
H741 C727 0.961 . S
H742 C727 0.961 . S
H743 C727 0.961 . S
H744 C728 0.931 . S
H745 C733 0.930 . S
H746 C734 0.956 . S
H747 C734 0.961 1_556 S
H748 C734 0.961 . S
H749 C735 0.958 1_554 S
H750 C735 0.961 . S
H751 C735 0.960 . S
C752 C753 1.391 . S
C752 C754 1.394 . S
C752 H768 0.931 . S
C753 C752 1.391 . S
C753 C757 1.376 . S
C754 C752 1.394 . S
C754 C755 1.369 . S
C754 C758 1.531 . S
C755 C754 1.369 . S
C755 C756 1.410 . S
C755 C763 1.503 . S
C756 C755 1.410 . S
C756 C757 1.392 . S
C756 C759 1.511 . S
C757 C753 1.376 . S
C757 C756 1.392 . S
C757 H769 0.929 . S
C758 C754 1.531 . S
C758 H770 0.960 . S
C758 H771 0.962 . S
C758 H772 0.960 . S
C759 C756 1.511 . S
C759 H773 0.961 . S
C759 H774 0.961 . S
C759 H775 0.961 . S
C760 C761 1.370 . S
C760 C762 1.363 . S
C760 H776 0.931 . S
C761 C760 1.370 . S
C761 C765 1.408 . S
C762 C760 1.363 . S
C762 C763 1.370 . S
C762 C766 1.524 . S
C763 C755 1.503 . S
C763 C762 1.370 . S
C763 C764 1.403 . S
C764 C763 1.403 . S
C764 C765 1.404 . S
C764 C767 1.539 . S
C765 C761 1.408 . S
C765 C764 1.404 . S
C765 H777 0.930 . S
C766 C762 1.524 . S
C766 H778 0.956 . S
C766 H779 0.961 . S
C766 H780 0.961 . S
C767 C764 1.539 . S
C767 H781 0.958 . S
C767 H782 0.961 . S
C767 H783 0.960 . S
H768 C752 0.931 . S
H769 C757 0.929 . S
H770 C758 0.960 . S
H771 C758 0.962 . S
H772 C758 0.960 . S
H773 C759 0.961 . S
H774 C759 0.961 . S
H775 C759 0.961 . S
H776 C760 0.931 . S
H777 C765 0.930 . S
H778 C766 0.956 . S
H779 C766 0.961 . S
H780 C766 0.961 . S
H781 C767 0.958 . S
H782 C767 0.961 . S
H783 C767 0.960 . S
C784 C785 1.391 . S
C784 C786 1.394 . S
C784 H800 0.931 . S
C785 C784 1.391 . S
C785 C789 1.376 . S
C786 C784 1.394 . S
C786 C787 1.369 . S
C786 C790 1.531 . S
C787 C786 1.369 . S
C787 C788 1.410 1_554 S
C787 C795 1.503 1_554 S
C788 C787 1.410 1_556 S
C788 C789 1.392 1_556 S
C788 C791 1.511 . S
C789 C785 1.376 . S
C789 C788 1.392 1_554 S
C789 H801 0.929 . S
C790 C786 1.531 . S
C790 H802 0.960 . S
C790 H803 0.962 . S
C790 H804 0.960 . S
C791 C788 1.511 . S
C791 H805 0.961 . S
C791 H806 0.961 . S
C791 H807 0.961 . S
C792 C793 1.370 . S
C792 C794 1.363 . S
C792 H808 0.931 . S
C793 C792 1.370 . S
C793 C797 1.408 . S
C794 C792 1.363 . S
C794 C795 1.370 . S
C794 C798 1.524 1_556 S
C795 C787 1.503 1_556 S
C795 C794 1.370 . S
C795 C796 1.403 . S
C796 C795 1.403 . S
C796 C797 1.404 . S
C796 C799 1.539 . S
C797 C793 1.408 . S
C797 C796 1.404 . S
C797 H809 0.930 . S
C798 C794 1.524 1_554 S
C798 H810 0.956 . S
C798 H811 0.961 . S
C798 H812 0.961 . S
C799 C796 1.539 . S
C799 H813 0.958 . S
C799 H814 0.961 . S
C799 H815 0.960 . S
H800 C784 0.931 . S
H801 C789 0.929 . S
H802 C790 0.960 . S
H803 C790 0.962 . S
H804 C790 0.960 . S
H805 C791 0.961 . S
H806 C791 0.961 . S
H807 C791 0.961 . S
H808 C792 0.931 . S
H809 C797 0.930 . S
H810 C798 0.956 . S
H811 C798 0.961 . S
H812 C798 0.961 . S
H813 C799 0.958 . S
H814 C799 0.961 . S
H815 C799 0.960 . S
C816 C817 1.391 . S
C816 C818 1.394 . S
C816 H832 0.931 . S
C817 C816 1.391 . S
C817 C821 1.376 . S
C818 C816 1.394 . S
C818 C819 1.369 . S
C818 C822 1.531 . S
C819 C818 1.369 . S
C819 C820 1.410 . S
C819 C827 1.503 . S
C820 C819 1.410 . S
C820 C821 1.392 . S
C820 C823 1.511 . S
C821 C817 1.376 . S
C821 C820 1.392 . S
C821 H833 0.929 . S
C822 C818 1.531 . S
C822 H834 0.960 . S
C822 H835 0.962 . S
C822 H836 0.960 . S
C823 C820 1.511 . S
C823 H837 0.961 . S
C823 H838 0.961 . S
C823 H839 0.961 . S
C824 C825 1.370 . S
C824 C826 1.363 . S
C824 H840 0.931 . S
C825 C824 1.370 . S
C825 C829 1.408 . S
C826 C824 1.363 . S
C826 C827 1.370 . S
C826 C830 1.524 . S
C827 C819 1.503 . S
C827 C826 1.370 . S
C827 C828 1.403 . S
C828 C827 1.403 . S
C828 C829 1.404 . S
C828 C831 1.539 . S
C829 C825 1.408 . S
C829 C828 1.404 . S
C829 H841 0.930 . S
C830 C826 1.524 . S
C830 H842 0.956 . S
C830 H843 0.961 . S
C830 H844 0.961 . S
C831 C828 1.539 . S
C831 H845 0.958 . S
C831 H846 0.961 . S
C831 H847 0.960 . S
H832 C816 0.931 . S
H833 C821 0.929 . S
H834 C822 0.960 . S
H835 C822 0.962 . S
H836 C822 0.960 . S
H837 C823 0.961 . S
H838 C823 0.961 . S
H839 C823 0.961 . S
H840 C824 0.931 . S
H841 C829 0.930 . S
H842 C830 0.956 . S
H843 C830 0.961 . S
H844 C830 0.961 . S
H845 C831 0.958 . S
H846 C831 0.961 . S
H847 C831 0.960 . S
C848 C849 1.391 . S
C848 C850 1.394 . S
C848 H864 0.931 . S
C849 C848 1.391 . S
C849 C853 1.376 . S
C850 C848 1.394 . S
C850 C851 1.369 . S
C850 C854 1.531 . S
C851 C850 1.369 . S
C851 C852 1.410 1_554 S
C851 C859 1.503 1_554 S
C852 C851 1.410 1_556 S
C852 C853 1.392 1_556 S
C852 C855 1.511 . S
C853 C849 1.376 . S
C853 C852 1.392 1_554 S
C853 H865 0.929 . S
C854 C850 1.531 . S
C854 H866 0.960 . S
C854 H867 0.962 . S
C854 H868 0.960 . S
C855 C852 1.511 . S
C855 H869 0.961 . S
C855 H870 0.961 . S
C855 H871 0.961 . S
C856 C857 1.370 . S
C856 C858 1.363 . S
C856 H872 0.931 . S
C857 C856 1.370 . S
C857 C861 1.408 . S
C858 C856 1.363 . S
C858 C859 1.370 . S
C858 C862 1.524 . S
C859 C851 1.503 1_556 S
C859 C858 1.370 . S
C859 C860 1.403 . S
C860 C859 1.403 . S
C860 C861 1.404 . S
C860 C863 1.539 . S
C861 C857 1.408 . S
C861 C860 1.404 . S
C861 H873 0.930 . S
C862 C858 1.524 . S
C862 H874 0.956 1_556 S
C862 H875 0.961 . S
C862 H876 0.961 . S
C863 C860 1.539 . S
C863 H877 0.958 . S
C863 H878 0.961 . S
C863 H879 0.960 . S
H864 C848 0.931 . S
H865 C853 0.929 . S
H866 C854 0.960 . S
H867 C854 0.962 . S
H868 C854 0.960 . S
H869 C855 0.961 . S
H870 C855 0.961 . S
H871 C855 0.961 . S
H872 C856 0.931 . S
H873 C861 0.930 . S
H874 C862 0.956 1_554 S
H875 C862 0.961 . S
H876 C862 0.961 . S
H877 C863 0.958 . S
H878 C863 0.961 . S
H879 C863 0.960 . S
C880 C881 1.391 . S
C880 C882 1.394 . S
C880 H896 0.931 . S
C881 C880 1.391 . S
C881 C885 1.376 . S
C882 C880 1.394 . S
C882 C883 1.369 . S
C882 C886 1.531 . S
C883 C882 1.369 . S
C883 C884 1.410 . S
C883 C891 1.503 . S
C884 C883 1.410 . S
C884 C885 1.392 . S
C884 C887 1.511 . S
C885 C881 1.376 . S
C885 C884 1.392 . S
C885 H897 0.929 . S
C886 C882 1.531 . S
C886 H898 0.960 . S
C886 H899 0.962 . S
C886 H900 0.960 . S
C887 C884 1.511 . S
C887 H901 0.961 . S
C887 H902 0.961 . S
C887 H903 0.961 . S
C888 C889 1.370 . S
C888 C890 1.363 . S
C888 H904 0.931 . S
C889 C888 1.370 . S
C889 C893 1.408 . S
C890 C888 1.363 . S
C890 C891 1.370 . S
C890 C894 1.524 . S
C891 C883 1.503 . S
C891 C890 1.370 . S
C891 C892 1.403 . S
C892 C891 1.403 . S
C892 C893 1.404 . S
C892 C895 1.539 . S
C893 C889 1.408 . S
C893 C892 1.404 . S
C893 H905 0.930 . S
C894 C890 1.524 . S
C894 H906 0.956 . S
C894 H907 0.961 . S
C894 H908 0.961 . S
C895 C892 1.539 . S
C895 H909 0.958 . S
C895 H910 0.961 . S
C895 H911 0.960 . S
H896 C880 0.931 . S
H897 C885 0.929 . S
H898 C886 0.960 . S
H899 C886 0.962 . S
H900 C886 0.960 . S
H901 C887 0.961 . S
H902 C887 0.961 . S
H903 C887 0.961 . S
H904 C888 0.931 . S
H905 C893 0.930 . S
H906 C894 0.956 . S
H907 C894 0.961 . S
H908 C894 0.961 . S
H909 C895 0.958 . S
H910 C895 0.961 . S
H911 C895 0.960 . S
C912 C913 1.391 . S
C912 C914 1.394 . S
C912 H928 0.931 . S
C913 C912 1.391 . S
C913 C917 1.376 . S
C914 C912 1.394 . S
C914 C915 1.369 . S
C914 C918 1.543 . S
C915 C914 1.369 . S
C915 C916 1.410 . S
C915 C923 1.503 1_554 S
C916 C915 1.410 . S
C916 C917 1.392 . S
C916 C919 1.511 . S
C917 C913 1.376 . S
C917 C916 1.392 . S
C917 H929 0.929 . S
C918 C914 1.543 . S
C918 H930 0.960 . S
C918 H931 0.938 1_554 S
C918 H932 0.973 . S
C919 C916 1.511 . S
C919 H933 0.961 . S
C919 H934 0.961 . S
C919 H935 0.961 . S
C920 C921 1.370 . S
C920 C922 1.363 . S
C920 H936 0.931 . S
C921 C920 1.370 . S
C921 C925 1.408 . S
C922 C920 1.363 . S
C922 C923 1.370 . S
C922 C926 1.524 . S
C923 C915 1.503 1_556 S
C923 C922 1.370 . S
C923 C924 1.403 1_556 S
C924 C923 1.403 1_554 S
C924 C925 1.404 1_554 S
C924 C927 1.539 . S
C925 C921 1.408 . S
C925 C924 1.404 1_556 S
C925 H937 0.930 . S
C926 C922 1.524 . S
C926 H938 0.956 . S
C926 H939 0.961 . S
C926 H940 0.961 . S
C927 C924 1.539 . S
C927 H941 0.958 . S
C927 H942 0.961 . S
C927 H943 0.960 . S
H928 C912 0.931 . S
H929 C917 0.929 . S
H930 C918 0.960 . S
H931 C918 0.938 1_556 S
H932 C918 0.973 . S
H933 C919 0.961 . S
H934 C919 0.961 . S
H935 C919 0.961 . S
H936 C920 0.931 . S
H937 C925 0.930 . S
H938 C926 0.956 . S
H939 C926 0.961 . S
H940 C926 0.961 . S
H941 C927 0.958 . S
H942 C927 0.961 . S
H943 C927 0.960 . S
C944 C945 1.391 . S
C944 C946 1.394 . S
C944 H960 0.931 . S
C945 C944 1.391 . S
C945 C949 1.376 . S
C946 C944 1.394 . S
C946 C947 1.369 . S
C946 C950 1.531 . S
C947 C946 1.369 . S
C947 C948 1.410 . S
C947 C955 1.503 . S
C948 C947 1.410 . S
C948 C949 1.392 . S
C948 C951 1.511 . S
C949 C945 1.376 . S
C949 C948 1.392 . S
C949 H961 0.929 . S
C950 C946 1.531 . S
C950 H962 0.960 . S
C950 H963 0.962 . S
C950 H964 0.960 . S
C951 C948 1.511 . S
C951 H965 0.961 . S
C951 H966 0.961 . S
C951 H967 0.961 . S
C952 C953 1.370 . S
C952 C954 1.363 . S
C952 H968 0.931 . S
C953 C952 1.370 . S
C953 C957 1.408 . S
C954 C952 1.363 . S
C954 C955 1.370 . S
C954 C958 1.524 . S
C955 C947 1.503 . S
C955 C954 1.370 . S
C955 C956 1.403 . S
C956 C955 1.403 . S
C956 C957 1.404 . S
C956 C959 1.539 . S
C957 C953 1.408 . S
C957 C956 1.404 . S
C957 H969 0.930 . S
C958 C954 1.524 . S
C958 H970 0.956 . S
C958 H971 0.961 . S
C958 H972 0.961 . S
C959 C956 1.539 . S
C959 H973 0.958 . S
C959 H974 0.961 . S
C959 H975 0.960 . S
H960 C944 0.931 . S
H961 C949 0.929 . S
H962 C950 0.960 . S
H963 C950 0.962 . S
H964 C950 0.960 . S
H965 C951 0.961 . S
H966 C951 0.961 . S
H967 C951 0.961 . S
H968 C952 0.931 . S
H969 C957 0.930 . S
H970 C958 0.956 . S
H971 C958 0.961 . S
H972 C958 0.961 . S
H973 C959 0.958 . S
H974 C959 0.961 . S
H975 C959 0.960 . S
C976 C977 1.391 . S
C976 C978 1.394 1_556 S
C976 H992 0.931 . S
C977 C976 1.391 . S
C977 C981 1.376 . S
C978 C976 1.394 1_554 S
C978 C979 1.371 . S
C978 C982 1.531 . S
C979 C978 1.371 . S
C979 C980 1.399 1_554 S
C979 C987 1.510 . S
C980 C979 1.399 1_556 S
C980 C981 1.392 . S
C980 C983 1.511 . S
C981 C977 1.376 . S
C981 C980 1.392 . S
C981 H993 0.929 . S
C982 C978 1.531 . S
C982 H994 0.960 . S
C982 H995 0.962 . S
C982 H996 0.960 . S
C983 C980 1.511 . S
C983 H997 0.961 . S
C983 H998 0.961 . S
C983 H999 0.961 1_556 S
C984 C985 1.364 1_556 S
C984 C986 1.365 . S
C984 H1000 0.935 . S
C985 C984 1.364 1_554 S
C985 C989 1.408 . S
C986 C984 1.365 . S
C986 C987 1.370 1_556 S
C986 C990 1.524 . S
C987 C979 1.510 . S
C987 C986 1.370 1_554 S
C987 C988 1.403 . S
C988 C987 1.403 . S
C988 C989 1.404 . S
C988 C991 1.539 . S
C989 C985 1.408 . S
C989 C988 1.404 . S
C989 H1001 0.930 . S
C990 C986 1.524 . S
C990 H1002 0.956 . S
C990 H1003 0.961 . S
C990 H1004 0.961 . S
C991 C988 1.539 . S
C991 H1005 0.958 . S
C991 H1006 0.961 . S
C991 H1007 0.960 . S
H992 C976 0.931 . S
H993 C981 0.929 . S
H994 C982 0.960 . S
H995 C982 0.962 . S
H996 C982 0.960 . S
H997 C983 0.961 . S
H998 C983 0.961 . S
H999 C983 0.961 1_554 S
H1000 C984 0.935 . S
H1001 C989 0.930 . S
H1002 C990 0.956 . S
H1003 C990 0.961 . S
H1004 C990 0.961 . S
H1005 C991 0.958 . S
H1006 C991 0.961 . S
H1007 C991 0.960 . S
C1008 C1009 1.391 . S
C1008 C1010 1.394 . S
C1008 H1024 0.931 . S
C1009 C1008 1.391 . S
C1009 C1013 1.376 . S
C1010 C1008 1.394 . S
C1010 C1011 1.369 . S
C1010 C1014 1.531 . S
C1011 C1010 1.369 . S
C1011 C1012 1.410 . S
C1011 C1019 1.503 . S
C1012 C1011 1.410 . S
C1012 C1013 1.392 . S
C1012 C1015 1.511 . S
C1013 C1009 1.376 . S
C1013 C1012 1.392 . S
C1013 H1025 0.929 . S
C1014 C1010 1.531 . S
C1014 H1026 0.960 . S
C1014 H1027 0.962 . S
C1014 H1028 0.960 . S
C1015 C1012 1.511 . S
C1015 H1029 0.961 . S
C1015 H1030 0.961 . S
C1015 H1031 0.961 . S
C1016 C1017 1.370 . S
C1016 C1018 1.363 . S
C1016 H1032 0.931 . S
C1017 C1016 1.370 . S
C1017 C1021 1.408 . S
C1018 C1016 1.363 . S
C1018 C1019 1.370 . S
C1018 C1022 1.524 . S
C1019 C1011 1.503 . S
C1019 C1018 1.370 . S
C1019 C1020 1.403 . S
C1020 C1019 1.403 . S
C1020 C1021 1.404 . S
C1020 C1023 1.539 . S
C1021 C1017 1.408 . S
C1021 C1020 1.404 . S
C1021 H1033 0.930 . S
C1022 C1018 1.524 . S
C1022 H1034 0.956 . S
C1022 H1035 0.961 . S
C1022 H1036 0.961 . S
C1023 C1020 1.539 . S
C1023 H1037 0.958 . S
C1023 H1038 0.961 . S
C1023 H1039 0.960 . S
H1024 C1008 0.931 . S
H1025 C1013 0.929 . S
H1026 C1014 0.960 . S
H1027 C1014 0.962 . S
H1028 C1014 0.960 . S
H1029 C1015 0.961 . S
H1030 C1015 0.961 . S
H1031 C1015 0.961 . S
H1032 C1016 0.931 . S
H1033 C1021 0.930 . S
H1034 C1022 0.956 . S
H1035 C1022 0.961 . S
H1036 C1022 0.961 . S
H1037 C1023 0.958 . S
H1038 C1023 0.961 . S
H1039 C1023 0.960 . S
C1040 C1041 1.391 . S
C1040 C1042 1.395 . S
C1040 H1056 0.931 . S
C1041 C1040 1.391 . S
C1041 C1045 1.376 . S
C1042 C1040 1.395 . S
C1042 C1043 1.369 . S
C1042 C1046 1.529 1_554 S
C1043 C1042 1.369 . S
C1043 C1044 1.410 . S
C1043 C1051 1.503 1_554 S
C1044 C1043 1.410 . S
C1044 C1045 1.392 . S
C1044 C1047 1.511 . S
C1045 C1041 1.376 . S
C1045 C1044 1.392 . S
C1045 H1057 0.929 . S
C1046 C1042 1.529 1_556 S
C1046 H1058 0.960 . S
C1046 H1059 0.962 . S
C1046 H1060 0.960 . S
C1047 C1044 1.511 . S
C1047 H1061 0.961 . S
C1047 H1062 0.961 . S
C1047 H1063 0.986 . S
C1048 C1049 1.370 . S
C1048 C1050 1.363 1_556 S
C1048 H1064 0.931 1_556 S
C1049 C1048 1.370 . S
C1049 C1053 1.408 . S
C1050 C1048 1.363 1_554 S
C1050 C1051 1.370 1_554 S
C1050 C1054 1.524 . S
C1051 C1043 1.503 1_556 S
C1051 C1050 1.370 1_556 S
C1051 C1052 1.403 . S
C1052 C1051 1.403 . S
C1052 C1053 1.404 . S
C1052 C1055 1.539 . S
C1053 C1049 1.408 . S
C1053 C1052 1.404 . S
C1053 H1065 0.930 . S
C1054 C1050 1.524 . S
C1054 H1066 0.956 . S
C1054 H1067 0.961 . S
C1054 H1068 0.961 . S
C1055 C1052 1.539 . S
C1055 H1069 0.958 . S
C1055 H1070 0.961 . S
C1055 H1071 0.960 . S
H1056 C1040 0.931 . S
H1057 C1045 0.929 . S
H1058 C1046 0.960 . S
H1059 C1046 0.962 . S
H1060 C1046 0.960 . S
H1061 C1047 0.961 . S
H1062 C1047 0.961 . S
H1063 C1047 0.986 . S
H1064 C1048 0.931 1_554 S
H1065 C1053 0.930 . S
H1066 C1054 0.956 . S
H1067 C1054 0.961 . S
H1068 C1054 0.961 . S
H1069 C1055 0.958 . S
H1070 C1055 0.961 . S
H1071 C1055 0.960 . S
C1072 C1073 1.391 . S
C1072 C1074 1.394 . S
C1072 H1088 0.931 . S
C1073 C1072 1.391 . S
C1073 C1077 1.376 . S
C1074 C1072 1.394 . S
C1074 C1075 1.369 . S
C1074 C1078 1.531 . S
C1075 C1074 1.369 . S
C1075 C1076 1.410 . S
C1075 C1083 1.503 . S
C1076 C1075 1.410 . S
C1076 C1077 1.392 . S
C1076 C1079 1.511 . S
C1077 C1073 1.376 . S
C1077 C1076 1.392 . S
C1077 H1089 0.929 . S
C1078 C1074 1.531 . S
C1078 H1090 0.960 . S
C1078 H1091 0.962 . S
C1078 H1092 0.960 . S
C1079 C1076 1.511 . S
C1079 H1093 0.961 . S
C1079 H1094 0.961 . S
C1079 H1095 0.961 . S
C1080 C1081 1.370 . S
C1080 C1082 1.363 . S
C1080 H1096 0.931 . S
C1081 C1080 1.370 . S
C1081 C1085 1.408 . S
C1082 C1080 1.363 . S
C1082 C1083 1.370 . S
C1082 C1086 1.524 . S
C1083 C1075 1.503 . S
C1083 C1082 1.370 . S
C1083 C1084 1.403 . S
C1084 C1083 1.403 . S
C1084 C1085 1.404 . S
C1084 C1087 1.539 . S
C1085 C1081 1.408 . S
C1085 C1084 1.404 . S
C1085 H1097 0.930 . S
C1086 C1082 1.524 . S
C1086 H1098 0.956 . S
C1086 H1099 0.961 . S
C1086 H1100 0.961 . S
C1087 C1084 1.539 . S
C1087 H1101 0.958 . S
C1087 H1102 0.961 . S
C1087 H1103 0.960 . S
H1088 C1072 0.931 . S
H1089 C1077 0.929 . S
H1090 C1078 0.960 . S
H1091 C1078 0.962 . S
H1092 C1078 0.960 . S
H1093 C1079 0.961 . S
H1094 C1079 0.961 . S
H1095 C1079 0.961 . S
H1096 C1080 0.931 . S
H1097 C1085 0.930 . S
H1098 C1086 0.956 . S
H1099 C1086 0.961 . S
H1100 C1086 0.961 . S
H1101 C1087 0.958 . S
H1102 C1087 0.961 . S
H1103 C1087 0.960 . S
C1104 C1105 1.391 . S
C1104 C1106 1.394 . S
C1104 H1120 0.931 . S
C1105 C1104 1.391 . S
C1105 C1109 1.376 . S
C1106 C1104 1.394 . S
C1106 C1107 1.369 . S
C1106 C1110 1.531 . S
C1107 C1106 1.369 . S
C1107 C1108 1.410 . S
C1107 C1115 1.503 1_546 S
C1108 C1107 1.410 . S
C1108 C1109 1.392 . S
C1108 C1111 1.511 1_556 S
C1109 C1105 1.376 . S
C1109 C1108 1.392 . S
C1109 H1121 0.929 . S
C1110 C1106 1.531 . S
C1110 H1122 0.960 1_545 S
C1110 H1123 0.962 . S
C1110 H1124 0.960 . S
C1111 C1108 1.511 1_554 S
C1111 H1125 0.961 . S
C1111 H1126 0.961 . S
C1111 H1127 0.940 1_554 S
C1112 C1113 1.370 . S
C1112 C1114 1.363 . S
C1112 H1128 0.931 . S
C1113 C1112 1.370 . S
C1113 C1117 1.408 1_554 S
C1114 C1112 1.363 . S
C1114 C1115 1.370 . S
C1114 C1118 1.524 1_565 S
C1115 C1107 1.503 1_564 S
C1115 C1114 1.370 . S
C1115 C1116 1.403 1_554 S
C1116 C1115 1.403 1_556 S
C1116 C1117 1.404 . S
C1116 C1119 1.539 . S
C1117 C1113 1.408 1_556 S
C1117 C1116 1.404 . S
C1117 H1129 0.930 . S
C1118 C1114 1.524 1_545 S
C1118 H1130 0.956 . S
C1118 H1131 0.961 . S
C1118 H1132 0.961 1_545 S
C1119 C1116 1.539 . S
C1119 H1133 0.958 . S
C1119 H1134 0.961 . S
C1119 H1135 0.960 . S
H1120 C1104 0.931 . S
H1121 C1109 0.929 . S
H1122 C1110 0.960 1_565 S
H1123 C1110 0.962 . S
H1124 C1110 0.960 . S
H1125 C1111 0.961 . S
H1126 C1111 0.961 . S
H1127 C1111 0.940 1_556 S
H1128 C1112 0.931 . S
H1129 C1117 0.930 . S
H1130 C1118 0.956 . S
H1131 C1118 0.961 . S
H1132 C1118 0.961 1_565 S
H1133 C1119 0.958 . S
H1134 C1119 0.961 . S
H1135 C1119 0.960 . S
C1136 C1137 1.391 . S
C1136 C1138 1.394 . S
C1136 H1152 0.931 . S
C1137 C1136 1.391 . S
C1137 C1141 1.376 . S
C1138 C1136 1.394 . S
C1138 C1139 1.369 . S
C1138 C1142 1.531 . S
C1139 C1138 1.369 . S
C1139 C1140 1.410 . S
C1139 C1147 1.503 1_565 S
C1140 C1139 1.410 . S
C1140 C1141 1.392 . S
C1140 C1143 1.511 1_565 S
C1141 C1137 1.376 . S
C1141 C1140 1.392 . S
C1141 H1153 0.929 . S
C1142 C1138 1.531 . S
C1142 H1154 0.960 . S
C1142 H1155 0.962 . S
C1142 H1156 0.960 . S
C1143 C1140 1.511 1_545 S
C1143 H1157 0.961 1_545 S
C1143 H1158 0.961 . S
C1143 H1159 0.961 . S
C1144 C1145 1.370 . S
C1144 C1146 1.363 . S
C1144 H1160 0.931 . S
C1145 C1144 1.370 . S
C1145 C1149 1.408 . S
C1146 C1144 1.363 . S
C1146 C1147 1.370 . S
C1146 C1150 1.506 1_545 S
C1147 C1139 1.503 1_545 S
C1147 C1146 1.370 . S
C1147 C1148 1.403 . S
C1148 C1147 1.403 . S
C1148 C1149 1.404 . S
C1148 C1151 1.539 . S
C1149 C1145 1.408 . S
C1149 C1148 1.404 . S
C1149 H1161 0.930 . S
C1150 C1146 1.506 1_565 S
C1150 H1162 0.975 . S
C1150 H1163 0.972 . S
C1150 H1164 0.950 1_565 S
C1151 C1148 1.539 . S
C1151 H1165 0.958 . S
C1151 H1166 0.961 . S
C1151 H1167 0.960 . S
H1152 C1136 0.931 . S
H1153 C1141 0.929 . S
H1154 C1142 0.960 . S
H1155 C1142 0.962 . S
H1156 C1142 0.960 . S
H1157 C1143 0.961 1_565 S
H1158 C1143 0.961 . S
H1159 C1143 0.961 . S
H1160 C1144 0.931 . S
H1161 C1149 0.930 . S
H1162 C1150 0.975 . S
H1163 C1150 0.972 . S
H1164 C1150 0.950 1_545 S
H1165 C1151 0.958 . S
H1166 C1151 0.961 . S
H1167 C1151 0.960 . S
C1168 C1169 1.391 . S
C1168 C1170 1.394 . S
C1168 H1184 0.931 . S
C1169 C1168 1.391 . S
C1169 C1173 1.376 . S
C1170 C1168 1.394 . S
C1170 C1171 1.369 . S
C1170 C1174 1.531 1_565 S
C1171 C1170 1.369 . S
C1171 C1172 1.410 1_554 S
C1171 C1179 1.503 1_564 S
C1172 C1171 1.410 1_556 S
C1172 C1173 1.392 1_556 S
C1172 C1175 1.511 . S
C1173 C1169 1.376 . S
C1173 C1172 1.392 1_554 S
C1173 H1185 0.929 . S
C1174 C1170 1.531 1_545 S
C1174 H1186 0.960 . S
C1174 H1187 0.962 . S
C1174 H1188 0.960 . S
C1175 C1172 1.511 . S
C1175 H1189 0.961 . S
C1175 H1190 0.961 . S
C1175 H1191 0.961 . S
C1176 C1177 1.370 . S
C1176 C1178 1.363 . S
C1176 H1192 0.931 . S
C1177 C1176 1.370 . S
C1177 C1181 1.408 . S
C1178 C1176 1.363 . S
C1178 C1179 1.370 . S
C1178 C1182 1.524 1_545 S
C1179 C1171 1.503 1_546 S
C1179 C1178 1.370 . S
C1179 C1180 1.403 1_556 S
C1180 C1179 1.403 1_554 S
C1180 C1181 1.404 1_554 S
C1180 C1183 1.539 . S
C1181 C1177 1.408 . S
C1181 C1180 1.404 1_556 S
C1181 H1193 0.930 . S
C1182 C1178 1.524 1_565 S
C1182 H1194 0.956 . S
C1182 H1195 0.961 . S
C1182 H1196 0.961 1_565 S
C1183 C1180 1.539 . S
C1183 H1197 0.958 . S
C1183 H1198 0.961 . S
C1183 H1199 0.960 . S
H1184 C1168 0.931 . S
H1185 C1173 0.929 . S
H1186 C1174 0.960 . S
H1187 C1174 0.962 . S
H1188 C1174 0.960 . S
H1189 C1175 0.961 . S
H1190 C1175 0.961 . S
H1191 C1175 0.961 . S
H1192 C1176 0.931 . S
H1193 C1181 0.930 . S
H1194 C1182 0.956 . S
H1195 C1182 0.961 . S
H1196 C1182 0.961 1_545 S
H1197 C1183 0.958 . S
H1198 C1183 0.961 . S
H1199 C1183 0.960 . S
C1200 C1201 1.391 . S
C1200 C1202 1.394 . S
C1200 H1216 0.931 . S
C1201 C1200 1.391 . S
C1201 C1205 1.376 . S
C1202 C1200 1.394 . S
C1202 C1203 1.369 . S
C1202 C1206 1.508 1_545 S
C1203 C1202 1.369 . S
C1203 C1204 1.410 . S
C1203 C1211 1.503 1_545 S
C1204 C1203 1.410 . S
C1204 C1205 1.392 . S
C1204 C1207 1.511 . S
C1205 C1201 1.376 . S
C1205 C1204 1.392 . S
C1205 H1217 0.929 . S
C1206 C1202 1.508 1_565 S
C1206 H1218 0.993 . S
C1206 H1219 0.959 1_565 S
C1206 H1220 0.954 1_565 S
C1207 C1204 1.511 . S
C1207 H1221 0.961 . S
C1207 H1222 0.961 . S
C1207 H1223 0.961 . S
C1208 C1209 1.370 . S
C1208 C1210 1.363 . S
C1208 H1224 0.931 . S
C1209 C1208 1.370 . S
C1209 C1213 1.408 . S
C1210 C1208 1.363 . S
C1210 C1211 1.370 . S
C1210 C1214 1.524 1_565 S
C1211 C1203 1.503 1_565 S
C1211 C1210 1.370 . S
C1211 C1212 1.403 . S
C1212 C1211 1.403 . S
C1212 C1213 1.404 . S
C1212 C1215 1.539 . S
C1213 C1209 1.408 . S
C1213 C1212 1.404 . S
C1213 H1225 0.930 . S
C1214 C1210 1.524 1_545 S
C1214 H1226 0.956 . S
C1214 H1227 0.961 . S
C1214 H1228 0.961 . S
C1215 C1212 1.539 . S
C1215 H1229 0.958 . S
C1215 H1230 0.961 . S
C1215 H1231 0.960 . S
H1216 C1200 0.931 . S
H1217 C1205 0.929 . S
H1218 C1206 0.993 . S
H1219 C1206 0.959 1_545 S
H1220 C1206 0.954 1_545 S
H1221 C1207 0.961 . S
H1222 C1207 0.961 . S
H1223 C1207 0.961 . S
H1224 C1208 0.931 . S
H1225 C1213 0.930 . S
H1226 C1214 0.956 . S
H1227 C1214 0.961 . S
H1228 C1214 0.961 . S
H1229 C1215 0.958 . S
H1230 C1215 0.961 . S
H1231 C1215 0.960 . S
C209 C3 1.459 . S
C217 C83 1.460 . S
C241 C16 1.460 . S
C249 C96 1.461 . S
C273 C55 1.457 . S
C281 C31 1.462 . S
C305 C70 1.450 . S
C313 C44 1.461 . S
C337 C187 1.464 . S
C345 C109 1.464 . S
C369 C200 1.452 . S
C377 C120 1.462 . S
C401 C135 1.452 . S
C409 C161 1.457 . S
C433 C146 1.466 . S
C441 C174 1.465 . S
C465 C4 1.554 . S
C473 C68 1.559 . S
C497 C17 1.574 . S
C505 C57 1.571 . S
C529 C36 1.570 . S
C537 C94 1.572 . S
C561 C81 1.569 . S
C569 C49 1.562 . S
C593 C172 1.549 . S
C601 C114 1.566 . S
C625 C159 1.576 . S
C633 C121 1.570 . S
C657 C140 1.566 . S
C665 C198 1.572 . S
C689 C185 1.567 . S
C697 C147 1.561 . S
C721 C160 1.483 . S
C729 C10 1.476 . S
C753 C23 1.465 . S
C761 C173 1.482 . S
C785 C186 1.465 . S
C793 C30 1.486 . S
C817 C199 1.487 . S
C825 C43 1.478 . S
C849 C108 1.484 . S
C857 C62 1.478 . S
C881 C127 1.467 . S
C889 C69 1.480 . S
C913 C82 1.489 . S
C921 C134 1.476 . S
C945 C95 1.466 . S
C953 C153 1.481 . S
C977 C29 1.741 . S
C985 C5 1.731 . S
C1009 C18 1.721 . S
C1017 C42 1.737 . S
C1041 C88 1.377 . S
C1049 C56 1.366 . S
C1073 C75 1.351 . S
C1081 C101 1.368 . S
C1105 C133 1.720 . S
C1113 C107 1.738 . S
C1137 C148 1.724 . S
C1145 C122 1.739 . S
C1169 C192 1.350 . S
C1177 C166 1.366 . S
C1201 C205 1.351 . S
C1209 C179 1.368 . S
