# Generated by pormake.
# Topology qtz-h, (3)-cn, num edge types: 1
# Building blocks:
#     Node 0, Type 0, BuildingBlock: WUSLED_clean_sbu_0, # of connection points: 3
#     Node 1, Type 0, BuildingBlock: WUSLED_clean_sbu_0, # of connection points: 3
#     Node 2, Type 0, BuildingBlock: WUSLED_clean_sbu_0, # of connection points: 3
#     Node 3, Type 0, BuildingBlock: WUSLED_clean_sbu_0, # of connection points: 3
#     Node 4, Type 0, BuildingBlock: WUSLED_clean_sbu_0, # of connection points: 3
#     Node 5, Type 0, BuildingBlock: WUSLED_clean_sbu_0, # of connection points: 3
#     Node 6, Type 0, BuildingBlock: WUSLED_clean_sbu_0, # of connection points: 3
#     Node 7, Type 0, BuildingBlock: WUSLED_clean_sbu_0, # of connection points: 3
#     Node 8, Type 0, BuildingBlock: WUSLED_clean_sbu_0, # of connection points: 3
#     Node 9, Type 0, BuildingBlock: WUSLED_clean_sbu_0, # of connection points: 3
#     Node 10, Type 0, BuildingBlock: WUSLED_clean_sbu_0, # of connection points: 3
#     Node 11, Type 0, BuildingBlock: WUSLED_clean_sbu_0, # of connection points: 3
#     Edge 12, Type (0, 0), BuildingBlock: UVAHIK_clean_linker_0, # of connection points: 2
#     Edge 13, Type (0, 0), BuildingBlock: UVAHIK_clean_linker_0, # of connection points: 2
#     Edge 14, Type (0, 0), BuildingBlock: UVAHIK_clean_linker_0, # of connection points: 2
#     Edge 15, Type (0, 0), BuildingBlock: UVAHIK_clean_linker_0, # of connection points: 2
#     Edge 16, Type (0, 0), BuildingBlock: UVAHIK_clean_linker_0, # of connection points: 2
#     Edge 17, Type (0, 0), BuildingBlock: UVAHIK_clean_linker_0, # of connection points: 2
#     Edge 18, Type (0, 0), BuildingBlock: UVAHIK_clean_linker_0, # of connection points: 2
#     Edge 19, Type (0, 0), BuildingBlock: UVAHIK_clean_linker_0, # of connection points: 2
#     Edge 20, Type (0, 0), BuildingBlock: UVAHIK_clean_linker_0, # of connection points: 2
#     Edge 21, Type (0, 0), BuildingBlock: UVAHIK_clean_linker_0, # of connection points: 2
#     Edge 22, Type (0, 0), BuildingBlock: UVAHIK_clean_linker_0, # of connection points: 2
#     Edge 23, Type (0, 0), BuildingBlock: UVAHIK_clean_linker_0, # of connection points: 2
#     Edge 24, Type (0, 0), BuildingBlock: UVAHIK_clean_linker_0, # of connection points: 2
#     Edge 25, Type (0, 0), BuildingBlock: UVAHIK_clean_linker_0, # of connection points: 2
#     Edge 26, Type (0, 0), BuildingBlock: UVAHIK_clean_linker_0, # of connection points: 2
#     Edge 27, Type (0, 0), BuildingBlock: UVAHIK_clean_linker_0, # of connection points: 2
#     Edge 28, Type (0, 0), BuildingBlock: UVAHIK_clean_linker_0, # of connection points: 2
#     Edge 29, Type (0, 0), BuildingBlock: UVAHIK_clean_linker_0, # of connection points: 2
# Relax obj value: 0.120
# Max RMSD: 0.102
# Mean RMSD: 0.102
data_MOF--net-qtz-h--node1-WUSLED_clean_sbu_0--edge1-UVAHIK_clean_linker_0
_symmetry_space_group_name_H-M    P1
_symmetry_Int_Tables_number       1
_symmetry_cell_setting            triclinic
loop_
_symmetry_equiv_pos_as_xyz
'x, y, z'
_cell_length_a     89.711764
_cell_length_b     89.72908
_cell_length_c     133.50105
_cell_angle_alpha  90.004333
_cell_angle_beta   89.989636
_cell_angle_gamma 119.98134
loop_
_atom_site_label
_atom_site_type_symbol
_atom_site_fract_x
_atom_site_fract_y
_atom_site_fract_z
_atom_type_partial_charge
C0 C 0.55094 0.12979 0.11795 0.0
C1 C 0.54787 0.12014 0.10915 0.0
C2 C 0.53675 0.0938 0.11893 0.0
C3 C 0.54081 0.10231 0.10963 0.0
C4 C 0.54006 0.10358 0.12775 0.0
C5 C 0.54706 0.12144 0.12725 0.0
U6 U 0.57098 0.17044 0.10253 0.0
O7 O 0.56611 0.19212 0.10202 0.0
O8 O 0.59187 0.19671 0.10586 0.0
C9 C 0.58169 0.20327 0.10512 0.0
C10 C 0.5581 0.14851 0.11741 0.0
C11 C 0.58256 0.21439 0.11345 0.0
C12 C 0.57386 0.21828 0.13004 0.0
C13 C 0.57328 0.20742 0.12233 0.0
C14 C 0.59324 0.24313 0.12013 0.0
C15 C 0.58377 0.23629 0.129 0.0
C16 C 0.59262 0.23228 0.11243 0.0
C17 C 0.57837 0.16571 0.07459 0.0
C18 C 0.57983 0.18389 0.06068 0.0
C19 C 0.59037 0.16392 0.05863 0.0
C20 C 0.58599 0.15858 0.06855 0.0
C21 C 0.58712 0.17646 0.05453 0.0
C22 C 0.57556 0.17861 0.07064 0.0
C23 C 0.57279 0.15888 0.08478 0.0
O24 O 0.57468 0.1575 0.11552 0.0
O25 O 0.549 0.15343 0.11207 0.0
O26 O 0.55896 0.15878 0.08815 0.0
O27 O 0.58503 0.16378 0.09152 0.0
H28 H 0.55091 0.12642 0.1019 0.0
H29 H 0.53867 0.09521 0.10272 0.0
H30 H 0.53695 0.09739 0.13501 0.0
H31 H 0.54937 0.12871 0.13412 0.0
H32 H 0.56627 0.21257 0.13672 0.0
H33 H 0.56545 0.19361 0.12325 0.0
H34 H 0.60123 0.2569 0.11914 0.0
H35 H 0.59993 0.23786 0.10564 0.0
H36 H 0.57734 0.1937 0.05776 0.0
H37 H 0.59577 0.1578 0.05407 0.0
H38 H 0.58823 0.14859 0.07146 0.0
H39 H 0.5698 0.18439 0.0752 0.0
C40 C 0.42656 0.55369 0.45159 0.0
C41 C 0.43255 0.55009 0.44272 0.0
C42 C 0.44848 0.53961 0.45237 0.0
C43 C 0.44339 0.5431 0.44311 0.0
C44 C 0.44258 0.54344 0.46125 0.0
C45 C 0.43167 0.55039 0.46085 0.0
U46 U 0.40314 0.57061 0.43607 0.0
O47 O 0.37654 0.56551 0.4366 0.0
O48 O 0.39796 0.59188 0.43865 0.0
C49 C 0.38121 0.58149 0.43895 0.0
C50 C 0.41486 0.56069 0.45114 0.0
C51 C 0.37223 0.58355 0.44759 0.0
C52 C 0.36028 0.57546 0.46435 0.0
C53 C 0.36984 0.57421 0.45645 0.0
C54 C 0.3559 0.59588 0.45474 0.0
C55 C 0.35305 0.58618 0.46354 0.0
C56 C 0.36538 0.59453 0.44683 0.0
C57 C 0.40993 0.57177 0.40746 0.0
C58 C 0.40992 0.59043 0.39423 0.0
C59 C 0.40279 0.56123 0.39037 0.0
C60 C 0.40515 0.55857 0.40041 0.0
C61 C 0.40528 0.57723 0.38714 0.0
C62 C 0.41217 0.58772 0.40432 0.0
C63 C 0.41315 0.56865 0.41789 0.0
O64 O 0.42198 0.5768 0.44819 0.0
O65 O 0.40001 0.55063 0.44677 0.0
O66 O 0.40019 0.55562 0.42243 0.0
O67 O 0.42163 0.58218 0.42369 0.0
H68 H 0.42878 0.55265 0.4355 0.0
H69 H 0.4479 0.54055 0.43614 0.0
H70 H 0.44614 0.54076 0.4685 0.0
H71 H 0.42714 0.55309 0.46776 0.0
H72 H 0.35849 0.56801 0.47108 0.0
H73 H 0.37515 0.56574 0.4572 0.0
H74 H 0.35038 0.60412 0.45386 0.0
H75 H 0.36709 0.60183 0.44004 0.0
H76 H 0.4118 0.60286 0.39197 0.0
H77 H 0.39948 0.55088 0.38508 0.0
H78 H 0.40348 0.54621 0.40264 0.0
H79 H 0.41581 0.59813 0.4096 0.0
C80 C 0.875 0.42193 0.78522 0.0
C81 C 0.88461 0.42879 0.77644 0.0
C82 C 0.91084 0.44471 0.78626 0.0
C83 C 0.90236 0.44002 0.77695 0.0
C84 C 0.9011 0.43777 0.79505 0.0
C85 C 0.88332 0.42647 0.79453 0.0
U86 U 0.83447 0.40159 0.76975 0.0
O87 O 0.81269 0.37513 0.76906 0.0
O88 O 0.80823 0.39632 0.77308 0.0
C89 C 0.8016 0.37958 0.77227 0.0
C90 C 0.85631 0.41025 0.78465 0.0
C91 C 0.79054 0.36931 0.78062 0.0
C92 C 0.78675 0.35597 0.79697 0.0
C93 C 0.79754 0.36616 0.78922 0.0
C94 C 0.76192 0.3523 0.78769 0.0
C95 C 0.7688 0.34886 0.79627 0.0
C96 C 0.77271 0.36241 0.77993 0.0
C97 C 0.83981 0.41489 0.74194 0.0
C98 C 0.82127 0.39924 0.72791 0.0
C99 C 0.84274 0.42936 0.72609 0.0
C100 C 0.84782 0.42974 0.73602 0.0
C101 C 0.82954 0.41406 0.72188 0.0
C102 C 0.82632 0.39966 0.73788 0.0
C103 C 0.84631 0.41553 0.75214 0.0
O104 O 0.84724 0.4178 0.7829 0.0
O105 O 0.85148 0.39641 0.77917 0.0
O106 O 0.84613 0.40156 0.75529 0.0
O107 O 0.84139 0.42269 0.75899 0.0
H108 H 0.87838 0.42542 0.76918 0.0
H109 H 0.90946 0.44489 0.77002 0.0
H110 H 0.90717 0.44127 0.80235 0.0
H111 H 0.87606 0.42136 0.80138 0.0
H112 H 0.79246 0.35373 0.80353 0.0
H113 H 0.81132 0.3715 0.78991 0.0
H114 H 0.74815 0.34688 0.78688 0.0
H115 H 0.7671 0.36473 0.77335 0.0
H116 H 0.81095 0.38731 0.7249 0.0
H117 H 0.84953 0.44094 0.72163 0.0
H118 H 0.85828 0.4416 0.73901 0.0
H119 H 0.81988 0.38806 0.74235 0.0
C120 C 0.45178 0.87362 0.11823 0.0
C121 C 0.45404 0.88318 0.10948 0.0
C122 C 0.46436 0.90937 0.11934 0.0
C123 C 0.4603 0.90088 0.11003 0.0
C124 C 0.46195 0.89966 0.1281 0.0
C125 C 0.45571 0.88193 0.12754 0.0
U126 U 0.43401 0.83347 0.1025 0.0
O127 O 0.44041 0.81279 0.10194 0.0
O128 O 0.41403 0.80669 0.10542 0.0
C129 C 0.42493 0.80096 0.1048 0.0
C130 C 0.44552 0.85506 0.11759 0.0
C131 C 0.42437 0.78984 0.11305 0.0
C132 C 0.42413 0.78379 0.13082 0.0
C133 C 0.42458 0.79457 0.1231 0.0
C134 C 0.42343 0.76358 0.11852 0.0
C135 C 0.42361 0.76819 0.12861 0.0
C136 C 0.42379 0.77431 0.11082 0.0
C137 C 0.42718 0.83854 0.07456 0.0
C138 C 0.42448 0.8189 0.06122 0.0
C139 C 0.41817 0.84174 0.05795 0.0
C140 C 0.42196 0.8471 0.06791 0.0
C141 C 0.41958 0.82771 0.05445 0.0
C142 C 0.42819 0.82423 0.07122 0.0
C143 C 0.43213 0.84519 0.08481 0.0
O144 O 0.42905 0.84543 0.11553 0.0
O145 O 0.4553 0.85094 0.11231 0.0
O146 O 0.44618 0.8459 0.08829 0.0
O147 O 0.41959 0.83947 0.0914 0.0
H148 H 0.45109 0.87695 0.10222 0.0
H149 H 0.46224 0.90795 0.10312 0.0
H150 H 0.46473 0.90573 0.1354 0.0
H151 H 0.45399 0.87471 0.13437 0.0
H152 H 0.42447 0.78778 0.13851 0.0
H153 H 0.42515 0.80659 0.12496 0.0
H154 H 0.42283 0.75157 0.11657 0.0
H155 H 0.42362 0.77047 0.10311 0.0
H156 H 0.42551 0.80794 0.05878 0.0
H157 H 0.41466 0.84895 0.05291 0.0
H158 H 0.42114 0.85818 0.07037 0.0
H159 H 0.4321 0.81738 0.07628 0.0
C160 C 0.58158 0.45208 0.45112 0.0
C161 C 0.57453 0.4546 0.44234 0.0
C162 C 0.55937 0.46583 0.45212 0.0
C163 C 0.56357 0.46144 0.44283 0.0
C164 C 0.56646 0.46322 0.4609 0.0
C165 C 0.57747 0.4564 0.4604 0.0
U166 U 0.60233 0.43212 0.43572 0.0
O167 O 0.6288 0.43681 0.43532 0.0
O168 O 0.6075 0.41109 0.43908 0.0
C169 C 0.62426 0.42122 0.43848 0.0
C170 C 0.59315 0.44494 0.45058 0.0
C171 C 0.6343 0.42025 0.44691 0.0
C172 C 0.64903 0.43086 0.46282 0.0
C173 C 0.63892 0.43158 0.45507 0.0
C174 C 0.64959 0.40714 0.45449 0.0
C175 C 0.65457 0.41869 0.46258 0.0
C176 C 0.63957 0.40796 0.44671 0.0
C177 C 0.59063 0.42503 0.40771 0.0
C178 C 0.6076 0.42427 0.39371 0.0
C179 C 0.57692 0.41274 0.39178 0.0
C180 C 0.57585 0.41698 0.40172 0.0
C181 C 0.59284 0.41657 0.38762 0.0
C182 C 0.6065 0.4284 0.4037 0.0
C183 C 0.58926 0.43052 0.4179 0.0
O184 O 0.58556 0.42837 0.44864 0.0
O185 O 0.6072 0.45405 0.44528 0.0
O186 O 0.60293 0.44429 0.42135 0.0
O187 O 0.58177 0.41822 0.4246 0.0
H188 H 0.57759 0.45134 0.4351 0.0
H189 H 0.55857 0.46351 0.43591 0.0
H190 H 0.56334 0.46625 0.46818 0.0
H191 H 0.58275 0.45446 0.46725 0.0
H192 H 0.65248 0.43978 0.46901 0.0
H193 H 0.63483 0.44108 0.4554 0.0
H194 H 0.65377 0.39774 0.45404 0.0
H195 H 0.63611 0.3991 0.44048 0.0
H196 H 0.62002 0.42721 0.39074 0.0
H197 H 0.56535 0.40701 0.38725 0.0
H198 H 0.5635 0.41431 0.40468 0.0
H199 H 0.61808 0.43449 0.40821 0.0
C200 C 0.13078 0.5814 0.78488 0.0
C201 C 0.1211 0.5744 0.77613 0.0
C202 C 0.09487 0.55914 0.786 0.0
C203 C 0.10332 0.56341 0.77668 0.0
C204 C 0.10468 0.56603 0.79477 0.0
C205 C 0.1225 0.57711 0.7942 0.0
U206 U 0.17095 0.60207 0.76913 0.0
O207 O 0.1924 0.62876 0.76835 0.0
O208 O 0.19741 0.60784 0.77212 0.0
C209 C 0.20378 0.62455 0.77133 0.0
C210 C 0.14944 0.59319 0.78422 0.0
C211 C 0.21503 0.63498 0.77956 0.0
C212 C 0.22035 0.64183 0.79728 0.0
C213 C 0.20946 0.63166 0.78955 0.0
C214 C 0.24241 0.65877 0.78508 0.0
C215 C 0.23697 0.65552 0.79513 0.0
C216 C 0.23154 0.64858 0.77738 0.0
C217 C 0.16513 0.58874 0.74134 0.0
C218 C 0.18354 0.60445 0.72728 0.0
C219 C 0.16207 0.57433 0.72545 0.0
C220 C 0.15706 0.57391 0.7354 0.0
C221 C 0.17525 0.58964 0.72124 0.0
C222 C 0.17857 0.60399 0.73727 0.0
C223 C 0.15879 0.58801 0.7516 0.0
O224 O 0.15862 0.58579 0.78233 0.0
O225 O 0.15404 0.60703 0.77878 0.0
O226 O 0.15883 0.60189 0.75481 0.0
O227 O 0.16403 0.58101 0.75836 0.0
H228 H 0.12732 0.57749 0.76886 0.0
H229 H 0.09619 0.55812 0.76981 0.0
H230 H 0.09854 0.56309 0.80205 0.0
H231 H 0.1298 0.58241 0.80103 0.0
H232 H 0.21581 0.63884 0.80493 0.0
H233 H 0.19671 0.6212 0.79137 0.0
H234 H 0.25499 0.66936 0.78313 0.0
H235 H 0.23599 0.65137 0.7697 0.0
H236 H 0.19384 0.61639 0.72427 0.0
H237 H 0.15526 0.56276 0.72098 0.0
H238 H 0.14664 0.56204 0.73841 0.0
H239 H 0.18504 0.61557 0.74176 0.0
C240 C 0.87403 0.45014 0.55043 0.0
C241 C 0.88372 0.45342 0.55923 0.0
C242 C 0.91003 0.46436 0.54942 0.0
C243 C 0.90155 0.46048 0.55873 0.0
C244 C 0.9002 0.46083 0.54061 0.0
C245 C 0.88233 0.4538 0.54112 0.0
U246 U 0.83389 0.43317 0.56616 0.0
O247 O 0.81246 0.43839 0.5658 0.0
O248 O 0.80739 0.412 0.56362 0.0
C249 C 0.80109 0.42245 0.56342 0.0
C250 C 0.85535 0.44315 0.551 0.0
C251 C 0.79006 0.42054 0.5548 0.0
C252 C 0.78641 0.42831 0.53792 0.0
C253 C 0.79715 0.42943 0.54583 0.0
C254 C 0.76142 0.40898 0.54777 0.0
C255 C 0.76841 0.4182 0.53884 0.0
C256 C 0.77217 0.41019 0.55568 0.0
C257 C 0.83982 0.43176 0.59473 0.0
C258 C 0.82139 0.413 0.60802 0.0
C259 C 0.84333 0.44227 0.61184 0.0
C260 C 0.84823 0.44497 0.60178 0.0
C261 C 0.82995 0.42622 0.61509 0.0
C262 C 0.82624 0.41575 0.59791 0.0
C263 C 0.84602 0.43493 0.58428 0.0
O264 O 0.84638 0.42703 0.55392 0.0
O265 O 0.85066 0.45322 0.55547 0.0
O266 O 0.84612 0.44803 0.57981 0.0
O267 O 0.84086 0.42143 0.57842 0.0
H268 H 0.87748 0.45059 0.56649 0.0
H269 H 0.90869 0.4628 0.56565 0.0
H270 H 0.90635 0.46381 0.53333 0.0
H271 H 0.87502 0.45135 0.53426 0.0
H272 H 0.79218 0.43539 0.53109 0.0
H273 H 0.81096 0.43741 0.54499 0.0
H274 H 0.74762 0.40122 0.54874 0.0
H275 H 0.7665 0.40326 0.56257 0.0
H276 H 0.81095 0.40054 0.61029 0.0
H277 H 0.85036 0.45263 0.61712 0.0
H278 H 0.85882 0.45737 0.59952 0.0
H279 H 0.81948 0.40532 0.59263 0.0
C280 C 0.42341 0.87306 0.88412 0.0
C281 C 0.43052 0.8826 0.8929 0.0
C282 C 0.44607 0.90892 0.88312 0.0
C283 C 0.4417 0.90035 0.89241 0.0
C284 C 0.43893 0.89925 0.87433 0.0
C285 C 0.42769 0.88146 0.87484 0.0
U286 U 0.40203 0.8326 0.89965 0.0
O287 O 0.37525 0.8113 0.90014 0.0
O288 O 0.39611 0.80613 0.89651 0.0
C289 C 0.3794 0.79988 0.89716 0.0
C290 C 0.4115 0.85442 0.88469 0.0
C291 C 0.36915 0.78883 0.88882 0.0
C292 C 0.36216 0.78417 0.8711 0.0
C293 C 0.37216 0.79489 0.87893 0.0
C294 C 0.34602 0.76128 0.88301 0.0
C295 C 0.34894 0.76722 0.87305 0.0
C296 C 0.35604 0.77199 0.89081 0.0
C297 C 0.41424 0.83744 0.92758 0.0
C298 C 0.39745 0.81955 0.94156 0.0
C299 C 0.42806 0.83909 0.9435 0.0
C300 C 0.42903 0.84438 0.93357 0.0
C301 C 0.41222 0.82679 0.94766 0.0
C302 C 0.39846 0.82477 0.93159 0.0
C303 C 0.41554 0.84418 0.91736 0.0
O304 O 0.41874 0.84511 0.88662 0.0
O305 O 0.39755 0.84985 0.89003 0.0
O306 O 0.40194 0.84452 0.91399 0.0
O307 O 0.42269 0.83902 0.91065 0.0
H308 H 0.42732 0.87631 0.90014 0.0
H309 H 0.44672 0.9074 0.89933 0.0
H310 H 0.44218 0.90538 0.86705 0.0
H311 H 0.42235 0.87426 0.86799 0.0
H312 H 0.36489 0.78911 0.86352 0.0
H313 H 0.38225 0.8079 0.87727 0.0
H314 H 0.33579 0.74842 0.88482 0.0
H315 H 0.35349 0.76714 0.89842 0.0
H316 H 0.3851 0.80992 0.94453 0.0
H317 H 0.43963 0.84507 0.94803 0.0
H318 H 0.44131 0.85419 0.93061 0.0
H319 H 0.38688 0.81913 0.92707 0.0
C320 C 0.5525 0.42374 0.21712 0.0
C321 C 0.54938 0.43031 0.22591 0.0
C322 C 0.53868 0.44586 0.21608 0.0
C323 C 0.54249 0.44123 0.2254 0.0
C324 C 0.54206 0.43942 0.20728 0.0
C325 C 0.54888 0.42841 0.2078 0.0
U326 U 0.57165 0.4025 0.23272 0.0
O327 O 0.5664 0.37583 0.23325 0.0
O328 O 0.59238 0.39676 0.22962 0.0
C329 C 0.582 0.38005 0.23029 0.0
C330 C 0.55944 0.41199 0.21771 0.0
C331 C 0.58292 0.36977 0.22199 0.0
C332 C 0.57425 0.35706 0.20543 0.0
C333 C 0.57368 0.36742 0.21309 0.0
C334 C 0.59356 0.3516 0.21542 0.0
C335 C 0.58411 0.34891 0.20654 0.0
C336 C 0.59294 0.36191 0.22308 0.0
C337 C 0.57817 0.41418 0.26069 0.0
C338 C 0.58148 0.39753 0.27397 0.0
C339 C 0.58686 0.42634 0.27734 0.0
C340 C 0.58298 0.42784 0.26739 0.0
C341 C 0.58595 0.41109 0.28079 0.0
C342 C 0.57768 0.39908 0.26399 0.0
C343 C 0.57304 0.41574 0.25046 0.0
O344 O 0.57595 0.41936 0.21976 0.0
O345 O 0.55006 0.39793 0.22295 0.0
O346 O 0.55925 0.40215 0.24696 0.0
O347 O 0.58555 0.42299 0.24387 0.0
H348 H 0.55222 0.42693 0.23317 0.0
H349 H 0.54029 0.44617 0.23231 0.0
H350 H 0.53914 0.44264 0.2 0.0
H351 H 0.55124 0.42345 0.20095 0.0
H352 H 0.56667 0.35514 0.19874 0.0
H353 H 0.56587 0.37342 0.21213 0.0
H354 H 0.60152 0.34579 0.21646 0.0
H355 H 0.60023 0.36367 0.22988 0.0
H356 H 0.58084 0.38569 0.27638 0.0
H357 H 0.59003 0.43693 0.28242 0.0
H358 H 0.58339 0.43957 0.26498 0.0
H359 H 0.5741 0.38842 0.25889 0.0
C360 C 0.13069 0.55287 0.54982 0.0
C361 C 0.12102 0.54973 0.55862 0.0
C362 C 0.09478 0.53929 0.54881 0.0
C363 C 0.10324 0.54299 0.55812 0.0
C364 C 0.10458 0.54251 0.54 0.0
C365 C 0.1224 0.54925 0.54052 0.0
U366 U 0.17075 0.56995 0.5656 0.0
O367 O 0.19227 0.56488 0.56535 0.0
O368 O 0.19722 0.59121 0.56309 0.0
C369 C 0.2036 0.58083 0.56297 0.0
C370 C 0.14937 0.55981 0.5504 0.0
C371 C 0.21486 0.58284 0.55444 0.0
C372 C 0.21943 0.57391 0.53809 0.0
C373 C 0.20833 0.57263 0.54582 0.0
C374 C 0.24361 0.59608 0.54733 0.0
C375 C 0.23722 0.58553 0.5388 0.0
C376 C 0.23251 0.5947 0.55509 0.0
C377 C 0.16466 0.57154 0.59413 0.0
C378 C 0.18312 0.59039 0.60737 0.0
C379 C 0.16115 0.56116 0.61126 0.0
C380 C 0.15623 0.55839 0.60121 0.0
C381 C 0.17456 0.57722 0.61448 0.0
C382 C 0.17826 0.58756 0.59727 0.0
C383 C 0.15848 0.56827 0.58367 0.0
O384 O 0.15834 0.57597 0.55326 0.0
O385 O 0.15405 0.5498 0.55494 0.0
O386 O 0.15847 0.55517 0.57926 0.0
O387 O 0.16362 0.58171 0.57778 0.0
H388 H 0.12724 0.55241 0.56588 0.0
H389 H 0.09609 0.54043 0.56505 0.0
H390 H 0.0985 0.54 0.53271 0.0
H391 H 0.1297 0.55165 0.53365 0.0
H392 H 0.21411 0.56578 0.53155 0.0
H393 H 0.1947 0.56348 0.54515 0.0
H394 H 0.25725 0.60504 0.54814 0.0
H395 H 0.23777 0.60268 0.56169 0.0
H396 H 0.19358 0.60286 0.60962 0.0
H397 H 0.15412 0.55084 0.61657 0.0
H398 H 0.14563 0.54598 0.59898 0.0
H399 H 0.18503 0.59794 0.59196 0.0
C400 C 0.57982 0.12936 0.88421 0.0
C401 C 0.5733 0.11981 0.89305 0.0
C402 C 0.55777 0.0934 0.88336 0.0
C403 C 0.56241 0.102 0.89263 0.0
C404 C 0.56418 0.10308 0.87451 0.0
C405 C 0.57515 0.12093 0.87494 0.0
U406 U 0.60125 0.17012 0.89953 0.0
O407 O 0.6279 0.19157 0.89984 0.0
O408 O 0.60687 0.19648 0.89618 0.0
C409 C 0.6236 0.20281 0.89672 0.0
C410 C 0.59153 0.14805 0.88469 0.0
C411 C 0.63367 0.21368 0.88826 0.0
C412 C 0.64781 0.21734 0.87217 0.0
C413 C 0.63759 0.20666 0.87995 0.0
C414 C 0.64988 0.24208 0.88078 0.0
C415 C 0.65415 0.23519 0.87253 0.0
C416 C 0.63976 0.23141 0.88858 0.0
C417 C 0.59005 0.16555 0.9276 0.0
C418 C 0.60709 0.18514 0.94093 0.0
C419 C 0.57783 0.16254 0.9442 0.0
C420 C 0.57622 0.15714 0.93425 0.0
C421 C 0.59336 0.17645 0.9477 0.0
C422 C 0.60543 0.17977 0.93095 0.0
C423 C 0.58836 0.15871 0.91739 0.0
O424 O 0.58415 0.15719 0.88671 0.0
O425 O 0.60568 0.15287 0.88987 0.0
O426 O 0.60189 0.15844 0.91385 0.0
O427 O 0.58098 0.16381 0.9108 0.0
H428 H 0.57669 0.12615 0.90028 0.0
H429 H 0.5575 0.09496 0.89958 0.0
H430 H 0.56096 0.09683 0.86726 0.0
H431 H 0.58007 0.12813 0.86805 0.0
H432 H 0.65069 0.21162 0.86586 0.0
H433 H 0.63289 0.19296 0.87953 0.0
H434 H 0.65469 0.25578 0.88133 0.0
H435 H 0.63686 0.23704 0.89493 0.0
H436 H 0.61914 0.19601 0.94338 0.0
H437 H 0.56709 0.15543 0.94924 0.0
H438 H 0.56428 0.14612 0.9318 0.0
H439 H 0.61623 0.18651 0.9259 0.0
C440 C 0.45452 0.58184 0.217 0.0
C441 C 0.45672 0.57444 0.22572 0.0
C442 C 0.4674 0.55891 0.21584 0.0
C443 C 0.46314 0.56313 0.22515 0.0
C444 C 0.4651 0.56634 0.2071 0.0
C445 C 0.45871 0.57772 0.20769 0.0
U446 U 0.43499 0.60255 0.23271 0.0
O447 O 0.44047 0.62931 0.23363 0.0
O448 O 0.41456 0.60864 0.22962 0.0
C449 C 0.425 0.62531 0.23054 0.0
C450 C 0.44784 0.5938 0.21767 0.0
C451 C 0.42446 0.636 0.22237 0.0
C452 C 0.42558 0.6428 0.20466 0.0
C453 C 0.42608 0.6324 0.21232 0.0
C454 C 0.42202 0.66056 0.21702 0.0
C455 C 0.4236 0.65704 0.20693 0.0
C456 C 0.42243 0.65012 0.22466 0.0
C457 C 0.42668 0.58867 0.26039 0.0
C458 C 0.4236 0.60424 0.2744 0.0
C459 C 0.41518 0.57417 0.27623 0.0
C460 C 0.41994 0.57383 0.26632 0.0
C461 C 0.41712 0.58942 0.28043 0.0
C462 C 0.42828 0.60385 0.26444 0.0
C463 C 0.4325 0.58805 0.25017 0.0
O464 O 0.43123 0.58653 0.2194 0.0
O465 O 0.45705 0.60747 0.22324 0.0
O466 O 0.44649 0.6019 0.24711 0.0
O467 O 0.42042 0.58129 0.2433 0.0
H468 H 0.45356 0.5775 0.23299 0.0
H469 H 0.46499 0.55789 0.23204 0.0
H470 H 0.46804 0.56322 0.1998 0.0
H471 H 0.457 0.58327 0.20088 0.0
H472 H 0.42703 0.63986 0.19698 0.0
H473 H 0.42776 0.62159 0.21042 0.0
H474 H 0.42027 0.67129 0.21902 0.0
H475 H 0.42116 0.65306 0.23238 0.0
H476 H 0.42509 0.61613 0.27739 0.0
H477 H 0.41045 0.56261 0.28071 0.0
H478 H 0.41865 0.56201 0.26333 0.0
H479 H 0.43336 0.61544 0.25995 0.0
C480 C 0.58405 0.32207 0.20104 0.0
C481 C 0.58434 0.33744 0.19854 0.0
C482 C 0.5842 0.31124 0.19357 0.0
C483 C 0.59486 0.31059 0.16681 0.0
H484 H 0.56629 0.26117 0.16987 0.0
C485 C 0.58386 0.26308 0.13464 0.0
C486 C 0.58405 0.24792 0.13706 0.0
C487 C 0.58411 0.27403 0.14217 0.0
C488 C 0.57449 0.27493 0.16895 0.0
H489 H 0.58517 0.3535 0.18617 0.0
H490 H 0.58503 0.33441 0.17312 0.0
H491 H 0.56622 0.2802 0.18288 0.0
H492 H 0.58486 0.23253 0.14935 0.0
H493 H 0.58519 0.2516 0.1625 0.0
H494 H 0.60302 0.30528 0.15285 0.0
C495 C 0.5849 0.33084 0.18088 0.0
C496 C 0.57446 0.28586 0.17641 0.0
C497 C 0.58477 0.34169 0.18837 0.0
C498 C 0.58445 0.24397 0.14722 0.0
C499 C 0.58466 0.2549 0.15475 0.0
C500 C 0.59485 0.29966 0.15934 0.0
C501 C 0.5846 0.31546 0.18339 0.0
C502 C 0.58464 0.30383 0.17544 0.0
C503 C 0.5845 0.27008 0.15232 0.0
C504 C 0.58465 0.2817 0.16032 0.0
H505 H 0.5835 0.31827 0.20879 0.0
H506 H 0.58416 0.29961 0.19579 0.0
H507 H 0.60307 0.32434 0.16589 0.0
H508 H 0.58323 0.26638 0.12691 0.0
H509 H 0.5837 0.28547 0.14004 0.0
C510 C 0.32956 0.5715 0.47628 0.0
C511 C 0.34204 0.58677 0.47168 0.0
C512 C 0.31873 0.5719 0.48367 0.0
C513 C 0.3018 0.59917 0.49358 0.0
H514 H 0.28826 0.56777 0.51611 0.0
C515 C 0.26269 0.60201 0.52744 0.0
C516 C 0.24917 0.58618 0.53088 0.0
C517 C 0.27424 0.60252 0.52022 0.0
C518 C 0.29181 0.57652 0.50982 0.0
H519 H 0.35318 0.61447 0.47138 0.0
H520 H 0.33446 0.61522 0.4844 0.0
H521 H 0.30838 0.56805 0.50375 0.0
H522 H 0.23725 0.55848 0.52946 0.0
H523 H 0.25735 0.55937 0.51683 0.0
H524 H 0.28529 0.60771 0.49976 0.0
C525 C 0.33278 0.60288 0.48215 0.0
C526 C 0.30333 0.57667 0.50271 0.0
C527 C 0.34356 0.60247 0.47471 0.0
C528 C 0.24742 0.57088 0.5269 0.0
C529 C 0.25904 0.57139 0.51974 0.0
C530 C 0.29035 0.59909 0.50074 0.0
C531 C 0.32016 0.58759 0.4867 0.0
C532 C 0.30837 0.5879 0.49446 0.0
C533 C 0.27262 0.58721 0.51636 0.0
C534 C 0.28513 0.58766 0.50888 0.0
H535 H 0.32787 0.55917 0.47399 0.0
H536 H 0.30897 0.55983 0.48685 0.0
H537 H 0.30518 0.60781 0.48725 0.0
H538 H 0.2643 0.61402 0.53032 0.0
H539 H 0.28463 0.61491 0.5178 0.0
C540 C 0.67892 0.24451 0.86062 0.0
C541 C 0.66553 0.24666 0.86446 0.0
C542 C 0.69 0.25565 0.85328 0.0
C543 C 0.69361 0.28627 0.8337 0.0
H544 H 0.74263 0.30375 0.83635 0.0
C545 C 0.7432 0.33926 0.80759 0.0
C546 C 0.75725 0.33765 0.80437 0.0
C547 C 0.73209 0.32843 0.81503 0.0
C548 C 0.72897 0.29884 0.83542 0.0
H549 H 0.65307 0.26201 0.86346 0.0
H550 H 0.67248 0.28152 0.85067 0.0
H551 H 0.72295 0.2841 0.84895 0.0
H552 H 0.77055 0.32327 0.80639 0.0
H553 H 0.75112 0.30427 0.81928 0.0
H554 H 0.69957 0.30083 0.82013 0.0
C555 C 0.67437 0.27118 0.85332 0.0
C556 C 0.71769 0.28758 0.84265 0.0
C557 C 0.66335 0.2601 0.86071 0.0
C558 C 0.75999 0.32502 0.8088 0.0
C559 C 0.74885 0.31413 0.81621 0.0
C560 C 0.70488 0.29746 0.82644 0.0
C561 C 0.6879 0.26915 0.84957 0.0
C562 C 0.69987 0.28115 0.84187 0.0
C563 C 0.73472 0.31565 0.8194 0.0
C564 C 0.72272 0.30388 0.8272 0.0
H565 H 0.68104 0.23439 0.86342 0.0
H566 H 0.70019 0.25364 0.85047 0.0
H567 H 0.67993 0.28137 0.83282 0.0
H568 H 0.74087 0.34903 0.80442 0.0
H569 H 0.72154 0.33018 0.81742 0.0
C570 C 0.4139 0.66109 0.18998 0.0
C571 C 0.42326 0.66825 0.19884 0.0
C572 C 0.41346 0.67167 0.18243 0.0
C573 C 0.42128 0.71585 0.17787 0.0
H574 H 0.42322 0.70454 0.15005 0.0
C575 C 0.41286 0.7535 0.14524 0.0
C576 C 0.42335 0.75677 0.13676 0.0
C577 C 0.41244 0.74252 0.15282 0.0
C578 C 0.42281 0.70797 0.15778 0.0
H579 H 0.43978 0.69217 0.20661 0.0
H580 H 0.43919 0.71063 0.19342 0.0
H581 H 0.42362 0.68596 0.16321 0.0
H582 H 0.44194 0.7514 0.12972 0.0
H583 H 0.44138 0.73245 0.14296 0.0
H584 H 0.42099 0.73814 0.17244 0.0
C585 C 0.43186 0.69682 0.19238 0.0
C586 C 0.4228 0.69718 0.16533 0.0
C587 C 0.43224 0.68624 0.19994 0.0
C588 C 0.43351 0.74893 0.13608 0.0
C589 C 0.43315 0.73802 0.14366 0.0
C590 C 0.42133 0.72667 0.17031 0.0
C591 C 0.42244 0.68968 0.18353 0.0
C592 C 0.42211 0.701 0.17548 0.0
C593 C 0.42257 0.73462 0.15212 0.0
C594 C 0.42217 0.72292 0.16017 0.0
H595 H 0.40666 0.64727 0.18896 0.0
H596 H 0.40587 0.66571 0.17579 0.0
H597 H 0.4205 0.71909 0.18559 0.0
H598 H 0.40471 0.75917 0.14593 0.0
H599 H 0.40395 0.74 0.15915 0.0
C600 C 0.76029 0.43295 0.52575 0.0
C601 C 0.75693 0.41773 0.53066 0.0
C602 C 0.74921 0.43267 0.5183 0.0
C603 C 0.70466 0.40633 0.50872 0.0
H604 H 0.72317 0.43601 0.48551 0.0
C605 C 0.66295 0.40256 0.4746 0.0
C606 C 0.66584 0.41829 0.47061 0.0
C607 C 0.67388 0.40221 0.48196 0.0
C608 C 0.7178 0.42776 0.49199 0.0
H609 H 0.73949 0.3902 0.53143 0.0
H610 H 0.72026 0.38964 0.51832 0.0
H611 H 0.74272 0.4357 0.49807 0.0
H612 H 0.68252 0.44598 0.47119 0.0
H613 H 0.70153 0.44537 0.48406 0.0
H614 H 0.67972 0.3983 0.50256 0.0
C615 C 0.73127 0.40188 0.52038 0.0
C616 C 0.729 0.42759 0.49921 0.0
C617 C 0.74232 0.40218 0.52787 0.0
C618 C 0.67985 0.43366 0.47418 0.0
C619 C 0.69085 0.4333 0.48147 0.0
C620 C 0.69346 0.40643 0.50147 0.0
C621 C 0.73453 0.41714 0.51553 0.0
C622 C 0.72258 0.41695 0.5077 0.0
C623 C 0.68802 0.41757 0.48542 0.0
C624 C 0.6999 0.41722 0.49306 0.0
H625 H 0.77129 0.44518 0.52784 0.0
H626 H 0.75198 0.44472 0.51487 0.0
H627 H 0.69923 0.39817 0.51524 0.0
H628 H 0.65218 0.39051 0.47207 0.0
H629 H 0.67142 0.38988 0.4848 0.0
C630 C 0.26632 0.67233 0.80298 0.0
C631 C 0.24857 0.66652 0.80331 0.0
C632 C 0.27729 0.68304 0.8105 0.0
C633 C 0.28017 0.71303 0.83046 0.0
H634 H 0.31785 0.70731 0.83996 0.0
C635 C 0.3325 0.76231 0.85696 0.0
C636 C 0.3381 0.7558 0.86478 0.0
C637 C 0.32189 0.75146 0.84936 0.0
C638 C 0.30732 0.70901 0.83745 0.0
H639 H 0.22848 0.66742 0.81187 0.0
H640 H 0.24753 0.6857 0.82511 0.0
H641 H 0.29836 0.68786 0.82724 0.0
H642 H 0.33722 0.73279 0.87058 0.0
H643 H 0.31841 0.71382 0.85748 0.0
H644 H 0.28886 0.73389 0.84085 0.0
C645 C 0.25301 0.68219 0.81895 0.0
C646 C 0.29625 0.69798 0.83006 0.0
C647 C 0.24204 0.67152 0.81142 0.0
C648 C 0.33298 0.73821 0.86475 0.0
C649 C 0.32235 0.72736 0.85716 0.0
C650 C 0.29122 0.72404 0.83786 0.0
C651 C 0.27079 0.68817 0.81856 0.0
C652 C 0.28253 0.69984 0.82648 0.0
C653 C 0.31659 0.73382 0.8494 0.0
C654 C 0.30494 0.72218 0.84145 0.0
H655 H 0.27176 0.66857 0.79692 0.0
H656 H 0.29092 0.68751 0.8099 0.0
H657 H 0.26988 0.71498 0.82779 0.0
H658 H 0.33605 0.77575 0.85679 0.0
H659 H 0.31789 0.75693 0.84343 0.0
C660 C 0.46483 0.93624 0.11347 0.0
C661 C 0.47125 0.92829 0.11985 0.0
C662 C 0.47172 0.95406 0.11365 0.0
C663 C 0.4968 0.99271 0.12925 0.0
H664 H 0.50596 0.0168 0.10389 0.0
C665 C 0.5346 0.06711 0.1265 0.0
C666 C 0.529 0.07479 0.11939 0.0
C667 C 0.5275 0.04924 0.12676 0.0
C668 C 0.50328 0.01027 0.11105 0.0
H669 H 0.48998 0.93297 0.13149 0.0
H670 H 0.50189 0.96408 0.13187 0.0
H671 H 0.49351 0.98568 0.10404 0.0
H672 H 0.51117 0.06965 0.10715 0.0
H673 H 0.49869 0.03853 0.10765 0.0
H674 H 0.50648 0.01731 0.13626 0.0
C675 C 0.49141 0.95646 0.12677 0.0
C676 C 0.49616 0.99242 0.11113 0.0
C677 C 0.48456 0.93861 0.12656 0.0
C678 C 0.51599 0.06416 0.11262 0.0
C679 C 0.50885 0.04631 0.1129 0.0
C680 C 0.50387 0.01059 0.12917 0.0
C681 C 0.48517 0.9644 0.12026 0.0
C682 C 0.4928 0.98341 0.12023 0.0
C683 C 0.51458 0.03861 0.11993 0.0
C684 C 0.50717 0.0196 0.12006 0.0
H685 H 0.45437 0.92866 0.10834 0.0
H686 H 0.46641 0.95975 0.10866 0.0
H687 H 0.49419 0.98613 0.13639 0.0
H688 H 0.54474 0.07496 0.13175 0.0
H689 H 0.53239 0.04378 0.13219 0.0
C690 C 0.53325 0.46686 0.44628 0.0
C691 C 0.5477 0.47315 0.45259 0.0
C692 C 0.52255 0.47401 0.4465 0.0
C693 C 0.50984 0.49974 0.46218 0.0
H694 H 0.49408 0.50836 0.43694 0.0
C695 C 0.47341 0.53778 0.45962 0.0
C696 C 0.45977 0.53187 0.45273 0.0
C697 C 0.48419 0.53066 0.45979 0.0
C698 C 0.49818 0.50585 0.44407 0.0
H699 H 0.56217 0.49196 0.4641 0.0
H700 H 0.54339 0.50437 0.46453 0.0
H701 H 0.51264 0.49577 0.43694 0.0
H702 H 0.44644 0.51351 0.44082 0.0
H703 H 0.46511 0.50105 0.44115 0.0
H704 H 0.49529 0.50975 0.4693 0.0
C705 C 0.54028 0.49377 0.45948 0.0
C706 C 0.50884 0.49864 0.44406 0.0
C707 C 0.55103 0.48664 0.45923 0.0
C708 C 0.45703 0.51857 0.4461 0.0
C709 C 0.46775 0.51143 0.44628 0.0
C710 C 0.49912 0.50692 0.46218 0.0
C711 C 0.52598 0.48762 0.45306 0.0
C712 C 0.51476 0.49544 0.45311 0.0
C713 C 0.48153 0.51745 0.45309 0.0
C714 C 0.49311 0.51001 0.45312 0.0
H715 H 0.5301 0.45627 0.4412 0.0
H716 H 0.51146 0.46877 0.44159 0.0
H717 H 0.51401 0.49726 0.46928 0.0
H718 H 0.47599 0.54814 0.46475 0.0
H719 H 0.4948 0.53576 0.46504 0.0
C720 C 0.93764 0.47099 0.78024 0.0
C721 C 0.92975 0.45679 0.78675 0.0
C722 C 0.95544 0.48207 0.78045 0.0
C723 C 0.99396 0.49652 0.79629 0.0
H724 H 0.0183 0.51124 0.77099 0.0
C725 C 0.06845 0.53453 0.79375 0.0
C726 C 0.0759 0.54763 0.78652 0.0
C727 C 0.05062 0.52344 0.79401 0.0
C728 C 0.0117 0.50745 0.77813 0.0
H729 H 0.93449 0.4432 0.79863 0.0
H730 H 0.96558 0.46265 0.79907 0.0
H731 H 0.98726 0.49206 0.77106 0.0
H732 H 0.07041 0.55972 0.7741 0.0
H733 H 0.03937 0.54055 0.77461 0.0
H734 H 0.01841 0.51202 0.80336 0.0
C735 C 0.95792 0.46526 0.79384 0.0
C736 C 0.99389 0.49642 0.77816 0.0
C737 C 0.9401 0.45412 0.7936 0.0
C738 C 0.0651 0.54956 0.77966 0.0
C739 C 0.0473 0.53854 0.77994 0.0
C740 C 0.01179 0.50762 0.79625 0.0
C741 C 0.96581 0.47928 0.78721 0.0
C742 C 0.98479 0.49087 0.78724 0.0
C743 C 0.03983 0.52526 0.78707 0.0
C744 C 0.02088 0.51327 0.78717 0.0
H745 H 0.93005 0.47366 0.775 0.0
H746 H 0.96107 0.49293 0.77537 0.0
H747 H 0.9873 0.49262 0.80341 0.0
H748 H 0.07644 0.53259 0.79907 0.0
H749 H 0.04533 0.51323 0.79953 0.0
C750 C 0.0657 0.51891 0.54147 0.0
C751 C 0.0758 0.53201 0.54833 0.0
C752 C 0.04781 0.51171 0.54128 0.0
C753 C 0.01151 0.50573 0.55711 0.0
H754 H 0.98658 0.49559 0.53201 0.0
C755 C 0.93963 0.48532 0.5557 0.0
C756 C 0.92906 0.47225 0.54895 0.0
C757 C 0.95749 0.4926 0.5554 0.0
C758 C 0.99332 0.49815 0.53908 0.0
H759 H 0.075 0.5482 0.56015 0.0
H760 H 0.04384 0.5356 0.55984 0.0
H761 H 0.01782 0.50836 0.53184 0.0
H762 H 0.92902 0.45655 0.53659 0.0
H763 H 0.96025 0.4692 0.5361 0.0
H764 H 0.98708 0.49547 0.56437 0.0
C765 C 0.04973 0.53068 0.55472 0.0
C766 C 0.01123 0.50549 0.53899 0.0
C767 C 0.06759 0.5379 0.5549 0.0
C768 C 0.93681 0.46673 0.54182 0.0
C769 C 0.95471 0.474 0.54154 0.0
C770 C 0.99362 0.49837 0.55721 0.0
C771 C 0.0396 0.51742 0.54796 0.0
C772 C 0.02054 0.50944 0.54801 0.0
C773 C 0.96527 0.48697 0.54836 0.0
C774 C 0.9843 0.49456 0.5482 0.0
H775 H 0.07157 0.51391 0.53639 0.0
H776 H 0.04036 0.50138 0.53605 0.0
H777 H 0.01825 0.50832 0.5642 0.0
H778 H 0.93409 0.49009 0.56116 0.0
H779 H 0.96524 0.5028 0.56064 0.0
C780 C 0.45481 0.93814 0.87596 0.0
C781 C 0.45791 0.92788 0.88265 0.0
C782 C 0.46567 0.956 0.87576 0.0
C783 C 0.49682 0.99208 0.89137 0.0
H784 H 0.51124 0.0169 0.86621 0.0
C785 C 0.54881 0.06378 0.88974 0.0
C786 C 0.54642 0.0744 0.88297 0.0
C787 C 0.53804 0.04594 0.8895 0.0
C788 C 0.50716 0.0102 0.87331 0.0
H789 H 0.47525 0.92839 0.89415 0.0
H790 H 0.49407 0.9595 0.89385 0.0
H791 H 0.4924 0.98572 0.86612 0.0
H792 H 0.53076 0.07457 0.87066 0.0
H793 H 0.51183 0.04341 0.87029 0.0
H794 H 0.51142 0.01649 0.89858 0.0
C795 C 0.48308 0.95375 0.88887 0.0
C796 C 0.49638 0.99232 0.87325 0.0
C797 C 0.47227 0.93591 0.88904 0.0
C798 C 0.53306 0.06673 0.8759 0.0
C799 C 0.52223 0.04886 0.87568 0.0
C800 C 0.50753 0.00994 0.89143 0.0
C801 C 0.47986 0.96402 0.88227 0.0
C802 C 0.49115 0.98305 0.88228 0.0
C803 C 0.52455 0.03824 0.88251 0.0
C804 C 0.51292 0.01923 0.8824 0.0
H805 H 0.44375 0.93243 0.87103 0.0
H806 H 0.46273 0.96357 0.87067 0.0
H807 H 0.49278 0.98536 0.89846 0.0
H808 H 0.55916 0.06925 0.89517 0.0
H809 H 0.54043 0.03815 0.89474 0.0
C810 C 0.4877 0.54995 0.20864 0.0
C811 C 0.47429 0.54688 0.21529 0.0
C812 C 0.49452 0.53892 0.2084 0.0
C813 C 0.49886 0.50732 0.22391 0.0
H814 H 0.50941 0.49302 0.19875 0.0
C815 C 0.51799 0.45492 0.2223 0.0
C816 C 0.53108 0.45727 0.2156 0.0
C817 C 0.51102 0.46578 0.22202 0.0
C818 C 0.50674 0.49706 0.20585 0.0
H819 H 0.45717 0.52942 0.22665 0.0
H820 H 0.46915 0.51032 0.22628 0.0
H821 H 0.49735 0.51212 0.19866 0.0
H822 H 0.54714 0.47292 0.20336 0.0
H823 H 0.53509 0.49202 0.20291 0.0
H824 H 0.50835 0.49245 0.23112 0.0
C825 C 0.47457 0.52141 0.22136 0.0
C826 C 0.4998 0.50799 0.20579 0.0
C827 C 0.46772 0.53238 0.22158 0.0
C828 C 0.53694 0.47066 0.20855 0.0
C829 C 0.53001 0.48159 0.20829 0.0
C830 C 0.50585 0.49647 0.22397 0.0
C831 C 0.48813 0.52461 0.21482 0.0
C832 C 0.4957 0.51317 0.21482 0.0
C833 C 0.51701 0.47933 0.21505 0.0
C834 C 0.5098 0.49112 0.21494 0.0
H835 H 0.49323 0.56111 0.20379 0.0
H836 H 0.50508 0.54184 0.20334 0.0
H837 H 0.49613 0.51133 0.231 0.0
H838 H 0.51298 0.44453 0.22771 0.0
H839 H 0.50079 0.46343 0.22721 0.0
C840 C 0.58196 0.18131 0.96383 0.0
C841 C 0.5954 0.18116 0.95849 0.0
C842 C 0.58322 0.18407 0.97418 0.0
C843 C 0.60453 0.17865 0.99616 0.0
H844 H 0.58666 0.20458 0.00983 0.0
C845 C 0.60561 0.18325 0.03918 0.0
C846 C 0.59052 0.18103 0.04375 0.0
C847 C 0.60808 0.18599 0.02886 0.0
C848 C 0.59161 0.1972 0.00613 0.0
H849 H 0.62091 0.18431 0.9598 0.0
H850 H 0.62318 0.18932 0.97785 0.0
H851 H 0.58762 0.20458 0.99154 0.0
H852 H 0.56633 0.18031 0.04108 0.0
H853 H 0.57051 0.18489 0.02308 0.0
H854 H 0.60807 0.17084 0.01066 0.0
C855 C 0.61161 0.18714 0.97404 0.0
C856 C 0.59218 0.19723 0.99565 0.0
C857 C 0.61038 0.18445 0.96368 0.0
C858 C 0.57819 0.18217 0.03781 0.0
C859 C 0.58061 0.18483 0.02748 0.0
C860 C 0.6039 0.17857 0.00662 0.0
C861 C 0.59792 0.18668 0.97943 0.0
C862 C 0.59848 0.1878 0.99055 0.0
C863 C 0.59545 0.18648 0.02284 0.0
C864 C 0.59725 0.18768 0.01174 0.0
H865 H 0.57033 0.179 0.96003 0.0
H866 H 0.5724 0.18351 0.97812 0.0
H867 H 0.60919 0.17102 0.99247 0.0
H868 H 0.61547 0.1827 0.04359 0.0
H869 H 0.61981 0.18755 0.02558 0.0
C870 C 0.42442 0.6037 0.29732 0.0
C871 C 0.41309 0.58991 0.29119 0.0
C872 C 0.42156 0.6033 0.30764 0.0
C873 C 0.40014 0.57209 0.32797 0.0
H874 H 0.41054 0.61245 0.34373 0.0
C875 C 0.39022 0.56742 0.37059 0.0
C876 C 0.40367 0.58017 0.37634 0.0
C877 C 0.38963 0.5694 0.36025 0.0
C878 C 0.40768 0.60109 0.33944 0.0
H879 H 0.38931 0.5654 0.29099 0.0
H880 H 0.38425 0.56474 0.30897 0.0
H881 H 0.41255 0.61454 0.32547 0.0
H882 H 0.42675 0.60525 0.37579 0.0
H883 H 0.4258 0.60866 0.35771 0.0
H884 H 0.3956 0.55869 0.34187 0.0
C885 C 0.39556 0.57569 0.30584 0.0
C886 C 0.40882 0.60229 0.32898 0.0
C887 C 0.39845 0.57607 0.29554 0.0
C888 C 0.41614 0.59526 0.37158 0.0
C889 C 0.41558 0.59722 0.36121 0.0
C890 C 0.399 0.5709 0.3384 0.0
C891 C 0.40728 0.58912 0.31205 0.0
C892 C 0.40517 0.58781 0.32313 0.0
C893 C 0.4025 0.58415 0.35539 0.0
C894 C 0.40286 0.58539 0.34427 0.0
H895 H 0.43591 0.61447 0.29421 0.0
H896 H 0.43093 0.61377 0.31221 0.0
H897 H 0.39757 0.56077 0.32372 0.0
H898 H 0.38025 0.55579 0.37408 0.0
H899 H 0.37918 0.55925 0.35603 0.0
C900 C 0.82279 0.39978 0.70499 0.0
C901 C 0.82509 0.41354 0.71111 0.0
C902 C 0.8204 0.40016 0.69466 0.0
C903 C 0.83011 0.43131 0.6743 0.0
H904 H 0.80041 0.39088 0.65852 0.0
C905 C 0.82474 0.43595 0.63168 0.0
C906 C 0.82551 0.42326 0.62591 0.0
C907 C 0.82223 0.43396 0.64203 0.0
C908 C 0.80883 0.40226 0.66282 0.0
H909 H 0.82562 0.43796 0.71126 0.0
H910 H 0.82135 0.43858 0.69326 0.0
H911 H 0.80029 0.38879 0.67679 0.0
H912 H 0.82372 0.39827 0.62643 0.0
H913 H 0.81946 0.39482 0.64452 0.0
H914 H 0.83892 0.44473 0.66041 0.0
C915 C 0.82178 0.42768 0.69641 0.0
C916 C 0.80876 0.40106 0.67328 0.0
C917 C 0.82421 0.42732 0.70672 0.0
C918 C 0.82304 0.40821 0.63066 0.0
C919 C 0.82058 0.40624 0.64103 0.0
C920 C 0.83018 0.4325 0.66387 0.0
C921 C 0.82022 0.41428 0.69022 0.0
C922 C 0.81948 0.41557 0.67914 0.0
C923 C 0.8205 0.41925 0.64687 0.0
C924 C 0.81963 0.41798 0.65799 0.0
H925 H 0.82358 0.38906 0.70813 0.0
H926 H 0.81941 0.38972 0.69011 0.0
H927 H 0.83878 0.44266 0.67855 0.0
H928 H 0.82629 0.44756 0.62821 0.0
H929 H 0.82186 0.44406 0.64627 0.0
C930 C 0.42828 0.8194 0.03846 0.0
C931 C 0.41678 0.82294 0.04367 0.0
C932 C 0.42667 0.8166 0.02812 0.0
C933 C 0.39696 0.80666 0.00662 0.0
H934 H 0.43913 0.83237 0.99141 0.0
C935 C 0.39779 0.82144 0.96443 0.0
C936 C 0.41108 0.82227 0.95845 0.0
C937 C 0.39762 0.81885 0.97477 0.0
C938 C 0.42725 0.82483 0.99551 0.0
H939 H 0.39407 0.82546 0.04219 0.0
H940 H 0.39138 0.82077 0.02413 0.0
H941 H 0.44029 0.83238 0.0096 0.0
H942 H 0.43409 0.82011 0.95853 0.0
H943 H 0.4337 0.81538 0.97655 0.0
H944 H 0.3839 0.79931 0.9925 0.0
C945 C 0.4016 0.82009 0.02804 0.0
C946 C 0.42793 0.82485 0.00596 0.0
C947 C 0.40325 0.82296 0.03837 0.0
C948 C 0.42383 0.8198 0.96297 0.0
C949 C 0.42362 0.81713 0.9733 0.0
C950 C 0.39629 0.80658 0.99614 0.0
C951 C 0.41349 0.81721 0.02276 0.0
C952 C 0.41278 0.81596 0.01165 0.0
C953 C 0.4107 0.81696 0.97936 0.0
C954 C 0.41142 0.81585 0.99046 0.0
H955 H 0.43891 0.81941 0.04231 0.0
H956 H 0.43592 0.81422 0.02428 0.0
H957 H 0.38509 0.7995 0.01078 0.0
H958 H 0.3879 0.82349 0.96119 0.0
H959 H 0.38761 0.81902 0.97921 0.0
C960 C 0.60725 0.42605 0.37086 0.0
C961 C 0.59409 0.41337 0.37681 0.0
C962 C 0.60751 0.42377 0.36052 0.0
C963 C 0.57819 0.39987 0.3397 0.0
H964 H 0.62054 0.41783 0.32448 0.0
C965 C 0.57758 0.39393 0.29672 0.0
C966 C 0.58879 0.40914 0.29156 0.0
C967 C 0.57919 0.3927 0.30706 0.0
C968 C 0.60861 0.4128 0.32863 0.0
H969 H 0.57141 0.38798 0.37665 0.0
H970 H 0.57198 0.38389 0.35861 0.0
H971 H 0.62163 0.41863 0.34276 0.0
H972 H 0.61102 0.43466 0.29314 0.0
H973 H 0.61372 0.43259 0.3112 0.0
H974 H 0.5652 0.39426 0.32559 0.0
C975 C 0.58188 0.39578 0.3619 0.0
C976 C 0.60923 0.41328 0.3391 0.0
C977 C 0.58157 0.39809 0.37224 0.0
C978 C 0.60206 0.42284 0.29692 0.0
C979 C 0.60372 0.42158 0.30725 0.0
C980 C 0.57758 0.39933 0.32924 0.0
C981 C 0.59466 0.40873 0.35588 0.0
C982 C 0.59403 0.40703 0.34477 0.0
C983 C 0.5921 0.40662 0.31247 0.0
C984 C 0.59279 0.40599 0.32358 0.0
H985 H 0.61696 0.43805 0.37415 0.0
H986 H 0.61741 0.43413 0.35612 0.0
H987 H 0.56625 0.39522 0.34379 0.0
H988 H 0.56715 0.38318 0.29283 0.0
H989 H 0.57015 0.38093 0.31085 0.0
C990 C 0.18059 0.57642 0.70608 0.0
C991 C 0.17968 0.59018 0.71047 0.0
C992 C 0.183 0.57606 0.69576 0.0
C993 C 0.19591 0.60263 0.67262 0.0
H994 H 0.16574 0.55892 0.6598 0.0
C995 C 0.18153 0.59531 0.63001 0.0
C996 C 0.17905 0.58024 0.62528 0.0
C997 C 0.18402 0.59734 0.64038 0.0
C998 C 0.17448 0.57116 0.66324 0.0
H999 H 0.18113 0.61463 0.70749 0.0
H1000 H 0.18527 0.61398 0.68947 0.0
H1001 H 0.16592 0.56104 0.67793 0.0
H1002 H 0.17829 0.55597 0.62761 0.0
H1003 H 0.18279 0.55955 0.64566 0.0
H1004 H 0.20423 0.61278 0.65785 0.0
C1005 C 0.18431 0.60355 0.69402 0.0
C1006 C 0.17458 0.57238 0.67367 0.0
C1007 C 0.18194 0.60392 0.70436 0.0
C1008 C 0.17985 0.56758 0.63107 0.0
C1009 C 0.1824 0.56963 0.64141 0.0
C1010 C 0.19581 0.6014 0.66216 0.0
C1011 C 0.18451 0.58944 0.68957 0.0
C1012 C 0.18521 0.58813 0.67849 0.0
C1013 C 0.18413 0.58436 0.64623 0.0
C1014 C 0.18502 0.58566 0.65735 0.0
H1015 H 0.17921 0.56579 0.71061 0.0
H1016 H 0.18345 0.56517 0.69261 0.0
H1017 H 0.20438 0.61491 0.67611 0.0
H1018 H 0.18083 0.60523 0.62576 0.0
H1019 H 0.18514 0.60876 0.64385 0.0
loop_
_geom_bond_atom_site_label_1
_geom_bond_atom_site_label_2
_geom_bond_distance
_geom_bond_site_symmetry_2
_ccdc_geom_bond_type
C0 C1 1.264 . S
C0 C5 1.479 . S
C0 C10 1.465 . S
C1 C0 1.264 . S
C1 C3 1.339 . S
C1 H28 0.931 . S
C2 C3 1.395 . S
C2 C4 1.320 . S
C3 C1 1.339 . S
C3 C2 1.395 . S
C3 H29 0.929 . S
C4 C2 1.320 . S
C4 C5 1.405 . S
C4 H30 0.930 . S
C5 C0 1.479 . S
C5 C4 1.405 . S
C5 H31 0.931 . S
U6 O7 2.454 . S
U6 O8 2.458 . S
U6 C9 2.984 . S
U6 C10 2.847 . S
U6 C23 2.882 . S
U6 O24 2.441 . S
U6 O25 2.420 . S
U6 O26 2.455 . S
U6 O27 2.449 . S
O7 U6 2.454 . S
O7 C9 1.353 . S
O8 U6 2.458 . S
O8 C9 1.286 . S
C9 U6 2.984 . S
C9 O7 1.353 . S
C9 O8 1.286 . S
C9 C11 1.363 . S
C10 C0 1.465 . S
C10 U6 2.847 . S
C10 O24 1.249 . S
C10 O25 1.202 . S
C11 C9 1.363 . S
C11 C13 1.408 . S
C11 C16 1.342 . S
C12 C13 1.310 . S
C12 C15 1.461 . S
C12 H32 0.932 . S
C13 C11 1.408 . S
C13 C12 1.310 . S
C13 H33 0.930 . S
C14 C15 1.474 . S
C14 C16 1.285 . S
C14 H34 0.929 . S
C15 C12 1.461 . S
C15 C14 1.474 . S
C16 C11 1.342 . S
C16 C14 1.285 . S
C16 H35 0.930 . S
C17 C20 1.424 . S
C17 C22 1.245 . S
C17 C23 1.428 . S
C18 C21 1.260 . S
C18 C22 1.477 . S
C18 H36 0.932 . S
C19 C20 1.384 . S
C19 C21 1.479 . S
C19 H37 0.929 . S
C20 C17 1.424 . S
C20 C19 1.384 . S
C20 H38 0.928 . S
C21 C18 1.260 . S
C21 C19 1.479 . S
C22 C17 1.245 . S
C22 C18 1.477 . S
C22 H39 0.932 . S
C23 U6 2.882 . S
C23 C17 1.428 . S
C23 O26 1.301 . S
C23 O27 1.282 . S
O24 U6 2.441 . S
O24 C10 1.249 . S
O25 U6 2.420 . S
O25 C10 1.202 . S
O26 U6 2.455 . S
O26 C23 1.301 . S
O27 U6 2.449 . S
O27 C23 1.282 . S
H28 C1 0.931 . S
H29 C3 0.929 . S
H30 C4 0.930 . S
H31 C5 0.931 . S
H32 C12 0.932 . S
H33 C13 0.930 . S
H34 C14 0.929 . S
H35 C16 0.930 . S
H36 C18 0.932 . S
H37 C19 0.929 . S
H38 C20 0.928 . S
H39 C22 0.932 . S
C40 C41 1.264 . S
C40 C45 1.479 . S
C40 C50 1.465 . S
C41 C40 1.264 . S
C41 C43 1.339 . S
C41 H68 0.931 . S
C42 C43 1.395 . S
C42 C44 1.320 . S
C43 C41 1.339 . S
C43 C42 1.395 . S
C43 H69 0.929 . S
C44 C42 1.320 . S
C44 C45 1.405 . S
C44 H70 0.930 . S
C45 C40 1.479 . S
C45 C44 1.405 . S
C45 H71 0.931 . S
U46 O47 2.454 . S
U46 O48 2.458 . S
U46 C49 2.984 . S
U46 C50 2.847 . S
U46 C63 2.882 . S
U46 O64 2.441 . S
U46 O65 2.420 . S
U46 O66 2.455 . S
U46 O67 2.449 . S
O47 U46 2.454 . S
O47 C49 1.353 . S
O48 U46 2.458 . S
O48 C49 1.286 . S
C49 U46 2.984 . S
C49 O47 1.353 . S
C49 O48 1.286 . S
C49 C51 1.363 . S
C50 C40 1.465 . S
C50 U46 2.847 . S
C50 O64 1.249 . S
C50 O65 1.202 . S
C51 C49 1.363 . S
C51 C53 1.408 . S
C51 C56 1.342 . S
C52 C53 1.310 . S
C52 C55 1.461 . S
C52 H72 0.932 . S
C53 C51 1.408 . S
C53 C52 1.310 . S
C53 H73 0.930 . S
C54 C55 1.474 . S
C54 C56 1.285 . S
C54 H74 0.929 . S
C55 C52 1.461 . S
C55 C54 1.474 . S
C56 C51 1.342 . S
C56 C54 1.285 . S
C56 H75 0.930 . S
C57 C60 1.424 . S
C57 C62 1.245 . S
C57 C63 1.428 . S
C58 C61 1.260 . S
C58 C62 1.477 . S
C58 H76 0.932 . S
C59 C60 1.384 . S
C59 C61 1.479 . S
C59 H77 0.929 . S
C60 C57 1.424 . S
C60 C59 1.384 . S
C60 H78 0.928 . S
C61 C58 1.260 . S
C61 C59 1.479 . S
C62 C57 1.245 . S
C62 C58 1.477 . S
C62 H79 0.932 . S
C63 U46 2.882 . S
C63 C57 1.428 . S
C63 O66 1.301 . S
C63 O67 1.282 . S
O64 U46 2.441 . S
O64 C50 1.249 . S
O65 U46 2.420 . S
O65 C50 1.202 . S
O66 U46 2.455 . S
O66 C63 1.301 . S
O67 U46 2.449 . S
O67 C63 1.282 . S
H68 C41 0.931 . S
H69 C43 0.929 . S
H70 C44 0.930 . S
H71 C45 0.931 . S
H72 C52 0.932 . S
H73 C53 0.930 . S
H74 C54 0.929 . S
H75 C56 0.930 . S
H76 C58 0.932 . S
H77 C59 0.929 . S
H78 C60 0.928 . S
H79 C62 0.932 . S
C80 C81 1.264 . S
C80 C85 1.479 . S
C80 C90 1.465 . S
C81 C80 1.264 . S
C81 C83 1.339 . S
C81 H108 0.931 . S
C82 C83 1.395 . S
C82 C84 1.320 . S
C83 C81 1.339 . S
C83 C82 1.395 . S
C83 H109 0.929 . S
C84 C82 1.320 . S
C84 C85 1.405 . S
C84 H110 0.930 . S
C85 C80 1.479 . S
C85 C84 1.405 . S
C85 H111 0.931 . S
U86 O87 2.454 . S
U86 O88 2.458 . S
U86 C89 2.984 . S
U86 C90 2.847 . S
U86 C103 2.882 . S
U86 O104 2.441 . S
U86 O105 2.420 . S
U86 O106 2.455 . S
U86 O107 2.449 . S
O87 U86 2.454 . S
O87 C89 1.353 . S
O88 U86 2.458 . S
O88 C89 1.286 . S
C89 U86 2.984 . S
C89 O87 1.353 . S
C89 O88 1.286 . S
C89 C91 1.363 . S
C90 C80 1.465 . S
C90 U86 2.847 . S
C90 O104 1.249 . S
C90 O105 1.202 . S
C91 C89 1.363 . S
C91 C93 1.408 . S
C91 C96 1.342 . S
C92 C93 1.310 . S
C92 C95 1.461 . S
C92 H112 0.932 . S
C93 C91 1.408 . S
C93 C92 1.310 . S
C93 H113 0.930 . S
C94 C95 1.474 . S
C94 C96 1.285 . S
C94 H114 0.929 . S
C95 C92 1.461 . S
C95 C94 1.474 . S
C96 C91 1.342 . S
C96 C94 1.285 . S
C96 H115 0.930 . S
C97 C100 1.424 . S
C97 C102 1.245 . S
C97 C103 1.428 . S
C98 C101 1.260 . S
C98 C102 1.477 . S
C98 H116 0.932 . S
C99 C100 1.384 . S
C99 C101 1.479 . S
C99 H117 0.929 . S
C100 C97 1.424 . S
C100 C99 1.384 . S
C100 H118 0.928 . S
C101 C98 1.260 . S
C101 C99 1.479 . S
C102 C97 1.245 . S
C102 C98 1.477 . S
C102 H119 0.932 . S
C103 U86 2.882 . S
C103 C97 1.428 . S
C103 O106 1.301 . S
C103 O107 1.282 . S
O104 U86 2.441 . S
O104 C90 1.249 . S
O105 U86 2.420 . S
O105 C90 1.202 . S
O106 U86 2.455 . S
O106 C103 1.301 . S
O107 U86 2.449 . S
O107 C103 1.282 . S
H108 C81 0.931 . S
H109 C83 0.929 . S
H110 C84 0.930 . S
H111 C85 0.931 . S
H112 C92 0.932 . S
H113 C93 0.930 . S
H114 C94 0.929 . S
H115 C96 0.930 . S
H116 C98 0.932 . S
H117 C99 0.929 . S
H118 C100 0.928 . S
H119 C102 0.932 . S
C120 C121 1.264 . S
C120 C125 1.479 . S
C120 C130 1.465 . S
C121 C120 1.264 . S
C121 C123 1.339 . S
C121 H148 0.931 . S
C122 C123 1.395 . S
C122 C124 1.320 . S
C123 C121 1.339 . S
C123 C122 1.395 . S
C123 H149 0.929 . S
C124 C122 1.320 . S
C124 C125 1.405 . S
C124 H150 0.930 . S
C125 C120 1.479 . S
C125 C124 1.405 . S
C125 H151 0.931 . S
U126 O127 2.454 . S
U126 O128 2.458 . S
U126 C129 2.984 . S
U126 C130 2.847 . S
U126 C143 2.882 . S
U126 O144 2.441 . S
U126 O145 2.420 . S
U126 O146 2.455 . S
U126 O147 2.449 . S
O127 U126 2.454 . S
O127 C129 1.353 . S
O128 U126 2.458 . S
O128 C129 1.286 . S
C129 U126 2.984 . S
C129 O127 1.353 . S
C129 O128 1.286 . S
C129 C131 1.363 . S
C130 C120 1.465 . S
C130 U126 2.847 . S
C130 O144 1.249 . S
C130 O145 1.202 . S
C131 C129 1.363 . S
C131 C133 1.408 . S
C131 C136 1.342 . S
C132 C133 1.310 . S
C132 C135 1.461 . S
C132 H152 0.932 . S
C133 C131 1.408 . S
C133 C132 1.310 . S
C133 H153 0.930 . S
C134 C135 1.474 . S
C134 C136 1.285 . S
C134 H154 0.929 . S
C135 C132 1.461 . S
C135 C134 1.474 . S
C136 C131 1.342 . S
C136 C134 1.285 . S
C136 H155 0.930 . S
C137 C140 1.424 . S
C137 C142 1.245 . S
C137 C143 1.428 . S
C138 C141 1.260 . S
C138 C142 1.477 . S
C138 H156 0.932 . S
C139 C140 1.384 . S
C139 C141 1.479 . S
C139 H157 0.929 . S
C140 C137 1.424 . S
C140 C139 1.384 . S
C140 H158 0.928 . S
C141 C138 1.260 . S
C141 C139 1.479 . S
C142 C137 1.245 . S
C142 C138 1.477 . S
C142 H159 0.932 . S
C143 U126 2.882 . S
C143 C137 1.428 . S
C143 O146 1.301 . S
C143 O147 1.282 . S
O144 U126 2.441 . S
O144 C130 1.249 . S
O145 U126 2.420 . S
O145 C130 1.202 . S
O146 U126 2.455 . S
O146 C143 1.301 . S
O147 U126 2.449 . S
O147 C143 1.282 . S
H148 C121 0.931 . S
H149 C123 0.929 . S
H150 C124 0.930 . S
H151 C125 0.931 . S
H152 C132 0.932 . S
H153 C133 0.930 . S
H154 C134 0.929 . S
H155 C136 0.930 . S
H156 C138 0.932 . S
H157 C139 0.929 . S
H158 C140 0.928 . S
H159 C142 0.932 . S
C160 C161 1.264 . S
C160 C165 1.479 . S
C160 C170 1.465 . S
C161 C160 1.264 . S
C161 C163 1.339 . S
C161 H188 0.931 . S
C162 C163 1.395 . S
C162 C164 1.320 . S
C163 C161 1.339 . S
C163 C162 1.395 . S
C163 H189 0.929 . S
C164 C162 1.320 . S
C164 C165 1.405 . S
C164 H190 0.930 . S
C165 C160 1.479 . S
C165 C164 1.405 . S
C165 H191 0.931 . S
U166 O167 2.454 . S
U166 O168 2.458 . S
U166 C169 2.984 . S
U166 C170 2.847 . S
U166 C183 2.882 . S
U166 O184 2.441 . S
U166 O185 2.420 . S
U166 O186 2.455 . S
U166 O187 2.449 . S
O167 U166 2.454 . S
O167 C169 1.353 . S
O168 U166 2.458 . S
O168 C169 1.286 . S
C169 U166 2.984 . S
C169 O167 1.353 . S
C169 O168 1.286 . S
C169 C171 1.363 . S
C170 C160 1.465 . S
C170 U166 2.847 . S
C170 O184 1.249 . S
C170 O185 1.202 . S
C171 C169 1.363 . S
C171 C173 1.408 . S
C171 C176 1.342 . S
C172 C173 1.310 . S
C172 C175 1.461 . S
C172 H192 0.932 . S
C173 C171 1.408 . S
C173 C172 1.310 . S
C173 H193 0.930 . S
C174 C175 1.474 . S
C174 C176 1.285 . S
C174 H194 0.929 . S
C175 C172 1.461 . S
C175 C174 1.474 . S
C176 C171 1.342 . S
C176 C174 1.285 . S
C176 H195 0.930 . S
C177 C180 1.424 . S
C177 C182 1.245 . S
C177 C183 1.428 . S
C178 C181 1.260 . S
C178 C182 1.477 . S
C178 H196 0.932 . S
C179 C180 1.384 . S
C179 C181 1.479 . S
C179 H197 0.929 . S
C180 C177 1.424 . S
C180 C179 1.384 . S
C180 H198 0.928 . S
C181 C178 1.260 . S
C181 C179 1.479 . S
C182 C177 1.245 . S
C182 C178 1.477 . S
C182 H199 0.932 . S
C183 U166 2.882 . S
C183 C177 1.428 . S
C183 O186 1.301 . S
C183 O187 1.282 . S
O184 U166 2.441 . S
O184 C170 1.249 . S
O185 U166 2.420 . S
O185 C170 1.202 . S
O186 U166 2.455 . S
O186 C183 1.301 . S
O187 U166 2.449 . S
O187 C183 1.282 . S
H188 C161 0.931 . S
H189 C163 0.929 . S
H190 C164 0.930 . S
H191 C165 0.931 . S
H192 C172 0.932 . S
H193 C173 0.930 . S
H194 C174 0.929 . S
H195 C176 0.930 . S
H196 C178 0.932 . S
H197 C179 0.929 . S
H198 C180 0.928 . S
H199 C182 0.932 . S
C200 C201 1.264 . S
C200 C205 1.479 . S
C200 C210 1.465 . S
C201 C200 1.264 . S
C201 C203 1.339 . S
C201 H228 0.931 . S
C202 C203 1.395 . S
C202 C204 1.320 . S
C203 C201 1.339 . S
C203 C202 1.395 . S
C203 H229 0.929 . S
C204 C202 1.320 . S
C204 C205 1.405 . S
C204 H230 0.930 . S
C205 C200 1.479 . S
C205 C204 1.405 . S
C205 H231 0.931 . S
U206 O207 2.454 . S
U206 O208 2.458 . S
U206 C209 2.984 . S
U206 C210 2.847 . S
U206 C223 2.882 . S
U206 O224 2.441 . S
U206 O225 2.420 . S
U206 O226 2.455 . S
U206 O227 2.449 . S
O207 U206 2.454 . S
O207 C209 1.353 . S
O208 U206 2.458 . S
O208 C209 1.286 . S
C209 U206 2.984 . S
C209 O207 1.353 . S
C209 O208 1.286 . S
C209 C211 1.363 . S
C210 C200 1.465 . S
C210 U206 2.847 . S
C210 O224 1.249 . S
C210 O225 1.202 . S
C211 C209 1.363 . S
C211 C213 1.408 . S
C211 C216 1.342 . S
C212 C213 1.310 . S
C212 C215 1.461 . S
C212 H232 0.932 . S
C213 C211 1.408 . S
C213 C212 1.310 . S
C213 H233 0.930 . S
C214 C215 1.474 . S
C214 C216 1.285 . S
C214 H234 0.929 . S
C215 C212 1.461 . S
C215 C214 1.474 . S
C216 C211 1.342 . S
C216 C214 1.285 . S
C216 H235 0.930 . S
C217 C220 1.424 . S
C217 C222 1.245 . S
C217 C223 1.428 . S
C218 C221 1.260 . S
C218 C222 1.477 . S
C218 H236 0.932 . S
C219 C220 1.384 . S
C219 C221 1.479 . S
C219 H237 0.929 . S
C220 C217 1.424 . S
C220 C219 1.384 . S
C220 H238 0.928 . S
C221 C218 1.260 . S
C221 C219 1.479 . S
C222 C217 1.245 . S
C222 C218 1.477 . S
C222 H239 0.932 . S
C223 U206 2.882 . S
C223 C217 1.428 . S
C223 O226 1.301 . S
C223 O227 1.282 . S
O224 U206 2.441 . S
O224 C210 1.249 . S
O225 U206 2.420 . S
O225 C210 1.202 . S
O226 U206 2.455 . S
O226 C223 1.301 . S
O227 U206 2.449 . S
O227 C223 1.282 . S
H228 C201 0.931 . S
H229 C203 0.929 . S
H230 C204 0.930 . S
H231 C205 0.931 . S
H232 C212 0.932 . S
H233 C213 0.930 . S
H234 C214 0.929 . S
H235 C216 0.930 . S
H236 C218 0.932 . S
H237 C219 0.929 . S
H238 C220 0.928 . S
H239 C222 0.932 . S
C240 C241 1.264 . S
C240 C245 1.479 . S
C240 C250 1.465 . S
C241 C240 1.264 . S
C241 C243 1.339 . S
C241 H268 0.931 . S
C242 C243 1.395 . S
C242 C244 1.320 . S
C243 C241 1.339 . S
C243 C242 1.395 . S
C243 H269 0.929 . S
C244 C242 1.320 . S
C244 C245 1.405 . S
C244 H270 0.930 . S
C245 C240 1.479 . S
C245 C244 1.405 . S
C245 H271 0.931 . S
U246 O247 2.454 . S
U246 O248 2.458 . S
U246 C249 2.984 . S
U246 C250 2.847 . S
U246 C263 2.882 . S
U246 O264 2.441 . S
U246 O265 2.420 . S
U246 O266 2.455 . S
U246 O267 2.449 . S
O247 U246 2.454 . S
O247 C249 1.353 . S
O248 U246 2.458 . S
O248 C249 1.286 . S
C249 U246 2.984 . S
C249 O247 1.353 . S
C249 O248 1.286 . S
C249 C251 1.363 . S
C250 C240 1.465 . S
C250 U246 2.847 . S
C250 O264 1.249 . S
C250 O265 1.202 . S
C251 C249 1.363 . S
C251 C253 1.408 . S
C251 C256 1.342 . S
C252 C253 1.310 . S
C252 C255 1.461 . S
C252 H272 0.932 . S
C253 C251 1.408 . S
C253 C252 1.310 . S
C253 H273 0.930 . S
C254 C255 1.474 . S
C254 C256 1.285 . S
C254 H274 0.929 . S
C255 C252 1.461 . S
C255 C254 1.474 . S
C256 C251 1.342 . S
C256 C254 1.285 . S
C256 H275 0.930 . S
C257 C260 1.424 . S
C257 C262 1.245 . S
C257 C263 1.428 . S
C258 C261 1.260 . S
C258 C262 1.477 . S
C258 H276 0.932 . S
C259 C260 1.384 . S
C259 C261 1.479 . S
C259 H277 0.929 . S
C260 C257 1.424 . S
C260 C259 1.384 . S
C260 H278 0.928 . S
C261 C258 1.260 . S
C261 C259 1.479 . S
C262 C257 1.245 . S
C262 C258 1.477 . S
C262 H279 0.932 . S
C263 U246 2.882 . S
C263 C257 1.428 . S
C263 O266 1.301 . S
C263 O267 1.282 . S
O264 U246 2.441 . S
O264 C250 1.249 . S
O265 U246 2.420 . S
O265 C250 1.202 . S
O266 U246 2.455 . S
O266 C263 1.301 . S
O267 U246 2.449 . S
O267 C263 1.282 . S
H268 C241 0.931 . S
H269 C243 0.929 . S
H270 C244 0.930 . S
H271 C245 0.931 . S
H272 C252 0.932 . S
H273 C253 0.930 . S
H274 C254 0.929 . S
H275 C256 0.930 . S
H276 C258 0.932 . S
H277 C259 0.929 . S
H278 C260 0.928 . S
H279 C262 0.932 . S
C280 C281 1.264 . S
C280 C285 1.479 . S
C280 C290 1.465 . S
C281 C280 1.264 . S
C281 C283 1.339 . S
C281 H308 0.931 . S
C282 C283 1.395 . S
C282 C284 1.320 . S
C283 C281 1.339 . S
C283 C282 1.395 . S
C283 H309 0.929 . S
C284 C282 1.320 . S
C284 C285 1.405 . S
C284 H310 0.930 . S
C285 C280 1.479 . S
C285 C284 1.405 . S
C285 H311 0.931 . S
U286 O287 2.454 . S
U286 O288 2.458 . S
U286 C289 2.984 . S
U286 C290 2.847 . S
U286 C303 2.882 . S
U286 O304 2.441 . S
U286 O305 2.420 . S
U286 O306 2.455 . S
U286 O307 2.449 . S
O287 U286 2.454 . S
O287 C289 1.353 . S
O288 U286 2.458 . S
O288 C289 1.286 . S
C289 U286 2.984 . S
C289 O287 1.353 . S
C289 O288 1.286 . S
C289 C291 1.363 . S
C290 C280 1.465 . S
C290 U286 2.847 . S
C290 O304 1.249 . S
C290 O305 1.202 . S
C291 C289 1.363 . S
C291 C293 1.408 . S
C291 C296 1.342 . S
C292 C293 1.310 . S
C292 C295 1.461 . S
C292 H312 0.932 . S
C293 C291 1.408 . S
C293 C292 1.310 . S
C293 H313 0.930 . S
C294 C295 1.474 . S
C294 C296 1.285 . S
C294 H314 0.929 . S
C295 C292 1.461 . S
C295 C294 1.474 . S
C296 C291 1.342 . S
C296 C294 1.285 . S
C296 H315 0.930 . S
C297 C300 1.424 . S
C297 C302 1.245 . S
C297 C303 1.428 . S
C298 C301 1.260 . S
C298 C302 1.477 . S
C298 H316 0.932 . S
C299 C300 1.384 . S
C299 C301 1.479 . S
C299 H317 0.929 . S
C300 C297 1.424 . S
C300 C299 1.384 . S
C300 H318 0.928 . S
C301 C298 1.260 . S
C301 C299 1.479 . S
C302 C297 1.245 . S
C302 C298 1.477 . S
C302 H319 0.932 . S
C303 U286 2.882 . S
C303 C297 1.428 . S
C303 O306 1.301 . S
C303 O307 1.282 . S
O304 U286 2.441 . S
O304 C290 1.249 . S
O305 U286 2.420 . S
O305 C290 1.202 . S
O306 U286 2.455 . S
O306 C303 1.301 . S
O307 U286 2.449 . S
O307 C303 1.282 . S
H308 C281 0.931 . S
H309 C283 0.929 . S
H310 C284 0.930 . S
H311 C285 0.931 . S
H312 C292 0.932 . S
H313 C293 0.930 . S
H314 C294 0.929 . S
H315 C296 0.930 . S
H316 C298 0.932 . S
H317 C299 0.929 . S
H318 C300 0.928 . S
H319 C302 0.932 . S
C320 C321 1.264 . S
C320 C325 1.479 . S
C320 C330 1.465 . S
C321 C320 1.264 . S
C321 C323 1.339 . S
C321 H348 0.931 . S
C322 C323 1.395 . S
C322 C324 1.320 . S
C323 C321 1.339 . S
C323 C322 1.395 . S
C323 H349 0.929 . S
C324 C322 1.320 . S
C324 C325 1.405 . S
C324 H350 0.930 . S
C325 C320 1.479 . S
C325 C324 1.405 . S
C325 H351 0.931 . S
U326 O327 2.454 . S
U326 O328 2.458 . S
U326 C329 2.984 . S
U326 C330 2.847 . S
U326 C343 2.882 . S
U326 O344 2.441 . S
U326 O345 2.420 . S
U326 O346 2.455 . S
U326 O347 2.449 . S
O327 U326 2.454 . S
O327 C329 1.353 . S
O328 U326 2.458 . S
O328 C329 1.286 . S
C329 U326 2.984 . S
C329 O327 1.353 . S
C329 O328 1.286 . S
C329 C331 1.363 . S
C330 C320 1.465 . S
C330 U326 2.847 . S
C330 O344 1.249 . S
C330 O345 1.202 . S
C331 C329 1.363 . S
C331 C333 1.408 . S
C331 C336 1.342 . S
C332 C333 1.310 . S
C332 C335 1.461 . S
C332 H352 0.932 . S
C333 C331 1.408 . S
C333 C332 1.310 . S
C333 H353 0.930 . S
C334 C335 1.474 . S
C334 C336 1.285 . S
C334 H354 0.929 . S
C335 C332 1.461 . S
C335 C334 1.474 . S
C336 C331 1.342 . S
C336 C334 1.285 . S
C336 H355 0.930 . S
C337 C340 1.424 . S
C337 C342 1.245 . S
C337 C343 1.428 . S
C338 C341 1.260 . S
C338 C342 1.477 . S
C338 H356 0.932 . S
C339 C340 1.384 . S
C339 C341 1.479 . S
C339 H357 0.929 . S
C340 C337 1.424 . S
C340 C339 1.384 . S
C340 H358 0.928 . S
C341 C338 1.260 . S
C341 C339 1.479 . S
C342 C337 1.245 . S
C342 C338 1.477 . S
C342 H359 0.932 . S
C343 U326 2.882 . S
C343 C337 1.428 . S
C343 O346 1.301 . S
C343 O347 1.282 . S
O344 U326 2.441 . S
O344 C330 1.249 . S
O345 U326 2.420 . S
O345 C330 1.202 . S
O346 U326 2.455 . S
O346 C343 1.301 . S
O347 U326 2.449 . S
O347 C343 1.282 . S
H348 C321 0.931 . S
H349 C323 0.929 . S
H350 C324 0.930 . S
H351 C325 0.931 . S
H352 C332 0.932 . S
H353 C333 0.930 . S
H354 C334 0.929 . S
H355 C336 0.930 . S
H356 C338 0.932 . S
H357 C339 0.929 . S
H358 C340 0.928 . S
H359 C342 0.932 . S
C360 C361 1.264 . S
C360 C365 1.479 . S
C360 C370 1.465 . S
C361 C360 1.264 . S
C361 C363 1.339 . S
C361 H388 0.931 . S
C362 C363 1.395 . S
C362 C364 1.320 . S
C363 C361 1.339 . S
C363 C362 1.395 . S
C363 H389 0.929 . S
C364 C362 1.320 . S
C364 C365 1.405 . S
C364 H390 0.930 . S
C365 C360 1.479 . S
C365 C364 1.405 . S
C365 H391 0.931 . S
U366 O367 2.454 . S
U366 O368 2.458 . S
U366 C369 2.984 . S
U366 C370 2.847 . S
U366 C383 2.882 . S
U366 O384 2.441 . S
U366 O385 2.420 . S
U366 O386 2.455 . S
U366 O387 2.449 . S
O367 U366 2.454 . S
O367 C369 1.353 . S
O368 U366 2.458 . S
O368 C369 1.286 . S
C369 U366 2.984 . S
C369 O367 1.353 . S
C369 O368 1.286 . S
C369 C371 1.363 . S
C370 C360 1.465 . S
C370 U366 2.847 . S
C370 O384 1.249 . S
C370 O385 1.202 . S
C371 C369 1.363 . S
C371 C373 1.408 . S
C371 C376 1.342 . S
C372 C373 1.310 . S
C372 C375 1.461 . S
C372 H392 0.932 . S
C373 C371 1.408 . S
C373 C372 1.310 . S
C373 H393 0.930 . S
C374 C375 1.474 . S
C374 C376 1.285 . S
C374 H394 0.929 . S
C375 C372 1.461 . S
C375 C374 1.474 . S
C376 C371 1.342 . S
C376 C374 1.285 . S
C376 H395 0.930 . S
C377 C380 1.424 . S
C377 C382 1.245 . S
C377 C383 1.428 . S
C378 C381 1.260 . S
C378 C382 1.477 . S
C378 H396 0.932 . S
C379 C380 1.384 . S
C379 C381 1.479 . S
C379 H397 0.929 . S
C380 C377 1.424 . S
C380 C379 1.384 . S
C380 H398 0.928 . S
C381 C378 1.260 . S
C381 C379 1.479 . S
C382 C377 1.245 . S
C382 C378 1.477 . S
C382 H399 0.932 . S
C383 U366 2.882 . S
C383 C377 1.428 . S
C383 O386 1.301 . S
C383 O387 1.282 . S
O384 U366 2.441 . S
O384 C370 1.249 . S
O385 U366 2.420 . S
O385 C370 1.202 . S
O386 U366 2.455 . S
O386 C383 1.301 . S
O387 U366 2.449 . S
O387 C383 1.282 . S
H388 C361 0.931 . S
H389 C363 0.929 . S
H390 C364 0.930 . S
H391 C365 0.931 . S
H392 C372 0.932 . S
H393 C373 0.930 . S
H394 C374 0.929 . S
H395 C376 0.930 . S
H396 C378 0.932 . S
H397 C379 0.929 . S
H398 C380 0.928 . S
H399 C382 0.932 . S
C400 C401 1.264 . S
C400 C405 1.479 . S
C400 C410 1.465 . S
C401 C400 1.264 . S
C401 C403 1.339 . S
C401 H428 0.931 . S
C402 C403 1.395 . S
C402 C404 1.320 . S
C403 C401 1.339 . S
C403 C402 1.395 . S
C403 H429 0.929 . S
C404 C402 1.320 . S
C404 C405 1.405 . S
C404 H430 0.930 . S
C405 C400 1.479 . S
C405 C404 1.405 . S
C405 H431 0.931 . S
U406 O407 2.454 . S
U406 O408 2.458 . S
U406 C409 2.984 . S
U406 C410 2.847 . S
U406 C423 2.882 . S
U406 O424 2.441 . S
U406 O425 2.420 . S
U406 O426 2.455 . S
U406 O427 2.449 . S
O407 U406 2.454 . S
O407 C409 1.353 . S
O408 U406 2.458 . S
O408 C409 1.286 . S
C409 U406 2.984 . S
C409 O407 1.353 . S
C409 O408 1.286 . S
C409 C411 1.363 . S
C410 C400 1.465 . S
C410 U406 2.847 . S
C410 O424 1.249 . S
C410 O425 1.202 . S
C411 C409 1.363 . S
C411 C413 1.408 . S
C411 C416 1.342 . S
C412 C413 1.310 . S
C412 C415 1.461 . S
C412 H432 0.932 . S
C413 C411 1.408 . S
C413 C412 1.310 . S
C413 H433 0.930 . S
C414 C415 1.474 . S
C414 C416 1.285 . S
C414 H434 0.929 . S
C415 C412 1.461 . S
C415 C414 1.474 . S
C416 C411 1.342 . S
C416 C414 1.285 . S
C416 H435 0.930 . S
C417 C420 1.424 . S
C417 C422 1.245 . S
C417 C423 1.428 . S
C418 C421 1.260 . S
C418 C422 1.477 . S
C418 H436 0.932 . S
C419 C420 1.384 . S
C419 C421 1.479 . S
C419 H437 0.929 . S
C420 C417 1.424 . S
C420 C419 1.384 . S
C420 H438 0.928 . S
C421 C418 1.260 . S
C421 C419 1.479 . S
C422 C417 1.245 . S
C422 C418 1.477 . S
C422 H439 0.932 . S
C423 U406 2.882 . S
C423 C417 1.428 . S
C423 O426 1.301 . S
C423 O427 1.282 . S
O424 U406 2.441 . S
O424 C410 1.249 . S
O425 U406 2.420 . S
O425 C410 1.202 . S
O426 U406 2.455 . S
O426 C423 1.301 . S
O427 U406 2.449 . S
O427 C423 1.282 . S
H428 C401 0.931 . S
H429 C403 0.929 . S
H430 C404 0.930 . S
H431 C405 0.931 . S
H432 C412 0.932 . S
H433 C413 0.930 . S
H434 C414 0.929 . S
H435 C416 0.930 . S
H436 C418 0.932 . S
H437 C419 0.929 . S
H438 C420 0.928 . S
H439 C422 0.932 . S
C440 C441 1.264 . S
C440 C445 1.479 . S
C440 C450 1.465 . S
C441 C440 1.264 . S
C441 C443 1.339 . S
C441 H468 0.931 . S
C442 C443 1.395 . S
C442 C444 1.320 . S
C443 C441 1.339 . S
C443 C442 1.395 . S
C443 H469 0.929 . S
C444 C442 1.320 . S
C444 C445 1.405 . S
C444 H470 0.930 . S
C445 C440 1.479 . S
C445 C444 1.405 . S
C445 H471 0.931 . S
U446 O447 2.454 . S
U446 O448 2.458 . S
U446 C449 2.984 . S
U446 C450 2.847 . S
U446 C463 2.882 . S
U446 O464 2.441 . S
U446 O465 2.420 . S
U446 O466 2.455 . S
U446 O467 2.449 . S
O447 U446 2.454 . S
O447 C449 1.353 . S
O448 U446 2.458 . S
O448 C449 1.286 . S
C449 U446 2.984 . S
C449 O447 1.353 . S
C449 O448 1.286 . S
C449 C451 1.363 . S
C450 C440 1.465 . S
C450 U446 2.847 . S
C450 O464 1.249 . S
C450 O465 1.202 . S
C451 C449 1.363 . S
C451 C453 1.408 . S
C451 C456 1.342 . S
C452 C453 1.310 . S
C452 C455 1.461 . S
C452 H472 0.932 . S
C453 C451 1.408 . S
C453 C452 1.310 . S
C453 H473 0.930 . S
C454 C455 1.474 . S
C454 C456 1.285 . S
C454 H474 0.929 . S
C455 C452 1.461 . S
C455 C454 1.474 . S
C456 C451 1.342 . S
C456 C454 1.285 . S
C456 H475 0.930 . S
C457 C460 1.424 . S
C457 C462 1.245 . S
C457 C463 1.428 . S
C458 C461 1.260 . S
C458 C462 1.477 . S
C458 H476 0.932 . S
C459 C460 1.384 . S
C459 C461 1.479 . S
C459 H477 0.929 . S
C460 C457 1.424 . S
C460 C459 1.384 . S
C460 H478 0.928 . S
C461 C458 1.260 . S
C461 C459 1.479 . S
C462 C457 1.245 . S
C462 C458 1.477 . S
C462 H479 0.932 . S
C463 U446 2.882 . S
C463 C457 1.428 . S
C463 O466 1.301 . S
C463 O467 1.282 . S
O464 U446 2.441 . S
O464 C450 1.249 . S
O465 U446 2.420 . S
O465 C450 1.202 . S
O466 U446 2.455 . S
O466 C463 1.301 . S
O467 U446 2.449 . S
O467 C463 1.282 . S
H468 C441 0.931 . S
H469 C443 0.929 . S
H470 C444 0.930 . S
H471 C445 0.931 . S
H472 C452 0.932 . S
H473 C453 0.930 . S
H474 C454 0.929 . S
H475 C456 0.930 . S
H476 C458 0.932 . S
H477 C459 0.929 . S
H478 C460 0.928 . S
H479 C462 0.932 . S
C480 C481 1.349 . S
C480 C482 1.327 . S
C480 H505 0.950 . S
C481 C480 1.349 . S
C481 C497 1.349 . S
C482 C480 1.327 . S
C482 C501 1.429 . S
C482 H506 0.950 . S
C483 C500 1.574 . S
C483 C502 1.368 . S
C483 H507 0.949 . S
H484 C488 0.949 . S
C485 C486 1.349 . S
C485 C487 1.327 . S
C485 H508 0.950 . S
C486 C485 1.349 . S
C486 C498 1.349 . S
C487 C485 1.327 . S
C487 C503 1.429 . S
C487 H509 0.950 . S
C488 H484 0.949 . S
C488 C496 1.574 . S
C488 C504 1.368 . S
H489 C497 0.950 . S
H490 C495 0.950 . S
H491 C496 0.949 . S
H492 C498 0.950 . S
H493 C499 0.950 . S
H494 C500 0.949 . S
C495 H490 0.950 . S
C495 C497 1.327 . S
C495 C501 1.429 . S
C496 C488 1.574 . S
C496 H491 0.949 . S
C496 C502 1.368 . S
C497 C481 1.349 . S
C497 H489 0.950 . S
C497 C495 1.327 . S
C498 C486 1.349 . S
C498 H492 0.950 . S
C498 C499 1.327 . S
C499 H493 0.950 . S
C499 C498 1.327 . S
C499 C503 1.429 . S
C500 C483 1.574 . S
C500 H494 0.949 . S
C500 C504 1.368 . S
C501 C482 1.429 . S
C501 C495 1.429 . S
C501 C502 1.523 . S
C502 C483 1.368 . S
C502 C496 1.368 . S
C502 C501 1.523 . S
C503 C487 1.429 . S
C503 C499 1.429 . S
C503 C504 1.523 . S
C504 C488 1.368 . S
C504 C500 1.368 . S
C504 C503 1.523 . S
H505 C480 0.950 . S
H506 C482 0.950 . S
H507 C483 0.949 . S
H508 C485 0.950 . S
H509 C487 0.950 . S
C510 C511 1.349 . S
C510 C512 1.327 . S
C510 H535 0.950 . S
C511 C510 1.349 . S
C511 C527 1.349 . S
C512 C510 1.327 . S
C512 C531 1.429 . S
C512 H536 0.950 . S
C513 C530 1.574 . S
C513 C532 1.368 . S
C513 H537 0.949 . S
H514 C518 0.949 . S
C515 C516 1.349 . S
C515 C517 1.327 . S
C515 H538 0.950 . S
C516 C515 1.349 . S
C516 C528 1.349 . S
C517 C515 1.327 . S
C517 C533 1.429 . S
C517 H539 0.950 . S
C518 H514 0.949 . S
C518 C526 1.574 . S
C518 C534 1.368 . S
H519 C527 0.950 . S
H520 C525 0.950 . S
H521 C526 0.949 . S
H522 C528 0.950 . S
H523 C529 0.950 . S
H524 C530 0.949 . S
C525 H520 0.950 . S
C525 C527 1.327 . S
C525 C531 1.429 . S
C526 C518 1.574 . S
C526 H521 0.949 . S
C526 C532 1.368 . S
C527 C511 1.349 . S
C527 H519 0.950 . S
C527 C525 1.327 . S
C528 C516 1.349 . S
C528 H522 0.950 . S
C528 C529 1.327 . S
C529 H523 0.950 . S
C529 C528 1.327 . S
C529 C533 1.429 . S
C530 C513 1.574 . S
C530 H524 0.949 . S
C530 C534 1.368 . S
C531 C512 1.429 . S
C531 C525 1.429 . S
C531 C532 1.523 . S
C532 C513 1.368 . S
C532 C526 1.368 . S
C532 C531 1.523 . S
C533 C517 1.429 . S
C533 C529 1.429 . S
C533 C534 1.523 . S
C534 C518 1.368 . S
C534 C530 1.368 . S
C534 C533 1.523 . S
H535 C510 0.950 . S
H536 C512 0.950 . S
H537 C513 0.949 . S
H538 C515 0.950 . S
H539 C517 0.950 . S
C540 C541 1.349 . S
C540 C542 1.327 . S
C540 H565 0.950 . S
C541 C540 1.349 . S
C541 C557 1.349 . S
C542 C540 1.327 . S
C542 C561 1.429 . S
C542 H566 0.950 . S
C543 C560 1.574 . S
C543 C562 1.368 . S
C543 H567 0.949 . S
H544 C548 0.949 . S
C545 C546 1.349 . S
C545 C547 1.327 . S
C545 H568 0.950 . S
C546 C545 1.349 . S
C546 C558 1.349 . S
C547 C545 1.327 . S
C547 C563 1.429 . S
C547 H569 0.950 . S
C548 H544 0.949 . S
C548 C556 1.574 . S
C548 C564 1.368 . S
H549 C557 0.950 . S
H550 C555 0.950 . S
H551 C556 0.949 . S
H552 C558 0.950 . S
H553 C559 0.950 . S
H554 C560 0.949 . S
C555 H550 0.950 . S
C555 C557 1.327 . S
C555 C561 1.429 . S
C556 C548 1.574 . S
C556 H551 0.949 . S
C556 C562 1.368 . S
C557 C541 1.349 . S
C557 H549 0.950 . S
C557 C555 1.327 . S
C558 C546 1.349 . S
C558 H552 0.950 . S
C558 C559 1.327 . S
C559 H553 0.950 . S
C559 C558 1.327 . S
C559 C563 1.429 . S
C560 C543 1.574 . S
C560 H554 0.949 . S
C560 C564 1.368 . S
C561 C542 1.429 . S
C561 C555 1.429 . S
C561 C562 1.523 . S
C562 C543 1.368 . S
C562 C556 1.368 . S
C562 C561 1.523 . S
C563 C547 1.429 . S
C563 C559 1.429 . S
C563 C564 1.523 . S
C564 C548 1.368 . S
C564 C560 1.368 . S
C564 C563 1.523 . S
H565 C540 0.950 . S
H566 C542 0.950 . S
H567 C543 0.949 . S
H568 C545 0.950 . S
H569 C547 0.950 . S
C570 C571 1.349 . S
C570 C572 1.327 . S
C570 H595 0.950 . S
C571 C570 1.349 . S
C571 C587 1.349 . S
C572 C570 1.327 . S
C572 C591 1.429 . S
C572 H596 0.950 . S
C573 C590 1.574 . S
C573 C592 1.368 . S
C573 H597 0.949 . S
H574 C578 0.949 . S
C575 C576 1.349 . S
C575 C577 1.327 . S
C575 H598 0.950 . S
C576 C575 1.349 . S
C576 C588 1.349 . S
C577 C575 1.327 . S
C577 C593 1.429 . S
C577 H599 0.950 . S
C578 H574 0.949 . S
C578 C586 1.574 . S
C578 C594 1.368 . S
H579 C587 0.950 . S
H580 C585 0.950 . S
H581 C586 0.949 . S
H582 C588 0.950 . S
H583 C589 0.950 . S
H584 C590 0.949 . S
C585 H580 0.950 . S
C585 C587 1.327 . S
C585 C591 1.429 . S
C586 C578 1.574 . S
C586 H581 0.949 . S
C586 C592 1.368 . S
C587 C571 1.349 . S
C587 H579 0.950 . S
C587 C585 1.327 . S
C588 C576 1.349 . S
C588 H582 0.950 . S
C588 C589 1.327 . S
C589 H583 0.950 . S
C589 C588 1.327 . S
C589 C593 1.429 . S
C590 C573 1.574 . S
C590 H584 0.949 . S
C590 C594 1.368 . S
C591 C572 1.429 . S
C591 C585 1.429 . S
C591 C592 1.523 . S
C592 C573 1.368 . S
C592 C586 1.368 . S
C592 C591 1.523 . S
C593 C577 1.429 . S
C593 C589 1.429 . S
C593 C594 1.523 . S
C594 C578 1.368 . S
C594 C590 1.368 . S
C594 C593 1.523 . S
H595 C570 0.950 . S
H596 C572 0.950 . S
H597 C573 0.949 . S
H598 C575 0.950 . S
H599 C577 0.950 . S
C600 C601 1.349 . S
C600 C602 1.327 . S
C600 H625 0.950 . S
C601 C600 1.349 . S
C601 C617 1.349 . S
C602 C600 1.327 . S
C602 C621 1.429 . S
C602 H626 0.950 . S
C603 C620 1.574 . S
C603 C622 1.368 . S
C603 H627 0.949 . S
H604 C608 0.949 . S
C605 C606 1.349 . S
C605 C607 1.327 . S
C605 H628 0.950 . S
C606 C605 1.349 . S
C606 C618 1.349 . S
C607 C605 1.327 . S
C607 C623 1.429 . S
C607 H629 0.950 . S
C608 H604 0.949 . S
C608 C616 1.574 . S
C608 C624 1.368 . S
H609 C617 0.950 . S
H610 C615 0.950 . S
H611 C616 0.949 . S
H612 C618 0.950 . S
H613 C619 0.950 . S
H614 C620 0.949 . S
C615 H610 0.950 . S
C615 C617 1.327 . S
C615 C621 1.429 . S
C616 C608 1.574 . S
C616 H611 0.949 . S
C616 C622 1.368 . S
C617 C601 1.349 . S
C617 H609 0.950 . S
C617 C615 1.327 . S
C618 C606 1.349 . S
C618 H612 0.950 . S
C618 C619 1.327 . S
C619 H613 0.950 . S
C619 C618 1.327 . S
C619 C623 1.429 . S
C620 C603 1.574 . S
C620 H614 0.949 . S
C620 C624 1.368 . S
C621 C602 1.429 . S
C621 C615 1.429 . S
C621 C622 1.523 . S
C622 C603 1.368 . S
C622 C616 1.368 . S
C622 C621 1.523 . S
C623 C607 1.429 . S
C623 C619 1.429 . S
C623 C624 1.523 . S
C624 C608 1.368 . S
C624 C620 1.368 . S
C624 C623 1.523 . S
H625 C600 0.950 . S
H626 C602 0.950 . S
H627 C603 0.949 . S
H628 C605 0.950 . S
H629 C607 0.950 . S
C630 C631 1.349 . S
C630 C632 1.327 . S
C630 H655 0.950 . S
C631 C630 1.349 . S
C631 C647 1.349 . S
C632 C630 1.327 . S
C632 C651 1.429 . S
C632 H656 0.950 . S
C633 C650 1.574 . S
C633 C652 1.368 . S
C633 H657 0.949 . S
H634 C638 0.949 . S
C635 C636 1.349 . S
C635 C637 1.327 . S
C635 H658 0.950 . S
C636 C635 1.349 . S
C636 C648 1.349 . S
C637 C635 1.327 . S
C637 C653 1.429 . S
C637 H659 0.950 . S
C638 H634 0.949 . S
C638 C646 1.574 . S
C638 C654 1.368 . S
H639 C647 0.950 . S
H640 C645 0.950 . S
H641 C646 0.949 . S
H642 C648 0.950 . S
H643 C649 0.950 . S
H644 C650 0.949 . S
C645 H640 0.950 . S
C645 C647 1.327 . S
C645 C651 1.429 . S
C646 C638 1.574 . S
C646 H641 0.949 . S
C646 C652 1.368 . S
C647 C631 1.349 . S
C647 H639 0.950 . S
C647 C645 1.327 . S
C648 C636 1.349 . S
C648 H642 0.950 . S
C648 C649 1.327 . S
C649 H643 0.950 . S
C649 C648 1.327 . S
C649 C653 1.429 . S
C650 C633 1.574 . S
C650 H644 0.949 . S
C650 C654 1.368 . S
C651 C632 1.429 . S
C651 C645 1.429 . S
C651 C652 1.523 . S
C652 C633 1.368 . S
C652 C646 1.368 . S
C652 C651 1.523 . S
C653 C637 1.429 . S
C653 C649 1.429 . S
C653 C654 1.523 . S
C654 C638 1.368 . S
C654 C650 1.368 . S
C654 C653 1.523 . S
H655 C630 0.950 . S
H656 C632 0.950 . S
H657 C633 0.949 . S
H658 C635 0.950 . S
H659 C637 0.950 . S
C660 C661 1.349 . S
C660 C662 1.327 . S
C660 H685 0.950 . S
C661 C660 1.349 . S
C661 C677 1.349 . S
C662 C660 1.327 . S
C662 C681 1.429 . S
C662 H686 0.950 . S
C663 C680 1.574 1_565 S
C663 C682 1.368 . S
C663 H687 0.949 . S
H664 C668 0.949 . S
C665 C666 1.349 . S
C665 C667 1.327 . S
C665 H688 0.950 . S
C666 C665 1.349 . S
C666 C678 1.349 . S
C667 C665 1.327 . S
C667 C683 1.429 . S
C667 H689 0.950 . S
C668 H664 0.949 . S
C668 C676 1.574 1_545 S
C668 C684 1.368 . S
H669 C677 0.950 . S
H670 C675 0.950 . S
H671 C676 0.949 . S
H672 C678 0.950 . S
H673 C679 0.950 . S
H674 C680 0.949 . S
C675 H670 0.950 . S
C675 C677 1.327 . S
C675 C681 1.429 . S
C676 C668 1.574 1_565 S
C676 H671 0.949 . S
C676 C682 1.368 . S
C677 C661 1.349 . S
C677 H669 0.950 . S
C677 C675 1.327 . S
C678 C666 1.349 . S
C678 H672 0.950 . S
C678 C679 1.327 . S
C679 H673 0.950 . S
C679 C678 1.327 . S
C679 C683 1.429 . S
C680 C663 1.574 1_545 S
C680 H674 0.949 . S
C680 C684 1.368 . S
C681 C662 1.429 . S
C681 C675 1.429 . S
C681 C682 1.523 . S
C682 C663 1.368 . S
C682 C676 1.368 . S
C682 C681 1.523 . S
C683 C667 1.429 . S
C683 C679 1.429 . S
C683 C684 1.523 . S
C684 C668 1.368 . S
C684 C680 1.368 . S
C684 C683 1.523 . S
H685 C660 0.950 . S
H686 C662 0.950 . S
H687 C663 0.949 . S
H688 C665 0.950 . S
H689 C667 0.950 . S
C690 C691 1.349 . S
C690 C692 1.327 . S
C690 H715 0.950 . S
C691 C690 1.349 . S
C691 C707 1.349 . S
C692 C690 1.327 . S
C692 C711 1.429 . S
C692 H716 0.950 . S
C693 C710 1.574 . S
C693 C712 1.368 . S
C693 H717 0.949 . S
H694 C698 0.949 . S
C695 C696 1.349 . S
C695 C697 1.327 . S
C695 H718 0.950 . S
C696 C695 1.349 . S
C696 C708 1.349 . S
C697 C695 1.327 . S
C697 C713 1.429 . S
C697 H719 0.950 . S
C698 H694 0.949 . S
C698 C706 1.574 . S
C698 C714 1.368 . S
H699 C707 0.950 . S
H700 C705 0.950 . S
H701 C706 0.949 . S
H702 C708 0.950 . S
H703 C709 0.950 . S
H704 C710 0.949 . S
C705 H700 0.950 . S
C705 C707 1.327 . S
C705 C711 1.429 . S
C706 C698 1.574 . S
C706 H701 0.949 . S
C706 C712 1.368 . S
C707 C691 1.349 . S
C707 H699 0.950 . S
C707 C705 1.327 . S
C708 C696 1.349 . S
C708 H702 0.950 . S
C708 C709 1.327 . S
C709 H703 0.950 . S
C709 C708 1.327 . S
C709 C713 1.429 . S
C710 C693 1.574 . S
C710 H704 0.949 . S
C710 C714 1.368 . S
C711 C692 1.429 . S
C711 C705 1.429 . S
C711 C712 1.523 . S
C712 C693 1.368 . S
C712 C706 1.368 . S
C712 C711 1.523 . S
C713 C697 1.429 . S
C713 C709 1.429 . S
C713 C714 1.523 . S
C714 C698 1.368 . S
C714 C710 1.368 . S
C714 C713 1.523 . S
H715 C690 0.950 . S
H716 C692 0.950 . S
H717 C693 0.949 . S
H718 C695 0.950 . S
H719 C697 0.950 . S
C720 C721 1.349 . S
C720 C722 1.327 . S
C720 H745 0.950 . S
C721 C720 1.349 . S
C721 C737 1.349 . S
C722 C720 1.327 . S
C722 C741 1.429 . S
C722 H746 0.950 . S
C723 C740 1.574 1_655 S
C723 C742 1.368 . S
C723 H747 0.949 . S
H724 C728 0.949 . S
C725 C726 1.349 . S
C725 C727 1.327 . S
C725 H748 0.950 . S
C726 C725 1.349 . S
C726 C738 1.349 . S
C727 C725 1.327 . S
C727 C743 1.429 . S
C727 H749 0.950 . S
C728 H724 0.949 . S
C728 C736 1.574 1_455 S
C728 C744 1.368 . S
H729 C737 0.950 . S
H730 C735 0.950 . S
H731 C736 0.949 . S
H732 C738 0.950 . S
H733 C739 0.950 . S
H734 C740 0.949 . S
C735 H730 0.950 . S
C735 C737 1.327 . S
C735 C741 1.429 . S
C736 C728 1.574 1_655 S
C736 H731 0.949 . S
C736 C742 1.368 . S
C737 C721 1.349 . S
C737 H729 0.950 . S
C737 C735 1.327 . S
C738 C726 1.349 . S
C738 H732 0.950 . S
C738 C739 1.327 . S
C739 H733 0.950 . S
C739 C738 1.327 . S
C739 C743 1.429 . S
C740 C723 1.574 1_455 S
C740 H734 0.949 . S
C740 C744 1.368 . S
C741 C722 1.429 . S
C741 C735 1.429 . S
C741 C742 1.523 . S
C742 C723 1.368 . S
C742 C736 1.368 . S
C742 C741 1.523 . S
C743 C727 1.429 . S
C743 C739 1.429 . S
C743 C744 1.523 . S
C744 C728 1.368 . S
C744 C740 1.368 . S
C744 C743 1.523 . S
H745 C720 0.950 . S
H746 C722 0.950 . S
H747 C723 0.949 . S
H748 C725 0.950 . S
H749 C727 0.950 . S
C750 C751 1.349 . S
C750 C752 1.327 . S
C750 H775 0.950 . S
C751 C750 1.349 . S
C751 C767 1.349 . S
C752 C750 1.327 . S
C752 C771 1.429 . S
C752 H776 0.950 . S
C753 C770 1.574 1_455 S
C753 C772 1.368 . S
C753 H777 0.949 . S
H754 C758 0.949 . S
C755 C756 1.349 . S
C755 C757 1.327 . S
C755 H778 0.950 . S
C756 C755 1.349 . S
C756 C768 1.349 . S
C757 C755 1.327 . S
C757 C773 1.429 . S
C757 H779 0.950 . S
C758 H754 0.949 . S
C758 C766 1.574 1_655 S
C758 C774 1.368 . S
H759 C767 0.950 . S
H760 C765 0.950 . S
H761 C766 0.949 . S
H762 C768 0.950 . S
H763 C769 0.950 . S
H764 C770 0.949 . S
C765 H760 0.950 . S
C765 C767 1.327 . S
C765 C771 1.429 . S
C766 C758 1.574 1_455 S
C766 H761 0.949 . S
C766 C772 1.368 . S
C767 C751 1.349 . S
C767 H759 0.950 . S
C767 C765 1.327 . S
C768 C756 1.349 . S
C768 H762 0.950 . S
C768 C769 1.327 . S
C769 H763 0.950 . S
C769 C768 1.327 . S
C769 C773 1.429 . S
C770 C753 1.574 1_655 S
C770 H764 0.949 . S
C770 C774 1.368 . S
C771 C752 1.429 . S
C771 C765 1.429 . S
C771 C772 1.523 . S
C772 C753 1.368 . S
C772 C766 1.368 . S
C772 C771 1.523 . S
C773 C757 1.429 . S
C773 C769 1.429 . S
C773 C774 1.523 . S
C774 C758 1.368 . S
C774 C770 1.368 . S
C774 C773 1.523 . S
H775 C750 0.950 . S
H776 C752 0.950 . S
H777 C753 0.949 . S
H778 C755 0.950 . S
H779 C757 0.950 . S
C780 C781 1.349 . S
C780 C782 1.327 . S
C780 H805 0.950 . S
C781 C780 1.349 . S
C781 C797 1.349 . S
C782 C780 1.327 . S
C782 C801 1.429 . S
C782 H806 0.950 . S
C783 C800 1.574 1_565 S
C783 C802 1.368 . S
C783 H807 0.949 . S
H784 C788 0.949 . S
C785 C786 1.349 . S
C785 C787 1.327 . S
C785 H808 0.950 . S
C786 C785 1.349 . S
C786 C798 1.349 . S
C787 C785 1.327 . S
C787 C803 1.429 . S
C787 H809 0.950 . S
C788 H784 0.949 . S
C788 C796 1.574 1_545 S
C788 C804 1.368 . S
H789 C797 0.950 . S
H790 C795 0.950 . S
H791 C796 0.949 . S
H792 C798 0.950 . S
H793 C799 0.950 . S
H794 C800 0.949 . S
C795 H790 0.950 . S
C795 C797 1.327 . S
C795 C801 1.429 . S
C796 C788 1.574 1_565 S
C796 H791 0.949 . S
C796 C802 1.368 . S
C797 C781 1.349 . S
C797 H789 0.950 . S
C797 C795 1.327 . S
C798 C786 1.349 . S
C798 H792 0.950 . S
C798 C799 1.327 . S
C799 H793 0.950 . S
C799 C798 1.327 . S
C799 C803 1.429 . S
C800 C783 1.574 1_545 S
C800 H794 0.949 . S
C800 C804 1.368 . S
C801 C782 1.429 . S
C801 C795 1.429 . S
C801 C802 1.523 . S
C802 C783 1.368 . S
C802 C796 1.368 . S
C802 C801 1.523 . S
C803 C787 1.429 . S
C803 C799 1.429 . S
C803 C804 1.523 . S
C804 C788 1.368 . S
C804 C800 1.368 . S
C804 C803 1.523 . S
H805 C780 0.950 . S
H806 C782 0.950 . S
H807 C783 0.949 . S
H808 C785 0.950 . S
H809 C787 0.950 . S
C810 C811 1.349 . S
C810 C812 1.327 . S
C810 H835 0.950 . S
C811 C810 1.349 . S
C811 C827 1.349 . S
C812 C810 1.327 . S
C812 C831 1.429 . S
C812 H836 0.950 . S
C813 C830 1.574 . S
C813 C832 1.368 . S
C813 H837 0.949 . S
H814 C818 0.949 . S
C815 C816 1.349 . S
C815 C817 1.327 . S
C815 H838 0.950 . S
C816 C815 1.349 . S
C816 C828 1.349 . S
C817 C815 1.327 . S
C817 C833 1.429 . S
C817 H839 0.950 . S
C818 H814 0.949 . S
C818 C826 1.574 . S
C818 C834 1.368 . S
H819 C827 0.950 . S
H820 C825 0.950 . S
H821 C826 0.949 . S
H822 C828 0.950 . S
H823 C829 0.950 . S
H824 C830 0.949 . S
C825 H820 0.950 . S
C825 C827 1.327 . S
C825 C831 1.429 . S
C826 C818 1.574 . S
C826 H821 0.949 . S
C826 C832 1.368 . S
C827 C811 1.349 . S
C827 H819 0.950 . S
C827 C825 1.327 . S
C828 C816 1.349 . S
C828 H822 0.950 . S
C828 C829 1.327 . S
C829 H823 0.950 . S
C829 C828 1.327 . S
C829 C833 1.429 . S
C830 C813 1.574 . S
C830 H824 0.949 . S
C830 C834 1.368 . S
C831 C812 1.429 . S
C831 C825 1.429 . S
C831 C832 1.523 . S
C832 C813 1.368 . S
C832 C826 1.368 . S
C832 C831 1.523 . S
C833 C817 1.429 . S
C833 C829 1.429 . S
C833 C834 1.523 . S
C834 C818 1.368 . S
C834 C830 1.368 . S
C834 C833 1.523 . S
H835 C810 0.950 . S
H836 C812 0.950 . S
H837 C813 0.949 . S
H838 C815 0.950 . S
H839 C817 0.950 . S
C840 C841 1.349 . S
C840 C842 1.327 . S
C840 H865 0.950 . S
C841 C840 1.349 . S
C841 C857 1.349 . S
C842 C840 1.327 . S
C842 C861 1.429 . S
C842 H866 0.950 . S
C843 C860 1.574 1_556 S
C843 C862 1.368 . S
C843 H867 0.949 . S
H844 C848 0.949 . S
C845 C846 1.349 . S
C845 C847 1.327 . S
C845 H868 0.950 . S
C846 C845 1.349 . S
C846 C858 1.349 . S
C847 C845 1.327 . S
C847 C863 1.429 . S
C847 H869 0.950 . S
C848 H844 0.949 . S
C848 C856 1.574 1_554 S
C848 C864 1.368 . S
H849 C857 0.950 . S
H850 C855 0.950 . S
H851 C856 0.949 . S
H852 C858 0.950 . S
H853 C859 0.950 . S
H854 C860 0.949 . S
C855 H850 0.950 . S
C855 C857 1.327 . S
C855 C861 1.429 . S
C856 C848 1.574 1_556 S
C856 H851 0.949 . S
C856 C862 1.368 . S
C857 C841 1.349 . S
C857 H849 0.950 . S
C857 C855 1.327 . S
C858 C846 1.349 . S
C858 H852 0.950 . S
C858 C859 1.327 . S
C859 H853 0.950 . S
C859 C858 1.327 . S
C859 C863 1.429 . S
C860 C843 1.574 1_554 S
C860 H854 0.949 . S
C860 C864 1.368 . S
C861 C842 1.429 . S
C861 C855 1.429 . S
C861 C862 1.523 . S
C862 C843 1.368 . S
C862 C856 1.368 . S
C862 C861 1.523 . S
C863 C847 1.429 . S
C863 C859 1.429 . S
C863 C864 1.523 . S
C864 C848 1.368 . S
C864 C860 1.368 . S
C864 C863 1.523 . S
H865 C840 0.950 . S
H866 C842 0.950 . S
H867 C843 0.949 . S
H868 C845 0.950 . S
H869 C847 0.950 . S
C870 C871 1.349 . S
C870 C872 1.327 . S
C870 H895 0.950 . S
C871 C870 1.349 . S
C871 C887 1.349 . S
C872 C870 1.327 . S
C872 C891 1.429 . S
C872 H896 0.950 . S
C873 C890 1.574 . S
C873 C892 1.368 . S
C873 H897 0.949 . S
H874 C878 0.949 . S
C875 C876 1.349 . S
C875 C877 1.327 . S
C875 H898 0.950 . S
C876 C875 1.349 . S
C876 C888 1.349 . S
C877 C875 1.327 . S
C877 C893 1.429 . S
C877 H899 0.950 . S
C878 H874 0.949 . S
C878 C886 1.574 . S
C878 C894 1.368 . S
H879 C887 0.950 . S
H880 C885 0.950 . S
H881 C886 0.949 . S
H882 C888 0.950 . S
H883 C889 0.950 . S
H884 C890 0.949 . S
C885 H880 0.950 . S
C885 C887 1.327 . S
C885 C891 1.429 . S
C886 C878 1.574 . S
C886 H881 0.949 . S
C886 C892 1.368 . S
C887 C871 1.349 . S
C887 H879 0.950 . S
C887 C885 1.327 . S
C888 C876 1.349 . S
C888 H882 0.950 . S
C888 C889 1.327 . S
C889 H883 0.950 . S
C889 C888 1.327 . S
C889 C893 1.429 . S
C890 C873 1.574 . S
C890 H884 0.949 . S
C890 C894 1.368 . S
C891 C872 1.429 . S
C891 C885 1.429 . S
C891 C892 1.523 . S
C892 C873 1.368 . S
C892 C886 1.368 . S
C892 C891 1.523 . S
C893 C877 1.429 . S
C893 C889 1.429 . S
C893 C894 1.523 . S
C894 C878 1.368 . S
C894 C890 1.368 . S
C894 C893 1.523 . S
H895 C870 0.950 . S
H896 C872 0.950 . S
H897 C873 0.949 . S
H898 C875 0.950 . S
H899 C877 0.950 . S
C900 C901 1.349 . S
C900 C902 1.327 . S
C900 H925 0.950 . S
C901 C900 1.349 . S
C901 C917 1.349 . S
C902 C900 1.327 . S
C902 C921 1.429 . S
C902 H926 0.950 . S
C903 C920 1.574 . S
C903 C922 1.368 . S
C903 H927 0.949 . S
H904 C908 0.949 . S
C905 C906 1.349 . S
C905 C907 1.327 . S
C905 H928 0.950 . S
C906 C905 1.349 . S
C906 C918 1.349 . S
C907 C905 1.327 . S
C907 C923 1.429 . S
C907 H929 0.950 . S
C908 H904 0.949 . S
C908 C916 1.574 . S
C908 C924 1.368 . S
H909 C917 0.950 . S
H910 C915 0.950 . S
H911 C916 0.949 . S
H912 C918 0.950 . S
H913 C919 0.950 . S
H914 C920 0.949 . S
C915 H910 0.950 . S
C915 C917 1.327 . S
C915 C921 1.429 . S
C916 C908 1.574 . S
C916 H911 0.949 . S
C916 C922 1.368 . S
C917 C901 1.349 . S
C917 H909 0.950 . S
C917 C915 1.327 . S
C918 C906 1.349 . S
C918 H912 0.950 . S
C918 C919 1.327 . S
C919 H913 0.950 . S
C919 C918 1.327 . S
C919 C923 1.429 . S
C920 C903 1.574 . S
C920 H914 0.949 . S
C920 C924 1.368 . S
C921 C902 1.429 . S
C921 C915 1.429 . S
C921 C922 1.523 . S
C922 C903 1.368 . S
C922 C916 1.368 . S
C922 C921 1.523 . S
C923 C907 1.429 . S
C923 C919 1.429 . S
C923 C924 1.523 . S
C924 C908 1.368 . S
C924 C920 1.368 . S
C924 C923 1.523 . S
H925 C900 0.950 . S
H926 C902 0.950 . S
H927 C903 0.949 . S
H928 C905 0.950 . S
H929 C907 0.950 . S
C930 C931 1.349 . S
C930 C932 1.327 . S
C930 H955 0.950 . S
C931 C930 1.349 . S
C931 C947 1.349 . S
C932 C930 1.327 . S
C932 C951 1.429 . S
C932 H956 0.950 . S
C933 C950 1.574 1_554 S
C933 C952 1.368 . S
C933 H957 0.949 . S
H934 C938 0.949 . S
C935 C936 1.349 . S
C935 C937 1.327 . S
C935 H958 0.950 . S
C936 C935 1.349 . S
C936 C948 1.349 . S
C937 C935 1.327 . S
C937 C953 1.429 . S
C937 H959 0.950 . S
C938 H934 0.949 . S
C938 C946 1.574 1_556 S
C938 C954 1.368 . S
H939 C947 0.950 . S
H940 C945 0.950 . S
H941 C946 0.949 . S
H942 C948 0.950 . S
H943 C949 0.950 . S
H944 C950 0.949 . S
C945 H940 0.950 . S
C945 C947 1.327 . S
C945 C951 1.429 . S
C946 C938 1.574 1_554 S
C946 H941 0.949 . S
C946 C952 1.368 . S
C947 C931 1.349 . S
C947 H939 0.950 . S
C947 C945 1.327 . S
C948 C936 1.349 . S
C948 H942 0.950 . S
C948 C949 1.327 . S
C949 H943 0.950 . S
C949 C948 1.327 . S
C949 C953 1.429 . S
C950 C933 1.574 1_556 S
C950 H944 0.949 . S
C950 C954 1.368 . S
C951 C932 1.429 . S
C951 C945 1.429 . S
C951 C952 1.523 . S
C952 C933 1.368 . S
C952 C946 1.368 . S
C952 C951 1.523 . S
C953 C937 1.429 . S
C953 C949 1.429 . S
C953 C954 1.523 . S
C954 C938 1.368 . S
C954 C950 1.368 . S
C954 C953 1.523 . S
H955 C930 0.950 . S
H956 C932 0.950 . S
H957 C933 0.949 . S
H958 C935 0.950 . S
H959 C937 0.950 . S
C960 C961 1.349 . S
C960 C962 1.327 . S
C960 H985 0.950 . S
C961 C960 1.349 . S
C961 C977 1.349 . S
C962 C960 1.327 . S
C962 C981 1.429 . S
C962 H986 0.950 . S
C963 C980 1.574 . S
C963 C982 1.368 . S
C963 H987 0.949 . S
H964 C968 0.949 . S
C965 C966 1.349 . S
C965 C967 1.327 . S
C965 H988 0.950 . S
C966 C965 1.349 . S
C966 C978 1.349 . S
C967 C965 1.327 . S
C967 C983 1.429 . S
C967 H989 0.950 . S
C968 H964 0.949 . S
C968 C976 1.574 . S
C968 C984 1.368 . S
H969 C977 0.950 . S
H970 C975 0.950 . S
H971 C976 0.949 . S
H972 C978 0.950 . S
H973 C979 0.950 . S
H974 C980 0.949 . S
C975 H970 0.950 . S
C975 C977 1.327 . S
C975 C981 1.429 . S
C976 C968 1.574 . S
C976 H971 0.949 . S
C976 C982 1.368 . S
C977 C961 1.349 . S
C977 H969 0.950 . S
C977 C975 1.327 . S
C978 C966 1.349 . S
C978 H972 0.950 . S
C978 C979 1.327 . S
C979 H973 0.950 . S
C979 C978 1.327 . S
C979 C983 1.429 . S
C980 C963 1.574 . S
C980 H974 0.949 . S
C980 C984 1.368 . S
C981 C962 1.429 . S
C981 C975 1.429 . S
C981 C982 1.523 . S
C982 C963 1.368 . S
C982 C976 1.368 . S
C982 C981 1.523 . S
C983 C967 1.429 . S
C983 C979 1.429 . S
C983 C984 1.523 . S
C984 C968 1.368 . S
C984 C980 1.368 . S
C984 C983 1.523 . S
H985 C960 0.950 . S
H986 C962 0.950 . S
H987 C963 0.949 . S
H988 C965 0.950 . S
H989 C967 0.950 . S
C990 C991 1.349 . S
C990 C992 1.327 . S
C990 H1015 0.950 . S
C991 C990 1.349 . S
C991 C1007 1.349 . S
C992 C990 1.327 . S
C992 C1011 1.429 . S
C992 H1016 0.950 . S
C993 C1010 1.574 . S
C993 C1012 1.368 . S
C993 H1017 0.949 . S
H994 C998 0.949 . S
C995 C996 1.349 . S
C995 C997 1.327 . S
C995 H1018 0.950 . S
C996 C995 1.349 . S
C996 C1008 1.349 . S
C997 C995 1.327 . S
C997 C1013 1.429 . S
C997 H1019 0.950 . S
C998 H994 0.949 . S
C998 C1006 1.574 . S
C998 C1014 1.368 . S
H999 C1007 0.950 . S
H1000 C1005 0.950 . S
H1001 C1006 0.949 . S
H1002 C1008 0.950 . S
H1003 C1009 0.950 . S
H1004 C1010 0.949 . S
C1005 H1000 0.950 . S
C1005 C1007 1.327 . S
C1005 C1011 1.429 . S
C1006 C998 1.574 . S
C1006 H1001 0.949 . S
C1006 C1012 1.368 . S
C1007 C991 1.349 . S
C1007 H999 0.950 . S
C1007 C1005 1.327 . S
C1008 C996 1.349 . S
C1008 H1002 0.950 . S
C1008 C1009 1.327 . S
C1009 H1003 0.950 . S
C1009 C1008 1.327 . S
C1009 C1013 1.429 . S
C1010 C993 1.574 . S
C1010 H1004 0.949 . S
C1010 C1014 1.368 . S
C1011 C992 1.429 . S
C1011 C1005 1.429 . S
C1011 C1012 1.523 . S
C1012 C993 1.368 . S
C1012 C1006 1.368 . S
C1012 C1011 1.523 . S
C1013 C997 1.429 . S
C1013 C1009 1.429 . S
C1013 C1014 1.523 . S
C1014 C998 1.368 . S
C1014 C1010 1.368 . S
C1014 C1013 1.523 . S
H1015 C990 0.950 . S
H1016 C992 0.950 . S
H1017 C993 0.949 . S
H1018 C995 0.950 . S
H1019 C997 0.950 . S
C481 C335 1.356 . S
C486 C15 1.356 . S
C511 C55 1.356 . S
C516 C375 1.356 . S
C541 C415 1.355 . S
C546 C95 1.355 . S
C571 C455 1.355 . S
C576 C135 1.356 . S
C601 C255 1.356 . S
C606 C175 1.356 . S
C631 C215 1.356 . S
C636 C295 1.356 . S
C661 C122 1.691 . S
C666 C2 1.691 . S
C691 C162 1.691 . S
C696 C42 1.691 . S
C721 C82 1.691 . S
C726 C202 1.691 . S
C751 C362 1.692 . S
C756 C242 1.692 . S
C781 C282 1.691 . S
C786 C402 1.691 . S
C811 C442 1.691 . S
C816 C322 1.691 . S
C841 C421 1.734 . S
C846 C21 1.734 . S
C871 C461 1.734 . S
C876 C61 1.734 . S
C901 C101 1.734 . S
C906 C261 1.734 . S
C931 C141 1.734 . S
C936 C301 1.734 . S
C961 C181 1.733 . S
C966 C341 1.733 . S
C991 C221 1.733 . S
C996 C381 1.733 . S
