# Generated by pormake.
# Topology wme, (6)-cn, num edge types: 1
# Building blocks:
#     Node 0, Type 0, BuildingBlock: MIFKUJ_clean_sbu_0, # of connection points: 6
#     Node 1, Type 0, BuildingBlock: MIFKUJ_clean_sbu_0, # of connection points: 6
#     Node 2, Type 0, BuildingBlock: MIFKUJ_clean_sbu_0, # of connection points: 6
#     Node 3, Type 0, BuildingBlock: MIFKUJ_clean_sbu_0, # of connection points: 6
#     Node 4, Type 0, BuildingBlock: MIFKUJ_clean_sbu_0, # of connection points: 6
#     Node 5, Type 0, BuildingBlock: MIFKUJ_clean_sbu_0, # of connection points: 6
#     Node 6, Type 0, BuildingBlock: MIFKUJ_clean_sbu_0, # of connection points: 6
#     Node 7, Type 0, BuildingBlock: MIFKUJ_clean_sbu_0, # of connection points: 6
#     Node 8, Type 0, BuildingBlock: MIFKUJ_clean_sbu_0, # of connection points: 6
#     Node 9, Type 0, BuildingBlock: MIFKUJ_clean_sbu_0, # of connection points: 6
#     Node 10, Type 0, BuildingBlock: MIFKUJ_clean_sbu_0, # of connection points: 6
#     Node 11, Type 0, BuildingBlock: MIFKUJ_clean_sbu_0, # of connection points: 6
#     Edge 12, Type (0, 0), BuildingBlock: MIFKUJ_clean_linker_0, # of connection points: 2
#     Edge 13, Type (0, 0), BuildingBlock: MIFKUJ_clean_linker_0, # of connection points: 2
#     Edge 14, Type (0, 0), BuildingBlock: MIFKUJ_clean_linker_0, # of connection points: 2
#     Edge 15, Type (0, 0), BuildingBlock: MIFKUJ_clean_linker_0, # of connection points: 2
#     Edge 16, Type (0, 0), BuildingBlock: MIFKUJ_clean_linker_0, # of connection points: 2
#     Edge 17, Type (0, 0), BuildingBlock: MIFKUJ_clean_linker_0, # of connection points: 2
#     Edge 18, Type (0, 0), BuildingBlock: MIFKUJ_clean_linker_0, # of connection points: 2
#     Edge 19, Type (0, 0), BuildingBlock: MIFKUJ_clean_linker_0, # of connection points: 2
#     Edge 20, Type (0, 0), BuildingBlock: MIFKUJ_clean_linker_0, # of connection points: 2
#     Edge 21, Type (0, 0), BuildingBlock: MIFKUJ_clean_linker_0, # of connection points: 2
#     Edge 22, Type (0, 0), BuildingBlock: MIFKUJ_clean_linker_0, # of connection points: 2
#     Edge 23, Type (0, 0), BuildingBlock: MIFKUJ_clean_linker_0, # of connection points: 2
#     Edge 24, Type (0, 0), BuildingBlock: MIFKUJ_clean_linker_0, # of connection points: 2
#     Edge 25, Type (0, 0), BuildingBlock: MIFKUJ_clean_linker_0, # of connection points: 2
#     Edge 26, Type (0, 0), BuildingBlock: MIFKUJ_clean_linker_0, # of connection points: 2
#     Edge 27, Type (0, 0), BuildingBlock: MIFKUJ_clean_linker_0, # of connection points: 2
#     Edge 28, Type (0, 0), BuildingBlock: MIFKUJ_clean_linker_0, # of connection points: 2
#     Edge 29, Type (0, 0), BuildingBlock: MIFKUJ_clean_linker_0, # of connection points: 2
#     Edge 30, Type (0, 0), BuildingBlock: MIFKUJ_clean_linker_0, # of connection points: 2
#     Edge 31, Type (0, 0), BuildingBlock: MIFKUJ_clean_linker_0, # of connection points: 2
#     Edge 32, Type (0, 0), BuildingBlock: MIFKUJ_clean_linker_0, # of connection points: 2
#     Edge 33, Type (0, 0), BuildingBlock: MIFKUJ_clean_linker_0, # of connection points: 2
#     Edge 34, Type (0, 0), BuildingBlock: MIFKUJ_clean_linker_0, # of connection points: 2
#     Edge 35, Type (0, 0), BuildingBlock: MIFKUJ_clean_linker_0, # of connection points: 2
#     Edge 36, Type (0, 0), BuildingBlock: MIFKUJ_clean_linker_0, # of connection points: 2
#     Edge 37, Type (0, 0), BuildingBlock: MIFKUJ_clean_linker_0, # of connection points: 2
#     Edge 38, Type (0, 0), BuildingBlock: MIFKUJ_clean_linker_0, # of connection points: 2
#     Edge 39, Type (0, 0), BuildingBlock: MIFKUJ_clean_linker_0, # of connection points: 2
#     Edge 40, Type (0, 0), BuildingBlock: MIFKUJ_clean_linker_0, # of connection points: 2
#     Edge 41, Type (0, 0), BuildingBlock: MIFKUJ_clean_linker_0, # of connection points: 2
#     Edge 42, Type (0, 0), BuildingBlock: MIFKUJ_clean_linker_0, # of connection points: 2
#     Edge 43, Type (0, 0), BuildingBlock: MIFKUJ_clean_linker_0, # of connection points: 2
#     Edge 44, Type (0, 0), BuildingBlock: MIFKUJ_clean_linker_0, # of connection points: 2
#     Edge 45, Type (0, 0), BuildingBlock: MIFKUJ_clean_linker_0, # of connection points: 2
#     Edge 46, Type (0, 0), BuildingBlock: MIFKUJ_clean_linker_0, # of connection points: 2
#     Edge 47, Type (0, 0), BuildingBlock: MIFKUJ_clean_linker_0, # of connection points: 2
# Relax obj value: 0.071
# Max RMSD: 0.160
# Mean RMSD: 0.160
data_MOF--net-wme--node1-MIFKUJ_clean_sbu_0--edge1-MIFKUJ_clean_linker_0
_symmetry_space_group_name_H-M    P1
_symmetry_Int_Tables_number       1
_symmetry_cell_setting            triclinic
loop_
_symmetry_equiv_pos_as_xyz
'x, y, z'
_cell_length_a     43.650895
_cell_length_b     43.672987
_cell_length_c     68.779703
_cell_angle_alpha  90.007526
_cell_angle_beta   90.00141
_cell_angle_gamma 120.26808
loop_
_atom_site_label
_atom_site_type_symbol
_atom_site_fract_x
_atom_site_fract_y
_atom_site_fract_z
_atom_type_partial_charge
Zn0 Zn 0.21862 0.31364 0.12205 0.0
Zn1 Zn 0.21071 0.37583 0.10641 0.0
C2 C 0.14598 0.26556 0.12772 0.0
O3 O 0.1605 0.2638 0.1441 0.0
C4 C 0.27479 0.43771 0.09479 0.0
O5 O 0.25512 0.43221 0.07926 0.0
O6 O 0.2269 0.27406 0.12919 0.0
O7 O 0.25143 0.33866 0.10021 0.0
O8 O 0.2094 0.34239 0.08522 0.0
C9 C 0.22356 0.2535 0.11527 0.0
O10 O 0.21689 0.26051 0.09773 0.0
O11 O 0.1659 0.28767 0.11485 0.0
C12 C 0.15574 0.39442 0.10229 0.0
O13 O 0.13909 0.37028 0.11576 0.0
O14 O 0.1852 0.39959 0.09579 0.0
O15 O 0.19085 0.36007 0.13398 0.0
O16 O 0.22726 0.34328 0.14521 0.0
O17 O 0.26193 0.41591 0.10888 0.0
C18 C 0.23571 0.33749 0.08457 0.0
C19 C 0.2059 0.35437 0.14824 0.0
Zn20 Zn 0.9147 0.2065 0.62115 0.0
Zn21 Zn 0.83933 0.2156 0.61133 0.0
C22 C 0.88948 0.13503 0.6225 0.0
O23 O 0.91266 0.14913 0.63669 0.0
C24 C 0.83549 0.27443 0.59524 0.0
O25 O 0.81961 0.25155 0.5811 0.0
O26 O 0.96459 0.21419 0.62094 0.0
O27 O 0.916 0.24454 0.60431 0.0
O28 O 0.86658 0.2105 0.5888 0.0
C29 C 0.97333 0.20432 0.60553 0.0
O30 O 0.95064 0.19177 0.59105 0.0
O31 O 0.88293 0.15534 0.61221 0.0
C32 C 0.76704 0.18608 0.62009 0.0
O33 O 0.78197 0.20573 0.63553 0.0
O34 O 0.78677 0.18421 0.6071 0.0
O35 O 0.85067 0.20971 0.63936 0.0
O36 O 0.89946 0.20909 0.6478 0.0
O37 O 0.84727 0.26535 0.60972 0.0
C38 C 0.89947 0.23311 0.58848 0.0
C39 C 0.87079 0.2082 0.65228 0.0
Zn40 Zn 0.72006 0.92191 0.11486 0.0
Zn41 Zn 0.64508 0.84657 0.10569 0.0
C42 C 0.75493 0.88234 0.11981 0.0
O43 O 0.75639 0.89366 0.13768 0.0
C44 C 0.59246 0.86569 0.09634 0.0
O45 O 0.6008 0.8619 0.0785 0.0
O46 O 0.76463 0.97015 0.11867 0.0
O47 O 0.69026 0.92518 0.09414 0.0
O48 O 0.67548 0.87299 0.08199 0.0
C49 C 0.78151 0.98912 0.10406 0.0
O50 O 0.76835 0.97833 0.08658 0.0
O51 O 0.739 0.88995 0.10688 0.0
C52 C 0.60123 0.77072 0.11238 0.0
O53 O 0.6139 0.78002 0.13006 0.0
O54 O 0.61227 0.79426 0.09909 0.0
O55 O 0.66862 0.84871 0.13168 0.0
O56 O 0.69404 0.90538 0.13978 0.0
O57 O 0.60953 0.86261 0.11047 0.0
C58 C 0.68544 0.9056 0.07954 0.0
C59 C 0.67886 0.87291 0.14454 0.0
Zn60 Zn 0.7825 0.70531 0.62194 0.0
Zn61 Zn 0.78334 0.63314 0.60906 0.0
C62 C 0.85631 0.73975 0.62794 0.0
O63 O 0.845 0.74345 0.645 0.0
C64 C 0.71297 0.57981 0.5966 0.0
O65 O 0.72588 0.59175 0.5792 0.0
O66 O 0.77946 0.75015 0.6246 0.0
O67 O 0.74867 0.67573 0.60166 0.0
O68 O 0.78792 0.66695 0.58709 0.0
C69 C 0.79753 0.77466 0.61237 0.0
O70 O 0.81627 0.76934 0.59928 0.0
O71 O 0.8336 0.72208 0.61485 0.0
C72 C 0.81456 0.5894 0.61367 0.0
O73 O 0.81004 0.59429 0.63205 0.0
O74 O 0.80666 0.60505 0.60068 0.0
O75 O 0.8003 0.6511 0.6369 0.0
O76 O 0.77228 0.67906 0.64647 0.0
O77 O 0.73206 0.59483 0.61145 0.0
C78 C 0.76538 0.67721 0.58639 0.0
C79 C 0.7883 0.66231 0.65036 0.0
Zn80 Zn 0.09716 0.8199 0.11631 0.0
Zn81 Zn 0.16964 0.78404 0.10485 0.0
C82 C 0.11007 0.88666 0.12843 0.0
O83 O 0.08728 0.86654 0.1418 0.0
C84 C 0.1658 0.72175 0.09112 0.0
O85 O 0.18426 0.74387 0.07711 0.0
O86 O 0.04449 0.79933 0.11242 0.0
O87 O 0.12226 0.80566 0.09836 0.0
O88 O 0.14904 0.78857 0.07887 0.0
C89 C 0.0357 0.81284 0.09866 0.0
O90 O 0.06053 0.83574 0.08699 0.0
O91 O 0.11923 0.87236 0.11536 0.0
C92 C 0.23885 0.80245 0.11711 0.0
O93 O 0.21934 0.77748 0.12966 0.0
O94 O 0.22345 0.81192 0.1048 0.0
O95 O 0.14787 0.79325 0.12965 0.0
O96 O 0.11004 0.80824 0.14184 0.0
O97 O 0.15608 0.73307 0.10549 0.0
C98 C 0.12525 0.79653 0.08146 0.0
C99 C 0.13345 0.79922 0.14428 0.0
Zn100 Zn 0.2743 0.08437 0.61047 0.0
Zn101 Zn 0.37051 0.15651 0.60547 0.0
C102 C 0.26647 0.14679 0.60558 0.0
O103 O 0.28941 0.15986 0.6199 0.0
C104 C 0.42396 0.14002 0.59231 0.0
O105 O 0.41238 0.14166 0.57494 0.0
O106 O 0.23135 0.03504 0.60914 0.0
O107 O 0.31481 0.08491 0.59721 0.0
O108 O 0.34307 0.13388 0.5807 0.0
C109 C 0.20135 0.03217 0.6125 0.0
O110 O 0.20023 0.06057 0.61763 0.0
O111 O 0.25894 0.117 0.59833 0.0
C112 C 0.41911 0.22628 0.61673 0.0
O113 O 0.42176 0.20786 0.63107 0.0
O114 O 0.39647 0.20987 0.6034 0.0
O115 O 0.34425 0.14115 0.63155 0.0
O116 O 0.28884 0.09856 0.63777 0.0
O117 O 0.40946 0.14456 0.60721 0.0
C118 C 0.32212 0.10064 0.58104 0.0
C119 C 0.31898 0.12329 0.64348 0.0
Zn120 Zn 0.69482 0.78315 0.37587 0.0
Zn121 Zn 0.6291 0.79313 0.38663 0.0
C122 C 0.7427 0.85403 0.36559 0.0
O123 O 0.7454 0.83658 0.35075 0.0
C124 C 0.57093 0.72785 0.3993 0.0
O125 O 0.57489 0.74836 0.4142 0.0
O126 O 0.73471 0.77299 0.37157 0.0
O127 O 0.66997 0.75833 0.40007 0.0
O128 O 0.66204 0.80181 0.40941 0.0
C129 C 0.75616 0.78062 0.38571 0.0
O130 O 0.75 0.79245 0.40193 0.0
O131 O 0.72051 0.83664 0.37898 0.0
C132 C 0.58326 0.82109 0.37919 0.0
O133 O 0.58731 0.81332 0.36128 0.0
O134 O 0.59979 0.81596 0.39287 0.0
O135 O 0.64963 0.80992 0.35964 0.0
O136 O 0.664 0.76952 0.35252 0.0
O137 O 0.59275 0.74073 0.38524 0.0
C138 C 0.67017 0.77838 0.41343 0.0
C139 C 0.65404 0.79094 0.34718 0.0
Zn140 Zn 0.91589 0.71303 0.88155 0.0
Zn141 Zn 0.84306 0.6374 0.89085 0.0
C142 C 0.87943 0.74953 0.87324 0.0
O143 O 0.89549 0.75186 0.85669 0.0
C144 C 0.8615 0.58505 0.90115 0.0
O145 O 0.84909 0.58842 0.91793 0.0
O146 O 0.96418 0.75745 0.87748 0.0
O147 O 0.91973 0.68623 0.90382 0.0
O148 O 0.86596 0.66811 0.9149 0.0
C149 C 0.98513 0.77297 0.89168 0.0
O150 O 0.97625 0.75876 0.90908 0.0
O151 O 0.88281 0.73215 0.88712 0.0
C152 C 0.77678 0.57447 0.88581 0.0
O153 O 0.79632 0.57049 0.87267 0.0
O154 O 0.7906 0.60266 0.89604 0.0
O155 O 0.84425 0.6599 0.86479 0.0
O156 O 0.90103 0.68468 0.85719 0.0
O157 O 0.86404 0.60535 0.8872 0.0
C158 C 0.89856 0.67876 0.91797 0.0
C159 C 0.86869 0.66944 0.85214 0.0
Zn160 Zn 0.19286 0.90716 0.36956 0.0
Zn161 Zn 0.21274 0.83912 0.38512 0.0
C162 C 0.12087 0.88037 0.36366 0.0
O163 O 0.1353 0.89492 0.3469 0.0
C164 C 0.27918 0.85841 0.40428 0.0
O165 O 0.25843 0.84356 0.41938 0.0
O166 O 0.20371 0.95609 0.36261 0.0
O167 O 0.22614 0.91298 0.39095 0.0
O168 O 0.19637 0.86165 0.40549 0.0
C169 C 0.19963 0.97391 0.37589 0.0
O170 O 0.18884 0.95963 0.39315 0.0
O171 O 0.14096 0.88086 0.37723 0.0
C172 C 0.21031 0.77325 0.38654 0.0
O173 O 0.2411 0.7928 0.378 0.0
O174 O 0.19177 0.78709 0.39122 0.0
O175 O 0.20539 0.84103 0.35601 0.0
O176 O 0.19851 0.88537 0.3458 0.0
O177 O 0.26567 0.86133 0.38851 0.0
C178 C 0.21205 0.89525 0.4062 0.0
C179 C 0.20161 0.85854 0.34237 0.0
Zn180 Zn 0.30684 0.20898 0.87621 0.0
Zn181 Zn 0.37113 0.20188 0.88732 0.0
C182 C 0.26093 0.13637 0.86873 0.0
O183 O 0.25637 0.15188 0.85353 0.0
C184 C 0.42839 0.26714 0.90035 0.0
O185 O 0.422 0.24684 0.91569 0.0
O186 O 0.26558 0.21723 0.87441 0.0
O187 O 0.33583 0.23972 0.8978 0.0
O188 O 0.34004 0.1966 0.91092 0.0
C189 C 0.24548 0.20568 0.88923 0.0
O190 O 0.25345 0.19035 0.90319 0.0
O191 O 0.28381 0.15573 0.88144 0.0
C192 C 0.42564 0.1879 0.88139 0.0
O193 O 0.42813 0.20751 0.86632 0.0
O194 O 0.40057 0.17948 0.89348 0.0
O195 O 0.35108 0.1835 0.85996 0.0
O196 O 0.33329 0.22079 0.85154 0.0
O197 O 0.40836 0.25424 0.88555 0.0
C198 C 0.33481 0.22257 0.91279 0.0
C199 C 0.34453 0.20013 0.8469 0.0
Zn200 Zn 0.08759 0.27698 0.37599 0.0
Zn201 Zn 0.1596 0.36715 0.38706 0.0
C202 C 0.1251 0.2493 0.35621 0.0
O203 O 0.10362 0.24719 0.34221 0.0
C204 C 0.1478 0.42201 0.399 0.0
O205 O 0.15858 0.41512 0.41539 0.0
O206 O 0.04066 0.23187 0.37083 0.0
O207 O 0.08759 0.28836 0.40367 0.0
O208 O 0.13478 0.33987 0.41153 0.0
C209 C 0.01438 0.22049 0.38241 0.0
O210 O 0.01654 0.2397 0.3976 0.0
O211 O 0.1246 0.26344 0.37224 0.0
C212 C 0.23639 0.40524 0.37991 0.0
O213 O 0.22738 0.39036 0.36267 0.0
O214 O 0.21237 0.39749 0.39261 0.0
O215 O 0.15244 0.34356 0.3606 0.0
O216 O 0.09438 0.31423 0.35679 0.0
O217 O 0.1447 0.4035 0.38407 0.0
C218 C 0.10687 0.31124 0.41622 0.0
C219 C 0.12524 0.33439 0.35001 0.0
Zn220 Zn 0.81401 0.08852 0.88219 0.0
Zn221 Zn 0.79869 0.17065 0.89259 0.0
C222 C 0.88948 0.12925 0.87491 0.0
O223 O 0.87895 0.13105 0.85729 0.0
C224 C 0.73989 0.17127 0.90993 0.0
O225 O 0.76573 0.19729 0.91975 0.0
O226 O 0.79664 0.0358 0.87996 0.0
O227 O 0.78979 0.10098 0.90217 0.0
O228 O 0.81652 0.15385 0.91496 0.0
C229 C 0.77715 0.01111 0.89176 0.0
O230 O 0.76348 0.01819 0.90691 0.0
O231 O 0.86644 0.11296 0.88808 0.0
C232 C 0.82508 0.2423 0.87784 0.0
O233 O 0.81228 0.22552 0.86134 0.0
O234 O 0.82381 0.22461 0.89283 0.0
O235 O 0.80157 0.15316 0.86534 0.0
O236 O 0.8076 0.10698 0.8571 0.0
O237 O 0.74735 0.15435 0.89759 0.0
C238 C 0.80943 0.12191 0.91536 0.0
C239 C 0.80396 0.13324 0.85256 0.0
H240 H 0.15343 0.93458 0.10134 0.0
H241 H 0.177 0.99848 0.10123 0.0
H242 H 0.12339 0.99016 0.15538 0.0
H243 H 0.09909 0.926 0.15542 0.0
H244 H 0.11474 0.03173 0.12996 0.0
H245 H 0.21247 0.02226 0.15442 0.0
H246 H 0.25598 1.00203 0.15437 0.0
H247 H 0.29855 0.0557 0.1002 0.0
H248 H 0.25493 0.07584 0.09979 0.0
H249 H 0.20399 0.2156 0.14893 0.0
H250 H 0.18991 0.15417 0.15318 0.0
H251 H 0.2236 0.15295 0.0944 0.0
H252 H 0.23715 0.21423 0.08989 0.0
H253 H 0.24384 0.11719 0.12386 0.0
H254 H 0.14371 0.12261 0.09829 0.0
H255 H 0.10009 0.1427 0.09786 0.0
H256 H 0.0621 0.09627 0.15409 0.0
H257 H 0.10602 0.07647 0.15501 0.0
C258 C 0.14672 0.94633 0.11326 0.0
C259 C 0.12454 0.92531 0.12844 0.0
C260 C 0.16033 0.98286 0.11321 0.0
C261 C 0.15235 0.99905 0.12845 0.0
C262 C 0.12995 0.97812 0.14353 0.0
C263 C 0.11617 0.94152 0.14355 0.0
C264 C 0.16686 0.03779 0.1284 0.0
C265 C 0.143 0.05041 0.12899 0.0
C266 C 0.2037 0.06207 0.12669 0.0
C267 C 0.23024 0.05033 0.127 0.0
C268 C 0.23095 0.02956 0.14244 0.0
C269 C 0.25566 0.01813 0.1425 0.0
C270 C 0.27997 0.02752 0.12728 0.0
C271 C 0.27969 0.04843 0.11198 0.0
C272 C 0.25501 0.0599 0.11184 0.0
C273 C 0.20918 0.2025 0.13708 0.0
C274 C 0.22134 0.21936 0.11903 0.0
C275 C 0.20104 0.16749 0.13951 0.0
C276 C 0.20549 0.14921 0.12402 0.0
C277 C 0.22002 0.1668 0.10645 0.0
C278 C 0.22756 0.2016 0.10389 0.0
C279 C 0.19172 0.11083 0.12549 0.0
C280 C 0.21565 0.09838 0.12507 0.0
C281 C 0.15496 0.08666 0.12735 0.0
C282 C 0.12846 0.09845 0.12683 0.0
C283 C 0.12634 0.11703 0.11066 0.0
C284 C 0.10151 0.1283 0.11031 0.0
C285 C 0.07839 0.12083 0.12596 0.0
C286 C 0.08007 0.10208 0.142 0.0
C287 C 0.10493 0.09083 0.14244 0.0
H288 H 0.05906 0.12939 0.12561 0.0
H289 H 0.29906 0.01863 0.12735 0.0
H290 H 0.26765 0.2036 0.623 0.0
H291 H 0.22314 0.22154 0.62025 0.0
H292 H 0.16927 0.14312 0.57557 0.0
H293 H 0.21362 0.1247 0.57827 0.0
H294 H 0.17028 0.21003 0.56976 0.0
H295 H 0.13977 0.11844 0.61821 0.0
H296 H 0.15273 0.09283 0.64682 0.0
H297 H 0.17126 0.18271 0.68118 0.0
H298 H 0.15873 0.20904 0.65266 0.0
H299 H 0.99495 0.17712 0.57646 0.0
H300 H 0.04983 0.17567 0.5744 0.0
H301 H 0.08481 0.23244 0.62874 0.0
H302 H 0.02892 0.23255 0.63133 0.0
H303 H 0.09714 0.18131 0.62955 0.0
H304 H 0.12647 0.27316 0.58202 0.0
H305 H 0.11798 0.30168 0.55317 0.0
H306 H 0.10283 0.21445 0.51754 0.0
H307 H 0.11228 0.18587 0.54606 0.0
C308 C 0.24685 0.19065 0.61225 0.0
C309 C 0.24397 0.16238 0.60102 0.0
C310 C 0.2214 0.20096 0.61073 0.0
C311 C 0.19273 0.18336 0.59788 0.0
C312 C 0.19122 0.15701 0.58558 0.0
C313 C 0.21656 0.14647 0.58719 0.0
C314 C 0.16239 0.18962 0.59892 0.0
C315 C 0.15408 0.2036 0.58275 0.0
C316 C 0.14183 0.18192 0.61603 0.0
C317 C 0.14859 0.16582 0.63329 0.0
C318 C 0.14677 0.13282 0.63185 0.0
C319 C 0.154 0.11816 0.64804 0.0
C320 C 0.16282 0.13615 0.6658 0.0
C321 C 0.16438 0.16881 0.66741 0.0
C322 C 0.15717 0.18358 0.65124 0.0
C323 C 0.01434 0.18945 0.58797 0.0
C324 C 0.00748 0.20487 0.6041 0.0
C325 C 0.04602 0.18898 0.58664 0.0
C326 C 0.07197 0.20457 0.60121 0.0
C327 C 0.06532 0.22033 0.61726 0.0
C328 C 0.03334 0.22036 0.61875 0.0
C329 C 0.10473 0.20201 0.60035 0.0
C330 C 0.11346 0.18838 0.61658 0.0
C331 C 0.12581 0.21035 0.58332 0.0
C332 C 0.11981 0.22728 0.56619 0.0
C333 C 0.12119 0.26001 0.56805 0.0
C334 C 0.11632 0.27623 0.55175 0.0
C335 C 0.10947 0.25971 0.53359 0.0
C336 C 0.10801 0.22716 0.53163 0.0
C337 C 0.11342 0.21108 0.54781 0.0
H338 H 0.10548 0.27222 0.52103 0.0
H339 H 0.16835 0.12472 0.67833 0.0
H340 H 0.81932 0.04076 0.07716 0.0
H341 H 0.87973 0.09095 0.08006 0.0
H342 H 0.88523 0.05998 0.13894 0.0
H343 H 0.82448 0.0101 0.13623 0.0
H344 H 0.91509 0.1294 0.13699 0.0
H345 H 0.92468 0.04115 0.09949 0.0
H346 H 0.91059 0.99944 0.07223 0.0
H347 H 0.94591 0.08522 0.03151 0.0
H348 H 0.96001 0.12744 0.05855 0.0
H349 H 0.09905 0.21509 0.1525 0.0
H350 H 0.03675 0.17216 0.14711 0.0
H351 H 0.04277 0.21522 0.0899 0.0
H352 H 0.10594 0.2584 0.09511 0.0
H353 H 0.00645 0.14339 0.08921 0.0
H354 H 1.00157 0.23242 0.12738 0.0
H355 H 0.01638 0.27355 0.155 0.0
H356 H 0.972 0.18577 0.19474 0.0
H357 H 0.95737 0.14412 0.16738 0.0
C358 C 0.83332 0.04469 0.09076 0.0
C359 C 0.81712 0.0212 0.10642 0.0
C360 C 0.86799 0.07336 0.09238 0.0
C361 C 0.88746 0.07898 0.1096 0.0
C362 C 0.8709 0.05622 0.12546 0.0
C363 C 0.83611 0.02767 0.12391 0.0
C364 C 0.92516 0.10823 0.11107 0.0
C365 C 0.93509 0.13221 0.12663 0.0
C366 C 0.95126 0.11268 0.09728 0.0
C367 C 0.94312 0.08739 0.08103 0.0
C368 C 0.92927 0.05108 0.08472 0.0
C369 C 0.92133 0.02736 0.06931 0.0
C370 C 0.92729 0.03967 0.05014 0.0
C371 C 0.9413 0.07574 0.04636 0.0
C372 C 0.94934 0.09958 0.06172 0.0
C373 C 0.08724 0.21576 0.13878 0.0
C374 C 0.10757 0.2405 0.12429 0.0
C375 C 0.05142 0.19116 0.13575 0.0
C376 C 0.03475 0.19071 0.11822 0.0
C377 C 0.05496 0.21513 0.10359 0.0
C378 C 0.09103 0.23991 0.10662 0.0
C379 C 0.99641 0.16425 0.11527 0.0
C380 C 0.98637 0.14079 0.09945 0.0
C381 C 0.97019 0.1602 0.12885 0.0
C382 C 0.97859 0.18516 0.14533 0.0
C383 C 0.99516 0.22189 0.14202 0.0
C384 C 0.0035 0.2453 0.15763 0.0
C385 C 0.99519 0.23228 0.17661 0.0
C386 C 0.97843 0.19582 0.18003 0.0
C387 C 0.97007 0.17229 0.16447 0.0
H388 H 1.0017 0.25045 0.18868 0.0
H389 H 0.92114 0.02128 0.03823 0.0
H390 H 0.75847 0.79423 0.63527 0.0
H391 H 0.7605 0.85143 0.63529 0.0
H392 H 0.84 0.88929 0.59018 0.0
H393 H 0.83741 0.83241 0.58971 0.0
H394 H 0.81088 0.91405 0.64427 0.0
H395 H 0.83722 0.9488 0.56133 0.0
H396 H 0.81854 0.91691 0.53007 0.0
H397 H 0.7242 0.83398 0.55684 0.0
H398 H 0.74189 0.86568 0.58816 0.0
H399 H 0.91628 0.09332 0.63221 0.0
H400 H 0.88902 0.02952 0.62872 0.0
H401 H 0.79804 0.02485 0.60107 0.0
H402 H 0.82612 0.08982 0.60404 0.0
H403 H 0.81418 0.97863 0.58418 0.0
H404 H 0.79365 1.00235 0.64828 0.0
H405 H 0.80867 0.03283 0.67993 0.0
H406 H 0.87976 0.99428 0.69198 0.0
H407 H 0.86603 0.96438 0.66012 0.0
C408 C 0.77613 0.81469 0.62525 0.0
C409 C 0.79775 0.80872 0.61249 0.0
C410 C 0.77726 0.84736 0.62527 0.0
C411 C 0.79997 0.87458 0.61251 0.0
C412 C 0.82154 0.86853 0.5998 0.0
C413 C 0.82025 0.83596 0.59969 0.0
C414 C 0.80332 0.91024 0.61324 0.0
C415 C 0.81119 0.92798 0.63115 0.0
C416 C 0.80255 0.92817 0.59621 0.0
C417 C 0.79105 0.90961 0.57717 0.0
C418 C 0.81232 0.92395 0.56053 0.0
C419 C 0.80192 0.90585 0.54279 0.0
C420 C 0.77025 0.8734 0.54148 0.0
C421 C 0.74877 0.85908 0.55788 0.0
C422 C 0.75898 0.87712 0.57563 0.0
C423 C 0.89051 0.07888 0.6253 0.0
C424 C 0.87309 0.09655 0.61866 0.0
C425 C 0.87489 0.04229 0.62335 0.0
C426 C 0.84103 0.02217 0.61512 0.0
C427 C 0.82406 0.0398 0.60765 0.0
C428 C 0.84006 0.07684 0.60935 0.0
C429 C 0.82368 0.98279 0.61505 0.0
C430 C 0.81313 0.96439 0.59731 0.0
C431 C 0.82097 0.96385 0.63232 0.0
C432 C 0.82884 0.98117 0.65173 0.0
C433 C 0.81262 1.00048 0.65762 0.0
C434 C 0.82091 0.01768 0.67562 0.0
C435 C 0.84506 0.01542 0.688 0.0
C436 C 0.86101 0.99597 0.68239 0.0
C437 C 0.85299 0.97889 0.66435 0.0
H438 H 0.85141 0.02876 0.70193 0.0
H439 H 0.76234 0.85936 0.52776 0.0
H440 H 0.00599 0.82836 0.0682 0.0
H441 H 0.95087 0.83001 0.06831 0.0
H442 H 0.92894 0.78815 0.12667 0.0
H443 H 0.98377 0.78575 0.12651 0.0
H444 H 0.86822 0.76325 0.10634 0.0
H445 H 0.97044 0.87614 0.11925 0.0
H446 H 0.03005 0.9275 0.11338 0.0
H447 H 0.99376 0.94957 0.06003 0.0
H448 H 0.93405 0.89792 0.06542 0.0
H449 H 0.77635 0.84753 0.14407 0.0
H450 H 0.81647 0.82535 0.13658 0.0
H451 H 0.82066 0.85638 0.07668 0.0
H452 H 0.78003 0.87825 0.08401 0.0
H453 H 0.88761 0.88404 0.09516 0.0
H454 H 0.78117 0.7719 0.08616 0.0
H455 H 0.72231 0.72233 0.09532 0.0
H456 H 0.76748 0.70135 0.14545 0.0
H457 H 0.82655 0.75116 0.13676 0.0
C458 C 0.9891 0.81887 0.08093 0.0
C459 C 0.99948 0.80745 0.09747 0.0
C460 C 0.95763 0.81989 0.08098 0.0
C461 C 0.93621 0.81 0.09767 0.0
C462 C 0.94515 0.79608 0.11367 0.0
C463 C 0.97653 0.79476 0.11356 0.0
C464 C 0.90653 0.81732 0.09909 0.0
C465 C 0.87246 0.78967 0.10398 0.0
C466 C 0.91201 0.85179 0.09591 0.0
C467 C 0.94789 0.88289 0.09261 0.0
C468 C 0.97525 0.89175 0.10617 0.0
C469 C 0.00905 0.92094 0.10295 0.0
C470 C 0.01571 0.94172 0.08631 0.0
C471 C 0.98858 0.93339 0.07288 0.0
C472 C 0.95475 0.90416 0.07601 0.0
C473 C 0.7853 0.84905 0.12922 0.0
C474 C 0.77515 0.8647 0.11464 0.0
C475 C 0.8081 0.83624 0.12496 0.0
C476 C 0.82143 0.83914 0.10607 0.0
C477 C 0.81051 0.85378 0.09133 0.0
C478 C 0.78722 0.86612 0.09552 0.0
C479 C 0.84928 0.82997 0.10227 0.0
C480 C 0.88319 0.85745 0.09714 0.0
C481 C 0.84374 0.79558 0.10566 0.0
C482 C 0.80827 0.76547 0.11088 0.0
C483 C 0.77852 0.75691 0.09923 0.0
C484 C 0.74512 0.72873 0.10432 0.0
C485 C 0.74115 0.70875 0.12098 0.0
C486 C 0.77059 0.71686 0.13256 0.0
C487 C 0.80405 0.74504 0.12754 0.0
H488 H 0.71526 0.68694 0.1249 0.0
H489 H 0.04188 0.96433 0.08385 0.0
H490 H 0.88841 0.75082 0.59231 0.0
H491 H 0.9509 0.79195 0.58468 0.0
H492 H 0.97284 0.81677 0.64563 0.0
H493 H 0.91084 0.7756 0.65335 0.0
H494 H 0.98385 0.8614 0.59046 0.0
H495 H 0.05758 0.84302 0.65609 0.0
H496 H 0.05341 0.79433 0.67621 0.0
H497 H 1.00019 0.72063 0.62973 0.0
H498 H 0.00449 0.76893 0.60922 0.0
H499 H 0.1341 0.01837 0.61923 0.0
H500 H 0.07894 0.9621 0.61616 0.0
H501 H 0.13707 0.91167 0.59726 0.0
H502 H 0.19289 0.96821 0.6006 0.0
H503 H 0.08948 0.87257 0.62419 0.0
H504 H 0.08137 0.9214 0.563 0.0
H505 H 0.08463 0.96748 0.54085 0.0
H506 H 0.00699 0.97569 0.57524 0.0
H507 H 0.00324 0.92961 0.59752 0.0
C508 C 0.90673 0.76444 0.60411 0.0
C509 C 0.89464 0.76015 0.62342 0.0
C510 C 0.9424 0.78801 0.59973 0.0
C511 C 0.96661 0.80734 0.61458 0.0
C512 C 0.95484 0.80178 0.63394 0.0
C513 C 0.91926 0.77837 0.63832 0.0
C514 C 0.0031 0.83612 0.60987 0.0
C515 C 0.00699 0.86356 0.59764 0.0
C516 C 0.03343 0.83879 0.61899 0.0
C517 C 0.0312 0.80963 0.63115 0.0
C518 C 0.04519 0.81648 0.6501 0.0
C519 C 0.04275 0.78892 0.66159 0.0
C520 C 0.02648 0.7544 0.65427 0.0
C521 C 0.01269 0.74737 0.63541 0.0
C522 C 0.01508 0.77482 0.62386 0.0
C523 C 0.13529 0.99542 0.61433 0.0
C524 C 0.16797 0.99779 0.61026 0.0
C525 C 0.1036 0.96325 0.61239 0.0
C526 C 0.10374 0.93272 0.60616 0.0
C527 C 0.13631 0.93493 0.60201 0.0
C528 C 0.16817 0.96722 0.60397 0.0
C529 C 0.06989 0.89827 0.60534 0.0
C530 C 0.06646 0.86992 0.61664 0.0
C531 C 0.03997 0.89447 0.59518 0.0
C532 C 0.04233 0.92238 0.58198 0.0
C533 C 0.06523 0.93327 0.56588 0.0
C534 C 0.06706 0.95927 0.55328 0.0
C535 C 0.04618 0.97463 0.55669 0.0
C536 C 0.02322 0.96383 0.57263 0.0
C537 C 0.02112 0.93768 0.5852 0.0
H538 H 0.04771 0.99482 0.54695 0.0
H539 H 0.0246 0.73311 0.66319 0.0
H540 H 0.08203 0.85393 0.39729 0.0
H541 H 0.01857 0.83215 0.40181 0.0
H542 H 0.00926 0.85136 0.34116 0.0
H543 H 0.07232 0.87359 0.33663 0.0
H544 H 0.97636 0.87573 0.3626 0.0
H545 H 0.97881 0.76687 0.35941 0.0
H546 H 0.99785 0.72462 0.36904 0.0
H547 H 0.95782 0.71951 0.4267 0.0
H548 H 0.93895 0.76213 0.41748 0.0
H549 H 0.79095 0.78432 0.35192 0.0
H550 H 0.85149 0.795 0.34875 0.0
H551 H 0.85845 0.7889 0.41102 0.0
H552 H 0.79796 0.77832 0.4143 0.0
H553 H 0.89204 0.7575 0.39012 0.0
H554 H 0.88672 0.86444 0.39223 0.0
H555 H 0.86412 0.90306 0.38139 0.0
H556 H 0.91011 0.91212 0.32501 0.0
H557 H 0.93144 0.87191 0.33518 0.0
C558 C 0.06638 0.85329 0.38491 0.0
C559 C 0.08226 0.86546 0.3666 0.0
C560 C 0.03009 0.84076 0.3875 0.0
C561 C 0.00903 0.83988 0.37178 0.0
C562 C 0.0249 0.85184 0.35351 0.0
C563 C 0.06103 0.86444 0.35094 0.0
C564 C 0.9706 0.82728 0.37426 0.0
C565 C 0.95791 0.8497 0.3684 0.0
C566 C 0.94656 0.79364 0.38225 0.0
C567 C 0.95783 0.76798 0.38782 0.0
C568 C 0.97433 0.75696 0.37419 0.0
C569 C 0.98504 0.73291 0.37957 0.0
C570 C 0.97915 0.71947 0.39849 0.0
C571 C 0.96243 0.72999 0.41206 0.0
C572 C 0.9517 0.75407 0.40677 0.0
C573 C 0.80508 0.78446 0.3649 0.0
C574 C 0.78998 0.78096 0.38339 0.0
C575 C 0.83967 0.79064 0.36307 0.0
C576 C 0.85954 0.79318 0.37969 0.0
C577 C 0.84358 0.78715 0.39805 0.0
C578 C 0.80917 0.78136 0.3999 0.0
C579 C 0.89796 0.80569 0.3781 0.0
C580 C 0.9106 0.78346 0.38427 0.0
C581 C 0.922 0.83948 0.37034 0.0
C582 C 0.91034 0.86476 0.36441 0.0
C583 C 0.89176 0.87436 0.37746 0.0
C584 C 0.87917 0.89657 0.37144 0.0
C585 C 0.88582 0.91021 0.35256 0.0
C586 C 0.90497 0.90153 0.33964 0.0
C587 C 0.91718 0.87887 0.34549 0.0
H588 H 0.87614 0.9275 0.34795 0.0
H589 H 0.98745 0.70085 0.40262 0.0
H590 H 0.03977 0.80831 0.91739 0.0
H591 H 0.09127 0.86784 0.91413 0.0
H592 H 0.05543 0.8772 0.85716 0.0
H593 H 0.00429 0.81728 0.86013 0.0
H594 H 0.12486 0.90512 0.85682 0.0
H595 H 0.04208 0.91574 0.89894 0.0
H596 H 0.00344 0.90147 0.92768 0.0
H597 H 0.09302 0.93302 0.96527 0.0
H598 H 0.13217 0.94725 0.93671 0.0
H599 H 0.21018 0.08982 0.84391 0.0
H600 H 0.16874 0.02696 0.84873 0.0
H601 H 0.21667 0.03116 0.90425 0.0
H602 H 0.25815 0.09486 0.89967 0.0
H603 H 0.14585 0.99519 0.90706 0.0
H604 H 0.22973 0.99062 0.86443 0.0
H605 H 0.2679 0.00579 0.83544 0.0
H606 H 0.17612 0.96301 0.79853 0.0
H607 H 0.13741 0.94805 0.8273 0.0
C608 C 0.04293 0.82294 0.9041 0.0
C609 C 0.01773 0.80808 0.88907 0.0
C610 C 0.07236 0.8571 0.9023 0.0
C611 C 0.07701 0.87743 0.88554 0.0
C612 C 0.05247 0.86218 0.87026 0.0
C613 C 0.02317 0.82787 0.87198 0.0
C614 C 0.1069 0.91479 0.88405 0.0
C615 C 0.12923 0.92487 0.86772 0.0
C616 C 0.11341 0.94048 0.89854 0.0
C617 C 0.08997 0.93224 0.9157 0.0
C618 C 0.05349 0.91944 0.91334 0.0
C619 C 0.03151 0.9114 0.92959 0.0
C620 C 0.04575 0.91625 0.94829 0.0
C621 C 0.08202 0.92925 0.95077 0.0
C622 C 0.10413 0.93737 0.93456 0.0
C623 C 0.21225 0.07747 0.85712 0.0
C624 C 0.23764 0.09749 0.8714 0.0
C625 C 0.18854 0.04132 0.8598 0.0
C626 C 0.18978 0.02403 0.87673 0.0
C627 C 0.21525 0.04384 0.89102 0.0
C628 C 0.23905 0.08021 0.88835 0.0
C629 C 0.16347 0.98567 0.87966 0.0
C630 C 0.14177 0.97539 0.89625 0.0
C631 C 0.1575 0.95981 0.86539 0.0
C632 C 0.18068 0.96842 0.84804 0.0
C633 C 0.21769 0.98464 0.85013 0.0
C634 C 0.23943 0.99318 0.83373 0.0
C635 C 0.22445 0.98543 0.81515 0.0
C636 C 0.18769 0.96902 0.81293 0.0
C637 C 0.16583 0.96045 0.82928 0.0
H638 H 0.24132 0.99208 0.80248 0.0
H639 H 0.0287 0.91002 0.96086 0.0
H640 H 0.16868 0.24494 0.38327 0.0
H641 H 0.19274 0.20529 0.38269 0.0
H642 H 0.15096 0.17119 0.32483 0.0
H643 H 0.12489 0.20908 0.32591 0.0
H644 H 0.13119 0.11683 0.34607 0.0
H645 H 0.24325 0.2205 0.33535 0.0
H646 H 0.29241 0.28147 0.34085 0.0
H647 H 0.30934 0.25231 0.39775 0.0
H648 H 0.25994 0.19126 0.39272 0.0
H649 H 0.20065 1.00198 0.34029 0.0
H650 H 0.19988 0.05663 0.33357 0.0
H651 H 0.20767 0.07951 0.39495 0.0
H652 H 0.20792 0.02463 0.40186 0.0
H653 H 0.24952 0.14123 0.3684 0.0
H654 H 0.13119 0.0405 0.37986 0.0
H655 H 0.08291 0.97928 0.3738 0.0
H656 H 0.07961 0.00455 0.31378 0.0
H657 H 0.12835 0.06582 0.31944 0.0
C658 C 0.16516 0.22949 0.37028 0.0
C659 C 0.14494 0.23024 0.35457 0.0
C660 C 0.17924 0.20701 0.36989 0.0
C661 C 0.17399 0.18542 0.35363 0.0
C662 C 0.15544 0.18762 0.33753 0.0
C663 C 0.14083 0.20959 0.33806 0.0
C664 C 0.18394 0.15758 0.3544 0.0
C665 C 0.15739 0.12248 0.35049 0.0
C666 C 0.21785 0.16463 0.36061 0.0
C667 C 0.24768 0.20132 0.36369 0.0
C668 C 0.25727 0.22714 0.3491 0.0
C669 C 0.28522 0.26171 0.35212 0.0
C670 C 0.30394 0.27078 0.36965 0.0
C671 C 0.29481 0.24525 0.38418 0.0
C672 C 0.26686 0.21064 0.38123 0.0
C673 C 0.20286 0.01897 0.35233 0.0
C674 C 0.20389 0.0089 0.37161 0.0
C675 C 0.20252 0.05016 0.34846 0.0
C676 C 0.20365 0.07187 0.36379 0.0
C677 C 0.20696 0.06307 0.38296 0.0
C678 C 0.20678 0.03162 0.38687 0.0
C679 C 0.19681 0.10115 0.36008 0.0
C680 C 0.22371 0.13615 0.36358 0.0
C681 C 0.16335 0.09421 0.35336 0.0
C682 C 0.13368 0.05758 0.35001 0.0
C683 C 0.12038 0.03291 0.36533 0.0
C684 C 0.0929 0.99822 0.36198 0.0
C685 C 0.07828 0.98799 0.3434 0.0
C686 C 0.09102 0.01249 0.32816 0.0
C687 C 0.11856 0.04719 0.33143 0.0
H688 H 0.05701 0.96112 0.34083 0.0
H689 H 0.32556 0.29756 0.37197 0.0
H690 H 0.216 0.22809 0.86148 0.0
H691 H 0.15787 0.2238 0.86279 0.0
H692 H 0.14249 0.18221 0.9211 0.0
H693 H 0.20023 0.18627 0.91992 0.0
H694 H 0.08863 0.13972 0.89722 0.0
H695 H 0.15269 0.26247 0.91366 0.0
H696 H 0.19876 0.32533 0.91013 0.0
H697 H 0.15545 0.32953 0.85481 0.0
H698 H 0.1094 0.2665 0.85786 0.0
H699 H 0.91999 0.12311 0.90834 0.0
H700 H 0.98272 0.14341 0.9139 0.0
H701 H 0.00778 0.18808 0.85619 0.0
H702 H 0.94523 0.16818 0.85055 0.0
H703 H 0.05728 0.23187 0.88276 0.0
H704 H 0.00534 0.10886 0.8626 0.0
H705 H 0.96306 0.04458 0.86334 0.0
H706 H 0.98445 0.0415 0.92404 0.0
H707 H 0.02782 0.10578 0.92345 0.0
C708 C 0.20045 0.21857 0.87468 0.0
C709 C 0.21246 0.20709 0.89049 0.0
C710 C 0.16737 0.21632 0.87545 0.0
C711 C 0.14596 0.20274 0.89207 0.0
C712 C 0.15861 0.19272 0.90815 0.0
C713 C 0.19159 0.19498 0.9074 0.0
C714 C 0.10895 0.19532 0.89193 0.0
C715 C 0.08185 0.16007 0.89451 0.0
C716 C 0.10014 0.22168 0.88781 0.0
C717 C 0.12775 0.25963 0.88592 0.0
C718 C 0.15316 0.27669 0.90066 0.0
C719 C 0.17924 0.31238 0.89876 0.0
C720 C 0.18008 0.33139 0.88223 0.0
C721 C 0.15478 0.31476 0.86759 0.0
C722 C 0.12865 0.27906 0.86941 0.0
C723 C 0.93888 0.13754 0.8969 0.0
C724 C 0.92761 0.14379 0.87894 0.0
C725 C 0.97468 0.14901 0.90007 0.0
C726 C 0.99979 0.16688 0.88537 0.0
C727 C 0.98881 0.17432 0.86772 0.0
C728 C 0.95302 0.16278 0.8645 0.0
C729 C 0.0372 0.17631 0.888 0.0
C730 C 0.06426 0.21178 0.88582 0.0
C731 C 0.0462 0.15021 0.89236 0.0
C732 C 0.01934 0.11203 0.89304 0.0
C733 C 1.00076 0.09448 0.87613 0.0
C734 C 0.97672 0.05804 0.87651 0.0
C735 C 0.97068 0.03898 0.89378 0.0
C736 C 0.98901 0.05631 0.91068 0.0
C737 C 0.0135 0.0927 0.91031 0.0
H738 H 0.95197 0.01076 0.89404 0.0
H739 H 0.20029 0.35903 0.88079 0.0
H740 H 1.00128 0.17305 0.35297 0.0
H741 H 0.95141 0.11242 0.35014 0.0
H742 H 0.90664 0.12592 0.40313 0.0
H743 H 0.95674 0.18624 0.40626 0.0
H744 H 0.90619 0.06485 0.40365 0.0
H745 H 0.87006 0.12396 0.35855 0.0
H746 H 0.87661 0.16232 0.33068 0.0
H747 H 0.89164 0.09327 0.29244 0.0
H748 H 0.88567 0.05473 0.32012 0.0
H749 H 0.74535 0.89923 0.39422 0.0
H750 H 0.78776 0.96286 0.39713 0.0
H751 H 0.83795 0.95986 0.34369 0.0
H752 H 0.79548 0.89674 0.34051 0.0
H753 H 0.83245 0.01693 0.34431 0.0
H754 H 0.87471 0.96176 0.38946 0.0
H755 H 0.87012 0.92375 0.41724 0.0
H756 H 0.84484 0.98604 0.45514 0.0
H757 H 0.84883 0.02402 0.42753 0.0
C758 C 0.98066 0.16325 0.36393 0.0
C759 C 0.98295 0.18462 0.3798 0.0
C760 C 0.95206 0.12859 0.36225 0.0
C761 C 0.92503 0.11466 0.37633 0.0
C762 C 0.9271 0.13607 0.39207 0.0
C763 C 0.95569 0.17068 0.39377 0.0
C764 C 0.89542 0.07731 0.37506 0.0
C765 C 0.88965 0.05454 0.3908 0.0
C766 C 0.8743 0.06359 0.35815 0.0
C767 C 0.87772 0.08662 0.34145 0.0
C768 C 0.87502 0.11709 0.34422 0.0
C769 C 0.87859 0.13885 0.32845 0.0
C770 C 0.88462 0.13028 0.30981 0.0
C771 C 0.887 0.09989 0.30689 0.0
C772 C 0.88349 0.07806 0.32261 0.0
C773 C 0.76531 0.91219 0.38304 0.0
C774 C 0.76704 0.89285 0.36715 0.0
C775 C 0.78968 0.94853 0.38478 0.0
C776 C 0.81644 0.96613 0.37078 0.0
C777 C 0.81764 0.94695 0.35471 0.0
C778 C 0.79329 0.91076 0.35292 0.0
C779 C 0.84349 0.00438 0.37281 0.0
C780 C 0.84879 0.02733 0.35722 0.0
C781 C 0.86427 0.01826 0.38983 0.0
C782 C 0.8616 0.99535 0.40641 0.0
C783 C 0.8678 0.96702 0.40369 0.0
C784 C 0.86539 0.94558 0.4194 0.0
C785 C 0.85708 0.95243 0.43792 0.0
C786 C 0.8512 0.98073 0.44077 0.0
C787 C 0.85355 1.00222 0.42511 0.0
H788 H 0.85536 0.93592 0.45008 0.0
H789 H 0.88738 0.14717 0.29762 0.0
H790 H 0.85662 0.76484 0.90726 0.0
H791 H 0.83148 0.80361 0.91122 0.0
H792 H 0.83433 0.81797 0.84905 0.0
H793 H 0.85995 0.78004 0.84505 0.0
H794 H 0.86295 0.87965 0.86646 0.0
H795 H 0.75552 0.76747 0.87475 0.0
H796 H 0.71709 0.70878 0.88952 0.0
H797 H 0.72686 0.75765 0.94512 0.0
H798 H 0.76575 0.81662 0.93072 0.0
H799 H 0.77841 0.97752 0.85867 0.0
H800 H 0.78551 0.92558 0.85614 0.0
H801 H 0.78189 0.91622 0.91866 0.0
H802 H 0.77275 0.96705 0.92117 0.0
H803 H 0.75326 0.8517 0.90236 0.0
H804 H 0.86062 0.96407 0.89365 0.0
H805 H 0.89464 0.02266 0.87804 0.0
H806 H 0.8849 0.97279 0.82277 0.0
H807 H 0.84972 0.91385 0.83794 0.0
C808 C 0.85141 0.77589 0.89443 0.0
C809 C 0.86049 0.7695 0.87585 0.0
C810 C 0.83696 0.798 0.89671 0.0
C811 C 0.83092 0.81375 0.88042 0.0
C812 C 0.83891 0.80636 0.86185 0.0
C813 C 0.85351 0.78456 0.85959 0.0
C814 C 0.81837 0.83962 0.8826 0.0
C815 C 0.83871 0.87327 0.87411 0.0
C816 C 0.78727 0.83184 0.89303 0.0
C817 C 0.76385 0.79643 0.9017 0.0
C818 C 0.74971 0.76568 0.89016 0.0
C819 C 0.7278 0.73236 0.89846 0.0
C820 C 0.71962 0.72948 0.91825 0.0
C821 C 0.73326 0.75992 0.92979 0.0
C822 C 0.75521 0.79329 0.92157 0.0
C823 C 0.77828 0.96385 0.87183 0.0
C824 C 0.7754 0.9765 0.89011 0.0
C825 C 0.78247 0.93424 0.8704 0.0
C826 C 0.78533 0.91759 0.88724 0.0
C827 C 0.78001 0.92872 0.90546 0.0
C828 C 0.77485 0.95782 0.90688 0.0
C829 C 0.7975 0.8913 0.88589 0.0
C830 C 0.77742 0.85789 0.89468 0.0
C831 C 0.82893 0.89922 0.87576 0.0
C832 C 0.85225 0.93455 0.8669 0.0
C833 C 0.86568 0.96559 0.87816 0.0
C834 C 0.885 0.99886 0.86937 0.0
C835 C 0.89179 1.00143 0.84941 0.0
C836 C 0.87951 0.97074 0.83822 0.0
C837 C 0.85981 0.93739 0.8469 0.0
H838 H 0.9067 0.02723 0.84262 0.0
H839 H 0.70265 0.70366 0.92465 0.0
H840 H 0.12393 0.66824 0.11612 0.0
H841 H 0.11221 0.60734 0.11574 0.0
H842 H 0.17687 0.63028 0.06434 0.0
H843 H 0.18819 0.69107 0.06439 0.0
H844 H 0.11839 0.56524 0.06214 0.0
H845 H 0.21112 0.63175 0.10797 0.0
H846 H 0.23925 0.67125 0.13606 0.0
H847 H 0.15786 0.5953 0.17367 0.0
H848 H 0.12883 0.5556 0.14572 0.0
H849 H 0.17927 0.44204 0.07248 0.0
H850 H 0.16926 0.4918 0.06827 0.0
H851 H 0.09732 0.45535 0.11703 0.0
H852 H 0.10711 0.40531 0.12136 0.0
H853 H 0.15357 0.52435 0.12085 0.0
H854 H 0.06555 0.45464 0.0731 0.0
H855 H 0.04217 0.41691 0.04396 0.0
H856 H 0.12122 0.50065 0.00872 0.0
H857 H 0.14542 0.53873 0.0377 0.0
C858 C 0.13548 0.66028 0.10467 0.0
C859 C 0.15729 0.68453 0.0904 0.0
C860 C 0.12875 0.62549 0.10447 0.0
C861 C 0.14404 0.61449 0.09014 0.0
C862 C 0.16482 0.63828 0.0755 0.0
C863 C 0.17141 0.67304 0.07563 0.0
C864 C 0.14004 0.57884 0.09107 0.0
C865 C 0.12624 0.5563 0.07491 0.0
C866 C 0.14999 0.56719 0.10784 0.0
C867 C 0.16756 0.59088 0.12471 0.0
C868 C 0.19905 0.62359 0.1222 0.0
C869 C 0.21519 0.646 0.1381 0.0
C870 C 0.20032 0.63582 0.15662 0.0
C871 C 0.16931 0.60317 0.1593 0.0
C872 C 0.153 0.58071 0.14344 0.0
C873 C 0.16065 0.4441 0.08203 0.0
C874 C 0.14424 0.41998 0.09738 0.0
C875 C 0.15484 0.47247 0.07954 0.0
C876 C 0.13258 0.47719 0.09236 0.0
C877 C 0.11457 0.45204 0.10699 0.0
C878 C 0.12012 0.42344 0.10939 0.0
C879 C 0.13177 0.51059 0.09194 0.0
C880 C 0.14506 0.53295 0.10819 0.0
C881 C 0.12206 0.52226 0.0751 0.0
C882 C 0.10746 0.49946 0.05762 0.0
C883 C 0.07814 0.46492 0.05917 0.0
C884 C 0.0647 0.44349 0.04267 0.0
C885 C 0.08024 0.45635 0.02451 0.0
C886 C 0.10922 0.49071 0.0228 0.0
C887 C 0.12277 0.51225 0.03926 0.0
H888 H 0.0698 0.43971 0.01175 0.0
H889 H 0.21286 0.6532 0.16892 0.0
H890 H 0.71794 0.18199 0.64601 0.0
H891 H 0.656 0.16339 0.63973 0.0
H892 H 0.66669 0.13652 0.58074 0.0
H893 H 0.72906 0.15547 0.58686 0.0
H894 H 0.63849 0.17939 0.5825 0.0
H895 H 0.61594 0.07163 0.61294 0.0
H896 H 0.62149 0.03495 0.63838 0.0
H897 H 0.57705 0.07433 0.6804 0.0
H898 H 0.5717 0.11164 0.65528 0.0
H899 H 0.4583 0.12466 0.56404 0.0
H900 H 0.51289 0.12237 0.56736 0.0
H901 H 0.51597 0.14485 0.62865 0.0
H902 H 0.46102 0.14631 0.62555 0.0
H903 H 0.53533 0.09717 0.62295 0.0
H904 H 0.56628 0.21056 0.59511 0.0
H905 H 0.5635 0.25108 0.57112 0.0
H906 H 0.59432 0.20444 0.52579 0.0
H907 H 0.59691 0.16338 0.5495 0.0
C908 C 0.70703 0.17162 0.63177 0.0
C909 C 0.72847 0.17035 0.6169 0.0
C910 C 0.67152 0.1608 0.62824 0.0
C911 C 0.65665 0.14834 0.60981 0.0
C912 C 0.67765 0.14597 0.59509 0.0
C913 C 0.71323 0.15669 0.59863 0.0
C914 C 0.62018 0.14083 0.60558 0.0
C915 C 0.61574 0.16076 0.59103 0.0
C916 C 0.59076 0.1173 0.6171 0.0
C917 C 0.59362 0.09461 0.63222 0.0
C918 C 0.60756 0.07265 0.62763 0.0
C919 C 0.61064 0.05171 0.64199 0.0
C920 C 0.59968 0.05235 0.661 0.0
C921 C 0.58553 0.07386 0.66567 0.0
C922 C 0.58242 0.09487 0.65136 0.0
C923 C 0.47044 0.12882 0.57826 0.0
C924 C 0.45546 0.13594 0.5945 0.0
C925 C 0.50171 0.12761 0.58012 0.0
C926 C 0.51885 0.134 0.5982 0.0
C927 C 0.50325 0.13987 0.61455 0.0
C928 C 0.47186 0.14079 0.61274 0.0
C929 C 0.55376 0.13609 0.60004 0.0
C930 C 0.55794 0.11526 0.61417 0.0
C931 C 0.58311 0.15913 0.5883 0.0
C932 C 0.58135 0.18362 0.57402 0.0
C933 C 0.57217 0.20876 0.57999 0.0
C934 C 0.5707 0.23186 0.56646 0.0
C935 C 0.57861 0.23025 0.54693 0.0
C936 C 0.58812 0.2056 0.54091 0.0
C937 C 0.58961 0.18243 0.55439 0.0
H938 H 0.57747 0.24817 0.53647 0.0
H939 H 0.60211 0.03614 0.6721 0.0
H940 H 0.55321 0.74744 0.08243 0.0
H941 H 0.49947 0.68918 0.07918 0.0
H942 H 0.52728 0.65362 0.1312 0.0
H943 H 0.58075 0.71186 0.1347 0.0
H944 H 0.50103 0.60222 0.10174 0.0
H945 H 0.46966 0.67719 0.13544 0.0
H946 H 0.46476 0.73002 0.14197 0.0
H947 H 0.40236 0.71019 0.09028 0.0
H948 H 0.40757 0.65757 0.08315 0.0
H949 H 0.32648 0.45472 0.12245 0.0
H950 H 0.38416 0.50962 0.12484 0.0
H951 H 0.36072 0.54897 0.07279 0.0
H952 H 0.30346 0.49438 0.07019 0.0
H953 H 0.38524 0.59788 0.10322 0.0
H954 H 0.41791 0.52082 0.07042 0.0
H955 H 0.42149 0.46657 0.06654 0.0
H956 H 0.47996 0.48915 0.11994 0.0
H957 H 0.47629 0.5433 0.12428 0.0
C958 C 0.54819 0.72706 0.093 0.0
C959 C 0.57123 0.73432 0.10885 0.0
C960 C 0.51737 0.69384 0.09119 0.0
C961 C 0.50922 0.66715 0.10505 0.0
C962 C 0.53302 0.67381 0.12035 0.0
C963 C 0.56354 0.70715 0.12234 0.0
C964 C 0.4751 0.63294 0.10408 0.0
C965 C 0.4757 0.60122 0.10225 0.0
C966 C 0.44204 0.63164 0.10469 0.0
C967 C 0.43947 0.66371 0.1086 0.0
C968 C 0.45534 0.68436 0.12529 0.0
C969 C 0.45243 0.71421 0.12913 0.0
C970 C 0.43339 0.7235 0.1165 0.0
C971 C 0.41722 0.70299 0.09999 0.0
C972 C 0.42018 0.67317 0.09604 0.0
C973 C 0.33372 0.47499 0.11146 0.0
C974 C 0.31034 0.47011 0.09612 0.0
C975 C 0.36671 0.5063 0.11282 0.0
C976 C 0.37677 0.53336 0.09895 0.0
C977 C 0.3535 0.52848 0.08365 0.0
C978 C 0.32079 0.49714 0.08216 0.0
C979 C 0.41114 0.5672 0.10054 0.0
C980 C 0.41057 0.59889 0.10259 0.0
C981 C 0.44415 0.56837 0.1004 0.0
C982 C 0.4465 0.53591 0.09778 0.0
C983 C 0.43126 0.51405 0.08142 0.0
C984 C 0.43336 0.48336 0.07913 0.0
C985 C 0.45085 0.47437 0.09302 0.0
C986 C 0.46637 0.49612 0.10921 0.0
C987 C 0.46432 0.52683 0.11159 0.0
H988 H 0.45245 0.45059 0.09121 0.0
H989 H 0.43104 0.74648 0.11959 0.0
H990 H 0.84559 0.5623 0.6369 0.0
H991 H 0.85472 0.51265 0.62994 0.0
H992 H 0.81376 0.50504 0.57198 0.0
H993 H 0.80464 0.55502 0.57883 0.0
H994 H 0.78126 0.4413 0.59152 0.0
H995 H 0.89965 0.53264 0.57772 0.0
H996 H 0.95653 0.58751 0.58369 0.0
H997 H 0.97335 0.54114 0.63467 0.0
H998 H 0.9163 0.48615 0.62917 0.0
H999 H 0.81292 0.30174 0.56649 0.0
H1000 H 0.81373 0.3581 0.56653 0.0
H1001 H 0.86281 0.38234 0.62319 0.0
H1002 H 0.86263 0.32628 0.62313 0.0
H1003 H 0.89301 0.43951 0.60079 0.0
H1004 H 0.77392 0.35089 0.61689 0.0
H1005 H 0.71573 0.29662 0.61283 0.0
H1006 H 0.69841 0.33805 0.55999 0.0
H1007 H 0.75683 0.39233 0.56353 0.0
C1008 C 0.83906 0.55047 0.62255 0.0
C1009 C 0.82437 0.56257 0.60842 0.0
C1010 C 0.84443 0.52216 0.61857 0.0
C1011 C 0.83509 0.50524 0.60041 0.0
C1012 C 0.82126 0.51782 0.58607 0.0
C1013 C 0.81624 0.54648 0.58997 0.0
C1014 C 0.83726 0.47278 0.59708 0.0
C1015 C 0.80579 0.44095 0.59316 0.0
C1016 C 0.86915 0.47231 0.59975 0.0
C1017 C 0.90352 0.50535 0.60311 0.0
C1018 C 0.91532 0.53424 0.5903 0.0
C1019 C 0.94763 0.56535 0.59358 0.0
C1020 C 0.96851 0.56784 0.60957 0.0
C1021 C 0.95714 0.53918 0.6223 0.0
C1022 C 0.92483 0.50802 0.61909 0.0
C1023 C 0.82406 0.31912 0.57893 0.0
C1024 C 0.83758 0.30939 0.59485 0.0
C1025 C 0.82435 0.35129 0.57897 0.0
C1026 C 0.83788 0.37429 0.59498 0.0
C1027 C 0.85217 0.36503 0.61068 0.0
C1028 C 0.85199 0.3329 0.61064 0.0
C1029 C 0.83681 0.4078 0.59553 0.0
C1030 C 0.86849 0.43982 0.59895 0.0
C1031 C 0.80496 0.40839 0.59265 0.0
C1032 C 0.77005 0.37547 0.59032 0.0
C1033 C 0.75793 0.34826 0.60427 0.0
C1034 C 0.72485 0.31752 0.60209 0.0
C1035 C 0.70345 0.31382 0.58612 0.0
C1036 C 0.71507 0.34089 0.57232 0.0
C1037 C 0.74818 0.37164 0.57439 0.0
H1038 H 0.67782 0.29003 0.58448 0.0
H1039 H 0.99352 0.59194 0.61209 0.0
H1040 H 0.5578 0.88565 0.07078 0.0
H1041 H 0.50028 0.8818 0.07538 0.0
H1042 H 0.49568 0.84519 0.13411 0.0
H1043 H 0.55341 0.84954 0.12975 0.0
H1044 H 0.43558 0.80092 0.11039 0.0
H1045 H 0.50748 0.92374 0.12849 0.0
H1046 H 0.55458 0.98588 0.12364 0.0
H1047 H 0.50171 0.99231 0.07249 0.0
H1048 H 0.45452 0.93 0.07687 0.0
H1049 H 0.27936 0.79166 0.14325 0.0
H1050 H 0.34151 0.80831 0.14022 0.0
H1051 H 0.34821 0.85977 0.08556 0.0
H1052 H 0.28588 0.84367 0.08867 0.0
H1053 H 0.4079 0.89778 0.1061 0.0
H1054 H 0.33701 0.77705 0.08685 0.0
H1055 H 0.29064 0.71405 0.08923 0.0
H1056 H 0.34194 0.70195 0.13949 0.0
H1057 H 0.38817 0.7651 0.1377 0.0
C1058 C 0.54483 0.87739 0.08479 0.0
C1059 C 0.56015 0.8679 0.0999 0.0
C1060 C 0.51202 0.87527 0.0874 0.0
C1061 C 0.49377 0.86323 0.10509 0.0
C1062 C 0.50941 0.85462 0.12036 0.0
C1063 C 0.54247 0.85729 0.11787 0.0
C1064 C 0.45723 0.85703 0.10718 0.0
C1065 C 0.42952 0.8221 0.10985 0.0
C1066 C 0.44935 0.88461 0.10552 0.0
C1067 C 0.47766 0.92208 0.10289 0.0
C1068 C 0.50606 0.93829 0.1161 0.0
C1069 C 0.53274 0.97357 0.11346 0.0
C1070 C 0.5312 0.993 0.09774 0.0
C1071 C 0.50291 0.97721 0.08464 0.0
C1072 C 0.47617 0.94192 0.08721 0.0
C1073 C 0.29407 0.80681 0.13065 0.0
C1074 C 0.27754 0.81605 0.11611 0.0
C1075 C 0.32962 0.8162 0.1289 0.0
C1076 C 0.34937 0.83466 0.11246 0.0
C1077 C 0.33345 0.84535 0.09832 0.0
C1078 C 0.29782 0.83612 0.10012 0.0
C1079 C 0.38614 0.84155 0.10981 0.0
C1080 C 0.41387 0.87651 0.10684 0.0
C1081 C 0.39407 0.81386 0.11091 0.0
C1082 C 0.36589 0.77596 0.11225 0.0
C1083 C 0.33819 0.76108 0.09855 0.0
C1084 C 0.31195 0.72531 0.09978 0.0
C1085 C 0.31331 0.70402 0.11452 0.0
C1086 C 0.34088 0.71848 0.1281 0.0
C1087 C 0.36708 0.75428 0.127 0.0
H1088 H 0.29306 0.67631 0.11539 0.0
H1089 H 0.55187 0.02031 0.09572 0.0
H1090 H 0.68903 0.53653 0.62835 0.0
H1091 H 0.63601 0.47783 0.63068 0.0
H1092 H 0.60656 0.48813 0.57225 0.0
H1093 H 0.66007 0.54684 0.56963 0.0
H1094 H 0.54877 0.45891 0.60089 0.0
H1095 H 0.64153 0.44193 0.57583 0.0
H1096 H 0.70066 0.44768 0.57456 0.0
H1097 H 0.68255 0.3968 0.63018 0.0
H1098 H 0.62354 0.39134 0.63197 0.0
H1099 H 0.42477 0.27232 0.58783 0.0
H1100 H 0.47141 0.33446 0.58405 0.0
H1101 H 0.51845 0.32916 0.63817 0.0
H1102 H 0.47226 0.26729 0.64202 0.0
H1103 H 0.56689 0.3563 0.60939 0.0
H1104 H 0.47513 0.37475 0.63507 0.0
H1105 H 0.41564 0.36813 0.63641 0.0
H1106 H 0.43146 0.41544 0.57986 0.0
H1107 H 0.4909 0.42189 0.57806 0.0
C1108 C 0.67108 0.52658 0.61607 0.0
C1109 C 0.6788 0.54627 0.59876 0.0
C1110 C 0.64088 0.49297 0.61741 0.0
C1111 C 0.61761 0.47862 0.60158 0.0
C1112 C 0.62429 0.4988 0.5846 0.0
C1113 C 0.65486 0.53225 0.58312 0.0
C1114 C 0.58719 0.44191 0.60262 0.0
C1115 C 0.55261 0.43635 0.60246 0.0
C1116 C 0.59241 0.41269 0.60499 0.0
C1117 C 0.62824 0.41663 0.60414 0.0
C1118 C 0.65032 0.4324 0.58792 0.0
C1119 C 0.68379 0.43551 0.58708 0.0
C1120 C 0.69537 0.42269 0.6023 0.0
C1121 C 0.67355 0.40678 0.61841 0.0
C1122 C 0.6401 0.40368 0.61935 0.0
C1123 C 0.4448 0.28453 0.59904 0.0
C1124 C 0.44487 0.26478 0.61519 0.0
C1125 C 0.47139 0.32006 0.59687 0.0
C1126 C 0.49842 0.33644 0.61083 0.0
C1127 C 0.49795 0.31701 0.62718 0.0
C1128 C 0.47141 0.28164 0.62938 0.0
C1129 C 0.5283 0.37318 0.60803 0.0
C1130 C 0.56291 0.37877 0.60777 0.0
C1131 C 0.52305 0.40235 0.60532 0.0
C1132 C 0.4873 0.39841 0.60633 0.0
C1133 C 0.46579 0.38343 0.62283 0.0
C1134 C 0.43211 0.37977 0.6237 0.0
C1135 C 0.41973 0.39125 0.6082 0.0
C1136 C 0.44106 0.4065 0.59183 0.0
C1137 C 0.47476 0.41018 0.59089 0.0
H1138 H 0.39366 0.38842 0.6089 0.0
H1139 H 0.7212 0.42497 0.6016 0.0
H1140 H 0.32779 0.88576 0.37487 0.0
H1141 H 0.38382 0.88622 0.3726 0.0
H1142 H 0.36938 0.84469 0.43086 0.0
H1143 H 0.31333 0.84446 0.43338 0.0
H1144 H 0.44018 0.89477 0.42254 0.0
H1145 H 0.34494 0.78696 0.39391 0.0
H1146 H 0.29391 0.75348 0.37193 0.0
H1147 H 0.3589 0.80888 0.32278 0.0
H1148 H 0.41039 0.84251 0.34441 0.0
H1149 H 0.55291 0.82029 0.4142 0.0
H1150 H 0.50522 0.83309 0.42016 0.0
H1151 H 0.50745 0.86069 0.35972 0.0
H1152 H 0.5542 0.84681 0.35358 0.0
H1153 H 0.44272 0.81823 0.36999 0.0
H1154 H 0.53903 0.92375 0.39773 0.0
H1155 H 0.59042 0.95861 0.41917 0.0
H1156 H 0.52497 0.91072 0.46937 0.0
H1157 H 0.47326 0.87521 0.44821 0.0
C1158 C 0.33678 0.87732 0.38736 0.0
C1159 C 0.31582 0.86462 0.40422 0.0
C1160 C 0.36877 0.87749 0.386 0.0
C1161 C 0.38036 0.8648 0.40142 0.0
C1162 C 0.36078 0.85439 0.41876 0.0
C1163 C 0.32873 0.85426 0.42016 0.0
C1164 C 0.41134 0.8599 0.39883 0.0
C1165 C 0.44072 0.87778 0.4112 0.0
C1166 C 0.41217 0.83819 0.38381 0.0
C1167 C 0.3814 0.81746 0.37078 0.0
C1168 C 0.34829 0.79208 0.37842 0.0
C1169 C 0.3193 0.77308 0.36604 0.0
C1170 C 0.32309 0.7793 0.34602 0.0
C1171 C 0.35599 0.80419 0.3383 0.0
C1172 C 0.38511 0.82311 0.3506 0.0
C1173 C 0.54355 0.82956 0.40225 0.0
C1174 C 0.55725 0.83247 0.38341 0.0
C1175 C 0.51635 0.837 0.40569 0.0
C1176 C 0.50283 0.84812 0.39042 0.0
C1177 C 0.51731 0.85203 0.37173 0.0
C1178 C 0.54411 0.84418 0.36824 0.0
C1179 C 0.47216 0.85355 0.39353 0.0
C1180 C 0.44254 0.83544 0.38131 0.0
C1181 C 0.47132 0.87522 0.40862 0.0
C1182 C 0.50235 0.89656 0.42137 0.0
C1183 C 0.53566 0.92044 0.41334 0.0
C1184 C 0.56483 0.94036 0.42544 0.0
C1185 C 0.56098 0.93682 0.44562 0.0
C1186 C 0.52792 0.91341 0.45374 0.0
C1187 C 0.49867 0.8934 0.4417 0.0
H1188 H 0.5836 0.95226 0.45496 0.0
H1189 H 0.30055 0.76482 0.33648 0.0
H1190 H 0.71882 0.57931 0.89677 0.0
H1191 H 0.65715 0.53062 0.89928 0.0
H1192 H 0.69078 0.45564 0.88522 0.0
H1193 H 0.75155 0.50423 0.8815 0.0
H1194 H 0.63562 0.43652 0.86678 0.0
H1195 H 0.66597 0.47016 0.93359 0.0
H1196 H 0.68672 0.51061 0.96178 0.0
H1197 H 0.60168 0.53186 0.9535 0.0
H1198 H 0.58066 0.49184 0.92511 0.0
H1199 H 0.47892 0.29852 0.92848 0.0
H1200 H 0.53529 0.35399 0.92643 0.0
H1201 H 0.50759 0.37269 0.86921 0.0
H1202 H 0.45126 0.31646 0.87095 0.0
H1203 H 0.55778 0.42143 0.92284 0.0
H1204 H 0.58118 0.41025 0.84078 0.0
H1205 H 0.56376 0.36374 0.81581 0.0
H1206 H 0.5481 0.28782 0.86007 0.0
H1207 H 0.56596 0.33398 0.88523 0.0
C1208 C 0.71288 0.55237 0.89433 0.0
C1209 C 0.73987 0.5455 0.8889 0.0
C1210 C 0.67766 0.52448 0.89583 0.0
C1211 C 0.66904 0.48914 0.89261 0.0
C1212 C 0.69637 0.4825 0.8876 0.0
C1213 C 0.73122 0.51032 0.88557 0.0
C1214 C 0.63173 0.45893 0.894 0.0
C1215 C 0.61869 0.43344 0.87905 0.0
C1216 C 0.60942 0.45426 0.91007 0.0
C1217 C 0.622 0.47834 0.92711 0.0
C1218 C 0.65186 0.48367 0.9377 0.0
C1219 C 0.66364 0.50648 0.95372 0.0
C1220 C 0.6456 0.52388 0.95939 0.0
C1221 C 0.61567 0.51842 0.94907 0.0
C1222 C 0.6038 0.49566 0.93302 0.0
C1223 C 0.48457 0.31452 0.9155 0.0
C1224 C 0.46067 0.30282 0.89978 0.0
C1225 C 0.51685 0.34641 0.91439 0.0
C1226 C 0.526 0.3674 0.89758 0.0
C1227 C 0.50141 0.35668 0.88222 0.0
C1228 C 0.46915 0.32458 0.88325 0.0
C1229 C 0.56211 0.39916 0.89575 0.0
C1230 C 0.57476 0.42488 0.91052 0.0
C1231 C 0.5847 0.40328 0.87997 0.0
C1232 C 0.57446 0.37549 0.86489 0.0
C1233 C 0.57413 0.38366 0.84516 0.0
C1234 C 0.56418 0.35736 0.83098 0.0
C1235 C 0.5547 0.32283 0.83636 0.0
C1236 C 0.55532 0.31455 0.85592 0.0
C1237 C 0.56534 0.34076 0.87014 0.0
H1238 H 0.54695 0.3025 0.82536 0.0
H1239 H 0.65475 0.54153 0.9718 0.0
H1240 H 0.24983 0.74405 0.39646 0.0
H1241 H 0.2307 0.68108 0.39855 0.0
H1242 H 0.12311 0.65433 0.38596 0.0
H1243 H 0.1422 0.7177 0.38451 0.0
H1244 H 0.12304 0.60955 0.41173 0.0
H1245 H 0.1786 0.65354 0.3498 0.0
H1246 H 0.22612 0.6941 0.32751 0.0
H1247 H 0.29833 0.6671 0.35417 0.0
H1248 H 0.25137 0.62669 0.37677 0.0
H1249 H 0.13422 0.44912 0.36636 0.0
H1250 H 0.13427 0.50499 0.36354 0.0
H1251 H 0.15264 0.5221 0.42525 0.0
H1252 H 0.1522 0.46624 0.42824 0.0
H1253 H 0.18928 0.56878 0.37085 0.0
H1254 H 0.11887 0.57194 0.44208 0.0
H1255 H 0.06915 0.53029 0.46286 0.0
H1256 H 0.02119 0.46042 0.41424 0.0
H1257 H 0.07033 0.50186 0.3931 0.0
C1258 C 0.22209 0.72467 0.39422 0.0
C1259 C 0.19755 0.73549 0.38999 0.0
C1260 C 0.21117 0.68875 0.39539 0.0
C1261 C 0.17565 0.66299 0.39184 0.0
C1262 C 0.1507 0.67378 0.38858 0.0
C1263 C 0.16157 0.70987 0.38777 0.0
C1264 C 0.16508 0.625 0.39084 0.0
C1265 C 0.13739 0.60056 0.40275 0.0
C1266 C 0.18326 0.61312 0.37874 0.0
C1267 C 0.21147 0.63716 0.36502 0.0
C1268 C 0.20465 0.65636 0.35096 0.0
C1269 C 0.23148 0.67931 0.33827 0.0
C1270 C 0.26519 0.6831 0.33941 0.0
C1271 C 0.27217 0.66405 0.35327 0.0
C1272 C 0.24545 0.64108 0.366 0.0
C1273 C 0.13764 0.46447 0.37938 0.0
C1274 C 0.14345 0.45338 0.39751 0.0
C1275 C 0.13773 0.49641 0.37773 0.0
C1276 C 0.14332 0.51763 0.39419 0.0
C1277 C 0.14777 0.50592 0.4124 0.0
C1278 C 0.14772 0.47405 0.41406 0.0
C1279 C 0.14788 0.55347 0.39214 0.0
C1280 C 0.17457 0.57759 0.37967 0.0
C1281 C 0.1284 0.56484 0.40348 0.0
C1282 C 0.09848 0.53993 0.41604 0.0
C1283 C 0.09763 0.54778 0.4358 0.0
C1284 C 0.06956 0.52418 0.44764 0.0
C1285 C 0.04208 0.49268 0.43989 0.0
C1286 C 0.04256 0.48476 0.42025 0.0
C1287 C 0.07055 0.50828 0.40833 0.0
H1288 H 0.02038 0.47444 0.44908 0.0
H1289 H 0.28589 0.70077 0.32953 0.0
H1290 H 0.67823 0.11303 0.898 0.0
H1291 H 0.61934 0.10685 0.89628 0.0
H1292 H 0.66115 0.21061 0.92191 0.0
H1293 H 0.71946 0.21624 0.92441 0.0
H1294 H 0.59733 0.17106 0.93428 0.0
H1295 H 0.65349 0.19695 0.87154 0.0
H1296 H 0.68264 0.18729 0.84339 0.0
H1297 H 0.58979 0.08585 0.83318 0.0
H1298 H 0.56026 0.09477 0.86143 0.0
H1299 H 0.48802 0.21305 0.86199 0.0
H1300 H 0.53641 0.20235 0.86907 0.0
H1301 H 0.47522 0.13135 0.91557 0.0
H1302 H 0.42678 0.14292 0.90892 0.0
H1303 H 0.54499 0.14829 0.86813 0.0
H1304 H 0.53175 0.13765 0.9519 0.0
H1305 H 0.50913 0.15841 0.97869 0.0
H1306 H 0.52653 0.24798 0.94442 0.0
H1307 H 0.54969 0.22802 0.91757 0.0
C1308 C 0.67465 0.13424 0.90355 0.0
C1309 C 0.7035 0.16529 0.91113 0.0
C1310 C 0.64104 0.13074 0.90251 0.0
C1311 C 0.63596 0.1586 0.90858 0.0
C1312 C 0.66436 0.18876 0.91712 0.0
C1313 C 0.69776 0.19199 0.91848 0.0
C1314 C 0.6021 0.15782 0.90467 0.0
C1315 C 0.58569 0.16573 0.91986 0.0
C1316 C 0.58727 0.15168 0.88577 0.0
C1317 C 0.60484 0.14634 0.86871 0.0
C1318 C 0.63939 0.17249 0.86336 0.0
C1319 C 0.65597 0.16717 0.84738 0.0
C1320 C 0.63812 0.13592 0.83654 0.0
C1321 C 0.60361 0.11 0.84161 0.0
C1322 C 0.58693 0.11518 0.8576 0.0
C1323 C 0.48465 0.19495 0.87366 0.0
C1324 C 0.4536 0.17894 0.88497 0.0
C1325 C 0.51237 0.18876 0.87765 0.0
C1326 C 0.50963 0.16627 0.89295 0.0
C1327 C 0.47816 0.14925 0.90388 0.0
C1328 C 0.45046 0.15577 0.90003 0.0
C1329 C 0.5404 0.1619 0.89768 0.0
C1330 C 0.5562 0.15294 0.88264 0.0
C1331 C 0.55552 0.16862 0.91652 0.0
C1332 C 0.54199 0.18105 0.93266 0.0
C1333 C 0.53081 0.1618 0.95012 0.0
C1334 C 0.5179 0.17344 0.96531 0.0
C1335 C 0.51626 0.20441 0.96323 0.0
C1336 C 0.52768 0.22392 0.94599 0.0
C1337 C 0.54066 0.21244 0.93078 0.0
H1338 H 0.50623 0.21335 0.975 0.0
H1339 H 0.65099 0.13184 0.82418 0.0
H1340 H 0.2946 0.42688 0.35661 0.0
H1341 H 0.35363 0.47881 0.36093 0.0
H1342 H 0.3207 0.50166 0.4155 0.0
H1343 H 0.26155 0.44985 0.41129 0.0
H1344 H 0.3522 0.55953 0.39189 0.0
H1345 H 0.37771 0.47094 0.41475 0.0
H1346 H 0.37952 0.41549 0.41301 0.0
H1347 H 0.44551 0.45366 0.36223 0.0
H1348 H 0.44368 0.50918 0.3635 0.0
H1349 H 0.51707 0.69578 0.42558 0.0
H1350 H 0.4626 0.63856 0.42265 0.0
H1351 H 0.4983 0.62063 0.36762 0.0
H1352 H 0.55321 0.67812 0.37045 0.0
H1353 H 0.46612 0.56002 0.39076 0.0
H1354 H 0.44072 0.64793 0.3675 0.0
H1355 H 0.43878 0.70336 0.36853 0.0
H1356 H 0.372 0.66625 0.41904 0.0
H1357 H 0.37403 0.61081 0.41852 0.0
C1358 C 0.30002 0.44265 0.36967 0.0
C1359 C 0.27328 0.4342 0.38358 0.0
C1360 C 0.33385 0.47231 0.37214 0.0
C1361 C 0.34163 0.4941 0.38856 0.0
C1362 C 0.31527 0.48524 0.40271 0.0
C1363 C 0.28151 0.45549 0.40031 0.0
C1364 C 0.37655 0.52724 0.39047 0.0
C1365 C 0.37707 0.55956 0.39195 0.0
C1366 C 0.40906 0.52741 0.38989 0.0
C1367 C 0.41025 0.49407 0.3891 0.0
C1368 C 0.39235 0.46739 0.40311 0.0
C1369 C 0.39343 0.43597 0.40223 0.0
C1370 C 0.41253 0.43101 0.38749 0.0
C1371 C 0.43068 0.45752 0.37362 0.0
C1372 C 0.42965 0.48898 0.37442 0.0
C1373 C 0.51359 0.67962 0.41291 0.0
C1374 C 0.53945 0.69169 0.39817 0.0
C1375 C 0.48233 0.64692 0.41124 0.0
C1376 C 0.47617 0.62554 0.3948 0.0
C1377 C 0.50249 0.63678 0.38041 0.0
C1378 C 0.5338 0.66966 0.38203 0.0
C1379 C 0.44165 0.59216 0.39242 0.0
C1380 C 0.44121 0.55991 0.39075 0.0
C1381 C 0.40913 0.592 0.39272 0.0
C1382 C 0.40786 0.62535 0.3931 0.0
C1383 C 0.4259 0.65172 0.37895 0.0
C1384 C 0.42473 0.68312 0.37941 0.0
C1385 C 0.40536 0.68837 0.39387 0.0
C1386 C 0.38705 0.66218 0.40787 0.0
C1387 C 0.38819 0.63075 0.40749 0.0
H1388 H 0.40447 0.71269 0.3942 0.0
H1389 H 0.41334 0.40667 0.38683 0.0
H1390 H 0.86319 0.54041 0.92837 0.0
H1391 H 0.86474 0.48599 0.92285 0.0
H1392 H 0.8728 0.50528 0.86106 0.0
H1393 H 0.87108 0.55986 0.86647 0.0
H1394 H 0.82095 0.43804 0.86995 0.0
H1395 H 0.94332 0.51368 0.8864 0.0
H1396 H 0.99361 0.55705 0.90626 0.0
H1397 H 0.95762 0.48429 0.95426 0.0
H1398 H 0.90681 0.44065 0.93478 0.0
H1399 H 0.83759 0.28902 0.84827 0.0
H1400 H 0.85159 0.35056 0.85084 0.0
H1401 H 0.85203 0.34353 0.9134 0.0
H1402 H 0.83907 0.28227 0.9109 0.0
H1403 H 0.9031 0.40666 0.9022 0.0
H1404 H 0.77891 0.33383 0.88788 0.0
H1405 H 0.72699 0.28977 0.86925 0.0
H1406 H 0.76431 0.35664 0.81878 0.0
H1407 H 0.81673 0.40091 0.83705 0.0
C1408 C 0.86582 0.53341 0.91361 0.0
C1409 C 0.86702 0.55456 0.89787 0.0
C1410 C 0.86682 0.50228 0.91048 0.0
C1411 C 0.86907 0.49156 0.89154 0.0
C1412 C 0.8711 0.51303 0.8758 0.0
C1413 C 0.87032 0.54434 0.87893 0.0
C1414 C 0.86711 0.45692 0.88818 0.0
C1415 C 0.83936 0.43144 0.87669 0.0
C1416 C 0.89045 0.44786 0.89744 0.0
C1417 C 0.92109 0.474 0.90917 0.0
C1418 C 0.94597 0.50702 0.90124 0.0
C1419 C 0.9746 0.53164 0.91242 0.0
C1420 C 0.97877 0.52346 0.93152 0.0
C1421 C 0.95435 0.4906 0.93947 0.0
C1422 C 0.92565 0.4659 0.92835 0.0
C1423 C 0.84108 0.30069 0.86258 0.0
C1424 C 0.83699 0.28062 0.87938 0.0
C1425 C 0.84891 0.33587 0.86403 0.0
C1426 C 0.85219 0.35158 0.88233 0.0
C1427 C 0.84954 0.33204 0.89911 0.0
C1428 C 0.84207 0.29695 0.89766 0.0
C1429 C 0.85684 0.38773 0.88404 0.0
C1430 C 0.88496 0.41341 0.89528 0.0
C1431 C 0.83359 0.3969 0.87473 0.0
C1432 C 0.80192 0.3705 0.86377 0.0
C1433 C 0.77616 0.33903 0.87277 0.0
C1434 C 0.74663 0.31403 0.86228 0.0
C1435 C 0.74241 0.32036 0.84283 0.0
C1436 C 0.76765 0.35175 0.83384 0.0
C1437 C 0.79726 0.37681 0.84426 0.0
H1438 H 0.71953 0.30098 0.83473 0.0
H1439 H 1.00095 0.54256 0.94016 0.0
H1440 H 0.07537 0.30225 0.32139 0.0
H1441 H 0.08449 0.31024 0.28627 0.0
H1442 H 0.19398 0.38992 0.29559 0.0
H1443 H 0.18515 0.3822 0.33075 0.0
H1444 H 0.16216 0.40722 0.26511 0.0
H1445 H 0.17839 0.30995 0.28575 0.0
H1446 H 0.16192 0.25282 0.3012 0.0
H1447 H 0.06789 0.20088 0.26602 0.0
H1448 H 0.08412 0.25787 0.25022 0.0
H1449 H 0.23213 0.34208 0.18133 0.0
H1450 H 0.21441 0.3434 0.21467 0.0
H1451 H 0.14039 0.37459 0.19477 0.0
H1452 H 0.15816 0.37349 0.16101 0.0
H1453 H 0.14856 0.30205 0.2297 0.0
H1454 H 0.1361 0.4267 0.2336 0.0
H1455 H 0.16017 0.48488 0.21752 0.0
H1456 H 0.25613 0.48474 0.204 0.0
H1457 H 0.23283 0.42683 0.22021 0.0
C1458 C 0.10129 0.32182 0.316 0.0
C1459 C 0.1297 0.34131 0.32886 0.0
C1460 C 0.10642 0.32633 0.29593 0.0
C1461 C 0.13993 0.35052 0.28839 0.0
C1462 C 0.16789 0.37119 0.30117 0.0
C1463 C 0.16287 0.36652 0.32124 0.0
C1464 C 0.14674 0.35206 0.26725 0.0
C1465 C 0.15888 0.38419 0.25727 0.0
C1466 C 0.1427 0.3221 0.25712 0.0
C1467 C 0.13222 0.28813 0.26701 0.0
C1468 C 0.15402 0.28639 0.28147 0.0
C1469 C 0.14478 0.25401 0.29023 0.0
C1470 C 0.11372 0.22321 0.28468 0.0
C1471 C 0.09188 0.22476 0.27033 0.0
C1472 C 0.10114 0.25706 0.26143 0.0
C1473 C 0.21223 0.34947 0.18394 0.0
C1474 C 0.19641 0.3575 0.16848 0.0
C1475 C 0.20209 0.35013 0.20304 0.0
C1476 C 0.17606 0.35898 0.20715 0.0
C1477 C 0.16068 0.36785 0.19186 0.0
C1478 C 0.1708 0.36714 0.17262 0.0
C1479 C 0.16439 0.35729 0.2275 0.0
C1480 C 0.15114 0.32497 0.23735 0.0
C1481 C 0.168 0.38725 0.23748 0.0
C1482 C 0.18251 0.42224 0.2279 0.0
C1483 C 0.16236 0.43914 0.22723 0.0
C1484 C 0.17587 0.47207 0.21809 0.0
C1485 C 0.2096 0.48842 0.20967 0.0
C1486 C 0.22995 0.47196 0.21044 0.0
C1487 C 0.21658 0.43906 0.21957 0.0
H1488 H 0.22 0.5139 0.20259 0.0
H1489 H 0.10665 0.19809 0.2914 0.0
H1490 H 0.8921 0.18163 0.68172 0.0
H1491 H 0.8708 0.17069 0.71526 0.0
H1492 H 0.80374 0.21452 0.70303 0.0
H1493 H 0.82457 0.22519 0.66922 0.0
H1494 H 0.84662 0.23762 0.74005 0.0
H1495 H 0.76112 0.13543 0.70553 0.0
H1496 H 0.73956 0.08556 0.68249 0.0
H1497 H 0.79123 0.04112 0.71556 0.0
H1498 H 0.81371 0.09112 0.7386 0.0
H1499 H 0.77681 0.17135 0.83555 0.0
H1500 H 0.77807 0.18541 0.80094 0.0
H1501 H 0.8317 0.12737 0.78834 0.0
H1502 H 0.82985 0.1127 0.82256 0.0
H1503 H 0.78183 0.11253 0.76241 0.0
H1504 H 0.87577 0.22047 0.7932 0.0
H1505 H 0.89726 0.26999 0.81654 0.0
H1506 H 0.82917 0.30321 0.79073 0.0
H1507 H 0.80697 0.25359 0.76737 0.0
C1508 C 0.87308 0.18927 0.68618 0.0
C1509 C 0.85986 0.2041 0.67284 0.0
C1510 C 0.86088 0.1829 0.7053 0.0
C1511 C 0.83561 0.19163 0.71146 0.0
C1512 C 0.82321 0.20759 0.69844 0.0
C1513 C 0.83501 0.21348 0.67917 0.0
C1514 C 0.82167 0.18281 0.73144 0.0
C1515 C 0.83177 0.2103 0.74495 0.0
C1516 C 0.80241 0.14718 0.73767 0.0
C1517 C 0.78931 0.1172 0.72373 0.0
C1518 C 0.76823 0.11524 0.70778 0.0
C1519 C 0.75578 0.0869 0.69473 0.0
C1520 C 0.76403 0.0602 0.69755 0.0
C1521 C 0.78485 0.06183 0.71339 0.0
C1522 C 0.79744 0.09016 0.72646 0.0
C1523 C 0.78892 0.16172 0.82536 0.0
C1524 C 0.80351 0.1412 0.83177 0.0
C1525 C 0.78956 0.1697 0.80562 0.0
C1526 C 0.80528 0.1577 0.7921 0.0
C1527 C 0.81929 0.13677 0.7985 0.0
C1528 C 0.81829 0.12848 0.81809 0.0
C1529 C 0.8083 0.16731 0.77128 0.0
C1530 C 0.79599 0.13988 0.75753 0.0
C1531 C 0.82559 0.203 0.76489 0.0
C1532 C 0.83947 0.23315 0.77869 0.0
C1533 C 0.86527 0.23825 0.79257 0.0
C1534 C 0.87758 0.26632 0.8058 0.0
C1535 C 0.86453 0.28968 0.80515 0.0
C1536 C 0.83922 0.28507 0.79123 0.0
C1537 C 0.82678 0.257 0.77799 0.0
H1538 H 0.87409 0.31141 0.81539 0.0
H1539 H 0.75423 0.03821 0.68747 0.0
H1540 H 0.66645 0.81059 0.16078 0.0
H1541 H 0.65943 0.79516 0.19528 0.0
H1542 H 0.67392 0.89791 0.20955 0.0
H1543 H 0.68204 0.9139 0.17516 0.0
H1544 H 0.7102 0.88221 0.23361 0.0
H1545 H 0.59089 0.8217 0.20941 0.0
H1546 H 0.54249 0.78211 0.1873 0.0
H1547 H 0.5543 0.69433 0.20499 0.0
H1548 H 0.60315 0.73352 0.22701 0.0
H1549 H 0.6475 0.84379 0.33011 0.0
H1550 H 0.64742 0.85523 0.29534 0.0
H1551 H 0.65345 0.76183 0.28225 0.0
H1552 H 0.65368 0.75014 0.31701 0.0
H1553 H 0.60547 0.77221 0.25797 0.0
H1554 H 0.72614 0.83465 0.28175 0.0
H1555 H 0.77288 0.87468 0.30454 0.0
H1556 H 0.75634 0.96002 0.28788 0.0
H1557 H 0.70902 0.92027 0.26522 0.0
C1558 C 0.66804 0.82984 0.17128 0.0
C1559 C 0.67465 0.86339 0.1653 0.0
C1560 C 0.66391 0.82096 0.19096 0.0
C1561 C 0.66561 0.84521 0.20494 0.0
C1562 C 0.67249 0.87881 0.19899 0.0
C1563 C 0.67708 0.88787 0.17935 0.0
C1564 C 0.66065 0.83579 0.22581 0.0
C1565 C 0.68705 0.85841 0.23893 0.0
C1566 C 0.6307 0.80441 0.23271 0.0
C1567 C 0.60091 0.78063 0.21973 0.0
C1568 C 0.58331 0.794 0.2085 0.0
C1569 C 0.55579 0.77163 0.19599 0.0
C1570 C 0.54539 0.73575 0.1947 0.0
C1571 C 0.56241 0.72214 0.20599 0.0
C1572 C 0.59 0.74441 0.2185 0.0
C1573 C 0.64841 0.82545 0.31985 0.0
C1574 C 0.65101 0.79628 0.32627 0.0
C1575 C 0.64834 0.83203 0.30003 0.0
C1576 C 0.65069 0.80947 0.28637 0.0
C1577 C 0.65161 0.77946 0.29267 0.0
C1578 C 0.65198 0.773 0.31249 0.0
C1579 C 0.65488 0.81869 0.26557 0.0
C1580 C 0.62846 0.79603 0.25253 0.0
C1581 C 0.68463 0.85016 0.25873 0.0
C1582 C 0.7138 0.87439 0.27192 0.0
C1583 C 0.73231 0.86189 0.28303 0.0
C1584 C 0.75892 0.88454 0.29593 0.0
C1585 C 0.76751 0.91986 0.2977 0.0
C1586 C 0.74962 0.93264 0.28651 0.0
C1587 C 0.72292 0.91007 0.27363 0.0
H1588 H 0.78807 0.93733 0.30772 0.0
H1589 H 0.52411 0.71848 0.18499 0.0
H1590 H 0.75703 0.67149 0.68229 0.0
H1591 H 0.77115 0.66887 0.71628 0.0
H1592 H 0.8498 0.64203 0.69906 0.0
H1593 H 0.83532 0.64393 0.66483 0.0
H1594 H 0.81311 0.60445 0.73073 0.0
H1595 H 0.87571 0.72517 0.71132 0.0
H1596 H 0.88372 0.77997 0.6963 0.0
H1597 H 0.81163 0.78306 0.73765 0.0
H1598 H 0.80267 0.72787 0.75272 0.0
H1599 H 0.90741 0.66554 0.82223 0.0
H1600 H 0.89309 0.66011 0.78749 0.0
H1601 H 0.79619 0.65966 0.80038 0.0
H1602 H 0.80984 0.66425 0.83518 0.0
H1603 H 0.84623 0.71154 0.77057 0.0
H1604 H 0.78389 0.58736 0.78896 0.0
H1605 H 0.77997 0.53391 0.80351 0.0
H1606 H 0.85863 0.54048 0.76353 0.0
H1607 H 0.86343 0.59436 0.74894 0.0
C1608 C 0.77722 0.66484 0.68569 0.0
C1609 C 0.79535 0.6583 0.67089 0.0
C1610 C 0.78526 0.66338 0.70512 0.0
C1611 C 0.81196 0.65591 0.71012 0.0
C1612 C 0.8292 0.64798 0.69545 0.0
C1613 C 0.82094 0.64914 0.67593 0.0
C1614 C 0.82265 0.65793 0.73067 0.0
C1615 C 0.82082 0.62801 0.73938 0.0
C1616 C 0.83267 0.68872 0.74191 0.0
C1617 C 0.83828 0.72219 0.73305 0.0
C1618 C 0.86136 0.73738 0.71713 0.0
C1619 C 0.86609 0.76854 0.70861 0.0
C1620 C 0.84815 0.78496 0.716 0.0
C1621 C 0.82549 0.77029 0.73194 0.0
C1622 C 0.82059 0.73908 0.74049 0.0
C1623 C 0.88299 0.66413 0.81765 0.0
C1624 C 0.85972 0.66535 0.83133 0.0
C1625 C 0.87484 0.66091 0.79787 0.0
C1626 C 0.84363 0.65943 0.79154 0.0
C1627 C 0.82036 0.66069 0.80513 0.0
C1628 C 0.82813 0.6632 0.82493 0.0
C1629 C 0.83585 0.65787 0.77064 0.0
C1630 C 0.83854 0.68804 0.76186 0.0
C1631 C 0.82734 0.62761 0.75932 0.0
C1632 C 0.82433 0.59514 0.76802 0.0
C1633 C 0.80063 0.57763 0.7834 0.0
C1634 C 0.79818 0.5472 0.79163 0.0
C1635 C 0.81912 0.53387 0.78449 0.0
C1636 C 0.84247 0.55088 0.76907 0.0
C1637 C 0.84505 0.58135 0.76081 0.0
H1638 H 0.81719 0.5103 0.79087 0.0
H1639 H 0.85184 0.80908 0.70938 0.0
H1640 H 0.11699 0.82218 0.17718 0.0
H1641 H 0.13986 0.82554 0.20977 0.0
H1642 H 0.19871 0.77653 0.18995 0.0
H1643 H 0.17559 0.77283 0.15686 0.0
H1644 H 0.15736 0.7526 0.22954 0.0
H1645 H 0.24866 0.85278 0.19553 0.0
H1646 H 0.27135 0.90299 0.17264 0.0
H1647 H 0.22674 0.95213 0.20774 0.0
H1648 H 0.20329 0.90194 0.23069 0.0
H1649 H 0.22269 0.81357 0.32742 0.0
H1650 H 0.22309 0.79833 0.29308 0.0
H1651 H 0.17912 0.86393 0.27716 0.0
H1652 H 0.17947 0.87982 0.311 0.0
H1653 H 0.23161 0.8759 0.25354 0.0
H1654 H 0.12808 0.77037 0.28138 0.0
H1655 H 0.10098 0.71964 0.30403 0.0
H1656 H 0.16644 0.68097 0.28075 0.0
H1657 H 0.19411 0.73167 0.25807 0.0
C1658 C 0.13442 0.81164 0.17966 0.0
C1659 C 0.14487 0.79764 0.16432 0.0
C1660 C 0.14748 0.81363 0.19833 0.0
C1661 C 0.17116 0.80159 0.20213 0.0
C1662 C 0.18051 0.78604 0.18718 0.0
C1663 C 0.16752 0.78421 0.16831 0.0
C1664 C 0.18723 0.80778 0.22165 0.0
C1665 C 0.17452 0.77941 0.23477 0.0
C1666 C 0.2094 0.8428 0.22834 0.0
C1667 C 0.22415 0.87351 0.21482 0.0
C1668 C 0.24354 0.87421 0.19833 0.0
C1669 C 0.25655 0.90268 0.18534 0.0
C1670 C 0.25048 0.93073 0.18873 0.0
C1671 C 0.23146 0.9304 0.20514 0.0
C1672 C 0.21837 0.90198 0.21817 0.0
C1673 C 0.2131 0.82466 0.31655 0.0
C1674 C 0.20114 0.84799 0.32191 0.0
C1675 C 0.21336 0.81594 0.29697 0.0
C1676 C 0.20117 0.83003 0.28256 0.0
C1677 C 0.18903 0.85305 0.28799 0.0
C1678 C 0.18911 0.86201 0.30739 0.0
C1679 C 0.20009 0.82091 0.26172 0.0
C1680 C 0.2157 0.84889 0.2483 0.0
C1681 C 0.18045 0.78559 0.25483 0.0
C1682 C 0.16339 0.75492 0.26821 0.0
C1683 C 0.13677 0.7511 0.28117 0.0
C1684 C 0.12131 0.72236 0.29399 0.0
C1685 C 0.13206 0.69715 0.29387 0.0
C1686 C 0.15818 0.70054 0.28085 0.0
C1687 C 0.17374 0.72924 0.268 0.0
H1688 H 0.1201 0.67496 0.30382 0.0
H1689 H 0.26052 0.95272 0.17864 0.0
H1690 H 0.33071 0.13793 0.83013 0.0
H1691 H 0.33008 0.12569 0.79539 0.0
H1692 H 0.36482 0.23526 0.78249 0.0
H1693 H 0.36319 0.24684 0.81712 0.0
H1694 H 0.31647 0.19818 0.75903 0.0
H1695 H 0.42025 0.19624 0.77875 0.0
H1696 H 0.45626 0.17875 0.79835 0.0
H1697 H 0.39006 0.07045 0.78055 0.0
H1698 H 0.35333 0.0872 0.76106 0.0
H1699 H 0.36556 0.18641 0.66037 0.0
H1700 H 0.37377 0.20011 0.69523 0.0
H1701 H 0.29486 0.09205 0.70851 0.0
H1702 H 0.28572 0.07832 0.67371 0.0
H1703 H 0.3684 0.1299 0.73075 0.0
H1704 H 0.26303 0.13588 0.7125 0.0
H1705 H 0.23205 0.15753 0.6916 0.0
H1706 H 0.30958 0.26507 0.70576 0.0
H1707 H 0.3414 0.24401 0.72649 0.0
C1708 C 0.33852 0.15939 0.81984 0.0
C1709 C 0.34703 0.1933 0.8262 0.0
C1710 C 0.33836 0.15247 0.79999 0.0
C1711 C 0.34793 0.17968 0.78625 0.0
C1712 C 0.35722 0.21378 0.79275 0.0
C1713 C 0.35641 0.22043 0.81252 0.0
C1714 C 0.34655 0.1723 0.76509 0.0
C1715 C 0.32838 0.18372 0.75291 0.0
C1716 C 0.3617 0.15311 0.75695 0.0
C1717 C 0.38385 0.14294 0.76857 0.0
C1718 C 0.41323 0.16865 0.77912 0.0
C1719 C 0.43379 0.15887 0.79019 0.0
C1720 C 0.4254 0.1235 0.79073 0.0
C1721 C 0.3965 0.09784 0.78014 0.0
C1722 C 0.37582 0.10747 0.76906 0.0
C1723 C 0.35013 0.16555 0.67073 0.0
C1724 C 0.32491 0.13135 0.66439 0.0
C1725 C 0.35486 0.1734 0.69057 0.0
C1726 C 0.33496 0.147 0.70428 0.0
C1727 C 0.31049 0.11263 0.69804 0.0
C1728 C 0.30517 0.10494 0.67822 0.0
C1729 C 0.33839 0.1557 0.72513 0.0
C1730 C 0.35685 0.14453 0.73709 0.0
C1731 C 0.32425 0.17575 0.73304 0.0
C1732 C 0.3048 0.18838 0.72085 0.0
C1733 C 0.27365 0.16414 0.71101 0.0
C1734 C 0.25589 0.1763 0.69922 0.0
C1735 C 0.26886 0.21265 0.69731 0.0
C1736 C 0.29958 0.23691 0.70723 0.0
C1737 C 0.31748 0.22488 0.719 0.0
H1738 H 0.25507 0.22199 0.68817 0.0
H1739 H 0.44135 0.11598 0.79932 0.0
H1740 H 0.30205 0.26069 0.91711 0.0
H1741 H 0.28389 0.27663 0.94682 0.0
H1742 H 0.32443 0.22131 0.98043 0.0
H1743 H 0.34134 0.20337 0.95015 0.0
H1744 H 0.26362 0.21145 0.99567 0.0
H1745 H 0.37216 0.31199 0.97592 0.0
H1746 H 0.41472 0.35739 0.95336 0.0
H1747 H 0.34352 0.39707 0.94483 0.0
H1748 H 0.30027 0.35155 0.96712 0.0
H1749 H 0.28179 0.31305 0.08126 0.0
H1750 H 0.29572 0.29026 0.05235 0.0
H1751 H 0.22708 0.31333 0.01812 0.0
H1752 H 0.21172 0.33524 0.04734 0.0
H1753 H 0.30327 0.33899 0.00438 0.0
H1754 H 0.19515 0.23617 0.02603 0.0
H1755 H 0.15634 0.19161 0.05009 0.0
H1756 H 0.23229 0.15745 0.05703 0.0
H1757 H 0.27205 0.20251 0.03341 0.0
C1758 C 0.3071 0.25166 0.93076 0.0
C1759 C 0.32349 0.231 0.93129 0.0
C1760 C 0.29676 0.26098 0.94778 0.0
C1761 C 0.30366 0.25102 0.96587 0.0
C1762 C 0.31915 0.22952 0.96658 0.0
C1763 C 0.32888 0.21941 0.94934 0.0
C1764 C 0.29514 0.26401 0.98381 0.0
C1765 C 0.27273 0.23938 -0.00228 0.0
C1766 C 0.30674 0.30048 0.98638 0.0
C1767 C 0.33285 0.32817 0.9731 0.0
C1768 C 0.36547 0.33025 0.96915 0.0
C1769 C 0.38974 0.35603 0.95641 0.0
C1770 C 0.3818 0.38006 0.94764 0.0
C1771 C 0.34962 0.37843 0.95163 0.0
C1772 C 0.32524 0.35267 0.96433 0.0
C1773 C 0.26947 0.31328 0.06763 0.0
C1774 C 0.24536 0.32572 0.06662 0.0
C1775 C 0.27744 0.30011 0.05116 0.0
C1776 C 0.26211 0.29984 0.03327 0.0
C1777 C 0.23888 0.31317 0.03195 0.0
C1778 C 0.23021 0.32568 0.04858 0.0
C1779 C 0.27138 0.2864 0.01593 0.0
C1780 C 0.29418 0.31107 0.00225 0.0
C1781 C 0.26072 0.25015 0.01383 0.0
C1782 C 0.23682 0.22307 0.0281 0.0
C1783 C 0.20383 0.21952 0.03288 0.0
C1784 C 0.18161 0.1941 0.04642 0.0
C1785 C 0.19186 0.17176 0.05511 0.0
C1786 C 0.22439 0.17481 0.0503 0.0
C1787 C 0.2468 0.20032 0.03686 0.0
H1788 H 0.17461 0.15206 0.06557 0.0
H1789 H 0.40062 0.39999 0.93778 0.0
H1790 H 0.06551 0.24761 0.43352 0.0
H1791 H 0.03501 0.23657 0.46463 0.0
H1792 H 0.08802 0.3491 0.47565 0.0
H1793 H 0.11943 0.36039 0.44453 0.0
H1794 H 0.07817 0.31054 0.50913 0.0
H1795 H 0.00864 0.31087 0.45569 0.0
H1796 H 0.98109 0.29406 0.42324 0.0
H1797 H 0.92044 0.18524 0.44117 0.0
H1798 H 0.94807 0.20133 0.47369 0.0
H1799 H 0.9522 0.29806 0.57818 0.0
H1800 H 0.99052 0.31399 0.54962 0.0
H1801 H 0.93342 0.20486 0.53057 0.0
H1802 H 0.89339 0.18953 0.5585 0.0
H1803 H 0.94733 0.24511 0.50109 0.0
H1804 H 0.01951 0.24902 0.55654 0.0
H1805 H 0.04857 0.27112 0.58838 0.0
H1806 H 0.10473 0.37726 0.5663 0.0
H1807 H 0.07595 0.35618 0.53439 0.0
C1808 C 0.07126 0.27 0.44274 0.0
C1809 C 0.09438 0.3049 0.4365 0.0
C1810 C 0.05378 0.26365 0.46048 0.0
C1811 C 0.05862 0.29206 0.47214 0.0
C1812 C 0.08381 0.32685 0.46673 0.0
C1813 C 0.10171 0.33326 0.44899 0.0
C1814 C 0.03487 0.28536 0.4889 0.0
C1815 C 0.04956 0.29645 0.50744 0.0
C1816 C 0.99759 0.26705 0.48655 0.0
C1817 C 0.98063 0.25727 0.46708 0.0
C1818 C 0.9896 0.28332 0.45268 0.0
C1819 C 0.97395 0.27393 0.43428 0.0
C1820 C 0.94902 0.23862 0.43016 0.0
C1821 C 0.93972 0.2126 0.44442 0.0
C1822 C 0.95536 0.22183 0.46283 0.0
C1823 C 0.94767 0.27765 0.56771 0.0
C1824 C 0.92003 0.24264 0.5704 0.0
C1825 C 0.96982 0.28664 0.55155 0.0
C1826 C 0.96566 0.26043 0.53825 0.0
C1827 C 0.93734 0.22552 0.54071 0.0
C1828 C 0.91441 0.21676 0.55657 0.0
C1829 C 0.99042 0.26932 0.52164 0.0
C1830 C 0.9759 0.25886 0.50296 0.0
C1831 C 0.02786 0.28867 0.5239 0.0
C1832 C 0.0453 0.30104 0.54311 0.0
C1833 C 0.03783 0.27711 0.55851 0.0
C1834 C 0.0542 0.28943 0.57657 0.0
C1835 C 0.07822 0.32546 0.57939 0.0
C1836 C 0.08605 0.34935 0.56412 0.0
C1837 C 0.06977 0.33725 0.54604 0.0
H1838 H 0.09088 0.33482 0.59339 0.0
H1839 H 0.9369 0.23142 0.41591 0.0
H1840 H 0.70896 0.88433 0.0481 0.0
H1841 H 0.73632 0.91891 0.01843 0.0
H1842 H 0.71629 1.00061 0.03892 0.0
H1843 H 0.68884 0.96636 0.06817 0.0
H1844 H 0.70134 0.98716 0.00081 0.0
H1845 H 0.79686 0.00723 0.0453 0.0
H1846 H 0.83016 0.98675 0.06525 0.0
H1847 H 0.85191 0.94394 0.0144 0.0
H1848 H 0.81851 0.96387 0.99419 0.0
H1849 H 0.80563 0.14006 0.9527 0.0
H1850 H 0.79461 0.10218 0.98105 0.0
H1851 H 0.81344 0.03095 0.94641 0.0
H1852 H 0.82575 0.0696 0.91813 0.0
H1853 H 0.82935 0.03268 0.98858 0.0
H1854 H 0.73547 0.01328 0.94407 0.0
H1855 H 0.70355 0.03463 0.92368 0.0
H1856 H 0.67798 0.07463 0.97443 0.0
H1857 H 0.71043 0.05412 0.99504 0.0
C1858 C 0.70981 0.90933 0.04601 0.0
C1859 C 0.69699 0.92282 0.06042 0.0
C1860 C 0.7257 0.92915 0.0292 0.0
C1861 C 0.72873 0.9625 0.02667 0.0
C1862 C 0.71432 0.975 0.04063 0.0
C1863 C 0.69868 0.95542 0.05734 0.0
C1864 C 0.74769 0.98541 0.00989 0.0
C1865 C 0.72931 0.99709 -0.00181 0.0
C1866 C 0.78402 0.99777 0.0062 0.0
C1867 C 0.80485 0.98665 0.01829 0.0
C1868 C 0.80861 0.99329 0.03841 0.0
C1869 C 0.82747 0.98179 0.04976 0.0
C1870 C 0.84286 0.96382 0.04112 0.0
C1871 C 0.8398 0.95769 0.02108 0.0
C1872 C 0.82096 0.96913 0.00967 0.0
C1873 C 0.80909 0.11726 0.95135 0.0
C1874 C 0.81517 0.10683 0.93315 0.0
C1875 C 0.80274 0.09561 0.96754 0.0
C1876 C 0.80233 0.06339 0.96561 0.0
C1877 C 0.81333 0.05556 0.94811 0.0
C1878 C 0.81983 0.07734 0.93193 0.0
C1879 C 0.78313 0.03512 0.98011 0.0
C1880 C 0.8013 0.02235 0.99116 0.0
C1881 C 0.74647 0.02148 0.98323 0.0
C1882 C 0.72561 0.03245 0.97104 0.0
C1883 C 0.72318 0.02679 0.95084 0.0
C1884 C 0.70501 0.03875 0.93925 0.0
C1885 C 0.68881 0.05606 0.94775 0.0
C1886 C 0.69058 0.06126 0.96787 0.0
C1887 C 0.70884 0.04945 0.97951 0.0
H1888 H 0.67483 0.0654 0.93876 0.0
H1889 H 0.85731 0.9548 0.04993 0.0
H1890 H 0.74343 0.72526 0.58686 0.0
H1891 H 0.73851 0.75797 0.55974 0.0
H1892 H 0.77462 0.70538 0.52064 0.0
H1893 H 0.78299 0.67484 0.54835 0.0
H1894 H 0.79762 0.77049 0.50847 0.0
H1895 H 0.68301 0.67423 0.53 0.0
H1896 H 0.636 0.64134 0.55427 0.0
H1897 H 0.62759 0.73381 0.56462 0.0
H1898 H 0.67484 0.76734 0.54054 0.0
H1899 H 0.6968 0.73658 0.42427 0.0
H1900 H 0.72254 0.73545 0.45536 0.0
H1901 H 0.70045 0.81453 0.47779 0.0
H1902 H 0.67525 0.81674 0.44619 0.0
H1903 H 0.676 0.75108 0.50078 0.0
H1904 H 0.78041 0.84048 0.47117 0.0
H1905 H 0.82481 0.86955 0.44526 0.0
H1906 H 0.85155 0.78765 0.44855 0.0
H1907 H 0.80633 0.75723 0.47394 0.0
C1908 C 0.75106 0.7211 0.57257 0.0
C1909 C 0.76348 0.69733 0.56969 0.0
C1910 C 0.74799 0.73972 0.55704 0.0
C1911 C 0.75519 0.73339 0.53809 0.0
C1912 C 0.76877 0.71057 0.53517 0.0
C1913 C 0.77325 0.69291 0.55093 0.0
C1914 C 0.74568 0.74813 0.52128 0.0
C1915 C 0.77102 0.76613 0.5067 0.0
C1916 C 0.71128 0.74358 0.51935 0.0
C1917 C 0.68261 0.72333 0.53363 0.0
C1918 C 0.67121 0.68755 0.53752 0.0
C1919 C 0.64454 0.66881 0.55123 0.0
C1920 C 0.62888 0.6855 0.56101 0.0
C1921 C 0.63978 0.72094 0.55705 0.0
C1922 C 0.66647 0.73981 0.54337 0.0
C1923 C 0.69754 0.754 0.4357 0.0
C1924 C 0.68414 0.77694 0.43272 0.0
C1925 C 0.71253 0.75347 0.45341 0.0
C1926 C 0.71393 0.77538 0.46864 0.0
C1927 C 0.69996 0.79782 0.46601 0.0
C1928 C 0.68545 0.79889 0.44805 0.0
C1929 C 0.72747 0.7721 0.48766 0.0
C1930 C 0.70288 0.75624 0.50272 0.0
C1931 C 0.76234 0.77819 0.48982 0.0
C1932 C 0.78971 0.79641 0.47447 0.0
C1933 C 0.79543 0.82839 0.46625 0.0
C1934 C 0.82081 0.84517 0.45164 0.0
C1935 C 0.84108 0.83055 0.44531 0.0
C1936 C 0.83588 0.799 0.4535 0.0
C1937 C 0.8103 0.78193 0.46797 0.0
H1938 H 0.86074 0.84361 0.43401 0.0
H1939 H 0.60825 0.67095 0.57163 0.0
H1940 H 0.8773 0.70066 0.95004 0.0
H1941 H 0.90959 0.72128 0.98105 0.0
H1942 H 0.98611 0.69367 0.96075 0.0
H1943 H 0.95436 0.67339 0.93004 0.0
H1944 H 0.96736 0.67507 -0.00102 0.0
H1945 H 0.00343 0.77657 0.95572 0.0
H1946 H 0.99122 0.81629 0.93581 0.0
H1947 H 0.95004 0.84203 0.98594 0.0
H1948 H 0.96168 0.80226 0.00613 0.0
H1949 H 0.13731 0.81615 0.0433 0.0
H1950 H 0.09224 0.79867 0.01761 0.0
H1951 H 0.00957 0.74324 0.06008 0.0
H1952 H 0.0544 0.76032 0.08557 0.0
H1953 H 0.02653 0.80405 0.01303 0.0
H1954 H 0.95887 0.66046 0.03939 0.0
H1955 H 0.9729 0.62128 0.05856 0.0
H1956 H 0.08153 0.68092 0.04005 0.0
H1957 H 0.06798 0.72001 0.02053 0.0
C1958 C 0.90056 0.69833 0.95246 0.0
C1959 C 0.91353 0.68565 0.9377 0.0
C1960 C 0.91906 0.71029 0.97005 0.0
C1961 C 0.95036 0.70924 0.97304 0.0
C1962 C 0.96203 0.6947 0.9587 0.0
C1963 C 0.94393 0.68322 0.94116 0.0
C1964 C 0.97259 0.72498 0.99047 0.0
C1965 C 0.97988 0.70317 0.0022 0.0
C1966 C 0.9893 0.76174 0.99447 0.0
C1967 C 0.98299 0.78611 0.98237 0.0
C1968 C 0.99156 0.79053 0.96247 0.0
C1969 C 0.98479 0.81306 0.95114 0.0
C1970 C 0.96964 0.83142 0.95958 0.0
C1971 C 0.96161 0.82764 0.97941 0.0
C1972 C 0.96833 0.80516 0.9908 0.0
C1973 C 0.10946 0.80094 0.0471 0.0
C1974 C 0.09903 0.79014 0.06635 0.0
C1975 C 0.08384 0.79123 0.03254 0.0
C1976 C 0.0477 0.76993 0.03706 0.0
C1977 C 0.03733 0.76001 0.05639 0.0
C1978 C 0.06286 0.76992 0.07091 0.0
C1979 C 0.02127 0.75408 0.02135 0.0
C1980 C 0.01334 0.77585 0.01 0.0
C1981 C 0.00425 0.71732 0.01749 0.0
C1982 C 0.01248 0.69338 0.02872 0.0
C1983 C 0.9857 0.66508 0.03936 0.0
C1984 C 0.99357 0.6429 0.05028 0.0
C1985 C 0.02812 0.64869 0.05058 0.0
C1986 C 0.05482 0.67655 0.03987 0.0
C1987 C 0.04706 0.69873 0.02889 0.0
H1988 H 0.03417 0.63155 0.05908 0.0
H1989 H 0.96422 0.84868 0.95077 0.0
H1990 H 0.24561 0.96652 0.41154 0.0
H1991 H 0.25769 0.99896 0.44182 0.0
H1992 H 0.20505 0.9006 0.47374 0.0
H1993 H 0.19119 0.86737 0.44303 0.0
H1994 H 0.19215 0.95181 0.48961 0.0
H1995 H 0.29216 0.94256 0.47039 0.0
H1996 H 0.33748 0.94573 0.44777 0.0
H1997 H 0.37944 0.05761 0.44075 0.0
H1998 H 0.33395 0.05499 0.46309 0.0
H1999 H 0.27926 0.02927 0.57821 0.0
H2000 H 0.25728 0.99376 0.54886 0.0
H2001 H 0.30789 0.08864 0.51387 0.0
H2002 H 0.33116 0.1247 0.5434 0.0
H2003 H 0.32026 0.03683 0.50046 0.0
H2004 H 0.21735 0.0438 0.5203 0.0
H2005 H 0.17745 0.04016 0.54674 0.0
H2006 H 0.14422 0.9304 0.55542 0.0
H2007 H 0.18413 0.93345 0.5291 0.0
C2008 C 0.23588 0.95154 0.42489 0.0
C2009 C 0.21741 0.91426 0.42483 0.0
C2010 C 0.24301 0.97024 0.44224 0.0
C2011 C 0.23278 0.9522 0.46003 0.0
C2012 C 0.21321 0.91497 0.46012 0.0
C2013 C 0.20553 0.89607 0.44261 0.0
C2014 C 0.24512 0.97269 0.47834 0.0
C2015 C 0.22014 0.97011 0.49209 0.0
C2016 C 0.28168 0.9967 0.48153 0.0
C2017 C 0.30945 0.99852 0.4683 0.0
C2018 C 0.3109 0.9678 0.46393 0.0
C2019 C 0.33664 0.9695 0.45116 0.0
C2020 C 0.36129 1.00184 0.4428 0.0
C2021 C 0.36031 0.03257 0.44723 0.0
C2022 C 0.33457 0.031 0.45996 0.0
C2023 C 0.28561 0.04276 0.56431 0.0
C2024 C 0.30694 0.07987 0.56311 0.0
C2025 C 0.27286 0.02234 0.54754 0.0
C2026 C 0.28055 0.03859 0.52923 0.0
C2027 C 0.30159 0.07566 0.52792 0.0
C2028 C 0.3147 0.0962 0.54476 0.0
C2029 C 0.26736 0.0166 0.51147 0.0
C2030 C 0.29224 0.01873 0.49789 0.0
C2031 C 0.23087 0.99195 0.50863 0.0
C2032 C 0.20381 0.98889 0.52278 0.0
C2033 C 0.20128 0.01881 0.52773 0.0
C2034 C 0.17879 0.01689 0.54274 0.0
C2035 C 0.15853 0.98514 0.55282 0.0
C2036 C 0.16001 0.95499 0.54761 0.0
C2037 C 0.18246 0.95675 0.53259 0.0
H2038 H 0.14176 0.98398 0.56471 0.0
H2039 H 0.38119 0.00311 0.43292 0.0
loop_
_geom_bond_atom_site_label_1
_geom_bond_atom_site_label_2
_geom_bond_distance
_geom_bond_site_symmetry_2
_ccdc_geom_bond_type
Zn0 O6 1.969 . S
Zn0 O7 1.965 . S
Zn0 O11 2.024 . S
Zn0 O16 1.969 . S
Zn1 O8 1.969 . S
Zn1 O14 1.969 . S
Zn1 O15 1.965 . S
Zn1 O17 2.024 . S
C2 O3 1.229 . S
C2 O11 1.058 . S
O3 C2 1.229 . S
C4 O5 1.229 . S
C4 O17 1.058 . S
O5 C4 1.229 . S
O6 Zn0 1.969 . S
O6 C9 1.267 . S
O7 Zn0 1.965 . S
O7 C18 1.260 . S
O8 Zn1 1.969 . S
O8 C18 1.258 . S
C9 O6 1.267 . S
C9 O10 1.228 . S
O10 C9 1.228 . S
O11 Zn0 2.024 . S
O11 C2 1.058 . S
C12 O13 1.228 . S
C12 O14 1.267 . S
O13 C12 1.228 . S
O14 Zn1 1.969 . S
O14 C12 1.267 . S
O15 Zn1 1.965 . S
O15 C19 1.260 . S
O16 Zn0 1.969 . S
O16 C19 1.258 . S
O17 Zn1 2.024 . S
O17 C4 1.058 . S
C18 O7 1.260 . S
C18 O8 1.258 . S
C19 O15 1.260 . S
C19 O16 1.258 . S
Zn20 O26 1.969 . S
Zn20 O27 1.965 . S
Zn20 O31 2.024 . S
Zn20 O36 1.969 . S
Zn21 O28 1.969 . S
Zn21 O34 1.969 . S
Zn21 O35 1.965 . S
Zn21 O37 2.024 . S
C22 O23 1.229 . S
C22 O31 1.058 . S
O23 C22 1.229 . S
C24 O25 1.229 . S
C24 O37 1.058 . S
O25 C24 1.229 . S
O26 Zn20 1.969 . S
O26 C29 1.267 . S
O27 Zn20 1.965 . S
O27 C38 1.260 . S
O28 Zn21 1.969 . S
O28 C38 1.258 . S
C29 O26 1.267 . S
C29 O30 1.228 . S
O30 C29 1.228 . S
O31 Zn20 2.024 . S
O31 C22 1.058 . S
C32 O33 1.228 . S
C32 O34 1.267 . S
O33 C32 1.228 . S
O34 Zn21 1.969 . S
O34 C32 1.267 . S
O35 Zn21 1.965 . S
O35 C39 1.260 . S
O36 Zn20 1.969 . S
O36 C39 1.258 . S
O37 Zn21 2.024 . S
O37 C24 1.058 . S
C38 O27 1.260 . S
C38 O28 1.258 . S
C39 O35 1.260 . S
C39 O36 1.258 . S
Zn40 O46 1.969 . S
Zn40 O47 1.965 . S
Zn40 O51 2.024 . S
Zn40 O56 1.969 . S
Zn41 O48 1.969 . S
Zn41 O54 1.969 . S
Zn41 O55 1.965 . S
Zn41 O57 2.024 . S
C42 O43 1.229 . S
C42 O51 1.058 . S
O43 C42 1.229 . S
C44 O45 1.229 . S
C44 O57 1.058 . S
O45 C44 1.229 . S
O46 Zn40 1.969 . S
O46 C49 1.267 . S
O47 Zn40 1.965 . S
O47 C58 1.260 . S
O48 Zn41 1.969 . S
O48 C58 1.258 . S
C49 O46 1.267 . S
C49 O50 1.228 . S
O50 C49 1.228 . S
O51 Zn40 2.024 . S
O51 C42 1.058 . S
C52 O53 1.228 . S
C52 O54 1.267 . S
O53 C52 1.228 . S
O54 Zn41 1.969 . S
O54 C52 1.267 . S
O55 Zn41 1.965 . S
O55 C59 1.260 . S
O56 Zn40 1.969 . S
O56 C59 1.258 . S
O57 Zn41 2.024 . S
O57 C44 1.058 . S
C58 O47 1.260 . S
C58 O48 1.258 . S
C59 O55 1.260 . S
C59 O56 1.258 . S
Zn60 O66 1.969 . S
Zn60 O67 1.965 . S
Zn60 O71 2.024 . S
Zn60 O76 1.969 . S
Zn61 O68 1.969 . S
Zn61 O74 1.969 . S
Zn61 O75 1.965 . S
Zn61 O77 2.024 . S
C62 O63 1.229 . S
C62 O71 1.058 . S
O63 C62 1.229 . S
C64 O65 1.229 . S
C64 O77 1.058 . S
O65 C64 1.229 . S
O66 Zn60 1.969 . S
O66 C69 1.267 . S
O67 Zn60 1.965 . S
O67 C78 1.260 . S
O68 Zn61 1.969 . S
O68 C78 1.258 . S
C69 O66 1.267 . S
C69 O70 1.228 . S
O70 C69 1.228 . S
O71 Zn60 2.024 . S
O71 C62 1.058 . S
C72 O73 1.228 . S
C72 O74 1.267 . S
O73 C72 1.228 . S
O74 Zn61 1.969 . S
O74 C72 1.267 . S
O75 Zn61 1.965 . S
O75 C79 1.260 . S
O76 Zn60 1.969 . S
O76 C79 1.258 . S
O77 Zn61 2.024 . S
O77 C64 1.058 . S
C78 O67 1.260 . S
C78 O68 1.258 . S
C79 O75 1.260 . S
C79 O76 1.258 . S
Zn80 O86 1.969 . S
Zn80 O87 1.965 . S
Zn80 O91 2.024 . S
Zn80 O96 1.969 . S
Zn81 O88 1.969 . S
Zn81 O94 1.969 . S
Zn81 O95 1.965 . S
Zn81 O97 2.024 . S
C82 O83 1.229 . S
C82 O91 1.058 . S
O83 C82 1.229 . S
C84 O85 1.229 . S
C84 O97 1.058 . S
O85 C84 1.229 . S
O86 Zn80 1.969 . S
O86 C89 1.267 . S
O87 Zn80 1.965 . S
O87 C98 1.260 . S
O88 Zn81 1.969 . S
O88 C98 1.258 . S
C89 O86 1.267 . S
C89 O90 1.228 . S
O90 C89 1.228 . S
O91 Zn80 2.024 . S
O91 C82 1.058 . S
C92 O93 1.228 . S
C92 O94 1.267 . S
O93 C92 1.228 . S
O94 Zn81 1.969 . S
O94 C92 1.267 . S
O95 Zn81 1.965 . S
O95 C99 1.260 . S
O96 Zn80 1.969 . S
O96 C99 1.258 . S
O97 Zn81 2.024 . S
O97 C84 1.058 . S
C98 O87 1.260 . S
C98 O88 1.258 . S
C99 O95 1.260 . S
C99 O96 1.258 . S
Zn100 O106 1.969 . S
Zn100 O107 1.965 . S
Zn100 O111 2.024 . S
Zn100 O116 1.969 . S
Zn101 O108 1.969 . S
Zn101 O114 1.969 . S
Zn101 O115 1.965 . S
Zn101 O117 2.024 . S
C102 O103 1.229 . S
C102 O111 1.058 . S
O103 C102 1.229 . S
C104 O105 1.229 . S
C104 O117 1.058 . S
O105 C104 1.229 . S
O106 Zn100 1.969 . S
O106 C109 1.267 . S
O107 Zn100 1.965 . S
O107 C118 1.260 . S
O108 Zn101 1.969 . S
O108 C118 1.258 . S
C109 O106 1.267 . S
C109 O110 1.228 . S
O110 C109 1.228 . S
O111 Zn100 2.024 . S
O111 C102 1.058 . S
C112 O113 1.228 . S
C112 O114 1.267 . S
O113 C112 1.228 . S
O114 Zn101 1.969 . S
O114 C112 1.267 . S
O115 Zn101 1.965 . S
O115 C119 1.260 . S
O116 Zn100 1.969 . S
O116 C119 1.258 . S
O117 Zn101 2.024 . S
O117 C104 1.058 . S
C118 O107 1.260 . S
C118 O108 1.258 . S
C119 O115 1.260 . S
C119 O116 1.258 . S
Zn120 O126 1.969 . S
Zn120 O127 1.965 . S
Zn120 O131 2.024 . S
Zn120 O136 1.969 . S
Zn121 O128 1.969 . S
Zn121 O134 1.969 . S
Zn121 O135 1.965 . S
Zn121 O137 2.024 . S
C122 O123 1.229 . S
C122 O131 1.058 . S
O123 C122 1.229 . S
C124 O125 1.229 . S
C124 O137 1.058 . S
O125 C124 1.229 . S
O126 Zn120 1.969 . S
O126 C129 1.267 . S
O127 Zn120 1.965 . S
O127 C138 1.260 . S
O128 Zn121 1.969 . S
O128 C138 1.258 . S
C129 O126 1.267 . S
C129 O130 1.228 . S
O130 C129 1.228 . S
O131 Zn120 2.024 . S
O131 C122 1.058 . S
C132 O133 1.228 . S
C132 O134 1.267 . S
O133 C132 1.228 . S
O134 Zn121 1.969 . S
O134 C132 1.267 . S
O135 Zn121 1.965 . S
O135 C139 1.260 . S
O136 Zn120 1.969 . S
O136 C139 1.258 . S
O137 Zn121 2.024 . S
O137 C124 1.058 . S
C138 O127 1.260 . S
C138 O128 1.258 . S
C139 O135 1.260 . S
C139 O136 1.258 . S
Zn140 O146 1.969 . S
Zn140 O147 1.965 . S
Zn140 O151 2.024 . S
Zn140 O156 1.969 . S
Zn141 O148 1.969 . S
Zn141 O154 1.969 . S
Zn141 O155 1.965 . S
Zn141 O157 2.024 . S
C142 O143 1.229 . S
C142 O151 1.058 . S
O143 C142 1.229 . S
C144 O145 1.229 . S
C144 O157 1.058 . S
O145 C144 1.229 . S
O146 Zn140 1.969 . S
O146 C149 1.267 . S
O147 Zn140 1.965 . S
O147 C158 1.260 . S
O148 Zn141 1.969 . S
O148 C158 1.258 . S
C149 O146 1.267 . S
C149 O150 1.228 . S
O150 C149 1.228 . S
O151 Zn140 2.024 . S
O151 C142 1.058 . S
C152 O153 1.228 . S
C152 O154 1.267 . S
O153 C152 1.228 . S
O154 Zn141 1.969 . S
O154 C152 1.267 . S
O155 Zn141 1.965 . S
O155 C159 1.260 . S
O156 Zn140 1.969 . S
O156 C159 1.258 . S
O157 Zn141 2.024 . S
O157 C144 1.058 . S
C158 O147 1.260 . S
C158 O148 1.258 . S
C159 O155 1.260 . S
C159 O156 1.258 . S
Zn160 O166 1.969 . S
Zn160 O167 1.965 . S
Zn160 O171 2.024 . S
Zn160 O176 1.969 . S
Zn161 O168 1.969 . S
Zn161 O174 1.969 . S
Zn161 O175 1.965 . S
Zn161 O177 2.024 . S
C162 O163 1.229 . S
C162 O171 1.058 . S
O163 C162 1.229 . S
C164 O165 1.229 . S
C164 O177 1.058 . S
O165 C164 1.229 . S
O166 Zn160 1.969 . S
O166 C169 1.267 . S
O167 Zn160 1.965 . S
O167 C178 1.260 . S
O168 Zn161 1.969 . S
O168 C178 1.258 . S
C169 O166 1.267 . S
C169 O170 1.228 . S
O170 C169 1.228 . S
O171 Zn160 2.024 . S
O171 C162 1.058 . S
C172 O173 1.228 . S
C172 O174 1.267 . S
O173 C172 1.228 . S
O174 Zn161 1.969 . S
O174 C172 1.267 . S
O175 Zn161 1.965 . S
O175 C179 1.260 . S
O176 Zn160 1.969 . S
O176 C179 1.258 . S
O177 Zn161 2.024 . S
O177 C164 1.058 . S
C178 O167 1.260 . S
C178 O168 1.258 . S
C179 O175 1.260 . S
C179 O176 1.258 . S
Zn180 O186 1.969 . S
Zn180 O187 1.965 . S
Zn180 O191 2.024 . S
Zn180 O196 1.969 . S
Zn181 O188 1.969 . S
Zn181 O194 1.969 . S
Zn181 O195 1.965 . S
Zn181 O197 2.024 . S
C182 O183 1.229 . S
C182 O191 1.058 . S
O183 C182 1.229 . S
C184 O185 1.229 . S
C184 O197 1.058 . S
O185 C184 1.229 . S
O186 Zn180 1.969 . S
O186 C189 1.267 . S
O187 Zn180 1.965 . S
O187 C198 1.260 . S
O188 Zn181 1.969 . S
O188 C198 1.258 . S
C189 O186 1.267 . S
C189 O190 1.228 . S
O190 C189 1.228 . S
O191 Zn180 2.024 . S
O191 C182 1.058 . S
C192 O193 1.228 . S
C192 O194 1.267 . S
O193 C192 1.228 . S
O194 Zn181 1.969 . S
O194 C192 1.267 . S
O195 Zn181 1.965 . S
O195 C199 1.260 . S
O196 Zn180 1.969 . S
O196 C199 1.258 . S
O197 Zn181 2.024 . S
O197 C184 1.058 . S
C198 O187 1.260 . S
C198 O188 1.258 . S
C199 O195 1.260 . S
C199 O196 1.258 . S
Zn200 O206 1.969 . S
Zn200 O207 1.965 . S
Zn200 O211 2.024 . S
Zn200 O216 1.969 . S
Zn201 O208 1.969 . S
Zn201 O214 1.969 . S
Zn201 O215 1.965 . S
Zn201 O217 2.024 . S
C202 O203 1.229 . S
C202 O211 1.058 . S
O203 C202 1.229 . S
C204 O205 1.229 . S
C204 O217 1.058 . S
O205 C204 1.229 . S
O206 Zn200 1.969 . S
O206 C209 1.267 . S
O207 Zn200 1.965 . S
O207 C218 1.260 . S
O208 Zn201 1.969 . S
O208 C218 1.258 . S
C209 O206 1.267 . S
C209 O210 1.228 . S
O210 C209 1.228 . S
O211 Zn200 2.024 . S
O211 C202 1.058 . S
C212 O213 1.228 . S
C212 O214 1.267 . S
O213 C212 1.228 . S
O214 Zn201 1.969 . S
O214 C212 1.267 . S
O215 Zn201 1.965 . S
O215 C219 1.260 . S
O216 Zn200 1.969 . S
O216 C219 1.258 . S
O217 Zn201 2.024 . S
O217 C204 1.058 . S
C218 O207 1.260 . S
C218 O208 1.258 . S
C219 O215 1.260 . S
C219 O216 1.258 . S
Zn220 O226 1.969 . S
Zn220 O227 1.965 . S
Zn220 O231 2.024 . S
Zn220 O236 1.969 . S
Zn221 O228 1.969 . S
Zn221 O234 1.969 . S
Zn221 O235 1.965 . S
Zn221 O237 2.024 . S
C222 O223 1.229 . S
C222 O231 1.058 . S
O223 C222 1.229 . S
C224 O225 1.229 . S
C224 O237 1.058 . S
O225 C224 1.229 . S
O226 Zn220 1.969 . S
O226 C229 1.267 . S
O227 Zn220 1.965 . S
O227 C238 1.260 . S
O228 Zn221 1.969 . S
O228 C238 1.258 . S
C229 O226 1.267 . S
C229 O230 1.228 . S
O230 C229 1.228 . S
O231 Zn220 2.024 . S
O231 C222 1.058 . S
C232 O233 1.228 . S
C232 O234 1.267 . S
O233 C232 1.228 . S
O234 Zn221 1.969 . S
O234 C232 1.267 . S
O235 Zn221 1.965 . S
O235 C239 1.260 . S
O236 Zn220 1.969 . S
O236 C239 1.258 . S
O237 Zn221 2.024 . S
O237 C224 1.058 . S
C238 O227 1.260 . S
C238 O228 1.258 . S
C239 O235 1.260 . S
C239 O236 1.258 . S
H240 C258 0.951 . S
H241 C260 0.951 1_545 S
H242 C262 0.950 . S
H243 C263 0.950 . S
H244 C265 0.950 . S
H245 C268 0.950 . S
H246 C269 0.950 . S
H247 C271 0.950 . S
H248 C272 0.950 . S
H249 C273 0.951 . S
H250 C275 0.951 . S
H251 C277 0.950 . S
H252 C278 0.950 . S
H253 C280 0.950 . S
H254 C283 0.950 . S
H255 C284 0.950 . S
H256 C286 0.950 . S
H257 C287 0.950 . S
C258 H240 0.951 . S
C258 C259 1.366 . S
C258 C260 1.388 . S
C259 C258 1.366 . S
C259 C263 1.385 . S
C260 H241 0.951 1_565 S
C260 C258 1.388 . S
C260 C261 1.366 . S
C261 C260 1.366 . S
C261 C262 1.414 . S
C261 C264 1.499 1_565 S
C262 H242 0.950 . S
C262 C261 1.414 . S
C262 C263 1.374 . S
C263 H243 0.950 . S
C263 C259 1.385 . S
C263 C262 1.374 . S
C264 C261 1.499 1_545 S
C264 C265 1.373 . S
C264 C266 1.389 . S
C265 H244 0.950 . S
C265 C264 1.373 . S
C265 C281 1.377 . S
C266 C264 1.389 . S
C266 C267 1.524 . S
C266 C280 1.377 . S
C267 C266 1.524 . S
C267 C268 1.397 . S
C267 C272 1.363 . S
C268 H245 0.950 . S
C268 C267 1.397 . S
C268 C269 1.334 . S
C269 H246 0.950 . S
C269 C268 1.334 . S
C269 C270 1.287 . S
C270 C269 1.287 . S
C270 C271 1.524 . S
C270 H289 0.913 . S
C271 H247 0.950 . S
C271 C270 1.524 . S
C271 C272 1.415 . S
C272 H248 0.950 . S
C272 C267 1.363 . S
C272 C271 1.415 . S
C273 H249 0.951 . S
C273 C274 1.366 . S
C273 C275 1.388 . S
C274 C273 1.366 . S
C274 C278 1.385 . S
C275 H250 0.951 . S
C275 C273 1.388 . S
C275 C276 1.366 . S
C276 C275 1.366 . S
C276 C277 1.414 . S
C276 C279 1.499 . S
C277 H251 0.950 . S
C277 C276 1.414 . S
C277 C278 1.374 . S
C278 H252 0.950 . S
C278 C274 1.385 . S
C278 C277 1.374 . S
C279 C276 1.499 . S
C279 C280 1.373 . S
C279 C281 1.389 . S
C280 H253 0.950 . S
C280 C266 1.377 . S
C280 C279 1.373 . S
C281 C265 1.377 . S
C281 C279 1.389 . S
C281 C282 1.524 . S
C282 C281 1.524 . S
C282 C283 1.397 . S
C282 C287 1.363 . S
C283 H254 0.950 . S
C283 C282 1.397 . S
C283 C284 1.334 . S
C284 H255 0.950 . S
C284 C283 1.334 . S
C284 C285 1.287 . S
C285 C284 1.287 . S
C285 C286 1.524 . S
C285 H288 0.999 . S
C286 H256 0.950 . S
C286 C285 1.524 . S
C286 C287 1.415 . S
C287 H257 0.950 . S
C287 C282 1.363 . S
C287 C286 1.415 . S
H288 C285 0.999 . S
H289 C270 0.913 . S
H290 C308 0.951 . S
H291 C310 0.951 . S
H292 C312 0.950 . S
H293 C313 0.950 . S
H294 C315 0.950 . S
H295 C318 0.950 . S
H296 C319 0.950 . S
H297 C321 0.950 . S
H298 C322 0.950 . S
H299 C323 0.951 . S
H300 C325 0.951 . S
H301 C327 0.950 . S
H302 C328 0.950 . S
H303 C330 0.950 . S
H304 C333 0.950 . S
H305 C334 0.950 . S
H306 C336 0.950 . S
H307 C337 0.950 . S
C308 H290 0.951 . S
C308 C309 1.366 . S
C308 C310 1.388 . S
C309 C308 1.366 . S
C309 C313 1.385 . S
C310 H291 0.951 . S
C310 C308 1.388 . S
C310 C311 1.366 . S
C311 C310 1.366 . S
C311 C312 1.414 . S
C311 C314 1.499 . S
C312 H292 0.950 . S
C312 C311 1.414 . S
C312 C313 1.374 . S
C313 H293 0.950 . S
C313 C309 1.385 . S
C313 C312 1.374 . S
C314 C311 1.499 . S
C314 C315 1.373 . S
C314 C316 1.389 . S
C315 H294 0.950 . S
C315 C314 1.373 . S
C315 C331 1.377 . S
C316 C314 1.389 . S
C316 C317 1.524 . S
C316 C330 1.377 . S
C317 C316 1.524 . S
C317 C318 1.397 . S
C317 C322 1.363 . S
C318 H295 0.950 . S
C318 C317 1.397 . S
C318 C319 1.334 . S
C319 H296 0.950 . S
C319 C318 1.334 . S
C319 C320 1.287 . S
C320 C319 1.287 . S
C320 C321 1.524 . S
C320 H339 0.913 . S
C321 H297 0.950 . S
C321 C320 1.524 . S
C321 C322 1.415 . S
C322 H298 0.950 . S
C322 C317 1.363 . S
C322 C321 1.415 . S
C323 H299 0.951 . S
C323 C324 1.366 . S
C323 C325 1.388 1_655 S
C324 C323 1.366 . S
C324 C328 1.385 1_655 S
C325 H300 0.951 . S
C325 C323 1.388 1_455 S
C325 C326 1.366 . S
C326 C325 1.366 . S
C326 C327 1.414 . S
C326 C329 1.499 . S
C327 H301 0.950 . S
C327 C326 1.414 . S
C327 C328 1.374 . S
C328 H302 0.950 . S
C328 C324 1.385 1_455 S
C328 C327 1.374 . S
C329 C326 1.499 . S
C329 C330 1.373 . S
C329 C331 1.389 . S
C330 H303 0.950 . S
C330 C316 1.377 . S
C330 C329 1.373 . S
C331 C315 1.377 . S
C331 C329 1.389 . S
C331 C332 1.524 . S
C332 C331 1.524 . S
C332 C333 1.397 . S
C332 C337 1.363 . S
C333 H304 0.950 . S
C333 C332 1.397 . S
C333 C334 1.334 . S
C334 H305 0.950 . S
C334 C333 1.334 . S
C334 C335 1.287 . S
C335 C334 1.287 . S
C335 C336 1.524 . S
C335 H338 0.999 . S
C336 H306 0.950 . S
C336 C335 1.524 . S
C336 C337 1.415 . S
C337 H307 0.950 . S
C337 C332 1.363 . S
C337 C336 1.415 . S
H338 C335 0.999 . S
H339 C320 0.913 . S
H340 C358 0.951 . S
H341 C360 0.951 . S
H342 C362 0.950 . S
H343 C363 0.950 . S
H344 C365 0.950 . S
H345 C368 0.950 . S
H346 C369 0.950 1_565 S
H347 C371 0.950 . S
H348 C372 0.950 . S
H349 C373 0.951 . S
H350 C375 0.951 . S
H351 C377 0.950 1_655 S
H352 C378 0.950 . S
H353 C380 0.950 . S
H354 C383 0.950 . S
H355 C384 0.950 . S
H356 C386 0.950 . S
H357 C387 0.950 . S
C358 H340 0.951 . S
C358 C359 1.366 1_545 S
C358 C360 1.388 . S
C359 C358 1.366 1_565 S
C359 C363 1.385 . S
C360 H341 0.951 . S
C360 C358 1.388 . S
C360 C361 1.366 . S
C361 C360 1.366 . S
C361 C362 1.414 . S
C361 C364 1.499 . S
C362 H342 0.950 . S
C362 C361 1.414 . S
C362 C363 1.374 1_545 S
C363 H343 0.950 . S
C363 C359 1.385 . S
C363 C362 1.374 1_565 S
C364 C361 1.499 . S
C364 C365 1.373 . S
C364 C366 1.389 . S
C365 H344 0.950 . S
C365 C364 1.373 . S
C365 C381 1.377 . S
C366 C364 1.389 . S
C366 C367 1.524 . S
C366 C380 1.377 . S
C367 C366 1.524 . S
C367 C368 1.397 . S
C367 C372 1.363 . S
C368 H345 0.950 . S
C368 C367 1.397 . S
C368 C369 1.334 . S
C369 H346 0.950 1_545 S
C369 C368 1.334 . S
C369 C370 1.287 . S
C370 C369 1.287 . S
C370 C371 1.524 . S
C370 H389 0.913 . S
C371 H347 0.950 . S
C371 C370 1.524 . S
C371 C372 1.415 . S
C372 H348 0.950 . S
C372 C367 1.363 . S
C372 C371 1.415 . S
C373 H349 0.951 . S
C373 C374 1.366 . S
C373 C375 1.388 . S
C374 C373 1.366 . S
C374 C378 1.385 . S
C375 H350 0.951 . S
C375 C373 1.388 . S
C375 C376 1.366 . S
C376 C375 1.366 . S
C376 C377 1.414 . S
C376 C379 1.499 1_455 S
C377 H351 0.950 1_455 S
C377 C376 1.414 . S
C377 C378 1.374 . S
C378 H352 0.950 . S
C378 C374 1.385 . S
C378 C377 1.374 . S
C379 C376 1.499 1_655 S
C379 C380 1.373 . S
C379 C381 1.389 . S
C380 H353 0.950 . S
C380 C366 1.377 . S
C380 C379 1.373 . S
C381 C365 1.377 . S
C381 C379 1.389 . S
C381 C382 1.524 . S
C382 C381 1.524 . S
C382 C383 1.397 . S
C382 C387 1.363 . S
C383 H354 0.950 . S
C383 C382 1.397 . S
C383 C384 1.334 . S
C384 H355 0.950 . S
C384 C383 1.334 . S
C384 C385 1.287 . S
C385 C384 1.287 . S
C385 C386 1.524 . S
C385 H388 0.999 . S
C386 H356 0.950 . S
C386 C385 1.524 . S
C386 C387 1.415 . S
C387 H357 0.950 . S
C387 C382 1.363 . S
C387 C386 1.415 . S
H388 C385 0.999 . S
H389 C370 0.913 . S
H390 C408 0.951 . S
H391 C410 0.951 . S
H392 C412 0.950 . S
H393 C413 0.950 . S
H394 C415 0.950 . S
H395 C418 0.950 . S
H396 C419 0.950 . S
H397 C421 0.950 . S
H398 C422 0.950 . S
H399 C423 0.951 . S
H400 C425 0.951 . S
H401 C427 0.950 1_565 S
H402 C428 0.950 . S
H403 C430 0.950 . S
H404 C433 0.950 . S
H405 C434 0.950 . S
H406 C436 0.950 . S
H407 C437 0.950 . S
C408 H390 0.951 . S
C408 C409 1.366 . S
C408 C410 1.388 . S
C409 C408 1.366 . S
C409 C413 1.385 . S
C410 H391 0.951 . S
C410 C408 1.388 . S
C410 C411 1.366 . S
C411 C410 1.366 . S
C411 C412 1.414 . S
C411 C414 1.499 . S
C412 H392 0.950 . S
C412 C411 1.414 . S
C412 C413 1.374 . S
C413 H393 0.950 . S
C413 C409 1.385 . S
C413 C412 1.374 . S
C414 C411 1.499 . S
C414 C415 1.373 . S
C414 C416 1.389 . S
C415 H394 0.950 . S
C415 C414 1.373 . S
C415 C431 1.377 . S
C416 C414 1.389 . S
C416 C417 1.524 . S
C416 C430 1.377 . S
C417 C416 1.524 . S
C417 C418 1.397 . S
C417 C422 1.363 . S
C418 H395 0.950 . S
C418 C417 1.397 . S
C418 C419 1.334 . S
C419 H396 0.950 . S
C419 C418 1.334 . S
C419 C420 1.287 . S
C420 C419 1.287 . S
C420 C421 1.524 . S
C420 H439 0.913 . S
C421 H397 0.950 . S
C421 C420 1.524 . S
C421 C422 1.415 . S
C422 H398 0.950 . S
C422 C417 1.363 . S
C422 C421 1.415 . S
C423 H399 0.951 . S
C423 C424 1.366 . S
C423 C425 1.388 . S
C424 C423 1.366 . S
C424 C428 1.385 . S
C425 H400 0.951 . S
C425 C423 1.388 . S
C425 C426 1.366 . S
C426 C425 1.366 . S
C426 C427 1.414 . S
C426 C429 1.499 1_545 S
C427 H401 0.950 1_545 S
C427 C426 1.414 . S
C427 C428 1.374 . S
C428 H402 0.950 . S
C428 C424 1.385 . S
C428 C427 1.374 . S
C429 C426 1.499 1_565 S
C429 C430 1.373 . S
C429 C431 1.389 . S
C430 H403 0.950 . S
C430 C416 1.377 . S
C430 C429 1.373 . S
C431 C415 1.377 . S
C431 C429 1.389 . S
C431 C432 1.524 . S
C432 C431 1.524 . S
C432 C433 1.397 . S
C432 C437 1.363 . S
C433 H404 0.950 . S
C433 C432 1.397 . S
C433 C434 1.334 1_565 S
C434 H405 0.950 . S
C434 C433 1.334 1_545 S
C434 C435 1.287 . S
C435 C434 1.287 . S
C435 C436 1.524 . S
C435 H438 0.999 . S
C436 H406 0.950 . S
C436 C435 1.524 . S
C436 C437 1.415 1_545 S
C437 H407 0.950 . S
C437 C432 1.363 . S
C437 C436 1.415 1_565 S
H438 C435 0.999 . S
H439 C420 0.913 . S
H440 C458 0.951 . S
H441 C460 0.951 . S
H442 C462 0.950 . S
H443 C463 0.950 . S
H444 C465 0.950 . S
H445 C468 0.950 . S
H446 C469 0.950 . S
H447 C471 0.950 . S
H448 C472 0.950 . S
H449 C473 0.951 . S
H450 C475 0.951 . S
H451 C477 0.950 . S
H452 C478 0.950 . S
H453 C480 0.950 . S
H454 C483 0.950 . S
H455 C484 0.950 . S
H456 C486 0.950 . S
H457 C487 0.950 . S
C458 H440 0.951 . S
C458 C459 1.366 . S
C458 C460 1.388 1_455 S
C459 C458 1.366 . S
C459 C463 1.385 1_455 S
C460 H441 0.951 . S
C460 C458 1.388 1_655 S
C460 C461 1.366 . S
C461 C460 1.366 . S
C461 C462 1.414 . S
C461 C464 1.499 . S
C462 H442 0.950 . S
C462 C461 1.414 . S
C462 C463 1.374 . S
C463 H443 0.950 . S
C463 C459 1.385 1_655 S
C463 C462 1.374 . S
C464 C461 1.499 . S
C464 C465 1.373 . S
C464 C466 1.389 . S
C465 H444 0.950 . S
C465 C464 1.373 . S
C465 C481 1.377 . S
C466 C464 1.389 . S
C466 C467 1.524 . S
C466 C480 1.377 . S
C467 C466 1.524 . S
C467 C468 1.397 . S
C467 C472 1.363 . S
C468 H445 0.950 . S
C468 C467 1.397 . S
C468 C469 1.334 1_655 S
C469 H446 0.950 . S
C469 C468 1.334 1_455 S
C469 C470 1.287 . S
C470 C469 1.287 . S
C470 C471 1.524 . S
C470 H489 0.913 . S
C471 H447 0.950 . S
C471 C470 1.524 . S
C471 C472 1.415 1_455 S
C472 H448 0.950 . S
C472 C467 1.363 . S
C472 C471 1.415 1_655 S
C473 H449 0.951 . S
C473 C474 1.366 . S
C473 C475 1.388 . S
C474 C473 1.366 . S
C474 C478 1.385 . S
C475 H450 0.951 . S
C475 C473 1.388 . S
C475 C476 1.366 . S
C476 C475 1.366 . S
C476 C477 1.414 . S
C476 C479 1.499 . S
C477 H451 0.950 . S
C477 C476 1.414 . S
C477 C478 1.374 . S
C478 H452 0.950 . S
C478 C474 1.385 . S
C478 C477 1.374 . S
C479 C476 1.499 . S
C479 C480 1.373 . S
C479 C481 1.389 . S
C480 H453 0.950 . S
C480 C466 1.377 . S
C480 C479 1.373 . S
C481 C465 1.377 . S
C481 C479 1.389 . S
C481 C482 1.524 . S
C482 C481 1.524 . S
C482 C483 1.397 . S
C482 C487 1.363 . S
C483 H454 0.950 . S
C483 C482 1.397 . S
C483 C484 1.334 . S
C484 H455 0.950 . S
C484 C483 1.334 . S
C484 C485 1.287 . S
C485 C484 1.287 . S
C485 C486 1.524 . S
C485 H488 0.999 . S
C486 H456 0.950 . S
C486 C485 1.524 . S
C486 C487 1.415 . S
C487 H457 0.950 . S
C487 C482 1.363 . S
C487 C486 1.415 . S
H488 C485 0.999 . S
H489 C470 0.913 . S
H490 C508 0.951 . S
H491 C510 0.951 1_455 S
H492 C512 0.950 . S
H493 C513 0.950 . S
H494 C515 0.950 . S
H495 C518 0.950 . S
H496 C519 0.950 . S
H497 C521 0.950 . S
H498 C522 0.950 . S
H499 C523 0.951 . S
H500 C525 0.951 . S
H501 C527 0.950 . S
H502 C528 0.950 . S
H503 C530 0.950 . S
H504 C533 0.950 . S
H505 C534 0.950 1_545 S
H506 C536 0.950 . S
H507 C537 0.950 . S
C508 H490 0.951 . S
C508 C509 1.366 . S
C508 C510 1.388 . S
C509 C508 1.366 . S
C509 C513 1.385 . S
C510 H491 0.951 1_655 S
C510 C508 1.388 . S
C510 C511 1.366 . S
C511 C510 1.366 . S
C511 C512 1.414 . S
C511 C514 1.499 1_655 S
C512 H492 0.950 . S
C512 C511 1.414 . S
C512 C513 1.374 . S
C513 H493 0.950 . S
C513 C509 1.385 . S
C513 C512 1.374 . S
C514 C511 1.499 1_455 S
C514 C515 1.373 . S
C514 C516 1.389 . S
C515 H494 0.950 . S
C515 C514 1.373 . S
C515 C531 1.377 . S
C516 C514 1.389 . S
C516 C517 1.524 . S
C516 C530 1.377 . S
C517 C516 1.524 . S
C517 C518 1.397 . S
C517 C522 1.363 . S
C518 H495 0.950 . S
C518 C517 1.397 . S
C518 C519 1.334 . S
C519 H496 0.950 . S
C519 C518 1.334 . S
C519 C520 1.287 . S
C520 C519 1.287 . S
C520 C521 1.524 . S
C520 H539 0.913 . S
C521 H497 0.950 . S
C521 C520 1.524 . S
C521 C522 1.415 . S
C522 H498 0.950 . S
C522 C517 1.363 . S
C522 C521 1.415 . S
C523 H499 0.951 . S
C523 C524 1.366 . S
C523 C525 1.388 1_545 S
C524 C523 1.366 . S
C524 C528 1.385 1_545 S
C525 H500 0.951 . S
C525 C523 1.388 1_565 S
C525 C526 1.366 . S
C526 C525 1.366 . S
C526 C527 1.414 . S
C526 C529 1.499 . S
C527 H501 0.950 . S
C527 C526 1.414 . S
C527 C528 1.374 . S
C528 H502 0.950 . S
C528 C524 1.385 1_565 S
C528 C527 1.374 . S
C529 C526 1.499 . S
C529 C530 1.373 . S
C529 C531 1.389 . S
C530 H503 0.950 . S
C530 C516 1.377 . S
C530 C529 1.373 . S
C531 C515 1.377 . S
C531 C529 1.389 . S
C531 C532 1.524 . S
C532 C531 1.524 . S
C532 C533 1.397 . S
C532 C537 1.363 . S
C533 H504 0.950 . S
C533 C532 1.397 . S
C533 C534 1.334 . S
C534 H505 0.950 1_565 S
C534 C533 1.334 . S
C534 C535 1.287 1_565 S
C535 C534 1.287 1_545 S
C535 C536 1.524 . S
C535 H538 0.999 . S
C536 H506 0.950 . S
C536 C535 1.524 . S
C536 C537 1.415 1_545 S
C537 H507 0.950 . S
C537 C532 1.363 . S
C537 C536 1.415 1_565 S
H538 C535 0.999 . S
H539 C520 0.913 . S
H540 C558 0.951 . S
H541 C560 0.951 1_655 S
H542 C562 0.950 . S
H543 C563 0.950 . S
H544 C565 0.950 . S
H545 C568 0.950 . S
H546 C569 0.950 . S
H547 C571 0.950 . S
H548 C572 0.950 . S
H549 C573 0.951 . S
H550 C575 0.951 . S
H551 C577 0.950 . S
H552 C578 0.950 . S
H553 C580 0.950 . S
H554 C583 0.950 . S
H555 C584 0.950 . S
H556 C586 0.950 . S
H557 C587 0.950 . S
C558 H540 0.951 . S
C558 C559 1.366 . S
C558 C560 1.388 . S
C559 C558 1.366 . S
C559 C563 1.385 . S
C560 H541 0.951 1_455 S
C560 C558 1.388 . S
C560 C561 1.366 . S
C561 C560 1.366 . S
C561 C562 1.414 . S
C561 C564 1.499 1_455 S
C562 H542 0.950 . S
C562 C561 1.414 . S
C562 C563 1.374 . S
C563 H543 0.950 . S
C563 C559 1.385 . S
C563 C562 1.374 . S
C564 C561 1.499 1_655 S
C564 C565 1.373 . S
C564 C566 1.389 . S
C565 H544 0.950 . S
C565 C564 1.373 . S
C565 C581 1.377 . S
C566 C564 1.389 . S
C566 C567 1.524 . S
C566 C580 1.377 . S
C567 C566 1.524 . S
C567 C568 1.397 . S
C567 C572 1.363 . S
C568 H545 0.950 . S
C568 C567 1.397 . S
C568 C569 1.334 . S
C569 H546 0.950 . S
C569 C568 1.334 . S
C569 C570 1.287 . S
C570 C569 1.287 . S
C570 C571 1.524 . S
C570 H589 0.913 . S
C571 H547 0.950 . S
C571 C570 1.524 . S
C571 C572 1.415 . S
C572 H548 0.950 . S
C572 C567 1.363 . S
C572 C571 1.415 . S
C573 H549 0.951 . S
C573 C574 1.366 . S
C573 C575 1.388 . S
C574 C573 1.366 . S
C574 C578 1.385 . S
C575 H550 0.951 . S
C575 C573 1.388 . S
C575 C576 1.366 . S
C576 C575 1.366 . S
C576 C577 1.414 . S
C576 C579 1.499 . S
C577 H551 0.950 . S
C577 C576 1.414 . S
C577 C578 1.374 . S
C578 H552 0.950 . S
C578 C574 1.385 . S
C578 C577 1.374 . S
C579 C576 1.499 . S
C579 C580 1.373 . S
C579 C581 1.389 . S
C580 H553 0.950 . S
C580 C566 1.377 . S
C580 C579 1.373 . S
C581 C565 1.377 . S
C581 C579 1.389 . S
C581 C582 1.524 . S
C582 C581 1.524 . S
C582 C583 1.397 . S
C582 C587 1.363 . S
C583 H554 0.950 . S
C583 C582 1.397 . S
C583 C584 1.334 . S
C584 H555 0.950 . S
C584 C583 1.334 . S
C584 C585 1.287 . S
C585 C584 1.287 . S
C585 C586 1.524 . S
C585 H588 0.999 . S
C586 H556 0.950 . S
C586 C585 1.524 . S
C586 C587 1.415 . S
C587 H557 0.950 . S
C587 C582 1.363 . S
C587 C586 1.415 . S
H588 C585 0.999 . S
H589 C570 0.913 . S
H590 C608 0.951 . S
H591 C610 0.951 . S
H592 C612 0.950 . S
H593 C613 0.950 . S
H594 C615 0.950 . S
H595 C618 0.950 . S
H596 C619 0.950 . S
H597 C621 0.950 . S
H598 C622 0.950 . S
H599 C623 0.951 . S
H600 C625 0.951 . S
H601 C627 0.950 1_565 S
H602 C628 0.950 . S
H603 C630 0.950 . S
H604 C633 0.950 . S
H605 C634 0.952 1_545 S
H606 C636 0.950 . S
H607 C637 0.950 . S
C608 H590 0.951 . S
C608 C609 1.366 1_455 S
C608 C610 1.388 . S
C609 C608 1.366 1_655 S
C609 C613 1.385 . S
C610 H591 0.951 . S
C610 C608 1.388 . S
C610 C611 1.366 . S
C611 C610 1.366 . S
C611 C612 1.414 . S
C611 C614 1.499 . S
C612 H592 0.950 . S
C612 C611 1.414 . S
C612 C613 1.374 1_455 S
C613 H593 0.950 . S
C613 C609 1.385 . S
C613 C612 1.374 1_655 S
C614 C611 1.499 . S
C614 C615 1.373 . S
C614 C616 1.389 . S
C615 H594 0.950 . S
C615 C614 1.373 . S
C615 C631 1.377 . S
C616 C614 1.389 . S
C616 C617 1.524 . S
C616 C630 1.377 . S
C617 C616 1.524 . S
C617 C618 1.397 . S
C617 C622 1.363 . S
C618 H595 0.950 . S
C618 C617 1.397 . S
C618 C619 1.334 . S
C619 H596 0.950 . S
C619 C618 1.334 . S
C619 C620 1.287 . S
C620 C619 1.287 . S
C620 C621 1.524 . S
C620 H639 0.913 . S
C621 H597 0.950 . S
C621 C620 1.524 . S
C621 C622 1.415 . S
C622 H598 0.950 . S
C622 C617 1.363 . S
C622 C621 1.415 . S
C623 H599 0.951 . S
C623 C624 1.366 . S
C623 C625 1.388 . S
C624 C623 1.366 . S
C624 C628 1.385 . S
C625 H600 0.951 . S
C625 C623 1.388 . S
C625 C626 1.366 . S
C626 C625 1.366 . S
C626 C627 1.414 . S
C626 C629 1.499 1_545 S
C627 H601 0.950 1_545 S
C627 C626 1.414 . S
C627 C628 1.374 . S
C628 H602 0.950 . S
C628 C624 1.385 . S
C628 C627 1.374 . S
C629 C626 1.499 1_565 S
C629 C630 1.373 . S
C629 C631 1.389 . S
C630 H603 0.950 . S
C630 C616 1.377 . S
C630 C629 1.373 . S
C631 C615 1.377 . S
C631 C629 1.389 . S
C631 C632 1.524 . S
C632 C631 1.524 . S
C632 C633 1.397 . S
C632 C637 1.363 . S
C633 H604 0.950 . S
C633 C632 1.397 . S
C633 C634 1.339 . S
C634 H605 0.952 1_565 S
C634 C633 1.339 . S
C634 C635 1.280 1_565 S
C635 C634 1.280 1_545 S
C635 C636 1.524 1_545 S
C635 H638 0.999 . S
C636 H606 0.950 . S
C636 C635 1.524 1_565 S
C636 C637 1.415 . S
C637 H607 0.950 . S
C637 C632 1.363 . S
C637 C636 1.415 . S
H638 C635 0.999 . S
H639 C620 0.913 . S
H640 C658 0.951 . S
H641 C660 0.951 . S
H642 C662 0.950 . S
H643 C663 0.950 . S
H644 C665 0.950 . S
H645 C668 0.950 . S
H646 C669 0.950 . S
H647 C671 0.950 . S
H648 C672 0.950 . S
H649 C673 0.951 . S
H650 C675 0.951 . S
H651 C677 0.950 . S
H652 C678 0.950 . S
H653 C680 0.950 . S
H654 C683 0.950 . S
H655 C684 0.950 . S
H656 C686 0.950 . S
H657 C687 0.950 . S
C658 H640 0.951 . S
C658 C659 1.366 . S
C658 C660 1.388 . S
C659 C658 1.366 . S
C659 C663 1.385 . S
C660 H641 0.951 . S
C660 C658 1.388 . S
C660 C661 1.366 . S
C661 C660 1.366 . S
C661 C662 1.414 . S
C661 C664 1.499 . S
C662 H642 0.950 . S
C662 C661 1.414 . S
C662 C663 1.374 . S
C663 H643 0.950 . S
C663 C659 1.385 . S
C663 C662 1.374 . S
C664 C661 1.499 . S
C664 C665 1.373 . S
C664 C666 1.389 . S
C665 H644 0.950 . S
C665 C664 1.373 . S
C665 C681 1.377 . S
C666 C664 1.389 . S
C666 C667 1.524 . S
C666 C680 1.377 . S
C667 C666 1.524 . S
C667 C668 1.397 . S
C667 C672 1.363 . S
C668 H645 0.950 . S
C668 C667 1.397 . S
C668 C669 1.334 . S
C669 H646 0.950 . S
C669 C668 1.334 . S
C669 C670 1.287 . S
C670 C669 1.287 . S
C670 C671 1.524 . S
C670 H689 0.913 . S
C671 H647 0.950 . S
C671 C670 1.524 . S
C671 C672 1.415 . S
C672 H648 0.950 . S
C672 C667 1.363 . S
C672 C671 1.415 . S
C673 H649 0.951 . S
C673 C674 1.366 . S
C673 C675 1.388 1_565 S
C674 C673 1.366 . S
C674 C678 1.385 1_565 S
C675 H650 0.951 . S
C675 C673 1.388 1_545 S
C675 C676 1.366 . S
C676 C675 1.366 . S
C676 C677 1.414 . S
C676 C679 1.499 . S
C677 H651 0.950 . S
C677 C676 1.414 . S
C677 C678 1.374 . S
C678 H652 0.950 . S
C678 C674 1.385 1_545 S
C678 C677 1.374 . S
C679 C676 1.499 . S
C679 C680 1.373 . S
C679 C681 1.389 . S
C680 H653 0.950 . S
C680 C666 1.377 . S
C680 C679 1.373 . S
C681 C665 1.377 . S
C681 C679 1.389 . S
C681 C682 1.524 . S
C682 C681 1.524 . S
C682 C683 1.397 . S
C682 C687 1.363 . S
C683 H654 0.950 . S
C683 C682 1.397 . S
C683 C684 1.334 1_545 S
C684 H655 0.950 . S
C684 C683 1.334 1_565 S
C684 C685 1.287 . S
C685 C684 1.287 . S
C685 C686 1.524 . S
C685 H688 0.999 . S
C686 H656 0.950 . S
C686 C685 1.524 . S
C686 C687 1.415 1_565 S
C687 H657 0.950 . S
C687 C682 1.363 . S
C687 C686 1.415 1_545 S
H688 C685 0.999 . S
H689 C670 0.913 . S
H690 C708 0.951 . S
H691 C710 0.951 . S
H692 C712 0.950 . S
H693 C713 0.950 . S
H694 C715 0.950 . S
H695 C718 0.950 . S
H696 C719 0.950 . S
H697 C721 0.950 . S
H698 C722 0.950 . S
H699 C723 0.951 . S
H700 C725 0.951 . S
H701 C727 0.940 1_455 S
H702 C728 0.950 . S
H703 C730 0.950 . S
H704 C733 0.950 . S
H705 C734 0.950 . S
H706 C736 0.950 . S
H707 C737 0.950 . S
C708 H690 0.951 . S
C708 C709 1.366 . S
C708 C710 1.388 . S
C709 C708 1.366 . S
C709 C713 1.385 . S
C710 H691 0.951 . S
C710 C708 1.388 . S
C710 C711 1.366 . S
C711 C710 1.366 . S
C711 C712 1.414 . S
C711 C714 1.499 . S
C712 H692 0.950 . S
C712 C711 1.414 . S
C712 C713 1.374 . S
C713 H693 0.950 . S
C713 C709 1.385 . S
C713 C712 1.374 . S
C714 C711 1.499 . S
C714 C715 1.373 . S
C714 C716 1.389 . S
C715 H694 0.950 . S
C715 C714 1.373 . S
C715 C731 1.377 . S
C716 C714 1.389 . S
C716 C717 1.524 . S
C716 C730 1.377 . S
C717 C716 1.524 . S
C717 C718 1.397 . S
C717 C722 1.363 . S
C718 H695 0.950 . S
C718 C717 1.397 . S
C718 C719 1.334 . S
C719 H696 0.950 . S
C719 C718 1.334 . S
C719 C720 1.287 . S
C720 C719 1.287 . S
C720 C721 1.524 . S
C720 H739 0.913 . S
C721 H697 0.950 . S
C721 C720 1.524 . S
C721 C722 1.415 . S
C722 H698 0.950 . S
C722 C717 1.363 . S
C722 C721 1.415 . S
C723 H699 0.951 . S
C723 C724 1.366 . S
C723 C725 1.388 . S
C724 C723 1.366 . S
C724 C728 1.385 . S
C725 H700 0.951 . S
C725 C723 1.388 . S
C725 C726 1.366 . S
C726 C725 1.366 . S
C726 C727 1.414 . S
C726 C729 1.499 1_655 S
C727 H701 0.940 1_655 S
C727 C726 1.414 . S
C727 C728 1.374 . S
C728 H702 0.950 . S
C728 C724 1.385 . S
C728 C727 1.374 . S
C729 C726 1.499 1_455 S
C729 C730 1.373 . S
C729 C731 1.389 . S
C730 H703 0.950 . S
C730 C716 1.377 . S
C730 C729 1.373 . S
C731 C715 1.377 . S
C731 C729 1.389 . S
C731 C732 1.524 . S
C732 C731 1.524 . S
C732 C733 1.397 1_455 S
C732 C737 1.363 . S
C733 H704 0.950 . S
C733 C732 1.397 1_655 S
C733 C734 1.334 . S
C734 H705 0.950 . S
C734 C733 1.334 . S
C734 C735 1.287 . S
C735 C734 1.287 . S
C735 C736 1.524 . S
C735 H738 0.999 . S
C736 H706 0.950 . S
C736 C735 1.524 . S
C736 C737 1.415 1_655 S
C737 H707 0.950 . S
C737 C732 1.363 . S
C737 C736 1.415 1_455 S
H738 C735 0.999 . S
H739 C720 0.913 . S
H740 C758 0.951 . S
H741 C760 0.951 . S
H742 C762 0.950 . S
H743 C763 0.950 . S
H744 C765 0.950 . S
H745 C768 0.950 . S
H746 C769 0.950 . S
H747 C771 0.950 . S
H748 C772 0.950 . S
H749 C773 0.951 . S
H750 C775 0.951 1_545 S
H751 C777 0.950 . S
H752 C778 0.950 . S
H753 C780 0.950 . S
H754 C783 0.957 . S
H755 C784 0.950 . S
H756 C786 0.950 . S
H757 C787 0.950 . S
C758 H740 0.951 . S
C758 C759 1.366 . S
C758 C760 1.388 1_455 S
C759 C758 1.366 . S
C759 C763 1.385 1_455 S
C760 H741 0.951 . S
C760 C758 1.388 1_655 S
C760 C761 1.366 . S
C761 C760 1.366 . S
C761 C762 1.414 . S
C761 C764 1.499 . S
C762 H742 0.950 . S
C762 C761 1.414 . S
C762 C763 1.374 . S
C763 H743 0.950 . S
C763 C759 1.385 1_655 S
C763 C762 1.374 . S
C764 C761 1.499 . S
C764 C765 1.373 . S
C764 C766 1.389 . S
C765 H744 0.950 . S
C765 C764 1.373 . S
C765 C781 1.377 . S
C766 C764 1.389 . S
C766 C767 1.524 . S
C766 C780 1.377 . S
C767 C766 1.524 . S
C767 C768 1.397 . S
C767 C772 1.363 . S
C768 H745 0.950 . S
C768 C767 1.397 . S
C768 C769 1.334 . S
C769 H746 0.950 . S
C769 C768 1.334 . S
C769 C770 1.287 . S
C770 C769 1.287 . S
C770 C771 1.524 . S
C770 H789 0.913 . S
C771 H747 0.950 . S
C771 C770 1.524 . S
C771 C772 1.415 . S
C772 H748 0.950 . S
C772 C767 1.363 . S
C772 C771 1.415 . S
C773 H749 0.951 . S
C773 C774 1.366 . S
C773 C775 1.388 . S
C774 C773 1.366 . S
C774 C778 1.385 . S
C775 H750 0.951 1_565 S
C775 C773 1.388 . S
C775 C776 1.366 . S
C776 C775 1.366 . S
C776 C777 1.414 . S
C776 C779 1.499 1_565 S
C777 H751 0.950 . S
C777 C776 1.414 . S
C777 C778 1.374 . S
C778 H752 0.950 . S
C778 C774 1.385 . S
C778 C777 1.374 . S
C779 C776 1.499 1_545 S
C779 C780 1.373 . S
C779 C781 1.389 . S
C780 H753 0.950 . S
C780 C766 1.377 . S
C780 C779 1.373 . S
C781 C765 1.377 . S
C781 C779 1.389 . S
C781 C782 1.524 . S
C782 C781 1.524 . S
C782 C783 1.380 1_545 S
C782 C787 1.363 . S
C783 H754 0.957 . S
C783 C782 1.380 1_565 S
C783 C784 1.343 . S
C784 H755 0.950 . S
C784 C783 1.343 . S
C784 C785 1.287 . S
C785 C784 1.287 . S
C785 C786 1.524 1_565 S
C785 H788 0.999 . S
C786 H756 0.950 . S
C786 C785 1.524 1_545 S
C786 C787 1.415 . S
C787 H757 0.950 . S
C787 C782 1.363 . S
C787 C786 1.415 . S
H788 C785 0.999 . S
H789 C770 0.913 . S
H790 C808 0.951 . S
H791 C810 0.951 . S
H792 C812 0.950 . S
H793 C813 0.950 . S
H794 C815 0.950 . S
H795 C818 0.950 . S
H796 C819 0.950 . S
H797 C821 0.950 . S
H798 C822 0.950 . S
H799 C823 0.951 . S
H800 C825 0.951 . S
H801 C827 0.950 . S
H802 C828 0.949 1_545 S
H803 C830 0.950 . S
H804 C833 0.950 . S
H805 C834 0.950 . S
H806 C836 0.947 . S
H807 C837 0.950 . S
C808 H790 0.951 . S
C808 C809 1.366 . S
C808 C810 1.388 . S
C809 C808 1.366 . S
C809 C813 1.385 . S
C810 H791 0.951 . S
C810 C808 1.388 . S
C810 C811 1.366 . S
C811 C810 1.366 . S
C811 C812 1.414 . S
C811 C814 1.499 . S
C812 H792 0.950 . S
C812 C811 1.414 . S
C812 C813 1.374 . S
C813 H793 0.950 . S
C813 C809 1.385 . S
C813 C812 1.374 . S
C814 C811 1.499 . S
C814 C815 1.373 . S
C814 C816 1.389 . S
C815 H794 0.950 . S
C815 C814 1.373 . S
C815 C831 1.377 . S
C816 C814 1.389 . S
C816 C817 1.524 . S
C816 C830 1.377 . S
C817 C816 1.524 . S
C817 C818 1.397 . S
C817 C822 1.363 . S
C818 H795 0.950 . S
C818 C817 1.397 . S
C818 C819 1.334 . S
C819 H796 0.950 . S
C819 C818 1.334 . S
C819 C820 1.287 . S
C820 C819 1.287 . S
C820 C821 1.524 . S
C820 H839 0.913 . S
C821 H797 0.950 . S
C821 C820 1.524 . S
C821 C822 1.415 . S
C822 H798 0.950 . S
C822 C817 1.363 . S
C822 C821 1.415 . S
C823 H799 0.951 . S
C823 C824 1.366 . S
C823 C825 1.388 1_545 S
C824 C823 1.366 . S
C824 C828 1.385 1_545 S
C825 H800 0.951 . S
C825 C823 1.388 1_565 S
C825 C826 1.366 . S
C826 C825 1.366 . S
C826 C827 1.414 . S
C826 C829 1.499 . S
C827 H801 0.950 . S
C827 C826 1.414 . S
C827 C828 1.374 . S
C828 H802 0.949 1_565 S
C828 C824 1.385 1_565 S
C828 C827 1.374 . S
C829 C826 1.499 . S
C829 C830 1.373 . S
C829 C831 1.389 . S
C830 H803 0.950 . S
C830 C816 1.377 . S
C830 C829 1.373 . S
C831 C815 1.377 . S
C831 C829 1.389 . S
C831 C832 1.524 . S
C832 C831 1.524 . S
C832 C833 1.397 . S
C832 C837 1.363 . S
C833 H804 0.950 . S
C833 C832 1.397 . S
C833 C834 1.334 1_565 S
C834 H805 0.950 . S
C834 C833 1.334 1_545 S
C834 C835 1.287 . S
C835 C834 1.287 . S
C835 C836 1.524 1_545 S
C835 H838 0.999 . S
C836 H806 0.947 . S
C836 C835 1.524 1_565 S
C836 C837 1.415 . S
C837 H807 0.950 . S
C837 C832 1.363 . S
C837 C836 1.415 . S
H838 C835 0.999 . S
H839 C820 0.913 . S
H840 C858 0.951 . S
H841 C860 0.951 . S
H842 C862 0.950 . S
H843 C863 0.950 . S
H844 C865 0.950 . S
H845 C868 0.950 . S
H846 C869 0.950 . S
H847 C871 0.950 . S
H848 C872 0.950 . S
H849 C873 0.951 . S
H850 C875 0.951 . S
H851 C877 0.950 . S
H852 C878 0.950 . S
H853 C880 0.950 . S
H854 C883 0.950 . S
H855 C884 0.950 . S
H856 C886 0.950 . S
H857 C887 0.950 . S
C858 H840 0.951 . S
C858 C859 1.366 . S
C858 C860 1.388 . S
C859 C858 1.366 . S
C859 C863 1.385 . S
C860 H841 0.951 . S
C860 C858 1.388 . S
C860 C861 1.366 . S
C861 C860 1.366 . S
C861 C862 1.414 . S
C861 C864 1.499 . S
C862 H842 0.950 . S
C862 C861 1.414 . S
C862 C863 1.374 . S
C863 H843 0.950 . S
C863 C859 1.385 . S
C863 C862 1.374 . S
C864 C861 1.499 . S
C864 C865 1.373 . S
C864 C866 1.389 . S
C865 H844 0.950 . S
C865 C864 1.373 . S
C865 C881 1.377 . S
C866 C864 1.389 . S
C866 C867 1.524 . S
C866 C880 1.377 . S
C867 C866 1.524 . S
C867 C868 1.397 . S
C867 C872 1.363 . S
C868 H845 0.950 . S
C868 C867 1.397 . S
C868 C869 1.334 . S
C869 H846 0.950 . S
C869 C868 1.334 . S
C869 C870 1.287 . S
C870 C869 1.287 . S
C870 C871 1.524 . S
C870 H889 0.913 . S
C871 H847 0.950 . S
C871 C870 1.524 . S
C871 C872 1.415 . S
C872 H848 0.950 . S
C872 C867 1.363 . S
C872 C871 1.415 . S
C873 H849 0.951 . S
C873 C874 1.366 . S
C873 C875 1.388 . S
C874 C873 1.366 . S
C874 C878 1.385 . S
C875 H850 0.951 . S
C875 C873 1.388 . S
C875 C876 1.366 . S
C876 C875 1.366 . S
C876 C877 1.414 . S
C876 C879 1.499 . S
C877 H851 0.950 . S
C877 C876 1.414 . S
C877 C878 1.374 . S
C878 H852 0.950 . S
C878 C874 1.385 . S
C878 C877 1.374 . S
C879 C876 1.499 . S
C879 C880 1.373 . S
C879 C881 1.389 . S
C880 H853 0.950 . S
C880 C866 1.377 . S
C880 C879 1.373 . S
C881 C865 1.377 . S
C881 C879 1.389 . S
C881 C882 1.524 . S
C882 C881 1.524 . S
C882 C883 1.397 . S
C882 C887 1.363 . S
C883 H854 0.950 . S
C883 C882 1.397 . S
C883 C884 1.334 . S
C884 H855 0.950 . S
C884 C883 1.334 . S
C884 C885 1.287 . S
C885 C884 1.287 . S
C885 C886 1.524 . S
C885 H888 0.999 . S
C886 H856 0.950 . S
C886 C885 1.524 . S
C886 C887 1.415 . S
C887 H857 0.950 . S
C887 C882 1.363 . S
C887 C886 1.415 . S
H888 C885 0.999 . S
H889 C870 0.913 . S
H890 C908 0.951 . S
H891 C910 0.951 . S
H892 C912 0.950 . S
H893 C913 0.950 . S
H894 C915 0.950 . S
H895 C918 0.950 . S
H896 C919 0.950 . S
H897 C921 0.950 . S
H898 C922 0.950 . S
H899 C923 0.951 . S
H900 C925 0.951 . S
H901 C927 0.950 . S
H902 C928 0.950 . S
H903 C930 0.950 . S
H904 C933 0.950 . S
H905 C934 0.950 . S
H906 C936 0.950 . S
H907 C937 0.950 . S
C908 H890 0.951 . S
C908 C909 1.366 . S
C908 C910 1.388 . S
C909 C908 1.366 . S
C909 C913 1.385 . S
C910 H891 0.951 . S
C910 C908 1.388 . S
C910 C911 1.366 . S
C911 C910 1.366 . S
C911 C912 1.414 . S
C911 C914 1.499 . S
C912 H892 0.950 . S
C912 C911 1.414 . S
C912 C913 1.374 . S
C913 H893 0.950 . S
C913 C909 1.385 . S
C913 C912 1.374 . S
C914 C911 1.499 . S
C914 C915 1.373 . S
C914 C916 1.389 . S
C915 H894 0.950 . S
C915 C914 1.373 . S
C915 C931 1.377 . S
C916 C914 1.389 . S
C916 C917 1.524 . S
C916 C930 1.377 . S
C917 C916 1.524 . S
C917 C918 1.397 . S
C917 C922 1.363 . S
C918 H895 0.950 . S
C918 C917 1.397 . S
C918 C919 1.334 . S
C919 H896 0.950 . S
C919 C918 1.334 . S
C919 C920 1.287 . S
C920 C919 1.287 . S
C920 C921 1.524 . S
C920 H939 0.913 . S
C921 H897 0.950 . S
C921 C920 1.524 . S
C921 C922 1.415 . S
C922 H898 0.950 . S
C922 C917 1.363 . S
C922 C921 1.415 . S
C923 H899 0.951 . S
C923 C924 1.366 . S
C923 C925 1.388 . S
C924 C923 1.366 . S
C924 C928 1.385 . S
C925 H900 0.951 . S
C925 C923 1.388 . S
C925 C926 1.366 . S
C926 C925 1.366 . S
C926 C927 1.414 . S
C926 C929 1.499 . S
C927 H901 0.950 . S
C927 C926 1.414 . S
C927 C928 1.374 . S
C928 H902 0.950 . S
C928 C924 1.385 . S
C928 C927 1.374 . S
C929 C926 1.499 . S
C929 C930 1.373 . S
C929 C931 1.389 . S
C930 H903 0.950 . S
C930 C916 1.377 . S
C930 C929 1.373 . S
C931 C915 1.377 . S
C931 C929 1.389 . S
C931 C932 1.524 . S
C932 C931 1.524 . S
C932 C933 1.397 . S
C932 C937 1.363 . S
C933 H904 0.950 . S
C933 C932 1.397 . S
C933 C934 1.334 . S
C934 H905 0.950 . S
C934 C933 1.334 . S
C934 C935 1.287 . S
C935 C934 1.287 . S
C935 C936 1.524 . S
C935 H938 0.999 . S
C936 H906 0.950 . S
C936 C935 1.524 . S
C936 C937 1.415 . S
C937 H907 0.950 . S
C937 C932 1.363 . S
C937 C936 1.415 . S
H938 C935 0.999 . S
H939 C920 0.913 . S
H940 C958 0.951 . S
H941 C960 0.951 . S
H942 C962 0.950 . S
H943 C963 0.950 . S
H944 C965 0.950 . S
H945 C968 0.950 . S
H946 C969 0.950 . S
H947 C971 0.950 . S
H948 C972 0.950 . S
H949 C973 0.951 . S
H950 C975 0.951 . S
H951 C977 0.950 . S
H952 C978 0.950 . S
H953 C980 0.950 . S
H954 C983 0.950 . S
H955 C984 0.950 . S
H956 C986 0.950 . S
H957 C987 0.950 . S
C958 H940 0.951 . S
C958 C959 1.366 . S
C958 C960 1.388 . S
C959 C958 1.366 . S
C959 C963 1.385 . S
C960 H941 0.951 . S
C960 C958 1.388 . S
C960 C961 1.366 . S
C961 C960 1.366 . S
C961 C962 1.414 . S
C961 C964 1.499 . S
C962 H942 0.950 . S
C962 C961 1.414 . S
C962 C963 1.374 . S
C963 H943 0.950 . S
C963 C959 1.385 . S
C963 C962 1.374 . S
C964 C961 1.499 . S
C964 C965 1.373 . S
C964 C966 1.389 . S
C965 H944 0.950 . S
C965 C964 1.373 . S
C965 C981 1.377 . S
C966 C964 1.389 . S
C966 C967 1.524 . S
C966 C980 1.377 . S
C967 C966 1.524 . S
C967 C968 1.397 . S
C967 C972 1.363 . S
C968 H945 0.950 . S
C968 C967 1.397 . S
C968 C969 1.334 . S
C969 H946 0.950 . S
C969 C968 1.334 . S
C969 C970 1.287 . S
C970 C969 1.287 . S
C970 C971 1.524 . S
C970 H989 0.913 . S
C971 H947 0.950 . S
C971 C970 1.524 . S
C971 C972 1.415 . S
C972 H948 0.950 . S
C972 C967 1.363 . S
C972 C971 1.415 . S
C973 H949 0.951 . S
C973 C974 1.366 . S
C973 C975 1.388 . S
C974 C973 1.366 . S
C974 C978 1.385 . S
C975 H950 0.951 . S
C975 C973 1.388 . S
C975 C976 1.366 . S
C976 C975 1.366 . S
C976 C977 1.414 . S
C976 C979 1.499 . S
C977 H951 0.950 . S
C977 C976 1.414 . S
C977 C978 1.374 . S
C978 H952 0.950 . S
C978 C974 1.385 . S
C978 C977 1.374 . S
C979 C976 1.499 . S
C979 C980 1.373 . S
C979 C981 1.389 . S
C980 H953 0.950 . S
C980 C966 1.377 . S
C980 C979 1.373 . S
C981 C965 1.377 . S
C981 C979 1.389 . S
C981 C982 1.524 . S
C982 C981 1.524 . S
C982 C983 1.397 . S
C982 C987 1.363 . S
C983 H954 0.950 . S
C983 C982 1.397 . S
C983 C984 1.334 . S
C984 H955 0.950 . S
C984 C983 1.334 . S
C984 C985 1.287 . S
C985 C984 1.287 . S
C985 C986 1.524 . S
C985 H988 0.999 . S
C986 H956 0.950 . S
C986 C985 1.524 . S
C986 C987 1.415 . S
C987 H957 0.950 . S
C987 C982 1.363 . S
C987 C986 1.415 . S
H988 C985 0.999 . S
H989 C970 0.913 . S
H990 C1008 0.951 . S
H991 C1010 0.951 . S
H992 C1012 0.950 . S
H993 C1013 0.950 . S
H994 C1015 0.950 . S
H995 C1018 0.950 . S
H996 C1019 0.950 . S
H997 C1021 0.950 . S
H998 C1022 0.950 . S
H999 C1023 0.951 . S
H1000 C1025 0.951 . S
H1001 C1027 0.950 . S
H1002 C1028 0.950 . S
H1003 C1030 0.950 . S
H1004 C1033 0.950 . S
H1005 C1034 0.950 . S
H1006 C1036 0.950 . S
H1007 C1037 0.950 . S
C1008 H990 0.951 . S
C1008 C1009 1.366 . S
C1008 C1010 1.388 . S
C1009 C1008 1.366 . S
C1009 C1013 1.385 . S
C1010 H991 0.951 . S
C1010 C1008 1.388 . S
C1010 C1011 1.366 . S
C1011 C1010 1.366 . S
C1011 C1012 1.414 . S
C1011 C1014 1.499 . S
C1012 H992 0.950 . S
C1012 C1011 1.414 . S
C1012 C1013 1.374 . S
C1013 H993 0.950 . S
C1013 C1009 1.385 . S
C1013 C1012 1.374 . S
C1014 C1011 1.499 . S
C1014 C1015 1.373 . S
C1014 C1016 1.389 . S
C1015 H994 0.950 . S
C1015 C1014 1.373 . S
C1015 C1031 1.377 . S
C1016 C1014 1.389 . S
C1016 C1017 1.524 . S
C1016 C1030 1.377 . S
C1017 C1016 1.524 . S
C1017 C1018 1.397 . S
C1017 C1022 1.363 . S
C1018 H995 0.950 . S
C1018 C1017 1.397 . S
C1018 C1019 1.334 . S
C1019 H996 0.950 . S
C1019 C1018 1.334 . S
C1019 C1020 1.287 . S
C1020 C1019 1.287 . S
C1020 C1021 1.524 . S
C1020 H1039 0.913 . S
C1021 H997 0.950 . S
C1021 C1020 1.524 . S
C1021 C1022 1.415 . S
C1022 H998 0.950 . S
C1022 C1017 1.363 . S
C1022 C1021 1.415 . S
C1023 H999 0.951 . S
C1023 C1024 1.366 . S
C1023 C1025 1.388 . S
C1024 C1023 1.366 . S
C1024 C1028 1.385 . S
C1025 H1000 0.951 . S
C1025 C1023 1.388 . S
C1025 C1026 1.366 . S
C1026 C1025 1.366 . S
C1026 C1027 1.414 . S
C1026 C1029 1.499 . S
C1027 H1001 0.950 . S
C1027 C1026 1.414 . S
C1027 C1028 1.374 . S
C1028 H1002 0.950 . S
C1028 C1024 1.385 . S
C1028 C1027 1.374 . S
C1029 C1026 1.499 . S
C1029 C1030 1.373 . S
C1029 C1031 1.389 . S
C1030 H1003 0.950 . S
C1030 C1016 1.377 . S
C1030 C1029 1.373 . S
C1031 C1015 1.377 . S
C1031 C1029 1.389 . S
C1031 C1032 1.524 . S
C1032 C1031 1.524 . S
C1032 C1033 1.397 . S
C1032 C1037 1.363 . S
C1033 H1004 0.950 . S
C1033 C1032 1.397 . S
C1033 C1034 1.334 . S
C1034 H1005 0.950 . S
C1034 C1033 1.334 . S
C1034 C1035 1.287 . S
C1035 C1034 1.287 . S
C1035 C1036 1.524 . S
C1035 H1038 0.999 . S
C1036 H1006 0.950 . S
C1036 C1035 1.524 . S
C1036 C1037 1.415 . S
C1037 H1007 0.950 . S
C1037 C1032 1.363 . S
C1037 C1036 1.415 . S
H1038 C1035 0.999 . S
H1039 C1020 0.913 . S
H1040 C1058 0.951 . S
H1041 C1060 0.951 . S
H1042 C1062 0.950 . S
H1043 C1063 0.950 . S
H1044 C1065 0.950 . S
H1045 C1068 0.950 . S
H1046 C1069 0.950 . S
H1047 C1071 0.950 . S
H1048 C1072 0.950 . S
H1049 C1073 0.951 . S
H1050 C1075 0.951 . S
H1051 C1077 0.950 . S
H1052 C1078 0.950 . S
H1053 C1080 0.950 . S
H1054 C1083 0.950 . S
H1055 C1084 0.950 . S
H1056 C1086 0.950 . S
H1057 C1087 0.950 . S
C1058 H1040 0.951 . S
C1058 C1059 1.366 . S
C1058 C1060 1.388 . S
C1059 C1058 1.366 . S
C1059 C1063 1.385 . S
C1060 H1041 0.951 . S
C1060 C1058 1.388 . S
C1060 C1061 1.366 . S
C1061 C1060 1.366 . S
C1061 C1062 1.414 . S
C1061 C1064 1.499 . S
C1062 H1042 0.950 . S
C1062 C1061 1.414 . S
C1062 C1063 1.374 . S
C1063 H1043 0.950 . S
C1063 C1059 1.385 . S
C1063 C1062 1.374 . S
C1064 C1061 1.499 . S
C1064 C1065 1.373 . S
C1064 C1066 1.389 . S
C1065 H1044 0.950 . S
C1065 C1064 1.373 . S
C1065 C1081 1.377 . S
C1066 C1064 1.389 . S
C1066 C1067 1.524 . S
C1066 C1080 1.377 . S
C1067 C1066 1.524 . S
C1067 C1068 1.397 . S
C1067 C1072 1.363 . S
C1068 H1045 0.950 . S
C1068 C1067 1.397 . S
C1068 C1069 1.334 . S
C1069 H1046 0.950 . S
C1069 C1068 1.334 . S
C1069 C1070 1.287 . S
C1070 C1069 1.287 . S
C1070 C1071 1.524 . S
C1070 H1089 0.913 . S
C1071 H1047 0.950 . S
C1071 C1070 1.524 . S
C1071 C1072 1.415 . S
C1072 H1048 0.950 . S
C1072 C1067 1.363 . S
C1072 C1071 1.415 . S
C1073 H1049 0.951 . S
C1073 C1074 1.366 . S
C1073 C1075 1.388 . S
C1074 C1073 1.366 . S
C1074 C1078 1.385 . S
C1075 H1050 0.951 . S
C1075 C1073 1.388 . S
C1075 C1076 1.366 . S
C1076 C1075 1.366 . S
C1076 C1077 1.414 . S
C1076 C1079 1.499 . S
C1077 H1051 0.950 . S
C1077 C1076 1.414 . S
C1077 C1078 1.374 . S
C1078 H1052 0.950 . S
C1078 C1074 1.385 . S
C1078 C1077 1.374 . S
C1079 C1076 1.499 . S
C1079 C1080 1.373 . S
C1079 C1081 1.389 . S
C1080 H1053 0.950 . S
C1080 C1066 1.377 . S
C1080 C1079 1.373 . S
C1081 C1065 1.377 . S
C1081 C1079 1.389 . S
C1081 C1082 1.524 . S
C1082 C1081 1.524 . S
C1082 C1083 1.397 . S
C1082 C1087 1.363 . S
C1083 H1054 0.950 . S
C1083 C1082 1.397 . S
C1083 C1084 1.334 . S
C1084 H1055 0.950 . S
C1084 C1083 1.334 . S
C1084 C1085 1.287 . S
C1085 C1084 1.287 . S
C1085 C1086 1.524 . S
C1085 H1088 0.999 . S
C1086 H1056 0.950 . S
C1086 C1085 1.524 . S
C1086 C1087 1.415 . S
C1087 H1057 0.950 . S
C1087 C1082 1.363 . S
C1087 C1086 1.415 . S
H1088 C1085 0.999 . S
H1089 C1070 0.913 . S
H1090 C1108 0.951 . S
H1091 C1110 0.951 . S
H1092 C1112 0.950 . S
H1093 C1113 0.950 . S
H1094 C1115 0.950 . S
H1095 C1118 0.950 . S
H1096 C1119 0.950 . S
H1097 C1121 0.950 . S
H1098 C1122 0.950 . S
H1099 C1123 0.951 . S
H1100 C1125 0.951 . S
H1101 C1127 0.950 . S
H1102 C1128 0.950 . S
H1103 C1130 0.950 . S
H1104 C1133 0.950 . S
H1105 C1134 0.950 . S
H1106 C1136 0.950 . S
H1107 C1137 0.950 . S
C1108 H1090 0.951 . S
C1108 C1109 1.366 . S
C1108 C1110 1.388 . S
C1109 C1108 1.366 . S
C1109 C1113 1.385 . S
C1110 H1091 0.951 . S
C1110 C1108 1.388 . S
C1110 C1111 1.366 . S
C1111 C1110 1.366 . S
C1111 C1112 1.414 . S
C1111 C1114 1.499 . S
C1112 H1092 0.950 . S
C1112 C1111 1.414 . S
C1112 C1113 1.374 . S
C1113 H1093 0.950 . S
C1113 C1109 1.385 . S
C1113 C1112 1.374 . S
C1114 C1111 1.499 . S
C1114 C1115 1.373 . S
C1114 C1116 1.389 . S
C1115 H1094 0.950 . S
C1115 C1114 1.373 . S
C1115 C1131 1.377 . S
C1116 C1114 1.389 . S
C1116 C1117 1.524 . S
C1116 C1130 1.377 . S
C1117 C1116 1.524 . S
C1117 C1118 1.397 . S
C1117 C1122 1.363 . S
C1118 H1095 0.950 . S
C1118 C1117 1.397 . S
C1118 C1119 1.334 . S
C1119 H1096 0.950 . S
C1119 C1118 1.334 . S
C1119 C1120 1.287 . S
C1120 C1119 1.287 . S
C1120 C1121 1.524 . S
C1120 H1139 0.913 . S
C1121 H1097 0.950 . S
C1121 C1120 1.524 . S
C1121 C1122 1.415 . S
C1122 H1098 0.950 . S
C1122 C1117 1.363 . S
C1122 C1121 1.415 . S
C1123 H1099 0.951 . S
C1123 C1124 1.366 . S
C1123 C1125 1.388 . S
C1124 C1123 1.366 . S
C1124 C1128 1.385 . S
C1125 H1100 0.951 . S
C1125 C1123 1.388 . S
C1125 C1126 1.366 . S
C1126 C1125 1.366 . S
C1126 C1127 1.414 . S
C1126 C1129 1.499 . S
C1127 H1101 0.950 . S
C1127 C1126 1.414 . S
C1127 C1128 1.374 . S
C1128 H1102 0.950 . S
C1128 C1124 1.385 . S
C1128 C1127 1.374 . S
C1129 C1126 1.499 . S
C1129 C1130 1.373 . S
C1129 C1131 1.389 . S
C1130 H1103 0.950 . S
C1130 C1116 1.377 . S
C1130 C1129 1.373 . S
C1131 C1115 1.377 . S
C1131 C1129 1.389 . S
C1131 C1132 1.524 . S
C1132 C1131 1.524 . S
C1132 C1133 1.397 . S
C1132 C1137 1.363 . S
C1133 H1104 0.950 . S
C1133 C1132 1.397 . S
C1133 C1134 1.334 . S
C1134 H1105 0.950 . S
C1134 C1133 1.334 . S
C1134 C1135 1.287 . S
C1135 C1134 1.287 . S
C1135 C1136 1.524 . S
C1135 H1138 0.999 . S
C1136 H1106 0.950 . S
C1136 C1135 1.524 . S
C1136 C1137 1.415 . S
C1137 H1107 0.950 . S
C1137 C1132 1.363 . S
C1137 C1136 1.415 . S
H1138 C1135 0.999 . S
H1139 C1120 0.913 . S
H1140 C1158 0.951 . S
H1141 C1160 0.951 . S
H1142 C1162 0.950 . S
H1143 C1163 0.950 . S
H1144 C1165 0.950 . S
H1145 C1168 0.950 . S
H1146 C1169 0.950 . S
H1147 C1171 0.950 . S
H1148 C1172 0.950 . S
H1149 C1173 0.951 . S
H1150 C1175 0.951 . S
H1151 C1177 0.950 . S
H1152 C1178 0.950 . S
H1153 C1180 0.950 . S
H1154 C1183 0.950 . S
H1155 C1184 0.950 . S
H1156 C1186 0.950 . S
H1157 C1187 0.950 . S
C1158 H1140 0.951 . S
C1158 C1159 1.366 . S
C1158 C1160 1.388 . S
C1159 C1158 1.366 . S
C1159 C1163 1.385 . S
C1160 H1141 0.951 . S
C1160 C1158 1.388 . S
C1160 C1161 1.366 . S
C1161 C1160 1.366 . S
C1161 C1162 1.414 . S
C1161 C1164 1.499 . S
C1162 H1142 0.950 . S
C1162 C1161 1.414 . S
C1162 C1163 1.374 . S
C1163 H1143 0.950 . S
C1163 C1159 1.385 . S
C1163 C1162 1.374 . S
C1164 C1161 1.499 . S
C1164 C1165 1.373 . S
C1164 C1166 1.389 . S
C1165 H1144 0.950 . S
C1165 C1164 1.373 . S
C1165 C1181 1.377 . S
C1166 C1164 1.389 . S
C1166 C1167 1.524 . S
C1166 C1180 1.377 . S
C1167 C1166 1.524 . S
C1167 C1168 1.397 . S
C1167 C1172 1.363 . S
C1168 H1145 0.950 . S
C1168 C1167 1.397 . S
C1168 C1169 1.334 . S
C1169 H1146 0.950 . S
C1169 C1168 1.334 . S
C1169 C1170 1.287 . S
C1170 C1169 1.287 . S
C1170 C1171 1.524 . S
C1170 H1189 0.913 . S
C1171 H1147 0.950 . S
C1171 C1170 1.524 . S
C1171 C1172 1.415 . S
C1172 H1148 0.950 . S
C1172 C1167 1.363 . S
C1172 C1171 1.415 . S
C1173 H1149 0.951 . S
C1173 C1174 1.366 . S
C1173 C1175 1.388 . S
C1174 C1173 1.366 . S
C1174 C1178 1.385 . S
C1175 H1150 0.951 . S
C1175 C1173 1.388 . S
C1175 C1176 1.366 . S
C1176 C1175 1.366 . S
C1176 C1177 1.414 . S
C1176 C1179 1.499 . S
C1177 H1151 0.950 . S
C1177 C1176 1.414 . S
C1177 C1178 1.374 . S
C1178 H1152 0.950 . S
C1178 C1174 1.385 . S
C1178 C1177 1.374 . S
C1179 C1176 1.499 . S
C1179 C1180 1.373 . S
C1179 C1181 1.389 . S
C1180 H1153 0.950 . S
C1180 C1166 1.377 . S
C1180 C1179 1.373 . S
C1181 C1165 1.377 . S
C1181 C1179 1.389 . S
C1181 C1182 1.524 . S
C1182 C1181 1.524 . S
C1182 C1183 1.397 . S
C1182 C1187 1.363 . S
C1183 H1154 0.950 . S
C1183 C1182 1.397 . S
C1183 C1184 1.334 . S
C1184 H1155 0.950 . S
C1184 C1183 1.334 . S
C1184 C1185 1.287 . S
C1185 C1184 1.287 . S
C1185 C1186 1.524 . S
C1185 H1188 0.999 . S
C1186 H1156 0.950 . S
C1186 C1185 1.524 . S
C1186 C1187 1.415 . S
C1187 H1157 0.950 . S
C1187 C1182 1.363 . S
C1187 C1186 1.415 . S
H1188 C1185 0.999 . S
H1189 C1170 0.913 . S
H1190 C1208 0.951 . S
H1191 C1210 0.951 . S
H1192 C1212 0.950 . S
H1193 C1213 0.950 . S
H1194 C1215 0.950 . S
H1195 C1218 0.950 . S
H1196 C1219 0.950 . S
H1197 C1221 0.950 . S
H1198 C1222 0.950 . S
H1199 C1223 0.951 . S
H1200 C1225 0.951 . S
H1201 C1227 0.950 . S
H1202 C1228 0.950 . S
H1203 C1230 0.950 . S
H1204 C1233 0.950 . S
H1205 C1234 0.950 . S
H1206 C1236 0.950 . S
H1207 C1237 0.950 . S
C1208 H1190 0.951 . S
C1208 C1209 1.366 . S
C1208 C1210 1.388 . S
C1209 C1208 1.366 . S
C1209 C1213 1.385 . S
C1210 H1191 0.951 . S
C1210 C1208 1.388 . S
C1210 C1211 1.366 . S
C1211 C1210 1.366 . S
C1211 C1212 1.414 . S
C1211 C1214 1.499 . S
C1212 H1192 0.950 . S
C1212 C1211 1.414 . S
C1212 C1213 1.374 . S
C1213 H1193 0.950 . S
C1213 C1209 1.385 . S
C1213 C1212 1.374 . S
C1214 C1211 1.499 . S
C1214 C1215 1.373 . S
C1214 C1216 1.389 . S
C1215 H1194 0.950 . S
C1215 C1214 1.373 . S
C1215 C1231 1.377 . S
C1216 C1214 1.389 . S
C1216 C1217 1.524 . S
C1216 C1230 1.377 . S
C1217 C1216 1.524 . S
C1217 C1218 1.397 . S
C1217 C1222 1.363 . S
C1218 H1195 0.950 . S
C1218 C1217 1.397 . S
C1218 C1219 1.334 . S
C1219 H1196 0.950 . S
C1219 C1218 1.334 . S
C1219 C1220 1.287 . S
C1220 C1219 1.287 . S
C1220 C1221 1.524 . S
C1220 H1239 0.913 . S
C1221 H1197 0.950 . S
C1221 C1220 1.524 . S
C1221 C1222 1.415 . S
C1222 H1198 0.950 . S
C1222 C1217 1.363 . S
C1222 C1221 1.415 . S
C1223 H1199 0.951 . S
C1223 C1224 1.366 . S
C1223 C1225 1.388 . S
C1224 C1223 1.366 . S
C1224 C1228 1.385 . S
C1225 H1200 0.951 . S
C1225 C1223 1.388 . S
C1225 C1226 1.366 . S
C1226 C1225 1.366 . S
C1226 C1227 1.414 . S
C1226 C1229 1.499 . S
C1227 H1201 0.950 . S
C1227 C1226 1.414 . S
C1227 C1228 1.374 . S
C1228 H1202 0.950 . S
C1228 C1224 1.385 . S
C1228 C1227 1.374 . S
C1229 C1226 1.499 . S
C1229 C1230 1.373 . S
C1229 C1231 1.389 . S
C1230 H1203 0.950 . S
C1230 C1216 1.377 . S
C1230 C1229 1.373 . S
C1231 C1215 1.377 . S
C1231 C1229 1.389 . S
C1231 C1232 1.524 . S
C1232 C1231 1.524 . S
C1232 C1233 1.397 . S
C1232 C1237 1.363 . S
C1233 H1204 0.950 . S
C1233 C1232 1.397 . S
C1233 C1234 1.334 . S
C1234 H1205 0.950 . S
C1234 C1233 1.334 . S
C1234 C1235 1.287 . S
C1235 C1234 1.287 . S
C1235 C1236 1.524 . S
C1235 H1238 0.999 . S
C1236 H1206 0.950 . S
C1236 C1235 1.524 . S
C1236 C1237 1.415 . S
C1237 H1207 0.950 . S
C1237 C1232 1.363 . S
C1237 C1236 1.415 . S
H1238 C1235 0.999 . S
H1239 C1220 0.913 . S
H1240 C1258 0.951 . S
H1241 C1260 0.951 . S
H1242 C1262 0.950 . S
H1243 C1263 0.950 . S
H1244 C1265 0.950 . S
H1245 C1268 0.950 . S
H1246 C1269 0.950 . S
H1247 C1271 0.950 . S
H1248 C1272 0.950 . S
H1249 C1273 0.951 . S
H1250 C1275 0.951 . S
H1251 C1277 0.950 . S
H1252 C1278 0.950 . S
H1253 C1280 0.950 . S
H1254 C1283 0.950 . S
H1255 C1284 0.950 . S
H1256 C1286 0.950 . S
H1257 C1287 0.950 . S
C1258 H1240 0.951 . S
C1258 C1259 1.366 . S
C1258 C1260 1.388 . S
C1259 C1258 1.366 . S
C1259 C1263 1.385 . S
C1260 H1241 0.951 . S
C1260 C1258 1.388 . S
C1260 C1261 1.366 . S
C1261 C1260 1.366 . S
C1261 C1262 1.414 . S
C1261 C1264 1.499 . S
C1262 H1242 0.950 . S
C1262 C1261 1.414 . S
C1262 C1263 1.374 . S
C1263 H1243 0.950 . S
C1263 C1259 1.385 . S
C1263 C1262 1.374 . S
C1264 C1261 1.499 . S
C1264 C1265 1.373 . S
C1264 C1266 1.389 . S
C1265 H1244 0.950 . S
C1265 C1264 1.373 . S
C1265 C1281 1.377 . S
C1266 C1264 1.389 . S
C1266 C1267 1.524 . S
C1266 C1280 1.377 . S
C1267 C1266 1.524 . S
C1267 C1268 1.397 . S
C1267 C1272 1.363 . S
C1268 H1245 0.950 . S
C1268 C1267 1.397 . S
C1268 C1269 1.334 . S
C1269 H1246 0.950 . S
C1269 C1268 1.334 . S
C1269 C1270 1.287 . S
C1270 C1269 1.287 . S
C1270 C1271 1.524 . S
C1270 H1289 0.913 . S
C1271 H1247 0.950 . S
C1271 C1270 1.524 . S
C1271 C1272 1.415 . S
C1272 H1248 0.950 . S
C1272 C1267 1.363 . S
C1272 C1271 1.415 . S
C1273 H1249 0.951 . S
C1273 C1274 1.366 . S
C1273 C1275 1.388 . S
C1274 C1273 1.366 . S
C1274 C1278 1.385 . S
C1275 H1250 0.951 . S
C1275 C1273 1.388 . S
C1275 C1276 1.366 . S
C1276 C1275 1.366 . S
C1276 C1277 1.414 . S
C1276 C1279 1.499 . S
C1277 H1251 0.950 . S
C1277 C1276 1.414 . S
C1277 C1278 1.374 . S
C1278 H1252 0.950 . S
C1278 C1274 1.385 . S
C1278 C1277 1.374 . S
C1279 C1276 1.499 . S
C1279 C1280 1.373 . S
C1279 C1281 1.389 . S
C1280 H1253 0.950 . S
C1280 C1266 1.377 . S
C1280 C1279 1.373 . S
C1281 C1265 1.377 . S
C1281 C1279 1.389 . S
C1281 C1282 1.524 . S
C1282 C1281 1.524 . S
C1282 C1283 1.397 . S
C1282 C1287 1.363 . S
C1283 H1254 0.950 . S
C1283 C1282 1.397 . S
C1283 C1284 1.334 . S
C1284 H1255 0.950 . S
C1284 C1283 1.334 . S
C1284 C1285 1.287 . S
C1285 C1284 1.287 . S
C1285 C1286 1.524 . S
C1285 H1288 0.999 . S
C1286 H1256 0.950 . S
C1286 C1285 1.524 . S
C1286 C1287 1.415 . S
C1287 H1257 0.950 . S
C1287 C1282 1.363 . S
C1287 C1286 1.415 . S
H1288 C1285 0.999 . S
H1289 C1270 0.913 . S
H1290 C1308 0.951 . S
H1291 C1310 0.951 . S
H1292 C1312 0.950 . S
H1293 C1313 0.950 . S
H1294 C1315 0.950 . S
H1295 C1318 0.950 . S
H1296 C1319 0.950 . S
H1297 C1321 0.950 . S
H1298 C1322 0.950 . S
H1299 C1323 0.951 . S
H1300 C1325 0.951 . S
H1301 C1327 0.950 . S
H1302 C1328 0.950 . S
H1303 C1330 0.950 . S
H1304 C1333 0.950 . S
H1305 C1334 0.950 . S
H1306 C1336 0.950 . S
H1307 C1337 0.950 . S
C1308 H1290 0.951 . S
C1308 C1309 1.366 . S
C1308 C1310 1.388 . S
C1309 C1308 1.366 . S
C1309 C1313 1.385 . S
C1310 H1291 0.951 . S
C1310 C1308 1.388 . S
C1310 C1311 1.366 . S
C1311 C1310 1.366 . S
C1311 C1312 1.414 . S
C1311 C1314 1.499 . S
C1312 H1292 0.950 . S
C1312 C1311 1.414 . S
C1312 C1313 1.374 . S
C1313 H1293 0.950 . S
C1313 C1309 1.385 . S
C1313 C1312 1.374 . S
C1314 C1311 1.499 . S
C1314 C1315 1.373 . S
C1314 C1316 1.389 . S
C1315 H1294 0.950 . S
C1315 C1314 1.373 . S
C1315 C1331 1.377 . S
C1316 C1314 1.389 . S
C1316 C1317 1.524 . S
C1316 C1330 1.377 . S
C1317 C1316 1.524 . S
C1317 C1318 1.397 . S
C1317 C1322 1.363 . S
C1318 H1295 0.950 . S
C1318 C1317 1.397 . S
C1318 C1319 1.334 . S
C1319 H1296 0.950 . S
C1319 C1318 1.334 . S
C1319 C1320 1.287 . S
C1320 C1319 1.287 . S
C1320 C1321 1.524 . S
C1320 H1339 0.913 . S
C1321 H1297 0.950 . S
C1321 C1320 1.524 . S
C1321 C1322 1.415 . S
C1322 H1298 0.950 . S
C1322 C1317 1.363 . S
C1322 C1321 1.415 . S
C1323 H1299 0.951 . S
C1323 C1324 1.366 . S
C1323 C1325 1.388 . S
C1324 C1323 1.366 . S
C1324 C1328 1.385 . S
C1325 H1300 0.951 . S
C1325 C1323 1.388 . S
C1325 C1326 1.366 . S
C1326 C1325 1.366 . S
C1326 C1327 1.414 . S
C1326 C1329 1.499 . S
C1327 H1301 0.950 . S
C1327 C1326 1.414 . S
C1327 C1328 1.374 . S
C1328 H1302 0.950 . S
C1328 C1324 1.385 . S
C1328 C1327 1.374 . S
C1329 C1326 1.499 . S
C1329 C1330 1.373 . S
C1329 C1331 1.389 . S
C1330 H1303 0.950 . S
C1330 C1316 1.377 . S
C1330 C1329 1.373 . S
C1331 C1315 1.377 . S
C1331 C1329 1.389 . S
C1331 C1332 1.524 . S
C1332 C1331 1.524 . S
C1332 C1333 1.397 . S
C1332 C1337 1.363 . S
C1333 H1304 0.950 . S
C1333 C1332 1.397 . S
C1333 C1334 1.334 . S
C1334 H1305 0.950 . S
C1334 C1333 1.334 . S
C1334 C1335 1.287 . S
C1335 C1334 1.287 . S
C1335 C1336 1.524 . S
C1335 H1338 0.999 . S
C1336 H1306 0.950 . S
C1336 C1335 1.524 . S
C1336 C1337 1.415 . S
C1337 H1307 0.950 . S
C1337 C1332 1.363 . S
C1337 C1336 1.415 . S
H1338 C1335 0.999 . S
H1339 C1320 0.913 . S
H1340 C1358 0.951 . S
H1341 C1360 0.951 . S
H1342 C1362 0.950 . S
H1343 C1363 0.950 . S
H1344 C1365 0.950 . S
H1345 C1368 0.950 . S
H1346 C1369 0.950 . S
H1347 C1371 0.950 . S
H1348 C1372 0.950 . S
H1349 C1373 0.951 . S
H1350 C1375 0.951 . S
H1351 C1377 0.950 . S
H1352 C1378 0.950 . S
H1353 C1380 0.950 . S
H1354 C1383 0.950 . S
H1355 C1384 0.950 . S
H1356 C1386 0.950 . S
H1357 C1387 0.950 . S
C1358 H1340 0.951 . S
C1358 C1359 1.366 . S
C1358 C1360 1.388 . S
C1359 C1358 1.366 . S
C1359 C1363 1.385 . S
C1360 H1341 0.951 . S
C1360 C1358 1.388 . S
C1360 C1361 1.366 . S
C1361 C1360 1.366 . S
C1361 C1362 1.414 . S
C1361 C1364 1.499 . S
C1362 H1342 0.950 . S
C1362 C1361 1.414 . S
C1362 C1363 1.374 . S
C1363 H1343 0.950 . S
C1363 C1359 1.385 . S
C1363 C1362 1.374 . S
C1364 C1361 1.499 . S
C1364 C1365 1.373 . S
C1364 C1366 1.389 . S
C1365 H1344 0.950 . S
C1365 C1364 1.373 . S
C1365 C1381 1.377 . S
C1366 C1364 1.389 . S
C1366 C1367 1.524 . S
C1366 C1380 1.377 . S
C1367 C1366 1.524 . S
C1367 C1368 1.397 . S
C1367 C1372 1.363 . S
C1368 H1345 0.950 . S
C1368 C1367 1.397 . S
C1368 C1369 1.334 . S
C1369 H1346 0.950 . S
C1369 C1368 1.334 . S
C1369 C1370 1.287 . S
C1370 C1369 1.287 . S
C1370 C1371 1.524 . S
C1370 H1389 0.913 . S
C1371 H1347 0.950 . S
C1371 C1370 1.524 . S
C1371 C1372 1.415 . S
C1372 H1348 0.950 . S
C1372 C1367 1.363 . S
C1372 C1371 1.415 . S
C1373 H1349 0.951 . S
C1373 C1374 1.366 . S
C1373 C1375 1.388 . S
C1374 C1373 1.366 . S
C1374 C1378 1.385 . S
C1375 H1350 0.951 . S
C1375 C1373 1.388 . S
C1375 C1376 1.366 . S
C1376 C1375 1.366 . S
C1376 C1377 1.414 . S
C1376 C1379 1.499 . S
C1377 H1351 0.950 . S
C1377 C1376 1.414 . S
C1377 C1378 1.374 . S
C1378 H1352 0.950 . S
C1378 C1374 1.385 . S
C1378 C1377 1.374 . S
C1379 C1376 1.499 . S
C1379 C1380 1.373 . S
C1379 C1381 1.389 . S
C1380 H1353 0.950 . S
C1380 C1366 1.377 . S
C1380 C1379 1.373 . S
C1381 C1365 1.377 . S
C1381 C1379 1.389 . S
C1381 C1382 1.524 . S
C1382 C1381 1.524 . S
C1382 C1383 1.397 . S
C1382 C1387 1.363 . S
C1383 H1354 0.950 . S
C1383 C1382 1.397 . S
C1383 C1384 1.334 . S
C1384 H1355 0.950 . S
C1384 C1383 1.334 . S
C1384 C1385 1.287 . S
C1385 C1384 1.287 . S
C1385 C1386 1.524 . S
C1385 H1388 0.999 . S
C1386 H1356 0.950 . S
C1386 C1385 1.524 . S
C1386 C1387 1.415 . S
C1387 H1357 0.950 . S
C1387 C1382 1.363 . S
C1387 C1386 1.415 . S
H1388 C1385 0.999 . S
H1389 C1370 0.913 . S
H1390 C1408 0.951 . S
H1391 C1410 0.951 . S
H1392 C1412 0.950 . S
H1393 C1413 0.950 . S
H1394 C1415 0.950 . S
H1395 C1418 0.950 . S
H1396 C1419 0.950 . S
H1397 C1421 0.950 . S
H1398 C1422 0.950 . S
H1399 C1423 0.951 . S
H1400 C1425 0.951 . S
H1401 C1427 0.950 . S
H1402 C1428 0.950 . S
H1403 C1430 0.950 . S
H1404 C1433 0.950 . S
H1405 C1434 0.950 . S
H1406 C1436 0.950 . S
H1407 C1437 0.950 . S
C1408 H1390 0.951 . S
C1408 C1409 1.366 . S
C1408 C1410 1.388 . S
C1409 C1408 1.366 . S
C1409 C1413 1.385 . S
C1410 H1391 0.951 . S
C1410 C1408 1.388 . S
C1410 C1411 1.366 . S
C1411 C1410 1.366 . S
C1411 C1412 1.414 . S
C1411 C1414 1.499 . S
C1412 H1392 0.950 . S
C1412 C1411 1.414 . S
C1412 C1413 1.374 . S
C1413 H1393 0.950 . S
C1413 C1409 1.385 . S
C1413 C1412 1.374 . S
C1414 C1411 1.499 . S
C1414 C1415 1.373 . S
C1414 C1416 1.389 . S
C1415 H1394 0.950 . S
C1415 C1414 1.373 . S
C1415 C1431 1.377 . S
C1416 C1414 1.389 . S
C1416 C1417 1.524 . S
C1416 C1430 1.377 . S
C1417 C1416 1.524 . S
C1417 C1418 1.397 . S
C1417 C1422 1.363 . S
C1418 H1395 0.950 . S
C1418 C1417 1.397 . S
C1418 C1419 1.334 . S
C1419 H1396 0.950 . S
C1419 C1418 1.334 . S
C1419 C1420 1.287 . S
C1420 C1419 1.287 . S
C1420 C1421 1.524 . S
C1420 H1439 0.913 . S
C1421 H1397 0.950 . S
C1421 C1420 1.524 . S
C1421 C1422 1.415 . S
C1422 H1398 0.950 . S
C1422 C1417 1.363 . S
C1422 C1421 1.415 . S
C1423 H1399 0.951 . S
C1423 C1424 1.366 . S
C1423 C1425 1.388 . S
C1424 C1423 1.366 . S
C1424 C1428 1.385 . S
C1425 H1400 0.951 . S
C1425 C1423 1.388 . S
C1425 C1426 1.366 . S
C1426 C1425 1.366 . S
C1426 C1427 1.414 . S
C1426 C1429 1.499 . S
C1427 H1401 0.950 . S
C1427 C1426 1.414 . S
C1427 C1428 1.374 . S
C1428 H1402 0.950 . S
C1428 C1424 1.385 . S
C1428 C1427 1.374 . S
C1429 C1426 1.499 . S
C1429 C1430 1.373 . S
C1429 C1431 1.389 . S
C1430 H1403 0.950 . S
C1430 C1416 1.377 . S
C1430 C1429 1.373 . S
C1431 C1415 1.377 . S
C1431 C1429 1.389 . S
C1431 C1432 1.524 . S
C1432 C1431 1.524 . S
C1432 C1433 1.397 . S
C1432 C1437 1.363 . S
C1433 H1404 0.950 . S
C1433 C1432 1.397 . S
C1433 C1434 1.334 . S
C1434 H1405 0.950 . S
C1434 C1433 1.334 . S
C1434 C1435 1.287 . S
C1435 C1434 1.287 . S
C1435 C1436 1.524 . S
C1435 H1438 0.999 . S
C1436 H1406 0.950 . S
C1436 C1435 1.524 . S
C1436 C1437 1.415 . S
C1437 H1407 0.950 . S
C1437 C1432 1.363 . S
C1437 C1436 1.415 . S
H1438 C1435 0.999 . S
H1439 C1420 0.913 . S
H1440 C1458 0.951 . S
H1441 C1460 0.951 . S
H1442 C1462 0.950 . S
H1443 C1463 0.950 . S
H1444 C1465 0.950 . S
H1445 C1468 0.950 . S
H1446 C1469 0.950 . S
H1447 C1471 0.950 . S
H1448 C1472 0.950 . S
H1449 C1473 0.951 . S
H1450 C1475 0.951 . S
H1451 C1477 0.950 . S
H1452 C1478 0.950 . S
H1453 C1480 0.950 . S
H1454 C1483 0.950 . S
H1455 C1484 0.950 . S
H1456 C1486 0.950 . S
H1457 C1487 0.950 . S
C1458 H1440 0.951 . S
C1458 C1459 1.366 . S
C1458 C1460 1.388 . S
C1459 C1458 1.366 . S
C1459 C1463 1.385 . S
C1460 H1441 0.951 . S
C1460 C1458 1.388 . S
C1460 C1461 1.366 . S
C1461 C1460 1.366 . S
C1461 C1462 1.414 . S
C1461 C1464 1.499 . S
C1462 H1442 0.950 . S
C1462 C1461 1.414 . S
C1462 C1463 1.374 . S
C1463 H1443 0.950 . S
C1463 C1459 1.385 . S
C1463 C1462 1.374 . S
C1464 C1461 1.499 . S
C1464 C1465 1.373 . S
C1464 C1466 1.389 . S
C1465 H1444 0.950 . S
C1465 C1464 1.373 . S
C1465 C1481 1.377 . S
C1466 C1464 1.389 . S
C1466 C1467 1.524 . S
C1466 C1480 1.377 . S
C1467 C1466 1.524 . S
C1467 C1468 1.397 . S
C1467 C1472 1.363 . S
C1468 H1445 0.950 . S
C1468 C1467 1.397 . S
C1468 C1469 1.334 . S
C1469 H1446 0.950 . S
C1469 C1468 1.334 . S
C1469 C1470 1.287 . S
C1470 C1469 1.287 . S
C1470 C1471 1.524 . S
C1470 H1489 0.913 . S
C1471 H1447 0.950 . S
C1471 C1470 1.524 . S
C1471 C1472 1.415 . S
C1472 H1448 0.950 . S
C1472 C1467 1.363 . S
C1472 C1471 1.415 . S
C1473 H1449 0.951 . S
C1473 C1474 1.366 . S
C1473 C1475 1.388 . S
C1474 C1473 1.366 . S
C1474 C1478 1.385 . S
C1475 H1450 0.951 . S
C1475 C1473 1.388 . S
C1475 C1476 1.366 . S
C1476 C1475 1.366 . S
C1476 C1477 1.414 . S
C1476 C1479 1.499 . S
C1477 H1451 0.950 . S
C1477 C1476 1.414 . S
C1477 C1478 1.374 . S
C1478 H1452 0.950 . S
C1478 C1474 1.385 . S
C1478 C1477 1.374 . S
C1479 C1476 1.499 . S
C1479 C1480 1.373 . S
C1479 C1481 1.389 . S
C1480 H1453 0.950 . S
C1480 C1466 1.377 . S
C1480 C1479 1.373 . S
C1481 C1465 1.377 . S
C1481 C1479 1.389 . S
C1481 C1482 1.524 . S
C1482 C1481 1.524 . S
C1482 C1483 1.397 . S
C1482 C1487 1.363 . S
C1483 H1454 0.950 . S
C1483 C1482 1.397 . S
C1483 C1484 1.334 . S
C1484 H1455 0.950 . S
C1484 C1483 1.334 . S
C1484 C1485 1.287 . S
C1485 C1484 1.287 . S
C1485 C1486 1.524 . S
C1485 H1488 0.999 . S
C1486 H1456 0.950 . S
C1486 C1485 1.524 . S
C1486 C1487 1.415 . S
C1487 H1457 0.950 . S
C1487 C1482 1.363 . S
C1487 C1486 1.415 . S
H1488 C1485 0.999 . S
H1489 C1470 0.913 . S
H1490 C1508 0.951 . S
H1491 C1510 0.951 . S
H1492 C1512 0.950 . S
H1493 C1513 0.950 . S
H1494 C1515 0.950 . S
H1495 C1518 0.950 . S
H1496 C1519 0.950 . S
H1497 C1521 0.950 . S
H1498 C1522 0.950 . S
H1499 C1523 0.951 . S
H1500 C1525 0.951 . S
H1501 C1527 0.950 . S
H1502 C1528 0.950 . S
H1503 C1530 0.950 . S
H1504 C1533 0.950 . S
H1505 C1534 0.950 . S
H1506 C1536 0.950 . S
H1507 C1537 0.950 . S
C1508 H1490 0.951 . S
C1508 C1509 1.366 . S
C1508 C1510 1.388 . S
C1509 C1508 1.366 . S
C1509 C1513 1.385 . S
C1510 H1491 0.951 . S
C1510 C1508 1.388 . S
C1510 C1511 1.366 . S
C1511 C1510 1.366 . S
C1511 C1512 1.414 . S
C1511 C1514 1.499 . S
C1512 H1492 0.950 . S
C1512 C1511 1.414 . S
C1512 C1513 1.374 . S
C1513 H1493 0.950 . S
C1513 C1509 1.385 . S
C1513 C1512 1.374 . S
C1514 C1511 1.499 . S
C1514 C1515 1.373 . S
C1514 C1516 1.389 . S
C1515 H1494 0.950 . S
C1515 C1514 1.373 . S
C1515 C1531 1.377 . S
C1516 C1514 1.389 . S
C1516 C1517 1.524 . S
C1516 C1530 1.377 . S
C1517 C1516 1.524 . S
C1517 C1518 1.397 . S
C1517 C1522 1.363 . S
C1518 H1495 0.950 . S
C1518 C1517 1.397 . S
C1518 C1519 1.334 . S
C1519 H1496 0.950 . S
C1519 C1518 1.334 . S
C1519 C1520 1.287 . S
C1520 C1519 1.287 . S
C1520 C1521 1.524 . S
C1520 H1539 0.913 . S
C1521 H1497 0.950 . S
C1521 C1520 1.524 . S
C1521 C1522 1.415 . S
C1522 H1498 0.950 . S
C1522 C1517 1.363 . S
C1522 C1521 1.415 . S
C1523 H1499 0.951 . S
C1523 C1524 1.366 . S
C1523 C1525 1.388 . S
C1524 C1523 1.366 . S
C1524 C1528 1.385 . S
C1525 H1500 0.951 . S
C1525 C1523 1.388 . S
C1525 C1526 1.366 . S
C1526 C1525 1.366 . S
C1526 C1527 1.414 . S
C1526 C1529 1.499 . S
C1527 H1501 0.950 . S
C1527 C1526 1.414 . S
C1527 C1528 1.374 . S
C1528 H1502 0.950 . S
C1528 C1524 1.385 . S
C1528 C1527 1.374 . S
C1529 C1526 1.499 . S
C1529 C1530 1.373 . S
C1529 C1531 1.389 . S
C1530 H1503 0.950 . S
C1530 C1516 1.377 . S
C1530 C1529 1.373 . S
C1531 C1515 1.377 . S
C1531 C1529 1.389 . S
C1531 C1532 1.524 . S
C1532 C1531 1.524 . S
C1532 C1533 1.397 . S
C1532 C1537 1.363 . S
C1533 H1504 0.950 . S
C1533 C1532 1.397 . S
C1533 C1534 1.334 . S
C1534 H1505 0.950 . S
C1534 C1533 1.334 . S
C1534 C1535 1.287 . S
C1535 C1534 1.287 . S
C1535 C1536 1.524 . S
C1535 H1538 0.999 . S
C1536 H1506 0.950 . S
C1536 C1535 1.524 . S
C1536 C1537 1.415 . S
C1537 H1507 0.950 . S
C1537 C1532 1.363 . S
C1537 C1536 1.415 . S
H1538 C1535 0.999 . S
H1539 C1520 0.913 . S
H1540 C1558 0.951 . S
H1541 C1560 0.951 . S
H1542 C1562 0.950 . S
H1543 C1563 0.950 . S
H1544 C1565 0.950 . S
H1545 C1568 0.950 . S
H1546 C1569 0.950 . S
H1547 C1571 0.950 . S
H1548 C1572 0.950 . S
H1549 C1573 0.951 . S
H1550 C1575 0.951 . S
H1551 C1577 0.950 . S
H1552 C1578 0.950 . S
H1553 C1580 0.950 . S
H1554 C1583 0.950 . S
H1555 C1584 0.950 . S
H1556 C1586 0.950 . S
H1557 C1587 0.950 . S
C1558 H1540 0.951 . S
C1558 C1559 1.366 . S
C1558 C1560 1.388 . S
C1559 C1558 1.366 . S
C1559 C1563 1.385 . S
C1560 H1541 0.951 . S
C1560 C1558 1.388 . S
C1560 C1561 1.366 . S
C1561 C1560 1.366 . S
C1561 C1562 1.414 . S
C1561 C1564 1.499 . S
C1562 H1542 0.950 . S
C1562 C1561 1.414 . S
C1562 C1563 1.374 . S
C1563 H1543 0.950 . S
C1563 C1559 1.385 . S
C1563 C1562 1.374 . S
C1564 C1561 1.499 . S
C1564 C1565 1.373 . S
C1564 C1566 1.389 . S
C1565 H1544 0.950 . S
C1565 C1564 1.373 . S
C1565 C1581 1.377 . S
C1566 C1564 1.389 . S
C1566 C1567 1.524 . S
C1566 C1580 1.377 . S
C1567 C1566 1.524 . S
C1567 C1568 1.397 . S
C1567 C1572 1.363 . S
C1568 H1545 0.950 . S
C1568 C1567 1.397 . S
C1568 C1569 1.334 . S
C1569 H1546 0.950 . S
C1569 C1568 1.334 . S
C1569 C1570 1.287 . S
C1570 C1569 1.287 . S
C1570 C1571 1.524 . S
C1570 H1589 0.913 . S
C1571 H1547 0.950 . S
C1571 C1570 1.524 . S
C1571 C1572 1.415 . S
C1572 H1548 0.950 . S
C1572 C1567 1.363 . S
C1572 C1571 1.415 . S
C1573 H1549 0.951 . S
C1573 C1574 1.366 . S
C1573 C1575 1.388 . S
C1574 C1573 1.366 . S
C1574 C1578 1.385 . S
C1575 H1550 0.951 . S
C1575 C1573 1.388 . S
C1575 C1576 1.366 . S
C1576 C1575 1.366 . S
C1576 C1577 1.414 . S
C1576 C1579 1.499 . S
C1577 H1551 0.950 . S
C1577 C1576 1.414 . S
C1577 C1578 1.374 . S
C1578 H1552 0.950 . S
C1578 C1574 1.385 . S
C1578 C1577 1.374 . S
C1579 C1576 1.499 . S
C1579 C1580 1.373 . S
C1579 C1581 1.389 . S
C1580 H1553 0.950 . S
C1580 C1566 1.377 . S
C1580 C1579 1.373 . S
C1581 C1565 1.377 . S
C1581 C1579 1.389 . S
C1581 C1582 1.524 . S
C1582 C1581 1.524 . S
C1582 C1583 1.397 . S
C1582 C1587 1.363 . S
C1583 H1554 0.950 . S
C1583 C1582 1.397 . S
C1583 C1584 1.334 . S
C1584 H1555 0.950 . S
C1584 C1583 1.334 . S
C1584 C1585 1.287 . S
C1585 C1584 1.287 . S
C1585 C1586 1.524 . S
C1585 H1588 0.999 . S
C1586 H1556 0.950 . S
C1586 C1585 1.524 . S
C1586 C1587 1.415 . S
C1587 H1557 0.950 . S
C1587 C1582 1.363 . S
C1587 C1586 1.415 . S
H1588 C1585 0.999 . S
H1589 C1570 0.913 . S
H1590 C1608 0.951 . S
H1591 C1610 0.951 . S
H1592 C1612 0.950 . S
H1593 C1613 0.950 . S
H1594 C1615 0.950 . S
H1595 C1618 0.950 . S
H1596 C1619 0.950 . S
H1597 C1621 0.950 . S
H1598 C1622 0.950 . S
H1599 C1623 0.951 . S
H1600 C1625 0.951 . S
H1601 C1627 0.950 . S
H1602 C1628 0.950 . S
H1603 C1630 0.950 . S
H1604 C1633 0.950 . S
H1605 C1634 0.950 . S
H1606 C1636 0.950 . S
H1607 C1637 0.950 . S
C1608 H1590 0.951 . S
C1608 C1609 1.366 . S
C1608 C1610 1.388 . S
C1609 C1608 1.366 . S
C1609 C1613 1.385 . S
C1610 H1591 0.951 . S
C1610 C1608 1.388 . S
C1610 C1611 1.366 . S
C1611 C1610 1.366 . S
C1611 C1612 1.414 . S
C1611 C1614 1.499 . S
C1612 H1592 0.950 . S
C1612 C1611 1.414 . S
C1612 C1613 1.374 . S
C1613 H1593 0.950 . S
C1613 C1609 1.385 . S
C1613 C1612 1.374 . S
C1614 C1611 1.499 . S
C1614 C1615 1.373 . S
C1614 C1616 1.389 . S
C1615 H1594 0.950 . S
C1615 C1614 1.373 . S
C1615 C1631 1.377 . S
C1616 C1614 1.389 . S
C1616 C1617 1.524 . S
C1616 C1630 1.377 . S
C1617 C1616 1.524 . S
C1617 C1618 1.397 . S
C1617 C1622 1.363 . S
C1618 H1595 0.950 . S
C1618 C1617 1.397 . S
C1618 C1619 1.334 . S
C1619 H1596 0.950 . S
C1619 C1618 1.334 . S
C1619 C1620 1.287 . S
C1620 C1619 1.287 . S
C1620 C1621 1.524 . S
C1620 H1639 0.913 . S
C1621 H1597 0.950 . S
C1621 C1620 1.524 . S
C1621 C1622 1.415 . S
C1622 H1598 0.950 . S
C1622 C1617 1.363 . S
C1622 C1621 1.415 . S
C1623 H1599 0.951 . S
C1623 C1624 1.366 . S
C1623 C1625 1.388 . S
C1624 C1623 1.366 . S
C1624 C1628 1.385 . S
C1625 H1600 0.951 . S
C1625 C1623 1.388 . S
C1625 C1626 1.366 . S
C1626 C1625 1.366 . S
C1626 C1627 1.414 . S
C1626 C1629 1.499 . S
C1627 H1601 0.950 . S
C1627 C1626 1.414 . S
C1627 C1628 1.374 . S
C1628 H1602 0.950 . S
C1628 C1624 1.385 . S
C1628 C1627 1.374 . S
C1629 C1626 1.499 . S
C1629 C1630 1.373 . S
C1629 C1631 1.389 . S
C1630 H1603 0.950 . S
C1630 C1616 1.377 . S
C1630 C1629 1.373 . S
C1631 C1615 1.377 . S
C1631 C1629 1.389 . S
C1631 C1632 1.524 . S
C1632 C1631 1.524 . S
C1632 C1633 1.397 . S
C1632 C1637 1.363 . S
C1633 H1604 0.950 . S
C1633 C1632 1.397 . S
C1633 C1634 1.334 . S
C1634 H1605 0.950 . S
C1634 C1633 1.334 . S
C1634 C1635 1.287 . S
C1635 C1634 1.287 . S
C1635 C1636 1.524 . S
C1635 H1638 0.999 . S
C1636 H1606 0.950 . S
C1636 C1635 1.524 . S
C1636 C1637 1.415 . S
C1637 H1607 0.950 . S
C1637 C1632 1.363 . S
C1637 C1636 1.415 . S
H1638 C1635 0.999 . S
H1639 C1620 0.913 . S
H1640 C1658 0.951 . S
H1641 C1660 0.951 . S
H1642 C1662 0.950 . S
H1643 C1663 0.950 . S
H1644 C1665 0.950 . S
H1645 C1668 0.950 . S
H1646 C1669 0.950 . S
H1647 C1671 0.950 . S
H1648 C1672 0.950 . S
H1649 C1673 0.951 . S
H1650 C1675 0.951 . S
H1651 C1677 0.950 . S
H1652 C1678 0.950 . S
H1653 C1680 0.950 . S
H1654 C1683 0.950 . S
H1655 C1684 0.950 . S
H1656 C1686 0.950 . S
H1657 C1687 0.950 . S
C1658 H1640 0.951 . S
C1658 C1659 1.366 . S
C1658 C1660 1.388 . S
C1659 C1658 1.366 . S
C1659 C1663 1.385 . S
C1660 H1641 0.951 . S
C1660 C1658 1.388 . S
C1660 C1661 1.366 . S
C1661 C1660 1.366 . S
C1661 C1662 1.414 . S
C1661 C1664 1.499 . S
C1662 H1642 0.950 . S
C1662 C1661 1.414 . S
C1662 C1663 1.374 . S
C1663 H1643 0.950 . S
C1663 C1659 1.385 . S
C1663 C1662 1.374 . S
C1664 C1661 1.499 . S
C1664 C1665 1.373 . S
C1664 C1666 1.389 . S
C1665 H1644 0.950 . S
C1665 C1664 1.373 . S
C1665 C1681 1.377 . S
C1666 C1664 1.389 . S
C1666 C1667 1.524 . S
C1666 C1680 1.377 . S
C1667 C1666 1.524 . S
C1667 C1668 1.397 . S
C1667 C1672 1.363 . S
C1668 H1645 0.950 . S
C1668 C1667 1.397 . S
C1668 C1669 1.334 . S
C1669 H1646 0.950 . S
C1669 C1668 1.334 . S
C1669 C1670 1.287 . S
C1670 C1669 1.287 . S
C1670 C1671 1.524 . S
C1670 H1689 0.913 . S
C1671 H1647 0.950 . S
C1671 C1670 1.524 . S
C1671 C1672 1.415 . S
C1672 H1648 0.950 . S
C1672 C1667 1.363 . S
C1672 C1671 1.415 . S
C1673 H1649 0.951 . S
C1673 C1674 1.366 . S
C1673 C1675 1.388 . S
C1674 C1673 1.366 . S
C1674 C1678 1.385 . S
C1675 H1650 0.951 . S
C1675 C1673 1.388 . S
C1675 C1676 1.366 . S
C1676 C1675 1.366 . S
C1676 C1677 1.414 . S
C1676 C1679 1.499 . S
C1677 H1651 0.950 . S
C1677 C1676 1.414 . S
C1677 C1678 1.374 . S
C1678 H1652 0.950 . S
C1678 C1674 1.385 . S
C1678 C1677 1.374 . S
C1679 C1676 1.499 . S
C1679 C1680 1.373 . S
C1679 C1681 1.389 . S
C1680 H1653 0.950 . S
C1680 C1666 1.377 . S
C1680 C1679 1.373 . S
C1681 C1665 1.377 . S
C1681 C1679 1.389 . S
C1681 C1682 1.524 . S
C1682 C1681 1.524 . S
C1682 C1683 1.397 . S
C1682 C1687 1.363 . S
C1683 H1654 0.950 . S
C1683 C1682 1.397 . S
C1683 C1684 1.334 . S
C1684 H1655 0.950 . S
C1684 C1683 1.334 . S
C1684 C1685 1.287 . S
C1685 C1684 1.287 . S
C1685 C1686 1.524 . S
C1685 H1688 0.999 . S
C1686 H1656 0.950 . S
C1686 C1685 1.524 . S
C1686 C1687 1.415 . S
C1687 H1657 0.950 . S
C1687 C1682 1.363 . S
C1687 C1686 1.415 . S
H1688 C1685 0.999 . S
H1689 C1670 0.913 . S
H1690 C1708 0.951 . S
H1691 C1710 0.951 . S
H1692 C1712 0.950 . S
H1693 C1713 0.950 . S
H1694 C1715 0.950 . S
H1695 C1718 0.950 . S
H1696 C1719 0.950 . S
H1697 C1721 0.950 . S
H1698 C1722 0.950 . S
H1699 C1723 0.951 . S
H1700 C1725 0.951 . S
H1701 C1727 0.950 . S
H1702 C1728 0.950 . S
H1703 C1730 0.950 . S
H1704 C1733 0.950 . S
H1705 C1734 0.950 . S
H1706 C1736 0.950 . S
H1707 C1737 0.950 . S
C1708 H1690 0.951 . S
C1708 C1709 1.366 . S
C1708 C1710 1.388 . S
C1709 C1708 1.366 . S
C1709 C1713 1.385 . S
C1710 H1691 0.951 . S
C1710 C1708 1.388 . S
C1710 C1711 1.366 . S
C1711 C1710 1.366 . S
C1711 C1712 1.414 . S
C1711 C1714 1.499 . S
C1712 H1692 0.950 . S
C1712 C1711 1.414 . S
C1712 C1713 1.374 . S
C1713 H1693 0.950 . S
C1713 C1709 1.385 . S
C1713 C1712 1.374 . S
C1714 C1711 1.499 . S
C1714 C1715 1.373 . S
C1714 C1716 1.389 . S
C1715 H1694 0.950 . S
C1715 C1714 1.373 . S
C1715 C1731 1.377 . S
C1716 C1714 1.389 . S
C1716 C1717 1.524 . S
C1716 C1730 1.377 . S
C1717 C1716 1.524 . S
C1717 C1718 1.397 . S
C1717 C1722 1.363 . S
C1718 H1695 0.950 . S
C1718 C1717 1.397 . S
C1718 C1719 1.334 . S
C1719 H1696 0.950 . S
C1719 C1718 1.334 . S
C1719 C1720 1.287 . S
C1720 C1719 1.287 . S
C1720 C1721 1.524 . S
C1720 H1739 0.913 . S
C1721 H1697 0.950 . S
C1721 C1720 1.524 . S
C1721 C1722 1.415 . S
C1722 H1698 0.950 . S
C1722 C1717 1.363 . S
C1722 C1721 1.415 . S
C1723 H1699 0.951 . S
C1723 C1724 1.366 . S
C1723 C1725 1.388 . S
C1724 C1723 1.366 . S
C1724 C1728 1.385 . S
C1725 H1700 0.951 . S
C1725 C1723 1.388 . S
C1725 C1726 1.366 . S
C1726 C1725 1.366 . S
C1726 C1727 1.414 . S
C1726 C1729 1.499 . S
C1727 H1701 0.950 . S
C1727 C1726 1.414 . S
C1727 C1728 1.374 . S
C1728 H1702 0.950 . S
C1728 C1724 1.385 . S
C1728 C1727 1.374 . S
C1729 C1726 1.499 . S
C1729 C1730 1.373 . S
C1729 C1731 1.389 . S
C1730 H1703 0.950 . S
C1730 C1716 1.377 . S
C1730 C1729 1.373 . S
C1731 C1715 1.377 . S
C1731 C1729 1.389 . S
C1731 C1732 1.524 . S
C1732 C1731 1.524 . S
C1732 C1733 1.397 . S
C1732 C1737 1.363 . S
C1733 H1704 0.950 . S
C1733 C1732 1.397 . S
C1733 C1734 1.334 . S
C1734 H1705 0.950 . S
C1734 C1733 1.334 . S
C1734 C1735 1.287 . S
C1735 C1734 1.287 . S
C1735 C1736 1.524 . S
C1735 H1738 0.999 . S
C1736 H1706 0.950 . S
C1736 C1735 1.524 . S
C1736 C1737 1.415 . S
C1737 H1707 0.950 . S
C1737 C1732 1.363 . S
C1737 C1736 1.415 . S
H1738 C1735 0.999 . S
H1739 C1720 0.913 . S
H1740 C1758 0.951 . S
H1741 C1760 0.951 . S
H1742 C1762 0.950 . S
H1743 C1763 0.950 . S
H1744 C1765 0.950 . S
H1745 C1768 0.950 . S
H1746 C1769 0.950 . S
H1747 C1771 0.950 . S
H1748 C1772 0.950 . S
H1749 C1773 0.951 . S
H1750 C1775 0.951 . S
H1751 C1777 0.950 . S
H1752 C1778 0.950 . S
H1753 C1780 0.950 . S
H1754 C1783 0.950 . S
H1755 C1784 0.950 . S
H1756 C1786 0.950 . S
H1757 C1787 0.950 . S
C1758 H1740 0.951 . S
C1758 C1759 1.366 . S
C1758 C1760 1.388 . S
C1759 C1758 1.366 . S
C1759 C1763 1.385 . S
C1760 H1741 0.951 . S
C1760 C1758 1.388 . S
C1760 C1761 1.366 . S
C1761 C1760 1.366 . S
C1761 C1762 1.414 . S
C1761 C1764 1.499 . S
C1762 H1742 0.950 . S
C1762 C1761 1.414 . S
C1762 C1763 1.374 . S
C1763 H1743 0.950 . S
C1763 C1759 1.385 . S
C1763 C1762 1.374 . S
C1764 C1761 1.499 . S
C1764 C1765 1.373 1_556 S
C1764 C1766 1.389 . S
C1765 H1744 0.950 . S
C1765 C1764 1.373 1_554 S
C1765 C1781 1.377 . S
C1766 C1764 1.389 . S
C1766 C1767 1.524 . S
C1766 C1780 1.377 . S
C1767 C1766 1.524 . S
C1767 C1768 1.397 . S
C1767 C1772 1.363 . S
C1768 H1745 0.950 . S
C1768 C1767 1.397 . S
C1768 C1769 1.334 . S
C1769 H1746 0.950 . S
C1769 C1768 1.334 . S
C1769 C1770 1.287 . S
C1770 C1769 1.287 . S
C1770 C1771 1.524 . S
C1770 H1789 0.913 . S
C1771 H1747 0.950 . S
C1771 C1770 1.524 . S
C1771 C1772 1.415 . S
C1772 H1748 0.950 . S
C1772 C1767 1.363 . S
C1772 C1771 1.415 . S
C1773 H1749 0.951 . S
C1773 C1774 1.366 . S
C1773 C1775 1.388 . S
C1774 C1773 1.366 . S
C1774 C1778 1.385 . S
C1775 H1750 0.951 . S
C1775 C1773 1.388 . S
C1775 C1776 1.366 . S
C1776 C1775 1.366 . S
C1776 C1777 1.414 . S
C1776 C1779 1.499 . S
C1777 H1751 0.950 . S
C1777 C1776 1.414 . S
C1777 C1778 1.374 . S
C1778 H1752 0.950 . S
C1778 C1774 1.385 . S
C1778 C1777 1.374 . S
C1779 C1776 1.499 . S
C1779 C1780 1.373 1_554 S
C1779 C1781 1.389 . S
C1780 H1753 0.950 . S
C1780 C1766 1.377 . S
C1780 C1779 1.373 1_556 S
C1781 C1765 1.377 . S
C1781 C1779 1.389 . S
C1781 C1782 1.524 . S
C1782 C1781 1.524 . S
C1782 C1783 1.397 . S
C1782 C1787 1.363 . S
C1783 H1754 0.950 . S
C1783 C1782 1.397 . S
C1783 C1784 1.334 . S
C1784 H1755 0.950 . S
C1784 C1783 1.334 . S
C1784 C1785 1.287 . S
C1785 C1784 1.287 . S
C1785 C1786 1.524 . S
C1785 H1788 0.999 . S
C1786 H1756 0.950 . S
C1786 C1785 1.524 . S
C1786 C1787 1.415 . S
C1787 H1757 0.950 . S
C1787 C1782 1.363 . S
C1787 C1786 1.415 . S
H1788 C1785 0.999 . S
H1789 C1770 0.913 . S
H1790 C1808 0.951 . S
H1791 C1810 0.951 . S
H1792 C1812 0.950 . S
H1793 C1813 0.950 . S
H1794 C1815 0.950 . S
H1795 C1818 0.950 . S
H1796 C1819 0.950 . S
H1797 C1821 0.950 . S
H1798 C1822 0.950 . S
H1799 C1823 0.951 . S
H1800 C1825 0.951 . S
H1801 C1827 0.950 . S
H1802 C1828 0.950 . S
H1803 C1830 0.950 . S
H1804 C1833 0.950 . S
H1805 C1834 0.950 . S
H1806 C1836 0.950 . S
H1807 C1837 0.950 . S
C1808 H1790 0.951 . S
C1808 C1809 1.366 . S
C1808 C1810 1.388 . S
C1809 C1808 1.366 . S
C1809 C1813 1.385 . S
C1810 H1791 0.951 . S
C1810 C1808 1.388 . S
C1810 C1811 1.366 . S
C1811 C1810 1.366 . S
C1811 C1812 1.414 . S
C1811 C1814 1.499 . S
C1812 H1792 0.950 . S
C1812 C1811 1.414 . S
C1812 C1813 1.374 . S
C1813 H1793 0.950 . S
C1813 C1809 1.385 . S
C1813 C1812 1.374 . S
C1814 C1811 1.499 . S
C1814 C1815 1.373 . S
C1814 C1816 1.389 1_455 S
C1815 H1794 0.950 . S
C1815 C1814 1.373 . S
C1815 C1831 1.377 . S
C1816 C1814 1.389 1_655 S
C1816 C1817 1.524 . S
C1816 C1830 1.377 . S
C1817 C1816 1.524 . S
C1817 C1818 1.397 . S
C1817 C1822 1.363 . S
C1818 H1795 0.950 . S
C1818 C1817 1.397 . S
C1818 C1819 1.334 . S
C1819 H1796 0.950 . S
C1819 C1818 1.334 . S
C1819 C1820 1.287 . S
C1820 C1819 1.287 . S
C1820 C1821 1.524 . S
C1820 H1839 0.913 . S
C1821 H1797 0.950 . S
C1821 C1820 1.524 . S
C1821 C1822 1.415 . S
C1822 H1798 0.950 . S
C1822 C1817 1.363 . S
C1822 C1821 1.415 . S
C1823 H1799 0.951 . S
C1823 C1824 1.366 . S
C1823 C1825 1.388 . S
C1824 C1823 1.366 . S
C1824 C1828 1.385 . S
C1825 H1800 0.951 . S
C1825 C1823 1.388 . S
C1825 C1826 1.366 . S
C1826 C1825 1.366 . S
C1826 C1827 1.414 . S
C1826 C1829 1.499 . S
C1827 H1801 0.950 . S
C1827 C1826 1.414 . S
C1827 C1828 1.374 . S
C1828 H1802 0.950 . S
C1828 C1824 1.385 . S
C1828 C1827 1.374 . S
C1829 C1826 1.499 . S
C1829 C1830 1.373 . S
C1829 C1831 1.389 1_655 S
C1830 H1803 0.950 . S
C1830 C1816 1.377 . S
C1830 C1829 1.373 . S
C1831 C1815 1.377 . S
C1831 C1829 1.389 1_455 S
C1831 C1832 1.524 . S
C1832 C1831 1.524 . S
C1832 C1833 1.397 . S
C1832 C1837 1.363 . S
C1833 H1804 0.950 . S
C1833 C1832 1.397 . S
C1833 C1834 1.334 . S
C1834 H1805 0.950 . S
C1834 C1833 1.334 . S
C1834 C1835 1.287 . S
C1835 C1834 1.287 . S
C1835 C1836 1.524 . S
C1835 H1838 0.999 . S
C1836 H1806 0.950 . S
C1836 C1835 1.524 . S
C1836 C1837 1.415 . S
C1837 H1807 0.950 . S
C1837 C1832 1.363 . S
C1837 C1836 1.415 . S
H1838 C1835 0.999 . S
H1839 C1820 0.913 . S
H1840 C1858 0.951 . S
H1841 C1860 0.951 . S
H1842 C1862 0.950 . S
H1843 C1863 0.950 . S
H1844 C1865 0.950 . S
H1845 C1868 0.950 . S
H1846 C1869 0.950 . S
H1847 C1871 0.950 . S
H1848 C1872 0.950 . S
H1849 C1873 0.951 . S
H1850 C1875 0.951 . S
H1851 C1877 0.950 . S
H1852 C1878 0.950 . S
H1853 C1880 0.950 . S
H1854 C1883 0.950 . S
H1855 C1884 0.950 . S
H1856 C1886 0.950 . S
H1857 C1887 0.950 . S
C1858 H1840 0.951 . S
C1858 C1859 1.366 . S
C1858 C1860 1.388 . S
C1859 C1858 1.366 . S
C1859 C1863 1.385 . S
C1860 H1841 0.951 . S
C1860 C1858 1.388 . S
C1860 C1861 1.366 . S
C1861 C1860 1.366 . S
C1861 C1862 1.414 . S
C1861 C1864 1.499 . S
C1862 H1842 0.950 . S
C1862 C1861 1.414 . S
C1862 C1863 1.374 . S
C1863 H1843 0.950 . S
C1863 C1859 1.385 . S
C1863 C1862 1.374 . S
C1864 C1861 1.499 . S
C1864 C1865 1.373 . S
C1864 C1866 1.389 . S
C1865 H1844 0.950 . S
C1865 C1864 1.373 . S
C1865 C1881 1.377 1_564 S
C1866 C1864 1.389 . S
C1866 C1867 1.514 . S
C1866 C1880 1.377 1_564 S
C1867 C1866 1.514 . S
C1867 C1868 1.390 1_565 S
C1867 C1872 1.377 . S
C1868 H1845 0.950 . S
C1868 C1867 1.390 1_545 S
C1868 C1869 1.334 . S
C1869 H1846 0.950 . S
C1869 C1868 1.334 . S
C1869 C1870 1.287 . S
C1870 C1869 1.287 . S
C1870 C1871 1.524 1_545 S
C1870 H1889 0.913 . S
C1871 H1847 0.950 . S
C1871 C1870 1.524 1_565 S
C1871 C1872 1.415 . S
C1872 H1848 0.950 . S
C1872 C1867 1.377 . S
C1872 C1871 1.415 . S
C1873 H1849 0.951 . S
C1873 C1874 1.366 . S
C1873 C1875 1.388 . S
C1874 C1873 1.366 . S
C1874 C1878 1.385 . S
C1875 H1850 0.951 . S
C1875 C1873 1.388 . S
C1875 C1876 1.366 . S
C1876 C1875 1.366 . S
C1876 C1877 1.414 . S
C1876 C1879 1.499 . S
C1877 H1851 0.950 . S
C1877 C1876 1.414 . S
C1877 C1878 1.374 . S
C1878 H1852 0.950 . S
C1878 C1874 1.385 . S
C1878 C1877 1.374 . S
C1879 C1876 1.499 . S
C1879 C1880 1.373 . S
C1879 C1881 1.389 . S
C1880 H1853 0.950 . S
C1880 C1866 1.377 1_546 S
C1880 C1879 1.373 . S
C1881 C1865 1.377 1_546 S
C1881 C1879 1.389 . S
C1881 C1882 1.514 . S
C1882 C1881 1.514 . S
C1882 C1883 1.390 1_545 S
C1882 C1887 1.377 . S
C1883 H1854 0.950 . S
C1883 C1882 1.390 1_565 S
C1883 C1884 1.334 . S
C1884 H1855 0.950 . S
C1884 C1883 1.334 . S
C1884 C1885 1.287 . S
C1885 C1884 1.287 . S
C1885 C1886 1.524 1_565 S
C1885 H1888 0.999 . S
C1886 H1856 0.950 . S
C1886 C1885 1.524 1_545 S
C1886 C1887 1.415 . S
C1887 H1857 0.950 . S
C1887 C1882 1.377 . S
C1887 C1886 1.415 . S
H1888 C1885 0.999 . S
H1889 C1870 0.913 . S
H1890 C1908 0.951 . S
H1891 C1910 0.951 . S
H1892 C1912 0.950 . S
H1893 C1913 0.950 . S
H1894 C1915 0.950 . S
H1895 C1918 0.950 . S
H1896 C1919 0.950 . S
H1897 C1921 0.950 . S
H1898 C1922 0.950 . S
H1899 C1923 0.951 . S
H1900 C1925 0.951 . S
H1901 C1927 0.950 . S
H1902 C1928 0.950 . S
H1903 C1930 0.950 . S
H1904 C1933 0.950 . S
H1905 C1934 0.950 . S
H1906 C1936 0.950 . S
H1907 C1937 0.950 . S
C1908 H1890 0.951 . S
C1908 C1909 1.366 . S
C1908 C1910 1.388 . S
C1909 C1908 1.366 . S
C1909 C1913 1.385 . S
C1910 H1891 0.951 . S
C1910 C1908 1.388 . S
C1910 C1911 1.366 . S
C1911 C1910 1.366 . S
C1911 C1912 1.414 . S
C1911 C1914 1.499 . S
C1912 H1892 0.950 . S
C1912 C1911 1.414 . S
C1912 C1913 1.374 . S
C1913 H1893 0.950 . S
C1913 C1909 1.385 . S
C1913 C1912 1.374 . S
C1914 C1911 1.499 . S
C1914 C1915 1.373 . S
C1914 C1916 1.389 . S
C1915 H1894 0.950 . S
C1915 C1914 1.373 . S
C1915 C1931 1.377 . S
C1916 C1914 1.389 . S
C1916 C1917 1.524 . S
C1916 C1930 1.377 . S
C1917 C1916 1.524 . S
C1917 C1918 1.397 . S
C1917 C1922 1.363 . S
C1918 H1895 0.950 . S
C1918 C1917 1.397 . S
C1918 C1919 1.334 . S
C1919 H1896 0.950 . S
C1919 C1918 1.334 . S
C1919 C1920 1.287 . S
C1920 C1919 1.287 . S
C1920 C1921 1.524 . S
C1920 H1939 0.913 . S
C1921 H1897 0.950 . S
C1921 C1920 1.524 . S
C1921 C1922 1.415 . S
C1922 H1898 0.950 . S
C1922 C1917 1.363 . S
C1922 C1921 1.415 . S
C1923 H1899 0.951 . S
C1923 C1924 1.366 . S
C1923 C1925 1.388 . S
C1924 C1923 1.366 . S
C1924 C1928 1.385 . S
C1925 H1900 0.951 . S
C1925 C1923 1.388 . S
C1925 C1926 1.366 . S
C1926 C1925 1.366 . S
C1926 C1927 1.414 . S
C1926 C1929 1.499 . S
C1927 H1901 0.950 . S
C1927 C1926 1.414 . S
C1927 C1928 1.374 . S
C1928 H1902 0.950 . S
C1928 C1924 1.385 . S
C1928 C1927 1.374 . S
C1929 C1926 1.499 . S
C1929 C1930 1.373 . S
C1929 C1931 1.389 . S
C1930 H1903 0.950 . S
C1930 C1916 1.377 . S
C1930 C1929 1.373 . S
C1931 C1915 1.377 . S
C1931 C1929 1.389 . S
C1931 C1932 1.524 . S
C1932 C1931 1.524 . S
C1932 C1933 1.397 . S
C1932 C1937 1.363 . S
C1933 H1904 0.950 . S
C1933 C1932 1.397 . S
C1933 C1934 1.334 . S
C1934 H1905 0.950 . S
C1934 C1933 1.334 . S
C1934 C1935 1.287 . S
C1935 C1934 1.287 . S
C1935 C1936 1.524 . S
C1935 H1938 0.999 . S
C1936 H1906 0.950 . S
C1936 C1935 1.524 . S
C1936 C1937 1.415 . S
C1937 H1907 0.950 . S
C1937 C1932 1.363 . S
C1937 C1936 1.415 . S
H1938 C1935 0.999 . S
H1939 C1920 0.913 . S
H1940 C1958 0.951 . S
H1941 C1960 0.951 . S
H1942 C1962 0.950 . S
H1943 C1963 0.950 . S
H1944 C1965 0.950 . S
H1945 C1968 0.950 . S
H1946 C1969 0.950 . S
H1947 C1971 0.950 . S
H1948 C1972 0.950 1_554 S
H1949 C1973 0.951 . S
H1950 C1975 0.951 . S
H1951 C1977 0.950 . S
H1952 C1978 0.950 . S
H1953 C1980 0.950 . S
H1954 C1983 0.950 . S
H1955 C1984 0.950 . S
H1956 C1986 0.950 . S
H1957 C1987 0.950 1_556 S
C1958 H1940 0.951 . S
C1958 C1959 1.366 . S
C1958 C1960 1.388 . S
C1959 C1958 1.366 . S
C1959 C1963 1.385 . S
C1960 H1941 0.951 . S
C1960 C1958 1.388 . S
C1960 C1961 1.366 . S
C1961 C1960 1.366 . S
C1961 C1962 1.414 . S
C1961 C1964 1.499 . S
C1962 H1942 0.950 . S
C1962 C1961 1.414 . S
C1962 C1963 1.374 . S
C1963 H1943 0.950 . S
C1963 C1959 1.385 . S
C1963 C1962 1.374 . S
C1964 C1961 1.499 . S
C1964 C1965 1.373 . S
C1964 C1966 1.389 . S
C1965 H1944 0.950 . S
C1965 C1964 1.373 . S
C1965 C1981 1.377 1_656 S
C1966 C1964 1.389 . S
C1966 C1967 1.524 . S
C1966 C1980 1.377 1_656 S
C1967 C1966 1.524 . S
C1967 C1968 1.397 . S
C1967 C1972 1.363 . S
C1968 H1945 0.950 . S
C1968 C1967 1.397 . S
C1968 C1969 1.334 . S
C1969 H1946 0.950 . S
C1969 C1968 1.334 . S
C1969 C1970 1.287 . S
C1970 C1969 1.287 . S
C1970 C1971 1.524 . S
C1970 H1989 0.913 . S
C1971 H1947 0.950 . S
C1971 C1970 1.524 . S
C1971 C1972 1.415 . S
C1972 H1948 0.950 1_556 S
C1972 C1967 1.363 . S
C1972 C1971 1.415 . S
C1973 H1949 0.951 . S
C1973 C1974 1.366 . S
C1973 C1975 1.388 . S
C1974 C1973 1.366 . S
C1974 C1978 1.385 . S
C1975 H1950 0.951 . S
C1975 C1973 1.388 . S
C1975 C1976 1.366 . S
C1976 C1975 1.366 . S
C1976 C1977 1.414 . S
C1976 C1979 1.499 . S
C1977 H1951 0.950 . S
C1977 C1976 1.414 . S
C1977 C1978 1.374 . S
C1978 H1952 0.950 . S
C1978 C1974 1.385 . S
C1978 C1977 1.374 . S
C1979 C1976 1.499 . S
C1979 C1980 1.373 . S
C1979 C1981 1.389 . S
C1980 H1953 0.950 . S
C1980 C1966 1.377 1_454 S
C1980 C1979 1.373 . S
C1981 C1965 1.377 1_454 S
C1981 C1979 1.389 . S
C1981 C1982 1.524 . S
C1982 C1981 1.524 . S
C1982 C1983 1.397 . S
C1982 C1987 1.363 . S
C1983 H1954 0.950 . S
C1983 C1982 1.397 . S
C1983 C1984 1.334 . S
C1984 H1955 0.950 . S
C1984 C1983 1.334 . S
C1984 C1985 1.287 . S
C1985 C1984 1.287 . S
C1985 C1986 1.524 . S
C1985 H1988 0.999 . S
C1986 H1956 0.950 . S
C1986 C1985 1.524 . S
C1986 C1987 1.415 . S
C1987 H1957 0.950 1_554 S
C1987 C1982 1.363 . S
C1987 C1986 1.415 . S
H1988 C1985 0.999 . S
H1989 C1970 0.913 . S
H1990 C2008 0.951 . S
H1991 C2010 0.951 . S
H1992 C2012 0.950 . S
H1993 C2013 0.950 . S
H1994 C2015 0.950 . S
H1995 C2018 0.942 1_565 S
H1996 C2019 0.950 1_565 S
H1997 C2021 0.950 . S
H1998 C2022 0.950 . S
H1999 C2023 0.951 . S
H2000 C2025 0.951 . S
H2001 C2027 0.950 . S
H2002 C2028 0.950 . S
H2003 C2030 0.950 . S
H2004 C2033 0.942 1_545 S
H2005 C2034 0.950 1_545 S
H2006 C2036 0.950 . S
H2007 C2037 0.950 . S
C2008 H1990 0.951 . S
C2008 C2009 1.366 . S
C2008 C2010 1.388 . S
C2009 C2008 1.366 . S
C2009 C2013 1.385 . S
C2010 H1991 0.951 . S
C2010 C2008 1.388 . S
C2010 C2011 1.366 . S
C2011 C2010 1.366 . S
C2011 C2012 1.414 . S
C2011 C2014 1.499 . S
C2012 H1992 0.950 . S
C2012 C2011 1.414 . S
C2012 C2013 1.374 . S
C2013 H1993 0.950 . S
C2013 C2009 1.385 . S
C2013 C2012 1.374 . S
C2014 C2011 1.499 . S
C2014 C2015 1.373 . S
C2014 C2016 1.389 1_565 S
C2015 H1994 0.950 . S
C2015 C2014 1.373 . S
C2015 C2031 1.377 . S
C2016 C2014 1.389 1_545 S
C2016 C2017 1.524 . S
C2016 C2030 1.377 . S
C2017 C2016 1.524 . S
C2017 C2018 1.404 . S
C2017 C2022 1.363 . S
C2018 H1995 0.942 1_545 S
C2018 C2017 1.404 . S
C2018 C2019 1.333 . S
C2019 H1996 0.950 1_545 S
C2019 C2018 1.333 . S
C2019 C2020 1.287 . S
C2020 C2019 1.287 . S
C2020 C2021 1.524 . S
C2020 H2039 0.913 . S
C2021 H1997 0.950 . S
C2021 C2020 1.524 . S
C2021 C2022 1.415 . S
C2022 H1998 0.950 . S
C2022 C2017 1.363 . S
C2022 C2021 1.415 . S
C2023 H1999 0.951 . S
C2023 C2024 1.366 . S
C2023 C2025 1.388 . S
C2024 C2023 1.366 . S
C2024 C2028 1.385 . S
C2025 H2000 0.951 . S
C2025 C2023 1.388 . S
C2025 C2026 1.366 . S
C2026 C2025 1.366 . S
C2026 C2027 1.414 . S
C2026 C2029 1.499 . S
C2027 H2001 0.950 . S
C2027 C2026 1.414 . S
C2027 C2028 1.374 . S
C2028 H2002 0.950 . S
C2028 C2024 1.385 . S
C2028 C2027 1.374 . S
C2029 C2026 1.499 . S
C2029 C2030 1.373 . S
C2029 C2031 1.389 1_545 S
C2030 H2003 0.950 . S
C2030 C2016 1.377 . S
C2030 C2029 1.373 . S
C2031 C2015 1.377 . S
C2031 C2029 1.389 1_565 S
C2031 C2032 1.524 . S
C2032 C2031 1.524 . S
C2032 C2033 1.404 . S
C2032 C2037 1.363 . S
C2033 H2004 0.942 1_565 S
C2033 C2032 1.404 . S
C2033 C2034 1.333 . S
C2034 H2005 0.950 1_565 S
C2034 C2033 1.333 . S
C2034 C2035 1.287 . S
C2035 C2034 1.287 . S
C2035 C2036 1.524 . S
C2035 H2038 0.999 . S
C2036 H2006 0.950 . S
C2036 C2035 1.524 . S
C2036 C2037 1.415 . S
C2037 H2007 0.950 . S
C2037 C2032 1.363 . S
C2037 C2036 1.415 . S
H2038 C2035 0.999 . S
H2039 C2020 0.913 . S
C259 C82 1.039 . S
C274 C9 1.028 . S
C309 C102 1.040 . S
C324 C29 1.026 . S
C359 C49 1.027 . S
C374 C2 1.039 . S
C409 C69 1.027 . S
C424 C22 1.040 . S
C459 C89 1.027 . S
C474 C42 1.038 . S
C509 C62 1.039 . S
C524 C109 1.027 . S
C559 C162 1.039 . S
C574 C129 1.028 . S
C609 C149 1.027 . S
C624 C182 1.040 . S
C659 C202 1.039 . S
C674 C169 1.027 . S
C709 C189 1.026 . S
C724 C222 1.040 . S
C759 C209 1.026 . S
C774 C122 1.039 . S
C809 C142 1.038 . S
C824 C229 1.027 . S
C859 C84 1.264 . S
C874 C12 1.367 . S
C909 C32 1.368 . S
C924 C104 1.265 . S
C959 C52 1.368 . S
C974 C4 1.264 . S
C1009 C72 1.367 . S
C1024 C24 1.265 . S
C1059 C44 1.264 . S
C1074 C92 1.368 . S
C1109 C64 1.265 . S
C1124 C112 1.368 . S
C1159 C164 1.265 . S
C1174 C132 1.367 . S
C1209 C152 1.367 . S
C1224 C184 1.265 . S
C1259 C172 1.368 . S
C1274 C204 1.264 . S
C1309 C224 1.264 . S
C1324 C192 1.367 . S
C1359 C212 1.367 . S
C1374 C124 1.265 . S
C1409 C144 1.264 . S
C1424 C232 1.368 . S
C1459 C219 1.685 . S
C1474 C19 1.685 . S
C1509 C39 1.685 . S
C1524 C239 1.685 . S
C1559 C59 1.684 . S
C1574 C139 1.685 . S
C1609 C79 1.685 . S
C1624 C159 1.685 . S
C1659 C99 1.685 . S
C1674 C179 1.685 . S
C1709 C199 1.685 . S
C1724 C119 1.685 . S
C1759 C198 1.834 . S
C1774 C18 1.834 . S
C1809 C218 1.834 . S
C1824 C38 1.834 . S
C1859 C58 1.834 . S
C1874 C238 1.834 . S
C1909 C78 1.834 . S
C1924 C138 1.834 . S
C1959 C158 1.834 . S
C1974 C98 1.834 . S
C2009 C178 1.834 . S
C2024 C118 1.834 . S
