# Generated by pormake.
# Topology wkj, (6)-cn, num edge types: 1
# Building blocks:
#     Node 0, Type 0, BuildingBlock: VOLQOD_clean_sbu_1, # of connection points: 6
#     Node 1, Type 0, BuildingBlock: VOLQOD_clean_sbu_1, # of connection points: 6
#     Node 2, Type 0, BuildingBlock: VOLQOD_clean_sbu_1, # of connection points: 6
#     Node 3, Type 0, BuildingBlock: VOLQOD_clean_sbu_1, # of connection points: 6
#     Node 4, Type 0, BuildingBlock: VOLQOD_clean_sbu_1, # of connection points: 6
#     Node 5, Type 0, BuildingBlock: VOLQOD_clean_sbu_1, # of connection points: 6
#     Node 6, Type 0, BuildingBlock: VOLQOD_clean_sbu_1, # of connection points: 6
#     Node 7, Type 0, BuildingBlock: VOLQOD_clean_sbu_1, # of connection points: 6
#     Node 8, Type 0, BuildingBlock: VOLQOD_clean_sbu_1, # of connection points: 6
#     Node 9, Type 0, BuildingBlock: VOLQOD_clean_sbu_1, # of connection points: 6
#     Node 10, Type 0, BuildingBlock: VOLQOD_clean_sbu_1, # of connection points: 6
#     Node 11, Type 0, BuildingBlock: VOLQOD_clean_sbu_1, # of connection points: 6
#     Edge 12, Type (0, 0), BuildingBlock: XIVTED_clean_linker_0, # of connection points: 2
#     Edge 13, Type (0, 0), BuildingBlock: XIVTED_clean_linker_0, # of connection points: 2
#     Edge 14, Type (0, 0), BuildingBlock: XIVTED_clean_linker_0, # of connection points: 2
#     Edge 15, Type (0, 0), BuildingBlock: XIVTED_clean_linker_0, # of connection points: 2
#     Edge 16, Type (0, 0), BuildingBlock: XIVTED_clean_linker_0, # of connection points: 2
#     Edge 17, Type (0, 0), BuildingBlock: XIVTED_clean_linker_0, # of connection points: 2
#     Edge 18, Type (0, 0), BuildingBlock: XIVTED_clean_linker_0, # of connection points: 2
#     Edge 19, Type (0, 0), BuildingBlock: XIVTED_clean_linker_0, # of connection points: 2
#     Edge 20, Type (0, 0), BuildingBlock: XIVTED_clean_linker_0, # of connection points: 2
#     Edge 21, Type (0, 0), BuildingBlock: XIVTED_clean_linker_0, # of connection points: 2
#     Edge 22, Type (0, 0), BuildingBlock: XIVTED_clean_linker_0, # of connection points: 2
#     Edge 23, Type (0, 0), BuildingBlock: XIVTED_clean_linker_0, # of connection points: 2
#     Edge 24, Type (0, 0), BuildingBlock: XIVTED_clean_linker_0, # of connection points: 2
#     Edge 25, Type (0, 0), BuildingBlock: XIVTED_clean_linker_0, # of connection points: 2
#     Edge 26, Type (0, 0), BuildingBlock: XIVTED_clean_linker_0, # of connection points: 2
#     Edge 27, Type (0, 0), BuildingBlock: XIVTED_clean_linker_0, # of connection points: 2
#     Edge 28, Type (0, 0), BuildingBlock: XIVTED_clean_linker_0, # of connection points: 2
#     Edge 29, Type (0, 0), BuildingBlock: XIVTED_clean_linker_0, # of connection points: 2
#     Edge 30, Type (0, 0), BuildingBlock: XIVTED_clean_linker_0, # of connection points: 2
#     Edge 31, Type (0, 0), BuildingBlock: XIVTED_clean_linker_0, # of connection points: 2
#     Edge 32, Type (0, 0), BuildingBlock: XIVTED_clean_linker_0, # of connection points: 2
#     Edge 33, Type (0, 0), BuildingBlock: XIVTED_clean_linker_0, # of connection points: 2
#     Edge 34, Type (0, 0), BuildingBlock: XIVTED_clean_linker_0, # of connection points: 2
#     Edge 35, Type (0, 0), BuildingBlock: XIVTED_clean_linker_0, # of connection points: 2
#     Edge 36, Type (0, 0), BuildingBlock: XIVTED_clean_linker_0, # of connection points: 2
#     Edge 37, Type (0, 0), BuildingBlock: XIVTED_clean_linker_0, # of connection points: 2
#     Edge 38, Type (0, 0), BuildingBlock: XIVTED_clean_linker_0, # of connection points: 2
#     Edge 39, Type (0, 0), BuildingBlock: XIVTED_clean_linker_0, # of connection points: 2
#     Edge 40, Type (0, 0), BuildingBlock: XIVTED_clean_linker_0, # of connection points: 2
#     Edge 41, Type (0, 0), BuildingBlock: XIVTED_clean_linker_0, # of connection points: 2
#     Edge 42, Type (0, 0), BuildingBlock: XIVTED_clean_linker_0, # of connection points: 2
#     Edge 43, Type (0, 0), BuildingBlock: XIVTED_clean_linker_0, # of connection points: 2
#     Edge 44, Type (0, 0), BuildingBlock: XIVTED_clean_linker_0, # of connection points: 2
#     Edge 45, Type (0, 0), BuildingBlock: XIVTED_clean_linker_0, # of connection points: 2
#     Edge 46, Type (0, 0), BuildingBlock: XIVTED_clean_linker_0, # of connection points: 2
#     Edge 47, Type (0, 0), BuildingBlock: XIVTED_clean_linker_0, # of connection points: 2
# Relax obj value: 0.767
# Max RMSD: 0.281
# Mean RMSD: 0.281
data_MOF--net-wkj--node1-VOLQOD_clean_sbu_1--edge1-XIVTED_clean_linker_0
_symmetry_space_group_name_H-M    P1
_symmetry_Int_Tables_number       1
_symmetry_cell_setting            triclinic
loop_
_symmetry_equiv_pos_as_xyz
'x, y, z'
_cell_length_a     56.28056
_cell_length_b     56.5066
_cell_length_c     24.451292
_cell_angle_alpha  90.009301
_cell_angle_beta   89.83661
_cell_angle_gamma 120.04227
loop_
_atom_site_label
_atom_site_type_symbol
_atom_site_fract_x
_atom_site_fract_y
_atom_site_fract_z
_atom_type_partial_charge
O0 O 0.3877 0.04776 0.36436 0.0
Zn1 Zn 0.41432 0.05135 0.30762 0.0
O2 O 0.44434 0.08991 0.30194 0.0
Zn3 Zn 0.48006 0.09338 0.31498 0.0
Zn4 Zn 0.43886 0.11272 0.35594 0.0
Zn5 Zn 0.44511 0.10115 0.22774 0.0
O6 O 0.50158 0.0966 0.24528 0.0
O7 O 0.47794 0.10622 0.18616 0.0
O8 O 0.42949 0.02676 0.32685 0.0
O9 O 0.46873 0.05908 0.35556 0.0
O10 O 0.50292 0.1235 0.36589 0.0
O11 O 0.47207 0.13051 0.40873 0.0
O12 O 0.43527 0.14238 0.3135 0.0
O13 O 0.39358 0.03697 0.23685 0.0
O14 O 0.44307 0.13465 0.22767 0.0
O15 O 0.41387 0.07337 0.18329 0.0
C16 C 0.38569 0.0635 0.39882 0.0
C17 C 0.49786 0.1024 0.19688 0.0
C18 C 0.49642 0.1343 0.40443 0.0
C19 C 0.45542 0.03763 0.32738 0.0
C20 C 0.43831 0.14847 0.2625 0.0
C21 C 0.39575 0.04851 0.19099 0.0
O22 O 0.40386 0.08887 0.40196 0.0
O23 O 0.34191 0.43042 0.62839 0.0
Zn24 Zn 0.34798 0.45101 0.55962 0.0
O25 O 0.35475 0.4877 0.572 0.0
Zn26 Zn 0.39273 0.51413 0.56757 0.0
Zn27 Zn 0.34079 0.4882 0.64454 0.0
Zn28 Zn 0.33704 0.49412 0.51088 0.0
O29 O 0.40055 0.54255 0.51121 0.0
O30 O 0.36076 0.5304 0.47166 0.0
O31 O 0.38091 0.45291 0.52641 0.0
O32 O 0.41316 0.49618 0.54111 0.0
O33 O 0.40628 0.53434 0.63788 0.0
O34 O 0.36802 0.52406 0.68368 0.0
O35 O 0.3026 0.48331 0.63139 0.0
O36 O 0.31827 0.42965 0.50597 0.0
O37 O 0.30229 0.49005 0.54103 0.0
O38 O 0.32904 0.46518 0.4531 0.0
C39 C 0.33934 0.43514 0.67815 0.0
C40 C 0.3865 0.54677 0.47611 0.0
C41 C 0.39411 0.53848 0.67763 0.0
C42 C 0.40552 0.4723 0.52304 0.0
C43 C 0.29079 0.4851 0.58804 0.0
C44 C 0.32012 0.43967 0.45861 0.0
O45 O 0.33845 0.45655 0.69181 0.0
O46 O 0.91783 0.37203 0.00607 0.0
Zn47 Zn 0.90286 0.37434 0.93376 0.0
O48 O 0.86824 0.37193 0.94023 0.0
Zn49 Zn 0.8718 0.40706 0.93732 0.0
Zn50 Zn 0.85182 0.35452 0.00859 0.0
Zn51 Zn 0.84968 0.35555 0.87314 0.0
O52 O 0.84176 0.40732 0.8955 0.0
O53 O 0.8428 0.382 0.82787 0.0
O54 O 0.92694 0.40771 0.89072 0.0
O55 O 0.90518 0.43143 0.8936 0.0
O56 O 0.87164 0.42062 0.01179 0.0
O57 O 0.84735 0.38175 0.05817 0.0
O58 O 0.81656 0.31902 0.9881 0.0
O59 O 0.90081 0.34428 0.88871 0.0
O60 O 0.81498 0.32355 0.89716 0.0
O61 O 0.87062 0.34136 0.82739 0.0
C62 C 0.90471 0.35758 0.04735 0.0
C63 C 0.83808 0.40055 0.84541 0.0
C64 C 0.85902 0.40786 0.05495 0.0
C65 C 0.92458 0.42804 0.87609 0.0
C66 C 0.80471 0.3106 0.94165 0.0
C67 C 0.88918 0.3361 0.84265 0.0
O68 O 0.87865 0.34694 0.05126 0.0
O69 O 0.5507 0.93628 0.27487 0.0
Zn70 Zn 0.53044 0.91712 0.20708 0.0
O71 O 0.49648 0.88416 0.22245 0.0
Zn72 Zn 0.46592 0.88997 0.21722 0.0
Zn73 Zn 0.49941 0.87258 0.29584 0.0
Zn74 Zn 0.49245 0.85916 0.1645 0.0
O75 O 0.43627 0.86242 0.16917 0.0
O76 O 0.45562 0.84203 0.12567 0.0
O77 O 0.52294 0.94274 0.16496 0.0
O78 O 0.47829 0.92588 0.17965 0.0
O79 O 0.44826 0.88566 0.29105 0.0
O80 O 0.46401 0.86263 0.33829 0.0
O81 O 0.50757 0.84135 0.2874 0.0
O82 O 0.55506 0.91004 0.16016 0.0
O83 O 0.4975 0.83061 0.19923 0.0
O84 O 0.52332 0.87741 0.10851 0.0
C85 C 0.54914 0.92817 0.32393 0.0
C86 C 0.43512 0.84536 0.13392 0.0
C87 C 0.44737 0.87173 0.33295 0.0
C88 C 0.50102 0.94361 0.15818 0.0
C89 C 0.50473 0.82641 0.24585 0.0
C90 C 0.54821 0.89584 0.11669 0.0
O91 O 0.53109 0.90393 0.33803 0.0
O92 O 0.64144 0.5726 0.63053 0.0
Zn93 Zn 0.63522 0.54966 0.56411 0.0
O94 O 0.65224 0.52728 0.56982 0.0
Zn95 Zn 0.62518 0.4883 0.57089 0.0
Zn96 Zn 0.67451 0.53704 0.63666 0.0
Zn97 Zn 0.67237 0.53264 0.50259 0.0
O98 O 0.62767 0.46605 0.50931 0.0
O99 O 0.65424 0.49986 0.45368 0.0
O100 O 0.59577 0.52563 0.54783 0.0
O101 O 0.58852 0.48333 0.5561 0.0
O102 O 0.62319 0.47157 0.64309 0.0
O103 O 0.65707 0.5043 0.69156 0.0
O104 O 0.71457 0.5499 0.6125 0.0
O105 O 0.64848 0.57517 0.50027 0.0
O106 O 0.71017 0.54324 0.52205 0.0
O107 O 0.67386 0.56219 0.45453 0.0
C108 C 0.65814 0.57936 0.67029 0.0
C109 C 0.63712 0.47471 0.46165 0.0
C110 C 0.63642 0.48002 0.68759 0.0
C111 C 0.58018 0.49987 0.54517 0.0
C112 C 0.7248 0.5506 0.5651 0.0
C113 C 0.66305 0.57715 0.45892 0.0
O114 O 0.67317 0.56851 0.67664 0.0
O115 O 0.10731 0.62305 0.99713 0.0
Zn116 Zn 0.12271 0.6189 0.92646 0.0
O117 O 0.15135 0.61049 0.93543 0.0
Zn118 Zn 0.13769 0.5724 0.93391 0.0
Zn119 Zn 0.16804 0.62576 0.00461 0.0
Zn120 Zn 0.17297 0.62506 0.86993 0.0
O121 O 0.16092 0.56248 0.88865 0.0
O122 O 0.18006 0.597 0.83002 0.0
O123 O 0.09382 0.58943 0.88221 0.0
O124 O 0.10198 0.55503 0.89327 0.0
O125 O 0.13729 0.55893 0.00978 0.0
O126 O 0.17053 0.59646 0.0499 0.0
O127 O 0.20312 0.6615 0.98559 0.0
O128 O 0.13502 0.65231 0.88166 0.0
O129 O 0.20719 0.65792 0.89514 0.0
O130 O 0.1538 0.63901 0.81822 0.0
C131 C 0.11875 0.63041 0.04363 0.0
C132 C 0.17472 0.5732 0.84536 0.0
C133 C 0.15379 0.57059 0.04952 0.0
C134 C 0.08833 0.56516 0.87215 0.0
C135 C 0.21577 0.67104 0.94006 0.0
C136 C 0.14172 0.65217 0.83207 0.0
O137 O 0.14272 0.63391 0.05149 0.0
O138 O 0.00379 0.59984 0.40286 0.0
Zn139 Zn 0.98797 0.59155 0.47812 0.0
O140 O 0.95171 0.58493 0.47733 0.0
Zn141 Zn 0.92601 0.54703 0.48627 0.0
Zn142 Zn 0.9438 0.59583 0.40857 0.0
Zn143 Zn 0.94664 0.60037 0.54365 0.0
O144 O 0.89426 0.54136 0.53128 0.0
O145 O 0.92062 0.56946 0.59574 0.0
O146 O 0.98832 0.56059 0.51698 0.0
O147 O 0.94395 0.53065 0.52906 0.0
O148 O 0.91233 0.52756 0.41558 0.0
O149 O 0.91955 0.56208 0.36166 0.0
O150 O 0.92246 0.6152 0.42904 0.0
O151 O 0.01209 0.62365 0.52371 0.0
O152 O 0.92669 0.61935 0.52016 0.0
O153 O 0.98308 0.62587 0.58206 0.0
C154 C -6e-05 0.61231 0.36341 0.0
C155 C 0.89837 0.54817 0.58132 0.0
C156 C 0.91001 0.53653 0.36943 0.0
C157 C 0.96908 0.53864 0.5379 0.0
C158 C 0.9172 0.62255 0.47513 0.0
C159 C 0.00759 0.63362 0.56641 0.0
O160 O 0.97935 0.61622 0.36287 0.0
O161 O 0.31803 0.93782 0.70009 0.0
Zn162 Zn 0.33354 0.92022 0.74702 0.0
O163 O 0.30906 0.88192 0.74837 0.0
Zn164 Zn 0.32703 0.86086 0.73691 0.0
Zn165 Zn 0.2839 0.87206 0.68642 0.0
Zn166 Zn 0.28992 0.87201 0.81734 0.0
O167 O 0.32586 0.83997 0.80377 0.0
O168 O 0.29799 0.84574 0.85961 0.0
O169 O 0.36874 0.92705 0.71291 0.0
O170 O 0.3657 0.88623 0.71636 0.0
O171 O 0.31369 0.83683 0.67048 0.0
O172 O 0.30157 0.86254 0.62388 0.0
O173 O 0.24954 0.83777 0.71324 0.0
O174 O 0.33869 0.93688 0.82208 0.0
O175 O 0.25142 0.85648 0.79242 0.0
O176 O 0.302 0.9048 0.86594 0.0
C177 C 0.29729 0.93018 0.66924 0.0
C178 C 0.31339 0.83566 0.84938 0.0
C179 C 0.31123 0.84638 0.62505 0.0
C180 C 0.37869 0.91149 0.70421 0.0
C181 C 0.24305 0.835 0.76391 0.0
C182 C 0.32302 0.92867 0.86396 0.0
O183 O 0.28038 0.90481 0.66073 0.0
O184 O 0.38364 0.34427 0.01195 0.0
Zn185 Zn 0.41256 0.37595 0.0522 0.0
O186 O 0.44303 0.37059 0.06642 0.0
Zn187 Zn 0.47708 0.40403 0.0598 0.0
Zn188 Zn 0.44056 0.34514 0.00931 0.0
Zn189 Zn 0.43826 0.35829 0.14048 0.0
O190 O 0.49735 0.41671 0.13188 0.0
O191 O 0.47445 0.37837 0.18014 0.0
O192 O 0.4251 0.40768 1.00282 0.0
O193 O 0.47027 0.43034 0.01736 0.0
O194 O 0.50279 0.3992 0.01171 0.0
O195 O 0.47791 0.3597 0.96889 0.0
O196 O 0.42912 0.30894 0.04905 0.0
O197 O 0.39591 0.38179 0.119 0.0
O198 O 0.42667 0.31903 0.13676 0.0
O199 O 0.41034 0.36426 0.18295 0.0
C200 C 0.38959 0.3421 0.96286 0.0
C201 C 0.49524 0.40217 0.17362 0.0
C202 C 0.50076 0.38174 0.97661 0.0
C203 C 0.44892 0.4278 0.99374 0.0
C204 C 0.42426 0.30211 0.09967 0.0
C205 C 0.39598 0.37488 0.16839 0.0
O206 O 0.41241 0.34322 0.95255 0.0
O207 O 0.01206 0.36831 0.40518 0.0
Zn208 Zn 0.02881 0.3767 0.47929 0.0
O209 O 0.06764 0.39186 0.47571 0.0
Zn210 Zn 0.08658 0.43069 0.48396 0.0
Zn211 Zn 0.07638 0.383 0.40351 0.0
Zn212 Zn 0.07594 0.37647 0.53916 0.0
O213 O 0.11863 0.44349 0.53338 0.0
O214 O 0.10736 0.4069 0.58462 0.0
O215 O 0.02101 0.40246 0.52053 0.0
O216 O 0.06182 0.44034 0.52392 0.0
O217 O 0.09968 0.45059 0.41214 0.0
O218 O 0.09865 0.418 0.3597 0.0
O219 O 0.09955 0.36506 0.41702 0.0
O220 O 0.01018 0.34251 0.52333 0.0
O221 O 0.08479 0.35084 0.49982 0.0
O222 O 0.04189 0.3552 0.58727 0.0
C223 C 0.01867 0.36073 0.36148 0.0
C224 C 0.12277 0.43244 0.57479 0.0
C225 C 0.10477 0.44279 0.36691 0.0
C226 C 0.03655 0.42681 0.53706 0.0
C227 C 0.10477 0.36188 0.46641 0.0
C228 C 0.01694 0.3409 0.5721 0.0
O229 O 0.04181 0.36173 0.35681 0.0
O230 O 0.65108 0.04189 0.6664 0.0
Zn231 Zn 0.6231 0.03564 0.72288 0.0
O232 O 0.62671 0.06971 0.74883 0.0
Zn233 Zn 0.59162 0.06767 0.75332 0.0
Zn234 Zn 0.64897 0.09753 0.69462 0.0
Zn235 Zn 0.64209 0.07539 0.82144 0.0
O236 O 0.57966 0.0679 0.83079 0.0
O237 O 0.61776 0.07975 0.87741 0.0
O238 O 0.58691 0.01327 0.68635 0.0
O239 O 0.56493 0.03511 0.71167 0.0
O240 O 0.59109 0.09855 0.71486 0.0
O241 O 0.62939 0.11732 0.66596 0.0
O242 O 0.6837 0.1259 0.73373 0.0
O243 O 0.62584 0.01324 0.78256 0.0
O244 O 0.67775 0.10996 0.81943 0.0
O245 O 0.64592 0.04358 0.84873 0.0
C246 C 0.65406 0.05592 0.62373 0.0
C247 C 0.59305 0.07478 0.87548 0.0
C248 C 0.60672 0.11575 0.67933 0.0
C249 C 0.56592 0.01612 0.68566 0.0
C250 C 0.69158 0.12811 0.78356 0.0
C251 C 0.63665 0.01955 0.8297 0.0
O252 O 0.65316 0.07803 0.62712 0.0
O253 O 0.60424 0.65184 0.98996 0.0
Zn254 Zn 0.57281 0.6364 0.04144 0.0
O255 O 0.56083 0.6621 0.05386 0.0
Zn256 Zn 0.52142 0.64581 0.04658 0.0
Zn257 Zn 0.57591 0.69021 0.99771 0.0
Zn258 Zn 0.57007 0.67488 0.12704 0.0
O259 O 0.5016 0.63748 0.11838 0.0
O260 O 0.53617 0.65907 0.17618 0.0
O261 O 0.54316 0.60481 1.00045 0.0
O262 O 0.50773 0.61207 1.00281 0.0
O263 O 0.51143 0.66869 1.00079 0.0
O264 O 0.54516 0.67991 0.94232 0.0
O265 O 0.58594 0.72591 0.03707 0.0
O266 O 0.58651 0.62731 0.11053 0.0
O267 O 0.58631 0.71503 0.1249 0.0
O268 O 0.59552 0.66383 0.16014 0.0
C269 C 0.61545 0.67213 0.95759 0.0
C270 C 0.5105 0.64458 0.16684 0.0
C271 C 0.52011 0.67264 0.95176 0.0
C272 C 0.51898 0.59872 0.98616 0.0
C273 C 0.58985 0.73237 0.08786 0.0
C274 C 0.59763 0.64269 0.15196 0.0
O275 O 0.60732 0.68957 0.95511 0.0
H276 H 0.41695 0.17743 0.31369 0.0
H277 H 0.43351 0.26525 0.04413 0.0
H278 H 0.45138 0.17033 0.16054 0.0
H279 H 0.40403 0.27787 0.19849 0.0
H280 H 0.43432 0.226 0.08385 0.0
H281 H 0.40836 0.21184 0.2712 0.0
C282 C 0.42286 0.18321 0.27146 0.0
C283 C 0.43486 0.17095 0.24073 0.0
C284 C 0.4274 0.23721 0.10888 0.0
C285 C 0.42473 0.20971 0.19177 0.0
C286 C 0.42668 0.25945 0.08597 0.0
C287 C 0.41915 0.27511 0.11826 0.0
C288 C 0.42057 0.23069 0.1644 0.0
C289 C 0.41047 0.26663 0.17235 0.0
C290 C 0.41776 0.20263 0.24708 0.0
C291 C 0.44194 0.17906 0.18594 0.0
N292 N 0.41175 0.2452 0.19395 0.0
N293 N 0.43674 0.19783 0.16333 0.0
H294 H 0.25125 0.44789 0.65691 0.0
H295 H 0.14075 0.41256 0.42338 0.0
H296 H 0.26287 0.49993 0.5184 0.0
H297 H 0.12778 0.36067 0.56305 0.0
H298 H 0.18271 0.44819 0.46539 0.0
H299 H 0.20248 0.42072 0.6344 0.0
C300 C 0.24336 0.45423 0.62301 0.0
C301 C 0.26119 0.47575 0.5886 0.0
C302 C 0.17068 0.42905 0.487 0.0
C303 C 0.20583 0.44434 0.56162 0.0
C304 C 0.14685 0.40855 0.46269 0.0
C305 C 0.13095 0.38344 0.48949 0.0
C306 C 0.1789 0.42434 0.53815 0.0
C307 C 0.13961 0.37967 0.54087 0.0
C308 C 0.21558 0.43847 0.60968 0.0
C309 C 0.24988 0.48307 0.54524 0.0
N310 N 0.16311 0.39982 0.56339 0.0
N311 N 0.22303 0.46702 0.53221 0.0
H312 H 0.76114 0.29444 0.87486 0.0
H313 H 0.72188 0.13809 0.87666 0.0
H314 H 0.79749 0.26367 0.98894 0.0
H315 H 0.70898 0.17862 0.73991 0.0
H316 H 0.74634 0.18198 0.92422 0.0
H317 H 0.73469 0.24887 0.83548 0.0
C318 C 0.76273 0.27777 0.89292 0.0
C319 C 0.78154 0.28273 0.93496 0.0
C320 C 0.73848 0.18128 0.88351 0.0
C321 C 0.75231 0.23091 0.88873 0.0
C322 C 0.72482 0.15635 0.85605 0.0
C323 C 0.71327 0.1547 0.8043 0.0
C324 C 0.74023 0.20458 0.85929 0.0
C325 C 0.71762 0.17893 0.77958 0.0
C326 C 0.74808 0.25192 0.86974 0.0
C327 C 0.78303 0.26057 0.95677 0.0
N328 N 0.73039 0.20281 0.8077 0.0
N329 N 0.76892 0.23557 0.93272 0.0
H330 H 0.61242 0.76141 0.18159 0.0
H331 H 0.48298 0.77702 0.19761 0.0
H332 H 0.56438 0.75712 0.04082 0.0
H333 H 0.55379 0.83619 0.28742 0.0
H334 H 0.51069 0.75936 0.15727 0.0
H335 H 0.59217 0.7845 0.2325 0.0
C336 C 0.59858 0.76643 0.16064 0.0
C337 C 0.58964 0.7569 0.10722 0.0
C338 C 0.51999 0.77584 0.18674 0.0
C339 C 0.56576 0.78182 0.16569 0.0
C340 C 0.50407 0.78544 0.21074 0.0
C341 C 0.51625 0.80821 0.24534 0.0
C342 C 0.54814 0.78887 0.19806 0.0
C343 C 0.54371 0.81854 0.26091 0.0
C344 C 0.58679 0.77919 0.18998 0.0
C345 C 0.5717 0.7639 0.08196 0.0
N346 N 0.55905 0.80906 0.23629 0.0
N347 N 0.5596 0.77513 0.11206 0.0
H348 H 0.76725 0.58731 0.63099 0.0
H349 H 0.87751 0.61157 0.39858 0.0
H350 H 0.75048 0.54421 0.47734 0.0
H351 H 0.90108 0.64097 0.56372 0.0
H352 H 0.83021 0.59781 0.4214 0.0
H353 H 0.81602 0.61417 0.60447 0.0
C354 C 0.77384 0.58319 0.59226 0.0
C355 C 0.75475 0.56348 0.55639 0.0
C356 C 0.84583 0.60775 0.45243 0.0
C357 C 0.80988 0.5947 0.52505 0.0
C358 C 0.87301 0.6161 0.43908 0.0
C359 C 0.89318 0.6265 0.47984 0.0
C360 C 0.83887 0.60988 0.50678 0.0
C361 C 0.886 0.63221 0.53141 0.0
C362 C 0.80152 0.59879 0.57679 0.0
C363 C 0.76436 0.55927 0.50628 0.0
N364 N 0.85926 0.62309 0.54399 0.0
N365 N 0.7911 0.57481 0.49209 0.0
H366 H 0.258 0.7984 0.72603 0.0
H367 H 0.21741 0.71249 1.00069 0.0
H368 H 0.22643 0.81868 0.86873 0.0
H369 H 0.25581 0.69716 0.86295 0.0
H370 H 0.22922 0.75667 0.96113 0.0
H371 H 0.2621 0.76428 0.77968 0.0
C372 C 0.25144 0.79536 0.76839 0.0
C373 C 0.24149 0.81123 0.79274 0.0
C374 C 0.23575 0.74399 0.94023 0.0
C375 C 0.24683 0.77254 0.85493 0.0
C376 C 0.22949 0.71892 0.96343 0.0
C377 C 0.23482 0.7007 0.9341 0.0
C378 C 0.24734 0.75067 0.88755 0.0
C379 C 0.25067 0.71031 0.88618 0.0
C380 C 0.25424 0.77616 0.79933 0.0
C381 C 0.23393 0.80671 0.84821 0.0
N382 N 0.2556 0.73426 0.86344 0.0
N383 N 0.23667 0.78774 0.87737 0.0
H384 H 0.61277 0.08575 0.98121 0.0
H385 H 0.48749 0.10234 0.08821 0.0
H386 H 0.54343 0.07234 0.88311 0.0
H387 H 0.54564 0.09964 0.19918 0.0
H388 H 0.51113 0.09567 0.01202 0.0
H389 H 0.59115 0.09382 0.06099 0.0
C390 C 0.59301 0.08441 0.9764 0.0
C391 C 0.57995 0.07839 0.92517 0.0
C392 C 0.51885 0.09657 0.05293 0.0
C393 C 0.55535 0.0879 0.01609 0.0
C394 C 0.50545 0.10063 0.09669 0.0
C395 C 0.51445 0.10142 0.15052 0.0
C396 C 0.54166 0.09339 0.0625 0.0
C397 C 0.53787 0.09899 0.15843 0.0
C398 C 0.58071 0.08903 0.02197 0.0
C399 C 0.55434 0.07689 0.92155 0.0
N400 N 0.55065 0.09497 0.11487 0.0
N401 N 0.54302 0.08173 0.96618 0.0
H402 H 0.45431 0.61374 0.16228 0.0
H403 H 0.43764 0.59151 0.48514 0.0
H404 H 0.52115 0.65355 0.27688 0.0
H405 H 0.37045 0.55055 0.37189 0.0
H406 H 0.46675 0.61997 0.41057 0.0
H407 H 0.42215 0.59542 0.23886 0.0
C408 C 0.46227 0.61882 0.20352 0.0
C409 C 0.49061 0.63501 0.21302 0.0
C410 C 0.44553 0.60509 0.40204 0.0
C411 C 0.4537 0.61402 0.30112 0.0
C412 C 0.42881 0.58889 0.44473 0.0
C413 C 0.40162 0.56837 0.43467 0.0
C414 C 0.43513 0.6006 0.34859 0.0
C415 C 0.39129 0.56607 0.38154 0.0
C416 C 0.44382 0.60836 0.24728 0.0
C417 C 0.49956 0.641 0.26744 0.0
N418 N 0.4082 0.58166 0.34028 0.0
N419 N 0.48121 0.63033 0.30935 0.0
H420 H 0.82964 0.3944 0.73433 0.0
H421 H 0.85075 0.50008 0.56276 0.0
H422 H 0.84142 0.44961 0.86713 0.0
H423 H 0.90442 0.54912 0.69325 0.0
H424 H 0.8271 0.46203 0.62647 0.0
H425 H 0.83647 0.4302 0.66951 0.0
C426 C 0.83285 0.41373 0.74992 0.0
C427 C 0.83516 0.41899 0.8063 0.0
C428 C 0.84393 0.48117 0.64118 0.0
C429 C 0.84323 0.46018 0.73236 0.0
C430 C 0.85735 0.50306 0.60502 0.0
C431 C 0.88012 0.52774 0.62233 0.0
C432 C 0.85325 0.48395 0.69517 0.0
C433 C 0.88727 0.53041 0.67786 0.0
C434 C 0.83667 0.43419 0.71285 0.0
C435 C 0.83955 0.44458 0.82406 0.0
N436 N 0.87406 0.50864 0.71221 0.0
N437 N 0.84413 0.46442 0.78722 0.0
H438 H 0.29906 0.83082 0.95813 0.0
H439 H 0.42876 0.81771 0.03744 0.0
H440 H 0.34568 0.81213 0.84312 0.0
H441 H 0.38549 0.8423 0.14888 0.0
H442 H 0.39144 0.80381 0.97156 0.0
H443 H 0.32257 0.82253 0.03311 0.0
C444 C 0.31374 0.82434 0.94856 0.0
C445 C 0.32103 0.82305 0.89415 0.0
C446 C 0.38989 0.8118 0.01084 0.0
C447 C 0.34832 0.81392 0.97984 0.0
C448 C 0.41119 0.81967 0.04856 0.0
C449 C 0.41058 0.83176 0.09831 0.0
C450 C 0.36788 0.81608 0.02296 0.0
C451 C 0.38714 0.83361 0.11057 0.0
C452 C 0.32729 0.81974 0.99147 0.0
C453 C 0.33989 0.81409 0.88441 0.0
N454 N 0.36698 0.82628 0.07288 0.0
N455 N 0.35331 0.81045 0.92678 0.0
H456 H 0.54479 0.45004 0.17041 0.0
H457 H 0.65056 0.4855 0.35297 0.0
H458 H 0.49842 0.37682 0.26683 0.0
H459 H 0.58806 0.42631 0.46045 0.0
H460 H 0.61864 0.4667 0.27685 0.0
H461 H 0.58293 0.46495 0.23364 0.0
C462 C 0.54266 0.43701 0.20477 0.0
C463 C 0.51825 0.41214 0.21319 0.0
C464 C 0.61177 0.45782 0.317 0.0
C465 C 0.56252 0.42863 0.28524 0.0
C466 C 0.63028 0.46819 0.36043 0.0
C467 C 0.62188 0.45793 0.41364 0.0
C468 C 0.58452 0.43721 0.32691 0.0
C469 C 0.59544 0.43518 0.42041 0.0
C470 C 0.56474 0.44534 0.24057 0.0
C471 C 0.51677 0.39618 0.2586 0.0
N472 N 0.57757 0.42594 0.3778 0.0
N473 N 0.53851 0.40477 0.29297 0.0
H474 H 0.17641 0.52714 0.87275 0.0
H475 H 0.12512 0.42293 0.68441 0.0
H476 H 0.18409 0.57776 0.7342 0.0
H477 H 0.1641 0.48524 0.56065 0.0
H478 H 0.1467 0.45783 0.75458 0.0
H479 H 0.17341 0.49205 0.81065 0.0
C480 C 0.17783 0.53103 0.82914 0.0
C481 C 0.17997 0.5553 0.80872 0.0
C482 C 0.15145 0.46396 0.71227 0.0
C483 C 0.17528 0.51444 0.73679 0.0
C484 C 0.13905 0.44382 0.67196 0.0
C485 C 0.14231 0.45116 0.6165 0.0
C486 C 0.16727 0.4917 0.69695 0.0
C487 C 0.16053 0.47867 0.60296 0.0
C488 C 0.17572 0.51073 0.79352 0.0
C489 C 0.18223 0.55934 0.75188 0.0
N490 N 0.17177 0.49796 0.64278 0.0
N491 N 0.17935 0.53894 0.71795 0.0
H492 H 0.30136 0.91531 0.96741 0.0
H493 H 0.39841 0.06558 0.08531 0.0
H494 H 0.36018 0.98349 0.8701 0.0
H495 H 0.35667 0.99392 0.188 0.0
H496 H 0.37731 0.03706 0.00526 0.0
H497 H 0.31485 0.94521 0.04744 0.0
C498 C 0.31695 0.93661 0.96272 0.0
C499 C 0.32982 0.94686 0.91199 0.0
C500 C 0.37256 0.02762 0.04535 0.0
C501 C 0.34519 0.98114 0.00338 0.0
C502 C 0.38449 0.0439 0.09122 0.0
C503 C 0.37956 0.03211 0.14359 0.0
C504 C 0.35546 -0.00069 0.0517 0.0
C505 C 0.36122 0.00389 0.14847 0.0
C506 C 0.32466 0.95362 0.00847 0.0
C507 C 0.34988 0.97463 0.90844 0.0
N508 N 0.34999 0.9884 0.10302 0.0
N509 N 0.35698 0.99077 0.95353 0.0
H510 H 0.38478 0.35755 0.27543 0.0
H511 H 0.32449 0.45358 0.34994 0.0
H512 H 0.3693 0.40369 0.15413 0.0
H513 H 0.31804 0.39016 0.45798 0.0
H514 H 0.33806 0.43373 0.27588 0.0
H515 H 0.35899 0.36815 0.3423 0.0
C516 C 0.37588 0.36979 0.26276 0.0
C517 C 0.37944 0.37992 0.20916 0.0
C518 C 0.33316 0.42385 0.31555 0.0
C519 C 0.34991 0.39215 0.28546 0.0
C520 C 0.32524 0.4351 0.35781 0.0
C521 C 0.32047 0.4238 0.41058 0.0
C522 C 0.33674 0.4014 0.32631 0.0
C523 C 0.32172 0.39977 0.41817 0.0
C524 C 0.36101 0.3757 0.30086 0.0
C525 C 0.36723 0.39553 0.19501 0.0
N526 N 0.33028 0.38971 0.37686 0.0
N527 N 0.3533 0.40139 0.23302 0.0
H528 H 0.02148 0.33683 0.6833 0.0
H529 H 0.87806 0.32459 0.73303 0.0
H530 H 0.96144 0.31489 0.55506 0.0
H531 H 0.92767 0.3214 0.86405 0.0
H532 H 0.90546 0.3154 0.66769 0.0
H533 H 0.98531 0.32551 0.75095 0.0
C534 C 0.00062 0.32901 0.66933 0.0
C535 C -0.00531 0.32738 0.6133 0.0
C536 C 0.90997 0.31615 0.71089 0.0
C537 C 0.95324 0.31496 0.69051 0.0
C538 C 0.89427 0.32135 0.74824 0.0
C539 C 0.9009 0.32437 0.80404 0.0
C540 C 0.93263 0.31429 0.72947 0.0
C541 C 0.9221 0.31981 0.82131 0.0
C542 C 0.97993 0.32261 0.70801 0.0
C543 C 0.96716 0.31693 0.59776 0.0
N544 N 0.93753 0.31556 0.78413 0.0
N545 N 0.9476 0.31173 0.63606 0.0
H546 H 0.53966 0.88045 0.00861 0.0
H547 H 0.65904 0.0243 0.93152 0.0
H548 H 0.60321 0.93247 0.12197 0.0
H549 H 0.60864 0.96442 0.81077 0.0
H550 H 0.64529 0.98765 0.99829 0.0
H551 H 0.5701 0.90605 0.93288 0.0
C552 C 0.56027 0.89674 0.01763 0.0
C553 C 0.56853 0.90496 0.0717 0.0
C554 C 0.6377 0.98241 0.95685 0.0
C555 C 0.60326 0.93466 0.98538 0.0
C556 C 0.64555 0.0034 0.91869 0.0
C557 C 0.63434 -0.00246 0.86595 0.0
C558 C 0.61808 0.95548 0.94243 0.0
C559 C 0.61734 0.96999 0.85136 0.0
C560 C 0.57767 0.91144 0.97431 0.0
C561 C 0.59563 0.92596 0.08087 0.0
N562 N 0.60915 0.95005 0.88979 0.0
N563 N 0.61177 0.94056 0.03818 0.0
H564 H 0.67819 0.57492 0.35314 0.0
H565 H 0.61063 0.60185 0.14682 0.0
H566 H 0.64699 0.61552 0.45577 0.0
H567 H 0.61908 0.6678 0.24959 0.0
H568 H 0.63333 0.58958 0.21704 0.0
H569 H 0.66785 0.59367 0.27257 0.0
C570 C 0.66958 0.58814 0.35882 0.0
C571 C 0.66298 0.59326 0.41132 0.0
C572 C 0.63087 0.60716 0.2237 0.0
C573 C 0.65024 0.61398 0.31922 0.0
C574 C 0.61756 0.61396 0.18381 0.0
C575 C 0.61278 0.63579 0.19236 0.0
C576 C 0.63936 0.62226 0.27257 0.0
C577 C 0.62222 0.65075 0.24116 0.0
C578 C 0.66326 0.59846 0.31268 0.0
C579 C 0.65204 0.61068 0.4161 0.0
N580 N 0.63473 0.64349 0.27962 0.0
N581 N 0.64579 0.62021 0.37061 0.0
H582 H 0.14753 0.65292 0.72013 0.0
H583 H 0.00749 0.64721 0.67467 0.0
H584 H 0.10781 0.67329 0.8481 0.0
H585 H 0.06205 0.65677 0.54128 0.0
H586 H 0.04594 0.66218 0.73812 0.0
H587 H 0.11914 0.65925 0.65279 0.0
C588 C 0.1333 0.65929 0.73402 0.0
C589 C 0.12975 0.66204 0.79 0.0
C590 C 0.04962 0.66162 0.69477 0.0
C591 C 0.09677 0.6688 0.71325 0.0
C592 C 0.02766 0.6532 0.65847 0.0
C593 C 0.03134 0.6501 0.60269 0.0
C594 C 0.07525 0.66658 0.67513 0.0
C595 C 0.05805 0.65824 0.58412 0.0
C596 C 0.11705 0.66289 0.69554 0.0
C597 C 0.11104 0.67051 0.80547 0.0
N598 N 0.0788 0.66547 0.62034 0.0
N599 N 0.09484 0.67298 0.76748 0.0
H600 H 0.50822 0.05067 0.31227 0.0
H601 H 0.46053 0.94807 0.10611 0.0
H602 H 0.43253 0.02388 0.22473 0.0
H603 H 0.54573 -0.00487 0.15166 0.0
H604 H 0.45741 0.98935 0.10958 0.0
H605 H 0.52868 0.04468 0.22947 0.0
C606 C 0.49601 0.04372 0.27536 0.0
C607 C 0.46836 0.03661 0.27588 0.0
C608 C 0.47716 0.99104 0.11708 0.0
C609 C 0.49144 0.02953 0.18085 0.0
C610 C 0.47885 0.96733 0.11514 0.0
C611 C 0.50275 0.96803 0.13329 0.0
C612 C 0.49882 0.0145 0.14125 0.0
C613 C 0.52632 0.99355 0.14114 0.0
C614 C 0.50776 0.04067 0.22774 0.0
C615 C 0.45363 0.02858 0.22667 0.0
N616 N 0.52353 0.01587 0.14744 0.0
N617 N 0.46521 0.02475 0.18137 0.0
H618 H 0.41083 0.42721 0.53468 0.0
H619 H 0.56555 0.52332 0.46614 0.0
H620 H 0.44613 0.5056 0.45439 0.0
H621 H 0.53403 0.45097 0.56664 0.0
H622 H 0.51988 0.50664 0.429 0.0
H623 H 0.45231 0.4252 0.51277 0.0
C624 C 0.42704 0.44357 0.51102 0.0
C625 C 0.42603 0.46719 0.49832 0.0
C626 C 0.52291 0.49422 0.45882 0.0
C627 C 0.47282 0.46509 0.47336 0.0
C628 C 0.54884 0.50396 0.48062 0.0
C629 C 0.55298 0.48907 0.52144 0.0
C630 C 0.50085 0.46999 0.47961 0.0
C631 C 0.53121 0.46344 0.53666 0.0
C632 C 0.45059 0.44242 0.49846 0.0
C633 C 0.44693 0.4876 0.46673 0.0
N634 N 0.50573 0.45498 0.5168 0.0
N635 N 0.46981 0.48633 0.45614 0.0
H636 H 0.93008 0.4768 0.84196 0.0
H637 H 0.07947 0.51988 0.81527 0.0
H638 H 0.96324 0.42328 0.81731 0.0
H639 H 0.04706 0.57403 0.83951 0.0
H640 H 0.03754 0.48816 0.76738 0.0
H641 H 0.96932 0.51282 0.79301 0.0
C642 C 0.94549 0.47254 0.82578 0.0
C643 C 0.94466 0.44785 0.83735 0.0
C644 C 0.03975 0.50722 0.78224 0.0
C645 C 0.98946 0.4888 0.78204 0.0
C646 C 0.06353 0.52511 0.81029 0.0
C647 C 0.06573 0.54854 0.83471 0.0
C648 C 0.01768 0.51224 0.78149 0.0
C649 C 0.04542 0.55533 0.82396 0.0
C650 C 0.96772 0.49299 0.79717 0.0
C651 C 0.96415 0.44277 0.81258 0.0
N652 N 0.02175 0.53678 0.79963 0.0
N653 N 0.98622 0.46338 0.78729 0.0
H654 H 0.9831 0.40607 0.56972 0.0
H655 H 0.0172 0.55469 0.59167 0.0
H656 H 0.06416 0.47636 0.58791 0.0
H657 H 0.9362 0.48524 0.5676 0.0
H658 H 0.03118 0.52474 0.63484 0.0
H659 H 0.96378 0.43167 0.61249 0.0
C660 C -0.00313 0.42679 0.58325 0.0
C661 C 0.02509 0.4398 0.57203 0.0
C662 C 0.01017 0.51608 0.62104 0.0
C663 C 0.00317 0.46907 0.62058 0.0
C664 C 0.00231 0.53312 0.59581 0.0
C665 C 0.97608 0.522 0.57298 0.0
C666 C 0.992 0.48772 0.62104 0.0
C667 C 0.95709 0.49435 0.58228 0.0
C668 C 0.98586 0.4413 0.60824 0.0
C669 C 0.0421 0.46609 0.59295 0.0
N670 N 0.96569 0.47791 0.60411 0.0
N671 N 0.0308 0.48016 0.61497 0.0
H672 H 0.40441 0.95719 0.64094 0.0
H673 H 0.54326 0.96074 0.67807 0.0
H674 H 0.41256 0.88989 0.70183 0.0
H675 H 0.53372 0.02813 0.62403 0.0
H676 H 0.49564 0.92909 0.65187 0.0
H677 H 0.45023 0.97725 0.60161 0.0
C678 C 0.41591 0.94667 0.64604 0.0
C679 C 0.40533 0.92256 0.67674 0.0
C680 C 0.50423 0.95073 0.64411 0.0
C681 C 0.45769 0.94535 0.6322 0.0
C682 C 0.53135 0.96871 0.65897 0.0
C683 C 0.54161 -0.00312 0.65524 0.0
C684 C 0.48773 0.96138 0.62613 0.0
C685 C 0.52589 0.00643 0.62943 0.0
C686 C 0.44191 0.9579 0.62297 0.0
C687 C 0.42045 0.90905 0.67997 0.0
N688 N 0.49942 0.9887 0.61689 0.0
N689 N 0.44625 0.92101 0.65917 0.0
H690 H 0.53992 0.57902 0.90997 0.0
H691 H 0.41158 0.4434 0.96685 0.0
H692 H 0.46339 0.56773 0.97379 0.0
H693 H 0.49258 0.45795 0.92767 0.0
H694 H 0.42202 0.48529 0.91789 0.0
H695 H 0.51484 0.53524 0.86317 0.0
C696 C 0.51776 0.56734 0.91373 0.0
C697 C 0.50375 0.57578 0.94883 0.0
C698 C 0.43719 0.47884 0.91847 0.0
C699 C 0.47524 0.52569 0.89712 0.0
C700 C 0.43135 0.45515 0.94689 0.0
C701 C 0.45206 0.4486 0.95429 0.0
C702 C 0.46395 0.4959 0.89855 0.0
C703 C 0.47676 0.46349 0.9257 0.0
C704 C 0.50339 0.54258 0.88637 0.0
C705 C 0.47502 0.561 0.94951 0.0
N706 N 0.48228 0.48687 0.89996 0.0
N707 N 0.46167 0.53604 0.92563 0.0
H708 H 0.31851 0.98388 0.69559 0.0
H709 H 0.33461 0.02054 0.38117 0.0
H710 H 0.27576 0.92599 0.56659 0.0
H711 H 0.38534 0.0758 0.50764 0.0
H712 H 0.30252 0.99056 0.45074 0.0
H713 H 0.3317 0.02126 0.63073 0.0
C714 C 0.31115 0.97904 0.6539 0.0
C715 C 0.29652 0.95173 0.63616 0.0
C716 C 0.3203 0.00953 0.46338 0.0
C717 C 0.31205 0.99451 0.56144 0.0
C718 C 0.33861 0.02672 0.42365 0.0
C719 C 0.36294 0.05043 0.43881 0.0
C720 C 0.32652 0.01584 0.51885 0.0
C721 C 0.36692 0.05763 0.49425 0.0
C722 C 0.31884 0.00043 0.61682 0.0
C723 C 0.28725 0.94669 0.58195 0.0
N724 N 0.34921 0.04004 0.53246 0.0
N725 N 0.29574 0.96789 0.54615 0.0
H726 H 0.34962 0.35589 0.97477 0.0
H727 H 0.34809 0.39239 0.66058 0.0
H728 H 0.39721 0.34348 0.85103 0.0
H729 H 0.33407 0.43559 0.79099 0.0
H730 H 0.35573 0.36534 0.72817 0.0
H731 H 0.3334 0.3755 0.90554 0.0
C732 C 0.35624 0.35667 0.93284 0.0
C733 C 0.37508 0.3481 0.91895 0.0
C734 C 0.35075 0.38057 0.74199 0.0
C735 C 0.35636 0.37068 0.83945 0.0
C736 C 0.34624 0.39604 0.70345 0.0
C737 C 0.34057 0.4166 0.71993 0.0
C738 C 0.34926 0.38524 0.79776 0.0
C739 C 0.33847 0.42012 0.77627 0.0
C740 C 0.3471 0.36814 0.89349 0.0
C741 C 0.38282 0.34982 0.8638 0.0
N742 N 0.34288 0.40463 0.8132 0.0
N743 N 0.37351 0.36101 0.82613 0.0
H744 H 0.95817 0.36942 0.04501 0.0
H745 H 0.96386 0.34328 0.36302 0.0
H746 H 0.88697 0.33642 0.15046 0.0
H747 H 0.03077 0.36176 0.25215 0.0
H748 H 0.93473 0.33821 0.2851 0.0
H749 H 0.98448 0.36496 0.11934 0.0
C750 C 0.94799 0.36113 0.08375 0.0
C751 C 0.92031 0.3535 0.09156 0.0
C752 C 0.95566 0.34302 0.27765 0.0
C753 C 0.95049 0.34838 0.17711 0.0
C754 C 0.97234 0.34591 0.32216 0.0
C755 C -0.00011 0.35316 0.31413 0.0
C756 C 0.96665 0.34779 0.22456 0.0
C757 C 0.00966 0.35614 0.26025 0.0
C758 C 0.96305 0.35848 0.12615 0.0
C759 C 0.90825 0.34265 0.14257 0.0
N760 N 0.99316 0.35382 0.21754 0.0
N761 N 0.92349 0.34066 0.18354 0.0
H762 H 0.64382 0.07114 0.52317 0.0
H763 H 0.56206 0.91706 0.42562 0.0
H764 H 0.65105 0.00687 0.60301 0.0
H765 H 0.58064 0.98386 0.31545 0.0
H766 H 0.59387 0.95 0.49227 0.0
H767 H 0.62166 0.0405 0.4456 0.0
C768 C 0.64152 0.05093 0.52387 0.0
C769 C 0.64901 0.04155 0.57032 0.0
C770 C 0.59114 0.9574 0.45329 0.0
C771 C 0.62282 0.00609 0.48233 0.0
C772 C 0.57282 0.93861 0.4154 0.0
C773 C 0.56857 0.94765 0.36487 0.0
C774 C 0.60498 0.98552 0.44107 0.0
C775 C 0.58326 0.9759 0.35383 0.0
C776 C 0.6286 0.03333 0.4797 0.0
C777 C 0.64533 0.015 0.5686 0.0
N778 N 0.60056 0.99382 0.39177 0.0
N779 N 0.63199 -0.00193 0.52603 0.0
H780 H 0.65202 0.65438 0.97017 0.0
H781 H 0.6384 0.6144 0.65691 0.0
H782 H 0.61922 0.68552 0.84897 0.0
H783 H 0.68081 0.59158 0.77365 0.0
H784 H 0.63674 0.64535 0.72415 0.0
H785 H 0.66947 0.63762 0.8972 0.0
C786 C 0.64932 0.65852 0.92806 0.0
C787 C 0.63401 0.67125 0.91563 0.0
C788 C 0.6467 0.63385 0.73502 0.0
C789 C 0.65307 0.65119 0.83169 0.0
C790 C 0.64754 0.61599 0.69665 0.0
C791 C 0.65943 0.59999 0.7098 0.0
C792 C 0.65752 0.63562 0.78748 0.0
C793 C 0.67127 0.60334 0.76176 0.0
C794 C 0.65908 0.64871 0.88636 0.0
C795 C 0.63101 0.67595 0.86043 0.0
N796 N 0.66967 0.62048 0.79893 0.0
N797 N 0.63989 0.66538 0.82049 0.0
H798 H 0.06893 0.62824 0.04046 0.0
H799 H 0.05256 0.62243 0.36486 0.0
H800 H 0.13271 0.63884 0.15242 0.0
H801 H 0.99214 0.62211 0.25613 0.0
H802 H 0.08313 0.6314 0.28732 0.0
H803 H 0.04162 0.62871 0.1179 0.0
C804 C 0.07734 0.63089 0.08126 0.0
C805 C 0.10315 0.63328 0.08983 0.0
C806 C 0.06333 0.62965 0.28025 0.0
C807 C 0.07177 0.63371 0.17888 0.0
C808 C 0.04578 0.62448 0.32461 0.0
C809 C 0.0196 0.62127 0.31698 0.0
C810 C 0.05463 0.63131 0.22739 0.0
C811 C 0.01213 0.62443 0.2639 0.0
C812 C 0.06169 0.6312 0.12549 0.0
C813 C 0.11293 0.63682 0.14369 0.0
N814 N 0.02943 0.62893 0.22098 0.0
N815 N 0.09715 0.63668 0.18608 0.0
H816 H 0.5522 0.16095 0.39711 0.0
H817 H 0.56218 0.12127 0.70344 0.0
H818 H 0.48632 0.13401 0.51448 0.0
H819 H 0.62627 0.14434 0.58291 0.0
H820 H 0.53882 0.13699 0.64207 0.0
H821 H 0.58371 0.16684 0.47105 0.0
C822 C 0.54453 0.15707 0.43876 0.0
C823 C 0.51648 0.14659 0.44954 0.0
C824 C 0.55824 0.1391 0.62937 0.0
C825 C 0.55237 0.15255 0.53442 0.0
C826 C 0.57167 0.13014 0.66447 0.0
C827 C 0.59603 0.13096 0.64796 0.0
C828 C 0.56908 0.14881 0.57706 0.0
C829 C 0.60743 0.14302 0.59725 0.0
C830 C 0.56253 0.16026 0.48098 0.0
C831 C 0.50774 0.14206 0.50427 0.0
N832 N 0.59361 0.151 0.56324 0.0
N833 N 0.5255 0.14446 0.54456 0.0
H834 H 0.44777 0.57773 0.66478 0.0
H835 H 0.46376 0.64457 0.95951 0.0
H836 H 0.37974 0.55164 0.77698 0.0
H837 H 0.52972 0.67015 0.84234 0.0
H838 H 0.4315 0.61427 0.89058 0.0
H839 H 0.47664 0.61434 0.72693 0.0
C840 C 0.4388 0.57964 0.7026 0.0
C841 C 0.4112 0.56125 0.71574 0.0
C842 C 0.45295 0.62684 0.87971 0.0
C843 C 0.44459 0.60368 0.78774 0.0
C844 C 0.47144 0.64437 0.91895 0.0
C845 C 0.49969 0.65984 0.90706 0.0
C846 C 0.46272 0.62472 0.82811 0.0
C847 C 0.50825 0.65856 0.85369 0.0
C848 C 0.45539 0.60076 0.7381 0.0
C849 C 0.40089 0.5652 0.7652 0.0
N850 N 0.48993 0.64108 0.81656 0.0
N851 N 0.41765 0.58586 0.79964 0.0
H852 H 0.84919 0.39299 0.16381 0.0
H853 H 0.90444 0.54728 0.26193 0.0
H854 H 0.87095 0.46091 0.05463 0.0
H855 H 0.88654 0.48076 0.3725 0.0
H856 H 0.88684 0.51465 0.18637 0.0
H857 H 0.85709 0.42344 0.24174 0.0
C858 C 0.8552 0.41414 0.15618 0.0
C859 C 0.85972 0.42445 0.10261 0.0
C860 C 0.88658 0.50716 0.22725 0.0
C861 C 0.86898 0.45942 0.19138 0.0
C862 C 0.89661 0.52582 0.27047 0.0
C863 C 0.89725 0.51687 0.32369 0.0
C864 C 0.87714 0.47931 0.23717 0.0
C865 C 0.88671 0.48871 0.33214 0.0
C866 C 0.85985 0.43157 0.20065 0.0
C867 C 0.86756 0.4521 0.0952 0.0
N868 N 0.8773 0.471 0.28935 0.0
N869 N 0.87213 0.4686 0.13896 0.0
H870 H 0.4368 0.84176 0.42817 0.0
H871 H 0.31522 0.86788 0.52239 0.0
H872 H 0.40837 0.88721 0.33354 0.0
H873 H 0.34169 0.82078 0.61695 0.0
H874 H 0.34675 0.87186 0.44945 0.0
H875 H 0.40059 0.83164 0.49557 0.0
C876 C 0.42301 0.84963 0.42149 0.0
C877 C 0.42583 0.86549 0.37505 0.0
C878 C 0.34545 0.86037 0.48589 0.0
C879 C 0.38414 0.8538 0.45199 0.0
C880 C 0.32724 0.85791 0.52749 0.0
C881 C 0.32579 0.84408 0.57622 0.0
C882 C 0.36252 0.84905 0.49296 0.0
C883 C 0.34206 0.83169 0.58028 0.0
C884 C 0.40225 0.84376 0.45993 0.0
C885 C 0.40718 0.875 0.36866 0.0
N886 N 0.35992 0.83472 0.53955 0.0
N887 N 0.38727 0.86907 0.40661 0.0
H888 H 0.6448 0.49439 0.79667 0.0
H889 H 0.5546 0.41561 1.00151 0.0
H890 H 0.59863 0.42541 0.69023 0.0
H891 H 0.5023 0.36713 0.86937 0.0
H892 H 0.59316 0.43699 0.93825 0.0
H893 H 0.61588 0.46758 0.873 0.0
C894 C 0.62918 0.47331 0.78967 0.0
C895 C 0.62414 0.46233 0.7367 0.0
C896 C 0.57336 0.42182 0.92263 0.0
C897 C 0.59051 0.43108 0.82439 0.0
C898 C 0.5513 0.40924 0.95908 0.0
C899 C 0.525 0.38975 0.94066 0.0
C900 C 0.56914 0.41529 0.86675 0.0
C901 C 0.52214 0.38206 0.88544 0.0
C902 C 0.61248 0.45784 0.8335 0.0
C903 C 0.6032 0.43492 0.73019 0.0
N904 N 0.54382 0.39513 0.85034 0.0
N905 N 0.58697 0.42049 0.77312 0.0
H906 H 0.11116 0.43223 0.26008 0.0
H907 H 0.16931 0.58624 0.15627 0.0
H908 H 0.12534 0.49839 0.3684 0.0
H909 H 0.13409 0.51564 0.05063 0.0
H910 H 0.16115 0.55597 0.23492 0.0
H911 H 0.12737 0.4643 0.18352 0.0
C912 C 0.11789 0.45354 0.26795 0.0
C913 C 0.11663 0.46252 0.32086 0.0
C914 C 0.15545 0.54721 0.19439 0.0
C915 C 0.13528 0.49945 0.23301 0.0
C916 C 0.16026 0.56447 0.1495 0.0
C917 C 0.15219 0.55344 0.09685 0.0
C918 C 0.14283 0.51881 0.18636 0.0
C919 C 0.14039 0.52504 0.09052 0.0
C920 C 0.12709 0.47184 0.2241 0.0
C921 C 0.12572 0.49046 0.32831 0.0
N922 N 0.13603 0.50876 0.13464 0.0
N923 N 0.13456 0.50791 0.28487 0.0
loop_
_geom_bond_atom_site_label_1
_geom_bond_atom_site_label_2
_geom_bond_distance
_geom_bond_site_symmetry_2
_ccdc_geom_bond_type
O0 Zn1 1.953 . S
O0 C16 1.225 . S
Zn1 O0 1.953 . S
Zn1 O2 1.949 . S
Zn1 O8 1.919 . S
Zn1 O13 1.924 . S
O2 Zn1 1.949 . S
O2 Zn3 1.923 . S
O2 Zn4 1.950 . S
O2 Zn5 1.945 . S
Zn3 O2 1.923 . S
Zn3 O6 1.933 . S
Zn3 O9 1.941 . S
Zn3 O10 1.965 . S
Zn4 O2 1.950 . S
Zn4 O11 1.938 . S
Zn4 O12 1.906 . S
Zn4 O22 1.953 . S
Zn5 O2 1.945 . S
Zn5 O7 1.932 . S
Zn5 O14 1.977 . S
Zn5 O15 1.910 . S
O6 Zn3 1.933 . S
O6 C17 1.226 . S
O7 Zn5 1.932 . S
O7 C17 1.307 . S
O8 Zn1 1.919 . S
O8 C19 1.253 . S
O9 Zn3 1.941 . S
O9 C19 1.283 . S
O10 Zn3 1.965 . S
O10 C18 1.303 . S
O11 Zn4 1.938 . S
O11 C18 1.247 . S
O12 Zn4 1.906 . S
O12 C20 1.304 . S
O13 Zn1 1.924 . S
O13 C21 1.311 . S
O14 Zn5 1.977 . S
O14 C20 1.272 . S
O15 Zn5 1.910 . S
O15 C21 1.231 . S
C16 O0 1.225 . S
C16 O22 1.298 . S
C17 O6 1.226 . S
C17 O7 1.307 . S
C18 O10 1.303 . S
C18 O11 1.247 . S
C19 O8 1.253 . S
C19 O9 1.283 . S
C20 O12 1.304 . S
C20 O14 1.272 . S
C21 O13 1.311 . S
C21 O15 1.231 . S
O22 Zn4 1.953 . S
O22 C16 1.298 . S
O23 Zn24 1.953 . S
O23 C39 1.225 . S
Zn24 O23 1.953 . S
Zn24 O25 1.949 . S
Zn24 O31 1.919 . S
Zn24 O36 1.924 . S
O25 Zn24 1.949 . S
O25 Zn26 1.923 . S
O25 Zn27 1.950 . S
O25 Zn28 1.945 . S
Zn26 O25 1.923 . S
Zn26 O29 1.933 . S
Zn26 O32 1.941 . S
Zn26 O33 1.965 . S
Zn27 O25 1.950 . S
Zn27 O34 1.938 . S
Zn27 O35 1.906 . S
Zn27 O45 1.953 . S
Zn28 O25 1.945 . S
Zn28 O30 1.932 . S
Zn28 O37 1.977 . S
Zn28 O38 1.910 . S
O29 Zn26 1.933 . S
O29 C40 1.226 . S
O30 Zn28 1.932 . S
O30 C40 1.307 . S
O31 Zn24 1.919 . S
O31 C42 1.253 . S
O32 Zn26 1.941 . S
O32 C42 1.283 . S
O33 Zn26 1.965 . S
O33 C41 1.303 . S
O34 Zn27 1.938 . S
O34 C41 1.247 . S
O35 Zn27 1.906 . S
O35 C43 1.304 . S
O36 Zn24 1.924 . S
O36 C44 1.311 . S
O37 Zn28 1.977 . S
O37 C43 1.272 . S
O38 Zn28 1.910 . S
O38 C44 1.231 . S
C39 O23 1.225 . S
C39 O45 1.298 . S
C40 O29 1.226 . S
C40 O30 1.307 . S
C41 O33 1.303 . S
C41 O34 1.247 . S
C42 O31 1.253 . S
C42 O32 1.283 . S
C43 O35 1.304 . S
C43 O37 1.272 . S
C44 O36 1.311 . S
C44 O38 1.231 . S
O45 Zn27 1.953 . S
O45 C39 1.298 . S
O46 Zn47 1.953 . S
O46 C62 1.225 1_556 S
Zn47 O46 1.953 . S
Zn47 O48 1.949 . S
Zn47 O54 1.919 . S
Zn47 O59 1.924 . S
O48 Zn47 1.949 . S
O48 Zn49 1.923 . S
O48 Zn50 1.950 . S
O48 Zn51 1.945 . S
Zn49 O48 1.923 . S
Zn49 O52 1.933 . S
Zn49 O55 1.941 . S
Zn49 O56 1.965 . S
Zn50 O48 1.950 . S
Zn50 O57 1.938 1_556 S
Zn50 O58 1.906 . S
Zn50 O68 1.953 1_556 S
Zn51 O48 1.945 . S
Zn51 O53 1.932 . S
Zn51 O60 1.977 . S
Zn51 O61 1.910 . S
O52 Zn49 1.933 . S
O52 C63 1.226 . S
O53 Zn51 1.932 . S
O53 C63 1.307 . S
O54 Zn47 1.919 . S
O54 C65 1.253 . S
O55 Zn49 1.941 . S
O55 C65 1.283 . S
O56 Zn49 1.965 . S
O56 C64 1.303 1_556 S
O57 Zn50 1.938 1_554 S
O57 C64 1.247 . S
O58 Zn50 1.906 . S
O58 C66 1.304 . S
O59 Zn47 1.924 . S
O59 C67 1.311 . S
O60 Zn51 1.977 . S
O60 C66 1.272 . S
O61 Zn51 1.910 . S
O61 C67 1.231 . S
C62 O46 1.225 1_554 S
C62 O68 1.298 . S
C63 O52 1.226 . S
C63 O53 1.307 . S
C64 O56 1.303 1_554 S
C64 O57 1.247 . S
C65 O54 1.253 . S
C65 O55 1.283 . S
C66 O58 1.304 . S
C66 O60 1.272 . S
C67 O59 1.311 . S
C67 O61 1.231 . S
O68 Zn50 1.953 1_554 S
O68 C62 1.298 . S
O69 Zn70 1.953 . S
O69 C85 1.225 . S
Zn70 O69 1.953 . S
Zn70 O71 1.949 . S
Zn70 O77 1.919 . S
Zn70 O82 1.924 . S
O71 Zn70 1.949 . S
O71 Zn72 1.923 . S
O71 Zn73 1.950 . S
O71 Zn74 1.945 . S
Zn72 O71 1.923 . S
Zn72 O75 1.933 . S
Zn72 O78 1.941 . S
Zn72 O79 1.965 . S
Zn73 O71 1.950 . S
Zn73 O80 1.938 . S
Zn73 O81 1.906 . S
Zn73 O91 1.953 . S
Zn74 O71 1.945 . S
Zn74 O76 1.932 . S
Zn74 O83 1.977 . S
Zn74 O84 1.910 . S
O75 Zn72 1.933 . S
O75 C86 1.226 . S
O76 Zn74 1.932 . S
O76 C86 1.307 . S
O77 Zn70 1.919 . S
O77 C88 1.253 . S
O78 Zn72 1.941 . S
O78 C88 1.283 . S
O79 Zn72 1.965 . S
O79 C87 1.303 . S
O80 Zn73 1.938 . S
O80 C87 1.247 . S
O81 Zn73 1.906 . S
O81 C89 1.304 . S
O82 Zn70 1.924 . S
O82 C90 1.311 . S
O83 Zn74 1.977 . S
O83 C89 1.272 . S
O84 Zn74 1.910 . S
O84 C90 1.231 . S
C85 O69 1.225 . S
C85 O91 1.298 . S
C86 O75 1.226 . S
C86 O76 1.307 . S
C87 O79 1.303 . S
C87 O80 1.247 . S
C88 O77 1.253 . S
C88 O78 1.283 . S
C89 O81 1.304 . S
C89 O83 1.272 . S
C90 O82 1.311 . S
C90 O84 1.231 . S
O91 Zn73 1.953 . S
O91 C85 1.298 . S
O92 Zn93 1.953 . S
O92 C108 1.225 . S
Zn93 O92 1.953 . S
Zn93 O94 1.949 . S
Zn93 O100 1.919 . S
Zn93 O105 1.924 . S
O94 Zn93 1.949 . S
O94 Zn95 1.923 . S
O94 Zn96 1.950 . S
O94 Zn97 1.945 . S
Zn95 O94 1.923 . S
Zn95 O98 1.933 . S
Zn95 O101 1.941 . S
Zn95 O102 1.965 . S
Zn96 O94 1.950 . S
Zn96 O103 1.938 . S
Zn96 O104 1.906 . S
Zn96 O114 1.953 . S
Zn97 O94 1.945 . S
Zn97 O99 1.932 . S
Zn97 O106 1.977 . S
Zn97 O107 1.910 . S
O98 Zn95 1.933 . S
O98 C109 1.226 . S
O99 Zn97 1.932 . S
O99 C109 1.307 . S
O100 Zn93 1.919 . S
O100 C111 1.253 . S
O101 Zn95 1.941 . S
O101 C111 1.283 . S
O102 Zn95 1.965 . S
O102 C110 1.303 . S
O103 Zn96 1.938 . S
O103 C110 1.247 . S
O104 Zn96 1.906 . S
O104 C112 1.304 . S
O105 Zn93 1.924 . S
O105 C113 1.311 . S
O106 Zn97 1.977 . S
O106 C112 1.272 . S
O107 Zn97 1.910 . S
O107 C113 1.231 . S
C108 O92 1.225 . S
C108 O114 1.298 . S
C109 O98 1.226 . S
C109 O99 1.307 . S
C110 O102 1.303 . S
C110 O103 1.247 . S
C111 O100 1.253 . S
C111 O101 1.283 . S
C112 O104 1.304 . S
C112 O106 1.272 . S
C113 O105 1.311 . S
C113 O107 1.231 . S
O114 Zn96 1.953 . S
O114 C108 1.298 . S
O115 Zn116 1.953 . S
O115 C131 1.225 1_556 S
Zn116 O115 1.953 . S
Zn116 O117 1.949 . S
Zn116 O123 1.919 . S
Zn116 O128 1.924 . S
O117 Zn116 1.949 . S
O117 Zn118 1.923 . S
O117 Zn119 1.950 . S
O117 Zn120 1.945 . S
Zn118 O117 1.923 . S
Zn118 O121 1.933 . S
Zn118 O124 1.941 . S
Zn118 O125 1.965 . S
Zn119 O117 1.950 . S
Zn119 O126 1.938 1_556 S
Zn119 O127 1.906 . S
Zn119 O137 1.953 1_556 S
Zn120 O117 1.945 . S
Zn120 O122 1.932 . S
Zn120 O129 1.977 . S
Zn120 O130 1.910 . S
O121 Zn118 1.933 . S
O121 C132 1.226 . S
O122 Zn120 1.932 . S
O122 C132 1.307 . S
O123 Zn116 1.919 . S
O123 C134 1.253 . S
O124 Zn118 1.941 . S
O124 C134 1.283 . S
O125 Zn118 1.965 . S
O125 C133 1.303 1_556 S
O126 Zn119 1.938 1_554 S
O126 C133 1.247 . S
O127 Zn119 1.906 . S
O127 C135 1.304 . S
O128 Zn116 1.924 . S
O128 C136 1.311 . S
O129 Zn120 1.977 . S
O129 C135 1.272 . S
O130 Zn120 1.910 . S
O130 C136 1.231 . S
C131 O115 1.225 1_554 S
C131 O137 1.298 . S
C132 O121 1.226 . S
C132 O122 1.307 . S
C133 O125 1.303 1_554 S
C133 O126 1.247 . S
C134 O123 1.253 . S
C134 O124 1.283 . S
C135 O127 1.304 . S
C135 O129 1.272 . S
C136 O128 1.311 . S
C136 O130 1.231 . S
O137 Zn119 1.953 1_554 S
O137 C131 1.298 . S
O138 Zn139 1.953 . S
O138 C154 1.225 . S
Zn139 O138 1.953 . S
Zn139 O140 1.949 . S
Zn139 O146 1.919 . S
Zn139 O151 1.924 . S
O140 Zn139 1.949 . S
O140 Zn141 1.923 . S
O140 Zn142 1.950 . S
O140 Zn143 1.945 . S
Zn141 O140 1.923 . S
Zn141 O144 1.933 . S
Zn141 O147 1.941 . S
Zn141 O148 1.965 . S
Zn142 O140 1.950 . S
Zn142 O149 1.938 . S
Zn142 O150 1.906 . S
Zn142 O160 1.953 . S
Zn143 O140 1.945 . S
Zn143 O145 1.932 . S
Zn143 O152 1.977 . S
Zn143 O153 1.910 . S
O144 Zn141 1.933 . S
O144 C155 1.226 . S
O145 Zn143 1.932 . S
O145 C155 1.307 . S
O146 Zn139 1.919 . S
O146 C157 1.253 . S
O147 Zn141 1.941 . S
O147 C157 1.283 . S
O148 Zn141 1.965 . S
O148 C156 1.303 . S
O149 Zn142 1.938 . S
O149 C156 1.247 . S
O150 Zn142 1.906 . S
O150 C158 1.304 . S
O151 Zn139 1.924 . S
O151 C159 1.311 . S
O152 Zn143 1.977 . S
O152 C158 1.272 . S
O153 Zn143 1.910 . S
O153 C159 1.231 . S
C154 O138 1.225 . S
C154 O160 1.298 . S
C155 O144 1.226 . S
C155 O145 1.307 . S
C156 O148 1.303 . S
C156 O149 1.247 . S
C157 O146 1.253 . S
C157 O147 1.283 . S
C158 O150 1.304 . S
C158 O152 1.272 . S
C159 O151 1.311 . S
C159 O153 1.231 . S
O160 Zn142 1.953 . S
O160 C154 1.298 . S
O161 Zn162 1.953 . S
O161 C177 1.225 . S
Zn162 O161 1.953 . S
Zn162 O163 1.949 . S
Zn162 O169 1.919 . S
Zn162 O174 1.924 . S
O163 Zn162 1.949 . S
O163 Zn164 1.923 . S
O163 Zn165 1.950 . S
O163 Zn166 1.945 . S
Zn164 O163 1.923 . S
Zn164 O167 1.933 . S
Zn164 O170 1.941 . S
Zn164 O171 1.965 . S
Zn165 O163 1.950 . S
Zn165 O172 1.938 . S
Zn165 O173 1.906 . S
Zn165 O183 1.953 . S
Zn166 O163 1.945 . S
Zn166 O168 1.932 . S
Zn166 O175 1.977 . S
Zn166 O176 1.910 . S
O167 Zn164 1.933 . S
O167 C178 1.226 . S
O168 Zn166 1.932 . S
O168 C178 1.307 . S
O169 Zn162 1.919 . S
O169 C180 1.253 . S
O170 Zn164 1.941 . S
O170 C180 1.283 . S
O171 Zn164 1.965 . S
O171 C179 1.303 . S
O172 Zn165 1.938 . S
O172 C179 1.247 . S
O173 Zn165 1.906 . S
O173 C181 1.304 . S
O174 Zn162 1.924 . S
O174 C182 1.311 . S
O175 Zn166 1.977 . S
O175 C181 1.272 . S
O176 Zn166 1.910 . S
O176 C182 1.231 . S
C177 O161 1.225 . S
C177 O183 1.298 . S
C178 O167 1.226 . S
C178 O168 1.307 . S
C179 O171 1.303 . S
C179 O172 1.247 . S
C180 O169 1.253 . S
C180 O170 1.283 . S
C181 O173 1.304 . S
C181 O175 1.272 . S
C182 O174 1.311 . S
C182 O176 1.231 . S
O183 Zn165 1.953 . S
O183 C177 1.298 . S
O184 Zn185 1.953 . S
O184 C200 1.225 1_554 S
Zn185 O184 1.953 . S
Zn185 O186 1.949 . S
Zn185 O192 1.919 . S
Zn185 O197 1.924 . S
O186 Zn185 1.949 . S
O186 Zn187 1.923 . S
O186 Zn188 1.950 . S
O186 Zn189 1.945 . S
Zn187 O186 1.923 . S
Zn187 O190 1.933 . S
Zn187 O193 1.941 . S
Zn187 O194 1.965 . S
Zn188 O186 1.950 . S
Zn188 O195 1.938 1_554 S
Zn188 O196 1.906 . S
Zn188 O206 1.953 1_554 S
Zn189 O186 1.945 . S
Zn189 O191 1.932 . S
Zn189 O198 1.977 . S
Zn189 O199 1.910 . S
O190 Zn187 1.933 . S
O190 C201 1.226 . S
O191 Zn189 1.932 . S
O191 C201 1.307 . S
O192 Zn185 1.919 . S
O192 C203 1.253 . S
O193 Zn187 1.941 . S
O193 C203 1.283 . S
O194 Zn187 1.965 . S
O194 C202 1.303 1_554 S
O195 Zn188 1.938 1_556 S
O195 C202 1.247 . S
O196 Zn188 1.906 . S
O196 C204 1.304 . S
O197 Zn185 1.924 . S
O197 C205 1.311 . S
O198 Zn189 1.977 . S
O198 C204 1.272 . S
O199 Zn189 1.910 . S
O199 C205 1.231 . S
C200 O184 1.225 1_556 S
C200 O206 1.298 . S
C201 O190 1.226 . S
C201 O191 1.307 . S
C202 O194 1.303 1_556 S
C202 O195 1.247 . S
C203 O192 1.253 . S
C203 O193 1.283 . S
C204 O196 1.304 . S
C204 O198 1.272 . S
C205 O197 1.311 . S
C205 O199 1.231 . S
O206 Zn188 1.953 1_556 S
O206 C200 1.298 . S
O207 Zn208 1.953 . S
O207 C223 1.225 . S
Zn208 O207 1.953 . S
Zn208 O209 1.949 . S
Zn208 O215 1.919 . S
Zn208 O220 1.924 . S
O209 Zn208 1.949 . S
O209 Zn210 1.923 . S
O209 Zn211 1.950 . S
O209 Zn212 1.945 . S
Zn210 O209 1.923 . S
Zn210 O213 1.933 . S
Zn210 O216 1.941 . S
Zn210 O217 1.965 . S
Zn211 O209 1.950 . S
Zn211 O218 1.938 . S
Zn211 O219 1.906 . S
Zn211 O229 1.953 . S
Zn212 O209 1.945 . S
Zn212 O214 1.932 . S
Zn212 O221 1.977 . S
Zn212 O222 1.910 . S
O213 Zn210 1.933 . S
O213 C224 1.226 . S
O214 Zn212 1.932 . S
O214 C224 1.307 . S
O215 Zn208 1.919 . S
O215 C226 1.253 . S
O216 Zn210 1.941 . S
O216 C226 1.283 . S
O217 Zn210 1.965 . S
O217 C225 1.303 . S
O218 Zn211 1.938 . S
O218 C225 1.247 . S
O219 Zn211 1.906 . S
O219 C227 1.304 . S
O220 Zn208 1.924 . S
O220 C228 1.311 . S
O221 Zn212 1.977 . S
O221 C227 1.272 . S
O222 Zn212 1.910 . S
O222 C228 1.231 . S
C223 O207 1.225 . S
C223 O229 1.298 . S
C224 O213 1.226 . S
C224 O214 1.307 . S
C225 O217 1.303 . S
C225 O218 1.247 . S
C226 O215 1.253 . S
C226 O216 1.283 . S
C227 O219 1.304 . S
C227 O221 1.272 . S
C228 O220 1.311 . S
C228 O222 1.231 . S
O229 Zn211 1.953 . S
O229 C223 1.298 . S
O230 Zn231 1.953 . S
O230 C246 1.225 . S
Zn231 O230 1.953 . S
Zn231 O232 1.949 . S
Zn231 O238 1.919 . S
Zn231 O243 1.924 . S
O232 Zn231 1.949 . S
O232 Zn233 1.923 . S
O232 Zn234 1.950 . S
O232 Zn235 1.945 . S
Zn233 O232 1.923 . S
Zn233 O236 1.933 . S
Zn233 O239 1.941 . S
Zn233 O240 1.965 . S
Zn234 O232 1.950 . S
Zn234 O241 1.938 . S
Zn234 O242 1.906 . S
Zn234 O252 1.953 . S
Zn235 O232 1.945 . S
Zn235 O237 1.932 . S
Zn235 O244 1.977 . S
Zn235 O245 1.910 . S
O236 Zn233 1.933 . S
O236 C247 1.226 . S
O237 Zn235 1.932 . S
O237 C247 1.307 . S
O238 Zn231 1.919 . S
O238 C249 1.253 . S
O239 Zn233 1.941 . S
O239 C249 1.283 . S
O240 Zn233 1.965 . S
O240 C248 1.303 . S
O241 Zn234 1.938 . S
O241 C248 1.247 . S
O242 Zn234 1.906 . S
O242 C250 1.304 . S
O243 Zn231 1.924 . S
O243 C251 1.311 . S
O244 Zn235 1.977 . S
O244 C250 1.272 . S
O245 Zn235 1.910 . S
O245 C251 1.231 . S
C246 O230 1.225 . S
C246 O252 1.298 . S
C247 O236 1.226 . S
C247 O237 1.307 . S
C248 O240 1.303 . S
C248 O241 1.247 . S
C249 O238 1.253 . S
C249 O239 1.283 . S
C250 O242 1.304 . S
C250 O244 1.272 . S
C251 O243 1.311 . S
C251 O245 1.231 . S
O252 Zn234 1.953 . S
O252 C246 1.298 . S
O253 Zn254 1.953 . S
O253 C269 1.225 1_554 S
Zn254 O253 1.953 . S
Zn254 O255 1.949 . S
Zn254 O261 1.919 . S
Zn254 O266 1.924 . S
O255 Zn254 1.949 . S
O255 Zn256 1.923 . S
O255 Zn257 1.950 . S
O255 Zn258 1.945 . S
Zn256 O255 1.923 . S
Zn256 O259 1.933 . S
Zn256 O262 1.941 . S
Zn256 O263 1.965 . S
Zn257 O255 1.950 . S
Zn257 O264 1.938 1_554 S
Zn257 O265 1.906 . S
Zn257 O275 1.953 1_554 S
Zn258 O255 1.945 . S
Zn258 O260 1.932 . S
Zn258 O267 1.977 . S
Zn258 O268 1.910 . S
O259 Zn256 1.933 . S
O259 C270 1.226 . S
O260 Zn258 1.932 . S
O260 C270 1.307 . S
O261 Zn254 1.919 . S
O261 C272 1.253 . S
O262 Zn256 1.941 . S
O262 C272 1.283 . S
O263 Zn256 1.965 . S
O263 C271 1.303 1_554 S
O264 Zn257 1.938 1_556 S
O264 C271 1.247 . S
O265 Zn257 1.906 . S
O265 C273 1.304 . S
O266 Zn254 1.924 . S
O266 C274 1.311 . S
O267 Zn258 1.977 . S
O267 C273 1.272 . S
O268 Zn258 1.910 . S
O268 C274 1.231 . S
C269 O253 1.225 1_556 S
C269 O275 1.298 . S
C270 O259 1.226 . S
C270 O260 1.307 . S
C271 O263 1.303 1_556 S
C271 O264 1.247 . S
C272 O261 1.253 . S
C272 O262 1.283 . S
C273 O265 1.304 . S
C273 O267 1.272 . S
C274 O266 1.311 . S
C274 O268 1.231 . S
O275 Zn257 1.953 1_556 S
O275 C269 1.298 . S
H276 C282 0.930 . S
H277 C286 0.930 . S
H278 C291 0.929 . S
H279 C289 0.929 . S
H280 C284 0.929 . S
H281 C290 0.929 . S
C282 H276 0.930 . S
C282 C283 1.367 . S
C282 C290 1.378 . S
C283 C282 1.367 . S
C283 C291 1.433 . S
C284 H280 0.929 . S
C284 C286 1.378 . S
C284 C288 1.350 . S
C285 C288 1.463 . S
C285 C290 1.350 . S
C285 N293 1.427 . S
C286 H277 0.930 . S
C286 C284 1.378 . S
C286 C287 1.367 . S
C287 C286 1.367 . S
C287 C289 1.433 . S
C288 C284 1.350 . S
C288 C285 1.463 . S
C288 N292 1.427 . S
C289 H279 0.929 . S
C289 C287 1.433 . S
C289 N292 1.384 . S
C290 H281 0.929 . S
C290 C282 1.378 . S
C290 C285 1.350 . S
C291 H278 0.929 . S
C291 C283 1.433 . S
C291 N293 1.384 . S
N292 C288 1.427 . S
N292 C289 1.384 . S
N293 C285 1.427 . S
N293 C291 1.384 . S
H294 C300 0.930 . S
H295 C304 0.930 . S
H296 C309 0.929 . S
H297 C307 0.929 . S
H298 C302 0.929 . S
H299 C308 0.929 . S
C300 H294 0.930 . S
C300 C301 1.367 . S
C300 C308 1.378 . S
C301 C300 1.367 . S
C301 C309 1.433 . S
C302 H298 0.929 . S
C302 C304 1.378 . S
C302 C306 1.350 . S
C303 C306 1.463 . S
C303 C308 1.350 . S
C303 N311 1.427 . S
C304 H295 0.930 . S
C304 C302 1.378 . S
C304 C305 1.367 . S
C305 C304 1.367 . S
C305 C307 1.433 . S
C306 C302 1.350 . S
C306 C303 1.463 . S
C306 N310 1.427 . S
C307 H297 0.929 . S
C307 C305 1.433 . S
C307 N310 1.384 . S
C308 H299 0.929 . S
C308 C300 1.378 . S
C308 C303 1.350 . S
C309 H296 0.929 . S
C309 C301 1.433 . S
C309 N311 1.384 . S
N310 C306 1.427 . S
N310 C307 1.384 . S
N311 C303 1.427 . S
N311 C309 1.384 . S
H312 C318 0.930 . S
H313 C322 0.930 . S
H314 C327 0.929 . S
H315 C325 0.929 . S
H316 C320 0.929 . S
H317 C326 0.929 . S
C318 H312 0.930 . S
C318 C319 1.367 . S
C318 C326 1.378 . S
C319 C318 1.367 . S
C319 C327 1.433 . S
C320 H316 0.929 . S
C320 C322 1.378 . S
C320 C324 1.350 . S
C321 C324 1.463 . S
C321 C326 1.350 . S
C321 N329 1.427 . S
C322 H313 0.930 . S
C322 C320 1.378 . S
C322 C323 1.367 . S
C323 C322 1.367 . S
C323 C325 1.433 . S
C324 C320 1.350 . S
C324 C321 1.463 . S
C324 N328 1.427 . S
C325 H315 0.929 . S
C325 C323 1.433 . S
C325 N328 1.384 . S
C326 H317 0.929 . S
C326 C318 1.378 . S
C326 C321 1.350 . S
C327 H314 0.929 . S
C327 C319 1.433 . S
C327 N329 1.384 . S
N328 C324 1.427 . S
N328 C325 1.384 . S
N329 C321 1.427 . S
N329 C327 1.384 . S
H330 C336 0.930 . S
H331 C340 0.930 . S
H332 C345 0.929 . S
H333 C343 0.929 . S
H334 C338 0.929 . S
H335 C344 0.929 . S
C336 H330 0.930 . S
C336 C337 1.367 . S
C336 C344 1.378 . S
C337 C336 1.367 . S
C337 C345 1.433 . S
C338 H334 0.929 . S
C338 C340 1.378 . S
C338 C342 1.350 . S
C339 C342 1.463 . S
C339 C344 1.350 . S
C339 N347 1.427 . S
C340 H331 0.930 . S
C340 C338 1.378 . S
C340 C341 1.367 . S
C341 C340 1.367 . S
C341 C343 1.433 . S
C342 C338 1.350 . S
C342 C339 1.463 . S
C342 N346 1.427 . S
C343 H333 0.929 . S
C343 C341 1.433 . S
C343 N346 1.384 . S
C344 H335 0.929 . S
C344 C336 1.378 . S
C344 C339 1.350 . S
C345 H332 0.929 . S
C345 C337 1.433 . S
C345 N347 1.384 . S
N346 C342 1.427 . S
N346 C343 1.384 . S
N347 C339 1.427 . S
N347 C345 1.384 . S
H348 C354 0.930 . S
H349 C358 0.930 . S
H350 C363 0.929 . S
H351 C361 0.929 . S
H352 C356 0.929 . S
H353 C362 0.929 . S
C354 H348 0.930 . S
C354 C355 1.367 . S
C354 C362 1.378 . S
C355 C354 1.367 . S
C355 C363 1.433 . S
C356 H352 0.929 . S
C356 C358 1.378 . S
C356 C360 1.350 . S
C357 C360 1.463 . S
C357 C362 1.350 . S
C357 N365 1.427 . S
C358 H349 0.930 . S
C358 C356 1.378 . S
C358 C359 1.367 . S
C359 C358 1.367 . S
C359 C361 1.433 . S
C360 C356 1.350 . S
C360 C357 1.463 . S
C360 N364 1.427 . S
C361 H351 0.929 . S
C361 C359 1.433 . S
C361 N364 1.384 . S
C362 H353 0.929 . S
C362 C354 1.378 . S
C362 C357 1.350 . S
C363 H350 0.929 . S
C363 C355 1.433 . S
C363 N365 1.384 . S
N364 C360 1.427 . S
N364 C361 1.384 . S
N365 C357 1.427 . S
N365 C363 1.384 . S
H366 C372 0.930 . S
H367 C376 0.930 . S
H368 C381 0.929 . S
H369 C379 0.929 . S
H370 C374 0.929 . S
H371 C380 0.929 . S
C372 H366 0.930 . S
C372 C373 1.367 . S
C372 C380 1.378 . S
C373 C372 1.367 . S
C373 C381 1.433 . S
C374 H370 0.929 . S
C374 C376 1.378 . S
C374 C378 1.350 . S
C375 C378 1.463 . S
C375 C380 1.350 . S
C375 N383 1.427 . S
C376 H367 0.930 . S
C376 C374 1.378 . S
C376 C377 1.367 . S
C377 C376 1.367 . S
C377 C379 1.433 . S
C378 C374 1.350 . S
C378 C375 1.463 . S
C378 N382 1.427 . S
C379 H369 0.929 . S
C379 C377 1.433 . S
C379 N382 1.384 . S
C380 H371 0.929 . S
C380 C372 1.378 . S
C380 C375 1.350 . S
C381 H368 0.929 . S
C381 C373 1.433 . S
C381 N383 1.384 . S
N382 C378 1.427 . S
N382 C379 1.384 . S
N383 C375 1.427 . S
N383 C381 1.384 . S
H384 C390 0.930 . S
H385 C394 0.930 . S
H386 C399 0.929 . S
H387 C397 0.929 . S
H388 C392 0.929 . S
H389 C398 0.929 . S
C390 H384 0.930 . S
C390 C391 1.367 . S
C390 C398 1.378 . S
C391 C390 1.367 . S
C391 C399 1.433 . S
C392 H388 0.929 . S
C392 C394 1.378 . S
C392 C396 1.350 . S
C393 C396 1.463 1_556 S
C393 C398 1.350 . S
C393 N401 1.427 . S
C394 H385 0.930 . S
C394 C392 1.378 . S
C394 C395 1.367 . S
C395 C394 1.367 . S
C395 C397 1.433 . S
C396 C392 1.350 . S
C396 C393 1.463 1_554 S
C396 N400 1.427 . S
C397 H387 0.929 . S
C397 C395 1.433 . S
C397 N400 1.384 . S
C398 H389 0.929 . S
C398 C390 1.378 . S
C398 C393 1.350 . S
C399 H386 0.929 . S
C399 C391 1.433 . S
C399 N401 1.384 . S
N400 C396 1.427 . S
N400 C397 1.384 . S
N401 C393 1.427 . S
N401 C399 1.384 . S
H402 C408 0.930 . S
H403 C412 0.930 . S
H404 C417 0.929 . S
H405 C415 0.929 . S
H406 C410 0.929 . S
H407 C416 0.929 . S
C408 H402 0.930 . S
C408 C409 1.367 . S
C408 C416 1.378 . S
C409 C408 1.367 . S
C409 C417 1.433 . S
C410 H406 0.929 . S
C410 C412 1.378 . S
C410 C414 1.350 . S
C411 C414 1.463 . S
C411 C416 1.350 . S
C411 N419 1.427 . S
C412 H403 0.930 . S
C412 C410 1.378 . S
C412 C413 1.367 . S
C413 C412 1.367 . S
C413 C415 1.433 . S
C414 C410 1.350 . S
C414 C411 1.463 . S
C414 N418 1.427 . S
C415 H405 0.929 . S
C415 C413 1.433 . S
C415 N418 1.384 . S
C416 H407 0.929 . S
C416 C408 1.378 . S
C416 C411 1.350 . S
C417 H404 0.929 . S
C417 C409 1.433 . S
C417 N419 1.384 . S
N418 C414 1.427 . S
N418 C415 1.384 . S
N419 C411 1.427 . S
N419 C417 1.384 . S
H420 C426 0.930 . S
H421 C430 0.930 . S
H422 C435 0.929 . S
H423 C433 0.929 . S
H424 C428 0.929 . S
H425 C434 0.929 . S
C426 H420 0.930 . S
C426 C427 1.367 . S
C426 C434 1.378 . S
C427 C426 1.367 . S
C427 C435 1.433 . S
C428 H424 0.929 . S
C428 C430 1.378 . S
C428 C432 1.350 . S
C429 C432 1.463 . S
C429 C434 1.350 . S
C429 N437 1.427 . S
C430 H421 0.930 . S
C430 C428 1.378 . S
C430 C431 1.367 . S
C431 C430 1.367 . S
C431 C433 1.433 . S
C432 C428 1.350 . S
C432 C429 1.463 . S
C432 N436 1.427 . S
C433 H423 0.929 . S
C433 C431 1.433 . S
C433 N436 1.384 . S
C434 H425 0.929 . S
C434 C426 1.378 . S
C434 C429 1.350 . S
C435 H422 0.929 . S
C435 C427 1.433 . S
C435 N437 1.384 . S
N436 C432 1.427 . S
N436 C433 1.384 . S
N437 C429 1.427 . S
N437 C435 1.384 . S
H438 C444 0.930 . S
H439 C448 0.930 . S
H440 C453 0.929 . S
H441 C451 0.929 . S
H442 C446 0.929 . S
H443 C452 0.929 . S
C444 H438 0.930 . S
C444 C445 1.367 . S
C444 C452 1.378 . S
C445 C444 1.367 . S
C445 C453 1.433 . S
C446 H442 0.929 . S
C446 C448 1.378 . S
C446 C450 1.350 . S
C447 C450 1.463 1_556 S
C447 C452 1.350 . S
C447 N455 1.427 . S
C448 H439 0.930 . S
C448 C446 1.378 . S
C448 C449 1.367 . S
C449 C448 1.367 . S
C449 C451 1.433 . S
C450 C446 1.350 . S
C450 C447 1.463 1_554 S
C450 N454 1.427 . S
C451 H441 0.929 . S
C451 C449 1.433 . S
C451 N454 1.384 . S
C452 H443 0.929 . S
C452 C444 1.378 . S
C452 C447 1.350 . S
C453 H440 0.929 . S
C453 C445 1.433 . S
C453 N455 1.384 . S
N454 C450 1.427 . S
N454 C451 1.384 . S
N455 C447 1.427 . S
N455 C453 1.384 . S
H456 C462 0.930 . S
H457 C466 0.930 . S
H458 C471 0.929 . S
H459 C469 0.929 . S
H460 C464 0.929 . S
H461 C470 0.929 . S
C462 H456 0.930 . S
C462 C463 1.367 . S
C462 C470 1.378 . S
C463 C462 1.367 . S
C463 C471 1.433 . S
C464 H460 0.929 . S
C464 C466 1.378 . S
C464 C468 1.350 . S
C465 C468 1.463 . S
C465 C470 1.350 . S
C465 N473 1.427 . S
C466 H457 0.930 . S
C466 C464 1.378 . S
C466 C467 1.367 . S
C467 C466 1.367 . S
C467 C469 1.433 . S
C468 C464 1.350 . S
C468 C465 1.463 . S
C468 N472 1.427 . S
C469 H459 0.929 . S
C469 C467 1.433 . S
C469 N472 1.384 . S
C470 H461 0.929 . S
C470 C462 1.378 . S
C470 C465 1.350 . S
C471 H458 0.929 . S
C471 C463 1.433 . S
C471 N473 1.384 . S
N472 C468 1.427 . S
N472 C469 1.384 . S
N473 C465 1.427 . S
N473 C471 1.384 . S
H474 C480 0.930 . S
H475 C484 0.930 . S
H476 C489 0.929 . S
H477 C487 0.929 . S
H478 C482 0.929 . S
H479 C488 0.929 . S
C480 H474 0.930 . S
C480 C481 1.367 . S
C480 C488 1.378 . S
C481 C480 1.367 . S
C481 C489 1.433 . S
C482 H478 0.929 . S
C482 C484 1.378 . S
C482 C486 1.350 . S
C483 C486 1.463 . S
C483 C488 1.350 . S
C483 N491 1.427 . S
C484 H475 0.930 . S
C484 C482 1.378 . S
C484 C485 1.367 . S
C485 C484 1.367 . S
C485 C487 1.433 . S
C486 C482 1.350 . S
C486 C483 1.463 . S
C486 N490 1.427 . S
C487 H477 0.929 . S
C487 C485 1.433 . S
C487 N490 1.384 . S
C488 H479 0.929 . S
C488 C480 1.378 . S
C488 C483 1.350 . S
C489 H476 0.929 . S
C489 C481 1.433 . S
C489 N491 1.384 . S
N490 C486 1.427 . S
N490 C487 1.384 . S
N491 C483 1.427 . S
N491 C489 1.384 . S
H492 C498 0.930 . S
H493 C502 0.930 . S
H494 C507 0.929 . S
H495 C505 0.929 . S
H496 C500 0.929 1_556 S
H497 C506 0.929 1_554 S
C498 H492 0.930 . S
C498 C499 1.367 . S
C498 C506 1.378 . S
C499 C498 1.367 . S
C499 C507 1.433 . S
C500 H496 0.929 1_554 S
C500 C502 1.378 . S
C500 C504 1.350 . S
C501 C504 1.463 1_566 S
C501 C506 1.350 . S
C501 N509 1.435 . S
C502 H493 0.930 . S
C502 C500 1.378 . S
C502 C503 1.367 . S
C503 C502 1.367 . S
C503 C505 1.433 . S
C504 C500 1.350 . S
C504 C501 1.463 1_544 S
C504 N508 1.435 . S
C505 H495 0.929 . S
C505 C503 1.433 . S
C505 N508 1.390 . S
C506 H497 0.929 1_556 S
C506 C498 1.378 . S
C506 C501 1.350 . S
C507 H494 0.929 . S
C507 C499 1.433 . S
C507 N509 1.390 . S
N508 C504 1.435 . S
N508 C505 1.390 . S
N509 C501 1.435 . S
N509 C507 1.390 . S
H510 C516 0.930 . S
H511 C520 0.930 . S
H512 C525 0.929 . S
H513 C523 0.929 . S
H514 C518 0.929 . S
H515 C524 0.929 . S
C516 H510 0.930 . S
C516 C517 1.367 . S
C516 C524 1.378 . S
C517 C516 1.367 . S
C517 C525 1.433 . S
C518 H514 0.929 . S
C518 C520 1.378 . S
C518 C522 1.350 . S
C519 C522 1.463 . S
C519 C524 1.350 . S
C519 N527 1.427 . S
C520 H511 0.930 . S
C520 C518 1.378 . S
C520 C521 1.367 . S
C521 C520 1.367 . S
C521 C523 1.433 . S
C522 C518 1.350 . S
C522 C519 1.463 . S
C522 N526 1.427 . S
C523 H513 0.929 . S
C523 C521 1.433 . S
C523 N526 1.384 . S
C524 H515 0.929 . S
C524 C516 1.378 . S
C524 C519 1.350 . S
C525 H512 0.929 . S
C525 C517 1.433 . S
C525 N527 1.384 . S
N526 C522 1.427 . S
N526 C523 1.384 . S
N527 C519 1.427 . S
N527 C525 1.384 . S
H528 C534 0.930 . S
H529 C538 0.930 . S
H530 C543 0.929 . S
H531 C541 0.929 . S
H532 C536 0.929 . S
H533 C542 0.929 . S
C534 H528 0.930 . S
C534 C535 1.367 . S
C534 C542 1.378 . S
C535 C534 1.367 . S
C535 C543 1.433 . S
C536 H532 0.929 . S
C536 C538 1.378 . S
C536 C540 1.350 . S
C537 C540 1.463 1_455 S
C537 C542 1.350 . S
C537 N545 1.427 1_455 S
C538 H529 0.930 . S
C538 C536 1.378 . S
C538 C539 1.367 . S
C539 C538 1.367 . S
C539 C541 1.433 . S
C540 C536 1.350 . S
C540 C537 1.463 1_655 S
C540 N544 1.427 1_655 S
C541 H531 0.929 . S
C541 C539 1.433 . S
C541 N544 1.384 1_655 S
C542 H533 0.929 . S
C542 C534 1.378 . S
C542 C537 1.350 . S
C543 H530 0.929 . S
C543 C535 1.433 . S
C543 N545 1.384 1_455 S
N544 C540 1.427 1_455 S
N544 C541 1.384 1_455 S
N545 C537 1.427 1_655 S
N545 C543 1.384 1_655 S
H546 C552 0.930 . S
H547 C556 0.930 . S
H548 C561 0.929 . S
H549 C559 0.929 . S
H550 C554 0.939 . S
H551 C560 0.940 . S
C552 H546 0.930 . S
C552 C553 1.367 . S
C552 C560 1.378 . S
C553 C552 1.367 . S
C553 C561 1.433 . S
C554 H550 0.939 . S
C554 C556 1.378 . S
C554 C558 1.350 . S
C555 C558 1.463 1_564 S
C555 C560 1.350 . S
C555 N563 1.425 . S
C556 H547 0.930 . S
C556 C554 1.378 . S
C556 C557 1.367 . S
C557 C556 1.367 . S
C557 C559 1.433 . S
C558 C554 1.350 . S
C558 C555 1.463 1_546 S
C558 N562 1.425 . S
C559 H549 0.929 . S
C559 C557 1.433 . S
C559 N562 1.400 . S
C560 H551 0.940 . S
C560 C552 1.378 . S
C560 C555 1.350 . S
C561 H548 0.929 . S
C561 C553 1.433 . S
C561 N563 1.400 . S
N562 C558 1.425 . S
N562 C559 1.400 . S
N563 C555 1.425 . S
N563 C561 1.400 . S
H564 C570 0.930 . S
H565 C574 0.930 . S
H566 C579 0.929 . S
H567 C577 0.929 . S
H568 C572 0.929 . S
H569 C578 0.929 . S
C570 H564 0.930 . S
C570 C571 1.367 . S
C570 C578 1.378 . S
C571 C570 1.367 . S
C571 C579 1.433 . S
C572 H568 0.929 . S
C572 C574 1.378 . S
C572 C576 1.350 . S
C573 C576 1.463 . S
C573 C578 1.350 . S
C573 N581 1.427 . S
C574 H565 0.930 . S
C574 C572 1.378 . S
C574 C575 1.367 . S
C575 C574 1.367 . S
C575 C577 1.433 . S
C576 C572 1.350 . S
C576 C573 1.463 . S
C576 N580 1.427 . S
C577 H567 0.929 . S
C577 C575 1.433 . S
C577 N580 1.384 . S
C578 H569 0.929 . S
C578 C570 1.378 . S
C578 C573 1.350 . S
C579 H566 0.929 . S
C579 C571 1.433 . S
C579 N581 1.384 . S
N580 C576 1.427 . S
N580 C577 1.384 . S
N581 C573 1.427 . S
N581 C579 1.384 . S
H582 C588 0.930 . S
H583 C592 0.930 . S
H584 C597 0.929 . S
H585 C595 0.929 . S
H586 C590 0.929 . S
H587 C596 0.929 . S
C588 H582 0.930 . S
C588 C589 1.367 . S
C588 C596 1.378 . S
C589 C588 1.367 . S
C589 C597 1.433 . S
C590 H586 0.929 . S
C590 C592 1.378 . S
C590 C594 1.350 . S
C591 C594 1.463 1_455 S
C591 C596 1.350 . S
C591 N599 1.427 1_455 S
C592 H583 0.930 . S
C592 C590 1.378 . S
C592 C593 1.367 . S
C593 C592 1.367 . S
C593 C595 1.433 . S
C594 C590 1.350 . S
C594 C591 1.463 1_655 S
C594 N598 1.427 1_655 S
C595 H585 0.929 . S
C595 C593 1.433 . S
C595 N598 1.384 1_655 S
C596 H587 0.929 . S
C596 C588 1.378 . S
C596 C591 1.350 . S
C597 H584 0.929 . S
C597 C589 1.433 . S
C597 N599 1.384 1_455 S
N598 C594 1.427 1_455 S
N598 C595 1.384 1_455 S
N599 C591 1.427 1_655 S
N599 C597 1.384 1_655 S
H600 C606 0.930 . S
H601 C610 0.930 . S
H602 C615 0.929 . S
H603 C613 0.929 . S
H604 C608 0.929 . S
H605 C614 0.929 . S
C606 H600 0.930 . S
C606 C607 1.367 . S
C606 C614 1.378 . S
C607 C606 1.367 . S
C607 C615 1.433 . S
C608 H604 0.929 . S
C608 C610 1.378 . S
C608 C612 1.350 . S
C609 C612 1.463 1_545 S
C609 C614 1.350 . S
C609 N617 1.427 . S
C610 H601 0.930 . S
C610 C608 1.378 . S
C610 C611 1.367 . S
C611 C610 1.367 . S
C611 C613 1.433 . S
C612 C608 1.350 . S
C612 C609 1.463 1_565 S
C612 N616 1.427 . S
C613 H603 0.929 . S
C613 C611 1.433 . S
C613 N616 1.384 . S
C614 H605 0.929 . S
C614 C606 1.378 . S
C614 C609 1.350 . S
C615 H602 0.929 . S
C615 C607 1.433 . S
C615 N617 1.384 . S
N616 C612 1.427 . S
N616 C613 1.384 . S
N617 C609 1.427 . S
N617 C615 1.384 . S
H618 C624 0.930 . S
H619 C628 0.930 . S
H620 C633 0.929 . S
H621 C631 0.929 . S
H622 C626 0.929 . S
H623 C632 0.929 . S
C624 H618 0.930 . S
C624 C625 1.367 . S
C624 C632 1.378 . S
C625 C624 1.367 . S
C625 C633 1.433 . S
C626 H622 0.929 . S
C626 C628 1.378 . S
C626 C630 1.350 . S
C627 C630 1.463 . S
C627 C632 1.350 . S
C627 N635 1.427 . S
C628 H619 0.930 . S
C628 C626 1.378 . S
C628 C629 1.367 . S
C629 C628 1.367 . S
C629 C631 1.433 . S
C630 C626 1.350 . S
C630 C627 1.463 . S
C630 N634 1.427 . S
C631 H621 0.929 . S
C631 C629 1.433 . S
C631 N634 1.384 . S
C632 H623 0.929 . S
C632 C624 1.378 . S
C632 C627 1.350 . S
C633 H620 0.929 . S
C633 C625 1.433 . S
C633 N635 1.384 . S
N634 C630 1.427 . S
N634 C631 1.384 . S
N635 C627 1.427 . S
N635 C633 1.384 . S
H636 C642 0.930 . S
H637 C646 0.930 . S
H638 C651 0.929 . S
H639 C649 0.929 . S
H640 C644 0.929 . S
H641 C650 0.929 . S
C642 H636 0.930 . S
C642 C643 1.367 . S
C642 C650 1.378 . S
C643 C642 1.367 . S
C643 C651 1.433 . S
C644 H640 0.929 . S
C644 C646 1.378 . S
C644 C648 1.350 . S
C645 C648 1.463 1_655 S
C645 C650 1.350 . S
C645 N653 1.427 . S
C646 H637 0.930 . S
C646 C644 1.378 . S
C646 C647 1.367 . S
C647 C646 1.367 . S
C647 C649 1.433 . S
C648 C644 1.350 . S
C648 C645 1.463 1_455 S
C648 N652 1.427 . S
C649 H639 0.929 . S
C649 C647 1.433 . S
C649 N652 1.384 . S
C650 H641 0.929 . S
C650 C642 1.378 . S
C650 C645 1.350 . S
C651 H638 0.929 . S
C651 C643 1.433 . S
C651 N653 1.384 . S
N652 C648 1.427 . S
N652 C649 1.384 . S
N653 C645 1.427 . S
N653 C651 1.384 . S
H654 C660 0.930 . S
H655 C664 0.930 . S
H656 C669 0.929 . S
H657 C667 0.929 . S
H658 C662 0.929 1_455 S
H659 C668 0.929 1_655 S
C660 H654 0.930 . S
C660 C661 1.367 . S
C660 C668 1.378 . S
C661 C660 1.367 . S
C661 C669 1.433 . S
C662 H658 0.929 1_655 S
C662 C664 1.378 . S
C662 C666 1.350 . S
C663 C666 1.463 1_455 S
C663 C668 1.350 . S
C663 N671 1.427 . S
C664 H655 0.930 . S
C664 C662 1.378 . S
C664 C665 1.367 . S
C665 C664 1.367 . S
C665 C667 1.433 . S
C666 C662 1.350 . S
C666 C663 1.463 1_655 S
C666 N670 1.427 . S
C667 H657 0.929 . S
C667 C665 1.433 . S
C667 N670 1.384 . S
C668 H659 0.929 1_455 S
C668 C660 1.378 . S
C668 C663 1.350 . S
C669 H656 0.929 . S
C669 C661 1.433 . S
C669 N671 1.384 . S
N670 C666 1.427 . S
N670 C667 1.384 . S
N671 C663 1.427 . S
N671 C669 1.384 . S
H672 C678 0.930 . S
H673 C682 0.930 . S
H674 C687 0.929 . S
H675 C685 0.929 . S
H676 C680 0.929 1_565 S
H677 C686 0.929 1_545 S
C678 H672 0.930 . S
C678 C679 1.367 . S
C678 C686 1.378 . S
C679 C678 1.367 . S
C679 C687 1.433 . S
C680 H676 0.929 1_545 S
C680 C682 1.378 . S
C680 C684 1.350 . S
C681 C684 1.463 1_565 S
C681 C686 1.350 . S
C681 N689 1.427 . S
C682 H673 0.930 . S
C682 C680 1.378 . S
C682 C683 1.367 . S
C683 C682 1.367 . S
C683 C685 1.433 . S
C684 C680 1.350 . S
C684 C681 1.463 1_545 S
C684 N688 1.427 . S
C685 H675 0.929 . S
C685 C683 1.433 . S
C685 N688 1.384 . S
C686 H677 0.929 1_565 S
C686 C678 1.378 . S
C686 C681 1.350 . S
C687 H674 0.929 . S
C687 C679 1.433 . S
C687 N689 1.384 . S
N688 C684 1.427 . S
N688 C685 1.384 . S
N689 C681 1.427 . S
N689 C687 1.384 . S
H690 C696 0.930 . S
H691 C700 0.930 . S
H692 C705 0.929 . S
H693 C703 0.929 . S
H694 C698 0.929 . S
H695 C704 0.929 . S
C696 H690 0.930 . S
C696 C697 1.367 . S
C696 C704 1.378 . S
C697 C696 1.367 . S
C697 C705 1.433 . S
C698 H694 0.929 . S
C698 C700 1.378 . S
C698 C702 1.350 . S
C699 C702 1.463 . S
C699 C704 1.350 . S
C699 N707 1.427 . S
C700 H691 0.930 . S
C700 C698 1.378 . S
C700 C701 1.367 . S
C701 C700 1.367 . S
C701 C703 1.433 . S
C702 C698 1.350 . S
C702 C699 1.463 . S
C702 N706 1.427 . S
C703 H693 0.929 . S
C703 C701 1.433 . S
C703 N706 1.384 . S
C704 H695 0.929 . S
C704 C696 1.378 . S
C704 C699 1.350 . S
C705 H692 0.929 . S
C705 C697 1.433 . S
C705 N707 1.384 . S
N706 C702 1.427 . S
N706 C703 1.384 . S
N707 C699 1.427 . S
N707 C705 1.384 . S
H708 C714 0.930 . S
H709 C718 0.930 . S
H710 C723 0.929 . S
H711 C721 0.929 . S
H712 C716 0.905 1_565 S
H713 C722 0.906 1_545 S
C714 H708 0.930 . S
C714 C715 1.367 . S
C714 C722 1.390 . S
C715 C714 1.367 . S
C715 C723 1.433 . S
C716 H712 0.905 1_545 S
C716 C718 1.391 . S
C716 C720 1.361 . S
C717 C720 1.463 1_565 S
C717 C722 1.360 . S
C717 N725 1.427 . S
C718 H709 0.930 . S
C718 C716 1.391 . S
C718 C719 1.367 . S
C719 C718 1.367 . S
C719 C721 1.433 . S
C720 C716 1.361 . S
C720 C717 1.463 1_545 S
C720 N724 1.427 . S
C721 H711 0.929 . S
C721 C719 1.433 . S
C721 N724 1.384 . S
C722 H713 0.906 1_565 S
C722 C714 1.390 . S
C722 C717 1.360 . S
C723 H710 0.929 . S
C723 C715 1.433 . S
C723 N725 1.384 . S
N724 C720 1.427 . S
N724 C721 1.384 . S
N725 C717 1.427 . S
N725 C723 1.384 . S
H726 C732 0.930 . S
H727 C736 0.930 . S
H728 C741 0.929 . S
H729 C739 0.929 . S
H730 C734 0.929 . S
H731 C740 0.929 . S
C732 H726 0.930 . S
C732 C733 1.367 . S
C732 C740 1.378 . S
C733 C732 1.367 . S
C733 C741 1.433 . S
C734 H730 0.929 . S
C734 C736 1.378 . S
C734 C738 1.350 . S
C735 C738 1.463 . S
C735 C740 1.350 . S
C735 N743 1.427 . S
C736 H727 0.930 . S
C736 C734 1.378 . S
C736 C737 1.367 . S
C737 C736 1.367 . S
C737 C739 1.433 . S
C738 C734 1.350 . S
C738 C735 1.463 . S
C738 N742 1.427 . S
C739 H729 0.929 . S
C739 C737 1.433 . S
C739 N742 1.384 . S
C740 H731 0.929 . S
C740 C732 1.378 . S
C740 C735 1.350 . S
C741 H728 0.929 . S
C741 C733 1.433 . S
C741 N743 1.384 . S
N742 C738 1.427 . S
N742 C739 1.384 . S
N743 C735 1.427 . S
N743 C741 1.384 . S
H744 C750 0.930 . S
H745 C754 0.930 . S
H746 C759 0.929 . S
H747 C757 0.929 . S
H748 C752 0.929 1_655 S
H749 C758 0.929 1_455 S
C750 H744 0.930 . S
C750 C751 1.367 . S
C750 C758 1.378 . S
C751 C750 1.367 . S
C751 C759 1.433 . S
C752 H748 0.929 1_455 S
C752 C754 1.378 . S
C752 C756 1.350 . S
C753 C756 1.463 1_655 S
C753 C758 1.350 . S
C753 N761 1.427 . S
C754 H745 0.930 . S
C754 C752 1.378 . S
C754 C755 1.367 . S
C755 C754 1.367 . S
C755 C757 1.433 . S
C756 C752 1.350 . S
C756 C753 1.463 1_455 S
C756 N760 1.427 . S
C757 H747 0.929 . S
C757 C755 1.433 . S
C757 N760 1.384 . S
C758 H749 0.929 1_655 S
C758 C750 1.378 . S
C758 C753 1.350 . S
C759 H746 0.929 . S
C759 C751 1.433 . S
C759 N761 1.384 . S
N760 C756 1.427 . S
N760 C757 1.384 . S
N761 C753 1.427 . S
N761 C759 1.384 . S
H762 C768 0.930 . S
H763 C772 0.930 . S
H764 C777 0.929 . S
H765 C775 0.929 . S
H766 C770 0.929 . S
H767 C776 0.929 . S
C768 H762 0.930 . S
C768 C769 1.367 . S
C768 C776 1.378 . S
C769 C768 1.367 . S
C769 C777 1.433 . S
C770 H766 0.929 . S
C770 C772 1.378 . S
C770 C774 1.350 . S
C771 C774 1.463 1_545 S
C771 C776 1.350 . S
C771 N779 1.427 1_545 S
C772 H763 0.930 . S
C772 C770 1.378 . S
C772 C773 1.367 . S
C773 C772 1.367 . S
C773 C775 1.433 . S
C774 C770 1.350 . S
C774 C771 1.463 1_565 S
C774 N778 1.427 1_565 S
C775 H765 0.929 . S
C775 C773 1.433 . S
C775 N778 1.384 1_565 S
C776 H767 0.929 . S
C776 C768 1.378 . S
C776 C771 1.350 . S
C777 H764 0.929 . S
C777 C769 1.433 . S
C777 N779 1.384 1_545 S
N778 C774 1.427 1_545 S
N778 C775 1.384 1_545 S
N779 C771 1.427 1_565 S
N779 C777 1.384 1_565 S
H780 C786 0.930 . S
H781 C790 0.930 . S
H782 C795 0.929 . S
H783 C793 0.929 . S
H784 C788 0.929 . S
H785 C794 0.929 . S
C786 H780 0.930 . S
C786 C787 1.367 . S
C786 C794 1.378 . S
C787 C786 1.367 . S
C787 C795 1.433 . S
C788 H784 0.929 . S
C788 C790 1.378 . S
C788 C792 1.350 . S
C789 C792 1.463 . S
C789 C794 1.350 . S
C789 N797 1.427 . S
C790 H781 0.930 . S
C790 C788 1.378 . S
C790 C791 1.367 . S
C791 C790 1.367 . S
C791 C793 1.433 . S
C792 C788 1.350 . S
C792 C789 1.463 . S
C792 N796 1.427 . S
C793 H783 0.929 . S
C793 C791 1.433 . S
C793 N796 1.384 . S
C794 H785 0.929 . S
C794 C786 1.378 . S
C794 C789 1.350 . S
C795 H782 0.929 . S
C795 C787 1.433 . S
C795 N797 1.384 . S
N796 C792 1.427 . S
N796 C793 1.384 . S
N797 C789 1.427 . S
N797 C795 1.384 . S
H798 C804 0.930 . S
H799 C808 0.930 . S
H800 C813 0.929 . S
H801 C811 0.929 . S
H802 C806 0.929 . S
H803 C812 0.929 . S
C804 H798 0.930 . S
C804 C805 1.367 . S
C804 C812 1.378 . S
C805 C804 1.367 . S
C805 C813 1.433 . S
C806 H802 0.929 . S
C806 C808 1.378 . S
C806 C810 1.350 . S
C807 C810 1.463 1_455 S
C807 C812 1.350 . S
C807 N815 1.427 . S
C808 H799 0.930 . S
C808 C806 1.378 . S
C808 C809 1.367 . S
C809 C808 1.367 . S
C809 C811 1.433 . S
C810 C806 1.350 . S
C810 C807 1.463 1_655 S
C810 N814 1.427 . S
C811 H801 0.929 . S
C811 C809 1.433 . S
C811 N814 1.384 . S
C812 H803 0.929 . S
C812 C804 1.378 . S
C812 C807 1.350 . S
C813 H800 0.929 . S
C813 C805 1.433 . S
C813 N815 1.384 . S
N814 C810 1.427 . S
N814 C811 1.384 . S
N815 C807 1.427 . S
N815 C813 1.384 . S
H816 C822 0.930 . S
H817 C826 0.930 . S
H818 C831 0.929 . S
H819 C829 0.929 . S
H820 C824 0.929 . S
H821 C830 0.929 . S
C822 H816 0.930 . S
C822 C823 1.367 . S
C822 C830 1.378 . S
C823 C822 1.367 . S
C823 C831 1.433 . S
C824 H820 0.929 . S
C824 C826 1.378 . S
C824 C828 1.350 . S
C825 C828 1.463 . S
C825 C830 1.350 . S
C825 N833 1.427 . S
C826 H817 0.930 . S
C826 C824 1.378 . S
C826 C827 1.367 . S
C827 C826 1.367 . S
C827 C829 1.433 . S
C828 C824 1.350 . S
C828 C825 1.463 . S
C828 N832 1.427 . S
C829 H819 0.929 . S
C829 C827 1.433 . S
C829 N832 1.384 . S
C830 H821 0.929 . S
C830 C822 1.378 . S
C830 C825 1.350 . S
C831 H818 0.929 . S
C831 C823 1.433 . S
C831 N833 1.384 . S
N832 C828 1.427 . S
N832 C829 1.384 . S
N833 C825 1.427 . S
N833 C831 1.384 . S
H834 C840 0.930 . S
H835 C844 0.930 . S
H836 C849 0.929 . S
H837 C847 0.929 . S
H838 C842 0.929 . S
H839 C848 0.929 . S
C840 H834 0.930 . S
C840 C841 1.367 . S
C840 C848 1.378 . S
C841 C840 1.367 . S
C841 C849 1.433 . S
C842 H838 0.929 . S
C842 C844 1.378 . S
C842 C846 1.350 . S
C843 C846 1.463 . S
C843 C848 1.350 . S
C843 N851 1.427 . S
C844 H835 0.930 . S
C844 C842 1.378 . S
C844 C845 1.367 . S
C845 C844 1.367 . S
C845 C847 1.433 . S
C846 C842 1.350 . S
C846 C843 1.463 . S
C846 N850 1.427 . S
C847 H837 0.929 . S
C847 C845 1.433 . S
C847 N850 1.384 . S
C848 H839 0.929 . S
C848 C840 1.378 . S
C848 C843 1.350 . S
C849 H836 0.929 . S
C849 C841 1.433 . S
C849 N851 1.384 . S
N850 C846 1.427 . S
N850 C847 1.384 . S
N851 C843 1.427 . S
N851 C849 1.384 . S
H852 C858 0.930 . S
H853 C862 0.930 . S
H854 C867 0.929 . S
H855 C865 0.929 . S
H856 C860 0.929 . S
H857 C866 0.929 . S
C858 H852 0.930 . S
C858 C859 1.367 . S
C858 C866 1.378 . S
C859 C858 1.367 . S
C859 C867 1.433 . S
C860 H856 0.929 . S
C860 C862 1.378 . S
C860 C864 1.350 . S
C861 C864 1.463 . S
C861 C866 1.350 . S
C861 N869 1.427 . S
C862 H853 0.930 . S
C862 C860 1.378 . S
C862 C863 1.367 . S
C863 C862 1.367 . S
C863 C865 1.433 . S
C864 C860 1.350 . S
C864 C861 1.463 . S
C864 N868 1.427 . S
C865 H855 0.929 . S
C865 C863 1.433 . S
C865 N868 1.384 . S
C866 H857 0.929 . S
C866 C858 1.378 . S
C866 C861 1.350 . S
C867 H854 0.929 . S
C867 C859 1.433 . S
C867 N869 1.384 . S
N868 C864 1.427 . S
N868 C865 1.384 . S
N869 C861 1.427 . S
N869 C867 1.384 . S
H870 C876 0.930 . S
H871 C880 0.930 . S
H872 C885 0.929 . S
H873 C883 0.929 . S
H874 C878 0.929 . S
H875 C884 0.929 . S
C876 H870 0.930 . S
C876 C877 1.367 . S
C876 C884 1.378 . S
C877 C876 1.367 . S
C877 C885 1.433 . S
C878 H874 0.929 . S
C878 C880 1.378 . S
C878 C882 1.350 . S
C879 C882 1.463 . S
C879 C884 1.350 . S
C879 N887 1.427 . S
C880 H871 0.930 . S
C880 C878 1.378 . S
C880 C881 1.367 . S
C881 C880 1.367 . S
C881 C883 1.433 . S
C882 C878 1.350 . S
C882 C879 1.463 . S
C882 N886 1.427 . S
C883 H873 0.929 . S
C883 C881 1.433 . S
C883 N886 1.384 . S
C884 H875 0.929 . S
C884 C876 1.378 . S
C884 C879 1.350 . S
C885 H872 0.929 . S
C885 C877 1.433 . S
C885 N887 1.384 . S
N886 C882 1.427 . S
N886 C883 1.384 . S
N887 C879 1.427 . S
N887 C885 1.384 . S
H888 C894 0.930 . S
H889 C898 0.930 . S
H890 C903 0.929 . S
H891 C901 0.929 . S
H892 C896 0.929 . S
H893 C902 0.929 . S
C894 H888 0.930 . S
C894 C895 1.367 . S
C894 C902 1.378 . S
C895 C894 1.367 . S
C895 C903 1.433 . S
C896 H892 0.929 . S
C896 C898 1.378 . S
C896 C900 1.350 . S
C897 C900 1.463 . S
C897 C902 1.350 . S
C897 N905 1.427 . S
C898 H889 0.930 . S
C898 C896 1.378 . S
C898 C899 1.367 . S
C899 C898 1.367 . S
C899 C901 1.433 . S
C900 C896 1.350 . S
C900 C897 1.463 . S
C900 N904 1.427 . S
C901 H891 0.929 . S
C901 C899 1.433 . S
C901 N904 1.384 . S
C902 H893 0.929 . S
C902 C894 1.378 . S
C902 C897 1.350 . S
C903 H890 0.929 . S
C903 C895 1.433 . S
C903 N905 1.384 . S
N904 C900 1.427 . S
N904 C901 1.384 . S
N905 C897 1.427 . S
N905 C903 1.384 . S
H906 C912 0.930 . S
H907 C916 0.930 . S
H908 C921 0.929 . S
H909 C919 0.929 . S
H910 C914 0.929 . S
H911 C920 0.929 . S
C912 H906 0.930 . S
C912 C913 1.367 . S
C912 C920 1.378 . S
C913 C912 1.367 . S
C913 C921 1.433 . S
C914 H910 0.929 . S
C914 C916 1.378 . S
C914 C918 1.350 . S
C915 C918 1.463 . S
C915 C920 1.350 . S
C915 N923 1.427 . S
C916 H907 0.930 . S
C916 C914 1.378 . S
C916 C917 1.367 . S
C917 C916 1.367 . S
C917 C919 1.433 . S
C918 C914 1.350 . S
C918 C915 1.463 . S
C918 N922 1.427 . S
C919 H909 0.929 . S
C919 C917 1.433 . S
C919 N922 1.384 . S
C920 H911 0.929 . S
C920 C912 1.378 . S
C920 C915 1.350 . S
C921 H908 0.929 . S
C921 C913 1.433 . S
C921 N923 1.384 . S
N922 C918 1.427 . S
N922 C919 1.384 . S
N923 C915 1.427 . S
N923 C921 1.384 . S
C283 C20 0.804 . S
C287 C204 0.808 . S
C301 C43 0.815 . S
C305 C227 0.814 . S
C319 C66 0.805 . S
C323 C250 0.807 . S
C337 C273 0.803 . S
C341 C89 0.810 . S
C355 C112 0.811 . S
C359 C158 0.816 . S
C373 C181 0.816 . S
C377 C135 0.812 . S
C391 C247 1.063 . S
C395 C17 1.077 . S
C409 C270 1.068 . S
C413 C40 1.069 . S
C427 C63 1.063 . S
C431 C155 1.077 . S
C445 C178 1.063 . S
C449 C86 1.077 . S
C463 C201 1.075 . S
C467 C109 1.063 . S
C481 C132 1.077 . S
C485 C224 1.063 . S
C499 C182 1.321 . S
C503 C21 1.339 . S
C517 C205 1.339 . S
C521 C44 1.320 . S
C535 C228 1.334 . S
C539 C67 1.324 . S
C553 C90 1.321 . S
C557 C251 1.339 . S
C571 C113 1.345 . S
C575 C274 1.320 . S
C589 C136 1.336 . S
C593 C159 1.322 . S
C607 C19 0.372 . S
C611 C88 0.386 . S
C625 C42 0.345 . S
C629 C111 0.380 . S
C643 C65 0.390 . S
C647 C134 0.366 . S
C661 C226 0.377 . S
C665 C157 0.345 . S
C679 C180 0.379 . S
C683 C249 0.345 . S
C697 C272 0.344 . S
C701 C203 0.382 . S
C715 C177 1.483 . S
C719 C16 1.476 . S
C733 C200 1.488 . S
C737 C39 1.472 . S
C751 C62 1.486 . S
C755 C223 1.473 . S
C769 C246 1.484 . S
C773 C85 1.482 . S
C787 C269 1.476 . S
C791 C108 1.482 . S
C805 C131 1.488 . S
C809 C154 1.473 . S
C823 C18 1.557 . S
C827 C248 1.557 . S
C841 C41 1.558 . S
C845 C271 1.558 . S
C859 C64 1.566 . S
C863 C156 1.566 . S
C877 C87 1.564 . S
C881 C179 1.563 . S
C895 C110 1.561 . S
C899 C202 1.562 . S
C913 C225 1.564 . S
C917 C133 1.565 . S
