# Generated by pormake.
# Topology noy, (5)-cn, num edge types: 1
# Building blocks:
#     Node 0, Type 0, BuildingBlock: XOMCOT_clean_sbu_0, # of connection points: 5
#     Node 1, Type 0, BuildingBlock: XOMCOT_clean_sbu_0, # of connection points: 5
#     Node 2, Type 0, BuildingBlock: XOMCOT_clean_sbu_0, # of connection points: 5
#     Node 3, Type 0, BuildingBlock: XOMCOT_clean_sbu_0, # of connection points: 5
#     Node 4, Type 0, BuildingBlock: XOMCOT_clean_sbu_0, # of connection points: 5
#     Node 5, Type 0, BuildingBlock: XOMCOT_clean_sbu_0, # of connection points: 5
#     Node 6, Type 0, BuildingBlock: XOMCOT_clean_sbu_0, # of connection points: 5
#     Node 7, Type 0, BuildingBlock: XOMCOT_clean_sbu_0, # of connection points: 5
#     Edge 8, Type (0, 0), BuildingBlock: CIFDUS_clean_linker_0, # of connection points: 2
#     Edge 9, Type (0, 0), BuildingBlock: CIFDUS_clean_linker_0, # of connection points: 2
#     Edge 10, Type (0, 0), BuildingBlock: CIFDUS_clean_linker_0, # of connection points: 2
#     Edge 11, Type (0, 0), BuildingBlock: CIFDUS_clean_linker_0, # of connection points: 2
#     Edge 12, Type (0, 0), BuildingBlock: CIFDUS_clean_linker_0, # of connection points: 2
#     Edge 13, Type (0, 0), BuildingBlock: CIFDUS_clean_linker_0, # of connection points: 2
#     Edge 14, Type (0, 0), BuildingBlock: CIFDUS_clean_linker_0, # of connection points: 2
#     Edge 15, Type (0, 0), BuildingBlock: CIFDUS_clean_linker_0, # of connection points: 2
#     Edge 16, Type (0, 0), BuildingBlock: CIFDUS_clean_linker_0, # of connection points: 2
#     Edge 17, Type (0, 0), BuildingBlock: CIFDUS_clean_linker_0, # of connection points: 2
#     Edge 18, Type (0, 0), BuildingBlock: CIFDUS_clean_linker_0, # of connection points: 2
#     Edge 19, Type (0, 0), BuildingBlock: CIFDUS_clean_linker_0, # of connection points: 2
#     Edge 20, Type (0, 0), BuildingBlock: CIFDUS_clean_linker_0, # of connection points: 2
#     Edge 21, Type (0, 0), BuildingBlock: CIFDUS_clean_linker_0, # of connection points: 2
#     Edge 22, Type (0, 0), BuildingBlock: CIFDUS_clean_linker_0, # of connection points: 2
#     Edge 23, Type (0, 0), BuildingBlock: CIFDUS_clean_linker_0, # of connection points: 2
#     Edge 24, Type (0, 0), BuildingBlock: CIFDUS_clean_linker_0, # of connection points: 2
#     Edge 25, Type (0, 0), BuildingBlock: CIFDUS_clean_linker_0, # of connection points: 2
#     Edge 26, Type (0, 0), BuildingBlock: CIFDUS_clean_linker_0, # of connection points: 2
#     Edge 27, Type (0, 0), BuildingBlock: CIFDUS_clean_linker_0, # of connection points: 2
# Relax obj value: 0.205
# Max RMSD: 0.215
# Mean RMSD: 0.215
data_MOF--net-noy--node1-XOMCOT_clean_sbu_0--edge1-CIFDUS_clean_linker_0
_symmetry_space_group_name_H-M    P1
_symmetry_Int_Tables_number       1
_symmetry_cell_setting            triclinic
loop_
_symmetry_equiv_pos_as_xyz
'x, y, z'
_cell_length_a     43.687827
_cell_length_b     41.93874
_cell_length_c     17.806538
_cell_angle_alpha  90.202246
_cell_angle_beta   90.443907
_cell_angle_gamma 89.849618
loop_
_atom_site_label
_atom_site_type_symbol
_atom_site_fract_x
_atom_site_fract_y
_atom_site_fract_z
_atom_type_partial_charge
Co0 Co 0.31889 0.39448 0.34977 0.0
C1 C 0.32999 0.44311 0.22582 0.0
C2 C 0.28582 0.42107 0.22285 0.0
C3 C 0.28735 0.4422 0.16451 0.0
N4 N 0.31275 0.42074 0.26047 0.0
N5 N 0.31507 0.45607 0.16621 0.0
H6 H 0.35249 0.4505 0.24368 0.0
H7 H 0.26603 0.40705 0.23769 0.0
C8 C 0.30058 0.34811 0.23106 0.0
O9 O 0.32066 0.36216 0.18773 0.0
N10 N 0.3225 0.36826 0.43846 0.0
C11 C 0.34724 0.36184 0.48164 0.0
C12 C 0.33862 0.34106 0.53777 0.0
C13 C 0.29927 0.35196 0.46933 0.0
N14 N 0.30843 0.33511 0.52987 0.0
C15 C 0.38238 0.40062 0.31771 0.0
C16 C 0.39567 0.33656 0.30082 0.0
C17 C 0.41969 0.35863 0.30215 0.0
C18 C 0.41268 0.39097 0.30987 0.0
C19 C 0.36546 0.34724 0.3101 0.0
N20 N 0.35896 0.37911 0.31699 0.0
H21 H 0.37821 0.4254 0.32947 0.0
H22 H 0.34766 0.32965 0.3162 0.0
H23 H 0.36988 0.37143 0.4729 0.0
H24 H 0.2761 0.35219 0.44728 0.0
O25 O 0.33324 0.43044 0.40592 0.0
O26 O 0.28438 0.41694 0.39618 0.0
O27 O 0.29668 0.35807 0.2983 0.0
C28 C 0.30513 0.43603 0.42409 0.0
H29 H 0.26901 0.44791 0.12552 0.0
H30 H 0.35323 0.33154 0.5817 0.0
H31 H 0.40033 0.31125 0.29643 0.0
H32 H 0.43063 0.40875 0.3117 0.0
Co33 Co 0.70372 0.63777 0.84556 0.0
C34 C 0.68996 0.59568 0.71248 0.0
C35 C 0.73121 0.62302 0.70096 0.0
C36 C 0.72666 0.60587 0.63615 0.0
N37 N 0.7081 0.61709 0.74857 0.0
N38 N 0.70084 0.58874 0.64321 0.0
H39 H 0.66921 0.58584 0.73567 0.0
H40 H 0.75025 0.63876 0.71242 0.0
C41 C 0.71991 0.70584 0.80971 0.0
O42 O 0.6958 0.71586 0.84672 0.0
N43 N 0.7013 0.65934 0.94303 0.0
C44 C 0.67755 0.66378 0.99019 0.0
C45 C 0.68703 0.68236 0.04995 0.0
C46 C 0.72505 0.67468 0.97654 0.0
N47 N 0.71688 0.68924 0.04128 0.0
C48 C 0.63843 0.64021 0.84802 0.0
C49 C 0.62919 0.68196 0.73065 0.0
C50 C 0.60363 0.67065 0.76988 0.0
C51 C 0.60872 0.64904 0.82832 0.0
C52 C 0.65883 0.67251 0.75274 0.0
N53 N 0.66327 0.65328 0.81386 0.0
H54 H 0.64123 0.62237 0.89094 0.0
H55 H 0.67801 0.6802 0.71958 0.0
H56 H 0.65477 0.65459 0.98339 0.0
H57 H 0.74769 0.67605 0.95251 0.0
O58 O 0.69071 0.59816 0.88859 0.0
O59 O 0.73901 0.61369 0.8835 0.0
O60 O 0.7258 0.67608 0.80436 0.0
C61 C 0.71924 0.59199 0.90268 0.0
H62 H 0.7415 0.60553 0.58772 0.0
H63 H 0.67304 0.69008 0.09655 0.0
H64 H 0.62637 0.6978 0.6832 0.0
H65 H 0.58979 0.63813 0.8575 0.0
Co66 Co 0.31923 0.64896 0.6748 0.0
C67 C 0.32578 0.59819 0.79281 0.0
C68 C 0.31621 0.64412 0.84011 0.0
C69 C 0.31893 0.62256 0.89768 0.0
N70 N 0.32049 0.629 0.77387 0.0
N71 N 0.32484 0.59366 0.86801 0.0
H72 H 0.33031 0.57939 0.753 0.0
H73 H 0.3111 0.66915 0.84709 0.0
C74 C 0.30105 0.7169 0.7117 0.0
O75 O 0.32271 0.72828 0.6687 0.0
N76 N 0.31704 0.66955 0.57663 0.0
C77 C 0.33901 0.67314 0.52441 0.0
C78 C 0.32733 0.69046 0.46522 0.0
C79 C 0.29203 0.68413 0.54696 0.0
N80 N 0.29783 0.69742 0.47942 0.0
C81 C 0.38416 0.64985 0.65794 0.0
C82 C 0.39827 0.6951 0.76526 0.0
C83 C 0.4223 0.68022 0.72637 0.0
C84 C 0.4147 0.65731 0.67217 0.0
C85 C 0.36775 0.68693 0.74896 0.0
N86 N 0.36079 0.66513 0.69401 0.0
H87 H 0.3796 0.63109 0.61799 0.0
H88 H 0.35008 0.69751 0.78275 0.0
H89 H 0.36201 0.66405 0.52752 0.0
H90 H 0.27026 0.68581 0.57535 0.0
O91 O 0.33037 0.60914 0.62795 0.0
O92 O 0.28265 0.62456 0.64774 0.0
O93 O 0.2978 0.6869 0.72033 0.0
C94 C 0.30139 0.60307 0.62175 0.0
H95 H 0.31568 0.62757 0.95677 0.0
H96 H 0.33959 0.69726 0.41517 0.0
H97 H 0.40297 0.71251 0.80887 0.0
H98 H 0.43228 0.64408 0.64279 0.0
Co99 Co 0.69731 0.38543 0.18571 0.0
C100 C 0.6848 0.43289 0.30953 0.0
C101 C 0.73036 0.41336 0.31109 0.0
C102 C 0.72722 0.43302 0.37224 0.0
N103 N 0.70382 0.4129 0.27209 0.0
N104 N 0.69871 0.44522 0.37136 0.0
H105 H 0.6613 0.43761 0.29327 0.0
H106 H 0.75059 0.39983 0.29655 0.0
C107 C 0.71465 0.32127 0.24662 0.0
O108 O 0.68914 0.30979 0.2182 0.0
N109 N 0.69299 0.3568 0.09858 0.0
C110 C 0.66963 0.33741 0.07775 0.0
C111 C 0.67915 0.31741 0.0212 0.0
C112 C 0.71642 0.34787 0.05343 0.0
N113 N 0.70854 0.32394 1.00608 0.0
C114 C 0.6326 0.38072 0.18646 0.0
C115 C 0.62562 0.35305 0.32574 0.0
C116 C 0.59956 0.35925 0.2814 0.0
C117 C 0.60341 0.37361 0.21151 0.0
C118 C 0.65482 0.36002 0.29751 0.0
N119 N 0.65803 0.37238 0.22698 0.0
H120 H 0.63473 0.39189 0.13226 0.0
H121 H 0.67469 0.35603 0.33277 0.0
H122 H 0.64777 0.33534 0.10459 0.0
H123 H 0.73941 0.35719 0.05836 0.0
O124 O 0.68196 0.42063 0.12813 0.0
O125 O 0.73094 0.40744 0.13488 0.0
O126 O 0.72109 0.35082 0.23938 0.0
C127 C 0.70976 0.4262 0.10764 0.0
H128 H 0.74454 0.43805 0.41446 0.0
H129 H 0.66579 0.29863 0.99509 0.0
H130 H 0.62343 0.34302 0.38139 0.0
H131 H 0.58385 0.37995 0.17678 0.0
Co132 Co 0.81135 0.88606 0.35402 0.0
C133 C 0.82461 0.92959 0.22546 0.0
C134 C 0.7828 0.90333 0.21206 0.0
C135 C 0.7859 0.92315 0.15157 0.0
N136 N 0.80705 0.90716 0.25819 0.0
N137 N 0.81217 0.93973 0.15958 0.0
H138 H 0.84563 0.93858 0.25001 0.0
H139 H 0.76351 0.88796 0.22294 0.0
C140 C 0.79619 0.81748 0.31133 0.0
O141 O 0.81936 0.8067 0.35135 0.0
N142 N 0.81373 0.8642 0.45027 0.0
C143 C 0.8368 0.8621 0.50101 0.0
C144 C 0.82745 0.84364 0.56034 0.0
C145 C 0.79041 0.84773 0.48101 0.0
N146 N 0.79829 0.83468 0.54766 0.0
C147 C 0.87635 0.88736 0.3641 0.0
C148 C 0.89036 0.84148 0.25858 0.0
C149 C 0.91411 0.85446 0.30282 0.0
C150 C 0.90665 0.87846 0.35405 0.0
C151 C 0.85982 0.85118 0.27088 0.0
N152 N 0.85294 0.87235 0.32709 0.0
H153 H 0.872 0.90613 0.40396 0.0
H154 H 0.842 0.84171 0.23503 0.0
H155 H 0.85885 0.87328 0.49737 0.0
H156 H 0.76825 0.84486 0.45428 0.0
O157 O 0.82241 0.92589 0.40053 0.0
O158 O 0.77482 0.9088 0.3901 0.0
O159 O 0.79077 0.84741 0.30754 0.0
C160 C 0.79369 0.93097 0.41261 0.0
H161 H 0.7692 0.92613 0.10694 0.0
H162 H 0.84089 0.8377 0.6097 0.0
H163 H 0.89523 0.82384 0.21573 0.0
H164 H 0.92423 0.89061 0.38637 0.0
Co165 Co 0.19924 0.144 0.83436 0.0
C166 C 0.18222 0.09273 0.72268 0.0
C167 C 0.21236 0.1278 0.67684 0.0
C168 C 0.20585 0.10592 0.62192 0.0
N169 N 0.19734 0.12 0.74022 0.0
N170 N 0.18697 0.08382 0.65037 0.0
H171 H 0.16831 0.07952 0.76174 0.0
H172 H 0.22749 0.14783 0.66987 0.0
C173 C 0.22069 0.20735 0.77738 0.0
O174 O 0.19744 0.22055 0.81222 0.0
N175 N 0.20302 0.16814 0.92868 0.0
C176 C 0.18671 0.16619 0.99271 0.0
C177 C 0.19781 0.18808 0.04396 0.0
C178 C 0.22532 0.18939 0.94519 0.0
N179 N 0.22195 0.20305 0.01345 0.0
C180 C 0.13744 0.16389 0.85588 0.0
C181 C 0.12714 0.19118 0.7172 0.0
C182 C 0.10334 0.19064 0.76962 0.0
C183 C 0.10889 0.17684 0.83958 0.0
C184 C 0.15596 0.17858 0.73682 0.0
N185 N 0.16111 0.16582 0.80659 0.0
H186 H 0.13969 0.15064 0.90683 0.0
H187 H 0.17389 0.17877 0.6955 0.0
H188 H 0.16855 0.14952 1.00359 0.0
H189 H 0.24434 0.19421 0.90874 0.0
O190 O 0.18067 0.10955 0.88718 0.0
O191 O 0.23069 0.11454 0.87299 0.0
O192 O 0.22546 0.17727 0.7828 0.0
C193 C 0.20785 0.0988 0.90188 0.0
H194 H 0.21539 0.10553 0.56598 0.0
H195 H 0.18851 0.19266 0.09908 0.0
H196 H 0.12339 0.20079 0.6615 0.0
H197 H 0.09068 0.17431 0.8801 0.0
Co198 Co 0.82416 0.14036 0.68279 0.0
C199 C 0.8242 0.08551 0.79249 0.0
C200 C 0.83293 0.1311 0.84311 0.0
C201 C 0.83403 0.10841 0.89822 0.0
N202 N 0.8267 0.11696 0.7767 0.0
N203 N 0.82868 0.07964 0.86674 0.0
H204 H 0.81964 0.0673 0.75081 0.0
H205 H 0.83667 0.15637 0.85101 0.0
C206 C 0.79623 0.20501 0.73142 0.0
O207 O 0.8051 0.21993 0.67076 0.0
N208 N 0.82177 0.16406 0.58956 0.0
C209 C 0.84519 0.17111 0.5437 0.0
C210 C 0.83417 0.18894 0.48464 0.0
C211 C 0.79657 0.17621 0.55566 0.0
N212 N 0.80367 0.19232 0.49255 0.0
C213 C 0.88742 0.13415 0.70826 0.0
C214 C 0.90411 0.19756 0.70246 0.0
C215 C 0.92693 0.17401 0.70084 0.0
C216 C 0.91826 0.14208 0.70646 0.0
C217 C 0.87318 0.18849 0.70358 0.0
N218 N 0.86515 0.15697 0.70346 0.0
H219 H 0.88137 0.10922 0.71008 0.0
H220 H 0.85621 0.20685 0.70037 0.0
H221 H 0.86876 0.16409 0.55278 0.0
H222 H 0.77381 0.17482 0.57903 0.0
O223 O 0.837 0.10396 0.62523 0.0
O224 O 0.78859 0.11513 0.65024 0.0
O225 O 0.80237 0.17541 0.7415 0.0
C226 C 0.80838 0.09679 0.6163 0.0
H227 H 0.8379 0.11303 0.95734 0.0
H228 H 0.84759 0.19888 0.43958 0.0
H229 H 0.91004 0.22257 0.69913 0.0
H230 H 0.93526 0.12321 0.70751 0.0
Co231 Co 0.19377 0.88842 0.1706 0.0
C232 C 0.17836 0.93484 0.2925 0.0
C233 C 0.21096 0.89958 0.32831 0.0
C234 C 0.20561 0.91994 0.38724 0.0
N235 N 0.19381 0.90871 0.26883 0.0
N236 N 0.18518 0.94218 0.36496 0.0
H237 H 0.16291 0.94847 0.25723 0.0
H238 H 0.22717 0.88009 0.32891 0.0
C239 C 0.21055 0.81992 0.21111 0.0
O240 O 0.18842 0.80828 0.16897 0.0
N241 N 0.19505 0.86756 0.07271 0.0
C242 C 0.17343 0.86545 0.01825 0.0
C243 C 0.18491 0.84808 0.95909 0.0
C244 C 0.21968 0.85216 0.04445 0.0
N245 N 0.21396 0.8398 0.97563 0.0
C246 C 0.12909 0.88788 0.15 0.0
C247 C 0.11396 0.84158 0.25258 0.0
C248 C 0.0907 0.85462 0.20687 0.0
C249 C 0.09874 0.87869 0.15676 0.0
C250 C 0.14453 0.85157 0.24364 0.0
N251 N 0.15206 0.87309 0.18917 0.0
H252 H 0.13387 0.90701 0.11177 0.0
H253 H 0.16184 0.84225 0.28117 0.0
H254 H 0.15096 0.87592 0.01924 0.0
H255 H 0.24122 0.84958 0.07433 0.0
O256 O 0.18287 0.92828 0.12426 0.0
O257 O 0.23054 0.91244 0.14313 0.0
O258 O 0.21456 0.85 0.2168 0.0
C259 C 0.21178 0.93415 0.1177 0.0
H260 H 0.21716 0.91937 0.44122 0.0
H261 H 0.17297 0.84239 0.90727 0.0
H262 H 0.10867 0.82384 0.29452 0.0
H263 H 0.08154 0.89094 0.12345 0.0
H264 H 0.46556 0.37328 0.39928 0.0
H265 H 0.44643 0.32196 0.1942 0.0
H266 H 0.50137 0.31351 0.17498 0.0
H267 H 0.55462 0.32718 0.20814 0.0
H268 H 0.57371 0.37909 0.41244 0.0
H269 H 0.519 0.38034 0.44154 0.0
C270 C 0.4735 0.35982 0.35104 0.0
C271 C 0.45217 0.34862 0.29755 0.0
C272 C 0.50503 0.3553 0.3403 0.0
C273 C 0.46251 0.33081 0.23589 0.0
C274 C 0.49388 0.32616 0.22477 0.0
C275 C 0.54677 0.33813 0.25984 0.0
C276 C 0.56801 0.35329 0.30784 0.0
C277 C 0.51532 0.3392 0.27534 0.0
C278 C 0.55776 0.36717 0.37494 0.0
C279 C 0.52648 0.36816 0.39111 0.0
H280 H 0.55598 0.68412 0.86263 0.0
H281 H 0.579 0.67586 0.62814 0.0
H282 H 0.52503 0.68201 0.59368 0.0
H283 H 0.47088 0.68408 0.63082 0.0
H284 H 0.44792 0.68876 0.86599 0.0
H285 H 0.50218 0.69011 0.89925 0.0
C286 C 0.54923 0.68381 0.80389 0.0
C287 C 0.57157 0.67912 0.74814 0.0
C288 C 0.51808 0.6866 0.78459 0.0
C289 C 0.56243 0.67956 0.67227 0.0
C290 C 0.53149 0.6828 0.65254 0.0
C291 C 0.47771 0.68553 0.6894 0.0
C292 C 0.45517 0.68596 0.74578 0.0
C293 C 0.50904 0.68545 0.70833 0.0
C294 C 0.46457 0.68862 0.82126 0.0
C295 C 0.49568 0.68908 0.84043 0.0
H296 H 0.05713 0.84357 0.33357 0.0
H297 H 0.05005 0.845 0.09188 0.0
H298 H 0.99447 0.84132 0.09916 0.0
H299 H 0.94743 0.84523 0.17459 0.0
H300 H 0.95464 0.84241 0.41613 0.0
H301 H 0.01021 0.83849 0.40835 0.0
C302 C 0.04352 0.84219 0.28249 0.0
C303 C 0.05781 0.84533 0.21241 0.0
C304 C 0.01137 0.84021 0.28695 0.0
C305 C 0.03965 0.84347 0.14677 0.0
C306 C 1.00779 0.84131 0.15077 0.0
C307 C 0.96111 0.84287 0.22537 0.0
C308 C 0.94687 0.84483 0.29579 0.0
C309 C 0.99328 0.84084 0.22062 0.0
C310 C 0.96505 0.84171 0.36111 0.0
C311 C 0.99689 0.83946 0.35681 0.0
H312 H 0.06877 0.16995 0.65279 0.0
H313 H 0.06648 0.23133 0.8471 0.0
H314 H 0.01074 0.23556 0.83656 0.0
H315 H 0.96225 0.21449 0.78437 0.0
H316 H 0.96498 0.15023 0.59513 0.0
H317 H 0.02065 0.15464 0.59057 0.0
C318 C 0.05611 0.18513 0.69107 0.0
C319 C 0.07157 0.20027 0.75059 0.0
C320 C 0.024 0.1864 0.6864 0.0
C321 C 0.05493 0.21947 0.8008 0.0
C322 C 0.02307 0.22168 0.79514 0.0
C323 C 0.97507 0.20214 0.74115 0.0
C324 C 0.95971 0.18176 0.69082 0.0
C325 C 1.00724 0.20414 0.74012 0.0
C326 C 0.97648 0.16572 0.63512 0.0
C327 C 0.00828 0.16823 0.63247 0.0
H328 H 0.34782 0.58438 1.00715 0.0
H329 H 0.30442 0.53613 0.82075 0.0
H330 H 0.29995 0.48767 0.89583 0.0
H331 H 0.30388 0.4608 0.01838 0.0
H332 H 0.3474 0.50865 0.20489 0.0
H333 H 0.35667 0.55542 0.12603 0.0
C334 C 0.33761 0.56315 0.98292 0.0
C335 C 0.32613 0.56398 0.90874 0.0
C336 C 0.33504 0.53541 0.02662 0.0
C337 C 0.31351 0.53611 0.87749 0.0
C338 C 0.31076 0.50846 0.92062 0.0
C339 C 0.31567 0.48139 0.04136 0.0
C340 C 0.32466 0.48148 0.11748 0.0
C341 C 0.32075 0.50811 0.99576 0.0
C342 C 0.34038 0.50802 0.14645 0.0
C343 C 0.34545 0.53481 0.1015 0.0
H344 H 0.6862 0.50719 0.35307 0.0
H345 H 0.68829 0.43179 0.51566 0.0
H346 H 0.68334 0.4706 0.61821 0.0
H347 H 0.6877 0.52661 0.66162 0.0
H348 H 0.69022 0.60182 0.4983 0.0
H349 H 0.68353 0.56315 0.39628 0.0
C350 C 0.6843 0.49941 0.41085 0.0
C351 C 0.68714 0.46683 0.4272 0.0
C352 C 0.68281 0.52204 0.46946 0.0
C353 C 0.68567 0.45682 0.50225 0.0
C354 C 0.68316 0.47903 0.56074 0.0
C355 C 0.68567 0.53443 0.60382 0.0
C356 C 0.68935 0.56691 0.58717 0.0
C357 C 0.68302 0.51181 0.54524 0.0
C358 C 0.68737 0.57688 0.51203 0.0
C359 C 0.68374 0.55476 0.45378 0.0
H360 H 0.69232 0.53598 0.87656 0.0
H361 H 0.76475 0.57911 1.0066 0.0
H362 H 0.77163 0.52918 0.07732 0.0
H363 H 0.75192 0.47507 0.11191 0.0
H364 H 0.67851 0.43438 0.98004 0.0
H365 H 0.67747 0.48111 0.89943 0.0
C366 C 0.70994 0.5343 0.91971 0.0
C367 C 0.72774 0.56115 0.93717 0.0
C368 C 0.71351 0.50585 0.95984 0.0
C369 C 0.75078 0.55864 0.99229 0.0
C370 C 0.75455 0.53016 0.03293 0.0
C371 C 0.73642 0.47622 0.06415 0.0
C372 C 0.71526 0.45141 0.05177 0.0
C373 C 0.73541 0.50381 0.01862 0.0
C374 C 0.69491 0.45326 0.99055 0.0
C375 C 0.6942 0.48002 0.94466 0.0
H376 H 0.26489 0.48666 0.41515 0.0
H377 H 0.33325 0.44215 0.55618 0.0
H378 H 0.33563 0.48942 0.63552 0.0
H379 H 0.32478 0.54564 0.65238 0.0
H380 H 0.25613 0.59212 0.51671 0.0
H381 H 0.24724 0.54203 0.44729 0.0
C382 C 0.27942 0.4871 0.46478 0.0
C383 C 0.29899 0.46114 0.47995 0.0
C384 C 0.28112 0.51488 0.50986 0.0
C385 C 0.31809 0.46197 0.54362 0.0
C386 C 0.31962 0.48904 0.5887 0.0
C387 C 0.30726 0.54466 0.60905 0.0
C388 C 0.29124 0.57241 0.5893 0.0
C389 C 0.30226 0.51602 0.57044 0.0
C390 C 0.26865 0.57087 0.53289 0.0
C391 C 0.26373 0.5423 0.49305 0.0
H392 H 0.85448 0.06518 1.00113 0.0
H393 H 0.7988 0.02589 0.82221 0.0
H394 H 0.79155 0.97732 0.89499 0.0
H395 H 0.79762 0.9479 0.01297 0.0
H396 H 0.84971 0.98921 0.19575 0.0
H397 H 0.86196 0.035 0.11744 0.0
C398 C 0.84056 0.04618 0.97793 0.0
C399 C 0.8268 0.04964 0.90639 0.0
C400 C 0.83581 0.01863 0.02093 0.0
C401 C 0.80974 0.02408 0.87675 0.0
C402 C 0.8054 0.99631 0.91867 0.0
C403 C 0.81153 0.96693 0.03611 0.0
C404 C 0.82229 0.96513 0.11096 0.0
C405 C 0.81776 0.99365 0.99144 0.0
C406 C 0.84114 0.9897 0.13862 0.0
C407 C 0.84797 0.01609 0.09393 0.0
H408 H 0.17212 0.07821 0.50456 0.0
H409 H 0.18257 0.02453 0.70896 0.0
H410 H 0.17883 0.97457 0.6376 0.0
H411 H 0.1798 0.94673 0.51535 0.0
H412 H 0.17189 1.00094 0.31072 0.0
H413 H 0.16692 0.05012 0.38364 0.0
C414 C 0.17309 0.05552 0.53348 0.0
C415 C 0.17804 0.055 0.61175 0.0
C416 C 0.17166 0.02707 0.49184 0.0
C417 C 0.17868 0.02553 0.64889 0.0
C418 C 0.17686 0.99701 0.60793 0.0
C419 C 0.1767 0.96929 0.48677 0.0
C420 C 0.17674 0.97018 0.40757 0.0
C421 C 0.1745 0.99754 0.52914 0.0
C422 C 0.17191 0.9995 0.37139 0.0
C423 C 0.16932 0.02768 0.41314 0.0
H424 H 0.24907 0.04794 0.90454 0.0
H425 H 0.1731 0.09039 0.02243 0.0
H426 H 0.17039 0.04483 0.10519 0.0
H427 H 0.185 0.99067 0.13557 0.0
H428 H 0.25963 0.94517 0.02048 0.0
H429 H 0.26782 0.99389 0.94622 0.0
C430 C 0.23241 0.04732 0.94931 0.0
C431 C 0.21108 0.07244 0.95668 0.0
C432 C 0.23051 0.02032 0.99685 0.0
C433 C 0.18952 0.07128 0.01481 0.0
C434 C 0.1879 0.04518 0.06238 0.0
C435 C 0.20341 0.99159 0.09504 0.0
C436 C 0.22153 0.96445 0.083 0.0
C437 C 0.20757 0.01923 0.05249 0.0
C438 C 0.24549 0.96594 0.03095 0.0
C439 C 0.24996 0.99371 0.98809 0.0
H440 H 0.7701 0.04502 0.63643 0.0
H441 H 0.82945 0.09065 0.4772 0.0
H442 H 0.82625 0.04452 0.39427 0.0
H443 H 0.81295 0.98882 0.37499 0.0
H444 H 0.75499 0.94064 0.53222 0.0
H445 H 0.75076 0.98991 0.60731 0.0
C446 C 0.78153 0.04504 0.5826 0.0
C447 C 0.80008 0.07112 0.56285 0.0
C448 C 0.78014 0.01781 0.5353 0.0
C449 C 0.81518 0.07077 0.49355 0.0
C450 C 0.81344 0.04437 0.44617 0.0
C451 C 0.79874 0.98937 0.42476 0.0
C452 C 0.78432 0.96132 0.44825 0.0
C453 C 0.79694 0.0174 0.46766 0.0
C454 C 0.76601 0.96215 0.51271 0.0
C455 C 0.7639 0.99023 0.55596 0.0
H456 H 0.29917 0.32535 0.08842 0.0
H457 H 0.26426 0.30711 0.31018 0.0
H458 H 0.23757 0.2598 0.26301 0.0
H459 H 0.22433 0.22359 0.15855 0.0
H460 H 0.25789 0.24418 0.93615 0.0
H461 H 0.28535 0.28999 0.98452 0.0
C462 C 0.28575 0.31106 0.12662 0.0
C463 C 0.28376 0.31981 0.20273 0.0
C464 C 0.2704 0.28402 0.09917 0.0
C465 C 0.26612 0.30102 0.25121 0.0
C466 C 0.25091 0.27389 0.22432 0.0
C467 C 0.2375 0.23806 0.1204 0.0
C468 C 0.23905 0.2298 0.04363 0.0
C469 C 0.25288 0.26515 0.14829 0.0
C470 C 0.25659 0.24907 0.99567 0.0
C471 C 0.27218 0.27569 0.02315 0.0
H472 H 0.70167 0.76047 0.74003 0.0
H473 H 0.78077 0.70139 0.78292 0.0
H474 H 0.8124 0.73683 0.70747 0.0
H475 H 0.81729 0.78372 0.62601 0.0
H476 H 0.73777 0.84073 0.57477 0.0
H477 H 0.70645 0.80701 0.65595 0.0
C478 C 0.72591 0.75564 0.73344 0.0
C479 C 0.73899 0.72858 0.76756 0.0
C480 C 0.74376 0.77559 0.68788 0.0
C481 C 0.77025 0.72215 0.75733 0.0
C482 C 0.78832 0.74236 0.71414 0.0
C483 C 0.79315 0.78884 0.63319 0.0
C484 C 0.77984 0.81472 0.59492 0.0
C485 C 0.77529 0.769 0.67869 0.0
C486 C 0.74842 0.8208 0.6034 0.0
C487 C 0.73059 0.80163 0.65004 0.0
H488 H 0.19845 0.78881 0.89305 0.0
H489 H 0.27469 0.84833 0.9555 0.0
H490 H 0.30858 0.81679 0.87451 0.0
H491 H 0.31642 0.77146 0.78665 0.0
H492 H 0.2404 0.70984 0.73349 0.0
H493 H 0.20638 0.7431 0.80904 0.0
C494 C 0.22246 0.79493 0.88844 0.0
C495 C 0.23409 0.82091 0.9296 0.0
C496 C 0.24175 0.77636 0.8431 0.0
C497 C 0.26534 0.8283 0.92451 0.0
C498 C 0.28463 0.81038 0.87798 0.0
C499 C 0.29233 0.76565 0.79115 0.0
C500 C 0.28076 0.73852 0.75405 0.0
C501 C 0.27309 0.78431 0.83696 0.0
C502 C 0.2497 0.73071 0.76145 0.0
C503 C 0.23028 0.74966 0.80468 0.0
H504 H 0.70137 0.26352 0.30777 0.0
H505 H 0.77434 0.33192 0.28489 0.0
H506 H 0.80858 0.29747 0.35744 0.0
H507 H 0.81768 0.24825 0.42862 0.0
H508 H 0.74444 0.18088 0.4569 0.0
H509 H 0.71027 0.21463 0.38134 0.0
C510 C 0.7248 0.27083 0.31836 0.0
C511 C 0.73531 0.3002 0.29053 0.0
C512 C 0.74426 0.25112 0.36124 0.0
C513 C 0.76564 0.30947 0.30564 0.0
C514 C 0.78526 0.28977 0.34706 0.0
C515 C 0.79433 0.24083 0.41753 0.0
C516 C 0.78363 0.21198 0.44758 0.0
C517 C 0.77481 0.26057 0.37515 0.0
C518 C 0.75311 0.20301 0.4344 0.0
C519 C 0.73365 0.22226 0.3911 0.0
H520 H 0.69904 0.74228 0.11436 0.0
H521 H 0.77679 0.68116 0.07648 0.0
H522 H 0.80817 0.71443 0.16036 0.0
H523 H 0.8135 0.76153 0.24414 0.0
H524 H 0.73623 0.82438 0.27386 0.0
H525 H 0.70462 0.78981 0.19455 0.0
C526 C 0.7228 0.73615 0.12493 0.0
C527 C 0.73551 0.70915 0.08968 0.0
C528 C 0.74076 0.75572 0.17208 0.0
C529 C 0.76653 0.70188 0.10267 0.0
C530 C 0.78441 0.72083 0.1509 0.0
C531 C 0.78967 0.76743 0.23372 0.0
C532 C 0.77715 0.79535 0.26553 0.0
C533 C 0.77179 0.74785 0.18601 0.0
C534 C 0.7464 0.80303 0.25026 0.0
C535 C 0.7283 0.78327 0.20482 0.0
H536 H 0.20886 0.26619 0.72183 0.0
H537 H 0.2792 0.19395 0.73237 0.0
H538 H 0.31334 0.22783 0.6591 0.0
H539 H 0.32289 0.27806 0.5901 0.0
H540 H 0.25111 0.34839 0.57427 0.0
H541 H 0.21786 0.31534 0.6515 0.0
C542 C 0.23172 0.25789 0.70844 0.0
C543 C 0.24152 0.22766 0.73294 0.0
C544 C 0.25095 0.27721 0.66517 0.0
C545 C 0.27106 0.21711 0.71415 0.0
C546 C 0.29062 0.2365 0.67236 0.0
C547 C 0.30004 0.28611 0.60421 0.0
C548 C 0.28943 0.31562 0.57684 0.0
C549 C 0.28079 0.2666 0.64741 0.0
C550 C 0.25963 0.32567 0.59436 0.0
C551 C 0.24068 0.30683 0.63863 0.0
H552 H 0.79597 0.26914 0.75787 0.0
H553 H 0.75739 0.18071 0.83571 0.0
H554 H 0.72688 0.2098 0.92791 0.0
H555 H 0.71019 0.26052 0.98472 0.0
H556 H 0.75072 0.34866 0.91302 0.0
H557 H 0.78167 0.31966 0.82055 0.0
C558 C 0.78088 0.25625 0.79502 0.0
C559 C 0.77874 0.22279 0.7893 0.0
C560 C 0.7638 0.27311 0.84904 0.0
C561 C 0.75945 0.20642 0.83876 0.0
C562 C 0.74194 0.22306 0.89145 0.0
C563 C 0.72579 0.27331 0.94867 0.0
C564 C 0.72798 0.30669 0.95487 0.0
C565 C 0.74376 0.2564 0.89674 0.0
C566 C 0.74873 0.32298 0.90912 0.0
C567 C 0.76628 0.3064 0.85617 0.0
H568 H 0.19531 0.76519 0.28537 0.0
H569 H 0.27104 0.82754 0.23819 0.0
H570 H 0.3049 0.79473 0.31583 0.0
H571 H 0.31294 0.74907 0.39946 0.0
H572 H 0.23711 0.68851 0.45548 0.0
H573 H 0.20324 0.71988 0.37327 0.0
C574 C 0.2193 0.7713 0.29165 0.0
C575 C 0.23077 0.79855 0.25545 0.0
C576 C 0.23852 0.75282 0.33862 0.0
C577 C 0.26172 0.80664 0.2653 0.0
C578 C 0.28109 0.78792 0.30977 0.0
C579 C 0.28903 0.74265 0.39326 0.0
C580 C 0.27758 0.71636 0.43298 0.0
C581 C 0.26973 0.76109 0.34704 0.0
C582 C 0.2464 0.70871 0.4257 0.0
C583 C 0.22711 0.72656 0.37841 0.0
loop_
_geom_bond_atom_site_label_1
_geom_bond_atom_site_label_2
_geom_bond_distance
_geom_bond_site_symmetry_2
_ccdc_geom_bond_type
Co0 N4 2.148 . S
Co0 N10 2.128 . S
Co0 N20 2.194 . S
Co0 O25 2.351 . S
Co0 O26 2.155 . S
Co0 O27 2.096 . S
C1 N4 1.301 . S
C1 N5 1.328 . S
C1 H6 0.930 . S
C2 C3 1.333 . S
C2 N4 1.317 . S
C2 H7 0.930 . S
C3 C2 1.333 . S
C3 N5 1.350 . S
C3 H29 0.931 . S
N4 Co0 2.148 . S
N4 C1 1.301 . S
N4 C2 1.317 . S
N5 C1 1.328 . S
N5 C3 1.350 . S
H6 C1 0.930 . S
H7 C2 0.930 . S
C8 O9 1.224 . S
C8 O27 1.247 . S
O9 C8 1.224 . S
N10 Co0 2.128 . S
N10 C11 1.355 . S
N10 C13 1.311 . S
C11 N10 1.355 . S
C11 C12 1.363 . S
C11 H23 0.929 . S
C12 C11 1.363 . S
C12 N14 1.375 . S
C12 H30 0.931 . S
C13 N10 1.311 . S
C13 N14 1.347 . S
C13 H24 0.929 . S
N14 C12 1.375 . S
N14 C13 1.347 . S
C15 C18 1.365 . S
C15 N20 1.328 . S
C15 H21 0.929 . S
C16 C17 1.362 . S
C16 C19 1.378 . S
C16 H31 0.929 . S
C17 C16 1.362 . S
C17 C18 1.366 . S
C18 C15 1.365 . S
C18 C17 1.366 . S
C18 H32 0.930 . S
C19 C16 1.378 . S
C19 N20 1.315 . S
C19 H22 0.930 . S
N20 Co0 2.194 . S
N20 C15 1.328 . S
N20 C19 1.315 . S
H21 C15 0.929 . S
H22 C19 0.930 . S
H23 C11 0.929 . S
H24 C13 0.929 . S
O25 Co0 2.351 . S
O25 C28 1.244 . S
O26 Co0 2.155 . S
O26 C28 1.240 . S
O27 Co0 2.096 . S
O27 C8 1.247 . S
C28 O25 1.244 . S
C28 O26 1.240 . S
H29 C3 0.931 . S
H30 C12 0.931 . S
H31 C16 0.929 . S
H32 C18 0.930 . S
Co33 N37 2.148 . S
Co33 N43 2.128 . S
Co33 N53 2.194 . S
Co33 O58 2.351 . S
Co33 O59 2.155 . S
Co33 O60 2.096 . S
C34 N37 1.301 . S
C34 N38 1.328 . S
C34 H39 0.930 . S
C35 C36 1.333 . S
C35 N37 1.317 . S
C35 H40 0.930 . S
C36 C35 1.333 . S
C36 N38 1.350 . S
C36 H62 0.931 . S
N37 Co33 2.148 . S
N37 C34 1.301 . S
N37 C35 1.317 . S
N38 C34 1.328 . S
N38 C36 1.350 . S
H39 C34 0.930 . S
H40 C35 0.930 . S
C41 O42 1.224 . S
C41 O60 1.247 . S
O42 C41 1.224 . S
N43 Co33 2.128 . S
N43 C44 1.355 . S
N43 C46 1.311 . S
C44 N43 1.355 . S
C44 C45 1.363 . S
C44 H56 0.929 . S
C45 C44 1.363 . S
C45 N47 1.375 . S
C45 H63 0.931 1_556 S
C46 N43 1.311 . S
C46 N47 1.347 . S
C46 H57 0.929 . S
N47 C45 1.375 . S
N47 C46 1.347 . S
C48 C51 1.365 . S
C48 N53 1.328 . S
C48 H54 0.929 . S
C49 C50 1.362 . S
C49 C52 1.378 . S
C49 H64 0.929 . S
C50 C49 1.362 . S
C50 C51 1.366 . S
C51 C48 1.365 . S
C51 C50 1.366 . S
C51 H65 0.930 . S
C52 C49 1.378 . S
C52 N53 1.315 . S
C52 H55 0.930 . S
N53 Co33 2.194 . S
N53 C48 1.328 . S
N53 C52 1.315 . S
H54 C48 0.929 . S
H55 C52 0.930 . S
H56 C44 0.929 . S
H57 C46 0.929 . S
O58 Co33 2.351 . S
O58 C61 1.244 . S
O59 Co33 2.155 . S
O59 C61 1.240 . S
O60 Co33 2.096 . S
O60 C41 1.247 . S
C61 O58 1.244 . S
C61 O59 1.240 . S
H62 C36 0.931 . S
H63 C45 0.931 1_554 S
H64 C49 0.929 . S
H65 C51 0.930 . S
Co66 N70 2.148 . S
Co66 N76 2.128 . S
Co66 N86 2.194 . S
Co66 O91 2.351 . S
Co66 O92 2.155 . S
Co66 O93 2.096 . S
C67 N70 1.301 . S
C67 N71 1.328 . S
C67 H72 0.930 . S
C68 C69 1.333 . S
C68 N70 1.317 . S
C68 H73 0.930 . S
C69 C68 1.333 . S
C69 N71 1.350 . S
C69 H95 0.931 . S
N70 Co66 2.148 . S
N70 C67 1.301 . S
N70 C68 1.317 . S
N71 C67 1.328 . S
N71 C69 1.350 . S
H72 C67 0.930 . S
H73 C68 0.930 . S
C74 O75 1.224 . S
C74 O93 1.247 . S
O75 C74 1.224 . S
N76 Co66 2.128 . S
N76 C77 1.355 . S
N76 C79 1.311 . S
C77 N76 1.355 . S
C77 C78 1.363 . S
C77 H89 0.929 . S
C78 C77 1.363 . S
C78 N80 1.375 . S
C78 H96 0.931 . S
C79 N76 1.311 . S
C79 N80 1.347 . S
C79 H90 0.929 . S
N80 C78 1.375 . S
N80 C79 1.347 . S
C81 C84 1.365 . S
C81 N86 1.328 . S
C81 H87 0.929 . S
C82 C83 1.362 . S
C82 C85 1.378 . S
C82 H97 0.929 . S
C83 C82 1.362 . S
C83 C84 1.366 . S
C84 C81 1.365 . S
C84 C83 1.366 . S
C84 H98 0.930 . S
C85 C82 1.378 . S
C85 N86 1.315 . S
C85 H88 0.930 . S
N86 Co66 2.194 . S
N86 C81 1.328 . S
N86 C85 1.315 . S
H87 C81 0.929 . S
H88 C85 0.930 . S
H89 C77 0.929 . S
H90 C79 0.929 . S
O91 Co66 2.351 . S
O91 C94 1.244 . S
O92 Co66 2.155 . S
O92 C94 1.240 . S
O93 Co66 2.096 . S
O93 C74 1.247 . S
C94 O91 1.244 . S
C94 O92 1.240 . S
H95 C69 0.931 . S
H96 C78 0.931 . S
H97 C82 0.929 . S
H98 C84 0.930 . S
Co99 N103 2.148 . S
Co99 N109 2.128 . S
Co99 N119 2.194 . S
Co99 O124 2.351 . S
Co99 O125 2.155 . S
Co99 O126 2.096 . S
C100 N103 1.301 . S
C100 N104 1.328 . S
C100 H105 0.930 . S
C101 C102 1.333 . S
C101 N103 1.317 . S
C101 H106 0.930 . S
C102 C101 1.333 . S
C102 N104 1.350 . S
C102 H128 0.931 . S
N103 Co99 2.148 . S
N103 C100 1.301 . S
N103 C101 1.317 . S
N104 C100 1.328 . S
N104 C102 1.350 . S
H105 C100 0.930 . S
H106 C101 0.930 . S
C107 O108 1.224 . S
C107 O126 1.247 . S
O108 C107 1.224 . S
N109 Co99 2.128 . S
N109 C110 1.355 . S
N109 C112 1.311 . S
C110 N109 1.355 . S
C110 C111 1.363 . S
C110 H122 0.929 . S
C111 C110 1.363 . S
C111 N113 1.375 . S
C111 H129 0.931 1_554 S
C112 N109 1.311 . S
C112 N113 1.347 . S
C112 H123 0.929 . S
N113 C111 1.375 . S
N113 C112 1.347 . S
C114 C117 1.365 . S
C114 N119 1.328 . S
C114 H120 0.929 . S
C115 C116 1.362 . S
C115 C118 1.378 . S
C115 H130 0.929 . S
C116 C115 1.362 . S
C116 C117 1.366 . S
C117 C114 1.365 . S
C117 C116 1.366 . S
C117 H131 0.930 . S
C118 C115 1.378 . S
C118 N119 1.315 . S
C118 H121 0.930 . S
N119 Co99 2.194 . S
N119 C114 1.328 . S
N119 C118 1.315 . S
H120 C114 0.929 . S
H121 C118 0.930 . S
H122 C110 0.929 . S
H123 C112 0.929 . S
O124 Co99 2.351 . S
O124 C127 1.244 . S
O125 Co99 2.155 . S
O125 C127 1.240 . S
O126 Co99 2.096 . S
O126 C107 1.247 . S
C127 O124 1.244 . S
C127 O125 1.240 . S
H128 C102 0.931 . S
H129 C111 0.931 1_556 S
H130 C115 0.929 . S
H131 C117 0.930 . S
Co132 N136 2.148 . S
Co132 N142 2.128 . S
Co132 N152 2.194 . S
Co132 O157 2.351 . S
Co132 O158 2.155 . S
Co132 O159 2.096 . S
C133 N136 1.301 . S
C133 N137 1.328 . S
C133 H138 0.930 . S
C134 C135 1.333 . S
C134 N136 1.317 . S
C134 H139 0.930 . S
C135 C134 1.333 . S
C135 N137 1.350 . S
C135 H161 0.931 . S
N136 Co132 2.148 . S
N136 C133 1.301 . S
N136 C134 1.317 . S
N137 C133 1.328 . S
N137 C135 1.350 . S
H138 C133 0.930 . S
H139 C134 0.930 . S
C140 O141 1.224 . S
C140 O159 1.247 . S
O141 C140 1.224 . S
N142 Co132 2.128 . S
N142 C143 1.355 . S
N142 C145 1.311 . S
C143 N142 1.355 . S
C143 C144 1.363 . S
C143 H155 0.929 . S
C144 C143 1.363 . S
C144 N146 1.375 . S
C144 H162 0.931 . S
C145 N142 1.311 . S
C145 N146 1.347 . S
C145 H156 0.929 . S
N146 C144 1.375 . S
N146 C145 1.347 . S
C147 C150 1.365 . S
C147 N152 1.328 . S
C147 H153 0.929 . S
C148 C149 1.362 . S
C148 C151 1.378 . S
C148 H163 0.929 . S
C149 C148 1.362 . S
C149 C150 1.366 . S
C150 C147 1.365 . S
C150 C149 1.366 . S
C150 H164 0.930 . S
C151 C148 1.378 . S
C151 N152 1.315 . S
C151 H154 0.930 . S
N152 Co132 2.194 . S
N152 C147 1.328 . S
N152 C151 1.315 . S
H153 C147 0.929 . S
H154 C151 0.930 . S
H155 C143 0.929 . S
H156 C145 0.929 . S
O157 Co132 2.351 . S
O157 C160 1.244 . S
O158 Co132 2.155 . S
O158 C160 1.240 . S
O159 Co132 2.096 . S
O159 C140 1.247 . S
C160 O157 1.244 . S
C160 O158 1.240 . S
H161 C135 0.931 . S
H162 C144 0.931 . S
H163 C148 0.929 . S
H164 C150 0.930 . S
Co165 N169 2.148 . S
Co165 N175 2.128 . S
Co165 N185 2.194 . S
Co165 O190 2.351 . S
Co165 O191 2.155 . S
Co165 O192 2.096 . S
C166 N169 1.301 . S
C166 N170 1.328 . S
C166 H171 0.930 . S
C167 C168 1.333 . S
C167 N169 1.317 . S
C167 H172 0.930 . S
C168 C167 1.333 . S
C168 N170 1.350 . S
C168 H194 0.931 . S
N169 Co165 2.148 . S
N169 C166 1.301 . S
N169 C167 1.317 . S
N170 C166 1.328 . S
N170 C168 1.350 . S
H171 C166 0.930 . S
H172 C167 0.930 . S
C173 O174 1.224 . S
C173 O192 1.247 . S
O174 C173 1.224 . S
N175 Co165 2.128 . S
N175 C176 1.355 . S
N175 C178 1.311 . S
C176 N175 1.355 . S
C176 C177 1.363 . S
C176 H188 0.929 . S
C177 C176 1.363 . S
C177 N179 1.375 . S
C177 H195 0.931 1_556 S
C178 N175 1.311 . S
C178 N179 1.347 . S
C178 H189 0.929 . S
N179 C177 1.375 . S
N179 C178 1.347 . S
C180 C183 1.365 . S
C180 N185 1.328 . S
C180 H186 0.929 . S
C181 C182 1.362 . S
C181 C184 1.378 . S
C181 H196 0.929 . S
C182 C181 1.362 . S
C182 C183 1.366 . S
C183 C180 1.365 . S
C183 C182 1.366 . S
C183 H197 0.930 . S
C184 C181 1.378 . S
C184 N185 1.315 . S
C184 H187 0.930 . S
N185 Co165 2.194 . S
N185 C180 1.328 . S
N185 C184 1.315 . S
H186 C180 0.929 . S
H187 C184 0.930 . S
H188 C176 0.929 . S
H189 C178 0.929 . S
O190 Co165 2.351 . S
O190 C193 1.244 . S
O191 Co165 2.155 . S
O191 C193 1.240 . S
O192 Co165 2.096 . S
O192 C173 1.247 . S
C193 O190 1.244 . S
C193 O191 1.240 . S
H194 C168 0.931 . S
H195 C177 0.931 1_554 S
H196 C181 0.929 . S
H197 C183 0.930 . S
Co198 N202 2.148 . S
Co198 N208 2.128 . S
Co198 N218 2.194 . S
Co198 O223 2.351 . S
Co198 O224 2.155 . S
Co198 O225 2.096 . S
C199 N202 1.301 . S
C199 N203 1.328 . S
C199 H204 0.930 . S
C200 C201 1.333 . S
C200 N202 1.317 . S
C200 H205 0.930 . S
C201 C200 1.333 . S
C201 N203 1.350 . S
C201 H227 0.931 . S
N202 Co198 2.148 . S
N202 C199 1.301 . S
N202 C200 1.317 . S
N203 C199 1.328 . S
N203 C201 1.350 . S
H204 C199 0.930 . S
H205 C200 0.930 . S
C206 O207 1.224 . S
C206 O225 1.247 . S
O207 C206 1.224 . S
N208 Co198 2.128 . S
N208 C209 1.355 . S
N208 C211 1.311 . S
C209 N208 1.355 . S
C209 C210 1.363 . S
C209 H221 0.929 . S
C210 C209 1.363 . S
C210 N212 1.375 . S
C210 H228 0.931 . S
C211 N208 1.311 . S
C211 N212 1.347 . S
C211 H222 0.929 . S
N212 C210 1.375 . S
N212 C211 1.347 . S
C213 C216 1.365 . S
C213 N218 1.328 . S
C213 H219 0.929 . S
C214 C215 1.362 . S
C214 C217 1.378 . S
C214 H229 0.929 . S
C215 C214 1.362 . S
C215 C216 1.366 . S
C216 C213 1.365 . S
C216 C215 1.366 . S
C216 H230 0.930 . S
C217 C214 1.378 . S
C217 N218 1.315 . S
C217 H220 0.930 . S
N218 Co198 2.194 . S
N218 C213 1.328 . S
N218 C217 1.315 . S
H219 C213 0.929 . S
H220 C217 0.930 . S
H221 C209 0.929 . S
H222 C211 0.929 . S
O223 Co198 2.351 . S
O223 C226 1.244 . S
O224 Co198 2.155 . S
O224 C226 1.240 . S
O225 Co198 2.096 . S
O225 C206 1.247 . S
C226 O223 1.244 . S
C226 O224 1.240 . S
H227 C201 0.931 . S
H228 C210 0.931 . S
H229 C214 0.929 . S
H230 C216 0.930 . S
Co231 N235 2.148 . S
Co231 N241 2.128 . S
Co231 N251 2.194 . S
Co231 O256 2.351 . S
Co231 O257 2.155 . S
Co231 O258 2.096 . S
C232 N235 1.301 . S
C232 N236 1.328 . S
C232 H237 0.930 . S
C233 C234 1.333 . S
C233 N235 1.317 . S
C233 H238 0.930 . S
C234 C233 1.333 . S
C234 N236 1.350 . S
C234 H260 0.931 . S
N235 Co231 2.148 . S
N235 C232 1.301 . S
N235 C233 1.317 . S
N236 C232 1.328 . S
N236 C234 1.350 . S
H237 C232 0.930 . S
H238 C233 0.930 . S
C239 O240 1.224 . S
C239 O258 1.247 . S
O240 C239 1.224 . S
N241 Co231 2.128 . S
N241 C242 1.355 . S
N241 C244 1.311 . S
C242 N241 1.355 . S
C242 C243 1.363 . S
C242 H254 0.929 . S
C243 C242 1.363 . S
C243 N245 1.375 . S
C243 H261 0.931 1_554 S
C244 N241 1.311 . S
C244 N245 1.347 . S
C244 H255 0.929 . S
N245 C243 1.375 . S
N245 C244 1.347 . S
C246 C249 1.365 . S
C246 N251 1.328 . S
C246 H252 0.929 . S
C247 C248 1.362 . S
C247 C250 1.378 . S
C247 H262 0.929 . S
C248 C247 1.362 . S
C248 C249 1.366 . S
C249 C246 1.365 . S
C249 C248 1.366 . S
C249 H263 0.930 . S
C250 C247 1.378 . S
C250 N251 1.315 . S
C250 H253 0.930 . S
N251 Co231 2.194 . S
N251 C246 1.328 . S
N251 C250 1.315 . S
H252 C246 0.929 . S
H253 C250 0.930 . S
H254 C242 0.929 . S
H255 C244 0.929 . S
O256 Co231 2.351 . S
O256 C259 1.244 . S
O257 Co231 2.155 . S
O257 C259 1.240 . S
O258 Co231 2.096 . S
O258 C239 1.247 . S
C259 O256 1.244 . S
C259 O257 1.240 . S
H260 C234 0.931 . S
H261 C243 0.931 1_556 S
H262 C247 0.929 . S
H263 C249 0.930 . S
H264 C270 0.930 . S
H265 C273 0.930 . S
H266 C274 0.930 . S
H267 C275 0.930 . S
H268 C278 0.930 . S
H269 C279 0.930 . S
C270 H264 0.930 . S
C270 C271 1.355 . S
C270 C272 1.415 . S
C271 C270 1.355 . S
C271 C273 1.419 . S
C272 C270 1.415 . S
C272 C277 1.425 . S
C272 C279 1.409 . S
C273 H265 0.930 . S
C273 C271 1.419 . S
C273 C274 1.362 . S
C274 H266 0.930 . S
C274 C273 1.362 . S
C274 C277 1.409 . S
C275 H267 0.930 . S
C275 C276 1.355 . S
C275 C277 1.415 . S
C276 C275 1.355 . S
C276 C278 1.419 . S
C277 C272 1.425 . S
C277 C274 1.409 . S
C277 C275 1.415 . S
C278 H268 0.930 . S
C278 C276 1.419 . S
C278 C279 1.362 . S
C279 H269 0.930 . S
C279 C272 1.409 . S
C279 C278 1.362 . S
H280 C286 0.930 . S
H281 C289 0.930 . S
H282 C290 0.930 . S
H283 C291 0.930 . S
H284 C294 0.930 . S
H285 C295 0.930 . S
C286 H280 0.930 . S
C286 C287 1.355 . S
C286 C288 1.415 . S
C287 C286 1.355 . S
C287 C289 1.419 . S
C288 C286 1.415 . S
C288 C293 1.425 . S
C288 C295 1.409 . S
C289 H281 0.930 . S
C289 C287 1.419 . S
C289 C290 1.362 . S
C290 H282 0.930 . S
C290 C289 1.362 . S
C290 C293 1.409 . S
C291 H283 0.930 . S
C291 C292 1.355 . S
C291 C293 1.415 . S
C292 C291 1.355 . S
C292 C294 1.419 . S
C293 C288 1.425 . S
C293 C290 1.409 . S
C293 C291 1.415 . S
C294 H284 0.930 . S
C294 C292 1.419 . S
C294 C295 1.362 . S
C295 H285 0.930 . S
C295 C288 1.409 . S
C295 C294 1.362 . S
H296 C302 0.930 . S
H297 C305 0.930 . S
H298 C306 0.930 1_655 S
H299 C307 0.930 . S
H300 C310 0.930 . S
H301 C311 0.930 1_455 S
C302 H296 0.930 . S
C302 C303 1.355 . S
C302 C304 1.415 . S
C303 C302 1.355 . S
C303 C305 1.419 . S
C304 C302 1.415 . S
C304 C309 1.425 1_455 S
C304 C311 1.409 1_455 S
C305 H297 0.930 . S
C305 C303 1.419 . S
C305 C306 1.362 . S
C306 H298 0.930 1_455 S
C306 C305 1.362 . S
C306 C309 1.409 1_455 S
C307 H299 0.930 . S
C307 C308 1.355 . S
C307 C309 1.415 . S
C308 C307 1.355 . S
C308 C310 1.419 . S
C309 C304 1.425 1_655 S
C309 C306 1.409 1_655 S
C309 C307 1.415 . S
C310 H300 0.930 . S
C310 C308 1.419 . S
C310 C311 1.362 . S
C311 H301 0.930 1_655 S
C311 C304 1.409 1_655 S
C311 C310 1.362 . S
H312 C318 0.930 . S
H313 C321 0.930 . S
H314 C322 0.930 1_655 S
H315 C323 0.930 . S
H316 C326 0.930 . S
H317 C327 0.930 1_455 S
C318 H312 0.930 . S
C318 C319 1.355 . S
C318 C320 1.415 . S
C319 C318 1.355 . S
C319 C321 1.419 . S
C320 C318 1.415 . S
C320 C325 1.425 1_455 S
C320 C327 1.409 1_455 S
C321 H313 0.930 . S
C321 C319 1.419 . S
C321 C322 1.362 . S
C322 H314 0.930 1_455 S
C322 C321 1.362 . S
C322 C325 1.409 1_455 S
C323 H315 0.930 . S
C323 C324 1.355 . S
C323 C325 1.415 . S
C324 C323 1.355 . S
C324 C326 1.419 . S
C325 C320 1.425 1_655 S
C325 C322 1.409 1_655 S
C325 C323 1.415 . S
C326 H316 0.930 . S
C326 C324 1.419 . S
C326 C327 1.362 . S
C327 H317 0.930 1_655 S
C327 C320 1.409 1_655 S
C327 C326 1.362 . S
H328 C334 0.930 . S
H329 C337 0.930 . S
H330 C338 0.933 . S
H331 C339 0.930 . S
H332 C342 0.930 . S
H333 C343 0.933 . S
C334 H328 0.930 . S
C334 C335 1.355 . S
C334 C336 1.415 . S
C335 C334 1.355 . S
C335 C337 1.419 . S
C336 C334 1.415 . S
C336 C341 1.425 1_556 S
C336 C343 1.409 1_556 S
C337 H329 0.930 . S
C337 C335 1.419 . S
C337 C338 1.362 . S
C338 H330 0.933 . S
C338 C337 1.362 . S
C338 C341 1.409 1_556 S
C339 H331 0.930 . S
C339 C340 1.355 . S
C339 C341 1.415 . S
C340 C339 1.355 . S
C340 C342 1.419 . S
C341 C336 1.425 1_554 S
C341 C338 1.409 1_554 S
C341 C339 1.415 . S
C342 H332 0.930 . S
C342 C340 1.419 . S
C342 C343 1.362 . S
C343 H333 0.933 . S
C343 C336 1.409 1_554 S
C343 C342 1.362 . S
H344 C350 0.930 . S
H345 C353 0.930 . S
H346 C354 0.930 . S
H347 C355 0.930 . S
H348 C358 0.930 . S
H349 C359 0.930 . S
C350 H344 0.930 . S
C350 C351 1.355 . S
C350 C352 1.415 . S
C351 C350 1.355 . S
C351 C353 1.419 . S
C352 C350 1.415 . S
C352 C357 1.425 . S
C352 C359 1.409 . S
C353 H345 0.930 . S
C353 C351 1.419 . S
C353 C354 1.362 . S
C354 H346 0.930 . S
C354 C353 1.362 . S
C354 C357 1.409 . S
C355 H347 0.930 . S
C355 C356 1.355 . S
C355 C357 1.415 . S
C356 C355 1.355 . S
C356 C358 1.419 . S
C357 C352 1.425 . S
C357 C354 1.409 . S
C357 C355 1.415 . S
C358 H348 0.930 . S
C358 C356 1.419 . S
C358 C359 1.362 . S
C359 H349 0.930 . S
C359 C352 1.409 . S
C359 C358 1.362 . S
H360 C366 0.930 . S
H361 C369 0.930 . S
H362 C370 0.930 . S
H363 C371 0.930 . S
H364 C374 0.930 . S
H365 C375 0.930 . S
C366 H360 0.930 . S
C366 C367 1.355 . S
C366 C368 1.415 . S
C367 C366 1.355 . S
C367 C369 1.419 . S
C368 C366 1.415 . S
C368 C373 1.425 1_556 S
C368 C375 1.409 . S
C369 H361 0.930 . S
C369 C367 1.419 . S
C369 C370 1.362 1_556 S
C370 H362 0.930 . S
C370 C369 1.362 1_554 S
C370 C373 1.409 . S
C371 H363 0.930 . S
C371 C372 1.355 . S
C371 C373 1.415 . S
C372 C371 1.355 . S
C372 C374 1.419 . S
C373 C368 1.425 1_554 S
C373 C370 1.409 . S
C373 C371 1.415 . S
C374 H364 0.930 . S
C374 C372 1.419 . S
C374 C375 1.362 1_554 S
C375 H365 0.930 . S
C375 C368 1.409 . S
C375 C374 1.362 1_556 S
H376 C382 0.930 . S
H377 C385 0.930 . S
H378 C386 0.930 . S
H379 C387 0.930 . S
H380 C390 0.930 . S
H381 C391 0.930 . S
C382 H376 0.930 . S
C382 C383 1.355 . S
C382 C384 1.415 . S
C383 C382 1.355 . S
C383 C385 1.419 . S
C384 C382 1.415 . S
C384 C389 1.425 . S
C384 C391 1.409 . S
C385 H377 0.930 . S
C385 C383 1.419 . S
C385 C386 1.362 . S
C386 H378 0.930 . S
C386 C385 1.362 . S
C386 C389 1.409 . S
C387 H379 0.930 . S
C387 C388 1.355 . S
C387 C389 1.415 . S
C388 C387 1.355 . S
C388 C390 1.419 . S
C389 C384 1.425 . S
C389 C386 1.409 . S
C389 C387 1.415 . S
C390 H380 0.930 . S
C390 C388 1.419 . S
C390 C391 1.362 . S
C391 H381 0.930 . S
C391 C384 1.409 . S
C391 C390 1.362 . S
H392 C398 0.930 . S
H393 C401 0.930 . S
H394 C402 0.930 . S
H395 C403 0.930 . S
H396 C406 0.930 . S
H397 C407 0.930 . S
C398 H392 0.930 . S
C398 C399 1.355 . S
C398 C400 1.415 1_556 S
C399 C398 1.355 . S
C399 C401 1.419 . S
C400 C398 1.415 1_554 S
C400 C405 1.425 1_544 S
C400 C407 1.409 . S
C401 H393 0.930 . S
C401 C399 1.419 . S
C401 C402 1.362 1_545 S
C402 H394 0.930 . S
C402 C401 1.362 1_565 S
C402 C405 1.409 . S
C403 H395 0.930 . S
C403 C404 1.355 . S
C403 C405 1.415 1_554 S
C404 C403 1.355 . S
C404 C406 1.419 . S
C405 C400 1.425 1_566 S
C405 C402 1.409 . S
C405 C403 1.415 1_556 S
C406 H396 0.930 . S
C406 C404 1.419 . S
C406 C407 1.362 1_565 S
C407 H397 0.930 . S
C407 C400 1.409 . S
C407 C406 1.362 1_545 S
H408 C414 0.930 . S
H409 C417 0.930 . S
H410 C418 0.930 . S
H411 C419 0.930 . S
H412 C422 0.930 . S
H413 C423 0.930 . S
C414 H408 0.930 . S
C414 C415 1.355 . S
C414 C416 1.415 . S
C415 C414 1.355 . S
C415 C417 1.419 . S
C416 C414 1.415 . S
C416 C421 1.425 1_545 S
C416 C423 1.409 1_545 S
C417 H409 0.930 . S
C417 C415 1.419 . S
C417 C418 1.362 . S
C418 H410 0.930 . S
C418 C417 1.362 . S
C418 C421 1.409 1_545 S
C419 H411 0.930 . S
C419 C420 1.355 . S
C419 C421 1.415 . S
C420 C419 1.355 . S
C420 C422 1.419 . S
C421 C416 1.425 1_565 S
C421 C418 1.409 1_565 S
C421 C419 1.415 . S
C422 H412 0.930 . S
C422 C420 1.419 . S
C422 C423 1.362 . S
C423 H413 0.930 . S
C423 C416 1.409 1_565 S
C423 C422 1.362 . S
H424 C430 0.930 . S
H425 C433 0.930 . S
H426 C434 0.930 . S
H427 C435 0.930 . S
H428 C438 0.930 . S
H429 C439 0.930 . S
C430 H424 0.930 . S
C430 C431 1.355 . S
C430 C432 1.416 1_545 S
C431 C430 1.355 . S
C431 C433 1.419 . S
C432 C430 1.416 1_565 S
C432 C437 1.425 1_566 S
C432 C439 1.407 . S
C433 H425 0.930 . S
C433 C431 1.419 . S
C433 C434 1.362 1_556 S
C434 H426 0.930 . S
C434 C433 1.362 1_554 S
C434 C437 1.407 . S
C435 H427 0.930 . S
C435 C436 1.355 . S
C435 C437 1.416 1_565 S
C436 C435 1.355 . S
C436 C438 1.419 . S
C437 C432 1.425 1_544 S
C437 C434 1.407 . S
C437 C435 1.416 1_545 S
C438 H428 0.930 . S
C438 C436 1.419 . S
C438 C439 1.362 1_554 S
C439 H429 0.930 . S
C439 C432 1.407 . S
C439 C438 1.362 1_556 S
H440 C446 0.930 . S
H441 C449 0.930 . S
H442 C450 0.930 . S
H443 C451 0.930 . S
H444 C454 0.930 . S
H445 C455 0.930 . S
C446 H440 0.930 . S
C446 C447 1.355 . S
C446 C448 1.415 1_545 S
C447 C446 1.355 . S
C447 C449 1.419 . S
C448 C446 1.415 1_565 S
C448 C453 1.425 1_565 S
C448 C455 1.409 . S
C449 H441 0.930 . S
C449 C447 1.419 . S
C449 C450 1.362 . S
C450 H442 0.930 . S
C450 C449 1.362 . S
C450 C453 1.409 . S
C451 H443 0.930 . S
C451 C452 1.355 . S
C451 C453 1.415 1_565 S
C452 C451 1.355 . S
C452 C454 1.419 . S
C453 C448 1.425 1_545 S
C453 C450 1.409 . S
C453 C451 1.415 1_545 S
C454 H444 0.930 . S
C454 C452 1.419 . S
C454 C455 1.362 . S
C455 H445 0.930 . S
C455 C448 1.409 . S
C455 C454 1.362 . S
H456 C462 0.930 . S
H457 C465 0.930 . S
H458 C466 0.930 . S
H459 C467 0.930 . S
H460 C470 0.930 . S
H461 C471 0.930 1_556 S
C462 H456 0.930 . S
C462 C463 1.355 . S
C462 C464 1.415 . S
C463 C462 1.355 . S
C463 C465 1.419 . S
C464 C462 1.415 . S
C464 C469 1.425 . S
C464 C471 1.409 . S
C465 H457 0.930 . S
C465 C463 1.419 . S
C465 C466 1.362 . S
C466 H458 0.930 . S
C466 C465 1.362 . S
C466 C469 1.409 . S
C467 H459 0.930 . S
C467 C468 1.355 1_554 S
C467 C469 1.415 . S
C468 C467 1.355 1_556 S
C468 C470 1.419 . S
C469 C464 1.425 . S
C469 C466 1.409 . S
C469 C467 1.415 . S
C470 H460 0.930 . S
C470 C468 1.419 . S
C470 C471 1.362 1_556 S
C471 H461 0.930 1_554 S
C471 C464 1.409 . S
C471 C470 1.362 1_554 S
H472 C478 0.930 . S
H473 C481 0.930 . S
H474 C482 0.930 . S
H475 C483 0.930 . S
H476 C486 0.930 . S
H477 C487 0.930 . S
C478 H472 0.930 . S
C478 C479 1.355 . S
C478 C480 1.415 . S
C479 C478 1.355 . S
C479 C481 1.419 . S
C480 C478 1.415 . S
C480 C485 1.425 . S
C480 C487 1.409 . S
C481 H473 0.930 . S
C481 C479 1.419 . S
C481 C482 1.362 . S
C482 H474 0.930 . S
C482 C481 1.362 . S
C482 C485 1.409 . S
C483 H475 0.930 . S
C483 C484 1.355 . S
C483 C485 1.415 . S
C484 C483 1.355 . S
C484 C486 1.419 . S
C485 C480 1.425 . S
C485 C482 1.409 . S
C485 C483 1.415 . S
C486 H476 0.930 . S
C486 C484 1.419 . S
C486 C487 1.362 . S
C487 H477 0.930 . S
C487 C480 1.409 . S
C487 C486 1.362 . S
H488 C494 0.930 . S
H489 C497 0.930 . S
H490 C498 0.930 . S
H491 C499 0.930 . S
H492 C502 0.930 . S
H493 C503 0.930 . S
C494 H488 0.930 . S
C494 C495 1.355 1_556 S
C494 C496 1.415 . S
C495 C494 1.355 1_554 S
C495 C497 1.419 . S
C496 C494 1.415 . S
C496 C501 1.425 . S
C496 C503 1.409 . S
C497 H489 0.930 . S
C497 C495 1.419 . S
C497 C498 1.362 1_554 S
C498 H490 0.930 . S
C498 C497 1.362 1_556 S
C498 C501 1.409 . S
C499 H491 0.930 . S
C499 C500 1.355 . S
C499 C501 1.415 . S
C500 C499 1.355 . S
C500 C502 1.419 . S
C501 C496 1.425 . S
C501 C498 1.409 . S
C501 C499 1.415 . S
C502 H492 0.930 . S
C502 C500 1.419 . S
C502 C503 1.362 . S
C503 H493 0.930 . S
C503 C496 1.409 . S
C503 C502 1.362 . S
H504 C510 0.930 . S
H505 C513 0.930 . S
H506 C514 0.930 . S
H507 C515 0.930 . S
H508 C518 0.930 . S
H509 C519 0.930 . S
C510 H504 0.930 . S
C510 C511 1.355 . S
C510 C512 1.415 . S
C511 C510 1.355 . S
C511 C513 1.419 . S
C512 C510 1.415 . S
C512 C517 1.425 . S
C512 C519 1.409 . S
C513 H505 0.930 . S
C513 C511 1.419 . S
C513 C514 1.362 . S
C514 H506 0.930 . S
C514 C513 1.362 . S
C514 C517 1.409 . S
C515 H507 0.930 . S
C515 C516 1.355 . S
C515 C517 1.415 . S
C516 C515 1.355 . S
C516 C518 1.419 . S
C517 C512 1.425 . S
C517 C514 1.409 . S
C517 C515 1.415 . S
C518 H508 0.930 . S
C518 C516 1.419 . S
C518 C519 1.362 . S
C519 H509 0.930 . S
C519 C512 1.409 . S
C519 C518 1.362 . S
H520 C526 0.930 . S
H521 C529 0.930 . S
H522 C530 0.930 1_556 S
H523 C531 0.930 . S
H524 C534 0.930 . S
H525 C535 0.930 . S
C526 H520 0.930 . S
C526 C527 1.355 1_554 S
C526 C528 1.415 . S
C527 C526 1.355 1_556 S
C527 C529 1.419 . S
C528 C526 1.415 . S
C528 C533 1.425 . S
C528 C535 1.409 . S
C529 H521 0.930 . S
C529 C527 1.419 . S
C529 C530 1.362 1_556 S
C530 H522 0.930 1_554 S
C530 C529 1.362 1_554 S
C530 C533 1.409 . S
C531 H523 0.930 . S
C531 C532 1.355 . S
C531 C533 1.415 . S
C532 C531 1.355 . S
C532 C534 1.419 . S
C533 C528 1.425 . S
C533 C530 1.409 . S
C533 C531 1.415 . S
C534 H524 0.930 . S
C534 C532 1.419 . S
C534 C535 1.362 . S
C535 H525 0.930 . S
C535 C528 1.409 . S
C535 C534 1.362 . S
H536 C542 0.930 . S
H537 C545 0.930 . S
H538 C546 0.930 . S
H539 C547 0.930 . S
H540 C550 0.930 . S
H541 C551 0.930 . S
C542 H536 0.930 . S
C542 C543 1.355 . S
C542 C544 1.415 . S
C543 C542 1.355 . S
C543 C545 1.419 . S
C544 C542 1.415 . S
C544 C549 1.425 . S
C544 C551 1.409 . S
C545 H537 0.930 . S
C545 C543 1.419 . S
C545 C546 1.362 . S
C546 H538 0.930 . S
C546 C545 1.362 . S
C546 C549 1.409 . S
C547 H539 0.930 . S
C547 C548 1.355 . S
C547 C549 1.415 . S
C548 C547 1.355 . S
C548 C550 1.419 . S
C549 C544 1.425 . S
C549 C546 1.409 . S
C549 C547 1.415 . S
C550 H540 0.930 . S
C550 C548 1.419 . S
C550 C551 1.362 . S
C551 H541 0.930 . S
C551 C544 1.409 . S
C551 C550 1.362 . S
H552 C558 0.930 . S
H553 C561 0.930 . S
H554 C562 0.930 . S
H555 C563 0.930 . S
H556 C566 0.930 1_554 S
H557 C567 0.930 . S
C558 H552 0.930 . S
C558 C559 1.355 . S
C558 C560 1.415 . S
C559 C558 1.355 . S
C559 C561 1.419 . S
C560 C558 1.415 . S
C560 C565 1.425 . S
C560 C567 1.409 . S
C561 H553 0.930 . S
C561 C559 1.419 . S
C561 C562 1.362 . S
C562 H554 0.930 . S
C562 C561 1.362 . S
C562 C565 1.409 . S
C563 H555 0.930 . S
C563 C564 1.354 . S
C563 C565 1.415 . S
C564 C563 1.354 . S
C564 C566 1.419 . S
C565 C560 1.425 . S
C565 C562 1.409 . S
C565 C563 1.415 . S
C566 H556 0.930 1_556 S
C566 C564 1.419 . S
C566 C567 1.362 . S
C567 H557 0.930 . S
C567 C560 1.409 . S
C567 C566 1.362 . S
H568 C574 0.930 . S
H569 C577 0.930 . S
H570 C578 0.930 . S
H571 C579 0.930 . S
H572 C582 0.930 . S
H573 C583 0.930 . S
C574 H568 0.930 . S
C574 C575 1.355 . S
C574 C576 1.415 . S
C575 C574 1.355 . S
C575 C577 1.419 . S
C576 C574 1.415 . S
C576 C581 1.425 . S
C576 C583 1.409 . S
C577 H569 0.930 . S
C577 C575 1.419 . S
C577 C578 1.362 . S
C578 H570 0.930 . S
C578 C577 1.362 . S
C578 C581 1.409 . S
C579 H571 0.930 . S
C579 C580 1.355 . S
C579 C581 1.415 . S
C580 C579 1.355 . S
C580 C582 1.419 . S
C581 C576 1.425 . S
C581 C578 1.409 . S
C581 C579 1.415 . S
C582 H572 0.930 . S
C582 C580 1.419 . S
C582 C583 1.362 . S
C583 H573 0.930 . S
C583 C576 1.409 . S
C583 C582 1.362 . S
C271 C17 1.480 . S
C276 C116 1.510 . S
C287 C50 1.483 . S
C292 C83 1.498 . S
C303 C248 1.519 . S
C308 C149 1.516 . S
C319 C182 1.526 . S
C324 C215 1.505 . S
C335 N71 1.097 . S
C340 N5 1.156 . S
C351 N104 1.074 . S
C356 N38 1.116 . S
C367 C61 1.645 . S
C372 C127 1.622 . S
C383 C28 1.615 . S
C388 C94 1.648 . S
C399 N203 1.145 . S
C404 N137 1.164 . S
C415 N170 1.096 . S
C420 N236 1.155 . S
C431 C193 1.616 . S
C436 C259 1.650 . S
C447 C226 1.620 . S
C452 C160 1.647 . S
C463 C8 1.380 . S
C468 N179 1.403 . S
C479 C41 1.403 . S
C484 N146 1.377 . S
C495 N245 1.396 . S
C500 C74 1.400 . S
C511 C107 1.371 . S
C516 N212 1.352 . S
C527 N47 1.402 . S
C532 C140 1.394 . S
C543 C173 1.396 . S
C548 N14 1.364 . S
C559 C206 1.398 . S
C564 N113 1.369 1_556 S
C575 C239 1.402 . S
C580 N80 1.392 . S
