# Generated by pormake.
# Topology wkj, (6)-cn, num edge types: 1
# Building blocks:
#     Node 0, Type 0, BuildingBlock: BETFEN_clean_sbu_0, # of connection points: 6
#     Node 1, Type 0, BuildingBlock: BETFEN_clean_sbu_0, # of connection points: 6
#     Node 2, Type 0, BuildingBlock: BETFEN_clean_sbu_0, # of connection points: 6
#     Node 3, Type 0, BuildingBlock: BETFEN_clean_sbu_0, # of connection points: 6
#     Node 4, Type 0, BuildingBlock: BETFEN_clean_sbu_0, # of connection points: 6
#     Node 5, Type 0, BuildingBlock: BETFEN_clean_sbu_0, # of connection points: 6
#     Node 6, Type 0, BuildingBlock: BETFEN_clean_sbu_0, # of connection points: 6
#     Node 7, Type 0, BuildingBlock: BETFEN_clean_sbu_0, # of connection points: 6
#     Node 8, Type 0, BuildingBlock: BETFEN_clean_sbu_0, # of connection points: 6
#     Node 9, Type 0, BuildingBlock: BETFEN_clean_sbu_0, # of connection points: 6
#     Node 10, Type 0, BuildingBlock: BETFEN_clean_sbu_0, # of connection points: 6
#     Node 11, Type 0, BuildingBlock: BETFEN_clean_sbu_0, # of connection points: 6
#     Edge 12, Type (0, 0), BuildingBlock: XUDNAN_clean_linker_2, # of connection points: 2
#     Edge 13, Type (0, 0), BuildingBlock: XUDNAN_clean_linker_2, # of connection points: 2
#     Edge 14, Type (0, 0), BuildingBlock: XUDNAN_clean_linker_2, # of connection points: 2
#     Edge 15, Type (0, 0), BuildingBlock: XUDNAN_clean_linker_2, # of connection points: 2
#     Edge 16, Type (0, 0), BuildingBlock: XUDNAN_clean_linker_2, # of connection points: 2
#     Edge 17, Type (0, 0), BuildingBlock: XUDNAN_clean_linker_2, # of connection points: 2
#     Edge 18, Type (0, 0), BuildingBlock: XUDNAN_clean_linker_2, # of connection points: 2
#     Edge 19, Type (0, 0), BuildingBlock: XUDNAN_clean_linker_2, # of connection points: 2
#     Edge 20, Type (0, 0), BuildingBlock: XUDNAN_clean_linker_2, # of connection points: 2
#     Edge 21, Type (0, 0), BuildingBlock: XUDNAN_clean_linker_2, # of connection points: 2
#     Edge 22, Type (0, 0), BuildingBlock: XUDNAN_clean_linker_2, # of connection points: 2
#     Edge 23, Type (0, 0), BuildingBlock: XUDNAN_clean_linker_2, # of connection points: 2
#     Edge 24, Type (0, 0), BuildingBlock: XUDNAN_clean_linker_2, # of connection points: 2
#     Edge 25, Type (0, 0), BuildingBlock: XUDNAN_clean_linker_2, # of connection points: 2
#     Edge 26, Type (0, 0), BuildingBlock: XUDNAN_clean_linker_2, # of connection points: 2
#     Edge 27, Type (0, 0), BuildingBlock: XUDNAN_clean_linker_2, # of connection points: 2
#     Edge 28, Type (0, 0), BuildingBlock: XUDNAN_clean_linker_2, # of connection points: 2
#     Edge 29, Type (0, 0), BuildingBlock: XUDNAN_clean_linker_2, # of connection points: 2
#     Edge 30, Type (0, 0), BuildingBlock: XUDNAN_clean_linker_2, # of connection points: 2
#     Edge 31, Type (0, 0), BuildingBlock: XUDNAN_clean_linker_2, # of connection points: 2
#     Edge 32, Type (0, 0), BuildingBlock: XUDNAN_clean_linker_2, # of connection points: 2
#     Edge 33, Type (0, 0), BuildingBlock: XUDNAN_clean_linker_2, # of connection points: 2
#     Edge 34, Type (0, 0), BuildingBlock: XUDNAN_clean_linker_2, # of connection points: 2
#     Edge 35, Type (0, 0), BuildingBlock: XUDNAN_clean_linker_2, # of connection points: 2
#     Edge 36, Type (0, 0), BuildingBlock: XUDNAN_clean_linker_2, # of connection points: 2
#     Edge 37, Type (0, 0), BuildingBlock: XUDNAN_clean_linker_2, # of connection points: 2
#     Edge 38, Type (0, 0), BuildingBlock: XUDNAN_clean_linker_2, # of connection points: 2
#     Edge 39, Type (0, 0), BuildingBlock: XUDNAN_clean_linker_2, # of connection points: 2
#     Edge 40, Type (0, 0), BuildingBlock: XUDNAN_clean_linker_2, # of connection points: 2
#     Edge 41, Type (0, 0), BuildingBlock: XUDNAN_clean_linker_2, # of connection points: 2
#     Edge 42, Type (0, 0), BuildingBlock: XUDNAN_clean_linker_2, # of connection points: 2
#     Edge 43, Type (0, 0), BuildingBlock: XUDNAN_clean_linker_2, # of connection points: 2
#     Edge 44, Type (0, 0), BuildingBlock: XUDNAN_clean_linker_2, # of connection points: 2
#     Edge 45, Type (0, 0), BuildingBlock: XUDNAN_clean_linker_2, # of connection points: 2
#     Edge 46, Type (0, 0), BuildingBlock: XUDNAN_clean_linker_2, # of connection points: 2
#     Edge 47, Type (0, 0), BuildingBlock: XUDNAN_clean_linker_2, # of connection points: 2
# Relax obj value: 0.770
# Max RMSD: 0.175
# Mean RMSD: 0.175
data_MOF--net-wkj--node1-BETFEN_clean_sbu_0--edge1-XUDNAN_clean_linker_2
_symmetry_space_group_name_H-M    P1
_symmetry_Int_Tables_number       1
_symmetry_cell_setting            triclinic
loop_
_symmetry_equiv_pos_as_xyz
'x, y, z'
_cell_length_a     49.306519
_cell_length_b     49.343358
_cell_length_c     30.652883
_cell_angle_alpha  89.863953
_cell_angle_beta   90.549314
_cell_angle_gamma 120.37024
loop_
_atom_site_label
_atom_site_type_symbol
_atom_site_fract_x
_atom_site_fract_y
_atom_site_fract_z
_atom_type_partial_charge
Pr0 Pr 0.477 0.08661 0.36618 0.0
Pr1 Pr 0.53087 0.12932 0.34126 0.0
C2 C 0.41785 0.04003 0.38255 0.0
C3 C 0.39288 0.03387 0.41366 0.0
C4 C 0.38368 0.05608 0.4218 0.0
C5 C 0.36222 0.05091 0.45482 0.0
C6 C 0.3499 0.02364 0.48053 0.0
C7 C 0.35844 0.00103 0.47103 0.0
C8 C 0.37953 0.00604 0.43779 0.0
C9 C 0.47899 0.14557 0.35188 0.0
C10 C 0.52011 0.11366 0.45604 0.0
C11 C 0.58171 0.18751 0.33286 0.0
C12 C 0.59732 0.21645 0.30709 0.0
C13 C 0.63004 0.23566 0.31066 0.0
C14 C 0.64622 0.26131 0.2829 0.0
C15 C 0.62985 0.26814 0.25114 0.0
C16 C 0.59679 0.24995 0.24954 0.0
C17 C 0.5806 0.22422 0.27731 0.0
C18 C 0.54316 0.0833 0.35617 0.0
C19 C 0.48883 0.07398 0.26177 0.0
O20 O 0.44276 0.04081 0.3989 0.0
O21 O 0.42456 0.06169 0.35329 0.0
O22 O 0.4868 0.13142 0.32511 0.0
O23 O 0.47281 0.13082 0.3889 0.0
O24 O 0.53964 0.13131 0.42377 0.0
O25 O 0.4914 0.09305 0.44254 0.0
O26 O 0.55674 0.18172 0.35469 0.0
O27 O 0.57966 0.1624 0.31554 0.0
O28 O 0.52454 0.08747 0.38014 0.0
O29 O 0.55037 0.09854 0.31957 0.0
O30 O 0.4737 0.05965 0.29776 0.0
O31 O 0.51154 0.10413 0.26797 0.0
H32 H 0.39371 0.07783 0.40359 0.0
H33 H 0.35596 0.06866 0.46099 0.0
H34 H 0.35016 0.98008 0.49066 0.0
H35 H 0.38642 0.98868 0.43211 0.0
H36 H 0.64325 0.23005 0.33376 0.0
H37 H 0.67165 0.2749 0.28482 0.0
H38 H 0.58364 0.25429 0.2248 0.0
H39 H 0.5553 0.20963 0.27421 0.0
Pr40 Pr 0.39361 0.47992 0.70267 0.0
Pr41 Pr 0.41917 0.53781 0.67499 0.0
C42 C 0.36456 0.41825 0.72173 0.0
C43 C 0.3385 0.39937 0.7514 0.0
C44 C 0.31395 0.40577 0.75621 0.0
C45 C 0.29426 0.39443 0.79231 0.0
C46 C 0.29915 0.37693 0.8244 0.0
C47 C 0.32167 0.3679 0.81692 0.0
C48 C 0.34116 0.37905 0.78068 0.0
C49 C 0.34705 0.49502 0.67707 0.0
C50 C 0.40956 0.5268 0.78964 0.0
C51 C 0.41795 0.5908 0.65752 0.0
C52 C 0.39946 0.59984 0.62896 0.0
C53 C 0.40868 0.60922 0.58585 0.0
C54 C 0.38917 0.61375 0.55731 0.0
C55 C 0.36001 0.60931 0.57122 0.0
C56 C 0.35176 0.60199 0.6152 0.0
C57 C 0.37138 0.59748 0.64384 0.0
C58 C 0.46934 0.5401 0.71672 0.0
C59 C 0.43034 0.49159 0.60394 0.0
O60 O 0.3906 0.43912 0.74081 0.0
O61 O 0.3578 0.4292 0.68716 0.0
O62 O 0.36985 0.4986 0.65426 0.0
O63 O 0.35037 0.48742 0.71641 0.0
O64 O 0.41728 0.54653 0.75546 0.0
O65 O 0.3992 0.49704 0.7788 0.0
O66 O 0.4025 0.57172 0.68937 0.0
O67 O 0.43769 0.58406 0.63899 0.0
O68 O 0.44119 0.52069 0.7268 0.0
O69 O 0.47206 0.55486 0.68031 0.0
O70 O 0.42221 0.47489 0.64069 0.0
O71 O 0.42879 0.51786 0.60586 0.0
H72 H 0.31139 0.42142 0.73393 0.0
H73 H 0.27689 0.40142 0.79684 0.0
H74 H 0.32648 0.3548 0.84108 0.0
H75 H 0.36003 0.37397 0.77757 0.0
H76 H 0.43032 0.61166 0.57349 0.0
H77 H 0.3962 0.61873 0.52352 0.0
H78 H 0.32963 0.59858 0.62707 0.0
H79 H 0.36391 0.59093 0.67723 0.0
Pr80 Pr 0.90805 0.36695 1.03222 0.0
Pr81 Pr 0.87977 0.39529 1.00527 0.0
C82 C 0.93894 0.33616 1.05147 0.0
C83 C 0.9356 0.31325 1.08448 0.0
C84 C 0.95447 0.29959 1.08296 0.0
C85 C 0.95434 0.28107 1.1176 0.0
C86 C 0.93554 0.27631 0.15436 0.0
C87 C 0.91486 0.28813 0.15394 0.0
C88 C 0.91487 0.30642 1.11921 0.0
C89 C 0.8439 0.32248 1.01113 0.0
C90 C 0.88178 0.38787 1.12015 0.0
C91 C 0.82882 0.40133 0.99264 0.0
C92 C 0.79697 0.3857 0.97351 0.0
C93 C 0.78635 0.404 0.95306 0.0
C94 C 0.75606 0.38997 0.9354 0.0
C95 C 0.73562 0.35723 0.93798 0.0
C96 C 0.74597 0.339 0.95999 0.0
C97 C 0.77641 0.35312 0.97757 0.0
C98 C 0.93074 0.44435 1.04269 0.0
C99 C 0.93519 0.40219 0.93209 0.0
O100 O 0.94753 0.36421 1.06608 0.0
O101 O 0.91648 0.3263 1.02244 0.0
O102 O 0.86333 0.344 0.98629 0.0
O103 O 0.85649 0.32616 1.04958 0.0
O104 O 0.87144 0.39781 1.08638 0.0
O105 O 0.89773 0.37394 1.10824 0.0
O106 O 0.83287 0.3874 1.02611 0.0
O107 O 0.85298 0.41411 0.96654 0.0
O108 O 0.92031 0.41635 1.05525 0.0
O109 O 0.92001 0.44645 1.00468 0.0
O110 O 0.94186 0.39139 0.96807 0.0
O111 O 0.90934 0.40458 0.93553 0.0
H112 H 0.97031 0.30439 1.05598 0.0
H113 H 0.97027 0.272 1.1168 0.0
H114 H 0.90039 0.28536 0.18186 0.0
H115 H 0.89992 0.31662 1.12055 0.0
H116 H 0.80169 0.42919 0.95012 0.0
H117 H 0.74933 0.40474 0.91776 0.0
H118 H 0.73087 0.31377 0.9625 0.0
H119 H 0.78393 0.33852 0.99389 0.0
Pr120 Pr 0.48887 0.88807 0.36926 0.0
Pr121 Pr 0.43385 0.88005 0.34638 0.0
C122 C 0.55054 0.90765 0.38057 0.0
C123 C 0.57518 0.92693 0.41218 0.0
C124 C 0.56703 0.93277 0.45327 0.0
C125 C 0.59026 0.949 0.48467 0.0
C126 C 0.62194 0.95985 0.47525 0.0
C127 C 0.63031 0.95554 0.43335 0.0
C128 C 0.6069 0.93894 0.40192 0.0
C129 C 0.45152 0.82376 0.34754 0.0
C130 C 0.44347 0.87725 0.45937 0.0
C131 C 0.37117 0.85195 0.33353 0.0
C132 C 0.35089 0.82553 0.30403 0.0
C133 C 0.34446 0.83187 0.26174 0.0
C134 C 0.33944 0.81091 0.22795 0.0
C135 C 0.34109 0.78377 0.23639 0.0
C136 C 0.3407 0.77438 0.27958 0.0
C137 C 0.34536 0.79515 0.31347 0.0
C138 C 0.47522 0.94048 0.38022 0.0
C139 C 0.4827 0.91852 0.26543 0.0
O140 O 0.54035 0.92238 0.35634 0.0
O141 O 0.52791 0.88089 0.39496 0.0
O142 O 0.45271 0.84603 0.32436 0.0
O143 O 0.46679 0.83485 0.38367 0.0
O144 O 0.42357 0.87201 0.426 0.0
O145 O 0.47302 0.88675 0.44696 0.0
O146 O 0.38411 0.84498 0.3656 0.0
O147 O 0.3911 0.87849 0.3149 0.0
O148 O 0.46739 0.9147 0.39632 0.0
O149 O 0.46136 0.93627 0.34257 0.0
O150 O 0.50118 0.91692 0.29693 0.0
O151 O 0.45229 0.90318 0.27473 0.0
H152 H 0.54266 0.92412 0.46137 0.0
H153 H 0.58345 0.9526 0.51668 0.0
H154 H 0.65467 0.96396 0.42555 0.0
H155 H 0.61346 0.93488 0.37001 0.0
H156 H 0.34759 0.85466 0.25371 0.0
H157 H 0.3393 0.81828 0.19466 0.0
H158 H 0.34165 0.75336 0.28678 0.0
H159 H 0.34895 0.789 0.34611 0.0
Pr160 Pr 0.61269 0.5217 0.6969 0.0
Pr161 Pr 0.56277 0.45799 0.68567 0.0
C162 C 0.65843 0.57932 0.72341 0.0
C163 C 0.66608 0.5966 0.76472 0.0
C164 C 0.69125 0.6276 0.76756 0.0
C165 C 0.70036 0.64276 0.80814 0.0
C166 C 0.68465 0.62667 0.84601 0.0
C167 C 0.65894 0.59604 0.8428 0.0
C168 C 0.64961 0.58121 0.80243 0.0
C169 C 0.63539 0.48788 0.65044 0.0
C170 C 0.58255 0.47438 0.79253 0.0
C171 C 0.52812 0.39697 0.66223 0.0
C172 C 0.53217 0.37617 0.63241 0.0
C173 C 0.5146 0.34354 0.63819 0.0
C174 C 0.52121 0.32377 0.61352 0.0
C175 C 0.54575 0.3365 0.58315 0.0
C176 C 0.56295 0.36928 0.57716 0.0
C177 C 0.55626 0.38892 0.60164 0.0
C178 C 0.5444 0.49516 0.72979 0.0
C179 C 0.57047 0.51022 0.60221 0.0
O180 O 0.63297 0.57448 0.70323 0.0
O181 O 0.66124 0.55443 0.72407 0.0
O182 O 0.6174 0.47728 0.68356 0.0
O183 O 0.63928 0.51491 0.63931 0.0
O184 O 0.56462 0.45142 0.76461 0.0
O185 O 0.60243 0.50253 0.77455 0.0
O186 O 0.54796 0.4071 0.69491 0.0
O187 O 0.52403 0.41894 0.64489 0.0
O188 O 0.56064 0.50226 0.69602 0.0
O189 O 0.53228 0.46546 0.73795 0.0
O190 O 0.59063 0.53211 0.63034 0.0
O191 O 0.55928 0.48009 0.61407 0.0
H192 H 0.70418 0.63979 0.73866 0.0
H193 H 0.72001 0.6666 0.81015 0.0
H194 H 0.64611 0.58354 0.87164 0.0
H195 H 0.62992 0.55751 0.80089 0.0
H196 H 0.49625 0.33341 0.66242 0.0
H197 H 0.50752 0.29864 0.61868 0.0
H198 H 0.58147 0.37982 0.55322 0.0
H199 H 0.57027 0.41412 0.59716 0.0
Pr200 Pr 0.07867 0.60883 1.02527 0.0
Pr201 Pr 0.08795 0.5591 1.0111 0.0
C202 C 0.06429 0.65221 1.05157 0.0
C203 C 0.04434 0.65555 1.08367 0.0
C204 C 0.0286 0.67164 1.07228 0.0
C205 C 0.0103 0.6759 1.10299 0.0
C206 C 0.00797 0.66442 0.14547 0.0
C207 C 0.02296 0.64749 0.15637 0.0
C208 C 0.0409 0.64294 0.12565 0.0
C209 C 0.13833 0.63432 0.9848 0.0
C210 C 0.09528 0.57616 1.11896 0.0
C211 C 0.11218 0.52524 0.97862 0.0
C212 C 0.1448 0.53454 0.9684 0.0
C213 C 0.15106 0.52473 0.92893 0.0
C214 C 0.18137 0.54039 0.91199 0.0
C215 C 0.20605 0.56616 0.93438 0.0
C216 C 0.20029 0.57346 0.97636 0.0
C217 C 0.16983 0.55801 0.99304 0.0
C218 C 0.03345 0.5414 1.0571 0.0
C219 C 0.04021 0.56616 0.93155 0.0
O220 O 0.04973 0.63265 1.01966 0.0
O221 O 0.08834 0.65067 1.06662 0.0
O222 O 0.12816 0.61314 1.01445 0.0
O223 O 0.11607 0.63938 0.97286 0.0
O224 O 0.10078 0.55998 1.08899 0.0
O225 O 0.08594 0.59574 1.10278 0.0
O226 O 0.1054 0.52477 1.01973 0.0
O227 O 0.10036 0.53848 0.95415 0.0
O228 O 0.04211 0.55801 1.02352 0.0
O229 O 0.05027 0.52827 1.06339 0.0
O230 O 0.04616 0.59051 0.95748 0.0
O231 O 0.05378 0.54972 0.94477 0.0
H232 H 0.03079 0.6812 1.03979 0.0
H233 H -0.00131 0.68881 1.09401 0.0
H234 H 0.02089 0.63791 0.18882 0.0
H235 H 0.05231 0.62988 0.13485 0.0
H236 H 0.13202 0.50686 0.90932 0.0
H237 H 0.18451 0.53416 0.87935 0.0
H238 H 0.21877 0.59281 0.99478 0.0
H239 H 0.16552 0.56611 1.02359 0.0
Pr240 Pr 0.89039 0.49468 0.53638 0.0
Pr241 Pr 0.84792 0.44062 0.55648 0.0
C242 C 0.93058 0.5525 0.50582 0.0
C243 C 0.92736 0.57415 0.47628 0.0
C244 C 0.94526 0.60661 0.48346 0.0
C245 C 0.94398 0.62737 0.45356 0.0
C246 C 0.92502 0.61591 0.41576 0.0
C247 C 0.9055 0.58324 0.41047 0.0
C248 C 0.90653 0.56257 0.44058 0.0
C249 C 0.8311 0.4912 0.55677 0.0
C250 C 0.86573 0.44691 0.44648 0.0
C251 C 0.79483 0.39001 0.58614 0.0
C252 C 0.76656 0.38036 0.61198 0.0
C253 C 0.7416 0.34934 0.6085 0.0
C254 C 0.71547 0.33864 0.63537 0.0
C255 C 0.71399 0.35882 0.66628 0.0
C256 C 0.73808 0.39062 0.66728 0.0
C257 C 0.76422 0.40131 0.64028 0.0
C258 C 0.89444 0.42956 0.53693 0.0
C259 C 0.90389 0.48827 0.63898 0.0
O260 O 0.92712 0.52682 0.4883 0.0
O261 O 0.91663 0.5477 0.54326 0.0
O262 O 0.83605 0.47571 0.52893 0.0
O263 O 0.85695 0.50752 0.5787 0.0
O264 O 0.84685 0.42773 0.47768 0.0
O265 O 0.88599 0.4758 0.46045 0.0
O266 O 0.79646 0.40401 0.54952 0.0
O267 O 0.82178 0.40228 0.60669 0.0
O268 O 0.89927 0.45371 0.55872 0.0
O269 O 0.86677 0.41402 0.5198 0.0
O270 O 0.91915 0.50304 0.60355 0.0
O271 O 0.87381 0.46505 0.63065 0.0
H272 H 0.96094 0.6159 0.51143 0.0
H273 H 0.95895 0.65239 0.45895 0.0
H274 H 0.89093 0.57342 0.3816 0.0
H275 H 0.89197 0.53752 0.43496 0.0
H276 H 0.74285 0.33306 0.58609 0.0
H277 H 0.6972 0.31414 0.63364 0.0
H278 H 0.73787 0.40673 0.69102 0.0
H279 H 0.78311 0.42552 0.64271 0.0
Pr280 Pr 0.36468 0.89305 0.88996 0.0
Pr281 Pr 0.417 0.88517 0.89626 0.0
C282 C 0.31847 0.90469 0.86745 0.0
C283 C 0.31289 0.92102 0.83151 0.0
C284 C 0.29771 0.9381 0.83924 0.0
C285 C 0.29224 0.95353 0.80488 0.0
C286 C 0.30166 0.95168 0.76247 0.0
C287 C 0.31737 0.93505 0.7551 0.0
C288 C 0.32306 0.91997 0.78932 0.0
C289 C 0.34357 0.83421 0.9312 0.0
C290 C 0.39417 0.87945 0.79178 0.0
C291 C 0.45842 0.86628 0.91649 0.0
C292 C 0.456 0.83727 0.93271 0.0
C293 C 0.48214 0.83802 0.95224 0.0
C294 C 0.478 0.81314 0.97868 0.0
C295 C 0.4475 0.78797 0.98679 0.0
C296 C 0.42232 0.78509 0.96122 0.0
C297 C 0.4265 0.80984 0.93467 0.0
C298 C 0.43018 0.94001 0.85312 0.0
C299 C 0.41179 0.93065 0.97973 0.0
O300 O 0.34104 0.92229 0.89467 0.0
O301 O 0.31817 0.87888 0.85723 0.0
O302 O 0.36292 0.84449 0.89927 0.0
O303 O 0.33867 0.85617 0.9447 0.0
O304 O 0.41236 0.87424 0.81856 0.0
O305 O 0.37468 0.8875 0.81099 0.0
O306 O 0.44737 0.86488 0.87735 0.0
O307 O 0.45007 0.88088 0.9439 0.0
O308 O 0.41542 0.92995 0.88788 0.0
O309 O 0.44359 0.92416 0.84289 0.0
O310 O 0.38639 0.9256 0.95665 0.0
O311 O 0.42758 0.91731 0.96365 0.0
H312 H 0.29006 0.93944 0.87178 0.0
H313 H 0.28044 0.96659 0.81126 0.0
H314 H 0.32559 0.93399 0.72283 0.0
H315 H 0.3354 0.90749 0.78271 0.0
H316 H 0.50517 0.85896 0.95042 0.0
H317 H 0.49782 0.81575 0.99771 0.0
H318 H 0.39854 0.76603 0.96654 0.0
H319 H 0.40614 0.80882 0.91922 0.0
Pr320 Pr 0.48719 0.39967 0.21638 0.0
Pr321 Pr 0.54056 0.41068 0.23739 0.0
C322 C 0.42846 0.38337 0.19074 0.0
C323 C 0.40733 0.38569 0.15879 0.0
C324 C 0.40503 0.37507 1.11576 0.0
C325 C 0.38211 0.37392 1.08759 0.0
C326 C 0.36112 0.38336 1.10191 0.0
C327 C 0.36412 0.39499 0.14445 0.0
C328 C 0.38695 0.39595 0.17277 0.0
C329 C 0.48572 0.34551 0.25746 0.0
C330 C 0.53266 0.41864 0.12576 0.0
C331 C 0.59206 0.40569 0.25347 0.0
C332 C 0.59982 0.38411 0.2765 0.0
C333 C 0.61595 0.39353 0.31649 0.0
C334 C 0.61875 0.37199 0.34272 0.0
C335 C 0.60591 0.34051 0.32926 0.0
C336 C 0.59295 0.33212 0.28702 0.0
C337 C 0.58962 0.3536 0.26095 0.0
C338 C 0.55234 0.46981 0.22542 0.0
C339 C 0.4994 0.42484 0.31756 0.0
O340 O 0.44578 0.40767 0.21567 0.0
O341 O 0.44219 0.3676 0.18 0.0
O342 O 0.50101 0.36026 0.22452 0.0
O343 O 0.47361 0.36116 0.27365 0.0
O344 O 0.55276 0.42275 0.15842 0.0
O345 O 0.50333 0.40823 0.13888 0.0
O346 O 0.5753 0.39561 0.21782 0.0
O347 O 0.58357 0.42163 0.27788 0.0
O348 O 0.53374 0.44718 0.20072 0.0
O349 O 0.55963 0.46096 0.26115 0.0
O350 O 0.48575 0.42679 0.28141 0.0
O351 O 0.51943 0.41416 0.31079 0.0
H352 H 0.42048 0.36708 1.10408 0.0
H353 H 0.38075 0.36554 1.05454 0.0
H354 H 0.34829 0.40251 0.15613 0.0
H355 H 0.38817 0.40398 0.206 0.0
H356 H 0.62463 0.4171 0.32885 0.0
H357 H 0.62868 0.37963 0.37508 0.0
H358 H 0.58383 0.30847 0.27518 0.0
H359 H 0.57776 0.3458 0.22966 0.0
Pr360 Pr 0.09366 0.46847 0.53873 0.0
Pr361 Pr 0.11409 0.53139 0.56511 0.0
C362 C 0.06891 0.40627 0.52495 0.0
C363 C 0.05066 0.38164 0.49293 0.0
C364 C 0.03565 0.35002 0.50561 0.0
C365 C 0.01933 0.32622 0.47479 0.0
C366 C 0.01839 0.33393 0.43095 0.0
C367 C 0.03309 0.36568 0.41859 0.0
C368 C 0.04902 0.38939 0.4494 0.0
C369 C 0.15831 0.50012 0.56383 0.0
C370 C 0.10444 0.51785 0.45105 0.0
C371 C 0.15594 0.59255 0.57894 0.0
C372 C 0.18338 0.60996 0.60838 0.0
C373 C 0.18185 0.62754 0.64313 0.0
C374 C 0.20555 0.64 0.67498 0.0
C375 C 0.23138 0.63527 0.67256 0.0
C376 C 0.23413 0.6199 0.63581 0.0
C377 C 0.21038 0.60732 0.60409 0.0
C378 C 0.05078 0.4981 0.54745 0.0
C379 C 0.07421 0.47825 0.6463 0.0
O380 O 0.05426 0.41783 0.54625 0.0
O381 O 0.09707 0.42761 0.51303 0.0
O382 O 0.13651 0.50118 0.58418 0.0
O383 O 0.14707 0.48426 0.52811 0.0
O384 O 0.11426 0.5385 0.48444 0.0
O385 O 0.09367 0.48774 0.46274 0.0
O386 O 0.15887 0.57579 0.54833 0.0
O387 O 0.12813 0.57825 0.59702 0.0
O388 O 0.07186 0.49818 0.52464 0.0
O389 O 0.06294 0.5205 0.57657 0.0
O390 O 0.06932 0.45821 0.61329 0.0
O391 O 0.09391 0.50878 0.63758 0.0
H392 H 0.03674 0.34379 0.53924 0.0
H393 H 0.00801 0.30189 0.48493 0.0
H394 H 0.03215 0.37214 0.38503 0.0
H395 H 0.06029 0.41372 0.43921 0.0
H396 H 0.1615 0.63022 0.64695 0.0
H397 H 0.20238 0.65134 0.70308 0.0
H398 H 0.25386 0.61614 0.63275 0.0
H399 H 0.21259 0.59427 0.57736 0.0
Pr400 Pr 0.59015 0.07708 0.87692 0.0
Pr401 Pr 0.56873 0.11383 0.90282 0.0
C402 C 0.61164 0.0378 0.85838 0.0
C403 C 0.63189 0.0372 0.82433 0.0
C404 C 0.64243 0.01569 0.82641 0.0
C405 C 0.66033 0.01408 0.79249 0.0
C406 C 0.66772 0.0339 0.75599 0.0
C407 C 0.6584 0.05655 0.75541 0.0
C408 C 0.64072 0.05823 0.78937 0.0
C409 C 0.64005 0.13726 0.90601 0.0
C410 C 0.57507 0.10864 0.78828 0.0
C411 C 0.57557 0.17126 0.91208 0.0
C412 C 0.59622 0.20194 0.9329 0.0
C413 C 0.58277 0.21696 0.95495 0.0
C414 C 0.60185 0.24584 0.97535 0.0
C415 C 0.63486 0.26035 0.97407 0.0
C416 C 0.64833 0.24597 0.95008 0.0
C417 C 0.62918 0.21703 0.92962 0.0
C418 C 0.51584 0.06532 0.86761 0.0
C419 C 0.55657 0.05802 0.97924 0.0
O420 O 0.58419 0.03283 0.84552 0.0
O421 O 0.62544 0.06103 0.88585 0.0
O422 O 0.61513 0.11876 0.92592 0.0
O423 O 0.63857 0.12623 0.86704 0.0
O424 O 0.5682 0.12145 0.82201 0.0
O425 O 0.58515 0.08915 0.79996 0.0
O426 O 0.58824 0.16352 0.88093 0.0
O427 O 0.55665 0.14749 0.93675 0.0
O428 O 0.54322 0.07332 0.85429 0.0
O429 O 0.51565 0.07897 0.90385 0.0
O430 O 0.56405 0.04715 0.94419 0.0
O431 O 0.55886 0.0861 0.97353 0.0
H432 H 0.63617 -0.00036 0.85364 0.0
H433 H 0.66737 -0.00344 0.79403 0.0
H434 H 0.66312 0.07181 0.72757 0.0
H435 H 0.63307 0.07529 0.78766 0.0
H436 H 0.55746 0.20599 0.95728 0.0
H437 H 0.5906 0.25583 0.99433 0.0
H438 H 0.67364 0.25651 0.94851 0.0
H439 H 0.64022 0.20626 0.91196 0.0
Pr440 Pr 0.50327 0.61704 0.21724 0.0
Pr441 Pr 0.44856 0.56393 0.23196 0.0
C442 C 0.5643 0.66145 0.20912 0.0
C443 C 0.58878 0.6671 0.17755 0.0
C444 C 0.58187 0.66343 0.13272 0.0
C445 C 0.60452 0.66673 1.10306 0.0
C446 C 0.63442 0.67346 1.11761 0.0
C447 C 0.64128 0.67693 0.16252 0.0
C448 C 0.6186 0.6739 0.1923 0.0
C449 C 0.46161 0.63742 0.24252 0.0
C450 C 0.46101 0.58277 1.12176 0.0
C451 C 0.38609 0.52353 0.23903 0.0
C452 C 0.36017 0.52552 0.25985 0.0
C453 C 0.34552 0.50761 0.29706 0.0
C454 C 0.3251 0.51345 0.32128 0.0
C455 C 0.31902 0.53732 0.30863 0.0
C456 C 0.3314 0.55318 0.26925 0.0
C457 C 0.35175 0.54735 0.24507 0.0
C458 C 0.49556 0.55357 0.19962 0.0
C459 C 0.49748 0.57518 0.3153 0.0
O460 O 0.55479 0.63655 0.23327 0.0
O461 O 0.54124 0.66511 0.1952 0.0
O462 O 0.46296 0.61464 0.26074 0.0
O463 O 0.47967 0.64733 0.20896 0.0
O464 O 0.44063 0.56313 0.15128 0.0
O465 O 0.4884 0.60555 0.13872 0.0
O466 O 0.39903 0.5418 0.20558 0.0
O467 O 0.40682 0.52259 0.26488 0.0
O468 O 0.48647 0.57094 0.18506 0.0
O469 O 0.47971 0.53932 0.23423 0.0
O470 O 0.51539 0.59953 0.28878 0.0
O471 O 0.4681 0.55653 0.30145 0.0
H472 H 0.55877 0.65739 1.12057 0.0
H473 H 0.59825 0.66301 1.06872 0.0
H474 H 0.66405 0.68183 0.17455 0.0
H475 H 0.62413 0.67628 0.22687 0.0
H476 H 0.35132 0.49042 0.30888 0.0
H477 H 0.31619 0.50109 0.35178 0.0
H478 H 0.32702 0.57161 0.25872 0.0
H479 H 0.3622 0.5613 0.21615 0.0
H480 H 0.48967 0.18108 0.27429 0.0
H481 H 0.46719 0.17956 0.41101 0.0
H482 H 0.46676 0.22899 0.4014 0.0
H483 H 0.54025 0.2613 0.26412 0.0
H484 H 0.52786 0.26911 0.21235 0.0
H485 H 0.52308 0.23103 0.22345 0.0
H486 H 0.46425 0.20103 0.21104 0.0
H487 H 0.46696 0.2373 0.19391 0.0
H488 H 0.44003 0.21415 0.23631 0.0
H489 H 0.46827 0.27918 0.37753 0.0
H490 H 0.47192 0.32577 0.3417 0.0
H491 H 0.4954 0.29847 0.21984 0.0
C492 C 0.48456 0.19109 0.3022 0.0
C493 C 0.47847 0.17586 0.34373 0.0
C494 C 0.47189 0.1902 0.37897 0.0
C495 C 0.47154 0.21849 0.37376 0.0
C496 C 0.47781 0.23294 0.33286 0.0
C497 C 0.48392 0.2196 0.29746 0.0
C498 C 0.48949 0.24012 0.25696 0.0
C499 C 0.52212 0.25112 0.23803 0.0
C500 C 0.46365 0.22207 0.22251 0.0
C501 C 0.48694 0.26766 0.27553 0.0
C502 C 0.4795 0.26248 0.31928 0.0
C503 C 0.47422 0.2834 0.34334 0.0
C504 C 0.47631 0.30999 0.32253 0.0
C505 C 0.48415 0.31647 0.27782 0.0
C506 C 0.48974 0.29477 0.25416 0.0
H507 H 0.307 0.4737 0.60374 0.0
H508 H 0.32821 0.53076 0.72015 0.0
H509 H 0.28517 0.54091 0.70162 0.0
H510 H 0.28496 0.51575 0.53278 0.0
H511 H 0.25032 0.48353 0.5081 0.0
H512 H 0.28194 0.47818 0.52747 0.0
H513 H 0.24784 0.43382 0.57891 0.0
H514 H 0.21413 0.43487 0.55788 0.0
H515 H 0.22184 0.43784 0.6158 0.0
H516 H 0.23818 0.54392 0.67152 0.0
H517 H 0.18961 0.53648 0.63565 0.0
H518 H 0.19661 0.47629 0.53909 0.0
C519 C 0.30291 0.48878 0.62489 0.0
C520 C 0.32168 0.50197 0.66316 0.0
C521 C 0.31461 0.52064 0.69057 0.0
C522 C 0.29013 0.5266 0.68022 0.0
C523 C 0.27195 0.51319 0.64262 0.0
C524 C 0.27772 0.49423 0.61566 0.0
C525 C 0.25292 0.48061 0.57922 0.0
C526 C 0.26839 0.4901 0.5342 0.0
C527 C 0.23301 0.44466 0.5832 0.0
C528 C 0.23309 0.49574 0.58897 0.0
C529 C 0.24437 0.51423 0.62598 0.0
C530 C 0.22912 0.52935 0.64273 0.0
C531 C 0.20143 0.52501 0.62201 0.0
C532 C 0.18894 0.5059 0.5843 0.0
C533 C 0.20549 0.4914 0.56751 0.0
H534 H 0.81692 0.2918 0.93049 0.0
H535 H 0.79503 0.29309 1.06684 0.0
H536 H 0.74126 0.24896 1.0537 0.0
H537 H 0.73755 0.26886 0.88746 0.0
H538 H 0.73782 0.2434 0.84558 0.0
H539 H 0.77424 0.27685 0.86397 0.0
H540 H 0.79644 0.24063 0.88279 0.0
H541 H 0.76029 0.20702 0.86423 0.0
H542 H 0.77475 0.2077 0.91869 0.0
H543 H 0.68948 0.20314 1.02692 0.0
H544 H 0.64507 0.15811 0.9897 0.0
H545 H 0.69865 0.18232 0.87014 0.0
C546 C 0.80068 0.28301 0.95744 0.0
C547 C 0.81065 0.29646 0.99996 0.0
C548 C 0.78844 0.28357 1.03413 0.0
C549 C 0.75759 0.25836 1.02691 0.0
C550 C 0.74868 0.24531 0.98518 0.0
C551 C 0.76956 0.25705 0.95093 0.0
C552 C 0.75395 0.23746 0.90975 0.0
C553 C 0.75072 0.25785 0.87454 0.0
C554 C 0.77247 0.22231 0.89287 0.0
C555 C 0.72153 0.21253 0.92646 0.0
C556 C 0.71897 0.21803 0.96999 0.0
C557 C 0.69144 0.19865 0.9929 0.0
C558 C 0.66615 0.17289 0.9713 0.0
C559 C 0.66792 0.16596 0.92684 0.0
C560 C 0.69624 0.18651 0.90414 0.0
H561 H 0.46321 0.69006 0.20776 0.0
H562 H 0.44092 0.63614 0.32731 0.0
H563 H 0.43231 0.67609 0.3638 0.0
H564 H 0.50511 0.76532 0.25583 0.0
H565 H 0.49092 0.78408 0.21926 0.0
H566 H 0.493 0.75052 0.20109 0.0
H567 H 0.43469 0.72222 0.17997 0.0
H568 H 0.43017 0.75407 0.19958 0.0
H569 H 0.40561 0.71526 0.22054 0.0
H570 H 0.42622 0.72246 0.38781 0.0
H571 H 0.42974 0.77344 0.40007 0.0
H572 H 0.45674 0.79921 0.26547 0.0
C573 C 0.45581 0.68612 0.24145 0.0
C574 C 0.45242 0.65927 0.26429 0.0
C575 C 0.44322 0.65581 0.30857 0.0
C576 C 0.43811 0.67844 0.32957 0.0
C577 C 0.44164 0.70443 0.30603 0.0
C578 C 0.45042 0.7084 0.2629 0.0
C579 C 0.45408 0.73919 0.24547 0.0
C580 C 0.48776 0.76107 0.22944 0.0
C581 C 0.42973 0.73225 0.20918 0.0
C582 C 0.44702 0.75269 0.28585 0.0
C583 C 0.43931 0.73178 0.32015 0.0
C584 C 0.43226 0.7388 0.36103 0.0
C585 C 0.43416 0.76801 0.36761 0.0
C586 C 0.44315 0.79074 0.33389 0.0
C587 C 0.44909 0.78245 0.29191 0.0
H588 H 0.69976 0.52588 0.65859 0.0
H589 H 0.62843 0.4332 0.61498 0.0
H590 H 0.67021 0.42394 0.58696 0.0
H591 H 0.75299 0.54502 0.57134 0.0
H592 H 0.7882 0.56444 0.60442 0.0
H593 H 0.75293 0.56334 0.62213 0.0
H594 H 0.75507 0.53791 0.695 0.0
H595 H 0.79055 0.53923 0.67771 0.0
H596 H 0.75713 0.50246 0.69416 0.0
H597 H 0.72076 0.42773 0.55599 0.0
H598 H 0.77402 0.44041 0.5346 0.0
H599 H 0.81397 0.5283 0.60571 0.0
C600 C 0.69294 0.50339 0.6438 0.0
C601 C 0.66051 0.48015 0.63925 0.0
C602 C 0.65283 0.45121 0.61938 0.0
C603 C 0.67656 0.44588 0.60309 0.0
C604 C 0.70823 0.46948 0.6075 0.0
C605 C 0.71644 0.49741 0.62836 0.0
C606 C 0.75219 0.51878 0.62961 0.0
C607 C 0.76215 0.54973 0.60544 0.0
C608 C 0.76446 0.52496 0.67694 0.0
C609 C 0.76299 0.49894 0.60538 0.0
C610 C 0.73717 0.47072 0.59243 0.0
C611 C 0.74098 0.44946 0.56696 0.0
C612 C 0.77159 0.45691 0.55493 0.0
C613 C 0.79871 0.48504 0.56911 0.0
C614 C 0.79404 0.50631 0.59484 0.0
H615 H 0.27936 0.80982 0.92553 0.0
H616 H 0.34741 0.78084 0.95139 0.0
H617 H 0.30366 0.72687 0.96813 0.0
H618 H 0.22405 0.76471 1.00781 0.0
H619 H 0.18993 0.75517 0.97475 0.0
H620 H 0.22654 0.7908 0.96474 0.0
H621 H 0.22489 0.77422 0.88432 0.0
H622 H 0.18815 0.73862 0.89401 0.0
H623 H 0.22094 0.73664 0.87226 0.0
H624 H 0.2491 0.67492 0.98874 0.0
H625 H 0.1936 0.63248 1.00005 0.0
H626 H 0.16202 0.69522 0.95473 0.0
C627 C 0.2852 0.7921 0.93432 0.0
C628 C 0.31734 0.80009 0.93692 0.0
C629 C 0.32337 0.77574 0.9486 0.0
C630 C 0.29842 0.74486 0.95852 0.0
C631 C 0.26704 0.73798 0.95611 0.0
C632 C 0.26057 0.76106 0.94338 0.0
C633 C 0.22511 0.74801 0.94198 0.0
C634 C 0.21587 0.76573 0.97424 0.0
C635 C 0.21413 0.74946 0.89537 0.0
C636 C 0.2123 0.71405 0.95636 0.0
C637 C 0.2367 0.70859 0.96502 0.0
C638 C 0.23009 0.67914 0.98102 0.0
C639 C 0.19827 0.65497 0.98757 0.0
C640 C 0.17275 0.65974 0.97787 0.0
C641 C 0.18046 0.69004 0.96197 0.0
H642 H 0.68152 0.26591 1.02704 0.0
H643 H 0.6298 0.31214 0.99211 0.0
H644 H 0.6421 0.33794 1.06383 0.0
H645 H 0.65294 0.23894 1.11276 0.0
H646 H 0.68562 0.24501 0.14682 0.0
H647 H 0.68887 0.24467 1.08906 0.0
H648 H 0.73841 0.29987 1.09057 0.0
H649 H 0.7359 0.30016 0.14925 0.0
H650 H 0.73759 0.33181 1.11764 0.0
H651 H 0.6364 0.33638 0.14207 0.0
H652 H 0.61957 0.31317 0.21489 0.0
H653 H 0.67641 0.26969 0.20369 0.0
C654 C 0.67482 0.28327 1.03348 0.0
C655 C 0.6541 0.28647 1.00479 0.0
C656 C 0.64529 0.30898 1.01413 0.0
C657 C 0.65237 0.3239 1.05485 0.0
C658 C 0.66896 0.31664 1.08534 0.0
C659 C 0.68146 0.29791 1.07441 0.0
C660 C 0.69206 0.28788 1.11483 0.0
C661 C 0.67901 0.25203 1.11589 0.0
C662 C 0.72813 0.30602 1.11829 0.0
C663 C 0.67797 0.29848 0.1499 0.0
C664 C 0.66642 0.31667 0.13253 0.0
C665 C 0.64657 0.32345 0.15647 0.0
C666 C 0.63685 0.30996 0.19781 0.0
C667 C 0.647 0.28994 0.21492 0.0
C668 C 0.66924 0.28579 0.19177 0.0
H669 H 0.34526 0.59769 0.33268 0.0
H670 H 0.26644 0.50545 0.35979 0.0
H671 H 0.25655 0.52559 0.42777 0.0
H672 H 0.37669 0.60544 0.42703 0.0
H673 H 0.39407 0.64745 0.43189 0.0
H674 H 0.38491 0.62945 0.37922 0.0
H675 H 0.35165 0.65628 0.3642 0.0
H676 H 0.35975 0.67244 0.41863 0.0
H677 H 0.31966 0.64846 0.39995 0.0
H678 H 0.26551 0.549 0.50011 0.0
H679 H 0.29659 0.567 0.56773 0.0
H680 H 0.37114 0.6457 0.49886 0.0
C681 C 0.3247 0.58234 0.35165 0.0
C682 C 0.30632 0.55025 0.34085 0.0
C683 C 0.28052 0.53026 0.3673 0.0
C684 C 0.27466 0.54167 0.40584 0.0
C685 C 0.29499 0.57302 0.41769 0.0
C686 C 0.31957 0.59316 0.39103 0.0
C687 C 0.34349 0.62222 0.4156 0.0
C688 C 0.37669 0.62634 0.41335 0.0
C689 C 0.34361 0.65158 0.39859 0.0
C690 C 0.33028 0.61398 0.46118 0.0
C691 C 0.3014 0.58638 0.46137 0.0
C692 C 0.28782 0.57082 0.50023 0.0
C693 C 0.30567 0.58138 0.53883 0.0
C694 C 0.33679 0.60722 0.53806 0.0
C695 C 0.34759 0.62553 0.49992 0.0
H696 H 0.71415 0.30544 0.88724 0.0
H697 H 0.69278 0.37675 0.92562 0.0
H698 H 0.66262 0.3681 0.85776 0.0
H699 H 0.73751 0.32658 0.79734 0.0
H700 H 0.72068 0.29062 0.76605 0.0
H701 H 0.72466 0.28929 0.8235 0.0
H702 H 0.66528 0.24965 0.83045 0.0
H703 H 0.66103 0.25062 0.77201 0.0
H704 H 0.63703 0.25873 0.8075 0.0
H705 H 0.6602 0.372 0.77941 0.0
H706 H 0.68036 0.38302 0.70445 0.0
H707 H 0.69974 0.30696 0.71267 0.0
C708 C 0.70119 0.31754 0.88266 0.0
C709 C 0.70652 0.34234 0.9108 0.0
C710 C 0.68955 0.35806 0.90386 0.0
C711 C 0.67211 0.35307 0.86538 0.0
C712 C 0.67113 0.33165 0.83482 0.0
C713 C 0.68399 0.31289 0.844 0.0
C714 C 0.68613 0.29694 0.80305 0.0
C715 C 0.71921 0.30125 0.79716 0.0
C716 C 0.66085 0.26191 0.80326 0.0
C717 C 0.67865 0.31446 0.76882 0.0
C718 C 0.66822 0.33301 0.78773 0.0
C719 C 0.66698 0.35663 0.76401 0.0
C720 C 0.67874 0.36298 0.72144 0.0
C721 C 0.69156 0.34576 0.70296 0.0
C722 C 0.68922 0.31982 0.72576 0.0
H723 H 0.46775 0.81954 1.06176 0.0
H724 H 0.40695 0.72612 1.00982 0.0
H725 H 0.37711 0.71096 1.07867 0.0
H726 H 0.46258 0.80517 0.18171 0.0
H727 H 0.45742 0.83816 0.19195 0.0
H728 H 0.48143 0.83911 0.14735 0.0
H729 H 0.4495 0.85121 1.09292 0.0
H730 H 0.42517 0.85112 0.13601 0.0
H731 H 0.40747 0.82579 1.08936 0.0
H732 H 0.34579 0.71068 0.14385 0.0
H733 H 0.31853 0.72485 0.1996 0.0
H734 H 0.3973 0.82025 0.20129 0.0
C735 C 0.4497 0.79518 1.06594 0.0
C736 C 0.43993 0.77385 1.03076 0.0
C737 C 0.41509 0.74262 1.03678 0.0
C738 C 0.39788 0.73395 1.07567 0.0
C739 C 0.40579 0.7569 1.1077 0.0
C740 C 0.43151 0.78691 1.10326 0.0
C741 C 0.43083 0.80967 0.13546 0.0
C742 C 0.45972 0.82379 0.16597 0.0
C743 C 0.42805 0.83593 1.11201 0.0
C744 C 0.40093 0.78783 0.15898 0.0
C745 C 0.38668 0.75748 0.14293 0.0
C746 C 0.35697 0.73426 0.15705 0.0
C747 C 0.34153 0.74246 0.18819 0.0
C748 C 0.35567 0.7737 0.20352 0.0
C749 C 0.38587 0.79627 0.18936 0.0
H750 H 0.64375 0.34412 0.39754 0.0
H751 H 0.55311 0.28253 0.33774 0.0
H752 H 0.53292 0.25712 0.40754 0.0
H753 H 0.62987 0.28891 0.50489 0.0
H754 H 0.64957 0.32448 0.53685 0.0
H755 H 0.6633 0.3234 0.48289 0.0
H756 H 0.65877 0.37171 0.46188 0.0
H757 H 0.64472 0.37259 0.51484 0.0
H758 H 0.62145 0.36988 0.46747 0.0
H759 H 0.51468 0.25832 0.47894 0.0
H760 H 0.50343 0.28256 0.54069 0.0
H761 H 0.60308 0.34536 0.56158 0.0
C762 C 0.62015 0.32411 0.39912 0.0
C763 C 0.59986 0.31611 0.36258 0.0
C764 C 0.56938 0.28937 0.36499 0.0
C765 C 0.5575 0.27474 0.40505 0.0
C766 C 0.57623 0.2871 0.44236 0.0
C767 C 0.60758 0.31057 0.43963 0.0
C768 C 0.62022 0.32581 0.48385 0.0
C769 C 0.64201 0.31498 0.50327 0.0
C770 C 0.63718 0.36209 0.4818 0.0
C771 C 0.58984 0.31191 0.5091 0.0
C772 C 0.56515 0.28801 0.48577 0.0
C773 C 0.53395 0.27602 0.49832 0.0
C774 C 0.52768 0.29004 0.53349 0.0
C775 C 0.55248 0.31601 0.55547 0.0
C776 C 0.58384 0.32551 0.54499 0.0
H777 H 0.23833 0.55378 0.87291 0.0
H778 H 0.23629 0.63027 0.93827 0.0
H779 H 0.2656 0.66556 0.87883 0.0
H780 H 0.31384 0.60819 0.79892 0.0
H781 H 0.29501 0.58176 0.75377 0.0
H782 H 0.29069 0.56649 0.80842 0.0
H783 H 0.23036 0.53782 0.80126 0.0
H784 H 0.23379 0.55168 0.74683 0.0
H785 H 0.21155 0.55974 0.78572 0.0
H786 H 0.27195 0.68491 0.80514 0.0
H787 H 0.25569 0.68556 0.72922 0.0
H788 H 0.25029 0.59649 0.70575 0.0
C789 C 0.24557 0.5784 0.87543 0.0
C790 C 0.23448 0.58901 0.90984 0.0
C791 C 0.24461 0.6214 0.91264 0.0
C792 C 0.26135 0.64179 0.87857 0.0
C793 C 0.26798 0.62956 0.84189 0.0
C794 C 0.26122 0.59863 0.84061 0.0
C795 C 0.26284 0.58875 0.79436 0.0
C796 C 0.29235 0.58614 0.78856 0.0
C797 C 0.23284 0.55776 0.78134 0.0
C798 C 0.26594 0.61671 0.76944 0.0
C799 C 0.27109 0.64089 0.79741 0.0
C800 C 0.26902 0.66664 0.78282 0.0
C801 C 0.25945 0.66671 0.73965 0.0
C802 C 0.25157 0.64095 0.71171 0.0
C803 C 0.25694 0.61684 0.72607 0.0
H804 H 0.39618 0.92782 1.0736 0.0
H805 H 0.46062 0.9926 0.97816 0.0
H806 H 0.48419 0.0339 1.03496 0.0
H807 H 0.38773 0.9878 0.13803 0.0
H808 H 0.38647 0.97035 0.19025 0.0
H809 H 0.37288 0.94617 0.14186 0.0
H810 H 0.41045 0.92621 0.15918 0.0
H811 H 0.42586 0.95114 0.20674 0.0
H812 H 0.45184 0.95356 0.16415 0.0
H813 H 0.50176 0.07175 1.10613 0.0
H814 H 0.51403 0.0969 0.17895 0.0
H815 H 0.44215 0.00938 0.2348 0.0
C816 C 0.41528 0.95066 1.06425 0.0
C817 C 0.42582 0.95574 1.019 0.0
C818 C 0.45131 0.98673 1.01087 0.0
C819 C 0.4652 0.01086 1.04376 0.0
C820 C 0.4547 0.00504 1.08733 0.0
C821 C 0.43029 0.97537 1.09774 0.0
C822 C 0.4241 0.97531 0.14769 0.0
C823 C 0.39081 0.96954 0.15489 0.0
C824 C 0.42828 0.95005 0.17088 0.0
C825 C 0.44914 0.00893 0.16398 0.0
C826 C 0.46592 0.02591 0.12802 0.0
C827 C 0.48892 0.0579 0.13405 0.0
C828 C 0.49589 0.07242 0.17653 0.0
C829 C 0.48005 0.05624 0.21527 0.0
C830 C 0.45579 0.02347 0.20752 0.0
H831 H 0.45699 0.44724 0.34523 0.0
H832 H 0.52251 0.42222 0.40053 0.0
H833 H 0.51178 0.43495 0.47404 0.0
H834 H 0.46975 0.51285 0.41989 0.0
H835 H 0.42868 0.49945 0.4215 0.0
H836 H 0.44476 0.49033 0.37489 0.0
H837 H 0.40171 0.4318 0.38998 0.0
H838 H 0.38975 0.44291 0.43901 0.0
H839 H 0.40232 0.41443 0.44151 0.0
H840 H 0.49531 0.45368 0.54646 0.0
H841 H 0.47364 0.47156 0.60466 0.0
H842 H 0.41759 0.48622 0.50827 0.0
C843 C 0.46955 0.44469 0.37258 0.0
C844 C 0.49156 0.43362 0.3645 0.0
C845 C 0.50606 0.43053 0.40327 0.0
C846 C 0.49991 0.43789 0.44613 0.0
C847 C 0.47914 0.44936 0.45254 0.0
C848 C 0.46374 0.45237 0.41654 0.0
C849 C 0.44064 0.46297 0.43343 0.0
C850 C 0.4463 0.49316 0.41094 0.0
C851 C 0.40658 0.43647 0.42549 0.0
C852 C 0.44755 0.46836 0.4835 0.0
C853 C 0.46933 0.45942 0.49373 0.0
C854 C 0.47851 0.46081 0.53778 0.0
C855 C 0.4658 0.47125 0.57145 0.0
C856 C 0.44375 0.48146 0.56338 0.0
C857 C 0.43469 0.47961 0.51748 0.0
H858 H 0.0159 0.42138 0.67912 0.0
H859 H 0.09361 0.50951 0.72608 0.0
H860 H 0.07047 0.49764 0.79955 0.0
H861 H 0.9556 0.42438 0.73236 0.0
H862 H 0.93163 0.38521 0.75352 0.0
H863 H 0.95506 0.3919 0.70564 0.0
H864 H 0.98552 0.36799 0.73455 0.0
H865 H 0.96042 0.35575 0.78167 0.0
H866 H 0.00254 0.37773 0.78855 0.0
H867 H 0.03618 0.47682 0.87313 0.0
H868 H -0.00424 0.45373 0.93041 0.0
H869 H 0.93348 0.38112 0.83977 0.0
C870 C 0.0281 0.43871 0.70434 0.0
C871 C 0.05764 0.46741 0.69364 0.0
C872 C 0.07169 0.48768 0.73051 0.0
C873 C 0.05844 0.48082 0.77357 0.0
C874 C 0.02931 0.45346 0.78225 0.0
C875 C 0.01405 0.43273 0.7482 0.0
C876 C 0.98202 0.4058 0.76648 0.0
C877 C 0.95441 0.40163 0.73796 0.0
C878 C 0.98265 0.37498 0.76787 0.0
C879 C 0.98015 0.41616 0.81426 0.0
C880 C 0.0087 0.44301 0.82306 0.0
C881 C 0.01388 0.45606 0.86546 0.0
C882 C -0.00984 0.44251 0.89867 0.0
C883 C 0.95964 0.41559 0.89183 0.0
C884 C 0.9554 0.40218 0.84782 0.0
H885 H 0.49152 0.91186 0.17047 0.0
H886 H 0.50307 0.98218 0.26468 0.0
H887 H 0.52359 0.02236 0.2068 0.0
H888 H 0.56177 0.96476 1.10144 0.0
H889 H 0.54238 0.94765 1.05025 0.0
H890 H 0.53055 0.92431 1.09928 0.0
H891 H 0.47411 0.91122 1.08552 0.0
H892 H 0.48504 0.93557 1.03743 0.0
H893 H 0.46534 0.9423 1.08165 0.0
H894 H 0.54618 0.05835 0.13526 0.0
H895 H 0.55887 0.08223 1.06203 0.0
H896 H 0.53263 0.99148 1.00648 0.0
C897 C 0.4988 0.93579 0.17948 0.0
C898 C 0.49621 0.94285 0.22515 0.0
C899 C 0.50548 0.97502 0.23232 0.0
C900 C 0.5172 -0.00148 0.19866 0.0
C901 C 0.51992 0.99101 0.15509 0.0
C902 C 0.51067 0.96013 0.14525 0.0
C903 C 0.51469 0.95844 1.09482 0.0
C904 C 0.53877 0.94816 1.08591 0.0
C905 C 0.48292 0.93549 1.0735 0.0
C906 C 0.52717 0.99272 1.07782 0.0
C907 C 0.53041 0.01106 1.11378 0.0
C908 C 0.54256 0.04349 1.10733 0.0
C909 C 0.5501 0.05726 1.06453 0.0
C910 C 0.54705 0.03997 1.02563 0.0
C911 C 0.53548 0.00658 1.03378 0.0
H912 H 0.55289 0.55684 0.57298 0.0
H913 H 0.56761 0.48376 0.52124 0.0
H914 H 0.55523 0.49469 0.44722 0.0
H915 H 0.48494 0.54035 0.5006 0.0
H916 H 0.49629 0.58095 0.49398 0.0
H917 H 0.50769 0.56839 0.54264 0.0
H918 H 0.56568 0.61004 0.52744 0.0
H919 H 0.55404 0.62175 0.47822 0.0
H920 H 0.58273 0.60943 0.47594 0.0
H921 H 0.53362 0.5089 0.37515 0.0
H922 H 0.51355 0.52902 0.31683 0.0
H923 H 0.5122 0.59495 0.40838 0.0
C924 C 0.55333 0.54275 0.54631 0.0
C925 C 0.56172 0.51879 0.55547 0.0
C926 C 0.56144 0.50182 0.51763 0.0
C927 C 0.55396 0.5078 0.47454 0.0
C928 C 0.54489 0.53034 0.46709 0.0
C929 C 0.5447 0.54781 0.50219 0.0
C930 C 0.53438 0.57103 0.48445 0.0
C931 C 0.50404 0.56484 0.5068 0.0
C932 C 0.56077 0.6051 0.49199 0.0
C933 C 0.52846 0.56377 0.43448 0.0
C934 C 0.53469 0.53996 0.42551 0.0
C935 C 0.52943 0.52789 0.38259 0.0
C936 C 0.51784 0.53978 0.3488 0.0
C937 C 0.51149 0.5647 0.35525 0.0
C938 C 0.51714 0.5766 0.40004 0.0
H939 H 0.01456 0.51402 0.86643 0.0
H940 H 0.01274 0.5989 0.89395 0.0
H941 H 0.97888 0.58911 0.82885 0.0
H942 H 0.01302 0.52024 0.742 0.0
H943 H -0.00831 0.47804 0.74055 0.0
H944 H 0.0172 0.49934 0.78649 0.0
H945 H 0.96407 0.46308 0.83491 0.0
H946 H 0.94164 0.44752 0.78504 0.0
H947 H 0.93115 0.46783 0.82371 0.0
H948 H 0.94214 0.56809 0.75154 0.0
H949 H 0.91279 0.54158 0.68383 0.0
H950 H 0.93619 0.46899 0.70352 0.0
C951 C 0.0072 0.53079 0.85929 0.0
C952 C 0.0179 0.55788 0.88824 0.0
C953 C 0.00627 0.57808 0.87474 0.0
C954 C 0.98641 0.57252 0.83669 0.0
C955 C 0.97657 0.54593 0.80946 0.0
C956 C 0.98677 0.52539 0.82081 0.0
C957 C 0.97306 0.49858 0.78613 0.0
C958 C 0.00021 0.49876 0.76228 0.0
C959 C 0.95127 0.46729 0.80859 0.0
C960 C 0.95376 0.50642 0.7535 0.0
C961 C 0.95606 0.53415 0.76754 0.0
C962 C 0.94063 0.54629 0.74182 0.0
C963 C 0.92336 0.53057 0.70246 0.0
C964 C 0.91998 0.50174 0.6863 0.0
C965 C 0.93633 0.49008 0.71353 0.0
H966 H 0.58282 0.07028 0.31415 0.0
H967 H 0.55789 0.08419 0.44222 0.0
H968 H 0.58369 0.0578 0.47427 0.0
H969 H 0.55638 0.01899 0.29035 0.0
H970 H 0.57171 -0.00653 0.2799 0.0
H971 H 0.59677 0.03529 0.27478 0.0
H972 H 0.63623 0.03274 0.32658 0.0
H973 H 0.61042 0.99089 0.3317 0.0
H974 H 0.62466 0.01517 0.3796 0.0
H975 H 0.55128 0.0021 0.48083 0.0
H976 H 0.4972 0.96277 0.46027 0.0
H977 H 0.52453 0.97021 0.32601 0.0
C978 C 0.58342 0.06744 0.34909 0.0
C979 C 0.56573 0.0757 0.37566 0.0
C980 C 0.5691 0.07543 0.42108 0.0
C981 C 0.58445 0.06091 0.43923 0.0
C982 C 0.58985 0.04153 0.41176 0.0
C983 C 0.59407 0.04804 0.36665 0.0
C984 C 0.58755 0.0186 0.34261 0.0
C985 C 0.57742 0.01649 0.2941 0.0
C986 C 0.61638 0.01411 0.34543 0.0
C987 C 0.56218 -0.00424 0.37239 0.0
C988 C 0.5688 0.00746 0.41492 0.0
C989 C 0.54604 -0.00623 0.44746 0.0
C990 C 0.51506 0.97269 0.43532 0.0
C991 C 0.50691 0.96554 0.39103 0.0
C992 C 0.53065 0.9763 0.35977 0.0
H993 H 0.52616 0.59458 0.71534 0.0
H994 H 0.46137 0.52245 0.80206 0.0
H995 H 0.49898 0.54426 0.86084 0.0
H996 H 0.57046 0.59368 0.6973 0.0
H997 H 0.61078 0.61709 0.71458 0.0
H998 H 0.58594 0.63402 0.7118 0.0
H999 H 0.59996 0.65325 0.78879 0.0
H1000 H 0.6254 0.63691 0.79228 0.0
H1001 H 0.59604 0.62761 0.8329 0.0
H1002 H 0.53569 0.52595 0.86908 0.0
H1003 H 0.52862 0.48547 0.81677 0.0
H1004 H 0.57968 0.5567 0.72143 0.0
C1005 C 0.5206 0.5838 0.74724 0.0
C1006 C 0.4918 0.55582 0.75314 0.0
C1007 C 0.48361 0.54336 0.79555 0.0
C1008 C 0.50514 0.55622 0.8297 0.0
C1009 C 0.53661 0.5761 0.8189 0.0
C1010 C 0.54409 0.59371 0.78007 0.0
C1011 C 0.57755 0.60372 0.76883 0.0
C1012 C 0.58656 0.61243 0.72027 0.0
C1013 C 0.601 0.63191 0.79747 0.0
C1014 C 0.57618 0.57397 0.78437 0.0
C1015 C 0.55836 0.56387 0.82255 0.0
C1016 C 0.54713 0.53313 0.83777 0.0
C1017 C 0.54212 0.50995 0.80746 0.0
C1018 C 0.55252 0.51862 0.76452 0.0
C1019 C 0.57203 0.55054 0.75456 0.0
H1020 H 0.91927 0.49288 1.03742 0.0
H1021 H 0.94564 0.44282 0.12769 0.0
H1022 H 0.9532 0.4799 0.18493 0.0
H1023 H 0.95508 0.54524 1.02283 0.0
H1024 H 0.956 0.58057 1.03978 0.0
H1025 H 0.91903 0.54461 1.0327 0.0
H1026 H 0.90184 0.54832 1.10761 0.0
H1027 H 0.93796 0.5851 1.11589 0.0
H1028 H 0.92582 0.55399 0.15495 0.0
H1029 H -0.00074 0.53068 0.19913 0.0
H1030 H 0.03438 0.52941 0.14491 0.0
H1031 H 0.00345 0.57418 1.05285 0.0
C1032 C 0.9266 0.49018 1.06972 0.0
C1033 C 0.93444 0.46675 1.07727 0.0
C1034 C 0.9415 0.46189 1.12012 0.0
C1035 C 0.9447 0.48244 0.15337 0.0
C1036 C 0.94517 0.51026 0.14233 0.0
C1037 C 0.9321 0.51239 1.10261 0.0
C1038 C 0.94453 0.54664 1.09307 0.0
C1039 C 0.94373 0.55468 1.04422 0.0
C1040 C 0.92653 0.55918 1.11953 0.0
C1041 C 0.9769 0.55853 1.11274 0.0
C1042 C 0.97367 0.54098 0.15081 0.0
C1043 C 5e-05 0.54045 0.16718 0.0
C1044 C 0.01995 0.53937 0.13614 0.0
C1045 C 0.01863 0.5486 1.09317 0.0
C1046 C 0.0018 0.56412 1.08477 0.0
H1047 H 0.02186 0.44721 0.49526 0.0
H1048 H 0.01828 0.48152 0.62333 0.0
H1049 H 0.97617 0.42982 0.64334 0.0
H1050 H 0.96629 0.42494 0.46143 0.0
H1051 H 0.94548 0.38497 0.44146 0.0
H1052 H 0.98762 0.40604 0.44521 0.0
H1053 H 0.98732 0.36409 0.48875 0.0
H1054 H 0.94526 0.34056 0.48908 0.0
H1055 H 0.96715 0.35084 0.53969 0.0
H1056 H 0.92399 0.38402 0.64306 0.0
H1057 H 0.89588 0.41061 0.61914 0.0
H1058 H 0.91375 0.39937 0.48554 0.0
C1059 C 0.01242 0.44297 0.52793 0.0
C1060 C 0.02321 0.46792 0.55786 0.0
C1061 C 0.0103 0.46262 0.59974 0.0
C1062 C 0.9871 0.43272 0.61193 0.0
C1063 C 0.97515 0.40823 0.58124 0.0
C1064 C 0.98794 0.41317 0.5396 0.0
C1065 C 0.96389 0.38961 0.50838 0.0
C1066 C 0.96589 0.40222 0.46141 0.0
C1067 C 0.96604 0.35952 0.50659 0.0
C1068 C 0.93503 0.38321 0.53367 0.0
C1069 C 0.94168 0.38481 0.57864 0.0
C1070 C 0.92151 0.3868 0.60854 0.0
C1071 C 0.90654 0.40286 0.59515 0.0
C1072 C 0.90708 0.41023 0.55088 0.0
C1073 C 0.91647 0.39591 0.51984 0.0
H1074 H 0.39331 0.96419 0.8663 0.0
H1075 H 0.44287 0.94744 0.76528 0.0
H1076 H 0.43761 0.9844 0.71797 0.0
H1077 H 0.38372 0.03037 0.76962 0.0
H1078 H 0.38548 0.05216 0.81749 0.0
H1079 H 0.35641 0.01104 0.81302 0.0
H1080 H 0.37354 -0.00011 0.88557 0.0
H1081 H 0.40162 0.04116 0.8908 0.0
H1082 H 0.41421 0.01298 0.89685 0.0
H1083 H 0.47677 0.03818 0.7271 0.0
H1084 H 0.51843 0.05567 0.7806 0.0
H1085 H 0.45877 0.06037 0.87847 0.0
C1086 C 0.40206 0.96818 0.83341 0.0
C1087 C 0.42075 0.95563 0.82055 0.0
C1088 C 0.43048 0.95884 0.77708 0.0
C1089 C 0.42669 0.97932 0.74972 0.0
C1090 C 0.4183 -0.00013 0.76883 0.0
C1091 C 0.40121 0.99137 0.80776 0.0
C1092 C 0.4039 0.02041 0.82845 0.0
C1093 C 0.38113 0.029 0.80568 0.0
C1094 C 0.39809 0.01845 0.87836 0.0
C1095 C 0.4373 0.04285 0.81489 0.0
C1096 C 0.44216 0.03331 0.77397 0.0
C1097 C 0.47273 0.04407 0.75947 0.0
C1098 C 0.49651 0.05357 0.79058 0.0
C1099 C 0.49106 0.05769 0.83442 0.0
C1100 C 0.4625 0.05581 0.84522 0.0
H1101 H 0.54306 0.57192 0.25801 0.0
H1102 H 0.52109 0.56051 1.12081 0.0
H1103 H 0.57492 0.57359 1.10459 0.0
H1104 H 0.64618 0.62017 0.21468 0.0
H1105 H 0.65356 0.60938 0.26761 0.0
H1106 H 0.63323 0.63106 0.26263 0.0
H1107 H 0.58848 0.59028 0.30848 0.0
H1108 H 0.6091 0.56904 0.31409 0.0
H1109 H 0.56919 0.5493 0.29428 0.0
H1110 H 0.59625 0.53985 1.11182 0.0
H1111 H 0.56652 0.4865 0.13966 0.0
H1112 H 0.59241 0.52098 0.27097 0.0
C1113 C 0.55049 0.57333 0.22469 0.0
C1114 C 0.52801 0.56259 0.19097 0.0
C1115 C 0.53781 0.56627 0.14738 0.0
C1116 C 0.56874 0.57513 0.13792 0.0
C1117 C 0.58929 0.57943 0.17253 0.0
C1118 C 0.58204 0.58357 0.21505 0.0
C1119 C 0.60433 0.58099 0.24631 0.0
C1120 C 0.63616 0.61218 0.24775 0.0
C1121 C 0.59195 0.57176 0.29352 0.0
C1122 C 0.60746 0.55649 0.22092 0.0
C1123 C 0.60506 0.56104 0.17595 0.0
C1124 C 0.59642 0.53615 0.14663 0.0
C1125 C 0.57875 0.50567 0.16253 0.0
C1126 C 0.57509 0.50062 0.2077 0.0
C1127 C 0.59369 0.52551 0.23627 0.0
H1128 H 0.27418 0.92586 0.685 0.0
H1129 H 0.31928 0.01366 0.75639 0.0
H1130 H 0.3235 0.04234 0.68828 0.0
H1131 H 0.32181 0.94846 0.60395 0.0
H1132 H 0.29431 0.92766 0.56026 0.0
H1133 H 0.28484 0.91335 0.61494 0.0
H1134 H 0.2334 0.91536 0.61058 0.0
H1135 H 0.24253 0.92943 0.55526 0.0
H1136 H 0.23485 0.95137 0.59528 0.0
H1137 H 0.33745 0.06161 0.61292 0.0
H1138 H 0.35824 0.06957 0.5386 0.0
H1139 H 0.30102 0.96951 0.51371 0.0
C1140 C 0.28353 0.95098 0.68636 0.0
C1141 C 0.29639 0.96769 0.72551 0.0
C1142 C 0.30902 0.00053 0.7266 0.0
C1143 C 0.3114 0.01694 0.68806 0.0
C1144 C 0.30036 -2e-05 0.64915 0.0
C1145 C 0.28592 0.96754 0.64824 0.0
C1146 C 0.281 0.95519 0.60198 0.0
C1147 C 0.29644 0.93503 0.59492 0.0
C1148 C 0.24585 0.93676 0.59008 0.0
C1149 C 0.29775 0.9858 0.57721 0.0
C1150 C 0.30792 0.01138 0.60478 0.0
C1151 C 0.32859 0.04187 0.59068 0.0
C1152 C 0.34026 0.0462 0.54816 0.0
C1153 C 0.33132 0.02011 0.52022 0.0
C1154 C 0.30836 0.98988 0.53432 0.0
H1155 H 0.32196 0.3339 1.05064 0.0
H1156 H 0.34643 0.4288 1.08427 0.0
H1157 H 0.31382 0.42908 1.02302 0.0
H1158 H 0.33477 0.3451 0.9482 0.0
H1159 H 0.30333 0.30816 0.92764 0.0
H1160 H 0.31748 0.31057 0.98218 0.0
H1161 H 0.26114 0.28924 1.01148 0.0
H1162 H 0.24677 0.2869 0.95646 0.0
H1163 H 0.2397 0.30875 0.99735 0.0
H1164 H 0.29438 0.42595 0.94905 0.0
H1165 H 0.29382 0.42161 0.86961 0.0
H1166 H 0.2792 0.32761 0.8809 0.0
C1167 C 0.31928 0.35419 1.04596 0.0
C1168 C 0.33655 0.38129 1.07187 0.0
C1169 C 0.33298 0.40764 1.06502 0.0
C1170 C 0.31433 0.40788 1.03042 0.0
C1171 C 0.29901 0.38139 1.00358 0.0
C1172 C 0.3009 0.35474 1.01143 0.0
C1173 C 0.2881 0.3321 0.9733 0.0
C1174 C 0.31238 0.32356 0.95688 0.0
C1175 C 0.25708 0.3025 0.98538 0.0
C1176 C 0.28244 0.35184 0.9407 0.0
C1177 C 0.28733 0.37949 0.9595 0.0
C1178 C 0.28933 0.40396 0.93428 0.0
C1179 C 0.28883 0.40119 0.88884 0.0
C1180 C 0.28666 0.37423 0.86905 0.0
C1181 C 0.28083 0.34838 0.89534 0.0
H1182 H -0.00739 0.29228 0.18796 0.0
H1183 H 0.89316 0.23779 0.21615 0.0
H1184 H 0.90574 0.23514 0.29357 0.0
H1185 H 0.02109 0.2574 0.28034 0.0
H1186 H 0.05508 0.29582 0.28871 0.0
H1187 H 0.03885 0.28329 0.23458 0.0
H1188 H 0.0343 0.33311 0.22689 0.0
H1189 H 0.04967 0.34544 0.28085 0.0
H1190 H 0.01191 0.34053 0.26638 0.0
H1191 H 0.92793 0.25191 0.36811 0.0
H1192 H 0.95759 0.28526 0.43131 0.0
H1193 H 0.04252 0.3288 0.35482 0.0
C1194 C 0.97348 0.27802 0.20979 0.0
C1195 C 0.94196 0.26518 0.19604 0.0
C1196 C 0.91753 0.24784 0.22606 0.0
C1197 C 0.92449 0.24605 0.27007 0.0
C1198 C 0.95596 0.26129 0.28333 0.0
C1199 C 0.98013 0.27638 0.25372 0.0
C1200 C 0.01148 0.29618 0.27653 0.0
C1201 C 0.03288 0.28233 0.26964 0.0
C1202 C 0.02772 0.33082 0.26181 0.0
C1203 C 0.0008 0.29241 0.32327 0.0
C1204 C 0.96892 0.27129 0.32689 0.0
C1205 C 0.95307 0.2676 0.36597 0.0
C1206 C 0.97 0.28664 0.40166 0.0
C1207 C 0.0022 0.30933 0.39753 0.0
C1208 C 0.01793 0.31127 0.35857 0.0
H1209 H 0.65033 0.97701 0.72105 0.0
H1210 H 0.71075 0.0767 0.69843 0.0
H1211 H 0.71703 0.06576 0.62189 0.0
H1212 H 0.68822 0.94844 0.63431 0.0
H1213 H 0.64967 0.9159 0.62141 0.0
H1214 H 0.65941 0.93035 0.67669 0.0
H1215 H 0.61091 0.93755 0.67758 0.0
H1216 H 0.60135 0.92384 0.62254 0.0
H1217 H 0.60723 0.9619 0.6367 0.0
H1218 H 0.70361 0.04611 0.54584 0.0
H1219 H 0.6729 0.01936 0.47919 0.0
H1220 H 0.62196 0.93255 0.55107 0.0
C1221 C 0.6665 -0.0036 0.70081 0.0
C1222 C 0.68002 0.02765 0.71564 0.0
C1223 C 0.70003 0.05253 0.68762 0.0
C1224 C 0.70394 0.0465 0.64415 0.0
C1225 C 0.68815 0.01545 0.6295 0.0
C1226 C 0.67037 0.99069 0.65741 0.0
C1227 C 0.65089 0.96027 0.63264 0.0
C1228 C 0.66278 0.93739 0.6418 0.0
C1229 C 0.61556 0.94508 0.64296 0.0
C1230 C 0.65794 0.97231 0.58641 0.0
C1231 C 0.68037 0.00394 0.585 0.0
C1232 C 0.68694 0.02113 0.54632 0.0
C1233 C 0.66942 0.00588 0.50867 0.0
C1234 C 0.64545 0.97403 0.51051 0.0
C1235 C 0.64066 0.95685 0.54916 0.0
H1236 H 0.64933 0.70354 1.03943 0.0
H1237 H 0.66907 0.64443 1.1228 0.0
H1238 H 0.6975 0.63684 1.06266 0.0
H1239 H 0.62713 0.65723 0.95342 0.0
H1240 H 0.64319 0.68697 0.91171 0.0
H1241 H 0.63363 0.69604 0.96388 0.0
H1242 H 0.6907 0.74253 0.97317 0.0
H1243 H 0.70047 0.73366 0.92057 0.0
H1244 H 0.7232 0.73575 0.96818 0.0
H1245 H 0.71042 0.62428 0.99089 0.0
H1246 H 0.70744 0.6085 0.91376 0.0
H1247 H 0.67961 0.67548 0.8757 0.0
C1248 C 0.66073 0.69 1.04538 0.0
C1249 C 0.65725 0.67471 1.08562 0.0
C1250 C 0.67202 0.65683 1.09239 0.0
C1251 C 0.68821 0.6524 1.05838 0.0
C1252 C 0.68972 0.66639 1.01816 0.0
C1253 C 0.67674 0.68525 1.0117 0.0
C1254 C 0.67671 0.69317 0.96397 0.0
C1255 C 0.64319 0.6827 0.94731 0.0
C1256 C 0.69912 0.72837 0.95602 0.0
C1257 C 0.6893 0.67375 0.94412 0.0
C1258 C 0.69755 0.65921 0.97601 0.0
C1259 C 0.7052 0.6364 0.96566 0.0
C1260 C 0.7034 0.62752 0.92191 0.0
C1261 C 0.69404 0.64146 0.88926 0.0
C1262 C 0.688 0.66555 0.90021 0.0
H1263 H 0.03089 0.69249 0.22295 0.0
H1264 H 0.94595 0.64758 0.14454 0.0
H1265 H 0.91498 0.64588 0.2086 0.0
H1266 H 0.00459 0.64605 0.30439 0.0
H1267 H 0.0244 0.67383 0.34805 0.0
H1268 H 0.04046 0.68259 0.29447 0.0
H1269 H 0.03937 0.73458 0.29503 0.0
H1270 H 0.023 0.72574 0.34911 0.0
H1271 H 0.00311 0.73381 0.30582 0.0
H1272 H 0.89255 0.63493 0.28253 0.0
H1273 H 0.88098 0.61337 0.357 0.0
H1274 H 0.98054 0.66434 0.38806 0.0
C1275 C 0.00595 0.68372 0.21911 0.0
C1276 C -0.00937 0.67033 0.17933 0.0
C1277 C 0.95799 0.65837 0.17488 0.0
C1278 C 0.94034 0.65748 0.21106 0.0
C1279 C 0.95587 0.66912 0.25098 0.0
C1280 C 0.98818 0.68255 0.25493 0.0
C1281 C -0.00133 0.68732 0.30217 0.0
C1282 C 0.01809 0.67146 0.31284 0.0
C1283 C 0.01712 0.72246 0.31371 0.0
C1284 C 0.96705 0.67115 0.32425 0.0
C1285 C 0.94268 0.66219 0.29444 0.0
C1286 C 0.91141 0.64256 0.30628 0.0
C1287 C 0.90505 0.6302 0.34863 0.0
C1288 C 0.92993 0.63697 0.37825 0.0
C1289 C 0.96098 0.65932 0.36663 0.0
H1290 H 0.56315 0.10169 0.51117 0.0
H1291 H 0.49489 0.13186 0.5222 0.0
H1292 H 0.50215 0.13482 0.60236 0.0
H1293 H 0.5372 0.05172 0.60952 0.0
H1294 H 0.57597 0.06033 0.62592 0.0
H1295 H 0.56723 0.06228 0.56911 0.0
H1296 H 0.61338 0.11926 0.56559 0.0
H1297 H 0.62223 0.1175 0.6224 0.0
H1298 H 0.61514 0.14801 0.60349 0.0
H1299 H 0.51785 0.13554 0.68662 0.0
H1300 H 0.53611 0.13051 0.75972 0.0
H1301 H 0.59178 0.09514 0.70105 0.0
C1302 C 0.54979 0.10933 0.52981 0.0
C1303 C 0.52852 0.11733 0.50724 0.0
C1304 C 0.51168 0.12616 0.53604 0.0
C1305 C 0.51568 0.12781 0.58267 0.0
C1306 C 0.53645 0.11989 0.6033 0.0
C1307 C 0.55305 0.11042 0.57755 0.0
C1308 C 0.57278 0.10171 0.60869 0.0
C1309 C 0.56271 0.06694 0.60295 0.0
C1310 C 0.60798 0.12287 0.59947 0.0
C1311 C 0.56503 0.10791 0.65564 0.0
C1312 C 0.54415 0.11876 0.65132 0.0
C1313 C 0.53406 0.1269 0.6894 0.0
C1314 C 0.54493 0.12403 0.73183 0.0
C1315 C 0.56597 0.11245 0.73905 0.0
C1316 C 0.57585 0.10415 0.69891 0.0
H1317 H 0.39278 0.49531 0.87535 0.0
H1318 H 0.44778 0.58798 0.81892 0.0
H1319 H 0.46585 0.61031 0.89259 0.0
H1320 H 0.36858 0.52175 0.97402 0.0
H1321 H 0.37083 0.49428 1.01063 0.0
H1322 H 0.3623 0.48476 0.95354 0.0
H1323 H 0.40909 0.47553 0.94853 0.0
H1324 H 0.4178 0.4851 1.00559 0.0
H1325 H 0.44769 0.50615 0.9654 0.0
H1326 H 0.48135 0.62397 0.97638 0.0
H1327 H 0.48812 0.62737 1.05651 0.0
H1328 H 0.42076 0.52781 1.0661 0.0
C1329 C 0.40844 0.52042 0.87817 0.0
C1330 C 0.41826 0.53943 0.83869 0.0
C1331 C 0.43904 0.57217 0.84648 0.0
C1332 C 0.44979 0.58531 0.88914 0.0
C1333 C 0.43979 0.56623 0.92662 0.0
C1334 C 0.41911 0.53434 0.92163 0.0
C1335 C 0.41154 0.51939 0.96807 0.0
C1336 C 0.37621 0.50413 0.9771 0.0
C1337 C 0.42215 0.49508 0.97214 0.0
C1338 C 0.431 0.54758 0.99975 0.0
C1339 C 0.44747 0.5743 0.97463 0.0
C1340 C 0.46803 0.60297 0.99566 0.0
C1341 C 0.47185 0.60474 1.0422 0.0
C1342 C 0.45504 0.57838 1.07029 0.0
C1343 C 0.43405 0.54912 1.04742 0.0
H1344 H 0.87843 0.43805 0.16981 0.0
H1345 H 0.87608 0.35003 0.19041 0.0
H1346 H 0.87074 0.35483 0.2696 0.0
H1347 H 0.92675 0.47646 0.2686 0.0
H1348 H 0.90785 0.49828 0.28311 0.0
H1349 H 0.90876 0.48823 0.22692 0.0
H1350 H 0.8489 0.46068 0.22053 0.0
H1351 H 0.84718 0.47131 0.27628 0.0
H1352 H 0.82486 0.43077 0.25936 0.0
H1353 H 0.86281 0.36801 0.35181 0.0
H1354 H 0.85988 0.38998 0.42279 0.0
H1355 H 0.87412 0.474 0.35731 0.0
C1356 C 0.87669 0.41954 0.19067 0.0
C1357 C 0.87738 0.39293 0.1709 0.0
C1358 C 0.87545 0.37041 0.20202 0.0
C1359 C 0.87236 0.37304 0.24816 0.0
C1360 C 0.87192 0.3991 0.26615 0.0
C1361 C 0.87465 0.42241 0.23819 0.0
C1362 C 0.87532 0.4489 0.26705 0.0
C1363 C 0.90653 0.47981 0.26105 0.0
C1364 C 0.84741 0.45319 0.25508 0.0
C1365 C 0.87233 0.43691 0.31508 0.0
C1366 C 0.8698 0.40769 0.31331 0.0
C1367 C 0.86522 0.39104 0.35265 0.0
C1368 C 0.86342 0.40395 0.39381 0.0
C1369 C 0.86686 0.43434 0.39851 0.0
C1370 C 0.8716 0.45091 0.35712 0.0
H1371 H 0.47237 0.88031 0.54632 0.0
H1372 H 0.38885 0.8738 0.48799 0.0
H1373 H 0.36895 0.87423 0.56117 0.0
H1374 H 0.4312 0.82888 0.64099 0.0
H1375 H 0.46244 0.85097 0.6798 0.0
H1376 H 0.47132 0.85109 0.62283 0.0
H1377 H 0.49961 0.91156 0.62222 0.0
H1378 H 0.49078 0.91159 0.67918 0.0
H1379 H 0.47895 0.93098 0.63994 0.0
H1380 H 0.35708 0.87714 0.64533 0.0
H1381 H 0.35403 0.87834 0.72577 0.0
H1382 H 0.44228 0.87953 0.73641 0.0
C1383 C 0.44982 0.87894 0.54856 0.0
C1384 C 0.4327 0.87707 0.50855 0.0
C1385 C 0.4032 0.87522 0.51582 0.0
C1386 C 0.39143 0.87552 0.55827 0.0
C1387 C 0.40855 0.87733 0.59623 0.0
C1388 C 0.43716 0.87871 0.59182 0.0
C1389 C 0.45027 0.87967 0.63868 0.0
C1390 C 0.45405 0.85095 0.64601 0.0
C1391 C 0.48179 0.91026 0.6454 0.0
C1392 C 0.42488 0.87864 0.66977 0.0
C1393 C 0.40115 0.87765 0.6442 0.0
C1394 C 0.37566 0.87756 0.66495 0.0
C1395 C 0.37403 0.87825 0.71167 0.0
C1396 C 0.39729 0.87855 0.74005 0.0
C1397 C 0.42331 0.87881 0.71742 0.0
H1398 H 0.53021 0.43144 0.84888 0.0
H1399 H 0.6275 0.50579 0.8583 0.0
H1400 H 0.62558 0.49909 0.9385 0.0
H1401 H 0.50583 0.45514 0.95005 0.0
H1402 H 0.47761 0.4156 0.96616 0.0
H1403 H 0.48661 0.42486 0.90925 0.0
H1404 H 0.50093 0.38153 0.90306 0.0
H1405 H 0.49204 0.37219 0.95995 0.0
H1406 H 0.53009 0.38202 0.9395 0.0
H1407 H 0.61367 0.48146 1.02311 0.0
H1408 H 0.59272 0.46119 1.09633 0.0
H1409 H 0.5004 0.40161 1.03933 0.0
C1410 C 0.55138 0.44633 0.86751 0.0
C1411 C 0.57957 0.46913 0.8444 0.0
C1412 C 0.60568 0.48799 0.87259 0.0
C1413 C 0.60474 0.48421 0.91925 0.0
C1414 C 0.57707 0.46171 0.94045 0.0
C1415 C 0.55052 0.44344 0.91523 0.0
C1416 C 0.52321 0.42223 0.94685 0.0
C1417 C 0.49672 0.42989 0.94283 0.0
C1418 C 0.51081 0.38742 0.93672 0.0
C1419 C 0.53838 0.43076 0.99345 0.0
C1420 C 0.56973 0.45341 0.98859 0.0
C1421 C 0.58901 0.46407 1.02628 0.0
C1422 C 0.57662 0.45209 1.06881 0.0
C1423 C 0.54433 0.42948 1.07659 0.0
C1424 C 0.52511 0.41896 1.03684 0.0
H1425 H 0.09868 0.4907 0.36106 0.0
H1426 H 0.10767 0.57322 0.42462 0.0
H1427 H 0.10593 0.59488 0.35289 0.0
H1428 H 0.14848 0.53398 0.26555 0.0
H1429 H 0.12543 0.50384 0.22597 0.0
H1430 H 0.12623 0.49346 0.28224 0.0
H1431 H 0.06583 0.46573 0.28461 0.0
H1432 H 0.06489 0.47604 0.22833 0.0
H1433 H 0.04646 0.48714 0.26952 0.0
H1434 H 0.10121 0.60893 0.26887 0.0
H1435 H 0.09834 0.61407 0.18894 0.0
H1436 H 0.09617 0.52592 0.1718 0.0
C1437 C 0.10025 0.51337 0.36039 0.0
C1438 C 0.10323 0.52951 0.40185 0.0
C1439 C 0.10539 0.55936 0.39603 0.0
C1440 C 0.10434 0.57221 0.35424 0.0
C1441 C 0.10149 0.55604 0.315 0.0
C1442 C 0.0998 0.52719 0.31767 0.0
C1443 C 0.09782 0.51536 0.26966 0.0
C1444 C 0.12617 0.5114 0.2603 0.0
C1445 C 0.06692 0.48419 0.26261 0.0
C1446 C 0.09859 0.54163 0.23988 0.0
C1447 C 0.10033 0.56473 0.26723 0.0
C1448 C 0.10024 0.59079 0.24802 0.0
C1449 C 0.0986 0.59365 0.20137 0.0
C1450 C 0.09753 0.57122 0.17088 0.0
C1451 C 0.09751 0.5445 0.19203 0.0
loop_
_geom_bond_atom_site_label_1
_geom_bond_atom_site_label_2
_geom_bond_distance
_geom_bond_site_symmetry_2
_ccdc_geom_bond_type
Pr0 C2 2.880 . S
Pr0 O20 2.562 . S
Pr0 O21 2.490 . S
Pr0 O22 2.695 . S
Pr0 O23 2.512 . S
Pr0 O25 2.437 . S
Pr0 O28 2.436 . S
Pr0 O30 2.438 . S
Pr1 C11 2.880 . S
Pr1 O22 2.436 . S
Pr1 O24 2.438 . S
Pr1 O26 2.562 . S
Pr1 O27 2.490 . S
Pr1 O28 2.695 . S
Pr1 O29 2.512 . S
Pr1 O31 2.437 . S
C2 Pr0 2.880 . S
C2 C3 1.491 . S
C2 O20 1.254 . S
C2 O21 1.225 . S
C3 C2 1.491 . S
C3 C4 1.392 . S
C3 C8 1.356 . S
C4 C3 1.392 . S
C4 C5 1.368 . S
C4 H32 0.929 . S
C5 C4 1.368 . S
C5 C6 1.386 . S
C5 H33 0.929 . S
C6 C5 1.386 . S
C6 C7 1.373 . S
C7 C6 1.373 . S
C7 C8 1.409 . S
C7 H34 0.931 . S
C8 C3 1.356 . S
C8 C7 1.409 . S
C8 H35 0.930 . S
C9 O22 1.270 . S
C9 O23 1.248 . S
C10 O24 1.267 . S
C10 O25 1.278 . S
C11 Pr1 2.880 . S
C11 C12 1.491 . S
C11 O26 1.254 . S
C11 O27 1.225 . S
C12 C11 1.491 . S
C12 C13 1.392 . S
C12 C17 1.356 . S
C13 C12 1.392 . S
C13 C14 1.368 . S
C13 H36 0.929 . S
C14 C13 1.368 . S
C14 C15 1.386 . S
C14 H37 0.929 . S
C15 C14 1.386 . S
C15 C16 1.373 . S
C16 C15 1.373 . S
C16 C17 1.409 . S
C16 H38 0.931 . S
C17 C12 1.356 . S
C17 C16 1.409 . S
C17 H39 0.930 . S
C18 O28 1.270 . S
C18 O29 1.248 . S
C19 O30 1.267 . S
C19 O31 1.278 . S
O20 Pr0 2.562 . S
O20 C2 1.254 . S
O21 Pr0 2.490 . S
O21 C2 1.225 . S
O22 Pr0 2.695 . S
O22 Pr1 2.436 . S
O22 C9 1.270 . S
O23 Pr0 2.512 . S
O23 C9 1.248 . S
O24 Pr1 2.438 . S
O24 C10 1.267 . S
O25 Pr0 2.437 . S
O25 C10 1.278 . S
O26 Pr1 2.562 . S
O26 C11 1.254 . S
O27 Pr1 2.490 . S
O27 C11 1.225 . S
O28 Pr0 2.436 . S
O28 Pr1 2.695 . S
O28 C18 1.270 . S
O29 Pr1 2.512 . S
O29 C18 1.248 . S
O30 Pr0 2.438 . S
O30 C19 1.267 . S
O31 Pr1 2.437 . S
O31 C19 1.278 . S
H32 C4 0.929 . S
H33 C5 0.929 . S
H34 C7 0.931 . S
H35 C8 0.930 . S
H36 C13 0.929 . S
H37 C14 0.929 . S
H38 C16 0.931 . S
H39 C17 0.930 . S
Pr40 C42 2.880 . S
Pr40 O60 2.562 . S
Pr40 O61 2.490 . S
Pr40 O62 2.695 . S
Pr40 O63 2.512 . S
Pr40 O65 2.437 . S
Pr40 O68 2.436 . S
Pr40 O70 2.438 . S
Pr41 C51 2.880 . S
Pr41 O62 2.436 . S
Pr41 O64 2.438 . S
Pr41 O66 2.562 . S
Pr41 O67 2.490 . S
Pr41 O68 2.695 . S
Pr41 O69 2.512 . S
Pr41 O71 2.437 . S
C42 Pr40 2.880 . S
C42 C43 1.491 . S
C42 O60 1.254 . S
C42 O61 1.225 . S
C43 C42 1.491 . S
C43 C44 1.392 . S
C43 C48 1.356 . S
C44 C43 1.392 . S
C44 C45 1.368 . S
C44 H72 0.929 . S
C45 C44 1.368 . S
C45 C46 1.386 . S
C45 H73 0.929 . S
C46 C45 1.386 . S
C46 C47 1.373 . S
C47 C46 1.373 . S
C47 C48 1.409 . S
C47 H74 0.931 . S
C48 C43 1.356 . S
C48 C47 1.409 . S
C48 H75 0.930 . S
C49 O62 1.270 . S
C49 O63 1.248 . S
C50 O64 1.267 . S
C50 O65 1.278 . S
C51 Pr41 2.880 . S
C51 C52 1.491 . S
C51 O66 1.254 . S
C51 O67 1.225 . S
C52 C51 1.491 . S
C52 C53 1.392 . S
C52 C57 1.356 . S
C53 C52 1.392 . S
C53 C54 1.368 . S
C53 H76 0.929 . S
C54 C53 1.368 . S
C54 C55 1.386 . S
C54 H77 0.929 . S
C55 C54 1.386 . S
C55 C56 1.373 . S
C56 C55 1.373 . S
C56 C57 1.409 . S
C56 H78 0.931 . S
C57 C52 1.356 . S
C57 C56 1.409 . S
C57 H79 0.930 . S
C58 O68 1.270 . S
C58 O69 1.248 . S
C59 O70 1.267 . S
C59 O71 1.278 . S
O60 Pr40 2.562 . S
O60 C42 1.254 . S
O61 Pr40 2.490 . S
O61 C42 1.225 . S
O62 Pr40 2.695 . S
O62 Pr41 2.436 . S
O62 C49 1.270 . S
O63 Pr40 2.512 . S
O63 C49 1.248 . S
O64 Pr41 2.438 . S
O64 C50 1.267 . S
O65 Pr40 2.437 . S
O65 C50 1.278 . S
O66 Pr41 2.562 . S
O66 C51 1.254 . S
O67 Pr41 2.490 . S
O67 C51 1.225 . S
O68 Pr40 2.436 . S
O68 Pr41 2.695 . S
O68 C58 1.270 . S
O69 Pr41 2.512 . S
O69 C58 1.248 . S
O70 Pr40 2.438 . S
O70 C59 1.267 . S
O71 Pr41 2.437 . S
O71 C59 1.278 . S
H72 C44 0.929 . S
H73 C45 0.929 . S
H74 C47 0.931 . S
H75 C48 0.930 . S
H76 C53 0.929 . S
H77 C54 0.929 . S
H78 C56 0.931 . S
H79 C57 0.930 . S
Pr80 C82 2.880 1_556 S
Pr80 O100 2.562 . S
Pr80 O101 2.490 . S
Pr80 O102 2.695 . S
Pr80 O103 2.512 . S
Pr80 O105 2.437 . S
Pr80 O108 2.436 . S
Pr80 O110 2.438 . S
Pr81 C91 2.880 . S
Pr81 O102 2.436 . S
Pr81 O104 2.438 . S
Pr81 O106 2.562 . S
Pr81 O107 2.490 . S
Pr81 O108 2.695 . S
Pr81 O109 2.512 . S
Pr81 O111 2.437 . S
C82 Pr80 2.880 1_554 S
C82 C83 1.491 . S
C82 O100 1.254 1_554 S
C82 O101 1.225 1_554 S
C83 C82 1.491 . S
C83 C84 1.392 . S
C83 C88 1.356 . S
C84 C83 1.392 . S
C84 C85 1.368 . S
C84 H112 0.929 . S
C85 C84 1.368 . S
C85 C86 1.386 . S
C85 H113 0.929 . S
C86 C85 1.386 . S
C86 C87 1.373 . S
C87 C86 1.373 . S
C87 C88 1.409 . S
C87 H114 0.931 . S
C88 C83 1.356 . S
C88 C87 1.409 . S
C88 H115 0.930 . S
C89 O102 1.270 . S
C89 O103 1.248 . S
C90 O104 1.267 . S
C90 O105 1.278 . S
C91 Pr81 2.880 . S
C91 C92 1.491 . S
C91 O106 1.254 . S
C91 O107 1.225 . S
C92 C91 1.491 . S
C92 C93 1.392 . S
C92 C97 1.356 . S
C93 C92 1.392 . S
C93 C94 1.368 . S
C93 H116 0.929 . S
C94 C93 1.368 . S
C94 C95 1.386 . S
C94 H117 0.929 . S
C95 C94 1.386 . S
C95 C96 1.373 . S
C96 C95 1.373 . S
C96 C97 1.409 . S
C96 H118 0.931 . S
C97 C92 1.356 . S
C97 C96 1.409 . S
C97 H119 0.930 . S
C98 O108 1.270 . S
C98 O109 1.248 . S
C99 O110 1.267 . S
C99 O111 1.278 . S
O100 Pr80 2.562 . S
O100 C82 1.254 1_556 S
O101 Pr80 2.490 . S
O101 C82 1.225 1_556 S
O102 Pr80 2.695 . S
O102 Pr81 2.436 . S
O102 C89 1.270 . S
O103 Pr80 2.512 . S
O103 C89 1.248 . S
O104 Pr81 2.438 . S
O104 C90 1.267 . S
O105 Pr80 2.437 . S
O105 C90 1.278 . S
O106 Pr81 2.562 . S
O106 C91 1.254 . S
O107 Pr81 2.490 . S
O107 C91 1.225 . S
O108 Pr80 2.436 . S
O108 Pr81 2.695 . S
O108 C98 1.270 . S
O109 Pr81 2.512 . S
O109 C98 1.248 . S
O110 Pr80 2.438 . S
O110 C99 1.267 . S
O111 Pr81 2.437 . S
O111 C99 1.278 . S
H112 C84 0.929 . S
H113 C85 0.929 . S
H114 C87 0.931 . S
H115 C88 0.930 . S
H116 C93 0.929 . S
H117 C94 0.929 . S
H118 C96 0.931 . S
H119 C97 0.930 . S
Pr120 C122 2.880 . S
Pr120 O140 2.562 . S
Pr120 O141 2.490 . S
Pr120 O142 2.695 . S
Pr120 O143 2.512 . S
Pr120 O145 2.437 . S
Pr120 O148 2.436 . S
Pr120 O150 2.438 . S
Pr121 C131 2.880 . S
Pr121 O142 2.436 . S
Pr121 O144 2.438 . S
Pr121 O146 2.562 . S
Pr121 O147 2.490 . S
Pr121 O148 2.695 . S
Pr121 O149 2.512 . S
Pr121 O151 2.437 . S
C122 Pr120 2.880 . S
C122 C123 1.491 . S
C122 O140 1.254 . S
C122 O141 1.225 . S
C123 C122 1.491 . S
C123 C124 1.392 . S
C123 C128 1.356 . S
C124 C123 1.392 . S
C124 C125 1.368 . S
C124 H152 0.929 . S
C125 C124 1.368 . S
C125 C126 1.386 . S
C125 H153 0.929 . S
C126 C125 1.386 . S
C126 C127 1.373 . S
C127 C126 1.373 . S
C127 C128 1.409 . S
C127 H154 0.931 . S
C128 C123 1.356 . S
C128 C127 1.409 . S
C128 H155 0.930 . S
C129 O142 1.270 . S
C129 O143 1.248 . S
C130 O144 1.267 . S
C130 O145 1.278 . S
C131 Pr121 2.880 . S
C131 C132 1.491 . S
C131 O146 1.254 . S
C131 O147 1.225 . S
C132 C131 1.491 . S
C132 C133 1.392 . S
C132 C137 1.356 . S
C133 C132 1.392 . S
C133 C134 1.368 . S
C133 H156 0.929 . S
C134 C133 1.368 . S
C134 C135 1.386 . S
C134 H157 0.929 . S
C135 C134 1.386 . S
C135 C136 1.373 . S
C136 C135 1.373 . S
C136 C137 1.409 . S
C136 H158 0.931 . S
C137 C132 1.356 . S
C137 C136 1.409 . S
C137 H159 0.930 . S
C138 O148 1.270 . S
C138 O149 1.248 . S
C139 O150 1.267 . S
C139 O151 1.278 . S
O140 Pr120 2.562 . S
O140 C122 1.254 . S
O141 Pr120 2.490 . S
O141 C122 1.225 . S
O142 Pr120 2.695 . S
O142 Pr121 2.436 . S
O142 C129 1.270 . S
O143 Pr120 2.512 . S
O143 C129 1.248 . S
O144 Pr121 2.438 . S
O144 C130 1.267 . S
O145 Pr120 2.437 . S
O145 C130 1.278 . S
O146 Pr121 2.562 . S
O146 C131 1.254 . S
O147 Pr121 2.490 . S
O147 C131 1.225 . S
O148 Pr120 2.436 . S
O148 Pr121 2.695 . S
O148 C138 1.270 . S
O149 Pr121 2.512 . S
O149 C138 1.248 . S
O150 Pr120 2.438 . S
O150 C139 1.267 . S
O151 Pr121 2.437 . S
O151 C139 1.278 . S
H152 C124 0.929 . S
H153 C125 0.929 . S
H154 C127 0.931 . S
H155 C128 0.930 . S
H156 C133 0.929 . S
H157 C134 0.929 . S
H158 C136 0.931 . S
H159 C137 0.930 . S
Pr160 C162 2.880 . S
Pr160 O180 2.562 . S
Pr160 O181 2.490 . S
Pr160 O182 2.695 . S
Pr160 O183 2.512 . S
Pr160 O185 2.437 . S
Pr160 O188 2.436 . S
Pr160 O190 2.438 . S
Pr161 C171 2.880 . S
Pr161 O182 2.436 . S
Pr161 O184 2.438 . S
Pr161 O186 2.562 . S
Pr161 O187 2.490 . S
Pr161 O188 2.695 . S
Pr161 O189 2.512 . S
Pr161 O191 2.437 . S
C162 Pr160 2.880 . S
C162 C163 1.491 . S
C162 O180 1.254 . S
C162 O181 1.225 . S
C163 C162 1.491 . S
C163 C164 1.392 . S
C163 C168 1.356 . S
C164 C163 1.392 . S
C164 C165 1.368 . S
C164 H192 0.929 . S
C165 C164 1.368 . S
C165 C166 1.386 . S
C165 H193 0.929 . S
C166 C165 1.386 . S
C166 C167 1.373 . S
C167 C166 1.373 . S
C167 C168 1.409 . S
C167 H194 0.931 . S
C168 C163 1.356 . S
C168 C167 1.409 . S
C168 H195 0.930 . S
C169 O182 1.270 . S
C169 O183 1.248 . S
C170 O184 1.267 . S
C170 O185 1.278 . S
C171 Pr161 2.880 . S
C171 C172 1.491 . S
C171 O186 1.254 . S
C171 O187 1.225 . S
C172 C171 1.491 . S
C172 C173 1.392 . S
C172 C177 1.356 . S
C173 C172 1.392 . S
C173 C174 1.368 . S
C173 H196 0.929 . S
C174 C173 1.368 . S
C174 C175 1.386 . S
C174 H197 0.929 . S
C175 C174 1.386 . S
C175 C176 1.373 . S
C176 C175 1.373 . S
C176 C177 1.409 . S
C176 H198 0.931 . S
C177 C172 1.356 . S
C177 C176 1.409 . S
C177 H199 0.930 . S
C178 O188 1.270 . S
C178 O189 1.248 . S
C179 O190 1.267 . S
C179 O191 1.278 . S
O180 Pr160 2.562 . S
O180 C162 1.254 . S
O181 Pr160 2.490 . S
O181 C162 1.225 . S
O182 Pr160 2.695 . S
O182 Pr161 2.436 . S
O182 C169 1.270 . S
O183 Pr160 2.512 . S
O183 C169 1.248 . S
O184 Pr161 2.438 . S
O184 C170 1.267 . S
O185 Pr160 2.437 . S
O185 C170 1.278 . S
O186 Pr161 2.562 . S
O186 C171 1.254 . S
O187 Pr161 2.490 . S
O187 C171 1.225 . S
O188 Pr160 2.436 . S
O188 Pr161 2.695 . S
O188 C178 1.270 . S
O189 Pr161 2.512 . S
O189 C178 1.248 . S
O190 Pr160 2.438 . S
O190 C179 1.267 . S
O191 Pr161 2.437 . S
O191 C179 1.278 . S
H192 C164 0.929 . S
H193 C165 0.929 . S
H194 C167 0.931 . S
H195 C168 0.930 . S
H196 C173 0.929 . S
H197 C174 0.929 . S
H198 C176 0.931 . S
H199 C177 0.930 . S
Pr200 C202 2.880 1_556 S
Pr200 O220 2.562 . S
Pr200 O221 2.490 . S
Pr200 O222 2.695 . S
Pr200 O223 2.512 . S
Pr200 O225 2.437 . S
Pr200 O228 2.436 . S
Pr200 O230 2.438 . S
Pr201 C211 2.880 . S
Pr201 O222 2.436 . S
Pr201 O224 2.438 . S
Pr201 O226 2.562 . S
Pr201 O227 2.490 . S
Pr201 O228 2.695 . S
Pr201 O229 2.512 . S
Pr201 O231 2.437 . S
C202 Pr200 2.880 1_554 S
C202 C203 1.491 . S
C202 O220 1.254 1_554 S
C202 O221 1.225 1_554 S
C203 C202 1.491 . S
C203 C204 1.392 . S
C203 C208 1.356 . S
C204 C203 1.392 . S
C204 C205 1.368 . S
C204 H232 0.929 . S
C205 C204 1.368 . S
C205 C206 1.386 . S
C205 H233 0.929 . S
C206 C205 1.386 . S
C206 C207 1.373 . S
C207 C206 1.373 . S
C207 C208 1.409 . S
C207 H234 0.931 . S
C208 C203 1.356 . S
C208 C207 1.409 . S
C208 H235 0.930 . S
C209 O222 1.270 . S
C209 O223 1.248 . S
C210 O224 1.267 . S
C210 O225 1.278 . S
C211 Pr201 2.880 . S
C211 C212 1.491 . S
C211 O226 1.254 . S
C211 O227 1.225 . S
C212 C211 1.491 . S
C212 C213 1.392 . S
C212 C217 1.356 . S
C213 C212 1.392 . S
C213 C214 1.368 . S
C213 H236 0.929 . S
C214 C213 1.368 . S
C214 C215 1.386 . S
C214 H237 0.929 . S
C215 C214 1.386 . S
C215 C216 1.373 . S
C216 C215 1.373 . S
C216 C217 1.409 . S
C216 H238 0.931 . S
C217 C212 1.356 . S
C217 C216 1.409 . S
C217 H239 0.930 . S
C218 O228 1.270 . S
C218 O229 1.248 . S
C219 O230 1.267 . S
C219 O231 1.278 . S
O220 Pr200 2.562 . S
O220 C202 1.254 1_556 S
O221 Pr200 2.490 . S
O221 C202 1.225 1_556 S
O222 Pr200 2.695 . S
O222 Pr201 2.436 . S
O222 C209 1.270 . S
O223 Pr200 2.512 . S
O223 C209 1.248 . S
O224 Pr201 2.438 . S
O224 C210 1.267 . S
O225 Pr200 2.437 . S
O225 C210 1.278 . S
O226 Pr201 2.562 . S
O226 C211 1.254 . S
O227 Pr201 2.490 . S
O227 C211 1.225 . S
O228 Pr200 2.436 . S
O228 Pr201 2.695 . S
O228 C218 1.270 . S
O229 Pr201 2.512 . S
O229 C218 1.248 . S
O230 Pr200 2.438 . S
O230 C219 1.267 . S
O231 Pr201 2.437 . S
O231 C219 1.278 . S
H232 C204 0.929 . S
H233 C205 0.929 . S
H234 C207 0.931 . S
H235 C208 0.930 . S
H236 C213 0.929 . S
H237 C214 0.929 . S
H238 C216 0.931 . S
H239 C217 0.930 . S
Pr240 C242 2.880 . S
Pr240 O260 2.562 . S
Pr240 O261 2.490 . S
Pr240 O262 2.695 . S
Pr240 O263 2.512 . S
Pr240 O265 2.437 . S
Pr240 O268 2.436 . S
Pr240 O270 2.438 . S
Pr241 C251 2.880 . S
Pr241 O262 2.436 . S
Pr241 O264 2.438 . S
Pr241 O266 2.562 . S
Pr241 O267 2.490 . S
Pr241 O268 2.695 . S
Pr241 O269 2.512 . S
Pr241 O271 2.437 . S
C242 Pr240 2.880 . S
C242 C243 1.491 . S
C242 O260 1.254 . S
C242 O261 1.225 . S
C243 C242 1.491 . S
C243 C244 1.392 . S
C243 C248 1.356 . S
C244 C243 1.392 . S
C244 C245 1.368 . S
C244 H272 0.929 . S
C245 C244 1.368 . S
C245 C246 1.386 . S
C245 H273 0.929 . S
C246 C245 1.386 . S
C246 C247 1.373 . S
C247 C246 1.373 . S
C247 C248 1.409 . S
C247 H274 0.931 . S
C248 C243 1.356 . S
C248 C247 1.409 . S
C248 H275 0.930 . S
C249 O262 1.270 . S
C249 O263 1.248 . S
C250 O264 1.267 . S
C250 O265 1.278 . S
C251 Pr241 2.880 . S
C251 C252 1.491 . S
C251 O266 1.254 . S
C251 O267 1.225 . S
C252 C251 1.491 . S
C252 C253 1.392 . S
C252 C257 1.356 . S
C253 C252 1.392 . S
C253 C254 1.368 . S
C253 H276 0.929 . S
C254 C253 1.368 . S
C254 C255 1.386 . S
C254 H277 0.929 . S
C255 C254 1.386 . S
C255 C256 1.373 . S
C256 C255 1.373 . S
C256 C257 1.409 . S
C256 H278 0.931 . S
C257 C252 1.356 . S
C257 C256 1.409 . S
C257 H279 0.930 . S
C258 O268 1.270 . S
C258 O269 1.248 . S
C259 O270 1.267 . S
C259 O271 1.278 . S
O260 Pr240 2.562 . S
O260 C242 1.254 . S
O261 Pr240 2.490 . S
O261 C242 1.225 . S
O262 Pr240 2.695 . S
O262 Pr241 2.436 . S
O262 C249 1.270 . S
O263 Pr240 2.512 . S
O263 C249 1.248 . S
O264 Pr241 2.438 . S
O264 C250 1.267 . S
O265 Pr240 2.437 . S
O265 C250 1.278 . S
O266 Pr241 2.562 . S
O266 C251 1.254 . S
O267 Pr241 2.490 . S
O267 C251 1.225 . S
O268 Pr240 2.436 . S
O268 Pr241 2.695 . S
O268 C258 1.270 . S
O269 Pr241 2.512 . S
O269 C258 1.248 . S
O270 Pr240 2.438 . S
O270 C259 1.267 . S
O271 Pr241 2.437 . S
O271 C259 1.278 . S
H272 C244 0.929 . S
H273 C245 0.929 . S
H274 C247 0.931 . S
H275 C248 0.930 . S
H276 C253 0.929 . S
H277 C254 0.929 . S
H278 C256 0.931 . S
H279 C257 0.930 . S
Pr280 C282 2.880 . S
Pr280 O300 2.562 . S
Pr280 O301 2.490 . S
Pr280 O302 2.695 . S
Pr280 O303 2.512 . S
Pr280 O305 2.437 . S
Pr280 O308 2.436 . S
Pr280 O310 2.438 . S
Pr281 C291 2.880 . S
Pr281 O302 2.436 . S
Pr281 O304 2.438 . S
Pr281 O306 2.562 . S
Pr281 O307 2.490 . S
Pr281 O308 2.695 . S
Pr281 O309 2.512 . S
Pr281 O311 2.437 . S
C282 Pr280 2.880 . S
C282 C283 1.491 . S
C282 O300 1.254 . S
C282 O301 1.225 . S
C283 C282 1.491 . S
C283 C284 1.392 . S
C283 C288 1.356 . S
C284 C283 1.392 . S
C284 C285 1.368 . S
C284 H312 0.929 . S
C285 C284 1.368 . S
C285 C286 1.386 . S
C285 H313 0.929 . S
C286 C285 1.386 . S
C286 C287 1.373 . S
C287 C286 1.373 . S
C287 C288 1.409 . S
C287 H314 0.931 . S
C288 C283 1.356 . S
C288 C287 1.409 . S
C288 H315 0.930 . S
C289 O302 1.270 . S
C289 O303 1.248 . S
C290 O304 1.267 . S
C290 O305 1.278 . S
C291 Pr281 2.880 . S
C291 C292 1.491 . S
C291 O306 1.254 . S
C291 O307 1.225 . S
C292 C291 1.491 . S
C292 C293 1.392 . S
C292 C297 1.356 . S
C293 C292 1.392 . S
C293 C294 1.368 . S
C293 H316 0.929 . S
C294 C293 1.368 . S
C294 C295 1.386 . S
C294 H317 0.929 . S
C295 C294 1.386 . S
C295 C296 1.373 . S
C296 C295 1.373 . S
C296 C297 1.409 . S
C296 H318 0.931 . S
C297 C292 1.356 . S
C297 C296 1.409 . S
C297 H319 0.930 . S
C298 O308 1.270 . S
C298 O309 1.248 . S
C299 O310 1.267 . S
C299 O311 1.278 . S
O300 Pr280 2.562 . S
O300 C282 1.254 . S
O301 Pr280 2.490 . S
O301 C282 1.225 . S
O302 Pr280 2.695 . S
O302 Pr281 2.436 . S
O302 C289 1.270 . S
O303 Pr280 2.512 . S
O303 C289 1.248 . S
O304 Pr281 2.438 . S
O304 C290 1.267 . S
O305 Pr280 2.437 . S
O305 C290 1.278 . S
O306 Pr281 2.562 . S
O306 C291 1.254 . S
O307 Pr281 2.490 . S
O307 C291 1.225 . S
O308 Pr280 2.436 . S
O308 Pr281 2.695 . S
O308 C298 1.270 . S
O309 Pr281 2.512 . S
O309 C298 1.248 . S
O310 Pr280 2.438 . S
O310 C299 1.267 . S
O311 Pr281 2.437 . S
O311 C299 1.278 . S
H312 C284 0.929 . S
H313 C285 0.929 . S
H314 C287 0.931 . S
H315 C288 0.930 . S
H316 C293 0.929 . S
H317 C294 0.929 . S
H318 C296 0.931 . S
H319 C297 0.930 . S
Pr320 C322 2.880 1_554 S
Pr320 O340 2.562 . S
Pr320 O341 2.490 . S
Pr320 O342 2.695 . S
Pr320 O343 2.512 . S
Pr320 O345 2.437 . S
Pr320 O348 2.436 . S
Pr320 O350 2.438 . S
Pr321 C331 2.880 . S
Pr321 O342 2.436 . S
Pr321 O344 2.438 . S
Pr321 O346 2.562 . S
Pr321 O347 2.490 . S
Pr321 O348 2.695 . S
Pr321 O349 2.512 . S
Pr321 O351 2.437 . S
C322 Pr320 2.880 1_556 S
C322 C323 1.491 . S
C322 O340 1.254 1_556 S
C322 O341 1.225 1_556 S
C323 C322 1.491 . S
C323 C324 1.392 . S
C323 C328 1.356 . S
C324 C323 1.392 . S
C324 C325 1.368 . S
C324 H352 0.929 . S
C325 C324 1.368 . S
C325 C326 1.386 . S
C325 H353 0.929 . S
C326 C325 1.386 . S
C326 C327 1.373 . S
C327 C326 1.373 . S
C327 C328 1.409 . S
C327 H354 0.931 . S
C328 C323 1.356 . S
C328 C327 1.409 . S
C328 H355 0.930 . S
C329 O342 1.270 . S
C329 O343 1.248 . S
C330 O344 1.267 . S
C330 O345 1.278 . S
C331 Pr321 2.880 . S
C331 C332 1.491 . S
C331 O346 1.254 . S
C331 O347 1.225 . S
C332 C331 1.491 . S
C332 C333 1.392 . S
C332 C337 1.356 . S
C333 C332 1.392 . S
C333 C334 1.368 . S
C333 H356 0.929 . S
C334 C333 1.368 . S
C334 C335 1.386 . S
C334 H357 0.929 . S
C335 C334 1.386 . S
C335 C336 1.373 . S
C336 C335 1.373 . S
C336 C337 1.409 . S
C336 H358 0.931 . S
C337 C332 1.356 . S
C337 C336 1.409 . S
C337 H359 0.930 . S
C338 O348 1.270 . S
C338 O349 1.248 . S
C339 O350 1.267 . S
C339 O351 1.278 . S
O340 Pr320 2.562 . S
O340 C322 1.254 1_554 S
O341 Pr320 2.490 . S
O341 C322 1.225 1_554 S
O342 Pr320 2.695 . S
O342 Pr321 2.436 . S
O342 C329 1.270 . S
O343 Pr320 2.512 . S
O343 C329 1.248 . S
O344 Pr321 2.438 . S
O344 C330 1.267 . S
O345 Pr320 2.437 . S
O345 C330 1.278 . S
O346 Pr321 2.562 . S
O346 C331 1.254 . S
O347 Pr321 2.490 . S
O347 C331 1.225 . S
O348 Pr320 2.436 . S
O348 Pr321 2.695 . S
O348 C338 1.270 . S
O349 Pr321 2.512 . S
O349 C338 1.248 . S
O350 Pr320 2.438 . S
O350 C339 1.267 . S
O351 Pr321 2.437 . S
O351 C339 1.278 . S
H352 C324 0.929 . S
H353 C325 0.929 . S
H354 C327 0.931 . S
H355 C328 0.930 . S
H356 C333 0.929 . S
H357 C334 0.929 . S
H358 C336 0.931 . S
H359 C337 0.930 . S
Pr360 C362 2.880 . S
Pr360 O380 2.562 . S
Pr360 O381 2.490 . S
Pr360 O382 2.695 . S
Pr360 O383 2.512 . S
Pr360 O385 2.437 . S
Pr360 O388 2.436 . S
Pr360 O390 2.438 . S
Pr361 C371 2.880 . S
Pr361 O382 2.436 . S
Pr361 O384 2.438 . S
Pr361 O386 2.562 . S
Pr361 O387 2.490 . S
Pr361 O388 2.695 . S
Pr361 O389 2.512 . S
Pr361 O391 2.437 . S
C362 Pr360 2.880 . S
C362 C363 1.491 . S
C362 O380 1.254 . S
C362 O381 1.225 . S
C363 C362 1.491 . S
C363 C364 1.392 . S
C363 C368 1.356 . S
C364 C363 1.392 . S
C364 C365 1.368 . S
C364 H392 0.929 . S
C365 C364 1.368 . S
C365 C366 1.386 . S
C365 H393 0.929 . S
C366 C365 1.386 . S
C366 C367 1.373 . S
C367 C366 1.373 . S
C367 C368 1.409 . S
C367 H394 0.931 . S
C368 C363 1.356 . S
C368 C367 1.409 . S
C368 H395 0.930 . S
C369 O382 1.270 . S
C369 O383 1.248 . S
C370 O384 1.267 . S
C370 O385 1.278 . S
C371 Pr361 2.880 . S
C371 C372 1.491 . S
C371 O386 1.254 . S
C371 O387 1.225 . S
C372 C371 1.491 . S
C372 C373 1.392 . S
C372 C377 1.356 . S
C373 C372 1.392 . S
C373 C374 1.368 . S
C373 H396 0.929 . S
C374 C373 1.368 . S
C374 C375 1.386 . S
C374 H397 0.929 . S
C375 C374 1.386 . S
C375 C376 1.373 . S
C376 C375 1.373 . S
C376 C377 1.409 . S
C376 H398 0.931 . S
C377 C372 1.356 . S
C377 C376 1.409 . S
C377 H399 0.930 . S
C378 O388 1.270 . S
C378 O389 1.248 . S
C379 O390 1.267 . S
C379 O391 1.278 . S
O380 Pr360 2.562 . S
O380 C362 1.254 . S
O381 Pr360 2.490 . S
O381 C362 1.225 . S
O382 Pr360 2.695 . S
O382 Pr361 2.436 . S
O382 C369 1.270 . S
O383 Pr360 2.512 . S
O383 C369 1.248 . S
O384 Pr361 2.438 . S
O384 C370 1.267 . S
O385 Pr360 2.437 . S
O385 C370 1.278 . S
O386 Pr361 2.562 . S
O386 C371 1.254 . S
O387 Pr361 2.490 . S
O387 C371 1.225 . S
O388 Pr360 2.436 . S
O388 Pr361 2.695 . S
O388 C378 1.270 . S
O389 Pr361 2.512 . S
O389 C378 1.248 . S
O390 Pr360 2.438 . S
O390 C379 1.267 . S
O391 Pr361 2.437 . S
O391 C379 1.278 . S
H392 C364 0.929 . S
H393 C365 0.929 . S
H394 C367 0.931 . S
H395 C368 0.930 . S
H396 C373 0.929 . S
H397 C374 0.929 . S
H398 C376 0.931 . S
H399 C377 0.930 . S
Pr400 C402 2.880 . S
Pr400 O420 2.562 . S
Pr400 O421 2.490 . S
Pr400 O422 2.695 . S
Pr400 O423 2.512 . S
Pr400 O425 2.437 . S
Pr400 O428 2.436 . S
Pr400 O430 2.438 . S
Pr401 C411 2.880 . S
Pr401 O422 2.436 . S
Pr401 O424 2.438 . S
Pr401 O426 2.562 . S
Pr401 O427 2.490 . S
Pr401 O428 2.695 . S
Pr401 O429 2.512 . S
Pr401 O431 2.437 . S
C402 Pr400 2.880 . S
C402 C403 1.491 . S
C402 O420 1.254 . S
C402 O421 1.225 . S
C403 C402 1.491 . S
C403 C404 1.392 . S
C403 C408 1.356 . S
C404 C403 1.392 . S
C404 C405 1.368 . S
C404 H432 0.929 . S
C405 C404 1.368 . S
C405 C406 1.386 . S
C405 H433 0.929 . S
C406 C405 1.386 . S
C406 C407 1.373 . S
C407 C406 1.373 . S
C407 C408 1.409 . S
C407 H434 0.931 . S
C408 C403 1.356 . S
C408 C407 1.409 . S
C408 H435 0.930 . S
C409 O422 1.270 . S
C409 O423 1.248 . S
C410 O424 1.267 . S
C410 O425 1.278 . S
C411 Pr401 2.880 . S
C411 C412 1.491 . S
C411 O426 1.254 . S
C411 O427 1.225 . S
C412 C411 1.491 . S
C412 C413 1.392 . S
C412 C417 1.356 . S
C413 C412 1.392 . S
C413 C414 1.368 . S
C413 H436 0.929 . S
C414 C413 1.368 . S
C414 C415 1.386 . S
C414 H437 0.929 . S
C415 C414 1.386 . S
C415 C416 1.373 . S
C416 C415 1.373 . S
C416 C417 1.409 . S
C416 H438 0.931 . S
C417 C412 1.356 . S
C417 C416 1.409 . S
C417 H439 0.930 . S
C418 O428 1.270 . S
C418 O429 1.248 . S
C419 O430 1.267 . S
C419 O431 1.278 . S
O420 Pr400 2.562 . S
O420 C402 1.254 . S
O421 Pr400 2.490 . S
O421 C402 1.225 . S
O422 Pr400 2.695 . S
O422 Pr401 2.436 . S
O422 C409 1.270 . S
O423 Pr400 2.512 . S
O423 C409 1.248 . S
O424 Pr401 2.438 . S
O424 C410 1.267 . S
O425 Pr400 2.437 . S
O425 C410 1.278 . S
O426 Pr401 2.562 . S
O426 C411 1.254 . S
O427 Pr401 2.490 . S
O427 C411 1.225 . S
O428 Pr400 2.436 . S
O428 Pr401 2.695 . S
O428 C418 1.270 . S
O429 Pr401 2.512 . S
O429 C418 1.248 . S
O430 Pr400 2.438 . S
O430 C419 1.267 . S
O431 Pr401 2.437 . S
O431 C419 1.278 . S
H432 C404 0.929 . S
H433 C405 0.929 . S
H434 C407 0.931 . S
H435 C408 0.930 . S
H436 C413 0.929 . S
H437 C414 0.929 . S
H438 C416 0.931 . S
H439 C417 0.930 . S
Pr440 C442 2.880 1_554 S
Pr440 O460 2.562 . S
Pr440 O461 2.490 . S
Pr440 O462 2.695 . S
Pr440 O463 2.512 . S
Pr440 O465 2.437 . S
Pr440 O468 2.436 . S
Pr440 O470 2.438 . S
Pr441 C451 2.880 . S
Pr441 O462 2.436 . S
Pr441 O464 2.438 . S
Pr441 O466 2.562 . S
Pr441 O467 2.490 . S
Pr441 O468 2.695 . S
Pr441 O469 2.512 . S
Pr441 O471 2.437 . S
C442 Pr440 2.880 1_556 S
C442 C443 1.491 . S
C442 O460 1.254 1_556 S
C442 O461 1.225 1_556 S
C443 C442 1.491 . S
C443 C444 1.392 . S
C443 C448 1.356 . S
C444 C443 1.392 . S
C444 C445 1.368 . S
C444 H472 0.929 . S
C445 C444 1.368 . S
C445 C446 1.386 . S
C445 H473 0.929 . S
C446 C445 1.386 . S
C446 C447 1.373 . S
C447 C446 1.373 . S
C447 C448 1.409 . S
C447 H474 0.931 . S
C448 C443 1.356 . S
C448 C447 1.409 . S
C448 H475 0.930 . S
C449 O462 1.270 . S
C449 O463 1.248 . S
C450 O464 1.267 . S
C450 O465 1.278 . S
C451 Pr441 2.880 . S
C451 C452 1.491 . S
C451 O466 1.254 . S
C451 O467 1.225 . S
C452 C451 1.491 . S
C452 C453 1.392 . S
C452 C457 1.356 . S
C453 C452 1.392 . S
C453 C454 1.368 . S
C453 H476 0.929 . S
C454 C453 1.368 . S
C454 C455 1.386 . S
C454 H477 0.929 . S
C455 C454 1.386 . S
C455 C456 1.373 . S
C456 C455 1.373 . S
C456 C457 1.409 . S
C456 H478 0.931 . S
C457 C452 1.356 . S
C457 C456 1.409 . S
C457 H479 0.930 . S
C458 O468 1.270 . S
C458 O469 1.248 . S
C459 O470 1.267 . S
C459 O471 1.278 . S
O460 Pr440 2.562 . S
O460 C442 1.254 1_554 S
O461 Pr440 2.490 . S
O461 C442 1.225 1_554 S
O462 Pr440 2.695 . S
O462 Pr441 2.436 . S
O462 C449 1.270 . S
O463 Pr440 2.512 . S
O463 C449 1.248 . S
O464 Pr441 2.438 . S
O464 C450 1.267 . S
O465 Pr440 2.437 . S
O465 C450 1.278 . S
O466 Pr441 2.562 . S
O466 C451 1.254 . S
O467 Pr441 2.490 . S
O467 C451 1.225 . S
O468 Pr440 2.436 . S
O468 Pr441 2.695 . S
O468 C458 1.270 . S
O469 Pr441 2.512 . S
O469 C458 1.248 . S
O470 Pr440 2.438 . S
O470 C459 1.267 . S
O471 Pr441 2.437 . S
O471 C459 1.278 . S
H472 C444 0.929 . S
H473 C445 0.929 . S
H474 C447 0.931 . S
H475 C448 0.930 . S
H476 C453 0.929 . S
H477 C454 0.929 . S
H478 C456 0.931 . S
H479 C457 0.930 . S
H480 C492 0.930 . S
H481 C494 0.930 . S
H482 C495 0.930 . S
H483 C499 0.959 . S
H484 C499 0.959 . S
H485 C499 0.961 . S
H486 C500 0.960 . S
H487 C500 0.961 . S
H488 C500 0.959 . S
H489 C503 0.929 . S
H490 C504 0.931 . S
H491 C506 0.930 . S
C492 H480 0.930 . S
C492 C493 1.399 . S
C492 C497 1.399 . S
C493 C492 1.399 . S
C493 C494 1.376 . S
C494 H481 0.930 . S
C494 C493 1.376 . S
C494 C495 1.388 . S
C495 H482 0.930 . S
C495 C494 1.388 . S
C495 C496 1.390 . S
C496 C495 1.390 . S
C496 C497 1.394 . S
C496 C502 1.465 . S
C497 C492 1.399 . S
C497 C496 1.394 . S
C497 C498 1.516 . S
C498 C497 1.516 . S
C498 C499 1.502 . S
C498 C500 1.561 . S
C498 C501 1.526 . S
C499 H483 0.959 . S
C499 H484 0.959 . S
C499 H485 0.961 . S
C499 C498 1.502 . S
C500 H486 0.960 . S
C500 H487 0.961 . S
C500 H488 0.959 . S
C500 C498 1.561 . S
C501 C498 1.526 . S
C501 C502 1.396 . S
C501 C506 1.390 . S
C502 C496 1.465 . S
C502 C501 1.396 . S
C502 C503 1.399 . S
C503 H489 0.929 . S
C503 C502 1.399 . S
C503 C504 1.385 . S
C504 H490 0.931 . S
C504 C503 1.385 . S
C504 C505 1.389 . S
C505 C504 1.389 . S
C505 C506 1.387 . S
C506 H491 0.930 . S
C506 C501 1.390 . S
C506 C505 1.387 . S
H507 C519 0.930 . S
H508 C521 0.930 . S
H509 C522 0.930 . S
H510 C526 0.959 . S
H511 C526 0.959 . S
H512 C526 0.961 . S
H513 C527 0.960 . S
H514 C527 0.961 . S
H515 C527 0.959 . S
H516 C530 0.929 . S
H517 C531 0.931 . S
H518 C533 0.930 . S
C519 H507 0.930 . S
C519 C520 1.399 . S
C519 C524 1.399 . S
C520 C519 1.399 . S
C520 C521 1.376 . S
C521 H508 0.930 . S
C521 C520 1.376 . S
C521 C522 1.388 . S
C522 H509 0.930 . S
C522 C521 1.388 . S
C522 C523 1.390 . S
C523 C522 1.390 . S
C523 C524 1.394 . S
C523 C529 1.465 . S
C524 C519 1.399 . S
C524 C523 1.394 . S
C524 C525 1.516 . S
C525 C524 1.516 . S
C525 C526 1.502 . S
C525 C527 1.561 . S
C525 C528 1.526 . S
C526 H510 0.959 . S
C526 H511 0.959 . S
C526 H512 0.961 . S
C526 C525 1.502 . S
C527 H513 0.960 . S
C527 H514 0.961 . S
C527 H515 0.959 . S
C527 C525 1.561 . S
C528 C525 1.526 . S
C528 C529 1.396 . S
C528 C533 1.390 . S
C529 C523 1.465 . S
C529 C528 1.396 . S
C529 C530 1.399 . S
C530 H516 0.929 . S
C530 C529 1.399 . S
C530 C531 1.385 . S
C531 H517 0.931 . S
C531 C530 1.385 . S
C531 C532 1.389 . S
C532 C531 1.389 . S
C532 C533 1.387 . S
C533 H518 0.930 . S
C533 C528 1.390 . S
C533 C532 1.387 . S
H534 C546 0.930 . S
H535 C548 0.930 . S
H536 C549 0.930 . S
H537 C553 0.959 . S
H538 C553 0.959 . S
H539 C553 0.961 . S
H540 C554 0.960 . S
H541 C554 0.961 . S
H542 C554 0.959 . S
H543 C557 0.929 . S
H544 C558 0.931 . S
H545 C560 0.930 . S
C546 H534 0.930 . S
C546 C547 1.399 . S
C546 C551 1.399 . S
C547 C546 1.399 . S
C547 C548 1.376 . S
C548 H535 0.930 . S
C548 C547 1.376 . S
C548 C549 1.388 . S
C549 H536 0.930 . S
C549 C548 1.388 . S
C549 C550 1.390 . S
C550 C549 1.390 . S
C550 C551 1.394 . S
C550 C556 1.465 . S
C551 C546 1.399 . S
C551 C550 1.394 . S
C551 C552 1.516 . S
C552 C551 1.516 . S
C552 C553 1.502 . S
C552 C554 1.561 . S
C552 C555 1.526 . S
C553 H537 0.959 . S
C553 H538 0.959 . S
C553 H539 0.961 . S
C553 C552 1.502 . S
C554 H540 0.960 . S
C554 H541 0.961 . S
C554 H542 0.959 . S
C554 C552 1.561 . S
C555 C552 1.526 . S
C555 C556 1.396 . S
C555 C560 1.390 . S
C556 C550 1.465 . S
C556 C555 1.396 . S
C556 C557 1.399 . S
C557 H543 0.929 . S
C557 C556 1.399 . S
C557 C558 1.385 . S
C558 H544 0.931 . S
C558 C557 1.385 . S
C558 C559 1.389 . S
C559 C558 1.389 . S
C559 C560 1.387 . S
C560 H545 0.930 . S
C560 C555 1.390 . S
C560 C559 1.387 . S
H561 C573 0.930 . S
H562 C575 0.930 . S
H563 C576 0.930 . S
H564 C580 0.959 . S
H565 C580 0.959 . S
H566 C580 0.961 . S
H567 C581 0.960 . S
H568 C581 0.961 . S
H569 C581 0.959 . S
H570 C584 0.929 . S
H571 C585 0.931 . S
H572 C587 0.930 . S
C573 H561 0.930 . S
C573 C574 1.399 . S
C573 C578 1.399 . S
C574 C573 1.399 . S
C574 C575 1.376 . S
C575 H562 0.930 . S
C575 C574 1.376 . S
C575 C576 1.388 . S
C576 H563 0.930 . S
C576 C575 1.388 . S
C576 C577 1.390 . S
C577 C576 1.390 . S
C577 C578 1.394 . S
C577 C583 1.465 . S
C578 C573 1.399 . S
C578 C577 1.394 . S
C578 C579 1.516 . S
C579 C578 1.516 . S
C579 C580 1.502 . S
C579 C581 1.561 . S
C579 C582 1.526 . S
C580 H564 0.959 . S
C580 H565 0.959 . S
C580 H566 0.961 . S
C580 C579 1.502 . S
C581 H567 0.960 . S
C581 H568 0.961 . S
C581 H569 0.959 . S
C581 C579 1.561 . S
C582 C579 1.526 . S
C582 C583 1.396 . S
C582 C587 1.390 . S
C583 C577 1.465 . S
C583 C582 1.396 . S
C583 C584 1.399 . S
C584 H570 0.929 . S
C584 C583 1.399 . S
C584 C585 1.385 . S
C585 H571 0.931 . S
C585 C584 1.385 . S
C585 C586 1.389 . S
C586 C585 1.389 . S
C586 C587 1.387 . S
C587 H572 0.930 . S
C587 C582 1.390 . S
C587 C586 1.387 . S
H588 C600 0.930 . S
H589 C602 0.930 . S
H590 C603 0.930 . S
H591 C607 0.959 . S
H592 C607 0.959 . S
H593 C607 0.961 . S
H594 C608 0.960 . S
H595 C608 0.961 . S
H596 C608 0.959 . S
H597 C611 0.929 . S
H598 C612 0.931 . S
H599 C614 0.930 . S
C600 H588 0.930 . S
C600 C601 1.399 . S
C600 C605 1.399 . S
C601 C600 1.399 . S
C601 C602 1.376 . S
C602 H589 0.930 . S
C602 C601 1.376 . S
C602 C603 1.388 . S
C603 H590 0.930 . S
C603 C602 1.388 . S
C603 C604 1.390 . S
C604 C603 1.390 . S
C604 C605 1.394 . S
C604 C610 1.465 . S
C605 C600 1.399 . S
C605 C604 1.394 . S
C605 C606 1.516 . S
C606 C605 1.516 . S
C606 C607 1.502 . S
C606 C608 1.561 . S
C606 C609 1.526 . S
C607 H591 0.959 . S
C607 H592 0.959 . S
C607 H593 0.961 . S
C607 C606 1.502 . S
C608 H594 0.960 . S
C608 H595 0.961 . S
C608 H596 0.959 . S
C608 C606 1.561 . S
C609 C606 1.526 . S
C609 C610 1.396 . S
C609 C614 1.390 . S
C610 C604 1.465 . S
C610 C609 1.396 . S
C610 C611 1.399 . S
C611 H597 0.929 . S
C611 C610 1.399 . S
C611 C612 1.385 . S
C612 H598 0.931 . S
C612 C611 1.385 . S
C612 C613 1.389 . S
C613 C612 1.389 . S
C613 C614 1.387 . S
C614 H599 0.930 . S
C614 C609 1.390 . S
C614 C613 1.387 . S
H615 C627 0.930 . S
H616 C629 0.930 . S
H617 C630 0.930 . S
H618 C634 0.959 . S
H619 C634 0.959 . S
H620 C634 0.961 . S
H621 C635 0.960 . S
H622 C635 0.961 . S
H623 C635 0.959 . S
H624 C638 0.929 . S
H625 C639 0.931 . S
H626 C641 0.930 . S
C627 H615 0.930 . S
C627 C628 1.399 . S
C627 C632 1.399 . S
C628 C627 1.399 . S
C628 C629 1.376 . S
C629 H616 0.930 . S
C629 C628 1.376 . S
C629 C630 1.388 . S
C630 H617 0.930 . S
C630 C629 1.388 . S
C630 C631 1.390 . S
C631 C630 1.390 . S
C631 C632 1.394 . S
C631 C637 1.465 . S
C632 C627 1.399 . S
C632 C631 1.394 . S
C632 C633 1.516 . S
C633 C632 1.516 . S
C633 C634 1.502 . S
C633 C635 1.561 . S
C633 C636 1.526 . S
C634 H618 0.959 . S
C634 H619 0.959 . S
C634 H620 0.961 . S
C634 C633 1.502 . S
C635 H621 0.960 . S
C635 H622 0.961 . S
C635 H623 0.959 . S
C635 C633 1.561 . S
C636 C633 1.526 . S
C636 C637 1.396 . S
C636 C641 1.390 . S
C637 C631 1.465 . S
C637 C636 1.396 . S
C637 C638 1.399 . S
C638 H624 0.929 . S
C638 C637 1.399 . S
C638 C639 1.385 . S
C639 H625 0.931 . S
C639 C638 1.385 . S
C639 C640 1.389 . S
C640 C639 1.389 . S
C640 C641 1.387 . S
C641 H626 0.930 . S
C641 C636 1.390 . S
C641 C640 1.387 . S
H642 C654 0.930 . S
H643 C656 0.930 . S
H644 C657 0.930 . S
H645 C661 0.959 . S
H646 C661 0.959 . S
H647 C661 0.961 . S
H648 C662 0.960 . S
H649 C662 0.961 . S
H650 C662 0.959 . S
H651 C665 0.929 . S
H652 C666 0.931 . S
H653 C668 0.930 . S
C654 H642 0.930 . S
C654 C655 1.399 . S
C654 C659 1.399 . S
C655 C654 1.399 . S
C655 C656 1.376 . S
C656 H643 0.930 . S
C656 C655 1.376 . S
C656 C657 1.388 . S
C657 H644 0.930 . S
C657 C656 1.388 . S
C657 C658 1.390 . S
C658 C657 1.390 . S
C658 C659 1.394 . S
C658 C664 1.465 1_556 S
C659 C654 1.399 . S
C659 C658 1.394 . S
C659 C660 1.517 1_556 S
C660 C659 1.517 1_554 S
C660 C661 1.502 1_554 S
C660 C662 1.561 . S
C660 C663 1.525 . S
C661 H645 0.959 . S
C661 H646 0.959 . S
C661 H647 0.961 . S
C661 C660 1.502 1_556 S
C662 H648 0.960 . S
C662 H649 0.961 . S
C662 H650 0.959 . S
C662 C660 1.561 . S
C663 C660 1.525 . S
C663 C664 1.396 . S
C663 C668 1.390 . S
C664 C658 1.465 1_554 S
C664 C663 1.396 . S
C664 C665 1.399 . S
C665 H651 0.929 . S
C665 C664 1.399 . S
C665 C666 1.385 . S
C666 H652 0.931 . S
C666 C665 1.385 . S
C666 C667 1.389 . S
C667 C666 1.389 . S
C667 C668 1.387 . S
C668 H653 0.930 . S
C668 C663 1.390 . S
C668 C667 1.387 . S
H669 C681 0.930 . S
H670 C683 0.930 . S
H671 C684 0.930 . S
H672 C688 0.959 . S
H673 C688 0.959 . S
H674 C688 0.961 . S
H675 C689 0.960 . S
H676 C689 0.961 . S
H677 C689 0.959 . S
H678 C692 0.929 . S
H679 C693 0.931 . S
H680 C695 0.930 . S
C681 H669 0.930 . S
C681 C682 1.399 . S
C681 C686 1.399 . S
C682 C681 1.399 . S
C682 C683 1.376 . S
C683 H670 0.930 . S
C683 C682 1.376 . S
C683 C684 1.388 . S
C684 H671 0.930 . S
C684 C683 1.388 . S
C684 C685 1.390 . S
C685 C684 1.390 . S
C685 C686 1.394 . S
C685 C691 1.465 . S
C686 C681 1.399 . S
C686 C685 1.394 . S
C686 C687 1.516 . S
C687 C686 1.516 . S
C687 C688 1.502 . S
C687 C689 1.561 . S
C687 C690 1.526 . S
C688 H672 0.959 . S
C688 H673 0.959 . S
C688 H674 0.961 . S
C688 C687 1.502 . S
C689 H675 0.960 . S
C689 H676 0.961 . S
C689 H677 0.959 . S
C689 C687 1.561 . S
C690 C687 1.526 . S
C690 C691 1.396 . S
C690 C695 1.390 . S
C691 C685 1.465 . S
C691 C690 1.396 . S
C691 C692 1.399 . S
C692 H678 0.929 . S
C692 C691 1.399 . S
C692 C693 1.385 . S
C693 H679 0.931 . S
C693 C692 1.385 . S
C693 C694 1.389 . S
C694 C693 1.389 . S
C694 C695 1.387 . S
C695 H680 0.930 . S
C695 C690 1.390 . S
C695 C694 1.387 . S
H696 C708 0.930 . S
H697 C710 0.930 . S
H698 C711 0.930 . S
H699 C715 0.959 . S
H700 C715 0.959 . S
H701 C715 0.961 . S
H702 C716 0.960 . S
H703 C716 0.961 . S
H704 C716 0.959 . S
H705 C719 0.929 . S
H706 C720 0.931 . S
H707 C722 0.930 . S
C708 H696 0.930 . S
C708 C709 1.399 . S
C708 C713 1.399 . S
C709 C708 1.399 . S
C709 C710 1.376 . S
C710 H697 0.930 . S
C710 C709 1.376 . S
C710 C711 1.388 . S
C711 H698 0.930 . S
C711 C710 1.388 . S
C711 C712 1.390 . S
C712 C711 1.390 . S
C712 C713 1.394 . S
C712 C718 1.465 . S
C713 C708 1.399 . S
C713 C712 1.394 . S
C713 C714 1.516 . S
C714 C713 1.516 . S
C714 C715 1.502 . S
C714 C716 1.561 . S
C714 C717 1.526 . S
C715 H699 0.959 . S
C715 H700 0.959 . S
C715 H701 0.961 . S
C715 C714 1.502 . S
C716 H702 0.960 . S
C716 H703 0.961 . S
C716 H704 0.959 . S
C716 C714 1.561 . S
C717 C714 1.526 . S
C717 C718 1.396 . S
C717 C722 1.390 . S
C718 C712 1.465 . S
C718 C717 1.396 . S
C718 C719 1.399 . S
C719 H705 0.929 . S
C719 C718 1.399 . S
C719 C720 1.385 . S
C720 H706 0.931 . S
C720 C719 1.385 . S
C720 C721 1.389 . S
C721 C720 1.389 . S
C721 C722 1.387 . S
C722 H707 0.930 . S
C722 C717 1.390 . S
C722 C721 1.387 . S
H723 C735 0.930 . S
H724 C737 0.930 . S
H725 C738 0.930 . S
H726 C742 0.959 . S
H727 C742 0.959 . S
H728 C742 0.961 . S
H729 C743 0.960 1_556 S
H730 C743 0.961 . S
H731 C743 0.959 . S
H732 C746 0.929 . S
H733 C747 0.931 . S
H734 C749 0.930 . S
C735 H723 0.930 . S
C735 C736 1.399 . S
C735 C740 1.399 . S
C736 C735 1.399 . S
C736 C737 1.376 . S
C737 H724 0.930 . S
C737 C736 1.376 . S
C737 C738 1.388 . S
C738 H725 0.930 . S
C738 C737 1.388 . S
C738 C739 1.390 . S
C739 C738 1.390 . S
C739 C740 1.394 . S
C739 C745 1.465 1_556 S
C740 C735 1.399 . S
C740 C739 1.394 . S
C740 C741 1.516 . S
C741 C740 1.516 . S
C741 C742 1.502 . S
C741 C743 1.561 1_556 S
C741 C744 1.526 1_556 S
C742 H726 0.959 . S
C742 H727 0.959 . S
C742 H728 0.961 . S
C742 C741 1.502 . S
C743 H729 0.960 1_554 S
C743 H730 0.961 . S
C743 H731 0.959 . S
C743 C741 1.561 1_554 S
C744 C741 1.526 1_554 S
C744 C745 1.396 . S
C744 C749 1.390 . S
C745 C739 1.465 1_554 S
C745 C744 1.396 . S
C745 C746 1.399 . S
C746 H732 0.929 . S
C746 C745 1.399 . S
C746 C747 1.385 . S
C747 H733 0.931 . S
C747 C746 1.385 . S
C747 C748 1.389 . S
C748 C747 1.389 . S
C748 C749 1.387 . S
C749 H734 0.930 . S
C749 C744 1.390 . S
C749 C748 1.387 . S
H750 C762 0.930 . S
H751 C764 0.930 . S
H752 C765 0.930 . S
H753 C769 0.959 . S
H754 C769 0.959 . S
H755 C769 0.961 . S
H756 C770 0.960 . S
H757 C770 0.961 . S
H758 C770 0.959 . S
H759 C773 0.929 . S
H760 C774 0.931 . S
H761 C776 0.930 . S
C762 H750 0.930 . S
C762 C763 1.399 . S
C762 C767 1.399 . S
C763 C762 1.399 . S
C763 C764 1.376 . S
C764 H751 0.930 . S
C764 C763 1.376 . S
C764 C765 1.388 . S
C765 H752 0.930 . S
C765 C764 1.388 . S
C765 C766 1.390 . S
C766 C765 1.390 . S
C766 C767 1.394 . S
C766 C772 1.465 . S
C767 C762 1.399 . S
C767 C766 1.394 . S
C767 C768 1.516 . S
C768 C767 1.516 . S
C768 C769 1.502 . S
C768 C770 1.561 . S
C768 C771 1.526 . S
C769 H753 0.959 . S
C769 H754 0.959 . S
C769 H755 0.961 . S
C769 C768 1.502 . S
C770 H756 0.960 . S
C770 H757 0.961 . S
C770 H758 0.959 . S
C770 C768 1.561 . S
C771 C768 1.526 . S
C771 C772 1.396 . S
C771 C776 1.390 . S
C772 C766 1.465 . S
C772 C771 1.396 . S
C772 C773 1.399 . S
C773 H759 0.929 . S
C773 C772 1.399 . S
C773 C774 1.385 . S
C774 H760 0.931 . S
C774 C773 1.385 . S
C774 C775 1.389 . S
C775 C774 1.389 . S
C775 C776 1.387 . S
C776 H761 0.930 . S
C776 C771 1.390 . S
C776 C775 1.387 . S
H777 C789 0.930 . S
H778 C791 0.930 . S
H779 C792 0.930 . S
H780 C796 0.959 . S
H781 C796 0.959 . S
H782 C796 0.961 . S
H783 C797 0.960 . S
H784 C797 0.961 . S
H785 C797 0.959 . S
H786 C800 0.929 . S
H787 C801 0.931 . S
H788 C803 0.930 . S
C789 H777 0.930 . S
C789 C790 1.399 . S
C789 C794 1.399 . S
C790 C789 1.399 . S
C790 C791 1.376 . S
C791 H778 0.930 . S
C791 C790 1.376 . S
C791 C792 1.388 . S
C792 H779 0.930 . S
C792 C791 1.388 . S
C792 C793 1.390 . S
C793 C792 1.390 . S
C793 C794 1.394 . S
C793 C799 1.465 . S
C794 C789 1.399 . S
C794 C793 1.394 . S
C794 C795 1.516 . S
C795 C794 1.516 . S
C795 C796 1.502 . S
C795 C797 1.561 . S
C795 C798 1.526 . S
C796 H780 0.959 . S
C796 H781 0.959 . S
C796 H782 0.961 . S
C796 C795 1.502 . S
C797 H783 0.960 . S
C797 H784 0.961 . S
C797 H785 0.959 . S
C797 C795 1.561 . S
C798 C795 1.526 . S
C798 C799 1.396 . S
C798 C803 1.390 . S
C799 C793 1.465 . S
C799 C798 1.396 . S
C799 C800 1.399 . S
C800 H786 0.929 . S
C800 C799 1.399 . S
C800 C801 1.385 . S
C801 H787 0.931 . S
C801 C800 1.385 . S
C801 C802 1.389 . S
C802 C801 1.389 . S
C802 C803 1.387 . S
C803 H788 0.930 . S
C803 C798 1.390 . S
C803 C802 1.387 . S
H804 C816 0.930 . S
H805 C818 0.930 . S
H806 C819 0.930 . S
H807 C823 0.959 . S
H808 C823 0.959 . S
H809 C823 0.961 . S
H810 C824 0.960 . S
H811 C824 0.961 . S
H812 C824 0.959 . S
H813 C827 0.929 . S
H814 C828 0.931 . S
H815 C830 0.930 1_565 S
C816 H804 0.930 . S
C816 C817 1.399 . S
C816 C821 1.399 . S
C817 C816 1.399 . S
C817 C818 1.376 . S
C818 H805 0.930 . S
C818 C817 1.376 . S
C818 C819 1.388 1_565 S
C819 H806 0.930 . S
C819 C818 1.388 1_545 S
C819 C820 1.390 . S
C820 C819 1.390 . S
C820 C821 1.394 1_545 S
C820 C826 1.465 1_556 S
C821 C816 1.399 . S
C821 C820 1.394 1_565 S
C821 C822 1.516 1_556 S
C822 C821 1.516 1_554 S
C822 C823 1.502 . S
C822 C824 1.561 . S
C822 C825 1.524 1_565 S
C823 H807 0.959 . S
C823 H808 0.959 . S
C823 H809 0.961 . S
C823 C822 1.502 . S
C824 H810 0.960 . S
C824 H811 0.961 . S
C824 H812 0.959 . S
C824 C822 1.561 . S
C825 C822 1.524 1_545 S
C825 C826 1.397 . S
C825 C830 1.391 . S
C826 C820 1.465 1_554 S
C826 C825 1.397 . S
C826 C827 1.399 . S
C827 H813 0.929 . S
C827 C826 1.399 . S
C827 C828 1.385 . S
C828 H814 0.931 . S
C828 C827 1.385 . S
C828 C829 1.389 . S
C829 C828 1.389 . S
C829 C830 1.387 . S
C830 H815 0.930 1_545 S
C830 C825 1.391 . S
C830 C829 1.387 . S
H831 C843 0.930 . S
H832 C845 0.930 . S
H833 C846 0.930 . S
H834 C850 0.959 . S
H835 C850 0.959 . S
H836 C850 0.961 . S
H837 C851 0.960 . S
H838 C851 0.961 . S
H839 C851 0.959 . S
H840 C854 0.929 . S
H841 C855 0.931 . S
H842 C857 0.930 . S
C843 H831 0.930 . S
C843 C844 1.399 . S
C843 C848 1.399 . S
C844 C843 1.399 . S
C844 C845 1.376 . S
C845 H832 0.930 . S
C845 C844 1.376 . S
C845 C846 1.388 . S
C846 H833 0.930 . S
C846 C845 1.388 . S
C846 C847 1.390 . S
C847 C846 1.390 . S
C847 C848 1.394 . S
C847 C853 1.465 . S
C848 C843 1.399 . S
C848 C847 1.394 . S
C848 C849 1.516 . S
C849 C848 1.516 . S
C849 C850 1.502 . S
C849 C851 1.561 . S
C849 C852 1.526 . S
C850 H834 0.959 . S
C850 H835 0.959 . S
C850 H836 0.961 . S
C850 C849 1.502 . S
C851 H837 0.960 . S
C851 H838 0.961 . S
C851 H839 0.959 . S
C851 C849 1.561 . S
C852 C849 1.526 . S
C852 C853 1.396 . S
C852 C857 1.390 . S
C853 C847 1.465 . S
C853 C852 1.396 . S
C853 C854 1.399 . S
C854 H840 0.929 . S
C854 C853 1.399 . S
C854 C855 1.385 . S
C855 H841 0.931 . S
C855 C854 1.385 . S
C855 C856 1.389 . S
C856 C855 1.389 . S
C856 C857 1.387 . S
C857 H842 0.930 . S
C857 C852 1.390 . S
C857 C856 1.387 . S
H858 C870 0.930 . S
H859 C872 0.930 . S
H860 C873 0.930 . S
H861 C877 0.959 . S
H862 C877 0.959 . S
H863 C877 0.961 . S
H864 C878 0.960 . S
H865 C878 0.961 . S
H866 C878 0.959 1_455 S
H867 C881 0.929 . S
H868 C882 0.931 . S
H869 C884 0.930 . S
C870 H858 0.930 . S
C870 C871 1.399 . S
C870 C875 1.399 . S
C871 C870 1.399 . S
C871 C872 1.376 . S
C872 H859 0.930 . S
C872 C871 1.376 . S
C872 C873 1.388 . S
C873 H860 0.930 . S
C873 C872 1.388 . S
C873 C874 1.390 . S
C874 C873 1.390 . S
C874 C875 1.394 . S
C874 C880 1.465 . S
C875 C870 1.399 . S
C875 C874 1.394 . S
C875 C876 1.516 1_455 S
C876 C875 1.516 1_655 S
C876 C877 1.502 . S
C876 C878 1.561 . S
C876 C879 1.526 . S
C877 H861 0.959 . S
C877 H862 0.959 . S
C877 H863 0.961 . S
C877 C876 1.502 . S
C878 H864 0.960 . S
C878 H865 0.961 . S
C878 H866 0.959 1_655 S
C878 C876 1.561 . S
C879 C876 1.526 . S
C879 C880 1.396 1_655 S
C879 C884 1.390 . S
C880 C874 1.465 . S
C880 C879 1.396 1_455 S
C880 C881 1.399 . S
C881 H867 0.929 . S
C881 C880 1.399 . S
C881 C882 1.385 1_455 S
C882 H868 0.931 . S
C882 C881 1.385 1_655 S
C882 C883 1.389 . S
C883 C882 1.389 . S
C883 C884 1.387 . S
C884 H869 0.930 . S
C884 C879 1.390 . S
C884 C883 1.387 . S
H885 C897 0.930 . S
H886 C899 0.930 . S
H887 C900 0.930 . S
H888 C904 0.959 . S
H889 C904 0.959 . S
H890 C904 0.961 . S
H891 C905 0.960 . S
H892 C905 0.961 . S
H893 C905 0.959 . S
H894 C908 0.929 . S
H895 C909 0.931 . S
H896 C911 0.924 1_565 S
C897 H885 0.930 . S
C897 C898 1.399 . S
C897 C902 1.399 . S
C898 C897 1.399 . S
C898 C899 1.376 . S
C899 H886 0.930 . S
C899 C898 1.376 . S
C899 C900 1.388 1_565 S
C900 H887 0.930 . S
C900 C899 1.388 1_545 S
C900 C901 1.390 . S
C901 C900 1.390 . S
C901 C902 1.394 1_545 S
C901 C907 1.465 1_554 S
C902 C897 1.399 . S
C902 C901 1.394 1_565 S
C902 C903 1.516 1_554 S
C903 C902 1.516 1_556 S
C903 C904 1.502 . S
C903 C905 1.561 . S
C903 C906 1.494 1_565 S
C904 H888 0.959 . S
C904 H889 0.959 . S
C904 H890 0.961 . S
C904 C903 1.502 . S
C905 H891 0.960 . S
C905 H892 0.961 . S
C905 H893 0.959 . S
C905 C903 1.561 . S
C906 C903 1.494 1_545 S
C906 C907 1.422 . S
C906 C911 1.398 . S
C907 C901 1.465 1_556 S
C907 C906 1.422 . S
C907 C908 1.399 . S
C908 H894 0.929 . S
C908 C907 1.399 . S
C908 C909 1.385 . S
C909 H895 0.931 . S
C909 C908 1.385 . S
C909 C910 1.389 . S
C910 C909 1.389 . S
C910 C911 1.387 . S
C911 H896 0.924 1_545 S
C911 C906 1.398 . S
C911 C910 1.387 . S
H912 C924 0.930 . S
H913 C926 0.930 . S
H914 C927 0.930 . S
H915 C931 0.959 . S
H916 C931 0.959 . S
H917 C931 0.961 . S
H918 C932 0.960 . S
H919 C932 0.961 . S
H920 C932 0.959 . S
H921 C935 0.929 . S
H922 C936 0.931 . S
H923 C938 0.930 . S
C924 H912 0.930 . S
C924 C925 1.399 . S
C924 C929 1.399 . S
C925 C924 1.399 . S
C925 C926 1.376 . S
C926 H913 0.930 . S
C926 C925 1.376 . S
C926 C927 1.388 . S
C927 H914 0.930 . S
C927 C926 1.388 . S
C927 C928 1.390 . S
C928 C927 1.390 . S
C928 C929 1.394 . S
C928 C934 1.465 . S
C929 C924 1.399 . S
C929 C928 1.394 . S
C929 C930 1.516 . S
C930 C929 1.516 . S
C930 C931 1.502 . S
C930 C932 1.561 . S
C930 C933 1.526 . S
C931 H915 0.959 . S
C931 H916 0.959 . S
C931 H917 0.961 . S
C931 C930 1.502 . S
C932 H918 0.960 . S
C932 H919 0.961 . S
C932 H920 0.959 . S
C932 C930 1.561 . S
C933 C930 1.526 . S
C933 C934 1.396 . S
C933 C938 1.390 . S
C934 C928 1.465 . S
C934 C933 1.396 . S
C934 C935 1.399 . S
C935 H921 0.929 . S
C935 C934 1.399 . S
C935 C936 1.385 . S
C936 H922 0.931 . S
C936 C935 1.385 . S
C936 C937 1.389 . S
C937 C936 1.389 . S
C937 C938 1.387 . S
C938 H923 0.930 . S
C938 C933 1.390 . S
C938 C937 1.387 . S
H939 C951 0.930 . S
H940 C953 0.930 . S
H941 C954 0.930 . S
H942 C958 0.959 . S
H943 C958 0.959 1_655 S
H944 C958 0.961 . S
H945 C959 0.960 . S
H946 C959 0.961 . S
H947 C959 0.959 . S
H948 C962 0.929 . S
H949 C963 0.931 . S
H950 C965 0.930 . S
C951 H939 0.930 . S
C951 C952 1.399 . S
C951 C956 1.399 . S
C952 C951 1.399 . S
C952 C953 1.376 . S
C953 H940 0.930 . S
C953 C952 1.376 . S
C953 C954 1.388 . S
C954 H941 0.930 . S
C954 C953 1.388 . S
C954 C955 1.390 . S
C955 C954 1.390 . S
C955 C956 1.394 . S
C955 C961 1.465 1_455 S
C956 C951 1.399 . S
C956 C955 1.394 . S
C956 C957 1.516 1_455 S
C957 C956 1.516 1_655 S
C957 C958 1.502 1_655 S
C957 C959 1.561 . S
C957 C960 1.526 . S
C958 H942 0.959 . S
C958 H943 0.959 1_455 S
C958 H944 0.961 . S
C958 C957 1.502 1_455 S
C959 H945 0.960 . S
C959 H946 0.961 . S
C959 H947 0.959 . S
C959 C957 1.561 . S
C960 C957 1.526 . S
C960 C961 1.396 . S
C960 C965 1.390 . S
C961 C955 1.465 1_655 S
C961 C960 1.396 . S
C961 C962 1.399 . S
C962 H948 0.929 . S
C962 C961 1.399 . S
C962 C963 1.385 . S
C963 H949 0.931 . S
C963 C962 1.385 . S
C963 C964 1.389 . S
C964 C963 1.389 . S
C964 C965 1.387 . S
C965 H950 0.930 . S
C965 C960 1.390 . S
C965 C964 1.387 . S
H966 C978 0.930 . S
H967 C980 0.930 . S
H968 C981 0.930 . S
H969 C985 0.959 . S
H970 C985 0.959 . S
H971 C985 0.961 . S
H972 C986 0.960 . S
H973 C986 0.961 . S
H974 C986 0.959 . S
H975 C989 0.929 . S
H976 C990 0.931 . S
H977 C992 0.930 . S
C978 H966 0.930 . S
C978 C979 1.399 . S
C978 C983 1.399 . S
C979 C978 1.399 . S
C979 C980 1.376 . S
C980 H967 0.930 . S
C980 C979 1.376 . S
C980 C981 1.388 1_545 S
C981 H968 0.930 . S
C981 C980 1.388 1_565 S
C981 C982 1.390 . S
C982 C981 1.390 . S
C982 C983 1.394 1_565 S
C982 C988 1.465 . S
C983 C978 1.399 . S
C983 C982 1.394 1_545 S
C983 C984 1.516 . S
C984 C983 1.516 . S
C984 C985 1.502 . S
C984 C986 1.561 . S
C984 C987 1.526 1_545 S
C985 H969 0.959 . S
C985 H970 0.959 . S
C985 H971 0.961 . S
C985 C984 1.502 . S
C986 H972 0.960 . S
C986 H973 0.961 . S
C986 H974 0.959 . S
C986 C984 1.561 . S
C987 C984 1.526 1_565 S
C987 C988 1.396 . S
C987 C992 1.390 . S
C988 C982 1.465 . S
C988 C987 1.396 . S
C988 C989 1.399 . S
C989 H975 0.929 . S
C989 C988 1.399 . S
C989 C990 1.385 . S
C990 H976 0.931 . S
C990 C989 1.385 . S
C990 C991 1.389 . S
C991 C990 1.389 . S
C991 C992 1.387 . S
C992 H977 0.930 . S
C992 C987 1.390 . S
C992 C991 1.387 . S
H993 C1005 0.930 . S
H994 C1007 0.930 . S
H995 C1008 0.930 . S
H996 C1012 0.959 . S
H997 C1012 0.959 . S
H998 C1012 0.961 . S
H999 C1013 0.960 . S
H1000 C1013 0.961 . S
H1001 C1013 0.959 . S
H1002 C1016 0.929 . S
H1003 C1017 0.931 . S
H1004 C1019 0.930 . S
C1005 H993 0.930 . S
C1005 C1006 1.399 . S
C1005 C1010 1.399 . S
C1006 C1005 1.399 . S
C1006 C1007 1.376 . S
C1007 H994 0.930 . S
C1007 C1006 1.376 . S
C1007 C1008 1.388 . S
C1008 H995 0.930 . S
C1008 C1007 1.388 . S
C1008 C1009 1.390 . S
C1009 C1008 1.390 . S
C1009 C1010 1.394 . S
C1009 C1015 1.465 . S
C1010 C1005 1.399 . S
C1010 C1009 1.394 . S
C1010 C1011 1.516 . S
C1011 C1010 1.516 . S
C1011 C1012 1.502 . S
C1011 C1013 1.561 . S
C1011 C1014 1.526 . S
C1012 H996 0.959 . S
C1012 H997 0.959 . S
C1012 H998 0.961 . S
C1012 C1011 1.502 . S
C1013 H999 0.960 . S
C1013 H1000 0.961 . S
C1013 H1001 0.959 . S
C1013 C1011 1.561 . S
C1014 C1011 1.526 . S
C1014 C1015 1.396 . S
C1014 C1019 1.390 . S
C1015 C1009 1.465 . S
C1015 C1014 1.396 . S
C1015 C1016 1.399 . S
C1016 H1002 0.929 . S
C1016 C1015 1.399 . S
C1016 C1017 1.385 . S
C1017 H1003 0.931 . S
C1017 C1016 1.385 . S
C1017 C1018 1.389 . S
C1018 C1017 1.389 . S
C1018 C1019 1.387 . S
C1019 H1004 0.930 . S
C1019 C1014 1.390 . S
C1019 C1018 1.387 . S
H1020 C1032 0.930 . S
H1021 C1034 0.930 . S
H1022 C1035 0.930 . S
H1023 C1039 0.959 . S
H1024 C1039 0.959 . S
H1025 C1039 0.961 . S
H1026 C1040 0.960 . S
H1027 C1040 0.961 1_455 S
H1028 C1040 0.959 . S
H1029 C1043 0.929 1_655 S
H1030 C1044 0.931 . S
H1031 C1046 0.930 . S
C1032 H1020 0.930 . S
C1032 C1033 1.399 . S
C1032 C1037 1.399 . S
C1033 C1032 1.399 . S
C1033 C1034 1.376 . S
C1034 H1021 0.930 . S
C1034 C1033 1.376 . S
C1034 C1035 1.388 . S
C1035 H1022 0.930 . S
C1035 C1034 1.388 . S
C1035 C1036 1.390 . S
C1036 C1035 1.390 . S
C1036 C1037 1.394 . S
C1036 C1042 1.465 1_655 S
C1037 C1032 1.399 . S
C1037 C1036 1.394 . S
C1037 C1038 1.516 1_655 S
C1038 C1037 1.516 1_455 S
C1038 C1039 1.502 . S
C1038 C1040 1.561 1_455 S
C1038 C1041 1.526 . S
C1039 H1023 0.959 . S
C1039 H1024 0.959 . S
C1039 H1025 0.961 . S
C1039 C1038 1.502 . S
C1040 H1026 0.960 . S
C1040 H1027 0.961 1_655 S
C1040 H1028 0.959 . S
C1040 C1038 1.561 1_655 S
C1041 C1038 1.526 . S
C1041 C1042 1.396 . S
C1041 C1046 1.390 . S
C1042 C1036 1.465 1_455 S
C1042 C1041 1.396 . S
C1042 C1043 1.399 . S
C1043 H1029 0.929 1_455 S
C1043 C1042 1.399 . S
C1043 C1044 1.385 . S
C1044 H1030 0.931 . S
C1044 C1043 1.385 . S
C1044 C1045 1.389 . S
C1045 C1044 1.389 . S
C1045 C1046 1.387 . S
C1046 H1031 0.930 . S
C1046 C1041 1.390 . S
C1046 C1045 1.387 . S
H1047 C1059 0.930 . S
H1048 C1061 0.930 . S
H1049 C1062 0.930 . S
H1050 C1066 0.959 . S
H1051 C1066 0.959 . S
H1052 C1066 0.961 . S
H1053 C1067 0.970 . S
H1054 C1067 0.961 . S
H1055 C1067 0.959 . S
H1056 C1070 0.929 . S
H1057 C1071 0.931 . S
H1058 C1073 0.930 . S
C1059 H1047 0.930 . S
C1059 C1060 1.399 . S
C1059 C1064 1.399 . S
C1060 C1059 1.399 . S
C1060 C1061 1.376 . S
C1061 H1048 0.930 . S
C1061 C1060 1.376 . S
C1061 C1062 1.388 . S
C1062 H1049 0.930 . S
C1062 C1061 1.388 . S
C1062 C1063 1.390 . S
C1063 C1062 1.390 . S
C1063 C1064 1.394 . S
C1063 C1069 1.465 1_455 S
C1064 C1059 1.399 . S
C1064 C1063 1.394 . S
C1064 C1065 1.516 . S
C1065 C1064 1.516 . S
C1065 C1066 1.502 . S
C1065 C1067 1.561 1_455 S
C1065 C1068 1.526 1_455 S
C1066 H1050 0.959 . S
C1066 H1051 0.959 . S
C1066 H1052 0.961 . S
C1066 C1065 1.502 . S
C1067 H1053 0.970 . S
C1067 H1054 0.961 . S
C1067 H1055 0.959 . S
C1067 C1065 1.561 1_655 S
C1068 C1065 1.526 1_655 S
C1068 C1069 1.396 . S
C1068 C1073 1.390 . S
C1069 C1063 1.465 1_655 S
C1069 C1068 1.396 . S
C1069 C1070 1.399 . S
C1070 H1056 0.929 . S
C1070 C1069 1.399 . S
C1070 C1071 1.385 . S
C1071 H1057 0.931 . S
C1071 C1070 1.385 . S
C1071 C1072 1.389 . S
C1072 C1071 1.389 . S
C1072 C1073 1.387 . S
C1073 H1058 0.930 . S
C1073 C1068 1.390 . S
C1073 C1072 1.387 . S
H1074 C1086 0.930 . S
H1075 C1088 0.930 . S
H1076 C1089 0.930 . S
H1077 C1093 0.959 . S
H1078 C1093 0.959 . S
H1079 C1093 0.961 . S
H1080 C1094 0.960 . S
H1081 C1094 0.961 . S
H1082 C1094 0.959 . S
H1083 C1097 0.929 . S
H1084 C1098 0.931 . S
H1085 C1100 0.930 . S
C1086 H1074 0.930 . S
C1086 C1087 1.399 . S
C1086 C1091 1.399 . S
C1087 C1086 1.399 . S
C1087 C1088 1.376 . S
C1088 H1075 0.930 . S
C1088 C1087 1.376 . S
C1088 C1089 1.388 . S
C1089 H1076 0.930 . S
C1089 C1088 1.388 . S
C1089 C1090 1.390 . S
C1090 C1089 1.390 . S
C1090 C1091 1.394 . S
C1090 C1096 1.465 1_565 S
C1091 C1086 1.399 . S
C1091 C1090 1.394 . S
C1091 C1092 1.516 1_565 S
C1092 C1091 1.516 1_545 S
C1092 C1093 1.502 . S
C1092 C1094 1.561 1_545 S
C1092 C1095 1.526 . S
C1093 H1077 0.959 . S
C1093 H1078 0.959 . S
C1093 H1079 0.961 . S
C1093 C1092 1.502 . S
C1094 H1080 0.960 . S
C1094 H1081 0.961 . S
C1094 H1082 0.959 . S
C1094 C1092 1.561 1_565 S
C1095 C1092 1.526 . S
C1095 C1096 1.396 . S
C1095 C1100 1.390 . S
C1096 C1090 1.465 1_545 S
C1096 C1095 1.396 . S
C1096 C1097 1.399 . S
C1097 H1083 0.929 . S
C1097 C1096 1.399 . S
C1097 C1098 1.385 . S
C1098 H1084 0.931 . S
C1098 C1097 1.385 . S
C1098 C1099 1.389 . S
C1099 C1098 1.389 . S
C1099 C1100 1.387 . S
C1100 H1085 0.930 . S
C1100 C1095 1.390 . S
C1100 C1099 1.387 . S
H1101 C1113 0.930 . S
H1102 C1115 0.930 . S
H1103 C1116 0.930 . S
H1104 C1120 0.959 . S
H1105 C1120 0.959 . S
H1106 C1120 0.961 . S
H1107 C1121 0.960 . S
H1108 C1121 0.961 . S
H1109 C1121 0.959 . S
H1110 C1124 0.929 . S
H1111 C1125 0.931 . S
H1112 C1127 0.930 . S
C1113 H1101 0.930 . S
C1113 C1114 1.399 . S
C1113 C1118 1.399 . S
C1114 C1113 1.399 . S
C1114 C1115 1.376 . S
C1115 H1102 0.930 . S
C1115 C1114 1.376 . S
C1115 C1116 1.388 . S
C1116 H1103 0.930 . S
C1116 C1115 1.388 . S
C1116 C1117 1.390 . S
C1117 C1116 1.390 . S
C1117 C1118 1.394 . S
C1117 C1123 1.465 . S
C1118 C1113 1.399 . S
C1118 C1117 1.394 . S
C1118 C1119 1.516 . S
C1119 C1118 1.516 . S
C1119 C1120 1.502 . S
C1119 C1121 1.561 . S
C1119 C1122 1.526 . S
C1120 H1104 0.959 . S
C1120 H1105 0.959 . S
C1120 H1106 0.961 . S
C1120 C1119 1.502 . S
C1121 H1107 0.960 . S
C1121 H1108 0.961 . S
C1121 H1109 0.959 . S
C1121 C1119 1.561 . S
C1122 C1119 1.526 . S
C1122 C1123 1.396 . S
C1122 C1127 1.390 . S
C1123 C1117 1.465 . S
C1123 C1122 1.396 . S
C1123 C1124 1.399 . S
C1124 H1110 0.929 . S
C1124 C1123 1.399 . S
C1124 C1125 1.385 . S
C1125 H1111 0.931 . S
C1125 C1124 1.385 . S
C1125 C1126 1.389 . S
C1126 C1125 1.389 . S
C1126 C1127 1.387 . S
C1127 H1112 0.930 . S
C1127 C1122 1.390 . S
C1127 C1126 1.387 . S
H1128 C1140 0.930 . S
H1129 C1142 0.930 . S
H1130 C1143 0.930 1_545 S
H1131 C1147 0.959 . S
H1132 C1147 0.959 . S
H1133 C1147 0.961 . S
H1134 C1148 0.960 . S
H1135 C1148 0.961 . S
H1136 C1148 0.959 . S
H1137 C1151 0.929 . S
H1138 C1152 0.931 . S
H1139 C1154 0.930 . S
C1140 H1128 0.930 . S
C1140 C1141 1.399 . S
C1140 C1145 1.399 . S
C1141 C1140 1.399 . S
C1141 C1142 1.376 . S
C1142 H1129 0.930 . S
C1142 C1141 1.376 . S
C1142 C1143 1.388 . S
C1143 H1130 0.930 1_565 S
C1143 C1142 1.388 . S
C1143 C1144 1.390 . S
C1144 C1143 1.390 . S
C1144 C1145 1.394 . S
C1144 C1150 1.465 1_565 S
C1145 C1140 1.399 . S
C1145 C1144 1.394 . S
C1145 C1146 1.516 . S
C1146 C1145 1.516 . S
C1146 C1147 1.502 . S
C1146 C1148 1.561 . S
C1146 C1149 1.526 1_565 S
C1147 H1131 0.959 . S
C1147 H1132 0.959 . S
C1147 H1133 0.961 . S
C1147 C1146 1.502 . S
C1148 H1134 0.960 . S
C1148 H1135 0.961 . S
C1148 H1136 0.959 . S
C1148 C1146 1.561 . S
C1149 C1146 1.526 1_545 S
C1149 C1150 1.396 . S
C1149 C1154 1.390 . S
C1150 C1144 1.465 1_545 S
C1150 C1149 1.396 . S
C1150 C1151 1.399 . S
C1151 H1137 0.929 . S
C1151 C1150 1.399 . S
C1151 C1152 1.385 . S
C1152 H1138 0.931 . S
C1152 C1151 1.385 . S
C1152 C1153 1.389 . S
C1153 C1152 1.389 . S
C1153 C1154 1.387 . S
C1154 H1139 0.930 . S
C1154 C1149 1.390 . S
C1154 C1153 1.387 . S
H1155 C1167 0.930 . S
H1156 C1169 0.930 . S
H1157 C1170 0.930 . S
H1158 C1174 0.959 . S
H1159 C1174 0.959 . S
H1160 C1174 0.961 . S
H1161 C1175 0.960 . S
H1162 C1175 0.961 . S
H1163 C1175 0.959 . S
H1164 C1178 0.929 . S
H1165 C1179 0.931 . S
H1166 C1181 0.930 . S
C1167 H1155 0.930 . S
C1167 C1168 1.399 . S
C1167 C1172 1.399 . S
C1168 C1167 1.399 . S
C1168 C1169 1.376 . S
C1169 H1156 0.930 . S
C1169 C1168 1.376 . S
C1169 C1170 1.388 . S
C1170 H1157 0.930 . S
C1170 C1169 1.388 . S
C1170 C1171 1.390 . S
C1171 C1170 1.390 . S
C1171 C1172 1.394 . S
C1171 C1177 1.465 . S
C1172 C1167 1.399 . S
C1172 C1171 1.394 . S
C1172 C1173 1.516 . S
C1173 C1172 1.516 . S
C1173 C1174 1.502 . S
C1173 C1175 1.561 . S
C1173 C1176 1.526 . S
C1174 H1158 0.959 . S
C1174 H1159 0.959 . S
C1174 H1160 0.961 . S
C1174 C1173 1.502 . S
C1175 H1161 0.960 . S
C1175 H1162 0.961 . S
C1175 H1163 0.959 . S
C1175 C1173 1.561 . S
C1176 C1173 1.526 . S
C1176 C1177 1.396 . S
C1176 C1181 1.390 . S
C1177 C1171 1.465 . S
C1177 C1176 1.396 . S
C1177 C1178 1.399 . S
C1178 H1164 0.929 . S
C1178 C1177 1.399 . S
C1178 C1179 1.385 . S
C1179 H1165 0.931 . S
C1179 C1178 1.385 . S
C1179 C1180 1.389 . S
C1180 C1179 1.389 . S
C1180 C1181 1.387 . S
C1181 H1166 0.930 . S
C1181 C1176 1.390 . S
C1181 C1180 1.387 . S
H1182 C1194 0.930 . S
H1183 C1196 0.930 . S
H1184 C1197 0.930 . S
H1185 C1201 0.959 . S
H1186 C1201 0.959 . S
H1187 C1201 0.961 . S
H1188 C1202 0.960 . S
H1189 C1202 0.961 . S
H1190 C1202 0.959 . S
H1191 C1205 0.929 1_655 S
H1192 C1206 0.931 . S
H1193 C1208 0.930 . S
C1194 H1182 0.930 . S
C1194 C1195 1.399 . S
C1194 C1199 1.399 . S
C1195 C1194 1.399 . S
C1195 C1196 1.376 . S
C1196 H1183 0.930 . S
C1196 C1195 1.376 . S
C1196 C1197 1.388 . S
C1197 H1184 0.930 . S
C1197 C1196 1.388 . S
C1197 C1198 1.390 . S
C1198 C1197 1.390 . S
C1198 C1199 1.394 . S
C1198 C1204 1.465 1_655 S
C1199 C1194 1.399 . S
C1199 C1198 1.394 . S
C1199 C1200 1.516 1_655 S
C1200 C1199 1.516 1_455 S
C1200 C1201 1.502 . S
C1200 C1202 1.561 . S
C1200 C1203 1.526 . S
C1201 H1185 0.959 . S
C1201 H1186 0.959 . S
C1201 H1187 0.961 . S
C1201 C1200 1.502 . S
C1202 H1188 0.960 . S
C1202 H1189 0.961 . S
C1202 H1190 0.959 . S
C1202 C1200 1.561 . S
C1203 C1200 1.526 . S
C1203 C1204 1.396 . S
C1203 C1208 1.390 . S
C1204 C1198 1.465 1_455 S
C1204 C1203 1.396 . S
C1204 C1205 1.399 . S
C1205 H1191 0.929 1_455 S
C1205 C1204 1.399 . S
C1205 C1206 1.385 . S
C1206 H1192 0.931 . S
C1206 C1205 1.385 . S
C1206 C1207 1.389 . S
C1207 C1206 1.389 . S
C1207 C1208 1.387 . S
C1208 H1193 0.930 . S
C1208 C1203 1.390 . S
C1208 C1207 1.387 . S
H1209 C1221 0.930 . S
H1210 C1223 0.930 . S
H1211 C1224 0.930 . S
H1212 C1228 0.959 . S
H1213 C1228 0.959 . S
H1214 C1228 0.961 . S
H1215 C1229 0.960 . S
H1216 C1229 0.961 . S
H1217 C1229 0.959 . S
H1218 C1232 0.929 . S
H1219 C1233 0.931 . S
H1220 C1235 0.930 . S
C1221 H1209 0.930 . S
C1221 C1222 1.399 . S
C1221 C1226 1.399 . S
C1222 C1221 1.399 . S
C1222 C1223 1.376 . S
C1223 H1210 0.930 . S
C1223 C1222 1.376 . S
C1223 C1224 1.388 . S
C1224 H1211 0.930 . S
C1224 C1223 1.388 . S
C1224 C1225 1.390 . S
C1225 C1224 1.390 . S
C1225 C1226 1.394 . S
C1225 C1231 1.465 1_545 S
C1226 C1221 1.399 . S
C1226 C1225 1.394 . S
C1226 C1227 1.516 1_545 S
C1227 C1226 1.516 1_565 S
C1227 C1228 1.502 . S
C1227 C1229 1.561 . S
C1227 C1230 1.526 . S
C1228 H1212 0.959 . S
C1228 H1213 0.959 . S
C1228 H1214 0.961 . S
C1228 C1227 1.502 . S
C1229 H1215 0.960 . S
C1229 H1216 0.961 . S
C1229 H1217 0.959 . S
C1229 C1227 1.561 . S
C1230 C1227 1.526 . S
C1230 C1231 1.396 . S
C1230 C1235 1.390 . S
C1231 C1225 1.465 1_565 S
C1231 C1230 1.396 . S
C1231 C1232 1.399 . S
C1232 H1218 0.929 . S
C1232 C1231 1.399 . S
C1232 C1233 1.385 . S
C1233 H1219 0.931 . S
C1233 C1232 1.385 . S
C1233 C1234 1.389 . S
C1234 C1233 1.389 . S
C1234 C1235 1.387 . S
C1235 H1220 0.930 . S
C1235 C1230 1.390 . S
C1235 C1234 1.387 . S
H1236 C1248 0.930 . S
H1237 C1250 0.930 . S
H1238 C1251 0.930 . S
H1239 C1255 0.959 . S
H1240 C1255 0.959 . S
H1241 C1255 0.961 . S
H1242 C1256 0.960 . S
H1243 C1256 0.961 . S
H1244 C1256 0.959 . S
H1245 C1259 0.929 . S
H1246 C1260 0.931 . S
H1247 C1262 0.930 . S
C1248 H1236 0.930 . S
C1248 C1249 1.399 . S
C1248 C1253 1.399 . S
C1249 C1248 1.399 . S
C1249 C1250 1.376 . S
C1250 H1237 0.930 . S
C1250 C1249 1.376 . S
C1250 C1251 1.388 . S
C1251 H1238 0.930 . S
C1251 C1250 1.388 . S
C1251 C1252 1.390 . S
C1252 C1251 1.390 . S
C1252 C1253 1.394 . S
C1252 C1258 1.465 . S
C1253 C1248 1.399 . S
C1253 C1252 1.394 . S
C1253 C1254 1.516 . S
C1254 C1253 1.516 . S
C1254 C1255 1.502 . S
C1254 C1256 1.561 . S
C1254 C1257 1.526 . S
C1255 H1239 0.959 . S
C1255 H1240 0.959 . S
C1255 H1241 0.961 . S
C1255 C1254 1.502 . S
C1256 H1242 0.960 . S
C1256 H1243 0.961 . S
C1256 H1244 0.959 . S
C1256 C1254 1.561 . S
C1257 C1254 1.526 . S
C1257 C1258 1.396 . S
C1257 C1262 1.390 . S
C1258 C1252 1.465 . S
C1258 C1257 1.396 . S
C1258 C1259 1.399 . S
C1259 H1245 0.929 . S
C1259 C1258 1.399 . S
C1259 C1260 1.385 . S
C1260 H1246 0.931 . S
C1260 C1259 1.385 . S
C1260 C1261 1.389 . S
C1261 C1260 1.389 . S
C1261 C1262 1.387 . S
C1262 H1247 0.930 . S
C1262 C1257 1.390 . S
C1262 C1261 1.387 . S
H1263 C1275 0.930 . S
H1264 C1277 0.930 . S
H1265 C1278 0.930 1_655 S
H1266 C1282 0.959 . S
H1267 C1282 0.959 . S
H1268 C1282 0.961 . S
H1269 C1283 0.960 . S
H1270 C1283 0.950 1_655 S
H1271 C1283 0.959 1_655 S
H1272 C1286 0.929 . S
H1273 C1287 0.931 . S
H1274 C1289 0.930 . S
C1275 H1263 0.930 . S
C1275 C1276 1.399 . S
C1275 C1280 1.399 . S
C1276 C1275 1.399 . S
C1276 C1277 1.376 . S
C1277 H1264 0.930 . S
C1277 C1276 1.376 . S
C1277 C1278 1.388 . S
C1278 H1265 0.930 1_455 S
C1278 C1277 1.388 . S
C1278 C1279 1.390 . S
C1279 C1278 1.390 . S
C1279 C1280 1.394 . S
C1279 C1285 1.465 1_455 S
C1280 C1275 1.399 . S
C1280 C1279 1.394 . S
C1280 C1281 1.516 . S
C1281 C1280 1.516 . S
C1281 C1282 1.502 . S
C1281 C1283 1.561 . S
C1281 C1284 1.526 1_455 S
C1282 H1266 0.959 . S
C1282 H1267 0.959 . S
C1282 H1268 0.961 . S
C1282 C1281 1.502 . S
C1283 H1269 0.960 . S
C1283 H1270 0.950 1_455 S
C1283 H1271 0.959 1_455 S
C1283 C1281 1.561 . S
C1284 C1281 1.526 1_655 S
C1284 C1285 1.396 . S
C1284 C1289 1.390 . S
C1285 C1279 1.465 1_655 S
C1285 C1284 1.396 . S
C1285 C1286 1.399 . S
C1286 H1272 0.929 . S
C1286 C1285 1.399 . S
C1286 C1287 1.385 . S
C1287 H1273 0.931 . S
C1287 C1286 1.385 . S
C1287 C1288 1.389 . S
C1288 C1287 1.389 . S
C1288 C1289 1.387 . S
C1289 H1274 0.930 . S
C1289 C1284 1.390 . S
C1289 C1288 1.387 . S
H1290 C1302 0.930 . S
H1291 C1304 0.930 . S
H1292 C1305 0.930 . S
H1293 C1309 0.959 . S
H1294 C1309 0.959 . S
H1295 C1309 0.961 . S
H1296 C1310 0.960 . S
H1297 C1310 0.961 . S
H1298 C1310 0.959 . S
H1299 C1313 0.929 . S
H1300 C1314 0.931 . S
H1301 C1316 0.930 . S
C1302 H1290 0.930 . S
C1302 C1303 1.399 . S
C1302 C1307 1.399 . S
C1303 C1302 1.399 . S
C1303 C1304 1.376 . S
C1304 H1291 0.930 . S
C1304 C1303 1.376 . S
C1304 C1305 1.388 . S
C1305 H1292 0.930 . S
C1305 C1304 1.388 . S
C1305 C1306 1.390 . S
C1306 C1305 1.390 . S
C1306 C1307 1.394 . S
C1306 C1312 1.465 . S
C1307 C1302 1.399 . S
C1307 C1306 1.394 . S
C1307 C1308 1.516 . S
C1308 C1307 1.516 . S
C1308 C1309 1.502 . S
C1308 C1310 1.561 . S
C1308 C1311 1.526 . S
C1309 H1293 0.959 . S
C1309 H1294 0.959 . S
C1309 H1295 0.961 . S
C1309 C1308 1.502 . S
C1310 H1296 0.960 . S
C1310 H1297 0.961 . S
C1310 H1298 0.959 . S
C1310 C1308 1.561 . S
C1311 C1308 1.526 . S
C1311 C1312 1.396 . S
C1311 C1316 1.390 . S
C1312 C1306 1.465 . S
C1312 C1311 1.396 . S
C1312 C1313 1.399 . S
C1313 H1299 0.929 . S
C1313 C1312 1.399 . S
C1313 C1314 1.385 . S
C1314 H1300 0.931 . S
C1314 C1313 1.385 . S
C1314 C1315 1.389 . S
C1315 C1314 1.389 . S
C1315 C1316 1.387 . S
C1316 H1301 0.930 . S
C1316 C1311 1.390 . S
C1316 C1315 1.387 . S
H1317 C1329 0.930 . S
H1318 C1331 0.930 . S
H1319 C1332 0.930 . S
H1320 C1336 0.959 . S
H1321 C1336 0.959 . S
H1322 C1336 0.961 . S
H1323 C1337 0.960 . S
H1324 C1337 0.961 . S
H1325 C1337 0.959 . S
H1326 C1340 0.929 . S
H1327 C1341 0.931 . S
H1328 C1343 0.930 . S
C1329 H1317 0.930 . S
C1329 C1330 1.399 . S
C1329 C1334 1.399 . S
C1330 C1329 1.399 . S
C1330 C1331 1.376 . S
C1331 H1318 0.930 . S
C1331 C1330 1.376 . S
C1331 C1332 1.388 . S
C1332 H1319 0.930 . S
C1332 C1331 1.388 . S
C1332 C1333 1.390 . S
C1333 C1332 1.390 . S
C1333 C1334 1.394 . S
C1333 C1339 1.465 . S
C1334 C1329 1.399 . S
C1334 C1333 1.394 . S
C1334 C1335 1.516 . S
C1335 C1334 1.516 . S
C1335 C1336 1.502 . S
C1335 C1337 1.561 . S
C1335 C1338 1.526 . S
C1336 H1320 0.959 . S
C1336 H1321 0.959 . S
C1336 H1322 0.961 . S
C1336 C1335 1.502 . S
C1337 H1323 0.960 . S
C1337 H1324 0.961 . S
C1337 H1325 0.959 . S
C1337 C1335 1.561 . S
C1338 C1335 1.526 . S
C1338 C1339 1.396 . S
C1338 C1343 1.390 . S
C1339 C1333 1.465 . S
C1339 C1338 1.396 . S
C1339 C1340 1.399 . S
C1340 H1326 0.929 . S
C1340 C1339 1.399 . S
C1340 C1341 1.385 . S
C1341 H1327 0.931 . S
C1341 C1340 1.385 . S
C1341 C1342 1.389 . S
C1342 C1341 1.389 . S
C1342 C1343 1.387 . S
C1343 H1328 0.930 . S
C1343 C1338 1.390 . S
C1343 C1342 1.387 . S
H1344 C1356 0.930 . S
H1345 C1358 0.930 . S
H1346 C1359 0.930 . S
H1347 C1363 0.959 . S
H1348 C1363 0.959 . S
H1349 C1363 0.961 . S
H1350 C1364 0.960 . S
H1351 C1364 0.961 . S
H1352 C1364 0.959 . S
H1353 C1367 0.929 . S
H1354 C1368 0.931 . S
H1355 C1370 0.930 . S
C1356 H1344 0.930 . S
C1356 C1357 1.399 . S
C1356 C1361 1.399 . S
C1357 C1356 1.399 . S
C1357 C1358 1.376 . S
C1358 H1345 0.930 . S
C1358 C1357 1.376 . S
C1358 C1359 1.388 . S
C1359 H1346 0.930 . S
C1359 C1358 1.388 . S
C1359 C1360 1.390 . S
C1360 C1359 1.390 . S
C1360 C1361 1.394 . S
C1360 C1366 1.465 . S
C1361 C1356 1.399 . S
C1361 C1360 1.394 . S
C1361 C1362 1.516 . S
C1362 C1361 1.516 . S
C1362 C1363 1.502 . S
C1362 C1364 1.561 . S
C1362 C1365 1.526 . S
C1363 H1347 0.959 . S
C1363 H1348 0.959 . S
C1363 H1349 0.961 . S
C1363 C1362 1.502 . S
C1364 H1350 0.960 . S
C1364 H1351 0.961 . S
C1364 H1352 0.959 . S
C1364 C1362 1.561 . S
C1365 C1362 1.526 . S
C1365 C1366 1.396 . S
C1365 C1370 1.390 . S
C1366 C1360 1.465 . S
C1366 C1365 1.396 . S
C1366 C1367 1.399 . S
C1367 H1353 0.929 . S
C1367 C1366 1.399 . S
C1367 C1368 1.385 . S
C1368 H1354 0.931 . S
C1368 C1367 1.385 . S
C1368 C1369 1.389 . S
C1369 C1368 1.389 . S
C1369 C1370 1.387 . S
C1370 H1355 0.930 . S
C1370 C1365 1.390 . S
C1370 C1369 1.387 . S
H1371 C1383 0.930 . S
H1372 C1385 0.930 . S
H1373 C1386 0.930 . S
H1374 C1390 0.959 . S
H1375 C1390 0.959 . S
H1376 C1390 0.961 . S
H1377 C1391 0.960 . S
H1378 C1391 0.961 . S
H1379 C1391 0.959 . S
H1380 C1394 0.929 . S
H1381 C1395 0.931 . S
H1382 C1397 0.930 . S
C1383 H1371 0.930 . S
C1383 C1384 1.399 . S
C1383 C1388 1.399 . S
C1384 C1383 1.399 . S
C1384 C1385 1.376 . S
C1385 H1372 0.930 . S
C1385 C1384 1.376 . S
C1385 C1386 1.388 . S
C1386 H1373 0.930 . S
C1386 C1385 1.388 . S
C1386 C1387 1.390 . S
C1387 C1386 1.390 . S
C1387 C1388 1.394 . S
C1387 C1393 1.465 . S
C1388 C1383 1.399 . S
C1388 C1387 1.394 . S
C1388 C1389 1.516 . S
C1389 C1388 1.516 . S
C1389 C1390 1.502 . S
C1389 C1391 1.561 . S
C1389 C1392 1.526 . S
C1390 H1374 0.959 . S
C1390 H1375 0.959 . S
C1390 H1376 0.961 . S
C1390 C1389 1.502 . S
C1391 H1377 0.960 . S
C1391 H1378 0.961 . S
C1391 H1379 0.959 . S
C1391 C1389 1.561 . S
C1392 C1389 1.526 . S
C1392 C1393 1.396 . S
C1392 C1397 1.390 . S
C1393 C1387 1.465 . S
C1393 C1392 1.396 . S
C1393 C1394 1.399 . S
C1394 H1380 0.929 . S
C1394 C1393 1.399 . S
C1394 C1395 1.385 . S
C1395 H1381 0.931 . S
C1395 C1394 1.385 . S
C1395 C1396 1.389 . S
C1396 C1395 1.389 . S
C1396 C1397 1.387 . S
C1397 H1382 0.930 . S
C1397 C1392 1.390 . S
C1397 C1396 1.387 . S
H1398 C1410 0.930 . S
H1399 C1412 0.930 . S
H1400 C1413 0.930 . S
H1401 C1417 0.959 . S
H1402 C1417 0.959 . S
H1403 C1417 0.961 . S
H1404 C1418 0.960 . S
H1405 C1418 0.961 . S
H1406 C1418 0.959 . S
H1407 C1421 0.929 . S
H1408 C1422 0.931 . S
H1409 C1424 0.930 . S
C1410 H1398 0.930 . S
C1410 C1411 1.399 . S
C1410 C1415 1.399 . S
C1411 C1410 1.399 . S
C1411 C1412 1.376 . S
C1412 H1399 0.930 . S
C1412 C1411 1.376 . S
C1412 C1413 1.388 . S
C1413 H1400 0.930 . S
C1413 C1412 1.388 . S
C1413 C1414 1.390 . S
C1414 C1413 1.390 . S
C1414 C1415 1.394 . S
C1414 C1420 1.465 . S
C1415 C1410 1.399 . S
C1415 C1414 1.394 . S
C1415 C1416 1.516 . S
C1416 C1415 1.516 . S
C1416 C1417 1.502 . S
C1416 C1418 1.561 . S
C1416 C1419 1.526 . S
C1417 H1401 0.959 . S
C1417 H1402 0.959 . S
C1417 H1403 0.961 . S
C1417 C1416 1.502 . S
C1418 H1404 0.960 . S
C1418 H1405 0.961 . S
C1418 H1406 0.959 . S
C1418 C1416 1.561 . S
C1419 C1416 1.526 . S
C1419 C1420 1.396 . S
C1419 C1424 1.390 . S
C1420 C1414 1.465 . S
C1420 C1419 1.396 . S
C1420 C1421 1.399 . S
C1421 H1407 0.929 . S
C1421 C1420 1.399 . S
C1421 C1422 1.385 . S
C1422 H1408 0.931 . S
C1422 C1421 1.385 . S
C1422 C1423 1.389 . S
C1423 C1422 1.389 . S
C1423 C1424 1.387 . S
C1424 H1409 0.930 . S
C1424 C1419 1.390 . S
C1424 C1423 1.387 . S
H1425 C1437 0.930 . S
H1426 C1439 0.930 . S
H1427 C1440 0.930 . S
H1428 C1444 0.959 . S
H1429 C1444 0.959 . S
H1430 C1444 0.961 . S
H1431 C1445 0.960 . S
H1432 C1445 0.961 . S
H1433 C1445 0.959 . S
H1434 C1448 0.929 . S
H1435 C1449 0.931 . S
H1436 C1451 0.930 . S
C1437 H1425 0.930 . S
C1437 C1438 1.399 . S
C1437 C1442 1.399 . S
C1438 C1437 1.399 . S
C1438 C1439 1.376 . S
C1439 H1426 0.930 . S
C1439 C1438 1.376 . S
C1439 C1440 1.388 . S
C1440 H1427 0.930 . S
C1440 C1439 1.388 . S
C1440 C1441 1.390 . S
C1441 C1440 1.390 . S
C1441 C1442 1.394 . S
C1441 C1447 1.465 . S
C1442 C1437 1.399 . S
C1442 C1441 1.394 . S
C1442 C1443 1.516 . S
C1443 C1442 1.516 . S
C1443 C1444 1.502 . S
C1443 C1445 1.561 . S
C1443 C1446 1.526 . S
C1444 H1428 0.959 . S
C1444 H1429 0.959 . S
C1444 H1430 0.961 . S
C1444 C1443 1.502 . S
C1445 H1431 0.960 . S
C1445 H1432 0.961 . S
C1445 H1433 0.959 . S
C1445 C1443 1.561 . S
C1446 C1443 1.526 . S
C1446 C1447 1.396 . S
C1446 C1451 1.390 . S
C1447 C1441 1.465 . S
C1447 C1446 1.396 . S
C1447 C1448 1.399 . S
C1448 H1434 0.929 . S
C1448 C1447 1.399 . S
C1448 C1449 1.385 . S
C1449 H1435 0.931 . S
C1449 C1448 1.385 . S
C1449 C1450 1.389 . S
C1450 C1449 1.389 . S
C1450 C1451 1.387 . S
C1451 H1436 0.930 . S
C1451 C1446 1.390 . S
C1451 C1450 1.387 . S
C493 C9 1.089 . S
C505 C329 1.043 . S
C520 C49 1.044 . S
C532 C369 1.066 . S
C547 C89 1.043 . S
C559 C409 1.064 . S
C574 C449 1.050 . S
C586 C129 1.056 . S
C601 C169 1.131 . S
C613 C249 1.101 . S
C628 C289 1.081 . S
C640 C209 1.128 . S
C655 C415 1.587 . S
C667 C15 1.564 . S
C682 C455 1.533 . S
C694 C55 1.586 . S
C709 C95 1.581 . S
C721 C255 1.572 . S
C736 C295 1.589 . S
C748 C135 1.557 . S
C763 C335 1.519 . S
C775 C175 1.566 . S
C790 C215 1.572 . S
C802 C375 1.520 . S
C817 C299 4.227 . S
C829 C19 4.243 . S
C844 C339 4.248 . S
C856 C59 4.248 . S
C871 C379 4.246 . S
C883 C99 4.228 . S
C898 C139 4.227 . S
C910 C419 4.241 . S
C925 C179 4.247 . S
C937 C459 4.229 . S
C952 C219 4.247 . S
C964 C259 4.248 . S
C979 C18 0.671 . S
C991 C138 0.424 . S
C1006 C58 0.557 . S
C1018 C178 0.636 . S
C1033 C98 0.507 . S
C1045 C218 0.661 . S
C1060 C378 0.585 . S
C1072 C258 0.434 . S
C1087 C298 0.542 . S
C1099 C418 0.645 . S
C1114 C458 0.415 . S
C1126 C338 0.666 . S
C1141 C286 0.717 . S
C1153 C6 0.829 . S
C1168 C326 0.701 . S
C1180 C46 0.656 . S
C1195 C86 0.827 . S
C1207 C366 0.680 . S
C1222 C406 0.716 . S
C1234 C126 0.646 . S
C1249 C446 0.642 . S
C1261 C166 0.722 . S
C1276 C206 0.632 . S
C1288 C246 0.777 . S
C1303 C10 4.747 . S
C1315 C410 4.745 . S
C1330 C50 4.744 . S
C1342 C450 4.749 1_556 S
C1357 C90 4.751 1_554 S
C1369 C250 4.749 . S
C1384 C130 4.747 . S
C1396 C290 4.751 . S
C1411 C170 4.751 . S
C1423 C330 4.747 1_556 S
C1438 C370 4.746 . S
C1450 C210 4.751 1_554 S
