# Generated by pormake.
# Topology tes, (8)-cn, num edge types: 1
# Building blocks:
#     Node 0, Type 0, BuildingBlock: EBIMEJ_clean_sbu_0, # of connection points: 8
#     Node 1, Type 0, BuildingBlock: EBIMEJ_clean_sbu_0, # of connection points: 8
#     Node 2, Type 0, BuildingBlock: EBIMEJ_clean_sbu_0, # of connection points: 8
#     Node 3, Type 0, BuildingBlock: EBIMEJ_clean_sbu_0, # of connection points: 8
#     Node 4, Type 0, BuildingBlock: EBIMEJ_clean_sbu_0, # of connection points: 8
#     Node 5, Type 0, BuildingBlock: EBIMEJ_clean_sbu_0, # of connection points: 8
#     Node 6, Type 0, BuildingBlock: EBIMEJ_clean_sbu_0, # of connection points: 8
#     Node 7, Type 0, BuildingBlock: EBIMEJ_clean_sbu_0, # of connection points: 8
#     Node 8, Type 0, BuildingBlock: EBIMEJ_clean_sbu_0, # of connection points: 8
#     Node 9, Type 0, BuildingBlock: EBIMEJ_clean_sbu_0, # of connection points: 8
#     Node 10, Type 0, BuildingBlock: EBIMEJ_clean_sbu_0, # of connection points: 8
#     Node 11, Type 0, BuildingBlock: EBIMEJ_clean_sbu_0, # of connection points: 8
#     Node 12, Type 0, BuildingBlock: EBIMEJ_clean_sbu_0, # of connection points: 8
#     Node 13, Type 0, BuildingBlock: EBIMEJ_clean_sbu_0, # of connection points: 8
#     Node 14, Type 0, BuildingBlock: EBIMEJ_clean_sbu_0, # of connection points: 8
#     Node 15, Type 0, BuildingBlock: EBIMEJ_clean_sbu_0, # of connection points: 8
#     Node 16, Type 0, BuildingBlock: EBIMEJ_clean_sbu_0, # of connection points: 8
#     Node 17, Type 0, BuildingBlock: EBIMEJ_clean_sbu_0, # of connection points: 8
#     Node 18, Type 0, BuildingBlock: EBIMEJ_clean_sbu_0, # of connection points: 8
#     Node 19, Type 0, BuildingBlock: EBIMEJ_clean_sbu_0, # of connection points: 8
#     Node 20, Type 0, BuildingBlock: EBIMEJ_clean_sbu_0, # of connection points: 8
#     Node 21, Type 0, BuildingBlock: EBIMEJ_clean_sbu_0, # of connection points: 8
#     Node 22, Type 0, BuildingBlock: EBIMEJ_clean_sbu_0, # of connection points: 8
#     Node 23, Type 0, BuildingBlock: EBIMEJ_clean_sbu_0, # of connection points: 8
#     Edge 24, Type (0, 0), None
#     Edge 25, Type (0, 0), None
#     Edge 26, Type (0, 0), None
#     Edge 27, Type (0, 0), None
#     Edge 28, Type (0, 0), None
#     Edge 29, Type (0, 0), None
#     Edge 30, Type (0, 0), None
#     Edge 31, Type (0, 0), None
#     Edge 32, Type (0, 0), None
#     Edge 33, Type (0, 0), None
#     Edge 34, Type (0, 0), None
#     Edge 35, Type (0, 0), None
#     Edge 36, Type (0, 0), None
#     Edge 37, Type (0, 0), None
#     Edge 38, Type (0, 0), None
#     Edge 39, Type (0, 0), None
#     Edge 40, Type (0, 0), None
#     Edge 41, Type (0, 0), None
#     Edge 42, Type (0, 0), None
#     Edge 43, Type (0, 0), None
#     Edge 44, Type (0, 0), None
#     Edge 45, Type (0, 0), None
#     Edge 46, Type (0, 0), None
#     Edge 47, Type (0, 0), None
#     Edge 48, Type (0, 0), None
#     Edge 49, Type (0, 0), None
#     Edge 50, Type (0, 0), None
#     Edge 51, Type (0, 0), None
#     Edge 52, Type (0, 0), None
#     Edge 53, Type (0, 0), None
#     Edge 54, Type (0, 0), None
#     Edge 55, Type (0, 0), None
#     Edge 56, Type (0, 0), None
#     Edge 57, Type (0, 0), None
#     Edge 58, Type (0, 0), None
#     Edge 59, Type (0, 0), None
#     Edge 60, Type (0, 0), None
#     Edge 61, Type (0, 0), None
#     Edge 62, Type (0, 0), None
#     Edge 63, Type (0, 0), None
#     Edge 64, Type (0, 0), None
#     Edge 65, Type (0, 0), None
#     Edge 66, Type (0, 0), None
#     Edge 67, Type (0, 0), None
#     Edge 68, Type (0, 0), None
#     Edge 69, Type (0, 0), None
#     Edge 70, Type (0, 0), None
#     Edge 71, Type (0, 0), None
#     Edge 72, Type (0, 0), None
#     Edge 73, Type (0, 0), None
#     Edge 74, Type (0, 0), None
#     Edge 75, Type (0, 0), None
#     Edge 76, Type (0, 0), None
#     Edge 77, Type (0, 0), None
#     Edge 78, Type (0, 0), None
#     Edge 79, Type (0, 0), None
#     Edge 80, Type (0, 0), None
#     Edge 81, Type (0, 0), None
#     Edge 82, Type (0, 0), None
#     Edge 83, Type (0, 0), None
#     Edge 84, Type (0, 0), None
#     Edge 85, Type (0, 0), None
#     Edge 86, Type (0, 0), None
#     Edge 87, Type (0, 0), None
#     Edge 88, Type (0, 0), None
#     Edge 89, Type (0, 0), None
#     Edge 90, Type (0, 0), None
#     Edge 91, Type (0, 0), None
#     Edge 92, Type (0, 0), None
#     Edge 93, Type (0, 0), None
#     Edge 94, Type (0, 0), None
#     Edge 95, Type (0, 0), None
#     Edge 96, Type (0, 0), None
#     Edge 97, Type (0, 0), None
#     Edge 98, Type (0, 0), None
#     Edge 99, Type (0, 0), None
#     Edge 100, Type (0, 0), None
#     Edge 101, Type (0, 0), None
#     Edge 102, Type (0, 0), None
#     Edge 103, Type (0, 0), None
#     Edge 104, Type (0, 0), None
#     Edge 105, Type (0, 0), None
#     Edge 106, Type (0, 0), None
#     Edge 107, Type (0, 0), None
#     Edge 108, Type (0, 0), None
#     Edge 109, Type (0, 0), None
#     Edge 110, Type (0, 0), None
#     Edge 111, Type (0, 0), None
#     Edge 112, Type (0, 0), None
#     Edge 113, Type (0, 0), None
#     Edge 114, Type (0, 0), None
#     Edge 115, Type (0, 0), None
#     Edge 116, Type (0, 0), None
#     Edge 117, Type (0, 0), None
#     Edge 118, Type (0, 0), None
#     Edge 119, Type (0, 0), None
# Relax obj value: 0.277
# Max RMSD: 0.303
# Mean RMSD: 0.292
data_MOF--net-tes--node1-EBIMEJ_clean_sbu_0--edge1-none
_symmetry_space_group_name_H-M    P1
_symmetry_Int_Tables_number       1
_symmetry_cell_setting            triclinic
loop_
_symmetry_equiv_pos_as_xyz
'x, y, z'
_cell_length_a     26.115829
_cell_length_b     25.768013
_cell_length_c     26.895107
_cell_angle_alpha  91.572149
_cell_angle_beta   92.706697
_cell_angle_gamma 92.104319
loop_
_atom_site_label
_atom_site_type_symbol
_atom_site_fract_x
_atom_site_fract_y
_atom_site_fract_z
_atom_type_partial_charge
Co0 Co 0.08076 0.39437 0.49707 0.0
Co1 Co 0.13971 0.46123 0.39285 0.0
Co2 Co 0.14682 0.34326 0.41833 0.0
H3 H 0.12378 0.38431 0.45345 0.0
O4 O 0.14114 0.41393 0.45564 0.0
H5 H 0.16561 0.4185 0.36285 0.0
O6 O 0.1465 0.39019 0.35796 0.0
Co7 Co 0.21635 0.40768 0.33034 0.0
O8 O 0.19672 0.46403 0.28428 0.0
O9 O 0.13966 0.50361 0.33021 0.0
O10 O 0.22502 0.34951 0.37753 0.0
O11 O 0.16861 0.28615 0.37731 0.0
O12 O 1.01562 0.43286 0.48617 0.0
O13 O 0.04463 0.42263 0.55851 0.0
O14 O 0.26145 0.47337 0.34957 0.0
O15 O 0.21397 0.491 0.41317 0.0
C16 C 0.14137 0.30005 0.52444 0.0
C17 C 0.09674 0.50514 0.46249 0.0
C18 C 0.27518 0.37615 0.26909 0.0
C19 C 0.03775 0.30013 0.44272 0.0
C20 C 0.16527 0.49962 0.2908 0.0
C21 C 0.2125 0.30248 0.3657 0.0
C22 C 1.01043 0.44242 0.53143 0.0
C23 C 0.25447 0.50085 0.38859 0.0
O24 O 0.11308 0.33661 0.53929 0.0
O25 O 0.15619 0.2981 0.47952 0.0
O26 O 0.11918 0.5243 0.42732 0.0
O27 O 0.08569 0.45699 0.45544 0.0
O28 O 0.28698 0.38299 0.31463 0.0
O29 O 0.22951 0.38637 0.2581 0.0
O30 O 0.04133 0.32579 0.48408 0.0
O31 O 0.07028 0.31107 0.40864 0.0
Co32 Co 0.89892 0.98882 0.5836 0.0
Co33 Co 0.97114 0.88409 0.6408 0.0
Co34 Co 0.85646 0.91071 0.65687 0.0
H35 H 0.89384 0.94611 0.62907 0.0
O36 O 0.92463 0.94922 0.64294 0.0
H37 H 0.9315 0.8551 0.67018 0.0
O38 O 0.90196 0.8487 0.65449 0.0
Co39 Co 0.92228 0.8268 0.7225 0.0
O40 O 0.98973 0.78889 0.71567 0.0
O41 O 1.0148 0.81887 0.64347 0.0
O42 O 0.86122 0.8662 0.74838 0.0
O43 O 0.80301 0.86895 0.68592 0.0
O44 O 0.92806 0.97925 0.51587 0.0
O45 O 0.9212 0.05395 0.54653 0.0
O46 O 0.98279 0.854 0.76628 0.0
O47 O 1.00551 0.90996 0.70959 0.0
C48 C 0.80763 1.01919 0.64431 0.0
C49 C 1.00625 0.95377 0.5903 0.0
C50 C 0.87802 0.76437 0.77019 0.0
C51 C 0.80955 0.92684 0.54955 0.0
C52 C 1.02083 0.78834 0.68033 0.0
C53 C 0.81435 0.86363 0.73182 0.0
C54 C 0.93611 0.02687 0.5108 0.0
C55 C 1.01124 0.89176 0.75378 0.0
O56 O 0.84016 0.03279 0.61205 0.0
O57 O 0.81094 0.9746 0.66478 0.0
O58 O 0.02936 0.919 0.61217 0.0
O59 O 0.95914 0.9427 0.57942 0.0
O60 O 0.89163 0.80916 0.78634 0.0
O61 O 0.88939 0.75445 0.72614 0.0
O62 O 0.83166 0.97136 0.54856 0.0
O63 O 0.82111 0.8954 0.58521 0.0
Co64 Co 0.4706 0.65289 0.99013 0.0
Co65 Co 0.40986 0.5755 0.88494 0.0
Co66 Co 0.39796 0.69393 0.90962 0.0
H67 H 0.425 0.65709 0.94529 0.0
O68 O 0.40943 0.62675 0.94721 0.0
H69 H 0.38047 0.61549 0.85505 0.0
O70 O 0.39826 0.64398 0.85007 0.0
Co71 Co 0.32576 0.6262 0.82535 0.0
O72 O 0.33996 0.56362 0.78049 0.0
O73 O 0.40725 0.52994 0.82074 0.0
O74 O 0.31147 0.68257 0.87498 0.0
O75 O 0.36928 0.74569 0.86856 0.0
O76 O 0.53458 0.61455 0.97975 0.0
O77 O 0.50785 0.62388 0.05157 0.0
O78 O 0.27735 0.57092 0.85256 0.0
O79 O 0.33885 0.54547 0.90453 0.0
C80 C 0.40778 0.74498 1.01583 0.0
C81 C 0.4523 0.53907 0.95907 0.0
C82 C 0.28758 0.68446 0.76483 0.0
C83 C 0.50705 0.7435 0.93466 0.0
C84 C 0.37564 0.53089 0.78246 0.0
C85 C 0.32292 0.72971 0.86602 0.0
C86 C 0.54044 0.60391 0.02471 0.0
C87 C 0.29162 0.54288 0.88843 0.0
O88 O 0.43997 0.71196 0.03139 0.0
O89 O 0.38939 0.74252 0.97054 0.0
O90 O 0.43304 0.51492 0.92171 0.0
O91 O 0.46393 0.58619 0.95044 0.0
O92 O 0.26139 0.65692 0.79277 0.0
O93 O 0.33471 0.67725 0.77062 0.0
O94 O 0.50757 0.7212 0.97649 0.0
O95 O 0.47165 0.72941 0.90068 0.0
Co96 Co 0.6544 0.22077 0.24246 0.0
Co97 Co 0.7172 0.15102 0.14403 0.0
Co98 Co 0.60151 0.14422 0.16611 0.0
H99 H 0.64314 0.17083 0.20212 0.0
O100 O 0.67096 0.15331 0.20587 0.0
H101 H 0.67338 0.12277 0.11201 0.0
O102 O 0.64724 0.14222 0.10742 0.0
Co103 Co 0.65622 0.07106 0.07628 0.0
O104 O 0.71367 0.09359 0.03236 0.0
O105 O 0.75737 0.15178 0.08263 0.0
O106 O 0.59949 0.06017 0.12205 0.0
O107 O 0.54485 0.12157 0.12229 0.0
O108 O 0.68948 0.29042 0.22909 0.0
O109 O 0.68096 0.26726 0.30188 0.0
O110 O 0.71063 1.02091 0.09951 0.0
O111 O 0.74169 0.07537 0.15986 0.0
C112 C 0.55698 0.1629 0.27061 0.0
C113 C 0.76434 0.19942 0.21469 0.0
C114 C 0.60517 0.02378 1.00884 0.0
C115 C 0.56354 0.2525 0.18518 0.0
C116 C 0.75012 0.1274 0.04088 0.0
C117 C 0.55427 0.07503 0.11254 0.0
C118 C 0.69829 0.30161 0.27432 0.0
C119 C 0.74087 0.02988 0.13751 0.0
O120 O 0.59487 0.19398 0.28442 0.0
O121 O 0.55483 0.14084 0.22669 0.0
O122 O 0.78095 0.17366 0.17977 0.0
O123 O 0.7187 0.21338 0.20572 0.0
O124 O 0.63166 1.00169 0.04155 0.0
O125 O 0.60856 0.07228 1.01452 0.0
O126 O 0.58662 0.25532 0.22801 0.0
O127 O 0.57748 0.21883 0.15258 0.0
Co128 Co 0.08058 0.64178 0.04619 0.0
Co129 Co 0.14405 0.57669 0.15078 0.0
Co130 Co 0.15124 0.69417 0.12703 0.0
H131 H 0.12701 0.65236 0.09028 0.0
O132 O 0.14414 0.62402 0.08822 0.0
H133 H 0.17124 0.6205 0.18286 0.0
O134 O 0.1522 0.64713 0.18651 0.0
Co135 Co 0.22195 0.63648 0.21951 0.0
O136 O 0.20097 0.57793 0.26381 0.0
O137 O 0.14245 0.53538 0.21307 0.0
O138 O 0.22496 0.6891 0.16814 0.0
O139 O 0.17245 0.75176 0.17013 0.0
O140 O 1.01506 0.59955 0.05486 0.0
O141 O 0.03757 0.61662 0.9837 0.0
O142 O 0.27342 0.58439 0.19705 0.0
O143 O 0.21893 0.55243 0.13708 0.0
C144 C 0.13998 0.73987 1.02072 0.0
C145 C 0.09822 0.53069 0.07897 0.0
C146 C 0.26313 0.69333 0.28507 0.0
C147 C 0.0442 0.73 0.1043 0.0
C148 C 0.1669 0.54172 0.25521 0.0
C149 C 0.21661 0.73586 0.17996 0.0
C150 C 1.0052 0.59341 1.0091 0.0
C151 C 0.26448 0.55447 0.15901 0.0
O152 O 0.11094 0.70117 1.0045 0.0
O153 O 0.15671 0.74238 0.0667 0.0
O154 O 0.1216 0.51273 0.11538 0.0
O155 O 0.08544 0.57741 0.08627 0.0
O156 O 0.2878 0.6687 0.25381 0.0
O157 O 0.21568 0.68452 0.27927 0.0
O158 O 0.04442 0.70928 0.06067 0.0
O159 O 0.07705 0.71597 0.13798 0.0
Co160 Co 0.62522 0.83866 0.30768 0.0
Co161 Co 0.71217 0.88948 0.41146 0.0
Co162 Co 0.5939 0.9067 0.39042 0.0
H163 H 0.62759 0.88153 0.35389 0.0
O164 O 0.65841 0.89505 0.35117 0.0
H165 H 0.67515 0.91887 0.44323 0.0
O166 O 0.64657 0.90167 0.44858 0.0
Co167 Co 0.66898 0.97352 0.47438 0.0
O168 O 0.73114 0.9563 0.51795 0.0
O169 O 0.76137 0.88953 0.47482 0.0
O170 O 0.61209 0.98763 0.42504 0.0
O171 O 0.54615 0.93425 0.43413 0.0
O172 O 0.6535 0.7679 0.30501 0.0
O173 O 0.64777 0.81658 0.24218 0.0
O174 O 0.7275 1.01989 0.4494 0.0
O175 O 0.74288 0.96105 0.39144 0.0
C176 C 0.53486 0.903 0.28596 0.0
C177 C 0.74305 0.84896 0.33322 0.0
C178 C 0.61488 1.01416 0.53477 0.0
C179 C 0.53735 0.80039 0.359 0.0
C180 C 0.7629 0.92007 0.51411 0.0
C181 C 0.56564 0.97986 0.43605 0.0
C182 C 0.66226 0.77474 0.26018 0.0
C183 C 0.75109 1.00689 0.41089 0.0
O184 O 0.56341 0.86798 0.26925 0.0
O185 O 0.54348 0.92207 0.33064 0.0
O186 O 0.76864 0.86481 0.37134 0.0
O187 O 0.69535 0.84474 0.34076 0.0
O188 O 0.64119 0.03984 0.50545 0.0
O189 O 0.62115 0.96623 0.5306 0.0
O190 O 0.55792 0.80201 0.31731 0.0
O191 O 0.55503 0.83222 0.39515 0.0
Co192 Co 0.30948 0.39294 0.71352 0.0
Co193 Co 0.41621 0.32574 0.65452 0.0
Co194 Co 0.38575 0.44109 0.63969 0.0
H195 H 0.35197 0.40138 0.66823 0.0
O196 O 0.35007 0.37055 0.65411 0.0
H197 H 0.44378 0.36809 0.62524 0.0
O198 O 0.44888 0.39742 0.64174 0.0
Co199 Co 0.472 0.38129 0.57333 0.0
O200 O 0.51339 0.31565 0.58134 0.0
O201 O 0.48209 0.28346 0.65038 0.0
O202 O 0.43039 0.44153 0.54818 0.0
O203 O 0.42457 0.49799 0.61085 0.0
O204 O 0.31801 0.36291 0.78281 0.0
O205 O 0.24492 0.37034 0.75105 0.0
O206 O 0.44528 0.32084 0.52964 0.0
O207 O 0.39052 0.29449 0.58515 0.0
C208 C 0.27907 0.4888 0.6535 0.0
C209 C 0.34803 0.28382 0.70451 0.0
C210 C 0.52874 0.42325 0.51669 0.0
C211 C 0.3687 0.48556 0.74599 0.0
C212 C 0.51407 0.28177 0.61516 0.0
C213 C 0.43166 0.48829 0.56519 0.0
C214 C 0.27103 0.3556 0.78817 0.0
C215 C 0.40828 0.2913 0.54124 0.0
O216 O 0.2666 0.45516 0.68605 0.0
O217 O 0.32181 0.48532 0.6319 0.0
O218 O 0.38314 0.26409 0.68139 0.0
O219 O 0.35575 0.33216 0.71442 0.0
O220 O 0.48285 0.41021 0.50549 0.0
O221 O 0.54277 0.41308 0.56061 0.0
O222 O 0.32548 0.46171 0.747 0.0
O223 O 0.40034 0.47498 0.71139 0.0
Co224 Co 0.8998 0.22497 0.81253 0.0
Co225 Co 0.8316 0.16008 0.90736 0.0
Co226 Co 0.94742 0.14994 0.88608 0.0
H227 H 0.90822 0.17715 0.85201 0.0
O228 O 0.87868 0.16042 0.84731 0.0
H229 H 0.87312 0.13307 0.93837 0.0
O230 O 0.90136 0.1516 0.94453 0.0
Co231 Co 0.88482 0.08063 0.96979 0.0
O232 O 0.82595 0.09655 1.01216 0.0
O233 O 0.78877 0.15839 0.96803 0.0
O234 O 0.94488 0.05885 0.93075 0.0
O235 O 1.00188 0.1235 0.92794 0.0
O236 O 0.87448 0.29801 0.80522 0.0
O237 O 0.87481 0.24456 0.74446 0.0
O238 O 0.8217 0.03423 0.94754 0.0
O239 O 0.80267 0.08534 0.8853 0.0
C240 C 0.99039 0.16292 0.78176 0.0
C241 C 0.78895 0.21054 0.83818 0.0
C242 C 0.92141 0.02374 0.03118 0.0
C243 C 0.99441 0.26108 0.86881 0.0
C244 C 0.79126 0.12918 1.00578 0.0
C245 C 0.99119 0.07634 0.93576 0.0
C246 C 0.86441 0.28923 0.75967 0.0
C247 C 0.79465 0.04246 0.90818 0.0
O248 O 0.95621 0.19541 0.76993 0.0
O249 O 0.99159 0.142 0.82484 0.0
O250 O 0.77052 0.18258 0.87039 0.0
O251 O 0.83499 0.22614 0.84938 0.0
O252 O 0.91462 1.01178 0.98573 0.0
O253 O 0.90816 0.06883 0.04215 0.0
O254 O 0.967 0.2639 0.82874 0.0
O255 O 0.98392 0.22443 0.89961 0.0
Co256 Co 0.48281 0.08621 0.39313 0.0
Co257 Co 0.38393 0.13817 0.46089 0.0
Co258 Co 0.40829 0.16099 0.35204 0.0
H259 H 0.44305 0.13383 0.38875 0.0
O260 O 0.44715 0.14732 0.41869 0.0
H261 H 0.35386 0.16988 0.42305 0.0
O262 O 0.34794 0.15421 0.39438 0.0
Co263 Co 0.32275 0.22291 0.41262 0.0
O264 O 0.28672 0.20813 0.47574 0.0
O265 O 0.32006 0.13315 0.49866 0.0
O266 O 0.35759 0.25141 0.35279 0.0
O267 O 0.36489 0.18591 0.29929 0.0
O268 O 0.48581 1.01431 0.41902 0.0
O269 O 0.55239 0.06221 0.40817 0.0
O270 O 0.34979 0.26705 0.47252 0.0
O271 O 0.4045 0.20815 0.49689 0.0
C272 C 0.51703 0.14914 0.30835 0.0
C273 C 0.45335 0.08481 0.49773 0.0
C274 C 0.25361 0.26808 0.37289 0.0
C275 C 0.4222 0.05505 0.30596 0.0
C276 C 0.28791 0.16887 0.50337 0.0
C277 C 0.35747 0.23309 0.30816 0.0
C278 C 0.53372 1.01988 0.42254 0.0
C279 C 0.38558 0.25314 0.5022 0.0
O280 O 0.52905 0.11607 0.34092 0.0
O281 O 0.47233 0.16972 0.30803 0.0
O282 O 0.41989 0.10934 0.51856 0.0
O283 O 0.44152 0.07311 0.45238 0.0
O284 O 0.29881 0.2863 0.37869 0.0
O285 O 0.2476 0.22304 0.38886 0.0
O286 O 0.46644 0.05299 0.32662 0.0
O287 O 0.39084 0.08849 0.32093 0.0
Co288 Co 0.05335 0.08223 0.65386 0.0
Co289 Co 0.15694 0.14018 0.58761 0.0
Co290 Co 0.13607 0.15612 0.69934 0.0
H291 H 0.09761 0.1297 0.66122 0.0
O292 O 0.0943 0.14521 0.63296 0.0
H293 H 0.19057 0.16997 0.62764 0.0
O294 O 0.19564 0.15267 0.65451 0.0
Co295 Co 0.22641 0.22275 0.64007 0.0
O296 O 0.26105 0.20922 0.57566 0.0
O297 O 0.21947 0.13574 0.54838 0.0
O298 O 0.17744 0.23433 0.69217 0.0
O299 O 0.18224 0.18057 0.75252 0.0
O300 O 0.06869 1.01432 0.62061 0.0
O301 O 0.99297 0.03839 0.62269 0.0
O302 O 0.19824 0.27295 0.59049 0.0
O303 O 0.14142 0.21317 0.55939 0.0
C304 C 0.02741 0.14685 0.74279 0.0
C305 C 0.08164 0.09545 0.54716 0.0
C306 C 0.298 0.26148 0.69112 0.0
C307 C 0.11385 0.05087 0.74084 0.0
C308 C 0.2556 0.16992 0.54585 0.0
C309 C 0.18939 0.22586 0.73735 0.0
C310 C 1.02266 1.0047 0.60754 0.0
C311 C 0.16047 0.26022 0.56078 0.0
O312 O 1.01087 0.11505 0.7078 0.0
O313 O 0.07449 0.16456 0.74487 0.0
O314 O 0.11884 0.11534 0.52705 0.0
O315 O 0.09202 0.08352 0.59186 0.0
O316 O 0.26331 0.2876 0.67146 0.0
O317 O 0.29213 0.21374 0.68104 0.0
O318 O 0.06858 0.05001 0.72089 0.0
O319 O 0.14813 0.08263 0.72514 0.0
Co320 Co 0.22247 0.82123 0.9037 0.0
Co321 Co 0.16439 0.92281 0.83365 0.0
Co322 Co 0.14652 0.89419 0.94505 0.0
H323 H 0.17545 0.86175 0.90842 0.0
O324 O 0.16184 0.85817 0.87828 0.0
H325 H 0.13437 0.95134 0.87259 0.0
O326 O 0.15024 0.95745 0.90155 0.0
Co327 Co 0.07994 0.97856 0.88143 0.0
O328 O 0.08716 1.01769 0.81691 0.0
O329 O 0.161 0.98825 0.79121 0.0
O330 O 0.05218 0.93793 0.93976 0.0
O331 O 0.11563 0.93377 0.99696 0.0
O332 O 0.2934 0.81336 0.87934 0.0
O333 O 0.24226 0.74912 0.89074 0.0
O334 O 0.03669 0.95299 0.82011 0.0
O335 O 0.09431 0.89637 0.80017 0.0
C336 C 0.15612 0.78206 0.98483 0.0
C337 C 0.21736 0.85272 0.79785 0.0
C338 C 0.02771 0.03979 0.9217 0.0
C339 C 0.25606 0.87655 0.99574 0.0
C340 C 0.12299 1.01863 0.78624 0.0
C341 C 0.06846 0.93776 0.98544 0.0
C342 C 0.28525 0.76508 0.87719 0.0
C343 C 0.04991 0.91568 0.79243 0.0
O344 O 0.19008 0.77179 0.95361 0.0
O345 O 0.13635 0.82739 0.98601 0.0
O346 O 0.19269 0.88695 0.7765 0.0
O347 O 0.22927 0.86414 0.84336 0.0
O348 O 1.01353 0.9936 0.91109 0.0
O349 O 0.0726 0.05167 0.91006 0.0
O350 O 0.26023 0.83588 0.96902 0.0
O351 O 0.21872 0.9076 0.98535 0.0
Co352 Co 0.32104 0.81908 0.13277 0.0
Co353 Co 0.37782 0.92231 0.21078 0.0
Co354 Co 0.3973 0.89735 0.09832 0.0
H355 H 0.36819 0.86232 0.13201 0.0
O356 O 0.38149 0.85884 0.16207 0.0
H357 H 0.40592 0.95343 0.17377 0.0
O358 O 0.39075 0.95908 0.145 0.0
Co359 Co 0.46032 0.98347 0.16763 0.0
O360 O 0.44866 0.02669 0.22916 0.0
O361 O 0.37834 0.987 0.25568 0.0
O362 O 0.48632 0.9355 0.11413 0.0
O363 O 0.43083 0.93916 0.05048 0.0
O364 O 0.25025 0.81586 0.15745 0.0
O365 O 0.2992 0.75149 0.15764 0.0
O366 O 0.50546 0.96484 0.22704 0.0
O367 O 0.44945 0.90197 0.2421 0.0
C368 C 0.3892 0.78569 0.05199 0.0
C369 C 0.33099 0.84682 0.24404 0.0
C370 C 0.51653 0.0393 0.12692 0.0
C371 C 0.28786 0.87606 0.04532 0.0
C372 C 0.41292 0.02361 0.2595 0.0
C373 C 0.47679 0.94046 0.06761 0.0
C374 C 0.25695 0.76952 0.16851 0.0
C375 C 0.4939 0.92494 0.25103 0.0
O376 O 0.35324 0.77282 0.08034 0.0
O377 O 0.40938 0.83222 0.05428 0.0
O378 O 0.35223 0.88458 0.26726 0.0
O379 O 0.32034 0.85664 0.19866 0.0
O380 O 0.52985 0.9974 0.14547 0.0
O381 O 0.47034 0.05008 0.13138 0.0
O382 O 0.28297 0.834 0.06844 0.0
O383 O 0.32661 0.90787 0.05763 0.0
Co384 Co 0.3985 0.48808 0.08184 0.0
Co385 Co 0.46878 0.38153 0.13756 0.0
Co386 Co 0.3558 0.41039 0.1567 0.0
H387 H 0.39298 0.4453 0.12765 0.0
O388 O 0.42403 0.44767 0.1408 0.0
H389 H 0.42929 0.35351 0.168 0.0
O390 O 0.39944 0.34758 0.15296 0.0
Co391 Co 0.41936 0.32642 0.22093 0.0
O392 O 0.4859 0.28695 0.21293 0.0
O393 O 0.5112 0.3156 0.14026 0.0
O394 O 0.36018 0.36749 0.24871 0.0
O395 O 0.30158 0.37011 0.18687 0.0
O396 O 0.42594 0.47482 1.01359 0.0
O397 O 0.42391 0.55076 0.04215 0.0
O398 O 0.47833 0.3554 0.26416 0.0
O399 O 0.50339 0.40752 0.20507 0.0
C400 C 0.30689 0.51811 0.1431 0.0
C401 C 0.50506 0.45104 0.08762 0.0
C402 C 0.37625 0.26803 0.27323 0.0
C403 C 0.30928 0.42638 0.05105 0.0
C404 C 0.51675 0.28533 0.17737 0.0
C405 C 0.31317 0.36544 0.23282 0.0
C406 C 0.43682 0.52165 1.00696 0.0
C407 C 0.50726 0.39183 0.25006 0.0
O408 O 0.33872 0.53142 0.10999 0.0
O409 O 0.31132 0.47442 0.16473 0.0
O410 O 0.52761 0.41541 0.10864 0.0
O411 O 0.45776 0.44095 0.07703 0.0
O412 O 0.39177 0.313 0.28704 0.0
O413 O 0.38509 0.25556 0.22901 0.0
O414 O 0.33039 0.47125 0.04994 0.0
O415 O 0.32103 0.39477 0.08611 0.0
Co416 Co 0.80859 0.89135 0.2126 0.0
Co417 Co 0.91331 0.82201 0.15177 0.0
Co418 Co 0.88526 0.93903 0.14013 0.0
H419 H 0.85094 0.8992 0.1675 0.0
O420 O 0.84821 0.86866 0.15265 0.0
H421 H 0.94182 0.86436 0.1235 0.0
O422 O 0.94751 0.89337 0.14057 0.0
Co423 Co 0.97104 0.87663 0.07212 0.0
O424 O 1.01039 0.80976 0.07843 0.0
O425 O 0.97842 0.77843 0.14751 0.0
O426 O 0.92998 0.93824 0.04982 0.0
O427 O 0.92564 0.99507 0.11247 0.0
O428 O 0.81274 0.86012 0.28134 0.0
O429 O 0.74147 0.87289 0.24726 0.0
O430 O 0.9453 0.81527 0.02763 0.0
O431 O 0.88776 0.79079 0.08115 0.0
C432 C 0.77816 0.98722 0.15348 0.0
C433 C 0.84521 0.78149 0.20276 0.0
C434 C 0.03201 0.91968 1.02016 0.0
C435 C 0.86842 0.98401 0.2478 0.0
C436 C 1.01019 0.77584 0.11212 0.0
C437 C 0.93331 0.985 0.06704 0.0
C438 C 0.76518 0.85634 0.28499 0.0
C439 C 0.90741 0.78596 0.03788 0.0
O440 O 0.76535 0.95287 0.18512 0.0
O441 O 0.82162 0.98457 0.13276 0.0
O442 O 0.87926 0.76114 0.17857 0.0
O443 O 0.85406 0.82968 0.21305 0.0
O444 O 0.98638 0.90811 1.00642 0.0
O445 O 0.04344 0.90739 0.0641 0.0
O446 O 0.82548 0.95938 0.24875 0.0
O447 O 0.89984 0.97338 0.2127 0.0
Co448 Co 0.15782 0.72151 0.74543 0.0
Co449 Co 0.22178 0.6541 0.64527 0.0
Co450 Co 0.10537 0.6485 0.66581 0.0
H451 H 0.14676 0.67354 0.7029 0.0
O452 O 0.17438 0.65568 0.70639 0.0
H453 H 0.17826 0.62778 0.61214 0.0
O454 O 0.1523 0.64754 0.60754 0.0
Co455 Co 0.16222 0.57694 0.57542 0.0
O456 O 0.21743 0.60191 0.53057 0.0
O457 O 0.26348 0.65467 0.58435 0.0
O458 O 0.11022 0.57364 0.62571 0.0
O459 O 0.04845 0.62668 0.6219 0.0
O460 O 0.19577 0.7901 0.7346 0.0
O461 O 0.18392 0.76611 0.80656 0.0
O462 O 0.21433 0.52473 0.59824 0.0
O463 O 0.24393 0.57741 0.66058 0.0
C464 C 0.06004 0.66181 0.76969 0.0
C465 C 0.26775 0.7004 0.71745 0.0
C466 C 0.10952 0.52986 0.51021 0.0
C467 C 0.06778 0.75569 0.6877 0.0
C468 C 0.25526 0.6335 0.54106 0.0
C469 C 0.06415 0.58209 0.61258 0.0
C470 C 0.20344 0.80031 0.78013 0.0
C471 C 0.24275 0.53217 0.63766 0.0
O472 O 0.09805 0.69175 0.7857 0.0
O473 O 0.05801 0.64294 0.72479 0.0
O474 O 0.28496 0.67524 0.68241 0.0
O475 O 0.22214 0.71451 0.70838 0.0
O476 O 0.13412 0.50755 0.5441 0.0
O477 O 0.11569 0.57832 0.51341 0.0
O478 O 0.09008 0.7566 0.73095 0.0
O479 O 0.0823 0.72352 0.65411 0.0
Co480 Co 0.58127 0.88762 0.98771 0.0
Co481 Co 0.63956 0.96014 0.88908 0.0
Co482 Co 0.65006 0.8416 0.91029 0.0
H483 H 0.62557 0.88066 0.9456 0.0
O484 O 0.64189 0.91074 0.94953 0.0
H485 H 0.66613 0.91891 0.85806 0.0
O486 O 0.6477 0.89036 0.85183 0.0
Co487 Co 0.71791 0.90926 0.82711 0.0
O488 O 0.70184 0.97017 0.78516 0.0
O489 O 0.63948 1.00488 0.82799 0.0
O490 O 0.73381 0.84838 0.86956 0.0
O491 O 0.67411 0.78708 0.86767 0.0
O492 O 0.50887 0.91329 0.99078 0.0
O493 O 0.55967 0.91357 0.05408 0.0
O494 O 0.76249 0.97434 0.84856 0.0
O495 O 0.71316 0.99043 0.91109 0.0
C496 C 0.64332 0.79407 1.01409 0.0
C497 C 0.59346 1.00083 0.95971 0.0
C498 C 0.77632 0.87538 0.76736 0.0
C499 C 0.54183 0.79332 0.93413 0.0
C500 C 0.66872 1.00433 0.79093 0.0
C501 C 0.71938 0.80157 0.85861 0.0
C502 C 0.51605 0.92401 0.03634 0.0
C503 C 0.75443 1.00076 0.88789 0.0
O504 O 0.61237 0.82838 0.02834 0.0
O505 O 0.66127 0.79513 0.97038 0.0
O506 O 0.61756 1.02129 0.92611 0.0
O507 O 0.58176 0.95316 0.95005 0.0
O508 O 0.78818 0.88364 0.81271 0.0
O509 O 0.73074 0.88555 0.75568 0.0
O510 O 0.54303 0.81947 0.97487 0.0
O511 O 0.57478 0.80536 0.90059 0.0
Co512 Co 0.96171 0.16177 0.4957 0.0
Co513 Co 0.90691 0.0804 0.38724 0.0
Co514 Co 0.89292 0.1996 0.41043 0.0
H515 H 0.91868 0.16381 0.44794 0.0
O516 O 0.90395 0.133 0.44919 0.0
H517 H 0.87779 0.11942 0.35592 0.0
O518 O 0.89537 0.14822 0.35135 0.0
Co519 Co 0.8239 0.12757 0.32396 0.0
O520 O 0.83845 0.06349 0.28051 0.0
O521 O 0.90553 0.03238 0.32314 0.0
O522 O 0.80919 0.18537 0.37229 0.0
O523 O 0.86533 0.25017 0.36722 0.0
O524 O 0.02745 0.1265 0.48519 0.0
O525 O 0.99971 0.13192 0.55686 0.0
O526 O 0.7765 0.07035 0.35007 0.0
O527 O 0.83581 0.05015 0.40675 0.0
C528 C 0.89753 0.25535 0.51545 0.0
C529 C 0.94831 0.04688 0.46319 0.0
C530 C 0.78476 0.18404 0.26216 0.0
C531 C 1.00018 0.25201 0.44238 0.0
C532 C 0.87435 0.03101 0.28403 0.0
C533 C 0.8195 0.23253 0.36229 0.0
C534 C 0.03343 0.11444 0.52972 0.0
C535 C 0.78952 0.04485 0.38821 0.0
O536 O 0.93006 0.22376 0.53357 0.0
O537 O 0.88041 0.24946 0.46985 0.0
O538 O 0.93118 1.02161 0.42553 0.0
O539 O 0.95567 0.09504 0.45552 0.0
O540 O 0.75902 0.15702 0.29089 0.0
O541 O 0.83199 0.17724 0.26781 0.0
O542 O 0.99775 0.23082 0.48455 0.0
O543 O 0.96767 0.23616 0.40602 0.0
Co544 Co 0.58219 0.14702 0.5493 0.0
Co545 Co 0.64668 0.08167 0.65213 0.0
Co546 Co 0.65632 0.19851 0.62791 0.0
H547 H 0.63036 0.15707 0.59164 0.0
O548 O 0.64693 0.1284 0.58922 0.0
H549 H 0.67541 0.12547 0.68381 0.0
O550 O 0.65668 0.1523 0.6873 0.0
Co551 Co 0.72635 0.1426 0.72029 0.0
O552 O 0.70504 0.08263 0.76357 0.0
O553 O 0.64439 0.0412 0.71449 0.0
O554 O 0.74251 0.20184 0.67673 0.0
O555 O 0.67889 0.25483 0.67198 0.0
O556 O 0.51582 0.10705 0.56059 0.0
O557 O 0.53718 0.12178 0.48844 0.0
O558 O 0.77568 0.08776 0.69735 0.0
O559 O 0.72048 0.05528 0.63829 0.0
C560 C 0.64058 0.24472 0.52099 0.0
C561 C 0.59957 0.03544 0.58113 0.0
C562 C 0.76871 0.19697 0.78831 0.0
C563 C 0.54849 0.23621 0.60694 0.0
C564 C 0.67003 0.04704 0.75591 0.0
C565 C 0.72571 0.24749 0.68074 0.0
C566 C 0.50484 0.10029 0.51507 0.0
C567 C 0.76585 0.05655 0.6603 0.0
O568 O 0.6097 0.20676 0.50668 0.0
O569 O 0.6609 0.24652 0.56611 0.0
O570 O 0.62312 1.01747 0.61739 0.0
O571 O 0.58753 0.08233 0.58848 0.0
O572 O 0.79262 0.16977 0.75841 0.0
O573 O 0.72111 0.19216 0.77977 0.0
O574 O 0.54694 0.21475 0.56361 0.0
O575 O 0.58256 0.22255 0.63981 0.0
Co576 Co 0.13387 0.32783 0.8154 0.0
Co577 Co 0.21796 0.38646 0.91392 0.0
Co578 Co 0.10039 0.40176 0.89228 0.0
H579 H 0.13458 0.37445 0.85759 0.0
O580 O 0.16486 0.3888 0.85369 0.0
H581 H 0.18005 0.41591 0.94466 0.0
O582 O 0.15188 0.39843 0.95059 0.0
Co583 Co 0.17112 0.47134 0.97373 0.0
O584 O 0.23162 0.45391 1.01864 0.0
O585 O 0.26529 0.38805 0.97688 0.0
O586 O 0.11603 0.48748 0.92351 0.0
O587 O 0.05225 0.43154 0.93409 0.0
O588 O 0.16386 0.25782 0.81346 0.0
O589 O 0.15862 0.30684 0.75088 0.0
O590 O 0.22787 0.51895 0.94795 0.0
O591 O 0.24774 0.45812 0.89356 0.0
C592 C 0.04455 0.39103 0.78771 0.0
C593 C 0.25125 0.34512 0.8372 0.0
C594 C 0.1148 0.51026 0.03287 0.0
C595 C 0.04548 0.2929 0.86886 0.0
C596 C 0.26415 0.41839 1.01571 0.0
C597 C 0.06935 0.47782 0.93251 0.0
C598 C 0.17343 0.26512 0.76883 0.0
C599 C 0.25349 0.50495 0.91116 0.0
O600 O 0.07319 0.35461 0.77451 0.0
O601 O 0.05131 0.4135 0.83111 0.0
O602 O 0.27619 0.36334 0.87472 0.0
O603 O 0.20443 0.33662 0.84632 0.0
O604 O 0.14153 0.53677 1.00454 0.0
O605 O 0.12173 0.46248 0.02838 0.0
O606 O 0.06745 0.29016 0.82787 0.0
O607 O 0.06131 0.32874 0.90185 0.0
Co608 Co 0.39312 0.72655 0.30115 0.0
Co609 Co 0.32989 0.66114 0.40209 0.0
Co610 Co 0.44517 0.65428 0.3769 0.0
H611 H 0.40428 0.68017 0.34261 0.0
O612 O 0.37517 0.66239 0.33972 0.0
H613 H 0.37288 0.6355 0.43251 0.0
O614 O 0.40083 0.65478 0.43708 0.0
Co615 Co 0.38589 0.58485 0.46637 0.0
O616 O 0.33347 0.60715 0.51378 0.0
O617 O 0.28889 0.65903 0.46414 0.0
O618 O 0.44269 0.56804 0.4214 0.0
O619 O 0.50158 0.6299 0.41768 0.0
O620 O 0.3533 0.79188 0.30839 0.0
O621 O 0.36728 0.76288 0.23763 0.0
O622 O 0.32248 0.53738 0.44641 0.0
O623 O 0.30244 0.58533 0.38203 0.0
C624 C 0.48525 0.66601 0.27057 0.0
C625 C 0.28479 0.70795 0.33369 0.0
C626 C 0.42024 0.52718 0.52895 0.0
C627 C 0.48797 0.7655 0.35791 0.0
C628 C 0.29597 0.63605 0.5054 0.0
C629 C 0.48934 0.5838 0.42829 0.0
C630 C 0.34588 0.79709 0.26255 0.0
C631 C 0.29492 0.54356 0.40683 0.0
O632 O 0.4492 0.6963 0.25783 0.0
O633 O 0.48835 0.64752 0.31472 0.0
O634 O 0.26703 0.68176 0.36739 0.0
O635 O 0.33142 0.72276 0.34254 0.0
O636 O 0.41552 0.51579 0.48326 0.0
O637 O 0.40615 0.57203 0.53952 0.0
O638 O 0.46124 0.76552 0.31689 0.0
O639 O 0.47811 0.73002 0.38993 0.0
Co640 Co 0.98254 0.57808 0.88574 0.0
Co641 Co 0.88434 0.63181 0.95391 0.0
Co642 Co 0.90858 0.65219 0.84335 0.0
H643 H 0.9426 0.62509 0.88056 0.0
O644 O 0.94696 0.63913 0.91037 0.0
H645 H 0.85402 0.66191 0.91537 0.0
O646 O 0.84772 0.64598 0.88664 0.0
Co647 Co 0.82403 0.71553 0.90721 0.0
O648 O 0.78831 0.70328 0.97101 0.0
O649 O 0.82103 0.62802 0.99324 0.0
O650 O 0.86232 0.74232 0.84879 0.0
O651 O 0.86601 0.67996 0.79128 0.0
O652 O 0.98809 0.50703 0.91251 0.0
O653 O 0.05292 0.55759 0.90091 0.0
O654 O 0.84797 0.75953 0.96914 0.0
O655 O 0.90633 0.7031 0.98966 0.0
C656 C 1.01897 0.64581 0.80509 0.0
C657 C 0.95376 0.57864 0.991 0.0
C658 C 0.75851 0.76541 0.86785 0.0
C659 C 0.92816 0.54397 0.79395 0.0
C660 C 0.79 0.66458 0.99925 0.0
C661 C 0.85955 0.72684 0.80316 0.0
C662 C 0.03582 0.51497 0.91605 0.0
C663 C 0.88545 0.74706 0.99762 0.0
O664 O 0.03047 0.61244 0.83752 0.0
O665 O 0.97332 0.66393 0.80191 0.0
O666 O 0.92058 0.60377 1.01159 0.0
O667 O 0.94189 0.5665 0.9457 0.0
O668 O 0.80417 0.78155 0.87578 0.0
O669 O 0.74982 0.71985 0.88154 0.0
O670 O 0.96971 0.54186 0.8198 0.0
O671 O 0.89561 0.57896 0.80541 0.0
Co672 Co 0.55427 0.5811 0.14747 0.0
Co673 Co 0.65974 0.63648 0.08308 0.0
Co674 Co 0.63359 0.65992 0.19194 0.0
H675 H 0.59726 0.62979 0.15418 0.0
O676 O 0.59495 0.64326 0.12488 0.0
H677 H 0.69111 0.66904 0.12266 0.0
O678 O 0.6951 0.65365 0.15071 0.0
Co679 Co 0.72571 0.72261 0.13441 0.0
O680 O 0.76149 0.70722 0.07036 0.0
O681 O 0.72393 0.6307 0.04682 0.0
O682 O 0.67709 0.74602 0.18393 0.0
O683 O 0.67707 0.69065 0.24434 0.0
O684 O 0.56845 0.51058 0.11876 0.0
O685 O 0.49344 0.53711 0.11754 0.0
O686 O 0.69914 0.7694 0.08137 0.0
O687 O 0.64406 0.7077 0.05062 0.0
C688 C 0.52345 0.6502 0.23223 0.0
C689 C 0.58837 0.58546 0.04286 0.0
C690 C 0.79478 0.76059 0.18926 0.0
C691 C 0.61191 0.55507 0.23719 0.0
C692 C 0.7583 0.66624 0.04247 0.0
C693 C 0.68239 0.73659 0.22992 0.0
C694 C 0.52248 0.50172 0.10498 0.0
C695 C 0.66271 0.75494 0.05082 0.0
O696 O 0.50919 0.61561 0.19881 0.0
O697 O 0.56987 0.66983 0.2344 0.0
O698 O 0.6252 0.60645 0.02301 0.0
O699 O 0.59758 0.57547 0.08831 0.0
O700 O 0.7626 0.78712 0.16627 0.0
O701 O 0.78768 0.7127 0.18054 0.0
O702 O 0.56749 0.5522 0.21562 0.0
O703 O 0.64579 0.58849 0.22323 0.0
Co704 Co 0.71539 0.32225 0.39664 0.0
Co705 Co 0.65918 0.42441 0.32676 0.0
Co706 Co 0.63854 0.39568 0.43649 0.0
H707 H 0.66774 0.36253 0.40045 0.0
O708 O 0.6547 0.35916 0.37017 0.0
H709 H 0.62747 0.45269 0.36487 0.0
O710 O 0.64297 0.45846 0.39384 0.0
Co711 Co 0.57351 0.4809 0.37567 0.0
O712 O 0.58373 0.52066 0.31193 0.0
O713 O 0.65733 0.49052 0.2858 0.0
O714 O 0.54439 0.44262 0.435 0.0
O715 O 0.61014 0.4361 0.48908 0.0
O716 O 0.7866 0.31532 0.37232 0.0
O717 O 0.73748 0.25023 0.38546 0.0
O718 O 0.53053 0.45234 0.31619 0.0
O719 O 0.59036 0.39939 0.29268 0.0
C720 C 0.6547 0.28597 0.48284 0.0
C721 C 0.71251 0.35423 0.29135 0.0
C722 C 0.52477 0.54532 0.41616 0.0
C723 C 0.74627 0.38509 0.48305 0.0
C724 C 0.62022 0.52205 0.28192 0.0
C725 C 0.56284 0.44101 0.47989 0.0
C726 C 0.78014 0.2669 0.37161 0.0
C727 C 0.54512 0.41671 0.28739 0.0
O728 O 0.68863 0.27538 0.45166 0.0
O729 O 0.63161 0.32967 0.48031 0.0
O730 O 0.6883 0.38866 0.26974 0.0
O731 O 0.72409 0.3656 0.33687 0.0
O732 O 0.50908 0.49917 0.40764 0.0
O733 O 0.56925 0.55526 0.40229 0.0
O734 O 0.75086 0.34151 0.46149 0.0
O735 O 0.70943 0.41452 0.47047 0.0
Co736 Co 0.98305 0.47519 0.66055 0.0
Co737 Co 0.8823 0.41897 0.57881 0.0
Co738 Co 0.89998 0.40365 0.69388 0.0
H739 H 0.93801 0.42955 0.66102 0.0
O740 O 0.94226 0.41443 0.63214 0.0
H741 H 0.84789 0.39485 0.61532 0.0
O742 O 0.84203 0.41203 0.64269 0.0
Co743 Co 0.81392 0.34245 0.62229 0.0
O744 O 0.76874 0.36188 0.56356 0.0
O745 O 0.8207 0.41993 0.52978 0.0
O746 O 0.85803 0.31709 0.68012 0.0
O747 O 0.854 0.37513 0.74064 0.0
O748 O 0.98556 0.54728 0.63488 0.0
O749 O 0.04866 0.49755 0.63373 0.0
O750 O 0.83536 0.29068 0.56972 0.0
O751 O 0.9 0.34387 0.55393 0.0
C752 C 1.00657 0.4107 0.74925 0.0
C753 C 0.96134 0.45838 0.54768 0.0
C754 C 0.75831 0.28487 0.66095 0.0
C755 C 0.9276 0.51198 0.7451 0.0
C756 C 0.778 0.39378 0.52966 0.0
C757 C 0.85046 0.32825 0.7256 0.0
C758 C 0.03082 0.54071 0.6231 0.0
C759 C 0.87688 0.29877 0.54827 0.0
O760 O 1.02225 0.44594 0.7205 0.0
O761 O 0.96104 0.38966 0.74281 0.0
O762 O 0.92374 0.43893 0.52311 0.0
O763 O 0.95066 0.4701 0.5921 0.0
O764 O 0.79948 0.27142 0.64296 0.0
O765 O 0.7475 0.33171 0.65614 0.0
O766 O 0.97027 0.51315 0.72439 0.0
O767 O 0.89265 0.47692 0.73039 0.0
loop_
_geom_bond_atom_site_label_1
_geom_bond_atom_site_label_2
_geom_bond_distance
_geom_bond_site_symmetry_2
_ccdc_geom_bond_type
Co0 H3 2.400 . S
Co0 O4 2.009 . S
Co0 O12 2.115 1_455 S
Co0 O13 2.315 . S
Co0 O24 2.053 . S
Co0 O27 2.094 . S
Co0 O30 2.122 . S
Co1 O4 2.126 . S
Co1 H5 2.388 . S
Co1 O6 2.053 . S
Co1 O9 2.047 . S
Co1 O15 2.113 . S
Co1 O26 2.063 . S
Co2 H3 2.388 . S
Co2 O4 2.053 . S
Co2 O6 2.126 . S
Co2 O11 2.063 . S
Co2 O25 2.047 . S
Co2 O31 2.113 . S
H3 Co0 2.400 . S
H3 Co2 2.388 . S
H3 O4 0.760 . S
O4 Co0 2.009 . S
O4 Co1 2.126 . S
O4 Co2 2.053 . S
O4 H3 0.760 . S
H5 Co1 2.388 . S
H5 O6 0.760 . S
H5 Co7 2.400 . S
O6 Co1 2.053 . S
O6 Co2 2.126 . S
O6 H5 0.760 . S
O6 Co7 2.009 . S
Co7 H5 2.400 . S
Co7 O6 2.009 . S
Co7 O8 2.053 . S
Co7 O10 2.094 . S
Co7 O14 2.122 . S
Co7 O28 2.115 . S
Co7 O29 2.315 . S
O8 Co7 2.053 . S
O8 C20 1.259 . S
O9 Co1 2.047 . S
O9 C20 1.257 . S
O10 Co7 2.094 . S
O10 C21 1.253 . S
O11 Co2 2.063 . S
O11 C21 1.268 . S
O12 Co0 2.115 1_655 S
O12 C22 1.281 1_655 S
O13 Co0 2.315 . S
O13 C22 1.252 . S
O14 Co7 2.122 . S
O14 C23 1.272 . S
O15 Co1 2.113 . S
O15 C23 1.245 . S
C16 O24 1.259 . S
C16 O25 1.257 . S
C17 O26 1.268 . S
C17 O27 1.253 . S
C18 O28 1.281 . S
C18 O29 1.252 . S
C19 O30 1.272 . S
C19 O31 1.245 . S
C20 O8 1.259 . S
C20 O9 1.257 . S
C21 O10 1.253 . S
C21 O11 1.268 . S
C22 O12 1.281 1_455 S
C22 O13 1.252 . S
C23 O14 1.272 . S
C23 O15 1.245 . S
O24 Co0 2.053 . S
O24 C16 1.259 . S
O25 Co2 2.047 . S
O25 C16 1.257 . S
O26 Co1 2.063 . S
O26 C17 1.268 . S
O27 Co0 2.094 . S
O27 C17 1.253 . S
O28 Co7 2.115 . S
O28 C18 1.281 . S
O29 Co7 2.315 . S
O29 C18 1.252 . S
O30 Co0 2.122 . S
O30 C19 1.272 . S
O31 Co2 2.113 . S
O31 C19 1.245 . S
Co32 H35 2.400 . S
Co32 O36 2.009 . S
Co32 O44 2.115 1_565 S
Co32 O45 2.315 1_565 S
Co32 O56 2.053 . S
Co32 O59 2.094 . S
Co32 O62 2.122 . S
Co33 O36 2.126 . S
Co33 H37 2.388 . S
Co33 O38 2.053 . S
Co33 O41 2.047 . S
Co33 O47 2.113 . S
Co33 O58 2.063 . S
Co34 H35 2.388 . S
Co34 O36 2.053 . S
Co34 O38 2.126 . S
Co34 O43 2.063 . S
Co34 O57 2.047 . S
Co34 O63 2.113 . S
H35 Co32 2.400 . S
H35 Co34 2.388 . S
H35 O36 0.760 . S
O36 Co32 2.009 . S
O36 Co33 2.126 . S
O36 Co34 2.053 . S
O36 H35 0.760 . S
H37 Co33 2.388 . S
H37 O38 0.760 . S
H37 Co39 2.400 . S
O38 Co33 2.053 . S
O38 Co34 2.126 . S
O38 H37 0.760 . S
O38 Co39 2.009 . S
Co39 H37 2.400 . S
Co39 O38 2.009 . S
Co39 O40 2.053 . S
Co39 O42 2.094 . S
Co39 O46 2.122 . S
Co39 O60 2.115 . S
Co39 O61 2.315 . S
O40 Co39 2.053 . S
O40 C52 1.259 . S
O41 Co33 2.047 . S
O41 C52 1.257 . S
O42 Co39 2.094 . S
O42 C53 1.253 . S
O43 Co34 2.063 . S
O43 C53 1.268 . S
O44 Co32 2.115 1_545 S
O44 C54 1.281 . S
O45 Co32 2.315 1_545 S
O45 C54 1.252 . S
O46 Co39 2.122 . S
O46 C55 1.272 . S
O47 Co33 2.113 . S
O47 C55 1.245 . S
C48 O56 1.259 . S
C48 O57 1.257 . S
C49 O58 1.268 . S
C49 O59 1.253 . S
C50 O60 1.281 . S
C50 O61 1.252 . S
C51 O62 1.272 . S
C51 O63 1.245 . S
C52 O40 1.259 . S
C52 O41 1.257 . S
C53 O42 1.253 . S
C53 O43 1.268 . S
C54 O44 1.281 . S
C54 O45 1.252 . S
C55 O46 1.272 . S
C55 O47 1.245 . S
O56 Co32 2.053 . S
O56 C48 1.259 . S
O57 Co34 2.047 . S
O57 C48 1.257 . S
O58 Co33 2.063 . S
O58 C49 1.268 . S
O59 Co32 2.094 . S
O59 C49 1.253 . S
O60 Co39 2.115 . S
O60 C50 1.281 . S
O61 Co39 2.315 . S
O61 C50 1.252 . S
O62 Co32 2.122 . S
O62 C51 1.272 . S
O63 Co34 2.113 . S
O63 C51 1.245 . S
Co64 H67 2.400 . S
Co64 O68 2.009 . S
Co64 O76 2.115 1_556 S
Co64 O77 2.315 1_556 S
Co64 O88 2.053 . S
Co64 O91 2.094 . S
Co64 O94 2.122 . S
Co65 O68 2.126 . S
Co65 H69 2.388 . S
Co65 O70 2.053 . S
Co65 O73 2.047 . S
Co65 O79 2.113 . S
Co65 O90 2.063 . S
Co66 H67 2.388 . S
Co66 O68 2.053 . S
Co66 O70 2.126 . S
Co66 O75 2.063 . S
Co66 O89 2.047 . S
Co66 O95 2.113 . S
H67 Co64 2.400 . S
H67 Co66 2.388 . S
H67 O68 0.760 . S
O68 Co64 2.009 . S
O68 Co65 2.126 . S
O68 Co66 2.053 . S
O68 H67 0.760 . S
H69 Co65 2.388 . S
H69 O70 0.760 . S
H69 Co71 2.400 . S
O70 Co65 2.053 . S
O70 Co66 2.126 . S
O70 H69 0.760 . S
O70 Co71 2.009 . S
Co71 H69 2.400 . S
Co71 O70 2.009 . S
Co71 O72 2.053 . S
Co71 O74 2.094 . S
Co71 O78 2.122 . S
Co71 O92 2.115 . S
Co71 O93 2.315 . S
O72 Co71 2.053 . S
O72 C84 1.259 . S
O73 Co65 2.047 . S
O73 C84 1.257 . S
O74 Co71 2.094 . S
O74 C85 1.253 . S
O75 Co66 2.063 . S
O75 C85 1.268 . S
O76 Co64 2.115 1_554 S
O76 C86 1.281 . S
O77 Co64 2.315 1_554 S
O77 C86 1.252 . S
O78 Co71 2.122 . S
O78 C87 1.272 . S
O79 Co65 2.113 . S
O79 C87 1.245 . S
C80 O88 1.259 . S
C80 O89 1.257 . S
C81 O90 1.268 . S
C81 O91 1.253 . S
C82 O92 1.281 . S
C82 O93 1.252 . S
C83 O94 1.272 . S
C83 O95 1.245 . S
C84 O72 1.259 . S
C84 O73 1.257 . S
C85 O74 1.253 . S
C85 O75 1.268 . S
C86 O76 1.281 . S
C86 O77 1.252 . S
C87 O78 1.272 . S
C87 O79 1.245 . S
O88 Co64 2.053 . S
O88 C80 1.259 . S
O89 Co66 2.047 . S
O89 C80 1.257 . S
O90 Co65 2.063 . S
O90 C81 1.268 . S
O91 Co64 2.094 . S
O91 C81 1.253 . S
O92 Co71 2.115 . S
O92 C82 1.281 . S
O93 Co71 2.315 . S
O93 C82 1.252 . S
O94 Co64 2.122 . S
O94 C83 1.272 . S
O95 Co66 2.113 . S
O95 C83 1.245 . S
Co96 H99 2.400 . S
Co96 O100 2.009 . S
Co96 O108 2.115 . S
Co96 O109 2.315 . S
Co96 O120 2.053 . S
Co96 O123 2.094 . S
Co96 O126 2.122 . S
Co97 O100 2.126 . S
Co97 H101 2.388 . S
Co97 O102 2.053 . S
Co97 O105 2.047 . S
Co97 O111 2.113 . S
Co97 O122 2.063 . S
Co98 H99 2.388 . S
Co98 O100 2.053 . S
Co98 O102 2.126 . S
Co98 O107 2.063 . S
Co98 O121 2.047 . S
Co98 O127 2.113 . S
H99 Co96 2.400 . S
H99 Co98 2.388 . S
H99 O100 0.760 . S
O100 Co96 2.009 . S
O100 Co97 2.126 . S
O100 Co98 2.053 . S
O100 H99 0.760 . S
H101 Co97 2.388 . S
H101 O102 0.760 . S
H101 Co103 2.400 . S
O102 Co97 2.053 . S
O102 Co98 2.126 . S
O102 H101 0.760 . S
O102 Co103 2.009 . S
Co103 H101 2.400 . S
Co103 O102 2.009 . S
Co103 O104 2.053 . S
Co103 O106 2.094 . S
Co103 O110 2.122 . S
Co103 O124 2.115 1_544 S
Co103 O125 2.315 1_554 S
O104 Co103 2.053 . S
O104 C116 1.259 . S
O105 Co97 2.047 . S
O105 C116 1.257 . S
O106 Co103 2.094 . S
O106 C117 1.253 . S
O107 Co98 2.063 . S
O107 C117 1.268 . S
O108 Co96 2.115 . S
O108 C118 1.281 . S
O109 Co96 2.315 . S
O109 C118 1.252 . S
O110 Co103 2.122 . S
O110 C119 1.272 . S
O111 Co97 2.113 . S
O111 C119 1.245 . S
C112 O120 1.259 . S
C112 O121 1.257 . S
C113 O122 1.268 . S
C113 O123 1.253 . S
C114 O124 1.281 1_545 S
C114 O125 1.252 . S
C115 O126 1.272 . S
C115 O127 1.245 . S
C116 O104 1.259 . S
C116 O105 1.257 . S
C117 O106 1.253 . S
C117 O107 1.268 . S
C118 O108 1.281 . S
C118 O109 1.252 . S
C119 O110 1.272 . S
C119 O111 1.245 . S
O120 Co96 2.053 . S
O120 C112 1.259 . S
O121 Co98 2.047 . S
O121 C112 1.257 . S
O122 Co97 2.063 . S
O122 C113 1.268 . S
O123 Co96 2.094 . S
O123 C113 1.253 . S
O124 Co103 2.115 1_566 S
O124 C114 1.281 1_565 S
O125 Co103 2.315 1_556 S
O125 C114 1.252 . S
O126 Co96 2.122 . S
O126 C115 1.272 . S
O127 Co98 2.113 . S
O127 C115 1.245 . S
Co128 H131 2.400 . S
Co128 O132 2.009 . S
Co128 O140 2.115 1_454 S
Co128 O141 2.315 1_554 S
Co128 O152 2.053 . S
Co128 O155 2.094 . S
Co128 O158 2.122 . S
Co129 O132 2.126 . S
Co129 H133 2.388 . S
Co129 O134 2.053 . S
Co129 O137 2.047 . S
Co129 O143 2.113 . S
Co129 O154 2.063 . S
Co130 H131 2.388 . S
Co130 O132 2.053 . S
Co130 O134 2.126 . S
Co130 O139 2.063 . S
Co130 O153 2.047 . S
Co130 O159 2.113 . S
H131 Co128 2.400 . S
H131 Co130 2.388 . S
H131 O132 0.760 . S
O132 Co128 2.009 . S
O132 Co129 2.126 . S
O132 Co130 2.053 . S
O132 H131 0.760 . S
H133 Co129 2.388 . S
H133 O134 0.760 . S
H133 Co135 2.400 . S
O134 Co129 2.053 . S
O134 Co130 2.126 . S
O134 H133 0.760 . S
O134 Co135 2.009 . S
Co135 H133 2.400 . S
Co135 O134 2.009 . S
Co135 O136 2.053 . S
Co135 O138 2.094 . S
Co135 O142 2.122 . S
Co135 O156 2.115 . S
Co135 O157 2.315 . S
O136 Co135 2.053 . S
O136 C148 1.259 . S
O137 Co129 2.047 . S
O137 C148 1.257 . S
O138 Co135 2.094 . S
O138 C149 1.253 . S
O139 Co130 2.063 . S
O139 C149 1.268 . S
O140 Co128 2.115 1_656 S
O140 C150 1.281 1_655 S
O141 Co128 2.315 1_556 S
O141 C150 1.252 . S
O142 Co135 2.122 . S
O142 C151 1.272 . S
O143 Co129 2.113 . S
O143 C151 1.245 . S
C144 O152 1.259 . S
C144 O153 1.257 . S
C145 O154 1.268 . S
C145 O155 1.253 . S
C146 O156 1.281 . S
C146 O157 1.252 . S
C147 O158 1.272 . S
C147 O159 1.245 . S
C148 O136 1.259 . S
C148 O137 1.257 . S
C149 O138 1.253 . S
C149 O139 1.268 . S
C150 O140 1.281 1_455 S
C150 O141 1.252 . S
C151 O142 1.272 . S
C151 O143 1.245 . S
O152 Co128 2.053 . S
O152 C144 1.259 . S
O153 Co130 2.047 . S
O153 C144 1.257 . S
O154 Co129 2.063 . S
O154 C145 1.268 . S
O155 Co128 2.094 . S
O155 C145 1.253 . S
O156 Co135 2.115 . S
O156 C146 1.281 . S
O157 Co135 2.315 . S
O157 C146 1.252 . S
O158 Co128 2.122 . S
O158 C147 1.272 . S
O159 Co130 2.113 . S
O159 C147 1.245 . S
Co160 H163 2.400 . S
Co160 O164 2.009 . S
Co160 O172 2.115 . S
Co160 O173 2.315 . S
Co160 O184 2.053 . S
Co160 O187 2.094 . S
Co160 O190 2.122 . S
Co161 O164 2.126 . S
Co161 H165 2.388 . S
Co161 O166 2.053 . S
Co161 O169 2.047 . S
Co161 O175 2.113 . S
Co161 O186 2.063 . S
Co162 H163 2.388 . S
Co162 O164 2.053 . S
Co162 O166 2.126 . S
Co162 O171 2.063 . S
Co162 O185 2.047 . S
Co162 O191 2.113 . S
H163 Co160 2.400 . S
H163 Co162 2.388 . S
H163 O164 0.760 . S
O164 Co160 2.009 . S
O164 Co161 2.126 . S
O164 Co162 2.053 . S
O164 H163 0.760 . S
H165 Co161 2.388 . S
H165 O166 0.760 . S
H165 Co167 2.400 . S
O166 Co161 2.053 . S
O166 Co162 2.126 . S
O166 H165 0.760 . S
O166 Co167 2.009 . S
Co167 H165 2.400 . S
Co167 O166 2.009 . S
Co167 O168 2.053 . S
Co167 O170 2.094 . S
Co167 O174 2.122 . S
Co167 O188 2.115 1_565 S
Co167 O189 2.315 . S
O168 Co167 2.053 . S
O168 C180 1.259 . S
O169 Co161 2.047 . S
O169 C180 1.257 . S
O170 Co167 2.094 . S
O170 C181 1.253 . S
O171 Co162 2.063 . S
O171 C181 1.268 . S
O172 Co160 2.115 . S
O172 C182 1.281 . S
O173 Co160 2.315 . S
O173 C182 1.252 . S
O174 Co167 2.122 . S
O174 C183 1.272 . S
O175 Co161 2.113 . S
O175 C183 1.245 . S
C176 O184 1.259 . S
C176 O185 1.257 . S
C177 O186 1.268 . S
C177 O187 1.253 . S
C178 O188 1.281 1_565 S
C178 O189 1.252 . S
C179 O190 1.272 . S
C179 O191 1.245 . S
C180 O168 1.259 . S
C180 O169 1.257 . S
C181 O170 1.253 . S
C181 O171 1.268 . S
C182 O172 1.281 . S
C182 O173 1.252 . S
C183 O174 1.272 . S
C183 O175 1.245 . S
O184 Co160 2.053 . S
O184 C176 1.259 . S
O185 Co162 2.047 . S
O185 C176 1.257 . S
O186 Co161 2.063 . S
O186 C177 1.268 . S
O187 Co160 2.094 . S
O187 C177 1.253 . S
O188 Co167 2.115 1_545 S
O188 C178 1.281 1_545 S
O189 Co167 2.315 . S
O189 C178 1.252 . S
O190 Co160 2.122 . S
O190 C179 1.272 . S
O191 Co162 2.113 . S
O191 C179 1.245 . S
Co192 H195 2.400 . S
Co192 O196 2.009 . S
Co192 O204 2.115 . S
Co192 O205 2.315 . S
Co192 O216 2.053 . S
Co192 O219 2.094 . S
Co192 O222 2.122 . S
Co193 O196 2.126 . S
Co193 H197 2.388 . S
Co193 O198 2.053 . S
Co193 O201 2.047 . S
Co193 O207 2.113 . S
Co193 O218 2.063 . S
Co194 H195 2.388 . S
Co194 O196 2.053 . S
Co194 O198 2.126 . S
Co194 O203 2.063 . S
Co194 O217 2.047 . S
Co194 O223 2.113 . S
H195 Co192 2.400 . S
H195 Co194 2.388 . S
H195 O196 0.760 . S
O196 Co192 2.009 . S
O196 Co193 2.126 . S
O196 Co194 2.053 . S
O196 H195 0.760 . S
H197 Co193 2.388 . S
H197 O198 0.760 . S
H197 Co199 2.400 . S
O198 Co193 2.053 . S
O198 Co194 2.126 . S
O198 H197 0.760 . S
O198 Co199 2.009 . S
Co199 H197 2.400 . S
Co199 O198 2.009 . S
Co199 O200 2.053 . S
Co199 O202 2.094 . S
Co199 O206 2.122 . S
Co199 O220 2.115 . S
Co199 O221 2.315 . S
O200 Co199 2.053 . S
O200 C212 1.259 . S
O201 Co193 2.047 . S
O201 C212 1.257 . S
O202 Co199 2.094 . S
O202 C213 1.253 . S
O203 Co194 2.063 . S
O203 C213 1.268 . S
O204 Co192 2.115 . S
O204 C214 1.281 . S
O205 Co192 2.315 . S
O205 C214 1.252 . S
O206 Co199 2.122 . S
O206 C215 1.272 . S
O207 Co193 2.113 . S
O207 C215 1.245 . S
C208 O216 1.259 . S
C208 O217 1.257 . S
C209 O218 1.268 . S
C209 O219 1.253 . S
C210 O220 1.281 . S
C210 O221 1.252 . S
C211 O222 1.272 . S
C211 O223 1.245 . S
C212 O200 1.259 . S
C212 O201 1.257 . S
C213 O202 1.253 . S
C213 O203 1.268 . S
C214 O204 1.281 . S
C214 O205 1.252 . S
C215 O206 1.272 . S
C215 O207 1.245 . S
O216 Co192 2.053 . S
O216 C208 1.259 . S
O217 Co194 2.047 . S
O217 C208 1.257 . S
O218 Co193 2.063 . S
O218 C209 1.268 . S
O219 Co192 2.094 . S
O219 C209 1.253 . S
O220 Co199 2.115 . S
O220 C210 1.281 . S
O221 Co199 2.315 . S
O221 C210 1.252 . S
O222 Co192 2.122 . S
O222 C211 1.272 . S
O223 Co194 2.113 . S
O223 C211 1.245 . S
Co224 H227 2.400 . S
Co224 O228 2.009 . S
Co224 O236 2.115 . S
Co224 O237 2.315 . S
Co224 O248 2.053 . S
Co224 O251 2.094 . S
Co224 O254 2.122 . S
Co225 O228 2.126 . S
Co225 H229 2.388 . S
Co225 O230 2.053 . S
Co225 O233 2.047 . S
Co225 O239 2.113 . S
Co225 O250 2.063 . S
Co226 H227 2.388 . S
Co226 O228 2.053 . S
Co226 O230 2.126 . S
Co226 O235 2.063 . S
Co226 O249 2.047 . S
Co226 O255 2.113 . S
H227 Co224 2.400 . S
H227 Co226 2.388 . S
H227 O228 0.760 . S
O228 Co224 2.009 . S
O228 Co225 2.126 . S
O228 Co226 2.053 . S
O228 H227 0.760 . S
H229 Co225 2.388 . S
H229 O230 0.760 . S
H229 Co231 2.400 . S
O230 Co225 2.053 . S
O230 Co226 2.126 . S
O230 H229 0.760 . S
O230 Co231 2.009 . S
Co231 H229 2.400 . S
Co231 O230 2.009 . S
Co231 O232 2.053 . S
Co231 O234 2.094 . S
Co231 O238 2.122 . S
Co231 O252 2.115 1_546 S
Co231 O253 2.315 1_556 S
O232 Co231 2.053 . S
O232 C244 1.259 . S
O233 Co225 2.047 . S
O233 C244 1.257 . S
O234 Co231 2.094 . S
O234 C245 1.253 . S
O235 Co226 2.063 . S
O235 C245 1.268 . S
O236 Co224 2.115 . S
O236 C246 1.281 . S
O237 Co224 2.315 . S
O237 C246 1.252 . S
O238 Co231 2.122 . S
O238 C247 1.272 . S
O239 Co225 2.113 . S
O239 C247 1.245 . S
C240 O248 1.259 . S
C240 O249 1.257 . S
C241 O250 1.268 . S
C241 O251 1.253 . S
C242 O252 1.281 1_545 S
C242 O253 1.252 . S
C243 O254 1.272 . S
C243 O255 1.245 . S
C244 O232 1.259 . S
C244 O233 1.257 . S
C245 O234 1.253 . S
C245 O235 1.268 . S
C246 O236 1.281 . S
C246 O237 1.252 . S
C247 O238 1.272 . S
C247 O239 1.245 . S
O248 Co224 2.053 . S
O248 C240 1.259 . S
O249 Co226 2.047 . S
O249 C240 1.257 . S
O250 Co225 2.063 . S
O250 C241 1.268 . S
O251 Co224 2.094 . S
O251 C241 1.253 . S
O252 Co231 2.115 1_564 S
O252 C242 1.281 1_565 S
O253 Co231 2.315 1_554 S
O253 C242 1.252 . S
O254 Co224 2.122 . S
O254 C243 1.272 . S
O255 Co226 2.113 . S
O255 C243 1.245 . S
Co256 H259 2.400 . S
Co256 O260 2.009 . S
Co256 O268 2.112 1_545 S
Co256 O269 2.315 . S
Co256 O280 2.053 . S
Co256 O283 2.094 . S
Co256 O286 2.122 . S
Co257 O260 2.126 . S
Co257 H261 2.388 . S
Co257 O262 2.053 . S
Co257 O265 2.047 . S
Co257 O271 2.113 . S
Co257 O282 2.063 . S
Co258 H259 2.388 . S
Co258 O260 2.053 . S
Co258 O262 2.126 . S
Co258 O267 2.063 . S
Co258 O281 2.047 . S
Co258 O287 2.113 . S
H259 Co256 2.400 . S
H259 Co258 2.388 . S
H259 O260 0.760 . S
O260 Co256 2.009 . S
O260 Co257 2.126 . S
O260 Co258 2.053 . S
O260 H259 0.760 . S
H261 Co257 2.388 . S
H261 O262 0.760 . S
H261 Co263 2.400 . S
O262 Co257 2.053 . S
O262 Co258 2.126 . S
O262 H261 0.760 . S
O262 Co263 2.009 . S
Co263 H261 2.400 . S
Co263 O262 2.009 . S
Co263 O264 2.053 . S
Co263 O266 2.094 . S
Co263 O270 2.122 . S
Co263 O284 2.115 . S
Co263 O285 2.315 . S
O264 Co263 2.053 . S
O264 C276 1.259 . S
O265 Co257 2.047 . S
O265 C276 1.257 . S
O266 Co263 2.094 . S
O266 C277 1.253 . S
O267 Co258 2.063 . S
O267 C277 1.268 . S
O268 Co256 2.112 1_565 S
O268 C278 1.279 1_565 S
O269 Co256 2.315 . S
O269 C278 1.252 . S
O270 Co263 2.122 . S
O270 C279 1.272 . S
O271 Co257 2.113 . S
O271 C279 1.245 . S
C272 O280 1.259 . S
C272 O281 1.257 . S
C273 O282 1.268 . S
C273 O283 1.253 . S
C274 O284 1.281 . S
C274 O285 1.252 . S
C275 O286 1.272 . S
C275 O287 1.245 . S
C276 O264 1.259 . S
C276 O265 1.257 . S
C277 O266 1.253 . S
C277 O267 1.268 . S
C278 O268 1.279 1_545 S
C278 O269 1.252 . S
C279 O270 1.272 . S
C279 O271 1.245 . S
O280 Co256 2.053 . S
O280 C272 1.259 . S
O281 Co258 2.047 . S
O281 C272 1.257 . S
O282 Co257 2.063 . S
O282 C273 1.268 . S
O283 Co256 2.094 . S
O283 C273 1.253 . S
O284 Co263 2.115 . S
O284 C274 1.281 . S
O285 Co263 2.315 . S
O285 C274 1.252 . S
O286 Co256 2.122 . S
O286 C275 1.272 . S
O287 Co258 2.113 . S
O287 C275 1.245 . S
Co288 H291 2.400 . S
Co288 O292 2.009 . S
Co288 O300 2.115 1_445 S
Co288 O301 2.315 1_455 S
Co288 O312 2.053 . S
Co288 O315 2.094 . S
Co288 O318 2.122 . S
Co289 O292 2.126 . S
Co289 H293 2.388 . S
Co289 O294 2.053 . S
Co289 O297 2.047 . S
Co289 O303 2.113 . S
Co289 O314 2.063 . S
Co290 H291 2.388 . S
Co290 O292 2.053 . S
Co290 O294 2.126 . S
Co290 O299 2.063 . S
Co290 O313 2.047 . S
Co290 O319 2.113 . S
H291 Co288 2.400 . S
H291 Co290 2.388 . S
H291 O292 0.760 . S
O292 Co288 2.009 . S
O292 Co289 2.126 . S
O292 Co290 2.053 . S
O292 H291 0.760 . S
H293 Co289 2.388 . S
H293 O294 0.760 . S
H293 Co295 2.400 . S
O294 Co289 2.053 . S
O294 Co290 2.126 . S
O294 H293 0.760 . S
O294 Co295 2.009 . S
Co295 H293 2.400 . S
Co295 O294 2.009 . S
Co295 O296 2.053 . S
Co295 O298 2.094 . S
Co295 O302 2.122 . S
Co295 O316 2.115 . S
Co295 O317 2.315 . S
O296 Co295 2.053 . S
O296 C308 1.259 . S
O297 Co289 2.047 . S
O297 C308 1.257 . S
O298 Co295 2.094 . S
O298 C309 1.253 . S
O299 Co290 2.063 . S
O299 C309 1.268 . S
O300 Co288 2.115 1_665 S
O300 C310 1.281 1_565 S
O301 Co288 2.315 1_655 S
O301 C310 1.252 . S
O302 Co295 2.122 . S
O302 C311 1.272 . S
O303 Co289 2.113 . S
O303 C311 1.245 . S
C304 O312 1.259 . S
C304 O313 1.257 . S
C305 O314 1.268 . S
C305 O315 1.253 . S
C306 O316 1.281 . S
C306 O317 1.252 . S
C307 O318 1.272 . S
C307 O319 1.245 . S
C308 O296 1.259 . S
C308 O297 1.257 . S
C309 O298 1.253 . S
C309 O299 1.268 . S
C310 O300 1.281 1_545 S
C310 O301 1.252 . S
C311 O302 1.272 . S
C311 O303 1.245 . S
O312 Co288 2.053 . S
O312 C304 1.259 . S
O313 Co290 2.047 . S
O313 C304 1.257 . S
O314 Co289 2.063 . S
O314 C305 1.268 . S
O315 Co288 2.094 . S
O315 C305 1.253 . S
O316 Co295 2.115 . S
O316 C306 1.281 . S
O317 Co295 2.315 . S
O317 C306 1.252 . S
O318 Co288 2.122 . S
O318 C307 1.272 . S
O319 Co290 2.113 . S
O319 C307 1.245 . S
Co320 H323 2.400 . S
Co320 O324 2.009 . S
Co320 O332 2.115 . S
Co320 O333 2.315 . S
Co320 O344 2.053 . S
Co320 O347 2.094 . S
Co320 O350 2.122 . S
Co321 O324 2.126 . S
Co321 H325 2.388 . S
Co321 O326 2.053 . S
Co321 O329 2.047 . S
Co321 O335 2.113 . S
Co321 O346 2.063 . S
Co322 H323 2.388 . S
Co322 O324 2.053 . S
Co322 O326 2.126 . S
Co322 O331 2.063 . S
Co322 O345 2.047 . S
Co322 O351 2.113 . S
H323 Co320 2.400 . S
H323 Co322 2.388 . S
H323 O324 0.760 . S
O324 Co320 2.009 . S
O324 Co321 2.126 . S
O324 Co322 2.053 . S
O324 H323 0.760 . S
H325 Co321 2.388 . S
H325 O326 0.760 . S
H325 Co327 2.400 . S
O326 Co321 2.053 . S
O326 Co322 2.126 . S
O326 H325 0.760 . S
O326 Co327 2.009 . S
Co327 H325 2.400 . S
Co327 O326 2.009 . S
Co327 O328 2.053 . S
Co327 O330 2.094 . S
Co327 O334 2.122 . S
Co327 O348 2.101 1_465 S
Co327 O349 2.315 1_565 S
O328 Co327 2.053 . S
O328 C340 1.259 . S
O329 Co321 2.047 . S
O329 C340 1.257 . S
O330 Co327 2.094 . S
O330 C341 1.253 . S
O331 Co322 2.063 . S
O331 C341 1.268 . S
O332 Co320 2.115 . S
O332 C342 1.281 . S
O333 Co320 2.315 . S
O333 C342 1.252 . S
O334 Co327 2.122 . S
O334 C343 1.272 . S
O335 Co321 2.113 . S
O335 C343 1.245 . S
C336 O344 1.259 . S
C336 O345 1.257 . S
C337 O346 1.268 . S
C337 O347 1.253 . S
C338 O348 1.272 1_455 S
C338 O349 1.252 . S
C339 O350 1.272 . S
C339 O351 1.245 . S
C340 O328 1.259 . S
C340 O329 1.257 . S
C341 O330 1.253 . S
C341 O331 1.268 . S
C342 O332 1.281 . S
C342 O333 1.252 . S
C343 O334 1.272 . S
C343 O335 1.245 . S
O344 Co320 2.053 . S
O344 C336 1.259 . S
O345 Co322 2.047 . S
O345 C336 1.257 . S
O346 Co321 2.063 . S
O346 C337 1.268 . S
O347 Co320 2.094 . S
O347 C337 1.253 . S
O348 Co327 2.101 1_645 S
O348 C338 1.272 1_655 S
O349 Co327 2.315 1_545 S
O349 C338 1.252 . S
O350 Co320 2.122 . S
O350 C339 1.272 . S
O351 Co322 2.113 . S
O351 C339 1.245 . S
Co352 H355 2.400 . S
Co352 O356 2.009 . S
Co352 O364 2.115 . S
Co352 O365 2.315 . S
Co352 O376 2.053 . S
Co352 O379 2.094 . S
Co352 O382 2.122 . S
Co353 O356 2.126 . S
Co353 H357 2.388 . S
Co353 O358 2.053 . S
Co353 O361 2.047 . S
Co353 O367 2.113 . S
Co353 O378 2.063 . S
Co354 H355 2.388 . S
Co354 O356 2.053 . S
Co354 O358 2.126 . S
Co354 O363 2.063 . S
Co354 O377 2.047 . S
Co354 O383 2.113 . S
H355 Co352 2.400 . S
H355 Co354 2.388 . S
H355 O356 0.760 . S
O356 Co352 2.009 . S
O356 Co353 2.126 . S
O356 Co354 2.053 . S
O356 H355 0.760 . S
H357 Co353 2.388 . S
H357 O358 0.760 . S
H357 Co359 2.400 . S
O358 Co353 2.053 . S
O358 Co354 2.126 . S
O358 H357 0.760 . S
O358 Co359 2.009 . S
Co359 H357 2.400 . S
Co359 O358 2.009 . S
Co359 O360 2.053 . S
Co359 O362 2.094 . S
Co359 O366 2.122 . S
Co359 O380 2.115 1_565 S
Co359 O381 2.315 1_565 S
O360 Co359 2.053 . S
O360 C372 1.259 . S
O361 Co353 2.047 . S
O361 C372 1.257 . S
O362 Co359 2.094 . S
O362 C373 1.253 . S
O363 Co354 2.063 . S
O363 C373 1.268 . S
O364 Co352 2.115 . S
O364 C374 1.281 . S
O365 Co352 2.315 . S
O365 C374 1.252 . S
O366 Co359 2.122 . S
O366 C375 1.272 . S
O367 Co353 2.113 . S
O367 C375 1.245 . S
C368 O376 1.259 . S
C368 O377 1.257 . S
C369 O378 1.268 . S
C369 O379 1.253 . S
C370 O380 1.281 . S
C370 O381 1.252 . S
C371 O382 1.272 . S
C371 O383 1.245 . S
C372 O360 1.259 . S
C372 O361 1.257 . S
C373 O362 1.253 . S
C373 O363 1.268 . S
C374 O364 1.281 . S
C374 O365 1.252 . S
C375 O366 1.272 . S
C375 O367 1.245 . S
O376 Co352 2.053 . S
O376 C368 1.259 . S
O377 Co354 2.047 . S
O377 C368 1.257 . S
O378 Co353 2.063 . S
O378 C369 1.268 . S
O379 Co352 2.094 . S
O379 C369 1.253 . S
O380 Co359 2.115 1_545 S
O380 C370 1.281 . S
O381 Co359 2.315 1_545 S
O381 C370 1.252 . S
O382 Co352 2.122 . S
O382 C371 1.272 . S
O383 Co354 2.113 . S
O383 C371 1.245 . S
Co384 H387 2.400 . S
Co384 O388 2.009 . S
Co384 O396 2.115 1_554 S
Co384 O397 2.315 . S
Co384 O408 2.053 . S
Co384 O411 2.094 . S
Co384 O414 2.122 . S
Co385 O388 2.126 . S
Co385 H389 2.388 . S
Co385 O390 2.053 . S
Co385 O393 2.047 . S
Co385 O399 2.113 . S
Co385 O410 2.063 . S
Co386 H387 2.388 . S
Co386 O388 2.053 . S
Co386 O390 2.126 . S
Co386 O395 2.063 . S
Co386 O409 2.047 . S
Co386 O415 2.113 . S
H387 Co384 2.400 . S
H387 Co386 2.388 . S
H387 O388 0.760 . S
O388 Co384 2.009 . S
O388 Co385 2.126 . S
O388 Co386 2.053 . S
O388 H387 0.760 . S
H389 Co385 2.388 . S
H389 O390 0.760 . S
H389 Co391 2.400 . S
O390 Co385 2.053 . S
O390 Co386 2.126 . S
O390 H389 0.760 . S
O390 Co391 2.009 . S
Co391 H389 2.400 . S
Co391 O390 2.009 . S
Co391 O392 2.053 . S
Co391 O394 2.094 . S
Co391 O398 2.122 . S
Co391 O412 2.115 . S
Co391 O413 2.315 . S
O392 Co391 2.053 . S
O392 C404 1.259 . S
O393 Co385 2.047 . S
O393 C404 1.257 . S
O394 Co391 2.094 . S
O394 C405 1.253 . S
O395 Co386 2.063 . S
O395 C405 1.268 . S
O396 Co384 2.115 1_556 S
O396 C406 1.281 1_556 S
O397 Co384 2.315 . S
O397 C406 1.252 . S
O398 Co391 2.122 . S
O398 C407 1.272 . S
O399 Co385 2.113 . S
O399 C407 1.245 . S
C400 O408 1.259 . S
C400 O409 1.257 . S
C401 O410 1.268 . S
C401 O411 1.253 . S
C402 O412 1.281 . S
C402 O413 1.252 . S
C403 O414 1.272 . S
C403 O415 1.245 . S
C404 O392 1.259 . S
C404 O393 1.257 . S
C405 O394 1.253 . S
C405 O395 1.268 . S
C406 O396 1.281 1_554 S
C406 O397 1.252 . S
C407 O398 1.272 . S
C407 O399 1.245 . S
O408 Co384 2.053 . S
O408 C400 1.259 . S
O409 Co386 2.047 . S
O409 C400 1.257 . S
O410 Co385 2.063 . S
O410 C401 1.268 . S
O411 Co384 2.094 . S
O411 C401 1.253 . S
O412 Co391 2.115 . S
O412 C402 1.281 . S
O413 Co391 2.315 . S
O413 C402 1.252 . S
O414 Co384 2.122 . S
O414 C403 1.272 . S
O415 Co386 2.113 . S
O415 C403 1.245 . S
Co416 H419 2.400 . S
Co416 O420 2.009 . S
Co416 O428 2.115 . S
Co416 O429 2.315 . S
Co416 O440 2.053 . S
Co416 O443 2.094 . S
Co416 O446 2.122 . S
Co417 O420 2.126 . S
Co417 H421 2.388 . S
Co417 O422 2.053 . S
Co417 O425 2.047 . S
Co417 O431 2.113 . S
Co417 O442 2.063 . S
Co418 H419 2.388 . S
Co418 O420 2.053 . S
Co418 O422 2.126 . S
Co418 O427 2.063 . S
Co418 O441 2.047 . S
Co418 O447 2.113 . S
H419 Co416 2.400 . S
H419 Co418 2.388 . S
H419 O420 0.760 . S
O420 Co416 2.009 . S
O420 Co417 2.126 . S
O420 Co418 2.053 . S
O420 H419 0.760 . S
H421 Co417 2.388 . S
H421 O422 0.760 . S
H421 Co423 2.400 . S
O422 Co417 2.053 . S
O422 Co418 2.126 . S
O422 H421 0.760 . S
O422 Co423 2.009 . S
Co423 H421 2.400 . S
Co423 O422 2.009 . S
Co423 O424 2.053 . S
Co423 O426 2.094 . S
Co423 O430 2.122 . S
Co423 O444 2.114 1_654 S
Co423 O445 2.315 1_655 S
O424 Co423 2.053 . S
O424 C436 1.259 . S
O425 Co417 2.047 . S
O425 C436 1.257 . S
O426 Co423 2.094 . S
O426 C437 1.253 . S
O427 Co418 2.063 . S
O427 C437 1.268 . S
O428 Co416 2.115 . S
O428 C438 1.281 . S
O429 Co416 2.315 . S
O429 C438 1.252 . S
O430 Co423 2.122 . S
O430 C439 1.272 . S
O431 Co417 2.113 . S
O431 C439 1.245 . S
C432 O440 1.259 . S
C432 O441 1.257 . S
C433 O442 1.268 . S
C433 O443 1.253 . S
C434 O444 1.280 1_554 S
C434 O445 1.252 . S
C435 O446 1.272 . S
C435 O447 1.245 . S
C436 O424 1.259 . S
C436 O425 1.257 . S
C437 O426 1.253 . S
C437 O427 1.268 . S
C438 O428 1.281 . S
C438 O429 1.252 . S
C439 O430 1.272 . S
C439 O431 1.245 . S
O440 Co416 2.053 . S
O440 C432 1.259 . S
O441 Co418 2.047 . S
O441 C432 1.257 . S
O442 Co417 2.063 . S
O442 C433 1.268 . S
O443 Co416 2.094 . S
O443 C433 1.253 . S
O444 Co423 2.114 1_456 S
O444 C434 1.280 1_556 S
O445 Co423 2.315 1_455 S
O445 C434 1.252 . S
O446 Co416 2.122 . S
O446 C435 1.272 . S
O447 Co418 2.113 . S
O447 C435 1.245 . S
Co448 H451 2.400 . S
Co448 O452 2.009 . S
Co448 O460 2.115 . S
Co448 O461 2.315 . S
Co448 O472 2.053 . S
Co448 O475 2.094 . S
Co448 O478 2.122 . S
Co449 O452 2.126 . S
Co449 H453 2.388 . S
Co449 O454 2.053 . S
Co449 O457 2.047 . S
Co449 O463 2.113 . S
Co449 O474 2.063 . S
Co450 H451 2.388 . S
Co450 O452 2.053 . S
Co450 O454 2.126 . S
Co450 O459 2.063 . S
Co450 O473 2.047 . S
Co450 O479 2.113 . S
H451 Co448 2.400 . S
H451 Co450 2.388 . S
H451 O452 0.760 . S
O452 Co448 2.009 . S
O452 Co449 2.126 . S
O452 Co450 2.053 . S
O452 H451 0.760 . S
H453 Co449 2.388 . S
H453 O454 0.760 . S
H453 Co455 2.400 . S
O454 Co449 2.053 . S
O454 Co450 2.126 . S
O454 H453 0.760 . S
O454 Co455 2.009 . S
Co455 H453 2.400 . S
Co455 O454 2.009 . S
Co455 O456 2.053 . S
Co455 O458 2.094 . S
Co455 O462 2.122 . S
Co455 O476 2.115 . S
Co455 O477 2.315 . S
O456 Co455 2.053 . S
O456 C468 1.259 . S
O457 Co449 2.047 . S
O457 C468 1.257 . S
O458 Co455 2.094 . S
O458 C469 1.253 . S
O459 Co450 2.063 . S
O459 C469 1.268 . S
O460 Co448 2.115 . S
O460 C470 1.281 . S
O461 Co448 2.315 . S
O461 C470 1.252 . S
O462 Co455 2.122 . S
O462 C471 1.272 . S
O463 Co449 2.113 . S
O463 C471 1.245 . S
C464 O472 1.259 . S
C464 O473 1.257 . S
C465 O474 1.268 . S
C465 O475 1.253 . S
C466 O476 1.281 . S
C466 O477 1.252 . S
C467 O478 1.272 . S
C467 O479 1.245 . S
C468 O456 1.259 . S
C468 O457 1.257 . S
C469 O458 1.253 . S
C469 O459 1.268 . S
C470 O460 1.281 . S
C470 O461 1.252 . S
C471 O462 1.272 . S
C471 O463 1.245 . S
O472 Co448 2.053 . S
O472 C464 1.259 . S
O473 Co450 2.047 . S
O473 C464 1.257 . S
O474 Co449 2.063 . S
O474 C465 1.268 . S
O475 Co448 2.094 . S
O475 C465 1.253 . S
O476 Co455 2.115 . S
O476 C466 1.281 . S
O477 Co455 2.315 . S
O477 C466 1.252 . S
O478 Co448 2.122 . S
O478 C467 1.272 . S
O479 Co450 2.113 . S
O479 C467 1.245 . S
Co480 H483 2.400 . S
Co480 O484 2.009 . S
Co480 O492 2.115 1_556 S
Co480 O493 2.315 1_556 S
Co480 O504 2.053 . S
Co480 O507 2.094 . S
Co480 O510 2.122 . S
Co481 O484 2.126 . S
Co481 H485 2.388 . S
Co481 O486 2.053 . S
Co481 O489 2.047 . S
Co481 O495 2.113 . S
Co481 O506 2.063 . S
Co482 H483 2.388 . S
Co482 O484 2.053 . S
Co482 O486 2.126 . S
Co482 O491 2.063 . S
Co482 O505 2.047 . S
Co482 O511 2.113 . S
H483 Co480 2.400 . S
H483 Co482 2.388 . S
H483 O484 0.760 . S
O484 Co480 2.009 . S
O484 Co481 2.126 . S
O484 Co482 2.053 . S
O484 H483 0.760 . S
H485 Co481 2.388 . S
H485 O486 0.760 . S
H485 Co487 2.400 . S
O486 Co481 2.053 . S
O486 Co482 2.126 . S
O486 H485 0.760 . S
O486 Co487 2.009 . S
Co487 H485 2.400 . S
Co487 O486 2.009 . S
Co487 O488 2.053 . S
Co487 O490 2.094 . S
Co487 O494 2.122 . S
Co487 O508 2.115 . S
Co487 O509 2.315 . S
O488 Co487 2.053 . S
O488 C500 1.259 . S
O489 Co481 2.047 . S
O489 C500 1.257 . S
O490 Co487 2.094 . S
O490 C501 1.253 . S
O491 Co482 2.063 . S
O491 C501 1.268 . S
O492 Co480 2.115 1_554 S
O492 C502 1.281 . S
O493 Co480 2.315 1_554 S
O493 C502 1.252 . S
O494 Co487 2.122 . S
O494 C503 1.272 . S
O495 Co481 2.113 . S
O495 C503 1.245 . S
C496 O504 1.259 . S
C496 O505 1.257 . S
C497 O506 1.268 . S
C497 O507 1.253 . S
C498 O508 1.281 . S
C498 O509 1.252 . S
C499 O510 1.272 . S
C499 O511 1.245 . S
C500 O488 1.259 . S
C500 O489 1.257 . S
C501 O490 1.253 . S
C501 O491 1.268 . S
C502 O492 1.281 . S
C502 O493 1.252 . S
C503 O494 1.272 . S
C503 O495 1.245 . S
O504 Co480 2.053 . S
O504 C496 1.259 . S
O505 Co482 2.047 . S
O505 C496 1.257 . S
O506 Co481 2.063 . S
O506 C497 1.268 . S
O507 Co480 2.094 . S
O507 C497 1.253 . S
O508 Co487 2.115 . S
O508 C498 1.281 . S
O509 Co487 2.315 . S
O509 C498 1.252 . S
O510 Co480 2.122 . S
O510 C499 1.272 . S
O511 Co482 2.113 . S
O511 C499 1.245 . S
Co512 H515 2.400 . S
Co512 O516 2.009 . S
Co512 O524 2.115 1_655 S
Co512 O525 2.315 . S
Co512 O536 2.053 . S
Co512 O539 2.094 . S
Co512 O542 2.122 . S
Co513 O516 2.126 . S
Co513 H517 2.388 . S
Co513 O518 2.053 . S
Co513 O521 2.047 . S
Co513 O527 2.113 . S
Co513 O538 2.063 . S
Co514 H515 2.388 . S
Co514 O516 2.053 . S
Co514 O518 2.126 . S
Co514 O523 2.063 . S
Co514 O537 2.047 . S
Co514 O543 2.113 . S
H515 Co512 2.400 . S
H515 Co514 2.388 . S
H515 O516 0.760 . S
O516 Co512 2.009 . S
O516 Co513 2.126 . S
O516 Co514 2.053 . S
O516 H515 0.760 . S
H517 Co513 2.388 . S
H517 O518 0.760 . S
H517 Co519 2.400 . S
O518 Co513 2.053 . S
O518 Co514 2.126 . S
O518 H517 0.760 . S
O518 Co519 2.009 . S
Co519 H517 2.400 . S
Co519 O518 2.009 . S
Co519 O520 2.053 . S
Co519 O522 2.094 . S
Co519 O526 2.122 . S
Co519 O540 2.115 . S
Co519 O541 2.315 . S
O520 Co519 2.053 . S
O520 C532 1.259 . S
O521 Co513 2.047 . S
O521 C532 1.257 . S
O522 Co519 2.094 . S
O522 C533 1.253 . S
O523 Co514 2.063 . S
O523 C533 1.268 . S
O524 Co512 2.115 1_455 S
O524 C534 1.281 1_455 S
O525 Co512 2.315 . S
O525 C534 1.252 . S
O526 Co519 2.122 . S
O526 C535 1.272 . S
O527 Co513 2.113 . S
O527 C535 1.245 . S
C528 O536 1.259 . S
C528 O537 1.257 . S
C529 O538 1.268 . S
C529 O539 1.253 . S
C530 O540 1.281 . S
C530 O541 1.252 . S
C531 O542 1.272 . S
C531 O543 1.245 . S
C532 O520 1.259 . S
C532 O521 1.257 . S
C533 O522 1.253 . S
C533 O523 1.268 . S
C534 O524 1.281 1_655 S
C534 O525 1.252 . S
C535 O526 1.272 . S
C535 O527 1.245 . S
O536 Co512 2.053 . S
O536 C528 1.259 . S
O537 Co514 2.047 . S
O537 C528 1.257 . S
O538 Co513 2.063 . S
O538 C529 1.268 . S
O539 Co512 2.094 . S
O539 C529 1.253 . S
O540 Co519 2.115 . S
O540 C530 1.281 . S
O541 Co519 2.315 . S
O541 C530 1.252 . S
O542 Co512 2.122 . S
O542 C531 1.272 . S
O543 Co514 2.113 . S
O543 C531 1.245 . S
Co544 H547 2.400 . S
Co544 O548 2.009 . S
Co544 O556 2.115 . S
Co544 O557 2.315 . S
Co544 O568 2.053 . S
Co544 O571 2.094 . S
Co544 O574 2.122 . S
Co545 O548 2.126 . S
Co545 H549 2.388 . S
Co545 O550 2.053 . S
Co545 O553 2.047 . S
Co545 O559 2.113 . S
Co545 O570 2.063 . S
Co546 H547 2.388 . S
Co546 O548 2.053 . S
Co546 O550 2.126 . S
Co546 O555 2.063 . S
Co546 O569 2.047 . S
Co546 O575 2.113 . S
H547 Co544 2.400 . S
H547 Co546 2.388 . S
H547 O548 0.760 . S
O548 Co544 2.009 . S
O548 Co545 2.126 . S
O548 Co546 2.053 . S
O548 H547 0.760 . S
H549 Co545 2.388 . S
H549 O550 0.760 . S
H549 Co551 2.400 . S
O550 Co545 2.053 . S
O550 Co546 2.126 . S
O550 H549 0.760 . S
O550 Co551 2.009 . S
Co551 H549 2.400 . S
Co551 O550 2.009 . S
Co551 O552 2.053 . S
Co551 O554 2.094 . S
Co551 O558 2.122 . S
Co551 O572 2.115 . S
Co551 O573 2.315 . S
O552 Co551 2.053 . S
O552 C564 1.259 . S
O553 Co545 2.047 . S
O553 C564 1.257 . S
O554 Co551 2.094 . S
O554 C565 1.253 . S
O555 Co546 2.063 . S
O555 C565 1.268 . S
O556 Co544 2.115 . S
O556 C566 1.281 . S
O557 Co544 2.315 . S
O557 C566 1.252 . S
O558 Co551 2.122 . S
O558 C567 1.272 . S
O559 Co545 2.113 . S
O559 C567 1.245 . S
C560 O568 1.259 . S
C560 O569 1.257 . S
C561 O570 1.268 . S
C561 O571 1.253 . S
C562 O572 1.281 . S
C562 O573 1.252 . S
C563 O574 1.272 . S
C563 O575 1.245 . S
C564 O552 1.259 . S
C564 O553 1.257 . S
C565 O554 1.253 . S
C565 O555 1.268 . S
C566 O556 1.281 . S
C566 O557 1.252 . S
C567 O558 1.272 . S
C567 O559 1.245 . S
O568 Co544 2.053 . S
O568 C560 1.259 . S
O569 Co546 2.047 . S
O569 C560 1.257 . S
O570 Co545 2.063 . S
O570 C561 1.268 . S
O571 Co544 2.094 . S
O571 C561 1.253 . S
O572 Co551 2.115 . S
O572 C562 1.281 . S
O573 Co551 2.315 . S
O573 C562 1.252 . S
O574 Co544 2.122 . S
O574 C563 1.272 . S
O575 Co546 2.113 . S
O575 C563 1.245 . S
Co576 H579 2.400 . S
Co576 O580 2.009 . S
Co576 O588 2.115 . S
Co576 O589 2.315 . S
Co576 O600 2.053 . S
Co576 O603 2.094 . S
Co576 O606 2.122 . S
Co577 O580 2.126 . S
Co577 H581 2.388 . S
Co577 O582 2.053 . S
Co577 O585 2.047 . S
Co577 O591 2.113 . S
Co577 O602 2.063 . S
Co578 H579 2.388 . S
Co578 O580 2.053 . S
Co578 O582 2.126 . S
Co578 O587 2.063 . S
Co578 O601 2.047 . S
Co578 O607 2.113 . S
H579 Co576 2.400 . S
H579 Co578 2.388 . S
H579 O580 0.760 . S
O580 Co576 2.009 . S
O580 Co577 2.126 . S
O580 Co578 2.053 . S
O580 H579 0.760 . S
H581 Co577 2.388 . S
H581 O582 0.760 . S
H581 Co583 2.400 . S
O582 Co577 2.053 . S
O582 Co578 2.126 . S
O582 H581 0.760 . S
O582 Co583 2.009 . S
Co583 H581 2.400 . S
Co583 O582 2.009 . S
Co583 O584 2.053 . S
Co583 O586 2.094 . S
Co583 O590 2.122 . S
Co583 O604 2.115 1_556 S
Co583 O605 2.315 1_556 S
O584 Co583 2.053 . S
O584 C596 1.259 . S
O585 Co577 2.047 . S
O585 C596 1.257 . S
O586 Co583 2.094 . S
O586 C597 1.253 . S
O587 Co578 2.063 . S
O587 C597 1.268 . S
O588 Co576 2.115 . S
O588 C598 1.281 . S
O589 Co576 2.315 . S
O589 C598 1.252 . S
O590 Co583 2.122 . S
O590 C599 1.272 . S
O591 Co577 2.113 . S
O591 C599 1.245 . S
C592 O600 1.259 . S
C592 O601 1.257 . S
C593 O602 1.268 . S
C593 O603 1.253 . S
C594 O604 1.281 . S
C594 O605 1.252 . S
C595 O606 1.272 . S
C595 O607 1.245 . S
C596 O584 1.259 . S
C596 O585 1.257 . S
C597 O586 1.253 . S
C597 O587 1.268 . S
C598 O588 1.281 . S
C598 O589 1.252 . S
C599 O590 1.272 . S
C599 O591 1.245 . S
O600 Co576 2.053 . S
O600 C592 1.259 . S
O601 Co578 2.047 . S
O601 C592 1.257 . S
O602 Co577 2.063 . S
O602 C593 1.268 . S
O603 Co576 2.094 . S
O603 C593 1.253 . S
O604 Co583 2.115 1_554 S
O604 C594 1.281 . S
O605 Co583 2.315 1_554 S
O605 C594 1.252 . S
O606 Co576 2.122 . S
O606 C595 1.272 . S
O607 Co578 2.113 . S
O607 C595 1.245 . S
Co608 H611 2.400 . S
Co608 O612 2.009 . S
Co608 O620 2.115 . S
Co608 O621 2.315 . S
Co608 O632 2.053 . S
Co608 O635 2.094 . S
Co608 O638 2.122 . S
Co609 O612 2.126 . S
Co609 H613 2.388 . S
Co609 O614 2.053 . S
Co609 O617 2.047 . S
Co609 O623 2.113 . S
Co609 O634 2.063 . S
Co610 H611 2.388 . S
Co610 O612 2.053 . S
Co610 O614 2.126 . S
Co610 O619 2.063 . S
Co610 O633 2.047 . S
Co610 O639 2.113 . S
H611 Co608 2.400 . S
H611 Co610 2.388 . S
H611 O612 0.760 . S
O612 Co608 2.009 . S
O612 Co609 2.126 . S
O612 Co610 2.053 . S
O612 H611 0.760 . S
H613 Co609 2.388 . S
H613 O614 0.760 . S
H613 Co615 2.400 . S
O614 Co609 2.053 . S
O614 Co610 2.126 . S
O614 H613 0.760 . S
O614 Co615 2.009 . S
Co615 H613 2.400 . S
Co615 O614 2.009 . S
Co615 O616 2.053 . S
Co615 O618 2.094 . S
Co615 O622 2.122 . S
Co615 O636 2.115 . S
Co615 O637 2.315 . S
O616 Co615 2.053 . S
O616 C628 1.259 . S
O617 Co609 2.047 . S
O617 C628 1.257 . S
O618 Co615 2.094 . S
O618 C629 1.253 . S
O619 Co610 2.063 . S
O619 C629 1.268 . S
O620 Co608 2.115 . S
O620 C630 1.281 . S
O621 Co608 2.315 . S
O621 C630 1.252 . S
O622 Co615 2.122 . S
O622 C631 1.272 . S
O623 Co609 2.113 . S
O623 C631 1.245 . S
C624 O632 1.259 . S
C624 O633 1.257 . S
C625 O634 1.268 . S
C625 O635 1.253 . S
C626 O636 1.281 . S
C626 O637 1.252 . S
C627 O638 1.272 . S
C627 O639 1.245 . S
C628 O616 1.259 . S
C628 O617 1.257 . S
C629 O618 1.253 . S
C629 O619 1.268 . S
C630 O620 1.281 . S
C630 O621 1.252 . S
C631 O622 1.272 . S
C631 O623 1.245 . S
O632 Co608 2.053 . S
O632 C624 1.259 . S
O633 Co610 2.047 . S
O633 C624 1.257 . S
O634 Co609 2.063 . S
O634 C625 1.268 . S
O635 Co608 2.094 . S
O635 C625 1.253 . S
O636 Co615 2.115 . S
O636 C626 1.281 . S
O637 Co615 2.315 . S
O637 C626 1.252 . S
O638 Co608 2.122 . S
O638 C627 1.272 . S
O639 Co610 2.113 . S
O639 C627 1.245 . S
Co640 H643 2.400 . S
Co640 O644 2.009 . S
Co640 O652 2.115 1_655 S
Co640 O653 2.315 1_655 S
Co640 O664 2.053 . S
Co640 O667 2.094 . S
Co640 O670 2.122 . S
Co641 O644 2.126 . S
Co641 H645 2.388 . S
Co641 O646 2.053 . S
Co641 O649 2.047 . S
Co641 O655 2.113 . S
Co641 O666 2.063 . S
Co642 H643 2.388 . S
Co642 O644 2.053 . S
Co642 O646 2.126 . S
Co642 O651 2.063 . S
Co642 O665 2.047 . S
Co642 O671 2.113 . S
H643 Co640 2.400 . S
H643 Co642 2.388 . S
H643 O644 0.760 . S
O644 Co640 2.009 . S
O644 Co641 2.126 . S
O644 Co642 2.053 . S
O644 H643 0.760 . S
H645 Co641 2.388 . S
H645 O646 0.760 . S
H645 Co647 2.400 . S
O646 Co641 2.053 . S
O646 Co642 2.126 . S
O646 H645 0.760 . S
O646 Co647 2.009 . S
Co647 H645 2.400 . S
Co647 O646 2.009 . S
Co647 O648 2.053 . S
Co647 O650 2.094 . S
Co647 O654 2.122 . S
Co647 O668 2.115 . S
Co647 O669 2.315 . S
O648 Co647 2.053 . S
O648 C660 1.259 . S
O649 Co641 2.047 . S
O649 C660 1.257 . S
O650 Co647 2.094 . S
O650 C661 1.253 . S
O651 Co642 2.063 . S
O651 C661 1.268 . S
O652 Co640 2.115 1_455 S
O652 C662 1.281 . S
O653 Co640 2.315 1_455 S
O653 C662 1.252 . S
O654 Co647 2.122 . S
O654 C663 1.272 . S
O655 Co641 2.113 . S
O655 C663 1.245 . S
C656 O664 1.259 . S
C656 O665 1.257 . S
C657 O666 1.268 . S
C657 O667 1.253 . S
C658 O668 1.281 . S
C658 O669 1.252 . S
C659 O670 1.272 . S
C659 O671 1.245 . S
C660 O648 1.259 . S
C660 O649 1.257 . S
C661 O650 1.253 . S
C661 O651 1.268 . S
C662 O652 1.281 . S
C662 O653 1.252 . S
C663 O654 1.272 . S
C663 O655 1.245 . S
O664 Co640 2.053 . S
O664 C656 1.259 . S
O665 Co642 2.047 . S
O665 C656 1.257 . S
O666 Co641 2.063 . S
O666 C657 1.268 . S
O667 Co640 2.094 . S
O667 C657 1.253 . S
O668 Co647 2.115 . S
O668 C658 1.281 . S
O669 Co647 2.315 . S
O669 C658 1.252 . S
O670 Co640 2.122 . S
O670 C659 1.272 . S
O671 Co642 2.113 . S
O671 C659 1.245 . S
Co672 H675 2.400 . S
Co672 O676 2.009 . S
Co672 O684 2.115 . S
Co672 O685 2.315 . S
Co672 O696 2.053 . S
Co672 O699 2.094 . S
Co672 O702 2.122 . S
Co673 O676 2.126 . S
Co673 H677 2.388 . S
Co673 O678 2.053 . S
Co673 O681 2.047 . S
Co673 O687 2.113 . S
Co673 O698 2.063 . S
Co674 H675 2.388 . S
Co674 O676 2.053 . S
Co674 O678 2.126 . S
Co674 O683 2.063 . S
Co674 O697 2.047 . S
Co674 O703 2.113 . S
H675 Co672 2.400 . S
H675 Co674 2.388 . S
H675 O676 0.760 . S
O676 Co672 2.009 . S
O676 Co673 2.126 . S
O676 Co674 2.053 . S
O676 H675 0.760 . S
H677 Co673 2.388 . S
H677 O678 0.760 . S
H677 Co679 2.400 . S
O678 Co673 2.053 . S
O678 Co674 2.126 . S
O678 H677 0.760 . S
O678 Co679 2.009 . S
Co679 H677 2.400 . S
Co679 O678 2.009 . S
Co679 O680 2.053 . S
Co679 O682 2.094 . S
Co679 O686 2.122 . S
Co679 O700 2.115 . S
Co679 O701 2.315 . S
O680 Co679 2.053 . S
O680 C692 1.259 . S
O681 Co673 2.047 . S
O681 C692 1.257 . S
O682 Co679 2.094 . S
O682 C693 1.253 . S
O683 Co674 2.063 . S
O683 C693 1.268 . S
O684 Co672 2.115 . S
O684 C694 1.281 . S
O685 Co672 2.315 . S
O685 C694 1.252 . S
O686 Co679 2.122 . S
O686 C695 1.272 . S
O687 Co673 2.113 . S
O687 C695 1.245 . S
C688 O696 1.259 . S
C688 O697 1.257 . S
C689 O698 1.268 . S
C689 O699 1.253 . S
C690 O700 1.281 . S
C690 O701 1.252 . S
C691 O702 1.272 . S
C691 O703 1.245 . S
C692 O680 1.259 . S
C692 O681 1.257 . S
C693 O682 1.253 . S
C693 O683 1.268 . S
C694 O684 1.281 . S
C694 O685 1.252 . S
C695 O686 1.272 . S
C695 O687 1.245 . S
O696 Co672 2.053 . S
O696 C688 1.259 . S
O697 Co674 2.047 . S
O697 C688 1.257 . S
O698 Co673 2.063 . S
O698 C689 1.268 . S
O699 Co672 2.094 . S
O699 C689 1.253 . S
O700 Co679 2.115 . S
O700 C690 1.281 . S
O701 Co679 2.315 . S
O701 C690 1.252 . S
O702 Co672 2.122 . S
O702 C691 1.272 . S
O703 Co674 2.113 . S
O703 C691 1.245 . S
Co704 H707 2.400 . S
Co704 O708 2.009 . S
Co704 O716 2.115 . S
Co704 O717 2.315 . S
Co704 O728 2.053 . S
Co704 O731 2.094 . S
Co704 O734 2.122 . S
Co705 O708 2.126 . S
Co705 H709 2.388 . S
Co705 O710 2.053 . S
Co705 O713 2.047 . S
Co705 O719 2.113 . S
Co705 O730 2.063 . S
Co706 H707 2.388 . S
Co706 O708 2.053 . S
Co706 O710 2.126 . S
Co706 O715 2.063 . S
Co706 O729 2.047 . S
Co706 O735 2.113 . S
H707 Co704 2.400 . S
H707 Co706 2.388 . S
H707 O708 0.760 . S
O708 Co704 2.009 . S
O708 Co705 2.126 . S
O708 Co706 2.053 . S
O708 H707 0.760 . S
H709 Co705 2.388 . S
H709 O710 0.760 . S
H709 Co711 2.400 . S
O710 Co705 2.053 . S
O710 Co706 2.126 . S
O710 H709 0.760 . S
O710 Co711 2.009 . S
Co711 H709 2.400 . S
Co711 O710 2.009 . S
Co711 O712 2.053 . S
Co711 O714 2.094 . S
Co711 O718 2.122 . S
Co711 O732 2.115 . S
Co711 O733 2.315 . S
O712 Co711 2.053 . S
O712 C724 1.259 . S
O713 Co705 2.047 . S
O713 C724 1.257 . S
O714 Co711 2.094 . S
O714 C725 1.253 . S
O715 Co706 2.063 . S
O715 C725 1.268 . S
O716 Co704 2.115 . S
O716 C726 1.281 . S
O717 Co704 2.315 . S
O717 C726 1.252 . S
O718 Co711 2.122 . S
O718 C727 1.272 . S
O719 Co705 2.113 . S
O719 C727 1.245 . S
C720 O728 1.259 . S
C720 O729 1.257 . S
C721 O730 1.268 . S
C721 O731 1.253 . S
C722 O732 1.281 . S
C722 O733 1.252 . S
C723 O734 1.272 . S
C723 O735 1.245 . S
C724 O712 1.259 . S
C724 O713 1.257 . S
C725 O714 1.253 . S
C725 O715 1.268 . S
C726 O716 1.281 . S
C726 O717 1.252 . S
C727 O718 1.272 . S
C727 O719 1.245 . S
O728 Co704 2.053 . S
O728 C720 1.259 . S
O729 Co706 2.047 . S
O729 C720 1.257 . S
O730 Co705 2.063 . S
O730 C721 1.268 . S
O731 Co704 2.094 . S
O731 C721 1.253 . S
O732 Co711 2.115 . S
O732 C722 1.281 . S
O733 Co711 2.315 . S
O733 C722 1.252 . S
O734 Co704 2.122 . S
O734 C723 1.272 . S
O735 Co706 2.113 . S
O735 C723 1.245 . S
Co736 H739 2.400 . S
Co736 O740 2.009 . S
Co736 O748 2.115 1_655 S
Co736 O749 2.315 1_655 S
Co736 O760 2.053 . S
Co736 O763 2.094 . S
Co736 O766 2.122 . S
Co737 O740 2.126 . S
Co737 H741 2.388 . S
Co737 O742 2.053 . S
Co737 O745 2.047 . S
Co737 O751 2.113 . S
Co737 O762 2.063 . S
Co738 H739 2.388 . S
Co738 O740 2.053 . S
Co738 O742 2.126 . S
Co738 O747 2.063 . S
Co738 O761 2.047 . S
Co738 O767 2.113 . S
H739 Co736 2.400 . S
H739 Co738 2.388 . S
H739 O740 0.760 . S
O740 Co736 2.009 . S
O740 Co737 2.126 . S
O740 Co738 2.053 . S
O740 H739 0.760 . S
H741 Co737 2.388 . S
H741 O742 0.760 . S
H741 Co743 2.400 . S
O742 Co737 2.053 . S
O742 Co738 2.126 . S
O742 H741 0.760 . S
O742 Co743 2.009 . S
Co743 H741 2.400 . S
Co743 O742 2.009 . S
Co743 O744 2.053 . S
Co743 O746 2.094 . S
Co743 O750 2.122 . S
Co743 O764 2.115 . S
Co743 O765 2.315 . S
O744 Co743 2.053 . S
O744 C756 1.259 . S
O745 Co737 2.047 . S
O745 C756 1.257 . S
O746 Co743 2.094 . S
O746 C757 1.253 . S
O747 Co738 2.063 . S
O747 C757 1.268 . S
O748 Co736 2.115 1_455 S
O748 C758 1.281 . S
O749 Co736 2.315 1_455 S
O749 C758 1.252 . S
O750 Co743 2.122 . S
O750 C759 1.272 . S
O751 Co737 2.113 . S
O751 C759 1.245 . S
C752 O760 1.259 . S
C752 O761 1.257 . S
C753 O762 1.268 . S
C753 O763 1.253 . S
C754 O764 1.281 . S
C754 O765 1.252 . S
C755 O766 1.272 . S
C755 O767 1.245 . S
C756 O744 1.259 . S
C756 O745 1.257 . S
C757 O746 1.253 . S
C757 O747 1.268 . S
C758 O748 1.281 . S
C758 O749 1.252 . S
C759 O750 1.272 . S
C759 O751 1.245 . S
O760 Co736 2.053 . S
O760 C752 1.259 . S
O761 Co738 2.047 . S
O761 C752 1.257 . S
O762 Co737 2.063 . S
O762 C753 1.268 . S
O763 Co736 2.094 . S
O763 C753 1.253 . S
O764 Co743 2.115 . S
O764 C754 1.281 . S
O765 Co743 2.315 . S
O765 C754 1.252 . S
O766 Co736 2.122 . S
O766 C755 1.272 . S
O767 Co738 2.113 . S
O767 C755 1.245 . S
C21 C274 1.407 . S
C49 C310 3.051 1_565 S
C342 C85 1.858 . S
C370 C117 1.759 . S
C149 C374 1.752 . S
C181 C278 1.839 1_565 S
C209 C306 2.290 . S
C338 C245 1.808 1_455 S
C402 C277 1.817 . S
C305 C534 3.193 1_455 S
C337 C470 3.145 . S
C502 C373 1.945 . S
C369 C630 3.233 . S
C566 C273 2.876 . S
C309 C598 1.608 . S
C434 C341 1.972 1_554 S
C405 C18 1.783 . S
C241 C562 2.504 . S
C594 C145 2.709 . S
C438 C177 3.389 . S
C242 C437 1.721 1_545 S
C82 C465 2.710 . S
C466 C17 2.533 . S
C406 C81 3.556 1_554 S
C501 C658 1.431 . S
C401 C694 3.053 . S
C726 C533 1.871 . S
C469 C758 1.702 . S
C754 C565 1.773 . S
C662 C597 1.817 . S
C433 C690 2.310 . S
C722 C629 1.782 . S
C50 C661 1.760 . S
C689 C86 3.092 . S
C118 C721 2.964 . S
C22 C753 3.366 1_455 S
C757 C246 1.815 . S
C657 C150 3.063 1_655 S
C693 C182 1.711 . S
C725 C210 2.020 . S
C53 C498 1.705 . S
C146 C625 2.522 . S
C561 C178 2.738 1_545 S
C214 C593 3.462 . S
C213 C626 1.803 . S
C113 C530 2.736 . S
C497 C114 2.523 1_565 S
C529 C54 3.481 . S
C16 C311 2.419 . S
C343 C55 2.890 1_455 S
C368 C80 2.150 1_554 S
C272 C112 2.050 . S
C336 C144 2.143 1_556 S
C375 C176 2.398 . S
C279 C215 2.719 . S
C240 C304 2.046 1_655 S
C151 C400 2.359 . S
C247 C503 2.898 1_545 S
C535 C183 2.805 1_545 S
C432 C119 2.525 1_565 S
C208 C471 2.453 . S
C23 C631 2.881 . S
C599 C87 2.679 . S
C695 C496 2.344 1_554 S
C727 C407 2.697 . S
C528 C759 2.454 . S
C656 C464 2.056 1_655 S
C720 C560 2.139 . S
C752 C592 2.089 1_655 S
C439 C663 2.911 1_554 S
C688 C624 2.129 . S
C48 C567 2.431 1_565 S
C148 C20 1.705 . S
C180 C51 2.256 . S
C211 C84 2.115 . S
C244 C116 1.681 1_556 S
C308 C276 1.820 . S
C340 C307 2.303 1_565 S
C339 C371 2.842 1_556 S
C275 C372 2.310 1_545 S
C404 C115 2.298 . S
C243 C595 2.818 1_655 S
C436 C147 2.198 1_655 S
C179 C627 2.747 . S
C52 C467 2.345 1_655 S
C19 C531 2.580 1_455 S
C83 C499 2.660 . S
C564 C500 1.774 1_545 S
C403 C596 2.076 1_554 S
C435 C532 2.294 1_565 S
C468 C628 1.605 . S
C692 C660 1.863 1_554 S
C724 C691 2.263 . S
C756 C723 2.360 . S
C755 C659 2.806 . S
C212 C563 2.144 . S
