# Generated by pormake.
# Topology wiu, (6)-cn, num edge types: 1
# Building blocks:
#     Node 0, Type 0, BuildingBlock: BETDAH_clean_sbu_0, # of connection points: 6
#     Node 1, Type 0, BuildingBlock: BETDAH_clean_sbu_0, # of connection points: 6
#     Node 2, Type 0, BuildingBlock: BETDAH_clean_sbu_0, # of connection points: 6
#     Node 3, Type 0, BuildingBlock: BETDAH_clean_sbu_0, # of connection points: 6
#     Node 4, Type 0, BuildingBlock: BETDAH_clean_sbu_0, # of connection points: 6
#     Node 5, Type 0, BuildingBlock: BETDAH_clean_sbu_0, # of connection points: 6
#     Node 6, Type 0, BuildingBlock: BETDAH_clean_sbu_0, # of connection points: 6
#     Node 7, Type 0, BuildingBlock: BETDAH_clean_sbu_0, # of connection points: 6
#     Node 8, Type 0, BuildingBlock: BETDAH_clean_sbu_0, # of connection points: 6
#     Node 9, Type 0, BuildingBlock: BETDAH_clean_sbu_0, # of connection points: 6
#     Node 10, Type 0, BuildingBlock: BETDAH_clean_sbu_0, # of connection points: 6
#     Node 11, Type 0, BuildingBlock: BETDAH_clean_sbu_0, # of connection points: 6
#     Node 12, Type 0, BuildingBlock: BETDAH_clean_sbu_0, # of connection points: 6
#     Node 13, Type 0, BuildingBlock: BETDAH_clean_sbu_0, # of connection points: 6
#     Node 14, Type 0, BuildingBlock: BETDAH_clean_sbu_0, # of connection points: 6
#     Node 15, Type 0, BuildingBlock: BETDAH_clean_sbu_0, # of connection points: 6
#     Edge 16, Type (0, 0), BuildingBlock: CIFDUS_clean_linker_0, # of connection points: 2
#     Edge 17, Type (0, 0), BuildingBlock: CIFDUS_clean_linker_0, # of connection points: 2
#     Edge 18, Type (0, 0), BuildingBlock: CIFDUS_clean_linker_0, # of connection points: 2
#     Edge 19, Type (0, 0), BuildingBlock: CIFDUS_clean_linker_0, # of connection points: 2
#     Edge 20, Type (0, 0), BuildingBlock: CIFDUS_clean_linker_0, # of connection points: 2
#     Edge 21, Type (0, 0), BuildingBlock: CIFDUS_clean_linker_0, # of connection points: 2
#     Edge 22, Type (0, 0), BuildingBlock: CIFDUS_clean_linker_0, # of connection points: 2
#     Edge 23, Type (0, 0), BuildingBlock: CIFDUS_clean_linker_0, # of connection points: 2
#     Edge 24, Type (0, 0), BuildingBlock: CIFDUS_clean_linker_0, # of connection points: 2
#     Edge 25, Type (0, 0), BuildingBlock: CIFDUS_clean_linker_0, # of connection points: 2
#     Edge 26, Type (0, 0), BuildingBlock: CIFDUS_clean_linker_0, # of connection points: 2
#     Edge 27, Type (0, 0), BuildingBlock: CIFDUS_clean_linker_0, # of connection points: 2
#     Edge 28, Type (0, 0), BuildingBlock: CIFDUS_clean_linker_0, # of connection points: 2
#     Edge 29, Type (0, 0), BuildingBlock: CIFDUS_clean_linker_0, # of connection points: 2
#     Edge 30, Type (0, 0), BuildingBlock: CIFDUS_clean_linker_0, # of connection points: 2
#     Edge 31, Type (0, 0), BuildingBlock: CIFDUS_clean_linker_0, # of connection points: 2
#     Edge 32, Type (0, 0), BuildingBlock: CIFDUS_clean_linker_0, # of connection points: 2
#     Edge 33, Type (0, 0), BuildingBlock: CIFDUS_clean_linker_0, # of connection points: 2
#     Edge 34, Type (0, 0), BuildingBlock: CIFDUS_clean_linker_0, # of connection points: 2
#     Edge 35, Type (0, 0), BuildingBlock: CIFDUS_clean_linker_0, # of connection points: 2
#     Edge 36, Type (0, 0), BuildingBlock: CIFDUS_clean_linker_0, # of connection points: 2
#     Edge 37, Type (0, 0), BuildingBlock: CIFDUS_clean_linker_0, # of connection points: 2
#     Edge 38, Type (0, 0), BuildingBlock: CIFDUS_clean_linker_0, # of connection points: 2
#     Edge 39, Type (0, 0), BuildingBlock: CIFDUS_clean_linker_0, # of connection points: 2
#     Edge 40, Type (0, 0), BuildingBlock: CIFDUS_clean_linker_0, # of connection points: 2
#     Edge 41, Type (0, 0), BuildingBlock: CIFDUS_clean_linker_0, # of connection points: 2
#     Edge 42, Type (0, 0), BuildingBlock: CIFDUS_clean_linker_0, # of connection points: 2
#     Edge 43, Type (0, 0), BuildingBlock: CIFDUS_clean_linker_0, # of connection points: 2
#     Edge 44, Type (0, 0), BuildingBlock: CIFDUS_clean_linker_0, # of connection points: 2
#     Edge 45, Type (0, 0), BuildingBlock: CIFDUS_clean_linker_0, # of connection points: 2
#     Edge 46, Type (0, 0), BuildingBlock: CIFDUS_clean_linker_0, # of connection points: 2
#     Edge 47, Type (0, 0), BuildingBlock: CIFDUS_clean_linker_0, # of connection points: 2
#     Edge 48, Type (0, 0), BuildingBlock: CIFDUS_clean_linker_0, # of connection points: 2
#     Edge 49, Type (0, 0), BuildingBlock: CIFDUS_clean_linker_0, # of connection points: 2
#     Edge 50, Type (0, 0), BuildingBlock: CIFDUS_clean_linker_0, # of connection points: 2
#     Edge 51, Type (0, 0), BuildingBlock: CIFDUS_clean_linker_0, # of connection points: 2
#     Edge 52, Type (0, 0), BuildingBlock: CIFDUS_clean_linker_0, # of connection points: 2
#     Edge 53, Type (0, 0), BuildingBlock: CIFDUS_clean_linker_0, # of connection points: 2
#     Edge 54, Type (0, 0), BuildingBlock: CIFDUS_clean_linker_0, # of connection points: 2
#     Edge 55, Type (0, 0), BuildingBlock: CIFDUS_clean_linker_0, # of connection points: 2
#     Edge 56, Type (0, 0), BuildingBlock: CIFDUS_clean_linker_0, # of connection points: 2
#     Edge 57, Type (0, 0), BuildingBlock: CIFDUS_clean_linker_0, # of connection points: 2
#     Edge 58, Type (0, 0), BuildingBlock: CIFDUS_clean_linker_0, # of connection points: 2
#     Edge 59, Type (0, 0), BuildingBlock: CIFDUS_clean_linker_0, # of connection points: 2
#     Edge 60, Type (0, 0), BuildingBlock: CIFDUS_clean_linker_0, # of connection points: 2
#     Edge 61, Type (0, 0), BuildingBlock: CIFDUS_clean_linker_0, # of connection points: 2
#     Edge 62, Type (0, 0), BuildingBlock: CIFDUS_clean_linker_0, # of connection points: 2
#     Edge 63, Type (0, 0), BuildingBlock: CIFDUS_clean_linker_0, # of connection points: 2
# Relax obj value: 0.622
# Max RMSD: 0.331
# Mean RMSD: 0.331
data_MOF--net-wiu--node1-BETDAH_clean_sbu_0--edge1-CIFDUS_clean_linker_0
_symmetry_space_group_name_H-M    P1
_symmetry_Int_Tables_number       1
_symmetry_cell_setting            triclinic
loop_
_symmetry_equiv_pos_as_xyz
'x, y, z'
_cell_length_a     33.686727
_cell_length_b     33.606146
_cell_length_c     47.526875
_cell_angle_alpha  90.161401
_cell_angle_beta   89.711493
_cell_angle_gamma 90.01997
loop_
_atom_site_label
_atom_site_type_symbol
_atom_site_fract_x
_atom_site_fract_y
_atom_site_fract_z
_atom_type_partial_charge
Ho0 Ho 0.35546 0.18527 0.32858 0.0
Ho1 Ho 0.39473 0.11776 0.30665 0.0
C2 C 0.38858 0.11512 0.37246 0.0
C3 C 0.31628 0.24211 0.35334 0.0
C4 C 0.30606 0.28315 0.34516 0.0
C5 C 0.28204 0.30639 0.36284 0.0
C6 C 0.26973 0.34427 0.35438 0.0
C7 C 0.28116 0.35971 0.32801 0.0
C8 C 0.30625 0.33671 0.31068 0.0
C9 C 0.31846 0.29871 0.31914 0.0
C10 C 0.43013 0.2061 0.30965 0.0
C11 C 0.33299 0.16381 0.2633 0.0
C12 C 0.43662 0.07288 0.27437 0.0
C13 C 0.42436 0.05033 0.24907 0.0
C14 C 0.43212 0.0658 0.22223 0.0
C15 C 0.41867 0.04607 0.19826 0.0
C16 C 0.39735 1.01019 0.20052 0.0
C17 C 0.38941 0.99469 0.22736 0.0
C18 C 0.40267 1.0146 0.25141 0.0
C19 C 0.32008 0.09889 0.32353 0.0
O20 O 0.36154 0.14346 0.36758 0.0
O21 O 0.41229 0.10439 0.35157 0.0
O22 O 0.29967 0.21414 0.33845 0.0
O23 O 0.35373 0.23488 0.35792 0.0
O24 O 0.39758 0.22497 0.30453 0.0
O25 O 0.42122 0.17464 0.32347 0.0
O26 O 0.35817 0.13385 0.2671 0.0
O27 O 0.32715 0.18926 0.28446 0.0
O28 O 0.42184 0.06073 0.29832 0.0
O29 O 0.43642 0.11175 0.27212 0.0
O30 O 0.34992 0.07461 0.32467 0.0
O31 O 0.33112 0.13034 0.31158 0.0
H32 H 0.2722 0.29495 0.38299 0.0
H33 H 0.2509 0.36139 0.36844 0.0
H34 H 0.31532 0.34749 0.29018 0.0
H35 H 0.33684 0.2811 0.3051 0.0
H36 H 0.44872 0.0932 0.21972 0.0
H37 H 0.42635 0.05822 0.17786 0.0
H38 H 0.37339 0.96693 0.22971 0.0
H39 H 0.39592 1.00191 0.2718 0.0
Ho40 Ho 0.62374 0.59892 0.57688 0.0
Ho41 Ho 0.68438 0.65277 0.55428 0.0
C42 C 0.6906 0.63227 0.62063 0.0
C43 C 0.57182 0.54365 0.58659 0.0
C44 C 0.52902 0.5387 0.5914 0.0
C45 C 0.51468 0.50057 0.59733 0.0
C46 C 0.47421 0.49228 0.59526 0.0
C47 C 0.44715 0.52206 0.58723 0.0
C48 C 0.46145 0.56094 0.58281 0.0
C49 C 0.50211 0.56919 0.58484 0.0
C50 C 0.59644 0.67724 0.57369 0.0
C51 C 0.64828 0.58925 0.50924 0.0
C52 C 0.71387 0.71573 0.53204 0.0
C53 C 0.69503 0.74273 0.51213 0.0
C54 C 0.65896 0.73183 0.49964 0.0
C55 C 0.63808 0.75899 0.48329 0.0
C56 C 0.65372 0.79709 0.47814 0.0
C57 C 0.69014 0.80765 0.49079 0.0
C58 C 0.71031 0.78083 0.50791 0.0
C59 C 0.71553 0.58054 0.56803 0.0
O60 O 0.66666 0.60177 0.61455 0.0
O61 O 0.69582 0.66062 0.60154 0.0
O62 O 0.58104 0.55691 0.5617 0.0
O63 O 0.59353 0.55944 0.60647 0.0
O64 O 0.58744 0.65188 0.59298 0.0
O65 O 0.61835 0.65881 0.55609 0.0
O66 O 0.66776 0.62351 0.51209 0.0
O67 O 0.63117 0.57305 0.53183 0.0
O68 O 0.72167 0.67993 0.52253 0.0
O69 O 0.6968 0.71552 0.55682 0.0
O70 O 0.73592 0.61345 0.56823 0.0
O71 O 0.68189 0.58835 0.55837 0.0
H72 H 0.53507 0.47653 0.60191 0.0
H73 H 0.46455 0.46188 0.59842 0.0
H74 H 0.44141 0.58469 0.57701 0.0
H75 H 0.51277 0.59878 0.57986 0.0
H76 H 0.64624 0.70269 0.50335 0.0
H77 H 0.60999 0.74985 0.47442 0.0
H78 H 0.70405 0.83611 0.48677 0.0
H79 H 0.73791 0.78976 0.51769 0.0
Ho80 Ho 0.19977 0.87122 0.82914 0.0
Ho81 Ho 0.16146 0.93897 0.80769 0.0
C82 C 0.16699 0.94208 0.87337 0.0
C83 C 0.23902 0.81466 0.85369 0.0
C84 C 0.25171 0.77457 0.84482 0.0
C85 C 0.27806 0.75297 0.86158 0.0
C86 C 0.29247 0.71605 0.85248 0.0
C87 C 0.28084 0.70001 0.82637 0.0
C88 C 0.25359 0.72138 0.80992 0.0
C89 C 0.23928 0.75842 0.81902 0.0
C90 C 0.12467 0.85134 0.81116 0.0
C91 C 0.22153 0.89128 0.76349 0.0
C92 C 0.12012 0.98259 0.77485 0.0
C93 C 0.13267 1.00083 0.74801 0.0
C94 C 0.11768 0.98576 0.72268 0.0
C95 C 0.13202 0.99974 0.69701 0.0
C96 C 0.16146 1.02942 0.69604 0.0
C97 C 0.17635 0.04484 0.72133 0.0
C98 C 0.16233 1.03045 0.74711 0.0
C99 C 0.23708 0.95644 0.82299 0.0
O100 O 0.19326 0.91293 0.86842 0.0
O101 O 0.14414 0.95374 0.85248 0.0
O102 O 0.25576 0.84401 0.84027 0.0
O103 O 0.20095 0.82011 0.85692 0.0
O104 O 0.15697 0.83224 0.80524 0.0
O105 O 0.13419 0.88268 0.82502 0.0
O106 O 0.19683 0.92158 0.76763 0.0
O107 O 0.22754 0.86611 0.78465 0.0
O108 O 0.13679 0.99649 0.79764 0.0
O109 O 0.11785 0.94366 0.77465 0.0
O110 O 0.2077 0.98128 0.825 0.0
O111 O 0.22487 0.92516 0.81138 0.0
H112 H 0.28798 0.76494 0.88154 0.0
H113 H 0.31295 0.70012 0.86586 0.0
H114 H 0.24428 0.71006 0.78964 0.0
H115 H 0.21913 0.77482 0.80568 0.0
H116 H 0.09503 0.96285 0.72274 0.0
H117 H 0.11906 0.98815 0.67785 0.0
H118 H 0.1986 0.06812 0.72112 0.0
H119 H 0.17492 0.0424 0.76628 0.0
Ho120 Ho 0.93311 0.45689 1.07526 0.0
Ho121 Ho 0.87354 0.40482 1.05542 0.0
C122 C 0.86783 0.41987 1.12067 0.0
C123 C 0.98542 0.50411 1.09731 0.0
C124 C 1.02584 0.51742 1.08891 0.0
C125 C 0.03206 0.5574 1.08164 0.0
C126 C 0.06964 0.57075 1.07337 0.0
C127 C 0.1023 0.54459 1.07243 0.0
C128 C 0.09601 0.50441 1.07951 0.0
C129 C 0.05822 0.49096 1.08763 0.0
C130 C 0.964 0.38427 1.05853 0.0
C131 C 0.91189 0.46887 1.00911 0.0
C132 C 0.84154 0.34429 1.03106 0.0
C133 C 0.84348 0.30092 1.03448 0.0
C134 C 0.87927 0.28174 1.04125 0.0
C135 C 0.88285 0.24051 1.0379 0.0
C136 C 0.8507 0.21808 1.02766 0.0
C137 C 0.81365 0.23711 1.02442 0.0
C138 C 0.81021 0.27817 1.02766 0.0
C139 C 0.84302 0.47844 1.06648 0.0
O140 O 0.89099 0.45074 1.11399 0.0
O141 O 0.86268 0.39172 1.10162 0.0
O142 O 0.95637 0.51637 1.08151 0.0
O143 O 0.98095 0.46704 1.10483 0.0
O144 O 0.97647 0.41891 1.05066 0.0
O145 O 0.93296 0.38962 1.07355 0.0
O146 O 0.8905 0.43583 1.01314 0.0
O147 O 0.9303 0.48479 1.03111 0.0
O148 O 0.87414 0.3613 1.02217 0.0
O149 O 0.82369 0.36442 1.05095 0.0
O150 O 0.82252 0.44584 1.0684 0.0
O151 O 0.87621 0.46984 1.0562 0.0
H152 H 1.00769 0.57843 1.08228 0.0
H153 H 0.07301 0.60171 1.06757 0.0
H154 H 0.12043 0.48347 1.07934 0.0
H155 H 0.05449 0.45988 1.09299 0.0
H156 H 0.90519 0.29885 1.04716 0.0
H157 H 0.91159 0.2268 1.04099 0.0
H158 H 0.78813 0.22122 1.01639 0.0
H159 H 0.78227 0.29244 1.0227 0.0
Ho160 Ho 0.65787 0.93371 1.03854 0.0
Ho161 Ho 0.70903 0.87387 1.01811 0.0
C162 C 0.72286 0.89576 1.08399 0.0
C163 C 0.59793 0.96668 1.06313 0.0
C164 C 0.5548 0.96807 1.0586 0.0
C165 C 0.53275 0.93342 1.05296 0.0
C166 C 0.49129 0.93413 1.05478 0.0
C167 C 0.47145 0.96945 1.06234 0.0
C168 C 0.49363 1.00492 1.06437 0.0
C169 C 0.53493 1.00412 1.0627 0.0
C170 C 0.73087 0.96451 1.02671 0.0
C171 C 0.67225 0.93935 0.97314 0.0
C172 C 0.75421 0.81953 0.99607 0.0
C173 C 0.76682 0.77931 1.00563 0.0
C174 C 0.80145 0.77482 1.02169 0.0
C175 C 0.81345 0.73728 1.03095 0.0
C176 C 0.79143 0.70297 1.02422 0.0
C177 C 0.75658 0.70739 1.00834 0.0
C178 C 0.74448 0.74509 0.99908 0.0
C179 C 0.63705 0.84358 1.03622 0.0
O180 O 0.68973 0.91707 1.08046 0.0
O181 O 0.73827 0.87729 1.06171 0.0
O182 O 0.61262 0.93235 1.07068 0.0
O183 O 0.6201 0.98524 1.04479 0.0
O184 O 0.69811 0.9846 1.02494 0.0
O185 O 0.72294 0.93111 1.03699 0.0
O186 O 0.70279 0.9157 0.97943 0.0
O187 O 0.64443 0.94472 0.99245 0.0
O188 O 0.76768 0.84982 1.01037 0.0
O189 O 0.71697 0.82412 0.98935 0.0
O190 O 0.67175 0.83172 1.04408 0.0
O191 O 0.642 0.87407 1.02065 0.0
H192 H 0.54753 0.9053 1.04904 0.0
H193 H 0.47506 0.90644 1.05275 0.0
H194 H 0.47966 1.03272 1.07036 0.0
H195 H 0.55142 1.03125 1.06667 0.0
H196 H 0.81945 0.80039 1.02716 0.0
H197 H 0.84015 0.73517 1.04346 0.0
H198 H 0.73916 0.6816 1.00247 0.0
H199 H 0.71773 0.74738 0.98664 0.0
Ho200 Ho 0.36727 0.40704 0.79267 0.0
Ho201 Ho 0.43053 0.45214 0.76932 0.0
C202 C 0.41217 0.47007 0.83565 0.0
C203 C 0.32397 0.36332 0.82459 0.0
C204 C 0.30291 0.37532 0.85064 0.0
C205 C 0.31945 0.36648 0.87691 0.0
C206 C 0.30202 0.38096 0.90155 0.0
C207 C 0.26746 0.40444 0.90056 0.0
C208 C 0.25068 0.4131 0.87433 0.0
C209 C 0.26828 0.3988 0.8496 0.0
C210 C 0.34267 0.48108 0.77743 0.0
C211 C 0.36426 0.41103 0.72686 0.0
C212 C 0.48403 0.49574 0.74474 0.0
C213 C 0.52409 0.51028 0.75292 0.0
C214 C 0.52947 0.55054 0.75994 0.0
C215 C 0.56669 0.56482 0.76814 0.0
C216 C 0.59982 0.53932 0.76929 0.0
C217 C 0.59445 0.49895 0.76224 0.0
C218 C 0.55707 0.48459 0.75416 0.0
C219 C 0.45652 0.37833 0.78727 0.0
O220 O 0.38897 0.43825 0.83322 0.0
O221 O 0.43091 0.48319 0.81279 0.0
O222 O 0.31089 0.37891 0.80126 0.0
O223 O 0.36282 0.36325 0.82585 0.0
O224 O 0.32109 0.44936 0.77543 0.0
O225 O 0.37503 0.47178 0.78864 0.0
O226 O 0.38832 0.44212 0.73105 0.0
O227 O 0.35776 0.38639 0.74796 0.0
O228 O 0.45411 0.51032 0.75889 0.0
O229 O 0.47981 0.45773 0.73996 0.0
O230 O 0.47384 0.412 0.79215 0.0
O231 O 0.42445 0.38554 0.77402 0.0
H232 H 0.34608 0.34856 0.87842 0.0
H233 H 0.31501 0.37265 0.92149 0.0
H234 H 0.22384 0.43071 0.87296 0.0
H235 H 0.25484 0.40646 0.82968 0.0
H236 H 0.50472 0.57109 0.75924 0.0
H237 H 0.56937 0.59593 0.77382 0.0
H238 H 0.61928 0.47851 0.76249 0.0
H239 H 0.55411 0.45338 0.74885 0.0
Ho240 Ho 0.89596 0.12018 0.53917 0.0
Ho241 Ho 0.85435 0.18739 0.51712 0.0
C242 C 0.83479 0.166 0.5835 0.0
C243 C 0.9498 0.08113 0.56575 0.0
C244 C 0.99252 0.07385 0.56164 0.0
C245 C 1.01858 0.10486 0.55447 0.0
C246 C 0.0596 0.09877 0.55455 0.0
C247 C 0.07527 0.0617 0.56246 0.0
C248 C 0.04878 1.02979 0.56703 0.0
C249 C 1.00782 0.03588 0.56663 0.0
C250 C 0.82058 0.10037 0.52474 0.0
C251 C 0.88827 0.11674 0.47285 0.0
C252 C 0.81306 0.24343 0.4936 0.0
C253 C 0.80061 0.2837 0.50249 0.0
C254 C 0.77234 0.3044 0.48675 0.0
C255 C 0.75893 0.34185 0.4956 0.0
C256 C 0.77354 0.35944 0.52044 0.0
C257 C 0.80257 0.33891 0.53587 0.0
C258 C 0.81584 0.3013 0.52704 0.0
C259 C 0.9291 0.20893 0.5345 0.0
O260 O 0.86054 0.13638 0.57954 0.0
O261 O 0.82762 0.19072 0.56216 0.0
O262 O 0.93952 0.11765 0.57214 0.0
O263 O 0.92608 0.06453 0.5475 0.0
O264 O 0.8502 0.07563 0.524 0.0
O265 O 0.83236 0.1325 0.53539 0.0
O266 O 0.86292 0.14697 0.4772 0.0
O267 O 0.90996 0.1041 0.49407 0.0
O268 O 0.79736 0.214 0.50759 0.0
O269 O 0.85097 0.23827 0.48927 0.0
O270 O 0.89655 0.22747 0.54056 0.0
O271 O 0.92 0.1773 0.52081 0.0
H272 H 1.00734 0.13436 0.55048 0.0
H273 H 0.079 0.12388 0.55061 0.0
H274 H 0.05942 1.00085 0.57352 0.0
H275 H 0.98817 1.01145 0.57193 0.0
H276 H 0.76029 0.29141 0.46773 0.0
H277 H 0.73697 0.35704 0.48299 0.0
H278 H 0.81417 0.35137 0.55519 0.0
H279 H 0.83757 0.28571 0.5396 0.0
Ho280 Ho 0.19966 0.65433 0.29137 0.0
Ho281 Ho 0.13512 0.60575 0.27407 0.0
C282 C 0.16506 0.59457 0.33982 0.0
C283 C 0.24196 0.71282 0.31024 0.0
C284 C 0.23879 0.75617 0.3084 0.0
C285 C 0.2035 0.77424 0.29942 0.0
C286 C 0.19789 0.81515 0.30317 0.0
C287 C 0.22799 0.83841 0.31533 0.0
C288 C 0.26497 0.82066 0.32103 0.0
C289 C 0.27016 0.77976 0.31783 0.0
C290 C 0.22565 0.57959 0.27746 0.0
C291 C 0.19616 0.63668 0.22627 0.0
C292 C 0.07943 0.5534 0.26591 0.0
C293 C 0.03726 0.54875 0.27426 0.0
C294 C 1.02725 0.52058 0.29487 0.0
C295 C 0.98787 0.51525 0.30326 0.0
C296 C 0.95725 0.53758 0.29096 0.0
C297 C 0.96724 0.56605 0.27042 0.0
C298 C 1.00686 0.5716 0.26214 0.0
C299 C 0.11148 0.68523 0.277 0.0
O300 O 0.19463 0.61885 0.33245 0.0
O301 O 0.13563 0.58858 0.32153 0.0
O302 O 0.21427 0.6952 0.32493 0.0
O303 O 0.24953 0.69442 0.2867 0.0
O304 O 0.2471 0.6114 0.27499 0.0
O305 O 0.19376 0.58954 0.28905 0.0
O306 O 0.17573 0.60491 0.23476 0.0
O307 O 0.19909 0.6667 0.2442 0.0
O308 O 0.10485 0.55184 0.28632 0.0
O309 O 0.08867 0.58079 0.24765 0.0
O310 O 0.10177 0.65977 0.25797 0.0
O311 O 0.134 0.66699 0.29418 0.0
H312 H 0.17954 0.7563 0.29116 0.0
H313 H 0.16914 0.828 0.29864 0.0
H314 H 0.28863 0.83755 0.33077 0.0
H315 H 0.29779 0.76626 0.32443 0.0
H316 H 0.05001 0.50253 0.30459 0.0
H317 H 0.98145 0.49355 0.31946 0.0
H318 H 0.94438 0.58343 0.26027 0.0
H319 H 1.01356 0.59353 0.24615 0.0
Ho320 Ho 0.85345 0.68158 0.82558 0.0
Ho321 Ho 0.89619 0.61552 0.80362 0.0
C322 C 0.88859 0.61297 0.86985 0.0
C323 C 0.80868 0.73502 0.84911 0.0
C324 C 0.79358 0.77459 0.84048 0.0
C325 C 0.75292 0.77957 0.83522 0.0
C326 C 0.73804 0.8164 0.82665 0.0
C327 C 0.76339 0.8494 0.82339 0.0
C328 C 0.80416 0.84439 0.82868 0.0
C329 C 0.8191 0.80742 0.83709 0.0
C330 C 0.92808 0.7054 0.80856 0.0
C331 C 0.83544 0.66042 0.75917 0.0
C332 C 0.95044 0.57538 0.77777 0.0
C333 C 0.9928 0.56911 0.7829 0.0
C334 C 1.01356 0.5933 0.802 0.0
C335 C 0.05513 0.59389 0.8017 0.0
C336 C 0.07609 0.56878 0.78325 0.0
C337 C 0.05481 0.54126 0.76668 0.0
C338 C 1.0135 0.54178 0.76628 0.0
C339 C 0.82083 0.59446 0.81802 0.0
O340 O 0.86247 0.64228 0.86553 0.0
O341 O 0.91071 0.60065 0.84861 0.0
O342 O 0.79483 0.70451 0.83526 0.0
O343 O 0.84665 0.73177 0.85392 0.0
O344 O 0.89531 0.72427 0.80397 0.0
O345 O 0.91952 0.6731 0.8216 0.0
O346 O 0.86109 0.63079 0.76319 0.0
O347 O 0.82818 0.6854 0.78045 0.0
O348 O 0.94066 0.6118 0.77098 0.0
O349 O 0.9261 0.55951 0.79599 0.0
O350 O 0.85128 0.57103 0.82026 0.0
O351 O 0.83222 0.62634 0.80686 0.0
H352 H 0.73257 0.75482 0.8376 0.0
H353 H 0.7066 0.81888 0.82237 0.0
H354 H 0.82449 0.86921 0.8268 0.0
H355 H 0.85063 0.80468 0.84098 0.0
H356 H 0.99759 0.6135 0.81575 0.0
H357 H 0.07075 0.61551 0.81446 0.0
H358 H 0.07003 0.52195 0.75186 0.0
H359 H 0.99788 0.52264 0.75166 0.0
Ho360 Ho 0.12074 0.10405 1.07939 0.0
Ho361 Ho 0.18624 0.14853 1.0586 0.0
C362 C 0.18906 0.13729 1.1242 0.0
C363 C 0.06511 0.06187 1.10282 0.0
C364 C 1.02442 0.05099 1.09449 0.0
C365 C 1.00713 0.06716 1.07022 0.0
C366 C 0.96965 0.0543 1.06127 0.0
C367 C 0.949 1.02475 1.07631 0.0
C368 C 0.96607 1.00952 1.10105 0.0
C369 C 1.00341 1.0225 1.11001 0.0
C370 C 0.09797 0.17968 1.0626 0.0
C371 C 0.14267 0.08681 1.0133 0.0
C372 C 0.22397 0.20493 1.03362 0.0
C373 C 0.22877 0.24779 1.03877 0.0
C374 C 0.19677 0.27146 1.0479 0.0
C375 C 0.19978 0.31296 1.04731 0.0
C376 C 0.23489 0.33121 1.03774 0.0
C377 C 0.26826 0.30711 1.03202 0.0
C378 C 0.26508 0.26577 1.03234 0.0
C379 C 0.2088 0.07353 1.07214 0.0
O380 O 0.16248 0.10889 1.11835 0.0
O381 O 0.19813 0.16306 1.1043 0.0
O382 O 0.09334 0.04686 1.08724 0.0
O383 O 0.07136 0.09929 1.10868 0.0
O384 O 0.08081 0.14657 1.056 0.0
O385 O 0.12855 0.17035 1.07697 0.0
O386 O 0.17094 0.11402 1.01751 0.0
O387 O 0.11847 0.07769 1.03457 0.0
O388 O 0.1884 0.19324 1.02628 0.0
O389 O 0.24084 0.18118 1.05168 0.0
O390 O 0.23237 0.1041 1.07331 0.0
O391 O 0.17665 0.08415 1.06122 0.0
H392 H 1.02302 0.08903 1.05783 0.0
H393 H 0.95752 0.0664 1.04205 0.0
H394 H 0.9507 0.98716 1.11335 0.0
H395 H 1.01622 1.0097 1.12879 0.0
H396 H 0.16871 0.258 1.05374 0.0
H397 H 0.17368 0.33067 1.052 0.0
H398 H 0.29573 0.31991 1.02432 0.0
H399 H 0.29025 0.24793 1.02571 0.0
Ho400 Ho 0.70073 0.37128 0.32671 0.0
Ho401 Ho 0.66403 0.44009 0.30406 0.0
C402 C 0.66625 0.44255 0.3702 0.0
C403 C 0.73973 0.31502 0.35176 0.0
C404 C 0.75539 0.27644 0.34207 0.0
C405 C 0.78084 0.25455 0.35935 0.0
C406 C 0.79701 0.21856 0.34983 0.0
C407 C 0.78797 0.20382 0.32283 0.0
C408 C 0.76207 0.22578 0.3057 0.0
C409 C 0.74604 0.26183 0.31521 0.0
C410 C 0.62624 0.35227 0.30763 0.0
C411 C 0.72487 0.39163 0.26105 0.0
C412 C 0.62445 0.4849 0.27083 0.0
C413 C 0.63771 0.50392 0.24437 0.0
C414 C 0.62706 0.48707 0.21848 0.0
C415 C 0.64147 0.50299 0.19339 0.0
C416 C 0.66668 0.5364 0.19354 0.0
C417 C 0.6775 0.55329 0.21942 0.0
C418 C 0.6633 0.53712 0.24462 0.0
C419 C 0.73904 0.45554 0.32139 0.0
O420 O 0.69028 0.41116 0.36651 0.0
O421 O 0.64678 0.4567 0.34838 0.0
O422 O 0.75647 0.34624 0.34068 0.0
O423 O 0.70119 0.31828 0.35261 0.0
O424 O 0.65841 0.33242 0.30265 0.0
O425 O 0.63559 0.38402 0.32118 0.0
O426 O 0.70031 0.42215 0.26467 0.0
O427 O 0.72991 0.36646 0.28244 0.0
O428 O 0.64067 0.49811 0.29396 0.0
O429 O 0.62174 0.44599 0.27024 0.0
O430 O 0.7105 0.48141 0.32244 0.0
O431 O 0.72659 0.4248 0.30929 0.0
H432 H 0.7884 0.26541 0.38013 0.0
H433 H 0.81643 0.20214 0.36369 0.0
H434 H 0.75485 0.21551 0.28472 0.0
H435 H 0.72665 0.27853 0.30148 0.0
H436 H 0.60747 0.46152 0.21758 0.0
H437 H 0.6315 0.48999 0.17378 0.0
H438 H 0.69648 0.5793 0.22014 0.0
H439 H 0.67239 0.55072 0.26424 0.0
Ho440 Ho 0.43237 0.94854 0.57711 0.0
Ho441 Ho 0.36256 0.91291 0.55734 0.0
C442 C 0.36334 0.9182 0.62283 0.0
C443 C 0.49225 0.98503 0.59986 0.0
C444 C 0.53348 0.99223 0.59042 0.0
C445 C 0.55405 1.02577 0.60014 0.0
C446 C 0.59228 0.03426 0.5901 0.0
C447 C 0.61075 1.00934 0.57005 0.0
C448 C 0.59015 0.97544 0.56061 0.0
C449 C 0.55186 0.96707 0.5706 0.0
C450 C 0.44829 0.87151 0.56029 0.0
C451 C 0.41106 0.96987 0.51173 0.0
C452 C 0.31267 0.87284 0.52792 0.0
C453 C 0.28957 0.88447 0.50287 0.0
C454 C 0.30788 0.88695 0.47634 0.0
C455 C 0.28637 0.8992 0.45297 0.0
C456 C 0.24595 0.90944 0.45544 0.0
C457 C 0.2278 0.90772 0.4821 0.0
C458 C 0.24937 0.89523 0.50555 0.0
C459 C 0.34895 0.98965 0.57313 0.0
O460 O 0.39164 0.94503 0.6171 0.0
O461 O 0.35142 0.89476 0.60231 0.0
O462 O 0.46488 1.00301 0.5854 0.0
O463 O 0.48264 0.94829 0.60546 0.0
O464 O 0.46796 0.90281 0.55286 0.0
O465 O 0.41785 0.88325 0.57427 0.0
O466 O 0.3802 0.94603 0.5164 0.0
O467 O 0.43695 0.9753 0.53246 0.0
O468 O 0.30294 0.89106 0.55126 0.0
O469 O 0.35123 0.86948 0.5247 0.0
O470 O 0.32333 0.96117 0.57606 0.0
O471 O 0.37895 0.97607 0.5606 0.0
H472 H 0.54038 0.04565 0.61534 0.0
H473 H 0.60747 0.06029 0.59814 0.0
H474 H 0.60326 0.95584 0.545 0.0
H475 H 0.53646 0.94119 0.56256 0.0
H476 H 0.3388 0.87904 0.47346 0.0
H477 H 0.30119 0.89891 0.4327 0.0
H478 H 0.19677 0.9153 0.48476 0.0
H479 H 0.23452 0.89388 0.5258 0.0
Ho480 Ho 0.1552 0.44574 0.54437 0.0
Ho481 Ho 0.19859 0.3796 0.52355 0.0
C482 C 0.2145 0.40045 0.58987 0.0
C483 C 0.11232 0.48955 0.57647 0.0
C484 C 0.12424 0.50437 0.60455 0.0
C485 C 0.11112 0.48421 0.62866 0.0
C486 C 0.12782 0.4924 0.65479 0.0
C487 C 0.15775 0.52131 0.65757 0.0
C488 C 0.16972 0.54291 0.6338 0.0
C489 C 0.15335 0.53431 0.60744 0.0
C490 C 0.23109 0.46635 0.53089 0.0
C491 C 0.16319 0.44732 0.47895 0.0
C492 C 0.23989 0.32234 0.5014 0.0
C493 C 0.24909 0.28147 0.51154 0.0
C494 C 0.27751 0.27515 0.53268 0.0
C495 C 0.28486 0.23686 0.54295 0.0
C496 C 0.26406 0.20377 0.53237 0.0
C497 C 0.23579 0.21003 0.51113 0.0
C498 C 0.22851 0.24837 0.50078 0.0
C499 C 0.12332 0.35698 0.54038 0.0
O500 O 0.18481 0.42574 0.58562 0.0
O501 O 0.2267 0.3785 0.56809 0.0
O502 O 0.13191 0.50393 0.55496 0.0
O503 O 0.10733 0.45095 0.57463 0.0
O504 O 0.20063 0.48914 0.52691 0.0
O505 O 0.21931 0.43485 0.54234 0.0
O506 O 0.19254 0.42148 0.48426 0.0
O507 O 0.13789 0.45598 0.49934 0.0
O508 O 0.25557 0.35193 0.51529 0.0
O509 O 0.20305 0.32948 0.49472 0.0
O510 O 0.15596 0.33872 0.54633 0.0
O511 O 0.13232 0.38834 0.52661 0.0
H512 H 0.0888 0.46108 0.62719 0.0
H513 H 0.11695 0.47626 0.67297 0.0
H514 H 0.19214 0.56588 0.63553 0.0
H515 H 0.16434 0.55036 0.58928 0.0
H516 H 0.29394 0.29983 0.54157 0.0
H517 H 0.30656 0.23327 0.55948 0.0
H518 H 0.21965 0.1852 0.50218 0.0
H519 H 0.20656 0.25212 0.48442 0.0
Ho520 Ho 0.86864 0.91002 0.28729 0.0
Ho521 Ho 0.9351 0.95026 0.26825 0.0
C522 C 0.91097 0.9696 0.33358 0.0
C523 C 0.81596 0.86799 0.31279 0.0
C524 C 0.78199 0.88169 0.32999 0.0
C525 C 0.78745 0.89511 0.35768 0.0
C526 C 0.75522 0.90869 0.37349 0.0
C527 C 0.71674 0.9092 0.36199 0.0
C528 C 0.71175 0.89795 0.33375 0.0
C529 C 0.74396 0.884 0.31801 0.0
C530 C 0.84868 0.98571 0.27199 0.0
C531 C 0.86948 0.91733 0.2217 0.0
C532 C 0.99408 0.98895 0.24597 0.0
C533 C 0.03565 0.99481 0.2546 0.0
C534 C 0.05469 1.03089 0.24866 0.0
C535 C 0.09294 0.03828 0.25872 0.0
C536 C 0.11287 1.00969 0.27502 0.0
C537 C 0.09396 0.97318 0.28045 0.0
C538 C 0.05566 0.96585 0.27041 0.0
C539 C 0.95599 0.87447 0.28588 0.0
O540 O 0.88666 0.93889 0.32973 0.0
O541 O 0.9326 0.98166 0.3117 0.0
O542 O 0.81382 0.87709 0.28625 0.0
O543 O 0.85162 0.87342 0.32292 0.0
O544 O 0.82602 0.95507 0.26906 0.0
O545 O 0.87951 0.97477 0.28439 0.0
O546 O 0.89692 0.94491 0.22741 0.0
O547 O 0.85847 0.89332 0.24208 0.0
O548 O 0.96762 1.0053 0.26235 0.0
O549 O 0.9839 0.95309 0.23838 0.0
O550 O 0.97271 0.90731 0.2937 0.0
O551 O 0.92585 0.88392 0.27116 0.0
H552 H 0.81644 0.89434 0.36742 0.0
H553 H 0.7602 0.91624 0.39536 0.0
H554 H 0.68257 0.898 0.32429 0.0
H555 H 0.73895 0.87447 0.29652 0.0
H556 H 0.03971 0.05365 0.23658 0.0
H557 H 0.10692 0.06644 0.25373 0.0
H558 H 0.10834 0.95066 0.29308 0.0
H559 H 0.04149 0.93783 0.27543 0.0
Ho560 Ho 0.40038 0.61887 1.04035 0.0
Ho561 Ho 0.35908 0.68521 1.01998 0.0
C562 C 0.33937 0.66282 1.08572 0.0
C563 C 0.4554 0.58015 1.06574 0.0
C564 C 0.4981 0.57471 1.06059 0.0
C565 C 0.52206 0.60626 1.05108 0.0
C566 C 0.56341 0.60251 1.05098 0.0
C567 C 0.58126 0.5671 1.06024 0.0
C568 C 0.55678 0.5343 1.06671 0.0
C569 C 0.51559 0.53819 1.06703 0.0
C570 C 0.32533 0.59755 1.0261 0.0
C571 C 0.39154 0.61649 0.97449 0.0
C572 C 0.31968 0.7434 0.99768 0.0
C573 C 0.31308 0.78508 1.00655 0.0
C574 C 0.27693 0.80378 1.00058 0.0
C575 C 0.26939 0.84247 1.01023 0.0
C576 C 0.29786 0.86327 1.02617 0.0
C577 C 0.33433 0.84458 1.03179 0.0
C578 C 0.34181 0.80587 1.02214 0.0
C579 C 0.43487 0.70617 1.03696 0.0
O580 O 0.365 0.63325 1.08122 0.0
O581 O 0.33244 0.68815 1.06481 0.0
O582 O 0.44428 0.61607 1.07305 0.0
O583 O 0.43156 0.56351 1.04759 0.0
O584 O 0.35588 0.57414 1.02389 0.0
O585 O 0.33618 0.62968 1.03735 0.0
O586 O 0.36522 0.64549 0.97967 0.0
O587 O 0.41448 0.60442 0.99514 0.0
O588 O 0.30341 0.71634 1.0136 0.0
O589 O 0.35579 0.73389 0.99028 0.0
O590 O 0.4022 0.72358 1.04422 0.0
O591 O 0.42479 0.67586 1.02236 0.0
H592 H 0.50898 0.63452 1.04532 0.0
H593 H 0.5814 0.62821 1.04577 0.0
H594 H 0.56931 0.50667 1.07427 0.0
H595 H 0.49752 0.51338 1.074 0.0
H596 H 0.25434 0.78831 0.98864 0.0
H597 H 0.24126 0.85615 1.00509 0.0
H598 H 0.35678 0.85952 1.04417 0.0
H599 H 0.36991 0.79207 1.02717 0.0
Ho600 Ho 0.69105 0.14526 0.79037 0.0
Ho601 Ho 0.62307 0.10768 0.76948 0.0
C602 C 0.64402 0.08472 0.83457 0.0
C603 C 0.73603 0.18479 0.82354 0.0
C604 C 0.75325 0.17048 0.85027 0.0
C605 C 0.73353 0.17824 0.87578 0.0
C606 C 0.74653 0.16095 0.9007 0.0
C607 C 0.77984 0.13572 0.90086 0.0
C608 C 0.79996 0.12824 0.87545 0.0
C609 C 0.78673 0.14533 0.85038 0.0
C610 C 0.70806 0.06971 0.77392 0.0
C611 C 0.69277 0.14049 0.72471 0.0
C612 C 0.56489 0.0701 0.74557 0.0
C613 C 0.52335 0.06293 0.75431 0.0
C614 C 0.50412 1.02774 0.74624 0.0
C615 C 0.46573 1.01932 0.75603 0.0
C616 C 0.44582 0.04595 0.77419 0.0
C617 C 0.46508 0.08146 0.78192 0.0
C618 C 0.50343 0.08981 0.77214 0.0
C619 C 0.60396 0.18296 0.78838 0.0
O620 O 0.67425 0.10943 0.83034 0.0
O621 O 0.61851 0.07921 0.81361 0.0
O622 O 0.74935 0.16787 0.80054 0.0
O623 O 0.69735 0.18906 0.82344 0.0
O624 O 0.73215 0.09953 0.77088 0.0
O625 O 0.67716 0.08166 0.78623 0.0
O626 O 0.66446 0.11344 0.72997 0.0
O627 O 0.70431 0.1637 0.74558 0.0
O628 O 0.59174 0.05263 0.76082 0.0
O629 O 0.57452 0.10678 0.7397 0.0
O630 O 0.58494 0.15062 0.79417 0.0
O631 O 0.63486 0.17337 0.7741 0.0
H632 H 0.70768 0.19739 0.87647 0.0
H633 H 0.73112 0.16843 0.92006 0.0
H634 H 0.82603 0.10938 0.87502 0.0
H635 H 0.80253 0.13845 0.83107 0.0
H636 H 0.51898 1.00651 0.7326 0.0
H637 H 0.4516 0.99198 0.7493 0.0
H638 H 0.45088 0.10244 0.79609 0.0
H639 H 0.51769 0.11704 0.77887 0.0
H640 H 0.44574 0.28734 0.30856 0.0
H641 H 0.50588 0.17426 0.31136 0.0
H642 H 0.57023 0.20873 0.3103 0.0
H643 H 0.61031 0.27127 0.30821 0.0
H644 H 0.5504 0.38455 0.30927 0.0
H645 H 0.48595 0.3501 0.30925 0.0
C646 C 0.47287 0.27002 0.30895 0.0
C647 C 0.47023 0.22761 0.30982 0.0
C648 C 0.51025 0.29039 0.30903 0.0
C649 C 0.50628 0.20647 0.31066 0.0
C650 C 0.54334 0.22639 0.31002 0.0
C651 C 0.58323 0.28867 0.30844 0.0
C652 C 0.58596 0.33109 0.30851 0.0
C653 C 0.54586 0.26837 0.30913 0.0
C654 C 0.54994 0.35232 0.30918 0.0
C655 C 0.51283 0.33241 0.30913 0.0
H656 H 0.51874 0.69731 0.58974 0.0
H657 H 0.62066 0.74537 0.54704 0.0
H658 H 0.5843 0.80688 0.5374 0.0
H659 H 0.52365 0.84901 0.54233 0.0
H660 H 0.42184 0.80253 0.58657 0.0
H661 H 0.45741 0.73972 0.59444 0.0
C662 C 0.53306 0.72113 0.57819 0.0
C663 C 0.57274 0.71544 0.56824 0.0
C664 C 0.51162 0.75738 0.57317 0.0
C665 C 0.59013 0.74746 0.55371 0.0
C666 C 0.56926 0.7832 0.54863 0.0
C667 C 0.50889 0.82514 0.55355 0.0
C668 C 0.4694 0.83131 0.56367 0.0
C669 C 0.52991 0.78871 0.55822 0.0
C670 C 0.4517 0.79939 0.57831 0.0
C671 C 0.47231 0.76319 0.58292 0.0
H672 H 0.10741 0.77205 0.80003 0.0
H673 H 0.04999 0.88166 0.82403 0.0
H674 H 0.98562 0.84716 0.82529 0.0
H675 H 0.94456 0.78526 0.81946 0.0
H676 H 1.00269 0.6758 0.79669 0.0
H677 H 0.06686 0.71015 0.7954 0.0
C678 C 0.0809 0.78866 0.80553 0.0
C679 C 0.08434 0.8301 0.81178 0.0
C680 C 0.04363 0.76819 0.8067 0.0
C681 C 0.04902 0.85022 0.81903 0.0
C682 C 1.01192 0.83027 0.81977 0.0
C683 C 0.97127 0.76871 0.81437 0.0
C684 C 0.96817 0.72703 0.80881 0.0
C685 C 1.00866 0.78917 0.81366 0.0
C686 C 1.00364 0.70696 0.8021 0.0
C687 C 0.04056 0.72703 0.80098 0.0
H688 H 0.09856 0.25218 1.03406 0.0
H689 H 0.03701 0.18981 1.10007 0.0
H690 H 0.98944 0.24477 1.10454 0.0
H691 H 0.9637 0.31172 1.08928 0.0
H692 H 1.02642 0.3734 1.02322 0.0
H693 H 0.07382 0.31888 1.01942 0.0
C694 C 0.07528 0.2509 1.04985 0.0
C695 C 0.07249 0.21671 1.06721 0.0
C696 C 0.04732 0.28292 1.05216 0.0
C697 C 0.04087 0.2157 1.0868 0.0
C698 C 1.01324 0.24725 1.08923 0.0
C699 C 0.98753 0.3132 1.07392 0.0
C700 C 0.99069 0.34744 1.05647 0.0
C701 C 1.01577 0.28117 1.07191 0.0
C702 C 1.02252 0.34805 1.03699 0.0
C703 C 0.05005 0.31661 1.03479 0.0
H704 H 0.56477 0.84035 1.00545 0.0
H705 H 0.62656 0.78438 1.07398 0.0
H706 H 0.57279 0.73652 1.07952 0.0
H707 H 0.50687 0.70929 1.06564 0.0
H708 H 0.44442 0.76389 0.99711 0.0
H709 H 0.49853 0.81206 0.99097 0.0
C710 C 0.56642 0.81793 1.02173 0.0
C711 C 0.60047 0.8168 1.03935 0.0
C712 C 0.53487 0.78932 1.02473 0.0
C713 C 0.60133 0.78671 1.06004 0.0
C714 C 0.57033 0.7589 1.06325 0.0
C715 C 0.50536 0.73122 1.049 0.0
C716 C 0.47144 0.73185 1.03143 0.0
C717 C 0.53688 0.75954 1.0457 0.0
C718 C 0.47016 0.76167 1.01059 0.0
C719 C 0.50121 0.78968 1.00721 0.0
H720 H 0.52308 0.19846 0.78962 0.0
H721 H 0.63565 0.25909 0.78532 0.0
H722 H 0.60101 0.32352 0.78552 0.0
H723 H 0.53809 0.36364 0.78714 0.0
H724 H 0.42571 0.30233 0.78741 0.0
H725 H 0.46049 0.23817 0.78853 0.0
C726 C 0.54028 0.22569 0.78873 0.0
C727 C 0.58255 0.22317 0.78769 0.0
C728 C 0.51984 0.26303 0.78813 0.0
C729 C 0.60352 0.25939 0.78617 0.0
C730 C 0.58349 0.2965 0.78633 0.0
C731 C 0.52104 0.33629 0.78748 0.0
C732 C 0.47871 0.33855 0.78744 0.0
C733 C 0.54158 0.2989 0.78736 0.0
C734 C 0.45787 0.30221 0.78748 0.0
C735 C 0.47796 0.26525 0.78815 0.0
H736 H 0.10793 0.27794 0.52686 0.0
H737 H 0.04834 0.38605 0.55147 0.0
H738 H 0.98476 0.35021 0.55305 0.0
H739 H 0.94539 0.28755 0.54822 0.0
H740 H 1.00317 0.18195 0.5169 0.0
H741 H 0.06729 0.2167 0.51752 0.0
C742 C 0.08103 0.29383 0.53248 0.0
C743 C 0.08358 0.33512 0.53928 0.0
C744 C 0.0439 0.27302 0.53247 0.0
C745 C 0.04787 0.35471 0.5461 0.0
C746 C 1.0113 0.33398 0.5471 0.0
C747 C 0.97194 0.27186 0.54157 0.0
C748 C 0.96895 0.23095 0.53369 0.0
C749 C 1.00881 0.29303 0.54048 0.0
C750 C 1.00412 0.21235 0.52437 0.0
C751 C 0.04098 0.23264 0.52435 0.0
H752 H 0.04296 0.71079 0.25036 0.0
H753 H 0.12081 0.74361 0.3182 0.0
H754 H 0.08128 0.80394 0.32663 0.0
H755 H 1.02386 0.84881 0.31454 0.0
H756 H 0.94319 0.81203 0.24932 0.0
H757 H 0.98354 0.75263 0.24062 0.0
C758 C 0.05149 0.731 0.26707 0.0
C759 C 0.08608 0.72227 0.28313 0.0
C760 C 1.02745 0.76536 0.27252 0.0
C761 C 0.0954 0.7492 0.30495 0.0
C762 C 0.07237 0.78389 0.30992 0.0
C763 C 1.01478 0.82768 0.29855 0.0
C764 C 0.97982 0.83575 0.28264 0.0
C765 C 0.03824 0.79255 0.29383 0.0
C766 C 0.96929 0.80734 0.2621 0.0
C767 C 0.9927 0.77312 0.25699 0.0
H768 H 0.36678 0.03651 1.15097 0.0
H769 H 0.41027 0.93103 0.1921 0.0
H770 H 0.42339 0.90013 1.14669 0.0
H771 H 0.44468 0.91377 1.09877 0.0
H772 H 0.40925 1.02256 1.05817 0.0
H773 H 0.36916 0.04056 1.09919 0.0
C774 C 0.37778 1.00621 1.14988 0.0
C775 C 0.38918 0.98674 0.17474 0.0
C776 C 0.38738 0.98947 1.12366 0.0
C777 C 0.40197 0.94699 0.17326 0.0
C778 C 0.40986 0.92939 1.14722 0.0
C779 C 0.42659 0.94044 1.09815 0.0
C780 C 0.43186 0.96805 1.07623 0.0
C781 C 0.40607 0.95184 1.12256 0.0
C782 C 0.40702 1.00166 1.07542 0.0
C783 C 0.38451 1.01222 1.09905 0.0
H784 H 0.65264 0.87867 0.47608 0.0
H785 H 0.61448 0.77448 0.43005 0.0
H786 H 0.61468 0.81188 0.38683 0.0
H787 H 0.65207 0.86193 0.36165 0.0
H788 H 0.70372 0.96075 0.40644 0.0
H789 H 0.67181 0.93861 0.4499 0.0
C790 C 0.64356 0.86439 0.45666 0.0
C791 C 0.63629 0.82312 0.45616 0.0
C792 C 0.64743 0.88506 0.43124 0.0
C793 C 0.62161 0.80582 0.43126 0.0
C794 C 0.62215 0.82718 0.40621 0.0
C795 C 0.65473 0.87995 0.38052 0.0
C796 C 0.68215 0.91144 0.38134 0.0
C797 C 0.63913 0.86517 0.40569 0.0
C798 C 0.68407 0.93525 0.40569 0.0
C799 C 0.66615 0.92233 0.43061 0.0
H800 H 0.18223 0.99174 0.6475 0.0
H801 H 0.1622 0.10816 0.68308 0.0
H802 H 0.14721 0.13441 0.63666 0.0
H803 H 0.11563 0.1173 0.59241 0.0
H804 H 0.12804 0.99902 0.55803 0.0
H805 H 0.17163 0.98091 0.59678 0.0
C806 C 0.17627 1.02322 0.64478 0.0
C807 C 0.17149 0.04764 0.66863 0.0
C808 C 0.16533 0.03752 0.61825 0.0
C809 C 0.16518 0.0886 0.66504 0.0
C810 C 0.15615 0.10354 0.63848 0.0
C811 C 0.12941 0.08815 0.59241 0.0
C812 C 0.11643 0.05863 0.57348 0.0
C813 C 0.15234 0.07732 0.61564 0.0
C814 C 0.136 1.02165 0.57326 0.0
C815 C 0.16067 1.01117 0.59558 0.0
H816 H 0.80216 0.15264 1.02587 0.0
H817 H 0.91458 0.19649 0.99519 0.0
H818 H 0.90653 0.15931 0.95191 0.0
H819 H 0.85642 0.13958 0.9175 0.0
H820 H 0.74014 0.10354 0.94587 0.0
H821 H 0.76044 0.11213 0.99476 0.0
C822 C 0.82563 0.15264 1.01015 0.0
C823 C 0.85741 0.17953 1.0129 0.0
C824 C 0.81916 0.1339 0.98417 0.0
C825 C 0.88886 0.17735 0.99332 0.0
C826 C 0.88398 0.15654 0.96814 0.0
C827 C 0.83614 0.13163 0.93437 0.0
C828 C 0.79633 0.12286 0.92822 0.0
C829 C 0.84741 0.13856 0.96231 0.0
C830 C 0.77057 0.11187 0.95025 0.0
C831 C 0.78215 0.11688 0.97819 0.0
H832 H 0.29928 0.43417 0.9488 0.0
H833 H 0.18852 0.39676 0.91206 0.0
H834 H 0.16061 0.38562 0.95865 0.0
H835 H 0.17714 0.36271 1.00559 0.0
H836 H 0.29115 0.39074 1.04127 0.0
H837 H 0.30753 0.43116 1.00022 0.0
C838 C 0.26856 0.42499 0.95114 0.0
C839 C 0.24658 0.41451 0.92714 0.0
C840 C 0.2535 0.4163 0.97798 0.0
C841 C 0.20637 0.4042 0.93022 0.0
C842 C 0.19046 0.39745 0.95693 0.0
C843 C 0.20472 0.37938 1.0052 0.0
C844 C 0.23398 0.37178 1.0255 0.0
C845 C 0.21507 0.39975 0.98058 0.0
C846 C 0.26882 0.39487 1.02522 0.0
C847 C 0.27844 0.41747 1.00151 0.0
H848 H 0.26705 0.94991 0.40787 0.0
H849 H 0.17111 0.88198 0.4444 0.0
H850 H 0.14584 0.86698 0.39786 0.0
H851 H 0.16609 0.85216 0.34978 0.0
H852 H 0.26962 0.90879 0.31452 0.0
H853 H 0.2759 0.95025 0.35654 0.0
C854 C 0.23994 0.93278 0.4056 0.0
C855 C 0.22223 0.91541 0.4295 0.0
C856 C 0.22734 0.92155 0.37866 0.0
C857 C 0.18601 0.89504 0.42643 0.0
C858 C 0.1717 0.88601 0.39968 0.0
C859 C 0.18874 0.8751 0.35063 0.0
C860 C 0.2184 0.87634 0.32974 0.0
C861 C 0.19432 0.89589 0.37587 0.0
C862 C 0.24706 0.9067 0.33077 0.0
C863 C 0.25102 0.9299 0.35503 0.0
H864 H 0.16199 0.59402 0.68199 0.0
H865 H 0.18592 0.47002 0.69713 0.0
H866 H 0.17886 0.48053 0.74766 0.0
H867 H 0.13872 0.51767 0.78188 0.0
H868 H 0.10638 0.63891 0.76476 0.0
H869 H 0.14608 0.63809 0.7219 0.0
C870 C 0.16777 0.56984 0.69647 0.0
C871 C 0.17257 0.531 0.68602 0.0
C872 C 0.16132 0.57568 0.72538 0.0
C873 C 0.18085 0.49995 0.70486 0.0
C874 C 0.17659 0.50593 0.73376 0.0
C875 C 0.14266 0.54464 0.76966 0.0
C876 C 0.11766 0.57723 0.77509 0.0
C877 C 0.16264 0.54262 0.74376 0.0
C878 C 0.12413 0.61276 0.76023 0.0
C879 C 0.14618 0.61201 0.73527 0.0
H880 H 0.69198 0.50277 1.14444 0.0
H881 H 0.66094 0.61555 0.18202 0.0
H882 H 0.64541 0.64242 1.13594 0.0
H883 H 0.61672 0.62479 1.09074 0.0
H884 H 0.63857 0.50896 1.05474 0.0
H885 H 0.68301 0.49298 1.09351 0.0
C886 C 0.68333 0.53371 1.1423 0.0
C887 C 0.67575 0.55657 1.16658 0.0
C888 C 0.6719 0.54814 1.11591 0.0
C889 C 0.66613 0.59702 1.16368 0.0
C890 C 0.65679 0.61232 1.13728 0.0
C891 C 0.63285 0.59686 1.09046 0.0
C892 C 0.6226 0.56713 1.07091 0.0
C893 C 0.65584 0.58688 1.11387 0.0
C894 C 0.64482 0.5317 1.07031 0.0
C895 C 0.66981 0.52236 1.09271 0.0
H896 H 0.32045 0.42022 0.30063 0.0
H897 H 0.20528 0.38655 0.33299 0.0
H898 H 0.17797 0.45024 0.31835 0.0
H899 H 0.18669 0.51593 0.29781 0.0
H900 H 0.30141 0.55233 0.26653 0.0
H901 H 0.32876 0.48675 0.27854 0.0
C902 C 0.28932 0.42674 0.30424 0.0
C903 C 0.26509 0.39864 0.3182 0.0
C904 C 0.27365 0.46375 0.29577 0.0
C905 C 0.22484 0.40777 0.32284 0.0
C906 C 0.20907 0.44411 0.31427 0.0
C907 C 0.21766 0.5095 0.29334 0.0
C908 C 0.24203 0.53901 0.28131 0.0
C909 C 0.23322 0.47237 0.30093 0.0
C910 C 0.28204 0.53011 0.27572 0.0
C911 C 0.29768 0.49269 0.28273 0.0
H912 H 0.39877 0.54902 0.54501 0.0
H913 H 0.40022 0.47107 0.6172 0.0
H914 H 0.33469 0.44625 0.60501 0.0
H915 H 0.27899 0.44423 0.57306 0.0
H916 H 0.27213 0.52556 0.50342 0.0
H917 H 0.33834 0.55166 0.5153 0.0
C918 C 0.38447 0.52719 0.55841 0.0
C919 C 0.40491 0.51146 0.58176 0.0
C920 C 0.34626 0.51333 0.5515 0.0
C921 C 0.38581 0.483 0.59873 0.0
C922 C 0.34823 0.46883 0.59184 0.0
C923 C 0.29169 0.46772 0.56046 0.0
C924 C 0.27089 0.48261 0.5372 0.0
C925 C 0.32863 0.48323 0.56802 0.0
C926 C 0.2878 0.51344 0.5213 0.0
C927 C 0.3255 0.52836 0.52818 0.0
H928 H 0.24334 0.63753 0.80028 0.0
H929 H 0.35825 0.67713 0.82889 0.0
H930 H 0.38778 0.61443 0.81378 0.0
H931 H 0.38084 0.54736 0.7945 0.0
H932 H 0.26619 0.50549 0.76743 0.0
H933 H 0.23695 0.57043 0.77893 0.0
C934 C 0.2749 0.63254 0.80295 0.0
C935 C 0.29843 0.66194 0.81602 0.0
C936 C 0.2918 0.59608 0.79432 0.0
C937 C 0.33926 0.65483 0.81943 0.0
C938 C 0.35628 0.61905 0.81061 0.0
C939 C 0.34948 0.55248 0.79096 0.0
C940 C 0.32566 0.52154 0.78042 0.0
C941 C 0.33279 0.58932 0.79837 0.0
C942 C 0.28516 0.52879 0.77562 0.0
C943 C 0.2684 0.56584 0.78235 0.0
H944 H 0.16096 0.50786 1.04107 0.0
H945 H 0.13539 0.61554 1.08766 0.0
H946 H 0.20034 0.64197 1.07544 0.0
H947 H 0.26467 0.63472 1.05253 0.0
H948 H 0.29399 0.52603 1.00868 0.0
H949 H 0.22728 0.4999 1.01869 0.0
C950 C 0.16965 0.53699 1.0487 0.0
C951 C 0.14277 0.55978 1.06502 0.0
C952 C 0.20767 0.55199 1.04194 0.0
C953 C 0.15476 0.59761 1.07452 0.0
C954 C 0.19212 0.61275 1.06769 0.0
C955 C 0.2565 0.60539 1.04494 0.0
C956 C 0.28425 0.58241 1.02976 0.0
C957 C 0.21872 0.5903 1.05141 0.0
C958 C 0.27312 0.54437 1.0203 0.0
C959 C 0.23504 0.52939 1.02614 0.0
H960 H 0.88307 0.54462 1.05283 0.0
H961 H 0.76503 0.50319 1.07238 0.0
H962 H 0.73827 0.56951 1.06154 0.0
H963 H 0.74881 0.63875 1.04429 0.0
H964 H 0.86763 0.67644 1.02242 0.0
H965 H 0.89355 0.61192 1.03605 0.0
C966 C 0.85144 0.54997 1.05481 0.0
C967 C 0.82606 0.5189 1.06319 0.0
C968 C 0.83638 0.58751 1.04786 0.0
C969 C 0.78521 0.52658 1.06593 0.0
C970 C 0.76993 0.56443 1.05957 0.0
C971 C 0.78033 0.63275 1.04242 0.0
C972 C 0.80623 0.66282 1.03257 0.0
C973 C 0.79523 0.59502 1.05006 0.0
C974 C 0.84705 0.65443 1.03045 0.0
C975 C 0.86195 0.61737 1.03811 0.0
H976 H 0.65761 0.5038 0.80137 0.0
H977 H 0.6326 0.61073 0.75445 0.0
H978 H 0.69696 0.63793 0.76732 0.0
H979 H 0.76078 0.63134 0.79092 0.0
H980 H 0.78907 0.52332 0.83526 0.0
H981 H 0.72293 0.49672 0.82455 0.0
C982 C 0.66629 0.53294 0.79379 0.0
C983 C 0.63979 0.55522 0.77712 0.0
C984 C 0.70388 0.54837 0.80098 0.0
C985 C 0.65172 0.59312 0.76777 0.0
C986 C 0.68873 0.6087 0.775 0.0
C987 C 0.75249 0.60206 0.79846 0.0
C988 C 0.77983 0.57936 0.81397 0.0
C989 C 0.71499 0.58666 0.79159 0.0
C990 C 0.76853 0.54141 0.82338 0.0
C991 C 0.73078 0.52617 0.81714 0.0
H992 H 0.81375 0.4237 0.54227 0.0
H993 H 0.69604 0.38221 0.52181 0.0
H994 H 0.66802 0.44556 0.53699 0.0
H995 H 0.67663 0.51316 0.55455 0.0
H996 H 0.79372 0.55751 0.57318 0.0
H997 H 0.82217 0.49225 0.56122 0.0
C998 C 0.78195 0.42844 0.5414 0.0
C999 C 0.75711 0.39818 0.53065 0.0
C1000 C 0.76588 0.46532 0.55008 0.0
C1001 C 0.71597 0.40504 0.52949 0.0
C1002 C 0.69984 0.44122 0.53837 0.0
C1003 C 0.70841 0.50861 0.55618 0.0
C1004 C 0.73305 0.54027 0.56461 0.0
C1005 C 0.72449 0.47162 0.54846 0.0
C1006 C 0.77409 0.53364 0.56678 0.0
C1007 C 0.79035 0.49639 0.55976 0.0
H1008 H 0.77302 0.52967 0.31922 0.0
H1009 H 0.80043 0.40432 0.32036 0.0
H1010 H 0.87026 0.41869 0.31194 0.0
H1011 H 0.92259 0.46602 0.30068 0.0
H1012 H 0.89682 0.59172 0.2987 0.0
H1013 H 0.82726 0.57806 0.31033 0.0
C1014 C 0.79447 0.50565 0.31816 0.0
C1015 C 0.78162 0.46595 0.3206 0.0
C1016 C 0.83474 0.51413 0.31258 0.0
C1017 C 0.80962 0.43509 0.31878 0.0
C1018 C 0.84955 0.44326 0.31375 0.0
C1019 C 0.90204 0.49059 0.30329 0.0
C1020 C 0.91507 0.52985 0.29885 0.0
C1021 C 0.8623 0.48256 0.3101 0.0
C1022 C 0.88757 0.56115 0.30166 0.0
C1023 C 0.84782 0.55338 0.30851 0.0
H1024 H 0.79635 0.90504 0.78809 0.0
H1025 H 0.6937 0.88334 0.8407 0.0
H1026 H 0.66632 0.94771 0.82781 0.0
H1027 H 0.67207 1.01081 0.803 0.0
H1028 H 0.77642 0.03611 0.75324 0.0
H1029 H 0.80246 0.96948 0.76341 0.0
C1030 C 0.76811 0.91446 0.79687 0.0
C1031 C 0.74707 0.88899 0.81522 0.0
C1032 C 0.7527 0.95204 0.78974 0.0
C1033 C 0.71026 0.90172 0.82611 0.0
C1034 C 0.69462 0.93872 0.81888 0.0
C1035 C 0.70039 1.00173 0.79414 0.0
C1036 C 0.7223 1.02834 0.77732 0.0
C1037 C 0.71558 0.96409 0.80078 0.0
C1038 C 0.759 1.01609 0.76617 0.0
C1039 C 0.77392 0.97811 0.77211 0.0
H1040 H 0.7983 0.92624 1.03976 0.0
H1041 H 0.75263 0.04339 1.02244 0.0
H1042 H 0.81695 0.07263 1.03522 0.0
H1043 H 0.88494 0.06479 1.05452 0.0
H1044 H 0.92777 0.94684 1.07354 0.0
H1045 H 0.86553 0.91817 1.05739 0.0
C1046 C 0.80241 0.9582 1.03858 0.0
C1047 C 0.77064 0.98264 1.03039 0.0
C1048 C 0.83885 0.97471 1.04667 0.0
C1049 C 0.77662 1.02394 1.02869 0.0
C1050 C 0.81332 0.04065 1.03614 0.0
C1051 C 0.88071 1.03281 1.0549 0.0
C1052 C 0.91094 1.00806 1.06556 0.0
C1053 C 0.84446 1.01635 1.04569 0.0
C1054 C 0.90484 0.96667 1.06599 0.0
C1055 C 0.86934 0.95017 1.05655 0.0
H1056 H 0.88739 0.05018 0.29211 0.0
H1057 H 0.77421 1.01267 0.25939 0.0
H1058 H 0.74573 0.07775 0.27109 0.0
H1059 H 0.75184 0.14342 0.29407 0.0
H1060 H 0.86474 0.17925 0.32841 0.0
H1061 H 0.89424 0.11644 0.31321 0.0
C1062 C 0.85655 0.05634 0.28736 0.0
C1063 C 0.83283 1.02655 0.27516 0.0
C1064 C 0.84017 0.0933 0.29488 0.0
C1065 C 0.79304 0.03509 0.26885 0.0
C1066 C 0.77671 0.07221 0.27569 0.0
C1067 C 0.78301 0.13766 0.29793 0.0
C1068 C 0.80595 0.16597 0.31254 0.0
C1069 C 0.79979 0.10125 0.28926 0.0
C1070 C 0.84622 0.15779 0.31762 0.0
C1071 C 0.8632 0.12196 0.30877 0.0
H1072 H 0.79047 1.0249 0.53072 0.0
H1073 H 0.75653 0.14849 0.52684 0.0
H1074 H 0.68846 0.13125 0.53946 0.0
H1075 H 0.63943 0.08186 0.55462 0.0
H1076 H 0.67293 0.95829 0.56021 0.0
H1077 H 0.73987 0.97456 0.54369 0.0
C1078 C 0.76797 0.04789 0.53212 0.0
C1079 C 0.77856 0.08796 0.52778 0.0
C1080 C 0.7288 0.03782 0.54001 0.0
C1081 C 0.74914 0.11745 0.52997 0.0
C1082 C 0.71021 0.10765 0.53737 0.0
C1083 C 0.6614 0.05847 0.55236 0.0
C1084 C 0.65115 1.01897 0.55894 0.0
C1085 C 0.69989 0.06807 0.54305 0.0
C1086 C 0.67985 0.98895 0.55521 0.0
C1087 C 0.71825 0.99826 0.54586 0.0
H1088 H 0.33615 0.17145 0.54409 0.0
H1089 H 0.21109 0.14382 0.5445 0.0
H1090 H 0.22561 0.07596 0.55994 0.0
H1091 H 0.27461 1.02304 0.57062 0.0
H1092 H 0.39946 0.05157 0.56899 0.0
H1093 H 0.38423 0.12053 0.55746 0.0
C1094 C 0.31196 0.15084 0.54795 0.0
C1095 C 0.2726 0.16284 0.54298 0.0
C1096 C 0.32054 0.11187 0.5567 0.0
C1097 C 0.24174 0.13532 0.5477 0.0
C1098 C 0.25001 0.09651 0.5567 0.0
C1099 C 0.29836 0.04458 0.56827 0.0
C1100 C 0.33816 1.03223 0.57073 0.0
C1101 C 0.28939 0.08424 0.56092 0.0
C1102 C 0.36863 0.06037 0.56728 0.0
C1103 C 0.35996 0.09979 0.56052 0.0
H1104 H 0.13859 0.07855 0.29884 0.0
H1105 H 0.17734 0.95997 0.27715 0.0
H1106 H 0.24424 0.97563 0.29354 0.0
H1107 H 0.29287 1.02446 0.31116 0.0
H1108 H 0.25454 0.1441 0.32976 0.0
H1109 H 0.18622 0.12636 0.31806 0.0
C1110 C 0.16166 0.0561 0.29769 0.0
C1111 C 0.153 1.0183 0.2865 0.0
C1112 C 0.20007 0.06534 0.30697 0.0
C1113 C 0.18308 0.98927 0.28577 0.0
C1114 C 0.22137 0.99818 0.29514 0.0
C1115 C 0.26936 0.04632 0.31324 0.0
C1116 C 0.27852 0.08548 0.32147 0.0
C1117 C 0.23034 0.03625 0.30551 0.0
C1118 C 0.24799 0.11374 0.32362 0.0
C1119 C 0.20903 0.10369 0.31675 0.0
H1120 H 0.28345 0.04556 1.06006 0.0
H1121 H 0.16365 1.00806 1.07818 0.0
H1122 H 0.18106 0.93931 1.06707 0.0
H1123 H 0.22873 0.89067 1.04886 0.0
H1124 H 0.3479 0.92788 1.02812 0.0
H1125 H 0.33244 0.9956 1.0436 0.0
C1126 C 0.26147 1.02215 1.06212 0.0
C1127 C 0.22231 1.03178 1.07002 0.0
C1128 C 0.27146 0.98265 1.05487 0.0
C1129 C 0.19397 1.00129 1.07221 0.0
C1130 C 0.20386 0.96201 1.0657 0.0
C1131 C 0.25136 0.91358 1.04763 0.0
C1132 C 0.28928 0.90414 1.037 0.0
C1133 C 0.24222 0.9525 1.05635 0.0
C1134 C 0.31848 0.93412 1.03628 0.0
C1135 C 0.30965 0.97295 1.0451 0.0
H1136 H 0.41808 0.97444 0.79278 0.0
H1137 H 0.38244 0.09646 0.78066 0.0
H1138 H 0.31578 0.0808 0.79787 0.0
H1139 H 0.26616 1.03131 0.81359 0.0
H1140 H 0.30153 0.90885 0.8233 0.0
H1141 H 0.36954 0.92578 0.80999 0.0
C1142 C 0.3957 0.9976 0.79373 0.0
C1143 C 0.40534 0.03653 0.78523 0.0
C1144 C 0.35729 0.98831 0.8034 0.0
C1145 C 0.37605 0.06629 0.78722 0.0
C1146 C 0.33781 0.05733 0.79698 0.0
C1147 C 0.28898 1.00856 0.81336 0.0
C1148 C 0.27894 0.96891 0.81964 0.0
C1149 C 0.32794 1.01835 0.8049 0.0
C1150 C 0.30865 0.93961 0.81876 0.0
C1151 C 0.34748 0.94922 0.81095 0.0
H1152 H 0.2943 0.10221 0.23494 0.0
H1153 H 0.31115 0.22914 0.23188 0.0
H1154 H 0.26974 0.23265 0.18958 0.0
H1155 H 0.22834 0.19963 1.15228 0.0
H1156 H 0.20574 0.07375 1.15864 0.0
H1157 H 0.24863 0.07014 0.20002 0.0
C1158 C 0.28915 0.13072 0.225 0.0
C1159 C 0.30705 0.16538 0.23683 0.0
C1160 C 0.26358 0.13278 0.20093 0.0
C1161 C 0.29859 0.20188 0.22358 0.0
C1162 C 0.27463 0.20389 0.19919 0.0
C1163 C 0.23241 0.17136 1.16278 0.0
C1164 C 0.21308 0.13693 1.15169 0.0
C1165 C 0.25682 0.16958 0.18749 0.0
C1166 C 0.21933 0.10092 1.16624 0.0
C1167 C 0.24433 0.09877 0.19006 0.0
H1168 H 0.65162 0.52261 0.38162 0.0
H1169 H 0.67455 0.41188 0.42397 0.0
H1170 H 0.66907 0.44578 0.46969 0.0
H1171 H 0.65788 0.50774 0.49856 0.0
H1172 H 0.64253 0.61941 0.4557 0.0
H1173 H 0.6447 0.58484 0.4102 0.0
C1174 C 0.65523 0.50565 0.4008 0.0
C1175 C 0.66298 0.464 0.39873 0.0
C1176 C 0.65329 0.52589 0.4274 0.0
C1177 C 0.66837 0.4435 0.42431 0.0
C1178 C 0.66517 0.46309 0.4507 0.0
C1179 C 0.65474 0.52461 0.4793 0.0
C1180 C 0.6493 0.56667 0.48113 0.0
C1181 C 0.65757 0.50437 0.45268 0.0
C1182 C 0.64638 0.58741 0.45548 0.0
C1183 C 0.64767 0.56745 0.42923 0.0
H1184 H 0.2625 0.95226 0.73643 0.0
H1185 H 0.24025 0.82638 0.73022 0.0
H1186 H 0.28075 0.82317 0.68712 0.0
H1187 H 0.32254 0.8563 0.64998 0.0
H1188 H 0.35069 0.9807 0.65942 0.0
H1189 H 0.30892 0.98407 0.70172 0.0
C1190 C 0.26633 0.92405 0.72564 0.0
C1191 C 0.2472 0.88962 0.73678 0.0
C1192 C 0.29134 0.9221 0.70113 0.0
C1193 C 0.25386 0.85344 0.72246 0.0
C1194 C 0.27726 0.85162 0.69762 0.0
C1195 C 0.31996 0.88417 0.66137 0.0
C1196 C 0.34045 0.91829 0.6509 0.0
C1197 C 0.29624 0.88573 0.68657 0.0
C1198 C 0.33615 0.95378 0.66655 0.0
C1199 C 0.3118 0.9558 0.69089 0.0
H1200 H 0.90712 0.53391 0.88137 0.0
H1201 H 0.87693 0.64348 0.92355 0.0
H1202 H 0.88356 0.61038 0.96932 0.0
H1203 H 0.89803 0.54951 0.99827 0.0
H1204 H 0.92024 0.43843 0.95563 0.0
H1205 H 0.9169 0.47236 0.91005 0.0
C1206 C 0.90207 0.55077 0.90053 0.0
C1207 C 0.89194 0.59188 0.8984 0.0
C1208 C 0.90469 0.53092 0.92715 0.0
C1209 C 0.88486 0.61226 0.92394 0.0
C1210 C 0.88876 0.59315 0.95035 0.0
C1211 C 0.90239 0.53265 0.97904 0.0
C1212 C 0.9102 0.49099 0.98094 0.0
C1213 C 0.89876 0.5524 0.9524 0.0
C1214 C 0.91463 0.47016 0.95534 0.0
C1215 C 0.91265 0.48975 0.92906 0.0
H1216 H 0.791 0.89758 0.21073 0.0
H1217 H 0.89838 0.93264 1.16791 0.0
H1218 H 0.86428 0.92708 1.12244 0.0
H1219 H 0.80314 0.91182 1.09399 0.0
H1220 H 0.69411 0.88495 1.13766 0.0
H1221 H 0.72912 0.88748 0.18278 0.0
C1222 C 0.80718 0.90395 0.19149 0.0
C1223 C 0.84797 0.91506 0.19331 0.0
C1224 C 0.78671 0.90197 1.16513 0.0
C1225 C 0.86744 0.92389 1.16773 0.0
C1226 C 0.84774 0.9206 1.14149 0.0
C1227 C 0.78696 0.90635 1.11334 0.0
C1228 C 0.74556 0.89743 1.11186 0.0
C1229 C 0.8073 0.90953 1.13976 0.0
C1230 C 0.7256 0.89148 1.13762 0.0
C1231 C 0.74581 0.89299 1.16364 0.0
H1232 H 0.41274 0.53824 0.96267 0.0
H1233 H 0.37548 0.64551 0.92105 0.0
H1234 H 0.38118 0.61177 0.87525 0.0
H1235 H 0.39659 0.55078 0.84615 0.0
H1236 H 0.42599 0.44188 0.88874 0.0
H1237 H 0.42382 0.47672 0.93412 0.0
C1238 C 0.40594 0.55449 0.94363 0.0
C1239 C 0.39408 0.59512 0.9459 0.0
C1240 C 0.40813 0.53426 0.91707 0.0
C1241 C 0.38477 0.61467 0.92054 0.0
C1242 C 0.38815 0.59519 0.8941 0.0
C1243 C 0.40296 0.53468 0.86529 0.0
C1244 C 0.41255 0.49338 0.86342 0.0
C1245 C 0.39992 0.5549 0.89192 0.0
C1246 C 0.41928 0.4734 0.88898 0.0
C1247 C 0.41786 0.49348 0.91516 0.0
H1248 H 0.73761 0.20129 0.69889 0.0
H1249 H 0.70167 0.07944 0.68646 0.0
H1250 H 0.74239 0.07575 0.64374 0.0
H1251 H 0.79011 0.10634 0.60934 0.0
H1252 H 0.82068 0.23003 0.61868 0.0
H1253 H 0.78109 0.23358 0.6622 0.0
C1254 C 0.73832 0.17391 0.6868 0.0
C1255 C 0.71587 0.14059 0.69662 0.0
C1256 C 0.76157 0.17217 0.66132 0.0
C1257 C 0.71779 0.10577 0.67997 0.0
C1258 C 0.74154 0.10354 0.65534 0.0
C1259 C 0.78833 0.13413 0.62092 0.0
C1260 C 0.80956 0.16778 0.61049 0.0
C1261 C 0.76391 0.13638 0.64576 0.0
C1262 C 0.80546 0.20351 0.62585 0.0
C1263 C 0.78256 0.20553 0.65095 0.0
H1264 H 0.218 0.4953 0.45012 0.0
H1265 H 0.09787 0.45243 0.44502 0.0
H1266 H 0.08705 0.49241 0.40264 0.0
H1267 H 0.11101 0.54168 0.36651 0.0
H1268 H 0.22977 0.58823 0.37437 0.0
H1269 H 0.24114 0.54592 0.41509 0.0
C1270 C 0.18962 0.49408 0.43951 0.0
C1271 C 0.15917 0.46942 0.45087 0.0
C1272 C 0.18294 0.51878 0.41531 0.0
C1273 C 0.12227 0.47006 0.43691 0.0
C1274 C 0.11594 0.49337 0.41254 0.0
C1275 C 0.13934 0.54295 0.37715 0.0
C1276 C 0.16926 0.56921 0.36668 0.0
C1277 C 0.14587 0.5183 0.40147 0.0
C1278 C 0.20568 0.56931 0.38138 0.0
C1279 C 0.21246 0.54463 0.40492 0.0
H1280 H 0.72991 0.6952 0.64837 0.0
H1281 H 0.70896 0.569 0.65483 0.0
H1282 H 0.75197 0.56594 0.69607 0.0
H1283 H 0.79726 0.59848 0.73092 0.0
H1284 H 0.81333 0.72546 0.72756 0.0
H1285 H 0.77156 0.72859 0.6854 0.0
C1286 C 0.73447 0.66695 0.6588 0.0
C1287 C 0.71549 0.63228 0.64776 0.0
C1288 C 0.75915 0.66541 0.6834 0.0
C1289 C 0.72233 0.59635 0.6623 0.0
C1290 C 0.74739 0.5945 0.68608 0.0
C1291 C 0.792 0.62689 0.72087 0.0
C1292 C 0.8098 0.66168 0.73256 0.0
C1293 C 0.76633 0.6287 0.69686 0.0
C1294 C 0.80097 0.69809 0.7193 0.0
C1295 C 0.77678 0.69988 0.695 0.0
H1296 H 0.10962 0.99402 0.89624 0.0
H1297 H 0.22449 0.94417 0.91449 0.0
H1298 H 0.22819 0.98445 0.95739 0.0
H1299 H 0.19958 0.03549 0.99046 0.0
H1300 H 0.08243 0.08101 0.97456 0.0
H1301 H 0.07911 0.04172 0.93096 0.0
C1302 C 0.13546 0.99161 0.90961 0.0
C1303 C 0.1668 0.96532 0.90139 0.0
C1304 C 0.1372 1.01482 0.93506 0.0
C1305 C 0.19967 0.96335 0.91968 0.0
C1306 C 0.20193 0.98681 0.94443 0.0
C1307 C 0.17335 0.03709 0.97739 0.0
C1308 C 0.14152 0.06238 0.986 0.0
C1309 C 0.17108 1.01299 0.95241 0.0
C1310 C 0.1076 0.06264 0.96875 0.0
C1311 C 0.10568 0.03988 0.94364 0.0
H1312 H 0.83568 0.35601 1.15188 0.0
H1313 H 0.84188 0.48412 1.15142 0.0
H1314 H 0.79787 0.48695 0.19246 0.0
H1315 H 0.75623 0.45362 0.22914 0.0
H1316 H 0.75522 0.32562 0.2332 0.0
H1317 H 0.79767 0.32239 0.19104 0.0
C1318 C 0.82776 0.38463 1.16082 0.0
C1319 C 0.84288 0.41992 1.14791 0.0
C1320 C 0.80272 0.38613 0.18544 0.0
C1321 C 0.83167 0.45637 1.16046 0.0
C1322 C 0.80604 0.45804 0.18411 0.0
C1323 C 0.76507 0.42487 0.22083 0.0
C1324 C 0.75137 0.38979 0.23466 0.0
C1325 C 0.7911 0.42322 0.19685 0.0
C1326 C 0.76449 0.35317 0.22339 0.0
C1327 C 0.78905 0.35134 0.19907 0.0
H1328 H 0.35139 1.01276 0.48478 0.0
H1329 H 0.47608 0.9862 0.47803 0.0
H1330 H 0.48066 1.02699 0.43531 0.0
H1331 H 0.44918 0.07087 0.39874 0.0
H1332 H 0.32609 0.10303 0.4089 0.0
H1333 H 0.3213 0.06056 0.45053 0.0
C1334 C 0.37962 1.01561 0.47392 0.0
C1335 C 0.41327 0.99516 0.48486 0.0
C1336 C 0.38244 0.04085 0.44962 0.0
C1337 C 0.44954 1.00073 0.47044 0.0
C1338 C 0.45216 1.02436 0.4458 0.0
C1339 C 0.42129 0.06897 0.41011 0.0
C1340 C 0.38799 0.09095 0.4 0.0
C1341 C 0.41887 0.04475 0.43502 0.0
C1342 C 0.35245 0.0874 0.41569 0.0
C1343 C 0.34959 0.06264 0.43968 0.0
H1344 H 0.30659 0.4584 0.70173 0.0
H1345 H 0.36869 0.3477 0.69015 0.0
H1346 H 0.32968 0.33383 0.64768 0.0
H1347 H 0.27619 0.3527 0.61305 0.0
H1348 H 0.21088 0.46113 0.62812 0.0
H1349 H 0.25206 0.4758 0.66867 0.0
C1350 C 0.31206 0.43145 0.68975 0.0
C1351 C 0.34179 0.40469 0.69923 0.0
C1352 C 0.28811 0.42278 0.66558 0.0
C1353 C 0.3469 0.36937 0.68349 0.0
C1354 C 0.32421 0.36126 0.65907 0.0
C1355 C 0.27048 0.37929 0.62535 0.0
C1356 C 0.23928 0.40534 0.61688 0.0
C1357 C 0.29432 0.38755 0.64981 0.0
C1358 C 0.23356 0.43978 0.63362 0.0
C1359 C 0.25754 0.44852 0.65709 0.0
H1360 H 0.90803 0.03761 0.46116 0.0
H1361 H 0.87514 0.14589 0.41898 0.0
H1362 H 0.88155 0.11208 0.37329 0.0
H1363 H 0.89643 0.05076 0.34427 0.0
H1364 H 0.92154 0.94099 0.38711 0.0
H1365 H 0.91854 0.97575 0.43253 0.0
C1366 C 0.90232 0.05408 0.44203 0.0
C1367 C 0.89146 0.09509 0.44422 0.0
C1368 C 0.9049 0.03377 0.4154 0.0
C1369 C 0.88362 0.11481 0.41865 0.0
C1370 C 0.88741 0.09525 0.39223 0.0
C1371 C 0.90159 0.03438 0.36347 0.0
C1372 C 0.91019 0.99278 0.36159 0.0
C1373 C 0.89813 0.05464 0.39014 0.0
C1374 C 0.91549 0.97264 0.38728 0.0
C1375 C 0.91363 0.99273 0.41352 0.0
H1376 H 0.2322 0.69951 0.19631 0.0
H1377 H 0.21719 0.57217 0.19364 0.0
H1378 H 0.26035 0.56842 1.15217 0.0
H1379 H 0.30412 0.60075 1.11602 0.0
H1380 H 0.3145 0.72844 1.11591 0.0
H1381 H 0.27249 0.73231 1.15817 0.0
C1382 C 0.23801 0.67085 0.18663 0.0
C1383 C 0.22065 0.63611 0.19879 0.0
C1384 C 0.26286 0.66884 1.16194 0.0
C1385 C 0.22923 0.5996 0.18526 0.0
C1386 C 0.25439 0.59737 1.16136 0.0
C1387 C 0.29757 0.6295 1.12533 0.0
C1388 C 0.31383 0.66429 1.11259 0.0
C1389 C 0.27177 0.63167 1.14947 0.0
C1390 C 0.30336 0.70106 1.12496 0.0
C1391 C 0.27901 0.70329 1.14933 0.0
H1392 H 0.60882 0.97427 0.94349 0.0
H1393 H 0.73626 0.96318 0.94128 0.0
H1394 H 0.73928 1.00757 0.90061 0.0
H1395 H 0.70624 0.05098 0.86493 0.0
H1396 H 0.57857 0.05684 0.86377 0.0
H1397 H 0.57537 1.01404 0.90552 0.0
C1398 C 0.63734 0.98119 0.93405 0.0
C1399 C 0.67235 0.96455 0.9461 0.0
C1400 C 0.63891 1.00652 0.90968 0.0
C1401 C 0.70867 0.97455 0.93291 0.0
C1402 C 0.71047 1.00042 0.90948 0.0
C1403 C 0.6776 0.04318 0.87384 0.0
C1404 C 0.6426 0.05838 0.86096 0.0
C1405 C 0.67589 1.01689 0.89761 0.0
C1406 C 0.60607 0.04647 0.8729 0.0
C1407 C 0.60425 1.02169 0.89698 0.0
loop_
_geom_bond_atom_site_label_1
_geom_bond_atom_site_label_2
_geom_bond_distance
_geom_bond_site_symmetry_2
_ccdc_geom_bond_type
Ho0 C3 2.811 . S
Ho0 O20 2.322 . S
Ho0 O22 2.378 . S
Ho0 O23 2.524 . S
Ho0 O24 2.381 . S
Ho0 O25 2.669 . S
Ho0 O27 2.346 . S
Ho0 O31 2.305 . S
Ho1 C12 2.811 . S
Ho1 O21 2.346 . S
Ho1 O25 2.305 . S
Ho1 O26 2.322 . S
Ho1 O28 2.378 . S
Ho1 O29 2.524 . S
Ho1 O30 2.381 . S
Ho1 O31 2.669 . S
C2 O20 1.259 . S
C2 O21 1.268 . S
C3 Ho0 2.811 . S
C3 C4 1.488 . S
C3 O22 1.215 . S
C3 O23 1.289 . S
C4 C3 1.488 . S
C4 C5 1.348 . S
C4 C9 1.413 . S
C5 C4 1.348 . S
C5 C6 1.442 . S
C5 H32 0.930 . S
C6 C5 1.442 . S
C6 C7 1.381 . S
C6 H33 0.931 . S
C7 C6 1.381 . S
C7 C8 1.321 . S
C8 C7 1.321 . S
C8 C9 1.403 . S
C8 H34 0.934 . S
C9 C4 1.413 . S
C9 C8 1.403 . S
C9 H35 0.930 . S
C10 O24 1.275 . S
C10 O25 1.256 . S
C11 O26 1.259 . S
C11 O27 1.268 . S
C12 Ho1 2.811 . S
C12 C13 1.488 . S
C12 O28 1.215 . S
C12 O29 1.289 . S
C13 C12 1.488 . S
C13 C14 1.348 . S
C13 C18 1.413 1_545 S
C14 C13 1.348 . S
C14 C15 1.442 . S
C14 H36 0.930 . S
C15 C14 1.442 . S
C15 C16 1.381 1_545 S
C15 H37 0.931 . S
C16 C15 1.381 1_565 S
C16 C17 1.321 . S
C17 C16 1.321 . S
C17 C18 1.403 . S
C17 H38 0.934 . S
C18 C13 1.413 1_565 S
C18 C17 1.403 . S
C18 H39 0.930 . S
C19 O30 1.275 . S
C19 O31 1.256 . S
O20 Ho0 2.322 . S
O20 C2 1.259 . S
O21 Ho1 2.346 . S
O21 C2 1.268 . S
O22 Ho0 2.378 . S
O22 C3 1.215 . S
O23 Ho0 2.524 . S
O23 C3 1.289 . S
O24 Ho0 2.381 . S
O24 C10 1.275 . S
O25 Ho0 2.669 . S
O25 Ho1 2.305 . S
O25 C10 1.256 . S
O26 Ho1 2.322 . S
O26 C11 1.259 . S
O27 Ho0 2.346 . S
O27 C11 1.268 . S
O28 Ho1 2.378 . S
O28 C12 1.215 . S
O29 Ho1 2.524 . S
O29 C12 1.289 . S
O30 Ho1 2.381 . S
O30 C19 1.275 . S
O31 Ho0 2.305 . S
O31 Ho1 2.669 . S
O31 C19 1.256 . S
H32 C5 0.930 . S
H33 C6 0.931 . S
H34 C8 0.934 . S
H35 C9 0.930 . S
H36 C14 0.930 . S
H37 C15 0.931 . S
H38 C17 0.934 . S
H39 C18 0.930 . S
Ho40 C43 2.811 . S
Ho40 O60 2.322 . S
Ho40 O62 2.378 . S
Ho40 O63 2.524 . S
Ho40 O64 2.381 . S
Ho40 O65 2.669 . S
Ho40 O67 2.346 . S
Ho40 O71 2.305 . S
Ho41 C52 2.811 . S
Ho41 O61 2.346 . S
Ho41 O65 2.305 . S
Ho41 O66 2.322 . S
Ho41 O68 2.378 . S
Ho41 O69 2.524 . S
Ho41 O70 2.381 . S
Ho41 O71 2.669 . S
C42 O60 1.259 . S
C42 O61 1.268 . S
C43 Ho40 2.811 . S
C43 C44 1.488 . S
C43 O62 1.215 . S
C43 O63 1.289 . S
C44 C43 1.488 . S
C44 C45 1.348 . S
C44 C49 1.413 . S
C45 C44 1.348 . S
C45 C46 1.442 . S
C45 H72 0.930 . S
C46 C45 1.442 . S
C46 C47 1.381 . S
C46 H73 0.931 . S
C47 C46 1.381 . S
C47 C48 1.321 . S
C48 C47 1.321 . S
C48 C49 1.403 . S
C48 H74 0.934 . S
C49 C44 1.413 . S
C49 C48 1.403 . S
C49 H75 0.930 . S
C50 O64 1.275 . S
C50 O65 1.256 . S
C51 O66 1.259 . S
C51 O67 1.268 . S
C52 Ho41 2.811 . S
C52 C53 1.488 . S
C52 O68 1.215 . S
C52 O69 1.289 . S
C53 C52 1.488 . S
C53 C54 1.348 . S
C53 C58 1.413 . S
C54 C53 1.348 . S
C54 C55 1.442 . S
C54 H76 0.930 . S
C55 C54 1.442 . S
C55 C56 1.381 . S
C55 H77 0.931 . S
C56 C55 1.381 . S
C56 C57 1.321 . S
C57 C56 1.321 . S
C57 C58 1.403 . S
C57 H78 0.934 . S
C58 C53 1.413 . S
C58 C57 1.403 . S
C58 H79 0.930 . S
C59 O70 1.275 . S
C59 O71 1.256 . S
O60 Ho40 2.322 . S
O60 C42 1.259 . S
O61 Ho41 2.346 . S
O61 C42 1.268 . S
O62 Ho40 2.378 . S
O62 C43 1.215 . S
O63 Ho40 2.524 . S
O63 C43 1.289 . S
O64 Ho40 2.381 . S
O64 C50 1.275 . S
O65 Ho40 2.669 . S
O65 Ho41 2.305 . S
O65 C50 1.256 . S
O66 Ho41 2.322 . S
O66 C51 1.259 . S
O67 Ho40 2.346 . S
O67 C51 1.268 . S
O68 Ho41 2.378 . S
O68 C52 1.215 . S
O69 Ho41 2.524 . S
O69 C52 1.289 . S
O70 Ho41 2.381 . S
O70 C59 1.275 . S
O71 Ho40 2.305 . S
O71 Ho41 2.669 . S
O71 C59 1.256 . S
H72 C45 0.930 . S
H73 C46 0.931 . S
H74 C48 0.934 . S
H75 C49 0.930 . S
H76 C54 0.930 . S
H77 C55 0.931 . S
H78 C57 0.934 . S
H79 C58 0.930 . S
Ho80 C83 2.811 . S
Ho80 O100 2.322 . S
Ho80 O102 2.378 . S
Ho80 O103 2.524 . S
Ho80 O104 2.381 . S
Ho80 O105 2.669 . S
Ho80 O107 2.346 . S
Ho80 O111 2.305 . S
Ho81 C92 2.811 . S
Ho81 O101 2.346 . S
Ho81 O105 2.305 . S
Ho81 O106 2.322 . S
Ho81 O108 2.378 . S
Ho81 O109 2.524 . S
Ho81 O110 2.381 . S
Ho81 O111 2.669 . S
C82 O100 1.259 . S
C82 O101 1.268 . S
C83 Ho80 2.811 . S
C83 C84 1.488 . S
C83 O102 1.215 . S
C83 O103 1.289 . S
C84 C83 1.488 . S
C84 C85 1.348 . S
C84 C89 1.413 . S
C85 C84 1.348 . S
C85 C86 1.442 . S
C85 H112 0.930 . S
C86 C85 1.442 . S
C86 C87 1.381 . S
C86 H113 0.931 . S
C87 C86 1.381 . S
C87 C88 1.321 . S
C88 C87 1.321 . S
C88 C89 1.403 . S
C88 H114 0.934 . S
C89 C84 1.413 . S
C89 C88 1.403 . S
C89 H115 0.930 . S
C90 O104 1.275 . S
C90 O105 1.256 . S
C91 O106 1.259 . S
C91 O107 1.268 . S
C92 Ho81 2.811 . S
C92 C93 1.488 . S
C92 O108 1.215 . S
C92 O109 1.289 . S
C93 C92 1.488 . S
C93 C94 1.348 . S
C93 C98 1.413 1_565 S
C94 C93 1.348 . S
C94 C95 1.442 . S
C94 H116 0.930 . S
C95 C94 1.442 . S
C95 C96 1.381 1_565 S
C95 H117 0.931 . S
C96 C95 1.381 1_545 S
C96 C97 1.321 . S
C97 C96 1.321 . S
C97 C98 1.403 . S
C97 H118 0.934 . S
C98 C93 1.413 1_545 S
C98 C97 1.403 . S
C98 H119 0.930 . S
C99 O110 1.275 . S
C99 O111 1.256 . S
O100 Ho80 2.322 . S
O100 C82 1.259 . S
O101 Ho81 2.346 . S
O101 C82 1.268 . S
O102 Ho80 2.378 . S
O102 C83 1.215 . S
O103 Ho80 2.524 . S
O103 C83 1.289 . S
O104 Ho80 2.381 . S
O104 C90 1.275 . S
O105 Ho80 2.669 . S
O105 Ho81 2.305 . S
O105 C90 1.256 . S
O106 Ho81 2.322 . S
O106 C91 1.259 . S
O107 Ho80 2.346 . S
O107 C91 1.268 . S
O108 Ho81 2.378 . S
O108 C92 1.215 . S
O109 Ho81 2.524 . S
O109 C92 1.289 . S
O110 Ho81 2.381 . S
O110 C99 1.275 . S
O111 Ho80 2.305 . S
O111 Ho81 2.669 . S
O111 C99 1.256 . S
H112 C85 0.930 . S
H113 C86 0.931 . S
H114 C88 0.934 . S
H115 C89 0.930 . S
H116 C94 0.930 . S
H117 C95 0.931 . S
H118 C97 0.934 . S
H119 C98 0.930 . S
Ho120 C123 2.811 . S
Ho120 O140 2.322 . S
Ho120 O142 2.378 1_655 S
Ho120 O143 2.524 . S
Ho120 O144 2.381 . S
Ho120 O145 2.669 . S
Ho120 O147 2.346 . S
Ho120 O151 2.305 . S
Ho121 C132 2.811 . S
Ho121 O141 2.346 . S
Ho121 O145 2.305 . S
Ho121 O146 2.322 . S
Ho121 O148 2.378 . S
Ho121 O149 2.524 . S
Ho121 O150 2.381 . S
Ho121 O151 2.669 . S
C122 O140 1.259 . S
C122 O141 1.268 . S
C123 Ho120 2.811 . S
C123 C124 1.488 1_655 S
C123 O142 1.215 1_655 S
C123 O143 1.289 . S
C124 C123 1.488 1_455 S
C124 C125 1.348 1_455 S
C124 C129 1.413 . S
C125 C124 1.348 1_655 S
C125 C126 1.442 1_655 S
C125 H152 0.929 . S
C126 C125 1.442 1_455 S
C126 C127 1.381 . S
C126 H153 0.931 . S
C127 C126 1.381 . S
C127 C128 1.321 . S
C128 C127 1.321 . S
C128 C129 1.403 . S
C128 H154 0.934 . S
C129 C124 1.413 . S
C129 C128 1.403 . S
C129 H155 0.930 . S
C130 O144 1.275 . S
C130 O145 1.256 . S
C131 O146 1.259 . S
C131 O147 1.268 . S
C132 Ho121 2.811 . S
C132 C133 1.488 . S
C132 O148 1.215 . S
C132 O149 1.289 . S
C133 C132 1.488 . S
C133 C134 1.348 . S
C133 C138 1.413 . S
C134 C133 1.348 . S
C134 C135 1.442 . S
C134 H156 0.930 . S
C135 C134 1.442 . S
C135 C136 1.381 . S
C135 H157 0.931 . S
C136 C135 1.381 . S
C136 C137 1.321 . S
C137 C136 1.321 . S
C137 C138 1.403 . S
C137 H158 0.934 . S
C138 C133 1.413 . S
C138 C137 1.403 . S
C138 H159 0.930 . S
C139 O150 1.275 . S
C139 O151 1.256 . S
O140 Ho120 2.322 . S
O140 C122 1.259 . S
O141 Ho121 2.346 . S
O141 C122 1.268 . S
O142 Ho120 2.378 1_455 S
O142 C123 1.215 1_455 S
O143 Ho120 2.524 . S
O143 C123 1.289 . S
O144 Ho120 2.381 . S
O144 C130 1.275 . S
O145 Ho120 2.669 . S
O145 Ho121 2.305 . S
O145 C130 1.256 . S
O146 Ho121 2.322 . S
O146 C131 1.259 . S
O147 Ho120 2.346 . S
O147 C131 1.268 . S
O148 Ho121 2.378 . S
O148 C132 1.215 . S
O149 Ho121 2.524 . S
O149 C132 1.289 . S
O150 Ho121 2.381 . S
O150 C139 1.275 . S
O151 Ho120 2.305 . S
O151 Ho121 2.669 . S
O151 C139 1.256 . S
H152 C125 0.929 . S
H153 C126 0.931 . S
H154 C128 0.934 . S
H155 C129 0.930 . S
H156 C134 0.930 . S
H157 C135 0.931 . S
H158 C137 0.934 . S
H159 C138 0.930 . S
Ho160 C163 2.811 . S
Ho160 O180 2.322 . S
Ho160 O182 2.378 . S
Ho160 O183 2.524 . S
Ho160 O184 2.381 . S
Ho160 O185 2.669 . S
Ho160 O187 2.346 . S
Ho160 O191 2.305 . S
Ho161 C172 2.811 . S
Ho161 O181 2.346 . S
Ho161 O185 2.305 . S
Ho161 O186 2.322 . S
Ho161 O188 2.378 . S
Ho161 O189 2.524 . S
Ho161 O190 2.381 . S
Ho161 O191 2.669 . S
C162 O180 1.259 . S
C162 O181 1.268 . S
C163 Ho160 2.811 . S
C163 C164 1.488 . S
C163 O182 1.215 . S
C163 O183 1.289 . S
C164 C163 1.488 . S
C164 C165 1.348 . S
C164 C169 1.413 1_565 S
C165 C164 1.348 . S
C165 C166 1.442 . S
C165 H192 0.930 . S
C166 C165 1.442 . S
C166 C167 1.381 1_565 S
C166 H193 0.931 . S
C167 C166 1.381 1_545 S
C167 C168 1.321 . S
C168 C167 1.321 . S
C168 C169 1.403 . S
C168 H194 0.934 . S
C169 C164 1.413 1_545 S
C169 C168 1.403 . S
C169 H195 0.930 . S
C170 O184 1.275 . S
C170 O185 1.256 . S
C171 O186 1.259 . S
C171 O187 1.268 . S
C172 Ho161 2.811 . S
C172 C173 1.488 . S
C172 O188 1.215 . S
C172 O189 1.289 . S
C173 C172 1.488 . S
C173 C174 1.348 . S
C173 C178 1.413 . S
C174 C173 1.348 . S
C174 C175 1.442 . S
C174 H196 0.930 . S
C175 C174 1.442 . S
C175 C176 1.381 . S
C175 H197 0.931 . S
C176 C175 1.381 . S
C176 C177 1.321 . S
C177 C176 1.321 . S
C177 C178 1.403 . S
C177 H198 0.934 . S
C178 C173 1.413 . S
C178 C177 1.403 . S
C178 H199 0.930 . S
C179 O190 1.275 . S
C179 O191 1.256 . S
O180 Ho160 2.322 . S
O180 C162 1.259 . S
O181 Ho161 2.346 . S
O181 C162 1.268 . S
O182 Ho160 2.378 . S
O182 C163 1.215 . S
O183 Ho160 2.524 . S
O183 C163 1.289 . S
O184 Ho160 2.381 . S
O184 C170 1.275 . S
O185 Ho160 2.669 . S
O185 Ho161 2.305 . S
O185 C170 1.256 . S
O186 Ho161 2.322 . S
O186 C171 1.259 . S
O187 Ho160 2.346 . S
O187 C171 1.268 . S
O188 Ho161 2.378 . S
O188 C172 1.215 . S
O189 Ho161 2.524 . S
O189 C172 1.289 . S
O190 Ho161 2.381 . S
O190 C179 1.275 . S
O191 Ho160 2.305 . S
O191 Ho161 2.669 . S
O191 C179 1.256 . S
H192 C165 0.930 . S
H193 C166 0.931 . S
H194 C168 0.934 . S
H195 C169 0.930 . S
H196 C174 0.930 . S
H197 C175 0.931 . S
H198 C177 0.934 . S
H199 C178 0.930 . S
Ho200 C203 2.811 . S
Ho200 O220 2.322 . S
Ho200 O222 2.378 . S
Ho200 O223 2.524 . S
Ho200 O224 2.381 . S
Ho200 O225 2.669 . S
Ho200 O227 2.346 . S
Ho200 O231 2.305 . S
Ho201 C212 2.811 . S
Ho201 O221 2.346 . S
Ho201 O225 2.305 . S
Ho201 O226 2.322 . S
Ho201 O228 2.378 . S
Ho201 O229 2.524 . S
Ho201 O230 2.381 . S
Ho201 O231 2.669 . S
C202 O220 1.259 . S
C202 O221 1.268 . S
C203 Ho200 2.811 . S
C203 C204 1.488 . S
C203 O222 1.215 . S
C203 O223 1.289 . S
C204 C203 1.488 . S
C204 C205 1.348 . S
C204 C209 1.413 . S
C205 C204 1.348 . S
C205 C206 1.442 . S
C205 H232 0.930 . S
C206 C205 1.442 . S
C206 C207 1.381 . S
C206 H233 0.931 . S
C207 C206 1.381 . S
C207 C208 1.321 . S
C208 C207 1.321 . S
C208 C209 1.403 . S
C208 H234 0.934 . S
C209 C204 1.413 . S
C209 C208 1.403 . S
C209 H235 0.930 . S
C210 O224 1.275 . S
C210 O225 1.256 . S
C211 O226 1.259 . S
C211 O227 1.268 . S
C212 Ho201 2.811 . S
C212 C213 1.488 . S
C212 O228 1.215 . S
C212 O229 1.289 . S
C213 C212 1.488 . S
C213 C214 1.348 . S
C213 C218 1.413 . S
C214 C213 1.348 . S
C214 C215 1.442 . S
C214 H236 0.930 . S
C215 C214 1.442 . S
C215 C216 1.381 . S
C215 H237 0.931 . S
C216 C215 1.381 . S
C216 C217 1.321 . S
C217 C216 1.321 . S
C217 C218 1.403 . S
C217 H238 0.934 . S
C218 C213 1.413 . S
C218 C217 1.403 . S
C218 H239 0.930 . S
C219 O230 1.275 . S
C219 O231 1.256 . S
O220 Ho200 2.322 . S
O220 C202 1.259 . S
O221 Ho201 2.346 . S
O221 C202 1.268 . S
O222 Ho200 2.378 . S
O222 C203 1.215 . S
O223 Ho200 2.524 . S
O223 C203 1.289 . S
O224 Ho200 2.381 . S
O224 C210 1.275 . S
O225 Ho200 2.669 . S
O225 Ho201 2.305 . S
O225 C210 1.256 . S
O226 Ho201 2.322 . S
O226 C211 1.259 . S
O227 Ho200 2.346 . S
O227 C211 1.268 . S
O228 Ho201 2.378 . S
O228 C212 1.215 . S
O229 Ho201 2.524 . S
O229 C212 1.289 . S
O230 Ho201 2.381 . S
O230 C219 1.275 . S
O231 Ho200 2.305 . S
O231 Ho201 2.669 . S
O231 C219 1.256 . S
H232 C205 0.930 . S
H233 C206 0.931 . S
H234 C208 0.934 . S
H235 C209 0.930 . S
H236 C214 0.930 . S
H237 C215 0.931 . S
H238 C217 0.934 . S
H239 C218 0.930 . S
Ho240 C243 2.811 . S
Ho240 O260 2.322 . S
Ho240 O262 2.378 . S
Ho240 O263 2.524 . S
Ho240 O264 2.381 . S
Ho240 O265 2.669 . S
Ho240 O267 2.346 . S
Ho240 O271 2.305 . S
Ho241 C252 2.811 . S
Ho241 O261 2.346 . S
Ho241 O265 2.305 . S
Ho241 O266 2.322 . S
Ho241 O268 2.378 . S
Ho241 O269 2.524 . S
Ho241 O270 2.381 . S
Ho241 O271 2.669 . S
C242 O260 1.259 . S
C242 O261 1.268 . S
C243 Ho240 2.811 . S
C243 C244 1.488 . S
C243 O262 1.215 . S
C243 O263 1.289 . S
C244 C243 1.488 . S
C244 C245 1.348 . S
C244 C249 1.413 1_545 S
C245 C244 1.348 . S
C245 C246 1.442 . S
C245 H272 0.930 . S
C246 C245 1.442 . S
C246 C247 1.381 1_545 S
C246 H273 0.931 . S
C247 C246 1.381 1_565 S
C247 C248 1.321 . S
C248 C247 1.321 . S
C248 C249 1.403 . S
C248 H274 0.934 . S
C249 C244 1.413 1_565 S
C249 C248 1.403 . S
C249 H275 0.930 . S
C250 O264 1.275 . S
C250 O265 1.256 . S
C251 O266 1.259 . S
C251 O267 1.268 . S
C252 Ho241 2.811 . S
C252 C253 1.488 . S
C252 O268 1.215 . S
C252 O269 1.289 . S
C253 C252 1.488 . S
C253 C254 1.348 . S
C253 C258 1.413 . S
C254 C253 1.348 . S
C254 C255 1.442 . S
C254 H276 0.930 . S
C255 C254 1.442 . S
C255 C256 1.381 . S
C255 H277 0.931 . S
C256 C255 1.381 . S
C256 C257 1.321 . S
C257 C256 1.321 . S
C257 C258 1.403 . S
C257 H278 0.934 . S
C258 C253 1.413 . S
C258 C257 1.403 . S
C258 H279 0.930 . S
C259 O270 1.275 . S
C259 O271 1.256 . S
O260 Ho240 2.322 . S
O260 C242 1.259 . S
O261 Ho241 2.346 . S
O261 C242 1.268 . S
O262 Ho240 2.378 . S
O262 C243 1.215 . S
O263 Ho240 2.524 . S
O263 C243 1.289 . S
O264 Ho240 2.381 . S
O264 C250 1.275 . S
O265 Ho240 2.669 . S
O265 Ho241 2.305 . S
O265 C250 1.256 . S
O266 Ho241 2.322 . S
O266 C251 1.259 . S
O267 Ho240 2.346 . S
O267 C251 1.268 . S
O268 Ho241 2.378 . S
O268 C252 1.215 . S
O269 Ho241 2.524 . S
O269 C252 1.289 . S
O270 Ho241 2.381 . S
O270 C259 1.275 . S
O271 Ho240 2.305 . S
O271 Ho241 2.669 . S
O271 C259 1.256 . S
H272 C245 0.930 . S
H273 C246 0.931 . S
H274 C248 0.934 . S
H275 C249 0.930 . S
H276 C254 0.930 . S
H277 C255 0.931 . S
H278 C257 0.934 . S
H279 C258 0.930 . S
Ho280 C283 2.811 . S
Ho280 O300 2.322 . S
Ho280 O302 2.378 . S
Ho280 O303 2.524 . S
Ho280 O304 2.381 . S
Ho280 O305 2.669 . S
Ho280 O307 2.346 . S
Ho280 O311 2.305 . S
Ho281 C292 2.811 . S
Ho281 O301 2.346 . S
Ho281 O305 2.305 . S
Ho281 O306 2.322 . S
Ho281 O308 2.378 1_455 S
Ho281 O309 2.524 . S
Ho281 O310 2.381 . S
Ho281 O311 2.669 . S
C282 O300 1.259 . S
C282 O301 1.268 . S
C283 Ho280 2.811 . S
C283 C284 1.488 . S
C283 O302 1.215 . S
C283 O303 1.289 . S
C284 C283 1.488 . S
C284 C285 1.348 . S
C284 C289 1.413 . S
C285 C284 1.348 . S
C285 C286 1.442 . S
C285 H312 0.930 . S
C286 C285 1.442 . S
C286 C287 1.381 . S
C286 H313 0.931 . S
C287 C286 1.381 . S
C287 C288 1.321 . S
C288 C287 1.321 . S
C288 C289 1.403 . S
C288 H314 0.934 . S
C289 C284 1.413 . S
C289 C288 1.403 . S
C289 H315 0.930 . S
C290 O304 1.275 . S
C290 O305 1.256 . S
C291 O306 1.259 . S
C291 O307 1.268 . S
C292 Ho281 2.811 . S
C292 C293 1.488 1_455 S
C292 O308 1.215 1_455 S
C292 O309 1.289 . S
C293 C292 1.488 1_655 S
C293 C294 1.348 1_655 S
C293 C298 1.413 . S
C294 C293 1.348 1_455 S
C294 C295 1.442 1_455 S
C294 H316 0.929 . S
C295 C294 1.442 1_655 S
C295 C296 1.381 . S
C295 H317 0.931 . S
C296 C295 1.381 . S
C296 C297 1.321 . S
C297 C296 1.321 . S
C297 C298 1.403 . S
C297 H318 0.934 . S
C298 C293 1.413 . S
C298 C297 1.403 . S
C298 H319 0.930 . S
C299 O310 1.275 . S
C299 O311 1.256 . S
O300 Ho280 2.322 . S
O300 C282 1.259 . S
O301 Ho281 2.346 . S
O301 C282 1.268 . S
O302 Ho280 2.378 . S
O302 C283 1.215 . S
O303 Ho280 2.524 . S
O303 C283 1.289 . S
O304 Ho280 2.381 . S
O304 C290 1.275 . S
O305 Ho280 2.669 . S
O305 Ho281 2.305 . S
O305 C290 1.256 . S
O306 Ho281 2.322 . S
O306 C291 1.259 . S
O307 Ho280 2.346 . S
O307 C291 1.268 . S
O308 Ho281 2.378 1_655 S
O308 C292 1.215 1_655 S
O309 Ho281 2.524 . S
O309 C292 1.289 . S
O310 Ho281 2.381 . S
O310 C299 1.275 . S
O311 Ho280 2.305 . S
O311 Ho281 2.669 . S
O311 C299 1.256 . S
H312 C285 0.930 . S
H313 C286 0.931 . S
H314 C288 0.934 . S
H315 C289 0.930 . S
H316 C294 0.929 . S
H317 C295 0.931 . S
H318 C297 0.934 . S
H319 C298 0.930 . S
Ho320 C323 2.811 . S
Ho320 O340 2.322 . S
Ho320 O342 2.378 . S
Ho320 O343 2.524 . S
Ho320 O344 2.381 . S
Ho320 O345 2.669 . S
Ho320 O347 2.346 . S
Ho320 O351 2.305 . S
Ho321 C332 2.811 . S
Ho321 O341 2.346 . S
Ho321 O345 2.305 . S
Ho321 O346 2.322 . S
Ho321 O348 2.378 . S
Ho321 O349 2.524 . S
Ho321 O350 2.381 . S
Ho321 O351 2.669 . S
C322 O340 1.259 . S
C322 O341 1.268 . S
C323 Ho320 2.811 . S
C323 C324 1.488 . S
C323 O342 1.215 . S
C323 O343 1.289 . S
C324 C323 1.488 . S
C324 C325 1.348 . S
C324 C329 1.413 . S
C325 C324 1.348 . S
C325 C326 1.442 . S
C325 H352 0.930 . S
C326 C325 1.442 . S
C326 C327 1.381 . S
C326 H353 0.931 . S
C327 C326 1.381 . S
C327 C328 1.321 . S
C328 C327 1.321 . S
C328 C329 1.403 . S
C328 H354 0.934 . S
C329 C324 1.413 . S
C329 C328 1.403 . S
C329 H355 0.930 . S
C330 O344 1.275 . S
C330 O345 1.256 . S
C331 O346 1.259 . S
C331 O347 1.268 . S
C332 Ho321 2.811 . S
C332 C333 1.488 . S
C332 O348 1.215 . S
C332 O349 1.289 . S
C333 C332 1.488 . S
C333 C334 1.348 . S
C333 C338 1.413 . S
C334 C333 1.348 . S
C334 C335 1.442 . S
C334 H356 0.930 . S
C335 C334 1.442 . S
C335 C336 1.381 . S
C335 H357 0.931 . S
C336 C335 1.381 . S
C336 C337 1.321 . S
C337 C336 1.321 . S
C337 C338 1.403 . S
C337 H358 0.934 . S
C338 C333 1.413 . S
C338 C337 1.403 . S
C338 H359 0.930 . S
C339 O350 1.275 . S
C339 O351 1.256 . S
O340 Ho320 2.322 . S
O340 C322 1.259 . S
O341 Ho321 2.346 . S
O341 C322 1.268 . S
O342 Ho320 2.378 . S
O342 C323 1.215 . S
O343 Ho320 2.524 . S
O343 C323 1.289 . S
O344 Ho320 2.381 . S
O344 C330 1.275 . S
O345 Ho320 2.669 . S
O345 Ho321 2.305 . S
O345 C330 1.256 . S
O346 Ho321 2.322 . S
O346 C331 1.259 . S
O347 Ho320 2.346 . S
O347 C331 1.268 . S
O348 Ho321 2.378 . S
O348 C332 1.215 . S
O349 Ho321 2.524 . S
O349 C332 1.289 . S
O350 Ho321 2.381 . S
O350 C339 1.275 . S
O351 Ho320 2.305 . S
O351 Ho321 2.669 . S
O351 C339 1.256 . S
H352 C325 0.930 . S
H353 C326 0.931 . S
H354 C328 0.934 . S
H355 C329 0.930 . S
H356 C334 0.930 . S
H357 C335 0.931 . S
H358 C337 0.934 . S
H359 C338 0.930 . S
Ho360 C363 2.811 . S
Ho360 O380 2.322 . S
Ho360 O382 2.378 1_455 S
Ho360 O383 2.524 1_545 S
Ho360 O384 2.381 . S
Ho360 O385 2.669 . S
Ho360 O387 2.346 . S
Ho360 O391 2.305 . S
Ho361 C372 2.811 . S
Ho361 O381 2.346 . S
Ho361 O385 2.305 . S
Ho361 O386 2.322 . S
Ho361 O388 2.378 . S
Ho361 O389 2.524 . S
Ho361 O390 2.381 . S
Ho361 O391 2.669 . S
C362 O380 1.259 . S
C362 O381 1.268 . S
C363 Ho360 2.811 . S
C363 C364 1.488 1_445 S
C363 O382 1.215 1_455 S
C363 O383 1.289 1_545 S
C364 C363 1.488 1_665 S
C364 C365 1.348 1_655 S
C364 C369 1.414 . S
C365 C364 1.348 1_455 S
C365 C366 1.442 1_455 S
C365 H392 0.929 . S
C366 C365 1.442 1_655 S
C366 C367 1.381 . S
C366 H393 0.931 . S
C367 C366 1.381 . S
C367 C368 1.321 . S
C368 C367 1.321 . S
C368 C369 1.404 . S
C368 H394 0.934 . S
C369 C364 1.414 . S
C369 C368 1.404 . S
C369 H395 0.928 1_565 S
C370 O384 1.275 . S
C370 O385 1.256 . S
C371 O386 1.259 . S
C371 O387 1.268 . S
C372 Ho361 2.811 . S
C372 C373 1.488 . S
C372 O388 1.215 . S
C372 O389 1.289 . S
C373 C372 1.488 . S
C373 C374 1.348 . S
C373 C378 1.413 . S
C374 C373 1.348 . S
C374 C375 1.442 . S
C374 H396 0.930 . S
C375 C374 1.442 . S
C375 C376 1.381 . S
C375 H397 0.931 . S
C376 C375 1.381 . S
C376 C377 1.321 . S
C377 C376 1.321 . S
C377 C378 1.403 . S
C377 H398 0.934 . S
C378 C373 1.413 . S
C378 C377 1.403 . S
C378 H399 0.930 . S
C379 O390 1.275 . S
C379 O391 1.256 . S
O380 Ho360 2.322 . S
O380 C362 1.259 . S
O381 Ho361 2.346 . S
O381 C362 1.268 . S
O382 Ho360 2.378 1_655 S
O382 C363 1.215 1_655 S
O383 Ho360 2.524 1_565 S
O383 C363 1.289 1_565 S
O384 Ho360 2.381 . S
O384 C370 1.275 . S
O385 Ho360 2.669 . S
O385 Ho361 2.305 . S
O385 C370 1.256 . S
O386 Ho361 2.322 . S
O386 C371 1.259 . S
O387 Ho360 2.346 . S
O387 C371 1.268 . S
O388 Ho361 2.378 . S
O388 C372 1.215 . S
O389 Ho361 2.524 . S
O389 C372 1.289 . S
O390 Ho361 2.381 . S
O390 C379 1.275 . S
O391 Ho360 2.305 . S
O391 Ho361 2.669 . S
O391 C379 1.256 . S
H392 C365 0.929 . S
H393 C366 0.931 . S
H394 C368 0.934 . S
H395 C369 0.928 1_545 S
H396 C374 0.930 . S
H397 C375 0.931 . S
H398 C377 0.934 . S
H399 C378 0.930 . S
Ho400 C403 2.811 . S
Ho400 O420 2.322 . S
Ho400 O422 2.378 . S
Ho400 O423 2.524 . S
Ho400 O424 2.381 . S
Ho400 O425 2.669 . S
Ho400 O427 2.346 . S
Ho400 O431 2.305 . S
Ho401 C412 2.811 . S
Ho401 O421 2.346 . S
Ho401 O425 2.305 . S
Ho401 O426 2.322 . S
Ho401 O428 2.378 . S
Ho401 O429 2.524 . S
Ho401 O430 2.381 . S
Ho401 O431 2.669 . S
C402 O420 1.259 . S
C402 O421 1.268 . S
C403 Ho400 2.811 . S
C403 C404 1.488 . S
C403 O422 1.215 . S
C403 O423 1.289 . S
C404 C403 1.488 . S
C404 C405 1.348 . S
C404 C409 1.413 . S
C405 C404 1.348 . S
C405 C406 1.442 . S
C405 H432 0.930 . S
C406 C405 1.442 . S
C406 C407 1.381 . S
C406 H433 0.931 . S
C407 C406 1.381 . S
C407 C408 1.321 . S
C408 C407 1.321 . S
C408 C409 1.403 . S
C408 H434 0.934 . S
C409 C404 1.413 . S
C409 C408 1.403 . S
C409 H435 0.930 . S
C410 O424 1.275 . S
C410 O425 1.256 . S
C411 O426 1.259 . S
C411 O427 1.268 . S
C412 Ho401 2.811 . S
C412 C413 1.488 . S
C412 O428 1.215 . S
C412 O429 1.289 . S
C413 C412 1.488 . S
C413 C414 1.348 . S
C413 C418 1.413 . S
C414 C413 1.348 . S
C414 C415 1.442 . S
C414 H436 0.930 . S
C415 C414 1.442 . S
C415 C416 1.381 . S
C415 H437 0.931 . S
C416 C415 1.381 . S
C416 C417 1.321 . S
C417 C416 1.321 . S
C417 C418 1.403 . S
C417 H438 0.934 . S
C418 C413 1.413 . S
C418 C417 1.403 . S
C418 H439 0.930 . S
C419 O430 1.275 . S
C419 O431 1.256 . S
O420 Ho400 2.322 . S
O420 C402 1.259 . S
O421 Ho401 2.346 . S
O421 C402 1.268 . S
O422 Ho400 2.378 . S
O422 C403 1.215 . S
O423 Ho400 2.524 . S
O423 C403 1.289 . S
O424 Ho400 2.381 . S
O424 C410 1.275 . S
O425 Ho400 2.669 . S
O425 Ho401 2.305 . S
O425 C410 1.256 . S
O426 Ho401 2.322 . S
O426 C411 1.259 . S
O427 Ho400 2.346 . S
O427 C411 1.268 . S
O428 Ho401 2.378 . S
O428 C412 1.215 . S
O429 Ho401 2.524 . S
O429 C412 1.289 . S
O430 Ho401 2.381 . S
O430 C419 1.275 . S
O431 Ho400 2.305 . S
O431 Ho401 2.669 . S
O431 C419 1.256 . S
H432 C405 0.930 . S
H433 C406 0.931 . S
H434 C408 0.934 . S
H435 C409 0.930 . S
H436 C414 0.930 . S
H437 C415 0.931 . S
H438 C417 0.934 . S
H439 C418 0.930 . S
Ho440 C443 2.811 . S
Ho440 O460 2.322 . S
Ho440 O462 2.378 . S
Ho440 O463 2.524 1_565 S
Ho440 O464 2.381 . S
Ho440 O465 2.669 . S
Ho440 O467 2.346 . S
Ho440 O471 2.305 . S
Ho441 C452 2.811 . S
Ho441 O461 2.346 . S
Ho441 O465 2.305 . S
Ho441 O466 2.322 . S
Ho441 O468 2.378 . S
Ho441 O469 2.524 . S
Ho441 O470 2.381 . S
Ho441 O471 2.669 . S
C442 O460 1.259 . S
C442 O461 1.268 . S
C443 Ho440 2.811 . S
C443 C444 1.488 1_565 S
C443 O462 1.215 . S
C443 O463 1.289 1_565 S
C444 C443 1.488 1_545 S
C444 C445 1.348 . S
C444 C449 1.414 . S
C445 C444 1.348 . S
C445 C446 1.442 . S
C445 H472 0.930 . S
C446 C445 1.442 . S
C446 C447 1.381 . S
C446 H473 0.931 . S
C447 C446 1.381 . S
C447 C448 1.321 . S
C448 C447 1.321 . S
C448 C449 1.404 . S
C448 H474 0.934 . S
C449 C444 1.414 . S
C449 C448 1.404 . S
C449 H475 0.928 1_545 S
C450 O464 1.275 . S
C450 O465 1.256 . S
C451 O466 1.259 . S
C451 O467 1.268 . S
C452 Ho441 2.811 . S
C452 C453 1.488 . S
C452 O468 1.215 . S
C452 O469 1.289 . S
C453 C452 1.488 . S
C453 C454 1.348 . S
C453 C458 1.413 . S
C454 C453 1.348 . S
C454 C455 1.442 . S
C454 H476 0.930 . S
C455 C454 1.442 . S
C455 C456 1.381 . S
C455 H477 0.931 . S
C456 C455 1.381 . S
C456 C457 1.321 . S
C457 C456 1.321 . S
C457 C458 1.403 . S
C457 H478 0.934 . S
C458 C453 1.413 . S
C458 C457 1.403 . S
C458 H479 0.930 . S
C459 O470 1.275 . S
C459 O471 1.256 . S
O460 Ho440 2.322 . S
O460 C442 1.259 . S
O461 Ho441 2.346 . S
O461 C442 1.268 . S
O462 Ho440 2.378 . S
O462 C443 1.215 . S
O463 Ho440 2.524 1_545 S
O463 C443 1.289 1_545 S
O464 Ho440 2.381 . S
O464 C450 1.275 . S
O465 Ho440 2.669 . S
O465 Ho441 2.305 . S
O465 C450 1.256 . S
O466 Ho441 2.322 . S
O466 C451 1.259 . S
O467 Ho440 2.346 . S
O467 C451 1.268 . S
O468 Ho441 2.378 . S
O468 C452 1.215 . S
O469 Ho441 2.524 . S
O469 C452 1.289 . S
O470 Ho441 2.381 . S
O470 C459 1.275 . S
O471 Ho440 2.305 . S
O471 Ho441 2.669 . S
O471 C459 1.256 . S
H472 C445 0.930 . S
H473 C446 0.931 . S
H474 C448 0.934 . S
H475 C449 0.928 1_565 S
H476 C454 0.930 . S
H477 C455 0.931 . S
H478 C457 0.934 . S
H479 C458 0.930 . S
Ho480 C483 2.811 . S
Ho480 O500 2.322 . S
Ho480 O502 2.378 . S
Ho480 O503 2.524 . S
Ho480 O504 2.381 . S
Ho480 O505 2.669 . S
Ho480 O507 2.346 . S
Ho480 O511 2.305 . S
Ho481 C492 2.811 . S
Ho481 O501 2.346 . S
Ho481 O505 2.305 . S
Ho481 O506 2.322 . S
Ho481 O508 2.378 . S
Ho481 O509 2.524 . S
Ho481 O510 2.381 . S
Ho481 O511 2.669 . S
C482 O500 1.259 . S
C482 O501 1.268 . S
C483 Ho480 2.811 . S
C483 C484 1.488 . S
C483 O502 1.215 . S
C483 O503 1.289 . S
C484 C483 1.488 . S
C484 C485 1.348 . S
C484 C489 1.413 . S
C485 C484 1.348 . S
C485 C486 1.442 . S
C485 H512 0.930 . S
C486 C485 1.442 . S
C486 C487 1.381 . S
C486 H513 0.931 . S
C487 C486 1.381 . S
C487 C488 1.321 . S
C488 C487 1.321 . S
C488 C489 1.403 . S
C488 H514 0.934 . S
C489 C484 1.413 . S
C489 C488 1.403 . S
C489 H515 0.930 . S
C490 O504 1.275 . S
C490 O505 1.256 . S
C491 O506 1.259 . S
C491 O507 1.268 . S
C492 Ho481 2.811 . S
C492 C493 1.488 . S
C492 O508 1.215 . S
C492 O509 1.289 . S
C493 C492 1.488 . S
C493 C494 1.348 . S
C493 C498 1.413 . S
C494 C493 1.348 . S
C494 C495 1.442 . S
C494 H516 0.930 . S
C495 C494 1.442 . S
C495 C496 1.381 . S
C495 H517 0.931 . S
C496 C495 1.381 . S
C496 C497 1.321 . S
C497 C496 1.321 . S
C497 C498 1.403 . S
C497 H518 0.934 . S
C498 C493 1.413 . S
C498 C497 1.403 . S
C498 H519 0.930 . S
C499 O510 1.275 . S
C499 O511 1.256 . S
O500 Ho480 2.322 . S
O500 C482 1.259 . S
O501 Ho481 2.346 . S
O501 C482 1.268 . S
O502 Ho480 2.378 . S
O502 C483 1.215 . S
O503 Ho480 2.524 . S
O503 C483 1.289 . S
O504 Ho480 2.381 . S
O504 C490 1.275 . S
O505 Ho480 2.669 . S
O505 Ho481 2.305 . S
O505 C490 1.256 . S
O506 Ho481 2.322 . S
O506 C491 1.259 . S
O507 Ho480 2.346 . S
O507 C491 1.268 . S
O508 Ho481 2.378 . S
O508 C492 1.215 . S
O509 Ho481 2.524 . S
O509 C492 1.289 . S
O510 Ho481 2.381 . S
O510 C499 1.275 . S
O511 Ho480 2.305 . S
O511 Ho481 2.669 . S
O511 C499 1.256 . S
H512 C485 0.930 . S
H513 C486 0.931 . S
H514 C488 0.934 . S
H515 C489 0.930 . S
H516 C494 0.930 . S
H517 C495 0.931 . S
H518 C497 0.934 . S
H519 C498 0.930 . S
Ho520 C523 2.811 . S
Ho520 O540 2.322 . S
Ho520 O542 2.378 . S
Ho520 O543 2.524 . S
Ho520 O544 2.381 . S
Ho520 O545 2.669 . S
Ho520 O547 2.346 . S
Ho520 O551 2.305 . S
Ho521 C532 2.811 . S
Ho521 O541 2.346 . S
Ho521 O545 2.305 . S
Ho521 O546 2.322 . S
Ho521 O548 2.378 1_655 S
Ho521 O549 2.524 1_565 S
Ho521 O550 2.381 . S
Ho521 O551 2.669 . S
C522 O540 1.259 . S
C522 O541 1.268 . S
C523 Ho520 2.811 . S
C523 C524 1.488 . S
C523 O542 1.215 . S
C523 O543 1.289 . S
C524 C523 1.488 . S
C524 C525 1.348 . S
C524 C529 1.413 . S
C525 C524 1.348 . S
C525 C526 1.442 . S
C525 H552 0.930 . S
C526 C525 1.442 . S
C526 C527 1.381 . S
C526 H553 0.931 . S
C527 C526 1.381 . S
C527 C528 1.321 . S
C528 C527 1.321 . S
C528 C529 1.403 . S
C528 H554 0.934 . S
C529 C524 1.413 . S
C529 C528 1.403 . S
C529 H555 0.930 . S
C530 O544 1.275 . S
C530 O545 1.256 . S
C531 O546 1.259 . S
C531 O547 1.268 . S
C532 Ho521 2.811 . S
C532 C533 1.488 1_665 S
C532 O548 1.215 1_655 S
C532 O549 1.289 1_565 S
C533 C532 1.488 1_445 S
C533 C534 1.348 1_455 S
C533 C538 1.414 . S
C534 C533 1.348 1_655 S
C534 C535 1.442 1_655 S
C534 H556 0.929 . S
C535 C534 1.442 1_455 S
C535 C536 1.381 . S
C535 H557 0.931 . S
C536 C535 1.381 . S
C536 C537 1.321 . S
C537 C536 1.321 . S
C537 C538 1.404 . S
C537 H558 0.934 . S
C538 C533 1.414 . S
C538 C537 1.404 . S
C538 H559 0.928 1_545 S
C539 O550 1.275 . S
C539 O551 1.256 . S
O540 Ho520 2.322 . S
O540 C522 1.259 . S
O541 Ho521 2.346 . S
O541 C522 1.268 . S
O542 Ho520 2.378 . S
O542 C523 1.215 . S
O543 Ho520 2.524 . S
O543 C523 1.289 . S
O544 Ho520 2.381 . S
O544 C530 1.275 . S
O545 Ho520 2.669 . S
O545 Ho521 2.305 . S
O545 C530 1.256 . S
O546 Ho521 2.322 . S
O546 C531 1.259 . S
O547 Ho520 2.346 . S
O547 C531 1.268 . S
O548 Ho521 2.378 1_455 S
O548 C532 1.215 1_455 S
O549 Ho521 2.524 1_545 S
O549 C532 1.289 1_545 S
O550 Ho521 2.381 . S
O550 C539 1.275 . S
O551 Ho520 2.305 . S
O551 Ho521 2.669 . S
O551 C539 1.256 . S
H552 C525 0.930 . S
H553 C526 0.931 . S
H554 C528 0.934 . S
H555 C529 0.930 . S
H556 C534 0.929 . S
H557 C535 0.931 . S
H558 C537 0.934 . S
H559 C538 0.928 1_565 S
Ho560 C563 2.811 . S
Ho560 O580 2.322 . S
Ho560 O582 2.378 . S
Ho560 O583 2.524 . S
Ho560 O584 2.381 . S
Ho560 O585 2.669 . S
Ho560 O587 2.346 . S
Ho560 O591 2.305 . S
Ho561 C572 2.811 . S
Ho561 O581 2.346 . S
Ho561 O585 2.305 . S
Ho561 O586 2.322 . S
Ho561 O588 2.378 . S
Ho561 O589 2.524 . S
Ho561 O590 2.381 . S
Ho561 O591 2.669 . S
C562 O580 1.259 . S
C562 O581 1.268 . S
C563 Ho560 2.811 . S
C563 C564 1.488 . S
C563 O582 1.215 . S
C563 O583 1.289 . S
C564 C563 1.488 . S
C564 C565 1.348 . S
C564 C569 1.413 . S
C565 C564 1.348 . S
C565 C566 1.442 . S
C565 H592 0.930 . S
C566 C565 1.442 . S
C566 C567 1.381 . S
C566 H593 0.931 . S
C567 C566 1.381 . S
C567 C568 1.321 . S
C568 C567 1.321 . S
C568 C569 1.403 . S
C568 H594 0.934 . S
C569 C564 1.413 . S
C569 C568 1.403 . S
C569 H595 0.930 . S
C570 O584 1.275 . S
C570 O585 1.256 . S
C571 O586 1.259 . S
C571 O587 1.268 . S
C572 Ho561 2.811 . S
C572 C573 1.488 . S
C572 O588 1.215 . S
C572 O589 1.289 . S
C573 C572 1.488 . S
C573 C574 1.348 . S
C573 C578 1.413 . S
C574 C573 1.348 . S
C574 C575 1.442 . S
C574 H596 0.930 . S
C575 C574 1.442 . S
C575 C576 1.381 . S
C575 H597 0.931 . S
C576 C575 1.381 . S
C576 C577 1.321 . S
C577 C576 1.321 . S
C577 C578 1.403 . S
C577 H598 0.934 . S
C578 C573 1.413 . S
C578 C577 1.403 . S
C578 H599 0.930 . S
C579 O590 1.275 . S
C579 O591 1.256 . S
O580 Ho560 2.322 . S
O580 C562 1.259 . S
O581 Ho561 2.346 . S
O581 C562 1.268 . S
O582 Ho560 2.378 . S
O582 C563 1.215 . S
O583 Ho560 2.524 . S
O583 C563 1.289 . S
O584 Ho560 2.381 . S
O584 C570 1.275 . S
O585 Ho560 2.669 . S
O585 Ho561 2.305 . S
O585 C570 1.256 . S
O586 Ho561 2.322 . S
O586 C571 1.259 . S
O587 Ho560 2.346 . S
O587 C571 1.268 . S
O588 Ho561 2.378 . S
O588 C572 1.215 . S
O589 Ho561 2.524 . S
O589 C572 1.289 . S
O590 Ho561 2.381 . S
O590 C579 1.275 . S
O591 Ho560 2.305 . S
O591 Ho561 2.669 . S
O591 C579 1.256 . S
H592 C565 0.930 . S
H593 C566 0.931 . S
H594 C568 0.934 . S
H595 C569 0.930 . S
H596 C574 0.930 . S
H597 C575 0.931 . S
H598 C577 0.934 . S
H599 C578 0.930 . S
Ho600 C603 2.811 . S
Ho600 O620 2.322 . S
Ho600 O622 2.378 . S
Ho600 O623 2.524 . S
Ho600 O624 2.381 . S
Ho600 O625 2.669 . S
Ho600 O627 2.346 . S
Ho600 O631 2.305 . S
Ho601 C612 2.811 . S
Ho601 O621 2.346 . S
Ho601 O625 2.305 . S
Ho601 O626 2.322 . S
Ho601 O628 2.378 . S
Ho601 O629 2.524 1_545 S
Ho601 O630 2.381 . S
Ho601 O631 2.669 . S
C602 O620 1.259 . S
C602 O621 1.268 . S
C603 Ho600 2.811 . S
C603 C604 1.488 . S
C603 O622 1.215 . S
C603 O623 1.289 . S
C604 C603 1.488 . S
C604 C605 1.348 . S
C604 C609 1.413 . S
C605 C604 1.348 . S
C605 C606 1.442 . S
C605 H632 0.930 . S
C606 C605 1.442 . S
C606 C607 1.381 . S
C606 H633 0.931 . S
C607 C606 1.381 . S
C607 C608 1.321 . S
C608 C607 1.321 . S
C608 C609 1.403 . S
C608 H634 0.934 . S
C609 C604 1.413 . S
C609 C608 1.403 . S
C609 H635 0.930 . S
C610 O624 1.275 . S
C610 O625 1.256 . S
C611 O626 1.259 . S
C611 O627 1.268 . S
C612 Ho601 2.811 . S
C612 C613 1.488 1_545 S
C612 O628 1.215 . S
C612 O629 1.289 1_545 S
C613 C612 1.488 1_565 S
C613 C614 1.348 . S
C613 C618 1.414 . S
C614 C613 1.348 . S
C614 C615 1.442 . S
C614 H636 0.930 . S
C615 C614 1.442 . S
C615 C616 1.381 . S
C615 H637 0.931 . S
C616 C615 1.381 . S
C616 C617 1.321 . S
C617 C616 1.321 . S
C617 C618 1.404 . S
C617 H638 0.934 . S
C618 C613 1.414 . S
C618 C617 1.404 . S
C618 H639 0.928 1_565 S
C619 O630 1.275 . S
C619 O631 1.256 . S
O620 Ho600 2.322 . S
O620 C602 1.259 . S
O621 Ho601 2.346 . S
O621 C602 1.268 . S
O622 Ho600 2.378 . S
O622 C603 1.215 . S
O623 Ho600 2.524 . S
O623 C603 1.289 . S
O624 Ho600 2.381 . S
O624 C610 1.275 . S
O625 Ho600 2.669 . S
O625 Ho601 2.305 . S
O625 C610 1.256 . S
O626 Ho601 2.322 . S
O626 C611 1.259 . S
O627 Ho600 2.346 . S
O627 C611 1.268 . S
O628 Ho601 2.378 . S
O628 C612 1.215 . S
O629 Ho601 2.524 1_565 S
O629 C612 1.289 1_565 S
O630 Ho601 2.381 . S
O630 C619 1.275 . S
O631 Ho600 2.305 . S
O631 Ho601 2.669 . S
O631 C619 1.256 . S
H632 C605 0.930 . S
H633 C606 0.931 . S
H634 C608 0.934 . S
H635 C609 0.930 . S
H636 C614 0.930 . S
H637 C615 0.931 . S
H638 C617 0.934 . S
H639 C618 0.928 1_545 S
H640 C646 0.930 . S
H641 C649 0.930 . S
H642 C650 0.930 . S
H643 C651 0.930 . S
H644 C654 0.930 . S
H645 C655 0.930 . S
C646 H640 0.930 . S
C646 C647 1.355 . S
C646 C648 1.415 . S
C647 C646 1.355 . S
C647 C649 1.419 . S
C648 C646 1.415 . S
C648 C653 1.425 . S
C648 C655 1.409 . S
C649 H641 0.930 . S
C649 C647 1.419 . S
C649 C650 1.362 . S
C650 H642 0.930 . S
C650 C649 1.362 . S
C650 C653 1.409 . S
C651 H643 0.930 . S
C651 C652 1.355 . S
C651 C653 1.415 . S
C652 C651 1.355 . S
C652 C654 1.419 . S
C653 C648 1.425 . S
C653 C650 1.409 . S
C653 C651 1.415 . S
C654 H644 0.930 . S
C654 C652 1.419 . S
C654 C655 1.362 . S
C655 H645 0.930 . S
C655 C648 1.409 . S
C655 C654 1.362 . S
H656 C662 0.930 . S
H657 C665 0.930 . S
H658 C666 0.930 . S
H659 C667 0.930 . S
H660 C670 0.930 . S
H661 C671 0.930 . S
C662 H656 0.930 . S
C662 C663 1.355 . S
C662 C664 1.415 . S
C663 C662 1.355 . S
C663 C665 1.419 . S
C664 C662 1.415 . S
C664 C669 1.425 . S
C664 C671 1.409 . S
C665 H657 0.930 . S
C665 C663 1.419 . S
C665 C666 1.362 . S
C666 H658 0.930 . S
C666 C665 1.362 . S
C666 C669 1.409 . S
C667 H659 0.930 . S
C667 C668 1.355 . S
C667 C669 1.415 . S
C668 C667 1.355 . S
C668 C670 1.419 . S
C669 C664 1.425 . S
C669 C666 1.409 . S
C669 C667 1.415 . S
C670 H660 0.930 . S
C670 C668 1.419 . S
C670 C671 1.362 . S
C671 H661 0.930 . S
C671 C664 1.409 . S
C671 C670 1.362 . S
H672 C678 0.930 . S
H673 C681 0.930 . S
H674 C682 0.930 . S
H675 C683 0.930 . S
H676 C686 0.930 . S
H677 C687 0.930 . S
C678 H672 0.930 . S
C678 C679 1.355 . S
C678 C680 1.415 1_455 S
C679 C678 1.355 . S
C679 C681 1.419 . S
C680 C678 1.415 1_655 S
C680 C685 1.425 1_655 S
C680 C687 1.409 . S
C681 H673 0.930 . S
C681 C679 1.419 . S
C681 C682 1.362 . S
C682 H674 0.930 . S
C682 C681 1.362 . S
C682 C685 1.409 . S
C683 H675 0.930 . S
C683 C684 1.355 . S
C683 C685 1.415 1_655 S
C684 C683 1.355 . S
C684 C686 1.419 . S
C685 C680 1.425 1_455 S
C685 C682 1.409 . S
C685 C683 1.415 1_455 S
C686 H676 0.930 . S
C686 C684 1.419 . S
C686 C687 1.362 . S
C687 H677 0.930 . S
C687 C680 1.409 . S
C687 C686 1.362 . S
H688 C694 0.930 . S
H689 C697 0.930 . S
H690 C698 0.930 . S
H691 C699 0.930 . S
H692 C702 0.930 . S
H693 C703 0.930 . S
C694 H688 0.930 . S
C694 C695 1.355 . S
C694 C696 1.415 . S
C695 C694 1.355 . S
C695 C697 1.419 1_455 S
C696 C694 1.415 . S
C696 C701 1.425 1_455 S
C696 C703 1.409 . S
C697 H689 0.930 . S
C697 C695 1.419 1_655 S
C697 C698 1.362 . S
C698 H690 0.930 . S
C698 C697 1.362 . S
C698 C701 1.409 . S
C699 H691 0.930 . S
C699 C700 1.355 . S
C699 C701 1.415 . S
C700 C699 1.355 . S
C700 C702 1.419 1_655 S
C701 C696 1.425 1_655 S
C701 C698 1.409 . S
C701 C699 1.415 . S
C702 H692 0.930 . S
C702 C700 1.419 1_455 S
C702 C703 1.362 . S
C703 H693 0.930 . S
C703 C696 1.409 . S
C703 C702 1.362 . S
H704 C710 0.930 . S
H705 C713 0.930 . S
H706 C714 0.930 . S
H707 C715 0.930 . S
H708 C718 0.930 . S
H709 C719 0.930 . S
C710 H704 0.930 . S
C710 C711 1.355 . S
C710 C712 1.415 . S
C711 C710 1.355 . S
C711 C713 1.419 . S
C712 C710 1.415 . S
C712 C717 1.425 . S
C712 C719 1.409 . S
C713 H705 0.930 . S
C713 C711 1.419 . S
C713 C714 1.362 . S
C714 H706 0.930 . S
C714 C713 1.362 . S
C714 C717 1.409 . S
C715 H707 0.930 . S
C715 C716 1.355 . S
C715 C717 1.415 . S
C716 C715 1.355 . S
C716 C718 1.419 . S
C717 C712 1.425 . S
C717 C714 1.409 . S
C717 C715 1.415 . S
C718 H708 0.930 . S
C718 C716 1.419 . S
C718 C719 1.362 . S
C719 H709 0.930 . S
C719 C712 1.409 . S
C719 C718 1.362 . S
H720 C726 0.930 . S
H721 C729 0.930 . S
H722 C730 0.930 . S
H723 C731 0.930 . S
H724 C734 0.930 . S
H725 C735 0.930 . S
C726 H720 0.930 . S
C726 C727 1.355 . S
C726 C728 1.415 . S
C727 C726 1.355 . S
C727 C729 1.419 . S
C728 C726 1.415 . S
C728 C733 1.425 . S
C728 C735 1.409 . S
C729 H721 0.930 . S
C729 C727 1.419 . S
C729 C730 1.362 . S
C730 H722 0.930 . S
C730 C729 1.362 . S
C730 C733 1.409 . S
C731 H723 0.930 . S
C731 C732 1.355 . S
C731 C733 1.415 . S
C732 C731 1.355 . S
C732 C734 1.419 . S
C733 C728 1.425 . S
C733 C730 1.409 . S
C733 C731 1.415 . S
C734 H724 0.930 . S
C734 C732 1.419 . S
C734 C735 1.362 . S
C735 H725 0.930 . S
C735 C728 1.409 . S
C735 C734 1.362 . S
H736 C742 0.930 . S
H737 C745 0.930 . S
H738 C746 0.930 . S
H739 C747 0.930 . S
H740 C750 0.930 . S
H741 C751 0.930 . S
C742 H736 0.930 . S
C742 C743 1.355 . S
C742 C744 1.415 . S
C743 C742 1.355 . S
C743 C745 1.419 . S
C744 C742 1.415 . S
C744 C749 1.425 1_455 S
C744 C751 1.409 . S
C745 H737 0.930 . S
C745 C743 1.419 . S
C745 C746 1.362 1_455 S
C746 H738 0.930 . S
C746 C745 1.362 1_655 S
C746 C749 1.409 . S
C747 H739 0.930 . S
C747 C748 1.355 . S
C747 C749 1.415 . S
C748 C747 1.355 . S
C748 C750 1.419 . S
C749 C744 1.425 1_655 S
C749 C746 1.409 . S
C749 C747 1.415 . S
C750 H740 0.930 . S
C750 C748 1.419 . S
C750 C751 1.362 1_655 S
C751 H741 0.930 . S
C751 C744 1.409 . S
C751 C750 1.362 1_455 S
H752 C758 0.930 1_655 S
H753 C761 0.930 . S
H754 C762 0.930 . S
H755 C763 0.930 1_455 S
H756 C766 0.930 . S
H757 C767 0.930 . S
C758 H752 0.930 1_455 S
C758 C759 1.355 . S
C758 C760 1.415 1_455 S
C759 C758 1.355 . S
C759 C761 1.419 . S
C760 C758 1.415 1_655 S
C760 C765 1.425 1_655 S
C760 C767 1.409 . S
C761 H753 0.930 . S
C761 C759 1.419 . S
C761 C762 1.362 . S
C762 H754 0.930 . S
C762 C761 1.362 . S
C762 C765 1.409 . S
C763 H755 0.930 1_655 S
C763 C764 1.355 . S
C763 C765 1.415 1_655 S
C764 C763 1.355 . S
C764 C766 1.419 . S
C765 C760 1.425 1_455 S
C765 C762 1.409 . S
C765 C763 1.415 1_455 S
C766 H756 0.930 . S
C766 C764 1.419 . S
C766 C767 1.362 . S
C767 H757 0.930 . S
C767 C760 1.409 . S
C767 C766 1.362 . S
H768 C774 0.930 . S
H769 C777 0.930 . S
H770 C778 0.930 . S
H771 C779 0.930 . S
H772 C782 0.930 . S
H773 C783 0.930 . S
C774 H768 0.930 . S
C774 C775 1.355 1_546 S
C774 C776 1.415 . S
C775 C774 1.355 1_564 S
C775 C777 1.419 . S
C776 C774 1.415 . S
C776 C781 1.425 1_546 S
C776 C783 1.409 . S
C777 H769 0.930 . S
C777 C775 1.419 . S
C777 C778 1.362 . S
C778 H770 0.930 . S
C778 C777 1.362 . S
C778 C781 1.409 . S
C779 H771 0.930 . S
C779 C780 1.355 1_564 S
C779 C781 1.415 . S
C780 C779 1.355 1_546 S
C780 C782 1.419 . S
C781 C776 1.425 1_564 S
C781 C778 1.409 . S
C781 C779 1.415 . S
C782 H772 0.930 . S
C782 C780 1.419 . S
C782 C783 1.362 . S
C783 H773 0.930 . S
C783 C776 1.409 . S
C783 C782 1.362 . S
H784 C790 0.930 . S
H785 C793 0.930 . S
H786 C794 0.930 . S
H787 C795 0.930 . S
H788 C798 0.930 . S
H789 C799 0.930 . S
C790 H784 0.930 . S
C790 C791 1.355 . S
C790 C792 1.415 . S
C791 C790 1.355 . S
C791 C793 1.419 . S
C792 C790 1.415 . S
C792 C797 1.425 . S
C792 C799 1.409 . S
C793 H785 0.930 . S
C793 C791 1.419 . S
C793 C794 1.362 . S
C794 H786 0.930 . S
C794 C793 1.362 . S
C794 C797 1.409 . S
C795 H787 0.930 . S
C795 C796 1.355 . S
C795 C797 1.415 . S
C796 C795 1.355 . S
C796 C798 1.419 . S
C797 C792 1.425 . S
C797 C794 1.409 . S
C797 C795 1.415 . S
C798 H788 0.930 . S
C798 C796 1.419 . S
C798 C799 1.362 . S
C799 H789 0.930 . S
C799 C792 1.409 . S
C799 C798 1.362 . S
H800 C806 0.930 . S
H801 C809 0.930 . S
H802 C810 0.930 . S
H803 C811 0.930 . S
H804 C814 0.930 . S
H805 C815 0.930 . S
C806 H800 0.930 . S
C806 C807 1.355 . S
C806 C808 1.415 . S
C807 C806 1.355 . S
C807 C809 1.419 . S
C808 C806 1.415 . S
C808 C813 1.425 1_445 S
C808 C815 1.409 1_445 S
C809 H801 0.930 . S
C809 C807 1.419 . S
C809 C810 1.362 . S
C810 H802 0.930 . S
C810 C809 1.362 . S
C810 C813 1.409 1_445 S
C811 H803 0.930 . S
C811 C812 1.355 . S
C811 C813 1.415 . S
C812 C811 1.355 . S
C812 C814 1.419 . S
C813 C808 1.425 1_665 S
C813 C810 1.409 1_665 S
C813 C811 1.415 . S
C814 H804 0.930 . S
C814 C812 1.419 . S
C814 C815 1.362 . S
C815 H805 0.930 . S
C815 C808 1.409 1_665 S
C815 C814 1.362 . S
H816 C822 0.930 . S
H817 C825 0.930 . S
H818 C826 0.930 . S
H819 C827 0.930 . S
H820 C830 0.930 . S
H821 C831 0.930 . S
C822 H816 0.930 . S
C822 C823 1.355 . S
C822 C824 1.415 . S
C823 C822 1.355 . S
C823 C825 1.419 . S
C824 C822 1.415 . S
C824 C829 1.425 . S
C824 C831 1.409 . S
C825 H817 0.930 . S
C825 C823 1.419 . S
C825 C826 1.362 . S
C826 H818 0.930 . S
C826 C825 1.362 . S
C826 C829 1.409 . S
C827 H819 0.930 . S
C827 C828 1.355 . S
C827 C829 1.415 . S
C828 C827 1.355 . S
C828 C830 1.419 . S
C829 C824 1.425 . S
C829 C826 1.409 . S
C829 C827 1.415 . S
C830 H820 0.930 . S
C830 C828 1.419 . S
C830 C831 1.362 . S
C831 H821 0.930 . S
C831 C824 1.409 . S
C831 C830 1.362 . S
H832 C838 0.930 . S
H833 C841 0.930 . S
H834 C842 0.930 . S
H835 C843 0.930 . S
H836 C846 0.930 . S
H837 C847 0.930 . S
C838 H832 0.930 . S
C838 C839 1.355 . S
C838 C840 1.415 . S
C839 C838 1.355 . S
C839 C841 1.419 . S
C840 C838 1.415 . S
C840 C845 1.425 . S
C840 C847 1.409 . S
C841 H833 0.930 . S
C841 C839 1.419 . S
C841 C842 1.362 . S
C842 H834 0.930 . S
C842 C841 1.362 . S
C842 C845 1.409 . S
C843 H835 0.930 . S
C843 C844 1.355 . S
C843 C845 1.415 . S
C844 C843 1.355 . S
C844 C846 1.419 . S
C845 C840 1.425 . S
C845 C842 1.409 . S
C845 C843 1.415 . S
C846 H836 0.930 . S
C846 C844 1.419 . S
C846 C847 1.362 . S
C847 H837 0.930 . S
C847 C840 1.409 . S
C847 C846 1.362 . S
H848 C854 0.930 . S
H849 C857 0.930 . S
H850 C858 0.930 . S
H851 C859 0.930 . S
H852 C862 0.930 . S
H853 C863 0.930 . S
C854 H848 0.930 . S
C854 C855 1.355 . S
C854 C856 1.415 . S
C855 C854 1.355 . S
C855 C857 1.419 . S
C856 C854 1.415 . S
C856 C861 1.425 . S
C856 C863 1.409 . S
C857 H849 0.930 . S
C857 C855 1.419 . S
C857 C858 1.362 . S
C858 H850 0.930 . S
C858 C857 1.362 . S
C858 C861 1.409 . S
C859 H851 0.930 . S
C859 C860 1.355 . S
C859 C861 1.415 . S
C860 C859 1.355 . S
C860 C862 1.419 . S
C861 C856 1.425 . S
C861 C858 1.409 . S
C861 C859 1.415 . S
C862 H852 0.930 . S
C862 C860 1.419 . S
C862 C863 1.362 . S
C863 H853 0.930 . S
C863 C856 1.409 . S
C863 C862 1.362 . S
H864 C870 0.930 . S
H865 C873 0.930 . S
H866 C874 0.930 . S
H867 C875 0.930 . S
H868 C878 0.930 . S
H869 C879 0.930 . S
C870 H864 0.930 . S
C870 C871 1.355 . S
C870 C872 1.437 . S
C871 C870 1.355 . S
C871 C873 1.419 . S
C872 C870 1.437 . S
C872 C877 1.424 1_455 S
C872 C879 1.388 1_455 S
C873 H865 0.930 . S
C873 C871 1.419 . S
C873 C874 1.362 . S
C874 H866 0.930 . S
C874 C873 1.362 . S
C874 C877 1.388 1_455 S
C875 H867 0.930 . S
C875 C876 1.355 . S
C875 C877 1.437 . S
C876 C875 1.355 . S
C876 C878 1.419 . S
C877 C872 1.424 1_655 S
C877 C874 1.388 1_655 S
C877 C875 1.437 . S
C878 H868 0.930 . S
C878 C876 1.419 . S
C878 C879 1.362 . S
C879 H869 0.930 . S
C879 C872 1.388 1_655 S
C879 C878 1.362 . S
H880 C886 0.930 . S
H881 C889 0.930 . S
H882 C890 0.930 . S
H883 C891 0.930 . S
H884 C894 0.930 . S
H885 C895 0.930 . S
C886 H880 0.930 . S
C886 C887 1.355 1_556 S
C886 C888 1.415 . S
C887 C886 1.355 1_554 S
C887 C889 1.419 . S
C888 C886 1.415 . S
C888 C893 1.425 1_556 S
C888 C895 1.409 . S
C889 H881 0.930 . S
C889 C887 1.419 . S
C889 C890 1.362 . S
C890 H882 0.930 . S
C890 C889 1.362 . S
C890 C893 1.409 . S
C891 H883 0.930 . S
C891 C892 1.355 1_554 S
C891 C893 1.415 . S
C892 C891 1.355 1_556 S
C892 C894 1.419 . S
C893 C888 1.425 1_554 S
C893 C890 1.409 . S
C893 C891 1.415 . S
C894 H884 0.930 . S
C894 C892 1.419 . S
C894 C895 1.362 . S
C895 H885 0.930 . S
C895 C888 1.409 . S
C895 C894 1.362 . S
H896 C902 0.930 . S
H897 C905 0.930 . S
H898 C906 0.930 . S
H899 C907 0.930 . S
H900 C910 0.930 . S
H901 C911 0.930 . S
C902 H896 0.930 . S
C902 C903 1.355 . S
C902 C904 1.415 . S
C903 C902 1.355 . S
C903 C905 1.419 . S
C904 C902 1.415 . S
C904 C909 1.425 . S
C904 C911 1.409 . S
C905 H897 0.930 . S
C905 C903 1.419 . S
C905 C906 1.362 . S
C906 H898 0.930 . S
C906 C905 1.362 . S
C906 C909 1.409 . S
C907 H899 0.930 . S
C907 C908 1.355 . S
C907 C909 1.415 . S
C908 C907 1.355 . S
C908 C910 1.419 . S
C909 C904 1.425 . S
C909 C906 1.409 . S
C909 C907 1.415 . S
C910 H900 0.930 . S
C910 C908 1.419 . S
C910 C911 1.362 . S
C911 H901 0.930 . S
C911 C904 1.409 . S
C911 C910 1.362 . S
H912 C918 0.930 . S
H913 C921 0.930 . S
H914 C922 0.930 . S
H915 C923 0.930 . S
H916 C926 0.930 . S
H917 C927 0.930 . S
C918 H912 0.930 . S
C918 C919 1.355 . S
C918 C920 1.415 . S
C919 C918 1.355 . S
C919 C921 1.419 . S
C920 C918 1.415 . S
C920 C925 1.425 . S
C920 C927 1.409 . S
C921 H913 0.930 . S
C921 C919 1.419 . S
C921 C922 1.362 . S
C922 H914 0.930 . S
C922 C921 1.362 . S
C922 C925 1.409 . S
C923 H915 0.930 . S
C923 C924 1.355 . S
C923 C925 1.415 . S
C924 C923 1.355 . S
C924 C926 1.419 . S
C925 C920 1.425 . S
C925 C922 1.409 . S
C925 C923 1.415 . S
C926 H916 0.930 . S
C926 C924 1.419 . S
C926 C927 1.362 . S
C927 H917 0.930 . S
C927 C920 1.409 . S
C927 C926 1.362 . S
H928 C934 0.930 . S
H929 C937 0.930 . S
H930 C938 0.930 . S
H931 C939 0.930 . S
H932 C942 0.930 . S
H933 C943 0.930 . S
C934 H928 0.930 . S
C934 C935 1.355 . S
C934 C936 1.415 . S
C935 C934 1.355 . S
C935 C937 1.419 . S
C936 C934 1.415 . S
C936 C941 1.425 . S
C936 C943 1.409 . S
C937 H929 0.930 . S
C937 C935 1.419 . S
C937 C938 1.362 . S
C938 H930 0.930 . S
C938 C937 1.362 . S
C938 C941 1.409 . S
C939 H931 0.930 . S
C939 C940 1.355 . S
C939 C941 1.415 . S
C940 C939 1.355 . S
C940 C942 1.419 . S
C941 C936 1.425 . S
C941 C938 1.409 . S
C941 C939 1.415 . S
C942 H932 0.930 . S
C942 C940 1.419 . S
C942 C943 1.362 . S
C943 H933 0.930 . S
C943 C936 1.409 . S
C943 C942 1.362 . S
H944 C950 0.930 . S
H945 C953 0.930 . S
H946 C954 0.930 . S
H947 C955 0.930 . S
H948 C958 0.930 . S
H949 C959 0.930 . S
C950 H944 0.930 . S
C950 C951 1.355 . S
C950 C952 1.415 . S
C951 C950 1.355 . S
C951 C953 1.419 . S
C952 C950 1.415 . S
C952 C957 1.425 . S
C952 C959 1.409 . S
C953 H945 0.930 . S
C953 C951 1.419 . S
C953 C954 1.362 . S
C954 H946 0.930 . S
C954 C953 1.362 . S
C954 C957 1.409 . S
C955 H947 0.930 . S
C955 C956 1.355 . S
C955 C957 1.415 . S
C956 C955 1.355 . S
C956 C958 1.419 . S
C957 C952 1.425 . S
C957 C954 1.409 . S
C957 C955 1.415 . S
C958 H948 0.930 . S
C958 C956 1.419 . S
C958 C959 1.362 . S
C959 H949 0.930 . S
C959 C952 1.409 . S
C959 C958 1.362 . S
H960 C966 0.930 . S
H961 C969 0.930 . S
H962 C970 0.930 . S
H963 C971 0.930 . S
H964 C974 0.930 . S
H965 C975 0.930 . S
C966 H960 0.930 . S
C966 C967 1.355 . S
C966 C968 1.415 . S
C967 C966 1.355 . S
C967 C969 1.419 . S
C968 C966 1.415 . S
C968 C973 1.425 . S
C968 C975 1.409 . S
C969 H961 0.930 . S
C969 C967 1.419 . S
C969 C970 1.362 . S
C970 H962 0.930 . S
C970 C969 1.362 . S
C970 C973 1.409 . S
C971 H963 0.930 . S
C971 C972 1.355 . S
C971 C973 1.415 . S
C972 C971 1.355 . S
C972 C974 1.419 . S
C973 C968 1.425 . S
C973 C970 1.409 . S
C973 C971 1.415 . S
C974 H964 0.930 . S
C974 C972 1.419 . S
C974 C975 1.362 . S
C975 H965 0.930 . S
C975 C968 1.409 . S
C975 C974 1.362 . S
H976 C982 0.930 . S
H977 C985 0.930 . S
H978 C986 0.930 . S
H979 C987 0.930 . S
H980 C990 0.930 . S
H981 C991 0.930 . S
C982 H976 0.930 . S
C982 C983 1.355 . S
C982 C984 1.415 . S
C983 C982 1.355 . S
C983 C985 1.419 . S
C984 C982 1.415 . S
C984 C989 1.425 . S
C984 C991 1.409 . S
C985 H977 0.930 . S
C985 C983 1.419 . S
C985 C986 1.362 . S
C986 H978 0.930 . S
C986 C985 1.362 . S
C986 C989 1.409 . S
C987 H979 0.930 . S
C987 C988 1.355 . S
C987 C989 1.415 . S
C988 C987 1.355 . S
C988 C990 1.419 . S
C989 C984 1.425 . S
C989 C986 1.409 . S
C989 C987 1.415 . S
C990 H980 0.930 . S
C990 C988 1.419 . S
C990 C991 1.362 . S
C991 H981 0.930 . S
C991 C984 1.409 . S
C991 C990 1.362 . S
H992 C998 0.930 . S
H993 C1001 0.930 . S
H994 C1002 0.930 . S
H995 C1003 0.930 . S
H996 C1006 0.930 . S
H997 C1007 0.930 . S
C998 H992 0.930 . S
C998 C999 1.355 . S
C998 C1000 1.415 . S
C999 C998 1.355 . S
C999 C1001 1.419 . S
C1000 C998 1.415 . S
C1000 C1005 1.425 . S
C1000 C1007 1.409 . S
C1001 H993 0.930 . S
C1001 C999 1.419 . S
C1001 C1002 1.362 . S
C1002 H994 0.930 . S
C1002 C1001 1.362 . S
C1002 C1005 1.409 . S
C1003 H995 0.930 . S
C1003 C1004 1.355 . S
C1003 C1005 1.415 . S
C1004 C1003 1.355 . S
C1004 C1006 1.419 . S
C1005 C1000 1.425 . S
C1005 C1002 1.409 . S
C1005 C1003 1.415 . S
C1006 H996 0.930 . S
C1006 C1004 1.419 . S
C1006 C1007 1.362 . S
C1007 H997 0.930 . S
C1007 C1000 1.409 . S
C1007 C1006 1.362 . S
H1008 C1014 0.930 . S
H1009 C1017 0.930 . S
H1010 C1018 0.930 . S
H1011 C1019 0.930 . S
H1012 C1022 0.930 . S
H1013 C1023 0.930 . S
C1014 H1008 0.930 . S
C1014 C1015 1.355 . S
C1014 C1016 1.415 . S
C1015 C1014 1.355 . S
C1015 C1017 1.419 . S
C1016 C1014 1.415 . S
C1016 C1021 1.425 . S
C1016 C1023 1.409 . S
C1017 H1009 0.930 . S
C1017 C1015 1.419 . S
C1017 C1018 1.362 . S
C1018 H1010 0.930 . S
C1018 C1017 1.362 . S
C1018 C1021 1.409 . S
C1019 H1011 0.930 . S
C1019 C1020 1.355 . S
C1019 C1021 1.415 . S
C1020 C1019 1.355 . S
C1020 C1022 1.419 . S
C1021 C1016 1.425 . S
C1021 C1018 1.409 . S
C1021 C1019 1.415 . S
C1022 H1012 0.930 . S
C1022 C1020 1.419 . S
C1022 C1023 1.362 . S
C1023 H1013 0.930 . S
C1023 C1016 1.409 . S
C1023 C1022 1.362 . S
H1024 C1030 0.930 . S
H1025 C1033 0.930 . S
H1026 C1034 0.930 . S
H1027 C1035 0.930 . S
H1028 C1038 0.930 . S
H1029 C1039 0.930 . S
C1030 H1024 0.930 . S
C1030 C1031 1.355 . S
C1030 C1032 1.415 . S
C1031 C1030 1.355 . S
C1031 C1033 1.419 . S
C1032 C1030 1.415 . S
C1032 C1037 1.425 . S
C1032 C1039 1.409 . S
C1033 H1025 0.930 . S
C1033 C1031 1.419 . S
C1033 C1034 1.362 . S
C1034 H1026 0.930 . S
C1034 C1033 1.362 . S
C1034 C1037 1.409 . S
C1035 H1027 0.930 . S
C1035 C1036 1.355 . S
C1035 C1037 1.415 . S
C1036 C1035 1.355 . S
C1036 C1038 1.419 . S
C1037 C1032 1.425 . S
C1037 C1034 1.409 . S
C1037 C1035 1.415 . S
C1038 H1028 0.930 . S
C1038 C1036 1.419 . S
C1038 C1039 1.362 . S
C1039 H1029 0.930 . S
C1039 C1032 1.409 . S
C1039 C1038 1.362 . S
H1040 C1046 0.930 . S
H1041 C1049 0.930 . S
H1042 C1050 0.930 . S
H1043 C1051 0.930 . S
H1044 C1054 0.930 . S
H1045 C1055 0.930 . S
C1046 H1040 0.930 . S
C1046 C1047 1.355 . S
C1046 C1048 1.415 . S
C1047 C1046 1.355 . S
C1047 C1049 1.419 . S
C1048 C1046 1.415 . S
C1048 C1053 1.425 . S
C1048 C1055 1.409 . S
C1049 H1041 0.930 . S
C1049 C1047 1.419 . S
C1049 C1050 1.362 . S
C1050 H1042 0.930 . S
C1050 C1049 1.362 . S
C1050 C1053 1.409 . S
C1051 H1043 0.930 . S
C1051 C1052 1.355 . S
C1051 C1053 1.415 . S
C1052 C1051 1.355 . S
C1052 C1054 1.419 . S
C1053 C1048 1.425 . S
C1053 C1050 1.409 . S
C1053 C1051 1.415 . S
C1054 H1044 0.930 . S
C1054 C1052 1.419 . S
C1054 C1055 1.362 . S
C1055 H1045 0.930 . S
C1055 C1048 1.409 . S
C1055 C1054 1.362 . S
H1056 C1062 0.930 . S
H1057 C1065 0.930 . S
H1058 C1066 0.930 . S
H1059 C1067 0.930 . S
H1060 C1070 0.930 . S
H1061 C1071 0.930 . S
C1062 H1056 0.930 . S
C1062 C1063 1.355 . S
C1062 C1064 1.415 . S
C1063 C1062 1.355 . S
C1063 C1065 1.419 . S
C1064 C1062 1.415 . S
C1064 C1069 1.425 . S
C1064 C1071 1.409 . S
C1065 H1057 0.930 . S
C1065 C1063 1.419 . S
C1065 C1066 1.362 . S
C1066 H1058 0.930 . S
C1066 C1065 1.362 . S
C1066 C1069 1.409 . S
C1067 H1059 0.930 . S
C1067 C1068 1.355 . S
C1067 C1069 1.415 . S
C1068 C1067 1.355 . S
C1068 C1070 1.419 . S
C1069 C1064 1.425 . S
C1069 C1066 1.409 . S
C1069 C1067 1.415 . S
C1070 H1060 0.930 . S
C1070 C1068 1.419 . S
C1070 C1071 1.362 . S
C1071 H1061 0.930 . S
C1071 C1064 1.409 . S
C1071 C1070 1.362 . S
H1072 C1078 0.930 . S
H1073 C1081 0.930 . S
H1074 C1082 0.930 . S
H1075 C1083 0.930 . S
H1076 C1086 0.930 . S
H1077 C1087 0.930 . S
C1078 H1072 0.930 . S
C1078 C1079 1.355 . S
C1078 C1080 1.415 . S
C1079 C1078 1.355 . S
C1079 C1081 1.419 . S
C1080 C1078 1.415 . S
C1080 C1085 1.425 . S
C1080 C1087 1.409 . S
C1081 H1073 0.930 . S
C1081 C1079 1.419 . S
C1081 C1082 1.362 . S
C1082 H1074 0.930 . S
C1082 C1081 1.362 . S
C1082 C1085 1.409 . S
C1083 H1075 0.930 . S
C1083 C1084 1.355 . S
C1083 C1085 1.415 . S
C1084 C1083 1.355 . S
C1084 C1086 1.419 . S
C1085 C1080 1.425 . S
C1085 C1082 1.409 . S
C1085 C1083 1.415 . S
C1086 H1076 0.930 . S
C1086 C1084 1.419 . S
C1086 C1087 1.362 . S
C1087 H1077 0.930 . S
C1087 C1080 1.409 . S
C1087 C1086 1.362 . S
H1088 C1094 0.930 . S
H1089 C1097 0.930 . S
H1090 C1098 0.930 . S
H1091 C1099 0.930 . S
H1092 C1102 0.930 . S
H1093 C1103 0.930 . S
C1094 H1088 0.930 . S
C1094 C1095 1.355 . S
C1094 C1096 1.415 . S
C1095 C1094 1.355 . S
C1095 C1097 1.419 . S
C1096 C1094 1.415 . S
C1096 C1101 1.425 . S
C1096 C1103 1.409 . S
C1097 H1089 0.930 . S
C1097 C1095 1.419 . S
C1097 C1098 1.362 . S
C1098 H1090 0.930 . S
C1098 C1097 1.362 . S
C1098 C1101 1.409 . S
C1099 H1091 0.930 . S
C1099 C1100 1.355 . S
C1099 C1101 1.415 . S
C1100 C1099 1.355 . S
C1100 C1102 1.419 . S
C1101 C1096 1.425 . S
C1101 C1098 1.409 . S
C1101 C1099 1.415 . S
C1102 H1092 0.930 . S
C1102 C1100 1.419 . S
C1102 C1103 1.362 . S
C1103 H1093 0.930 . S
C1103 C1096 1.409 . S
C1103 C1102 1.362 . S
H1104 C1110 0.930 . S
H1105 C1113 0.930 1_565 S
H1106 C1114 0.930 . S
H1107 C1115 0.930 . S
H1108 C1118 0.930 . S
H1109 C1119 0.930 . S
C1110 H1104 0.930 . S
C1110 C1111 1.355 . S
C1110 C1112 1.415 . S
C1111 C1110 1.355 . S
C1111 C1113 1.419 . S
C1112 C1110 1.415 . S
C1112 C1117 1.425 . S
C1112 C1119 1.409 . S
C1113 H1105 0.930 1_545 S
C1113 C1111 1.419 . S
C1113 C1114 1.362 . S
C1114 H1106 0.930 . S
C1114 C1113 1.362 . S
C1114 C1117 1.409 . S
C1115 H1107 0.930 . S
C1115 C1116 1.355 . S
C1115 C1117 1.415 . S
C1116 C1115 1.355 . S
C1116 C1118 1.419 . S
C1117 C1112 1.425 . S
C1117 C1114 1.409 . S
C1117 C1115 1.415 . S
C1118 H1108 0.930 . S
C1118 C1116 1.419 . S
C1118 C1119 1.362 . S
C1119 H1109 0.930 . S
C1119 C1112 1.409 . S
C1119 C1118 1.362 . S
H1120 C1126 0.930 . S
H1121 C1129 0.930 . S
H1122 C1130 0.930 . S
H1123 C1131 0.930 . S
H1124 C1134 0.930 . S
H1125 C1135 0.930 . S
C1126 H1120 0.930 . S
C1126 C1127 1.355 . S
C1126 C1128 1.415 . S
C1127 C1126 1.355 . S
C1127 C1129 1.419 . S
C1128 C1126 1.415 . S
C1128 C1133 1.425 . S
C1128 C1135 1.409 . S
C1129 H1121 0.930 . S
C1129 C1127 1.419 . S
C1129 C1130 1.362 . S
C1130 H1122 0.930 . S
C1130 C1129 1.362 . S
C1130 C1133 1.409 . S
C1131 H1123 0.930 . S
C1131 C1132 1.355 . S
C1131 C1133 1.415 . S
C1132 C1131 1.355 . S
C1132 C1134 1.419 . S
C1133 C1128 1.425 . S
C1133 C1130 1.409 . S
C1133 C1131 1.415 . S
C1134 H1124 0.930 . S
C1134 C1132 1.419 . S
C1134 C1135 1.362 . S
C1135 H1125 0.930 . S
C1135 C1128 1.409 . S
C1135 C1134 1.362 . S
H1136 C1142 0.930 . S
H1137 C1145 0.930 1_545 S
H1138 C1146 0.930 . S
H1139 C1147 0.930 . S
H1140 C1150 0.930 . S
H1141 C1151 0.930 . S
C1142 H1136 0.930 . S
C1142 C1143 1.355 . S
C1142 C1144 1.415 . S
C1143 C1142 1.355 . S
C1143 C1145 1.419 . S
C1144 C1142 1.415 . S
C1144 C1149 1.425 . S
C1144 C1151 1.409 . S
C1145 H1137 0.930 1_565 S
C1145 C1143 1.419 . S
C1145 C1146 1.362 . S
C1146 H1138 0.930 . S
C1146 C1145 1.362 . S
C1146 C1149 1.409 . S
C1147 H1139 0.930 . S
C1147 C1148 1.355 . S
C1147 C1149 1.415 . S
C1148 C1147 1.355 . S
C1148 C1150 1.419 . S
C1149 C1144 1.425 . S
C1149 C1146 1.409 . S
C1149 C1147 1.415 . S
C1150 H1140 0.930 . S
C1150 C1148 1.419 . S
C1150 C1151 1.362 . S
C1151 H1141 0.930 . S
C1151 C1144 1.409 . S
C1151 C1150 1.362 . S
H1152 C1158 0.930 . S
H1153 C1161 0.930 . S
H1154 C1162 0.930 . S
H1155 C1163 0.930 . S
H1156 C1166 0.930 . S
H1157 C1167 0.930 . S
C1158 H1152 0.930 . S
C1158 C1159 1.355 1_556 S
C1158 C1160 1.415 . S
C1159 C1158 1.355 1_554 S
C1159 C1161 1.419 . S
C1160 C1158 1.415 . S
C1160 C1165 1.425 . S
C1160 C1167 1.409 . S
C1161 H1153 0.930 . S
C1161 C1159 1.419 . S
C1161 C1162 1.362 1_554 S
C1162 H1154 0.930 . S
C1162 C1161 1.362 1_556 S
C1162 C1165 1.409 . S
C1163 H1155 0.930 . S
C1163 C1164 1.355 . S
C1163 C1165 1.415 . S
C1164 C1163 1.355 . S
C1164 C1166 1.419 . S
C1165 C1160 1.425 . S
C1165 C1162 1.409 . S
C1165 C1163 1.415 . S
C1166 H1156 0.930 . S
C1166 C1164 1.419 . S
C1166 C1167 1.362 . S
C1167 H1157 0.930 . S
C1167 C1160 1.409 . S
C1167 C1166 1.362 . S
H1168 C1174 0.930 . S
H1169 C1177 0.930 . S
H1170 C1178 0.930 . S
H1171 C1179 0.930 . S
H1172 C1182 0.930 . S
H1173 C1183 0.930 . S
C1174 H1168 0.930 . S
C1174 C1175 1.355 . S
C1174 C1176 1.415 . S
C1175 C1174 1.355 . S
C1175 C1177 1.419 . S
C1176 C1174 1.415 . S
C1176 C1181 1.425 . S
C1176 C1183 1.409 . S
C1177 H1169 0.930 . S
C1177 C1175 1.419 . S
C1177 C1178 1.362 . S
C1178 H1170 0.930 . S
C1178 C1177 1.362 . S
C1178 C1181 1.409 . S
C1179 H1171 0.930 . S
C1179 C1180 1.355 . S
C1179 C1181 1.415 . S
C1180 C1179 1.355 . S
C1180 C1182 1.419 . S
C1181 C1176 1.425 . S
C1181 C1178 1.409 . S
C1181 C1179 1.415 . S
C1182 H1172 0.930 . S
C1182 C1180 1.419 . S
C1182 C1183 1.362 . S
C1183 H1173 0.930 . S
C1183 C1176 1.409 . S
C1183 C1182 1.362 . S
H1184 C1190 0.930 . S
H1185 C1193 0.930 . S
H1186 C1194 0.930 . S
H1187 C1195 0.930 . S
H1188 C1198 0.930 . S
H1189 C1199 0.930 . S
C1190 H1184 0.930 . S
C1190 C1191 1.355 . S
C1190 C1192 1.415 . S
C1191 C1190 1.355 . S
C1191 C1193 1.419 . S
C1192 C1190 1.415 . S
C1192 C1197 1.425 . S
C1192 C1199 1.409 . S
C1193 H1185 0.930 . S
C1193 C1191 1.419 . S
C1193 C1194 1.362 . S
C1194 H1186 0.930 . S
C1194 C1193 1.362 . S
C1194 C1197 1.409 . S
C1195 H1187 0.930 . S
C1195 C1196 1.355 . S
C1195 C1197 1.415 . S
C1196 C1195 1.355 . S
C1196 C1198 1.419 . S
C1197 C1192 1.425 . S
C1197 C1194 1.409 . S
C1197 C1195 1.415 . S
C1198 H1188 0.930 . S
C1198 C1196 1.419 . S
C1198 C1199 1.362 . S
C1199 H1189 0.930 . S
C1199 C1192 1.409 . S
C1199 C1198 1.362 . S
H1200 C1206 0.930 . S
H1201 C1209 0.930 . S
H1202 C1210 0.930 . S
H1203 C1211 0.930 . S
H1204 C1214 0.930 . S
H1205 C1215 0.930 . S
C1206 H1200 0.930 . S
C1206 C1207 1.355 . S
C1206 C1208 1.415 . S
C1207 C1206 1.355 . S
C1207 C1209 1.419 . S
C1208 C1206 1.415 . S
C1208 C1213 1.425 . S
C1208 C1215 1.409 . S
C1209 H1201 0.930 . S
C1209 C1207 1.419 . S
C1209 C1210 1.362 . S
C1210 H1202 0.930 . S
C1210 C1209 1.362 . S
C1210 C1213 1.409 . S
C1211 H1203 0.930 . S
C1211 C1212 1.355 . S
C1211 C1213 1.415 . S
C1212 C1211 1.355 . S
C1212 C1214 1.419 . S
C1213 C1208 1.425 . S
C1213 C1210 1.409 . S
C1213 C1211 1.415 . S
C1214 H1204 0.930 . S
C1214 C1212 1.419 . S
C1214 C1215 1.362 . S
C1215 H1205 0.930 . S
C1215 C1208 1.409 . S
C1215 C1214 1.362 . S
H1216 C1222 0.930 . S
H1217 C1225 0.930 . S
H1218 C1226 0.930 . S
H1219 C1227 0.930 . S
H1220 C1230 0.930 . S
H1221 C1231 0.921 1_556 S
C1222 H1216 0.930 . S
C1222 C1223 1.355 . S
C1222 C1224 1.415 . S
C1223 C1222 1.355 . S
C1223 C1225 1.419 . S
C1224 C1222 1.415 . S
C1224 C1229 1.425 . S
C1224 C1231 1.409 . S
C1225 H1217 0.930 . S
C1225 C1223 1.419 . S
C1225 C1226 1.362 . S
C1226 H1218 0.930 . S
C1226 C1225 1.362 . S
C1226 C1229 1.409 . S
C1227 H1219 0.930 . S
C1227 C1228 1.355 1_554 S
C1227 C1229 1.415 . S
C1228 C1227 1.355 1_556 S
C1228 C1230 1.419 . S
C1229 C1224 1.425 . S
C1229 C1226 1.409 . S
C1229 C1227 1.415 . S
C1230 H1220 0.930 . S
C1230 C1228 1.419 . S
C1230 C1231 1.362 1_556 S
C1231 H1221 0.921 1_554 S
C1231 C1224 1.409 . S
C1231 C1230 1.362 1_554 S
H1232 C1238 0.930 . S
H1233 C1241 0.930 . S
H1234 C1242 0.930 . S
H1235 C1243 0.930 . S
H1236 C1246 0.930 . S
H1237 C1247 0.930 . S
C1238 H1232 0.930 . S
C1238 C1239 1.355 . S
C1238 C1240 1.415 . S
C1239 C1238 1.355 . S
C1239 C1241 1.419 . S
C1240 C1238 1.415 . S
C1240 C1245 1.425 . S
C1240 C1247 1.409 . S
C1241 H1233 0.930 . S
C1241 C1239 1.419 . S
C1241 C1242 1.362 . S
C1242 H1234 0.930 . S
C1242 C1241 1.362 . S
C1242 C1245 1.409 . S
C1243 H1235 0.930 . S
C1243 C1244 1.355 . S
C1243 C1245 1.415 . S
C1244 C1243 1.355 . S
C1244 C1246 1.419 . S
C1245 C1240 1.425 . S
C1245 C1242 1.409 . S
C1245 C1243 1.415 . S
C1246 H1236 0.930 . S
C1246 C1244 1.419 . S
C1246 C1247 1.362 . S
C1247 H1237 0.930 . S
C1247 C1240 1.409 . S
C1247 C1246 1.362 . S
H1248 C1254 0.930 . S
H1249 C1257 0.930 . S
H1250 C1258 0.930 . S
H1251 C1259 0.930 . S
H1252 C1262 0.930 . S
H1253 C1263 0.930 . S
C1254 H1248 0.930 . S
C1254 C1255 1.355 . S
C1254 C1256 1.415 . S
C1255 C1254 1.355 . S
C1255 C1257 1.419 . S
C1256 C1254 1.415 . S
C1256 C1261 1.425 . S
C1256 C1263 1.409 . S
C1257 H1249 0.930 . S
C1257 C1255 1.419 . S
C1257 C1258 1.362 . S
C1258 H1250 0.930 . S
C1258 C1257 1.362 . S
C1258 C1261 1.409 . S
C1259 H1251 0.930 . S
C1259 C1260 1.355 . S
C1259 C1261 1.415 . S
C1260 C1259 1.355 . S
C1260 C1262 1.419 . S
C1261 C1256 1.425 . S
C1261 C1258 1.409 . S
C1261 C1259 1.415 . S
C1262 H1252 0.930 . S
C1262 C1260 1.419 . S
C1262 C1263 1.362 . S
C1263 H1253 0.930 . S
C1263 C1256 1.409 . S
C1263 C1262 1.362 . S
H1264 C1270 0.930 . S
H1265 C1273 0.930 . S
H1266 C1274 0.930 . S
H1267 C1275 0.930 . S
H1268 C1278 0.930 . S
H1269 C1279 0.930 . S
C1270 H1264 0.930 . S
C1270 C1271 1.355 . S
C1270 C1272 1.415 . S
C1271 C1270 1.355 . S
C1271 C1273 1.419 . S
C1272 C1270 1.415 . S
C1272 C1277 1.425 . S
C1272 C1279 1.409 . S
C1273 H1265 0.930 . S
C1273 C1271 1.419 . S
C1273 C1274 1.362 . S
C1274 H1266 0.930 . S
C1274 C1273 1.362 . S
C1274 C1277 1.409 . S
C1275 H1267 0.930 . S
C1275 C1276 1.355 . S
C1275 C1277 1.415 . S
C1276 C1275 1.355 . S
C1276 C1278 1.419 . S
C1277 C1272 1.425 . S
C1277 C1274 1.409 . S
C1277 C1275 1.415 . S
C1278 H1268 0.930 . S
C1278 C1276 1.419 . S
C1278 C1279 1.362 . S
C1279 H1269 0.930 . S
C1279 C1272 1.409 . S
C1279 C1278 1.362 . S
H1280 C1286 0.930 . S
H1281 C1289 0.930 . S
H1282 C1290 0.930 . S
H1283 C1291 0.930 . S
H1284 C1294 0.930 . S
H1285 C1295 0.930 . S
C1286 H1280 0.930 . S
C1286 C1287 1.355 . S
C1286 C1288 1.415 . S
C1287 C1286 1.355 . S
C1287 C1289 1.419 . S
C1288 C1286 1.415 . S
C1288 C1293 1.425 . S
C1288 C1295 1.409 . S
C1289 H1281 0.930 . S
C1289 C1287 1.419 . S
C1289 C1290 1.362 . S
C1290 H1282 0.930 . S
C1290 C1289 1.362 . S
C1290 C1293 1.409 . S
C1291 H1283 0.930 . S
C1291 C1292 1.355 . S
C1291 C1293 1.415 . S
C1292 C1291 1.355 . S
C1292 C1294 1.419 . S
C1293 C1288 1.425 . S
C1293 C1290 1.409 . S
C1293 C1291 1.415 . S
C1294 H1284 0.930 . S
C1294 C1292 1.419 . S
C1294 C1295 1.362 . S
C1295 H1285 0.930 . S
C1295 C1288 1.409 . S
C1295 C1294 1.362 . S
H1296 C1302 0.930 . S
H1297 C1305 0.930 . S
H1298 C1306 0.930 . S
H1299 C1307 0.930 . S
H1300 C1310 0.930 . S
H1301 C1311 0.930 1_545 S
C1302 H1296 0.930 . S
C1302 C1303 1.355 . S
C1302 C1304 1.415 . S
C1303 C1302 1.355 . S
C1303 C1305 1.419 . S
C1304 C1302 1.415 . S
C1304 C1309 1.425 . S
C1304 C1311 1.409 . S
C1305 H1297 0.930 . S
C1305 C1303 1.419 . S
C1305 C1306 1.362 . S
C1306 H1298 0.930 . S
C1306 C1305 1.362 . S
C1306 C1309 1.409 . S
C1307 H1299 0.930 . S
C1307 C1308 1.355 . S
C1307 C1309 1.415 . S
C1308 C1307 1.355 . S
C1308 C1310 1.419 1_565 S
C1309 C1304 1.425 . S
C1309 C1306 1.409 . S
C1309 C1307 1.415 . S
C1310 H1300 0.930 . S
C1310 C1308 1.419 1_545 S
C1310 C1311 1.362 1_545 S
C1311 H1301 0.930 1_565 S
C1311 C1304 1.409 . S
C1311 C1310 1.362 1_565 S
H1312 C1318 0.930 . S
H1313 C1321 0.930 . S
H1314 C1322 0.930 . S
H1315 C1323 0.930 1_554 S
H1316 C1326 0.930 . S
H1317 C1327 0.930 . S
C1318 H1312 0.930 . S
C1318 C1319 1.355 . S
C1318 C1320 1.415 . S
C1319 C1318 1.355 . S
C1319 C1321 1.419 . S
C1320 C1318 1.415 . S
C1320 C1325 1.425 . S
C1320 C1327 1.409 . S
C1321 H1313 0.930 . S
C1321 C1319 1.419 . S
C1321 C1322 1.362 . S
C1322 H1314 0.930 . S
C1322 C1321 1.362 . S
C1322 C1325 1.409 . S
C1323 H1315 0.930 1_556 S
C1323 C1324 1.363 . S
C1323 C1325 1.415 . S
C1324 C1323 1.363 . S
C1324 C1326 1.441 . S
C1325 C1320 1.425 . S
C1325 C1322 1.409 . S
C1325 C1323 1.415 . S
C1326 H1316 0.930 . S
C1326 C1324 1.441 . S
C1326 C1327 1.362 . S
C1327 H1317 0.930 . S
C1327 C1320 1.409 . S
C1327 C1326 1.362 . S
H1328 C1334 0.930 . S
H1329 C1337 0.930 1_565 S
H1330 C1338 0.930 . S
H1331 C1339 0.930 . S
H1332 C1342 0.930 . S
H1333 C1343 0.930 . S
C1334 H1328 0.930 . S
C1334 C1335 1.355 . S
C1334 C1336 1.415 . S
C1335 C1334 1.355 . S
C1335 C1337 1.419 . S
C1336 C1334 1.415 . S
C1336 C1341 1.425 . S
C1336 C1343 1.409 . S
C1337 H1329 0.930 1_545 S
C1337 C1335 1.419 . S
C1337 C1338 1.362 . S
C1338 H1330 0.930 . S
C1338 C1337 1.362 . S
C1338 C1341 1.409 . S
C1339 H1331 0.930 . S
C1339 C1340 1.355 . S
C1339 C1341 1.415 . S
C1340 C1339 1.355 . S
C1340 C1342 1.419 . S
C1341 C1336 1.425 . S
C1341 C1338 1.409 . S
C1341 C1339 1.415 . S
C1342 H1332 0.930 . S
C1342 C1340 1.419 . S
C1342 C1343 1.362 . S
C1343 H1333 0.930 . S
C1343 C1336 1.409 . S
C1343 C1342 1.362 . S
H1344 C1350 0.930 . S
H1345 C1353 0.930 . S
H1346 C1354 0.930 . S
H1347 C1355 0.930 . S
H1348 C1358 0.930 . S
H1349 C1359 0.930 . S
C1350 H1344 0.930 . S
C1350 C1351 1.355 . S
C1350 C1352 1.415 . S
C1351 C1350 1.355 . S
C1351 C1353 1.419 . S
C1352 C1350 1.415 . S
C1352 C1357 1.425 . S
C1352 C1359 1.409 . S
C1353 H1345 0.930 . S
C1353 C1351 1.419 . S
C1353 C1354 1.362 . S
C1354 H1346 0.930 . S
C1354 C1353 1.362 . S
C1354 C1357 1.409 . S
C1355 H1347 0.930 . S
C1355 C1356 1.355 . S
C1355 C1357 1.415 . S
C1356 C1355 1.355 . S
C1356 C1358 1.419 . S
C1357 C1352 1.425 . S
C1357 C1354 1.409 . S
C1357 C1355 1.415 . S
C1358 H1348 0.930 . S
C1358 C1356 1.419 . S
C1358 C1359 1.362 . S
C1359 H1349 0.930 . S
C1359 C1352 1.409 . S
C1359 C1358 1.362 . S
H1360 C1366 0.930 . S
H1361 C1369 0.930 . S
H1362 C1370 0.930 . S
H1363 C1371 0.930 . S
H1364 C1374 0.954 . S
H1365 C1375 0.930 . S
C1366 H1360 0.930 . S
C1366 C1367 1.355 . S
C1366 C1368 1.415 . S
C1367 C1366 1.355 . S
C1367 C1369 1.419 . S
C1368 C1366 1.415 . S
C1368 C1373 1.425 . S
C1368 C1375 1.409 . S
C1369 H1361 0.930 . S
C1369 C1367 1.419 . S
C1369 C1370 1.362 . S
C1370 H1362 0.930 . S
C1370 C1369 1.362 . S
C1370 C1373 1.409 . S
C1371 H1363 0.930 . S
C1371 C1372 1.355 . S
C1371 C1373 1.415 . S
C1372 C1371 1.355 . S
C1372 C1374 1.412 1_545 S
C1373 C1368 1.425 . S
C1373 C1370 1.409 . S
C1373 C1371 1.415 . S
C1374 H1364 0.954 . S
C1374 C1372 1.412 1_565 S
C1374 C1375 1.347 1_565 S
C1375 H1365 0.930 . S
C1375 C1368 1.409 . S
C1375 C1374 1.347 1_545 S
H1376 C1382 0.930 . S
H1377 C1385 0.930 . S
H1378 C1386 0.930 . S
H1379 C1387 0.930 . S
H1380 C1390 0.930 . S
H1381 C1391 0.912 1_556 S
C1382 H1376 0.930 . S
C1382 C1383 1.355 . S
C1382 C1384 1.415 . S
C1383 C1382 1.355 . S
C1383 C1385 1.419 . S
C1384 C1382 1.415 . S
C1384 C1389 1.425 . S
C1384 C1391 1.409 . S
C1385 H1377 0.930 . S
C1385 C1383 1.419 . S
C1385 C1386 1.362 . S
C1386 H1378 0.930 . S
C1386 C1385 1.362 . S
C1386 C1389 1.409 . S
C1387 H1379 0.930 . S
C1387 C1388 1.355 1_554 S
C1387 C1389 1.415 . S
C1388 C1387 1.355 1_556 S
C1388 C1390 1.419 . S
C1389 C1384 1.425 . S
C1389 C1386 1.409 . S
C1389 C1387 1.415 . S
C1390 H1380 0.930 . S
C1390 C1388 1.419 . S
C1390 C1391 1.362 1_556 S
C1391 H1381 0.912 1_554 S
C1391 C1384 1.409 . S
C1391 C1390 1.362 1_554 S
H1392 C1398 0.930 . S
H1393 C1401 0.930 . S
H1394 C1402 0.930 . S
H1395 C1403 0.930 1_545 S
H1396 C1406 0.930 . S
H1397 C1407 0.930 . S
C1398 H1392 0.930 . S
C1398 C1399 1.355 . S
C1398 C1400 1.415 . S
C1399 C1398 1.355 . S
C1399 C1401 1.419 . S
C1400 C1398 1.415 . S
C1400 C1405 1.425 . S
C1400 C1407 1.409 . S
C1401 H1393 0.930 . S
C1401 C1399 1.419 . S
C1401 C1402 1.362 . S
C1402 H1394 0.930 . S
C1402 C1401 1.362 . S
C1402 C1405 1.409 . S
C1403 H1395 0.930 1_565 S
C1403 C1404 1.355 . S
C1403 C1405 1.415 . S
C1404 C1403 1.355 . S
C1404 C1406 1.419 . S
C1405 C1400 1.425 . S
C1405 C1402 1.409 . S
C1405 C1403 1.415 . S
C1406 H1396 0.930 . S
C1406 C1404 1.419 . S
C1406 C1407 1.362 . S
C1407 H1397 0.930 . S
C1407 C1400 1.409 . S
C1407 C1406 1.362 . S
C647 C10 2.828 . S
C652 C410 2.823 . S
C663 C50 2.828 . S
C668 C450 2.824 . S
C679 C90 2.800 . S
C684 C330 2.808 . S
C695 C370 2.805 . S
C700 C130 2.800 . S
C711 C179 2.803 . S
C716 C579 2.801 . S
C727 C619 2.821 . S
C732 C219 2.807 . S
C743 C499 2.824 . S
C748 C259 2.828 . S
C759 C299 2.828 . S
C764 C539 2.823 . S
C775 C16 1.205 . S
C780 C167 1.205 . S
C791 C56 1.154 . S
C796 C527 1.154 . S
C807 C96 1.104 . S
C812 C247 1.104 . S
C823 C136 1.064 . S
C828 C607 1.064 . S
C839 C207 1.110 . S
C844 C376 1.110 . S
C855 C456 1.200 . S
C860 C287 1.200 . S
C871 C487 1.129 . S
C876 C336 1.129 . S
C887 C416 1.105 . S
C892 C567 1.105 . S
C903 C7 1.335 . S
C908 C290 1.459 . S
C919 C47 1.326 . S
C924 C490 1.481 . S
C935 C87 1.307 . S
C940 C210 1.436 . S
C951 C127 1.321 . S
C956 C570 1.480 . S
C967 C139 1.481 . S
C972 C176 1.331 . S
C983 C216 1.334 . S
C988 C339 1.458 . S
C999 C256 1.286 . S
C1004 C59 1.424 . S
C1015 C419 1.405 . S
C1020 C296 1.197 . S
C1031 C327 1.311 . S
C1036 C610 1.478 1_565 S
C1047 C170 1.481 . S
C1052 C367 1.333 . S
C1063 C530 1.400 1_545 S
C1068 C407 1.200 . S
C1079 C250 1.481 . S
C1084 C447 1.322 . S
C1095 C496 1.202 . S
C1100 C459 1.416 1_545 S
C1111 C536 1.269 . S
C1116 C19 1.462 . S
C1127 C379 1.450 1_565 S
C1132 C576 1.245 . S
C1143 C616 1.287 . S
C1148 C99 1.470 . S
C1159 C11 4.030 . S
C1164 C362 4.068 . S
C1175 C402 4.063 . S
C1180 C51 4.030 . S
C1191 C91 4.057 . S
C1196 C442 4.092 . S
C1207 C322 4.092 . S
C1212 C131 4.059 . S
C1223 C531 4.059 . S
C1228 C162 4.023 . S
C1239 C571 4.060 . S
C1244 C202 4.026 . S
C1255 C611 4.091 . S
C1260 C242 4.059 . S
C1271 C491 4.060 . S
C1276 C282 4.027 . S
C1287 C42 4.059 . S
C1292 C331 4.023 . S
C1303 C82 4.092 . S
C1308 C371 4.057 1_565 S
C1319 C122 4.087 . S
C1324 C411 4.026 1_556 S
C1335 C451 4.057 1_545 S
C1340 C2 4.092 . S
C1351 C211 4.059 . S
C1356 C482 4.023 . S
C1367 C251 4.069 . S
C1372 C522 4.038 1_545 S
C1383 C291 4.062 . S
C1388 C562 4.024 . S
C1399 C171 4.070 . S
C1404 C602 4.031 1_565 S
