# Generated by pormake.
# Topology umb, (4)-cn, num edge types: 1
# Building blocks:
#     Node 0, Type 0, BuildingBlock: NAWXER_clean_sbu_0, # of connection points: 4
#     Node 1, Type 0, BuildingBlock: NAWXER_clean_sbu_0, # of connection points: 4
#     Node 2, Type 0, BuildingBlock: NAWXER_clean_sbu_0, # of connection points: 4
#     Node 3, Type 0, BuildingBlock: NAWXER_clean_sbu_0, # of connection points: 4
#     Node 4, Type 0, BuildingBlock: NAWXER_clean_sbu_0, # of connection points: 4
#     Node 5, Type 0, BuildingBlock: NAWXER_clean_sbu_0, # of connection points: 4
#     Node 6, Type 0, BuildingBlock: NAWXER_clean_sbu_0, # of connection points: 4
#     Node 7, Type 0, BuildingBlock: NAWXER_clean_sbu_0, # of connection points: 4
#     Node 8, Type 0, BuildingBlock: NAWXER_clean_sbu_0, # of connection points: 4
#     Node 9, Type 0, BuildingBlock: NAWXER_clean_sbu_0, # of connection points: 4
#     Node 10, Type 0, BuildingBlock: NAWXER_clean_sbu_0, # of connection points: 4
#     Node 11, Type 0, BuildingBlock: NAWXER_clean_sbu_0, # of connection points: 4
#     Edge 12, Type (0, 0), BuildingBlock: UVAHIK_clean_linker_0, # of connection points: 2
#     Edge 13, Type (0, 0), BuildingBlock: UVAHIK_clean_linker_0, # of connection points: 2
#     Edge 14, Type (0, 0), BuildingBlock: UVAHIK_clean_linker_0, # of connection points: 2
#     Edge 15, Type (0, 0), BuildingBlock: UVAHIK_clean_linker_0, # of connection points: 2
#     Edge 16, Type (0, 0), BuildingBlock: UVAHIK_clean_linker_0, # of connection points: 2
#     Edge 17, Type (0, 0), BuildingBlock: UVAHIK_clean_linker_0, # of connection points: 2
#     Edge 18, Type (0, 0), BuildingBlock: UVAHIK_clean_linker_0, # of connection points: 2
#     Edge 19, Type (0, 0), BuildingBlock: UVAHIK_clean_linker_0, # of connection points: 2
#     Edge 20, Type (0, 0), BuildingBlock: UVAHIK_clean_linker_0, # of connection points: 2
#     Edge 21, Type (0, 0), BuildingBlock: UVAHIK_clean_linker_0, # of connection points: 2
#     Edge 22, Type (0, 0), BuildingBlock: UVAHIK_clean_linker_0, # of connection points: 2
#     Edge 23, Type (0, 0), BuildingBlock: UVAHIK_clean_linker_0, # of connection points: 2
#     Edge 24, Type (0, 0), BuildingBlock: UVAHIK_clean_linker_0, # of connection points: 2
#     Edge 25, Type (0, 0), BuildingBlock: UVAHIK_clean_linker_0, # of connection points: 2
#     Edge 26, Type (0, 0), BuildingBlock: UVAHIK_clean_linker_0, # of connection points: 2
#     Edge 27, Type (0, 0), BuildingBlock: UVAHIK_clean_linker_0, # of connection points: 2
#     Edge 28, Type (0, 0), BuildingBlock: UVAHIK_clean_linker_0, # of connection points: 2
#     Edge 29, Type (0, 0), BuildingBlock: UVAHIK_clean_linker_0, # of connection points: 2
#     Edge 30, Type (0, 0), BuildingBlock: UVAHIK_clean_linker_0, # of connection points: 2
#     Edge 31, Type (0, 0), BuildingBlock: UVAHIK_clean_linker_0, # of connection points: 2
#     Edge 32, Type (0, 0), BuildingBlock: UVAHIK_clean_linker_0, # of connection points: 2
#     Edge 33, Type (0, 0), BuildingBlock: UVAHIK_clean_linker_0, # of connection points: 2
#     Edge 34, Type (0, 0), BuildingBlock: UVAHIK_clean_linker_0, # of connection points: 2
#     Edge 35, Type (0, 0), BuildingBlock: UVAHIK_clean_linker_0, # of connection points: 2
# Relax obj value: 0.192
# Max RMSD: 0.212
# Mean RMSD: 0.211
data_MOF--net-umb--node1-NAWXER_clean_sbu_0--edge1-UVAHIK_clean_linker_0
_symmetry_space_group_name_H-M    P1
_symmetry_Int_Tables_number       1
_symmetry_cell_setting            triclinic
loop_
_symmetry_equiv_pos_as_xyz
'x, y, z'
_cell_length_a     59.995155
_cell_length_b     60.139133
_cell_length_c     49.290225
_cell_angle_alpha  89.93981
_cell_angle_beta   90.078109
_cell_angle_gamma 119.76389
loop_
_atom_site_label
_atom_site_type_symbol
_atom_site_fract_x
_atom_site_fract_y
_atom_site_fract_z
_atom_type_partial_charge
C0 C 0.56328 0.20888 0.33774 0.0
C1 C 0.51953 0.117 0.32546 0.0
O2 O 0.57127 0.19539 0.32601 0.0
Zn3 Zn 0.54093 0.16315 0.3313 0.0
O4 O 0.54062 0.19821 0.34793 0.0
Zn5 Zn 0.508 0.15976 0.35029 0.0
O6 O 0.50328 0.15527 0.38905 0.0
O7 O 0.5396 0.15832 0.37497 0.0
O8 O 0.50504 0.12387 0.33772 0.0
O9 O 0.54169 0.13391 0.31768 0.0
O10 O 0.51515 0.16736 0.30464 0.0
O11 O 0.48239 0.16293 0.32883 0.0
C12 C 0.5242 0.15561 0.39441 0.0
C13 C 0.49379 0.16725 0.30611 0.0
C14 C 0.33122 0.55162 0.67849 0.0
C15 C 0.3889 0.51883 0.66131 0.0
O16 O 0.35263 0.56253 0.66614 0.0
Zn17 Zn 0.35972 0.53508 0.66953 0.0
O18 O 0.3227 0.52913 0.68841 0.0
Zn19 Zn 0.33417 0.50055 0.68984 0.0
O20 O 0.3377 0.49792 0.72925 0.0
O21 O 0.36655 0.53518 0.71245 0.0
O22 O 0.36897 0.5026 0.67459 0.0
O23 O 0.39071 0.53981 0.65368 0.0
O24 O 0.33016 0.5073 0.64422 0.0
O25 O 0.30577 0.47317 0.66882 0.0
C26 C 0.35698 0.52017 0.7329 0.0
C27 C 0.31052 0.48488 0.64618 0.0
C28 C 0.80531 0.37518 0.06577 0.0
C29 C 0.78754 0.32558 0.98148 0.0
O30 O 0.81309 0.35881 0.06592 0.0
Zn31 Zn 0.81472 0.33135 0.03962 0.0
O32 O 0.7953 0.37816 0.04427 0.0
Zn33 Zn 0.79764 0.35225 1.02233 0.0
O34 O 0.77252 0.31797 0.04375 0.0
O35 O 0.79425 0.30022 0.06068 0.0
O36 O 0.78333 0.344 0.98604 0.0
O37 O 0.79903 0.31951 0.99953 0.0
O38 O 0.85136 0.34495 1.03517 0.0
O39 O 0.83767 0.369 1.01565 0.0
C40 C 0.77315 0.30006 0.0572 0.0
C41 C 0.85601 0.36473 1.0215 0.0
C42 C 0.45207 0.81517 0.40091 0.0
C43 C 0.48981 0.80794 0.31404 0.0
O44 O 0.47402 0.81712 0.39757 0.0
Zn45 Zn 0.47283 0.81361 0.35783 0.0
O46 O 0.43798 0.81191 0.38003 0.0
Zn47 Zn 0.43958 0.80798 0.33678 0.0
O48 O 0.41117 0.77459 0.33047 0.0
O49 O 0.44302 0.77444 0.35285 0.0
O50 O 0.46784 0.80643 0.31168 0.0
O51 O 0.50053 0.81265 0.33727 0.0
O52 O 0.4736 0.84824 0.34433 0.0
O53 O 0.43719 0.83621 0.3226 0.0
C54 C 0.42079 0.76226 0.34174 0.0
C55 C 0.45864 0.85396 0.33115 0.0
C56 C 0.68773 0.52 0.65208 0.0
C57 C 0.64411 0.48368 0.73868 0.0
O58 O 0.69361 0.53051 0.67531 0.0
Zn59 Zn 0.66519 0.50299 0.6956 0.0
O60 O 0.66775 0.4979 0.64962 0.0
Zn61 Zn 0.6387 0.4698 0.67474 0.0
O62 O 0.6079 0.46619 0.66012 0.0
O63 O 0.63066 0.50287 0.68165 0.0
O64 O 0.63331 0.46886 0.7183 0.0
O65 O 0.66329 0.50589 0.73469 0.0
O66 O 0.67436 0.47236 0.69392 0.0
O67 O 0.64409 0.44165 0.66901 0.0
C68 C 0.61046 0.48732 0.66822 0.0
C69 C 0.66461 0.45021 0.68276 0.0
C70 C 0.14648 0.61338 0.06541 0.0
C71 C 0.15566 0.65766 0.97782 0.0
O72 O 0.1444 0.6332 0.06133 0.0
Zn73 Zn 0.14879 0.6349 1.02195 0.0
O74 O 0.15025 0.60235 0.04504 0.0
Zn75 Zn 0.15495 0.60765 1.00143 0.0
O76 O 0.18829 0.61223 0.99576 0.0
O77 O 0.18815 0.64346 1.01941 0.0
O78 O 0.15723 0.63727 0.97582 0.0
O79 O 0.15028 0.66349 1.00075 0.0
O80 O 0.11426 0.60066 1.00894 0.0
O81 O 0.12721 0.57712 0.98709 0.0
C82 C 0.20032 0.63332 1.00842 0.0
C83 C 0.10904 0.58014 0.99588 0.0
C84 C 0.77164 0.44876 0.38539 0.0
C85 C 0.86305 0.48689 0.39829 0.0
O86 O 0.78424 0.44013 0.3979 0.0
Zn87 Zn 0.81721 0.46912 0.39274 0.0
O88 O 0.78334 0.47145 0.37534 0.0
Zn89 Zn 0.82291 0.50285 0.37415 0.0
O90 O 0.82742 0.5079 0.33517 0.0
O91 O 0.8215 0.47044 0.34901 0.0
O92 O 0.85794 0.50304 0.38674 0.0
O93 O 0.84482 0.46517 0.40532 0.0
O94 O 0.81568 0.49582 0.42007 0.0
O95 O 0.82163 0.52919 0.3961 0.0
C96 C 0.82506 0.48617 0.32964 0.0
C97 C 0.81732 0.51785 0.41885 0.0
C98 C 0.32375 0.76014 0.72435 0.0
C99 C 0.37611 0.85166 0.73668 0.0
O100 O 0.34548 0.77243 0.73597 0.0
Zn101 Zn 0.35 0.80577 0.73014 0.0
O102 O 0.3136 0.77232 0.71334 0.0
Zn103 Zn 0.32232 0.81135 0.709 0.0
O104 O 0.32511 0.81549 0.66931 0.0
O105 O 0.35598 0.81038 0.687 0.0
O106 O 0.35554 0.84591 0.7233 0.0
O107 O 0.38012 0.83396 0.74492 0.0
O108 O 0.31974 0.80337 0.75503 0.0
O109 O 0.29317 0.80951 0.72943 0.0
C110 C 0.34528 0.8138 0.66609 0.0
C111 C 0.29909 0.80454 0.7526 0.0
C112 C 0.56198 0.37112 1.00511 0.0
C113 C 0.51814 0.324 0.08741 0.0
O114 O 0.54118 0.34995 1.00736 0.0
Zn115 Zn 0.5398 0.34774 0.04647 0.0
O116 O 0.57438 0.38263 1.02666 0.0
Zn117 Zn 0.56941 0.37589 0.06998 0.0
O118 O 0.59835 0.37308 0.08117 0.0
O119 O 0.57041 0.33993 0.05713 0.0
O120 O 0.53918 0.34471 0.09248 0.0
O121 O 0.51059 0.3185 0.06297 0.0
O122 O 0.53467 0.37975 0.05819 0.0
O123 O 0.56832 0.40503 0.08327 0.0
C124 C 0.59126 0.3512 0.07101 0.0
C125 C 0.54722 0.40021 0.07239 0.0
C126 C 0.14988 0.5201 0.33657 0.0
C127 C 0.1607 0.48806 0.4256 0.0
O128 O 0.14614 0.49774 0.34174 0.0
Zn129 Zn 0.15287 0.50237 0.38099 0.0
O130 O 0.15607 0.53626 0.35604 0.0
Zn131 Zn 0.16314 0.53804 0.39905 0.0
O132 O 0.19782 0.56486 0.40137 0.0
O133 O 0.1933 0.53012 0.38106 0.0
O134 O 0.1643 0.51091 0.4263 0.0
O135 O 0.1531 0.47543 0.40357 0.0
O136 O 0.12095 0.50644 0.39566 0.0
O137 O 0.13795 0.54506 0.41362 0.0
C138 C 0.20774 0.55299 0.38979 0.0
C139 C 0.11824 0.52403 0.4074 0.0
C140 C 0.64893 0.16799 0.75757 0.0
C141 C 0.60491 0.15352 0.6702 0.0
O142 O 0.65587 0.1634 0.73489 0.0
Zn143 Zn 0.62615 0.15845 0.714 0.0
O144 O 0.62725 0.16716 0.75943 0.0
Zn145 Zn 0.5964 0.16145 0.73334 0.0
O146 O 0.56733 0.13206 0.74788 0.0
O147 O 0.5944 0.12253 0.7279 0.0
O148 O 0.59234 0.15612 0.68984 0.0
O149 O 0.62573 0.15356 0.67522 0.0
O150 O 0.63103 0.19645 0.71617 0.0
O151 O 0.5976 0.19353 0.7383 0.0
C152 C 0.57322 0.11542 0.74057 0.0
C153 C 0.61894 0.20703 0.72638 0.0
C154 C 0.46326 0.62201 0.99884 0.0
C155 C 0.49604 0.66829 0.08602 0.0
O156 O 0.48445 0.64268 1.00249 0.0
Zn157 Zn 0.48176 0.64503 0.042 0.0
O158 O 0.44897 0.61076 1.01942 0.0
Zn159 Zn 0.44896 0.61635 0.06266 0.0
O160 O 0.41872 0.61897 0.06723 0.0
O161 O 0.44939 0.651 0.04398 0.0
O162 O 0.47491 0.64708 0.08799 0.0
O163 O 0.50729 0.67474 0.06312 0.0
O164 O 0.48496 0.61277 0.05634 0.0
O165 O 0.44877 0.58694 0.07752 0.0
C166 C 0.42682 0.63989 0.05431 0.0
C167 C 0.47087 0.59195 0.06949 0.0
C168 C 0.55409 0.15329 0.42849 0.0
C169 C 0.53117 0.15343 0.42282 0.0
C170 C 0.56113 0.1519 0.45523 0.0
C171 C 0.5501 0.16443 0.52588 0.0
H172 H 0.581 0.12296 0.54402 0.0
C173 C 0.57208 0.15066 0.6367 0.0
C174 C 0.59547 0.15136 0.64192 0.0
C175 C 0.56356 0.14974 0.61009 0.0
C176 C 0.57266 0.13485 0.53926 0.0
H177 H 0.49753 0.15192 0.44097 0.0
H178 H 0.50975 0.14936 0.48765 0.0
H179 H 0.56721 0.1234 0.49753 0.0
H180 H 0.6281 0.15132 0.6231 0.0
H181 H 0.61338 0.14999 0.57663 0.0
H182 H 0.55573 0.17608 0.56749 0.0
C183 C 0.52243 0.1506 0.47137 0.0
C184 C 0.56472 0.13509 0.51259 0.0
C185 C 0.51534 0.15192 0.44458 0.0
C186 C 0.60996 0.15073 0.61984 0.0
C187 C 0.60144 0.14984 0.59317 0.0
C188 C 0.55807 0.16423 0.55252 0.0
C189 C 0.54546 0.15067 0.47703 0.0
C190 C 0.55339 0.14993 0.50555 0.0
C191 C 0.57822 0.14954 0.58795 0.0
C192 C 0.56949 0.14947 0.55957 0.0
H193 H 0.56679 0.15447 0.41226 0.0
H194 H 0.57914 0.15232 0.45884 0.0
H195 H 0.54185 0.17641 0.5211 0.0
H196 H 0.56033 0.15099 0.6532 0.0
H197 H 0.54538 0.14908 0.60689 0.0
C198 C 0.39107 0.55326 0.76309 0.0
C199 C 0.3685 0.52938 0.76035 0.0
C200 C 0.40186 0.56269 0.78862 0.0
C201 C 0.40186 0.54324 0.86055 0.0
H202 H 0.43204 0.61609 0.874 0.0
C203 C 0.43168 0.58714 0.96821 0.0
C204 C 0.45422 0.61102 0.97119 0.0
C205 C 0.42217 0.57697 0.94249 0.0
C206 C 0.42402 0.59576 0.87053 0.0
H207 H 0.33975 0.49664 0.7827 0.0
H208 H 0.35839 0.51325 0.82742 0.0
H209 H 0.41312 0.59867 0.82989 0.0
H210 H 0.48454 0.64275 0.94904 0.0
H211 H 0.46796 0.62495 0.90402 0.0
H212 H 0.41254 0.54036 0.90138 0.0
C213 C 0.36796 0.52457 0.80965 0.0
C214 C 0.41311 0.58569 0.84513 0.0
C215 C 0.35716 0.51506 0.78398 0.0
C216 C 0.46715 0.62433 0.94758 0.0
C217 C 0.45752 0.61417 0.92174 0.0
C218 C 0.4127 0.55331 0.88599 0.0
C219 C 0.39042 0.54864 0.81237 0.0
C220 C 0.40186 0.55927 0.8397 0.0
C221 C 0.43481 0.59037 0.91883 0.0
C222 C 0.42393 0.57972 0.89139 0.0
H223 H 0.40053 0.56483 0.74542 0.0
H224 H 0.4194 0.581 0.78966 0.0
H225 H 0.39381 0.5229 0.85712 0.0
H226 H 0.42111 0.57629 0.98585 0.0
H227 H 0.40448 0.5588 0.94118 0.0
C228 C 0.82577 0.45561 0.29576 0.0
C229 C 0.82482 0.47806 0.30113 0.0
C230 C 0.82338 0.44644 0.26929 0.0
C231 C 0.82651 0.46388 0.19649 0.0
H232 H 0.78735 0.39007 0.18814 0.0
C233 C 0.80203 0.4097 0.0919 0.0
C234 C 0.80715 0.38926 0.0912 0.0
C235 C 0.80341 0.42216 0.1165 0.0
C236 C 0.79838 0.41072 0.19012 0.0
H237 H 0.82127 0.50889 0.28264 0.0
H238 H 0.81672 0.49262 0.23625 0.0
H239 H 0.79152 0.40893 0.23277 0.0
H240 H 0.81782 0.36605 0.11589 0.0
H241 H 0.81995 0.38744 0.15826 0.0
H242 H 0.83318 0.46537 0.15349 0.0
C243 C 0.81959 0.48225 0.25259 0.0
C244 C 0.80092 0.42157 0.21576 0.0
C245 C 0.82215 0.49156 0.27919 0.0
C246 C 0.81375 0.3817 0.11554 0.0
C247 C 0.81483 0.39386 0.13996 0.0
C248 C 0.8238 0.45296 0.17067 0.0
C249 C 0.81972 0.4593 0.24737 0.0
C250 C 0.81553 0.44824 0.21947 0.0
C251 C 0.80952 0.4141 0.14083 0.0
C252 C 0.81019 0.42621 0.16736 0.0
H253 H 0.82808 0.44485 0.31209 0.0
H254 H 0.8243 0.4291 0.26605 0.0
H255 H 0.83794 0.48448 0.19856 0.0
H256 H 0.79692 0.41602 0.07353 0.0
H257 H 0.79919 0.43771 0.1166 0.0
C258 C 0.41865 0.81585 0.43111 0.0
C259 C 0.44225 0.8163 0.42844 0.0
C260 C 0.40882 0.8164 0.4567 0.0
C261 C 0.41288 0.80311 0.52954 0.0
H262 H 0.37859 0.84265 0.54045 0.0
C263 C 0.37986 0.81516 0.63618 0.0
C264 C 0.35653 0.81527 0.63866 0.0
C265 C 0.39045 0.81584 0.61068 0.0
C266 C 0.38779 0.83121 0.53774 0.0
H267 H 0.47399 0.81778 0.45099 0.0
H268 H 0.45683 0.81879 0.49576 0.0
H269 H 0.39717 0.84311 0.49633 0.0
H270 H 0.32616 0.81631 0.61584 0.0
H271 H 0.34444 0.81714 0.57124 0.0
H272 H 0.40332 0.79098 0.57082 0.0
C273 C 0.44584 0.81783 0.47792 0.0
C274 C 0.39854 0.83152 0.51237 0.0
C275 C 0.45578 0.8174 0.45221 0.0
C276 C 0.34418 0.81629 0.61478 0.0
C277 C 0.35478 0.81689 0.58915 0.0
C278 C 0.40206 0.80272 0.55489 0.0
C279 C 0.42218 0.81733 0.48053 0.0
C280 C 0.41124 0.81746 0.50786 0.0
C281 C 0.37804 0.81653 0.58671 0.0
C282 C 0.38935 0.81678 0.55944 0.0
H283 H 0.40758 0.81495 0.41335 0.0
H284 H 0.39042 0.81562 0.45779 0.0
H285 H 0.42209 0.79168 0.5268 0.0
H286 H 0.39008 0.81455 0.65403 0.0
H287 H 0.40859 0.81606 0.60983 0.0
C288 C 0.55795 0.37031 0.95427 0.0
C289 C 0.57138 0.38288 0.97796 0.0
C290 C 0.56629 0.38176 0.92878 0.0
C291 C 0.60588 0.44471 0.89542 0.0
H292 H 0.60277 0.40316 0.83391 0.0
C293 C 0.64874 0.48796 0.78959 0.0
C294 C 0.63507 0.47399 0.76659 0.0
C295 C 0.64114 0.4776 0.8157 0.0
C296 C 0.60348 0.41503 0.85077 0.0
H297 H 0.60429 0.41741 0.99325 0.0
H298 H 0.61893 0.43725 0.94878 0.0
H299 H 0.58959 0.38354 0.87851 0.0
H300 H 0.60214 0.43847 0.75322 0.0
H301 H 0.58874 0.42074 0.79846 0.0
H302 H 0.61972 0.4762 0.86756 0.0
C303 C 0.60176 0.41863 0.94996 0.0
C304 C 0.59593 0.40374 0.8764 0.0
C305 C 0.59346 0.40715 0.97546 0.0
C306 C 0.61326 0.44975 0.7704 0.0
C307 C 0.60566 0.43945 0.79641 0.0
C308 C 0.61342 0.45601 0.86971 0.0
C309 C 0.58826 0.40611 0.92627 0.0
C310 C 0.59689 0.41838 0.89907 0.0
C311 C 0.61969 0.45304 0.81942 0.0
C312 C 0.61217 0.44128 0.84699 0.0
H313 H 0.54082 0.35166 0.9554 0.0
H314 H 0.55521 0.37167 0.91105 0.0
H315 H 0.60659 0.45652 0.91233 0.0
H316 H 0.66568 0.50664 0.78742 0.0
H317 H 0.65253 0.48856 0.8329 0.0
C318 C 0.14881 0.55183 0.30421 0.0
C319 C 0.1477 0.52815 0.30847 0.0
C320 C 0.14773 0.56026 0.27802 0.0
C321 C 0.13007 0.53833 0.20634 0.0
H322 H 0.17169 0.6109 0.19089 0.0
C323 C 0.14502 0.57983 0.09709 0.0
C324 C 0.14513 0.60311 0.09332 0.0
C325 C 0.14447 0.57029 0.12318 0.0
C326 C 0.1597 0.59062 0.19489 0.0
H327 H 0.14433 0.49467 0.28818 0.0
H328 H 0.1429 0.50958 0.24232 0.0
H329 H 0.17273 0.59489 0.23598 0.0
H330 H 0.14455 0.63444 0.11437 0.0
H331 H 0.14364 0.61781 0.15992 0.0
H332 H 0.11738 0.53413 0.165 0.0
C333 C 0.14423 0.52151 0.25937 0.0
C334 C 0.16026 0.58137 0.22086 0.0
C335 C 0.14516 0.51296 0.28571 0.0
C336 C 0.1445 0.61649 0.11644 0.0
C337 C 0.14414 0.60701 0.1426 0.0
C338 C 0.12963 0.54758 0.18029 0.0
C339 C 0.1457 0.54542 0.25512 0.0
C340 C 0.14537 0.55509 0.22708 0.0
C341 C 0.14419 0.58379 0.14634 0.0
C342 C 0.14439 0.57388 0.17421 0.0
H343 H 0.15053 0.564 0.32119 0.0
H344 H 0.14833 0.57846 0.27582 0.0
H345 H 0.11804 0.51806 0.21032 0.0
H346 H 0.1455 0.56895 0.07983 0.0
H347 H 0.14482 0.55253 0.12519 0.0
C348 C 0.7338 0.43154 0.35457 0.0
C349 C 0.7442 0.43158 0.38012 0.0
C350 C 0.7095 0.41157 0.3474 0.0
C351 C 0.64879 0.35857 0.3697 0.0
H352 H 0.66079 0.31613 0.31939 0.0
C353 C 0.58048 0.24993 0.36307 0.0
C354 C 0.57985 0.23677 0.33939 0.0
C355 C 0.59726 0.27627 0.36513 0.0
C356 C 0.65659 0.32782 0.33279 0.0
H357 H 0.73684 0.41242 0.41902 0.0
H358 H 0.69392 0.37801 0.40679 0.0
H359 H 0.69462 0.35956 0.32818 0.0
H360 H 0.59468 0.24064 0.29864 0.0
H361 H 0.62268 0.28682 0.30133 0.0
H362 H 0.61069 0.3271 0.37427 0.0
C363 C 0.70464 0.39318 0.39228 0.0
C364 C 0.67615 0.35274 0.33788 0.0
C365 C 0.72916 0.41271 0.3992 0.0
C366 C 0.59527 0.25042 0.31731 0.0
C367 C 0.61142 0.27688 0.31899 0.0
C368 C 0.62888 0.33381 0.36406 0.0
C369 C 0.69511 0.39193 0.366 0.0
C370 C 0.67264 0.36799 0.35692 0.0
C371 C 0.61318 0.29013 0.34318 0.0
C372 C 0.63281 0.31774 0.34622 0.0
H373 H 0.74518 0.4458 0.33947 0.0
H374 H 0.70249 0.41074 0.32694 0.0
H375 H 0.64581 0.37011 0.38454 0.0
H376 H 0.56871 0.23968 0.38038 0.0
H377 H 0.59828 0.28547 0.38431 0.0
C378 C 0.28709 0.71848 0.70865 0.0
C379 C 0.30998 0.73196 0.72361 0.0
C380 C 0.27499 0.69188 0.70641 0.0
C381 C 0.27633 0.63447 0.73228 0.0
H382 H 0.27447 0.61797 0.65599 0.0
C383 C 0.32298 0.58728 0.66723 0.0
C384 C 0.31595 0.5645 0.68134 0.0
C385 C 0.30937 0.6002 0.67104 0.0
C386 C 0.27431 0.62201 0.67738 0.0
H387 H 0.33715 0.7281 0.74945 0.0
H388 H 0.31642 0.68187 0.74514 0.0
H389 H 0.27354 0.65645 0.6692 0.0
H390 H 0.28834 0.53656 0.70942 0.0
H391 H 0.26487 0.55961 0.7165 0.0
H392 H 0.27982 0.60144 0.74028 0.0
C393 C 0.30758 0.69172 0.7354 0.0
C394 C 0.27357 0.64393 0.685 0.0
C395 C 0.31972 0.71827 0.73753 0.0
C396 C 0.29434 0.55425 0.69844 0.0
C397 C 0.28082 0.56731 0.70242 0.0
C398 C 0.27711 0.61257 0.72465 0.0
C399 C 0.28549 0.67833 0.71924 0.0
C400 C 0.27649 0.65129 0.7124 0.0
C401 C 0.28854 0.59066 0.68914 0.0
C402 C 0.27802 0.60726 0.69706 0.0
H403 H 0.27894 0.72851 0.69795 0.0
H404 H 0.25798 0.68199 0.69388 0.0
H405 H 0.27807 0.63951 0.75358 0.0
H406 H 0.33937 0.5955 0.65371 0.0
H407 H 0.31609 0.61842 0.66091 0.0
C408 C 0.6032 0.31762 0.06089 0.0
C409 C 0.6057 0.33784 0.07722 0.0
C410 C 0.61657 0.30475 0.06731 0.0
C411 C 0.67348 0.3144 0.10626 0.0
H412 H 0.65021 0.24463 0.08322 0.0
C413 C 0.74737 0.28552 0.09882 0.0
C414 C 0.74945 0.28188 0.07106 0.0
C415 C 0.72386 0.28095 0.10948 0.0
C416 C 0.65677 0.26397 0.09024 0.0
H417 H 0.62305 0.3596 0.11384 0.0
H418 H 0.64557 0.33671 0.12559 0.0
H419 H 0.62055 0.26145 0.08186 0.0
H420 H 0.72835 0.26652 1.03378 0.0
H421 H 0.68742 0.25808 0.05223 0.0
H422 H 0.70983 0.31739 0.11366 0.0
C423 C 0.63412 0.33128 0.10725 0.0
C424 C 0.63992 0.27375 0.08914 0.0
C425 C 0.6212 0.34446 0.10051 0.0
C426 C 0.72707 0.26931 0.05532 0.0
C427 C 0.70359 0.2646 0.06595 0.0
C428 C 0.69013 0.30456 0.10766 0.0
C429 C 0.63235 0.31151 0.09053 0.0
C430 C 0.64843 0.29947 0.09606 0.0
C431 C 0.70237 0.2727 0.09237 0.0
C432 C 0.68235 0.27961 0.09859 0.0
H433 H 0.59127 0.31204 0.04288 0.0
H434 H 0.61505 0.29 0.05363 0.0
H435 H 0.68099 0.33436 0.11145 0.0
H436 H 0.76445 0.29541 0.11127 0.0
H437 H 0.72332 0.2869 0.13009 0.0
C438 C 0.38301 0.72045 0.32861 0.0
C439 C 0.40666 0.73404 0.34203 0.0
C440 C 0.36885 0.69385 0.33039 0.0
C441 C 0.3569 0.64509 0.37942 0.0
H442 H 0.30676 0.60348 0.32499 0.0
C443 C 0.24654 0.55537 0.36812 0.0
C444 C 0.23574 0.56542 0.38628 0.0
C445 C 0.27296 0.56846 0.36323 0.0
C446 C 0.32099 0.61435 0.34033 0.0
H447 H 0.43488 0.73037 0.36638 0.0
H448 H 0.40981 0.68378 0.36979 0.0
H449 H 0.34578 0.64203 0.31128 0.0
H450 H 0.24415 0.59593 0.41496 0.0
H451 H 0.28999 0.61879 0.40632 0.0
H452 H 0.33127 0.61834 0.40866 0.0
C453 C 0.40228 0.69377 0.35796 0.0
C454 C 0.34322 0.63656 0.33248 0.0
C455 C 0.41652 0.72043 0.35609 0.0
C456 C 0.2519 0.58789 0.40062 0.0
C457 C 0.27823 0.60077 0.39596 0.0
C458 C 0.33472 0.62285 0.38725 0.0
C459 C 0.37802 0.68029 0.34567 0.0
C460 C 0.36037 0.65306 0.3522 0.0
C461 C 0.28895 0.59156 0.37672 0.0
C462 C 0.31574 0.6084 0.36797 0.0
H463 H 0.37503 0.73037 0.31738 0.0
H464 H 0.35 0.68408 0.32108 0.0
H465 H 0.36983 0.65732 0.3951 0.0
H466 H 0.23451 0.53794 0.35692 0.0
H467 H 0.28076 0.56102 0.34826 0.0
C468 C 0.6845 0.43299 0.71458 0.0
C469 C 0.67516 0.43332 0.68853 0.0
C470 C 0.68849 0.41288 0.72226 0.0
C471 C 0.69407 0.35793 0.70085 0.0
H472 H 0.63674 0.31768 0.74883 0.0
C473 C 0.64432 0.2485 0.7024 0.0
C474 C 0.6307 0.23497 0.72545 0.0
C475 C 0.65593 0.27513 0.70163 0.0
C476 C 0.65336 0.32868 0.73613 0.0
H477 H 0.66528 0.41482 0.64922 0.0
H478 H 0.67311 0.3801 0.6624 0.0
H479 H 0.65027 0.36235 0.74106 0.0
H480 H 0.61953 0.23827 0.76631 0.0
H481 H 0.64103 0.28487 0.76577 0.0
H482 H 0.69734 0.3244 0.69582 0.0
C483 C 0.67704 0.39514 0.67691 0.0
C484 C 0.66106 0.35436 0.73166 0.0
C485 C 0.67239 0.41484 0.66944 0.0
C486 C 0.6295 0.24839 0.74808 0.0
C487 C 0.64181 0.27509 0.74768 0.0
C488 C 0.68686 0.33237 0.7059 0.0
C489 C 0.6839 0.39339 0.70371 0.0
C490 C 0.68078 0.36884 0.71324 0.0
C491 C 0.65485 0.28885 0.72428 0.0
C492 C 0.66565 0.31708 0.72268 0.0
H493 H 0.68662 0.447 0.72967 0.0
H494 H 0.69358 0.41167 0.74309 0.0
H495 H 0.70933 0.36888 0.68651 0.0
H496 H 0.64548 0.23841 0.68473 0.0
H497 H 0.66516 0.28478 0.68297 0.0
C498 C 0.23984 0.65296 0.03628 0.0
C499 C 0.22821 0.64601 1.01074 0.0
C500 C 0.26619 0.66255 0.03885 0.0
C501 C 0.31836 0.66054 1.00111 0.0
H502 H 0.35662 0.69534 0.06582 0.0
C503 C 0.4143 0.66722 1.02783 0.0
C504 C 0.41015 0.65103 0.05013 0.0
C505 C 0.39709 0.67582 1.02216 0.0
C506 C 0.34627 0.68603 0.04744 0.0
H507 H 0.23452 0.64566 0.96762 0.0
H508 H 0.28089 0.6642 0.97166 0.0
H509 H 0.31677 0.69524 0.05515 0.0
H510 H 0.38601 0.63261 0.08507 0.0
H511 H 0.35605 0.64812 0.07532 0.0
H512 H 0.348 0.65145 0.99355 0.0
C513 C 0.26976 0.66095 0.98998 0.0
C514 C 0.32334 0.68566 0.04143 0.0
C515 C 0.24327 0.65047 0.98756 0.0
C516 C 0.38945 0.64487 0.06762 0.0
C517 C 0.37256 0.65395 0.06226 0.0
C518 C 0.34158 0.66157 1.00672 0.0
C519 C 0.28145 0.66608 1.01577 0.0
C520 C 0.30844 0.6718 1.01889 0.0
C521 C 0.37591 0.66888 0.03911 0.0
C522 C 0.35507 0.67337 1.03047 0.0
H523 H 0.22835 0.64964 0.05437 0.0
H524 H 0.27418 0.66579 0.05911 0.0
H525 H 0.30749 0.6493 0.98382 0.0
H526 H 0.43015 0.67225 1.01404 0.0
H527 H 0.39975 0.68711 1.00406 0.0
C528 C 0.48997 0.07065 0.33604 0.0
C529 C 0.51124 0.08957 0.32183 0.0
C530 C 0.48367 0.04497 0.33453 0.0
C531 C 0.51305 0.00511 0.31855 0.0
H532 H 0.44256 0.94963 0.32066 0.0
C533 C 0.45063 0.88737 0.31039 0.0
C534 C 0.4657 0.88105 0.32705 0.0
C535 C 0.45636 0.9128 0.30775 0.0
C536 C 0.46236 0.96487 0.31973 0.0
H537 H 0.54187 0.09627 0.29389 0.0
H538 H 0.5305 0.05149 0.29068 0.0
H539 H 0.45141 -0.00628 0.3185 0.0
H540 H 0.49879 0.89649 0.35378 0.0
H541 H 0.50849 0.94076 0.34962 0.0
H542 H 0.52401 0.97629 0.31917 0.0
C543 C 0.51909 0.05651 0.30361 0.0
C544 C 0.46743 0.99019 0.31885 0.0
C545 C 0.5255 0.08218 0.3053 0.0
C546 C 0.48688 0.90074 0.34066 0.0
C547 C 0.49251 0.92616 0.33817 0.0
C548 C 0.50798 0.97981 0.31926 0.0
C549 C 0.49839 0.03764 0.31859 0.0
C550 C 0.49285 0.01064 0.31843 0.0
C551 C 0.47719 0.93247 0.32185 0.0
C552 C 0.48258 0.95938 0.32007 0.0
H553 H 0.47867 0.07576 0.34905 0.0
H554 H 0.46778 0.03101 0.34658 0.0
H555 H 0.53288 0.02036 0.31861 0.0
H556 H 0.43426 0.87266 0.29949 0.0
H557 H 0.44444 0.91702 0.29464 0.0
C558 C 0.43191 0.53134 0.6414 0.0
C559 C 0.41062 0.51417 0.65694 0.0
C560 C 0.45361 0.52851 0.63959 0.0
C561 C 0.4768 0.48254 0.65174 0.0
H562 H 0.5433 0.54417 0.65738 0.0
C563 C 0.58808 0.51231 0.67788 0.0
C564 C 0.58958 0.49311 0.66318 0.0
C565 C 0.56687 0.51587 0.67479 0.0
C566 C 0.52488 0.52678 0.65594 0.0
H567 H 0.39515 0.48016 0.68219 0.0
H568 H 0.43309 0.47545 0.67937 0.0
H569 H 0.50444 0.54749 0.6565 0.0
H570 H 0.57076 0.46351 0.63267 0.0
H571 H 0.53426 0.47013 0.62682 0.0
H572 H 0.49709 0.46174 0.6523 0.0
C573 C 0.43292 0.4909 0.66824 0.0
C574 C 0.5026 0.52869 0.65506 0.0
C575 C 0.41117 0.49365 0.66993 0.0
C576 C 0.57003 0.47827 0.64455 0.0
C577 C 0.549 0.48196 0.64131 0.0
C578 C 0.49904 0.48062 0.65274 0.0
C579 C 0.45455 0.50853 0.65338 0.0
C580 C 0.47829 0.50657 0.6531 0.0
C581 C 0.54686 0.50042 0.65679 0.0
C582 C 0.52335 0.5027 0.65495 0.0
H583 H 0.43205 0.54728 0.631 0.0
H584 H 0.46974 0.54214 0.62756 0.0
H585 H 0.45842 0.46514 0.64994 0.0
H586 H 0.60282 0.52399 0.69244 0.0
H587 H 0.56574 0.53012 0.68721 0.0
C588 C 0.90383 0.38524 1.02687 0.0
C589 C 0.88246 0.38397 1.01369 0.0
C590 C 0.92851 0.40571 1.0218 0.0
C591 C 0.9602 0.47263 0.99773 0.0
H592 H 0.02125 0.46605 0.99677 0.0
C593 C 0.07663 0.53734 0.97756 0.0
C594 C 0.08224 0.55905 0.9932 0.0
C595 C 0.05195 0.51606 0.97749 0.0
C596 C 0.00436 0.46819 0.99667 0.0
H597 H 0.87031 0.40213 0.98357 0.0
H598 H 0.9132 0.43729 0.97432 0.0
H599 H 0.97914 0.42776 1.00055 0.0
H600 H 0.06614 0.57577 1.02032 0.0
H601 H 0.02313 0.53853 1.02045 0.0
H602 H 0.98532 0.51298 0.99348 0.0
C603 C 0.91094 0.42301 0.98915 0.0
C604 C 0.98025 0.44626 0.99918 0.0
C605 C 0.88636 0.40275 0.99434 0.0
C606 C 0.06241 0.5594 1.00796 0.0
C607 C 0.03773 0.53805 1.00798 0.0
C608 C 0.98427 0.49452 0.99516 0.0
C609 C 0.93223 0.42514 1.00334 0.0
C610 C 0.95789 0.44824 0.99984 0.0
C611 C 0.03234 0.51596 0.99312 0.0
C612 C 0.00665 0.49259 0.99475 0.0
H613 H 0.90139 0.37109 0.04194 0.0
H614 H 0.94449 0.40685 1.03318 0.0
H615 H 0.9434 0.4749 0.99857 0.0
H616 H 0.09144 0.53652 0.96579 0.0
H617 H 0.04831 0.49957 0.96539 0.0
C618 C 0.07029 0.49661 0.40937 0.0
C619 C 0.09239 0.52083 0.41151 0.0
C620 C 0.04588 0.49412 0.41111 0.0
C621 C 0.01214 0.52885 0.39702 0.0
H622 H 0.95859 0.47855 0.44322 0.0
C623 C 0.91059 0.51777 0.40016 0.0
C624 C 0.88984 0.4927 0.40241 0.0
C625 C 0.93582 0.52267 0.40368 0.0
C626 C 0.97319 0.49249 0.42991 0.0
H627 H 0.10623 0.56139 0.41751 0.0
H628 H 0.0636 0.55699 0.41999 0.0
H629 H 0.00147 0.48355 0.44471 0.0
H630 H 0.87929 0.45307 0.40976 0.0
H631 H 0.92287 0.46137 0.41481 0.0
H632 H 0.98383 0.5371 0.38124 0.0
C633 C 0.06522 0.53999 0.41715 0.0
C634 C -0.00223 0.4954 0.43092 0.0
C635 C 0.08959 0.54243 0.41589 0.0
C636 C 0.89481 0.47268 0.40819 0.0
C637 C 0.91991 0.47749 0.4113 0.0
C638 C 0.98745 0.52566 0.39565 0.0
C639 C 0.04316 0.51585 0.41454 0.0
C640 C 0.0174 0.51347 0.41436 0.0
C641 C 0.9408 0.50253 0.40916 0.0
C642 C 0.96755 0.50724 0.41189 0.0
H643 H 0.07184 0.47964 0.40598 0.0
H644 H 0.02911 0.47531 0.40892 0.0
H645 H 0.02696 0.5428 0.38387 0.0
H646 H 0.90735 0.5336 0.39583 0.0
H647 H 0.95138 0.54225 0.40222 0.0
C648 C 0.55755 0.06906 0.73119 0.0
C649 C 0.55495 0.08797 0.7452 0.0
C650 C 0.53879 0.04327 0.73354 0.0
C651 C 0.47033 0.00284 0.75128 0.0
H652 H 0.48657 0.94803 0.74833 0.0
C653 C 0.417 0.88508 0.75803 0.0
C654 C 0.39565 0.87875 0.74133 0.0
C655 C 0.43629 0.91056 0.76111 0.0
C656 C 0.48168 0.96309 0.74953 0.0
H657 H 0.53138 0.09458 0.77379 0.0
H658 H 0.49907 0.0496 0.77845 0.0
H659 H 0.52121 -0.00766 0.75026 0.0
H660 H 0.37765 0.89423 0.71505 0.0
H661 H 0.4115 0.9386 0.71997 0.0
H662 H 0.43083 0.97363 0.75108 0.0
C663 C 0.51518 0.0547 0.76503 0.0
C664 C 0.50157 0.98852 0.75027 0.0
C665 C 0.53379 0.08048 0.76249 0.0
C666 C 0.39378 0.89848 0.72817 0.0
C667 C 0.41315 0.92395 0.73111 0.0
C668 C 0.45046 0.97743 0.7507 0.0
C669 C 0.51715 0.03583 0.75014 0.0
C670 C 0.49613 0.00871 0.75089 0.0
C671 C 0.43475 0.93028 0.74743 0.0
C672 C 0.45589 0.95725 0.74952 0.0
H673 H 0.57359 0.07425 0.71763 0.0
H674 H 0.5408 0.02929 0.72155 0.0
H675 H 0.4654 0.01789 0.75139 0.0
H676 H 0.41895 0.87033 0.76858 0.0
H677 H 0.45244 0.9148 0.77419 0.0
C678 C 0.4648 0.55086 0.0891 0.0
C679 C 0.47964 0.57315 0.07375 0.0
C680 C 0.47207 0.53218 0.09143 0.0
C681 C 0.52709 0.52108 0.08188 0.0
H682 H 0.47376 0.44989 0.07629 0.0
C683 C 0.51731 0.41632 0.05942 0.0
C684 C 0.53779 0.41861 0.07534 0.0
C685 C 0.50956 0.43469 0.06109 0.0
C686 C 0.4889 0.46968 0.07772 0.0
H687 H 0.514 0.59351 0.04924 0.0
H688 H 0.52645 0.56079 0.05295 0.0
H689 H 0.46219 0.4834 0.07549 0.0
H690 H 0.56558 0.44146 0.10623 0.0
H691 H 0.55172 0.47312 0.10957 0.0
H692 H 0.55388 0.50746 0.08305 0.0
C693 C 0.5094 0.55789 0.06354 0.0
C694 C 0.48224 0.48889 0.07763 0.0
C695 C 0.5022 0.57662 0.06131 0.0
C696 C 0.54988 0.43926 0.09349 0.0
C697 C 0.54203 0.45751 0.0953 0.0
C698 C 0.53375 0.50189 0.08186 0.0
C699 C 0.49428 0.53531 0.07838 0.0
C700 C 0.50127 0.51483 0.07956 0.0
C701 C 0.52202 0.45566 0.07886 0.0
C702 C 0.51475 0.47596 0.07966 0.0
H703 H 0.44737 0.54765 0.09906 0.0
H704 H 0.46023 0.51522 0.1034 0.0
H705 H 0.54221 0.54084 0.08371 0.0
H706 H 0.50766 0.40067 0.04516 0.0
H707 H 0.49427 0.43283 0.04791 0.0
C708 C 0.49616 0.17719 0.25666 0.0
C709 C 0.48454 0.17508 0.28199 0.0
C710 C 0.49105 0.18869 0.23473 0.0
C711 C 0.47267 0.20788 0.18794 0.0
H712 H 0.47628 0.27229 0.20603 0.0
C713 C 0.48502 0.28045 0.10441 0.0
C714 C 0.50463 0.30563 0.10977 0.0
C715 C 0.47527 0.26216 0.12524 0.0
C716 C 0.47515 0.25432 0.2006 0.0
H717 H 0.45716 0.18202 0.30367 0.0
H718 H 0.44803 0.202 0.26515 0.0
H719 H 0.47234 0.24289 0.24214 0.0
H720 H 0.52824 0.33166 0.14156 0.0
H721 H 0.51156 0.29998 0.17752 0.0
H722 H 0.47717 0.22004 0.14654 0.0
C723 C 0.46139 0.19501 0.26242 0.0
C724 C 0.47256 0.23727 0.22132 0.0
C725 C 0.46646 0.18337 0.28443 0.0
C726 C 0.51319 0.31244 0.13664 0.0
C727 C 0.50345 0.29424 0.15739 0.0
C728 C 0.47534 0.22495 0.16723 0.0
C729 C 0.47417 0.19843 0.23751 0.0
C730 C 0.47214 0.21421 0.21532 0.0
C731 C 0.48484 0.2687 0.15188 0.0
C732 C 0.47747 0.24877 0.17336 0.0
H733 H 0.51013 0.17094 0.25401 0.0
H734 H 0.5015 0.1912 0.21603 0.0
H735 H 0.47197 0.19009 0.18254 0.0
H736 H 0.47795 0.27456 0.08395 0.0
H737 H 0.46069 0.24275 0.12034 0.0
C738 C 0.1747 0.45873 0.44703 0.0
C739 C 0.16849 0.47833 0.44956 0.0
C740 C 0.18622 0.45288 0.46868 0.0
C741 C 0.20035 0.46308 0.54311 0.0
H742 H 0.26043 0.45793 0.5248 0.0
C743 C 0.30082 0.48537 0.59686 0.0
C744 C 0.29235 0.47486 0.62285 0.0
C745 C 0.28339 0.47995 0.57559 0.0
C746 C 0.24365 0.45925 0.53031 0.0
H747 H 0.16836 0.50617 0.47741 0.0
H748 H 0.18809 0.49592 0.51486 0.0
H749 H 0.23328 0.45933 0.4887 0.0
H750 H 0.25879 0.44946 0.64646 0.0
H751 H 0.22818 0.43988 0.60919 0.0
H752 H 0.21133 0.46409 0.5847 0.0
C753 C 0.1841 0.48496 0.4963 0.0
C754 C 0.22789 0.45978 0.50956 0.0
C755 C 0.17285 0.49094 0.47468 0.0
C756 C 0.266 0.45774 0.62667 0.0
C757 C 0.24843 0.45248 0.60537 0.0
C758 C 0.21604 0.46242 0.56387 0.0
C759 C 0.19154 0.46628 0.49345 0.0
C760 C 0.20634 0.46232 0.51563 0.0
C761 C 0.25686 0.46398 0.57968 0.0
C762 C 0.23827 0.46112 0.55776 0.0
H763 H 0.17175 0.44872 0.42796 0.0
H764 H 0.19141 0.43818 0.46583 0.0
H765 H 0.18376 0.46472 0.54862 0.0
H766 H 0.32096 0.49867 0.59315 0.0
H767 H 0.29067 0.48939 0.55628 0.0
C768 C 0.76557 0.31611 0.93592 0.0
C769 C 0.77782 0.30987 0.95647 0.0
C770 C 0.75482 0.30001 0.91341 0.0
C771 C 0.72747 0.23269 0.89356 0.0
H772 H 0.7331 0.25825 0.82018 0.0
C773 C 0.65698 0.17631 0.80714 0.0
C774 C 0.6668 0.17811 0.78086 0.0
C775 C 0.67317 0.19037 0.8285 0.0
C776 C 0.73162 0.25079 0.84052 0.0
H777 H 0.7889 0.28208 0.96903 0.0
H778 H 0.77008 0.25412 0.92998 0.0
H779 H 0.75666 0.2881 0.85698 0.0
H780 H 0.70147 0.19518 0.75659 0.0
H781 H 0.72985 0.22004 0.79403 0.0
H782 H 0.70196 0.19549 0.87725 0.0
C783 C 0.76866 0.27136 0.93133 0.0
C784 C 0.74487 0.26792 0.86161 0.0
C785 C 0.77957 0.28751 0.95365 0.0
C786 C 0.6934 0.19322 0.77668 0.0
C787 C 0.70958 0.20766 0.79801 0.0
C788 C 0.714 0.21563 0.87255 0.0
C789 C 0.75589 0.27724 0.91112 0.0
C790 C 0.74278 0.25907 0.8884 0.0
C791 C 0.6995 0.20685 0.82398 0.0
C792 C 0.71575 0.22451 0.84583 0.0
H793 H 0.76387 0.33317 0.93745 0.0
H794 H 0.74493 0.30496 0.89825 0.0
H795 H 0.72529 0.2253 0.91402 0.0
H796 H 0.63655 0.16487 0.81095 0.0
H797 H 0.6648 0.18943 0.84822 0.0
C798 C 0.49429 0.67619 0.13563 0.0
C799 C 0.50525 0.68568 0.11001 0.0
C800 C 0.49964 0.69264 0.15774 0.0
C801 C 0.51942 0.75995 0.1734 0.0
H802 H 0.51871 0.73743 0.24731 0.0
C803 C 0.48997 0.79988 0.26423 0.0
C804 C 0.50052 0.80127 0.29012 0.0
C805 C 0.49654 0.78971 0.24216 0.0
C806 C 0.51938 0.74432 0.22685 0.0
H807 H 0.53138 0.72005 0.08798 0.0
H808 H 0.54097 0.74893 0.12679 0.0
H809 H 0.52024 0.71207 0.2096 0.0
H810 H 0.52728 0.79401 0.31265 0.0
H811 H 0.53903 0.7764 0.27391 0.0
H812 H 0.51841 0.79212 0.19066 0.0
C813 C 0.52795 0.72864 0.12963 0.0
C814 C 0.51993 0.72955 0.20513 0.0
C815 C 0.52266 0.71206 0.10741 0.0
C816 C 0.51884 0.79332 0.29301 0.0
C817 C 0.52536 0.78297 0.27083 0.0
C818 C 0.51889 0.77473 0.19513 0.0
C819 C 0.51612 0.71919 0.155 0.0
C820 C 0.51926 0.73677 0.17806 0.0
C821 C 0.51386 0.78052 0.2452 0.0
C822 C 0.51818 0.7668 0.22218 0.0
H823 H 0.48079 0.656 0.13848 0.0
H824 H 0.48985 0.68456 0.17671 0.0
H825 H 0.51876 0.76614 0.15293 0.0
H826 H 0.4758 0.80581 0.26117 0.0
H827 H 0.48699 0.78793 0.22296 0.0
C828 C 0.69476 0.52219 0.60208 0.0
C829 C 0.70452 0.5315 0.62811 0.0
C830 C 0.711 0.52949 0.57961 0.0
C831 C 0.77761 0.54936 0.56278 0.0
H832 H 0.75462 0.55255 0.49005 0.0
C833 C 0.8068 0.54887 0.44203 0.0
C834 C 0.81204 0.52856 0.44358 0.0
C835 C 0.79843 0.55638 0.46503 0.0
C836 C 0.76166 0.5522 0.51019 0.0
H837 H 0.73887 0.5569 0.65071 0.0
H838 H 0.76746 0.56976 0.61122 0.0
H839 H 0.73056 0.55418 0.52905 0.0
H840 H 0.81395 0.5012 0.47085 0.0
H841 H 0.79934 0.51409 0.51056 0.0
H842 H 0.80841 0.54684 0.54391 0.0
C843 C 0.74716 0.55662 0.60834 0.0
C844 C 0.74769 0.55286 0.53258 0.0
C845 C 0.73077 0.54943 0.63091 0.0
C846 C 0.81 0.51686 0.46887 0.0
C847 C 0.8018 0.52442 0.49178 0.0
C848 C 0.7916 0.54871 0.54039 0.0
C849 C 0.73752 0.54624 0.58251 0.0
C850 C 0.75497 0.55055 0.55913 0.0
C851 C 0.79533 0.54387 0.49007 0.0
C852 C 0.7833 0.54923 0.51379 0.0
H853 H 0.67461 0.50842 0.59917 0.0
H854 H 0.70288 0.52084 0.56018 0.0
H855 H 0.78375 0.54742 0.58289 0.0
H856 H 0.8082 0.5583 0.42287 0.0
H857 H 0.79387 0.57162 0.46307 0.0
C858 C 0.16551 0.6664 0.9283 0.0
C859 C 0.16294 0.67515 0.95395 0.0
C860 C 0.17607 0.68328 0.90643 0.0
C861 C 0.22048 0.75159 0.89189 0.0
H862 H 0.20078 0.72956 0.81751 0.0
C863 C 0.29055 0.7959 0.80227 0.0
C864 C 0.28139 0.79704 0.7763 0.0
C865 C 0.2737 0.78476 0.82407 0.0
C866 C 0.20637 0.7363 0.83811 0.0
H867 H 0.16857 0.70859 0.97623 0.0
H868 H 0.18688 0.73819 0.93785 0.0
H869 H 0.17429 0.70271 0.85464 0.0
H870 H 0.2472 0.7883 0.75332 0.0
H871 H 0.21762 0.76896 0.79159 0.0
H872 H 0.25267 0.7851 0.87535 0.0
C873 C 0.18092 0.71817 0.93481 0.0
C874 C 0.1913 0.72069 0.85949 0.0
C875 C 0.17018 0.70116 0.95678 0.0
C876 C 0.25494 0.78785 0.77305 0.0
C877 C 0.23796 0.77651 0.79495 0.0
C878 C 0.23555 0.76721 0.8705 0.0
C879 C 0.18448 0.70954 0.90944 0.0
C880 C 0.19848 0.72778 0.88671 0.0
C881 C 0.24707 0.77429 0.82064 0.0
C882 C 0.22909 0.7595 0.84329 0.0
H883 H 0.16017 0.64652 0.92529 0.0
H884 H 0.17872 0.67586 0.88744 0.0
H885 H 0.22679 0.75772 0.9125 0.0
H886 H 0.3108 0.80276 0.80559 0.0
H887 H 0.28154 0.78322 0.84333 0.0
loop_
_geom_bond_atom_site_label_1
_geom_bond_atom_site_label_2
_geom_bond_distance
_geom_bond_site_symmetry_2
_ccdc_geom_bond_type
C0 O2 1.247 . S
C0 O4 1.258 . S
C1 O8 1.247 . S
C1 O9 1.258 . S
O2 C0 1.247 . S
O2 Zn3 2.028 . S
Zn3 O2 2.028 . S
Zn3 O7 2.035 . S
Zn3 O9 2.035 . S
Zn3 O10 2.028 . S
O4 C0 1.258 . S
O4 Zn5 2.035 . S
Zn5 O4 2.035 . S
Zn5 O6 2.028 . S
Zn5 O8 2.028 . S
Zn5 O11 2.035 . S
O6 Zn5 2.028 . S
O6 C12 1.247 . S
O7 Zn3 2.035 . S
O7 C12 1.258 . S
O8 C1 1.247 . S
O8 Zn5 2.028 . S
O9 C1 1.258 . S
O9 Zn3 2.035 . S
O10 Zn3 2.028 . S
O10 C13 1.247 . S
O11 Zn5 2.035 . S
O11 C13 1.258 . S
C12 O6 1.247 . S
C12 O7 1.258 . S
C13 O10 1.247 . S
C13 O11 1.258 . S
C14 O16 1.247 . S
C14 O18 1.258 . S
C15 O22 1.247 . S
C15 O23 1.258 . S
O16 C14 1.247 . S
O16 Zn17 2.028 . S
Zn17 O16 2.028 . S
Zn17 O21 2.035 . S
Zn17 O23 2.035 . S
Zn17 O24 2.028 . S
O18 C14 1.258 . S
O18 Zn19 2.035 . S
Zn19 O18 2.035 . S
Zn19 O20 2.028 . S
Zn19 O22 2.028 . S
Zn19 O25 2.035 . S
O20 Zn19 2.028 . S
O20 C26 1.247 . S
O21 Zn17 2.035 . S
O21 C26 1.258 . S
O22 C15 1.247 . S
O22 Zn19 2.028 . S
O23 C15 1.258 . S
O23 Zn17 2.035 . S
O24 Zn17 2.028 . S
O24 C27 1.247 . S
O25 Zn19 2.035 . S
O25 C27 1.258 . S
C26 O20 1.247 . S
C26 O21 1.258 . S
C27 O24 1.247 . S
C27 O25 1.258 . S
C28 O30 1.247 . S
C28 O32 1.258 . S
C29 O36 1.247 . S
C29 O37 1.258 . S
O30 C28 1.247 . S
O30 Zn31 2.028 . S
Zn31 O30 2.028 . S
Zn31 O35 2.035 . S
Zn31 O37 2.035 1_554 S
Zn31 O38 2.028 . S
O32 C28 1.258 . S
O32 Zn33 2.035 1_554 S
Zn33 O32 2.035 1_556 S
Zn33 O34 2.028 . S
Zn33 O36 2.028 . S
Zn33 O39 2.035 . S
O34 Zn33 2.028 . S
O34 C40 1.247 1_556 S
O35 Zn31 2.035 . S
O35 C40 1.258 . S
O36 C29 1.247 . S
O36 Zn33 2.028 . S
O37 C29 1.258 . S
O37 Zn31 2.035 1_556 S
O38 Zn31 2.028 . S
O38 C41 1.247 1_554 S
O39 Zn33 2.035 . S
O39 C41 1.258 . S
C40 O34 1.247 1_554 S
C40 O35 1.258 . S
C41 O38 1.247 1_556 S
C41 O39 1.258 . S
C42 O44 1.247 . S
C42 O46 1.258 . S
C43 O50 1.247 . S
C43 O51 1.258 . S
O44 C42 1.247 . S
O44 Zn45 2.028 . S
Zn45 O44 2.028 . S
Zn45 O49 2.035 . S
Zn45 O51 2.035 . S
Zn45 O52 2.028 . S
O46 C42 1.258 . S
O46 Zn47 2.035 . S
Zn47 O46 2.035 . S
Zn47 O48 2.028 . S
Zn47 O50 2.028 . S
Zn47 O53 2.035 . S
O48 Zn47 2.028 . S
O48 C54 1.247 . S
O49 Zn45 2.035 . S
O49 C54 1.258 . S
O50 C43 1.247 . S
O50 Zn47 2.028 . S
O51 C43 1.258 . S
O51 Zn45 2.035 . S
O52 Zn45 2.028 . S
O52 C55 1.247 . S
O53 Zn47 2.035 . S
O53 C55 1.258 . S
C54 O48 1.247 . S
C54 O49 1.258 . S
C55 O52 1.247 . S
C55 O53 1.258 . S
C56 O58 1.247 . S
C56 O60 1.258 . S
C57 O64 1.247 . S
C57 O65 1.258 . S
O58 C56 1.247 . S
O58 Zn59 2.028 . S
Zn59 O58 2.028 . S
Zn59 O63 2.035 . S
Zn59 O65 2.035 . S
Zn59 O66 2.028 . S
O60 C56 1.258 . S
O60 Zn61 2.035 . S
Zn61 O60 2.035 . S
Zn61 O62 2.028 . S
Zn61 O64 2.028 . S
Zn61 O67 2.035 . S
O62 Zn61 2.028 . S
O62 C68 1.247 . S
O63 Zn59 2.035 . S
O63 C68 1.258 . S
O64 C57 1.247 . S
O64 Zn61 2.028 . S
O65 C57 1.258 . S
O65 Zn59 2.035 . S
O66 Zn59 2.028 . S
O66 C69 1.247 . S
O67 Zn61 2.035 . S
O67 C69 1.258 . S
C68 O62 1.247 . S
C68 O63 1.258 . S
C69 O66 1.247 . S
C69 O67 1.258 . S
C70 O72 1.247 . S
C70 O74 1.258 . S
C71 O78 1.247 . S
C71 O79 1.258 . S
O72 C70 1.247 . S
O72 Zn73 2.028 . S
Zn73 O72 2.028 . S
Zn73 O77 2.035 . S
Zn73 O79 2.035 1_554 S
Zn73 O80 2.028 . S
O74 C70 1.258 . S
O74 Zn75 2.035 1_554 S
Zn75 O74 2.035 1_556 S
Zn75 O76 2.028 . S
Zn75 O78 2.028 . S
Zn75 O81 2.035 . S
O76 Zn75 2.028 . S
O76 C82 1.247 1_556 S
O77 Zn73 2.035 . S
O77 C82 1.258 . S
O78 C71 1.247 . S
O78 Zn75 2.028 . S
O79 C71 1.258 . S
O79 Zn73 2.035 1_556 S
O80 Zn73 2.028 . S
O80 C83 1.247 1_554 S
O81 Zn75 2.035 . S
O81 C83 1.258 . S
C82 O76 1.247 1_554 S
C82 O77 1.258 . S
C83 O80 1.247 1_556 S
C83 O81 1.258 . S
C84 O86 1.247 . S
C84 O88 1.258 . S
C85 O92 1.247 . S
C85 O93 1.258 . S
O86 C84 1.247 . S
O86 Zn87 2.028 . S
Zn87 O86 2.028 . S
Zn87 O91 2.035 . S
Zn87 O93 2.035 . S
Zn87 O94 2.028 . S
O88 C84 1.258 . S
O88 Zn89 2.035 . S
Zn89 O88 2.035 . S
Zn89 O90 2.028 . S
Zn89 O92 2.028 . S
Zn89 O95 2.035 . S
O90 Zn89 2.028 . S
O90 C96 1.247 . S
O91 Zn87 2.035 . S
O91 C96 1.258 . S
O92 C85 1.247 . S
O92 Zn89 2.028 . S
O93 C85 1.258 . S
O93 Zn87 2.035 . S
O94 Zn87 2.028 . S
O94 C97 1.247 . S
O95 Zn89 2.035 . S
O95 C97 1.258 . S
C96 O90 1.247 . S
C96 O91 1.258 . S
C97 O94 1.247 . S
C97 O95 1.258 . S
C98 O100 1.247 . S
C98 O102 1.258 . S
C99 O106 1.247 . S
C99 O107 1.258 . S
O100 C98 1.247 . S
O100 Zn101 2.028 . S
Zn101 O100 2.028 . S
Zn101 O105 2.035 . S
Zn101 O107 2.035 . S
Zn101 O108 2.028 . S
O102 C98 1.258 . S
O102 Zn103 2.035 . S
Zn103 O102 2.035 . S
Zn103 O104 2.028 . S
Zn103 O106 2.028 . S
Zn103 O109 2.035 . S
O104 Zn103 2.028 . S
O104 C110 1.247 . S
O105 Zn101 2.035 . S
O105 C110 1.258 . S
O106 C99 1.247 . S
O106 Zn103 2.028 . S
O107 C99 1.258 . S
O107 Zn101 2.035 . S
O108 Zn101 2.028 . S
O108 C111 1.247 . S
O109 Zn103 2.035 . S
O109 C111 1.258 . S
C110 O104 1.247 . S
C110 O105 1.258 . S
C111 O108 1.247 . S
C111 O109 1.258 . S
C112 O114 1.247 . S
C112 O116 1.258 . S
C113 O120 1.247 . S
C113 O121 1.258 . S
O114 C112 1.247 . S
O114 Zn115 2.028 . S
Zn115 O114 2.028 . S
Zn115 O119 2.035 . S
Zn115 O121 2.035 1_556 S
Zn115 O122 2.028 . S
O116 C112 1.258 . S
O116 Zn117 2.035 1_556 S
Zn117 O116 2.035 1_554 S
Zn117 O118 2.028 . S
Zn117 O120 2.028 . S
Zn117 O123 2.035 . S
O118 Zn117 2.028 . S
O118 C124 1.247 1_554 S
O119 Zn115 2.035 . S
O119 C124 1.258 . S
O120 C113 1.247 . S
O120 Zn117 2.028 . S
O121 C113 1.258 . S
O121 Zn115 2.035 1_554 S
O122 Zn115 2.028 . S
O122 C125 1.247 1_556 S
O123 Zn117 2.035 . S
O123 C125 1.258 . S
C124 O118 1.247 1_556 S
C124 O119 1.258 . S
C125 O122 1.247 1_554 S
C125 O123 1.258 . S
C126 O128 1.247 . S
C126 O130 1.258 . S
C127 O134 1.247 . S
C127 O135 1.258 . S
O128 C126 1.247 . S
O128 Zn129 2.028 . S
Zn129 O128 2.028 . S
Zn129 O133 2.035 . S
Zn129 O135 2.035 . S
Zn129 O136 2.028 . S
O130 C126 1.258 . S
O130 Zn131 2.035 . S
Zn131 O130 2.035 . S
Zn131 O132 2.028 . S
Zn131 O134 2.028 . S
Zn131 O137 2.035 . S
O132 Zn131 2.028 . S
O132 C138 1.247 . S
O133 Zn129 2.035 . S
O133 C138 1.258 . S
O134 C127 1.247 . S
O134 Zn131 2.028 . S
O135 C127 1.258 . S
O135 Zn129 2.035 . S
O136 Zn129 2.028 . S
O136 C139 1.247 . S
O137 Zn131 2.035 . S
O137 C139 1.258 . S
C138 O132 1.247 . S
C138 O133 1.258 . S
C139 O136 1.247 . S
C139 O137 1.258 . S
C140 O142 1.247 . S
C140 O144 1.258 . S
C141 O148 1.247 . S
C141 O149 1.258 . S
O142 C140 1.247 . S
O142 Zn143 2.028 . S
Zn143 O142 2.028 . S
Zn143 O147 2.035 . S
Zn143 O149 2.035 . S
Zn143 O150 2.028 . S
O144 C140 1.258 . S
O144 Zn145 2.035 . S
Zn145 O144 2.035 . S
Zn145 O146 2.028 . S
Zn145 O148 2.028 . S
Zn145 O151 2.035 . S
O146 Zn145 2.028 . S
O146 C152 1.247 . S
O147 Zn143 2.035 . S
O147 C152 1.258 . S
O148 C141 1.247 . S
O148 Zn145 2.028 . S
O149 C141 1.258 . S
O149 Zn143 2.035 . S
O150 Zn143 2.028 . S
O150 C153 1.247 . S
O151 Zn145 2.035 . S
O151 C153 1.258 . S
C152 O146 1.247 . S
C152 O147 1.258 . S
C153 O150 1.247 . S
C153 O151 1.258 . S
C154 O156 1.247 . S
C154 O158 1.258 . S
C155 O162 1.247 . S
C155 O163 1.258 . S
O156 C154 1.247 . S
O156 Zn157 2.028 . S
Zn157 O156 2.028 . S
Zn157 O161 2.035 . S
Zn157 O163 2.035 1_556 S
Zn157 O164 2.028 . S
O158 C154 1.258 . S
O158 Zn159 2.035 1_556 S
Zn159 O158 2.035 1_554 S
Zn159 O160 2.028 . S
Zn159 O162 2.028 . S
Zn159 O165 2.035 . S
O160 Zn159 2.028 . S
O160 C166 1.247 1_554 S
O161 Zn157 2.035 . S
O161 C166 1.258 . S
O162 C155 1.247 . S
O162 Zn159 2.028 . S
O163 C155 1.258 . S
O163 Zn157 2.035 1_554 S
O164 Zn157 2.028 . S
O164 C167 1.247 1_556 S
O165 Zn159 2.035 . S
O165 C167 1.258 . S
C166 O160 1.247 1_556 S
C166 O161 1.258 . S
C167 O164 1.247 1_554 S
C167 O165 1.258 . S
C168 C169 1.349 . S
C168 C170 1.327 . S
C168 H193 0.950 . S
C169 C168 1.349 . S
C169 C185 1.349 . S
C170 C168 1.327 . S
C170 C189 1.429 . S
C170 H194 0.950 . S
C171 C188 1.574 . S
C171 C190 1.368 . S
C171 H195 0.949 . S
H172 C176 0.949 . S
C173 C174 1.349 . S
C173 C175 1.327 . S
C173 H196 0.950 . S
C174 C173 1.349 . S
C174 C186 1.349 . S
C175 C173 1.327 . S
C175 C191 1.429 . S
C175 H197 0.950 . S
C176 H172 0.949 . S
C176 C184 1.574 . S
C176 C192 1.368 . S
H177 C185 0.950 . S
H178 C183 0.950 . S
H179 C184 0.949 . S
H180 C186 0.950 . S
H181 C187 0.950 . S
H182 C188 0.949 . S
C183 H178 0.950 . S
C183 C185 1.327 . S
C183 C189 1.429 . S
C184 C176 1.574 . S
C184 H179 0.949 . S
C184 C190 1.368 . S
C185 C169 1.349 . S
C185 H177 0.950 . S
C185 C183 1.327 . S
C186 C174 1.349 . S
C186 H180 0.950 . S
C186 C187 1.327 . S
C187 H181 0.950 . S
C187 C186 1.327 . S
C187 C191 1.429 . S
C188 C171 1.574 . S
C188 H182 0.949 . S
C188 C192 1.368 . S
C189 C170 1.429 . S
C189 C183 1.429 . S
C189 C190 1.523 . S
C190 C171 1.368 . S
C190 C184 1.368 . S
C190 C189 1.523 . S
C191 C175 1.429 . S
C191 C187 1.429 . S
C191 C192 1.523 . S
C192 C176 1.368 . S
C192 C188 1.368 . S
C192 C191 1.523 . S
H193 C168 0.950 . S
H194 C170 0.950 . S
H195 C171 0.949 . S
H196 C173 0.950 . S
H197 C175 0.950 . S
C198 C199 1.349 . S
C198 C200 1.327 . S
C198 H223 0.950 . S
C199 C198 1.349 . S
C199 C215 1.349 . S
C200 C198 1.327 . S
C200 C219 1.429 . S
C200 H224 0.950 . S
C201 C218 1.574 . S
C201 C220 1.368 . S
C201 H225 0.949 . S
H202 C206 0.949 . S
C203 C204 1.349 . S
C203 C205 1.327 . S
C203 H226 0.950 . S
C204 C203 1.349 . S
C204 C216 1.349 . S
C205 C203 1.327 . S
C205 C221 1.429 . S
C205 H227 0.950 . S
C206 H202 0.949 . S
C206 C214 1.574 . S
C206 C222 1.368 . S
H207 C215 0.950 . S
H208 C213 0.950 . S
H209 C214 0.949 . S
H210 C216 0.950 . S
H211 C217 0.950 . S
H212 C218 0.949 . S
C213 H208 0.950 . S
C213 C215 1.327 . S
C213 C219 1.429 . S
C214 C206 1.574 . S
C214 H209 0.949 . S
C214 C220 1.368 . S
C215 C199 1.349 . S
C215 H207 0.950 . S
C215 C213 1.327 . S
C216 C204 1.349 . S
C216 H210 0.950 . S
C216 C217 1.327 . S
C217 H211 0.950 . S
C217 C216 1.327 . S
C217 C221 1.429 . S
C218 C201 1.574 . S
C218 H212 0.949 . S
C218 C222 1.368 . S
C219 C200 1.429 . S
C219 C213 1.429 . S
C219 C220 1.523 . S
C220 C201 1.368 . S
C220 C214 1.368 . S
C220 C219 1.523 . S
C221 C205 1.429 . S
C221 C217 1.429 . S
C221 C222 1.523 . S
C222 C206 1.368 . S
C222 C218 1.368 . S
C222 C221 1.523 . S
H223 C198 0.950 . S
H224 C200 0.950 . S
H225 C201 0.949 . S
H226 C203 0.950 . S
H227 C205 0.950 . S
C228 C229 1.349 . S
C228 C230 1.327 . S
C228 H253 0.950 . S
C229 C228 1.349 . S
C229 C245 1.349 . S
C230 C228 1.327 . S
C230 C249 1.429 . S
C230 H254 0.950 . S
C231 C248 1.574 . S
C231 C250 1.368 . S
C231 H255 0.949 . S
H232 C236 0.949 . S
C233 C234 1.349 . S
C233 C235 1.327 . S
C233 H256 0.950 . S
C234 C233 1.349 . S
C234 C246 1.349 . S
C235 C233 1.327 . S
C235 C251 1.429 . S
C235 H257 0.950 . S
C236 H232 0.949 . S
C236 C244 1.574 . S
C236 C252 1.368 . S
H237 C245 0.950 . S
H238 C243 0.950 . S
H239 C244 0.949 . S
H240 C246 0.950 . S
H241 C247 0.950 . S
H242 C248 0.949 . S
C243 H238 0.950 . S
C243 C245 1.327 . S
C243 C249 1.429 . S
C244 C236 1.574 . S
C244 H239 0.949 . S
C244 C250 1.368 . S
C245 C229 1.349 . S
C245 H237 0.950 . S
C245 C243 1.327 . S
C246 C234 1.349 . S
C246 H240 0.950 . S
C246 C247 1.327 . S
C247 H241 0.950 . S
C247 C246 1.327 . S
C247 C251 1.429 . S
C248 C231 1.574 . S
C248 H242 0.949 . S
C248 C252 1.368 . S
C249 C230 1.429 . S
C249 C243 1.429 . S
C249 C250 1.523 . S
C250 C231 1.368 . S
C250 C244 1.368 . S
C250 C249 1.523 . S
C251 C235 1.429 . S
C251 C247 1.429 . S
C251 C252 1.523 . S
C252 C236 1.368 . S
C252 C248 1.368 . S
C252 C251 1.523 . S
H253 C228 0.950 . S
H254 C230 0.950 . S
H255 C231 0.949 . S
H256 C233 0.950 . S
H257 C235 0.950 . S
C258 C259 1.349 . S
C258 C260 1.327 . S
C258 H283 0.950 . S
C259 C258 1.349 . S
C259 C275 1.349 . S
C260 C258 1.327 . S
C260 C279 1.429 . S
C260 H284 0.950 . S
C261 C278 1.574 . S
C261 C280 1.368 . S
C261 H285 0.949 . S
H262 C266 0.949 . S
C263 C264 1.349 . S
C263 C265 1.327 . S
C263 H286 0.950 . S
C264 C263 1.349 . S
C264 C276 1.349 . S
C265 C263 1.327 . S
C265 C281 1.429 . S
C265 H287 0.950 . S
C266 H262 0.949 . S
C266 C274 1.574 . S
C266 C282 1.368 . S
H267 C275 0.950 . S
H268 C273 0.950 . S
H269 C274 0.949 . S
H270 C276 0.950 . S
H271 C277 0.950 . S
H272 C278 0.949 . S
C273 H268 0.950 . S
C273 C275 1.327 . S
C273 C279 1.429 . S
C274 C266 1.574 . S
C274 H269 0.949 . S
C274 C280 1.368 . S
C275 C259 1.349 . S
C275 H267 0.950 . S
C275 C273 1.327 . S
C276 C264 1.349 . S
C276 H270 0.950 . S
C276 C277 1.327 . S
C277 H271 0.950 . S
C277 C276 1.327 . S
C277 C281 1.429 . S
C278 C261 1.574 . S
C278 H272 0.949 . S
C278 C282 1.368 . S
C279 C260 1.429 . S
C279 C273 1.429 . S
C279 C280 1.523 . S
C280 C261 1.368 . S
C280 C274 1.368 . S
C280 C279 1.523 . S
C281 C265 1.429 . S
C281 C277 1.429 . S
C281 C282 1.523 . S
C282 C266 1.368 . S
C282 C278 1.368 . S
C282 C281 1.523 . S
H283 C258 0.950 . S
H284 C260 0.950 . S
H285 C261 0.949 . S
H286 C263 0.950 . S
H287 C265 0.950 . S
C288 C289 1.349 . S
C288 C290 1.327 . S
C288 H313 0.950 . S
C289 C288 1.349 . S
C289 C305 1.349 . S
C290 C288 1.327 . S
C290 C309 1.429 . S
C290 H314 0.950 . S
C291 C308 1.574 . S
C291 C310 1.368 . S
C291 H315 0.949 . S
H292 C296 0.949 . S
C293 C294 1.349 . S
C293 C295 1.327 . S
C293 H316 0.950 . S
C294 C293 1.349 . S
C294 C306 1.349 . S
C295 C293 1.327 . S
C295 C311 1.429 . S
C295 H317 0.950 . S
C296 H292 0.949 . S
C296 C304 1.574 . S
C296 C312 1.368 . S
H297 C305 0.950 . S
H298 C303 0.950 . S
H299 C304 0.949 . S
H300 C306 0.950 . S
H301 C307 0.950 . S
H302 C308 0.949 . S
C303 H298 0.950 . S
C303 C305 1.327 . S
C303 C309 1.429 . S
C304 C296 1.574 . S
C304 H299 0.949 . S
C304 C310 1.368 . S
C305 C289 1.349 . S
C305 H297 0.950 . S
C305 C303 1.327 . S
C306 C294 1.349 . S
C306 H300 0.950 . S
C306 C307 1.327 . S
C307 H301 0.950 . S
C307 C306 1.327 . S
C307 C311 1.429 . S
C308 C291 1.574 . S
C308 H302 0.949 . S
C308 C312 1.368 . S
C309 C290 1.429 . S
C309 C303 1.429 . S
C309 C310 1.523 . S
C310 C291 1.368 . S
C310 C304 1.368 . S
C310 C309 1.523 . S
C311 C295 1.429 . S
C311 C307 1.429 . S
C311 C312 1.523 . S
C312 C296 1.368 . S
C312 C308 1.368 . S
C312 C311 1.523 . S
H313 C288 0.950 . S
H314 C290 0.950 . S
H315 C291 0.949 . S
H316 C293 0.950 . S
H317 C295 0.950 . S
C318 C319 1.349 . S
C318 C320 1.327 . S
C318 H343 0.950 . S
C319 C318 1.349 . S
C319 C335 1.349 . S
C320 C318 1.327 . S
C320 C339 1.429 . S
C320 H344 0.950 . S
C321 C338 1.574 . S
C321 C340 1.368 . S
C321 H345 0.949 . S
H322 C326 0.949 . S
C323 C324 1.349 . S
C323 C325 1.327 . S
C323 H346 0.950 . S
C324 C323 1.349 . S
C324 C336 1.349 . S
C325 C323 1.327 . S
C325 C341 1.429 . S
C325 H347 0.950 . S
C326 H322 0.949 . S
C326 C334 1.574 . S
C326 C342 1.368 . S
H327 C335 0.950 . S
H328 C333 0.950 . S
H329 C334 0.949 . S
H330 C336 0.950 . S
H331 C337 0.950 . S
H332 C338 0.949 . S
C333 H328 0.950 . S
C333 C335 1.327 . S
C333 C339 1.429 . S
C334 C326 1.574 . S
C334 H329 0.949 . S
C334 C340 1.368 . S
C335 C319 1.349 . S
C335 H327 0.950 . S
C335 C333 1.327 . S
C336 C324 1.349 . S
C336 H330 0.950 . S
C336 C337 1.327 . S
C337 H331 0.950 . S
C337 C336 1.327 . S
C337 C341 1.429 . S
C338 C321 1.574 . S
C338 H332 0.949 . S
C338 C342 1.368 . S
C339 C320 1.429 . S
C339 C333 1.429 . S
C339 C340 1.523 . S
C340 C321 1.368 . S
C340 C334 1.368 . S
C340 C339 1.523 . S
C341 C325 1.429 . S
C341 C337 1.429 . S
C341 C342 1.523 . S
C342 C326 1.368 . S
C342 C338 1.368 . S
C342 C341 1.523 . S
H343 C318 0.950 . S
H344 C320 0.950 . S
H345 C321 0.949 . S
H346 C323 0.950 . S
H347 C325 0.950 . S
C348 C349 1.349 . S
C348 C350 1.327 . S
C348 H373 0.950 . S
C349 C348 1.349 . S
C349 C365 1.349 . S
C350 C348 1.327 . S
C350 C369 1.429 . S
C350 H374 0.950 . S
C351 C368 1.574 . S
C351 C370 1.368 . S
C351 H375 0.949 . S
H352 C356 0.949 . S
C353 C354 1.349 . S
C353 C355 1.327 . S
C353 H376 0.950 . S
C354 C353 1.349 . S
C354 C366 1.349 . S
C355 C353 1.327 . S
C355 C371 1.429 . S
C355 H377 0.950 . S
C356 H352 0.949 . S
C356 C364 1.574 . S
C356 C372 1.368 . S
H357 C365 0.950 . S
H358 C363 0.950 . S
H359 C364 0.949 . S
H360 C366 0.950 . S
H361 C367 0.950 . S
H362 C368 0.949 . S
C363 H358 0.950 . S
C363 C365 1.327 . S
C363 C369 1.429 . S
C364 C356 1.574 . S
C364 H359 0.949 . S
C364 C370 1.368 . S
C365 C349 1.349 . S
C365 H357 0.950 . S
C365 C363 1.327 . S
C366 C354 1.349 . S
C366 H360 0.950 . S
C366 C367 1.327 . S
C367 H361 0.950 . S
C367 C366 1.327 . S
C367 C371 1.429 . S
C368 C351 1.574 . S
C368 H362 0.949 . S
C368 C372 1.368 . S
C369 C350 1.429 . S
C369 C363 1.429 . S
C369 C370 1.523 . S
C370 C351 1.368 . S
C370 C364 1.368 . S
C370 C369 1.523 . S
C371 C355 1.429 . S
C371 C367 1.429 . S
C371 C372 1.523 . S
C372 C356 1.368 . S
C372 C368 1.368 . S
C372 C371 1.523 . S
H373 C348 0.950 . S
H374 C350 0.950 . S
H375 C351 0.949 . S
H376 C353 0.950 . S
H377 C355 0.950 . S
C378 C379 1.349 . S
C378 C380 1.327 . S
C378 H403 0.950 . S
C379 C378 1.349 . S
C379 C395 1.349 . S
C380 C378 1.327 . S
C380 C399 1.429 . S
C380 H404 0.950 . S
C381 C398 1.574 . S
C381 C400 1.368 . S
C381 H405 0.949 . S
H382 C386 0.949 . S
C383 C384 1.349 . S
C383 C385 1.327 . S
C383 H406 0.950 . S
C384 C383 1.349 . S
C384 C396 1.349 . S
C385 C383 1.327 . S
C385 C401 1.429 . S
C385 H407 0.950 . S
C386 H382 0.949 . S
C386 C394 1.574 . S
C386 C402 1.368 . S
H387 C395 0.950 . S
H388 C393 0.950 . S
H389 C394 0.949 . S
H390 C396 0.950 . S
H391 C397 0.950 . S
H392 C398 0.949 . S
C393 H388 0.950 . S
C393 C395 1.327 . S
C393 C399 1.429 . S
C394 C386 1.574 . S
C394 H389 0.949 . S
C394 C400 1.368 . S
C395 C379 1.349 . S
C395 H387 0.950 . S
C395 C393 1.327 . S
C396 C384 1.349 . S
C396 H390 0.950 . S
C396 C397 1.327 . S
C397 H391 0.950 . S
C397 C396 1.327 . S
C397 C401 1.429 . S
C398 C381 1.574 . S
C398 H392 0.949 . S
C398 C402 1.368 . S
C399 C380 1.429 . S
C399 C393 1.429 . S
C399 C400 1.523 . S
C400 C381 1.368 . S
C400 C394 1.368 . S
C400 C399 1.523 . S
C401 C385 1.429 . S
C401 C397 1.429 . S
C401 C402 1.523 . S
C402 C386 1.368 . S
C402 C398 1.368 . S
C402 C401 1.523 . S
H403 C378 0.950 . S
H404 C380 0.950 . S
H405 C381 0.949 . S
H406 C383 0.950 . S
H407 C385 0.950 . S
C408 C409 1.349 . S
C408 C410 1.327 . S
C408 H433 0.950 . S
C409 C408 1.349 . S
C409 C425 1.349 1_556 S
C410 C408 1.327 . S
C410 C429 1.443 . S
C410 H434 0.950 . S
C411 C428 1.574 . S
C411 C430 1.364 1_554 S
C411 H435 0.949 . S
H412 C416 0.949 . S
C413 C414 1.349 . S
C413 C415 1.327 . S
C413 H436 0.950 . S
C414 C413 1.349 . S
C414 C426 1.349 1_554 S
C415 C413 1.327 . S
C415 C431 1.449 . S
C415 H437 0.950 . S
C416 H412 0.949 . S
C416 C424 1.574 . S
C416 C432 1.358 1_556 S
H417 C425 0.950 . S
H418 C423 0.950 . S
H419 C424 0.949 . S
H420 C426 0.950 . S
H421 C427 0.950 . S
H422 C428 0.949 . S
C423 H418 0.950 . S
C423 C425 1.327 . S
C423 C429 1.415 1_554 S
C424 C416 1.574 . S
C424 H419 0.949 . S
C424 C430 1.373 . S
C425 C409 1.349 1_554 S
C425 H417 0.950 . S
C425 C423 1.327 . S
C426 C414 1.349 1_556 S
C426 H420 0.950 . S
C426 C427 1.327 . S
C427 H421 0.950 . S
C427 C426 1.327 . S
C427 C431 1.410 1_556 S
C428 C411 1.574 . S
C428 H422 0.949 . S
C428 C432 1.378 . S
C429 C410 1.443 . S
C429 C423 1.415 1_556 S
C429 C430 1.523 . S
C430 C411 1.364 1_556 S
C430 C424 1.373 . S
C430 C429 1.523 . S
C431 C415 1.449 . S
C431 C427 1.410 1_554 S
C431 C432 1.523 . S
C432 C416 1.358 1_554 S
C432 C428 1.378 . S
C432 C431 1.523 . S
H433 C408 0.950 . S
H434 C410 0.950 . S
H435 C411 0.949 . S
H436 C413 0.950 . S
H437 C415 0.950 . S
C438 C439 1.349 . S
C438 C440 1.327 . S
C438 H463 0.950 . S
C439 C438 1.349 . S
C439 C455 1.349 . S
C440 C438 1.327 . S
C440 C459 1.429 . S
C440 H464 0.950 . S
C441 C458 1.574 . S
C441 C460 1.368 . S
C441 H465 0.949 . S
H442 C446 0.949 . S
C443 C444 1.349 . S
C443 C445 1.327 . S
C443 H466 0.950 . S
C444 C443 1.349 . S
C444 C456 1.349 . S
C445 C443 1.327 . S
C445 C461 1.429 . S
C445 H467 0.950 . S
C446 H442 0.949 . S
C446 C454 1.574 . S
C446 C462 1.368 . S
H447 C455 0.950 . S
H448 C453 0.950 . S
H449 C454 0.949 . S
H450 C456 0.950 . S
H451 C457 0.950 . S
H452 C458 0.949 . S
C453 H448 0.950 . S
C453 C455 1.327 . S
C453 C459 1.429 . S
C454 C446 1.574 . S
C454 H449 0.949 . S
C454 C460 1.368 . S
C455 C439 1.349 . S
C455 H447 0.950 . S
C455 C453 1.327 . S
C456 C444 1.349 . S
C456 H450 0.950 . S
C456 C457 1.327 . S
C457 H451 0.950 . S
C457 C456 1.327 . S
C457 C461 1.429 . S
C458 C441 1.574 . S
C458 H452 0.949 . S
C458 C462 1.368 . S
C459 C440 1.429 . S
C459 C453 1.429 . S
C459 C460 1.523 . S
C460 C441 1.368 . S
C460 C454 1.368 . S
C460 C459 1.523 . S
C461 C445 1.429 . S
C461 C457 1.429 . S
C461 C462 1.523 . S
C462 C446 1.368 . S
C462 C458 1.368 . S
C462 C461 1.523 . S
H463 C438 0.950 . S
H464 C440 0.950 . S
H465 C441 0.949 . S
H466 C443 0.950 . S
H467 C445 0.950 . S
C468 C469 1.349 . S
C468 C470 1.327 . S
C468 H493 0.950 . S
C469 C468 1.349 . S
C469 C485 1.349 . S
C470 C468 1.327 . S
C470 C489 1.429 . S
C470 H494 0.950 . S
C471 C488 1.574 . S
C471 C490 1.368 . S
C471 H495 0.949 . S
H472 C476 0.949 . S
C473 C474 1.349 . S
C473 C475 1.327 . S
C473 H496 0.950 . S
C474 C473 1.349 . S
C474 C486 1.349 . S
C475 C473 1.327 . S
C475 C491 1.429 . S
C475 H497 0.950 . S
C476 H472 0.949 . S
C476 C484 1.574 . S
C476 C492 1.368 . S
H477 C485 0.950 . S
H478 C483 0.950 . S
H479 C484 0.949 . S
H480 C486 0.950 . S
H481 C487 0.950 . S
H482 C488 0.949 . S
C483 H478 0.950 . S
C483 C485 1.327 . S
C483 C489 1.429 . S
C484 C476 1.574 . S
C484 H479 0.949 . S
C484 C490 1.368 . S
C485 C469 1.349 . S
C485 H477 0.950 . S
C485 C483 1.327 . S
C486 C474 1.349 . S
C486 H480 0.950 . S
C486 C487 1.327 . S
C487 H481 0.950 . S
C487 C486 1.327 . S
C487 C491 1.429 . S
C488 C471 1.574 . S
C488 H482 0.949 . S
C488 C492 1.368 . S
C489 C470 1.429 . S
C489 C483 1.429 . S
C489 C490 1.523 . S
C490 C471 1.368 . S
C490 C484 1.368 . S
C490 C489 1.523 . S
C491 C475 1.429 . S
C491 C487 1.429 . S
C491 C492 1.523 . S
C492 C476 1.368 . S
C492 C488 1.368 . S
C492 C491 1.523 . S
H493 C468 0.950 . S
H494 C470 0.950 . S
H495 C471 0.949 . S
H496 C473 0.950 . S
H497 C475 0.950 . S
C498 C499 1.349 . S
C498 C500 1.327 . S
C498 H523 0.950 . S
C499 C498 1.349 . S
C499 C515 1.349 1_554 S
C500 C498 1.327 . S
C500 C519 1.446 . S
C500 H524 0.950 . S
C501 C518 1.574 . S
C501 C520 1.363 1_556 S
C501 H525 0.949 . S
H502 C506 0.949 . S
C503 C504 1.349 . S
C503 C505 1.327 . S
C503 H526 0.950 . S
C504 C503 1.349 . S
C504 C516 1.349 1_556 S
C505 C503 1.327 . S
C505 C521 1.452 . S
C505 H527 0.950 . S
C506 H502 0.949 . S
C506 C514 1.574 . S
C506 C522 1.357 1_554 S
H507 C515 0.950 . S
H508 C513 0.950 . S
H509 C514 0.949 . S
H510 C516 0.950 . S
H511 C517 0.950 . S
H512 C518 0.949 . S
C513 H508 0.950 . S
C513 C515 1.327 . S
C513 C519 1.412 1_556 S
C514 C506 1.574 . S
C514 H509 0.949 . S
C514 C520 1.373 . S
C515 C499 1.349 1_556 S
C515 H507 0.950 . S
C515 C513 1.327 . S
C516 C504 1.349 1_554 S
C516 H510 0.950 . S
C516 C517 1.327 . S
C517 H511 0.950 . S
C517 C516 1.327 . S
C517 C521 1.406 1_554 S
C518 C501 1.574 . S
C518 H512 0.949 . S
C518 C522 1.380 . S
C519 C500 1.446 . S
C519 C513 1.412 1_554 S
C519 C520 1.523 . S
C520 C501 1.363 1_554 S
C520 C514 1.373 . S
C520 C519 1.523 . S
C521 C505 1.452 . S
C521 C517 1.406 1_556 S
C521 C522 1.523 . S
C522 C506 1.357 1_556 S
C522 C518 1.380 . S
C522 C521 1.523 . S
H523 C498 0.950 . S
H524 C500 0.950 . S
H525 C501 0.949 . S
H526 C503 0.950 . S
H527 C505 0.950 . S
C528 C529 1.349 . S
C528 C530 1.327 . S
C528 H553 0.950 . S
C529 C528 1.349 . S
C529 C545 1.349 . S
C530 C528 1.327 . S
C530 C549 1.429 . S
C530 H554 0.950 . S
C531 C548 1.574 1_545 S
C531 C550 1.368 . S
C531 H555 0.949 . S
H532 C536 0.949 . S
C533 C534 1.349 . S
C533 C535 1.327 . S
C533 H556 0.950 . S
C534 C533 1.349 . S
C534 C546 1.349 . S
C535 C533 1.327 . S
C535 C551 1.429 . S
C535 H557 0.950 . S
C536 H532 0.949 . S
C536 C544 1.574 1_565 S
C536 C552 1.368 . S
H537 C545 0.950 . S
H538 C543 0.950 . S
H539 C544 0.949 . S
H540 C546 0.950 . S
H541 C547 0.950 . S
H542 C548 0.949 . S
C543 H538 0.950 . S
C543 C545 1.327 . S
C543 C549 1.429 . S
C544 C536 1.574 1_545 S
C544 H539 0.949 . S
C544 C550 1.368 . S
C545 C529 1.349 . S
C545 H537 0.950 . S
C545 C543 1.327 . S
C546 C534 1.349 . S
C546 H540 0.950 . S
C546 C547 1.327 . S
C547 H541 0.950 . S
C547 C546 1.327 . S
C547 C551 1.429 . S
C548 C531 1.574 1_565 S
C548 H542 0.949 . S
C548 C552 1.368 . S
C549 C530 1.429 . S
C549 C543 1.429 . S
C549 C550 1.523 . S
C550 C531 1.368 . S
C550 C544 1.368 . S
C550 C549 1.523 . S
C551 C535 1.429 . S
C551 C547 1.429 . S
C551 C552 1.523 . S
C552 C536 1.368 . S
C552 C548 1.368 . S
C552 C551 1.523 . S
H553 C528 0.950 . S
H554 C530 0.950 . S
H555 C531 0.949 . S
H556 C533 0.950 . S
H557 C535 0.950 . S
C558 C559 1.349 . S
C558 C560 1.327 . S
C558 H583 0.950 . S
C559 C558 1.349 . S
C559 C575 1.349 . S
C560 C558 1.327 . S
C560 C579 1.429 . S
C560 H584 0.950 . S
C561 C578 1.574 . S
C561 C580 1.368 . S
C561 H585 0.949 . S
H562 C566 0.949 . S
C563 C564 1.349 . S
C563 C565 1.327 . S
C563 H586 0.950 . S
C564 C563 1.349 . S
C564 C576 1.349 . S
C565 C563 1.327 . S
C565 C581 1.429 . S
C565 H587 0.950 . S
C566 H562 0.949 . S
C566 C574 1.574 . S
C566 C582 1.368 . S
H567 C575 0.950 . S
H568 C573 0.950 . S
H569 C574 0.949 . S
H570 C576 0.950 . S
H571 C577 0.950 . S
H572 C578 0.949 . S
C573 H568 0.950 . S
C573 C575 1.327 . S
C573 C579 1.429 . S
C574 C566 1.574 . S
C574 H569 0.949 . S
C574 C580 1.368 . S
C575 C559 1.349 . S
C575 H567 0.950 . S
C575 C573 1.327 . S
C576 C564 1.349 . S
C576 H570 0.950 . S
C576 C577 1.327 . S
C577 H571 0.950 . S
C577 C576 1.327 . S
C577 C581 1.429 . S
C578 C561 1.574 . S
C578 H572 0.949 . S
C578 C582 1.368 . S
C579 C560 1.429 . S
C579 C573 1.429 . S
C579 C580 1.523 . S
C580 C561 1.368 . S
C580 C574 1.368 . S
C580 C579 1.523 . S
C581 C565 1.429 . S
C581 C577 1.429 . S
C581 C582 1.523 . S
C582 C566 1.368 . S
C582 C578 1.368 . S
C582 C581 1.523 . S
H583 C558 0.950 . S
H584 C560 0.950 . S
H585 C561 0.949 . S
H586 C563 0.950 . S
H587 C565 0.950 . S
C588 C589 1.349 1_554 S
C588 C590 1.327 . S
C588 H613 0.950 . S
C589 C588 1.349 1_556 S
C589 C605 1.349 . S
C590 C588 1.327 . S
C590 C609 1.429 1_554 S
C590 H614 0.950 . S
C591 C608 1.574 1_655 S
C591 C610 1.368 . S
C591 H615 0.949 . S
H592 C596 0.949 . S
C593 C594 1.349 . S
C593 C595 1.327 . S
C593 H616 0.950 . S
C594 C593 1.349 . S
C594 C606 1.349 1_556 S
C595 C593 1.327 . S
C595 C611 1.429 . S
C595 H617 0.950 . S
C596 H592 0.949 . S
C596 C604 1.574 1_455 S
C596 C612 1.368 1_554 S
H597 C605 0.950 . S
H598 C603 0.950 . S
H599 C604 0.949 . S
H600 C606 0.950 . S
H601 C607 0.950 . S
H602 C608 0.949 . S
C603 H598 0.950 . S
C603 C605 1.327 . S
C603 C609 1.429 . S
C604 C596 1.574 1_655 S
C604 H599 0.949 . S
C604 C610 1.368 1_554 S
C605 C589 1.349 . S
C605 H597 0.950 . S
C605 C603 1.327 . S
C606 C594 1.349 1_554 S
C606 H600 0.950 . S
C606 C607 1.327 . S
C607 H601 0.950 . S
C607 C606 1.327 . S
C607 C611 1.429 1_554 S
C608 C591 1.574 1_455 S
C608 H602 0.949 . S
C608 C612 1.368 . S
C609 C590 1.429 1_556 S
C609 C603 1.429 . S
C609 C610 1.523 . S
C610 C591 1.368 . S
C610 C604 1.368 1_556 S
C610 C609 1.523 . S
C611 C595 1.429 . S
C611 C607 1.429 1_556 S
C611 C612 1.523 . S
C612 C596 1.368 1_556 S
C612 C608 1.368 . S
C612 C611 1.523 . S
H613 C588 0.950 . S
H614 C590 0.950 . S
H615 C591 0.949 . S
H616 C593 0.950 . S
H617 C595 0.950 . S
C618 C619 1.349 . S
C618 C620 1.327 . S
C618 H643 0.950 . S
C619 C618 1.349 . S
C619 C635 1.349 . S
C620 C618 1.327 . S
C620 C639 1.429 . S
C620 H644 0.950 . S
C621 C638 1.574 1_455 S
C621 C640 1.368 . S
C621 H645 0.949 . S
H622 C626 0.949 . S
C623 C624 1.349 . S
C623 C625 1.327 . S
C623 H646 0.950 . S
C624 C623 1.349 . S
C624 C636 1.349 . S
C625 C623 1.327 . S
C625 C641 1.429 . S
C625 H647 0.950 . S
C626 H622 0.949 . S
C626 C634 1.574 1_655 S
C626 C642 1.368 . S
H627 C635 0.950 . S
H628 C633 0.950 . S
H629 C634 0.949 . S
H630 C636 0.950 . S
H631 C637 0.950 . S
H632 C638 0.949 . S
C633 H628 0.950 . S
C633 C635 1.327 . S
C633 C639 1.429 . S
C634 C626 1.574 1_455 S
C634 H629 0.949 . S
C634 C640 1.368 . S
C635 C619 1.349 . S
C635 H627 0.950 . S
C635 C633 1.327 . S
C636 C624 1.349 . S
C636 H630 0.950 . S
C636 C637 1.327 . S
C637 H631 0.950 . S
C637 C636 1.327 . S
C637 C641 1.429 . S
C638 C621 1.574 1_655 S
C638 H632 0.949 . S
C638 C642 1.368 . S
C639 C620 1.429 . S
C639 C633 1.429 . S
C639 C640 1.523 . S
C640 C621 1.368 . S
C640 C634 1.368 . S
C640 C639 1.523 . S
C641 C625 1.429 . S
C641 C637 1.429 . S
C641 C642 1.523 . S
C642 C626 1.368 . S
C642 C638 1.368 . S
C642 C641 1.523 . S
H643 C618 0.950 . S
H644 C620 0.950 . S
H645 C621 0.949 . S
H646 C623 0.950 . S
H647 C625 0.950 . S
C648 C649 1.349 . S
C648 C650 1.327 . S
C648 H673 0.950 . S
C649 C648 1.349 . S
C649 C665 1.349 . S
C650 C648 1.327 . S
C650 C669 1.429 . S
C650 H674 0.950 . S
C651 C668 1.574 1_545 S
C651 C670 1.368 . S
C651 H675 0.949 . S
H652 C656 0.949 . S
C653 C654 1.349 . S
C653 C655 1.327 . S
C653 H676 0.950 . S
C654 C653 1.349 . S
C654 C666 1.349 . S
C655 C653 1.327 . S
C655 C671 1.429 . S
C655 H677 0.950 . S
C656 H652 0.949 . S
C656 C664 1.574 1_565 S
C656 C672 1.368 . S
H657 C665 0.950 . S
H658 C663 0.950 . S
H659 C664 0.949 . S
H660 C666 0.950 . S
H661 C667 0.950 . S
H662 C668 0.949 . S
C663 H658 0.950 . S
C663 C665 1.327 . S
C663 C669 1.429 . S
C664 C656 1.574 1_545 S
C664 H659 0.949 . S
C664 C670 1.368 . S
C665 C649 1.349 . S
C665 H657 0.950 . S
C665 C663 1.327 . S
C666 C654 1.349 . S
C666 H660 0.950 . S
C666 C667 1.327 . S
C667 H661 0.950 . S
C667 C666 1.327 . S
C667 C671 1.429 . S
C668 C651 1.574 1_565 S
C668 H662 0.949 . S
C668 C672 1.368 . S
C669 C650 1.429 . S
C669 C663 1.429 . S
C669 C670 1.523 . S
C670 C651 1.368 . S
C670 C664 1.368 . S
C670 C669 1.523 . S
C671 C655 1.429 . S
C671 C667 1.429 . S
C671 C672 1.523 . S
C672 C656 1.368 . S
C672 C668 1.368 . S
C672 C671 1.523 . S
H673 C648 0.950 . S
H674 C650 0.950 . S
H675 C651 0.949 . S
H676 C653 0.950 . S
H677 C655 0.950 . S
C678 C679 1.349 . S
C678 C680 1.327 . S
C678 H703 0.950 . S
C679 C678 1.349 . S
C679 C695 1.349 1_554 S
C680 C678 1.327 . S
C680 C699 1.429 . S
C680 H704 0.950 . S
C681 C698 1.574 . S
C681 C700 1.368 1_556 S
C681 H705 0.949 . S
H682 C686 0.949 . S
C683 C684 1.349 1_556 S
C683 C685 1.327 . S
C683 H706 0.950 . S
C684 C683 1.349 1_554 S
C684 C696 1.349 . S
C685 C683 1.327 . S
C685 C701 1.429 1_556 S
C685 H707 0.950 . S
C686 H682 0.949 . S
C686 C694 1.574 . S
C686 C702 1.368 . S
H687 C695 0.950 . S
H688 C693 0.950 . S
H689 C694 0.949 . S
H690 C696 0.950 . S
H691 C697 0.950 . S
H692 C698 0.949 . S
C693 H688 0.950 . S
C693 C695 1.327 . S
C693 C699 1.429 1_556 S
C694 C686 1.574 . S
C694 H689 0.949 . S
C694 C700 1.368 . S
C695 C679 1.349 1_556 S
C695 H687 0.950 . S
C695 C693 1.327 . S
C696 C684 1.349 . S
C696 H690 0.950 . S
C696 C697 1.327 . S
C697 H691 0.950 . S
C697 C696 1.327 . S
C697 C701 1.429 . S
C698 C681 1.574 . S
C698 H692 0.949 . S
C698 C702 1.368 1_556 S
C699 C680 1.429 . S
C699 C693 1.429 1_554 S
C699 C700 1.523 . S
C700 C681 1.368 1_554 S
C700 C694 1.368 . S
C700 C699 1.523 . S
C701 C685 1.429 1_554 S
C701 C697 1.429 . S
C701 C702 1.523 . S
C702 C686 1.368 . S
C702 C698 1.368 1_554 S
C702 C701 1.523 . S
H703 C678 0.950 . S
H704 C680 0.950 . S
H705 C681 0.949 . S
H706 C683 0.950 . S
H707 C685 0.950 . S
C708 C709 1.349 . S
C708 C710 1.327 . S
C708 H733 0.950 . S
C709 C708 1.349 . S
C709 C725 1.349 . S
C710 C708 1.327 . S
C710 C729 1.429 . S
C710 H734 0.950 . S
C711 C728 1.574 . S
C711 C730 1.368 . S
C711 H735 0.949 . S
H712 C716 0.949 . S
C713 C714 1.349 . S
C713 C715 1.327 . S
C713 H736 0.950 . S
C714 C713 1.349 . S
C714 C726 1.349 . S
C715 C713 1.327 . S
C715 C731 1.429 . S
C715 H737 0.950 . S
C716 H712 0.949 . S
C716 C724 1.574 . S
C716 C732 1.368 . S
H717 C725 0.950 . S
H718 C723 0.950 . S
H719 C724 0.949 . S
H720 C726 0.950 . S
H721 C727 0.950 . S
H722 C728 0.949 . S
C723 H718 0.950 . S
C723 C725 1.327 . S
C723 C729 1.429 . S
C724 C716 1.574 . S
C724 H719 0.949 . S
C724 C730 1.368 . S
C725 C709 1.349 . S
C725 H717 0.950 . S
C725 C723 1.327 . S
C726 C714 1.349 . S
C726 H720 0.950 . S
C726 C727 1.327 . S
C727 H721 0.950 . S
C727 C726 1.327 . S
C727 C731 1.429 . S
C728 C711 1.574 . S
C728 H722 0.949 . S
C728 C732 1.368 . S
C729 C710 1.429 . S
C729 C723 1.429 . S
C729 C730 1.523 . S
C730 C711 1.368 . S
C730 C724 1.368 . S
C730 C729 1.523 . S
C731 C715 1.429 . S
C731 C727 1.429 . S
C731 C732 1.523 . S
C732 C716 1.368 . S
C732 C728 1.368 . S
C732 C731 1.523 . S
H733 C708 0.950 . S
H734 C710 0.950 . S
H735 C711 0.949 . S
H736 C713 0.950 . S
H737 C715 0.950 . S
C738 C739 1.349 . S
C738 C740 1.327 . S
C738 H763 0.950 . S
C739 C738 1.349 . S
C739 C755 1.349 . S
C740 C738 1.327 . S
C740 C759 1.429 . S
C740 H764 0.950 . S
C741 C758 1.574 . S
C741 C760 1.368 . S
C741 H765 0.949 . S
H742 C746 0.949 . S
C743 C744 1.349 . S
C743 C745 1.327 . S
C743 H766 0.950 . S
C744 C743 1.349 . S
C744 C756 1.349 . S
C745 C743 1.327 . S
C745 C761 1.429 . S
C745 H767 0.950 . S
C746 H742 0.949 . S
C746 C754 1.574 . S
C746 C762 1.368 . S
H747 C755 0.950 . S
H748 C753 0.950 . S
H749 C754 0.949 . S
H750 C756 0.950 . S
H751 C757 0.950 . S
H752 C758 0.949 . S
C753 H748 0.950 . S
C753 C755 1.327 . S
C753 C759 1.429 . S
C754 C746 1.574 . S
C754 H749 0.949 . S
C754 C760 1.368 . S
C755 C739 1.349 . S
C755 H747 0.950 . S
C755 C753 1.327 . S
C756 C744 1.349 . S
C756 H750 0.950 . S
C756 C757 1.327 . S
C757 H751 0.950 . S
C757 C756 1.327 . S
C757 C761 1.429 . S
C758 C741 1.574 . S
C758 H752 0.949 . S
C758 C762 1.368 . S
C759 C740 1.429 . S
C759 C753 1.429 . S
C759 C760 1.523 . S
C760 C741 1.368 . S
C760 C754 1.368 . S
C760 C759 1.523 . S
C761 C745 1.429 . S
C761 C757 1.429 . S
C761 C762 1.523 . S
C762 C746 1.368 . S
C762 C758 1.368 . S
C762 C761 1.523 . S
H763 C738 0.950 . S
H764 C740 0.950 . S
H765 C741 0.949 . S
H766 C743 0.950 . S
H767 C745 0.950 . S
C768 C769 1.349 . S
C768 C770 1.327 . S
C768 H793 0.950 . S
C769 C768 1.349 . S
C769 C785 1.349 . S
C770 C768 1.327 . S
C770 C789 1.429 . S
C770 H794 0.950 . S
C771 C788 1.574 . S
C771 C790 1.368 . S
C771 H795 0.949 . S
H772 C776 0.949 . S
C773 C774 1.349 . S
C773 C775 1.327 . S
C773 H796 0.950 . S
C774 C773 1.349 . S
C774 C786 1.349 . S
C775 C773 1.327 . S
C775 C791 1.429 . S
C775 H797 0.950 . S
C776 H772 0.949 . S
C776 C784 1.574 . S
C776 C792 1.368 . S
H777 C785 0.950 . S
H778 C783 0.950 . S
H779 C784 0.949 . S
H780 C786 0.950 . S
H781 C787 0.950 . S
H782 C788 0.949 . S
C783 H778 0.950 . S
C783 C785 1.327 . S
C783 C789 1.429 . S
C784 C776 1.574 . S
C784 H779 0.949 . S
C784 C790 1.368 . S
C785 C769 1.349 . S
C785 H777 0.950 . S
C785 C783 1.327 . S
C786 C774 1.349 . S
C786 H780 0.950 . S
C786 C787 1.327 . S
C787 H781 0.950 . S
C787 C786 1.327 . S
C787 C791 1.429 . S
C788 C771 1.574 . S
C788 H782 0.949 . S
C788 C792 1.368 . S
C789 C770 1.429 . S
C789 C783 1.429 . S
C789 C790 1.523 . S
C790 C771 1.368 . S
C790 C784 1.368 . S
C790 C789 1.523 . S
C791 C775 1.429 . S
C791 C787 1.429 . S
C791 C792 1.523 . S
C792 C776 1.368 . S
C792 C788 1.368 . S
C792 C791 1.523 . S
H793 C768 0.950 . S
H794 C770 0.950 . S
H795 C771 0.949 . S
H796 C773 0.950 . S
H797 C775 0.950 . S
C798 C799 1.349 . S
C798 C800 1.327 . S
C798 H823 0.950 . S
C799 C798 1.349 . S
C799 C815 1.349 . S
C800 C798 1.327 . S
C800 C819 1.429 . S
C800 H824 0.950 . S
C801 C818 1.574 . S
C801 C820 1.368 . S
C801 H825 0.949 . S
H802 C806 0.949 . S
C803 C804 1.349 . S
C803 C805 1.327 . S
C803 H826 0.950 . S
C804 C803 1.349 . S
C804 C816 1.349 . S
C805 C803 1.327 . S
C805 C821 1.429 . S
C805 H827 0.950 . S
C806 H802 0.949 . S
C806 C814 1.574 . S
C806 C822 1.368 . S
H807 C815 0.950 . S
H808 C813 0.950 . S
H809 C814 0.949 . S
H810 C816 0.950 . S
H811 C817 0.950 . S
H812 C818 0.949 . S
C813 H808 0.950 . S
C813 C815 1.327 . S
C813 C819 1.429 . S
C814 C806 1.574 . S
C814 H809 0.949 . S
C814 C820 1.368 . S
C815 C799 1.349 . S
C815 H807 0.950 . S
C815 C813 1.327 . S
C816 C804 1.349 . S
C816 H810 0.950 . S
C816 C817 1.327 . S
C817 H811 0.950 . S
C817 C816 1.327 . S
C817 C821 1.429 . S
C818 C801 1.574 . S
C818 H812 0.949 . S
C818 C822 1.368 . S
C819 C800 1.429 . S
C819 C813 1.429 . S
C819 C820 1.523 . S
C820 C801 1.368 . S
C820 C814 1.368 . S
C820 C819 1.523 . S
C821 C805 1.429 . S
C821 C817 1.429 . S
C821 C822 1.523 . S
C822 C806 1.368 . S
C822 C818 1.368 . S
C822 C821 1.523 . S
H823 C798 0.950 . S
H824 C800 0.950 . S
H825 C801 0.949 . S
H826 C803 0.950 . S
H827 C805 0.950 . S
C828 C829 1.349 . S
C828 C830 1.327 . S
C828 H853 0.950 . S
C829 C828 1.349 . S
C829 C845 1.349 . S
C830 C828 1.327 . S
C830 C849 1.429 . S
C830 H854 0.950 . S
C831 C848 1.574 . S
C831 C850 1.368 . S
C831 H855 0.949 . S
H832 C836 0.949 . S
C833 C834 1.349 . S
C833 C835 1.327 . S
C833 H856 0.950 . S
C834 C833 1.349 . S
C834 C846 1.349 . S
C835 C833 1.327 . S
C835 C851 1.429 . S
C835 H857 0.950 . S
C836 H832 0.949 . S
C836 C844 1.574 . S
C836 C852 1.368 . S
H837 C845 0.950 . S
H838 C843 0.950 . S
H839 C844 0.949 . S
H840 C846 0.950 . S
H841 C847 0.950 . S
H842 C848 0.949 . S
C843 H838 0.950 . S
C843 C845 1.327 . S
C843 C849 1.429 . S
C844 C836 1.574 . S
C844 H839 0.949 . S
C844 C850 1.368 . S
C845 C829 1.349 . S
C845 H837 0.950 . S
C845 C843 1.327 . S
C846 C834 1.349 . S
C846 H840 0.950 . S
C846 C847 1.327 . S
C847 H841 0.950 . S
C847 C846 1.327 . S
C847 C851 1.429 . S
C848 C831 1.574 . S
C848 H842 0.949 . S
C848 C852 1.368 . S
C849 C830 1.429 . S
C849 C843 1.429 . S
C849 C850 1.523 . S
C850 C831 1.368 . S
C850 C844 1.368 . S
C850 C849 1.523 . S
C851 C835 1.429 . S
C851 C847 1.429 . S
C851 C852 1.523 . S
C852 C836 1.368 . S
C852 C848 1.368 . S
C852 C851 1.523 . S
H853 C828 0.950 . S
H854 C830 0.950 . S
H855 C831 0.949 . S
H856 C833 0.950 . S
H857 C835 0.950 . S
C858 C859 1.349 . S
C858 C860 1.327 . S
C858 H883 0.950 . S
C859 C858 1.349 . S
C859 C875 1.349 . S
C860 C858 1.327 . S
C860 C879 1.429 . S
C860 H884 0.950 . S
C861 C878 1.574 . S
C861 C880 1.368 . S
C861 H885 0.949 . S
H862 C866 0.949 . S
C863 C864 1.349 . S
C863 C865 1.327 . S
C863 H886 0.950 . S
C864 C863 1.349 . S
C864 C876 1.349 . S
C865 C863 1.327 . S
C865 C881 1.429 . S
C865 H887 0.950 . S
C866 H862 0.949 . S
C866 C874 1.574 . S
C866 C882 1.368 . S
H867 C875 0.950 . S
H868 C873 0.950 . S
H869 C874 0.949 . S
H870 C876 0.950 . S
H871 C877 0.950 . S
H872 C878 0.949 . S
C873 H868 0.950 . S
C873 C875 1.327 . S
C873 C879 1.429 . S
C874 C866 1.574 . S
C874 H869 0.949 . S
C874 C880 1.368 . S
C875 C859 1.349 . S
C875 H867 0.950 . S
C875 C873 1.327 . S
C876 C864 1.349 . S
C876 H870 0.950 . S
C876 C877 1.327 . S
C877 H871 0.950 . S
C877 C876 1.327 . S
C877 C881 1.429 . S
C878 C861 1.574 . S
C878 H872 0.949 . S
C878 C882 1.368 . S
C879 C860 1.429 . S
C879 C873 1.429 . S
C879 C880 1.523 . S
C880 C861 1.368 . S
C880 C874 1.368 . S
C880 C879 1.523 . S
C881 C865 1.429 . S
C881 C877 1.429 . S
C881 C882 1.523 . S
C882 C866 1.368 . S
C882 C878 1.368 . S
C882 C881 1.523 . S
H883 C858 0.950 . S
H884 C860 0.950 . S
H885 C861 0.949 . S
H886 C863 0.950 . S
H887 C865 0.950 . S
C169 C12 1.461 . S
C174 C141 1.460 . S
C199 C26 1.499 . S
C204 C154 1.503 . S
C229 C96 1.499 . S
C234 C28 1.503 . S
C259 C42 1.461 . S
C264 C110 1.461 . S
C289 C112 1.498 . S
C294 C57 1.503 . S
C319 C126 1.499 . S
C324 C70 1.503 . S
C349 C84 0.914 . S
C354 C0 0.914 . S
C379 C98 0.914 . S
C384 C14 0.914 . S
C409 C124 0.911 . S
C414 C40 0.910 . S
C439 C54 0.914 . S
C444 C138 0.914 . S
C469 C69 0.915 . S
C474 C153 0.915 . S
C499 C82 0.911 . S
C504 C166 0.910 . S
C529 C1 2.347 . S
C534 C55 2.347 . S
C559 C15 2.348 . S
C564 C68 2.344 . S
C589 C41 2.344 . S
C594 C83 2.344 . S
C619 C139 2.349 . S
C624 C85 2.349 . S
C649 C152 2.343 . S
C654 C99 2.347 . S
C679 C167 2.344 . S
C684 C125 2.344 . S
C709 C13 2.007 . S
C714 C113 2.003 . S
C739 C127 2.042 . S
C744 C27 2.042 . S
C769 C29 2.007 . S
C774 C140 2.002 . S
C799 C155 2.008 . S
C804 C43 2.003 . S
C829 C56 2.042 . S
C834 C97 2.042 . S
C859 C71 2.007 . S
C864 C111 2.002 . S
