# Generated by pormake.
# Topology umm, (4)-cn, num edge types: 1
# Building blocks:
#     Node 0, Type 0, BuildingBlock: ESEHIV_clean_sbu_0, # of connection points: 4
#     Node 1, Type 0, BuildingBlock: ESEHIV_clean_sbu_0, # of connection points: 4
#     Node 2, Type 0, BuildingBlock: ESEHIV_clean_sbu_0, # of connection points: 4
#     Node 3, Type 0, BuildingBlock: ESEHIV_clean_sbu_0, # of connection points: 4
#     Node 4, Type 0, BuildingBlock: ESEHIV_clean_sbu_0, # of connection points: 4
#     Node 5, Type 0, BuildingBlock: ESEHIV_clean_sbu_0, # of connection points: 4
#     Node 6, Type 0, BuildingBlock: ESEHIV_clean_sbu_0, # of connection points: 4
#     Node 7, Type 0, BuildingBlock: ESEHIV_clean_sbu_0, # of connection points: 4
#     Node 8, Type 0, BuildingBlock: ESEHIV_clean_sbu_0, # of connection points: 4
#     Node 9, Type 0, BuildingBlock: ESEHIV_clean_sbu_0, # of connection points: 4
#     Node 10, Type 0, BuildingBlock: ESEHIV_clean_sbu_0, # of connection points: 4
#     Node 11, Type 0, BuildingBlock: ESEHIV_clean_sbu_0, # of connection points: 4
#     Edge 12, Type (0, 0), BuildingBlock: KIFKEQ_clean_linker_1, # of connection points: 2
#     Edge 13, Type (0, 0), BuildingBlock: KIFKEQ_clean_linker_1, # of connection points: 2
#     Edge 14, Type (0, 0), BuildingBlock: KIFKEQ_clean_linker_1, # of connection points: 2
#     Edge 15, Type (0, 0), BuildingBlock: KIFKEQ_clean_linker_1, # of connection points: 2
#     Edge 16, Type (0, 0), BuildingBlock: KIFKEQ_clean_linker_1, # of connection points: 2
#     Edge 17, Type (0, 0), BuildingBlock: KIFKEQ_clean_linker_1, # of connection points: 2
#     Edge 18, Type (0, 0), BuildingBlock: KIFKEQ_clean_linker_1, # of connection points: 2
#     Edge 19, Type (0, 0), BuildingBlock: KIFKEQ_clean_linker_1, # of connection points: 2
#     Edge 20, Type (0, 0), BuildingBlock: KIFKEQ_clean_linker_1, # of connection points: 2
#     Edge 21, Type (0, 0), BuildingBlock: KIFKEQ_clean_linker_1, # of connection points: 2
#     Edge 22, Type (0, 0), BuildingBlock: KIFKEQ_clean_linker_1, # of connection points: 2
#     Edge 23, Type (0, 0), BuildingBlock: KIFKEQ_clean_linker_1, # of connection points: 2
#     Edge 24, Type (0, 0), BuildingBlock: KIFKEQ_clean_linker_1, # of connection points: 2
#     Edge 25, Type (0, 0), BuildingBlock: KIFKEQ_clean_linker_1, # of connection points: 2
#     Edge 26, Type (0, 0), BuildingBlock: KIFKEQ_clean_linker_1, # of connection points: 2
#     Edge 27, Type (0, 0), BuildingBlock: KIFKEQ_clean_linker_1, # of connection points: 2
#     Edge 28, Type (0, 0), BuildingBlock: KIFKEQ_clean_linker_1, # of connection points: 2
#     Edge 29, Type (0, 0), BuildingBlock: KIFKEQ_clean_linker_1, # of connection points: 2
#     Edge 30, Type (0, 0), BuildingBlock: KIFKEQ_clean_linker_1, # of connection points: 2
#     Edge 31, Type (0, 0), BuildingBlock: KIFKEQ_clean_linker_1, # of connection points: 2
#     Edge 32, Type (0, 0), BuildingBlock: KIFKEQ_clean_linker_1, # of connection points: 2
#     Edge 33, Type (0, 0), BuildingBlock: KIFKEQ_clean_linker_1, # of connection points: 2
#     Edge 34, Type (0, 0), BuildingBlock: KIFKEQ_clean_linker_1, # of connection points: 2
#     Edge 35, Type (0, 0), BuildingBlock: KIFKEQ_clean_linker_1, # of connection points: 2
# Relax obj value: 0.042
# Max RMSD: 0.104
# Mean RMSD: 0.103
data_MOF--net-umm--node1-ESEHIV_clean_sbu_0--edge1-KIFKEQ_clean_linker_1
_symmetry_space_group_name_H-M    P1
_symmetry_Int_Tables_number       1
_symmetry_cell_setting            triclinic
loop_
_symmetry_equiv_pos_as_xyz
'x, y, z'
_cell_length_a     66.208878
_cell_length_b     66.302059
_cell_length_c     28.850345
_cell_angle_alpha  90.030891
_cell_angle_beta   90.140739
_cell_angle_gamma 119.50857
loop_
_atom_site_label
_atom_site_type_symbol
_atom_site_fract_x
_atom_site_fract_y
_atom_site_fract_z
_atom_type_partial_charge
Cu0 Cu 0.47415 0.60131 0.12639 0.0
N1 N 0.50641 0.61655 0.11751 0.0
N2 N 0.54048 0.61756 0.10827 0.0
C3 C 0.51807 0.6048 0.12104 0.0
C4 C 0.54318 0.63854 0.09705 0.0
C5 C 0.52205 0.63785 0.10262 0.0
O6 O 0.46981 0.5968 0.19301 0.0
C7 C 0.47011 0.57882 0.04635 0.0
O8 O 0.48542 0.60037 0.03673 0.0
H9 H 0.50987 0.58685 0.13165 0.0
H10 H 0.51821 0.65153 0.09458 0.0
N11 N 0.45787 0.61595 0.10497 0.0
N12 N 0.42658 0.61692 0.07759 0.0
C13 C 0.43518 0.60358 0.09394 0.0
C14 C 0.46407 0.63811 0.09551 0.0
C15 C 0.44476 0.63877 0.07873 0.0
C16 C 0.48037 0.61581 0.21549 0.0
O17 O 0.49099 0.63524 0.19192 0.0
H18 H 0.42518 0.58499 0.09822 0.0
H19 H 0.48133 0.65269 0.10008 0.0
O20 O 0.46183 0.57379 0.08726 0.0
H21 H 0.55894 0.65299 0.08377 0.0
H22 H 0.44434 0.65412 0.0675 0.0
Cu23 Cu 0.89781 0.41617 0.4502 0.0
N24 N 0.92937 0.42616 0.45647 0.0
N25 N 0.96743 0.45104 0.46259 0.0
C26 C 0.94591 0.4485 0.46085 0.0
C27 C 0.96421 0.42931 0.45928 0.0
C28 C 0.94071 0.414 0.45532 0.0
O29 O 0.89045 0.4299 0.5032 0.0
C30 C 0.87721 0.42569 0.36913 0.0
O31 O 0.85756 0.41738 0.39191 0.0
H32 H 0.94211 0.4626 0.4626 0.0
H33 H 0.93254 0.39542 0.45096 0.0
N34 N 0.8806 0.38373 0.45102 0.0
N35 N 0.85345 0.3473 0.43439 0.0
C36 C 0.86251 0.36995 0.42348 0.0
C37 C 0.88321 0.36932 0.48012 0.0
C38 C 0.86648 0.34687 0.47006 0.0
C39 C 0.87664 0.41822 0.53583 0.0
O40 O 0.86334 0.39574 0.53087 0.0
H41 H 0.85581 0.37642 0.39663 0.0
H42 H 0.8962 0.37482 0.5072 0.0
O43 O 0.89506 0.42723 0.38919 0.0
H44 H 0.97786 0.42482 0.45842 0.0
H45 H 0.86419 0.33144 0.48753 0.0
Cu46 Cu 0.44357 0.85512 0.74696 0.0
N47 N 0.46912 0.88508 0.74351 0.0
N48 N 0.48929 0.92387 0.74626 0.0
C49 C 0.46892 0.90463 0.75553 0.0
C50 C 0.50297 0.91606 0.72818 0.0
C51 C 0.49044 0.89213 0.72635 0.0
O52 O 0.42817 0.85459 0.80489 0.0
C53 C 0.41777 0.86462 0.68069 0.0
O54 O 0.41943 0.87991 0.71161 0.0
H55 H 0.45399 0.9047 0.77049 0.0
H56 H 0.49627 0.88072 0.71244 0.0
N57 N 0.45345 0.83294 0.7489 0.0
N58 N 0.45485 0.79992 0.74118 0.0
C59 C 0.44323 0.81138 0.7304 0.0
C60 C 0.47212 0.83521 0.77193 0.0
C61 C 0.47308 0.81502 0.76719 0.0
C62 C 0.41737 0.83676 0.83036 0.0
O63 O 0.41351 0.81655 0.8147 0.0
H64 H 0.42729 0.80409 0.71051 0.0
H65 H 0.48411 0.85047 0.79123 0.0
O66 O 0.42525 0.85079 0.69104 0.0
H67 H 0.52047 0.92687 0.71561 0.0
H68 H 0.48634 0.81185 0.78171 0.0
Cu69 Cu 0.64899 0.49037 0.10695 0.0
N70 N 0.6546 0.52089 0.10566 0.0
N71 N 0.64666 0.54998 0.10214 0.0
C72 C 0.63833 0.52697 0.09706 0.0
C73 C 0.66914 0.55874 0.11443 0.0
C74 C 0.67402 0.54074 0.11638 0.0
O75 O 0.63052 0.47595 0.16325 0.0
C76 C 0.6369 0.46232 1.02372 0.0
O77 O 0.6503 0.45464 0.04059 0.0
H78 H 0.62044 0.51455 0.08904 0.0
H79 H 0.69036 0.54193 0.12613 0.0
N80 N 0.67677 0.4893 0.11233 0.0
N81 N 0.71095 0.49104 0.09899 0.0
C82 C 0.6955 0.4975 0.08423 0.0
C83 C 0.6807 0.47754 0.14583 0.0
C84 C 0.70164 0.47862 0.13785 0.0
C85 C 0.63875 0.48646 0.20175 0.0
O86 O 0.65859 0.50598 0.20113 0.0
H87 H 0.69733 0.50716 0.05281 0.0
H88 H 0.66882 0.46829 0.17368 0.0
O89 O 0.63319 0.47625 0.04803 0.0
H90 H 0.68112 0.5768 0.12185 0.0
H91 H 0.70935 0.47069 0.15897 0.0
Cu92 Cu 0.18893 0.63373 0.46395 0.0
N93 N 0.15752 0.62481 0.46862 0.0
N94 N 0.1193 0.60017 0.47131 0.0
C95 C 0.14077 0.60274 0.47521 0.0
C96 C 0.12275 0.62163 0.46219 0.0
C97 C 0.14636 0.63677 0.46021 0.0
O98 O 0.19771 0.62379 0.52011 0.0
C99 C 0.20831 0.618 0.39151 0.0
O100 O 0.22711 0.6251 0.41688 0.0
H101 H 0.14441 0.58875 0.48142 0.0
H102 H 0.15467 0.6549 0.45104 0.0
N103 N 0.20811 0.66579 0.45736 0.0
N104 N 0.23987 0.69932 0.43987 0.0
C105 C 0.22927 0.67598 0.43773 0.0
C106 C 0.20516 0.68333 0.47277 0.0
C107 C 0.22469 0.70403 0.46195 0.0
C108 C 0.19465 0.63202 0.55768 0.0
O109 O 0.18632 0.64635 0.55532 0.0
H110 H 0.23707 0.66642 0.42348 0.0
H111 H 0.19012 0.68126 0.49145 0.0
O112 O 0.191 0.61909 0.40747 0.0
H113 H 0.10924 0.6259 0.45505 0.0
H114 H 0.22744 0.72114 0.46993 0.0
Cu115 Cu 0.5644 0.15847 0.77014 0.0
N116 N 0.54036 0.1276 0.77232 0.0
N117 N 0.52256 0.08881 0.77259 0.0
C118 C 0.54312 0.10875 0.77267 0.0
C119 C 0.50627 0.09543 0.77204 0.0
C120 C 0.51727 0.11931 0.77159 0.0
O121 O 0.5833 0.16393 0.82643 0.0
C122 C 0.59653 0.17757 0.69131 0.0
O123 O 0.6072 0.19769 0.7126 0.0
H124 H 0.55992 0.10971 0.77289 0.0
H125 H 0.50896 0.12981 0.76981 0.0
N126 N 0.55222 0.17894 0.76993 0.0
N127 N 0.54689 0.20936 0.75592 0.0
C128 C 0.55907 0.19852 0.74499 0.0
C129 C 0.53506 0.17738 0.79725 0.0
C130 C 0.53171 0.19593 0.78871 0.0
C131 C 0.57233 0.15796 0.86485 0.0
O132 O 0.54964 0.14863 0.86394 0.0
H133 H 0.57292 0.2049 0.71992 0.0
H134 H 0.52554 0.16369 0.82191 0.0
O135 O 0.57991 0.16027 0.71138 0.0
H136 H 0.48771 0.08385 0.77063 0.0
H137 H 0.51885 0.19906 0.80519 0.0
Cu138 Cu 0.4472 0.59453 0.63278 0.0
N139 N 0.43114 0.56407 0.6107 0.0
N140 N 0.4307 0.53081 0.59403 0.0
C141 C 0.43681 0.54814 0.62497 0.0
C142 C 0.42053 0.53594 0.55879 0.0
C143 C 0.42093 0.55652 0.56908 0.0
O144 O 0.47235 0.60885 0.58818 0.0
C145 C 0.43876 0.579 0.72157 0.0
O146 O 0.4177 0.57033 0.70438 0.0
H147 H 0.4479 0.55077 0.65463 0.0
H148 H 0.41651 0.56649 0.54565 0.0
N149 N 0.43026 0.61046 0.63452 0.0
N150 N 0.42379 0.64025 0.64761 0.0
C151 C 0.437 0.63043 0.6579 0.0
C152 C 0.41187 0.6072 0.609 0.0
C153 C 0.40781 0.62546 0.61707 0.0
C154 C 0.4753 0.62565 0.5624 0.0
O155 O 0.46648 0.6387 0.57503 0.0
H156 H 0.45201 0.63803 0.6805 0.0
H157 H 0.40279 0.59319 0.58455 0.0
O158 O 0.45595 0.59194 0.6958 0.0
H159 H 0.41481 0.52647 0.52645 0.0
H160 H 0.39481 0.62815 0.59979 0.0
Cu161 Cu 0.91019 0.49583 0.95242 0.0
N162 N 0.94246 0.51583 0.94929 0.0
N163 N 0.98058 0.52761 0.94782 0.0
C164 C 0.95881 0.50927 0.94946 0.0
C165 C 0.97773 0.54642 0.94672 0.0
C166 C 0.95429 0.53914 0.94786 0.0
O167 O 0.9005 0.47721 0.89542 0.0
C168 C 0.88669 0.46161 1.02517 0.0
O169 O 0.86827 0.45178 0.99827 0.0
H170 H 0.95474 0.49134 0.95063 0.0
H171 H 0.94653 0.55014 0.94838 0.0
N172 N 0.89342 0.51198 0.9566 0.0
N173 N 0.86429 0.51901 0.9729 0.0
C174 C 0.87363 0.50519 0.98067 0.0
C175 C 0.89673 0.53088 0.93296 0.0
C176 C 0.87886 0.53524 0.9429 0.0
C177 C 0.90584 0.48873 0.85766 0.0
O178 O 0.91767 0.51144 0.86009 0.0
H179 H 0.86571 0.48986 1.00208 0.0
H180 H 0.91078 0.54054 0.90909 0.0
O181 O 0.9053 0.4787 1.01005 0.0
H182 H 0.99161 0.56425 0.94632 0.0
H183 H 0.87667 0.54916 0.92873 0.0
Cu184 Cu 0.43678 0.8735 0.26449 0.0
N185 N 0.46919 0.89162 0.26155 0.0
N186 N 0.50423 0.92337 0.25816 0.0
C187 C 0.48104 0.91492 0.25829 0.0
C188 C 0.50705 0.90456 0.26063 0.0
C189 C 0.48541 0.88501 0.26238 0.0
O190 O 0.42481 0.8703 0.2013 0.0
C191 C 0.43599 0.89488 0.34748 0.0
O192 O 0.45799 0.90064 0.34831 0.0
H193 H 0.47272 0.92547 0.25774 0.0
H194 H 0.48183 0.86727 0.26409 0.0
N195 N 0.42611 0.84373 0.28764 0.0
N196 N 0.39856 0.81131 0.32056 0.0
C197 C 0.40322 0.82927 0.29238 0.0
C198 C 0.4365 0.83459 0.31367 0.0
C199 C 0.41948 0.81435 0.33361 0.0
C200 C 0.42925 0.85743 0.17523 0.0
O201 O 0.44075 0.84782 0.19305 0.0
H202 H 0.39022 0.83291 0.27808 0.0
H203 H 0.45487 0.84297 0.32111 0.0
O204 O 0.42412 0.8857 0.31085 0.0
H205 H 0.52354 0.90487 0.26095 0.0
H206 H 0.42223 0.80384 0.3588 0.0
Cu207 Cu 0.5548 0.41361 0.60962 0.0
N208 N 0.52673 0.41422 0.61075 0.0
N209 N 0.50049 0.42629 0.60978 0.0
C210 C 0.52308 0.43234 0.60396 0.0
C211 C 0.48964 0.40353 0.6205 0.0
C212 C 0.5058 0.39619 0.62109 0.0
O213 O 0.57242 0.42973 0.55343 0.0
C214 C 0.58894 0.42818 0.68423 0.0
O215 O 0.60092 0.42222 0.65674 0.0
H216 H 0.53679 0.44967 0.596 0.0
H217 H 0.50257 0.37891 0.62906 0.0
N218 N 0.54778 0.38248 0.60551 0.0
N219 N 0.54581 0.34812 0.61794 0.0
C220 C 0.5544 0.37025 0.63301 0.0
C221 C 0.53446 0.36755 0.57235 0.0
C222 C 0.5332 0.34649 0.57984 0.0
C223 C 0.56135 0.42639 0.51519 0.0
O224 O 0.53865 0.41344 0.51559 0.0
H225 H 0.5654 0.37744 0.66316 0.0
H226 H 0.52598 0.37161 0.54478 0.0
O227 O 0.57013 0.42674 0.66928 0.0
H228 H 0.47128 0.39286 0.6273 0.0
H229 H 0.52331 0.33103 0.55918 0.0
Cu230 Cu 0.20544 0.57013 0.96964 0.0
N231 N 0.17387 0.54748 0.97184 0.0
N232 N 0.13524 0.53278 0.9688 0.0
C233 C 0.15629 0.55114 0.95936 0.0
C234 C 0.13983 0.51674 0.98729 0.0
C235 C 0.16366 0.52588 0.98929 0.0
O236 O 0.21043 0.58683 0.91173 0.0
C237 C 0.19953 0.5949 0.04538 0.0
O238 O 0.18017 0.59104 1.0251 0.0
H239 H 0.15899 0.56727 0.94458 0.0
H240 H 0.17286 0.51767 1.00387 0.0
N241 N 0.22609 0.55847 0.97193 0.0
N242 N 0.2599 0.55917 0.98414 0.0
C243 C 0.24804 0.57083 0.98785 0.0
C244 C 0.22383 0.53814 0.95762 0.0
C245 C 0.2447 0.53855 0.96502 0.0
C246 C 0.20553 0.57447 0.87518 0.0
O247 O 0.19807 0.55218 0.87958 0.0
H248 H 0.25531 0.58837 1.00083 0.0
H249 H 0.20826 0.52415 0.94246 0.0
O250 O 0.21293 0.58918 1.02488 0.0
H251 H 0.12696 0.49998 1.00034 0.0
H252 H 0.24832 0.52468 0.9571 0.0
Cu253 Cu 0.65063 0.16072 0.27401 0.0
N254 N 0.64443 0.13005 0.27945 0.0
N255 N 0.62648 0.09131 0.27729 0.0
C256 C 0.62474 0.11043 0.26844 0.0
C257 C 0.64809 0.09929 0.29445 0.0
C258 C 0.65906 0.12313 0.29582 0.0
O259 O 0.63671 0.16414 0.21639 0.0
C260 C 0.62158 0.15584 0.35189 0.0
O261 O 0.60656 0.13618 0.33234 0.0
H262 H 0.60954 0.11023 0.25398 0.0
H263 H 0.67645 0.13466 0.30825 0.0
N264 N 0.6828 0.18021 0.27113 0.0
N265 N 0.71848 0.20932 0.28674 0.0
C266 C 0.69557 0.19959 0.29626 0.0
C267 C 0.69811 0.17751 0.24503 0.0
C268 C 0.72009 0.19545 0.25444 0.0
C269 C 0.64074 0.15647 0.17892 0.0
O270 O 0.65324 0.14609 0.18117 0.0
H271 H 0.68817 0.20639 0.32096 0.0
H272 H 0.69371 0.16323 0.22151 0.0
O273 O 0.6404 0.16915 0.3308 0.0
H274 H 0.65531 0.08865 0.30617 0.0
H275 H 0.73606 0.1977 0.23954 0.0
H276 H 0.50752 0.65338 0.26864 0.0
H277 H 0.45729 0.58049 0.27855 0.0
H278 H 0.51032 0.6562 0.35236 0.0
H279 H 0.45965 0.5835 0.36332 0.0
H280 H 0.48116 0.59291 0.51518 0.0
H281 H 0.48447 0.5902 0.43138 0.0
H282 H 0.48643 0.65589 0.41449 0.0
H283 H 0.48366 0.65884 0.49787 0.0
C284 C 0.49695 0.63791 0.28871 0.0
C285 C 0.48196 0.61673 0.2668 0.0
C286 C 0.49855 0.63958 0.33689 0.0
C287 C 0.48508 0.62016 0.36471 0.0
C288 C 0.47044 0.59877 0.34291 0.0
C289 C 0.46893 0.59706 0.29438 0.0
C290 C 0.48291 0.60706 0.49366 0.0
C291 C 0.48212 0.62611 0.51331 0.0
C292 C 0.48447 0.60533 0.44555 0.0
C293 C 0.48544 0.62268 0.41609 0.0
C294 C 0.4859 0.64227 0.43604 0.0
C295 C 0.48428 0.64397 0.48399 0.0
H296 H 0.90804 0.46219 0.56423 0.0
H297 H 0.84951 0.39863 0.61244 0.0
H298 H 0.91378 0.47829 0.642 0.0
H299 H 0.85483 0.41501 0.69021 0.0
H300 H 0.88876 0.44266 0.83433 0.0
H301 H 0.88023 0.42567 0.75636 0.0
H302 H 0.89852 0.49263 0.69862 0.0
H303 H 0.90765 0.50951 0.77553 0.0
C304 C 0.89609 0.45179 0.59121 0.0
C305 C 0.87829 0.4291 0.58187 0.0
C306 C 0.89935 0.46105 0.636 0.0
C307 C 0.88481 0.44797 0.67277 0.0
C308 C 0.86662 0.42548 0.66312 0.0
C309 C 0.86342 0.41617 0.6183 0.0
C310 C 0.89086 0.45366 0.80491 0.0
C311 C 0.89913 0.47749 0.81125 0.0
C312 C 0.88587 0.44393 0.76017 0.0
C313 C 0.88889 0.45779 0.72084 0.0
C314 C 0.8965 0.48146 0.72767 0.0
C315 C 0.90163 0.49115 0.77206 0.0
H316 H 0.43075 0.87703 0.87906 0.0
H317 H 0.39424 0.80256 0.89428 0.0
H318 H 0.42943 0.88138 0.96283 0.0
H319 H 0.39245 0.80692 0.97777 0.0
H320 H 0.42922 0.82462 0.11918 0.0
H321 H 0.42202 0.8194 0.03662 0.0
H322 H 0.40694 0.87579 0.03448 0.0
H323 H 0.41456 0.88129 0.11827 0.0
C324 C 0.42196 0.86156 0.9001 0.0
C325 C 0.4129 0.83942 0.8799 0.0
C326 C 0.42112 0.86407 0.94822 0.0
C327 C 0.41116 0.84452 0.97724 0.0
C328 C 0.40072 0.82239 0.9566 0.0
C329 C 0.40163 0.81987 0.90862 0.0
C330 C 0.42418 0.83585 0.10141 0.0
C331 C 0.42259 0.85347 0.12544 0.0
C332 C 0.41982 0.83269 0.05389 0.0
C333 C 0.41377 0.84708 1.0287 0.0
C334 C 0.41168 0.86447 0.05278 0.0
C335 C 0.41591 0.86755 0.10078 0.0
H336 H 0.5987 0.4452 0.22038 0.0
H337 H 0.65255 0.50664 0.2869 0.0
H338 H 0.58072 0.43048 0.29601 0.0
H339 H 0.63448 0.49232 0.36172 0.0
H340 H 0.60842 0.45075 0.49635 0.0
H341 H 0.62703 0.46429 0.4208 0.0
H342 H 0.55965 0.43681 0.35607 0.0
H343 H 0.54123 0.42298 0.43079 0.0
C344 C 0.60665 0.45562 0.25098 0.0
C345 C 0.6271 0.47712 0.24725 0.0
C346 C 0.59631 0.44724 0.29447 0.0
C347 C 0.60611 0.46015 0.33541 0.0
C348 C 0.62656 0.48163 0.33142 0.0
C349 C 0.63686 0.48996 0.28815 0.0
C350 C 0.59761 0.44767 0.466 0.0
C351 C 0.57329 0.43575 0.46995 0.0
C352 C 0.60827 0.45548 0.42255 0.0
C353 C 0.5949 0.4516 0.38188 0.0
C354 C 0.5706 0.43979 0.38614 0.0
C355 C 0.56 0.43201 0.42936 0.0
H356 H 0.18791 0.64584 0.64232 0.0
H357 H 0.21173 0.60263 0.57733 0.0
H358 H 0.19306 0.63322 0.71816 0.0
H359 H 0.21754 0.59041 0.65382 0.0
H360 H 0.19413 0.55139 0.79277 0.0
H361 H 0.19406 0.56649 0.71621 0.0
H362 H 0.22072 0.6351 0.77422 0.0
H363 H 0.22016 0.61976 0.85152 0.0
C364 C 0.19451 0.63382 0.64419 0.0
C365 C 0.19926 0.62513 0.60365 0.0
C366 C 0.19766 0.62672 0.68786 0.0
C367 C 0.20573 0.61079 0.69226 0.0
C368 C 0.21101 0.60248 0.65171 0.0
C369 C 0.20779 0.60955 0.60786 0.0
C370 C 0.20011 0.56975 0.78931 0.0
C371 C 0.20701 0.58435 0.82841 0.0
C372 C 0.20025 0.57845 0.74519 0.0
C373 C 0.20737 0.60203 0.73889 0.0
C374 C 0.21482 0.61678 0.77788 0.0
C375 C 0.21462 0.60803 0.82217 0.0
H376 H 0.61249 0.17511 0.15896 0.0
H377 H 0.64917 0.14382 0.09432 0.0
H378 H 0.59787 0.17837 0.08289 0.0
H379 H 0.63436 0.14673 1.01898 0.0
H380 H 0.61821 0.17087 0.88285 0.0
H381 H 0.63607 0.17311 0.95866 0.0
H382 H 0.57055 0.15301 1.02537 0.0
H383 H 0.55298 0.15116 0.95051 0.0
C384 C 0.61746 0.16895 0.12864 0.0
C385 C 0.63192 0.15909 0.13299 0.0
C386 C 0.60902 0.17075 0.08498 0.0
C387 C 0.61491 0.16282 0.04456 0.0
C388 C 0.6297 0.15334 0.04902 0.0
C389 C 0.63803 0.15148 0.09251 0.0
C390 C 0.60772 0.16714 0.91376 0.0
C391 C 0.58412 0.16072 0.91038 0.0
C392 C 0.6179 0.16829 0.95725 0.0
C393 C 0.60476 0.16321 0.99835 0.0
C394 C 0.58134 0.15735 0.99478 0.0
C395 C 0.57119 0.1561 0.95155 0.0
H396 H 0.39478 0.57365 0.04826 0.0
H397 H 0.40437 0.64221 0.07119 0.0
H398 H 0.35472 0.55985 1.02628 0.0
H399 H 0.36441 0.62862 0.04679 0.0
H400 H 0.2849 0.59088 0.0505 0.0
H401 H 0.32532 0.6052 0.07168 0.0
H402 H 0.33021 0.56091 0.96763 0.0
H403 H 0.28961 0.54635 0.94705 0.0
C404 C 0.38843 0.58587 0.04868 0.0
C405 C 0.40298 0.60909 0.06215 0.0
C406 C 0.36538 0.57797 0.03533 0.0
C407 C 0.35611 0.59303 0.0347 0.0
C408 C 0.37074 0.61636 0.04745 0.0
C409 C 0.39383 0.62427 0.06097 0.0
C410 C 0.29461 0.58429 0.03189 0.0
C411 C 0.2839 0.56743 0.99699 0.0
C412 C 0.31791 0.59258 0.04398 0.0
C413 C 0.33125 0.58434 1.02138 0.0
C414 C 0.3205 0.56746 0.98641 0.0
C415 C 0.29715 0.55908 0.97452 0.0
H416 H 0.82418 0.30597 0.47417 0.0
H417 H 0.8378 0.3442 0.34618 0.0
H418 H 0.7912 0.27284 0.43801 0.0
H419 H 0.8044 0.3113 0.3104 0.0
H420 H 0.76024 0.23828 0.2483 0.0
H421 H 0.79276 0.27188 0.2843 0.0
H422 H 0.75212 0.26086 0.40814 0.0
H423 H 0.71979 0.22682 0.37256 0.0
C424 C 0.82019 0.30731 0.4383 0.0
C425 C 0.83374 0.32777 0.41309 0.0
C426 C 0.80109 0.2884 0.41772 0.0
C427 C 0.79512 0.2894 0.37131 0.0
C428 C 0.80863 0.30986 0.34609 0.0
C429 C 0.82766 0.32883 0.36676 0.0
C430 C 0.75826 0.24292 0.28329 0.0
C431 C 0.73739 0.22976 0.30755 0.0
C432 C 0.77684 0.26236 0.30377 0.0
C433 C 0.77508 0.26907 0.34913 0.0
C434 C 0.75415 0.25603 0.37331 0.0
C435 C 0.73551 0.23665 0.35271 0.0
H436 H 0.42891 0.7742 0.66768 0.0
H437 H 0.46753 0.77191 0.78646 0.0
H438 H 0.42064 0.73525 0.64557 0.0
H439 H 0.45935 0.73325 0.76443 0.0
H440 H 0.46346 0.67634 0.6829 0.0
H441 H 0.46995 0.7143 0.70569 0.0
H442 H 0.39943 0.69437 0.66788 0.0
H443 H 0.39278 0.65611 0.64521 0.0
C444 C 0.43548 0.76539 0.68934 0.0
C445 C 0.44911 0.77647 0.72868 0.0
C446 C 0.43072 0.74299 0.67666 0.0
C447 C 0.43947 0.73106 0.70294 0.0
C448 C 0.45272 0.74201 0.74271 0.0
C449 C 0.45744 0.7643 0.75537 0.0
C450 C 0.44914 0.67975 0.6799 0.0
C451 C 0.42749 0.66282 0.66222 0.0
C452 C 0.45292 0.7017 0.693 0.0
C453 C 0.43522 0.70752 0.6888 0.0
C454 C 0.41358 0.69067 0.6711 0.0
C455 C 0.40976 0.66863 0.6581 0.0
H456 H 0.72938 0.46266 0.10016 0.0
H457 H 0.74112 0.52866 0.04891 0.0
H458 H 0.76641 0.4701 0.0689 0.0
H459 H 0.77876 0.53649 1.01795 0.0
H460 H 0.8355 0.53213 0.93203 0.0
H461 H 0.79819 0.52579 0.96074 0.0
H462 H 0.80665 0.49331 0.08342 0.0
H463 H 0.84367 0.49931 0.05427 0.0
C464 C 0.74001 0.47891 0.0825 0.0
C465 C 0.73239 0.49519 0.07757 0.0
C466 C 0.76136 0.48324 0.06463 0.0
C467 C 0.7759 0.50409 0.04146 0.0
C468 C 0.76802 0.52018 0.03536 0.0
C469 C 0.74646 0.51574 0.05309 0.0
C470 C 0.82949 0.52382 0.96532 0.0
C471 C 0.84259 0.51611 0.99069 0.0
C472 C 0.80805 0.5202 0.98185 0.0
C473 C 0.79918 0.50885 1.02431 0.0
C474 C 0.81257 0.50161 0.05007 0.0
C475 C 0.83389 0.50509 0.03342 0.0
H476 H 0.26485 0.69167 0.37431 0.0
H477 H 0.2676 0.74391 0.46794 0.0
H478 H 0.3039 0.71854 0.34794 0.0
H479 H 0.30658 0.77089 0.44075 0.0
H480 H 0.36308 0.81934 0.33867 0.0
H481 H 0.3249 0.79202 0.36852 0.0
H482 H 0.34501 0.73925 0.37651 0.0
H483 H 0.3834 0.76676 0.34568 0.0
C484 C 0.27377 0.70877 0.38968 0.0
C485 C 0.26292 0.7155 0.4235 0.0
C486 C 0.29623 0.72419 0.37447 0.0
C487 C 0.30836 0.74681 0.39233 0.0
C488 C 0.29757 0.75363 0.42597 0.0
C489 C 0.27516 0.73816 0.44144 0.0
C490 C 0.35934 0.80187 0.34636 0.0
C491 C 0.37617 0.7951 0.33925 0.0
C492 C 0.33753 0.78629 0.36405 0.0
C493 C 0.33191 0.76347 0.37486 0.0
C494 C 0.34877 0.75668 0.36811 0.0
C495 C 0.37076 0.77241 0.35078 0.0
H496 H 0.56581 0.22951 0.67308 0.0
H497 H 0.53377 0.23825 0.79603 0.0
H498 H 0.56859 0.26474 0.64072 0.0
H499 H 0.53552 0.27269 0.76286 0.0
H500 H 0.55695 0.34426 0.70734 0.0
H501 H 0.56012 0.31222 0.7413 0.0
H502 H 0.54382 0.27767 0.60834 0.0
H503 H 0.54176 0.31001 0.57415 0.0
C504 C 0.55943 0.23892 0.69337 0.0
C505 C 0.54936 0.23074 0.73712 0.0
C506 C 0.5608 0.25906 0.67456 0.0
C507 C 0.55215 0.2716 0.69895 0.0
C508 C 0.54259 0.26371 0.74313 0.0
C509 C 0.54126 0.24364 0.76194 0.0
C510 C 0.55439 0.33001 0.68519 0.0
C511 C 0.54886 0.32975 0.63799 0.0
C512 C 0.55596 0.31146 0.7048 0.0
C513 C 0.55208 0.29217 0.67772 0.0
C514 C 0.54715 0.29224 0.63031 0.0
C515 C 0.54562 0.31074 0.61076 0.0
H516 H 0.53091 0.57331 0.09387 0.0
H517 H 0.58767 0.64307 0.11196 0.0
H518 H 0.558 0.55887 0.09035 0.0
H519 H 0.61523 0.62859 0.10609 0.0
H520 H 0.65322 0.58792 0.15051 0.0
H521 H 0.62872 0.60597 0.1488 0.0
H522 H 0.58627 0.55769 0.04228 0.0
H523 H 0.61043 0.53946 0.04493 0.0
C524 C 0.54921 0.58565 0.09719 0.0
C525 C 0.55701 0.60939 0.10389 0.0
C526 C 0.56487 0.57735 0.09435 0.0
C527 C 0.5889 0.59252 0.09769 0.0
C528 C 0.59684 0.61636 0.10378 0.0
C529 C 0.58106 0.62471 0.10672 0.0
C530 C 0.63882 0.58139 0.12636 0.0
C531 C 0.63358 0.56206 0.09828 0.0
C532 C 0.62479 0.59177 0.12527 0.0
C533 C 0.60529 0.58314 0.09583 0.0
C534 C 0.60075 0.56445 0.06629 0.0
C535 C 0.61463 0.554 0.06769 0.0
H536 H 1.00834 0.45735 0.49706 0.0
H537 H 0.97611 0.49364 0.43444 0.0
H538 H 0.04512 0.49356 0.50128 0.0
H539 H 1.01279 0.52974 0.43849 0.0
H540 H 0.07688 0.59443 0.4927 0.0
H541 H 0.03992 0.55825 0.49246 0.0
H542 H 0.07517 0.52103 0.45088 0.0
H543 H 0.11195 0.55703 0.45128 0.0
C544 C 1.0091 0.47299 0.48393 0.0
C545 C 0.98919 0.47251 0.46548 0.0
C546 C 1.0302 0.49378 0.48635 0.0
C547 C 1.03195 0.51462 0.47026 0.0
C548 C 1.01202 0.51414 0.45196 0.0
C549 C 0.99093 0.49337 0.44961 0.0
C550 C 0.07672 0.57854 0.48337 0.0
C551 C 0.09746 0.57871 0.47218 0.0
C552 C 0.05553 0.55778 0.48318 0.0
C553 C 0.05454 0.53668 0.47169 0.0
C554 C 0.0753 0.53686 0.46073 0.0
C555 C 0.09646 0.55758 0.46098 0.0
H556 H 0.5504 0.0739 0.73464 0.0
H557 H 0.48583 0.0504 0.80756 0.0
H558 H 0.54283 0.03405 0.72927 0.0
H559 H 0.4784 1.01065 0.8032 0.0
H560 H 0.45912 0.94028 0.7415 0.0
H561 H 0.46779 0.98026 0.74911 0.0
H562 H 0.54023 1.00176 0.77078 0.0
H563 H 0.53147 0.96158 0.76217 0.0
C564 C 0.53474 0.06026 0.7501 0.0
C565 C 0.51866 0.06535 0.77129 0.0
C566 C 0.53039 0.03736 0.74711 0.0
C567 C 0.5099 1.01896 0.76553 0.0
C568 C 0.49411 0.0242 0.78764 0.0
C569 C 0.49838 0.04705 0.79029 0.0
C570 C 0.47686 0.95348 0.74837 0.0
C571 C 0.49457 0.94766 0.75148 0.0
C572 C 0.48187 0.97649 0.75283 0.0
C573 C 0.50473 0.99439 0.76088 0.0
C574 C 0.52247 0.98856 0.764 0.0
C575 C 0.51746 0.9655 0.75918 0.0
H576 H 0.43607 0.50978 0.66939 0.0
H577 H 0.4436 0.51395 0.52066 0.0
H578 H 0.45288 0.48427 0.67241 0.0
H579 H 0.46013 0.4881 0.52349 0.0
H580 H 0.51445 0.46479 0.55673 0.0
H581 H 0.49636 0.48924 0.55163 0.0
H582 H 0.44435 0.44511 0.65021 0.0
H583 H 0.46261 0.42107 0.65596 0.0
C584 C 0.44113 0.50505 0.63729 0.0
C585 C 0.43843 0.51387 0.59483 0.0
C586 C 0.45066 0.49034 0.63895 0.0
C587 C 0.45794 0.48417 0.59819 0.0
C588 C 0.45492 0.49269 0.55557 0.0
C589 C 0.44515 0.50726 0.55388 0.0
C590 C 0.49925 0.46041 0.5775 0.0
C591 C 0.49001 0.44093 0.60672 0.0
C592 C 0.48872 0.47428 0.57421 0.0
C593 C 0.46885 0.46913 0.60046 0.0
C594 C 0.4597 0.44969 0.62975 0.0
C595 C 0.47008 0.43577 0.63273 0.0
H596 H 0.12619 0.56849 0.9714 0.0
H597 H 0.0932 0.4942 0.95633 0.0
H598 H 0.08869 0.56656 0.96524 0.0
H599 H 0.05546 0.49219 0.94925 0.0
H600 H 0.98931 0.49529 0.98671 0.0
H601 H 1.02649 0.49602 0.99078 0.0
H602 H 0.05851 0.56007 0.91344 0.0
H603 H 1.0215 0.55949 0.91034 0.0
C604 C 0.11097 0.55173 0.96604 0.0
C605 C 0.11284 0.53151 0.96411 0.0
C606 C 0.08934 0.5506 0.96243 0.0
C607 C 0.06885 0.52922 0.95646 0.0
C608 C 0.07072 0.50896 0.95446 0.0
C609 C 0.09241 0.51009 0.95838 0.0
C610 C 1.00425 0.50941 0.97025 0.0
C611 C 1.00237 0.52741 0.94847 0.0
C612 C 1.02564 0.50984 0.97249 0.0
C613 C 0.04574 0.5282 0.95273 0.0
C614 C 0.04366 0.54591 0.93006 0.0
C615 C 1.02235 0.54556 0.92815 0.0
H616 H 0.50168 0.95959 0.22074 0.0
H617 H 0.5473 0.94195 0.29578 0.0
H618 H 0.53135 1.00039 0.22279 0.0
H619 H 0.57684 0.9827 0.29853 0.0
H620 H 0.63323 0.05495 0.25962 0.0
H621 H 0.60378 1.0143 0.25242 0.0
H622 H 0.5502 0.03248 0.27498 0.0
H623 H 0.57977 0.07321 0.2814 0.0
C624 C 0.518 0.96443 0.23792 0.0
C625 C 0.52208 0.94745 0.25809 0.0
C626 C 0.53502 0.98785 0.2392 0.0
C627 C 0.55655 0.99495 0.2609 0.0
C628 C 0.56066 0.97791 0.28079 0.0
C629 C 0.54369 0.95448 0.27927 0.0
C630 C 0.61517 0.05026 0.26317 0.0
C631 C 0.60888 0.06735 0.27127 0.0
C632 C 0.59825 0.02691 0.25914 0.0
C633 C 0.57454 1.01998 0.26338 0.0
C634 C 0.56824 0.03714 0.27085 0.0
C635 C 0.5852 0.06054 0.2746 0.0
H636 H 0.47897 0.59611 0.77231 0.0
H637 H 0.40555 0.54705 0.77818 0.0
H638 H 0.48328 0.58659 0.852 0.0
H639 H 0.40993 0.53708 0.85732 0.0
H640 H 0.42638 0.56168 1.01388 0.0
H641 H 0.41703 0.55596 0.93153 0.0
H642 H 0.48217 0.55791 0.90468 0.0
H643 H 0.49167 0.56443 0.987 0.0
C644 C 0.46382 0.5831 0.7904 0.0
C645 C 0.44191 0.5726 0.76911 0.0
C646 C 0.46629 0.5774 0.83595 0.0
C647 C 0.44692 0.56095 0.86112 0.0
C648 C 0.42515 0.54995 0.83918 0.0
C649 C 0.42267 0.55572 0.79377 0.0
C650 C 0.43799 0.55943 0.99071 0.0
C651 C 0.45967 0.56339 1.00656 0.0
C652 C 0.4328 0.55644 0.9433 0.0
C653 C 0.44922 0.55722 0.91129 0.0
C654 C 0.46946 0.5579 0.92827 0.0
C655 C 0.47469 0.56111 0.97552 0.0
H656 H 0.84312 0.42512 0.31331 0.0
H657 H 0.91389 0.43847 0.31066 0.0
H658 H 0.84514 0.4331 0.2302 0.0
H659 H 0.91565 0.44563 0.22794 0.0
H660 H 0.92053 0.48141 0.09128 0.0
H661 H 0.9177 0.4731 0.1736 0.0
H662 H 0.84689 0.41835 0.15488 0.0
H663 H 0.84951 0.42724 0.07214 0.0
C664 C 0.8591 0.42975 0.29508 0.0
C665 C 0.87838 0.43129 0.3189 0.0
C666 C 0.8602 0.43412 0.24728 0.0
C667 C 0.88058 0.44005 0.22208 0.0
C668 C 0.89979 0.44153 0.24608 0.0
C669 C 0.89874 0.43731 0.29372 0.0
C670 C 0.90436 0.46747 0.10449 0.0
C671 C 0.88526 0.45497 0.07484 0.0
C672 C 0.90276 0.46262 0.15191 0.0
C673 C 0.88207 0.445 0.17122 0.0
C674 C 0.86301 0.43226 0.14148 0.0
C675 C 0.86458 0.4372 0.09388 0.0
H676 H 0.41128 0.89881 0.64275 0.0
H677 H 0.41137 0.83548 0.60765 0.0
H678 H 0.40883 0.90619 0.56066 0.0
H679 H 0.40878 0.84289 0.52552 0.0
H680 H 0.39658 0.85748 0.37925 0.0
H681 H 0.38548 0.8485 0.46083 0.0
H682 H 0.43984 0.91682 0.49974 0.0
H683 H 0.45108 0.92551 0.41862 0.0
C684 C 0.41022 0.88616 0.61767 0.0
C685 C 0.41179 0.86666 0.63185 0.0
C686 C 0.40888 0.89046 0.57059 0.0
C687 C 0.40875 0.87522 0.53658 0.0
C688 C 0.40865 0.85488 0.55088 0.0
C689 C 0.41027 0.8507 0.59798 0.0
C690 C 0.40545 0.87088 0.40509 0.0
C691 C 0.42455 0.8923 0.39267 0.0
C692 C 0.39931 0.86564 0.45182 0.0
C693 C 0.41188 0.8819 0.48675 0.0
C694 C 0.42966 0.90399 0.47371 0.0
C695 C 0.43608 0.90903 0.42723 0.0
H696 H 0.62816 0.43333 0.72748 0.0
H697 H 0.56595 0.43715 0.75352 0.0
H698 H 0.639 0.44161 0.80888 0.0
H699 H 0.57647 0.44485 0.83532 0.0
H700 H 0.61381 0.47967 0.97216 0.0
H701 H 0.60252 0.47236 0.89056 0.0
H702 H 0.62871 0.42428 0.88332 0.0
H703 H 0.64048 0.43203 0.96426 0.0
C704 C 0.61676 0.43595 0.75052 0.0
C705 C 0.59615 0.43454 0.73365 0.0
C706 C 0.62289 0.44051 0.7975 0.0
C707 C 0.60855 0.44373 0.82922 0.0
C708 C 0.58811 0.44271 0.81213 0.0
C709 C 0.58201 0.4382 0.76507 0.0
C710 C 0.61702 0.46741 0.95324 0.0
C711 C 0.62814 0.45651 0.97501 0.0
C712 C 0.61047 0.46316 0.90632 0.0
C713 C 0.61483 0.44784 0.8798 0.0
C714 C 0.62548 0.43657 0.90202 0.0
C715 C 0.63206 0.44086 0.94879 0.0
H716 H 0.17486 0.60833 0.10106 0.0
H717 H 0.23314 0.59597 0.10238 0.0
H718 H 0.17827 0.61397 0.18474 0.0
H719 H 0.23603 0.60079 0.18616 0.0
H720 H 0.2457 0.63022 0.33472 0.0
H721 H 0.24526 0.62675 0.25036 0.0
H722 H 0.17024 0.59023 0.25167 0.0
H723 H 0.17076 0.59436 0.33545 0.0
C724 C 0.18851 0.607 0.11912 0.0
C725 C 0.20361 0.60157 0.095 0.0
C726 C 0.19032 0.60997 0.16722 0.0
C727 C 0.20716 0.60739 0.19243 0.0
C728 C 0.22292 0.60299 0.16798 0.0
C729 C 0.22122 0.60019 0.11983 0.0
C730 C 0.22914 0.62113 0.31698 0.0
C731 C 0.20827 0.61264 0.3417 0.0
C732 C 0.22887 0.61919 0.26859 0.0
C733 C 0.20771 0.60857 0.24403 0.0
C734 C 0.18687 0.59912 0.2692 0.0
C735 C 0.18715 0.60124 0.31735 0.0
H736 H 0.58167 0.13771 0.64117 0.0
H737 H 0.62352 0.21208 0.62982 0.0
H738 H 0.58812 0.13365 0.55963 0.0
H739 H 0.62941 0.20809 0.5475 0.0
H740 H 0.65262 0.18999 0.40997 0.0
H741 H 0.64762 0.19574 0.4918 0.0
H742 H 0.57692 0.13939 0.48525 0.0
H743 H 0.5822 0.1332 0.40407 0.0
C744 C 0.59227 0.15325 0.62127 0.0
C745 C 0.60204 0.17524 0.64222 0.0
C746 C 0.5958 0.15093 0.5742 0.0
C747 C 0.60904 0.17054 0.54643 0.0
C748 C 0.61925 0.19255 0.56765 0.0
C749 C 0.61584 0.19486 0.61496 0.0
C750 C 0.63594 0.17895 0.42591 0.0
C751 C 0.61785 0.16104 0.40035 0.0
C752 C 0.63304 0.18229 0.47294 0.0
C753 C 0.61193 0.16788 0.49565 0.0
C754 C 0.59363 0.15049 0.4695 0.0
C755 C 0.59657 0.14706 0.42265 0.0
loop_
_geom_bond_atom_site_label_1
_geom_bond_atom_site_label_2
_geom_bond_distance
_geom_bond_site_symmetry_2
_ccdc_geom_bond_type
Cu0 N1 1.999 . S
Cu0 O6 1.974 . S
Cu0 N11 1.985 . S
Cu0 O20 1.959 . S
N1 Cu0 1.999 . S
N1 C3 1.263 . S
N1 C5 1.389 . S
N2 C3 1.358 . S
N2 C4 1.400 . S
C3 N1 1.263 . S
C3 N2 1.358 . S
C3 H9 0.930 . S
C4 N2 1.400 . S
C4 C5 1.351 . S
C4 H21 0.930 . S
C5 N1 1.389 . S
C5 C4 1.351 . S
C5 H10 0.930 . S
O6 Cu0 1.974 . S
O6 C16 1.282 . S
C7 O8 1.261 1_556 S
C7 O20 1.251 1_556 S
O8 C7 1.261 1_554 S
H9 C3 0.930 . S
H10 C5 0.930 . S
N11 Cu0 1.985 . S
N11 C13 1.335 . S
N11 C14 1.390 . S
N12 C13 1.345 . S
N12 C15 1.336 . S
C13 N11 1.335 . S
C13 N12 1.345 . S
C13 H18 0.930 . S
C14 N11 1.390 . S
C14 C15 1.346 . S
C14 H19 0.930 . S
C15 N12 1.336 . S
C15 C14 1.346 . S
C15 H22 0.929 . S
C16 O6 1.282 . S
C16 O17 1.216 . S
O17 C16 1.216 . S
H18 C13 0.930 . S
H19 C14 0.930 . S
O20 Cu0 1.959 . S
O20 C7 1.251 1_554 S
H21 C4 0.930 . S
H22 C15 0.929 . S
Cu23 N24 1.999 . S
Cu23 O29 1.974 . S
Cu23 N34 1.985 . S
Cu23 O43 1.959 . S
N24 Cu23 1.999 . S
N24 C26 1.263 . S
N24 C28 1.389 . S
N25 C26 1.358 . S
N25 C27 1.400 . S
C26 N24 1.263 . S
C26 N25 1.358 . S
C26 H32 0.930 . S
C27 N25 1.400 . S
C27 C28 1.351 . S
C27 H44 0.930 . S
C28 N24 1.389 . S
C28 C27 1.351 . S
C28 H33 0.930 . S
O29 Cu23 1.974 . S
O29 C39 1.282 . S
C30 O31 1.261 . S
C30 O43 1.251 . S
O31 C30 1.261 . S
H32 C26 0.930 . S
H33 C28 0.930 . S
N34 Cu23 1.985 . S
N34 C36 1.335 . S
N34 C37 1.390 . S
N35 C36 1.345 . S
N35 C38 1.336 . S
C36 N34 1.335 . S
C36 N35 1.345 . S
C36 H41 0.930 . S
C37 N34 1.390 . S
C37 C38 1.346 . S
C37 H42 0.930 . S
C38 N35 1.336 . S
C38 C37 1.346 . S
C38 H45 0.929 . S
C39 O29 1.282 . S
C39 O40 1.216 . S
O40 C39 1.216 . S
H41 C36 0.930 . S
H42 C37 0.930 . S
O43 Cu23 1.959 . S
O43 C30 1.251 . S
H44 C27 0.930 . S
H45 C38 0.929 . S
Cu46 N47 1.999 . S
Cu46 O52 1.974 . S
Cu46 N57 1.985 . S
Cu46 O66 1.959 . S
N47 Cu46 1.999 . S
N47 C49 1.263 . S
N47 C51 1.389 . S
N48 C49 1.358 . S
N48 C50 1.400 . S
C49 N47 1.263 . S
C49 N48 1.358 . S
C49 H55 0.930 . S
C50 N48 1.400 . S
C50 C51 1.351 . S
C50 H67 0.930 . S
C51 N47 1.389 . S
C51 C50 1.351 . S
C51 H56 0.930 . S
O52 Cu46 1.974 . S
O52 C62 1.282 . S
C53 O54 1.261 . S
C53 O66 1.251 . S
O54 C53 1.261 . S
H55 C49 0.930 . S
H56 C51 0.930 . S
N57 Cu46 1.985 . S
N57 C59 1.335 . S
N57 C60 1.390 . S
N58 C59 1.345 . S
N58 C61 1.336 . S
C59 N57 1.335 . S
C59 N58 1.345 . S
C59 H64 0.930 . S
C60 N57 1.390 . S
C60 C61 1.346 . S
C60 H65 0.930 . S
C61 N58 1.336 . S
C61 C60 1.346 . S
C61 H68 0.929 . S
C62 O52 1.282 . S
C62 O63 1.216 . S
O63 C62 1.216 . S
H64 C59 0.930 . S
H65 C60 0.930 . S
O66 Cu46 1.959 . S
O66 C53 1.251 . S
H67 C50 0.930 . S
H68 C61 0.929 . S
Cu69 N70 1.999 . S
Cu69 O75 1.974 . S
Cu69 N80 1.985 . S
Cu69 O89 1.959 . S
N70 Cu69 1.999 . S
N70 C72 1.263 . S
N70 C74 1.389 . S
N71 C72 1.358 . S
N71 C73 1.400 . S
C72 N70 1.263 . S
C72 N71 1.358 . S
C72 H78 0.930 . S
C73 N71 1.400 . S
C73 C74 1.351 . S
C73 H90 0.930 . S
C74 N70 1.389 . S
C74 C73 1.351 . S
C74 H79 0.930 . S
O75 Cu69 1.974 . S
O75 C85 1.282 . S
C76 O77 1.261 1_556 S
C76 O89 1.251 1_556 S
O77 C76 1.261 1_554 S
H78 C72 0.930 . S
H79 C74 0.930 . S
N80 Cu69 1.985 . S
N80 C82 1.335 . S
N80 C83 1.390 . S
N81 C82 1.345 . S
N81 C84 1.336 . S
C82 N80 1.335 . S
C82 N81 1.345 . S
C82 H87 0.930 . S
C83 N80 1.390 . S
C83 C84 1.346 . S
C83 H88 0.930 . S
C84 N81 1.336 . S
C84 C83 1.346 . S
C84 H91 0.929 . S
C85 O75 1.282 . S
C85 O86 1.216 . S
O86 C85 1.216 . S
H87 C82 0.930 . S
H88 C83 0.930 . S
O89 Cu69 1.959 . S
O89 C76 1.251 1_554 S
H90 C73 0.930 . S
H91 C84 0.929 . S
Cu92 N93 1.999 . S
Cu92 O98 1.974 . S
Cu92 N103 1.985 . S
Cu92 O112 1.959 . S
N93 Cu92 1.999 . S
N93 C95 1.263 . S
N93 C97 1.389 . S
N94 C95 1.358 . S
N94 C96 1.400 . S
C95 N93 1.263 . S
C95 N94 1.358 . S
C95 H101 0.930 . S
C96 N94 1.400 . S
C96 C97 1.351 . S
C96 H113 0.930 . S
C97 N93 1.389 . S
C97 C96 1.351 . S
C97 H102 0.930 . S
O98 Cu92 1.974 . S
O98 C108 1.282 . S
C99 O100 1.261 . S
C99 O112 1.251 . S
O100 C99 1.261 . S
H101 C95 0.930 . S
H102 C97 0.930 . S
N103 Cu92 1.985 . S
N103 C105 1.335 . S
N103 C106 1.390 . S
N104 C105 1.345 . S
N104 C107 1.336 . S
C105 N103 1.335 . S
C105 N104 1.345 . S
C105 H110 0.930 . S
C106 N103 1.390 . S
C106 C107 1.346 . S
C106 H111 0.930 . S
C107 N104 1.336 . S
C107 C106 1.346 . S
C107 H114 0.929 . S
C108 O98 1.282 . S
C108 O109 1.216 . S
O109 C108 1.216 . S
H110 C105 0.930 . S
H111 C106 0.930 . S
O112 Cu92 1.959 . S
O112 C99 1.251 . S
H113 C96 0.930 . S
H114 C107 0.929 . S
Cu115 N116 1.999 . S
Cu115 O121 1.974 . S
Cu115 N126 1.985 . S
Cu115 O135 1.959 . S
N116 Cu115 1.999 . S
N116 C118 1.263 . S
N116 C120 1.389 . S
N117 C118 1.358 . S
N117 C119 1.400 . S
C118 N116 1.263 . S
C118 N117 1.358 . S
C118 H124 0.930 . S
C119 N117 1.400 . S
C119 C120 1.351 . S
C119 H136 0.930 . S
C120 N116 1.389 . S
C120 C119 1.351 . S
C120 H125 0.930 . S
O121 Cu115 1.974 . S
O121 C131 1.282 . S
C122 O123 1.261 . S
C122 O135 1.251 . S
O123 C122 1.261 . S
H124 C118 0.930 . S
H125 C120 0.930 . S
N126 Cu115 1.985 . S
N126 C128 1.335 . S
N126 C129 1.390 . S
N127 C128 1.345 . S
N127 C130 1.336 . S
C128 N126 1.335 . S
C128 N127 1.345 . S
C128 H133 0.930 . S
C129 N126 1.390 . S
C129 C130 1.346 . S
C129 H134 0.930 . S
C130 N127 1.336 . S
C130 C129 1.346 . S
C130 H137 0.929 . S
C131 O121 1.282 . S
C131 O132 1.216 . S
O132 C131 1.216 . S
H133 C128 0.930 . S
H134 C129 0.930 . S
O135 Cu115 1.959 . S
O135 C122 1.251 . S
H136 C119 0.930 . S
H137 C130 0.929 . S
Cu138 N139 1.999 . S
Cu138 O144 1.974 . S
Cu138 N149 1.985 . S
Cu138 O158 1.959 . S
N139 Cu138 1.999 . S
N139 C141 1.263 . S
N139 C143 1.389 . S
N140 C141 1.358 . S
N140 C142 1.400 . S
C141 N139 1.263 . S
C141 N140 1.358 . S
C141 H147 0.930 . S
C142 N140 1.400 . S
C142 C143 1.351 . S
C142 H159 0.930 . S
C143 N139 1.389 . S
C143 C142 1.351 . S
C143 H148 0.930 . S
O144 Cu138 1.974 . S
O144 C154 1.282 . S
C145 O146 1.261 . S
C145 O158 1.251 . S
O146 C145 1.261 . S
H147 C141 0.930 . S
H148 C143 0.930 . S
N149 Cu138 1.985 . S
N149 C151 1.335 . S
N149 C152 1.390 . S
N150 C151 1.345 . S
N150 C153 1.336 . S
C151 N149 1.335 . S
C151 N150 1.345 . S
C151 H156 0.930 . S
C152 N149 1.390 . S
C152 C153 1.346 . S
C152 H157 0.930 . S
C153 N150 1.336 . S
C153 C152 1.346 . S
C153 H160 0.929 . S
C154 O144 1.282 . S
C154 O155 1.216 . S
O155 C154 1.216 . S
H156 C151 0.930 . S
H157 C152 0.930 . S
O158 Cu138 1.959 . S
O158 C145 1.251 . S
H159 C142 0.930 . S
H160 C153 0.929 . S
Cu161 N162 1.999 . S
Cu161 O167 1.974 . S
Cu161 N172 1.985 . S
Cu161 O181 1.959 . S
N162 Cu161 1.999 . S
N162 C164 1.263 . S
N162 C166 1.389 . S
N163 C164 1.358 . S
N163 C165 1.400 . S
C164 N162 1.263 . S
C164 N163 1.358 . S
C164 H170 0.930 . S
C165 N163 1.400 . S
C165 C166 1.351 . S
C165 H182 0.930 . S
C166 N162 1.389 . S
C166 C165 1.351 . S
C166 H171 0.930 . S
O167 Cu161 1.974 . S
O167 C177 1.282 . S
C168 O169 1.261 1_554 S
C168 O181 1.251 1_554 S
O169 C168 1.261 1_556 S
H170 C164 0.930 . S
H171 C166 0.930 . S
N172 Cu161 1.985 . S
N172 C174 1.335 . S
N172 C175 1.390 . S
N173 C174 1.345 . S
N173 C176 1.336 . S
C174 N172 1.335 . S
C174 N173 1.345 . S
C174 H179 0.930 . S
C175 N172 1.390 . S
C175 C176 1.346 . S
C175 H180 0.930 . S
C176 N173 1.336 . S
C176 C175 1.346 . S
C176 H183 0.929 . S
C177 O167 1.282 . S
C177 O178 1.216 . S
O178 C177 1.216 . S
H179 C174 0.930 . S
H180 C175 0.930 . S
O181 Cu161 1.959 . S
O181 C168 1.251 1_556 S
H182 C165 0.930 . S
H183 C176 0.929 . S
Cu184 N185 1.999 . S
Cu184 O190 1.974 . S
Cu184 N195 1.985 . S
Cu184 O204 1.959 . S
N185 Cu184 1.999 . S
N185 C187 1.263 . S
N185 C189 1.389 . S
N186 C187 1.358 . S
N186 C188 1.400 . S
C187 N185 1.263 . S
C187 N186 1.358 . S
C187 H193 0.930 . S
C188 N186 1.400 . S
C188 C189 1.351 . S
C188 H205 0.930 . S
C189 N185 1.389 . S
C189 C188 1.351 . S
C189 H194 0.930 . S
O190 Cu184 1.974 . S
O190 C200 1.282 . S
C191 O192 1.261 . S
C191 O204 1.251 . S
O192 C191 1.261 . S
H193 C187 0.930 . S
H194 C189 0.930 . S
N195 Cu184 1.985 . S
N195 C197 1.335 . S
N195 C198 1.390 . S
N196 C197 1.345 . S
N196 C199 1.336 . S
C197 N195 1.335 . S
C197 N196 1.345 . S
C197 H202 0.930 . S
C198 N195 1.390 . S
C198 C199 1.346 . S
C198 H203 0.930 . S
C199 N196 1.336 . S
C199 C198 1.346 . S
C199 H206 0.929 . S
C200 O190 1.282 . S
C200 O201 1.216 . S
O201 C200 1.216 . S
H202 C197 0.930 . S
H203 C198 0.930 . S
O204 Cu184 1.959 . S
O204 C191 1.251 . S
H205 C188 0.930 . S
H206 C199 0.929 . S
Cu207 N208 1.999 . S
Cu207 O213 1.974 . S
Cu207 N218 1.985 . S
Cu207 O227 1.959 . S
N208 Cu207 1.999 . S
N208 C210 1.263 . S
N208 C212 1.389 . S
N209 C210 1.358 . S
N209 C211 1.400 . S
C210 N208 1.263 . S
C210 N209 1.358 . S
C210 H216 0.930 . S
C211 N209 1.400 . S
C211 C212 1.351 . S
C211 H228 0.930 . S
C212 N208 1.389 . S
C212 C211 1.351 . S
C212 H217 0.930 . S
O213 Cu207 1.974 . S
O213 C223 1.282 . S
C214 O215 1.261 . S
C214 O227 1.251 . S
O215 C214 1.261 . S
H216 C210 0.930 . S
H217 C212 0.930 . S
N218 Cu207 1.985 . S
N218 C220 1.335 . S
N218 C221 1.390 . S
N219 C220 1.345 . S
N219 C222 1.336 . S
C220 N218 1.335 . S
C220 N219 1.345 . S
C220 H225 0.930 . S
C221 N218 1.390 . S
C221 C222 1.346 . S
C221 H226 0.930 . S
C222 N219 1.336 . S
C222 C221 1.346 . S
C222 H229 0.929 . S
C223 O213 1.282 . S
C223 O224 1.216 . S
O224 C223 1.216 . S
H225 C220 0.930 . S
H226 C221 0.930 . S
O227 Cu207 1.959 . S
O227 C214 1.251 . S
H228 C211 0.930 . S
H229 C222 0.929 . S
Cu230 N231 1.999 . S
Cu230 O236 1.974 . S
Cu230 N241 1.985 . S
Cu230 O250 1.959 . S
N231 Cu230 1.999 . S
N231 C233 1.263 . S
N231 C235 1.389 . S
N232 C233 1.358 . S
N232 C234 1.400 . S
C233 N231 1.263 . S
C233 N232 1.358 . S
C233 H239 0.930 . S
C234 N232 1.400 . S
C234 C235 1.351 . S
C234 H251 0.930 . S
C235 N231 1.389 . S
C235 C234 1.351 . S
C235 H240 0.930 . S
O236 Cu230 1.974 . S
O236 C246 1.282 . S
C237 O238 1.261 1_554 S
C237 O250 1.251 1_554 S
O238 C237 1.261 1_556 S
H239 C233 0.930 . S
H240 C235 0.930 . S
N241 Cu230 1.985 . S
N241 C243 1.335 . S
N241 C244 1.390 . S
N242 C243 1.345 . S
N242 C245 1.336 . S
C243 N241 1.335 . S
C243 N242 1.345 . S
C243 H248 0.930 . S
C244 N241 1.390 . S
C244 C245 1.346 . S
C244 H249 0.930 . S
C245 N242 1.336 . S
C245 C244 1.346 . S
C245 H252 0.929 . S
C246 O236 1.282 . S
C246 O247 1.216 . S
O247 C246 1.216 . S
H248 C243 0.930 . S
H249 C244 0.930 . S
O250 Cu230 1.959 . S
O250 C237 1.251 1_556 S
H251 C234 0.930 . S
H252 C245 0.929 . S
Cu253 N254 1.999 . S
Cu253 O259 1.974 . S
Cu253 N264 1.985 . S
Cu253 O273 1.959 . S
N254 Cu253 1.999 . S
N254 C256 1.263 . S
N254 C258 1.389 . S
N255 C256 1.358 . S
N255 C257 1.400 . S
C256 N254 1.263 . S
C256 N255 1.358 . S
C256 H262 0.930 . S
C257 N255 1.400 . S
C257 C258 1.351 . S
C257 H274 0.930 . S
C258 N254 1.389 . S
C258 C257 1.351 . S
C258 H263 0.930 . S
O259 Cu253 1.974 . S
O259 C269 1.282 . S
C260 O261 1.261 . S
C260 O273 1.251 . S
O261 C260 1.261 . S
H262 C256 0.930 . S
H263 C258 0.930 . S
N264 Cu253 1.985 . S
N264 C266 1.335 . S
N264 C267 1.390 . S
N265 C266 1.345 . S
N265 C268 1.336 . S
C266 N264 1.335 . S
C266 N265 1.345 . S
C266 H271 0.930 . S
C267 N264 1.390 . S
C267 C268 1.346 . S
C267 H272 0.930 . S
C268 N265 1.336 . S
C268 C267 1.346 . S
C268 H275 0.929 . S
C269 O259 1.282 . S
C269 O270 1.216 . S
O270 C269 1.216 . S
H271 C266 0.930 . S
H272 C267 0.930 . S
O273 Cu253 1.959 . S
O273 C260 1.251 . S
H274 C257 0.930 . S
H275 C268 0.929 . S
H276 C284 0.950 . S
H277 C289 0.950 . S
H278 C286 0.950 . S
H279 C288 0.950 . S
H280 C290 0.950 . S
H281 C292 0.950 . S
H282 C294 0.950 . S
H283 C295 0.950 . S
C284 H276 0.950 . S
C284 C285 1.386 . S
C284 C286 1.391 . S
C285 C284 1.386 . S
C285 C289 1.393 . S
C286 H278 0.950 . S
C286 C284 1.391 . S
C286 C287 1.400 . S
C287 C286 1.400 . S
C287 C288 1.398 . S
C287 C293 1.491 . S
C288 H279 0.950 . S
C288 C287 1.398 . S
C288 C289 1.391 . S
C289 H277 0.950 . S
C289 C285 1.393 . S
C289 C288 1.391 . S
C290 H280 0.950 . S
C290 C291 1.386 . S
C290 C292 1.391 . S
C291 C290 1.386 . S
C291 C295 1.393 . S
C292 H281 0.950 . S
C292 C290 1.391 . S
C292 C293 1.400 . S
C293 C287 1.491 . S
C293 C292 1.400 . S
C293 C294 1.398 . S
C294 H282 0.950 . S
C294 C293 1.398 . S
C294 C295 1.391 . S
C295 H283 0.950 . S
C295 C291 1.393 . S
C295 C294 1.391 . S
H296 C304 0.950 . S
H297 C309 0.950 . S
H298 C306 0.950 . S
H299 C308 0.950 . S
H300 C310 0.950 . S
H301 C312 0.950 . S
H302 C314 0.950 . S
H303 C315 0.950 . S
C304 H296 0.950 . S
C304 C305 1.386 . S
C304 C306 1.391 . S
C305 C304 1.386 . S
C305 C309 1.393 . S
C306 H298 0.950 . S
C306 C304 1.391 . S
C306 C307 1.400 . S
C307 C306 1.400 . S
C307 C308 1.398 . S
C307 C313 1.491 . S
C308 H299 0.950 . S
C308 C307 1.398 . S
C308 C309 1.391 . S
C309 H297 0.950 . S
C309 C305 1.393 . S
C309 C308 1.391 . S
C310 H300 0.950 . S
C310 C311 1.386 . S
C310 C312 1.391 . S
C311 C310 1.386 . S
C311 C315 1.393 . S
C312 H301 0.950 . S
C312 C310 1.391 . S
C312 C313 1.400 . S
C313 C307 1.491 . S
C313 C312 1.400 . S
C313 C314 1.398 . S
C314 H302 0.950 . S
C314 C313 1.398 . S
C314 C315 1.391 . S
C315 H303 0.950 . S
C315 C311 1.393 . S
C315 C314 1.391 . S
H316 C324 0.950 . S
H317 C329 0.950 . S
H318 C326 0.950 . S
H319 C328 0.950 . S
H320 C330 0.950 . S
H321 C332 0.950 . S
H322 C334 0.950 . S
H323 C335 0.950 . S
C324 H316 0.950 . S
C324 C325 1.386 . S
C324 C326 1.391 . S
C325 C324 1.386 . S
C325 C329 1.393 . S
C326 H318 0.950 . S
C326 C324 1.391 . S
C326 C327 1.400 . S
C327 C326 1.400 . S
C327 C328 1.398 . S
C327 C333 1.491 1_556 S
C328 H319 0.950 . S
C328 C327 1.398 . S
C328 C329 1.391 . S
C329 H317 0.950 . S
C329 C325 1.393 . S
C329 C328 1.391 . S
C330 H320 0.950 . S
C330 C331 1.386 . S
C330 C332 1.391 . S
C331 C330 1.386 . S
C331 C335 1.393 . S
C332 H321 0.950 . S
C332 C330 1.391 . S
C332 C333 1.400 . S
C333 C327 1.491 1_554 S
C333 C332 1.400 . S
C333 C334 1.398 . S
C334 H322 0.950 . S
C334 C333 1.398 . S
C334 C335 1.391 . S
C335 H323 0.950 . S
C335 C331 1.393 . S
C335 C334 1.391 . S
H336 C344 0.950 . S
H337 C349 0.950 . S
H338 C346 0.950 . S
H339 C348 0.950 . S
H340 C350 0.950 . S
H341 C352 0.950 . S
H342 C354 0.950 . S
H343 C355 0.950 . S
C344 H336 0.950 . S
C344 C345 1.386 . S
C344 C346 1.391 . S
C345 C344 1.386 . S
C345 C349 1.393 . S
C346 H338 0.950 . S
C346 C344 1.391 . S
C346 C347 1.400 . S
C347 C346 1.400 . S
C347 C348 1.398 . S
C347 C353 1.491 . S
C348 H339 0.950 . S
C348 C347 1.398 . S
C348 C349 1.391 . S
C349 H337 0.950 . S
C349 C345 1.393 . S
C349 C348 1.391 . S
C350 H340 0.950 . S
C350 C351 1.386 . S
C350 C352 1.391 . S
C351 C350 1.386 . S
C351 C355 1.393 . S
C352 H341 0.950 . S
C352 C350 1.391 . S
C352 C353 1.400 . S
C353 C347 1.491 . S
C353 C352 1.400 . S
C353 C354 1.398 . S
C354 H342 0.950 . S
C354 C353 1.398 . S
C354 C355 1.391 . S
C355 H343 0.950 . S
C355 C351 1.393 . S
C355 C354 1.391 . S
H356 C364 0.950 . S
H357 C369 0.950 . S
H358 C366 0.950 . S
H359 C368 0.950 . S
H360 C370 0.950 . S
H361 C372 0.950 . S
H362 C374 0.950 . S
H363 C375 0.950 . S
C364 H356 0.950 . S
C364 C365 1.386 . S
C364 C366 1.391 . S
C365 C364 1.386 . S
C365 C369 1.393 . S
C366 H358 0.950 . S
C366 C364 1.391 . S
C366 C367 1.400 . S
C367 C366 1.400 . S
C367 C368 1.398 . S
C367 C373 1.491 . S
C368 H359 0.950 . S
C368 C367 1.398 . S
C368 C369 1.391 . S
C369 H357 0.950 . S
C369 C365 1.393 . S
C369 C368 1.391 . S
C370 H360 0.950 . S
C370 C371 1.386 . S
C370 C372 1.391 . S
C371 C370 1.386 . S
C371 C375 1.393 . S
C372 H361 0.950 . S
C372 C370 1.391 . S
C372 C373 1.400 . S
C373 C367 1.491 . S
C373 C372 1.400 . S
C373 C374 1.398 . S
C374 H362 0.950 . S
C374 C373 1.398 . S
C374 C375 1.391 . S
C375 H363 0.950 . S
C375 C371 1.393 . S
C375 C374 1.391 . S
H376 C384 0.950 . S
H377 C389 0.950 . S
H378 C386 0.950 . S
H379 C388 0.950 . S
H380 C390 0.950 . S
H381 C392 0.950 . S
H382 C394 0.950 . S
H383 C395 0.950 . S
C384 H376 0.950 . S
C384 C385 1.386 . S
C384 C386 1.391 . S
C385 C384 1.386 . S
C385 C389 1.393 . S
C386 H378 0.950 . S
C386 C384 1.391 . S
C386 C387 1.400 . S
C387 C386 1.400 . S
C387 C388 1.398 . S
C387 C393 1.491 1_554 S
C388 H379 0.950 . S
C388 C387 1.398 . S
C388 C389 1.391 . S
C389 H377 0.950 . S
C389 C385 1.393 . S
C389 C388 1.391 . S
C390 H380 0.950 . S
C390 C391 1.386 . S
C390 C392 1.391 . S
C391 C390 1.386 . S
C391 C395 1.393 . S
C392 H381 0.950 . S
C392 C390 1.391 . S
C392 C393 1.400 . S
C393 C387 1.491 1_556 S
C393 C392 1.400 . S
C393 C394 1.398 . S
C394 H382 0.950 . S
C394 C393 1.398 . S
C394 C395 1.391 . S
C395 H383 0.950 . S
C395 C391 1.393 . S
C395 C394 1.391 . S
H396 C404 0.950 . S
H397 C409 0.950 . S
H398 C406 0.950 . S
H399 C408 0.950 . S
H400 C410 0.950 . S
H401 C412 0.950 . S
H402 C414 0.950 . S
H403 C415 0.950 . S
C404 H396 0.950 . S
C404 C405 1.386 1_556 S
C404 C406 1.391 . S
C405 C404 1.386 1_554 S
C405 C409 1.393 . S
C406 H398 0.950 . S
C406 C404 1.391 . S
C406 C407 1.400 1_556 S
C407 C406 1.400 1_554 S
C407 C408 1.398 . S
C407 C413 1.491 1_554 S
C408 H399 0.950 . S
C408 C407 1.398 . S
C408 C409 1.391 . S
C409 H397 0.950 . S
C409 C405 1.393 . S
C409 C408 1.391 . S
C410 H400 0.950 . S
C410 C411 1.386 1_554 S
C410 C412 1.391 . S
C411 C410 1.386 1_556 S
C411 C415 1.393 . S
C412 H401 0.950 . S
C412 C410 1.391 . S
C412 C413 1.400 1_554 S
C413 C407 1.491 1_556 S
C413 C412 1.400 1_556 S
C413 C414 1.398 . S
C414 H402 0.950 . S
C414 C413 1.398 . S
C414 C415 1.391 . S
C415 H403 0.950 . S
C415 C411 1.393 . S
C415 C414 1.391 . S
H416 C424 0.950 . S
H417 C429 0.950 . S
H418 C426 0.950 . S
H419 C428 0.950 . S
H420 C430 0.950 . S
H421 C432 0.950 . S
H422 C434 0.950 . S
H423 C435 0.950 . S
C424 H416 0.950 . S
C424 C425 1.386 . S
C424 C426 1.391 . S
C425 C424 1.386 . S
C425 C429 1.393 . S
C426 H418 0.950 . S
C426 C424 1.391 . S
C426 C427 1.400 . S
C427 C426 1.400 . S
C427 C428 1.398 . S
C427 C433 1.491 . S
C428 H419 0.950 . S
C428 C427 1.398 . S
C428 C429 1.391 . S
C429 H417 0.950 . S
C429 C425 1.393 . S
C429 C428 1.391 . S
C430 H420 0.950 . S
C430 C431 1.386 . S
C430 C432 1.391 . S
C431 C430 1.386 . S
C431 C435 1.393 . S
C432 H421 0.950 . S
C432 C430 1.391 . S
C432 C433 1.400 . S
C433 C427 1.491 . S
C433 C432 1.400 . S
C433 C434 1.398 . S
C434 H422 0.950 . S
C434 C433 1.398 . S
C434 C435 1.391 . S
C435 H423 0.950 . S
C435 C431 1.393 . S
C435 C434 1.391 . S
H436 C444 0.950 . S
H437 C449 0.950 . S
H438 C446 0.950 . S
H439 C448 0.950 . S
H440 C450 0.950 . S
H441 C452 0.950 . S
H442 C454 0.950 . S
H443 C455 0.950 . S
C444 H436 0.950 . S
C444 C445 1.386 . S
C444 C446 1.391 . S
C445 C444 1.386 . S
C445 C449 1.393 . S
C446 H438 0.950 . S
C446 C444 1.391 . S
C446 C447 1.400 . S
C447 C446 1.400 . S
C447 C448 1.398 . S
C447 C453 1.491 . S
C448 H439 0.950 . S
C448 C447 1.398 . S
C448 C449 1.391 . S
C449 H437 0.950 . S
C449 C445 1.393 . S
C449 C448 1.391 . S
C450 H440 0.950 . S
C450 C451 1.386 . S
C450 C452 1.391 . S
C451 C450 1.386 . S
C451 C455 1.393 . S
C452 H441 0.950 . S
C452 C450 1.391 . S
C452 C453 1.400 . S
C453 C447 1.491 . S
C453 C452 1.400 . S
C453 C454 1.398 . S
C454 H442 0.950 . S
C454 C453 1.398 . S
C454 C455 1.391 . S
C455 H443 0.950 . S
C455 C451 1.393 . S
C455 C454 1.391 . S
H456 C464 0.950 . S
H457 C469 0.950 . S
H458 C466 0.950 . S
H459 C468 0.950 . S
H460 C470 0.950 . S
H461 C472 0.950 . S
H462 C474 0.950 . S
H463 C475 0.950 . S
C464 H456 0.950 . S
C464 C465 1.386 . S
C464 C466 1.391 . S
C465 C464 1.386 . S
C465 C469 1.393 1_554 S
C466 H458 0.950 . S
C466 C464 1.391 . S
C466 C467 1.400 . S
C467 C466 1.400 . S
C467 C468 1.398 1_554 S
C467 C473 1.491 1_554 S
C468 H459 0.950 . S
C468 C467 1.398 1_556 S
C468 C469 1.391 . S
C469 H457 0.950 . S
C469 C465 1.393 1_556 S
C469 C468 1.391 . S
C470 H460 0.950 . S
C470 C471 1.386 . S
C470 C472 1.391 . S
C471 C470 1.386 . S
C471 C475 1.393 1_556 S
C472 H461 0.950 . S
C472 C470 1.391 . S
C472 C473 1.400 . S
C473 C467 1.491 1_556 S
C473 C472 1.400 . S
C473 C474 1.398 1_556 S
C474 H462 0.950 . S
C474 C473 1.398 1_554 S
C474 C475 1.391 . S
C475 H463 0.950 . S
C475 C471 1.393 1_554 S
C475 C474 1.391 . S
H476 C484 0.950 . S
H477 C489 0.950 . S
H478 C486 0.950 . S
H479 C488 0.950 . S
H480 C490 0.950 . S
H481 C492 0.950 . S
H482 C494 0.950 . S
H483 C495 0.950 . S
C484 H476 0.950 . S
C484 C485 1.386 . S
C484 C486 1.391 . S
C485 C484 1.386 . S
C485 C489 1.393 . S
C486 H478 0.950 . S
C486 C484 1.391 . S
C486 C487 1.400 . S
C487 C486 1.400 . S
C487 C488 1.398 . S
C487 C493 1.491 . S
C488 H479 0.950 . S
C488 C487 1.398 . S
C488 C489 1.391 . S
C489 H477 0.950 . S
C489 C485 1.393 . S
C489 C488 1.391 . S
C490 H480 0.950 . S
C490 C491 1.386 . S
C490 C492 1.391 . S
C491 C490 1.386 . S
C491 C495 1.393 . S
C492 H481 0.950 . S
C492 C490 1.391 . S
C492 C493 1.400 . S
C493 C487 1.491 . S
C493 C492 1.400 . S
C493 C494 1.398 . S
C494 H482 0.950 . S
C494 C493 1.398 . S
C494 C495 1.391 . S
C495 H483 0.950 . S
C495 C491 1.393 . S
C495 C494 1.391 . S
H496 C504 0.950 . S
H497 C509 0.950 . S
H498 C506 0.950 . S
H499 C508 0.950 . S
H500 C510 0.950 . S
H501 C512 0.950 . S
H502 C514 0.950 . S
H503 C515 0.950 . S
C504 H496 0.950 . S
C504 C505 1.386 . S
C504 C506 1.391 . S
C505 C504 1.386 . S
C505 C509 1.393 . S
C506 H498 0.950 . S
C506 C504 1.391 . S
C506 C507 1.400 . S
C507 C506 1.400 . S
C507 C508 1.398 . S
C507 C513 1.491 . S
C508 H499 0.950 . S
C508 C507 1.398 . S
C508 C509 1.391 . S
C509 H497 0.950 . S
C509 C505 1.393 . S
C509 C508 1.391 . S
C510 H500 0.950 . S
C510 C511 1.386 . S
C510 C512 1.391 . S
C511 C510 1.386 . S
C511 C515 1.393 . S
C512 H501 0.950 . S
C512 C510 1.391 . S
C512 C513 1.400 . S
C513 C507 1.491 . S
C513 C512 1.400 . S
C513 C514 1.398 . S
C514 H502 0.950 . S
C514 C513 1.398 . S
C514 C515 1.391 . S
C515 H503 0.950 . S
C515 C511 1.393 . S
C515 C514 1.391 . S
H516 C524 0.950 . S
H517 C529 0.950 . S
H518 C526 0.950 . S
H519 C528 0.950 . S
H520 C530 0.950 . S
H521 C532 0.950 . S
H522 C534 0.950 . S
H523 C535 0.950 . S
C524 H516 0.950 . S
C524 C525 1.386 . S
C524 C526 1.391 . S
C525 C524 1.386 . S
C525 C529 1.393 . S
C526 H518 0.950 . S
C526 C524 1.391 . S
C526 C527 1.400 . S
C527 C526 1.400 . S
C527 C528 1.398 . S
C527 C533 1.491 . S
C528 H519 0.950 . S
C528 C527 1.398 . S
C528 C529 1.391 . S
C529 H517 0.950 . S
C529 C525 1.393 . S
C529 C528 1.391 . S
C530 H520 0.950 . S
C530 C531 1.386 . S
C530 C532 1.391 . S
C531 C530 1.386 . S
C531 C535 1.393 . S
C532 H521 0.950 . S
C532 C530 1.391 . S
C532 C533 1.400 . S
C533 C527 1.491 . S
C533 C532 1.400 . S
C533 C534 1.398 . S
C534 H522 0.950 . S
C534 C533 1.398 . S
C534 C535 1.391 . S
C535 H523 0.950 . S
C535 C531 1.393 . S
C535 C534 1.391 . S
H536 C544 0.950 . S
H537 C549 0.950 . S
H538 C546 0.950 . S
H539 C548 0.950 . S
H540 C550 0.950 . S
H541 C552 0.950 . S
H542 C554 0.950 . S
H543 C555 0.950 . S
C544 H536 0.950 . S
C544 C545 1.386 . S
C544 C546 1.391 . S
C545 C544 1.386 . S
C545 C549 1.393 . S
C546 H538 0.950 . S
C546 C544 1.391 . S
C546 C547 1.400 . S
C547 C546 1.400 . S
C547 C548 1.398 . S
C547 C553 1.491 1_655 S
C548 H539 0.950 . S
C548 C547 1.398 . S
C548 C549 1.391 . S
C549 H537 0.950 . S
C549 C545 1.393 . S
C549 C548 1.391 . S
C550 H540 0.950 . S
C550 C551 1.386 . S
C550 C552 1.391 . S
C551 C550 1.386 . S
C551 C555 1.393 . S
C552 H541 0.950 . S
C552 C550 1.391 . S
C552 C553 1.400 . S
C553 C547 1.491 1_455 S
C553 C552 1.400 . S
C553 C554 1.398 . S
C554 H542 0.950 . S
C554 C553 1.398 . S
C554 C555 1.391 . S
C555 H543 0.950 . S
C555 C551 1.393 . S
C555 C554 1.391 . S
H556 C564 0.950 . S
H557 C569 0.950 . S
H558 C566 0.950 . S
H559 C568 0.950 . S
H560 C570 0.950 . S
H561 C572 0.950 . S
H562 C574 0.950 . S
H563 C575 0.950 . S
C564 H556 0.950 . S
C564 C565 1.386 . S
C564 C566 1.391 . S
C565 C564 1.386 . S
C565 C569 1.393 . S
C566 H558 0.950 . S
C566 C564 1.391 . S
C566 C567 1.400 . S
C567 C566 1.400 . S
C567 C568 1.398 . S
C567 C573 1.491 1_545 S
C568 H559 0.950 . S
C568 C567 1.398 . S
C568 C569 1.391 . S
C569 H557 0.950 . S
C569 C565 1.393 . S
C569 C568 1.391 . S
C570 H560 0.950 . S
C570 C571 1.386 . S
C570 C572 1.391 . S
C571 C570 1.386 . S
C571 C575 1.393 . S
C572 H561 0.950 . S
C572 C570 1.391 . S
C572 C573 1.400 . S
C573 C567 1.491 1_565 S
C573 C572 1.400 . S
C573 C574 1.398 . S
C574 H562 0.950 . S
C574 C573 1.398 . S
C574 C575 1.391 . S
C575 H563 0.950 . S
C575 C571 1.393 . S
C575 C574 1.391 . S
H576 C584 0.950 . S
H577 C589 0.950 . S
H578 C586 0.950 . S
H579 C588 0.950 . S
H580 C590 0.950 . S
H581 C592 0.950 . S
H582 C594 0.950 . S
H583 C595 0.950 . S
C584 H576 0.950 . S
C584 C585 1.386 . S
C584 C586 1.391 . S
C585 C584 1.386 . S
C585 C589 1.393 . S
C586 H578 0.950 . S
C586 C584 1.391 . S
C586 C587 1.400 . S
C587 C586 1.400 . S
C587 C588 1.398 . S
C587 C593 1.491 . S
C588 H579 0.950 . S
C588 C587 1.398 . S
C588 C589 1.391 . S
C589 H577 0.950 . S
C589 C585 1.393 . S
C589 C588 1.391 . S
C590 H580 0.950 . S
C590 C591 1.386 . S
C590 C592 1.391 . S
C591 C590 1.386 . S
C591 C595 1.393 . S
C592 H581 0.950 . S
C592 C590 1.391 . S
C592 C593 1.400 . S
C593 C587 1.491 . S
C593 C592 1.400 . S
C593 C594 1.398 . S
C594 H582 0.950 . S
C594 C593 1.398 . S
C594 C595 1.391 . S
C595 H583 0.950 . S
C595 C591 1.393 . S
C595 C594 1.391 . S
H596 C604 0.950 . S
H597 C609 0.950 . S
H598 C606 0.950 . S
H599 C608 0.950 . S
H600 C610 0.950 . S
H601 C612 0.950 . S
H602 C614 0.950 . S
H603 C615 0.950 . S
C604 H596 0.950 . S
C604 C605 1.386 . S
C604 C606 1.391 . S
C605 C604 1.386 . S
C605 C609 1.393 . S
C606 H598 0.950 . S
C606 C604 1.391 . S
C606 C607 1.400 . S
C607 C606 1.400 . S
C607 C608 1.398 . S
C607 C613 1.491 1_455 S
C608 H599 0.950 . S
C608 C607 1.398 . S
C608 C609 1.391 . S
C609 H597 0.950 . S
C609 C605 1.393 . S
C609 C608 1.391 . S
C610 H600 0.950 . S
C610 C611 1.386 . S
C610 C612 1.391 . S
C611 C610 1.386 . S
C611 C615 1.393 . S
C612 H601 0.950 . S
C612 C610 1.391 . S
C612 C613 1.400 . S
C613 C607 1.491 1_655 S
C613 C612 1.400 . S
C613 C614 1.398 . S
C614 H602 0.950 . S
C614 C613 1.398 . S
C614 C615 1.391 . S
C615 H603 0.950 . S
C615 C611 1.393 . S
C615 C614 1.391 . S
H616 C624 0.950 . S
H617 C629 0.950 . S
H618 C626 0.950 . S
H619 C628 0.950 . S
H620 C630 0.950 . S
H621 C632 0.950 . S
H622 C634 0.950 . S
H623 C635 0.950 . S
C624 H616 0.950 . S
C624 C625 1.386 . S
C624 C626 1.391 . S
C625 C624 1.386 . S
C625 C629 1.393 . S
C626 H618 0.950 . S
C626 C624 1.391 . S
C626 C627 1.400 . S
C627 C626 1.400 . S
C627 C628 1.398 . S
C627 C633 1.491 1_565 S
C628 H619 0.950 . S
C628 C627 1.398 . S
C628 C629 1.391 . S
C629 H617 0.950 . S
C629 C625 1.393 . S
C629 C628 1.391 . S
C630 H620 0.950 . S
C630 C631 1.386 . S
C630 C632 1.391 . S
C631 C630 1.386 . S
C631 C635 1.393 . S
C632 H621 0.950 . S
C632 C630 1.391 . S
C632 C633 1.400 . S
C633 C627 1.491 1_545 S
C633 C632 1.400 . S
C633 C634 1.398 . S
C634 H622 0.950 . S
C634 C633 1.398 . S
C634 C635 1.391 . S
C635 H623 0.950 . S
C635 C631 1.393 . S
C635 C634 1.391 . S
H636 C644 0.950 . S
H637 C649 0.950 . S
H638 C646 0.950 . S
H639 C648 0.950 . S
H640 C650 0.950 . S
H641 C652 0.950 . S
H642 C654 0.950 . S
H643 C655 0.950 . S
C644 H636 0.950 . S
C644 C645 1.386 . S
C644 C646 1.391 . S
C645 C644 1.386 . S
C645 C649 1.393 . S
C646 H638 0.950 . S
C646 C644 1.391 . S
C646 C647 1.400 . S
C647 C646 1.400 . S
C647 C648 1.398 . S
C647 C653 1.491 . S
C648 H639 0.950 . S
C648 C647 1.398 . S
C648 C649 1.391 . S
C649 H637 0.950 . S
C649 C645 1.393 . S
C649 C648 1.391 . S
C650 H640 0.950 . S
C650 C651 1.386 . S
C650 C652 1.391 . S
C651 C650 1.386 . S
C651 C655 1.393 . S
C652 H641 0.950 . S
C652 C650 1.391 . S
C652 C653 1.400 . S
C653 C647 1.491 . S
C653 C652 1.400 . S
C653 C654 1.398 . S
C654 H642 0.950 . S
C654 C653 1.398 . S
C654 C655 1.391 . S
C655 H643 0.950 . S
C655 C651 1.393 . S
C655 C654 1.391 . S
H656 C664 0.950 . S
H657 C669 0.950 . S
H658 C666 0.950 . S
H659 C668 0.950 . S
H660 C670 0.950 . S
H661 C672 0.950 . S
H662 C674 0.950 . S
H663 C675 0.950 . S
C664 H656 0.950 . S
C664 C665 1.386 . S
C664 C666 1.391 . S
C665 C664 1.386 . S
C665 C669 1.393 . S
C666 H658 0.950 . S
C666 C664 1.391 . S
C666 C667 1.400 . S
C667 C666 1.400 . S
C667 C668 1.398 . S
C667 C673 1.491 . S
C668 H659 0.950 . S
C668 C667 1.398 . S
C668 C669 1.391 . S
C669 H657 0.950 . S
C669 C665 1.393 . S
C669 C668 1.391 . S
C670 H660 0.950 . S
C670 C671 1.386 . S
C670 C672 1.391 . S
C671 C670 1.386 . S
C671 C675 1.393 . S
C672 H661 0.950 . S
C672 C670 1.391 . S
C672 C673 1.400 . S
C673 C667 1.491 . S
C673 C672 1.400 . S
C673 C674 1.398 . S
C674 H662 0.950 . S
C674 C673 1.398 . S
C674 C675 1.391 . S
C675 H663 0.950 . S
C675 C671 1.393 . S
C675 C674 1.391 . S
H676 C684 0.950 . S
H677 C689 0.950 . S
H678 C686 0.950 . S
H679 C688 0.950 . S
H680 C690 0.950 . S
H681 C692 0.950 . S
H682 C694 0.950 . S
H683 C695 0.950 . S
C684 H676 0.950 . S
C684 C685 1.386 . S
C684 C686 1.391 . S
C685 C684 1.386 . S
C685 C689 1.393 . S
C686 H678 0.950 . S
C686 C684 1.391 . S
C686 C687 1.400 . S
C687 C686 1.400 . S
C687 C688 1.398 . S
C687 C693 1.491 . S
C688 H679 0.950 . S
C688 C687 1.398 . S
C688 C689 1.391 . S
C689 H677 0.950 . S
C689 C685 1.393 . S
C689 C688 1.391 . S
C690 H680 0.950 . S
C690 C691 1.386 . S
C690 C692 1.391 . S
C691 C690 1.386 . S
C691 C695 1.393 . S
C692 H681 0.950 . S
C692 C690 1.391 . S
C692 C693 1.400 . S
C693 C687 1.491 . S
C693 C692 1.400 . S
C693 C694 1.398 . S
C694 H682 0.950 . S
C694 C693 1.398 . S
C694 C695 1.391 . S
C695 H683 0.950 . S
C695 C691 1.393 . S
C695 C694 1.391 . S
H696 C704 0.950 . S
H697 C709 0.950 . S
H698 C706 0.950 . S
H699 C708 0.950 . S
H700 C710 0.950 . S
H701 C712 0.950 . S
H702 C714 0.950 . S
H703 C715 0.950 . S
C704 H696 0.950 . S
C704 C705 1.386 . S
C704 C706 1.391 . S
C705 C704 1.386 . S
C705 C709 1.393 . S
C706 H698 0.950 . S
C706 C704 1.391 . S
C706 C707 1.400 . S
C707 C706 1.400 . S
C707 C708 1.398 . S
C707 C713 1.491 . S
C708 H699 0.950 . S
C708 C707 1.398 . S
C708 C709 1.391 . S
C709 H697 0.950 . S
C709 C705 1.393 . S
C709 C708 1.391 . S
C710 H700 0.950 . S
C710 C711 1.386 . S
C710 C712 1.391 . S
C711 C710 1.386 . S
C711 C715 1.393 . S
C712 H701 0.950 . S
C712 C710 1.391 . S
C712 C713 1.400 . S
C713 C707 1.491 . S
C713 C712 1.400 . S
C713 C714 1.398 . S
C714 H702 0.950 . S
C714 C713 1.398 . S
C714 C715 1.391 . S
C715 H703 0.950 . S
C715 C711 1.393 . S
C715 C714 1.391 . S
H716 C724 0.950 . S
H717 C729 0.950 . S
H718 C726 0.950 . S
H719 C728 0.950 . S
H720 C730 0.950 . S
H721 C732 0.950 . S
H722 C734 0.950 . S
H723 C735 0.950 . S
C724 H716 0.950 . S
C724 C725 1.386 . S
C724 C726 1.391 . S
C725 C724 1.386 . S
C725 C729 1.393 . S
C726 H718 0.950 . S
C726 C724 1.391 . S
C726 C727 1.400 . S
C727 C726 1.400 . S
C727 C728 1.398 . S
C727 C733 1.491 . S
C728 H719 0.950 . S
C728 C727 1.398 . S
C728 C729 1.391 . S
C729 H717 0.950 . S
C729 C725 1.393 . S
C729 C728 1.391 . S
C730 H720 0.950 . S
C730 C731 1.386 . S
C730 C732 1.391 . S
C731 C730 1.386 . S
C731 C735 1.393 . S
C732 H721 0.950 . S
C732 C730 1.391 . S
C732 C733 1.400 . S
C733 C727 1.491 . S
C733 C732 1.400 . S
C733 C734 1.398 . S
C734 H722 0.950 . S
C734 C733 1.398 . S
C734 C735 1.391 . S
C735 H723 0.950 . S
C735 C731 1.393 . S
C735 C734 1.391 . S
H736 C744 0.950 . S
H737 C749 0.950 . S
H738 C746 0.950 . S
H739 C748 0.950 . S
H740 C750 0.950 . S
H741 C752 0.950 . S
H742 C754 0.950 . S
H743 C755 0.950 . S
C744 H736 0.950 . S
C744 C745 1.386 . S
C744 C746 1.391 . S
C745 C744 1.386 . S
C745 C749 1.393 . S
C746 H738 0.950 . S
C746 C744 1.391 . S
C746 C747 1.400 . S
C747 C746 1.400 . S
C747 C748 1.398 . S
C747 C753 1.491 . S
C748 H739 0.950 . S
C748 C747 1.398 . S
C748 C749 1.391 . S
C749 H737 0.950 . S
C749 C745 1.393 . S
C749 C748 1.391 . S
C750 H740 0.950 . S
C750 C751 1.386 . S
C750 C752 1.391 . S
C751 C750 1.386 . S
C751 C755 1.393 . S
C752 H741 0.950 . S
C752 C750 1.391 . S
C752 C753 1.400 . S
C753 C747 1.491 . S
C753 C752 1.400 . S
C753 C754 1.398 . S
C754 H742 0.950 . S
C754 C753 1.398 . S
C754 C755 1.391 . S
C755 H743 0.950 . S
C755 C751 1.393 . S
C755 C754 1.391 . S
C285 C16 1.495 . S
C291 C154 1.491 . S
C305 C39 1.485 . S
C311 C177 1.480 . S
C325 C62 1.482 . S
C331 C200 1.482 . S
C345 C85 1.495 . S
C351 C223 1.484 . S
C365 C108 1.480 . S
C371 C246 1.490 . S
C385 C269 1.493 . S
C391 C131 1.482 . S
C405 N12 1.708 . S
C411 N242 1.711 . S
C425 N35 1.716 . S
C431 N265 1.715 . S
C445 N58 1.711 . S
C451 N150 1.714 . S
C465 N81 1.711 . S
C471 N173 1.709 . S
C485 N104 1.711 . S
C491 N196 1.713 . S
C505 N127 1.715 . S
C511 N219 1.717 . S
C525 N2 1.672 . S
C531 N71 1.686 . S
C545 N25 1.663 . S
C551 N94 1.683 . S
C565 N117 1.668 . S
C571 N48 1.654 . S
C585 N140 1.674 . S
C591 N209 1.686 . S
C605 N232 1.663 . S
C611 N163 1.654 . S
C625 N186 1.668 . S
C631 N255 1.686 . S
C645 C145 1.473 . S
C651 C7 1.470 . S
C665 C30 1.464 . S
C671 C168 1.467 . S
C685 C53 1.467 . S
C691 C191 1.473 . S
C705 C214 1.466 . S
C711 C76 1.465 . S
C725 C237 1.469 . S
C731 C99 1.473 . S
C745 C122 1.472 . S
C751 C260 1.465 . S
