# Generated by pormake.
# Topology dei, (4)-cn, num edge types: 1
# Building blocks:
#     Node 0, Type 0, BuildingBlock: TATPOV_clean_sbu_0, # of connection points: 4
#     Node 1, Type 0, BuildingBlock: TATPOV_clean_sbu_0, # of connection points: 4
#     Node 2, Type 0, BuildingBlock: TATPOV_clean_sbu_0, # of connection points: 4
#     Node 3, Type 0, BuildingBlock: TATPOV_clean_sbu_0, # of connection points: 4
#     Node 4, Type 0, BuildingBlock: TATPOV_clean_sbu_0, # of connection points: 4
#     Node 5, Type 0, BuildingBlock: TATPOV_clean_sbu_0, # of connection points: 4
#     Node 6, Type 0, BuildingBlock: TATPOV_clean_sbu_0, # of connection points: 4
#     Node 7, Type 0, BuildingBlock: TATPOV_clean_sbu_0, # of connection points: 4
#     Node 8, Type 0, BuildingBlock: TATPOV_clean_sbu_0, # of connection points: 4
#     Node 9, Type 0, BuildingBlock: TATPOV_clean_sbu_0, # of connection points: 4
#     Node 10, Type 0, BuildingBlock: TATPOV_clean_sbu_0, # of connection points: 4
#     Node 11, Type 0, BuildingBlock: TATPOV_clean_sbu_0, # of connection points: 4
#     Node 12, Type 0, BuildingBlock: TATPOV_clean_sbu_0, # of connection points: 4
#     Node 13, Type 0, BuildingBlock: TATPOV_clean_sbu_0, # of connection points: 4
#     Node 14, Type 0, BuildingBlock: TATPOV_clean_sbu_0, # of connection points: 4
#     Node 15, Type 0, BuildingBlock: TATPOV_clean_sbu_0, # of connection points: 4
#     Node 16, Type 0, BuildingBlock: TATPOV_clean_sbu_0, # of connection points: 4
#     Node 17, Type 0, BuildingBlock: TATPOV_clean_sbu_0, # of connection points: 4
#     Node 18, Type 0, BuildingBlock: TATPOV_clean_sbu_0, # of connection points: 4
#     Node 19, Type 0, BuildingBlock: TATPOV_clean_sbu_0, # of connection points: 4
#     Node 20, Type 0, BuildingBlock: TATPOV_clean_sbu_0, # of connection points: 4
#     Node 21, Type 0, BuildingBlock: TATPOV_clean_sbu_0, # of connection points: 4
#     Node 22, Type 0, BuildingBlock: TATPOV_clean_sbu_0, # of connection points: 4
#     Node 23, Type 0, BuildingBlock: TATPOV_clean_sbu_0, # of connection points: 4
#     Node 24, Type 0, BuildingBlock: TATPOV_clean_sbu_0, # of connection points: 4
#     Node 25, Type 0, BuildingBlock: TATPOV_clean_sbu_0, # of connection points: 4
#     Node 26, Type 0, BuildingBlock: TATPOV_clean_sbu_0, # of connection points: 4
#     Node 27, Type 0, BuildingBlock: TATPOV_clean_sbu_0, # of connection points: 4
#     Node 28, Type 0, BuildingBlock: TATPOV_clean_sbu_0, # of connection points: 4
#     Node 29, Type 0, BuildingBlock: TATPOV_clean_sbu_0, # of connection points: 4
#     Node 30, Type 0, BuildingBlock: TATPOV_clean_sbu_0, # of connection points: 4
#     Node 31, Type 0, BuildingBlock: TATPOV_clean_sbu_0, # of connection points: 4
#     Edge 32, Type (0, 0), BuildingBlock: ZUJKAS_clean_linker_0, # of connection points: 2
#     Edge 33, Type (0, 0), BuildingBlock: ZUJKAS_clean_linker_0, # of connection points: 2
#     Edge 34, Type (0, 0), BuildingBlock: ZUJKAS_clean_linker_0, # of connection points: 2
#     Edge 35, Type (0, 0), BuildingBlock: ZUJKAS_clean_linker_0, # of connection points: 2
#     Edge 36, Type (0, 0), BuildingBlock: ZUJKAS_clean_linker_0, # of connection points: 2
#     Edge 37, Type (0, 0), BuildingBlock: ZUJKAS_clean_linker_0, # of connection points: 2
#     Edge 38, Type (0, 0), BuildingBlock: ZUJKAS_clean_linker_0, # of connection points: 2
#     Edge 39, Type (0, 0), BuildingBlock: ZUJKAS_clean_linker_0, # of connection points: 2
#     Edge 40, Type (0, 0), BuildingBlock: ZUJKAS_clean_linker_0, # of connection points: 2
#     Edge 41, Type (0, 0), BuildingBlock: ZUJKAS_clean_linker_0, # of connection points: 2
#     Edge 42, Type (0, 0), BuildingBlock: ZUJKAS_clean_linker_0, # of connection points: 2
#     Edge 43, Type (0, 0), BuildingBlock: ZUJKAS_clean_linker_0, # of connection points: 2
#     Edge 44, Type (0, 0), BuildingBlock: ZUJKAS_clean_linker_0, # of connection points: 2
#     Edge 45, Type (0, 0), BuildingBlock: ZUJKAS_clean_linker_0, # of connection points: 2
#     Edge 46, Type (0, 0), BuildingBlock: ZUJKAS_clean_linker_0, # of connection points: 2
#     Edge 47, Type (0, 0), BuildingBlock: ZUJKAS_clean_linker_0, # of connection points: 2
#     Edge 48, Type (0, 0), BuildingBlock: ZUJKAS_clean_linker_0, # of connection points: 2
#     Edge 49, Type (0, 0), BuildingBlock: ZUJKAS_clean_linker_0, # of connection points: 2
#     Edge 50, Type (0, 0), BuildingBlock: ZUJKAS_clean_linker_0, # of connection points: 2
#     Edge 51, Type (0, 0), BuildingBlock: ZUJKAS_clean_linker_0, # of connection points: 2
#     Edge 52, Type (0, 0), BuildingBlock: ZUJKAS_clean_linker_0, # of connection points: 2
#     Edge 53, Type (0, 0), BuildingBlock: ZUJKAS_clean_linker_0, # of connection points: 2
#     Edge 54, Type (0, 0), BuildingBlock: ZUJKAS_clean_linker_0, # of connection points: 2
#     Edge 55, Type (0, 0), BuildingBlock: ZUJKAS_clean_linker_0, # of connection points: 2
#     Edge 56, Type (0, 0), BuildingBlock: ZUJKAS_clean_linker_0, # of connection points: 2
#     Edge 57, Type (0, 0), BuildingBlock: ZUJKAS_clean_linker_0, # of connection points: 2
#     Edge 58, Type (0, 0), BuildingBlock: ZUJKAS_clean_linker_0, # of connection points: 2
#     Edge 59, Type (0, 0), BuildingBlock: ZUJKAS_clean_linker_0, # of connection points: 2
#     Edge 60, Type (0, 0), BuildingBlock: ZUJKAS_clean_linker_0, # of connection points: 2
#     Edge 61, Type (0, 0), BuildingBlock: ZUJKAS_clean_linker_0, # of connection points: 2
#     Edge 62, Type (0, 0), BuildingBlock: ZUJKAS_clean_linker_0, # of connection points: 2
#     Edge 63, Type (0, 0), BuildingBlock: ZUJKAS_clean_linker_0, # of connection points: 2
#     Edge 64, Type (0, 0), BuildingBlock: ZUJKAS_clean_linker_0, # of connection points: 2
#     Edge 65, Type (0, 0), BuildingBlock: ZUJKAS_clean_linker_0, # of connection points: 2
#     Edge 66, Type (0, 0), BuildingBlock: ZUJKAS_clean_linker_0, # of connection points: 2
#     Edge 67, Type (0, 0), BuildingBlock: ZUJKAS_clean_linker_0, # of connection points: 2
#     Edge 68, Type (0, 0), BuildingBlock: ZUJKAS_clean_linker_0, # of connection points: 2
#     Edge 69, Type (0, 0), BuildingBlock: ZUJKAS_clean_linker_0, # of connection points: 2
#     Edge 70, Type (0, 0), BuildingBlock: ZUJKAS_clean_linker_0, # of connection points: 2
#     Edge 71, Type (0, 0), BuildingBlock: ZUJKAS_clean_linker_0, # of connection points: 2
#     Edge 72, Type (0, 0), BuildingBlock: ZUJKAS_clean_linker_0, # of connection points: 2
#     Edge 73, Type (0, 0), BuildingBlock: ZUJKAS_clean_linker_0, # of connection points: 2
#     Edge 74, Type (0, 0), BuildingBlock: ZUJKAS_clean_linker_0, # of connection points: 2
#     Edge 75, Type (0, 0), BuildingBlock: ZUJKAS_clean_linker_0, # of connection points: 2
#     Edge 76, Type (0, 0), BuildingBlock: ZUJKAS_clean_linker_0, # of connection points: 2
#     Edge 77, Type (0, 0), BuildingBlock: ZUJKAS_clean_linker_0, # of connection points: 2
#     Edge 78, Type (0, 0), BuildingBlock: ZUJKAS_clean_linker_0, # of connection points: 2
#     Edge 79, Type (0, 0), BuildingBlock: ZUJKAS_clean_linker_0, # of connection points: 2
#     Edge 80, Type (0, 0), BuildingBlock: ZUJKAS_clean_linker_0, # of connection points: 2
#     Edge 81, Type (0, 0), BuildingBlock: ZUJKAS_clean_linker_0, # of connection points: 2
#     Edge 82, Type (0, 0), BuildingBlock: ZUJKAS_clean_linker_0, # of connection points: 2
#     Edge 83, Type (0, 0), BuildingBlock: ZUJKAS_clean_linker_0, # of connection points: 2
#     Edge 84, Type (0, 0), BuildingBlock: ZUJKAS_clean_linker_0, # of connection points: 2
#     Edge 85, Type (0, 0), BuildingBlock: ZUJKAS_clean_linker_0, # of connection points: 2
#     Edge 86, Type (0, 0), BuildingBlock: ZUJKAS_clean_linker_0, # of connection points: 2
#     Edge 87, Type (0, 0), BuildingBlock: ZUJKAS_clean_linker_0, # of connection points: 2
#     Edge 88, Type (0, 0), BuildingBlock: ZUJKAS_clean_linker_0, # of connection points: 2
#     Edge 89, Type (0, 0), BuildingBlock: ZUJKAS_clean_linker_0, # of connection points: 2
#     Edge 90, Type (0, 0), BuildingBlock: ZUJKAS_clean_linker_0, # of connection points: 2
#     Edge 91, Type (0, 0), BuildingBlock: ZUJKAS_clean_linker_0, # of connection points: 2
#     Edge 92, Type (0, 0), BuildingBlock: ZUJKAS_clean_linker_0, # of connection points: 2
#     Edge 93, Type (0, 0), BuildingBlock: ZUJKAS_clean_linker_0, # of connection points: 2
#     Edge 94, Type (0, 0), BuildingBlock: ZUJKAS_clean_linker_0, # of connection points: 2
#     Edge 95, Type (0, 0), BuildingBlock: ZUJKAS_clean_linker_0, # of connection points: 2
# Relax obj value: 0.256
# Max RMSD: 0.093
# Mean RMSD: 0.093
data_MOF--net-dei--node1-TATPOV_clean_sbu_0--edge1-ZUJKAS_clean_linker_0
_symmetry_space_group_name_H-M    P1
_symmetry_Int_Tables_number       1
_symmetry_cell_setting            triclinic
loop_
_symmetry_equiv_pos_as_xyz
'x, y, z'
_cell_length_a     67.725406
_cell_length_b     67.574595
_cell_length_c     127.52925
_cell_angle_alpha  90.321968
_cell_angle_beta   89.866345
_cell_angle_gamma 90.000489
loop_
_atom_site_label
_atom_site_type_symbol
_atom_site_fract_x
_atom_site_fract_y
_atom_site_fract_z
_atom_type_partial_charge
Zn0 Zn 0.12437 0.60697 0.01872 0.0
Zn1 Zn 0.13193 0.5933 0.03783 0.0
O2 O 0.14571 0.57249 0.02819 0.0
O3 O 0.14087 0.58528 0.01255 0.0
O4 O 0.1381 0.58533 0.05272 0.0
O5 O 0.13688 0.63309 0.02192 0.0
O6 O 0.14347 0.62168 0.03764 0.0
C7 C 0.14814 0.57189 0.01826 0.0
C8 C 0.08916 0.59627 0.03002 0.0
O9 O 0.10147 0.59214 0.03723 0.0
O10 O 0.09527 0.60272 0.02129 0.0
C11 C 0.13072 0.57046 0.05737 0.0
O12 O 0.11891 0.55853 0.05218 0.0
C13 C 0.14429 0.63556 0.03093 0.0
Zn14 Zn 0.61132 0.87109 0.26525 0.0
Zn15 Zn 0.62489 0.88 0.28444 0.0
O16 O 0.64606 0.89271 0.27479 0.0
O17 O 0.63432 0.8857 0.2591 0.0
O18 O 0.63236 0.88723 0.2993 0.0
O19 O 0.58583 0.88539 0.26797 0.0
O20 O 0.59697 0.89211 0.28378 0.0
C21 C 0.64744 0.8936 0.26481 0.0
C22 C 0.62067 0.83659 0.27747 0.0
O23 O 0.62545 0.84947 0.28435 0.0
O24 O 0.61408 0.84206 0.26866 0.0
C25 C 0.645 0.87806 0.30481 0.0
O26 O 0.65515 0.86353 0.30053 0.0
C27 C 0.58338 0.89324 0.27691 0.0
Zn28 Zn 0.33964 0.35937 0.51742 0.0
Zn29 Zn 0.33313 0.37533 0.53649 0.0
O30 O 0.32048 0.39576 0.5264 0.0
O31 O 0.32559 0.38227 0.51087 0.0
O32 O 0.32718 0.38543 0.55118 0.0
O33 O 0.32467 0.33483 0.52129 0.0
O34 O 0.32039 0.34758 0.53704 0.0
C35 C 0.31879 0.39628 0.51643 0.0
C36 C 0.37554 0.3685 0.52855 0.0
O37 O 0.36354 0.37457 0.53558 0.0
O38 O 0.36902 0.3612 0.52007 0.0
C39 C 0.33963 0.39434 0.55699 0.0
O40 O 0.35716 0.39858 0.55319 0.0
C41 C 0.31803 0.33339 0.53054 0.0
Zn42 Zn 0.85378 0.08875 0.76669 0.0
Zn43 Zn 0.84185 0.0843 0.78665 0.0
O44 O 0.81912 0.0716 0.7781 0.0
O45 O 0.83044 0.07281 0.76187 0.0
O46 O 0.8354 0.07901 0.80185 0.0
O47 O 0.87942 0.07494 0.7694 0.0
O48 O 0.86939 0.07125 0.78567 0.0
C49 C 0.81725 0.0677 0.76835 0.0
C50 C 0.84664 0.12588 0.7778 0.0
O51 O 0.84256 0.11462 0.7855 0.0
O52 O 0.85153 0.11845 0.76902 0.0
C53 C 0.82273 0.08814 0.80743 0.0
O54 O 0.81187 0.10201 0.80314 0.0
C55 C 0.88244 0.06867 0.77858 0.0
Zn56 Zn 0.12531 0.36132 0.95941 0.0
Zn57 Zn 0.13361 0.37504 0.94025 0.0
O58 O 0.14632 0.39626 0.94997 0.0
O59 O 0.14003 0.38422 0.96565 0.0
O60 O 0.1408 0.38272 0.9254 0.0
O61 O 0.13932 0.33573 0.95654 0.0
O62 O 0.14572 0.34701 0.94076 0.0
C63 C 0.14756 0.39753 0.95995 0.0
C64 C 0.0905 0.37071 0.94747 0.0
O65 O 0.10311 0.3755 0.94048 0.0
O66 O 0.09627 0.36414 0.95622 0.0
C67 C 0.13051 0.39376 0.9195 0.0
O68 O 0.1145 0.40217 0.92329 0.0
C69 C 0.14693 0.33332 0.94756 0.0
Zn70 Zn 0.85771 0.87792 0.20639 0.0
Zn71 Zn 0.84326 0.88434 0.18728 0.0
O72 O 0.82221 0.89759 0.19693 0.0
O73 O 0.83534 0.89345 0.21256 0.0
O74 O 0.83486 0.89 0.1724 0.0
O75 O 0.88301 0.89179 0.20306 0.0
O76 O 0.87116 0.89687 0.18727 0.0
C77 C 0.82163 0.90012 0.20686 0.0
C78 C 0.84815 0.84188 0.19527 0.0
O79 O 0.84309 0.85384 0.18806 0.0
O80 O 0.85486 0.84851 0.20387 0.0
C81 C 0.82027 0.8821 0.16772 0.0
O82 O 0.80879 0.86984 0.17287 0.0
C83 C 0.88502 0.89877 0.19394 0.0
Zn84 Zn 0.33767 0.60725 0.45854 0.0
Zn85 Zn 0.33088 0.59338 0.43925 0.0
O86 O 0.31765 0.57212 0.4487 0.0
O87 O 0.32204 0.58482 0.46448 0.0
O88 O 0.32455 0.58562 0.42427 0.0
O89 O 0.32421 0.63294 0.45559 0.0
O90 O 0.31895 0.62161 0.43965 0.0
C91 C 0.31525 0.57127 0.45863 0.0
C92 C 0.37338 0.5976 0.44718 0.0
O93 O 0.36132 0.59287 0.43993 0.0
O94 O 0.36694 0.60411 0.45588 0.0
C95 C 0.33514 0.57456 0.41844 0.0
O96 O 0.35095 0.56617 0.42238 0.0
C97 C 0.31733 0.63536 0.44648 0.0
Zn98 Zn 0.61232 0.09113 0.71017 0.0
Zn99 Zn 0.62448 0.08863 0.69002 0.0
O100 O 0.64714 0.07484 0.69803 0.0
O101 O 0.63567 0.07444 0.71425 0.0
O102 O 0.63123 0.08702 0.67459 0.0
O103 O 0.58673 0.07783 0.70656 0.0
O104 O 0.59713 0.07512 0.69026 0.0
C105 C 0.64888 0.06991 0.70762 0.0
C106 C 0.61967 0.12919 0.70069 0.0
O107 O 0.62362 0.11855 0.69268 0.0
O108 O 0.61471 0.12107 0.70924 0.0
C109 C 0.64219 0.07426 0.67009 0.0
O110 O 0.6511 0.06076 0.67575 0.0
C111 C 0.58392 0.07214 0.69721 0.0
Zn112 Zn 0.84302 0.36869 0.95581 0.0
Zn113 Zn 0.83854 0.38148 0.936 0.0
O114 O 0.82617 0.40399 0.9449 0.0
O115 O 0.8275 0.39219 0.96099 0.0
O116 O 0.83454 0.38956 0.92095 0.0
O117 O 0.82871 0.34346 0.95244 0.0
O118 O 0.82502 0.35406 0.93629 0.0
C119 C 0.82245 0.40563 0.95468 0.0
C120 C 0.88003 0.37584 0.9449 0.0
O121 O 0.86867 0.38028 0.93732 0.0
O122 O 0.87276 0.37063 0.95363 0.0
C123 C 0.81766 0.38815 0.91665 0.0
O124 O 0.80252 0.38242 0.92234 0.0
C125 C 0.82232 0.34082 0.94323 0.0
Zn126 Zn 0.35527 0.0895 0.71025 0.0
Zn127 Zn 0.34319 0.0863 0.69015 0.0
O128 O 0.32061 0.0729 0.69838 0.0
O129 O 0.33186 0.07302 0.71462 0.0
O130 O 0.3364 0.08283 0.67489 0.0
O131 O 0.38095 0.07599 0.70683 0.0
O132 O 0.37065 0.07319 0.69055 0.0
C133 C 0.31871 0.06832 0.70802 0.0
C134 C 0.34764 0.12724 0.70012 0.0
O135 O 0.34371 0.11635 0.69221 0.0
O136 O 0.35269 0.11941 0.70872 0.0
C137 C 0.31997 0.08697 0.67063 0.0
O138 O 0.30547 0.09384 0.67646 0.0
C139 C 0.38382 0.07026 0.69749 0.0
Zn140 Zn 0.61855 0.60863 0.46123 0.0
Zn141 Zn 0.62624 0.59366 0.44204 0.0
O142 O 0.6393 0.57321 0.45188 0.0
O143 O 0.63345 0.58589 0.46753 0.0
O144 O 0.63184 0.58404 0.42729 0.0
O145 O 0.63285 0.63384 0.45769 0.0
O146 O 0.6383 0.6217 0.44191 0.0
C147 C 0.64084 0.57236 0.46184 0.0
C148 C 0.58339 0.59857 0.44959 0.0
O149 O 0.59589 0.59328 0.44264 0.0
O150 O 0.58929 0.60574 0.45824 0.0
C151 C 0.64792 0.5882 0.42263 0.0
O152 O 0.66174 0.5978 0.42779 0.0
C153 C 0.63995 0.63573 0.44856 0.0
Zn154 Zn 0.11169 0.88103 0.20863 0.0
Zn155 Zn 0.12545 0.88657 0.18904 0.0
O156 O 0.14696 0.89938 0.19829 0.0
O157 O 0.13409 0.89771 0.21418 0.0
O158 O 0.1334 0.89242 0.17415 0.0
O159 O 0.08584 0.89395 0.20513 0.0
O160 O 0.09761 0.89887 0.18928 0.0
C161 C 0.14781 0.90315 0.20809 0.0
C162 C 0.1214 0.84459 0.19737 0.0
O163 O 0.12558 0.85632 0.1899 0.0
O164 O 0.11548 0.85145 0.20611 0.0
C165 C 0.146 0.88275 0.1688 0.0
O166 O 0.15568 0.86816 0.17321 0.0
C167 C 0.08368 0.90061 0.19596 0.0
Zn168 Zn 0.84397 0.60993 0.01801 0.0
Zn169 Zn 0.8368 0.59732 0.03759 0.0
O170 O 0.82426 0.57546 0.02836 0.0
O171 O 0.82738 0.58754 0.01239 0.0
O172 O 0.83012 0.59014 0.05249 0.0
O173 O 0.83133 0.63623 0.021 0.0
O174 O 0.82501 0.62546 0.0369 0.0
C175 C 0.82123 0.5742 0.01851 0.0
C176 C 0.87934 0.60017 0.02986 0.0
O177 O 0.86704 0.5966 0.03718 0.0
O178 O 0.87322 0.60577 0.02096 0.0
C179 C 0.83815 0.57624 0.05762 0.0
O180 O 0.85122 0.56482 0.05295 0.0
C181 C 0.82404 0.63906 0.03003 0.0
Zn182 Zn 0.11177 0.09259 0.76561 0.0
Zn183 Zn 0.12376 0.08712 0.78552 0.0
O184 O 0.14608 0.07413 0.77684 0.0
O185 O 0.13477 0.07603 0.76065 0.0
O186 O 0.13035 0.08158 0.80062 0.0
O187 O 0.08576 0.07941 0.76851 0.0
O188 O 0.09608 0.07454 0.78463 0.0
C189 C 0.14783 0.07042 0.76707 0.0
C190 C 0.12001 0.1291 0.77706 0.0
O191 O 0.12373 0.1174 0.7846 0.0
O192 O 0.11492 0.12219 0.7682 0.0
C193 C 0.1438 0.09012 0.8059 0.0
O194 O 0.15521 0.1032 0.80131 0.0
C195 C 0.08281 0.07268 0.77762 0.0
Zn196 Zn 0.62316 0.35945 0.5194 0.0
Zn197 Zn 0.62819 0.3752 0.53853 0.0
O198 O 0.64106 0.39622 0.52887 0.0
O199 O 0.63782 0.38246 0.51326 0.0
O200 O 0.63147 0.3855 0.5533 0.0
O201 O 0.63816 0.33514 0.52353 0.0
O202 O 0.64192 0.34788 0.53931 0.0
C203 C 0.6438 0.39663 0.51896 0.0
C204 C 0.58643 0.36792 0.52989 0.0
O205 O 0.59799 0.37389 0.53712 0.0
O206 O 0.5935 0.36095 0.52144 0.0
C207 C 0.64821 0.38778 0.55763 0.0
O208 O 0.6643 0.38434 0.55215 0.0
C209 C 0.64472 0.3338 0.53278 0.0
Zn210 Zn 0.35265 0.87753 0.26766 0.0
Zn211 Zn 0.34209 0.88405 0.28773 0.0
O212 O 0.31939 0.8969 0.2794 0.0
O213 O 0.32966 0.8942 0.26301 0.0
O214 O 0.33636 0.8903 0.30289 0.0
O215 O 0.37907 0.89029 0.26994 0.0
O216 O 0.36992 0.89611 0.28622 0.0
C217 C 0.31709 0.90024 0.26964 0.0
C218 C 0.34448 0.84166 0.27944 0.0
O219 O 0.34158 0.85372 0.28701 0.0
O220 O 0.34904 0.84812 0.27044 0.0
C221 C 0.32319 0.88185 0.30839 0.0
O222 O 0.3117 0.86853 0.304 0.0
C223 C 0.38275 0.89737 0.27893 0.0
Zn224 Zn 0.63152 0.10786 0.51787 0.0
Zn225 Zn 0.63567 0.09356 0.53743 0.0
O226 O 0.64823 0.07191 0.52797 0.0
O227 O 0.64749 0.08508 0.51218 0.0
O228 O 0.64081 0.08461 0.55231 0.0
O229 O 0.64511 0.13319 0.52184 0.0
O230 O 0.64861 0.12127 0.53773 0.0
C231 C 0.65228 0.07107 0.5182 0.0
C232 C 0.59432 0.09954 0.52847 0.0
O233 O 0.6055 0.0947 0.53606 0.0
O234 O 0.60181 0.10529 0.51989 0.0
C235 C 0.62842 0.07564 0.55809 0.0
O236 O 0.61117 0.07065 0.5542 0.0
C237 C 0.65113 0.1352 0.53117 0.0
Zn238 Zn 0.11682 0.37738 0.76713 0.0
Zn239 Zn 0.12829 0.38264 0.78706 0.0
O240 O 0.15098 0.39546 0.77847 0.0
O241 O 0.13984 0.39369 0.76224 0.0
O242 O 0.1346 0.38816 0.80229 0.0
O243 O 0.09076 0.39051 0.76981 0.0
O244 O 0.10043 0.39508 0.78608 0.0
C245 C 0.1529 0.39913 0.76871 0.0
C246 C 0.12448 0.34073 0.77825 0.0
O247 O 0.1281 0.3523 0.78594 0.0
O248 O 0.1197 0.34779 0.76942 0.0
C249 C 0.14741 0.37903 0.8077 0.0
O250 O 0.15836 0.36538 0.80317 0.0
C251 C 0.0874 0.39699 0.77896 0.0
Zn252 Zn 0.84673 0.86622 0.01677 0.0
Zn253 Zn 0.84029 0.8809 0.03605 0.0
O254 O 0.82729 0.90197 0.02646 0.0
O255 O 0.83212 0.88926 0.01071 0.0
O256 O 0.83529 0.88998 0.05099 0.0
O257 O 0.83214 0.84122 0.02016 0.0
O258 O 0.82768 0.85301 0.03609 0.0
C259 C 0.82532 0.90292 0.01651 0.0
C260 C 0.88267 0.87513 0.02792 0.0
O261 O 0.87068 0.88063 0.03508 0.0
O262 O 0.87612 0.86827 0.01934 0.0
C263 C 0.81882 0.88659 0.05545 0.0
O264 O 0.80453 0.87846 0.04997 0.0
C265 C 0.82543 0.8392 0.02936 0.0
Zn266 Zn 0.35969 0.59613 0.26736 0.0
Zn267 Zn 0.34559 0.58821 0.28651 0.0
O268 O 0.32464 0.57528 0.27676 0.0
O269 O 0.33711 0.58095 0.26109 0.0
O270 O 0.33755 0.58141 0.30134 0.0
O271 O 0.38532 0.58242 0.27038 0.0
O272 O 0.37367 0.57627 0.28613 0.0
C273 C 0.32365 0.57365 0.26679 0.0
C274 C 0.34972 0.63124 0.27928 0.0
O275 O 0.34492 0.61872 0.28628 0.0
O276 O 0.35647 0.62531 0.27053 0.0
C277 C 0.32442 0.59043 0.30667 0.0
O278 O 0.31417 0.60461 0.30225 0.0
C279 C 0.38755 0.57504 0.27939 0.0
Zn280 Zn 0.62855 0.86637 0.45769 0.0
Zn281 Zn 0.63326 0.87744 0.43766 0.0
O282 O 0.64629 0.90025 0.44612 0.0
O283 O 0.64502 0.88948 0.46241 0.0
O284 O 0.63883 0.88356 0.42244 0.0
O285 O 0.64148 0.84015 0.45503 0.0
O286 O 0.64552 0.84947 0.43867 0.0
C287 C 0.65027 0.9024 0.45583 0.0
C288 C 0.59168 0.87391 0.44668 0.0
O289 O 0.60301 0.87736 0.4389 0.0
O290 O 0.59899 0.86931 0.45548 0.0
C291 C 0.62847 0.89462 0.41659 0.0
O292 O 0.61312 0.90386 0.42058 0.0
C293 C 0.64761 0.83655 0.44583 0.0
Zn294 Zn 0.35776 0.37785 0.70827 0.0
Zn295 Zn 0.34473 0.3801 0.68837 0.0
O296 O 0.32239 0.39378 0.69688 0.0
O297 O 0.33462 0.39445 0.71291 0.0
O298 O 0.33704 0.38183 0.67309 0.0
O299 O 0.38324 0.39109 0.70435 0.0
O300 O 0.37226 0.39337 0.68819 0.0
C301 C 0.32102 0.39875 0.70653 0.0
C302 C 0.34988 0.33965 0.69876 0.0
O303 O 0.3456 0.35017 0.69083 0.0
O304 O 0.35526 0.34788 0.70724 0.0
C305 C 0.32771 0.39601 0.66885 0.0
O306 O 0.32143 0.41078 0.67472 0.0
C307 C 0.38576 0.39646 0.69495 0.0
Zn308 Zn 0.84616 0.11446 0.95856 0.0
Zn309 Zn 0.83987 0.09984 0.93931 0.0
O310 O 0.82678 0.07834 0.94862 0.0
O311 O 0.83075 0.09157 0.96432 0.0
O312 O 0.83466 0.09268 0.92418 0.0
O313 O 0.8323 0.13993 0.95536 0.0
O314 O 0.82725 0.12767 0.9396 0.0
C315 C 0.82428 0.07773 0.95854 0.0
C316 C 0.88218 0.10514 0.9474 0.0
O317 O 0.87024 0.09986 0.94019 0.0
O318 O 0.87557 0.11188 0.95601 0.0
C319 C 0.83298 0.07601 0.9196 0.0
O320 O 0.83451 0.05966 0.92507 0.0
C321 C 0.82534 0.14173 0.94622 0.0
Zn322 Zn 0.11409 0.5975 0.20841 0.0
Zn323 Zn 0.12839 0.59097 0.18918 0.0
O324 O 0.14916 0.57725 0.19871 0.0
O325 O 0.13605 0.58133 0.21441 0.0
O326 O 0.13732 0.58598 0.17423 0.0
O327 O 0.08844 0.58445 0.20488 0.0
O328 O 0.10016 0.57909 0.18902 0.0
C329 C 0.14968 0.57454 0.20862 0.0
C330 C 0.12428 0.63344 0.19767 0.0
O331 O 0.12895 0.62143 0.19032 0.0
O332 O 0.11764 0.62689 0.20627 0.0
C333 C 0.13378 0.56955 0.16968 0.0
O334 O 0.12549 0.55526 0.17508 0.0
C335 C 0.08621 0.57761 0.19571 0.0
Zn336 Zn 0.3442 0.86373 0.46039 0.0
Zn337 Zn 0.33839 0.87676 0.44067 0.0
O338 O 0.32601 0.89881 0.44983 0.0
O339 O 0.32805 0.88669 0.46582 0.0
O340 O 0.3322 0.88427 0.42576 0.0
O341 O 0.33072 0.83793 0.45713 0.0
O342 O 0.32566 0.84907 0.4412 0.0
C343 C 0.32254 0.90017 0.45964 0.0
C344 C 0.38043 0.87216 0.44884 0.0
O345 O 0.36862 0.87631 0.44141 0.0
O346 O 0.3737 0.86678 0.45767 0.0
C347 C 0.34302 0.89481 0.41985 0.0
O348 O 0.35931 0.90259 0.42363 0.0
C349 C 0.32383 0.83546 0.448 0.0
Zn350 Zn 0.85846 0.59545 0.20907 0.0
Zn351 Zn 0.84461 0.5885 0.18961 0.0
O352 O 0.82334 0.57604 0.19918 0.0
O353 O 0.83624 0.57907 0.21498 0.0
O354 O 0.83649 0.58151 0.17484 0.0
O355 O 0.88433 0.58234 0.20564 0.0
O356 O 0.87265 0.57655 0.18984 0.0
C357 C 0.82257 0.573 0.20903 0.0
C358 C 0.84843 0.63106 0.19738 0.0
O359 O 0.84425 0.61881 0.19009 0.0
O360 O 0.85449 0.62483 0.20617 0.0
C361 C 0.82497 0.59164 0.16913 0.0
O362 O 0.81654 0.60754 0.17308 0.0
C363 C 0.88656 0.57523 0.19651 0.0
Zn364 Zn 0.12972 0.10508 0.95857 0.0
Zn365 Zn 0.13489 0.09286 0.93856 0.0
O366 O 0.14727 0.07023 0.94715 0.0
O367 O 0.14543 0.08153 0.96341 0.0
O368 O 0.14051 0.08599 0.92343 0.0
O369 O 0.14383 0.13064 0.95573 0.0
O370 O 0.14809 0.1203 0.9395 0.0
C371 C 0.15081 0.06835 0.95691 0.0
C372 C 0.0931 0.098 0.94717 0.0
O373 O 0.10468 0.09378 0.93959 0.0
O374 O 0.10012 0.10296 0.95602 0.0
C375 C 0.12977 0.07514 0.9176 0.0
O376 O 0.11403 0.06664 0.9216 0.0
C377 C 0.15047 0.13346 0.94658 0.0
Zn378 Zn 0.61315 0.38064 0.70898 0.0
Zn379 Zn 0.62663 0.38166 0.68907 0.0
O380 O 0.64891 0.39514 0.69757 0.0
O381 O 0.63661 0.39681 0.71359 0.0
O382 O 0.63546 0.38282 0.67396 0.0
O383 O 0.58817 0.39442 0.70467 0.0
O384 O 0.59938 0.39539 0.68848 0.0
C385 C 0.65036 0.40047 0.70715 0.0
C386 C 0.62035 0.34184 0.69985 0.0
O387 O 0.62503 0.35193 0.69182 0.0
O388 O 0.61498 0.35054 0.70823 0.0
C389 C 0.64092 0.39875 0.66956 0.0
O390 O 0.64168 0.41515 0.67513 0.0
C391 C 0.58589 0.39922 0.69517 0.0
Zn392 Zn 0.34505 0.10672 0.51908 0.0
Zn393 Zn 0.34143 0.09376 0.53894 0.0
O394 O 0.32834 0.07157 0.53018 0.0
O395 O 0.32885 0.08349 0.5141 0.0
O396 O 0.33776 0.08545 0.554 0.0
O397 O 0.33134 0.13216 0.5228 0.0
O398 O 0.32813 0.12128 0.53894 0.0
C399 C 0.32402 0.07005 0.52048 0.0
C400 C 0.38251 0.09906 0.52938 0.0
O401 O 0.3715 0.09469 0.53714 0.0
O402 O 0.37484 0.10435 0.52077 0.0
C403 C 0.32093 0.08715 0.55836 0.0
O404 O 0.30592 0.09337 0.55276 0.0
C405 C 0.32533 0.13469 0.53212 0.0
Zn406 Zn 0.61697 0.58898 0.2703 0.0
Zn407 Zn 0.62835 0.58437 0.29028 0.0
O408 O 0.65138 0.57202 0.28178 0.0
O409 O 0.64051 0.57316 0.2655 0.0
O410 O 0.63493 0.57949 0.30545 0.0
O411 O 0.59125 0.57519 0.27296 0.0
O412 O 0.6008 0.5713 0.28928 0.0
C413 C 0.65358 0.5682 0.27204 0.0
C414 C 0.62402 0.62599 0.2815 0.0
O415 O 0.62774 0.6146 0.28917 0.0
O416 O 0.61932 0.61872 0.27266 0.0
C417 C 0.64939 0.58725 0.3103 0.0
O418 O 0.66161 0.59884 0.3052 0.0
C419 C 0.58793 0.56886 0.28211 0.0
Zn420 Zn 0.12981 0.86406 0.01677 0.0
Zn421 Zn 0.13529 0.87744 0.03652 0.0
O422 O 0.14841 0.899 0.02746 0.0
O423 O 0.14659 0.88653 0.01145 0.0
O424 O 0.14138 0.88499 0.05147 0.0
O425 O 0.14265 0.83804 0.02009 0.0
O426 O 0.1473 0.84943 0.03608 0.0
C427 C 0.15218 0.90005 0.01767 0.0
C428 C 0.09344 0.8738 0.02802 0.0
O429 O 0.1051 0.87783 0.03556 0.0
O430 O 0.10031 0.86795 0.01928 0.0
C431 C 0.13093 0.89608 0.05735 0.0
O432 O 0.11507 0.90453 0.0535 0.0
C433 C 0.14912 0.83564 0.0293 0.0
Zn434 Zn 0.8574 0.37437 0.76548 0.0
Zn435 Zn 0.84483 0.37977 0.78535 0.0
O436 O 0.82273 0.39267 0.77656 0.0
O437 O 0.83438 0.39062 0.76041 0.0
O438 O 0.8375 0.38504 0.80043 0.0
O439 O 0.88317 0.3879 0.76862 0.0
O440 O 0.87258 0.39238 0.78478 0.0
C441 C 0.82115 0.39623 0.76679 0.0
C442 C 0.84909 0.3378 0.77667 0.0
O443 O 0.84499 0.34951 0.78423 0.0
O444 O 0.85447 0.34472 0.76789 0.0
C445 C 0.82077 0.38172 0.8046 0.0
O446 O 0.80642 0.37451 0.79881 0.0
C447 C 0.88595 0.39445 0.77782 0.0
H448 H 0.1495 0.59648 0.15599 0.0
H449 H 0.15146 0.59376 0.13686 0.0
H450 H 0.12705 0.53492 0.13827 0.0
H451 H 0.12493 0.53749 0.15737 0.0
H452 H 0.17046 0.56433 0.12333 0.0
H453 H 0.08877 0.5663 0.11904 0.0
H454 H 0.10105 0.57373 0.13098 0.0
H455 H 0.09828 0.54794 0.12784 0.0
C456 C 0.14471 0.58288 0.15225 0.0
C457 C 0.13689 0.56726 0.15822 0.0
C458 C 0.14586 0.58135 0.14131 0.0
C459 C 0.13912 0.56426 0.13615 0.0
C460 C 0.13204 0.54836 0.1421 0.0
H461 H 0.11789 0.54009 0.06982 0.0
H462 H 0.12159 0.53695 0.08883 0.0
C463 C 0.13093 0.54984 0.15303 0.0
C464 C 0.13878 0.56339 0.12453 0.0
H465 H 0.10745 0.56203 0.1036 0.0
C466 C 0.15671 0.56379 0.119 0.0
C467 C 0.12081 0.56263 0.11891 0.0
C468 C 0.10109 0.56277 0.12446 0.0
C469 C 0.15715 0.56333 0.10798 0.0
C470 C 0.13915 0.56292 0.10235 0.0
C471 C 0.12124 0.56228 0.10791 0.0
C472 C 0.1384 0.56397 0.09072 0.0
C473 C 0.1769 0.56299 0.10248 0.0
C474 C 0.14665 0.58017 0.08544 0.0
C475 C 0.14466 0.58194 0.07457 0.0
C476 C 0.13414 0.56768 0.06876 0.0
C477 C 0.12609 0.55133 0.07404 0.0
C478 C 0.12818 0.54952 0.08492 0.0
H479 H 0.18867 0.55705 0.10764 0.0
H480 H 0.17635 0.55391 0.09521 0.0
H481 H 0.18108 0.57832 0.10033 0.0
H482 H 0.15415 0.59177 0.08975 0.0
H483 H 0.15093 0.5948 0.07078 0.0
H484 H 0.6578 0.87554 0.40575 0.0
H485 H 0.66345 0.87523 0.38683 0.0
H486 H 0.61456 0.91525 0.38261 0.0
H487 H 0.60884 0.91578 0.40157 0.0
H488 H 0.63558 0.86256 0.3719 0.0
H489 H 0.65879 0.94013 0.36473 0.0
H490 H 0.65912 0.92915 0.37761 0.0
H491 H 0.63626 0.93754 0.37207 0.0
C492 C 0.64838 0.8845 0.40083 0.0
C493 C 0.63284 0.89568 0.4052 0.0
C494 C 0.65164 0.88428 0.39001 0.0
C495 C 0.63957 0.89536 0.38332 0.0
C496 C 0.62429 0.90686 0.38765 0.0
H497 H 0.62315 0.90428 0.31644 0.0
H498 H 0.62326 0.90872 0.33546 0.0
C499 C 0.62097 0.90706 0.39849 0.0
C500 C 0.64209 0.89373 0.37179 0.0
H501 H 0.65185 0.92038 0.34969 0.0
C502 C 0.63931 0.87516 0.36705 0.0
C503 C 0.64683 0.91022 0.36549 0.0
C504 C 0.6506 0.93037 0.37021 0.0
C505 C 0.64065 0.87269 0.35613 0.0
C506 C 0.64539 0.88918 0.3498 0.0
C507 C 0.64831 0.90775 0.35456 0.0
C508 C 0.6466 0.88753 0.3382 0.0
C509 C 0.63632 0.85258 0.35146 0.0
C510 C 0.6601 0.87457 0.33338 0.0
C511 C 0.66001 0.87189 0.32249 0.0
C512 C 0.64654 0.88229 0.31621 0.0
C513 C 0.63368 0.89596 0.32103 0.0
C514 C 0.63372 0.89854 0.33191 0.0
H515 H 0.62813 0.84299 0.35703 0.0
H516 H 0.62755 0.85391 0.34416 0.0
H517 H 0.65045 0.84509 0.3495 0.0
H518 H 0.6705 0.86626 0.33806 0.0
H519 H 0.67023 0.86139 0.31903 0.0
H520 H 0.30594 0.42205 0.65717 0.0
H521 H 0.30321 0.42334 0.63803 0.0
H522 H 0.3419 0.37286 0.63532 0.0
H523 H 0.34424 0.37112 0.65435 0.0
H524 H 0.3312 0.42964 0.62366 0.0
H525 H 0.29805 0.35625 0.61614 0.0
H526 H 0.29927 0.36696 0.62912 0.0
H527 H 0.32027 0.35413 0.62366 0.0
C528 C 0.31367 0.41108 0.65249 0.0
C529 C 0.32521 0.39641 0.6573 0.0
C530 C 0.31211 0.41185 0.64155 0.0
C531 C 0.32206 0.39798 0.63522 0.0
C532 C 0.33362 0.38337 0.64002 0.0
H533 H 0.36487 0.40734 0.57223 0.0
H534 H 0.3585 0.41004 0.59102 0.0
C535 C 0.33504 0.38248 0.65093 0.0
C536 C 0.32131 0.39932 0.62359 0.0
H537 H 0.31406 0.3717 0.60144 0.0
C538 C 0.32719 0.41705 0.6188 0.0
C539 C 0.3157 0.38306 0.61722 0.0
C540 C 0.30776 0.36412 0.62181 0.0
C541 C 0.3285 0.41863 0.60784 0.0
C542 C 0.32432 0.40189 0.6015 0.0
C543 C 0.31755 0.38447 0.60628 0.0
C544 C 0.32768 0.40174 0.58997 0.0
C545 C 0.33435 0.43826 0.60318 0.0
C546 C 0.31259 0.39585 0.58309 0.0
C547 C 0.31627 0.39401 0.57233 0.0
C548 C 0.33516 0.39799 0.56823 0.0
C549 C 0.35012 0.40431 0.5751 0.0
C550 C 0.34646 0.406 0.58586 0.0
H551 H 0.33035 0.45074 0.60849 0.0
H552 H 0.3506 0.4386 0.60206 0.0
H553 H 0.32719 0.44064 0.59547 0.0
H554 H 0.29801 0.39239 0.58608 0.0
H555 H 0.30442 0.3891 0.56726 0.0
H556 H 0.83004 0.10734 0.90631 0.0
H557 H 0.82637 0.10671 0.88731 0.0
H558 H 0.82565 0.04292 0.8876 0.0
H559 H 0.82926 0.04335 0.90675 0.0
H560 H 0.85305 0.08841 0.87303 0.0
H561 H 0.77682 0.05841 0.86955 0.0
H562 H 0.78613 0.06909 0.88158 0.0
H563 H 0.79362 0.04468 0.87764 0.0
C564 C 0.82898 0.09312 0.90238 0.0
C565 C 0.82997 0.07537 0.90808 0.0
C566 C 0.82688 0.09282 0.8915 0.0
C567 C 0.82558 0.0748 0.88606 0.0
C568 C 0.82634 0.057 0.89168 0.0
H569 H 0.84483 0.06213 0.81882 0.0
H570 H 0.84481 0.05759 0.83782 0.0
C571 C 0.8285 0.05728 0.90262 0.0
C572 C 0.82441 0.07487 0.87445 0.0
H573 H 0.79423 0.06409 0.85374 0.0
C574 C 0.84023 0.08301 0.86881 0.0
C575 C 0.80758 0.06798 0.86898 0.0
C576 C 0.78996 0.05966 0.87471 0.0
C577 C 0.83969 0.08449 0.85785 0.0
C578 C 0.82295 0.07747 0.85236 0.0
C579 C 0.80709 0.06934 0.85798 0.0
C580 C 0.82164 0.07891 0.8408 0.0
C581 C 0.85686 0.09396 0.85221 0.0
C582 C 0.8082 0.09201 0.83616 0.0
C583 C 0.80817 0.09468 0.82528 0.0
C584 C 0.82152 0.08421 0.81885 0.0
C585 C 0.83443 0.07053 0.82352 0.0
C586 C 0.83448 0.06792 0.83439 0.0
H587 H 0.86674 0.1021 0.85769 0.0
H588 H 0.86568 0.0823 0.84822 0.0
H589 H 0.85153 0.10439 0.84614 0.0
H590 H 0.79815 0.10059 0.84099 0.0
H591 H 0.79799 0.10527 0.82194 0.0
H592 H 0.16082 0.37577 0.90888 0.0
H593 H 0.1669 0.37569 0.88998 0.0
H594 H 0.11718 0.41456 0.88551 0.0
H595 H 0.11103 0.41486 0.90442 0.0
H596 H 0.13966 0.36224 0.875 0.0
H597 H 0.16073 0.44031 0.86764 0.0
H598 H 0.16118 0.42951 0.88057 0.0
H599 H 0.1382 0.43733 0.87492 0.0
C600 C 0.15133 0.38457 0.90391 0.0
C601 C 0.1354 0.39531 0.90818 0.0
C602 C 0.15483 0.38447 0.8931 0.0
C603 C 0.14262 0.39526 0.88635 0.0
C604 C 0.12702 0.40641 0.8906 0.0
H605 H 0.12463 0.40388 0.81966 0.0
H606 H 0.12496 0.40789 0.8387 0.0
C607 C 0.12346 0.40648 0.90141 0.0
C608 C 0.14525 0.39359 0.87482 0.0
H609 H 0.15375 0.4204 0.85263 0.0
C610 C 0.14294 0.37491 0.87011 0.0
C611 C 0.14941 0.41017 0.86847 0.0
C612 C 0.15271 0.43045 0.87314 0.0
C613 C 0.14412 0.37243 0.85919 0.0
C614 C 0.14817 0.38903 0.85281 0.0
C615 C 0.1507 0.40769 0.85753 0.0
C616 C 0.14902 0.38742 0.84119 0.0
C617 C 0.14029 0.35218 0.85457 0.0
C618 C 0.16278 0.37493 0.83622 0.0
C619 C 0.16257 0.3725 0.82532 0.0
C620 C 0.14871 0.38267 0.81916 0.0
C621 C 0.13547 0.39575 0.82414 0.0
C622 C 0.13564 0.3981 0.83504 0.0
H623 H 0.13262 0.34233 0.86021 0.0
H624 H 0.13122 0.35321 0.84735 0.0
H625 H 0.15459 0.34517 0.85246 0.0
H626 H 0.17354 0.36687 0.8408 0.0
H627 H 0.17309 0.36244 0.82173 0.0
H628 H 0.84555 0.90242 0.06928 0.0
H629 H 0.84281 0.9041 0.08842 0.0
H630 H 0.78433 0.87912 0.08676 0.0
H631 H 0.78689 0.87733 0.06765 0.0
H632 H 0.81264 0.92266 0.10201 0.0
H633 H 0.81669 0.84076 0.10575 0.0
H634 H 0.8241 0.85349 0.09397 0.0
H635 H 0.79838 0.85011 0.09688 0.0
C636 C 0.83202 0.89746 0.07297 0.0
C637 C 0.8165 0.88959 0.06692 0.0
C638 C 0.83048 0.89845 0.08391 0.0
C639 C 0.81348 0.89148 0.08899 0.0
C640 C 0.79768 0.88433 0.08298 0.0
H641 H 0.79036 0.86832 0.15519 0.0
H642 H 0.78698 0.87218 0.1362 0.0
C643 C 0.79916 0.88339 0.07205 0.0
C644 C 0.81263 0.89092 0.10061 0.0
H645 H 0.81223 0.85911 0.12131 0.0
C646 C 0.8125 0.9088 0.10625 0.0
C647 C 0.81238 0.87279 0.10609 0.0
C648 C 0.81304 0.85315 0.10041 0.0
C649 C 0.81204 0.90903 0.11728 0.0
C650 C 0.81219 0.89088 0.12278 0.0
C651 C 0.81206 0.87301 0.1171 0.0
C652 C 0.81334 0.88996 0.13441 0.0
C653 C 0.8111 0.92871 0.1229 0.0
C654 C 0.82926 0.89868 0.13974 0.0
C655 C 0.83117 0.8966 0.15059 0.0
C656 C 0.81733 0.88552 0.15634 0.0
C657 C 0.80127 0.87697 0.15101 0.0
C658 C 0.79932 0.87915 0.14015 0.0
H659 H 0.80474 0.94038 0.11782 0.0
H660 H 0.80213 0.92774 0.13018 0.0
H661 H 0.82628 0.93336 0.12506 0.0
H662 H 0.84056 0.90664 0.13547 0.0
H663 H 0.84381 0.90327 0.15441 0.0
H664 H 0.30542 0.59256 0.40755 0.0
H665 H 0.30034 0.59264 0.38859 0.0
H666 H 0.35019 0.55366 0.38451 0.0
H667 H 0.35536 0.55338 0.40349 0.0
H668 H 0.32859 0.60603 0.37407 0.0
H669 H 0.30742 0.52811 0.36591 0.0
H670 H 0.30624 0.53891 0.37889 0.0
H671 H 0.32952 0.531 0.37353 0.0
C672 C 0.31515 0.58375 0.40266 0.0
C673 C 0.33084 0.57298 0.40706 0.0
C674 C 0.31221 0.58383 0.39181 0.0
C675 C 0.32476 0.57302 0.38514 0.0
C676 C 0.34011 0.56183 0.38952 0.0
H677 H 0.34601 0.5648 0.31859 0.0
H678 H 0.34456 0.56038 0.33757 0.0
C679 C 0.34311 0.56177 0.40038 0.0
C680 C 0.32276 0.57473 0.3736 0.0
H681 H 0.31512 0.54807 0.35113 0.0
C682 C 0.32545 0.5934 0.36905 0.0
C683 C 0.31879 0.55821 0.36708 0.0
C684 C 0.31515 0.53793 0.37158 0.0
C685 C 0.32482 0.59593 0.35814 0.0
C686 C 0.32092 0.5794 0.3516 0.0
C687 C 0.31804 0.56074 0.35616 0.0
C688 C 0.3206 0.58109 0.33999 0.0
C689 C 0.32906 0.61617 0.35371 0.0
C690 C 0.30723 0.59379 0.33498 0.0
C691 C 0.30809 0.59646 0.32412 0.0
C692 C 0.32222 0.58631 0.31803 0.0
C693 C 0.335 0.57292 0.32303 0.0
C694 C 0.33418 0.57035 0.33389 0.0
H695 H 0.33659 0.6259 0.3595 0.0
H696 H 0.33842 0.61508 0.34657 0.0
H697 H 0.31493 0.62335 0.35152 0.0
H698 H 0.29632 0.60189 0.33951 0.0
H699 H 0.29792 0.60674 0.32052 0.0
H700 H 0.66643 0.05128 0.65777 0.0
H701 H 0.66813 0.0504 0.63857 0.0
H702 H 0.62285 0.09517 0.63704 0.0
H703 H 0.62141 0.09651 0.65612 0.0
H704 H 0.63987 0.04074 0.6245 0.0
H705 H 0.66386 0.1178 0.6176 0.0
H706 H 0.66468 0.10658 0.6304 0.0
H707 H 0.64196 0.1168 0.6255 0.0
C708 C 0.65698 0.06108 0.65334 0.0
C709 C 0.64388 0.07405 0.65849 0.0
C710 C 0.65795 0.06054 0.64237 0.0
C711 C 0.64587 0.07297 0.63635 0.0
C712 C 0.63271 0.08583 0.64149 0.0
H713 H 0.60381 0.06076 0.57317 0.0
H714 H 0.60996 0.05853 0.59199 0.0
C715 C 0.63183 0.08649 0.65243 0.0
C716 C 0.64629 0.07197 0.62471 0.0
H717 H 0.64992 0.10065 0.60284 0.0
C718 C 0.6423 0.05379 0.61976 0.0
C719 C 0.6498 0.08891 0.6185 0.0
C720 C 0.65553 0.10856 0.62327 0.0
C721 C 0.64091 0.05228 0.60879 0.0
C722 C 0.64315 0.0695 0.60263 0.0
C723 C 0.64795 0.08749 0.60756 0.0
C724 C 0.63998 0.06941 0.59111 0.0
C725 C 0.63711 0.03225 0.60392 0.0
C726 C 0.65471 0.0765 0.58433 0.0
C727 C 0.65116 0.07799 0.57357 0.0
C728 C 0.63276 0.07249 0.56935 0.0
C729 C 0.61818 0.06502 0.57613 0.0
C730 C 0.62172 0.06361 0.5869 0.0
H731 H 0.64204 0.02011 0.60914 0.0
H732 H 0.62102 0.03044 0.60261 0.0
H733 H 0.64477 0.03069 0.59625 0.0
H734 H 0.66888 0.08116 0.58741 0.0
H735 H 0.66272 0.08382 0.56858 0.0
H736 H 0.78722 0.376 0.81632 0.0
H737 H 0.78328 0.38051 0.83529 0.0
H738 H 0.844 0.39923 0.83761 0.0
H739 H 0.84799 0.3951 0.81873 0.0
H740 H 0.8036 0.36121 0.85076 0.0
H741 H 0.81589 0.44194 0.8544 0.0
H742 H 0.81085 0.43001 0.84198 0.0
H743 H 0.83538 0.42966 0.84738 0.0
C744 C 0.79967 0.38129 0.82085 0.0
C745 C 0.81791 0.38522 0.81599 0.0
C746 C 0.79739 0.38386 0.83169 0.0
C747 C 0.81324 0.39053 0.83784 0.0
C748 C 0.83141 0.39456 0.833 0.0
H749 H 0.84634 0.3982 0.90249 0.0
H750 H 0.84335 0.3998 0.8834 0.0
C751 C 0.8337 0.39203 0.82219 0.0
C752 C 0.81133 0.39199 0.84942 0.0
H753 H 0.81857 0.42316 0.87024 0.0
C754 C 0.80658 0.37482 0.85502 0.0
C755 C 0.81525 0.40976 0.85496 0.0
C756 C 0.81943 0.42894 0.84937 0.0
C757 C 0.80647 0.37471 0.86603 0.0
C758 C 0.81094 0.39235 0.87157 0.0
C759 C 0.8152 0.40965 0.86597 0.0
C760 C 0.81218 0.39283 0.88317 0.0
C761 C 0.80236 0.35554 0.87164 0.0
C762 C 0.79551 0.38889 0.88937 0.0
C763 C 0.79716 0.38794 0.90029 0.0
C764 C 0.81551 0.39098 0.9052 0.0
C765 C 0.83201 0.39569 0.89897 0.0
C766 C 0.83033 0.39664 0.88806 0.0
H767 H 0.80331 0.34255 0.86628 0.0
H768 H 0.81292 0.35339 0.87819 0.0
H769 H 0.78724 0.356 0.875 0.0
H770 H 0.78129 0.38626 0.88576 0.0
H771 H 0.78414 0.38441 0.90485 0.0
H772 H 0.34783 0.07499 0.65644 0.0
H773 H 0.34478 0.07299 0.63741 0.0
H774 H 0.28401 0.09164 0.63963 0.0
H775 H 0.28701 0.09404 0.65874 0.0
H776 H 0.31971 0.05079 0.62478 0.0
H777 H 0.30765 0.13143 0.61914 0.0
H778 H 0.31619 0.1213 0.63138 0.0
H779 H 0.29055 0.11964 0.6279 0.0
C780 C 0.33378 0.07866 0.65291 0.0
C781 C 0.3177 0.08485 0.65912 0.0
C782 C 0.33206 0.07746 0.64202 0.0
C783 C 0.31427 0.08245 0.63709 0.0
C784 C 0.298 0.08811 0.64326 0.0
H785 H 0.28775 0.09244 0.57032 0.0
H786 H 0.28468 0.08951 0.58936 0.0
C787 C 0.29972 0.08938 0.65418 0.0
C788 C 0.31302 0.08193 0.62548 0.0
H789 H 0.30665 0.11124 0.60402 0.0
C790 C 0.31678 0.06399 0.62023 0.0
C791 C 0.30919 0.09917 0.61957 0.0
C792 C 0.30582 0.11903 0.62475 0.0
C793 C 0.31691 0.06284 0.60923 0.0
C794 C 0.31345 0.08015 0.60334 0.0
C795 C 0.30926 0.09799 0.60858 0.0
C796 C 0.31493 0.08034 0.59174 0.0
C797 C 0.32068 0.0431 0.60402 0.0
C798 C 0.33296 0.07612 0.58676 0.0
C799 C 0.33479 0.0778 0.57588 0.0
C800 C 0.31863 0.08384 0.56977 0.0
C801 C 0.30048 0.08771 0.57478 0.0
C802 C 0.29869 0.08607 0.58566 0.0
H803 H 0.31759 0.03061 0.6094 0.0
H804 H 0.31148 0.04131 0.59687 0.0
H805 H 0.33643 0.04221 0.60165 0.0
H806 H 0.34579 0.07205 0.59132 0.0
H807 H 0.34899 0.07478 0.57229 0.0
H808 H 0.67787 0.60017 0.4097 0.0
H809 H 0.67946 0.59723 0.3906 0.0
H810 H 0.62476 0.56458 0.39063 0.0
H811 H 0.62281 0.56778 0.40971 0.0
H812 H 0.67981 0.56524 0.37673 0.0
H813 H 0.61257 0.6111 0.37149 0.0
H814 H 0.62514 0.6092 0.3839 0.0
H815 H 0.60886 0.58978 0.37959 0.0
C816 C 0.66624 0.59221 0.40566 0.0
C817 C 0.65008 0.58442 0.41123 0.0
C818 C 0.6672 0.59054 0.39474 0.0
C819 C 0.65202 0.58106 0.38918 0.0
C820 C 0.63639 0.57237 0.39475 0.0
H821 H 0.62518 0.5661 0.32325 0.0
H822 H 0.62707 0.56331 0.34231 0.0
C823 C 0.63536 0.57413 0.40566 0.0
C824 C 0.65217 0.58094 0.37754 0.0
H825 H 0.62602 0.59627 0.35622 0.0
C826 C 0.66808 0.57204 0.37223 0.0
C827 C 0.63691 0.58996 0.3717 0.0
C828 C 0.61999 0.60072 0.37694 0.0
C829 C 0.66893 0.57161 0.36121 0.0
C830 C 0.65358 0.58048 0.3554 0.0
C831 C 0.63771 0.58938 0.36071 0.0
C832 C 0.65361 0.58088 0.34378 0.0
C833 C 0.68604 0.56139 0.35587 0.0
C834 C 0.66798 0.59164 0.33829 0.0
C835 C 0.66693 0.59334 0.32737 0.0
C836 C 0.65144 0.58434 0.32177 0.0
C837 C 0.63732 0.57323 0.3273 0.0
C838 C 0.63835 0.5716 0.3382 0.0
H839 H 0.69415 0.55154 0.36132 0.0
H840 H 0.68088 0.55251 0.34905 0.0
H841 H 0.69653 0.57271 0.35293 0.0
H842 H 0.67969 0.5992 0.34247 0.0
H843 H 0.67801 0.60204 0.32335 0.0
H844 H 0.17055 0.86427 0.15469 0.0
H845 H 0.17194 0.86917 0.13569 0.0
H846 H 0.1274 0.91457 0.1382 0.0
H847 H 0.12618 0.91009 0.15714 0.0
H848 H 0.14146 0.86326 0.1222 0.0
H849 H 0.16719 0.9408 0.11911 0.0
H850 H 0.16908 0.92683 0.13109 0.0
H851 H 0.14608 0.93827 0.12751 0.0
C852 C 0.16129 0.87553 0.15122 0.0
C853 C 0.14825 0.88678 0.15745 0.0
C854 C 0.16209 0.8783 0.14036 0.0
C855 C 0.14997 0.89243 0.13554 0.0
C856 C 0.13724 0.90393 0.14176 0.0
H857 H 0.11083 0.91679 0.07254 0.0
H858 H 0.11689 0.91657 0.09148 0.0
C859 C 0.13646 0.90122 0.15261 0.0
C860 C 0.14934 0.89397 0.12394 0.0
H861 H 0.15278 0.92661 0.10364 0.0
C862 C 0.14419 0.87705 0.11813 0.0
C863 C 0.15279 0.91202 0.11865 0.0
C864 C 0.15928 0.93046 0.1244 0.0
C865 C 0.14186 0.87779 0.10722 0.0
C866 C 0.14498 0.89589 0.10196 0.0
C867 C 0.15035 0.91278 0.10772 0.0
C868 C 0.14245 0.89747 0.09047 0.0
C869 C 0.13552 0.85933 0.10142 0.0
C870 C 0.15515 0.88724 0.08365 0.0
C871 C 0.15177 0.88734 0.07285 0.0
C872 C 0.13559 0.8977 0.06867 0.0
C873 C 0.12335 0.9086 0.0755 0.0
C874 C 0.1268 0.90852 0.08632 0.0
H875 H 0.12986 0.84779 0.10682 0.0
H876 H 0.12385 0.86281 0.0956 0.0
H877 H 0.14836 0.8531 0.0971 0.0
H878 H 0.16747 0.87884 0.08671 0.0
H879 H 0.16157 0.87888 0.06782 0.0
H880 H 0.81399 0.59928 0.06979 0.0
H881 H 0.80972 0.5981 0.08879 0.0
H882 H 0.84845 0.54755 0.09025 0.0
H883 H 0.85314 0.54882 0.07122 0.0
H884 H 0.79613 0.56892 0.10239 0.0
H885 H 0.87483 0.58732 0.10996 0.0
H886 H 0.8638 0.58962 0.09717 0.0
H887 H 0.87102 0.56572 0.10196 0.0
C888 C 0.82153 0.58781 0.07412 0.0
C889 C 0.8341 0.57427 0.06899 0.0
C890 C 0.81903 0.58714 0.08499 0.0
C891 C 0.82904 0.57297 0.09095 0.0
C892 C 0.84091 0.55887 0.08582 0.0
H893 H 0.84165 0.56064 0.15847 0.0
H894 H 0.84093 0.55431 0.1396 0.0
C895 C 0.84349 0.55956 0.07494 0.0
C896 C 0.82759 0.57352 0.10255 0.0
H897 H 0.85482 0.58105 0.12472 0.0
C898 C 0.80896 0.57151 0.10728 0.0
C899 C 0.84435 0.57699 0.10891 0.0
C900 C 0.86462 0.58022 0.10427 0.0
C901 C 0.80664 0.57279 0.11822 0.0
C902 C 0.82338 0.57644 0.12455 0.0
C903 C 0.84203 0.57818 0.11983 0.0
C904 C 0.82194 0.57912 0.13607 0.0
C905 C 0.78637 0.57009 0.12291 0.0
C906 C 0.81135 0.5951 0.14037 0.0
C907 C 0.81173 0.59879 0.15117 0.0
C908 C 0.82283 0.58664 0.15786 0.0
C909 C 0.83296 0.57032 0.15355 0.0
C910 C 0.83258 0.56666 0.14276 0.0
H911 H 0.77626 0.5623 0.11742 0.0
H912 H 0.78713 0.56163 0.13034 0.0
H913 H 0.77992 0.58484 0.1247 0.0
H914 H 0.80334 0.60512 0.13532 0.0
H915 H 0.80382 0.61152 0.15422 0.0
H916 H 0.12063 0.06602 0.81789 0.0
H917 H 0.12144 0.06191 0.83688 0.0
H918 H 0.17144 0.10127 0.83881 0.0
H919 H 0.17052 0.1058 0.81978 0.0
H920 H 0.15041 0.04841 0.85043 0.0
H921 H 0.13164 0.12704 0.85868 0.0
H922 H 0.12952 0.11621 0.84577 0.0
H923 H 0.15328 0.12353 0.85072 0.0
C924 C 0.13188 0.07376 0.82232 0.0
C925 C 0.14539 0.08642 0.81731 0.0
C926 C 0.13233 0.07135 0.83319 0.0
C927 C 0.14627 0.08155 0.83928 0.0
C928 C 0.16028 0.09359 0.83428 0.0
H929 H 0.1601 0.09245 0.90684 0.0
H930 H 0.16557 0.09249 0.8879 0.0
C931 C 0.1598 0.09608 0.8234 0.0
C932 C 0.14568 0.07992 0.85087 0.0
H933 H 0.13826 0.10682 0.87328 0.0
C934 C 0.14779 0.06117 0.85544 0.0
C935 C 0.14218 0.0966 0.85738 0.0
C936 C 0.13884 0.11696 0.85291 0.0
C937 C 0.14661 0.05868 0.86635 0.0
C938 C 0.14299 0.07533 0.87283 0.0
C939 C 0.14111 0.09409 0.86828 0.0
C940 C 0.1406 0.07369 0.88435 0.0
C941 C 0.14943 0.03829 0.87087 0.0
C942 C 0.12479 0.06299 0.88864 0.0
C943 C 0.12157 0.06294 0.89949 0.0
C944 C 0.13408 0.07368 0.90622 0.0
C945 C 0.15017 0.08401 0.90189 0.0
C946 C 0.15334 0.08407 0.89107 0.0
H947 H 0.15702 0.02821 0.86525 0.0
H948 H 0.15812 0.03897 0.87823 0.0
H949 H 0.13477 0.03184 0.87272 0.0
H950 H 0.11457 0.05517 0.88358 0.0
H951 H 0.10901 0.0549 0.90255 0.0
H952 H 0.61783 0.39064 0.57171 0.0
H953 H 0.61996 0.39572 0.59061 0.0
H954 H 0.6833 0.40084 0.58826 0.0
H955 H 0.68134 0.39524 0.56931 0.0
H956 H 0.67298 0.37618 0.60363 0.0
H957 H 0.62931 0.44486 0.60777 0.0
H958 H 0.61575 0.42604 0.60093 0.0
H959 H 0.63799 0.43592 0.59521 0.0
C960 C 0.63222 0.3931 0.57517 0.0
C961 C 0.64942 0.39255 0.56898 0.0
C962 C 0.63339 0.39614 0.58599 0.0
C963 C 0.65175 0.39902 0.59085 0.0
C964 C 0.66895 0.39878 0.58468 0.0
H965 H 0.65484 0.4296 0.65781 0.0
H966 H 0.66009 0.43034 0.63881 0.0
C967 C 0.6678 0.3956 0.57384 0.0
C968 C 0.65302 0.40089 0.60245 0.0
H969 H 0.63353 0.42568 0.62346 0.0
C970 C 0.66456 0.38718 0.60795 0.0
C971 C 0.64233 0.41545 0.60812 0.0
C972 C 0.63083 0.43153 0.60269 0.0
C973 C 0.665 0.38707 0.61896 0.0
C974 C 0.65318 0.40072 0.62463 0.0
C975 C 0.64236 0.41502 0.61913 0.0
C976 C 0.65118 0.39994 0.63622 0.0
C977 C 0.67813 0.3723 0.62439 0.0
C978 C 0.64438 0.38265 0.64109 0.0
C979 C 0.64151 0.38213 0.65194 0.0
C980 C 0.6451 0.39902 0.65815 0.0
C981 C 0.65196 0.41633 0.65326 0.0
C982 C 0.65495 0.41679 0.6424 0.0
H983 H 0.69072 0.36781 0.61931 0.0
H984 H 0.68406 0.37839 0.63185 0.0
H985 H 0.66945 0.3588 0.62619 0.0
H986 H 0.64085 0.36963 0.63648 0.0
H987 H 0.63605 0.36861 0.65543 0.0
H988 H 0.29765 0.86583 0.32273 0.0
H989 H 0.29757 0.87083 0.34176 0.0
H990 H 0.34641 0.91141 0.33893 0.0
H991 H 0.34639 0.90682 0.31995 0.0
H992 H 0.32797 0.86201 0.35496 0.0
H993 H 0.30982 0.94172 0.35841 0.0
H994 H 0.30611 0.92781 0.34645 0.0
H995 H 0.33026 0.93696 0.34979 0.0
C996 C 0.30818 0.87605 0.32614 0.0
C997 C 0.32202 0.88592 0.31981 0.0
C998 C 0.30812 0.87888 0.33702 0.0
C999 C 0.3218 0.89171 0.34176 0.0
C1000 C 0.33541 0.90182 0.33544 0.0
H1001 H 0.36404 0.91398 0.40457 0.0
H1002 H 0.35756 0.91391 0.38567 0.0
C1003 C 0.33546 0.89904 0.32458 0.0
C1004 C 0.32295 0.89331 0.35335 0.0
H1005 H 0.32298 0.92632 0.37375 0.0
C1006 C 0.32664 0.87603 0.35908 0.0
C1007 C 0.32132 0.91164 0.3587 0.0
C1008 C 0.31647 0.93056 0.35304 0.0
C1009 C 0.32928 0.87666 0.36998 0.0
C1010 C 0.32794 0.89502 0.37531 0.0
C1011 C 0.32404 0.91228 0.36962 0.0
C1012 C 0.33085 0.8965 0.3868 0.0
C1013 C 0.33409 0.85774 0.37568 0.0
C1014 C 0.31767 0.88719 0.39368 0.0
C1015 C 0.32132 0.88719 0.40446 0.0
C1016 C 0.33821 0.89655 0.40856 0.0
C1017 C 0.35095 0.90656 0.40167 0.0
C1018 C 0.34727 0.90657 0.39087 0.0
H1019 H 0.33881 0.84579 0.37021 0.0
H1020 H 0.34597 0.86023 0.38152 0.0
H1021 H 0.32076 0.85256 0.37993 0.0
H1022 H 0.30475 0.87961 0.39069 0.0
H1023 H 0.31111 0.87945 0.40954 0.0
H1024 H 0.06963 0.58639 0.04821 0.0
H1025 H 0.0338 0.58285 0.0507 0.0
H1026 H 0.02448 0.59696 0.01816 0.0
H1027 H 0.05991 0.60045 0.01558 0.0
H1028 H 0.00401 0.61236 0.04679 0.0
H1029 H -0.00702 0.54535 0.02234 0.0
H1030 H 0.01687 0.55255 0.02734 0.0
H1031 H 0.00706 0.5641 0.01579 0.0
C1032 C 0.05993 0.5886 0.04158 0.0
C1033 C 0.06765 0.59366 0.03169 0.0
C1034 C 0.0395 0.58659 0.04302 0.0
C1035 C 0.02656 0.58934 0.03457 0.0
C1036 C 0.03424 0.59439 0.02473 0.0
H1037 H 0.90914 0.60521 0.01568 0.0
H1038 H 0.94449 0.60096 0.01843 0.0
C1039 C 0.05454 0.5965 0.0233 0.0
C1040 C 0.00489 0.58785 0.03595 0.0
H1041 H 0.96425 0.56552 0.02544 0.0
C1042 C -0.00473 0.60186 0.04232 0.0
C1043 C -0.00641 0.57408 0.03012 0.0
C1044 C 0.00315 0.55803 0.02359 0.0
C1045 C 0.97456 0.60333 0.04244 0.0
C1046 C 0.96332 0.59028 0.03612 0.0
C1047 C 0.97294 0.57559 0.03021 0.0
C1048 C 0.94177 0.59279 0.03474 0.0
C1049 C 0.9649 0.6195 0.04883 0.0
C1050 C 0.9285 0.5895 0.04301 0.0
C1051 C 0.90817 0.59191 0.04147 0.0
C1052 C 0.90082 0.59764 0.03163 0.0
C1053 C 0.91424 0.60084 0.02337 0.0
C1054 C 0.93447 0.59838 0.02491 0.0
H1055 H 0.97584 0.63008 0.05212 0.0
H1056 H 0.9542 0.62782 0.04396 0.0
H1057 H 0.95661 0.61281 0.05544 0.0
H1058 H 0.93385 0.58493 0.05062 0.0
H1059 H 0.89823 0.58926 0.04798 0.0
H1060 H 0.63366 0.64721 0.29922 0.0
H1061 H 0.6361 0.68329 0.30105 0.0
H1062 H 0.61978 0.68998 0.2686 0.0
H1063 H 0.61746 0.65415 0.26666 0.0
H1064 H 0.65366 0.71215 0.27493 0.0
H1065 H 0.58955 0.7233 0.30179 0.0
H1066 H 0.60785 0.70544 0.30559 0.0
H1067 H 0.59286 0.70082 0.29427 0.0
C1068 C 0.63053 0.65637 0.29249 0.0
C1069 C 0.62531 0.64777 0.2828 0.0
C1070 C 0.63185 0.67697 0.29356 0.0
C1071 C 0.62794 0.68927 0.28498 0.0
C1072 C 0.62282 0.68073 0.27532 0.0
H1073 H 0.61475 0.806 0.26383 0.0
H1074 H 0.61873 0.77074 0.26702 0.0
C1075 C 0.62148 0.66022 0.27424 0.0
C1076 C 0.62942 0.71108 0.28586 0.0
H1077 H 0.60609 0.75181 0.29594 0.0
C1078 C 0.64342 0.72082 0.27962 0.0
C1079 C 0.61614 0.72233 0.29206 0.0
C1080 C 0.60064 0.71255 0.29878 0.0
C1081 C 0.64402 0.74153 0.2791 0.0
C1082 C 0.63007 0.75276 0.28486 0.0
C1083 C 0.61672 0.7431 0.29153 0.0
C1084 C 0.62781 0.77429 0.28317 0.0
C1085 C 0.65931 0.75124 0.27222 0.0
C1086 C 0.63119 0.78797 0.29128 0.0
C1087 C 0.62893 0.8083 0.28949 0.0
C1088 C 0.62301 0.81517 0.27958 0.0
C1089 C 0.61938 0.80129 0.27154 0.0
C1090 C 0.62174 0.7811 0.27333 0.0
H1091 H 0.67217 0.74135 0.27081 0.0
H1092 H 0.65261 0.75467 0.2645 0.0
H1093 H 0.66464 0.7653 0.27576 0.0
H1094 H 0.63574 0.78294 0.29896 0.0
H1095 H 0.63179 0.81859 0.29585 0.0
H1096 H 0.3955 0.38173 0.54601 0.0
H1097 H 0.4314 0.38478 0.54818 0.0
H1098 H 0.44019 0.36192 0.51689 0.0
H1099 H 0.40463 0.3589 0.51461 0.0
H1100 H 0.46108 0.35424 0.54618 0.0
H1101 H 0.47166 0.41434 0.51733 0.0
H1102 H 0.44785 0.40847 0.52292 0.0
H1103 H 0.45763 0.39388 0.51227 0.0
C1104 C 0.40509 0.3774 0.53959 0.0
C1105 C 0.39717 0.37017 0.53011 0.0
C1106 C 0.42557 0.37914 0.54085 0.0
C1107 C 0.43838 0.37388 0.53263 0.0
C1108 C 0.43053 0.36642 0.52325 0.0
H1109 H 0.55797 0.35766 0.51575 0.0
H1110 H 0.52225 0.36044 0.51773 0.0
C1111 C 0.41016 0.36461 0.52199 0.0
C1112 C 0.46005 0.3757 0.53378 0.0
H1113 H 0.50056 0.39605 0.52209 0.0
C1114 C 0.46976 0.36363 0.54106 0.0
C1115 C 0.47126 0.38804 0.52712 0.0
C1116 C 0.46157 0.40207 0.51954 0.0
C1117 C 0.49048 0.3627 0.5414 0.0
C1118 C 0.50166 0.37432 0.53436 0.0
C1119 C 0.49193 0.38706 0.52743 0.0
C1120 C 0.52338 0.37245 0.53348 0.0
C1121 C 0.50027 0.34858 0.54889 0.0
C1122 C 0.53586 0.37835 0.54168 0.0
C1123 C 0.55639 0.37679 0.54058 0.0
C1124 C 0.56473 0.36933 0.53124 0.0
C1125 C 0.55209 0.36343 0.52306 0.0
C1126 C 0.53165 0.36504 0.52416 0.0
H1127 H 0.48949 0.33837 0.5526 0.0
H1128 H 0.5117 0.33967 0.54476 0.0
H1129 H 0.5077 0.35715 0.55519 0.0
H1130 H 0.52975 0.38436 0.54888 0.0
H1131 H 0.56569 0.38152 0.54702 0.0
H1132 H 0.85738 0.30894 0.76225 0.0
H1133 H 0.85595 0.27316 0.76458 0.0
H1134 H 0.83688 0.28141 0.79659 0.0
H1135 H 0.83808 0.31739 0.79432 0.0
H1136 H 0.87736 0.25086 0.77955 0.0
H1137 H 0.79608 0.24203 0.78424 0.0
H1138 H 0.80701 0.26407 0.77878 0.0
H1139 H 0.80791 0.25987 0.79266 0.0
C1140 C 0.85277 0.30321 0.76978 0.0
C1141 C 0.84781 0.31607 0.77809 0.0
C1142 C 0.85198 0.28274 0.7711 0.0
C1143 C 0.84614 0.27465 0.78072 0.0
C1144 C 0.84113 0.28736 0.78905 0.0
H1145 H 0.83629 0.14765 0.79527 0.0
H1146 H 0.83637 0.18384 0.79717 0.0
C1147 C 0.84193 0.30792 0.78774 0.0
C1148 C 0.84596 0.25287 0.782 0.0
H1149 H 0.8154 0.21306 0.785 0.0
C1150 C 0.86384 0.2426 0.78082 0.0
C1151 C 0.82831 0.24217 0.78374 0.0
C1152 C 0.80867 0.2525 0.78487 0.0
C1153 C 0.86449 0.22187 0.78108 0.0
C1154 C 0.84675 0.21112 0.78238 0.0
C1155 C 0.82896 0.22137 0.78398 0.0
C1156 C 0.84626 0.18929 0.78131 0.0
C1157 C 0.88417 0.21162 0.77987 0.0
C1158 C 0.85141 0.18046 0.77171 0.0
C1159 C 0.85137 0.15992 0.77059 0.0
C1160 C 0.84608 0.14771 0.77905 0.0
C1161 C 0.84053 0.15661 0.78862 0.0
C1162 C 0.84055 0.17726 0.78972 0.0
H1163 H 0.89661 0.2216 0.78197 0.0
H1164 H 0.88494 0.19819 0.78483 0.0
H1165 H 0.88615 0.20702 0.77156 0.0
H1166 H 0.8555 0.18951 0.76506 0.0
H1167 H 0.8556 0.15363 0.76309 0.0
H1168 H 0.90111 0.3856 0.92724 0.0
H1169 H 0.93709 0.38748 0.92533 0.0
H1170 H 0.94401 0.37023 0.95761 0.0
H1171 H 0.90823 0.36845 0.95964 0.0
H1172 H 0.96659 0.40404 0.95145 0.0
H1173 H 0.97622 0.34017 0.9241 0.0
H1174 H 0.95856 0.35879 0.92048 0.0
H1175 H 0.95401 0.34367 0.93175 0.0
C1176 C 0.91029 0.38215 0.93392 0.0
C1177 C 0.90177 0.37683 0.94359 0.0
C1178 C 0.93084 0.38315 0.9328 0.0
C1179 C 0.94318 0.37881 0.9413 0.0
C1180 C 0.93472 0.3736 0.95095 0.0
H1181 H 0.06054 0.36449 0.96135 0.0
H1182 H 0.02524 0.36855 0.95854 0.0
C1183 C 0.91425 0.37256 0.95208 0.0
C1184 C 0.96494 0.37998 0.94035 0.0
H1185 H 0.00502 0.3565 0.92974 0.0
C1186 C 0.975 0.39379 0.94662 0.0
C1187 C 0.97583 0.3667 0.93397 0.0
C1188 C 0.96571 0.35138 0.92722 0.0
C1189 C -0.00432 0.39425 0.94695 0.0
C1190 C 0.00657 0.38032 0.94098 0.0
C1191 C -0.00342 0.36713 0.93431 0.0
C1192 C 0.02811 0.37793 0.94242 0.0
C1193 C 0.00573 0.40937 0.95385 0.0
C1194 C 0.04142 0.38144 0.93419 0.0
C1195 C 0.06178 0.37913 0.93576 0.0
C1196 C 0.06904 0.37304 0.94556 0.0
C1197 C 0.05553 0.36926 0.95371 0.0
C1198 C 0.03532 0.37167 0.95214 0.0
H1199 H -0.00401 0.42228 0.95545 0.0
H1200 H 0.00945 0.40248 0.96148 0.0
H1201 H 0.01964 0.41471 0.95021 0.0
H1202 H 0.03608 0.38615 0.9266 0.0
H1203 H 0.07178 0.38209 0.92932 0.0
H1204 H 0.8561 0.81306 0.20951 0.0
H1205 H 0.85276 0.77739 0.20734 0.0
H1206 H 0.83211 0.78551 0.17571 0.0
H1207 H 0.83549 0.82152 0.17776 0.0
H1208 H 0.81714 0.75612 0.20189 0.0
H1209 H 0.87841 0.74467 0.17322 0.0
H1210 H 0.87657 0.76679 0.18118 0.0
H1211 H 0.86018 0.76323 0.17031 0.0
C1212 C 0.8509 0.80736 0.20205 0.0
C1213 C 0.84612 0.82019 0.19379 0.0
C1214 C 0.84897 0.78693 0.20085 0.0
C1215 C 0.84234 0.77883 0.19135 0.0
C1216 C 0.83748 0.7915 0.18306 0.0
H1217 H 0.83738 0.65021 0.17936 0.0
H1218 H 0.83358 0.68598 0.17682 0.0
C1219 C 0.83936 0.81205 0.18427 0.0
C1220 C 0.8404 0.75708 0.19037 0.0
H1221 H 0.86251 0.71628 0.17963 0.0
C1222 C 0.82688 0.7474 0.19692 0.0
C1223 C 0.85303 0.74578 0.18383 0.0
C1224 C 0.86798 0.75553 0.17675 0.0
C1225 C 0.82612 0.72669 0.19739 0.0
C1226 C 0.8395 0.71538 0.19129 0.0
C1227 C 0.85234 0.72502 0.18433 0.0
C1228 C 0.84153 0.69374 0.19274 0.0
C1229 C 0.81123 0.71708 0.20456 0.0
C1230 C 0.84756 0.68634 0.20247 0.0
C1231 C 0.84979 0.66602 0.20394 0.0
C1232 C 0.84612 0.65263 0.19569 0.0
C1233 C 0.84026 0.6601 0.18589 0.0
C1234 C 0.83809 0.68051 0.18442 0.0
H1235 H 0.79847 0.72702 0.20613 0.0
H1236 H 0.80566 0.70298 0.20116 0.0
H1237 H 0.81835 0.71376 0.21218 0.0
H1238 H 0.85068 0.69633 0.20893 0.0
H1239 H 0.85441 0.66083 0.21158 0.0
H1240 H 0.40242 0.60537 0.46137 0.0
H1241 H 0.43794 0.60195 0.45907 0.0
H1242 H 0.42922 0.58144 0.42734 0.0
H1243 H 0.39334 0.58494 0.42953 0.0
H1244 H 0.45901 0.56649 0.45349 0.0
H1245 H 0.47001 0.62751 0.42482 0.0
H1246 H 0.44799 0.62568 0.43276 0.0
H1247 H 0.45157 0.60912 0.42188 0.0
C1248 C 0.40795 0.60017 0.45387 0.0
C1249 C 0.39498 0.59548 0.44562 0.0
C1250 C 0.4283 0.5982 0.45258 0.0
C1251 C 0.4362 0.59159 0.44302 0.0
C1252 C 0.4234 0.5868 0.43474 0.0
H1253 H 0.56479 0.58627 0.43155 0.0
H1254 H 0.52916 0.5822 0.42875 0.0
C1255 C 0.40292 0.58874 0.43603 0.0
C1256 C 0.45789 0.58962 0.44196 0.0
H1257 H 0.49845 0.61179 0.43124 0.0
C1258 C 0.46764 0.5762 0.44851 0.0
C1259 C 0.46906 0.60221 0.43541 0.0
C1260 C 0.45924 0.61706 0.42834 0.0
C1261 C 0.48831 0.57557 0.44901 0.0
C1262 C 0.49948 0.58894 0.44291 0.0
C1263 C 0.48979 0.60162 0.43593 0.0
C1264 C 0.52102 0.59126 0.44447 0.0
C1265 C 0.49802 0.56091 0.45623 0.0
C1266 C 0.52813 0.598 0.45416 0.0
C1267 C 0.54835 0.60042 0.45578 0.0
C1268 C 0.56193 0.59617 0.44771 0.0
C1269 C 0.55474 0.58959 0.43794 0.0
C1270 C 0.53441 0.58727 0.43632 0.0
H1271 H 0.48816 0.54817 0.4579 0.0
H1272 H 0.51204 0.55525 0.45281 0.0
H1273 H 0.50146 0.56832 0.46379 0.0
H1274 H 0.51799 0.60151 0.46049 0.0
H1275 H 0.55332 0.60558 0.46338 0.0
H1276 H 0.61202 0.15619 0.71623 0.0
H1277 H 0.61342 0.19223 0.71513 0.0
H1278 H 0.6315 0.18788 0.68276 0.0
H1279 H 0.62992 0.15175 0.68372 0.0
H1280 H 0.64584 0.21635 0.70998 0.0
H1281 H 0.58406 0.22575 0.68179 0.0
H1282 H 0.58818 0.20296 0.68878 0.0
H1283 H 0.60326 0.20909 0.67765 0.0
C1284 C 0.61625 0.16285 0.70885 0.0
C1285 C 0.62076 0.15105 0.70004 0.0
C1286 C 0.61706 0.18346 0.70825 0.0
C1287 C 0.6223 0.19271 0.69883 0.0
C1288 C 0.62706 0.18103 0.69005 0.0
H1289 H 0.63033 0.31816 0.68314 0.0
H1290 H 0.63199 0.28197 0.68264 0.0
C1291 C 0.62624 0.16038 0.69064 0.0
C1292 C 0.623 0.21459 0.6983 0.0
H1293 H 0.60145 0.25461 0.68676 0.0
C1294 C 0.63615 0.22473 0.7049 0.0
C1295 C 0.6104 0.22544 0.69162 0.0
C1296 C 0.59555 0.21532 0.68461 0.0
C1297 C 0.63703 0.24547 0.70503 0.0
C1298 C 0.62416 0.25634 0.69851 0.0
C1299 C 0.61128 0.24621 0.69176 0.0
C1300 C 0.62338 0.27824 0.69885 0.0
C1301 C 0.65183 0.25558 0.71208 0.0
C1302 C 0.61773 0.28808 0.70809 0.0
C1303 C 0.61675 0.30872 0.70841 0.0
C1304 C 0.6213 0.31993 0.69947 0.0
C1305 C 0.62678 0.30999 0.69018 0.0
C1306 C 0.62773 0.28932 0.68987 0.0
H1307 H 0.66401 0.24544 0.71431 0.0
H1308 H 0.65827 0.2688 0.70822 0.0
H1309 H 0.64431 0.26052 0.71938 0.0
H1310 H 0.61393 0.27977 0.71505 0.0
H1311 H 0.61238 0.31586 0.71568 0.0
H1312 H 0.35728 0.31293 0.71428 0.0
H1313 H 0.35519 0.2769 0.71326 0.0
H1314 H 0.33708 0.28065 0.68095 0.0
H1315 H 0.33931 0.31679 0.68183 0.0
H1316 H 0.32182 0.25347 0.70812 0.0
H1317 H 0.38391 0.2416 0.68014 0.0
H1318 H 0.3804 0.26463 0.68714 0.0
H1319 H 0.36518 0.25873 0.67604 0.0
C1320 C 0.35292 0.30614 0.70693 0.0
C1321 C 0.34855 0.31778 0.69812 0.0
C1322 C 0.3517 0.28554 0.70638 0.0
C1323 C 0.34621 0.27612 0.697 0.0
C1324 C 0.34167 0.28763 0.68821 0.0
H1325 H 0.33807 0.14935 0.68287 0.0
H1326 H 0.33618 0.18548 0.68169 0.0
C1327 C 0.34287 0.30828 0.68875 0.0
C1328 C 0.34501 0.25425 0.69656 0.0
H1329 H 0.36629 0.21329 0.68552 0.0
C1330 C 0.33149 0.24467 0.70316 0.0
C1331 C 0.35757 0.24285 0.69002 0.0
C1332 C 0.37271 0.25239 0.68298 0.0
C1333 C 0.33031 0.22395 0.70348 0.0
C1334 C 0.34325 0.21254 0.69717 0.0
C1335 C 0.35641 0.22211 0.69036 0.0
C1336 C 0.34401 0.19068 0.6979 0.0
C1337 C 0.31516 0.21447 0.71055 0.0
C1338 C 0.34928 0.18168 0.70738 0.0
C1339 C 0.35039 0.1611 0.70809 0.0
C1340 C 0.34636 0.14908 0.69931 0.0
C1341 C 0.34121 0.15816 0.68979 0.0
C1342 C 0.34013 0.17879 0.68909 0.0
H1343 H 0.3029 0.22481 0.71244 0.0
H1344 H 0.30889 0.20092 0.70688 0.0
H1345 H 0.32232 0.21021 0.71802 0.0
H1346 H 0.35275 0.19061 0.71421 0.0
H1347 H 0.3545 0.15464 0.71553 0.0
H1348 H 0.1353 0.65361 0.1799 0.0
H1349 H 0.13847 0.68958 0.17785 0.0
H1350 H 0.12118 0.69803 0.21012 0.0
H1351 H 0.11808 0.66239 0.21228 0.0
H1352 H 0.10862 0.71898 0.18124 0.0
H1353 H 0.1726 0.73019 0.20757 0.0
H1354 H 0.16605 0.70623 0.20227 0.0
H1355 H 0.15314 0.71605 0.21349 0.0
C1356 C 0.13229 0.66313 0.18658 0.0
C1357 C 0.1265 0.65509 0.19627 0.0
C1358 C 0.13409 0.68366 0.18538 0.0
C1359 C 0.13037 0.69641 0.19388 0.0
C1360 C 0.12451 0.68842 0.20352 0.0
H1361 H 0.11459 0.81577 0.21185 0.0
H1362 H 0.11818 0.78008 0.20965 0.0
C1363 C 0.12263 0.66801 0.20471 0.0
C1364 C 0.13181 0.71816 0.19273 0.0
H1365 H 0.15319 0.75897 0.20376 0.0
C1366 C 0.1186 0.72777 0.186 0.0
C1367 C 0.14491 0.72952 0.19894 0.0
C1368 C 0.16012 0.71997 0.2059 0.0
C1369 C 0.11731 0.74852 0.18579 0.0
C1370 C 0.12975 0.75985 0.19239 0.0
C1371 C 0.14359 0.75023 0.19876 0.0
C1372 C 0.12762 0.78158 0.19347 0.0
C1373 C 0.10199 0.75816 0.17893 0.0
C1374 C 0.13187 0.79427 0.18509 0.0
C1375 C 0.12982 0.81478 0.18631 0.0
C1376 C 0.12354 0.8229 0.19595 0.0
C1377 C 0.11941 0.81007 0.20431 0.0
C1378 C 0.12149 0.78964 0.20309 0.0
H1379 H 0.09142 0.74723 0.17562 0.0
H1380 H 0.09359 0.76948 0.18344 0.0
H1381 H 0.10945 0.76574 0.17232 0.0
H1382 H 0.1369 0.78834 0.17764 0.0
H1383 H 0.13321 0.82425 0.17972 0.0
H1384 H 0.13101 0.14957 0.7948 0.0
H1385 H 0.13218 0.1856 0.79724 0.0
H1386 H 0.11336 0.19365 0.76527 0.0
H1387 H 0.11201 0.1579 0.76276 0.0
H1388 H 0.15417 0.21466 0.78563 0.0
H1389 H 0.07338 0.22629 0.78266 0.0
H1390 H 0.08416 0.20231 0.7851 0.0
H1391 H 0.08341 0.212 0.772 0.0
C1392 C 0.1271 0.15901 0.78829 0.0
C1393 C 0.12127 0.15082 0.7786 0.0
C1394 C 0.1278 0.17958 0.7897 0.0
C1395 C 0.12254 0.19224 0.78149 0.0
C1396 C 0.11711 0.18412 0.77178 0.0
H1397 H 0.1167 0.31234 0.76355 0.0
H1398 H 0.11703 0.27653 0.76571 0.0
C1399 C 0.11643 0.16365 0.77035 0.0
C1400 C 0.12282 0.21401 0.78291 0.0
H1401 H 0.09372 0.25496 0.78061 0.0
C1402 C 0.14094 0.22352 0.78471 0.0
C1403 C 0.10549 0.22545 0.78176 0.0
C1404 C 0.08547 0.21601 0.78038 0.0
C1405 C 0.14233 0.24428 0.78479 0.0
C1406 C 0.12512 0.25569 0.78315 0.0
C1407 C 0.1069 0.24615 0.7818 0.0
C1408 C 0.12581 0.27747 0.78199 0.0
C1409 C 0.16229 0.25387 0.78613 0.0
C1410 C 0.13065 0.28989 0.79046 0.0
C1411 C 0.13046 0.31049 0.78927 0.0
C1412 C 0.12537 0.31896 0.77958 0.0
C1413 C 0.12069 0.30638 0.77112 0.0
C1414 C 0.12085 0.28588 0.77233 0.0
H1415 H 0.17451 0.24294 0.78569 0.0
H1416 H 0.16467 0.26529 0.78002 0.0
H1417 H 0.16292 0.26134 0.79389 0.0
H1418 H 0.13426 0.28367 0.79803 0.0
H1419 H 0.1341 0.31975 0.79595 0.0
H1420 H 0.35631 0.66112 0.26544 0.0
H1421 H 0.35202 0.69653 0.26826 0.0
H1422 H 0.33315 0.68595 0.30004 0.0
H1423 H 0.33742 0.65017 0.29732 0.0
H1424 H 0.31518 0.71606 0.27509 0.0
H1425 H 0.37899 0.72832 0.30192 0.0
H1426 H 0.37755 0.7069 0.29342 0.0
H1427 H 0.36198 0.70856 0.30478 0.0
C1428 C 0.3513 0.66622 0.27307 0.0
C1429 C 0.34725 0.65276 0.28117 0.0
C1430 C 0.34883 0.6865 0.27464 0.0
C1431 C 0.34239 0.69382 0.28436 0.0
C1432 C 0.33832 0.68055 0.29251 0.0
H1433 H 0.33622 0.82197 0.29775 0.0
H1434 H 0.33327 0.78608 0.30019 0.0
C1435 C 0.34071 0.66014 0.29093 0.0
C1436 C 0.3398 0.71543 0.28573 0.0
H1437 H 0.36196 0.75647 0.29609 0.0
C1438 C 0.32521 0.7249 0.2798 0.0
C1439 C 0.35282 0.72685 0.29195 0.0
C1440 C 0.36881 0.71727 0.29837 0.0
C1441 C 0.32378 0.74559 0.2796 0.0
C1442 C 0.33757 0.75709 0.2853 0.0
C1443 C 0.35148 0.7476 0.29169 0.0
C1444 C 0.33894 0.7788 0.28393 0.0
C1445 C 0.30774 0.75498 0.27311 0.0
C1446 C 0.3434 0.78652 0.27402 0.0
C1447 C 0.34513 0.8069 0.27259 0.0
C1448 C 0.34255 0.82004 0.28108 0.0
C1449 C 0.33823 0.81226 0.29104 0.0
C1450 C 0.33654 0.79179 0.29246 0.0
H1451 H 0.29502 0.74479 0.27204 0.0
H1452 H 0.30237 0.76892 0.27678 0.0
H1453 H 0.31371 0.7585 0.26523 0.0
H1454 H 0.34574 0.77673 0.26737 0.0
H1455 H 0.34857 0.81231 0.26482 0.0
H1456 H 0.41004 0.10809 0.51446 0.0
H1457 H 0.44592 0.10719 0.51607 0.0
H1458 H 0.44047 0.08753 0.54805 0.0
H1459 H 0.40441 0.08821 0.54651 0.0
H1460 H 0.46908 0.12873 0.53076 0.0
H1461 H 0.47924 0.04734 0.53458 0.0
H1462 H 0.45671 0.05812 0.52967 0.0
H1463 H 0.46193 0.05874 0.54346 0.0
C1464 C 0.41641 0.10347 0.52184 0.0
C1465 C 0.40431 0.09818 0.53036 0.0
C1466 C 0.43694 0.10299 0.52274 0.0
C1467 C 0.44583 0.09711 0.53214 0.0
C1468 C 0.43387 0.09181 0.54067 0.0
H1469 H 0.5727 0.08815 0.54568 0.0
H1470 H 0.53664 0.08781 0.54752 0.0
C1471 C 0.41328 0.0923 0.53979 0.0
C1472 C 0.46764 0.09721 0.533 0.0
H1473 H 0.50791 0.06712 0.53531 0.0
C1474 C 0.47757 0.11528 0.5318 0.0
C1475 C 0.47865 0.07965 0.53445 0.0
C1476 C 0.46868 0.0598 0.53555 0.0
C1477 C 0.49826 0.11623 0.53185 0.0
C1478 C 0.50929 0.0986 0.53292 0.0
C1479 C 0.49938 0.0806 0.53446 0.0
C1480 C 0.53107 0.09846 0.53184 0.0
C1481 C 0.50812 0.13614 0.53073 0.0
C1482 C 0.53982 0.1042 0.52235 0.0
C1483 C 0.56032 0.10442 0.52127 0.0
C1484 C 0.57255 0.09878 0.52964 0.0
C1485 C 0.56373 0.09266 0.53909 0.0
C1486 C 0.54314 0.09243 0.54016 0.0
H1487 H 0.49806 0.14841 0.53302 0.0
H1488 H 0.52168 0.13705 0.53558 0.0
H1489 H 0.51239 0.13832 0.52241 0.0
H1490 H 0.53075 0.10851 0.51576 0.0
H1491 H 0.56657 0.10908 0.51386 0.0
H1492 H 0.91171 0.86649 0.01377 0.0
H1493 H 0.94731 0.86929 0.01609 0.0
H1494 H 0.93857 0.89048 0.04771 0.0
H1495 H 0.90268 0.88764 0.0455 0.0
H1496 H 0.9689 0.90471 0.02167 0.0
H1497 H 0.97852 0.84361 0.05039 0.0
H1498 H 0.95674 0.84571 0.04233 0.0
H1499 H 0.96017 0.86213 0.05327 0.0
C1500 C 0.91727 0.8717 0.02125 0.0
C1501 C 0.9043 0.87679 0.02947 0.0
C1502 C 0.93765 0.87331 0.02255 0.0
C1503 C 0.94554 0.87993 0.03209 0.0
C1504 C 0.93274 0.8851 0.04033 0.0
H1505 H 0.07299 0.88483 0.04576 0.0
H1506 H 0.03712 0.88851 0.04773 0.0
C1507 C 0.91225 0.88354 0.03903 0.0
C1508 C 0.96724 0.8816 0.03319 0.0
H1509 H 0.00726 0.85955 0.04443 0.0
C1510 C 0.97729 0.89499 0.02673 0.0
C1511 C 0.9781 0.86901 0.03986 0.0
C1512 C 0.96794 0.85419 0.04684 0.0
C1513 C -0.00202 0.89571 0.02651 0.0
C1514 C 0.00888 0.88242 0.03277 0.0
C1515 C -0.00116 0.86966 0.03961 0.0
C1516 C 0.03057 0.88044 0.03167 0.0
C1517 C 0.008 0.91053 0.01947 0.0
C1518 C 0.03869 0.87439 0.02205 0.0
C1519 C 0.05906 0.87225 0.0209 0.0
C1520 C 0.0718 0.87601 0.02937 0.0
C1521 C 0.06361 0.88188 0.03906 0.0
C1522 C 0.04314 0.88398 0.04021 0.0
H1523 H -0.00182 0.92328 0.01776 0.0
H1524 H 0.02185 0.91617 0.02305 0.0
H1525 H 0.01177 0.90326 0.0119 0.0
H1526 H 0.02921 0.87118 0.01542 0.0
H1527 H 0.06481 0.86761 0.01334 0.0
H1528 H 0.40944 0.86404 0.46301 0.0
H1529 H 0.44509 0.86542 0.46037 0.0
H1530 H 0.4364 0.88409 0.42844 0.0
H1531 H 0.40052 0.88294 0.43101 0.0
H1532 H 0.46707 0.84372 0.44524 0.0
H1533 H 0.47592 0.92512 0.44046 0.0
H1534 H 0.45398 0.91428 0.44609 0.0
H1535 H 0.45801 0.91311 0.43219 0.0
C1536 C 0.41504 0.86855 0.45542 0.0
C1537 C 0.40209 0.8734 0.44722 0.0
C1538 C 0.43544 0.86931 0.45394 0.0
C1539 C 0.44337 0.87503 0.44425 0.0
C1540 C 0.43056 0.87993 0.43603 0.0
H1541 H 0.57022 0.8838 0.42918 0.0
H1542 H 0.53413 0.88397 0.42735 0.0
C1543 C 0.41007 0.87916 0.4375 0.0
C1544 C 0.46507 0.87516 0.4428 0.0
H1545 H 0.50481 0.90572 0.43964 0.0
C1546 C 0.47531 0.85725 0.44393 0.0
C1547 C 0.47576 0.89282 0.44101 0.0
C1548 C 0.46545 0.91249 0.43993 0.0
C1549 C 0.49599 0.85659 0.44359 0.0
C1550 C 0.50672 0.87435 0.44225 0.0
C1551 C 0.4965 0.89215 0.44069 0.0
C1552 C 0.52848 0.87484 0.4433 0.0
C1553 C 0.50622 0.83689 0.4448 0.0
C1554 C 0.53715 0.87005 0.45293 0.0
C1555 C 0.55763 0.86998 0.45402 0.0
C1556 C 0.56993 0.87476 0.44549 0.0
C1557 C 0.56118 0.87996 0.43589 0.0
C1558 C 0.54059 0.88009 0.43482 0.0
H1559 H 0.49626 0.82437 0.4428 0.0
H1560 H 0.51958 0.836 0.43975 0.0
H1561 H 0.51089 0.83513 0.45308 0.0
H1562 H 0.52802 0.86631 0.45962 0.0
H1563 H 0.5638 0.86601 0.46154 0.0
H1564 H 0.06462 0.10809 0.9614 0.0
H1565 H 0.02892 0.10815 0.95894 0.0
H1566 H 0.03643 0.08717 0.9272 0.0
H1567 H 0.07238 0.08696 0.92958 0.0
H1568 H 0.00802 0.1301 0.9429 0.0
H1569 H -0.00494 0.04873 0.94068 0.0
H1570 H 0.01723 0.05911 0.94633 0.0
H1571 H 0.01396 0.05901 0.93238 0.0
C1572 C 0.05875 0.10337 0.9539 0.0
C1573 C 0.0714 0.0975 0.94568 0.0
C1574 C 0.03833 0.10344 0.95251 0.0
C1575 C 0.03007 0.09753 0.94293 0.0
C1576 C 0.04255 0.09155 0.9347 0.0
H1577 H 0.90227 0.09119 0.93009 0.0
H1578 H 0.9382 0.08953 0.9276 0.0
C1579 C 0.06307 0.09152 0.93607 0.0
C1580 C 0.00837 0.09833 0.94158 0.0
H1581 H 0.96712 0.0694 0.93995 0.0
C1582 C -0.00092 0.11685 0.94215 0.0
C1583 C -0.0032 0.08102 0.94051 0.0
C1584 C 0.00615 0.06078 0.93999 0.0
C1585 C 0.97845 0.1185 0.94199 0.0
C1586 C 0.96682 0.10114 0.94145 0.0
C1587 C 0.97611 0.08266 0.9404 0.0
C1588 C 0.94511 0.10186 0.94285 0.0
C1589 C 0.96927 0.13883 0.94252 0.0
C1590 C 0.93716 0.10897 0.95231 0.0
C1591 C 0.91677 0.10993 0.95375 0.0
C1592 C 0.90382 0.10368 0.94579 0.0
C1593 C 0.91182 0.09621 0.93636 0.0
C1594 C 0.93232 0.09523 0.93493 0.0
H1595 H 0.97965 0.15039 0.93971 0.0
H1596 H 0.95555 0.13952 0.93778 0.0
H1597 H 0.96542 0.14234 0.95079 0.0
H1598 H 0.94678 0.11377 0.9586 0.0
H1599 H 0.91118 0.11563 0.96114 0.0
H1600 H 0.15306 0.40341 0.98087 0.0
H1601 H 0.16181 0.43403 -0.01022 0.0
H1602 H 0.17097 0.46239 0.95995 0.0
H1603 H 0.16153 0.43172 0.95086 0.0
H1604 H 0.19318 0.4595 -0.00959 0.0
H1605 H 0.12715 0.4954 0.97288 0.0
H1606 H 0.13161 0.46918 0.97178 0.0
H1607 H 0.14497 0.4862 0.96362 0.0
C1608 C 0.15712 0.41605 0.97615 0.0
C1609 C 0.15618 0.41521 0.96513 0.0
C1610 C 0.16225 0.43355 0.98129 0.0
C1611 C 0.16663 0.45061 0.97555 0.0
C1612 C 0.16719 0.44949 0.96454 0.0
H1613 H 0.16491 0.57128 -0.00109 0.0
H1614 H 0.17422 0.54224 -0.01139 0.0
C1615 C 0.1619 0.43193 0.95935 0.0
C1616 C 0.16865 0.46976 0.98119 0.0
H1617 H 0.14549 0.5141 0.98487 0.0
C1618 C 0.18292 0.47156 -0.01087 0.0
C1619 C 0.15508 0.48538 0.97958 0.0
C1620 C 0.13872 0.48398 0.97158 0.0
C1621 C 0.1838 0.48847 -0.00441 0.0
C1622 C 0.16998 0.50385 -0.00591 0.0
C1623 C 0.15613 0.50229 0.98596 0.0
C1624 C 0.16874 0.52139 0.00108 0.0
C1625 C 0.19938 0.48972 0.00399 0.0
C1626 C 0.16325 0.51937 0.01166 0.0
C1627 C 0.15795 0.53604 0.01762 0.0
C1628 C 0.15783 0.55488 0.01302 0.0
C1629 C 0.16465 0.55693 0.00265 0.0
C1630 C 0.17004 0.54036 -0.00325 0.0
H1631 H 0.21188 0.47951 0.00235 0.0
H1632 H 0.20517 0.50503 0.00474 0.0
H1633 H 0.19275 0.4855 0.01162 0.0
H1634 H 0.16182 0.50482 0.01511 0.0
H1635 H 0.15266 0.534 0.02557 0.0
H1636 H 0.78364 0.9031 0.19954 0.0
H1637 H 0.75425 0.91116 0.20999 0.0
H1638 H 0.79118 0.92519 0.23652 0.0
H1639 H 0.82045 0.91695 0.22623 0.0
H1640 H 0.76431 0.89555 0.24033 0.0
H1641 H 0.72703 0.96027 0.22263 0.0
H1642 H 0.7336 0.94122 0.21338 0.0
H1643 H 0.7527 0.95448 0.2202 0.0
C1644 C 0.7855 0.90851 0.20749 0.0
C1645 C 0.80431 0.90915 0.21211 0.0
C1646 C 0.7687 0.91319 0.21345 0.0
C1647 C 0.77055 0.91882 0.22403 0.0
C1648 C 0.78943 0.92088 0.22837 0.0
H1649 H 0.68101 0.90889 0.27398 0.0
H1650 H 0.71137 0.91922 0.26499 0.0
C1651 C 0.80613 0.91611 0.22248 0.0
C1652 C 0.75302 0.91945 0.231 0.0
H1653 H 0.70776 0.94072 0.23448 0.0
C1654 C 0.75207 0.90566 0.23918 0.0
C1655 C 0.73709 0.93257 0.22943 0.0
C1656 C 0.73766 0.94811 0.22099 0.0
C1657 C 0.73523 0.90395 0.24551 0.0
C1658 C 0.71905 0.91677 0.2438 0.0
C1659 C 0.72024 0.93102 0.23583 0.0
C1660 C 0.70001 0.91394 0.24936 0.0
C1661 C 0.73454 0.88767 0.25357 0.0
C1662 C 0.68327 0.90866 0.24356 0.0
C1663 C 0.66595 0.903 0.24863 0.0
C1664 C 0.66496 0.90244 0.25966 0.0
C1665 C 0.68135 0.90896 0.26549 0.0
C1666 C 0.69872 0.91476 0.26036 0.0
H1667 H 0.7465 0.87662 0.25237 0.0
H1668 H 0.73635 0.8942 0.26152 0.0
H1669 H 0.72014 0.87983 0.25333 0.0
H1670 H 0.68388 0.90799 0.23507 0.0
H1671 H 0.65356 0.89831 0.24387 0.0
H1672 H 0.31381 0.40143 0.49543 0.0
H1673 H 0.30532 0.43177 0.48632 0.0
H1674 H 0.296 0.46134 0.51598 0.0
H1675 H 0.30513 0.431 0.52525 0.0
H1676 H 0.27385 0.45715 0.48554 0.0
H1677 H 0.33971 0.49398 0.50287 0.0
H1678 H 0.33535 0.46779 0.50409 0.0
H1679 H 0.32207 0.48506 0.51224 0.0
C1680 C 0.30977 0.41429 0.50006 0.0
C1681 C 0.31054 0.41387 0.5111 0.0
C1682 C 0.30481 0.43163 0.49482 0.0
C1683 C 0.30044 0.44893 0.50046 0.0
C1684 C 0.29978 0.44825 0.51147 0.0
H1685 H 0.29882 0.56957 0.47803 0.0
H1686 H 0.29077 0.53997 0.488 0.0
C1687 C 0.3049 0.43088 0.51676 0.0
C1688 C 0.29833 0.46786 0.49473 0.0
H1689 H 0.32071 0.51256 0.49117 0.0
C1690 C 0.28397 0.46937 0.48683 0.0
C1691 C 0.31171 0.48368 0.49634 0.0
C1692 C 0.3282 0.48257 0.50427 0.0
C1693 C 0.2827 0.48625 0.48046 0.0
C1694 C 0.29623 0.50189 0.48202 0.0
C1695 C 0.31028 0.50055 0.49005 0.0
C1696 C 0.29682 0.51963 0.47524 0.0
C1697 C 0.26699 0.48722 0.47213 0.0
C1698 C 0.30221 0.51806 0.46462 0.0
C1699 C 0.30679 0.53505 0.45885 0.0
C1700 C 0.30627 0.55378 0.46369 0.0
C1701 C 0.29955 0.55533 0.4741 0.0
C1702 C 0.29489 0.53843 0.47982 0.0
H1703 H 0.25484 0.47655 0.47365 0.0
H1704 H 0.26068 0.50236 0.47163 0.0
H1705 H 0.27366 0.4835 0.46441 0.0
H1706 H 0.3041 0.50365 0.46098 0.0
H1707 H 0.31202 0.5334 0.45086 0.0
H1708 H 0.78001 0.08103 0.77147 0.0
H1709 H 0.75102 0.07243 0.76108 0.0
H1710 H 0.78425 0.0263 0.74545 0.0
H1711 H 0.81371 0.03616 0.75526 0.0
H1712 H 0.76779 0.04531 0.7316 0.0
H1713 H 0.70942 0.03276 0.76072 0.0
H1714 H 0.71978 0.05663 0.76327 0.0
H1715 H 0.73497 0.03477 0.76451 0.0
C1716 C 0.78088 0.06866 0.76605 0.0
C1717 C 0.79892 0.05911 0.7642 0.0
C1718 C 0.76425 0.06362 0.76013 0.0
C1719 C 0.7652 0.04843 0.75254 0.0
C1720 C 0.78304 0.03806 0.75122 0.0
H1721 H 0.65224 0.03761 0.72001 0.0
H1722 H 0.68168 0.02698 0.72955 0.0
C1723 C 0.79982 0.04356 0.75688 0.0
C1724 C 0.74851 0.04522 0.74512 0.0
H1725 H 0.69828 0.04523 0.74374 0.0
C1726 C 0.7526 0.0448 0.7343 0.0
C1727 C 0.72863 0.04397 0.7485 0.0
C1728 C 0.72303 0.04181 0.75989 0.0
C1729 C 0.73743 0.04444 0.72682 0.0
C1730 C 0.71755 0.04564 0.73022 0.0
C1731 C 0.71346 0.04475 0.74103 0.0
C1732 C 0.70088 0.04931 0.72287 0.0
C1733 C 0.74302 0.04276 0.71539 0.0
C1734 C 0.70191 0.06485 0.71558 0.0
C1735 C 0.68529 0.07033 0.7098 0.0
C1736 C 0.66716 0.06088 0.71152 0.0
C1737 C 0.66618 0.04496 0.71851 0.0
C1738 C 0.68296 0.03902 0.72402 0.0
H1739 H 0.75656 0.03365 0.7144 0.0
H1740 H 0.73103 0.03602 0.71064 0.0
H1741 H 0.74637 0.05771 0.7123 0.0
H1742 H 0.71522 0.07357 0.71478 0.0
H1743 H 0.68623 0.08296 0.70463 0.0
H1744 H 0.83477 0.53695 0.02104 0.0
H1745 H 0.82745 0.50844 0.00984 0.0
H1746 H 0.78164 0.54185 -0.00555 0.0
H1747 H 0.7903 0.57095 0.00505 0.0
H1748 H 0.79998 0.48482 0.00539 0.0
H1749 H 0.81315 0.52909 0.96955 0.0
H1750 H 0.81705 0.53905 0.98249 0.0
H1751 H 0.79252 0.53786 0.97705 0.0
C1752 C 0.82288 0.53802 0.0154 0.0
C1753 C 0.81313 0.55604 0.01383 0.0
C1754 C 0.81872 0.52176 0.00896 0.0
C1755 C 0.80443 0.52314 0.001 0.0
C1756 C 0.79332 0.54063 0.00018 0.0
H1757 H 0.78942 0.41055 0.96655 0.0
H1758 H 0.78051 0.44002 0.97684 0.0
C1759 C 0.79801 0.55714 0.00635 0.0
C1760 C 0.80227 0.5067 -0.00675 0.0
H1761 H 0.80413 0.49587 0.96706 0.0
C1762 C 0.80087 0.48725 -0.003 0.0
C1763 C 0.80364 0.5098 0.98227 0.0
C1764 C 0.80687 0.53004 0.9776 0.0
C1765 C 0.80173 0.47085 -0.0098 0.0
C1766 C 0.80275 0.47397 0.97922 0.0
C1767 C 0.8032 0.49344 0.97544 0.0
C1768 C 0.80552 0.4574 0.97159 0.0
C1769 C 0.80285 0.45048 -0.00501 0.0
C1770 C 0.82136 0.45798 0.96444 0.0
C1771 C 0.82577 0.44156 0.95815 0.0
C1772 C 0.81466 0.42417 0.95908 0.0
C1773 C 0.79816 0.42389 0.96574 0.0
C1774 C 0.7933 0.44059 0.97175 0.0
H1775 H 0.80752 0.45111 0.00333 0.0
H1776 H 0.78803 0.4435 -0.00525 0.0
H1777 H 0.81341 0.44088 -0.00934 0.0
H1778 H 0.83099 0.47076 0.96409 0.0
H1779 H 0.83872 0.44195 0.95315 0.0
H1780 H 0.15072 0.03912 0.75373 0.0
H1781 H 0.18026 0.0281 0.74425 0.0
H1782 H 0.21446 0.07292 0.76029 0.0
H1783 H 0.18534 0.08256 0.77038 0.0
H1784 H 0.19842 0.04577 0.73063 0.0
H1785 H 0.25449 0.03189 0.76062 0.0
H1786 H 0.22883 0.03494 0.76407 0.0
H1787 H 0.24494 0.05618 0.76298 0.0
C1788 C 0.16479 0.046 0.75549 0.0
C1789 C 0.16595 0.06144 0.76286 0.0
C1790 C 0.18163 0.03983 0.75003 0.0
C1791 C 0.19982 0.04946 0.75159 0.0
C1792 C 0.20095 0.06464 0.75917 0.0
H1793 H 0.28163 0.08158 0.70463 0.0
H1794 H 0.2521 0.07262 0.71449 0.0
C1795 C 0.18425 0.07029 0.76491 0.0
C1796 C 0.21683 0.04548 0.74444 0.0
H1797 H 0.26711 0.0443 0.74384 0.0
C1798 C 0.21341 0.04493 0.73357 0.0
C1799 C 0.23645 0.04373 0.74812 0.0
C1800 C 0.2413 0.04146 0.7596 0.0
C1801 C 0.22903 0.04408 0.72633 0.0
C1802 C 0.24871 0.04499 0.73003 0.0
C1803 C 0.2521 0.0441 0.74089 0.0
C1804 C 0.26587 0.04847 0.72293 0.0
C1805 C 0.22411 0.04222 0.71483 0.0
C1806 C 0.2837 0.03819 0.7244 0.0
C1807 C 0.30081 0.04395 0.71908 0.0
C1808 C 0.30025 0.05965 0.71194 0.0
C1809 C 0.28226 0.06911 0.70993 0.0
C1810 C 0.26532 0.06385 0.71553 0.0
H1811 H 0.21058 0.03315 0.71371 0.0
H1812 H 0.22099 0.05712 0.71162 0.0
H1813 H 0.23633 0.03533 0.71029 0.0
H1814 H 0.28462 0.02628 0.73003 0.0
H1815 H 0.31463 0.03659 0.7208 0.0
H1816 H 0.64601 0.43471 0.52651 0.0
H1817 H 0.65352 0.46447 0.51629 0.0
H1818 H 0.66792 0.42806 0.48948 0.0
H1819 H 0.66024 0.3984 0.49953 0.0
H1820 H 0.68735 0.47797 0.50303 0.0
H1821 H 0.61863 0.46121 0.48084 0.0
H1822 H 0.62432 0.44961 0.49317 0.0
H1823 H 0.63648 0.44157 0.48137 0.0
C1824 C 0.65124 0.43304 0.51852 0.0
C1825 C 0.6522 0.41425 0.51376 0.0
C1826 C 0.65552 0.45004 0.5127 0.0
C1827 C 0.66091 0.44841 0.50209 0.0
C1828 C 0.66349 0.4296 0.49761 0.0
H1829 H 0.65229 0.53712 0.45284 0.0
H1830 H 0.66168 0.50675 0.462 0.0
C1831 C 0.65908 0.41269 0.50337 0.0
C1832 C 0.6616 0.46618 0.49537 0.0
H1833 H 0.63677 0.48902 0.47559 0.0
C1834 C 0.67638 0.4804 0.49699 0.0
C1835 C 0.64728 0.46921 0.48748 0.0
C1836 C 0.63067 0.45471 0.48562 0.0
C1837 C 0.67716 0.4977 0.49092 0.0
C1838 C 0.66255 0.50093 0.48319 0.0
C1839 C 0.64806 0.48646 0.48144 0.0
C1840 C 0.66064 0.51992 0.4775 0.0
C1841 C 0.69361 0.5123 0.49284 0.0
C1842 C 0.65733 0.53746 0.48315 0.0
C1843 C 0.65199 0.55476 0.47796 0.0
C1844 C 0.64965 0.55487 0.467 0.0
C1845 C 0.65396 0.53754 0.46128 0.0
C1846 C 0.65932 0.52018 0.46651 0.0
H1847 H 0.70686 0.50489 0.49612 0.0
H1848 H 0.69789 0.52 0.48551 0.0
H1849 H 0.6886 0.52356 0.49862 0.0
H1850 H 0.65778 0.53755 0.49164 0.0
H1851 H 0.64885 0.56784 0.48262 0.0
H1852 H 0.18517 0.89022 0.20513 0.0
H1853 H 0.21371 0.89788 0.21611 0.0
H1854 H 0.17985 0.94286 0.23229 0.0
H1855 H 0.15076 0.93382 0.22191 0.0
H1856 H 0.2368 0.92586 0.22054 0.0
H1857 H 0.19377 0.91112 0.25675 0.0
H1858 H 0.18358 0.90725 0.24389 0.0
H1859 H 0.18455 0.93178 0.24952 0.0
C1860 C 0.18399 0.90197 0.21092 0.0
C1861 C 0.16586 0.91136 0.21277 0.0
C1862 C 0.20027 0.90635 0.21722 0.0
C1863 C 0.19881 0.9205 0.22532 0.0
C1864 C 0.18116 0.93127 0.22644 0.0
H1865 H 0.31215 0.93426 0.25867 0.0
H1866 H 0.28248 0.94413 0.24899 0.0
C1867 C 0.16464 0.92636 0.2204 0.0
C1868 C 0.21535 0.92284 0.2329 0.0
H1869 H 0.2269 0.92018 0.25893 0.0
C1870 C 0.23463 0.92465 0.22894 0.0
C1871 C 0.21257 0.92112 0.24389 0.0
C1872 C 0.19254 0.91751 0.24876 0.0
C1873 C 0.25118 0.92369 0.23552 0.0
C1874 C 0.24839 0.92216 0.24652 0.0
C1875 C 0.22908 0.92147 0.25053 0.0
C1876 C 0.26511 0.91884 0.25387 0.0
C1877 C 0.27138 0.92296 0.23048 0.0
C1878 C 0.26464 0.90247 0.26065 0.0
C1879 C 0.28118 0.8975 0.26659 0.0
C1880 C 0.29857 0.90857 0.2657 0.0
C1881 C 0.29879 0.92557 0.25944 0.0
C1882 C 0.28198 0.93098 0.25379 0.0
H1883 H 0.27056 0.91887 0.22204 0.0
H1884 H 0.27833 0.9378 0.231 0.0
H1885 H 0.28108 0.9121 0.23444 0.0
H1886 H 0.25184 0.89288 0.26093 0.0
H1887 H 0.28084 0.88417 0.27127 0.0
H1888 H 0.63964 0.03346 0.52105 0.0
H1889 H 0.64782 0.00475 0.5102 0.0
H1890 H 0.69191 0.03911 0.49388 0.0
H1891 H 0.68239 0.06831 0.50417 0.0
H1892 H 0.67266 0.02206 0.4803 0.0
H1893 H 0.68814 0.96395 0.509 0.0
H1894 H 0.66425 0.97379 0.51195 0.0
H1895 H 0.68578 -0.01049 0.51293 0.0
C1896 C 0.65146 0.03466 0.51534 0.0
C1897 C 0.66052 0.05295 0.51347 0.0
C1898 C 0.65626 0.01819 0.50916 0.0
C1899 C 0.67079 0.0195 0.50128 0.0
C1900 C 0.68065 0.03761 0.49987 0.0
H1901 H 0.68265 0.9064 0.46814 0.0
H1902 H 0.69282 0.93611 0.4778 0.0
C1903 C 0.67534 0.05426 0.5058 0.0
C1904 C 0.6739 0.00281 0.49375 0.0
H1905 H 0.67502 0.95245 0.49219 0.0
C1906 C 0.67366 0.00687 0.48294 0.0
C1907 C 0.67581 0.98291 0.49703 0.0
C1908 C 0.67876 0.97737 0.50837 0.0
C1909 C 0.67404 -0.00836 0.47541 0.0
C1910 C 0.67349 0.9717 0.47874 0.0
C1911 C 0.67499 0.96766 0.48953 0.0
C1912 C 0.66993 0.95487 0.47137 0.0
C1913 C 0.67509 -0.00274 0.46399 0.0
C1914 C 0.65418 0.95555 0.46418 0.0
C1915 C 0.64898 0.9388 0.45833 0.0
C1916 C 0.65892 0.92087 0.45984 0.0
C1917 C 0.67497 0.92021 0.46677 0.0
C1918 C 0.68063 0.93713 0.47235 0.0
H1919 H 0.68381 0.01104 0.46295 0.0
H1920 H 0.68188 -0.0146 0.45912 0.0
H1921 H 0.65997 0.00027 0.46106 0.0
H1922 H 0.64512 0.96867 0.46352 0.0
H1923 H 0.63622 0.93947 0.45323 0.0
H1924 H 0.19011 0.38565 0.77155 0.0
H1925 H 0.21902 0.39404 0.76102 0.0
H1926 H 0.18586 0.44034 0.74584 0.0
H1927 H 0.15647 0.43066 0.75579 0.0
H1928 H 0.20215 0.42137 0.73179 0.0
H1929 H 0.26085 0.43341 0.76072 0.0
H1930 H 0.25039 0.40956 0.76309 0.0
H1931 H 0.23533 0.43148 0.76462 0.0
C1932 C 0.18925 0.39802 0.76621 0.0
C1933 C 0.17123 0.40768 0.76453 0.0
C1934 C 0.20583 0.40293 0.7602 0.0
C1935 C 0.20489 0.41811 0.7527 0.0
C1936 C 0.18708 0.42858 0.75154 0.0
H1937 H 0.31748 0.43039 0.7196 0.0
H1938 H 0.2881 0.44019 0.72957 0.0
C1939 C 0.17033 0.4232 0.75729 0.0
C1940 C 0.22154 0.42127 0.74521 0.0
H1941 H 0.27178 0.42135 0.74356 0.0
C1942 C 0.21736 0.42184 0.73441 0.0
C1943 C 0.24147 0.42245 0.74849 0.0
C1944 C 0.24719 0.42444 0.75987 0.0
C1945 C 0.23247 0.42238 0.72686 0.0
C1946 C 0.25239 0.4212 0.73013 0.0
C1947 C 0.25657 0.42183 0.74093 0.0
C1948 C 0.26904 0.41794 0.72263 0.0
C1949 C 0.22674 0.4243 0.71548 0.0
C1950 C 0.26807 0.40272 0.71506 0.0
C1951 C 0.28465 0.39773 0.70905 0.0
C1952 C 0.3027 0.40734 0.71078 0.0
C1953 C 0.30361 0.42292 0.71808 0.0
C1954 C 0.28687 0.42839 0.72383 0.0
H1955 H 0.2131 0.43329 0.71467 0.0
H1956 H 0.23861 0.43128 0.71076 0.0
H1957 H 0.22351 0.4094 0.71221 0.0
H1958 H 0.25486 0.39386 0.7142 0.0
H1959 H 0.28375 0.38533 0.70365 0.0
H1960 H 0.81632 0.93899 0.02543 0.0
H1961 H 0.80741 0.96943 0.01618 0.0
H1962 H 0.80696 0.93734 0.98685 0.0
H1963 H 0.81535 0.90704 -0.00403 0.0
H1964 H 0.83153 -0.01437 0.00177 0.0
H1965 H 0.75912 0.9719 0.9832 0.0
H1966 H 0.76845 0.95675 -0.00629 0.0
H1967 H 0.77632 0.9524 0.9804 0.0
C1968 C 0.81376 0.93833 0.01706 0.0
C1969 C 0.81671 0.92061 0.01144 0.0
C1970 C 0.8087 0.95573 0.01177 0.0
C1971 C 0.8063 0.95564 0.00082 0.0
C1972 C 0.80824 0.93775 -0.00469 0.0
H1973 H 0.82171 0.0396 0.95104 0.0
H1974 H 0.81397 0.00997 0.96137 0.0
C1975 C 0.81328 0.92042 0.00055 0.0
C1976 C 0.80467 0.97447 -0.00505 0.0
H1977 H 0.77911 -0.00237 0.97543 0.0
C1978 C 0.81986 -0.0116 -0.00384 0.0
C1979 C 0.78955 0.97798 0.98752 0.0
C1980 C 0.77234 0.96403 0.9862 0.0
C1981 C 0.82077 0.00537 -0.01009 0.0
C1982 C 0.80594 0.00864 0.98233 0.0
C1983 C 0.7905 -0.00502 0.98122 0.0
C1984 C 0.80662 0.02626 0.9755 0.0
C1985 C 0.83796 0.01939 -0.00876 0.0
C1986 C 0.80416 0.04512 0.97991 0.0
C1987 C 0.80864 0.06194 0.97409 0.0
C1988 C 0.81556 0.06022 0.96371 0.0
C1989 C 0.81642 0.04137 0.95901 0.0
C1990 C 0.81203 0.02447 0.9649 0.0
H1991 H 0.85002 0.01281 -0.00402 0.0
H1992 H 0.84405 0.02371 0.98349 0.0
H1993 H 0.83282 0.03303 -0.00471 0.0
H1994 H 0.7998 0.04679 0.98805 0.0
H1995 H 0.80758 0.07628 0.9779 0.0
H1996 H 0.28797 0.56357 0.27563 0.0
H1997 H 0.25762 0.5546 0.26629 0.0
H1998 H 0.2892 0.55607 0.23689 0.0
H1999 H 0.31944 0.56452 0.2461 0.0
H2000 H 0.24094 0.57928 0.25241 0.0
H2001 H 0.25525 0.50795 0.23239 0.0
H2002 H 0.27042 0.51692 0.24304 0.0
H2003 H 0.27445 0.52556 0.22987 0.0
C2004 C 0.28855 0.56141 0.26721 0.0
C2005 C 0.3061 0.56493 0.26161 0.0
C2006 C 0.2712 0.55631 0.26188 0.0
C2007 C 0.27116 0.55445 0.25089 0.0
C2008 C 0.2889 0.55694 0.24538 0.0
H2009 H 0.18771 0.57149 0.20123 0.0
H2010 H 0.21704 0.56306 0.21159 0.0
C2011 C 0.30618 0.562 0.25067 0.0
C2012 C 0.2523 0.55289 0.24503 0.0
H2013 H 0.22932 0.52818 0.22501 0.0
C2014 C 0.23824 0.56787 0.24657 0.0
C2015 C 0.24889 0.53813 0.23731 0.0
C2016 C 0.26299 0.52113 0.23563 0.0
C2017 C 0.22126 0.56898 0.24034 0.0
C2018 C 0.21808 0.55453 0.23246 0.0
C2019 C 0.23187 0.53926 0.23104 0.0
C2020 C 0.20056 0.55555 0.22557 0.0
C2021 C 0.20717 0.58604 0.24201 0.0
C2022 C 0.18166 0.55319 0.22986 0.0
C2023 C 0.165 0.55809 0.22402 0.0
C2024 C 0.16692 0.56529 0.21374 0.0
C2025 C 0.18578 0.56599 0.20913 0.0
C2026 C 0.20253 0.5612 0.21503 0.0
H2027 H 0.21372 0.59796 0.24693 0.0
H2028 H 0.20266 0.59247 0.23438 0.0
H2029 H 0.19367 0.58061 0.24602 0.0
H2030 H 0.17986 0.5486 0.23794 0.0
H2031 H 0.15064 0.55715 0.22775 0.0
H2032 H 0.29222 0.06663 0.50768 0.0
H2033 H 0.28152 0.03693 0.49817 0.0
H2034 H 0.32789 0.00351 0.51311 0.0
H2035 H 0.33726 0.03271 0.52326 0.0
H2036 H 0.29881 0.01946 0.4841 0.0
H2037 H 0.28811 0.96231 0.51389 0.0
H2038 H 0.29065 -0.01199 0.51748 0.0
H2039 H 0.31219 0.97245 0.51587 0.0
C2040 C 0.29954 0.05268 0.5092 0.0
C2041 C 0.31533 0.05176 0.51627 0.0
C2042 C 0.29354 0.03575 0.50372 0.0
C2043 C 0.30368 0.01774 0.50496 0.0
C2044 C 0.31923 0.01685 0.51226 0.0
H2045 H 0.33496 0.93771 0.45656 0.0
H2046 H 0.32611 0.96674 0.46699 0.0
C2047 C 0.32472 0.03361 0.51802 0.0
C2048 C 0.29979 0.00073 0.49776 0.0
H2049 H 0.29997 0.95034 0.49678 0.0
C2050 C 0.29855 0.00436 0.48693 0.0
C2051 C 0.29878 0.98094 0.50132 0.0
C2052 C 0.29725 0.97579 0.51279 0.0
C2053 C 0.29773 -0.01117 0.4796 0.0
C2054 C 0.2994 0.96907 0.48311 0.0
C2055 C 0.2992 0.96542 0.49396 0.0
C2056 C 0.30291 0.95212 0.47581 0.0
C2057 C 0.29508 -0.00605 0.46818 0.0
C2058 C 0.29319 0.93396 0.47733 0.0
C2059 C 0.29892 0.91713 0.47166 0.0
C2060 C 0.31401 0.91831 0.46414 0.0
C2061 C 0.32295 0.93661 0.46215 0.0
C2062 C 0.31775 0.95326 0.46808 0.0
H2063 H 0.28563 0.00729 0.46734 0.0
H2064 H 0.30966 -0.00247 0.46469 0.0
H2065 H 0.28827 0.98162 0.46368 0.0
H2066 H 0.28171 0.93258 0.4832 0.0
H2067 H 0.29197 0.90307 0.47337 0.0
H2068 H 0.68935 0.58521 0.27428 0.0
H2069 H 0.71864 0.57853 0.26362 0.0
H2070 H 0.68983 0.52742 0.2501 0.0
H2071 H 0.65984 0.5353 0.26011 0.0
H2072 H 0.74464 0.55263 0.2605 0.0
H2073 H 0.70039 0.55567 0.22399 0.0
H2074 H 0.68981 0.56082 0.23666 0.0
H2075 H 0.69335 0.53562 0.23232 0.0
C2076 C 0.68949 0.57232 0.26919 0.0
C2077 C 0.67246 0.56077 0.26795 0.0
C2078 C 0.70619 0.56852 0.26306 0.0
C2079 C 0.70628 0.55284 0.25574 0.0
C2080 C 0.68987 0.5401 0.25532 0.0
H2081 H 0.82032 0.54216 0.22258 0.0
H2082 H 0.79164 0.53264 0.23318 0.0
C2083 C 0.67288 0.54437 0.26116 0.0
C2084 C 0.72301 0.55087 0.24819 0.0
H2085 H 0.73428 0.54936 0.22206 0.0
C2086 C 0.74236 0.5519 0.25209 0.0
C2087 C 0.72009 0.55013 0.23718 0.0
C2088 C 0.69981 0.5507 0.23228 0.0
C2089 C 0.75875 0.55316 0.24536 0.0
C2090 C 0.75585 0.55205 0.23435 0.0
C2091 C 0.73656 0.55008 0.23047 0.0
C2092 C 0.77227 0.55499 0.22671 0.0
C2093 C 0.77875 0.55696 0.25019 0.0
C2094 C 0.77046 0.56937 0.21883 0.0
C2095 C 0.78651 0.57402 0.2124 0.0
C2096 C 0.80475 0.5647 0.2139 0.0
C2097 C 0.80634 0.54957 0.22134 0.0
C2098 C 0.79006 0.54438 0.22751 0.0
H2099 H 0.77747 0.56302 0.25828 0.0
H2100 H 0.78702 0.54283 0.25066 0.0
H2101 H 0.78747 0.56758 0.24544 0.0
H2102 H 0.75691 0.57772 0.21797 0.0
H2103 H 0.78505 0.58589 0.20677 0.0
H2104 H 0.18252 0.90221 0.00377 0.0
H2105 H 0.19297 0.93136 -0.00613 0.0
H2106 H 0.14971 0.96657 0.01053 0.0
H2107 H 0.14067 0.93788 0.021 0.0
H2108 H 0.17431 0.94899 0.98048 0.0
H2109 H 0.19076 0.00653 0.00963 0.0
H2110 H 0.18791 0.981 0.01337 0.0
H2111 H 0.1667 -0.00281 0.01259 0.0
C2112 C 0.17588 0.91642 0.00556 0.0
C2113 C 0.16102 0.91798 0.0132 0.0
C2114 C 0.18172 0.93305 -0.00013 0.0
C2115 C 0.17235 0.95139 0.00148 0.0
C2116 C 0.15781 0.95294 0.00935 0.0
H2117 H 0.13679 0.03121 0.95442 0.0
H2118 H 0.14623 0.00213 0.9645 0.0
C2119 C 0.1525 0.93648 0.01531 0.0
C2120 C 0.17579 0.96809 -0.00589 0.0
H2121 H 0.177 0.01844 -0.00698 0.0
C2122 C 0.17542 0.96414 0.98326 0.0
C2123 C 0.17787 -0.01208 -0.00244 0.0
C2124 C 0.18108 -0.00669 0.00893 0.0
C2125 C 0.17569 0.97946 0.97588 0.0
C2126 C 0.17512 -0.00065 0.97941 0.0
C2127 C 0.17692 0.00326 -0.00979 0.0
C2128 C 0.17111 0.0162 0.97223 0.0
C2129 C 0.17656 0.97398 0.9644 0.0
C2130 C 0.18161 0.03407 0.97327 0.0
C2131 C 0.17561 0.05093 0.96784 0.0
C2132 C 0.15943 0.05005 0.96101 0.0
C2133 C 0.14962 0.03203 0.95946 0.0
C2134 C 0.15516 0.01535 0.96518 0.0
H2135 H 0.18544 0.96032 0.96319 0.0
H2136 H 0.16142 0.9708 0.96154 0.0
H2137 H 0.18311 -0.01403 0.9596 0.0
H2138 H 0.19395 0.03522 0.97863 0.0
H2139 H 0.18322 0.0648 0.9692 0.0
H2140 H 0.81833 0.42728 0.75348 0.0
H2141 H 0.7889 0.43805 0.74396 0.0
H2142 H 0.75461 0.39334 0.75984 0.0
H2143 H 0.78361 0.38395 0.76998 0.0
H2144 H 0.77087 0.42024 0.73027 0.0
H2145 H 0.71454 0.43434 0.76035 0.0
H2146 H 0.74016 0.43129 0.76376 0.0
H2147 H 0.72407 0.41005 0.76254 0.0
C2148 C 0.80426 0.42036 0.75519 0.0
C2149 C 0.80304 0.40504 0.76253 0.0
C2150 C 0.78748 0.42639 0.7497 0.0
C2151 C 0.76929 0.41673 0.75121 0.0
C2152 C 0.76811 0.40164 0.75876 0.0
H2153 H 0.68722 0.38637 0.70373 0.0
H2154 H 0.71676 0.39436 0.71378 0.0
C2155 C 0.78474 0.39614 0.76452 0.0
C2156 C 0.75234 0.42066 0.74408 0.0
H2157 H 0.70206 0.42236 0.74345 0.0
C2158 C 0.75586 0.4212 0.7332 0.0
C2159 C 0.73268 0.42254 0.74776 0.0
C2160 C 0.72774 0.42477 0.75925 0.0
C2161 C 0.74032 0.42228 0.72597 0.0
C2162 C 0.72059 0.42162 0.72964 0.0
C2163 C 0.7171 0.4224 0.74052 0.0
C2164 C 0.70343 0.41863 0.72249 0.0
C2165 C 0.74539 0.42418 0.71449 0.0
C2166 C 0.68582 0.4293 0.72405 0.0
C2167 C 0.66867 0.42411 0.71861 0.0
C2168 C 0.66897 0.40858 0.71126 0.0
C2169 C 0.68678 0.39872 0.70919 0.0
C2170 C 0.70374 0.40342 0.71491 0.0
H2171 H 0.75911 0.43297 0.71344 0.0
H2172 H 0.74821 0.40925 0.71113 0.0
H2173 H 0.73336 0.43137 0.71001 0.0
H2174 H 0.68508 0.4411 0.72983 0.0
H2175 H 0.65502 0.43179 0.72038 0.0
H2176 H 0.15693 0.82191 0.04907 0.0
H2177 H 0.16639 0.78815 0.05391 0.0
H2178 H 0.16909 0.77188 0.02118 0.0
H2179 H 0.15984 0.80537 0.0163 0.0
H2180 H 0.1433 0.75618 0.04899 0.0
H2181 H 0.21777 0.74449 0.03259 0.0
H2182 H 0.2077 0.7689 0.03492 0.0
H2183 H 0.2019 0.75556 0.02305 0.0
C2184 C 0.16001 0.81124 0.0429 0.0
C2185 C 0.1575 0.81626 0.03229 0.0
C2186 C 0.16543 0.79199 0.04569 0.0
C2187 C 0.16874 0.77759 0.03791 0.0
C2188 C 0.16711 0.78286 0.02732 0.0
H2189 H 0.15283 0.6657 0.01764 0.0
H2190 H 0.16312 0.69915 0.02213 0.0
C2191 C 0.16159 0.80199 0.02454 0.0
C2192 C 0.17097 0.75645 0.04064 0.0
H2193 H 0.19647 0.71516 0.03322 0.0
C2194 C 0.15525 0.7472 0.04587 0.0
C2195 C 0.18664 0.74482 0.03664 0.0
C2196 C 0.20455 0.75402 0.03159 0.0
C2197 C 0.15373 0.72651 0.04619 0.0
C2198 C 0.16848 0.71487 0.04128 0.0
C2199 C 0.18512 0.72413 0.03693 0.0
C2200 C 0.165 0.69375 0.03881 0.0
C2201 C 0.13548 0.71731 0.05093 0.0
C2202 C 0.16317 0.67945 0.04669 0.0
C2203 C 0.15717 0.66017 0.04414 0.0
C2204 C 0.15291 0.65503 0.03367 0.0
C2205 C 0.15578 0.66919 0.02579 0.0
C2206 C 0.16179 0.68832 0.02833 0.0
H2207 H 0.12456 0.72858 0.05354 0.0
H2208 H 0.12826 0.70731 0.04516 0.0
H2209 H 0.13971 0.70832 0.05782 0.0
H2210 H 0.1658 0.68334 0.05482 0.0
H2211 H 0.15519 0.64954 0.05038 0.0
H2212 H 0.55408 0.90323 0.26337 0.0
H2213 H 0.52086 0.91435 0.26767 0.0
H2214 H 0.53569 0.91535 0.30054 0.0
H2215 H 0.56919 0.90403 0.29629 0.0
H2216 H 0.5031 0.89273 0.29601 0.0
H2217 H 0.49514 0.96565 0.27732 0.0
H2218 H 0.50589 0.94808 0.2684 0.0
H2219 H 0.51896 0.9549 0.28018 0.0
C2220 C 0.55045 0.90617 0.2715 0.0
C2221 C 0.56423 0.9026 0.27949 0.0
C2222 C 0.53149 0.91276 0.27394 0.0
C2223 C 0.52589 0.91599 0.28441 0.0
C2224 C 0.53981 0.91317 0.2924 0.0
H2225 H 0.398 0.9096 0.29784 0.0
H2226 H 0.43227 0.9191 0.3015 0.0
C2227 C 0.55891 0.90668 0.28996 0.0
C2228 C 0.5048 0.91939 0.2869 0.0
H2229 H 0.46497 0.9459 0.27864 0.0
C2230 C 0.49475 0.9047 0.29252 0.0
C2231 C 0.49401 0.93506 0.28237 0.0
C2232 C 0.50412 0.95192 0.27683 0.0
C2233 C 0.47406 0.90414 0.29282 0.0
C2234 C 0.46323 0.9189 0.2875 0.0
C2235 C 0.47331 0.93454 0.28266 0.0
C2236 C 0.44191 0.91644 0.28537 0.0
C2237 C 0.46399 0.88685 0.29804 0.0
C2238 C 0.43585 0.9127 0.27504 0.0
C2239 C 0.41639 0.90737 0.27292 0.0
C2240 C 0.40255 0.90569 0.2811 0.0
C2241 C 0.40835 0.91061 0.29138 0.0
C2242 C 0.42791 0.91598 0.29349 0.0
H2243 H 0.47466 0.87542 0.30065 0.0
H2244 H 0.45568 0.89218 0.30501 0.0
H2245 H 0.45329 0.87981 0.29259 0.0
H2246 H 0.44643 0.913 0.26865 0.0
H2247 H 0.41241 0.90387 0.2649 0.0
H2248 H 0.31415 0.16442 0.5191 0.0
H2249 H 0.30336 0.19758 0.52394 0.0
H2250 H 0.30486 0.18182 0.55665 0.0
H2251 H 0.31599 0.14837 0.55187 0.0
H2252 H 0.27112 0.21305 0.53612 0.0
H2253 H 0.34482 0.22781 0.55405 0.0
H2254 H 0.34057 0.20642 0.54584 0.0
H2255 H 0.33056 0.20732 0.55887 0.0
C2256 C 0.31199 0.16785 0.52733 0.0
C2257 C 0.31624 0.15383 0.53511 0.0
C2258 C 0.3057 0.18681 0.53008 0.0
C2259 C 0.30355 0.19221 0.54065 0.0
C2260 C 0.30668 0.17798 0.54845 0.0
H2261 H 0.31175 0.32027 0.5506 0.0
H2262 H 0.30244 0.28667 0.55587 0.0
C2263 C 0.31298 0.15889 0.5457 0.0
C2264 C 0.29992 0.21326 0.54325 0.0
H2265 H 0.325 0.25502 0.55028 0.0
C2266 C 0.28266 0.22222 0.53948 0.0
C2267 C 0.31492 0.22517 0.54773 0.0
C2268 C 0.33383 0.21632 0.55183 0.0
C2269 C 0.28067 0.24288 0.53932 0.0
C2270 C 0.29649 0.25481 0.54284 0.0
C2271 C 0.31291 0.24583 0.54753 0.0
C2272 C 0.29811 0.27598 0.54002 0.0
C2273 C 0.26205 0.25174 0.5349 0.0
C2274 C 0.29844 0.28118 0.52938 0.0
C2275 C 0.30386 0.30021 0.52636 0.0
C2276 C 0.30913 0.31447 0.53391 0.0
C2277 C 0.30771 0.30962 0.5446 0.0
C2278 C 0.3024 0.29044 0.54763 0.0
H2279 H 0.24914 0.24202 0.53642 0.0
H2280 H 0.25907 0.26663 0.53828 0.0
H2281 H 0.26363 0.25316 0.52627 0.0
H2282 H 0.29569 0.27018 0.52335 0.0
H2283 H 0.30474 0.30348 0.51807 0.0
H2284 H 0.91105 0.05676 0.76492 0.0
H2285 H 0.94479 0.04731 0.76899 0.0
H2286 H 0.93183 0.05126 0.80207 0.0
H2287 H 0.89782 0.06103 0.79804 0.0
H2288 H 0.96297 0.07398 0.79637 0.0
H2289 H 0.97359 -0.00072 0.7798 0.0
H2290 H 0.9619 0.015 0.7704 0.0
H2291 H 0.94938 0.00935 0.78251 0.0
C2292 C 0.91519 0.05521 0.77307 0.0
C2293 C 0.90179 0.05982 0.78115 0.0
C2294 C 0.93447 0.04957 0.77539 0.0
C2295 C 0.94077 0.04828 0.78584 0.0
C2296 C 0.92719 0.05196 0.79396 0.0
H2297 H 0.0689 0.06151 0.79696 0.0
H2298 H 0.0352 0.05103 0.80134 0.0
C2299 C 0.90779 0.05755 0.79163 0.0
C2300 C 0.96213 0.04619 0.78804 0.0
H2301 H 0.00284 0.02072 0.77979 0.0
C2302 C 0.97171 0.06201 0.79306 0.0
C2303 C 0.97347 0.03053 0.78376 0.0
C2304 C 0.96399 0.01249 0.77892 0.0
C2305 C -0.00764 0.0636 0.79298 0.0
C2306 C 0.00364 0.04879 0.78787 0.0
C2307 C -0.00587 0.03212 0.78364 0.0
C2308 C 0.02471 0.05201 0.78534 0.0
C2309 C 0.00183 0.08192 0.79757 0.0
C2310 C 0.0301 0.05523 0.77487 0.0
C2311 C 0.04922 0.06116 0.77234 0.0
C2312 C 0.06339 0.06395 0.78025 0.0
C2313 C 0.05828 0.05962 0.79069 0.0
C2314 C 0.03905 0.05369 0.79322 0.0
H2315 H -0.00925 0.09305 0.80016 0.0
H2316 H 0.01088 0.07777 0.80446 0.0
H2317 H 0.01177 0.0889 0.79172 0.0
H2318 H 0.01923 0.054 0.76867 0.0
H2319 H 0.05269 0.06418 0.76421 0.0
H2320 H 0.15931 0.14826 0.92712 0.0
H2321 H 0.16965 0.18211 0.92299 0.0
H2322 H 0.17186 0.19604 0.95602 0.0
H2323 H 0.16182 0.16245 0.9602 0.0
H2324 H 0.14701 0.21373 0.92823 0.0
H2325 H 0.22072 0.22407 0.94555 0.0
H2326 H 0.21059 0.19983 0.94284 0.0
H2327 H 0.20444 0.2127 0.95484 0.0
C2328 C 0.16251 0.15841 0.9335 0.0
C2329 C 0.15959 0.15273 0.94399 0.0
C2330 C 0.16843 0.17772 0.93112 0.0
C2331 C 0.17181 0.19152 0.93919 0.0
C2332 C 0.16985 0.18553 0.94966 0.0
H2333 H 0.1551 0.30294 0.96079 0.0
H2334 H 0.16577 0.26962 0.95616 0.0
C2335 C 0.16386 0.16635 0.95204 0.0
C2336 C 0.17426 0.21283 0.93688 0.0
H2337 H 0.19951 0.25356 0.9453 0.0
C2338 C 0.15883 0.22246 0.93164 0.0
C2339 C 0.18975 0.22415 0.94127 0.0
C2340 C 0.2074 0.21458 0.94634 0.0
C2341 C 0.15739 0.24316 0.93165 0.0
C2342 C 0.17194 0.25444 0.93693 0.0
C2343 C 0.18831 0.24486 0.94132 0.0
C2344 C 0.16853 0.2755 0.93957 0.0
C2345 C 0.13942 0.25271 0.92686 0.0
C2346 C 0.16714 0.29004 0.93179 0.0
C2347 C 0.16092 0.30921 0.93441 0.0
C2348 C 0.15601 0.31404 0.94485 0.0
C2349 C 0.15855 0.29969 0.95266 0.0
C2350 C 0.16477 0.28064 0.95004 0.0
H2351 H 0.12849 0.24163 0.92405 0.0
H2352 H 0.13207 0.26259 0.93266 0.0
H2353 H 0.14399 0.26187 0.92008 0.0
H2354 H 0.17021 0.28639 0.92367 0.0
H2355 H 0.15924 0.31998 0.92822 0.0
H2356 H 0.91361 0.91209 0.20711 0.0
H2357 H 0.94679 0.92273 0.20256 0.0
H2358 H 0.93307 0.91692 0.16968 0.0
H2359 H 0.89953 0.90603 0.1742 0.0
H2360 H 0.96552 0.89569 0.17549 0.0
H2361 H 0.97306 0.97163 0.19081 0.0
H2362 H 0.96187 0.95608 0.20048 0.0
H2363 H 0.94928 0.96046 0.18827 0.0
C2364 C 0.91746 0.91345 0.19889 0.0
C2365 C 0.904 0.90805 0.19101 0.0
C2366 C 0.9364 0.91979 0.1963 0.0
C2367 C 0.94233 0.92095 0.18578 0.0
C2368 C 0.92869 0.91636 0.17785 0.0
H2369 H 0.07121 0.9108 0.17622 0.0
H2370 H 0.03773 0.92047 0.17103 0.0
C2371 C 0.90957 0.91013 0.18044 0.0
C2372 C 0.96352 0.92387 0.18337 0.0
H2373 H 0.00309 0.95117 0.19143 0.0
C2374 C 0.97376 0.90814 0.17862 0.0
C2375 C 0.9742 0.94018 0.18741 0.0
C2376 C 0.96396 0.95812 0.19192 0.0
C2377 C -0.00555 0.90725 0.17886 0.0
C2378 C 0.00507 0.92267 0.18385 0.0
C2379 C -0.00511 0.9393 0.18768 0.0
C2380 C 0.02599 0.92006 0.18682 0.0
C2381 C 0.00467 0.889 0.17464 0.0
C2382 C 0.03059 0.91744 0.19743 0.0
C2383 C 0.04959 0.91196 0.20042 0.0
C2384 C 0.06441 0.90904 0.19284 0.0
C2385 C 0.06008 0.91282 0.18224 0.0
C2386 C 0.04097 0.91829 0.17925 0.0
H2387 H -0.00596 0.87753 0.17196 0.0
H2388 H 0.01415 0.89311 0.16789 0.0
H2389 H 0.0143 0.88248 0.18075 0.0
H2390 H 0.01922 0.91875 0.20339 0.0
H2391 H 0.05244 0.90936 0.20865 0.0
H2392 H 0.30541 0.66446 0.45986 0.0
H2393 H 0.29641 0.69825 0.45553 0.0
H2394 H 0.30106 0.68443 0.42256 0.0
H2395 H 0.31034 0.65031 0.42685 0.0
H2396 H 0.32391 0.7157 0.4284 0.0
H2397 H 0.24897 0.72722 0.44412 0.0
H2398 H 0.26416 0.71537 0.4537 0.0
H2399 H 0.25885 0.70283 0.44151 0.0
C2400 C 0.30411 0.66843 0.45167 0.0
C2401 C 0.30875 0.65475 0.4437 0.0
C2402 C 0.29872 0.68774 0.4492 0.0
C2403 C 0.29775 0.69381 0.43872 0.0
C2404 C 0.3015 0.67997 0.4307 0.0
H2405 H 0.31288 0.82224 0.42845 0.0
H2406 H 0.30208 0.78874 0.42365 0.0
C2407 C 0.3068 0.66051 0.43317 0.0
C2408 C 0.29591 0.71519 0.43642 0.0
H2409 H 0.27078 0.75628 0.44453 0.0
C2410 C 0.31198 0.72461 0.43159 0.0
C2411 C 0.28029 0.72675 0.44054 0.0
C2412 C 0.26201 0.71745 0.44515 0.0
C2413 C 0.31384 0.74528 0.43177 0.0
C2414 C 0.29907 0.75675 0.43679 0.0
C2415 C 0.28215 0.74742 0.44077 0.0
C2416 C 0.30259 0.77774 0.43954 0.0
C2417 C 0.33238 0.75457 0.42742 0.0
C2418 C 0.30569 0.78278 0.45009 0.0
C2419 C 0.31182 0.80178 0.45286 0.0
C2420 C 0.31492 0.81619 0.44512 0.0
C2421 C 0.31073 0.81144 0.43459 0.0
C2422 C 0.30462 0.79232 0.43182 0.0
H2423 H 0.34332 0.74334 0.42478 0.0
H2424 H 0.32856 0.76398 0.42062 0.0
H2425 H 0.33942 0.76418 0.43344 0.0
H2426 H 0.30419 0.77172 0.45616 0.0
H2427 H 0.31473 0.80497 0.46104 0.0
H2428 H 0.39872 0.06371 0.67774 0.0
H2429 H 0.43253 0.05393 0.67317 0.0
H2430 H 0.44633 0.04803 0.706 0.0
H2431 H 0.41278 0.05756 0.71062 0.0
H2432 H 0.46423 0.07614 0.67926 0.0
H2433 H 0.47395 -1e-05 0.69363 0.0
H2434 H 0.44987 0.01063 0.69129 0.0
H2435 H 0.46257 0.01529 0.70346 0.0
C2436 C 0.40883 0.05984 0.68397 0.0
C2437 C 0.40312 0.06156 0.69455 0.0
C2438 C 0.42812 0.05424 0.68134 0.0
C2439 C 0.44187 0.04997 0.68923 0.0
C2440 C 0.43587 0.05076 0.69976 0.0
H2441 H 0.55418 0.06139 0.7104 0.0
H2442 H 0.52069 0.05183 0.70575 0.0
C2443 C 0.4167 0.05644 0.7024 0.0
C2444 C 0.46312 0.04771 0.68675 0.0
H2445 H 0.50355 0.02078 0.69374 0.0
C2446 C 0.47285 0.06375 0.6821 0.0
C2447 C 0.47428 0.0315 0.69043 0.0
C2448 C 0.46457 0.01329 0.69488 0.0
C2449 C 0.49353 0.06496 0.682 0.0
C2450 C 0.50468 0.0495 0.68651 0.0
C2451 C 0.49496 0.03266 0.69033 0.0
C2452 C 0.52585 0.05217 0.689 0.0
C2453 C 0.50317 0.08353 0.6779 0.0
C2454 C 0.54008 0.05488 0.68111 0.0
C2455 C 0.55935 0.06051 0.68375 0.0
C2456 C 0.56461 0.06345 0.69432 0.0
C2457 C 0.5506 0.05948 0.70218 0.0
C2458 C 0.53144 0.05389 0.69954 0.0
H2459 H 0.49221 0.09511 0.67586 0.0
H2460 H 0.5135 0.08973 0.68382 0.0
H2461 H 0.51182 0.07992 0.67074 0.0
H2462 H 0.5361 0.05334 0.67293 0.0
H2463 H 0.56985 0.06332 0.67752 0.0
H2464 H 0.81535 0.3254 0.92361 0.0
H2465 H 0.80511 0.29145 0.91937 0.0
H2466 H 0.79898 0.27904 0.95236 0.0
H2467 H 0.80891 0.31267 0.95662 0.0
H2468 H 0.82685 0.25993 0.92546 0.0
H2469 H 0.75138 0.25061 0.94074 0.0
H2470 H 0.76187 0.2747 0.93816 0.0
H2471 H 0.76654 0.26242 0.95043 0.0
C2472 C 0.81128 0.31557 0.92993 0.0
C2473 C 0.81311 0.32165 0.94046 0.0
C2474 C 0.80543 0.2962 0.9275 0.0
C2475 C 0.801 0.28278 0.93554 0.0
C2476 C 0.80181 0.28923 0.94601 0.0
H2477 H 0.81592 0.17295 0.95887 0.0
H2478 H 0.80558 0.20592 0.95357 0.0
C2479 C 0.80774 0.30844 0.94844 0.0
C2480 C 0.79872 0.26136 0.93333 0.0
H2481 H 0.77267 0.22113 0.94159 0.0
C2482 C 0.81468 0.25141 0.92864 0.0
C2483 C 0.78279 0.25028 0.93743 0.0
C2484 C 0.7646 0.26013 0.94187 0.0
C2485 C 0.81614 0.23072 0.92898 0.0
C2486 C 0.80109 0.21976 0.93401 0.0
C2487 C 0.78427 0.22959 0.93782 0.0
C2488 C 0.80426 0.19889 0.93702 0.0
C2489 C 0.8346 0.22089 0.9248 0.0
C2490 C 0.80634 0.18383 0.92947 0.0
C2491 C 0.81234 0.16487 0.93249 0.0
C2492 C 0.81637 0.16077 0.94308 0.0
C2493 C 0.81314 0.17564 0.95064 0.0
C2494 C 0.80712 0.19449 0.94763 0.0
H2495 H 0.84575 0.23179 0.92209 0.0
H2496 H 0.84139 0.21151 0.93093 0.0
H2497 H 0.83072 0.21118 0.91807 0.0
H2498 H 0.80398 0.18692 0.92125 0.0
H2499 H 0.81458 0.15369 0.92648 0.0
H2500 H 0.65665 0.82084 0.42647 0.0
H2501 H 0.66496 0.78627 0.42245 0.0
H2502 H 0.6642 0.77279 0.45546 0.0
H2503 H 0.65632 0.8071 0.45955 0.0
H2504 H 0.69456 0.75319 0.44425 0.0
H2505 H 0.62096 0.74477 0.42514 0.0
H2506 H 0.63747 0.76318 0.42002 0.0
H2507 H 0.62708 0.76631 0.43288 0.0
C2508 C 0.65863 0.81058 0.43287 0.0
C2509 C 0.65552 0.81666 0.44333 0.0
C2510 C 0.66328 0.79083 0.43055 0.0
C2511 C 0.66485 0.77693 0.43865 0.0
C2512 C 0.66301 0.78327 0.44909 0.0
H2513 H 0.65174 0.66553 0.46155 0.0
H2514 H 0.66279 0.6985 0.45668 0.0
C2515 C 0.6584 0.80291 0.45141 0.0
C2516 C 0.66646 0.75544 0.43647 0.0
H2517 H 0.63815 0.71594 0.42918 0.0
C2518 C 0.68246 0.74503 0.44072 0.0
C2519 C 0.65071 0.74483 0.43179 0.0
C2520 C 0.633 0.75523 0.42723 0.0
C2521 C 0.68247 0.72429 0.44109 0.0
C2522 C 0.66594 0.71377 0.43724 0.0
C2523 C 0.65078 0.72408 0.43216 0.0
C2524 C 0.66239 0.6928 0.43996 0.0
C2525 C 0.69974 0.71385 0.44604 0.0
C2526 C 0.65845 0.6786 0.43217 0.0
C2527 C 0.65204 0.65962 0.43494 0.0
C2528 C 0.64913 0.65474 0.44555 0.0
C2529 C 0.65376 0.66882 0.45331 0.0
C2530 C 0.6603 0.68764 0.45054 0.0
H2531 H 0.71356 0.72253 0.44508 0.0
H2532 H 0.69696 0.71224 0.45457 0.0
H2533 H 0.70194 0.69888 0.44259 0.0
H2534 H 0.65975 0.68238 0.42395 0.0
H2535 H 0.64857 0.6491 0.42878 0.0
H2536 H 0.81619 0.6694 0.01671 0.0
H2537 H 0.80686 0.70317 0.02127 0.0
H2538 H 0.80364 0.68731 0.05393 0.0
H2539 H 0.81322 0.65326 0.04945 0.0
H2540 H 0.77402 0.72038 0.03265 0.0
H2541 H 0.84668 0.73094 0.05249 0.0
H2542 H 0.84206 0.70996 0.04404 0.0
H2543 H 0.83095 0.71112 0.05681 0.0
C2544 C 0.81328 0.67296 0.02486 0.0
C2545 C 0.81573 0.6587 0.03274 0.0
C2546 C 0.80784 0.69227 0.02745 0.0
C2547 C 0.8048 0.69776 0.03794 0.0
C2548 C 0.80614 0.68337 0.04579 0.0
H2549 H 0.81759 0.82533 0.04914 0.0
H2550 H 0.80696 0.79178 0.05382 0.0
C2551 C 0.81156 0.66394 0.04321 0.0
C2552 C 0.80212 0.71898 0.04049 0.0
H2553 H 0.82862 0.75924 0.04844 0.0
C2554 C 0.7857 0.72888 0.03635 0.0
C2555 C 0.81729 0.73 0.04541 0.0
C2556 C 0.83532 0.72009 0.04993 0.0
C2557 C 0.78476 0.74962 0.03631 0.0
C2558 C 0.80082 0.76064 0.04033 0.0
C2559 C 0.81636 0.75074 0.04533 0.0
C2560 C 0.80365 0.78181 0.03777 0.0
C2561 C 0.76701 0.75951 0.03153 0.0
C2562 C 0.80511 0.78736 0.02721 0.0
C2563 C 0.81128 0.80633 0.02453 0.0
C2564 C 0.81623 0.82019 0.03234 0.0
C2565 C 0.81386 0.81498 0.04294 0.0
C2566 C 0.80777 0.79585 0.04563 0.0
H2567 H 0.75353 0.75038 0.03262 0.0
H2568 H 0.76443 0.77441 0.03499 0.0
H2569 H 0.76943 0.76115 0.02297 0.0
H2570 H 0.80251 0.77666 0.02101 0.0
H2571 H 0.81288 0.80988 0.01629 0.0
H2572 H 0.65062 0.31993 0.55274 0.0
H2573 H 0.66196 0.28672 0.55763 0.0
H2574 H 0.67144 0.27257 0.52498 0.0
H2575 H 0.66035 0.30544 0.52008 0.0
H2576 H 0.64217 0.25355 0.55118 0.0
H2577 H 0.71958 0.24763 0.53825 0.0
H2578 H 0.7076 0.27121 0.54042 0.0
H2579 H 0.70478 0.25827 0.52811 0.0
C2580 C 0.65564 0.30989 0.54665 0.0
C2581 C 0.65444 0.31523 0.53602 0.0
C2582 C 0.66212 0.29095 0.54945 0.0
C2583 C 0.66783 0.27726 0.54169 0.0
C2584 C 0.6676 0.28301 0.53114 0.0
H2585 H 0.66192 0.16603 0.51875 0.0
H2586 H 0.67025 0.19955 0.52424 0.0
C2587 C 0.66101 0.30177 0.52833 0.0
C2588 C 0.67101 0.25612 0.5442 0.0
H2589 H 0.70009 0.21701 0.53716 0.0
C2590 C 0.65511 0.24554 0.54847 0.0
C2591 C 0.68795 0.24575 0.54071 0.0
C2592 C 0.70601 0.25638 0.53673 0.0
C2593 C 0.65478 0.22478 0.54827 0.0
C2594 C 0.67096 0.21441 0.54383 0.0
C2595 C 0.68764 0.22499 0.54049 0.0
C2596 C 0.66924 0.19328 0.54086 0.0
C2597 C 0.63639 0.21419 0.55191 0.0
C2598 C 0.66661 0.17842 0.54839 0.0
C2599 C 0.66173 0.15913 0.54526 0.0
C2600 C 0.65942 0.15448 0.53455 0.0
C2601 C 0.66336 0.16914 0.52706 0.0
C2602 C 0.66824 0.18831 0.53018 0.0
H2603 H 0.62434 0.22461 0.55406 0.0
H2604 H 0.63092 0.20407 0.54567 0.0
H2605 H 0.6399 0.20513 0.55889 0.0
H2606 H 0.66759 0.18192 0.55666 0.0
H2607 H 0.6589 0.14814 0.55122 0.0
H2608 H 0.90087 0.40223 0.7974 0.0
H2609 H 0.93468 0.4124 0.80172 0.0
H2610 H 0.94854 0.416 0.76876 0.0
H2611 H 0.91501 0.40605 0.7644 0.0
H2612 H 0.96692 0.39014 0.79595 0.0
H2613 H 0.97511 0.46553 0.78018 0.0
H2614 H 0.95126 0.45458 0.78282 0.0
H2615 H 0.96404 0.4493 0.77071 0.0
C2616 C 0.91101 0.40565 0.79109 0.0
C2617 C 0.9053 0.40321 0.78055 0.0
C2618 C 0.93029 0.41147 0.79357 0.0
C2619 C 0.94404 0.41524 0.78557 0.0
C2620 C 0.93807 0.41365 0.77507 0.0
H2621 H 0.05795 0.40585 0.76526 0.0
H2622 H 0.02389 0.4144 0.76937 0.0
C2623 C 0.91892 0.40773 0.77259 0.0
C2624 C 0.96525 0.41806 0.78797 0.0
H2625 H 0.00515 0.44557 0.78065 0.0
C2626 C 0.97528 0.40255 0.79291 0.0
C2627 C 0.97608 0.4343 0.78403 0.0
C2628 C 0.96601 0.45196 0.77924 0.0
C2629 C -0.00401 0.40189 0.79311 0.0
C2630 C 0.00686 0.41738 0.78839 0.0
C2631 C -0.00322 0.43368 0.78422 0.0
C2632 C 0.02823 0.41526 0.78617 0.0
C2633 C 0.00602 0.38386 0.79757 0.0
C2634 C 0.04216 0.41358 0.79426 0.0
C2635 C 0.06176 0.40857 0.79192 0.0
C2636 C 0.06766 0.40519 0.78147 0.0
C2637 C 0.05389 0.40813 0.7734 0.0
C2638 C 0.0344 0.41312 0.77573 0.0
H2639 H -0.00467 0.37206 0.79969 0.0
H2640 H 0.01679 0.37767 0.79185 0.0
H2641 H 0.01425 0.38813 0.80475 0.0
H2642 H 0.03772 0.41547 0.80236 0.0
H2643 H 0.07204 0.40654 0.79832 0.0
H2644 H 0.40048 0.56358 0.29885 0.0
H2645 H 0.43392 0.55288 0.30357 0.0
H2646 H 0.45148 0.55618 0.27111 0.0
H2647 H 0.41831 0.56663 0.26631 0.0
H2648 H 0.46689 0.52241 0.28238 0.0
H2649 H 0.479 0.59455 0.3029 0.0
H2650 H 0.4584 0.57954 0.30689 0.0
H2651 H 0.4584 0.59078 0.29418 0.0
C2652 C 0.41139 0.56171 0.2927 0.0
C2653 C 0.40681 0.56621 0.28222 0.0
C2654 C 0.43048 0.55566 0.29542 0.0
C2655 C 0.44518 0.55399 0.2877 0.0
C2656 C 0.44032 0.5574 0.27718 0.0
H2657 H 0.55974 0.55704 0.26825 0.0
H2658 H 0.52573 0.5481 0.27206 0.0
C2659 C 0.42136 0.56348 0.27447 0.0
C2660 C 0.4661 0.55051 0.29043 0.0
H2661 H 0.50673 0.57525 0.29925 0.0
C2662 C 0.47559 0.53372 0.2863 0.0
C2663 C 0.47736 0.56519 0.29563 0.0
C2664 C 0.4679 0.58361 0.30014 0.0
C2665 C 0.49622 0.53189 0.2866 0.0
C2666 C 0.50759 0.54743 0.29095 0.0
C2667 C 0.49799 0.56338 0.29588 0.0
C2668 C 0.52907 0.54924 0.28893 0.0
C2669 C 0.50566 0.5137 0.28187 0.0
C2670 C 0.54237 0.55285 0.29716 0.0
C2671 C 0.56195 0.55815 0.29499 0.0
C2672 C 0.5684 0.5602 0.28455 0.0
C2673 C 0.55526 0.55565 0.27637 0.0
C2674 C 0.53581 0.5503 0.27854 0.0
H2675 H 0.49588 0.5006 0.28271 0.0
H2676 H 0.50807 0.51611 0.27336 0.0
H2677 H 0.52011 0.51042 0.28557 0.0
H2678 H 0.53741 0.55232 0.30523 0.0
H2679 H 0.5717 0.56159 0.30146 0.0
H2680 H 0.39993 0.40289 0.67503 0.0
H2681 H 0.43375 0.41217 0.67013 0.0
H2682 H 0.44899 0.41774 0.70282 0.0
H2683 H 0.41544 0.40879 0.70778 0.0
H2684 H 0.46601 0.44752 0.68965 0.0
H2685 H 0.47789 0.37078 0.67451 0.0
H2686 H 0.45807 0.38503 0.669 0.0
H2687 H 0.45665 0.37714 0.6824 0.0
C2688 C 0.4104 0.40645 0.68116 0.0
C2689 C 0.40508 0.40482 0.6918 0.0
C2690 C 0.42972 0.41167 0.67835 0.0
C2691 C 0.44391 0.41535 0.68612 0.0
C2692 C 0.43827 0.41493 0.6967 0.0
H2693 H 0.55704 0.4146 0.70767 0.0
H2694 H 0.5235 0.4232 0.70271 0.0
C2695 C 0.41908 0.4097 0.69952 0.0
C2696 C 0.4651 0.41776 0.68354 0.0
H2697 H 0.50576 0.39036 0.67721 0.0
C2698 C 0.4747 0.43521 0.68668 0.0
C2699 C 0.47638 0.40173 0.67959 0.0
C2700 C 0.46685 0.38253 0.67621 0.0
C2701 C 0.49538 0.43656 0.68665 0.0
C2702 C 0.50668 0.41991 0.68358 0.0
C2703 C 0.49706 0.40309 0.67959 0.0
C2704 C 0.52798 0.41821 0.68609 0.0
C2705 C 0.50492 0.45552 0.69033 0.0
C2706 C 0.54178 0.41257 0.67839 0.0
C2707 C 0.56109 0.4075 0.68123 0.0
C2708 C 0.56676 0.40769 0.69184 0.0
C2709 C 0.55315 0.41423 0.69944 0.0
C2710 C 0.53398 0.41938 0.69659 0.0
H2711 H 0.49548 0.46849 0.6885 0.0
H2712 H 0.50678 0.45504 0.69897 0.0
H2713 H 0.51965 0.45766 0.68666 0.0
H2714 H 0.53738 0.41136 0.67025 0.0
H2715 H 0.57122 0.40247 0.67519 0.0
H2716 H 0.90058 0.56751 0.1767 0.0
H2717 H 0.93431 0.55783 0.17183 0.0
H2718 H 0.94983 0.55457 0.20456 0.0
H2719 H 0.9164 0.5641 0.20946 0.0
H2720 H 0.96654 0.58075 0.17719 0.0
H2721 H 0.97663 0.5054 0.19262 0.0
H2722 H 0.95251 0.51588 0.19022 0.0
H2723 H 0.96539 0.52122 0.20226 0.0
C2724 C 0.91107 0.56426 0.18285 0.0
C2725 C 0.90587 0.56669 0.19347 0.0
C2726 C 0.93031 0.55872 0.18005 0.0
C2727 C 0.94449 0.55519 0.18783 0.0
C2728 C 0.93903 0.55675 0.19842 0.0
H2729 H 0.05587 0.56811 0.20873 0.0
H2730 H 0.02252 0.55838 0.20393 0.0
C2731 C 0.91993 0.56242 0.20121 0.0
C2732 C 0.96562 0.55273 0.18512 0.0
H2733 H 0.00621 0.52622 0.19226 0.0
C2734 C 0.97524 0.56852 0.18015 0.0
C2735 C 0.97687 0.5367 0.18893 0.0
C2736 C 0.96726 0.51875 0.1937 0.0
C2737 C -0.00408 0.56974 0.17992 0.0
C2738 C 0.00718 0.55457 0.18464 0.0
C2739 C -0.00246 0.53789 0.18871 0.0
C2740 C 0.02826 0.5576 0.18723 0.0
C2741 C 0.00549 0.58808 0.17551 0.0
C2742 C 0.04275 0.55982 0.17943 0.0
C2743 C 0.06198 0.56551 0.18216 0.0
C2744 C 0.06689 0.56907 0.19273 0.0
C2745 C 0.05256 0.56572 0.20051 0.0
C2746 C 0.03348 0.56003 0.19778 0.0
H2747 H -0.00552 0.59935 0.17311 0.0
H2748 H 0.01555 0.59484 0.18139 0.0
H2749 H 0.01444 0.58401 0.16852 0.0
H2750 H 0.03904 0.55775 0.17124 0.0
H2751 H 0.07273 0.56784 0.17599 0.0
loop_
_geom_bond_atom_site_label_1
_geom_bond_atom_site_label_2
_geom_bond_distance
_geom_bond_site_symmetry_2
_ccdc_geom_bond_type
Zn0 O3 2.031 . S
Zn0 O5 2.049 . S
Zn0 O10 2.067 . S
Zn1 O2 1.962 . S
Zn1 O4 1.986 . S
Zn1 O6 1.996 . S
Zn1 O9 1.943 . S
O2 Zn1 1.962 . S
O2 C7 1.254 . S
O3 Zn0 2.031 . S
O3 C7 1.269 . S
O4 Zn1 1.986 . S
O4 C11 1.262 . S
O5 Zn0 2.049 . S
O5 C13 1.260 . S
O6 Zn1 1.996 . S
O6 C13 1.257 . S
C7 O2 1.254 . S
C7 O3 1.269 . S
C8 O9 1.249 . S
C8 O10 1.270 . S
O9 Zn1 1.943 . S
O9 C8 1.249 . S
O10 Zn0 2.067 . S
O10 C8 1.270 . S
C11 O4 1.262 . S
C11 O12 1.232 . S
O12 C11 1.232 . S
C13 O5 1.260 . S
C13 O6 1.257 . S
Zn14 O17 2.031 . S
Zn14 O19 2.049 . S
Zn14 O24 2.067 . S
Zn15 O16 1.962 . S
Zn15 O18 1.986 . S
Zn15 O20 1.996 . S
Zn15 O23 1.943 . S
O16 Zn15 1.962 . S
O16 C21 1.254 . S
O17 Zn14 2.031 . S
O17 C21 1.269 . S
O18 Zn15 1.986 . S
O18 C25 1.262 . S
O19 Zn14 2.049 . S
O19 C27 1.260 . S
O20 Zn15 1.996 . S
O20 C27 1.257 . S
C21 O16 1.254 . S
C21 O17 1.269 . S
C22 O23 1.249 . S
C22 O24 1.270 . S
O23 Zn15 1.943 . S
O23 C22 1.249 . S
O24 Zn14 2.067 . S
O24 C22 1.270 . S
C25 O18 1.262 . S
C25 O26 1.232 . S
O26 C25 1.232 . S
C27 O19 1.260 . S
C27 O20 1.257 . S
Zn28 O31 2.031 . S
Zn28 O33 2.049 . S
Zn28 O38 2.067 . S
Zn29 O30 1.962 . S
Zn29 O32 1.986 . S
Zn29 O34 1.996 . S
Zn29 O37 1.943 . S
O30 Zn29 1.962 . S
O30 C35 1.254 . S
O31 Zn28 2.031 . S
O31 C35 1.269 . S
O32 Zn29 1.986 . S
O32 C39 1.262 . S
O33 Zn28 2.049 . S
O33 C41 1.260 . S
O34 Zn29 1.996 . S
O34 C41 1.257 . S
C35 O30 1.254 . S
C35 O31 1.269 . S
C36 O37 1.249 . S
C36 O38 1.270 . S
O37 Zn29 1.943 . S
O37 C36 1.249 . S
O38 Zn28 2.067 . S
O38 C36 1.270 . S
C39 O32 1.262 . S
C39 O40 1.232 . S
O40 C39 1.232 . S
C41 O33 1.260 . S
C41 O34 1.257 . S
Zn42 O45 2.031 . S
Zn42 O47 2.049 . S
Zn42 O52 2.067 . S
Zn43 O44 1.962 . S
Zn43 O46 1.986 . S
Zn43 O48 1.996 . S
Zn43 O51 1.943 . S
O44 Zn43 1.962 . S
O44 C49 1.254 . S
O45 Zn42 2.031 . S
O45 C49 1.269 . S
O46 Zn43 1.986 . S
O46 C53 1.262 . S
O47 Zn42 2.049 . S
O47 C55 1.260 . S
O48 Zn43 1.996 . S
O48 C55 1.257 . S
C49 O44 1.254 . S
C49 O45 1.269 . S
C50 O51 1.249 . S
C50 O52 1.270 . S
O51 Zn43 1.943 . S
O51 C50 1.249 . S
O52 Zn42 2.067 . S
O52 C50 1.270 . S
C53 O46 1.262 . S
C53 O54 1.232 . S
O54 C53 1.232 . S
C55 O47 1.260 . S
C55 O48 1.257 . S
Zn56 O59 2.031 . S
Zn56 O61 2.049 . S
Zn56 O66 2.067 . S
Zn57 O58 1.962 . S
Zn57 O60 1.986 . S
Zn57 O62 1.996 . S
Zn57 O65 1.943 . S
O58 Zn57 1.962 . S
O58 C63 1.254 . S
O59 Zn56 2.031 . S
O59 C63 1.269 . S
O60 Zn57 1.986 . S
O60 C67 1.262 . S
O61 Zn56 2.049 . S
O61 C69 1.260 . S
O62 Zn57 1.996 . S
O62 C69 1.257 . S
C63 O58 1.254 . S
C63 O59 1.269 . S
C64 O65 1.249 . S
C64 O66 1.270 . S
O65 Zn57 1.943 . S
O65 C64 1.249 . S
O66 Zn56 2.067 . S
O66 C64 1.270 . S
C67 O60 1.262 . S
C67 O68 1.232 . S
O68 C67 1.232 . S
C69 O61 1.260 . S
C69 O62 1.257 . S
Zn70 O73 2.031 . S
Zn70 O75 2.049 . S
Zn70 O80 2.067 . S
Zn71 O72 1.962 . S
Zn71 O74 1.986 . S
Zn71 O76 1.996 . S
Zn71 O79 1.943 . S
O72 Zn71 1.962 . S
O72 C77 1.254 . S
O73 Zn70 2.031 . S
O73 C77 1.269 . S
O74 Zn71 1.986 . S
O74 C81 1.262 . S
O75 Zn70 2.049 . S
O75 C83 1.260 . S
O76 Zn71 1.996 . S
O76 C83 1.257 . S
C77 O72 1.254 . S
C77 O73 1.269 . S
C78 O79 1.249 . S
C78 O80 1.270 . S
O79 Zn71 1.943 . S
O79 C78 1.249 . S
O80 Zn70 2.067 . S
O80 C78 1.270 . S
C81 O74 1.262 . S
C81 O82 1.232 . S
O82 C81 1.232 . S
C83 O75 1.260 . S
C83 O76 1.257 . S
Zn84 O87 2.031 . S
Zn84 O89 2.049 . S
Zn84 O94 2.067 . S
Zn85 O86 1.962 . S
Zn85 O88 1.986 . S
Zn85 O90 1.996 . S
Zn85 O93 1.943 . S
O86 Zn85 1.962 . S
O86 C91 1.254 . S
O87 Zn84 2.031 . S
O87 C91 1.269 . S
O88 Zn85 1.986 . S
O88 C95 1.262 . S
O89 Zn84 2.049 . S
O89 C97 1.260 . S
O90 Zn85 1.996 . S
O90 C97 1.257 . S
C91 O86 1.254 . S
C91 O87 1.269 . S
C92 O93 1.249 . S
C92 O94 1.270 . S
O93 Zn85 1.943 . S
O93 C92 1.249 . S
O94 Zn84 2.067 . S
O94 C92 1.270 . S
C95 O88 1.262 . S
C95 O96 1.232 . S
O96 C95 1.232 . S
C97 O89 1.260 . S
C97 O90 1.257 . S
Zn98 O101 2.031 . S
Zn98 O103 2.049 . S
Zn98 O108 2.067 . S
Zn99 O100 1.962 . S
Zn99 O102 1.986 . S
Zn99 O104 1.996 . S
Zn99 O107 1.943 . S
O100 Zn99 1.962 . S
O100 C105 1.254 . S
O101 Zn98 2.031 . S
O101 C105 1.269 . S
O102 Zn99 1.986 . S
O102 C109 1.262 . S
O103 Zn98 2.049 . S
O103 C111 1.260 . S
O104 Zn99 1.996 . S
O104 C111 1.257 . S
C105 O100 1.254 . S
C105 O101 1.269 . S
C106 O107 1.249 . S
C106 O108 1.270 . S
O107 Zn99 1.943 . S
O107 C106 1.249 . S
O108 Zn98 2.067 . S
O108 C106 1.270 . S
C109 O102 1.262 . S
C109 O110 1.232 . S
O110 C109 1.232 . S
C111 O103 1.260 . S
C111 O104 1.257 . S
Zn112 O115 2.031 . S
Zn112 O117 2.049 . S
Zn112 O122 2.067 . S
Zn113 O114 1.962 . S
Zn113 O116 1.986 . S
Zn113 O118 1.996 . S
Zn113 O121 1.943 . S
O114 Zn113 1.962 . S
O114 C119 1.254 . S
O115 Zn112 2.031 . S
O115 C119 1.269 . S
O116 Zn113 1.986 . S
O116 C123 1.262 . S
O117 Zn112 2.049 . S
O117 C125 1.260 . S
O118 Zn113 1.996 . S
O118 C125 1.257 . S
C119 O114 1.254 . S
C119 O115 1.269 . S
C120 O121 1.249 . S
C120 O122 1.270 . S
O121 Zn113 1.943 . S
O121 C120 1.249 . S
O122 Zn112 2.067 . S
O122 C120 1.270 . S
C123 O116 1.262 . S
C123 O124 1.232 . S
O124 C123 1.232 . S
C125 O117 1.260 . S
C125 O118 1.257 . S
Zn126 O129 2.031 . S
Zn126 O131 2.049 . S
Zn126 O136 2.067 . S
Zn127 O128 1.962 . S
Zn127 O130 1.986 . S
Zn127 O132 1.996 . S
Zn127 O135 1.943 . S
O128 Zn127 1.962 . S
O128 C133 1.254 . S
O129 Zn126 2.031 . S
O129 C133 1.269 . S
O130 Zn127 1.986 . S
O130 C137 1.262 . S
O131 Zn126 2.049 . S
O131 C139 1.260 . S
O132 Zn127 1.996 . S
O132 C139 1.257 . S
C133 O128 1.254 . S
C133 O129 1.269 . S
C134 O135 1.249 . S
C134 O136 1.270 . S
O135 Zn127 1.943 . S
O135 C134 1.249 . S
O136 Zn126 2.067 . S
O136 C134 1.270 . S
C137 O130 1.262 . S
C137 O138 1.232 . S
O138 C137 1.232 . S
C139 O131 1.260 . S
C139 O132 1.257 . S
Zn140 O143 2.031 . S
Zn140 O145 2.049 . S
Zn140 O150 2.067 . S
Zn141 O142 1.962 . S
Zn141 O144 1.986 . S
Zn141 O146 1.996 . S
Zn141 O149 1.943 . S
O142 Zn141 1.962 . S
O142 C147 1.254 . S
O143 Zn140 2.031 . S
O143 C147 1.269 . S
O144 Zn141 1.986 . S
O144 C151 1.262 . S
O145 Zn140 2.049 . S
O145 C153 1.260 . S
O146 Zn141 1.996 . S
O146 C153 1.257 . S
C147 O142 1.254 . S
C147 O143 1.269 . S
C148 O149 1.249 . S
C148 O150 1.270 . S
O149 Zn141 1.943 . S
O149 C148 1.249 . S
O150 Zn140 2.067 . S
O150 C148 1.270 . S
C151 O144 1.262 . S
C151 O152 1.232 . S
O152 C151 1.232 . S
C153 O145 1.260 . S
C153 O146 1.257 . S
Zn154 O157 2.031 . S
Zn154 O159 2.049 . S
Zn154 O164 2.067 . S
Zn155 O156 1.962 . S
Zn155 O158 1.986 . S
Zn155 O160 1.996 . S
Zn155 O163 1.943 . S
O156 Zn155 1.962 . S
O156 C161 1.254 . S
O157 Zn154 2.031 . S
O157 C161 1.269 . S
O158 Zn155 1.986 . S
O158 C165 1.262 . S
O159 Zn154 2.049 . S
O159 C167 1.260 . S
O160 Zn155 1.996 . S
O160 C167 1.257 . S
C161 O156 1.254 . S
C161 O157 1.269 . S
C162 O163 1.249 . S
C162 O164 1.270 . S
O163 Zn155 1.943 . S
O163 C162 1.249 . S
O164 Zn154 2.067 . S
O164 C162 1.270 . S
C165 O158 1.262 . S
C165 O166 1.232 . S
O166 C165 1.232 . S
C167 O159 1.260 . S
C167 O160 1.257 . S
Zn168 O171 2.031 . S
Zn168 O173 2.049 . S
Zn168 O178 2.067 . S
Zn169 O170 1.962 . S
Zn169 O172 1.986 . S
Zn169 O174 1.996 . S
Zn169 O177 1.943 . S
O170 Zn169 1.962 . S
O170 C175 1.254 . S
O171 Zn168 2.031 . S
O171 C175 1.269 . S
O172 Zn169 1.986 . S
O172 C179 1.262 . S
O173 Zn168 2.049 . S
O173 C181 1.260 . S
O174 Zn169 1.996 . S
O174 C181 1.257 . S
C175 O170 1.254 . S
C175 O171 1.269 . S
C176 O177 1.249 . S
C176 O178 1.270 . S
O177 Zn169 1.943 . S
O177 C176 1.249 . S
O178 Zn168 2.067 . S
O178 C176 1.270 . S
C179 O172 1.262 . S
C179 O180 1.232 . S
O180 C179 1.232 . S
C181 O173 1.260 . S
C181 O174 1.257 . S
Zn182 O185 2.031 . S
Zn182 O187 2.049 . S
Zn182 O192 2.067 . S
Zn183 O184 1.962 . S
Zn183 O186 1.986 . S
Zn183 O188 1.996 . S
Zn183 O191 1.943 . S
O184 Zn183 1.962 . S
O184 C189 1.254 . S
O185 Zn182 2.031 . S
O185 C189 1.269 . S
O186 Zn183 1.986 . S
O186 C193 1.262 . S
O187 Zn182 2.049 . S
O187 C195 1.260 . S
O188 Zn183 1.996 . S
O188 C195 1.257 . S
C189 O184 1.254 . S
C189 O185 1.269 . S
C190 O191 1.249 . S
C190 O192 1.270 . S
O191 Zn183 1.943 . S
O191 C190 1.249 . S
O192 Zn182 2.067 . S
O192 C190 1.270 . S
C193 O186 1.262 . S
C193 O194 1.232 . S
O194 C193 1.232 . S
C195 O187 1.260 . S
C195 O188 1.257 . S
Zn196 O199 2.031 . S
Zn196 O201 2.049 . S
Zn196 O206 2.067 . S
Zn197 O198 1.962 . S
Zn197 O200 1.986 . S
Zn197 O202 1.996 . S
Zn197 O205 1.943 . S
O198 Zn197 1.962 . S
O198 C203 1.254 . S
O199 Zn196 2.031 . S
O199 C203 1.269 . S
O200 Zn197 1.986 . S
O200 C207 1.262 . S
O201 Zn196 2.049 . S
O201 C209 1.260 . S
O202 Zn197 1.996 . S
O202 C209 1.257 . S
C203 O198 1.254 . S
C203 O199 1.269 . S
C204 O205 1.249 . S
C204 O206 1.270 . S
O205 Zn197 1.943 . S
O205 C204 1.249 . S
O206 Zn196 2.067 . S
O206 C204 1.270 . S
C207 O200 1.262 . S
C207 O208 1.232 . S
O208 C207 1.232 . S
C209 O201 1.260 . S
C209 O202 1.257 . S
Zn210 O213 2.031 . S
Zn210 O215 2.049 . S
Zn210 O220 2.067 . S
Zn211 O212 1.962 . S
Zn211 O214 1.986 . S
Zn211 O216 1.996 . S
Zn211 O219 1.943 . S
O212 Zn211 1.962 . S
O212 C217 1.254 . S
O213 Zn210 2.031 . S
O213 C217 1.269 . S
O214 Zn211 1.986 . S
O214 C221 1.262 . S
O215 Zn210 2.049 . S
O215 C223 1.260 . S
O216 Zn211 1.996 . S
O216 C223 1.257 . S
C217 O212 1.254 . S
C217 O213 1.269 . S
C218 O219 1.249 . S
C218 O220 1.270 . S
O219 Zn211 1.943 . S
O219 C218 1.249 . S
O220 Zn210 2.067 . S
O220 C218 1.270 . S
C221 O214 1.262 . S
C221 O222 1.232 . S
O222 C221 1.232 . S
C223 O215 1.260 . S
C223 O216 1.257 . S
Zn224 O227 2.031 . S
Zn224 O229 2.049 . S
Zn224 O234 2.067 . S
Zn225 O226 1.962 . S
Zn225 O228 1.986 . S
Zn225 O230 1.996 . S
Zn225 O233 1.943 . S
O226 Zn225 1.962 . S
O226 C231 1.254 . S
O227 Zn224 2.031 . S
O227 C231 1.269 . S
O228 Zn225 1.986 . S
O228 C235 1.262 . S
O229 Zn224 2.049 . S
O229 C237 1.260 . S
O230 Zn225 1.996 . S
O230 C237 1.257 . S
C231 O226 1.254 . S
C231 O227 1.269 . S
C232 O233 1.249 . S
C232 O234 1.270 . S
O233 Zn225 1.943 . S
O233 C232 1.249 . S
O234 Zn224 2.067 . S
O234 C232 1.270 . S
C235 O228 1.262 . S
C235 O236 1.232 . S
O236 C235 1.232 . S
C237 O229 1.260 . S
C237 O230 1.257 . S
Zn238 O241 2.031 . S
Zn238 O243 2.049 . S
Zn238 O248 2.067 . S
Zn239 O240 1.962 . S
Zn239 O242 1.986 . S
Zn239 O244 1.996 . S
Zn239 O247 1.943 . S
O240 Zn239 1.962 . S
O240 C245 1.254 . S
O241 Zn238 2.031 . S
O241 C245 1.269 . S
O242 Zn239 1.986 . S
O242 C249 1.262 . S
O243 Zn238 2.049 . S
O243 C251 1.260 . S
O244 Zn239 1.996 . S
O244 C251 1.257 . S
C245 O240 1.254 . S
C245 O241 1.269 . S
C246 O247 1.249 . S
C246 O248 1.270 . S
O247 Zn239 1.943 . S
O247 C246 1.249 . S
O248 Zn238 2.067 . S
O248 C246 1.270 . S
C249 O242 1.262 . S
C249 O250 1.232 . S
O250 C249 1.232 . S
C251 O243 1.260 . S
C251 O244 1.257 . S
Zn252 O255 2.031 . S
Zn252 O257 2.049 . S
Zn252 O262 2.067 . S
Zn253 O254 1.962 . S
Zn253 O256 1.986 . S
Zn253 O258 1.996 . S
Zn253 O261 1.943 . S
O254 Zn253 1.962 . S
O254 C259 1.254 . S
O255 Zn252 2.031 . S
O255 C259 1.269 . S
O256 Zn253 1.986 . S
O256 C263 1.262 . S
O257 Zn252 2.049 . S
O257 C265 1.260 . S
O258 Zn253 1.996 . S
O258 C265 1.257 . S
C259 O254 1.254 . S
C259 O255 1.269 . S
C260 O261 1.249 . S
C260 O262 1.270 . S
O261 Zn253 1.943 . S
O261 C260 1.249 . S
O262 Zn252 2.067 . S
O262 C260 1.270 . S
C263 O256 1.262 . S
C263 O264 1.232 . S
O264 C263 1.232 . S
C265 O257 1.260 . S
C265 O258 1.257 . S
Zn266 O269 2.031 . S
Zn266 O271 2.049 . S
Zn266 O276 2.067 . S
Zn267 O268 1.962 . S
Zn267 O270 1.986 . S
Zn267 O272 1.996 . S
Zn267 O275 1.943 . S
O268 Zn267 1.962 . S
O268 C273 1.254 . S
O269 Zn266 2.031 . S
O269 C273 1.269 . S
O270 Zn267 1.986 . S
O270 C277 1.262 . S
O271 Zn266 2.049 . S
O271 C279 1.260 . S
O272 Zn267 1.996 . S
O272 C279 1.257 . S
C273 O268 1.254 . S
C273 O269 1.269 . S
C274 O275 1.249 . S
C274 O276 1.270 . S
O275 Zn267 1.943 . S
O275 C274 1.249 . S
O276 Zn266 2.067 . S
O276 C274 1.270 . S
C277 O270 1.262 . S
C277 O278 1.232 . S
O278 C277 1.232 . S
C279 O271 1.260 . S
C279 O272 1.257 . S
Zn280 O283 2.031 . S
Zn280 O285 2.049 . S
Zn280 O290 2.067 . S
Zn281 O282 1.962 . S
Zn281 O284 1.986 . S
Zn281 O286 1.996 . S
Zn281 O289 1.943 . S
O282 Zn281 1.962 . S
O282 C287 1.254 . S
O283 Zn280 2.031 . S
O283 C287 1.269 . S
O284 Zn281 1.986 . S
O284 C291 1.262 . S
O285 Zn280 2.049 . S
O285 C293 1.260 . S
O286 Zn281 1.996 . S
O286 C293 1.257 . S
C287 O282 1.254 . S
C287 O283 1.269 . S
C288 O289 1.249 . S
C288 O290 1.270 . S
O289 Zn281 1.943 . S
O289 C288 1.249 . S
O290 Zn280 2.067 . S
O290 C288 1.270 . S
C291 O284 1.262 . S
C291 O292 1.232 . S
O292 C291 1.232 . S
C293 O285 1.260 . S
C293 O286 1.257 . S
Zn294 O297 2.031 . S
Zn294 O299 2.049 . S
Zn294 O304 2.067 . S
Zn295 O296 1.962 . S
Zn295 O298 1.986 . S
Zn295 O300 1.996 . S
Zn295 O303 1.943 . S
O296 Zn295 1.962 . S
O296 C301 1.254 . S
O297 Zn294 2.031 . S
O297 C301 1.269 . S
O298 Zn295 1.986 . S
O298 C305 1.262 . S
O299 Zn294 2.049 . S
O299 C307 1.260 . S
O300 Zn295 1.996 . S
O300 C307 1.257 . S
C301 O296 1.254 . S
C301 O297 1.269 . S
C302 O303 1.249 . S
C302 O304 1.270 . S
O303 Zn295 1.943 . S
O303 C302 1.249 . S
O304 Zn294 2.067 . S
O304 C302 1.270 . S
C305 O298 1.262 . S
C305 O306 1.232 . S
O306 C305 1.232 . S
C307 O299 1.260 . S
C307 O300 1.257 . S
Zn308 O311 2.031 . S
Zn308 O313 2.049 . S
Zn308 O318 2.067 . S
Zn309 O310 1.962 . S
Zn309 O312 1.986 . S
Zn309 O314 1.996 . S
Zn309 O317 1.943 . S
O310 Zn309 1.962 . S
O310 C315 1.254 . S
O311 Zn308 2.031 . S
O311 C315 1.269 . S
O312 Zn309 1.986 . S
O312 C319 1.262 . S
O313 Zn308 2.049 . S
O313 C321 1.260 . S
O314 Zn309 1.996 . S
O314 C321 1.257 . S
C315 O310 1.254 . S
C315 O311 1.269 . S
C316 O317 1.249 . S
C316 O318 1.270 . S
O317 Zn309 1.943 . S
O317 C316 1.249 . S
O318 Zn308 2.067 . S
O318 C316 1.270 . S
C319 O312 1.262 . S
C319 O320 1.232 . S
O320 C319 1.232 . S
C321 O313 1.260 . S
C321 O314 1.257 . S
Zn322 O325 2.031 . S
Zn322 O327 2.049 . S
Zn322 O332 2.067 . S
Zn323 O324 1.962 . S
Zn323 O326 1.986 . S
Zn323 O328 1.996 . S
Zn323 O331 1.943 . S
O324 Zn323 1.962 . S
O324 C329 1.254 . S
O325 Zn322 2.031 . S
O325 C329 1.269 . S
O326 Zn323 1.986 . S
O326 C333 1.262 . S
O327 Zn322 2.049 . S
O327 C335 1.260 . S
O328 Zn323 1.996 . S
O328 C335 1.257 . S
C329 O324 1.254 . S
C329 O325 1.269 . S
C330 O331 1.249 . S
C330 O332 1.270 . S
O331 Zn323 1.943 . S
O331 C330 1.249 . S
O332 Zn322 2.067 . S
O332 C330 1.270 . S
C333 O326 1.262 . S
C333 O334 1.232 . S
O334 C333 1.232 . S
C335 O327 1.260 . S
C335 O328 1.257 . S
Zn336 O339 2.031 . S
Zn336 O341 2.049 . S
Zn336 O346 2.067 . S
Zn337 O338 1.962 . S
Zn337 O340 1.986 . S
Zn337 O342 1.996 . S
Zn337 O345 1.943 . S
O338 Zn337 1.962 . S
O338 C343 1.254 . S
O339 Zn336 2.031 . S
O339 C343 1.269 . S
O340 Zn337 1.986 . S
O340 C347 1.262 . S
O341 Zn336 2.049 . S
O341 C349 1.260 . S
O342 Zn337 1.996 . S
O342 C349 1.257 . S
C343 O338 1.254 . S
C343 O339 1.269 . S
C344 O345 1.249 . S
C344 O346 1.270 . S
O345 Zn337 1.943 . S
O345 C344 1.249 . S
O346 Zn336 2.067 . S
O346 C344 1.270 . S
C347 O340 1.262 . S
C347 O348 1.232 . S
O348 C347 1.232 . S
C349 O341 1.260 . S
C349 O342 1.257 . S
Zn350 O353 2.031 . S
Zn350 O355 2.049 . S
Zn350 O360 2.067 . S
Zn351 O352 1.962 . S
Zn351 O354 1.986 . S
Zn351 O356 1.996 . S
Zn351 O359 1.943 . S
O352 Zn351 1.962 . S
O352 C357 1.254 . S
O353 Zn350 2.031 . S
O353 C357 1.269 . S
O354 Zn351 1.986 . S
O354 C361 1.262 . S
O355 Zn350 2.049 . S
O355 C363 1.260 . S
O356 Zn351 1.996 . S
O356 C363 1.257 . S
C357 O352 1.254 . S
C357 O353 1.269 . S
C358 O359 1.249 . S
C358 O360 1.270 . S
O359 Zn351 1.943 . S
O359 C358 1.249 . S
O360 Zn350 2.067 . S
O360 C358 1.270 . S
C361 O354 1.262 . S
C361 O362 1.232 . S
O362 C361 1.232 . S
C363 O355 1.260 . S
C363 O356 1.257 . S
Zn364 O367 2.031 . S
Zn364 O369 2.049 . S
Zn364 O374 2.067 . S
Zn365 O366 1.962 . S
Zn365 O368 1.986 . S
Zn365 O370 1.996 . S
Zn365 O373 1.943 . S
O366 Zn365 1.962 . S
O366 C371 1.254 . S
O367 Zn364 2.031 . S
O367 C371 1.269 . S
O368 Zn365 1.986 . S
O368 C375 1.262 . S
O369 Zn364 2.049 . S
O369 C377 1.260 . S
O370 Zn365 1.996 . S
O370 C377 1.257 . S
C371 O366 1.254 . S
C371 O367 1.269 . S
C372 O373 1.249 . S
C372 O374 1.270 . S
O373 Zn365 1.943 . S
O373 C372 1.249 . S
O374 Zn364 2.067 . S
O374 C372 1.270 . S
C375 O368 1.262 . S
C375 O376 1.232 . S
O376 C375 1.232 . S
C377 O369 1.260 . S
C377 O370 1.257 . S
Zn378 O381 2.031 . S
Zn378 O383 2.049 . S
Zn378 O388 2.067 . S
Zn379 O380 1.962 . S
Zn379 O382 1.986 . S
Zn379 O384 1.996 . S
Zn379 O387 1.943 . S
O380 Zn379 1.962 . S
O380 C385 1.254 . S
O381 Zn378 2.031 . S
O381 C385 1.269 . S
O382 Zn379 1.986 . S
O382 C389 1.262 . S
O383 Zn378 2.049 . S
O383 C391 1.260 . S
O384 Zn379 1.996 . S
O384 C391 1.257 . S
C385 O380 1.254 . S
C385 O381 1.269 . S
C386 O387 1.249 . S
C386 O388 1.270 . S
O387 Zn379 1.943 . S
O387 C386 1.249 . S
O388 Zn378 2.067 . S
O388 C386 1.270 . S
C389 O382 1.262 . S
C389 O390 1.232 . S
O390 C389 1.232 . S
C391 O383 1.260 . S
C391 O384 1.257 . S
Zn392 O395 2.031 . S
Zn392 O397 2.049 . S
Zn392 O402 2.067 . S
Zn393 O394 1.962 . S
Zn393 O396 1.986 . S
Zn393 O398 1.996 . S
Zn393 O401 1.943 . S
O394 Zn393 1.962 . S
O394 C399 1.254 . S
O395 Zn392 2.031 . S
O395 C399 1.269 . S
O396 Zn393 1.986 . S
O396 C403 1.262 . S
O397 Zn392 2.049 . S
O397 C405 1.260 . S
O398 Zn393 1.996 . S
O398 C405 1.257 . S
C399 O394 1.254 . S
C399 O395 1.269 . S
C400 O401 1.249 . S
C400 O402 1.270 . S
O401 Zn393 1.943 . S
O401 C400 1.249 . S
O402 Zn392 2.067 . S
O402 C400 1.270 . S
C403 O396 1.262 . S
C403 O404 1.232 . S
O404 C403 1.232 . S
C405 O397 1.260 . S
C405 O398 1.257 . S
Zn406 O409 2.031 . S
Zn406 O411 2.049 . S
Zn406 O416 2.067 . S
Zn407 O408 1.962 . S
Zn407 O410 1.986 . S
Zn407 O412 1.996 . S
Zn407 O415 1.943 . S
O408 Zn407 1.962 . S
O408 C413 1.254 . S
O409 Zn406 2.031 . S
O409 C413 1.269 . S
O410 Zn407 1.986 . S
O410 C417 1.262 . S
O411 Zn406 2.049 . S
O411 C419 1.260 . S
O412 Zn407 1.996 . S
O412 C419 1.257 . S
C413 O408 1.254 . S
C413 O409 1.269 . S
C414 O415 1.249 . S
C414 O416 1.270 . S
O415 Zn407 1.943 . S
O415 C414 1.249 . S
O416 Zn406 2.067 . S
O416 C414 1.270 . S
C417 O410 1.262 . S
C417 O418 1.232 . S
O418 C417 1.232 . S
C419 O411 1.260 . S
C419 O412 1.257 . S
Zn420 O423 2.031 . S
Zn420 O425 2.049 . S
Zn420 O430 2.067 . S
Zn421 O422 1.962 . S
Zn421 O424 1.986 . S
Zn421 O426 1.996 . S
Zn421 O429 1.943 . S
O422 Zn421 1.962 . S
O422 C427 1.254 . S
O423 Zn420 2.031 . S
O423 C427 1.269 . S
O424 Zn421 1.986 . S
O424 C431 1.262 . S
O425 Zn420 2.049 . S
O425 C433 1.260 . S
O426 Zn421 1.996 . S
O426 C433 1.257 . S
C427 O422 1.254 . S
C427 O423 1.269 . S
C428 O429 1.249 . S
C428 O430 1.270 . S
O429 Zn421 1.943 . S
O429 C428 1.249 . S
O430 Zn420 2.067 . S
O430 C428 1.270 . S
C431 O424 1.262 . S
C431 O432 1.232 . S
O432 C431 1.232 . S
C433 O425 1.260 . S
C433 O426 1.257 . S
Zn434 O437 2.031 . S
Zn434 O439 2.049 . S
Zn434 O444 2.067 . S
Zn435 O436 1.962 . S
Zn435 O438 1.986 . S
Zn435 O440 1.996 . S
Zn435 O443 1.943 . S
O436 Zn435 1.962 . S
O436 C441 1.254 . S
O437 Zn434 2.031 . S
O437 C441 1.269 . S
O438 Zn435 1.986 . S
O438 C445 1.262 . S
O439 Zn434 2.049 . S
O439 C447 1.260 . S
O440 Zn435 1.996 . S
O440 C447 1.257 . S
C441 O436 1.254 . S
C441 O437 1.269 . S
C442 O443 1.249 . S
C442 O444 1.270 . S
O443 Zn435 1.943 . S
O443 C442 1.249 . S
O444 Zn434 2.067 . S
O444 C442 1.270 . S
C445 O438 1.262 . S
C445 O446 1.232 . S
O446 C445 1.232 . S
C447 O439 1.260 . S
C447 O440 1.257 . S
H448 C456 0.929 . S
H449 C458 0.930 . S
H450 C460 0.930 . S
H451 C463 0.929 . S
H452 C466 0.930 . S
H453 C468 0.960 . S
H454 C468 0.960 . S
H455 C468 0.960 . S
C456 H448 0.929 . S
C456 C457 1.377 . S
C456 C458 1.384 . S
C457 C456 1.377 . S
C457 C463 1.390 . S
C458 H449 0.930 . S
C458 C456 1.384 . S
C458 C459 1.372 . S
C459 C458 1.372 . S
C459 C460 1.400 . S
C459 C464 1.490 . S
C460 H450 0.930 . S
C460 C459 1.400 . S
C460 C463 1.386 . S
H461 C477 0.930 . S
H462 C478 0.931 . S
C463 H451 0.929 . S
C463 C457 1.390 . S
C463 C460 1.386 . S
C464 C459 1.490 . S
C464 C466 1.395 . S
C464 C467 1.403 . S
H465 C471 0.930 . S
C466 H452 0.930 . S
C466 C464 1.395 . S
C466 C469 1.403 . S
C467 C464 1.403 . S
C467 C468 1.524 . S
C467 C471 1.400 . S
C468 H453 0.960 . S
C468 H454 0.960 . S
C468 H455 0.960 . S
C468 C467 1.524 . S
C469 C466 1.403 . S
C469 C470 1.392 . S
C469 C473 1.495 . S
C470 C469 1.392 . S
C470 C471 1.385 . S
C470 C472 1.478 . S
C471 H465 0.930 . S
C471 C467 1.400 . S
C471 C470 1.385 . S
C472 C470 1.478 . S
C472 C474 1.381 . S
C472 C478 1.383 . S
C473 C469 1.495 . S
C473 H479 0.959 . S
C473 H480 0.961 . S
C473 H481 0.960 . S
C474 C472 1.381 . S
C474 C475 1.394 . S
C474 H482 0.930 . S
C475 C474 1.394 . S
C475 C476 1.383 . S
C475 H483 0.929 . S
C476 C475 1.383 . S
C476 C477 1.377 . S
C477 H461 0.930 . S
C477 C476 1.377 . S
C477 C478 1.379 . S
C478 H462 0.931 . S
C478 C472 1.383 . S
C478 C477 1.379 . S
H479 C473 0.959 . S
H480 C473 0.961 . S
H481 C473 0.960 . S
H482 C474 0.930 . S
H483 C475 0.929 . S
H484 C492 0.929 . S
H485 C494 0.930 . S
H486 C496 0.930 . S
H487 C499 0.929 . S
H488 C502 0.930 . S
H489 C504 0.960 . S
H490 C504 0.960 . S
H491 C504 0.960 . S
C492 H484 0.929 . S
C492 C493 1.377 . S
C492 C494 1.384 . S
C493 C492 1.377 . S
C493 C499 1.390 . S
C494 H485 0.930 . S
C494 C492 1.384 . S
C494 C495 1.372 . S
C495 C494 1.372 . S
C495 C496 1.400 . S
C495 C500 1.490 . S
C496 H486 0.930 . S
C496 C495 1.400 . S
C496 C499 1.386 . S
H497 C513 0.930 . S
H498 C514 0.931 . S
C499 H487 0.929 . S
C499 C493 1.390 . S
C499 C496 1.386 . S
C500 C495 1.490 . S
C500 C502 1.395 . S
C500 C503 1.403 . S
H501 C507 0.930 . S
C502 H488 0.930 . S
C502 C500 1.395 . S
C502 C505 1.403 . S
C503 C500 1.403 . S
C503 C504 1.524 . S
C503 C507 1.400 . S
C504 H489 0.960 . S
C504 H490 0.960 . S
C504 H491 0.960 . S
C504 C503 1.524 . S
C505 C502 1.403 . S
C505 C506 1.392 . S
C505 C509 1.495 . S
C506 C505 1.392 . S
C506 C507 1.385 . S
C506 C508 1.478 . S
C507 H501 0.930 . S
C507 C503 1.400 . S
C507 C506 1.385 . S
C508 C506 1.478 . S
C508 C510 1.381 . S
C508 C514 1.383 . S
C509 C505 1.495 . S
C509 H515 0.959 . S
C509 H516 0.961 . S
C509 H517 0.960 . S
C510 C508 1.381 . S
C510 C511 1.394 . S
C510 H518 0.930 . S
C511 C510 1.394 . S
C511 C512 1.383 . S
C511 H519 0.929 . S
C512 C511 1.383 . S
C512 C513 1.377 . S
C513 H497 0.930 . S
C513 C512 1.377 . S
C513 C514 1.379 . S
C514 H498 0.931 . S
C514 C508 1.383 . S
C514 C513 1.379 . S
H515 C509 0.959 . S
H516 C509 0.961 . S
H517 C509 0.960 . S
H518 C510 0.930 . S
H519 C511 0.929 . S
H520 C528 0.929 . S
H521 C530 0.930 . S
H522 C532 0.930 . S
H523 C535 0.929 . S
H524 C538 0.930 . S
H525 C540 0.960 . S
H526 C540 0.960 . S
H527 C540 0.960 . S
C528 H520 0.929 . S
C528 C529 1.377 . S
C528 C530 1.384 . S
C529 C528 1.377 . S
C529 C535 1.390 . S
C530 H521 0.930 . S
C530 C528 1.384 . S
C530 C531 1.372 . S
C531 C530 1.372 . S
C531 C532 1.400 . S
C531 C536 1.490 . S
C532 H522 0.930 . S
C532 C531 1.400 . S
C532 C535 1.386 . S
H533 C549 0.930 . S
H534 C550 0.931 . S
C535 H523 0.929 . S
C535 C529 1.390 . S
C535 C532 1.386 . S
C536 C531 1.490 . S
C536 C538 1.395 . S
C536 C539 1.403 . S
H537 C543 0.930 . S
C538 H524 0.930 . S
C538 C536 1.395 . S
C538 C541 1.403 . S
C539 C536 1.403 . S
C539 C540 1.524 . S
C539 C543 1.400 . S
C540 H525 0.960 . S
C540 H526 0.960 . S
C540 H527 0.960 . S
C540 C539 1.524 . S
C541 C538 1.403 . S
C541 C542 1.392 . S
C541 C545 1.495 . S
C542 C541 1.392 . S
C542 C543 1.385 . S
C542 C544 1.478 . S
C543 H537 0.930 . S
C543 C539 1.400 . S
C543 C542 1.385 . S
C544 C542 1.478 . S
C544 C546 1.381 . S
C544 C550 1.383 . S
C545 C541 1.495 . S
C545 H551 0.959 . S
C545 H552 0.961 . S
C545 H553 0.960 . S
C546 C544 1.381 . S
C546 C547 1.394 . S
C546 H554 0.930 . S
C547 C546 1.394 . S
C547 C548 1.383 . S
C547 H555 0.929 . S
C548 C547 1.383 . S
C548 C549 1.377 . S
C549 H533 0.930 . S
C549 C548 1.377 . S
C549 C550 1.379 . S
C550 H534 0.931 . S
C550 C544 1.383 . S
C550 C549 1.379 . S
H551 C545 0.959 . S
H552 C545 0.961 . S
H553 C545 0.960 . S
H554 C546 0.930 . S
H555 C547 0.929 . S
H556 C564 0.929 . S
H557 C566 0.930 . S
H558 C568 0.930 . S
H559 C571 0.929 . S
H560 C574 0.930 . S
H561 C576 0.960 . S
H562 C576 0.960 . S
H563 C576 0.960 . S
C564 H556 0.929 . S
C564 C565 1.377 . S
C564 C566 1.384 . S
C565 C564 1.377 . S
C565 C571 1.390 . S
C566 H557 0.930 . S
C566 C564 1.384 . S
C566 C567 1.372 . S
C567 C566 1.372 . S
C567 C568 1.400 . S
C567 C572 1.490 . S
C568 H558 0.930 . S
C568 C567 1.400 . S
C568 C571 1.386 . S
H569 C585 0.930 . S
H570 C586 0.931 . S
C571 H559 0.929 . S
C571 C565 1.390 . S
C571 C568 1.386 . S
C572 C567 1.490 . S
C572 C574 1.395 . S
C572 C575 1.403 . S
H573 C579 0.930 . S
C574 H560 0.930 . S
C574 C572 1.395 . S
C574 C577 1.403 . S
C575 C572 1.403 . S
C575 C576 1.524 . S
C575 C579 1.400 . S
C576 H561 0.960 . S
C576 H562 0.960 . S
C576 H563 0.960 . S
C576 C575 1.524 . S
C577 C574 1.403 . S
C577 C578 1.392 . S
C577 C581 1.495 . S
C578 C577 1.392 . S
C578 C579 1.385 . S
C578 C580 1.478 . S
C579 H573 0.930 . S
C579 C575 1.400 . S
C579 C578 1.385 . S
C580 C578 1.478 . S
C580 C582 1.381 . S
C580 C586 1.383 . S
C581 C577 1.495 . S
C581 H587 0.959 . S
C581 H588 0.961 . S
C581 H589 0.960 . S
C582 C580 1.381 . S
C582 C583 1.394 . S
C582 H590 0.930 . S
C583 C582 1.394 . S
C583 C584 1.383 . S
C583 H591 0.929 . S
C584 C583 1.383 . S
C584 C585 1.377 . S
C585 H569 0.930 . S
C585 C584 1.377 . S
C585 C586 1.379 . S
C586 H570 0.931 . S
C586 C580 1.383 . S
C586 C585 1.379 . S
H587 C581 0.959 . S
H588 C581 0.961 . S
H589 C581 0.960 . S
H590 C582 0.930 . S
H591 C583 0.929 . S
H592 C600 0.929 . S
H593 C602 0.930 . S
H594 C604 0.930 . S
H595 C607 0.929 . S
H596 C610 0.930 . S
H597 C612 0.960 . S
H598 C612 0.960 . S
H599 C612 0.960 . S
C600 H592 0.929 . S
C600 C601 1.377 . S
C600 C602 1.384 . S
C601 C600 1.377 . S
C601 C607 1.390 . S
C602 H593 0.930 . S
C602 C600 1.384 . S
C602 C603 1.372 . S
C603 C602 1.372 . S
C603 C604 1.400 . S
C603 C608 1.490 . S
C604 H594 0.930 . S
C604 C603 1.400 . S
C604 C607 1.386 . S
H605 C621 0.930 . S
H606 C622 0.931 . S
C607 H595 0.929 . S
C607 C601 1.390 . S
C607 C604 1.386 . S
C608 C603 1.490 . S
C608 C610 1.395 . S
C608 C611 1.403 . S
H609 C615 0.930 . S
C610 H596 0.930 . S
C610 C608 1.395 . S
C610 C613 1.403 . S
C611 C608 1.403 . S
C611 C612 1.524 . S
C611 C615 1.400 . S
C612 H597 0.960 . S
C612 H598 0.960 . S
C612 H599 0.960 . S
C612 C611 1.524 . S
C613 C610 1.403 . S
C613 C614 1.392 . S
C613 C617 1.495 . S
C614 C613 1.392 . S
C614 C615 1.385 . S
C614 C616 1.478 . S
C615 H609 0.930 . S
C615 C611 1.400 . S
C615 C614 1.385 . S
C616 C614 1.478 . S
C616 C618 1.381 . S
C616 C622 1.383 . S
C617 C613 1.495 . S
C617 H623 0.959 . S
C617 H624 0.961 . S
C617 H625 0.960 . S
C618 C616 1.381 . S
C618 C619 1.394 . S
C618 H626 0.930 . S
C619 C618 1.394 . S
C619 C620 1.383 . S
C619 H627 0.929 . S
C620 C619 1.383 . S
C620 C621 1.377 . S
C621 H605 0.930 . S
C621 C620 1.377 . S
C621 C622 1.379 . S
C622 H606 0.931 . S
C622 C616 1.383 . S
C622 C621 1.379 . S
H623 C617 0.959 . S
H624 C617 0.961 . S
H625 C617 0.960 . S
H626 C618 0.930 . S
H627 C619 0.929 . S
H628 C636 0.929 . S
H629 C638 0.930 . S
H630 C640 0.930 . S
H631 C643 0.929 . S
H632 C646 0.930 . S
H633 C648 0.960 . S
H634 C648 0.960 . S
H635 C648 0.960 . S
C636 H628 0.929 . S
C636 C637 1.377 . S
C636 C638 1.384 . S
C637 C636 1.377 . S
C637 C643 1.390 . S
C638 H629 0.930 . S
C638 C636 1.384 . S
C638 C639 1.372 . S
C639 C638 1.372 . S
C639 C640 1.400 . S
C639 C644 1.490 . S
C640 H630 0.930 . S
C640 C639 1.400 . S
C640 C643 1.386 . S
H641 C657 0.930 . S
H642 C658 0.931 . S
C643 H631 0.929 . S
C643 C637 1.390 . S
C643 C640 1.386 . S
C644 C639 1.490 . S
C644 C646 1.395 . S
C644 C647 1.403 . S
H645 C651 0.930 . S
C646 H632 0.930 . S
C646 C644 1.395 . S
C646 C649 1.403 . S
C647 C644 1.403 . S
C647 C648 1.524 . S
C647 C651 1.400 . S
C648 H633 0.960 . S
C648 H634 0.960 . S
C648 H635 0.960 . S
C648 C647 1.524 . S
C649 C646 1.403 . S
C649 C650 1.392 . S
C649 C653 1.495 . S
C650 C649 1.392 . S
C650 C651 1.385 . S
C650 C652 1.478 . S
C651 H645 0.930 . S
C651 C647 1.400 . S
C651 C650 1.385 . S
C652 C650 1.478 . S
C652 C654 1.381 . S
C652 C658 1.383 . S
C653 C649 1.495 . S
C653 H659 0.959 . S
C653 H660 0.961 . S
C653 H661 0.960 . S
C654 C652 1.381 . S
C654 C655 1.394 . S
C654 H662 0.930 . S
C655 C654 1.394 . S
C655 C656 1.383 . S
C655 H663 0.929 . S
C656 C655 1.383 . S
C656 C657 1.377 . S
C657 H641 0.930 . S
C657 C656 1.377 . S
C657 C658 1.379 . S
C658 H642 0.931 . S
C658 C652 1.383 . S
C658 C657 1.379 . S
H659 C653 0.959 . S
H660 C653 0.961 . S
H661 C653 0.960 . S
H662 C654 0.930 . S
H663 C655 0.929 . S
H664 C672 0.929 . S
H665 C674 0.930 . S
H666 C676 0.930 . S
H667 C679 0.929 . S
H668 C682 0.930 . S
H669 C684 0.960 . S
H670 C684 0.960 . S
H671 C684 0.960 . S
C672 H664 0.929 . S
C672 C673 1.377 . S
C672 C674 1.384 . S
C673 C672 1.377 . S
C673 C679 1.390 . S
C674 H665 0.930 . S
C674 C672 1.384 . S
C674 C675 1.372 . S
C675 C674 1.372 . S
C675 C676 1.400 . S
C675 C680 1.490 . S
C676 H666 0.930 . S
C676 C675 1.400 . S
C676 C679 1.386 . S
H677 C693 0.930 . S
H678 C694 0.931 . S
C679 H667 0.929 . S
C679 C673 1.390 . S
C679 C676 1.386 . S
C680 C675 1.490 . S
C680 C682 1.395 . S
C680 C683 1.403 . S
H681 C687 0.930 . S
C682 H668 0.930 . S
C682 C680 1.395 . S
C682 C685 1.403 . S
C683 C680 1.403 . S
C683 C684 1.524 . S
C683 C687 1.400 . S
C684 H669 0.960 . S
C684 H670 0.960 . S
C684 H671 0.960 . S
C684 C683 1.524 . S
C685 C682 1.403 . S
C685 C686 1.392 . S
C685 C689 1.495 . S
C686 C685 1.392 . S
C686 C687 1.385 . S
C686 C688 1.478 . S
C687 H681 0.930 . S
C687 C683 1.400 . S
C687 C686 1.385 . S
C688 C686 1.478 . S
C688 C690 1.381 . S
C688 C694 1.383 . S
C689 C685 1.495 . S
C689 H695 0.959 . S
C689 H696 0.961 . S
C689 H697 0.960 . S
C690 C688 1.381 . S
C690 C691 1.394 . S
C690 H698 0.930 . S
C691 C690 1.394 . S
C691 C692 1.383 . S
C691 H699 0.929 . S
C692 C691 1.383 . S
C692 C693 1.377 . S
C693 H677 0.930 . S
C693 C692 1.377 . S
C693 C694 1.379 . S
C694 H678 0.931 . S
C694 C688 1.383 . S
C694 C693 1.379 . S
H695 C689 0.959 . S
H696 C689 0.961 . S
H697 C689 0.960 . S
H698 C690 0.930 . S
H699 C691 0.929 . S
H700 C708 0.929 . S
H701 C710 0.930 . S
H702 C712 0.930 . S
H703 C715 0.929 . S
H704 C718 0.930 . S
H705 C720 0.960 . S
H706 C720 0.960 . S
H707 C720 0.960 . S
C708 H700 0.929 . S
C708 C709 1.377 . S
C708 C710 1.384 . S
C709 C708 1.377 . S
C709 C715 1.390 . S
C710 H701 0.930 . S
C710 C708 1.384 . S
C710 C711 1.372 . S
C711 C710 1.372 . S
C711 C712 1.400 . S
C711 C716 1.490 . S
C712 H702 0.930 . S
C712 C711 1.400 . S
C712 C715 1.386 . S
H713 C729 0.930 . S
H714 C730 0.931 . S
C715 H703 0.929 . S
C715 C709 1.390 . S
C715 C712 1.386 . S
C716 C711 1.490 . S
C716 C718 1.395 . S
C716 C719 1.403 . S
H717 C723 0.930 . S
C718 H704 0.930 . S
C718 C716 1.395 . S
C718 C721 1.403 . S
C719 C716 1.403 . S
C719 C720 1.524 . S
C719 C723 1.400 . S
C720 H705 0.960 . S
C720 H706 0.960 . S
C720 H707 0.960 . S
C720 C719 1.524 . S
C721 C718 1.403 . S
C721 C722 1.392 . S
C721 C725 1.495 . S
C722 C721 1.392 . S
C722 C723 1.385 . S
C722 C724 1.478 . S
C723 H717 0.930 . S
C723 C719 1.400 . S
C723 C722 1.385 . S
C724 C722 1.478 . S
C724 C726 1.381 . S
C724 C730 1.383 . S
C725 C721 1.495 . S
C725 H731 0.959 . S
C725 H732 0.961 . S
C725 H733 0.960 . S
C726 C724 1.381 . S
C726 C727 1.394 . S
C726 H734 0.930 . S
C727 C726 1.394 . S
C727 C728 1.383 . S
C727 H735 0.929 . S
C728 C727 1.383 . S
C728 C729 1.377 . S
C729 H713 0.930 . S
C729 C728 1.377 . S
C729 C730 1.379 . S
C730 H714 0.931 . S
C730 C724 1.383 . S
C730 C729 1.379 . S
H731 C725 0.959 . S
H732 C725 0.961 . S
H733 C725 0.960 . S
H734 C726 0.930 . S
H735 C727 0.929 . S
H736 C744 0.929 . S
H737 C746 0.930 . S
H738 C748 0.930 . S
H739 C751 0.929 . S
H740 C754 0.930 . S
H741 C756 0.960 . S
H742 C756 0.960 . S
H743 C756 0.960 . S
C744 H736 0.929 . S
C744 C745 1.377 . S
C744 C746 1.384 . S
C745 C744 1.377 . S
C745 C751 1.390 . S
C746 H737 0.930 . S
C746 C744 1.384 . S
C746 C747 1.372 . S
C747 C746 1.372 . S
C747 C748 1.400 . S
C747 C752 1.490 . S
C748 H738 0.930 . S
C748 C747 1.400 . S
C748 C751 1.386 . S
H749 C765 0.930 . S
H750 C766 0.931 . S
C751 H739 0.929 . S
C751 C745 1.390 . S
C751 C748 1.386 . S
C752 C747 1.490 . S
C752 C754 1.395 . S
C752 C755 1.403 . S
H753 C759 0.930 . S
C754 H740 0.930 . S
C754 C752 1.395 . S
C754 C757 1.403 . S
C755 C752 1.403 . S
C755 C756 1.524 . S
C755 C759 1.400 . S
C756 H741 0.960 . S
C756 H742 0.960 . S
C756 H743 0.960 . S
C756 C755 1.524 . S
C757 C754 1.403 . S
C757 C758 1.392 . S
C757 C761 1.495 . S
C758 C757 1.392 . S
C758 C759 1.385 . S
C758 C760 1.478 . S
C759 H753 0.930 . S
C759 C755 1.400 . S
C759 C758 1.385 . S
C760 C758 1.478 . S
C760 C762 1.381 . S
C760 C766 1.383 . S
C761 C757 1.495 . S
C761 H767 0.959 . S
C761 H768 0.961 . S
C761 H769 0.960 . S
C762 C760 1.381 . S
C762 C763 1.394 . S
C762 H770 0.930 . S
C763 C762 1.394 . S
C763 C764 1.383 . S
C763 H771 0.929 . S
C764 C763 1.383 . S
C764 C765 1.377 . S
C765 H749 0.930 . S
C765 C764 1.377 . S
C765 C766 1.379 . S
C766 H750 0.931 . S
C766 C760 1.383 . S
C766 C765 1.379 . S
H767 C761 0.959 . S
H768 C761 0.961 . S
H769 C761 0.960 . S
H770 C762 0.930 . S
H771 C763 0.929 . S
H772 C780 0.929 . S
H773 C782 0.930 . S
H774 C784 0.930 . S
H775 C787 0.929 . S
H776 C790 0.930 . S
H777 C792 0.960 . S
H778 C792 0.960 . S
H779 C792 0.960 . S
C780 H772 0.929 . S
C780 C781 1.377 . S
C780 C782 1.384 . S
C781 C780 1.377 . S
C781 C787 1.390 . S
C782 H773 0.930 . S
C782 C780 1.384 . S
C782 C783 1.372 . S
C783 C782 1.372 . S
C783 C784 1.400 . S
C783 C788 1.490 . S
C784 H774 0.930 . S
C784 C783 1.400 . S
C784 C787 1.386 . S
H785 C801 0.930 . S
H786 C802 0.931 . S
C787 H775 0.929 . S
C787 C781 1.390 . S
C787 C784 1.386 . S
C788 C783 1.490 . S
C788 C790 1.395 . S
C788 C791 1.403 . S
H789 C795 0.930 . S
C790 H776 0.930 . S
C790 C788 1.395 . S
C790 C793 1.403 . S
C791 C788 1.403 . S
C791 C792 1.524 . S
C791 C795 1.400 . S
C792 H777 0.960 . S
C792 H778 0.960 . S
C792 H779 0.960 . S
C792 C791 1.524 . S
C793 C790 1.403 . S
C793 C794 1.392 . S
C793 C797 1.495 . S
C794 C793 1.392 . S
C794 C795 1.385 . S
C794 C796 1.478 . S
C795 H789 0.930 . S
C795 C791 1.400 . S
C795 C794 1.385 . S
C796 C794 1.478 . S
C796 C798 1.381 . S
C796 C802 1.383 . S
C797 C793 1.495 . S
C797 H803 0.959 . S
C797 H804 0.961 . S
C797 H805 0.960 . S
C798 C796 1.381 . S
C798 C799 1.394 . S
C798 H806 0.930 . S
C799 C798 1.394 . S
C799 C800 1.383 . S
C799 H807 0.929 . S
C800 C799 1.383 . S
C800 C801 1.377 . S
C801 H785 0.930 . S
C801 C800 1.377 . S
C801 C802 1.379 . S
C802 H786 0.931 . S
C802 C796 1.383 . S
C802 C801 1.379 . S
H803 C797 0.959 . S
H804 C797 0.961 . S
H805 C797 0.960 . S
H806 C798 0.930 . S
H807 C799 0.929 . S
H808 C816 0.929 . S
H809 C818 0.930 . S
H810 C820 0.930 . S
H811 C823 0.929 . S
H812 C826 0.930 . S
H813 C828 0.960 . S
H814 C828 0.960 . S
H815 C828 0.960 . S
C816 H808 0.929 . S
C816 C817 1.377 . S
C816 C818 1.384 . S
C817 C816 1.377 . S
C817 C823 1.390 . S
C818 H809 0.930 . S
C818 C816 1.384 . S
C818 C819 1.372 . S
C819 C818 1.372 . S
C819 C820 1.400 . S
C819 C824 1.490 . S
C820 H810 0.930 . S
C820 C819 1.400 . S
C820 C823 1.386 . S
H821 C837 0.930 . S
H822 C838 0.931 . S
C823 H811 0.929 . S
C823 C817 1.390 . S
C823 C820 1.386 . S
C824 C819 1.490 . S
C824 C826 1.395 . S
C824 C827 1.403 . S
H825 C831 0.930 . S
C826 H812 0.930 . S
C826 C824 1.395 . S
C826 C829 1.403 . S
C827 C824 1.403 . S
C827 C828 1.524 . S
C827 C831 1.400 . S
C828 H813 0.960 . S
C828 H814 0.960 . S
C828 H815 0.960 . S
C828 C827 1.524 . S
C829 C826 1.403 . S
C829 C830 1.392 . S
C829 C833 1.495 . S
C830 C829 1.392 . S
C830 C831 1.385 . S
C830 C832 1.478 . S
C831 H825 0.930 . S
C831 C827 1.400 . S
C831 C830 1.385 . S
C832 C830 1.478 . S
C832 C834 1.381 . S
C832 C838 1.383 . S
C833 C829 1.495 . S
C833 H839 0.959 . S
C833 H840 0.961 . S
C833 H841 0.960 . S
C834 C832 1.381 . S
C834 C835 1.394 . S
C834 H842 0.930 . S
C835 C834 1.394 . S
C835 C836 1.383 . S
C835 H843 0.929 . S
C836 C835 1.383 . S
C836 C837 1.377 . S
C837 H821 0.930 . S
C837 C836 1.377 . S
C837 C838 1.379 . S
C838 H822 0.931 . S
C838 C832 1.383 . S
C838 C837 1.379 . S
H839 C833 0.959 . S
H840 C833 0.961 . S
H841 C833 0.960 . S
H842 C834 0.930 . S
H843 C835 0.929 . S
H844 C852 0.929 . S
H845 C854 0.930 . S
H846 C856 0.930 . S
H847 C859 0.929 . S
H848 C862 0.930 . S
H849 C864 0.960 . S
H850 C864 0.960 . S
H851 C864 0.960 . S
C852 H844 0.929 . S
C852 C853 1.377 . S
C852 C854 1.384 . S
C853 C852 1.377 . S
C853 C859 1.390 . S
C854 H845 0.930 . S
C854 C852 1.384 . S
C854 C855 1.372 . S
C855 C854 1.372 . S
C855 C856 1.400 . S
C855 C860 1.490 . S
C856 H846 0.930 . S
C856 C855 1.400 . S
C856 C859 1.386 . S
H857 C873 0.930 . S
H858 C874 0.931 . S
C859 H847 0.929 . S
C859 C853 1.390 . S
C859 C856 1.386 . S
C860 C855 1.490 . S
C860 C862 1.395 . S
C860 C863 1.403 . S
H861 C867 0.930 . S
C862 H848 0.930 . S
C862 C860 1.395 . S
C862 C865 1.403 . S
C863 C860 1.403 . S
C863 C864 1.524 . S
C863 C867 1.400 . S
C864 H849 0.960 . S
C864 H850 0.960 . S
C864 H851 0.960 . S
C864 C863 1.524 . S
C865 C862 1.403 . S
C865 C866 1.392 . S
C865 C869 1.495 . S
C866 C865 1.392 . S
C866 C867 1.385 . S
C866 C868 1.478 . S
C867 H861 0.930 . S
C867 C863 1.400 . S
C867 C866 1.385 . S
C868 C866 1.478 . S
C868 C870 1.381 . S
C868 C874 1.383 . S
C869 C865 1.495 . S
C869 H875 0.959 . S
C869 H876 0.961 . S
C869 H877 0.960 . S
C870 C868 1.381 . S
C870 C871 1.394 . S
C870 H878 0.930 . S
C871 C870 1.394 . S
C871 C872 1.383 . S
C871 H879 0.929 . S
C872 C871 1.383 . S
C872 C873 1.377 . S
C873 H857 0.930 . S
C873 C872 1.377 . S
C873 C874 1.379 . S
C874 H858 0.931 . S
C874 C868 1.383 . S
C874 C873 1.379 . S
H875 C869 0.959 . S
H876 C869 0.961 . S
H877 C869 0.960 . S
H878 C870 0.930 . S
H879 C871 0.929 . S
H880 C888 0.929 . S
H881 C890 0.930 . S
H882 C892 0.930 . S
H883 C895 0.929 . S
H884 C898 0.930 . S
H885 C900 0.960 . S
H886 C900 0.960 . S
H887 C900 0.960 . S
C888 H880 0.929 . S
C888 C889 1.377 . S
C888 C890 1.384 . S
C889 C888 1.377 . S
C889 C895 1.390 . S
C890 H881 0.930 . S
C890 C888 1.384 . S
C890 C891 1.372 . S
C891 C890 1.372 . S
C891 C892 1.400 . S
C891 C896 1.490 . S
C892 H882 0.930 . S
C892 C891 1.400 . S
C892 C895 1.386 . S
H893 C909 0.930 . S
H894 C910 0.931 . S
C895 H883 0.929 . S
C895 C889 1.390 . S
C895 C892 1.386 . S
C896 C891 1.490 . S
C896 C898 1.395 . S
C896 C899 1.403 . S
H897 C903 0.930 . S
C898 H884 0.930 . S
C898 C896 1.395 . S
C898 C901 1.403 . S
C899 C896 1.403 . S
C899 C900 1.524 . S
C899 C903 1.400 . S
C900 H885 0.960 . S
C900 H886 0.960 . S
C900 H887 0.960 . S
C900 C899 1.524 . S
C901 C898 1.403 . S
C901 C902 1.392 . S
C901 C905 1.495 . S
C902 C901 1.392 . S
C902 C903 1.385 . S
C902 C904 1.478 . S
C903 H897 0.930 . S
C903 C899 1.400 . S
C903 C902 1.385 . S
C904 C902 1.478 . S
C904 C906 1.381 . S
C904 C910 1.383 . S
C905 C901 1.495 . S
C905 H911 0.959 . S
C905 H912 0.961 . S
C905 H913 0.960 . S
C906 C904 1.381 . S
C906 C907 1.394 . S
C906 H914 0.930 . S
C907 C906 1.394 . S
C907 C908 1.383 . S
C907 H915 0.929 . S
C908 C907 1.383 . S
C908 C909 1.377 . S
C909 H893 0.930 . S
C909 C908 1.377 . S
C909 C910 1.379 . S
C910 H894 0.931 . S
C910 C904 1.383 . S
C910 C909 1.379 . S
H911 C905 0.959 . S
H912 C905 0.961 . S
H913 C905 0.960 . S
H914 C906 0.930 . S
H915 C907 0.929 . S
H916 C924 0.929 . S
H917 C926 0.930 . S
H918 C928 0.930 . S
H919 C931 0.929 . S
H920 C934 0.930 . S
H921 C936 0.960 . S
H922 C936 0.960 . S
H923 C936 0.960 . S
C924 H916 0.929 . S
C924 C925 1.377 . S
C924 C926 1.384 . S
C925 C924 1.377 . S
C925 C931 1.390 . S
C926 H917 0.930 . S
C926 C924 1.384 . S
C926 C927 1.372 . S
C927 C926 1.372 . S
C927 C928 1.400 . S
C927 C932 1.490 . S
C928 H918 0.930 . S
C928 C927 1.400 . S
C928 C931 1.386 . S
H929 C945 0.930 . S
H930 C946 0.931 . S
C931 H919 0.929 . S
C931 C925 1.390 . S
C931 C928 1.386 . S
C932 C927 1.490 . S
C932 C934 1.395 . S
C932 C935 1.403 . S
H933 C939 0.930 . S
C934 H920 0.930 . S
C934 C932 1.395 . S
C934 C937 1.403 . S
C935 C932 1.403 . S
C935 C936 1.524 . S
C935 C939 1.400 . S
C936 H921 0.960 . S
C936 H922 0.960 . S
C936 H923 0.960 . S
C936 C935 1.524 . S
C937 C934 1.403 . S
C937 C938 1.392 . S
C937 C941 1.495 . S
C938 C937 1.392 . S
C938 C939 1.385 . S
C938 C940 1.478 . S
C939 H933 0.930 . S
C939 C935 1.400 . S
C939 C938 1.385 . S
C940 C938 1.478 . S
C940 C942 1.381 . S
C940 C946 1.383 . S
C941 C937 1.495 . S
C941 H947 0.959 . S
C941 H948 0.961 . S
C941 H949 0.960 . S
C942 C940 1.381 . S
C942 C943 1.394 . S
C942 H950 0.930 . S
C943 C942 1.394 . S
C943 C944 1.383 . S
C943 H951 0.929 . S
C944 C943 1.383 . S
C944 C945 1.377 . S
C945 H929 0.930 . S
C945 C944 1.377 . S
C945 C946 1.379 . S
C946 H930 0.931 . S
C946 C940 1.383 . S
C946 C945 1.379 . S
H947 C941 0.959 . S
H948 C941 0.961 . S
H949 C941 0.960 . S
H950 C942 0.930 . S
H951 C943 0.929 . S
H952 C960 0.929 . S
H953 C962 0.930 . S
H954 C964 0.930 . S
H955 C967 0.929 . S
H956 C970 0.930 . S
H957 C972 0.960 . S
H958 C972 0.960 . S
H959 C972 0.960 . S
C960 H952 0.929 . S
C960 C961 1.377 . S
C960 C962 1.384 . S
C961 C960 1.377 . S
C961 C967 1.390 . S
C962 H953 0.930 . S
C962 C960 1.384 . S
C962 C963 1.372 . S
C963 C962 1.372 . S
C963 C964 1.400 . S
C963 C968 1.490 . S
C964 H954 0.930 . S
C964 C963 1.400 . S
C964 C967 1.386 . S
H965 C981 0.930 . S
H966 C982 0.931 . S
C967 H955 0.929 . S
C967 C961 1.390 . S
C967 C964 1.386 . S
C968 C963 1.490 . S
C968 C970 1.395 . S
C968 C971 1.403 . S
H969 C975 0.930 . S
C970 H956 0.930 . S
C970 C968 1.395 . S
C970 C973 1.403 . S
C971 C968 1.403 . S
C971 C972 1.524 . S
C971 C975 1.400 . S
C972 H957 0.960 . S
C972 H958 0.960 . S
C972 H959 0.960 . S
C972 C971 1.524 . S
C973 C970 1.403 . S
C973 C974 1.392 . S
C973 C977 1.495 . S
C974 C973 1.392 . S
C974 C975 1.385 . S
C974 C976 1.478 . S
C975 H969 0.930 . S
C975 C971 1.400 . S
C975 C974 1.385 . S
C976 C974 1.478 . S
C976 C978 1.381 . S
C976 C982 1.383 . S
C977 C973 1.495 . S
C977 H983 0.959 . S
C977 H984 0.961 . S
C977 H985 0.960 . S
C978 C976 1.381 . S
C978 C979 1.394 . S
C978 H986 0.930 . S
C979 C978 1.394 . S
C979 C980 1.383 . S
C979 H987 0.929 . S
C980 C979 1.383 . S
C980 C981 1.377 . S
C981 H965 0.930 . S
C981 C980 1.377 . S
C981 C982 1.379 . S
C982 H966 0.931 . S
C982 C976 1.383 . S
C982 C981 1.379 . S
H983 C977 0.959 . S
H984 C977 0.961 . S
H985 C977 0.960 . S
H986 C978 0.930 . S
H987 C979 0.929 . S
H988 C996 0.929 . S
H989 C998 0.930 . S
H990 C1000 0.930 . S
H991 C1003 0.929 . S
H992 C1006 0.930 . S
H993 C1008 0.960 . S
H994 C1008 0.960 . S
H995 C1008 0.960 . S
C996 H988 0.929 . S
C996 C997 1.377 . S
C996 C998 1.384 . S
C997 C996 1.377 . S
C997 C1003 1.390 . S
C998 H989 0.930 . S
C998 C996 1.384 . S
C998 C999 1.372 . S
C999 C998 1.372 . S
C999 C1000 1.400 . S
C999 C1004 1.490 . S
C1000 H990 0.930 . S
C1000 C999 1.400 . S
C1000 C1003 1.386 . S
H1001 C1017 0.930 . S
H1002 C1018 0.931 . S
C1003 H991 0.929 . S
C1003 C997 1.390 . S
C1003 C1000 1.386 . S
C1004 C999 1.490 . S
C1004 C1006 1.395 . S
C1004 C1007 1.403 . S
H1005 C1011 0.930 . S
C1006 H992 0.930 . S
C1006 C1004 1.395 . S
C1006 C1009 1.403 . S
C1007 C1004 1.403 . S
C1007 C1008 1.524 . S
C1007 C1011 1.400 . S
C1008 H993 0.960 . S
C1008 H994 0.960 . S
C1008 H995 0.960 . S
C1008 C1007 1.524 . S
C1009 C1006 1.403 . S
C1009 C1010 1.392 . S
C1009 C1013 1.495 . S
C1010 C1009 1.392 . S
C1010 C1011 1.385 . S
C1010 C1012 1.478 . S
C1011 H1005 0.930 . S
C1011 C1007 1.400 . S
C1011 C1010 1.385 . S
C1012 C1010 1.478 . S
C1012 C1014 1.381 . S
C1012 C1018 1.383 . S
C1013 C1009 1.495 . S
C1013 H1019 0.959 . S
C1013 H1020 0.961 . S
C1013 H1021 0.960 . S
C1014 C1012 1.381 . S
C1014 C1015 1.394 . S
C1014 H1022 0.930 . S
C1015 C1014 1.394 . S
C1015 C1016 1.383 . S
C1015 H1023 0.929 . S
C1016 C1015 1.383 . S
C1016 C1017 1.377 . S
C1017 H1001 0.930 . S
C1017 C1016 1.377 . S
C1017 C1018 1.379 . S
C1018 H1002 0.931 . S
C1018 C1012 1.383 . S
C1018 C1017 1.379 . S
H1019 C1013 0.959 . S
H1020 C1013 0.961 . S
H1021 C1013 0.960 . S
H1022 C1014 0.930 . S
H1023 C1015 0.929 . S
H1024 C1032 0.929 . S
H1025 C1034 0.930 . S
H1026 C1036 0.930 . S
H1027 C1039 0.929 . S
H1028 C1042 0.930 . S
H1029 C1044 0.960 . S
H1030 C1044 0.960 . S
H1031 C1044 0.960 . S
C1032 H1024 0.929 . S
C1032 C1033 1.377 . S
C1032 C1034 1.384 . S
C1033 C1032 1.377 . S
C1033 C1039 1.390 . S
C1034 H1025 0.930 . S
C1034 C1032 1.384 . S
C1034 C1035 1.372 . S
C1035 C1034 1.372 . S
C1035 C1036 1.400 . S
C1035 C1040 1.490 . S
C1036 H1026 0.930 . S
C1036 C1035 1.400 . S
C1036 C1039 1.386 . S
H1037 C1053 0.930 . S
H1038 C1054 0.931 . S
C1039 H1027 0.929 . S
C1039 C1033 1.390 . S
C1039 C1036 1.386 . S
C1040 C1035 1.490 . S
C1040 C1042 1.395 . S
C1040 C1043 1.403 . S
H1041 C1047 0.930 . S
C1042 H1028 0.930 . S
C1042 C1040 1.395 . S
C1042 C1045 1.403 1_455 S
C1043 C1040 1.403 . S
C1043 C1044 1.524 . S
C1043 C1047 1.400 1_455 S
C1044 H1029 0.960 . S
C1044 H1030 0.960 . S
C1044 H1031 0.960 . S
C1044 C1043 1.524 . S
C1045 C1042 1.403 1_655 S
C1045 C1046 1.392 . S
C1045 C1049 1.495 . S
C1046 C1045 1.392 . S
C1046 C1047 1.385 . S
C1046 C1048 1.478 . S
C1047 H1041 0.930 . S
C1047 C1043 1.400 1_655 S
C1047 C1046 1.385 . S
C1048 C1046 1.478 . S
C1048 C1050 1.381 . S
C1048 C1054 1.383 . S
C1049 C1045 1.495 . S
C1049 H1055 0.959 . S
C1049 H1056 0.961 . S
C1049 H1057 0.960 . S
C1050 C1048 1.381 . S
C1050 C1051 1.394 . S
C1050 H1058 0.930 . S
C1051 C1050 1.394 . S
C1051 C1052 1.383 . S
C1051 H1059 0.929 . S
C1052 C1051 1.383 . S
C1052 C1053 1.377 . S
C1053 H1037 0.930 . S
C1053 C1052 1.377 . S
C1053 C1054 1.379 . S
C1054 H1038 0.931 . S
C1054 C1048 1.383 . S
C1054 C1053 1.379 . S
H1055 C1049 0.959 . S
H1056 C1049 0.961 . S
H1057 C1049 0.960 . S
H1058 C1050 0.930 . S
H1059 C1051 0.929 . S
H1060 C1068 0.929 . S
H1061 C1070 0.930 . S
H1062 C1072 0.930 . S
H1063 C1075 0.929 . S
H1064 C1078 0.930 . S
H1065 C1080 0.960 . S
H1066 C1080 0.960 . S
H1067 C1080 0.960 . S
C1068 H1060 0.929 . S
C1068 C1069 1.377 . S
C1068 C1070 1.384 . S
C1069 C1068 1.377 . S
C1069 C1075 1.390 . S
C1070 H1061 0.930 . S
C1070 C1068 1.384 . S
C1070 C1071 1.372 . S
C1071 C1070 1.372 . S
C1071 C1072 1.400 . S
C1071 C1076 1.490 . S
C1072 H1062 0.930 . S
C1072 C1071 1.400 . S
C1072 C1075 1.386 . S
H1073 C1089 0.930 . S
H1074 C1090 0.931 . S
C1075 H1063 0.929 . S
C1075 C1069 1.390 . S
C1075 C1072 1.386 . S
C1076 C1071 1.490 . S
C1076 C1078 1.395 . S
C1076 C1079 1.403 . S
H1077 C1083 0.930 . S
C1078 H1064 0.930 . S
C1078 C1076 1.395 . S
C1078 C1081 1.403 . S
C1079 C1076 1.403 . S
C1079 C1080 1.524 . S
C1079 C1083 1.400 . S
C1080 H1065 0.960 . S
C1080 H1066 0.960 . S
C1080 H1067 0.960 . S
C1080 C1079 1.524 . S
C1081 C1078 1.403 . S
C1081 C1082 1.392 . S
C1081 C1085 1.495 . S
C1082 C1081 1.392 . S
C1082 C1083 1.385 . S
C1082 C1084 1.478 . S
C1083 H1077 0.930 . S
C1083 C1079 1.400 . S
C1083 C1082 1.385 . S
C1084 C1082 1.478 . S
C1084 C1086 1.381 . S
C1084 C1090 1.383 . S
C1085 C1081 1.495 . S
C1085 H1091 0.959 . S
C1085 H1092 0.961 . S
C1085 H1093 0.960 . S
C1086 C1084 1.381 . S
C1086 C1087 1.394 . S
C1086 H1094 0.930 . S
C1087 C1086 1.394 . S
C1087 C1088 1.383 . S
C1087 H1095 0.929 . S
C1088 C1087 1.383 . S
C1088 C1089 1.377 . S
C1089 H1073 0.930 . S
C1089 C1088 1.377 . S
C1089 C1090 1.379 . S
C1090 H1074 0.931 . S
C1090 C1084 1.383 . S
C1090 C1089 1.379 . S
H1091 C1085 0.959 . S
H1092 C1085 0.961 . S
H1093 C1085 0.960 . S
H1094 C1086 0.930 . S
H1095 C1087 0.929 . S
H1096 C1104 0.929 . S
H1097 C1106 0.930 . S
H1098 C1108 0.930 . S
H1099 C1111 0.929 . S
H1100 C1114 0.930 . S
H1101 C1116 0.960 . S
H1102 C1116 0.960 . S
H1103 C1116 0.960 . S
C1104 H1096 0.929 . S
C1104 C1105 1.377 . S
C1104 C1106 1.384 . S
C1105 C1104 1.377 . S
C1105 C1111 1.390 . S
C1106 H1097 0.930 . S
C1106 C1104 1.384 . S
C1106 C1107 1.372 . S
C1107 C1106 1.372 . S
C1107 C1108 1.400 . S
C1107 C1112 1.490 . S
C1108 H1098 0.930 . S
C1108 C1107 1.400 . S
C1108 C1111 1.386 . S
H1109 C1125 0.930 . S
H1110 C1126 0.931 . S
C1111 H1099 0.929 . S
C1111 C1105 1.390 . S
C1111 C1108 1.386 . S
C1112 C1107 1.490 . S
C1112 C1114 1.395 . S
C1112 C1115 1.403 . S
H1113 C1119 0.930 . S
C1114 H1100 0.930 . S
C1114 C1112 1.395 . S
C1114 C1117 1.403 . S
C1115 C1112 1.403 . S
C1115 C1116 1.524 . S
C1115 C1119 1.400 . S
C1116 H1101 0.960 . S
C1116 H1102 0.960 . S
C1116 H1103 0.960 . S
C1116 C1115 1.524 . S
C1117 C1114 1.403 . S
C1117 C1118 1.392 . S
C1117 C1121 1.495 . S
C1118 C1117 1.392 . S
C1118 C1119 1.385 . S
C1118 C1120 1.478 . S
C1119 H1113 0.930 . S
C1119 C1115 1.400 . S
C1119 C1118 1.385 . S
C1120 C1118 1.478 . S
C1120 C1122 1.381 . S
C1120 C1126 1.383 . S
C1121 C1117 1.495 . S
C1121 H1127 0.959 . S
C1121 H1128 0.961 . S
C1121 H1129 0.960 . S
C1122 C1120 1.381 . S
C1122 C1123 1.394 . S
C1122 H1130 0.930 . S
C1123 C1122 1.394 . S
C1123 C1124 1.383 . S
C1123 H1131 0.929 . S
C1124 C1123 1.383 . S
C1124 C1125 1.377 . S
C1125 H1109 0.930 . S
C1125 C1124 1.377 . S
C1125 C1126 1.379 . S
C1126 H1110 0.931 . S
C1126 C1120 1.383 . S
C1126 C1125 1.379 . S
H1127 C1121 0.959 . S
H1128 C1121 0.961 . S
H1129 C1121 0.960 . S
H1130 C1122 0.930 . S
H1131 C1123 0.929 . S
H1132 C1140 0.929 . S
H1133 C1142 0.930 . S
H1134 C1144 0.930 . S
H1135 C1147 0.929 . S
H1136 C1150 0.930 . S
H1137 C1152 0.960 . S
H1138 C1152 0.960 . S
H1139 C1152 0.960 . S
C1140 H1132 0.929 . S
C1140 C1141 1.377 . S
C1140 C1142 1.384 . S
C1141 C1140 1.377 . S
C1141 C1147 1.390 . S
C1142 H1133 0.930 . S
C1142 C1140 1.384 . S
C1142 C1143 1.372 . S
C1143 C1142 1.372 . S
C1143 C1144 1.400 . S
C1143 C1148 1.490 . S
C1144 H1134 0.930 . S
C1144 C1143 1.400 . S
C1144 C1147 1.386 . S
H1145 C1161 0.930 . S
H1146 C1162 0.931 . S
C1147 H1135 0.929 . S
C1147 C1141 1.390 . S
C1147 C1144 1.386 . S
C1148 C1143 1.490 . S
C1148 C1150 1.395 . S
C1148 C1151 1.403 . S
H1149 C1155 0.930 . S
C1150 H1136 0.930 . S
C1150 C1148 1.395 . S
C1150 C1153 1.403 . S
C1151 C1148 1.403 . S
C1151 C1152 1.524 . S
C1151 C1155 1.400 . S
C1152 H1137 0.960 . S
C1152 H1138 0.960 . S
C1152 H1139 0.960 . S
C1152 C1151 1.524 . S
C1153 C1150 1.403 . S
C1153 C1154 1.392 . S
C1153 C1157 1.495 . S
C1154 C1153 1.392 . S
C1154 C1155 1.385 . S
C1154 C1156 1.478 . S
C1155 H1149 0.930 . S
C1155 C1151 1.400 . S
C1155 C1154 1.385 . S
C1156 C1154 1.478 . S
C1156 C1158 1.381 . S
C1156 C1162 1.383 . S
C1157 C1153 1.495 . S
C1157 H1163 0.959 . S
C1157 H1164 0.961 . S
C1157 H1165 0.960 . S
C1158 C1156 1.381 . S
C1158 C1159 1.394 . S
C1158 H1166 0.930 . S
C1159 C1158 1.394 . S
C1159 C1160 1.383 . S
C1159 H1167 0.929 . S
C1160 C1159 1.383 . S
C1160 C1161 1.377 . S
C1161 H1145 0.930 . S
C1161 C1160 1.377 . S
C1161 C1162 1.379 . S
C1162 H1146 0.931 . S
C1162 C1156 1.383 . S
C1162 C1161 1.379 . S
H1163 C1157 0.959 . S
H1164 C1157 0.961 . S
H1165 C1157 0.960 . S
H1166 C1158 0.930 . S
H1167 C1159 0.929 . S
H1168 C1176 0.929 . S
H1169 C1178 0.930 . S
H1170 C1180 0.930 . S
H1171 C1183 0.929 . S
H1172 C1186 0.930 . S
H1173 C1188 0.960 . S
H1174 C1188 0.960 . S
H1175 C1188 0.960 . S
C1176 H1168 0.929 . S
C1176 C1177 1.377 . S
C1176 C1178 1.384 . S
C1177 C1176 1.377 . S
C1177 C1183 1.390 . S
C1178 H1169 0.930 . S
C1178 C1176 1.384 . S
C1178 C1179 1.372 . S
C1179 C1178 1.372 . S
C1179 C1180 1.400 . S
C1179 C1184 1.490 . S
C1180 H1170 0.930 . S
C1180 C1179 1.400 . S
C1180 C1183 1.386 . S
H1181 C1197 0.930 . S
H1182 C1198 0.931 . S
C1183 H1171 0.929 . S
C1183 C1177 1.390 . S
C1183 C1180 1.386 . S
C1184 C1179 1.490 . S
C1184 C1186 1.395 . S
C1184 C1187 1.403 . S
H1185 C1191 0.930 . S
C1186 H1172 0.930 . S
C1186 C1184 1.395 . S
C1186 C1189 1.403 1_655 S
C1187 C1184 1.403 . S
C1187 C1188 1.524 . S
C1187 C1191 1.400 1_655 S
C1188 H1173 0.960 . S
C1188 H1174 0.960 . S
C1188 H1175 0.960 . S
C1188 C1187 1.524 . S
C1189 C1186 1.403 1_455 S
C1189 C1190 1.392 . S
C1189 C1193 1.495 . S
C1190 C1189 1.392 . S
C1190 C1191 1.385 . S
C1190 C1192 1.478 . S
C1191 H1185 0.930 . S
C1191 C1187 1.400 1_455 S
C1191 C1190 1.385 . S
C1192 C1190 1.478 . S
C1192 C1194 1.381 . S
C1192 C1198 1.383 . S
C1193 C1189 1.495 . S
C1193 H1199 0.959 . S
C1193 H1200 0.961 . S
C1193 H1201 0.960 . S
C1194 C1192 1.381 . S
C1194 C1195 1.394 . S
C1194 H1202 0.930 . S
C1195 C1194 1.394 . S
C1195 C1196 1.383 . S
C1195 H1203 0.929 . S
C1196 C1195 1.383 . S
C1196 C1197 1.377 . S
C1197 H1181 0.930 . S
C1197 C1196 1.377 . S
C1197 C1198 1.379 . S
C1198 H1182 0.931 . S
C1198 C1192 1.383 . S
C1198 C1197 1.379 . S
H1199 C1193 0.959 . S
H1200 C1193 0.961 . S
H1201 C1193 0.960 . S
H1202 C1194 0.930 . S
H1203 C1195 0.929 . S
H1204 C1212 0.929 . S
H1205 C1214 0.930 . S
H1206 C1216 0.930 . S
H1207 C1219 0.929 . S
H1208 C1222 0.930 . S
H1209 C1224 0.960 . S
H1210 C1224 0.960 . S
H1211 C1224 0.960 . S
C1212 H1204 0.929 . S
C1212 C1213 1.377 . S
C1212 C1214 1.384 . S
C1213 C1212 1.377 . S
C1213 C1219 1.390 . S
C1214 H1205 0.930 . S
C1214 C1212 1.384 . S
C1214 C1215 1.372 . S
C1215 C1214 1.372 . S
C1215 C1216 1.400 . S
C1215 C1220 1.490 . S
C1216 H1206 0.930 . S
C1216 C1215 1.400 . S
C1216 C1219 1.386 . S
H1217 C1233 0.930 . S
H1218 C1234 0.931 . S
C1219 H1207 0.929 . S
C1219 C1213 1.390 . S
C1219 C1216 1.386 . S
C1220 C1215 1.490 . S
C1220 C1222 1.395 . S
C1220 C1223 1.403 . S
H1221 C1227 0.930 . S
C1222 H1208 0.930 . S
C1222 C1220 1.395 . S
C1222 C1225 1.403 . S
C1223 C1220 1.403 . S
C1223 C1224 1.524 . S
C1223 C1227 1.400 . S
C1224 H1209 0.960 . S
C1224 H1210 0.960 . S
C1224 H1211 0.960 . S
C1224 C1223 1.524 . S
C1225 C1222 1.403 . S
C1225 C1226 1.392 . S
C1225 C1229 1.495 . S
C1226 C1225 1.392 . S
C1226 C1227 1.385 . S
C1226 C1228 1.478 . S
C1227 H1221 0.930 . S
C1227 C1223 1.400 . S
C1227 C1226 1.385 . S
C1228 C1226 1.478 . S
C1228 C1230 1.381 . S
C1228 C1234 1.383 . S
C1229 C1225 1.495 . S
C1229 H1235 0.959 . S
C1229 H1236 0.961 . S
C1229 H1237 0.960 . S
C1230 C1228 1.381 . S
C1230 C1231 1.394 . S
C1230 H1238 0.930 . S
C1231 C1230 1.394 . S
C1231 C1232 1.383 . S
C1231 H1239 0.929 . S
C1232 C1231 1.383 . S
C1232 C1233 1.377 . S
C1233 H1217 0.930 . S
C1233 C1232 1.377 . S
C1233 C1234 1.379 . S
C1234 H1218 0.931 . S
C1234 C1228 1.383 . S
C1234 C1233 1.379 . S
H1235 C1229 0.959 . S
H1236 C1229 0.961 . S
H1237 C1229 0.960 . S
H1238 C1230 0.930 . S
H1239 C1231 0.929 . S
H1240 C1248 0.929 . S
H1241 C1250 0.930 . S
H1242 C1252 0.930 . S
H1243 C1255 0.929 . S
H1244 C1258 0.930 . S
H1245 C1260 0.960 . S
H1246 C1260 0.960 . S
H1247 C1260 0.960 . S
C1248 H1240 0.929 . S
C1248 C1249 1.377 . S
C1248 C1250 1.384 . S
C1249 C1248 1.377 . S
C1249 C1255 1.390 . S
C1250 H1241 0.930 . S
C1250 C1248 1.384 . S
C1250 C1251 1.372 . S
C1251 C1250 1.372 . S
C1251 C1252 1.400 . S
C1251 C1256 1.490 . S
C1252 H1242 0.930 . S
C1252 C1251 1.400 . S
C1252 C1255 1.386 . S
H1253 C1269 0.930 . S
H1254 C1270 0.931 . S
C1255 H1243 0.929 . S
C1255 C1249 1.390 . S
C1255 C1252 1.386 . S
C1256 C1251 1.490 . S
C1256 C1258 1.395 . S
C1256 C1259 1.403 . S
H1257 C1263 0.930 . S
C1258 H1244 0.930 . S
C1258 C1256 1.395 . S
C1258 C1261 1.403 . S
C1259 C1256 1.403 . S
C1259 C1260 1.524 . S
C1259 C1263 1.400 . S
C1260 H1245 0.960 . S
C1260 H1246 0.960 . S
C1260 H1247 0.960 . S
C1260 C1259 1.524 . S
C1261 C1258 1.403 . S
C1261 C1262 1.392 . S
C1261 C1265 1.495 . S
C1262 C1261 1.392 . S
C1262 C1263 1.385 . S
C1262 C1264 1.478 . S
C1263 H1257 0.930 . S
C1263 C1259 1.400 . S
C1263 C1262 1.385 . S
C1264 C1262 1.478 . S
C1264 C1266 1.381 . S
C1264 C1270 1.383 . S
C1265 C1261 1.495 . S
C1265 H1271 0.959 . S
C1265 H1272 0.961 . S
C1265 H1273 0.960 . S
C1266 C1264 1.381 . S
C1266 C1267 1.394 . S
C1266 H1274 0.930 . S
C1267 C1266 1.394 . S
C1267 C1268 1.383 . S
C1267 H1275 0.929 . S
C1268 C1267 1.383 . S
C1268 C1269 1.377 . S
C1269 H1253 0.930 . S
C1269 C1268 1.377 . S
C1269 C1270 1.379 . S
C1270 H1254 0.931 . S
C1270 C1264 1.383 . S
C1270 C1269 1.379 . S
H1271 C1265 0.959 . S
H1272 C1265 0.961 . S
H1273 C1265 0.960 . S
H1274 C1266 0.930 . S
H1275 C1267 0.929 . S
H1276 C1284 0.929 . S
H1277 C1286 0.930 . S
H1278 C1288 0.930 . S
H1279 C1291 0.929 . S
H1280 C1294 0.930 . S
H1281 C1296 0.960 . S
H1282 C1296 0.960 . S
H1283 C1296 0.960 . S
C1284 H1276 0.929 . S
C1284 C1285 1.377 . S
C1284 C1286 1.384 . S
C1285 C1284 1.377 . S
C1285 C1291 1.390 . S
C1286 H1277 0.930 . S
C1286 C1284 1.384 . S
C1286 C1287 1.372 . S
C1287 C1286 1.372 . S
C1287 C1288 1.400 . S
C1287 C1292 1.490 . S
C1288 H1278 0.930 . S
C1288 C1287 1.400 . S
C1288 C1291 1.386 . S
H1289 C1305 0.930 . S
H1290 C1306 0.931 . S
C1291 H1279 0.929 . S
C1291 C1285 1.390 . S
C1291 C1288 1.386 . S
C1292 C1287 1.490 . S
C1292 C1294 1.395 . S
C1292 C1295 1.403 . S
H1293 C1299 0.930 . S
C1294 H1280 0.930 . S
C1294 C1292 1.395 . S
C1294 C1297 1.403 . S
C1295 C1292 1.403 . S
C1295 C1296 1.524 . S
C1295 C1299 1.400 . S
C1296 H1281 0.960 . S
C1296 H1282 0.960 . S
C1296 H1283 0.960 . S
C1296 C1295 1.524 . S
C1297 C1294 1.403 . S
C1297 C1298 1.392 . S
C1297 C1301 1.495 . S
C1298 C1297 1.392 . S
C1298 C1299 1.385 . S
C1298 C1300 1.478 . S
C1299 H1293 0.930 . S
C1299 C1295 1.400 . S
C1299 C1298 1.385 . S
C1300 C1298 1.478 . S
C1300 C1302 1.381 . S
C1300 C1306 1.383 . S
C1301 C1297 1.495 . S
C1301 H1307 0.959 . S
C1301 H1308 0.961 . S
C1301 H1309 0.960 . S
C1302 C1300 1.381 . S
C1302 C1303 1.394 . S
C1302 H1310 0.930 . S
C1303 C1302 1.394 . S
C1303 C1304 1.383 . S
C1303 H1311 0.929 . S
C1304 C1303 1.383 . S
C1304 C1305 1.377 . S
C1305 H1289 0.930 . S
C1305 C1304 1.377 . S
C1305 C1306 1.379 . S
C1306 H1290 0.931 . S
C1306 C1300 1.383 . S
C1306 C1305 1.379 . S
H1307 C1301 0.959 . S
H1308 C1301 0.961 . S
H1309 C1301 0.960 . S
H1310 C1302 0.930 . S
H1311 C1303 0.929 . S
H1312 C1320 0.929 . S
H1313 C1322 0.930 . S
H1314 C1324 0.930 . S
H1315 C1327 0.929 . S
H1316 C1330 0.930 . S
H1317 C1332 0.960 . S
H1318 C1332 0.960 . S
H1319 C1332 0.960 . S
C1320 H1312 0.929 . S
C1320 C1321 1.377 . S
C1320 C1322 1.384 . S
C1321 C1320 1.377 . S
C1321 C1327 1.390 . S
C1322 H1313 0.930 . S
C1322 C1320 1.384 . S
C1322 C1323 1.372 . S
C1323 C1322 1.372 . S
C1323 C1324 1.400 . S
C1323 C1328 1.490 . S
C1324 H1314 0.930 . S
C1324 C1323 1.400 . S
C1324 C1327 1.386 . S
H1325 C1341 0.930 . S
H1326 C1342 0.931 . S
C1327 H1315 0.929 . S
C1327 C1321 1.390 . S
C1327 C1324 1.386 . S
C1328 C1323 1.490 . S
C1328 C1330 1.395 . S
C1328 C1331 1.403 . S
H1329 C1335 0.930 . S
C1330 H1316 0.930 . S
C1330 C1328 1.395 . S
C1330 C1333 1.403 . S
C1331 C1328 1.403 . S
C1331 C1332 1.524 . S
C1331 C1335 1.400 . S
C1332 H1317 0.960 . S
C1332 H1318 0.960 . S
C1332 H1319 0.960 . S
C1332 C1331 1.524 . S
C1333 C1330 1.403 . S
C1333 C1334 1.392 . S
C1333 C1337 1.495 . S
C1334 C1333 1.392 . S
C1334 C1335 1.385 . S
C1334 C1336 1.478 . S
C1335 H1329 0.930 . S
C1335 C1331 1.400 . S
C1335 C1334 1.385 . S
C1336 C1334 1.478 . S
C1336 C1338 1.381 . S
C1336 C1342 1.383 . S
C1337 C1333 1.495 . S
C1337 H1343 0.959 . S
C1337 H1344 0.961 . S
C1337 H1345 0.960 . S
C1338 C1336 1.381 . S
C1338 C1339 1.394 . S
C1338 H1346 0.930 . S
C1339 C1338 1.394 . S
C1339 C1340 1.383 . S
C1339 H1347 0.929 . S
C1340 C1339 1.383 . S
C1340 C1341 1.377 . S
C1341 H1325 0.930 . S
C1341 C1340 1.377 . S
C1341 C1342 1.379 . S
C1342 H1326 0.931 . S
C1342 C1336 1.383 . S
C1342 C1341 1.379 . S
H1343 C1337 0.959 . S
H1344 C1337 0.961 . S
H1345 C1337 0.960 . S
H1346 C1338 0.930 . S
H1347 C1339 0.929 . S
H1348 C1356 0.929 . S
H1349 C1358 0.930 . S
H1350 C1360 0.930 . S
H1351 C1363 0.929 . S
H1352 C1366 0.930 . S
H1353 C1368 0.960 . S
H1354 C1368 0.960 . S
H1355 C1368 0.960 . S
C1356 H1348 0.929 . S
C1356 C1357 1.377 . S
C1356 C1358 1.384 . S
C1357 C1356 1.377 . S
C1357 C1363 1.390 . S
C1358 H1349 0.930 . S
C1358 C1356 1.384 . S
C1358 C1359 1.372 . S
C1359 C1358 1.372 . S
C1359 C1360 1.400 . S
C1359 C1364 1.490 . S
C1360 H1350 0.930 . S
C1360 C1359 1.400 . S
C1360 C1363 1.386 . S
H1361 C1377 0.930 . S
H1362 C1378 0.931 . S
C1363 H1351 0.929 . S
C1363 C1357 1.390 . S
C1363 C1360 1.386 . S
C1364 C1359 1.490 . S
C1364 C1366 1.395 . S
C1364 C1367 1.403 . S
H1365 C1371 0.930 . S
C1366 H1352 0.930 . S
C1366 C1364 1.395 . S
C1366 C1369 1.403 . S
C1367 C1364 1.403 . S
C1367 C1368 1.524 . S
C1367 C1371 1.400 . S
C1368 H1353 0.960 . S
C1368 H1354 0.960 . S
C1368 H1355 0.960 . S
C1368 C1367 1.524 . S
C1369 C1366 1.403 . S
C1369 C1370 1.392 . S
C1369 C1373 1.495 . S
C1370 C1369 1.392 . S
C1370 C1371 1.385 . S
C1370 C1372 1.478 . S
C1371 H1365 0.930 . S
C1371 C1367 1.400 . S
C1371 C1370 1.385 . S
C1372 C1370 1.478 . S
C1372 C1374 1.381 . S
C1372 C1378 1.383 . S
C1373 C1369 1.495 . S
C1373 H1379 0.959 . S
C1373 H1380 0.961 . S
C1373 H1381 0.960 . S
C1374 C1372 1.381 . S
C1374 C1375 1.394 . S
C1374 H1382 0.930 . S
C1375 C1374 1.394 . S
C1375 C1376 1.383 . S
C1375 H1383 0.929 . S
C1376 C1375 1.383 . S
C1376 C1377 1.377 . S
C1377 H1361 0.930 . S
C1377 C1376 1.377 . S
C1377 C1378 1.379 . S
C1378 H1362 0.931 . S
C1378 C1372 1.383 . S
C1378 C1377 1.379 . S
H1379 C1373 0.959 . S
H1380 C1373 0.961 . S
H1381 C1373 0.960 . S
H1382 C1374 0.930 . S
H1383 C1375 0.929 . S
H1384 C1392 0.929 . S
H1385 C1394 0.930 . S
H1386 C1396 0.930 . S
H1387 C1399 0.929 . S
H1388 C1402 0.930 . S
H1389 C1404 0.960 . S
H1390 C1404 0.960 . S
H1391 C1404 0.960 . S
C1392 H1384 0.929 . S
C1392 C1393 1.377 . S
C1392 C1394 1.384 . S
C1393 C1392 1.377 . S
C1393 C1399 1.390 . S
C1394 H1385 0.930 . S
C1394 C1392 1.384 . S
C1394 C1395 1.372 . S
C1395 C1394 1.372 . S
C1395 C1396 1.400 . S
C1395 C1400 1.490 . S
C1396 H1386 0.930 . S
C1396 C1395 1.400 . S
C1396 C1399 1.386 . S
H1397 C1413 0.930 . S
H1398 C1414 0.931 . S
C1399 H1387 0.929 . S
C1399 C1393 1.390 . S
C1399 C1396 1.386 . S
C1400 C1395 1.490 . S
C1400 C1402 1.395 . S
C1400 C1403 1.403 . S
H1401 C1407 0.930 . S
C1402 H1388 0.930 . S
C1402 C1400 1.395 . S
C1402 C1405 1.403 . S
C1403 C1400 1.403 . S
C1403 C1404 1.524 . S
C1403 C1407 1.400 . S
C1404 H1389 0.960 . S
C1404 H1390 0.960 . S
C1404 H1391 0.960 . S
C1404 C1403 1.524 . S
C1405 C1402 1.403 . S
C1405 C1406 1.392 . S
C1405 C1409 1.495 . S
C1406 C1405 1.392 . S
C1406 C1407 1.385 . S
C1406 C1408 1.478 . S
C1407 H1401 0.930 . S
C1407 C1403 1.400 . S
C1407 C1406 1.385 . S
C1408 C1406 1.478 . S
C1408 C1410 1.381 . S
C1408 C1414 1.383 . S
C1409 C1405 1.495 . S
C1409 H1415 0.959 . S
C1409 H1416 0.961 . S
C1409 H1417 0.960 . S
C1410 C1408 1.381 . S
C1410 C1411 1.394 . S
C1410 H1418 0.930 . S
C1411 C1410 1.394 . S
C1411 C1412 1.383 . S
C1411 H1419 0.929 . S
C1412 C1411 1.383 . S
C1412 C1413 1.377 . S
C1413 H1397 0.930 . S
C1413 C1412 1.377 . S
C1413 C1414 1.379 . S
C1414 H1398 0.931 . S
C1414 C1408 1.383 . S
C1414 C1413 1.379 . S
H1415 C1409 0.959 . S
H1416 C1409 0.961 . S
H1417 C1409 0.960 . S
H1418 C1410 0.930 . S
H1419 C1411 0.929 . S
H1420 C1428 0.929 . S
H1421 C1430 0.930 . S
H1422 C1432 0.930 . S
H1423 C1435 0.929 . S
H1424 C1438 0.930 . S
H1425 C1440 0.960 . S
H1426 C1440 0.960 . S
H1427 C1440 0.960 . S
C1428 H1420 0.929 . S
C1428 C1429 1.377 . S
C1428 C1430 1.384 . S
C1429 C1428 1.377 . S
C1429 C1435 1.390 . S
C1430 H1421 0.930 . S
C1430 C1428 1.384 . S
C1430 C1431 1.372 . S
C1431 C1430 1.372 . S
C1431 C1432 1.400 . S
C1431 C1436 1.490 . S
C1432 H1422 0.930 . S
C1432 C1431 1.400 . S
C1432 C1435 1.386 . S
H1433 C1449 0.930 . S
H1434 C1450 0.931 . S
C1435 H1423 0.929 . S
C1435 C1429 1.390 . S
C1435 C1432 1.386 . S
C1436 C1431 1.490 . S
C1436 C1438 1.395 . S
C1436 C1439 1.403 . S
H1437 C1443 0.930 . S
C1438 H1424 0.930 . S
C1438 C1436 1.395 . S
C1438 C1441 1.403 . S
C1439 C1436 1.403 . S
C1439 C1440 1.524 . S
C1439 C1443 1.400 . S
C1440 H1425 0.960 . S
C1440 H1426 0.960 . S
C1440 H1427 0.960 . S
C1440 C1439 1.524 . S
C1441 C1438 1.403 . S
C1441 C1442 1.392 . S
C1441 C1445 1.495 . S
C1442 C1441 1.392 . S
C1442 C1443 1.385 . S
C1442 C1444 1.478 . S
C1443 H1437 0.930 . S
C1443 C1439 1.400 . S
C1443 C1442 1.385 . S
C1444 C1442 1.478 . S
C1444 C1446 1.381 . S
C1444 C1450 1.383 . S
C1445 C1441 1.495 . S
C1445 H1451 0.959 . S
C1445 H1452 0.961 . S
C1445 H1453 0.960 . S
C1446 C1444 1.381 . S
C1446 C1447 1.394 . S
C1446 H1454 0.930 . S
C1447 C1446 1.394 . S
C1447 C1448 1.383 . S
C1447 H1455 0.929 . S
C1448 C1447 1.383 . S
C1448 C1449 1.377 . S
C1449 H1433 0.930 . S
C1449 C1448 1.377 . S
C1449 C1450 1.379 . S
C1450 H1434 0.931 . S
C1450 C1444 1.383 . S
C1450 C1449 1.379 . S
H1451 C1445 0.959 . S
H1452 C1445 0.961 . S
H1453 C1445 0.960 . S
H1454 C1446 0.930 . S
H1455 C1447 0.929 . S
H1456 C1464 0.929 . S
H1457 C1466 0.930 . S
H1458 C1468 0.930 . S
H1459 C1471 0.929 . S
H1460 C1474 0.930 . S
H1461 C1476 0.960 . S
H1462 C1476 0.960 . S
H1463 C1476 0.960 . S
C1464 H1456 0.929 . S
C1464 C1465 1.377 . S
C1464 C1466 1.384 . S
C1465 C1464 1.377 . S
C1465 C1471 1.390 . S
C1466 H1457 0.930 . S
C1466 C1464 1.384 . S
C1466 C1467 1.372 . S
C1467 C1466 1.372 . S
C1467 C1468 1.400 . S
C1467 C1472 1.490 . S
C1468 H1458 0.930 . S
C1468 C1467 1.400 . S
C1468 C1471 1.386 . S
H1469 C1485 0.930 . S
H1470 C1486 0.931 . S
C1471 H1459 0.929 . S
C1471 C1465 1.390 . S
C1471 C1468 1.386 . S
C1472 C1467 1.490 . S
C1472 C1474 1.395 . S
C1472 C1475 1.403 . S
H1473 C1479 0.930 . S
C1474 H1460 0.930 . S
C1474 C1472 1.395 . S
C1474 C1477 1.403 . S
C1475 C1472 1.403 . S
C1475 C1476 1.524 . S
C1475 C1479 1.400 . S
C1476 H1461 0.960 . S
C1476 H1462 0.960 . S
C1476 H1463 0.960 . S
C1476 C1475 1.524 . S
C1477 C1474 1.403 . S
C1477 C1478 1.392 . S
C1477 C1481 1.495 . S
C1478 C1477 1.392 . S
C1478 C1479 1.385 . S
C1478 C1480 1.478 . S
C1479 H1473 0.930 . S
C1479 C1475 1.400 . S
C1479 C1478 1.385 . S
C1480 C1478 1.478 . S
C1480 C1482 1.381 . S
C1480 C1486 1.383 . S
C1481 C1477 1.495 . S
C1481 H1487 0.959 . S
C1481 H1488 0.961 . S
C1481 H1489 0.960 . S
C1482 C1480 1.381 . S
C1482 C1483 1.394 . S
C1482 H1490 0.930 . S
C1483 C1482 1.394 . S
C1483 C1484 1.383 . S
C1483 H1491 0.929 . S
C1484 C1483 1.383 . S
C1484 C1485 1.377 . S
C1485 H1469 0.930 . S
C1485 C1484 1.377 . S
C1485 C1486 1.379 . S
C1486 H1470 0.931 . S
C1486 C1480 1.383 . S
C1486 C1485 1.379 . S
H1487 C1481 0.959 . S
H1488 C1481 0.961 . S
H1489 C1481 0.960 . S
H1490 C1482 0.930 . S
H1491 C1483 0.929 . S
H1492 C1500 0.929 . S
H1493 C1502 0.930 . S
H1494 C1504 0.930 . S
H1495 C1507 0.929 . S
H1496 C1510 0.930 . S
H1497 C1512 0.960 . S
H1498 C1512 0.960 . S
H1499 C1512 0.960 . S
C1500 H1492 0.929 . S
C1500 C1501 1.377 . S
C1500 C1502 1.384 . S
C1501 C1500 1.377 . S
C1501 C1507 1.390 . S
C1502 H1493 0.930 . S
C1502 C1500 1.384 . S
C1502 C1503 1.372 . S
C1503 C1502 1.372 . S
C1503 C1504 1.400 . S
C1503 C1508 1.490 . S
C1504 H1494 0.930 . S
C1504 C1503 1.400 . S
C1504 C1507 1.386 . S
H1505 C1521 0.930 . S
H1506 C1522 0.931 . S
C1507 H1495 0.929 . S
C1507 C1501 1.390 . S
C1507 C1504 1.386 . S
C1508 C1503 1.490 . S
C1508 C1510 1.395 . S
C1508 C1511 1.403 . S
H1509 C1515 0.930 . S
C1510 H1496 0.930 . S
C1510 C1508 1.395 . S
C1510 C1513 1.403 1_655 S
C1511 C1508 1.403 . S
C1511 C1512 1.524 . S
C1511 C1515 1.400 1_655 S
C1512 H1497 0.960 . S
C1512 H1498 0.960 . S
C1512 H1499 0.960 . S
C1512 C1511 1.524 . S
C1513 C1510 1.403 1_455 S
C1513 C1514 1.392 . S
C1513 C1517 1.495 . S
C1514 C1513 1.392 . S
C1514 C1515 1.385 . S
C1514 C1516 1.478 . S
C1515 H1509 0.930 . S
C1515 C1511 1.400 1_455 S
C1515 C1514 1.385 . S
C1516 C1514 1.478 . S
C1516 C1518 1.381 . S
C1516 C1522 1.383 . S
C1517 C1513 1.495 . S
C1517 H1523 0.959 . S
C1517 H1524 0.961 . S
C1517 H1525 0.960 . S
C1518 C1516 1.381 . S
C1518 C1519 1.394 . S
C1518 H1526 0.930 . S
C1519 C1518 1.394 . S
C1519 C1520 1.383 . S
C1519 H1527 0.929 . S
C1520 C1519 1.383 . S
C1520 C1521 1.377 . S
C1521 H1505 0.930 . S
C1521 C1520 1.377 . S
C1521 C1522 1.379 . S
C1522 H1506 0.931 . S
C1522 C1516 1.383 . S
C1522 C1521 1.379 . S
H1523 C1517 0.959 . S
H1524 C1517 0.961 . S
H1525 C1517 0.960 . S
H1526 C1518 0.930 . S
H1527 C1519 0.929 . S
H1528 C1536 0.929 . S
H1529 C1538 0.930 . S
H1530 C1540 0.930 . S
H1531 C1543 0.929 . S
H1532 C1546 0.930 . S
H1533 C1548 0.960 . S
H1534 C1548 0.960 . S
H1535 C1548 0.960 . S
C1536 H1528 0.929 . S
C1536 C1537 1.377 . S
C1536 C1538 1.384 . S
C1537 C1536 1.377 . S
C1537 C1543 1.390 . S
C1538 H1529 0.930 . S
C1538 C1536 1.384 . S
C1538 C1539 1.372 . S
C1539 C1538 1.372 . S
C1539 C1540 1.400 . S
C1539 C1544 1.490 . S
C1540 H1530 0.930 . S
C1540 C1539 1.400 . S
C1540 C1543 1.386 . S
H1541 C1557 0.930 . S
H1542 C1558 0.931 . S
C1543 H1531 0.929 . S
C1543 C1537 1.390 . S
C1543 C1540 1.386 . S
C1544 C1539 1.490 . S
C1544 C1546 1.395 . S
C1544 C1547 1.403 . S
H1545 C1551 0.930 . S
C1546 H1532 0.930 . S
C1546 C1544 1.395 . S
C1546 C1549 1.403 . S
C1547 C1544 1.403 . S
C1547 C1548 1.524 . S
C1547 C1551 1.400 . S
C1548 H1533 0.960 . S
C1548 H1534 0.960 . S
C1548 H1535 0.960 . S
C1548 C1547 1.524 . S
C1549 C1546 1.403 . S
C1549 C1550 1.392 . S
C1549 C1553 1.495 . S
C1550 C1549 1.392 . S
C1550 C1551 1.385 . S
C1550 C1552 1.478 . S
C1551 H1545 0.930 . S
C1551 C1547 1.400 . S
C1551 C1550 1.385 . S
C1552 C1550 1.478 . S
C1552 C1554 1.381 . S
C1552 C1558 1.383 . S
C1553 C1549 1.495 . S
C1553 H1559 0.959 . S
C1553 H1560 0.961 . S
C1553 H1561 0.960 . S
C1554 C1552 1.381 . S
C1554 C1555 1.394 . S
C1554 H1562 0.930 . S
C1555 C1554 1.394 . S
C1555 C1556 1.383 . S
C1555 H1563 0.929 . S
C1556 C1555 1.383 . S
C1556 C1557 1.377 . S
C1557 H1541 0.930 . S
C1557 C1556 1.377 . S
C1557 C1558 1.379 . S
C1558 H1542 0.931 . S
C1558 C1552 1.383 . S
C1558 C1557 1.379 . S
H1559 C1553 0.959 . S
H1560 C1553 0.961 . S
H1561 C1553 0.960 . S
H1562 C1554 0.930 . S
H1563 C1555 0.929 . S
H1564 C1572 0.929 . S
H1565 C1574 0.930 . S
H1566 C1576 0.930 . S
H1567 C1579 0.929 . S
H1568 C1582 0.930 . S
H1569 C1584 0.960 . S
H1570 C1584 0.960 . S
H1571 C1584 0.960 . S
C1572 H1564 0.929 . S
C1572 C1573 1.377 . S
C1572 C1574 1.384 . S
C1573 C1572 1.377 . S
C1573 C1579 1.390 . S
C1574 H1565 0.930 . S
C1574 C1572 1.384 . S
C1574 C1575 1.372 . S
C1575 C1574 1.372 . S
C1575 C1576 1.400 . S
C1575 C1580 1.490 . S
C1576 H1566 0.930 . S
C1576 C1575 1.400 . S
C1576 C1579 1.386 . S
H1577 C1593 0.930 . S
H1578 C1594 0.931 . S
C1579 H1567 0.929 . S
C1579 C1573 1.390 . S
C1579 C1576 1.386 . S
C1580 C1575 1.490 . S
C1580 C1582 1.395 . S
C1580 C1583 1.403 . S
H1581 C1587 0.930 . S
C1582 H1568 0.930 . S
C1582 C1580 1.395 . S
C1582 C1585 1.403 1_455 S
C1583 C1580 1.403 . S
C1583 C1584 1.524 . S
C1583 C1587 1.400 1_455 S
C1584 H1569 0.960 . S
C1584 H1570 0.960 . S
C1584 H1571 0.960 . S
C1584 C1583 1.524 . S
C1585 C1582 1.403 1_655 S
C1585 C1586 1.392 . S
C1585 C1589 1.495 . S
C1586 C1585 1.392 . S
C1586 C1587 1.385 . S
C1586 C1588 1.478 . S
C1587 H1581 0.930 . S
C1587 C1583 1.400 1_655 S
C1587 C1586 1.385 . S
C1588 C1586 1.478 . S
C1588 C1590 1.381 . S
C1588 C1594 1.383 . S
C1589 C1585 1.495 . S
C1589 H1595 0.959 . S
C1589 H1596 0.961 . S
C1589 H1597 0.960 . S
C1590 C1588 1.381 . S
C1590 C1591 1.394 . S
C1590 H1598 0.930 . S
C1591 C1590 1.394 . S
C1591 C1592 1.383 . S
C1591 H1599 0.929 . S
C1592 C1591 1.383 . S
C1592 C1593 1.377 . S
C1593 H1577 0.930 . S
C1593 C1592 1.377 . S
C1593 C1594 1.379 . S
C1594 H1578 0.931 . S
C1594 C1588 1.383 . S
C1594 C1593 1.379 . S
H1595 C1589 0.959 . S
H1596 C1589 0.961 . S
H1597 C1589 0.960 . S
H1598 C1590 0.930 . S
H1599 C1591 0.929 . S
H1600 C1608 0.929 . S
H1601 C1610 0.930 . S
H1602 C1612 0.930 . S
H1603 C1615 0.929 . S
H1604 C1618 0.930 . S
H1605 C1620 0.960 . S
H1606 C1620 0.960 . S
H1607 C1620 0.960 . S
C1608 H1600 0.929 . S
C1608 C1609 1.377 . S
C1608 C1610 1.384 . S
C1609 C1608 1.377 . S
C1609 C1615 1.390 . S
C1610 H1601 0.930 . S
C1610 C1608 1.384 . S
C1610 C1611 1.372 . S
C1611 C1610 1.372 . S
C1611 C1612 1.400 . S
C1611 C1616 1.490 . S
C1612 H1602 0.930 . S
C1612 C1611 1.400 . S
C1612 C1615 1.386 . S
H1613 C1629 0.930 . S
H1614 C1630 0.931 . S
C1615 H1603 0.929 . S
C1615 C1609 1.390 . S
C1615 C1612 1.386 . S
C1616 C1611 1.490 . S
C1616 C1618 1.395 1_556 S
C1616 C1619 1.403 . S
H1617 C1623 0.929 . S
C1618 H1604 0.930 . S
C1618 C1616 1.395 1_554 S
C1618 C1621 1.403 . S
C1619 C1616 1.403 . S
C1619 C1620 1.524 . S
C1619 C1623 1.374 1_556 S
C1620 H1605 0.960 . S
C1620 H1606 0.960 . S
C1620 H1607 0.960 . S
C1620 C1619 1.524 . S
C1621 C1618 1.403 . S
C1621 C1622 1.392 . S
C1621 C1625 1.495 . S
C1622 C1621 1.392 . S
C1622 C1623 1.414 . S
C1622 C1624 1.478 . S
C1623 H1617 0.929 . S
C1623 C1619 1.374 1_554 S
C1623 C1622 1.414 . S
C1624 C1622 1.478 . S
C1624 C1626 1.381 . S
C1624 C1630 1.383 . S
C1625 C1621 1.495 . S
C1625 H1631 0.959 . S
C1625 H1632 0.961 . S
C1625 H1633 0.960 . S
C1626 C1624 1.381 . S
C1626 C1627 1.394 . S
C1626 H1634 0.930 . S
C1627 C1626 1.394 . S
C1627 C1628 1.383 . S
C1627 H1635 0.929 . S
C1628 C1627 1.383 . S
C1628 C1629 1.377 . S
C1629 H1613 0.930 . S
C1629 C1628 1.377 . S
C1629 C1630 1.379 . S
C1630 H1614 0.931 . S
C1630 C1624 1.383 . S
C1630 C1629 1.379 . S
H1631 C1625 0.959 . S
H1632 C1625 0.961 . S
H1633 C1625 0.960 . S
H1634 C1626 0.930 . S
H1635 C1627 0.929 . S
H1636 C1644 0.929 . S
H1637 C1646 0.930 . S
H1638 C1648 0.930 . S
H1639 C1651 0.929 . S
H1640 C1654 0.930 . S
H1641 C1656 0.960 . S
H1642 C1656 0.960 . S
H1643 C1656 0.960 . S
C1644 H1636 0.929 . S
C1644 C1645 1.377 . S
C1644 C1646 1.384 . S
C1645 C1644 1.377 . S
C1645 C1651 1.390 . S
C1646 H1637 0.930 . S
C1646 C1644 1.384 . S
C1646 C1647 1.372 . S
C1647 C1646 1.372 . S
C1647 C1648 1.400 . S
C1647 C1652 1.490 . S
C1648 H1638 0.930 . S
C1648 C1647 1.400 . S
C1648 C1651 1.386 . S
H1649 C1665 0.930 . S
H1650 C1666 0.931 . S
C1651 H1639 0.929 . S
C1651 C1645 1.390 . S
C1651 C1648 1.386 . S
C1652 C1647 1.490 . S
C1652 C1654 1.395 . S
C1652 C1655 1.403 . S
H1653 C1659 0.930 . S
C1654 H1640 0.930 . S
C1654 C1652 1.395 . S
C1654 C1657 1.403 . S
C1655 C1652 1.403 . S
C1655 C1656 1.524 . S
C1655 C1659 1.400 . S
C1656 H1641 0.960 . S
C1656 H1642 0.960 . S
C1656 H1643 0.960 . S
C1656 C1655 1.524 . S
C1657 C1654 1.403 . S
C1657 C1658 1.392 . S
C1657 C1661 1.495 . S
C1658 C1657 1.392 . S
C1658 C1659 1.385 . S
C1658 C1660 1.478 . S
C1659 H1653 0.930 . S
C1659 C1655 1.400 . S
C1659 C1658 1.385 . S
C1660 C1658 1.478 . S
C1660 C1662 1.381 . S
C1660 C1666 1.383 . S
C1661 C1657 1.495 . S
C1661 H1667 0.959 . S
C1661 H1668 0.961 . S
C1661 H1669 0.960 . S
C1662 C1660 1.381 . S
C1662 C1663 1.394 . S
C1662 H1670 0.930 . S
C1663 C1662 1.394 . S
C1663 C1664 1.383 . S
C1663 H1671 0.929 . S
C1664 C1663 1.383 . S
C1664 C1665 1.377 . S
C1665 H1649 0.930 . S
C1665 C1664 1.377 . S
C1665 C1666 1.379 . S
C1666 H1650 0.931 . S
C1666 C1660 1.383 . S
C1666 C1665 1.379 . S
H1667 C1661 0.959 . S
H1668 C1661 0.961 . S
H1669 C1661 0.960 . S
H1670 C1662 0.930 . S
H1671 C1663 0.929 . S
H1672 C1680 0.929 . S
H1673 C1682 0.930 . S
H1674 C1684 0.930 . S
H1675 C1687 0.929 . S
H1676 C1690 0.930 . S
H1677 C1692 0.960 . S
H1678 C1692 0.960 . S
H1679 C1692 0.960 . S
C1680 H1672 0.929 . S
C1680 C1681 1.377 . S
C1680 C1682 1.384 . S
C1681 C1680 1.377 . S
C1681 C1687 1.390 . S
C1682 H1673 0.930 . S
C1682 C1680 1.384 . S
C1682 C1683 1.372 . S
C1683 C1682 1.372 . S
C1683 C1684 1.400 . S
C1683 C1688 1.490 . S
C1684 H1674 0.930 . S
C1684 C1683 1.400 . S
C1684 C1687 1.386 . S
H1685 C1701 0.930 . S
H1686 C1702 0.931 . S
C1687 H1675 0.929 . S
C1687 C1681 1.390 . S
C1687 C1684 1.386 . S
C1688 C1683 1.490 . S
C1688 C1690 1.395 . S
C1688 C1691 1.403 . S
H1689 C1695 0.930 . S
C1690 H1676 0.930 . S
C1690 C1688 1.395 . S
C1690 C1693 1.403 . S
C1691 C1688 1.403 . S
C1691 C1692 1.524 . S
C1691 C1695 1.400 . S
C1692 H1677 0.960 . S
C1692 H1678 0.960 . S
C1692 H1679 0.960 . S
C1692 C1691 1.524 . S
C1693 C1690 1.403 . S
C1693 C1694 1.392 . S
C1693 C1697 1.495 . S
C1694 C1693 1.392 . S
C1694 C1695 1.385 . S
C1694 C1696 1.478 . S
C1695 H1689 0.930 . S
C1695 C1691 1.400 . S
C1695 C1694 1.385 . S
C1696 C1694 1.478 . S
C1696 C1698 1.381 . S
C1696 C1702 1.383 . S
C1697 C1693 1.495 . S
C1697 H1703 0.959 . S
C1697 H1704 0.961 . S
C1697 H1705 0.960 . S
C1698 C1696 1.381 . S
C1698 C1699 1.394 . S
C1698 H1706 0.930 . S
C1699 C1698 1.394 . S
C1699 C1700 1.383 . S
C1699 H1707 0.929 . S
C1700 C1699 1.383 . S
C1700 C1701 1.377 . S
C1701 H1685 0.930 . S
C1701 C1700 1.377 . S
C1701 C1702 1.379 . S
C1702 H1686 0.931 . S
C1702 C1696 1.383 . S
C1702 C1701 1.379 . S
H1703 C1697 0.959 . S
H1704 C1697 0.961 . S
H1705 C1697 0.960 . S
H1706 C1698 0.930 . S
H1707 C1699 0.929 . S
H1708 C1716 0.929 . S
H1709 C1718 0.930 . S
H1710 C1720 0.930 . S
H1711 C1723 0.929 . S
H1712 C1726 0.930 . S
H1713 C1728 0.960 . S
H1714 C1728 0.960 . S
H1715 C1728 0.960 . S
C1716 H1708 0.929 . S
C1716 C1717 1.377 . S
C1716 C1718 1.384 . S
C1717 C1716 1.377 . S
C1717 C1723 1.390 . S
C1718 H1709 0.930 . S
C1718 C1716 1.384 . S
C1718 C1719 1.372 . S
C1719 C1718 1.372 . S
C1719 C1720 1.400 . S
C1719 C1724 1.490 . S
C1720 H1710 0.930 . S
C1720 C1719 1.400 . S
C1720 C1723 1.386 . S
H1721 C1737 0.930 . S
H1722 C1738 0.931 . S
C1723 H1711 0.929 . S
C1723 C1717 1.390 . S
C1723 C1720 1.386 . S
C1724 C1719 1.490 . S
C1724 C1726 1.395 . S
C1724 C1727 1.403 . S
H1725 C1731 0.930 . S
C1726 H1712 0.930 . S
C1726 C1724 1.395 . S
C1726 C1729 1.403 . S
C1727 C1724 1.403 . S
C1727 C1728 1.524 . S
C1727 C1731 1.400 . S
C1728 H1713 0.960 . S
C1728 H1714 0.960 . S
C1728 H1715 0.960 . S
C1728 C1727 1.524 . S
C1729 C1726 1.403 . S
C1729 C1730 1.392 . S
C1729 C1733 1.495 . S
C1730 C1729 1.392 . S
C1730 C1731 1.385 . S
C1730 C1732 1.478 . S
C1731 H1725 0.930 . S
C1731 C1727 1.400 . S
C1731 C1730 1.385 . S
C1732 C1730 1.478 . S
C1732 C1734 1.381 . S
C1732 C1738 1.383 . S
C1733 C1729 1.495 . S
C1733 H1739 0.959 . S
C1733 H1740 0.961 . S
C1733 H1741 0.960 . S
C1734 C1732 1.381 . S
C1734 C1735 1.394 . S
C1734 H1742 0.930 . S
C1735 C1734 1.394 . S
C1735 C1736 1.383 . S
C1735 H1743 0.929 . S
C1736 C1735 1.383 . S
C1736 C1737 1.377 . S
C1737 H1721 0.930 . S
C1737 C1736 1.377 . S
C1737 C1738 1.379 . S
C1738 H1722 0.931 . S
C1738 C1732 1.383 . S
C1738 C1737 1.379 . S
H1739 C1733 0.959 . S
H1740 C1733 0.961 . S
H1741 C1733 0.960 . S
H1742 C1734 0.930 . S
H1743 C1735 0.929 . S
H1744 C1752 0.929 . S
H1745 C1754 0.930 . S
H1746 C1756 0.930 . S
H1747 C1759 0.929 . S
H1748 C1762 0.930 . S
H1749 C1764 0.960 . S
H1750 C1764 0.960 . S
H1751 C1764 0.960 . S
C1752 H1744 0.929 . S
C1752 C1753 1.377 . S
C1752 C1754 1.384 . S
C1753 C1752 1.377 . S
C1753 C1759 1.390 . S
C1754 H1745 0.930 . S
C1754 C1752 1.384 . S
C1754 C1755 1.372 . S
C1755 C1754 1.372 . S
C1755 C1756 1.400 . S
C1755 C1760 1.490 . S
C1756 H1746 0.930 . S
C1756 C1755 1.400 . S
C1756 C1759 1.386 . S
H1757 C1773 0.930 . S
H1758 C1774 0.931 . S
C1759 H1747 0.929 . S
C1759 C1753 1.390 . S
C1759 C1756 1.386 . S
C1760 C1755 1.490 . S
C1760 C1762 1.395 . S
C1760 C1763 1.403 1_554 S
H1761 C1767 0.930 . S
C1762 H1748 0.930 . S
C1762 C1760 1.395 . S
C1762 C1765 1.403 . S
C1763 C1760 1.403 1_556 S
C1763 C1764 1.524 . S
C1763 C1767 1.400 . S
C1764 H1749 0.960 . S
C1764 H1750 0.960 . S
C1764 H1751 0.960 . S
C1764 C1763 1.524 . S
C1765 C1762 1.403 . S
C1765 C1766 1.392 1_554 S
C1765 C1769 1.495 . S
C1766 C1765 1.392 1_556 S
C1766 C1767 1.385 . S
C1766 C1768 1.478 . S
C1767 H1761 0.930 . S
C1767 C1763 1.400 . S
C1767 C1766 1.385 . S
C1768 C1766 1.478 . S
C1768 C1770 1.381 . S
C1768 C1774 1.383 . S
C1769 C1765 1.495 . S
C1769 H1775 0.959 . S
C1769 H1776 0.961 . S
C1769 H1777 0.960 . S
C1770 C1768 1.381 . S
C1770 C1771 1.394 . S
C1770 H1778 0.930 . S
C1771 C1770 1.394 . S
C1771 C1772 1.383 . S
C1771 H1779 0.929 . S
C1772 C1771 1.383 . S
C1772 C1773 1.377 . S
C1773 H1757 0.930 . S
C1773 C1772 1.377 . S
C1773 C1774 1.379 . S
C1774 H1758 0.931 . S
C1774 C1768 1.383 . S
C1774 C1773 1.379 . S
H1775 C1769 0.959 . S
H1776 C1769 0.961 . S
H1777 C1769 0.960 . S
H1778 C1770 0.930 . S
H1779 C1771 0.929 . S
H1780 C1788 0.929 . S
H1781 C1790 0.930 . S
H1782 C1792 0.930 . S
H1783 C1795 0.929 . S
H1784 C1798 0.930 . S
H1785 C1800 0.960 . S
H1786 C1800 0.960 . S
H1787 C1800 0.960 . S
C1788 H1780 0.929 . S
C1788 C1789 1.377 . S
C1788 C1790 1.384 . S
C1789 C1788 1.377 . S
C1789 C1795 1.390 . S
C1790 H1781 0.930 . S
C1790 C1788 1.384 . S
C1790 C1791 1.372 . S
C1791 C1790 1.372 . S
C1791 C1792 1.400 . S
C1791 C1796 1.490 . S
C1792 H1782 0.930 . S
C1792 C1791 1.400 . S
C1792 C1795 1.386 . S
H1793 C1809 0.930 . S
H1794 C1810 0.931 . S
C1795 H1783 0.929 . S
C1795 C1789 1.390 . S
C1795 C1792 1.386 . S
C1796 C1791 1.490 . S
C1796 C1798 1.395 . S
C1796 C1799 1.403 . S
H1797 C1803 0.930 . S
C1798 H1784 0.930 . S
C1798 C1796 1.395 . S
C1798 C1801 1.403 . S
C1799 C1796 1.403 . S
C1799 C1800 1.524 . S
C1799 C1803 1.400 . S
C1800 H1785 0.960 . S
C1800 H1786 0.960 . S
C1800 H1787 0.960 . S
C1800 C1799 1.524 . S
C1801 C1798 1.403 . S
C1801 C1802 1.392 . S
C1801 C1805 1.495 . S
C1802 C1801 1.392 . S
C1802 C1803 1.385 . S
C1802 C1804 1.478 . S
C1803 H1797 0.930 . S
C1803 C1799 1.400 . S
C1803 C1802 1.385 . S
C1804 C1802 1.478 . S
C1804 C1806 1.381 . S
C1804 C1810 1.383 . S
C1805 C1801 1.495 . S
C1805 H1811 0.959 . S
C1805 H1812 0.961 . S
C1805 H1813 0.960 . S
C1806 C1804 1.381 . S
C1806 C1807 1.394 . S
C1806 H1814 0.930 . S
C1807 C1806 1.394 . S
C1807 C1808 1.383 . S
C1807 H1815 0.929 . S
C1808 C1807 1.383 . S
C1808 C1809 1.377 . S
C1809 H1793 0.930 . S
C1809 C1808 1.377 . S
C1809 C1810 1.379 . S
C1810 H1794 0.931 . S
C1810 C1804 1.383 . S
C1810 C1809 1.379 . S
H1811 C1805 0.959 . S
H1812 C1805 0.961 . S
H1813 C1805 0.960 . S
H1814 C1806 0.930 . S
H1815 C1807 0.929 . S
H1816 C1824 0.929 . S
H1817 C1826 0.930 . S
H1818 C1828 0.930 . S
H1819 C1831 0.929 . S
H1820 C1834 0.930 . S
H1821 C1836 0.960 . S
H1822 C1836 0.960 . S
H1823 C1836 0.960 . S
C1824 H1816 0.929 . S
C1824 C1825 1.377 . S
C1824 C1826 1.384 . S
C1825 C1824 1.377 . S
C1825 C1831 1.390 . S
C1826 H1817 0.930 . S
C1826 C1824 1.384 . S
C1826 C1827 1.372 . S
C1827 C1826 1.372 . S
C1827 C1828 1.400 . S
C1827 C1832 1.490 . S
C1828 H1818 0.930 . S
C1828 C1827 1.400 . S
C1828 C1831 1.386 . S
H1829 C1845 0.930 . S
H1830 C1846 0.931 . S
C1831 H1819 0.929 . S
C1831 C1825 1.390 . S
C1831 C1828 1.386 . S
C1832 C1827 1.490 . S
C1832 C1834 1.395 . S
C1832 C1835 1.403 . S
H1833 C1839 0.930 . S
C1834 H1820 0.930 . S
C1834 C1832 1.395 . S
C1834 C1837 1.403 . S
C1835 C1832 1.403 . S
C1835 C1836 1.524 . S
C1835 C1839 1.400 . S
C1836 H1821 0.960 . S
C1836 H1822 0.960 . S
C1836 H1823 0.960 . S
C1836 C1835 1.524 . S
C1837 C1834 1.403 . S
C1837 C1838 1.392 . S
C1837 C1841 1.495 . S
C1838 C1837 1.392 . S
C1838 C1839 1.385 . S
C1838 C1840 1.478 . S
C1839 H1833 0.930 . S
C1839 C1835 1.400 . S
C1839 C1838 1.385 . S
C1840 C1838 1.478 . S
C1840 C1842 1.381 . S
C1840 C1846 1.383 . S
C1841 C1837 1.495 . S
C1841 H1847 0.959 . S
C1841 H1848 0.961 . S
C1841 H1849 0.960 . S
C1842 C1840 1.381 . S
C1842 C1843 1.394 . S
C1842 H1850 0.930 . S
C1843 C1842 1.394 . S
C1843 C1844 1.383 . S
C1843 H1851 0.929 . S
C1844 C1843 1.383 . S
C1844 C1845 1.377 . S
C1845 H1829 0.930 . S
C1845 C1844 1.377 . S
C1845 C1846 1.379 . S
C1846 H1830 0.931 . S
C1846 C1840 1.383 . S
C1846 C1845 1.379 . S
H1847 C1841 0.959 . S
H1848 C1841 0.961 . S
H1849 C1841 0.960 . S
H1850 C1842 0.930 . S
H1851 C1843 0.929 . S
H1852 C1860 0.929 . S
H1853 C1862 0.930 . S
H1854 C1864 0.930 . S
H1855 C1867 0.929 . S
H1856 C1870 0.930 . S
H1857 C1872 0.960 . S
H1858 C1872 0.960 . S
H1859 C1872 0.960 . S
C1860 H1852 0.929 . S
C1860 C1861 1.377 . S
C1860 C1862 1.384 . S
C1861 C1860 1.377 . S
C1861 C1867 1.390 . S
C1862 H1853 0.930 . S
C1862 C1860 1.384 . S
C1862 C1863 1.372 . S
C1863 C1862 1.372 . S
C1863 C1864 1.400 . S
C1863 C1868 1.490 . S
C1864 H1854 0.930 . S
C1864 C1863 1.400 . S
C1864 C1867 1.386 . S
H1865 C1881 0.930 . S
H1866 C1882 0.931 . S
C1867 H1855 0.929 . S
C1867 C1861 1.390 . S
C1867 C1864 1.386 . S
C1868 C1863 1.490 . S
C1868 C1870 1.395 . S
C1868 C1871 1.403 . S
H1869 C1875 0.930 . S
C1870 H1856 0.930 . S
C1870 C1868 1.395 . S
C1870 C1873 1.403 . S
C1871 C1868 1.403 . S
C1871 C1872 1.524 . S
C1871 C1875 1.400 . S
C1872 H1857 0.960 . S
C1872 H1858 0.960 . S
C1872 H1859 0.960 . S
C1872 C1871 1.524 . S
C1873 C1870 1.403 . S
C1873 C1874 1.392 . S
C1873 C1877 1.495 . S
C1874 C1873 1.392 . S
C1874 C1875 1.385 . S
C1874 C1876 1.478 . S
C1875 H1869 0.930 . S
C1875 C1871 1.400 . S
C1875 C1874 1.385 . S
C1876 C1874 1.478 . S
C1876 C1878 1.381 . S
C1876 C1882 1.383 . S
C1877 C1873 1.495 . S
C1877 H1883 0.959 . S
C1877 H1884 0.961 . S
C1877 H1885 0.960 . S
C1878 C1876 1.381 . S
C1878 C1879 1.394 . S
C1878 H1886 0.930 . S
C1879 C1878 1.394 . S
C1879 C1880 1.383 . S
C1879 H1887 0.929 . S
C1880 C1879 1.383 . S
C1880 C1881 1.377 . S
C1881 H1865 0.930 . S
C1881 C1880 1.377 . S
C1881 C1882 1.379 . S
C1882 H1866 0.931 . S
C1882 C1876 1.383 . S
C1882 C1881 1.379 . S
H1883 C1877 0.959 . S
H1884 C1877 0.961 . S
H1885 C1877 0.960 . S
H1886 C1878 0.930 . S
H1887 C1879 0.929 . S
H1888 C1896 0.929 . S
H1889 C1898 0.930 . S
H1890 C1900 0.930 . S
H1891 C1903 0.929 . S
H1892 C1906 0.930 . S
H1893 C1908 0.960 . S
H1894 C1908 0.987 . S
H1895 C1908 0.960 . S
C1896 H1888 0.929 . S
C1896 C1897 1.377 . S
C1896 C1898 1.384 . S
C1897 C1896 1.377 . S
C1897 C1903 1.390 . S
C1898 H1889 0.930 . S
C1898 C1896 1.384 . S
C1898 C1899 1.372 . S
C1899 C1898 1.372 . S
C1899 C1900 1.400 . S
C1899 C1904 1.490 . S
C1900 H1890 0.930 . S
C1900 C1899 1.400 . S
C1900 C1903 1.386 . S
H1901 C1917 0.930 . S
H1902 C1918 0.931 . S
C1903 H1891 0.929 . S
C1903 C1897 1.390 . S
C1903 C1900 1.386 . S
C1904 C1899 1.490 . S
C1904 C1906 1.395 . S
C1904 C1907 1.403 1_545 S
H1905 C1911 0.930 . S
C1906 H1892 0.930 . S
C1906 C1904 1.395 . S
C1906 C1909 1.403 . S
C1907 C1904 1.403 1_565 S
C1907 C1908 1.524 . S
C1907 C1911 1.400 . S
C1908 H1893 0.960 . S
C1908 H1894 0.987 . S
C1908 H1895 0.960 . S
C1908 C1907 1.524 . S
C1909 C1906 1.403 . S
C1909 C1910 1.392 1_545 S
C1909 C1913 1.495 . S
C1910 C1909 1.392 1_565 S
C1910 C1911 1.385 . S
C1910 C1912 1.478 . S
C1911 H1905 0.930 . S
C1911 C1907 1.400 . S
C1911 C1910 1.385 . S
C1912 C1910 1.478 . S
C1912 C1914 1.381 . S
C1912 C1918 1.383 . S
C1913 C1909 1.495 . S
C1913 H1919 0.959 . S
C1913 H1920 0.961 . S
C1913 H1921 0.960 . S
C1914 C1912 1.381 . S
C1914 C1915 1.394 . S
C1914 H1922 0.930 . S
C1915 C1914 1.394 . S
C1915 C1916 1.383 . S
C1915 H1923 0.929 . S
C1916 C1915 1.383 . S
C1916 C1917 1.377 . S
C1917 H1901 0.930 . S
C1917 C1916 1.377 . S
C1917 C1918 1.379 . S
C1918 H1902 0.931 . S
C1918 C1912 1.383 . S
C1918 C1917 1.379 . S
H1919 C1913 0.959 . S
H1920 C1913 0.961 . S
H1921 C1913 0.960 . S
H1922 C1914 0.930 . S
H1923 C1915 0.929 . S
H1924 C1932 0.929 . S
H1925 C1934 0.930 . S
H1926 C1936 0.930 . S
H1927 C1939 0.929 . S
H1928 C1942 0.930 . S
H1929 C1944 0.960 . S
H1930 C1944 0.960 . S
H1931 C1944 0.960 . S
C1932 H1924 0.929 . S
C1932 C1933 1.377 . S
C1932 C1934 1.384 . S
C1933 C1932 1.377 . S
C1933 C1939 1.390 . S
C1934 H1925 0.930 . S
C1934 C1932 1.384 . S
C1934 C1935 1.372 . S
C1935 C1934 1.372 . S
C1935 C1936 1.400 . S
C1935 C1940 1.490 . S
C1936 H1926 0.930 . S
C1936 C1935 1.400 . S
C1936 C1939 1.386 . S
H1937 C1953 0.930 . S
H1938 C1954 0.931 . S
C1939 H1927 0.929 . S
C1939 C1933 1.390 . S
C1939 C1936 1.386 . S
C1940 C1935 1.490 . S
C1940 C1942 1.395 . S
C1940 C1943 1.403 . S
H1941 C1947 0.930 . S
C1942 H1928 0.930 . S
C1942 C1940 1.395 . S
C1942 C1945 1.403 . S
C1943 C1940 1.403 . S
C1943 C1944 1.524 . S
C1943 C1947 1.400 . S
C1944 H1929 0.960 . S
C1944 H1930 0.960 . S
C1944 H1931 0.960 . S
C1944 C1943 1.524 . S
C1945 C1942 1.403 . S
C1945 C1946 1.392 . S
C1945 C1949 1.495 . S
C1946 C1945 1.392 . S
C1946 C1947 1.385 . S
C1946 C1948 1.478 . S
C1947 H1941 0.930 . S
C1947 C1943 1.400 . S
C1947 C1946 1.385 . S
C1948 C1946 1.478 . S
C1948 C1950 1.381 . S
C1948 C1954 1.383 . S
C1949 C1945 1.495 . S
C1949 H1955 0.959 . S
C1949 H1956 0.961 . S
C1949 H1957 0.960 . S
C1950 C1948 1.381 . S
C1950 C1951 1.394 . S
C1950 H1958 0.930 . S
C1951 C1950 1.394 . S
C1951 C1952 1.383 . S
C1951 H1959 0.929 . S
C1952 C1951 1.383 . S
C1952 C1953 1.377 . S
C1953 H1937 0.930 . S
C1953 C1952 1.377 . S
C1953 C1954 1.379 . S
C1954 H1938 0.931 . S
C1954 C1948 1.383 . S
C1954 C1953 1.379 . S
H1955 C1949 0.959 . S
H1956 C1949 0.961 . S
H1957 C1949 0.960 . S
H1958 C1950 0.930 . S
H1959 C1951 0.929 . S
H1960 C1968 0.929 . S
H1961 C1970 0.930 . S
H1962 C1972 0.930 . S
H1963 C1975 0.929 . S
H1964 C1978 0.930 . S
H1965 C1980 1.025 . S
H1966 C1980 0.885 1_554 S
H1967 C1980 0.983 . S
C1968 H1960 0.929 . S
C1968 C1969 1.377 . S
C1968 C1970 1.384 . S
C1969 C1968 1.377 . S
C1969 C1975 1.390 . S
C1970 H1961 0.930 . S
C1970 C1968 1.384 . S
C1970 C1971 1.372 . S
C1971 C1970 1.372 . S
C1971 C1972 1.400 . S
C1971 C1976 1.490 . S
C1972 H1962 0.930 . S
C1972 C1971 1.400 . S
C1972 C1975 1.386 . S
H1973 C1989 0.930 . S
H1974 C1990 0.931 . S
C1975 H1963 0.929 . S
C1975 C1969 1.390 . S
C1975 C1972 1.386 . S
C1976 C1971 1.490 . S
C1976 C1978 1.395 . S
C1976 C1979 1.401 . S
H1977 C1983 0.930 . S
C1978 H1964 0.930 . S
C1978 C1976 1.395 . S
C1978 C1981 1.403 1_565 S
C1979 C1976 1.401 . S
C1979 C1980 1.520 1_554 S
C1979 C1983 1.401 1_564 S
C1980 H1965 1.025 . S
C1980 H1966 0.885 1_556 S
C1980 H1967 0.983 . S
C1980 C1979 1.520 1_556 S
C1981 C1978 1.403 1_545 S
C1981 C1982 1.392 1_554 S
C1981 C1985 1.495 . S
C1982 C1981 1.392 1_556 S
C1982 C1983 1.385 . S
C1982 C1984 1.478 . S
C1983 H1977 0.930 . S
C1983 C1979 1.401 1_546 S
C1983 C1982 1.385 . S
C1984 C1982 1.478 . S
C1984 C1986 1.381 . S
C1984 C1990 1.383 . S
C1985 C1981 1.495 . S
C1985 H1991 0.959 . S
C1985 H1992 0.961 1_554 S
C1985 H1993 0.960 . S
C1986 C1984 1.381 . S
C1986 C1987 1.394 . S
C1986 H1994 0.930 . S
C1987 C1986 1.394 . S
C1987 C1988 1.383 . S
C1987 H1995 0.929 . S
C1988 C1987 1.383 . S
C1988 C1989 1.377 . S
C1989 H1973 0.930 . S
C1989 C1988 1.377 . S
C1989 C1990 1.379 . S
C1990 H1974 0.931 . S
C1990 C1984 1.383 . S
C1990 C1989 1.379 . S
H1991 C1985 0.959 . S
H1992 C1985 0.961 1_556 S
H1993 C1985 0.960 . S
H1994 C1986 0.930 . S
H1995 C1987 0.929 . S
H1996 C2004 0.929 . S
H1997 C2006 0.930 . S
H1998 C2008 0.930 . S
H1999 C2011 0.929 . S
H2000 C2014 0.930 . S
H2001 C2016 0.960 . S
H2002 C2016 0.960 . S
H2003 C2016 0.960 . S
C2004 H1996 0.929 . S
C2004 C2005 1.377 . S
C2004 C2006 1.384 . S
C2005 C2004 1.377 . S
C2005 C2011 1.390 . S
C2006 H1997 0.930 . S
C2006 C2004 1.384 . S
C2006 C2007 1.372 . S
C2007 C2006 1.372 . S
C2007 C2008 1.400 . S
C2007 C2012 1.490 . S
C2008 H1998 0.930 . S
C2008 C2007 1.400 . S
C2008 C2011 1.386 . S
H2009 C2025 0.930 . S
H2010 C2026 0.931 . S
C2011 H1999 0.929 . S
C2011 C2005 1.390 . S
C2011 C2008 1.386 . S
C2012 C2007 1.490 . S
C2012 C2014 1.395 . S
C2012 C2015 1.403 . S
H2013 C2019 0.930 . S
C2014 H2000 0.930 . S
C2014 C2012 1.395 . S
C2014 C2017 1.403 . S
C2015 C2012 1.403 . S
C2015 C2016 1.524 . S
C2015 C2019 1.400 . S
C2016 H2001 0.960 . S
C2016 H2002 0.960 . S
C2016 H2003 0.960 . S
C2016 C2015 1.524 . S
C2017 C2014 1.403 . S
C2017 C2018 1.392 . S
C2017 C2021 1.495 . S
C2018 C2017 1.392 . S
C2018 C2019 1.385 . S
C2018 C2020 1.478 . S
C2019 H2013 0.930 . S
C2019 C2015 1.400 . S
C2019 C2018 1.385 . S
C2020 C2018 1.478 . S
C2020 C2022 1.381 . S
C2020 C2026 1.383 . S
C2021 C2017 1.495 . S
C2021 H2027 0.959 . S
C2021 H2028 0.961 . S
C2021 H2029 0.960 . S
C2022 C2020 1.381 . S
C2022 C2023 1.394 . S
C2022 H2030 0.930 . S
C2023 C2022 1.394 . S
C2023 C2024 1.383 . S
C2023 H2031 0.929 . S
C2024 C2023 1.383 . S
C2024 C2025 1.377 . S
C2025 H2009 0.930 . S
C2025 C2024 1.377 . S
C2025 C2026 1.379 . S
C2026 H2010 0.931 . S
C2026 C2020 1.383 . S
C2026 C2025 1.379 . S
H2027 C2021 0.959 . S
H2028 C2021 0.961 . S
H2029 C2021 0.960 . S
H2030 C2022 0.930 . S
H2031 C2023 0.929 . S
H2032 C2040 0.929 . S
H2033 C2042 0.930 . S
H2034 C2044 0.930 . S
H2035 C2047 0.929 . S
H2036 C2050 0.930 . S
H2037 C2052 0.960 . S
H2038 C2052 0.960 . S
H2039 C2052 0.960 1_545 S
C2040 H2032 0.929 . S
C2040 C2041 1.377 . S
C2040 C2042 1.384 . S
C2041 C2040 1.377 . S
C2041 C2047 1.390 . S
C2042 H2033 0.930 . S
C2042 C2040 1.384 . S
C2042 C2043 1.372 . S
C2043 C2042 1.372 . S
C2043 C2044 1.400 . S
C2043 C2048 1.490 . S
C2044 H2034 0.930 . S
C2044 C2043 1.400 . S
C2044 C2047 1.386 . S
H2045 C2061 0.930 . S
H2046 C2062 0.931 . S
C2047 H2035 0.929 . S
C2047 C2041 1.390 . S
C2047 C2044 1.386 . S
C2048 C2043 1.490 . S
C2048 C2050 1.395 . S
C2048 C2051 1.403 1_545 S
H2049 C2055 0.930 . S
C2050 H2036 0.930 . S
C2050 C2048 1.395 . S
C2050 C2053 1.403 . S
C2051 C2048 1.403 1_565 S
C2051 C2052 1.524 . S
C2051 C2055 1.400 . S
C2052 H2037 0.960 . S
C2052 H2038 0.960 . S
C2052 H2039 0.960 1_565 S
C2052 C2051 1.524 . S
C2053 C2050 1.403 . S
C2053 C2054 1.392 1_545 S
C2053 C2057 1.495 . S
C2054 C2053 1.392 1_565 S
C2054 C2055 1.385 . S
C2054 C2056 1.478 . S
C2055 H2049 0.930 . S
C2055 C2051 1.400 . S
C2055 C2054 1.385 . S
C2056 C2054 1.478 . S
C2056 C2058 1.381 . S
C2056 C2062 1.383 . S
C2057 C2053 1.495 . S
C2057 H2063 0.959 . S
C2057 H2064 0.961 . S
C2057 H2065 0.960 1_545 S
C2058 C2056 1.381 . S
C2058 C2059 1.394 . S
C2058 H2066 0.930 . S
C2059 C2058 1.394 . S
C2059 C2060 1.383 . S
C2059 H2067 0.929 . S
C2060 C2059 1.383 . S
C2060 C2061 1.377 . S
C2061 H2045 0.930 . S
C2061 C2060 1.377 . S
C2061 C2062 1.379 . S
C2062 H2046 0.931 . S
C2062 C2056 1.383 . S
C2062 C2061 1.379 . S
H2063 C2057 0.959 . S
H2064 C2057 0.961 . S
H2065 C2057 0.960 1_565 S
H2066 C2058 0.930 . S
H2067 C2059 0.929 . S
H2068 C2076 0.929 . S
H2069 C2078 0.930 . S
H2070 C2080 0.930 . S
H2071 C2083 0.929 . S
H2072 C2086 0.930 . S
H2073 C2088 0.960 . S
H2074 C2088 0.960 . S
H2075 C2088 0.960 . S
C2076 H2068 0.929 . S
C2076 C2077 1.377 . S
C2076 C2078 1.384 . S
C2077 C2076 1.377 . S
C2077 C2083 1.390 . S
C2078 H2069 0.930 . S
C2078 C2076 1.384 . S
C2078 C2079 1.372 . S
C2079 C2078 1.372 . S
C2079 C2080 1.400 . S
C2079 C2084 1.490 . S
C2080 H2070 0.930 . S
C2080 C2079 1.400 . S
C2080 C2083 1.386 . S
H2081 C2097 0.930 . S
H2082 C2098 0.931 . S
C2083 H2071 0.929 . S
C2083 C2077 1.390 . S
C2083 C2080 1.386 . S
C2084 C2079 1.490 . S
C2084 C2086 1.395 . S
C2084 C2087 1.403 . S
H2085 C2091 0.930 . S
C2086 H2072 0.930 . S
C2086 C2084 1.395 . S
C2086 C2089 1.403 . S
C2087 C2084 1.403 . S
C2087 C2088 1.524 . S
C2087 C2091 1.400 . S
C2088 H2073 0.960 . S
C2088 H2074 0.960 . S
C2088 H2075 0.960 . S
C2088 C2087 1.524 . S
C2089 C2086 1.403 . S
C2089 C2090 1.392 . S
C2089 C2093 1.495 . S
C2090 C2089 1.392 . S
C2090 C2091 1.385 . S
C2090 C2092 1.478 . S
C2091 H2085 0.930 . S
C2091 C2087 1.400 . S
C2091 C2090 1.385 . S
C2092 C2090 1.478 . S
C2092 C2094 1.381 . S
C2092 C2098 1.383 . S
C2093 C2089 1.495 . S
C2093 H2099 0.959 . S
C2093 H2100 0.961 . S
C2093 H2101 0.960 . S
C2094 C2092 1.381 . S
C2094 C2095 1.394 . S
C2094 H2102 0.930 . S
C2095 C2094 1.394 . S
C2095 C2096 1.383 . S
C2095 H2103 0.929 . S
C2096 C2095 1.383 . S
C2096 C2097 1.377 . S
C2097 H2081 0.930 . S
C2097 C2096 1.377 . S
C2097 C2098 1.379 . S
C2098 H2082 0.931 . S
C2098 C2092 1.383 . S
C2098 C2097 1.379 . S
H2099 C2093 0.959 . S
H2100 C2093 0.961 . S
H2101 C2093 0.960 . S
H2102 C2094 0.930 . S
H2103 C2095 0.929 . S
H2104 C2112 0.929 . S
H2105 C2114 0.930 . S
H2106 C2116 0.930 . S
H2107 C2119 0.929 . S
H2108 C2122 0.930 . S
H2109 C2124 0.960 . S
H2110 C2124 0.960 . S
H2111 C2124 0.960 . S
C2112 H2104 0.929 . S
C2112 C2113 1.377 . S
C2112 C2114 1.384 . S
C2113 C2112 1.377 . S
C2113 C2119 1.390 . S
C2114 H2105 0.930 . S
C2114 C2112 1.384 . S
C2114 C2115 1.372 . S
C2115 C2114 1.372 . S
C2115 C2116 1.400 . S
C2115 C2120 1.490 . S
C2116 H2106 0.930 . S
C2116 C2115 1.400 . S
C2116 C2119 1.386 . S
H2117 C2133 0.930 . S
H2118 C2134 0.931 . S
C2119 H2107 0.929 . S
C2119 C2113 1.390 . S
C2119 C2116 1.386 . S
C2120 C2115 1.490 . S
C2120 C2122 1.395 1_554 S
C2120 C2123 1.403 1_565 S
H2121 C2127 0.930 . S
C2122 H2108 0.930 . S
C2122 C2120 1.395 1_556 S
C2122 C2125 1.403 . S
C2123 C2120 1.403 1_545 S
C2123 C2124 1.524 . S
C2123 C2127 1.400 . S
C2124 H2109 0.960 . S
C2124 H2110 0.960 . S
C2124 H2111 0.960 . S
C2124 C2123 1.524 . S
C2125 C2122 1.403 . S
C2125 C2126 1.392 1_565 S
C2125 C2129 1.495 . S
C2126 C2125 1.392 1_545 S
C2126 C2127 1.385 1_556 S
C2126 C2128 1.478 . S
C2127 H2121 0.930 . S
C2127 C2123 1.400 . S
C2127 C2126 1.385 1_554 S
C2128 C2126 1.478 . S
C2128 C2130 1.381 . S
C2128 C2134 1.383 . S
C2129 C2125 1.495 . S
C2129 H2135 0.959 . S
C2129 H2136 0.961 . S
C2129 H2137 0.960 . S
C2130 C2128 1.381 . S
C2130 C2131 1.394 . S
C2130 H2138 0.930 . S
C2131 C2130 1.394 . S
C2131 C2132 1.383 . S
C2131 H2139 0.929 . S
C2132 C2131 1.383 . S
C2132 C2133 1.377 . S
C2133 H2117 0.930 . S
C2133 C2132 1.377 . S
C2133 C2134 1.379 . S
C2134 H2118 0.931 . S
C2134 C2128 1.383 . S
C2134 C2133 1.379 . S
H2135 C2129 0.959 . S
H2136 C2129 0.961 . S
H2137 C2129 0.960 . S
H2138 C2130 0.930 . S
H2139 C2131 0.929 . S
H2140 C2148 0.929 . S
H2141 C2150 0.930 . S
H2142 C2152 0.930 . S
H2143 C2155 0.929 . S
H2144 C2158 0.930 . S
H2145 C2160 0.960 . S
H2146 C2160 0.960 . S
H2147 C2160 0.960 . S
C2148 H2140 0.929 . S
C2148 C2149 1.377 . S
C2148 C2150 1.384 . S
C2149 C2148 1.377 . S
C2149 C2155 1.390 . S
C2150 H2141 0.930 . S
C2150 C2148 1.384 . S
C2150 C2151 1.372 . S
C2151 C2150 1.372 . S
C2151 C2152 1.400 . S
C2151 C2156 1.490 . S
C2152 H2142 0.930 . S
C2152 C2151 1.400 . S
C2152 C2155 1.386 . S
H2153 C2169 0.930 . S
H2154 C2170 0.931 . S
C2155 H2143 0.929 . S
C2155 C2149 1.390 . S
C2155 C2152 1.386 . S
C2156 C2151 1.490 . S
C2156 C2158 1.395 . S
C2156 C2159 1.403 . S
H2157 C2163 0.930 . S
C2158 H2144 0.930 . S
C2158 C2156 1.395 . S
C2158 C2161 1.403 . S
C2159 C2156 1.403 . S
C2159 C2160 1.524 . S
C2159 C2163 1.400 . S
C2160 H2145 0.960 . S
C2160 H2146 0.960 . S
C2160 H2147 0.960 . S
C2160 C2159 1.524 . S
C2161 C2158 1.403 . S
C2161 C2162 1.392 . S
C2161 C2165 1.495 . S
C2162 C2161 1.392 . S
C2162 C2163 1.385 . S
C2162 C2164 1.478 . S
C2163 H2157 0.930 . S
C2163 C2159 1.400 . S
C2163 C2162 1.385 . S
C2164 C2162 1.478 . S
C2164 C2166 1.381 . S
C2164 C2170 1.383 . S
C2165 C2161 1.495 . S
C2165 H2171 0.959 . S
C2165 H2172 0.961 . S
C2165 H2173 0.960 . S
C2166 C2164 1.381 . S
C2166 C2167 1.394 . S
C2166 H2174 0.930 . S
C2167 C2166 1.394 . S
C2167 C2168 1.383 . S
C2167 H2175 0.929 . S
C2168 C2167 1.383 . S
C2168 C2169 1.377 . S
C2169 H2153 0.930 . S
C2169 C2168 1.377 . S
C2169 C2170 1.379 . S
C2170 H2154 0.931 . S
C2170 C2164 1.383 . S
C2170 C2169 1.379 . S
H2171 C2165 0.959 . S
H2172 C2165 0.961 . S
H2173 C2165 0.960 . S
H2174 C2166 0.930 . S
H2175 C2167 0.929 . S
H2176 C2184 0.929 . S
H2177 C2186 0.930 . S
H2178 C2188 0.930 . S
H2179 C2191 0.929 . S
H2180 C2194 0.930 . S
H2181 C2196 0.960 . S
H2182 C2196 0.960 . S
H2183 C2196 0.960 . S
C2184 H2176 0.929 . S
C2184 C2185 1.377 . S
C2184 C2186 1.384 . S
C2185 C2184 1.377 . S
C2185 C2191 1.390 . S
C2186 H2177 0.930 . S
C2186 C2184 1.384 . S
C2186 C2187 1.372 . S
C2187 C2186 1.372 . S
C2187 C2188 1.400 . S
C2187 C2192 1.490 . S
C2188 H2178 0.930 . S
C2188 C2187 1.400 . S
C2188 C2191 1.386 . S
H2189 C2205 0.930 . S
H2190 C2206 0.931 . S
C2191 H2179 0.929 . S
C2191 C2185 1.390 . S
C2191 C2188 1.386 . S
C2192 C2187 1.490 . S
C2192 C2194 1.395 . S
C2192 C2195 1.403 . S
H2193 C2199 0.930 . S
C2194 H2180 0.930 . S
C2194 C2192 1.395 . S
C2194 C2197 1.403 . S
C2195 C2192 1.403 . S
C2195 C2196 1.524 . S
C2195 C2199 1.400 . S
C2196 H2181 0.960 . S
C2196 H2182 0.960 . S
C2196 H2183 0.960 . S
C2196 C2195 1.524 . S
C2197 C2194 1.403 . S
C2197 C2198 1.392 . S
C2197 C2201 1.495 . S
C2198 C2197 1.392 . S
C2198 C2199 1.385 . S
C2198 C2200 1.478 . S
C2199 H2193 0.930 . S
C2199 C2195 1.400 . S
C2199 C2198 1.385 . S
C2200 C2198 1.478 . S
C2200 C2202 1.381 . S
C2200 C2206 1.383 . S
C2201 C2197 1.495 . S
C2201 H2207 0.959 . S
C2201 H2208 0.961 . S
C2201 H2209 0.960 . S
C2202 C2200 1.381 . S
C2202 C2203 1.394 . S
C2202 H2210 0.930 . S
C2203 C2202 1.394 . S
C2203 C2204 1.383 . S
C2203 H2211 0.929 . S
C2204 C2203 1.383 . S
C2204 C2205 1.377 . S
C2205 H2189 0.930 . S
C2205 C2204 1.377 . S
C2205 C2206 1.379 . S
C2206 H2190 0.931 . S
C2206 C2200 1.383 . S
C2206 C2205 1.379 . S
H2207 C2201 0.959 . S
H2208 C2201 0.961 . S
H2209 C2201 0.960 . S
H2210 C2202 0.930 . S
H2211 C2203 0.929 . S
H2212 C2220 0.929 . S
H2213 C2222 0.930 . S
H2214 C2224 0.930 . S
H2215 C2227 0.929 . S
H2216 C2230 0.930 . S
H2217 C2232 0.960 . S
H2218 C2232 0.960 . S
H2219 C2232 0.960 . S
C2220 H2212 0.929 . S
C2220 C2221 1.377 . S
C2220 C2222 1.384 . S
C2221 C2220 1.377 . S
C2221 C2227 1.390 . S
C2222 H2213 0.930 . S
C2222 C2220 1.384 . S
C2222 C2223 1.372 . S
C2223 C2222 1.372 . S
C2223 C2224 1.400 . S
C2223 C2228 1.490 . S
C2224 H2214 0.930 . S
C2224 C2223 1.400 . S
C2224 C2227 1.386 . S
H2225 C2241 0.930 . S
H2226 C2242 0.931 . S
C2227 H2215 0.929 . S
C2227 C2221 1.390 . S
C2227 C2224 1.386 . S
C2228 C2223 1.490 . S
C2228 C2230 1.395 . S
C2228 C2231 1.403 . S
H2229 C2235 0.930 . S
C2230 H2216 0.930 . S
C2230 C2228 1.395 . S
C2230 C2233 1.403 . S
C2231 C2228 1.403 . S
C2231 C2232 1.524 . S
C2231 C2235 1.400 . S
C2232 H2217 0.960 . S
C2232 H2218 0.960 . S
C2232 H2219 0.960 . S
C2232 C2231 1.524 . S
C2233 C2230 1.403 . S
C2233 C2234 1.392 . S
C2233 C2237 1.495 . S
C2234 C2233 1.392 . S
C2234 C2235 1.385 . S
C2234 C2236 1.478 . S
C2235 H2229 0.930 . S
C2235 C2231 1.400 . S
C2235 C2234 1.385 . S
C2236 C2234 1.478 . S
C2236 C2238 1.381 . S
C2236 C2242 1.383 . S
C2237 C2233 1.495 . S
C2237 H2243 0.959 . S
C2237 H2244 0.961 . S
C2237 H2245 0.960 . S
C2238 C2236 1.381 . S
C2238 C2239 1.394 . S
C2238 H2246 0.930 . S
C2239 C2238 1.394 . S
C2239 C2240 1.383 . S
C2239 H2247 0.929 . S
C2240 C2239 1.383 . S
C2240 C2241 1.377 . S
C2241 H2225 0.930 . S
C2241 C2240 1.377 . S
C2241 C2242 1.379 . S
C2242 H2226 0.931 . S
C2242 C2236 1.383 . S
C2242 C2241 1.379 . S
H2243 C2237 0.959 . S
H2244 C2237 0.961 . S
H2245 C2237 0.960 . S
H2246 C2238 0.930 . S
H2247 C2239 0.929 . S
H2248 C2256 0.929 . S
H2249 C2258 0.930 . S
H2250 C2260 0.930 . S
H2251 C2263 0.929 . S
H2252 C2266 0.930 . S
H2253 C2268 0.960 . S
H2254 C2268 0.960 . S
H2255 C2268 0.960 . S
C2256 H2248 0.929 . S
C2256 C2257 1.377 . S
C2256 C2258 1.384 . S
C2257 C2256 1.377 . S
C2257 C2263 1.390 . S
C2258 H2249 0.930 . S
C2258 C2256 1.384 . S
C2258 C2259 1.372 . S
C2259 C2258 1.372 . S
C2259 C2260 1.400 . S
C2259 C2264 1.490 . S
C2260 H2250 0.930 . S
C2260 C2259 1.400 . S
C2260 C2263 1.386 . S
H2261 C2277 0.930 . S
H2262 C2278 0.931 . S
C2263 H2251 0.929 . S
C2263 C2257 1.390 . S
C2263 C2260 1.386 . S
C2264 C2259 1.490 . S
C2264 C2266 1.395 . S
C2264 C2267 1.403 . S
H2265 C2271 0.930 . S
C2266 H2252 0.930 . S
C2266 C2264 1.395 . S
C2266 C2269 1.403 . S
C2267 C2264 1.403 . S
C2267 C2268 1.524 . S
C2267 C2271 1.400 . S
C2268 H2253 0.960 . S
C2268 H2254 0.960 . S
C2268 H2255 0.960 . S
C2268 C2267 1.524 . S
C2269 C2266 1.403 . S
C2269 C2270 1.392 . S
C2269 C2273 1.495 . S
C2270 C2269 1.392 . S
C2270 C2271 1.385 . S
C2270 C2272 1.478 . S
C2271 H2265 0.930 . S
C2271 C2267 1.400 . S
C2271 C2270 1.385 . S
C2272 C2270 1.478 . S
C2272 C2274 1.381 . S
C2272 C2278 1.383 . S
C2273 C2269 1.495 . S
C2273 H2279 0.959 . S
C2273 H2280 0.961 . S
C2273 H2281 0.960 . S
C2274 C2272 1.381 . S
C2274 C2275 1.394 . S
C2274 H2282 0.930 . S
C2275 C2274 1.394 . S
C2275 C2276 1.383 . S
C2275 H2283 0.929 . S
C2276 C2275 1.383 . S
C2276 C2277 1.377 . S
C2277 H2261 0.930 . S
C2277 C2276 1.377 . S
C2277 C2278 1.379 . S
C2278 H2262 0.931 . S
C2278 C2272 1.383 . S
C2278 C2277 1.379 . S
H2279 C2273 0.959 . S
H2280 C2273 0.961 . S
H2281 C2273 0.960 . S
H2282 C2274 0.930 . S
H2283 C2275 0.929 . S
H2284 C2292 0.929 . S
H2285 C2294 0.930 . S
H2286 C2296 0.930 . S
H2287 C2299 0.929 . S
H2288 C2302 0.930 . S
H2289 C2304 0.960 . S
H2290 C2304 0.960 . S
H2291 C2304 0.960 . S
C2292 H2284 0.929 . S
C2292 C2293 1.377 . S
C2292 C2294 1.384 . S
C2293 C2292 1.377 . S
C2293 C2299 1.390 . S
C2294 H2285 0.930 . S
C2294 C2292 1.384 . S
C2294 C2295 1.372 . S
C2295 C2294 1.372 . S
C2295 C2296 1.400 . S
C2295 C2300 1.490 . S
C2296 H2286 0.930 . S
C2296 C2295 1.400 . S
C2296 C2299 1.386 . S
H2297 C2313 0.930 . S
H2298 C2314 0.931 . S
C2299 H2287 0.929 . S
C2299 C2293 1.390 . S
C2299 C2296 1.386 . S
C2300 C2295 1.490 . S
C2300 C2302 1.395 . S
C2300 C2303 1.403 . S
H2301 C2307 0.930 . S
C2302 H2288 0.930 . S
C2302 C2300 1.395 . S
C2302 C2305 1.403 1_655 S
C2303 C2300 1.403 . S
C2303 C2304 1.524 . S
C2303 C2307 1.400 1_655 S
C2304 H2289 0.960 . S
C2304 H2290 0.960 . S
C2304 H2291 0.960 . S
C2304 C2303 1.524 . S
C2305 C2302 1.403 1_455 S
C2305 C2306 1.392 . S
C2305 C2309 1.495 . S
C2306 C2305 1.392 . S
C2306 C2307 1.385 . S
C2306 C2308 1.478 . S
C2307 H2301 0.930 . S
C2307 C2303 1.400 1_455 S
C2307 C2306 1.385 . S
C2308 C2306 1.478 . S
C2308 C2310 1.381 . S
C2308 C2314 1.383 . S
C2309 C2305 1.495 . S
C2309 H2315 0.959 . S
C2309 H2316 0.961 . S
C2309 H2317 0.960 . S
C2310 C2308 1.381 . S
C2310 C2311 1.394 . S
C2310 H2318 0.930 . S
C2311 C2310 1.394 . S
C2311 C2312 1.383 . S
C2311 H2319 0.929 . S
C2312 C2311 1.383 . S
C2312 C2313 1.377 . S
C2313 H2297 0.930 . S
C2313 C2312 1.377 . S
C2313 C2314 1.379 . S
C2314 H2298 0.931 . S
C2314 C2308 1.383 . S
C2314 C2313 1.379 . S
H2315 C2309 0.959 . S
H2316 C2309 0.961 . S
H2317 C2309 0.960 . S
H2318 C2310 0.930 . S
H2319 C2311 0.929 . S
H2320 C2328 0.929 . S
H2321 C2330 0.930 . S
H2322 C2332 0.930 . S
H2323 C2335 0.929 . S
H2324 C2338 0.930 . S
H2325 C2340 0.960 . S
H2326 C2340 0.960 . S
H2327 C2340 0.960 . S
C2328 H2320 0.929 . S
C2328 C2329 1.377 . S
C2328 C2330 1.384 . S
C2329 C2328 1.377 . S
C2329 C2335 1.390 . S
C2330 H2321 0.930 . S
C2330 C2328 1.384 . S
C2330 C2331 1.372 . S
C2331 C2330 1.372 . S
C2331 C2332 1.400 . S
C2331 C2336 1.490 . S
C2332 H2322 0.930 . S
C2332 C2331 1.400 . S
C2332 C2335 1.386 . S
H2333 C2349 0.930 . S
H2334 C2350 0.931 . S
C2335 H2323 0.929 . S
C2335 C2329 1.390 . S
C2335 C2332 1.386 . S
C2336 C2331 1.490 . S
C2336 C2338 1.395 . S
C2336 C2339 1.403 . S
H2337 C2343 0.930 . S
C2338 H2324 0.930 . S
C2338 C2336 1.395 . S
C2338 C2341 1.403 . S
C2339 C2336 1.403 . S
C2339 C2340 1.524 . S
C2339 C2343 1.400 . S
C2340 H2325 0.960 . S
C2340 H2326 0.960 . S
C2340 H2327 0.960 . S
C2340 C2339 1.524 . S
C2341 C2338 1.403 . S
C2341 C2342 1.392 . S
C2341 C2345 1.495 . S
C2342 C2341 1.392 . S
C2342 C2343 1.385 . S
C2342 C2344 1.478 . S
C2343 H2337 0.930 . S
C2343 C2339 1.400 . S
C2343 C2342 1.385 . S
C2344 C2342 1.478 . S
C2344 C2346 1.381 . S
C2344 C2350 1.383 . S
C2345 C2341 1.495 . S
C2345 H2351 0.959 . S
C2345 H2352 0.961 . S
C2345 H2353 0.960 . S
C2346 C2344 1.381 . S
C2346 C2347 1.394 . S
C2346 H2354 0.930 . S
C2347 C2346 1.394 . S
C2347 C2348 1.383 . S
C2347 H2355 0.929 . S
C2348 C2347 1.383 . S
C2348 C2349 1.377 . S
C2349 H2333 0.930 . S
C2349 C2348 1.377 . S
C2349 C2350 1.379 . S
C2350 H2334 0.931 . S
C2350 C2344 1.383 . S
C2350 C2349 1.379 . S
H2351 C2345 0.959 . S
H2352 C2345 0.961 . S
H2353 C2345 0.960 . S
H2354 C2346 0.930 . S
H2355 C2347 0.929 . S
H2356 C2364 0.929 . S
H2357 C2366 0.930 . S
H2358 C2368 0.930 . S
H2359 C2371 0.929 . S
H2360 C2374 0.930 . S
H2361 C2376 0.960 . S
H2362 C2376 0.960 . S
H2363 C2376 0.960 . S
C2364 H2356 0.929 . S
C2364 C2365 1.377 . S
C2364 C2366 1.384 . S
C2365 C2364 1.377 . S
C2365 C2371 1.390 . S
C2366 H2357 0.930 . S
C2366 C2364 1.384 . S
C2366 C2367 1.372 . S
C2367 C2366 1.372 . S
C2367 C2368 1.400 . S
C2367 C2372 1.490 . S
C2368 H2358 0.930 . S
C2368 C2367 1.400 . S
C2368 C2371 1.386 . S
H2369 C2385 0.930 . S
H2370 C2386 0.931 . S
C2371 H2359 0.929 . S
C2371 C2365 1.390 . S
C2371 C2368 1.386 . S
C2372 C2367 1.490 . S
C2372 C2374 1.395 . S
C2372 C2375 1.403 . S
H2373 C2379 0.930 . S
C2374 H2360 0.930 . S
C2374 C2372 1.395 . S
C2374 C2377 1.403 1_655 S
C2375 C2372 1.403 . S
C2375 C2376 1.524 . S
C2375 C2379 1.400 1_655 S
C2376 H2361 0.960 . S
C2376 H2362 0.960 . S
C2376 H2363 0.960 . S
C2376 C2375 1.524 . S
C2377 C2374 1.403 1_455 S
C2377 C2378 1.392 . S
C2377 C2381 1.495 . S
C2378 C2377 1.392 . S
C2378 C2379 1.385 . S
C2378 C2380 1.478 . S
C2379 H2373 0.930 . S
C2379 C2375 1.400 1_455 S
C2379 C2378 1.385 . S
C2380 C2378 1.478 . S
C2380 C2382 1.381 . S
C2380 C2386 1.383 . S
C2381 C2377 1.495 . S
C2381 H2387 0.959 . S
C2381 H2388 0.961 . S
C2381 H2389 0.960 . S
C2382 C2380 1.381 . S
C2382 C2383 1.394 . S
C2382 H2390 0.930 . S
C2383 C2382 1.394 . S
C2383 C2384 1.383 . S
C2383 H2391 0.929 . S
C2384 C2383 1.383 . S
C2384 C2385 1.377 . S
C2385 H2369 0.930 . S
C2385 C2384 1.377 . S
C2385 C2386 1.379 . S
C2386 H2370 0.931 . S
C2386 C2380 1.383 . S
C2386 C2385 1.379 . S
H2387 C2381 0.959 . S
H2388 C2381 0.961 . S
H2389 C2381 0.960 . S
H2390 C2382 0.930 . S
H2391 C2383 0.929 . S
H2392 C2400 0.929 . S
H2393 C2402 0.930 . S
H2394 C2404 0.930 . S
H2395 C2407 0.929 . S
H2396 C2410 0.930 . S
H2397 C2412 0.960 . S
H2398 C2412 0.960 . S
H2399 C2412 0.960 . S
C2400 H2392 0.929 . S
C2400 C2401 1.377 . S
C2400 C2402 1.384 . S
C2401 C2400 1.377 . S
C2401 C2407 1.390 . S
C2402 H2393 0.930 . S
C2402 C2400 1.384 . S
C2402 C2403 1.372 . S
C2403 C2402 1.372 . S
C2403 C2404 1.400 . S
C2403 C2408 1.490 . S
C2404 H2394 0.930 . S
C2404 C2403 1.400 . S
C2404 C2407 1.386 . S
H2405 C2421 0.930 . S
H2406 C2422 0.931 . S
C2407 H2395 0.929 . S
C2407 C2401 1.390 . S
C2407 C2404 1.386 . S
C2408 C2403 1.490 . S
C2408 C2410 1.395 . S
C2408 C2411 1.403 . S
H2409 C2415 0.930 . S
C2410 H2396 0.930 . S
C2410 C2408 1.395 . S
C2410 C2413 1.403 . S
C2411 C2408 1.403 . S
C2411 C2412 1.524 . S
C2411 C2415 1.400 . S
C2412 H2397 0.960 . S
C2412 H2398 0.960 . S
C2412 H2399 0.960 . S
C2412 C2411 1.524 . S
C2413 C2410 1.403 . S
C2413 C2414 1.392 . S
C2413 C2417 1.495 . S
C2414 C2413 1.392 . S
C2414 C2415 1.385 . S
C2414 C2416 1.478 . S
C2415 H2409 0.930 . S
C2415 C2411 1.400 . S
C2415 C2414 1.385 . S
C2416 C2414 1.478 . S
C2416 C2418 1.381 . S
C2416 C2422 1.383 . S
C2417 C2413 1.495 . S
C2417 H2423 0.959 . S
C2417 H2424 0.961 . S
C2417 H2425 0.960 . S
C2418 C2416 1.381 . S
C2418 C2419 1.394 . S
C2418 H2426 0.930 . S
C2419 C2418 1.394 . S
C2419 C2420 1.383 . S
C2419 H2427 0.929 . S
C2420 C2419 1.383 . S
C2420 C2421 1.377 . S
C2421 H2405 0.930 . S
C2421 C2420 1.377 . S
C2421 C2422 1.379 . S
C2422 H2406 0.931 . S
C2422 C2416 1.383 . S
C2422 C2421 1.379 . S
H2423 C2417 0.959 . S
H2424 C2417 0.961 . S
H2425 C2417 0.960 . S
H2426 C2418 0.930 . S
H2427 C2419 0.929 . S
H2428 C2436 0.929 . S
H2429 C2438 0.930 . S
H2430 C2440 0.930 . S
H2431 C2443 0.929 . S
H2432 C2446 0.930 . S
H2433 C2448 0.960 . S
H2434 C2448 0.960 . S
H2435 C2448 0.960 . S
C2436 H2428 0.929 . S
C2436 C2437 1.377 . S
C2436 C2438 1.384 . S
C2437 C2436 1.377 . S
C2437 C2443 1.390 . S
C2438 H2429 0.930 . S
C2438 C2436 1.384 . S
C2438 C2439 1.372 . S
C2439 C2438 1.372 . S
C2439 C2440 1.400 . S
C2439 C2444 1.490 . S
C2440 H2430 0.930 . S
C2440 C2439 1.400 . S
C2440 C2443 1.386 . S
H2441 C2457 0.930 . S
H2442 C2458 0.931 . S
C2443 H2431 0.929 . S
C2443 C2437 1.390 . S
C2443 C2440 1.386 . S
C2444 C2439 1.490 . S
C2444 C2446 1.395 . S
C2444 C2447 1.403 . S
H2445 C2451 0.930 . S
C2446 H2432 0.930 . S
C2446 C2444 1.395 . S
C2446 C2449 1.403 . S
C2447 C2444 1.403 . S
C2447 C2448 1.524 . S
C2447 C2451 1.400 . S
C2448 H2433 0.960 . S
C2448 H2434 0.960 . S
C2448 H2435 0.960 . S
C2448 C2447 1.524 . S
C2449 C2446 1.403 . S
C2449 C2450 1.392 . S
C2449 C2453 1.495 . S
C2450 C2449 1.392 . S
C2450 C2451 1.385 . S
C2450 C2452 1.478 . S
C2451 H2445 0.930 . S
C2451 C2447 1.400 . S
C2451 C2450 1.385 . S
C2452 C2450 1.478 . S
C2452 C2454 1.381 . S
C2452 C2458 1.383 . S
C2453 C2449 1.495 . S
C2453 H2459 0.959 . S
C2453 H2460 0.961 . S
C2453 H2461 0.960 . S
C2454 C2452 1.381 . S
C2454 C2455 1.394 . S
C2454 H2462 0.930 . S
C2455 C2454 1.394 . S
C2455 C2456 1.383 . S
C2455 H2463 0.929 . S
C2456 C2455 1.383 . S
C2456 C2457 1.377 . S
C2457 H2441 0.930 . S
C2457 C2456 1.377 . S
C2457 C2458 1.379 . S
C2458 H2442 0.931 . S
C2458 C2452 1.383 . S
C2458 C2457 1.379 . S
H2459 C2453 0.959 . S
H2460 C2453 0.961 . S
H2461 C2453 0.960 . S
H2462 C2454 0.930 . S
H2463 C2455 0.929 . S
H2464 C2472 0.929 . S
H2465 C2474 0.930 . S
H2466 C2476 0.930 . S
H2467 C2479 0.929 . S
H2468 C2482 0.930 . S
H2469 C2484 0.960 . S
H2470 C2484 0.960 . S
H2471 C2484 0.960 . S
C2472 H2464 0.929 . S
C2472 C2473 1.377 . S
C2472 C2474 1.384 . S
C2473 C2472 1.377 . S
C2473 C2479 1.390 . S
C2474 H2465 0.930 . S
C2474 C2472 1.384 . S
C2474 C2475 1.372 . S
C2475 C2474 1.372 . S
C2475 C2476 1.400 . S
C2475 C2480 1.490 . S
C2476 H2466 0.930 . S
C2476 C2475 1.400 . S
C2476 C2479 1.386 . S
H2477 C2493 0.930 . S
H2478 C2494 0.931 . S
C2479 H2467 0.929 . S
C2479 C2473 1.390 . S
C2479 C2476 1.386 . S
C2480 C2475 1.490 . S
C2480 C2482 1.395 . S
C2480 C2483 1.403 . S
H2481 C2487 0.930 . S
C2482 H2468 0.930 . S
C2482 C2480 1.395 . S
C2482 C2485 1.403 . S
C2483 C2480 1.403 . S
C2483 C2484 1.524 . S
C2483 C2487 1.400 . S
C2484 H2469 0.960 . S
C2484 H2470 0.960 . S
C2484 H2471 0.960 . S
C2484 C2483 1.524 . S
C2485 C2482 1.403 . S
C2485 C2486 1.392 . S
C2485 C2489 1.495 . S
C2486 C2485 1.392 . S
C2486 C2487 1.385 . S
C2486 C2488 1.478 . S
C2487 H2481 0.930 . S
C2487 C2483 1.400 . S
C2487 C2486 1.385 . S
C2488 C2486 1.478 . S
C2488 C2490 1.381 . S
C2488 C2494 1.383 . S
C2489 C2485 1.495 . S
C2489 H2495 0.959 . S
C2489 H2496 0.961 . S
C2489 H2497 0.960 . S
C2490 C2488 1.381 . S
C2490 C2491 1.394 . S
C2490 H2498 0.930 . S
C2491 C2490 1.394 . S
C2491 C2492 1.383 . S
C2491 H2499 0.929 . S
C2492 C2491 1.383 . S
C2492 C2493 1.377 . S
C2493 H2477 0.930 . S
C2493 C2492 1.377 . S
C2493 C2494 1.379 . S
C2494 H2478 0.931 . S
C2494 C2488 1.383 . S
C2494 C2493 1.379 . S
H2495 C2489 0.959 . S
H2496 C2489 0.961 . S
H2497 C2489 0.960 . S
H2498 C2490 0.930 . S
H2499 C2491 0.929 . S
H2500 C2508 0.929 . S
H2501 C2510 0.930 . S
H2502 C2512 0.930 . S
H2503 C2515 0.929 . S
H2504 C2518 0.930 . S
H2505 C2520 0.960 . S
H2506 C2520 0.960 . S
H2507 C2520 0.960 . S
C2508 H2500 0.929 . S
C2508 C2509 1.377 . S
C2508 C2510 1.384 . S
C2509 C2508 1.377 . S
C2509 C2515 1.390 . S
C2510 H2501 0.930 . S
C2510 C2508 1.384 . S
C2510 C2511 1.372 . S
C2511 C2510 1.372 . S
C2511 C2512 1.400 . S
C2511 C2516 1.490 . S
C2512 H2502 0.930 . S
C2512 C2511 1.400 . S
C2512 C2515 1.386 . S
H2513 C2529 0.930 . S
H2514 C2530 0.931 . S
C2515 H2503 0.929 . S
C2515 C2509 1.390 . S
C2515 C2512 1.386 . S
C2516 C2511 1.490 . S
C2516 C2518 1.395 . S
C2516 C2519 1.403 . S
H2517 C2523 0.930 . S
C2518 H2504 0.930 . S
C2518 C2516 1.395 . S
C2518 C2521 1.403 . S
C2519 C2516 1.403 . S
C2519 C2520 1.524 . S
C2519 C2523 1.400 . S
C2520 H2505 0.960 . S
C2520 H2506 0.960 . S
C2520 H2507 0.960 . S
C2520 C2519 1.524 . S
C2521 C2518 1.403 . S
C2521 C2522 1.392 . S
C2521 C2525 1.495 . S
C2522 C2521 1.392 . S
C2522 C2523 1.385 . S
C2522 C2524 1.478 . S
C2523 H2517 0.930 . S
C2523 C2519 1.400 . S
C2523 C2522 1.385 . S
C2524 C2522 1.478 . S
C2524 C2526 1.381 . S
C2524 C2530 1.383 . S
C2525 C2521 1.495 . S
C2525 H2531 0.959 . S
C2525 H2532 0.961 . S
C2525 H2533 0.960 . S
C2526 C2524 1.381 . S
C2526 C2527 1.394 . S
C2526 H2534 0.930 . S
C2527 C2526 1.394 . S
C2527 C2528 1.383 . S
C2527 H2535 0.929 . S
C2528 C2527 1.383 . S
C2528 C2529 1.377 . S
C2529 H2513 0.930 . S
C2529 C2528 1.377 . S
C2529 C2530 1.379 . S
C2530 H2514 0.931 . S
C2530 C2524 1.383 . S
C2530 C2529 1.379 . S
H2531 C2525 0.959 . S
H2532 C2525 0.961 . S
H2533 C2525 0.960 . S
H2534 C2526 0.930 . S
H2535 C2527 0.929 . S
H2536 C2544 0.929 . S
H2537 C2546 0.930 . S
H2538 C2548 0.930 . S
H2539 C2551 0.929 . S
H2540 C2554 0.930 . S
H2541 C2556 0.960 . S
H2542 C2556 0.960 . S
H2543 C2556 0.960 . S
C2544 H2536 0.929 . S
C2544 C2545 1.377 . S
C2544 C2546 1.384 . S
C2545 C2544 1.377 . S
C2545 C2551 1.390 . S
C2546 H2537 0.930 . S
C2546 C2544 1.384 . S
C2546 C2547 1.372 . S
C2547 C2546 1.372 . S
C2547 C2548 1.400 . S
C2547 C2552 1.490 . S
C2548 H2538 0.930 . S
C2548 C2547 1.400 . S
C2548 C2551 1.386 . S
H2549 C2565 0.930 . S
H2550 C2566 0.931 . S
C2551 H2539 0.929 . S
C2551 C2545 1.390 . S
C2551 C2548 1.386 . S
C2552 C2547 1.490 . S
C2552 C2554 1.395 . S
C2552 C2555 1.403 . S
H2553 C2559 0.930 . S
C2554 H2540 0.930 . S
C2554 C2552 1.395 . S
C2554 C2557 1.403 . S
C2555 C2552 1.403 . S
C2555 C2556 1.524 . S
C2555 C2559 1.400 . S
C2556 H2541 0.960 . S
C2556 H2542 0.960 . S
C2556 H2543 0.960 . S
C2556 C2555 1.524 . S
C2557 C2554 1.403 . S
C2557 C2558 1.392 . S
C2557 C2561 1.495 . S
C2558 C2557 1.392 . S
C2558 C2559 1.385 . S
C2558 C2560 1.478 . S
C2559 H2553 0.930 . S
C2559 C2555 1.400 . S
C2559 C2558 1.385 . S
C2560 C2558 1.478 . S
C2560 C2562 1.381 . S
C2560 C2566 1.383 . S
C2561 C2557 1.495 . S
C2561 H2567 0.959 . S
C2561 H2568 0.961 . S
C2561 H2569 0.960 . S
C2562 C2560 1.381 . S
C2562 C2563 1.394 . S
C2562 H2570 0.930 . S
C2563 C2562 1.394 . S
C2563 C2564 1.383 . S
C2563 H2571 0.929 . S
C2564 C2563 1.383 . S
C2564 C2565 1.377 . S
C2565 H2549 0.930 . S
C2565 C2564 1.377 . S
C2565 C2566 1.379 . S
C2566 H2550 0.931 . S
C2566 C2560 1.383 . S
C2566 C2565 1.379 . S
H2567 C2561 0.959 . S
H2568 C2561 0.961 . S
H2569 C2561 0.960 . S
H2570 C2562 0.930 . S
H2571 C2563 0.929 . S
H2572 C2580 0.929 . S
H2573 C2582 0.930 . S
H2574 C2584 0.930 . S
H2575 C2587 0.929 . S
H2576 C2590 0.930 . S
H2577 C2592 0.960 . S
H2578 C2592 0.960 . S
H2579 C2592 0.960 . S
C2580 H2572 0.929 . S
C2580 C2581 1.377 . S
C2580 C2582 1.384 . S
C2581 C2580 1.377 . S
C2581 C2587 1.390 . S
C2582 H2573 0.930 . S
C2582 C2580 1.384 . S
C2582 C2583 1.372 . S
C2583 C2582 1.372 . S
C2583 C2584 1.400 . S
C2583 C2588 1.490 . S
C2584 H2574 0.930 . S
C2584 C2583 1.400 . S
C2584 C2587 1.386 . S
H2585 C2601 0.930 . S
H2586 C2602 0.931 . S
C2587 H2575 0.929 . S
C2587 C2581 1.390 . S
C2587 C2584 1.386 . S
C2588 C2583 1.490 . S
C2588 C2590 1.395 . S
C2588 C2591 1.403 . S
H2589 C2595 0.930 . S
C2590 H2576 0.930 . S
C2590 C2588 1.395 . S
C2590 C2593 1.403 . S
C2591 C2588 1.403 . S
C2591 C2592 1.524 . S
C2591 C2595 1.400 . S
C2592 H2577 0.960 . S
C2592 H2578 0.960 . S
C2592 H2579 0.960 . S
C2592 C2591 1.524 . S
C2593 C2590 1.403 . S
C2593 C2594 1.392 . S
C2593 C2597 1.495 . S
C2594 C2593 1.392 . S
C2594 C2595 1.385 . S
C2594 C2596 1.478 . S
C2595 H2589 0.930 . S
C2595 C2591 1.400 . S
C2595 C2594 1.385 . S
C2596 C2594 1.478 . S
C2596 C2598 1.381 . S
C2596 C2602 1.383 . S
C2597 C2593 1.495 . S
C2597 H2603 0.959 . S
C2597 H2604 0.961 . S
C2597 H2605 0.960 . S
C2598 C2596 1.381 . S
C2598 C2599 1.394 . S
C2598 H2606 0.930 . S
C2599 C2598 1.394 . S
C2599 C2600 1.383 . S
C2599 H2607 0.929 . S
C2600 C2599 1.383 . S
C2600 C2601 1.377 . S
C2601 H2585 0.930 . S
C2601 C2600 1.377 . S
C2601 C2602 1.379 . S
C2602 H2586 0.931 . S
C2602 C2596 1.383 . S
C2602 C2601 1.379 . S
H2603 C2597 0.959 . S
H2604 C2597 0.961 . S
H2605 C2597 0.960 . S
H2606 C2598 0.930 . S
H2607 C2599 0.929 . S
H2608 C2616 0.929 . S
H2609 C2618 0.930 . S
H2610 C2620 0.930 . S
H2611 C2623 0.929 . S
H2612 C2626 0.930 . S
H2613 C2628 0.960 . S
H2614 C2628 0.960 . S
H2615 C2628 0.960 . S
C2616 H2608 0.929 . S
C2616 C2617 1.377 . S
C2616 C2618 1.384 . S
C2617 C2616 1.377 . S
C2617 C2623 1.390 . S
C2618 H2609 0.930 . S
C2618 C2616 1.384 . S
C2618 C2619 1.372 . S
C2619 C2618 1.372 . S
C2619 C2620 1.400 . S
C2619 C2624 1.490 . S
C2620 H2610 0.930 . S
C2620 C2619 1.400 . S
C2620 C2623 1.386 . S
H2621 C2637 0.930 . S
H2622 C2638 0.931 . S
C2623 H2611 0.929 . S
C2623 C2617 1.390 . S
C2623 C2620 1.386 . S
C2624 C2619 1.490 . S
C2624 C2626 1.395 . S
C2624 C2627 1.403 . S
H2625 C2631 0.930 . S
C2626 H2612 0.930 . S
C2626 C2624 1.395 . S
C2626 C2629 1.403 1_655 S
C2627 C2624 1.403 . S
C2627 C2628 1.524 . S
C2627 C2631 1.400 1_655 S
C2628 H2613 0.960 . S
C2628 H2614 0.960 . S
C2628 H2615 0.960 . S
C2628 C2627 1.524 . S
C2629 C2626 1.403 1_455 S
C2629 C2630 1.392 . S
C2629 C2633 1.495 . S
C2630 C2629 1.392 . S
C2630 C2631 1.385 . S
C2630 C2632 1.478 . S
C2631 H2625 0.930 . S
C2631 C2627 1.400 1_455 S
C2631 C2630 1.385 . S
C2632 C2630 1.478 . S
C2632 C2634 1.381 . S
C2632 C2638 1.383 . S
C2633 C2629 1.495 . S
C2633 H2639 0.959 . S
C2633 H2640 0.961 . S
C2633 H2641 0.960 . S
C2634 C2632 1.381 . S
C2634 C2635 1.394 . S
C2634 H2642 0.930 . S
C2635 C2634 1.394 . S
C2635 C2636 1.383 . S
C2635 H2643 0.929 . S
C2636 C2635 1.383 . S
C2636 C2637 1.377 . S
C2637 H2621 0.930 . S
C2637 C2636 1.377 . S
C2637 C2638 1.379 . S
C2638 H2622 0.931 . S
C2638 C2632 1.383 . S
C2638 C2637 1.379 . S
H2639 C2633 0.959 . S
H2640 C2633 0.961 . S
H2641 C2633 0.960 . S
H2642 C2634 0.930 . S
H2643 C2635 0.929 . S
H2644 C2652 0.929 . S
H2645 C2654 0.930 . S
H2646 C2656 0.930 . S
H2647 C2659 0.929 . S
H2648 C2662 0.930 . S
H2649 C2664 0.960 . S
H2650 C2664 0.960 . S
H2651 C2664 0.960 . S
C2652 H2644 0.929 . S
C2652 C2653 1.377 . S
C2652 C2654 1.384 . S
C2653 C2652 1.377 . S
C2653 C2659 1.390 . S
C2654 H2645 0.930 . S
C2654 C2652 1.384 . S
C2654 C2655 1.372 . S
C2655 C2654 1.372 . S
C2655 C2656 1.400 . S
C2655 C2660 1.490 . S
C2656 H2646 0.930 . S
C2656 C2655 1.400 . S
C2656 C2659 1.386 . S
H2657 C2673 0.930 . S
H2658 C2674 0.931 . S
C2659 H2647 0.929 . S
C2659 C2653 1.390 . S
C2659 C2656 1.386 . S
C2660 C2655 1.490 . S
C2660 C2662 1.395 . S
C2660 C2663 1.403 . S
H2661 C2667 0.930 . S
C2662 H2648 0.930 . S
C2662 C2660 1.395 . S
C2662 C2665 1.403 . S
C2663 C2660 1.403 . S
C2663 C2664 1.524 . S
C2663 C2667 1.400 . S
C2664 H2649 0.960 . S
C2664 H2650 0.960 . S
C2664 H2651 0.960 . S
C2664 C2663 1.524 . S
C2665 C2662 1.403 . S
C2665 C2666 1.392 . S
C2665 C2669 1.495 . S
C2666 C2665 1.392 . S
C2666 C2667 1.385 . S
C2666 C2668 1.478 . S
C2667 H2661 0.930 . S
C2667 C2663 1.400 . S
C2667 C2666 1.385 . S
C2668 C2666 1.478 . S
C2668 C2670 1.381 . S
C2668 C2674 1.383 . S
C2669 C2665 1.495 . S
C2669 H2675 0.959 . S
C2669 H2676 0.961 . S
C2669 H2677 0.960 . S
C2670 C2668 1.381 . S
C2670 C2671 1.394 . S
C2670 H2678 0.930 . S
C2671 C2670 1.394 . S
C2671 C2672 1.383 . S
C2671 H2679 0.929 . S
C2672 C2671 1.383 . S
C2672 C2673 1.377 . S
C2673 H2657 0.930 . S
C2673 C2672 1.377 . S
C2673 C2674 1.379 . S
C2674 H2658 0.931 . S
C2674 C2668 1.383 . S
C2674 C2673 1.379 . S
H2675 C2669 0.959 . S
H2676 C2669 0.961 . S
H2677 C2669 0.960 . S
H2678 C2670 0.930 . S
H2679 C2671 0.929 . S
H2680 C2688 0.929 . S
H2681 C2690 0.930 . S
H2682 C2692 0.930 . S
H2683 C2695 0.929 . S
H2684 C2698 0.930 . S
H2685 C2700 0.960 . S
H2686 C2700 0.960 . S
H2687 C2700 0.960 . S
C2688 H2680 0.929 . S
C2688 C2689 1.377 . S
C2688 C2690 1.384 . S
C2689 C2688 1.377 . S
C2689 C2695 1.390 . S
C2690 H2681 0.930 . S
C2690 C2688 1.384 . S
C2690 C2691 1.372 . S
C2691 C2690 1.372 . S
C2691 C2692 1.400 . S
C2691 C2696 1.490 . S
C2692 H2682 0.930 . S
C2692 C2691 1.400 . S
C2692 C2695 1.386 . S
H2693 C2709 0.930 . S
H2694 C2710 0.931 . S
C2695 H2683 0.929 . S
C2695 C2689 1.390 . S
C2695 C2692 1.386 . S
C2696 C2691 1.490 . S
C2696 C2698 1.395 . S
C2696 C2699 1.403 . S
H2697 C2703 0.930 . S
C2698 H2684 0.930 . S
C2698 C2696 1.395 . S
C2698 C2701 1.403 . S
C2699 C2696 1.403 . S
C2699 C2700 1.524 . S
C2699 C2703 1.400 . S
C2700 H2685 0.960 . S
C2700 H2686 0.960 . S
C2700 H2687 0.960 . S
C2700 C2699 1.524 . S
C2701 C2698 1.403 . S
C2701 C2702 1.392 . S
C2701 C2705 1.495 . S
C2702 C2701 1.392 . S
C2702 C2703 1.385 . S
C2702 C2704 1.478 . S
C2703 H2697 0.930 . S
C2703 C2699 1.400 . S
C2703 C2702 1.385 . S
C2704 C2702 1.478 . S
C2704 C2706 1.381 . S
C2704 C2710 1.383 . S
C2705 C2701 1.495 . S
C2705 H2711 0.959 . S
C2705 H2712 0.961 . S
C2705 H2713 0.960 . S
C2706 C2704 1.381 . S
C2706 C2707 1.394 . S
C2706 H2714 0.930 . S
C2707 C2706 1.394 . S
C2707 C2708 1.383 . S
C2707 H2715 0.929 . S
C2708 C2707 1.383 . S
C2708 C2709 1.377 . S
C2709 H2693 0.930 . S
C2709 C2708 1.377 . S
C2709 C2710 1.379 . S
C2710 H2694 0.931 . S
C2710 C2704 1.383 . S
C2710 C2709 1.379 . S
H2711 C2705 0.959 . S
H2712 C2705 0.961 . S
H2713 C2705 0.960 . S
H2714 C2706 0.930 . S
H2715 C2707 0.929 . S
H2716 C2724 0.929 . S
H2717 C2726 0.930 . S
H2718 C2728 0.930 . S
H2719 C2731 0.929 . S
H2720 C2734 0.930 . S
H2721 C2736 0.960 . S
H2722 C2736 0.960 . S
H2723 C2736 0.960 . S
C2724 H2716 0.929 . S
C2724 C2725 1.377 . S
C2724 C2726 1.384 . S
C2725 C2724 1.377 . S
C2725 C2731 1.390 . S
C2726 H2717 0.930 . S
C2726 C2724 1.384 . S
C2726 C2727 1.372 . S
C2727 C2726 1.372 . S
C2727 C2728 1.400 . S
C2727 C2732 1.490 . S
C2728 H2718 0.930 . S
C2728 C2727 1.400 . S
C2728 C2731 1.386 . S
H2729 C2745 0.930 . S
H2730 C2746 0.931 . S
C2731 H2719 0.929 . S
C2731 C2725 1.390 . S
C2731 C2728 1.386 . S
C2732 C2727 1.490 . S
C2732 C2734 1.395 . S
C2732 C2735 1.403 . S
H2733 C2739 0.930 . S
C2734 H2720 0.930 . S
C2734 C2732 1.395 . S
C2734 C2737 1.403 1_655 S
C2735 C2732 1.403 . S
C2735 C2736 1.524 . S
C2735 C2739 1.400 1_655 S
C2736 H2721 0.960 . S
C2736 H2722 0.960 . S
C2736 H2723 0.960 . S
C2736 C2735 1.524 . S
C2737 C2734 1.403 1_455 S
C2737 C2738 1.392 . S
C2737 C2741 1.495 . S
C2738 C2737 1.392 . S
C2738 C2739 1.385 . S
C2738 C2740 1.478 . S
C2739 H2733 0.930 . S
C2739 C2735 1.400 1_455 S
C2739 C2738 1.385 . S
C2740 C2738 1.478 . S
C2740 C2742 1.381 . S
C2740 C2746 1.383 . S
C2741 C2737 1.495 . S
C2741 H2747 0.959 . S
C2741 H2748 0.961 . S
C2741 H2749 0.960 . S
C2742 C2740 1.381 . S
C2742 C2743 1.394 . S
C2742 H2750 0.930 . S
C2743 C2742 1.394 . S
C2743 C2744 1.383 . S
C2743 H2751 0.929 . S
C2744 C2743 1.383 . S
C2744 C2745 1.377 . S
C2745 H2729 0.930 . S
C2745 C2744 1.377 . S
C2745 C2746 1.379 . S
C2746 H2730 0.931 . S
C2746 C2740 1.383 . S
C2746 C2745 1.379 . S
H2747 C2741 0.959 . S
H2748 C2741 0.961 . S
H2749 C2741 0.960 . S
H2750 C2742 0.930 . S
H2751 C2743 0.929 . S
C457 C333 1.464 . S
C476 C11 1.472 . S
C493 C291 1.467 . S
C512 C25 1.448 . S
C529 C305 1.463 . S
C548 C39 1.465 . S
C565 C319 1.467 . S
C584 C53 1.458 . S
C601 C67 1.467 . S
C620 C249 1.448 . S
C637 C263 1.463 . S
C656 C81 1.474 . S
C673 C95 1.467 . S
C692 C277 1.448 . S
C709 C109 1.463 . S
C728 C235 1.467 . S
C745 C445 1.468 . S
C764 C123 1.473 . S
C781 C137 1.462 . S
C800 C403 1.455 . S
C817 C151 1.467 . S
C836 C417 1.474 . S
C853 C165 1.464 . S
C872 C431 1.452 . S
C889 C179 1.464 . S
C908 C361 1.463 . S
C925 C193 1.464 . S
C944 C375 1.461 . S
C961 C207 1.462 . S
C980 C389 1.449 . S
C997 C221 1.467 . S
C1016 C347 1.467 . S
C1033 C8 1.542 . S
C1052 C176 1.518 . S
C1069 C414 1.538 . S
C1088 C22 1.551 . S
C1105 C36 1.540 . S
C1124 C204 1.543 . S
C1141 C442 1.542 . S
C1160 C50 1.520 . S
C1177 C120 1.537 . S
C1196 C64 1.554 . S
C1213 C78 1.535 . S
C1232 C358 1.554 . S
C1249 C92 1.534 . S
C1268 C148 1.543 . S
C1285 C106 1.535 . S
C1304 C386 1.527 . S
C1321 C302 1.534 . S
C1340 C134 1.543 . S
C1357 C330 1.541 . S
C1376 C162 1.518 . S
C1393 C190 1.534 . S
C1412 C246 1.545 . S
C1429 C274 1.535 . S
C1448 C218 1.526 . S
C1465 C400 1.542 . S
C1484 C232 1.528 . S
C1501 C260 1.535 . S
C1520 C428 1.554 . S
C1537 C344 1.542 . S
C1556 C288 1.530 . S
C1573 C372 1.540 . S
C1592 C316 1.514 . S
C1609 C63 0.818 . S
C1628 C7 0.856 . S
C1645 C77 0.827 . S
C1664 C21 0.810 . S
C1681 C35 0.819 . S
C1700 C91 0.853 . S
C1717 C49 0.820 . S
C1736 C105 0.844 . S
C1753 C175 0.819 . S
C1772 C119 0.799 . S
C1789 C189 0.832 . S
C1808 C133 0.844 . S
C1825 C203 0.820 . S
C1844 C147 0.834 . S
C1861 C161 0.819 . S
C1880 C217 0.818 . S
C1897 C231 0.820 . S
C1916 C287 0.846 . S
C1933 C245 0.821 . S
C1952 C301 0.838 . S
C1969 C259 0.831 . S
C1988 C315 0.792 . S
C2005 C273 0.830 . S
C2024 C329 0.804 . S
C2041 C399 0.831 . S
C2060 C343 0.849 . S
C2077 C413 0.818 . S
C2096 C357 0.810 . S
C2113 C427 0.832 . S
C2132 C371 0.841 . S
C2149 C441 0.832 . S
C2168 C385 0.828 . S
C2185 C433 1.214 . S
C2204 C13 1.195 . S
C2221 C27 1.209 . S
C2240 C223 1.169 . S
C2257 C405 1.199 . S
C2276 C41 1.223 . S
C2293 C55 1.200 . S
C2312 C195 1.231 . S
C2329 C377 1.209 . S
C2348 C69 1.232 . S
C2365 C83 1.203 . S
C2384 C167 1.185 . S
C2401 C97 1.213 . S
C2420 C349 1.173 . S
C2437 C139 1.214 . S
C2456 C111 1.199 . S
C2473 C125 1.213 . S
C2492 C321 1.213 . S
C2509 C293 1.204 . S
C2528 C153 1.240 . S
C2545 C181 1.202 . S
C2564 C265 1.240 . S
C2581 C209 1.214 . S
C2600 C237 1.178 . S
C2617 C447 1.213 . S
C2636 C251 1.171 . S
C2653 C279 1.208 . S
C2672 C419 1.233 . S
C2689 C307 1.203 . S
C2708 C391 1.240 . S
C2725 C363 1.211 . S
C2744 C335 1.169 . S
