# Generated by pormake.
# Topology fnw, (5)-cn, num edge types: 1
# Building blocks:
#     Node 0, Type 0, BuildingBlock: XOMCOT_clean_sbu_0, # of connection points: 5
#     Node 1, Type 0, BuildingBlock: XOMCOT_clean_sbu_0, # of connection points: 5
#     Node 2, Type 0, BuildingBlock: XOMCOT_clean_sbu_0, # of connection points: 5
#     Node 3, Type 0, BuildingBlock: XOMCOT_clean_sbu_0, # of connection points: 5
#     Node 4, Type 0, BuildingBlock: XOMCOT_clean_sbu_0, # of connection points: 5
#     Node 5, Type 0, BuildingBlock: XOMCOT_clean_sbu_0, # of connection points: 5
#     Node 6, Type 0, BuildingBlock: XOMCOT_clean_sbu_0, # of connection points: 5
#     Node 7, Type 0, BuildingBlock: XOMCOT_clean_sbu_0, # of connection points: 5
#     Node 8, Type 0, BuildingBlock: XOMCOT_clean_sbu_0, # of connection points: 5
#     Node 9, Type 0, BuildingBlock: XOMCOT_clean_sbu_0, # of connection points: 5
#     Node 10, Type 0, BuildingBlock: XOMCOT_clean_sbu_0, # of connection points: 5
#     Node 11, Type 0, BuildingBlock: XOMCOT_clean_sbu_0, # of connection points: 5
#     Edge 12, Type (0, 0), BuildingBlock: TEMPAE_clean_linker_10, # of connection points: 2
#     Edge 13, Type (0, 0), BuildingBlock: TEMPAE_clean_linker_10, # of connection points: 2
#     Edge 14, Type (0, 0), BuildingBlock: TEMPAE_clean_linker_10, # of connection points: 2
#     Edge 15, Type (0, 0), BuildingBlock: TEMPAE_clean_linker_10, # of connection points: 2
#     Edge 16, Type (0, 0), BuildingBlock: TEMPAE_clean_linker_10, # of connection points: 2
#     Edge 17, Type (0, 0), BuildingBlock: TEMPAE_clean_linker_10, # of connection points: 2
#     Edge 18, Type (0, 0), BuildingBlock: TEMPAE_clean_linker_10, # of connection points: 2
#     Edge 19, Type (0, 0), BuildingBlock: TEMPAE_clean_linker_10, # of connection points: 2
#     Edge 20, Type (0, 0), BuildingBlock: TEMPAE_clean_linker_10, # of connection points: 2
#     Edge 21, Type (0, 0), BuildingBlock: TEMPAE_clean_linker_10, # of connection points: 2
#     Edge 22, Type (0, 0), BuildingBlock: TEMPAE_clean_linker_10, # of connection points: 2
#     Edge 23, Type (0, 0), BuildingBlock: TEMPAE_clean_linker_10, # of connection points: 2
#     Edge 24, Type (0, 0), BuildingBlock: TEMPAE_clean_linker_10, # of connection points: 2
#     Edge 25, Type (0, 0), BuildingBlock: TEMPAE_clean_linker_10, # of connection points: 2
#     Edge 26, Type (0, 0), BuildingBlock: TEMPAE_clean_linker_10, # of connection points: 2
#     Edge 27, Type (0, 0), BuildingBlock: TEMPAE_clean_linker_10, # of connection points: 2
#     Edge 28, Type (0, 0), BuildingBlock: TEMPAE_clean_linker_10, # of connection points: 2
#     Edge 29, Type (0, 0), BuildingBlock: TEMPAE_clean_linker_10, # of connection points: 2
#     Edge 30, Type (0, 0), BuildingBlock: TEMPAE_clean_linker_10, # of connection points: 2
#     Edge 31, Type (0, 0), BuildingBlock: TEMPAE_clean_linker_10, # of connection points: 2
#     Edge 32, Type (0, 0), BuildingBlock: TEMPAE_clean_linker_10, # of connection points: 2
#     Edge 33, Type (0, 0), BuildingBlock: TEMPAE_clean_linker_10, # of connection points: 2
#     Edge 34, Type (0, 0), BuildingBlock: TEMPAE_clean_linker_10, # of connection points: 2
#     Edge 35, Type (0, 0), BuildingBlock: TEMPAE_clean_linker_10, # of connection points: 2
#     Edge 36, Type (0, 0), BuildingBlock: TEMPAE_clean_linker_10, # of connection points: 2
#     Edge 37, Type (0, 0), BuildingBlock: TEMPAE_clean_linker_10, # of connection points: 2
#     Edge 38, Type (0, 0), BuildingBlock: TEMPAE_clean_linker_10, # of connection points: 2
#     Edge 39, Type (0, 0), BuildingBlock: TEMPAE_clean_linker_10, # of connection points: 2
#     Edge 40, Type (0, 0), BuildingBlock: TEMPAE_clean_linker_10, # of connection points: 2
#     Edge 41, Type (0, 0), BuildingBlock: TEMPAE_clean_linker_10, # of connection points: 2
# Relax obj value: 0.264
# Max RMSD: 0.156
# Mean RMSD: 0.156
data_MOF--net-fnw--node1-XOMCOT_clean_sbu_0--edge1-TEMPAE_clean_linker_10
_symmetry_space_group_name_H-M    P1
_symmetry_Int_Tables_number       1
_symmetry_cell_setting            triclinic
loop_
_symmetry_equiv_pos_as_xyz
'x, y, z'
_cell_length_a     51.918194
_cell_length_b     51.905287
_cell_length_c     31.897333
_cell_angle_alpha  89.984313
_cell_angle_beta   89.995206
_cell_angle_gamma 120.00952
loop_
_atom_site_label
_atom_site_type_symbol
_atom_site_fract_x
_atom_site_fract_y
_atom_site_fract_z
_atom_type_partial_charge
Co0 Co 0.26432 0.46372 0.27169 0.0
C1 C 0.28947 0.4229 0.26931 0.0
C2 C 0.30751 0.45492 0.31905 0.0
C3 C 0.3204 0.43743 0.32072 0.0
N4 N 0.28819 0.44594 0.28673 0.0
N5 N 0.3091 0.41735 0.28941 0.0
H6 H 0.27682 0.41064 0.24228 0.0
H7 H 0.31255 0.47351 0.33941 0.0
C8 C 0.3269 0.50721 0.2455 0.0
O9 O 0.33134 0.48518 0.23564 0.0
N10 N 0.24045 0.48131 0.25761 0.0
C11 C 0.21303 0.46709 0.24082 0.0
C12 C 0.20505 0.48782 0.23032 0.0
C13 C 0.24873 0.51038 0.25759 0.0
N14 N 0.22753 0.51515 0.24077 0.0
C15 C 0.23701 0.42028 0.20614 0.0
C16 C 0.26188 0.46017 0.14077 0.0
C17 C 0.23854 0.43148 0.13206 0.0
C18 C 0.22669 0.41103 0.16519 0.0
C19 C 0.27104 0.46863 0.18187 0.0
N20 N 0.25864 0.44894 0.21426 0.0
H21 H 0.22642 0.40481 0.23164 0.0
H22 H 0.28642 0.49182 0.18719 0.0
H23 H 0.20012 0.44339 0.23531 0.0
H24 H 0.26995 0.52758 0.26935 0.0
O25 O 0.23026 0.4308 0.29945 0.0
O26 O 0.26353 0.47309 0.32933 0.0
O27 O 0.30136 0.50227 0.25744 0.0
C28 C 0.24017 0.44695 0.33329 0.0
H29 H 0.33773 0.44017 0.34221 0.0
H30 H 0.18454 0.48296 0.21497 0.0
H31 H 0.27205 0.47666 0.11619 0.0
H32 H 0.20846 0.38865 0.15999 0.0
Co33 Co 0.80299 0.26643 0.79201 0.0
C34 C 0.86889 0.29599 0.7882 0.0
C35 C 0.85355 0.31884 0.82817 0.0
C36 C 0.88408 0.33432 0.82799 0.0
N37 N 0.84409 0.29494 0.80314 0.0
N38 N 0.89378 0.32014 0.80254 0.0
H39 H 0.86865 0.28 0.76626 0.0
H40 H 0.83917 0.32474 0.84505 0.0
C41 C 0.78423 0.30517 0.74376 0.0
O42 O 0.77159 0.28554 0.71359 0.0
N43 N 0.76114 0.238 0.78205 0.0
C44 C 0.7483 0.20851 0.77459 0.0
C45 C 0.7184 0.19712 0.76758 0.0
C46 C 0.73835 0.24356 0.78219 0.0
N47 N 0.71227 0.2193 0.77199 0.0
C48 C 0.80947 0.23283 0.72543 0.0
C49 C 0.82748 0.27641 0.66477 0.0
C50 C 0.81889 0.24725 0.65256 0.0
C51 C 0.81141 0.22569 0.68382 0.0
C52 C 0.82531 0.28252 0.70686 0.0
N53 N 0.8135 0.2601 0.73576 0.0
H54 H 0.80397 0.21612 0.74916 0.0
H55 H 0.83223 0.30511 0.71583 0.0
H56 H 0.75941 0.19568 0.77501 0.0
H57 H 0.74071 0.265 0.78912 0.0
O58 O 0.80722 0.23643 0.82291 0.0
O59 O 0.79425 0.2678 0.84981 0.0
O60 O 0.79739 0.30048 0.77411 0.0
C61 C 0.80038 0.24671 0.8558 0.0
H62 H 0.89794 0.35463 0.84515 0.0
H63 H 0.70235 0.17421 0.76023 0.0
H64 H 0.83494 0.29413 0.64186 0.0
H65 H 0.80562 0.2031 0.67607 0.0
Co66 Co 0.53903 0.80447 0.2956 0.0
C67 C 0.57362 0.87034 0.29627 0.0
C68 C 0.53357 0.85286 0.33272 0.0
C69 C 0.5477 0.8834 0.33389 0.0
N70 N 0.54977 0.84477 0.30901 0.0
N71 N 0.57279 0.89439 0.3107 0.0
H72 H 0.5906 0.87128 0.27563 0.0
H73 H 0.51267 0.83757 0.34757 0.0
C74 C 0.48217 0.78379 0.24517 0.0
O75 O 0.49028 0.77169 0.21559 0.0
N76 N 0.52745 0.76338 0.28309 0.0
C77 C 0.54468 0.75216 0.27031 0.0
C78 C 0.52699 0.72219 0.263 0.0
C79 C 0.49975 0.73956 0.28588 0.0
N80 N 0.49885 0.71446 0.27273 0.0
C81 C 0.58294 0.81618 0.23233 0.0
C82 C 0.55622 0.83075 0.16905 0.0
C83 C 0.57835 0.82391 0.15881 0.0
C84 C 0.59292 0.81816 0.19119 0.0
C85 C 0.54661 0.82791 0.21064 0.0
N86 N 0.55787 0.81752 0.24072 0.0
H87 H 0.59451 0.81205 0.25716 0.0
H88 H 0.52931 0.83289 0.21813 0.0
H89 H 0.56849 0.76429 0.26708 0.0
H90 H 0.48045 0.74059 0.29629 0.0
O91 O 0.5725 0.80887 0.32879 0.0
O92 O 0.52684 0.79323 0.35229 0.0
O93 O 0.49945 0.79781 0.27565 0.0
C94 C 0.55398 0.79991 0.36031 0.0
H95 H 0.53984 0.89641 0.35025 0.0
H96 H 0.53421 0.70714 0.25175 0.0
H97 H 0.54515 0.8363 0.14487 0.0
H98 H 0.61097 0.81398 0.18453 0.0
Co99 Co 0.73427 0.54013 0.7869 0.0
C100 C 0.70571 0.57728 0.78634 0.0
C101 C 0.68003 0.53611 0.81958 0.0
C102 C 0.66515 0.55175 0.82117 0.0
N103 N 0.70534 0.55209 0.7977 0.0
N104 N 0.68129 0.57759 0.80025 0.0
H105 H 0.72339 0.59494 0.76835 0.0
H106 H 0.67282 0.51444 0.8331 0.0
C107 C 0.69873 0.4807 0.74204 0.0
O108 O 0.7207 0.48654 0.71619 0.0
N109 N 0.76304 0.52736 0.77711 0.0
C110 C 0.78941 0.54158 0.75704 0.0
C111 C 0.79996 0.52215 0.75206 0.0
C112 C 0.75883 0.50014 0.78607 0.0
N113 N 0.78039 0.49589 0.76964 0.0
C114 C 0.76565 0.58439 0.72339 0.0
C115 C 0.72874 0.55314 0.65764 0.0
C116 C 0.7562 0.5787 0.64824 0.0
C117 C 0.77363 0.59544 0.68258 0.0
C118 C 0.72107 0.5438 0.69906 0.0
N119 N 0.74086 0.55755 0.73081 0.0
H120 H 0.78022 0.59693 0.74889 0.0
H121 H 0.69937 0.52501 0.70499 0.0
H122 H 0.8001 0.56407 0.74545 0.0
H123 H 0.73936 0.48321 0.8022 0.0
O124 O 0.76382 0.57414 0.81876 0.0
O125 O 0.73247 0.52957 0.8447 0.0
O126 O 0.70076 0.50019 0.76837 0.0
C127 C 0.75346 0.55672 0.85134 0.0
H128 H 0.64363 0.54424 0.83543 0.0
H129 H 0.81964 0.52658 0.73461 0.0
H130 H 0.71329 0.53934 0.63376 0.0
H131 H 0.79379 0.61656 0.67859 0.0
Co132 Co 0.19805 0.73774 0.28583 0.0
C133 C 0.13235 0.71037 0.28466 0.0
C134 C 0.14694 0.68166 0.31077 0.0
C135 C 0.11644 0.6667 0.31049 0.0
N136 N 0.15682 0.70886 0.29437 0.0
N137 N 0.10717 0.68469 0.29407 0.0
H138 H 0.13307 0.72966 0.27051 0.0
H139 H 0.16101 0.67308 0.3213 0.0
C140 C 0.21931 0.70355 0.23294 0.0
O141 O 0.23261 0.72567 0.20622 0.0
N142 N 0.2402 0.76606 0.2784 0.0
C143 C 0.25426 0.79492 0.26673 0.0
C144 C 0.28407 0.80459 0.26143 0.0
C145 C 0.26204 0.75935 0.28253 0.0
N146 N 0.28883 0.78196 0.27072 0.0
C147 C 0.19203 0.77429 0.22316 0.0
C148 C 0.17474 0.73328 0.15902 0.0
C149 C 0.18351 0.7629 0.14929 0.0
C150 C 0.19051 0.78314 0.18232 0.0
C151 C 0.1767 0.72555 0.20028 0.0
N152 N 0.18835 0.74679 0.23081 0.0
H153 H 0.19713 0.78989 0.24844 0.0
H154 H 0.16986 0.70266 0.20728 0.0
H155 H 0.24412 0.80839 0.26205 0.0
H156 H 0.25821 0.73793 0.29319 0.0
O157 O 0.19347 0.76621 0.31986 0.0
O158 O 0.20548 0.73322 0.34322 0.0
O159 O 0.20422 0.70499 0.26355 0.0
C160 C 0.19945 0.75414 0.35149 0.0
H161 H 0.10231 0.64382 0.32005 0.0
H162 H 0.30065 0.82631 0.25013 0.0
H163 H 0.16743 0.71647 0.13476 0.0
H164 H 0.19629 0.80597 0.17656 0.0
Co165 Co 0.45969 0.19355 0.78371 0.0
C166 C 0.41831 0.12828 0.78027 0.0
C167 C 0.45705 0.1403 0.81786 0.0
C168 C 0.43959 0.10987 0.81795 0.0
N169 N 0.44372 0.15178 0.79428 0.0
N170 N 0.41532 0.10235 0.79426 0.0
H171 H 0.40254 0.13001 0.75999 0.0
H172 H 0.47833 0.15321 0.83324 0.0
C173 C 0.51589 0.20972 0.73407 0.0
O174 O 0.51121 0.2264 0.70767 0.0
N175 N 0.47652 0.23598 0.77421 0.0
C176 C 0.46244 0.25069 0.76225 0.0
C177 C 0.48313 0.28025 0.75677 0.0
C178 C 0.50538 0.25726 0.7783 0.0
N179 N 0.51015 0.28425 0.76639 0.0
C180 C 0.41708 0.18828 0.72192 0.0
C181 C 0.44125 0.17361 0.65539 0.0
C182 C 0.42004 0.18221 0.64717 0.0
C183 C 0.40661 0.18778 0.68145 0.0
C184 C 0.45077 0.17409 0.69651 0.0
N185 N 0.44091 0.18443 0.72848 0.0
H186 H 0.40673 0.19299 0.74783 0.0
H187 H 0.46673 0.16697 0.70215 0.0
H188 H 0.43883 0.2411 0.75799 0.0
H189 H 0.52276 0.2529 0.78822 0.0
O190 O 0.4281 0.19291 0.81733 0.0
O191 O 0.47189 0.20163 0.84108 0.0
O192 O 0.49706 0.19519 0.76285 0.0
C193 C 0.44592 0.19839 0.84908 0.0
H194 H 0.44496 0.09439 0.83282 0.0
H195 H 0.47863 0.29748 0.74645 0.0
H196 H 0.45162 0.16803 0.63026 0.0
H197 H 0.38887 0.19275 0.677 0.0
Co198 Co 0.53629 0.73507 0.71652 0.0
C199 C 0.57208 0.70449 0.72725 0.0
C200 C 0.54099 0.68732 0.67629 0.0
C201 C 0.55564 0.67155 0.67829 0.0
N202 N 0.55116 0.70795 0.70697 0.0
N203 N 0.57506 0.68221 0.71043 0.0
H204 H 0.58416 0.71705 0.75444 0.0
H205 H 0.52365 0.68363 0.65425 0.0
C206 C 0.48802 0.67495 0.74445 0.0
O207 O 0.50799 0.67064 0.76349 0.0
N208 N 0.52114 0.7618 0.72521 0.0
C209 C 0.5365 0.78958 0.74066 0.0
C210 C 0.51679 0.79909 0.75036 0.0
C211 C 0.49244 0.75488 0.72519 0.0
N212 N 0.48896 0.77716 0.7409 0.0
C213 C 0.57635 0.75939 0.78624 0.0
C214 C 0.53286 0.74003 0.84724 0.0
C215 C 0.56223 0.76067 0.85847 0.0
C216 C 0.58426 0.76982 0.82739 0.0
C217 C 0.52582 0.73097 0.80573 0.0
N218 N 0.54738 0.74032 0.77564 0.0
H219 H 0.5934 0.76793 0.76238 0.0
H220 H 0.5026 0.71813 0.79782 0.0
H221 H 0.56016 0.80143 0.74678 0.0
H222 H 0.47448 0.73358 0.71502 0.0
O223 O 0.57249 0.76735 0.69196 0.0
O224 O 0.5314 0.73637 0.65724 0.0
O225 O 0.49557 0.69994 0.7272 0.0
C226 C 0.55856 0.75835 0.65631 0.0
H227 H 0.55215 0.65352 0.65768 0.0
H228 H 0.5226 0.82002 0.76525 0.0
H229 H 0.51497 0.73178 0.86993 0.0
H230 H 0.60721 0.78607 0.83408 0.0
Co231 Co 0.80705 0.54106 0.21185 0.0
C232 C 0.87261 0.57863 0.21337 0.0
C233 C 0.85791 0.53583 0.18553 0.0
C234 C 0.88842 0.55132 0.18583 0.0
N235 N 0.8481 0.55285 0.2031 0.0
N236 N 0.89778 0.57832 0.20332 0.0
H237 H 0.87188 0.59701 0.22808 0.0
H238 H 0.8438 0.51351 0.17386 0.0
C239 C 0.78315 0.4818 0.25819 0.0
O240 O 0.76691 0.48756 0.28395 0.0
N241 N 0.76539 0.52865 0.21976 0.0
C242 C 0.75345 0.54477 0.23433 0.0
C243 C 0.72332 0.52629 0.23932 0.0
C244 C 0.74207 0.50106 0.21374 0.0
N245 N 0.71629 0.49869 0.22698 0.0
C246 C 0.81801 0.58498 0.27509 0.0
C247 C 0.82398 0.55429 0.34136 0.0
C248 C 0.82121 0.57939 0.35037 0.0
C249 C 0.82033 0.59588 0.31584 0.0
C250 C 0.82304 0.54511 0.30001 0.0
N251 N 0.81679 0.55849 0.26796 0.0
H252 H 0.81626 0.5975 0.24932 0.0
H253 H 0.82668 0.52675 0.29432 0.0
H254 H 0.7655 0.56819 0.24148 0.0
H255 H 0.74422 0.4826 0.20232 0.0
O256 O 0.81237 0.57512 0.17928 0.0
O257 O 0.79946 0.53048 0.15391 0.0
O258 O 0.80011 0.50107 0.23125 0.0
C259 C 0.80582 0.55765 0.14685 0.0
H260 H 0.90245 0.54273 0.17522 0.0
H261 H 0.70789 0.53258 0.25192 0.0
H262 H 0.8258 0.54073 0.36552 0.0
H263 H 0.82068 0.61673 0.31969 0.0
Co264 Co 0.26244 0.80242 0.71678 0.0
C265 C 0.29124 0.86846 0.71638 0.0
C266 C 0.31413 0.85224 0.67812 0.0
C267 C 0.32957 0.88276 0.67681 0.0
N268 N 0.29019 0.84331 0.70297 0.0
N269 N 0.31534 0.89298 0.70115 0.0
H270 H 0.27542 0.86886 0.73803 0.0
H271 H 0.32023 0.83753 0.66263 0.0
C272 C 0.30002 0.78398 0.76763 0.0
O273 O 0.27899 0.76992 0.79567 0.0
N274 N 0.23518 0.76082 0.72964 0.0
C275 C 0.20778 0.74785 0.74682 0.0
C276 C 0.19807 0.71816 0.7532 0.0
C277 C 0.24103 0.73848 0.72406 0.0
N278 N 0.21918 0.71232 0.73932 0.0
C279 C 0.22823 0.81395 0.77652 0.0
C280 C 0.26713 0.82847 0.84294 0.0
C281 C 0.23822 0.82309 0.85066 0.0
C282 C 0.21935 0.81758 0.81629 0.0
C283 C 0.27517 0.82497 0.80245 0.0
N284 N 0.2547 0.81482 0.77082 0.0
H285 H 0.21303 0.80885 0.75068 0.0
H286 H 0.2976 0.82969 0.7971 0.0
H287 H 0.19539 0.75873 0.75461 0.0
H288 H 0.26129 0.74159 0.70981 0.0
O289 O 0.23222 0.80406 0.68276 0.0
O290 O 0.2649 0.79151 0.6603 0.0
O291 O 0.29685 0.79872 0.73805 0.0
C292 C 0.24333 0.79646 0.65169 0.0
H293 H 0.34996 0.89631 0.65961 0.0
H294 H 0.17739 0.7024 0.76815 0.0
H295 H 0.28296 0.83377 0.86815 0.0
H296 H 0.1974 0.81484 0.82029 0.0
Co297 Co 0.46419 0.27092 0.2102 0.0
C298 C 0.42709 0.29966 0.21424 0.0
C299 C 0.46696 0.32459 0.17798 0.0
C300 C 0.45212 0.34024 0.1792 0.0
N301 N 0.45138 0.29931 0.20009 0.0
N302 N 0.42718 0.32468 0.20221 0.0
H303 H 0.41038 0.28264 0.23418 0.0
H304 H 0.488 0.33139 0.16268 0.0
C305 C 0.5215 0.30913 0.25937 0.0
O306 O 0.51584 0.28807 0.28684 0.0
N307 N 0.47796 0.24268 0.21919 0.0
C308 C 0.46157 0.21329 0.22748 0.0
C309 C 0.48033 0.20214 0.23401 0.0
C310 C 0.50635 0.2484 0.21798 0.0
N311 N 0.5085 0.22437 0.22849 0.0
C312 C 0.42294 0.23585 0.27509 0.0
C313 C 0.449 0.27733 0.33826 0.0
C314 C 0.42803 0.24793 0.34891 0.0
C315 C 0.41368 0.22748 0.31645 0.0
C316 C 0.45745 0.28467 0.29643 0.0
N317 N 0.44661 0.26321 0.26614 0.0
H318 H 0.41165 0.21995 0.25042 0.0
H319 H 0.47335 0.30746 0.28878 0.0
H320 H 0.43765 0.20037 0.22823 0.0
H321 H 0.52522 0.26991 0.21062 0.0
O322 O 0.43065 0.24127 0.17786 0.0
O323 O 0.47514 0.27365 0.15249 0.0
O324 O 0.50322 0.30501 0.22987 0.0
C325 C 0.44819 0.25231 0.14548 0.0
H326 H 0.45933 0.36162 0.16463 0.0
H327 H 0.47375 0.17941 0.24208 0.0
H328 H 0.45941 0.29429 0.36218 0.0
H329 H 0.39656 0.2048 0.323 0.0
Co330 Co 0.19091 0.45929 0.69293 0.0
C331 C 0.12575 0.4212 0.7041 0.0
C332 C 0.13788 0.46263 0.67344 0.0
C333 C 0.10743 0.44643 0.67657 0.0
N334 N 0.14926 0.44685 0.69082 0.0
N335 N 0.0999 0.4205 0.69593 0.0
H336 H 0.1275 0.40356 0.71956 0.0
H337 H 0.1509 0.48449 0.65966 0.0
C338 C 0.21099 0.51491 0.74689 0.0
O339 O 0.22291 0.50612 0.77583 0.0
N340 N 0.2334 0.4725 0.69339 0.0
C341 C 0.2463 0.45618 0.68369 0.0
C342 C 0.27673 0.4739 0.68601 0.0
C343 C 0.2565 0.5003 0.69955 0.0
N344 N 0.283 0.50157 0.69636 0.0
C345 C 0.19584 0.42298 0.75674 0.0
C346 C 0.1706 0.43873 0.82081 0.0
C347 C 0.18376 0.42151 0.83015 0.0
C348 C 0.19557 0.41278 0.79728 0.0
C349 C 0.17165 0.44871 0.77978 0.0
N350 N 0.18588 0.44235 0.7489 0.0
H351 H 0.20443 0.41551 0.73178 0.0
H352 H 0.16196 0.46247 0.77313 0.0
H353 H 0.23461 0.43297 0.67486 0.0
H354 H 0.25449 0.51976 0.70426 0.0
O355 O 0.18306 0.42487 0.65939 0.0
O356 O 0.19387 0.46922 0.63476 0.0
O357 O 0.19857 0.49895 0.71458 0.0
C358 C 0.18698 0.44192 0.62714 0.0
H359 H 0.09204 0.45357 0.66664 0.0
H360 H 0.29295 0.46694 0.68082 0.0
H361 H 0.16087 0.44563 0.84528 0.0
H362 H 0.205 0.39863 0.80301 0.0
Co363 Co 0.7326 0.19435 0.21746 0.0
C364 C 0.70627 0.12885 0.2241 0.0
C365 C 0.68066 0.14146 0.18508 0.0
C366 C 0.66649 0.11095 0.18671 0.0
N367 N 0.70554 0.15261 0.20847 0.0
N368 N 0.68255 0.10309 0.21134 0.0
H369 H 0.72348 0.13028 0.24472 0.0
H370 H 0.67303 0.15466 0.16873 0.0
C371 C 0.69428 0.21305 0.26659 0.0
O372 O 0.71595 0.22959 0.29264 0.0
N373 N 0.75944 0.23675 0.22537 0.0
C374 C 0.78839 0.25088 0.23656 0.0
C375 C 0.79812 0.28066 0.24161 0.0
C376 C 0.75264 0.25857 0.22124 0.0
N377 N 0.77548 0.28538 0.23249 0.0
C378 C 0.76961 0.18873 0.27931 0.0
C379 C 0.73147 0.17599 0.3463 0.0
C380 C 0.76109 0.1837 0.35416 0.0
C381 C 0.77969 0.18833 0.31971 0.0
C382 C 0.7223 0.17635 0.30524 0.0
N383 N 0.74224 0.1857 0.27296 0.0
H384 H 0.78435 0.19263 0.25325 0.0
H385 H 0.69936 0.16988 0.29985 0.0
H386 H 0.80189 0.2407 0.24072 0.0
H387 H 0.73099 0.25474 0.21186 0.0
O388 O 0.76254 0.19178 0.18399 0.0
O389 O 0.72838 0.2017 0.1598 0.0
O390 O 0.69786 0.19779 0.2382 0.0
C391 C 0.7504 0.19727 0.15201 0.0
H392 H 0.64532 0.09573 0.1724 0.0
H393 H 0.82016 0.29754 0.25143 0.0
H394 H 0.71583 0.17117 0.37164 0.0
H395 H 0.80219 0.1926 0.32397 0.0
C396 C 0.37667 0.31369 0.22216 0.0
C397 C 0.40669 0.33435 0.21445 0.0
C398 C 0.3567 0.32316 0.23427 0.0
C399 C 0.36716 0.35395 0.23898 0.0
C400 C 0.39745 0.37484 0.23133 0.0
C401 C 0.41678 0.36478 0.21917 0.0
C402 C 0.32451 0.30032 0.24199 0.0
C403 C 0.40957 0.40789 0.23638 0.0
C404 C 0.31929 0.38984 0.23499 0.0
C405 C 0.319 0.39699 0.27732 0.0
C406 C 0.33307 0.37379 0.22223 0.0
C407 C 0.34692 0.36482 0.25254 0.0
C408 C 0.34484 0.37013 0.29557 0.0
C409 C 0.33085 0.38612 0.30743 0.0
C410 C 0.33468 0.36838 0.17605 0.0
C411 C 0.35919 0.36078 0.32888 0.0
H412 H 0.36876 0.29017 0.21823 0.0
H413 H 0.44005 0.38081 0.21411 0.0
H414 H 0.3183 0.30213 0.27469 0.0
H415 H 0.31001 0.3046 0.22102 0.0
H416 H 0.31988 0.27724 0.23664 0.0
H417 H 0.43365 0.42117 0.22882 0.0
H418 H 0.39734 0.41526 0.21563 0.0
H419 H 0.40625 0.41288 0.26911 0.0
H420 H 0.3103 0.39824 0.21151 0.0
H421 H 0.33006 0.391 0.34026 0.0
H422 H 0.32946 0.34517 0.17046 0.0
H423 H 0.35764 0.38333 0.16457 0.0
H424 H 0.31916 0.37266 0.15731 0.0
H425 H 0.35354 0.33737 0.3241 0.0
H426 H 0.35228 0.36307 0.36098 0.0
H427 H 0.38374 0.37484 0.32662 0.0
C428 C 0.93236 0.31074 0.77248 0.0
C429 C 0.92411 0.33042 0.78994 0.0
C430 C 0.96132 0.32109 0.75733 0.0
C431 C 0.98252 0.35176 0.75998 0.0
C432 C 0.97467 0.37152 0.77889 0.0
C433 C 0.94561 0.36067 0.79338 0.0
C434 C 0.96896 0.29939 0.73735 0.0
C435 C 0.9967 0.40444 0.78247 0.0
C436 C 0.06583 0.38539 0.74875 0.0
C437 C 0.07049 0.39864 0.70911 0.0
C438 C 0.03696 0.36816 0.76489 0.0
C439 C 0.01236 0.36399 0.74053 0.0
C440 C 0.01692 0.37539 0.6992 0.0
C441 C 0.04598 0.39274 0.6841 0.0
C442 C 0.033 0.35643 0.80912 0.0
C443 C 0.99127 0.37109 0.67197 0.0
H444 H 0.91615 0.28728 0.77027 0.0
H445 H 0.9396 0.37624 0.80614 0.0
H446 H 0.97332 0.30444 0.70343 0.0
H447 H 0.98955 0.30169 0.75138 0.0
H448 H 0.95078 0.27596 0.74086 0.0
H449 H 0.98767 0.41645 0.80057 0.0
H450 H 0.01738 0.40806 0.79796 0.0
H451 H 0.00285 0.41443 0.75071 0.0
H452 H 0.08481 0.39009 0.76817 0.0
H453 H 0.04967 0.40262 0.65317 0.0
H454 H 0.01443 0.33311 0.81084 0.0
H455 H 0.02729 0.36996 0.82996 0.0
H456 H 0.05353 0.35742 0.82128 0.0
H457 H 0.97327 0.34747 0.67229 0.0
H458 H 0.99821 0.37795 0.639 0.0
H459 H 0.98185 0.38456 0.68456 0.0
C460 C 0.65726 0.04927 0.19826 0.0
C461 C 0.67365 0.07342 0.2251 0.0
C462 C 0.64446 0.01996 0.21288 0.0
C463 C 0.648 0.01474 0.25548 0.0
C464 C 0.66608 0.03899 0.28209 0.0
C465 C 0.6788 0.06812 0.2665 0.0
C466 C 0.62564 0.99469 0.18334 0.0
C467 C 0.67034 0.03431 0.3277 0.0
C468 C 0.58251 0.94562 0.30069 0.0
C469 C 0.59263 0.92512 0.29984 0.0
C470 C 0.60074 0.97509 0.28765 0.0
C471 C 0.62982 0.98435 0.27305 0.0
C472 C 0.64057 0.96411 0.27307 0.0
C473 C 0.62185 0.93472 0.28656 0.0
C474 C 0.58845 0.99604 0.28817 0.0
C475 C 0.6715 0.97327 0.25777 0.0
H476 H 0.65371 0.05339 0.16606 0.0
H477 H 0.69131 0.08676 0.28738 0.0
H478 H 0.6319 0.97719 0.18525 0.0
H479 H 0.60191 0.98437 0.19258 0.0
H480 H 0.62785 0.00227 0.15028 0.0
H481 H 0.68819 0.05489 0.34255 0.0
H482 H 0.64928 0.02725 0.34496 0.0
H483 H 0.67587 0.01637 0.33122 0.0
H484 H 0.55992 0.93847 0.31025 0.0
H485 H 0.63006 0.91922 0.28641 0.0
H486 H 0.58682 0.00265 0.25563 0.0
H487 H 0.60365 0.01662 0.30561 0.0
H488 H 0.56605 0.98586 0.30281 0.0
H489 H 0.67327 0.97864 0.22385 0.0
H490 H 0.67722 0.95552 0.26252 0.0
H491 H 0.68817 0.99366 0.27427 0.0
C492 C 0.67998 0.61455 0.75302 0.0
C493 C 0.67237 0.59917 0.79127 0.0
C494 C 0.66769 0.63217 0.74129 0.0
C495 C 0.64737 0.63443 0.76853 0.0
C496 C 0.64128 0.62066 0.80841 0.0
C497 C 0.65385 0.60318 0.81927 0.0
C498 C 0.67478 0.64658 0.69853 0.0
C499 C 0.61991 0.62272 0.83848 0.0
C500 C 0.62062 0.68911 0.74536 0.0
C501 C 0.59353 0.67064 0.72505 0.0
C502 C 0.63869 0.67781 0.75947 0.0
C503 C 0.6293 0.64737 0.75314 0.0
C504 C 0.60199 0.62869 0.73268 0.0
C505 C 0.58447 0.64054 0.71901 0.0
C506 C 0.66772 0.69834 0.78111 0.0
C507 C 0.59108 0.59604 0.72555 0.0
H508 H 0.69419 0.61145 0.7312 0.0
H509 H 0.64845 0.59185 0.84924 0.0
H510 H 0.65519 0.63443 0.67773 0.0
H511 H 0.67965 0.66992 0.70061 0.0
H512 H 0.69406 0.64636 0.68379 0.0
H513 H 0.62052 0.61403 0.87008 0.0
H514 H 0.62505 0.6461 0.84163 0.0
H515 H 0.59693 0.60962 0.82606 0.0
H516 H 0.62786 0.71244 0.74974 0.0
H517 H 0.56332 0.626 0.70413 0.0
H518 H 0.68641 0.69858 0.76391 0.0
H519 H 0.66764 0.69009 0.81322 0.0
H520 H 0.67193 0.72149 0.78328 0.0
H521 H 0.60778 0.59333 0.70733 0.0
H522 H 0.56958 0.58471 0.70841 0.0
H523 H 0.58817 0.58464 0.75607 0.0
C524 C 0.07019 0.691 0.25286 0.0
C525 C 0.0768 0.6764 0.28456 0.0
C526 C 0.04075 0.6803 0.23963 0.0
C527 C 0.01756 0.65403 0.25781 0.0
C528 C 0.02386 0.64032 0.29151 0.0
C529 C 0.05329 0.65196 0.30486 0.0
C530 C 0.03473 0.69617 0.20466 0.0
C531 C -0.00019 0.61215 0.3117 0.0
C532 C 0.93475 0.62269 0.24293 0.0
C533 C 0.92819 0.60054 0.21269 0.0
C534 C 0.96417 0.642 0.25574 0.0
C535 C 0.98744 0.63857 0.23875 0.0
C536 C 0.98123 0.61752 0.20656 0.0
C537 C 0.95181 0.59916 0.19349 0.0
C538 C 0.97009 0.66499 0.28902 0.0
C539 C 0.00539 0.613 0.18771 0.0
H540 H 0.08802 0.70998 0.237 0.0
H541 H 0.05793 0.64114 0.33037 0.0
H542 H 0.03116 0.68373 0.17495 0.0
H543 H 0.01428 0.69724 0.2111 0.0
H544 H 0.05361 0.71914 0.20005 0.0
H545 H 0.00818 0.60513 0.33893 0.0
H546 H 0.98124 0.61526 0.32243 0.0
H547 H 0.99063 0.59387 0.28832 0.0
H548 H 0.91695 0.62433 0.25796 0.0
H549 H 0.94735 0.58304 0.16904 0.0
H550 H 0.9904 0.68639 0.28148 0.0
H551 H 0.97387 0.65721 0.31957 0.0
H552 H 0.95109 0.66899 0.29261 0.0
H553 H 0.02385 0.63439 0.1759 0.0
H554 H 0.9971 0.59674 0.16149 0.0
H555 H 0.01471 0.60479 0.21221 0.0
C556 C 0.35614 0.94454 0.71067 0.0
C557 C 0.32567 0.92357 0.7122 0.0
C558 C 0.36694 0.974 0.72326 0.0
C559 C 0.34681 0.98281 0.73806 0.0
C560 C 0.31595 0.96204 0.73894 0.0
C561 C 0.30572 0.9326 0.72598 0.0
C562 C 0.40007 0.99548 0.7219 0.0
C563 C 0.29388 0.97073 0.75443 0.0
C564 C 0.38557 0.04899 0.81018 0.0
C565 C 0.39333 0.07263 0.78232 0.0
C566 C 0.36832 0.01942 0.79696 0.0
C567 C 0.35873 0.0134 0.75475 0.0
C568 C 0.36457 0.03717 0.72731 0.0
C569 C 0.38181 0.06659 0.74149 0.0
C570 C 0.36231 0.99471 0.82735 0.0
C571 C 0.35466 0.03165 0.68212 0.0
H572 H 0.37183 0.93778 0.70083 0.0
H573 H 0.28213 0.91666 0.72675 0.0
H574 H 0.40484 0.0156 0.70369 0.0
H575 H 0.40858 0.00281 0.75416 0.0
H576 H 0.41254 0.98546 0.70758 0.0
H577 H 0.27051 0.95255 0.75038 0.0
H578 H 0.29781 0.97657 0.78818 0.0
H579 H 0.29694 0.99074 0.73749 0.0
H580 H 0.394 0.05368 0.84199 0.0
H581 H 0.38785 0.08481 0.71981 0.0
H582 H 0.37593 0.98453 0.8186 0.0
H583 H 0.33862 0.97695 0.82596 0.0
H584 H 0.36779 0.00286 0.86015 0.0
H585 H 0.36866 0.0248 0.66443 0.0
H586 H 0.35665 0.05184 0.66698 0.0
H587 H 0.33128 0.01332 0.67963 0.0
C588 C 0.16416 0.40448 0.90296 0.0
C589 C 0.18771 0.4151 0.87422 0.0
C590 C 0.16888 0.40161 0.94569 0.0
C591 C 0.19795 0.41033 0.95996 0.0
C592 C 0.22149 0.41983 0.93068 0.0
C593 C 0.21601 0.42186 0.88815 0.0
C594 C 0.14308 0.39067 0.97579 0.0
C595 C 0.25293 0.4299 0.94459 0.0
C596 C 0.22228 0.44587 0.0668 0.0
C597 C 0.22542 0.42433 0.08923 0.0
C598 C 0.21252 0.44114 0.02518 0.0
C599 C 0.20486 0.41379 0.00556 0.0
C600 C 0.20618 0.39116 0.02868 0.0
C601 C 0.21666 0.39676 0.07028 0.0
C602 C 0.21161 0.46598 0.00171 0.0
C603 C 0.19749 0.36146 0.00906 0.0
H604 H 0.14218 0.39894 0.89213 0.0
H605 H 0.23432 0.43036 0.86604 0.0
H606 H 0.14326 0.37438 0.99817 0.0
H607 H 0.14509 0.40965 0.99437 0.0
H608 H 0.12135 0.38009 0.9592 0.0
H609 H 0.26813 0.43416 0.91766 0.0
H610 H 0.26155 0.45071 0.96307 0.0
H611 H 0.25345 0.41296 0.9652 0.0
H612 H 0.22794 0.46683 0.08165 0.0
H613 H 0.21883 0.37993 0.08745 0.0
H614 H 0.18908 0.45805 0.98869 0.0
H615 H 0.22735 0.4732 0.97492 0.0
H616 H 0.21759 0.48561 0.02192 0.0
H617 H 0.17583 0.35244 0.99266 0.0
H618 H 0.19585 0.34495 0.03266 0.0
H619 H 0.21431 0.36429 0.9853 0.0
C620 C 0.8015 0.21394 0.40566 0.0
C621 C 0.77314 0.18951 0.39764 0.0
C622 C 0.81183 0.22244 0.44678 0.0
C623 C 0.79323 0.20637 0.48081 0.0
C624 C 0.76522 0.18083 0.47303 0.0
C625 C 0.75556 0.17262 0.43153 0.0
C626 C 0.84194 0.24967 0.45374 0.0
C627 C 0.74475 0.1631 0.50853 0.0
C628 C 0.82375 0.21895 0.59198 0.0
C629 C 0.81507 0.23873 0.60761 0.0
C630 C 0.81736 0.20861 0.55044 0.0
C631 C 0.80168 0.21807 0.5242 0.0
C632 C 0.79342 0.2385 0.5396 0.0
C633 C 0.80029 0.24863 0.58102 0.0
C634 C 0.8269 0.1872 0.53487 0.0
C635 C 0.77654 0.24904 0.51269 0.0
H636 H 0.81516 0.22743 0.37986 0.0
H637 H 0.73387 0.15341 0.42568 0.0
H638 H 0.839 0.26804 0.466 0.0
H639 H 0.85476 0.24509 0.47746 0.0
H640 H 0.85518 0.25734 0.42438 0.0
H641 H 0.72493 0.14239 0.49739 0.0
H642 H 0.75678 0.15709 0.53175 0.0
H643 H 0.73706 0.17685 0.52505 0.0
H644 H 0.83536 0.2114 0.61235 0.0
H645 H 0.79305 0.26349 0.59312 0.0
H646 H 0.84032 0.19594 0.50586 0.0
H647 H 0.80702 0.16562 0.52678 0.0
H648 H 0.84018 0.18315 0.55853 0.0
H649 H 0.78918 0.25948 0.48358 0.0
H650 H 0.77227 0.26539 0.52917 0.0
H651 H 0.75487 0.22977 0.50323 0.0
C652 C 0.57529 0.78948 0.10285 0.0
C653 C 0.58296 0.81839 0.11479 0.0
C654 C 0.57539 0.78218 0.06059 0.0
C655 C 0.58419 0.8046 0.02964 0.0
C656 C 0.59366 0.8343 0.04186 0.0
C657 C 0.59235 0.84075 0.08438 0.0
C658 C 0.56424 0.7501 0.04894 0.0
C659 C 0.60413 0.85898 0.00994 0.0
C660 C 0.59633 0.78185 0.92122 0.0
C661 C 0.56909 0.77375 0.90155 0.0
C662 C 0.60227 0.79342 0.96222 0.0
C663 C 0.58015 0.7961 0.98453 0.0
C664 C 0.55294 0.78858 0.96463 0.0
C665 C 0.54804 0.77815 0.92327 0.0
C666 C 0.63194 0.80213 0.98198 0.0
C667 C 0.52848 0.79058 0.98747 0.0
H668 H 0.56769 0.77217 0.12651 0.0
H669 H 0.5983 0.86312 0.09383 0.0
H670 H 0.54342 0.74148 0.03049 0.0
H671 H 0.58072 0.74828 0.02894 0.0
H672 H 0.55966 0.73568 0.07692 0.0
H673 H 0.61507 0.88129 0.02492 0.0
H674 H 0.61999 0.85788 0.98768 0.0
H675 H 0.5849 0.8564 0.99143 0.0
H676 H 0.61283 0.77862 0.90501 0.0
H677 H 0.52742 0.77324 0.9081 0.0
H678 H 0.6289 0.7862 0.00729 0.0
H679 H 0.64159 0.82451 0.99648 0.0
H680 H 0.64806 0.80236 0.95885 0.0
H681 H 0.52167 0.77612 0.01567 0.0
H682 H 0.50855 0.78372 0.96752 0.0
H683 H 0.53664 0.81367 0.99834 0.0
C684 C 0.82423 0.57456 0.42926 0.0
C685 C 0.81729 0.58694 0.39475 0.0
C686 C 0.81538 0.57658 0.47013 0.0
C687 C 0.80156 0.59371 0.47781 0.0
C688 C 0.79744 0.60904 0.44415 0.0
C689 C 0.80428 0.60462 0.40312 0.0
C690 C 0.82012 0.55944 0.50469 0.0
C691 C 0.78497 0.62954 0.45052 0.0
C692 C 0.74795 0.57309 0.56938 0.0
C693 C 0.76728 0.58643 0.60364 0.0
C694 C 0.75876 0.57532 0.52842 0.0
C695 C 0.78955 0.59359 0.52034 0.0
C696 C 0.80883 0.60987 0.55366 0.0
C697 C 0.79776 0.60529 0.59481 0.0
C698 C 0.73706 0.55718 0.49422 0.0
C699 C 0.84149 0.6316 0.54679 0.0
H700 H 0.83588 0.5624 0.42481 0.0
H701 H 0.7984 0.61458 0.37788 0.0
H702 H 0.8398 0.5749 0.5235 0.0
H703 H 0.80061 0.54878 0.52598 0.0
H704 H 0.82421 0.54186 0.49206 0.0
H705 H 0.79698 0.64956 0.43035 0.0
H706 H 0.76133 0.61802 0.44063 0.0
H707 H 0.78652 0.63692 0.48352 0.0
H708 H 0.72422 0.56 0.57405 0.0
H709 H 0.81365 0.6161 0.61975 0.0
H710 H 0.74661 0.54715 0.47302 0.0
H711 H 0.73176 0.57181 0.47522 0.0
H712 H 0.71586 0.539 0.50721 0.0
H713 H 0.85468 0.62119 0.55666 0.0
H714 H 0.84872 0.65163 0.56669 0.0
H715 H 0.84684 0.63887 0.51366 0.0
C716 C 0.24542 0.83756 0.92689 0.0
C717 C 0.22684 0.8199 0.89429 0.0
C718 C 0.23649 0.83099 0.96893 0.0
C719 C 0.20825 0.8063 0.97851 0.0
C720 C 0.18854 0.78984 0.94571 0.0
C721 C 0.19811 0.79672 0.90404 0.0
C722 C 0.2581 0.84918 0.0031 0.0
C723 C 0.15818 0.76344 0.95458 0.0
C724 C 0.20246 0.76343 0.07741 0.0
C725 C 0.18802 0.77308 0.10505 0.0
C726 C 0.20909 0.77413 0.03627 0.0
C727 C 0.20107 0.79504 0.02224 0.0
C728 C 0.1862 0.80471 0.04973 0.0
C729 C 0.17992 0.79367 0.09097 0.0
C730 C 0.22508 0.76331 0.00799 0.0
C731 C 0.17711 0.82678 0.03564 0.0
H732 H 0.26741 0.85588 0.91964 0.0
H733 H 0.18363 0.78265 0.87927 0.0
H734 H 0.24685 0.85524 0.02752 0.0
H735 H 0.26662 0.83575 0.0185 0.0
H736 H 0.27735 0.86987 0.99071 0.0
H737 H 0.14395 0.75589 0.9261 0.0
H738 H 0.16068 0.74468 0.96631 0.0
H739 H 0.14661 0.7689 0.97926 0.0
H740 H 0.20938 0.74804 0.08834 0.0
H741 H 0.16866 0.80111 0.11217 0.0
H742 H 0.24648 0.78242 0.99735 0.0
H743 H 0.21151 0.75266 0.97963 0.0
H744 H 0.22974 0.747 0.02381 0.0
H745 H 0.19703 0.84783 0.02585 0.0
H746 H 0.16542 0.83181 0.06071 0.0
H747 H 0.16226 0.81798 0.00795 0.0
C748 C 0.41428 0.17065 0.56986 0.0
C749 C 0.41406 0.18798 0.60347 0.0
C750 C 0.41313 0.17877 0.52817 0.0
C751 C 0.41144 0.2047 0.51989 0.0
C752 C 0.40937 0.22124 0.55363 0.0
C753 C 0.41088 0.21281 0.59493 0.0
C754 C 0.41536 0.16051 0.49302 0.0
C755 C 0.40734 0.24891 0.54617 0.0
C756 C 0.4476 0.24702 0.41997 0.0
C757 C 0.42307 0.23813 0.3934 0.0
C758 C 0.44401 0.23632 0.46113 0.0
C759 C 0.41513 0.21632 0.47633 0.0
C760 C 0.39016 0.20761 0.44997 0.0
C761 C 0.39444 0.21851 0.40867 0.0
C762 C 0.47126 0.24603 0.48811 0.0
C763 C 0.35901 0.18664 0.4653 0.0
H764 H 0.41615 0.15112 0.57606 0.0
H765 H 0.4111 0.22668 0.62047 0.0
H766 H 0.39759 0.15499 0.46953 0.0
H767 H 0.437 0.17368 0.47671 0.0
H768 H 0.41367 0.13951 0.50449 0.0
H769 H 0.4021 0.25705 0.57535 0.0
H770 H 0.42887 0.26683 0.53373 0.0
H771 H 0.39004 0.24462 0.52241 0.0
H772 H 0.46983 0.26171 0.40812 0.0
H773 H 0.37539 0.21169 0.38832 0.0
H774 H 0.4728 0.22632 0.4979 0.0
H775 H 0.46952 0.25692 0.51704 0.0
H776 H 0.49213 0.26178 0.47158 0.0
H777 H 0.35692 0.16501 0.47419 0.0
H778 H 0.34192 0.18258 0.44124 0.0
H779 H 0.35431 0.19585 0.4938 0.0
C780 C 0.80983 0.55215 0.07054 0.0
C781 C 0.80569 0.5675 0.10355 0.0
C782 C 0.80572 0.55765 0.02888 0.0
C783 C 0.79685 0.5788 0.01998 0.0
C784 C 0.79484 0.59602 0.05296 0.0
C785 C 0.79943 0.59022 0.09461 0.0
C786 C 0.80852 0.53901 0.99474 0.0
C787 C 0.78571 0.61894 0.04467 0.0
C788 C 0.79299 0.58947 0.90282 0.0
C789 C 0.76393 0.56668 0.89443 0.0
C790 C 0.80371 0.59554 0.9443 0.0
C791 C 0.78474 0.57854 0.97765 0.0
C792 C 0.75469 0.55725 0.96928 0.0
C793 C 0.74475 0.55149 0.9278 0.0
C794 C 0.83579 0.6186 0.95203 0.0
C795 C 0.73351 0.53885 0.00384 0.0
H796 H 0.81531 0.53498 0.07737 0.0
H797 H 0.79645 0.60225 0.12016 0.0
H798 H 0.78609 0.52292 0.98257 0.0
H799 H 0.8218 0.55324 0.96815 0.0
H800 H 0.81914 0.52632 0.00621 0.0
H801 H 0.7913 0.63454 0.07144 0.0
H802 H 0.79657 0.63188 0.01592 0.0
H803 H 0.76131 0.60753 0.03961 0.0
H804 H 0.80777 0.60139 0.87699 0.0
H805 H 0.72204 0.53428 0.9214 0.0
H806 H 0.84887 0.60729 0.95724 0.0
H807 H 0.83803 0.6318 0.98054 0.0
H808 H 0.84561 0.63395 0.92495 0.0
H809 H 0.74011 0.52303 0.01635 0.0
H810 H 0.71015 0.52587 0.99268 0.0
H811 H 0.73447 0.55329 0.03012 0.0
C812 C 0.20544 0.79061 0.59793 0.0
C813 C 0.23367 0.79512 0.60795 0.0
C814 C 0.19592 0.78694 0.55593 0.0
C815 C 0.2153 0.78818 0.5237 0.0
C816 C 0.24447 0.79464 0.53376 0.0
C817 C 0.25319 0.79783 0.57572 0.0
C818 C 0.16467 0.78011 0.54635 0.0
C819 C 0.26603 0.79652 0.50039 0.0
C820 C 0.19149 0.74105 0.42661 0.0
C821 C 0.19845 0.76243 0.39528 0.0
C822 C 0.19408 0.74871 0.469 0.0
C823 C 0.20442 0.77867 0.48029 0.0
C824 C 0.20932 0.79994 0.44882 0.0
C825 C 0.20607 0.79148 0.40639 0.0
C826 C 0.18813 0.72518 0.50149 0.0
C827 C 0.22024 0.83205 0.45972 0.0
H828 H 0.19043 0.78877 0.62289 0.0
H829 H 0.2753 0.80198 0.58333 0.0
H830 H 0.16436 0.79275 0.5185 0.0
H831 H 0.15067 0.75609 0.539 0.0
H832 H 0.15451 0.78536 0.57328 0.0
H833 H 0.28876 0.80472 0.51304 0.0
H834 H 0.25805 0.77415 0.4866 0.0
H835 H 0.26737 0.81154 0.47469 0.0
H836 H 0.18491 0.71837 0.41795 0.0
H837 H 0.21119 0.80793 0.38205 0.0
H838 H 0.17471 0.72635 0.5277 0.0
H839 H 0.20956 0.7291 0.51476 0.0
H840 H 0.17625 0.70238 0.48806 0.0
H841 H 0.20846 0.83377 0.48765 0.0
H842 H 0.21725 0.84422 0.43324 0.0
H843 H 0.24428 0.84317 0.46746 0.0
C844 C 0.4536 0.19706 0.92545 0.0
C845 C 0.43754 0.20034 0.89263 0.0
C846 C 0.44866 0.20176 0.96709 0.0
C847 C 0.42727 0.21026 0.97623 0.0
C848 C 0.4096 0.21177 0.94351 0.0
C849 C 0.41489 0.20667 0.90187 0.0
C850 C 0.46783 0.19958 0.00099 0.0
C851 C 0.38647 0.22058 0.95209 0.0
C852 C 0.41618 0.21295 0.09342 0.0
C853 C 0.43855 0.24212 0.10223 0.0
C854 C 0.41039 0.20255 0.0518 0.0
C855 C 0.42724 0.22196 0.01872 0.0
C856 C 0.44807 0.25208 0.02752 0.0
C857 C 0.45358 0.2617 0.06916 0.0
C858 C 0.38786 0.17036 0.04358 0.0
C859 C 0.46628 0.27368 0.99326 0.0
H860 H 0.47072 0.19155 0.9185 0.0
H861 H 0.40227 0.20897 0.87653 0.0
H862 H 0.48347 0.22215 0.01319 0.0
H863 H 0.4539 0.18603 0.02762 0.0
H864 H 0.48102 0.18956 0.98933 0.0
H865 H 0.37092 0.21516 0.92529 0.0
H866 H 0.37348 0.20932 0.98063 0.0
H867 H 0.39768 0.24491 0.95773 0.0
H868 H 0.40439 0.19787 0.11903 0.0
H869 H 0.47046 0.28448 0.0759 0.0
H870 H 0.39963 0.15782 0.03756 0.0
H871 H 0.3744 0.16812 0.01537 0.0
H872 H 0.37271 0.15996 0.07072 0.0
H873 H 0.48252 0.26765 0.98071 0.0
H874 H 0.47876 0.297 0.00472 0.0
H875 H 0.45179 0.27252 0.96693 0.0
C876 C 0.24557 0.44982 0.41022 0.0
C877 C 0.22743 0.43628 0.37528 0.0
C878 C 0.23414 0.44301 0.45085 0.0
C879 C 0.20363 0.42217 0.45684 0.0
C880 C 0.18555 0.40683 0.42188 0.0
C881 C 0.19775 0.41407 0.38122 0.0
C882 C 0.25442 0.45973 0.48714 0.0
C883 C 0.15306 0.38414 0.4271 0.0
C884 C 0.18931 0.40818 0.57295 0.0
C885 C 0.18451 0.43163 0.58352 0.0
C886 C 0.1924 0.40235 0.53073 0.0
C887 C 0.19059 0.42044 0.4989 0.0
C888 C 0.18257 0.44198 0.50949 0.0
C889 C 0.17977 0.44739 0.55169 0.0
C890 C 0.20026 0.37874 0.52059 0.0
C891 C 0.18001 0.46153 0.47661 0.0
H892 H 0.26876 0.46648 0.4058 0.0
H893 H 0.18379 0.40335 0.35419 0.0
H894 H 0.24745 0.47484 0.5012 0.0
H895 H 0.25286 0.44402 0.51191 0.0
H896 H 0.27806 0.47327 0.47737 0.0
H897 H 0.1442 0.36927 0.39938 0.0
H898 H 0.14932 0.37038 0.45554 0.0
H899 H 0.14018 0.39578 0.43085 0.0
H900 H 0.19259 0.3957 0.59758 0.0
H901 H 0.17529 0.46506 0.55982 0.0
H902 H 0.22464 0.38937 0.51587 0.0
H903 H 0.18926 0.3669 0.49121 0.0
H904 H 0.19383 0.36226 0.5464 0.0
H905 H 0.20255 0.4779 0.46504 0.0
H906 H 0.16942 0.47397 0.48917 0.0
H907 H 0.16686 0.44809 0.44942 0.0
C908 C 0.80753 0.25663 0.9317 0.0
C909 C 0.80061 0.23645 0.89869 0.0
C910 C 0.80367 0.24717 0.97338 0.0
C911 C 0.79216 0.21664 0.98224 0.0
C912 C 0.78745 0.19653 0.94911 0.0
C913 C 0.79189 0.20676 0.90741 0.0
C914 C 0.80945 0.26952 0.00766 0.0
C915 C 0.77551 0.16389 0.95741 0.0
C916 C 0.78831 0.20174 0.09919 0.0
C917 C 0.76026 0.19802 0.10846 0.0
C918 C 0.79847 0.20561 0.0575 0.0
C919 C 0.78002 0.20563 0.02478 0.0
C920 C 0.75089 0.1997 0.03396 0.0
C921 C 0.74145 0.19608 0.07565 0.0
C922 C 0.82954 0.21156 0.04885 0.0
C923 C 0.73032 0.19927 6e-05 0.0
H924 H 0.81495 0.27978 0.92487 0.0
H925 H 0.78678 0.19124 0.88176 0.0
H926 H 0.78793 0.26553 0.02068 0.0
H927 H 0.82219 0.26701 0.03367 0.0
H928 H 0.82196 0.2928 0.99603 0.0
H929 H 0.77919 0.1527 0.93028 0.0
H930 H 0.78602 0.16061 0.98564 0.0
H931 H 0.75123 0.15291 0.96337 0.0
H932 H 0.80278 0.20293 0.12453 0.0
H933 H 0.71947 0.19255 0.0826 0.0
H934 H 0.8445 0.23574 0.04369 0.0
H935 H 0.83009 0.19986 0.02006 0.0
H936 H 0.83842 0.20455 0.07548 0.0
H937 H 0.73907 0.22209 0.98747 0.0
H938 H 0.7074 0.19119 0.01186 0.0
H939 H 0.72922 0.18484 0.97369 0.0
C940 C 0.58354 0.80027 0.60551 0.0
C941 C 0.57273 0.7704 0.61571 0.0
C942 C 0.58889 0.80956 0.56339 0.0
C943 C 0.58336 0.78838 0.53145 0.0
C944 C 0.57604 0.7591 0.54257 0.0
C945 C 0.57044 0.75038 0.58461 0.0
C946 C 0.59701 0.84106 0.55287 0.0
C947 C 0.57037 0.73587 0.50978 0.0
C948 C 0.54116 0.78877 0.43543 0.0
C949 C 0.56277 0.79818 0.40384 0.0
C950 C 0.54806 0.78662 0.47711 0.0
C951 C 0.57744 0.79404 0.48781 0.0
C952 C 0.59968 0.80426 0.45634 0.0
C953 C 0.59204 0.80615 0.41449 0.0
C954 C 0.52352 0.77554 0.50952 0.0
C955 C 0.63123 0.81248 0.46667 0.0
H956 H 0.58525 0.81567 0.62979 0.0
H957 H 0.56231 0.72729 0.59286 0.0
H958 H 0.61272 0.84968 0.52608 0.0
H959 H 0.57662 0.84149 0.54363 0.0
H960 H 0.60711 0.85614 0.58015 0.0
H961 H 0.57071 0.71635 0.52345 0.0
H962 H 0.54816 0.72801 0.49553 0.0
H963 H 0.58713 0.74529 0.48435 0.0
H964 H 0.51851 0.78275 0.42761 0.0
H965 H 0.60888 0.81365 0.39021 0.0
H966 H 0.53008 0.79164 0.53574 0.0
H967 H 0.51959 0.7541 0.52278 0.0
H968 H 0.50222 0.77206 0.49627 0.0
H969 H 0.6392 0.82709 0.49468 0.0
H970 H 0.64666 0.82397 0.44016 0.0
H971 H 0.63208 0.79207 0.47427 0.0
C972 C 0.25577 0.57036 0.23766 0.0
C973 C 0.22871 0.54334 0.23459 0.0
C974 C 0.25678 0.59782 0.234 0.0
C975 C 0.23022 0.59832 0.22619 0.0
C976 C 0.20312 0.5713 0.22118 0.0
C977 C 0.20264 0.54423 0.22587 0.0
C978 C 0.28607 0.62626 0.23995 0.0
C979 C 0.17432 0.57093 0.21257 0.0
C980 C 0.22032 0.66111 0.26708 0.0
C981 C 0.22373 0.67763 0.23063 0.0
C982 C 0.2236 0.63598 0.2662 0.0
C983 C 0.22996 0.62678 0.22775 0.0
C984 C 0.23412 0.64371 0.19092 0.0
C985 C 0.23122 0.66921 0.19288 0.0
C986 C 0.21957 0.61889 0.30636 0.0
C987 C 0.24056 0.63429 0.14931 0.0
H988 H 0.27625 0.57025 0.24336 0.0
H989 H 0.18152 0.52381 0.22372 0.0
H990 H 0.29114 0.64079 0.21207 0.0
H991 H 0.2846 0.63872 0.26724 0.0
H992 H 0.30482 0.62209 0.24523 0.0
H993 H 0.15582 0.54827 0.205 0.0
H994 H 0.16789 0.57917 0.2405 0.0
H995 H 0.17714 0.58599 0.18608 0.0
H996 H 0.21508 0.66785 0.29656 0.0
H997 H 0.23397 0.68204 0.16472 0.0
H998 H 0.23904 0.61592 0.31178 0.0
H999 H 0.19967 0.5964 0.30381 0.0
H1000 H 0.21677 0.63021 0.33408 0.0
H1001 H 0.25997 0.63093 0.15206 0.0
H1002 H 0.24509 0.65087 0.12421 0.0
H1003 H 0.22124 0.61269 0.13976 0.0
C1004 C 0.66481 0.1986 0.73358 0.0
C1005 C 0.68433 0.21801 0.76407 0.0
C1006 C 0.63777 0.19745 0.72485 0.0
C1007 C 0.62994 0.21598 0.74744 0.0
C1008 C 0.64969 0.23588 0.77795 0.0
C1009 C 0.6767 0.23672 0.78579 0.0
C1010 C 0.61745 0.17618 0.69178 0.0
C1011 C 0.64197 0.25578 0.80301 0.0
C1012 C 0.56833 0.22954 0.70886 0.0
C1013 C 0.54438 0.20963 0.73391 0.0
C1014 C 0.59626 0.23146 0.71217 0.0
C1015 C 0.60023 0.21312 0.7413 0.0
C1016 C 0.5759 0.19242 0.76574 0.0
C1017 C 0.54831 0.19085 0.76163 0.0
C1018 C 0.62168 0.25362 0.68535 0.0
C1019 C 0.57921 0.1725 0.79722 0.0
H1020 H 0.67089 0.18455 0.71609 0.0
H1021 H 0.69161 0.25162 0.80953 0.0
H1022 H 0.59628 0.15926 0.7064 0.0
H1023 H 0.61184 0.18833 0.66822 0.0
H1024 H 0.62756 0.16452 0.67537 0.0
H1025 H 0.66031 0.27091 0.82424 0.0
H1026 H 0.63675 0.26942 0.78167 0.0
H1027 H 0.62182 0.24198 0.82217 0.0
H1028 H 0.56552 0.24417 0.68747 0.0
H1029 H 0.52993 0.17526 0.78101 0.0
H1030 H 0.63192 0.2424 0.6682 0.0
H1031 H 0.63919 0.27088 0.70558 0.0
H1032 H 0.61448 0.26479 0.66227 0.0
H1033 H 0.58767 0.15912 0.78154 0.0
H1034 H 0.55789 0.15709 0.81305 0.0
H1035 H 0.59572 0.18627 0.82147 0.0
C1036 C 0.45249 0.67238 0.29956 0.0
C1037 C 0.47303 0.68574 0.26704 0.0
C1038 C 0.42805 0.64354 0.29497 0.0
C1039 C 0.42372 0.62832 0.25642 0.0
C1040 C 0.44386 0.64236 0.22292 0.0
C1041 C 0.46858 0.67076 0.22891 0.0
C1042 C 0.40746 0.62903 0.33172 0.0
C1043 C 0.4394 0.62733 0.18088 0.0
C1044 C 0.38048 0.54391 0.25604 0.0
C1045 C 0.35192 0.53803 0.24517 0.0
C1046 C 0.40399 0.57325 0.26011 0.0
C1047 C 0.39896 0.59718 0.25174 0.0
C1048 C 0.37035 0.59129 0.23923 0.0
C1049 C 0.34699 0.56173 0.23689 0.0
C1050 C 0.434 0.57862 0.27452 0.0
C1051 C 0.36426 0.61614 0.22881 0.0
H1052 H 0.4562 0.68416 0.32899 0.0
H1053 H 0.48441 0.6815 0.20369 0.0
H1054 H 0.38433 0.62251 0.32291 0.0
H1055 H 0.40754 0.60841 0.34067 0.0
H1056 H 0.41393 0.64392 0.35948 0.0
H1057 H 0.45582 0.64219 0.1572 0.0
H1058 H 0.44149 0.60718 0.18424 0.0
H1059 H 0.41667 0.61998 0.169 0.0
H1060 H 0.38417 0.52556 0.26301 0.0
H1061 H 0.32485 0.55713 0.22842 0.0
H1062 H 0.44065 0.59209 0.30368 0.0
H1063 H 0.45113 0.59148 0.25048 0.0
H1064 H 0.43403 0.55756 0.28063 0.0
H1065 H 0.36484 0.62811 0.2579 0.0
H1066 H 0.34218 0.60773 0.21379 0.0
H1067 H 0.38165 0.6325 0.20748 0.0
C1068 C 0.78398 0.34598 0.78408 0.0
C1069 C 0.78154 0.33217 0.74532 0.0
C1070 C 0.78222 0.37195 0.78695 0.0
C1071 C 0.77847 0.38481 0.75005 0.0
C1072 C 0.77562 0.37083 0.71079 0.0
C1073 C 0.77689 0.34441 0.70892 0.0
C1074 C 0.78475 0.38582 0.82951 0.0
C1075 C 0.77197 0.38417 0.67075 0.0
C1076 C 0.75275 0.44096 0.76508 0.0
C1077 C 0.77988 0.46798 0.76505 0.0
C1078 C 0.75183 0.41373 0.75925 0.0
C1079 C 0.77868 0.41349 0.75285 0.0
C1080 C 0.80607 0.44065 0.75205 0.0
C1081 C 0.80634 0.46752 0.75839 0.0
C1082 C 0.72217 0.38523 0.76056 0.0
C1083 C 0.83516 0.44129 0.74508 0.0
H1084 H 0.78713 0.33637 0.81245 0.0
H1085 H 0.77502 0.33377 0.67895 0.0
H1086 H 0.80488 0.40823 0.83059 0.0
H1087 H 0.76526 0.3887 0.83519 0.0
H1088 H 0.78615 0.3722 0.85533 0.0
H1089 H 0.76903 0.37004 0.64298 0.0
H1090 H 0.75247 0.38743 0.67314 0.0
H1091 H 0.79183 0.40641 0.66567 0.0
H1092 H 0.73208 0.44101 0.76909 0.0
H1093 H 0.82737 0.48821 0.75851 0.0
H1094 H 0.72185 0.37116 0.78698 0.0
H1095 H 0.71875 0.37233 0.73133 0.0
H1096 H 0.70325 0.38934 0.7644 0.0
H1097 H 0.83946 0.43007 0.77154 0.0
H1098 H 0.85426 0.46432 0.7424 0.0
H1099 H 0.83397 0.42892 0.7161 0.0
C1100 C 0.3147 0.75356 0.25791 0.0
C1101 C 0.31584 0.78089 0.26457 0.0
C1102 C 0.34072 0.75213 0.25165 0.0
C1103 C 0.3686 0.77872 0.2515 0.0
C1104 C 0.36991 0.80641 0.25714 0.0
C1105 C 0.34356 0.80714 0.26385 0.0
C1106 C 0.33837 0.72212 0.24616 0.0
C1107 C 0.39923 0.83528 0.25696 0.0
C1108 C 0.4384 0.77821 0.28417 0.0
C1109 C 0.45212 0.78014 0.24553 0.0
C1110 C 0.4107 0.77656 0.28632 0.0
C1111 C 0.39661 0.77756 0.24891 0.0
C1112 C 0.41004 0.77888 0.20963 0.0
C1113 C 0.43759 0.77979 0.20838 0.0
C1114 C 0.39684 0.77443 0.32878 0.0
C1115 C 0.39584 0.78042 0.16914 0.0
H1116 H 0.29344 0.73315 0.25727 0.0
H1117 H 0.34477 0.82832 0.26915 0.0
H1118 H 0.34991 0.7218 0.21707 0.0
H1119 H 0.34954 0.71787 0.27272 0.0
H1120 H 0.31491 0.70369 0.24471 0.0
H1121 H 0.39628 0.85504 0.25843 0.0
H1122 H 0.4128 0.83594 0.28426 0.0
H1123 H 0.41202 0.83686 0.22826 0.0
H1124 H 0.44944 0.77805 0.31296 0.0
H1125 H 0.44827 0.78138 0.17852 0.0
H1126 H 0.37381 0.75525 0.32954 0.0
H1127 H 0.39551 0.79479 0.33473 0.0
H1128 H 0.40973 0.77184 0.3546 0.0
H1129 H 0.37261 0.7617 0.16722 0.0
H1130 H 0.40827 0.77975 0.1412 0.0
H1131 H 0.39494 0.80133 0.16824 0.0
C1132 C 0.67036 0.42695 0.72064 0.0
C1133 C 0.67157 0.45099 0.74249 0.0
C1134 C 0.64509 0.3984 0.72311 0.0
C1135 C 0.62056 0.39391 0.74798 0.0
C1136 C 0.62171 0.4181 0.77003 0.0
C1137 C 0.64712 0.44629 0.76695 0.0
C1138 C 0.64464 0.37308 0.69922 0.0
C1139 C 0.59609 0.41425 0.79702 0.0
C1140 C 0.54218 0.33084 0.72833 0.0
C1141 C 0.53838 0.31104 0.76081 0.0
C1142 C 0.5693 0.35726 0.72262 0.0
C1143 C 0.59317 0.36421 0.75035 0.0
C1144 C 0.58979 0.34393 0.78253 0.0
C1145 C 0.56243 0.31748 0.78726 0.0
C1146 C 0.57214 0.37809 0.68756 0.0
C1147 C 0.61468 0.35069 0.81292 0.0
H1148 H 0.68928 0.43033 0.70206 0.0
H1149 H 0.64782 0.46468 0.78401 0.0
H1150 H 0.64099 0.35495 0.72111 0.0
H1151 H 0.62587 0.36368 0.67663 0.0
H1152 H 0.66566 0.38018 0.68177 0.0
H1153 H 0.60086 0.43519 0.81301 0.0
H1154 H 0.57586 0.40657 0.7775 0.0
H1155 H 0.59096 0.39695 0.82118 0.0
H1156 H 0.52389 0.32559 0.70716 0.0
H1157 H 0.55957 0.30222 0.81238 0.0
H1158 H 0.59213 0.38388 0.66836 0.0
H1159 H 0.57502 0.39911 0.70091 0.0
H1160 H 0.55233 0.36833 0.66674 0.0
H1161 H 0.63554 0.35679 0.79574 0.0
H1162 H 0.60939 0.33155 0.83385 0.0
H1163 H 0.61895 0.37006 0.8326 0.0
C1164 C 0.34204 0.78482 0.72942 0.0
C1165 C 0.32693 0.78116 0.76737 0.0
C1166 C 0.36772 0.78253 0.72754 0.0
C1167 C 0.379 0.77698 0.7647 0.0
C1168 C 0.36376 0.77298 0.80316 0.0
C1169 C 0.3376 0.77479 0.80398 0.0
C1170 C 0.38292 0.78631 0.68573 0.0
C1171 C 0.37544 0.76747 0.84348 0.0
C1172 C 0.43395 0.74997 0.74809 0.0
C1173 C 0.46133 0.7768 0.74895 0.0
C1174 C 0.40698 0.74951 0.75457 0.0
C1175 C 0.40731 0.77643 0.76292 0.0
C1176 C 0.43476 0.80338 0.76544 0.0
C1177 C 0.46133 0.80329 0.75799 0.0
C1178 C 0.37808 0.72035 0.75101 0.0
C1179 C 0.43602 0.83254 0.77463 0.0
H1180 H 0.3336 0.78924 0.70085 0.0
H1181 H 0.32592 0.77191 0.83332 0.0
H1182 H 0.40555 0.80613 0.68661 0.0
H1183 H 0.38548 0.76672 0.67909 0.0
H1184 H 0.37043 0.78905 0.65948 0.0
H1185 H 0.36055 0.764 0.87051 0.0
H1186 H 0.37811 0.74766 0.84025 0.0
H1187 H 0.39776 0.78673 0.85038 0.0
H1188 H 0.43333 0.72917 0.74212 0.0
H1189 H 0.48204 0.82423 0.75848 0.0
H1190 H 0.36523 0.72117 0.72374 0.0
H1191 H 0.36421 0.71654 0.77931 0.0
H1192 H 0.38167 0.70111 0.74696 0.0
H1193 H 0.42648 0.83867 0.7479 0.0
H1194 H 0.45912 0.85095 0.77997 0.0
H1195 H 0.42247 0.83036 0.80273 0.0
C1196 C 0.57483 0.34036 0.28163 0.0
C1197 C 0.55009 0.33753 0.25986 0.0
C1198 C 0.60266 0.36653 0.27846 0.0
C1199 C 0.6056 0.39029 0.2531 0.0
C1200 C 0.58048 0.38778 0.23206 0.0
C1201 C 0.55309 0.3615 0.23573 0.0
C1202 C 0.62903 0.36851 0.30138 0.0
C1203 C 0.58264 0.41263 0.20485 0.0
C1204 C 0.6698 0.46904 0.26676 0.0
C1205 C 0.68845 0.47155 0.23326 0.0
C1206 C 0.64319 0.44243 0.27435 0.0
C1207 C 0.63494 0.41773 0.24771 0.0
C1208 C 0.65378 0.41998 0.2141 0.0
C1209 C 0.68033 0.44686 0.20731 0.0
C1210 C 0.62375 0.44083 0.31065 0.0
C1211 C 0.64562 0.39416 0.18482 0.0
H1212 H 0.57268 0.32186 0.30013 0.0
H1213 H 0.53402 0.3596 0.21907 0.0
H1214 H 0.64611 0.37075 0.27846 0.0
H1215 H 0.63943 0.3886 0.32156 0.0
H1216 H 0.62278 0.34863 0.32119 0.0
H1217 H 0.56083 0.40733 0.19128 0.0
H1218 H 0.59135 0.43341 0.22341 0.0
H1219 H 0.5985 0.41711 0.1788 0.0
H1220 H 0.67624 0.48777 0.28756 0.0
H1221 H 0.69459 0.4487 0.18133 0.0
H1222 H 0.61924 0.42184 0.33135 0.0
H1223 H 0.602 0.43689 0.29875 0.0
H1224 H 0.63405 0.46154 0.32964 0.0
H1225 H 0.64125 0.37412 0.20295 0.0
H1226 H 0.66338 0.39903 0.16148 0.0
H1227 H 0.62486 0.38865 0.16777 0.0
C1228 C 0.21947 0.56035 0.78649 0.0
C1229 C 0.21457 0.54502 0.74851 0.0
C1230 C 0.22155 0.58844 0.78774 0.0
C1231 C 0.21923 0.60159 0.75002 0.0
C1232 C 0.21525 0.58656 0.71151 0.0
C1233 C 0.21271 0.55842 0.71128 0.0
C1234 C 0.22542 0.60367 0.82945 0.0
C1235 C 0.21322 0.60001 0.67048 0.0
C1236 C 0.19265 0.65765 0.74837 0.0
C1237 C 0.21935 0.68464 0.74307 0.0
C1238 C 0.19247 0.63064 0.75245 0.0
C1239 C 0.2196 0.63045 0.75051 0.0
C1240 C 0.2467 0.65757 0.74573 0.0
C1241 C 0.24627 0.68433 0.74235 0.0
C1242 C 0.1631 0.6022 0.75784 0.0
C1243 C 0.2761 0.65827 0.74312 0.0
H1244 H 0.2209 0.55007 0.81532 0.0
H1245 H 0.20934 0.5469 0.68167 0.0
H1246 H 0.24513 0.62637 0.82861 0.0
H1247 H 0.20575 0.60612 0.83594 0.0
H1248 H 0.2281 0.59111 0.85567 0.0
H1249 H 0.21176 0.58616 0.64306 0.0
H1250 H 0.19329 0.60265 0.67059 0.0
H1251 H 0.23295 0.62249 0.66649 0.0
H1252 H 0.17172 0.65746 0.74866 0.0
H1253 H 0.26713 0.70499 0.73929 0.0
H1254 H 0.16408 0.58953 0.78523 0.0
H1255 H 0.15848 0.58791 0.72978 0.0
H1256 H 0.14429 0.60639 0.7623 0.0
H1257 H 0.27888 0.64671 0.77049 0.0
H1258 H 0.29532 0.68133 0.7419 0.0
H1259 H 0.27652 0.64624 0.71461 0.0
C1260 C 0.56142 0.2418 0.21405 0.0
C1261 C 0.53534 0.22349 0.23655 0.0
C1262 C 0.5877 0.24116 0.22185 0.0
C1263 C 0.58791 0.2219 0.25315 0.0
C1264 C 0.56186 0.20393 0.2767 0.0
C1265 C 0.53586 0.20484 0.26796 0.0
C1266 C 0.61498 0.26044 0.19578 0.0
C1267 C 0.56132 0.18339 0.31066 0.0
C1268 C 0.64304 0.195 0.23957 0.0
C1269 C 0.66621 0.21393 0.26656 0.0
C1270 C 0.61741 0.19725 0.23534 0.0
C1271 C 0.61464 0.2188 0.25893 0.0
C1272 C 0.63747 0.23742 0.28722 0.0
C1273 C 0.66308 0.2348 0.29066 0.0
C1274 C 0.5936 0.177 0.20477 0.0
C1275 C 0.63511 0.26049 0.31311 0.0
H1276 H 0.56107 0.25617 0.18968 0.0
H1277 H 0.51595 0.19115 0.2861 0.0
H1278 H 0.63425 0.27427 0.21639 0.0
H1279 H 0.6208 0.24616 0.1768 0.0
H1280 H 0.61162 0.27535 0.17428 0.0
H1281 H 0.53989 0.1724 0.32801 0.0
H1282 H 0.56496 0.1659 0.29666 0.0
H1283 H 0.57962 0.19595 0.33332 0.0
H1284 H 0.64513 0.17869 0.22092 0.0
H1285 H 0.68091 0.24958 0.31144 0.0
H1286 H 0.59063 0.19049 0.18028 0.0
H1287 H 0.572 0.16405 0.22121 0.0
H1288 H 0.59905 0.16119 0.18915 0.0
H1289 H 0.63459 0.2773 0.29217 0.0
H1290 H 0.65401 0.27211 0.33526 0.0
H1291 H 0.61404 0.24993 0.33122 0.0
C1292 C 0.44705 0.62376 0.76303 0.0
C1293 C 0.45682 0.65045 0.74103 0.0
C1294 C 0.41808 0.59969 0.75756 0.0
C1295 C 0.39861 0.60228 0.72899 0.0
C1296 C 0.40813 0.62939 0.70739 0.0
C1297 C 0.43704 0.65319 0.71387 0.0
C1298 C 0.4085 0.57131 0.78173 0.0
C1299 C 0.38812 0.63296 0.67644 0.0
C1300 C 0.33672 0.53104 0.68129 0.0
C1301 C 0.31188 0.52704 0.70398 0.0
C1302 C 0.36505 0.55556 0.68893 0.0
C1303 C 0.36865 0.5763 0.7205 0.0
C1304 C 0.34365 0.57231 0.74362 0.0
C1305 C 0.31552 0.54783 0.73487 0.0
C1306 C 0.39109 0.55936 0.66307 0.0
C1307 C 0.34665 0.59372 0.77789 0.0
H1308 H 0.46213 0.62152 0.78422 0.0
H1309 H 0.44438 0.67371 0.69665 0.0
H1310 H 0.3875 0.56475 0.79884 0.0
H1311 H 0.40405 0.55301 0.7597 0.0
H1312 H 0.42561 0.5735 0.80463 0.0
H1313 H 0.39856 0.65581 0.66323 0.0
H1314 H 0.3826 0.61697 0.65025 0.0
H1315 H 0.36688 0.62782 0.6917 0.0
H1316 H 0.33389 0.51516 0.65714 0.0
H1317 H 0.29641 0.54454 0.75286 0.0
H1318 H 0.40824 0.55933 0.68378 0.0
H1319 H 0.40156 0.58115 0.6467 0.0
H1320 H 0.38446 0.54148 0.63932 0.0
H1321 H 0.36238 0.59461 0.80217 0.0
H1322 H 0.32502 0.58733 0.79311 0.0
H1323 H 0.35599 0.61649 0.7649 0.0
C1324 C 0.79174 0.33247 0.27024 0.0
C1325 C 0.77476 0.31253 0.2384 0.0
C1326 C 0.79137 0.35901 0.27658 0.0
C1327 C 0.77376 0.36593 0.25021 0.0
C1328 C 0.756 0.34559 0.21862 0.0
C1329 C 0.75663 0.31906 0.2132 0.0
C1330 C 0.81036 0.37995 0.3109 0.0
C1331 C 0.7371 0.35231 0.18966 0.0
C1332 C 0.75936 0.42846 0.2816 0.0
C1333 C 0.78123 0.45234 0.25831 0.0
C1334 C 0.75656 0.40008 0.27938 0.0
C1335 C 0.77606 0.39561 0.25327 0.0
C1336 C 0.7983 0.4197 0.23008 0.0
C1337 C 0.80065 0.4477 0.23298 0.0
C1338 C 0.73265 0.37488 0.30467 0.0
C1339 C 0.81954 0.41589 0.20183 0.0
H1340 H 0.80521 0.3272 0.29049 0.0
H1341 H 0.74351 0.30374 0.18855 0.0
H1342 H 0.82808 0.40095 0.29688 0.0
H1343 H 0.79672 0.38578 0.3313 0.0
H1344 H 0.82101 0.37027 0.33068 0.0
H1345 H 0.72295 0.33327 0.16877 0.0
H1346 H 0.72255 0.35807 0.20806 0.0
H1347 H 0.75165 0.37188 0.16992 0.0
H1348 H 0.74416 0.4318 0.30105 0.0
H1349 H 0.81769 0.46596 0.21495 0.0
H1350 H 0.74282 0.36555 0.32598 0.0
H1351 H 0.71735 0.35666 0.28348 0.0
H1352 H 0.71941 0.38205 0.32368 0.0
H1353 H 0.83248 0.4082 0.22041 0.0
H1354 H 0.83537 0.43684 0.18552 0.0
H1355 H 0.80688 0.39861 0.17786 0.0
loop_
_geom_bond_atom_site_label_1
_geom_bond_atom_site_label_2
_geom_bond_distance
_geom_bond_site_symmetry_2
_ccdc_geom_bond_type
Co0 N4 2.148 . S
Co0 N10 2.128 . S
Co0 N20 2.194 . S
Co0 O25 2.351 . S
Co0 O26 2.155 . S
Co0 O27 2.096 . S
C1 N4 1.301 . S
C1 N5 1.328 . S
C1 H6 0.930 . S
C2 C3 1.333 . S
C2 N4 1.317 . S
C2 H7 0.930 . S
C3 C2 1.333 . S
C3 N5 1.350 . S
C3 H29 0.931 . S
N4 Co0 2.148 . S
N4 C1 1.301 . S
N4 C2 1.317 . S
N5 C1 1.328 . S
N5 C3 1.350 . S
H6 C1 0.930 . S
H7 C2 0.930 . S
C8 O9 1.224 . S
C8 O27 1.247 . S
O9 C8 1.224 . S
N10 Co0 2.128 . S
N10 C11 1.355 . S
N10 C13 1.311 . S
C11 N10 1.355 . S
C11 C12 1.363 . S
C11 H23 0.929 . S
C12 C11 1.363 . S
C12 N14 1.375 . S
C12 H30 0.931 . S
C13 N10 1.311 . S
C13 N14 1.347 . S
C13 H24 0.929 . S
N14 C12 1.375 . S
N14 C13 1.347 . S
C15 C18 1.365 . S
C15 N20 1.328 . S
C15 H21 0.929 . S
C16 C17 1.362 . S
C16 C19 1.378 . S
C16 H31 0.929 . S
C17 C16 1.362 . S
C17 C18 1.366 . S
C18 C15 1.365 . S
C18 C17 1.366 . S
C18 H32 0.930 . S
C19 C16 1.378 . S
C19 N20 1.315 . S
C19 H22 0.930 . S
N20 Co0 2.194 . S
N20 C15 1.328 . S
N20 C19 1.315 . S
H21 C15 0.929 . S
H22 C19 0.930 . S
H23 C11 0.929 . S
H24 C13 0.929 . S
O25 Co0 2.351 . S
O25 C28 1.244 . S
O26 Co0 2.155 . S
O26 C28 1.240 . S
O27 Co0 2.096 . S
O27 C8 1.247 . S
C28 O25 1.244 . S
C28 O26 1.240 . S
H29 C3 0.931 . S
H30 C12 0.931 . S
H31 C16 0.929 . S
H32 C18 0.930 . S
Co33 N37 2.148 . S
Co33 N43 2.128 . S
Co33 N53 2.194 . S
Co33 O58 2.351 . S
Co33 O59 2.155 . S
Co33 O60 2.096 . S
C34 N37 1.301 . S
C34 N38 1.328 . S
C34 H39 0.930 . S
C35 C36 1.333 . S
C35 N37 1.317 . S
C35 H40 0.930 . S
C36 C35 1.333 . S
C36 N38 1.350 . S
C36 H62 0.931 . S
N37 Co33 2.148 . S
N37 C34 1.301 . S
N37 C35 1.317 . S
N38 C34 1.328 . S
N38 C36 1.350 . S
H39 C34 0.930 . S
H40 C35 0.930 . S
C41 O42 1.224 . S
C41 O60 1.247 . S
O42 C41 1.224 . S
N43 Co33 2.128 . S
N43 C44 1.355 . S
N43 C46 1.311 . S
C44 N43 1.355 . S
C44 C45 1.363 . S
C44 H56 0.929 . S
C45 C44 1.363 . S
C45 N47 1.375 . S
C45 H63 0.931 . S
C46 N43 1.311 . S
C46 N47 1.347 . S
C46 H57 0.929 . S
N47 C45 1.375 . S
N47 C46 1.347 . S
C48 C51 1.365 . S
C48 N53 1.328 . S
C48 H54 0.929 . S
C49 C50 1.362 . S
C49 C52 1.378 . S
C49 H64 0.929 . S
C50 C49 1.362 . S
C50 C51 1.366 . S
C51 C48 1.365 . S
C51 C50 1.366 . S
C51 H65 0.930 . S
C52 C49 1.378 . S
C52 N53 1.315 . S
C52 H55 0.930 . S
N53 Co33 2.194 . S
N53 C48 1.328 . S
N53 C52 1.315 . S
H54 C48 0.929 . S
H55 C52 0.930 . S
H56 C44 0.929 . S
H57 C46 0.929 . S
O58 Co33 2.351 . S
O58 C61 1.244 . S
O59 Co33 2.155 . S
O59 C61 1.240 . S
O60 Co33 2.096 . S
O60 C41 1.247 . S
C61 O58 1.244 . S
C61 O59 1.240 . S
H62 C36 0.931 . S
H63 C45 0.931 . S
H64 C49 0.929 . S
H65 C51 0.930 . S
Co66 N70 2.148 . S
Co66 N76 2.128 . S
Co66 N86 2.194 . S
Co66 O91 2.351 . S
Co66 O92 2.155 . S
Co66 O93 2.096 . S
C67 N70 1.301 . S
C67 N71 1.328 . S
C67 H72 0.930 . S
C68 C69 1.333 . S
C68 N70 1.317 . S
C68 H73 0.930 . S
C69 C68 1.333 . S
C69 N71 1.350 . S
C69 H95 0.931 . S
N70 Co66 2.148 . S
N70 C67 1.301 . S
N70 C68 1.317 . S
N71 C67 1.328 . S
N71 C69 1.350 . S
H72 C67 0.930 . S
H73 C68 0.930 . S
C74 O75 1.224 . S
C74 O93 1.247 . S
O75 C74 1.224 . S
N76 Co66 2.128 . S
N76 C77 1.355 . S
N76 C79 1.311 . S
C77 N76 1.355 . S
C77 C78 1.363 . S
C77 H89 0.929 . S
C78 C77 1.363 . S
C78 N80 1.375 . S
C78 H96 0.931 . S
C79 N76 1.311 . S
C79 N80 1.347 . S
C79 H90 0.929 . S
N80 C78 1.375 . S
N80 C79 1.347 . S
C81 C84 1.365 . S
C81 N86 1.328 . S
C81 H87 0.929 . S
C82 C83 1.362 . S
C82 C85 1.378 . S
C82 H97 0.929 . S
C83 C82 1.362 . S
C83 C84 1.366 . S
C84 C81 1.365 . S
C84 C83 1.366 . S
C84 H98 0.930 . S
C85 C82 1.378 . S
C85 N86 1.315 . S
C85 H88 0.930 . S
N86 Co66 2.194 . S
N86 C81 1.328 . S
N86 C85 1.315 . S
H87 C81 0.929 . S
H88 C85 0.930 . S
H89 C77 0.929 . S
H90 C79 0.929 . S
O91 Co66 2.351 . S
O91 C94 1.244 . S
O92 Co66 2.155 . S
O92 C94 1.240 . S
O93 Co66 2.096 . S
O93 C74 1.247 . S
C94 O91 1.244 . S
C94 O92 1.240 . S
H95 C69 0.931 . S
H96 C78 0.931 . S
H97 C82 0.929 . S
H98 C84 0.930 . S
Co99 N103 2.148 . S
Co99 N109 2.128 . S
Co99 N119 2.194 . S
Co99 O124 2.351 . S
Co99 O125 2.155 . S
Co99 O126 2.096 . S
C100 N103 1.301 . S
C100 N104 1.328 . S
C100 H105 0.930 . S
C101 C102 1.333 . S
C101 N103 1.317 . S
C101 H106 0.930 . S
C102 C101 1.333 . S
C102 N104 1.350 . S
C102 H128 0.931 . S
N103 Co99 2.148 . S
N103 C100 1.301 . S
N103 C101 1.317 . S
N104 C100 1.328 . S
N104 C102 1.350 . S
H105 C100 0.930 . S
H106 C101 0.930 . S
C107 O108 1.224 . S
C107 O126 1.247 . S
O108 C107 1.224 . S
N109 Co99 2.128 . S
N109 C110 1.355 . S
N109 C112 1.311 . S
C110 N109 1.355 . S
C110 C111 1.363 . S
C110 H122 0.929 . S
C111 C110 1.363 . S
C111 N113 1.375 . S
C111 H129 0.931 . S
C112 N109 1.311 . S
C112 N113 1.347 . S
C112 H123 0.929 . S
N113 C111 1.375 . S
N113 C112 1.347 . S
C114 C117 1.365 . S
C114 N119 1.328 . S
C114 H120 0.929 . S
C115 C116 1.362 . S
C115 C118 1.378 . S
C115 H130 0.929 . S
C116 C115 1.362 . S
C116 C117 1.366 . S
C117 C114 1.365 . S
C117 C116 1.366 . S
C117 H131 0.930 . S
C118 C115 1.378 . S
C118 N119 1.315 . S
C118 H121 0.930 . S
N119 Co99 2.194 . S
N119 C114 1.328 . S
N119 C118 1.315 . S
H120 C114 0.929 . S
H121 C118 0.930 . S
H122 C110 0.929 . S
H123 C112 0.929 . S
O124 Co99 2.351 . S
O124 C127 1.244 . S
O125 Co99 2.155 . S
O125 C127 1.240 . S
O126 Co99 2.096 . S
O126 C107 1.247 . S
C127 O124 1.244 . S
C127 O125 1.240 . S
H128 C102 0.931 . S
H129 C111 0.931 . S
H130 C115 0.929 . S
H131 C117 0.930 . S
Co132 N136 2.148 . S
Co132 N142 2.128 . S
Co132 N152 2.194 . S
Co132 O157 2.351 . S
Co132 O158 2.155 . S
Co132 O159 2.096 . S
C133 N136 1.301 . S
C133 N137 1.328 . S
C133 H138 0.930 . S
C134 C135 1.333 . S
C134 N136 1.317 . S
C134 H139 0.930 . S
C135 C134 1.333 . S
C135 N137 1.350 . S
C135 H161 0.931 . S
N136 Co132 2.148 . S
N136 C133 1.301 . S
N136 C134 1.317 . S
N137 C133 1.328 . S
N137 C135 1.350 . S
H138 C133 0.930 . S
H139 C134 0.930 . S
C140 O141 1.224 . S
C140 O159 1.247 . S
O141 C140 1.224 . S
N142 Co132 2.128 . S
N142 C143 1.355 . S
N142 C145 1.311 . S
C143 N142 1.355 . S
C143 C144 1.363 . S
C143 H155 0.929 . S
C144 C143 1.363 . S
C144 N146 1.375 . S
C144 H162 0.931 . S
C145 N142 1.311 . S
C145 N146 1.347 . S
C145 H156 0.929 . S
N146 C144 1.375 . S
N146 C145 1.347 . S
C147 C150 1.365 . S
C147 N152 1.328 . S
C147 H153 0.929 . S
C148 C149 1.362 . S
C148 C151 1.378 . S
C148 H163 0.929 . S
C149 C148 1.362 . S
C149 C150 1.366 . S
C150 C147 1.365 . S
C150 C149 1.366 . S
C150 H164 0.930 . S
C151 C148 1.378 . S
C151 N152 1.315 . S
C151 H154 0.930 . S
N152 Co132 2.194 . S
N152 C147 1.328 . S
N152 C151 1.315 . S
H153 C147 0.929 . S
H154 C151 0.930 . S
H155 C143 0.929 . S
H156 C145 0.929 . S
O157 Co132 2.351 . S
O157 C160 1.244 . S
O158 Co132 2.155 . S
O158 C160 1.240 . S
O159 Co132 2.096 . S
O159 C140 1.247 . S
C160 O157 1.244 . S
C160 O158 1.240 . S
H161 C135 0.931 . S
H162 C144 0.931 . S
H163 C148 0.929 . S
H164 C150 0.930 . S
Co165 N169 2.148 . S
Co165 N175 2.128 . S
Co165 N185 2.194 . S
Co165 O190 2.351 . S
Co165 O191 2.155 . S
Co165 O192 2.096 . S
C166 N169 1.301 . S
C166 N170 1.328 . S
C166 H171 0.930 . S
C167 C168 1.333 . S
C167 N169 1.317 . S
C167 H172 0.930 . S
C168 C167 1.333 . S
C168 N170 1.350 . S
C168 H194 0.931 . S
N169 Co165 2.148 . S
N169 C166 1.301 . S
N169 C167 1.317 . S
N170 C166 1.328 . S
N170 C168 1.350 . S
H171 C166 0.930 . S
H172 C167 0.930 . S
C173 O174 1.224 . S
C173 O192 1.247 . S
O174 C173 1.224 . S
N175 Co165 2.128 . S
N175 C176 1.355 . S
N175 C178 1.311 . S
C176 N175 1.355 . S
C176 C177 1.363 . S
C176 H188 0.929 . S
C177 C176 1.363 . S
C177 N179 1.375 . S
C177 H195 0.931 . S
C178 N175 1.311 . S
C178 N179 1.347 . S
C178 H189 0.929 . S
N179 C177 1.375 . S
N179 C178 1.347 . S
C180 C183 1.365 . S
C180 N185 1.328 . S
C180 H186 0.929 . S
C181 C182 1.362 . S
C181 C184 1.378 . S
C181 H196 0.929 . S
C182 C181 1.362 . S
C182 C183 1.366 . S
C183 C180 1.365 . S
C183 C182 1.366 . S
C183 H197 0.930 . S
C184 C181 1.378 . S
C184 N185 1.315 . S
C184 H187 0.930 . S
N185 Co165 2.194 . S
N185 C180 1.328 . S
N185 C184 1.315 . S
H186 C180 0.929 . S
H187 C184 0.930 . S
H188 C176 0.929 . S
H189 C178 0.929 . S
O190 Co165 2.351 . S
O190 C193 1.244 . S
O191 Co165 2.155 . S
O191 C193 1.240 . S
O192 Co165 2.096 . S
O192 C173 1.247 . S
C193 O190 1.244 . S
C193 O191 1.240 . S
H194 C168 0.931 . S
H195 C177 0.931 . S
H196 C181 0.929 . S
H197 C183 0.930 . S
Co198 N202 2.148 . S
Co198 N208 2.128 . S
Co198 N218 2.194 . S
Co198 O223 2.351 . S
Co198 O224 2.155 . S
Co198 O225 2.096 . S
C199 N202 1.301 . S
C199 N203 1.328 . S
C199 H204 0.930 . S
C200 C201 1.333 . S
C200 N202 1.317 . S
C200 H205 0.930 . S
C201 C200 1.333 . S
C201 N203 1.350 . S
C201 H227 0.931 . S
N202 Co198 2.148 . S
N202 C199 1.301 . S
N202 C200 1.317 . S
N203 C199 1.328 . S
N203 C201 1.350 . S
H204 C199 0.930 . S
H205 C200 0.930 . S
C206 O207 1.224 . S
C206 O225 1.247 . S
O207 C206 1.224 . S
N208 Co198 2.128 . S
N208 C209 1.355 . S
N208 C211 1.311 . S
C209 N208 1.355 . S
C209 C210 1.363 . S
C209 H221 0.929 . S
C210 C209 1.363 . S
C210 N212 1.375 . S
C210 H228 0.931 . S
C211 N208 1.311 . S
C211 N212 1.347 . S
C211 H222 0.929 . S
N212 C210 1.375 . S
N212 C211 1.347 . S
C213 C216 1.365 . S
C213 N218 1.328 . S
C213 H219 0.929 . S
C214 C215 1.362 . S
C214 C217 1.378 . S
C214 H229 0.929 . S
C215 C214 1.362 . S
C215 C216 1.366 . S
C216 C213 1.365 . S
C216 C215 1.366 . S
C216 H230 0.930 . S
C217 C214 1.378 . S
C217 N218 1.315 . S
C217 H220 0.930 . S
N218 Co198 2.194 . S
N218 C213 1.328 . S
N218 C217 1.315 . S
H219 C213 0.929 . S
H220 C217 0.930 . S
H221 C209 0.929 . S
H222 C211 0.929 . S
O223 Co198 2.351 . S
O223 C226 1.244 . S
O224 Co198 2.155 . S
O224 C226 1.240 . S
O225 Co198 2.096 . S
O225 C206 1.247 . S
C226 O223 1.244 . S
C226 O224 1.240 . S
H227 C201 0.931 . S
H228 C210 0.931 . S
H229 C214 0.929 . S
H230 C216 0.930 . S
Co231 N235 2.148 . S
Co231 N241 2.128 . S
Co231 N251 2.194 . S
Co231 O256 2.351 . S
Co231 O257 2.155 . S
Co231 O258 2.096 . S
C232 N235 1.301 . S
C232 N236 1.328 . S
C232 H237 0.930 . S
C233 C234 1.333 . S
C233 N235 1.317 . S
C233 H238 0.930 . S
C234 C233 1.333 . S
C234 N236 1.350 . S
C234 H260 0.931 . S
N235 Co231 2.148 . S
N235 C232 1.301 . S
N235 C233 1.317 . S
N236 C232 1.328 . S
N236 C234 1.350 . S
H237 C232 0.930 . S
H238 C233 0.930 . S
C239 O240 1.224 . S
C239 O258 1.247 . S
O240 C239 1.224 . S
N241 Co231 2.128 . S
N241 C242 1.355 . S
N241 C244 1.311 . S
C242 N241 1.355 . S
C242 C243 1.363 . S
C242 H254 0.929 . S
C243 C242 1.363 . S
C243 N245 1.375 . S
C243 H261 0.931 . S
C244 N241 1.311 . S
C244 N245 1.347 . S
C244 H255 0.929 . S
N245 C243 1.375 . S
N245 C244 1.347 . S
C246 C249 1.365 . S
C246 N251 1.328 . S
C246 H252 0.929 . S
C247 C248 1.362 . S
C247 C250 1.378 . S
C247 H262 0.929 . S
C248 C247 1.362 . S
C248 C249 1.366 . S
C249 C246 1.365 . S
C249 C248 1.366 . S
C249 H263 0.930 . S
C250 C247 1.378 . S
C250 N251 1.315 . S
C250 H253 0.930 . S
N251 Co231 2.194 . S
N251 C246 1.328 . S
N251 C250 1.315 . S
H252 C246 0.929 . S
H253 C250 0.930 . S
H254 C242 0.929 . S
H255 C244 0.929 . S
O256 Co231 2.351 . S
O256 C259 1.244 . S
O257 Co231 2.155 . S
O257 C259 1.240 . S
O258 Co231 2.096 . S
O258 C239 1.247 . S
C259 O256 1.244 . S
C259 O257 1.240 . S
H260 C234 0.931 . S
H261 C243 0.931 . S
H262 C247 0.929 . S
H263 C249 0.930 . S
Co264 N268 2.148 . S
Co264 N274 2.128 . S
Co264 N284 2.194 . S
Co264 O289 2.351 . S
Co264 O290 2.155 . S
Co264 O291 2.096 . S
C265 N268 1.301 . S
C265 N269 1.328 . S
C265 H270 0.930 . S
C266 C267 1.333 . S
C266 N268 1.317 . S
C266 H271 0.930 . S
C267 C266 1.333 . S
C267 N269 1.350 . S
C267 H293 0.931 . S
N268 Co264 2.148 . S
N268 C265 1.301 . S
N268 C266 1.317 . S
N269 C265 1.328 . S
N269 C267 1.350 . S
H270 C265 0.930 . S
H271 C266 0.930 . S
C272 O273 1.224 . S
C272 O291 1.247 . S
O273 C272 1.224 . S
N274 Co264 2.128 . S
N274 C275 1.355 . S
N274 C277 1.311 . S
C275 N274 1.355 . S
C275 C276 1.363 . S
C275 H287 0.929 . S
C276 C275 1.363 . S
C276 N278 1.375 . S
C276 H294 0.931 . S
C277 N274 1.311 . S
C277 N278 1.347 . S
C277 H288 0.929 . S
N278 C276 1.375 . S
N278 C277 1.347 . S
C279 C282 1.365 . S
C279 N284 1.328 . S
C279 H285 0.929 . S
C280 C281 1.362 . S
C280 C283 1.378 . S
C280 H295 0.929 . S
C281 C280 1.362 . S
C281 C282 1.366 . S
C282 C279 1.365 . S
C282 C281 1.366 . S
C282 H296 0.930 . S
C283 C280 1.378 . S
C283 N284 1.315 . S
C283 H286 0.930 . S
N284 Co264 2.194 . S
N284 C279 1.328 . S
N284 C283 1.315 . S
H285 C279 0.929 . S
H286 C283 0.930 . S
H287 C275 0.929 . S
H288 C277 0.929 . S
O289 Co264 2.351 . S
O289 C292 1.244 . S
O290 Co264 2.155 . S
O290 C292 1.240 . S
O291 Co264 2.096 . S
O291 C272 1.247 . S
C292 O289 1.244 . S
C292 O290 1.240 . S
H293 C267 0.931 . S
H294 C276 0.931 . S
H295 C280 0.929 . S
H296 C282 0.930 . S
Co297 N301 2.148 . S
Co297 N307 2.128 . S
Co297 N317 2.194 . S
Co297 O322 2.351 . S
Co297 O323 2.155 . S
Co297 O324 2.096 . S
C298 N301 1.301 . S
C298 N302 1.328 . S
C298 H303 0.930 . S
C299 C300 1.333 . S
C299 N301 1.317 . S
C299 H304 0.930 . S
C300 C299 1.333 . S
C300 N302 1.350 . S
C300 H326 0.931 . S
N301 Co297 2.148 . S
N301 C298 1.301 . S
N301 C299 1.317 . S
N302 C298 1.328 . S
N302 C300 1.350 . S
H303 C298 0.930 . S
H304 C299 0.930 . S
C305 O306 1.224 . S
C305 O324 1.247 . S
O306 C305 1.224 . S
N307 Co297 2.128 . S
N307 C308 1.355 . S
N307 C310 1.311 . S
C308 N307 1.355 . S
C308 C309 1.363 . S
C308 H320 0.929 . S
C309 C308 1.363 . S
C309 N311 1.375 . S
C309 H327 0.931 . S
C310 N307 1.311 . S
C310 N311 1.347 . S
C310 H321 0.929 . S
N311 C309 1.375 . S
N311 C310 1.347 . S
C312 C315 1.365 . S
C312 N317 1.328 . S
C312 H318 0.929 . S
C313 C314 1.362 . S
C313 C316 1.378 . S
C313 H328 0.929 . S
C314 C313 1.362 . S
C314 C315 1.366 . S
C315 C312 1.365 . S
C315 C314 1.366 . S
C315 H329 0.930 . S
C316 C313 1.378 . S
C316 N317 1.315 . S
C316 H319 0.930 . S
N317 Co297 2.194 . S
N317 C312 1.328 . S
N317 C316 1.315 . S
H318 C312 0.929 . S
H319 C316 0.930 . S
H320 C308 0.929 . S
H321 C310 0.929 . S
O322 Co297 2.351 . S
O322 C325 1.244 . S
O323 Co297 2.155 . S
O323 C325 1.240 . S
O324 Co297 2.096 . S
O324 C305 1.247 . S
C325 O322 1.244 . S
C325 O323 1.240 . S
H326 C300 0.931 . S
H327 C309 0.931 . S
H328 C313 0.929 . S
H329 C315 0.930 . S
Co330 N334 2.148 . S
Co330 N340 2.128 . S
Co330 N350 2.194 . S
Co330 O355 2.351 . S
Co330 O356 2.155 . S
Co330 O357 2.096 . S
C331 N334 1.301 . S
C331 N335 1.328 . S
C331 H336 0.930 . S
C332 C333 1.333 . S
C332 N334 1.317 . S
C332 H337 0.930 . S
C333 C332 1.333 . S
C333 N335 1.350 . S
C333 H359 0.931 . S
N334 Co330 2.148 . S
N334 C331 1.301 . S
N334 C332 1.317 . S
N335 C331 1.328 . S
N335 C333 1.350 . S
H336 C331 0.930 . S
H337 C332 0.930 . S
C338 O339 1.224 . S
C338 O357 1.247 . S
O339 C338 1.224 . S
N340 Co330 2.128 . S
N340 C341 1.355 . S
N340 C343 1.311 . S
C341 N340 1.355 . S
C341 C342 1.363 . S
C341 H353 0.929 . S
C342 C341 1.363 . S
C342 N344 1.375 . S
C342 H360 0.931 . S
C343 N340 1.311 . S
C343 N344 1.347 . S
C343 H354 0.929 . S
N344 C342 1.375 . S
N344 C343 1.347 . S
C345 C348 1.365 . S
C345 N350 1.328 . S
C345 H351 0.929 . S
C346 C347 1.362 . S
C346 C349 1.378 . S
C346 H361 0.929 . S
C347 C346 1.362 . S
C347 C348 1.366 . S
C348 C345 1.365 . S
C348 C347 1.366 . S
C348 H362 0.930 . S
C349 C346 1.378 . S
C349 N350 1.315 . S
C349 H352 0.930 . S
N350 Co330 2.194 . S
N350 C345 1.328 . S
N350 C349 1.315 . S
H351 C345 0.929 . S
H352 C349 0.930 . S
H353 C341 0.929 . S
H354 C343 0.929 . S
O355 Co330 2.351 . S
O355 C358 1.244 . S
O356 Co330 2.155 . S
O356 C358 1.240 . S
O357 Co330 2.096 . S
O357 C338 1.247 . S
C358 O355 1.244 . S
C358 O356 1.240 . S
H359 C333 0.931 . S
H360 C342 0.931 . S
H361 C346 0.929 . S
H362 C348 0.930 . S
Co363 N367 2.148 . S
Co363 N373 2.128 . S
Co363 N383 2.194 . S
Co363 O388 2.351 . S
Co363 O389 2.155 . S
Co363 O390 2.096 . S
C364 N367 1.301 . S
C364 N368 1.328 . S
C364 H369 0.930 . S
C365 C366 1.333 . S
C365 N367 1.317 . S
C365 H370 0.930 . S
C366 C365 1.333 . S
C366 N368 1.350 . S
C366 H392 0.931 . S
N367 Co363 2.148 . S
N367 C364 1.301 . S
N367 C365 1.317 . S
N368 C364 1.328 . S
N368 C366 1.350 . S
H369 C364 0.930 . S
H370 C365 0.930 . S
C371 O372 1.224 . S
C371 O390 1.247 . S
O372 C371 1.224 . S
N373 Co363 2.128 . S
N373 C374 1.355 . S
N373 C376 1.311 . S
C374 N373 1.355 . S
C374 C375 1.363 . S
C374 H386 0.929 . S
C375 C374 1.363 . S
C375 N377 1.375 . S
C375 H393 0.931 . S
C376 N373 1.311 . S
C376 N377 1.347 . S
C376 H387 0.929 . S
N377 C375 1.375 . S
N377 C376 1.347 . S
C378 C381 1.365 . S
C378 N383 1.328 . S
C378 H384 0.929 . S
C379 C380 1.362 . S
C379 C382 1.378 . S
C379 H394 0.929 . S
C380 C379 1.362 . S
C380 C381 1.366 . S
C381 C378 1.365 . S
C381 C380 1.366 . S
C381 H395 0.930 . S
C382 C379 1.378 . S
C382 N383 1.315 . S
C382 H385 0.930 . S
N383 Co363 2.194 . S
N383 C378 1.328 . S
N383 C382 1.315 . S
H384 C378 0.929 . S
H385 C382 0.930 . S
H386 C374 0.929 . S
H387 C376 0.929 . S
O388 Co363 2.351 . S
O388 C391 1.244 . S
O389 Co363 2.155 . S
O389 C391 1.240 . S
O390 Co363 2.096 . S
O390 C371 1.247 . S
C391 O388 1.244 . S
C391 O389 1.240 . S
H392 C366 0.931 . S
H393 C375 0.931 . S
H394 C379 0.929 . S
H395 C381 0.930 . S
C396 C397 1.391 . S
C396 C398 1.394 . S
C396 H412 0.931 . S
C397 C396 1.391 . S
C397 C401 1.376 . S
C398 C396 1.394 . S
C398 C399 1.369 . S
C398 C402 1.531 . S
C399 C398 1.369 . S
C399 C400 1.410 . S
C399 C407 1.503 . S
C400 C399 1.410 . S
C400 C401 1.392 . S
C400 C403 1.511 . S
C401 C397 1.376 . S
C401 C400 1.392 . S
C401 H413 0.929 . S
C402 C398 1.531 . S
C402 H414 0.960 . S
C402 H415 0.962 . S
C402 H416 0.960 . S
C403 C400 1.511 . S
C403 H417 0.961 . S
C403 H418 0.961 . S
C403 H419 0.961 . S
C404 C405 1.370 . S
C404 C406 1.363 . S
C404 H420 0.931 . S
C405 C404 1.370 . S
C405 C409 1.408 . S
C406 C404 1.363 . S
C406 C407 1.370 . S
C406 C410 1.524 . S
C407 C399 1.503 . S
C407 C406 1.370 . S
C407 C408 1.403 . S
C408 C407 1.403 . S
C408 C409 1.404 . S
C408 C411 1.539 . S
C409 C405 1.408 . S
C409 C408 1.404 . S
C409 H421 0.930 . S
C410 C406 1.524 . S
C410 H422 0.956 . S
C410 H423 0.961 . S
C410 H424 0.961 . S
C411 C408 1.539 . S
C411 H425 0.958 . S
C411 H426 0.961 . S
C411 H427 0.960 . S
H412 C396 0.931 . S
H413 C401 0.929 . S
H414 C402 0.960 . S
H415 C402 0.962 . S
H416 C402 0.960 . S
H417 C403 0.961 . S
H418 C403 0.961 . S
H419 C403 0.961 . S
H420 C404 0.931 . S
H421 C409 0.930 . S
H422 C410 0.956 . S
H423 C410 0.961 . S
H424 C410 0.961 . S
H425 C411 0.958 . S
H426 C411 0.961 . S
H427 C411 0.960 . S
C428 C429 1.391 . S
C428 C430 1.394 . S
C428 H444 0.931 . S
C429 C428 1.391 . S
C429 C433 1.376 . S
C430 C428 1.394 . S
C430 C431 1.369 . S
C430 C434 1.531 . S
C431 C430 1.369 . S
C431 C432 1.410 . S
C431 C439 1.503 1_655 S
C432 C431 1.410 . S
C432 C433 1.392 . S
C432 C435 1.511 . S
C433 C429 1.376 . S
C433 C432 1.392 . S
C433 H445 0.929 . S
C434 C430 1.531 . S
C434 H446 0.960 1_655 S
C434 H447 0.962 . S
C434 H448 0.960 . S
C435 C432 1.511 . S
C435 H449 0.961 . S
C435 H450 0.977 . S
C435 H451 0.961 . S
C436 C437 1.370 . S
C436 C438 1.363 . S
C436 H452 0.931 . S
C437 C436 1.370 . S
C437 C441 1.408 . S
C438 C436 1.363 . S
C438 C439 1.370 . S
C438 C442 1.524 . S
C439 C431 1.503 1_455 S
C439 C438 1.370 . S
C439 C440 1.403 . S
C440 C439 1.403 . S
C440 C441 1.404 . S
C440 C443 1.539 . S
C441 C437 1.408 . S
C441 C440 1.404 . S
C441 H453 0.930 . S
C442 C438 1.524 . S
C442 H454 0.956 . S
C442 H455 0.961 . S
C442 H456 0.961 . S
C443 C440 1.539 . S
C443 H457 0.958 . S
C443 H458 0.961 . S
C443 H459 0.960 1_455 S
H444 C428 0.931 . S
H445 C433 0.929 . S
H446 C434 0.960 1_455 S
H447 C434 0.962 . S
H448 C434 0.960 . S
H449 C435 0.961 . S
H450 C435 0.977 . S
H451 C435 0.961 . S
H452 C436 0.931 . S
H453 C441 0.930 . S
H454 C442 0.956 . S
H455 C442 0.961 . S
H456 C442 0.961 . S
H457 C443 0.958 . S
H458 C443 0.961 . S
H459 C443 0.960 1_655 S
C460 C461 1.391 . S
C460 C462 1.394 . S
C460 H476 0.931 . S
C461 C460 1.391 . S
C461 C465 1.376 . S
C462 C460 1.394 . S
C462 C463 1.369 . S
C462 C466 1.531 . S
C463 C462 1.369 . S
C463 C464 1.410 . S
C463 C471 1.503 1_545 S
C464 C463 1.410 . S
C464 C465 1.392 . S
C464 C467 1.511 . S
C465 C461 1.376 . S
C465 C464 1.392 . S
C465 H477 0.929 . S
C466 C462 1.531 . S
C466 H478 0.960 1_545 S
C466 H479 0.962 1_545 S
C466 H480 0.960 . S
C467 C464 1.511 . S
C467 H481 0.961 . S
C467 H482 0.961 . S
C467 H483 0.961 . S
C468 C469 1.370 . S
C468 C470 1.363 . S
C468 H484 0.931 . S
C469 C468 1.370 . S
C469 C473 1.408 . S
C470 C468 1.363 . S
C470 C471 1.370 . S
C470 C474 1.524 . S
C471 C463 1.503 1_565 S
C471 C470 1.370 . S
C471 C472 1.403 . S
C472 C471 1.403 . S
C472 C473 1.404 . S
C472 C475 1.539 . S
C473 C469 1.408 . S
C473 C472 1.404 . S
C473 H485 0.930 . S
C474 C470 1.524 . S
C474 H486 0.956 . S
C474 H487 0.961 1_565 S
C474 H488 0.961 . S
C475 C472 1.539 . S
C475 H489 0.958 . S
C475 H490 0.961 . S
C475 H491 0.960 1_565 S
H476 C460 0.931 . S
H477 C465 0.929 . S
H478 C466 0.960 1_565 S
H479 C466 0.962 1_565 S
H480 C466 0.960 . S
H481 C467 0.961 . S
H482 C467 0.961 . S
H483 C467 0.961 . S
H484 C468 0.931 . S
H485 C473 0.930 . S
H486 C474 0.956 . S
H487 C474 0.961 1_545 S
H488 C474 0.961 . S
H489 C475 0.958 . S
H490 C475 0.961 . S
H491 C475 0.960 1_545 S
C492 C493 1.391 . S
C492 C494 1.394 . S
C492 H508 0.931 . S
C493 C492 1.391 . S
C493 C497 1.376 . S
C494 C492 1.394 . S
C494 C495 1.369 . S
C494 C498 1.531 . S
C495 C494 1.369 . S
C495 C496 1.410 . S
C495 C503 1.503 . S
C496 C495 1.410 . S
C496 C497 1.392 . S
C496 C499 1.511 . S
C497 C493 1.376 . S
C497 C496 1.392 . S
C497 H509 0.929 . S
C498 C494 1.531 . S
C498 H510 0.960 . S
C498 H511 0.962 . S
C498 H512 0.960 . S
C499 C496 1.511 . S
C499 H513 0.961 . S
C499 H514 0.961 . S
C499 H515 0.961 . S
C500 C501 1.370 . S
C500 C502 1.363 . S
C500 H516 0.931 . S
C501 C500 1.370 . S
C501 C505 1.408 . S
C502 C500 1.363 . S
C502 C503 1.370 . S
C502 C506 1.524 . S
C503 C495 1.503 . S
C503 C502 1.370 . S
C503 C504 1.403 . S
C504 C503 1.403 . S
C504 C505 1.404 . S
C504 C507 1.539 . S
C505 C501 1.408 . S
C505 C504 1.404 . S
C505 H517 0.930 . S
C506 C502 1.524 . S
C506 H518 0.956 . S
C506 H519 0.961 . S
C506 H520 0.961 . S
C507 C504 1.539 . S
C507 H521 0.958 . S
C507 H522 0.961 . S
C507 H523 0.960 . S
H508 C492 0.931 . S
H509 C497 0.929 . S
H510 C498 0.960 . S
H511 C498 0.962 . S
H512 C498 0.960 . S
H513 C499 0.961 . S
H514 C499 0.961 . S
H515 C499 0.961 . S
H516 C500 0.931 . S
H517 C505 0.930 . S
H518 C506 0.956 . S
H519 C506 0.961 . S
H520 C506 0.961 . S
H521 C507 0.958 . S
H522 C507 0.961 . S
H523 C507 0.960 . S
C524 C525 1.391 . S
C524 C526 1.394 . S
C524 H540 0.931 . S
C525 C524 1.391 . S
C525 C529 1.376 . S
C526 C524 1.394 . S
C526 C527 1.369 . S
C526 C530 1.531 . S
C527 C526 1.369 . S
C527 C528 1.410 . S
C527 C535 1.503 1_455 S
C528 C527 1.410 . S
C528 C529 1.392 . S
C528 C531 1.511 . S
C529 C525 1.376 . S
C529 C528 1.392 . S
C529 H541 0.929 . S
C530 C526 1.531 . S
C530 H542 0.960 . S
C530 H543 0.962 . S
C530 H544 0.960 . S
C531 C528 1.511 . S
C531 H545 0.961 . S
C531 H546 0.961 1_455 S
C531 H547 0.961 . S
C532 C533 1.370 . S
C532 C534 1.363 . S
C532 H548 0.931 . S
C533 C532 1.370 . S
C533 C537 1.408 . S
C534 C532 1.363 . S
C534 C535 1.370 . S
C534 C538 1.524 . S
C535 C527 1.503 1_655 S
C535 C534 1.370 . S
C535 C536 1.403 . S
C536 C535 1.403 . S
C536 C537 1.404 . S
C536 C539 1.539 . S
C537 C533 1.408 . S
C537 C536 1.404 . S
C537 H549 0.930 . S
C538 C534 1.524 . S
C538 H550 0.956 . S
C538 H551 0.961 . S
C538 H552 0.961 . S
C539 C536 1.539 . S
C539 H553 0.958 . S
C539 H554 0.961 . S
C539 H555 0.960 1_655 S
H540 C524 0.931 . S
H541 C529 0.929 . S
H542 C530 0.960 . S
H543 C530 0.962 . S
H544 C530 0.960 . S
H545 C531 0.961 . S
H546 C531 0.961 1_655 S
H547 C531 0.961 . S
H548 C532 0.931 . S
H549 C537 0.930 . S
H550 C538 0.956 . S
H551 C538 0.961 . S
H552 C538 0.961 . S
H553 C539 0.958 . S
H554 C539 0.961 . S
H555 C539 0.960 1_455 S
C556 C557 1.391 . S
C556 C558 1.394 . S
C556 H572 0.931 . S
C557 C556 1.391 . S
C557 C561 1.376 . S
C558 C556 1.394 . S
C558 C559 1.369 . S
C558 C562 1.531 . S
C559 C558 1.369 . S
C559 C560 1.410 . S
C559 C567 1.503 1_565 S
C560 C559 1.410 . S
C560 C561 1.392 . S
C560 C563 1.511 . S
C561 C557 1.376 . S
C561 C560 1.392 . S
C561 H573 0.929 . S
C562 C558 1.531 . S
C562 H574 0.960 1_565 S
C562 H575 0.962 . S
C562 H576 0.960 . S
C563 C560 1.511 . S
C563 H577 0.961 . S
C563 H578 0.961 1_565 S
C563 H579 0.961 . S
C564 C565 1.370 . S
C564 C566 1.363 . S
C564 H580 0.931 . S
C565 C564 1.370 . S
C565 C569 1.408 . S
C566 C564 1.363 . S
C566 C567 1.370 . S
C566 C570 1.524 . S
C567 C559 1.503 1_545 S
C567 C566 1.370 . S
C567 C568 1.403 . S
C568 C567 1.403 . S
C568 C569 1.404 . S
C568 C571 1.539 . S
C569 C565 1.408 . S
C569 C568 1.404 . S
C569 H581 0.930 . S
C570 C566 1.524 . S
C570 H582 0.956 1_545 S
C570 H583 0.961 1_545 S
C570 H584 0.961 . S
C571 C568 1.539 . S
C571 H585 0.958 . S
C571 H586 0.961 . S
C571 H587 0.960 . S
H572 C556 0.931 . S
H573 C561 0.929 . S
H574 C562 0.960 1_545 S
H575 C562 0.962 . S
H576 C562 0.960 . S
H577 C563 0.961 . S
H578 C563 0.961 1_545 S
H579 C563 0.961 . S
H580 C564 0.931 . S
H581 C569 0.930 . S
H582 C570 0.956 1_565 S
H583 C570 0.961 1_565 S
H584 C570 0.961 . S
H585 C571 0.958 . S
H586 C571 0.961 . S
H587 C571 0.960 . S
C588 C589 1.391 . S
C588 C590 1.394 . S
C588 H604 0.931 . S
C589 C588 1.391 . S
C589 C593 1.376 . S
C590 C588 1.394 . S
C590 C591 1.369 . S
C590 C594 1.531 . S
C591 C590 1.369 . S
C591 C592 1.410 . S
C591 C599 1.503 1_556 S
C592 C591 1.410 . S
C592 C593 1.392 . S
C592 C595 1.511 . S
C593 C589 1.376 . S
C593 C592 1.392 . S
C593 H605 0.929 . S
C594 C590 1.531 . S
C594 H606 0.960 . S
C594 H607 0.962 . S
C594 H608 0.960 . S
C595 C592 1.511 . S
C595 H609 0.961 . S
C595 H610 0.961 1_556 S
C595 H611 0.961 . S
C596 C597 1.370 . S
C596 C598 1.363 . S
C596 H612 0.931 . S
C597 C596 1.370 . S
C597 C601 1.408 . S
C598 C596 1.363 . S
C598 C599 1.370 . S
C598 C602 1.524 . S
C599 C591 1.503 1_554 S
C599 C598 1.370 . S
C599 C600 1.403 . S
C600 C599 1.403 . S
C600 C601 1.404 . S
C600 C603 1.539 . S
C601 C597 1.408 . S
C601 C600 1.404 . S
C601 H613 0.930 . S
C602 C598 1.524 . S
C602 H614 0.956 1_554 S
C602 H615 0.961 1_554 S
C602 H616 0.961 . S
C603 C600 1.539 . S
C603 H617 0.958 . S
C603 H618 0.961 . S
C603 H619 0.960 . S
H604 C588 0.931 . S
H605 C593 0.929 . S
H606 C594 0.960 . S
H607 C594 0.962 . S
H608 C594 0.960 . S
H609 C595 0.961 . S
H610 C595 0.961 1_554 S
H611 C595 0.961 . S
H612 C596 0.931 . S
H613 C601 0.930 . S
H614 C602 0.956 1_556 S
H615 C602 0.961 1_556 S
H616 C602 0.961 . S
H617 C603 0.958 . S
H618 C603 0.961 . S
H619 C603 0.960 . S
C620 C621 1.391 . S
C620 C622 1.394 . S
C620 H636 0.931 . S
C621 C620 1.391 . S
C621 C625 1.376 . S
C622 C620 1.394 . S
C622 C623 1.369 . S
C622 C626 1.531 . S
C623 C622 1.369 . S
C623 C624 1.410 . S
C623 C631 1.503 . S
C624 C623 1.410 . S
C624 C625 1.392 . S
C624 C627 1.511 . S
C625 C621 1.376 . S
C625 C624 1.392 . S
C625 H637 0.929 . S
C626 C622 1.531 . S
C626 H638 0.960 . S
C626 H639 0.962 . S
C626 H640 0.960 . S
C627 C624 1.511 . S
C627 H641 0.961 . S
C627 H642 0.961 . S
C627 H643 0.961 . S
C628 C629 1.370 . S
C628 C630 1.363 . S
C628 H644 0.931 . S
C629 C628 1.370 . S
C629 C633 1.408 . S
C630 C628 1.363 . S
C630 C631 1.370 . S
C630 C634 1.524 . S
C631 C623 1.503 . S
C631 C630 1.370 . S
C631 C632 1.403 . S
C632 C631 1.403 . S
C632 C633 1.404 . S
C632 C635 1.539 . S
C633 C629 1.408 . S
C633 C632 1.404 . S
C633 H645 0.930 . S
C634 C630 1.524 . S
C634 H646 0.956 . S
C634 H647 0.961 . S
C634 H648 0.961 . S
C635 C632 1.539 . S
C635 H649 0.958 . S
C635 H650 0.961 . S
C635 H651 0.960 . S
H636 C620 0.931 . S
H637 C625 0.929 . S
H638 C626 0.960 . S
H639 C626 0.962 . S
H640 C626 0.960 . S
H641 C627 0.961 . S
H642 C627 0.961 . S
H643 C627 0.961 . S
H644 C628 0.931 . S
H645 C633 0.930 . S
H646 C634 0.956 . S
H647 C634 0.961 . S
H648 C634 0.961 . S
H649 C635 0.958 . S
H650 C635 0.961 . S
H651 C635 0.960 . S
C652 C653 1.391 . S
C652 C654 1.394 . S
C652 H668 0.931 . S
C653 C652 1.391 . S
C653 C657 1.376 . S
C654 C652 1.394 . S
C654 C655 1.369 . S
C654 C658 1.531 . S
C655 C654 1.369 . S
C655 C656 1.410 . S
C655 C663 1.503 1_554 S
C656 C655 1.410 . S
C656 C657 1.392 . S
C656 C659 1.511 . S
C657 C653 1.376 . S
C657 C656 1.392 . S
C657 H669 0.929 . S
C658 C654 1.531 . S
C658 H670 0.960 1_554 S
C658 H671 0.962 . S
C658 H672 0.960 . S
C659 C656 1.511 . S
C659 H673 0.961 . S
C659 H674 0.961 . S
C659 H675 0.961 . S
C660 C661 1.370 . S
C660 C662 1.363 . S
C660 H676 0.931 . S
C661 C660 1.370 . S
C661 C665 1.408 . S
C662 C660 1.363 . S
C662 C663 1.370 . S
C662 C666 1.524 . S
C663 C655 1.503 1_556 S
C663 C662 1.370 . S
C663 C664 1.403 . S
C664 C663 1.403 . S
C664 C665 1.404 . S
C664 C667 1.539 . S
C665 C661 1.408 . S
C665 C664 1.404 . S
C665 H677 0.930 . S
C666 C662 1.524 . S
C666 H678 0.956 . S
C666 H679 0.961 1_556 S
C666 H680 0.961 . S
C667 C664 1.539 . S
C667 H681 0.958 . S
C667 H682 0.961 . S
C667 H683 0.960 1_556 S
H668 C652 0.931 . S
H669 C657 0.929 . S
H670 C658 0.960 1_556 S
H671 C658 0.962 . S
H672 C658 0.960 . S
H673 C659 0.961 . S
H674 C659 0.961 . S
H675 C659 0.961 . S
H676 C660 0.931 . S
H677 C665 0.930 . S
H678 C666 0.956 . S
H679 C666 0.961 1_554 S
H680 C666 0.961 . S
H681 C667 0.958 . S
H682 C667 0.961 . S
H683 C667 0.960 1_554 S
C684 C685 1.391 . S
C684 C686 1.394 . S
C684 H700 0.931 . S
C685 C684 1.391 . S
C685 C689 1.376 . S
C686 C684 1.394 . S
C686 C687 1.369 . S
C686 C690 1.531 . S
C687 C686 1.369 . S
C687 C688 1.410 . S
C687 C695 1.503 . S
C688 C687 1.410 . S
C688 C689 1.392 . S
C688 C691 1.511 . S
C689 C685 1.376 . S
C689 C688 1.392 . S
C689 H701 0.929 . S
C690 C686 1.531 . S
C690 H702 0.960 . S
C690 H703 0.962 . S
C690 H704 0.960 . S
C691 C688 1.511 . S
C691 H705 0.961 . S
C691 H706 0.961 . S
C691 H707 0.961 . S
C692 C693 1.370 . S
C692 C694 1.363 . S
C692 H708 0.931 . S
C693 C692 1.370 . S
C693 C697 1.408 . S
C694 C692 1.363 . S
C694 C695 1.370 . S
C694 C698 1.524 . S
C695 C687 1.503 . S
C695 C694 1.370 . S
C695 C696 1.403 . S
C696 C695 1.403 . S
C696 C697 1.404 . S
C696 C699 1.539 . S
C697 C693 1.408 . S
C697 C696 1.404 . S
C697 H709 0.930 . S
C698 C694 1.524 . S
C698 H710 0.956 . S
C698 H711 0.961 . S
C698 H712 0.961 . S
C699 C696 1.539 . S
C699 H713 0.958 . S
C699 H714 0.961 . S
C699 H715 0.960 . S
H700 C684 0.931 . S
H701 C689 0.929 . S
H702 C690 0.960 . S
H703 C690 0.962 . S
H704 C690 0.960 . S
H705 C691 0.961 . S
H706 C691 0.961 . S
H707 C691 0.961 . S
H708 C692 0.931 . S
H709 C697 0.930 . S
H710 C698 0.956 . S
H711 C698 0.961 . S
H712 C698 0.961 . S
H713 C699 0.958 . S
H714 C699 0.961 . S
H715 C699 0.960 . S
C716 C717 1.391 . S
C716 C718 1.394 . S
C716 H732 0.931 . S
C717 C716 1.391 . S
C717 C721 1.376 . S
C718 C716 1.394 . S
C718 C719 1.369 . S
C718 C722 1.531 . S
C719 C718 1.369 . S
C719 C720 1.410 . S
C719 C727 1.503 1_556 S
C720 C719 1.410 . S
C720 C721 1.392 . S
C720 C723 1.511 . S
C721 C717 1.376 . S
C721 C720 1.392 . S
C721 H733 0.929 . S
C722 C718 1.531 . S
C722 H734 0.960 . S
C722 H735 0.962 . S
C722 H736 0.960 . S
C723 C720 1.511 . S
C723 H737 0.961 . S
C723 H738 0.961 1_556 S
C723 H739 0.961 . S
C724 C725 1.370 . S
C724 C726 1.363 . S
C724 H740 0.931 . S
C725 C724 1.370 . S
C725 C729 1.408 . S
C726 C724 1.363 . S
C726 C727 1.370 . S
C726 C730 1.524 . S
C727 C719 1.503 1_554 S
C727 C726 1.370 . S
C727 C728 1.403 . S
C728 C727 1.403 . S
C728 C729 1.404 . S
C728 C731 1.539 . S
C729 C725 1.408 . S
C729 C728 1.404 . S
C729 H741 0.930 . S
C730 C726 1.524 . S
C730 H742 0.956 . S
C730 H743 0.961 . S
C730 H744 0.961 . S
C731 C728 1.539 . S
C731 H745 0.958 . S
C731 H746 0.961 . S
C731 H747 0.960 1_554 S
H732 C716 0.931 . S
H733 C721 0.929 . S
H734 C722 0.960 . S
H735 C722 0.962 . S
H736 C722 0.960 . S
H737 C723 0.961 . S
H738 C723 0.961 1_554 S
H739 C723 0.961 . S
H740 C724 0.931 . S
H741 C729 0.930 . S
H742 C730 0.956 . S
H743 C730 0.961 . S
H744 C730 0.961 . S
H745 C731 0.958 . S
H746 C731 0.961 . S
H747 C731 0.960 1_556 S
C748 C749 1.391 . S
C748 C750 1.394 . S
C748 H764 0.931 . S
C749 C748 1.391 . S
C749 C753 1.376 . S
C750 C748 1.394 . S
C750 C751 1.369 . S
C750 C754 1.531 . S
C751 C750 1.369 . S
C751 C752 1.410 . S
C751 C759 1.503 . S
C752 C751 1.410 . S
C752 C753 1.392 . S
C752 C755 1.511 . S
C753 C749 1.376 . S
C753 C752 1.392 . S
C753 H765 0.929 . S
C754 C750 1.531 . S
C754 H766 0.960 . S
C754 H767 0.962 . S
C754 H768 0.960 . S
C755 C752 1.511 . S
C755 H769 0.961 . S
C755 H770 0.961 . S
C755 H771 0.961 . S
C756 C757 1.370 . S
C756 C758 1.363 . S
C756 H772 0.931 . S
C757 C756 1.370 . S
C757 C761 1.408 . S
C758 C756 1.363 . S
C758 C759 1.370 . S
C758 C762 1.524 . S
C759 C751 1.503 . S
C759 C758 1.370 . S
C759 C760 1.403 . S
C760 C759 1.403 . S
C760 C761 1.404 . S
C760 C763 1.539 . S
C761 C757 1.408 . S
C761 C760 1.404 . S
C761 H773 0.930 . S
C762 C758 1.524 . S
C762 H774 0.956 . S
C762 H775 0.961 . S
C762 H776 0.961 . S
C763 C760 1.539 . S
C763 H777 0.958 . S
C763 H778 0.961 . S
C763 H779 0.960 . S
H764 C748 0.931 . S
H765 C753 0.929 . S
H766 C754 0.960 . S
H767 C754 0.962 . S
H768 C754 0.960 . S
H769 C755 0.961 . S
H770 C755 0.961 . S
H771 C755 0.961 . S
H772 C756 0.931 . S
H773 C761 0.930 . S
H774 C762 0.956 . S
H775 C762 0.961 . S
H776 C762 0.961 . S
H777 C763 0.958 . S
H778 C763 0.961 . S
H779 C763 0.960 . S
C780 C781 1.391 . S
C780 C782 1.394 . S
C780 H796 0.931 . S
C781 C780 1.391 . S
C781 C785 1.376 . S
C782 C780 1.394 . S
C782 C783 1.369 . S
C782 C786 1.531 . S
C783 C782 1.369 . S
C783 C784 1.410 . S
C783 C791 1.503 1_554 S
C784 C783 1.410 . S
C784 C785 1.392 . S
C784 C787 1.511 . S
C785 C781 1.376 . S
C785 C784 1.392 . S
C785 H797 0.929 . S
C786 C782 1.531 . S
C786 H798 0.960 1_554 S
C786 H799 0.962 . S
C786 H800 0.960 . S
C787 C784 1.511 . S
C787 H801 0.961 . S
C787 H802 0.961 1_554 S
C787 H803 0.961 . S
C788 C789 1.370 . S
C788 C790 1.363 . S
C788 H804 0.931 . S
C789 C788 1.370 . S
C789 C793 1.408 . S
C790 C788 1.363 . S
C790 C791 1.370 . S
C790 C794 1.524 . S
C791 C783 1.503 1_556 S
C791 C790 1.370 . S
C791 C792 1.403 . S
C792 C791 1.403 . S
C792 C793 1.404 . S
C792 C795 1.539 . S
C793 C789 1.408 . S
C793 C792 1.404 . S
C793 H805 0.930 . S
C794 C790 1.524 . S
C794 H806 0.956 . S
C794 H807 0.961 1_556 S
C794 H808 0.961 . S
C795 C792 1.539 . S
C795 H809 0.958 . S
C795 H810 0.961 . S
C795 H811 0.941 1_556 S
H796 C780 0.931 . S
H797 C785 0.929 . S
H798 C786 0.960 1_556 S
H799 C786 0.962 . S
H800 C786 0.960 . S
H801 C787 0.961 . S
H802 C787 0.961 1_556 S
H803 C787 0.961 . S
H804 C788 0.931 . S
H805 C793 0.930 . S
H806 C794 0.956 . S
H807 C794 0.961 1_554 S
H808 C794 0.961 . S
H809 C795 0.958 . S
H810 C795 0.961 . S
H811 C795 0.941 1_554 S
C812 C813 1.391 . S
C812 C814 1.394 . S
C812 H828 0.931 . S
C813 C812 1.391 . S
C813 C817 1.376 . S
C814 C812 1.394 . S
C814 C815 1.369 . S
C814 C818 1.531 . S
C815 C814 1.369 . S
C815 C816 1.410 . S
C815 C823 1.503 . S
C816 C815 1.410 . S
C816 C817 1.392 . S
C816 C819 1.511 . S
C817 C813 1.376 . S
C817 C816 1.392 . S
C817 H829 0.929 . S
C818 C814 1.531 . S
C818 H830 0.960 . S
C818 H831 0.962 . S
C818 H832 0.960 . S
C819 C816 1.511 . S
C819 H833 0.961 . S
C819 H834 0.961 . S
C819 H835 0.961 . S
C820 C821 1.370 . S
C820 C822 1.363 . S
C820 H836 0.931 . S
C821 C820 1.370 . S
C821 C825 1.408 . S
C822 C820 1.363 . S
C822 C823 1.370 . S
C822 C826 1.524 . S
C823 C815 1.503 . S
C823 C822 1.370 . S
C823 C824 1.403 . S
C824 C823 1.403 . S
C824 C825 1.404 . S
C824 C827 1.539 . S
C825 C821 1.408 . S
C825 C824 1.404 . S
C825 H837 0.930 . S
C826 C822 1.524 . S
C826 H838 0.956 . S
C826 H839 0.961 . S
C826 H840 0.961 . S
C827 C824 1.539 . S
C827 H841 0.958 . S
C827 H842 0.961 . S
C827 H843 0.960 . S
H828 C812 0.931 . S
H829 C817 0.929 . S
H830 C818 0.960 . S
H831 C818 0.962 . S
H832 C818 0.960 . S
H833 C819 0.961 . S
H834 C819 0.961 . S
H835 C819 0.961 . S
H836 C820 0.931 . S
H837 C825 0.930 . S
H838 C826 0.956 . S
H839 C826 0.961 . S
H840 C826 0.961 . S
H841 C827 0.958 . S
H842 C827 0.961 . S
H843 C827 0.960 . S
C844 C845 1.391 . S
C844 C846 1.394 . S
C844 H860 0.931 . S
C845 C844 1.391 . S
C845 C849 1.376 . S
C846 C844 1.394 . S
C846 C847 1.369 . S
C846 C850 1.531 . S
C847 C846 1.369 . S
C847 C848 1.410 . S
C847 C855 1.503 1_556 S
C848 C847 1.410 . S
C848 C849 1.392 . S
C848 C851 1.511 . S
C849 C845 1.376 . S
C849 C848 1.392 . S
C849 H861 0.929 . S
C850 C846 1.531 . S
C850 H862 0.960 1_556 S
C850 H863 0.962 . S
C850 H864 0.960 . S
C851 C848 1.511 . S
C851 H865 0.961 . S
C851 H866 0.961 1_556 S
C851 H867 0.961 . S
C852 C853 1.370 . S
C852 C854 1.363 . S
C852 H868 0.931 . S
C853 C852 1.370 . S
C853 C857 1.408 . S
C854 C852 1.363 . S
C854 C855 1.370 . S
C854 C858 1.524 . S
C855 C847 1.503 1_554 S
C855 C854 1.370 . S
C855 C856 1.403 . S
C856 C855 1.403 . S
C856 C857 1.404 . S
C856 C859 1.539 . S
C857 C853 1.408 . S
C857 C856 1.404 . S
C857 H869 0.930 . S
C858 C854 1.524 . S
C858 H870 0.956 . S
C858 H871 0.943 1_554 S
C858 H872 0.961 . S
C859 C856 1.539 . S
C859 H873 0.958 . S
C859 H874 0.961 . S
C859 H875 0.960 1_554 S
H860 C844 0.931 . S
H861 C849 0.929 . S
H862 C850 0.960 1_554 S
H863 C850 0.962 . S
H864 C850 0.960 . S
H865 C851 0.961 . S
H866 C851 0.961 1_554 S
H867 C851 0.961 . S
H868 C852 0.931 . S
H869 C857 0.930 . S
H870 C858 0.956 . S
H871 C858 0.943 1_556 S
H872 C858 0.961 . S
H873 C859 0.958 . S
H874 C859 0.961 . S
H875 C859 0.960 1_556 S
C876 C877 1.391 . S
C876 C878 1.394 . S
C876 H892 0.931 . S
C877 C876 1.391 . S
C877 C881 1.376 . S
C878 C876 1.394 . S
C878 C879 1.369 . S
C878 C882 1.531 . S
C879 C878 1.369 . S
C879 C880 1.410 . S
C879 C887 1.503 . S
C880 C879 1.410 . S
C880 C881 1.392 . S
C880 C883 1.511 . S
C881 C877 1.376 . S
C881 C880 1.392 . S
C881 H893 0.929 . S
C882 C878 1.531 . S
C882 H894 0.960 . S
C882 H895 0.962 . S
C882 H896 0.960 . S
C883 C880 1.511 . S
C883 H897 0.961 . S
C883 H898 0.961 . S
C883 H899 0.961 . S
C884 C885 1.370 . S
C884 C886 1.363 . S
C884 H900 0.931 . S
C885 C884 1.370 . S
C885 C889 1.408 . S
C886 C884 1.363 . S
C886 C887 1.370 . S
C886 C890 1.524 . S
C887 C879 1.503 . S
C887 C886 1.370 . S
C887 C888 1.403 . S
C888 C887 1.403 . S
C888 C889 1.404 . S
C888 C891 1.539 . S
C889 C885 1.408 . S
C889 C888 1.404 . S
C889 H901 0.930 . S
C890 C886 1.524 . S
C890 H902 0.956 . S
C890 H903 0.961 . S
C890 H904 0.961 . S
C891 C888 1.539 . S
C891 H905 0.958 . S
C891 H906 0.961 . S
C891 H907 0.960 . S
H892 C876 0.931 . S
H893 C881 0.929 . S
H894 C882 0.960 . S
H895 C882 0.962 . S
H896 C882 0.960 . S
H897 C883 0.961 . S
H898 C883 0.961 . S
H899 C883 0.961 . S
H900 C884 0.931 . S
H901 C889 0.930 . S
H902 C890 0.956 . S
H903 C890 0.961 . S
H904 C890 0.961 . S
H905 C891 0.958 . S
H906 C891 0.961 . S
H907 C891 0.960 . S
C908 C909 1.391 . S
C908 C910 1.394 . S
C908 H924 0.931 . S
C909 C908 1.391 . S
C909 C913 1.376 . S
C910 C908 1.394 . S
C910 C911 1.369 . S
C910 C914 1.531 . S
C911 C910 1.369 . S
C911 C912 1.410 . S
C911 C919 1.503 1_556 S
C912 C911 1.410 . S
C912 C913 1.392 . S
C912 C915 1.511 . S
C913 C909 1.376 . S
C913 C912 1.392 . S
C913 H925 0.929 . S
C914 C910 1.531 . S
C914 H926 0.960 1_556 S
C914 H927 0.962 . S
C914 H928 0.960 . S
C915 C912 1.511 . S
C915 H929 0.961 . S
C915 H930 0.961 1_556 S
C915 H931 0.961 . S
C916 C917 1.370 . S
C916 C918 1.363 . S
C916 H932 0.931 . S
C917 C916 1.370 . S
C917 C921 1.408 . S
C918 C916 1.363 . S
C918 C919 1.370 . S
C918 C922 1.524 . S
C919 C911 1.503 1_554 S
C919 C918 1.370 . S
C919 C920 1.403 . S
C920 C919 1.403 . S
C920 C921 1.404 . S
C920 C923 1.539 . S
C921 C917 1.408 . S
C921 C920 1.404 . S
C921 H933 0.930 . S
C922 C918 1.524 . S
C922 H934 0.956 . S
C922 H935 0.961 1_554 S
C922 H936 0.961 . S
C923 C920 1.539 . S
C923 H937 0.958 . S
C923 H938 0.961 . S
C923 H939 0.975 . S
H924 C908 0.931 . S
H925 C913 0.929 . S
H926 C914 0.960 1_554 S
H927 C914 0.962 . S
H928 C914 0.960 . S
H929 C915 0.961 . S
H930 C915 0.961 1_554 S
H931 C915 0.961 . S
H932 C916 0.931 . S
H933 C921 0.930 . S
H934 C922 0.956 . S
H935 C922 0.961 1_556 S
H936 C922 0.961 . S
H937 C923 0.958 . S
H938 C923 0.961 . S
H939 C923 0.975 . S
C940 C941 1.391 . S
C940 C942 1.394 . S
C940 H956 0.931 . S
C941 C940 1.391 . S
C941 C945 1.376 . S
C942 C940 1.394 . S
C942 C943 1.369 . S
C942 C946 1.531 . S
C943 C942 1.369 . S
C943 C944 1.410 . S
C943 C951 1.503 . S
C944 C943 1.410 . S
C944 C945 1.392 . S
C944 C947 1.511 . S
C945 C941 1.376 . S
C945 C944 1.392 . S
C945 H957 0.929 . S
C946 C942 1.531 . S
C946 H958 0.960 . S
C946 H959 0.962 . S
C946 H960 0.960 . S
C947 C944 1.511 . S
C947 H961 0.961 . S
C947 H962 0.961 . S
C947 H963 0.961 . S
C948 C949 1.370 . S
C948 C950 1.363 . S
C948 H964 0.931 . S
C949 C948 1.370 . S
C949 C953 1.408 . S
C950 C948 1.363 . S
C950 C951 1.370 . S
C950 C954 1.524 . S
C951 C943 1.503 . S
C951 C950 1.370 . S
C951 C952 1.403 . S
C952 C951 1.403 . S
C952 C953 1.404 . S
C952 C955 1.539 . S
C953 C949 1.408 . S
C953 C952 1.404 . S
C953 H965 0.930 . S
C954 C950 1.524 . S
C954 H966 0.956 . S
C954 H967 0.961 . S
C954 H968 0.961 . S
C955 C952 1.539 . S
C955 H969 0.958 . S
C955 H970 0.961 . S
C955 H971 0.960 . S
H956 C940 0.931 . S
H957 C945 0.929 . S
H958 C946 0.960 . S
H959 C946 0.962 . S
H960 C946 0.960 . S
H961 C947 0.961 . S
H962 C947 0.961 . S
H963 C947 0.961 . S
H964 C948 0.931 . S
H965 C953 0.930 . S
H966 C954 0.956 . S
H967 C954 0.961 . S
H968 C954 0.961 . S
H969 C955 0.958 . S
H970 C955 0.961 . S
H971 C955 0.960 . S
C972 C973 1.391 . S
C972 C974 1.394 . S
C972 H988 0.931 . S
C973 C972 1.391 . S
C973 C977 1.376 . S
C974 C972 1.394 . S
C974 C975 1.369 . S
C974 C978 1.531 . S
C975 C974 1.369 . S
C975 C976 1.410 . S
C975 C983 1.503 . S
C976 C975 1.410 . S
C976 C977 1.392 . S
C976 C979 1.511 . S
C977 C973 1.376 . S
C977 C976 1.392 . S
C977 H989 0.929 . S
C978 C974 1.531 . S
C978 H990 0.960 . S
C978 H991 0.962 . S
C978 H992 0.960 . S
C979 C976 1.511 . S
C979 H993 0.961 . S
C979 H994 0.961 . S
C979 H995 0.961 . S
C980 C981 1.370 . S
C980 C982 1.363 . S
C980 H996 0.931 . S
C981 C980 1.370 . S
C981 C985 1.408 . S
C982 C980 1.363 . S
C982 C983 1.370 . S
C982 C986 1.524 . S
C983 C975 1.503 . S
C983 C982 1.370 . S
C983 C984 1.403 . S
C984 C983 1.403 . S
C984 C985 1.404 . S
C984 C987 1.539 . S
C985 C981 1.408 . S
C985 C984 1.404 . S
C985 H997 0.930 . S
C986 C982 1.524 . S
C986 H998 0.956 . S
C986 H999 0.961 . S
C986 H1000 0.961 . S
C987 C984 1.539 . S
C987 H1001 0.958 . S
C987 H1002 0.961 . S
C987 H1003 0.960 . S
H988 C972 0.931 . S
H989 C977 0.929 . S
H990 C978 0.960 . S
H991 C978 0.962 . S
H992 C978 0.960 . S
H993 C979 0.961 . S
H994 C979 0.961 . S
H995 C979 0.961 . S
H996 C980 0.931 . S
H997 C985 0.930 . S
H998 C986 0.956 . S
H999 C986 0.961 . S
H1000 C986 0.961 . S
H1001 C987 0.958 . S
H1002 C987 0.961 . S
H1003 C987 0.960 . S
C1004 C1005 1.391 . S
C1004 C1006 1.394 . S
C1004 H1020 0.931 . S
C1005 C1004 1.391 . S
C1005 C1009 1.376 . S
C1006 C1004 1.394 . S
C1006 C1007 1.369 . S
C1006 C1010 1.531 . S
C1007 C1006 1.369 . S
C1007 C1008 1.410 . S
C1007 C1015 1.503 . S
C1008 C1007 1.410 . S
C1008 C1009 1.392 . S
C1008 C1011 1.511 . S
C1009 C1005 1.376 . S
C1009 C1008 1.392 . S
C1009 H1021 0.929 . S
C1010 C1006 1.531 . S
C1010 H1022 0.960 . S
C1010 H1023 0.962 . S
C1010 H1024 0.960 . S
C1011 C1008 1.511 . S
C1011 H1025 0.961 . S
C1011 H1026 0.961 . S
C1011 H1027 0.961 . S
C1012 C1013 1.370 . S
C1012 C1014 1.363 . S
C1012 H1028 0.931 . S
C1013 C1012 1.370 . S
C1013 C1017 1.408 . S
C1014 C1012 1.363 . S
C1014 C1015 1.370 . S
C1014 C1018 1.524 . S
C1015 C1007 1.503 . S
C1015 C1014 1.370 . S
C1015 C1016 1.403 . S
C1016 C1015 1.403 . S
C1016 C1017 1.404 . S
C1016 C1019 1.539 . S
C1017 C1013 1.408 . S
C1017 C1016 1.404 . S
C1017 H1029 0.930 . S
C1018 C1014 1.524 . S
C1018 H1030 0.956 . S
C1018 H1031 0.961 . S
C1018 H1032 0.961 . S
C1019 C1016 1.539 . S
C1019 H1033 0.958 . S
C1019 H1034 0.961 . S
C1019 H1035 0.960 . S
H1020 C1004 0.931 . S
H1021 C1009 0.929 . S
H1022 C1010 0.960 . S
H1023 C1010 0.962 . S
H1024 C1010 0.960 . S
H1025 C1011 0.961 . S
H1026 C1011 0.961 . S
H1027 C1011 0.961 . S
H1028 C1012 0.931 . S
H1029 C1017 0.930 . S
H1030 C1018 0.956 . S
H1031 C1018 0.961 . S
H1032 C1018 0.961 . S
H1033 C1019 0.958 . S
H1034 C1019 0.961 . S
H1035 C1019 0.960 . S
C1036 C1037 1.391 . S
C1036 C1038 1.394 . S
C1036 H1052 0.931 . S
C1037 C1036 1.391 . S
C1037 C1041 1.376 . S
C1038 C1036 1.394 . S
C1038 C1039 1.369 . S
C1038 C1042 1.531 . S
C1039 C1038 1.369 . S
C1039 C1040 1.410 . S
C1039 C1047 1.503 . S
C1040 C1039 1.410 . S
C1040 C1041 1.392 . S
C1040 C1043 1.511 . S
C1041 C1037 1.376 . S
C1041 C1040 1.392 . S
C1041 H1053 0.929 . S
C1042 C1038 1.531 . S
C1042 H1054 0.960 . S
C1042 H1055 0.962 . S
C1042 H1056 0.960 . S
C1043 C1040 1.511 . S
C1043 H1057 0.961 . S
C1043 H1058 0.961 . S
C1043 H1059 0.961 . S
C1044 C1045 1.370 . S
C1044 C1046 1.363 . S
C1044 H1060 0.931 . S
C1045 C1044 1.370 . S
C1045 C1049 1.408 . S
C1046 C1044 1.363 . S
C1046 C1047 1.370 . S
C1046 C1050 1.524 . S
C1047 C1039 1.503 . S
C1047 C1046 1.370 . S
C1047 C1048 1.403 . S
C1048 C1047 1.403 . S
C1048 C1049 1.404 . S
C1048 C1051 1.539 . S
C1049 C1045 1.408 . S
C1049 C1048 1.404 . S
C1049 H1061 0.930 . S
C1050 C1046 1.524 . S
C1050 H1062 0.956 . S
C1050 H1063 0.961 . S
C1050 H1064 0.961 . S
C1051 C1048 1.539 . S
C1051 H1065 0.958 . S
C1051 H1066 0.961 . S
C1051 H1067 0.960 . S
H1052 C1036 0.931 . S
H1053 C1041 0.929 . S
H1054 C1042 0.960 . S
H1055 C1042 0.962 . S
H1056 C1042 0.960 . S
H1057 C1043 0.961 . S
H1058 C1043 0.961 . S
H1059 C1043 0.961 . S
H1060 C1044 0.931 . S
H1061 C1049 0.930 . S
H1062 C1050 0.956 . S
H1063 C1050 0.961 . S
H1064 C1050 0.961 . S
H1065 C1051 0.958 . S
H1066 C1051 0.961 . S
H1067 C1051 0.960 . S
C1068 C1069 1.391 . S
C1068 C1070 1.394 . S
C1068 H1084 0.931 . S
C1069 C1068 1.391 . S
C1069 C1073 1.376 . S
C1070 C1068 1.394 . S
C1070 C1071 1.369 . S
C1070 C1074 1.531 . S
C1071 C1070 1.369 . S
C1071 C1072 1.410 . S
C1071 C1079 1.503 . S
C1072 C1071 1.410 . S
C1072 C1073 1.392 . S
C1072 C1075 1.511 . S
C1073 C1069 1.376 . S
C1073 C1072 1.392 . S
C1073 H1085 0.929 . S
C1074 C1070 1.531 . S
C1074 H1086 0.960 . S
C1074 H1087 0.962 . S
C1074 H1088 0.960 . S
C1075 C1072 1.511 . S
C1075 H1089 0.961 . S
C1075 H1090 0.961 . S
C1075 H1091 0.961 . S
C1076 C1077 1.370 . S
C1076 C1078 1.363 . S
C1076 H1092 0.931 . S
C1077 C1076 1.370 . S
C1077 C1081 1.408 . S
C1078 C1076 1.363 . S
C1078 C1079 1.370 . S
C1078 C1082 1.524 . S
C1079 C1071 1.503 . S
C1079 C1078 1.370 . S
C1079 C1080 1.403 . S
C1080 C1079 1.403 . S
C1080 C1081 1.404 . S
C1080 C1083 1.539 . S
C1081 C1077 1.408 . S
C1081 C1080 1.404 . S
C1081 H1093 0.930 . S
C1082 C1078 1.524 . S
C1082 H1094 0.956 . S
C1082 H1095 0.961 . S
C1082 H1096 0.961 . S
C1083 C1080 1.539 . S
C1083 H1097 0.958 . S
C1083 H1098 0.961 . S
C1083 H1099 0.960 . S
H1084 C1068 0.931 . S
H1085 C1073 0.929 . S
H1086 C1074 0.960 . S
H1087 C1074 0.962 . S
H1088 C1074 0.960 . S
H1089 C1075 0.961 . S
H1090 C1075 0.961 . S
H1091 C1075 0.961 . S
H1092 C1076 0.931 . S
H1093 C1081 0.930 . S
H1094 C1082 0.956 . S
H1095 C1082 0.961 . S
H1096 C1082 0.961 . S
H1097 C1083 0.958 . S
H1098 C1083 0.961 . S
H1099 C1083 0.960 . S
C1100 C1101 1.391 . S
C1100 C1102 1.394 . S
C1100 H1116 0.931 . S
C1101 C1100 1.391 . S
C1101 C1105 1.376 . S
C1102 C1100 1.394 . S
C1102 C1103 1.369 . S
C1102 C1106 1.531 . S
C1103 C1102 1.369 . S
C1103 C1104 1.410 . S
C1103 C1111 1.503 . S
C1104 C1103 1.410 . S
C1104 C1105 1.392 . S
C1104 C1107 1.511 . S
C1105 C1101 1.376 . S
C1105 C1104 1.392 . S
C1105 H1117 0.929 . S
C1106 C1102 1.531 . S
C1106 H1118 0.960 . S
C1106 H1119 0.962 . S
C1106 H1120 0.960 . S
C1107 C1104 1.511 . S
C1107 H1121 0.961 . S
C1107 H1122 0.961 . S
C1107 H1123 0.961 . S
C1108 C1109 1.370 . S
C1108 C1110 1.363 . S
C1108 H1124 0.931 . S
C1109 C1108 1.370 . S
C1109 C1113 1.408 . S
C1110 C1108 1.363 . S
C1110 C1111 1.370 . S
C1110 C1114 1.524 . S
C1111 C1103 1.503 . S
C1111 C1110 1.370 . S
C1111 C1112 1.403 . S
C1112 C1111 1.403 . S
C1112 C1113 1.404 . S
C1112 C1115 1.539 . S
C1113 C1109 1.408 . S
C1113 C1112 1.404 . S
C1113 H1125 0.930 . S
C1114 C1110 1.524 . S
C1114 H1126 0.956 . S
C1114 H1127 0.961 . S
C1114 H1128 0.961 . S
C1115 C1112 1.539 . S
C1115 H1129 0.958 . S
C1115 H1130 0.961 . S
C1115 H1131 0.960 . S
H1116 C1100 0.931 . S
H1117 C1105 0.929 . S
H1118 C1106 0.960 . S
H1119 C1106 0.962 . S
H1120 C1106 0.960 . S
H1121 C1107 0.961 . S
H1122 C1107 0.961 . S
H1123 C1107 0.961 . S
H1124 C1108 0.931 . S
H1125 C1113 0.930 . S
H1126 C1114 0.956 . S
H1127 C1114 0.961 . S
H1128 C1114 0.961 . S
H1129 C1115 0.958 . S
H1130 C1115 0.961 . S
H1131 C1115 0.960 . S
C1132 C1133 1.391 . S
C1132 C1134 1.394 . S
C1132 H1148 0.931 . S
C1133 C1132 1.391 . S
C1133 C1137 1.376 . S
C1134 C1132 1.394 . S
C1134 C1135 1.369 . S
C1134 C1138 1.531 . S
C1135 C1134 1.369 . S
C1135 C1136 1.410 . S
C1135 C1143 1.503 . S
C1136 C1135 1.410 . S
C1136 C1137 1.392 . S
C1136 C1139 1.511 . S
C1137 C1133 1.376 . S
C1137 C1136 1.392 . S
C1137 H1149 0.929 . S
C1138 C1134 1.531 . S
C1138 H1150 0.960 . S
C1138 H1151 0.962 . S
C1138 H1152 0.960 . S
C1139 C1136 1.511 . S
C1139 H1153 0.961 . S
C1139 H1154 0.961 . S
C1139 H1155 0.961 . S
C1140 C1141 1.370 . S
C1140 C1142 1.363 . S
C1140 H1156 0.931 . S
C1141 C1140 1.370 . S
C1141 C1145 1.408 . S
C1142 C1140 1.363 . S
C1142 C1143 1.370 . S
C1142 C1146 1.524 . S
C1143 C1135 1.503 . S
C1143 C1142 1.370 . S
C1143 C1144 1.403 . S
C1144 C1143 1.403 . S
C1144 C1145 1.404 . S
C1144 C1147 1.539 . S
C1145 C1141 1.408 . S
C1145 C1144 1.404 . S
C1145 H1157 0.930 . S
C1146 C1142 1.524 . S
C1146 H1158 0.956 . S
C1146 H1159 0.961 . S
C1146 H1160 0.961 . S
C1147 C1144 1.539 . S
C1147 H1161 0.958 . S
C1147 H1162 0.961 . S
C1147 H1163 0.960 . S
H1148 C1132 0.931 . S
H1149 C1137 0.929 . S
H1150 C1138 0.960 . S
H1151 C1138 0.962 . S
H1152 C1138 0.960 . S
H1153 C1139 0.961 . S
H1154 C1139 0.961 . S
H1155 C1139 0.961 . S
H1156 C1140 0.931 . S
H1157 C1145 0.930 . S
H1158 C1146 0.956 . S
H1159 C1146 0.961 . S
H1160 C1146 0.961 . S
H1161 C1147 0.958 . S
H1162 C1147 0.961 . S
H1163 C1147 0.960 . S
C1164 C1165 1.391 . S
C1164 C1166 1.394 . S
C1164 H1180 0.931 . S
C1165 C1164 1.391 . S
C1165 C1169 1.376 . S
C1166 C1164 1.394 . S
C1166 C1167 1.369 . S
C1166 C1170 1.531 . S
C1167 C1166 1.369 . S
C1167 C1168 1.410 . S
C1167 C1175 1.503 . S
C1168 C1167 1.410 . S
C1168 C1169 1.392 . S
C1168 C1171 1.511 . S
C1169 C1165 1.376 . S
C1169 C1168 1.392 . S
C1169 H1181 0.929 . S
C1170 C1166 1.531 . S
C1170 H1182 0.960 . S
C1170 H1183 0.962 . S
C1170 H1184 0.960 . S
C1171 C1168 1.511 . S
C1171 H1185 0.961 . S
C1171 H1186 0.961 . S
C1171 H1187 0.961 . S
C1172 C1173 1.370 . S
C1172 C1174 1.363 . S
C1172 H1188 0.931 . S
C1173 C1172 1.370 . S
C1173 C1177 1.408 . S
C1174 C1172 1.363 . S
C1174 C1175 1.370 . S
C1174 C1178 1.524 . S
C1175 C1167 1.503 . S
C1175 C1174 1.370 . S
C1175 C1176 1.403 . S
C1176 C1175 1.403 . S
C1176 C1177 1.404 . S
C1176 C1179 1.539 . S
C1177 C1173 1.408 . S
C1177 C1176 1.404 . S
C1177 H1189 0.930 . S
C1178 C1174 1.524 . S
C1178 H1190 0.956 . S
C1178 H1191 0.961 . S
C1178 H1192 0.961 . S
C1179 C1176 1.539 . S
C1179 H1193 0.958 . S
C1179 H1194 0.961 . S
C1179 H1195 0.960 . S
H1180 C1164 0.931 . S
H1181 C1169 0.929 . S
H1182 C1170 0.960 . S
H1183 C1170 0.962 . S
H1184 C1170 0.960 . S
H1185 C1171 0.961 . S
H1186 C1171 0.961 . S
H1187 C1171 0.961 . S
H1188 C1172 0.931 . S
H1189 C1177 0.930 . S
H1190 C1178 0.956 . S
H1191 C1178 0.961 . S
H1192 C1178 0.961 . S
H1193 C1179 0.958 . S
H1194 C1179 0.961 . S
H1195 C1179 0.960 . S
C1196 C1197 1.391 . S
C1196 C1198 1.394 . S
C1196 H1212 0.931 . S
C1197 C1196 1.391 . S
C1197 C1201 1.376 . S
C1198 C1196 1.394 . S
C1198 C1199 1.369 . S
C1198 C1202 1.531 . S
C1199 C1198 1.369 . S
C1199 C1200 1.410 . S
C1199 C1207 1.503 . S
C1200 C1199 1.410 . S
C1200 C1201 1.392 . S
C1200 C1203 1.511 . S
C1201 C1197 1.376 . S
C1201 C1200 1.392 . S
C1201 H1213 0.929 . S
C1202 C1198 1.531 . S
C1202 H1214 0.960 . S
C1202 H1215 0.962 . S
C1202 H1216 0.960 . S
C1203 C1200 1.511 . S
C1203 H1217 0.961 . S
C1203 H1218 0.961 . S
C1203 H1219 0.961 . S
C1204 C1205 1.370 . S
C1204 C1206 1.363 . S
C1204 H1220 0.931 . S
C1205 C1204 1.370 . S
C1205 C1209 1.408 . S
C1206 C1204 1.363 . S
C1206 C1207 1.370 . S
C1206 C1210 1.524 . S
C1207 C1199 1.503 . S
C1207 C1206 1.370 . S
C1207 C1208 1.403 . S
C1208 C1207 1.403 . S
C1208 C1209 1.404 . S
C1208 C1211 1.539 . S
C1209 C1205 1.408 . S
C1209 C1208 1.404 . S
C1209 H1221 0.930 . S
C1210 C1206 1.524 . S
C1210 H1222 0.956 . S
C1210 H1223 0.961 . S
C1210 H1224 0.961 . S
C1211 C1208 1.539 . S
C1211 H1225 0.958 . S
C1211 H1226 0.961 . S
C1211 H1227 0.960 . S
H1212 C1196 0.931 . S
H1213 C1201 0.929 . S
H1214 C1202 0.960 . S
H1215 C1202 0.962 . S
H1216 C1202 0.960 . S
H1217 C1203 0.961 . S
H1218 C1203 0.961 . S
H1219 C1203 0.961 . S
H1220 C1204 0.931 . S
H1221 C1209 0.930 . S
H1222 C1210 0.956 . S
H1223 C1210 0.961 . S
H1224 C1210 0.961 . S
H1225 C1211 0.958 . S
H1226 C1211 0.961 . S
H1227 C1211 0.960 . S
C1228 C1229 1.391 . S
C1228 C1230 1.394 . S
C1228 H1244 0.931 . S
C1229 C1228 1.391 . S
C1229 C1233 1.376 . S
C1230 C1228 1.394 . S
C1230 C1231 1.369 . S
C1230 C1234 1.531 . S
C1231 C1230 1.369 . S
C1231 C1232 1.410 . S
C1231 C1239 1.503 . S
C1232 C1231 1.410 . S
C1232 C1233 1.392 . S
C1232 C1235 1.511 . S
C1233 C1229 1.376 . S
C1233 C1232 1.392 . S
C1233 H1245 0.929 . S
C1234 C1230 1.531 . S
C1234 H1246 0.960 . S
C1234 H1247 0.962 . S
C1234 H1248 0.960 . S
C1235 C1232 1.511 . S
C1235 H1249 0.961 . S
C1235 H1250 0.961 . S
C1235 H1251 0.961 . S
C1236 C1237 1.370 . S
C1236 C1238 1.363 . S
C1236 H1252 0.931 . S
C1237 C1236 1.370 . S
C1237 C1241 1.408 . S
C1238 C1236 1.363 . S
C1238 C1239 1.370 . S
C1238 C1242 1.524 . S
C1239 C1231 1.503 . S
C1239 C1238 1.370 . S
C1239 C1240 1.403 . S
C1240 C1239 1.403 . S
C1240 C1241 1.404 . S
C1240 C1243 1.539 . S
C1241 C1237 1.408 . S
C1241 C1240 1.404 . S
C1241 H1253 0.930 . S
C1242 C1238 1.524 . S
C1242 H1254 0.956 . S
C1242 H1255 0.961 . S
C1242 H1256 0.961 . S
C1243 C1240 1.539 . S
C1243 H1257 0.958 . S
C1243 H1258 0.961 . S
C1243 H1259 0.960 . S
H1244 C1228 0.931 . S
H1245 C1233 0.929 . S
H1246 C1234 0.960 . S
H1247 C1234 0.962 . S
H1248 C1234 0.960 . S
H1249 C1235 0.961 . S
H1250 C1235 0.961 . S
H1251 C1235 0.961 . S
H1252 C1236 0.931 . S
H1253 C1241 0.930 . S
H1254 C1242 0.956 . S
H1255 C1242 0.961 . S
H1256 C1242 0.961 . S
H1257 C1243 0.958 . S
H1258 C1243 0.961 . S
H1259 C1243 0.960 . S
C1260 C1261 1.391 . S
C1260 C1262 1.394 . S
C1260 H1276 0.931 . S
C1261 C1260 1.391 . S
C1261 C1265 1.376 . S
C1262 C1260 1.394 . S
C1262 C1263 1.369 . S
C1262 C1266 1.531 . S
C1263 C1262 1.369 . S
C1263 C1264 1.410 . S
C1263 C1271 1.503 . S
C1264 C1263 1.410 . S
C1264 C1265 1.392 . S
C1264 C1267 1.511 . S
C1265 C1261 1.376 . S
C1265 C1264 1.392 . S
C1265 H1277 0.929 . S
C1266 C1262 1.531 . S
C1266 H1278 0.960 . S
C1266 H1279 0.962 . S
C1266 H1280 0.960 . S
C1267 C1264 1.511 . S
C1267 H1281 0.961 . S
C1267 H1282 0.961 . S
C1267 H1283 0.961 . S
C1268 C1269 1.370 . S
C1268 C1270 1.363 . S
C1268 H1284 0.931 . S
C1269 C1268 1.370 . S
C1269 C1273 1.408 . S
C1270 C1268 1.363 . S
C1270 C1271 1.370 . S
C1270 C1274 1.524 . S
C1271 C1263 1.503 . S
C1271 C1270 1.370 . S
C1271 C1272 1.403 . S
C1272 C1271 1.403 . S
C1272 C1273 1.404 . S
C1272 C1275 1.539 . S
C1273 C1269 1.408 . S
C1273 C1272 1.404 . S
C1273 H1285 0.930 . S
C1274 C1270 1.524 . S
C1274 H1286 0.956 . S
C1274 H1287 0.961 . S
C1274 H1288 0.961 . S
C1275 C1272 1.539 . S
C1275 H1289 0.958 . S
C1275 H1290 0.961 . S
C1275 H1291 0.960 . S
H1276 C1260 0.931 . S
H1277 C1265 0.929 . S
H1278 C1266 0.960 . S
H1279 C1266 0.962 . S
H1280 C1266 0.960 . S
H1281 C1267 0.961 . S
H1282 C1267 0.961 . S
H1283 C1267 0.961 . S
H1284 C1268 0.931 . S
H1285 C1273 0.930 . S
H1286 C1274 0.956 . S
H1287 C1274 0.961 . S
H1288 C1274 0.961 . S
H1289 C1275 0.958 . S
H1290 C1275 0.961 . S
H1291 C1275 0.960 . S
C1292 C1293 1.391 . S
C1292 C1294 1.394 . S
C1292 H1308 0.931 . S
C1293 C1292 1.391 . S
C1293 C1297 1.376 . S
C1294 C1292 1.394 . S
C1294 C1295 1.369 . S
C1294 C1298 1.531 . S
C1295 C1294 1.369 . S
C1295 C1296 1.410 . S
C1295 C1303 1.503 . S
C1296 C1295 1.410 . S
C1296 C1297 1.392 . S
C1296 C1299 1.511 . S
C1297 C1293 1.376 . S
C1297 C1296 1.392 . S
C1297 H1309 0.929 . S
C1298 C1294 1.531 . S
C1298 H1310 0.960 . S
C1298 H1311 0.962 . S
C1298 H1312 0.960 . S
C1299 C1296 1.511 . S
C1299 H1313 0.961 . S
C1299 H1314 0.961 . S
C1299 H1315 0.961 . S
C1300 C1301 1.370 . S
C1300 C1302 1.363 . S
C1300 H1316 0.931 . S
C1301 C1300 1.370 . S
C1301 C1305 1.408 . S
C1302 C1300 1.363 . S
C1302 C1303 1.370 . S
C1302 C1306 1.524 . S
C1303 C1295 1.503 . S
C1303 C1302 1.370 . S
C1303 C1304 1.403 . S
C1304 C1303 1.403 . S
C1304 C1305 1.404 . S
C1304 C1307 1.539 . S
C1305 C1301 1.408 . S
C1305 C1304 1.404 . S
C1305 H1317 0.930 . S
C1306 C1302 1.524 . S
C1306 H1318 0.956 . S
C1306 H1319 0.961 . S
C1306 H1320 0.961 . S
C1307 C1304 1.539 . S
C1307 H1321 0.958 . S
C1307 H1322 0.961 . S
C1307 H1323 0.960 . S
H1308 C1292 0.931 . S
H1309 C1297 0.929 . S
H1310 C1298 0.960 . S
H1311 C1298 0.962 . S
H1312 C1298 0.960 . S
H1313 C1299 0.961 . S
H1314 C1299 0.961 . S
H1315 C1299 0.961 . S
H1316 C1300 0.931 . S
H1317 C1305 0.930 . S
H1318 C1306 0.956 . S
H1319 C1306 0.961 . S
H1320 C1306 0.961 . S
H1321 C1307 0.958 . S
H1322 C1307 0.961 . S
H1323 C1307 0.960 . S
C1324 C1325 1.391 . S
C1324 C1326 1.394 . S
C1324 H1340 0.931 . S
C1325 C1324 1.391 . S
C1325 C1329 1.376 . S
C1326 C1324 1.394 . S
C1326 C1327 1.369 . S
C1326 C1330 1.531 . S
C1327 C1326 1.369 . S
C1327 C1328 1.410 . S
C1327 C1335 1.503 . S
C1328 C1327 1.410 . S
C1328 C1329 1.392 . S
C1328 C1331 1.511 . S
C1329 C1325 1.376 . S
C1329 C1328 1.392 . S
C1329 H1341 0.929 . S
C1330 C1326 1.531 . S
C1330 H1342 0.960 . S
C1330 H1343 0.962 . S
C1330 H1344 0.960 . S
C1331 C1328 1.511 . S
C1331 H1345 0.961 . S
C1331 H1346 0.961 . S
C1331 H1347 0.961 . S
C1332 C1333 1.370 . S
C1332 C1334 1.363 . S
C1332 H1348 0.931 . S
C1333 C1332 1.370 . S
C1333 C1337 1.408 . S
C1334 C1332 1.363 . S
C1334 C1335 1.370 . S
C1334 C1338 1.524 . S
C1335 C1327 1.503 . S
C1335 C1334 1.370 . S
C1335 C1336 1.403 . S
C1336 C1335 1.403 . S
C1336 C1337 1.404 . S
C1336 C1339 1.539 . S
C1337 C1333 1.408 . S
C1337 C1336 1.404 . S
C1337 H1349 0.930 . S
C1338 C1334 1.524 . S
C1338 H1350 0.956 . S
C1338 H1351 0.961 . S
C1338 H1352 0.961 . S
C1339 C1336 1.539 . S
C1339 H1353 0.958 . S
C1339 H1354 0.961 . S
C1339 H1355 0.960 . S
H1340 C1324 0.931 . S
H1341 C1329 0.929 . S
H1342 C1330 0.960 . S
H1343 C1330 0.962 . S
H1344 C1330 0.960 . S
H1345 C1331 0.961 . S
H1346 C1331 0.961 . S
H1347 C1331 0.961 . S
H1348 C1332 0.931 . S
H1349 C1337 0.930 . S
H1350 C1338 0.956 . S
H1351 C1338 0.961 . S
H1352 C1338 0.961 . S
H1353 C1339 0.958 . S
H1354 C1339 0.961 . S
H1355 C1339 0.960 . S
C397 N302 1.674 . S
C405 N5 1.693 . S
C429 N38 1.684 . S
C437 N335 1.697 . S
C461 N368 1.715 . S
C469 N71 1.703 . S
C493 N104 1.655 . S
C501 N203 1.681 . S
C525 N137 1.655 . S
C533 N236 1.681 . S
C557 N269 1.702 . S
C565 N170 1.689 . S
C589 C347 1.118 . S
C597 C17 1.076 . S
C621 C380 1.079 . S
C629 C50 1.062 . S
C653 C83 1.042 . S
C661 C215 1.075 . S
C685 C248 1.067 . S
C693 C116 1.096 . S
C717 C281 1.085 . S
C725 C149 1.093 . S
C749 C182 1.093 . S
C757 C314 1.090 . S
C781 C259 1.502 . S
C789 C127 1.513 . S
C813 C292 1.512 . S
C821 C160 1.528 . S
C845 C193 1.531 . S
C853 C325 1.522 . S
C877 C28 1.500 . S
C885 C358 1.512 . S
C909 C61 1.488 . S
C917 C391 1.512 . S
C941 C226 1.552 . S
C949 C94 1.534 . S
C973 N14 1.440 . S
C981 C140 1.446 . S
C1005 N47 1.440 . S
C1013 C173 1.448 . S
C1037 N80 1.445 . S
C1045 C8 1.446 . S
C1069 C41 1.445 . S
C1077 N113 1.443 . S
C1101 N146 1.435 . S
C1109 C74 1.447 . S
C1133 C107 1.446 . S
C1141 N179 1.444 . S
C1165 C272 1.445 . S
C1173 N212 1.443 . S
C1197 C305 1.446 . S
C1205 N245 1.444 . S
C1229 C338 1.442 . S
C1237 N278 1.448 . S
C1261 N311 1.447 . S
C1269 C371 1.446 . S
C1293 C206 1.442 . S
C1301 N344 1.448 . S
C1325 N377 1.435 . S
C1333 C239 1.447 . S
