# Generated by pormake.
# Topology oof, (8)-cn, num edge types: 1
# Building blocks:
#     Node 0, Type 0, BuildingBlock: VETTIZ_charged_sbu_0, # of connection points: 8
#     Node 1, Type 0, BuildingBlock: VETTIZ_charged_sbu_0, # of connection points: 8
#     Node 2, Type 0, BuildingBlock: VETTIZ_charged_sbu_0, # of connection points: 8
#     Node 3, Type 0, BuildingBlock: VETTIZ_charged_sbu_0, # of connection points: 8
#     Edge 4, Type (0, 0), BuildingBlock: OJICUG_clean_linker_0, # of connection points: 2
#     Edge 5, Type (0, 0), BuildingBlock: OJICUG_clean_linker_0, # of connection points: 2
#     Edge 6, Type (0, 0), BuildingBlock: OJICUG_clean_linker_0, # of connection points: 2
#     Edge 7, Type (0, 0), BuildingBlock: OJICUG_clean_linker_0, # of connection points: 2
#     Edge 8, Type (0, 0), BuildingBlock: OJICUG_clean_linker_0, # of connection points: 2
#     Edge 9, Type (0, 0), BuildingBlock: OJICUG_clean_linker_0, # of connection points: 2
#     Edge 10, Type (0, 0), BuildingBlock: OJICUG_clean_linker_0, # of connection points: 2
#     Edge 11, Type (0, 0), BuildingBlock: OJICUG_clean_linker_0, # of connection points: 2
#     Edge 12, Type (0, 0), BuildingBlock: OJICUG_clean_linker_0, # of connection points: 2
#     Edge 13, Type (0, 0), BuildingBlock: OJICUG_clean_linker_0, # of connection points: 2
#     Edge 14, Type (0, 0), BuildingBlock: OJICUG_clean_linker_0, # of connection points: 2
#     Edge 15, Type (0, 0), BuildingBlock: OJICUG_clean_linker_0, # of connection points: 2
#     Edge 16, Type (0, 0), BuildingBlock: OJICUG_clean_linker_0, # of connection points: 2
#     Edge 17, Type (0, 0), BuildingBlock: OJICUG_clean_linker_0, # of connection points: 2
#     Edge 18, Type (0, 0), BuildingBlock: OJICUG_clean_linker_0, # of connection points: 2
#     Edge 19, Type (0, 0), BuildingBlock: OJICUG_clean_linker_0, # of connection points: 2
# Relax obj value: 0.130
# Max RMSD: 0.230
# Mean RMSD: 0.230
data_MOF--net-oof--node1-VETTIZ_charged_sbu_0--edge1-OJICUG_clean_linker_0
_symmetry_space_group_name_H-M    P1
_symmetry_Int_Tables_number       1
_symmetry_cell_setting            triclinic
loop_
_symmetry_equiv_pos_as_xyz
'x, y, z'
_cell_length_a     12.639556
_cell_length_b     39.258577
_cell_length_c     12.449871
_cell_angle_alpha  88.162014
_cell_angle_beta   91.820699
_cell_angle_gamma 84.091929
loop_
_atom_site_label
_atom_site_type_symbol
_atom_site_fract_x
_atom_site_fract_y
_atom_site_fract_z
_atom_type_partial_charge
Fe0 Fe 0.09333 0.18218 0.43767 0.0
O1 O -0.00089 0.2176 0.34935 0.0
Fe2 Fe 0.14559 0.11878 0.24432 0.0
Fe3 Fe 0.89061 0.24916 0.42 0.0
O4 O 0.04838 0.15061 0.32682 0.0
O5 O 0.04434 0.15096 0.31731 0.0
O6 O 0.98747 0.21723 0.34013 0.0
Fe7 Fe 0.93753 0.18392 0.23447 0.0
C8 C 0.94522 0.19631 0.60591 0.0
O9 O 0.13522 0.22367 0.53 0.0
O10 O 0.02551 0.27057 0.45694 0.0
O11 O 0.05087 0.19565 0.12818 0.0
O12 O 0.11223 0.14286 0.09167 0.0
O13 O 0.27815 0.14358 0.26544 0.0
O14 O 0.22778 0.1908 0.35402 0.0
O15 O 0.86116 0.27078 0.26805 0.0
O16 O 0.8374 0.22533 0.15947 0.0
C17 C 0.29819 0.17119 0.30829 0.0
O18 O 0.90438 0.1413 0.13794 0.0
O19 O 0.00696 0.09812 0.23086 0.0
O20 O 0.97063 0.17422 0.53655 0.0
O21 O 0.91604 0.22691 0.57375 0.0
C22 C 0.11115 0.25656 0.50734 0.0
C23 C 0.83103 0.25814 0.17854 0.0
C24 C 0.74241 0.19369 0.36333 0.0
O25 O 0.75927 0.22373 0.38985 0.0
O26 O 0.8161 0.17219 0.33109 0.0
C27 C 0.08286 0.17378 0.06004 0.0
O28 O 0.1882 0.09547 0.39076 0.0
O29 O 0.16731 0.13648 0.515 0.0
C30 C 0.93614 0.10864 0.15827 0.0
C31 C 0.15852 0.10521 0.48311 0.0
Fe32 Fe 0.85035 0.99918 0.78141 0.0
O33 O 0.94759 0.96735 0.69894 0.0
Fe34 Fe 0.05844 0.93407 0.79131 0.0
Fe35 Fe 0.9027 0.93577 0.58812 0.0
O36 O 0.95162 0.967 0.70843 0.0
O37 O 0.00852 0.90073 0.68574 0.0
O38 O -0.00314 0.90036 0.67652 0.0
Fe39 Fe 0.10536 0.86877 0.60595 0.0
C40 C 0.69778 0.94675 0.71747 0.0
O41 O 0.80764 1.02246 0.63491 0.0
O42 O 0.82877 0.98145 0.51069 0.0
O43 O 0.23672 0.89422 0.63602 0.0
O44 O 0.17986 0.94578 0.69464 0.0
O45 O 0.09159 0.97672 0.88771 0.0
O46 O 0.98892 1.01989 0.79479 0.0
O47 O 0.02547 0.9437 0.4893 0.0
O48 O 0.07994 0.891 0.45212 0.0
C49 C 0.05982 1.00937 0.86732 0.0
O50 O 0.13483 0.8472 0.75802 0.0
O51 O 0.15855 0.89269 0.86641 0.0
O52 O 0.71783 0.97436 0.76039 0.0
O53 O 0.76818 0.92716 0.67165 0.0
C54 C 0.83749 1.01272 0.54261 0.0
C55 C 0.05083 0.9216 0.41994 0.0
C56 C 0.88478 0.86138 0.51867 0.0
O57 O 0.86084 0.89426 0.49585 0.0
O58 O 0.97042 0.84737 0.56907 0.0
C59 C 0.25356 0.92427 0.66245 0.0
O60 O 0.94512 0.92235 0.89763 0.0
O61 O 0.8838 0.97514 0.93413 0.0
C62 C 0.16487 0.85988 0.84751 0.0
C63 C 0.91318 0.94423 0.96578 0.0
Fe64 Fe 0.59201 0.68242 0.43809 0.0
O65 O 0.49778 0.71782 0.3497 0.0
Fe66 Fe 0.64432 0.619 0.24484 0.0
Fe67 Fe 0.38929 0.7494 0.42029 0.0
O68 O 0.5471 0.65082 0.32732 0.0
O69 O 0.54305 0.65118 0.31782 0.0
O70 O 0.48613 0.71744 0.3405 0.0
Fe71 Fe 0.43622 0.6841 0.23493 0.0
C72 C 0.44392 0.69657 0.60631 0.0
O73 O 0.63387 0.72394 0.53031 0.0
O74 O 0.52423 0.77082 0.45713 0.0
O75 O 0.54953 0.69583 0.12863 0.0
O76 O 0.61089 0.64304 0.09213 0.0
O77 O 0.77685 0.64382 0.26587 0.0
O78 O 0.72647 0.69104 0.35446 0.0
O79 O 0.35978 0.77097 0.26823 0.0
O80 O 0.33608 0.72547 0.15982 0.0
C81 C 0.79688 0.67143 0.30872 0.0
O82 O 0.4031 0.64145 0.13852 0.0
O83 O 0.50575 0.5983 0.23152 0.0
O84 O 0.4693 0.67447 0.53696 0.0
O85 O 0.41477 0.72718 0.57412 0.0
C86 C 0.60989 0.75681 0.5075 0.0
C87 C 0.32974 0.75829 0.17873 0.0
C88 C 0.24111 0.6939 0.36381 0.0
O89 O 0.25795 0.72395 0.39026 0.0
O90 O 0.3148 0.67239 0.3316 0.0
C91 C 0.5815 0.67396 0.06048 0.0
O92 O 0.687 0.59572 0.39132 0.0
O93 O 0.66604 0.63675 0.51552 0.0
C94 C 0.43487 0.60879 0.15896 0.0
C95 C 0.65736 0.60547 0.48368 0.0
Fe96 Fe 0.35002 0.49929 0.78283 0.0
O97 O 0.44721 0.46747 0.70032 0.0
Fe98 Fe 0.55809 0.43417 0.79269 0.0
Fe99 Fe 0.40224 0.43589 0.58953 0.0
O100 O 0.45127 0.46711 0.70984 0.0
O101 O 0.50817 0.40085 0.68703 0.0
O102 O 0.49652 0.40048 0.67782 0.0
Fe103 Fe 0.60501 0.36892 0.60716 0.0
C104 C 0.19742 0.44688 0.71892 0.0
O105 O 0.30745 0.52262 0.63641 0.0
O106 O 0.32815 0.48158 0.5122 0.0
O107 O 0.73634 0.39436 0.63727 0.0
O108 O 0.67952 0.4459 0.69607 0.0
O109 O 0.59121 0.47679 0.88924 0.0
O110 O 0.48865 0.51995 0.79624 0.0
O111 O 0.52487 0.44387 0.49059 0.0
O112 O 0.57953 0.39117 0.4534 0.0
C113 C 0.55945 0.50945 0.86885 0.0
O114 O 0.63451 0.34731 0.7591 0.0
O115 O 0.65824 0.39276 0.86769 0.0
O116 O 0.21745 0.47451 0.76169 0.0
O117 O 0.26785 0.42725 0.67327 0.0
C118 C 0.3369 0.51286 0.544 0.0
C119 C 0.55031 0.42177 0.42124 0.0
C120 C 0.38445 0.36151 0.5199 0.0
O121 O 0.36034 0.39439 0.49724 0.0
O122 O 0.47012 0.34751 0.57026 0.0
C123 C 0.7532 0.4244 0.66381 0.0
O124 O 0.44475 0.42242 0.89896 0.0
O125 O 0.38336 0.47521 0.93547 0.0
C126 C 0.66463 0.35995 0.84861 0.0
C127 C 0.41273 0.44429 0.9671 0.0
C128 C 0.09224 0.158 0.86381 0.0
C129 C 0.05691 0.18137 0.94208 0.0
H130 H 0.08028 0.14282 0.70012 0.0
C131 C 0.98545 0.20984 0.9076 0.0
H132 H 0.14764 0.13585 0.88648 0.0
C133 C 0.94777 0.21411 0.79985 0.0
C134 C 0.97943 0.18994 0.72254 0.0
H135 H 0.95638 0.22855 0.96451 0.0
H136 H 0.89296 0.23643 0.77726 0.0
C137 C 0.05263 0.16184 0.75649 0.0
C138 C 0.94363 0.95615 0.26934 0.0
C139 C 0.01661 0.92799 0.3033 0.0
H140 H 0.84877 0.9822 0.13937 0.0
C141 C 0.04805 0.90379 0.22598 0.0
H142 H 0.91616 0.97519 0.32572 0.0
C143 C 0.01038 0.90809 0.11822 0.0
C144 C 0.93914 0.93662 0.08375 0.0
H145 H 0.10268 0.88143 0.24856 0.0
H146 H 0.03926 0.88936 0.06132 0.0
C147 C 0.90401 0.96001 0.16203 0.0
C148 C 0.59082 0.6582 0.86422 0.0
C149 C 0.55557 0.68157 0.94251 0.0
H150 H 0.57878 0.64303 0.70051 0.0
C151 C 0.48423 0.71008 0.90804 0.0
H152 H 0.64615 0.63603 0.88688 0.0
C153 C 0.44658 0.71437 0.80028 0.0
C154 C 0.47813 0.69019 0.72295 0.0
H155 H 0.45527 0.7288 0.96495 0.0
H156 H 0.39187 0.73672 0.7777 0.0
C157 C 0.55122 0.66206 0.7569 0.0
C158 C 0.51021 0.40825 0.11953 0.0
C159 C 0.43865 0.4367 0.08506 0.0
H160 H 0.60277 0.38168 0.24987 0.0
C161 C 0.4032 0.46004 0.16335 0.0
H162 H 0.53937 0.38955 0.06261 0.0
C163 C 0.4428 0.45621 0.27067 0.0
C164 C 0.5161 0.42814 0.30461 0.0
H165 H 0.34771 0.48217 0.14068 0.0
H166 H 0.41506 0.47522 0.32706 0.0
C167 C 0.54788 0.40398 0.22729 0.0
C168 C 0.55107 0.20599 0.40869 0.0
C169 C 0.63005 0.18605 0.35456 0.0
H170 H 0.38558 0.21672 0.43768 0.0
C171 C 0.59866 0.1619 0.28234 0.0
H172 H 0.57244 0.22487 0.46487 0.0
C173 C 0.49068 0.15814 0.26374 0.0
C174 C 0.41147 0.17822 0.31758 0.0
H175 H 0.65729 0.14652 0.238 0.0
H176 H 0.46942 0.13921 0.2077 0.0
C177 C 0.44341 0.20191 0.39117 0.0
C178 C 0.50535 0.95971 0.76235 0.0
C179 C 0.58451 0.93972 0.70814 0.0
H180 H 0.33877 0.97125 0.78839 0.0
C181 C 0.5525 0.91616 0.63419 0.0
H182 H 0.52666 0.97855 0.81866 0.0
C183 C 0.44483 0.91207 0.61671 0.0
C184 C 0.36591 0.93191 0.6712 0.0
H185 H 0.61028 0.90144 0.58737 0.0
H186 H 0.4234 0.89328 0.56025 0.0
C187 C 0.39735 0.95596 0.74375 0.0
C188 C 0.98932 0.65846 0.26388 0.0
C189 C 0.91016 0.67846 0.31806 0.0
H190 H 0.1559 0.64691 0.23788 0.0
C191 C 0.94216 0.70203 0.392 0.0
H192 H 0.96801 0.63963 0.20757 0.0
C193 C 0.04983 0.70611 0.40951 0.0
C194 C 0.12876 0.68626 0.35505 0.0
H195 H 0.88437 0.71675 0.4388 0.0
H196 H 0.07126 0.7249 0.46596 0.0
C197 C 0.09731 0.66221 0.2825 0.0
C198 C 0.89695 0.45618 0.7448 0.0
C199 C 0.86556 0.43203 0.67259 0.0
H200 H 0.02618 0.47887 0.81946 0.0
C201 C 0.94456 0.41209 0.61849 0.0
H202 H 0.83832 0.47157 0.78913 0.0
C203 C 0.05221 0.41616 0.63603 0.0
C204 C 0.08415 0.43985 0.70962 0.0
H205 H 0.92318 0.39321 0.56231 0.0
H206 H 0.11005 0.40135 0.58955 0.0
C207 C 0.00493 0.45994 0.76343 0.0
C208 C 0.2334 0.33441 0.58927 0.0
C209 C 0.30431 0.33786 0.50606 0.0
H210 H 0.11798 0.30446 0.6577 0.0
C211 C 0.31977 0.31205 0.43146 0.0
H212 H 0.22576 0.35301 0.65171 0.0
C213 C 0.26223 0.28364 0.43801 0.0
C214 C 0.19131 0.28019 0.52121 0.0
H215 H 0.37764 0.3136 0.36956 0.0
H216 H 0.26986 0.26505 0.37555 0.0
C217 C 0.17586 0.306 0.59581 0.0
C218 C 0.74461 0.34408 0.03409 0.0
C219 C 0.70825 0.33417 0.9335 0.0
H220 H 0.81075 0.32826 0.18945 0.0
C221 C 0.71222 0.29874 0.91416 0.0
H222 H 0.74309 0.37093 0.05219 0.0
C223 C 0.75107 0.27401 0.99306 0.0
C224 C 0.78743 0.28392 0.09365 0.0
H225 H 0.68494 0.28983 0.8377 0.0
H226 H 0.7526 0.24716 0.97496 0.0
C227 C 0.78346 0.31935 0.11299 0.0
C228 C 0.76133 0.78362 0.4377 0.0
C229 C 0.69029 0.78039 0.52093 0.0
H230 H 0.87735 0.81327 0.36898 0.0
C231 C 0.67524 0.80631 0.59524 0.0
H232 H 0.76868 0.76495 0.37547 0.0
C233 C 0.73332 0.83459 0.58842 0.0
C234 C 0.80436 0.83781 0.5052 0.0
H235 H 0.6173 0.80493 0.65715 0.0
H236 H 0.72598 0.85325 0.65067 0.0
C237 C 0.81941 0.8119 0.43089 0.0
C238 C 0.25019 0.77403 0.99301 0.0
C239 C 0.28646 0.78401 0.09355 0.0
H240 H 0.18453 0.78974 0.83736 0.0
C241 C 0.28282 0.81946 0.11249 0.0
H242 H 0.25147 0.74717 0.97521 0.0
C243 C 0.2444 0.84414 0.03324 0.0
C244 C 0.20813 0.83415 0.9327 0.0
H245 H 0.31006 0.82843 0.18889 0.0
H246 H 0.24312 0.871 0.05104 0.0
C247 C 0.21177 0.7987 0.91375 0.0
C248 C 0.9595 1.04841 0.11006 0.0
C249 C 0.93817 0.08314 0.07467 0.0
H250 H 0.04048 0.99902 0.08123 0.0
C251 C 0.97279 0.09287 0.97419 0.0
H252 H 0.93645 1.04024 0.18922 0.0
C253 C 0.03654 0.06961 0.91549 0.0
C254 C 0.05787 1.03488 0.95088 0.0
H255 H 0.95558 0.11901 0.94434 0.0
H256 H 0.05956 0.07778 0.83631 0.0
C257 C 0.02328 1.02516 0.05137 0.0
C258 C 0.10401 1.0487 0.54215 0.0
C259 C 0.07415 0.08384 0.51961 0.0
H260 H 0.05649 0.99842 0.56122 0.0
C261 C 0.96651 0.0935 0.48935 0.0
H262 H 0.18672 1.03972 0.56084 0.0
C263 C 0.89203 0.06924 0.48369 0.0
C264 C 0.92189 1.0341 0.50622 0.0
H265 H 0.93956 0.11952 0.46458 0.0
H266 H 0.80933 0.07822 0.46498 0.0
C267 C 0.02953 1.02444 0.53648 0.0
C268 C 0.47202 0.59296 0.97518 0.0
C269 C 0.43692 0.58326 0.07549 0.0
H270 H 0.55955 0.57785 0.83781 0.0
C271 C 0.45809 0.54854 0.11099 0.0
H272 H 0.45489 0.61909 0.94521 0.0
C273 C 0.52222 0.52527 0.05266 0.0
C274 C 0.55734 0.53497 0.95236 0.0
H275 H 0.43471 0.54039 0.19006 0.0
H276 H 0.53933 0.49914 0.08262 0.0
C277 C 0.53618 0.5697 0.91688 0.0
C278 C 0.39108 0.56937 0.48456 0.0
C279 C 0.42111 0.53425 0.50724 0.0
H280 H 0.43839 0.61968 0.46523 0.0
C281 C 0.52878 0.52465 0.53749 0.0
H282 H 0.30834 0.57831 0.46589 0.0
C283 C 0.60315 0.54895 0.54299 0.0
C284 C 0.57313 0.58406 0.52032 0.0
H285 H 0.55584 0.49864 0.56237 0.0
H286 H 0.68589 0.54001 0.56167 0.0
C287 C 0.46545 0.59367 0.49008 0.0
loop_
_geom_bond_atom_site_label_1
_geom_bond_atom_site_label_2
_geom_bond_distance
_geom_bond_site_symmetry_2
_ccdc_geom_bond_type
Fe0 O1 1.886 . S
Fe0 O4 1.715 . S
Fe0 O9 2.077 . S
Fe0 O14 1.935 . S
Fe0 O20 2.077 . S
Fe0 O29 1.935 . S
O1 Fe0 1.886 . S
O1 Fe3 1.715 1_455 S
Fe2 O4 1.886 . S
Fe2 O5 1.715 1_455 S
Fe2 O12 1.935 . S
Fe2 O13 2.077 . S
Fe2 O19 1.935 1_455 S
Fe2 O28 2.077 . S
Fe3 O1 1.715 1_655 S
Fe3 O6 1.886 . S
Fe3 O10 1.935 1_655 S
Fe3 O15 2.077 . S
Fe3 O21 1.935 . S
Fe3 O25 2.077 . S
O4 Fe0 1.715 . S
O4 Fe2 1.886 . S
O5 Fe2 1.715 1_655 S
O5 Fe7 1.886 . S
O6 Fe3 1.886 . S
O6 Fe7 1.715 . S
Fe7 O5 1.886 . S
Fe7 O6 1.715 . S
Fe7 O11 2.077 1_554 S
Fe7 O16 1.935 . S
Fe7 O18 2.077 . S
Fe7 O26 1.935 . S
C8 O20 1.381 1_655 S
C8 O21 1.421 . S
O9 Fe0 2.077 . S
O9 C22 1.381 . S
O10 Fe3 1.935 1_455 S
O10 C22 1.421 . S
O11 Fe7 2.077 1_556 S
O11 C27 1.381 1_655 S
O12 Fe2 1.935 . S
O12 C27 1.421 1_554 S
O13 Fe2 2.077 . S
O13 C17 1.381 . S
O14 Fe0 1.935 . S
O14 C17 1.421 . S
O15 Fe3 2.077 . S
O15 C23 1.381 . S
O16 Fe7 1.935 . S
O16 C23 1.421 . S
C17 O13 1.381 . S
C17 O14 1.421 . S
O18 Fe7 2.077 . S
O18 C30 1.381 . S
O19 Fe2 1.935 1_655 S
O19 C30 1.421 . S
O20 Fe0 2.077 . S
O20 C8 1.381 1_455 S
O21 Fe3 1.935 . S
O21 C8 1.421 . S
C22 O9 1.381 . S
C22 O10 1.421 . S
C23 O15 1.381 . S
C23 O16 1.421 . S
C24 O25 1.381 . S
C24 O26 1.421 . S
O25 Fe3 2.077 . S
O25 C24 1.381 . S
O26 Fe7 1.935 . S
O26 C24 1.421 . S
C27 O11 1.381 1_455 S
C27 O12 1.421 1_556 S
O28 Fe2 2.077 . S
O28 C31 1.381 . S
O29 Fe0 1.935 . S
O29 C31 1.421 . S
C30 O18 1.381 . S
C30 O19 1.421 . S
C31 O28 1.381 . S
C31 O29 1.421 . S
Fe32 O33 1.886 . S
Fe32 O36 1.715 1_655 S
Fe32 O41 2.077 . S
Fe32 O46 1.935 1_655 S
Fe32 O52 2.077 . S
Fe32 O61 1.935 . S
O33 Fe32 1.886 . S
O33 Fe35 1.715 . S
Fe34 O36 1.886 . S
Fe34 O37 1.715 . S
Fe34 O44 1.935 . S
Fe34 O45 2.077 . S
Fe34 O51 1.935 . S
Fe34 O60 2.077 1_556 S
Fe35 O33 1.715 . S
Fe35 O38 1.886 . S
Fe35 O42 1.935 . S
Fe35 O47 2.077 . S
Fe35 O53 1.935 . S
Fe35 O57 2.077 . S
O36 Fe32 1.715 1_455 S
O36 Fe34 1.886 . S
O37 Fe34 1.715 . S
O37 Fe39 1.886 . S
O38 Fe35 1.886 . S
O38 Fe39 1.715 1_655 S
Fe39 O37 1.886 . S
Fe39 O38 1.715 1_455 S
Fe39 O43 2.077 . S
Fe39 O48 1.935 . S
Fe39 O50 2.077 . S
Fe39 O58 1.935 1_455 S
C40 O52 1.381 . S
C40 O53 1.421 . S
O41 Fe32 2.077 . S
O41 C54 1.381 . S
O42 Fe35 1.935 . S
O42 C54 1.421 . S
O43 Fe39 2.077 . S
O43 C59 1.381 . S
O44 Fe34 1.935 . S
O44 C59 1.421 . S
O45 Fe34 2.077 . S
O45 C49 1.381 . S
O46 Fe32 1.935 1_455 S
O46 C49 1.421 . S
O47 Fe35 2.077 . S
O47 C55 1.381 1_655 S
O48 Fe39 1.935 . S
O48 C55 1.421 . S
C49 O45 1.381 . S
C49 O46 1.421 . S
O50 Fe39 2.077 . S
O50 C62 1.381 . S
O51 Fe34 1.935 . S
O51 C62 1.421 . S
O52 Fe32 2.077 . S
O52 C40 1.381 . S
O53 Fe35 1.935 . S
O53 C40 1.421 . S
C54 O41 1.381 . S
C54 O42 1.421 . S
C55 O47 1.381 1_455 S
C55 O48 1.421 . S
C56 O57 1.381 . S
C56 O58 1.421 . S
O57 Fe35 2.077 . S
O57 C56 1.381 . S
O58 Fe39 1.935 1_655 S
O58 C56 1.421 . S
C59 O43 1.381 . S
C59 O44 1.421 . S
O60 Fe34 2.077 1_554 S
O60 C63 1.381 1_455 S
O61 Fe32 1.935 . S
O61 C63 1.421 1_556 S
C62 O50 1.381 . S
C62 O51 1.421 . S
C63 O60 1.381 1_655 S
C63 O61 1.421 1_554 S
Fe64 O65 1.886 . S
Fe64 O68 1.715 . S
Fe64 O73 2.077 . S
Fe64 O78 1.935 . S
Fe64 O84 2.077 . S
Fe64 O93 1.935 . S
O65 Fe64 1.886 . S
O65 Fe67 1.715 . S
Fe66 O68 1.886 . S
Fe66 O69 1.715 . S
Fe66 O76 1.935 . S
Fe66 O77 2.077 . S
Fe66 O83 1.935 . S
Fe66 O92 2.077 . S
Fe67 O65 1.715 . S
Fe67 O70 1.886 . S
Fe67 O74 1.935 . S
Fe67 O79 2.077 . S
Fe67 O85 1.935 . S
Fe67 O89 2.077 . S
O68 Fe64 1.715 . S
O68 Fe66 1.886 . S
O69 Fe66 1.715 . S
O69 Fe71 1.886 . S
O70 Fe67 1.886 . S
O70 Fe71 1.715 . S
Fe71 O69 1.886 . S
Fe71 O70 1.715 . S
Fe71 O75 2.077 1_554 S
Fe71 O80 1.935 . S
Fe71 O82 2.077 . S
Fe71 O90 1.935 . S
C72 O84 1.381 . S
C72 O85 1.421 . S
O73 Fe64 2.077 . S
O73 C86 1.381 . S
O74 Fe67 1.935 . S
O74 C86 1.421 . S
O75 Fe71 2.077 1_556 S
O75 C91 1.381 . S
O76 Fe66 1.935 . S
O76 C91 1.421 1_554 S
O77 Fe66 2.077 . S
O77 C81 1.381 . S
O78 Fe64 1.935 . S
O78 C81 1.421 . S
O79 Fe67 2.077 . S
O79 C87 1.381 . S
O80 Fe71 1.935 . S
O80 C87 1.421 . S
C81 O77 1.381 . S
C81 O78 1.421 . S
O82 Fe71 2.077 . S
O82 C94 1.381 . S
O83 Fe66 1.935 . S
O83 C94 1.421 . S
O84 Fe64 2.077 . S
O84 C72 1.381 . S
O85 Fe67 1.935 . S
O85 C72 1.421 . S
C86 O73 1.381 . S
C86 O74 1.421 . S
C87 O79 1.381 . S
C87 O80 1.421 . S
C88 O89 1.381 . S
C88 O90 1.421 . S
O89 Fe67 2.077 . S
O89 C88 1.381 . S
O90 Fe71 1.935 . S
O90 C88 1.421 . S
C91 O75 1.381 . S
C91 O76 1.421 1_556 S
O92 Fe66 2.077 . S
O92 C95 1.381 . S
O93 Fe64 1.935 . S
O93 C95 1.421 . S
C94 O82 1.381 . S
C94 O83 1.421 . S
C95 O92 1.381 . S
C95 O93 1.421 . S
Fe96 O97 1.886 . S
Fe96 O100 1.715 . S
Fe96 O105 2.077 . S
Fe96 O110 1.935 . S
Fe96 O116 2.077 . S
Fe96 O125 1.935 . S
O97 Fe96 1.886 . S
O97 Fe99 1.715 . S
Fe98 O100 1.886 . S
Fe98 O101 1.715 . S
Fe98 O108 1.935 . S
Fe98 O109 2.077 . S
Fe98 O115 1.935 . S
Fe98 O124 2.077 1_556 S
Fe99 O97 1.715 . S
Fe99 O102 1.886 . S
Fe99 O106 1.935 . S
Fe99 O111 2.077 . S
Fe99 O117 1.935 . S
Fe99 O121 2.077 . S
O100 Fe96 1.715 . S
O100 Fe98 1.886 . S
O101 Fe98 1.715 . S
O101 Fe103 1.886 . S
O102 Fe99 1.886 . S
O102 Fe103 1.715 . S
Fe103 O101 1.886 . S
Fe103 O102 1.715 . S
Fe103 O107 2.077 . S
Fe103 O112 1.935 . S
Fe103 O114 2.077 . S
Fe103 O122 1.935 . S
C104 O116 1.381 . S
C104 O117 1.421 . S
O105 Fe96 2.077 . S
O105 C118 1.381 . S
O106 Fe99 1.935 . S
O106 C118 1.421 . S
O107 Fe103 2.077 . S
O107 C123 1.381 . S
O108 Fe98 1.935 . S
O108 C123 1.421 . S
O109 Fe98 2.077 . S
O109 C113 1.381 . S
O110 Fe96 1.935 . S
O110 C113 1.421 . S
O111 Fe99 2.077 . S
O111 C119 1.381 . S
O112 Fe103 1.935 . S
O112 C119 1.421 . S
C113 O109 1.381 . S
C113 O110 1.421 . S
O114 Fe103 2.077 . S
O114 C126 1.381 . S
O115 Fe98 1.935 . S
O115 C126 1.421 . S
O116 Fe96 2.077 . S
O116 C104 1.381 . S
O117 Fe99 1.935 . S
O117 C104 1.421 . S
C118 O105 1.381 . S
C118 O106 1.421 . S
C119 O111 1.381 . S
C119 O112 1.421 . S
C120 O121 1.381 . S
C120 O122 1.421 . S
O121 Fe99 2.077 . S
O121 C120 1.381 . S
O122 Fe103 1.935 . S
O122 C120 1.421 . S
C123 O107 1.381 . S
C123 O108 1.421 . S
O124 Fe98 2.077 1_554 S
O124 C127 1.381 . S
O125 Fe96 1.935 . S
O125 C127 1.421 1_556 S
C126 O114 1.381 . S
C126 O115 1.421 . S
C127 O124 1.381 . S
C127 O125 1.421 1_554 S
C128 C129 1.387 . S
C128 H132 0.950 . S
C128 C137 1.390 1_455 S
C129 C128 1.387 . S
C129 C131 1.387 . S
H130 C137 0.950 . S
C131 C129 1.387 . S
C131 C133 1.390 1_455 S
C131 H135 0.950 . S
H132 C128 0.950 . S
C133 C131 1.390 1_655 S
C133 C134 1.387 . S
C133 H136 0.950 . S
C134 C133 1.387 . S
C134 C137 1.387 . S
H135 C131 0.950 . S
H136 C133 0.950 . S
C137 C128 1.390 1_655 S
C137 H130 0.950 . S
C137 C134 1.387 . S
C138 C139 1.387 . S
C138 H142 0.950 . S
C138 C147 1.390 1_455 S
C139 C138 1.387 . S
C139 C141 1.387 . S
H140 C147 0.950 . S
C141 C139 1.387 . S
C141 C143 1.390 1_455 S
C141 H145 0.950 . S
H142 C138 0.950 . S
C143 C141 1.390 1_655 S
C143 C144 1.387 . S
C143 H146 0.950 . S
C144 C143 1.387 . S
C144 C147 1.387 . S
H145 C141 0.950 . S
H146 C143 0.950 . S
C147 C138 1.390 1_655 S
C147 H140 0.950 . S
C147 C144 1.387 . S
C148 C149 1.387 . S
C148 H152 0.950 . S
C148 C157 1.390 . S
C149 C148 1.387 . S
C149 C151 1.387 . S
H150 C157 0.950 . S
C151 C149 1.387 . S
C151 C153 1.390 . S
C151 H155 0.950 . S
H152 C148 0.950 . S
C153 C151 1.390 . S
C153 C154 1.387 . S
C153 H156 0.950 . S
C154 C153 1.387 . S
C154 C157 1.387 . S
H155 C151 0.950 . S
H156 C153 0.950 . S
C157 C148 1.390 . S
C157 H150 0.950 . S
C157 C154 1.387 . S
C158 C159 1.387 . S
C158 H162 0.950 . S
C158 C167 1.390 . S
C159 C158 1.387 . S
C159 C161 1.387 . S
H160 C167 0.950 . S
C161 C159 1.387 . S
C161 C163 1.390 . S
C161 H165 0.950 . S
H162 C158 0.950 . S
C163 C161 1.390 . S
C163 C164 1.387 . S
C163 H166 0.950 . S
C164 C163 1.387 . S
C164 C167 1.387 . S
H165 C161 0.950 . S
H166 C163 0.950 . S
C167 C158 1.390 . S
C167 H160 0.950 . S
C167 C164 1.387 . S
C168 C169 1.387 . S
C168 H172 0.950 . S
C168 C177 1.390 . S
C169 C168 1.387 . S
C169 C171 1.387 . S
H170 C177 0.950 . S
C171 C169 1.387 . S
C171 C173 1.390 . S
C171 H175 0.950 . S
H172 C168 0.950 . S
C173 C171 1.390 . S
C173 C174 1.387 . S
C173 H176 0.950 . S
C174 C173 1.387 . S
C174 C177 1.387 . S
H175 C171 0.950 . S
H176 C173 0.950 . S
C177 C168 1.390 . S
C177 H170 0.950 . S
C177 C174 1.387 . S
C178 C179 1.387 . S
C178 H182 0.950 . S
C178 C187 1.390 . S
C179 C178 1.387 . S
C179 C181 1.387 . S
H180 C187 0.950 . S
C181 C179 1.387 . S
C181 C183 1.390 . S
C181 H185 0.950 . S
H182 C178 0.950 . S
C183 C181 1.390 . S
C183 C184 1.387 . S
C183 H186 0.950 . S
C184 C183 1.387 . S
C184 C187 1.387 . S
H185 C181 0.950 . S
H186 C183 0.950 . S
C187 C178 1.390 . S
C187 H180 0.950 . S
C187 C184 1.387 . S
C188 C189 1.387 . S
C188 H192 0.950 . S
C188 C197 1.390 1_655 S
C189 C188 1.387 . S
C189 C191 1.387 . S
H190 C197 0.950 . S
C191 C189 1.387 . S
C191 C193 1.390 1_655 S
C191 H195 0.950 . S
H192 C188 0.950 . S
C193 C191 1.390 1_455 S
C193 C194 1.387 . S
C193 H196 0.950 . S
C194 C193 1.387 . S
C194 C197 1.387 . S
H195 C191 0.950 . S
H196 C193 0.950 . S
C197 C188 1.390 1_455 S
C197 H190 0.950 . S
C197 C194 1.387 . S
C198 C199 1.387 . S
C198 H202 0.950 . S
C198 C207 1.390 1_655 S
C199 C198 1.387 . S
C199 C201 1.387 . S
H200 C207 0.950 . S
C201 C199 1.387 . S
C201 C203 1.390 1_655 S
C201 H205 0.950 . S
H202 C198 0.950 . S
C203 C201 1.390 1_455 S
C203 C204 1.387 . S
C203 H206 0.950 . S
C204 C203 1.387 . S
C204 C207 1.387 . S
H205 C201 0.950 . S
H206 C203 0.950 . S
C207 C198 1.390 1_455 S
C207 H200 0.950 . S
C207 C204 1.387 . S
C208 C209 1.387 . S
C208 H212 0.950 . S
C208 C217 1.390 . S
C209 C208 1.387 . S
C209 C211 1.387 . S
H210 C217 0.950 . S
C211 C209 1.387 . S
C211 C213 1.390 . S
C211 H215 0.950 . S
H212 C208 0.950 . S
C213 C211 1.390 . S
C213 C214 1.387 . S
C213 H216 0.950 . S
C214 C213 1.387 . S
C214 C217 1.387 . S
H215 C211 0.950 . S
H216 C213 0.950 . S
C217 C208 1.390 . S
C217 H210 0.950 . S
C217 C214 1.387 . S
C218 C219 1.387 1_554 S
C218 H222 0.950 . S
C218 C227 1.390 . S
C219 C218 1.387 1_556 S
C219 C221 1.387 . S
H220 C227 0.950 . S
C221 C219 1.387 . S
C221 C223 1.390 . S
C221 H225 0.950 . S
H222 C218 0.950 . S
C223 C221 1.390 . S
C223 C224 1.387 1_556 S
C223 H226 0.950 . S
C224 C223 1.387 1_554 S
C224 C227 1.387 . S
H225 C221 0.950 . S
H226 C223 0.950 . S
C227 C218 1.390 . S
C227 H220 0.950 . S
C227 C224 1.387 . S
C228 C229 1.387 . S
C228 H232 0.950 . S
C228 C237 1.390 . S
C229 C228 1.387 . S
C229 C231 1.387 . S
H230 C237 0.950 . S
C231 C229 1.387 . S
C231 C233 1.390 . S
C231 H235 0.950 . S
H232 C228 0.950 . S
C233 C231 1.390 . S
C233 C234 1.387 . S
C233 H236 0.950 . S
C234 C233 1.387 . S
C234 C237 1.387 . S
H235 C231 0.950 . S
H236 C233 0.950 . S
C237 C228 1.390 . S
C237 H230 0.950 . S
C237 C234 1.387 . S
C238 C239 1.387 1_556 S
C238 H242 0.950 . S
C238 C247 1.390 . S
C239 C238 1.387 1_554 S
C239 C241 1.387 . S
H240 C247 0.950 . S
C241 C239 1.387 . S
C241 C243 1.390 . S
C241 H245 0.950 . S
H242 C238 0.950 . S
C243 C241 1.390 . S
C243 C244 1.387 1_554 S
C243 H246 0.950 . S
C244 C243 1.387 1_556 S
C244 C247 1.387 . S
H245 C241 0.950 . S
H246 C243 0.950 . S
C247 C238 1.390 . S
C247 H240 0.950 . S
C247 C244 1.387 . S
C248 C249 1.387 1_565 S
C248 H252 0.950 . S
C248 C257 1.390 1_655 S
C249 C248 1.387 1_545 S
C249 C251 1.387 1_554 S
H250 C257 0.950 . S
C251 C249 1.387 1_556 S
C251 C253 1.390 1_655 S
C251 H255 0.950 . S
H252 C248 0.950 . S
C253 C251 1.390 1_455 S
C253 C254 1.387 1_545 S
C253 H256 0.950 . S
C254 C253 1.387 1_565 S
C254 C257 1.387 1_556 S
H255 C251 0.950 . S
H256 C253 0.950 . S
C257 C248 1.390 1_455 S
C257 H250 0.950 . S
C257 C254 1.387 1_554 S
C258 C259 1.387 1_565 S
C258 H262 0.950 . S
C258 C267 1.390 1_455 S
C259 C258 1.387 1_545 S
C259 C261 1.387 . S
H260 C267 0.950 . S
C261 C259 1.387 . S
C261 C263 1.390 1_455 S
C261 H265 0.950 . S
H262 C258 0.950 . S
C263 C261 1.390 1_655 S
C263 C264 1.387 1_545 S
C263 H266 0.950 . S
C264 C263 1.387 1_565 S
C264 C267 1.387 . S
H265 C261 0.950 . S
H266 C263 0.950 . S
C267 C258 1.390 1_655 S
C267 H260 0.950 . S
C267 C264 1.387 . S
C268 C269 1.387 1_556 S
C268 H272 0.950 . S
C268 C277 1.390 . S
C269 C268 1.387 1_554 S
C269 C271 1.387 . S
H270 C277 0.950 . S
C271 C269 1.387 . S
C271 C273 1.390 . S
C271 H275 0.950 . S
H272 C268 0.950 . S
C273 C271 1.390 . S
C273 C274 1.387 1_554 S
C273 H276 0.950 . S
C274 C273 1.387 1_556 S
C274 C277 1.387 . S
H275 C271 0.950 . S
H276 C273 0.950 . S
C277 C268 1.390 . S
C277 H270 0.950 . S
C277 C274 1.387 . S
C278 C279 1.387 . S
C278 H282 0.950 . S
C278 C287 1.390 . S
C279 C278 1.387 . S
C279 C281 1.387 . S
H280 C287 0.950 . S
C281 C279 1.387 . S
C281 C283 1.390 . S
C281 H285 0.950 . S
H282 C278 0.950 . S
C283 C281 1.390 . S
C283 C284 1.387 . S
C283 H286 0.950 . S
C284 C283 1.387 . S
C284 C287 1.387 . S
H285 C281 0.950 . S
H286 C283 0.950 . S
C287 C278 1.390 . S
C287 H280 0.950 . S
C287 C284 1.387 . S
C129 C27 1.365 . S
C134 C8 1.365 . S
C139 C55 1.362 . S
C144 C63 1.362 . S
C149 C91 1.366 . S
C154 C72 1.366 . S
C159 C127 1.366 . S
C164 C119 1.366 . S
C169 C24 1.286 . S
C174 C17 1.286 . S
C179 C40 1.286 . S
C184 C59 1.286 . S
C189 C81 1.284 . S
C194 C88 1.284 . S
C199 C123 1.286 . S
C204 C104 1.286 . S
C209 C120 1.605 . S
C214 C22 1.605 . S
C219 C126 1.543 . S
C224 C23 1.543 . S
C229 C86 1.603 . S
C234 C56 1.603 . S
C239 C87 1.547 . S
C244 C62 1.547 . S
C249 C30 1.842 . S
C254 C49 1.842 . S
C259 C31 2.206 . S
C264 C54 2.206 . S
C269 C94 1.846 . S
C274 C113 1.846 . S
C279 C118 2.207 . S
C284 C95 2.207 . S
