# Generated by pormake.
# Topology gme, (4)-cn, num edge types: 1
# Building blocks:
#     Node 0, Type 0, BuildingBlock: NAHDIM_clean_sbu_0, # of connection points: 4
#     Node 1, Type 0, BuildingBlock: NAHDIM_clean_sbu_0, # of connection points: 4
#     Node 2, Type 0, BuildingBlock: NAHDIM_clean_sbu_0, # of connection points: 4
#     Node 3, Type 0, BuildingBlock: NAHDIM_clean_sbu_0, # of connection points: 4
#     Node 4, Type 0, BuildingBlock: NAHDIM_clean_sbu_0, # of connection points: 4
#     Node 5, Type 0, BuildingBlock: NAHDIM_clean_sbu_0, # of connection points: 4
#     Node 6, Type 0, BuildingBlock: NAHDIM_clean_sbu_0, # of connection points: 4
#     Node 7, Type 0, BuildingBlock: NAHDIM_clean_sbu_0, # of connection points: 4
#     Node 8, Type 0, BuildingBlock: NAHDIM_clean_sbu_0, # of connection points: 4
#     Node 9, Type 0, BuildingBlock: NAHDIM_clean_sbu_0, # of connection points: 4
#     Node 10, Type 0, BuildingBlock: NAHDIM_clean_sbu_0, # of connection points: 4
#     Node 11, Type 0, BuildingBlock: NAHDIM_clean_sbu_0, # of connection points: 4
#     Node 12, Type 0, BuildingBlock: NAHDIM_clean_sbu_0, # of connection points: 4
#     Node 13, Type 0, BuildingBlock: NAHDIM_clean_sbu_0, # of connection points: 4
#     Node 14, Type 0, BuildingBlock: NAHDIM_clean_sbu_0, # of connection points: 4
#     Node 15, Type 0, BuildingBlock: NAHDIM_clean_sbu_0, # of connection points: 4
#     Node 16, Type 0, BuildingBlock: NAHDIM_clean_sbu_0, # of connection points: 4
#     Node 17, Type 0, BuildingBlock: NAHDIM_clean_sbu_0, # of connection points: 4
#     Node 18, Type 0, BuildingBlock: NAHDIM_clean_sbu_0, # of connection points: 4
#     Node 19, Type 0, BuildingBlock: NAHDIM_clean_sbu_0, # of connection points: 4
#     Node 20, Type 0, BuildingBlock: NAHDIM_clean_sbu_0, # of connection points: 4
#     Node 21, Type 0, BuildingBlock: NAHDIM_clean_sbu_0, # of connection points: 4
#     Node 22, Type 0, BuildingBlock: NAHDIM_clean_sbu_0, # of connection points: 4
#     Node 23, Type 0, BuildingBlock: NAHDIM_clean_sbu_0, # of connection points: 4
#     Edge 24, Type (0, 0), None
#     Edge 25, Type (0, 0), None
#     Edge 26, Type (0, 0), None
#     Edge 27, Type (0, 0), None
#     Edge 28, Type (0, 0), None
#     Edge 29, Type (0, 0), None
#     Edge 30, Type (0, 0), None
#     Edge 31, Type (0, 0), None
#     Edge 32, Type (0, 0), None
#     Edge 33, Type (0, 0), None
#     Edge 34, Type (0, 0), None
#     Edge 35, Type (0, 0), None
#     Edge 36, Type (0, 0), None
#     Edge 37, Type (0, 0), None
#     Edge 38, Type (0, 0), None
#     Edge 39, Type (0, 0), None
#     Edge 40, Type (0, 0), None
#     Edge 41, Type (0, 0), None
#     Edge 42, Type (0, 0), None
#     Edge 43, Type (0, 0), None
#     Edge 44, Type (0, 0), None
#     Edge 45, Type (0, 0), None
#     Edge 46, Type (0, 0), None
#     Edge 47, Type (0, 0), None
#     Edge 48, Type (0, 0), None
#     Edge 49, Type (0, 0), None
#     Edge 50, Type (0, 0), None
#     Edge 51, Type (0, 0), None
#     Edge 52, Type (0, 0), None
#     Edge 53, Type (0, 0), None
#     Edge 54, Type (0, 0), None
#     Edge 55, Type (0, 0), None
#     Edge 56, Type (0, 0), None
#     Edge 57, Type (0, 0), None
#     Edge 58, Type (0, 0), None
#     Edge 59, Type (0, 0), None
#     Edge 60, Type (0, 0), None
#     Edge 61, Type (0, 0), None
#     Edge 62, Type (0, 0), None
#     Edge 63, Type (0, 0), None
#     Edge 64, Type (0, 0), None
#     Edge 65, Type (0, 0), None
#     Edge 66, Type (0, 0), None
#     Edge 67, Type (0, 0), None
#     Edge 68, Type (0, 0), None
#     Edge 69, Type (0, 0), None
#     Edge 70, Type (0, 0), None
#     Edge 71, Type (0, 0), None
# Relax obj value: 0.156
# Max RMSD: 0.147
# Mean RMSD: 0.147
data_MOF--net-gme--node1-NAHDIM_clean_sbu_0--edge1-none
_symmetry_space_group_name_H-M    P1
_symmetry_Int_Tables_number       1
_symmetry_cell_setting            triclinic
loop_
_symmetry_equiv_pos_as_xyz
'x, y, z'
_cell_length_a     28.172461
_cell_length_b     28.172924
_cell_length_c     23.645908
_cell_angle_alpha  90.0
_cell_angle_beta   90.0
_cell_angle_gamma 119.98953
loop_
_atom_site_label
_atom_site_type_symbol
_atom_site_fract_x
_atom_site_fract_y
_atom_site_fract_z
_atom_type_partial_charge
C0 C 0.36838 0.02282 0.00828 0.0
O1 O 0.39525 0.06771 0.97814 0.0
O2 O 0.41765 0.16028 0.07671 0.0
Zn3 Zn 0.42607 0.09591 0.10045 0.0
O4 O 0.50226 0.10874 0.08587 0.0
C5 C 0.43738 0.1321 0.21329 0.0
O6 O 0.46374 0.17896 0.18634 0.0
O7 O 0.373 0.02535 0.06176 0.0
C8 C 0.54686 0.15395 0.09095 0.0
O9 O 0.54589 0.19882 0.1036 0.0
C10 C 0.442 0.194 0.03673 0.0
O11 O 0.47429 0.18658 0.00231 0.0
O12 O 0.41514 0.0877 0.18521 0.0
C13 C 0.34167 0.37044 0.50828 0.0
O14 O 0.32362 0.39729 0.47812 0.0
O15 O 0.25353 0.41978 0.57677 0.0
Zn16 Zn 0.32634 0.42823 0.60044 0.0
O17 O 0.38971 0.50441 0.58583 0.0
C18 C 0.30193 0.43998 0.71328 0.0
O19 O 0.28184 0.46672 0.68634 0.0
O20 O 0.34381 0.37512 0.56175 0.0
C21 C 0.38911 0.54905 0.59056 0.0
O22 O 0.34325 0.54818 0.60283 0.0
C23 C 0.24405 0.44399 0.53672 0.0
O24 O 0.28368 0.47621 0.50219 0.0
O25 O 0.32368 0.41733 0.6852 0.0
C26 C 0.96723 0.34354 0.00829 0.0
O27 O 0.92233 0.32548 0.97814 0.0
O28 O 0.82977 0.25559 0.07673 0.0
Zn29 Zn 0.89416 0.32834 0.10045 0.0
O30 O 0.88143 0.39177 0.08587 0.0
C31 C 0.85799 0.30364 0.21329 0.0
O32 O 0.81115 0.28332 0.18634 0.0
O33 O 0.96471 0.34574 0.06176 0.0
C34 C 0.83625 0.39126 0.09094 0.0
O35 O 0.79133 0.34547 0.10355 0.0
C36 C 0.79601 0.24622 0.03678 0.0
O37 O 0.80338 0.28593 0.00239 0.0
O38 O 0.90239 0.32563 0.18521 0.0
C39 C 0.61994 0.96939 0.50828 0.0
O40 O 0.59306 0.9245 0.47814 0.0
O41 O 0.57067 0.83193 0.57671 0.0
Zn42 Zn 0.56225 0.8963 0.60045 0.0
O43 O 0.48605 0.88347 0.58587 0.0
C44 C 0.55094 0.86011 0.71329 0.0
O45 O 0.52458 0.81325 0.68634 0.0
O46 O 0.61532 0.96686 0.56176 0.0
C47 C 0.44145 0.83825 0.59095 0.0
O48 O 0.44243 0.79339 0.6036 0.0
C49 C 0.54631 0.79821 0.53673 0.0
O50 O 0.51402 0.80563 0.50231 0.0
O51 O 0.57318 0.90451 0.68521 0.0
C52 C 0.64665 0.62177 0.00828 0.0
O53 O 0.66469 0.59492 0.97812 0.0
O54 O 0.73478 0.57243 0.07677 0.0
Zn55 Zn 0.66197 0.56398 0.10044 0.0
O56 O 0.59861 0.4878 0.08583 0.0
C57 C 0.68638 0.55222 0.21328 0.0
O58 O 0.70648 0.52549 0.18634 0.0
O59 O 0.6445 0.61709 0.06175 0.0
C60 C 0.59921 0.44316 0.09056 0.0
O61 O 0.64507 0.44403 0.10283 0.0
C62 C 0.74427 0.54822 0.03672 0.0
O63 O 0.70464 0.516 0.00219 0.0
O64 O 0.66464 0.57488 0.1852 0.0
C65 C 0.02109 0.64867 0.50829 0.0
O66 O 0.06598 0.66673 0.47814 0.0
O67 O 0.15855 0.73662 0.57673 0.0
Zn68 Zn 0.09415 0.66387 0.60045 0.0
O69 O 0.10689 0.60044 0.58587 0.0
C70 C 0.13032 0.68857 0.71329 0.0
O71 O 0.17717 0.70889 0.68634 0.0
O72 O 0.02361 0.64647 0.56176 0.0
C73 C 0.15207 0.60095 0.59094 0.0
O74 O 0.19699 0.64674 0.60355 0.0
C75 C 0.19231 0.74599 0.53678 0.0
O76 O 0.18493 0.70628 0.50239 0.0
O77 O 0.08592 0.66658 0.68521 0.0
C78 C 0.96753 0.62194 0.4802 0.0
O79 O 0.92262 0.59524 0.51036 0.0
O80 O 0.83008 0.57258 0.41179 0.0
Zn81 Zn 0.89442 0.56412 0.38805 0.0
O82 O 0.88155 0.48791 0.40263 0.0
C83 C 0.85823 0.55282 0.27522 0.0
O84 O 0.81137 0.52648 0.30216 0.0
O85 O 0.965 0.61716 0.42673 0.0
C86 C 0.83632 0.44333 0.39755 0.0
O87 O 0.79147 0.44433 0.3849 0.0
C88 C 0.79636 0.54824 0.45178 0.0
O89 O 0.80376 0.51594 0.48619 0.0
O90 O 0.90264 0.57504 0.30329 0.0
C91 C 0.34162 0.96926 0.98019 0.0
O92 O 0.32336 0.92435 0.01036 0.0
O93 O 0.25376 0.83181 0.91177 0.0
Zn94 Zn 0.32654 0.89618 0.88805 0.0
O95 O 0.38994 0.88341 0.90263 0.0
C96 C 0.30181 0.86001 0.77522 0.0
O97 O 0.28146 0.81316 0.80216 0.0
O98 O 0.34398 0.96674 0.92673 0.0
C99 C 0.3894 0.83822 0.89756 0.0
O100 O 0.3436 0.79331 0.88494 0.0
C101 C 0.24438 0.79805 0.95172 0.0
O102 O 0.28409 0.80541 0.98611 0.0
O103 O 0.32383 0.90441 0.80329 0.0
C104 C 0.36844 0.34365 0.4802 0.0
O105 O 0.39512 0.32542 0.51038 0.0
O106 O 0.41786 0.2556 0.41173 0.0
Zn107 Zn 0.42634 0.32842 0.38806 0.0
O108 O 0.50254 0.39176 0.40267 0.0
C109 C 0.43808 0.304 0.27522 0.0
O110 O 0.4648 0.28388 0.30217 0.0
O111 O 0.37326 0.34593 0.42674 0.0
C112 C 0.54717 0.39114 0.39794 0.0
O113 O 0.54627 0.34526 0.38566 0.0
C114 C 0.44205 0.2461 0.45178 0.0
O115 O 0.47428 0.28572 0.48631 0.0
O116 O 0.41545 0.32576 0.3033 0.0
C117 C 0.02079 0.37027 0.9802 0.0
O118 O 0.06569 0.39697 0.01036 0.0
O119 O 0.15824 0.41963 0.91179 0.0
Zn120 Zn 0.0939 0.42809 0.88805 0.0
O121 O 0.10676 0.5043 0.90263 0.0
C122 C 0.13008 0.43938 0.77522 0.0
O123 O 0.17694 0.46572 0.80216 0.0
O124 O 0.02331 0.37505 0.92673 0.0
C125 C 0.152 0.54888 0.89755 0.0
O126 O 0.19685 0.54788 0.8849 0.0
C127 C 0.19196 0.44396 0.95178 0.0
O128 O 0.18456 0.47626 0.98619 0.0
O129 O 0.08568 0.41717 0.80329 0.0
C130 C 0.64669 0.02295 0.48019 0.0
O131 O 0.66495 0.06786 0.51036 0.0
O132 O 0.73455 0.1604 0.41177 0.0
Zn133 Zn 0.66178 0.09603 0.38805 0.0
O134 O 0.59837 0.1088 0.40263 0.0
C135 C 0.6865 0.1322 0.27522 0.0
O136 O 0.70686 0.17904 0.30216 0.0
O137 O 0.64434 0.02547 0.42673 0.0
C138 C 0.59892 0.15399 0.39756 0.0
O139 O 0.64472 0.1989 0.38494 0.0
C140 C 0.74393 0.19416 0.45172 0.0
O141 O 0.70423 0.1868 0.48611 0.0
O142 O 0.66448 0.0878 0.30329 0.0
C143 C 0.61987 0.64856 0.9802 0.0
O144 O 0.59319 0.66679 0.01038 0.0
O145 O 0.57046 0.73661 0.91173 0.0
Zn146 Zn 0.56198 0.66379 0.88806 0.0
O147 O 0.48578 0.60045 0.90267 0.0
C148 C 0.55023 0.68821 0.77522 0.0
O149 O 0.52352 0.70833 0.80217 0.0
O150 O 0.61505 0.64628 0.92674 0.0
C151 C 0.44115 0.60107 0.89794 0.0
O152 O 0.44204 0.64694 0.88566 0.0
C153 C 0.54626 0.74611 0.95178 0.0
O154 O 0.51404 0.70649 0.98631 0.0
O155 O 0.57287 0.66645 0.8033 0.0
C156 C 0.61994 0.96939 0.98023 0.0
O157 O 0.59306 0.9245 0.01036 0.0
O158 O 0.57067 0.83193 0.91179 0.0
Zn159 Zn 0.56225 0.8963 0.88805 0.0
O160 O 0.48605 0.88347 0.90263 0.0
C161 C 0.55094 0.86011 0.77522 0.0
O162 O 0.52457 0.81325 0.80216 0.0
O163 O 0.61532 0.96686 0.92674 0.0
C164 C 0.44145 0.83825 0.89755 0.0
O165 O 0.44242 0.79339 0.8849 0.0
C166 C 0.54632 0.79821 0.95178 0.0
O167 O 0.51402 0.80563 0.98619 0.0
O168 O 0.57318 0.90451 0.80329 0.0
C169 C 0.64665 0.62177 0.48022 0.0
O170 O 0.66469 0.59492 0.51038 0.0
O171 O 0.73478 0.57243 0.41173 0.0
Zn172 Zn 0.66197 0.56398 0.38806 0.0
O173 O 0.59861 0.4878 0.40267 0.0
C174 C 0.68638 0.55222 0.27522 0.0
O175 O 0.70647 0.52549 0.30217 0.0
O176 O 0.6445 0.61709 0.42675 0.0
C177 C 0.59921 0.44316 0.39795 0.0
O178 O 0.64507 0.44402 0.38567 0.0
C179 C 0.74426 0.54822 0.45179 0.0
O180 O 0.70464 0.516 0.48631 0.0
O181 O 0.66464 0.57488 0.3033 0.0
C182 C 0.02109 0.64867 0.98021 0.0
O183 O 0.06598 0.66673 0.01036 0.0
O184 O 0.15855 0.73662 0.91177 0.0
Zn185 Zn 0.09415 0.66387 0.88805 0.0
O186 O 0.10689 0.60044 0.90263 0.0
C187 C 0.13032 0.68857 0.77522 0.0
O188 O 0.17717 0.70889 0.80216 0.0
O189 O 0.02361 0.64647 0.92674 0.0
C190 C 0.15207 0.60096 0.89757 0.0
O191 O 0.19699 0.64674 0.88495 0.0
C192 C 0.1923 0.74599 0.95172 0.0
O193 O 0.18494 0.70629 0.98611 0.0
O194 O 0.08592 0.66658 0.80329 0.0
C195 C 0.36838 0.02282 0.48023 0.0
O196 O 0.39526 0.06771 0.51036 0.0
O197 O 0.41765 0.16028 0.41179 0.0
Zn198 Zn 0.42607 0.09591 0.38805 0.0
O199 O 0.50226 0.10874 0.40263 0.0
C200 C 0.43738 0.1321 0.27522 0.0
O201 O 0.46374 0.17896 0.30216 0.0
O202 O 0.373 0.02534 0.42674 0.0
C203 C 0.54686 0.15396 0.39755 0.0
O204 O 0.54589 0.19882 0.3849 0.0
C205 C 0.442 0.19399 0.45178 0.0
O206 O 0.4743 0.18658 0.48619 0.0
O207 O 0.41514 0.0877 0.30329 0.0
C208 C 0.34167 0.37044 0.98022 0.0
O209 O 0.32362 0.39729 0.01038 0.0
O210 O 0.25353 0.41978 0.91173 0.0
Zn211 Zn 0.32634 0.42822 0.88806 0.0
O212 O 0.38971 0.50441 0.90267 0.0
C213 C 0.30194 0.43999 0.77522 0.0
O214 O 0.28184 0.46672 0.80217 0.0
O215 O 0.34381 0.37512 0.92675 0.0
C216 C 0.38911 0.54905 0.89795 0.0
O217 O 0.34325 0.54818 0.88567 0.0
C218 C 0.24405 0.44399 0.95179 0.0
O219 O 0.28367 0.47621 0.98631 0.0
O220 O 0.32368 0.41733 0.8033 0.0
C221 C 0.96723 0.34354 0.48021 0.0
O222 O 0.92233 0.32548 0.51036 0.0
O223 O 0.82977 0.25559 0.41177 0.0
Zn224 Zn 0.89416 0.32834 0.38805 0.0
O225 O 0.88143 0.39177 0.40263 0.0
C226 C 0.85799 0.30364 0.27522 0.0
O227 O 0.81115 0.28332 0.30216 0.0
O228 O 0.96471 0.34574 0.42674 0.0
C229 C 0.83625 0.39125 0.39757 0.0
O230 O 0.79133 0.34547 0.38495 0.0
C231 C 0.79601 0.24622 0.45172 0.0
O232 O 0.80338 0.28592 0.48611 0.0
O233 O 0.90239 0.32563 0.30329 0.0
C234 C 0.02079 0.37027 0.5083 0.0
O235 O 0.06569 0.39697 0.47814 0.0
O236 O 0.15824 0.41963 0.57671 0.0
Zn237 Zn 0.0939 0.42809 0.60045 0.0
O238 O 0.10676 0.5043 0.58587 0.0
C239 C 0.13008 0.43939 0.71328 0.0
O240 O 0.17694 0.46573 0.68634 0.0
O241 O 0.02331 0.37505 0.56177 0.0
C242 C 0.152 0.54888 0.59095 0.0
O243 O 0.19685 0.54788 0.6036 0.0
C244 C 0.19196 0.44396 0.53672 0.0
O245 O 0.18456 0.47627 0.50231 0.0
O246 O 0.08568 0.41717 0.68521 0.0
C247 C 0.64669 0.02295 0.00831 0.0
O248 O 0.66495 0.06786 0.97814 0.0
O249 O 0.73455 0.1604 0.07673 0.0
Zn250 Zn 0.66178 0.09602 0.10045 0.0
O251 O 0.59838 0.1088 0.08587 0.0
C252 C 0.6865 0.1322 0.21328 0.0
O253 O 0.70685 0.17904 0.18634 0.0
O254 O 0.64434 0.02547 0.06177 0.0
C255 C 0.59892 0.15399 0.09094 0.0
O256 O 0.64472 0.1989 0.10356 0.0
C257 C 0.74393 0.19415 0.03678 0.0
O258 O 0.70423 0.1868 0.00239 0.0
O259 O 0.66448 0.0878 0.18521 0.0
C260 C 0.61987 0.64856 0.5083 0.0
O261 O 0.59319 0.66679 0.47813 0.0
O262 O 0.57046 0.73661 0.57677 0.0
Zn263 Zn 0.56198 0.66379 0.60044 0.0
O264 O 0.48578 0.60045 0.58583 0.0
C265 C 0.55023 0.68821 0.71328 0.0
O266 O 0.52351 0.70833 0.68634 0.0
O267 O 0.61505 0.64628 0.56176 0.0
C268 C 0.44115 0.60107 0.59055 0.0
O269 O 0.44204 0.64694 0.60283 0.0
C270 C 0.54626 0.74611 0.53672 0.0
O271 O 0.51403 0.70649 0.50219 0.0
O272 O 0.57287 0.66645 0.6852 0.0
C273 C 0.96753 0.62194 0.0083 0.0
O274 O 0.92262 0.59524 0.97814 0.0
O275 O 0.83008 0.57258 0.07671 0.0
Zn276 Zn 0.89442 0.56412 0.10045 0.0
O277 O 0.88155 0.48791 0.08587 0.0
C278 C 0.85823 0.55282 0.21328 0.0
O279 O 0.81137 0.52648 0.18634 0.0
O280 O 0.965 0.61716 0.06177 0.0
C281 C 0.83632 0.44333 0.09095 0.0
O282 O 0.79146 0.44432 0.1036 0.0
C283 C 0.79636 0.54825 0.03672 0.0
O284 O 0.80375 0.51594 0.00231 0.0
O285 O 0.90264 0.57504 0.18521 0.0
C286 C 0.34162 0.96926 0.50831 0.0
O287 O 0.32336 0.92435 0.47814 0.0
O288 O 0.25376 0.83181 0.57673 0.0
Zn289 Zn 0.32654 0.89618 0.60045 0.0
O290 O 0.38994 0.88341 0.58587 0.0
C291 C 0.30182 0.86001 0.71328 0.0
O292 O 0.28146 0.81316 0.68634 0.0
O293 O 0.34398 0.96674 0.56177 0.0
C294 C 0.3894 0.83821 0.59094 0.0
O295 O 0.3436 0.79331 0.60356 0.0
C296 C 0.24438 0.79806 0.53678 0.0
O297 O 0.28408 0.8054 0.50239 0.0
O298 O 0.32383 0.90441 0.68521 0.0
C299 C 0.36844 0.34365 0.0083 0.0
O300 O 0.39512 0.32542 0.97813 0.0
O301 O 0.41786 0.2556 0.07677 0.0
Zn302 Zn 0.42634 0.32842 0.10044 0.0
O303 O 0.50254 0.39176 0.08583 0.0
C304 C 0.43809 0.304 0.21328 0.0
O305 O 0.4648 0.28388 0.18634 0.0
O306 O 0.37326 0.34593 0.06176 0.0
C307 C 0.54717 0.39113 0.09055 0.0
O308 O 0.54628 0.34526 0.10283 0.0
C309 C 0.44205 0.2461 0.03672 0.0
O310 O 0.47428 0.28572 0.00219 0.0
O311 O 0.41545 0.32576 0.1852 0.0
loop_
_geom_bond_atom_site_label_1
_geom_bond_atom_site_label_2
_geom_bond_distance
_geom_bond_site_symmetry_2
_ccdc_geom_bond_type
C0 O1 1.160 1_554 S
C0 O7 1.185 . S
O1 C0 1.160 1_556 S
O2 Zn3 1.899 . S
O2 C10 1.284 . S
Zn3 O2 1.899 . S
Zn3 O4 2.032 . S
Zn3 O7 2.086 . S
Zn3 O12 1.977 . S
O4 Zn3 2.032 . S
O4 C8 1.278 . S
C5 O6 1.203 . S
C5 O12 1.267 . S
O6 C5 1.203 . S
O7 C0 1.185 . S
O7 Zn3 2.086 . S
C8 O4 1.278 . S
C8 O9 1.211 . S
O9 C8 1.211 . S
C10 O2 1.284 . S
C10 O11 1.273 . S
O11 C10 1.273 . S
O12 Zn3 1.977 . S
O12 C5 1.267 . S
C13 O14 1.160 . S
C13 O20 1.185 . S
O14 C13 1.160 . S
O15 Zn16 1.899 . S
O15 C23 1.284 . S
Zn16 O15 1.899 . S
Zn16 O17 2.032 . S
Zn16 O20 2.086 . S
Zn16 O25 1.977 . S
O17 Zn16 2.032 . S
O17 C21 1.278 . S
C18 O19 1.203 . S
C18 O25 1.267 . S
O19 C18 1.203 . S
O20 C13 1.185 . S
O20 Zn16 2.086 . S
C21 O17 1.278 . S
C21 O22 1.211 . S
O22 C21 1.211 . S
C23 O15 1.284 . S
C23 O24 1.273 . S
O24 C23 1.273 . S
O25 Zn16 1.977 . S
O25 C18 1.267 . S
C26 O27 1.160 1_554 S
C26 O33 1.185 . S
O27 C26 1.160 1_556 S
O28 Zn29 1.899 . S
O28 C36 1.284 . S
Zn29 O28 1.899 . S
Zn29 O30 2.032 . S
Zn29 O33 2.086 . S
Zn29 O38 1.977 . S
O30 Zn29 2.032 . S
O30 C34 1.278 . S
C31 O32 1.203 . S
C31 O38 1.267 . S
O32 C31 1.203 . S
O33 C26 1.185 . S
O33 Zn29 2.086 . S
C34 O30 1.278 . S
C34 O35 1.211 . S
O35 C34 1.211 . S
C36 O28 1.284 . S
C36 O37 1.273 . S
O37 C36 1.273 . S
O38 Zn29 1.977 . S
O38 C31 1.267 . S
C39 O40 1.160 . S
C39 O46 1.185 . S
O40 C39 1.160 . S
O41 Zn42 1.899 . S
O41 C49 1.284 . S
Zn42 O41 1.899 . S
Zn42 O43 2.032 . S
Zn42 O46 2.086 . S
Zn42 O51 1.977 . S
O43 Zn42 2.032 . S
O43 C47 1.278 . S
C44 O45 1.203 . S
C44 O51 1.267 . S
O45 C44 1.203 . S
O46 C39 1.185 . S
O46 Zn42 2.086 . S
C47 O43 1.278 . S
C47 O48 1.211 . S
O48 C47 1.211 . S
C49 O41 1.284 . S
C49 O50 1.273 . S
O50 C49 1.273 . S
O51 Zn42 1.977 . S
O51 C44 1.267 . S
C52 O53 1.160 1_554 S
C52 O59 1.185 . S
O53 C52 1.160 1_556 S
O54 Zn55 1.899 . S
O54 C62 1.284 . S
Zn55 O54 1.899 . S
Zn55 O56 2.032 . S
Zn55 O59 2.086 . S
Zn55 O64 1.977 . S
O56 Zn55 2.032 . S
O56 C60 1.278 . S
C57 O58 1.203 . S
C57 O64 1.267 . S
O58 C57 1.203 . S
O59 C52 1.185 . S
O59 Zn55 2.086 . S
C60 O56 1.278 . S
C60 O61 1.211 . S
O61 C60 1.211 . S
C62 O54 1.284 . S
C62 O63 1.273 . S
O63 C62 1.273 . S
O64 Zn55 1.977 . S
O64 C57 1.267 . S
C65 O66 1.160 . S
C65 O72 1.185 . S
O66 C65 1.160 . S
O67 Zn68 1.899 . S
O67 C75 1.284 . S
Zn68 O67 1.899 . S
Zn68 O69 2.032 . S
Zn68 O72 2.086 . S
Zn68 O77 1.977 . S
O69 Zn68 2.032 . S
O69 C73 1.278 . S
C70 O71 1.203 . S
C70 O77 1.267 . S
O71 C70 1.203 . S
O72 C65 1.185 . S
O72 Zn68 2.086 . S
C73 O69 1.278 . S
C73 O74 1.211 . S
O74 C73 1.211 . S
C75 O67 1.284 . S
C75 O76 1.273 . S
O76 C75 1.273 . S
O77 Zn68 1.977 . S
O77 C70 1.267 . S
C78 O79 1.160 . S
C78 O85 1.185 . S
O79 C78 1.160 . S
O80 Zn81 1.899 . S
O80 C88 1.284 . S
Zn81 O80 1.899 . S
Zn81 O82 2.032 . S
Zn81 O85 2.086 . S
Zn81 O90 1.977 . S
O82 Zn81 2.032 . S
O82 C86 1.278 . S
C83 O84 1.203 . S
C83 O90 1.267 . S
O84 C83 1.203 . S
O85 C78 1.185 . S
O85 Zn81 2.086 . S
C86 O82 1.278 . S
C86 O87 1.211 . S
O87 C86 1.211 . S
C88 O80 1.284 . S
C88 O89 1.273 . S
O89 C88 1.273 . S
O90 Zn81 1.977 . S
O90 C83 1.267 . S
C91 O92 1.160 1_556 S
C91 O98 1.185 . S
O92 C91 1.160 1_554 S
O93 Zn94 1.899 . S
O93 C101 1.284 . S
Zn94 O93 1.899 . S
Zn94 O95 2.032 . S
Zn94 O98 2.086 . S
Zn94 O103 1.977 . S
O95 Zn94 2.032 . S
O95 C99 1.278 . S
C96 O97 1.203 . S
C96 O103 1.267 . S
O97 C96 1.203 . S
O98 C91 1.185 . S
O98 Zn94 2.086 . S
C99 O95 1.278 . S
C99 O100 1.211 . S
O100 C99 1.211 . S
C101 O93 1.284 . S
C101 O102 1.273 . S
O102 C101 1.273 . S
O103 Zn94 1.977 . S
O103 C96 1.267 . S
C104 O105 1.160 . S
C104 O111 1.185 . S
O105 C104 1.160 . S
O106 Zn107 1.899 . S
O106 C114 1.284 . S
Zn107 O106 1.899 . S
Zn107 O108 2.032 . S
Zn107 O111 2.086 . S
Zn107 O116 1.977 . S
O108 Zn107 2.032 . S
O108 C112 1.278 . S
C109 O110 1.203 . S
C109 O116 1.267 . S
O110 C109 1.203 . S
O111 C104 1.185 . S
O111 Zn107 2.086 . S
C112 O108 1.278 . S
C112 O113 1.211 . S
O113 C112 1.211 . S
C114 O106 1.284 . S
C114 O115 1.273 . S
O115 C114 1.273 . S
O116 Zn107 1.977 . S
O116 C109 1.267 . S
C117 O118 1.160 1_556 S
C117 O124 1.185 . S
O118 C117 1.160 1_554 S
O119 Zn120 1.899 . S
O119 C127 1.284 . S
Zn120 O119 1.899 . S
Zn120 O121 2.032 . S
Zn120 O124 2.086 . S
Zn120 O129 1.977 . S
O121 Zn120 2.032 . S
O121 C125 1.278 . S
C122 O123 1.203 . S
C122 O129 1.267 . S
O123 C122 1.203 . S
O124 C117 1.185 . S
O124 Zn120 2.086 . S
C125 O121 1.278 . S
C125 O126 1.211 . S
O126 C125 1.211 . S
C127 O119 1.284 . S
C127 O128 1.273 . S
O128 C127 1.273 . S
O129 Zn120 1.977 . S
O129 C122 1.267 . S
C130 O131 1.160 . S
C130 O137 1.185 . S
O131 C130 1.160 . S
O132 Zn133 1.899 . S
O132 C140 1.284 . S
Zn133 O132 1.899 . S
Zn133 O134 2.032 . S
Zn133 O137 2.086 . S
Zn133 O142 1.977 . S
O134 Zn133 2.032 . S
O134 C138 1.278 . S
C135 O136 1.203 . S
C135 O142 1.267 . S
O136 C135 1.203 . S
O137 C130 1.185 . S
O137 Zn133 2.086 . S
C138 O134 1.278 . S
C138 O139 1.211 . S
O139 C138 1.211 . S
C140 O132 1.284 . S
C140 O141 1.273 . S
O141 C140 1.273 . S
O142 Zn133 1.977 . S
O142 C135 1.267 . S
C143 O144 1.160 1_556 S
C143 O150 1.185 . S
O144 C143 1.160 1_554 S
O145 Zn146 1.899 . S
O145 C153 1.284 . S
Zn146 O145 1.899 . S
Zn146 O147 2.032 . S
Zn146 O150 2.086 . S
Zn146 O155 1.977 . S
O147 Zn146 2.032 . S
O147 C151 1.278 . S
C148 O149 1.203 . S
C148 O155 1.267 . S
O149 C148 1.203 . S
O150 C143 1.185 . S
O150 Zn146 2.086 . S
C151 O147 1.278 . S
C151 O152 1.211 . S
O152 C151 1.211 . S
C153 O145 1.284 . S
C153 O154 1.273 . S
O154 C153 1.273 . S
O155 Zn146 1.977 . S
O155 C148 1.267 . S
C156 O157 1.160 1_556 S
C156 O163 1.185 . S
O157 C156 1.160 1_554 S
O158 Zn159 1.899 . S
O158 C166 1.284 . S
Zn159 O158 1.899 . S
Zn159 O160 2.032 . S
Zn159 O163 2.086 . S
Zn159 O168 1.977 . S
O160 Zn159 2.032 . S
O160 C164 1.278 . S
C161 O162 1.203 . S
C161 O168 1.267 . S
O162 C161 1.203 . S
O163 C156 1.185 . S
O163 Zn159 2.086 . S
C164 O160 1.278 . S
C164 O165 1.211 . S
O165 C164 1.211 . S
C166 O158 1.284 . S
C166 O167 1.273 . S
O167 C166 1.273 . S
O168 Zn159 1.977 . S
O168 C161 1.267 . S
C169 O170 1.160 . S
C169 O176 1.185 . S
O170 C169 1.160 . S
O171 Zn172 1.899 . S
O171 C179 1.284 . S
Zn172 O171 1.899 . S
Zn172 O173 2.032 . S
Zn172 O176 2.086 . S
Zn172 O181 1.977 . S
O173 Zn172 2.032 . S
O173 C177 1.278 . S
C174 O175 1.203 . S
C174 O181 1.267 . S
O175 C174 1.203 . S
O176 C169 1.185 . S
O176 Zn172 2.086 . S
C177 O173 1.278 . S
C177 O178 1.211 . S
O178 C177 1.211 . S
C179 O171 1.284 . S
C179 O180 1.273 . S
O180 C179 1.273 . S
O181 Zn172 1.977 . S
O181 C174 1.267 . S
C182 O183 1.160 1_556 S
C182 O189 1.185 . S
O183 C182 1.160 1_554 S
O184 Zn185 1.899 . S
O184 C192 1.284 . S
Zn185 O184 1.899 . S
Zn185 O186 2.032 . S
Zn185 O189 2.086 . S
Zn185 O194 1.977 . S
O186 Zn185 2.032 . S
O186 C190 1.278 . S
C187 O188 1.203 . S
C187 O194 1.267 . S
O188 C187 1.203 . S
O189 C182 1.185 . S
O189 Zn185 2.086 . S
C190 O186 1.278 . S
C190 O191 1.211 . S
O191 C190 1.211 . S
C192 O184 1.284 . S
C192 O193 1.273 . S
O193 C192 1.273 . S
O194 Zn185 1.977 . S
O194 C187 1.267 . S
C195 O196 1.160 . S
C195 O202 1.185 . S
O196 C195 1.160 . S
O197 Zn198 1.899 . S
O197 C205 1.284 . S
Zn198 O197 1.899 . S
Zn198 O199 2.032 . S
Zn198 O202 2.086 . S
Zn198 O207 1.977 . S
O199 Zn198 2.032 . S
O199 C203 1.278 . S
C200 O201 1.203 . S
C200 O207 1.267 . S
O201 C200 1.203 . S
O202 C195 1.185 . S
O202 Zn198 2.086 . S
C203 O199 1.278 . S
C203 O204 1.211 . S
O204 C203 1.211 . S
C205 O197 1.284 . S
C205 O206 1.273 . S
O206 C205 1.273 . S
O207 Zn198 1.977 . S
O207 C200 1.267 . S
C208 O209 1.160 1_556 S
C208 O215 1.185 . S
O209 C208 1.160 1_554 S
O210 Zn211 1.899 . S
O210 C218 1.284 . S
Zn211 O210 1.899 . S
Zn211 O212 2.032 . S
Zn211 O215 2.086 . S
Zn211 O220 1.977 . S
O212 Zn211 2.032 . S
O212 C216 1.278 . S
C213 O214 1.203 . S
C213 O220 1.267 . S
O214 C213 1.203 . S
O215 C208 1.185 . S
O215 Zn211 2.086 . S
C216 O212 1.278 . S
C216 O217 1.211 . S
O217 C216 1.211 . S
C218 O210 1.284 . S
C218 O219 1.273 . S
O219 C218 1.273 . S
O220 Zn211 1.977 . S
O220 C213 1.267 . S
C221 O222 1.160 . S
C221 O228 1.185 . S
O222 C221 1.160 . S
O223 Zn224 1.899 . S
O223 C231 1.284 . S
Zn224 O223 1.899 . S
Zn224 O225 2.032 . S
Zn224 O228 2.086 . S
Zn224 O233 1.977 . S
O225 Zn224 2.032 . S
O225 C229 1.278 . S
C226 O227 1.203 . S
C226 O233 1.267 . S
O227 C226 1.203 . S
O228 C221 1.185 . S
O228 Zn224 2.086 . S
C229 O225 1.278 . S
C229 O230 1.211 . S
O230 C229 1.211 . S
C231 O223 1.284 . S
C231 O232 1.273 . S
O232 C231 1.273 . S
O233 Zn224 1.977 . S
O233 C226 1.267 . S
C234 O235 1.160 . S
C234 O241 1.185 . S
O235 C234 1.160 . S
O236 Zn237 1.899 . S
O236 C244 1.284 . S
Zn237 O236 1.899 . S
Zn237 O238 2.032 . S
Zn237 O241 2.086 . S
Zn237 O246 1.977 . S
O238 Zn237 2.032 . S
O238 C242 1.278 . S
C239 O240 1.203 . S
C239 O246 1.267 . S
O240 C239 1.203 . S
O241 C234 1.185 . S
O241 Zn237 2.086 . S
C242 O238 1.278 . S
C242 O243 1.211 . S
O243 C242 1.211 . S
C244 O236 1.284 . S
C244 O245 1.273 . S
O245 C244 1.273 . S
O246 Zn237 1.977 . S
O246 C239 1.267 . S
C247 O248 1.160 1_554 S
C247 O254 1.185 . S
O248 C247 1.160 1_556 S
O249 Zn250 1.899 . S
O249 C257 1.284 . S
Zn250 O249 1.899 . S
Zn250 O251 2.032 . S
Zn250 O254 2.086 . S
Zn250 O259 1.977 . S
O251 Zn250 2.032 . S
O251 C255 1.278 . S
C252 O253 1.203 . S
C252 O259 1.267 . S
O253 C252 1.203 . S
O254 C247 1.185 . S
O254 Zn250 2.086 . S
C255 O251 1.278 . S
C255 O256 1.211 . S
O256 C255 1.211 . S
C257 O249 1.284 . S
C257 O258 1.273 . S
O258 C257 1.273 . S
O259 Zn250 1.977 . S
O259 C252 1.267 . S
C260 O261 1.160 . S
C260 O267 1.185 . S
O261 C260 1.160 . S
O262 Zn263 1.899 . S
O262 C270 1.284 . S
Zn263 O262 1.899 . S
Zn263 O264 2.032 . S
Zn263 O267 2.086 . S
Zn263 O272 1.977 . S
O264 Zn263 2.032 . S
O264 C268 1.278 . S
C265 O266 1.203 . S
C265 O272 1.267 . S
O266 C265 1.203 . S
O267 C260 1.185 . S
O267 Zn263 2.086 . S
C268 O264 1.278 . S
C268 O269 1.211 . S
O269 C268 1.211 . S
C270 O262 1.284 . S
C270 O271 1.273 . S
O271 C270 1.273 . S
O272 Zn263 1.977 . S
O272 C265 1.267 . S
C273 O274 1.160 1_554 S
C273 O280 1.185 . S
O274 C273 1.160 1_556 S
O275 Zn276 1.899 . S
O275 C283 1.284 . S
Zn276 O275 1.899 . S
Zn276 O277 2.032 . S
Zn276 O280 2.086 . S
Zn276 O285 1.977 . S
O277 Zn276 2.032 . S
O277 C281 1.278 . S
C278 O279 1.203 . S
C278 O285 1.267 . S
O279 C278 1.203 . S
O280 C273 1.185 . S
O280 Zn276 2.086 . S
C281 O277 1.278 . S
C281 O282 1.211 . S
O282 C281 1.211 . S
C283 O275 1.284 . S
C283 O284 1.273 . S
O284 C283 1.273 . S
O285 Zn276 1.977 . S
O285 C278 1.267 . S
C286 O287 1.160 . S
C286 O293 1.185 . S
O287 C286 1.160 . S
O288 Zn289 1.899 . S
O288 C296 1.284 . S
Zn289 O288 1.899 . S
Zn289 O290 2.032 . S
Zn289 O293 2.086 . S
Zn289 O298 1.977 . S
O290 Zn289 2.032 . S
O290 C294 1.278 . S
C291 O292 1.203 . S
C291 O298 1.267 . S
O292 C291 1.203 . S
O293 C286 1.185 . S
O293 Zn289 2.086 . S
C294 O290 1.278 . S
C294 O295 1.211 . S
O295 C294 1.211 . S
C296 O288 1.284 . S
C296 O297 1.273 . S
O297 C296 1.273 . S
O298 Zn289 1.977 . S
O298 C291 1.267 . S
C299 O300 1.160 1_554 S
C299 O306 1.185 . S
O300 C299 1.160 1_556 S
O301 Zn302 1.899 . S
O301 C309 1.284 . S
Zn302 O301 1.899 . S
Zn302 O303 2.032 . S
Zn302 O306 2.086 . S
Zn302 O311 1.977 . S
O303 Zn302 2.032 . S
O303 C307 1.278 . S
C304 O305 1.203 . S
C304 O311 1.267 . S
O305 C304 1.203 . S
O306 C299 1.185 . S
O306 Zn302 2.086 . S
C307 O303 1.278 . S
C307 O308 1.211 . S
O308 C307 1.211 . S
C309 O301 1.284 . S
C309 O310 1.273 . S
O310 C309 1.273 . S
O311 Zn302 1.977 . S
O311 C304 1.267 . S
C200 C5 1.285 . S
C18 C213 1.285 . S
C31 C226 1.286 . S
C44 C161 1.285 . S
C174 C57 1.285 . S
C70 C187 1.286 . S
C278 C83 1.285 . S
C96 C291 1.286 . S
C109 C304 1.285 . S
C239 C122 1.285 . S
C135 C252 1.286 . S
C265 C148 1.285 . S
C10 C309 1.163 . S
C244 C23 1.163 . S
C36 C257 1.163 . S
C270 C49 1.163 . S
C62 C283 1.163 . S
C296 C75 1.163 . S
C88 C179 1.163 . S
C192 C101 1.163 . S
C205 C114 1.163 . S
C218 C127 1.163 . S
C140 C231 1.163 . S
C153 C166 1.163 . S
C91 C0 1.319 1_566 S
C104 C13 1.318 . S
C117 C26 1.319 1_456 S
C130 C39 1.319 1_545 S
C52 C143 1.318 1_554 S
C65 C78 1.319 1_455 S
C156 C247 1.319 1_566 S
C169 C260 1.318 . S
C273 C182 1.319 1_654 S
C286 C195 1.319 1_565 S
C299 C208 1.318 1_554 S
C234 C221 1.319 1_455 S
C8 C255 1.332 . S
C268 C21 1.332 . S
C34 C281 1.332 . S
C294 C47 1.332 . S
C60 C307 1.332 . S
C242 C73 1.332 . S
C86 C229 1.332 . S
C164 C99 1.332 . S
C112 C177 1.332 . S
C125 C190 1.332 . S
C138 C203 1.332 . S
C151 C216 1.332 . S
