# Generated by pormake.
# Topology unj, (4)-cn, num edge types: 1
# Building blocks:
#     Node 0, Type 0, BuildingBlock: CEKHIL_clean_sbu_0, # of connection points: 4
#     Node 1, Type 0, BuildingBlock: CEKHIL_clean_sbu_0, # of connection points: 4
#     Node 2, Type 0, BuildingBlock: CEKHIL_clean_sbu_0, # of connection points: 4
#     Node 3, Type 0, BuildingBlock: CEKHIL_clean_sbu_0, # of connection points: 4
#     Node 4, Type 0, BuildingBlock: CEKHIL_clean_sbu_0, # of connection points: 4
#     Node 5, Type 0, BuildingBlock: CEKHIL_clean_sbu_0, # of connection points: 4
#     Edge 6, Type (0, 0), BuildingBlock: TEMPAE_clean_linker_10, # of connection points: 2
#     Edge 7, Type (0, 0), BuildingBlock: TEMPAE_clean_linker_10, # of connection points: 2
#     Edge 8, Type (0, 0), BuildingBlock: TEMPAE_clean_linker_10, # of connection points: 2
#     Edge 9, Type (0, 0), BuildingBlock: TEMPAE_clean_linker_10, # of connection points: 2
#     Edge 10, Type (0, 0), BuildingBlock: TEMPAE_clean_linker_10, # of connection points: 2
#     Edge 11, Type (0, 0), BuildingBlock: TEMPAE_clean_linker_10, # of connection points: 2
#     Edge 12, Type (0, 0), BuildingBlock: TEMPAE_clean_linker_10, # of connection points: 2
#     Edge 13, Type (0, 0), BuildingBlock: TEMPAE_clean_linker_10, # of connection points: 2
#     Edge 14, Type (0, 0), BuildingBlock: TEMPAE_clean_linker_10, # of connection points: 2
#     Edge 15, Type (0, 0), BuildingBlock: TEMPAE_clean_linker_10, # of connection points: 2
#     Edge 16, Type (0, 0), BuildingBlock: TEMPAE_clean_linker_10, # of connection points: 2
#     Edge 17, Type (0, 0), BuildingBlock: TEMPAE_clean_linker_10, # of connection points: 2
# Relax obj value: 0.029
# Max RMSD: 0.081
# Mean RMSD: 0.081
data_MOF--net-unj--node1-CEKHIL_clean_sbu_0--edge1-TEMPAE_clean_linker_10
_symmetry_space_group_name_H-M    P1
_symmetry_Int_Tables_number       1
_symmetry_cell_setting            triclinic
loop_
_symmetry_equiv_pos_as_xyz
'x, y, z'
_cell_length_a     32.735858
_cell_length_b     32.72042
_cell_length_c     36.854012
_cell_angle_alpha  90.019449
_cell_angle_beta   89.991174
_cell_angle_gamma 119.99177
loop_
_atom_site_label
_atom_site_type_symbol
_atom_site_fract_x
_atom_site_fract_y
_atom_site_fract_z
_atom_type_partial_charge
Co0 Co 0.50669 0.26716 0.58059 0.0
O1 O 0.51626 0.32301 0.6061 0.0
O2 O 0.45072 0.25374 0.60783 0.0
C3 C 0.53644 0.305 0.52746 0.0
O4 O 0.48144 0.20185 0.55726 0.0
Co5 Co 0.5876 0.25728 0.54525 0.0
O6 O 0.53651 0.19964 0.52232 0.0
C7 C 0.57675 0.2549 0.62533 0.0
C8 C 0.47291 0.29799 0.61712 0.0
C9 C 0.49442 0.18085 0.53421 0.0
O10 O 0.53515 0.24992 0.62262 0.0
O11 O 0.60389 0.26255 0.59805 0.0
O12 O 0.49295 0.29113 0.53614 0.0
O13 O 0.5606 0.29748 0.55135 0.0
Co14 Co 0.25616 0.50391 0.74947 0.0
O15 O 0.20973 0.51322 0.77494 0.0
O16 O 0.2131 0.44743 0.77595 0.0
C17 C 0.24869 0.5355 0.69694 0.0
O18 O 0.29622 0.47869 0.72622 0.0
Co19 Co 0.34712 0.58402 0.71419 0.0
O20 O 0.35192 0.53271 0.68971 0.0
C21 C 0.3388 0.57245 0.79455 0.0
C22 C 0.19119 0.46967 0.78551 0.0
C23 C 0.32908 0.49096 0.70231 0.0
O24 O 0.30125 0.53149 0.79188 0.0
O25 O 0.35894 0.59919 0.76716 0.0
O26 O 0.21936 0.49151 0.70457 0.0
O27 O 0.28029 0.55858 0.72115 0.0
Co28 Co 0.76648 0.24998 0.91315 0.0
O29 O 0.70878 0.20213 0.93518 0.0
O30 O 0.77772 0.20543 0.93999 0.0
C31 C 0.7315 0.24566 0.85916 0.0
O32 O 0.83319 0.29148 0.89281 0.0
Co33 Co 0.77869 0.34306 0.8807 0.0
O34 O 0.83567 0.34846 0.85728 0.0
C35 C 0.77807 0.3302 0.9606 0.0
C36 C 0.73274 0.18303 0.94689 0.0
C37 C 0.85437 0.32533 0.86972 0.0
O38 O 0.78114 0.29258 0.9569 0.0
O39 O 0.7728 0.35214 0.93384 0.0
O40 O 0.74558 0.21586 0.8668 0.0
O41 O 0.73798 0.27564 0.88426 0.0
Co42 Co 0.53402 0.76204 0.08254 0.0
O43 O 0.52532 0.70552 0.10631 0.0
O44 O 0.5913 0.77452 0.10727 0.0
C45 C 0.50102 0.72561 0.02947 0.0
O46 O 0.55851 0.82772 0.06045 0.0
Co47 Co 0.451 0.77296 0.05322 0.0
O48 O 0.50001 0.83586 0.03591 0.0
C49 C 0.46634 0.77154 0.13206 0.0
C50 C 0.5692 0.73014 0.11616 0.0
C51 C 0.54336 0.85186 0.04333 0.0
O52 O 0.50841 0.77866 0.12682 0.0
O53 O 0.43688 0.76302 0.10633 0.0
O54 O 0.54493 0.73916 0.03639 0.0
O55 O 0.47839 0.73255 0.05507 0.0
Co56 Co 0.78396 0.52327 0.24901 0.0
O57 O 0.82945 0.51383 0.27585 0.0
O58 O 0.82724 0.58025 0.27482 0.0
C59 C 0.79165 0.49014 0.19737 0.0
O60 O 0.74517 0.54879 0.22421 0.0
Co61 Co 0.69317 0.44345 0.21311 0.0
O62 O 0.6902 0.49487 0.1872 0.0
C63 C 0.69784 0.45871 0.29327 0.0
C64 C 0.84857 0.55784 0.28537 0.0
C65 C 0.71307 0.53668 0.19968 0.0
O66 O 0.7378 0.49759 0.291 0.0
O67 O 0.67757 0.43186 0.26597 0.0
O68 O 0.82144 0.53409 0.20472 0.0
O69 O 0.75955 0.46786 0.22142 0.0
Co70 Co 0.27128 0.77791 0.41539 0.0
O71 O 0.32597 0.82543 0.44128 0.0
O72 O 0.25635 0.82104 0.44016 0.0
C73 C 0.31204 0.78495 0.36385 0.0
O74 O 0.20679 0.73655 0.39146 0.0
Co75 Co 0.2628 0.68686 0.38218 0.0
O76 O 0.20555 0.67897 0.35755 0.0
C77 C 0.25795 0.69703 0.46214 0.0
C78 C 0.30015 0.84359 0.45051 0.0
C79 C 0.18629 0.70215 0.36874 0.0
O80 O 0.25322 0.73372 0.45847 0.0
O81 O 0.26609 0.67695 0.43549 0.0
O82 O 0.29635 0.81377 0.37016 0.0
O83 O 0.30333 0.75397 0.38864 0.0
C84 C 0.41944 0.103 0.54268 0.0
C85 C 0.46031 0.13177 0.52245 0.0
C86 C 0.38945 0.05527 0.53337 0.0
C87 C 0.40015 0.03599 0.50281 0.0
C88 C 0.44046 0.06533 0.48163 0.0
C89 C 0.4701 0.11258 0.49181 0.0
C90 C 0.34715 0.02509 0.5569 0.0
C91 C 0.45283 0.0466 0.44844 0.0
C92 C 0.35907 0.90529 0.49219 0.0
C93 C 0.32131 0.8906 0.46797 0.0
C94 C 0.38309 0.95179 0.50557 0.0
C95 C 0.37028 0.98492 0.49327 0.0
C96 C 0.3314 0.96985 0.46941 0.0
C97 C 0.30689 0.92265 0.45755 0.0
C98 C 0.4233 0.96588 0.53188 0.0
C99 C 0.31743 1.00418 0.45469 0.0
H100 H 0.41164 0.11733 0.56648 0.0
H101 H 0.50133 0.13449 0.47579 0.0
H102 H 0.31459 1.00827 0.54022 0.0
H103 H 0.351 0.99629 0.56928 0.0
H104 H 0.34266 0.0457 0.57893 0.0
H105 H 0.48375 0.07463 0.43367 0.0
H106 H 0.46093 0.01875 0.45651 0.0
H107 H 0.42234 0.03023 0.42959 0.0
H108 H 0.37019 0.88051 0.50035 0.0
H109 H 0.27809 0.91154 0.43841 0.0
H110 H 0.4195 0.98496 0.55537 0.0
H111 H 0.45717 0.99025 0.51833 0.0
H112 H 0.42518 0.93492 0.54209 0.0
H113 H 0.31244 0.02382 0.47716 0.0
H114 H 0.28448 0.98634 0.43843 0.0
H115 H 0.34614 0.03052 0.4372 0.0
C116 C 0.47466 0.36434 0.65236 0.0
C117 C 0.44855 0.32034 0.63536 0.0
C118 C 0.45257 0.38872 0.66575 0.0
C119 C 0.40328 0.36926 0.66116 0.0
C120 C 0.37655 0.32418 0.64494 0.0
C121 C 0.39943 0.30003 0.63263 0.0
C122 C 0.48228 0.4361 0.68369 0.0
C123 C 0.32417 0.30253 0.6388 0.0
C124 C 0.34164 0.42264 0.71512 0.0
C125 C 0.34372 0.45664 0.69082 0.0
C126 C 0.36038 0.39353 0.7058 0.0
C127 C 0.38053 0.39765 0.67099 0.0
C128 C 0.38076 0.43052 0.64584 0.0
C129 C 0.36301 0.46 0.65622 0.0
C130 C 0.3603 0.35972 0.73368 0.0
C131 C 0.40066 0.43525 0.60811 0.0
H132 H 0.51261 0.38016 0.65466 0.0
H133 H 0.37907 0.26623 0.6192 0.0
H134 H 0.48333 0.46427 0.66629 0.0
H135 H 0.46648 0.43727 0.71004 0.0
H136 H 0.51906 0.4441 0.6885 0.0
H137 H 0.3079 0.26592 0.62816 0.0
H138 H 0.30618 0.30209 0.66442 0.0
H139 H 0.31772 0.3243 0.61906 0.0
H140 H 0.3272 0.42017 0.74203 0.0
H141 H 0.36442 0.48598 0.63723 0.0
H142 H 0.39718 0.37007 0.74079 0.0
H143 H 0.34354 0.32347 0.72242 0.0
H144 H 0.34141 0.35914 0.75889 0.0
H145 H 0.43912 0.44857 0.60971 0.0
H146 H 0.39485 0.45976 0.5909 0.0
H147 H 0.38424 0.40025 0.59463 0.0
C148 C 0.91986 0.36051 0.82435 0.0
C149 C 0.90351 0.34041 0.85867 0.0
C150 C 0.96716 0.37842 0.81422 0.0
C151 C 0.99942 0.37746 0.83936 0.0
C152 C 0.98299 0.35657 0.8739 0.0
C153 C 0.93507 0.33772 0.88297 0.0
C154 C 0.98276 0.39918 0.77676 0.0
C155 C 1.01635 0.35573 0.90175 0.0
C156 C 0.11553 0.39618 0.80059 0.0
C157 C 0.14455 0.44525 0.80375 0.0
C158 C 0.06857 0.37334 0.81296 0.0
C159 C 0.05054 0.40004 0.82971 0.0
C160 C 0.08059 0.44922 0.83477 0.0
C161 C 0.12699 0.47131 0.8213 0.0
C162 C 0.03756 0.32108 0.8063 0.0
C163 C 0.06323 0.47888 0.85326 0.0
H164 H 0.89555 0.36237 0.80536 0.0
H165 H 0.92274 0.32262 0.90966 0.0
H166 H 1.00816 0.43755 0.77889 0.0
H167 H 1.00117 0.38279 0.76298 0.0
H168 H 0.95271 0.39407 0.75955 0.0
H169 H 0.99778 0.33653 0.92679 0.0
H170 H 0.03562 0.33884 0.89029 0.0
H171 H 0.04308 0.39242 0.90919 0.0
H172 H 0.12873 0.37588 0.78674 0.0
H173 H 0.14931 0.50921 0.82395 0.0
H174 H 1.00945 0.31517 0.78663 0.0
H175 H 0.0199 0.30271 0.83177 0.0
H176 H 0.05769 0.30477 0.79533 0.0
H177 H 0.03639 0.48061 0.83598 0.0
H178 H 0.09221 0.51544 0.85851 0.0
H179 H 0.04602 0.46257 0.87942 0.0
C180 C 0.61354 0.9116 0.0085 0.0
C181 C 0.57698 0.9011 0.03307 0.0
C182 C 0.64234 0.95799 0.9957 0.0
C183 C 0.63525 0.99478 0.00878 0.0
C184 C 0.59985 0.98442 0.03514 0.0
C185 C 0.57057 0.93757 0.0464 0.0
C186 C 0.67857 0.96711 0.96679 0.0
C187 C 0.59193 0.02262 0.05067 0.0
C188 C 0.72956 0.12312 0.99124 0.0
C189 C 0.70862 0.13543 0.96338 0.0
C190 C 0.70605 0.07755 0.0066 0.0
C191 C 0.66158 0.04311 0.99265 0.0
C192 C 0.64113 0.05526 0.96375 0.0
C193 C 0.66443 0.10144 0.95002 0.0
C194 C 0.72825 0.06657 0.03822 0.0
C195 C 0.59464 0.01938 0.94714 0.0
H196 H 0.61814 0.88317 0.99805 0.0
H197 H 0.54235 0.92931 0.06558 0.0
H198 H 0.6685 0.97783 0.94127 0.0
H199 H 0.7136 0.99657 0.97494 0.0
H200 H 0.68181 0.93549 0.96118 0.0
H201 H 0.56716 1.00984 0.07402 0.0
H202 H 0.6259 0.05308 0.05967 0.0
H203 H 0.5772 0.0356 0.02944 0.0
H204 H 0.76375 0.14943 0.00157 0.0
H205 H 0.64852 0.1107 0.92806 0.0
H206 H 0.73337 0.0364 0.0315 0.0
H207 H 0.70432 0.05597 0.06203 0.0
H208 H 0.76285 0.0972 0.04598 0.0
H209 H 0.59602 0.98748 0.93885 0.0
H210 H 0.58533 0.03348 0.92306 0.0
H211 H 0.56602 1.00813 0.96747 0.0
C212 C 0.70198 0.60603 0.21157 0.0
C213 C 0.69889 0.57114 0.18773 0.0
C214 C 0.6834 0.63518 0.20207 0.0
C215 C 0.66227 0.63011 0.16757 0.0
C216 C 0.66105 0.59637 0.1428 0.0
C217 C 0.67878 0.56693 0.15335 0.0
C218 C 0.68459 0.67 0.22954 0.0
C219 C 0.64 0.59058 0.1054 0.0
C220 C 0.5681 0.66374 0.15069 0.0
C221 C 0.59386 0.70741 0.13319 0.0
C222 C 0.59037 0.63929 0.16349 0.0
C223 C 0.63941 0.65833 0.15779 0.0
C224 C 0.66578 0.70298 0.14087 0.0
C225 C 0.64278 0.72724 0.12918 0.0
C226 C 0.56109 0.59237 0.18219 0.0
C227 C 0.71786 0.7241 0.13355 0.0
H228 H 0.71706 0.60918 0.23832 0.0
H229 H 0.67655 0.54024 0.13471 0.0
H230 H 0.70112 0.70588 0.2176 0.0
H231 H 0.64801 0.66007 0.23727 0.0
H232 H 0.70428 0.67131 0.25447 0.0
H233 H 0.64521 0.56551 0.08838 0.0
H234 H 0.60161 0.57739 0.10765 0.0
H235 H 0.65605 0.62517 0.09134 0.0
H236 H 0.53032 0.64833 0.15397 0.0
H237 H 0.66282 0.76078 0.11535 0.0
H238 H 0.5776 0.59188 0.20836 0.0
H239 H 0.55957 0.56374 0.16508 0.0
H240 H 0.52446 0.58452 0.18749 0.0
H241 H 0.73681 0.72553 0.15889 0.0
H242 H 0.73385 0.76024 0.12204 0.0
H243 H 0.7234 0.70139 0.11413 0.0
C244 C 0.10668 0.69409 0.37918 0.0
C245 C 0.13712 0.6864 0.35704 0.0
C246 C 0.05883 0.67532 0.36999 0.0
C247 C 0.04118 0.64914 0.33747 0.0
C248 C 0.0722 0.64276 0.31441 0.0
C249 C 0.11953 0.66095 0.32466 0.0
C250 C 0.02683 0.6822 0.39565 0.0
C251 C 0.05525 0.61611 0.27907 0.0
C252 C 0.91151 0.55767 0.32394 0.0
C253 C 0.89561 0.58265 0.30294 0.0
C254 C 0.95813 0.57965 0.337 0.0
C255 C 0.99012 0.6273 0.32777 0.0
C256 C 0.97385 0.65294 0.30723 0.0
C257 C 0.92662 0.63051 0.29555 0.0
C258 C 0.97355 0.55139 0.35974 0.0
C259 C 1.00693 0.70332 0.29592 0.0
H260 H 0.11985 0.71334 0.4044 0.0
H261 H 0.14285 0.65509 0.30728 0.0
H262 H 1.00915 0.69889 0.38129 0.0
H263 H 0.99874 0.64738 0.40564 0.0
H264 H 0.04618 0.70444 0.41937 0.0
H265 H 0.08441 0.61682 0.26313 0.0
H266 H 0.02847 0.57878 0.28453 0.0
H267 H 0.03805 0.63139 0.26228 0.0
H268 H 0.88763 0.5207 0.32977 0.0
H269 H 0.91468 0.64982 0.27891 0.0
H270 H 0.99169 0.57123 0.38465 0.0
H271 H 0.99912 0.54535 0.34426 0.0
H272 H 0.94339 0.51659 0.36774 0.0
H273 H 0.02543 0.72532 0.31989 0.0
H274 H 0.98828 0.71922 0.28173 0.0
H275 H 0.0343 0.70451 0.27746 0.0
C276 C 0.5458 0.36066 0.47747 0.0
C277 C 0.55843 0.32966 0.49332 0.0
C278 C 0.56972 0.38724 0.44666 0.0
C279 C 0.60592 0.38136 0.43083 0.0
C280 C 0.61836 0.34968 0.44669 0.0
C281 C 0.59493 0.32478 0.47804 0.0
C282 C 0.55627 0.4215 0.431 0.0
C283 C 0.65564 0.34117 0.43004 0.0
C284 C 0.62927 0.40063 0.3301 0.0
C285 C 0.67344 0.44228 0.32882 0.0
C286 C 0.60648 0.38145 0.36302 0.0
C287 C 0.62783 0.40464 0.39581 0.0
C288 C 0.67139 0.44774 0.3949 0.0
C289 C 0.69387 0.46601 0.36136 0.0
C290 C 0.56037 0.33516 0.3627 0.0
C291 C 0.6948 0.47378 0.42939 0.0
H292 H 0.51814 0.36506 0.48974 0.0
H293 H 0.60475 0.30084 0.49034 0.0
H294 H 0.58808 0.45688 0.42803 0.0
H295 H 0.54103 0.40976 0.40352 0.0
H296 H 0.53014 0.42477 0.44816 0.0
H297 H 0.66184 0.31612 0.44621 0.0
H298 H 0.64476 0.32666 0.40225 0.0
H299 H 0.68942 0.37491 0.42759 0.0
H300 H 0.61263 0.38198 0.30527 0.0
H301 H 0.72777 0.49826 0.36074 0.0
H302 H 0.53278 0.3388 0.37736 0.0
H303 H 0.56481 0.30779 0.37699 0.0
H304 H 0.54759 0.3225 0.33475 0.0
H305 H 0.66928 0.47816 0.44641 0.0
H306 H 0.72581 0.50911 0.42393 0.0
H307 H 0.7067 0.45294 0.44539 0.0
C308 C 0.22784 0.67965 0.52652 0.0
C309 C 0.25487 0.67623 0.49844 0.0
C310 C 0.22295 0.6566 0.5599 0.0
C311 C 0.2462 0.63032 0.56527 0.0
C312 C 0.27424 0.62771 0.53721 0.0
C313 C 0.27805 0.65047 0.50424 0.0
C314 C 0.19264 0.65996 0.58926 0.0
C315 C 0.3005 0.60098 0.54199 0.0
C316 C 0.27882 0.60737 0.65852 0.0
C317 C 0.24622 0.55926 0.66353 0.0
C318 C 0.27774 0.63142 0.62743 0.0
C319 C 0.24323 0.60682 0.60052 0.0
C320 C 0.20942 0.55851 0.60575 0.0
C321 C 0.21133 0.53522 0.63726 0.0
C322 C 0.31468 0.68278 0.62284 0.0
C323 C 0.17213 0.53116 0.57757 0.0
H324 H 0.20969 0.69929 0.5221 0.0
H325 H 0.29954 0.64814 0.48285 0.0
H326 H 0.16394 0.6241 0.59663 0.0
H327 H 0.21398 0.67583 0.61407 0.0
H328 H 0.1767 0.68149 0.58079 0.0
H329 H 0.32065 0.60223 0.51735 0.0
H330 H 0.3255 0.61596 0.56505 0.0
H331 H 0.27534 0.5635 0.54853 0.0
H332 H 0.30571 0.62639 0.67883 0.0
H333 H 0.18581 0.49819 0.64115 0.0
H334 H 0.29778 0.70398 0.61623 0.0
H335 H 0.33824 0.6866 0.59986 0.0
H336 H 0.33662 0.69774 0.64757 0.0
H337 H 0.15333 0.55031 0.57023 0.0
H338 H 0.14593 0.4952 0.58709 0.0
H339 H 0.18904 0.52782 0.55251 0.0
C340 C 0.69089 0.27682 0.82053 0.0
C341 C 0.70667 0.24439 0.82526 0.0
C342 C 0.66604 0.2761 0.78939 0.0
C343 C 0.65677 0.2422 0.76208 0.0
C344 C 0.67199 0.20887 0.76682 0.0
C345 C 0.69683 0.21035 0.79843 0.0
C346 C 0.65076 0.31247 0.78534 0.0
C347 C 0.66282 0.17228 0.73818 0.0
C348 C 0.5663 0.2249 0.68956 0.0
C349 C 0.59574 0.25243 0.66121 0.0
C350 C 0.58556 0.22046 0.72252 0.0
C351 C 0.63522 0.24476 0.72723 0.0
C352 C 0.66486 0.27334 0.69892 0.0
C353 C 0.64481 0.2766 0.66632 0.0
C354 C 0.55294 0.18951 0.75213 0.0
C355 C 0.7179 0.30072 0.70306 0.0
H356 H 0.69803 0.30308 0.84125 0.0
H357 H 0.70859 0.18498 0.80208 0.0
H358 H 0.66955 0.33604 0.76212 0.0
H359 H 0.61246 0.29496 0.77939 0.0
H360 H 0.65809 0.33449 0.81007 0.0
H361 H 0.67397 0.14688 0.74702 0.0
H362 H 0.62473 0.15243 0.73129 0.0
H363 H 0.68222 0.18993 0.713 0.0
H364 H 0.5284 0.20596 0.68565 0.0
H365 H 0.66782 0.29843 0.64468 0.0
H366 H 0.55834 0.21064 0.77706 0.0
H367 H 0.56123 0.16145 0.75908 0.0
H368 H 0.51523 0.17265 0.74413 0.0
H369 H 0.72783 0.32553 0.72625 0.0
H370 H 0.73595 0.32125 0.67834 0.0
H371 H 0.73124 0.27625 0.70906 0.0
C372 C 0.39207 0.63993 0.8342 0.0
C373 C 0.36039 0.5913 0.83054 0.0
C374 C 0.41426 0.65949 0.86724 0.0
C375 C 0.405 0.6298 0.89762 0.0
C376 C 0.37297 0.58068 0.89439 0.0
C377 C 0.35073 0.56196 0.86086 0.0
C378 C 0.44752 0.71215 0.86961 0.0
C379 C 0.36248 0.54798 0.92627 0.0
C380 C 0.49788 0.6836 0.97174 0.0
C381 C 0.47687 0.7009 0.99572 0.0
C382 C 0.47398 0.65844 0.94043 0.0
C383 C 0.42834 0.65103 0.93278 0.0
C384 C 0.40688 0.66812 0.95711 0.0
C385 C 0.43131 0.69262 0.98834 0.0
C386 C 0.49785 0.64048 0.91521 0.0
C387 C 0.35864 0.66171 0.94966 0.0
H388 H 0.39945 0.66315 0.81114 0.0
H389 H 0.32643 0.52441 0.85825 0.0
H390 H 0.43497 0.72768 0.89055 0.0
H391 H 0.48311 0.71948 0.87795 0.0
H392 H 0.45075 0.73034 0.84342 0.0
H393 H 0.33716 0.51064 0.91926 0.0
H394 H 0.39562 0.55043 0.93625 0.0
H395 H 0.34764 0.55878 0.94895 0.0
H396 H 0.53285 0.68942 0.97756 0.0
H397 H 0.41477 0.70574 0.00684 0.0
H398 H 0.5052 0.65916 0.88882 0.0
H399 H 0.47424 0.60234 0.90972 0.0
H400 H 0.53162 0.64572 0.92648 0.0
H401 H 0.35985 0.68118 0.92466 0.0
H402 H 0.34575 0.67465 0.97234 0.0
H403 H 0.33276 0.62392 0.94489 0.0
C404 C 0.80659 0.34522 0.02527 0.0
C405 C 0.78065 0.35023 0.99711 0.0
C406 C 0.8117 0.3678 0.05888 0.0
C407 C 0.78967 0.39519 0.06444 0.0
C408 C 0.76254 0.39928 0.03633 0.0
C409 C 0.75863 0.37704 0.00305 0.0
C410 C 0.84111 0.36292 0.08824 0.0
C411 C 0.73755 0.4272 0.04137 0.0
C412 C 0.75912 0.41851 0.1584 0.0
C413 C 0.79302 0.46616 0.16374 0.0
C414 C 0.75884 0.3945 0.12685 0.0
C415 C 0.79337 0.41864 0.09986 0.0
C416 C 0.82849 0.46643 0.10542 0.0
C417 C 0.82787 0.48971 0.13735 0.0
C418 C 0.72057 0.34371 0.1219 0.0
C419 C 0.86593 0.49325 0.07722 0.0
H420 H 0.82391 0.3248 0.02071 0.0
H421 H 0.73806 0.38063 0.98152 0.0
H422 H 0.87062 0.39828 0.09578 0.0
H423 H 0.81948 0.34741 0.11297 0.0
H424 H 0.85592 0.34042 0.07966 0.0
H425 H 0.71762 0.42666 0.01681 0.0
H426 H 0.71257 0.4127 0.06447 0.0
H427 H 0.76351 0.46444 0.04798 0.0
H428 H 0.73223 0.39987 0.17879 0.0
H429 H 0.85436 0.52639 0.14147 0.0
H430 H 0.73626 0.32146 0.1151 0.0
H431 H 0.69746 0.34105 0.09893 0.0
H432 H 0.69837 0.32906 0.14654 0.0
H433 H 0.88375 0.47322 0.06958 0.0
H434 H 0.89293 0.52883 0.08688 0.0
H435 H 0.84933 0.49742 0.05231 0.0
C436 C 0.36293 0.76115 0.33054 0.0
C437 C 0.33963 0.78735 0.33131 0.0
C438 C 0.38869 0.7615 0.30008 0.0
C439 C 0.39087 0.78833 0.26933 0.0
C440 C 0.36852 0.81594 0.27022 0.0
C441 C 0.34328 0.81531 0.30135 0.0
C442 C 0.41207 0.7317 0.30035 0.0
C443 C 0.36987 0.84477 0.23782 0.0
C444 C 0.47897 0.80776 0.19411 0.0
C445 C 0.44977 0.7734 0.16897 0.0
C446 C 0.46043 0.81326 0.22709 0.0
C447 C 0.41193 0.78319 0.23504 0.0
C448 C 0.38298 0.74727 0.21025 0.0
C449 C 0.40217 0.74306 0.17751 0.0
C450 C 0.49228 0.852 0.25288 0.0
C451 C 0.33138 0.71372 0.21797 0.0
H452 H 0.36082 0.7399 0.35381 0.0
H453 H 0.32558 0.83581 0.30191 0.0
H454 H 0.39419 0.70237 0.28061 0.0
H455 H 0.44947 0.75301 0.29183 0.0
H456 H 0.41078 0.71642 0.32752 0.0
H457 H 0.3542 0.86731 0.24384 0.0
H458 H 0.40677 0.8676 0.22857 0.0
H459 H 0.35007 0.82088 0.21501 0.0
H460 H 0.51564 0.83153 0.18735 0.0
H461 H 0.37961 0.71621 0.15817 0.0
H462 H 0.49097 0.8372 0.28021 0.0
H463 H 0.47978 0.87772 0.25578 0.0
H464 H 0.52949 0.8711 0.24345 0.0
H465 H 0.32744 0.69489 0.24391 0.0
H466 H 0.31402 0.68711 0.19613 0.0
H467 H 0.3125 0.73378 0.22099 0.0
loop_
_geom_bond_atom_site_label_1
_geom_bond_atom_site_label_2
_geom_bond_distance
_geom_bond_site_symmetry_2
_ccdc_geom_bond_type
Co0 O1 2.216 . S
Co0 O2 2.091 . S
Co0 O4 2.004 . S
Co0 O10 2.021 . S
Co0 O12 2.137 . S
Co0 O13 2.244 . S
O1 Co0 2.216 . S
O1 C8 1.247 . S
O2 Co0 2.091 . S
O2 C8 1.261 . S
C3 O12 1.247 . S
C3 O13 1.272 . S
O4 Co0 2.004 . S
O4 C9 1.259 . S
Co5 O6 2.061 . S
Co5 O11 2.052 . S
Co5 O13 2.135 . S
O6 Co5 2.061 . S
O6 C9 1.235 . S
C7 O10 1.238 . S
C7 O11 1.241 . S
C8 O1 1.247 . S
C8 O2 1.261 . S
C9 O4 1.259 . S
C9 O6 1.235 . S
O10 Co0 2.021 . S
O10 C7 1.238 . S
O11 Co5 2.052 . S
O11 C7 1.241 . S
O12 Co0 2.137 . S
O12 C3 1.247 . S
O13 Co0 2.244 . S
O13 C3 1.272 . S
O13 Co5 2.135 . S
Co14 O15 2.216 . S
Co14 O16 2.091 . S
Co14 O18 2.004 . S
Co14 O24 2.021 . S
Co14 O26 2.137 . S
Co14 O27 2.244 . S
O15 Co14 2.216 . S
O15 C22 1.247 . S
O16 Co14 2.091 . S
O16 C22 1.261 . S
C17 O26 1.247 . S
C17 O27 1.272 . S
O18 Co14 2.004 . S
O18 C23 1.259 . S
Co19 O20 2.061 . S
Co19 O25 2.052 . S
Co19 O27 2.135 . S
O20 Co19 2.061 . S
O20 C23 1.235 . S
C21 O24 1.238 . S
C21 O25 1.241 . S
C22 O15 1.247 . S
C22 O16 1.261 . S
C23 O18 1.259 . S
C23 O20 1.235 . S
O24 Co14 2.021 . S
O24 C21 1.238 . S
O25 Co19 2.052 . S
O25 C21 1.241 . S
O26 Co14 2.137 . S
O26 C17 1.247 . S
O27 Co14 2.244 . S
O27 C17 1.272 . S
O27 Co19 2.135 . S
Co28 O29 2.216 . S
Co28 O30 2.091 . S
Co28 O32 2.004 . S
Co28 O38 2.021 . S
Co28 O40 2.137 . S
Co28 O41 2.244 . S
O29 Co28 2.216 . S
O29 C36 1.247 . S
O30 Co28 2.091 . S
O30 C36 1.261 . S
C31 O40 1.247 . S
C31 O41 1.272 . S
O32 Co28 2.004 . S
O32 C37 1.259 . S
Co33 O34 2.061 . S
Co33 O39 2.052 . S
Co33 O41 2.135 . S
O34 Co33 2.061 . S
O34 C37 1.235 . S
C35 O38 1.238 . S
C35 O39 1.241 . S
C36 O29 1.247 . S
C36 O30 1.261 . S
C37 O32 1.259 . S
C37 O34 1.235 . S
O38 Co28 2.021 . S
O38 C35 1.238 . S
O39 Co33 2.052 . S
O39 C35 1.241 . S
O40 Co28 2.137 . S
O40 C31 1.247 . S
O41 Co28 2.244 . S
O41 C31 1.272 . S
O41 Co33 2.135 . S
Co42 O43 2.216 . S
Co42 O44 2.091 . S
Co42 O46 2.004 . S
Co42 O52 2.021 . S
Co42 O54 2.137 . S
Co42 O55 2.244 . S
O43 Co42 2.216 . S
O43 C50 1.247 . S
O44 Co42 2.091 . S
O44 C50 1.261 . S
C45 O54 1.247 . S
C45 O55 1.272 . S
O46 Co42 2.004 . S
O46 C51 1.259 . S
Co47 O48 2.061 . S
Co47 O53 2.052 . S
Co47 O55 2.135 . S
O48 Co47 2.061 . S
O48 C51 1.235 . S
C49 O52 1.238 . S
C49 O53 1.241 . S
C50 O43 1.247 . S
C50 O44 1.261 . S
C51 O46 1.259 . S
C51 O48 1.235 . S
O52 Co42 2.021 . S
O52 C49 1.238 . S
O53 Co47 2.052 . S
O53 C49 1.241 . S
O54 Co42 2.137 . S
O54 C45 1.247 . S
O55 Co42 2.244 . S
O55 C45 1.272 . S
O55 Co47 2.135 . S
Co56 O57 2.216 . S
Co56 O58 2.091 . S
Co56 O60 2.004 . S
Co56 O66 2.021 . S
Co56 O68 2.137 . S
Co56 O69 2.244 . S
O57 Co56 2.216 . S
O57 C64 1.247 . S
O58 Co56 2.091 . S
O58 C64 1.261 . S
C59 O68 1.247 . S
C59 O69 1.272 . S
O60 Co56 2.004 . S
O60 C65 1.259 . S
Co61 O62 2.061 . S
Co61 O67 2.052 . S
Co61 O69 2.135 . S
O62 Co61 2.061 . S
O62 C65 1.235 . S
C63 O66 1.238 . S
C63 O67 1.241 . S
C64 O57 1.247 . S
C64 O58 1.261 . S
C65 O60 1.259 . S
C65 O62 1.235 . S
O66 Co56 2.021 . S
O66 C63 1.238 . S
O67 Co61 2.052 . S
O67 C63 1.241 . S
O68 Co56 2.137 . S
O68 C59 1.247 . S
O69 Co56 2.244 . S
O69 C59 1.272 . S
O69 Co61 2.135 . S
Co70 O71 2.216 . S
Co70 O72 2.091 . S
Co70 O74 2.004 . S
Co70 O80 2.021 . S
Co70 O82 2.137 . S
Co70 O83 2.244 . S
O71 Co70 2.216 . S
O71 C78 1.247 . S
O72 Co70 2.091 . S
O72 C78 1.261 . S
C73 O82 1.247 . S
C73 O83 1.272 . S
O74 Co70 2.004 . S
O74 C79 1.259 . S
Co75 O76 2.061 . S
Co75 O81 2.052 . S
Co75 O83 2.135 . S
O76 Co75 2.061 . S
O76 C79 1.235 . S
C77 O80 1.238 . S
C77 O81 1.241 . S
C78 O71 1.247 . S
C78 O72 1.261 . S
C79 O74 1.259 . S
C79 O76 1.235 . S
O80 Co70 2.021 . S
O80 C77 1.238 . S
O81 Co75 2.052 . S
O81 C77 1.241 . S
O82 Co70 2.137 . S
O82 C73 1.247 . S
O83 Co70 2.244 . S
O83 C73 1.272 . S
O83 Co75 2.135 . S
C84 C85 1.391 . S
C84 C86 1.394 . S
C84 H100 0.931 . S
C85 C84 1.391 . S
C85 C89 1.376 . S
C86 C84 1.394 . S
C86 C87 1.369 . S
C86 C90 1.531 . S
C87 C86 1.369 . S
C87 C88 1.410 . S
C87 C95 1.503 1_545 S
C88 C87 1.410 . S
C88 C89 1.392 . S
C88 C91 1.511 . S
C89 C85 1.376 . S
C89 C88 1.392 . S
C89 H101 0.929 . S
C90 C86 1.531 . S
C90 H102 0.960 . S
C90 H103 0.962 . S
C90 H104 0.960 . S
C91 C88 1.511 . S
C91 H105 0.961 . S
C91 H106 0.962 . S
C91 H107 0.961 . S
C92 C93 1.370 . S
C92 C94 1.363 . S
C92 H108 0.931 . S
C93 C92 1.370 . S
C93 C97 1.408 . S
C94 C92 1.363 . S
C94 C95 1.370 . S
C94 C98 1.524 . S
C95 C87 1.503 1_565 S
C95 C94 1.370 . S
C95 C96 1.403 . S
C96 C95 1.403 . S
C96 C97 1.404 . S
C96 C99 1.539 1_565 S
C97 C93 1.408 . S
C97 C96 1.404 . S
C97 H109 0.930 . S
C98 C94 1.524 . S
C98 H110 0.956 . S
C98 H111 0.961 . S
C98 H112 0.961 . S
C99 C96 1.539 1_545 S
C99 H113 0.958 . S
C99 H114 0.961 . S
C99 H115 0.960 . S
H100 C84 0.931 . S
H101 C89 0.929 . S
H102 C90 0.960 . S
H103 C90 0.962 . S
H104 C90 0.960 . S
H105 C91 0.961 . S
H106 C91 0.962 . S
H107 C91 0.961 . S
H108 C92 0.931 . S
H109 C97 0.930 . S
H110 C98 0.956 . S
H111 C98 0.961 . S
H112 C98 0.961 . S
H113 C99 0.958 . S
H114 C99 0.961 . S
H115 C99 0.960 . S
C116 C117 1.391 . S
C116 C118 1.394 . S
C116 H132 0.931 . S
C117 C116 1.391 . S
C117 C121 1.376 . S
C118 C116 1.394 . S
C118 C119 1.369 . S
C118 C122 1.531 . S
C119 C118 1.369 . S
C119 C120 1.410 . S
C119 C127 1.503 . S
C120 C119 1.410 . S
C120 C121 1.392 . S
C120 C123 1.511 . S
C121 C117 1.376 . S
C121 C120 1.392 . S
C121 H133 0.929 . S
C122 C118 1.531 . S
C122 H134 0.960 . S
C122 H135 0.962 . S
C122 H136 0.960 . S
C123 C120 1.511 . S
C123 H137 0.961 . S
C123 H138 0.961 . S
C123 H139 0.961 . S
C124 C125 1.370 . S
C124 C126 1.363 . S
C124 H140 0.931 . S
C125 C124 1.370 . S
C125 C129 1.408 . S
C126 C124 1.363 . S
C126 C127 1.370 . S
C126 C130 1.524 . S
C127 C119 1.503 . S
C127 C126 1.370 . S
C127 C128 1.403 . S
C128 C127 1.403 . S
C128 C129 1.404 . S
C128 C131 1.539 . S
C129 C125 1.408 . S
C129 C128 1.404 . S
C129 H141 0.930 . S
C130 C126 1.524 . S
C130 H142 0.956 . S
C130 H143 0.961 . S
C130 H144 0.961 . S
C131 C128 1.539 . S
C131 H145 0.958 . S
C131 H146 0.961 . S
C131 H147 0.960 . S
H132 C116 0.931 . S
H133 C121 0.929 . S
H134 C122 0.960 . S
H135 C122 0.962 . S
H136 C122 0.960 . S
H137 C123 0.961 . S
H138 C123 0.961 . S
H139 C123 0.961 . S
H140 C124 0.931 . S
H141 C129 0.930 . S
H142 C130 0.956 . S
H143 C130 0.961 . S
H144 C130 0.961 . S
H145 C131 0.958 . S
H146 C131 0.961 . S
H147 C131 0.960 . S
C148 C149 1.391 . S
C148 C150 1.394 . S
C148 H164 0.931 . S
C149 C148 1.391 . S
C149 C153 1.376 . S
C150 C148 1.394 . S
C150 C151 1.369 . S
C150 C154 1.531 . S
C151 C150 1.369 . S
C151 C152 1.410 . S
C151 C159 1.503 1_655 S
C152 C151 1.410 . S
C152 C153 1.392 . S
C152 C155 1.511 1_655 S
C153 C149 1.376 . S
C153 C152 1.392 . S
C153 H165 0.929 . S
C154 C150 1.531 . S
C154 H166 0.960 . S
C154 H167 0.962 . S
C154 H168 0.960 . S
C155 C152 1.511 1_455 S
C155 H169 0.959 . S
C155 H170 0.961 . S
C155 H171 0.961 . S
C156 C157 1.370 . S
C156 C158 1.363 . S
C156 H172 0.931 . S
C157 C156 1.370 . S
C157 C161 1.408 . S
C158 C156 1.363 . S
C158 C159 1.370 . S
C158 C162 1.524 . S
C159 C151 1.503 1_455 S
C159 C158 1.370 . S
C159 C160 1.403 . S
C160 C159 1.403 . S
C160 C161 1.404 . S
C160 C163 1.539 . S
C161 C157 1.408 . S
C161 C160 1.404 . S
C161 H173 0.930 . S
C162 C158 1.524 . S
C162 H174 0.956 1_455 S
C162 H175 0.966 . S
C162 H176 0.961 . S
C163 C160 1.539 . S
C163 H177 0.958 . S
C163 H178 0.961 . S
C163 H179 0.960 . S
H164 C148 0.931 . S
H165 C153 0.929 . S
H166 C154 0.960 . S
H167 C154 0.962 . S
H168 C154 0.960 . S
H169 C155 0.959 . S
H170 C155 0.961 . S
H171 C155 0.961 . S
H172 C156 0.931 . S
H173 C161 0.930 . S
H174 C162 0.956 1_655 S
H175 C162 0.966 . S
H176 C162 0.961 . S
H177 C163 0.958 . S
H178 C163 0.961 . S
H179 C163 0.960 . S
C180 C181 1.391 . S
C180 C182 1.394 1_554 S
C180 H196 0.931 . S
C181 C180 1.391 . S
C181 C185 1.376 . S
C182 C180 1.394 1_556 S
C182 C183 1.369 1_556 S
C182 C186 1.531 . S
C183 C182 1.369 1_554 S
C183 C184 1.410 . S
C183 C191 1.503 1_564 S
C184 C183 1.410 . S
C184 C185 1.392 . S
C184 C187 1.511 . S
C185 C181 1.376 . S
C185 C184 1.392 . S
C185 H197 0.929 . S
C186 C182 1.531 . S
C186 H198 0.960 . S
C186 H199 0.962 . S
C186 H200 0.960 . S
C187 C184 1.511 . S
C187 H201 0.961 . S
C187 H202 0.961 1_565 S
C187 H203 0.961 . S
C188 C189 1.370 . S
C188 C190 1.363 1_556 S
C188 H204 0.931 1_556 S
C189 C188 1.370 . S
C189 C193 1.408 . S
C190 C188 1.363 1_554 S
C190 C191 1.370 1_554 S
C190 C194 1.524 . S
C191 C183 1.503 1_546 S
C191 C190 1.370 1_556 S
C191 C192 1.403 . S
C192 C191 1.403 . S
C192 C193 1.404 . S
C192 C195 1.539 1_545 S
C193 C189 1.408 . S
C193 C192 1.404 . S
C193 H205 0.930 . S
C194 C190 1.524 . S
C194 H206 0.956 . S
C194 H207 0.961 . S
C194 H208 0.961 . S
C195 C192 1.539 1_565 S
C195 H209 0.958 . S
C195 H210 0.978 . S
C195 H211 0.960 . S
H196 C180 0.931 . S
H197 C185 0.929 . S
H198 C186 0.960 . S
H199 C186 0.962 . S
H200 C186 0.960 . S
H201 C187 0.961 . S
H202 C187 0.961 1_545 S
H203 C187 0.961 . S
H204 C188 0.931 1_554 S
H205 C193 0.930 . S
H206 C194 0.956 . S
H207 C194 0.961 . S
H208 C194 0.961 . S
H209 C195 0.958 . S
H210 C195 0.978 . S
H211 C195 0.960 . S
C212 C213 1.391 . S
C212 C214 1.394 . S
C212 H228 0.931 . S
C213 C212 1.391 . S
C213 C217 1.376 . S
C214 C212 1.394 . S
C214 C215 1.369 . S
C214 C218 1.531 . S
C215 C214 1.369 . S
C215 C216 1.410 . S
C215 C223 1.503 . S
C216 C215 1.410 . S
C216 C217 1.392 . S
C216 C219 1.511 . S
C217 C213 1.376 . S
C217 C216 1.392 . S
C217 H229 0.929 . S
C218 C214 1.531 . S
C218 H230 0.960 . S
C218 H231 0.962 . S
C218 H232 0.960 . S
C219 C216 1.511 . S
C219 H233 0.961 . S
C219 H234 0.961 . S
C219 H235 0.961 . S
C220 C221 1.370 . S
C220 C222 1.363 . S
C220 H236 0.931 . S
C221 C220 1.370 . S
C221 C225 1.408 . S
C222 C220 1.363 . S
C222 C223 1.370 . S
C222 C226 1.524 . S
C223 C215 1.503 . S
C223 C222 1.370 . S
C223 C224 1.403 . S
C224 C223 1.403 . S
C224 C225 1.404 . S
C224 C227 1.539 . S
C225 C221 1.408 . S
C225 C224 1.404 . S
C225 H237 0.930 . S
C226 C222 1.524 . S
C226 H238 0.956 . S
C226 H239 0.961 . S
C226 H240 0.961 . S
C227 C224 1.539 . S
C227 H241 0.958 . S
C227 H242 0.961 . S
C227 H243 0.960 . S
H228 C212 0.931 . S
H229 C217 0.929 . S
H230 C218 0.960 . S
H231 C218 0.962 . S
H232 C218 0.960 . S
H233 C219 0.961 . S
H234 C219 0.961 . S
H235 C219 0.961 . S
H236 C220 0.931 . S
H237 C225 0.930 . S
H238 C226 0.956 . S
H239 C226 0.961 . S
H240 C226 0.961 . S
H241 C227 0.958 . S
H242 C227 0.961 . S
H243 C227 0.960 . S
C244 C245 1.391 . S
C244 C246 1.394 . S
C244 H260 0.931 . S
C245 C244 1.391 . S
C245 C249 1.376 . S
C246 C244 1.394 . S
C246 C247 1.369 . S
C246 C250 1.531 . S
C247 C246 1.369 . S
C247 C248 1.410 . S
C247 C255 1.503 1_455 S
C248 C247 1.410 . S
C248 C249 1.392 . S
C248 C251 1.511 . S
C249 C245 1.376 . S
C249 C248 1.392 . S
C249 H261 0.929 . S
C250 C246 1.531 . S
C250 H262 0.960 . S
C250 H263 0.962 . S
C250 H264 0.960 . S
C251 C248 1.511 . S
C251 H265 0.961 . S
C251 H266 0.961 . S
C251 H267 0.961 . S
C252 C253 1.370 . S
C252 C254 1.363 . S
C252 H268 0.931 . S
C253 C252 1.370 . S
C253 C257 1.408 . S
C254 C252 1.363 . S
C254 C255 1.370 . S
C254 C258 1.524 . S
C255 C247 1.503 1_655 S
C255 C254 1.370 . S
C255 C256 1.403 . S
C256 C255 1.403 . S
C256 C257 1.404 . S
C256 C259 1.539 1_655 S
C257 C253 1.408 . S
C257 C256 1.404 . S
C257 H269 0.930 . S
C258 C254 1.524 . S
C258 H270 0.956 . S
C258 H271 0.961 . S
C258 H272 0.961 . S
C259 C256 1.539 1_455 S
C259 H273 0.958 . S
C259 H274 0.961 . S
C259 H275 0.960 . S
H260 C244 0.931 . S
H261 C249 0.929 . S
H262 C250 0.960 . S
H263 C250 0.962 . S
H264 C250 0.960 . S
H265 C251 0.961 . S
H266 C251 0.961 . S
H267 C251 0.961 . S
H268 C252 0.931 . S
H269 C257 0.930 . S
H270 C258 0.956 . S
H271 C258 0.961 . S
H272 C258 0.961 . S
H273 C259 0.958 . S
H274 C259 0.961 . S
H275 C259 0.960 . S
C276 C277 1.391 . S
C276 C278 1.394 . S
C276 H292 0.931 . S
C277 C276 1.391 . S
C277 C281 1.376 . S
C278 C276 1.394 . S
C278 C279 1.369 . S
C278 C282 1.531 . S
C279 C278 1.369 . S
C279 C280 1.410 . S
C279 C287 1.503 . S
C280 C279 1.410 . S
C280 C281 1.392 . S
C280 C283 1.511 . S
C281 C277 1.376 . S
C281 C280 1.392 . S
C281 H293 0.929 . S
C282 C278 1.531 . S
C282 H294 0.960 . S
C282 H295 0.962 . S
C282 H296 0.960 . S
C283 C280 1.511 . S
C283 H297 0.961 . S
C283 H298 0.961 . S
C283 H299 0.961 . S
C284 C285 1.370 . S
C284 C286 1.363 . S
C284 H300 0.931 . S
C285 C284 1.370 . S
C285 C289 1.408 . S
C286 C284 1.363 . S
C286 C287 1.370 . S
C286 C290 1.524 . S
C287 C279 1.503 . S
C287 C286 1.370 . S
C287 C288 1.403 . S
C288 C287 1.403 . S
C288 C289 1.404 . S
C288 C291 1.539 . S
C289 C285 1.408 . S
C289 C288 1.404 . S
C289 H301 0.930 . S
C290 C286 1.524 . S
C290 H302 0.956 . S
C290 H303 0.961 . S
C290 H304 0.961 . S
C291 C288 1.539 . S
C291 H305 0.958 . S
C291 H306 0.961 . S
C291 H307 0.960 . S
H292 C276 0.931 . S
H293 C281 0.929 . S
H294 C282 0.960 . S
H295 C282 0.962 . S
H296 C282 0.960 . S
H297 C283 0.961 . S
H298 C283 0.961 . S
H299 C283 0.961 . S
H300 C284 0.931 . S
H301 C289 0.930 . S
H302 C290 0.956 . S
H303 C290 0.961 . S
H304 C290 0.961 . S
H305 C291 0.958 . S
H306 C291 0.961 . S
H307 C291 0.960 . S
C308 C309 1.391 . S
C308 C310 1.394 . S
C308 H324 0.931 . S
C309 C308 1.391 . S
C309 C313 1.376 . S
C310 C308 1.394 . S
C310 C311 1.369 . S
C310 C314 1.531 . S
C311 C310 1.369 . S
C311 C312 1.410 . S
C311 C319 1.503 . S
C312 C311 1.410 . S
C312 C313 1.392 . S
C312 C315 1.511 . S
C313 C309 1.376 . S
C313 C312 1.392 . S
C313 H325 0.929 . S
C314 C310 1.531 . S
C314 H326 0.960 . S
C314 H327 0.962 . S
C314 H328 0.960 . S
C315 C312 1.511 . S
C315 H329 0.961 . S
C315 H330 0.961 . S
C315 H331 0.961 . S
C316 C317 1.370 . S
C316 C318 1.363 . S
C316 H332 0.931 . S
C317 C316 1.370 . S
C317 C321 1.408 . S
C318 C316 1.363 . S
C318 C319 1.370 . S
C318 C322 1.524 . S
C319 C311 1.503 . S
C319 C318 1.370 . S
C319 C320 1.403 . S
C320 C319 1.403 . S
C320 C321 1.404 . S
C320 C323 1.539 . S
C321 C317 1.408 . S
C321 C320 1.404 . S
C321 H333 0.930 . S
C322 C318 1.524 . S
C322 H334 0.956 . S
C322 H335 0.961 . S
C322 H336 0.961 . S
C323 C320 1.539 . S
C323 H337 0.958 . S
C323 H338 0.961 . S
C323 H339 0.960 . S
H324 C308 0.931 . S
H325 C313 0.929 . S
H326 C314 0.960 . S
H327 C314 0.962 . S
H328 C314 0.960 . S
H329 C315 0.961 . S
H330 C315 0.961 . S
H331 C315 0.961 . S
H332 C316 0.931 . S
H333 C321 0.930 . S
H334 C322 0.956 . S
H335 C322 0.961 . S
H336 C322 0.961 . S
H337 C323 0.958 . S
H338 C323 0.961 . S
H339 C323 0.960 . S
C340 C341 1.391 . S
C340 C342 1.394 . S
C340 H356 0.931 . S
C341 C340 1.391 . S
C341 C345 1.376 . S
C342 C340 1.394 . S
C342 C343 1.369 . S
C342 C346 1.531 . S
C343 C342 1.369 . S
C343 C344 1.410 . S
C343 C351 1.503 . S
C344 C343 1.410 . S
C344 C345 1.392 . S
C344 C347 1.511 . S
C345 C341 1.376 . S
C345 C344 1.392 . S
C345 H357 0.929 . S
C346 C342 1.531 . S
C346 H358 0.960 . S
C346 H359 0.962 . S
C346 H360 0.960 . S
C347 C344 1.511 . S
C347 H361 0.961 . S
C347 H362 0.961 . S
C347 H363 0.961 . S
C348 C349 1.370 . S
C348 C350 1.363 . S
C348 H364 0.931 . S
C349 C348 1.370 . S
C349 C353 1.408 . S
C350 C348 1.363 . S
C350 C351 1.370 . S
C350 C354 1.524 . S
C351 C343 1.503 . S
C351 C350 1.370 . S
C351 C352 1.403 . S
C352 C351 1.403 . S
C352 C353 1.404 . S
C352 C355 1.539 . S
C353 C349 1.408 . S
C353 C352 1.404 . S
C353 H365 0.930 . S
C354 C350 1.524 . S
C354 H366 0.956 . S
C354 H367 0.961 . S
C354 H368 0.961 . S
C355 C352 1.539 . S
C355 H369 0.958 . S
C355 H370 0.961 . S
C355 H371 0.960 . S
H356 C340 0.931 . S
H357 C345 0.929 . S
H358 C346 0.960 . S
H359 C346 0.962 . S
H360 C346 0.960 . S
H361 C347 0.961 . S
H362 C347 0.961 . S
H363 C347 0.961 . S
H364 C348 0.931 . S
H365 C353 0.930 . S
H366 C354 0.956 . S
H367 C354 0.961 . S
H368 C354 0.961 . S
H369 C355 0.958 . S
H370 C355 0.961 . S
H371 C355 0.960 . S
C372 C373 1.391 . S
C372 C374 1.394 . S
C372 H388 0.931 . S
C373 C372 1.391 . S
C373 C377 1.376 . S
C374 C372 1.394 . S
C374 C375 1.369 . S
C374 C378 1.531 . S
C375 C374 1.369 . S
C375 C376 1.410 . S
C375 C383 1.503 . S
C376 C375 1.410 . S
C376 C377 1.392 . S
C376 C379 1.511 . S
C377 C373 1.376 . S
C377 C376 1.392 . S
C377 H389 0.929 . S
C378 C374 1.531 . S
C378 H390 0.960 . S
C378 H391 0.962 . S
C378 H392 0.960 . S
C379 C376 1.511 . S
C379 H393 0.961 . S
C379 H394 0.961 . S
C379 H395 0.961 . S
C380 C381 1.370 . S
C380 C382 1.363 . S
C380 H396 0.931 . S
C381 C380 1.370 . S
C381 C385 1.408 . S
C382 C380 1.363 . S
C382 C383 1.370 . S
C382 C386 1.524 . S
C383 C375 1.503 . S
C383 C382 1.370 . S
C383 C384 1.403 . S
C384 C383 1.403 . S
C384 C385 1.404 . S
C384 C387 1.539 . S
C385 C381 1.408 . S
C385 C384 1.404 . S
C385 H397 0.930 . S
C386 C382 1.524 . S
C386 H398 0.956 . S
C386 H399 0.961 . S
C386 H400 0.961 . S
C387 C384 1.539 . S
C387 H401 0.958 . S
C387 H402 0.961 . S
C387 H403 0.960 . S
H388 C372 0.931 . S
H389 C377 0.929 . S
H390 C378 0.960 . S
H391 C378 0.962 . S
H392 C378 0.960 . S
H393 C379 0.961 . S
H394 C379 0.961 . S
H395 C379 0.961 . S
H396 C380 0.931 . S
H397 C385 0.930 . S
H398 C386 0.956 . S
H399 C386 0.961 . S
H400 C386 0.961 . S
H401 C387 0.958 . S
H402 C387 0.961 . S
H403 C387 0.960 . S
C404 C405 1.391 . S
C404 C406 1.394 . S
C404 H420 0.931 . S
C405 C404 1.391 . S
C405 C409 1.376 . S
C406 C404 1.394 . S
C406 C407 1.369 . S
C406 C410 1.531 . S
C407 C406 1.369 . S
C407 C408 1.410 . S
C407 C415 1.503 . S
C408 C407 1.410 . S
C408 C409 1.392 . S
C408 C411 1.511 . S
C409 C405 1.376 . S
C409 C408 1.392 . S
C409 H421 0.929 . S
C410 C406 1.531 . S
C410 H422 0.960 . S
C410 H423 0.962 . S
C410 H424 0.960 . S
C411 C408 1.511 . S
C411 H425 0.961 . S
C411 H426 0.961 . S
C411 H427 0.961 . S
C412 C413 1.370 . S
C412 C414 1.363 . S
C412 H428 0.931 . S
C413 C412 1.370 . S
C413 C417 1.408 . S
C414 C412 1.363 . S
C414 C415 1.370 . S
C414 C418 1.524 . S
C415 C407 1.503 . S
C415 C414 1.370 . S
C415 C416 1.403 . S
C416 C415 1.403 . S
C416 C417 1.404 . S
C416 C419 1.539 . S
C417 C413 1.408 . S
C417 C416 1.404 . S
C417 H429 0.930 . S
C418 C414 1.524 . S
C418 H430 0.956 . S
C418 H431 0.961 . S
C418 H432 0.961 . S
C419 C416 1.539 . S
C419 H433 0.958 . S
C419 H434 0.961 . S
C419 H435 0.960 . S
H420 C404 0.931 . S
H421 C409 0.929 . S
H422 C410 0.960 . S
H423 C410 0.962 . S
H424 C410 0.960 . S
H425 C411 0.961 . S
H426 C411 0.961 . S
H427 C411 0.961 . S
H428 C412 0.931 . S
H429 C417 0.930 . S
H430 C418 0.956 . S
H431 C418 0.961 . S
H432 C418 0.961 . S
H433 C419 0.958 . S
H434 C419 0.961 . S
H435 C419 0.960 . S
C436 C437 1.391 . S
C436 C438 1.394 . S
C436 H452 0.931 . S
C437 C436 1.391 . S
C437 C441 1.376 . S
C438 C436 1.394 . S
C438 C439 1.369 . S
C438 C442 1.531 . S
C439 C438 1.369 . S
C439 C440 1.410 . S
C439 C447 1.503 . S
C440 C439 1.410 . S
C440 C441 1.392 . S
C440 C443 1.511 . S
C441 C437 1.376 . S
C441 C440 1.392 . S
C441 H453 0.929 . S
C442 C438 1.531 . S
C442 H454 0.960 . S
C442 H455 0.962 . S
C442 H456 0.960 . S
C443 C440 1.511 . S
C443 H457 0.961 . S
C443 H458 0.961 . S
C443 H459 0.961 . S
C444 C445 1.370 . S
C444 C446 1.363 . S
C444 H460 0.931 . S
C445 C444 1.370 . S
C445 C449 1.408 . S
C446 C444 1.363 . S
C446 C447 1.370 . S
C446 C450 1.524 . S
C447 C439 1.503 . S
C447 C446 1.370 . S
C447 C448 1.403 . S
C448 C447 1.403 . S
C448 C449 1.404 . S
C448 C451 1.539 . S
C449 C445 1.408 . S
C449 C448 1.404 . S
C449 H461 0.930 . S
C450 C446 1.524 . S
C450 H462 0.956 . S
C450 H463 0.961 . S
C450 H464 0.961 . S
C451 C448 1.539 . S
C451 H465 0.958 . S
C451 H466 0.961 . S
C451 H467 0.960 . S
H452 C436 0.931 . S
H453 C441 0.929 . S
H454 C442 0.960 . S
H455 C442 0.962 . S
H456 C442 0.960 . S
H457 C443 0.961 . S
H458 C443 0.961 . S
H459 C443 0.961 . S
H460 C444 0.931 . S
H461 C449 0.930 . S
H462 C450 0.956 . S
H463 C450 0.961 . S
H464 C450 0.961 . S
H465 C451 0.958 . S
H466 C451 0.961 . S
H467 C451 0.960 . S
C85 C9 1.595 . S
C93 C78 1.616 . S
C117 C8 1.611 . S
C125 C23 1.605 . S
C149 C37 1.594 . S
C157 C22 1.619 . S
C181 C51 1.592 . S
C189 C36 1.618 . S
C213 C65 1.610 . S
C221 C50 1.614 . S
C245 C79 1.596 . S
C253 C64 1.616 . S
C277 C3 1.454 . S
C285 C63 1.432 . S
C309 C77 1.397 . S
C317 C17 1.455 . S
C341 C31 1.453 . S
C349 C7 1.425 . S
C373 C21 1.420 . S
C381 C45 1.456 1_556 S
C405 C35 1.396 1_554 S
C413 C59 1.455 . S
C437 C73 1.453 . S
C445 C49 1.428 . S
