# Generated by pormake.
# Topology fne, (5)-cn, num edge types: 1
# Building blocks:
#     Node 0, Type 0, BuildingBlock: BEQFEK_clean_sbu_0, # of connection points: 5
#     Node 1, Type 0, BuildingBlock: BEQFEK_clean_sbu_0, # of connection points: 5
#     Node 2, Type 0, BuildingBlock: BEQFEK_clean_sbu_0, # of connection points: 5
#     Node 3, Type 0, BuildingBlock: BEQFEK_clean_sbu_0, # of connection points: 5
#     Node 4, Type 0, BuildingBlock: BEQFEK_clean_sbu_0, # of connection points: 5
#     Node 5, Type 0, BuildingBlock: BEQFEK_clean_sbu_0, # of connection points: 5
#     Edge 6, Type (0, 0), BuildingBlock: KIFKEQ_clean_linker_1, # of connection points: 2
#     Edge 7, Type (0, 0), BuildingBlock: KIFKEQ_clean_linker_1, # of connection points: 2
#     Edge 8, Type (0, 0), BuildingBlock: KIFKEQ_clean_linker_1, # of connection points: 2
#     Edge 9, Type (0, 0), BuildingBlock: KIFKEQ_clean_linker_1, # of connection points: 2
#     Edge 10, Type (0, 0), BuildingBlock: KIFKEQ_clean_linker_1, # of connection points: 2
#     Edge 11, Type (0, 0), BuildingBlock: KIFKEQ_clean_linker_1, # of connection points: 2
#     Edge 12, Type (0, 0), BuildingBlock: KIFKEQ_clean_linker_1, # of connection points: 2
#     Edge 13, Type (0, 0), BuildingBlock: KIFKEQ_clean_linker_1, # of connection points: 2
#     Edge 14, Type (0, 0), BuildingBlock: KIFKEQ_clean_linker_1, # of connection points: 2
#     Edge 15, Type (0, 0), BuildingBlock: KIFKEQ_clean_linker_1, # of connection points: 2
#     Edge 16, Type (0, 0), BuildingBlock: KIFKEQ_clean_linker_1, # of connection points: 2
#     Edge 17, Type (0, 0), BuildingBlock: KIFKEQ_clean_linker_1, # of connection points: 2
#     Edge 18, Type (0, 0), BuildingBlock: KIFKEQ_clean_linker_1, # of connection points: 2
#     Edge 19, Type (0, 0), BuildingBlock: KIFKEQ_clean_linker_1, # of connection points: 2
#     Edge 20, Type (0, 0), BuildingBlock: KIFKEQ_clean_linker_1, # of connection points: 2
# Relax obj value: 0.218
# Max RMSD: 0.180
# Mean RMSD: 0.180
data_MOF--net-fne--node1-BEQFEK_clean_sbu_0--edge1-KIFKEQ_clean_linker_1
_symmetry_space_group_name_H-M    P1
_symmetry_Int_Tables_number       1
_symmetry_cell_setting            triclinic
loop_
_symmetry_equiv_pos_as_xyz
'x, y, z'
_cell_length_a     45.021922
_cell_length_b     45.018193
_cell_length_c     18.937938
_cell_angle_alpha  90.001771
_cell_angle_beta   90.026353
_cell_angle_gamma 119.97553
loop_
_atom_site_label
_atom_site_type_symbol
_atom_site_fract_x
_atom_site_fract_y
_atom_site_fract_z
_atom_type_partial_charge
Co0 Co 0.53419 0.25567 0.94825 0.0
Co1 Co 0.51086 0.22255 0.09759 0.0
C2 C 0.57664 0.23453 0.02888 0.0
O3 O 0.57273 0.24887 0.97452 0.0
O4 O 0.55459 0.22329 0.07848 0.0
C5 C 0.56579 0.28281 0.81339 0.0
O6 O 0.59147 0.27971 0.83752 0.0
C7 C 0.52189 0.22586 0.24841 0.0
C8 C 0.46946 0.194 0.29044 0.0
C9 C 0.50318 0.21574 0.31033 0.0
N10 N 0.50022 0.21106 0.19415 0.0
N11 N 0.46901 0.19136 0.21954 0.0
C12 C 0.55879 0.25277 0.24012 0.0
H13 H 0.56329 0.26511 0.1875 0.0
H14 H 0.56676 0.27251 0.28212 0.0
H15 H 0.57481 0.24049 0.24467 0.0
C16 C 0.52883 0.31175 0.01787 0.0
N17 N 0.52609 0.28056 0.01808 0.0
N18 N 0.51514 0.26621 0.08032 0.0
C19 C 0.51 0.28769 0.12137 0.0
C20 C 0.51894 0.31734 0.08358 0.0
C21 C 0.54172 0.3359 0.95658 0.0
H22 H 0.5212 0.3271 0.91612 0.0
H23 H 0.56399 0.33559 0.93232 0.0
H24 H 0.5492 0.36242 0.97287 0.0
O25 O 0.49313 0.21024 0.93358 0.0
O26 O 0.47427 0.18669 0.03871 0.0
H27 H 0.47388 0.25207 0.19584 0.0
H28 H 0.4831 0.29548 0.2076 0.0
C29 C 0.49437 0.27927 0.19356 0.0
H30 H 0.51442 0.28389 0.23301 0.0
H31 H 0.44716 0.17785 0.18832 0.0
O32 O 0.54123 0.27713 0.85451 0.0
C33 C 0.4716 0.18562 0.97173 0.0
Co34 Co 0.486 0.56904 0.28062 0.0
Co35 Co 0.49778 0.54747 0.43031 0.0
C36 C 0.55018 0.61289 0.35843 0.0
O37 O 0.53131 0.60808 0.30469 0.0
O38 O 0.54018 0.59142 0.40911 0.0
C39 C 0.48873 0.60036 0.14622 0.0
O40 O 0.51664 0.62695 0.17084 0.0
C41 C 0.50599 0.55915 0.58112 0.0
C42 C 0.48683 0.50698 0.62351 0.0
C43 C 0.49793 0.54057 0.6432 0.0
N44 N 0.49962 0.53752 0.527 0.0
N45 N 0.489 0.5065 0.55262 0.0
C46 C 0.51492 0.59576 0.57259 0.0
H47 H 0.5074 0.60004 0.5194 0.0
H48 H 0.50217 0.60304 0.61371 0.0
H49 H 0.54306 0.61249 0.57858 0.0
C50 C 0.425 0.56364 0.35243 0.0
N51 N 0.45363 0.56121 0.3517 0.0
N52 N 0.45781 0.55086 0.41401 0.0
C53 C 0.43147 0.5457 0.45597 0.0
C54 C 0.41019 0.55412 0.4188 0.0
C55 C 0.41298 0.57596 0.29139 0.0
H56 H 0.43524 0.59792 0.26556 0.0
H57 H 0.39425 0.58373 0.3084 0.0
H58 H 0.40063 0.55501 0.25198 0.0
O59 O 0.49084 0.52818 0.26674 0.0
O60 O 0.49714 0.51071 0.37222 0.0
H61 H 0.39746 0.51848 0.54283 0.0
H62 H 0.44008 0.55072 0.5675 0.0
C63 C 0.42495 0.53036 0.52842 0.0
H64 H 0.43239 0.51039 0.53087 0.0
H65 H 0.48114 0.48467 0.52157 0.0
O66 O 0.47078 0.57526 0.18695 0.0
C67 C 0.49478 0.50731 0.3054 0.0
Co68 Co 0.12741 0.52327 0.61948 0.0
Co69 Co 0.16018 0.53467 0.76959 0.0
C70 C 0.14802 0.58754 0.69696 0.0
O71 O 0.13343 0.56856 0.64366 0.0
O72 O 0.1595 0.57737 0.74728 0.0
C73 C 0.09893 0.52638 0.48561 0.0
O74 O 0.10031 0.55427 0.5105 0.0
C75 C 0.15922 0.54523 0.92105 0.0
C76 C 0.18765 0.52076 0.96263 0.0
C77 C 0.16793 0.53504 0.98312 0.0
N78 N 0.17187 0.53595 0.86649 0.0
N79 N 0.18963 0.52218 0.89167 0.0
C80 C 0.13881 0.56302 0.91286 0.0
H81 H 0.15182 0.58446 0.87511 0.0
H82 H 0.11313 0.54486 0.89106 0.0
H83 H 0.13611 0.57371 0.96362 0.0
C84 C 0.07307 0.46048 0.68758 0.0
N85 N 0.10297 0.49034 0.68946 0.0
N86 N 0.11665 0.49476 0.75271 0.0
C87 C 0.09575 0.46762 0.7933 0.0
C88 C 0.06756 0.44499 0.75331 0.0
C89 C 0.05161 0.44641 0.62255 0.0
H90 H 0.06753 0.44489 0.57956 0.0
H91 H 0.04278 0.46424 0.60501 0.0
H92 H 0.02916 0.42056 0.63154 0.0
O93 O 0.17301 0.52822 0.60576 0.0
O94 O 0.19627 0.53364 0.71154 0.0
H95 H 0.12705 0.46555 0.87611 0.0
H96 H 0.08168 0.4398 0.89314 0.0
C97 C 0.10189 0.46407 0.8698 0.0
H98 H 0.1021 0.48524 0.89976 0.0
H99 H 0.20142 0.51198 0.86033 0.0
O100 O 0.10605 0.50832 0.52608 0.0
C101 C 0.19757 0.53171 0.64464 0.0
Co102 Co 0.81297 0.16297 0.94722 0.0
Co103 Co 0.83588 0.19512 0.0974 0.0
C104 C 0.76984 0.1827 0.0302 0.0
O105 O 0.77397 0.16863 0.97568 0.0
O106 O 0.79197 0.19419 0.07965 0.0
C107 C 0.78093 0.13727 0.81235 0.0
O108 O 0.75618 0.14177 0.83693 0.0
C109 C 0.82625 0.19495 0.24883 0.0
C110 C 0.87957 0.22204 0.28842 0.0
C111 C 0.84565 0.20386 0.30995 0.0
N112 N 0.84772 0.20695 0.19353 0.0
N113 N 0.87954 0.22394 0.21746 0.0
C114 C 0.78843 0.17096 0.24233 0.0
H115 H 0.78252 0.15616 0.19241 0.0
H116 H 0.77847 0.15299 0.2877 0.0
H117 H 0.7752 0.18616 0.24138 0.0
C118 C 0.82322 0.10884 0.01183 0.0
N119 N 0.82272 0.13846 0.01525 0.0
N120 N 0.83224 0.15178 0.07874 0.0
C121 C 0.83907 0.13089 0.11796 0.0
C122 C 0.8338 0.10315 0.07678 0.0
C123 C 0.8157 0.0878 0.94614 0.0
H124 H 0.83224 0.10427 0.90266 0.0
H125 H 0.78865 0.07814 0.93037 0.0
H126 H 0.82017 0.06591 0.95349 0.0
O127 O 0.85321 0.20874 0.93225 0.0
O128 O 0.87224 0.23123 0.03821 0.0
H129 H 0.8732 0.16124 0.20071 0.0
H130 H 0.85216 0.1157 0.21725 0.0
C131 C 0.84896 0.13656 0.1944 0.0
H132 H 0.82856 0.13761 0.2248 0.0
H133 H 0.90124 0.23485 0.18525 0.0
O134 O 0.80518 0.14169 0.85318 0.0
C135 C 0.87471 0.23297 0.9712 0.0
Co136 Co 0.85938 0.84743 0.27357 0.0
Co137 Co 0.84946 0.87135 0.42198 0.0
C138 C 0.79491 0.80649 0.34968 0.0
O139 O 0.8136 0.80919 0.29697 0.0
O140 O 0.80585 0.82896 0.39846 0.0
C141 C 0.85632 0.81612 0.13937 0.0
O142 O 0.82801 0.78987 0.16353 0.0
C143 C 0.84256 0.85845 0.57271 0.0
C144 C 0.858 0.90948 0.61729 0.0
C145 C 0.84965 0.87639 0.63587 0.0
N146 N 0.84772 0.88024 0.51949 0.0
N147 N 0.85631 0.91056 0.54642 0.0
C148 C 0.83117 0.82125 0.5623 0.0
H149 H 0.81403 0.81091 0.51602 0.0
H150 H 0.85383 0.8183 0.55221 0.0
H151 H 0.81735 0.80598 0.60946 0.0
C152 C 0.91984 0.85146 0.3452 0.0
N153 N 0.89151 0.85442 0.34453 0.0
N154 N 0.88824 0.86602 0.40608 0.0
C155 C 0.91497 0.87169 0.44733 0.0
C156 C 0.93545 0.86208 0.41068 0.0
C157 C 0.93122 0.8383 0.28458 0.0
H158 H 0.94417 0.85906 0.24501 0.0
H159 H 0.90861 0.81667 0.25882 0.0
H160 H 0.94932 0.8298 0.30211 0.0
O161 O 0.85586 0.88914 0.25985 0.0
O162 O 0.85265 0.90943 0.36461 0.0
H163 H 0.91474 0.90882 0.51836 0.0
H164 H 0.95119 0.90285 0.52794 0.0
C165 C 0.92321 0.88959 0.51732 0.0
H166 H 0.91011 0.87055 0.55988 0.0
H167 H 0.86252 0.93234 0.51632 0.0
O168 O 0.87455 0.84097 0.1804 0.0
C169 C 0.85397 0.91154 0.29753 0.0
Co170 Co 0.22035 0.89613 0.60945 0.0
Co171 Co 0.18744 0.88621 0.75903 0.0
C172 C 0.19906 0.83236 0.68928 0.0
O173 O 0.21334 0.85063 0.63496 0.0
O174 O 0.18804 0.84321 0.73924 0.0
C175 C 0.24792 0.89198 0.47482 0.0
O176 O 0.24527 0.86343 0.49913 0.0
C177 C 0.19085 0.87834 0.9098 0.0
C178 C 0.15894 0.89883 0.95209 0.0
C179 C 0.18074 0.88687 0.97182 0.0
N180 N 0.17599 0.88521 0.85566 0.0
N181 N 0.15626 0.89666 0.8812 0.0
C182 C 0.21781 0.8684 0.90136 0.0
H183 H 0.22989 0.87597 0.84846 0.0
H184 H 0.23774 0.88046 0.94294 0.0
H185 H 0.20565 0.84015 0.90659 0.0
C186 C 0.27667 0.95731 0.67954 0.0
N187 N 0.24542 0.92894 0.67958 0.0
N188 N 0.2311 0.92549 0.74187 0.0
C189 C 0.25264 0.95199 0.7831 0.0
C190 C 0.28232 0.97266 0.74543 0.0
C191 C 0.3008 0.9686 0.61825 0.0
H192 H 0.29208 0.98049 0.57801 0.0
H193 H 0.30039 0.94602 0.59367 0.0
H194 H 0.32735 0.98749 0.63463 0.0
O195 O 0.17495 0.89196 0.59517 0.0
O196 O 0.15163 0.88721 0.70059 0.0
H197 H 0.21702 0.95244 0.85771 0.0
H198 H 0.26041 0.98665 0.86941 0.0
C199 C 0.24423 0.95917 0.85535 0.0
H200 H 0.24892 0.94377 0.89474 0.0
H201 H 0.1427 0.905 0.85009 0.0
O202 O 0.24179 0.91063 0.51573 0.0
C203 C 0.15045 0.8889 0.63366 0.0
H204 H 0.62441 0.24726 0.92665 0.0
H205 H 0.59566 0.20857 0.13951 0.0
H206 H 0.67055 0.23389 0.92979 0.0
H207 H 0.64163 0.19484 0.14201 0.0
H208 H 0.75134 0.2099 0.13945 0.0
H209 H 0.70515 0.22331 0.1412 0.0
H210 H 0.67468 0.18104 0.93153 0.0
H211 H 0.72099 0.16794 0.92917 0.0
C212 C 0.62801 0.23609 0.97424 0.0
C213 C 0.60623 0.22885 0.03271 0.0
C214 C 0.65428 0.22817 0.97578 0.0
C215 C 0.65944 0.213 0.03587 0.0
C216 C 0.63832 0.20664 0.09508 0.0
C217 C 0.61193 0.21441 0.09348 0.0
C218 C 0.73465 0.20321 0.0939 0.0
C219 C 0.73999 0.18799 0.03401 0.0
C220 C 0.70814 0.21083 0.09504 0.0
C221 C 0.68656 0.20352 0.03624 0.0
C222 C 0.69132 0.18751 0.97714 0.0
C223 C 0.71769 0.17975 0.97607 0.0
H224 H 0.75973 0.75778 0.24893 0.0
H225 H 0.74945 0.7897 0.45859 0.0
H226 H 0.70019 0.71167 0.25309 0.0
H227 H 0.68982 0.74383 0.4621 0.0
H228 H 0.58348 0.6596 0.25345 0.0
H229 H 0.64269 0.7064 0.25314 0.0
H230 H 0.6558 0.68043 0.46603 0.0
H231 H 0.59643 0.63383 0.46698 0.0
C232 C 0.74484 0.75493 0.29595 0.0
C233 C 0.75933 0.77748 0.35334 0.0
C234 C 0.71067 0.72868 0.29808 0.0
C235 C 0.69033 0.72433 0.35772 0.0
C236 C 0.70496 0.74645 0.41561 0.0
C237 C 0.73908 0.7728 0.41341 0.0
C238 C 0.59885 0.66401 0.30047 0.0
C239 C 0.58525 0.64287 0.36015 0.0
C240 C 0.63285 0.69065 0.30001 0.0
C241 C 0.65391 0.69684 0.35931 0.0
C242 C 0.64009 0.67635 0.41969 0.0
C243 C 0.60612 0.64959 0.42008 0.0
H244 H 0.179 0.63563 0.80089 0.0
H245 H 0.1306 0.61979 0.59627 0.0
H246 H 0.19185 0.69493 0.80017 0.0
H247 H 0.14349 0.67923 0.59598 0.0
H248 H 0.17533 0.78824 0.80135 0.0
H249 H 0.16189 0.72866 0.80438 0.0
H250 H 0.19609 0.73691 0.58853 0.0
H251 H 0.20927 0.7964 0.58495 0.0
C252 C 0.17072 0.64461 0.75612 0.0
C253 C 0.15368 0.62286 0.69868 0.0
C254 C 0.1781 0.67862 0.75581 0.0
C255 C 0.16883 0.69171 0.69789 0.0
C256 C 0.15135 0.66991 0.64092 0.0
C257 C 0.14376 0.63581 0.64137 0.0
C258 C 0.18015 0.77743 0.7546 0.0
C259 C 0.19328 0.79706 0.69282 0.0
C260 C 0.17254 0.74334 0.75648 0.0
C261 C 0.17772 0.72812 0.69653 0.0
C262 C 0.19137 0.74786 0.63517 0.0
C263 C 0.19919 0.78202 0.63338 0.0
H264 H 0.55452 0.21683 0.38773 0.0
H265 H 0.47894 0.24889 0.38954 0.0
H266 H 0.57291 0.24014 0.50629 0.0
H267 H 0.49863 0.27454 0.50574 0.0
H268 H 0.50727 0.26974 0.74517 0.0
H269 H 0.49469 0.25796 0.62119 0.0
H270 H 0.60046 0.28705 0.58138 0.0
H271 H 0.61248 0.29678 0.70751 0.0
C272 C 0.5422 0.2293 0.4136 0.0
C273 C 0.51499 0.23059 0.38084 0.0
C274 C 0.55297 0.24311 0.48108 0.0
C275 C 0.53721 0.25921 0.51628 0.0
C276 C 0.51082 0.2616 0.48148 0.0
C277 C 0.49952 0.247 0.41488 0.0
C278 C 0.52808 0.27426 0.70998 0.0
C279 C 0.56079 0.2837 0.73644 0.0
C280 C 0.52088 0.26764 0.63828 0.0
C281 C 0.54639 0.27101 0.59076 0.0
C282 C 0.57987 0.28317 0.61655 0.0
C283 C 0.58692 0.28917 0.68877 0.0
H284 H 0.44011 0.51442 0.72132 0.0
H285 H 0.54668 0.59296 0.72123 0.0
H286 H 0.43273 0.53315 0.8374 0.0
H287 H 0.54039 0.6105 0.83972 0.0
H288 H 0.5203 0.64779 0.04099 0.0
H289 H 0.51901 0.63633 0.91478 0.0
H290 H 0.44553 0.52941 0.95297 0.0
H291 H 0.44529 0.54132 0.07704 0.0
C292 C 0.46205 0.53547 0.747 0.0
C293 C 0.49404 0.55202 0.71348 0.0
C294 C 0.45794 0.54622 0.81353 0.0
C295 C 0.48602 0.57317 0.84884 0.0
C296 C 0.51798 0.59006 0.81411 0.0
C297 C 0.52182 0.57981 0.74667 0.0
C298 C 0.50324 0.62206 0.02188 0.0
C299 C 0.48319 0.59543 0.06915 0.0
C300 C 0.50278 0.61536 0.94961 0.0
C301 C 0.48268 0.58177 0.92335 0.0
C302 C 0.46109 0.55568 0.97044 0.0
C303 C 0.46108 0.5625 0.04219 0.0
H304 H 0.20107 0.54204 0.10693 0.0
H305 H 0.10321 0.52051 0.02181 0.0
H306 H 0.17803 0.53548 0.22654 0.0
H307 H 0.08106 0.51603 0.14129 0.0
H308 H 0.08772 0.56133 0.38008 0.0
H309 H 0.10089 0.56129 0.25458 0.0
H310 H 0.12478 0.48104 0.29232 0.0
H311 H 0.11102 0.48026 0.4168 0.0
C312 C 0.17491 0.53652 0.11377 0.0
C313 C 0.15445 0.53317 0.05506 0.0
C314 C 0.16174 0.53266 0.18194 0.0
C315 C 0.12793 0.52552 0.19251 0.0
C316 C 0.10737 0.52208 0.13411 0.0
C317 C 0.12033 0.52526 0.06585 0.0
C318 C 0.09487 0.54304 0.36127 0.0
C319 C 0.09881 0.52118 0.40858 0.0
C320 C 0.10244 0.54309 0.28964 0.0
C321 C 0.11441 0.52161 0.26477 0.0
C322 C 0.11604 0.49814 0.31088 0.0
C323 C 0.10796 0.49765 0.382 0.0
H324 H 0.73524 0.12764 0.7069 0.0
H325 H 0.83773 0.14575 0.74353 0.0
H326 H 0.74765 0.13778 0.58102 0.0
H327 H 0.8508 0.15783 0.61971 0.0
H328 H 0.86553 0.16641 0.38722 0.0
H329 H 0.84488 0.14118 0.50334 0.0
H330 H 0.77883 0.18547 0.50845 0.0
H331 H 0.79813 0.20859 0.39005 0.0
C332 C 0.76024 0.13334 0.68798 0.0
C333 C 0.7856 0.13629 0.73532 0.0
C334 C 0.76754 0.13957 0.61594 0.0
C335 C 0.80049 0.14936 0.59002 0.0
C336 C 0.82503 0.15007 0.63705 0.0
C337 C 0.81756 0.14328 0.70859 0.0
C338 C 0.84659 0.17063 0.41358 0.0
C339 C 0.83366 0.18971 0.38083 0.0
C340 C 0.83474 0.15625 0.48008 0.0
C341 C 0.8103 0.16142 0.51597 0.0
C342 C 0.79716 0.18034 0.48224 0.0
C343 C 0.80849 0.19404 0.41492 0.0
H344 H 0.83742 0.89883 0.75941 0.0
H345 H 0.87022 0.83047 0.67594 0.0
H346 H 0.84363 0.88244 0.87929 0.0
H347 H 0.87409 0.8126 0.79551 0.0
H348 H 0.82264 0.76994 0.03309 0.0
H349 H 0.82357 0.78316 0.90723 0.0
H350 H 0.90217 0.88772 0.9468 0.0
H351 H 0.90217 0.87473 0.07159 0.0
C352 C 0.84539 0.87995 0.76647 0.0
C353 C 0.85204 0.86504 0.70792 0.0
C354 C 0.84896 0.87065 0.83487 0.0
C355 C 0.85899 0.84609 0.84589 0.0
C356 C 0.86576 0.83118 0.78782 0.0
C357 C 0.86292 0.84103 0.71936 0.0
C358 C 0.84078 0.79548 0.01463 0.0
C359 C 0.86199 0.82136 0.06246 0.0
C360 C 0.84124 0.80299 0.94283 0.0
C361 C 0.86256 0.83652 0.91835 0.0
C362 C 0.88531 0.86177 0.96507 0.0
C363 C 0.88534 0.85419 0.03637 0.0
H364 H 0.23479 0.93731 0.40625 0.0
H365 H 0.26212 0.85926 0.36921 0.0
H366 H 0.22307 0.93797 0.2822 0.0
H367 H 0.25245 0.86142 0.24301 0.0
H368 H 0.18205 0.83678 0.04934 0.0
H369 H 0.20549 0.84189 0.16786 0.0
H370 H 0.23975 0.95052 0.16677 0.0
H371 H 0.21398 0.94438 0.05062 0.0
C372 C 0.23938 0.92101 0.37119 0.0
C373 C 0.24888 0.89782 0.39784 0.0
C374 C 0.2328 0.92152 0.29945 0.0
C375 C 0.23628 0.89937 0.25208 0.0
C376 C 0.2485 0.87813 0.27806 0.0
C377 C 0.25447 0.87716 0.35032 0.0
C378 C 0.19452 0.8616 0.07508 0.0
C379 C 0.19573 0.89004 0.04221 0.0
C380 C 0.2084 0.86475 0.14253 0.0
C381 C 0.22449 0.89665 0.17758 0.0
C382 C 0.22682 0.92536 0.14262 0.0
C383 C 0.21216 0.92196 0.07607 0.0
H384 H 0.55064 0.3542 0.20018 0.0
H385 H 0.48579 0.34843 0.02695 0.0
H386 H 0.54541 0.40094 0.25222 0.0
H387 H 0.47949 0.39464 0.0797 0.0
H388 H 0.50086 0.49857 0.16452 0.0
H389 H 0.5087 0.45451 0.10796 0.0
H390 H 0.50279 0.40842 0.31153 0.0
H391 H 0.49607 0.45323 0.36849 0.0
C392 C 0.53538 0.36319 0.17324 0.0
C393 C 0.51854 0.34792 0.1099 0.0
C394 C 0.53209 0.38968 0.20324 0.0
C395 C 0.51163 0.40123 0.1707 0.0
C396 C 0.49566 0.38656 0.10588 0.0
C397 C 0.49921 0.36017 0.0756 0.0
C398 C 0.50114 0.47899 0.19731 0.0
C399 C 0.49793 0.47948 0.27115 0.0
C400 C 0.5055 0.45362 0.16473 0.0
C401 C 0.50654 0.428 0.20514 0.0
C402 C 0.50279 0.42818 0.27891 0.0
C403 C 0.49867 0.45372 0.31158 0.0
H404 H 0.34556 0.52086 0.36415 0.0
H405 H 0.40584 0.58592 0.53607 0.0
H406 H 0.29351 0.5149 0.4184 0.0
H407 H 0.35429 0.58095 0.58967 0.0
H408 H 0.25291 0.53267 0.70753 0.0
H409 H 0.30411 0.53878 0.65003 0.0
H410 H 0.26372 0.54493 0.44685 0.0
H411 H 0.21222 0.53772 0.50383 0.0
C412 C 0.3476 0.53437 0.41287 0.0
C413 C 0.3794 0.55371 0.4463 0.0
C414 C 0.31792 0.53101 0.44402 0.0
C415 C 0.31968 0.54716 0.50886 0.0
C416 C 0.35188 0.56751 0.54067 0.0
C417 C 0.3814 0.57064 0.50979 0.0
C418 C 0.25493 0.5352 0.6506 0.0
C419 C 0.22847 0.53469 0.61038 0.0
C420 C 0.28438 0.53895 0.61762 0.0
C421 C 0.28811 0.54253 0.54378 0.0
C422 C 0.26152 0.5418 0.50365 0.0
C423 C 0.23203 0.53782 0.5365 0.0
H424 H 0.93573 0.28087 0.02927 0.0
H425 H 0.8769 0.25437 0.83582 0.0
H426 H 0.9823 0.33111 0.97093 0.0
H427 H 0.92323 0.3048 0.7783 0.0
H428 H -0.00048 0.42423 0.74725 0.0
H429 H 0.95201 0.37163 0.79742 0.0
H430 H 0.02346 0.33962 0.86393 0.0
H431 H 0.07066 0.39155 0.81171 0.0
C432 C 0.9327 0.28584 0.97453 0.0
C433 C 0.90274 0.26368 0.93709 0.0
C434 C 0.95936 0.31441 0.94114 0.0
C435 C 0.95622 0.32161 0.87023 0.0
C436 C 0.92614 0.29978 0.83308 0.0
C437 C 0.89976 0.2709 0.86599 0.0
C438 C 0.00483 0.40555 0.7714 0.0
C439 C 0.03858 0.41187 0.77648 0.0
C440 C 0.9778 0.37566 0.80024 0.0
C441 C 0.98431 0.35197 0.83524 0.0
C442 C 0.01795 0.35781 0.83815 0.0
C443 C 0.04481 0.38736 0.80829 0.0
H444 H 0.89104 0.10725 0.13368 0.0
H445 H 0.78771 0.03479 0.069 0.0
H446 H 0.89689 0.06058 0.18542 0.0
H447 H 0.79391 0.98782 0.11872 0.0
H448 H 0.83644 0.91361 0.16071 0.0
H449 H 0.83275 0.95974 0.10111 0.0
H450 H 0.8644 0.0196 0.2928 0.0
H451 H 0.86765 0.97322 0.35322 0.0
C452 C 0.86977 0.08122 0.12991 0.0
C453 C 0.8388 0.07446 0.09838 0.0
C454 C 0.87308 0.05466 0.15953 0.0
C455 C 0.84571 0.02081 0.15662 0.0
C456 C 0.81537 0.01378 0.12151 0.0
C457 C 0.81186 0.0405 0.09291 0.0
C458 C 0.84271 0.93664 0.1902 0.0
C459 C 0.85237 0.93984 0.26171 0.0
C460 C 0.84043 0.9629 0.15608 0.0
C461 C 0.84837 0.9931 0.19242 0.0
C462 C 0.85841 -0.00344 0.26361 0.0
C463 C 0.8601 0.97002 0.29819 0.0
H464 H 0.13477 0.88054 0.49315 0.0
H465 H 0.09617 0.89008 0.69586 0.0
H466 H 0.08273 0.87233 0.43652 0.0
H467 H 0.04456 0.88305 0.63874 0.0
H468 H 0.94159 0.83333 0.53081 0.0
H469 H -0.00612 0.83955 0.58317 0.0
H470 H 0.05209 0.90108 0.40475 0.0
H471 H -0.00077 0.89376 0.35172 0.0
C472 C 0.11533 0.88127 0.5256 0.0
C473 C 0.11956 0.88584 0.59916 0.0
C474 C 0.08553 0.8767 0.49297 0.0
C475 C 0.05936 0.87683 0.53304 0.0
C476 C 0.06391 0.88209 0.60645 0.0
C477 C 0.0936 0.88639 0.63919 0.0
C478 C 0.96561 0.84786 0.50269 0.0
C479 C 0.96665 0.86311 0.43752 0.0
C480 C -0.00443 0.85172 0.53285 0.0
C481 C 0.02729 0.87123 0.4987 0.0
C482 C 0.02807 0.88565 0.43223 0.0
C483 C -0.00208 0.8815 0.40176 0.0
H484 H 0.31377 0.03704 0.68951 0.0
H485 H 0.31892 0.97731 0.8621 0.0
H486 H 0.35987 0.08931 0.74327 0.0
H487 H 0.36548 0.02904 0.91519 0.0
H488 H 0.41699 0.13021 0.03332 0.0
H489 H 0.37244 0.07897 0.97508 0.0
H490 H 0.41975 0.11971 0.77277 0.0
H491 H 0.4636 0.17132 0.83057 0.0
C492 C 0.32535 0.03516 0.73822 0.0
C493 C 0.31295 0.00347 0.77207 0.0
C494 C 0.35167 0.06496 0.76909 0.0
C495 C 0.36608 0.06341 0.83407 0.0
C496 C 0.35441 0.03129 0.8661 0.0
C497 C 0.32803 0.00166 0.8355 0.0
C498 C 0.4178 0.12829 0.97641 0.0
C499 C 0.44387 0.15485 0.9367 0.0
C500 C 0.39241 0.0988 0.94302 0.0
C501 C 0.39267 0.09512 0.86924 0.0
C502 C 0.41856 0.12185 0.82953 0.0
C503 C 0.4438 0.15141 0.86283 0.0
loop_
_geom_bond_atom_site_label_1
_geom_bond_atom_site_label_2
_geom_bond_distance
_geom_bond_site_symmetry_2
_ccdc_geom_bond_type
Co0 O3 1.970 . S
Co0 N17 1.989 1_556 S
Co0 O25 1.967 . S
Co0 O32 1.920 . S
Co1 O4 1.966 . S
Co1 N10 2.022 . S
Co1 N18 1.993 . S
Co1 O26 1.941 . S
C2 O3 1.258 1_554 S
C2 O4 1.263 . S
O3 Co0 1.970 . S
O3 C2 1.258 1_556 S
O4 Co1 1.966 . S
O4 C2 1.263 . S
C5 O6 1.235 . S
C5 O32 1.289 . S
O6 C5 1.235 . S
C7 C9 1.400 . S
C7 N10 1.351 . S
C7 C12 1.501 . S
C8 C9 1.387 . S
C8 N11 1.341 . S
C9 C7 1.400 . S
C9 C8 1.387 . S
N10 Co1 2.022 . S
N10 C7 1.351 . S
N10 N11 1.365 . S
N11 C8 1.341 . S
N11 N10 1.365 . S
N11 H31 0.862 . S
C12 C7 1.501 . S
C12 H13 0.961 . S
C12 H14 0.961 . S
C12 H15 0.960 . S
H13 C12 0.961 . S
H14 C12 0.961 . S
H15 C12 0.960 . S
C16 N17 1.342 1_556 S
C16 C20 1.401 1_556 S
C16 C21 1.499 . S
N17 Co0 1.989 1_554 S
N17 C16 1.342 1_554 S
N17 N18 1.388 . S
N18 Co1 1.993 . S
N18 N17 1.388 . S
N18 C19 1.346 . S
C19 N18 1.346 . S
C19 C20 1.396 . S
C19 C29 1.510 . S
C20 C16 1.401 1_554 S
C20 C19 1.396 . S
C21 C16 1.499 . S
C21 H22 0.959 . S
C21 H23 0.960 . S
C21 H24 0.961 . S
H22 C21 0.959 . S
H23 C21 0.960 . S
H24 C21 0.961 . S
O25 Co0 1.967 . S
O25 C33 1.258 1_556 S
O26 Co1 1.941 . S
O26 C33 1.266 . S
H27 C29 0.959 . S
H28 C29 0.961 . S
C29 C19 1.510 . S
C29 H27 0.959 . S
C29 H28 0.961 . S
C29 H30 0.960 . S
H30 C29 0.960 . S
H31 N11 0.862 . S
O32 Co0 1.920 . S
O32 C5 1.289 . S
C33 O25 1.258 1_554 S
C33 O26 1.266 . S
Co34 O37 1.970 . S
Co34 N51 1.989 . S
Co34 O59 1.967 . S
Co34 O66 1.920 . S
Co35 O38 1.966 . S
Co35 N44 2.022 . S
Co35 N52 1.993 . S
Co35 O60 1.941 . S
C36 O37 1.258 . S
C36 O38 1.263 . S
O37 Co34 1.970 . S
O37 C36 1.258 . S
O38 Co35 1.966 . S
O38 C36 1.263 . S
C39 O40 1.235 . S
C39 O66 1.289 . S
O40 C39 1.235 . S
C41 C43 1.400 . S
C41 N44 1.351 . S
C41 C46 1.501 . S
C42 C43 1.387 . S
C42 N45 1.341 . S
C43 C41 1.400 . S
C43 C42 1.387 . S
N44 Co35 2.022 . S
N44 C41 1.351 . S
N44 N45 1.365 . S
N45 C42 1.341 . S
N45 N44 1.365 . S
N45 H65 0.862 . S
C46 C41 1.501 . S
C46 H47 0.961 . S
C46 H48 0.961 . S
C46 H49 0.960 . S
H47 C46 0.961 . S
H48 C46 0.961 . S
H49 C46 0.960 . S
C50 N51 1.342 . S
C50 C54 1.401 . S
C50 C55 1.499 . S
N51 Co34 1.989 . S
N51 C50 1.342 . S
N51 N52 1.388 . S
N52 Co35 1.993 . S
N52 N51 1.388 . S
N52 C53 1.346 . S
C53 N52 1.346 . S
C53 C54 1.396 . S
C53 C63 1.510 . S
C54 C50 1.401 . S
C54 C53 1.396 . S
C55 C50 1.499 . S
C55 H56 0.959 . S
C55 H57 0.960 . S
C55 H58 0.961 . S
H56 C55 0.959 . S
H57 C55 0.960 . S
H58 C55 0.961 . S
O59 Co34 1.967 . S
O59 C67 1.258 . S
O60 Co35 1.941 . S
O60 C67 1.266 . S
H61 C63 0.959 . S
H62 C63 0.961 . S
C63 C53 1.510 . S
C63 H61 0.959 . S
C63 H62 0.961 . S
C63 H64 0.960 . S
H64 C63 0.960 . S
H65 N45 0.862 . S
O66 Co34 1.920 . S
O66 C39 1.289 . S
C67 O59 1.258 . S
C67 O60 1.266 . S
Co68 O71 1.970 . S
Co68 N85 1.989 . S
Co68 O93 1.967 . S
Co68 O100 1.920 . S
Co69 O72 1.966 . S
Co69 N78 2.022 . S
Co69 N86 1.993 . S
Co69 O94 1.941 . S
C70 O71 1.258 . S
C70 O72 1.263 . S
O71 Co68 1.970 . S
O71 C70 1.258 . S
O72 Co69 1.966 . S
O72 C70 1.263 . S
C73 O74 1.235 . S
C73 O100 1.289 . S
O74 C73 1.235 . S
C75 C77 1.400 . S
C75 N78 1.351 . S
C75 C80 1.501 . S
C76 C77 1.387 . S
C76 N79 1.341 . S
C77 C75 1.400 . S
C77 C76 1.387 . S
N78 Co69 2.022 . S
N78 C75 1.351 . S
N78 N79 1.365 . S
N79 C76 1.341 . S
N79 N78 1.365 . S
N79 H99 0.862 . S
C80 C75 1.501 . S
C80 H81 0.961 . S
C80 H82 0.961 . S
C80 H83 0.960 . S
H81 C80 0.961 . S
H82 C80 0.961 . S
H83 C80 0.960 . S
C84 N85 1.342 . S
C84 C88 1.401 . S
C84 C89 1.499 . S
N85 Co68 1.989 . S
N85 C84 1.342 . S
N85 N86 1.388 . S
N86 Co69 1.993 . S
N86 N85 1.388 . S
N86 C87 1.346 . S
C87 N86 1.346 . S
C87 C88 1.396 . S
C87 C97 1.510 . S
C88 C84 1.401 . S
C88 C87 1.396 . S
C89 C84 1.499 . S
C89 H90 0.959 . S
C89 H91 0.960 . S
C89 H92 0.961 . S
H90 C89 0.959 . S
H91 C89 0.960 . S
H92 C89 0.961 . S
O93 Co68 1.967 . S
O93 C101 1.258 . S
O94 Co69 1.941 . S
O94 C101 1.266 . S
H95 C97 0.959 . S
H96 C97 0.961 . S
C97 C87 1.510 . S
C97 H95 0.959 . S
C97 H96 0.961 . S
C97 H98 0.960 . S
H98 C97 0.960 . S
H99 N79 0.862 . S
O100 Co68 1.920 . S
O100 C73 1.289 . S
C101 O93 1.258 . S
C101 O94 1.266 . S
Co102 O105 1.970 . S
Co102 N119 1.989 1_556 S
Co102 O127 1.967 . S
Co102 O134 1.920 . S
Co103 O106 1.966 . S
Co103 N112 2.022 . S
Co103 N120 1.993 . S
Co103 O128 1.941 . S
C104 O105 1.258 1_554 S
C104 O106 1.263 . S
O105 Co102 1.970 . S
O105 C104 1.258 1_556 S
O106 Co103 1.966 . S
O106 C104 1.263 . S
C107 O108 1.235 . S
C107 O134 1.289 . S
O108 C107 1.235 . S
C109 C111 1.400 . S
C109 N112 1.351 . S
C109 C114 1.501 . S
C110 C111 1.387 . S
C110 N113 1.341 . S
C111 C109 1.400 . S
C111 C110 1.387 . S
N112 Co103 2.022 . S
N112 C109 1.351 . S
N112 N113 1.365 . S
N113 C110 1.341 . S
N113 N112 1.365 . S
N113 H133 0.862 . S
C114 C109 1.501 . S
C114 H115 0.961 . S
C114 H116 0.961 . S
C114 H117 0.960 . S
H115 C114 0.961 . S
H116 C114 0.961 . S
H117 C114 0.960 . S
C118 N119 1.342 1_556 S
C118 C122 1.401 1_556 S
C118 C123 1.499 . S
N119 Co102 1.989 1_554 S
N119 C118 1.342 1_554 S
N119 N120 1.388 . S
N120 Co103 1.993 . S
N120 N119 1.388 . S
N120 C121 1.346 . S
C121 N120 1.346 . S
C121 C122 1.396 . S
C121 C131 1.510 . S
C122 C118 1.401 1_554 S
C122 C121 1.396 . S
C123 C118 1.499 . S
C123 H124 0.959 . S
C123 H125 0.960 . S
C123 H126 0.961 . S
H124 C123 0.959 . S
H125 C123 0.960 . S
H126 C123 0.961 . S
O127 Co102 1.967 . S
O127 C135 1.258 1_556 S
O128 Co103 1.941 . S
O128 C135 1.266 . S
H129 C131 0.959 . S
H130 C131 0.961 . S
C131 C121 1.510 . S
C131 H129 0.959 . S
C131 H130 0.961 . S
C131 H132 0.960 . S
H132 C131 0.960 . S
H133 N113 0.862 . S
O134 Co102 1.920 . S
O134 C107 1.289 . S
C135 O127 1.258 1_554 S
C135 O128 1.266 . S
Co136 O139 1.970 . S
Co136 N153 1.989 . S
Co136 O161 1.967 . S
Co136 O168 1.920 . S
Co137 O140 1.966 . S
Co137 N146 2.022 . S
Co137 N154 1.993 . S
Co137 O162 1.941 . S
C138 O139 1.258 . S
C138 O140 1.263 . S
O139 Co136 1.970 . S
O139 C138 1.258 . S
O140 Co137 1.966 . S
O140 C138 1.263 . S
C141 O142 1.235 . S
C141 O168 1.289 . S
O142 C141 1.235 . S
C143 C145 1.400 . S
C143 N146 1.351 . S
C143 C148 1.501 . S
C144 C145 1.387 . S
C144 N147 1.341 . S
C145 C143 1.400 . S
C145 C144 1.387 . S
N146 Co137 2.022 . S
N146 C143 1.351 . S
N146 N147 1.365 . S
N147 C144 1.341 . S
N147 N146 1.365 . S
N147 H167 0.862 . S
C148 C143 1.501 . S
C148 H149 0.961 . S
C148 H150 0.961 . S
C148 H151 0.960 . S
H149 C148 0.961 . S
H150 C148 0.961 . S
H151 C148 0.960 . S
C152 N153 1.342 . S
C152 C156 1.401 . S
C152 C157 1.499 . S
N153 Co136 1.989 . S
N153 C152 1.342 . S
N153 N154 1.388 . S
N154 Co137 1.993 . S
N154 N153 1.388 . S
N154 C155 1.346 . S
C155 N154 1.346 . S
C155 C156 1.396 . S
C155 C165 1.510 . S
C156 C152 1.401 . S
C156 C155 1.396 . S
C157 C152 1.499 . S
C157 H158 0.959 . S
C157 H159 0.960 . S
C157 H160 0.961 . S
H158 C157 0.959 . S
H159 C157 0.960 . S
H160 C157 0.961 . S
O161 Co136 1.967 . S
O161 C169 1.258 . S
O162 Co137 1.941 . S
O162 C169 1.266 . S
H163 C165 0.959 . S
H164 C165 0.961 . S
C165 C155 1.510 . S
C165 H163 0.959 . S
C165 H164 0.961 . S
C165 H166 0.960 . S
H166 C165 0.960 . S
H167 N147 0.862 . S
O168 Co136 1.920 . S
O168 C141 1.289 . S
C169 O161 1.258 . S
C169 O162 1.266 . S
Co170 O173 1.970 . S
Co170 N187 1.989 . S
Co170 O195 1.967 . S
Co170 O202 1.920 . S
Co171 O174 1.966 . S
Co171 N180 2.022 . S
Co171 N188 1.993 . S
Co171 O196 1.941 . S
C172 O173 1.258 . S
C172 O174 1.263 . S
O173 Co170 1.970 . S
O173 C172 1.258 . S
O174 Co171 1.966 . S
O174 C172 1.263 . S
C175 O176 1.235 . S
C175 O202 1.289 . S
O176 C175 1.235 . S
C177 C179 1.400 . S
C177 N180 1.351 . S
C177 C182 1.501 . S
C178 C179 1.387 . S
C178 N181 1.341 . S
C179 C177 1.400 . S
C179 C178 1.387 . S
N180 Co171 2.022 . S
N180 C177 1.351 . S
N180 N181 1.365 . S
N181 C178 1.341 . S
N181 N180 1.365 . S
N181 H201 0.862 . S
C182 C177 1.501 . S
C182 H183 0.961 . S
C182 H184 0.961 . S
C182 H185 0.960 . S
H183 C182 0.961 . S
H184 C182 0.961 . S
H185 C182 0.960 . S
C186 N187 1.342 . S
C186 C190 1.401 . S
C186 C191 1.499 . S
N187 Co170 1.989 . S
N187 C186 1.342 . S
N187 N188 1.388 . S
N188 Co171 1.993 . S
N188 N187 1.388 . S
N188 C189 1.346 . S
C189 N188 1.346 . S
C189 C190 1.396 . S
C189 C199 1.510 . S
C190 C186 1.401 . S
C190 C189 1.396 . S
C191 C186 1.499 . S
C191 H192 0.959 . S
C191 H193 0.960 . S
C191 H194 0.961 1_565 S
H192 C191 0.959 . S
H193 C191 0.960 . S
H194 C191 0.961 1_545 S
O195 Co170 1.967 . S
O195 C203 1.258 . S
O196 Co171 1.941 . S
O196 C203 1.266 . S
H197 C199 0.959 . S
H198 C199 0.961 . S
C199 C189 1.510 . S
C199 H197 0.959 . S
C199 H198 0.961 . S
C199 H200 0.960 . S
H200 C199 0.960 . S
H201 N181 0.862 . S
O202 Co170 1.920 . S
O202 C175 1.289 . S
C203 O195 1.258 . S
C203 O196 1.266 . S
H204 C212 0.950 . S
H205 C217 0.950 . S
H206 C214 0.950 . S
H207 C216 0.950 . S
H208 C218 0.950 . S
H209 C220 0.950 . S
H210 C222 0.950 . S
H211 C223 0.950 . S
C212 H204 0.950 . S
C212 C213 1.386 1_556 S
C212 C214 1.391 . S
C213 C212 1.386 1_554 S
C213 C217 1.393 . S
C214 H206 0.950 . S
C214 C212 1.391 . S
C214 C215 1.400 1_556 S
C215 C214 1.400 1_554 S
C215 C216 1.398 . S
C215 C221 1.491 . S
C216 H207 0.950 . S
C216 C215 1.398 . S
C216 C217 1.391 . S
C217 H205 0.950 . S
C217 C213 1.393 . S
C217 C216 1.391 . S
C218 H208 0.950 . S
C218 C219 1.386 . S
C218 C220 1.391 . S
C219 C218 1.386 . S
C219 C223 1.393 1_554 S
C220 H209 0.950 . S
C220 C218 1.391 . S
C220 C221 1.400 . S
C221 C215 1.491 . S
C221 C220 1.400 . S
C221 C222 1.398 1_554 S
C222 H210 0.950 . S
C222 C221 1.398 1_556 S
C222 C223 1.391 . S
C223 H211 0.950 . S
C223 C219 1.393 1_556 S
C223 C222 1.391 . S
H224 C232 0.950 . S
H225 C237 0.950 . S
H226 C234 0.950 . S
H227 C236 0.950 . S
H228 C238 0.950 . S
H229 C240 0.950 . S
H230 C242 0.950 . S
H231 C243 0.950 . S
C232 H224 0.950 . S
C232 C233 1.386 . S
C232 C234 1.391 . S
C233 C232 1.386 . S
C233 C237 1.393 . S
C234 H226 0.950 . S
C234 C232 1.391 . S
C234 C235 1.400 . S
C235 C234 1.400 . S
C235 C236 1.398 . S
C235 C241 1.491 . S
C236 H227 0.950 . S
C236 C235 1.398 . S
C236 C237 1.391 . S
C237 H225 0.950 . S
C237 C233 1.393 . S
C237 C236 1.391 . S
C238 H228 0.950 . S
C238 C239 1.386 . S
C238 C240 1.391 . S
C239 C238 1.386 . S
C239 C243 1.393 . S
C240 H229 0.950 . S
C240 C238 1.391 . S
C240 C241 1.400 . S
C241 C235 1.491 . S
C241 C240 1.400 . S
C241 C242 1.398 . S
C242 H230 0.950 . S
C242 C241 1.398 . S
C242 C243 1.391 . S
C243 H231 0.950 . S
C243 C239 1.393 . S
C243 C242 1.391 . S
H244 C252 0.950 . S
H245 C257 0.950 . S
H246 C254 0.950 . S
H247 C256 0.950 . S
H248 C258 0.950 . S
H249 C260 0.950 . S
H250 C262 0.950 . S
H251 C263 0.950 . S
C252 H244 0.950 . S
C252 C253 1.386 . S
C252 C254 1.391 . S
C253 C252 1.386 . S
C253 C257 1.393 . S
C254 H246 0.950 . S
C254 C252 1.391 . S
C254 C255 1.400 . S
C255 C254 1.400 . S
C255 C256 1.398 . S
C255 C261 1.491 . S
C256 H247 0.950 . S
C256 C255 1.398 . S
C256 C257 1.391 . S
C257 H245 0.950 . S
C257 C253 1.393 . S
C257 C256 1.391 . S
C258 H248 0.950 . S
C258 C259 1.386 . S
C258 C260 1.391 . S
C259 C258 1.386 . S
C259 C263 1.393 . S
C260 H249 0.950 . S
C260 C258 1.391 . S
C260 C261 1.400 . S
C261 C255 1.491 . S
C261 C260 1.400 . S
C261 C262 1.398 . S
C262 H250 0.950 . S
C262 C261 1.398 . S
C262 C263 1.391 . S
C263 H251 0.950 . S
C263 C259 1.393 . S
C263 C262 1.391 . S
H264 C272 0.950 . S
H265 C277 0.950 . S
H266 C274 0.950 . S
H267 C276 0.950 . S
H268 C278 0.950 . S
H269 C280 0.950 . S
H270 C282 0.950 . S
H271 C283 0.950 . S
C272 H264 0.950 . S
C272 C273 1.386 . S
C272 C274 1.391 . S
C273 C272 1.386 . S
C273 C277 1.393 . S
C274 H266 0.950 . S
C274 C272 1.391 . S
C274 C275 1.400 . S
C275 C274 1.400 . S
C275 C276 1.398 . S
C275 C281 1.491 . S
C276 H267 0.950 . S
C276 C275 1.398 . S
C276 C277 1.391 . S
C277 H265 0.950 . S
C277 C273 1.393 . S
C277 C276 1.391 . S
C278 H268 0.950 . S
C278 C279 1.386 . S
C278 C280 1.391 . S
C279 C278 1.386 . S
C279 C283 1.393 . S
C280 H269 0.950 . S
C280 C278 1.391 . S
C280 C281 1.400 . S
C281 C275 1.491 . S
C281 C280 1.400 . S
C281 C282 1.398 . S
C282 H270 0.950 . S
C282 C281 1.398 . S
C282 C283 1.391 . S
C283 H271 0.950 . S
C283 C279 1.393 . S
C283 C282 1.391 . S
H284 C292 0.950 . S
H285 C297 0.950 . S
H286 C294 0.950 . S
H287 C296 0.950 . S
H288 C298 0.950 . S
H289 C300 0.950 . S
H290 C302 0.950 . S
H291 C303 0.950 . S
C292 H284 0.950 . S
C292 C293 1.386 . S
C292 C294 1.391 . S
C293 C292 1.386 . S
C293 C297 1.393 . S
C294 H286 0.950 . S
C294 C292 1.391 . S
C294 C295 1.400 . S
C295 C294 1.400 . S
C295 C296 1.398 . S
C295 C301 1.491 . S
C296 H287 0.950 . S
C296 C295 1.398 . S
C296 C297 1.391 . S
C297 H285 0.950 . S
C297 C293 1.393 . S
C297 C296 1.391 . S
C298 H288 0.950 . S
C298 C299 1.386 . S
C298 C300 1.391 1_554 S
C299 C298 1.386 . S
C299 C303 1.393 . S
C300 H289 0.950 . S
C300 C298 1.391 1_556 S
C300 C301 1.400 . S
C301 C295 1.491 . S
C301 C300 1.400 . S
C301 C302 1.398 . S
C302 H290 0.950 . S
C302 C301 1.398 . S
C302 C303 1.391 1_556 S
C303 H291 0.950 . S
C303 C299 1.393 . S
C303 C302 1.391 1_554 S
H304 C312 0.950 . S
H305 C317 0.950 . S
H306 C314 0.950 . S
H307 C316 0.950 . S
H308 C318 0.950 . S
H309 C320 0.950 . S
H310 C322 0.950 . S
H311 C323 0.950 . S
C312 H304 0.950 . S
C312 C313 1.386 . S
C312 C314 1.391 . S
C313 C312 1.386 . S
C313 C317 1.393 . S
C314 H306 0.950 . S
C314 C312 1.391 . S
C314 C315 1.400 . S
C315 C314 1.400 . S
C315 C316 1.398 . S
C315 C321 1.491 . S
C316 H307 0.950 . S
C316 C315 1.398 . S
C316 C317 1.391 . S
C317 H305 0.950 . S
C317 C313 1.393 . S
C317 C316 1.391 . S
C318 H308 0.950 . S
C318 C319 1.386 . S
C318 C320 1.391 . S
C319 C318 1.386 . S
C319 C323 1.393 . S
C320 H309 0.950 . S
C320 C318 1.391 . S
C320 C321 1.400 . S
C321 C315 1.491 . S
C321 C320 1.400 . S
C321 C322 1.398 . S
C322 H310 0.950 . S
C322 C321 1.398 . S
C322 C323 1.391 . S
C323 H311 0.950 . S
C323 C319 1.393 . S
C323 C322 1.391 . S
H324 C332 0.950 . S
H325 C337 0.950 . S
H326 C334 0.950 . S
H327 C336 0.950 . S
H328 C338 0.950 . S
H329 C340 0.950 . S
H330 C342 0.950 . S
H331 C343 0.950 . S
C332 H324 0.950 . S
C332 C333 1.386 . S
C332 C334 1.391 . S
C333 C332 1.386 . S
C333 C337 1.393 . S
C334 H326 0.950 . S
C334 C332 1.391 . S
C334 C335 1.400 . S
C335 C334 1.400 . S
C335 C336 1.398 . S
C335 C341 1.491 . S
C336 H327 0.950 . S
C336 C335 1.398 . S
C336 C337 1.391 . S
C337 H325 0.950 . S
C337 C333 1.393 . S
C337 C336 1.391 . S
C338 H328 0.950 . S
C338 C339 1.386 . S
C338 C340 1.391 . S
C339 C338 1.386 . S
C339 C343 1.393 . S
C340 H329 0.950 . S
C340 C338 1.391 . S
C340 C341 1.400 . S
C341 C335 1.491 . S
C341 C340 1.400 . S
C341 C342 1.398 . S
C342 H330 0.950 . S
C342 C341 1.398 . S
C342 C343 1.391 . S
C343 H331 0.950 . S
C343 C339 1.393 . S
C343 C342 1.391 . S
H344 C352 0.950 . S
H345 C357 0.950 . S
H346 C354 0.950 . S
H347 C356 0.950 . S
H348 C358 0.950 . S
H349 C360 0.950 . S
H350 C362 0.950 . S
H351 C363 0.950 . S
C352 H344 0.950 . S
C352 C353 1.386 . S
C352 C354 1.391 . S
C353 C352 1.386 . S
C353 C357 1.393 . S
C354 H346 0.950 . S
C354 C352 1.391 . S
C354 C355 1.400 . S
C355 C354 1.400 . S
C355 C356 1.398 . S
C355 C361 1.491 . S
C356 H347 0.950 . S
C356 C355 1.398 . S
C356 C357 1.391 . S
C357 H345 0.950 . S
C357 C353 1.393 . S
C357 C356 1.391 . S
C358 H348 0.950 . S
C358 C359 1.386 . S
C358 C360 1.391 1_554 S
C359 C358 1.386 . S
C359 C363 1.393 . S
C360 H349 0.950 . S
C360 C358 1.391 1_556 S
C360 C361 1.400 . S
C361 C355 1.491 . S
C361 C360 1.400 . S
C361 C362 1.398 . S
C362 H350 0.950 . S
C362 C361 1.398 . S
C362 C363 1.391 1_556 S
C363 H351 0.950 . S
C363 C359 1.393 . S
C363 C362 1.391 1_554 S
H364 C372 0.950 . S
H365 C377 0.950 . S
H366 C374 0.950 . S
H367 C376 0.950 . S
H368 C378 0.950 . S
H369 C380 0.950 . S
H370 C382 0.950 . S
H371 C383 0.950 . S
C372 H364 0.950 . S
C372 C373 1.386 . S
C372 C374 1.391 . S
C373 C372 1.386 . S
C373 C377 1.393 . S
C374 H366 0.950 . S
C374 C372 1.391 . S
C374 C375 1.400 . S
C375 C374 1.400 . S
C375 C376 1.398 . S
C375 C381 1.491 . S
C376 H367 0.950 . S
C376 C375 1.398 . S
C376 C377 1.391 . S
C377 H365 0.950 . S
C377 C373 1.393 . S
C377 C376 1.391 . S
C378 H368 0.950 . S
C378 C379 1.386 . S
C378 C380 1.391 . S
C379 C378 1.386 . S
C379 C383 1.393 . S
C380 H369 0.950 . S
C380 C378 1.391 . S
C380 C381 1.400 . S
C381 C375 1.491 . S
C381 C380 1.400 . S
C381 C382 1.398 . S
C382 H370 0.950 . S
C382 C381 1.398 . S
C382 C383 1.391 . S
C383 H371 0.950 . S
C383 C379 1.393 . S
C383 C382 1.391 . S
H384 C392 0.950 . S
H385 C397 0.950 . S
H386 C394 0.950 . S
H387 C396 0.950 . S
H388 C398 0.950 . S
H389 C400 0.950 . S
H390 C402 0.950 . S
H391 C403 0.950 . S
C392 H384 0.950 . S
C392 C393 1.386 . S
C392 C394 1.391 . S
C393 C392 1.386 . S
C393 C397 1.393 . S
C394 H386 0.950 . S
C394 C392 1.391 . S
C394 C395 1.400 . S
C395 C394 1.400 . S
C395 C396 1.398 . S
C395 C401 1.491 . S
C396 H387 0.950 . S
C396 C395 1.398 . S
C396 C397 1.391 . S
C397 H385 0.950 . S
C397 C393 1.393 . S
C397 C396 1.391 . S
C398 H388 0.950 . S
C398 C399 1.386 . S
C398 C400 1.391 . S
C399 C398 1.386 . S
C399 C403 1.393 . S
C400 H389 0.950 . S
C400 C398 1.391 . S
C400 C401 1.400 . S
C401 C395 1.491 . S
C401 C400 1.400 . S
C401 C402 1.398 . S
C402 H390 0.950 . S
C402 C401 1.398 . S
C402 C403 1.391 . S
C403 H391 0.950 . S
C403 C399 1.393 . S
C403 C402 1.391 . S
H404 C412 0.950 . S
H405 C417 0.950 . S
H406 C414 0.950 . S
H407 C416 0.950 . S
H408 C418 0.950 . S
H409 C420 0.950 . S
H410 C422 0.950 . S
H411 C423 0.950 . S
C412 H404 0.950 . S
C412 C413 1.386 . S
C412 C414 1.391 . S
C413 C412 1.386 . S
C413 C417 1.393 . S
C414 H406 0.950 . S
C414 C412 1.391 . S
C414 C415 1.400 . S
C415 C414 1.400 . S
C415 C416 1.398 . S
C415 C421 1.491 . S
C416 H407 0.950 . S
C416 C415 1.398 . S
C416 C417 1.391 . S
C417 H405 0.950 . S
C417 C413 1.393 . S
C417 C416 1.391 . S
C418 H408 0.950 . S
C418 C419 1.386 . S
C418 C420 1.391 . S
C419 C418 1.386 . S
C419 C423 1.393 . S
C420 H409 0.950 . S
C420 C418 1.391 . S
C420 C421 1.400 . S
C421 C415 1.491 . S
C421 C420 1.400 . S
C421 C422 1.398 . S
C422 H410 0.950 . S
C422 C421 1.398 . S
C422 C423 1.391 . S
C423 H411 0.950 . S
C423 C419 1.393 . S
C423 C422 1.391 . S
H424 C432 0.950 . S
H425 C437 0.950 . S
H426 C434 0.950 . S
H427 C436 0.950 . S
H428 C438 0.950 . S
H429 C440 0.950 . S
H430 C442 0.950 . S
H431 C443 0.950 . S
C432 H424 0.950 . S
C432 C433 1.386 . S
C432 C434 1.391 . S
C433 C432 1.386 . S
C433 C437 1.393 . S
C434 H426 0.950 . S
C434 C432 1.391 . S
C434 C435 1.400 . S
C435 C434 1.400 . S
C435 C436 1.398 . S
C435 C441 1.491 . S
C436 H427 0.950 . S
C436 C435 1.398 . S
C436 C437 1.391 . S
C437 H425 0.950 . S
C437 C433 1.393 . S
C437 C436 1.391 . S
C438 H428 0.950 . S
C438 C439 1.386 1_655 S
C438 C440 1.391 . S
C439 C438 1.386 1_455 S
C439 C443 1.393 . S
C440 H429 0.950 . S
C440 C438 1.391 . S
C440 C441 1.400 . S
C441 C435 1.491 . S
C441 C440 1.400 . S
C441 C442 1.398 1_655 S
C442 H430 0.950 . S
C442 C441 1.398 1_455 S
C442 C443 1.391 . S
C443 H431 0.950 . S
C443 C439 1.393 . S
C443 C442 1.391 . S
H444 C452 0.950 . S
H445 C457 0.950 . S
H446 C454 0.950 . S
H447 C456 0.950 . S
H448 C458 0.950 . S
H449 C460 0.950 . S
H450 C462 0.950 1_545 S
H451 C463 0.950 . S
C452 H444 0.950 . S
C452 C453 1.386 . S
C452 C454 1.391 . S
C453 C452 1.386 . S
C453 C457 1.393 . S
C454 H446 0.950 . S
C454 C452 1.391 . S
C454 C455 1.400 . S
C455 C454 1.400 . S
C455 C456 1.398 1_545 S
C455 C461 1.491 1_545 S
C456 H447 0.950 . S
C456 C455 1.398 1_565 S
C456 C457 1.391 1_565 S
C457 H445 0.950 . S
C457 C453 1.393 . S
C457 C456 1.391 1_545 S
C458 H448 0.950 . S
C458 C459 1.386 . S
C458 C460 1.391 . S
C459 C458 1.386 . S
C459 C463 1.393 . S
C460 H449 0.950 . S
C460 C458 1.391 . S
C460 C461 1.400 . S
C461 C455 1.491 1_565 S
C461 C460 1.400 . S
C461 C462 1.398 . S
C462 H450 0.950 1_565 S
C462 C461 1.398 . S
C462 C463 1.391 . S
C463 H451 0.950 . S
C463 C459 1.393 . S
C463 C462 1.391 . S
H464 C472 0.950 . S
H465 C477 0.950 . S
H466 C474 0.950 . S
H467 C476 0.950 . S
H468 C478 0.957 . S
H469 C480 0.950 . S
H470 C482 0.950 . S
H471 C483 0.950 . S
C472 H464 0.950 . S
C472 C473 1.386 . S
C472 C474 1.391 . S
C473 C472 1.386 . S
C473 C477 1.393 . S
C474 H466 0.950 . S
C474 C472 1.391 . S
C474 C475 1.400 . S
C475 C474 1.400 . S
C475 C476 1.398 . S
C475 C481 1.491 . S
C476 H467 0.950 . S
C476 C475 1.398 . S
C476 C477 1.391 . S
C477 H465 0.950 . S
C477 C473 1.393 . S
C477 C476 1.391 . S
C478 H468 0.957 . S
C478 C479 1.399 . S
C478 C480 1.370 1_655 S
C479 C478 1.399 . S
C479 C483 1.393 1_655 S
C480 H469 0.950 . S
C480 C478 1.370 1_455 S
C480 C481 1.400 . S
C481 C475 1.491 . S
C481 C480 1.400 . S
C481 C482 1.398 . S
C482 H470 0.950 . S
C482 C481 1.398 . S
C482 C483 1.391 . S
C483 H471 0.950 . S
C483 C479 1.393 1_455 S
C483 C482 1.391 . S
H484 C492 0.950 . S
H485 C497 0.950 . S
H486 C494 0.950 . S
H487 C496 0.950 . S
H488 C498 0.950 . S
H489 C500 0.950 . S
H490 C502 0.950 . S
H491 C503 0.950 . S
C492 H484 0.950 . S
C492 C493 1.386 . S
C492 C494 1.391 . S
C493 C492 1.386 . S
C493 C497 1.393 . S
C494 H486 0.950 . S
C494 C492 1.391 . S
C494 C495 1.400 . S
C495 C494 1.400 . S
C495 C496 1.398 . S
C495 C501 1.491 . S
C496 H487 0.950 . S
C496 C495 1.398 . S
C496 C497 1.391 . S
C497 H485 0.950 . S
C497 C493 1.393 . S
C497 C496 1.391 . S
C498 H488 0.950 . S
C498 C499 1.386 . S
C498 C500 1.391 . S
C499 C498 1.386 . S
C499 C503 1.393 . S
C500 H489 0.950 . S
C500 C498 1.391 . S
C500 C501 1.400 . S
C501 C495 1.491 . S
C501 C500 1.400 . S
C501 C502 1.398 . S
C502 H490 0.950 . S
C502 C501 1.398 . S
C502 C503 1.391 . S
C503 H491 0.950 . S
C503 C499 1.393 . S
C503 C502 1.391 . S
C213 C2 1.604 . S
C219 C104 1.605 . S
C233 C138 1.602 . S
C239 C36 1.602 . S
C253 C70 1.602 . S
C259 C172 1.602 . S
C273 C9 1.053 . S
C279 C5 1.058 . S
C293 C43 1.035 . S
C299 C39 1.072 . S
C313 C77 1.060 1_554 S
C319 C73 1.073 . S
C333 C107 1.062 . S
C339 C111 1.060 . S
C353 C145 1.053 . S
C359 C141 1.075 . S
C373 C175 1.069 . S
C379 C179 1.031 1_554 S
C393 C20 1.595 . S
C399 C67 1.607 . S
C413 C54 1.584 . S
C419 C101 1.597 . S
C433 C135 1.596 1_556 S
C439 C88 1.577 . S
C453 C122 1.585 . S
C459 C169 1.604 . S
C473 C203 1.595 . S
C479 C156 1.578 . S
C493 C190 1.577 1_545 S
C499 C33 1.596 1_556 S
